# Generated by pormake.
# Topology pcl, (4)-cn, num edge types: 1
# Building blocks:
#     Node 0, Type 0, BuildingBlock: CEKHIL_clean_sbu_0, # of connection points: 4
#     Node 1, Type 0, BuildingBlock: CEKHIL_clean_sbu_0, # of connection points: 4
#     Node 2, Type 0, BuildingBlock: CEKHIL_clean_sbu_0, # of connection points: 4
#     Node 3, Type 0, BuildingBlock: CEKHIL_clean_sbu_0, # of connection points: 4
#     Node 4, Type 0, BuildingBlock: CEKHIL_clean_sbu_0, # of connection points: 4
#     Node 5, Type 0, BuildingBlock: CEKHIL_clean_sbu_0, # of connection points: 4
#     Node 6, Type 0, BuildingBlock: CEKHIL_clean_sbu_0, # of connection points: 4
#     Node 7, Type 0, BuildingBlock: CEKHIL_clean_sbu_0, # of connection points: 4
#     Node 8, Type 0, BuildingBlock: CEKHIL_clean_sbu_0, # of connection points: 4
#     Node 9, Type 0, BuildingBlock: CEKHIL_clean_sbu_0, # of connection points: 4
#     Node 10, Type 0, BuildingBlock: CEKHIL_clean_sbu_0, # of connection points: 4
#     Node 11, Type 0, BuildingBlock: CEKHIL_clean_sbu_0, # of connection points: 4
#     Node 12, Type 0, BuildingBlock: CEKHIL_clean_sbu_0, # of connection points: 4
#     Node 13, Type 0, BuildingBlock: CEKHIL_clean_sbu_0, # of connection points: 4
#     Node 14, Type 0, BuildingBlock: CEKHIL_clean_sbu_0, # of connection points: 4
#     Node 15, Type 0, BuildingBlock: CEKHIL_clean_sbu_0, # of connection points: 4
#     Edge 16, Type (0, 0), BuildingBlock: MIFKUJ_clean_linker_0, # of connection points: 2
#     Edge 17, Type (0, 0), BuildingBlock: MIFKUJ_clean_linker_0, # of connection points: 2
#     Edge 18, Type (0, 0), BuildingBlock: MIFKUJ_clean_linker_0, # of connection points: 2
#     Edge 19, Type (0, 0), BuildingBlock: MIFKUJ_clean_linker_0, # of connection points: 2
#     Edge 20, Type (0, 0), BuildingBlock: MIFKUJ_clean_linker_0, # of connection points: 2
#     Edge 21, Type (0, 0), BuildingBlock: MIFKUJ_clean_linker_0, # of connection points: 2
#     Edge 22, Type (0, 0), BuildingBlock: MIFKUJ_clean_linker_0, # of connection points: 2
#     Edge 23, Type (0, 0), BuildingBlock: MIFKUJ_clean_linker_0, # of connection points: 2
#     Edge 24, Type (0, 0), BuildingBlock: MIFKUJ_clean_linker_0, # of connection points: 2
#     Edge 25, Type (0, 0), BuildingBlock: MIFKUJ_clean_linker_0, # of connection points: 2
#     Edge 26, Type (0, 0), BuildingBlock: MIFKUJ_clean_linker_0, # of connection points: 2
#     Edge 27, Type (0, 0), BuildingBlock: MIFKUJ_clean_linker_0, # of connection points: 2
#     Edge 28, Type (0, 0), BuildingBlock: MIFKUJ_clean_linker_0, # of connection points: 2
#     Edge 29, Type (0, 0), BuildingBlock: MIFKUJ_clean_linker_0, # of connection points: 2
#     Edge 30, Type (0, 0), BuildingBlock: MIFKUJ_clean_linker_0, # of connection points: 2
#     Edge 31, Type (0, 0), BuildingBlock: MIFKUJ_clean_linker_0, # of connection points: 2
#     Edge 32, Type (0, 0), BuildingBlock: MIFKUJ_clean_linker_0, # of connection points: 2
#     Edge 33, Type (0, 0), BuildingBlock: MIFKUJ_clean_linker_0, # of connection points: 2
#     Edge 34, Type (0, 0), BuildingBlock: MIFKUJ_clean_linker_0, # of connection points: 2
#     Edge 35, Type (0, 0), BuildingBlock: MIFKUJ_clean_linker_0, # of connection points: 2
#     Edge 36, Type (0, 0), BuildingBlock: MIFKUJ_clean_linker_0, # of connection points: 2
#     Edge 37, Type (0, 0), BuildingBlock: MIFKUJ_clean_linker_0, # of connection points: 2
#     Edge 38, Type (0, 0), BuildingBlock: MIFKUJ_clean_linker_0, # of connection points: 2
#     Edge 39, Type (0, 0), BuildingBlock: MIFKUJ_clean_linker_0, # of connection points: 2
#     Edge 40, Type (0, 0), BuildingBlock: MIFKUJ_clean_linker_0, # of connection points: 2
#     Edge 41, Type (0, 0), BuildingBlock: MIFKUJ_clean_linker_0, # of connection points: 2
#     Edge 42, Type (0, 0), BuildingBlock: MIFKUJ_clean_linker_0, # of connection points: 2
#     Edge 43, Type (0, 0), BuildingBlock: MIFKUJ_clean_linker_0, # of connection points: 2
#     Edge 44, Type (0, 0), BuildingBlock: MIFKUJ_clean_linker_0, # of connection points: 2
#     Edge 45, Type (0, 0), BuildingBlock: MIFKUJ_clean_linker_0, # of connection points: 2
#     Edge 46, Type (0, 0), BuildingBlock: MIFKUJ_clean_linker_0, # of connection points: 2
#     Edge 47, Type (0, 0), BuildingBlock: MIFKUJ_clean_linker_0, # of connection points: 2
# Relax obj value: 0.074
# Max RMSD: 0.055
# Mean RMSD: 0.053
data_MOF--net-pcl--node1-CEKHIL_clean_sbu_0--edge1-MIFKUJ_clean_linker_0
_symmetry_space_group_name_H-M    P1
_symmetry_Int_Tables_number       1
_symmetry_cell_setting            triclinic
loop_
_symmetry_equiv_pos_as_xyz
'x, y, z'
_cell_length_a     68.212938
_cell_length_b     53.185069
_cell_length_c     55.696687
_cell_angle_alpha  90.008626
_cell_angle_beta   89.98553
_cell_angle_gamma 90.008209
loop_
_atom_site_label
_atom_site_type_symbol
_atom_site_fract_x
_atom_site_fract_y
_atom_site_fract_z
_atom_type_partial_charge
Co0 Co 0.14326 0.33758 0.07265 0.0
O1 O 0.17126 0.33209 0.07084 0.0
O2 O 0.14899 0.30315 0.06299 0.0
C3 C 0.14368 0.37448 0.05216 0.0
O4 O 0.11305 0.33647 0.07154 0.0
Co5 Co 0.12549 0.38492 0.09752 0.0
O6 O 0.1015 0.37512 0.07988 0.0
C7 C 0.13998 0.34205 0.12701 0.0
C8 C 0.16744 0.30938 0.0638 0.0
C9 C 0.09893 0.35265 0.0726 0.0
O10 O 0.1433 0.32849 0.10818 0.0
O11 O 0.13427 0.36497 0.12598 0.0
O12 O 0.14368 0.35323 0.04064 0.0
O13 O 0.14473 0.37267 0.07517 0.0
Co14 Co 0.86832 0.66112 0.57416 0.0
O15 O 0.84035 0.66541 0.57111 0.0
O16 O 0.86201 0.69511 0.56334 0.0
C17 C 0.86929 0.62366 0.55474 0.0
O18 O 0.89851 0.66291 0.57439 0.0
Co19 Co 0.88515 0.61537 0.60238 0.0
O20 O 0.90972 0.62482 0.5856 0.0
C21 C 0.8673 0.65807 0.62856 0.0
C22 C 0.8437 0.68813 0.56381 0.0
C23 C 0.91252 0.64676 0.57704 0.0
O24 O 0.86694 0.67144 0.60923 0.0
O25 O 0.8723 0.63485 0.62891 0.0
O26 O 0.86922 0.64455 0.54265 0.0
O27 O 0.86733 0.62613 0.57763 0.0
Co28 Co 0.14137 0.65776 0.92462 0.0
O29 O 0.16924 0.66209 0.92918 0.0
O30 O 0.14728 0.69167 0.93595 0.0
C31 C 0.13967 0.6201 0.94366 0.0
O32 O 0.11119 0.65956 0.92294 0.0
Co33 Co 0.12567 0.61232 0.89502 0.0
O34 O 0.10018 0.62235 0.90913 0.0
C35 C 0.14461 0.6551 0.87029 0.0
C36 C 0.1656 0.68477 0.9364 0.0
C37 C 0.09713 0.64394 0.91837 0.0
O38 O 0.144 0.66837 0.88969 0.0
O39 O 0.13976 0.63184 0.86955 0.0
O40 O 0.13939 0.64088 0.95592 0.0
O41 O 0.14247 0.62277 0.92094 0.0
Co42 Co 0.86554 0.33978 0.42859 0.0
O43 O 0.83766 0.33481 0.43235 0.0
O44 O 0.8599 0.30561 0.43932 0.0
C45 C 0.86656 0.37718 0.4482 0.0
O46 O 0.89575 0.33866 0.42765 0.0
Co47 Co 0.88108 0.38622 0.40008 0.0
O48 O 0.90647 0.37627 0.41448 0.0
C49 C 0.86326 0.34336 0.37424 0.0
C50 C 0.84149 0.31212 0.43942 0.0
C51 C 0.90966 0.35462 0.42351 0.0
O52 O 0.86373 0.3297 0.3934 0.0
O53 O 0.86766 0.36677 0.37408 0.0
O54 O 0.86677 0.35624 0.46021 0.0
O55 O 0.86412 0.37475 0.4254 0.0
Co56 Co 0.84606 0.66764 0.91551 0.0
O57 O 0.8183 0.67222 0.9208 0.0
O58 O 0.84124 0.68529 0.94572 0.0
C59 C 0.84551 0.68001 0.87654 0.0
O60 O 0.87632 0.66713 0.91541 0.0
Co61 Co 0.86093 0.62945 0.87718 0.0
O62 O 0.88647 0.64628 0.8825 0.0
C63 C 0.84503 0.61101 0.9234 0.0
C64 C 0.82264 0.6837 0.94062 0.0
C65 C 0.89001 0.65981 0.9009 0.0
O66 O 0.84489 0.63357 0.93201 0.0
O67 O 0.84924 0.60611 0.90148 0.0
O68 O 0.84651 0.69672 0.89354 0.0
O69 O 0.84356 0.65715 0.88368 0.0
Co70 Co 0.16037 0.33416 0.41711 0.0
O71 O 0.18832 0.32962 0.42117 0.0
O72 O 0.16596 0.31624 0.44681 0.0
C73 C 0.15926 0.32229 0.37799 0.0
O74 O 0.13017 0.33457 0.41863 0.0
Co75 Co 0.14443 0.37347 0.38033 0.0
O76 O 0.11852 0.35959 0.38923 0.0
C77 C 0.16196 0.39074 0.42584 0.0
C78 C 0.18441 0.31796 0.44106 0.0
C79 C 0.11585 0.34449 0.40671 0.0
O80 O 0.16197 0.36801 0.43405 0.0
O81 O 0.15743 0.39611 0.40414 0.0
O82 O 0.15944 0.30533 0.3948 0.0
O83 O 0.1615 0.34508 0.38526 0.0
Co84 Co 0.84903 0.33647 0.08426 0.0
O85 O 0.82124 0.33136 0.07959 0.0
O86 O 0.84412 0.3179 0.05468 0.0
C87 C 0.84935 0.32524 0.1236 0.0
O88 O 0.87922 0.33733 0.08359 0.0
Co89 Co 0.86415 0.37612 0.12111 0.0
O90 O 0.88995 0.36038 0.11483 0.0
C91 C 0.84733 0.39286 0.07488 0.0
C92 C 0.82556 0.31941 0.05999 0.0
C93 C 0.89318 0.34596 0.09697 0.0
O94 O 0.84735 0.37004 0.06688 0.0
O95 O 0.85174 0.39849 0.09656 0.0
O96 O 0.84999 0.30805 0.10702 0.0
O97 O 0.84703 0.34785 0.11587 0.0
Co98 Co 0.16402 0.66718 0.58345 0.0
O99 O 0.19185 0.67085 0.57766 0.0
O100 O 0.1688 0.68489 0.55333 0.0
C101 C 0.16513 0.67935 0.62254 0.0
O102 O 0.13381 0.66766 0.58377 0.0
Co103 Co 0.14831 0.62968 0.62192 0.0
O104 O 0.12333 0.64804 0.6172 0.0
C105 C 0.16365 0.61059 0.57556 0.0
C106 C 0.18741 0.68263 0.55802 0.0
C107 C 0.12007 0.66135 0.59858 0.0
O108 O 0.16435 0.63311 0.56687 0.0
O109 O 0.1593 0.60592 0.59749 0.0
O110 O 0.1644 0.69616 0.60561 0.0
O111 O 0.16648 0.65646 0.61524 0.0
Co112 Co 0.6414 0.83955 0.076 0.0
O113 O 0.6692 0.83433 0.07157 0.0
O114 O 0.64677 0.80525 0.06512 0.0
C115 C 0.64048 0.87693 0.05619 0.0
O116 O 0.61114 0.83863 0.078 0.0
Co117 Co 0.62699 0.88662 0.10456 0.0
O118 O 0.60073 0.87507 0.09433 0.0
C119 C 0.64458 0.84351 0.13032 0.0
C120 C 0.6652 0.81166 0.06466 0.0
C121 C 0.59731 0.8537 0.08481 0.0
O122 O 0.6438 0.82968 0.11125 0.0
O123 O 0.64055 0.86702 0.13027 0.0
O124 O 0.63964 0.85593 0.04432 0.0
O125 O 0.64326 0.87453 0.07891 0.0
Co126 Co 0.36569 0.16201 0.57652 0.0
O127 O 0.33798 0.16614 0.57071 0.0
O128 O 0.36002 0.19587 0.56485 0.0
C129 C 0.36834 0.12429 0.55762 0.0
O130 O 0.39576 0.16401 0.57979 0.0
Co131 Co 0.37994 0.11647 0.6073 0.0
O132 O 0.40631 0.12879 0.59829 0.0
C133 C 0.3605 0.15953 0.63071 0.0
C134 C 0.34174 0.18886 0.56372 0.0
C135 C 0.40961 0.14975 0.58792 0.0
O136 O 0.36199 0.17273 0.61133 0.0
O137 O 0.36478 0.13612 0.63167 0.0
O138 O 0.36881 0.14505 0.54533 0.0
O139 O 0.36463 0.12704 0.58013 0.0
Co140 Co 0.64412 0.16015 0.9286 0.0
O141 O 0.67207 0.16374 0.93326 0.0
O142 O 0.65051 0.19399 0.93945 0.0
C143 C 0.64147 0.12285 0.94814 0.0
O144 O 0.61405 0.16318 0.92677 0.0
Co145 Co 0.6274 0.11499 0.89941 0.0
O146 O 0.60156 0.12872 0.90878 0.0
C147 C 0.64773 0.1564 0.8744 0.0
C148 C 0.66871 0.18665 0.9401 0.0
C149 C 0.59943 0.14981 0.91933 0.0
O150 O 0.64707 0.17013 0.89351 0.0
O151 O 0.64261 0.13324 0.8741 0.0
O152 O 0.6417 0.14382 0.96011 0.0
O153 O 0.64437 0.12505 0.92538 0.0
Co154 Co 0.36762 0.84359 0.4264 0.0
O155 O 0.33984 0.83896 0.43152 0.0
O156 O 0.36186 0.80895 0.43571 0.0
C157 C 0.36982 0.87984 0.44785 0.0
O158 O 0.39776 0.84185 0.42349 0.0
Co159 Co 0.38254 0.89143 0.39945 0.0
O160 O 0.40874 0.87864 0.40845 0.0
C161 C 0.36444 0.84969 0.37209 0.0
C162 C 0.34357 0.81583 0.43718 0.0
C163 C 0.4118 0.85674 0.41699 0.0
O164 O 0.36446 0.83542 0.39087 0.0
O165 O 0.36921 0.87297 0.37278 0.0
O166 O 0.37027 0.85823 0.45871 0.0
O167 O 0.36651 0.87876 0.42512 0.0
Co168 Co 0.34976 0.16606 0.91846 0.0
O169 O 0.32175 0.16822 0.92353 0.0
O170 O 0.34393 0.18338 0.94846 0.0
C171 C 0.34898 0.17821 0.87936 0.0
O172 O 0.37993 0.16841 0.91892 0.0
Co173 Co 0.36766 0.12961 0.88048 0.0
O174 O 0.39168 0.1498 0.88561 0.0
C175 C 0.35352 0.1096 0.92707 0.0
C176 C 0.32548 0.18028 0.94325 0.0
C177 C 0.39413 0.16313 0.90438 0.0
O178 O 0.35048 0.13205 0.93515 0.0
O179 O 0.35889 0.10507 0.90547 0.0
O180 O 0.34862 0.19499 0.89633 0.0
O181 O 0.34834 0.15523 0.88657 0.0
Co182 Co 0.66284 0.83392 0.41847 0.0
O183 O 0.69041 0.82872 0.42435 0.0
O184 O 0.66684 0.81571 0.44849 0.0
C185 C 0.66332 0.82208 0.37936 0.0
O186 O 0.63266 0.83534 0.4175 0.0
Co187 Co 0.6501 0.87405 0.38069 0.0
O188 O 0.62388 0.85877 0.38557 0.0
C189 C 0.66566 0.89026 0.42749 0.0
C190 C 0.68554 0.81713 0.44392 0.0
C191 C 0.61954 0.84437 0.40311 0.0
O192 O 0.66417 0.86761 0.43562 0.0
O193 O 0.66278 0.89601 0.40545 0.0
O194 O 0.66225 0.80516 0.39615 0.0
O195 O 0.66588 0.84475 0.38685 0.0
Co196 Co 0.34552 0.83179 0.08364 0.0
O197 O 0.31785 0.82771 0.07755 0.0
O198 O 0.34119 0.81303 0.05397 0.0
C199 C 0.34424 0.82094 0.12303 0.0
O200 O 0.37576 0.83185 0.08478 0.0
Co201 Co 0.35945 0.87181 0.12092 0.0
O202 O 0.38518 0.85508 0.11656 0.0
C203 C 0.34436 0.88799 0.07379 0.0
C204 C 0.32251 0.81541 0.0583 0.0
C205 C 0.38913 0.84036 0.09913 0.0
O206 O 0.34522 0.86518 0.06589 0.0
O207 O 0.34742 0.89387 0.09577 0.0
O208 O 0.34506 0.80356 0.10664 0.0
O209 O 0.34257 0.84351 0.11497 0.0
Co210 Co 0.66108 0.1664 0.58624 0.0
O211 O 0.68881 0.16925 0.57984 0.0
O212 O 0.6657 0.18467 0.55638 0.0
C213 C 0.66332 0.17766 0.62549 0.0
O214 O 0.63086 0.16784 0.58749 0.0
Co215 Co 0.64555 0.12843 0.62437 0.0
O216 O 0.62077 0.14733 0.62058 0.0
C217 C 0.6581 0.11008 0.57651 0.0
C218 C 0.68434 0.18167 0.56059 0.0
C219 C 0.61727 0.1612 0.60241 0.0
O220 O 0.66037 0.13282 0.56882 0.0
O221 O 0.65368 0.10478 0.59828 0.0
O222 O 0.6625 0.19483 0.60892 0.0
O223 O 0.66404 0.15487 0.61775 0.0
H224 H 0.08231 0.30556 0.07623 0.0
H225 H 0.0472 0.29522 0.07422 0.0
H226 H 0.03412 0.3723 0.0563 0.0
H227 H 0.06886 0.38262 0.05813 0.0
H228 H 0.01909 0.31349 0.10282 0.0
H229 H 0.99342 0.37695 0.02339 0.0
H230 H 0.00552 0.38995 0.98356 0.0
H231 H 0.0408 0.32325 0.9793 0.0
H232 H 0.02872 0.30966 0.01894 0.0
H233 H 0.92575 0.36193 0.12103 0.0
H234 H 0.95992 0.35442 0.11162 0.0
H235 H 0.94309 0.30914 0.0508 0.0
H236 H 0.90833 0.31708 0.05987 0.0
H237 H 0.97274 0.33998 0.039 0.0
H238 H 0.96166 0.28139 0.10196 0.0
H239 H 0.94972 0.26675 0.14135 0.0
H240 H 0.98815 0.31874 0.1769 0.0
H241 H 1.00012 0.33396 0.13774 0.0
C242 C 0.07197 0.32012 0.07126 0.0
C243 C 0.0784 0.34493 0.06743 0.0
C244 C 0.05189 0.31423 0.07027 0.0
C245 C 0.03794 0.33293 0.065 0.0
C246 C 0.04451 0.35741 0.06006 0.0
C247 C 0.06444 0.36333 0.06126 0.0
C248 C 0.01646 0.32785 0.06684 0.0
C249 C 0.00898 0.31899 0.08875 0.0
C250 C 1.00318 0.33452 0.04834 0.0
C251 C 0.01022 0.34235 0.02424 0.0
C252 C 1.00365 0.36496 0.0139 0.0
C253 C 0.01054 0.37246 0.99136 0.0
C254 C 0.02396 0.35747 0.97893 0.0
C255 C 0.03046 0.33489 0.98897 0.0
C256 C 0.02361 0.3273 0.01149 0.0
C257 C 0.92912 0.35022 0.10568 0.0
C258 C 0.91409 0.34004 0.09128 0.0
C259 C 0.94882 0.34581 0.10039 0.0
C260 C 0.95421 0.33083 0.08074 0.0
C261 C 0.93933 0.32065 0.06616 0.0
C262 C 0.91945 0.32514 0.07143 0.0
C263 C 0.97543 0.32671 0.07537 0.0
C264 C 0.98285 0.33394 0.05287 0.0
C265 C 0.98869 0.31822 0.09323 0.0
C266 C 0.98174 0.30887 0.11687 0.0
C267 C 0.9675 0.28979 0.11817 0.0
C268 C 0.96073 0.28138 0.14047 0.0
C269 C 0.96816 0.29182 0.16161 0.0
C270 C 0.98241 0.31065 0.16051 0.0
C271 C 0.98923 0.31914 0.13826 0.0
H272 H 0.96288 0.2853 0.17885 0.0
H273 H 0.0293 0.36333 0.96151 0.0
H274 H 0.93141 0.69164 0.58545 0.0
H275 H 0.96695 0.69908 0.58399 0.0
H276 H 0.97552 0.62469 0.55483 0.0
H277 H 0.94035 0.61695 0.55727 0.0
H278 H 0.99837 0.62946 0.58985 0.0
H279 H 0.98417 0.68169 0.52225 0.0
H280 H 0.9678 0.71576 0.4999 0.0
H281 H 0.99085 0.77017 0.54937 0.0
H282 H 0.00715 0.73638 0.57221 0.0
H283 H 0.10273 0.67183 0.55488 0.0
H284 H 0.06739 0.67465 0.54649 0.0
H285 H 0.05509 0.6681 0.62215 0.0
H286 H 0.09003 0.66488 0.63058 0.0
H287 H 0.03499 0.70381 0.56014 0.0
H288 H 0.01916 0.62613 0.63031 0.0
H289 H 0.03602 0.59012 0.64911 0.0
H290 H 0.07322 0.58284 0.58729 0.0
H291 H 0.0564 0.61855 0.56799 0.0
C292 C 0.94089 0.67717 0.57819 0.0
C293 C 0.93312 0.65368 0.57158 0.0
C294 C 0.96124 0.68142 0.57734 0.0
C295 C 0.9741 0.66243 0.56936 0.0
C296 C 0.96607 0.6396 0.56132 0.0
C297 C 0.94591 0.63521 0.5626 0.0
C298 C 0.9959 0.66505 0.57154 0.0
C299 C 0.00626 0.64576 0.58322 0.0
C300 C 0.00649 0.68611 0.56277 0.0
C301 C 0.99674 0.70647 0.54907 0.0
C302 C 0.98562 0.7009 0.52847 0.0
C303 C 0.97638 0.72017 0.5157 0.0
C304 C 0.97824 0.74511 0.52325 0.0
C305 C 0.9894 0.75084 0.54356 0.0
C306 C 0.99866 0.73164 0.55641 0.0
C307 C 0.0925 0.67152 0.56975 0.0
C308 C 0.09923 0.66773 0.59337 0.0
C309 C 0.07229 0.67315 0.56493 0.0
C310 C 0.05852 0.6711 0.58365 0.0
C311 C 0.06536 0.66926 0.60735 0.0
C312 C 0.0854 0.66742 0.61213 0.0
C313 C 0.03713 0.66837 0.5786 0.0
C314 C 0.02693 0.68757 0.56658 0.0
C315 C 0.02663 0.64694 0.58651 0.0
C316 C 0.03663 0.62517 0.59782 0.0
C317 C 0.03088 0.61677 0.62069 0.0
C318 C 0.04044 0.59642 0.63144 0.0
C319 C 0.05572 0.58425 0.61943 0.0
C320 C 0.06143 0.59234 0.59661 0.0
C321 C 0.0519 0.61264 0.58577 0.0
H322 H 0.06311 0.56852 0.6278 0.0
H323 H 0.97107 0.75999 0.51333 0.0
H324 H 0.92135 0.65276 0.87116 0.0
H325 H 0.95597 0.65823 0.87993 0.0
H326 H 0.94164 0.68629 0.9504 0.0
H327 H 0.90657 0.68035 0.9419 0.0
H328 H 0.9792 0.69809 0.89167 0.0
H329 H 0.96918 0.66898 0.98507 0.0
H330 H 0.94839 0.64239 0.0111 0.0
H331 H 0.94573 0.58604 0.95593 0.0
H332 H 0.96629 0.61253 0.92954 0.0
H333 H 0.08106 0.69119 0.92592 0.0
H334 H 0.04604 0.70187 0.92912 0.0
H335 H 0.03118 0.62327 0.92353 0.0
H336 H 0.06568 0.61255 0.92073 0.0
H337 H 0.00808 0.64466 0.95551 0.0
H338 H 0.03024 0.66357 0.87431 0.0
H339 H 0.0507 0.68558 0.8444 0.0
H340 H 0.02933 0.75675 0.86973 0.0
H341 H 0.00891 0.73513 0.89996 0.0
C342 C 0.92541 0.66021 0.88856 0.0
C343 C 0.91101 0.66583 0.90593 0.0
C344 C 0.94533 0.66347 0.89349 0.0
C345 C 0.95154 0.67239 0.91592 0.0
C346 C 0.93726 0.67897 0.93307 0.0
C347 C 0.91718 0.67573 0.92813 0.0
C348 C 0.97299 0.67333 0.92132 0.0
C349 C 0.98551 0.68685 0.90597 0.0
C350 C 0.98138 0.65851 0.9397 0.0
C351 C 0.96914 0.64265 0.95544 0.0
C352 C 0.96414 0.6509 0.97858 0.0
C353 C 0.95236 0.63591 0.99333 0.0
C354 C 0.94574 0.61254 0.98517 0.0
C355 C 0.95084 0.60415 0.96221 0.0
C356 C 0.96248 0.61917 0.94733 0.0
C357 C 0.07032 0.6762 0.92574 0.0
C358 C 0.07627 0.65102 0.92283 0.0
C359 C 0.05029 0.68233 0.92744 0.0
C360 C 0.03586 0.66339 0.92634 0.0
C361 C 0.0419 0.63826 0.92447 0.0
C362 C 0.06175 0.63217 0.9227 0.0
C363 C 0.01442 0.66924 0.92569 0.0
C364 C 1.00186 0.65678 0.94181 0.0
C365 C 0.00605 0.68482 0.90776 0.0
C366 C 0.01825 0.69777 0.88956 0.0
C367 C 0.03002 0.68392 0.87359 0.0
C368 C 0.04159 0.69631 0.85657 0.0
C369 C 0.04137 0.72255 0.85522 0.0
C370 C 0.02953 0.73643 0.87083 0.0
C371 C 0.01795 0.72412 0.8879 0.0
H372 H 0.05033 0.73211 0.84203 0.0
H373 H 0.93666 0.60094 0.99663 0.0
H374 H 0.0851 0.3762 0.4014 0.0
H375 H 0.05084 0.36937 0.41169 0.0
H376 H 0.06476 0.29539 0.43822 0.0
H377 H 0.09967 0.30236 0.42834 0.0
H378 H 0.02953 0.30269 0.40218 0.0
H379 H 0.05436 0.32852 0.47888 0.0
H380 H 0.0738 0.35498 0.50637 0.0
H381 H 0.04072 0.41994 0.48514 0.0
H382 H 0.02129 0.39397 0.45723 0.0
H383 H 0.9262 0.30769 0.43152 0.0
H384 H 0.96129 0.29779 0.43582 0.0
H385 H 0.97521 0.37669 0.4301 0.0
H386 H 0.94068 0.38663 0.42629 0.0
H387 H 0.99725 0.35651 0.46326 0.0
H388 H 0.97844 0.33521 0.3817 0.0
H389 H 0.95959 0.31213 0.35099 0.0
H390 H 0.98156 0.24205 0.37822 0.0
H391 H 1.00035 0.26475 0.40931 0.0
C392 C 0.081 0.35842 0.40944 0.0
C393 C 0.09517 0.33977 0.41396 0.0
C394 C 0.06136 0.35459 0.41536 0.0
C395 C 0.05522 0.33189 0.42568 0.0
C396 C 0.06921 0.31305 0.43023 0.0
C397 C 0.08912 0.31709 0.4247 0.0
C398 C 0.03407 0.32855 0.43137 0.0
C399 C 0.02246 0.31382 0.41602 0.0
C400 C 0.02483 0.34359 0.44899 0.0
C401 C 0.03642 0.35929 0.46587 0.0
C402 C 0.05133 0.34848 0.47993 0.0
C403 C 0.06233 0.36339 0.49561 0.0
C404 C 0.0585 0.38912 0.49748 0.0
C405 C 0.04366 0.4 0.48368 0.0
C406 C 0.03262 0.38519 0.46795 0.0
C407 C 0.93676 0.32291 0.4315 0.0
C408 C 0.93054 0.34794 0.42835 0.0
C409 C 0.95683 0.31722 0.43382 0.0
C410 C 0.97101 0.33647 0.43307 0.0
C411 C 0.96468 0.36145 0.4308 0.0
C412 C 0.9448 0.36709 0.42846 0.0
C413 C 0.99254 0.33121 0.4336 0.0
C414 C 1.00426 0.34457 0.44999 0.0
C415 C 1.00183 0.31525 0.41666 0.0
C416 C 0.99056 0.30162 0.39802 0.0
C417 C 0.97911 0.31486 0.38126 0.0
C418 C 0.96847 0.30186 0.36376 0.0
C419 C 0.96932 0.27564 0.36271 0.0
C420 C 0.98087 0.26236 0.37911 0.0
C421 C 0.99152 0.27528 0.39667 0.0
H422 H 0.96108 0.2656 0.34915 0.0
H423 H 0.06699 0.40063 0.50967 0.0
H424 H 0.40653 0.81534 0.06083 0.0
H425 H 0.44192 0.81088 0.0528 0.0
H426 H 0.45485 0.84853 0.11944 0.0
H427 H 0.42009 0.85262 0.12783 0.0
H428 H 0.47219 0.87008 0.07552 0.0
H429 H 0.46291 0.79043 0.11802 0.0
H430 H 0.44844 0.74821 0.12258 0.0
H431 H 0.4723 0.72622 0.05439 0.0
H432 H 0.48668 0.76847 0.04927 0.0
H433 H 0.56744 0.87022 0.11264 0.0
H434 H 0.53269 0.86167 0.10906 0.0
H435 H 0.54381 0.81196 0.04944 0.0
H436 H 0.57934 0.82016 0.0533 0.0
H437 H 0.51391 0.79373 0.07906 0.0
H438 H 0.52593 0.86926 0.03701 0.0
H439 H 0.53999 0.91104 0.02917 0.0
H440 H 0.5104 0.94073 0.09106 0.0
H441 H 0.49618 0.89895 0.09934 0.0
C442 C 0.41692 0.82229 0.07394 0.0
C443 C 0.41031 0.83462 0.09485 0.0
C444 C 0.43714 0.81973 0.06931 0.0
C445 C 0.45103 0.82955 0.08546 0.0
C446 C 0.44444 0.84095 0.10665 0.0
C447 C 0.42443 0.84329 0.11138 0.0
C448 C 0.47241 0.82993 0.08 0.0
C449 C 0.4813 0.85337 0.07628 0.0
C450 C 0.48423 0.80804 0.07994 0.0
C451 C 0.47564 0.7827 0.08311 0.0
C452 C 0.46489 0.77668 0.10388 0.0
C453 C 0.45675 0.75272 0.1066 0.0
C454 C 0.45939 0.73457 0.08874 0.0
C455 C 0.47023 0.74031 0.06817 0.0
C456 C 0.47839 0.76425 0.06536 0.0
C457 C 0.56266 0.8574 0.0987 0.0
C458 C 0.57627 0.84624 0.08296 0.0
C459 C 0.54266 0.85253 0.09668 0.0
C460 C 0.53546 0.83666 0.07861 0.0
C461 C 0.54897 0.82446 0.06342 0.0
C462 C 0.56926 0.82917 0.06562 0.0
C463 C 0.51375 0.83409 0.07561 0.0
C464 C 0.50479 0.81037 0.07773 0.0
C465 C 0.50169 0.8557 0.0737 0.0
C466 C 0.51007 0.88094 0.06885 0.0
C467 C 0.5225 0.88466 0.04903 0.0
C468 C 0.53049 0.90837 0.04449 0.0
C469 C 0.52616 0.92856 0.05965 0.0
C470 C 0.51375 0.92508 0.07933 0.0
C471 C 0.50566 0.90139 0.08391 0.0
H472 H 0.53239 0.94691 0.0561 0.0
H473 H 0.45308 0.71603 0.09088 0.0
H474 H 0.6004 0.18267 0.56191 0.0
H475 H 0.5651 0.1873 0.55347 0.0
H476 H 0.55157 0.15826 0.62375 0.0
H477 H 0.58626 0.15406 0.63251 0.0
H478 H 0.53411 0.13184 0.58259 0.0
H479 H 0.54415 0.21573 0.61616 0.0
H480 H 0.55897 0.25802 0.61645 0.0
H481 H 0.53562 0.27247 0.54621 0.0
H482 H 0.52089 0.23008 0.54537 0.0
H483 H 0.43867 0.13816 0.619 0.0
H484 H 0.47356 0.14631 0.61529 0.0
H485 H 0.46349 0.18693 0.54944 0.0
H486 H 0.42792 0.17918 0.55339 0.0
H487 H 0.49329 0.20888 0.57746 0.0
H488 H 0.47952 0.12822 0.54536 0.0
H489 H 0.46456 0.08605 0.54378 0.0
H490 H 0.49549 0.06489 0.60779 0.0
H491 H 0.51041 0.10706 0.60998 0.0
C492 C 0.58991 0.17774 0.57571 0.0
C493 C 0.5963 0.16768 0.59779 0.0
C494 C 0.56974 0.18037 0.57084 0.0
C495 C 0.55571 0.17291 0.58792 0.0
C496 C 0.56211 0.16397 0.61024 0.0
C497 C 0.58206 0.16157 0.61518 0.0
C498 C 0.53435 0.17227 0.58246 0.0
C499 C 0.52519 0.14869 0.58143 0.0
C500 C 0.52279 0.19422 0.58 0.0
C501 C 0.53166 0.21962 0.58055 0.0
C502 C 0.54237 0.22781 0.60066 0.0
C503 C 0.5507 0.25183 0.60096 0.0
C504 C 0.54831 0.26789 0.58132 0.0
C505 C 0.53751 0.25999 0.56138 0.0
C506 C 0.52916 0.23598 0.56099 0.0
C507 C 0.44376 0.14899 0.60374 0.0
C508 C 0.4305 0.15765 0.58626 0.0
C509 C 0.46379 0.15364 0.60165 0.0
C510 C 0.47129 0.16669 0.58178 0.0
C511 C 0.45807 0.17663 0.56484 0.0
C512 C 0.43777 0.17219 0.5671 0.0
C513 C 0.493 0.16838 0.57865 0.0
C514 C 0.50222 0.19202 0.57803 0.0
C515 C 0.50477 0.14643 0.57925 0.0
C516 C 0.49603 0.12087 0.57787 0.0
C517 C 0.48306 0.11462 0.55917 0.0
C518 C 0.47458 0.09071 0.55816 0.0
C519 C 0.47906 0.07281 0.57568 0.0
C520 C 0.49205 0.07877 0.59422 0.0
C521 C 0.50054 0.10267 0.59534 0.0
H522 H 0.47247 0.05431 0.57487 0.0
H523 H 0.55476 0.28648 0.58159 0.0
H524 H 0.57056 0.1468 0.88629 0.0
H525 H 0.53615 0.15867 0.8905 0.0
H526 H 0.54726 0.18483 0.96247 0.0
H527 H 0.58223 0.1736 0.95803 0.0
H528 H 0.5133 0.14708 0.9535 0.0
H529 H 0.53717 0.22793 0.93102 0.0
H530 H 0.55663 0.25815 0.90737 0.0
H531 H 0.52541 0.23707 0.84353 0.0
H532 H 0.50597 0.20642 0.86672 0.0
H533 H 0.41029 0.17525 0.94839 0.0
H534 H 0.44521 0.18197 0.95742 0.0
H535 H 0.45902 0.17457 0.88217 0.0
H536 H 0.4245 0.16814 0.8731 0.0
H537 H 0.48096 0.21061 0.90169 0.0
H538 H 0.46288 0.12482 0.92117 0.0
H539 H 0.44418 0.09207 0.94259 0.0
H540 H 0.46504 0.12038 0.01013 0.0
H541 H 0.48368 0.15353 0.98907 0.0
C542 C 0.56577 0.15536 0.90294 0.0
C543 C 0.57908 0.15929 0.92184 0.0
C544 C 0.5461 0.16216 0.9053 0.0
C545 C 0.53914 0.17261 0.92678 0.0
C546 C 0.55237 0.17681 0.94573 0.0
C547 C 0.57231 0.17054 0.94314 0.0
C548 C 0.51782 0.17795 0.92916 0.0
C549 C 0.50621 0.16148 0.94277 0.0
C550 C 0.50858 0.19631 0.91469 0.0
C551 C 0.52019 0.21474 0.90061 0.0
C552 C 0.53457 0.22957 0.9119 0.0
C553 C 0.54557 0.24681 0.89858 0.0
C554 C 0.54228 0.2495 0.87396 0.0
C555 C 0.52795 0.23497 0.86261 0.0
C556 C 0.51691 0.21768 0.87584 0.0
C557 C 0.42075 0.17556 0.93375 0.0
C558 C 0.41458 0.17093 0.91004 0.0
C559 C 0.44073 0.17924 0.93895 0.0
C560 C 0.45485 0.17847 0.92051 0.0
C561 C 0.4485 0.17523 0.89675 0.0
C562 C 0.42869 0.17142 0.89159 0.0
C563 C 0.47634 0.17935 0.92561 0.0
C564 C 0.488 0.1968 0.91314 0.0
C565 C 0.48562 0.1617 0.94094 0.0
C566 C 0.47443 0.14184 0.95359 0.0
C567 C 0.46334 0.12419 0.9406 0.0
C568 C 0.45278 0.10553 0.95266 0.0
C569 C 0.45336 0.1042 0.97771 0.0
C570 C 0.46456 0.12148 0.99073 0.0
C571 C 0.47512 0.1402 0.97874 0.0
H572 H 0.44519 0.08974 0.98702 0.0
H573 H 0.55081 0.26287 0.86368 0.0
H574 H 0.42972 0.82332 0.44833 0.0
H575 H 0.46491 0.81245 0.44989 0.0
H576 H 0.47561 0.86011 0.38866 0.0
H577 H 0.44106 0.87118 0.38723 0.0
H578 H 0.49444 0.81352 0.38524 0.0
H579 H 0.48511 0.88182 0.44243 0.0
H580 H 0.47057 0.90098 0.47861 0.0
H581 H 0.49403 0.84139 0.52197 0.0
H582 H 0.5085 0.82169 0.48594 0.0
H583 H 0.58889 0.85877 0.37484 0.0
H584 H 0.55416 0.85241 0.38126 0.0
H585 H 0.56629 0.81114 0.44621 0.0
H586 H 0.60166 0.8181 0.44023 0.0
H587 H 0.53582 0.84349 0.45268 0.0
H588 H 0.55082 0.77997 0.39543 0.0
H589 H 0.566 0.76253 0.35886 0.0
H590 H 0.53204 0.81289 0.31531 0.0
H591 H 0.51682 0.83087 0.35162 0.0
C592 C 0.43961 0.83127 0.43515 0.0
C593 C 0.43259 0.84826 0.41779 0.0
C594 C 0.45969 0.82513 0.43609 0.0
C595 C 0.47293 0.83552 0.41939 0.0
C596 C 0.46574 0.85181 0.40169 0.0
C597 C 0.44593 0.85824 0.40101 0.0
C598 C 0.49443 0.83048 0.42031 0.0
C599 C 0.50349 0.81993 0.40004 0.0
C600 C 0.50625 0.83823 0.43985 0.0
C601 C 0.49764 0.85011 0.46148 0.0
C602 C 0.48701 0.87268 0.45965 0.0
C603 C 0.47882 0.88366 0.48013 0.0
C604 C 0.48131 0.87236 0.50257 0.0
C605 C 0.49207 0.85009 0.50457 0.0
C606 C 0.50027 0.83901 0.48413 0.0
C607 C 0.58438 0.84823 0.39054 0.0
C608 C 0.59828 0.83892 0.40701 0.0
C609 C 0.56436 0.84446 0.39409 0.0
C610 C 0.55748 0.83089 0.41399 0.0
C611 C 0.57121 0.82155 0.43062 0.0
C612 C 0.59144 0.82544 0.42712 0.0
C613 C 0.5359 0.82726 0.41722 0.0
C614 C 0.52681 0.83627 0.43819 0.0
C615 C 0.524 0.81804 0.39829 0.0
C616 C 0.53269 0.8068 0.3763 0.0
C617 C 0.54661 0.78736 0.37806 0.0
C618 C 0.55522 0.77738 0.35737 0.0
C619 C 0.54997 0.78658 0.33478 0.0
C620 C 0.53606 0.80574 0.33282 0.0
C621 C 0.52739 0.81579 0.35346 0.0
H622 H 0.55671 0.77889 0.31879 0.0
H623 H 0.47496 0.88089 0.51841 0.0
H624 H 0.16136 0.30023 0.14167 0.0
H625 H 0.1677 0.28703 0.18351 0.0
H626 H 0.13071 0.34705 0.20906 0.0
H627 H 0.12421 0.36001 0.16819 0.0
H628 H 0.17046 0.3462 0.22762 0.0
H629 H 0.11387 0.29115 0.21181 0.0
H630 H 0.09787 0.25587 0.19077 0.0
H631 H 0.1434 0.20591 0.21439 0.0
H632 H 0.15981 0.24101 0.23532 0.0
H633 H 0.1422 0.3519 0.34453 0.0
H634 H 0.14147 0.34588 0.30128 0.0
H635 H 0.17059 0.27436 0.30925 0.0
H636 H 0.1706 0.27995 0.35321 0.0
H637 H 0.14394 0.273 0.2723 0.0
H638 H 0.19743 0.32551 0.29393 0.0
H639 H 0.21419 0.36013 0.31507 0.0
H640 H 0.17723 0.41389 0.27962 0.0
H641 H 0.16006 0.37959 0.25853 0.0
C642 C 0.15438 0.31031 0.15625 0.0
C643 C 0.14256 0.33146 0.15153 0.0
C644 C 0.15802 0.30277 0.18009 0.0
C645 C 0.14982 0.31628 0.19934 0.0
C646 C 0.13735 0.33654 0.1945 0.0
C647 C 0.13371 0.34396 0.171 0.0
C648 C 0.15488 0.31117 0.22478 0.0
C649 C 0.16478 0.33012 0.23739 0.0
C650 C 0.14814 0.28973 0.23733 0.0
C651 C 0.1382 0.26875 0.22483 0.0
C652 C 0.12057 0.2727 0.2123 0.0
C653 C 0.11141 0.25272 0.20045 0.0
C654 C 0.11966 0.22868 0.20116 0.0
C655 C 0.13706 0.22455 0.2138 0.0
C656 C 0.14628 0.24447 0.22567 0.0
C657 C 0.14824 0.33472 0.33718 0.0
C658 C 0.1567 0.31655 0.35221 0.0
C659 C 0.14788 0.33132 0.31239 0.0
C660 C 0.15653 0.31003 0.3019 0.0
C661 C 0.16401 0.29106 0.31692 0.0
C662 C 0.16401 0.29426 0.34198 0.0
C663 C 0.15853 0.30883 0.27529 0.0
C664 C 0.15013 0.28874 0.26251 0.0
C665 C 0.16688 0.32915 0.26239 0.0
C666 C 0.17743 0.34994 0.27468 0.0
C667 C 0.19283 0.34471 0.2907 0.0
C668 C 0.2024 0.36428 0.30269 0.0
C669 C 0.19677 0.38919 0.2987 0.0
C670 C 0.18159 0.39459 0.28268 0.0
C671 C 0.17196 0.37509 0.27066 0.0
H672 H 0.20418 0.40431 0.30802 0.0
H673 H 0.11254 0.21324 0.19199 0.0
H674 H 0.84896 0.63528 0.66567 0.0
H675 H 0.84336 0.65159 0.70595 0.0
H676 H 0.8688 0.72264 0.68541 0.0
H677 H 0.87422 0.70635 0.64444 0.0
H678 H 0.88451 0.70052 0.72915 0.0
H679 H 0.8232 0.72476 0.69694 0.0
H680 H 0.79279 0.72041 0.67341 0.0
H681 H 0.77444 0.65928 0.71846 0.0
H682 H 0.80488 0.66298 0.74206 0.0
H683 H 0.85855 0.72354 0.85473 0.0
H684 H 0.86085 0.73168 0.81121 0.0
H685 H 0.83689 0.65814 0.7969 0.0
H686 H 0.83486 0.64984 0.83978 0.0
H687 H 0.81964 0.69649 0.76927 0.0
H688 H 0.88415 0.66626 0.79393 0.0
H689 H 0.91478 0.66907 0.81729 0.0
H690 H 0.92701 0.74121 0.78606 0.0
H691 H 0.89624 0.739 0.76281 0.0
C692 C 0.85314 0.6545 0.66956 0.0
C693 C 0.86204 0.66954 0.65191 0.0
C694 C 0.84988 0.66383 0.69259 0.0
C695 C 0.8556 0.68834 0.69867 0.0
C696 C 0.86422 0.70369 0.68103 0.0
C697 C 0.86719 0.69444 0.65766 0.0
C698 C 0.85335 0.69679 0.72393 0.0
C699 C 0.87028 0.70048 0.73785 0.0
C700 C 0.83481 0.69644 0.7353 0.0
C701 C 0.81639 0.69412 0.72124 0.0
C702 C 0.81275 0.71027 0.70175 0.0
C703 C 0.79549 0.70794 0.68841 0.0
C704 C 0.78169 0.68957 0.69443 0.0
C705 C 0.78513 0.67351 0.71383 0.0
C706 C 0.80237 0.67576 0.72723 0.0
C707 C 0.85371 0.70923 0.84222 0.0
C708 C 0.84658 0.68603 0.85063 0.0
C709 C 0.85504 0.71388 0.81743 0.0
C710 C 0.84897 0.69552 0.80085 0.0
C711 C 0.84154 0.67263 0.80935 0.0
C712 C 0.84049 0.66786 0.83391 0.0
C713 C 0.85082 0.69919 0.77452 0.0
C714 C 0.8338 0.69759 0.76045 0.0
C715 C 0.86926 0.7014 0.76306 0.0
C716 C 0.88777 0.70264 0.77692 0.0
C717 C 0.89328 0.68283 0.79223 0.0
C718 C 0.91068 0.68429 0.80542 0.0
C719 C 0.9228 0.70535 0.80323 0.0
C720 C 0.91757 0.72495 0.78779 0.0
C721 C 0.90015 0.72361 0.77461 0.0
H722 H 0.93627 0.70644 0.81344 0.0
H723 H 0.76834 0.68779 0.68408 0.0
H724 H 0.13982 0.70416 0.85519 0.0
H725 H 0.14586 0.72067 0.8145 0.0
H726 H 0.16862 0.64842 0.79299 0.0
H727 H 0.16265 0.63203 0.83308 0.0
H728 H 0.19034 0.68697 0.77447 0.0
H729 H 0.12106 0.66384 0.78314 0.0
H730 H 0.08847 0.6683 0.80189 0.0
H731 H 0.08699 0.74627 0.78198 0.0
H732 H 0.11972 0.74232 0.76336 0.0
H733 H 0.17164 0.64718 0.65926 0.0
H734 H 0.17045 0.65552 0.70214 0.0
H735 H 0.1549 0.73274 0.68828 0.0
H736 H 0.15625 0.72449 0.64468 0.0
H737 H 0.13159 0.707 0.72554 0.0
H738 H 0.19801 0.72556 0.70737 0.0
H739 H 0.23023 0.7193 0.68824 0.0
H740 H 0.23727 0.64947 0.72594 0.0
H741 H 0.20495 0.6551 0.74502 0.0
C742 C 0.14645 0.69203 0.84185 0.0
C743 C 0.15061 0.66674 0.84725 0.0
C744 C 0.1498 0.70142 0.81861 0.0
C745 C 0.15756 0.68571 0.80063 0.0
C746 C 0.16265 0.66092 0.80651 0.0
C747 C 0.15913 0.65152 0.82945 0.0
C748 C 0.15926 0.69385 0.77517 0.0
C749 C 0.17754 0.6916 0.7638 0.0
C750 C 0.14266 0.70063 0.76132 0.0
C751 C 0.1229 0.70287 0.77215 0.0
C752 C 0.11383 0.68197 0.7829 0.0
C753 C 0.09534 0.6844 0.79349 0.0
C754 C 0.0857 0.70758 0.79321 0.0
C755 C 0.0945 0.72835 0.78224 0.0
C756 C 0.11301 0.72602 0.77166 0.0
C757 C 0.16796 0.66599 0.66519 0.0
C758 C 0.1641 0.68521 0.64853 0.0
C759 C 0.16735 0.67074 0.68977 0.0
C760 C 0.16278 0.69479 0.69842 0.0
C761 C 0.15854 0.71406 0.68194 0.0
C762 C 0.15937 0.70935 0.65711 0.0
C763 C 0.16254 0.69903 0.72479 0.0
C764 C 0.14455 0.70342 0.7363 0.0
C765 C 0.17941 0.69416 0.73882 0.0
C766 C 0.199 0.69075 0.72759 0.0
C767 C 0.20637 0.70879 0.71149 0.0
C768 C 0.22466 0.70536 0.70066 0.0
C769 C 0.23578 0.68399 0.70586 0.0
C770 C 0.22864 0.66603 0.72194 0.0
C771 C 0.21035 0.66935 0.73281 0.0
H772 H 0.24994 0.68136 0.69745 0.0
H773 H 0.07139 0.70943 0.80145 0.0
H774 H 0.85621 0.27987 0.14631 0.0
H775 H 0.86012 0.27276 0.18977 0.0
H776 H 0.85141 0.35198 0.20258 0.0
H777 H 0.84781 0.35916 0.15978 0.0
H778 H 0.88197 0.33526 0.22732 0.0
H779 H 0.8149 0.3072 0.21167 0.0
H780 H 0.79028 0.27971 0.19259 0.0
H781 H 0.81786 0.21479 0.22357 0.0
H782 H 0.84278 0.24191 0.24261 0.0
H783 H 0.84553 0.36632 0.33682 0.0
H784 H 0.84417 0.35211 0.29534 0.0
H785 H 0.86947 0.28103 0.31584 0.0
H786 H 0.87091 0.29528 0.35797 0.0
H787 H 0.83651 0.28265 0.27547 0.0
H788 H 0.90079 0.31307 0.29642 0.0
H789 H 0.92364 0.34226 0.31643 0.0
H790 H 0.90048 0.4037 0.27526 0.0
H791 H 0.87726 0.37494 0.2553 0.0
C792 C 0.85517 0.2957 0.15847 0.0
C793 C 0.85175 0.32008 0.14959 0.0
C794 C 0.85734 0.29161 0.18328 0.0
C795 C 0.85604 0.31185 0.19949 0.0
C796 C 0.85262 0.33608 0.19049 0.0
C797 C 0.8505 0.34015 0.16593 0.0
C798 C 0.85827 0.30852 0.22589 0.0
C799 C 0.87212 0.32357 0.23777 0.0
C800 C 0.84584 0.29273 0.23964 0.0
C801 C 0.83083 0.27652 0.22829 0.0
C802 C 0.81579 0.28704 0.21425 0.0
C803 C 0.80177 0.27154 0.20347 0.0
C804 C 0.80254 0.24551 0.20679 0.0
C805 C 0.8173 0.23495 0.22097 0.0
C806 C 0.83137 0.25037 0.23176 0.0
C807 C 0.85042 0.34742 0.33269 0.0
C808 C 0.85857 0.33204 0.35062 0.0
C809 C 0.84957 0.33931 0.30896 0.0
C810 C 0.85692 0.31567 0.3025 0.0
C811 C 0.86369 0.29935 0.32053 0.0
C812 C 0.86448 0.30749 0.34454 0.0
C813 C 0.85968 0.3101 0.27662 0.0
C814 C 0.84681 0.29358 0.26491 0.0
C815 C 0.87298 0.32456 0.26288 0.0
C816 C 0.88723 0.34185 0.27445 0.0
C817 C 0.90049 0.33283 0.29174 0.0
C818 C 0.91352 0.3493 0.30307 0.0
C819 C 0.9135 0.37482 0.29714 0.0
C820 C 0.90048 0.38392 0.27983 0.0
C821 C 0.88741 0.36754 0.26847 0.0
H822 H 0.92358 0.38755 0.30594 0.0
H823 H 0.79168 0.23354 0.19844 0.0
H824 H 0.66307 0.85561 0.34273 0.0
H825 H 0.65794 0.84766 0.30024 0.0
H826 H 0.65239 0.76824 0.31427 0.0
H827 H 0.65755 0.77614 0.35744 0.0
H828 H 0.67611 0.78038 0.27276 0.0
H829 H 0.61252 0.79597 0.30229 0.0
H830 H 0.58729 0.81708 0.32675 0.0
H831 H 0.59646 0.88566 0.28769 0.0
H832 H 0.62208 0.86516 0.26334 0.0
H833 H 0.64087 0.79398 0.14528 0.0
H834 H 0.64267 0.77864 0.18708 0.0
H835 H 0.65923 0.85281 0.21074 0.0
H836 H 0.65788 0.86801 0.1697 0.0
H837 H 0.62351 0.8295 0.23295 0.0
H838 H 0.69256 0.81362 0.21102 0.0
H839 H 0.71801 0.79159 0.18762 0.0
H840 H 0.69624 0.72044 0.21248 0.0
H841 H 0.67048 0.74209 0.23579 0.0
C842 C 0.66076 0.83641 0.33692 0.0
C843 C 0.66057 0.81652 0.35352 0.0
C844 C 0.65781 0.8319 0.31256 0.0
C845 C 0.65457 0.8074 0.30411 0.0
C846 C 0.65482 0.7873 0.32046 0.0
C847 C 0.65769 0.79185 0.34507 0.0
C848 C 0.6506 0.80362 0.27815 0.0
C849 C 0.66428 0.7905 0.26405 0.0
C850 C 0.63506 0.81661 0.26679 0.0
C851 C 0.61929 0.82899 0.28098 0.0
C852 C 0.60923 0.81559 0.29897 0.0
C853 C 0.59486 0.82744 0.31283 0.0
C854 C 0.59026 0.85267 0.30876 0.0
C855 C 0.60002 0.86609 0.2908 0.0
C856 C 0.61446 0.85435 0.27693 0.0
C857 C 0.64535 0.80679 0.15936 0.0
C858 C 0.64897 0.8323 0.15416 0.0
C859 C 0.64625 0.79805 0.1832 0.0
C860 C 0.65078 0.81474 0.20198 0.0
C861 C 0.65546 0.83972 0.19655 0.0
C862 C 0.65469 0.84835 0.173 0.0
C863 C 0.64958 0.80739 0.22762 0.0
C864 C 0.63488 0.81854 0.24167 0.0
C865 C 0.66397 0.79231 0.23883 0.0
C866 C 0.67944 0.77943 0.22484 0.0
C867 C 0.69307 0.79327 0.21128 0.0
C868 C 0.70758 0.78086 0.19809 0.0
C869 C 0.70869 0.75463 0.19849 0.0
C870 C 0.69533 0.74076 0.21214 0.0
C871 C 0.68078 0.75308 0.22534 0.0
H872 H 0.71994 0.74505 0.18827 0.0
H873 H 0.57914 0.86182 0.31953 0.0
H874 H 0.34761 0.22467 0.85725 0.0
H875 H 0.3499 0.23333 0.81386 0.0
H876 H 0.35686 0.15401 0.80013 0.0
H877 H 0.35457 0.14533 0.84283 0.0
H878 H 0.38299 0.18145 0.77472 0.0
H879 H 0.313 0.18293 0.79273 0.0
H880 H 0.28352 0.19945 0.81295 0.0
H881 H 0.29412 0.27241 0.78258 0.0
H882 H 0.32383 0.25635 0.7624 0.0
H883 H 0.34406 0.137 0.66943 0.0
H884 H 0.3419 0.15331 0.71014 0.0
H885 H 0.36282 0.22543 0.68594 0.0
H886 H 0.36529 0.20903 0.64464 0.0
H887 H 0.32632 0.21495 0.72894 0.0
H888 H 0.39578 0.21005 0.70699 0.0
H889 H 0.42324 0.18971 0.68567 0.0
H890 H 0.41221 0.12083 0.72356 0.0
H891 H 0.38447 0.14068 0.7448 0.0
C892 C 0.34973 0.20916 0.84491 0.0
C893 C 0.35092 0.18432 0.8535 0.0
C894 C 0.35098 0.21412 0.82017 0.0
C895 C 0.35356 0.1943 0.80373 0.0
C896 C 0.355 0.16963 0.81242 0.0
C897 C 0.35362 0.16469 0.83693 0.0
C898 C 0.35443 0.19852 0.77734 0.0
C899 C 0.37073 0.18922 0.76479 0.0
C900 C 0.33858 0.20895 0.76425 0.0
C901 C 0.32076 0.21855 0.77635 0.0
C902 C 0.30914 0.20255 0.79054 0.0
C903 C 0.29237 0.21181 0.80196 0.0
C904 C 0.28699 0.23699 0.79913 0.0
C905 C 0.29834 0.25293 0.78481 0.0
C906 C 0.31513 0.24376 0.77338 0.0
C907 C 0.34783 0.15652 0.67254 0.0
C908 C 0.35512 0.17162 0.65382 0.0
C909 C 0.34648 0.16583 0.69585 0.0
C910 C 0.35232 0.19047 0.70104 0.0
C911 C 0.35819 0.20635 0.68221 0.0
C912 C 0.35957 0.19697 0.65865 0.0
C913 C 0.35475 0.19761 0.72658 0.0
C914 C 0.33899 0.2085 0.73897 0.0
C915 C 0.37107 0.18863 0.73963 0.0
C916 C 0.388 0.1768 0.72733 0.0
C917 C 0.39914 0.19052 0.71063 0.0
C918 C 0.41476 0.17909 0.69858 0.0
C919 C 0.41945 0.15398 0.70322 0.0
C920 C 0.40856 0.14028 0.71998 0.0
C921 C 0.39291 0.15161 0.73204 0.0
H922 H 0.43154 0.14516 0.69386 0.0
H923 H 0.274 0.24413 0.80797 0.0
H924 H 0.66418 0.13169 0.83703 0.0
H925 H 0.67023 0.1471 0.7967 0.0
H926 H 0.65099 0.22115 0.81775 0.0
H927 H 0.64469 0.20556 0.85874 0.0
H928 H 0.63338 0.20502 0.77573 0.0
H929 H 0.69843 0.21314 0.80364 0.0
H930 H 0.72869 0.20119 0.82496 0.0
H931 H 0.73578 0.13759 0.77828 0.0
H932 H 0.7054 0.1489 0.75689 0.0
H933 H 0.65656 0.22282 0.64853 0.0
H934 H 0.65695 0.23057 0.69217 0.0
H935 H 0.67099 0.15257 0.70448 0.0
H936 H 0.67047 0.14472 0.66147 0.0
H937 H 0.6944 0.18543 0.73101 0.0
H938 H 0.62522 0.17272 0.71084 0.0
H939 H 0.59469 0.18408 0.68973 0.0
H940 H 0.59594 0.2573 0.72221 0.0
H941 H 0.62667 0.24647 0.74322 0.0
C942 C 0.66146 0.15137 0.83328 0.0
C943 C 0.65389 0.16738 0.85111 0.0
C944 C 0.66505 0.16022 0.81017 0.0
C945 C 0.66124 0.18535 0.80417 0.0
C946 C 0.65413 0.2017 0.82202 0.0
C947 C 0.65066 0.19283 0.84544 0.0
C948 C 0.66355 0.19341 0.77874 0.0
C949 C 0.6469 0.2015 0.76605 0.0
C950 C 0.68115 0.18872 0.76602 0.0
C951 C 0.69958 0.18188 0.77867 0.0
C952 C 0.70638 0.19652 0.79799 0.0
C953 C 0.72357 0.18987 0.81009 0.0
C954 C 0.73415 0.16864 0.80299 0.0
C955 C 0.72758 0.15405 0.78374 0.0
C956 C 0.71039 0.16061 0.77159 0.0
C957 C 0.65974 0.2074 0.66061 0.0
C958 C 0.66344 0.18315 0.65157 0.0
C959 C 0.65995 0.21184 0.68549 0.0
C960 C 0.66406 0.19214 0.70156 0.0
C961 C 0.66792 0.16808 0.69244 0.0
C962 C 0.6675 0.1636 0.66779 0.0
C963 C 0.66402 0.19581 0.72802 0.0
C964 C 0.68111 0.18986 0.74083 0.0
C965 C 0.64687 0.20255 0.7408 0.0
C966 C 0.62836 0.20892 0.72833 0.0
C967 C 0.61907 0.19132 0.71331 0.0
C968 C 0.60172 0.19764 0.70139 0.0
C969 C 0.59342 0.22143 0.70456 0.0
C970 C 0.60242 0.23891 0.71972 0.0
C971 C 0.61979 0.23269 0.73163 0.0
H972 H 0.57998 0.22629 0.69533 0.0
H973 H 0.74744 0.16351 0.81239 0.0
H974 H 0.34625 0.8556 0.15858 0.0
H975 H 0.35022 0.84869 0.20142 0.0
H976 H 0.35034 0.7685 0.19013 0.0
H977 H 0.34649 0.77531 0.14655 0.0
H978 H 0.32598 0.7886 0.23178 0.0
H979 H 0.39111 0.78819 0.20126 0.0
H980 H 0.41804 0.80289 0.17528 0.0
H981 H 0.41691 0.87494 0.21001 0.0
H982 H 0.3897 0.86087 0.23589 0.0
H983 H 0.35977 0.7998 0.35845 0.0
H984 H 0.35663 0.7836 0.31712 0.0
H985 H 0.35673 0.85952 0.29006 0.0
H986 H 0.35947 0.87572 0.33053 0.0
H987 H 0.38512 0.82704 0.26845 0.0
H988 H 0.31576 0.82992 0.29132 0.0
H989 H 0.28757 0.81683 0.31608 0.0
H990 H 0.29694 0.7399 0.29567 0.0
H991 H 0.32538 0.75254 0.27101 0.0
C992 C 0.3471 0.83643 0.16505 0.0
C993 C 0.34622 0.81599 0.14909 0.0
C994 C 0.34932 0.83253 0.18961 0.0
C995 C 0.35067 0.80812 0.19892 0.0
C996 C 0.34931 0.7875 0.18324 0.0
C997 C 0.34722 0.79142 0.15841 0.0
C998 C 0.35433 0.80498 0.22501 0.0
C999 C 0.33916 0.79625 0.23988 0.0
C1000 C 0.37149 0.81508 0.2355 0.0
C1001 C 0.3883 0.82347 0.2205 0.0
C1002 C 0.39654 0.80721 0.2033 0.0
C1003 C 0.41185 0.81544 0.18857 0.0
C1004 C 0.41917 0.83984 0.19098 0.0
C1005 C 0.41123 0.85604 0.20818 0.0
C1006 C 0.39588 0.84793 0.22291 0.0
C1007 C 0.35883 0.813 0.3437 0.0
C1008 C 0.36011 0.83908 0.34792 0.0
C1009 C 0.35711 0.80371 0.32012 0.0
C1010 C 0.35675 0.8204 0.30054 0.0
C1011 C 0.35726 0.84631 0.30487 0.0
C1012 C 0.35879 0.85553 0.32816 0.0
C1013 C 0.35645 0.81163 0.27523 0.0
C1014 C 0.37229 0.81834 0.26047 0.0
C1015 C 0.33997 0.79963 0.26494 0.0
C1016 C 0.32285 0.79211 0.27963 0.0
C1017 C 0.31193 0.81019 0.29231 0.0
C1018 C 0.29588 0.80286 0.30627 0.0
C1019 C 0.29052 0.77753 0.30753 0.0
C1020 C 0.30115 0.7595 0.29473 0.0
C1021 C 0.31722 0.76673 0.28076 0.0
H1022 H 0.2781 0.77189 0.31837 0.0
H1023 H 0.431 0.84619 0.17952 0.0
H1024 H 0.32825 0.21084 0.983 0.0
H1025 H 0.30138 0.23018 0.00569 0.0
H1026 H 0.25935 0.19282 0.96013 0.0
H1027 H 0.28606 0.17395 0.93718 0.0
H1028 H 0.2488 0.23939 0.96534 0.0
H1029 H 0.26816 0.17451 0.01969 0.0
H1030 H 0.29087 0.14978 0.04474 0.0
H1031 H 0.3043 0.21552 0.08637 0.0
H1032 H 0.28186 0.24074 0.06134 0.0
H1033 H 0.16422 0.26709 0.03578 0.0
H1034 H 0.19092 0.24268 0.01761 0.0
H1035 H 0.23337 0.28922 0.05383 0.0
H1036 H 0.2068 0.31388 0.07175 0.0
H1037 H 0.24323 0.23717 0.05412 0.0
H1038 H 0.22412 0.3018 0.99823 0.0
H1039 H 0.20076 0.32562 0.97327 0.0
H1040 H 0.18613 0.25835 0.93457 0.0
H1041 H 0.20921 0.23404 0.95957 0.0
C1042 C 0.31328 0.20659 0.97795 0.0
C1043 C 0.30935 0.19082 0.95824 0.0
C1044 C 0.29788 0.21759 0.99101 0.0
C1045 C 0.2782 0.21288 0.98483 0.0
C1046 C 0.27432 0.19688 0.96532 0.0
C1047 C 0.28967 0.18599 0.95222 0.0
C1048 C 0.26165 0.22524 0.99801 0.0
C1049 C 0.24748 0.2385 0.98473 0.0
C1050 C 0.25996 0.22465 0.0234 0.0
C1051 C 0.27348 0.20957 0.03848 0.0
C1052 C 0.27608 0.18374 0.03406 0.0
C1053 C 0.28888 0.16963 0.04828 0.0
C1054 C 0.29906 0.18109 0.06709 0.0
C1055 C 0.29642 0.20668 0.07176 0.0
C1056 C 0.28365 0.22089 0.05758 0.0
C1057 C 0.17923 0.27189 0.04017 0.0
C1058 C 0.18336 0.29249 0.05518 0.0
C1059 C 0.19449 0.25799 0.02968 0.0
C1060 C 0.21419 0.26422 0.03419 0.0
C1061 C 0.21832 0.28403 0.05006 0.0
C1062 C 0.20309 0.29815 0.06026 0.0
C1063 C 0.23048 0.25107 0.02139 0.0
C1064 C 0.24457 0.23782 0.03473 0.0
C1065 C 0.23205 0.25147 0.99604 0.0
C1066 C 0.21822 0.26605 0.98095 0.0
C1067 C 0.21579 0.29204 0.98454 0.0
C1068 C 0.20263 0.30564 0.97036 0.0
C1069 C 0.19192 0.29349 0.95239 0.0
C1070 C 0.1944 0.26773 0.94853 0.0
C1071 C 0.20753 0.25403 0.96269 0.0
H1072 H 0.18174 0.30406 0.94143 0.0
H1073 H 0.30897 0.17012 0.07808 0.0
H1074 H 0.80454 0.67953 0.56865 0.0
H1075 H 0.77739 0.70315 0.55132 0.0
H1076 H 0.81822 0.75638 0.52111 0.0
H1077 H 0.84562 0.73294 0.53898 0.0
H1078 H 0.78627 0.78038 0.53714 0.0
H1079 H 0.79778 0.70906 0.48679 0.0
H1080 H 0.80238 0.66421 0.47711 0.0
H1081 H 0.74455 0.64782 0.50326 0.0
H1082 H 0.73971 0.69256 0.51342 0.0
H1083 H 0.72469 0.82703 0.44371 0.0
H1084 H 0.75046 0.80703 0.4674 0.0
H1085 H 0.70721 0.7611 0.50292 0.0
H1086 H 0.68115 0.78139 0.47932 0.0
H1087 H 0.73961 0.73368 0.48532 0.0
H1088 H 0.72801 0.80653 0.53368 0.0
H1089 H 0.72389 0.85181 0.5417 0.0
H1090 H 0.78257 0.86578 0.51716 0.0
H1091 H 0.78694 0.82061 0.50864 0.0
C1092 C 0.80781 0.69639 0.5585 0.0
C1093 C 0.82732 0.70422 0.55508 0.0
C1094 C 0.79221 0.70984 0.54847 0.0
C1095 C 0.79568 0.73131 0.53441 0.0
C1096 C 0.81511 0.73981 0.53175 0.0
C1097 C 0.83079 0.72639 0.54198 0.0
C1098 C 0.77906 0.74429 0.52199 0.0
C1099 C 0.77623 0.7702 0.52559 0.0
C1100 C 0.76562 0.73103 0.50722 0.0
C1101 C 0.76846 0.70412 0.5011 0.0
C1102 C 0.7861 0.69586 0.49066 0.0
C1103 C 0.78875 0.67047 0.48505 0.0
C1104 C 0.77379 0.65317 0.48963 0.0
C1105 C 0.75614 0.66124 0.49976 0.0
C1106 C 0.75343 0.68662 0.50543 0.0
C1107 C 0.72059 0.81282 0.4567 0.0
C1108 C 0.70082 0.80582 0.45962 0.0
C1109 C 0.73537 0.80145 0.47031 0.0
C1110 C 0.73082 0.78262 0.48706 0.0
C1111 C 0.71108 0.77562 0.49014 0.0
C1112 C 0.69619 0.78729 0.47673 0.0
C1113 C 0.74683 0.76969 0.50052 0.0
C1114 C 0.74959 0.7438 0.49701 0.0
C1115 C 0.76028 0.78302 0.51515 0.0
C1116 C 0.75773 0.8102 0.52031 0.0
C1117 C 0.73998 0.81928 0.52979 0.0
C1118 C 0.73761 0.84492 0.53447 0.0
C1119 C 0.75294 0.86167 0.52989 0.0
C1120 C 0.7707 0.85279 0.52067 0.0
C1121 C 0.77313 0.82716 0.51594 0.0
H1122 H 0.75108 0.88152 0.53352 0.0
H1123 H 0.77586 0.63351 0.48527 0.0
H1124 H 0.28395 0.82832 0.05653 0.0
H1125 H 0.25774 0.80872 0.03338 0.0
H1126 H 0.29935 0.75688 0.0025 0.0
H1127 H 0.32591 0.77734 0.025 0.0
H1128 H 0.27414 0.76918 0.96959 0.0
H1129 H 0.26724 0.74085 0.05078 0.0
H1130 H 0.26402 0.74524 0.09468 0.0
H1131 H 0.21062 0.78686 0.08545 0.0
H1132 H 0.21365 0.78298 0.04145 0.0
H1133 H 0.2049 0.67543 0.93543 0.0
H1134 H 0.23128 0.69992 0.95353 0.0
H1135 H 0.18937 0.75526 0.97732 0.0
H1136 H 0.16271 0.73059 0.95926 0.0
H1137 H 0.21434 0.742 0.01315 0.0
H1138 H 0.22117 0.76771 0.93097 0.0
H1139 H 0.2248 0.76134 0.88734 0.0
H1140 H 0.27892 0.72194 0.89891 0.0
H1141 H 0.27547 0.72777 0.94265 0.0
C1142 C 0.28758 0.81283 0.0447 0.0
C1143 C 0.30703 0.80426 0.04278 0.0
C1144 C 0.2725 0.80149 0.03155 0.0
C1145 C 0.27633 0.78077 0.01658 0.0
C1146 C 0.29589 0.77269 0.014 0.0
C1147 C 0.3111 0.78438 0.02689 0.0
C1148 C 0.25989 0.7674 0.00406 0.0
C1149 C 0.26119 0.76298 0.97922 0.0
C1150 C 0.2427 0.75961 0.01637 0.0
C1151 C 0.24077 0.76182 0.04282 0.0
C1152 C 0.25488 0.75107 0.05811 0.0
C1153 C 0.25308 0.75345 0.08301 0.0
C1154 C 0.23715 0.76638 0.09285 0.0
C1155 C 0.22296 0.77688 0.0778 0.0
C1156 C 0.2247 0.77458 0.05288 0.0
C1157 C 0.20125 0.69294 0.94429 0.0
C1158 C 0.18163 0.70104 0.94584 0.0
C1159 C 0.21642 0.70702 0.95458 0.0
C1160 C 0.21243 0.72962 0.96666 0.0
C1161 C 0.19287 0.73793 0.96805 0.0
C1162 C 0.17763 0.72386 0.95763 0.0
C1163 C 0.22859 0.74385 0.97873 0.0
C1164 C 0.22725 0.74834 0.00352 0.0
C1165 C 0.24581 0.7514 0.96642 0.0
C1166 C 0.24797 0.748 0.94011 0.0
C1167 C 0.23377 0.75752 0.92423 0.0
C1168 C 0.23581 0.75404 0.89947 0.0
C1169 C 0.25206 0.74119 0.89036 0.0
C1170 C 0.26633 0.73186 0.90599 0.0
C1171 C 0.26435 0.73528 0.93077 0.0
H1172 H 0.25361 0.73851 0.87119 0.0
H1173 H 0.23579 0.76821 0.11213 0.0
H1174 H 0.72323 0.17007 0.56072 0.0
H1175 H 0.74957 0.18955 0.53768 0.0
H1176 H 0.70762 0.23804 0.50285 0.0
H1177 H 0.68097 0.21785 0.52542 0.0
H1178 H 0.73426 0.22429 0.47139 0.0
H1179 H 0.73734 0.25834 0.5508 0.0
H1180 H 0.73904 0.25721 0.59501 0.0
H1181 H 0.79396 0.21795 0.59132 0.0
H1182 H 0.79246 0.21855 0.54706 0.0
H1183 H 0.80204 0.31956 0.43588 0.0
H1184 H 0.77569 0.29475 0.45374 0.0
H1185 H 0.81816 0.24251 0.48195 0.0
H1186 H 0.84476 0.26741 0.46404 0.0
H1187 H 0.79164 0.25733 0.51612 0.0
H1188 H 0.78857 0.22576 0.43554 0.0
H1189 H 0.78638 0.22886 0.39145 0.0
H1190 H 0.73078 0.26616 0.3976 0.0
H1191 H 0.73276 0.2636 0.44175 0.0
C1192 C 0.71954 0.18478 0.54804 0.0
C1193 C 0.69997 0.19253 0.54507 0.0
C1194 C 0.73469 0.19604 0.53494 0.0
C1195 C 0.73077 0.21577 0.51886 0.0
C1196 C 0.71113 0.22298 0.51521 0.0
C1197 C 0.69588 0.21144 0.52815 0.0
C1198 C 0.74721 0.22911 0.50635 0.0
C1199 C 0.74667 0.23177 0.48124 0.0
C1200 C 0.7637 0.23858 0.519 0.0
C1201 C 0.76469 0.23828 0.54562 0.0
C1202 C 0.74971 0.24931 0.55942 0.0
C1203 C 0.75065 0.24879 0.58448 0.0
C1204 C 0.76657 0.23745 0.59597 0.0
C1205 C 0.78162 0.22669 0.5824 0.0
C1206 C 0.78075 0.22713 0.55732 0.0
C1207 C 0.80582 0.30263 0.44564 0.0
C1208 C 0.82556 0.29547 0.44848 0.0
C1209 C 0.79068 0.28838 0.4558 0.0
C1210 C 0.79485 0.2666 0.4691 0.0
C1211 C 0.81454 0.25919 0.47173 0.0
C1212 C 0.82974 0.27338 0.46138 0.0
C1213 C 0.7787 0.25241 0.4812 0.0
C1214 C 0.77927 0.2497 0.50627 0.0
C1215 C 0.76217 0.2432 0.46853 0.0
C1216 C 0.7609 0.24468 0.44197 0.0
C1217 C 0.77595 0.23481 0.4275 0.0
C1218 C 0.77473 0.23643 0.40249 0.0
C1219 C 0.75847 0.24775 0.39173 0.0
C1220 C 0.74337 0.25741 0.40596 0.0
C1221 C 0.74453 0.25586 0.43098 0.0
H1222 H 0.75756 0.24899 0.37237 0.0
H1223 H 0.76727 0.23707 0.61538 0.0
H1224 H 0.70416 0.81406 0.0749 0.0
H1225 H 0.73089 0.79007 0.05693 0.0
H1226 H 0.68919 0.74859 0.01422 0.0
H1227 H 0.66222 0.77185 0.03323 0.0
H1228 H 0.7168 0.71817 0.02601 0.0
H1229 H 0.71758 0.80083 0.99208 0.0
H1230 H 0.71841 0.84719 0.99218 0.0
H1231 H 0.77402 0.84591 0.02828 0.0
H1232 H 0.7734 0.79952 0.02866 0.0
H1233 H 0.78308 0.68024 0.93424 0.0
H1234 H 0.75704 0.69973 0.95777 0.0
H1235 H 0.80013 0.73214 0.0052 0.0
H1236 H 0.82647 0.71274 0.98143 0.0
H1237 H 0.77251 0.76647 0.99207 0.0
H1238 H 0.77153 0.6818 0.02261 0.0
H1239 H 0.77005 0.63562 0.01895 0.0
H1240 H 0.71364 0.6411 0.98517 0.0
H1241 H 0.71491 0.68733 0.98829 0.0
C1242 C 0.70064 0.79962 0.06188 0.0
C1243 C 0.68104 0.79498 0.05541 0.0
C1244 C 0.716 0.78601 0.05141 0.0
C1245 C 0.71228 0.76791 0.03356 0.0
C1246 C 0.6926 0.76253 0.02777 0.0
C1247 C 0.67714 0.77582 0.03867 0.0
C1248 C 0.72887 0.75517 0.02064 0.0
C1249 C 0.72884 0.72883 0.01838 0.0
C1250 C 0.74491 0.76882 0.01087 0.0
C1251 C 0.74535 0.79671 0.01061 0.0
C1252 C 0.72992 0.81044 1.00018 0.0
C1253 C 0.73036 0.83672 1.00013 0.0
C1254 C 0.74623 0.84949 0.01029 0.0
C1255 C 0.76172 0.83599 0.02045 0.0
C1256 C 0.76134 0.80971 0.02057 0.0
C1257 C 0.7871 0.69137 0.94977 0.0
C1258 C 0.80694 0.69484 0.95594 0.0
C1259 C 0.77211 0.70245 0.96331 0.0
C1260 C 0.7765 0.71722 0.98352 0.0
C1261 C 0.79631 0.72076 0.98977 0.0
C1262 C 0.81137 0.70958 0.97621 0.0
C1263 C 0.7604 0.72957 0.99751 0.0
C1264 C 0.76052 0.75585 0.99988 0.0
C1265 C 0.74432 0.71589 0.00699 0.0
C1266 C 0.74339 0.68805 0.00553 0.0
C1267 C 0.75886 0.67317 0.01428 0.0
C1268 C 0.75805 0.64698 0.01231 0.0
C1269 C 0.74178 0.63544 0.00178 0.0
C1270 C 0.72624 0.65006 0.9933 0.0
C1271 C 0.72699 0.67626 0.99519 0.0
H1272 H 0.74117 0.61518 1.00021 0.0
H1273 H 0.74654 0.86983 0.01023 0.0
H1274 H 0.30237 0.18243 0.56879 0.0
H1275 H 0.27595 0.20633 0.55016 0.0
H1276 H 0.31839 0.25531 0.51683 0.0
H1277 H 0.34503 0.23181 0.53629 0.0
H1278 H 0.28797 0.28215 0.53008 0.0
H1279 H 0.29526 0.20586 0.48569 0.0
H1280 H 0.29771 0.16005 0.47958 0.0
H1281 H 0.23979 0.15031 0.50834 0.0
H1282 H 0.2371 0.19606 0.51493 0.0
H1283 H 0.22387 0.32569 0.43701 0.0
H1284 H 0.25027 0.30594 0.45997 0.0
H1285 H 0.20765 0.26461 0.50131 0.0
H1286 H 0.18106 0.28455 0.47848 0.0
H1287 H 0.23808 0.23447 0.48392 0.0
H1288 H 0.23118 0.31231 0.52679 0.0
H1289 H 0.22936 0.35841 0.5309 0.0
H1290 H 0.28753 0.36543 0.50217 0.0
H1291 H 0.28959 0.31936 0.49755 0.0
C1292 C 0.30613 0.19841 0.55765 0.0
C1293 C 0.32586 0.20507 0.55389 0.0
C1294 C 0.29096 0.21202 0.54684 0.0
C1295 C 0.29507 0.23232 0.5315 0.0
C1296 C 0.31476 0.23965 0.52843 0.0
C1297 C 0.33 0.22619 0.53956 0.0
C1298 C 0.27883 0.24538 0.51833 0.0
C1299 C 0.27724 0.2717 0.51974 0.0
C1300 C 0.26452 0.23188 0.50504 0.0
C1301 C 0.26606 0.20437 0.50102 0.0
C1302 C 0.2831 0.19393 0.49087 0.0
C1303 C 0.28452 0.16798 0.48729 0.0
C1304 C 0.26894 0.15227 0.49362 0.0
C1305 C 0.25187 0.1625 0.50348 0.0
C1306 C 0.25037 0.18844 0.50712 0.0
C1307 C 0.22007 0.31253 0.4511 0.0
C1308 C 0.20031 0.30673 0.4559 0.0
C1309 C 0.23521 0.3013 0.46428 0.0
C1310 C 0.231 0.28386 0.48249 0.0
C1311 C 0.21128 0.27804 0.48738 0.0
C1312 C 0.19609 0.28951 0.47437 0.0
C1313 C 0.2472 0.27112 0.49583 0.0
C1314 C 0.24881 0.24486 0.49434 0.0
C1315 C 0.26163 0.2847 0.50874 0.0
C1316 C 0.26046 0.31239 0.51161 0.0
C1317 C 0.24352 0.32369 0.52115 0.0
C1318 C 0.24246 0.34982 0.52361 0.0
C1319 C 0.2583 0.36484 0.51674 0.0
C1320 C 0.27526 0.35377 0.50746 0.0
C1321 C 0.27639 0.32765 0.50493 0.0
H1322 H 0.25745 0.38507 0.51866 0.0
H1323 H 0.27007 0.13218 0.49084 0.0
H1324 H 0.78614 0.32707 0.06304 0.0
H1325 H 0.76008 0.30635 0.04055 0.0
H1326 H 0.80318 0.26355 0.00127 0.0
H1327 H 0.82949 0.28502 0.02332 0.0
H1328 H 0.77499 0.27634 0.97183 0.0
H1329 H 0.77619 0.23792 0.04907 0.0
H1330 H 0.77615 0.23597 0.0933 0.0
H1331 H 0.71939 0.27084 0.09505 0.0
H1332 H 0.71921 0.27332 0.05081 0.0
H1333 H 0.70815 0.17898 0.93584 0.0
H1334 H 0.73477 0.20343 0.95377 0.0
H1335 H 0.69263 0.25482 0.98407 0.0
H1336 H 0.66584 0.23051 0.96592 0.0
H1337 H 0.72041 0.23731 0.01745 0.0
H1338 H 0.71996 0.27364 0.93831 0.0
H1339 H 0.72086 0.27253 0.89407 0.0
H1340 H 0.7775 0.2374 0.89616 0.0
H1341 H 0.77682 0.23796 0.94044 0.0
C1342 C 0.79013 0.31334 0.04954 0.0
C1343 C 0.80993 0.30758 0.04513 0.0
C1344 C 0.77515 0.30135 0.03674 0.0
C1345 C 0.77952 0.28286 0.0195 0.0
C1346 C 0.79934 0.27761 0.01453 0.0
C1347 C 0.8144 0.28987 0.02718 0.0
C1348 C 0.76337 0.26886 0.00709 0.0
C1349 C 0.76321 0.26755 0.98188 0.0
C1350 C 0.74776 0.25752 0.02002 0.0
C1351 C 0.74778 0.25603 0.04663 0.0
C1352 C 0.76377 0.24535 0.05889 0.0
C1353 C 0.76377 0.24412 0.08396 0.0
C1354 C 0.7478 0.25333 0.09698 0.0
C1355 C 0.73177 0.26374 0.08494 0.0
C1356 C 0.7317 0.26504 0.05986 0.0
C1357 C 0.70452 0.19564 0.9461 0.0
C1358 C 0.68483 0.2028 0.94941 0.0
C1359 C 0.71979 0.20965 0.9563 0.0
C1360 C 0.71576 0.23105 0.97023 0.0
C1361 C 0.69612 0.23841 0.97338 0.0
C1362 C 0.68082 0.22456 0.9629 0.0
C1363 C 0.73198 0.24505 0.98229 0.0
C1364 C 0.73217 0.24622 0.00746 0.0
C1365 C 0.74776 0.25582 0.96934 0.0
C1366 C 0.74825 0.25563 0.94271 0.0
C1367 C 0.73254 0.26549 0.92934 0.0
C1368 C 0.73302 0.26499 0.90425 0.0
C1369 C 0.7492 0.25484 0.89231 0.0
C1370 C 0.76496 0.24523 0.90543 0.0
C1371 C 0.76455 0.24565 0.93053 0.0
H1372 H 0.74954 0.25447 0.87288 0.0
H1373 H 0.74783 0.25236 0.11639 0.0
H1374 H 0.22596 0.6693 0.55615 0.0
H1375 H 0.25225 0.6887 0.5329 0.0
H1376 H 0.21085 0.74104 0.50238 0.0
H1377 H 0.18424 0.72068 0.52481 0.0
H1378 H 0.23569 0.72953 0.46944 0.0
H1379 H 0.24357 0.75598 0.55118 0.0
H1380 H 0.24723 0.7505 0.59493 0.0
H1381 H 0.30025 0.70855 0.58386 0.0
H1382 H 0.29677 0.71351 0.54002 0.0
H1383 H 0.30422 0.82491 0.43731 0.0
H1384 H 0.27816 0.79954 0.45501 0.0
H1385 H 0.32055 0.74349 0.47579 0.0
H1386 H 0.34688 0.76903 0.45808 0.0
H1387 H 0.29593 0.75548 0.51274 0.0
H1388 H 0.28829 0.73253 0.42992 0.0
H1389 H 0.28425 0.7406 0.3866 0.0
H1390 H 0.23014 0.77924 0.40034 0.0
H1391 H 0.23399 0.77172 0.44378 0.0
C1392 C 0.22241 0.68483 0.54435 0.0
C1393 C 0.20301 0.69356 0.54249 0.0
C1394 C 0.23753 0.69609 0.53115 0.0
C1395 C 0.2338 0.71692 0.51626 0.0
C1396 C 0.21427 0.72514 0.51378 0.0
C1397 C 0.19903 0.71351 0.52665 0.0
C1398 C 0.25026 0.73033 0.50375 0.0
C1399 C 0.24873 0.73543 0.47904 0.0
C1400 C 0.2676 0.73777 0.51596 0.0
C1401 C 0.2698 0.73491 0.54232 0.0
C1402 C 0.25594 0.74545 0.55808 0.0
C1403 C 0.25799 0.74246 0.58289 0.0
C1404 C 0.27393 0.72913 0.59216 0.0
C1405 C 0.28789 0.71883 0.57665 0.0
C1406 C 0.2859 0.72175 0.55182 0.0
C1407 C 0.30804 0.80706 0.4454 0.0
C1408 C 0.3277 0.79902 0.44621 0.0
C1409 C 0.29305 0.79248 0.45547 0.0
C1410 C 0.29727 0.76942 0.46662 0.0
C1411 C 0.31687 0.76117 0.46725 0.0
C1412 C 0.33192 0.77573 0.45701 0.0
C1413 C 0.28131 0.75465 0.47853 0.0
C1414 C 0.28292 0.7494 0.50315 0.0
C1415 C 0.26397 0.74742 0.4663 0.0
C1416 C 0.26152 0.75173 0.44014 0.0
C1417 C 0.2756 0.7429 0.42372 0.0
C1418 C 0.27333 0.74735 0.39914 0.0
C1419 C 0.25697 0.76047 0.39073 0.0
C1420 C 0.24281 0.7691 0.40688 0.0
C1421 C 0.24502 0.76472 0.43148 0.0
H1422 H 0.25526 0.76392 0.37169 0.0
H1423 H 0.27549 0.72682 0.61138 0.0
H1424 H 0.13603 0.60853 0.99141 0.0
H1425 H 0.13467 0.56656 0.00952 0.0
H1426 H 0.13726 0.53295 0.93911 0.0
H1427 H 0.13843 0.57473 0.92093 0.0
H1428 H 0.11125 0.50838 0.96771 0.0
H1429 H 0.17808 0.53705 0.97324 0.0
H1430 H 0.20449 0.5665 0.98436 0.0
H1431 H 0.18851 0.55992 0.05868 0.0
H1432 H 0.16182 0.53068 0.04794 0.0
H1433 H 0.14136 0.38481 0.00386 0.0
H1434 H 0.13891 0.42637 0.98489 0.0
H1435 H 0.13865 0.46138 0.05477 0.0
H1436 H 0.14142 0.42024 0.07368 0.0
H1437 H 0.16317 0.48513 0.02597 0.0
H1438 H 0.09677 0.45596 0.02103 0.0
H1439 H 0.07038 0.42632 0.01032 0.0
H1440 H 0.08511 0.43371 0.93569 0.0
H1441 H 0.11181 0.4631 0.94599 0.0
C1442 C 0.13614 0.5922 0.9798 0.0
C1443 C 0.13747 0.59495 0.95476 0.0
C1444 C 0.13543 0.56822 0.99016 0.0
C1445 C 0.13611 0.54658 0.97568 0.0
C1446 C 0.13674 0.54934 0.95064 0.0
C1447 C 0.13748 0.57327 0.94029 0.0
C1448 C 0.13698 0.52107 0.98658 0.0
C1449 C 0.12271 0.50319 0.98026 0.0
C1450 C 0.15174 0.5144 0.00326 0.0
C1451 C 0.16784 0.53188 0.00976 0.0
C1452 C 0.18011 0.54203 0.99193 0.0
C1453 C 0.19514 0.55866 0.99817 0.0
C1454 C 0.19814 0.56513 0.0222 0.0
C1455 C 0.18615 0.55493 0.04006 0.0
C1456 C 0.17108 0.53831 0.03391 0.0
C1457 C 0.1407 0.40139 0.01513 0.0
C1458 C 0.14158 0.39923 0.04026 0.0
C1459 C 0.13923 0.42511 0.00429 0.0
C1460 C 0.13846 0.44703 0.01842 0.0
C1461 C 0.13925 0.4448 0.04349 0.0
C1462 C 0.14077 0.4212 0.05428 0.0
C1463 C 0.13735 0.47242 0.00727 0.0
C1464 C 0.15164 0.49028 0.01348 0.0
C1465 C 0.12257 0.47905 0.99058 0.0
C1466 C 0.10642 0.46154 0.98431 0.0
C1467 C 0.09448 0.45112 0.00235 0.0
C1468 C 0.07945 0.43438 0.99635 0.0
C1469 C 0.0761 0.42809 0.97234 0.0
C1470 C 0.08774 0.43857 0.95428 0.0
C1471 C 0.10282 0.45529 0.96019 0.0
H1472 H 0.06446 0.41512 0.96773 0.0
H1473 H 0.20979 0.57801 0.027 0.0
H1474 H 0.86984 0.57806 0.57697 0.0
H1475 H 0.87156 0.53654 0.55846 0.0
H1476 H 0.87515 0.57083 0.4884 0.0
H1477 H 0.87312 0.61262 0.50688 0.0
H1478 H 0.849 0.53321 0.48878 0.0
H1479 H 0.91534 0.54375 0.51487 0.0
H1480 H 0.94164 0.55316 0.54386 0.0
H1481 H 0.92344 0.49095 0.58764 0.0
H1482 H 0.8968 0.4814 0.55911 0.0
H1483 H 0.87092 0.42217 0.42554 0.0
H1484 H 0.87362 0.46379 0.44356 0.0
H1485 H 0.87035 0.43084 0.51422 0.0
H1486 H 0.86813 0.3888 0.49618 0.0
H1487 H 0.8971 0.46802 0.5131 0.0
H1488 H 0.83011 0.4586 0.4881 0.0
H1489 H 0.80336 0.44947 0.45963 0.0
H1490 H 0.82262 0.50985 0.41421 0.0
H1491 H 0.84966 0.51913 0.44227 0.0
C1492 C 0.87114 0.57682 0.55762 0.0
C1493 C 0.87137 0.59864 0.54337 0.0
C1494 C 0.87221 0.55303 0.54707 0.0
C1495 C 0.87371 0.55052 0.52205 0.0
C1496 C 0.87405 0.5723 0.50776 0.0
C1497 C 0.87295 0.59616 0.51833 0.0
C1498 C 0.87415 0.52513 0.51083 0.0
C1499 C 0.85974 0.51911 0.4938 0.0
C1500 C 0.88781 0.50647 0.51787 0.0
C1501 C 0.90396 0.51199 0.53493 0.0
C1502 C 0.91685 0.53218 0.53076 0.0
C1503 C 0.93183 0.53753 0.5471 0.0
C1504 C 0.93419 0.52269 0.5676 0.0
C1505 C 0.92159 0.50244 0.57177 0.0
C1506 C 0.90655 0.49704 0.5555 0.0
C1507 C 0.87088 0.4237 0.44493 0.0
C1508 C 0.86917 0.40219 0.45945 0.0
C1509 C 0.87234 0.44757 0.45521 0.0
C1510 C 0.87181 0.45054 0.48025 0.0
C1511 C 0.8707 0.42902 0.49485 0.0
C1512 C 0.86939 0.40503 0.48454 0.0
C1513 C 0.87197 0.47615 0.49104 0.0
C1514 C 0.88644 0.48218 0.50801 0.0
C1515 C 0.85834 0.49486 0.484 0.0
C1516 C 0.84201 0.48941 0.46718 0.0
C1517 C 0.82872 0.46982 0.47196 0.0
C1518 C 0.81349 0.46463 0.45591 0.0
C1519 C 0.81132 0.47903 0.43509 0.0
C1520 C 0.82434 0.49869 0.43032 0.0
C1521 C 0.83961 0.50394 0.44631 0.0
H1522 H 0.79953 0.47498 0.42269 0.0
H1523 H 0.94579 0.52686 0.58024 0.0
H1524 H 0.84233 0.3922 0.02562 0.0
H1525 H 0.838 0.42861 0.99907 0.0
H1526 H 0.83859 0.47804 0.06048 0.0
H1527 H 0.84239 0.44215 0.08693 0.0
H1528 H 0.81236 0.49404 0.02976 0.0
H1529 H 0.87984 0.46823 0.02591 0.0
H1530 H 0.90715 0.43868 0.01913 0.0
H1531 H 0.88892 0.42873 0.94595 0.0
H1532 H 0.86133 0.45799 0.95241 0.0
H1533 H 0.84252 0.60968 0.97291 0.0
H1534 H 0.83919 0.57221 0.99836 0.0
H1535 H 0.83522 0.52559 0.93519 0.0
H1536 H 0.83864 0.56247 0.90984 0.0
H1537 H 0.86188 0.50757 0.96585 0.0
H1538 H 0.7952 0.53734 0.97037 0.0
H1539 H 0.76906 0.56818 0.9787 0.0
H1540 H 0.78731 0.5725 0.05235 0.0
H1541 H 0.81375 0.54197 0.04439 0.0
C1542 C 0.8413 0.4108 0.03347 0.0
C1543 C 0.84295 0.41417 0.05843 0.0
C1544 C 0.83892 0.43161 0.01826 0.0
C1545 C 0.83826 0.45615 0.02775 0.0
C1546 C 0.83907 0.45937 0.05268 0.0
C1547 C 0.84139 0.43871 0.06782 0.0
C1548 C 0.83772 0.47868 0.01192 0.0
C1549 C 0.82326 0.49707 0.01587 0.0
C1550 C 0.85182 0.48262 0.99366 0.0
C1551 C 0.8684 0.46505 0.98973 0.0
C1552 C 0.88157 0.45958 0.00843 0.0
C1553 C 0.89711 0.44291 0.00464 0.0
C1554 C 0.89973 0.43177 0.98214 0.0
C1555 C 0.88685 0.43733 0.96338 0.0
C1556 C 0.87126 0.45396 0.96709 0.0
C1557 C 0.84069 0.59148 0.96447 0.0
C1558 C 0.84104 0.58915 0.9393 0.0
C1559 C 0.83876 0.57008 0.97903 0.0
C1560 C 0.83698 0.54606 0.96866 0.0
C1561 C 0.8367 0.54386 0.9436 0.0
C1562 C 0.83865 0.56509 0.92912 0.0
C1563 C 0.83649 0.52292 0.98363 0.0
C1564 C 0.85085 0.50446 0.97958 0.0
C1565 C 0.82244 0.51912 0.00197 0.0
C1566 C 0.80657 0.53753 0.00673 0.0
C1567 C 0.79376 0.54503 0.98829 0.0
C1568 C 0.77886 0.56242 0.99295 0.0
C1569 C 0.77656 0.57231 0.01603 0.0
C1570 C 0.78913 0.56483 0.03448 0.0
C1571 C 0.80406 0.54747 0.02991 0.0
H1572 H 0.76499 0.58568 0.01965 0.0
H1573 H 0.91178 0.41888 0.97924 0.0
H1574 H 0.16796 0.39049 0.47493 0.0
H1575 H 0.17206 0.42714 0.50125 0.0
H1576 H 0.16926 0.47623 0.4397 0.0
H1577 H 0.16572 0.44013 0.41347 0.0
H1578 H 0.19583 0.49314 0.46974 0.0
H1579 H 0.12869 0.46441 0.47587 0.0
H1580 H 0.10276 0.43321 0.48409 0.0
H1581 H 0.12341 0.42533 0.55652 0.0
H1582 H 0.14962 0.45625 0.54863 0.0
H1583 H 0.16565 0.60865 0.52602 0.0
H1584 H 0.16871 0.57088 0.50091 0.0
H1585 H 0.17295 0.52496 0.56452 0.0
H1586 H 0.16973 0.56213 0.58951 0.0
H1587 H 0.14692 0.50571 0.53453 0.0
H1588 H 0.21295 0.53657 0.52894 0.0
H1589 H 0.23867 0.56795 0.52057 0.0
H1590 H 0.21994 0.57233 0.44709 0.0
H1591 H 0.19392 0.54121 0.45511 0.0
C1592 C 0.16846 0.40906 0.467 0.0
C1593 C 0.16627 0.41226 0.44207 0.0
C1594 C 0.17071 0.43002 0.48207 0.0
C1595 C 0.17065 0.45452 0.47249 0.0
C1596 C 0.16932 0.4576 0.44756 0.0
C1597 C 0.16717 0.4368 0.43257 0.0
C1598 C 0.171 0.47717 0.48819 0.0
C1599 C 0.18505 0.49596 0.48381 0.0
C1600 C 0.15713 0.48078 0.50678 0.0
C1601 C 0.14124 0.46242 0.51158 0.0
C1602 C 0.12777 0.4559 0.4935 0.0
C1603 C 0.11302 0.43829 0.49811 0.0
C1604 C 0.11149 0.42724 0.52079 0.0
C1605 C 0.12464 0.43387 0.53895 0.0
C1606 C 0.13944 0.45144 0.53443 0.0
C1607 C 0.16745 0.59054 0.53462 0.0
C1608 C 0.16728 0.5885 0.5598 0.0
C1609 C 0.16923 0.56895 0.52026 0.0
C1610 C 0.17105 0.54503 0.53085 0.0
C1611 C 0.17142 0.54313 0.55592 0.0
C1612 C 0.16959 0.56452 0.5702 0.0
C1613 C 0.17174 0.52173 0.51607 0.0
C1614 C 0.15781 0.50285 0.52058 0.0
C1615 C 0.18568 0.51811 0.49758 0.0
C1616 C 0.20136 0.53674 0.49269 0.0
C1617 C 0.21422 0.54437 0.51104 0.0
C1618 C 0.22887 0.56208 0.50635 0.0
C1619 C 0.23091 0.57218 0.48333 0.0
C1620 C 0.21833 0.56452 0.46492 0.0
C1621 C 0.20364 0.54683 0.46953 0.0
H1622 H 0.24226 0.58589 0.47973 0.0
H1623 H 0.10011 0.41357 0.52433 0.0
H1624 H 0.64222 0.11152 0.99611 0.0
H1625 H 0.64058 0.06966 0.01452 0.0
H1626 H 0.6335 0.0362 0.94453 0.0
H1627 H 0.63525 0.07783 0.92604 0.0
H1628 H 0.60845 0.01545 0.97874 0.0
H1629 H 0.67698 0.03465 0.96976 0.0
H1630 H 0.70686 0.06022 0.97474 0.0
H1631 H 0.70126 0.05536 0.05139 0.0
H1632 H 0.67116 0.03005 0.04686 0.0
H1633 H 0.63313 0.88825 0.00888 0.0
H1634 H 0.63163 0.93019 0.99053 0.0
H1635 H 0.6425 0.96408 0.05962 0.0
H1636 H 0.64407 0.92247 0.07795 0.0
H1637 H 0.66544 0.98471 0.02566 0.0
H1638 H 0.59739 0.96633 0.03559 0.0
H1639 H 0.56702 0.94171 0.03181 0.0
H1640 H 0.57105 0.94562 0.95494 0.0
H1641 H 0.60168 0.97009 0.9583 0.0
C1642 C 0.64014 0.09525 0.98468 0.0
C1643 C 0.63895 0.09796 0.95963 0.0
C1644 C 0.63928 0.07136 0.9952 0.0
C1645 C 0.63709 0.04979 0.98086 0.0
C1646 C 0.63522 0.05256 0.95592 0.0
C1647 C 0.63627 0.07638 0.94539 0.0
C1648 C 0.63738 0.02427 0.99171 0.0
C1649 C 0.621 0.00859 0.98876 0.0
C1650 C 0.65359 0.01553 0.00519 0.0
C1651 C 0.6717 0.03069 0.00797 0.0
C1652 C 0.68202 0.03922 0.98768 0.0
C1653 C 0.69902 0.05363 0.99042 0.0
C1654 C 0.70592 0.05947 0.01337 0.0
C1655 C 0.69587 0.05086 0.03363 0.0
C1656 C 0.67885 0.03647 0.03098 0.0
C1657 C 0.63509 0.90466 0.02014 0.0
C1658 C 0.63871 0.90204 0.04485 0.0
C1659 C 0.63418 0.92861 0.00966 0.0
C1660 C 0.63689 0.95032 0.02372 0.0
C1661 C 0.64042 0.94765 0.0484 0.0
C1662 C 0.64123 0.92381 0.05886 0.0
C1663 C 0.63647 0.97583 0.01277 0.0
C1664 C 0.65287 0.99152 0.01566 0.0
C1665 C 0.62024 0.98462 0.99936 0.0
C1666 C 0.60194 0.96978 0.9972 0.0
C1667 C 0.59191 0.96173 0.01788 0.0
C1668 C 0.57461 0.94785 0.0158 0.0
C1669 C 0.56711 0.94201 0.99313 0.0
C1670 C 0.57689 0.95011 0.97249 0.0
C1671 C 0.59422 0.96402 0.97447 0.0
H1672 H 0.55369 0.93129 0.99153 0.0
H1673 H 0.71909 0.07063 0.01545 0.0
H1674 H 0.37273 0.92624 0.42755 0.0
H1675 H 0.37553 0.96677 0.44773 0.0
H1676 H 0.3759 0.92944 0.51647 0.0
H1677 H 0.37303 0.88855 0.49626 0.0
H1678 H 0.35029 0.96896 0.51538 0.0
H1679 H 0.4174 0.9551 0.49507 0.0
H1680 H 0.44513 0.94465 0.4685 0.0
H1681 H 0.43204 0.00866 0.42436 0.0
H1682 H 0.40402 0.01929 0.45046 0.0
H1683 H 0.37086 0.07939 0.58093 0.0
H1684 H 0.37401 0.03753 0.56341 0.0
H1685 H 0.37562 0.07007 0.4925 0.0
H1686 H 0.37287 0.11225 0.51004 0.0
H1687 H 0.40166 0.03198 0.49635 0.0
H1688 H 0.33346 0.04414 0.5149 0.0
H1689 H 0.30523 0.05431 0.54081 0.0
H1690 H 0.32012 0.99316 0.58772 0.0
H1691 H 0.34861 0.98283 0.56224 0.0
C1692 C 0.37358 0.92657 0.44696 0.0
C1693 C 0.37268 0.90416 0.46032 0.0
C1694 C 0.37526 0.9498 0.45848 0.0
C1695 C 0.3761 0.95117 0.48362 0.0
C1696 C 0.37533 0.92881 0.49705 0.0
C1697 C 0.37376 0.90548 0.48549 0.0
C1698 C 0.3769 0.97607 0.49573 0.0
C1699 C 0.36173 0.98257 0.51157 0.0
C1700 C 0.39154 0.99408 0.49027 0.0
C1701 C 0.40849 0.98787 0.47463 0.0
C1702 C 0.42033 0.96685 0.4796 0.0
C1703 C 0.43612 0.9609 0.46463 0.0
C1704 C 0.44032 0.97595 0.44472 0.0
C1705 C 0.42876 0.99701 0.43978 0.0
C1706 C 0.41293 0.00302 0.45467 0.0
C1707 C 0.37201 0.0777 0.5616 0.0
C1708 C 0.37147 0.09914 0.54684 0.0
C1709 C 0.37374 0.05371 0.5516 0.0
C1710 C 0.37471 0.05057 0.5266 0.0
C1711 C 0.37483 0.072 0.51183 0.0
C1712 C 0.3732 0.09609 0.52186 0.0
C1713 C 0.37499 0.02491 0.51591 0.0
C1714 C 0.39031 0.0183 0.5003 0.0
C1715 C 0.36046 0.00678 0.52152 0.0
C1716 C 0.34328 0.01288 0.5368 0.0
C1717 C 0.3308 0.03298 0.53084 0.0
C1718 C 0.31474 0.03875 0.54543 0.0
C1719 C 0.31092 0.02443 0.56593 0.0
C1720 C 0.32312 0.00426 0.57185 0.0
C1721 C 0.33921 0.99843 0.55733 0.0
H1722 H 0.29847 0.02893 0.5772 0.0
H1723 H 0.45255 0.97132 0.43316 0.0
H1724 H 0.35433 0.89104 0.02612 0.0
H1725 H 0.35352 0.92884 0.00079 0.0
H1726 H 0.32623 0.97034 0.0583 0.0
H1727 H 0.32716 0.9329 0.08367 0.0
H1728 H 0.31071 0.98224 0.01284 0.0
H1729 H 0.37296 0.97549 0.05276 0.0
H1730 H 0.40361 0.95437 0.06475 0.0
H1731 H 0.42052 0.94775 0.99075 0.0
H1732 H 0.38979 0.96849 0.9783 0.0
H1733 H 0.33557 0.10685 0.97157 0.0
H1734 H 0.3318 0.06927 0.99692 0.0
H1735 H 0.36263 0.02505 0.94412 0.0
H1736 H 0.36653 0.06198 0.91902 0.0
H1737 H 0.37582 0.01522 0.98858 0.0
H1738 H 0.31355 0.0217 0.94845 0.0
H1739 H 0.28286 0.04265 0.93634 0.0
H1740 H 0.26601 0.0499 0.0103 0.0
H1741 H 0.29675 0.02928 0.02288 0.0
C1742 C 0.34778 0.90807 0.03314 0.0
C1743 C 0.34096 0.90907 0.05693 0.0
C1744 C 0.34742 0.92967 0.01873 0.0
C1745 C 0.34 0.95246 0.0278 0.0
C1746 C 0.33204 0.953 0.05097 0.0
C1747 C 0.33266 0.93159 0.06546 0.0
C1748 C 0.34191 0.97619 0.01396 0.0
C1749 C 0.32494 0.9896 0.0077 0.0
C1750 C 0.36047 0.98569 0.00716 0.0
C1751 C 0.37897 0.97327 0.01459 0.0
C1752 C 0.38313 0.96932 0.03903 0.0
C1753 C 0.40053 0.95746 0.04591 0.0
C1754 C 0.41398 0.94965 0.02852 0.0
C1755 C 0.41007 0.95376 0.0042 0.0
C1756 C 0.39267 0.96557 0.99722 0.0
C1757 C 0.34158 0.08912 0.96544 0.0
C1758 C 0.35126 0.08749 0.94318 0.0
C1759 C 0.33934 0.06765 0.97987 0.0
C1760 C 0.34684 0.0443 0.97232 0.0
C1761 C 0.35673 0.04281 0.95033 0.0
C1762 C 0.35884 0.06404 0.93593 0.0
C1763 C 0.3446 0.02119 0.98708 0.0
C1764 C 0.36156 0.00791 0.99366 0.0
C1765 C 0.32603 0.01185 0.99411 0.0
C1766 C 0.30755 0.02423 0.98661 0.0
C1767 C 0.30338 0.02797 0.96214 0.0
C1768 C 0.28596 0.03974 0.95519 0.0
C1769 C 0.27252 0.04767 0.97254 0.0
C1770 C 0.27645 0.04379 0.99689 0.0
C1771 C 0.29387 0.03205 0.00394 0.0
H1772 H 0.25904 0.05677 0.96713 0.0
H1773 H 0.42745 0.94049 0.03388 0.0
H1774 H 0.64441 0.06251 0.58273 0.0
H1775 H 0.64896 0.02618 0.55696 0.0
H1776 H 0.68151 0.07155 0.50665 0.0
H1777 H 0.67662 0.10862 0.53239 0.0
H1778 H 0.65645 0.04031 0.48392 0.0
H1779 H 0.70512 0.03059 0.54527 0.0
H1780 H 0.71741 0.02898 0.58688 0.0
H1781 H 0.67943 0.96655 0.60194 0.0
H1782 H 0.66671 0.968 0.56052 0.0
H1783 H 0.68474 0.93392 0.41764 0.0
H1784 H 0.68713 0.97128 0.44289 0.0
H1785 H 0.6568 0.93234 0.49983 0.0
H1786 H 0.65511 0.89441 0.47484 0.0
H1787 H 0.68371 0.96165 0.51831 0.0
H1788 H 0.63291 0.97331 0.45923 0.0
H1789 H 0.61923 0.97493 0.41828 0.0
H1790 H 0.65976 0.03355 0.39964 0.0
H1791 H 0.67386 0.03205 0.44042 0.0
C1792 C 0.65261 0.06492 0.56622 0.0
C1793 C 0.66037 0.08851 0.55979 0.0
C1794 C 0.65525 0.04399 0.55153 0.0
C1795 C 0.66601 0.04592 0.53016 0.0
C1796 C 0.67332 0.06957 0.5232 0.0
C1797 C 0.67051 0.09073 0.5379 0.0
C1798 C 0.66926 0.02313 0.51518 0.0
C1799 C 0.66278 0.02326 0.49129 0.0
C1800 C 0.67705 0.00065 0.52497 0.0
C1801 C 0.68488 0.99951 0.54981 0.0
C1802 C 0.69931 0.0166 0.55749 0.0
C1803 C 0.70636 0.01571 0.58105 0.0
C1804 C 0.69918 0.9977 0.59706 0.0
C1805 C 0.68497 0.9805 0.58953 0.0
C1806 C 0.67786 0.98132 0.566 0.0
C1807 C 0.67883 0.93319 0.43568 0.0
C1808 C 0.66956 0.91131 0.4442 0.0
C1809 C 0.68009 0.95464 0.45005 0.0
C1810 C 0.67162 0.95494 0.47302 0.0
C1811 C 0.66331 0.93266 0.48209 0.0
C1812 C 0.66237 0.91097 0.46783 0.0
C1813 C 0.67069 0.97872 0.48712 0.0
C1814 C 0.67759 0.97877 0.51085 0.0
C1815 C 0.66314 0.00133 0.47724 0.0
C1816 C 0.65456 0.00239 0.45279 0.0
C1817 C 0.63898 0.98643 0.44635 0.0
C1818 C 0.63114 0.98734 0.42318 0.0
C1819 C 0.63865 0.00428 0.40635 0.0
C1820 C 0.65398 0.02041 0.41268 0.0
C1821 C 0.66189 0.01956 0.43583 0.0
H1822 H 0.63257 0.00496 0.38841 0.0
H1823 H 0.70464 0.99706 0.61529 0.0
loop_
_geom_bond_atom_site_label_1
_geom_bond_atom_site_label_2
_geom_bond_distance
_geom_bond_site_symmetry_2
_ccdc_geom_bond_type
Co0 O1 2.216 . S
Co0 O2 2.091 . S
Co0 O4 2.004 . S
Co0 O10 2.021 . S
Co0 O12 2.137 . S
Co0 O13 2.244 . S
O1 Co0 2.216 . S
O1 C8 1.247 . S
O2 Co0 2.091 . S
O2 C8 1.261 . S
C3 O12 1.247 . S
C3 O13 1.272 . S
O4 Co0 2.004 . S
O4 C9 1.259 . S
Co5 O6 2.061 . S
Co5 O11 2.052 . S
Co5 O13 2.135 . S
O6 Co5 2.061 . S
O6 C9 1.235 . S
C7 O10 1.238 . S
C7 O11 1.241 . S
C8 O1 1.247 . S
C8 O2 1.261 . S
C9 O4 1.259 . S
C9 O6 1.235 . S
O10 Co0 2.021 . S
O10 C7 1.238 . S
O11 Co5 2.052 . S
O11 C7 1.241 . S
O12 Co0 2.137 . S
O12 C3 1.247 . S
O13 Co0 2.244 . S
O13 C3 1.272 . S
O13 Co5 2.135 . S
Co14 O15 2.216 . S
Co14 O16 2.091 . S
Co14 O18 2.004 . S
Co14 O24 2.021 . S
Co14 O26 2.137 . S
Co14 O27 2.244 . S
O15 Co14 2.216 . S
O15 C22 1.247 . S
O16 Co14 2.091 . S
O16 C22 1.261 . S
C17 O26 1.247 . S
C17 O27 1.272 . S
O18 Co14 2.004 . S
O18 C23 1.259 . S
Co19 O20 2.061 . S
Co19 O25 2.052 . S
Co19 O27 2.135 . S
O20 Co19 2.061 . S
O20 C23 1.235 . S
C21 O24 1.238 . S
C21 O25 1.241 . S
C22 O15 1.247 . S
C22 O16 1.261 . S
C23 O18 1.259 . S
C23 O20 1.235 . S
O24 Co14 2.021 . S
O24 C21 1.238 . S
O25 Co19 2.052 . S
O25 C21 1.241 . S
O26 Co14 2.137 . S
O26 C17 1.247 . S
O27 Co14 2.244 . S
O27 C17 1.272 . S
O27 Co19 2.135 . S
Co28 O29 2.216 . S
Co28 O30 2.091 . S
Co28 O32 2.004 . S
Co28 O38 2.021 . S
Co28 O40 2.137 . S
Co28 O41 2.244 . S
O29 Co28 2.216 . S
O29 C36 1.247 . S
O30 Co28 2.091 . S
O30 C36 1.261 . S
C31 O40 1.247 . S
C31 O41 1.272 . S
O32 Co28 2.004 . S
O32 C37 1.259 . S
Co33 O34 2.061 . S
Co33 O39 2.052 . S
Co33 O41 2.135 . S
O34 Co33 2.061 . S
O34 C37 1.235 . S
C35 O38 1.238 . S
C35 O39 1.241 . S
C36 O29 1.247 . S
C36 O30 1.261 . S
C37 O32 1.259 . S
C37 O34 1.235 . S
O38 Co28 2.021 . S
O38 C35 1.238 . S
O39 Co33 2.052 . S
O39 C35 1.241 . S
O40 Co28 2.137 . S
O40 C31 1.247 . S
O41 Co28 2.244 . S
O41 C31 1.272 . S
O41 Co33 2.135 . S
Co42 O43 2.216 . S
Co42 O44 2.091 . S
Co42 O46 2.004 . S
Co42 O52 2.021 . S
Co42 O54 2.137 . S
Co42 O55 2.244 . S
O43 Co42 2.216 . S
O43 C50 1.247 . S
O44 Co42 2.091 . S
O44 C50 1.261 . S
C45 O54 1.247 . S
C45 O55 1.272 . S
O46 Co42 2.004 . S
O46 C51 1.259 . S
Co47 O48 2.061 . S
Co47 O53 2.052 . S
Co47 O55 2.135 . S
O48 Co47 2.061 . S
O48 C51 1.235 . S
C49 O52 1.238 . S
C49 O53 1.241 . S
C50 O43 1.247 . S
C50 O44 1.261 . S
C51 O46 1.259 . S
C51 O48 1.235 . S
O52 Co42 2.021 . S
O52 C49 1.238 . S
O53 Co47 2.052 . S
O53 C49 1.241 . S
O54 Co42 2.137 . S
O54 C45 1.247 . S
O55 Co42 2.244 . S
O55 C45 1.272 . S
O55 Co47 2.135 . S
Co56 O57 2.216 . S
Co56 O58 2.091 . S
Co56 O60 2.004 . S
Co56 O66 2.021 . S
Co56 O68 2.137 . S
Co56 O69 2.244 . S
O57 Co56 2.216 . S
O57 C64 1.247 . S
O58 Co56 2.091 . S
O58 C64 1.261 . S
C59 O68 1.247 . S
C59 O69 1.272 . S
O60 Co56 2.004 . S
O60 C65 1.259 . S
Co61 O62 2.061 . S
Co61 O67 2.052 . S
Co61 O69 2.135 . S
O62 Co61 2.061 . S
O62 C65 1.235 . S
C63 O66 1.238 . S
C63 O67 1.241 . S
C64 O57 1.247 . S
C64 O58 1.261 . S
C65 O60 1.259 . S
C65 O62 1.235 . S
O66 Co56 2.021 . S
O66 C63 1.238 . S
O67 Co61 2.052 . S
O67 C63 1.241 . S
O68 Co56 2.137 . S
O68 C59 1.247 . S
O69 Co56 2.244 . S
O69 C59 1.272 . S
O69 Co61 2.135 . S
Co70 O71 2.216 . S
Co70 O72 2.091 . S
Co70 O74 2.004 . S
Co70 O80 2.021 . S
Co70 O82 2.137 . S
Co70 O83 2.244 . S
O71 Co70 2.216 . S
O71 C78 1.247 . S
O72 Co70 2.091 . S
O72 C78 1.261 . S
C73 O82 1.247 . S
C73 O83 1.272 . S
O74 Co70 2.004 . S
O74 C79 1.259 . S
Co75 O76 2.061 . S
Co75 O81 2.052 . S
Co75 O83 2.135 . S
O76 Co75 2.061 . S
O76 C79 1.235 . S
C77 O80 1.238 . S
C77 O81 1.241 . S
C78 O71 1.247 . S
C78 O72 1.261 . S
C79 O74 1.259 . S
C79 O76 1.235 . S
O80 Co70 2.021 . S
O80 C77 1.238 . S
O81 Co75 2.052 . S
O81 C77 1.241 . S
O82 Co70 2.137 . S
O82 C73 1.247 . S
O83 Co70 2.244 . S
O83 C73 1.272 . S
O83 Co75 2.135 . S
Co84 O85 2.216 . S
Co84 O86 2.091 . S
Co84 O88 2.004 . S
Co84 O94 2.021 . S
Co84 O96 2.137 . S
Co84 O97 2.244 . S
O85 Co84 2.216 . S
O85 C92 1.247 . S
O86 Co84 2.091 . S
O86 C92 1.261 . S
C87 O96 1.247 . S
C87 O97 1.272 . S
O88 Co84 2.004 . S
O88 C93 1.259 . S
Co89 O90 2.061 . S
Co89 O95 2.052 . S
Co89 O97 2.135 . S
O90 Co89 2.061 . S
O90 C93 1.235 . S
C91 O94 1.238 . S
C91 O95 1.241 . S
C92 O85 1.247 . S
C92 O86 1.261 . S
C93 O88 1.259 . S
C93 O90 1.235 . S
O94 Co84 2.021 . S
O94 C91 1.238 . S
O95 Co89 2.052 . S
O95 C91 1.241 . S
O96 Co84 2.137 . S
O96 C87 1.247 . S
O97 Co84 2.244 . S
O97 C87 1.272 . S
O97 Co89 2.135 . S
Co98 O99 2.216 . S
Co98 O100 2.091 . S
Co98 O102 2.004 . S
Co98 O108 2.021 . S
Co98 O110 2.137 . S
Co98 O111 2.244 . S
O99 Co98 2.216 . S
O99 C106 1.247 . S
O100 Co98 2.091 . S
O100 C106 1.261 . S
C101 O110 1.247 . S
C101 O111 1.272 . S
O102 Co98 2.004 . S
O102 C107 1.259 . S
Co103 O104 2.061 . S
Co103 O109 2.052 . S
Co103 O111 2.135 . S
O104 Co103 2.061 . S
O104 C107 1.235 . S
C105 O108 1.238 . S
C105 O109 1.241 . S
C106 O99 1.247 . S
C106 O100 1.261 . S
C107 O102 1.259 . S
C107 O104 1.235 . S
O108 Co98 2.021 . S
O108 C105 1.238 . S
O109 Co103 2.052 . S
O109 C105 1.241 . S
O110 Co98 2.137 . S
O110 C101 1.247 . S
O111 Co98 2.244 . S
O111 C101 1.272 . S
O111 Co103 2.135 . S
Co112 O113 2.216 . S
Co112 O114 2.091 . S
Co112 O116 2.004 . S
Co112 O122 2.021 . S
Co112 O124 2.137 . S
Co112 O125 2.244 . S
O113 Co112 2.216 . S
O113 C120 1.247 . S
O114 Co112 2.091 . S
O114 C120 1.261 . S
C115 O124 1.247 . S
C115 O125 1.272 . S
O116 Co112 2.004 . S
O116 C121 1.259 . S
Co117 O118 2.061 . S
Co117 O123 2.052 . S
Co117 O125 2.135 . S
O118 Co117 2.061 . S
O118 C121 1.235 . S
C119 O122 1.238 . S
C119 O123 1.241 . S
C120 O113 1.247 . S
C120 O114 1.261 . S
C121 O116 1.259 . S
C121 O118 1.235 . S
O122 Co112 2.021 . S
O122 C119 1.238 . S
O123 Co117 2.052 . S
O123 C119 1.241 . S
O124 Co112 2.137 . S
O124 C115 1.247 . S
O125 Co112 2.244 . S
O125 C115 1.272 . S
O125 Co117 2.135 . S
Co126 O127 2.216 . S
Co126 O128 2.091 . S
Co126 O130 2.004 . S
Co126 O136 2.021 . S
Co126 O138 2.137 . S
Co126 O139 2.244 . S
O127 Co126 2.216 . S
O127 C134 1.247 . S
O128 Co126 2.091 . S
O128 C134 1.261 . S
C129 O138 1.247 . S
C129 O139 1.272 . S
O130 Co126 2.004 . S
O130 C135 1.259 . S
Co131 O132 2.061 . S
Co131 O137 2.052 . S
Co131 O139 2.135 . S
O132 Co131 2.061 . S
O132 C135 1.235 . S
C133 O136 1.238 . S
C133 O137 1.241 . S
C134 O127 1.247 . S
C134 O128 1.261 . S
C135 O130 1.259 . S
C135 O132 1.235 . S
O136 Co126 2.021 . S
O136 C133 1.238 . S
O137 Co131 2.052 . S
O137 C133 1.241 . S
O138 Co126 2.137 . S
O138 C129 1.247 . S
O139 Co126 2.244 . S
O139 C129 1.272 . S
O139 Co131 2.135 . S
Co140 O141 2.216 . S
Co140 O142 2.091 . S
Co140 O144 2.004 . S
Co140 O150 2.021 . S
Co140 O152 2.137 . S
Co140 O153 2.244 . S
O141 Co140 2.216 . S
O141 C148 1.247 . S
O142 Co140 2.091 . S
O142 C148 1.261 . S
C143 O152 1.247 . S
C143 O153 1.272 . S
O144 Co140 2.004 . S
O144 C149 1.259 . S
Co145 O146 2.061 . S
Co145 O151 2.052 . S
Co145 O153 2.135 . S
O146 Co145 2.061 . S
O146 C149 1.235 . S
C147 O150 1.238 . S
C147 O151 1.241 . S
C148 O141 1.247 . S
C148 O142 1.261 . S
C149 O144 1.259 . S
C149 O146 1.235 . S
O150 Co140 2.021 . S
O150 C147 1.238 . S
O151 Co145 2.052 . S
O151 C147 1.241 . S
O152 Co140 2.137 . S
O152 C143 1.247 . S
O153 Co140 2.244 . S
O153 C143 1.272 . S
O153 Co145 2.135 . S
Co154 O155 2.216 . S
Co154 O156 2.091 . S
Co154 O158 2.004 . S
Co154 O164 2.021 . S
Co154 O166 2.137 . S
Co154 O167 2.244 . S
O155 Co154 2.216 . S
O155 C162 1.247 . S
O156 Co154 2.091 . S
O156 C162 1.261 . S
C157 O166 1.247 . S
C157 O167 1.272 . S
O158 Co154 2.004 . S
O158 C163 1.259 . S
Co159 O160 2.061 . S
Co159 O165 2.052 . S
Co159 O167 2.135 . S
O160 Co159 2.061 . S
O160 C163 1.235 . S
C161 O164 1.238 . S
C161 O165 1.241 . S
C162 O155 1.247 . S
C162 O156 1.261 . S
C163 O158 1.259 . S
C163 O160 1.235 . S
O164 Co154 2.021 . S
O164 C161 1.238 . S
O165 Co159 2.052 . S
O165 C161 1.241 . S
O166 Co154 2.137 . S
O166 C157 1.247 . S
O167 Co154 2.244 . S
O167 C157 1.272 . S
O167 Co159 2.135 . S
Co168 O169 2.216 . S
Co168 O170 2.091 . S
Co168 O172 2.004 . S
Co168 O178 2.021 . S
Co168 O180 2.137 . S
Co168 O181 2.244 . S
O169 Co168 2.216 . S
O169 C176 1.247 . S
O170 Co168 2.091 . S
O170 C176 1.261 . S
C171 O180 1.247 . S
C171 O181 1.272 . S
O172 Co168 2.004 . S
O172 C177 1.259 . S
Co173 O174 2.061 . S
Co173 O179 2.052 . S
Co173 O181 2.135 . S
O174 Co173 2.061 . S
O174 C177 1.235 . S
C175 O178 1.238 . S
C175 O179 1.241 . S
C176 O169 1.247 . S
C176 O170 1.261 . S
C177 O172 1.259 . S
C177 O174 1.235 . S
O178 Co168 2.021 . S
O178 C175 1.238 . S
O179 Co173 2.052 . S
O179 C175 1.241 . S
O180 Co168 2.137 . S
O180 C171 1.247 . S
O181 Co168 2.244 . S
O181 C171 1.272 . S
O181 Co173 2.135 . S
Co182 O183 2.216 . S
Co182 O184 2.091 . S
Co182 O186 2.004 . S
Co182 O192 2.021 . S
Co182 O194 2.137 . S
Co182 O195 2.244 . S
O183 Co182 2.216 . S
O183 C190 1.247 . S
O184 Co182 2.091 . S
O184 C190 1.261 . S
C185 O194 1.247 . S
C185 O195 1.272 . S
O186 Co182 2.004 . S
O186 C191 1.259 . S
Co187 O188 2.061 . S
Co187 O193 2.052 . S
Co187 O195 2.135 . S
O188 Co187 2.061 . S
O188 C191 1.235 . S
C189 O192 1.238 . S
C189 O193 1.241 . S
C190 O183 1.247 . S
C190 O184 1.261 . S
C191 O186 1.259 . S
C191 O188 1.235 . S
O192 Co182 2.021 . S
O192 C189 1.238 . S
O193 Co187 2.052 . S
O193 C189 1.241 . S
O194 Co182 2.137 . S
O194 C185 1.247 . S
O195 Co182 2.244 . S
O195 C185 1.272 . S
O195 Co187 2.135 . S
Co196 O197 2.216 . S
Co196 O198 2.091 . S
Co196 O200 2.004 . S
Co196 O206 2.021 . S
Co196 O208 2.137 . S
Co196 O209 2.244 . S
O197 Co196 2.216 . S
O197 C204 1.247 . S
O198 Co196 2.091 . S
O198 C204 1.261 . S
C199 O208 1.247 . S
C199 O209 1.272 . S
O200 Co196 2.004 . S
O200 C205 1.259 . S
Co201 O202 2.061 . S
Co201 O207 2.052 . S
Co201 O209 2.135 . S
O202 Co201 2.061 . S
O202 C205 1.235 . S
C203 O206 1.238 . S
C203 O207 1.241 . S
C204 O197 1.247 . S
C204 O198 1.261 . S
C205 O200 1.259 . S
C205 O202 1.235 . S
O206 Co196 2.021 . S
O206 C203 1.238 . S
O207 Co201 2.052 . S
O207 C203 1.241 . S
O208 Co196 2.137 . S
O208 C199 1.247 . S
O209 Co196 2.244 . S
O209 C199 1.272 . S
O209 Co201 2.135 . S
Co210 O211 2.216 . S
Co210 O212 2.091 . S
Co210 O214 2.004 . S
Co210 O220 2.021 . S
Co210 O222 2.137 . S
Co210 O223 2.244 . S
O211 Co210 2.216 . S
O211 C218 1.247 . S
O212 Co210 2.091 . S
O212 C218 1.261 . S
C213 O222 1.247 . S
C213 O223 1.272 . S
O214 Co210 2.004 . S
O214 C219 1.259 . S
Co215 O216 2.061 . S
Co215 O221 2.052 . S
Co215 O223 2.135 . S
O216 Co215 2.061 . S
O216 C219 1.235 . S
C217 O220 1.238 . S
C217 O221 1.241 . S
C218 O211 1.247 . S
C218 O212 1.261 . S
C219 O214 1.259 . S
C219 O216 1.235 . S
O220 Co210 2.021 . S
O220 C217 1.238 . S
O221 Co215 2.052 . S
O221 C217 1.241 . S
O222 Co210 2.137 . S
O222 C213 1.247 . S
O223 Co210 2.244 . S
O223 C213 1.272 . S
O223 Co215 2.135 . S
H224 C242 0.951 . S
H225 C244 0.951 . S
H226 C246 0.950 . S
H227 C247 0.950 . S
H228 C249 0.950 . S
H229 C252 0.950 . S
H230 C253 0.949 1_556 S
H231 C255 0.950 . S
H232 C256 0.964 . S
H233 C257 0.951 . S
H234 C259 0.951 . S
H235 C261 0.950 . S
H236 C262 0.950 . S
H237 C264 0.950 . S
H238 C267 0.950 . S
H239 C268 0.950 . S
H240 C270 0.950 . S
H241 C271 0.950 . S
C242 H224 0.951 . S
C242 C243 1.366 . S
C242 C244 1.388 . S
C243 C242 1.366 . S
C243 C247 1.385 . S
C244 H225 0.951 . S
C244 C242 1.388 . S
C244 C245 1.366 . S
C245 C244 1.366 . S
C245 C246 1.414 . S
C245 C248 1.499 . S
C246 H226 0.950 . S
C246 C245 1.414 . S
C246 C247 1.374 . S
C247 H227 0.950 . S
C247 C243 1.385 . S
C247 C246 1.374 . S
C248 C245 1.499 . S
C248 C249 1.373 . S
C248 C250 1.389 . S
C249 H228 0.950 . S
C249 C248 1.373 . S
C249 C265 1.377 1_455 S
C250 C248 1.389 . S
C250 C251 1.524 . S
C250 C264 1.377 1_455 S
C251 C250 1.524 . S
C251 C252 1.397 . S
C251 C256 1.363 . S
C252 H229 0.950 . S
C252 C251 1.397 . S
C252 C253 1.339 . S
C253 H230 0.949 1_554 S
C253 C252 1.339 . S
C253 C254 1.284 1_554 S
C254 C253 1.284 1_556 S
C254 C255 1.524 . S
C254 H273 0.913 . S
C255 H231 0.950 . S
C255 C254 1.524 . S
C255 C256 1.415 1_556 S
C256 H232 0.964 . S
C256 C251 1.363 . S
C256 C255 1.415 1_554 S
C257 H233 0.951 . S
C257 C258 1.366 . S
C257 C259 1.388 . S
C258 C257 1.366 . S
C258 C262 1.385 . S
C259 H234 0.951 . S
C259 C257 1.388 . S
C259 C260 1.366 . S
C260 C259 1.366 . S
C260 C261 1.414 . S
C260 C263 1.499 . S
C261 H235 0.950 . S
C261 C260 1.414 . S
C261 C262 1.374 . S
C262 H236 0.950 . S
C262 C258 1.385 . S
C262 C261 1.374 . S
C263 C260 1.499 . S
C263 C264 1.373 . S
C263 C265 1.389 . S
C264 H237 0.950 . S
C264 C250 1.377 1_655 S
C264 C263 1.373 . S
C265 C249 1.377 1_655 S
C265 C263 1.389 . S
C265 C266 1.524 . S
C266 C265 1.524 . S
C266 C267 1.397 . S
C266 C271 1.363 . S
C267 H238 0.950 . S
C267 C266 1.397 . S
C267 C268 1.334 . S
C268 H239 0.950 . S
C268 C267 1.334 . S
C268 C269 1.287 . S
C269 C268 1.287 . S
C269 C270 1.524 . S
C269 H272 0.999 . S
C270 H240 0.950 . S
C270 C269 1.524 . S
C270 C271 1.415 . S
C271 H241 0.950 . S
C271 C266 1.363 . S
C271 C270 1.415 . S
H272 C269 0.999 . S
H273 C254 0.913 . S
H274 C292 0.951 . S
H275 C294 0.951 . S
H276 C296 0.950 . S
H277 C297 0.950 . S
H278 C299 0.950 . S
H279 C302 0.950 . S
H280 C303 0.950 . S
H281 C305 0.950 . S
H282 C306 0.967 . S
H283 C307 0.951 . S
H284 C309 0.951 . S
H285 C311 0.950 . S
H286 C312 0.950 . S
H287 C314 0.950 . S
H288 C317 0.950 . S
H289 C318 0.950 . S
H290 C320 0.950 . S
H291 C321 0.950 . S
C292 H274 0.951 . S
C292 C293 1.366 . S
C292 C294 1.388 . S
C293 C292 1.366 . S
C293 C297 1.385 . S
C294 H275 0.951 . S
C294 C292 1.388 . S
C294 C295 1.366 . S
C295 C294 1.366 . S
C295 C296 1.414 . S
C295 C298 1.499 . S
C296 H276 0.950 . S
C296 C295 1.414 . S
C296 C297 1.374 . S
C297 H277 0.950 . S
C297 C293 1.385 . S
C297 C296 1.374 . S
C298 C295 1.499 . S
C298 C299 1.373 . S
C298 C300 1.389 . S
C299 H278 0.950 . S
C299 C298 1.373 . S
C299 C315 1.377 1_655 S
C300 C298 1.389 . S
C300 C301 1.524 . S
C300 C314 1.377 1_655 S
C301 C300 1.524 . S
C301 C302 1.397 . S
C301 C306 1.363 . S
C302 H279 0.950 . S
C302 C301 1.397 . S
C302 C303 1.334 . S
C303 H280 0.950 . S
C303 C302 1.334 . S
C303 C304 1.287 . S
C304 C303 1.287 . S
C304 C305 1.524 . S
C304 H323 0.913 . S
C305 H281 0.950 . S
C305 C304 1.524 . S
C305 C306 1.415 . S
C306 H282 0.967 . S
C306 C301 1.363 . S
C306 C305 1.415 . S
C307 H283 0.951 . S
C307 C308 1.366 . S
C307 C309 1.388 . S
C308 C307 1.366 . S
C308 C312 1.385 . S
C309 H284 0.951 . S
C309 C307 1.388 . S
C309 C310 1.366 . S
C310 C309 1.366 . S
C310 C311 1.414 . S
C310 C313 1.499 . S
C311 H285 0.950 . S
C311 C310 1.414 . S
C311 C312 1.374 . S
C312 H286 0.950 . S
C312 C308 1.385 . S
C312 C311 1.374 . S
C313 C310 1.499 . S
C313 C314 1.373 . S
C313 C315 1.389 . S
C314 H287 0.950 . S
C314 C300 1.377 1_455 S
C314 C313 1.373 . S
C315 C299 1.377 1_455 S
C315 C313 1.389 . S
C315 C316 1.524 . S
C316 C315 1.524 . S
C316 C317 1.397 . S
C316 C321 1.363 . S
C317 H288 0.950 . S
C317 C316 1.397 . S
C317 C318 1.334 . S
C318 H289 0.950 . S
C318 C317 1.334 . S
C318 C319 1.287 . S
C319 C318 1.287 . S
C319 C320 1.524 . S
C319 H322 0.999 . S
C320 H290 0.950 . S
C320 C319 1.524 . S
C320 C321 1.415 . S
C321 H291 0.950 . S
C321 C316 1.363 . S
C321 C320 1.415 . S
H322 C319 0.999 . S
H323 C304 0.913 . S
H324 C342 0.951 . S
H325 C344 0.951 . S
H326 C346 0.950 . S
H327 C347 0.950 . S
H328 C349 0.950 . S
H329 C352 0.950 . S
H330 C353 0.950 . S
H331 C355 0.950 . S
H332 C356 0.950 . S
H333 C357 0.951 . S
H334 C359 0.951 . S
H335 C361 0.950 . S
H336 C362 0.950 . S
H337 C364 0.950 . S
H338 C367 0.950 . S
H339 C368 0.950 . S
H340 C370 0.950 . S
H341 C371 0.968 . S
C342 H324 0.951 . S
C342 C343 1.366 . S
C342 C344 1.388 . S
C343 C342 1.366 . S
C343 C347 1.385 . S
C344 H325 0.951 . S
C344 C342 1.388 . S
C344 C345 1.366 . S
C345 C344 1.366 . S
C345 C346 1.414 . S
C345 C348 1.499 . S
C346 H326 0.950 . S
C346 C345 1.414 . S
C346 C347 1.374 . S
C347 H327 0.950 . S
C347 C343 1.385 . S
C347 C346 1.374 . S
C348 C345 1.499 . S
C348 C349 1.373 . S
C348 C350 1.389 . S
C349 H328 0.950 . S
C349 C348 1.373 . S
C349 C365 1.377 1_655 S
C350 C348 1.389 . S
C350 C351 1.524 . S
C350 C364 1.377 1_655 S
C351 C350 1.524 . S
C351 C352 1.397 . S
C351 C356 1.363 . S
C352 H329 0.950 . S
C352 C351 1.397 . S
C352 C353 1.334 . S
C353 H330 0.950 . S
C353 C352 1.334 . S
C353 C354 1.287 . S
C354 C353 1.287 . S
C354 C355 1.524 . S
C354 H373 0.913 . S
C355 H331 0.950 . S
C355 C354 1.524 . S
C355 C356 1.415 . S
C356 H332 0.950 . S
C356 C351 1.363 . S
C356 C355 1.415 . S
C357 H333 0.951 . S
C357 C358 1.366 . S
C357 C359 1.388 . S
C358 C357 1.366 . S
C358 C362 1.385 . S
C359 H334 0.951 . S
C359 C357 1.388 . S
C359 C360 1.366 . S
C360 C359 1.366 . S
C360 C361 1.414 . S
C360 C363 1.499 . S
C361 H335 0.950 . S
C361 C360 1.414 . S
C361 C362 1.374 . S
C362 H336 0.950 . S
C362 C358 1.385 . S
C362 C361 1.374 . S
C363 C360 1.499 . S
C363 C364 1.373 . S
C363 C365 1.389 . S
C364 H337 0.950 . S
C364 C350 1.377 1_455 S
C364 C363 1.373 . S
C365 C349 1.377 1_455 S
C365 C363 1.389 . S
C365 C366 1.524 . S
C366 C365 1.524 . S
C366 C367 1.397 . S
C366 C371 1.363 . S
C367 H338 0.950 . S
C367 C366 1.397 . S
C367 C368 1.334 . S
C368 H339 0.950 . S
C368 C367 1.334 . S
C368 C369 1.287 . S
C369 C368 1.287 . S
C369 C370 1.524 . S
C369 H372 0.999 . S
C370 H340 0.950 . S
C370 C369 1.524 . S
C370 C371 1.415 . S
C371 H341 0.968 . S
C371 C366 1.363 . S
C371 C370 1.415 . S
H372 C369 0.999 . S
H373 C354 0.913 . S
H374 C392 0.951 . S
H375 C394 0.951 . S
H376 C396 0.950 . S
H377 C397 0.950 . S
H378 C399 0.950 . S
H379 C402 0.950 . S
H380 C403 0.950 . S
H381 C405 0.950 . S
H382 C406 0.950 . S
H383 C407 0.951 . S
H384 C409 0.951 . S
H385 C411 0.950 . S
H386 C412 0.950 . S
H387 C414 0.950 . S
H388 C417 0.950 . S
H389 C418 0.950 . S
H390 C420 0.950 . S
H391 C421 0.971 . S
C392 H374 0.951 . S
C392 C393 1.366 . S
C392 C394 1.388 . S
C393 C392 1.366 . S
C393 C397 1.385 . S
C394 H375 0.951 . S
C394 C392 1.388 . S
C394 C395 1.366 . S
C395 C394 1.366 . S
C395 C396 1.414 . S
C395 C398 1.499 . S
C396 H376 0.950 . S
C396 C395 1.414 . S
C396 C397 1.374 . S
C397 H377 0.950 . S
C397 C393 1.385 . S
C397 C396 1.374 . S
C398 C395 1.499 . S
C398 C399 1.373 . S
C398 C400 1.389 . S
C399 H378 0.950 . S
C399 C398 1.373 . S
C399 C415 1.377 1_455 S
C400 C398 1.389 . S
C400 C401 1.524 . S
C400 C414 1.377 1_455 S
C401 C400 1.524 . S
C401 C402 1.397 . S
C401 C406 1.363 . S
C402 H379 0.950 . S
C402 C401 1.397 . S
C402 C403 1.334 . S
C403 H380 0.950 . S
C403 C402 1.334 . S
C403 C404 1.287 . S
C404 C403 1.287 . S
C404 C405 1.524 . S
C404 H423 0.913 . S
C405 H381 0.950 . S
C405 C404 1.524 . S
C405 C406 1.415 . S
C406 H382 0.950 . S
C406 C401 1.363 . S
C406 C405 1.415 . S
C407 H383 0.951 . S
C407 C408 1.366 . S
C407 C409 1.388 . S
C408 C407 1.366 . S
C408 C412 1.385 . S
C409 H384 0.951 . S
C409 C407 1.388 . S
C409 C410 1.366 . S
C410 C409 1.366 . S
C410 C411 1.414 . S
C410 C413 1.499 . S
C411 H385 0.950 . S
C411 C410 1.414 . S
C411 C412 1.374 . S
C412 H386 0.950 . S
C412 C408 1.385 . S
C412 C411 1.374 . S
C413 C410 1.499 . S
C413 C414 1.373 . S
C413 C415 1.389 . S
C414 H387 0.950 . S
C414 C400 1.377 1_655 S
C414 C413 1.373 . S
C415 C399 1.377 1_655 S
C415 C413 1.389 . S
C415 C416 1.524 . S
C416 C415 1.524 . S
C416 C417 1.397 . S
C416 C421 1.363 . S
C417 H388 0.950 . S
C417 C416 1.397 . S
C417 C418 1.334 . S
C418 H389 0.950 . S
C418 C417 1.334 . S
C418 C419 1.287 . S
C419 C418 1.287 . S
C419 C420 1.524 . S
C419 H422 0.999 . S
C420 H390 0.950 . S
C420 C419 1.524 . S
C420 C421 1.415 . S
C421 H391 0.971 . S
C421 C416 1.363 . S
C421 C420 1.415 . S
H422 C419 0.999 . S
H423 C404 0.913 . S
H424 C442 0.951 . S
H425 C444 0.951 . S
H426 C446 0.950 . S
H427 C447 0.950 . S
H428 C449 0.950 . S
H429 C452 0.950 . S
H430 C453 0.950 . S
H431 C455 0.950 . S
H432 C456 0.950 . S
H433 C457 0.951 . S
H434 C459 0.951 . S
H435 C461 0.950 . S
H436 C462 0.950 . S
H437 C464 0.950 . S
H438 C467 0.950 . S
H439 C468 0.950 . S
H440 C470 0.950 . S
H441 C471 0.950 . S
C442 H424 0.951 . S
C442 C443 1.366 . S
C442 C444 1.388 . S
C443 C442 1.366 . S
C443 C447 1.385 . S
C444 H425 0.951 . S
C444 C442 1.388 . S
C444 C445 1.366 . S
C445 C444 1.366 . S
C445 C446 1.414 . S
C445 C448 1.499 . S
C446 H426 0.950 . S
C446 C445 1.414 . S
C446 C447 1.374 . S
C447 H427 0.950 . S
C447 C443 1.385 . S
C447 C446 1.374 . S
C448 C445 1.499 . S
C448 C449 1.373 . S
C448 C450 1.389 . S
C449 H428 0.950 . S
C449 C448 1.373 . S
C449 C465 1.377 . S
C450 C448 1.389 . S
C450 C451 1.524 . S
C450 C464 1.377 . S
C451 C450 1.524 . S
C451 C452 1.397 . S
C451 C456 1.363 . S
C452 H429 0.950 . S
C452 C451 1.397 . S
C452 C453 1.334 . S
C453 H430 0.950 . S
C453 C452 1.334 . S
C453 C454 1.287 . S
C454 C453 1.287 . S
C454 C455 1.524 . S
C454 H473 0.913 . S
C455 H431 0.950 . S
C455 C454 1.524 . S
C455 C456 1.415 . S
C456 H432 0.950 . S
C456 C451 1.363 . S
C456 C455 1.415 . S
C457 H433 0.951 . S
C457 C458 1.366 . S
C457 C459 1.388 . S
C458 C457 1.366 . S
C458 C462 1.385 . S
C459 H434 0.951 . S
C459 C457 1.388 . S
C459 C460 1.366 . S
C460 C459 1.366 . S
C460 C461 1.414 . S
C460 C463 1.499 . S
C461 H435 0.950 . S
C461 C460 1.414 . S
C461 C462 1.374 . S
C462 H436 0.950 . S
C462 C458 1.385 . S
C462 C461 1.374 . S
C463 C460 1.499 . S
C463 C464 1.373 . S
C463 C465 1.389 . S
C464 H437 0.950 . S
C464 C450 1.377 . S
C464 C463 1.373 . S
C465 C449 1.377 . S
C465 C463 1.389 . S
C465 C466 1.524 . S
C466 C465 1.524 . S
C466 C467 1.397 . S
C466 C471 1.363 . S
C467 H438 0.950 . S
C467 C466 1.397 . S
C467 C468 1.334 . S
C468 H439 0.950 . S
C468 C467 1.334 . S
C468 C469 1.287 . S
C469 C468 1.287 . S
C469 C470 1.524 . S
C469 H472 0.999 . S
C470 H440 0.950 . S
C470 C469 1.524 . S
C470 C471 1.415 . S
C471 H441 0.950 . S
C471 C466 1.363 . S
C471 C470 1.415 . S
H472 C469 0.999 . S
H473 C454 0.913 . S
H474 C492 0.951 . S
H475 C494 0.951 . S
H476 C496 0.950 . S
H477 C497 0.950 . S
H478 C499 0.950 . S
H479 C502 0.950 . S
H480 C503 0.950 . S
H481 C505 0.950 . S
H482 C506 0.950 . S
H483 C507 0.951 . S
H484 C509 0.951 . S
H485 C511 0.950 . S
H486 C512 0.950 . S
H487 C514 0.950 . S
H488 C517 0.950 . S
H489 C518 0.950 . S
H490 C520 0.950 . S
H491 C521 0.950 . S
C492 H474 0.951 . S
C492 C493 1.366 . S
C492 C494 1.388 . S
C493 C492 1.366 . S
C493 C497 1.385 . S
C494 H475 0.951 . S
C494 C492 1.388 . S
C494 C495 1.366 . S
C495 C494 1.366 . S
C495 C496 1.414 . S
C495 C498 1.499 . S
C496 H476 0.950 . S
C496 C495 1.414 . S
C496 C497 1.374 . S
C497 H477 0.950 . S
C497 C493 1.385 . S
C497 C496 1.374 . S
C498 C495 1.499 . S
C498 C499 1.373 . S
C498 C500 1.389 . S
C499 H478 0.950 . S
C499 C498 1.373 . S
C499 C515 1.377 . S
C500 C498 1.389 . S
C500 C501 1.524 . S
C500 C514 1.377 . S
C501 C500 1.524 . S
C501 C502 1.397 . S
C501 C506 1.363 . S
C502 H479 0.950 . S
C502 C501 1.397 . S
C502 C503 1.334 . S
C503 H480 0.950 . S
C503 C502 1.334 . S
C503 C504 1.287 . S
C504 C503 1.287 . S
C504 C505 1.524 . S
C504 H523 0.913 . S
C505 H481 0.950 . S
C505 C504 1.524 . S
C505 C506 1.415 . S
C506 H482 0.950 . S
C506 C501 1.363 . S
C506 C505 1.415 . S
C507 H483 0.951 . S
C507 C508 1.366 . S
C507 C509 1.388 . S
C508 C507 1.366 . S
C508 C512 1.385 . S
C509 H484 0.951 . S
C509 C507 1.388 . S
C509 C510 1.366 . S
C510 C509 1.366 . S
C510 C511 1.414 . S
C510 C513 1.499 . S
C511 H485 0.950 . S
C511 C510 1.414 . S
C511 C512 1.374 . S
C512 H486 0.950 . S
C512 C508 1.385 . S
C512 C511 1.374 . S
C513 C510 1.499 . S
C513 C514 1.373 . S
C513 C515 1.389 . S
C514 H487 0.950 . S
C514 C500 1.377 . S
C514 C513 1.373 . S
C515 C499 1.377 . S
C515 C513 1.389 . S
C515 C516 1.524 . S
C516 C515 1.524 . S
C516 C517 1.397 . S
C516 C521 1.363 . S
C517 H488 0.950 . S
C517 C516 1.397 . S
C517 C518 1.334 . S
C518 H489 0.950 . S
C518 C517 1.334 . S
C518 C519 1.287 . S
C519 C518 1.287 . S
C519 C520 1.524 . S
C519 H522 0.999 . S
C520 H490 0.950 . S
C520 C519 1.524 . S
C520 C521 1.415 . S
C521 H491 0.950 . S
C521 C516 1.363 . S
C521 C520 1.415 . S
H522 C519 0.999 . S
H523 C504 0.913 . S
H524 C542 0.951 . S
H525 C544 0.951 . S
H526 C546 0.950 . S
H527 C547 0.950 . S
H528 C549 0.950 . S
H529 C552 0.950 . S
H530 C553 0.950 . S
H531 C555 0.950 . S
H532 C556 0.950 . S
H533 C557 0.951 . S
H534 C559 0.951 . S
H535 C561 0.950 . S
H536 C562 0.950 . S
H537 C564 0.950 . S
H538 C567 0.950 . S
H539 C568 0.950 . S
H540 C570 0.950 . S
H541 C571 0.950 . S
C542 H524 0.951 . S
C542 C543 1.366 . S
C542 C544 1.388 . S
C543 C542 1.366 . S
C543 C547 1.385 . S
C544 H525 0.951 . S
C544 C542 1.388 . S
C544 C545 1.366 . S
C545 C544 1.366 . S
C545 C546 1.414 . S
C545 C548 1.499 . S
C546 H526 0.950 . S
C546 C545 1.414 . S
C546 C547 1.374 . S
C547 H527 0.950 . S
C547 C543 1.385 . S
C547 C546 1.374 . S
C548 C545 1.499 . S
C548 C549 1.373 . S
C548 C550 1.389 . S
C549 H528 0.950 . S
C549 C548 1.373 . S
C549 C565 1.377 . S
C550 C548 1.389 . S
C550 C551 1.524 . S
C550 C564 1.377 . S
C551 C550 1.524 . S
C551 C552 1.397 . S
C551 C556 1.363 . S
C552 H529 0.950 . S
C552 C551 1.397 . S
C552 C553 1.334 . S
C553 H530 0.950 . S
C553 C552 1.334 . S
C553 C554 1.287 . S
C554 C553 1.287 . S
C554 C555 1.524 . S
C554 H573 0.913 . S
C555 H531 0.950 . S
C555 C554 1.524 . S
C555 C556 1.415 . S
C556 H532 0.950 . S
C556 C551 1.363 . S
C556 C555 1.415 . S
C557 H533 0.951 . S
C557 C558 1.366 . S
C557 C559 1.388 . S
C558 C557 1.366 . S
C558 C562 1.385 . S
C559 H534 0.951 . S
C559 C557 1.388 . S
C559 C560 1.366 . S
C560 C559 1.366 . S
C560 C561 1.414 . S
C560 C563 1.499 . S
C561 H535 0.950 . S
C561 C560 1.414 . S
C561 C562 1.374 . S
C562 H536 0.950 . S
C562 C558 1.385 . S
C562 C561 1.374 . S
C563 C560 1.499 . S
C563 C564 1.373 . S
C563 C565 1.389 . S
C564 H537 0.950 . S
C564 C550 1.377 . S
C564 C563 1.373 . S
C565 C549 1.377 . S
C565 C563 1.389 . S
C565 C566 1.524 . S
C566 C565 1.524 . S
C566 C567 1.397 . S
C566 C571 1.363 . S
C567 H538 0.950 . S
C567 C566 1.397 . S
C567 C568 1.334 . S
C568 H539 0.950 . S
C568 C567 1.334 . S
C568 C569 1.287 . S
C569 C568 1.287 . S
C569 C570 1.524 . S
C569 H572 0.999 . S
C570 H540 0.950 . S
C570 C569 1.524 . S
C570 C571 1.415 . S
C571 H541 0.950 . S
C571 C566 1.363 . S
C571 C570 1.415 . S
H572 C569 0.999 . S
H573 C554 0.913 . S
H574 C592 0.951 . S
H575 C594 0.951 . S
H576 C596 0.950 . S
H577 C597 0.950 . S
H578 C599 0.950 . S
H579 C602 0.950 . S
H580 C603 0.950 . S
H581 C605 0.950 . S
H582 C606 0.950 . S
H583 C607 0.951 . S
H584 C609 0.951 . S
H585 C611 0.950 . S
H586 C612 0.950 . S
H587 C614 0.950 . S
H588 C617 0.950 . S
H589 C618 0.950 . S
H590 C620 0.950 . S
H591 C621 0.950 . S
C592 H574 0.951 . S
C592 C593 1.366 . S
C592 C594 1.388 . S
C593 C592 1.366 . S
C593 C597 1.385 . S
C594 H575 0.951 . S
C594 C592 1.388 . S
C594 C595 1.366 . S
C595 C594 1.366 . S
C595 C596 1.414 . S
C595 C598 1.499 . S
C596 H576 0.950 . S
C596 C595 1.414 . S
C596 C597 1.374 . S
C597 H577 0.950 . S
C597 C593 1.385 . S
C597 C596 1.374 . S
C598 C595 1.499 . S
C598 C599 1.373 . S
C598 C600 1.389 . S
C599 H578 0.950 . S
C599 C598 1.373 . S
C599 C615 1.377 . S
C600 C598 1.389 . S
C600 C601 1.524 . S
C600 C614 1.377 . S
C601 C600 1.524 . S
C601 C602 1.397 . S
C601 C606 1.363 . S
C602 H579 0.950 . S
C602 C601 1.397 . S
C602 C603 1.334 . S
C603 H580 0.950 . S
C603 C602 1.334 . S
C603 C604 1.287 . S
C604 C603 1.287 . S
C604 C605 1.524 . S
C604 H623 0.913 . S
C605 H581 0.950 . S
C605 C604 1.524 . S
C605 C606 1.415 . S
C606 H582 0.950 . S
C606 C601 1.363 . S
C606 C605 1.415 . S
C607 H583 0.951 . S
C607 C608 1.366 . S
C607 C609 1.388 . S
C608 C607 1.366 . S
C608 C612 1.385 . S
C609 H584 0.951 . S
C609 C607 1.388 . S
C609 C610 1.366 . S
C610 C609 1.366 . S
C610 C611 1.414 . S
C610 C613 1.499 . S
C611 H585 0.950 . S
C611 C610 1.414 . S
C611 C612 1.374 . S
C612 H586 0.950 . S
C612 C608 1.385 . S
C612 C611 1.374 . S
C613 C610 1.499 . S
C613 C614 1.373 . S
C613 C615 1.389 . S
C614 H587 0.950 . S
C614 C600 1.377 . S
C614 C613 1.373 . S
C615 C599 1.377 . S
C615 C613 1.389 . S
C615 C616 1.524 . S
C616 C615 1.524 . S
C616 C617 1.397 . S
C616 C621 1.363 . S
C617 H588 0.950 . S
C617 C616 1.397 . S
C617 C618 1.334 . S
C618 H589 0.950 . S
C618 C617 1.334 . S
C618 C619 1.287 . S
C619 C618 1.287 . S
C619 C620 1.524 . S
C619 H622 0.999 . S
C620 H590 0.950 . S
C620 C619 1.524 . S
C620 C621 1.415 . S
C621 H591 0.950 . S
C621 C616 1.363 . S
C621 C620 1.415 . S
H622 C619 0.999 . S
H623 C604 0.913 . S
H624 C642 0.951 . S
H625 C644 0.951 . S
H626 C646 0.950 . S
H627 C647 0.950 . S
H628 C649 0.950 . S
H629 C652 0.950 . S
H630 C653 0.950 . S
H631 C655 0.950 . S
H632 C656 0.950 . S
H633 C657 0.951 . S
H634 C659 0.951 . S
H635 C661 0.950 . S
H636 C662 0.950 . S
H637 C664 0.950 . S
H638 C667 0.950 . S
H639 C668 0.950 . S
H640 C670 0.950 . S
H641 C671 0.950 . S
C642 H624 0.951 . S
C642 C643 1.366 . S
C642 C644 1.388 . S
C643 C642 1.366 . S
C643 C647 1.385 . S
C644 H625 0.951 . S
C644 C642 1.388 . S
C644 C645 1.366 . S
C645 C644 1.366 . S
C645 C646 1.414 . S
C645 C648 1.499 . S
C646 H626 0.950 . S
C646 C645 1.414 . S
C646 C647 1.374 . S
C647 H627 0.950 . S
C647 C643 1.385 . S
C647 C646 1.374 . S
C648 C645 1.499 . S
C648 C649 1.373 . S
C648 C650 1.389 . S
C649 H628 0.950 . S
C649 C648 1.373 . S
C649 C665 1.377 . S
C650 C648 1.389 . S
C650 C651 1.524 . S
C650 C664 1.377 . S
C651 C650 1.524 . S
C651 C652 1.397 . S
C651 C656 1.363 . S
C652 H629 0.950 . S
C652 C651 1.397 . S
C652 C653 1.334 . S
C653 H630 0.950 . S
C653 C652 1.334 . S
C653 C654 1.287 . S
C654 C653 1.287 . S
C654 C655 1.524 . S
C654 H673 0.913 . S
C655 H631 0.950 . S
C655 C654 1.524 . S
C655 C656 1.415 . S
C656 H632 0.950 . S
C656 C651 1.363 . S
C656 C655 1.415 . S
C657 H633 0.951 . S
C657 C658 1.366 . S
C657 C659 1.388 . S
C658 C657 1.366 . S
C658 C662 1.385 . S
C659 H634 0.951 . S
C659 C657 1.388 . S
C659 C660 1.366 . S
C660 C659 1.366 . S
C660 C661 1.414 . S
C660 C663 1.499 . S
C661 H635 0.950 . S
C661 C660 1.414 . S
C661 C662 1.374 . S
C662 H636 0.950 . S
C662 C658 1.385 . S
C662 C661 1.374 . S
C663 C660 1.499 . S
C663 C664 1.373 . S
C663 C665 1.389 . S
C664 H637 0.950 . S
C664 C650 1.377 . S
C664 C663 1.373 . S
C665 C649 1.377 . S
C665 C663 1.389 . S
C665 C666 1.524 . S
C666 C665 1.524 . S
C666 C667 1.397 . S
C666 C671 1.363 . S
C667 H638 0.950 . S
C667 C666 1.397 . S
C667 C668 1.334 . S
C668 H639 0.950 . S
C668 C667 1.334 . S
C668 C669 1.287 . S
C669 C668 1.287 . S
C669 C670 1.524 . S
C669 H672 0.999 . S
C670 H640 0.950 . S
C670 C669 1.524 . S
C670 C671 1.415 . S
C671 H641 0.950 . S
C671 C666 1.363 . S
C671 C670 1.415 . S
H672 C669 0.999 . S
H673 C654 0.913 . S
H674 C692 0.951 . S
H675 C694 0.951 . S
H676 C696 0.950 . S
H677 C697 0.950 . S
H678 C699 0.950 . S
H679 C702 0.950 . S
H680 C703 0.950 . S
H681 C705 0.950 . S
H682 C706 0.950 . S
H683 C707 0.951 . S
H684 C709 0.951 . S
H685 C711 0.950 . S
H686 C712 0.950 . S
H687 C714 0.950 . S
H688 C717 0.950 . S
H689 C718 0.950 . S
H690 C720 0.950 . S
H691 C721 0.950 . S
C692 H674 0.951 . S
C692 C693 1.366 . S
C692 C694 1.388 . S
C693 C692 1.366 . S
C693 C697 1.385 . S
C694 H675 0.951 . S
C694 C692 1.388 . S
C694 C695 1.366 . S
C695 C694 1.366 . S
C695 C696 1.414 . S
C695 C698 1.499 . S
C696 H676 0.950 . S
C696 C695 1.414 . S
C696 C697 1.374 . S
C697 H677 0.950 . S
C697 C693 1.385 . S
C697 C696 1.374 . S
C698 C695 1.499 . S
C698 C699 1.373 . S
C698 C700 1.389 . S
C699 H678 0.950 . S
C699 C698 1.373 . S
C699 C715 1.377 . S
C700 C698 1.389 . S
C700 C701 1.524 . S
C700 C714 1.377 . S
C701 C700 1.524 . S
C701 C702 1.397 . S
C701 C706 1.363 . S
C702 H679 0.950 . S
C702 C701 1.397 . S
C702 C703 1.334 . S
C703 H680 0.950 . S
C703 C702 1.334 . S
C703 C704 1.287 . S
C704 C703 1.287 . S
C704 C705 1.524 . S
C704 H723 0.913 . S
C705 H681 0.950 . S
C705 C704 1.524 . S
C705 C706 1.415 . S
C706 H682 0.950 . S
C706 C701 1.363 . S
C706 C705 1.415 . S
C707 H683 0.951 . S
C707 C708 1.366 . S
C707 C709 1.388 . S
C708 C707 1.366 . S
C708 C712 1.385 . S
C709 H684 0.951 . S
C709 C707 1.388 . S
C709 C710 1.366 . S
C710 C709 1.366 . S
C710 C711 1.414 . S
C710 C713 1.499 . S
C711 H685 0.950 . S
C711 C710 1.414 . S
C711 C712 1.374 . S
C712 H686 0.950 . S
C712 C708 1.385 . S
C712 C711 1.374 . S
C713 C710 1.499 . S
C713 C714 1.373 . S
C713 C715 1.389 . S
C714 H687 0.950 . S
C714 C700 1.377 . S
C714 C713 1.373 . S
C715 C699 1.377 . S
C715 C713 1.389 . S
C715 C716 1.524 . S
C716 C715 1.524 . S
C716 C717 1.397 . S
C716 C721 1.363 . S
C717 H688 0.950 . S
C717 C716 1.397 . S
C717 C718 1.334 . S
C718 H689 0.950 . S
C718 C717 1.334 . S
C718 C719 1.287 . S
C719 C718 1.287 . S
C719 C720 1.524 . S
C719 H722 0.999 . S
C720 H690 0.950 . S
C720 C719 1.524 . S
C720 C721 1.415 . S
C721 H691 0.950 . S
C721 C716 1.363 . S
C721 C720 1.415 . S
H722 C719 0.999 . S
H723 C704 0.913 . S
H724 C742 0.951 . S
H725 C744 0.951 . S
H726 C746 0.950 . S
H727 C747 0.950 . S
H728 C749 0.950 . S
H729 C752 0.950 . S
H730 C753 0.950 . S
H731 C755 0.950 . S
H732 C756 0.950 . S
H733 C757 0.951 . S
H734 C759 0.951 . S
H735 C761 0.950 . S
H736 C762 0.950 . S
H737 C764 0.950 . S
H738 C767 0.950 . S
H739 C768 0.950 . S
H740 C770 0.950 . S
H741 C771 0.950 . S
C742 H724 0.951 . S
C742 C743 1.366 . S
C742 C744 1.388 . S
C743 C742 1.366 . S
C743 C747 1.385 . S
C744 H725 0.951 . S
C744 C742 1.388 . S
C744 C745 1.366 . S
C745 C744 1.366 . S
C745 C746 1.414 . S
C745 C748 1.499 . S
C746 H726 0.950 . S
C746 C745 1.414 . S
C746 C747 1.374 . S
C747 H727 0.950 . S
C747 C743 1.385 . S
C747 C746 1.374 . S
C748 C745 1.499 . S
C748 C749 1.373 . S
C748 C750 1.389 . S
C749 H728 0.950 . S
C749 C748 1.373 . S
C749 C765 1.377 . S
C750 C748 1.389 . S
C750 C751 1.524 . S
C750 C764 1.377 . S
C751 C750 1.524 . S
C751 C752 1.397 . S
C751 C756 1.363 . S
C752 H729 0.950 . S
C752 C751 1.397 . S
C752 C753 1.334 . S
C753 H730 0.950 . S
C753 C752 1.334 . S
C753 C754 1.287 . S
C754 C753 1.287 . S
C754 C755 1.524 . S
C754 H773 0.913 . S
C755 H731 0.950 . S
C755 C754 1.524 . S
C755 C756 1.415 . S
C756 H732 0.950 . S
C756 C751 1.363 . S
C756 C755 1.415 . S
C757 H733 0.951 . S
C757 C758 1.366 . S
C757 C759 1.388 . S
C758 C757 1.366 . S
C758 C762 1.385 . S
C759 H734 0.951 . S
C759 C757 1.388 . S
C759 C760 1.366 . S
C760 C759 1.366 . S
C760 C761 1.414 . S
C760 C763 1.499 . S
C761 H735 0.950 . S
C761 C760 1.414 . S
C761 C762 1.374 . S
C762 H736 0.950 . S
C762 C758 1.385 . S
C762 C761 1.374 . S
C763 C760 1.499 . S
C763 C764 1.373 . S
C763 C765 1.389 . S
C764 H737 0.950 . S
C764 C750 1.377 . S
C764 C763 1.373 . S
C765 C749 1.377 . S
C765 C763 1.389 . S
C765 C766 1.524 . S
C766 C765 1.524 . S
C766 C767 1.397 . S
C766 C771 1.363 . S
C767 H738 0.950 . S
C767 C766 1.397 . S
C767 C768 1.334 . S
C768 H739 0.950 . S
C768 C767 1.334 . S
C768 C769 1.287 . S
C769 C768 1.287 . S
C769 C770 1.524 . S
C769 H772 0.999 . S
C770 H740 0.950 . S
C770 C769 1.524 . S
C770 C771 1.415 . S
C771 H741 0.950 . S
C771 C766 1.363 . S
C771 C770 1.415 . S
H772 C769 0.999 . S
H773 C754 0.913 . S
H774 C792 0.951 . S
H775 C794 0.951 . S
H776 C796 0.950 . S
H777 C797 0.950 . S
H778 C799 0.950 . S
H779 C802 0.950 . S
H780 C803 0.950 . S
H781 C805 0.950 . S
H782 C806 0.950 . S
H783 C807 0.951 . S
H784 C809 0.951 . S
H785 C811 0.950 . S
H786 C812 0.950 . S
H787 C814 0.950 . S
H788 C817 0.950 . S
H789 C818 0.950 . S
H790 C820 0.950 . S
H791 C821 0.950 . S
C792 H774 0.951 . S
C792 C793 1.366 . S
C792 C794 1.388 . S
C793 C792 1.366 . S
C793 C797 1.385 . S
C794 H775 0.951 . S
C794 C792 1.388 . S
C794 C795 1.366 . S
C795 C794 1.366 . S
C795 C796 1.414 . S
C795 C798 1.499 . S
C796 H776 0.950 . S
C796 C795 1.414 . S
C796 C797 1.374 . S
C797 H777 0.950 . S
C797 C793 1.385 . S
C797 C796 1.374 . S
C798 C795 1.499 . S
C798 C799 1.373 . S
C798 C800 1.389 . S
C799 H778 0.950 . S
C799 C798 1.373 . S
C799 C815 1.377 . S
C800 C798 1.389 . S
C800 C801 1.524 . S
C800 C814 1.377 . S
C801 C800 1.524 . S
C801 C802 1.397 . S
C801 C806 1.363 . S
C802 H779 0.950 . S
C802 C801 1.397 . S
C802 C803 1.334 . S
C803 H780 0.950 . S
C803 C802 1.334 . S
C803 C804 1.287 . S
C804 C803 1.287 . S
C804 C805 1.524 . S
C804 H823 0.913 . S
C805 H781 0.950 . S
C805 C804 1.524 . S
C805 C806 1.415 . S
C806 H782 0.950 . S
C806 C801 1.363 . S
C806 C805 1.415 . S
C807 H783 0.951 . S
C807 C808 1.366 . S
C807 C809 1.388 . S
C808 C807 1.366 . S
C808 C812 1.385 . S
C809 H784 0.951 . S
C809 C807 1.388 . S
C809 C810 1.366 . S
C810 C809 1.366 . S
C810 C811 1.414 . S
C810 C813 1.499 . S
C811 H785 0.950 . S
C811 C810 1.414 . S
C811 C812 1.374 . S
C812 H786 0.950 . S
C812 C808 1.385 . S
C812 C811 1.374 . S
C813 C810 1.499 . S
C813 C814 1.373 . S
C813 C815 1.389 . S
C814 H787 0.950 . S
C814 C800 1.377 . S
C814 C813 1.373 . S
C815 C799 1.377 . S
C815 C813 1.389 . S
C815 C816 1.524 . S
C816 C815 1.524 . S
C816 C817 1.397 . S
C816 C821 1.363 . S
C817 H788 0.950 . S
C817 C816 1.397 . S
C817 C818 1.334 . S
C818 H789 0.950 . S
C818 C817 1.334 . S
C818 C819 1.287 . S
C819 C818 1.287 . S
C819 C820 1.524 . S
C819 H822 0.999 . S
C820 H790 0.950 . S
C820 C819 1.524 . S
C820 C821 1.415 . S
C821 H791 0.950 . S
C821 C816 1.363 . S
C821 C820 1.415 . S
H822 C819 0.999 . S
H823 C804 0.913 . S
H824 C842 0.951 . S
H825 C844 0.951 . S
H826 C846 0.950 . S
H827 C847 0.950 . S
H828 C849 0.950 . S
H829 C852 0.950 . S
H830 C853 0.950 . S
H831 C855 0.950 . S
H832 C856 0.950 . S
H833 C857 0.951 . S
H834 C859 0.951 . S
H835 C861 0.950 . S
H836 C862 0.950 . S
H837 C864 0.950 . S
H838 C867 0.950 . S
H839 C868 0.950 . S
H840 C870 0.950 . S
H841 C871 0.950 . S
C842 H824 0.951 . S
C842 C843 1.366 . S
C842 C844 1.388 . S
C843 C842 1.366 . S
C843 C847 1.385 . S
C844 H825 0.951 . S
C844 C842 1.388 . S
C844 C845 1.366 . S
C845 C844 1.366 . S
C845 C846 1.414 . S
C845 C848 1.499 . S
C846 H826 0.950 . S
C846 C845 1.414 . S
C846 C847 1.374 . S
C847 H827 0.950 . S
C847 C843 1.385 . S
C847 C846 1.374 . S
C848 C845 1.499 . S
C848 C849 1.373 . S
C848 C850 1.389 . S
C849 H828 0.950 . S
C849 C848 1.373 . S
C849 C865 1.377 . S
C850 C848 1.389 . S
C850 C851 1.524 . S
C850 C864 1.377 . S
C851 C850 1.524 . S
C851 C852 1.397 . S
C851 C856 1.363 . S
C852 H829 0.950 . S
C852 C851 1.397 . S
C852 C853 1.334 . S
C853 H830 0.950 . S
C853 C852 1.334 . S
C853 C854 1.287 . S
C854 C853 1.287 . S
C854 C855 1.524 . S
C854 H873 0.913 . S
C855 H831 0.950 . S
C855 C854 1.524 . S
C855 C856 1.415 . S
C856 H832 0.950 . S
C856 C851 1.363 . S
C856 C855 1.415 . S
C857 H833 0.951 . S
C857 C858 1.366 . S
C857 C859 1.388 . S
C858 C857 1.366 . S
C858 C862 1.385 . S
C859 H834 0.951 . S
C859 C857 1.388 . S
C859 C860 1.366 . S
C860 C859 1.366 . S
C860 C861 1.414 . S
C860 C863 1.499 . S
C861 H835 0.950 . S
C861 C860 1.414 . S
C861 C862 1.374 . S
C862 H836 0.950 . S
C862 C858 1.385 . S
C862 C861 1.374 . S
C863 C860 1.499 . S
C863 C864 1.373 . S
C863 C865 1.389 . S
C864 H837 0.950 . S
C864 C850 1.377 . S
C864 C863 1.373 . S
C865 C849 1.377 . S
C865 C863 1.389 . S
C865 C866 1.524 . S
C866 C865 1.524 . S
C866 C867 1.397 . S
C866 C871 1.363 . S
C867 H838 0.950 . S
C867 C866 1.397 . S
C867 C868 1.334 . S
C868 H839 0.950 . S
C868 C867 1.334 . S
C868 C869 1.287 . S
C869 C868 1.287 . S
C869 C870 1.524 . S
C869 H872 0.999 . S
C870 H840 0.950 . S
C870 C869 1.524 . S
C870 C871 1.415 . S
C871 H841 0.950 . S
C871 C866 1.363 . S
C871 C870 1.415 . S
H872 C869 0.999 . S
H873 C854 0.913 . S
H874 C892 0.951 . S
H875 C894 0.951 . S
H876 C896 0.950 . S
H877 C897 0.950 . S
H878 C899 0.950 . S
H879 C902 0.950 . S
H880 C903 0.950 . S
H881 C905 0.950 . S
H882 C906 0.950 . S
H883 C907 0.951 . S
H884 C909 0.951 . S
H885 C911 0.950 . S
H886 C912 0.950 . S
H887 C914 0.950 . S
H888 C917 0.950 . S
H889 C918 0.950 . S
H890 C920 0.950 . S
H891 C921 0.950 . S
C892 H874 0.951 . S
C892 C893 1.366 . S
C892 C894 1.388 . S
C893 C892 1.366 . S
C893 C897 1.385 . S
C894 H875 0.951 . S
C894 C892 1.388 . S
C894 C895 1.366 . S
C895 C894 1.366 . S
C895 C896 1.414 . S
C895 C898 1.499 . S
C896 H876 0.950 . S
C896 C895 1.414 . S
C896 C897 1.374 . S
C897 H877 0.950 . S
C897 C893 1.385 . S
C897 C896 1.374 . S
C898 C895 1.499 . S
C898 C899 1.373 . S
C898 C900 1.389 . S
C899 H878 0.950 . S
C899 C898 1.373 . S
C899 C915 1.377 . S
C900 C898 1.389 . S
C900 C901 1.524 . S
C900 C914 1.377 . S
C901 C900 1.524 . S
C901 C902 1.397 . S
C901 C906 1.363 . S
C902 H879 0.950 . S
C902 C901 1.397 . S
C902 C903 1.334 . S
C903 H880 0.950 . S
C903 C902 1.334 . S
C903 C904 1.287 . S
C904 C903 1.287 . S
C904 C905 1.524 . S
C904 H923 0.913 . S
C905 H881 0.950 . S
C905 C904 1.524 . S
C905 C906 1.415 . S
C906 H882 0.950 . S
C906 C901 1.363 . S
C906 C905 1.415 . S
C907 H883 0.951 . S
C907 C908 1.366 . S
C907 C909 1.388 . S
C908 C907 1.366 . S
C908 C912 1.385 . S
C909 H884 0.951 . S
C909 C907 1.388 . S
C909 C910 1.366 . S
C910 C909 1.366 . S
C910 C911 1.414 . S
C910 C913 1.499 . S
C911 H885 0.950 . S
C911 C910 1.414 . S
C911 C912 1.374 . S
C912 H886 0.950 . S
C912 C908 1.385 . S
C912 C911 1.374 . S
C913 C910 1.499 . S
C913 C914 1.373 . S
C913 C915 1.389 . S
C914 H887 0.950 . S
C914 C900 1.377 . S
C914 C913 1.373 . S
C915 C899 1.377 . S
C915 C913 1.389 . S
C915 C916 1.524 . S
C916 C915 1.524 . S
C916 C917 1.397 . S
C916 C921 1.363 . S
C917 H888 0.950 . S
C917 C916 1.397 . S
C917 C918 1.334 . S
C918 H889 0.950 . S
C918 C917 1.334 . S
C918 C919 1.287 . S
C919 C918 1.287 . S
C919 C920 1.524 . S
C919 H922 0.999 . S
C920 H890 0.950 . S
C920 C919 1.524 . S
C920 C921 1.415 . S
C921 H891 0.950 . S
C921 C916 1.363 . S
C921 C920 1.415 . S
H922 C919 0.999 . S
H923 C904 0.913 . S
H924 C942 0.951 . S
H925 C944 0.951 . S
H926 C946 0.950 . S
H927 C947 0.950 . S
H928 C949 0.950 . S
H929 C952 0.950 . S
H930 C953 0.950 . S
H931 C955 0.950 . S
H932 C956 0.950 . S
H933 C957 0.951 . S
H934 C959 0.951 . S
H935 C961 0.950 . S
H936 C962 0.950 . S
H937 C964 0.950 . S
H938 C967 0.950 . S
H939 C968 0.950 . S
H940 C970 0.950 . S
H941 C971 0.950 . S
C942 H924 0.951 . S
C942 C943 1.366 . S
C942 C944 1.388 . S
C943 C942 1.366 . S
C943 C947 1.385 . S
C944 H925 0.951 . S
C944 C942 1.388 . S
C944 C945 1.366 . S
C945 C944 1.366 . S
C945 C946 1.414 . S
C945 C948 1.499 . S
C946 H926 0.950 . S
C946 C945 1.414 . S
C946 C947 1.374 . S
C947 H927 0.950 . S
C947 C943 1.385 . S
C947 C946 1.374 . S
C948 C945 1.499 . S
C948 C949 1.373 . S
C948 C950 1.389 . S
C949 H928 0.950 . S
C949 C948 1.373 . S
C949 C965 1.377 . S
C950 C948 1.389 . S
C950 C951 1.524 . S
C950 C964 1.377 . S
C951 C950 1.524 . S
C951 C952 1.397 . S
C951 C956 1.363 . S
C952 H929 0.950 . S
C952 C951 1.397 . S
C952 C953 1.334 . S
C953 H930 0.950 . S
C953 C952 1.334 . S
C953 C954 1.287 . S
C954 C953 1.287 . S
C954 C955 1.524 . S
C954 H973 0.913 . S
C955 H931 0.950 . S
C955 C954 1.524 . S
C955 C956 1.415 . S
C956 H932 0.950 . S
C956 C951 1.363 . S
C956 C955 1.415 . S
C957 H933 0.951 . S
C957 C958 1.366 . S
C957 C959 1.388 . S
C958 C957 1.366 . S
C958 C962 1.385 . S
C959 H934 0.951 . S
C959 C957 1.388 . S
C959 C960 1.366 . S
C960 C959 1.366 . S
C960 C961 1.414 . S
C960 C963 1.499 . S
C961 H935 0.950 . S
C961 C960 1.414 . S
C961 C962 1.374 . S
C962 H936 0.950 . S
C962 C958 1.385 . S
C962 C961 1.374 . S
C963 C960 1.499 . S
C963 C964 1.373 . S
C963 C965 1.389 . S
C964 H937 0.950 . S
C964 C950 1.377 . S
C964 C963 1.373 . S
C965 C949 1.377 . S
C965 C963 1.389 . S
C965 C966 1.524 . S
C966 C965 1.524 . S
C966 C967 1.397 . S
C966 C971 1.363 . S
C967 H938 0.950 . S
C967 C966 1.397 . S
C967 C968 1.334 . S
C968 H939 0.950 . S
C968 C967 1.334 . S
C968 C969 1.287 . S
C969 C968 1.287 . S
C969 C970 1.524 . S
C969 H972 0.999 . S
C970 H940 0.950 . S
C970 C969 1.524 . S
C970 C971 1.415 . S
C971 H941 0.950 . S
C971 C966 1.363 . S
C971 C970 1.415 . S
H972 C969 0.999 . S
H973 C954 0.913 . S
H974 C992 0.951 . S
H975 C994 0.951 . S
H976 C996 0.950 . S
H977 C997 0.950 . S
H978 C999 0.950 . S
H979 C1002 0.950 . S
H980 C1003 0.950 . S
H981 C1005 0.950 . S
H982 C1006 0.950 . S
H983 C1007 0.951 . S
H984 C1009 0.951 . S
H985 C1011 0.950 . S
H986 C1012 0.950 . S
H987 C1014 0.950 . S
H988 C1017 0.950 . S
H989 C1018 0.950 . S
H990 C1020 0.950 . S
H991 C1021 0.950 . S
C992 H974 0.951 . S
C992 C993 1.366 . S
C992 C994 1.388 . S
C993 C992 1.366 . S
C993 C997 1.385 . S
C994 H975 0.951 . S
C994 C992 1.388 . S
C994 C995 1.366 . S
C995 C994 1.366 . S
C995 C996 1.414 . S
C995 C998 1.499 . S
C996 H976 0.950 . S
C996 C995 1.414 . S
C996 C997 1.374 . S
C997 H977 0.950 . S
C997 C993 1.385 . S
C997 C996 1.374 . S
C998 C995 1.499 . S
C998 C999 1.373 . S
C998 C1000 1.389 . S
C999 H978 0.950 . S
C999 C998 1.373 . S
C999 C1015 1.377 . S
C1000 C998 1.389 . S
C1000 C1001 1.524 . S
C1000 C1014 1.377 . S
C1001 C1000 1.524 . S
C1001 C1002 1.397 . S
C1001 C1006 1.363 . S
C1002 H979 0.950 . S
C1002 C1001 1.397 . S
C1002 C1003 1.334 . S
C1003 H980 0.950 . S
C1003 C1002 1.334 . S
C1003 C1004 1.287 . S
C1004 C1003 1.287 . S
C1004 C1005 1.524 . S
C1004 H1023 0.913 . S
C1005 H981 0.950 . S
C1005 C1004 1.524 . S
C1005 C1006 1.415 . S
C1006 H982 0.950 . S
C1006 C1001 1.363 . S
C1006 C1005 1.415 . S
C1007 H983 0.951 . S
C1007 C1008 1.366 . S
C1007 C1009 1.388 . S
C1008 C1007 1.366 . S
C1008 C1012 1.385 . S
C1009 H984 0.951 . S
C1009 C1007 1.388 . S
C1009 C1010 1.366 . S
C1010 C1009 1.366 . S
C1010 C1011 1.414 . S
C1010 C1013 1.499 . S
C1011 H985 0.950 . S
C1011 C1010 1.414 . S
C1011 C1012 1.374 . S
C1012 H986 0.950 . S
C1012 C1008 1.385 . S
C1012 C1011 1.374 . S
C1013 C1010 1.499 . S
C1013 C1014 1.373 . S
C1013 C1015 1.389 . S
C1014 H987 0.950 . S
C1014 C1000 1.377 . S
C1014 C1013 1.373 . S
C1015 C999 1.377 . S
C1015 C1013 1.389 . S
C1015 C1016 1.524 . S
C1016 C1015 1.524 . S
C1016 C1017 1.397 . S
C1016 C1021 1.363 . S
C1017 H988 0.950 . S
C1017 C1016 1.397 . S
C1017 C1018 1.334 . S
C1018 H989 0.950 . S
C1018 C1017 1.334 . S
C1018 C1019 1.287 . S
C1019 C1018 1.287 . S
C1019 C1020 1.524 . S
C1019 H1022 0.999 . S
C1020 H990 0.950 . S
C1020 C1019 1.524 . S
C1020 C1021 1.415 . S
C1021 H991 0.950 . S
C1021 C1016 1.363 . S
C1021 C1020 1.415 . S
H1022 C1019 0.999 . S
H1023 C1004 0.913 . S
H1024 C1042 0.951 . S
H1025 C1044 0.951 1_554 S
H1026 C1046 0.950 . S
H1027 C1047 0.950 . S
H1028 C1049 0.950 . S
H1029 C1052 0.969 . S
H1030 C1053 0.950 1_556 S
H1031 C1055 0.950 . S
H1032 C1056 0.950 . S
H1033 C1057 0.951 . S
H1034 C1059 0.951 1_556 S
H1035 C1061 0.950 . S
H1036 C1062 0.950 . S
H1037 C1064 0.950 . S
H1038 C1067 0.948 1_554 S
H1039 C1068 0.950 1_554 S
H1040 C1070 0.950 . S
H1041 C1071 0.950 . S
C1042 H1024 0.951 . S
C1042 C1043 1.366 . S
C1042 C1044 1.388 . S
C1043 C1042 1.366 . S
C1043 C1047 1.385 . S
C1044 H1025 0.951 1_556 S
C1044 C1042 1.388 . S
C1044 C1045 1.366 . S
C1045 C1044 1.366 . S
C1045 C1046 1.414 . S
C1045 C1048 1.499 . S
C1046 H1026 0.950 . S
C1046 C1045 1.414 . S
C1046 C1047 1.374 . S
C1047 H1027 0.950 . S
C1047 C1043 1.385 . S
C1047 C1046 1.374 . S
C1048 C1045 1.499 . S
C1048 C1049 1.373 . S
C1048 C1050 1.389 1_556 S
C1049 H1028 0.950 . S
C1049 C1048 1.373 . S
C1049 C1065 1.377 . S
C1050 C1048 1.389 1_554 S
C1050 C1051 1.524 . S
C1050 C1064 1.377 . S
C1051 C1050 1.524 . S
C1051 C1052 1.383 1_554 S
C1051 C1056 1.363 . S
C1052 H1029 0.969 . S
C1052 C1051 1.383 1_556 S
C1052 C1053 1.329 1_556 S
C1053 H1030 0.950 1_554 S
C1053 C1052 1.329 1_554 S
C1053 C1054 1.287 . S
C1054 C1053 1.287 . S
C1054 C1055 1.524 . S
C1054 H1073 0.913 . S
C1055 H1031 0.950 . S
C1055 C1054 1.524 . S
C1055 C1056 1.415 . S
C1056 H1032 0.950 . S
C1056 C1051 1.363 . S
C1056 C1055 1.415 . S
C1057 H1033 0.951 . S
C1057 C1058 1.366 . S
C1057 C1059 1.388 . S
C1058 C1057 1.366 . S
C1058 C1062 1.385 . S
C1059 H1034 0.951 1_554 S
C1059 C1057 1.388 . S
C1059 C1060 1.366 . S
C1060 C1059 1.366 . S
C1060 C1061 1.414 . S
C1060 C1063 1.499 . S
C1061 H1035 0.950 . S
C1061 C1060 1.414 . S
C1061 C1062 1.374 . S
C1062 H1036 0.950 . S
C1062 C1058 1.385 . S
C1062 C1061 1.374 . S
C1063 C1060 1.499 . S
C1063 C1064 1.373 . S
C1063 C1065 1.389 1_554 S
C1064 H1037 0.950 . S
C1064 C1050 1.377 . S
C1064 C1063 1.373 . S
C1065 C1049 1.377 . S
C1065 C1063 1.389 1_556 S
C1065 C1066 1.524 . S
C1066 C1065 1.524 . S
C1066 C1067 1.398 . S
C1066 C1071 1.363 . S
C1067 H1038 0.948 1_556 S
C1067 C1066 1.398 . S
C1067 C1068 1.335 . S
C1068 H1039 0.950 1_556 S
C1068 C1067 1.335 . S
C1068 C1069 1.287 . S
C1069 C1068 1.287 . S
C1069 C1070 1.524 . S
C1069 H1072 0.999 . S
C1070 H1040 0.950 . S
C1070 C1069 1.524 . S
C1070 C1071 1.415 . S
C1071 H1041 0.950 . S
C1071 C1066 1.363 . S
C1071 C1070 1.415 . S
H1072 C1069 0.999 . S
H1073 C1054 0.913 . S
H1074 C1092 0.951 . S
H1075 C1094 0.951 . S
H1076 C1096 0.950 . S
H1077 C1097 0.950 . S
H1078 C1099 0.950 . S
H1079 C1102 0.950 . S
H1080 C1103 0.950 . S
H1081 C1105 0.950 . S
H1082 C1106 0.950 . S
H1083 C1107 0.951 . S
H1084 C1109 0.951 . S
H1085 C1111 0.950 . S
H1086 C1112 0.950 . S
H1087 C1114 0.950 . S
H1088 C1117 0.950 . S
H1089 C1118 0.950 . S
H1090 C1120 0.950 . S
H1091 C1121 0.950 . S
C1092 H1074 0.951 . S
C1092 C1093 1.366 . S
C1092 C1094 1.388 . S
C1093 C1092 1.366 . S
C1093 C1097 1.385 . S
C1094 H1075 0.951 . S
C1094 C1092 1.388 . S
C1094 C1095 1.366 . S
C1095 C1094 1.366 . S
C1095 C1096 1.414 . S
C1095 C1098 1.499 . S
C1096 H1076 0.950 . S
C1096 C1095 1.414 . S
C1096 C1097 1.374 . S
C1097 H1077 0.950 . S
C1097 C1093 1.385 . S
C1097 C1096 1.374 . S
C1098 C1095 1.499 . S
C1098 C1099 1.373 . S
C1098 C1100 1.389 . S
C1099 H1078 0.950 . S
C1099 C1098 1.373 . S
C1099 C1115 1.377 . S
C1100 C1098 1.389 . S
C1100 C1101 1.524 . S
C1100 C1114 1.377 . S
C1101 C1100 1.524 . S
C1101 C1102 1.397 . S
C1101 C1106 1.363 . S
C1102 H1079 0.950 . S
C1102 C1101 1.397 . S
C1102 C1103 1.334 . S
C1103 H1080 0.950 . S
C1103 C1102 1.334 . S
C1103 C1104 1.287 . S
C1104 C1103 1.287 . S
C1104 C1105 1.524 . S
C1104 H1123 0.913 . S
C1105 H1081 0.950 . S
C1105 C1104 1.524 . S
C1105 C1106 1.415 . S
C1106 H1082 0.950 . S
C1106 C1101 1.363 . S
C1106 C1105 1.415 . S
C1107 H1083 0.951 . S
C1107 C1108 1.366 . S
C1107 C1109 1.388 . S
C1108 C1107 1.366 . S
C1108 C1112 1.385 . S
C1109 H1084 0.951 . S
C1109 C1107 1.388 . S
C1109 C1110 1.366 . S
C1110 C1109 1.366 . S
C1110 C1111 1.414 . S
C1110 C1113 1.499 . S
C1111 H1085 0.950 . S
C1111 C1110 1.414 . S
C1111 C1112 1.374 . S
C1112 H1086 0.950 . S
C1112 C1108 1.385 . S
C1112 C1111 1.374 . S
C1113 C1110 1.499 . S
C1113 C1114 1.373 . S
C1113 C1115 1.389 . S
C1114 H1087 0.950 . S
C1114 C1100 1.377 . S
C1114 C1113 1.373 . S
C1115 C1099 1.377 . S
C1115 C1113 1.389 . S
C1115 C1116 1.524 . S
C1116 C1115 1.524 . S
C1116 C1117 1.397 . S
C1116 C1121 1.363 . S
C1117 H1088 0.950 . S
C1117 C1116 1.397 . S
C1117 C1118 1.334 . S
C1118 H1089 0.950 . S
C1118 C1117 1.334 . S
C1118 C1119 1.287 . S
C1119 C1118 1.287 . S
C1119 C1120 1.524 . S
C1119 H1122 0.999 . S
C1120 H1090 0.950 . S
C1120 C1119 1.524 . S
C1120 C1121 1.415 . S
C1121 H1091 0.950 . S
C1121 C1116 1.363 . S
C1121 C1120 1.415 . S
H1122 C1119 0.999 . S
H1123 C1104 0.913 . S
H1124 C1142 0.951 . S
H1125 C1144 0.951 . S
H1126 C1146 0.950 . S
H1127 C1147 0.950 . S
H1128 C1149 0.950 . S
H1129 C1152 0.950 . S
H1130 C1153 0.950 . S
H1131 C1155 0.950 . S
H1132 C1156 0.950 . S
H1133 C1157 0.951 . S
H1134 C1159 0.951 . S
H1135 C1161 0.950 . S
H1136 C1162 0.950 . S
H1137 C1164 0.950 . S
H1138 C1167 0.950 . S
H1139 C1168 0.950 . S
H1140 C1170 0.950 . S
H1141 C1171 0.950 . S
C1142 H1124 0.951 . S
C1142 C1143 1.366 . S
C1142 C1144 1.388 . S
C1143 C1142 1.366 . S
C1143 C1147 1.385 . S
C1144 H1125 0.951 . S
C1144 C1142 1.388 . S
C1144 C1145 1.366 . S
C1145 C1144 1.366 . S
C1145 C1146 1.414 . S
C1145 C1148 1.499 . S
C1146 H1126 0.950 . S
C1146 C1145 1.414 . S
C1146 C1147 1.374 . S
C1147 H1127 0.950 . S
C1147 C1143 1.385 . S
C1147 C1146 1.374 . S
C1148 C1145 1.499 . S
C1148 C1149 1.392 . S
C1148 C1150 1.389 . S
C1149 H1128 0.950 . S
C1149 C1148 1.392 . S
C1149 C1165 1.358 1_554 S
C1150 C1148 1.389 . S
C1150 C1151 1.524 . S
C1150 C1164 1.376 1_554 S
C1151 C1150 1.524 . S
C1151 C1152 1.397 . S
C1151 C1156 1.363 . S
C1152 H1129 0.950 . S
C1152 C1151 1.397 . S
C1152 C1153 1.334 . S
C1153 H1130 0.950 . S
C1153 C1152 1.334 . S
C1153 C1154 1.287 . S
C1154 C1153 1.287 . S
C1154 C1155 1.524 . S
C1154 H1173 0.913 . S
C1155 H1131 0.950 . S
C1155 C1154 1.524 . S
C1155 C1156 1.415 . S
C1156 H1132 0.950 . S
C1156 C1151 1.363 . S
C1156 C1155 1.415 . S
C1157 H1133 0.951 . S
C1157 C1158 1.366 . S
C1157 C1159 1.388 . S
C1158 C1157 1.366 . S
C1158 C1162 1.385 . S
C1159 H1134 0.951 . S
C1159 C1157 1.388 . S
C1159 C1160 1.366 . S
C1160 C1159 1.366 . S
C1160 C1161 1.414 . S
C1160 C1163 1.499 . S
C1161 H1135 0.950 . S
C1161 C1160 1.414 . S
C1161 C1162 1.374 . S
C1162 H1136 0.950 . S
C1162 C1158 1.385 . S
C1162 C1161 1.374 . S
C1163 C1160 1.499 . S
C1163 C1164 1.374 . S
C1163 C1165 1.389 . S
C1164 H1137 0.950 . S
C1164 C1150 1.376 1_556 S
C1164 C1163 1.374 . S
C1165 C1149 1.358 1_556 S
C1165 C1163 1.389 . S
C1165 C1166 1.524 . S
C1166 C1165 1.524 . S
C1166 C1167 1.397 . S
C1166 C1171 1.363 . S
C1167 H1138 0.950 . S
C1167 C1166 1.397 . S
C1167 C1168 1.334 . S
C1168 H1139 0.950 . S
C1168 C1167 1.334 . S
C1168 C1169 1.287 . S
C1169 C1168 1.287 . S
C1169 C1170 1.524 . S
C1169 H1172 0.999 . S
C1170 H1140 0.950 . S
C1170 C1169 1.524 . S
C1170 C1171 1.415 . S
C1171 H1141 0.950 . S
C1171 C1166 1.363 . S
C1171 C1170 1.415 . S
H1172 C1169 0.999 . S
H1173 C1154 0.913 . S
H1174 C1192 0.951 . S
H1175 C1194 0.951 . S
H1176 C1196 0.950 . S
H1177 C1197 0.950 . S
H1178 C1199 0.950 . S
H1179 C1202 0.950 . S
H1180 C1203 0.950 . S
H1181 C1205 0.950 . S
H1182 C1206 0.950 . S
H1183 C1207 0.951 . S
H1184 C1209 0.951 . S
H1185 C1211 0.950 . S
H1186 C1212 0.950 . S
H1187 C1214 0.950 . S
H1188 C1217 0.950 . S
H1189 C1218 0.950 . S
H1190 C1220 0.950 . S
H1191 C1221 0.950 . S
C1192 H1174 0.951 . S
C1192 C1193 1.366 . S
C1192 C1194 1.388 . S
C1193 C1192 1.366 . S
C1193 C1197 1.385 . S
C1194 H1175 0.951 . S
C1194 C1192 1.388 . S
C1194 C1195 1.366 . S
C1195 C1194 1.366 . S
C1195 C1196 1.414 . S
C1195 C1198 1.499 . S
C1196 H1176 0.950 . S
C1196 C1195 1.414 . S
C1196 C1197 1.374 . S
C1197 H1177 0.950 . S
C1197 C1193 1.385 . S
C1197 C1196 1.374 . S
C1198 C1195 1.499 . S
C1198 C1199 1.373 . S
C1198 C1200 1.389 . S
C1199 H1178 0.950 . S
C1199 C1198 1.373 . S
C1199 C1215 1.377 . S
C1200 C1198 1.389 . S
C1200 C1201 1.524 . S
C1200 C1214 1.377 . S
C1201 C1200 1.524 . S
C1201 C1202 1.397 . S
C1201 C1206 1.363 . S
C1202 H1179 0.950 . S
C1202 C1201 1.397 . S
C1202 C1203 1.334 . S
C1203 H1180 0.950 . S
C1203 C1202 1.334 . S
C1203 C1204 1.287 . S
C1204 C1203 1.287 . S
C1204 C1205 1.524 . S
C1204 H1223 0.913 . S
C1205 H1181 0.950 . S
C1205 C1204 1.524 . S
C1205 C1206 1.415 . S
C1206 H1182 0.950 . S
C1206 C1201 1.363 . S
C1206 C1205 1.415 . S
C1207 H1183 0.951 . S
C1207 C1208 1.366 . S
C1207 C1209 1.388 . S
C1208 C1207 1.366 . S
C1208 C1212 1.385 . S
C1209 H1184 0.951 . S
C1209 C1207 1.388 . S
C1209 C1210 1.366 . S
C1210 C1209 1.366 . S
C1210 C1211 1.414 . S
C1210 C1213 1.499 . S
C1211 H1185 0.950 . S
C1211 C1210 1.414 . S
C1211 C1212 1.374 . S
C1212 H1186 0.950 . S
C1212 C1208 1.385 . S
C1212 C1211 1.374 . S
C1213 C1210 1.499 . S
C1213 C1214 1.373 . S
C1213 C1215 1.389 . S
C1214 H1187 0.950 . S
C1214 C1200 1.377 . S
C1214 C1213 1.373 . S
C1215 C1199 1.377 . S
C1215 C1213 1.389 . S
C1215 C1216 1.524 . S
C1216 C1215 1.524 . S
C1216 C1217 1.397 . S
C1216 C1221 1.363 . S
C1217 H1188 0.950 . S
C1217 C1216 1.397 . S
C1217 C1218 1.334 . S
C1218 H1189 0.950 . S
C1218 C1217 1.334 . S
C1218 C1219 1.287 . S
C1219 C1218 1.287 . S
C1219 C1220 1.524 . S
C1219 H1222 0.999 . S
C1220 H1190 0.950 . S
C1220 C1219 1.524 . S
C1220 C1221 1.415 . S
C1221 H1191 0.950 . S
C1221 C1216 1.363 . S
C1221 C1220 1.415 . S
H1222 C1219 0.999 . S
H1223 C1204 0.913 . S
H1224 C1242 0.951 . S
H1225 C1244 0.951 . S
H1226 C1246 0.950 1_556 S
H1227 C1247 0.950 . S
H1228 C1249 0.950 . S
H1229 C1252 0.950 . S
H1230 C1253 0.950 . S
H1231 C1255 0.950 . S
H1232 C1256 0.950 . S
H1233 C1257 0.951 . S
H1234 C1259 0.951 . S
H1235 C1261 0.950 1_554 S
H1236 C1262 0.950 . S
H1237 C1264 0.950 . S
H1238 C1267 0.950 . S
H1239 C1268 0.950 . S
H1240 C1270 0.950 . S
H1241 C1271 0.950 . S
C1242 H1224 0.951 . S
C1242 C1243 1.366 . S
C1242 C1244 1.388 . S
C1243 C1242 1.366 . S
C1243 C1247 1.385 . S
C1244 H1225 0.951 . S
C1244 C1242 1.388 . S
C1244 C1245 1.366 . S
C1245 C1244 1.366 . S
C1245 C1246 1.414 . S
C1245 C1248 1.499 . S
C1246 H1226 0.950 1_554 S
C1246 C1245 1.414 . S
C1246 C1247 1.374 . S
C1247 H1227 0.950 . S
C1247 C1243 1.385 . S
C1247 C1246 1.374 . S
C1248 C1245 1.499 . S
C1248 C1249 1.373 1_554 S
C1248 C1250 1.389 . S
C1249 H1228 0.950 . S
C1249 C1248 1.373 1_556 S
C1249 C1265 1.377 . S
C1250 C1248 1.389 . S
C1250 C1251 1.524 . S
C1250 C1264 1.377 . S
C1251 C1250 1.524 . S
C1251 C1252 1.397 . S
C1251 C1256 1.363 . S
C1252 H1229 0.950 . S
C1252 C1251 1.397 . S
C1252 C1253 1.334 . S
C1253 H1230 0.950 . S
C1253 C1252 1.334 . S
C1253 C1254 1.287 . S
C1254 C1253 1.287 . S
C1254 C1255 1.524 . S
C1254 H1273 0.913 . S
C1255 H1231 0.950 . S
C1255 C1254 1.524 . S
C1255 C1256 1.415 . S
C1256 H1232 0.950 . S
C1256 C1251 1.363 . S
C1256 C1255 1.415 . S
C1257 H1233 0.951 . S
C1257 C1258 1.366 . S
C1257 C1259 1.388 . S
C1258 C1257 1.366 . S
C1258 C1262 1.385 . S
C1259 H1234 0.951 . S
C1259 C1257 1.388 . S
C1259 C1260 1.366 . S
C1260 C1259 1.366 . S
C1260 C1261 1.414 . S
C1260 C1263 1.499 . S
C1261 H1235 0.950 1_556 S
C1261 C1260 1.414 . S
C1261 C1262 1.374 . S
C1262 H1236 0.950 . S
C1262 C1258 1.385 . S
C1262 C1261 1.374 . S
C1263 C1260 1.499 . S
C1263 C1264 1.373 1_556 S
C1263 C1265 1.389 . S
C1264 H1237 0.950 . S
C1264 C1250 1.377 . S
C1264 C1263 1.373 1_554 S
C1265 C1249 1.377 . S
C1265 C1263 1.389 . S
C1265 C1266 1.524 . S
C1266 C1265 1.524 . S
C1266 C1267 1.397 . S
C1266 C1271 1.363 . S
C1267 H1238 0.950 . S
C1267 C1266 1.397 . S
C1267 C1268 1.334 . S
C1268 H1239 0.950 . S
C1268 C1267 1.334 . S
C1268 C1269 1.287 . S
C1269 C1268 1.287 . S
C1269 C1270 1.524 . S
C1269 H1272 0.999 . S
C1270 H1240 0.950 . S
C1270 C1269 1.524 . S
C1270 C1271 1.415 . S
C1271 H1241 0.950 . S
C1271 C1266 1.363 . S
C1271 C1270 1.415 . S
H1272 C1269 0.999 . S
H1273 C1254 0.913 . S
H1274 C1292 0.951 . S
H1275 C1294 0.951 . S
H1276 C1296 0.950 . S
H1277 C1297 0.950 . S
H1278 C1299 0.950 . S
H1279 C1302 0.950 . S
H1280 C1303 0.950 . S
H1281 C1305 0.950 . S
H1282 C1306 0.950 . S
H1283 C1307 0.951 . S
H1284 C1309 0.951 . S
H1285 C1311 0.950 . S
H1286 C1312 0.950 . S
H1287 C1314 0.950 . S
H1288 C1317 0.950 . S
H1289 C1318 0.950 . S
H1290 C1320 0.950 . S
H1291 C1321 0.950 . S
C1292 H1274 0.951 . S
C1292 C1293 1.366 . S
C1292 C1294 1.388 . S
C1293 C1292 1.366 . S
C1293 C1297 1.385 . S
C1294 H1275 0.951 . S
C1294 C1292 1.388 . S
C1294 C1295 1.366 . S
C1295 C1294 1.366 . S
C1295 C1296 1.414 . S
C1295 C1298 1.499 . S
C1296 H1276 0.950 . S
C1296 C1295 1.414 . S
C1296 C1297 1.374 . S
C1297 H1277 0.950 . S
C1297 C1293 1.385 . S
C1297 C1296 1.374 . S
C1298 C1295 1.499 . S
C1298 C1299 1.373 . S
C1298 C1300 1.389 . S
C1299 H1278 0.950 . S
C1299 C1298 1.373 . S
C1299 C1315 1.377 . S
C1300 C1298 1.389 . S
C1300 C1301 1.524 . S
C1300 C1314 1.377 . S
C1301 C1300 1.524 . S
C1301 C1302 1.397 . S
C1301 C1306 1.363 . S
C1302 H1279 0.950 . S
C1302 C1301 1.397 . S
C1302 C1303 1.334 . S
C1303 H1280 0.950 . S
C1303 C1302 1.334 . S
C1303 C1304 1.287 . S
C1304 C1303 1.287 . S
C1304 C1305 1.524 . S
C1304 H1323 0.913 . S
C1305 H1281 0.950 . S
C1305 C1304 1.524 . S
C1305 C1306 1.415 . S
C1306 H1282 0.950 . S
C1306 C1301 1.363 . S
C1306 C1305 1.415 . S
C1307 H1283 0.951 . S
C1307 C1308 1.366 . S
C1307 C1309 1.388 . S
C1308 C1307 1.366 . S
C1308 C1312 1.385 . S
C1309 H1284 0.951 . S
C1309 C1307 1.388 . S
C1309 C1310 1.366 . S
C1310 C1309 1.366 . S
C1310 C1311 1.414 . S
C1310 C1313 1.499 . S
C1311 H1285 0.950 . S
C1311 C1310 1.414 . S
C1311 C1312 1.374 . S
C1312 H1286 0.950 . S
C1312 C1308 1.385 . S
C1312 C1311 1.374 . S
C1313 C1310 1.499 . S
C1313 C1314 1.373 . S
C1313 C1315 1.389 . S
C1314 H1287 0.950 . S
C1314 C1300 1.377 . S
C1314 C1313 1.373 . S
C1315 C1299 1.377 . S
C1315 C1313 1.389 . S
C1315 C1316 1.524 . S
C1316 C1315 1.524 . S
C1316 C1317 1.397 . S
C1316 C1321 1.363 . S
C1317 H1288 0.950 . S
C1317 C1316 1.397 . S
C1317 C1318 1.334 . S
C1318 H1289 0.950 . S
C1318 C1317 1.334 . S
C1318 C1319 1.287 . S
C1319 C1318 1.287 . S
C1319 C1320 1.524 . S
C1319 H1322 0.999 . S
C1320 H1290 0.950 . S
C1320 C1319 1.524 . S
C1320 C1321 1.415 . S
C1321 H1291 0.950 . S
C1321 C1316 1.363 . S
C1321 C1320 1.415 . S
H1322 C1319 0.999 . S
H1323 C1304 0.913 . S
H1324 C1342 0.951 . S
H1325 C1344 0.951 . S
H1326 C1346 0.950 . S
H1327 C1347 0.950 . S
H1328 C1349 0.950 . S
H1329 C1352 0.950 . S
H1330 C1353 0.950 . S
H1331 C1355 0.950 . S
H1332 C1356 0.950 . S
H1333 C1357 0.951 . S
H1334 C1359 0.951 . S
H1335 C1361 0.950 . S
H1336 C1362 0.950 . S
H1337 C1364 0.950 . S
H1338 C1367 0.950 . S
H1339 C1368 0.950 . S
H1340 C1370 0.950 . S
H1341 C1371 0.950 . S
C1342 H1324 0.951 . S
C1342 C1343 1.366 . S
C1342 C1344 1.388 . S
C1343 C1342 1.366 . S
C1343 C1347 1.385 . S
C1344 H1325 0.951 . S
C1344 C1342 1.388 . S
C1344 C1345 1.366 . S
C1345 C1344 1.366 . S
C1345 C1346 1.414 . S
C1345 C1348 1.499 . S
C1346 H1326 0.950 . S
C1346 C1345 1.414 . S
C1346 C1347 1.374 . S
C1347 H1327 0.950 . S
C1347 C1343 1.385 . S
C1347 C1346 1.374 . S
C1348 C1345 1.499 . S
C1348 C1349 1.373 1_554 S
C1348 C1350 1.389 . S
C1349 H1328 0.950 . S
C1349 C1348 1.373 1_556 S
C1349 C1365 1.377 . S
C1350 C1348 1.389 . S
C1350 C1351 1.524 . S
C1350 C1364 1.377 . S
C1351 C1350 1.524 . S
C1351 C1352 1.397 . S
C1351 C1356 1.363 . S
C1352 H1329 0.950 . S
C1352 C1351 1.397 . S
C1352 C1353 1.334 . S
C1353 H1330 0.950 . S
C1353 C1352 1.334 . S
C1353 C1354 1.287 . S
C1354 C1353 1.287 . S
C1354 C1355 1.524 . S
C1354 H1373 0.913 . S
C1355 H1331 0.950 . S
C1355 C1354 1.524 . S
C1355 C1356 1.415 . S
C1356 H1332 0.950 . S
C1356 C1351 1.363 . S
C1356 C1355 1.415 . S
C1357 H1333 0.951 . S
C1357 C1358 1.366 . S
C1357 C1359 1.388 . S
C1358 C1357 1.366 . S
C1358 C1362 1.385 . S
C1359 H1334 0.951 . S
C1359 C1357 1.388 . S
C1359 C1360 1.366 . S
C1360 C1359 1.366 . S
C1360 C1361 1.414 . S
C1360 C1363 1.499 . S
C1361 H1335 0.950 . S
C1361 C1360 1.414 . S
C1361 C1362 1.374 . S
C1362 H1336 0.950 . S
C1362 C1358 1.385 . S
C1362 C1361 1.374 . S
C1363 C1360 1.499 . S
C1363 C1364 1.373 1_556 S
C1363 C1365 1.389 . S
C1364 H1337 0.950 . S
C1364 C1350 1.377 . S
C1364 C1363 1.373 1_554 S
C1365 C1349 1.377 . S
C1365 C1363 1.389 . S
C1365 C1366 1.524 . S
C1366 C1365 1.524 . S
C1366 C1367 1.397 . S
C1366 C1371 1.363 . S
C1367 H1338 0.950 . S
C1367 C1366 1.397 . S
C1367 C1368 1.334 . S
C1368 H1339 0.950 . S
C1368 C1367 1.334 . S
C1368 C1369 1.287 . S
C1369 C1368 1.287 . S
C1369 C1370 1.524 . S
C1369 H1372 0.999 . S
C1370 H1340 0.950 . S
C1370 C1369 1.524 . S
C1370 C1371 1.415 . S
C1371 H1341 0.950 . S
C1371 C1366 1.363 . S
C1371 C1370 1.415 . S
H1372 C1369 0.999 . S
H1373 C1354 0.913 . S
H1374 C1392 0.951 . S
H1375 C1394 0.951 . S
H1376 C1396 0.950 . S
H1377 C1397 0.950 . S
H1378 C1399 0.950 . S
H1379 C1402 0.950 . S
H1380 C1403 0.950 . S
H1381 C1405 0.950 . S
H1382 C1406 0.950 . S
H1383 C1407 0.951 . S
H1384 C1409 0.951 . S
H1385 C1411 0.950 . S
H1386 C1412 0.950 . S
H1387 C1414 0.950 . S
H1388 C1417 0.950 . S
H1389 C1418 0.950 . S
H1390 C1420 0.950 . S
H1391 C1421 0.950 . S
C1392 H1374 0.951 . S
C1392 C1393 1.366 . S
C1392 C1394 1.388 . S
C1393 C1392 1.366 . S
C1393 C1397 1.385 . S
C1394 H1375 0.951 . S
C1394 C1392 1.388 . S
C1394 C1395 1.366 . S
C1395 C1394 1.366 . S
C1395 C1396 1.414 . S
C1395 C1398 1.499 . S
C1396 H1376 0.950 . S
C1396 C1395 1.414 . S
C1396 C1397 1.374 . S
C1397 H1377 0.950 . S
C1397 C1393 1.385 . S
C1397 C1396 1.374 . S
C1398 C1395 1.499 . S
C1398 C1399 1.373 . S
C1398 C1400 1.389 . S
C1399 H1378 0.950 . S
C1399 C1398 1.373 . S
C1399 C1415 1.377 . S
C1400 C1398 1.389 . S
C1400 C1401 1.524 . S
C1400 C1414 1.377 . S
C1401 C1400 1.524 . S
C1401 C1402 1.397 . S
C1401 C1406 1.363 . S
C1402 H1379 0.950 . S
C1402 C1401 1.397 . S
C1402 C1403 1.334 . S
C1403 H1380 0.950 . S
C1403 C1402 1.334 . S
C1403 C1404 1.287 . S
C1404 C1403 1.287 . S
C1404 C1405 1.524 . S
C1404 H1423 0.913 . S
C1405 H1381 0.950 . S
C1405 C1404 1.524 . S
C1405 C1406 1.415 . S
C1406 H1382 0.950 . S
C1406 C1401 1.363 . S
C1406 C1405 1.415 . S
C1407 H1383 0.951 . S
C1407 C1408 1.366 . S
C1407 C1409 1.388 . S
C1408 C1407 1.366 . S
C1408 C1412 1.385 . S
C1409 H1384 0.951 . S
C1409 C1407 1.388 . S
C1409 C1410 1.366 . S
C1410 C1409 1.366 . S
C1410 C1411 1.414 . S
C1410 C1413 1.499 . S
C1411 H1385 0.950 . S
C1411 C1410 1.414 . S
C1411 C1412 1.374 . S
C1412 H1386 0.950 . S
C1412 C1408 1.385 . S
C1412 C1411 1.374 . S
C1413 C1410 1.499 . S
C1413 C1414 1.373 . S
C1413 C1415 1.389 . S
C1414 H1387 0.950 . S
C1414 C1400 1.377 . S
C1414 C1413 1.373 . S
C1415 C1399 1.377 . S
C1415 C1413 1.389 . S
C1415 C1416 1.524 . S
C1416 C1415 1.524 . S
C1416 C1417 1.397 . S
C1416 C1421 1.363 . S
C1417 H1388 0.950 . S
C1417 C1416 1.397 . S
C1417 C1418 1.334 . S
C1418 H1389 0.950 . S
C1418 C1417 1.334 . S
C1418 C1419 1.287 . S
C1419 C1418 1.287 . S
C1419 C1420 1.524 . S
C1419 H1422 0.999 . S
C1420 H1390 0.950 . S
C1420 C1419 1.524 . S
C1420 C1421 1.415 . S
C1421 H1391 0.950 . S
C1421 C1416 1.363 . S
C1421 C1420 1.415 . S
H1422 C1419 0.999 . S
H1423 C1404 0.913 . S
H1424 C1442 0.951 . S
H1425 C1444 0.951 1_554 S
H1426 C1446 0.950 . S
H1427 C1447 0.950 . S
H1428 C1449 0.950 . S
H1429 C1452 0.959 . S
H1430 C1453 0.950 . S
H1431 C1455 0.950 . S
H1432 C1456 0.950 . S
H1433 C1457 0.951 . S
H1434 C1459 0.951 1_556 S
H1435 C1461 0.950 . S
H1436 C1462 0.950 . S
H1437 C1464 0.950 . S
H1438 C1467 0.959 . S
H1439 C1468 0.950 . S
H1440 C1470 0.950 . S
H1441 C1471 0.950 . S
C1442 H1424 0.951 . S
C1442 C1443 1.366 . S
C1442 C1444 1.388 . S
C1443 C1442 1.366 . S
C1443 C1447 1.385 . S
C1444 H1425 0.951 1_556 S
C1444 C1442 1.388 . S
C1444 C1445 1.366 . S
C1445 C1444 1.366 . S
C1445 C1446 1.414 . S
C1445 C1448 1.499 . S
C1446 H1426 0.950 . S
C1446 C1445 1.414 . S
C1446 C1447 1.374 . S
C1447 H1427 0.950 . S
C1447 C1443 1.385 . S
C1447 C1446 1.374 . S
C1448 C1445 1.499 . S
C1448 C1449 1.373 . S
C1448 C1450 1.389 1_556 S
C1449 H1428 0.950 . S
C1449 C1448 1.373 . S
C1449 C1465 1.377 . S
C1450 C1448 1.389 1_554 S
C1450 C1451 1.524 . S
C1450 C1464 1.377 . S
C1451 C1450 1.524 . S
C1451 C1452 1.397 . S
C1451 C1456 1.363 . S
C1452 H1429 0.959 . S
C1452 C1451 1.397 . S
C1452 C1453 1.334 . S
C1453 H1430 0.950 . S
C1453 C1452 1.334 . S
C1453 C1454 1.287 . S
C1454 C1453 1.287 . S
C1454 C1455 1.524 . S
C1454 H1473 0.913 . S
C1455 H1431 0.950 . S
C1455 C1454 1.524 . S
C1455 C1456 1.415 . S
C1456 H1432 0.950 . S
C1456 C1451 1.363 . S
C1456 C1455 1.415 . S
C1457 H1433 0.951 . S
C1457 C1458 1.366 . S
C1457 C1459 1.388 . S
C1458 C1457 1.366 . S
C1458 C1462 1.385 . S
C1459 H1434 0.951 1_554 S
C1459 C1457 1.388 . S
C1459 C1460 1.366 . S
C1460 C1459 1.366 . S
C1460 C1461 1.414 . S
C1460 C1463 1.499 . S
C1461 H1435 0.950 . S
C1461 C1460 1.414 . S
C1461 C1462 1.374 . S
C1462 H1436 0.950 . S
C1462 C1458 1.385 . S
C1462 C1461 1.374 . S
C1463 C1460 1.499 . S
C1463 C1464 1.373 . S
C1463 C1465 1.389 1_554 S
C1464 H1437 0.950 . S
C1464 C1450 1.377 . S
C1464 C1463 1.373 . S
C1465 C1449 1.377 . S
C1465 C1463 1.389 1_556 S
C1465 C1466 1.524 . S
C1466 C1465 1.524 . S
C1466 C1467 1.397 . S
C1466 C1471 1.363 . S
C1467 H1438 0.959 . S
C1467 C1466 1.397 . S
C1467 C1468 1.334 . S
C1468 H1439 0.950 . S
C1468 C1467 1.334 . S
C1468 C1469 1.287 . S
C1469 C1468 1.287 . S
C1469 C1470 1.524 . S
C1469 H1472 0.999 . S
C1470 H1440 0.950 . S
C1470 C1469 1.524 . S
C1470 C1471 1.415 . S
C1471 H1441 0.950 . S
C1471 C1466 1.363 . S
C1471 C1470 1.415 . S
H1472 C1469 0.999 . S
H1473 C1454 0.913 . S
H1474 C1492 0.951 . S
H1475 C1494 0.951 . S
H1476 C1496 0.950 . S
H1477 C1497 0.950 . S
H1478 C1499 0.950 . S
H1479 C1502 0.950 . S
H1480 C1503 0.950 . S
H1481 C1505 0.950 . S
H1482 C1506 0.950 . S
H1483 C1507 0.951 . S
H1484 C1509 0.951 . S
H1485 C1511 0.950 . S
H1486 C1512 0.950 . S
H1487 C1514 0.950 . S
H1488 C1517 0.950 . S
H1489 C1518 0.950 . S
H1490 C1520 0.950 . S
H1491 C1521 0.950 . S
C1492 H1474 0.951 . S
C1492 C1493 1.366 . S
C1492 C1494 1.388 . S
C1493 C1492 1.366 . S
C1493 C1497 1.385 . S
C1494 H1475 0.951 . S
C1494 C1492 1.388 . S
C1494 C1495 1.366 . S
C1495 C1494 1.366 . S
C1495 C1496 1.414 . S
C1495 C1498 1.499 . S
C1496 H1476 0.950 . S
C1496 C1495 1.414 . S
C1496 C1497 1.374 . S
C1497 H1477 0.950 . S
C1497 C1493 1.385 . S
C1497 C1496 1.374 . S
C1498 C1495 1.499 . S
C1498 C1499 1.373 . S
C1498 C1500 1.389 . S
C1499 H1478 0.950 . S
C1499 C1498 1.373 . S
C1499 C1515 1.377 . S
C1500 C1498 1.389 . S
C1500 C1501 1.524 . S
C1500 C1514 1.377 . S
C1501 C1500 1.524 . S
C1501 C1502 1.397 . S
C1501 C1506 1.363 . S
C1502 H1479 0.950 . S
C1502 C1501 1.397 . S
C1502 C1503 1.334 . S
C1503 H1480 0.950 . S
C1503 C1502 1.334 . S
C1503 C1504 1.287 . S
C1504 C1503 1.287 . S
C1504 C1505 1.524 . S
C1504 H1523 0.913 . S
C1505 H1481 0.950 . S
C1505 C1504 1.524 . S
C1505 C1506 1.415 . S
C1506 H1482 0.950 . S
C1506 C1501 1.363 . S
C1506 C1505 1.415 . S
C1507 H1483 0.951 . S
C1507 C1508 1.366 . S
C1507 C1509 1.388 . S
C1508 C1507 1.366 . S
C1508 C1512 1.385 . S
C1509 H1484 0.951 . S
C1509 C1507 1.388 . S
C1509 C1510 1.366 . S
C1510 C1509 1.366 . S
C1510 C1511 1.414 . S
C1510 C1513 1.499 . S
C1511 H1485 0.950 . S
C1511 C1510 1.414 . S
C1511 C1512 1.374 . S
C1512 H1486 0.950 . S
C1512 C1508 1.385 . S
C1512 C1511 1.374 . S
C1513 C1510 1.499 . S
C1513 C1514 1.373 . S
C1513 C1515 1.389 . S
C1514 H1487 0.950 . S
C1514 C1500 1.377 . S
C1514 C1513 1.373 . S
C1515 C1499 1.377 . S
C1515 C1513 1.389 . S
C1515 C1516 1.524 . S
C1516 C1515 1.524 . S
C1516 C1517 1.397 . S
C1516 C1521 1.363 . S
C1517 H1488 0.950 . S
C1517 C1516 1.397 . S
C1517 C1518 1.334 . S
C1518 H1489 0.950 . S
C1518 C1517 1.334 . S
C1518 C1519 1.287 . S
C1519 C1518 1.287 . S
C1519 C1520 1.524 . S
C1519 H1522 0.999 . S
C1520 H1490 0.950 . S
C1520 C1519 1.524 . S
C1520 C1521 1.415 . S
C1521 H1491 0.950 . S
C1521 C1516 1.363 . S
C1521 C1520 1.415 . S
H1522 C1519 0.999 . S
H1523 C1504 0.913 . S
H1524 C1542 0.951 . S
H1525 C1544 0.951 1_556 S
H1526 C1546 0.950 . S
H1527 C1547 0.950 . S
H1528 C1549 0.950 . S
H1529 C1552 0.950 . S
H1530 C1553 0.950 . S
H1531 C1555 0.950 . S
H1532 C1556 0.950 . S
H1533 C1557 0.951 . S
H1534 C1559 0.951 1_554 S
H1535 C1561 0.950 . S
H1536 C1562 0.950 . S
H1537 C1564 0.950 . S
H1538 C1567 0.950 . S
H1539 C1568 0.950 . S
H1540 C1570 0.950 . S
H1541 C1571 0.950 . S
C1542 H1524 0.951 . S
C1542 C1543 1.366 . S
C1542 C1544 1.388 . S
C1543 C1542 1.366 . S
C1543 C1547 1.385 . S
C1544 H1525 0.951 1_554 S
C1544 C1542 1.388 . S
C1544 C1545 1.366 . S
C1545 C1544 1.366 . S
C1545 C1546 1.414 . S
C1545 C1548 1.499 . S
C1546 H1526 0.950 . S
C1546 C1545 1.414 . S
C1546 C1547 1.374 . S
C1547 H1527 0.950 . S
C1547 C1543 1.385 . S
C1547 C1546 1.374 . S
C1548 C1545 1.499 . S
C1548 C1549 1.373 . S
C1548 C1550 1.389 1_554 S
C1549 H1528 0.950 . S
C1549 C1548 1.373 . S
C1549 C1565 1.377 . S
C1550 C1548 1.389 1_556 S
C1550 C1551 1.524 . S
C1550 C1564 1.377 . S
C1551 C1550 1.524 . S
C1551 C1552 1.397 1_556 S
C1551 C1556 1.363 . S
C1552 H1529 0.950 . S
C1552 C1551 1.397 1_554 S
C1552 C1553 1.334 . S
C1553 H1530 0.950 . S
C1553 C1552 1.334 . S
C1553 C1554 1.287 1_554 S
C1554 C1553 1.287 1_556 S
C1554 C1555 1.524 . S
C1554 H1573 0.913 . S
C1555 H1531 0.950 . S
C1555 C1554 1.524 . S
C1555 C1556 1.415 . S
C1556 H1532 0.950 . S
C1556 C1551 1.363 . S
C1556 C1555 1.415 . S
C1557 H1533 0.951 . S
C1557 C1558 1.366 . S
C1557 C1559 1.388 . S
C1558 C1557 1.366 . S
C1558 C1562 1.385 . S
C1559 H1534 0.951 1_556 S
C1559 C1557 1.388 . S
C1559 C1560 1.366 . S
C1560 C1559 1.366 . S
C1560 C1561 1.414 . S
C1560 C1563 1.499 . S
C1561 H1535 0.950 . S
C1561 C1560 1.414 . S
C1561 C1562 1.374 . S
C1562 H1536 0.950 . S
C1562 C1558 1.385 . S
C1562 C1561 1.374 . S
C1563 C1560 1.499 . S
C1563 C1564 1.373 . S
C1563 C1565 1.389 1_556 S
C1564 H1537 0.950 . S
C1564 C1550 1.377 . S
C1564 C1563 1.373 . S
C1565 C1549 1.377 . S
C1565 C1563 1.389 1_554 S
C1565 C1566 1.524 . S
C1566 C1565 1.524 . S
C1566 C1567 1.397 1_554 S
C1566 C1571 1.363 . S
C1567 H1538 0.950 . S
C1567 C1566 1.397 1_556 S
C1567 C1568 1.334 . S
C1568 H1539 0.950 . S
C1568 C1567 1.334 . S
C1568 C1569 1.287 1_556 S
C1569 C1568 1.287 1_554 S
C1569 C1570 1.524 . S
C1569 H1572 0.999 . S
C1570 H1540 0.950 . S
C1570 C1569 1.524 . S
C1570 C1571 1.415 . S
C1571 H1541 0.950 . S
C1571 C1566 1.363 . S
C1571 C1570 1.415 . S
H1572 C1569 0.999 . S
H1573 C1554 0.913 . S
H1574 C1592 0.951 . S
H1575 C1594 0.951 . S
H1576 C1596 0.950 . S
H1577 C1597 0.950 . S
H1578 C1599 0.950 . S
H1579 C1602 0.950 . S
H1580 C1603 0.950 . S
H1581 C1605 0.950 . S
H1582 C1606 0.950 . S
H1583 C1607 0.951 . S
H1584 C1609 0.951 . S
H1585 C1611 0.950 . S
H1586 C1612 0.950 . S
H1587 C1614 0.950 . S
H1588 C1617 0.950 . S
H1589 C1618 0.950 . S
H1590 C1620 0.950 . S
H1591 C1621 0.950 . S
C1592 H1574 0.951 . S
C1592 C1593 1.366 . S
C1592 C1594 1.388 . S
C1593 C1592 1.366 . S
C1593 C1597 1.385 . S
C1594 H1575 0.951 . S
C1594 C1592 1.388 . S
C1594 C1595 1.366 . S
C1595 C1594 1.366 . S
C1595 C1596 1.414 . S
C1595 C1598 1.499 . S
C1596 H1576 0.950 . S
C1596 C1595 1.414 . S
C1596 C1597 1.374 . S
C1597 H1577 0.950 . S
C1597 C1593 1.385 . S
C1597 C1596 1.374 . S
C1598 C1595 1.499 . S
C1598 C1599 1.373 . S
C1598 C1600 1.389 . S
C1599 H1578 0.950 . S
C1599 C1598 1.373 . S
C1599 C1615 1.377 . S
C1600 C1598 1.389 . S
C1600 C1601 1.524 . S
C1600 C1614 1.377 . S
C1601 C1600 1.524 . S
C1601 C1602 1.397 . S
C1601 C1606 1.363 . S
C1602 H1579 0.950 . S
C1602 C1601 1.397 . S
C1602 C1603 1.334 . S
C1603 H1580 0.950 . S
C1603 C1602 1.334 . S
C1603 C1604 1.287 . S
C1604 C1603 1.287 . S
C1604 C1605 1.524 . S
C1604 H1623 0.913 . S
C1605 H1581 0.950 . S
C1605 C1604 1.524 . S
C1605 C1606 1.415 . S
C1606 H1582 0.950 . S
C1606 C1601 1.363 . S
C1606 C1605 1.415 . S
C1607 H1583 0.951 . S
C1607 C1608 1.366 . S
C1607 C1609 1.388 . S
C1608 C1607 1.366 . S
C1608 C1612 1.385 . S
C1609 H1584 0.951 . S
C1609 C1607 1.388 . S
C1609 C1610 1.366 . S
C1610 C1609 1.366 . S
C1610 C1611 1.414 . S
C1610 C1613 1.499 . S
C1611 H1585 0.950 . S
C1611 C1610 1.414 . S
C1611 C1612 1.374 . S
C1612 H1586 0.950 . S
C1612 C1608 1.385 . S
C1612 C1611 1.374 . S
C1613 C1610 1.499 . S
C1613 C1614 1.373 . S
C1613 C1615 1.389 . S
C1614 H1587 0.950 . S
C1614 C1600 1.377 . S
C1614 C1613 1.373 . S
C1615 C1599 1.377 . S
C1615 C1613 1.389 . S
C1615 C1616 1.524 . S
C1616 C1615 1.524 . S
C1616 C1617 1.397 . S
C1616 C1621 1.363 . S
C1617 H1588 0.950 . S
C1617 C1616 1.397 . S
C1617 C1618 1.334 . S
C1618 H1589 0.950 . S
C1618 C1617 1.334 . S
C1618 C1619 1.287 . S
C1619 C1618 1.287 . S
C1619 C1620 1.524 . S
C1619 H1622 0.999 . S
C1620 H1590 0.950 . S
C1620 C1619 1.524 . S
C1620 C1621 1.415 . S
C1621 H1591 0.950 . S
C1621 C1616 1.363 . S
C1621 C1620 1.415 . S
H1622 C1619 0.999 . S
H1623 C1604 0.913 . S
H1624 C1642 0.951 . S
H1625 C1644 0.951 1_554 S
H1626 C1646 0.950 . S
H1627 C1647 0.950 . S
H1628 C1649 0.950 . S
H1629 C1652 0.950 . S
H1630 C1653 0.950 . S
H1631 C1655 0.950 . S
H1632 C1656 0.950 . S
H1633 C1657 0.951 . S
H1634 C1659 0.951 1_556 S
H1635 C1661 0.950 . S
H1636 C1662 0.950 . S
H1637 C1664 0.950 . S
H1638 C1667 0.950 . S
H1639 C1668 0.950 . S
H1640 C1670 0.950 . S
H1641 C1671 0.950 . S
C1642 H1624 0.951 . S
C1642 C1643 1.366 . S
C1642 C1644 1.388 . S
C1643 C1642 1.366 . S
C1643 C1647 1.385 . S
C1644 H1625 0.951 1_556 S
C1644 C1642 1.388 . S
C1644 C1645 1.366 . S
C1645 C1644 1.366 . S
C1645 C1646 1.414 . S
C1645 C1648 1.499 . S
C1646 H1626 0.950 . S
C1646 C1645 1.414 . S
C1646 C1647 1.374 . S
C1647 H1627 0.950 . S
C1647 C1643 1.385 . S
C1647 C1646 1.374 . S
C1648 C1645 1.499 . S
C1648 C1649 1.373 . S
C1648 C1650 1.389 . S
C1649 H1628 0.950 . S
C1649 C1648 1.373 . S
C1649 C1665 1.377 1_546 S
C1650 C1648 1.389 . S
C1650 C1651 1.524 . S
C1650 C1664 1.377 1_546 S
C1651 C1650 1.524 . S
C1651 C1652 1.397 . S
C1651 C1656 1.363 1_556 S
C1652 H1629 0.950 . S
C1652 C1651 1.397 . S
C1652 C1653 1.334 . S
C1653 H1630 0.950 . S
C1653 C1652 1.334 . S
C1653 C1654 1.287 . S
C1654 C1653 1.287 . S
C1654 C1655 1.524 1_556 S
C1654 H1673 0.913 . S
C1655 H1631 0.950 . S
C1655 C1654 1.524 1_554 S
C1655 C1656 1.415 . S
C1656 H1632 0.950 . S
C1656 C1651 1.363 1_554 S
C1656 C1655 1.415 . S
C1657 H1633 0.951 . S
C1657 C1658 1.366 . S
C1657 C1659 1.388 . S
C1658 C1657 1.366 . S
C1658 C1662 1.385 . S
C1659 H1634 0.951 1_554 S
C1659 C1657 1.388 . S
C1659 C1660 1.366 . S
C1660 C1659 1.366 . S
C1660 C1661 1.414 . S
C1660 C1663 1.499 . S
C1661 H1635 0.950 . S
C1661 C1660 1.414 . S
C1661 C1662 1.374 . S
C1662 H1636 0.950 . S
C1662 C1658 1.385 . S
C1662 C1661 1.374 . S
C1663 C1660 1.499 . S
C1663 C1664 1.373 . S
C1663 C1665 1.389 . S
C1664 H1637 0.950 . S
C1664 C1650 1.377 1_564 S
C1664 C1663 1.373 . S
C1665 C1649 1.377 1_564 S
C1665 C1663 1.389 . S
C1665 C1666 1.524 . S
C1666 C1665 1.524 . S
C1666 C1667 1.397 . S
C1666 C1671 1.363 1_554 S
C1667 H1638 0.950 . S
C1667 C1666 1.397 . S
C1667 C1668 1.334 . S
C1668 H1639 0.950 . S
C1668 C1667 1.334 . S
C1668 C1669 1.287 . S
C1669 C1668 1.287 . S
C1669 C1670 1.524 1_554 S
C1669 H1672 0.999 . S
C1670 H1640 0.950 . S
C1670 C1669 1.524 1_556 S
C1670 C1671 1.415 . S
C1671 H1641 0.950 . S
C1671 C1666 1.363 1_556 S
C1671 C1670 1.415 . S
H1672 C1669 0.999 . S
H1673 C1654 0.913 . S
H1674 C1692 0.951 . S
H1675 C1694 0.951 . S
H1676 C1696 0.950 . S
H1677 C1697 0.950 . S
H1678 C1699 0.950 . S
H1679 C1702 0.950 . S
H1680 C1703 0.950 . S
H1681 C1705 0.950 . S
H1682 C1706 0.950 . S
H1683 C1707 0.951 . S
H1684 C1709 0.951 . S
H1685 C1711 0.950 . S
H1686 C1712 0.950 . S
H1687 C1714 0.950 . S
H1688 C1717 0.950 . S
H1689 C1718 0.950 . S
H1690 C1720 0.950 . S
H1691 C1721 0.950 . S
C1692 H1674 0.951 . S
C1692 C1693 1.366 . S
C1692 C1694 1.388 . S
C1693 C1692 1.366 . S
C1693 C1697 1.385 . S
C1694 H1675 0.951 . S
C1694 C1692 1.388 . S
C1694 C1695 1.366 . S
C1695 C1694 1.366 . S
C1695 C1696 1.414 . S
C1695 C1698 1.499 . S
C1696 H1676 0.950 . S
C1696 C1695 1.414 . S
C1696 C1697 1.374 . S
C1697 H1677 0.950 . S
C1697 C1693 1.385 . S
C1697 C1696 1.374 . S
C1698 C1695 1.499 . S
C1698 C1699 1.373 . S
C1698 C1700 1.389 . S
C1699 H1678 0.950 . S
C1699 C1698 1.373 . S
C1699 C1715 1.377 1_565 S
C1700 C1698 1.389 . S
C1700 C1701 1.524 . S
C1700 C1714 1.377 1_565 S
C1701 C1700 1.524 . S
C1701 C1702 1.397 . S
C1701 C1706 1.363 1_565 S
C1702 H1679 0.950 . S
C1702 C1701 1.397 . S
C1702 C1703 1.334 . S
C1703 H1680 0.950 . S
C1703 C1702 1.334 . S
C1703 C1704 1.287 . S
C1704 C1703 1.287 . S
C1704 C1705 1.524 1_565 S
C1704 H1723 0.913 . S
C1705 H1681 0.950 . S
C1705 C1704 1.524 1_545 S
C1705 C1706 1.415 . S
C1706 H1682 0.950 . S
C1706 C1701 1.363 1_545 S
C1706 C1705 1.415 . S
C1707 H1683 0.951 . S
C1707 C1708 1.366 . S
C1707 C1709 1.388 . S
C1708 C1707 1.366 . S
C1708 C1712 1.385 . S
C1709 H1684 0.951 . S
C1709 C1707 1.388 . S
C1709 C1710 1.366 . S
C1710 C1709 1.366 . S
C1710 C1711 1.414 . S
C1710 C1713 1.499 . S
C1711 H1685 0.950 . S
C1711 C1710 1.414 . S
C1711 C1712 1.374 . S
C1712 H1686 0.950 . S
C1712 C1708 1.385 . S
C1712 C1711 1.374 . S
C1713 C1710 1.499 . S
C1713 C1714 1.373 . S
C1713 C1715 1.389 . S
C1714 H1687 0.950 . S
C1714 C1700 1.377 1_545 S
C1714 C1713 1.373 . S
C1715 C1699 1.377 1_545 S
C1715 C1713 1.389 . S
C1715 C1716 1.524 . S
C1716 C1715 1.524 . S
C1716 C1717 1.397 . S
C1716 C1721 1.363 1_545 S
C1717 H1688 0.950 . S
C1717 C1716 1.397 . S
C1717 C1718 1.334 . S
C1718 H1689 0.950 . S
C1718 C1717 1.334 . S
C1718 C1719 1.287 . S
C1719 C1718 1.287 . S
C1719 C1720 1.524 1_545 S
C1719 H1722 0.999 . S
C1720 H1690 0.950 . S
C1720 C1719 1.524 1_565 S
C1720 C1721 1.415 . S
C1721 H1691 0.950 . S
C1721 C1716 1.363 1_565 S
C1721 C1720 1.415 . S
H1722 C1719 0.999 . S
H1723 C1704 0.913 . S
H1724 C1742 0.951 . S
H1725 C1744 0.951 . S
H1726 C1746 0.950 . S
H1727 C1747 0.950 . S
H1728 C1749 0.950 . S
H1729 C1752 0.950 . S
H1730 C1753 0.950 . S
H1731 C1755 0.945 1_545 S
H1732 C1756 0.950 1_545 S
H1733 C1757 0.951 . S
H1734 C1759 0.951 . S
H1735 C1761 0.950 . S
H1736 C1762 0.950 . S
H1737 C1764 0.950 . S
H1738 C1767 0.950 . S
H1739 C1768 0.950 . S
H1740 C1770 0.945 1_565 S
H1741 C1771 0.950 1_565 S
C1742 H1724 0.951 . S
C1742 C1743 1.366 . S
C1742 C1744 1.388 . S
C1743 C1742 1.366 . S
C1743 C1747 1.385 . S
C1744 H1725 0.951 . S
C1744 C1742 1.388 . S
C1744 C1745 1.366 . S
C1745 C1744 1.366 . S
C1745 C1746 1.414 . S
C1745 C1748 1.499 . S
C1746 H1726 0.950 . S
C1746 C1745 1.414 . S
C1746 C1747 1.374 . S
C1747 H1727 0.950 . S
C1747 C1743 1.385 . S
C1747 C1746 1.374 . S
C1748 C1745 1.499 . S
C1748 C1749 1.373 1_554 S
C1748 C1750 1.389 . S
C1749 H1728 0.950 . S
C1749 C1748 1.373 1_556 S
C1749 C1765 1.377 1_565 S
C1750 C1748 1.389 . S
C1750 C1751 1.524 . S
C1750 C1764 1.377 1_565 S
C1751 C1750 1.524 . S
C1751 C1752 1.397 . S
C1751 C1756 1.363 . S
C1752 H1729 0.950 . S
C1752 C1751 1.397 . S
C1752 C1753 1.334 . S
C1753 H1730 0.950 . S
C1753 C1752 1.334 . S
C1753 C1754 1.287 . S
C1754 C1753 1.287 . S
C1754 C1755 1.524 . S
C1754 H1773 0.913 . S
C1755 H1731 0.945 1_565 S
C1755 C1754 1.524 . S
C1755 C1756 1.415 . S
C1756 H1732 0.950 1_565 S
C1756 C1751 1.363 . S
C1756 C1755 1.415 . S
C1757 H1733 0.951 . S
C1757 C1758 1.366 . S
C1757 C1759 1.388 . S
C1758 C1757 1.366 . S
C1758 C1762 1.385 . S
C1759 H1734 0.951 . S
C1759 C1757 1.388 . S
C1759 C1760 1.366 . S
C1760 C1759 1.366 . S
C1760 C1761 1.414 . S
C1760 C1763 1.499 . S
C1761 H1735 0.950 . S
C1761 C1760 1.414 . S
C1761 C1762 1.374 . S
C1762 H1736 0.950 . S
C1762 C1758 1.385 . S
C1762 C1761 1.374 . S
C1763 C1760 1.499 . S
C1763 C1764 1.373 1_556 S
C1763 C1765 1.389 . S
C1764 H1737 0.950 . S
C1764 C1750 1.377 1_545 S
C1764 C1763 1.373 1_554 S
C1765 C1749 1.377 1_545 S
C1765 C1763 1.389 . S
C1765 C1766 1.524 . S
C1766 C1765 1.524 . S
C1766 C1767 1.397 . S
C1766 C1771 1.363 . S
C1767 H1738 0.950 . S
C1767 C1766 1.397 . S
C1767 C1768 1.334 . S
C1768 H1739 0.950 . S
C1768 C1767 1.334 . S
C1768 C1769 1.287 . S
C1769 C1768 1.287 . S
C1769 C1770 1.524 . S
C1769 H1772 0.999 . S
C1770 H1740 0.945 1_545 S
C1770 C1769 1.524 . S
C1770 C1771 1.415 . S
C1771 H1741 0.950 1_545 S
C1771 C1766 1.363 . S
C1771 C1770 1.415 . S
H1772 C1769 0.999 . S
H1773 C1754 0.913 . S
H1774 C1792 0.951 . S
H1775 C1794 0.951 . S
H1776 C1796 0.950 . S
H1777 C1797 0.950 . S
H1778 C1799 0.950 . S
H1779 C1802 0.950 . S
H1780 C1803 0.950 . S
H1781 C1805 0.950 . S
H1782 C1806 0.950 . S
H1783 C1807 0.951 . S
H1784 C1809 0.951 . S
H1785 C1811 0.950 . S
H1786 C1812 0.950 . S
H1787 C1814 0.950 . S
H1788 C1817 0.950 . S
H1789 C1818 0.950 . S
H1790 C1820 0.950 . S
H1791 C1821 0.950 . S
C1792 H1774 0.951 . S
C1792 C1793 1.366 . S
C1792 C1794 1.388 . S
C1793 C1792 1.366 . S
C1793 C1797 1.385 . S
C1794 H1775 0.951 . S
C1794 C1792 1.388 . S
C1794 C1795 1.366 . S
C1795 C1794 1.366 . S
C1795 C1796 1.414 . S
C1795 C1798 1.499 . S
C1796 H1776 0.950 . S
C1796 C1795 1.414 . S
C1796 C1797 1.374 . S
C1797 H1777 0.950 . S
C1797 C1793 1.385 . S
C1797 C1796 1.374 . S
C1798 C1795 1.499 . S
C1798 C1799 1.373 . S
C1798 C1800 1.389 . S
C1799 H1778 0.950 . S
C1799 C1798 1.373 . S
C1799 C1815 1.377 1_545 S
C1800 C1798 1.389 . S
C1800 C1801 1.524 . S
C1800 C1814 1.377 1_545 S
C1801 C1800 1.524 . S
C1801 C1802 1.397 . S
C1801 C1806 1.363 1_545 S
C1802 H1779 0.950 . S
C1802 C1801 1.397 . S
C1802 C1803 1.334 . S
C1803 H1780 0.950 . S
C1803 C1802 1.334 . S
C1803 C1804 1.287 . S
C1804 C1803 1.287 . S
C1804 C1805 1.524 1_545 S
C1804 H1823 0.913 . S
C1805 H1781 0.950 . S
C1805 C1804 1.524 1_565 S
C1805 C1806 1.415 . S
C1806 H1782 0.950 . S
C1806 C1801 1.363 1_565 S
C1806 C1805 1.415 . S
C1807 H1783 0.951 . S
C1807 C1808 1.366 . S
C1807 C1809 1.388 . S
C1808 C1807 1.366 . S
C1808 C1812 1.385 . S
C1809 H1784 0.951 . S
C1809 C1807 1.388 . S
C1809 C1810 1.366 . S
C1810 C1809 1.366 . S
C1810 C1811 1.414 . S
C1810 C1813 1.499 . S
C1811 H1785 0.950 . S
C1811 C1810 1.414 . S
C1811 C1812 1.374 . S
C1812 H1786 0.950 . S
C1812 C1808 1.385 . S
C1812 C1811 1.374 . S
C1813 C1810 1.499 . S
C1813 C1814 1.373 . S
C1813 C1815 1.389 . S
C1814 H1787 0.950 . S
C1814 C1800 1.377 1_565 S
C1814 C1813 1.373 . S
C1815 C1799 1.377 1_565 S
C1815 C1813 1.389 . S
C1815 C1816 1.524 . S
C1816 C1815 1.524 . S
C1816 C1817 1.397 . S
C1816 C1821 1.363 1_565 S
C1817 H1788 0.950 . S
C1817 C1816 1.397 . S
C1817 C1818 1.334 . S
C1818 H1789 0.950 . S
C1818 C1817 1.334 . S
C1818 C1819 1.287 . S
C1819 C1818 1.287 . S
C1819 C1820 1.524 1_565 S
C1819 H1822 0.999 . S
C1820 H1790 0.950 . S
C1820 C1819 1.524 1_545 S
C1820 C1821 1.415 . S
C1821 H1791 0.950 . S
C1821 C1816 1.363 1_545 S
C1821 C1820 1.415 . S
H1822 C1819 0.999 . S
H1823 C1804 0.913 . S
C243 C9 1.399 . S
C258 C93 1.400 . S
C293 C23 1.399 . S
C308 C107 1.400 . S
C343 C65 1.400 . S
C358 C37 1.399 . S
C393 C79 1.400 . S
C408 C51 1.399 . S
C443 C205 1.399 . S
C458 C121 1.399 . S
C493 C219 1.399 . S
C508 C135 1.399 . S
C543 C149 1.399 . S
C558 C177 1.400 . S
C593 C163 1.399 . S
C608 C191 1.400 . S
C643 C7 1.416 . S
C658 C73 1.475 . S
C693 C21 1.415 . S
C708 C59 1.475 . S
C743 C35 1.417 . S
C758 C101 1.475 . S
C793 C87 1.475 . S
C808 C49 1.417 . S
C843 C185 1.475 . S
C858 C119 1.415 . S
C893 C171 1.475 . S
C908 C133 1.417 . S
C943 C147 1.416 . S
C958 C213 1.475 . S
C993 C199 1.475 . S
C1008 C161 1.416 . S
C1043 C176 1.356 . S
C1058 C8 1.350 . S
C1093 C22 1.350 . S
C1108 C190 1.356 . S
C1143 C204 1.356 . S
C1158 C36 1.350 . S
C1193 C218 1.356 . S
C1208 C50 1.350 . S
C1243 C120 1.350 . S
C1258 C64 1.356 . S
C1293 C134 1.350 . S
C1308 C78 1.356 . S
C1343 C92 1.356 . S
C1358 C148 1.350 . S
C1393 C106 1.356 . S
C1408 C162 1.350 . S
C1443 C31 1.498 . S
C1458 C3 1.498 . S
C1493 C17 1.498 . S
C1508 C45 1.498 . S
C1543 C91 1.405 . S
C1558 C63 1.405 . S
C1593 C77 1.405 . S
C1608 C105 1.404 . S
C1643 C143 1.498 . S
C1658 C115 1.498 . S
C1693 C157 1.498 . S
C1708 C129 1.498 . S
C1743 C203 1.406 . S
C1758 C175 1.405 . S
C1793 C217 1.405 . S
C1808 C189 1.405 . S
