# Generated by pormake.
# Topology zni, (4)-cn, num edge types: 1
# Building blocks:
#     Node 0, Type 0, BuildingBlock: TATPOV_clean_sbu_0, # of connection points: 4
#     Node 1, Type 0, BuildingBlock: TATPOV_clean_sbu_0, # of connection points: 4
#     Node 2, Type 0, BuildingBlock: TATPOV_clean_sbu_0, # of connection points: 4
#     Node 3, Type 0, BuildingBlock: TATPOV_clean_sbu_0, # of connection points: 4
#     Node 4, Type 0, BuildingBlock: TATPOV_clean_sbu_0, # of connection points: 4
#     Node 5, Type 0, BuildingBlock: TATPOV_clean_sbu_0, # of connection points: 4
#     Node 6, Type 0, BuildingBlock: TATPOV_clean_sbu_0, # of connection points: 4
#     Node 7, Type 0, BuildingBlock: TATPOV_clean_sbu_0, # of connection points: 4
#     Node 8, Type 0, BuildingBlock: TATPOV_clean_sbu_0, # of connection points: 4
#     Node 9, Type 0, BuildingBlock: TATPOV_clean_sbu_0, # of connection points: 4
#     Node 10, Type 0, BuildingBlock: TATPOV_clean_sbu_0, # of connection points: 4
#     Node 11, Type 0, BuildingBlock: TATPOV_clean_sbu_0, # of connection points: 4
#     Node 12, Type 0, BuildingBlock: TATPOV_clean_sbu_0, # of connection points: 4
#     Node 13, Type 0, BuildingBlock: TATPOV_clean_sbu_0, # of connection points: 4
#     Node 14, Type 0, BuildingBlock: TATPOV_clean_sbu_0, # of connection points: 4
#     Node 15, Type 0, BuildingBlock: TATPOV_clean_sbu_0, # of connection points: 4
#     Node 16, Type 0, BuildingBlock: TATPOV_clean_sbu_0, # of connection points: 4
#     Node 17, Type 0, BuildingBlock: TATPOV_clean_sbu_0, # of connection points: 4
#     Node 18, Type 0, BuildingBlock: TATPOV_clean_sbu_0, # of connection points: 4
#     Node 19, Type 0, BuildingBlock: TATPOV_clean_sbu_0, # of connection points: 4
#     Node 20, Type 0, BuildingBlock: TATPOV_clean_sbu_0, # of connection points: 4
#     Node 21, Type 0, BuildingBlock: TATPOV_clean_sbu_0, # of connection points: 4
#     Node 22, Type 0, BuildingBlock: TATPOV_clean_sbu_0, # of connection points: 4
#     Node 23, Type 0, BuildingBlock: TATPOV_clean_sbu_0, # of connection points: 4
#     Node 24, Type 0, BuildingBlock: TATPOV_clean_sbu_0, # of connection points: 4
#     Node 25, Type 0, BuildingBlock: TATPOV_clean_sbu_0, # of connection points: 4
#     Node 26, Type 0, BuildingBlock: TATPOV_clean_sbu_0, # of connection points: 4
#     Node 27, Type 0, BuildingBlock: TATPOV_clean_sbu_0, # of connection points: 4
#     Node 28, Type 0, BuildingBlock: TATPOV_clean_sbu_0, # of connection points: 4
#     Node 29, Type 0, BuildingBlock: TATPOV_clean_sbu_0, # of connection points: 4
#     Node 30, Type 0, BuildingBlock: TATPOV_clean_sbu_0, # of connection points: 4
#     Node 31, Type 0, BuildingBlock: TATPOV_clean_sbu_0, # of connection points: 4
#     Edge 32, Type (0, 0), BuildingBlock: AJUNOK_clean_linker_0, # of connection points: 2
#     Edge 33, Type (0, 0), BuildingBlock: AJUNOK_clean_linker_0, # of connection points: 2
#     Edge 34, Type (0, 0), BuildingBlock: AJUNOK_clean_linker_0, # of connection points: 2
#     Edge 35, Type (0, 0), BuildingBlock: AJUNOK_clean_linker_0, # of connection points: 2
#     Edge 36, Type (0, 0), BuildingBlock: AJUNOK_clean_linker_0, # of connection points: 2
#     Edge 37, Type (0, 0), BuildingBlock: AJUNOK_clean_linker_0, # of connection points: 2
#     Edge 38, Type (0, 0), BuildingBlock: AJUNOK_clean_linker_0, # of connection points: 2
#     Edge 39, Type (0, 0), BuildingBlock: AJUNOK_clean_linker_0, # of connection points: 2
#     Edge 40, Type (0, 0), BuildingBlock: AJUNOK_clean_linker_0, # of connection points: 2
#     Edge 41, Type (0, 0), BuildingBlock: AJUNOK_clean_linker_0, # of connection points: 2
#     Edge 42, Type (0, 0), BuildingBlock: AJUNOK_clean_linker_0, # of connection points: 2
#     Edge 43, Type (0, 0), BuildingBlock: AJUNOK_clean_linker_0, # of connection points: 2
#     Edge 44, Type (0, 0), BuildingBlock: AJUNOK_clean_linker_0, # of connection points: 2
#     Edge 45, Type (0, 0), BuildingBlock: AJUNOK_clean_linker_0, # of connection points: 2
#     Edge 46, Type (0, 0), BuildingBlock: AJUNOK_clean_linker_0, # of connection points: 2
#     Edge 47, Type (0, 0), BuildingBlock: AJUNOK_clean_linker_0, # of connection points: 2
#     Edge 48, Type (0, 0), BuildingBlock: AJUNOK_clean_linker_0, # of connection points: 2
#     Edge 49, Type (0, 0), BuildingBlock: AJUNOK_clean_linker_0, # of connection points: 2
#     Edge 50, Type (0, 0), BuildingBlock: AJUNOK_clean_linker_0, # of connection points: 2
#     Edge 51, Type (0, 0), BuildingBlock: AJUNOK_clean_linker_0, # of connection points: 2
#     Edge 52, Type (0, 0), BuildingBlock: AJUNOK_clean_linker_0, # of connection points: 2
#     Edge 53, Type (0, 0), BuildingBlock: AJUNOK_clean_linker_0, # of connection points: 2
#     Edge 54, Type (0, 0), BuildingBlock: AJUNOK_clean_linker_0, # of connection points: 2
#     Edge 55, Type (0, 0), BuildingBlock: AJUNOK_clean_linker_0, # of connection points: 2
#     Edge 56, Type (0, 0), BuildingBlock: AJUNOK_clean_linker_0, # of connection points: 2
#     Edge 57, Type (0, 0), BuildingBlock: AJUNOK_clean_linker_0, # of connection points: 2
#     Edge 58, Type (0, 0), BuildingBlock: AJUNOK_clean_linker_0, # of connection points: 2
#     Edge 59, Type (0, 0), BuildingBlock: AJUNOK_clean_linker_0, # of connection points: 2
#     Edge 60, Type (0, 0), BuildingBlock: AJUNOK_clean_linker_0, # of connection points: 2
#     Edge 61, Type (0, 0), BuildingBlock: AJUNOK_clean_linker_0, # of connection points: 2
#     Edge 62, Type (0, 0), BuildingBlock: AJUNOK_clean_linker_0, # of connection points: 2
#     Edge 63, Type (0, 0), BuildingBlock: AJUNOK_clean_linker_0, # of connection points: 2
#     Edge 64, Type (0, 0), BuildingBlock: AJUNOK_clean_linker_0, # of connection points: 2
#     Edge 65, Type (0, 0), BuildingBlock: AJUNOK_clean_linker_0, # of connection points: 2
#     Edge 66, Type (0, 0), BuildingBlock: AJUNOK_clean_linker_0, # of connection points: 2
#     Edge 67, Type (0, 0), BuildingBlock: AJUNOK_clean_linker_0, # of connection points: 2
#     Edge 68, Type (0, 0), BuildingBlock: AJUNOK_clean_linker_0, # of connection points: 2
#     Edge 69, Type (0, 0), BuildingBlock: AJUNOK_clean_linker_0, # of connection points: 2
#     Edge 70, Type (0, 0), BuildingBlock: AJUNOK_clean_linker_0, # of connection points: 2
#     Edge 71, Type (0, 0), BuildingBlock: AJUNOK_clean_linker_0, # of connection points: 2
#     Edge 72, Type (0, 0), BuildingBlock: AJUNOK_clean_linker_0, # of connection points: 2
#     Edge 73, Type (0, 0), BuildingBlock: AJUNOK_clean_linker_0, # of connection points: 2
#     Edge 74, Type (0, 0), BuildingBlock: AJUNOK_clean_linker_0, # of connection points: 2
#     Edge 75, Type (0, 0), BuildingBlock: AJUNOK_clean_linker_0, # of connection points: 2
#     Edge 76, Type (0, 0), BuildingBlock: AJUNOK_clean_linker_0, # of connection points: 2
#     Edge 77, Type (0, 0), BuildingBlock: AJUNOK_clean_linker_0, # of connection points: 2
#     Edge 78, Type (0, 0), BuildingBlock: AJUNOK_clean_linker_0, # of connection points: 2
#     Edge 79, Type (0, 0), BuildingBlock: AJUNOK_clean_linker_0, # of connection points: 2
#     Edge 80, Type (0, 0), BuildingBlock: AJUNOK_clean_linker_0, # of connection points: 2
#     Edge 81, Type (0, 0), BuildingBlock: AJUNOK_clean_linker_0, # of connection points: 2
#     Edge 82, Type (0, 0), BuildingBlock: AJUNOK_clean_linker_0, # of connection points: 2
#     Edge 83, Type (0, 0), BuildingBlock: AJUNOK_clean_linker_0, # of connection points: 2
#     Edge 84, Type (0, 0), BuildingBlock: AJUNOK_clean_linker_0, # of connection points: 2
#     Edge 85, Type (0, 0), BuildingBlock: AJUNOK_clean_linker_0, # of connection points: 2
#     Edge 86, Type (0, 0), BuildingBlock: AJUNOK_clean_linker_0, # of connection points: 2
#     Edge 87, Type (0, 0), BuildingBlock: AJUNOK_clean_linker_0, # of connection points: 2
#     Edge 88, Type (0, 0), BuildingBlock: AJUNOK_clean_linker_0, # of connection points: 2
#     Edge 89, Type (0, 0), BuildingBlock: AJUNOK_clean_linker_0, # of connection points: 2
#     Edge 90, Type (0, 0), BuildingBlock: AJUNOK_clean_linker_0, # of connection points: 2
#     Edge 91, Type (0, 0), BuildingBlock: AJUNOK_clean_linker_0, # of connection points: 2
#     Edge 92, Type (0, 0), BuildingBlock: AJUNOK_clean_linker_0, # of connection points: 2
#     Edge 93, Type (0, 0), BuildingBlock: AJUNOK_clean_linker_0, # of connection points: 2
#     Edge 94, Type (0, 0), BuildingBlock: AJUNOK_clean_linker_0, # of connection points: 2
#     Edge 95, Type (0, 0), BuildingBlock: AJUNOK_clean_linker_0, # of connection points: 2
# Relax obj value: 0.193
# Max RMSD: 0.113
# Mean RMSD: 0.113
data_MOF--net-zni--node1-TATPOV_clean_sbu_0--edge1-AJUNOK_clean_linker_0
_symmetry_space_group_name_H-M    P1
_symmetry_Int_Tables_number       1
_symmetry_cell_setting            triclinic
loop_
_symmetry_equiv_pos_as_xyz
'x, y, z'
_cell_length_a     41.679671
_cell_length_b     41.791334
_cell_length_c     24.138539
_cell_angle_alpha  90.024723
_cell_angle_beta   90.235095
_cell_angle_gamma 89.923352
loop_
_atom_site_label
_atom_site_type_symbol
_atom_site_fract_x
_atom_site_fract_y
_atom_site_fract_z
_atom_type_partial_charge
Zn0 Zn 0.08511 0.12532 0.46923 0.0
Zn1 Zn 0.10535 0.08879 0.38917 0.0
O2 O 0.13095 0.07254 0.45819 0.0
O3 O 0.10728 0.09874 0.52577 0.0
O4 O 0.11502 0.05534 0.33125 0.0
O5 O 0.03835 0.11892 0.45481 0.0
O6 O 0.05531 0.08812 0.38722 0.0
C7 C 0.12746 0.0782 0.50969 0.0
C8 C 0.12232 0.15893 0.38521 0.0
O9 O 0.12265 0.13188 0.36068 0.0
O10 O 0.10891 0.16175 0.43203 0.0
C11 C 0.13715 0.05506 0.2952 0.0
O12 O 0.15729 0.07917 0.29283 0.0
C13 C 0.03227 0.10079 0.41424 0.0
Zn14 Zn 0.12302 0.8315 0.72482 0.0
Zn15 Zn 0.15447 0.8529 0.64112 0.0
O16 O 0.1705 0.88036 0.70788 0.0
O17 O 0.15213 0.8531 0.77867 0.0
O18 O 0.18486 0.86311 0.57882 0.0
O19 O 0.1284 0.78486 0.70928 0.0
O20 O 0.15677 0.803 0.63971 0.0
C21 C 0.16864 0.87599 0.76003 0.0
C22 C 0.08447 0.86827 0.64552 0.0
O23 O 0.10998 0.86814 0.61659 0.0
O24 O 0.08439 0.85559 0.69327 0.0
C25 C 0.19916 0.88916 0.56772 0.0
O26 O 0.1934 0.91464 0.59802 0.0
C27 C 0.14537 0.77949 0.66705 0.0
Zn28 Zn 0.40424 0.86469 0.9678 0.0
Zn29 Zn 0.38223 0.89823 0.88428 0.0
O30 O 0.35636 0.91565 0.95168 0.0
O31 O 0.38083 0.89207 0.02155 0.0
O32 O 0.37052 0.92803 0.82138 0.0
O33 O 0.4505 0.87305 0.95208 0.0
O34 O 0.43212 0.90163 0.88254 0.0
C35 C 0.36004 0.91156 0.00359 0.0
C36 C 0.36922 0.82689 0.88653 0.0
O37 O 0.36753 0.85329 0.86014 0.0
O38 O 0.38245 0.82592 0.93389 0.0
C39 C 0.34817 0.94879 0.8211 0.0
O40 O 0.32877 0.95063 0.86374 0.0
C41 C 0.45575 0.89041 0.91024 0.0
Zn42 Zn 0.3708 0.1601 0.22219 0.0
Zn43 Zn 0.33818 0.1385 0.13934 0.0
O44 O 0.32156 0.11252 0.20727 0.0
O45 O 0.34204 0.13952 0.277 0.0
O46 O 0.30674 0.12725 0.07867 0.0
O47 O 0.36533 0.20645 0.20553 0.0
O48 O 0.33631 0.18844 0.13611 0.0
C49 C 0.32409 0.11743 0.2592 0.0
C50 C 0.40827 0.12233 0.14363 0.0
O51 O 0.38245 0.1223 0.11511 0.0
O52 O 0.40893 0.13558 0.19091 0.0
C53 C 0.30259 0.10042 0.05485 0.0
O54 O 0.32077 0.07602 0.06892 0.0
C55 C 0.34812 0.21186 0.16338 0.0
Zn56 Zn 0.08266 0.87146 0.97919 0.0
Zn57 Zn 0.10671 0.90328 0.06236 0.0
O58 O 0.13235 0.91933 -0.00621 0.0
O59 O 0.10386 0.90022 0.92457 0.0
O60 O 0.11926 0.93265 0.12565 0.0
O61 O 0.03657 0.87841 -0.00188 0.0
O62 O 0.0568 0.9065 0.0667 0.0
C63 C 0.12685 0.91723 0.94196 0.0
C64 C 0.12093 0.83273 0.05599 0.0
O65 O 0.12216 0.85845 0.08437 0.0
O66 O 0.10663 0.83249 0.00949 0.0
C67 C 0.13672 0.95752 0.12222 0.0
O68 O 0.15027 0.96448 0.07471 0.0
C69 C 0.03245 0.8956 0.04054 0.0
Zn70 Zn 0.37633 0.84032 0.2318 0.0
Zn71 Zn 0.33963 0.861 0.31271 0.0
O72 O 0.32267 0.88775 0.24592 0.0
O73 O 0.34974 0.86499 0.17825 0.0
O74 O 0.30798 0.86892 0.37407 0.0
O75 O 0.36782 0.79369 0.24346 0.0
O76 O 0.3372 0.81137 0.31062 0.0
C77 C 0.32894 0.8849 0.19453 0.0
C78 C 0.41089 0.87537 0.31759 0.0
O79 O 0.38356 0.87675 0.3411 0.0
O80 O 0.41366 0.86194 0.27075 0.0
C81 C 0.29583 0.89454 0.39308 0.0
O82 O 0.30488 0.92223 0.37273 0.0
C83 C 0.34893 0.78809 0.28307 0.0
Zn84 Zn 0.40316 0.1246 0.49099 0.0
Zn85 Zn 0.38066 0.08879 0.56899 0.0
O86 O 0.35474 0.07498 0.49892 0.0
O87 O 0.38151 0.09887 0.43252 0.0
O88 O 0.37035 0.05441 0.62446 0.0
O89 O 0.44966 0.11766 0.50723 0.0
O90 O 0.43051 0.08674 0.57256 0.0
C91 C 0.3595 0.08006 0.44759 0.0
C92 C 0.36576 0.15884 0.57493 0.0
O93 O 0.36456 0.1318 0.59934 0.0
O94 O 0.37942 0.16128 0.52825 0.0
C95 C 0.34688 0.05142 0.65741 0.0
O96 O 0.32454 0.07362 0.6586 0.0
C97 C 0.45444 0.09914 0.54778 0.0
Zn98 Zn 0.11608 0.15139 0.74176 0.0
Zn99 Zn 0.15124 0.12891 0.82198 0.0
O100 O 0.16662 0.10301 0.75295 0.0
O101 O 0.14292 0.12952 0.68551 0.0
O102 O 0.18263 0.11778 0.8831 0.0
O103 O 0.12339 0.1976 0.75834 0.0
O104 O 0.15443 0.17869 0.8243 0.0
C105 C 0.16191 0.10776 0.70141 0.0
C106 C 0.08027 0.11444 0.82257 0.0
O107 O 0.10698 0.11363 0.84852 0.0
O108 O 0.07831 0.128 0.77572 0.0
C109 C 0.20291 0.095 0.88447 0.0
O110 O 0.20351 0.07421 0.84368 0.0
C111 C 0.14216 0.20249 0.79867 0.0
Zn112 Zn 0.90408 0.85889 0.50529 0.0
Zn113 Zn 0.88362 0.89347 0.58824 0.0
O114 O 0.85693 0.91124 0.52167 0.0
O115 O 0.87994 0.88611 0.45212 0.0
O116 O 0.87475 0.92475 0.64981 0.0
O117 O 0.95076 0.86681 0.51868 0.0
O118 O 0.93339 0.89619 0.58766 0.0
C119 C 0.85987 0.90632 0.46984 0.0
C120 C 0.86964 0.82241 0.58869 0.0
O121 O 0.86849 0.84901 0.6146 0.0
O122 O 0.88236 0.82092 0.54114 0.0
C123 C 0.84843 0.93739 0.6648 0.0
O124 O 0.82154 0.92842 0.64086 0.0
C125 C 0.95662 0.88466 0.55975 0.0
Zn126 Zn 0.8696 0.15704 0.23891 0.0
Zn127 Zn 0.83547 0.13524 0.32044 0.0
O128 O 0.82004 0.10879 0.25225 0.0
O129 O 0.84271 0.13436 0.1832 0.0
O130 O 0.80314 0.12346 0.37901 0.0
O131 O 0.86176 0.20332 0.25409 0.0
O132 O 0.83262 0.1851 0.32275 0.0
C133 C 0.82411 0.11273 0.20044 0.0
C134 C 0.90638 0.12106 0.32132 0.0
O135 O 0.87975 0.11987 0.34704 0.0
O136 O 0.90786 0.1344 0.27421 0.0
C137 C 0.80903 0.11185 0.42661 0.0
O138 O 0.83887 0.10549 0.44053 0.0
C139 C 0.84404 0.20861 0.29541 0.0
Zn140 Zn 0.58771 0.12673 0.00075 0.0
Zn141 Zn 0.60834 0.09087 0.08077 0.0
O142 O 0.63359 0.0746 0.01171 0.0
O143 O 0.60808 0.09909 0.94399 0.0
O144 O 0.61805 0.05715 0.13833 0.0
O145 O 0.54106 0.12174 0.01652 0.0
O146 O 0.55835 0.08997 0.08259 0.0
C147 C 0.62897 0.07921 0.96012 0.0
C148 C 0.62625 0.16068 0.08298 0.0
O149 O 0.6257 0.13414 0.10912 0.0
O150 O 0.61299 0.163 0.03578 0.0
C151 C 0.64004 0.05614 0.1749 0.0
O152 O 0.66046 0.07996 0.17879 0.0
C153 C 0.53517 0.10326 0.0566 0.0
Zn154 Zn 0.62188 0.83366 0.74959 0.0
Zn155 Zn 0.65392 0.85786 0.8311 0.0
O156 O 0.66858 0.8828 0.76064 0.0
O157 O 0.65004 0.85319 0.69261 0.0
O158 O 0.68466 0.872 0.89205 0.0
O159 O 0.62816 0.78794 0.77003 0.0
O160 O 0.65757 0.80798 0.83721 0.0
C161 C 0.66656 0.87668 0.70904 0.0
C162 C 0.58325 0.87211 0.82513 0.0
O163 O 0.60893 0.87296 0.85406 0.0
O164 O 0.58312 0.8582 0.77842 0.0
C165 C 0.70917 0.88965 0.88464 0.0
O166 O 0.71453 0.90146 0.83516 0.0
C167 C 0.64583 0.78373 0.81204 0.0
Zn168 Zn 0.90448 0.12223 0.97842 0.0
Zn169 Zn 0.88144 0.08976 0.89554 0.0
O170 O 0.85555 0.07296 0.96302 0.0
O171 O 0.88312 0.09318 0.03242 0.0
O172 O 0.87103 0.05895 0.8337 0.0
O173 O 0.95086 0.11581 0.96085 0.0
O174 O 0.93126 0.08686 0.89294 0.0
C175 C 0.86081 0.07537 0.01485 0.0
C176 C 0.86659 0.16024 0.89996 0.0
O177 O 0.86571 0.13439 0.87185 0.0
O178 O 0.88043 0.16072 0.94687 0.0
C179 C 0.84762 0.0396 0.82971 0.0
O180 O 0.82458 0.04055 0.86665 0.0
C181 C 0.95538 0.09825 0.91898 0.0
Zn182 Zn 0.61552 0.15331 0.72686 0.0
Zn183 Zn 0.65031 0.13025 0.64699 0.0
O184 O 0.6654 0.1043 0.71618 0.0
O185 O 0.64243 0.13134 0.78342 0.0
O186 O 0.68093 0.11705 0.58657 0.0
O187 O 0.62374 0.19923 0.70908 0.0
O188 O 0.6549 0.1799 0.64402 0.0
C189 C 0.66109 0.10932 0.76766 0.0
C190 C 0.57911 0.11668 0.64606 0.0
O191 O 0.60575 0.11573 0.62034 0.0
O192 O 0.57734 0.13019 0.69298 0.0
C193 C 0.71073 0.11428 0.5971 0.0
O194 O 0.72069 0.11812 0.64838 0.0
C195 C 0.64282 0.20386 0.66933 0.0
Zn196 Zn 0.5848 0.86737 0.48065 0.0
Zn197 Zn 0.60862 0.90023 0.39887 0.0
O198 O 0.63401 0.9158 0.46855 0.0
O199 O 0.60587 0.89534 0.53664 0.0
O200 O 0.62136 0.93051 0.33704 0.0
O201 O 0.53881 0.87481 0.46164 0.0
O202 O 0.55871 0.90385 0.39423 0.0
C203 C 0.62847 0.91302 0.52018 0.0
C204 C 0.62246 0.82935 0.40283 0.0
O205 O 0.62371 0.85537 0.37529 0.0
O206 O 0.60846 0.8287 0.44937 0.0
C207 C 0.6384 0.95558 0.34254 0.0
O208 O 0.65133 0.96195 0.391 0.0
C209 C 0.5345 0.89266 0.42006 0.0
Zn210 Zn 0.87773 0.84049 0.23154 0.0
Zn211 Zn 0.83895 0.86228 0.15386 0.0
O212 O 0.82362 0.88739 0.22355 0.0
O213 O 0.85296 0.86426 0.28832 0.0
O214 O 0.80566 0.87306 0.09565 0.0
O215 O 0.86845 0.79423 0.21724 0.0
O216 O 0.83597 0.8126 0.15289 0.0
C217 C 0.83145 0.88403 0.27429 0.0
C218 C 0.91046 0.87656 0.14619 0.0
O219 O 0.8826 0.87817 0.12421 0.0
O220 O 0.91431 0.86255 0.19229 0.0
C221 C 0.80808 0.8931 0.05629 0.0
O222 O 0.83441 0.91012 0.05192 0.0
C223 C 0.84861 0.78902 0.17856 0.0
Zn224 Zn 0.59213 0.62113 -0.01289 0.0
Zn225 Zn 0.61401 0.58753 0.90436 0.0
O226 O 0.6409 0.57047 0.97124 0.0
O227 O 0.61511 0.593 0.04043 0.0
O228 O 0.62375 0.55746 0.84086 0.0
O229 O 0.54558 0.61374 0.97229 0.0
O230 O 0.56407 0.58416 0.90435 0.0
C231 C 0.63663 0.5742 0.02309 0.0
C232 C 0.62828 0.65859 0.90724 0.0
O233 O 0.62913 0.63236 0.88017 0.0
O234 O 0.61485 0.65965 0.95424 0.0
C235 C 0.64762 0.53891 0.83398 0.0
O236 O 0.67138 0.53949 0.86989 0.0
C237 C 0.5404 0.59545 0.93157 0.0
Zn238 Zn 0.62034 0.33848 0.23046 0.0
Zn239 Zn 0.65608 0.35919 0.1499 0.0
O240 O 0.67241 0.38515 0.21825 0.0
O241 O 0.64794 0.36028 0.28632 0.0
O242 O 0.68855 0.36951 0.09065 0.0
O243 O 0.62666 0.2919 0.21487 0.0
O244 O 0.65808 0.30932 0.14874 0.0
C245 C 0.66769 0.3811 0.26988 0.0
C246 C 0.58543 0.37573 0.14785 0.0
O247 O 0.61216 0.37558 0.12224 0.0
O248 O 0.58319 0.3626 0.19501 0.0
C249 C 0.68676 0.39133 0.05409 0.0
O250 O 0.66167 0.41038 0.05339 0.0
C251 C 0.64526 0.28609 0.17489 0.0
Zn252 Zn 0.90517 0.36628 0.47343 0.0
Zn253 Zn 0.88349 0.4025 0.39425 0.0
O254 O 0.85877 0.41849 0.46404 0.0
O255 O 0.88441 0.39328 0.53085 0.0
O256 O 0.873 0.4357 0.33629 0.0
O257 O 0.95168 0.37224 0.45716 0.0
O258 O 0.9335 0.40325 0.39063 0.0
C259 C 0.86349 0.41334 0.51546 0.0
C260 C 0.86625 0.33253 0.39111 0.0
O261 O 0.86571 0.35949 0.36636 0.0
O262 O 0.88037 0.32982 0.43752 0.0
C263 C 0.84656 0.44069 0.31127 0.0
O264 O 0.82181 0.42235 0.32214 0.0
C265 C 0.95702 0.3905 0.41657 0.0
Zn266 Zn 0.88458 0.64081 0.7228 0.0
Zn267 Zn 0.8437 0.62293 0.64528 0.0
O268 O 0.82807 0.59726 0.71414 0.0
O269 O 0.86066 0.61586 0.7787 0.0
O270 O 0.8085 0.61531 0.58939 0.0
O271 O 0.87646 0.68788 0.713 0.0
O272 O 0.84306 0.6726 0.64759 0.0
C273 C 0.83765 0.598 0.7643 0.0
C274 C 0.914 0.60539 0.63293 0.0
O275 O 0.88592 0.60561 0.61161 0.0
O276 O 0.91913 0.61835 0.67956 0.0
C277 C 0.80313 0.59091 0.55938 0.0
O278 O 0.82288 0.56641 0.56177 0.0
C279 C 0.8566 0.6949 0.67518 0.0
Zn280 Zn 0.59229 0.36594 0.49465 0.0
Zn281 Zn 0.6123 0.40004 0.5777 0.0
O282 O 0.63919 0.41723 0.51113 0.0
O283 O 0.61469 0.39394 0.44104 0.0
O284 O 0.62084 0.43171 0.63933 0.0
O285 O 0.5454 0.37184 0.50739 0.0
O286 O 0.56224 0.40151 0.57668 0.0
C287 C 0.63558 0.41322 0.45912 0.0
C288 C 0.62871 0.32974 0.57682 0.0
O289 O 0.62857 0.35597 0.60392 0.0
O290 O 0.61587 0.32834 0.52918 0.0
C291 C 0.64718 0.4415 0.65992 0.0
O292 O 0.67432 0.42939 0.64198 0.0
C293 C 0.53923 0.38954 0.5484 0.0
Zn294 Zn 0.8727 0.33642 0.74691 0.0
Zn295 Zn 0.84048 0.36026 0.82805 0.0
O296 O 0.82571 0.3857 0.75779 0.0
O297 O 0.84472 0.35644 0.68983 0.0
O298 O 0.80994 0.37411 0.88907 0.0
O299 O 0.86627 0.29061 0.76646 0.0
O300 O 0.83677 0.31036 0.83344 0.0
C301 C 0.82798 0.37979 0.70616 0.0
C302 C 0.91124 0.37426 0.82353 0.0
O303 O 0.8855 0.37506 0.8519 0.0
O304 O 0.9115 0.36057 0.77664 0.0
C305 C 0.78363 0.38889 0.88056 0.0
O306 O 0.7761 0.39756 0.82988 0.0
C307 C 0.84855 0.28623 0.80808 0.0
Zn308 Zn 0.89846 0.6299 0.00171 0.0
Zn309 Zn 0.87951 0.59281 0.0832 0.0
O310 O 0.85486 0.57432 0.01469 0.0
O311 O 0.8746 0.60376 0.94722 0.0
O312 O 0.86955 0.56141 0.14459 0.0
O313 O 0.94523 0.62193 0.0148 0.0
O314 O 0.92953 0.59134 0.08359 0.0
C315 C 0.85651 0.58146 0.96347 0.0
C316 C 0.86252 0.66383 0.08514 0.0
O317 O 0.86239 0.63679 0.10974 0.0
O318 O 0.87588 0.66679 0.03841 0.0
C319 C 0.84496 0.54345 0.14729 0.0
O320 O 0.82256 0.546 0.10913 0.0
C321 C 0.95203 0.60368 0.05491 0.0
Zn322 Zn 0.61775 0.65309 0.24803 0.0
Zn323 Zn 0.65017 0.62998 0.33214 0.0
O324 O 0.66823 0.60502 0.26429 0.0
O325 O 0.64637 0.63086 0.19433 0.0
O326 O 0.67968 0.6178 0.39539 0.0
O327 O 0.62527 0.6991 0.2668 0.0
O328 O 0.65294 0.6797 0.33671 0.0
C329 C 0.66525 0.60954 0.21236 0.0
C330 C 0.57899 0.6164 0.32583 0.0
O331 O 0.60508 0.61456 0.35349 0.0
O332 O 0.57862 0.63032 0.27914 0.0
C333 C 0.69968 0.59478 0.39602 0.0
O334 O 0.70064 0.57501 0.35374 0.0
C335 C 0.64191 0.70369 0.30995 0.0
Zn336 Zn 0.4102 0.37104 -0.01162 0.0
Zn337 Zn 0.38736 0.40628 0.06776 0.0
O338 O 0.36257 0.422 -0.00218 0.0
O339 O 0.38924 0.39831 0.93096 0.0
O340 O 0.37512 0.43868 0.12587 0.0
O341 O 0.45646 0.3776 0.00733 0.0
O342 O 0.43728 0.40822 0.07326 0.0
C343 C 0.3676 0.41751 0.94639 0.0
C344 C 0.37155 0.33592 0.06857 0.0
O345 O 0.37056 0.36269 0.09388 0.0
O346 O 0.38576 0.33376 0.02235 0.0
C347 C 0.35209 0.43711 0.16012 0.0
O348 O 0.33305 0.4121 0.15921 0.0
C349 C 0.46123 0.39568 0.0485 0.0
Zn350 Zn 0.38335 0.64707 0.74601 0.0
Zn351 Zn 0.34503 0.62705 0.82485 0.0
O352 O 0.32835 0.60199 0.75568 0.0
O353 O 0.35854 0.62269 0.69008 0.0
O354 O 0.31143 0.61789 0.88263 0.0
O355 O 0.37462 0.69369 0.7581 0.0
O356 O 0.34347 0.6768 0.82513 0.0
C357 C 0.33638 0.604 0.70493 0.0
C358 C 0.41608 0.61131 0.83251 0.0
O359 O 0.38842 0.6101 0.85496 0.0
O360 O 0.41967 0.62509 0.78621 0.0
C361 C 0.30565 0.59204 0.90844 0.0
O362 O 0.3236 0.56675 0.89915 0.0
C363 C 0.35578 0.69976 0.79762 0.0
Zn364 Zn 0.08829 0.62223 0.48034 0.0
Zn365 Zn 0.1108 0.58527 0.55873 0.0
O366 O 0.13767 0.57162 0.49017 0.0
O367 O 0.11197 0.59706 0.42363 0.0
O368 O 0.12126 0.55168 0.61608 0.0
O369 O 0.04186 0.61328 0.49395 0.0
O370 O 0.06108 0.58129 0.55797 0.0
C371 C 0.13357 0.57769 0.43892 0.0
C372 C 0.12407 0.65622 0.56636 0.0
O373 O 0.1256 0.62884 0.5896 0.0
O374 O 0.11053 0.65917 0.51949 0.0
C375 C 0.13978 0.55364 0.65787 0.0
O376 O 0.15599 0.58016 0.66628 0.0
C377 C 0.0371 0.59335 0.53238 0.0
Zn378 Zn 0.11667 0.33542 0.23506 0.0
Zn379 Zn 0.15252 0.35619 0.31713 0.0
O380 O 0.16969 0.38219 0.24981 0.0
O381 O 0.14374 0.35899 0.18111 0.0
O382 O 0.18356 0.36588 0.37926 0.0
O383 O 0.12461 0.2889 0.24897 0.0
O384 O 0.15458 0.30638 0.31759 0.0
C385 C 0.16423 0.37902 0.19814 0.0
C386 C 0.08134 0.37112 0.3187 0.0
O387 O 0.10843 0.37224 0.34338 0.0
O388 O 0.07896 0.35775 0.27169 0.0
C389 C 0.20182 0.39 0.38522 0.0
O390 O 0.20023 0.4135 0.34917 0.0
C391 C 0.14272 0.28317 0.28987 0.0
Zn392 Zn 0.39917 0.62972 0.46416 0.0
Zn393 Zn 0.37789 0.59205 0.38468 0.0
O394 O 0.35341 0.57588 0.4548 0.0
O395 O 0.37503 0.60552 0.52058 0.0
O396 O 0.36639 0.56026 0.32432 0.0
O397 O 0.44545 0.61994 0.45065 0.0
O398 O 0.42785 0.58934 0.38299 0.0
C399 C 0.3559 0.58372 0.50564 0.0
C400 C 0.36362 0.66351 0.37929 0.0
O401 O 0.36186 0.63601 0.35644 0.0
O402 O 0.37765 0.66674 0.42559 0.0
C403 C 0.34704 0.53686 0.32896 0.0
O404 O 0.33113 0.53322 0.37535 0.0
C405 C 0.45111 0.60124 0.41072 0.0
Zn406 Zn 0.1208 0.65742 0.21128 0.0
Zn407 Zn 0.15215 0.63356 0.12869 0.0
O408 O 0.16908 0.60895 0.19822 0.0
O409 O 0.14944 0.63705 0.26711 0.0
O410 O 0.1826 0.62024 0.06761 0.0
O411 O 0.12724 0.7032 0.19169 0.0
O412 O 0.15473 0.68338 0.12225 0.0
C413 C 0.16708 0.61458 0.24995 0.0
C414 C 0.08135 0.61991 0.13497 0.0
O415 O 0.10706 0.61813 0.10661 0.0
O416 O 0.08158 0.63388 0.18165 0.0
C417 C 0.20098 0.59587 0.06832 0.0
O418 O 0.19911 0.57567 0.10984 0.0
C419 C 0.14357 0.70752 0.14839 0.0
Zn420 Zn 0.09016 0.36605 0.96951 0.0
Zn421 Zn 0.11226 0.39945 0.88754 0.0
O422 O 0.13852 0.4155 0.95612 0.0
O423 O 0.11169 0.39397 0.02485 0.0
O424 O 0.12392 0.42946 0.82481 0.0
O425 O 0.04387 0.37292 0.95225 0.0
O426 O 0.06228 0.40301 0.88504 0.0
C427 C 0.13367 0.41224 0.00789 0.0
C428 C 0.12677 0.32857 0.89049 0.0
O429 O 0.12721 0.35465 0.86307 0.0
O430 O 0.11367 0.32764 0.93776 0.0
C431 C 0.13906 0.45571 0.83015 0.0
O432 O 0.15057 0.46362 0.879 0.0
C433 C 0.03863 0.39105 0.91134 0.0
Zn434 Zn 0.37644 0.33594 0.72271 0.0
Zn435 Zn 0.34219 0.35718 0.6404 0.0
O436 O 0.32676 0.38506 0.70683 0.0
O437 O 0.34958 0.35985 0.77661 0.0
O438 O 0.31005 0.36609 0.57979 0.0
O439 O 0.36856 0.28935 0.71042 0.0
O440 O 0.33908 0.30742 0.6417 0.0
C441 C 0.33104 0.3815 0.75876 0.0
C442 C 0.41298 0.3708 0.63883 0.0
O443 O 0.3863 0.37198 0.61282 0.0
O444 O 0.41448 0.35786 0.68631 0.0
C445 C 0.30148 0.39194 0.55628 0.0
O446 O 0.3155 0.41892 0.57018 0.0
C447 C 0.35028 0.28396 0.66963 0.0
C448 C 0.15792 0.03162 0.20651 0.0
C449 C 0.13878 0.02855 0.25411 0.0
C450 C 0.15786 0.00808 0.16499 0.0
C451 C 0.1388 0.98038 0.16944 0.0
H452 H 0.17246 0.05277 0.20038 0.0
H453 H 0.1724 0.01206 0.12857 0.0
S454 S 0.08656 0.95935 0.28841 0.0
N455 N 0.10185 0.99448 0.30502 0.0
N456 N 0.1018 0.95037 0.22737 0.0
C457 C 0.12056 0.97638 0.21797 0.0
C458 C 0.12052 0.00041 0.26012 0.0
C459 C 0.2369 0.9194 0.50578 0.0
C460 C 0.2233 0.89012 0.52244 0.0
C461 C 0.26018 0.9207 0.46386 0.0
C462 C 0.27101 0.89275 0.43718 0.0
H463 H 0.22954 0.94158 0.52519 0.0
H464 H 0.26989 0.94382 0.45264 0.0
S465 S 0.24301 0.80985 0.46521 0.0
N466 N 0.22242 0.83239 0.50849 0.0
N467 N 0.26597 0.83479 0.43037 0.0
C468 C 0.25753 0.86328 0.45341 0.0
C469 C 0.23376 0.86199 0.49577 0.0
C470 C 0.32386 0.02317 0.74003 0.0
C471 C 0.34588 0.02369 0.696 0.0
C472 C 0.32409 -0.00165 0.77921 0.0
C473 C 0.34631 0.97298 0.77597 0.0
H474 H 0.30677 0.04248 0.74521 0.0
H475 H 0.30713 -0.00046 0.81301 0.0
S476 S 0.40716 0.96139 0.66558 0.0
N477 N 0.38915 -0.0047 0.64933 0.0
N478 N 0.38955 0.94888 0.72266 0.0
C479 C 0.36764 0.97254 0.73085 0.0
C480 C 0.36745 -0.00218 0.69103 0.0
C481 C 0.23031 0.12065 0.96528 0.0
C482 C 0.2276 0.09432 0.92917 0.0
C483 C 0.25443 0.12211 0.00564 0.0
C484 C 0.27691 0.09721 0.01223 0.0
H485 H 0.21401 0.14077 0.96189 0.0
H486 H 0.25544 0.14317 0.03178 0.0
S487 S 0.27964 0.02206 0.93014 0.0
N488 N 0.24901 0.04213 0.90379 0.0
N489 N 0.2943 0.04479 0.98014 0.0
C490 C 0.27414 0.07032 0.97732 0.0
C491 C 0.24956 0.06891 0.93573 0.0
C492 C 0.81999 0.9731 0.73266 0.0
C493 C 0.84864 0.96345 0.70677 0.0
C494 C 0.81977 -0.00216 0.77213 0.0
C495 C 0.84809 0.01419 0.78665 0.0
H496 H 0.79756 0.9613 0.72278 0.0
H497 H 0.79718 0.00423 0.79126 0.0
S498 S 0.92958 -0.00174 0.73088 0.0
N499 N 0.90619 0.97236 0.69872 0.0
N500 N 0.90569 0.01874 0.77214 0.0
C501 C 0.87688 0.0049 0.7608 0.0
C502 C 0.87718 0.97955 0.72116 0.0
C503 C 0.79048 0.10312 0.52401 0.0
C504 C 0.78289 0.10893 0.46805 0.0
C505 C 0.76679 0.10381 0.56504 0.0
C506 C 0.73445 0.1101 0.55187 0.0
H507 H 0.8151 0.09902 0.53671 0.0
H508 H 0.77411 0.10007 0.60767 0.0
S509 S 0.7013 0.12376 0.41074 0.0
N510 N 0.74017 0.11887 0.40104 0.0
N511 N 0.69573 0.12008 0.47808 0.0
C512 C 0.72623 0.11439 0.49572 0.0
C513 C 0.7504 0.11385 0.45389 0.0
C514 C 0.65999 0.00674 0.30302 0.0
C515 C 0.64072 0.97928 0.29668 0.0
C516 C 0.66035 0.031 0.26282 0.0
C517 C 0.64127 0.02896 0.2147 0.0
H518 H 0.67452 0.00992 0.33991 0.0
H519 H 0.67508 0.0519 0.27037 0.0
S520 S 0.58833 0.96096 0.17582 0.0
N521 N 0.60343 0.95073 0.23656 0.0
N522 N 0.60401 -0.00381 0.16138 0.0
C523 C 0.62272 0.00113 0.20687 0.0
C524 C 0.62248 0.97635 0.24766 0.0
C525 C 0.73059 0.87541 0.97855 0.0
C526 C 0.73329 0.89363 0.92977 0.0
C527 C 0.75445 0.87612 0.01955 0.0
C528 C 0.78212 0.89517 0.01385 0.0
H529 H 0.71027 0.85969 -0.01535 0.0
H530 H 0.75137 0.861 0.05557 0.0
S531 S 0.79962 0.94969 0.89628 0.0
N532 N 0.765 0.933 0.87974 0.0
N533 N 0.8098 0.93436 0.95686 0.0
C534 C 0.78458 0.91453 0.9663 0.0
C535 C 0.76023 0.91375 0.92432 0.0
C536 C 0.67506 0.47402 0.73349 0.0
C537 C 0.64699 0.46691 0.70324 0.0
C538 C 0.6752 0.49757 0.77509 0.0
C539 C 0.64734 0.51513 0.78798 0.0
H540 H 0.69709 0.46106 0.7255 0.0
H541 H 0.69735 0.50191 0.79746 0.0
S542 S 0.56767 0.50658 0.71969 0.0
N543 N 0.59067 0.48009 0.68832 0.0
N544 N 0.59094 0.52407 0.76605 0.0
C545 C 0.61921 0.50861 0.75739 0.0
C546 C 0.61903 0.48457 0.71528 0.0
C547 C 0.76383 0.37492 0.97528 0.0
C548 C 0.76004 0.39268 0.92617 0.0
C549 C 0.74038 0.3753 0.0167 0.0
C550 C 0.71217 0.39366 0.01114 0.0
H551 H 0.78463 0.35972 0.98125 0.0
H552 H 0.74425 0.36056 0.05303 0.0
S553 S 0.69184 0.44677 0.89273 0.0
N554 N 0.72672 0.43084 0.87586 0.0
N555 N 0.68276 0.43169 0.95387 0.0
C556 C 0.70865 0.41262 0.96327 0.0
C557 C 0.7325 0.41207 0.9208 0.0
C558 C 0.87008 0.48887 0.26554 0.0
C559 C 0.84433 0.46728 0.27042 0.0
C560 C 0.86958 0.51369 0.22667 0.0
C561 C 0.84337 0.51809 0.19051 0.0
H562 H 0.89109 0.48657 0.29181 0.0
H563 H 0.8903 0.52924 0.22454 0.0
S564 S 0.76915 0.46889 0.18728 0.0
N565 N 0.79129 0.45252 0.23659 0.0
N566 N 0.79036 0.49916 0.16324 0.0
C567 C 0.81709 0.49706 0.19547 0.0
C568 C 0.81757 0.47172 0.23542 0.0
C569 C 0.74851 0.56918 0.43835 0.0
C570 C 0.7241 0.59248 0.44104 0.0
C571 C 0.77353 0.56832 0.47746 0.0
C572 C 0.77526 0.59084 0.52073 0.0
H573 H 0.74881 0.55181 0.40504 0.0
H574 H 0.79207 0.55035 0.47279 0.0
S575 S 0.71578 0.65502 0.54963 0.0
N576 N 0.70217 0.63733 0.49315 0.0
N577 N 0.74905 0.63579 0.56622 0.0
C578 C 0.75039 0.61357 0.52511 0.0
C579 C 0.72486 0.61436 0.48547 0.0
C580 C 0.36681 0.49089 0.19774 0.0
C581 C 0.34807 0.46299 0.20186 0.0
C582 C 0.36544 0.51495 0.238 0.0
C583 C 0.34535 0.51223 0.28448 0.0
H584 H 0.38317 0.49411 0.16343 0.0
H585 H 0.38091 0.53555 0.23306 0.0
S586 S 0.28972 0.44486 0.3134 0.0
N587 N 0.30748 0.43473 0.25495 0.0
N588 N 0.30492 0.47993 0.33083 0.0
C589 C 0.32562 0.48493 0.28835 0.0
C590 C 0.32697 0.46036 0.24705 0.0
C591 C 0.23088 0.61718 -0.01333 0.0
C592 C 0.22656 0.59261 0.02579 0.0
C593 C 0.25624 0.61644 0.94889 0.0
C594 C 0.27843 0.59101 0.94808 0.0
H595 H 0.21491 0.63764 -0.01427 0.0
H596 H 0.2585 0.63626 0.92026 0.0
S597 S 0.27721 0.51975 0.03993 0.0
N598 N 0.24616 0.54134 0.06009 0.0
N599 N 0.29378 0.53994 -0.01127 0.0
C600 C 0.274 0.56577 -0.01409 0.0
C601 C 0.24813 0.56658 0.02478 0.0
C602 C 0.16031 0.5062 0.78791 0.0
C603 C 0.1409 0.47876 0.78331 0.0
C604 C 0.16045 0.52979 0.74657 0.0
C605 C 0.14108 0.52705 0.69889 0.0
H606 H 0.17523 0.50983 0.82422 0.0
H607 H 0.17545 0.55065 0.75271 0.0
S608 S 0.08649 0.45927 0.66572 0.0
N609 N 0.10239 0.44978 0.72623 0.0
N610 N 0.10257 0.49395 0.64878 0.0
C611 C 0.12213 0.49928 0.69304 0.0
C612 C 0.12208 0.47521 0.7351 0.0
C613 C 0.24475 0.41801 0.44035 0.0
C614 C 0.22621 0.39042 0.43046 0.0
C615 C 0.26883 0.41846 0.48128 0.0
C616 C 0.27545 0.39127 0.51384 0.0
H617 H 0.24079 0.43949 0.41617 0.0
H618 H 0.28255 0.44021 0.48693 0.0
S619 S 0.23319 0.31305 0.50563 0.0
N620 N 0.21582 0.33529 0.4577 0.0
N621 N 0.26077 0.3361 0.53416 0.0
C622 C 0.2568 0.36361 0.50481 0.0
C623 C 0.23226 0.36321 0.46336 0.0
C624 C 0.14394 0.21443 0.3912 0.0
C625 C 0.13479 0.18818 0.35815 0.0
C626 C 0.1494 0.24464 0.36797 0.0
C627 C 0.14533 0.2499 0.31084 0.0
H628 H 0.14542 0.21201 0.43583 0.0
H629 H 0.15454 0.26442 0.39562 0.0
S630 S 0.12671 0.18804 0.20509 0.0
N631 N 0.12602 0.16849 0.26452 0.0
N632 N 0.1357 0.22545 0.2208 0.0
C633 C 0.13876 0.22331 0.27675 0.0
C634 C 0.13367 0.19238 0.30041 0.0
C635 C 0.01563 0.87804 0.54481 0.0
C636 C 0.99029 0.88802 0.57931 0.0
C637 C 0.04686 0.87416 0.56555 0.0
C638 C 0.05379 0.87968 0.62173 0.0
H639 H 0.01104 0.87159 0.50204 0.0
H640 H 0.06511 0.86464 0.53827 0.0
S641 S -0.00224 0.91179 0.7271 0.0
N642 N 0.97557 0.90783 0.6707 0.0
N643 N 0.03415 0.89989 0.70971 0.0
C644 C 0.02943 0.8922 0.65557 0.0
C645 C -0.00229 0.89661 0.63431 0.0
C646 C 0.35069 0.77038 0.895 0.0
C647 C 0.35887 0.79638 0.86081 0.0
C648 C 0.34708 0.73947 0.87334 0.0
C649 C 0.35212 0.73328 0.81678 0.0
H650 H 0.34845 0.77365 0.93935 0.0
H651 H 0.34246 0.72002 0.90186 0.0
S652 S 0.36952 0.79374 0.70839 0.0
N653 N 0.36828 0.8145 0.76656 0.0
N654 N 0.36209 0.75628 0.72591 0.0
C655 C 0.35803 0.75942 0.78148 0.0
C656 C 0.36121 0.79103 0.80347 0.0
C657 C 0.44509 0.11484 0.06336 0.0
C658 C 0.43867 0.11036 0.11991 0.0
C659 C 0.4761 0.11039 0.04237 0.0
C660 C 0.5017 0.1008 0.07697 0.0
H661 H 0.42661 0.12395 0.03587 0.0
H662 H 0.48034 0.116 -0.0008 0.0
S663 S 0.49577 0.0804 0.22625 0.0
N664 N 0.45922 0.09199 0.20875 0.0
N665 N 0.51736 0.08301 0.16923 0.0
C666 C 0.49484 0.09344 0.13255 0.0
C667 C 0.46336 0.09844 0.15406 0.0
C668 C 0.13895 0.76683 0.15907 0.0
C669 C 0.14532 0.74027 0.12481 0.0
C670 C 0.13331 0.79729 0.13669 0.0
C671 C 0.13331 0.80224 0.0791 0.0
H672 H 0.13681 0.76381 0.20348 0.0
H673 H 0.12692 0.81657 0.16457 0.0
S674 S 0.1535 0.74192 0.97177 0.0
N675 N 0.15514 0.72192 0.0307 0.0
N676 N 0.14408 0.77905 -0.01138 0.0
C677 C 0.14198 0.77648 0.04463 0.0
C678 C 0.14817 0.74554 0.06748 0.0
C679 C 0.49771 0.89889 0.33903 0.0
C680 C 0.50173 0.89589 0.39663 0.0
C681 C 0.46766 0.89415 0.31413 0.0
C682 C 0.44038 0.88678 0.34591 0.0
H683 H 0.51826 0.90267 0.31249 0.0
H684 H 0.46613 0.89484 0.26932 0.0
S685 S 0.43713 0.88192 0.49923 0.0
N686 N 0.47523 0.8891 0.48547 0.0
N687 N 0.41862 0.88072 0.43864 0.0
C688 C 0.4435 0.88664 0.40392 0.0
C689 C 0.47423 0.89103 0.42928 0.0
C690 C 0.34549 0.21486 0.56919 0.0
C691 C 0.35433 0.18848 0.60216 0.0
C692 C 0.34136 0.24533 0.59229 0.0
C693 C 0.34652 0.25071 0.64915 0.0
H694 H 0.34327 0.21229 0.52467 0.0
H695 H 0.33638 0.26515 0.56463 0.0
S696 S 0.36495 0.18871 0.75476 0.0
N697 N 0.36405 0.1689 0.69555 0.0
N698 N 0.35684 0.22632 0.73902 0.0
C699 C 0.35279 0.22405 0.68327 0.0
C700 C 0.35652 0.19288 0.65977 0.0
C701 C 0.04543 0.10823 0.90569 0.0
C702 C 0.05045 0.103 0.84891 0.0
C703 C 0.01488 0.10449 0.92897 0.0
C704 C 0.98836 0.09495 0.89648 0.0
H705 H 0.06463 0.11741 0.93153 0.0
H706 H 0.01174 0.11069 0.9722 0.0
S707 S 0.99073 0.07242 0.74767 0.0
N708 N 0.02774 0.08377 0.76225 0.0
N709 N 0.97048 0.07609 0.80598 0.0
C710 C 0.99389 0.08675 0.84073 0.0
C711 C 0.02489 0.09101 0.81692 0.0
C712 C 0.84551 0.73569 0.60208 0.0
C713 C 0.85298 0.72875 0.65767 0.0
C714 C 0.8489 0.76672 0.581 0.0
C715 C 0.85924 0.79214 0.61487 0.0
H716 H 0.83912 0.71668 0.57358 0.0
H717 H 0.84482 0.77051 0.53712 0.0
S718 S 0.87673 0.78768 0.7654 0.0
N719 N 0.8676 0.75059 0.74777 0.0
N720 N 0.87334 0.80908 0.70816 0.0
C721 C 0.86401 0.78615 0.67158 0.0
C722 C 0.86108 0.75439 0.69295 0.0
C723 C 0.96274 0.1013 0.31345 0.0
C724 C 0.9365 0.1094 0.34729 0.0
C725 C 0.99327 0.09578 0.33605 0.0
C726 C -0.00114 0.09875 0.3933 0.0
H727 H 0.95999 0.10049 0.26882 0.0
H728 H 0.01301 0.09133 0.30799 0.0
S729 S 0.93745 0.115 0.50068 0.0
N730 N 0.9174 0.11647 0.44158 0.0
N731 N 0.97495 0.1067 0.48403 0.0
C732 C 0.97241 0.10458 0.42799 0.0
C733 C 0.94117 0.10972 0.405 0.0
C734 C 0.63701 0.22714 0.1874 0.0
C735 C 0.64813 0.25265 0.15438 0.0
C736 C 0.63265 0.19637 0.16528 0.0
C737 C 0.63883 0.19013 0.10916 0.0
H738 H 0.62998 0.2313 0.22995 0.0
H739 H 0.62214 0.17806 0.19124 0.0
S740 S 0.6736 0.24671 0.00748 0.0
N741 N 0.66949 0.2681 0.06454 0.0
N742 N 0.66067 0.21049 0.02297 0.0
C743 C 0.65247 0.21459 0.07696 0.0
C744 C 0.65735 0.24579 0.0996 0.0
C745 C 0.54612 0.88104 0.90463 0.0
C746 C 0.5525 0.88402 0.84777 0.0
C747 C 0.515 0.88543 0.9252 0.0
C748 C 0.48919 0.89344 0.88983 0.0
H749 H 0.56475 0.87311 0.9329 0.0
H750 H 0.51086 0.88093 0.96879 0.0
S751 S 0.49486 0.9099 0.73903 0.0
N752 N 0.53164 0.89957 0.7575 0.0
N753 N 0.47328 0.90836 0.79617 0.0
C754 C 0.49597 0.89942 0.8337 0.0
C755 C 0.52758 0.8945 0.81266 0.0
C756 C 0.85273 0.22688 0.79655 0.0
C757 C 0.84552 0.25331 0.83067 0.0
C758 C 0.85706 0.19616 0.81875 0.0
C759 C 0.85486 0.19079 0.87607 0.0
H760 H 0.8566 0.2302 0.75257 0.0
H761 H 0.8643 0.177 0.79124 0.0
S762 S 0.83155 0.25059 0.98236 0.0
N763 N 0.8324 0.27106 0.92389 0.0
N764 N 0.84105 0.21345 0.96568 0.0
C765 C 0.84526 0.21641 0.9101 0.0
C766 C 0.84039 0.24763 0.88739 0.0
C767 C 0.54432 0.10988 0.56249 0.0
C768 C 0.54926 0.10515 0.6195 0.0
C769 C 0.51386 0.10568 0.53866 0.0
C770 C 0.48739 0.0961 0.57081 0.0
H771 H 0.56351 0.11899 0.53682 0.0
H772 H 0.51073 0.11153 0.49526 0.0
S773 S 0.48954 0.07501 0.72024 0.0
N774 N 0.5265 0.08651 0.70616 0.0
N775 N 0.46942 0.07796 0.66139 0.0
C776 C 0.49284 0.08845 0.62688 0.0
C777 C 0.52374 0.09322 0.65125 0.0
C778 C 0.63659 0.76304 0.29889 0.0
C779 C 0.64428 0.73664 0.33282 0.0
C780 C 0.6319 0.79365 0.32135 0.0
C781 C 0.63423 0.79892 0.37873 0.0
H782 H 0.63266 0.75979 0.25485 0.0
H783 H 0.62436 0.8128 0.29398 0.0
S784 S 0.65872 0.73925 0.48467 0.0
N785 N 0.65797 0.7189 0.42604 0.0
N786 N 0.64859 0.77627 0.46822 0.0
C787 C 0.64422 0.77335 0.41261 0.0
C788 C 0.64947 0.74227 0.38966 0.0
C789 C 0.96684 0.89643 0.14796 0.0
C790 C 0.93929 0.88844 0.11697 0.0
C791 C -0.00353 0.90154 0.12228 0.0
C792 C -0.00015 0.89829 0.06462 0.0
H793 H 0.96585 0.89734 0.19279 0.0
H794 H 0.01726 0.90585 0.14832 0.0
S795 S 0.93415 0.88255 0.96389 0.0
N796 N 0.91644 0.88144 0.02494 0.0
N797 N 0.9723 0.89047 0.97656 0.0
C798 C 0.972 0.89276 0.03272 0.0
C799 C 0.94167 0.88802 0.05891 0.0
C800 C 0.64083 0.72435 0.80192 0.0
C801 C 0.64885 0.75093 0.83523 0.0
C802 C 0.63662 0.69382 0.82491 0.0
C803 C 0.63979 0.68882 0.88222 0.0
H804 H 0.63625 0.7274 0.75803 0.0
H805 H 0.62875 0.67455 0.7981 0.0
S806 S 0.66557 0.749 -0.01365 0.0
N807 N 0.66382 0.76912 0.92755 0.0
N808 N 0.6554 0.71189 0.97079 0.0
C809 C 0.6502 0.71456 0.91535 0.0
C810 C 0.65493 0.74556 0.89184 0.0
C811 C 0.52065 0.38824 0.03988 0.0
C812 C 0.49418 0.39813 0.0719 0.0
C813 C 0.55101 0.3835 0.0639 0.0
C814 C 0.55589 0.38801 0.12099 0.0
H815 H 0.51757 0.38255 -0.0036 0.0
H816 H 0.57013 0.37414 0.03829 0.0
S817 S 0.49623 0.41885 0.22148 0.0
N818 N 0.47623 0.41633 0.16247 0.0
N819 N 0.53309 0.40685 0.20759 0.0
C820 C 0.5304 0.40029 0.1526 0.0
C821 C 0.49961 0.40557 0.12804 0.0
C822 C 0.83924 0.24665 0.37459 0.0
C823 C 0.84157 0.24171 0.31714 0.0
C824 C 0.84522 0.27679 0.39787 0.0
C825 C 0.85322 0.30326 0.36458 0.0
H826 H 0.83513 0.22667 0.40224 0.0
H827 H 0.8451 0.27897 0.4426 0.0
S828 S 0.85649 0.30416 0.21104 0.0
N829 N 0.84823 0.26663 0.22687 0.0
N830 N 0.85892 0.32344 0.27066 0.0
C831 C 0.85255 0.29934 0.30674 0.0
C832 C 0.8469 0.2685 0.28302 0.0
C833 C 0.94724 0.60407 0.54749 0.0
C834 C 0.942 0.59354 0.60189 0.0
C835 C 0.97771 0.60154 0.52333 0.0
C836 C 0.00386 0.58813 0.5526 0.0
H837 H 0.92851 0.61676 0.52526 0.0
H838 H 0.9812 0.61204 0.48278 0.0
S839 S 5e-05 0.55067 0.69195 0.0
N840 N 0.96357 0.56487 0.68115 0.0
N841 N 0.02063 0.55935 0.63563 0.0
C842 C -0.00222 0.57432 0.60473 0.0
C843 C 0.96689 0.5773 0.62946 0.0
C844 C 0.63782 0.26315 0.6814 0.0
C845 C 0.64712 0.23697 0.64822 0.0
C846 C 0.6346 0.29399 0.65908 0.0
C847 C 0.64012 0.29965 0.60258 0.0
H848 H 0.63132 0.25954 0.72435 0.0
H849 H 0.62547 0.31292 0.68536 0.0
S850 S 0.67035 0.24083 0.50005 0.0
N851 N 0.66613 0.21996 0.55761 0.0
N852 N 0.65952 0.27777 0.51562 0.0
C853 C 0.65202 0.27438 0.57005 0.0
C854 C 0.65573 0.24307 0.59291 0.0
C855 C 0.97941 0.38602 0.9251 0.0
C856 C 0.00523 0.39442 0.89046 0.0
C857 C 0.9483 0.38204 0.90389 0.0
C858 C 0.94195 0.38583 0.84709 0.0
H859 H 0.98353 0.38091 0.96855 0.0
H860 H 0.92965 0.37379 0.93154 0.0
S861 S -0.00036 0.413 0.74033 0.0
N862 N 0.02121 0.41059 0.79771 0.0
N863 N 0.96285 0.40255 0.7578 0.0
C864 C 0.96688 0.3967 0.81279 0.0
C865 C -0.00151 0.40121 0.8345 0.0
C866 C 0.8555 0.72986 0.19076 0.0
C867 C 0.84405 0.75568 0.15857 0.0
C868 C 0.85855 0.69903 0.16828 0.0
C869 C 0.85063 0.69308 0.11265 0.0
H870 H 0.86393 0.73382 0.23271 0.0
H871 H 0.86954 0.68046 0.19329 0.0
S872 S 0.81402 0.75051 0.01378 0.0
N873 N 0.82024 0.77173 0.07052 0.0
N874 N 0.82666 0.71398 0.02823 0.0
C875 C 0.83649 0.71783 0.08159 0.0
C876 C 0.83295 0.74909 0.1046 0.0
C877 C 0.52206 0.59893 0.31396 0.0
C878 C 0.54813 0.60544 0.34956 0.0
C879 C 0.49095 0.59474 0.33461 0.0
C880 C 0.48464 0.59749 0.39158 0.0
H881 H 0.52544 0.5985 0.26949 0.0
H882 H 0.47144 0.59161 0.30531 0.0
S883 S 0.54505 0.60959 0.503 0.0
N884 N 0.56605 0.61059 0.44517 0.0
N885 N 0.50749 0.60333 0.48387 0.0
C886 C 0.5108 0.6016 0.42796 0.0
C887 C 0.54258 0.60538 0.40699 0.0
C888 C 0.35156 0.27978 0.06058 0.0
C889 C 0.35877 0.30637 0.09429 0.0
C890 C 0.34525 0.24967 0.08359 0.0
C891 C 0.34646 0.24488 0.14119 0.0
H892 H 0.35217 0.2819 0.01586 0.0
H893 H 0.34165 0.22962 0.0558 0.0
S894 S 0.35941 0.30753 0.24799 0.0
N895 N 0.36282 0.3267 0.1885 0.0
N896 N 0.35155 0.26994 0.23175 0.0
C897 C 0.35122 0.27171 0.17553 0.0
C898 C 0.35719 0.30252 0.15209 0.0
C899 C 0.47175 0.58976 0.82962 0.0
C900 C 0.44519 0.5995 0.86133 0.0
C901 C 0.50208 0.58563 0.85376 0.0
C902 C 0.50714 0.59166 0.91044 0.0
H903 H 0.46947 0.58693 0.78515 0.0
H904 H 0.52207 0.57997 0.82692 0.0
S905 S 0.4444 0.61246 0.01323 0.0
N906 N 0.42497 0.6109 0.95352 0.0
N907 N 0.48212 0.60362 -0.00094 0.0
C908 C 0.48022 0.59873 0.94348 0.0
C909 C 0.44918 0.60249 0.9189 0.0
C910 C 0.14462 0.71221 0.56249 0.0
C911 C 0.13594 0.68546 0.59454 0.0
C912 C 0.15039 0.74206 0.58696 0.0
C913 C 0.14711 0.74651 0.64442 0.0
H914 H 0.14571 0.7104 0.51775 0.0
H915 H 0.15532 0.76221 0.5601 0.0
S916 S 0.12934 0.68317 0.74766 0.0
N917 N 0.12801 0.66449 0.68739 0.0
N918 N 0.13824 0.72078 0.73347 0.0
C919 C 0.14071 0.71945 0.6774 0.0
C920 C 0.13531 0.68888 0.65245 0.0
C921 C 0.02483 0.39081 0.31324 0.0
C922 C 0.05168 0.38267 0.34596 0.0
C923 C 0.99466 0.39603 0.33704 0.0
C924 C 0.99006 0.39272 0.39441 0.0
H925 H 0.02682 0.39185 0.26853 0.0
H926 H 0.97443 0.40053 0.30979 0.0
S927 S 0.05334 0.37617 0.49923 0.0
N928 N 0.0724 0.37516 0.4394 0.0
N929 N 0.01554 0.38437 0.48409 0.0
C930 C 0.01712 0.38683 0.42802 0.0
C931 C 0.04799 0.382 0.40382 0.0
C932 C 0.34206 0.71898 0.38281 0.0
C933 C 0.35218 0.69272 0.35081 0.0
C934 C 0.33819 0.74936 0.35929 0.0
C935 C 0.34495 0.75477 0.30303 0.0
H936 H 0.33869 0.71641 0.42708 0.0
H937 H 0.33216 0.76911 0.38642 0.0
S938 S 0.36722 0.6929 0.19958 0.0
N939 N 0.36485 0.67314 0.25866 0.0
N940 N 0.35816 0.73044 0.21434 0.0
C941 C 0.3525 0.72817 0.26961 0.0
C942 C 0.35594 0.69706 0.29352 0.0
C943 C 0.9934 0.59751 0.12928 0.0
C944 C 0.98599 0.60062 0.07267 0.0
C945 C 0.02484 0.60184 0.14872 0.0
C946 C 0.05017 0.60885 0.11222 0.0
H947 H 0.9745 0.59387 0.15929 0.0
H948 H 0.02907 0.60107 0.19302 0.0
S949 S 0.04418 0.61431 0.95913 0.0
N950 N 0.00706 0.60749 0.97962 0.0
N951 N 0.06625 0.61504 0.01609 0.0
C952 C 0.04355 0.60926 0.05507 0.0
C953 C 0.01142 0.60534 0.03533 0.0
C954 C 0.13674 0.26173 0.78652 0.0
C955 C 0.14586 0.23562 0.82008 0.0
C956 C 0.13314 0.29255 0.80871 0.0
C957 C 0.13805 0.29827 0.86545 0.0
H958 H 0.13075 0.25807 0.74326 0.0
H959 H 0.12428 0.31145 0.78199 0.0
S960 S 0.16733 0.2396 0.96937 0.0
N961 N 0.16388 0.2187 0.91159 0.0
N962 N 0.1565 0.27648 0.95332 0.0
C963 C 0.14963 0.27304 0.89854 0.0
C964 C 0.15376 0.24176 0.87583 0.0
C965 C 0.46926 0.39052 0.6473 0.0
C966 C 0.44314 0.38209 0.6131 0.0
C967 C 0.49988 0.39561 0.62531 0.0
C968 C 0.50571 0.39189 0.56834 0.0
H969 H 0.46634 0.3919 0.69182 0.0
H970 H 0.51949 0.40035 0.65375 0.0
S971 S 0.44463 0.37466 0.46001 0.0
N972 N 0.42436 0.374 0.51864 0.0
N973 N 0.48209 0.38299 0.47729 0.0
C974 C 0.47936 0.38578 0.53318 0.0
C975 C 0.44802 0.38107 0.55554 0.0
C976 C 0.17768 0.08679 0.55917 0.0
C977 C 0.1507 0.06711 0.55133 0.0
C978 C 0.18746 0.09549 0.6128 0.0
C979 C 0.1709 0.08403 0.65935 0.0
H980 H 0.18731 0.10015 0.52454 0.0
H981 H 0.20412 0.11522 0.6173 0.0
S982 S 0.10778 0.02197 0.65972 0.0
N983 N 0.11421 0.02928 0.59343 0.0
N984 N 0.1336 0.04446 0.69425 0.0
C985 C 0.14946 0.05853 0.65165 0.0
C986 C 0.13893 0.05034 0.59719 0.0
C987 C 0.19035 0.89323 0.84994 0.0
C988 C 0.17571 0.90188 0.79951 0.0
C989 C 0.17868 0.90522 0.90032 0.0
C990 C 0.15157 0.9253 0.90103 0.0
H991 H 0.207 0.8733 0.85116 0.0
H992 H 0.18693 0.89402 0.9383 0.0
S993 S 0.11348 0.96407 0.77985 0.0
N994 N 0.14031 0.93948 0.75295 0.0
N995 N 0.11724 0.96067 0.84775 0.0
C996 C 0.14179 0.93932 0.85098 0.0
C997 C 0.1543 0.92786 0.79978 0.0
C998 C 0.34866 0.94081 0.08915 0.0
C999 C 0.33656 0.92327 0.044 0.0
C1000 C 0.33889 0.93366 0.14331 0.0
C1001 C 0.31775 0.90809 0.1531 0.0
H1002 H 0.36947 0.956 0.08369 0.0
H1003 H 0.35269 0.94364 0.17732 0.0
S1004 S 0.27007 0.86489 0.04762 0.0
N1005 N 0.29465 0.88767 0.01139 0.0
N1006 N 0.27745 0.87311 0.11342 0.0
C1007 C 0.30027 0.89607 0.10796 0.0
C1008 C 0.30958 0.90394 0.05286 0.0
C1009 C 0.34655 0.05671 0.35699 0.0
C1010 C 0.33546 0.0718 0.40532 0.0
C1011 C 0.33588 0.06687 0.30466 0.0
C1012 C 0.31483 0.09307 0.2999 0.0
H1013 H 0.36714 0.04089 0.3591 0.0
H1014 H 0.34877 0.05843 0.26857 0.0
S1015 S 0.27029 0.1317 0.41398 0.0
N1016 N 0.29501 0.10652 0.44529 0.0
N1017 N 0.27625 0.12685 0.34686 0.0
C1018 C 0.29867 0.10321 0.34762 0.0
C1019 C 0.30881 0.09221 0.40077 0.0
C1020 C 0.80286 0.89186 0.36132 0.0
C1021 C 0.82018 0.90582 0.31776 0.0
C1022 C 0.81091 0.8986 0.41661 0.0
C1023 C 0.83688 0.91885 0.42905 0.0
H1024 H 0.78717 0.87174 0.35303 0.0
H1025 H 0.80101 0.88339 0.44862 0.0
S1026 S 0.88016 0.97051 0.33015 0.0
N1027 N 0.85641 0.94834 0.29088 0.0
N1028 N 0.87248 0.96007 0.39478 0.0
C1029 C 0.84894 0.93811 0.38644 0.0
C1030 C 0.84024 0.93177 0.33032 0.0
C1031 C 0.80997 0.08701 0.05947 0.0
C1032 C 0.83646 0.06625 0.05568 0.0
C1033 C 0.7998 0.09821 0.11132 0.0
C1034 C 0.81522 0.08795 0.16008 0.0
H1035 H 0.80134 0.09935 0.02282 0.0
H1036 H 0.78383 0.11868 0.11251 0.0
S1037 S 0.87545 0.02323 0.17164 0.0
N1038 N 0.87053 0.02843 0.10427 0.0
N1039 N 0.85013 0.04813 0.20185 0.0
C1040 C 0.83569 0.06133 0.15673 0.0
C1041 C 0.84674 0.05068 0.10404 0.0
C1042 C 0.68741 0.09752 0.8562 0.0
C1043 C 0.67052 0.08584 0.80993 0.0
C1044 C 0.6785 0.08848 0.90994 0.0
C1045 C 0.65193 0.06836 0.91819 0.0
H1046 H 0.70368 0.11754 0.85147 0.0
H1047 H 0.68833 0.10194 0.94444 0.0
S1048 S 0.60869 0.02251 0.81033 0.0
N1049 N 0.63358 0.04563 0.77545 0.0
N1050 N 0.61572 0.02986 0.87655 0.0
C1051 C 0.63993 0.05145 0.87244 0.0
C1052 C 0.64961 0.05997 0.81784 0.0
C1053 C 0.67908 0.90118 0.56644 0.0
C1054 C 0.65254 0.92184 0.56205 0.0
C1055 C 0.68948 0.89041 0.61855 0.0
C1056 C 0.67419 0.90094 0.66708 0.0
H1057 H 0.68776 0.88872 0.53005 0.0
H1058 H 0.7057 0.87014 0.62024 0.0
S1059 S 0.61304 0.96488 0.67701 0.0
N1060 N 0.61798 0.9594 0.60978 0.0
N1061 N 0.63873 0.9405 0.70786 0.0
C1062 C 0.6533 0.92722 0.6631 0.0
C1063 C 0.64205 0.93744 0.61013 0.0
C1064 C 0.68584 0.58652 0.07206 0.0
C1065 C 0.66078 0.56444 0.06418 0.0
C1066 C 0.6932 0.59775 0.12541 0.0
C1067 C 0.67666 0.58597 0.17175 0.0
H1068 H 0.69499 0.59985 0.03701 0.0
H1069 H 0.70776 0.6191 0.12927 0.0
S1070 S 0.62056 0.51754 0.17344 0.0
N1071 N 0.62772 0.52385 0.10705 0.0
N1072 N 0.6429 0.54361 0.20765 0.0
C1073 C 0.65812 0.55824 0.16494 0.0
C1074 C 0.64993 0.54753 0.1106 0.0
C1075 C 0.64823 0.44024 0.37209 0.0
C1076 C 0.65972 0.42372 0.41889 0.0
C1077 C 0.6577 0.431 0.31869 0.0
C1078 C 0.67822 0.40461 0.31134 0.0
H1079 H 0.62786 0.45622 0.37605 0.0
H1080 H 0.64426 0.44038 0.28372 0.0
S1081 S 0.72443 0.36315 0.42092 0.0
N1082 N 0.7006 0.38791 0.45486 0.0
N1083 N 0.71728 0.36948 0.35443 0.0
C1084 C 0.69518 0.39332 0.35765 0.0
C1085 C 0.68618 0.40333 0.4119 0.0
C1086 C 0.80363 0.39345 0.61648 0.0
C1087 C 0.82001 0.40398 0.66412 0.0
C1088 C 0.81337 0.40347 0.5637 0.0
C1089 C 0.84032 0.42337 0.55771 0.0
H1090 H 0.78696 0.37364 0.61934 0.0
H1091 H 0.80375 0.39093 0.528 0.0
S1092 S 0.88288 0.46627 0.67 0.0
N1093 N 0.85714 0.44288 0.70245 0.0
N1094 N 0.87664 0.46035 0.60312 0.0
C1095 C 0.85204 0.43908 0.60496 0.0
C1096 C 0.84148 0.42963 0.65861 0.0
C1097 C 0.80993 0.58635 0.90342 0.0
C1098 C 0.83559 0.56701 0.92138 0.0
C1099 C 0.80464 0.59152 0.84668 0.0
C1100 C 0.82455 0.57695 0.8072 0.0
H1101 H 0.79812 0.60215 0.93257 0.0
H1102 H 0.78903 0.61108 0.83448 0.0
S1103 S 0.88491 0.51386 0.83372 0.0
N1104 N 0.87357 0.52563 0.89603 0.0
N1105 N 0.86295 0.53462 0.78931 0.0
C1106 C 0.8444 0.55176 0.82477 0.0
C1107 C 0.85013 0.54688 0.8824 0.0
C1108 C 0.34447 0.43177 0.80346 0.0
C1109 C 0.32236 0.40651 0.79871 0.0
C1110 C 0.35561 0.44144 0.85578 0.0
C1111 C 0.34392 0.42686 0.90411 0.0
H1112 H 0.35769 0.4396 0.76735 0.0
H1113 H 0.37686 0.45631 0.85786 0.0
S1114 S 0.27613 0.37012 0.91278 0.0
N1115 N 0.28231 0.37463 0.84566 0.0
N1116 N 0.30194 0.39413 0.9441 0.0
C1117 C 0.31637 0.40774 0.89958 0.0
C1118 C 0.30574 0.3972 0.84642 0.0
C1119 C 0.30406 0.5974 0.62123 0.0
C1120 C 0.32326 0.58282 0.66201 0.0
C1121 C 0.30954 0.59128 0.56489 0.0
C1122 C 0.33468 0.57092 0.54856 0.0
H1123 H 0.28889 0.61751 0.63213 0.0
H1124 H 0.2983 0.60694 0.53472 0.0
S1125 S 0.38223 0.51795 0.63996 0.0
N1126 N 0.36056 0.53989 0.68283 0.0
N1127 N 0.37151 0.52907 0.57685 0.0
C1128 C 0.34856 0.55109 0.58886 0.0
C1129 C 0.34263 0.55694 0.6461 0.0
C1130 C 0.14657 0.55379 0.34911 0.0
C1131 C 0.15767 0.56931 0.39717 0.0
C1132 C 0.15646 0.56409 0.29657 0.0
C1133 C 0.17683 0.59071 0.29137 0.0
H1134 H 0.1264 0.53754 0.35161 0.0
H1135 H 0.14349 0.55524 0.2607 0.0
S1136 S 0.22144 0.63058 0.40459 0.0
N1137 N 0.19764 0.60494 0.43639 0.0
N1138 N 0.21498 0.62546 0.33759 0.0
C1139 C 0.19315 0.60136 0.3388 0.0
C1140 C 0.18379 0.59024 0.39214 0.0
C1141 C 0.19163 0.39043 0.11088 0.0
C1142 C 0.17536 0.40252 0.15732 0.0
C1143 C 0.18315 0.40048 0.05731 0.0
C1144 C 0.15757 0.422 0.04942 0.0
H1145 H 0.20679 0.36948 0.11516 0.0
H1146 H 0.1922 0.3868 0.02253 0.0
S1147 S 0.11727 0.46943 0.15816 0.0
N1148 N 0.14086 0.44454 0.1926 0.0
N1149 N 0.12374 0.46226 0.0918 0.0
C1150 C 0.1467 0.43925 0.09551 0.0
C1151 C 0.15598 0.42967 0.14995 0.0
loop_
_geom_bond_atom_site_label_1
_geom_bond_atom_site_label_2
_geom_bond_distance
_geom_bond_site_symmetry_2
_ccdc_geom_bond_type
Zn0 O3 2.031 . S
Zn0 O5 2.049 . S
Zn0 O10 2.067 . S
Zn1 O2 1.962 . S
Zn1 O4 1.986 . S
Zn1 O6 1.996 . S
Zn1 O9 1.943 . S
O2 Zn1 1.962 . S
O2 C7 1.254 . S
O3 Zn0 2.031 . S
O3 C7 1.269 . S
O4 Zn1 1.986 . S
O4 C11 1.262 . S
O5 Zn0 2.049 . S
O5 C13 1.260 . S
O6 Zn1 1.996 . S
O6 C13 1.257 . S
C7 O2 1.254 . S
C7 O3 1.269 . S
C8 O9 1.249 . S
C8 O10 1.270 . S
O9 Zn1 1.943 . S
O9 C8 1.249 . S
O10 Zn0 2.067 . S
O10 C8 1.270 . S
C11 O4 1.262 . S
C11 O12 1.232 . S
O12 C11 1.232 . S
C13 O5 1.260 . S
C13 O6 1.257 . S
Zn14 O17 2.031 . S
Zn14 O19 2.049 . S
Zn14 O24 2.067 . S
Zn15 O16 1.962 . S
Zn15 O18 1.986 . S
Zn15 O20 1.996 . S
Zn15 O23 1.943 . S
O16 Zn15 1.962 . S
O16 C21 1.254 . S
O17 Zn14 2.031 . S
O17 C21 1.269 . S
O18 Zn15 1.986 . S
O18 C25 1.262 . S
O19 Zn14 2.049 . S
O19 C27 1.260 . S
O20 Zn15 1.996 . S
O20 C27 1.257 . S
C21 O16 1.254 . S
C21 O17 1.269 . S
C22 O23 1.249 . S
C22 O24 1.270 . S
O23 Zn15 1.943 . S
O23 C22 1.249 . S
O24 Zn14 2.067 . S
O24 C22 1.270 . S
C25 O18 1.262 . S
C25 O26 1.232 . S
O26 C25 1.232 . S
C27 O19 1.260 . S
C27 O20 1.257 . S
Zn28 O31 2.031 1_556 S
Zn28 O33 2.049 . S
Zn28 O38 2.067 . S
Zn29 O30 1.962 . S
Zn29 O32 1.986 . S
Zn29 O34 1.996 . S
Zn29 O37 1.943 . S
O30 Zn29 1.962 . S
O30 C35 1.254 1_556 S
O31 Zn28 2.031 1_554 S
O31 C35 1.269 . S
O32 Zn29 1.986 . S
O32 C39 1.262 . S
O33 Zn28 2.049 . S
O33 C41 1.260 . S
O34 Zn29 1.996 . S
O34 C41 1.257 . S
C35 O30 1.254 1_554 S
C35 O31 1.269 . S
C36 O37 1.249 . S
C36 O38 1.270 . S
O37 Zn29 1.943 . S
O37 C36 1.249 . S
O38 Zn28 2.067 . S
O38 C36 1.270 . S
C39 O32 1.262 . S
C39 O40 1.232 . S
O40 C39 1.232 . S
C41 O33 1.260 . S
C41 O34 1.257 . S
Zn42 O45 2.031 . S
Zn42 O47 2.049 . S
Zn42 O52 2.067 . S
Zn43 O44 1.962 . S
Zn43 O46 1.986 . S
Zn43 O48 1.996 . S
Zn43 O51 1.943 . S
O44 Zn43 1.962 . S
O44 C49 1.254 . S
O45 Zn42 2.031 . S
O45 C49 1.269 . S
O46 Zn43 1.986 . S
O46 C53 1.262 . S
O47 Zn42 2.049 . S
O47 C55 1.260 . S
O48 Zn43 1.996 . S
O48 C55 1.257 . S
C49 O44 1.254 . S
C49 O45 1.269 . S
C50 O51 1.249 . S
C50 O52 1.270 . S
O51 Zn43 1.943 . S
O51 C50 1.249 . S
O52 Zn42 2.067 . S
O52 C50 1.270 . S
C53 O46 1.262 . S
C53 O54 1.232 . S
O54 C53 1.232 . S
C55 O47 1.260 . S
C55 O48 1.257 . S
Zn56 O59 2.031 1_554 S
Zn56 O61 2.049 . S
Zn56 O66 2.067 . S
Zn57 O58 1.962 . S
Zn57 O60 1.986 . S
Zn57 O62 1.996 . S
Zn57 O65 1.943 . S
O58 Zn57 1.962 . S
O58 C63 1.254 1_554 S
O59 Zn56 2.031 1_556 S
O59 C63 1.269 . S
O60 Zn57 1.986 . S
O60 C67 1.262 . S
O61 Zn56 2.049 . S
O61 C69 1.260 . S
O62 Zn57 1.996 . S
O62 C69 1.257 . S
C63 O58 1.254 1_556 S
C63 O59 1.269 . S
C64 O65 1.249 . S
C64 O66 1.270 . S
O65 Zn57 1.943 . S
O65 C64 1.249 . S
O66 Zn56 2.067 . S
O66 C64 1.270 . S
C67 O60 1.262 . S
C67 O68 1.232 . S
O68 C67 1.232 . S
C69 O61 1.260 . S
C69 O62 1.257 . S
Zn70 O73 2.031 . S
Zn70 O75 2.049 . S
Zn70 O80 2.067 . S
Zn71 O72 1.962 . S
Zn71 O74 1.986 . S
Zn71 O76 1.996 . S
Zn71 O79 1.943 . S
O72 Zn71 1.962 . S
O72 C77 1.254 . S
O73 Zn70 2.031 . S
O73 C77 1.269 . S
O74 Zn71 1.986 . S
O74 C81 1.262 . S
O75 Zn70 2.049 . S
O75 C83 1.260 . S
O76 Zn71 1.996 . S
O76 C83 1.257 . S
C77 O72 1.254 . S
C77 O73 1.269 . S
C78 O79 1.249 . S
C78 O80 1.270 . S
O79 Zn71 1.943 . S
O79 C78 1.249 . S
O80 Zn70 2.067 . S
O80 C78 1.270 . S
C81 O74 1.262 . S
C81 O82 1.232 . S
O82 C81 1.232 . S
C83 O75 1.260 . S
C83 O76 1.257 . S
Zn84 O87 2.031 . S
Zn84 O89 2.049 . S
Zn84 O94 2.067 . S
Zn85 O86 1.962 . S
Zn85 O88 1.986 . S
Zn85 O90 1.996 . S
Zn85 O93 1.943 . S
O86 Zn85 1.962 . S
O86 C91 1.254 . S
O87 Zn84 2.031 . S
O87 C91 1.269 . S
O88 Zn85 1.986 . S
O88 C95 1.262 . S
O89 Zn84 2.049 . S
O89 C97 1.260 . S
O90 Zn85 1.996 . S
O90 C97 1.257 . S
C91 O86 1.254 . S
C91 O87 1.269 . S
C92 O93 1.249 . S
C92 O94 1.270 . S
O93 Zn85 1.943 . S
O93 C92 1.249 . S
O94 Zn84 2.067 . S
O94 C92 1.270 . S
C95 O88 1.262 . S
C95 O96 1.232 . S
O96 C95 1.232 . S
C97 O89 1.260 . S
C97 O90 1.257 . S
Zn98 O101 2.031 . S
Zn98 O103 2.049 . S
Zn98 O108 2.067 . S
Zn99 O100 1.962 . S
Zn99 O102 1.986 . S
Zn99 O104 1.996 . S
Zn99 O107 1.943 . S
O100 Zn99 1.962 . S
O100 C105 1.254 . S
O101 Zn98 2.031 . S
O101 C105 1.269 . S
O102 Zn99 1.986 . S
O102 C109 1.262 . S
O103 Zn98 2.049 . S
O103 C111 1.260 . S
O104 Zn99 1.996 . S
O104 C111 1.257 . S
C105 O100 1.254 . S
C105 O101 1.269 . S
C106 O107 1.249 . S
C106 O108 1.270 . S
O107 Zn99 1.943 . S
O107 C106 1.249 . S
O108 Zn98 2.067 . S
O108 C106 1.270 . S
C109 O102 1.262 . S
C109 O110 1.232 . S
O110 C109 1.232 . S
C111 O103 1.260 . S
C111 O104 1.257 . S
Zn112 O115 2.031 . S
Zn112 O117 2.049 . S
Zn112 O122 2.067 . S
Zn113 O114 1.962 . S
Zn113 O116 1.986 . S
Zn113 O118 1.996 . S
Zn113 O121 1.943 . S
O114 Zn113 1.962 . S
O114 C119 1.254 . S
O115 Zn112 2.031 . S
O115 C119 1.269 . S
O116 Zn113 1.986 . S
O116 C123 1.262 . S
O117 Zn112 2.049 . S
O117 C125 1.260 . S
O118 Zn113 1.996 . S
O118 C125 1.257 . S
C119 O114 1.254 . S
C119 O115 1.269 . S
C120 O121 1.249 . S
C120 O122 1.270 . S
O121 Zn113 1.943 . S
O121 C120 1.249 . S
O122 Zn112 2.067 . S
O122 C120 1.270 . S
C123 O116 1.262 . S
C123 O124 1.232 . S
O124 C123 1.232 . S
C125 O117 1.260 . S
C125 O118 1.257 . S
Zn126 O129 2.031 . S
Zn126 O131 2.049 . S
Zn126 O136 2.067 . S
Zn127 O128 1.962 . S
Zn127 O130 1.986 . S
Zn127 O132 1.996 . S
Zn127 O135 1.943 . S
O128 Zn127 1.962 . S
O128 C133 1.254 . S
O129 Zn126 2.031 . S
O129 C133 1.269 . S
O130 Zn127 1.986 . S
O130 C137 1.262 . S
O131 Zn126 2.049 . S
O131 C139 1.260 . S
O132 Zn127 1.996 . S
O132 C139 1.257 . S
C133 O128 1.254 . S
C133 O129 1.269 . S
C134 O135 1.249 . S
C134 O136 1.270 . S
O135 Zn127 1.943 . S
O135 C134 1.249 . S
O136 Zn126 2.067 . S
O136 C134 1.270 . S
C137 O130 1.262 . S
C137 O138 1.232 . S
O138 C137 1.232 . S
C139 O131 1.260 . S
C139 O132 1.257 . S
Zn140 O143 2.031 1_554 S
Zn140 O145 2.049 . S
Zn140 O150 2.067 . S
Zn141 O142 1.962 . S
Zn141 O144 1.986 . S
Zn141 O146 1.996 . S
Zn141 O149 1.943 . S
O142 Zn141 1.962 . S
O142 C147 1.254 1_554 S
O143 Zn140 2.031 1_556 S
O143 C147 1.269 . S
O144 Zn141 1.986 . S
O144 C151 1.262 . S
O145 Zn140 2.049 . S
O145 C153 1.260 . S
O146 Zn141 1.996 . S
O146 C153 1.257 . S
C147 O142 1.254 1_556 S
C147 O143 1.269 . S
C148 O149 1.249 . S
C148 O150 1.270 . S
O149 Zn141 1.943 . S
O149 C148 1.249 . S
O150 Zn140 2.067 . S
O150 C148 1.270 . S
C151 O144 1.262 . S
C151 O152 1.232 . S
O152 C151 1.232 . S
C153 O145 1.260 . S
C153 O146 1.257 . S
Zn154 O157 2.031 . S
Zn154 O159 2.049 . S
Zn154 O164 2.067 . S
Zn155 O156 1.962 . S
Zn155 O158 1.986 . S
Zn155 O160 1.996 . S
Zn155 O163 1.943 . S
O156 Zn155 1.962 . S
O156 C161 1.254 . S
O157 Zn154 2.031 . S
O157 C161 1.269 . S
O158 Zn155 1.986 . S
O158 C165 1.262 . S
O159 Zn154 2.049 . S
O159 C167 1.260 . S
O160 Zn155 1.996 . S
O160 C167 1.257 . S
C161 O156 1.254 . S
C161 O157 1.269 . S
C162 O163 1.249 . S
C162 O164 1.270 . S
O163 Zn155 1.943 . S
O163 C162 1.249 . S
O164 Zn154 2.067 . S
O164 C162 1.270 . S
C165 O158 1.262 . S
C165 O166 1.232 . S
O166 C165 1.232 . S
C167 O159 1.260 . S
C167 O160 1.257 . S
Zn168 O171 2.031 1_556 S
Zn168 O173 2.049 . S
Zn168 O178 2.067 . S
Zn169 O170 1.962 . S
Zn169 O172 1.986 . S
Zn169 O174 1.996 . S
Zn169 O177 1.943 . S
O170 Zn169 1.962 . S
O170 C175 1.254 1_556 S
O171 Zn168 2.031 1_554 S
O171 C175 1.269 . S
O172 Zn169 1.986 . S
O172 C179 1.262 . S
O173 Zn168 2.049 . S
O173 C181 1.260 . S
O174 Zn169 1.996 . S
O174 C181 1.257 . S
C175 O170 1.254 1_554 S
C175 O171 1.269 . S
C176 O177 1.249 . S
C176 O178 1.270 . S
O177 Zn169 1.943 . S
O177 C176 1.249 . S
O178 Zn168 2.067 . S
O178 C176 1.270 . S
C179 O172 1.262 . S
C179 O180 1.232 . S
O180 C179 1.232 . S
C181 O173 1.260 . S
C181 O174 1.257 . S
Zn182 O185 2.031 . S
Zn182 O187 2.049 . S
Zn182 O192 2.067 . S
Zn183 O184 1.962 . S
Zn183 O186 1.986 . S
Zn183 O188 1.996 . S
Zn183 O191 1.943 . S
O184 Zn183 1.962 . S
O184 C189 1.254 . S
O185 Zn182 2.031 . S
O185 C189 1.269 . S
O186 Zn183 1.986 . S
O186 C193 1.262 . S
O187 Zn182 2.049 . S
O187 C195 1.260 . S
O188 Zn183 1.996 . S
O188 C195 1.257 . S
C189 O184 1.254 . S
C189 O185 1.269 . S
C190 O191 1.249 . S
C190 O192 1.270 . S
O191 Zn183 1.943 . S
O191 C190 1.249 . S
O192 Zn182 2.067 . S
O192 C190 1.270 . S
C193 O186 1.262 . S
C193 O194 1.232 . S
O194 C193 1.232 . S
C195 O187 1.260 . S
C195 O188 1.257 . S
Zn196 O199 2.031 . S
Zn196 O201 2.049 . S
Zn196 O206 2.067 . S
Zn197 O198 1.962 . S
Zn197 O200 1.986 . S
Zn197 O202 1.996 . S
Zn197 O205 1.943 . S
O198 Zn197 1.962 . S
O198 C203 1.254 . S
O199 Zn196 2.031 . S
O199 C203 1.269 . S
O200 Zn197 1.986 . S
O200 C207 1.262 . S
O201 Zn196 2.049 . S
O201 C209 1.260 . S
O202 Zn197 1.996 . S
O202 C209 1.257 . S
C203 O198 1.254 . S
C203 O199 1.269 . S
C204 O205 1.249 . S
C204 O206 1.270 . S
O205 Zn197 1.943 . S
O205 C204 1.249 . S
O206 Zn196 2.067 . S
O206 C204 1.270 . S
C207 O200 1.262 . S
C207 O208 1.232 . S
O208 C207 1.232 . S
C209 O201 1.260 . S
C209 O202 1.257 . S
Zn210 O213 2.031 . S
Zn210 O215 2.049 . S
Zn210 O220 2.067 . S
Zn211 O212 1.962 . S
Zn211 O214 1.986 . S
Zn211 O216 1.996 . S
Zn211 O219 1.943 . S
O212 Zn211 1.962 . S
O212 C217 1.254 . S
O213 Zn210 2.031 . S
O213 C217 1.269 . S
O214 Zn211 1.986 . S
O214 C221 1.262 . S
O215 Zn210 2.049 . S
O215 C223 1.260 . S
O216 Zn211 1.996 . S
O216 C223 1.257 . S
C217 O212 1.254 . S
C217 O213 1.269 . S
C218 O219 1.249 . S
C218 O220 1.270 . S
O219 Zn211 1.943 . S
O219 C218 1.249 . S
O220 Zn210 2.067 . S
O220 C218 1.270 . S
C221 O214 1.262 . S
C221 O222 1.232 . S
O222 C221 1.232 . S
C223 O215 1.260 . S
C223 O216 1.257 . S
Zn224 O227 2.031 1_556 S
Zn224 O229 2.049 . S
Zn224 O234 2.067 . S
Zn225 O226 1.962 . S
Zn225 O228 1.986 . S
Zn225 O230 1.996 . S
Zn225 O233 1.943 . S
O226 Zn225 1.962 . S
O226 C231 1.254 1_556 S
O227 Zn224 2.031 1_554 S
O227 C231 1.269 . S
O228 Zn225 1.986 . S
O228 C235 1.262 . S
O229 Zn224 2.049 . S
O229 C237 1.260 . S
O230 Zn225 1.996 . S
O230 C237 1.257 . S
C231 O226 1.254 1_554 S
C231 O227 1.269 . S
C232 O233 1.249 . S
C232 O234 1.270 . S
O233 Zn225 1.943 . S
O233 C232 1.249 . S
O234 Zn224 2.067 . S
O234 C232 1.270 . S
C235 O228 1.262 . S
C235 O236 1.232 . S
O236 C235 1.232 . S
C237 O229 1.260 . S
C237 O230 1.257 . S
Zn238 O241 2.031 . S
Zn238 O243 2.049 . S
Zn238 O248 2.067 . S
Zn239 O240 1.962 . S
Zn239 O242 1.986 . S
Zn239 O244 1.996 . S
Zn239 O247 1.943 . S
O240 Zn239 1.962 . S
O240 C245 1.254 . S
O241 Zn238 2.031 . S
O241 C245 1.269 . S
O242 Zn239 1.986 . S
O242 C249 1.262 . S
O243 Zn238 2.049 . S
O243 C251 1.260 . S
O244 Zn239 1.996 . S
O244 C251 1.257 . S
C245 O240 1.254 . S
C245 O241 1.269 . S
C246 O247 1.249 . S
C246 O248 1.270 . S
O247 Zn239 1.943 . S
O247 C246 1.249 . S
O248 Zn238 2.067 . S
O248 C246 1.270 . S
C249 O242 1.262 . S
C249 O250 1.232 . S
O250 C249 1.232 . S
C251 O243 1.260 . S
C251 O244 1.257 . S
Zn252 O255 2.031 . S
Zn252 O257 2.049 . S
Zn252 O262 2.067 . S
Zn253 O254 1.962 . S
Zn253 O256 1.986 . S
Zn253 O258 1.996 . S
Zn253 O261 1.943 . S
O254 Zn253 1.962 . S
O254 C259 1.254 . S
O255 Zn252 2.031 . S
O255 C259 1.269 . S
O256 Zn253 1.986 . S
O256 C263 1.262 . S
O257 Zn252 2.049 . S
O257 C265 1.260 . S
O258 Zn253 1.996 . S
O258 C265 1.257 . S
C259 O254 1.254 . S
C259 O255 1.269 . S
C260 O261 1.249 . S
C260 O262 1.270 . S
O261 Zn253 1.943 . S
O261 C260 1.249 . S
O262 Zn252 2.067 . S
O262 C260 1.270 . S
C263 O256 1.262 . S
C263 O264 1.232 . S
O264 C263 1.232 . S
C265 O257 1.260 . S
C265 O258 1.257 . S
Zn266 O269 2.031 . S
Zn266 O271 2.049 . S
Zn266 O276 2.067 . S
Zn267 O268 1.962 . S
Zn267 O270 1.986 . S
Zn267 O272 1.996 . S
Zn267 O275 1.943 . S
O268 Zn267 1.962 . S
O268 C273 1.254 . S
O269 Zn266 2.031 . S
O269 C273 1.269 . S
O270 Zn267 1.986 . S
O270 C277 1.262 . S
O271 Zn266 2.049 . S
O271 C279 1.260 . S
O272 Zn267 1.996 . S
O272 C279 1.257 . S
C273 O268 1.254 . S
C273 O269 1.269 . S
C274 O275 1.249 . S
C274 O276 1.270 . S
O275 Zn267 1.943 . S
O275 C274 1.249 . S
O276 Zn266 2.067 . S
O276 C274 1.270 . S
C277 O270 1.262 . S
C277 O278 1.232 . S
O278 C277 1.232 . S
C279 O271 1.260 . S
C279 O272 1.257 . S
Zn280 O283 2.031 . S
Zn280 O285 2.049 . S
Zn280 O290 2.067 . S
Zn281 O282 1.962 . S
Zn281 O284 1.986 . S
Zn281 O286 1.996 . S
Zn281 O289 1.943 . S
O282 Zn281 1.962 . S
O282 C287 1.254 . S
O283 Zn280 2.031 . S
O283 C287 1.269 . S
O284 Zn281 1.986 . S
O284 C291 1.262 . S
O285 Zn280 2.049 . S
O285 C293 1.260 . S
O286 Zn281 1.996 . S
O286 C293 1.257 . S
C287 O282 1.254 . S
C287 O283 1.269 . S
C288 O289 1.249 . S
C288 O290 1.270 . S
O289 Zn281 1.943 . S
O289 C288 1.249 . S
O290 Zn280 2.067 . S
O290 C288 1.270 . S
C291 O284 1.262 . S
C291 O292 1.232 . S
O292 C291 1.232 . S
C293 O285 1.260 . S
C293 O286 1.257 . S
Zn294 O297 2.031 . S
Zn294 O299 2.049 . S
Zn294 O304 2.067 . S
Zn295 O296 1.962 . S
Zn295 O298 1.986 . S
Zn295 O300 1.996 . S
Zn295 O303 1.943 . S
O296 Zn295 1.962 . S
O296 C301 1.254 . S
O297 Zn294 2.031 . S
O297 C301 1.269 . S
O298 Zn295 1.986 . S
O298 C305 1.262 . S
O299 Zn294 2.049 . S
O299 C307 1.260 . S
O300 Zn295 1.996 . S
O300 C307 1.257 . S
C301 O296 1.254 . S
C301 O297 1.269 . S
C302 O303 1.249 . S
C302 O304 1.270 . S
O303 Zn295 1.943 . S
O303 C302 1.249 . S
O304 Zn294 2.067 . S
O304 C302 1.270 . S
C305 O298 1.262 . S
C305 O306 1.232 . S
O306 C305 1.232 . S
C307 O299 1.260 . S
C307 O300 1.257 . S
Zn308 O311 2.031 1_554 S
Zn308 O313 2.049 . S
Zn308 O318 2.067 . S
Zn309 O310 1.962 . S
Zn309 O312 1.986 . S
Zn309 O314 1.996 . S
Zn309 O317 1.943 . S
O310 Zn309 1.962 . S
O310 C315 1.254 1_554 S
O311 Zn308 2.031 1_556 S
O311 C315 1.269 . S
O312 Zn309 1.986 . S
O312 C319 1.262 . S
O313 Zn308 2.049 . S
O313 C321 1.260 . S
O314 Zn309 1.996 . S
O314 C321 1.257 . S
C315 O310 1.254 1_556 S
C315 O311 1.269 . S
C316 O317 1.249 . S
C316 O318 1.270 . S
O317 Zn309 1.943 . S
O317 C316 1.249 . S
O318 Zn308 2.067 . S
O318 C316 1.270 . S
C319 O312 1.262 . S
C319 O320 1.232 . S
O320 C319 1.232 . S
C321 O313 1.260 . S
C321 O314 1.257 . S
Zn322 O325 2.031 . S
Zn322 O327 2.049 . S
Zn322 O332 2.067 . S
Zn323 O324 1.962 . S
Zn323 O326 1.986 . S
Zn323 O328 1.996 . S
Zn323 O331 1.943 . S
O324 Zn323 1.962 . S
O324 C329 1.254 . S
O325 Zn322 2.031 . S
O325 C329 1.269 . S
O326 Zn323 1.986 . S
O326 C333 1.262 . S
O327 Zn322 2.049 . S
O327 C335 1.260 . S
O328 Zn323 1.996 . S
O328 C335 1.257 . S
C329 O324 1.254 . S
C329 O325 1.269 . S
C330 O331 1.249 . S
C330 O332 1.270 . S
O331 Zn323 1.943 . S
O331 C330 1.249 . S
O332 Zn322 2.067 . S
O332 C330 1.270 . S
C333 O326 1.262 . S
C333 O334 1.232 . S
O334 C333 1.232 . S
C335 O327 1.260 . S
C335 O328 1.257 . S
Zn336 O339 2.031 1_554 S
Zn336 O341 2.049 . S
Zn336 O346 2.067 . S
Zn337 O338 1.962 . S
Zn337 O340 1.986 . S
Zn337 O342 1.996 . S
Zn337 O345 1.943 . S
O338 Zn337 1.962 . S
O338 C343 1.254 1_554 S
O339 Zn336 2.031 1_556 S
O339 C343 1.269 . S
O340 Zn337 1.986 . S
O340 C347 1.262 . S
O341 Zn336 2.049 . S
O341 C349 1.260 . S
O342 Zn337 1.996 . S
O342 C349 1.257 . S
C343 O338 1.254 1_556 S
C343 O339 1.269 . S
C344 O345 1.249 . S
C344 O346 1.270 . S
O345 Zn337 1.943 . S
O345 C344 1.249 . S
O346 Zn336 2.067 . S
O346 C344 1.270 . S
C347 O340 1.262 . S
C347 O348 1.232 . S
O348 C347 1.232 . S
C349 O341 1.260 . S
C349 O342 1.257 . S
Zn350 O353 2.031 . S
Zn350 O355 2.049 . S
Zn350 O360 2.067 . S
Zn351 O352 1.962 . S
Zn351 O354 1.986 . S
Zn351 O356 1.996 . S
Zn351 O359 1.943 . S
O352 Zn351 1.962 . S
O352 C357 1.254 . S
O353 Zn350 2.031 . S
O353 C357 1.269 . S
O354 Zn351 1.986 . S
O354 C361 1.262 . S
O355 Zn350 2.049 . S
O355 C363 1.260 . S
O356 Zn351 1.996 . S
O356 C363 1.257 . S
C357 O352 1.254 . S
C357 O353 1.269 . S
C358 O359 1.249 . S
C358 O360 1.270 . S
O359 Zn351 1.943 . S
O359 C358 1.249 . S
O360 Zn350 2.067 . S
O360 C358 1.270 . S
C361 O354 1.262 . S
C361 O362 1.232 . S
O362 C361 1.232 . S
C363 O355 1.260 . S
C363 O356 1.257 . S
Zn364 O367 2.031 . S
Zn364 O369 2.049 . S
Zn364 O374 2.067 . S
Zn365 O366 1.962 . S
Zn365 O368 1.986 . S
Zn365 O370 1.996 . S
Zn365 O373 1.943 . S
O366 Zn365 1.962 . S
O366 C371 1.254 . S
O367 Zn364 2.031 . S
O367 C371 1.269 . S
O368 Zn365 1.986 . S
O368 C375 1.262 . S
O369 Zn364 2.049 . S
O369 C377 1.260 . S
O370 Zn365 1.996 . S
O370 C377 1.257 . S
C371 O366 1.254 . S
C371 O367 1.269 . S
C372 O373 1.249 . S
C372 O374 1.270 . S
O373 Zn365 1.943 . S
O373 C372 1.249 . S
O374 Zn364 2.067 . S
O374 C372 1.270 . S
C375 O368 1.262 . S
C375 O376 1.232 . S
O376 C375 1.232 . S
C377 O369 1.260 . S
C377 O370 1.257 . S
Zn378 O381 2.031 . S
Zn378 O383 2.049 . S
Zn378 O388 2.067 . S
Zn379 O380 1.962 . S
Zn379 O382 1.986 . S
Zn379 O384 1.996 . S
Zn379 O387 1.943 . S
O380 Zn379 1.962 . S
O380 C385 1.254 . S
O381 Zn378 2.031 . S
O381 C385 1.269 . S
O382 Zn379 1.986 . S
O382 C389 1.262 . S
O383 Zn378 2.049 . S
O383 C391 1.260 . S
O384 Zn379 1.996 . S
O384 C391 1.257 . S
C385 O380 1.254 . S
C385 O381 1.269 . S
C386 O387 1.249 . S
C386 O388 1.270 . S
O387 Zn379 1.943 . S
O387 C386 1.249 . S
O388 Zn378 2.067 . S
O388 C386 1.270 . S
C389 O382 1.262 . S
C389 O390 1.232 . S
O390 C389 1.232 . S
C391 O383 1.260 . S
C391 O384 1.257 . S
Zn392 O395 2.031 . S
Zn392 O397 2.049 . S
Zn392 O402 2.067 . S
Zn393 O394 1.962 . S
Zn393 O396 1.986 . S
Zn393 O398 1.996 . S
Zn393 O401 1.943 . S
O394 Zn393 1.962 . S
O394 C399 1.254 . S
O395 Zn392 2.031 . S
O395 C399 1.269 . S
O396 Zn393 1.986 . S
O396 C403 1.262 . S
O397 Zn392 2.049 . S
O397 C405 1.260 . S
O398 Zn393 1.996 . S
O398 C405 1.257 . S
C399 O394 1.254 . S
C399 O395 1.269 . S
C400 O401 1.249 . S
C400 O402 1.270 . S
O401 Zn393 1.943 . S
O401 C400 1.249 . S
O402 Zn392 2.067 . S
O402 C400 1.270 . S
C403 O396 1.262 . S
C403 O404 1.232 . S
O404 C403 1.232 . S
C405 O397 1.260 . S
C405 O398 1.257 . S
Zn406 O409 2.031 . S
Zn406 O411 2.049 . S
Zn406 O416 2.067 . S
Zn407 O408 1.962 . S
Zn407 O410 1.986 . S
Zn407 O412 1.996 . S
Zn407 O415 1.943 . S
O408 Zn407 1.962 . S
O408 C413 1.254 . S
O409 Zn406 2.031 . S
O409 C413 1.269 . S
O410 Zn407 1.986 . S
O410 C417 1.262 . S
O411 Zn406 2.049 . S
O411 C419 1.260 . S
O412 Zn407 1.996 . S
O412 C419 1.257 . S
C413 O408 1.254 . S
C413 O409 1.269 . S
C414 O415 1.249 . S
C414 O416 1.270 . S
O415 Zn407 1.943 . S
O415 C414 1.249 . S
O416 Zn406 2.067 . S
O416 C414 1.270 . S
C417 O410 1.262 . S
C417 O418 1.232 . S
O418 C417 1.232 . S
C419 O411 1.260 . S
C419 O412 1.257 . S
Zn420 O423 2.031 1_556 S
Zn420 O425 2.049 . S
Zn420 O430 2.067 . S
Zn421 O422 1.962 . S
Zn421 O424 1.986 . S
Zn421 O426 1.996 . S
Zn421 O429 1.943 . S
O422 Zn421 1.962 . S
O422 C427 1.254 1_556 S
O423 Zn420 2.031 1_554 S
O423 C427 1.269 . S
O424 Zn421 1.986 . S
O424 C431 1.262 . S
O425 Zn420 2.049 . S
O425 C433 1.260 . S
O426 Zn421 1.996 . S
O426 C433 1.257 . S
C427 O422 1.254 1_554 S
C427 O423 1.269 . S
C428 O429 1.249 . S
C428 O430 1.270 . S
O429 Zn421 1.943 . S
O429 C428 1.249 . S
O430 Zn420 2.067 . S
O430 C428 1.270 . S
C431 O424 1.262 . S
C431 O432 1.232 . S
O432 C431 1.232 . S
C433 O425 1.260 . S
C433 O426 1.257 . S
Zn434 O437 2.031 . S
Zn434 O439 2.049 . S
Zn434 O444 2.067 . S
Zn435 O436 1.962 . S
Zn435 O438 1.986 . S
Zn435 O440 1.996 . S
Zn435 O443 1.943 . S
O436 Zn435 1.962 . S
O436 C441 1.254 . S
O437 Zn434 2.031 . S
O437 C441 1.269 . S
O438 Zn435 1.986 . S
O438 C445 1.262 . S
O439 Zn434 2.049 . S
O439 C447 1.260 . S
O440 Zn435 1.996 . S
O440 C447 1.257 . S
C441 O436 1.254 . S
C441 O437 1.269 . S
C442 O443 1.249 . S
C442 O444 1.270 . S
O443 Zn435 1.943 . S
O443 C442 1.249 . S
O444 Zn434 2.067 . S
O444 C442 1.270 . S
C445 O438 1.262 . S
C445 O446 1.232 . S
O446 C445 1.232 . S
C447 O439 1.260 . S
C447 O440 1.257 . S
C448 C449 1.369 . S
C448 C450 1.419 . S
C448 H452 0.930 . S
C449 C448 1.369 . S
C449 C458 1.429 1_545 S
C450 C448 1.419 . S
C450 C451 1.363 1_545 S
C450 H453 0.929 . S
C451 C450 1.363 1_565 S
C451 C457 1.428 . S
H452 C448 0.930 . S
H453 C450 0.929 . S
S454 N455 1.613 . S
S454 N456 1.610 . S
N455 S454 1.613 . S
N455 C458 1.350 . S
N456 S454 1.610 . S
N456 C457 1.351 . S
C457 C451 1.428 . S
C457 N456 1.351 . S
C457 C458 1.434 . S
C458 C449 1.429 1_565 S
C458 N455 1.350 . S
C458 C457 1.434 . S
C459 C460 1.369 . S
C459 C461 1.419 . S
C459 H463 0.930 . S
C460 C459 1.369 . S
C460 C469 1.429 . S
C461 C459 1.419 . S
C461 C462 1.363 . S
C461 H464 0.929 . S
C462 C461 1.363 . S
C462 C468 1.428 . S
H463 C459 0.930 . S
H464 C461 0.929 . S
S465 N466 1.613 . S
S465 N467 1.610 . S
N466 S465 1.613 . S
N466 C469 1.350 . S
N467 S465 1.610 . S
N467 C468 1.351 . S
C468 C462 1.428 . S
C468 N467 1.351 . S
C468 C469 1.434 . S
C469 C460 1.429 . S
C469 N466 1.350 . S
C469 C468 1.434 . S
C470 C471 1.369 . S
C470 C472 1.419 . S
C470 H474 0.930 . S
C471 C470 1.369 . S
C471 C480 1.429 1_545 S
C472 C470 1.419 . S
C472 C473 1.363 1_545 S
C472 H475 0.929 . S
C473 C472 1.363 1_565 S
C473 C479 1.428 . S
H474 C470 0.930 . S
H475 C472 0.929 . S
S476 N477 1.613 . S
S476 N478 1.610 . S
N477 S476 1.613 . S
N477 C480 1.350 . S
N478 S476 1.610 . S
N478 C479 1.351 . S
C479 C473 1.428 . S
C479 N478 1.351 . S
C479 C480 1.434 . S
C480 C471 1.429 1_565 S
C480 N477 1.350 . S
C480 C479 1.434 . S
C481 C482 1.369 1_554 S
C481 C483 1.419 . S
C481 H485 0.930 . S
C482 C481 1.369 1_556 S
C482 C491 1.429 . S
C483 C481 1.419 . S
C483 C484 1.363 . S
C483 H486 0.929 . S
C484 C483 1.363 . S
C484 C490 1.428 1_554 S
H485 C481 0.930 . S
H486 C483 0.929 . S
S487 N488 1.613 . S
S487 N489 1.610 . S
N488 S487 1.613 . S
N488 C491 1.350 . S
N489 S487 1.610 . S
N489 C490 1.351 . S
C490 C484 1.428 1_556 S
C490 N489 1.351 . S
C490 C491 1.434 . S
C491 C482 1.429 . S
C491 N488 1.350 . S
C491 C490 1.434 . S
C492 C493 1.369 . S
C492 C494 1.419 1_565 S
C492 H496 0.930 . S
C493 C492 1.369 . S
C493 C502 1.429 . S
C494 C492 1.419 1_545 S
C494 C495 1.363 . S
C494 H497 0.929 . S
C495 C494 1.363 . S
C495 C501 1.428 . S
H496 C492 0.930 . S
H497 C494 0.929 . S
S498 N499 1.599 1_545 S
S498 N500 1.625 . S
N499 S498 1.599 1_565 S
N499 C502 1.350 . S
N500 S498 1.625 . S
N500 C501 1.351 . S
C501 C495 1.428 . S
C501 N500 1.351 . S
C501 C502 1.434 1_545 S
C502 C493 1.429 . S
C502 N499 1.350 . S
C502 C501 1.434 1_565 S
C503 C504 1.369 . S
C503 C505 1.419 . S
C503 H507 0.930 . S
C504 C503 1.369 . S
C504 C513 1.429 . S
C505 C503 1.419 . S
C505 C506 1.363 . S
C505 H508 0.929 . S
C506 C505 1.363 . S
C506 C512 1.428 . S
H507 C503 0.930 . S
H508 C505 0.929 . S
S509 N510 1.613 . S
S509 N511 1.610 . S
N510 S509 1.613 . S
N510 C513 1.350 . S
N511 S509 1.610 . S
N511 C512 1.351 . S
C512 C506 1.428 . S
C512 N511 1.351 . S
C512 C513 1.434 . S
C513 C504 1.429 . S
C513 N510 1.350 . S
C513 C512 1.434 . S
C514 C515 1.369 1_545 S
C514 C516 1.419 . S
C514 H518 0.930 . S
C515 C514 1.369 1_565 S
C515 C524 1.429 . S
C516 C514 1.419 . S
C516 C517 1.363 . S
C516 H519 0.929 . S
C517 C516 1.363 . S
C517 C523 1.428 1_545 S
H518 C514 0.930 . S
H519 C516 0.929 . S
S520 N521 1.613 . S
S520 N522 1.610 . S
N521 S520 1.613 . S
N521 C524 1.350 . S
N522 S520 1.610 . S
N522 C523 1.351 . S
C523 C517 1.428 1_565 S
C523 N522 1.351 . S
C523 C524 1.434 . S
C524 C515 1.429 . S
C524 N521 1.350 . S
C524 C523 1.434 . S
C525 C526 1.369 1_554 S
C525 C527 1.419 . S
C525 H529 0.930 . S
C526 C525 1.369 1_556 S
C526 C535 1.429 . S
C527 C525 1.419 . S
C527 C528 1.363 . S
C527 H530 0.929 . S
C528 C527 1.363 . S
C528 C534 1.428 1_554 S
H529 C525 0.930 . S
H530 C527 0.929 . S
S531 N532 1.613 . S
S531 N533 1.610 . S
N532 S531 1.613 . S
N532 C535 1.350 . S
N533 S531 1.610 . S
N533 C534 1.351 . S
C534 C528 1.428 1_556 S
C534 N533 1.351 . S
C534 C535 1.434 . S
C535 C526 1.429 . S
C535 N532 1.350 . S
C535 C534 1.434 . S
C536 C537 1.369 . S
C536 C538 1.419 . S
C536 H540 0.930 . S
C537 C536 1.369 . S
C537 C546 1.429 . S
C538 C536 1.419 . S
C538 C539 1.363 . S
C538 H541 0.929 . S
C539 C538 1.363 . S
C539 C545 1.428 . S
H540 C536 0.930 . S
H541 C538 0.929 . S
S542 N543 1.613 . S
S542 N544 1.610 . S
N543 S542 1.613 . S
N543 C546 1.350 . S
N544 S542 1.610 . S
N544 C545 1.351 . S
C545 C539 1.428 . S
C545 N544 1.351 . S
C545 C546 1.434 . S
C546 C537 1.429 . S
C546 N543 1.350 . S
C546 C545 1.434 . S
C547 C548 1.369 1_554 S
C547 C549 1.419 . S
C547 H551 0.930 . S
C548 C547 1.369 1_556 S
C548 C557 1.429 . S
C549 C547 1.419 . S
C549 C550 1.363 . S
C549 H552 0.929 . S
C550 C549 1.363 . S
C550 C556 1.428 1_554 S
H551 C547 0.930 . S
H552 C549 0.929 . S
S553 N554 1.613 . S
S553 N555 1.610 . S
N554 S553 1.613 . S
N554 C557 1.350 . S
N555 S553 1.610 . S
N555 C556 1.351 . S
C556 C550 1.428 1_556 S
C556 N555 1.351 . S
C556 C557 1.434 . S
C557 C548 1.429 . S
C557 N554 1.350 . S
C557 C556 1.434 . S
C558 C559 1.369 . S
C558 C560 1.419 . S
C558 H562 0.930 . S
C559 C558 1.369 . S
C559 C568 1.429 . S
C560 C558 1.419 . S
C560 C561 1.363 . S
C560 H563 0.929 . S
C561 C560 1.363 . S
C561 C567 1.428 . S
H562 C558 0.930 . S
H563 C560 0.929 . S
S564 N565 1.613 . S
S564 N566 1.610 . S
N565 S564 1.613 . S
N565 C568 1.350 . S
N566 S564 1.610 . S
N566 C567 1.351 . S
C567 C561 1.428 . S
C567 N566 1.351 . S
C567 C568 1.434 . S
C568 C559 1.429 . S
C568 N565 1.350 . S
C568 C567 1.434 . S
C569 C570 1.369 . S
C569 C571 1.419 . S
C569 H573 0.930 . S
C570 C569 1.369 . S
C570 C579 1.429 . S
C571 C569 1.419 . S
C571 C572 1.363 . S
C571 H574 0.929 . S
C572 C571 1.363 . S
C572 C578 1.428 . S
H573 C569 0.930 . S
H574 C571 0.929 . S
S575 N576 1.613 . S
S575 N577 1.610 . S
N576 S575 1.613 . S
N576 C579 1.350 . S
N577 S575 1.610 . S
N577 C578 1.351 . S
C578 C572 1.428 . S
C578 N577 1.351 . S
C578 C579 1.434 . S
C579 C570 1.429 . S
C579 N576 1.350 . S
C579 C578 1.434 . S
C580 C581 1.369 . S
C580 C582 1.419 . S
C580 H584 0.930 . S
C581 C580 1.369 . S
C581 C590 1.429 . S
C582 C580 1.419 . S
C582 C583 1.363 . S
C582 H585 0.929 . S
C583 C582 1.363 . S
C583 C589 1.428 . S
H584 C580 0.930 . S
H585 C582 0.929 . S
S586 N587 1.613 . S
S586 N588 1.610 . S
N587 S586 1.613 . S
N587 C590 1.350 . S
N588 S586 1.610 . S
N588 C589 1.351 . S
C589 C583 1.428 . S
C589 N588 1.351 . S
C589 C590 1.434 . S
C590 C581 1.429 . S
C590 N587 1.350 . S
C590 C589 1.434 . S
C591 C592 1.369 1_556 S
C591 C593 1.419 . S
C591 H595 0.930 . S
C592 C591 1.369 1_554 S
C592 C601 1.429 . S
C593 C591 1.419 . S
C593 C594 1.363 . S
C593 H596 0.929 . S
C594 C593 1.363 . S
C594 C600 1.428 1_556 S
H595 C591 0.930 . S
H596 C593 0.929 . S
S597 N598 1.613 . S
S597 N599 1.610 . S
N598 S597 1.613 . S
N598 C601 1.350 . S
N599 S597 1.610 . S
N599 C600 1.351 . S
C600 C594 1.428 1_554 S
C600 N599 1.351 . S
C600 C601 1.434 . S
C601 C592 1.429 . S
C601 N598 1.350 . S
C601 C600 1.434 . S
C602 C603 1.369 . S
C602 C604 1.419 . S
C602 H606 0.930 . S
C603 C602 1.369 . S
C603 C612 1.429 . S
C604 C602 1.419 . S
C604 C605 1.363 . S
C604 H607 0.929 . S
C605 C604 1.363 . S
C605 C611 1.428 . S
H606 C602 0.930 . S
H607 C604 0.929 . S
S608 N609 1.613 . S
S608 N610 1.610 . S
N609 S608 1.613 . S
N609 C612 1.350 . S
N610 S608 1.610 . S
N610 C611 1.351 . S
C611 C605 1.428 . S
C611 N610 1.351 . S
C611 C612 1.434 . S
C612 C603 1.429 . S
C612 N609 1.350 . S
C612 C611 1.434 . S
C613 C614 1.369 . S
C613 C615 1.419 . S
C613 H617 0.930 . S
C614 C613 1.369 . S
C614 C623 1.429 . S
C615 C613 1.419 . S
C615 C616 1.363 . S
C615 H618 0.929 . S
C616 C615 1.363 . S
C616 C622 1.428 . S
H617 C613 0.930 . S
H618 C615 0.929 . S
S619 N620 1.613 . S
S619 N621 1.610 . S
N620 S619 1.613 . S
N620 C623 1.350 . S
N621 S619 1.610 . S
N621 C622 1.351 . S
C622 C616 1.428 . S
C622 N621 1.351 . S
C622 C623 1.434 . S
C623 C614 1.429 . S
C623 N620 1.350 . S
C623 C622 1.434 . S
C624 C625 1.369 . S
C624 C626 1.419 . S
C624 H628 0.930 . S
C625 C624 1.369 . S
C625 C634 1.429 . S
C626 C624 1.419 . S
C626 C627 1.363 . S
C626 H629 0.929 . S
C627 C626 1.363 . S
C627 C633 1.428 . S
H628 C624 0.930 . S
H629 C626 0.929 . S
S630 N631 1.613 . S
S630 N632 1.610 . S
N631 S630 1.613 . S
N631 C634 1.350 . S
N632 S630 1.610 . S
N632 C633 1.351 . S
C633 C627 1.428 . S
C633 N632 1.351 . S
C633 C634 1.434 . S
C634 C625 1.429 . S
C634 N631 1.350 . S
C634 C633 1.434 . S
C635 C636 1.369 1_455 S
C635 C637 1.419 . S
C635 H639 0.930 . S
C636 C635 1.369 1_655 S
C636 C645 1.429 1_655 S
C637 C635 1.419 . S
C637 C638 1.363 . S
C637 H640 0.929 . S
C638 C637 1.363 . S
C638 C644 1.428 . S
H639 C635 0.930 . S
H640 C637 0.929 . S
S641 N642 1.613 1_455 S
S641 N643 1.610 . S
N642 S641 1.613 1_655 S
N642 C645 1.350 1_655 S
N643 S641 1.610 . S
N643 C644 1.351 . S
C644 C638 1.428 . S
C644 N643 1.351 . S
C644 C645 1.434 . S
C645 C636 1.429 1_455 S
C645 N642 1.350 1_455 S
C645 C644 1.434 . S
C646 C647 1.369 . S
C646 C648 1.419 . S
C646 H650 0.930 . S
C647 C646 1.369 . S
C647 C656 1.429 . S
C648 C646 1.419 . S
C648 C649 1.363 . S
C648 H651 0.929 . S
C649 C648 1.363 . S
C649 C655 1.428 . S
H650 C646 0.930 . S
H651 C648 0.929 . S
S652 N653 1.613 . S
S652 N654 1.610 . S
N653 S652 1.613 . S
N653 C656 1.350 . S
N654 S652 1.610 . S
N654 C655 1.351 . S
C655 C649 1.428 . S
C655 N654 1.351 . S
C655 C656 1.434 . S
C656 C647 1.429 . S
C656 N653 1.350 . S
C656 C655 1.434 . S
C657 C658 1.369 . S
C657 C659 1.419 . S
C657 H661 0.930 . S
C658 C657 1.369 . S
C658 C667 1.429 . S
C659 C657 1.419 . S
C659 C660 1.363 . S
C659 H662 0.929 . S
C660 C659 1.363 . S
C660 C666 1.428 . S
H661 C657 0.930 . S
H662 C659 0.929 . S
S663 N664 1.613 . S
S663 N665 1.610 . S
N664 S663 1.613 . S
N664 C667 1.350 . S
N665 S663 1.610 . S
N665 C666 1.351 . S
C666 C660 1.428 . S
C666 N665 1.351 . S
C666 C667 1.434 . S
C667 C658 1.429 . S
C667 N664 1.350 . S
C667 C666 1.434 . S
C668 C669 1.369 . S
C668 C670 1.419 . S
C668 H672 0.930 . S
C669 C668 1.369 . S
C669 C678 1.429 . S
C670 C668 1.419 . S
C670 C671 1.363 . S
C670 H673 0.929 . S
C671 C670 1.363 . S
C671 C677 1.428 . S
H672 C668 0.930 . S
H673 C670 0.929 . S
S674 N675 1.613 . S
S674 N676 1.610 . S
N675 S674 1.613 . S
N675 C678 1.350 . S
N676 S674 1.610 . S
N676 C677 1.351 . S
C677 C671 1.428 . S
C677 N676 1.351 . S
C677 C678 1.434 . S
C678 C669 1.429 . S
C678 N675 1.350 . S
C678 C677 1.434 . S
C679 C680 1.369 . S
C679 C681 1.419 . S
C679 H683 0.930 . S
C680 C679 1.369 . S
C680 C689 1.429 . S
C681 C679 1.419 . S
C681 C682 1.363 . S
C681 H684 0.929 . S
C682 C681 1.363 . S
C682 C688 1.428 . S
H683 C679 0.930 . S
H684 C681 0.929 . S
S685 N686 1.613 . S
S685 N687 1.610 . S
N686 S685 1.613 . S
N686 C689 1.350 . S
N687 S685 1.610 . S
N687 C688 1.351 . S
C688 C682 1.428 . S
C688 N687 1.351 . S
C688 C689 1.434 . S
C689 C680 1.429 . S
C689 N686 1.350 . S
C689 C688 1.434 . S
C690 C691 1.369 . S
C690 C692 1.419 . S
C690 H694 0.930 . S
C691 C690 1.369 . S
C691 C700 1.429 . S
C692 C690 1.419 . S
C692 C693 1.363 . S
C692 H695 0.929 . S
C693 C692 1.363 . S
C693 C699 1.428 . S
H694 C690 0.930 . S
H695 C692 0.929 . S
S696 N697 1.613 . S
S696 N698 1.610 . S
N697 S696 1.613 . S
N697 C700 1.350 . S
N698 S696 1.610 . S
N698 C699 1.351 . S
C699 C693 1.428 . S
C699 N698 1.351 . S
C699 C700 1.434 . S
C700 C691 1.429 . S
C700 N697 1.350 . S
C700 C699 1.434 . S
C701 C702 1.369 . S
C701 C703 1.419 . S
C701 H705 0.930 . S
C702 C701 1.369 . S
C702 C711 1.429 . S
C703 C701 1.419 . S
C703 C704 1.363 1_455 S
C703 H706 0.929 . S
C704 C703 1.363 1_655 S
C704 C710 1.428 1_655 S
H705 C701 0.930 . S
H706 C703 0.929 . S
S707 N708 1.613 . S
S707 N709 1.610 1_455 S
N708 S707 1.613 . S
N708 C711 1.350 . S
N709 S707 1.610 1_655 S
N709 C710 1.351 1_655 S
C710 C704 1.428 1_455 S
C710 N709 1.351 1_455 S
C710 C711 1.434 . S
C711 C702 1.429 . S
C711 N708 1.350 . S
C711 C710 1.434 . S
C712 C713 1.369 . S
C712 C714 1.419 . S
C712 H716 0.930 . S
C713 C712 1.369 . S
C713 C722 1.429 . S
C714 C712 1.419 . S
C714 C715 1.363 . S
C714 H717 0.929 . S
C715 C714 1.363 . S
C715 C721 1.428 . S
H716 C712 0.930 . S
H717 C714 0.929 . S
S718 N719 1.613 . S
S718 N720 1.610 . S
N719 S718 1.613 . S
N719 C722 1.350 . S
N720 S718 1.610 . S
N720 C721 1.351 . S
C721 C715 1.428 . S
C721 N720 1.351 . S
C721 C722 1.434 . S
C722 C713 1.429 . S
C722 N719 1.350 . S
C722 C721 1.434 . S
C723 C724 1.369 . S
C723 C725 1.419 . S
C723 H727 0.930 . S
C724 C723 1.369 . S
C724 C733 1.429 . S
C725 C723 1.419 . S
C725 C726 1.363 1_655 S
C725 H728 0.929 1_655 S
C726 C725 1.363 1_455 S
C726 C732 1.428 1_455 S
H727 C723 0.930 . S
H728 C725 0.929 1_455 S
S729 N730 1.613 . S
S729 N731 1.629 . S
N730 S729 1.613 . S
N730 C733 1.350 . S
N731 S729 1.629 . S
N731 C732 1.359 . S
C732 C726 1.428 1_655 S
C732 N731 1.359 . S
C732 C733 1.434 . S
C733 C724 1.429 . S
C733 N730 1.350 . S
C733 C732 1.434 . S
C734 C735 1.369 . S
C734 C736 1.419 . S
C734 H738 0.930 . S
C735 C734 1.369 . S
C735 C744 1.429 . S
C736 C734 1.419 . S
C736 C737 1.363 . S
C736 H739 0.929 . S
C737 C736 1.363 . S
C737 C743 1.428 . S
H738 C734 0.930 . S
H739 C736 0.929 . S
S740 N741 1.613 . S
S740 N742 1.610 . S
N741 S740 1.613 . S
N741 C744 1.350 . S
N742 S740 1.610 . S
N742 C743 1.351 . S
C743 C737 1.428 . S
C743 N742 1.351 . S
C743 C744 1.434 . S
C744 C735 1.429 . S
C744 N741 1.350 . S
C744 C743 1.434 . S
C745 C746 1.369 . S
C745 C747 1.419 . S
C745 H749 0.930 . S
C746 C745 1.369 . S
C746 C755 1.429 . S
C747 C745 1.419 . S
C747 C748 1.363 . S
C747 H750 0.929 . S
C748 C747 1.363 . S
C748 C754 1.428 . S
H749 C745 0.930 . S
H750 C747 0.929 . S
S751 N752 1.613 . S
S751 N753 1.610 . S
N752 S751 1.613 . S
N752 C755 1.350 . S
N753 S751 1.610 . S
N753 C754 1.351 . S
C754 C748 1.428 . S
C754 N753 1.351 . S
C754 C755 1.434 . S
C755 C746 1.429 . S
C755 N752 1.350 . S
C755 C754 1.434 . S
C756 C757 1.369 . S
C756 C758 1.419 . S
C756 H760 0.930 . S
C757 C756 1.369 . S
C757 C766 1.429 . S
C758 C756 1.419 . S
C758 C759 1.363 . S
C758 H761 0.929 . S
C759 C758 1.363 . S
C759 C765 1.428 . S
H760 C756 0.930 . S
H761 C758 0.929 . S
S762 N763 1.613 . S
S762 N764 1.610 . S
N763 S762 1.613 . S
N763 C766 1.350 . S
N764 S762 1.610 . S
N764 C765 1.351 . S
C765 C759 1.428 . S
C765 N764 1.351 . S
C765 C766 1.434 . S
C766 C757 1.429 . S
C766 N763 1.350 . S
C766 C765 1.434 . S
C767 C768 1.369 . S
C767 C769 1.419 . S
C767 H771 0.930 . S
C768 C767 1.369 . S
C768 C777 1.429 . S
C769 C767 1.419 . S
C769 C770 1.363 . S
C769 H772 0.929 . S
C770 C769 1.363 . S
C770 C776 1.428 . S
H771 C767 0.930 . S
H772 C769 0.929 . S
S773 N774 1.613 . S
S773 N775 1.610 . S
N774 S773 1.613 . S
N774 C777 1.350 . S
N775 S773 1.610 . S
N775 C776 1.351 . S
C776 C770 1.428 . S
C776 N775 1.351 . S
C776 C777 1.434 . S
C777 C768 1.429 . S
C777 N774 1.350 . S
C777 C776 1.434 . S
C778 C779 1.369 . S
C778 C780 1.419 . S
C778 H782 0.930 . S
C779 C778 1.369 . S
C779 C788 1.429 . S
C780 C778 1.419 . S
C780 C781 1.363 . S
C780 H783 0.929 . S
C781 C780 1.363 . S
C781 C787 1.428 . S
H782 C778 0.930 . S
H783 C780 0.929 . S
S784 N785 1.613 . S
S784 N786 1.610 . S
N785 S784 1.613 . S
N785 C788 1.350 . S
N786 S784 1.610 . S
N786 C787 1.351 . S
C787 C781 1.428 . S
C787 N786 1.351 . S
C787 C788 1.434 . S
C788 C779 1.429 . S
C788 N785 1.350 . S
C788 C787 1.434 . S
C789 C790 1.369 . S
C789 C791 1.419 . S
C789 H793 0.930 . S
C790 C789 1.369 . S
C790 C799 1.429 . S
C791 C789 1.419 . S
C791 C792 1.363 1_655 S
C791 H794 0.929 1_655 S
C792 C791 1.363 1_455 S
C792 C798 1.428 1_455 S
H793 C789 0.930 . S
H794 C791 0.929 1_455 S
S795 N796 1.613 . S
S795 N797 1.610 1_655 S
N796 S795 1.613 . S
N796 C799 1.350 . S
N797 S795 1.610 1_455 S
N797 C798 1.351 1_455 S
C798 C792 1.428 1_655 S
C798 N797 1.351 1_655 S
C798 C799 1.434 . S
C799 C790 1.429 . S
C799 N796 1.350 . S
C799 C798 1.434 . S
C800 C801 1.369 . S
C800 C802 1.419 . S
C800 H804 0.930 . S
C801 C800 1.369 . S
C801 C810 1.429 . S
C802 C800 1.419 . S
C802 C803 1.363 . S
C802 H805 0.929 . S
C803 C802 1.363 . S
C803 C809 1.428 . S
H804 C800 0.930 . S
H805 C802 0.929 . S
S806 N807 1.613 1_554 S
S806 N808 1.610 1_554 S
N807 S806 1.613 1_556 S
N807 C810 1.350 . S
N808 S806 1.610 1_556 S
N808 C809 1.351 . S
C809 C803 1.428 . S
C809 N808 1.351 . S
C809 C810 1.434 . S
C810 C801 1.429 . S
C810 N807 1.350 . S
C810 C809 1.434 . S
C811 C812 1.369 . S
C811 C813 1.419 . S
C811 H815 0.930 . S
C812 C811 1.369 . S
C812 C821 1.429 . S
C813 C811 1.419 . S
C813 C814 1.363 . S
C813 H816 0.929 . S
C814 C813 1.363 . S
C814 C820 1.428 . S
H815 C811 0.930 . S
H816 C813 0.929 . S
S817 N818 1.613 . S
S817 N819 1.610 . S
N818 S817 1.613 . S
N818 C821 1.350 . S
N819 S817 1.610 . S
N819 C820 1.351 . S
C820 C814 1.428 . S
C820 N819 1.351 . S
C820 C821 1.434 . S
C821 C812 1.429 . S
C821 N818 1.350 . S
C821 C820 1.434 . S
C822 C823 1.369 . S
C822 C824 1.419 . S
C822 H826 0.930 . S
C823 C822 1.369 . S
C823 C832 1.429 . S
C824 C822 1.419 . S
C824 C825 1.363 . S
C824 H827 0.929 . S
C825 C824 1.363 . S
C825 C831 1.428 . S
H826 C822 0.930 . S
H827 C824 0.929 . S
S828 N829 1.613 . S
S828 N830 1.610 . S
N829 S828 1.613 . S
N829 C832 1.350 . S
N830 S828 1.610 . S
N830 C831 1.351 . S
C831 C825 1.428 . S
C831 N830 1.351 . S
C831 C832 1.434 . S
C832 C823 1.429 . S
C832 N829 1.350 . S
C832 C831 1.434 . S
C833 C834 1.369 . S
C833 C835 1.419 . S
C833 H837 0.930 . S
C834 C833 1.369 . S
C834 C843 1.429 . S
C835 C833 1.419 . S
C835 C836 1.363 1_655 S
C835 H838 0.924 1_655 S
C836 C835 1.363 1_455 S
C836 C842 1.428 1_455 S
H837 C833 0.930 . S
H838 C835 0.924 1_455 S
S839 N840 1.613 . S
S839 N841 1.610 1_655 S
N840 S839 1.613 . S
N840 C843 1.350 . S
N841 S839 1.610 1_455 S
N841 C842 1.351 1_455 S
C842 C836 1.428 1_655 S
C842 N841 1.351 1_655 S
C842 C843 1.434 . S
C843 C834 1.429 . S
C843 N840 1.350 . S
C843 C842 1.434 . S
C844 C845 1.369 . S
C844 C846 1.419 . S
C844 H848 0.930 . S
C845 C844 1.369 . S
C845 C854 1.429 . S
C846 C844 1.419 . S
C846 C847 1.363 . S
C846 H849 0.929 . S
C847 C846 1.363 . S
C847 C853 1.428 . S
H848 C844 0.930 . S
H849 C846 0.929 . S
S850 N851 1.613 . S
S850 N852 1.610 . S
N851 S850 1.613 . S
N851 C854 1.350 . S
N852 S850 1.610 . S
N852 C853 1.351 . S
C853 C847 1.428 . S
C853 N852 1.351 . S
C853 C854 1.434 . S
C854 C845 1.429 . S
C854 N851 1.350 . S
C854 C853 1.434 . S
C855 C856 1.369 1_655 S
C855 C857 1.419 . S
C855 H859 0.930 . S
C856 C855 1.369 1_455 S
C856 C865 1.429 1_455 S
C857 C855 1.419 . S
C857 C858 1.363 . S
C857 H860 0.929 . S
C858 C857 1.363 . S
C858 C864 1.428 . S
H859 C855 0.930 . S
H860 C857 0.929 . S
S861 N862 1.613 1_655 S
S861 N863 1.610 . S
N862 S861 1.613 1_455 S
N862 C865 1.350 1_455 S
N863 S861 1.610 . S
N863 C864 1.351 . S
C864 C858 1.428 . S
C864 N863 1.351 . S
C864 C865 1.434 . S
C865 C856 1.429 1_655 S
C865 N862 1.350 1_655 S
C865 C864 1.434 . S
C866 C867 1.369 . S
C866 C868 1.419 . S
C866 H870 0.930 . S
C867 C866 1.369 . S
C867 C876 1.429 . S
C868 C866 1.419 . S
C868 C869 1.363 . S
C868 H871 0.929 . S
C869 C868 1.363 . S
C869 C875 1.428 . S
H870 C866 0.930 . S
H871 C868 0.929 . S
S872 N873 1.613 1_556 S
S872 N874 1.610 1_556 S
N873 S872 1.613 1_554 S
N873 C876 1.350 . S
N874 S872 1.610 1_554 S
N874 C875 1.351 . S
C875 C869 1.428 . S
C875 N874 1.351 . S
C875 C876 1.434 . S
C876 C867 1.429 . S
C876 N873 1.350 . S
C876 C875 1.434 . S
C877 C878 1.369 . S
C877 C879 1.419 . S
C877 H881 0.930 . S
C878 C877 1.369 . S
C878 C887 1.429 . S
C879 C877 1.419 . S
C879 C880 1.363 . S
C879 H882 0.929 . S
C880 C879 1.363 . S
C880 C886 1.428 . S
H881 C877 0.930 . S
H882 C879 0.929 . S
S883 N884 1.613 . S
S883 N885 1.610 . S
N884 S883 1.613 . S
N884 C887 1.350 . S
N885 S883 1.610 . S
N885 C886 1.351 . S
C886 C880 1.428 . S
C886 N885 1.351 . S
C886 C887 1.434 . S
C887 C878 1.429 . S
C887 N884 1.350 . S
C887 C886 1.434 . S
C888 C889 1.369 . S
C888 C890 1.419 . S
C888 H892 0.930 . S
C889 C888 1.369 . S
C889 C898 1.429 . S
C890 C888 1.419 . S
C890 C891 1.363 . S
C890 H893 0.929 . S
C891 C890 1.363 . S
C891 C897 1.428 . S
H892 C888 0.930 . S
H893 C890 0.929 . S
S894 N895 1.613 . S
S894 N896 1.610 . S
N895 S894 1.613 . S
N895 C898 1.350 . S
N896 S894 1.610 . S
N896 C897 1.351 . S
C897 C891 1.428 . S
C897 N896 1.351 . S
C897 C898 1.434 . S
C898 C889 1.429 . S
C898 N895 1.350 . S
C898 C897 1.434 . S
C899 C900 1.369 . S
C899 C901 1.419 . S
C899 H903 0.930 . S
C900 C899 1.369 . S
C900 C909 1.429 . S
C901 C899 1.419 . S
C901 C902 1.363 . S
C901 H904 0.929 . S
C902 C901 1.363 . S
C902 C908 1.428 . S
H903 C899 0.930 . S
H904 C901 0.929 . S
S905 N906 1.613 1_554 S
S905 N907 1.610 1_554 S
N906 S905 1.613 1_556 S
N906 C909 1.350 . S
N907 S905 1.610 1_556 S
N907 C908 1.351 . S
C908 C902 1.428 . S
C908 N907 1.351 . S
C908 C909 1.434 . S
C909 C900 1.429 . S
C909 N906 1.350 . S
C909 C908 1.434 . S
C910 C911 1.369 . S
C910 C912 1.419 . S
C910 H914 0.930 . S
C911 C910 1.369 . S
C911 C920 1.429 . S
C912 C910 1.419 . S
C912 C913 1.363 . S
C912 H915 0.929 . S
C913 C912 1.363 . S
C913 C919 1.428 . S
H914 C910 0.930 . S
H915 C912 0.929 . S
S916 N917 1.613 . S
S916 N918 1.610 . S
N917 S916 1.613 . S
N917 C920 1.350 . S
N918 S916 1.610 . S
N918 C919 1.351 . S
C919 C913 1.428 . S
C919 N918 1.351 . S
C919 C920 1.434 . S
C920 C911 1.429 . S
C920 N917 1.350 . S
C920 C919 1.434 . S
C921 C922 1.369 . S
C921 C923 1.419 . S
C921 H925 0.930 . S
C922 C921 1.369 . S
C922 C931 1.429 . S
C923 C921 1.419 . S
C923 C924 1.363 1_455 S
C923 H926 0.929 . S
C924 C923 1.363 1_655 S
C924 C930 1.428 1_655 S
H925 C921 0.930 . S
H926 C923 0.929 . S
S927 N928 1.613 . S
S927 N929 1.610 1_455 S
N928 S927 1.613 . S
N928 C931 1.350 . S
N929 S927 1.610 1_655 S
N929 C930 1.351 1_655 S
C930 C924 1.428 1_455 S
C930 N929 1.351 1_455 S
C930 C931 1.434 . S
C931 C922 1.429 . S
C931 N928 1.350 . S
C931 C930 1.434 . S
C932 C933 1.369 . S
C932 C934 1.419 . S
C932 H936 0.930 . S
C933 C932 1.369 . S
C933 C942 1.429 . S
C934 C932 1.419 . S
C934 C935 1.363 . S
C934 H937 0.929 . S
C935 C934 1.363 . S
C935 C941 1.428 . S
H936 C932 0.930 . S
H937 C934 0.929 . S
S938 N939 1.613 . S
S938 N940 1.610 . S
N939 S938 1.613 . S
N939 C942 1.350 . S
N940 S938 1.610 . S
N940 C941 1.351 . S
C941 C935 1.428 . S
C941 N940 1.351 . S
C941 C942 1.434 . S
C942 C933 1.429 . S
C942 N939 1.350 . S
C942 C941 1.434 . S
C943 C944 1.369 1_455 S
C943 C945 1.419 . S
C943 H947 0.930 . S
C944 C943 1.369 1_655 S
C944 C953 1.429 1_655 S
C945 C943 1.419 . S
C945 C946 1.363 . S
C945 H948 0.929 . S
C946 C945 1.363 . S
C946 C952 1.428 . S
H947 C943 0.930 . S
H948 C945 0.929 . S
S949 N950 1.613 1_455 S
S949 N951 1.610 . S
N950 S949 1.613 1_655 S
N950 C953 1.350 1_655 S
N951 S949 1.610 . S
N951 C952 1.351 . S
C952 C946 1.428 . S
C952 N951 1.351 . S
C952 C953 1.434 . S
C953 C944 1.429 1_455 S
C953 N950 1.350 1_455 S
C953 C952 1.434 . S
C954 C955 1.369 . S
C954 C956 1.419 . S
C954 H958 0.930 . S
C955 C954 1.369 . S
C955 C964 1.429 . S
C956 C954 1.419 . S
C956 C957 1.363 . S
C956 H959 0.929 . S
C957 C956 1.363 . S
C957 C963 1.428 . S
H958 C954 0.930 . S
H959 C956 0.929 . S
S960 N961 1.613 . S
S960 N962 1.610 . S
N961 S960 1.613 . S
N961 C964 1.350 . S
N962 S960 1.610 . S
N962 C963 1.351 . S
C963 C957 1.428 . S
C963 N962 1.351 . S
C963 C964 1.434 . S
C964 C955 1.429 . S
C964 N961 1.350 . S
C964 C963 1.434 . S
C965 C966 1.369 . S
C965 C967 1.419 . S
C965 H969 0.930 . S
C966 C965 1.369 . S
C966 C975 1.429 . S
C967 C965 1.419 . S
C967 C968 1.363 . S
C967 H970 0.929 . S
C968 C967 1.363 . S
C968 C974 1.428 . S
H969 C965 0.930 . S
H970 C967 0.929 . S
S971 N972 1.613 . S
S971 N973 1.610 . S
N972 S971 1.613 . S
N972 C975 1.350 . S
N973 S971 1.610 . S
N973 C974 1.351 . S
C974 C968 1.428 . S
C974 N973 1.351 . S
C974 C975 1.434 . S
C975 C966 1.429 . S
C975 N972 1.350 . S
C975 C974 1.434 . S
C976 C977 1.369 . S
C976 C978 1.419 . S
C976 H980 0.930 . S
C977 C976 1.369 . S
C977 C986 1.429 . S
C978 C976 1.419 . S
C978 C979 1.363 . S
C978 H981 0.929 . S
C979 C978 1.363 . S
C979 C985 1.428 . S
H980 C976 0.930 . S
H981 C978 0.929 . S
S982 N983 1.613 . S
S982 N984 1.610 . S
N983 S982 1.613 . S
N983 C986 1.350 . S
N984 S982 1.610 . S
N984 C985 1.351 . S
C985 C979 1.428 . S
C985 N984 1.351 . S
C985 C986 1.434 . S
C986 C977 1.429 . S
C986 N983 1.350 . S
C986 C985 1.434 . S
C987 C988 1.369 . S
C987 C989 1.419 . S
C987 H991 0.930 . S
C988 C987 1.369 . S
C988 C997 1.429 . S
C989 C987 1.419 . S
C989 C990 1.363 . S
C989 H992 0.929 . S
C990 C989 1.363 . S
C990 C996 1.428 . S
H991 C987 0.930 . S
H992 C989 0.929 . S
S993 N994 1.613 . S
S993 N995 1.610 . S
N994 S993 1.613 . S
N994 C997 1.350 . S
N995 S993 1.610 . S
N995 C996 1.351 . S
C996 C990 1.428 . S
C996 N995 1.351 . S
C996 C997 1.434 . S
C997 C988 1.429 . S
C997 N994 1.350 . S
C997 C996 1.434 . S
C998 C999 1.369 . S
C998 C1000 1.419 . S
C998 H1002 0.930 . S
C999 C998 1.369 . S
C999 C1008 1.429 . S
C1000 C998 1.419 . S
C1000 C1001 1.363 . S
C1000 H1003 0.929 . S
C1001 C1000 1.363 . S
C1001 C1007 1.428 . S
H1002 C998 0.930 . S
H1003 C1000 0.929 . S
S1004 N1005 1.613 . S
S1004 N1006 1.610 . S
N1005 S1004 1.613 . S
N1005 C1008 1.350 . S
N1006 S1004 1.610 . S
N1006 C1007 1.351 . S
C1007 C1001 1.428 . S
C1007 N1006 1.351 . S
C1007 C1008 1.434 . S
C1008 C999 1.429 . S
C1008 N1005 1.350 . S
C1008 C1007 1.434 . S
C1009 C1010 1.369 . S
C1009 C1011 1.419 . S
C1009 H1013 0.930 . S
C1010 C1009 1.369 . S
C1010 C1019 1.429 . S
C1011 C1009 1.419 . S
C1011 C1012 1.363 . S
C1011 H1014 0.929 . S
C1012 C1011 1.363 . S
C1012 C1018 1.428 . S
H1013 C1009 0.930 . S
H1014 C1011 0.929 . S
S1015 N1016 1.613 . S
S1015 N1017 1.610 . S
N1016 S1015 1.613 . S
N1016 C1019 1.350 . S
N1017 S1015 1.610 . S
N1017 C1018 1.351 . S
C1018 C1012 1.428 . S
C1018 N1017 1.351 . S
C1018 C1019 1.434 . S
C1019 C1010 1.429 . S
C1019 N1016 1.350 . S
C1019 C1018 1.434 . S
C1020 C1021 1.369 . S
C1020 C1022 1.419 . S
C1020 H1024 0.930 . S
C1021 C1020 1.369 . S
C1021 C1030 1.429 . S
C1022 C1020 1.419 . S
C1022 C1023 1.363 . S
C1022 H1025 0.929 . S
C1023 C1022 1.363 . S
C1023 C1029 1.428 . S
H1024 C1020 0.930 . S
H1025 C1022 0.929 . S
S1026 N1027 1.613 . S
S1026 N1028 1.610 . S
N1027 S1026 1.613 . S
N1027 C1030 1.350 . S
N1028 S1026 1.610 . S
N1028 C1029 1.351 . S
C1029 C1023 1.428 . S
C1029 N1028 1.351 . S
C1029 C1030 1.434 . S
C1030 C1021 1.429 . S
C1030 N1027 1.350 . S
C1030 C1029 1.434 . S
C1031 C1032 1.369 . S
C1031 C1033 1.419 . S
C1031 H1035 0.930 . S
C1032 C1031 1.369 . S
C1032 C1041 1.429 . S
C1033 C1031 1.419 . S
C1033 C1034 1.363 . S
C1033 H1036 0.929 . S
C1034 C1033 1.363 . S
C1034 C1040 1.428 . S
H1035 C1031 0.930 . S
H1036 C1033 0.929 . S
S1037 N1038 1.613 . S
S1037 N1039 1.610 . S
N1038 S1037 1.613 . S
N1038 C1041 1.350 . S
N1039 S1037 1.610 . S
N1039 C1040 1.351 . S
C1040 C1034 1.428 . S
C1040 N1039 1.351 . S
C1040 C1041 1.434 . S
C1041 C1032 1.429 . S
C1041 N1038 1.350 . S
C1041 C1040 1.434 . S
C1042 C1043 1.369 . S
C1042 C1044 1.419 . S
C1042 H1046 0.930 . S
C1043 C1042 1.369 . S
C1043 C1052 1.429 . S
C1044 C1042 1.419 . S
C1044 C1045 1.363 . S
C1044 H1047 0.929 . S
C1045 C1044 1.363 . S
C1045 C1051 1.428 . S
H1046 C1042 0.930 . S
H1047 C1044 0.929 . S
S1048 N1049 1.613 . S
S1048 N1050 1.610 . S
N1049 S1048 1.613 . S
N1049 C1052 1.350 . S
N1050 S1048 1.610 . S
N1050 C1051 1.351 . S
C1051 C1045 1.428 . S
C1051 N1050 1.351 . S
C1051 C1052 1.434 . S
C1052 C1043 1.429 . S
C1052 N1049 1.350 . S
C1052 C1051 1.434 . S
C1053 C1054 1.369 . S
C1053 C1055 1.419 . S
C1053 H1057 0.930 . S
C1054 C1053 1.369 . S
C1054 C1063 1.429 . S
C1055 C1053 1.419 . S
C1055 C1056 1.363 . S
C1055 H1058 0.929 . S
C1056 C1055 1.363 . S
C1056 C1062 1.428 . S
H1057 C1053 0.930 . S
H1058 C1055 0.929 . S
S1059 N1060 1.613 . S
S1059 N1061 1.610 . S
N1060 S1059 1.613 . S
N1060 C1063 1.350 . S
N1061 S1059 1.610 . S
N1061 C1062 1.351 . S
C1062 C1056 1.428 . S
C1062 N1061 1.351 . S
C1062 C1063 1.434 . S
C1063 C1054 1.429 . S
C1063 N1060 1.350 . S
C1063 C1062 1.434 . S
C1064 C1065 1.369 . S
C1064 C1066 1.419 . S
C1064 H1068 0.930 . S
C1065 C1064 1.369 . S
C1065 C1074 1.429 . S
C1066 C1064 1.419 . S
C1066 C1067 1.363 . S
C1066 H1069 0.929 . S
C1067 C1066 1.363 . S
C1067 C1073 1.428 . S
H1068 C1064 0.930 . S
H1069 C1066 0.929 . S
S1070 N1071 1.613 . S
S1070 N1072 1.610 . S
N1071 S1070 1.613 . S
N1071 C1074 1.350 . S
N1072 S1070 1.610 . S
N1072 C1073 1.351 . S
C1073 C1067 1.428 . S
C1073 N1072 1.351 . S
C1073 C1074 1.434 . S
C1074 C1065 1.429 . S
C1074 N1071 1.350 . S
C1074 C1073 1.434 . S
C1075 C1076 1.369 . S
C1075 C1077 1.419 . S
C1075 H1079 0.930 . S
C1076 C1075 1.369 . S
C1076 C1085 1.429 . S
C1077 C1075 1.419 . S
C1077 C1078 1.363 . S
C1077 H1080 0.929 . S
C1078 C1077 1.363 . S
C1078 C1084 1.428 . S
H1079 C1075 0.930 . S
H1080 C1077 0.929 . S
S1081 N1082 1.613 . S
S1081 N1083 1.610 . S
N1082 S1081 1.613 . S
N1082 C1085 1.350 . S
N1083 S1081 1.610 . S
N1083 C1084 1.351 . S
C1084 C1078 1.428 . S
C1084 N1083 1.351 . S
C1084 C1085 1.434 . S
C1085 C1076 1.429 . S
C1085 N1082 1.350 . S
C1085 C1084 1.434 . S
C1086 C1087 1.369 . S
C1086 C1088 1.419 . S
C1086 H1090 0.930 . S
C1087 C1086 1.369 . S
C1087 C1096 1.429 . S
C1088 C1086 1.419 . S
C1088 C1089 1.363 . S
C1088 H1091 0.929 . S
C1089 C1088 1.363 . S
C1089 C1095 1.428 . S
H1090 C1086 0.930 . S
H1091 C1088 0.929 . S
S1092 N1093 1.613 . S
S1092 N1094 1.610 . S
N1093 S1092 1.613 . S
N1093 C1096 1.350 . S
N1094 S1092 1.610 . S
N1094 C1095 1.351 . S
C1095 C1089 1.428 . S
C1095 N1094 1.351 . S
C1095 C1096 1.434 . S
C1096 C1087 1.429 . S
C1096 N1093 1.350 . S
C1096 C1095 1.434 . S
C1097 C1098 1.369 . S
C1097 C1099 1.419 . S
C1097 H1101 0.930 . S
C1098 C1097 1.369 . S
C1098 C1107 1.429 . S
C1099 C1097 1.419 . S
C1099 C1100 1.363 . S
C1099 H1102 0.929 . S
C1100 C1099 1.363 . S
C1100 C1106 1.428 . S
H1101 C1097 0.930 . S
H1102 C1099 0.929 . S
S1103 N1104 1.613 . S
S1103 N1105 1.610 . S
N1104 S1103 1.613 . S
N1104 C1107 1.350 . S
N1105 S1103 1.610 . S
N1105 C1106 1.351 . S
C1106 C1100 1.428 . S
C1106 N1105 1.351 . S
C1106 C1107 1.434 . S
C1107 C1098 1.429 . S
C1107 N1104 1.350 . S
C1107 C1106 1.434 . S
C1108 C1109 1.369 . S
C1108 C1110 1.419 . S
C1108 H1112 0.930 . S
C1109 C1108 1.369 . S
C1109 C1118 1.429 . S
C1110 C1108 1.419 . S
C1110 C1111 1.363 . S
C1110 H1113 0.929 . S
C1111 C1110 1.363 . S
C1111 C1117 1.428 . S
H1112 C1108 0.930 . S
H1113 C1110 0.929 . S
S1114 N1115 1.613 . S
S1114 N1116 1.610 . S
N1115 S1114 1.613 . S
N1115 C1118 1.350 . S
N1116 S1114 1.610 . S
N1116 C1117 1.351 . S
C1117 C1111 1.428 . S
C1117 N1116 1.351 . S
C1117 C1118 1.434 . S
C1118 C1109 1.429 . S
C1118 N1115 1.350 . S
C1118 C1117 1.434 . S
C1119 C1120 1.369 . S
C1119 C1121 1.419 . S
C1119 H1123 0.930 . S
C1120 C1119 1.369 . S
C1120 C1129 1.429 . S
C1121 C1119 1.419 . S
C1121 C1122 1.363 . S
C1121 H1124 0.929 . S
C1122 C1121 1.363 . S
C1122 C1128 1.428 . S
H1123 C1119 0.930 . S
H1124 C1121 0.929 . S
S1125 N1126 1.613 . S
S1125 N1127 1.610 . S
N1126 S1125 1.613 . S
N1126 C1129 1.350 . S
N1127 S1125 1.610 . S
N1127 C1128 1.351 . S
C1128 C1122 1.428 . S
C1128 N1127 1.351 . S
C1128 C1129 1.434 . S
C1129 C1120 1.429 . S
C1129 N1126 1.350 . S
C1129 C1128 1.434 . S
C1130 C1131 1.369 . S
C1130 C1132 1.419 . S
C1130 H1134 0.930 . S
C1131 C1130 1.369 . S
C1131 C1140 1.429 . S
C1132 C1130 1.419 . S
C1132 C1133 1.363 . S
C1132 H1135 0.929 . S
C1133 C1132 1.363 . S
C1133 C1139 1.428 . S
H1134 C1130 0.930 . S
H1135 C1132 0.929 . S
S1136 N1137 1.613 . S
S1136 N1138 1.610 . S
N1137 S1136 1.613 . S
N1137 C1140 1.350 . S
N1138 S1136 1.610 . S
N1138 C1139 1.351 . S
C1139 C1133 1.428 . S
C1139 N1138 1.351 . S
C1139 C1140 1.434 . S
C1140 C1131 1.429 . S
C1140 N1137 1.350 . S
C1140 C1139 1.434 . S
C1141 C1142 1.369 . S
C1141 C1143 1.419 . S
C1141 H1145 0.930 . S
C1142 C1141 1.369 . S
C1142 C1151 1.429 . S
C1143 C1141 1.419 . S
C1143 C1144 1.363 . S
C1143 H1146 0.929 . S
C1144 C1143 1.363 . S
C1144 C1150 1.428 . S
H1145 C1141 0.930 . S
H1146 C1143 0.929 . S
S1147 N1148 1.613 . S
S1147 N1149 1.610 . S
N1148 S1147 1.613 . S
N1148 C1151 1.350 . S
N1149 S1147 1.610 . S
N1149 C1150 1.351 . S
C1150 C1144 1.428 . S
C1150 N1149 1.351 . S
C1150 C1151 1.434 . S
C1151 C1142 1.429 . S
C1151 N1148 1.350 . S
C1151 C1150 1.434 . S
C449 C11 1.389 . S
C451 C67 1.389 . S
C460 C25 1.388 . S
C462 C81 1.388 . S
C471 C95 1.390 . S
C473 C39 1.389 . S
C482 C109 1.391 . S
C484 C53 1.390 . S
C493 C123 1.387 . S
C495 C179 1.388 . S
C504 C137 1.388 . S
C506 C193 1.388 . S
C515 C207 1.388 . S
C517 C151 1.389 . S
C526 C165 1.390 . S
C528 C221 1.389 . S
C537 C291 1.388 . S
C539 C235 1.388 . S
C548 C305 1.391 . S
C550 C249 1.390 . S
C559 C263 1.390 . S
C561 C319 1.391 . S
C570 C333 1.388 . S
C572 C277 1.389 . S
C581 C347 1.390 . S
C583 C403 1.391 . S
C592 C417 1.390 . S
C594 C361 1.390 . S
C603 C431 1.389 . S
C605 C375 1.390 . S
C614 C389 1.387 . S
C616 C445 1.388 . S
C625 C8 1.354 . S
C627 C391 1.384 . S
C636 C125 1.389 . S
C638 C22 1.346 . S
C647 C36 1.345 . S
C649 C363 1.378 . S
C658 C50 1.340 . S
C660 C153 1.384 . S
C669 C419 1.387 . S
C671 C64 1.343 . S
C680 C209 1.379 . S
C682 C78 1.349 . S
C691 C92 1.344 . S
C693 C447 1.378 . S
C702 C106 1.340 . S
C704 C181 1.384 . S
C713 C279 1.378 . S
C715 C120 1.347 . S
C724 C134 1.341 . S
C726 C13 1.379 . S
C735 C251 1.386 . S
C737 C148 1.352 . S
C746 C162 1.343 . S
C748 C41 1.386 . S
C757 C307 1.389 . S
C759 C176 1.347 . S
C768 C190 1.344 . S
C770 C97 1.387 . S
C779 C335 1.388 . S
C781 C204 1.345 . S
C790 C218 1.340 . S
C792 C69 1.380 . S
C801 C167 1.389 . S
C803 C232 1.345 . S
C812 C349 1.387 . S
C814 C246 1.351 . S
C823 C139 1.378 . S
C825 C260 1.349 . S
C834 C274 1.351 . S
C836 C377 1.387 . S
C845 C195 1.386 . S
C847 C288 1.342 . S
C856 C433 1.389 . S
C858 C302 1.346 . S
C867 C223 1.389 . S
C869 C316 1.347 . S
C878 C330 1.345 . S
C880 C405 1.378 . S
C889 C344 1.343 . S
C891 C55 1.378 . S
C900 C358 1.343 . S
C902 C237 1.378 . S
C911 C372 1.344 . S
C913 C27 1.378 . S
C922 C386 1.339 . S
C924 C265 1.382 . S
C933 C400 1.347 . S
C935 C83 1.379 . S
C944 C321 1.377 . S
C946 C414 1.343 . S
C955 C111 1.389 . S
C957 C428 1.350 . S
C966 C442 1.339 . S
C968 C293 1.382 . S
C977 C7 1.246 . S
C979 C105 1.247 . S
C988 C21 1.251 . S
C990 C63 1.250 . S
C999 C35 1.245 . S
C1001 C77 1.246 . S
C1010 C91 1.254 . S
C1012 C49 1.253 . S
C1021 C217 1.245 . S
C1023 C119 1.246 . S
C1032 C175 1.253 . S
C1034 C133 1.252 . S
C1043 C189 1.244 . S
C1045 C147 1.245 . S
C1054 C203 1.253 . S
C1056 C161 1.252 . S
C1065 C231 1.252 . S
C1067 C329 1.252 . S
C1076 C287 1.246 . S
C1078 C245 1.246 . S
C1087 C301 1.249 . S
C1089 C259 1.249 . S
C1098 C315 1.244 . S
C1100 C273 1.245 . S
C1109 C441 1.254 . S
C1111 C343 1.253 . S
C1120 C357 1.244 . S
C1122 C399 1.245 . S
C1131 C371 1.245 . S
C1133 C413 1.246 . S
C1142 C385 1.244 . S
C1144 C427 1.245 . S
