# Generated by pormake.
# Topology lcy-e, (6)-cn, num edge types: 1
# Building blocks:
#     Node 0, Type 0, BuildingBlock: BETDAH_clean_sbu_0, # of connection points: 6
#     Node 1, Type 0, BuildingBlock: BETDAH_clean_sbu_0, # of connection points: 6
#     Node 2, Type 0, BuildingBlock: BETDAH_clean_sbu_0, # of connection points: 6
#     Node 3, Type 0, BuildingBlock: BETDAH_clean_sbu_0, # of connection points: 6
#     Node 4, Type 0, BuildingBlock: BETDAH_clean_sbu_0, # of connection points: 6
#     Node 5, Type 0, BuildingBlock: BETDAH_clean_sbu_0, # of connection points: 6
#     Node 6, Type 0, BuildingBlock: BETDAH_clean_sbu_0, # of connection points: 6
#     Node 7, Type 0, BuildingBlock: BETDAH_clean_sbu_0, # of connection points: 6
#     Node 8, Type 0, BuildingBlock: BETDAH_clean_sbu_0, # of connection points: 6
#     Node 9, Type 0, BuildingBlock: BETDAH_clean_sbu_0, # of connection points: 6
#     Node 10, Type 0, BuildingBlock: BETDAH_clean_sbu_0, # of connection points: 6
#     Node 11, Type 0, BuildingBlock: BETDAH_clean_sbu_0, # of connection points: 6
#     Edge 12, Type (0, 0), BuildingBlock: KIFKEQ_clean_linker_1, # of connection points: 2
#     Edge 13, Type (0, 0), BuildingBlock: KIFKEQ_clean_linker_1, # of connection points: 2
#     Edge 14, Type (0, 0), BuildingBlock: KIFKEQ_clean_linker_1, # of connection points: 2
#     Edge 15, Type (0, 0), BuildingBlock: KIFKEQ_clean_linker_1, # of connection points: 2
#     Edge 16, Type (0, 0), BuildingBlock: KIFKEQ_clean_linker_1, # of connection points: 2
#     Edge 17, Type (0, 0), BuildingBlock: KIFKEQ_clean_linker_1, # of connection points: 2
#     Edge 18, Type (0, 0), BuildingBlock: KIFKEQ_clean_linker_1, # of connection points: 2
#     Edge 19, Type (0, 0), BuildingBlock: KIFKEQ_clean_linker_1, # of connection points: 2
#     Edge 20, Type (0, 0), BuildingBlock: KIFKEQ_clean_linker_1, # of connection points: 2
#     Edge 21, Type (0, 0), BuildingBlock: KIFKEQ_clean_linker_1, # of connection points: 2
#     Edge 22, Type (0, 0), BuildingBlock: KIFKEQ_clean_linker_1, # of connection points: 2
#     Edge 23, Type (0, 0), BuildingBlock: KIFKEQ_clean_linker_1, # of connection points: 2
#     Edge 24, Type (0, 0), BuildingBlock: KIFKEQ_clean_linker_1, # of connection points: 2
#     Edge 25, Type (0, 0), BuildingBlock: KIFKEQ_clean_linker_1, # of connection points: 2
#     Edge 26, Type (0, 0), BuildingBlock: KIFKEQ_clean_linker_1, # of connection points: 2
#     Edge 27, Type (0, 0), BuildingBlock: KIFKEQ_clean_linker_1, # of connection points: 2
#     Edge 28, Type (0, 0), BuildingBlock: KIFKEQ_clean_linker_1, # of connection points: 2
#     Edge 29, Type (0, 0), BuildingBlock: KIFKEQ_clean_linker_1, # of connection points: 2
#     Edge 30, Type (0, 0), BuildingBlock: KIFKEQ_clean_linker_1, # of connection points: 2
#     Edge 31, Type (0, 0), BuildingBlock: KIFKEQ_clean_linker_1, # of connection points: 2
#     Edge 32, Type (0, 0), BuildingBlock: KIFKEQ_clean_linker_1, # of connection points: 2
#     Edge 33, Type (0, 0), BuildingBlock: KIFKEQ_clean_linker_1, # of connection points: 2
#     Edge 34, Type (0, 0), BuildingBlock: KIFKEQ_clean_linker_1, # of connection points: 2
#     Edge 35, Type (0, 0), BuildingBlock: KIFKEQ_clean_linker_1, # of connection points: 2
#     Edge 36, Type (0, 0), BuildingBlock: KIFKEQ_clean_linker_1, # of connection points: 2
#     Edge 37, Type (0, 0), BuildingBlock: KIFKEQ_clean_linker_1, # of connection points: 2
#     Edge 38, Type (0, 0), BuildingBlock: KIFKEQ_clean_linker_1, # of connection points: 2
#     Edge 39, Type (0, 0), BuildingBlock: KIFKEQ_clean_linker_1, # of connection points: 2
#     Edge 40, Type (0, 0), BuildingBlock: KIFKEQ_clean_linker_1, # of connection points: 2
#     Edge 41, Type (0, 0), BuildingBlock: KIFKEQ_clean_linker_1, # of connection points: 2
#     Edge 42, Type (0, 0), BuildingBlock: KIFKEQ_clean_linker_1, # of connection points: 2
#     Edge 43, Type (0, 0), BuildingBlock: KIFKEQ_clean_linker_1, # of connection points: 2
#     Edge 44, Type (0, 0), BuildingBlock: KIFKEQ_clean_linker_1, # of connection points: 2
#     Edge 45, Type (0, 0), BuildingBlock: KIFKEQ_clean_linker_1, # of connection points: 2
#     Edge 46, Type (0, 0), BuildingBlock: KIFKEQ_clean_linker_1, # of connection points: 2
#     Edge 47, Type (0, 0), BuildingBlock: KIFKEQ_clean_linker_1, # of connection points: 2
# Relax obj value: 0.195
# Max RMSD: 0.313
# Mean RMSD: 0.288
data_MOF--net-lcy-e--node1-BETDAH_clean_sbu_0--edge1-KIFKEQ_clean_linker_1
_symmetry_space_group_name_H-M    P1
_symmetry_Int_Tables_number       1
_symmetry_cell_setting            triclinic
loop_
_symmetry_equiv_pos_as_xyz
'x, y, z'
_cell_length_a     45.805196
_cell_length_b     42.047862
_cell_length_c     45.707383
_cell_angle_alpha  89.46492
_cell_angle_beta   90.92104
_cell_angle_gamma 88.238996
loop_
_atom_site_label
_atom_site_type_symbol
_atom_site_fract_x
_atom_site_fract_y
_atom_site_fract_z
_atom_type_partial_charge
Ho0 Ho 0.14051 0.26703 0.47916 0.0
Ho1 Ho 0.16287 0.21569 0.52048 0.0
C2 C 0.19662 0.22052 0.4613 0.0
C3 C 0.13417 0.31318 0.44143 0.0
C4 C 0.14611 0.32029 0.41214 0.0
C5 C 0.17039 0.33968 0.40948 0.0
C6 C 0.18159 0.34673 0.38196 0.0
C7 C 0.1687 0.33473 0.35635 0.0
C8 C 0.14434 0.31542 0.35898 0.0
C9 C 0.13316 0.30831 0.38653 0.0
C10 C 0.10695 0.21576 0.48016 0.0
C11 C 0.11058 0.26147 0.54119 0.0
C12 C 0.16981 0.16756 0.55591 0.0
C13 C 0.15198 0.14502 0.57197 0.0
C14 C 0.12283 0.13973 0.56379 0.0
C15 C 0.10742 0.11565 0.57757 0.0
C16 C 0.12104 0.09649 0.59954 0.0
C17 C 0.14985 0.10286 0.6083 0.0
C18 C 0.16515 0.12684 0.59461 0.0
C19 C 0.1919 0.27142 0.52283 0.0
O20 O 0.18112 0.24723 0.45615 0.0
O21 O 0.19121 0.20201 0.48374 0.0
O22 O 0.11633 0.2896 0.44318 0.0
O23 O 0.15247 0.3136 0.46367 0.0
O24 O 0.09712 0.24487 0.4778 0.0
O25 O 0.13472 0.21459 0.48055 0.0
O26 O 0.12042 0.23166 0.54025 0.0
O27 O 0.11848 0.28246 0.52109 0.0
O28 O 0.1691 0.19707 0.56466 0.0
O29 O 0.16908 0.16518 0.52744 0.0
O30 O 0.2045 0.24363 0.52674 0.0
O31 O 0.16498 0.26793 0.52011 0.0
H32 H 0.18067 0.34965 0.42868 0.0
H33 H 0.2 0.36222 0.38075 0.0
H34 H 0.13396 0.30567 0.33974 0.0
H35 H 0.1143 0.29346 0.38771 0.0
H36 H 0.11231 0.15361 0.54628 0.0
H37 H 0.08527 0.1113 0.57035 0.0
H38 H 0.16075 0.08899 0.62558 0.0
H39 H 0.18757 0.13069 0.60125 0.0
Ho40 Ho 0.99563 0.86371 0.74027 0.0
Ho41 Ho 0.04563 0.88253 0.78097 0.0
C42 C 0.0388 0.92085 0.72108 0.0
C43 C 0.94884 0.86274 0.70789 0.0
C44 C 0.93815 0.87544 0.67939 0.0
C45 C 0.94785 0.90428 0.6678 0.0
C46 C 0.93618 0.91637 0.64124 0.0
C47 C 0.9145 0.89988 0.62603 0.0
C48 C 0.90553 0.87061 0.63745 0.0
C49 C 0.91722 0.85857 0.66383 0.0
C50 C 0.04319 0.82527 0.73765 0.0
C51 C 1.00449 0.82659 0.8008 0.0
C52 C 0.09206 0.88692 0.81376 0.0
C53 C 0.11422 0.86875 0.83149 0.0
C54 C 0.12729 0.84014 0.82174 0.0
C55 C 0.15086 0.82578 0.83742 0.0
C56 C 0.16177 0.83972 0.86313 0.0
C57 C 0.14806 0.86797 0.87304 0.0
C58 C 0.12461 0.88224 0.85741 0.0
C59 C 0.99362 0.91529 0.78643 0.0
O60 O 1.01408 0.90603 0.71617 0.0
O61 O 0.05583 0.91413 0.74388 0.0
O62 O 0.96955 0.84066 0.7072 0.0
O63 O 0.9529 0.88347 0.72865 0.0
O64 O 0.01661 0.81587 0.73476 0.0
O65 O 0.04369 0.8553 0.73973 0.0
O66 O 0.03186 0.83572 0.79996 0.0
O67 O 0.98453 0.83828 0.78193 0.0
O68 O 0.06555 0.88978 0.82383 0.0
O69 O 0.09253 0.88314 0.78541 0.0
O70 O 0.01873 0.92852 0.78939 0.0
O71 O 0.99801 0.88632 0.78246 0.0
H72 H 0.96405 0.91767 0.67949 0.0
H73 H 0.94348 0.93899 0.63306 0.0
H74 H 0.8893 0.85699 0.626 0.0
H75 H 0.9096 0.83619 0.6723 0.0
H76 H 0.11973 0.82927 0.80172 0.0
H77 H 0.16063 0.80386 0.82934 0.0
H78 H 0.15605 0.87972 0.89242 0.0
H79 H 0.11513 0.90449 0.86513 0.0
Ho80 Ho 0.38392 0.77623 0.02445 0.0
Ho81 Ho 0.39711 0.73677 0.96973 0.0
C82 C 0.43196 0.80147 0.97838 0.0
C83 C 0.38559 0.80998 0.07127 0.0
C84 C 0.40532 0.83336 0.08434 0.0
C85 C 0.41339 0.83063 0.11402 0.0
C86 C 0.42976 0.85419 0.12745 0.0
C87 C 0.43817 0.88105 0.11145 0.0
C88 C 0.43107 0.88306 0.08143 0.0
C89 C 0.41494 0.85941 0.06797 0.0
C90 C 0.33977 0.77539 0.9847 0.0
C91 C 0.35663 0.70697 0.01697 0.0
C92 C 0.40153 0.71811 0.91593 0.0
C93 C 0.38638 0.70079 0.89223 0.0
C94 C 0.36383 0.71577 0.87534 0.0
C95 C 0.35229 0.70093 0.85061 0.0
C96 C 0.36297 0.67075 0.84216 0.0
C97 C 0.38509 0.65552 0.85938 0.0
C98 C 0.39675 0.67044 0.88401 0.0
C99 C 0.42864 0.72093 0.01901 0.0
O100 O 0.41591 0.80793 1.00161 0.0
O101 O 0.42974 0.77464 0.96386 0.0
O102 O 0.37147 0.81897 0.04728 0.0
O103 O 0.39524 0.78031 0.07054 0.0
O104 O 0.33627 0.77587 1.01274 0.0
O105 O 0.36658 0.7771 0.97892 0.0
O106 O 0.36013 0.71037 0.98844 0.0
O107 O 0.36778 0.72723 0.03607 0.0
O108 O 0.41249 0.70181 0.93826 0.0
O109 O 0.39003 0.74554 0.92361 0.0
O110 O 0.42002 0.70021 1.00002 0.0
O111 O 0.42142 0.74831 1.00983 0.0
H112 H 0.40632 0.81072 0.12704 0.0
H113 H 0.43474 0.85205 0.15064 0.0
H114 H 0.43759 0.90325 0.06845 0.0
H115 H 0.4094 0.86199 0.04493 0.0
H116 H 0.35548 0.73932 0.88078 0.0
H117 H 0.33503 0.71314 0.83805 0.0
H118 H 0.39406 0.63242 0.85332 0.0
H119 H 0.41447 0.65854 0.89617 0.0
Ho120 Ho 0.54876 0.12445 0.2439 0.0
Ho121 Ho 0.50114 0.10517 0.28793 0.0
C122 C 0.51103 0.0633 0.23146 0.0
C123 C 0.59504 0.1336 0.21365 0.0
C124 C 0.60449 0.12549 0.18375 0.0
C125 C 0.63437 0.12371 0.17765 0.0
C126 C 0.64403 0.11374 0.1502 0.0
C127 C 0.624 0.1053 0.12806 0.0
C128 C 0.59395 0.10722 0.13431 0.0
C129 C 0.58431 0.11711 0.16189 0.0
C130 C 0.49313 0.14361 0.22896 0.0
C131 C 0.53739 0.16716 0.30192 0.0
C132 C 0.45571 0.10049 0.32066 0.0
C133 C 0.43195 0.11963 0.33436 0.0
C134 C 0.41713 0.14493 0.31953 0.0
C135 C 0.39276 0.16036 0.33205 0.0
C136 C 0.38266 0.15079 0.35965 0.0
C137 C 0.39801 0.12579 0.37452 0.0
C138 C 0.4223 0.11051 0.36205 0.0
C139 C 0.55554 0.07665 0.29505 0.0
O140 O 0.53758 0.07473 0.23019 0.0
O141 O 0.49119 0.07554 0.24902 0.0
O142 O 0.57384 0.15511 0.2161 0.0
O143 O 0.5921 0.10914 0.23119 0.0
O144 O 0.51286 0.13455 0.21054 0.0
O145 O 0.50436 0.14288 0.25428 0.0
O146 O 0.51219 0.15302 0.30463 0.0
O147 O 0.55631 0.15896 0.28124 0.0
O148 O 0.48229 0.10299 0.33126 0.0
O149 O 0.45492 0.09823 0.29209 0.0
O150 O 0.53157 0.06246 0.30122 0.0
O151 O 0.54879 0.10451 0.28768 0.0
H152 H 0.65035 0.12952 0.19435 0.0
H153 H 0.66733 0.112 0.1466 0.0
H154 H 0.57781 0.10127 0.11785 0.0
H155 H 0.56112 0.1179 0.16625 0.0
H156 H 0.424 0.15239 0.29805 0.0
H157 H 0.3818 0.17968 0.32003 0.0
H158 H 0.39074 0.11722 0.39551 0.0
H159 H 0.43311 0.09084 0.37379 0.0
Ho160 Ho 0.64008 0.24474 0.55412 0.0
Ho161 Ho 0.65748 0.30337 0.51762 0.0
C162 C 0.69075 0.29234 0.57799 0.0
C163 C 0.64025 0.19367 0.58627 0.0
C164 C 0.65234 0.18346 0.61538 0.0
C165 C 0.67112 0.15649 0.61753 0.0
C166 C 0.68217 0.14583 0.64477 0.0
C167 C 0.67461 0.16177 0.67067 0.0
C168 C 0.6559 0.18891 0.66849 0.0
C169 C 0.64499 0.19971 0.64118 0.0
C170 C 0.60361 0.29525 0.55739 0.0
C171 C 0.60994 0.25619 0.49116 0.0
C172 C 0.66014 0.35681 0.48915 0.0
C173 C 0.64335 0.37987 0.47049 0.0
C174 C 0.61304 0.38488 0.47315 0.0
C175 C 0.59843 0.40942 0.4572 0.0
C176 C 0.61394 0.42945 0.43848 0.0
C177 C 0.64416 0.42368 0.43548 0.0
C178 C 0.65865 0.39921 0.45132 0.0
C179 C 0.69007 0.24873 0.51107 0.0
O180 O 0.67858 0.26418 0.57981 0.0
O181 O 0.6838 0.31312 0.55717 0.0
O182 O 0.61896 0.21517 0.58587 0.0
O183 O 0.65913 0.19826 0.56554 0.0
O184 O 0.59527 0.26609 0.55814 0.0
O185 O 0.63115 0.29653 0.55704 0.0
O186 O 0.61758 0.2862 0.49378 0.0
O187 O 0.61907 0.23389 0.51038 0.0
O188 O 0.66773 0.32933 0.4779 0.0
O189 O 0.65227 0.35448 0.51644 0.0
O190 O 0.70117 0.2768 0.50996 0.0
O191 O 0.66313 0.2519 0.51381 0.0
H192 H 0.67704 0.14341 0.59808 0.0
H193 H 0.69616 0.12459 0.64558 0.0
H194 H 0.64983 0.20194 0.6879 0.0
H195 H 0.63067 0.22069 0.64034 0.0
H196 H 0.6008 0.3703 0.48797 0.0
H197 H 0.57517 0.41321 0.46006 0.0
H198 H 0.6567 0.4381 0.42082 0.0
H199 H 0.68205 0.39579 0.449 0.0
Ho200 Ho 0.99373 0.39304 0.74232 0.0
Ho201 Ho 0.03349 0.3653 0.7902 0.0
C202 C 0.97362 0.33143 0.781 0.0
C203 C 0.95941 0.40187 0.69739 0.0
C204 C 0.93185 0.38813 0.68734 0.0
C205 C 0.92611 0.35585 0.69209 0.0
C206 C 0.89957 0.34346 0.68268 0.0
C207 C 0.87831 0.36314 0.6684 0.0
C208 C 0.88411 0.39554 0.66411 0.0
C209 C 0.91062 0.40785 0.67343 0.0
C210 C 0.99342 0.42691 0.79183 0.0
C211 C 0.05564 0.42356 0.75173 0.0
C212 C 0.06638 0.35468 0.83606 0.0
C213 C 0.08203 0.37245 0.85866 0.0
C214 C 0.0725 0.40303 0.86718 0.0
C215 C 0.08601 0.41792 0.8909 0.0
C216 C 0.10932 0.40252 0.90634 0.0
C217 C 0.11913 0.37223 0.89711 0.0
C218 C 0.10562 0.3574 0.87354 0.0
C219 C 0.03719 0.33674 0.73698 0.0
O220 O 0.96938 0.34946 0.75729 0.0
O221 O 0.9959 0.33523 0.79895 0.0
O222 O 0.95778 0.41914 0.72097 0.0
O223 O 0.98269 0.38302 0.69728 0.0
O224 O 0.9914 0.43917 0.76572 0.0
O225 O 0.99384 0.39674 0.79078 0.0
O226 O 0.05482 0.41111 0.77837 0.0
O227 O 0.03558 0.41693 0.73163 0.0
O228 O 0.07653 0.35557 0.8095 0.0
O229 O 0.03789 0.35701 0.83663 0.0
O230 O 0.03995 0.32122 0.76161 0.0
O231 O 0.03458 0.3657 0.74235 0.0
H232 H 0.94215 0.34018 0.70295 0.0
H233 H 0.89594 0.31839 0.68617 0.0
H234 H 0.86802 0.41155 0.65374 0.0
H235 H 0.9145 0.43287 0.66987 0.0
H236 H 0.05425 0.41506 0.85592 0.0
H237 H 0.0781 0.44135 0.89726 0.0
H238 H 0.13666 0.3594 0.90875 0.0
H239 H 0.1131 0.33372 0.86743 0.0
Ho240 Ho 0.90046 0.76332 0.05498 0.0
Ho241 Ho 0.8816 0.70978 0.01537 0.0
C242 C 0.8473 0.71762 0.07446 0.0
C243 C 0.90447 0.81254 0.08821 0.0
C244 C 0.89319 0.82273 0.1167 0.0
C245 C 0.86519 0.81478 0.12589 0.0
C246 C 0.85489 0.82517 0.15295 0.0
C247 C 0.87245 0.84363 0.17128 0.0
C248 C 0.90068 0.85097 0.16211 0.0
C249 C 0.91088 0.84067 0.13507 0.0
C250 C 0.93628 0.71169 0.05744 0.0
C251 C 0.93238 0.75445 0.99453 0.0
C252 C 0.87647 0.65988 0.98291 0.0
C253 C 0.89344 0.63582 0.96656 0.0
C254 C 0.92327 0.62942 0.97233 0.0
C255 C 0.93804 0.60456 0.95785 0.0
C256 C 0.92316 0.58561 0.93754 0.0
C257 C 0.89341 0.59266 0.93159 0.0
C258 C 0.87877 0.61745 0.94595 0.0
C259 C 0.85072 0.76635 1.00932 0.0
O260 O 0.86085 0.7447 0.07825 0.0
O261 O 0.85375 0.69819 0.05297 0.0
O262 O 0.92341 0.78867 0.08888 0.0
O263 O 0.88537 0.81059 0.06679 0.0
O264 O 0.94476 0.74069 0.05925 0.0
O265 O 0.9086 0.71084 0.05607 0.0
O266 O 0.92406 0.72467 0.9961 0.0
O267 O 0.92205 0.77622 1.01281 0.0
O268 O 0.87517 0.68897 0.9725 0.0
O269 O 0.87932 0.65884 1.01139 0.0
O270 O 0.83905 0.73878 1.00644 0.0
O271 O 0.87758 0.76199 1.01324 0.0
H272 H 0.85119 0.80082 0.11206 0.0
H273 H 0.83299 0.8193 0.15922 0.0
H274 H 0.91501 0.86459 0.17589 0.0
H275 H 0.93264 0.8468 0.12847 0.0
H276 H 0.93497 0.64328 0.9883 0.0
H277 H 0.96092 0.59975 0.96301 0.0
H278 H 0.88139 0.5791 0.91565 0.0
H279 H 0.85575 0.622 0.94123 0.0
Ho280 Ho 0.54256 0.62103 0.23581 0.0
Ho281 Ho 0.49977 0.64232 0.28313 0.0
C282 C 0.55565 0.68402 0.27583 0.0
C283 C 0.57598 0.61946 0.19071 0.0
C284 C 0.60491 0.63157 0.18322 0.0
C285 C 0.6087 0.64597 0.1558 0.0
C286 C 0.63583 0.65765 0.14811 0.0
C287 C 0.65985 0.65503 0.16767 0.0
C288 C 0.65594 0.64079 0.19526 0.0
C289 C 0.6287 0.62933 0.20304 0.0
C290 C 0.54911 0.58819 0.28609 0.0
C291 C 0.48595 0.58078 0.24626 0.0
C292 C 0.46594 0.64719 0.32789 0.0
C293 C 0.45198 0.6277 0.35043 0.0
C294 C 0.46578 0.60023 0.36268 0.0
C295 C 0.45306 0.5842 0.38611 0.0
C296 C 0.42628 0.59526 0.39757 0.0
C297 C 0.4124 0.6224 0.38468 0.0
C298 C 0.4251 0.63835 0.36141 0.0
C299 C 0.49101 0.66879 0.22861 0.0
O300 O 0.56252 0.66649 0.2528 0.0
O301 O 0.53312 0.678 0.29227 0.0
O302 O 0.5754 0.59651 0.21023 0.0
O303 O 0.55521 0.64106 0.19424 0.0
O304 O 0.55407 0.57648 0.26043 0.0
O305 O 0.5434 0.61792 0.28431 0.0
O306 O 0.48719 0.59242 0.27297 0.0
O307 O 0.50314 0.59168 0.2255 0.0
O308 O 0.45609 0.64517 0.30098 0.0
O309 O 0.49438 0.64883 0.32949 0.0
O310 O 0.48572 0.68407 0.25263 0.0
O311 O 0.49844 0.64084 0.23525 0.0
H312 H 0.59064 0.64805 0.14022 0.0
H313 H 0.63816 0.66815 0.12658 0.0
H314 H 0.6739 0.6387 0.21093 0.0
H315 H 0.62629 0.61868 0.2245 0.0
H316 H 0.4866 0.59155 0.35453 0.0
H317 H 0.46422 0.56325 0.39531 0.0
H318 H 0.39208 0.63203 0.39318 0.0
H319 H 0.41423 0.65963 0.35248 0.0
Ho320 Ho 0.23316 0.50656 0.1473 0.0
Ho321 Ho 0.26923 0.44818 0.1287 0.0
C322 C 0.20988 0.46081 0.09437 0.0
C323 C 0.2002 0.5576 0.14844 0.0
C324 C 0.17059 0.56669 0.13677 0.0
C325 C 0.1674 0.58995 0.11461 0.0
C326 C 0.1397 0.59889 0.10338 0.0
C327 C 0.11443 0.58494 0.11418 0.0
C328 C 0.11762 0.56166 0.13638 0.0
C329 C 0.14536 0.55256 0.14749 0.0
C330 C 0.22907 0.45597 0.1827 0.0
C331 C 0.29577 0.49438 0.17759 0.0
C332 C 0.29812 0.39453 0.1242 0.0
C333 C 0.31983 0.37248 0.13825 0.0
C334 C 0.32108 0.36725 0.16866 0.0
C335 C 0.33991 0.34343 0.18069 0.0
C336 C 0.35777 0.32449 0.16252 0.0
C337 C 0.35674 0.33046 0.13216 0.0
C338 C 0.33804 0.35418 0.12024 0.0
C339 C 0.27649 0.50281 0.0974 0.0
O340 O 0.20799 0.48865 0.10767 0.0
O341 O 0.23023 0.43926 0.10139 0.0
O342 O 0.20176 0.53659 0.16974 0.0
O343 O 0.22067 0.55294 0.12913 0.0
O344 O 0.229 0.48513 0.19155 0.0
O345 O 0.22942 0.45473 0.155 0.0
O346 O 0.29364 0.46462 0.16873 0.0
O347 O 0.27639 0.51693 0.16902 0.0
O348 O 0.3073 0.42137 0.11365 0.0
O349 O 0.27256 0.3975 0.13639 0.0
O350 O 0.27667 0.47481 0.08561 0.0
O351 O 0.2738 0.49968 0.12439 0.0
H352 H 0.18638 0.60139 0.10603 0.0
H353 H 0.13805 0.61726 0.08661 0.0
H354 H 0.09866 0.55027 0.14504 0.0
H355 H 0.14694 0.53447 0.16451 0.0
H356 H 0.30714 0.38109 0.183 0.0
H357 H 0.34037 0.33975 0.20418 0.0
H358 H 0.3697 0.31609 0.11738 0.0
H359 H 0.33718 0.3576 0.0967 0.0
Ho360 Ho 0.73315 0.98147 0.88608 0.0
Ho361 Ho 0.77162 0.03665 0.90165 0.0
C362 C 0.71394 0.03192 0.9379 0.0
C363 C 0.70084 0.93195 0.88758 0.0
C364 C 0.67165 0.9241 0.89854 0.0
C365 C 0.66871 0.89665 0.9158 0.0
C366 C 0.64136 0.88836 0.92617 0.0
C367 C 0.61624 0.90728 0.91937 0.0
C368 C 0.61928 0.93497 0.90228 0.0
C369 C 0.64671 0.94339 0.89208 0.0
C370 C 0.72749 0.03069 0.84844 0.0
C371 C 0.79313 0.98873 0.85244 0.0
C372 C 0.80366 0.08637 0.90195 0.0
C373 C 0.82007 0.10678 0.88189 0.0
C374 C 0.80673 0.12184 0.85726 0.0
C375 C 0.82208 0.14372 0.84056 0.0
C376 C 0.85108 0.15078 0.84803 0.0
C377 C 0.86452 0.13494 0.87219 0.0
C378 C 0.84917 0.11328 0.88892 0.0
C379 C 0.78005 0.98207 0.93423 0.0
O380 O 0.71008 1.00406 0.92516 0.0
O381 O 0.73512 0.0506 0.93042 0.0
O382 O 0.7018 0.95129 0.86506 0.0
O383 O 0.72066 0.93786 0.90751 0.0
O384 O 0.72555 1.00109 0.84127 0.0
O385 O 0.73019 0.03339 0.87604 0.0
O386 O 0.78986 0.01905 0.85926 0.0
O387 O 0.77556 0.96731 0.86373 0.0
O388 O 0.81414 0.05751 0.90693 0.0
O389 O 0.77516 0.08767 0.89959 0.0
O390 O 0.78231 0.01037 0.94503 0.0
O391 O 0.77535 0.98478 0.90735 0.0
H392 H 0.68761 0.88142 0.92109 0.0
H393 H 0.63978 0.86668 0.93895 0.0
H394 H 0.60044 0.95023 0.8969 0.0
H395 H 0.64834 0.96489 0.87906 0.0
H396 H 0.78429 0.11725 0.85124 0.0
H397 H 0.81119 0.15528 0.82194 0.0
H398 H 0.88664 0.14011 0.87887 0.0
H399 H 0.85984 0.10221 0.90792 0.0
Ho400 Ho 0.75649 0.97059 0.40353 0.0
Ho401 Ho 0.81416 0.01175 0.39229 0.0
C402 C 0.80511 0.94473 0.35769 0.0
C403 C 0.70602 0.94535 0.3984 0.0
C404 C 0.69248 0.92342 0.37733 0.0
C405 C 0.66372 0.92923 0.36726 0.0
C406 C 0.64952 0.90657 0.35032 0.0
C407 C 0.6637 0.87742 0.34335 0.0
C408 C 0.69307 0.87252 0.35226 0.0
C409 C 0.70732 0.89529 0.36885 0.0
C410 C 0.79905 0.95849 0.44488 0.0
C411 C 0.76757 0.03788 0.43697 0.0
C412 C 0.86741 0.03041 0.38836 0.0
C413 C 0.89119 0.04804 0.40269 0.0
C414 C 0.90154 0.04044 0.43114 0.0
C415 C 0.92653 0.05473 0.44253 0.0
C416 C 0.94182 0.07678 0.42568 0.0
C417 C 0.93086 0.08489 0.39756 0.0
C418 C 0.90593 0.07066 0.38623 0.0
C419 C 0.76493 0.026 0.36012 0.0
O420 O 0.7788 0.94119 0.36886 0.0
O421 O 0.82189 0.96893 0.36412 0.0
O422 O 0.72756 0.93312 0.41442 0.0
O423 O 0.71088 0.97436 0.38937 0.0
O424 O 0.77425 0.94452 0.44407 0.0
O425 O 0.79895 0.97772 0.42376 0.0
O426 O 0.79588 0.03499 0.43167 0.0
O427 O 0.74795 0.0181 0.42603 0.0
O428 O 0.84483 0.04673 0.37755 0.0
O429 O 0.86033 1.0032 0.40007 0.0
O430 O 0.78362 0.04712 0.36809 0.0
O431 O 0.77444 0.99892 0.36814 0.0
H432 H 0.65194 0.9509 0.3732 0.0
H433 H 0.62717 0.91165 0.34327 0.0
H434 H 0.70478 0.85042 0.34767 0.0
H435 H 0.72966 0.89023 0.37598 0.0
H436 H 0.89081 0.02288 0.44432 0.0
H437 H 0.93436 0.04777 0.4642 0.0
H438 H 0.94162 0.10222 0.38415 0.0
H439 H 0.89855 0.07679 0.36419 0.0
Ho440 Ho 0.30374 0.48915 0.63757 0.0
Ho441 Ho 0.26387 0.54237 0.61448 0.0
C442 C 0.3231 0.53257 0.58143 0.0
C443 C 0.34014 0.44151 0.64529 0.0
C444 C 0.36817 0.43151 0.63206 0.0
C445 C 0.36956 0.4214 0.60285 0.0
C446 C 0.39633 0.41218 0.59081 0.0
C447 C 0.42226 0.41305 0.60763 0.0
C448 C 0.42089 0.42347 0.63669 0.0
C449 C 0.39411 0.43243 0.64882 0.0
C450 C 0.30311 0.54112 0.67105 0.0
C451 C 0.24205 0.4989 0.66718 0.0
C452 C 0.2304 0.59264 0.60705 0.0
C453 C 0.21326 0.61549 0.62454 0.0
C454 C 0.2224 0.62441 0.65273 0.0
C455 C 0.20639 0.64754 0.66812 0.0
C456 C 0.18088 0.66184 0.65566 0.0
C457 C 0.1718 0.65257 0.62754 0.0
C458 C 0.18786 0.62967 0.61216 0.0
C459 C 0.2603 0.48588 0.58579 0.0
O460 O 0.32694 0.50569 0.5966 0.0
O461 O 0.30155 0.55285 0.58688 0.0
O462 O 0.34066 0.46733 0.66095 0.0
O463 O 0.31657 0.44026 0.62883 0.0
O464 O 0.30464 0.51221 0.68099 0.0
O465 O 0.30334 0.54168 0.64326 0.0
O466 O 0.24284 0.52815 0.65647 0.0
O467 O 0.26186 0.47681 0.65978 0.0
O468 O 0.22087 0.5637 0.60551 0.0
O469 O 0.25878 0.59333 0.61013 0.0
O470 O 0.25719 0.51343 0.57288 0.0
O471 O 0.26303 0.49017 0.61271 0.0
H472 H 0.35001 0.42055 0.58926 0.0
H473 H 0.39677 0.4044 0.56829 0.0
H474 H 0.44046 0.42395 0.65029 0.0
H475 H 0.39365 0.44001 0.6714 0.0
H476 H 0.24196 0.61367 0.66274 0.0
H477 H 0.21374 0.65397 0.68985 0.0
H478 H 0.15245 0.66338 0.61721 0.0
H479 H 0.18058 0.62326 0.59038 0.0
H480 H 0.16551 0.32994 0.51685 0.0
H481 H 0.24783 0.28373 0.54139 0.0
H482 H 0.18555 0.38166 0.52761 0.0
H483 H 0.26761 0.33581 0.55343 0.0
H484 H 0.24131 0.47216 0.52988 0.0
H485 H 0.22754 0.41991 0.51112 0.0
H486 H 0.25162 0.37659 0.59432 0.0
H487 H 0.26396 0.42843 0.61331 0.0
C488 C 0.18809 0.33085 0.52403 0.0
C489 C 0.20518 0.3027 0.52796 0.0
C490 C 0.19955 0.36055 0.53021 0.0
C491 C 0.22819 0.36283 0.54119 0.0
C492 C 0.24547 0.33474 0.5449 0.0
C493 C 0.23417 0.30497 0.53804 0.0
C494 C 0.24391 0.4514 0.54399 0.0
C495 C 0.25407 0.45441 0.57298 0.0
C496 C 0.23604 0.42154 0.53329 0.0
C497 C 0.23882 0.39411 0.55119 0.0
C498 C 0.24975 0.39712 0.57984 0.0
C499 C 0.2569 0.42691 0.59069 0.0
H500 H 0.83872 0.02593 0.83849 0.0
H501 H 0.80981 0.92938 0.83221 0.0
H502 H 0.88644 0.00943 0.82162 0.0
H503 H 0.85736 0.91298 0.8132 0.0
H504 H 0.95308 0.88442 0.81664 0.0
H505 H 0.90424 0.9024 0.82916 0.0
H506 H 0.91869 0.99283 0.78659 0.0
H507 H 0.96877 0.97492 0.77571 0.0
C508 C 0.84226 1.00118 0.83278 0.0
C509 C 0.82031 0.9789 0.83703 0.0
C510 C 0.86986 0.9917 0.82284 0.0
C511 C 0.87635 0.95968 0.8163 0.0
C512 C 0.85374 0.93771 0.81884 0.0
C513 C 0.8262 0.94713 0.82938 0.0
C514 C 0.94587 0.90826 0.81012 0.0
C515 C 0.96477 0.92835 0.79533 0.0
C516 C 0.91756 0.91851 0.81696 0.0
C517 C 0.90687 0.94902 0.80859 0.0
C518 C 0.92599 0.96929 0.79381 0.0
C519 C 0.95476 0.95915 0.78752 0.0
H520 H 0.32933 0.69799 0.06919 0.0
H521 H 0.35088 0.65079 0.98858 0.0
H522 H 0.3069 0.64981 0.08687 0.0
H523 H 0.33033 0.60203 1.00676 0.0
H524 H 0.27465 0.52152 0.03936 0.0
H525 H 0.29062 0.57215 0.01895 0.0
H526 H 0.3188 0.60048 0.10545 0.0
H527 H 0.30132 0.55148 0.12549 0.0
C528 C 0.32939 0.67723 0.05533 0.0
C529 C 0.34188 0.67824 0.02754 0.0
C530 C 0.31674 0.64939 0.0655 0.0
C531 C 0.31698 0.62151 0.04848 0.0
C532 C 0.32917 0.62287 0.02045 0.0
C533 C 0.34119 0.65091 1.01005 0.0
C534 C 0.28415 0.5388 0.05383 0.0
C535 C 0.28658 0.53261 0.08398 0.0
C536 C 0.29347 0.5678 0.04221 0.0
C537 C 0.30593 0.5909 0.06049 0.0
C538 C 0.30859 0.5841 0.09061 0.0
C539 C 0.29878 0.55564 0.10216 0.0
H540 H 0.57701 0.01926 0.31875 0.0
H541 H 0.60351 0.11177 0.28957 0.0
H542 H 0.62787 1.0061 0.33388 0.0
H543 H 0.65357 0.09863 0.30375 0.0
H544 H 0.73293 0.08168 0.36343 0.0
H545 H 0.68226 0.09194 0.34776 0.0
H546 H 0.67794 0.99583 0.31572 0.0
H547 H 0.72876 0.98569 0.33161 0.0
C548 C 0.59365 0.03659 0.31529 0.0
C549 C 0.58614 0.06652 0.3029 0.0
C550 C 0.6228 0.02908 0.32386 0.0
C551 C 0.64491 0.05145 0.32034 0.0
C552 C 0.63723 0.08101 0.30739 0.0
C553 C 0.6084 0.08841 0.29891 0.0
C554 C 0.72124 0.06288 0.35278 0.0
C555 C 0.73478 0.03289 0.34883 0.0
C556 C 0.69214 0.06869 0.34378 0.0
C557 C 0.67582 0.0447 0.33041 0.0
C558 C 0.68959 0.01475 0.32621 0.0
C559 C 0.71878 1.00901 0.33511 0.0
H560 H 0.66396 0.2036 0.47977 0.0
H561 H 0.74638 0.22535 0.52071 0.0
H562 H 0.68338 0.15218 0.46533 0.0
H563 H 0.7659 0.17242 0.50754 0.0
H564 H 0.79912 0.09014 0.44969 0.0
H565 H 0.7818 0.14042 0.46919 0.0
H566 H 0.69649 0.10148 0.48135 0.0
H567 H 0.71355 0.05146 0.46006 0.0
C568 C 0.68632 0.19715 0.48594 0.0
C569 C 0.70371 0.21846 0.50136 0.0
C570 C 0.6974 0.16735 0.47794 0.0
C571 C 0.72613 0.15755 0.48565 0.0
C572 C 0.74373 0.1791 0.50097 0.0
C573 C 0.73267 0.20944 0.50854 0.0
C574 C 0.77669 0.09206 0.45678 0.0
C575 C 0.75762 0.06671 0.45299 0.0
C576 C 0.76678 0.12107 0.46821 0.0
C577 C 0.73757 0.12548 0.47659 0.0
C578 C 0.71893 0.09944 0.47436 0.0
C579 C 0.72874 0.07054 0.46241 0.0
H580 H 0.10764 0.42508 0.78157 0.0
H581 H 0.06421 0.45858 0.70192 0.0
H582 H 0.15374 0.44499 0.76407 0.0
H583 H 0.11043 0.47901 0.68476 0.0
H584 H 0.19368 0.53622 0.67738 0.0
H585 H 0.1486 0.521 0.70034 0.0
H586 H 0.18638 0.42771 0.71945 0.0
H587 H 0.23175 0.44263 0.69589 0.0
C588 C 0.10775 0.43726 0.76059 0.0
C589 C 0.0822 0.44024 0.74309 0.0
C590 C 0.13424 0.44839 0.75053 0.0
C591 C 0.13563 0.46329 0.72304 0.0
C592 C 0.10988 0.46767 0.70612 0.0
C593 C 0.08345 0.45601 0.71594 0.0
C594 C 0.19267 0.51252 0.68673 0.0
C595 C 0.21637 0.49053 0.68463 0.0
C596 C 0.16672 0.50384 0.69975 0.0
C597 C 0.16399 0.47318 0.71144 0.0
C598 C 0.18803 0.45158 0.71065 0.0
C599 C 0.21395 0.4601 0.69715 0.0
H600 H 0.80055 0.96994 0.99064 0.0
H601 H 0.77629 0.92351 0.91042 0.0
H602 H 0.81473 0.91771 1.01229 0.0
H603 H 0.78908 0.87193 0.93224 0.0
H604 H 0.79454 0.78105 0.98968 0.0
H605 H 0.77434 0.83379 0.9748 0.0
H606 H 0.85601 0.8759 0.99838 0.0
H607 H 0.87641 0.82362 1.01191 0.0
C608 C 0.79774 0.94867 0.97784 0.0
C609 C 0.78698 0.95093 0.94891 0.0
C610 C 0.80583 0.9188 0.99019 0.0
C611 C 0.80269 0.89064 0.97405 0.0
C612 C 0.79124 0.89301 0.94545 0.0
C613 C 0.78389 0.92271 0.93296 0.0
C614 C 0.80801 0.80164 0.99194 0.0
C615 C 0.83698 0.79811 1.0023 0.0
C616 C 0.79648 0.8318 0.98345 0.0
C617 C 0.81351 0.85908 0.98573 0.0
C618 C 0.84214 0.85555 0.99688 0.0
C619 C 0.85381 0.82546 1.00468 0.0
H620 H 0.47321 0.55198 0.19395 0.0
H621 H 0.44053 0.56623 0.28129 0.0
H622 H 0.42699 0.52783 0.1799 0.0
H623 H 0.39452 0.54315 0.26684 0.0
H624 H 0.3072 0.54926 0.20711 0.0
H625 H 0.35478 0.56603 0.22571 0.0
H626 H 0.39454 0.47727 0.19796 0.0
H627 H 0.34718 0.45999 0.18016 0.0
C628 C 0.4565 0.54949 0.21024 0.0
C629 C 0.46063 0.56115 0.23868 0.0
C630 C 0.43007 0.53579 0.20219 0.0
C631 C 0.40722 0.53409 0.22227 0.0
C632 C 0.41174 0.54452 0.25093 0.0
C633 C 0.43824 0.55756 0.25916 0.0
C634 C 0.32597 0.53311 0.20548 0.0
C635 C 0.32333 0.50329 0.19228 0.0
C636 C 0.35315 0.54271 0.21605 0.0
C637 C 0.37822 0.52294 0.21301 0.0
C638 C 0.37553 0.49294 0.20037 0.0
C639 C 0.34832 0.48305 0.19041 0.0
H640 H 0.50373 0.18706 0.34728 0.0
H641 H 0.59065 0.19419 0.3126 0.0
H642 H 0.52004 0.21055 0.39281 0.0
H643 H 0.60655 0.21899 0.35837 0.0
H644 H 0.6082 0.28935 0.43961 0.0
H645 H 0.59018 0.27189 0.39204 0.0
H646 H 0.56191 0.18471 0.43141 0.0
H647 H 0.58077 0.20162 0.47917 0.0
C648 C 0.52619 0.19426 0.349 0.0
C649 C 0.54598 0.18834 0.32621 0.0
C650 C 0.53546 0.20759 0.37524 0.0
C651 C 0.56456 0.21606 0.37916 0.0
C652 C 0.58396 0.21248 0.35579 0.0
C653 C 0.57481 0.19848 0.32956 0.0
C654 C 0.59784 0.26658 0.43832 0.0
C655 C 0.59575 0.24689 0.46329 0.0
C656 C 0.5878 0.25656 0.41098 0.0
C657 C 0.57482 0.22701 0.40814 0.0
C658 C 0.57183 0.20769 0.43315 0.0
C659 C 0.58253 0.21737 0.46043 0.0
H660 H 0.08009 0.31793 0.55138 0.0
H661 H 0.10491 0.22757 0.59163 0.0
H662 H 0.05783 0.33487 0.59711 0.0
H663 H 0.08487 0.24495 0.63739 0.0
H664 H 0.03526 0.27542 0.71668 0.0
H665 H 0.04732 0.25675 0.66768 0.0
H666 H 0.0691 0.35261 0.64273 0.0
H667 H 0.05508 0.37108 0.69058 0.0
C668 C 0.08074 0.30167 0.56992 0.0
C669 C 0.09434 0.27144 0.56769 0.0
C670 C 0.06825 0.31146 0.59638 0.0
C671 C 0.06967 0.29154 0.62151 0.0
C672 C 0.08265 0.26098 0.61878 0.0
C673 C 0.09447 0.25102 0.5923 0.0
C674 C 0.04244 0.29236 0.70051 0.0
C675 C 0.04432 0.32462 0.70751 0.0
C676 C 0.04958 0.28173 0.67238 0.0
C677 C 0.05946 0.30302 0.6508 0.0
C678 C 0.06104 0.33538 0.6581 0.0
C679 C 0.05328 0.34601 0.68586 0.0
H680 H 0.94913 0.82243 0.82114 0.0
H681 H 0.03861 0.79262 0.8405 0.0
H682 H 0.93493 0.80404 0.86945 0.0
H683 H 0.024 0.7736 0.88879 0.0
H684 H 0.96726 0.71722 0.96007 0.0
H685 H 0.98641 0.73137 0.91205 0.0
H686 H 0.9518 0.82725 0.92156 0.0
H687 H 0.93311 0.81346 0.96963 0.0
C688 C 0.96566 0.81126 0.83537 0.0
C689 C 0.99505 0.8092 0.82707 0.0
C690 C 0.95753 0.80103 0.86311 0.0
C691 C 0.97851 0.78797 0.88286 0.0
C692 C 1.00752 0.78378 0.87392 0.0
C693 C 0.01579 0.79457 0.84631 0.0
C694 C 0.96432 0.74149 0.95215 0.0
C695 C 0.94867 0.76425 0.96854 0.0
C696 C 0.97522 0.7495 0.92473 0.0
C697 C 0.97011 0.78019 0.91309 0.0
C698 C 0.95566 0.8033 0.93002 0.0
C699 C 0.94526 0.79549 0.95763 0.0
H700 H 0.46589 0.72579 0.20825 0.0
H701 H 0.49795 0.6338 0.17974 0.0
H702 H 0.45088 0.7391 0.15757 0.0
H703 H 0.4841 0.64716 0.12974 0.0
H704 H 0.42731 0.66431 0.04874 0.0
H705 H 0.44185 0.65342 0.09955 0.0
H706 H 0.46808 0.75073 0.10875 0.0
H707 H 0.45298 0.76157 0.05796 0.0
C708 C 0.47 0.70859 0.19119 0.0
C709 C 0.48312 0.67876 0.1981 0.0
C710 C 0.46151 0.71619 0.16212 0.0
C711 C 0.46596 0.69407 0.13941 0.0
C712 C 0.47964 0.66459 0.14652 0.0
C713 C 0.48793 0.65704 0.17533 0.0
C714 C 0.43641 0.68325 0.06156 0.0
C715 C 0.43907 0.71373 0.04934 0.0
C716 C 0.44481 0.67708 0.09075 0.0
C717 C 0.45631 0.70116 0.10845 0.0
C718 C 0.45903 0.73167 0.09605 0.0
C719 C 0.45057 0.73783 0.06685 0.0
H720 H 0.22573 0.33845 0.33983 0.0
H721 H 0.1373 0.35104 0.30652 0.0
H722 H 0.24413 0.35957 0.29401 0.0
H723 H 0.15575 0.37202 0.26067 0.0
H724 H 0.198 0.40134 0.17587 0.0
H725 H 0.18562 0.36391 0.21526 0.0
H726 H 0.24082 0.41449 0.27535 0.0
H727 H 0.25275 0.45138 0.23649 0.0
C728 C 0.21022 0.34547 0.32265 0.0
C729 C 0.18001 0.34355 0.32707 0.0
C730 C 0.22078 0.3574 0.29634 0.0
C731 C 0.2014 0.36771 0.27377 0.0
C732 C 0.17129 0.36395 0.27747 0.0
C733 C 0.16071 0.35202 0.30383 0.0
C734 C 0.20802 0.40369 0.19734 0.0
C735 C 0.22619 0.42918 0.20332 0.0
C736 C 0.20079 0.38253 0.2199 0.0
C737 C 0.21215 0.38631 0.24848 0.0
C738 C 0.23192 0.4106 0.25362 0.0
C739 C 0.23866 0.43186 0.23137 0.0
H740 H 0.94003 0.92836 0.57853 0.0
H741 H 0.85657 0.9021 0.61243 0.0
H742 H 0.91593 0.94513 0.53212 0.0
H743 H 0.83289 0.91851 0.5666 0.0
H744 H 0.80637 0.90376 0.47454 0.0
H745 H 0.83742 0.89259 0.51707 0.0
H746 H 0.87466 0.98529 0.50891 0.0
H747 H 0.84327 0.99646 0.46528 0.0
C748 C 0.91657 0.92656 0.57623 0.0
C749 C 0.90027 0.91322 0.5989 0.0
C750 C 0.90284 0.93617 0.54972 0.0
C751 C 0.87266 0.93252 0.54558 0.0
C752 C 0.8563 0.9209 0.5689 0.0
C753 C 0.86989 0.91139 0.59514 0.0
C754 C 0.82149 0.92164 0.48145 0.0
C755 C 0.8222 0.9511 0.4669 0.0
C756 C 0.83919 0.91528 0.50591 0.0
C757 C 0.8579 0.93835 0.51675 0.0
C758 C 0.86027 0.96716 0.50106 0.0
C759 C 0.84244 0.97352 0.47616 0.0
H760 H 0.33586 0.59489 0.66653 0.0
H761 H 0.27501 0.54718 0.72154 0.0
H762 H 0.34811 0.63023 0.70731 0.0
H763 H 0.28651 0.58246 0.7617 0.0
H764 H 0.3491 0.60852 0.83548 0.0
H765 H 0.33122 0.58252 0.7917 0.0
H766 H 0.33203 0.67171 0.74417 0.0
H767 H 0.35067 0.6978 0.78814 0.0
C768 C 0.32432 0.59283 0.68693 0.0
C769 C 0.30468 0.56829 0.69109 0.0
C770 C 0.3314 0.61288 0.71032 0.0
C771 C 0.31881 0.60857 0.73799 0.0
C772 C 0.29719 0.58585 0.74098 0.0
C773 C 0.29037 0.56586 0.71789 0.0
C774 C 0.3456 0.62263 0.81571 0.0
C775 C 0.35131 0.65524 0.81538 0.0
C776 C 0.33503 0.6078 0.79064 0.0
C777 C 0.32989 0.62512 0.76446 0.0
C778 C 0.33576 0.65773 0.76396 0.0
C779 C 0.34619 0.67268 0.78922 0.0
H780 H 0.67018 0.12737 0.09708 0.0
H781 H 0.60207 0.05872 0.09231 0.0
H782 H 0.68893 0.10885 0.05077 0.0
H783 H 0.61998 0.04127 0.04482 0.0
H784 H 0.68291 0.9952 0.97609 0.0
H785 H 0.65921 0.01269 0.02113 0.0
H786 H 0.67904 0.11003 1.00024 0.0
H787 H 0.70338 0.09247 0.95621 0.0
C788 C 0.6591 0.10832 0.08618 0.0
C789 C 0.6346 0.09455 0.09876 0.0
C790 C 0.66964 0.09796 0.05921 0.0
C791 C 0.65591 0.07364 0.04367 0.0
C792 C 0.6313 0.05988 0.05613 0.0
C793 C 0.62078 0.07021 0.08327 0.0
C794 C 0.68179 0.02036 0.98098 0.0
C795 C 0.69535 0.04236 0.96269 0.0
C796 C 0.66818 0.03045 1.00683 0.0
C797 C 0.66764 0.06281 1.01482 0.0
C798 C 0.67975 0.08484 0.99548 0.0
C799 C 0.69354 0.07477 0.96997 0.0
H800 H 0.72966 0.13885 0.68517 0.0
H801 H 0.64467 0.15681 0.72216 0.0
H802 H 0.74638 0.11352 0.73087 0.0
H803 H 0.66139 0.13121 0.76794 0.0
H804 H 0.7048 0.09241 0.85301 0.0
H805 H 0.6947 0.13004 0.81205 0.0
H806 H 0.73489 0.06306 0.75268 0.0
H807 H 0.74478 0.0263 0.79297 0.0
C808 C 0.71454 0.1375 0.70309 0.0
C809 C 0.68566 0.14945 0.69974 0.0
C810 C 0.72416 0.12305 0.72937 0.0
C811 C 0.70516 0.11995 0.75307 0.0
C812 C 0.67672 0.13341 0.7503 0.0
C813 C 0.6671 0.14801 0.72397 0.0
C814 C 0.71198 0.08627 0.83126 0.0
C815 C 0.72543 0.05643 0.8261 0.0
C816 C 0.706 0.10761 0.80778 0.0
C817 C 0.71392 0.09959 0.77896 0.0
C818 C 0.72876 0.07036 0.77446 0.0
C819 C 0.73429 0.04912 0.79761 0.0
H820 H 0.20648 0.40507 0.06501 0.0
H821 H 0.16979 0.50109 0.06574 0.0
H822 H 0.18092 0.39525 0.01935 0.0
H823 H 0.14371 0.49077 0.01951 0.0
H824 H 0.08203 0.43502 0.95074 0.0
H825 H 0.10392 0.4522 0.99706 0.0
H826 H 0.18864 0.41908 0.96812 0.0
H827 H 0.16715 0.40263 0.92184 0.0
C828 C 0.19273 0.42408 0.05564 0.0
C829 C 0.19054 0.45407 0.06896 0.0
C830 C 0.17818 0.41841 0.02932 0.0
C831 C 0.16083 0.44243 0.01562 0.0
C832 C 0.15712 0.4719 0.0296 0.0
C833 C 0.17199 0.47775 0.05604 0.0
C834 C 0.10543 0.4321 0.954 0.0
C835 C 0.12278 0.41695 0.93275 0.0
C836 C 0.1179 0.44187 0.98054 0.0
C837 C 0.14785 0.43645 0.98631 0.0
C838 C 0.16537 0.42296 0.96445 0.0
C839 C 0.15303 0.41345 0.93798 0.0
H840 H 0.86034 0.93758 0.33732 0.0
H841 H 0.7729 0.90383 0.3244 0.0
H842 H 0.87593 0.9102 0.29346 0.0
H843 H 0.78871 0.8764 0.28002 0.0
H844 H 0.83939 0.81294 0.212 0.0
H845 H 0.82269 0.83334 0.25913 0.0
H846 H 0.86384 0.92234 0.24135 0.0
H847 H 0.88002 0.9024 0.19444 0.0
C848 C 0.84447 0.92401 0.32531 0.0
C849 C 0.81524 0.92333 0.33413 0.0
C850 C 0.85342 0.90842 0.30008 0.0
C851 C 0.8334 0.89174 0.28298 0.0
C852 C 0.8046 0.88916 0.29277 0.0
C853 C 0.79557 0.90485 0.31817 0.0
C854 C 0.84461 0.83696 0.21807 0.0
C855 C 0.86137 0.8559 0.19958 0.0
C856 C 0.8351 0.84857 0.24506 0.0
C857 C 0.84235 0.87923 0.2541 0.0
C858 C 0.85853 0.89831 0.23532 0.0
C859 C 0.86785 0.88684 0.20842 0.0
H860 H 0.36954 0.49701 0.55922 0.0
H861 H 0.31871 0.58442 0.54544 0.0
H862 H 0.39648 0.508 0.51421 0.0
H863 H 0.34508 0.59481 0.50111 0.0
H864 H 0.36857 0.5843 0.40676 0.0
H865 H 0.34608 0.56643 0.45167 0.0
H866 H 0.43121 0.55231 0.49229 0.0
H867 H 0.45398 0.57101 0.44734 0.0
C868 C 0.36425 0.51858 0.54685 0.0
C869 C 0.34176 0.53966 0.55595 0.0
C870 C 0.37966 0.52483 0.52113 0.0
C871 C 0.3725 0.552 0.50393 0.0
C872 C 0.3507 0.57338 0.51357 0.0
C873 C 0.33567 0.56741 0.5392 0.0
C874 C 0.38261 0.57737 0.42517 0.0
C875 C 0.4131 0.57973 0.42353 0.0
C876 C 0.36969 0.56699 0.45088 0.0
C877 C 0.38688 0.5584 0.47561 0.0
C878 C 0.41744 0.55873 0.47353 0.0
C879 C 0.43045 0.5694 0.44775 0.0
H880 H 0.21791 0.25093 0.41217 0.0
H881 H 0.23436 0.1698 0.46955 0.0
H882 H 0.263 0.2372 0.38583 0.0
H883 H 0.27875 0.15667 0.44372 0.0
H884 H 0.37268 0.16425 0.41736 0.0
H885 H 0.3274 0.18284 0.43952 0.0
H886 H 0.28617 0.19118 0.35418 0.0
H887 H 0.33145 0.17165 0.33176 0.0
C888 C 0.23088 0.23014 0.41905 0.0
C889 C 0.22239 0.21163 0.44314 0.0
C890 C 0.25669 0.22229 0.40397 0.0
C891 C 0.27469 0.1961 0.41298 0.0
C892 C 0.26573 0.17732 0.43653 0.0
C893 C 0.24001 0.18484 0.45126 0.0
C894 C 0.35402 0.16986 0.40318 0.0
C895 C 0.35579 0.1658 0.37272 0.0
C896 C 0.32805 0.18069 0.41593 0.0
C897 C 0.30304 0.18813 0.39865 0.0
C898 C 0.30507 0.18575 0.36808 0.0
C899 C 0.3311 0.1746 0.35526 0.0
H900 H 0.06443 0.0941 0.61867 0.0
H901 H 0.14368 0.03687 0.60999 0.0
H902 H 0.0421 0.05014 0.64503 0.0
H903 H 0.12155 0.99336 0.63611 0.0
H904 H 0.09182 0.94794 0.72059 0.0
H905 H 0.10884 0.98901 0.68835 0.0
H906 H 0.02584 0.99191 0.64213 0.0
H907 H 1.00829 0.95029 0.67503 0.0
C908 C 0.07689 0.07202 0.62199 0.0
C909 C 0.10603 0.06917 0.61283 0.0
C910 C 0.06409 0.04686 0.63699 0.0
C911 C 0.08025 0.01851 0.64301 0.0
C912 C 0.10876 0.01516 0.63235 0.0
C913 C 0.12148 0.04014 0.61748 0.0
C914 C 0.077 0.95711 0.7036 0.0
C915 C 0.04861 0.94565 0.70044 0.0
C916 C 0.08693 0.9806 0.68494 0.0
C917 C 0.06881 0.99348 0.6625 0.0
C918 C 0.04026 0.98239 0.65928 0.0
C919 C 0.0303 0.95849 0.678 0.0
H920 H 0.17044 0.83523 0.9224 0.0
H921 H 0.21208 0.81252 0.84077 0.0
H922 H 0.21392 0.81674 0.94912 0.0
H923 H 0.25542 0.79229 0.86777 0.0
H924 H 0.33948 0.79787 0.92782 0.0
H925 H 0.29631 0.81007 0.89674 0.0
H926 H 0.24131 0.77078 0.96312 0.0
H927 H 0.28404 0.76002 0.99424 0.0
C928 C 0.18883 0.82608 0.9101 0.0
C929 C 0.1877 0.82562 0.87936 0.0
C930 C 0.21376 0.815 0.9255 0.0
C931 C 0.23832 0.80279 0.9107 0.0
C932 C 0.23707 0.80176 0.87993 0.0
C933 C 0.21204 0.81299 0.86445 0.0
C934 C 0.31813 0.79159 0.93548 0.0
C935 C 0.31499 0.77854 0.96361 0.0
C936 C 0.29338 0.79845 0.91768 0.0
C937 C 0.26513 0.79206 0.92763 0.0
C938 C 0.2625 0.77702 0.95503 0.0
C939 C 0.28705 0.7706 0.97284 0.0
H940 H 0.456 0.04544 0.21779 0.0
H941 H 0.54665 0.02089 0.20194 0.0
H942 H 0.44107 1.00178 0.18708 0.0
H943 H 0.53142 0.97658 0.1711 0.0
H944 H 0.48365 0.87879 0.15146 0.0
H945 H 0.50366 0.92331 0.17887 0.0
H946 H 0.44398 0.98839 0.13288 0.0
H947 H 0.42401 0.94418 0.10568 0.0
C948 C 0.4728 0.0307 0.20778 0.0
C949 C 0.50256 0.03666 0.21238 0.0
C950 C 0.46418 1.00577 0.19001 0.0
C951 C 0.48506 0.98587 0.1766 0.0
C952 C 0.51488 0.99154 0.18127 0.0
C953 C 0.52356 0.01694 0.19879 0.0
C954 C 0.47501 0.90267 0.1471 0.0
C955 C 0.45223 0.90798 0.12645 0.0
C956 C 0.4866 0.92812 0.1626 0.0
C957 C 0.47528 0.95926 0.15807 0.0
C958 C 0.45301 0.96461 0.13694 0.0
C959 C 0.44172 0.93931 0.12122 0.0
H960 H 0.84975 0.37726 0.61689 0.0
H961 H 0.84369 0.31911 0.69491 0.0
H962 H 0.80286 0.35869 0.59977 0.0
H963 H 0.7966 0.29993 0.67722 0.0
H964 H 0.72897 0.25248 0.60913 0.0
H965 H 0.77426 0.26791 0.6341 0.0
H966 H 0.75146 0.36683 0.61715 0.0
H967 H 0.70682 0.35166 0.59235 0.0
C968 C 0.83833 0.36067 0.63052 0.0
C969 C 0.85033 0.35012 0.65751 0.0
C970 C 0.81147 0.34995 0.62065 0.0
C971 C 0.79587 0.32824 0.63739 0.0
C972 C 0.80818 0.31669 0.6639 0.0
C973 C 0.83514 0.32763 0.67395 0.0
C974 C 0.73337 0.27751 0.61142 0.0
C975 C 0.71462 0.30084 0.59836 0.0
C976 C 0.75927 0.28632 0.62564 0.0
C977 C 0.76665 0.31853 0.62692 0.0
C978 C 0.7467 0.34179 0.61584 0.0
C979 C 0.72106 0.33307 0.60173 0.0
H980 H 1.00224 0.48965 0.79579 0.0
H981 H 0.97613 0.409 0.84708 0.0
H982 H 0.98976 0.5251 0.83553 0.0
H983 H 0.96365 0.44483 0.88758 0.0
H984 H 0.90254 0.52652 0.92561 0.0
H985 H 0.92454 0.48546 0.89498 0.0
H986 H 1.00067 0.54236 0.8847 0.0
H987 H 0.97819 0.58399 0.9145 0.0
C988 C 0.99425 0.47944 0.81588 0.0
C989 C 0.98982 0.44662 0.81823 0.0
C990 C 0.98731 0.49979 0.83882 0.0
C991 C 0.97556 0.48792 0.86479 0.0
C992 C 0.97238 0.45477 0.86774 0.0
C993 C 0.97966 0.43423 0.84469 0.0
C994 C 0.92403 0.53025 0.9169 0.0
C995 C 0.93835 0.55887 0.9221 0.0
C996 C 0.93684 0.50645 0.89967 0.0
C997 C 0.9643 0.51065 0.88714 0.0
C998 C 0.97932 0.53851 0.89368 0.0
C999 C 0.96652 0.56231 0.91097 0.0
H1000 H 0.81391 0.75697 0.1092 0.0
H1001 H 0.82486 0.65906 0.08262 0.0
H1002 H 0.76997 0.74325 0.1359 0.0
H1003 H 0.78121 0.64554 0.10897 0.0
H1004 H 0.71314 0.62479 0.17596 0.0
H1005 H 0.76047 0.64119 0.1583 0.0
H1006 H 0.71978 0.72663 0.12109 0.0
H1007 H 0.6725 0.71051 0.13923 0.0
C1008 C 0.80725 0.73248 0.10943 0.0
C1009 C 0.82284 0.70915 0.09367 0.0
C1010 C 0.78197 0.72468 0.12452 0.0
C1011 C 0.77203 0.69332 0.12449 0.0
C1012 C 0.78837 0.66984 0.10972 0.0
C1013 C 0.81334 0.67767 0.09443 0.0
C1014 C 0.71436 0.64734 0.16445 0.0
C1015 C 0.689 0.66624 0.15884 0.0
C1016 C 0.74145 0.65662 0.15415 0.0
C1017 C 0.74389 0.68515 0.13817 0.0
C1018 C 0.71871 0.70464 0.13351 0.0
C1019 C 0.69157 0.69523 0.14362 0.0
H1020 H 0.56064 0.42961 0.4101 0.0
H1021 H 0.63321 0.48973 0.42903 0.0
H1022 H 0.53884 0.47121 0.37837 0.0
H1023 H 0.61189 0.53086 0.39656 0.0
H1024 H 0.56059 0.60624 0.34313 0.0
H1025 H 0.57129 0.57023 0.38508 0.0
H1026 H 0.55374 0.48953 0.3304 0.0
H1027 H 0.54322 0.52502 0.28927 0.0
C1028 C 0.57173 0.45186 0.40788 0.0
C1029 C 0.59893 0.45607 0.42176 0.0
C1030 C 0.55933 0.47566 0.38953 0.0
C1031 C 0.57376 0.50429 0.38465 0.0
C1032 C 0.60008 0.50924 0.39991 0.0
C1033 C 0.61252 0.48542 0.4182 0.0
C1034 C 0.55855 0.58083 0.34044 0.0
C1035 C 0.55144 0.56835 0.31294 0.0
C1036 C 0.56479 0.56022 0.36431 0.0
C1037 C 0.56347 0.52693 0.36109 0.0
C1038 C 0.55468 0.51492 0.33389 0.0
C1039 C 0.54889 0.53532 0.31017 0.0
H1040 H 0.34581 0.28213 0.20675 0.0
H1041 H 0.41291 0.30641 0.14577 0.0
H1042 H 0.3758 0.23623 0.22376 0.0
H1043 H 0.44236 0.26039 0.1623 0.0
H1044 H 0.47364 0.15848 0.1738 0.0
H1045 H 0.4394 0.20149 0.15904 0.0
H1046 H 0.42375 0.22268 0.24982 0.0
H1047 H 0.45818 0.17957 0.2646 0.0
C1048 C 0.36704 0.27794 0.19718 0.0
C1049 C 0.37677 0.29789 0.17465 0.0
C1050 C 0.38414 0.25153 0.20684 0.0
C1051 C 0.41122 0.24437 0.19403 0.0
C1052 C 0.42126 0.26478 0.1721 0.0
C1053 C 0.40435 0.29122 0.16264 0.0
C1054 C 0.46254 0.17197 0.19061 0.0
C1055 C 0.46872 0.1658 0.22035 0.0
C1056 C 0.4431 0.19677 0.18217 0.0
C1057 C 0.42924 0.21584 0.20326 0.0
C1058 C 0.43406 0.20842 0.23305 0.0
C1059 C 0.45372 0.1837 0.24151 0.0
H1060 H 0.92118 0.31679 0.75401 0.0
H1061 H 0.98129 0.2859 0.82324 0.0
H1062 H 0.88999 0.27192 0.76563 0.0
H1063 H 0.95053 0.24194 0.83457 0.0
H1064 H 0.90811 0.14855 0.83123 0.0
H1065 H 0.93622 0.1917 0.81124 0.0
H1066 H 0.85861 0.2526 0.80806 0.0
H1067 H 0.83034 0.20932 0.82831 0.0
C1068 C 0.92775 0.30057 0.77161 0.0
C1069 C 0.95379 0.30505 0.78763 0.0
C1070 C 0.90989 0.27495 0.77829 0.0
C1071 C 0.91801 0.25316 0.80079 0.0
C1072 C 0.94391 0.25788 0.81675 0.0
C1073 C 0.96147 0.28339 0.81033 0.0
C1074 C 0.89695 0.17105 0.82612 0.0
C1075 C 0.86707 0.1756 0.83185 0.0
C1076 C 0.91305 0.19577 0.81461 0.0
C1077 C 0.89972 0.22572 0.80849 0.0
C1078 C 0.86947 0.22977 0.81245 0.0
C1079 C 0.8533 0.20495 0.82405 0.0
H1080 H 0.09732 0.59676 0.0573 0.0
H1081 H 0.06465 0.59694 0.14537 0.0
H1082 H 0.05071 0.61946 0.0393 0.0
H1083 H 0.0181 0.61995 0.12743 0.0
H1084 H 0.93199 0.65417 0.08651 0.0
H1085 H 0.97279 0.61616 0.09756 0.0
H1086 H 0.0292 0.67198 0.04385 0.0
H1087 H 0.9889 0.70916 0.03301 0.0
C1088 C 0.08014 0.60151 0.07282 0.0
C1089 C 0.08492 0.59547 0.10285 0.0
C1090 C 0.05336 0.61443 0.06249 0.0
C1091 C 0.03067 0.62187 0.08193 0.0
C1092 C 0.0349 0.61422 0.11176 0.0
C1093 C 0.06169 0.60114 0.12209 0.0
C1094 C 0.95293 0.65753 0.07643 0.0
C1095 C 0.95744 0.68453 0.059 0.0
C1096 C 0.97636 0.63605 0.08298 0.0
C1097 C 1.00441 0.6411 0.07177 0.0
C1098 C 1.008 0.667 0.05266 0.0
C1099 C 0.98488 0.68846 0.04652 0.0
H1100 H 0.60646 0.86216 0.3506 0.0
H1101 H 0.68392 0.8326 0.30402 0.0
H1102 H 0.58112 0.8169 0.33152 0.0
H1103 H 0.65898 0.78585 0.2865 0.0
H1104 H 0.59529 0.71605 0.24248 0.0
H1105 H 0.62107 0.76425 0.25578 0.0
H1106 H 0.58224 0.76172 0.34129 0.0
H1107 H 0.55616 0.71477 0.32784 0.0
C1108 C 0.61809 0.84628 0.33602 0.0
C1109 C 0.64744 0.85119 0.32912 0.0
C1110 C 0.60363 0.81985 0.32544 0.0
C1111 C 0.61813 0.7972 0.30792 0.0
C1112 C 0.64708 0.80271 0.29993 0.0
C1113 C 0.66152 0.8294 0.31033 0.0
C1114 C 0.59241 0.72582 0.26412 0.0
C1115 C 0.57338 0.71171 0.28394 0.0
C1116 C 0.6072 0.75342 0.27179 0.0
C1117 C 0.60337 0.76734 0.29947 0.0
C1118 C 0.58509 0.75242 0.31947 0.0
C1119 C 0.57025 0.7252 0.31179 0.0
H1120 H 0.55907 0.30627 0.51951 0.0
H1121 H 0.60042 0.34345 0.59675 0.0
H1122 H 0.51666 0.34154 0.52663 0.0
H1123 H 0.55719 0.37759 0.60524 0.0
H1124 H 0.47563 0.44074 0.6113 0.0
H1125 H 0.52242 0.41947 0.59369 0.0
H1126 H 0.47882 0.33726 0.56019 0.0
H1127 H 0.43245 0.35891 0.57696 0.0
C1128 C 0.55923 0.32268 0.53766 0.0
C1129 C 0.58275 0.32233 0.55762 0.0
C1130 C 0.53483 0.34257 0.54201 0.0
C1131 C 0.53305 0.36174 0.56702 0.0
C1132 C 0.55776 0.36323 0.58571 0.0
C1133 C 0.58256 0.34375 0.58091 0.0
C1134 C 0.47618 0.41825 0.59992 0.0
C1135 C 0.45041 0.40149 0.59544 0.0
C1136 C 0.50295 0.40605 0.58987 0.0
C1137 C 0.5045 0.37671 0.57534 0.0
C1138 C 0.47852 0.36032 0.57054 0.0
C1139 C 0.45184 0.37263 0.5803 0.0
H1140 H 0.12184 0.66544 0.66087 0.0
H1141 H 0.20025 0.71298 0.68681 0.0
H1142 H 0.09236 0.70607 0.68493 0.0
H1143 H 0.17047 0.7537 0.71175 0.0
H1144 H 0.09719 0.83811 0.71521 0.0
H1145 H 0.13375 0.79828 0.69886 0.0
H1146 H 0.082 0.72345 0.73452 0.0
H1147 H 0.04558 0.7628 0.74992 0.0
C1148 C 0.13279 0.68458 0.67182 0.0
C1149 C 0.16336 0.68604 0.67184 0.0
C1150 C 0.11591 0.70773 0.68591 0.0
C1151 C 0.12908 0.73302 0.70048 0.0
C1152 C 0.15971 0.73454 0.70066 0.0
C1153 C 0.17672 0.71112 0.68662 0.0
C1154 C 0.09413 0.81318 0.72004 0.0
C1155 C 0.06842 0.80336 0.73328 0.0
C1156 C 0.11499 0.7904 0.71074 0.0
C1157 C 0.11037 0.75767 0.71478 0.0
C1158 C 0.08581 0.74838 0.73034 0.0
C1159 C 0.06503 0.77092 0.73929 0.0
H1160 H 0.45919 0.84675 1.01132 0.0
H1161 H 0.45807 0.80462 0.9255 0.0
H1162 H 0.50193 0.87709 0.9978 0.0
H1163 H 0.50048 0.83454 0.91218 0.0
H1164 H 0.56487 0.90833 0.88786 0.0
H1165 H 0.51779 0.88835 0.90259 0.0
H1166 H 0.55432 0.86305 0.98762 0.0
H1167 H 0.6013 0.88367 0.9731 0.0
C1168 C 0.46772 0.84436 0.98946 0.0
C1169 C 0.45529 0.82316 0.96954 0.0
C1170 C 0.49233 0.86153 0.9818 0.0
C1171 C 0.50469 0.85817 0.95392 0.0
C1172 C 0.4914 0.83799 0.9337 0.0
C1173 C 0.46714 0.82064 0.94143 0.0
C1174 C 0.56274 0.89905 0.90988 0.0
C1175 C 0.58695 0.89742 0.92922 0.0
C1176 C 0.5358 0.88736 0.91825 0.0
C1177 C 0.53231 0.87393 0.94624 0.0
C1178 C 0.55618 0.87345 0.96599 0.0
C1179 C 0.5832 0.88493 0.95754 0.0
H1180 H 0.99207 0.0888 0.39604 0.0
H1181 H 0.95368 0.09748 0.48139 0.0
H1182 H 0.03479 0.11672 0.41342 0.0
H1183 H 0.99688 0.1244 0.49904 0.0
H1184 H 0.05218 0.21533 0.4998 0.0
H1185 H 0.01492 0.17692 0.48989 0.0
H1186 H 0.07849 0.11693 0.44615 0.0
H1187 H 0.11619 0.15612 0.45622 0.0
C1188 C 0.9928 0.09645 0.41859 0.0
C1189 C 0.9691 0.09129 0.43715 0.0
C1190 C 0.01757 0.11204 0.42869 0.0
C1191 C 0.01932 0.12298 0.45762 0.0
C1192 C 0.99617 0.11662 0.47653 0.0
C1193 C 0.97143 0.10096 0.46645 0.0
C1194 C 0.05839 0.19362 0.48859 0.0
C1195 C 0.08701 0.18877 0.47863 0.0
C1196 C 0.03702 0.17144 0.48303 0.0
C1197 C 0.04355 0.14382 0.46705 0.0
C1198 C 0.07265 0.13813 0.45828 0.0
C1199 C 0.09431 0.16034 0.46425 0.0
loop_
_geom_bond_atom_site_label_1
_geom_bond_atom_site_label_2
_geom_bond_distance
_geom_bond_site_symmetry_2
_ccdc_geom_bond_type
Ho0 C3 2.811 . S
Ho0 O20 2.322 . S
Ho0 O22 2.378 . S
Ho0 O23 2.524 . S
Ho0 O24 2.381 . S
Ho0 O25 2.669 . S
Ho0 O27 2.346 . S
Ho0 O31 2.305 . S
Ho1 C12 2.811 . S
Ho1 O21 2.346 . S
Ho1 O25 2.305 . S
Ho1 O26 2.322 . S
Ho1 O28 2.378 . S
Ho1 O29 2.524 . S
Ho1 O30 2.381 . S
Ho1 O31 2.669 . S
C2 O20 1.259 . S
C2 O21 1.268 . S
C3 Ho0 2.811 . S
C3 C4 1.488 . S
C3 O22 1.215 . S
C3 O23 1.289 . S
C4 C3 1.488 . S
C4 C5 1.348 . S
C4 C9 1.413 . S
C5 C4 1.348 . S
C5 C6 1.442 . S
C5 H32 0.930 . S
C6 C5 1.442 . S
C6 C7 1.381 . S
C6 H33 0.931 . S
C7 C6 1.381 . S
C7 C8 1.321 . S
C8 C7 1.321 . S
C8 C9 1.403 . S
C8 H34 0.934 . S
C9 C4 1.413 . S
C9 C8 1.403 . S
C9 H35 0.930 . S
C10 O24 1.275 . S
C10 O25 1.256 . S
C11 O26 1.259 . S
C11 O27 1.268 . S
C12 Ho1 2.811 . S
C12 C13 1.488 . S
C12 O28 1.215 . S
C12 O29 1.289 . S
C13 C12 1.488 . S
C13 C14 1.348 . S
C13 C18 1.413 . S
C14 C13 1.348 . S
C14 C15 1.442 . S
C14 H36 0.930 . S
C15 C14 1.442 . S
C15 C16 1.381 . S
C15 H37 0.931 . S
C16 C15 1.381 . S
C16 C17 1.321 . S
C17 C16 1.321 . S
C17 C18 1.403 . S
C17 H38 0.934 . S
C18 C13 1.413 . S
C18 C17 1.403 . S
C18 H39 0.930 . S
C19 O30 1.275 . S
C19 O31 1.256 . S
O20 Ho0 2.322 . S
O20 C2 1.259 . S
O21 Ho1 2.346 . S
O21 C2 1.268 . S
O22 Ho0 2.378 . S
O22 C3 1.215 . S
O23 Ho0 2.524 . S
O23 C3 1.289 . S
O24 Ho0 2.381 . S
O24 C10 1.275 . S
O25 Ho0 2.669 . S
O25 Ho1 2.305 . S
O25 C10 1.256 . S
O26 Ho1 2.322 . S
O26 C11 1.259 . S
O27 Ho0 2.346 . S
O27 C11 1.268 . S
O28 Ho1 2.378 . S
O28 C12 1.215 . S
O29 Ho1 2.524 . S
O29 C12 1.289 . S
O30 Ho1 2.381 . S
O30 C19 1.275 . S
O31 Ho0 2.305 . S
O31 Ho1 2.669 . S
O31 C19 1.256 . S
H32 C5 0.930 . S
H33 C6 0.931 . S
H34 C8 0.934 . S
H35 C9 0.930 . S
H36 C14 0.930 . S
H37 C15 0.931 . S
H38 C17 0.934 . S
H39 C18 0.930 . S
Ho40 C43 2.811 . S
Ho40 O60 2.322 1_655 S
Ho40 O62 2.378 . S
Ho40 O63 2.524 . S
Ho40 O64 2.381 1_655 S
Ho40 O65 2.669 1_655 S
Ho40 O67 2.346 . S
Ho40 O71 2.305 . S
Ho41 C52 2.811 . S
Ho41 O61 2.346 . S
Ho41 O65 2.305 . S
Ho41 O66 2.322 . S
Ho41 O68 2.378 . S
Ho41 O69 2.524 . S
Ho41 O70 2.381 . S
Ho41 O71 2.669 1_455 S
C42 O60 1.259 . S
C42 O61 1.268 . S
C43 Ho40 2.811 . S
C43 C44 1.488 . S
C43 O62 1.215 . S
C43 O63 1.289 . S
C44 C43 1.488 . S
C44 C45 1.348 . S
C44 C49 1.413 . S
C45 C44 1.348 . S
C45 C46 1.442 . S
C45 H72 0.930 . S
C46 C45 1.442 . S
C46 C47 1.381 . S
C46 H73 0.931 . S
C47 C46 1.381 . S
C47 C48 1.321 . S
C48 C47 1.321 . S
C48 C49 1.403 . S
C48 H74 0.934 . S
C49 C44 1.413 . S
C49 C48 1.403 . S
C49 H75 0.930 . S
C50 O64 1.275 . S
C50 O65 1.256 . S
C51 O66 1.259 1_655 S
C51 O67 1.268 . S
C52 Ho41 2.811 . S
C52 C53 1.488 . S
C52 O68 1.215 . S
C52 O69 1.289 . S
C53 C52 1.488 . S
C53 C54 1.348 . S
C53 C58 1.413 . S
C54 C53 1.348 . S
C54 C55 1.442 . S
C54 H76 0.930 . S
C55 C54 1.442 . S
C55 C56 1.381 . S
C55 H77 0.931 . S
C56 C55 1.381 . S
C56 C57 1.321 . S
C57 C56 1.321 . S
C57 C58 1.403 . S
C57 H78 0.934 . S
C58 C53 1.413 . S
C58 C57 1.403 . S
C58 H79 0.930 . S
C59 O70 1.275 1_655 S
C59 O71 1.256 . S
O60 Ho40 2.322 1_455 S
O60 C42 1.259 . S
O61 Ho41 2.346 . S
O61 C42 1.268 . S
O62 Ho40 2.378 . S
O62 C43 1.215 . S
O63 Ho40 2.524 . S
O63 C43 1.289 . S
O64 Ho40 2.381 1_455 S
O64 C50 1.275 . S
O65 Ho40 2.669 1_455 S
O65 Ho41 2.305 . S
O65 C50 1.256 . S
O66 Ho41 2.322 . S
O66 C51 1.259 1_455 S
O67 Ho40 2.346 . S
O67 C51 1.268 . S
O68 Ho41 2.378 . S
O68 C52 1.215 . S
O69 Ho41 2.524 . S
O69 C52 1.289 . S
O70 Ho41 2.381 . S
O70 C59 1.275 1_455 S
O71 Ho40 2.305 . S
O71 Ho41 2.669 1_655 S
O71 C59 1.256 . S
H72 C45 0.930 . S
H73 C46 0.931 . S
H74 C48 0.934 . S
H75 C49 0.930 . S
H76 C54 0.930 . S
H77 C55 0.931 . S
H78 C57 0.934 . S
H79 C58 0.930 . S
Ho80 C83 2.811 . S
Ho80 O100 2.322 1_554 S
Ho80 O102 2.378 . S
Ho80 O103 2.524 . S
Ho80 O104 2.381 1_554 S
Ho80 O105 2.669 1_554 S
Ho80 O107 2.346 . S
Ho80 O111 2.305 . S
Ho81 C92 2.811 . S
Ho81 O101 2.346 . S
Ho81 O105 2.305 . S
Ho81 O106 2.322 . S
Ho81 O108 2.378 . S
Ho81 O109 2.524 . S
Ho81 O110 2.381 . S
Ho81 O111 2.669 1_556 S
C82 O100 1.259 . S
C82 O101 1.268 . S
C83 Ho80 2.811 . S
C83 C84 1.488 . S
C83 O102 1.215 . S
C83 O103 1.289 . S
C84 C83 1.488 . S
C84 C85 1.348 . S
C84 C89 1.413 . S
C85 C84 1.348 . S
C85 C86 1.442 . S
C85 H112 0.930 . S
C86 C85 1.442 . S
C86 C87 1.381 . S
C86 H113 0.931 . S
C87 C86 1.381 . S
C87 C88 1.321 . S
C88 C87 1.321 . S
C88 C89 1.403 . S
C88 H114 0.934 . S
C89 C84 1.413 . S
C89 C88 1.403 . S
C89 H115 0.930 . S
C90 O104 1.275 . S
C90 O105 1.256 . S
C91 O106 1.259 1_554 S
C91 O107 1.268 . S
C92 Ho81 2.811 . S
C92 C93 1.488 . S
C92 O108 1.215 . S
C92 O109 1.289 . S
C93 C92 1.488 . S
C93 C94 1.348 . S
C93 C98 1.413 . S
C94 C93 1.348 . S
C94 C95 1.442 . S
C94 H116 0.930 . S
C95 C94 1.442 . S
C95 C96 1.381 . S
C95 H117 0.931 . S
C96 C95 1.381 . S
C96 C97 1.321 . S
C97 C96 1.321 . S
C97 C98 1.403 . S
C97 H118 0.934 . S
C98 C93 1.413 . S
C98 C97 1.403 . S
C98 H119 0.930 . S
C99 O110 1.275 1_554 S
C99 O111 1.256 . S
O100 Ho80 2.322 1_556 S
O100 C82 1.259 . S
O101 Ho81 2.346 . S
O101 C82 1.268 . S
O102 Ho80 2.378 . S
O102 C83 1.215 . S
O103 Ho80 2.524 . S
O103 C83 1.289 . S
O104 Ho80 2.381 1_556 S
O104 C90 1.275 . S
O105 Ho80 2.669 1_556 S
O105 Ho81 2.305 . S
O105 C90 1.256 . S
O106 Ho81 2.322 . S
O106 C91 1.259 1_556 S
O107 Ho80 2.346 . S
O107 C91 1.268 . S
O108 Ho81 2.378 . S
O108 C92 1.215 . S
O109 Ho81 2.524 . S
O109 C92 1.289 . S
O110 Ho81 2.381 . S
O110 C99 1.275 1_556 S
O111 Ho80 2.305 . S
O111 Ho81 2.669 1_554 S
O111 C99 1.256 . S
H112 C85 0.930 . S
H113 C86 0.931 . S
H114 C88 0.934 . S
H115 C89 0.930 . S
H116 C94 0.930 . S
H117 C95 0.931 . S
H118 C97 0.934 . S
H119 C98 0.930 . S
Ho120 C123 2.811 . S
Ho120 O140 2.322 . S
Ho120 O142 2.378 . S
Ho120 O143 2.524 . S
Ho120 O144 2.381 . S
Ho120 O145 2.669 . S
Ho120 O147 2.346 . S
Ho120 O151 2.305 . S
Ho121 C132 2.811 . S
Ho121 O141 2.346 . S
Ho121 O145 2.305 . S
Ho121 O146 2.322 . S
Ho121 O148 2.378 . S
Ho121 O149 2.524 . S
Ho121 O150 2.381 . S
Ho121 O151 2.669 . S
C122 O140 1.259 . S
C122 O141 1.268 . S
C123 Ho120 2.811 . S
C123 C124 1.488 . S
C123 O142 1.215 . S
C123 O143 1.289 . S
C124 C123 1.488 . S
C124 C125 1.348 . S
C124 C129 1.413 . S
C125 C124 1.348 . S
C125 C126 1.442 . S
C125 H152 0.930 . S
C126 C125 1.442 . S
C126 C127 1.381 . S
C126 H153 0.931 . S
C127 C126 1.381 . S
C127 C128 1.321 . S
C128 C127 1.321 . S
C128 C129 1.403 . S
C128 H154 0.934 . S
C129 C124 1.413 . S
C129 C128 1.403 . S
C129 H155 0.930 . S
C130 O144 1.275 . S
C130 O145 1.256 . S
C131 O146 1.259 . S
C131 O147 1.268 . S
C132 Ho121 2.811 . S
C132 C133 1.488 . S
C132 O148 1.215 . S
C132 O149 1.289 . S
C133 C132 1.488 . S
C133 C134 1.348 . S
C133 C138 1.413 . S
C134 C133 1.348 . S
C134 C135 1.442 . S
C134 H156 0.930 . S
C135 C134 1.442 . S
C135 C136 1.381 . S
C135 H157 0.931 . S
C136 C135 1.381 . S
C136 C137 1.321 . S
C137 C136 1.321 . S
C137 C138 1.403 . S
C137 H158 0.934 . S
C138 C133 1.413 . S
C138 C137 1.403 . S
C138 H159 0.930 . S
C139 O150 1.275 . S
C139 O151 1.256 . S
O140 Ho120 2.322 . S
O140 C122 1.259 . S
O141 Ho121 2.346 . S
O141 C122 1.268 . S
O142 Ho120 2.378 . S
O142 C123 1.215 . S
O143 Ho120 2.524 . S
O143 C123 1.289 . S
O144 Ho120 2.381 . S
O144 C130 1.275 . S
O145 Ho120 2.669 . S
O145 Ho121 2.305 . S
O145 C130 1.256 . S
O146 Ho121 2.322 . S
O146 C131 1.259 . S
O147 Ho120 2.346 . S
O147 C131 1.268 . S
O148 Ho121 2.378 . S
O148 C132 1.215 . S
O149 Ho121 2.524 . S
O149 C132 1.289 . S
O150 Ho121 2.381 . S
O150 C139 1.275 . S
O151 Ho120 2.305 . S
O151 Ho121 2.669 . S
O151 C139 1.256 . S
H152 C125 0.930 . S
H153 C126 0.931 . S
H154 C128 0.934 . S
H155 C129 0.930 . S
H156 C134 0.930 . S
H157 C135 0.931 . S
H158 C137 0.934 . S
H159 C138 0.930 . S
Ho160 C163 2.811 . S
Ho160 O180 2.322 . S
Ho160 O182 2.378 . S
Ho160 O183 2.524 . S
Ho160 O184 2.381 . S
Ho160 O185 2.669 . S
Ho160 O187 2.346 . S
Ho160 O191 2.305 . S
Ho161 C172 2.811 . S
Ho161 O181 2.346 . S
Ho161 O185 2.305 . S
Ho161 O186 2.322 . S
Ho161 O188 2.378 . S
Ho161 O189 2.524 . S
Ho161 O190 2.381 . S
Ho161 O191 2.669 . S
C162 O180 1.259 . S
C162 O181 1.268 . S
C163 Ho160 2.811 . S
C163 C164 1.488 . S
C163 O182 1.215 . S
C163 O183 1.289 . S
C164 C163 1.488 . S
C164 C165 1.348 . S
C164 C169 1.413 . S
C165 C164 1.348 . S
C165 C166 1.442 . S
C165 H192 0.930 . S
C166 C165 1.442 . S
C166 C167 1.381 . S
C166 H193 0.931 . S
C167 C166 1.381 . S
C167 C168 1.321 . S
C168 C167 1.321 . S
C168 C169 1.403 . S
C168 H194 0.934 . S
C169 C164 1.413 . S
C169 C168 1.403 . S
C169 H195 0.930 . S
C170 O184 1.275 . S
C170 O185 1.256 . S
C171 O186 1.259 . S
C171 O187 1.268 . S
C172 Ho161 2.811 . S
C172 C173 1.488 . S
C172 O188 1.215 . S
C172 O189 1.289 . S
C173 C172 1.488 . S
C173 C174 1.348 . S
C173 C178 1.413 . S
C174 C173 1.348 . S
C174 C175 1.442 . S
C174 H196 0.930 . S
C175 C174 1.442 . S
C175 C176 1.381 . S
C175 H197 0.931 . S
C176 C175 1.381 . S
C176 C177 1.321 . S
C177 C176 1.321 . S
C177 C178 1.403 . S
C177 H198 0.934 . S
C178 C173 1.413 . S
C178 C177 1.403 . S
C178 H199 0.930 . S
C179 O190 1.275 . S
C179 O191 1.256 . S
O180 Ho160 2.322 . S
O180 C162 1.259 . S
O181 Ho161 2.346 . S
O181 C162 1.268 . S
O182 Ho160 2.378 . S
O182 C163 1.215 . S
O183 Ho160 2.524 . S
O183 C163 1.289 . S
O184 Ho160 2.381 . S
O184 C170 1.275 . S
O185 Ho160 2.669 . S
O185 Ho161 2.305 . S
O185 C170 1.256 . S
O186 Ho161 2.322 . S
O186 C171 1.259 . S
O187 Ho160 2.346 . S
O187 C171 1.268 . S
O188 Ho161 2.378 . S
O188 C172 1.215 . S
O189 Ho161 2.524 . S
O189 C172 1.289 . S
O190 Ho161 2.381 . S
O190 C179 1.275 . S
O191 Ho160 2.305 . S
O191 Ho161 2.669 . S
O191 C179 1.256 . S
H192 C165 0.930 . S
H193 C166 0.931 . S
H194 C168 0.934 . S
H195 C169 0.930 . S
H196 C174 0.930 . S
H197 C175 0.931 . S
H198 C177 0.934 . S
H199 C178 0.930 . S
Ho200 C203 2.811 . S
Ho200 O220 2.322 . S
Ho200 O222 2.378 . S
Ho200 O223 2.524 . S
Ho200 O224 2.381 . S
Ho200 O225 2.669 . S
Ho200 O227 2.346 1_655 S
Ho200 O231 2.305 1_655 S
Ho201 C212 2.811 . S
Ho201 O221 2.346 1_455 S
Ho201 O225 2.305 1_455 S
Ho201 O226 2.322 . S
Ho201 O228 2.378 . S
Ho201 O229 2.524 . S
Ho201 O230 2.381 . S
Ho201 O231 2.669 . S
C202 O220 1.259 . S
C202 O221 1.268 . S
C203 Ho200 2.811 . S
C203 C204 1.488 . S
C203 O222 1.215 . S
C203 O223 1.289 . S
C204 C203 1.488 . S
C204 C205 1.348 . S
C204 C209 1.413 . S
C205 C204 1.348 . S
C205 C206 1.442 . S
C205 H232 0.930 . S
C206 C205 1.442 . S
C206 C207 1.381 . S
C206 H233 0.931 . S
C207 C206 1.381 . S
C207 C208 1.321 . S
C208 C207 1.321 . S
C208 C209 1.403 . S
C208 H234 0.934 . S
C209 C204 1.413 . S
C209 C208 1.403 . S
C209 H235 0.930 . S
C210 O224 1.275 . S
C210 O225 1.256 . S
C211 O226 1.259 . S
C211 O227 1.268 . S
C212 Ho201 2.811 . S
C212 C213 1.488 . S
C212 O228 1.215 . S
C212 O229 1.289 . S
C213 C212 1.488 . S
C213 C214 1.348 . S
C213 C218 1.413 . S
C214 C213 1.348 . S
C214 C215 1.442 . S
C214 H236 0.930 . S
C215 C214 1.442 . S
C215 C216 1.381 . S
C215 H237 0.931 . S
C216 C215 1.381 . S
C216 C217 1.321 . S
C217 C216 1.321 . S
C217 C218 1.403 . S
C217 H238 0.934 . S
C218 C213 1.413 . S
C218 C217 1.403 . S
C218 H239 0.930 . S
C219 O230 1.275 . S
C219 O231 1.256 . S
O220 Ho200 2.322 . S
O220 C202 1.259 . S
O221 Ho201 2.346 1_655 S
O221 C202 1.268 . S
O222 Ho200 2.378 . S
O222 C203 1.215 . S
O223 Ho200 2.524 . S
O223 C203 1.289 . S
O224 Ho200 2.381 . S
O224 C210 1.275 . S
O225 Ho200 2.669 . S
O225 Ho201 2.305 1_655 S
O225 C210 1.256 . S
O226 Ho201 2.322 . S
O226 C211 1.259 . S
O227 Ho200 2.346 1_455 S
O227 C211 1.268 . S
O228 Ho201 2.378 . S
O228 C212 1.215 . S
O229 Ho201 2.524 . S
O229 C212 1.289 . S
O230 Ho201 2.381 . S
O230 C219 1.275 . S
O231 Ho200 2.305 1_455 S
O231 Ho201 2.669 . S
O231 C219 1.256 . S
H232 C205 0.930 . S
H233 C206 0.931 . S
H234 C208 0.934 . S
H235 C209 0.930 . S
H236 C214 0.930 . S
H237 C215 0.931 . S
H238 C217 0.934 . S
H239 C218 0.930 . S
Ho240 C243 2.811 . S
Ho240 O260 2.322 . S
Ho240 O262 2.378 . S
Ho240 O263 2.524 . S
Ho240 O264 2.381 . S
Ho240 O265 2.669 . S
Ho240 O267 2.346 1_554 S
Ho240 O271 2.305 . S
Ho241 C252 2.811 . S
Ho241 O261 2.346 1_556 S
Ho241 O265 2.305 1_556 S
Ho241 O266 2.322 . S
Ho241 O268 2.378 . S
Ho241 O269 2.524 . S
Ho241 O270 2.381 . S
Ho241 O271 2.669 1_556 S
C242 O260 1.259 . S
C242 O261 1.268 . S
C243 Ho240 2.811 . S
C243 C244 1.488 . S
C243 O262 1.215 . S
C243 O263 1.289 . S
C244 C243 1.488 . S
C244 C245 1.348 . S
C244 C249 1.413 . S
C245 C244 1.348 . S
C245 C246 1.442 . S
C245 H272 0.930 . S
C246 C245 1.442 . S
C246 C247 1.381 . S
C246 H273 0.931 . S
C247 C246 1.381 . S
C247 C248 1.321 . S
C248 C247 1.321 . S
C248 C249 1.403 . S
C248 H274 0.934 . S
C249 C244 1.413 . S
C249 C248 1.403 . S
C249 H275 0.930 . S
C250 O264 1.275 . S
C250 O265 1.256 . S
C251 O266 1.259 . S
C251 O267 1.268 . S
C252 Ho241 2.811 . S
C252 C253 1.488 . S
C252 O268 1.215 . S
C252 O269 1.289 . S
C253 C252 1.488 . S
C253 C254 1.348 . S
C253 C258 1.413 . S
C254 C253 1.348 . S
C254 C255 1.442 . S
C254 H276 0.930 . S
C255 C254 1.442 . S
C255 C256 1.381 . S
C255 H277 0.931 . S
C256 C255 1.381 . S
C256 C257 1.321 . S
C257 C256 1.321 . S
C257 C258 1.403 . S
C257 H278 0.934 . S
C258 C253 1.413 . S
C258 C257 1.403 . S
C258 H279 0.930 . S
C259 O270 1.275 . S
C259 O271 1.256 1_556 S
O260 Ho240 2.322 . S
O260 C242 1.259 . S
O261 Ho241 2.346 1_554 S
O261 C242 1.268 . S
O262 Ho240 2.378 . S
O262 C243 1.215 . S
O263 Ho240 2.524 . S
O263 C243 1.289 . S
O264 Ho240 2.381 . S
O264 C250 1.275 . S
O265 Ho240 2.669 . S
O265 Ho241 2.305 1_554 S
O265 C250 1.256 . S
O266 Ho241 2.322 . S
O266 C251 1.259 . S
O267 Ho240 2.346 1_556 S
O267 C251 1.268 . S
O268 Ho241 2.378 . S
O268 C252 1.215 . S
O269 Ho241 2.524 . S
O269 C252 1.289 . S
O270 Ho241 2.381 . S
O270 C259 1.275 . S
O271 Ho240 2.305 . S
O271 Ho241 2.669 1_554 S
O271 C259 1.256 1_554 S
H272 C245 0.930 . S
H273 C246 0.931 . S
H274 C248 0.934 . S
H275 C249 0.930 . S
H276 C254 0.930 . S
H277 C255 0.931 . S
H278 C257 0.934 . S
H279 C258 0.930 . S
Ho280 C283 2.811 . S
Ho280 O300 2.322 . S
Ho280 O302 2.378 . S
Ho280 O303 2.524 . S
Ho280 O304 2.381 . S
Ho280 O305 2.669 . S
Ho280 O307 2.346 . S
Ho280 O311 2.305 . S
Ho281 C292 2.811 . S
Ho281 O301 2.346 . S
Ho281 O305 2.305 . S
Ho281 O306 2.322 . S
Ho281 O308 2.378 . S
Ho281 O309 2.524 . S
Ho281 O310 2.381 . S
Ho281 O311 2.669 . S
C282 O300 1.259 . S
C282 O301 1.268 . S
C283 Ho280 2.811 . S
C283 C284 1.488 . S
C283 O302 1.215 . S
C283 O303 1.289 . S
C284 C283 1.488 . S
C284 C285 1.348 . S
C284 C289 1.413 . S
C285 C284 1.348 . S
C285 C286 1.442 . S
C285 H312 0.930 . S
C286 C285 1.442 . S
C286 C287 1.381 . S
C286 H313 0.931 . S
C287 C286 1.381 . S
C287 C288 1.321 . S
C288 C287 1.321 . S
C288 C289 1.403 . S
C288 H314 0.934 . S
C289 C284 1.413 . S
C289 C288 1.403 . S
C289 H315 0.930 . S
C290 O304 1.275 . S
C290 O305 1.256 . S
C291 O306 1.259 . S
C291 O307 1.268 . S
C292 Ho281 2.811 . S
C292 C293 1.488 . S
C292 O308 1.215 . S
C292 O309 1.289 . S
C293 C292 1.488 . S
C293 C294 1.348 . S
C293 C298 1.413 . S
C294 C293 1.348 . S
C294 C295 1.442 . S
C294 H316 0.930 . S
C295 C294 1.442 . S
C295 C296 1.381 . S
C295 H317 0.931 . S
C296 C295 1.381 . S
C296 C297 1.321 . S
C297 C296 1.321 . S
C297 C298 1.403 . S
C297 H318 0.934 . S
C298 C293 1.413 . S
C298 C297 1.403 . S
C298 H319 0.930 . S
C299 O310 1.275 . S
C299 O311 1.256 . S
O300 Ho280 2.322 . S
O300 C282 1.259 . S
O301 Ho281 2.346 . S
O301 C282 1.268 . S
O302 Ho280 2.378 . S
O302 C283 1.215 . S
O303 Ho280 2.524 . S
O303 C283 1.289 . S
O304 Ho280 2.381 . S
O304 C290 1.275 . S
O305 Ho280 2.669 . S
O305 Ho281 2.305 . S
O305 C290 1.256 . S
O306 Ho281 2.322 . S
O306 C291 1.259 . S
O307 Ho280 2.346 . S
O307 C291 1.268 . S
O308 Ho281 2.378 . S
O308 C292 1.215 . S
O309 Ho281 2.524 . S
O309 C292 1.289 . S
O310 Ho281 2.381 . S
O310 C299 1.275 . S
O311 Ho280 2.305 . S
O311 Ho281 2.669 . S
O311 C299 1.256 . S
H312 C285 0.930 . S
H313 C286 0.931 . S
H314 C288 0.934 . S
H315 C289 0.930 . S
H316 C294 0.930 . S
H317 C295 0.931 . S
H318 C297 0.934 . S
H319 C298 0.930 . S
Ho320 C323 2.811 . S
Ho320 O340 2.322 . S
Ho320 O342 2.378 . S
Ho320 O343 2.524 . S
Ho320 O344 2.381 . S
Ho320 O345 2.669 . S
Ho320 O347 2.346 . S
Ho320 O351 2.305 . S
Ho321 C332 2.811 . S
Ho321 O341 2.346 . S
Ho321 O345 2.305 . S
Ho321 O346 2.322 . S
Ho321 O348 2.378 . S
Ho321 O349 2.524 . S
Ho321 O350 2.381 . S
Ho321 O351 2.669 . S
C322 O340 1.259 . S
C322 O341 1.268 . S
C323 Ho320 2.811 . S
C323 C324 1.488 . S
C323 O342 1.215 . S
C323 O343 1.289 . S
C324 C323 1.488 . S
C324 C325 1.348 . S
C324 C329 1.413 . S
C325 C324 1.348 . S
C325 C326 1.442 . S
C325 H352 0.930 . S
C326 C325 1.442 . S
C326 C327 1.381 . S
C326 H353 0.931 . S
C327 C326 1.381 . S
C327 C328 1.321 . S
C328 C327 1.321 . S
C328 C329 1.403 . S
C328 H354 0.934 . S
C329 C324 1.413 . S
C329 C328 1.403 . S
C329 H355 0.930 . S
C330 O344 1.275 . S
C330 O345 1.256 . S
C331 O346 1.259 . S
C331 O347 1.268 . S
C332 Ho321 2.811 . S
C332 C333 1.488 . S
C332 O348 1.215 . S
C332 O349 1.289 . S
C333 C332 1.488 . S
C333 C334 1.348 . S
C333 C338 1.413 . S
C334 C333 1.348 . S
C334 C335 1.442 . S
C334 H356 0.930 . S
C335 C334 1.442 . S
C335 C336 1.381 . S
C335 H357 0.931 . S
C336 C335 1.381 . S
C336 C337 1.321 . S
C337 C336 1.321 . S
C337 C338 1.403 . S
C337 H358 0.934 . S
C338 C333 1.413 . S
C338 C337 1.403 . S
C338 H359 0.930 . S
C339 O350 1.275 . S
C339 O351 1.256 . S
O340 Ho320 2.322 . S
O340 C322 1.259 . S
O341 Ho321 2.346 . S
O341 C322 1.268 . S
O342 Ho320 2.378 . S
O342 C323 1.215 . S
O343 Ho320 2.524 . S
O343 C323 1.289 . S
O344 Ho320 2.381 . S
O344 C330 1.275 . S
O345 Ho320 2.669 . S
O345 Ho321 2.305 . S
O345 C330 1.256 . S
O346 Ho321 2.322 . S
O346 C331 1.259 . S
O347 Ho320 2.346 . S
O347 C331 1.268 . S
O348 Ho321 2.378 . S
O348 C332 1.215 . S
O349 Ho321 2.524 . S
O349 C332 1.289 . S
O350 Ho321 2.381 . S
O350 C339 1.275 . S
O351 Ho320 2.305 . S
O351 Ho321 2.669 . S
O351 C339 1.256 . S
H352 C325 0.930 . S
H353 C326 0.931 . S
H354 C328 0.934 . S
H355 C329 0.930 . S
H356 C334 0.930 . S
H357 C335 0.931 . S
H358 C337 0.934 . S
H359 C338 0.930 . S
Ho360 C363 2.811 . S
Ho360 O380 2.322 1_565 S
Ho360 O382 2.378 . S
Ho360 O383 2.524 . S
Ho360 O384 2.381 1_565 S
Ho360 O385 2.669 1_565 S
Ho360 O387 2.346 . S
Ho360 O391 2.305 . S
Ho361 C372 2.811 . S
Ho361 O381 2.346 . S
Ho361 O385 2.305 . S
Ho361 O386 2.322 1_545 S
Ho361 O388 2.378 . S
Ho361 O389 2.524 . S
Ho361 O390 2.381 1_545 S
Ho361 O391 2.669 1_545 S
C362 O380 1.259 . S
C362 O381 1.268 . S
C363 Ho360 2.811 . S
C363 C364 1.488 . S
C363 O382 1.215 . S
C363 O383 1.289 . S
C364 C363 1.488 . S
C364 C365 1.348 . S
C364 C369 1.413 . S
C365 C364 1.348 . S
C365 C366 1.442 . S
C365 H392 0.930 . S
C366 C365 1.442 . S
C366 C367 1.381 . S
C366 H393 0.931 . S
C367 C366 1.381 . S
C367 C368 1.321 . S
C368 C367 1.321 . S
C368 C369 1.403 . S
C368 H394 0.934 . S
C369 C364 1.413 . S
C369 C368 1.403 . S
C369 H395 0.930 . S
C370 O384 1.275 . S
C370 O385 1.256 . S
C371 O386 1.259 . S
C371 O387 1.268 . S
C372 Ho361 2.811 . S
C372 C373 1.488 . S
C372 O388 1.215 . S
C372 O389 1.289 . S
C373 C372 1.488 . S
C373 C374 1.348 . S
C373 C378 1.413 . S
C374 C373 1.348 . S
C374 C375 1.442 . S
C374 H396 0.930 . S
C375 C374 1.442 . S
C375 C376 1.381 . S
C375 H397 0.931 . S
C376 C375 1.381 . S
C376 C377 1.321 . S
C377 C376 1.321 . S
C377 C378 1.403 . S
C377 H398 0.934 . S
C378 C373 1.413 . S
C378 C377 1.403 . S
C378 H399 0.930 . S
C379 O390 1.275 . S
C379 O391 1.256 . S
O380 Ho360 2.322 1_545 S
O380 C362 1.259 . S
O381 Ho361 2.346 . S
O381 C362 1.268 . S
O382 Ho360 2.378 . S
O382 C363 1.215 . S
O383 Ho360 2.524 . S
O383 C363 1.289 . S
O384 Ho360 2.381 1_545 S
O384 C370 1.275 . S
O385 Ho360 2.669 1_545 S
O385 Ho361 2.305 . S
O385 C370 1.256 . S
O386 Ho361 2.322 1_565 S
O386 C371 1.259 . S
O387 Ho360 2.346 . S
O387 C371 1.268 . S
O388 Ho361 2.378 . S
O388 C372 1.215 . S
O389 Ho361 2.524 . S
O389 C372 1.289 . S
O390 Ho361 2.381 1_565 S
O390 C379 1.275 . S
O391 Ho360 2.305 . S
O391 Ho361 2.669 1_565 S
O391 C379 1.256 . S
H392 C365 0.930 . S
H393 C366 0.931 . S
H394 C368 0.934 . S
H395 C369 0.930 . S
H396 C374 0.930 . S
H397 C375 0.931 . S
H398 C377 0.934 . S
H399 C378 0.930 . S
Ho400 C403 2.811 . S
Ho400 O420 2.322 . S
Ho400 O422 2.378 . S
Ho400 O423 2.524 . S
Ho400 O424 2.381 . S
Ho400 O425 2.669 . S
Ho400 O427 2.346 1_565 S
Ho400 O431 2.305 1_565 S
Ho401 C412 2.811 . S
Ho401 O421 2.346 1_545 S
Ho401 O425 2.305 1_545 S
Ho401 O426 2.322 . S
Ho401 O428 2.378 . S
Ho401 O429 2.524 . S
Ho401 O430 2.381 . S
Ho401 O431 2.669 . S
C402 O420 1.259 . S
C402 O421 1.268 . S
C403 Ho400 2.811 . S
C403 C404 1.488 . S
C403 O422 1.215 . S
C403 O423 1.289 . S
C404 C403 1.488 . S
C404 C405 1.348 . S
C404 C409 1.413 . S
C405 C404 1.348 . S
C405 C406 1.442 . S
C405 H432 0.930 . S
C406 C405 1.442 . S
C406 C407 1.381 . S
C406 H433 0.931 . S
C407 C406 1.381 . S
C407 C408 1.321 . S
C408 C407 1.321 . S
C408 C409 1.403 . S
C408 H434 0.934 . S
C409 C404 1.413 . S
C409 C408 1.403 . S
C409 H435 0.930 . S
C410 O424 1.275 . S
C410 O425 1.256 . S
C411 O426 1.259 . S
C411 O427 1.268 . S
C412 Ho401 2.811 . S
C412 C413 1.488 . S
C412 O428 1.215 . S
C412 O429 1.289 . S
C413 C412 1.488 . S
C413 C414 1.348 . S
C413 C418 1.413 . S
C414 C413 1.348 . S
C414 C415 1.442 . S
C414 H436 0.930 . S
C415 C414 1.442 . S
C415 C416 1.381 . S
C415 H437 0.931 . S
C416 C415 1.381 . S
C416 C417 1.321 . S
C417 C416 1.321 . S
C417 C418 1.403 . S
C417 H438 0.934 . S
C418 C413 1.413 . S
C418 C417 1.403 . S
C418 H439 0.930 . S
C419 O430 1.275 . S
C419 O431 1.256 . S
O420 Ho400 2.322 . S
O420 C402 1.259 . S
O421 Ho401 2.346 1_565 S
O421 C402 1.268 . S
O422 Ho400 2.378 . S
O422 C403 1.215 . S
O423 Ho400 2.524 . S
O423 C403 1.289 . S
O424 Ho400 2.381 . S
O424 C410 1.275 . S
O425 Ho400 2.669 . S
O425 Ho401 2.305 1_565 S
O425 C410 1.256 . S
O426 Ho401 2.322 . S
O426 C411 1.259 . S
O427 Ho400 2.346 1_545 S
O427 C411 1.268 . S
O428 Ho401 2.378 . S
O428 C412 1.215 . S
O429 Ho401 2.524 . S
O429 C412 1.289 . S
O430 Ho401 2.381 . S
O430 C419 1.275 . S
O431 Ho400 2.305 1_545 S
O431 Ho401 2.669 . S
O431 C419 1.256 . S
H432 C405 0.930 . S
H433 C406 0.931 . S
H434 C408 0.934 . S
H435 C409 0.930 . S
H436 C414 0.930 . S
H437 C415 0.931 . S
H438 C417 0.934 . S
H439 C418 0.930 . S
Ho440 C443 2.811 . S
Ho440 O460 2.322 . S
Ho440 O462 2.378 . S
Ho440 O463 2.524 . S
Ho440 O464 2.381 . S
Ho440 O465 2.669 . S
Ho440 O467 2.346 . S
Ho440 O471 2.305 . S
Ho441 C452 2.811 . S
Ho441 O461 2.346 . S
Ho441 O465 2.305 . S
Ho441 O466 2.322 . S
Ho441 O468 2.378 . S
Ho441 O469 2.524 . S
Ho441 O470 2.381 . S
Ho441 O471 2.669 . S
C442 O460 1.259 . S
C442 O461 1.268 . S
C443 Ho440 2.811 . S
C443 C444 1.488 . S
C443 O462 1.215 . S
C443 O463 1.289 . S
C444 C443 1.488 . S
C444 C445 1.348 . S
C444 C449 1.413 . S
C445 C444 1.348 . S
C445 C446 1.442 . S
C445 H472 0.930 . S
C446 C445 1.442 . S
C446 C447 1.381 . S
C446 H473 0.931 . S
C447 C446 1.381 . S
C447 C448 1.321 . S
C448 C447 1.321 . S
C448 C449 1.403 . S
C448 H474 0.934 . S
C449 C444 1.413 . S
C449 C448 1.403 . S
C449 H475 0.930 . S
C450 O464 1.275 . S
C450 O465 1.256 . S
C451 O466 1.259 . S
C451 O467 1.268 . S
C452 Ho441 2.811 . S
C452 C453 1.488 . S
C452 O468 1.215 . S
C452 O469 1.289 . S
C453 C452 1.488 . S
C453 C454 1.348 . S
C453 C458 1.413 . S
C454 C453 1.348 . S
C454 C455 1.442 . S
C454 H476 0.930 . S
C455 C454 1.442 . S
C455 C456 1.381 . S
C455 H477 0.931 . S
C456 C455 1.381 . S
C456 C457 1.321 . S
C457 C456 1.321 . S
C457 C458 1.403 . S
C457 H478 0.934 . S
C458 C453 1.413 . S
C458 C457 1.403 . S
C458 H479 0.930 . S
C459 O470 1.275 . S
C459 O471 1.256 . S
O460 Ho440 2.322 . S
O460 C442 1.259 . S
O461 Ho441 2.346 . S
O461 C442 1.268 . S
O462 Ho440 2.378 . S
O462 C443 1.215 . S
O463 Ho440 2.524 . S
O463 C443 1.289 . S
O464 Ho440 2.381 . S
O464 C450 1.275 . S
O465 Ho440 2.669 . S
O465 Ho441 2.305 . S
O465 C450 1.256 . S
O466 Ho441 2.322 . S
O466 C451 1.259 . S
O467 Ho440 2.346 . S
O467 C451 1.268 . S
O468 Ho441 2.378 . S
O468 C452 1.215 . S
O469 Ho441 2.524 . S
O469 C452 1.289 . S
O470 Ho441 2.381 . S
O470 C459 1.275 . S
O471 Ho440 2.305 . S
O471 Ho441 2.669 . S
O471 C459 1.256 . S
H472 C445 0.930 . S
H473 C446 0.931 . S
H474 C448 0.934 . S
H475 C449 0.930 . S
H476 C454 0.930 . S
H477 C455 0.931 . S
H478 C457 0.934 . S
H479 C458 0.930 . S
H480 C488 0.950 . S
H481 C493 0.950 . S
H482 C490 0.950 . S
H483 C492 0.950 . S
H484 C494 0.950 . S
H485 C496 0.950 . S
H486 C498 0.950 . S
H487 C499 0.950 . S
C488 H480 0.950 . S
C488 C489 1.386 . S
C488 C490 1.391 . S
C489 C488 1.386 . S
C489 C493 1.393 . S
C490 H482 0.950 . S
C490 C488 1.391 . S
C490 C491 1.400 . S
C491 C490 1.400 . S
C491 C492 1.398 . S
C491 C497 1.491 . S
C492 H483 0.950 . S
C492 C491 1.398 . S
C492 C493 1.391 . S
C493 H481 0.950 . S
C493 C489 1.393 . S
C493 C492 1.391 . S
C494 H484 0.950 . S
C494 C495 1.386 . S
C494 C496 1.391 . S
C495 C494 1.386 . S
C495 C499 1.393 . S
C496 H485 0.950 . S
C496 C494 1.391 . S
C496 C497 1.400 . S
C497 C491 1.491 . S
C497 C496 1.400 . S
C497 C498 1.398 . S
C498 H486 0.950 . S
C498 C497 1.398 . S
C498 C499 1.391 . S
C499 H487 0.950 . S
C499 C495 1.393 . S
C499 C498 1.391 . S
H500 C508 0.950 . S
H501 C513 0.950 . S
H502 C510 0.950 . S
H503 C512 0.950 . S
H504 C514 0.950 . S
H505 C516 0.950 . S
H506 C518 0.950 . S
H507 C519 0.950 . S
C508 H500 0.950 . S
C508 C509 1.386 . S
C508 C510 1.391 . S
C509 C508 1.386 . S
C509 C513 1.393 . S
C510 H502 0.950 . S
C510 C508 1.391 . S
C510 C511 1.400 . S
C511 C510 1.400 . S
C511 C512 1.398 . S
C511 C517 1.491 . S
C512 H503 0.950 . S
C512 C511 1.398 . S
C512 C513 1.391 . S
C513 H501 0.950 . S
C513 C509 1.393 . S
C513 C512 1.391 . S
C514 H504 0.950 . S
C514 C515 1.386 . S
C514 C516 1.391 . S
C515 C514 1.386 . S
C515 C519 1.393 . S
C516 H505 0.950 . S
C516 C514 1.391 . S
C516 C517 1.400 . S
C517 C511 1.491 . S
C517 C516 1.400 . S
C517 C518 1.398 . S
C518 H506 0.950 . S
C518 C517 1.398 . S
C518 C519 1.391 . S
C519 H507 0.950 . S
C519 C515 1.393 . S
C519 C518 1.391 . S
H520 C528 0.950 . S
H521 C533 0.953 . S
H522 C530 0.950 . S
H523 C532 0.950 . S
H524 C534 0.950 . S
H525 C536 0.950 . S
H526 C538 0.950 . S
H527 C539 0.950 . S
C528 H520 0.950 . S
C528 C529 1.386 . S
C528 C530 1.391 . S
C529 C528 1.386 . S
C529 C533 1.393 . S
C530 H522 0.950 . S
C530 C528 1.391 . S
C530 C531 1.400 . S
C531 C530 1.400 . S
C531 C532 1.398 . S
C531 C537 1.491 . S
C532 H523 0.950 . S
C532 C531 1.398 . S
C532 C533 1.391 . S
C533 H521 0.953 . S
C533 C529 1.393 . S
C533 C532 1.391 . S
C534 H524 0.950 . S
C534 C535 1.386 . S
C534 C536 1.391 . S
C535 C534 1.386 . S
C535 C539 1.393 . S
C536 H525 0.950 . S
C536 C534 1.391 . S
C536 C537 1.400 . S
C537 C531 1.491 . S
C537 C536 1.400 . S
C537 C538 1.398 . S
C538 H526 0.950 . S
C538 C537 1.398 . S
C538 C539 1.391 . S
C539 H527 0.950 . S
C539 C535 1.393 . S
C539 C538 1.391 . S
H540 C548 0.950 . S
H541 C553 0.950 . S
H542 C550 0.950 . S
H543 C552 0.950 . S
H544 C554 0.950 . S
H545 C556 0.950 . S
H546 C558 0.950 . S
H547 C559 0.950 1_565 S
C548 H540 0.950 . S
C548 C549 1.386 . S
C548 C550 1.391 . S
C549 C548 1.386 . S
C549 C553 1.393 . S
C550 H542 0.950 . S
C550 C548 1.391 . S
C550 C551 1.400 . S
C551 C550 1.400 . S
C551 C552 1.398 . S
C551 C557 1.491 . S
C552 H543 0.950 . S
C552 C551 1.398 . S
C552 C553 1.391 . S
C553 H541 0.950 . S
C553 C549 1.393 . S
C553 C552 1.391 . S
C554 H544 0.950 . S
C554 C555 1.386 . S
C554 C556 1.391 . S
C555 C554 1.386 . S
C555 C559 1.393 . S
C556 H545 0.950 . S
C556 C554 1.391 . S
C556 C557 1.400 . S
C557 C551 1.491 . S
C557 C556 1.400 . S
C557 C558 1.398 . S
C558 H546 0.950 . S
C558 C557 1.398 . S
C558 C559 1.391 . S
C559 H547 0.950 1_545 S
C559 C555 1.393 . S
C559 C558 1.391 . S
H560 C568 0.950 . S
H561 C573 0.950 . S
H562 C570 0.950 . S
H563 C572 0.950 . S
H564 C574 0.950 . S
H565 C576 0.950 . S
H566 C578 0.950 . S
H567 C579 0.950 . S
C568 H560 0.950 . S
C568 C569 1.386 . S
C568 C570 1.391 . S
C569 C568 1.386 . S
C569 C573 1.393 . S
C570 H562 0.950 . S
C570 C568 1.391 . S
C570 C571 1.400 . S
C571 C570 1.400 . S
C571 C572 1.398 . S
C571 C577 1.491 . S
C572 H563 0.950 . S
C572 C571 1.398 . S
C572 C573 1.391 . S
C573 H561 0.950 . S
C573 C569 1.393 . S
C573 C572 1.391 . S
C574 H564 0.950 . S
C574 C575 1.386 . S
C574 C576 1.391 . S
C575 C574 1.386 . S
C575 C579 1.393 . S
C576 H565 0.950 . S
C576 C574 1.391 . S
C576 C577 1.400 . S
C577 C571 1.491 . S
C577 C576 1.400 . S
C577 C578 1.398 . S
C578 H566 0.950 . S
C578 C577 1.398 . S
C578 C579 1.391 . S
C579 H567 0.950 . S
C579 C575 1.393 . S
C579 C578 1.391 . S
H580 C588 0.950 . S
H581 C593 0.950 . S
H582 C590 0.950 . S
H583 C592 0.950 . S
H584 C594 0.950 . S
H585 C596 0.950 . S
H586 C598 0.950 . S
H587 C599 0.950 . S
C588 H580 0.950 . S
C588 C589 1.386 . S
C588 C590 1.391 . S
C589 C588 1.386 . S
C589 C593 1.393 . S
C590 H582 0.950 . S
C590 C588 1.391 . S
C590 C591 1.400 . S
C591 C590 1.400 . S
C591 C592 1.398 . S
C591 C597 1.491 . S
C592 H583 0.950 . S
C592 C591 1.398 . S
C592 C593 1.391 . S
C593 H581 0.950 . S
C593 C589 1.393 . S
C593 C592 1.391 . S
C594 H584 0.950 . S
C594 C595 1.386 . S
C594 C596 1.391 . S
C595 C594 1.386 . S
C595 C599 1.393 . S
C596 H585 0.950 . S
C596 C594 1.391 . S
C596 C597 1.400 . S
C597 C591 1.491 . S
C597 C596 1.400 . S
C597 C598 1.398 . S
C598 H586 0.950 . S
C598 C597 1.398 . S
C598 C599 1.391 . S
C599 H587 0.950 . S
C599 C595 1.393 . S
C599 C598 1.391 . S
H600 C608 0.950 . S
H601 C613 0.950 . S
H602 C610 0.950 . S
H603 C612 0.950 . S
H604 C614 0.950 . S
H605 C616 0.950 . S
H606 C618 0.950 . S
H607 C619 0.950 1_554 S
C608 H600 0.950 . S
C608 C609 1.386 . S
C608 C610 1.391 . S
C609 C608 1.386 . S
C609 C613 1.393 . S
C610 H602 0.950 . S
C610 C608 1.391 . S
C610 C611 1.400 . S
C611 C610 1.400 . S
C611 C612 1.398 . S
C611 C617 1.491 . S
C612 H603 0.950 . S
C612 C611 1.398 . S
C612 C613 1.391 . S
C613 H601 0.950 . S
C613 C609 1.393 . S
C613 C612 1.391 . S
C614 H604 0.950 . S
C614 C615 1.386 . S
C614 C616 1.391 . S
C615 C614 1.386 . S
C615 C619 1.393 . S
C616 H605 0.950 . S
C616 C614 1.391 . S
C616 C617 1.400 . S
C617 C611 1.491 . S
C617 C616 1.400 . S
C617 C618 1.398 . S
C618 H606 0.950 . S
C618 C617 1.398 . S
C618 C619 1.391 . S
C619 H607 0.950 1_556 S
C619 C615 1.393 . S
C619 C618 1.391 . S
H620 C628 0.950 . S
H621 C633 0.950 . S
H622 C630 0.950 . S
H623 C632 0.950 . S
H624 C634 0.950 . S
H625 C636 0.950 . S
H626 C638 0.950 . S
H627 C639 0.950 . S
C628 H620 0.950 . S
C628 C629 1.386 . S
C628 C630 1.391 . S
C629 C628 1.386 . S
C629 C633 1.393 . S
C630 H622 0.950 . S
C630 C628 1.391 . S
C630 C631 1.400 . S
C631 C630 1.400 . S
C631 C632 1.398 . S
C631 C637 1.491 . S
C632 H623 0.950 . S
C632 C631 1.398 . S
C632 C633 1.391 . S
C633 H621 0.950 . S
C633 C629 1.393 . S
C633 C632 1.391 . S
C634 H624 0.950 . S
C634 C635 1.386 . S
C634 C636 1.391 . S
C635 C634 1.386 . S
C635 C639 1.393 . S
C636 H625 0.950 . S
C636 C634 1.391 . S
C636 C637 1.400 . S
C637 C631 1.491 . S
C637 C636 1.400 . S
C637 C638 1.398 . S
C638 H626 0.950 . S
C638 C637 1.398 . S
C638 C639 1.391 . S
C639 H627 0.950 . S
C639 C635 1.393 . S
C639 C638 1.391 . S
H640 C648 0.950 . S
H641 C653 0.950 . S
H642 C650 0.950 . S
H643 C652 0.950 . S
H644 C654 0.950 . S
H645 C656 0.950 . S
H646 C658 0.950 . S
H647 C659 0.950 . S
C648 H640 0.950 . S
C648 C649 1.386 . S
C648 C650 1.391 . S
C649 C648 1.386 . S
C649 C653 1.393 . S
C650 H642 0.950 . S
C650 C648 1.391 . S
C650 C651 1.400 . S
C651 C650 1.400 . S
C651 C652 1.398 . S
C651 C657 1.491 . S
C652 H643 0.950 . S
C652 C651 1.398 . S
C652 C653 1.391 . S
C653 H641 0.950 . S
C653 C649 1.393 . S
C653 C652 1.391 . S
C654 H644 0.950 . S
C654 C655 1.386 . S
C654 C656 1.391 . S
C655 C654 1.386 . S
C655 C659 1.393 . S
C656 H645 0.950 . S
C656 C654 1.391 . S
C656 C657 1.400 . S
C657 C651 1.491 . S
C657 C656 1.400 . S
C657 C658 1.398 . S
C658 H646 0.950 . S
C658 C657 1.398 . S
C658 C659 1.391 . S
C659 H647 0.950 . S
C659 C655 1.393 . S
C659 C658 1.391 . S
H660 C668 0.950 . S
H661 C673 0.950 . S
H662 C670 0.950 . S
H663 C672 0.950 . S
H664 C674 0.950 1_655 S
H665 C676 0.969 . S
H666 C678 0.950 . S
H667 C679 0.950 . S
C668 H660 0.950 . S
C668 C669 1.386 . S
C668 C670 1.391 . S
C669 C668 1.386 . S
C669 C673 1.393 . S
C670 H662 0.950 . S
C670 C668 1.391 . S
C670 C671 1.400 . S
C671 C670 1.400 . S
C671 C672 1.398 . S
C671 C677 1.491 . S
C672 H663 0.950 . S
C672 C671 1.398 . S
C672 C673 1.391 . S
C673 H661 0.950 . S
C673 C669 1.393 . S
C673 C672 1.391 . S
C674 H664 0.950 1_455 S
C674 C675 1.386 . S
C674 C676 1.391 . S
C675 C674 1.386 . S
C675 C679 1.393 . S
C676 H665 0.969 . S
C676 C674 1.391 . S
C676 C677 1.400 . S
C677 C671 1.491 . S
C677 C676 1.400 . S
C677 C678 1.398 . S
C678 H666 0.950 . S
C678 C677 1.398 . S
C678 C679 1.391 . S
C679 H667 0.950 . S
C679 C675 1.393 . S
C679 C678 1.391 . S
H680 C688 0.950 . S
H681 C693 0.934 1_455 S
H682 C690 0.950 . S
H683 C692 0.950 . S
H684 C694 0.950 . S
H685 C696 0.950 . S
H686 C698 0.950 . S
H687 C699 0.950 . S
C688 H680 0.950 . S
C688 C689 1.386 . S
C688 C690 1.391 . S
C689 C688 1.386 . S
C689 C693 1.400 . S
C690 H682 0.950 . S
C690 C688 1.391 . S
C690 C691 1.400 . S
C691 C690 1.400 . S
C691 C692 1.398 . S
C691 C697 1.491 . S
C692 H683 0.950 . S
C692 C691 1.398 . S
C692 C693 1.399 . S
C693 H681 0.934 1_655 S
C693 C689 1.400 . S
C693 C692 1.399 . S
C694 H684 0.950 . S
C694 C695 1.386 . S
C694 C696 1.391 . S
C695 C694 1.386 . S
C695 C699 1.393 . S
C696 H685 0.950 . S
C696 C694 1.391 . S
C696 C697 1.400 . S
C697 C691 1.491 . S
C697 C696 1.400 . S
C697 C698 1.398 . S
C698 H686 0.950 . S
C698 C697 1.398 . S
C698 C699 1.391 . S
C699 H687 0.950 . S
C699 C695 1.393 . S
C699 C698 1.391 . S
H700 C708 0.950 . S
H701 C713 0.950 . S
H702 C710 0.950 . S
H703 C712 0.950 . S
H704 C714 0.950 . S
H705 C716 0.950 . S
H706 C718 0.950 . S
H707 C719 0.950 . S
C708 H700 0.950 . S
C708 C709 1.386 . S
C708 C710 1.391 . S
C709 C708 1.386 . S
C709 C713 1.393 . S
C710 H702 0.950 . S
C710 C708 1.391 . S
C710 C711 1.400 . S
C711 C710 1.400 . S
C711 C712 1.398 . S
C711 C717 1.491 . S
C712 H703 0.950 . S
C712 C711 1.398 . S
C712 C713 1.391 . S
C713 H701 0.950 . S
C713 C709 1.393 . S
C713 C712 1.391 . S
C714 H704 0.950 . S
C714 C715 1.386 . S
C714 C716 1.391 . S
C715 C714 1.386 . S
C715 C719 1.393 . S
C716 H705 0.950 . S
C716 C714 1.391 . S
C716 C717 1.400 . S
C717 C711 1.491 . S
C717 C716 1.400 . S
C717 C718 1.398 . S
C718 H706 0.950 . S
C718 C717 1.398 . S
C718 C719 1.391 . S
C719 H707 0.950 . S
C719 C715 1.393 . S
C719 C718 1.391 . S
H720 C728 0.950 . S
H721 C733 0.950 . S
H722 C730 0.950 . S
H723 C732 0.950 . S
H724 C734 0.950 . S
H725 C736 0.950 . S
H726 C738 0.950 . S
H727 C739 0.950 . S
C728 H720 0.950 . S
C728 C729 1.386 . S
C728 C730 1.391 . S
C729 C728 1.386 . S
C729 C733 1.393 . S
C730 H722 0.950 . S
C730 C728 1.391 . S
C730 C731 1.400 . S
C731 C730 1.400 . S
C731 C732 1.398 . S
C731 C737 1.491 . S
C732 H723 0.950 . S
C732 C731 1.398 . S
C732 C733 1.391 . S
C733 H721 0.950 . S
C733 C729 1.393 . S
C733 C732 1.391 . S
C734 H724 0.950 . S
C734 C735 1.386 . S
C734 C736 1.391 . S
C735 C734 1.386 . S
C735 C739 1.393 . S
C736 H725 0.950 . S
C736 C734 1.391 . S
C736 C737 1.400 . S
C737 C731 1.491 . S
C737 C736 1.400 . S
C737 C738 1.398 . S
C738 H726 0.950 . S
C738 C737 1.398 . S
C738 C739 1.391 . S
C739 H727 0.950 . S
C739 C735 1.393 . S
C739 C738 1.391 . S
H740 C748 0.950 . S
H741 C753 0.950 . S
H742 C750 0.950 . S
H743 C752 0.950 . S
H744 C754 0.950 . S
H745 C756 0.950 . S
H746 C758 0.950 . S
H747 C759 0.950 1_545 S
C748 H740 0.950 . S
C748 C749 1.386 . S
C748 C750 1.391 . S
C749 C748 1.386 . S
C749 C753 1.393 . S
C750 H742 0.950 . S
C750 C748 1.391 . S
C750 C751 1.400 . S
C751 C750 1.400 . S
C751 C752 1.398 . S
C751 C757 1.491 . S
C752 H743 0.950 . S
C752 C751 1.398 . S
C752 C753 1.391 . S
C753 H741 0.950 . S
C753 C749 1.393 . S
C753 C752 1.391 . S
C754 H744 0.950 . S
C754 C755 1.386 . S
C754 C756 1.391 . S
C755 C754 1.386 . S
C755 C759 1.393 . S
C756 H745 0.950 . S
C756 C754 1.391 . S
C756 C757 1.400 . S
C757 C751 1.491 . S
C757 C756 1.400 . S
C757 C758 1.398 . S
C758 H746 0.950 . S
C758 C757 1.398 . S
C758 C759 1.391 . S
C759 H747 0.950 1_565 S
C759 C755 1.393 . S
C759 C758 1.391 . S
H760 C768 0.950 . S
H761 C773 0.950 . S
H762 C770 0.950 . S
H763 C772 0.950 . S
H764 C774 0.950 . S
H765 C776 0.950 . S
H766 C778 0.950 . S
H767 C779 0.950 . S
C768 H760 0.950 . S
C768 C769 1.386 . S
C768 C770 1.391 . S
C769 C768 1.386 . S
C769 C773 1.393 . S
C770 H762 0.950 . S
C770 C768 1.391 . S
C770 C771 1.400 . S
C771 C770 1.400 . S
C771 C772 1.398 . S
C771 C777 1.491 . S
C772 H763 0.950 . S
C772 C771 1.398 . S
C772 C773 1.391 . S
C773 H761 0.950 . S
C773 C769 1.393 . S
C773 C772 1.391 . S
C774 H764 0.950 . S
C774 C775 1.386 . S
C774 C776 1.391 . S
C775 C774 1.386 . S
C775 C779 1.393 . S
C776 H765 0.950 . S
C776 C774 1.391 . S
C776 C777 1.400 . S
C777 C771 1.491 . S
C777 C776 1.400 . S
C777 C778 1.398 . S
C778 H766 0.950 . S
C778 C777 1.398 . S
C778 C779 1.391 . S
C779 H767 0.950 . S
C779 C775 1.393 . S
C779 C778 1.391 . S
H780 C788 0.950 . S
H781 C793 0.950 . S
H782 C790 0.950 . S
H783 C792 0.950 1_556 S
H784 C794 0.950 . S
H785 C796 0.950 . S
H786 C798 0.950 1_554 S
H787 C799 0.950 . S
C788 H780 0.950 . S
C788 C789 1.386 . S
C788 C790 1.391 . S
C789 C788 1.386 . S
C789 C793 1.393 . S
C790 H782 0.950 . S
C790 C788 1.391 . S
C790 C791 1.400 . S
C791 C790 1.400 . S
C791 C792 1.398 . S
C791 C797 1.491 1_554 S
C792 H783 0.950 1_554 S
C792 C791 1.398 . S
C792 C793 1.391 . S
C793 H781 0.950 . S
C793 C789 1.393 . S
C793 C792 1.391 . S
C794 H784 0.950 . S
C794 C795 1.386 . S
C794 C796 1.391 . S
C795 C794 1.386 . S
C795 C799 1.393 . S
C796 H785 0.950 . S
C796 C794 1.391 . S
C796 C797 1.400 . S
C797 C791 1.491 1_556 S
C797 C796 1.400 . S
C797 C798 1.398 . S
C798 H786 0.950 1_556 S
C798 C797 1.398 . S
C798 C799 1.391 . S
C799 H787 0.950 . S
C799 C795 1.393 . S
C799 C798 1.391 . S
H800 C808 0.950 . S
H801 C813 0.950 . S
H802 C810 0.950 . S
H803 C812 0.950 . S
H804 C814 0.950 . S
H805 C816 0.950 . S
H806 C818 0.950 . S
H807 C819 0.950 . S
C808 H800 0.950 . S
C808 C809 1.386 . S
C808 C810 1.391 . S
C809 C808 1.386 . S
C809 C813 1.393 . S
C810 H802 0.950 . S
C810 C808 1.391 . S
C810 C811 1.400 . S
C811 C810 1.400 . S
C811 C812 1.398 . S
C811 C817 1.491 . S
C812 H803 0.950 . S
C812 C811 1.398 . S
C812 C813 1.391 . S
C813 H801 0.950 . S
C813 C809 1.393 . S
C813 C812 1.391 . S
C814 H804 0.950 . S
C814 C815 1.386 . S
C814 C816 1.391 . S
C815 C814 1.386 . S
C815 C819 1.393 . S
C816 H805 0.950 . S
C816 C814 1.391 . S
C816 C817 1.400 . S
C817 C811 1.491 . S
C817 C816 1.400 . S
C817 C818 1.398 . S
C818 H806 0.950 . S
C818 C817 1.398 . S
C818 C819 1.391 . S
C819 H807 0.950 . S
C819 C815 1.393 . S
C819 C818 1.391 . S
H820 C828 0.950 . S
H821 C833 0.950 . S
H822 C830 0.950 . S
H823 C832 0.951 1_556 S
H824 C834 0.950 . S
H825 C836 0.950 . S
H826 C838 0.950 . S
H827 C839 0.950 . S
C828 H820 0.950 . S
C828 C829 1.386 . S
C828 C830 1.391 1_554 S
C829 C828 1.386 . S
C829 C833 1.393 . S
C830 H822 0.950 . S
C830 C828 1.391 1_556 S
C830 C831 1.400 . S
C831 C830 1.400 . S
C831 C832 1.400 1_556 S
C831 C837 1.491 . S
C832 H823 0.951 1_554 S
C832 C831 1.400 1_554 S
C832 C833 1.389 . S
C833 H821 0.950 . S
C833 C829 1.393 . S
C833 C832 1.389 . S
C834 H824 0.950 . S
C834 C835 1.386 . S
C834 C836 1.391 . S
C835 C834 1.386 . S
C835 C839 1.393 . S
C836 H825 0.950 . S
C836 C834 1.391 . S
C836 C837 1.400 . S
C837 C831 1.491 . S
C837 C836 1.400 . S
C837 C838 1.398 . S
C838 H826 0.950 . S
C838 C837 1.398 . S
C838 C839 1.391 . S
C839 H827 0.950 . S
C839 C835 1.393 . S
C839 C838 1.391 . S
H840 C848 0.950 . S
H841 C853 0.950 . S
H842 C850 0.950 . S
H843 C852 0.950 . S
H844 C854 0.950 . S
H845 C856 0.950 . S
H846 C858 0.950 . S
H847 C859 0.950 . S
C848 H840 0.950 . S
C848 C849 1.386 . S
C848 C850 1.391 . S
C849 C848 1.386 . S
C849 C853 1.393 . S
C850 H842 0.950 . S
C850 C848 1.391 . S
C850 C851 1.400 . S
C851 C850 1.400 . S
C851 C852 1.398 . S
C851 C857 1.491 . S
C852 H843 0.950 . S
C852 C851 1.398 . S
C852 C853 1.391 . S
C853 H841 0.950 . S
C853 C849 1.393 . S
C853 C852 1.391 . S
C854 H844 0.950 . S
C854 C855 1.386 . S
C854 C856 1.391 . S
C855 C854 1.386 . S
C855 C859 1.393 . S
C856 H845 0.950 . S
C856 C854 1.391 . S
C856 C857 1.400 . S
C857 C851 1.491 . S
C857 C856 1.400 . S
C857 C858 1.398 . S
C858 H846 0.950 . S
C858 C857 1.398 . S
C858 C859 1.391 . S
C859 H847 0.950 . S
C859 C855 1.393 . S
C859 C858 1.391 . S
H860 C868 0.950 . S
H861 C873 0.950 . S
H862 C870 0.950 . S
H863 C872 0.950 . S
H864 C874 0.950 . S
H865 C876 0.950 . S
H866 C878 0.950 . S
H867 C879 0.950 . S
C868 H860 0.950 . S
C868 C869 1.386 . S
C868 C870 1.391 . S
C869 C868 1.386 . S
C869 C873 1.393 . S
C870 H862 0.950 . S
C870 C868 1.391 . S
C870 C871 1.400 . S
C871 C870 1.400 . S
C871 C872 1.398 . S
C871 C877 1.491 . S
C872 H863 0.950 . S
C872 C871 1.398 . S
C872 C873 1.391 . S
C873 H861 0.950 . S
C873 C869 1.393 . S
C873 C872 1.391 . S
C874 H864 0.950 . S
C874 C875 1.386 . S
C874 C876 1.391 . S
C875 C874 1.386 . S
C875 C879 1.393 . S
C876 H865 0.950 . S
C876 C874 1.391 . S
C876 C877 1.400 . S
C877 C871 1.491 . S
C877 C876 1.400 . S
C877 C878 1.398 . S
C878 H866 0.950 . S
C878 C877 1.398 . S
C878 C879 1.391 . S
C879 H867 0.950 . S
C879 C875 1.393 . S
C879 C878 1.391 . S
H880 C888 0.950 . S
H881 C893 0.950 . S
H882 C890 0.950 . S
H883 C892 0.950 . S
H884 C894 0.950 . S
H885 C896 0.950 . S
H886 C898 0.950 . S
H887 C899 0.950 . S
C888 H880 0.950 . S
C888 C889 1.386 . S
C888 C890 1.391 . S
C889 C888 1.386 . S
C889 C893 1.393 . S
C890 H882 0.950 . S
C890 C888 1.391 . S
C890 C891 1.400 . S
C891 C890 1.400 . S
C891 C892 1.398 . S
C891 C897 1.491 . S
C892 H883 0.950 . S
C892 C891 1.398 . S
C892 C893 1.391 . S
C893 H881 0.950 . S
C893 C889 1.393 . S
C893 C892 1.391 . S
C894 H884 0.950 . S
C894 C895 1.386 . S
C894 C896 1.391 . S
C895 C894 1.386 . S
C895 C899 1.393 . S
C896 H885 0.950 . S
C896 C894 1.391 . S
C896 C897 1.400 . S
C897 C891 1.491 . S
C897 C896 1.400 . S
C897 C898 1.398 . S
C898 H886 0.950 . S
C898 C897 1.398 . S
C898 C899 1.391 . S
C899 H887 0.950 . S
C899 C895 1.393 . S
C899 C898 1.391 . S
H900 C908 0.950 . S
H901 C913 0.950 . S
H902 C910 0.950 . S
H903 C912 0.950 . S
H904 C914 0.950 . S
H905 C916 0.950 1_545 S
H906 C918 0.950 . S
H907 C919 0.950 1_655 S
C908 H900 0.950 . S
C908 C909 1.386 . S
C908 C910 1.391 . S
C909 C908 1.386 . S
C909 C913 1.393 . S
C910 H902 0.950 . S
C910 C908 1.391 . S
C910 C911 1.400 . S
C911 C910 1.400 . S
C911 C912 1.398 . S
C911 C917 1.491 . S
C912 H903 0.950 . S
C912 C911 1.398 . S
C912 C913 1.391 . S
C913 H901 0.950 . S
C913 C909 1.393 . S
C913 C912 1.391 . S
C914 H904 0.950 . S
C914 C915 1.386 . S
C914 C916 1.391 . S
C915 C914 1.386 . S
C915 C919 1.393 . S
C916 H905 0.950 1_565 S
C916 C914 1.391 . S
C916 C917 1.400 1_565 S
C917 C911 1.491 . S
C917 C916 1.400 1_545 S
C917 C918 1.398 . S
C918 H906 0.950 . S
C918 C917 1.398 . S
C918 C919 1.391 1_545 S
C919 H907 0.950 1_455 S
C919 C915 1.393 . S
C919 C918 1.391 1_565 S
H920 C928 0.950 . S
H921 C933 0.950 . S
H922 C930 0.950 . S
H923 C932 0.950 . S
H924 C934 0.950 . S
H925 C936 0.950 . S
H926 C938 0.950 . S
H927 C939 0.950 . S
C928 H920 0.950 . S
C928 C929 1.386 . S
C928 C930 1.391 . S
C929 C928 1.386 . S
C929 C933 1.393 . S
C930 H922 0.950 . S
C930 C928 1.391 . S
C930 C931 1.400 . S
C931 C930 1.400 . S
C931 C932 1.398 . S
C931 C937 1.491 . S
C932 H923 0.950 . S
C932 C931 1.398 . S
C932 C933 1.391 . S
C933 H921 0.950 . S
C933 C929 1.393 . S
C933 C932 1.391 . S
C934 H924 0.950 . S
C934 C935 1.386 . S
C934 C936 1.391 . S
C935 C934 1.386 . S
C935 C939 1.393 . S
C936 H925 0.950 . S
C936 C934 1.391 . S
C936 C937 1.400 . S
C937 C931 1.491 . S
C937 C936 1.400 . S
C937 C938 1.398 . S
C938 H926 0.950 . S
C938 C937 1.398 . S
C938 C939 1.391 . S
C939 H927 0.950 . S
C939 C935 1.393 . S
C939 C938 1.391 . S
H940 C948 0.950 . S
H941 C953 0.950 . S
H942 C950 0.950 . S
H943 C952 0.950 1_565 S
H944 C954 0.950 . S
H945 C956 0.950 . S
H946 C958 0.973 . S
H947 C959 0.950 . S
C948 H940 0.950 . S
C948 C949 1.386 . S
C948 C950 1.391 . S
C949 C948 1.386 . S
C949 C953 1.393 . S
C950 H942 0.950 . S
C950 C948 1.391 . S
C950 C951 1.400 . S
C951 C950 1.400 . S
C951 C952 1.398 . S
C951 C957 1.491 1_545 S
C952 H943 0.950 1_545 S
C952 C951 1.398 . S
C952 C953 1.391 . S
C953 H941 0.950 . S
C953 C949 1.393 . S
C953 C952 1.391 . S
C954 H944 0.950 . S
C954 C955 1.386 . S
C954 C956 1.391 . S
C955 C954 1.386 . S
C955 C959 1.393 . S
C956 H945 0.950 . S
C956 C954 1.391 . S
C956 C957 1.400 . S
C957 C951 1.491 1_565 S
C957 C956 1.400 . S
C957 C958 1.398 . S
C958 H946 0.973 . S
C958 C957 1.398 . S
C958 C959 1.391 . S
C959 H947 0.950 . S
C959 C955 1.393 . S
C959 C958 1.391 . S
H960 C968 0.950 . S
H961 C973 0.950 . S
H962 C970 0.950 . S
H963 C972 0.950 . S
H964 C974 0.950 . S
H965 C976 0.950 . S
H966 C978 0.950 . S
H967 C979 0.950 . S
C968 H960 0.950 . S
C968 C969 1.386 . S
C968 C970 1.391 . S
C969 C968 1.386 . S
C969 C973 1.393 . S
C970 H962 0.950 . S
C970 C968 1.391 . S
C970 C971 1.400 . S
C971 C970 1.400 . S
C971 C972 1.398 . S
C971 C977 1.491 . S
C972 H963 0.950 . S
C972 C971 1.398 . S
C972 C973 1.391 . S
C973 H961 0.950 . S
C973 C969 1.393 . S
C973 C972 1.391 . S
C974 H964 0.950 . S
C974 C975 1.386 . S
C974 C976 1.391 . S
C975 C974 1.386 . S
C975 C979 1.393 . S
C976 H965 0.950 . S
C976 C974 1.391 . S
C976 C977 1.400 . S
C977 C971 1.491 . S
C977 C976 1.400 . S
C977 C978 1.398 . S
C978 H966 0.950 . S
C978 C977 1.398 . S
C978 C979 1.391 . S
C979 H967 0.950 . S
C979 C975 1.393 . S
C979 C978 1.391 . S
H980 C988 0.962 . S
H981 C993 0.950 . S
H982 C990 0.950 . S
H983 C992 0.950 . S
H984 C994 0.950 . S
H985 C996 0.950 . S
H986 C998 0.950 . S
H987 C999 0.950 . S
C988 H980 0.962 . S
C988 C989 1.386 . S
C988 C990 1.391 . S
C989 C988 1.386 . S
C989 C993 1.393 . S
C990 H982 0.950 . S
C990 C988 1.391 . S
C990 C991 1.400 . S
C991 C990 1.400 . S
C991 C992 1.398 . S
C991 C997 1.491 . S
C992 H983 0.950 . S
C992 C991 1.398 . S
C992 C993 1.391 . S
C993 H981 0.950 . S
C993 C989 1.393 . S
C993 C992 1.391 . S
C994 H984 0.950 . S
C994 C995 1.386 . S
C994 C996 1.391 . S
C995 C994 1.386 . S
C995 C999 1.393 . S
C996 H985 0.950 . S
C996 C994 1.391 . S
C996 C997 1.400 . S
C997 C991 1.491 . S
C997 C996 1.400 . S
C997 C998 1.398 . S
C998 H986 0.950 . S
C998 C997 1.398 . S
C998 C999 1.391 . S
C999 H987 0.950 . S
C999 C995 1.393 . S
C999 C998 1.391 . S
H1000 C1008 0.950 . S
H1001 C1013 0.950 . S
H1002 C1010 0.950 . S
H1003 C1012 0.950 . S
H1004 C1014 0.950 . S
H1005 C1016 0.950 . S
H1006 C1018 0.950 . S
H1007 C1019 0.950 . S
C1008 H1000 0.950 . S
C1008 C1009 1.386 . S
C1008 C1010 1.391 . S
C1009 C1008 1.386 . S
C1009 C1013 1.393 . S
C1010 H1002 0.950 . S
C1010 C1008 1.391 . S
C1010 C1011 1.400 . S
C1011 C1010 1.400 . S
C1011 C1012 1.398 . S
C1011 C1017 1.491 . S
C1012 H1003 0.950 . S
C1012 C1011 1.398 . S
C1012 C1013 1.391 . S
C1013 H1001 0.950 . S
C1013 C1009 1.393 . S
C1013 C1012 1.391 . S
C1014 H1004 0.950 . S
C1014 C1015 1.386 . S
C1014 C1016 1.391 . S
C1015 C1014 1.386 . S
C1015 C1019 1.393 . S
C1016 H1005 0.950 . S
C1016 C1014 1.391 . S
C1016 C1017 1.400 . S
C1017 C1011 1.491 . S
C1017 C1016 1.400 . S
C1017 C1018 1.398 . S
C1018 H1006 0.950 . S
C1018 C1017 1.398 . S
C1018 C1019 1.391 . S
C1019 H1007 0.950 . S
C1019 C1015 1.393 . S
C1019 C1018 1.391 . S
H1020 C1028 0.950 . S
H1021 C1033 0.950 . S
H1022 C1030 0.950 . S
H1023 C1032 0.950 . S
H1024 C1034 0.950 . S
H1025 C1036 0.950 . S
H1026 C1038 0.950 . S
H1027 C1039 0.950 . S
C1028 H1020 0.950 . S
C1028 C1029 1.386 . S
C1028 C1030 1.391 . S
C1029 C1028 1.386 . S
C1029 C1033 1.393 . S
C1030 H1022 0.950 . S
C1030 C1028 1.391 . S
C1030 C1031 1.400 . S
C1031 C1030 1.400 . S
C1031 C1032 1.398 . S
C1031 C1037 1.491 . S
C1032 H1023 0.950 . S
C1032 C1031 1.398 . S
C1032 C1033 1.391 . S
C1033 H1021 0.950 . S
C1033 C1029 1.393 . S
C1033 C1032 1.391 . S
C1034 H1024 0.950 . S
C1034 C1035 1.386 . S
C1034 C1036 1.391 . S
C1035 C1034 1.386 . S
C1035 C1039 1.393 . S
C1036 H1025 0.950 . S
C1036 C1034 1.391 . S
C1036 C1037 1.400 . S
C1037 C1031 1.491 . S
C1037 C1036 1.400 . S
C1037 C1038 1.398 . S
C1038 H1026 0.950 . S
C1038 C1037 1.398 . S
C1038 C1039 1.391 . S
C1039 H1027 0.950 . S
C1039 C1035 1.393 . S
C1039 C1038 1.391 . S
H1040 C1048 0.950 . S
H1041 C1053 0.950 . S
H1042 C1050 0.950 . S
H1043 C1052 0.950 . S
H1044 C1054 0.950 . S
H1045 C1056 0.950 . S
H1046 C1058 0.950 . S
H1047 C1059 0.950 . S
C1048 H1040 0.950 . S
C1048 C1049 1.386 . S
C1048 C1050 1.391 . S
C1049 C1048 1.386 . S
C1049 C1053 1.393 . S
C1050 H1042 0.950 . S
C1050 C1048 1.391 . S
C1050 C1051 1.400 . S
C1051 C1050 1.400 . S
C1051 C1052 1.398 . S
C1051 C1057 1.491 . S
C1052 H1043 0.950 . S
C1052 C1051 1.398 . S
C1052 C1053 1.391 . S
C1053 H1041 0.950 . S
C1053 C1049 1.393 . S
C1053 C1052 1.391 . S
C1054 H1044 0.950 . S
C1054 C1055 1.386 . S
C1054 C1056 1.391 . S
C1055 C1054 1.386 . S
C1055 C1059 1.393 . S
C1056 H1045 0.950 . S
C1056 C1054 1.391 . S
C1056 C1057 1.400 . S
C1057 C1051 1.491 . S
C1057 C1056 1.400 . S
C1057 C1058 1.398 . S
C1058 H1046 0.950 . S
C1058 C1057 1.398 . S
C1058 C1059 1.391 . S
C1059 H1047 0.950 . S
C1059 C1055 1.393 . S
C1059 C1058 1.391 . S
H1060 C1068 0.950 . S
H1061 C1073 0.950 . S
H1062 C1070 0.950 . S
H1063 C1072 0.950 . S
H1064 C1074 0.950 . S
H1065 C1076 0.950 . S
H1066 C1078 0.950 . S
H1067 C1079 0.950 . S
C1068 H1060 0.950 . S
C1068 C1069 1.386 . S
C1068 C1070 1.391 . S
C1069 C1068 1.386 . S
C1069 C1073 1.393 . S
C1070 H1062 0.950 . S
C1070 C1068 1.391 . S
C1070 C1071 1.400 . S
C1071 C1070 1.400 . S
C1071 C1072 1.398 . S
C1071 C1077 1.491 . S
C1072 H1063 0.950 . S
C1072 C1071 1.398 . S
C1072 C1073 1.391 . S
C1073 H1061 0.950 . S
C1073 C1069 1.393 . S
C1073 C1072 1.391 . S
C1074 H1064 0.950 . S
C1074 C1075 1.386 . S
C1074 C1076 1.391 . S
C1075 C1074 1.386 . S
C1075 C1079 1.393 . S
C1076 H1065 0.950 . S
C1076 C1074 1.391 . S
C1076 C1077 1.400 . S
C1077 C1071 1.491 . S
C1077 C1076 1.400 . S
C1077 C1078 1.398 . S
C1078 H1066 0.950 . S
C1078 C1077 1.398 . S
C1078 C1079 1.391 . S
C1079 H1067 0.950 . S
C1079 C1075 1.393 . S
C1079 C1078 1.391 . S
H1080 C1088 0.950 . S
H1081 C1093 0.950 . S
H1082 C1090 0.950 . S
H1083 C1092 0.950 . S
H1084 C1094 0.950 . S
H1085 C1096 0.950 . S
H1086 C1098 0.950 . S
H1087 C1099 0.949 . S
C1088 H1080 0.950 . S
C1088 C1089 1.386 . S
C1088 C1090 1.391 . S
C1089 C1088 1.386 . S
C1089 C1093 1.393 . S
C1090 H1082 0.950 . S
C1090 C1088 1.391 . S
C1090 C1091 1.400 . S
C1091 C1090 1.400 . S
C1091 C1092 1.398 . S
C1091 C1097 1.491 1_455 S
C1092 H1083 0.950 . S
C1092 C1091 1.398 . S
C1092 C1093 1.391 . S
C1093 H1081 0.950 . S
C1093 C1089 1.393 . S
C1093 C1092 1.391 . S
C1094 H1084 0.950 . S
C1094 C1095 1.386 . S
C1094 C1096 1.391 . S
C1095 C1094 1.386 . S
C1095 C1099 1.393 . S
C1096 H1085 0.950 . S
C1096 C1094 1.391 . S
C1096 C1097 1.400 . S
C1097 C1091 1.491 1_655 S
C1097 C1096 1.400 . S
C1097 C1098 1.398 . S
C1098 H1086 0.950 . S
C1098 C1097 1.398 . S
C1098 C1099 1.391 . S
C1099 H1087 0.949 . S
C1099 C1095 1.393 . S
C1099 C1098 1.391 . S
H1100 C1108 0.950 . S
H1101 C1113 0.950 . S
H1102 C1110 0.950 . S
H1103 C1112 0.950 . S
H1104 C1114 0.950 . S
H1105 C1116 0.950 . S
H1106 C1118 0.950 . S
H1107 C1119 0.950 . S
C1108 H1100 0.950 . S
C1108 C1109 1.386 . S
C1108 C1110 1.391 . S
C1109 C1108 1.386 . S
C1109 C1113 1.393 . S
C1110 H1102 0.950 . S
C1110 C1108 1.391 . S
C1110 C1111 1.400 . S
C1111 C1110 1.400 . S
C1111 C1112 1.398 . S
C1111 C1117 1.491 . S
C1112 H1103 0.950 . S
C1112 C1111 1.398 . S
C1112 C1113 1.391 . S
C1113 H1101 0.950 . S
C1113 C1109 1.393 . S
C1113 C1112 1.391 . S
C1114 H1104 0.950 . S
C1114 C1115 1.386 . S
C1114 C1116 1.391 . S
C1115 C1114 1.386 . S
C1115 C1119 1.393 . S
C1116 H1105 0.950 . S
C1116 C1114 1.391 . S
C1116 C1117 1.400 . S
C1117 C1111 1.491 . S
C1117 C1116 1.400 . S
C1117 C1118 1.398 . S
C1118 H1106 0.950 . S
C1118 C1117 1.398 . S
C1118 C1119 1.391 . S
C1119 H1107 0.950 . S
C1119 C1115 1.393 . S
C1119 C1118 1.391 . S
H1120 C1128 0.950 . S
H1121 C1133 0.950 . S
H1122 C1130 0.950 . S
H1123 C1132 0.950 . S
H1124 C1134 0.950 . S
H1125 C1136 0.950 . S
H1126 C1138 0.950 . S
H1127 C1139 0.950 . S
C1128 H1120 0.950 . S
C1128 C1129 1.386 . S
C1128 C1130 1.391 . S
C1129 C1128 1.386 . S
C1129 C1133 1.393 . S
C1130 H1122 0.950 . S
C1130 C1128 1.391 . S
C1130 C1131 1.400 . S
C1131 C1130 1.400 . S
C1131 C1132 1.398 . S
C1131 C1137 1.491 . S
C1132 H1123 0.950 . S
C1132 C1131 1.398 . S
C1132 C1133 1.391 . S
C1133 H1121 0.950 . S
C1133 C1129 1.393 . S
C1133 C1132 1.391 . S
C1134 H1124 0.950 . S
C1134 C1135 1.386 . S
C1134 C1136 1.391 . S
C1135 C1134 1.386 . S
C1135 C1139 1.393 . S
C1136 H1125 0.950 . S
C1136 C1134 1.391 . S
C1136 C1137 1.400 . S
C1137 C1131 1.491 . S
C1137 C1136 1.400 . S
C1137 C1138 1.398 . S
C1138 H1126 0.950 . S
C1138 C1137 1.398 . S
C1138 C1139 1.391 . S
C1139 H1127 0.950 . S
C1139 C1135 1.393 . S
C1139 C1138 1.391 . S
H1140 C1148 0.950 . S
H1141 C1153 0.950 . S
H1142 C1150 0.950 . S
H1143 C1152 0.950 . S
H1144 C1154 0.950 . S
H1145 C1156 0.950 . S
H1146 C1158 0.950 . S
H1147 C1159 0.950 . S
C1148 H1140 0.950 . S
C1148 C1149 1.386 . S
C1148 C1150 1.391 . S
C1149 C1148 1.386 . S
C1149 C1153 1.393 . S
C1150 H1142 0.950 . S
C1150 C1148 1.391 . S
C1150 C1151 1.400 . S
C1151 C1150 1.400 . S
C1151 C1152 1.398 . S
C1151 C1157 1.491 . S
C1152 H1143 0.950 . S
C1152 C1151 1.398 . S
C1152 C1153 1.391 . S
C1153 H1141 0.950 . S
C1153 C1149 1.393 . S
C1153 C1152 1.391 . S
C1154 H1144 0.950 . S
C1154 C1155 1.386 . S
C1154 C1156 1.391 . S
C1155 C1154 1.386 . S
C1155 C1159 1.393 . S
C1156 H1145 0.950 . S
C1156 C1154 1.391 . S
C1156 C1157 1.400 . S
C1157 C1151 1.491 . S
C1157 C1156 1.400 . S
C1157 C1158 1.398 . S
C1158 H1146 0.950 . S
C1158 C1157 1.398 . S
C1158 C1159 1.391 . S
C1159 H1147 0.950 . S
C1159 C1155 1.393 . S
C1159 C1158 1.391 . S
H1160 C1168 0.950 . S
H1161 C1173 0.950 . S
H1162 C1170 0.950 . S
H1163 C1172 0.950 . S
H1164 C1174 0.950 . S
H1165 C1176 0.950 . S
H1166 C1178 0.950 . S
H1167 C1179 0.950 . S
C1168 H1160 0.950 . S
C1168 C1169 1.386 . S
C1168 C1170 1.391 . S
C1169 C1168 1.386 . S
C1169 C1173 1.393 . S
C1170 H1162 0.950 . S
C1170 C1168 1.391 . S
C1170 C1171 1.400 . S
C1171 C1170 1.400 . S
C1171 C1172 1.398 . S
C1171 C1177 1.491 . S
C1172 H1163 0.950 . S
C1172 C1171 1.398 . S
C1172 C1173 1.391 . S
C1173 H1161 0.950 . S
C1173 C1169 1.393 . S
C1173 C1172 1.391 . S
C1174 H1164 0.950 . S
C1174 C1175 1.386 . S
C1174 C1176 1.391 . S
C1175 C1174 1.386 . S
C1175 C1179 1.393 . S
C1176 H1165 0.950 . S
C1176 C1174 1.391 . S
C1176 C1177 1.400 . S
C1177 C1171 1.491 . S
C1177 C1176 1.400 . S
C1177 C1178 1.398 . S
C1178 H1166 0.950 . S
C1178 C1177 1.398 . S
C1178 C1179 1.391 . S
C1179 H1167 0.950 . S
C1179 C1175 1.393 . S
C1179 C1178 1.391 . S
H1180 C1188 0.950 . S
H1181 C1193 0.950 . S
H1182 C1190 0.950 . S
H1183 C1192 0.950 . S
H1184 C1194 0.950 . S
H1185 C1196 0.950 . S
H1186 C1198 0.950 . S
H1187 C1199 0.950 . S
C1188 H1180 0.950 . S
C1188 C1189 1.386 . S
C1188 C1190 1.391 . S
C1189 C1188 1.386 . S
C1189 C1193 1.393 . S
C1190 H1182 0.950 . S
C1190 C1188 1.391 . S
C1190 C1191 1.400 . S
C1191 C1190 1.400 . S
C1191 C1192 1.398 . S
C1191 C1197 1.491 . S
C1192 H1183 0.950 . S
C1192 C1191 1.398 . S
C1192 C1193 1.391 . S
C1193 H1181 0.950 . S
C1193 C1189 1.393 . S
C1193 C1192 1.391 . S
C1194 H1184 0.950 . S
C1194 C1195 1.386 . S
C1194 C1196 1.391 1_455 S
C1195 C1194 1.386 . S
C1195 C1199 1.393 . S
C1196 H1185 0.950 . S
C1196 C1194 1.391 1_655 S
C1196 C1197 1.400 . S
C1197 C1191 1.491 . S
C1197 C1196 1.400 . S
C1197 C1198 1.398 1_655 S
C1198 H1186 0.950 . S
C1198 C1197 1.398 1_455 S
C1198 C1199 1.391 . S
C1199 H1187 0.950 . S
C1199 C1195 1.393 . S
C1199 C1198 1.391 . S
C489 C19 1.044 . S
C495 C459 1.048 . S
C509 C371 1.658 . S
C515 C59 1.738 . S
C529 C91 1.268 . S
C535 C339 1.329 . S
C549 C139 2.022 . S
C555 C419 2.006 . S
C569 C179 1.674 . S
C575 C411 1.612 . S
C589 C211 1.447 . S
C595 C451 1.495 . S
C609 C379 1.808 . S
C615 C259 1.796 . S
C629 C291 1.685 . S
C635 C331 1.731 . S
C649 C131 1.733 . S
C655 C171 1.794 . S
C669 C11 1.553 . S
C675 C219 1.628 . S
C689 C51 1.625 . S
C695 C251 1.630 . S
C709 C299 1.878 . S
C715 C99 1.875 . S
C729 C7 1.588 . S
C735 C330 1.483 . S
C749 C47 1.823 . S
C755 C410 1.737 . S
C769 C450 1.934 . S
C775 C96 1.942 . S
C789 C127 1.557 . S
C795 C362 1.523 . S
C809 C167 1.237 . S
C815 C370 1.186 . S
C829 C322 1.933 . S
C835 C216 1.858 . S
C849 C402 1.375 . S
C855 C247 1.378 . S
C869 C442 2.662 . S
C875 C296 2.569 . S
C889 C2 2.745 . S
C895 C136 2.642 . S
C909 C16 1.977 . S
C915 C42 2.049 . S
C929 C56 2.266 . S
C935 C90 2.254 . S
C949 C122 1.703 . S
C955 C87 1.732 . S
C969 C207 1.475 . S
C975 C162 1.453 . S
C989 C210 1.281 . S
C995 C256 1.318 . S
C1009 C242 1.481 . S
C1015 C287 1.504 . S
C1029 C176 0.841 . S
C1035 C290 0.828 . S
C1049 C336 0.810 . S
C1055 C130 0.810 . S
C1069 C202 1.667 . S
C1075 C376 1.610 . S
C1089 C327 1.373 . S
C1095 C250 1.309 . S
C1109 C407 1.830 . S
C1115 C282 1.805 . S
C1129 C170 1.252 . S
C1135 C447 1.327 . S
C1149 C456 1.680 . S
C1155 C50 1.644 . S
C1169 C82 1.524 . S
C1175 C367 1.545 . S
C1189 C416 1.769 . S
C1195 C10 1.756 . S
