# Generated by pormake.
# Topology sxg, (6)-cn, num edge types: 1
# Building blocks:
#     Node 0, Type 0, BuildingBlock: KUMBUR_clean_sbu_0, # of connection points: 6
#     Node 1, Type 0, BuildingBlock: KUMBUR_clean_sbu_0, # of connection points: 6
#     Node 2, Type 0, BuildingBlock: KUMBUR_clean_sbu_0, # of connection points: 6
#     Node 3, Type 0, BuildingBlock: KUMBUR_clean_sbu_0, # of connection points: 6
#     Node 4, Type 0, BuildingBlock: KUMBUR_clean_sbu_0, # of connection points: 6
#     Node 5, Type 0, BuildingBlock: KUMBUR_clean_sbu_0, # of connection points: 6
#     Node 6, Type 0, BuildingBlock: KUMBUR_clean_sbu_0, # of connection points: 6
#     Node 7, Type 0, BuildingBlock: KUMBUR_clean_sbu_0, # of connection points: 6
#     Node 8, Type 0, BuildingBlock: KUMBUR_clean_sbu_0, # of connection points: 6
#     Node 9, Type 0, BuildingBlock: KUMBUR_clean_sbu_0, # of connection points: 6
#     Node 10, Type 0, BuildingBlock: KUMBUR_clean_sbu_0, # of connection points: 6
#     Node 11, Type 0, BuildingBlock: KUMBUR_clean_sbu_0, # of connection points: 6
#     Node 12, Type 0, BuildingBlock: KUMBUR_clean_sbu_0, # of connection points: 6
#     Node 13, Type 0, BuildingBlock: KUMBUR_clean_sbu_0, # of connection points: 6
#     Node 14, Type 0, BuildingBlock: KUMBUR_clean_sbu_0, # of connection points: 6
#     Node 15, Type 0, BuildingBlock: KUMBUR_clean_sbu_0, # of connection points: 6
#     Node 16, Type 0, BuildingBlock: KUMBUR_clean_sbu_0, # of connection points: 6
#     Node 17, Type 0, BuildingBlock: KUMBUR_clean_sbu_0, # of connection points: 6
#     Node 18, Type 0, BuildingBlock: KUMBUR_clean_sbu_0, # of connection points: 6
#     Node 19, Type 0, BuildingBlock: KUMBUR_clean_sbu_0, # of connection points: 6
#     Node 20, Type 0, BuildingBlock: KUMBUR_clean_sbu_0, # of connection points: 6
#     Node 21, Type 0, BuildingBlock: KUMBUR_clean_sbu_0, # of connection points: 6
#     Node 22, Type 0, BuildingBlock: KUMBUR_clean_sbu_0, # of connection points: 6
#     Node 23, Type 0, BuildingBlock: KUMBUR_clean_sbu_0, # of connection points: 6
#     Edge 24, Type (0, 0), BuildingBlock: XIVTED_clean_linker_0, # of connection points: 2
#     Edge 25, Type (0, 0), BuildingBlock: XIVTED_clean_linker_0, # of connection points: 2
#     Edge 26, Type (0, 0), BuildingBlock: XIVTED_clean_linker_0, # of connection points: 2
#     Edge 27, Type (0, 0), BuildingBlock: XIVTED_clean_linker_0, # of connection points: 2
#     Edge 28, Type (0, 0), BuildingBlock: XIVTED_clean_linker_0, # of connection points: 2
#     Edge 29, Type (0, 0), BuildingBlock: XIVTED_clean_linker_0, # of connection points: 2
#     Edge 30, Type (0, 0), BuildingBlock: XIVTED_clean_linker_0, # of connection points: 2
#     Edge 31, Type (0, 0), BuildingBlock: XIVTED_clean_linker_0, # of connection points: 2
#     Edge 32, Type (0, 0), BuildingBlock: XIVTED_clean_linker_0, # of connection points: 2
#     Edge 33, Type (0, 0), BuildingBlock: XIVTED_clean_linker_0, # of connection points: 2
#     Edge 34, Type (0, 0), BuildingBlock: XIVTED_clean_linker_0, # of connection points: 2
#     Edge 35, Type (0, 0), BuildingBlock: XIVTED_clean_linker_0, # of connection points: 2
#     Edge 36, Type (0, 0), BuildingBlock: XIVTED_clean_linker_0, # of connection points: 2
#     Edge 37, Type (0, 0), BuildingBlock: XIVTED_clean_linker_0, # of connection points: 2
#     Edge 38, Type (0, 0), BuildingBlock: XIVTED_clean_linker_0, # of connection points: 2
#     Edge 39, Type (0, 0), BuildingBlock: XIVTED_clean_linker_0, # of connection points: 2
#     Edge 40, Type (0, 0), BuildingBlock: XIVTED_clean_linker_0, # of connection points: 2
#     Edge 41, Type (0, 0), BuildingBlock: XIVTED_clean_linker_0, # of connection points: 2
#     Edge 42, Type (0, 0), BuildingBlock: XIVTED_clean_linker_0, # of connection points: 2
#     Edge 43, Type (0, 0), BuildingBlock: XIVTED_clean_linker_0, # of connection points: 2
#     Edge 44, Type (0, 0), BuildingBlock: XIVTED_clean_linker_0, # of connection points: 2
#     Edge 45, Type (0, 0), BuildingBlock: XIVTED_clean_linker_0, # of connection points: 2
#     Edge 46, Type (0, 0), BuildingBlock: XIVTED_clean_linker_0, # of connection points: 2
#     Edge 47, Type (0, 0), BuildingBlock: XIVTED_clean_linker_0, # of connection points: 2
#     Edge 48, Type (0, 0), BuildingBlock: XIVTED_clean_linker_0, # of connection points: 2
#     Edge 49, Type (0, 0), BuildingBlock: XIVTED_clean_linker_0, # of connection points: 2
#     Edge 50, Type (0, 0), BuildingBlock: XIVTED_clean_linker_0, # of connection points: 2
#     Edge 51, Type (0, 0), BuildingBlock: XIVTED_clean_linker_0, # of connection points: 2
#     Edge 52, Type (0, 0), BuildingBlock: XIVTED_clean_linker_0, # of connection points: 2
#     Edge 53, Type (0, 0), BuildingBlock: XIVTED_clean_linker_0, # of connection points: 2
#     Edge 54, Type (0, 0), BuildingBlock: XIVTED_clean_linker_0, # of connection points: 2
#     Edge 55, Type (0, 0), BuildingBlock: XIVTED_clean_linker_0, # of connection points: 2
#     Edge 56, Type (0, 0), BuildingBlock: XIVTED_clean_linker_0, # of connection points: 2
#     Edge 57, Type (0, 0), BuildingBlock: XIVTED_clean_linker_0, # of connection points: 2
#     Edge 58, Type (0, 0), BuildingBlock: XIVTED_clean_linker_0, # of connection points: 2
#     Edge 59, Type (0, 0), BuildingBlock: XIVTED_clean_linker_0, # of connection points: 2
#     Edge 60, Type (0, 0), BuildingBlock: XIVTED_clean_linker_0, # of connection points: 2
#     Edge 61, Type (0, 0), BuildingBlock: XIVTED_clean_linker_0, # of connection points: 2
#     Edge 62, Type (0, 0), BuildingBlock: XIVTED_clean_linker_0, # of connection points: 2
#     Edge 63, Type (0, 0), BuildingBlock: XIVTED_clean_linker_0, # of connection points: 2
#     Edge 64, Type (0, 0), BuildingBlock: XIVTED_clean_linker_0, # of connection points: 2
#     Edge 65, Type (0, 0), BuildingBlock: XIVTED_clean_linker_0, # of connection points: 2
#     Edge 66, Type (0, 0), BuildingBlock: XIVTED_clean_linker_0, # of connection points: 2
#     Edge 67, Type (0, 0), BuildingBlock: XIVTED_clean_linker_0, # of connection points: 2
#     Edge 68, Type (0, 0), BuildingBlock: XIVTED_clean_linker_0, # of connection points: 2
#     Edge 69, Type (0, 0), BuildingBlock: XIVTED_clean_linker_0, # of connection points: 2
#     Edge 70, Type (0, 0), BuildingBlock: XIVTED_clean_linker_0, # of connection points: 2
#     Edge 71, Type (0, 0), BuildingBlock: XIVTED_clean_linker_0, # of connection points: 2
#     Edge 72, Type (0, 0), BuildingBlock: XIVTED_clean_linker_0, # of connection points: 2
#     Edge 73, Type (0, 0), BuildingBlock: XIVTED_clean_linker_0, # of connection points: 2
#     Edge 74, Type (0, 0), BuildingBlock: XIVTED_clean_linker_0, # of connection points: 2
#     Edge 75, Type (0, 0), BuildingBlock: XIVTED_clean_linker_0, # of connection points: 2
#     Edge 76, Type (0, 0), BuildingBlock: XIVTED_clean_linker_0, # of connection points: 2
#     Edge 77, Type (0, 0), BuildingBlock: XIVTED_clean_linker_0, # of connection points: 2
#     Edge 78, Type (0, 0), BuildingBlock: XIVTED_clean_linker_0, # of connection points: 2
#     Edge 79, Type (0, 0), BuildingBlock: XIVTED_clean_linker_0, # of connection points: 2
#     Edge 80, Type (0, 0), BuildingBlock: XIVTED_clean_linker_0, # of connection points: 2
#     Edge 81, Type (0, 0), BuildingBlock: XIVTED_clean_linker_0, # of connection points: 2
#     Edge 82, Type (0, 0), BuildingBlock: XIVTED_clean_linker_0, # of connection points: 2
#     Edge 83, Type (0, 0), BuildingBlock: XIVTED_clean_linker_0, # of connection points: 2
#     Edge 84, Type (0, 0), BuildingBlock: XIVTED_clean_linker_0, # of connection points: 2
#     Edge 85, Type (0, 0), BuildingBlock: XIVTED_clean_linker_0, # of connection points: 2
#     Edge 86, Type (0, 0), BuildingBlock: XIVTED_clean_linker_0, # of connection points: 2
#     Edge 87, Type (0, 0), BuildingBlock: XIVTED_clean_linker_0, # of connection points: 2
#     Edge 88, Type (0, 0), BuildingBlock: XIVTED_clean_linker_0, # of connection points: 2
#     Edge 89, Type (0, 0), BuildingBlock: XIVTED_clean_linker_0, # of connection points: 2
#     Edge 90, Type (0, 0), BuildingBlock: XIVTED_clean_linker_0, # of connection points: 2
#     Edge 91, Type (0, 0), BuildingBlock: XIVTED_clean_linker_0, # of connection points: 2
#     Edge 92, Type (0, 0), BuildingBlock: XIVTED_clean_linker_0, # of connection points: 2
#     Edge 93, Type (0, 0), BuildingBlock: XIVTED_clean_linker_0, # of connection points: 2
#     Edge 94, Type (0, 0), BuildingBlock: XIVTED_clean_linker_0, # of connection points: 2
#     Edge 95, Type (0, 0), BuildingBlock: XIVTED_clean_linker_0, # of connection points: 2
# Relax obj value: 0.123
# Max RMSD: 0.247
# Mean RMSD: 0.247
data_MOF--net-sxg--node1-KUMBUR_clean_sbu_0--edge1-XIVTED_clean_linker_0
_symmetry_space_group_name_H-M    P1
_symmetry_Int_Tables_number       1
_symmetry_cell_setting            triclinic
loop_
_symmetry_equiv_pos_as_xyz
'x, y, z'
_cell_length_a     51.636468
_cell_length_b     51.725512
_cell_length_c     51.678475
_cell_angle_alpha  90.001714
_cell_angle_beta   89.998377
_cell_angle_gamma 89.983017
loop_
_atom_site_label
_atom_site_type_symbol
_atom_site_fract_x
_atom_site_fract_y
_atom_site_fract_z
_atom_type_partial_charge
Tb0 Tb 0.04738 0.38733 0.27597 0.0
C1 C 0.0345 0.3021 0.34579 0.0
C2 C 0.03703 0.32535 0.3863 0.0
C3 C 1.00784 0.28886 0.38241 0.0
C4 C 0.0448 0.32192 0.36027 0.0
C5 C 1.01629 0.28495 0.3569 0.0
C6 C 1.0182 0.30906 0.39707 0.0
C7 C 1.01743 0.26014 0.31754 0.0
N8 N 0.04271 0.29923 0.32103 0.0
C9 C 0.03554 0.27752 0.30747 0.0
C10 C 1.00737 0.26413 0.3422 0.0
Tb11 Tb 0.07226 0.3293 0.30584 0.0
N12 N 0.06237 0.33788 0.34891 0.0
C13 C 0.07408 0.35665 0.3636 0.0
C14 C 0.04826 0.34517 0.40075 0.0
C15 C 0.06705 0.3607 0.38939 0.0
H16 H 0.04395 0.27309 0.28884 0.0
H17 H 0.07631 0.37578 0.40057 0.0
H18 H 1.01165 0.31191 0.41676 0.0
H19 H 1.01153 0.24345 0.30637 0.0
H20 H 0.08923 0.36864 0.35632 0.0
H21 H 0.07913 0.37523 0.17684 0.0
H22 H 0.04279 0.34844 0.42073 0.0
H23 H 0.04348 0.44123 0.3106 0.0
H24 H 0.05432 0.36436 0.21588 0.0
H25 H 0.06348 0.48467 0.31068 0.0
H26 H 0.99354 0.27621 0.39105 0.0
H27 H 0.10713 0.41402 0.17618 0.0
H28 H 0.12192 0.45473 0.19837 0.0
H29 H 0.99342 0.25058 0.35003 0.0
H30 H 0.1175 0.48487 0.23501 0.0
N31 N 0.06877 0.39608 0.23799 0.0
C32 C 0.06636 0.38138 0.2161 0.0
C33 C 0.09633 0.40929 0.19352 0.0
C34 C 0.09702 0.42546 0.2152 0.0
C35 C 0.08046 0.38746 0.19378 0.0
C36 C 0.08265 0.41833 0.23728 0.0
H37 H 0.09483 0.49661 0.27648 0.0
N38 N 0.06442 0.42832 0.27751 0.0
C39 C 0.06858 0.47083 0.29583 0.0
C40 C 0.08031 0.43517 0.25778 0.0
C41 C 0.05723 0.44627 0.29567 0.0
C42 C 0.08642 0.47744 0.27661 0.0
C43 C 0.09208 0.45973 0.25695 0.0
O44 O 1.01267 0.40697 0.28502 0.0
O45 O 0.03957 0.35562 0.30278 0.0
O46 O 0.04577 0.31595 0.27462 0.0
O47 O 0.03153 0.35433 0.25515 0.0
O48 O 0.03113 0.39253 0.31464 0.0
O49 O 1.02051 0.39513 0.24616 0.0
O50 O 0.08901 0.29189 0.30436 0.0
O51 O 0.07852 0.35841 0.27636 0.0
O52 O 0.07949 0.40062 0.29962 0.0
O53 O 0.09953 0.36245 0.31364 0.0
O54 O 0.08743 0.32072 0.26752 0.0
O55 O 0.10856 0.3229 0.32336 0.0
C56 C 0.02916 0.36855 0.32083 0.0
C57 C 0.99488 0.43291 0.25208 0.0
C58 C 0.9592 0.46403 0.24753 0.0
C59 C 0.96844 0.43938 0.25499 0.0
C60 C 0.97686 0.48193 0.23709 0.0
C61 C 1.01185 0.45104 0.24116 0.0
C62 C 1.00289 0.4754 0.23386 0.0
C63 C 0.03201 0.3289 0.25712 0.0
C64 C 1.00467 0.40763 0.26125 0.0
C65 C 0.10796 0.46623 0.23586 0.0
C66 C 0.11047 0.44907 0.21501 0.0
C67 C 0.08808 0.34403 0.25872 0.0
C68 C 0.11536 0.28076 0.34053 0.0
C69 C 0.13245 0.25947 0.33741 0.0
C70 C 0.13955 0.2439 0.35894 0.0
C71 C 0.12865 0.24963 0.38323 0.0
C72 C 0.1053 0.28592 0.36521 0.0
C73 C 0.11171 0.27038 0.38626 0.0
C74 C 0.09826 0.38826 0.31165 0.0
C75 C 0.10882 0.29819 0.3185 0.0
H76 H 0.9552 0.42542 0.26334 0.0
H77 H 0.97041 0.50086 0.23086 0.0
H78 H 0.03202 0.44641 0.23825 0.0
H79 H 1.01618 0.48928 0.22552 0.0
H80 H 0.14065 0.25547 0.31853 0.0
H81 H 0.13311 0.2379 0.40001 0.0
H82 H 0.09274 0.30221 0.36844 0.0
H83 H 0.10364 0.27458 0.40513 0.0
Tb84 Tb 0.49256 0.65237 0.77598 0.0
C85 C 0.50429 0.73922 0.84453 0.0
C86 C 0.50256 0.71643 0.88534 0.0
C87 C 0.53074 0.75364 0.88084 0.0
C88 C 0.49456 0.71934 0.85933 0.0
C89 C 0.52211 0.75696 0.85531 0.0
C90 C 0.52098 0.73337 0.89582 0.0
C91 C 0.5202 0.78116 0.8156 0.0
N92 N 0.49589 0.74153 0.81977 0.0
C93 C 0.50248 0.7632 0.80587 0.0
C94 C 0.53045 0.77778 0.84027 0.0
Tb95 Tb 0.46697 0.71058 0.80515 0.0
N96 N 0.47731 0.70283 0.84827 0.0
C97 C 0.46626 0.68387 0.86321 0.0
C98 C 0.49193 0.6965 0.90009 0.0
C99 C 0.47353 0.68032 0.88901 0.0
H100 H 0.49393 0.7671 0.78718 0.0
H101 H 0.46478 0.66508 0.9004 0.0
H102 H 0.52766 0.73101 0.91554 0.0
H103 H 0.52566 0.79781 0.80415 0.0
H104 H 0.45153 0.67127 0.85608 0.0
H105 H 0.46067 0.6625 0.67669 0.0
H106 H 0.49759 0.69362 0.92008 0.0
H107 H 0.49671 0.59928 0.81185 0.0
H108 H 0.48521 0.67439 0.71558 0.0
H109 H 0.47725 0.55561 0.81265 0.0
H110 H 0.54472 0.76679 0.88926 0.0
H111 H 0.43344 0.62317 0.67653 0.0
H112 H 0.41931 0.58256 0.69931 0.0
H113 H 0.54411 0.79178 0.84784 0.0
H114 H 0.424 0.55314 0.73648 0.0
N115 N 0.47136 0.64271 0.73813 0.0
C116 C 0.4735 0.65716 0.71604 0.0
C117 C 0.44411 0.62835 0.69382 0.0
C118 C 0.44368 0.6125 0.71573 0.0
C119 C 0.45955 0.65049 0.6938 0.0
C120 C 0.45787 0.62021 0.73773 0.0
H121 H 0.44645 0.54254 0.77837 0.0
N122 N 0.47598 0.61123 0.77827 0.0
C123 C 0.47214 0.56907 0.79745 0.0
C124 C 0.46035 0.60377 0.75855 0.0
C125 C 0.48318 0.59375 0.79689 0.0
C126 C 0.4546 0.56182 0.77819 0.0
C127 C 0.44891 0.57905 0.75811 0.0
O128 O 0.5274 0.63309 0.78531 0.0
O129 O 0.49985 0.68453 0.8023 0.0
O130 O 0.49364 0.72373 0.77399 0.0
O131 O 0.50787 0.68529 0.75461 0.0
O132 O 0.50916 0.64807 0.81467 0.0
O133 O 0.51965 0.64463 0.74634 0.0
O134 O 0.44942 0.74758 0.80274 0.0
O135 O 0.46114 0.68101 0.77603 0.0
O136 O 0.4604 0.63912 0.79955 0.0
O137 O 0.44015 0.6772 0.8136 0.0
O138 O 0.45175 0.71846 0.76672 0.0
O139 O 0.43075 0.71678 0.82293 0.0
C140 C 0.51065 0.67218 0.82049 0.0
C141 C 0.54561 0.60709 0.75259 0.0
C142 C 0.58157 0.57623 0.74823 0.0
C143 C 0.57212 0.60085 0.75554 0.0
C144 C 0.56405 0.55813 0.73789 0.0
C145 C 0.52881 0.58875 0.74178 0.0
C146 C 0.53797 0.56443 0.73461 0.0
C147 C 0.50734 0.71074 0.75646 0.0
C148 C 0.53554 0.63236 0.76158 0.0
C149 C 0.43327 0.57192 0.73705 0.0
C150 C 0.43061 0.58867 0.71588 0.0
C151 C 0.45144 0.69504 0.7582 0.0
C152 C 0.42339 0.7593 0.83898 0.0
C153 C 0.4063 0.78053 0.83537 0.0
C154 C 0.39927 0.79668 0.85651 0.0
C155 C 0.41024 0.79154 0.8809 0.0
C156 C 0.43351 0.75477 0.86376 0.0
C157 C 0.42716 0.77085 0.88442 0.0
C158 C 0.44161 0.65139 0.81164 0.0
C159 C 0.42995 0.74133 0.81736 0.0
H160 H 0.58524 0.61497 0.7638 0.0
H161 H 0.57065 0.53922 0.73177 0.0
H162 H 0.50859 0.59318 0.73885 0.0
H163 H 0.5248 0.55039 0.72636 0.0
H164 H 0.39808 0.78404 0.8164 0.0
H165 H 0.40589 0.80372 0.89739 0.0
H166 H 0.44611 0.73856 0.86736 0.0
H167 H 0.43528 0.76713 0.90337 0.0
Tb168 Tb 0.54813 0.15339 0.76586 0.0
C169 C 0.53562 0.2419 0.69807 0.0
C170 C 0.53609 0.21955 0.65699 0.0
C171 C 0.50912 0.25756 0.66229 0.0
C172 C 0.54453 0.22193 0.68292 0.0
C173 C 0.51819 0.26031 0.68775 0.0
C174 C 0.51805 0.23717 0.64696 0.0
C175 C 0.52137 0.28395 0.72773 0.0
N176 N 0.54446 0.24368 0.7227 0.0
C177 C 0.53866 0.26534 0.73699 0.0
C178 C 0.5107 0.2812 0.70314 0.0
Tb179 Tb 0.57279 0.21182 0.73652 0.0
N180 N 0.56141 0.20477 0.69355 0.0
C181 C 0.57153 0.18552 0.67833 0.0
C182 C 0.5459 0.19946 0.64188 0.0
C183 C 0.56386 0.18252 0.65257 0.0
H184 H 0.54751 0.26863 0.75567 0.0
H185 H 0.57187 0.16705 0.64094 0.0
H186 H 0.51103 0.23523 0.62732 0.0
H187 H 0.51653 0.3006 0.73947 0.0
H188 H 0.58565 0.17214 0.68528 0.0
H189 H 0.58222 0.163 0.86443 0.0
H190 H 0.53989 0.19698 0.62195 0.0
H191 H 0.54305 0.10042 0.72998 0.0
H192 H 0.55672 0.175 0.82614 0.0
H193 H 0.56223 0.05664 0.7287 0.0
H194 H 0.49547 0.27126 0.6542 0.0
H195 H 0.60969 0.12383 0.86371 0.0
H196 H 0.62323 0.08326 0.84049 0.0
H197 H 0.49738 0.2957 0.69594 0.0
H198 H 0.6174 0.05386 0.80348 0.0
N199 N 0.5704 0.14364 0.80307 0.0
C200 C 0.56861 0.15788 0.82531 0.0
C201 C 0.59866 0.12911 0.84667 0.0
C202 C 0.59865 0.11337 0.82468 0.0
C203 C 0.58308 0.15114 0.8472 0.0
C204 C 0.58395 0.12117 0.80303 0.0
H205 H 0.59373 0.04335 0.76225 0.0
N206 N 0.56468 0.11226 0.76303 0.0
C207 C 0.56783 0.07008 0.74375 0.0
C208 C 0.58083 0.10473 0.78231 0.0
C209 C 0.55695 0.09484 0.74457 0.0
C210 C 0.58577 0.06272 0.76258 0.0
C211 C 0.59213 0.07994 0.78246 0.0
O212 O 0.51294 0.13446 0.75719 0.0
O213 O 0.54031 0.1854 0.73953 0.0
O214 O 0.54555 0.22457 0.76741 0.0
O215 O 0.53281 0.18604 0.78761 0.0
O216 O 0.53105 0.14883 0.72741 0.0
O217 O 0.52193 0.14508 0.79615 0.0
O218 O 0.59106 0.24848 0.7388 0.0
O219 O 0.5793 0.18232 0.76557 0.0
O220 O 0.57995 0.14031 0.74181 0.0
O221 O 0.59944 0.17853 0.72711 0.0
O222 O 0.58755 0.21994 0.77508 0.0
O223 O 0.60902 0.21731 0.71855 0.0
C224 C 0.52945 0.1729 0.72149 0.0
C225 C 0.49563 0.10781 0.78981 0.0
C226 C 0.45974 0.07688 0.79404 0.0
C227 C 0.46909 0.10163 0.78708 0.0
C228 C 0.47738 0.05859 0.80381 0.0
C229 C 0.51258 0.08926 0.80004 0.0
C230 C 0.50351 0.06481 0.80687 0.0
C231 C 0.53248 0.21145 0.78532 0.0
C232 C 0.50554 0.13323 0.78113 0.0
C233 C 0.60827 0.07272 0.80312 0.0
C234 C 0.61159 0.08946 0.82419 0.0
C235 C 0.58852 0.19652 0.78352 0.0
C236 C 0.61668 0.25957 0.70208 0.0
C237 C 0.63371 0.28088 0.70533 0.0
C238 C 0.64068 0.29667 0.6839 0.0
C239 C 0.62969 0.29114 0.65961 0.0
C240 C 0.60655 0.25462 0.67737 0.0
C241 C 0.61281 0.27038 0.65645 0.0
C242 C 0.5983 0.15272 0.72922 0.0
C243 C 0.61023 0.24188 0.72395 0.0
H244 H 0.45587 0.11591 0.77925 0.0
H245 H 0.47087 0.03956 0.80965 0.0
H246 H 0.53284 0.09363 0.80279 0.0
H247 H 0.51679 0.05061 0.81467 0.0
H248 H 0.64197 0.28473 0.72421 0.0
H249 H 0.63404 0.30304 0.64292 0.0
H250 H 0.59405 0.2383 0.67401 0.0
H251 H 0.60468 0.26633 0.63757 0.0
Tb252 Tb 0.99266 0.88769 0.26507 0.0
C253 C 1.00515 0.80206 0.19565 0.0
C254 C 1.00337 0.82536 0.15514 0.0
C255 C 0.03212 0.78855 0.15936 0.0
C256 C 0.99525 0.822 0.18107 0.0
C257 C 0.02328 0.78469 0.18475 0.0
C258 C 0.02219 0.80889 0.1446 0.0
C259 C 0.02128 0.75982 0.22403 0.0
N260 N 0.9966 0.79927 0.2203 0.0
C261 C 1.00329 0.77744 0.2339 0.0
C262 C 0.03173 0.76372 0.19952 0.0
Tb263 Tb 0.96748 0.82986 0.23531 0.0
N264 N 0.97767 0.83809 0.19222 0.0
C265 C 0.96617 0.85685 0.17734 0.0
C266 C 0.99244 0.84524 0.14055 0.0
C267 C 0.97355 0.86084 0.15163 0.0
H268 H 0.99466 0.7732 0.25248 0.0
H269 H 0.96445 0.87593 0.14031 0.0
H270 H 0.02903 0.81169 0.125 0.0
H271 H 0.02683 0.74304 0.23526 0.0
H272 H 0.95088 0.86883 0.18437 0.0
H273 H 0.95852 0.87734 0.36353 0.0
H274 H 0.99817 0.84846 0.12063 0.0
H275 H 0.99831 0.94117 0.23001 0.0
H276 H 0.98408 0.86566 0.32515 0.0
H277 H 0.97919 0.98498 0.22909 0.0
H278 H 0.04641 0.77576 0.1509 0.0
H279 H 0.93095 0.91645 0.36306 0.0
H280 H 0.91743 0.95721 0.34015 0.0
H281 H 0.04561 0.75 0.19185 0.0
H282 H 0.92343 0.98697 0.30346 0.0
N283 N 0.97034 0.89716 0.30232 0.0
C284 C 0.97216 0.88276 0.32446 0.0
C285 C 0.94202 0.91132 0.346 0.0
C286 C 0.94204 0.92724 0.32413 0.0
C287 C 0.95766 0.88932 0.34638 0.0
C288 C 0.95678 0.91962 0.30245 0.0
H289 H 0.94737 0.9979 0.26248 0.0
N290 N 0.97632 0.92895 0.26269 0.0
C291 C 0.97343 0.97137 0.24391 0.0
C292 C 0.96002 0.93626 0.28191 0.0
C293 C 0.98427 0.94658 0.24453 0.0
C294 C 0.9553 0.97852 0.26265 0.0
C295 C 0.94876 0.96108 0.28228 0.0
O296 O 0.02802 0.9064 0.25659 0.0
O297 O 1.00037 0.85585 0.23844 0.0
O298 O 0.99434 0.81648 0.26621 0.0
O299 O 1.00792 0.85472 0.28637 0.0
O300 O 1.0094 0.89256 0.22656 0.0
O301 O 1.01881 0.89572 0.29546 0.0
O302 O 0.95014 0.79276 0.23735 0.0
O303 O 0.96115 0.85909 0.26471 0.0
O304 O 0.96128 0.90126 0.24077 0.0
O305 O 0.94062 0.86332 0.22712 0.0
O306 O 0.95279 0.82141 0.27382 0.0
O307 O 0.93119 0.82369 0.21766 0.0
C308 C 1.01108 0.86856 0.22042 0.0
C309 C 0.04513 0.933 0.28935 0.0
C310 C 0.0808 0.96417 0.29341 0.0
C311 C 0.0716 0.93939 0.28641 0.0
C312 C 0.06312 0.98228 0.30345 0.0
C313 C 0.02814 0.95135 0.29989 0.0
C314 C 0.03709 0.97584 0.30676 0.0
C315 C 1.00778 0.82931 0.28403 0.0
C316 C 0.0353 0.90759 0.28056 0.0
C317 C 0.93253 0.9681 0.30293 0.0
C318 C 0.92911 0.95115 0.32382 0.0
C319 C 0.95192 0.84473 0.28254 0.0
C320 C 0.92399 0.78135 0.20114 0.0
C321 C 0.90668 0.76027 0.20446 0.0
C322 C 0.89965 0.74439 0.18313 0.0
C323 C 0.91081 0.74963 0.15885 0.0
C324 C 0.93435 0.78598 0.17648 0.0
C325 C 0.92797 0.77016 0.15563 0.0
C326 C 0.94236 0.88913 0.22881 0.0
C327 C 0.93055 0.79907 0.22294 0.0
H328 H 0.08487 0.92527 0.27838 0.0
H329 H 0.06956 1.00133 0.30931 0.0
H330 H 1.00795 0.94681 0.30283 0.0
H331 H 0.02378 0.98988 0.31478 0.0
H332 H 0.8983 0.75667 0.22334 0.0
H333 H 0.90641 0.73766 0.14223 0.0
H334 H 0.94715 0.80207 0.17311 0.0
H335 H 0.93626 0.77396 0.13677 0.0
Tb336 Tb 0.27407 0.04865 0.3901 0.0
C337 C 0.34303 0.03455 0.30258 0.0
C338 C 0.38399 0.03574 0.3252 0.0
C339 C 0.379 1.00776 0.28789 0.0
C340 C 0.35802 0.044 0.32245 0.0
C341 C 0.35354 1.0167 0.28469 0.0
C342 C 0.39419 1.01728 0.30814 0.0
C343 C 0.31379 1.01931 0.26054 0.0
N344 N 0.31838 0.0433 0.30034 0.0
C345 C 0.30433 0.03703 0.27863 0.0
C346 C 0.33835 1.00871 0.26383 0.0
Tb347 Tb 0.30427 0.07236 0.33139 0.0
N348 N 0.3472 0.06123 0.33912 0.0
C349 C 0.36228 0.07187 0.35823 0.0
C350 C 0.39895 0.04613 0.34512 0.0
C351 C 0.38808 0.06442 0.36156 0.0
H352 H 0.28571 0.04583 0.27488 0.0
H353 H 0.39959 0.07285 0.37689 0.0
H354 H 0.41384 1.01035 0.31043 0.0
H355 H 0.30222 1.01411 0.24387 0.0
H356 H 0.35519 0.08627 0.37123 0.0
H357 H 0.17514 0.08154 0.37898 0.0
H358 H 0.41892 0.04027 0.34787 0.0
H359 H 0.30975 0.04553 0.4435 0.0
H360 H 0.21371 0.05608 0.3679 0.0
H361 H 0.31069 0.06619 0.48665 0.0
H362 H 0.38722 0.99376 0.27464 0.0
H363 H 0.17542 0.11008 0.41737 0.0
H364 H 0.19839 0.12516 0.45755 0.0
H365 H 0.34571 0.99507 0.24971 0.0
H366 H 0.23543 0.12076 0.48723 0.0
N367 N 0.23652 0.07073 0.39907 0.0
C368 C 0.21436 0.06838 0.38473 0.0
C369 C 0.19257 0.09903 0.41253 0.0
C370 C 0.21453 0.09971 0.42836 0.0
C371 C 0.1923 0.08284 0.39093 0.0
C372 C 0.23636 0.085 0.4211 0.0
H373 H 0.27682 0.09784 0.49869 0.0
N374 N 0.27666 0.0666 0.43072 0.0
C375 C 0.29569 0.07124 0.47292 0.0
C376 C 0.25717 0.0828 0.43763 0.0
C377 C 0.29506 0.05953 0.44853 0.0
C378 C 0.27668 0.08928 0.47958 0.0
C379 C 0.25682 0.0949 0.46205 0.0
O380 O 0.28254 1.01394 0.40993 0.0
O381 O 0.30083 0.04035 0.35843 0.0
O382 O 0.27332 0.04523 0.31875 0.0
O383 O 0.25268 0.03313 0.35728 0.0
O384 O 0.31243 0.03158 0.39537 0.0
O385 O 0.24371 0.02258 0.39878 0.0
O386 O 0.30214 0.08984 0.29431 0.0
O387 O 0.27485 0.07913 0.36052 0.0
O388 O 0.29789 0.08085 0.40265 0.0
O389 O 0.31335 0.09952 0.3643 0.0
O390 O 0.26605 0.08779 0.32274 0.0
O391 O 0.3226 0.10823 0.32512 0.0
C392 C 0.31872 0.02971 0.37139 0.0
C393 C 0.24971 0.99745 0.43694 0.0
C394 C 0.24296 0.96241 0.4687 0.0
C395 C 0.24969 0.9708 0.44337 0.0
C396 C 0.23726 0.98155 0.48734 0.0
C397 C 0.24224 1.0155 0.45568 0.0
C398 C 0.23648 1.00765 0.48074 0.0
C399 C 0.25514 0.0325 0.33186 0.0
C400 C 0.25859 1.00648 0.41118 0.0
C401 C 0.23594 0.11101 0.46868 0.0
C402 C 0.21484 0.11349 0.45179 0.0
C403 C 0.25727 0.08868 0.34606 0.0
C404 C 0.33886 0.11522 0.28258 0.0
C405 C 0.33562 0.13234 0.26131 0.0
C406 C 0.35701 0.13905 0.2453 0.0
C407 C 0.38121 0.12773 0.25058 0.0
C408 C 0.36348 0.10474 0.28725 0.0
C409 C 0.38434 0.11076 0.27128 0.0
C410 C 0.31076 0.09887 0.39009 0.0
C411 C 0.31707 0.10905 0.30053 0.0
H412 H 0.25466 0.95685 0.42857 0.0
H413 H 0.23342 0.97659 0.5073 0.0
H414 H 0.24108 0.03576 0.45108 0.0
H415 H 0.23149 0.02193 0.49523 0.0
H416 H 0.3168 0.14086 0.25767 0.0
H417 H 0.39786 0.13188 0.23853 0.0
H418 H 0.36682 0.09215 0.30351 0.0
H419 H 0.40317 0.10237 0.27512 0.0
Tb420 Tb 0.26515 0.99262 0.88765 0.0
C421 C 0.19568 1.00862 0.80203 0.0
C422 C 0.15475 1.00586 0.8247 0.0
C423 C 0.15916 0.03533 0.78849 0.0
C424 C 0.1808 0.99799 0.82149 0.0
C425 C 0.18479 0.02702 0.78493 0.0
C426 C 0.1442 0.02478 0.80837 0.0
C427 C 0.2245 0.02619 0.76061 0.0
N428 N 0.22061 1.00065 0.79952 0.0
C429 C 0.23433 1.00786 0.77789 0.0
C430 C 0.1998 0.03623 0.76444 0.0
Tb431 Tb 0.23483 0.97001 0.82895 0.0
N432 N 0.19195 0.98046 0.83763 0.0
C433 C 0.1772 0.96921 0.85665 0.0
C434 C 0.1401 0.9948 0.84449 0.0
C435 C 0.15136 0.97629 0.86041 0.0
H436 H 0.25292 0.99934 0.77344 0.0
H437 H 0.1401 0.96735 0.87565 0.0
H438 H 0.12445 0.03134 0.811 0.0
H439 H 0.23586 0.03221 0.74407 0.0
H440 H 0.18456 0.95453 0.86914 0.0
H441 H 0.36368 0.95855 0.87603 0.0
H442 H 0.12011 1.00037 0.8476 0.0
H443 H 0.2292 0.99597 0.94075 0.0
H444 H 0.32521 0.9839 0.8647 0.0
H445 H 0.22849 0.97615 0.98427 0.0
H446 H 0.15067 0.04971 0.77582 0.0
H447 H 0.36376 0.93122 0.91529 0.0
H448 H 0.34115 0.91733 0.95608 0.0
H449 H 0.19215 0.05033 0.75094 0.0
H450 H 0.30428 0.92234 0.98587 0.0
N451 N 0.30267 0.97046 0.89664 0.0
C452 C 0.32465 0.97217 0.88192 0.0
C453 C 0.34662 0.94226 0.91036 0.0
C454 C 0.32486 0.94217 0.92646 0.0
C455 C 0.34669 0.95775 0.88826 0.0
C456 C 0.30303 0.95681 0.91906 0.0
H457 H 0.26277 0.94521 0.99697 0.0
N458 N 0.26271 0.97528 0.92847 0.0
C459 C 0.2436 0.97108 0.97068 0.0
C460 C 0.28234 0.95942 0.93568 0.0
C461 C 0.24411 0.98231 0.94606 0.0
C462 C 0.26286 0.95346 0.97772 0.0
C463 C 0.28279 0.94773 0.96031 0.0
O464 O 0.25655 0.02727 0.9075 0.0
O465 O 0.23863 1.00189 0.85597 0.0
O466 O 0.26597 0.99687 0.81655 0.0
O467 O 0.2871 1.00785 0.85511 0.0
O468 O 0.22673 1.00954 0.89307 0.0
O469 O 0.29542 1.01878 0.89607 0.0
O470 O 0.21101 0.93864 0.81858 0.0
O471 O 0.26391 0.96226 0.85802 0.0
O472 O 0.24136 0.96024 0.9 0.0
O473 O 0.22662 0.94165 0.86126 0.0
O474 O 0.27209 0.95229 0.82047 0.0
O475 O 0.23907 0.95339 0.79181 0.0
C476 C 0.22072 1.01225 0.8691 0.0
C477 C 0.28946 0.04449 0.93386 0.0
C478 C 0.29384 0.08003 0.96515 0.0
C479 C 0.2866 0.07089 0.94038 0.0
C480 C 0.30406 0.0623 0.9831 0.0
C481 C 0.30007 0.02744 0.95208 0.0
C482 C 0.30722 0.0363 0.97655 0.0
C483 C 0.28453 1.00885 0.82975 0.0
C484 C 0.28045 0.03484 0.90844 0.0
C485 C 0.30371 0.93178 0.96716 0.0
C486 C 0.32471 0.92894 0.9502 0.0
C487 C 0.28111 0.95183 0.8437 0.0
C488 C 0.22635 0.90956 0.78652 0.0
C489 C 0.21622 0.90093 0.76255 0.0
C490 C 0.21967 0.87503 0.75439 0.0
C491 C 0.23374 0.85817 0.7705 0.0
C492 C 0.24046 0.89233 0.80198 0.0
C493 C 0.24414 0.86682 0.79394 0.0
C494 C 0.22885 0.94211 0.88715 0.0
C495 C 0.22112 0.93619 0.7956 0.0
H496 H 0.27842 0.08417 0.92636 0.0
H497 H 0.31015 0.06864 1.00213 0.0
H498 H 0.30285 1.00727 0.94746 0.0
H499 H 0.31534 0.02295 0.99049 0.0
H500 H 0.20525 0.9142 0.75057 0.0
H501 H 0.2371 0.83831 0.76475 0.0
H502 H 0.24843 0.89856 0.82035 0.0
H503 H 0.25505 0.85362 0.806 0.0
Tb504 Tb 0.77529 0.4924 0.65407 0.0
C505 C 0.84458 0.50496 0.74106 0.0
C506 C 0.88543 0.50352 0.71824 0.0
C507 C 0.88084 0.53139 0.75567 0.0
C508 C 0.85942 0.49544 0.7211 0.0
C509 C 0.85532 0.52267 0.75895 0.0
C510 C 0.89586 0.52183 0.73532 0.0
C511 C 0.81566 0.52031 0.78328 0.0
N512 N 0.81987 0.4964 0.74338 0.0
C513 C 0.80599 0.50271 0.76518 0.0
C514 C 0.84028 0.53072 0.77991 0.0
Tb515 Tb 0.80536 0.46761 0.71226 0.0
N516 N 0.8484 0.47832 0.70444 0.0
C517 C 0.86334 0.4676 0.68525 0.0
C518 C 0.90022 0.4931 0.69821 0.0
C519 C 0.88916 0.47491 0.68179 0.0
H520 H 0.78734 0.49403 0.76904 0.0
H521 H 0.90054 0.46641 0.6664 0.0
H522 H 0.91557 0.52856 0.733 0.0
H523 H 0.80422 0.52555 0.80003 0.0
H524 H 0.85614 0.4532 0.67231 0.0
H525 H 0.67605 0.46063 0.66561 0.0
H526 H 0.92021 0.49882 0.69537 0.0
H527 H 0.81063 0.49603 0.60051 0.0
H528 H 0.71509 0.48525 0.67686 0.0
H529 H 0.81096 0.4762 0.55698 0.0
H530 H 0.88925 0.54525 0.76897 0.0
H531 H 0.67546 0.43311 0.62647 0.0
H532 H 0.69779 0.41869 0.58567 0.0
H533 H 0.84781 0.54426 0.79403 0.0
H534 H 0.73467 0.42311 0.55577 0.0
N535 N 0.7373 0.47115 0.64501 0.0
C536 C 0.71536 0.47341 0.6597 0.0
C537 C 0.69281 0.44382 0.63137 0.0
C538 C 0.71455 0.44327 0.61525 0.0
C539 C 0.69303 0.45942 0.6534 0.0
C540 C 0.73665 0.45751 0.62259 0.0
H541 H 0.77647 0.44541 0.54451 0.0
N542 N 0.77711 0.4755 0.613 0.0
C543 C 0.79588 0.47125 0.57064 0.0
C544 C 0.75728 0.45986 0.60588 0.0
C545 C 0.79559 0.4825 0.59526 0.0
C546 C 0.7765 0.45372 0.56374 0.0
C547 C 0.75658 0.44821 0.58124 0.0
O548 O 0.78442 0.52714 0.63465 0.0
O549 O 0.8022 0.50005 0.68576 0.0
O550 O 0.7744 0.4945 0.72546 0.0
O551 O 0.75425 0.50795 0.6871 0.0
O552 O 0.81397 0.50871 0.64886 0.0
O553 O 0.74548 0.51929 0.6463 0.0
O554 O 0.80349 0.44994 0.74925 0.0
O555 O 0.77585 0.46143 0.68311 0.0
O556 O 0.79852 0.46003 0.64085 0.0
O557 O 0.8141 0.44085 0.67893 0.0
O558 O 0.76703 0.45239 0.72078 0.0
O559 O 0.82323 0.43142 0.71804 0.0
C560 C 0.82023 0.51049 0.67286 0.0
C561 C 0.75158 0.54537 0.60883 0.0
C562 C 0.74668 0.5816 0.57843 0.0
C563 C 0.754 0.57197 0.60299 0.0
C564 C 0.73687 0.56417 0.55998 0.0
C565 C 0.74129 0.52863 0.59014 0.0
C566 C 0.73412 0.53797 0.56587 0.0
C567 C 0.75658 0.50788 0.71253 0.0
C568 C 0.76065 0.53522 0.63403 0.0
C569 C 0.73543 0.43254 0.57448 0.0
C570 C 0.71444 0.43002 0.5915 0.0
C571 C 0.75821 0.45185 0.69746 0.0
C572 C 0.83998 0.42399 0.7603 0.0
C573 C 0.83673 0.4069 0.78156 0.0
C574 C 0.85818 0.39983 0.7973 0.0
C575 C 0.8825 0.41077 0.79176 0.0
C576 C 0.86471 0.43408 0.75533 0.0
C577 C 0.88566 0.42771 0.77104 0.0
C578 C 0.8114 0.44181 0.65315 0.0
C579 C 0.81804 0.43055 0.7427 0.0
H580 H 0.76187 0.58503 0.61738 0.0
H581 H 0.73074 0.5709 0.5411 0.0
H582 H 0.73878 0.50833 0.59427 0.0
H583 H 0.72627 0.52485 0.55156 0.0
H584 H 0.81782 0.39868 0.7854 0.0
H585 H 0.89922 0.40635 0.80363 0.0
H586 H 0.86803 0.44666 0.73906 0.0
H587 H 0.90456 0.4358 0.76699 0.0
Tb588 Tb 0.76557 0.54881 0.1536 0.0
C589 C 0.69524 0.53334 0.23797 0.0
C590 C 0.65457 0.53681 0.21496 0.0
C591 C 0.65846 0.50655 0.25056 0.0
C592 C 0.68063 0.54443 0.21858 0.0
C593 C 0.68407 0.51467 0.25459 0.0
C594 C 0.64375 0.5176 0.23076 0.0
C595 C 0.7235 0.51482 0.27937 0.0
N596 N 0.72018 0.54111 0.24091 0.0
C597 C 0.73361 0.53341 0.26256 0.0
C598 C 0.6988 0.50498 0.27506 0.0
Tb599 Tb 0.73503 0.57197 0.212 0.0
N600 N 0.69205 0.56222 0.2029 0.0
C601 C 0.67746 0.57413 0.18417 0.0
C602 C 0.64015 0.54841 0.1953 0.0
C603 C 0.65162 0.56729 0.18 0.0
H604 H 0.75217 0.54175 0.26741 0.0
H605 H 0.64051 0.57675 0.16496 0.0
H606 H 0.62402 0.5112 0.22778 0.0
H607 H 0.73463 0.50843 0.29592 0.0
H608 H 0.68487 0.5893 0.17229 0.0
H609 H 0.86435 0.58187 0.16572 0.0
H610 H 0.62015 0.54305 0.1919 0.0
H611 H 0.73017 0.54554 0.10009 0.0
H612 H 0.82562 0.55674 0.17672 0.0
H613 H 0.72974 0.56567 0.05671 0.0
H614 H 0.64979 0.49192 0.2628 0.0
H615 H 0.86474 0.60957 0.12672 0.0
H616 H 0.84238 0.62395 0.08595 0.0
H617 H 0.69093 0.49066 0.28819 0.0
H618 H 0.80562 0.61934 0.05594 0.0
N619 N 0.8033 0.57066 0.14484 0.0
C620 C 0.82523 0.56862 0.15961 0.0
C621 C 0.8475 0.59862 0.1315 0.0
C622 C 0.82581 0.59901 0.11532 0.0
C623 C 0.8474 0.58292 0.15345 0.0
C624 C 0.80386 0.58446 0.12252 0.0
H625 H 0.76406 0.59674 0.04447 0.0
N626 N 0.76357 0.56617 0.11275 0.0
C627 C 0.74477 0.57064 0.07043 0.0
C628 C 0.78326 0.58204 0.10577 0.0
C629 C 0.74512 0.55923 0.09497 0.0
C630 C 0.76405 0.58833 0.06365 0.0
C631 C 0.78389 0.59387 0.08122 0.0
O632 O 0.75682 0.51414 0.13385 0.0
O633 O 0.73875 0.53992 0.18514 0.0
O634 O 0.76614 0.54525 0.2248 0.0
O635 O 0.78704 0.53339 0.18637 0.0
O636 O 0.72702 0.53234 0.14796 0.0
O637 O 0.7957 0.52241 0.14537 0.0
O638 O 0.71201 0.60404 0.22211 0.0
O639 O 0.7644 0.5793 0.18309 0.0
O640 O 0.74188 0.58112 0.14096 0.0
O641 O 0.7274 0.60027 0.17952 0.0
O642 O 0.7724 0.58934 0.22067 0.0
O643 O 0.73878 0.58803 0.24943 0.0
C644 C 0.72081 0.52974 0.17189 0.0
C645 C 0.78971 0.49659 0.10768 0.0
C646 C 0.7943 0.46081 0.0767 0.0
C647 C 0.78706 0.47011 0.10141 0.0
C648 C 0.8043 0.47846 0.05855 0.0
C649 C 0.80012 0.51356 0.08927 0.0
C650 C 0.80726 0.50454 0.06486 0.0
C651 C 0.78448 0.5328 0.21175 0.0
C652 C 0.78067 0.5064 0.13302 0.0
C653 C 0.80491 0.60978 0.07459 0.0
C654 C 0.82584 0.6124 0.09167 0.0
C655 C 0.78159 0.5896 0.19751 0.0
C656 C 0.72784 0.63234 0.25462 0.0
C657 C 0.71748 0.64151 0.27831 0.0
C658 C 0.722 0.66722 0.28656 0.0
C659 C 0.73742 0.68329 0.27089 0.0
C660 C 0.74327 0.64882 0.2396 0.0
C661 C 0.74804 0.6741 0.24776 0.0
C662 C 0.72956 0.59949 0.15363 0.0
C663 C 0.72164 0.60597 0.24534 0.0
H664 H 0.77905 0.45689 0.11557 0.0
H665 H 0.81036 0.47199 0.03956 0.0
H666 H 0.80275 0.53378 0.09371 0.0
H667 H 0.81522 0.51782 0.05077 0.0
H668 H 0.70549 0.62885 0.28996 0.0
H669 H 0.74159 0.70297 0.27672 0.0
H670 H 0.75143 0.64219 0.22145 0.0
H671 H 0.75996 0.6867 0.23603 0.0
Tb672 Tb 0.38698 0.27358 0.04897 0.0
C673 C 0.29939 0.34257 0.03697 0.0
C674 C 0.32225 0.38335 0.03776 0.0
C675 C 0.28423 0.37865 1.01064 0.0
C676 C 0.31953 0.35743 0.04606 0.0
C677 C 0.28115 0.3532 1.01953 0.0
C678 C 0.30478 0.39369 1.01973 0.0
C679 C 0.257 0.31353 0.02234 0.0
N680 N 0.29728 0.31792 0.04563 0.0
C681 C 0.27544 0.30395 0.03967 0.0
C682 C 0.2601 0.33811 1.01185 0.0
Tb683 Tb 0.32887 0.30362 0.07407 0.0
N684 N 0.33653 0.34651 0.06292 0.0
C685 C 0.35599 0.36143 0.07313 0.0
C686 C 0.34252 0.39814 0.04769 0.0
C687 C 0.35932 0.38716 0.0656 0.0
H688 H 0.27181 0.28532 0.04843 0.0
H689 H 0.37494 0.39854 0.07369 0.0
H690 H 0.30697 0.41333 1.01284 0.0
H691 H 0.24021 0.30203 1.01738 0.0
H692 H 0.3693 0.35426 0.08721 0.0
H693 H 0.37571 0.17459 0.08114 0.0
H694 H 0.34526 0.41806 0.0418 0.0
H695 H 0.44049 0.30895 0.04499 0.0
H696 H 0.36426 0.2135 0.05646 0.0
H697 H 0.48419 0.30934 0.06454 0.0
H698 H 0.27066 0.38698 0.99698 0.0
H699 H 0.41507 0.17409 0.10841 0.0
H700 H 0.45599 0.19643 0.1225 0.0
H701 H 0.24572 0.34555 0.99851 0.0
H702 H 0.48585 0.23324 0.11778 0.0
N703 N 0.39621 0.23573 0.0703 0.0
C704 C 0.38151 0.21381 0.0682 0.0
C705 C 0.41008 0.19139 0.09768 0.0
C706 C 0.4262 0.2131 0.09808 0.0
C707 C 0.38793 0.19156 0.08222 0.0
C708 C 0.41873 0.23512 0.08382 0.0
H709 H 0.49692 0.27495 0.09532 0.0
N710 N 0.42817 0.2755 0.06566 0.0
C711 C 0.47057 0.29428 0.06961 0.0
C712 C 0.43542 0.25573 0.08131 0.0
C713 C 0.44586 0.29395 0.05852 0.0
C714 C 0.47762 0.27496 0.08713 0.0
C715 C 0.46016 0.25507 0.0928 0.0
O716 O 0.4064 0.28262 1.01415 0.0
O717 O 0.35517 0.30035 0.04144 0.0
O718 O 0.31556 0.27269 0.04724 0.0
O719 O 0.35388 0.2525 0.03366 0.0
O720 O 0.39194 0.31211 0.03228 0.0
O721 O 0.39464 0.24379 0.02206 0.0
O722 O 0.29205 0.30181 0.09217 0.0
O723 O 0.35811 0.27416 0.0802 0.0
O724 O 0.40038 0.29683 0.08124 0.0
O725 O 0.3624 0.31255 0.10056 0.0
O726 O 0.32043 0.2654 0.08943 0.0
O727 O 0.32345 0.32166 0.11024 0.0
C728 C 0.3679 0.31829 0.03068 0.0
C729 C 0.4323 0.24975 0.99613 0.0
C730 C 0.46335 0.24548 0.9603 0.0
C731 C 0.43868 0.25284 0.96968 0.0
C732 C 0.48135 0.23493 0.97782 0.0
C733 C 0.45055 0.23876 1.01293 0.0
C734 C 0.47492 0.23152 1.00383 0.0
C735 C 0.32844 0.25485 0.03384 0.0
C736 C 0.40702 0.25888 1.00614 0.0
C737 C 0.46706 0.23398 0.10848 0.0
C738 C 0.45006 0.21303 0.11116 0.0
C739 C 0.34377 0.25658 0.08989 0.0
C740 C 0.28123 0.33852 0.11787 0.0
C741 C 0.25979 0.33538 0.13482 0.0
C742 C 0.24413 0.35689 0.14182 0.0
C743 C 0.24991 0.38115 0.13096 0.0
C744 C 0.28643 0.3632 0.10787 0.0
C745 C 0.27079 0.3842 0.11417 0.0
C746 C 0.38819 0.30978 0.09948 0.0
C747 C 0.29877 0.31653 0.11138 0.0
H748 H 0.42464 0.26127 0.95656 0.0
H749 H 0.5003 0.22877 0.97127 0.0
H750 H 0.44602 0.23575 0.0331 0.0
H751 H 0.48888 0.22312 1.017 0.0
H752 H 0.25575 0.31651 0.14297 0.0
H753 H 0.23811 0.39791 0.13533 0.0
H754 H 0.30284 0.36645 0.09543 0.0
H755 H 0.27503 0.40306 0.10614 0.0
Tb756 Tb 0.88781 0.26635 0.99333 0.0
C757 C 0.8017 0.19685 1.00853 0.0
C758 C 0.82461 0.15608 1.00637 0.0
C759 C 0.78771 0.16042 0.03505 0.0
C760 C 0.82143 0.18204 0.99832 0.0
C761 C 0.78424 0.18598 0.02662 0.0
C762 C 0.8079 0.14553 0.02497 0.0
C763 C 0.75994 0.22564 0.02539 0.0
N764 N 0.7993 0.22173 1.00049 0.0
C765 C 0.77756 0.23545 1.00737 0.0
C766 C 0.76357 0.20096 0.03546 0.0
Tb767 Tb 0.82923 0.23591 0.97028 0.0
N768 N 0.83789 0.19317 0.98106 0.0
C769 C 0.85727 0.17852 0.97032 0.0
C770 C 0.84474 0.14152 0.99579 0.0
C771 C 0.86102 0.15277 0.97758 0.0
H772 H 0.77331 0.25405 0.99883 0.0
H773 H 0.87656 0.14159 0.96905 0.0
H774 H 0.81047 0.12586 0.03166 0.0
H775 H 0.7433 0.237 0.03115 0.0
H776 H 0.87014 0.18592 0.95597 0.0
H777 H 0.87738 0.36474 0.95894 0.0
H778 H 0.84783 0.12159 1.00151 0.0
H779 H 0.9406 0.22997 0.99727 0.0
H780 H 0.86547 0.32649 0.98428 0.0
H781 H 0.98436 0.22886 0.97795 0.0
H782 H 0.77476 0.15193 0.0492 0.0
H783 H 0.91695 0.36442 0.93199 0.0
H784 H 0.9578 0.34153 0.91868 0.0
H785 H 0.74981 0.19333 0.04933 0.0
H786 H 0.98729 0.30452 0.92417 0.0
N787 N 0.89735 0.30366 0.97115 0.0
C788 C 0.8828 0.32575 0.9727 0.0
C789 C 0.91175 0.34737 0.94301 0.0
C790 C 0.9277 0.32552 0.94315 0.0
C791 C 0.88948 0.34766 0.95828 0.0
C792 C 0.91995 0.30382 0.95775 0.0
H793 H 0.99775 0.26297 0.94716 0.0
N794 N 0.92884 0.26354 0.97643 0.0
C795 C 0.97096 0.24408 0.97271 0.0
C796 C 0.9364 0.28305 0.96062 0.0
C797 C 0.94619 0.2448 0.98366 0.0
C798 C 0.97838 0.26323 0.95517 0.0
C799 C 0.9612 0.28328 0.94923 0.0
O800 O 0.90727 0.25787 0.02825 0.0
O801 O 0.85603 0.23993 1.00231 0.0
O802 O 0.8167 0.26682 0.9974 0.0
O803 O 0.8551 0.28848 1.00795 0.0
O804 O 0.89298 0.2281 1.01065 0.0
O805 O 0.89594 0.29666 1.01951 0.0
O806 O 0.81917 0.21218 0.93872 0.0
O807 O 0.8583 0.26504 0.9628 0.0
O808 O 0.90038 0.24276 0.96088 0.0
O809 O 0.86182 0.22755 0.9422 0.0
O810 O 0.82074 0.27308 0.95254 0.0
O811 O 0.79225 0.24018 0.9533 0.0
C812 C 0.86896 0.22212 1.01303 0.0
C813 C 0.9335 0.29075 0.04564 0.0
C814 C 0.96453 0.29504 0.08146 0.0
C815 C 0.93981 0.28786 0.07211 0.0
C816 C 0.98266 0.30523 0.06386 0.0
C817 C 0.95189 0.30131 0.02872 0.0
C818 C 0.97631 0.30841 0.0378 0.0
C819 C 0.82975 0.28563 1.00912 0.0
C820 C 0.90815 0.28176 0.03576 0.0
C821 C 0.96843 0.3041 0.93335 0.0
C822 C 0.95164 0.32517 0.93024 0.0
C823 C 0.84395 0.28217 0.95234 0.0
C824 C 0.7873 0.22758 0.90939 0.0
C825 C 0.76345 0.21739 0.90047 0.0
C826 C 0.75545 0.22103 0.87451 0.0
C827 C 0.77158 0.2354 0.85793 0.0
C828 C 0.80278 0.24197 0.89241 0.0
C829 C 0.7949 0.24586 0.86687 0.0
C830 C 0.88771 0.23006 0.94275 0.0
C831 C 0.79619 0.22227 0.9361 0.0
H832 H 0.92567 0.2797 0.08528 0.0
H833 H 1.00166 0.31127 0.07037 0.0
H834 H 0.94744 0.30408 1.0085 0.0
H835 H 0.99039 0.3165 0.02456 0.0
H836 H 0.75144 0.2062 0.91353 0.0
H837 H 0.76596 0.2389 0.83804 0.0
H838 H 0.82106 0.25001 0.89887 0.0
H839 H 0.80697 0.25699 0.85387 0.0
Tb840 Tb 0.65271 0.7758 0.4933 0.0
C841 C 0.73878 0.84457 0.50861 0.0
C842 C 0.7159 0.88536 0.50652 0.0
C843 C 0.75247 0.88078 0.53558 0.0
C844 C 0.71915 0.85945 0.49833 0.0
C845 C 0.75608 0.85532 0.52693 0.0
C846 C 0.73236 0.89574 0.52543 0.0
C847 C 0.78047 0.81571 0.5255 0.0
N848 N 0.74125 0.81977 0.5004 0.0
C849 C 0.76297 0.80602 0.50731 0.0
C850 C 0.77672 0.8403 0.53577 0.0
Tb851 Tb 0.71133 0.8056 0.4702 0.0
N852 N 0.70291 0.84846 0.48078 0.0
C853 C 0.68394 0.86333 0.46962 0.0
C854 C 0.69599 0.90005 0.49572 0.0
C855 C 0.6801 0.88903 0.47704 0.0
H856 H 0.76722 0.78744 0.49869 0.0
H857 H 0.66486 0.90036 0.46819 0.0
H858 H 0.72967 0.91534 0.53227 0.0
H859 H 0.79708 0.80433 0.53129 0.0
H860 H 0.67158 0.85622 0.45469 0.0
H861 H 0.66158 0.67815 0.45667 0.0
H862 H 0.69285 0.91994 0.50153 0.0
H863 H 0.6001 0.81222 0.49901 0.0
H864 H 0.67396 0.71564 0.48302 0.0
H865 H 0.55622 0.81427 0.48005 0.0
H866 H 0.76525 0.88915 0.54994 0.0
H867 H 0.62217 0.67977 0.42952 0.0
H868 H 0.58158 0.70349 0.4169 0.0
H869 H 0.79037 0.84783 0.54981 0.0
H870 H 0.55242 0.74051 0.42375 0.0
N871 N 0.64264 0.73927 0.4701 0.0
C872 C 0.65676 0.71691 0.47126 0.0
C873 C 0.62763 0.69649 0.44091 0.0
C874 C 0.61201 0.71855 0.44157 0.0
C875 C 0.6498 0.69545 0.45631 0.0
C876 C 0.62006 0.73978 0.45669 0.0
H877 H 0.54242 0.78139 0.44814 0.0
N878 N 0.61156 0.77942 0.47682 0.0
C879 C 0.56951 0.79921 0.47414 0.0
C880 C 0.60378 0.76055 0.46035 0.0
C881 C 0.59435 0.79795 0.48487 0.0
C882 C 0.56186 0.78075 0.45596 0.0
C883 C 0.57889 0.76084 0.44918 0.0
O884 O 0.63408 0.78377 0.52881 0.0
O885 O 0.68473 0.80187 0.50242 0.0
O886 O 0.72363 0.77487 0.49765 0.0
O887 O 0.68515 0.75317 0.50777 0.0
O888 O 0.6479 0.81397 0.51087 0.0
O889 O 0.6438 0.74494 0.51858 0.0
O890 O 0.72161 0.82896 0.4384 0.0
O891 O 0.68202 0.77673 0.46244 0.0
O892 O 0.64007 0.80043 0.46176 0.0
O893 O 0.67869 0.81397 0.44208 0.0
O894 O 0.71972 0.76798 0.45345 0.0
O895 O 0.74829 0.80094 0.45326 0.0
C896 C 0.67196 0.81977 0.51322 0.0
C897 C 0.60684 0.75132 0.54543 0.0
C898 C 0.57614 0.74691 0.58155 0.0
C899 C 0.60097 0.75358 0.57207 0.0
C900 C 0.55745 0.73791 0.5639 0.0
C901 C 0.58788 0.7419 0.52847 0.0
C902 C 0.56335 0.73536 0.53766 0.0
C903 C 0.71049 0.75602 0.50923 0.0
C904 C 0.63239 0.75969 0.53551 0.0
C905 C 0.57138 0.74057 0.43272 0.0
C906 C 0.58798 0.71948 0.42883 0.0
C907 C 0.69641 0.75919 0.45269 0.0
C908 C 0.75347 0.81311 0.40925 0.0
C909 C 0.77726 0.82334 0.40018 0.0
C910 C 0.78531 0.81934 0.37429 0.0
C911 C 0.7693 0.80458 0.35793 0.0
C912 C 0.73811 0.79834 0.39249 0.0
C913 C 0.74606 0.79408 0.36702 0.0
C914 C 0.65273 0.81242 0.44317 0.0
C915 C 0.74453 0.81871 0.4359 0.0
H916 H 0.61556 0.76084 0.58528 0.0
H917 H 0.53836 0.73226 0.57048 0.0
H918 H 0.59198 0.73958 0.50811 0.0
H919 H 0.54883 0.72816 0.52437 0.0
H920 H 0.78917 0.83481 0.41308 0.0
H921 H 0.77497 0.80081 0.3381 0.0
H922 H 0.71989 0.79027 0.39906 0.0
H923 H 0.73408 0.78264 0.3542 0.0
Tb924 Tb 0.15317 0.76529 0.54722 0.0
C925 C 0.23864 0.6957 0.5354 0.0
C926 C 0.21525 0.65526 0.53736 0.0
C927 C 0.25226 0.65923 0.50879 0.0
C928 C 0.21862 0.68121 0.54533 0.0
C929 C 0.25607 0.68467 0.5174 0.0
C930 C 0.23184 0.64457 0.51874 0.0
C931 C 0.28087 0.724 0.519 0.0
N932 N 0.24138 0.72042 0.54373 0.0
C933 C 0.2632 0.734 0.53688 0.0
C934 C 0.27704 0.69939 0.50883 0.0
Tb935 Tb 0.21083 0.7355 0.57288 0.0
N936 N 0.20241 0.69249 0.56274 0.0
C937 C 0.18351 0.67773 0.57418 0.0
C938 C 0.19523 0.64079 0.54823 0.0
C939 C 0.17949 0.65202 0.56692 0.0
H940 H 0.2675 0.75259 0.54539 0.0
H941 H 0.1643 0.6408 0.57597 0.0
H942 H 0.22907 0.62493 0.51205 0.0
H943 H 0.29765 0.7352 0.51336 0.0
H944 H 0.17145 0.68485 0.58936 0.0
H945 H 0.16395 0.86371 0.58118 0.0
H946 H 0.192 0.62087 0.5426 0.0
H947 H 0.09932 0.73067 0.54151 0.0
H948 H 0.17541 0.82536 0.55556 0.0
H949 H 0.0556 0.72975 0.56105 0.0
H950 H 0.26514 0.65064 0.49465 0.0
H951 H 0.12497 0.8633 0.609 0.0
H952 H 0.08425 0.84043 0.62289 0.0
H953 H 0.2908 0.69163 0.49503 0.0
H954 H 0.05434 0.8038 0.61715 0.0
N955 N 0.14382 0.80264 0.56937 0.0
C956 C 0.15832 0.82471 0.56753 0.0
C957 C 0.12997 0.84627 0.59786 0.0
C958 C 0.11397 0.82445 0.59792 0.0
C959 C 0.1519 0.84661 0.58208 0.0
C960 C 0.12142 0.80282 0.58307 0.0
H961 H 0.04312 0.76286 0.59329 0.0
N962 N 0.11184 0.76315 0.56356 0.0
C963 C 0.06932 0.74451 0.56672 0.0
C964 C 0.10468 0.78235 0.57994 0.0
C965 C 0.09403 0.74514 0.55563 0.0
C966 C 0.0624 0.76312 0.58506 0.0
C967 C 0.07995 0.78271 0.59145 0.0
O968 O 0.13447 0.7567 0.5119 0.0
O969 O 0.18517 0.73873 0.53971 0.0
O970 O 0.22457 0.76684 0.54681 0.0
O971 O 0.18641 0.78654 0.53213 0.0
O972 O 0.14843 0.72681 0.53048 0.0
O973 O 0.14518 0.79556 0.52098 0.0
O974 O 0.24807 0.73712 0.5901 0.0
O975 O 0.18148 0.7648 0.57894 0.0
O976 O 0.13934 0.7409 0.57852 0.0
O977 O 0.17719 0.72759 0.59964 0.0
O978 O 0.21903 0.77389 0.58805 0.0
O979 O 0.21688 0.71787 0.60916 0.0
C980 C 0.17251 0.72074 0.52891 0.0
C981 C 0.10797 0.7894 0.49449 0.0
C982 C 0.07726 0.79381 0.45842 0.0
C983 C 0.10194 0.78668 0.46795 0.0
C984 C 0.05888 0.80371 0.47592 0.0
C985 C 0.08935 0.79976 0.5113 0.0
C986 C 0.06496 0.80673 0.50207 0.0
C987 C 0.21187 0.78446 0.53297 0.0
C988 C 0.13335 0.78062 0.50452 0.0
C989 C 0.07313 0.80329 0.60783 0.0
C990 C 0.09017 0.82414 0.6111 0.0
C991 C 0.19563 0.78257 0.58857 0.0
C992 C 0.2591 0.70083 0.61626 0.0
C993 C 0.2806 0.70409 0.63308 0.0
C994 C 0.29633 0.68265 0.64014 0.0
C995 C 0.29049 0.6583 0.6295 0.0
C996 C 0.25385 0.67609 0.60644 0.0
C997 C 0.26951 0.65513 0.61284 0.0
C998 C 0.15135 0.72918 0.59769 0.0
C999 C 0.2416 0.72282 0.6097 0.0
H1000 H 0.11628 0.77874 0.45485 0.0
H1001 H 0.03992 0.80972 0.46927 0.0
H1002 H 0.09363 0.8025 0.53157 0.0
H1003 H 0.05071 0.81464 0.51523 0.0
H1004 H 0.28465 0.72302 0.64106 0.0
H1005 H 0.30233 0.64158 0.6339 0.0
H1006 H 0.23742 0.67277 0.59405 0.0
H1007 H 0.26525 0.63621 0.60496 0.0
Tb1008 Tb 0.9675 0.71122 0.73618 0.0
C1009 C 0.96049 0.60493 0.78403 0.0
C1010 C 0.94417 0.61434 0.82684 0.0
C1011 C 0.93338 0.57354 0.80615 0.0
C1012 C 0.95826 0.62166 0.80464 0.0
C1013 C 0.9489 0.58029 0.78488 0.0
C1014 C 0.93096 0.59059 0.8271 0.0
C1015 C 0.97175 0.56965 0.74549 0.0
N1016 N 0.97601 0.61203 0.76409 0.0
C1017 C 0.98295 0.59428 0.74563 0.0
C1018 C 0.95434 0.56276 0.76499 0.0
Tb1019 Tb 0.99285 0.6531 0.7657 0.0
N1020 N 0.97185 0.64409 0.80383 0.0
C1021 C 0.97419 0.65885 0.82569 0.0
C1022 C 0.94482 0.6305 0.84851 0.0
C1023 C 0.96035 0.65257 0.84811 0.0
H1024 H 0.99639 0.59952 0.73049 0.0
H1025 H 0.96162 0.66483 0.86504 0.0
H1026 H 0.91974 0.58477 0.84383 0.0
H1027 H 0.97667 0.55596 0.73043 0.0
H1028 H 0.98597 0.67605 0.82582 0.0
H1029 H 0.96423 0.66601 0.64082 0.0
H1030 H 0.93422 0.62563 0.86594 0.0
H1031 H 0.99488 0.76763 0.75399 0.0
H1032 H 0.95168 0.67189 0.68538 0.0
H1033 H 0.02667 0.79816 0.73686 0.0
H1034 H 0.92399 0.55482 0.80703 0.0
H1035 H 0.99679 0.69462 0.62084 0.0
H1036 H 0.0271 0.73185 0.6252 0.0
H1037 H 0.94609 0.54352 0.76514 0.0
H1038 H 0.04474 0.76732 0.65148 0.0
N1039 N 0.97755 0.70345 0.69299 0.0
C1040 C 0.96628 0.68456 0.6781 0.0
C1041 C 0.99142 0.69739 0.64093 0.0
C1042 C 1.00236 0.71717 0.65566 0.0
C1043 C 0.97316 0.68117 0.65217 0.0
C1044 C 0.99473 0.71995 0.68181 0.0
H1045 H 0.04474 0.79211 0.69302 0.0
N1046 N 0.99656 0.742 0.72142 0.0
C1047 C 0.02107 0.78153 0.72544 0.0
C1048 C 1.00474 0.73969 0.69659 0.0
C1049 C 1.00334 0.76365 0.73528 0.0
C1050 C 0.03111 0.77814 0.70068 0.0
C1051 C 0.02254 0.75739 0.68568 0.0
O1052 O 0.95017 0.74836 0.73812 0.0
O1053 O 0.96155 0.68187 0.76553 0.0
O1054 O 0.96044 0.63979 0.74254 0.0
O1055 O 0.94062 0.67785 0.72783 0.0
O1056 O 0.95247 0.71945 0.77461 0.0
O1057 O 0.93104 0.71729 0.71882 0.0
O1058 O 0.02756 0.63362 0.75627 0.0
O1059 O 1.00019 0.68489 0.73888 0.0
O1060 O 0.99417 0.72444 0.76731 0.0
O1061 O 1.00864 0.68606 0.78659 0.0
O1062 O 1.00877 0.64809 0.72685 0.0
O1063 O 1.02009 0.6454 0.79521 0.0
C1064 C 0.95196 0.69609 0.78327 0.0
C1065 C 0.92361 0.75954 0.7021 0.0
C1066 C 0.89914 0.79648 0.68414 0.0
C1067 C 0.90644 0.78075 0.7055 0.0
C1068 C 0.90994 0.79099 0.65975 0.0
C1069 C 0.93352 0.75463 0.67731 0.0
C1070 C 0.92694 0.77034 0.65644 0.0
C1071 C 0.94186 0.65206 0.73015 0.0
C1072 C 0.93043 0.74194 0.72395 0.0
C1073 C 0.03082 0.75417 0.66002 0.0
C1074 C 1.02072 0.73409 0.64503 0.0
C1075 C 1.01045 0.67209 0.72067 0.0
C1076 C 0.04605 0.60786 0.78902 0.0
C1077 C 0.07265 0.60187 0.78638 0.0
C1078 C 0.08226 0.57735 0.79382 0.0
C1079 C 0.0648 0.55908 0.80395 0.0
C1080 C 0.0293 0.58935 0.79964 0.0
C1081 C 0.03862 0.56512 0.80691 0.0
C1082 C 1.00805 0.71149 0.78471 0.0
C1083 C 0.03587 0.63304 0.77994 0.0
H1084 H 0.89834 0.78455 0.72447 0.0
H1085 H 0.90536 0.80285 0.64309 0.0
H1086 H 0.94613 0.73841 0.67386 0.0
H1087 H 0.93491 0.76633 0.63749 0.0
H1088 H 0.08572 0.61612 0.77829 0.0
H1089 H 0.0715 0.54024 0.81019 0.0
H1090 H 1.00902 0.5936 0.80236 0.0
H1091 H 0.02548 0.55096 0.81502 0.0
Tb1092 Tb 0.5729 0.32964 0.23562 0.0
C1093 C 0.5814 0.4365 0.28146 0.0
C1094 C 0.59951 0.42761 0.32365 0.0
C1095 C 0.6092 0.46826 0.30214 0.0
C1096 C 0.58459 0.41998 0.30211 0.0
C1097 C 0.59284 0.46122 0.2816 0.0
C1098 C 0.6126 0.45142 0.32313 0.0
C1099 C 0.56822 0.47137 0.24316 0.0
N1100 N 0.56505 0.42913 0.26229 0.0
C1101 C 0.55723 0.44666 0.24398 0.0
C1102 C 0.58639 0.47855 0.26184 0.0
Tb1103 Tb 0.5484 0.38806 0.26506 0.0
N1104 N 0.5709 0.3976 0.30218 0.0
C1105 C 0.5692 0.38329 0.32439 0.0
C1106 C 0.59963 0.41178 0.34559 0.0
C1107 C 0.58391 0.38985 0.34617 0.0
H1108 H 0.54317 0.44121 0.22949 0.0
H1109 H 0.58314 0.37793 0.36336 0.0
H1110 H 0.62443 0.45749 0.33935 0.0
H1111 H 0.56255 0.4849 0.22822 0.0
H1112 H 0.55723 0.36624 0.32525 0.0
H1113 H 0.57227 0.37476 0.14024 0.0
H1114 H 0.61085 0.41692 0.36254 0.0
H1115 H 0.54742 0.27286 0.25453 0.0
H1116 H 0.58604 0.36938 0.18455 0.0
H1117 H 0.51638 0.24106 0.23817 0.0
H1118 H 0.61845 0.48706 0.30249 0.0
H1119 H 0.54016 0.34507 0.1211 0.0
H1120 H 0.51119 0.30689 0.12627 0.0
H1121 H 0.59447 0.49786 0.2615 0.0
H1122 H 0.4955 0.27079 0.15298 0.0
N1123 N 0.5616 0.33688 0.19268 0.0
C1124 C 0.57183 0.35614 0.17754 0.0
C1125 C 0.54615 0.34248 0.14103 0.0
C1126 C 0.53626 0.32236 0.15603 0.0
C1127 C 0.56417 0.35929 0.15179 0.0
C1128 C 0.54468 0.31984 0.18195 0.0
H1129 H 0.4973 0.24618 0.19463 0.0
N1130 N 0.54449 0.29793 0.22166 0.0
C1131 C 0.52128 0.25773 0.2265 0.0
C1132 C 0.53569 0.29983 0.19701 0.0
C1133 C 0.53862 0.27624 0.23585 0.0
C1134 C 0.51066 0.26061 0.20191 0.0
C1135 C 0.51822 0.28152 0.1866 0.0
O1136 O 0.59114 0.29297 0.23803 0.0
O1137 O 0.57958 0.3591 0.26469 0.0
O1138 O 0.58 0.40113 0.24072 0.0
O1139 O 0.59972 0.36285 0.22651 0.0
O1140 O 0.58766 0.3214 0.27414 0.0
O1141 O 0.60896 0.32399 0.2174 0.0
O1142 O 0.51318 0.40703 0.25658 0.0
O1143 O 0.54048 0.3561 0.23877 0.0
O1144 O 0.54567 0.31688 0.26646 0.0
O1145 O 0.53308 0.35539 0.2868 0.0
O1146 O 0.5311 0.39262 0.22668 0.0
O1147 O 0.52241 0.39645 0.2955 0.0
C1148 C 0.5888 0.34481 0.28258 0.0
C1149 C 0.61645 0.28159 0.20121 0.0
C1150 C 0.64 0.24405 0.1834 0.0
C1151 C 0.6332 0.26011 0.20466 0.0
C1152 C 0.62915 0.24952 0.15903 0.0
C1153 C 0.60643 0.2865 0.17645 0.0
C1154 C 0.61254 0.27049 0.15566 0.0
C1155 C 0.59851 0.38867 0.2284 0.0
C1156 C 0.61018 0.29946 0.22297 0.0
C1157 C 0.50919 0.28441 0.16115 0.0
C1158 C 0.51818 0.30484 0.14591 0.0
C1159 C 0.52952 0.36855 0.22076 0.0
C1160 C 0.49614 0.43377 0.28927 0.0
C1161 C 0.46961 0.43999 0.28665 0.0
C1162 C 0.46032 0.46476 0.29362 0.0
C1163 C 0.47802 0.48304 0.30329 0.0
C1164 C 0.51317 0.45229 0.29941 0.0
C1165 C 0.50416 0.47677 0.30625 0.0
C1166 C 0.53268 0.32998 0.28445 0.0
C1167 C 0.50595 0.40832 0.28057 0.0
H1168 H 0.64136 0.25633 0.2236 0.0
H1169 H 0.63335 0.23741 0.14246 0.0
H1170 H 0.59412 0.30295 0.17295 0.0
H1171 H 0.60451 0.27449 0.13673 0.0
H1172 H 0.45633 0.42574 0.27888 0.0
H1173 H 0.47155 0.50208 0.30915 0.0
H1174 H 0.53343 0.44788 0.30207 0.0
H1175 H 0.51749 0.49095 0.31398 0.0
Tb1176 Tb 0.46725 0.83055 0.30615 0.0
C1177 C 0.45961 0.93728 0.26039 0.0
C1178 C 0.44155 0.92842 0.21818 0.0
C1179 C 0.43206 0.96919 0.23958 0.0
C1180 C 0.45636 0.92073 0.23978 0.0
C1181 C 0.44835 0.96209 0.26015 0.0
C1182 C 0.42859 0.95232 0.21863 0.0
C1183 C 0.47309 0.97221 0.29853 0.0
N1184 N 0.47593 0.92987 0.27957 0.0
C1185 C 0.4839 0.94742 0.2978 0.0
C1186 C 0.45495 0.97946 0.27983 0.0
Tb1187 Tb 0.49232 0.88866 0.27695 0.0
N1188 N 0.46995 0.89829 0.23977 0.0
C1189 C 0.47172 0.88399 0.21756 0.0
C1190 C 0.44146 0.9126 0.19625 0.0
C1191 C 0.45712 0.89061 0.19572 0.0
H1192 H 0.49795 0.94193 0.31228 0.0
H1193 H 0.45793 0.87869 0.17853 0.0
H1194 H 0.41685 0.95844 0.20236 0.0
H1195 H 0.47889 0.98577 0.31339 0.0
H1196 H 0.48366 0.86691 0.21675 0.0
H1197 H 0.46371 0.87594 0.40144 0.0
H1198 H 0.43033 0.91778 0.17925 0.0
H1199 H 0.49478 0.77416 0.28863 0.0
H1200 H 0.45029 0.86906 0.35728 0.0
H1201 H 0.52705 0.74405 0.30572 0.0
H1202 H 0.42296 0.98806 0.23915 0.0
H1203 H 0.49751 0.8485 0.42103 0.0
H1204 H 0.52855 0.81191 0.41648 0.0
H1205 H 0.44704 0.99884 0.28008 0.0
H1206 H 0.54619 0.77624 0.39039 0.0
N1207 N 0.47727 0.83853 0.34931 0.0
C1208 C 0.46563 0.85712 0.36428 0.0
C1209 C 0.49185 0.84539 0.40107 0.0
C1210 C 0.50291 0.82565 0.38637 0.0
C1211 C 0.47291 0.86098 0.39004 0.0
C1212 C 0.49489 0.82243 0.36041 0.0
H1213 H 0.54565 0.75077 0.34925 0.0
N1214 N 0.49648 0.8 0.32101 0.0
C1215 C 0.52138 0.76071 0.31706 0.0
C1216 C 0.50493 0.80264 0.34571 0.0
C1217 C 0.50334 0.77831 0.30726 0.0
C1218 C 0.53171 0.76447 0.34164 0.0
C1219 C 0.52311 0.78529 0.35654 0.0
O1220 O 0.45005 0.79339 0.3038 0.0
O1221 O 0.46082 0.86004 0.27704 0.0
O1222 O 0.46092 0.90203 0.30143 0.0
O1223 O 0.4402 0.86387 0.31438 0.0
O1224 O 0.45263 0.82238 0.26757 0.0
O1225 O 0.43099 0.82409 0.32377 0.0
O1226 O 0.52763 0.90741 0.28555 0.0
O1227 O 0.50008 0.85661 0.30327 0.0
O1228 O 0.49407 0.81745 0.2751 0.0
O1229 O 0.50768 0.8559 0.25537 0.0
O1230 O 0.50906 0.89319 0.31552 0.0
O1231 O 0.51846 0.89693 0.24662 0.0
C1232 C 0.45162 0.84579 0.2591 0.0
C1233 C 0.42393 0.78158 0.33991 0.0
C1234 C 0.39982 0.74425 0.35747 0.0
C1235 C 0.40681 0.76039 0.33632 0.0
C1236 C 0.41081 0.74937 0.38185 0.0
C1237 C 0.43412 0.78608 0.36466 0.0
C1238 C 0.42777 0.77003 0.38534 0.0
C1239 C 0.44189 0.88972 0.31307 0.0
C1240 C 0.43044 0.79952 0.31827 0.0
C1241 C 0.53186 0.78901 0.38198 0.0
C1242 C 0.52178 0.8092 0.39685 0.0
C1243 C 0.51079 0.86913 0.32143 0.0
C1244 C 0.54487 0.93412 0.25292 0.0
C1245 C 0.57143 0.94026 0.25559 0.0
C1246 C 0.5808 0.96499 0.24857 0.0
C1247 C 0.56316 0.98329 0.23881 0.0
C1248 C 0.52793 0.95267 0.24268 0.0
C1249 C 0.53702 0.9771 0.23581 0.0
C1250 C 0.50752 0.83046 0.2574 0.0
C1251 C 0.53495 0.9087 0.26159 0.0
H1252 H 0.39855 0.75689 0.31737 0.0
H1253 H 0.40647 0.7372 0.39834 0.0
H1254 H 0.44678 0.80225 0.36822 0.0
H1255 H 0.43594 0.77373 0.40427 0.0
H1256 H 0.58465 0.92598 0.2634 0.0
H1257 H 0.56969 1.0023 0.23291 0.0
H1258 H 0.50767 0.94832 0.23995 0.0
H1259 H 0.52375 0.9913 0.228 0.0
Tb1260 Tb 0.07228 0.212 0.80558 0.0
C1261 C 0.0802 0.10565 0.75808 0.0
C1262 C 0.09714 0.11487 0.71547 0.0
C1263 C 0.10766 0.07416 0.7365 0.0
C1264 C 0.08273 0.1223 0.73744 0.0
C1265 C 0.0918 0.081 0.75751 0.0
C1266 C 0.11037 0.09112 0.71551 0.0
C1267 C 0.06833 0.07052 0.79657 0.0
N1268 N 0.06437 0.11283 0.77775 0.0
C1269 C 0.05714 0.09515 0.79616 0.0
C1270 C 0.08605 0.06354 0.77737 0.0
Tb1271 Tb 0.0475 0.15388 0.7757 0.0
N1272 N 0.06906 0.14469 0.73792 0.0
C1273 C 0.06691 0.15927 0.71592 0.0
C1274 C 0.09672 0.13089 0.69368 0.0
C1275 C 0.08107 0.15289 0.69372 0.0
H1276 H 0.04346 0.10045 0.81107 0.0
H1277 H 0.07996 0.16502 0.67669 0.0
H1278 H 0.12183 0.08522 0.69897 0.0
H1279 H 0.06318 0.05688 0.8116 0.0
H1280 H 0.05503 0.17641 0.71551 0.0
H1281 H 0.07293 0.16563 0.9004 0.0
H1282 H 0.10755 0.12593 0.67643 0.0
H1283 H 0.04575 0.26869 0.7876 0.0
H1284 H 0.08656 0.17192 0.85619 0.0
H1285 H 1.01412 0.2996 0.80448 0.0
H1286 H 0.11706 0.05544 0.73584 0.0
H1287 H 0.04027 0.19442 0.92 0.0
H1288 H 1.0105 0.23203 0.91539 0.0
H1289 H 0.0943 0.0443 0.77742 0.0
H1290 H 0.99404 0.26821 0.88925 0.0
N1291 N 0.06138 0.204 0.84849 0.0
C1292 C 0.07203 0.18475 0.86336 0.0
C1293 C 0.04617 0.19741 0.9001 0.0
C1294 C 0.03588 0.21755 0.8854 0.0
C1295 C 0.06449 0.18109 0.88907 0.0
C1296 C 0.04418 0.2206 0.8595 0.0
H1297 H 0.99528 0.29349 0.84799 0.0
N1298 N 0.04338 0.24304 0.82008 0.0
C1299 C 1.01937 0.28286 0.8159 0.0
C1300 C 0.03475 0.24065 0.84474 0.0
C1301 C 0.03704 0.26481 0.80622 0.0
C1302 C 1.0089 0.27943 0.84047 0.0
C1303 C 1.01695 0.25846 0.85546 0.0
O1304 O 0.08993 0.24898 0.80383 0.0
O1305 O 0.07868 0.18277 0.77618 0.0
O1306 O 0.07966 0.14066 0.7993 0.0
O1307 O 0.09924 0.17877 0.81413 0.0
O1308 O 0.08759 0.22049 0.76732 0.0
O1309 O 0.10839 0.21782 0.82367 0.0
O1310 O 1.01271 0.13435 0.7846 0.0
O1311 O 0.03968 0.18568 0.8023 0.0
O1312 O 0.04558 0.22521 0.77444 0.0
O1313 O 0.03204 0.18682 0.75449 0.0
O1314 O 0.03064 0.14901 0.81421 0.0
O1315 O 1.02077 0.14608 0.74575 0.0
C1316 C 0.08826 0.19717 0.75857 0.0
C1317 C 0.11561 0.26002 0.84052 0.0
C1318 C 0.13959 0.297 0.85895 0.0
C1319 C 0.1327 0.28131 0.83743 0.0
C1320 C 0.12849 0.29139 0.88316 0.0
C1321 C 0.10536 0.25497 0.86515 0.0
C1322 C 0.11156 0.27064 0.88616 0.0
C1323 C 0.09815 0.15299 0.81179 0.0
C1324 C 0.10925 0.24246 0.81852 0.0
C1325 C 1.00802 0.25502 0.88088 0.0
C1326 C 1.01746 0.23455 0.8958 0.0
C1327 C 0.02886 0.17303 0.82028 0.0
C1328 C 0.99499 0.10839 0.75165 0.0
C1329 C 0.96854 0.10196 0.75457 0.0
C1330 C 0.95928 0.07731 0.74718 0.0
C1331 C 0.97692 0.05937 0.73677 0.0
C1332 C 1.01194 0.0902 0.74078 0.0
C1333 C 1.00295 0.06584 0.73352 0.0
C1334 C 0.0322 0.21224 0.75666 0.0
C1335 C 1.00482 0.13367 0.76079 0.0
H1336 H 0.14105 0.28521 0.8186 0.0
H1337 H 0.13278 0.30321 0.89992 0.0
H1338 H 0.09281 0.23866 0.86837 0.0
H1339 H 0.10334 0.26652 0.90499 0.0
H1340 H 0.95532 0.11596 0.7629 0.0
H1341 H 0.97045 0.04042 0.73059 0.0
H1342 H 0.03213 0.09478 0.73788 0.0
H1343 H 1.01623 0.05192 0.72522 0.0
Tb1344 Tb 0.73471 0.9697 0.71248 0.0
C1345 C 0.78273 0.95945 0.60567 0.0
C1346 C 0.82514 0.94187 0.61475 0.0
C1347 C 0.80392 0.93194 0.57396 0.0
C1348 C 0.80339 0.95657 0.62228 0.0
C1349 C 0.78307 0.94792 0.58097 0.0
C1350 C 0.82492 0.92886 0.59088 0.0
C1351 C 0.74385 0.97133 0.57091 0.0
N1352 N 0.76317 0.97531 0.61305 0.0
C1353 C 0.74448 0.98242 0.59559 0.0
C1354 C 0.76307 0.95376 0.56368 0.0
Tb1355 Tb 0.76566 0.99225 0.65405 0.0
N1356 N 0.80308 0.97 0.64483 0.0
C1357 C 0.82508 0.97149 0.65954 0.0
C1358 C 0.84689 0.9417 0.63085 0.0
C1359 C 0.84704 0.957 0.65308 0.0
H1360 H 0.72957 0.99602 0.60105 0.0
H1361 H 0.86404 0.95762 0.66531 0.0
H1362 H 0.84131 0.91723 0.58489 0.0
H1363 H 0.72866 0.97647 0.55744 0.0
H1364 H 0.82571 0.98308 0.67685 0.0
H1365 H 0.64048 0.96841 0.66468 0.0
H1366 H 0.86397 0.93061 0.62582 0.0
H1367 H 0.75247 0.99834 0.7684 0.0
H1368 H 0.68468 0.95496 0.67167 0.0
H1369 H 0.73538 0.0311 0.79793 0.0
H1370 H 0.80442 0.92264 0.55519 0.0
H1371 H 0.62057 1.00154 0.69267 0.0
H1372 H 0.62489 0.03227 0.72946 0.0
H1373 H 0.76287 0.94559 0.54439 0.0
H1374 H 0.65083 0.04996 0.7652 0.0
N1375 N 0.69198 0.98054 0.70349 0.0
C1376 C 0.67733 0.96963 0.6842 0.0
C1377 C 0.64044 0.99566 0.69601 0.0
C1378 C 0.65497 1.00638 0.71608 0.0
C1379 C 0.65165 0.97708 0.68014 0.0
C1380 C 0.68085 0.99811 0.71961 0.0
H1381 H 0.69195 0.04976 0.7907 0.0
N1382 N 0.72041 1.00014 0.74207 0.0
C1383 C 0.72413 0.02532 0.78123 0.0
C1384 C 0.6956 1.00841 0.73933 0.0
C1385 C 0.73396 1.00703 0.76391 0.0
C1386 C 0.69959 0.03566 0.77719 0.0
C1387 C 0.68473 0.0268 0.75644 0.0
O1388 O 0.71065 0.93846 0.72271 0.0
O1389 O 0.76404 0.96185 0.68362 0.0
O1390 O 0.742 0.95987 0.6415 0.0
O1391 O 0.7264 0.94153 0.68004 0.0
O1392 O 0.77185 0.95192 0.7213 0.0
O1393 O 0.73888 0.95285 0.7495 0.0
O1394 O 0.75742 0.02691 0.63409 0.0
O1395 O 0.739 1.00151 0.68553 0.0
O1396 O 0.76551 0.99691 0.72504 0.0
O1397 O 0.78768 1.00692 0.68679 0.0
O1398 O 0.72742 1.00967 0.64853 0.0
O1399 O 0.79604 1.01853 0.64657 0.0
C1400 C 0.78108 0.95148 0.69817 0.0
C1401 C 0.72585 0.90912 0.75463 0.0
C1402 C 0.7193 0.87463 0.78683 0.0
C1403 C 0.71594 0.90056 0.7787 0.0
C1404 C 0.73309 0.85768 0.77056 0.0
C1405 C 0.73969 0.8918 0.73902 0.0
C1406 C 0.74328 0.86626 0.74701 0.0
C1407 C 0.72906 0.94193 0.65418 0.0
C1408 C 0.72079 0.93582 0.74566 0.0
C1409 C 0.65928 0.03551 0.75257 0.0
C1410 C 0.64446 0.02535 0.73238 0.0
C1411 C 0.72127 1.01223 0.67247 0.0
C1412 C 0.79104 0.04463 0.60895 0.0
C1413 C 0.78831 0.07112 0.60284 0.0
C1414 C 0.7969 0.08093 0.57875 0.0
C1415 C 0.8082 0.06361 0.56101 0.0
C1416 C 0.80249 0.02797 0.59088 0.0
C1417 C 0.81093 0.03743 0.56706 0.0
C1418 C 0.78454 1.00839 0.71207 0.0
C1419 C 0.78131 0.0346 0.63392 0.0
H1420 H 0.70519 0.91389 0.7908 0.0
H1421 H 0.73638 0.8378 0.77627 0.0
H1422 H 0.74752 0.89799 0.72057 0.0
H1423 H 0.75398 0.85299 0.73483 0.0
H1424 H 0.77929 0.08396 0.61675 0.0
H1425 H 0.81551 0.07035 0.54257 0.0
H1426 H 0.80501 1.00769 0.59518 0.0
H1427 H 0.81982 0.02442 0.55326 0.0
Tb1428 Tb 0.8046 0.07291 0.21157 0.0
C1429 C 0.75709 0.0807 0.10489 0.0
C1430 C 0.71434 0.09737 0.11406 0.0
C1431 C 0.73544 0.10809 0.0734 0.0
C1432 C 0.73637 0.08307 0.1215 0.0
C1433 C 0.75654 0.09237 0.08026 0.0
C1434 C 0.71436 0.11063 0.09032 0.0
C1435 C 0.79588 0.06931 0.06987 0.0
N1436 N 0.77686 0.06503 0.11211 0.0
C1437 C 0.79544 0.05803 0.09447 0.0
C1438 C 0.77656 0.08687 0.06287 0.0
Tb1439 Tb 0.77483 0.04814 0.15318 0.0
N1440 N 0.73692 0.06947 0.14394 0.0
C1441 C 0.71493 0.06734 0.15859 0.0
C1442 C 0.69254 0.09691 0.13011 0.0
C1443 C 0.69266 0.08138 0.15218 0.0
H1444 H 0.81045 0.04448 0.0998 0.0
H1445 H 0.67564 0.08026 0.16435 0.0
H1446 H 0.69776 0.12201 0.08441 0.0
H1447 H 0.81105 0.06436 0.05629 0.0
H1448 H 0.71459 0.05556 0.17579 0.0
H1449 H 0.90002 0.07368 0.16623 0.0
H1450 H 0.67523 0.10766 0.12513 0.0
H1451 H 0.78622 0.04675 0.26833 0.0
H1452 H 0.85569 0.08724 0.17204 0.0
H1453 H 0.8028 1.01516 0.29943 0.0
H1454 H 0.73479 0.11754 0.0547 0.0
H1455 H 0.91933 0.041 0.19516 0.0
H1456 H 0.91431 1.01118 0.23269 0.0
H1457 H 0.77666 0.09522 0.04366 0.0
H1458 H 0.88776 0.99472 0.2686 0.0
N1459 N 0.84765 0.06206 0.20403 0.0
C1460 C 0.86274 0.07274 0.18495 0.0
C1461 C 0.89938 0.04688 0.19795 0.0
C1462 C 0.88444 0.03655 0.21791 0.0
C1463 C 0.88851 0.06522 0.18156 0.0
C1464 C 0.85849 0.04484 0.22071 0.0
H1465 H 0.84629 0.99611 0.29359 0.0
N1466 N 0.81886 0.04414 0.24283 0.0
C1467 C 0.81435 0.02031 0.28273 0.0
C1468 C 0.84352 0.03543 0.24061 0.0
C1469 C 0.80485 0.03796 0.26458 0.0
C1470 C 0.8389 1.00971 0.27945 0.0
C1471 C 0.85407 1.01765 0.25854 0.0
O1472 O 0.80223 0.09074 0.24845 0.0
O1473 O 0.77533 0.07917 0.18217 0.0
O1474 O 0.79825 0.08044 0.1401 0.0
O1475 O 0.81355 0.09963 0.17829 0.0
O1476 O 0.76623 0.0882 0.21979 0.0
O1477 O 0.8227 0.10895 0.21753 0.0
O1478 O 0.784 1.01346 0.13364 0.0
O1479 O 0.8015 0.04053 0.18501 0.0
O1480 O 0.77361 0.04602 0.22458 0.0
O1481 O 0.75361 0.03265 0.18612 0.0
O1482 O 0.81351 0.03168 0.14826 0.0
O1483 O 0.74507 0.02122 0.14542 0.0
C1484 C 0.75762 0.0888 0.19639 0.0
C1485 C 0.83873 0.11642 0.26006 0.0
C1486 C 0.85637 0.14052 0.2974 0.0
C1487 C 0.83519 0.13359 0.28123 0.0
C1488 C 0.88072 0.1294 0.29233 0.0
C1489 C 0.86347 0.10613 0.25561 0.0
C1490 C 0.88416 0.1124 0.2717 0.0
C1491 C 0.81107 0.09864 0.15249 0.0
C1492 C 0.81708 0.10997 0.24208 0.0
C1493 C 0.87952 1.00869 0.25532 0.0
C1494 C 0.89467 1.01812 0.235 0.0
C1495 C 0.8196 0.02996 0.1723 0.0
C1496 C 0.75112 0.99537 0.10777 0.0
C1497 C 0.75384 0.96887 0.10158 0.0
C1498 C 0.74645 0.95946 0.07695 0.0
C1499 C 0.73623 0.977 0.05882 0.0
C1500 C 0.74044 1.01221 0.08939 0.0
C1501 C 0.73317 1.00308 0.06507 0.0
C1502 C 0.75583 0.0327 0.21157 0.0
C1503 C 0.76024 1.00537 0.13303 0.0
H1504 H 0.81626 0.14194 0.28468 0.0
H1505 H 0.89723 0.13368 0.30453 0.0
H1506 H 0.86701 0.09345 0.23944 0.0
H1507 H 0.90308 0.10415 0.26804 0.0
H1508 H 0.76202 0.95572 0.11573 0.0
H1509 H 0.73005 0.97043 0.0399 0.0
H1510 H 0.7377 0.03243 0.09378 0.0
H1511 H 0.72501 1.01627 0.051 0.0
Tb1512 Tb 0.23537 0.57145 0.32897 0.0
C1513 C 0.28162 0.58108 0.43636 0.0
C1514 C 0.32417 0.59867 0.42798 0.0
C1515 C 0.30236 0.60843 0.46849 0.0
C1516 C 0.30255 0.584 0.42008 0.0
C1517 C 0.28161 0.59249 0.46111 0.0
C1518 C 0.32359 0.61158 0.45189 0.0
C1519 C 0.24235 0.56892 0.47058 0.0
N1520 N 0.26219 0.56521 0.42866 0.0
C1521 C 0.24333 0.55793 0.44587 0.0
C1522 C 0.2614 0.58654 0.47812 0.0
Tb1523 Tb 0.26539 0.54833 0.38769 0.0
N1524 N 0.3026 0.57062 0.39749 0.0
C1525 C 0.3248 0.56922 0.38307 0.0
C1526 C 0.34616 0.5989 0.41219 0.0
C1527 C 0.34665 0.58369 0.38991 0.0
H1528 H 0.22857 0.54427 0.44016 0.0
H1529 H 0.36383 0.58313 0.37792 0.0
H1530 H 0.33989 0.62319 0.45816 0.0
H1531 H 0.22702 0.56366 0.48385 0.0
H1532 H 0.32568 0.55768 0.36573 0.0
H1533 H 0.14062 0.57244 0.3757 0.0
H1534 H 0.36316 0.60997 0.41752 0.0
H1535 H 0.25387 0.54312 0.27314 0.0
H1536 H 0.18493 0.58584 0.36937 0.0
H1537 H 0.23709 0.51069 0.2431 0.0
H1538 H 0.30261 0.61762 0.48733 0.0
H1539 H 0.12094 0.53973 0.34708 0.0
H1540 H 0.12556 0.50952 0.30985 0.0
H1541 H 0.26094 0.5946 0.49744 0.0
H1542 H 0.15193 0.49208 0.27431 0.0
N1543 N 0.19254 0.56058 0.33737 0.0
C1544 C 0.17769 0.57133 0.3566 0.0
C1545 C 0.14087 0.54555 0.34405 0.0
C1546 C 0.15561 0.535 0.32404 0.0
C1547 C 0.15194 0.5639 0.36028 0.0
C1548 C 0.18157 0.5432 0.32094 0.0
H1549 H 0.19347 0.49221 0.2495 0.0
N1550 N 0.22141 0.54126 0.29898 0.0
C1551 C 0.22562 0.51638 0.25968 0.0
C1552 C 0.19655 0.53306 0.3013 0.0
C1553 C 0.23527 0.53447 0.2773 0.0
C1554 C 0.20097 0.50614 0.26325 0.0
C1555 C 0.18584 0.51488 0.28386 0.0
O1556 O 0.21149 0.60282 0.31863 0.0
O1557 O 0.26428 0.57901 0.35833 0.0
O1558 O 0.24142 0.58055 0.4001 0.0
O1559 O 0.22679 0.5995 0.36148 0.0
O1560 O 0.27269 0.5891 0.32082 0.0
O1561 O 0.24004 0.58856 0.29211 0.0
O1562 O 0.25687 0.51347 0.40719 0.0
O1563 O 0.2393 0.53941 0.35569 0.0
O1564 O 0.26638 0.54436 0.31664 0.0
O1565 O 0.2878 0.53374 0.35516 0.0
O1566 O 0.2271 0.53073 0.39236 0.0
O1567 O 0.29577 0.52226 0.39605 0.0
C1568 C 0.28156 0.58942 0.3441 0.0
C1569 C 0.227 0.63233 0.28697 0.0
C1570 C 0.22064 0.66702 0.25491 0.0
C1571 C 0.21722 0.64104 0.26288 0.0
C1572 C 0.23434 0.68385 0.27136 0.0
C1573 C 0.24075 0.64955 0.30275 0.0
C1574 C 0.24439 0.67513 0.29492 0.0
C1575 C 0.22894 0.5988 0.38739 0.0
C1576 C 0.22188 0.60557 0.29581 0.0
C1577 C 0.16029 0.50629 0.28725 0.0
C1578 C 0.14523 0.51631 0.30735 0.0
C1579 C 0.22138 0.52847 0.36828 0.0
C1580 C 0.28974 0.49628 0.43366 0.0
C1581 C 0.2869 0.46984 0.44009 0.0
C1582 C 0.29404 0.46065 0.46488 0.0
C1583 C 0.30414 0.47836 0.48293 0.0
C1584 C 0.30023 0.51329 0.45199 0.0
C1585 C 0.30728 0.50437 0.47646 0.0
C1586 C 0.28513 0.53261 0.3298 0.0
C1587 C 0.28083 0.50603 0.40823 0.0
H1588 H 0.20654 0.62778 0.25064 0.0
H1589 H 0.23767 0.70376 0.26579 0.0
H1590 H 0.24847 0.64326 0.32121 0.0
H1591 H 0.25503 0.68832 0.30723 0.0
H1592 H 0.27881 0.45659 0.426 0.0
H1593 H 0.31016 0.47198 0.50196 0.0
H1594 H 0.30299 0.53347 0.44744 0.0
H1595 H 0.31531 0.51769 0.49048 0.0
Tb1596 Tb 0.30524 0.4671 0.83099 0.0
C1597 C 0.25711 0.45998 0.9374 0.0
C1598 C 0.21438 0.44331 0.92817 0.0
C1599 C 0.23529 0.43286 0.969 0.0
C1600 C 0.23647 0.45751 0.92071 0.0
C1601 C 0.25644 0.44849 0.96211 0.0
C1602 C 0.21428 0.43024 0.95201 0.0
C1603 C 0.29577 0.47156 0.9725 0.0
N1604 N 0.27693 0.47557 0.93015 0.0
C1605 C 0.29544 0.48266 0.94782 0.0
C1606 C 0.27639 0.45409 0.97955 0.0
Tb1607 Tb 0.27507 0.49221 0.88897 0.0
N1608 N 0.2371 0.47099 0.8982 0.0
C1609 C 0.21515 0.47316 0.88352 0.0
C1610 C 0.19262 0.44376 0.91206 0.0
C1611 C 0.19283 0.45921 0.88993 0.0
H1612 H 0.31049 0.49615 0.94246 0.0
H1613 H 0.17583 0.46034 0.87773 0.0
H1614 H 0.19763 0.41895 0.95794 0.0
H1615 H 0.31087 0.47659 0.98612 0.0
H1616 H 0.21487 0.48489 0.86628 0.0
H1617 H 0.40014 0.46569 0.87744 0.0
H1618 H 0.17528 0.43308 0.91705 0.0
H1619 H 0.28755 0.49362 0.77415 0.0
H1620 H 0.35569 0.45273 0.87138 0.0
H1621 H 0.30476 0.52494 0.74315 0.0
H1622 H 0.23454 0.42357 0.98777 0.0
H1623 H 0.42017 0.49777 0.84835 0.0
H1624 H 0.41592 0.52732 0.81052 0.0
H1625 H 0.27639 0.44589 0.99882 0.0
H1626 H 0.38984 0.54406 0.7744 0.0
N1627 N 0.34828 0.47767 0.83904 0.0
C1628 C 0.36304 0.46699 0.85838 0.0
C1629 C 0.40016 0.49216 0.84544 0.0
C1630 C 0.38554 0.50256 0.82528 0.0
C1631 C 0.38889 0.47416 0.86192 0.0
C1632 C 0.35949 0.49463 0.82234 0.0
H1633 H 0.34848 0.54332 0.74923 0.0
N1634 N 0.32003 0.4958 0.7999 0.0
C1635 C 0.31611 0.51965 0.75995 0.0
C1636 C 0.3448 0.50417 0.80228 0.0
C1637 C 0.30625 0.50218 0.77805 0.0
C1638 C 0.3408 0.52987 0.76336 0.0
C1639 C 0.35572 0.52175 0.78437 0.0
O1640 O 0.30342 0.44944 0.79399 0.0
O1641 O 0.27561 0.46106 0.86009 0.0
O1642 O 0.29819 0.45983 0.90239 0.0
O1643 O 0.31367 0.44035 0.86443 0.0
O1644 O 0.26694 0.45193 0.82237 0.0
O1645 O 0.32311 0.43091 0.82523 0.0
O1646 O 0.28413 0.52702 0.90832 0.0
O1647 O 0.30201 0.49966 0.85731 0.0
O1648 O 0.27438 0.49402 0.81761 0.0
O1649 O 0.25403 0.50754 0.85584 0.0
O1650 O 0.31374 0.50863 0.8941 0.0
O1651 O 0.24525 0.51916 0.89646 0.0
C1652 C 0.25803 0.4515 0.84565 0.0
C1653 C 0.34003 0.42362 0.783 0.0
C1654 C 0.35832 0.39997 0.7457 0.0
C1655 C 0.3368 0.40694 0.76141 0.0
C1656 C 0.38268 0.41062 0.75161 0.0
C1657 C 0.36481 0.4334 0.78833 0.0
C1658 C 0.38582 0.42715 0.77265 0.0
C1659 C 0.31093 0.44144 0.89021 0.0
C1660 C 0.31801 0.43008 0.80055 0.0
C1661 C 0.38129 0.5303 0.78771 0.0
C1662 C 0.39617 0.52071 0.80815 0.0
C1663 C 0.32003 0.51023 0.87011 0.0
C1664 C 0.25114 0.54518 0.93399 0.0
C1665 C 0.2539 0.57169 0.94009 0.0
C1666 C 0.24645 0.58121 0.96465 0.0
C1667 C 0.23615 0.56377 0.98283 0.0
C1668 C 0.24036 0.52844 0.95241 0.0
C1669 C 0.23304 0.53768 0.97668 0.0
C1670 C 0.25647 0.50742 0.83042 0.0
C1671 C 0.26035 0.53508 0.90882 0.0
H1672 H 0.31786 0.39894 0.75728 0.0
H1673 H 0.39945 0.40628 0.73979 0.0
H1674 H 0.36813 0.44563 0.80487 0.0
H1675 H 0.40476 0.43501 0.77699 0.0
H1676 H 0.26215 0.58476 0.92592 0.0
H1677 H 0.22993 0.57043 1.00171 0.0
H1678 H 0.23758 0.50822 0.94808 0.0
H1679 H 0.22482 0.52456 0.99077 0.0
Tb1680 Tb 0.71061 0.73577 0.9688 0.0
C1681 C 0.60387 0.78181 0.96067 0.0
C1682 C 0.61306 0.82398 0.94279 0.0
C1683 C 0.57232 0.8027 0.93275 0.0
C1684 C 0.62053 0.80236 0.95765 0.0
C1685 C 0.57917 0.78211 0.9491 0.0
C1686 C 0.58929 0.82361 0.92954 0.0
C1687 C 0.56863 0.7438 0.97369 0.0
N1688 N 0.61105 0.76261 0.97703 0.0
C1689 C 0.59332 0.74448 0.98482 0.0
C1690 C 0.56166 0.76246 0.95543 0.0
Tb1691 Tb 0.65222 0.76497 0.99369 0.0
N1692 N 0.64286 0.80226 0.97146 0.0
C1693 C 0.65724 0.8244 0.97341 0.0
C1694 C 0.62897 0.84585 0.94293 0.0
C1695 C 0.65082 0.84628 0.95882 0.0
H1696 H 0.59861 0.73 0.99892 0.0
H1697 H 0.6628 0.86342 0.95979 0.0
H1698 H 0.58335 0.83989 0.91775 0.0
H1699 H 0.55494 0.72899 0.97931 0.0
H1700 H 0.67425 0.82512 0.9855 0.0
H1701 H 0.66545 0.64046 0.96529 0.0
H1702 H 0.62396 0.86287 0.93178 0.0
H1703 H 0.76699 0.75354 0.99636 0.0
H1704 H 0.67183 0.68478 0.95228 0.0
H1705 H 0.79738 0.73648 0.02837 0.0
H1706 H 0.55355 0.80316 0.92339 0.0
H1707 H 0.69348 0.62075 0.99853 0.0
H1708 H 0.73041 0.62523 0.02921 0.0
H1709 H 0.54238 0.76221 0.94721 0.0
H1710 H 0.76601 0.65144 0.04686 0.0
N1711 N 0.70278 0.69264 0.97884 0.0
C1712 C 0.68408 0.67768 0.96733 0.0
C1713 C 0.69639 0.64076 0.99303 0.0
C1714 C 0.71613 0.65549 1.00405 0.0
C1715 C 0.68048 0.65186 0.9744 0.0
C1716 C 0.71909 0.68153 0.99625 0.0
H1717 H 0.79107 0.69281 0.04666 0.0
N1718 N 0.74129 0.72104 0.99799 0.0
C1719 C 0.78074 0.72508 0.02272 0.0
C1720 C 0.73885 0.69629 1.0063 0.0
C1721 C 0.76296 0.73487 1.00484 0.0
C1722 C 0.7772 0.70042 0.03288 0.0
C1723 C 0.75642 0.68545 0.02428 0.0
O1724 O 0.74786 0.73794 0.95163 0.0
O1725 O 0.68107 0.76484 0.9624 0.0
O1726 O 0.63897 0.74062 0.96218 0.0
O1727 O 0.6773 0.72754 0.94171 0.0
O1728 O 0.71877 0.77434 0.95419 0.0
O1729 O 0.71698 0.7183 0.93249 0.0
O1730 O 0.63339 0.7562 0.0289 0.0
O1731 O 0.68425 0.73856 1.00142 0.0
O1732 O 0.7236 0.76683 0.99563 0.0
O1733 O 0.68501 0.78638 1.00929 0.0
O1734 O 0.64748 0.72636 1.01012 0.0
O1735 O 0.64377 0.79516 1.01991 0.0
C1736 C 0.6953 0.78276 0.95318 0.0
C1737 C 0.75943 0.70181 0.92545 0.0
C1738 C 0.79681 0.68397 0.9015 0.0
C1739 C 0.78084 0.70525 0.90853 0.0
C1740 C 0.79131 0.6596 0.91229 0.0
C1741 C 0.75453 0.67704 0.93537 0.0
C1742 C 0.77043 0.65624 0.92903 0.0
C1743 C 0.6514 0.72893 0.94325 0.0
C1744 C 0.74164 0.72358 0.93199 0.0
C1745 C 0.75299 0.65991 0.03277 0.0
C1746 C 0.73285 0.64496 0.02266 0.0
C1747 C 0.67157 0.72039 1.01189 0.0
C1748 C 0.60664 0.78866 0.04642 0.0
C1749 C 0.60086 0.78638 0.07307 0.0
C1750 C 0.57616 0.79333 0.08267 0.0
C1751 C 0.55749 0.8026 0.06513 0.0
C1752 C 0.58773 0.79841 0.02957 0.0
C1753 C 0.56331 0.80519 0.03888 0.0
C1754 C 0.71049 0.7844 1.00914 0.0
C1755 C 0.63207 0.78009 0.03634 0.0
H1756 H 0.78464 0.7242 0.90045 0.0
H1757 H 0.80334 0.64301 0.90792 0.0
H1758 H 0.73817 0.67356 0.9478 0.0
H1759 H 0.76642 0.63731 0.937 0.0
H1760 H 0.61543 0.77893 0.0862 0.0
H1761 H 0.53849 0.80845 0.07181 0.0
H1762 H 0.5918 0.80083 1.00922 0.0
H1763 H 0.54883 0.81263 0.02568 0.0
Tb1764 Tb 0.2112 0.80596 0.07083 0.0
C1765 C 0.10436 0.75982 0.08138 0.0
C1766 C 0.11346 0.71794 0.1 0.0
C1767 C 0.07266 0.73937 0.10946 0.0
C1768 C 0.12098 0.73928 0.08477 0.0
C1769 C 0.07963 0.75974 0.0929 0.0
C1770 C 0.08962 0.71852 0.11309 0.0
C1771 C 0.06934 0.79797 0.06808 0.0
N1772 N 0.11163 0.77882 0.06483 0.0
C1773 C 0.09404 0.79708 0.057 0.0
C1774 C 0.06221 0.77941 0.08636 0.0
Tb1775 Tb 0.15266 0.7759 0.04792 0.0
N1776 N 0.14339 0.73913 0.07106 0.0
C1777 C 0.15784 0.71698 0.06971 0.0
C1778 C 0.12943 0.69611 0.10043 0.0
C1779 C 0.1514 0.69542 0.08474 0.0
H1780 H 0.0994 0.81144 0.0428 0.0
H1781 H 0.16344 0.67829 0.08423 0.0
H1782 H 0.08362 0.70243 0.12511 0.0
H1783 H 0.05575 0.81284 0.06236 0.0
H1784 H 0.17493 0.71598 0.05778 0.0
H1785 H 0.16489 0.90077 0.07392 0.0
H1786 H 0.12438 0.67931 0.1119 0.0
H1787 H 0.26692 0.78806 0.04173 0.0
H1788 H 0.17175 0.85658 0.08713 0.0
H1789 H 0.29627 0.80502 1.00875 0.0
H1790 H 0.05383 0.73904 0.11872 0.0
H1791 H 0.19243 0.92047 0.04029 0.0
H1792 H 0.22876 0.91594 1.00897 0.0
H1793 H 0.04289 0.77977 0.09447 0.0
H1794 H 0.26404 0.88978 0.99064 0.0
N1795 N 0.20264 0.84885 0.06049 0.0
C1796 C 0.18386 0.86371 0.07201 0.0
C1797 C 0.19562 0.90054 0.04594 0.0
C1798 C 0.21534 0.88587 0.03478 0.0
C1799 C 0.17997 0.88945 0.06479 0.0
C1800 C 0.21866 0.85992 0.04278 0.0
H1801 H 0.2892 0.84851 0.99033 0.0
N1802 N 0.24075 0.82025 0.04029 0.0
C1803 C 0.27969 0.81634 1.01473 0.0
C1804 C 0.23813 0.84506 0.03217 0.0
C1805 C 0.26244 0.80658 0.03314 0.0
C1806 C 0.27574 0.84092 1.00452 0.0
C1807 C 0.25517 0.85587 1.01365 0.0
O1808 O 0.22146 0.82931 0.10263 0.0
O1809 O 0.18199 0.77702 0.07877 0.0
O1810 O 0.13996 0.80057 0.07941 0.0
O1811 O 0.17859 0.81415 0.09903 0.0
O1812 O 0.21974 0.76842 0.08767 0.0
O1813 O 0.24833 0.80162 0.0875 0.0
O1814 O 0.13365 0.78395 1.01263 0.0
O1815 O 0.18445 0.80222 0.0387 0.0
O1816 O 0.22365 0.77504 0.04371 0.0
O1817 O 0.18516 0.75368 0.03298 0.0
O1818 O 0.14745 0.81416 0.03072 0.0
O1819 O 0.14376 0.74514 0.02252 0.0
C1820 C 0.19646 0.75959 0.08859 0.0
C1821 C 0.25368 0.81375 0.13152 0.0
C1822 C 0.28588 0.82009 0.16612 0.0
C1823 C 0.2776 0.82392 0.14028 0.0
C1824 C 0.26993 0.80559 0.18277 0.0
C1825 C 0.23839 0.79921 0.14854 0.0
C1826 C 0.24655 0.79514 0.17398 0.0
C1827 C 0.15263 0.8126 0.09796 0.0
C1828 C 0.24449 0.81929 0.10494 0.0
C1829 C 0.25146 0.88137 1.00515 0.0
C1830 C 0.23153 0.89631 1.01568 0.0
C1831 C 0.17146 0.82013 0.02819 0.0
C1832 C 0.10651 0.75139 0.99604 0.0
C1833 C 0.1003 0.75393 0.96951 0.0
C1834 C 0.07542 0.74715 0.96025 0.0
C1835 C 0.05704 0.73772 0.978 0.0
C1836 C 0.08785 0.74156 1.01311 0.0
C1837 C 0.06328 0.73487 1.00413 0.0
C1838 C 0.21052 0.75639 0.03183 0.0
C1839 C 0.13208 0.75991 1.00579 0.0
H1840 H 0.28945 0.83521 0.12717 0.0
H1841 H 0.27577 0.80194 0.20257 0.0
H1842 H 0.22007 0.79119 0.14221 0.0
H1843 H 0.23463 0.78388 0.18702 0.0
H1844 H 0.11464 0.76151 0.95621 0.0
H1845 H 0.03792 0.73199 0.97158 0.0
H1846 H 0.09222 0.73903 0.03339 0.0
H1847 H 0.04901 0.72736 1.0175 0.0
Tb1848 Tb 0.32937 0.23694 0.57371 0.0
C1849 C 0.43595 0.28441 0.58048 0.0
C1850 C 0.42685 0.32701 0.59739 0.0
C1851 C 0.46772 0.30602 0.60759 0.0
C1852 C 0.4193 0.30504 0.5831 0.0
C1853 C 0.46074 0.285 0.59187 0.0
C1854 C 0.45075 0.327 0.6104 0.0
C1855 C 0.47103 0.24589 0.56845 0.0
N1856 N 0.42863 0.26472 0.56477 0.0
C1857 C 0.44628 0.24629 0.55746 0.0
C1858 C 0.47816 0.26512 0.58604 0.0
Tb1859 Tb 0.38736 0.26673 0.54829 0.0
N1860 N 0.39674 0.30452 0.56966 0.0
C1861 C 0.38209 0.32649 0.56761 0.0
C1862 C 0.41077 0.34877 0.59708 0.0
C1863 C 0.38859 0.34869 0.58165 0.0
H1864 H 0.44085 0.23136 0.54387 0.0
H1865 H 0.37642 0.3657 0.58062 0.0
H1866 H 0.45675 0.34356 0.62176 0.0
H1867 H 0.48464 0.23084 0.56324 0.0
H1868 H 0.36482 0.32685 0.5559 0.0
H1869 H 0.37586 0.14216 0.57614 0.0
H1870 H 0.41583 0.36603 0.60783 0.0
H1871 H 0.27266 0.25433 0.54654 0.0
H1872 H 0.36923 0.18635 0.58931 0.0
H1873 H 0.24214 0.23702 0.5148 0.0
H1874 H 0.48654 0.3067 0.61682 0.0
H1875 H 0.34753 0.1222 0.54333 0.0
H1876 H 0.31019 0.12638 0.51316 0.0
H1877 H 0.4975 0.26507 0.59413 0.0
H1878 H 0.27407 0.15224 0.49602 0.0
N1879 N 0.33759 0.1939 0.56346 0.0
C1880 C 0.35671 0.17914 0.57456 0.0
C1881 C 0.34444 0.14215 0.54896 0.0
C1882 C 0.32435 0.15668 0.53829 0.0
C1883 C 0.36051 0.15338 0.56735 0.0
C1884 C 0.32116 0.18266 0.54624 0.0
H1885 H 0.24862 0.19337 0.49652 0.0
N1886 N 0.29858 0.22198 0.54475 0.0
C1887 C 0.25891 0.22574 0.52034 0.0
C1888 C 0.30113 0.19724 0.53645 0.0
C1889 C 0.27677 0.23567 0.53805 0.0
C1890 C 0.26253 0.20108 0.51019 0.0
C1891 C 0.2835 0.18627 0.51862 0.0
O1892 O 0.29219 0.23871 0.59107 0.0
O1893 O 0.35867 0.26636 0.57969 0.0
O1894 O 0.40088 0.2433 0.58037 0.0
O1895 O 0.3629 0.22868 0.60047 0.0
O1896 O 0.32099 0.27523 0.58891 0.0
O1897 O 0.32338 0.21934 0.61002 0.0
O1898 O 0.40642 0.25766 0.51329 0.0
O1899 O 0.35549 0.24004 0.54091 0.0
O1900 O 0.31591 0.26798 0.54705 0.0
O1901 O 0.35423 0.28783 0.53302 0.0
O1902 O 0.39223 0.22811 0.53183 0.0
O1903 O 0.39509 0.29657 0.52146 0.0
C1904 C 0.34434 0.28399 0.58933 0.0
C1905 C 0.28112 0.20242 0.61724 0.0
C1906 C 0.24406 0.18412 0.64131 0.0
C1907 C 0.25972 0.20561 0.63423 0.0
C1908 C 0.24981 0.15984 0.63048 0.0
C1909 C 0.28628 0.17771 0.60727 0.0
C1910 C 0.27065 0.15673 0.61365 0.0
C1911 C 0.38872 0.23096 0.59905 0.0
C1912 C 0.29866 0.22437 0.61065 0.0
C1913 C 0.28711 0.16079 0.51003 0.0
C1914 C 0.30755 0.14604 0.51984 0.0
C1915 C 0.36817 0.22198 0.53025 0.0
C1916 C 0.43243 0.29035 0.49514 0.0
C1917 C 0.43833 0.28763 0.46856 0.0
C1918 C 0.46293 0.29483 0.45889 0.0
C1919 C 0.48136 0.30481 0.47628 0.0
C1920 C 0.45109 0.30081 0.51183 0.0
C1921 C 0.4754 0.30786 0.50245 0.0
C1922 C 0.32877 0.28566 0.53343 0.0
C1923 C 0.40718 0.28142 0.50536 0.0
H1924 H 0.25571 0.2245 0.64236 0.0
H1925 H 0.23802 0.1431 0.63491 0.0
H1926 H 0.30266 0.17442 0.5948 0.0
H1927 H 0.27486 0.13785 0.60565 0.0
H1928 H 0.42396 0.27963 0.45554 0.0
H1929 H 0.50027 0.31086 0.46953 0.0
H1930 H 0.44692 0.30356 0.53211 0.0
H1931 H 0.48969 0.31584 0.51553 0.0
Tb1932 Tb 0.82925 0.3051 0.47045 0.0
C1933 C 0.93683 0.25871 0.45998 0.0
C1934 C 0.92837 0.21631 0.44223 0.0
C1935 C 0.96897 0.238 0.43258 0.0
C1936 C 0.9205 0.23787 0.45699 0.0
C1937 C 0.96162 0.25869 0.44858 0.0
C1938 C 0.95231 0.21686 0.42932 0.0
C1939 C 0.97111 0.29785 0.47223 0.0
N1940 N 0.92914 0.2781 0.47589 0.0
C1941 C 0.94636 0.29692 0.48318 0.0
C1942 C 0.97867 0.27881 0.45461 0.0
Tb1943 Tb 0.88817 0.27492 0.49286 0.0
N1944 N 0.89789 0.23783 0.47037 0.0
C1945 C 0.88342 0.21568 0.47168 0.0
C1946 C 0.91252 0.1944 0.44188 0.0
C1947 C 0.89021 0.19392 0.45709 0.0
H1948 H 0.94067 0.31165 0.49686 0.0
H1949 H 0.87818 0.17679 0.45758 0.0
H1950 H 0.95856 0.20062 0.41765 0.0
H1951 H 0.98441 0.31312 0.47753 0.0
H1952 H 0.86607 0.21478 0.48322 0.0
H1953 H 0.87623 0.39955 0.46967 0.0
H1954 H 0.91782 0.17746 0.43074 0.0
H1955 H 0.7733 0.2867 0.49849 0.0
H1956 H 0.87001 0.35521 0.45642 0.0
H1957 H 0.74292 0.3036 0.53066 0.0
H1958 H 0.98783 0.23773 0.42339 0.0
H1959 H 0.84736 0.41932 0.50215 0.0
H1960 H 0.80994 0.41481 0.53221 0.0
H1961 H 0.99803 0.27923 0.44659 0.0
H1962 H 0.77419 0.38859 0.54945 0.0
N1963 N 0.83768 0.34783 0.48134 0.0
C1964 C 0.85705 0.36257 0.47072 0.0
C1965 C 0.84434 0.39942 0.49633 0.0
C1966 C 0.82423 0.38475 0.5068 0.0
C1967 C 0.8607 0.38829 0.47811 0.0
C1968 C 0.82114 0.35884 0.49862 0.0
H1969 H 0.74926 0.34717 0.54915 0.0
N1970 N 0.79911 0.31909 0.5005 0.0
C1971 C 0.75957 0.31501 0.52507 0.0
C1972 C 0.80142 0.34392 0.50868 0.0
C1973 C 0.77733 0.30531 0.50712 0.0
C1974 C 0.76311 0.33963 0.53533 0.0
C1975 C 0.78384 0.35467 0.52673 0.0
O1976 O 0.81852 0.32933 0.43949 0.0
O1977 O 0.85843 0.27615 0.46249 0.0
O1978 O 0.90041 0.29872 0.46045 0.0
O1979 O 0.86157 0.31364 0.44211 0.0
O1980 O 0.8207 0.26779 0.4531 0.0
O1981 O 0.79255 0.29997 0.45309 0.0
O1982 O 0.90756 0.28327 0.52785 0.0
O1983 O 0.85638 0.30116 0.50215 0.0
O1984 O 0.8173 0.27483 0.49853 0.0
O1985 O 0.85571 0.25242 0.50738 0.0
O1986 O 0.89324 0.31312 0.51043 0.0
O1987 O 0.89664 0.24445 0.51875 0.0
C1988 C 0.84398 0.2589 0.45236 0.0
C1989 C 0.78723 0.31385 0.40958 0.0
C1990 C 0.75523 0.32067 0.37489 0.0
C1991 C 0.76312 0.32367 0.40096 0.0
C1992 C 0.7718 0.30733 0.35785 0.0
C1993 C 0.80314 0.30048 0.39217 0.0
C1994 C 0.7954 0.29724 0.36648 0.0
C1995 C 0.88749 0.31133 0.44244 0.0
C1996 C 0.79591 0.31853 0.43647 0.0
C1997 C 0.78723 0.38019 0.53532 0.0
C1998 C 0.80744 0.39517 0.52541 0.0
C1999 C 0.8692 0.319 0.51291 0.0
C2000 C 0.9341 0.2505 0.545 0.0
C2001 C 0.94033 0.25327 0.5715 0.0
C2002 C 0.96511 0.24627 0.58085 0.0
C2003 C 0.98337 0.23638 0.56322 0.0
C2004 C 0.95263 0.24024 0.52804 0.0
C2005 C 0.9771 0.23332 0.53712 0.0
C2006 C 0.83047 0.25566 0.50952 0.0
C2007 C 0.90867 0.25932 0.53515 0.0
H2008 H 0.75079 0.33407 0.41438 0.0
H2009 H 0.76629 0.30431 0.33786 0.0
H2010 H 0.82163 0.29274 0.3984 0.0
H2011 H 0.8078 0.2869 0.35314 0.0
H2012 H 0.92608 0.26121 0.5847 0.0
H2013 H 1.00242 0.23048 0.56972 0.0
H2014 H 0.94824 0.23758 0.50779 0.0
H2015 H 0.99129 0.22546 0.52385 0.0
H2016 H 0.1516 0.38352 0.30779 0.0
H2017 H 0.23162 0.49272 0.32972 0.0
H2018 H 0.09182 0.43215 0.33957 0.0
H2019 H 0.17506 0.51278 0.38757 0.0
H2020 H 0.20429 0.45604 0.31649 0.0
H2021 H 0.18413 0.41591 0.32094 0.0
C2022 C 0.14539 0.4008 0.31787 0.0
C2023 C 0.11896 0.40511 0.32264 0.0
C2024 C 0.19795 0.46823 0.33228 0.0
C2025 C 0.15589 0.44259 0.33723 0.0
C2026 C 0.21341 0.48941 0.33959 0.0
C2027 C 0.20525 0.50625 0.35932 0.0
C2028 C 0.17419 0.46374 0.34493 0.0
C2029 C 0.18186 0.50059 0.37195 0.0
C2030 C 0.1639 0.41953 0.32499 0.0
C2031 C 0.11196 0.42806 0.33541 0.0
N2032 N 0.16703 0.48017 0.3643 0.0
N2033 N 0.13021 0.44577 0.3423 0.0
H2034 H 0.36622 0.52418 0.89049 0.0
H2035 H 0.38848 0.65148 0.80394 0.0
H2036 H 0.31223 0.54623 0.83094 0.0
H2037 H 0.4494 0.61113 0.84401 0.0
H2038 H 0.35769 0.61753 0.8178 0.0
H2039 H 0.3944 0.56004 0.8778 0.0
C2040 C 0.36037 0.53655 0.87461 0.0
C2041 C 0.33725 0.53168 0.86125 0.0
C2042 C 0.37775 0.61633 0.82379 0.0
C2043 C 0.36913 0.57361 0.84704 0.0
C2044 C 0.39522 0.63587 0.81618 0.0
C2045 C 0.42146 0.63434 0.8232 0.0
C2046 C 0.38656 0.59534 0.83882 0.0
C2047 C 0.4293 0.61324 0.83841 0.0
C2048 C 0.37646 0.55708 0.86737 0.0
C2049 C 0.33028 0.54883 0.84127 0.0
N2050 N 0.41203 0.59475 0.84573 0.0
N2051 N 0.34616 0.56901 0.83474 0.0
H2052 H 0.58953 0.11168 0.6982 0.0
H2053 H 0.73018 0.04887 0.71069 0.0
H2054 H 0.65192 0.15378 0.73395 0.0
H2055 H 0.67531 0.02701 0.65189 0.0
H2056 H 0.70183 0.08547 0.72265 0.0
H2057 H 0.62029 0.07868 0.68409 0.0
C2058 C 0.60987 0.1142 0.70268 0.0
C2059 C 0.61816 0.13574 0.71698 0.0
C2060 C 0.69606 0.07268 0.7071 0.0
C2061 C 0.65373 0.09741 0.70136 0.0
C2062 C 0.7121 0.05167 0.70044 0.0
C2063 C 0.70466 0.03436 0.6808 0.0
C2064 C 0.67241 0.07639 0.69403 0.0
C2065 C 0.6815 0.03948 0.66753 0.0
C2066 C 0.62745 0.09528 0.69468 0.0
C2067 C 0.64474 0.13775 0.72258 0.0
N2068 N 0.6661 0.05967 0.67461 0.0
N2069 N 0.66156 0.11868 0.71501 0.0
H2070 H 0.95127 0.93031 0.19807 0.0
H2071 H 0.81105 0.9941 0.21132 0.0
H2072 H 0.88873 0.88856 0.23401 0.0
H2073 H 0.86578 1.01541 0.15218 0.0
H2074 H 0.83945 0.95762 0.22355 0.0
H2075 H 0.92074 0.9637 0.18446 0.0
C2076 C 0.93094 0.92796 0.20272 0.0
C2077 C 0.92254 0.90641 0.21694 0.0
C2078 C 0.84519 0.97028 0.2079 0.0
C2079 C 0.88726 0.9452 0.20188 0.0
C2080 C 0.82913 0.99123 0.20108 0.0
C2081 C 0.83647 1.00827 0.18118 0.0
C2082 C 0.86873 0.96638 0.19471 0.0
C2083 C 0.85965 1.0031 0.16798 0.0
C2084 C 0.9135 0.94712 0.19501 0.0
C2085 C 0.89599 0.90462 0.22273 0.0
N2086 N 0.87503 0.98295 0.17517 0.0
N2087 N 0.87931 0.92391 0.21543 0.0
H2088 H 0.3289 0.23038 0.4945 0.0
H2089 H 0.34405 0.09069 0.42945 0.0
H2090 H 0.38832 0.17588 0.51558 0.0
H2091 H 0.30308 0.15195 0.39067 0.0
H2092 H 0.358 0.1213 0.46266 0.0
H2093 H 0.31644 0.20193 0.45818 0.0
C2094 C 0.33916 0.21234 0.49161 0.0
C2095 C 0.3592 0.20509 0.50858 0.0
C2096 C 0.34633 0.12829 0.44673 0.0
C2097 C 0.34542 0.17273 0.46679 0.0
C2098 C 0.33848 0.11081 0.42764 0.0
C2099 C 0.32288 0.11887 0.40691 0.0
C2100 C 0.33816 0.15419 0.44561 0.0
C2101 C 0.31566 0.14507 0.40595 0.0
C2102 C 0.33221 0.19623 0.47075 0.0
C2103 C 0.37242 0.18196 0.50335 0.0
N2104 N 0.32315 0.16176 0.42514 0.0
N2105 N 0.36512 0.16655 0.48325 0.0
H2106 H 0.23651 0.88901 0.88627 0.0
H2107 H 0.15096 0.86625 1.01453 0.0
H2108 H 0.19602 0.94926 0.92712 0.0
H2109 H 0.20935 0.81173 0.99083 0.0
H2110 H 0.16298 0.89428 0.97835 0.0
H2111 H 0.22255 0.85786 0.91987 0.0
C2112 C 0.22413 0.89552 0.90189 0.0
C2113 C 0.21701 0.92168 0.90367 0.0
C2114 C 0.17329 0.87625 0.98099 0.0
C2115 C 0.20132 0.88638 0.94228 0.0
C2116 C 0.16643 0.86024 1.0017 0.0
C2117 C 0.17974 0.83705 1.00627 0.0
C2118 C 0.19321 0.86881 0.96398 0.0
C2119 C 0.19913 0.82986 0.98851 0.0
C2120 C 0.21646 0.87784 0.92123 0.0
C2121 C 0.20165 0.92923 0.92479 0.0
N2122 N 0.20536 0.84571 0.9682 0.0
N2123 N 0.19431 0.91177 0.94308 0.0
H2124 H 0.83053 0.31013 0.54913 0.0
H2125 H 0.84341 0.4504 0.61282 0.0
H2126 H 0.88945 0.36502 0.52776 0.0
H2127 H 0.80503 0.38853 0.65322 0.0
H2128 H 0.85767 0.41974 0.57979 0.0
H2129 H 0.81801 0.33851 0.5855 0.0
C2130 C 0.84069 0.32823 0.55198 0.0
C2131 C 0.86054 0.33564 0.53489 0.0
C2132 C 0.84648 0.41265 0.59603 0.0
C2133 C 0.84668 0.36793 0.57669 0.0
C2134 C 0.83842 0.43016 0.61498 0.0
C2135 C 0.82345 0.42195 0.6361 0.0
C2136 C 0.83917 0.38654 0.59769 0.0
C2137 C 0.81707 0.39556 0.63759 0.0
C2138 C 0.8337 0.34429 0.57286 0.0
C2139 C 0.87366 0.35883 0.54008 0.0
N2140 N 0.82474 0.37882 0.61851 0.0
N2141 N 0.8663 0.37423 0.56017 0.0
H2142 H 0.73762 0.65254 0.15372 0.0
H2143 H 0.65163 0.67408 0.0256 0.0
H2144 H 0.69653 0.592 0.11395 0.0
H2145 H 0.71015 0.72877 0.0485 0.0
H2146 H 0.664 0.64624 0.0618 0.0
H2147 H 0.72383 0.68327 0.11965 0.0
C2148 C 0.72515 0.6459 0.13824 0.0
C2149 C 0.71782 0.61977 0.13689 0.0
C2150 C 0.67429 0.66426 0.05897 0.0
C2151 C 0.70234 0.65456 0.09775 0.0
C2152 C 0.66723 0.68015 0.03824 0.0
C2153 C 0.68039 0.70338 0.03351 0.0
C2154 C 0.69427 0.67185 0.07583 0.0
C2155 C 0.7 0.71063 0.05099 0.0
C2156 C 0.71759 0.66332 0.11862 0.0
C2157 C 0.70233 0.61202 0.11594 0.0
N2158 N 0.7064 0.69491 0.07134 0.0
N2159 N 0.69511 0.62923 0.09738 0.0
H2160 H 0.42768 0.34264 0.09047 0.0
H2161 H 0.49447 0.32884 0.22953 0.0
H2162 H 0.38946 0.30252 0.15264 0.0
H2163 H 0.51413 0.38839 0.17473 0.0
H2164 H 0.45799 0.31587 0.20146 0.0
H2165 H 0.46129 0.35682 0.12058 0.0
C2166 C 0.4261 0.33728 0.11068 0.0
C2167 C 0.40541 0.32187 0.11915 0.0
C2168 C 0.47029 0.33177 0.19561 0.0
C2169 C 0.44453 0.33741 0.15389 0.0
C2170 C 0.49124 0.33902 0.2115 0.0
C2171 C 0.50782 0.35927 0.20406 0.0
C2172 C 0.46587 0.34491 0.17215 0.0
C2173 C 0.50219 0.37235 0.18095 0.0
C2174 C 0.4454 0.34527 0.12787 0.0
C2175 C 0.40471 0.31494 0.14545 0.0
N2176 N 0.48201 0.36478 0.16575 0.0
N2177 N 0.42411 0.32256 0.16186 0.0
H2178 H 0.92673 0.19645 0.95084 0.0
H2179 H 0.99329 0.21246 0.81179 0.0
H2180 H 0.88867 0.23817 0.88961 0.0
H2181 H 1.0136 0.15269 0.86613 0.0
H2182 H 0.95668 0.22486 0.83999 0.0
H2183 H 0.96015 0.18263 0.92037 0.0
C2184 C 0.92511 0.20221 0.93074 0.0
C2185 C 0.90452 0.21798 0.92267 0.0
C2186 C 0.96915 0.20903 0.84571 0.0
C2187 C 0.94351 0.20287 0.8875 0.0
C2188 C 0.99018 0.20211 0.82974 0.0
C2189 C 1.007 0.18198 0.83701 0.0
C2190 C 0.96488 0.19569 0.86909 0.0
C2191 C 1.00149 0.16866 0.86003 0.0
C2192 C 0.94433 0.19444 0.91334 0.0
C2193 C 0.90384 0.22546 0.89651 0.0
N2194 N 0.98123 0.17592 0.87529 0.0
N2195 N 0.92317 0.21805 0.87989 0.0
H2196 H 0.54706 0.83043 0.31229 0.0
H2197 H 0.61247 0.84439 0.45187 0.0
H2198 H 0.52558 0.88883 0.36766 0.0
H2199 H 0.65293 0.80674 0.3895 0.0
H2200 H 0.5789 0.85805 0.42158 0.0
H2201 H 0.58398 0.81833 0.34025 0.0
C2202 C 0.54998 0.84054 0.33041 0.0
C2203 C 0.53275 0.8602 0.33804 0.0
C2204 C 0.59524 0.84713 0.41429 0.0
C2205 C 0.57519 0.84682 0.36984 0.0
C2206 C 0.61454 0.83942 0.4316 0.0
C2207 C 0.63579 0.82467 0.42323 0.0
C2208 C 0.59667 0.83974 0.38817 0.0
C2209 C 0.63714 0.81842 0.39677 0.0
C2210 C 0.57118 0.83379 0.34623 0.0
C2211 C 0.53801 0.87322 0.36128 0.0
N2212 N 0.6177 0.82574 0.38021 0.0
N2213 N 0.55842 0.86612 0.3764 0.0
H2214 H 0.15347 0.73387 0.65123 0.0
H2215 H 0.02326 0.65213 0.67402 0.0
H2216 H 0.10869 0.69987 0.58971 0.0
H2217 H 0.04741 0.71041 0.72839 0.0
H2218 H 0.05897 0.6645 0.64541 0.0
H2219 H 0.11958 0.72049 0.68233 0.0
C2220 C 0.13682 0.72317 0.64435 0.0
C2221 C 0.13399 0.71786 0.61782 0.0
C2222 C 0.05649 0.67471 0.66354 0.0
C2223 C 0.0952 0.70257 0.65317 0.0
C2224 C 0.03607 0.66766 0.67986 0.0
C2225 C 0.03181 0.68079 0.70323 0.0
C2226 C 0.0736 0.69454 0.67088 0.0
C2227 C 0.04952 0.70029 0.71018 0.0
C2228 C 0.11735 0.7158 0.66204 0.0
C2229 C 0.11174 0.70434 0.60995 0.0
N2230 N 0.06963 0.7066 0.69408 0.0
N2231 N 0.09339 0.69713 0.62743 0.0
H2232 H 0.88878 0.65212 0.73812 0.0
H2233 H 0.86638 0.52431 0.6523 0.0
H2234 H 0.94953 0.6118 0.69777 0.0
H2235 H 0.81249 0.54676 0.71179 0.0
H2236 H 0.89455 0.56029 0.66465 0.0
H2237 H 0.85797 0.61806 0.72453 0.0
C2238 C 0.89546 0.6365 0.72586 0.0
C2239 C 0.92166 0.63501 0.71866 0.0
C2240 C 0.87664 0.55739 0.67514 0.0
C2241 C 0.88676 0.59589 0.70339 0.0
C2242 C 0.86056 0.5368 0.6681 0.0
C2243 C 0.83746 0.532 0.68154 0.0
C2244 C 0.86934 0.57407 0.69536 0.0
C2245 C 0.83052 0.5493 0.70141 0.0
C2246 C 0.87799 0.61689 0.71841 0.0
C2247 C 0.92946 0.61389 0.70346 0.0
N2248 N 0.8464 0.56953 0.70776 0.0
N2249 N 0.91219 0.59534 0.69631 0.0
H2250 H 0.65198 0.38656 0.23345 0.0
H2251 H 0.67441 0.5167 0.15138 0.0
H2252 H 0.59064 0.43033 0.19781 0.0
H2253 H 0.72916 0.49187 0.2091 0.0
H2254 H 0.64613 0.48057 0.16309 0.0
H2255 H 0.68315 0.42017 0.21964 0.0
C2256 C 0.64517 0.40288 0.22223 0.0
C2257 C 0.61869 0.40553 0.21656 0.0
C2258 C 0.66428 0.48297 0.1733 0.0
C2259 C 0.65408 0.44404 0.20088 0.0
C2260 C 0.68042 0.50363 0.16662 0.0
C2261 C 0.70374 0.50786 0.17988 0.0
C2262 C 0.67175 0.46565 0.19291 0.0
C2263 C 0.71094 0.4898 0.19896 0.0
C2264 C 0.66289 0.42221 0.21463 0.0
C2265 C 0.61087 0.42741 0.20247 0.0
N2266 N 0.69499 0.46953 0.20497 0.0
N2267 N 0.62838 0.44565 0.19511 0.0
H2268 H 0.38835 0.88759 0.30799 0.0
H2269 H 0.36499 1.01622 0.39188 0.0
H2270 H 0.44963 0.93166 0.34332 0.0
H2271 H 0.31109 0.99321 0.33263 0.0
H2272 H 0.39355 0.98056 0.37934 0.0
H2273 H 0.35709 0.92113 0.32185 0.0
C2274 C 0.39514 0.90399 0.3191 0.0
C2275 C 0.42164 0.90673 0.32466 0.0
C2276 C 0.37553 0.98327 0.36896 0.0
C2277 C 0.38612 0.94511 0.34049 0.0
C2278 C 0.35923 1.00367 0.37611 0.0
C2279 C 0.33605 1.00826 0.36274 0.0
C2280 C 0.36834 0.96655 0.34876 0.0
C2281 C 0.32919 0.99085 0.34294 0.0
C2282 C 0.37736 0.92326 0.32674 0.0
C2283 C 0.4294 0.92868 0.33869 0.0
N2284 N 0.34527 0.97079 0.3365 0.0
N2285 N 0.41183 0.94684 0.34614 0.0
H2286 H 0.17441 0.02563 0.88965 0.0
H2287 H 0.15142 0.15431 0.8053 0.0
H2288 H 0.22892 0.04966 0.83138 0.0
H2289 H 0.09051 0.11188 0.84315 0.0
H2290 H 0.18265 0.12078 0.81928 0.0
H2291 H 0.14604 0.06156 0.87753 0.0
C2292 C 0.18035 0.03848 0.8742 0.0
C2293 C 0.20363 0.03408 0.86093 0.0
C2294 C 0.16248 0.11903 0.82476 0.0
C2295 C 0.17152 0.07607 0.84738 0.0
C2296 C 0.14475 0.13832 0.81707 0.0
C2297 C 0.11839 0.13606 0.82341 0.0
C2298 C 0.1538 0.0976 0.8392 0.0
C2299 C 0.11068 0.11452 0.83805 0.0
C2300 C 0.16415 0.05904 0.86728 0.0
C2301 C 0.21073 0.05187 0.84156 0.0
N2302 N 0.1282 0.0963 0.84548 0.0
N2303 N 0.19472 0.07203 0.8353 0.0
H2304 H 0.69582 0.95018 0.6149 0.0
H2305 H 0.7105 0.81061 0.5496 0.0
H2306 H 0.73649 0.88874 0.65372 0.0
H2307 H 0.65185 0.86579 0.52814 0.0
H2308 H 0.72274 0.8387 0.58629 0.0
H2309 H 0.68174 0.91966 0.5817 0.0
C2310 C 0.70129 0.93003 0.61673 0.0
C2311 C 0.71686 0.92191 0.63745 0.0
C2312 C 0.70718 0.84462 0.57356 0.0
C2313 C 0.70143 0.88667 0.59875 0.0
C2314 C 0.70035 0.82871 0.55249 0.0
C2315 C 0.68064 0.83629 0.53529 0.0
C2316 C 0.69415 0.86823 0.57749 0.0
C2317 C 0.66752 0.85947 0.54054 0.0
C2318 C 0.69337 0.9126 0.59764 0.0
C2319 C 0.72396 0.89568 0.63843 0.0
N2320 N 0.6747 0.87468 0.56083 0.0
N2321 N 0.7164 0.87902 0.61923 0.0
H2322 H 0.83033 0.23084 0.0493 0.0
H2323 H 0.843 0.0902 0.11206 0.0
H2324 H 0.88926 0.17605 0.02764 0.0
H2325 H 0.80483 0.15192 0.15293 0.0
H2326 H 0.85734 0.12104 0.07924 0.0
H2327 H 0.81783 0.20229 0.08552 0.0
C2328 C 0.8405 0.21273 0.05207 0.0
C2329 C 0.86034 0.20538 0.03492 0.0
C2330 C 0.84618 0.12805 0.09554 0.0
C2331 C 0.8465 0.1729 0.07654 0.0
C2332 C 0.83807 0.11043 0.11436 0.0
C2333 C 0.82313 0.11856 0.13554 0.0
C2334 C 0.83895 0.15417 0.09741 0.0
C2335 C 0.81684 0.14495 0.13724 0.0
C2336 C 0.83352 0.19656 0.07286 0.0
C2337 C 0.87348 0.18217 0.03999 0.0
N2338 N 0.82456 0.1618 0.11829 0.0
N2339 N 0.86612 0.16667 0.05999 0.0
H2340 H 0.21174 0.72943 0.49314 0.0
H2341 H 0.19489 0.59081 0.42603 0.0
H2342 H 0.15236 0.6748 0.51389 0.0
H2343 H 0.23751 0.65179 0.38864 0.0
H2344 H 0.18125 0.62114 0.45958 0.0
H2345 H 0.22396 0.70138 0.4564 0.0
C2346 C 0.20144 0.71144 0.4901 0.0
C2347 C 0.18147 0.70405 0.50707 0.0
C2348 C 0.19322 0.62816 0.44388 0.0
C2349 C 0.19494 0.67217 0.46479 0.0
C2350 C 0.20087 0.61084 0.42457 0.0
C2351 C 0.21686 0.61888 0.40414 0.0
C2352 C 0.20197 0.65388 0.44329 0.0
C2353 C 0.22463 0.64493 0.40367 0.0
C2354 C 0.20826 0.69557 0.469 0.0
C2355 C 0.16821 0.681 0.50165 0.0
N2356 N 0.21731 0.66147 0.42308 0.0
N2357 N 0.17534 0.66584 0.4813 0.0
H2358 H 0.32815 0.31031 0.99541 0.0
H2359 H 0.34331 0.44984 0.93029 0.0
H2360 H 0.38833 0.36421 1.01579 0.0
H2361 H 0.30346 0.38831 0.8908 0.0
H2362 H 0.357 0.41929 0.96368 0.0
H2363 H 0.31559 0.33885 0.95917 0.0
C2364 C 0.33855 0.32824 0.99239 0.0
C2365 C 0.35886 0.33528 1.00911 0.0
C2366 C 0.34561 0.41224 0.94756 0.0
C2367 C 0.34495 0.36774 0.96744 0.0
C2368 C 0.33789 0.42968 0.92839 0.0
C2369 C 0.3227 0.42153 0.90741 0.0
C2370 C 0.33771 0.38628 0.94627 0.0
C2371 C 0.31571 0.39528 0.9063 0.0
C2372 C 0.33154 0.34439 0.97158 0.0
C2373 C 0.37223 0.35829 1.00374 0.0
N2374 N 0.32306 0.37862 0.92558 0.0
N2375 N 0.36487 0.37375 0.9837 0.0
H2376 H 0.54593 0.71127 0.81057 0.0
H2377 H 0.65601 0.73239 0.88984 0.0
H2378 H 0.5262 0.65324 0.86695 0.0
H2379 H 0.60746 0.70106 0.94992 0.0
H2380 H 0.62321 0.71955 0.85758 0.0
H2381 H 0.58269 0.72455 0.83787 0.0
C2382 C 0.54931 0.7014 0.82874 0.0
C2383 C 0.5326 0.68152 0.83682 0.0
C2384 C 0.6197 0.71553 0.87782 0.0
C2385 C 0.57518 0.69598 0.86784 0.0
C2386 C 0.63866 0.72249 0.89619 0.0
C2387 C 0.63448 0.71783 0.92264 0.0
C2388 C 0.59656 0.70352 0.88598 0.0
C2389 C 0.61145 0.70519 0.92977 0.0
C2390 C 0.57053 0.70873 0.84418 0.0
C2391 C 0.53832 0.66893 0.8602 0.0
N2392 N 0.59354 0.69844 0.91166 0.0
N2393 N 0.55879 0.67659 0.87499 0.0
H2394 H 0.04726 0.8297 0.22912 0.0
H2395 H 0.11224 0.84446 0.0895 0.0
H2396 H 0.02584 0.8887 0.17437 0.0
H2397 H 0.15304 0.80671 0.15157 0.0
H2398 H 0.07877 0.85797 0.11998 0.0
H2399 H 0.08409 0.81778 0.20098 0.0
C2400 C 0.05017 0.83998 0.21109 0.0
C2401 C 0.03298 0.85975 0.20369 0.0
C2402 C 0.09517 0.84707 0.12716 0.0
C2403 C 0.07533 0.84658 0.17169 0.0
C2404 C 0.11441 0.83945 0.10974 0.0
C2405 C 0.13573 0.82474 0.11799 0.0
C2406 C 0.09673 0.8396 0.15325 0.0
C2407 C 0.1372 0.81839 0.14442 0.0
C2408 C 0.07133 0.83334 0.19517 0.0
C2409 C 0.03824 0.873 0.18057 0.0
N2410 N 0.11782 0.82561 0.16108 0.0
N2411 N 0.0586 0.86599 0.16534 0.0
H2412 H 0.49426 0.2126 0.72995 0.0
H2413 H 0.4288 0.19868 0.59035 0.0
H2414 H 0.51438 0.15293 0.67543 0.0
H2415 H 0.3894 0.23807 0.6523 0.0
H2416 H 0.46224 0.18475 0.62075 0.0
H2417 H 0.45794 0.22546 0.70159 0.0
C2418 C 0.49117 0.20237 0.71192 0.0
C2419 C 0.50784 0.18212 0.70465 0.0
C2420 C 0.44614 0.1961 0.62792 0.0
C2421 C 0.46608 0.19637 0.67241 0.0
C2422 C 0.42694 0.20397 0.61056 0.0
C2423 C 0.40598 0.21912 0.61887 0.0
C2424 C 0.44488 0.2038 0.65397 0.0
C2425 C 0.4049 0.22589 0.6452 0.0
C2426 C 0.47031 0.20956 0.69588 0.0
C2427 C 0.50237 0.16898 0.68153 0.0
N2428 N 0.42421 0.21839 0.66179 0.0
N2429 N 0.48229 0.17649 0.66618 0.0
H2430 H 0.88739 0.30286 0.38944 0.0
H2431 H 1.01532 0.38903 0.36697 0.0
H2432 H 0.92679 0.34494 0.44957 0.0
H2433 H 0.9923 0.33017 0.31273 0.0
H2434 H 0.97905 0.37699 0.39493 0.0
H2435 H 0.92132 0.31659 0.35852 0.0
C2436 C 0.90274 0.31557 0.39594 0.0
C2437 C 0.904 0.32321 0.42201 0.0
C2438 C 0.98186 0.36657 0.37698 0.0
C2439 C 0.94305 0.3386 0.38698 0.0
C2440 C 1.00263 0.37344 0.36101 0.0
C2441 C 1.00738 0.36007 0.33788 0.0
C2442 C 0.96497 0.34656 0.36957 0.0
C2443 C 0.98982 0.34048 0.33079 0.0
C2444 C 0.92229 0.3231 0.37841 0.0
C2445 C 0.92482 0.33895 0.42958 0.0
N2446 N 0.96945 0.33426 0.34658 0.0
N2447 N 0.94334 0.34612 0.41226 0.0
H2448 H 0.21322 0.09779 0.3201 0.0
H2449 H 0.17931 0.23111 0.39191 0.0
H2450 H 0.25785 0.1267 0.38427 0.0
H2451 H 0.14203 0.20548 0.3218 0.0
H2452 H 0.20655 0.19238 0.39123 0.0
H2453 H 0.18475 0.13538 0.32315 0.0
C2454 C 0.2167 0.1119 0.33522 0.0
C2455 C 0.23771 0.10888 0.35219 0.0
C2456 C 0.1925 0.19522 0.37595 0.0
C2457 C 0.20548 0.15269 0.35536 0.0
C2458 C 0.17686 0.21736 0.37628 0.0
C2459 C 0.15812 0.22164 0.35691 0.0
C2460 C 0.18945 0.17689 0.35615 0.0
C2461 C 0.15624 0.20322 0.33704 0.0
C2462 C 0.20055 0.13351 0.3368 0.0
C2463 C 0.2416 0.12799 0.37111 0.0
N2464 N 0.17153 0.18166 0.33727 0.0
N2465 N 0.22568 0.14913 0.37213 0.0
H2466 H 0.28072 0.91537 0.88346 0.0
H2467 H 0.39645 0.83354 0.81788 0.0
H2468 H 0.3242 0.94058 0.81697 0.0
H2469 H 0.3601 0.81123 0.88961 0.0
H2470 H 0.36886 0.87215 0.81673 0.0
H2471 H 0.30931 0.87728 0.8868 0.0
C2472 C 0.29661 0.91321 0.86997 0.0
C2473 C 0.30036 0.9314 0.85017 0.0
C2474 C 0.36688 0.8588 0.83274 0.0
C2475 C 0.33252 0.88742 0.85315 0.0
C2476 C 0.3825 0.83656 0.83323 0.0
C2477 C 0.38083 0.81904 0.85391 0.0
C2478 C 0.34919 0.86362 0.85297 0.0
C2479 C 0.36243 0.8243 0.87342 0.0
C2480 C 0.31278 0.89132 0.87166 0.0
C2481 C 0.32081 0.92718 0.83272 0.0
N2482 N 0.34744 0.84601 0.87249 0.0
N2483 N 0.33595 0.90572 0.83453 0.0
H2484 H 0.71425 0.44258 0.72348 0.0
H2485 H 0.68031 0.30972 0.6509 0.0
H2486 H 0.75842 0.41439 0.65866 0.0
H2487 H 0.6432 0.33488 0.72126 0.0
H2488 H 0.7074 0.34853 0.65164 0.0
H2489 H 0.68579 0.40502 0.72023 0.0
C2490 C 0.71762 0.42864 0.70818 0.0
C2491 C 0.73854 0.43183 0.69111 0.0
C2492 C 0.69341 0.34557 0.66697 0.0
C2493 C 0.70631 0.38805 0.68771 0.0
C2494 C 0.67787 0.32337 0.6666 0.0
C2495 C 0.65922 0.31894 0.68602 0.0
C2496 C 0.69037 0.3638 0.68686 0.0
C2497 C 0.65734 0.33726 0.70599 0.0
C2498 C 0.70148 0.40705 0.70648 0.0
C2499 C 0.74227 0.41296 0.67193 0.0
N2500 N 0.67254 0.35887 0.70579 0.0
N2501 N 0.72637 0.39182 0.67081 0.0
H2502 H 0.82521 0.59927 0.22387 0.0
H2503 H 0.86016 0.73116 0.14999 0.0
H2504 H 0.78159 0.62678 0.1584 0.0
H2505 H 0.89658 0.7067 0.22096 0.0
H2506 H 0.83279 0.69253 0.15107 0.0
H2507 H 0.85363 0.63683 0.22053 0.0
C2508 C 0.82195 0.61305 0.2084 0.0
C2509 C 0.80124 0.60963 0.19113 0.0
C2510 C 0.84668 0.69561 0.16646 0.0
C2511 C 0.83342 0.65345 0.18764 0.0
C2512 C 0.86239 0.7177 0.16589 0.0
C2513 C 0.88093 0.72227 0.18538 0.0
C2514 C 0.84946 0.67763 0.18661 0.0
C2515 C 0.88253 0.70421 0.20562 0.0
C2516 C 0.83807 0.63465 0.20666 0.0
C2517 C 0.79761 0.62836 0.17179 0.0
N2518 N 0.86719 0.6827 0.2056 0.0
N2519 N 0.8135 0.64951 0.17061 0.0
H2520 H 0.39042 0.17825 0.23204 0.0
H2521 H 0.31765 0.21275 0.09924 0.0
H2522 H 0.31938 0.14214 0.2073 0.0
H2523 H 0.38271 0.25661 0.12735 0.0
H2524 H 0.3208 0.18438 0.13687 0.0
H2525 H 0.38976 0.20535 0.19321 0.0
C2526 C 0.37458 0.17603 0.21848 0.0
C2527 C 0.35495 0.15765 0.22305 0.0
C2528 C 0.33462 0.19998 0.13481 0.0
C2529 C 0.35422 0.18881 0.17813 0.0
C2530 C 0.33299 0.21608 0.11317 0.0
C2531 C 0.35014 0.23689 0.10993 0.0
C2532 C 0.35344 0.20473 0.15382 0.0
C2533 C 0.36937 0.24054 0.12881 0.0
C2534 C 0.37426 0.19158 0.19626 0.0
C2535 C 0.33482 0.15606 0.20482 0.0
N2536 N 0.37044 0.22468 0.15 0.0
N2537 N 0.33509 0.17125 0.18319 0.0
H2538 H 0.22277 0.89767 0.70623 0.0
H2539 H 0.1615 0.77664 0.62959 0.0
H2540 H 0.19319 0.82988 0.74468 0.0
H2541 H 0.21708 0.82927 0.59681 0.0
H2542 H 0.16229 0.802 0.67006 0.0
H2543 H 0.21037 0.87867 0.66444 0.0
C2544 C 0.21326 0.87901 0.70595 0.0
C2545 C 0.20928 0.86529 0.72907 0.0
C2546 C 0.17385 0.8083 0.65376 0.0
C2547 C 0.19489 0.84339 0.68117 0.0
C2548 C 0.17316 0.79397 0.63059 0.0
C2549 C 0.18916 0.80093 0.60976 0.0
C2550 C 0.19042 0.82986 0.65593 0.0
C2551 C 0.20435 0.82332 0.61234 0.0
C2552 C 0.2063 0.8681 0.68207 0.0
C2553 C 0.19698 0.84103 0.72736 0.0
N2554 N 0.20467 0.83688 0.63491 0.0
N2555 N 0.19034 0.83084 0.70392 0.0
H2556 H 0.89128 0.36032 0.81049 0.0
H2557 H 0.81779 0.3259 0.94287 0.0
H2558 H 0.8206 0.39713 0.83534 0.0
H2559 H 0.88312 0.28216 0.91519 0.0
H2560 H 0.82117 0.35432 0.90531 0.0
H2561 H 0.89034 0.33314 0.84926 0.0
C2562 C 0.87547 0.36268 0.82407 0.0
C2563 C 0.85602 0.38128 0.81956 0.0
C2564 C 0.83501 0.33874 0.90746 0.0
C2565 C 0.85495 0.35001 0.86435 0.0
C2566 C 0.83325 0.32262 0.92906 0.0
C2567 C 0.85044 0.30186 0.93241 0.0
C2568 C 0.85398 0.33403 0.88859 0.0
C2569 C 0.86978 0.29821 0.91365 0.0
C2570 C 0.87499 0.34708 0.84624 0.0
C2571 C 0.83591 0.38304 0.83778 0.0
N2572 N 0.87097 0.31408 0.89248 0.0
N2573 N 0.836 0.36779 0.85935 0.0
H2574 H 0.69702 0.71341 0.29482 0.0
H2575 H 0.71703 0.71195 0.44605 0.0
H2576 H 0.7229 0.64524 0.33519 0.0
H2577 H 0.66453 0.76559 0.41004 0.0
H2578 H 0.71803 0.68654 0.40616 0.0
H2579 H 0.68426 0.73264 0.3363 0.0
C2580 C 0.69979 0.70235 0.3124 0.0
C2581 C 0.71123 0.67766 0.31144 0.0
C2582 C 0.70578 0.70351 0.40703 0.0
C2583 C 0.6968 0.69979 0.35924 0.0
C2584 C 0.70504 0.71793 0.4299 0.0
C2585 C 0.69031 0.7407 0.43153 0.0
C2586 C 0.69249 0.71237 0.38505 0.0
C2587 C 0.67574 0.74795 0.40977 0.0
C2588 C 0.69236 0.71332 0.33609 0.0
C2589 C 0.71411 0.66424 0.33491 0.0
N2590 N 0.67759 0.73413 0.38727 0.0
N2591 N 0.70735 0.67561 0.3578 0.0
H2592 H 0.23107 0.38987 0.18145 0.0
H2593 H 0.09746 0.31805 0.2148 0.0
H2594 H 0.2056 0.3198 0.14414 0.0
H2595 H 0.1259 0.38253 0.25919 0.0
H2596 H 0.13521 0.32112 0.18652 0.0
H2597 H 0.19211 0.38928 0.20841 0.0
C2598 C 0.21732 0.37427 0.17893 0.0
C2599 C 0.22172 0.35488 0.16026 0.0
C2600 C 0.1332 0.33484 0.20222 0.0
C2601 C 0.17667 0.35422 0.19128 0.0
C2602 C 0.11149 0.33324 0.21826 0.0
C2603 C 0.1083 0.35027 0.23918 0.0
C2604 C 0.15232 0.35347 0.20714 0.0
C2605 C 0.12731 0.36931 0.24303 0.0
C2606 C 0.19503 0.37398 0.19441 0.0
C2607 C 0.20326 0.33504 0.15829 0.0
N2608 N 0.14856 0.37033 0.22722 0.0
N2609 N 0.18156 0.33533 0.17343 0.0
H2610 H 0.74672 0.19473 0.82912 0.0
H2611 H 0.59547 0.21705 0.83081 0.0
H2612 H 0.7068 0.22358 0.89643 0.0
H2613 H 0.631 0.16438 0.777 0.0
H2614 H 0.63544 0.21772 0.85615 0.0
H2615 H 0.70499 0.18217 0.81029 0.0
C2616 C 0.72918 0.19822 0.84007 0.0
C2617 C 0.73036 0.21044 0.86439 0.0
C2618 C 0.63445 0.20552 0.83916 0.0
C2619 C 0.68225 0.19622 0.8427 0.0
C2620 C 0.61153 0.20499 0.82476 0.0
C2621 C 0.60975 0.19035 0.80195 0.0
C2622 C 0.65633 0.19208 0.83024 0.0
C2623 C 0.63138 0.17558 0.79466 0.0
C2624 C 0.70533 0.1909 0.82933 0.0
C2625 C 0.70693 0.21419 0.87771 0.0
N2626 N 0.65393 0.17721 0.80847 0.0
N2627 N 0.6839 0.20751 0.86656 0.0
H2628 H 0.79377 0.84524 0.32862 0.0
H2629 H 0.94513 0.82385 0.3297 0.0
H2630 H 0.83406 0.81728 0.39608 0.0
H2631 H 0.90927 0.87676 0.27636 0.0
H2632 H 0.90522 0.82287 0.35516 0.0
H2633 H 0.83538 0.85794 0.30957 0.0
C2634 C 0.81137 0.84198 0.33956 0.0
C2635 C 0.81033 0.82998 0.36399 0.0
C2636 C 0.90612 0.83519 0.33824 0.0
C2637 C 0.8583 0.84434 0.34204 0.0
C2638 C 0.929 0.8359 0.32378 0.0
C2639 C 0.93069 0.85072 0.30107 0.0
C2640 C 0.88417 0.84861 0.32948 0.0
C2641 C 0.90898 0.86543 0.29394 0.0
C2642 C 0.83514 0.84937 0.32869 0.0
C2643 C 0.83383 0.8265 0.37727 0.0
N2644 N 0.88646 0.86363 0.3078 0.0
N2645 N 0.85679 0.83324 0.36599 0.0
H2646 H 0.41485 0.65544 0.75874 0.0
H2647 H 0.33405 0.72045 0.64214 0.0
H2648 H 0.44106 0.72093 0.71443 0.0
H2649 H 0.31056 0.64968 0.67947 0.0
H2650 H 0.37289 0.72122 0.66946 0.0
H2651 H 0.37694 0.65194 0.72987 0.0
C2652 C 0.41295 0.66866 0.74261 0.0
C2653 C 0.43131 0.6883 0.73875 0.0
C2654 C 0.35924 0.70549 0.6717 0.0
C2655 C 0.38757 0.68513 0.70628 0.0
C2656 C 0.33688 0.70523 0.65624 0.0
C2657 C 0.31894 0.68494 0.65829 0.0
C2658 C 0.36376 0.68543 0.68962 0.0
C2659 C 0.32396 0.66556 0.67686 0.0
C2660 C 0.39117 0.66688 0.72629 0.0
C2661 C 0.42748 0.70537 0.71794 0.0
N2662 N 0.34578 0.66628 0.69171 0.0
N2663 N 0.40611 0.70349 0.70268 0.0
H2664 H 0.8246 0.94177 0.72474 0.0
H2665 H 0.85931 0.80952 0.65131 0.0
H2666 H 0.78125 0.91427 0.65909 0.0
H2667 H 0.89646 0.83452 0.72171 0.0
H2668 H 0.83202 0.84819 0.65231 0.0
H2669 H 0.85305 0.9042 0.72151 0.0
C2670 C 0.82141 0.92799 0.70926 0.0
C2671 C 0.80075 0.93141 0.69192 0.0
C2672 C 0.84606 0.84523 0.66759 0.0
C2673 C 0.83298 0.88758 0.68854 0.0
C2674 C 0.86173 0.82311 0.66707 0.0
C2675 C 0.88047 0.81867 0.68641 0.0
C2676 C 0.84903 0.86337 0.68756 0.0
C2677 C 0.88227 0.8369 0.70648 0.0
C2678 C 0.83755 0.90638 0.70757 0.0
C2679 C 0.79722 0.91269 0.67255 0.0
N2680 N 0.86694 0.85843 0.70642 0.0
N2681 N 0.81312 0.89153 0.67144 0.0
H2682 H 0.75823 0.12525 0.15674 0.0
H2683 H 0.64218 0.20689 0.22171 0.0
H2684 H 0.71414 0.0997 0.22271 0.0
H2685 H 0.67911 0.22939 0.15034 0.0
H2686 H 0.66947 0.16807 0.22278 0.0
H2687 H 0.7295 0.1632 0.15315 0.0
C2688 C 0.74217 0.12732 0.17006 0.0
C2689 C 0.73832 0.10911 0.18983 0.0
C2690 C 0.67164 0.18151 0.20686 0.0
C2691 C 0.70603 0.15291 0.18657 0.0
C2692 C 0.65619 0.20385 0.20642 0.0
C2693 C 0.65815 0.22149 0.18587 0.0
C2694 C 0.68943 0.17671 0.18672 0.0
C2695 C 0.67659 0.21622 0.16642 0.0
C2696 C 0.72594 0.14911 0.16822 0.0
C2697 C 0.71764 0.11316 0.20704 0.0
N2698 N 0.69142 0.19443 0.16731 0.0
N2699 N 0.70245 0.13456 0.20511 0.0
H2700 H 0.39703 0.70746 0.31881 0.0
H2701 H 0.28111 0.62572 0.38397 0.0
H2702 H 0.36067 0.72967 0.39057 0.0
H2703 H 0.32485 0.60049 0.31765 0.0
H2704 H 0.30977 0.66374 0.38751 0.0
H2705 H 0.36945 0.66887 0.31758 0.0
C2706 C 0.38308 0.70442 0.33416 0.0
C2707 C 0.38139 0.7219 0.35487 0.0
C2708 C 0.31327 0.6497 0.37237 0.0
C2709 C 0.34977 0.67735 0.35383 0.0
C2710 C 0.29707 0.62787 0.37057 0.0
C2711 C 0.30088 0.60971 0.35074 0.0
C2712 C 0.3331 0.65358 0.35395 0.0
C2713 C 0.32143 0.61388 0.33341 0.0
C2714 C 0.36746 0.68219 0.33362 0.0
C2715 C 0.363 0.71662 0.37437 0.0
N2716 N 0.33659 0.63529 0.33532 0.0
N2717 N 0.34801 0.69493 0.37339 0.0
H2718 H 0.179 0.31001 0.89225 0.0
H2719 H 0.21412 0.44245 0.81945 0.0
H2720 H 0.14246 0.33517 0.82158 0.0
H2721 H 0.25778 0.41419 0.88459 0.0
H2722 H 0.1854 0.40509 0.82269 0.0
H2723 H 0.20627 0.3487 0.89158 0.0
C2724 C 0.17672 0.32364 0.8765 0.0
C2725 C 0.15818 0.31924 0.85697 0.0
C2726 C 0.20103 0.40707 0.83651 0.0
C2727 C 0.18955 0.36395 0.85621 0.0
C2728 C 0.21733 0.42854 0.83482 0.0
C2729 C 0.23819 0.43164 0.85197 0.0
C2730 C 0.20564 0.3881 0.85537 0.0
C2731 C 0.24169 0.41282 0.87125 0.0
C2732 C 0.19236 0.34577 0.87617 0.0
C2733 C 0.15651 0.33753 0.83694 0.0
N2734 N 0.22564 0.39179 0.87236 0.0
N2735 N 0.17182 0.35906 0.83718 0.0
H2736 H 0.66137 0.77671 0.91201 0.0
H2737 H 0.72304 0.89726 0.83495 0.0
H2738 H 0.7171 0.82925 0.94475 0.0
H2739 H 0.69263 0.82966 0.7968 0.0
H2740 H 0.71085 0.87839 0.87686 0.0
H2741 H 0.66228 0.80195 0.87149 0.0
C2742 C 0.6731 0.794 0.91098 0.0
C2743 C 0.68909 0.80099 0.9318 0.0
C2744 C 0.70656 0.86783 0.85928 0.0
C2745 C 0.6905 0.82976 0.88556 0.0
C2746 C 0.7134 0.87867 0.83532 0.0
C2747 C 0.70912 0.86497 0.81225 0.0
C2748 C 0.69497 0.84321 0.86028 0.0
C2749 C 0.69666 0.8408 0.81408 0.0
C2750 C 0.67385 0.80826 0.88778 0.0
C2751 C 0.70436 0.82332 0.92919 0.0
N2752 N 0.69014 0.83068 0.83758 0.0
N2753 N 0.70476 0.8368 0.90658 0.0
H2754 H 0.81767 0.14366 0.3342 0.0
H2755 H 0.88363 0.25919 0.41573 0.0
H2756 H 0.88967 0.17949 0.31185 0.0
H2757 H 0.81707 0.21596 0.44119 0.0
H2758 H 0.88687 0.23057 0.37766 0.0
H2759 H 0.81658 0.17135 0.37273 0.0
C2760 C 0.8331 0.15752 0.3372 0.0
C2761 C 0.85384 0.15902 0.31969 0.0
C2762 C 0.87173 0.22717 0.39175 0.0
C2763 C 0.85295 0.19077 0.36418 0.0
C2764 C 0.87009 0.24336 0.41361 0.0
C2765 C 0.85029 0.23969 0.43187 0.0
C2766 C 0.85318 0.20749 0.38793 0.0
C2767 C 0.8328 0.21929 0.42773 0.0
C2768 C 0.83263 0.1732 0.35939 0.0
C2769 C 0.87344 0.1773 0.32492 0.0
N2770 N 0.83456 0.20413 0.40629 0.0
N2771 N 0.87253 0.19236 0.34658 0.0
H2772 H 0.16253 0.76534 0.1298 0.0
H2773 H 0.22459 0.64473 0.20662 0.0
H2774 H 0.21876 0.71336 0.09705 0.0
H2775 H 0.19411 0.71214 0.24507 0.0
H2776 H 0.21262 0.66391 0.16478 0.0
H2777 H 0.16378 0.74017 0.17038 0.0
C2778 C 0.17444 0.74818 0.13085 0.0
C2779 C 0.19042 0.74132 0.10998 0.0
C2780 C 0.20827 0.67437 0.18241 0.0
C2781 C 0.19221 0.71258 0.15627 0.0
C2782 C 0.21498 0.66335 0.20632 0.0
C2783 C 0.21059 0.67689 0.22948 0.0
C2784 C 0.1967 0.69901 0.1815 0.0
C2785 C 0.1982 0.70111 0.22774 0.0
C2786 C 0.17539 0.73396 0.15408 0.0
C2787 C 0.20597 0.71917 0.11262 0.0
N2788 N 0.19179 0.7114 0.20428 0.0
N2789 N 0.20653 0.70569 0.13523 0.0
H2790 H 0.39122 0.36041 0.73222 0.0
H2791 H 0.31838 0.32788 0.59899 0.0
H2792 H 0.32105 0.39812 0.70727 0.0
H2793 H 0.38336 0.28358 0.62663 0.0
H2794 H 0.32178 0.35603 0.63677 0.0
H2795 H 0.39042 0.33378 0.69308 0.0
C2796 C 0.37556 0.36309 0.71854 0.0
C2797 C 0.35621 0.38177 0.72314 0.0
C2798 C 0.33553 0.34038 0.63457 0.0
C2799 C 0.3553 0.35113 0.6779 0.0
C2800 C 0.33375 0.32441 0.61285 0.0
C2801 C 0.3508 0.30353 0.60945 0.0
C2802 C 0.35438 0.33541 0.65349 0.0
C2803 C 0.37009 0.29969 0.62823 0.0
C2804 C 0.37515 0.34781 0.69615 0.0
C2805 C 0.33628 0.38395 0.70477 0.0
N2806 N 0.37128 0.31541 0.6495 0.0
N2807 N 0.33644 0.36898 0.68298 0.0
H2808 H 0.91541 0.65645 0.78306 0.0
H2809 H 0.83426 0.72206 0.89916 0.0
H2810 H 0.94128 0.72253 0.82668 0.0
H2811 H 0.81108 0.65098 0.86222 0.0
H2812 H 0.87305 0.72288 0.87175 0.0
H2813 H 0.87746 0.65313 0.81188 0.0
C2814 C 0.91342 0.66985 0.79903 0.0
C2815 C 0.93171 0.68959 0.80271 0.0
C2816 C 0.85947 0.70709 0.8696 0.0
C2817 C 0.8879 0.68662 0.83513 0.0
C2818 C 0.83713 0.70678 0.88512 0.0
C2819 C 0.81931 0.68638 0.88321 0.0
C2820 C 0.86408 0.68695 0.85179 0.0
C2821 C 0.82439 0.66695 0.86472 0.0
C2822 C 0.89161 0.66817 0.81532 0.0
C2823 C 0.92775 0.70689 0.82331 0.0
N2824 N 0.84618 0.6677 0.84983 0.0
N2825 N 0.90635 0.7051 0.83855 0.0
H2826 H 0.33417 0.81761 0.14354 0.0
H2827 H 0.40999 0.87917 0.26509 0.0
H2828 H 0.29529 0.84614 0.2116 0.0
H2829 H 0.44369 0.82418 0.2124 0.0
H2830 H 0.36952 0.8778 0.23968 0.0
H2831 H 0.37585 0.83021 0.16275 0.0
C2832 C 0.33433 0.82693 0.16231 0.0
C2833 C 0.31112 0.83057 0.17602 0.0
C2834 C 0.38601 0.8665 0.23337 0.0
C2835 C 0.3589 0.84521 0.19817 0.0
C2836 C 0.40917 0.86752 0.24772 0.0
C2837 C 0.43027 0.85188 0.24075 0.0
C2838 C 0.38409 0.84995 0.21177 0.0
C2839 C 0.42793 0.83668 0.21832 0.0
C2840 C 0.35815 0.834 0.17334 0.0
C2841 C 0.31267 0.84262 0.20044 0.0
N2842 N 0.40535 0.83604 0.20474 0.0
N2843 N 0.33605 0.84941 0.21072 0.0
H2844 H 0.23109 0.15121 0.68102 0.0
H2845 H 0.09757 0.22319 0.71465 0.0
H2846 H 0.20554 0.22125 0.64367 0.0
H2847 H 0.12598 0.15855 0.75885 0.0
H2848 H 0.13526 0.22008 0.68628 0.0
H2849 H 0.19217 0.15184 0.70804 0.0
C2850 C 0.21732 0.16682 0.67851 0.0
C2851 C 0.22169 0.18618 0.6598 0.0
C2852 C 0.13326 0.20634 0.70196 0.0
C2853 C 0.17669 0.18688 0.6909 0.0
C2854 C 0.11159 0.20796 0.71805 0.0
C2855 C 0.10841 0.1909 0.73896 0.0
C2856 C 0.15236 0.18766 0.70681 0.0
C2857 C 0.12739 0.1718 0.74271 0.0
C2858 C 0.19506 0.16712 0.69401 0.0
C2859 C 0.20322 0.20602 0.65785 0.0
N2860 N 0.14861 0.17076 0.72686 0.0
N2861 N 0.18155 0.20576 0.67302 0.0
H2862 H 0.63004 0.37866 0.27671 0.0
H2863 H 0.70695 0.31642 0.39723 0.0
H2864 H 0.59719 0.32281 0.32901 0.0
H2865 H 0.74529 0.34766 0.33006 0.0
H2866 H 0.66504 0.32855 0.37825 0.0
H2867 H 0.67056 0.37764 0.30205 0.0
C2868 C 0.63106 0.36687 0.29397 0.0
C2869 C 0.6102 0.35089 0.30086 0.0
C2870 C 0.68266 0.33303 0.3678 0.0
C2871 C 0.65643 0.34934 0.32974 0.0
C2872 C 0.70662 0.32622 0.37871 0.0
C2873 C 0.72976 0.33076 0.36516 0.0
C2874 C 0.6817 0.34484 0.34327 0.0
C2875 C 0.72798 0.34342 0.34107 0.0
C2876 C 0.65425 0.36605 0.30828 0.0
C2877 C 0.61277 0.33555 0.32315 0.0
N2878 N 0.70446 0.3499 0.33089 0.0
N2879 N 0.63538 0.33508 0.33668 0.0
H2880 H 0.98306 0.33787 0.24066 0.0
H2881 H 1.00956 0.27617 0.10255 0.0
H2882 H 0.04985 0.29055 0.22491 0.0
H2883 H 0.93604 0.30924 0.12421 0.0
H2884 H 0.02338 0.27817 0.14783 0.0
H2885 H 0.96395 0.32418 0.19961 0.0
C2886 C 0.99335 0.32394 0.22883 0.0
C2887 C 1.01793 0.31509 0.23632 0.0
C2888 C 1.00409 0.28468 0.14279 0.0
C2889 C 0.99662 0.30008 0.1886 0.0
C2890 C 0.9962 0.28365 0.11689 0.0
C2891 C 0.97165 0.29281 0.10944 0.0
C2892 C 0.98749 0.29527 0.16153 0.0
C2893 C 0.95509 0.30193 0.12898 0.0
C2894 C 0.98251 0.31626 0.20528 0.0
C2895 C 0.03065 0.29746 0.22007 0.0
N2896 N 0.96344 0.30328 0.15399 0.0
N2897 N 1.02006 0.29088 0.19675 0.0
H2898 H 0.60521 0.73083 0.62318 0.0
H2899 H 0.49045 0.75131 0.72645 0.0
H2900 H 0.53182 0.76583 0.60421 0.0
H2901 H 0.55517 0.69997 0.73774 0.0
H2902 H 0.50975 0.76548 0.6852 0.0
H2903 H 0.59145 0.72799 0.66852 0.0
C2904 C 0.58639 0.73834 0.6286 0.0
C2905 C 0.56956 0.74831 0.60973 0.0
C2906 C 0.51998 0.75152 0.697 0.0
C2907 C 0.55357 0.745 0.66171 0.0
C2908 C 0.50913 0.7437 0.72068 0.0
C2909 C 0.52131 0.72455 0.73555 0.0
C2910 C 0.54327 0.74023 0.68832 0.0
C2911 C 0.54518 0.71483 0.72686 0.0
C2912 C 0.57846 0.73656 0.65448 0.0
C2913 C 0.54529 0.75758 0.61798 0.0
N2914 N 0.55527 0.72263 0.70383 0.0
N2915 N 0.53797 0.75556 0.64324 0.0
H2916 H 0.50837 0.26459 0.93949 0.0
H2917 H 0.4837 0.20167 0.80173 0.0
H2918 H 0.43515 0.23123 0.9174 0.0
H2919 H 0.54951 0.25032 0.81734 0.0
H2920 H 0.46409 0.21544 0.84253 0.0
H2921 H 0.52254 0.26249 0.89433 0.0
C2922 C 0.49514 0.25706 0.92507 0.0
C2923 C 0.47058 0.24784 0.93236 0.0
C2924 C 0.48254 0.22363 0.83688 0.0
C2925 C 0.48684 0.2452 0.88041 0.0
C2926 C 0.49366 0.2159 0.81347 0.0
C2927 C 0.51811 0.22512 0.80602 0.0
C2928 C 0.49624 0.24025 0.85346 0.0
C2929 C 0.53043 0.24312 0.82217 0.0
C2930 C 0.50324 0.25596 0.89923 0.0
C2931 C 0.4542 0.2386 0.91273 0.0
N2932 N 0.51957 0.24975 0.84535 0.0
N2933 N 0.46275 0.23716 0.88779 0.0
H2934 H 0.10647 0.80857 0.41644 0.0
H2935 H 0.99072 0.789 0.31419 0.0
H2936 H 0.03251 0.77537 0.4363 0.0
H2937 H 0.05592 0.83951 0.30214 0.0
H2938 H 1.0102 0.77476 0.35534 0.0
H2939 H 0.09254 0.81102 0.37113 0.0
C2940 C 0.08749 0.80135 0.41122 0.0
C2941 C 0.07056 0.79202 0.43032 0.0
C2942 C 1.0205 0.78853 0.34338 0.0
C2943 C 0.05437 0.79488 0.37839 0.0
C2944 C 1.00954 0.79638 0.31976 0.0
C2945 C 0.02183 0.81532 0.30472 0.0
C2946 C 0.04398 0.79958 0.35182 0.0
C2947 C 0.04589 0.82478 0.31316 0.0
C2948 C 0.07946 0.80291 0.38536 0.0
C2949 C 0.04606 0.78311 0.42233 0.0
N2950 N 0.05607 0.81696 0.33614 0.0
N2951 N 0.03866 0.78491 0.39709 0.0
H2952 H 0.23085 0.04513 0.28598 0.0
H2953 H 0.10162 1.00845 0.27299 0.0
H2954 H 0.231 0.98847 0.34713 0.0
H2955 H 0.12356 0.93688 0.30964 0.0
H2956 H 0.14644 0.02318 0.27577 0.0
H2957 H 0.19013 0.02659 0.26973 0.0
C2958 C 0.22261 0.02845 0.29563 0.0
C2959 C 0.23421 1.01847 0.31805 0.0
C2960 C 0.14178 1.00396 0.28256 0.0
C2961 C 0.18718 0.99765 0.30022 0.0
C2962 C 0.11603 0.99561 0.2812 0.0
C2963 C 0.10874 0.97141 0.29121 0.0
C2964 C 0.16053 0.9881 0.29428 0.0
C2965 C 0.12828 0.9556 0.30155 0.0
C2966 C 0.19909 1.01813 0.28665 0.0
C2967 C 0.22257 0.99695 0.32992 0.0
N2968 N 0.15312 0.96441 0.30324 0.0
N2969 N 0.19972 0.98741 0.32099 0.0
H2970 H 0.43821 0.03246 0.77447 0.0
H2971 H 0.30182 0.05701 0.84056 0.0
H2972 H 0.41733 0.10509 0.80967 0.0
H2973 H 0.31572 0.99238 0.78992 0.0
H2974 H 0.34261 0.07644 0.82649 0.0
H2975 H 0.39292 1.01866 0.77713 0.0
C2976 C 0.42403 0.04563 0.78253 0.0
C2977 C 0.4317 0.06992 0.7921 0.0
C2978 C 0.33658 0.0583 0.81795 0.0
C2979 C 0.37963 0.05409 0.79537 0.0
C2980 C 0.31319 0.04728 0.82586 0.0
C2981 C 0.30527 0.02321 0.81616 0.0
C2982 C 0.35268 0.04486 0.80064 0.0
C2983 C 0.32093 1.01117 0.79753 0.0
C2984 C 0.39813 0.03776 0.78394 0.0
C2985 C 0.41237 0.08625 0.80202 0.0
N2986 N 0.34412 0.0219 0.79071 0.0
N2987 N 0.38737 0.07791 0.80375 0.0
H2988 H 0.73994 0.55659 0.70303 0.0
H2989 H 0.60277 0.53145 0.76736 0.0
H2990 H 0.72495 0.49072 0.75171 0.0
H2991 H 0.62424 0.60454 0.73352 0.0
H2992 H 0.64802 0.51748 0.76487 0.0
H2993 H 0.6992 0.57602 0.71725 0.0
C2994 C 0.72835 0.54657 0.71736 0.0
C2995 C 0.73596 0.52215 0.72644 0.0
C2996 C 0.64296 0.53671 0.75832 0.0
C2997 C 0.68858 0.54383 0.74209 0.0
C2998 C 0.61708 0.54469 0.75965 0.0
C2999 C 0.60958 0.56916 0.7504 0.0
C3000 C 0.66162 0.55313 0.74731 0.0
C3001 C 0.62907 0.58556 0.74092 0.0
C3002 C 0.70497 0.55759 0.72534 0.0
C3003 C 0.72 0.50977 0.74459 0.0
N3004 N 0.65405 0.57712 0.73926 0.0
N3005 N 0.69684 0.52053 0.75148 0.0
H3006 H 0.9382 0.50904 0.26632 0.0
H3007 H 0.80123 0.48425 0.2018 0.0
H3008 H 0.91647 0.43579 0.233 0.0
H3009 H 0.81593 0.54971 0.25113 0.0
H3010 H 0.84191 0.46471 0.21607 0.0
H3011 H 0.89299 0.52311 0.26381 0.0
C3012 C 0.92385 0.49579 0.25871 0.0
C3013 C 0.93124 0.47125 0.24962 0.0
C3014 C 0.83608 0.48307 0.22429 0.0
C3015 C 0.87928 0.48738 0.24651 0.0
C3016 C 0.81274 0.49415 0.21627 0.0
C3017 C 0.80509 0.51847 0.22554 0.0
C3018 C 0.85237 0.4967 0.24125 0.0
C3019 C 0.82093 0.53072 0.24387 0.0
C3020 C 0.89799 0.50382 0.25738 0.0
C3021 C 0.91171 0.45483 0.24027 0.0
N3022 N 0.84406 0.51992 0.25079 0.0
N3023 N 0.88676 0.46332 0.2386 0.0
H3024 H 0.33718 0.2388 0.98479 0.0
H3025 H 0.2751 0.1008 1.01034 0.0
H3026 H 0.28999 0.22268 0.05155 0.0
H3027 H 0.30807 0.12293 0.93697 0.0
H3028 H 0.27724 0.14592 0.0245 0.0
H3029 H 0.32328 0.19799 0.9654 0.0
C3030 C 0.32322 0.22695 0.99501 0.0
C3031 C 0.31447 0.23426 1.01966 0.0
C3032 C 0.28369 0.14102 1.00518 0.0
C3033 C 0.29922 0.18681 0.99803 0.0
C3034 C 0.28257 0.11521 0.99709 0.0
C3035 C 0.29167 0.10794 0.97248 0.0
C3036 C 0.29431 0.15985 0.98871 0.0
C3037 C 0.3008 0.12757 0.95607 0.0
C3038 C 0.31543 0.20353 0.98402 0.0
C3039 C 0.29682 0.21797 0.03231 0.0
N3040 N 0.30223 0.15248 0.9646 0.0
N3041 N 0.29012 0.19479 0.02156 0.0
H3042 H 0.83983 0.30265 0.05756 0.0
H3043 H 0.77534 0.43944 0.0319 0.0
H3044 H 0.79042 0.31705 0.99202 0.0
H3045 H 0.80931 0.41836 0.10512 0.0
H3046 H 0.77786 0.39421 1.01813 0.0
H3047 H 0.82582 0.34352 0.07679 0.0
C3048 C 0.82538 0.31414 0.04759 0.0
C3049 C 0.816 0.30633 0.02334 0.0
C3050 C 0.78444 0.39936 0.03734 0.0
C3051 C 0.80061 0.35384 0.04474 0.0
C3052 C 0.78311 0.42524 0.0452 0.0
C3053 C 0.79237 0.43283 0.06965 0.0
C3054 C 0.79546 0.38081 0.05387 0.0
C3055 C 0.8019 0.41346 0.08614 0.0
C3056 C 0.81751 0.33759 0.05849 0.0
C3057 C 0.79774 0.32217 1.01097 0.0
N3058 N 0.80355 0.38848 0.07783 0.0
N3059 N 0.79097 0.34539 0.02159 0.0
H3060 H 0.75194 0.72669 0.49332 0.0
H3061 H 0.73097 0.6232 0.60763 0.0
H3062 H 0.69849 0.73688 0.55648 0.0
H3063 H 0.76542 0.60413 0.53406 0.0
H3064 H 0.72803 0.66851 0.59384 0.0
H3065 H 0.76617 0.68555 0.5128 0.0
C3066 C 0.74389 0.7207 0.51172 0.0
C3067 C 0.72417 0.73523 0.52343 0.0
C3068 C 0.73653 0.65446 0.58083 0.0
C3069 C 0.73993 0.68818 0.54558 0.0
C3070 C 0.73836 0.6286 0.58877 0.0
C3071 C 0.7482 0.60973 0.5719 0.0
C3072 C 0.74483 0.66164 0.5559 0.0
C3073 C 0.75733 0.61793 0.54757 0.0
C3074 C 0.75174 0.6971 0.52267 0.0
C3075 C 0.71384 0.72627 0.54692 0.0
N3076 N 0.75529 0.64317 0.54026 0.0
N3077 N 0.72172 0.70335 0.55713 0.0
H3078 H 0.21153 0.79789 0.482 0.0
H3079 H 0.21225 0.93951 0.50611 0.0
H3080 H 0.24161 0.82119 0.55609 0.0
H3081 H 0.26952 0.91974 0.44827 0.0
H3082 H 0.21219 0.8949 0.52058 0.0
H3083 H 0.22377 0.84038 0.46416 0.0
C3084 C 0.22162 0.8116 0.49422 0.0
C3085 C 0.22608 0.80589 0.52042 0.0
C3086 C 0.22486 0.90049 0.50482 0.0
C3087 C 0.2388 0.8547 0.50054 0.0
C3088 C 0.2252 0.92614 0.49654 0.0
C3089 C 0.24158 0.9342 0.47622 0.0
C3090 C 0.24017 0.88212 0.49223 0.0
C3091 C 0.25654 0.91488 0.46394 0.0
C3092 C 0.22844 0.83581 0.48407 0.0
C3093 C 0.23835 0.82465 0.5357 0.0
N3094 N 0.25531 0.8897 0.47197 0.0
N3095 N 0.24362 0.84849 0.52574 0.0
H3096 H 0.05678 0.70205 0.80162 0.0
H3097 H 0.03078 0.76643 0.93867 0.0
H3098 H 0.99054 0.75043 0.81644 0.0
H3099 H 0.10373 0.73164 0.91782 0.0
H3100 H 1.01702 0.76382 0.89341 0.0
H3101 H 0.07589 0.71603 0.84256 0.0
C3102 C 0.0466 0.71625 0.81322 0.0
C3103 C 0.02216 0.72531 0.8055 0.0
C3104 C 0.03617 0.75706 0.89862 0.0
C3105 C 0.04349 0.74071 0.8531 0.0
C3106 C 0.04403 0.75844 0.92452 0.0
C3107 C 0.06839 0.74899 0.9322 0.0
C3108 C 0.05263 0.74583 0.88012 0.0
C3109 C 0.08483 0.73921 0.91287 0.0
C3110 C 0.05744 0.7241 0.83671 0.0
C3111 C 1.00961 0.74332 0.82147 0.0
N3112 N 0.07652 0.73754 0.88787 0.0
N3113 N 1.0202 0.75009 0.84472 0.0
H3114 H 0.54893 0.28906 0.31428 0.0
H3115 H 0.43377 0.30997 0.41702 0.0
H3116 H 0.48495 0.34132 0.30301 0.0
H3117 H 0.50744 0.27599 0.43665 0.0
H3118 H 0.44769 0.3125 0.37169 0.0
H3119 H 0.5293 0.27497 0.35542 0.0
C3120 C 0.53033 0.29688 0.32003 0.0
C3121 C 0.51845 0.31625 0.30521 0.0
C3122 C 0.4607 0.3042 0.38587 0.0
C3123 C 0.49612 0.30065 0.35227 0.0
C3124 C 0.45267 0.30259 0.41174 0.0
C3125 C 0.46954 0.29302 0.43077 0.0
C3126 C 0.48571 0.29594 0.37884 0.0
C3127 C 0.49394 0.2839 0.42272 0.0
C3128 C 0.51929 0.28911 0.34364 0.0
C3129 C 0.49468 0.32626 0.31386 0.0
N3130 N 0.50133 0.28573 0.39747 0.0
N3131 N 0.4844 0.31848 0.33681 0.0
H3132 H 0.60537 0.8095 0.12413 0.0
H3133 H 0.491 0.78939 0.22789 0.0
H3134 H 0.53191 0.77454 0.1055 0.0
H3135 H 0.55508 0.84168 0.23828 0.0
H3136 H 0.51031 0.77496 0.18673 0.0
H3137 H 0.5917 0.81265 0.16948 0.0
C3138 C 0.58656 0.80205 0.12963 0.0
C3139 C 0.56968 0.792 0.11086 0.0
C3140 C 0.52041 0.7892 0.19832 0.0
C3141 C 0.55379 0.79565 0.16284 0.0
C3142 C 0.50954 0.79717 0.22194 0.0
C3143 C 0.52153 0.81665 0.23653 0.0
C3144 C 0.54352 0.80064 0.18942 0.0
C3145 C 0.54524 0.82656 0.22761 0.0
C3146 C 0.57868 0.80401 0.15552 0.0
C3147 C 0.54541 0.78281 0.11921 0.0
N3148 N 0.55535 0.81859 0.20465 0.0
N3149 N 0.53815 0.785 0.14447 0.0
H3150 H 1.00996 0.26533 0.60216 0.0
H3151 H 0.98336 0.2031 0.74003 0.0
H3152 H 0.93662 0.23169 0.62347 0.0
H3153 H 0.04997 0.25073 0.7246 0.0
H3154 H 0.96432 0.21678 0.69894 0.0
H3155 H 0.02365 0.26325 0.64746 0.0
C3156 C 0.99662 0.2577 0.61642 0.0
C3157 C 0.97215 0.24841 0.60886 0.0
C3158 C 0.98283 0.22477 0.70468 0.0
C3159 C 0.98785 0.24587 0.661 0.0
C3160 C 0.99362 0.21711 0.72827 0.0
C3161 C 1.01813 0.22604 0.73586 0.0
C3162 C 0.99691 0.24104 0.68809 0.0
C3163 C 0.03083 0.24375 0.71967 0.0
C3164 C 1.00443 0.25663 0.64234 0.0
C3165 C 0.9556 0.23911 0.62832 0.0
N3166 N 1.02029 0.25033 0.69634 0.0
N3167 N 0.96388 0.23773 0.65336 0.0
H3168 H 0.80108 0.05694 0.70204 0.0
H3169 H 0.93833 0.03237 0.76616 0.0
H3170 H 0.81608 0.99159 0.75141 0.0
H3171 H 0.91648 0.1055 0.73264 0.0
H3172 H 0.89312 1.01829 0.76382 0.0
H3173 H 0.8418 0.07655 0.71611 0.0
C3174 C 0.81266 0.0471 0.7165 0.0
C3175 C 0.80507 0.0228 0.72586 0.0
C3176 C 0.8981 0.03755 0.75731 0.0
C3177 C 0.85241 0.04462 0.7413 0.0
C3178 C 0.92396 0.04559 0.75855 0.0
C3179 C 0.93132 0.0701 0.74935 0.0
C3180 C 0.87934 0.05396 0.74643 0.0
C3181 C 0.91175 0.08649 0.73999 0.0
C3182 C 0.83602 0.05821 0.7244 0.0
C3183 C 0.82102 1.01058 0.74411 0.0
N3184 N 0.88679 0.07799 0.73841 0.0
N3185 N 0.84417 0.02141 0.75091 0.0
H3186 H 0.73862 0.98431 0.20147 0.0
H3187 H 0.60246 1.00944 0.26792 0.0
H3188 H 0.72472 0.04958 0.25132 0.0
H3189 H 0.62312 0.93667 0.23289 0.0
H3190 H 0.64774 0.0232 0.265 0.0
H3191 H 0.69792 0.96499 0.21591 0.0
C3192 C 0.72727 0.99423 0.21606 0.0
C3193 C 0.73516 1.01846 0.22541 0.0
C3194 C 0.64249 1.00408 0.25828 0.0
C3195 C 0.68785 0.99689 0.24137 0.0
C3196 C 0.61659 0.99623 0.25985 0.0
C3197 C 0.60886 0.97192 0.2504 0.0
C3198 C 0.66092 0.98769 0.24682 0.0
C3199 C 0.62813 0.95553 0.24045 0.0
C3200 C 0.70392 0.98326 0.2242 0.0
C3201 C 0.71954 0.03068 0.24396 0.0
N3202 N 0.65313 0.96385 0.23858 0.0
N3203 N 0.6964 1.01998 0.25099 0.0
H3204 H 0.43871 0.50923 0.2742 0.0
H3205 H 0.30253 0.48449 0.34057 0.0
H3206 H 0.41799 0.43654 0.30934 0.0
H3207 H 0.31619 0.54917 0.28993 0.0
H3208 H 0.34331 0.46511 0.32638 0.0
H3209 H 0.39341 0.523 0.27698 0.0
C3210 C 0.42456 0.49604 0.28227 0.0
C3211 C 0.43227 0.47175 0.29179 0.0
C3212 C 0.33723 0.48325 0.31786 0.0
C3213 C 0.38021 0.48753 0.29519 0.0
C3214 C 0.31384 0.49424 0.32585 0.0
C3215 C 0.30587 0.51831 0.31617 0.0
C3216 C 0.35326 0.49672 0.30052 0.0
C3217 C 0.32145 0.53037 0.29751 0.0
C3218 C 0.39865 0.5039 0.28376 0.0
C3219 C 0.41299 0.45538 0.30172 0.0
N3220 N 0.34464 0.51968 0.29062 0.0
N3221 N 0.38798 0.46371 0.30351 0.0
H3222 H 0.22653 0.49062 0.78976 0.0
H3223 H 0.12426 0.60646 0.80875 0.0
H3224 H 0.23825 0.55544 0.84076 0.0
H3225 H 0.10442 0.53264 0.77547 0.0
H3226 H 0.16956 0.59238 0.81159 0.0
H3227 H 0.18548 0.51021 0.77528 0.0
C3228 C 0.22091 0.50938 0.79721 0.0
C3229 C 0.23584 0.52152 0.81635 0.0
C3230 C 0.15535 0.57937 0.80337 0.0
C3231 C 0.18885 0.54381 0.80032 0.0
C3232 C 0.12949 0.58748 0.80159 0.0
C3233 C 0.1104 0.57063 0.79212 0.0
C3234 C 0.16231 0.55428 0.79541 0.0
C3235 C 0.11839 0.54614 0.78329 0.0
C3236 C 0.19735 0.5204 0.78922 0.0
C3237 C 0.22733 0.5455 0.82588 0.0
N3238 N 0.14362 0.53866 0.78529 0.0
N3239 N 0.20441 0.55576 0.81792 0.0
H3240 H 0.70043 0.80153 0.05762 0.0
H3241 H 0.76546 0.93807 0.03219 0.0
H3242 H 0.74989 0.81583 0.99208 0.0
H3243 H 0.73142 0.91702 0.10538 0.0
H3244 H 0.76278 0.89287 1.01835 0.0
H3245 H 0.71459 0.84229 0.0769 0.0
C3246 C 0.71489 0.81298 0.04763 0.0
C3247 C 0.72421 0.80517 0.02334 0.0
C3248 C 0.75623 0.89802 0.03758 0.0
C3249 C 0.73983 0.85256 0.04486 0.0
C3250 C 0.75766 0.92387 0.04548 0.0
C3251 C 0.74842 0.93147 0.06994 0.0
C3252 C 0.74512 0.87949 0.05406 0.0
C3253 C 0.73882 0.91211 0.08641 0.0
C3254 C 0.72286 0.83637 0.05858 0.0
C3255 C 0.74256 0.82094 1.01103 0.0
N3256 N 0.73706 0.88716 0.07804 0.0
N3257 N 0.74943 0.84411 0.0217 0.0
H3258 H 0.26549 0.60279 1.0093 0.0
H3259 H 0.19987 0.7389 0.98366 0.0
H3260 H 0.23142 0.62348 0.93602 0.0
H3261 H 0.25035 0.72538 0.04859 0.0
H3262 H 0.21407 0.6981 0.96445 0.0
H3263 H 0.26284 0.64807 0.0229 0.0
C3264 C 0.25769 0.61693 0.99594 0.0
C3265 C 0.24844 0.60922 0.97153 0.0
C3266 C 0.22256 0.70421 0.9826 0.0
C3267 C 0.24515 0.66127 0.98712 0.0
C3268 C 0.21457 0.72762 0.9935 0.0
C3269 C 0.2242 0.73565 1.01758 0.0
C3270 C 0.23984 0.68822 0.9962 0.0
C3271 C 0.24281 0.72008 0.02977 0.0
C3272 C 0.25628 0.64283 1.0037 0.0
C3273 C 0.23883 0.62849 0.95496 0.0
N3274 N 0.24969 0.69688 1.01917 0.0
N3275 N 0.23707 0.65349 0.96319 0.0
H3276 H 0.33743 0.30176 0.48437 0.0
H3277 H 0.27514 0.43979 0.50997 0.0
H3278 H 0.29043 0.31796 0.55126 0.0
H3279 H 0.30847 0.41778 0.43672 0.0
H3280 H 0.27737 0.39467 0.52412 0.0
H3281 H 0.32354 0.34261 0.46503 0.0
C3282 C 0.32351 0.31364 0.49464 0.0
C3283 C 0.31481 0.30633 0.51931 0.0
C3284 C 0.28389 0.39959 0.50482 0.0
C3285 C 0.29957 0.35383 0.49772 0.0
C3286 C 0.28272 0.42541 0.49674 0.0
C3287 C 0.29189 0.43272 0.47217 0.0
C3288 C 0.29463 0.3808 0.48839 0.0
C3289 C 0.30115 0.41312 0.45578 0.0
C3290 C 0.31573 0.33708 0.48367 0.0
C3291 C 0.29722 0.32266 0.532 0.0
N3292 N 0.30262 0.38819 0.46431 0.0
N3293 N 0.29052 0.34586 0.52127 0.0
H3294 H 0.8415 0.24046 0.55818 0.0
H3295 H 0.80458 0.1231 0.61056 0.0
H3296 H 0.79137 0.22313 0.49396 0.0
H3297 H 0.78496 0.10342 0.53183 0.0
H3298 H 0.80618 0.16859 0.5982 0.0
H3299 H 0.82889 0.20008 0.57875 0.0
C3300 C 0.82697 0.2285 0.54891 0.0
C3301 C 0.81707 0.23537 0.5246 0.0
C3302 C 0.80177 0.15439 0.5835 0.0
C3303 C 0.80266 0.18841 0.54786 0.0
C3304 C 0.80044 0.1283 0.59069 0.0
C3305 C 0.79515 0.10913 0.57217 0.0
C3306 C 0.79798 0.16154 0.55746 0.0
C3307 C 0.78988 0.11732 0.5467 0.0
C3308 C 0.81972 0.20531 0.56068 0.0
C3309 C 0.79896 0.21881 0.513 0.0
N3310 N 0.79163 0.14276 0.5401 0.0
N3311 N 0.79269 0.19587 0.52452 0.0
loop_
_geom_bond_atom_site_label_1
_geom_bond_atom_site_label_2
_geom_bond_distance
_geom_bond_site_symmetry_2
_ccdc_geom_bond_type
Tb0 N31 2.660 . S
Tb0 N38 2.600 . S
Tb0 O44 2.546 1_455 S
Tb0 O45 2.610 . S
Tb0 O47 2.320 1_455 S
Tb0 O48 2.552 1_455 S
Tb0 O49 2.413 1_455 S
Tb0 O51 2.362 . S
Tb0 O52 2.421 . S
Tb0 C64 2.833 1_455 S
C1 C4 1.432 . S
C1 C5 1.414 1_455 S
C1 N8 1.359 . S
C2 C4 1.417 . S
C2 C6 1.432 1_455 S
C2 C14 1.410 . S
C3 C5 1.444 . S
C3 C6 1.317 . S
C3 H26 0.929 . S
C4 C1 1.432 . S
C4 C2 1.417 . S
C4 N12 1.360 . S
C5 C1 1.414 1_655 S
C5 C3 1.444 . S
C5 C10 1.385 . S
C6 C2 1.432 1_655 S
C6 C3 1.317 . S
C6 H18 0.930 . S
C7 C9 1.392 1_655 S
C7 C10 1.370 . S
C7 H19 0.931 . S
N8 C1 1.359 . S
N8 C9 1.327 . S
N8 Tb11 2.600 . S
C9 C7 1.392 1_455 S
C9 N8 1.327 . S
C9 H16 0.930 . S
C10 C5 1.385 . S
C10 C7 1.370 . S
C10 H29 0.930 . S
Tb11 N8 2.600 . S
Tb11 N12 2.660 . S
Tb11 O45 2.362 . S
Tb11 O46 2.421 . S
Tb11 O50 2.546 . S
Tb11 O51 2.610 . S
Tb11 O53 2.320 . S
Tb11 O54 2.552 . S
Tb11 O55 2.413 . S
Tb11 C75 2.833 . S
N12 C4 1.360 . S
N12 Tb11 2.660 . S
N12 C13 1.305 . S
C13 N12 1.305 . S
C13 C15 1.407 . S
C13 H20 0.930 . S
C14 C2 1.410 . S
C14 C15 1.345 . S
C14 H22 0.930 . S
C15 C13 1.407 . S
C15 C14 1.345 . S
C15 H17 0.930 . S
H16 C9 0.930 . S
H17 C15 0.930 . S
H18 C6 0.930 . S
H19 C7 0.931 . S
H20 C13 0.930 . S
H21 C35 0.930 . S
H22 C14 0.930 . S
H23 C41 0.930 . S
H24 C32 0.930 . S
H25 C39 0.931 . S
H26 C3 0.929 . S
H27 C33 0.930 . S
H28 C66 0.930 . S
H29 C10 0.930 . S
H30 C65 0.929 . S
N31 Tb0 2.660 . S
N31 C32 1.305 . S
N31 C36 1.360 . S
C32 H24 0.930 . S
C32 N31 1.305 . S
C32 C35 1.407 . S
C33 H27 0.930 . S
C33 C34 1.410 . S
C33 C35 1.345 . S
C34 C33 1.410 . S
C34 C36 1.417 . S
C34 C66 1.432 . S
C35 H21 0.930 . S
C35 C32 1.407 . S
C35 C33 1.345 . S
C36 N31 1.360 . S
C36 C34 1.417 . S
C36 C40 1.432 . S
H37 C42 0.930 . S
N38 Tb0 2.600 . S
N38 C40 1.359 . S
N38 C41 1.327 . S
C39 H25 0.931 . S
C39 C41 1.392 . S
C39 C42 1.370 . S
C40 C36 1.432 . S
C40 N38 1.359 . S
C40 C43 1.414 . S
C41 H23 0.930 . S
C41 N38 1.327 . S
C41 C39 1.392 . S
C42 H37 0.930 . S
C42 C39 1.370 . S
C42 C43 1.385 . S
C43 C40 1.414 . S
C43 C42 1.385 . S
C43 C65 1.444 . S
O44 Tb0 2.546 1_655 S
O44 C64 1.251 . S
O45 Tb0 2.610 . S
O45 Tb11 2.362 . S
O45 C56 1.283 1_455 S
O46 Tb11 2.421 . S
O46 C63 1.262 1_455 S
O47 Tb0 2.320 1_655 S
O47 C63 1.260 . S
O48 Tb0 2.552 1_655 S
O48 C56 1.243 . S
O49 Tb0 2.413 1_655 S
O49 C64 1.256 . S
O50 Tb11 2.546 . S
O50 C75 1.251 . S
O51 Tb0 2.362 . S
O51 Tb11 2.610 . S
O51 C67 1.283 . S
O52 Tb0 2.421 . S
O52 C74 1.262 . S
O53 Tb11 2.320 . S
O53 C74 1.260 . S
O54 Tb11 2.552 . S
O54 C67 1.243 . S
O55 Tb11 2.413 . S
O55 C75 1.256 . S
C56 O45 1.283 1_655 S
C56 O48 1.243 . S
C57 C59 1.382 . S
C57 C61 1.393 . S
C57 C64 1.500 . S
C58 C59 1.400 . S
C58 C60 1.384 . S
C59 C57 1.382 . S
C59 C58 1.400 . S
C59 H76 0.930 . S
C60 C58 1.384 . S
C60 C62 1.392 . S
C60 H77 0.931 . S
C61 C57 1.393 . S
C61 C62 1.401 . S
C61 H78 0.930 . S
C62 C60 1.392 . S
C62 C61 1.401 . S
C62 H79 0.930 . S
C63 O46 1.262 1_655 S
C63 O47 1.260 . S
C64 Tb0 2.833 1_655 S
C64 O44 1.251 . S
C64 O49 1.256 . S
C64 C57 1.500 . S
C65 H30 0.929 . S
C65 C43 1.444 . S
C65 C66 1.317 . S
C66 H28 0.930 . S
C66 C34 1.432 . S
C66 C65 1.317 . S
C67 O51 1.283 . S
C67 O54 1.243 . S
C68 C69 1.382 . S
C68 C72 1.393 . S
C68 C75 1.500 . S
C69 C68 1.382 . S
C69 C70 1.400 . S
C69 H80 0.930 . S
C70 C69 1.400 . S
C70 C71 1.384 . S
C71 C70 1.384 . S
C71 C73 1.392 . S
C71 H81 0.931 . S
C72 C68 1.393 . S
C72 C73 1.401 . S
C72 H82 0.930 . S
C73 C71 1.392 . S
C73 C72 1.401 . S
C73 H83 0.930 . S
C74 O52 1.262 . S
C74 O53 1.260 . S
C75 Tb11 2.833 . S
C75 O50 1.251 . S
C75 O55 1.256 . S
C75 C68 1.500 . S
H76 C59 0.930 . S
H77 C60 0.931 . S
H78 C61 0.930 . S
H79 C62 0.930 . S
H80 C69 0.930 . S
H81 C71 0.931 . S
H82 C72 0.930 . S
H83 C73 0.930 . S
Tb84 N115 2.660 . S
Tb84 N122 2.600 . S
Tb84 O128 2.546 . S
Tb84 O129 2.610 . S
Tb84 O131 2.320 . S
Tb84 O132 2.552 . S
Tb84 O133 2.413 . S
Tb84 O135 2.362 . S
Tb84 O136 2.421 . S
Tb84 C148 2.833 . S
C85 C88 1.432 . S
C85 C89 1.414 . S
C85 N92 1.359 . S
C86 C88 1.417 . S
C86 C90 1.432 . S
C86 C98 1.410 . S
C87 C89 1.444 . S
C87 C90 1.317 . S
C87 H110 0.929 . S
C88 C85 1.432 . S
C88 C86 1.417 . S
C88 N96 1.360 . S
C89 C85 1.414 . S
C89 C87 1.444 . S
C89 C94 1.385 . S
C90 C86 1.432 . S
C90 C87 1.317 . S
C90 H102 0.930 . S
C91 C93 1.392 . S
C91 C94 1.370 . S
C91 H103 0.931 . S
N92 C85 1.359 . S
N92 C93 1.327 . S
N92 Tb95 2.600 . S
C93 C91 1.392 . S
C93 N92 1.327 . S
C93 H100 0.930 . S
C94 C89 1.385 . S
C94 C91 1.370 . S
C94 H113 0.930 . S
Tb95 N92 2.600 . S
Tb95 N96 2.660 . S
Tb95 O129 2.362 . S
Tb95 O130 2.421 . S
Tb95 O134 2.546 . S
Tb95 O135 2.610 . S
Tb95 O137 2.320 . S
Tb95 O138 2.552 . S
Tb95 O139 2.413 . S
Tb95 C159 2.833 . S
N96 C88 1.360 . S
N96 Tb95 2.660 . S
N96 C97 1.305 . S
C97 N96 1.305 . S
C97 C99 1.407 . S
C97 H104 0.930 . S
C98 C86 1.410 . S
C98 C99 1.345 . S
C98 H106 0.930 . S
C99 C97 1.407 . S
C99 C98 1.345 . S
C99 H101 0.930 . S
H100 C93 0.930 . S
H101 C99 0.930 . S
H102 C90 0.930 . S
H103 C91 0.931 . S
H104 C97 0.930 . S
H105 C119 0.930 . S
H106 C98 0.930 . S
H107 C125 0.930 . S
H108 C116 0.930 . S
H109 C123 0.931 . S
H110 C87 0.929 . S
H111 C117 0.930 . S
H112 C150 0.930 . S
H113 C94 0.930 . S
H114 C149 0.929 . S
N115 Tb84 2.660 . S
N115 C116 1.305 . S
N115 C120 1.360 . S
C116 H108 0.930 . S
C116 N115 1.305 . S
C116 C119 1.407 . S
C117 H111 0.930 . S
C117 C118 1.410 . S
C117 C119 1.345 . S
C118 C117 1.410 . S
C118 C120 1.417 . S
C118 C150 1.432 . S
C119 H105 0.930 . S
C119 C116 1.407 . S
C119 C117 1.345 . S
C120 N115 1.360 . S
C120 C118 1.417 . S
C120 C124 1.432 . S
H121 C126 0.930 . S
N122 Tb84 2.600 . S
N122 C124 1.359 . S
N122 C125 1.327 . S
C123 H109 0.931 . S
C123 C125 1.392 . S
C123 C126 1.370 . S
C124 C120 1.432 . S
C124 N122 1.359 . S
C124 C127 1.414 . S
C125 H107 0.930 . S
C125 N122 1.327 . S
C125 C123 1.392 . S
C126 H121 0.930 . S
C126 C123 1.370 . S
C126 C127 1.385 . S
C127 C124 1.414 . S
C127 C126 1.385 . S
C127 C149 1.444 . S
O128 Tb84 2.546 . S
O128 C148 1.251 . S
O129 Tb84 2.610 . S
O129 Tb95 2.362 . S
O129 C140 1.283 . S
O130 Tb95 2.421 . S
O130 C147 1.262 . S
O131 Tb84 2.320 . S
O131 C147 1.260 . S
O132 Tb84 2.552 . S
O132 C140 1.243 . S
O133 Tb84 2.413 . S
O133 C148 1.256 . S
O134 Tb95 2.546 . S
O134 C159 1.251 . S
O135 Tb84 2.362 . S
O135 Tb95 2.610 . S
O135 C151 1.283 . S
O136 Tb84 2.421 . S
O136 C158 1.262 . S
O137 Tb95 2.320 . S
O137 C158 1.260 . S
O138 Tb95 2.552 . S
O138 C151 1.243 . S
O139 Tb95 2.413 . S
O139 C159 1.256 . S
C140 O129 1.283 . S
C140 O132 1.243 . S
C141 C143 1.382 . S
C141 C145 1.393 . S
C141 C148 1.500 . S
C142 C143 1.400 . S
C142 C144 1.384 . S
C143 C141 1.382 . S
C143 C142 1.400 . S
C143 H160 0.930 . S
C144 C142 1.384 . S
C144 C146 1.392 . S
C144 H161 0.931 . S
C145 C141 1.393 . S
C145 C146 1.401 . S
C145 H162 0.930 . S
C146 C144 1.392 . S
C146 C145 1.401 . S
C146 H163 0.930 . S
C147 O130 1.262 . S
C147 O131 1.260 . S
C148 Tb84 2.833 . S
C148 O128 1.251 . S
C148 O133 1.256 . S
C148 C141 1.500 . S
C149 H114 0.929 . S
C149 C127 1.444 . S
C149 C150 1.317 . S
C150 H112 0.930 . S
C150 C118 1.432 . S
C150 C149 1.317 . S
C151 O135 1.283 . S
C151 O138 1.243 . S
C152 C153 1.382 . S
C152 C156 1.393 . S
C152 C159 1.500 . S
C153 C152 1.382 . S
C153 C154 1.400 . S
C153 H164 0.930 . S
C154 C153 1.400 . S
C154 C155 1.384 . S
C155 C154 1.384 . S
C155 C157 1.392 . S
C155 H165 0.931 . S
C156 C152 1.393 . S
C156 C157 1.401 . S
C156 H166 0.930 . S
C157 C155 1.392 . S
C157 C156 1.401 . S
C157 H167 0.930 . S
C158 O136 1.262 . S
C158 O137 1.260 . S
C159 Tb95 2.833 . S
C159 O134 1.251 . S
C159 O139 1.256 . S
C159 C152 1.500 . S
H160 C143 0.930 . S
H161 C144 0.931 . S
H162 C145 0.930 . S
H163 C146 0.930 . S
H164 C153 0.930 . S
H165 C155 0.931 . S
H166 C156 0.930 . S
H167 C157 0.930 . S
Tb168 N199 2.660 . S
Tb168 N206 2.600 . S
Tb168 O212 2.546 . S
Tb168 O213 2.610 . S
Tb168 O215 2.320 . S
Tb168 O216 2.552 . S
Tb168 O217 2.413 . S
Tb168 O219 2.362 . S
Tb168 O220 2.421 . S
Tb168 C232 2.833 . S
C169 C172 1.432 . S
C169 C173 1.414 . S
C169 N176 1.359 . S
C170 C172 1.417 . S
C170 C174 1.432 . S
C170 C182 1.410 . S
C171 C173 1.444 . S
C171 C174 1.317 . S
C171 H194 0.929 . S
C172 C169 1.432 . S
C172 C170 1.417 . S
C172 N180 1.360 . S
C173 C169 1.414 . S
C173 C171 1.444 . S
C173 C178 1.385 . S
C174 C170 1.432 . S
C174 C171 1.317 . S
C174 H186 0.930 . S
C175 C177 1.392 . S
C175 C178 1.370 . S
C175 H187 0.931 . S
N176 C169 1.359 . S
N176 C177 1.327 . S
N176 Tb179 2.600 . S
C177 C175 1.392 . S
C177 N176 1.327 . S
C177 H184 0.930 . S
C178 C173 1.385 . S
C178 C175 1.370 . S
C178 H197 0.930 . S
Tb179 N176 2.600 . S
Tb179 N180 2.660 . S
Tb179 O213 2.362 . S
Tb179 O214 2.421 . S
Tb179 O218 2.546 . S
Tb179 O219 2.610 . S
Tb179 O221 2.320 . S
Tb179 O222 2.552 . S
Tb179 O223 2.413 . S
Tb179 C243 2.833 . S
N180 C172 1.360 . S
N180 Tb179 2.660 . S
N180 C181 1.305 . S
C181 N180 1.305 . S
C181 C183 1.407 . S
C181 H188 0.930 . S
C182 C170 1.410 . S
C182 C183 1.345 . S
C182 H190 0.930 . S
C183 C181 1.407 . S
C183 C182 1.345 . S
C183 H185 0.930 . S
H184 C177 0.930 . S
H185 C183 0.930 . S
H186 C174 0.930 . S
H187 C175 0.931 . S
H188 C181 0.930 . S
H189 C203 0.930 . S
H190 C182 0.930 . S
H191 C209 0.930 . S
H192 C200 0.930 . S
H193 C207 0.931 . S
H194 C171 0.929 . S
H195 C201 0.930 . S
H196 C234 0.930 . S
H197 C178 0.930 . S
H198 C233 0.929 . S
N199 Tb168 2.660 . S
N199 C200 1.305 . S
N199 C204 1.360 . S
C200 H192 0.930 . S
C200 N199 1.305 . S
C200 C203 1.407 . S
C201 H195 0.930 . S
C201 C202 1.410 . S
C201 C203 1.345 . S
C202 C201 1.410 . S
C202 C204 1.417 . S
C202 C234 1.432 . S
C203 H189 0.930 . S
C203 C200 1.407 . S
C203 C201 1.345 . S
C204 N199 1.360 . S
C204 C202 1.417 . S
C204 C208 1.432 . S
H205 C210 0.930 . S
N206 Tb168 2.600 . S
N206 C208 1.359 . S
N206 C209 1.327 . S
C207 H193 0.931 . S
C207 C209 1.392 . S
C207 C210 1.370 . S
C208 C204 1.432 . S
C208 N206 1.359 . S
C208 C211 1.414 . S
C209 H191 0.930 . S
C209 N206 1.327 . S
C209 C207 1.392 . S
C210 H205 0.930 . S
C210 C207 1.370 . S
C210 C211 1.385 . S
C211 C208 1.414 . S
C211 C210 1.385 . S
C211 C233 1.444 . S
O212 Tb168 2.546 . S
O212 C232 1.251 . S
O213 Tb168 2.610 . S
O213 Tb179 2.362 . S
O213 C224 1.283 . S
O214 Tb179 2.421 . S
O214 C231 1.262 . S
O215 Tb168 2.320 . S
O215 C231 1.260 . S
O216 Tb168 2.552 . S
O216 C224 1.243 . S
O217 Tb168 2.413 . S
O217 C232 1.256 . S
O218 Tb179 2.546 . S
O218 C243 1.251 . S
O219 Tb168 2.362 . S
O219 Tb179 2.610 . S
O219 C235 1.283 . S
O220 Tb168 2.421 . S
O220 C242 1.262 . S
O221 Tb179 2.320 . S
O221 C242 1.260 . S
O222 Tb179 2.552 . S
O222 C235 1.243 . S
O223 Tb179 2.413 . S
O223 C243 1.256 . S
C224 O213 1.283 . S
C224 O216 1.243 . S
C225 C227 1.382 . S
C225 C229 1.393 . S
C225 C232 1.500 . S
C226 C227 1.400 . S
C226 C228 1.384 . S
C227 C225 1.382 . S
C227 C226 1.400 . S
C227 H244 0.930 . S
C228 C226 1.384 . S
C228 C230 1.392 . S
C228 H245 0.931 . S
C229 C225 1.393 . S
C229 C230 1.401 . S
C229 H246 0.930 . S
C230 C228 1.392 . S
C230 C229 1.401 . S
C230 H247 0.930 . S
C231 O214 1.262 . S
C231 O215 1.260 . S
C232 Tb168 2.833 . S
C232 O212 1.251 . S
C232 O217 1.256 . S
C232 C225 1.500 . S
C233 H198 0.929 . S
C233 C211 1.444 . S
C233 C234 1.317 . S
C234 H196 0.930 . S
C234 C202 1.432 . S
C234 C233 1.317 . S
C235 O219 1.283 . S
C235 O222 1.243 . S
C236 C237 1.382 . S
C236 C240 1.393 . S
C236 C243 1.500 . S
C237 C236 1.382 . S
C237 C238 1.400 . S
C237 H248 0.930 . S
C238 C237 1.400 . S
C238 C239 1.384 . S
C239 C238 1.384 . S
C239 C241 1.392 . S
C239 H249 0.931 . S
C240 C236 1.393 . S
C240 C241 1.401 . S
C240 H250 0.930 . S
C241 C239 1.392 . S
C241 C240 1.401 . S
C241 H251 0.930 . S
C242 O220 1.262 . S
C242 O221 1.260 . S
C243 Tb179 2.833 . S
C243 O218 1.251 . S
C243 O223 1.256 . S
C243 C236 1.500 . S
H244 C227 0.930 . S
H245 C228 0.931 . S
H246 C229 0.930 . S
H247 C230 0.930 . S
H248 C237 0.930 . S
H249 C239 0.931 . S
H250 C240 0.930 . S
H251 C241 0.930 . S
Tb252 N283 2.660 . S
Tb252 N290 2.600 . S
Tb252 O296 2.546 1_655 S
Tb252 O297 2.610 . S
Tb252 O299 2.320 1_655 S
Tb252 O300 2.552 1_655 S
Tb252 O301 2.413 1_655 S
Tb252 O303 2.362 . S
Tb252 O304 2.421 . S
Tb252 C316 2.833 1_655 S
C253 C256 1.432 . S
C253 C257 1.414 1_655 S
C253 N260 1.359 . S
C254 C256 1.417 . S
C254 C258 1.432 1_655 S
C254 C266 1.410 . S
C255 C257 1.444 . S
C255 C258 1.317 . S
C255 H278 0.929 . S
C256 C253 1.432 . S
C256 C254 1.417 . S
C256 N264 1.360 . S
C257 C253 1.414 1_455 S
C257 C255 1.444 . S
C257 C262 1.385 . S
C258 C254 1.432 1_455 S
C258 C255 1.317 . S
C258 H270 0.930 . S
C259 C261 1.392 1_455 S
C259 C262 1.370 . S
C259 H271 0.931 . S
N260 C253 1.359 . S
N260 C261 1.327 . S
N260 Tb263 2.600 . S
C261 C259 1.392 1_655 S
C261 N260 1.327 . S
C261 H268 0.930 . S
C262 C257 1.385 . S
C262 C259 1.370 . S
C262 H281 0.930 . S
Tb263 N260 2.600 . S
Tb263 N264 2.660 . S
Tb263 O297 2.362 . S
Tb263 O298 2.421 . S
Tb263 O302 2.546 . S
Tb263 O303 2.610 . S
Tb263 O305 2.320 . S
Tb263 O306 2.552 . S
Tb263 O307 2.413 . S
Tb263 C327 2.833 . S
N264 C256 1.360 . S
N264 Tb263 2.660 . S
N264 C265 1.305 . S
C265 N264 1.305 . S
C265 C267 1.407 . S
C265 H272 0.930 . S
C266 C254 1.410 . S
C266 C267 1.345 . S
C266 H274 0.930 . S
C267 C265 1.407 . S
C267 C266 1.345 . S
C267 H269 0.930 . S
H268 C261 0.930 . S
H269 C267 0.930 . S
H270 C258 0.930 . S
H271 C259 0.931 . S
H272 C265 0.930 . S
H273 C287 0.930 . S
H274 C266 0.930 . S
H275 C293 0.930 . S
H276 C284 0.930 . S
H277 C291 0.931 . S
H278 C255 0.929 . S
H279 C285 0.930 . S
H280 C318 0.930 . S
H281 C262 0.930 . S
H282 C317 0.929 . S
N283 Tb252 2.660 . S
N283 C284 1.305 . S
N283 C288 1.360 . S
C284 H276 0.930 . S
C284 N283 1.305 . S
C284 C287 1.407 . S
C285 H279 0.930 . S
C285 C286 1.410 . S
C285 C287 1.345 . S
C286 C285 1.410 . S
C286 C288 1.417 . S
C286 C318 1.432 . S
C287 H273 0.930 . S
C287 C284 1.407 . S
C287 C285 1.345 . S
C288 N283 1.360 . S
C288 C286 1.417 . S
C288 C292 1.432 . S
H289 C294 0.930 . S
N290 Tb252 2.600 . S
N290 C292 1.359 . S
N290 C293 1.327 . S
C291 H277 0.931 . S
C291 C293 1.392 . S
C291 C294 1.370 . S
C292 C288 1.432 . S
C292 N290 1.359 . S
C292 C295 1.414 . S
C293 H275 0.930 . S
C293 N290 1.327 . S
C293 C291 1.392 . S
C294 H289 0.930 . S
C294 C291 1.370 . S
C294 C295 1.385 . S
C295 C292 1.414 . S
C295 C294 1.385 . S
C295 C317 1.444 . S
O296 Tb252 2.546 1_455 S
O296 C316 1.251 . S
O297 Tb252 2.610 . S
O297 Tb263 2.362 . S
O297 C308 1.283 1_655 S
O298 Tb263 2.421 . S
O298 C315 1.262 1_655 S
O299 Tb252 2.320 1_455 S
O299 C315 1.260 . S
O300 Tb252 2.552 1_455 S
O300 C308 1.243 . S
O301 Tb252 2.413 1_455 S
O301 C316 1.256 . S
O302 Tb263 2.546 . S
O302 C327 1.251 . S
O303 Tb252 2.362 . S
O303 Tb263 2.610 . S
O303 C319 1.283 . S
O304 Tb252 2.421 . S
O304 C326 1.262 . S
O305 Tb263 2.320 . S
O305 C326 1.260 . S
O306 Tb263 2.552 . S
O306 C319 1.243 . S
O307 Tb263 2.413 . S
O307 C327 1.256 . S
C308 O297 1.283 1_455 S
C308 O300 1.243 . S
C309 C311 1.382 . S
C309 C313 1.393 . S
C309 C316 1.500 . S
C310 C311 1.400 . S
C310 C312 1.384 . S
C311 C309 1.382 . S
C311 C310 1.400 . S
C311 H328 0.930 . S
C312 C310 1.384 . S
C312 C314 1.392 . S
C312 H329 0.931 . S
C313 C309 1.393 . S
C313 C314 1.401 . S
C313 H330 0.930 . S
C314 C312 1.392 . S
C314 C313 1.401 . S
C314 H331 0.930 . S
C315 O298 1.262 1_455 S
C315 O299 1.260 . S
C316 Tb252 2.833 1_455 S
C316 O296 1.251 . S
C316 O301 1.256 . S
C316 C309 1.500 . S
C317 H282 0.929 . S
C317 C295 1.444 . S
C317 C318 1.317 . S
C318 H280 0.930 . S
C318 C286 1.432 . S
C318 C317 1.317 . S
C319 O303 1.283 . S
C319 O306 1.243 . S
C320 C321 1.382 . S
C320 C324 1.393 . S
C320 C327 1.500 . S
C321 C320 1.382 . S
C321 C322 1.400 . S
C321 H332 0.930 . S
C322 C321 1.400 . S
C322 C323 1.384 . S
C323 C322 1.384 . S
C323 C325 1.392 . S
C323 H333 0.931 . S
C324 C320 1.393 . S
C324 C325 1.401 . S
C324 H334 0.930 . S
C325 C323 1.392 . S
C325 C324 1.401 . S
C325 H335 0.930 . S
C326 O304 1.262 . S
C326 O305 1.260 . S
C327 Tb263 2.833 . S
C327 O302 1.251 . S
C327 O307 1.256 . S
C327 C320 1.500 . S
H328 C311 0.930 . S
H329 C312 0.931 . S
H330 C313 0.930 . S
H331 C314 0.930 . S
H332 C321 0.930 . S
H333 C323 0.931 . S
H334 C324 0.930 . S
H335 C325 0.930 . S
Tb336 N367 2.660 . S
Tb336 N374 2.600 . S
Tb336 O380 2.546 1_545 S
Tb336 O381 2.610 . S
Tb336 O383 2.320 1_545 S
Tb336 O384 2.552 1_545 S
Tb336 O385 2.413 1_545 S
Tb336 O387 2.362 . S
Tb336 O388 2.421 . S
Tb336 C400 2.833 1_545 S
C337 C340 1.432 . S
C337 C341 1.414 1_545 S
C337 N344 1.359 . S
C338 C340 1.417 . S
C338 C342 1.432 1_545 S
C338 C350 1.410 . S
C339 C341 1.444 . S
C339 C342 1.317 . S
C339 H362 0.929 . S
C340 C337 1.432 . S
C340 C338 1.417 . S
C340 N348 1.360 . S
C341 C337 1.414 1_565 S
C341 C339 1.444 . S
C341 C346 1.385 . S
C342 C338 1.432 1_565 S
C342 C339 1.317 . S
C342 H354 0.930 . S
C343 C345 1.392 1_565 S
C343 C346 1.370 . S
C343 H355 0.931 . S
N344 C337 1.359 . S
N344 C345 1.327 . S
N344 Tb347 2.600 . S
C345 C343 1.392 1_545 S
C345 N344 1.327 . S
C345 H352 0.930 . S
C346 C341 1.385 . S
C346 C343 1.370 . S
C346 H365 0.930 . S
Tb347 N344 2.600 . S
Tb347 N348 2.660 . S
Tb347 O381 2.362 . S
Tb347 O382 2.421 . S
Tb347 O386 2.546 . S
Tb347 O387 2.610 . S
Tb347 O389 2.320 . S
Tb347 O390 2.552 . S
Tb347 O391 2.413 . S
Tb347 C411 2.833 . S
N348 C340 1.360 . S
N348 Tb347 2.660 . S
N348 C349 1.305 . S
C349 N348 1.305 . S
C349 C351 1.407 . S
C349 H356 0.930 . S
C350 C338 1.410 . S
C350 C351 1.345 . S
C350 H358 0.930 . S
C351 C349 1.407 . S
C351 C350 1.345 . S
C351 H353 0.930 . S
H352 C345 0.930 . S
H353 C351 0.930 . S
H354 C342 0.930 . S
H355 C343 0.931 . S
H356 C349 0.930 . S
H357 C371 0.930 . S
H358 C350 0.930 . S
H359 C377 0.930 . S
H360 C368 0.930 . S
H361 C375 0.931 . S
H362 C339 0.929 . S
H363 C369 0.930 . S
H364 C402 0.930 . S
H365 C346 0.930 . S
H366 C401 0.929 . S
N367 Tb336 2.660 . S
N367 C368 1.305 . S
N367 C372 1.360 . S
C368 H360 0.930 . S
C368 N367 1.305 . S
C368 C371 1.407 . S
C369 H363 0.930 . S
C369 C370 1.410 . S
C369 C371 1.345 . S
C370 C369 1.410 . S
C370 C372 1.417 . S
C370 C402 1.432 . S
C371 H357 0.930 . S
C371 C368 1.407 . S
C371 C369 1.345 . S
C372 N367 1.360 . S
C372 C370 1.417 . S
C372 C376 1.432 . S
H373 C378 0.930 . S
N374 Tb336 2.600 . S
N374 C376 1.359 . S
N374 C377 1.327 . S
C375 H361 0.931 . S
C375 C377 1.392 . S
C375 C378 1.370 . S
C376 C372 1.432 . S
C376 N374 1.359 . S
C376 C379 1.414 . S
C377 H359 0.930 . S
C377 N374 1.327 . S
C377 C375 1.392 . S
C378 H373 0.930 . S
C378 C375 1.370 . S
C378 C379 1.385 . S
C379 C376 1.414 . S
C379 C378 1.385 . S
C379 C401 1.444 . S
O380 Tb336 2.546 1_565 S
O380 C400 1.251 . S
O381 Tb336 2.610 . S
O381 Tb347 2.362 . S
O381 C392 1.283 1_545 S
O382 Tb347 2.421 . S
O382 C399 1.262 1_545 S
O383 Tb336 2.320 1_565 S
O383 C399 1.260 . S
O384 Tb336 2.552 1_565 S
O384 C392 1.243 . S
O385 Tb336 2.413 1_565 S
O385 C400 1.256 . S
O386 Tb347 2.546 . S
O386 C411 1.251 . S
O387 Tb336 2.362 . S
O387 Tb347 2.610 . S
O387 C403 1.283 . S
O388 Tb336 2.421 . S
O388 C410 1.262 . S
O389 Tb347 2.320 . S
O389 C410 1.260 . S
O390 Tb347 2.552 . S
O390 C403 1.243 . S
O391 Tb347 2.413 . S
O391 C411 1.256 . S
C392 O381 1.283 1_565 S
C392 O384 1.243 . S
C393 C395 1.382 . S
C393 C397 1.393 . S
C393 C400 1.500 . S
C394 C395 1.400 . S
C394 C396 1.384 . S
C395 C393 1.382 . S
C395 C394 1.400 . S
C395 H412 0.930 . S
C396 C394 1.384 . S
C396 C398 1.392 . S
C396 H413 0.931 . S
C397 C393 1.393 . S
C397 C398 1.401 . S
C397 H414 0.930 . S
C398 C396 1.392 . S
C398 C397 1.401 . S
C398 H415 0.930 . S
C399 O382 1.262 1_565 S
C399 O383 1.260 . S
C400 Tb336 2.833 1_565 S
C400 O380 1.251 . S
C400 O385 1.256 . S
C400 C393 1.500 . S
C401 H366 0.929 . S
C401 C379 1.444 . S
C401 C402 1.317 . S
C402 H364 0.930 . S
C402 C370 1.432 . S
C402 C401 1.317 . S
C403 O387 1.283 . S
C403 O390 1.243 . S
C404 C405 1.382 . S
C404 C408 1.393 . S
C404 C411 1.500 . S
C405 C404 1.382 . S
C405 C406 1.400 . S
C405 H416 0.930 . S
C406 C405 1.400 . S
C406 C407 1.384 . S
C407 C406 1.384 . S
C407 C409 1.392 . S
C407 H417 0.931 . S
C408 C404 1.393 . S
C408 C409 1.401 . S
C408 H418 0.930 . S
C409 C407 1.392 . S
C409 C408 1.401 . S
C409 H419 0.930 . S
C410 O388 1.262 . S
C410 O389 1.260 . S
C411 Tb347 2.833 . S
C411 O386 1.251 . S
C411 O391 1.256 . S
C411 C404 1.500 . S
H412 C395 0.930 . S
H413 C396 0.931 . S
H414 C397 0.930 . S
H415 C398 0.930 . S
H416 C405 0.930 . S
H417 C407 0.931 . S
H418 C408 0.930 . S
H419 C409 0.930 . S
Tb420 N451 2.660 . S
Tb420 N458 2.600 . S
Tb420 O464 2.546 1_565 S
Tb420 O465 2.610 . S
Tb420 O467 2.320 1_565 S
Tb420 O468 2.552 1_565 S
Tb420 O469 2.413 1_565 S
Tb420 O471 2.362 . S
Tb420 O472 2.421 . S
Tb420 C484 2.833 1_565 S
C421 C424 1.432 . S
C421 C425 1.414 1_565 S
C421 N428 1.359 . S
C422 C424 1.417 . S
C422 C426 1.432 1_565 S
C422 C434 1.410 . S
C423 C425 1.444 . S
C423 C426 1.317 . S
C423 H446 0.929 . S
C424 C421 1.432 . S
C424 C422 1.417 . S
C424 N432 1.360 . S
C425 C421 1.414 1_545 S
C425 C423 1.444 . S
C425 C430 1.385 . S
C426 C422 1.432 1_545 S
C426 C423 1.317 . S
C426 H438 0.930 . S
C427 C429 1.392 1_545 S
C427 C430 1.370 . S
C427 H439 0.931 . S
N428 C421 1.359 . S
N428 C429 1.327 . S
N428 Tb431 2.600 . S
C429 C427 1.392 1_565 S
C429 N428 1.327 . S
C429 H436 0.930 . S
C430 C425 1.385 . S
C430 C427 1.370 . S
C430 H449 0.930 . S
Tb431 N428 2.600 . S
Tb431 N432 2.660 . S
Tb431 O465 2.362 . S
Tb431 O466 2.421 . S
Tb431 O470 2.546 . S
Tb431 O471 2.610 . S
Tb431 O473 2.320 . S
Tb431 O474 2.552 . S
Tb431 O475 2.413 . S
Tb431 C495 2.833 . S
N432 C424 1.360 . S
N432 Tb431 2.660 . S
N432 C433 1.305 . S
C433 N432 1.305 . S
C433 C435 1.407 . S
C433 H440 0.930 . S
C434 C422 1.410 . S
C434 C435 1.345 . S
C434 H442 0.930 . S
C435 C433 1.407 . S
C435 C434 1.345 . S
C435 H437 0.930 . S
H436 C429 0.930 . S
H437 C435 0.930 . S
H438 C426 0.930 . S
H439 C427 0.931 . S
H440 C433 0.930 . S
H441 C455 0.930 . S
H442 C434 0.930 . S
H443 C461 0.930 . S
H444 C452 0.930 . S
H445 C459 0.931 . S
H446 C423 0.929 . S
H447 C453 0.930 . S
H448 C486 0.930 . S
H449 C430 0.930 . S
H450 C485 0.929 . S
N451 Tb420 2.660 . S
N451 C452 1.305 . S
N451 C456 1.360 . S
C452 H444 0.930 . S
C452 N451 1.305 . S
C452 C455 1.407 . S
C453 H447 0.930 . S
C453 C454 1.410 . S
C453 C455 1.345 . S
C454 C453 1.410 . S
C454 C456 1.417 . S
C454 C486 1.432 . S
C455 H441 0.930 . S
C455 C452 1.407 . S
C455 C453 1.345 . S
C456 N451 1.360 . S
C456 C454 1.417 . S
C456 C460 1.432 . S
H457 C462 0.930 . S
N458 Tb420 2.600 . S
N458 C460 1.359 . S
N458 C461 1.327 . S
C459 H445 0.931 . S
C459 C461 1.392 . S
C459 C462 1.370 . S
C460 C456 1.432 . S
C460 N458 1.359 . S
C460 C463 1.414 . S
C461 H443 0.930 . S
C461 N458 1.327 . S
C461 C459 1.392 . S
C462 H457 0.930 . S
C462 C459 1.370 . S
C462 C463 1.385 . S
C463 C460 1.414 . S
C463 C462 1.385 . S
C463 C485 1.444 . S
O464 Tb420 2.546 1_545 S
O464 C484 1.251 . S
O465 Tb420 2.610 . S
O465 Tb431 2.362 . S
O465 C476 1.283 1_565 S
O466 Tb431 2.421 . S
O466 C483 1.262 1_565 S
O467 Tb420 2.320 1_545 S
O467 C483 1.260 . S
O468 Tb420 2.552 1_545 S
O468 C476 1.243 . S
O469 Tb420 2.413 1_545 S
O469 C484 1.256 . S
O470 Tb431 2.546 . S
O470 C495 1.251 . S
O471 Tb420 2.362 . S
O471 Tb431 2.610 . S
O471 C487 1.283 . S
O472 Tb420 2.421 . S
O472 C494 1.262 . S
O473 Tb431 2.320 . S
O473 C494 1.260 . S
O474 Tb431 2.552 . S
O474 C487 1.243 . S
O475 Tb431 2.413 . S
O475 C495 1.256 . S
C476 O465 1.283 1_545 S
C476 O468 1.243 . S
C477 C479 1.382 . S
C477 C481 1.393 . S
C477 C484 1.500 . S
C478 C479 1.400 . S
C478 C480 1.384 . S
C479 C477 1.382 . S
C479 C478 1.400 . S
C479 H496 0.930 . S
C480 C478 1.384 . S
C480 C482 1.392 . S
C480 H497 0.931 . S
C481 C477 1.393 . S
C481 C482 1.401 . S
C481 H498 0.930 . S
C482 C480 1.392 . S
C482 C481 1.401 . S
C482 H499 0.930 . S
C483 O466 1.262 1_545 S
C483 O467 1.260 . S
C484 Tb420 2.833 1_545 S
C484 O464 1.251 . S
C484 O469 1.256 . S
C484 C477 1.500 . S
C485 H450 0.929 . S
C485 C463 1.444 . S
C485 C486 1.317 . S
C486 H448 0.930 . S
C486 C454 1.432 . S
C486 C485 1.317 . S
C487 O471 1.283 . S
C487 O474 1.243 . S
C488 C489 1.382 . S
C488 C492 1.393 . S
C488 C495 1.500 . S
C489 C488 1.382 . S
C489 C490 1.400 . S
C489 H500 0.930 . S
C490 C489 1.400 . S
C490 C491 1.384 . S
C491 C490 1.384 . S
C491 C493 1.392 . S
C491 H501 0.931 . S
C492 C488 1.393 . S
C492 C493 1.401 . S
C492 H502 0.930 . S
C493 C491 1.392 . S
C493 C492 1.401 . S
C493 H503 0.930 . S
C494 O472 1.262 . S
C494 O473 1.260 . S
C495 Tb431 2.833 . S
C495 O470 1.251 . S
C495 O475 1.256 . S
C495 C488 1.500 . S
H496 C479 0.930 . S
H497 C480 0.931 . S
H498 C481 0.930 . S
H499 C482 0.930 . S
H500 C489 0.930 . S
H501 C491 0.931 . S
H502 C492 0.930 . S
H503 C493 0.930 . S
Tb504 N535 2.660 . S
Tb504 N542 2.600 . S
Tb504 O548 2.546 . S
Tb504 O549 2.610 . S
Tb504 O551 2.320 . S
Tb504 O552 2.552 . S
Tb504 O553 2.413 . S
Tb504 O555 2.362 . S
Tb504 O556 2.421 . S
Tb504 C568 2.833 . S
C505 C508 1.432 . S
C505 C509 1.414 . S
C505 N512 1.359 . S
C506 C508 1.417 . S
C506 C510 1.432 . S
C506 C518 1.410 . S
C507 C509 1.444 . S
C507 C510 1.317 . S
C507 H530 0.929 . S
C508 C505 1.432 . S
C508 C506 1.417 . S
C508 N516 1.360 . S
C509 C505 1.414 . S
C509 C507 1.444 . S
C509 C514 1.385 . S
C510 C506 1.432 . S
C510 C507 1.317 . S
C510 H522 0.930 . S
C511 C513 1.392 . S
C511 C514 1.370 . S
C511 H523 0.931 . S
N512 C505 1.359 . S
N512 C513 1.327 . S
N512 Tb515 2.600 . S
C513 C511 1.392 . S
C513 N512 1.327 . S
C513 H520 0.930 . S
C514 C509 1.385 . S
C514 C511 1.370 . S
C514 H533 0.930 . S
Tb515 N512 2.600 . S
Tb515 N516 2.660 . S
Tb515 O549 2.362 . S
Tb515 O550 2.421 . S
Tb515 O554 2.546 . S
Tb515 O555 2.610 . S
Tb515 O557 2.320 . S
Tb515 O558 2.552 . S
Tb515 O559 2.413 . S
Tb515 C579 2.833 . S
N516 C508 1.360 . S
N516 Tb515 2.660 . S
N516 C517 1.305 . S
C517 N516 1.305 . S
C517 C519 1.407 . S
C517 H524 0.930 . S
C518 C506 1.410 . S
C518 C519 1.345 . S
C518 H526 0.930 . S
C519 C517 1.407 . S
C519 C518 1.345 . S
C519 H521 0.930 . S
H520 C513 0.930 . S
H521 C519 0.930 . S
H522 C510 0.930 . S
H523 C511 0.931 . S
H524 C517 0.930 . S
H525 C539 0.930 . S
H526 C518 0.930 . S
H527 C545 0.930 . S
H528 C536 0.930 . S
H529 C543 0.931 . S
H530 C507 0.929 . S
H531 C537 0.930 . S
H532 C570 0.930 . S
H533 C514 0.930 . S
H534 C569 0.929 . S
N535 Tb504 2.660 . S
N535 C536 1.305 . S
N535 C540 1.360 . S
C536 H528 0.930 . S
C536 N535 1.305 . S
C536 C539 1.407 . S
C537 H531 0.930 . S
C537 C538 1.410 . S
C537 C539 1.345 . S
C538 C537 1.410 . S
C538 C540 1.417 . S
C538 C570 1.432 . S
C539 H525 0.930 . S
C539 C536 1.407 . S
C539 C537 1.345 . S
C540 N535 1.360 . S
C540 C538 1.417 . S
C540 C544 1.432 . S
H541 C546 0.930 . S
N542 Tb504 2.600 . S
N542 C544 1.359 . S
N542 C545 1.327 . S
C543 H529 0.931 . S
C543 C545 1.392 . S
C543 C546 1.370 . S
C544 C540 1.432 . S
C544 N542 1.359 . S
C544 C547 1.414 . S
C545 H527 0.930 . S
C545 N542 1.327 . S
C545 C543 1.392 . S
C546 H541 0.930 . S
C546 C543 1.370 . S
C546 C547 1.385 . S
C547 C544 1.414 . S
C547 C546 1.385 . S
C547 C569 1.444 . S
O548 Tb504 2.546 . S
O548 C568 1.251 . S
O549 Tb504 2.610 . S
O549 Tb515 2.362 . S
O549 C560 1.283 . S
O550 Tb515 2.421 . S
O550 C567 1.262 . S
O551 Tb504 2.320 . S
O551 C567 1.260 . S
O552 Tb504 2.552 . S
O552 C560 1.243 . S
O553 Tb504 2.413 . S
O553 C568 1.256 . S
O554 Tb515 2.546 . S
O554 C579 1.251 . S
O555 Tb504 2.362 . S
O555 Tb515 2.610 . S
O555 C571 1.283 . S
O556 Tb504 2.421 . S
O556 C578 1.262 . S
O557 Tb515 2.320 . S
O557 C578 1.260 . S
O558 Tb515 2.552 . S
O558 C571 1.243 . S
O559 Tb515 2.413 . S
O559 C579 1.256 . S
C560 O549 1.283 . S
C560 O552 1.243 . S
C561 C563 1.382 . S
C561 C565 1.393 . S
C561 C568 1.500 . S
C562 C563 1.400 . S
C562 C564 1.384 . S
C563 C561 1.382 . S
C563 C562 1.400 . S
C563 H580 0.930 . S
C564 C562 1.384 . S
C564 C566 1.392 . S
C564 H581 0.931 . S
C565 C561 1.393 . S
C565 C566 1.401 . S
C565 H582 0.930 . S
C566 C564 1.392 . S
C566 C565 1.401 . S
C566 H583 0.930 . S
C567 O550 1.262 . S
C567 O551 1.260 . S
C568 Tb504 2.833 . S
C568 O548 1.251 . S
C568 O553 1.256 . S
C568 C561 1.500 . S
C569 H534 0.929 . S
C569 C547 1.444 . S
C569 C570 1.317 . S
C570 H532 0.930 . S
C570 C538 1.432 . S
C570 C569 1.317 . S
C571 O555 1.283 . S
C571 O558 1.243 . S
C572 C573 1.382 . S
C572 C576 1.393 . S
C572 C579 1.500 . S
C573 C572 1.382 . S
C573 C574 1.400 . S
C573 H584 0.930 . S
C574 C573 1.400 . S
C574 C575 1.384 . S
C575 C574 1.384 . S
C575 C577 1.392 . S
C575 H585 0.931 . S
C576 C572 1.393 . S
C576 C577 1.401 . S
C576 H586 0.930 . S
C577 C575 1.392 . S
C577 C576 1.401 . S
C577 H587 0.930 . S
C578 O556 1.262 . S
C578 O557 1.260 . S
C579 Tb515 2.833 . S
C579 O554 1.251 . S
C579 O559 1.256 . S
C579 C572 1.500 . S
H580 C563 0.930 . S
H581 C564 0.931 . S
H582 C565 0.930 . S
H583 C566 0.930 . S
H584 C573 0.930 . S
H585 C575 0.931 . S
H586 C576 0.930 . S
H587 C577 0.930 . S
Tb588 N619 2.660 . S
Tb588 N626 2.600 . S
Tb588 O632 2.546 . S
Tb588 O633 2.610 . S
Tb588 O635 2.320 . S
Tb588 O636 2.552 . S
Tb588 O637 2.413 . S
Tb588 O639 2.362 . S
Tb588 O640 2.421 . S
Tb588 C652 2.833 . S
C589 C592 1.432 . S
C589 C593 1.414 . S
C589 N596 1.359 . S
C590 C592 1.417 . S
C590 C594 1.432 . S
C590 C602 1.410 . S
C591 C593 1.444 . S
C591 C594 1.317 . S
C591 H614 0.929 . S
C592 C589 1.432 . S
C592 C590 1.417 . S
C592 N600 1.360 . S
C593 C589 1.414 . S
C593 C591 1.444 . S
C593 C598 1.385 . S
C594 C590 1.432 . S
C594 C591 1.317 . S
C594 H606 0.930 . S
C595 C597 1.392 . S
C595 C598 1.370 . S
C595 H607 0.931 . S
N596 C589 1.359 . S
N596 C597 1.327 . S
N596 Tb599 2.600 . S
C597 C595 1.392 . S
C597 N596 1.327 . S
C597 H604 0.930 . S
C598 C593 1.385 . S
C598 C595 1.370 . S
C598 H617 0.930 . S
Tb599 N596 2.600 . S
Tb599 N600 2.660 . S
Tb599 O633 2.362 . S
Tb599 O634 2.421 . S
Tb599 O638 2.546 . S
Tb599 O639 2.610 . S
Tb599 O641 2.320 . S
Tb599 O642 2.552 . S
Tb599 O643 2.413 . S
Tb599 C663 2.833 . S
N600 C592 1.360 . S
N600 Tb599 2.660 . S
N600 C601 1.305 . S
C601 N600 1.305 . S
C601 C603 1.407 . S
C601 H608 0.930 . S
C602 C590 1.410 . S
C602 C603 1.345 . S
C602 H610 0.930 . S
C603 C601 1.407 . S
C603 C602 1.345 . S
C603 H605 0.930 . S
H604 C597 0.930 . S
H605 C603 0.930 . S
H606 C594 0.930 . S
H607 C595 0.931 . S
H608 C601 0.930 . S
H609 C623 0.930 . S
H610 C602 0.930 . S
H611 C629 0.930 . S
H612 C620 0.930 . S
H613 C627 0.931 . S
H614 C591 0.929 . S
H615 C621 0.930 . S
H616 C654 0.930 . S
H617 C598 0.930 . S
H618 C653 0.929 . S
N619 Tb588 2.660 . S
N619 C620 1.305 . S
N619 C624 1.360 . S
C620 H612 0.930 . S
C620 N619 1.305 . S
C620 C623 1.407 . S
C621 H615 0.930 . S
C621 C622 1.410 . S
C621 C623 1.345 . S
C622 C621 1.410 . S
C622 C624 1.417 . S
C622 C654 1.432 . S
C623 H609 0.930 . S
C623 C620 1.407 . S
C623 C621 1.345 . S
C624 N619 1.360 . S
C624 C622 1.417 . S
C624 C628 1.432 . S
H625 C630 0.930 . S
N626 Tb588 2.600 . S
N626 C628 1.359 . S
N626 C629 1.327 . S
C627 H613 0.931 . S
C627 C629 1.392 . S
C627 C630 1.370 . S
C628 C624 1.432 . S
C628 N626 1.359 . S
C628 C631 1.414 . S
C629 H611 0.930 . S
C629 N626 1.327 . S
C629 C627 1.392 . S
C630 H625 0.930 . S
C630 C627 1.370 . S
C630 C631 1.385 . S
C631 C628 1.414 . S
C631 C630 1.385 . S
C631 C653 1.444 . S
O632 Tb588 2.546 . S
O632 C652 1.251 . S
O633 Tb588 2.610 . S
O633 Tb599 2.362 . S
O633 C644 1.283 . S
O634 Tb599 2.421 . S
O634 C651 1.262 . S
O635 Tb588 2.320 . S
O635 C651 1.260 . S
O636 Tb588 2.552 . S
O636 C644 1.243 . S
O637 Tb588 2.413 . S
O637 C652 1.256 . S
O638 Tb599 2.546 . S
O638 C663 1.251 . S
O639 Tb588 2.362 . S
O639 Tb599 2.610 . S
O639 C655 1.283 . S
O640 Tb588 2.421 . S
O640 C662 1.262 . S
O641 Tb599 2.320 . S
O641 C662 1.260 . S
O642 Tb599 2.552 . S
O642 C655 1.243 . S
O643 Tb599 2.413 . S
O643 C663 1.256 . S
C644 O633 1.283 . S
C644 O636 1.243 . S
C645 C647 1.382 . S
C645 C649 1.393 . S
C645 C652 1.500 . S
C646 C647 1.400 . S
C646 C648 1.384 . S
C647 C645 1.382 . S
C647 C646 1.400 . S
C647 H664 0.930 . S
C648 C646 1.384 . S
C648 C650 1.392 . S
C648 H665 0.931 . S
C649 C645 1.393 . S
C649 C650 1.401 . S
C649 H666 0.930 . S
C650 C648 1.392 . S
C650 C649 1.401 . S
C650 H667 0.930 . S
C651 O634 1.262 . S
C651 O635 1.260 . S
C652 Tb588 2.833 . S
C652 O632 1.251 . S
C652 O637 1.256 . S
C652 C645 1.500 . S
C653 H618 0.929 . S
C653 C631 1.444 . S
C653 C654 1.317 . S
C654 H616 0.930 . S
C654 C622 1.432 . S
C654 C653 1.317 . S
C655 O639 1.283 . S
C655 O642 1.243 . S
C656 C657 1.382 . S
C656 C660 1.393 . S
C656 C663 1.500 . S
C657 C656 1.382 . S
C657 C658 1.400 . S
C657 H668 0.930 . S
C658 C657 1.400 . S
C658 C659 1.384 . S
C659 C658 1.384 . S
C659 C661 1.392 . S
C659 H669 0.931 . S
C660 C656 1.393 . S
C660 C661 1.401 . S
C660 H670 0.930 . S
C661 C659 1.392 . S
C661 C660 1.401 . S
C661 H671 0.930 . S
C662 O640 1.262 . S
C662 O641 1.260 . S
C663 Tb599 2.833 . S
C663 O638 1.251 . S
C663 O643 1.256 . S
C663 C656 1.500 . S
H664 C647 0.930 . S
H665 C648 0.931 . S
H666 C649 0.930 . S
H667 C650 0.930 . S
H668 C657 0.930 . S
H669 C659 0.931 . S
H670 C660 0.930 . S
H671 C661 0.930 . S
Tb672 N703 2.660 . S
Tb672 N710 2.600 . S
Tb672 O716 2.546 1_554 S
Tb672 O717 2.610 . S
Tb672 O719 2.320 1_554 S
Tb672 O720 2.552 1_554 S
Tb672 O721 2.413 1_554 S
Tb672 O723 2.362 . S
Tb672 O724 2.421 . S
Tb672 C736 2.833 1_554 S
C673 C676 1.432 . S
C673 C677 1.414 1_554 S
C673 N680 1.359 . S
C674 C676 1.417 . S
C674 C678 1.432 1_554 S
C674 C686 1.410 . S
C675 C677 1.444 . S
C675 C678 1.317 . S
C675 H698 0.929 . S
C676 C673 1.432 . S
C676 C674 1.417 . S
C676 N684 1.360 . S
C677 C673 1.414 1_556 S
C677 C675 1.444 . S
C677 C682 1.385 . S
C678 C674 1.432 1_556 S
C678 C675 1.317 . S
C678 H690 0.930 . S
C679 C681 1.392 1_556 S
C679 C682 1.370 . S
C679 H691 0.931 . S
N680 C673 1.359 . S
N680 C681 1.327 . S
N680 Tb683 2.600 . S
C681 C679 1.392 1_554 S
C681 N680 1.327 . S
C681 H688 0.930 . S
C682 C677 1.385 . S
C682 C679 1.370 . S
C682 H701 0.930 . S
Tb683 N680 2.600 . S
Tb683 N684 2.660 . S
Tb683 O717 2.362 . S
Tb683 O718 2.421 . S
Tb683 O722 2.546 . S
Tb683 O723 2.610 . S
Tb683 O725 2.320 . S
Tb683 O726 2.552 . S
Tb683 O727 2.413 . S
Tb683 C747 2.833 . S
N684 C676 1.360 . S
N684 Tb683 2.660 . S
N684 C685 1.305 . S
C685 N684 1.305 . S
C685 C687 1.407 . S
C685 H692 0.930 . S
C686 C674 1.410 . S
C686 C687 1.345 . S
C686 H694 0.930 . S
C687 C685 1.407 . S
C687 C686 1.345 . S
C687 H689 0.930 . S
H688 C681 0.930 . S
H689 C687 0.930 . S
H690 C678 0.930 . S
H691 C679 0.931 . S
H692 C685 0.930 . S
H693 C707 0.930 . S
H694 C686 0.930 . S
H695 C713 0.930 . S
H696 C704 0.930 . S
H697 C711 0.931 . S
H698 C675 0.929 . S
H699 C705 0.930 . S
H700 C738 0.930 . S
H701 C682 0.930 . S
H702 C737 0.929 . S
N703 Tb672 2.660 . S
N703 C704 1.305 . S
N703 C708 1.360 . S
C704 H696 0.930 . S
C704 N703 1.305 . S
C704 C707 1.407 . S
C705 H699 0.930 . S
C705 C706 1.410 . S
C705 C707 1.345 . S
C706 C705 1.410 . S
C706 C708 1.417 . S
C706 C738 1.432 . S
C707 H693 0.930 . S
C707 C704 1.407 . S
C707 C705 1.345 . S
C708 N703 1.360 . S
C708 C706 1.417 . S
C708 C712 1.432 . S
H709 C714 0.930 . S
N710 Tb672 2.600 . S
N710 C712 1.359 . S
N710 C713 1.327 . S
C711 H697 0.931 . S
C711 C713 1.392 . S
C711 C714 1.370 . S
C712 C708 1.432 . S
C712 N710 1.359 . S
C712 C715 1.414 . S
C713 H695 0.930 . S
C713 N710 1.327 . S
C713 C711 1.392 . S
C714 H709 0.930 . S
C714 C711 1.370 . S
C714 C715 1.385 . S
C715 C712 1.414 . S
C715 C714 1.385 . S
C715 C737 1.444 . S
O716 Tb672 2.546 1_556 S
O716 C736 1.251 . S
O717 Tb672 2.610 . S
O717 Tb683 2.362 . S
O717 C728 1.283 1_554 S
O718 Tb683 2.421 . S
O718 C735 1.262 1_554 S
O719 Tb672 2.320 1_556 S
O719 C735 1.260 . S
O720 Tb672 2.552 1_556 S
O720 C728 1.243 . S
O721 Tb672 2.413 1_556 S
O721 C736 1.256 . S
O722 Tb683 2.546 . S
O722 C747 1.251 . S
O723 Tb672 2.362 . S
O723 Tb683 2.610 . S
O723 C739 1.283 . S
O724 Tb672 2.421 . S
O724 C746 1.262 . S
O725 Tb683 2.320 . S
O725 C746 1.260 . S
O726 Tb683 2.552 . S
O726 C739 1.243 . S
O727 Tb683 2.413 . S
O727 C747 1.256 . S
C728 O717 1.283 1_556 S
C728 O720 1.243 . S
C729 C731 1.382 . S
C729 C733 1.393 . S
C729 C736 1.500 . S
C730 C731 1.400 . S
C730 C732 1.384 . S
C731 C729 1.382 . S
C731 C730 1.400 . S
C731 H748 0.930 . S
C732 C730 1.384 . S
C732 C734 1.392 . S
C732 H749 0.931 . S
C733 C729 1.393 . S
C733 C734 1.401 . S
C733 H750 0.930 . S
C734 C732 1.392 . S
C734 C733 1.401 . S
C734 H751 0.930 . S
C735 O718 1.262 1_556 S
C735 O719 1.260 . S
C736 Tb672 2.833 1_556 S
C736 O716 1.251 . S
C736 O721 1.256 . S
C736 C729 1.500 . S
C737 H702 0.929 . S
C737 C715 1.444 . S
C737 C738 1.317 . S
C738 H700 0.930 . S
C738 C706 1.432 . S
C738 C737 1.317 . S
C739 O723 1.283 . S
C739 O726 1.243 . S
C740 C741 1.382 . S
C740 C744 1.393 . S
C740 C747 1.500 . S
C741 C740 1.382 . S
C741 C742 1.400 . S
C741 H752 0.930 . S
C742 C741 1.400 . S
C742 C743 1.384 . S
C743 C742 1.384 . S
C743 C745 1.392 . S
C743 H753 0.931 . S
C744 C740 1.393 . S
C744 C745 1.401 . S
C744 H754 0.930 . S
C745 C743 1.392 . S
C745 C744 1.401 . S
C745 H755 0.930 . S
C746 O724 1.262 . S
C746 O725 1.260 . S
C747 Tb683 2.833 . S
C747 O722 1.251 . S
C747 O727 1.256 . S
C747 C740 1.500 . S
H748 C731 0.930 . S
H749 C732 0.931 . S
H750 C733 0.930 . S
H751 C734 0.930 . S
H752 C741 0.930 . S
H753 C743 0.931 . S
H754 C744 0.930 . S
H755 C745 0.930 . S
Tb756 N787 2.660 . S
Tb756 N794 2.600 . S
Tb756 O800 2.546 1_556 S
Tb756 O801 2.610 . S
Tb756 O803 2.320 1_556 S
Tb756 O804 2.552 1_556 S
Tb756 O805 2.413 1_556 S
Tb756 O807 2.362 . S
Tb756 O808 2.421 . S
Tb756 C820 2.833 1_556 S
C757 C760 1.432 . S
C757 C761 1.414 1_556 S
C757 N764 1.359 . S
C758 C760 1.417 . S
C758 C762 1.432 1_556 S
C758 C770 1.410 . S
C759 C761 1.444 . S
C759 C762 1.317 . S
C759 H782 0.929 . S
C760 C757 1.432 . S
C760 C758 1.417 . S
C760 N768 1.360 . S
C761 C757 1.414 1_554 S
C761 C759 1.444 . S
C761 C766 1.385 . S
C762 C758 1.432 1_554 S
C762 C759 1.317 . S
C762 H774 0.930 . S
C763 C765 1.392 1_554 S
C763 C766 1.370 . S
C763 H775 0.931 . S
N764 C757 1.359 . S
N764 C765 1.327 . S
N764 Tb767 2.600 . S
C765 C763 1.392 1_556 S
C765 N764 1.327 . S
C765 H772 0.930 . S
C766 C761 1.385 . S
C766 C763 1.370 . S
C766 H785 0.930 . S
Tb767 N764 2.600 . S
Tb767 N768 2.660 . S
Tb767 O801 2.362 . S
Tb767 O802 2.421 . S
Tb767 O806 2.546 . S
Tb767 O807 2.610 . S
Tb767 O809 2.320 . S
Tb767 O810 2.552 . S
Tb767 O811 2.413 . S
Tb767 C831 2.833 . S
N768 C760 1.360 . S
N768 Tb767 2.660 . S
N768 C769 1.305 . S
C769 N768 1.305 . S
C769 C771 1.407 . S
C769 H776 0.930 . S
C770 C758 1.410 . S
C770 C771 1.345 . S
C770 H778 0.930 . S
C771 C769 1.407 . S
C771 C770 1.345 . S
C771 H773 0.930 . S
H772 C765 0.930 . S
H773 C771 0.930 . S
H774 C762 0.930 . S
H775 C763 0.931 . S
H776 C769 0.930 . S
H777 C791 0.930 . S
H778 C770 0.930 . S
H779 C797 0.930 . S
H780 C788 0.930 . S
H781 C795 0.931 . S
H782 C759 0.929 . S
H783 C789 0.930 . S
H784 C822 0.930 . S
H785 C766 0.930 . S
H786 C821 0.929 . S
N787 Tb756 2.660 . S
N787 C788 1.305 . S
N787 C792 1.360 . S
C788 H780 0.930 . S
C788 N787 1.305 . S
C788 C791 1.407 . S
C789 H783 0.930 . S
C789 C790 1.410 . S
C789 C791 1.345 . S
C790 C789 1.410 . S
C790 C792 1.417 . S
C790 C822 1.432 . S
C791 H777 0.930 . S
C791 C788 1.407 . S
C791 C789 1.345 . S
C792 N787 1.360 . S
C792 C790 1.417 . S
C792 C796 1.432 . S
H793 C798 0.930 . S
N794 Tb756 2.600 . S
N794 C796 1.359 . S
N794 C797 1.327 . S
C795 H781 0.931 . S
C795 C797 1.392 . S
C795 C798 1.370 . S
C796 C792 1.432 . S
C796 N794 1.359 . S
C796 C799 1.414 . S
C797 H779 0.930 . S
C797 N794 1.327 . S
C797 C795 1.392 . S
C798 H793 0.930 . S
C798 C795 1.370 . S
C798 C799 1.385 . S
C799 C796 1.414 . S
C799 C798 1.385 . S
C799 C821 1.444 . S
O800 Tb756 2.546 1_554 S
O800 C820 1.251 . S
O801 Tb756 2.610 . S
O801 Tb767 2.362 . S
O801 C812 1.283 1_556 S
O802 Tb767 2.421 . S
O802 C819 1.262 1_556 S
O803 Tb756 2.320 1_554 S
O803 C819 1.260 . S
O804 Tb756 2.552 1_554 S
O804 C812 1.243 . S
O805 Tb756 2.413 1_554 S
O805 C820 1.256 . S
O806 Tb767 2.546 . S
O806 C831 1.251 . S
O807 Tb756 2.362 . S
O807 Tb767 2.610 . S
O807 C823 1.283 . S
O808 Tb756 2.421 . S
O808 C830 1.262 . S
O809 Tb767 2.320 . S
O809 C830 1.260 . S
O810 Tb767 2.552 . S
O810 C823 1.243 . S
O811 Tb767 2.413 . S
O811 C831 1.256 . S
C812 O801 1.283 1_554 S
C812 O804 1.243 . S
C813 C815 1.382 . S
C813 C817 1.393 . S
C813 C820 1.500 . S
C814 C815 1.400 . S
C814 C816 1.384 . S
C815 C813 1.382 . S
C815 C814 1.400 . S
C815 H832 0.930 . S
C816 C814 1.384 . S
C816 C818 1.392 . S
C816 H833 0.931 . S
C817 C813 1.393 . S
C817 C818 1.401 . S
C817 H834 0.930 . S
C818 C816 1.392 . S
C818 C817 1.401 . S
C818 H835 0.930 . S
C819 O802 1.262 1_554 S
C819 O803 1.260 . S
C820 Tb756 2.833 1_554 S
C820 O800 1.251 . S
C820 O805 1.256 . S
C820 C813 1.500 . S
C821 H786 0.929 . S
C821 C799 1.444 . S
C821 C822 1.317 . S
C822 H784 0.930 . S
C822 C790 1.432 . S
C822 C821 1.317 . S
C823 O807 1.283 . S
C823 O810 1.243 . S
C824 C825 1.382 . S
C824 C828 1.393 . S
C824 C831 1.500 . S
C825 C824 1.382 . S
C825 C826 1.400 . S
C825 H836 0.930 . S
C826 C825 1.400 . S
C826 C827 1.384 . S
C827 C826 1.384 . S
C827 C829 1.392 . S
C827 H837 0.931 . S
C828 C824 1.393 . S
C828 C829 1.401 . S
C828 H838 0.930 . S
C829 C827 1.392 . S
C829 C828 1.401 . S
C829 H839 0.930 . S
C830 O808 1.262 . S
C830 O809 1.260 . S
C831 Tb767 2.833 . S
C831 O806 1.251 . S
C831 O811 1.256 . S
C831 C824 1.500 . S
H832 C815 0.930 . S
H833 C816 0.931 . S
H834 C817 0.930 . S
H835 C818 0.930 . S
H836 C825 0.930 . S
H837 C827 0.931 . S
H838 C828 0.930 . S
H839 C829 0.930 . S
Tb840 N871 2.660 . S
Tb840 N878 2.600 . S
Tb840 O884 2.546 . S
Tb840 O885 2.610 . S
Tb840 O887 2.320 . S
Tb840 O888 2.552 . S
Tb840 O889 2.413 . S
Tb840 O891 2.362 . S
Tb840 O892 2.421 . S
Tb840 C904 2.833 . S
C841 C844 1.432 . S
C841 C845 1.414 . S
C841 N848 1.359 . S
C842 C844 1.417 . S
C842 C846 1.432 . S
C842 C854 1.410 . S
C843 C845 1.444 . S
C843 C846 1.317 . S
C843 H866 0.929 . S
C844 C841 1.432 . S
C844 C842 1.417 . S
C844 N852 1.360 . S
C845 C841 1.414 . S
C845 C843 1.444 . S
C845 C850 1.385 . S
C846 C842 1.432 . S
C846 C843 1.317 . S
C846 H858 0.930 . S
C847 C849 1.392 . S
C847 C850 1.370 . S
C847 H859 0.931 . S
N848 C841 1.359 . S
N848 C849 1.327 . S
N848 Tb851 2.600 . S
C849 C847 1.392 . S
C849 N848 1.327 . S
C849 H856 0.930 . S
C850 C845 1.385 . S
C850 C847 1.370 . S
C850 H869 0.930 . S
Tb851 N848 2.600 . S
Tb851 N852 2.660 . S
Tb851 O885 2.362 . S
Tb851 O886 2.421 . S
Tb851 O890 2.546 . S
Tb851 O891 2.610 . S
Tb851 O893 2.320 . S
Tb851 O894 2.552 . S
Tb851 O895 2.413 . S
Tb851 C915 2.833 . S
N852 C844 1.360 . S
N852 Tb851 2.660 . S
N852 C853 1.305 . S
C853 N852 1.305 . S
C853 C855 1.407 . S
C853 H860 0.930 . S
C854 C842 1.410 . S
C854 C855 1.345 . S
C854 H862 0.930 . S
C855 C853 1.407 . S
C855 C854 1.345 . S
C855 H857 0.930 . S
H856 C849 0.930 . S
H857 C855 0.930 . S
H858 C846 0.930 . S
H859 C847 0.931 . S
H860 C853 0.930 . S
H861 C875 0.930 . S
H862 C854 0.930 . S
H863 C881 0.930 . S
H864 C872 0.930 . S
H865 C879 0.931 . S
H866 C843 0.929 . S
H867 C873 0.930 . S
H868 C906 0.930 . S
H869 C850 0.930 . S
H870 C905 0.929 . S
N871 Tb840 2.660 . S
N871 C872 1.305 . S
N871 C876 1.360 . S
C872 H864 0.930 . S
C872 N871 1.305 . S
C872 C875 1.407 . S
C873 H867 0.930 . S
C873 C874 1.410 . S
C873 C875 1.345 . S
C874 C873 1.410 . S
C874 C876 1.417 . S
C874 C906 1.432 . S
C875 H861 0.930 . S
C875 C872 1.407 . S
C875 C873 1.345 . S
C876 N871 1.360 . S
C876 C874 1.417 . S
C876 C880 1.432 . S
H877 C882 0.930 . S
N878 Tb840 2.600 . S
N878 C880 1.359 . S
N878 C881 1.327 . S
C879 H865 0.931 . S
C879 C881 1.392 . S
C879 C882 1.370 . S
C880 C876 1.432 . S
C880 N878 1.359 . S
C880 C883 1.414 . S
C881 H863 0.930 . S
C881 N878 1.327 . S
C881 C879 1.392 . S
C882 H877 0.930 . S
C882 C879 1.370 . S
C882 C883 1.385 . S
C883 C880 1.414 . S
C883 C882 1.385 . S
C883 C905 1.444 . S
O884 Tb840 2.546 . S
O884 C904 1.251 . S
O885 Tb840 2.610 . S
O885 Tb851 2.362 . S
O885 C896 1.283 . S
O886 Tb851 2.421 . S
O886 C903 1.262 . S
O887 Tb840 2.320 . S
O887 C903 1.260 . S
O888 Tb840 2.552 . S
O888 C896 1.243 . S
O889 Tb840 2.413 . S
O889 C904 1.256 . S
O890 Tb851 2.546 . S
O890 C915 1.251 . S
O891 Tb840 2.362 . S
O891 Tb851 2.610 . S
O891 C907 1.283 . S
O892 Tb840 2.421 . S
O892 C914 1.262 . S
O893 Tb851 2.320 . S
O893 C914 1.260 . S
O894 Tb851 2.552 . S
O894 C907 1.243 . S
O895 Tb851 2.413 . S
O895 C915 1.256 . S
C896 O885 1.283 . S
C896 O888 1.243 . S
C897 C899 1.382 . S
C897 C901 1.393 . S
C897 C904 1.500 . S
C898 C899 1.400 . S
C898 C900 1.384 . S
C899 C897 1.382 . S
C899 C898 1.400 . S
C899 H916 0.930 . S
C900 C898 1.384 . S
C900 C902 1.392 . S
C900 H917 0.931 . S
C901 C897 1.393 . S
C901 C902 1.401 . S
C901 H918 0.930 . S
C902 C900 1.392 . S
C902 C901 1.401 . S
C902 H919 0.930 . S
C903 O886 1.262 . S
C903 O887 1.260 . S
C904 Tb840 2.833 . S
C904 O884 1.251 . S
C904 O889 1.256 . S
C904 C897 1.500 . S
C905 H870 0.929 . S
C905 C883 1.444 . S
C905 C906 1.317 . S
C906 H868 0.930 . S
C906 C874 1.432 . S
C906 C905 1.317 . S
C907 O891 1.283 . S
C907 O894 1.243 . S
C908 C909 1.382 . S
C908 C912 1.393 . S
C908 C915 1.500 . S
C909 C908 1.382 . S
C909 C910 1.400 . S
C909 H920 0.930 . S
C910 C909 1.400 . S
C910 C911 1.384 . S
C911 C910 1.384 . S
C911 C913 1.392 . S
C911 H921 0.931 . S
C912 C908 1.393 . S
C912 C913 1.401 . S
C912 H922 0.930 . S
C913 C911 1.392 . S
C913 C912 1.401 . S
C913 H923 0.930 . S
C914 O892 1.262 . S
C914 O893 1.260 . S
C915 Tb851 2.833 . S
C915 O890 1.251 . S
C915 O895 1.256 . S
C915 C908 1.500 . S
H916 C899 0.930 . S
H917 C900 0.931 . S
H918 C901 0.930 . S
H919 C902 0.930 . S
H920 C909 0.930 . S
H921 C911 0.931 . S
H922 C912 0.930 . S
H923 C913 0.930 . S
Tb924 N955 2.660 . S
Tb924 N962 2.600 . S
Tb924 O968 2.546 . S
Tb924 O969 2.610 . S
Tb924 O971 2.320 . S
Tb924 O972 2.552 . S
Tb924 O973 2.413 . S
Tb924 O975 2.362 . S
Tb924 O976 2.421 . S
Tb924 C988 2.833 . S
C925 C928 1.432 . S
C925 C929 1.414 . S
C925 N932 1.359 . S
C926 C928 1.417 . S
C926 C930 1.432 . S
C926 C938 1.410 . S
C927 C929 1.444 . S
C927 C930 1.317 . S
C927 H950 0.929 . S
C928 C925 1.432 . S
C928 C926 1.417 . S
C928 N936 1.360 . S
C929 C925 1.414 . S
C929 C927 1.444 . S
C929 C934 1.385 . S
C930 C926 1.432 . S
C930 C927 1.317 . S
C930 H942 0.930 . S
C931 C933 1.392 . S
C931 C934 1.370 . S
C931 H943 0.931 . S
N932 C925 1.359 . S
N932 C933 1.327 . S
N932 Tb935 2.600 . S
C933 C931 1.392 . S
C933 N932 1.327 . S
C933 H940 0.930 . S
C934 C929 1.385 . S
C934 C931 1.370 . S
C934 H953 0.930 . S
Tb935 N932 2.600 . S
Tb935 N936 2.660 . S
Tb935 O969 2.362 . S
Tb935 O970 2.421 . S
Tb935 O974 2.546 . S
Tb935 O975 2.610 . S
Tb935 O977 2.320 . S
Tb935 O978 2.552 . S
Tb935 O979 2.413 . S
Tb935 C999 2.833 . S
N936 C928 1.360 . S
N936 Tb935 2.660 . S
N936 C937 1.305 . S
C937 N936 1.305 . S
C937 C939 1.407 . S
C937 H944 0.930 . S
C938 C926 1.410 . S
C938 C939 1.345 . S
C938 H946 0.930 . S
C939 C937 1.407 . S
C939 C938 1.345 . S
C939 H941 0.930 . S
H940 C933 0.930 . S
H941 C939 0.930 . S
H942 C930 0.930 . S
H943 C931 0.931 . S
H944 C937 0.930 . S
H945 C959 0.930 . S
H946 C938 0.930 . S
H947 C965 0.930 . S
H948 C956 0.930 . S
H949 C963 0.931 . S
H950 C927 0.929 . S
H951 C957 0.930 . S
H952 C990 0.930 . S
H953 C934 0.930 . S
H954 C989 0.929 . S
N955 Tb924 2.660 . S
N955 C956 1.305 . S
N955 C960 1.360 . S
C956 H948 0.930 . S
C956 N955 1.305 . S
C956 C959 1.407 . S
C957 H951 0.930 . S
C957 C958 1.410 . S
C957 C959 1.345 . S
C958 C957 1.410 . S
C958 C960 1.417 . S
C958 C990 1.432 . S
C959 H945 0.930 . S
C959 C956 1.407 . S
C959 C957 1.345 . S
C960 N955 1.360 . S
C960 C958 1.417 . S
C960 C964 1.432 . S
H961 C966 0.930 . S
N962 Tb924 2.600 . S
N962 C964 1.359 . S
N962 C965 1.327 . S
C963 H949 0.931 . S
C963 C965 1.392 . S
C963 C966 1.370 . S
C964 C960 1.432 . S
C964 N962 1.359 . S
C964 C967 1.414 . S
C965 H947 0.930 . S
C965 N962 1.327 . S
C965 C963 1.392 . S
C966 H961 0.930 . S
C966 C963 1.370 . S
C966 C967 1.385 . S
C967 C964 1.414 . S
C967 C966 1.385 . S
C967 C989 1.444 . S
O968 Tb924 2.546 . S
O968 C988 1.251 . S
O969 Tb924 2.610 . S
O969 Tb935 2.362 . S
O969 C980 1.283 . S
O970 Tb935 2.421 . S
O970 C987 1.262 . S
O971 Tb924 2.320 . S
O971 C987 1.260 . S
O972 Tb924 2.552 . S
O972 C980 1.243 . S
O973 Tb924 2.413 . S
O973 C988 1.256 . S
O974 Tb935 2.546 . S
O974 C999 1.251 . S
O975 Tb924 2.362 . S
O975 Tb935 2.610 . S
O975 C991 1.283 . S
O976 Tb924 2.421 . S
O976 C998 1.262 . S
O977 Tb935 2.320 . S
O977 C998 1.260 . S
O978 Tb935 2.552 . S
O978 C991 1.243 . S
O979 Tb935 2.413 . S
O979 C999 1.256 . S
C980 O969 1.283 . S
C980 O972 1.243 . S
C981 C983 1.382 . S
C981 C985 1.393 . S
C981 C988 1.500 . S
C982 C983 1.400 . S
C982 C984 1.384 . S
C983 C981 1.382 . S
C983 C982 1.400 . S
C983 H1000 0.930 . S
C984 C982 1.384 . S
C984 C986 1.392 . S
C984 H1001 0.931 . S
C985 C981 1.393 . S
C985 C986 1.401 . S
C985 H1002 0.930 . S
C986 C984 1.392 . S
C986 C985 1.401 . S
C986 H1003 0.930 . S
C987 O970 1.262 . S
C987 O971 1.260 . S
C988 Tb924 2.833 . S
C988 O968 1.251 . S
C988 O973 1.256 . S
C988 C981 1.500 . S
C989 H954 0.929 . S
C989 C967 1.444 . S
C989 C990 1.317 . S
C990 H952 0.930 . S
C990 C958 1.432 . S
C990 C989 1.317 . S
C991 O975 1.283 . S
C991 O978 1.243 . S
C992 C993 1.382 . S
C992 C996 1.393 . S
C992 C999 1.500 . S
C993 C992 1.382 . S
C993 C994 1.400 . S
C993 H1004 0.930 . S
C994 C993 1.400 . S
C994 C995 1.384 . S
C995 C994 1.384 . S
C995 C997 1.392 . S
C995 H1005 0.931 . S
C996 C992 1.393 . S
C996 C997 1.401 . S
C996 H1006 0.930 . S
C997 C995 1.392 . S
C997 C996 1.401 . S
C997 H1007 0.930 . S
C998 O976 1.262 . S
C998 O977 1.260 . S
C999 Tb935 2.833 . S
C999 O974 1.251 . S
C999 O979 1.256 . S
C999 C992 1.500 . S
H1000 C983 0.930 . S
H1001 C984 0.931 . S
H1002 C985 0.930 . S
H1003 C986 0.930 . S
H1004 C993 0.930 . S
H1005 C995 0.931 . S
H1006 C996 0.930 . S
H1007 C997 0.930 . S
Tb1008 N1039 2.660 . S
Tb1008 N1046 2.600 . S
Tb1008 O1052 2.546 . S
Tb1008 O1053 2.610 . S
Tb1008 O1055 2.320 . S
Tb1008 O1056 2.552 . S
Tb1008 O1057 2.413 . S
Tb1008 O1059 2.362 . S
Tb1008 O1060 2.421 . S
Tb1008 C1072 2.833 . S
C1009 C1012 1.432 . S
C1009 C1013 1.414 . S
C1009 N1016 1.359 . S
C1010 C1012 1.417 . S
C1010 C1014 1.432 . S
C1010 C1022 1.410 . S
C1011 C1013 1.444 . S
C1011 C1014 1.317 . S
C1011 H1034 0.929 . S
C1012 C1009 1.432 . S
C1012 C1010 1.417 . S
C1012 N1020 1.360 . S
C1013 C1009 1.414 . S
C1013 C1011 1.444 . S
C1013 C1018 1.385 . S
C1014 C1010 1.432 . S
C1014 C1011 1.317 . S
C1014 H1026 0.930 . S
C1015 C1017 1.392 . S
C1015 C1018 1.370 . S
C1015 H1027 0.931 . S
N1016 C1009 1.359 . S
N1016 C1017 1.327 . S
N1016 Tb1019 2.600 . S
C1017 C1015 1.392 . S
C1017 N1016 1.327 . S
C1017 H1024 0.930 . S
C1018 C1013 1.385 . S
C1018 C1015 1.370 . S
C1018 H1037 0.930 . S
Tb1019 N1016 2.600 . S
Tb1019 N1020 2.660 . S
Tb1019 O1053 2.362 . S
Tb1019 O1054 2.421 . S
Tb1019 O1058 2.546 1_655 S
Tb1019 O1059 2.610 . S
Tb1019 O1061 2.320 1_655 S
Tb1019 O1062 2.552 1_655 S
Tb1019 O1063 2.413 1_655 S
Tb1019 C1083 2.833 1_655 S
N1020 C1012 1.360 . S
N1020 Tb1019 2.660 . S
N1020 C1021 1.305 . S
C1021 N1020 1.305 . S
C1021 C1023 1.407 . S
C1021 H1028 0.930 . S
C1022 C1010 1.410 . S
C1022 C1023 1.345 . S
C1022 H1030 0.930 . S
C1023 C1021 1.407 . S
C1023 C1022 1.345 . S
C1023 H1025 0.930 . S
H1024 C1017 0.930 . S
H1025 C1023 0.930 . S
H1026 C1014 0.930 . S
H1027 C1015 0.931 . S
H1028 C1021 0.930 . S
H1029 C1043 0.930 . S
H1030 C1022 0.930 . S
H1031 C1049 0.930 . S
H1032 C1040 0.930 . S
H1033 C1047 0.931 . S
H1034 C1011 0.929 . S
H1035 C1041 0.930 . S
H1036 C1074 0.930 . S
H1037 C1018 0.930 . S
H1038 C1073 0.929 . S
N1039 Tb1008 2.660 . S
N1039 C1040 1.305 . S
N1039 C1044 1.360 . S
C1040 H1032 0.930 . S
C1040 N1039 1.305 . S
C1040 C1043 1.407 . S
C1041 H1035 0.930 . S
C1041 C1042 1.410 . S
C1041 C1043 1.345 . S
C1042 C1041 1.410 . S
C1042 C1044 1.417 . S
C1042 C1074 1.432 1_655 S
C1043 H1029 0.930 . S
C1043 C1040 1.407 . S
C1043 C1041 1.345 . S
C1044 N1039 1.360 . S
C1044 C1042 1.417 . S
C1044 C1048 1.432 . S
H1045 C1050 0.930 . S
N1046 Tb1008 2.600 . S
N1046 C1048 1.359 . S
N1046 C1049 1.327 . S
C1047 H1033 0.931 . S
C1047 C1049 1.392 1_455 S
C1047 C1050 1.370 . S
C1048 C1044 1.432 . S
C1048 N1046 1.359 . S
C1048 C1051 1.414 1_655 S
C1049 H1031 0.930 . S
C1049 N1046 1.327 . S
C1049 C1047 1.392 1_655 S
C1050 H1045 0.930 . S
C1050 C1047 1.370 . S
C1050 C1051 1.385 . S
C1051 C1048 1.414 1_455 S
C1051 C1050 1.385 . S
C1051 C1073 1.444 . S
O1052 Tb1008 2.546 . S
O1052 C1072 1.251 . S
O1053 Tb1008 2.610 . S
O1053 Tb1019 2.362 . S
O1053 C1064 1.283 . S
O1054 Tb1019 2.421 . S
O1054 C1071 1.262 . S
O1055 Tb1008 2.320 . S
O1055 C1071 1.260 . S
O1056 Tb1008 2.552 . S
O1056 C1064 1.243 . S
O1057 Tb1008 2.413 . S
O1057 C1072 1.256 . S
O1058 Tb1019 2.546 1_455 S
O1058 C1083 1.251 . S
O1059 Tb1008 2.362 . S
O1059 Tb1019 2.610 . S
O1059 C1075 1.283 1_655 S
O1060 Tb1008 2.421 . S
O1060 C1082 1.262 1_655 S
O1061 Tb1019 2.320 1_455 S
O1061 C1082 1.260 . S
O1062 Tb1019 2.552 1_455 S
O1062 C1075 1.243 . S
O1063 Tb1019 2.413 1_455 S
O1063 C1083 1.256 . S
C1064 O1053 1.283 . S
C1064 O1056 1.243 . S
C1065 C1067 1.382 . S
C1065 C1069 1.393 . S
C1065 C1072 1.500 . S
C1066 C1067 1.400 . S
C1066 C1068 1.384 . S
C1067 C1065 1.382 . S
C1067 C1066 1.400 . S
C1067 H1084 0.930 . S
C1068 C1066 1.384 . S
C1068 C1070 1.392 . S
C1068 H1085 0.931 . S
C1069 C1065 1.393 . S
C1069 C1070 1.401 . S
C1069 H1086 0.930 . S
C1070 C1068 1.392 . S
C1070 C1069 1.401 . S
C1070 H1087 0.930 . S
C1071 O1054 1.262 . S
C1071 O1055 1.260 . S
C1072 Tb1008 2.833 . S
C1072 O1052 1.251 . S
C1072 O1057 1.256 . S
C1072 C1065 1.500 . S
C1073 H1038 0.929 . S
C1073 C1051 1.444 . S
C1073 C1074 1.317 . S
C1074 H1036 0.930 . S
C1074 C1042 1.432 1_455 S
C1074 C1073 1.317 . S
C1075 O1059 1.283 1_455 S
C1075 O1062 1.243 . S
C1076 C1077 1.382 . S
C1076 C1080 1.393 . S
C1076 C1083 1.500 . S
C1077 C1076 1.382 . S
C1077 C1078 1.400 . S
C1077 H1088 0.930 . S
C1078 C1077 1.400 . S
C1078 C1079 1.384 . S
C1079 C1078 1.384 . S
C1079 C1081 1.392 . S
C1079 H1089 0.931 . S
C1080 C1076 1.393 . S
C1080 C1081 1.401 . S
C1080 H1090 0.930 . S
C1081 C1079 1.392 . S
C1081 C1080 1.401 . S
C1081 H1091 0.930 . S
C1082 O1060 1.262 1_455 S
C1082 O1061 1.260 . S
C1083 Tb1019 2.833 1_455 S
C1083 O1058 1.251 . S
C1083 O1063 1.256 . S
C1083 C1076 1.500 . S
H1084 C1067 0.930 . S
H1085 C1068 0.931 . S
H1086 C1069 0.930 . S
H1087 C1070 0.930 . S
H1088 C1077 0.930 . S
H1089 C1079 0.931 . S
H1090 C1080 0.930 . S
H1091 C1081 0.930 . S
Tb1092 N1123 2.660 . S
Tb1092 N1130 2.600 . S
Tb1092 O1136 2.546 . S
Tb1092 O1137 2.610 . S
Tb1092 O1139 2.320 . S
Tb1092 O1140 2.552 . S
Tb1092 O1141 2.413 . S
Tb1092 O1143 2.362 . S
Tb1092 O1144 2.421 . S
Tb1092 C1156 2.833 . S
C1093 C1096 1.432 . S
C1093 C1097 1.414 . S
C1093 N1100 1.359 . S
C1094 C1096 1.417 . S
C1094 C1098 1.432 . S
C1094 C1106 1.410 . S
C1095 C1097 1.444 . S
C1095 C1098 1.317 . S
C1095 H1118 0.929 . S
C1096 C1093 1.432 . S
C1096 C1094 1.417 . S
C1096 N1104 1.360 . S
C1097 C1093 1.414 . S
C1097 C1095 1.444 . S
C1097 C1102 1.385 . S
C1098 C1094 1.432 . S
C1098 C1095 1.317 . S
C1098 H1110 0.930 . S
C1099 C1101 1.392 . S
C1099 C1102 1.370 . S
C1099 H1111 0.931 . S
N1100 C1093 1.359 . S
N1100 C1101 1.327 . S
N1100 Tb1103 2.600 . S
C1101 C1099 1.392 . S
C1101 N1100 1.327 . S
C1101 H1108 0.930 . S
C1102 C1097 1.385 . S
C1102 C1099 1.370 . S
C1102 H1121 0.930 . S
Tb1103 N1100 2.600 . S
Tb1103 N1104 2.660 . S
Tb1103 O1137 2.362 . S
Tb1103 O1138 2.421 . S
Tb1103 O1142 2.546 . S
Tb1103 O1143 2.610 . S
Tb1103 O1145 2.320 . S
Tb1103 O1146 2.552 . S
Tb1103 O1147 2.413 . S
Tb1103 C1167 2.833 . S
N1104 C1096 1.360 . S
N1104 Tb1103 2.660 . S
N1104 C1105 1.305 . S
C1105 N1104 1.305 . S
C1105 C1107 1.407 . S
C1105 H1112 0.930 . S
C1106 C1094 1.410 . S
C1106 C1107 1.345 . S
C1106 H1114 0.930 . S
C1107 C1105 1.407 . S
C1107 C1106 1.345 . S
C1107 H1109 0.930 . S
H1108 C1101 0.930 . S
H1109 C1107 0.930 . S
H1110 C1098 0.930 . S
H1111 C1099 0.931 . S
H1112 C1105 0.930 . S
H1113 C1127 0.930 . S
H1114 C1106 0.930 . S
H1115 C1133 0.930 . S
H1116 C1124 0.930 . S
H1117 C1131 0.931 . S
H1118 C1095 0.929 . S
H1119 C1125 0.930 . S
H1120 C1158 0.930 . S
H1121 C1102 0.930 . S
H1122 C1157 0.929 . S
N1123 Tb1092 2.660 . S
N1123 C1124 1.305 . S
N1123 C1128 1.360 . S
C1124 H1116 0.930 . S
C1124 N1123 1.305 . S
C1124 C1127 1.407 . S
C1125 H1119 0.930 . S
C1125 C1126 1.410 . S
C1125 C1127 1.345 . S
C1126 C1125 1.410 . S
C1126 C1128 1.417 . S
C1126 C1158 1.432 . S
C1127 H1113 0.930 . S
C1127 C1124 1.407 . S
C1127 C1125 1.345 . S
C1128 N1123 1.360 . S
C1128 C1126 1.417 . S
C1128 C1132 1.432 . S
H1129 C1134 0.930 . S
N1130 Tb1092 2.600 . S
N1130 C1132 1.359 . S
N1130 C1133 1.327 . S
C1131 H1117 0.931 . S
C1131 C1133 1.392 . S
C1131 C1134 1.370 . S
C1132 C1128 1.432 . S
C1132 N1130 1.359 . S
C1132 C1135 1.414 . S
C1133 H1115 0.930 . S
C1133 N1130 1.327 . S
C1133 C1131 1.392 . S
C1134 H1129 0.930 . S
C1134 C1131 1.370 . S
C1134 C1135 1.385 . S
C1135 C1132 1.414 . S
C1135 C1134 1.385 . S
C1135 C1157 1.444 . S
O1136 Tb1092 2.546 . S
O1136 C1156 1.251 . S
O1137 Tb1092 2.610 . S
O1137 Tb1103 2.362 . S
O1137 C1148 1.283 . S
O1138 Tb1103 2.421 . S
O1138 C1155 1.262 . S
O1139 Tb1092 2.320 . S
O1139 C1155 1.260 . S
O1140 Tb1092 2.552 . S
O1140 C1148 1.243 . S
O1141 Tb1092 2.413 . S
O1141 C1156 1.256 . S
O1142 Tb1103 2.546 . S
O1142 C1167 1.251 . S
O1143 Tb1092 2.362 . S
O1143 Tb1103 2.610 . S
O1143 C1159 1.283 . S
O1144 Tb1092 2.421 . S
O1144 C1166 1.262 . S
O1145 Tb1103 2.320 . S
O1145 C1166 1.260 . S
O1146 Tb1103 2.552 . S
O1146 C1159 1.243 . S
O1147 Tb1103 2.413 . S
O1147 C1167 1.256 . S
C1148 O1137 1.283 . S
C1148 O1140 1.243 . S
C1149 C1151 1.382 . S
C1149 C1153 1.393 . S
C1149 C1156 1.500 . S
C1150 C1151 1.400 . S
C1150 C1152 1.384 . S
C1151 C1149 1.382 . S
C1151 C1150 1.400 . S
C1151 H1168 0.930 . S
C1152 C1150 1.384 . S
C1152 C1154 1.392 . S
C1152 H1169 0.931 . S
C1153 C1149 1.393 . S
C1153 C1154 1.401 . S
C1153 H1170 0.930 . S
C1154 C1152 1.392 . S
C1154 C1153 1.401 . S
C1154 H1171 0.930 . S
C1155 O1138 1.262 . S
C1155 O1139 1.260 . S
C1156 Tb1092 2.833 . S
C1156 O1136 1.251 . S
C1156 O1141 1.256 . S
C1156 C1149 1.500 . S
C1157 H1122 0.929 . S
C1157 C1135 1.444 . S
C1157 C1158 1.317 . S
C1158 H1120 0.930 . S
C1158 C1126 1.432 . S
C1158 C1157 1.317 . S
C1159 O1143 1.283 . S
C1159 O1146 1.243 . S
C1160 C1161 1.382 . S
C1160 C1164 1.393 . S
C1160 C1167 1.500 . S
C1161 C1160 1.382 . S
C1161 C1162 1.400 . S
C1161 H1172 0.930 . S
C1162 C1161 1.400 . S
C1162 C1163 1.384 . S
C1163 C1162 1.384 . S
C1163 C1165 1.392 . S
C1163 H1173 0.931 . S
C1164 C1160 1.393 . S
C1164 C1165 1.401 . S
C1164 H1174 0.930 . S
C1165 C1163 1.392 . S
C1165 C1164 1.401 . S
C1165 H1175 0.930 . S
C1166 O1144 1.262 . S
C1166 O1145 1.260 . S
C1167 Tb1103 2.833 . S
C1167 O1142 1.251 . S
C1167 O1147 1.256 . S
C1167 C1160 1.500 . S
H1168 C1151 0.930 . S
H1169 C1152 0.931 . S
H1170 C1153 0.930 . S
H1171 C1154 0.930 . S
H1172 C1161 0.930 . S
H1173 C1163 0.931 . S
H1174 C1164 0.930 . S
H1175 C1165 0.930 . S
Tb1176 N1207 2.660 . S
Tb1176 N1214 2.600 . S
Tb1176 O1220 2.546 . S
Tb1176 O1221 2.610 . S
Tb1176 O1223 2.320 . S
Tb1176 O1224 2.552 . S
Tb1176 O1225 2.413 . S
Tb1176 O1227 2.362 . S
Tb1176 O1228 2.421 . S
Tb1176 C1240 2.833 . S
C1177 C1180 1.432 . S
C1177 C1181 1.414 . S
C1177 N1184 1.359 . S
C1178 C1180 1.417 . S
C1178 C1182 1.432 . S
C1178 C1190 1.410 . S
C1179 C1181 1.444 . S
C1179 C1182 1.317 . S
C1179 H1202 0.929 . S
C1180 C1177 1.432 . S
C1180 C1178 1.417 . S
C1180 N1188 1.360 . S
C1181 C1177 1.414 . S
C1181 C1179 1.444 . S
C1181 C1186 1.385 . S
C1182 C1178 1.432 . S
C1182 C1179 1.317 . S
C1182 H1194 0.930 . S
C1183 C1185 1.392 . S
C1183 C1186 1.370 . S
C1183 H1195 0.931 . S
N1184 C1177 1.359 . S
N1184 C1185 1.327 . S
N1184 Tb1187 2.600 . S
C1185 C1183 1.392 . S
C1185 N1184 1.327 . S
C1185 H1192 0.930 . S
C1186 C1181 1.385 . S
C1186 C1183 1.370 . S
C1186 H1205 0.930 . S
Tb1187 N1184 2.600 . S
Tb1187 N1188 2.660 . S
Tb1187 O1221 2.362 . S
Tb1187 O1222 2.421 . S
Tb1187 O1226 2.546 . S
Tb1187 O1227 2.610 . S
Tb1187 O1229 2.320 . S
Tb1187 O1230 2.552 . S
Tb1187 O1231 2.413 . S
Tb1187 C1251 2.833 . S
N1188 C1180 1.360 . S
N1188 Tb1187 2.660 . S
N1188 C1189 1.305 . S
C1189 N1188 1.305 . S
C1189 C1191 1.407 . S
C1189 H1196 0.930 . S
C1190 C1178 1.410 . S
C1190 C1191 1.345 . S
C1190 H1198 0.930 . S
C1191 C1189 1.407 . S
C1191 C1190 1.345 . S
C1191 H1193 0.930 . S
H1192 C1185 0.930 . S
H1193 C1191 0.930 . S
H1194 C1182 0.930 . S
H1195 C1183 0.931 . S
H1196 C1189 0.930 . S
H1197 C1211 0.930 . S
H1198 C1190 0.930 . S
H1199 C1217 0.930 . S
H1200 C1208 0.930 . S
H1201 C1215 0.931 . S
H1202 C1179 0.929 . S
H1203 C1209 0.930 . S
H1204 C1242 0.930 . S
H1205 C1186 0.930 . S
H1206 C1241 0.929 . S
N1207 Tb1176 2.660 . S
N1207 C1208 1.305 . S
N1207 C1212 1.360 . S
C1208 H1200 0.930 . S
C1208 N1207 1.305 . S
C1208 C1211 1.407 . S
C1209 H1203 0.930 . S
C1209 C1210 1.410 . S
C1209 C1211 1.345 . S
C1210 C1209 1.410 . S
C1210 C1212 1.417 . S
C1210 C1242 1.432 . S
C1211 H1197 0.930 . S
C1211 C1208 1.407 . S
C1211 C1209 1.345 . S
C1212 N1207 1.360 . S
C1212 C1210 1.417 . S
C1212 C1216 1.432 . S
H1213 C1218 0.930 . S
N1214 Tb1176 2.600 . S
N1214 C1216 1.359 . S
N1214 C1217 1.327 . S
C1215 H1201 0.931 . S
C1215 C1217 1.392 . S
C1215 C1218 1.370 . S
C1216 C1212 1.432 . S
C1216 N1214 1.359 . S
C1216 C1219 1.414 . S
C1217 H1199 0.930 . S
C1217 N1214 1.327 . S
C1217 C1215 1.392 . S
C1218 H1213 0.930 . S
C1218 C1215 1.370 . S
C1218 C1219 1.385 . S
C1219 C1216 1.414 . S
C1219 C1218 1.385 . S
C1219 C1241 1.444 . S
O1220 Tb1176 2.546 . S
O1220 C1240 1.251 . S
O1221 Tb1176 2.610 . S
O1221 Tb1187 2.362 . S
O1221 C1232 1.283 . S
O1222 Tb1187 2.421 . S
O1222 C1239 1.262 . S
O1223 Tb1176 2.320 . S
O1223 C1239 1.260 . S
O1224 Tb1176 2.552 . S
O1224 C1232 1.243 . S
O1225 Tb1176 2.413 . S
O1225 C1240 1.256 . S
O1226 Tb1187 2.546 . S
O1226 C1251 1.251 . S
O1227 Tb1176 2.362 . S
O1227 Tb1187 2.610 . S
O1227 C1243 1.283 . S
O1228 Tb1176 2.421 . S
O1228 C1250 1.262 . S
O1229 Tb1187 2.320 . S
O1229 C1250 1.260 . S
O1230 Tb1187 2.552 . S
O1230 C1243 1.243 . S
O1231 Tb1187 2.413 . S
O1231 C1251 1.256 . S
C1232 O1221 1.283 . S
C1232 O1224 1.243 . S
C1233 C1235 1.382 . S
C1233 C1237 1.393 . S
C1233 C1240 1.500 . S
C1234 C1235 1.400 . S
C1234 C1236 1.384 . S
C1235 C1233 1.382 . S
C1235 C1234 1.400 . S
C1235 H1252 0.930 . S
C1236 C1234 1.384 . S
C1236 C1238 1.392 . S
C1236 H1253 0.931 . S
C1237 C1233 1.393 . S
C1237 C1238 1.401 . S
C1237 H1254 0.930 . S
C1238 C1236 1.392 . S
C1238 C1237 1.401 . S
C1238 H1255 0.930 . S
C1239 O1222 1.262 . S
C1239 O1223 1.260 . S
C1240 Tb1176 2.833 . S
C1240 O1220 1.251 . S
C1240 O1225 1.256 . S
C1240 C1233 1.500 . S
C1241 H1206 0.929 . S
C1241 C1219 1.444 . S
C1241 C1242 1.317 . S
C1242 H1204 0.930 . S
C1242 C1210 1.432 . S
C1242 C1241 1.317 . S
C1243 O1227 1.283 . S
C1243 O1230 1.243 . S
C1244 C1245 1.382 . S
C1244 C1248 1.393 . S
C1244 C1251 1.500 . S
C1245 C1244 1.382 . S
C1245 C1246 1.400 . S
C1245 H1256 0.930 . S
C1246 C1245 1.400 . S
C1246 C1247 1.384 . S
C1247 C1246 1.384 . S
C1247 C1249 1.392 . S
C1247 H1257 0.931 . S
C1248 C1244 1.393 . S
C1248 C1249 1.401 . S
C1248 H1258 0.930 . S
C1249 C1247 1.392 . S
C1249 C1248 1.401 . S
C1249 H1259 0.930 . S
C1250 O1228 1.262 . S
C1250 O1229 1.260 . S
C1251 Tb1187 2.833 . S
C1251 O1226 1.251 . S
C1251 O1231 1.256 . S
C1251 C1244 1.500 . S
H1252 C1235 0.930 . S
H1253 C1236 0.931 . S
H1254 C1237 0.930 . S
H1255 C1238 0.930 . S
H1256 C1245 0.930 . S
H1257 C1247 0.931 . S
H1258 C1248 0.930 . S
H1259 C1249 0.930 . S
Tb1260 N1291 2.660 . S
Tb1260 N1298 2.600 . S
Tb1260 O1304 2.546 . S
Tb1260 O1305 2.610 . S
Tb1260 O1307 2.320 . S
Tb1260 O1308 2.552 . S
Tb1260 O1309 2.413 . S
Tb1260 O1311 2.362 . S
Tb1260 O1312 2.421 . S
Tb1260 C1324 2.833 . S
C1261 C1264 1.432 . S
C1261 C1265 1.414 . S
C1261 N1268 1.359 . S
C1262 C1264 1.417 . S
C1262 C1266 1.432 . S
C1262 C1274 1.410 . S
C1263 C1265 1.444 . S
C1263 C1266 1.317 . S
C1263 H1286 0.929 . S
C1264 C1261 1.432 . S
C1264 C1262 1.417 . S
C1264 N1272 1.360 . S
C1265 C1261 1.414 . S
C1265 C1263 1.444 . S
C1265 C1270 1.385 . S
C1266 C1262 1.432 . S
C1266 C1263 1.317 . S
C1266 H1278 0.930 . S
C1267 C1269 1.392 . S
C1267 C1270 1.370 . S
C1267 H1279 0.931 . S
N1268 C1261 1.359 . S
N1268 C1269 1.327 . S
N1268 Tb1271 2.600 . S
C1269 C1267 1.392 . S
C1269 N1268 1.327 . S
C1269 H1276 0.930 . S
C1270 C1265 1.385 . S
C1270 C1267 1.370 . S
C1270 H1289 0.930 . S
Tb1271 N1268 2.600 . S
Tb1271 N1272 2.660 . S
Tb1271 O1305 2.362 . S
Tb1271 O1306 2.421 . S
Tb1271 O1310 2.546 1_455 S
Tb1271 O1311 2.610 . S
Tb1271 O1313 2.320 1_455 S
Tb1271 O1314 2.552 1_455 S
Tb1271 O1315 2.413 1_455 S
Tb1271 C1335 2.833 1_455 S
N1272 C1264 1.360 . S
N1272 Tb1271 2.660 . S
N1272 C1273 1.305 . S
C1273 N1272 1.305 . S
C1273 C1275 1.407 . S
C1273 H1280 0.930 . S
C1274 C1262 1.410 . S
C1274 C1275 1.345 . S
C1274 H1282 0.930 . S
C1275 C1273 1.407 . S
C1275 C1274 1.345 . S
C1275 H1277 0.930 . S
H1276 C1269 0.930 . S
H1277 C1275 0.930 . S
H1278 C1266 0.930 . S
H1279 C1267 0.931 . S
H1280 C1273 0.930 . S
H1281 C1295 0.930 . S
H1282 C1274 0.930 . S
H1283 C1301 0.930 . S
H1284 C1292 0.930 . S
H1285 C1299 0.931 . S
H1286 C1263 0.929 . S
H1287 C1293 0.930 . S
H1288 C1326 0.930 . S
H1289 C1270 0.930 . S
H1290 C1325 0.929 . S
N1291 Tb1260 2.660 . S
N1291 C1292 1.305 . S
N1291 C1296 1.360 . S
C1292 H1284 0.930 . S
C1292 N1291 1.305 . S
C1292 C1295 1.407 . S
C1293 H1287 0.930 . S
C1293 C1294 1.410 . S
C1293 C1295 1.345 . S
C1294 C1293 1.410 . S
C1294 C1296 1.417 . S
C1294 C1326 1.432 1_455 S
C1295 H1281 0.930 . S
C1295 C1292 1.407 . S
C1295 C1293 1.345 . S
C1296 N1291 1.360 . S
C1296 C1294 1.417 . S
C1296 C1300 1.432 . S
H1297 C1302 0.930 . S
N1298 Tb1260 2.600 . S
N1298 C1300 1.359 . S
N1298 C1301 1.327 . S
C1299 H1285 0.931 . S
C1299 C1301 1.392 1_655 S
C1299 C1302 1.370 . S
C1300 C1296 1.432 . S
C1300 N1298 1.359 . S
C1300 C1303 1.414 1_455 S
C1301 H1283 0.930 . S
C1301 N1298 1.327 . S
C1301 C1299 1.392 1_455 S
C1302 H1297 0.930 . S
C1302 C1299 1.370 . S
C1302 C1303 1.385 . S
C1303 C1300 1.414 1_655 S
C1303 C1302 1.385 . S
C1303 C1325 1.444 . S
O1304 Tb1260 2.546 . S
O1304 C1324 1.251 . S
O1305 Tb1260 2.610 . S
O1305 Tb1271 2.362 . S
O1305 C1316 1.283 . S
O1306 Tb1271 2.421 . S
O1306 C1323 1.262 . S
O1307 Tb1260 2.320 . S
O1307 C1323 1.260 . S
O1308 Tb1260 2.552 . S
O1308 C1316 1.243 . S
O1309 Tb1260 2.413 . S
O1309 C1324 1.256 . S
O1310 Tb1271 2.546 1_655 S
O1310 C1335 1.251 . S
O1311 Tb1260 2.362 . S
O1311 Tb1271 2.610 . S
O1311 C1327 1.283 1_455 S
O1312 Tb1260 2.421 . S
O1312 C1334 1.262 1_455 S
O1313 Tb1271 2.320 1_655 S
O1313 C1334 1.260 . S
O1314 Tb1271 2.552 1_655 S
O1314 C1327 1.243 . S
O1315 Tb1271 2.413 1_655 S
O1315 C1335 1.256 . S
C1316 O1305 1.283 . S
C1316 O1308 1.243 . S
C1317 C1319 1.382 . S
C1317 C1321 1.393 . S
C1317 C1324 1.500 . S
C1318 C1319 1.400 . S
C1318 C1320 1.384 . S
C1319 C1317 1.382 . S
C1319 C1318 1.400 . S
C1319 H1336 0.930 . S
C1320 C1318 1.384 . S
C1320 C1322 1.392 . S
C1320 H1337 0.931 . S
C1321 C1317 1.393 . S
C1321 C1322 1.401 . S
C1321 H1338 0.930 . S
C1322 C1320 1.392 . S
C1322 C1321 1.401 . S
C1322 H1339 0.930 . S
C1323 O1306 1.262 . S
C1323 O1307 1.260 . S
C1324 Tb1260 2.833 . S
C1324 O1304 1.251 . S
C1324 O1309 1.256 . S
C1324 C1317 1.500 . S
C1325 H1290 0.929 . S
C1325 C1303 1.444 . S
C1325 C1326 1.317 . S
C1326 H1288 0.930 . S
C1326 C1294 1.432 1_655 S
C1326 C1325 1.317 . S
C1327 O1311 1.283 1_655 S
C1327 O1314 1.243 . S
C1328 C1329 1.382 . S
C1328 C1332 1.393 . S
C1328 C1335 1.500 . S
C1329 C1328 1.382 . S
C1329 C1330 1.400 . S
C1329 H1340 0.930 . S
C1330 C1329 1.400 . S
C1330 C1331 1.384 . S
C1331 C1330 1.384 . S
C1331 C1333 1.392 . S
C1331 H1341 0.931 . S
C1332 C1328 1.393 . S
C1332 C1333 1.401 . S
C1332 H1342 0.930 . S
C1333 C1331 1.392 . S
C1333 C1332 1.401 . S
C1333 H1343 0.930 . S
C1334 O1312 1.262 1_655 S
C1334 O1313 1.260 . S
C1335 Tb1271 2.833 1_655 S
C1335 O1310 1.251 . S
C1335 O1315 1.256 . S
C1335 C1328 1.500 . S
H1336 C1319 0.930 . S
H1337 C1320 0.931 . S
H1338 C1321 0.930 . S
H1339 C1322 0.930 . S
H1340 C1329 0.930 . S
H1341 C1331 0.931 . S
H1342 C1332 0.930 . S
H1343 C1333 0.930 . S
Tb1344 N1375 2.660 . S
Tb1344 N1382 2.600 . S
Tb1344 O1388 2.546 . S
Tb1344 O1389 2.610 . S
Tb1344 O1391 2.320 . S
Tb1344 O1392 2.552 . S
Tb1344 O1393 2.413 . S
Tb1344 O1395 2.362 . S
Tb1344 O1396 2.421 . S
Tb1344 C1408 2.833 . S
C1345 C1348 1.432 . S
C1345 C1349 1.414 . S
C1345 N1352 1.359 . S
C1346 C1348 1.417 . S
C1346 C1350 1.432 . S
C1346 C1358 1.410 . S
C1347 C1349 1.444 . S
C1347 C1350 1.317 . S
C1347 H1370 0.929 . S
C1348 C1345 1.432 . S
C1348 C1346 1.417 . S
C1348 N1356 1.360 . S
C1349 C1345 1.414 . S
C1349 C1347 1.444 . S
C1349 C1354 1.385 . S
C1350 C1346 1.432 . S
C1350 C1347 1.317 . S
C1350 H1362 0.930 . S
C1351 C1353 1.392 . S
C1351 C1354 1.370 . S
C1351 H1363 0.931 . S
N1352 C1345 1.359 . S
N1352 C1353 1.327 . S
N1352 Tb1355 2.600 . S
C1353 C1351 1.392 . S
C1353 N1352 1.327 . S
C1353 H1360 0.930 . S
C1354 C1349 1.385 . S
C1354 C1351 1.370 . S
C1354 H1373 0.930 . S
Tb1355 N1352 2.600 . S
Tb1355 N1356 2.660 . S
Tb1355 O1389 2.362 . S
Tb1355 O1390 2.421 . S
Tb1355 O1394 2.546 1_565 S
Tb1355 O1395 2.610 . S
Tb1355 O1397 2.320 1_565 S
Tb1355 O1398 2.552 1_565 S
Tb1355 O1399 2.413 1_565 S
Tb1355 C1419 2.833 1_565 S
N1356 C1348 1.360 . S
N1356 Tb1355 2.660 . S
N1356 C1357 1.305 . S
C1357 N1356 1.305 . S
C1357 C1359 1.407 . S
C1357 H1364 0.930 . S
C1358 C1346 1.410 . S
C1358 C1359 1.345 . S
C1358 H1366 0.930 . S
C1359 C1357 1.407 . S
C1359 C1358 1.345 . S
C1359 H1361 0.930 . S
H1360 C1353 0.930 . S
H1361 C1359 0.930 . S
H1362 C1350 0.930 . S
H1363 C1351 0.931 . S
H1364 C1357 0.930 . S
H1365 C1379 0.930 . S
H1366 C1358 0.930 . S
H1367 C1385 0.930 . S
H1368 C1376 0.930 . S
H1369 C1383 0.931 . S
H1370 C1347 0.929 . S
H1371 C1377 0.930 . S
H1372 C1410 0.930 . S
H1373 C1354 0.930 . S
H1374 C1409 0.929 . S
N1375 Tb1344 2.660 . S
N1375 C1376 1.305 . S
N1375 C1380 1.360 . S
C1376 H1368 0.930 . S
C1376 N1375 1.305 . S
C1376 C1379 1.407 . S
C1377 H1371 0.930 . S
C1377 C1378 1.410 . S
C1377 C1379 1.345 . S
C1378 C1377 1.410 . S
C1378 C1380 1.417 . S
C1378 C1410 1.432 1_565 S
C1379 H1365 0.930 . S
C1379 C1376 1.407 . S
C1379 C1377 1.345 . S
C1380 N1375 1.360 . S
C1380 C1378 1.417 . S
C1380 C1384 1.432 . S
H1381 C1386 0.930 . S
N1382 Tb1344 2.600 . S
N1382 C1384 1.359 . S
N1382 C1385 1.327 . S
C1383 H1369 0.931 . S
C1383 C1385 1.392 1_545 S
C1383 C1386 1.370 . S
C1384 C1380 1.432 . S
C1384 N1382 1.359 . S
C1384 C1387 1.414 1_565 S
C1385 H1367 0.930 . S
C1385 N1382 1.327 . S
C1385 C1383 1.392 1_565 S
C1386 H1381 0.930 . S
C1386 C1383 1.370 . S
C1386 C1387 1.385 . S
C1387 C1384 1.414 1_545 S
C1387 C1386 1.385 . S
C1387 C1409 1.444 . S
O1388 Tb1344 2.546 . S
O1388 C1408 1.251 . S
O1389 Tb1344 2.610 . S
O1389 Tb1355 2.362 . S
O1389 C1400 1.283 . S
O1390 Tb1355 2.421 . S
O1390 C1407 1.262 . S
O1391 Tb1344 2.320 . S
O1391 C1407 1.260 . S
O1392 Tb1344 2.552 . S
O1392 C1400 1.243 . S
O1393 Tb1344 2.413 . S
O1393 C1408 1.256 . S
O1394 Tb1355 2.546 1_545 S
O1394 C1419 1.251 . S
O1395 Tb1344 2.362 . S
O1395 Tb1355 2.610 . S
O1395 C1411 1.283 1_565 S
O1396 Tb1344 2.421 . S
O1396 C1418 1.262 1_565 S
O1397 Tb1355 2.320 1_545 S
O1397 C1418 1.260 . S
O1398 Tb1355 2.552 1_545 S
O1398 C1411 1.243 . S
O1399 Tb1355 2.413 1_545 S
O1399 C1419 1.256 . S
C1400 O1389 1.283 . S
C1400 O1392 1.243 . S
C1401 C1403 1.382 . S
C1401 C1405 1.393 . S
C1401 C1408 1.500 . S
C1402 C1403 1.400 . S
C1402 C1404 1.384 . S
C1403 C1401 1.382 . S
C1403 C1402 1.400 . S
C1403 H1420 0.930 . S
C1404 C1402 1.384 . S
C1404 C1406 1.392 . S
C1404 H1421 0.931 . S
C1405 C1401 1.393 . S
C1405 C1406 1.401 . S
C1405 H1422 0.930 . S
C1406 C1404 1.392 . S
C1406 C1405 1.401 . S
C1406 H1423 0.930 . S
C1407 O1390 1.262 . S
C1407 O1391 1.260 . S
C1408 Tb1344 2.833 . S
C1408 O1388 1.251 . S
C1408 O1393 1.256 . S
C1408 C1401 1.500 . S
C1409 H1374 0.929 . S
C1409 C1387 1.444 . S
C1409 C1410 1.317 . S
C1410 H1372 0.930 . S
C1410 C1378 1.432 1_545 S
C1410 C1409 1.317 . S
C1411 O1395 1.283 1_545 S
C1411 O1398 1.243 . S
C1412 C1413 1.382 . S
C1412 C1416 1.393 . S
C1412 C1419 1.500 . S
C1413 C1412 1.382 . S
C1413 C1414 1.400 . S
C1413 H1424 0.930 . S
C1414 C1413 1.400 . S
C1414 C1415 1.384 . S
C1415 C1414 1.384 . S
C1415 C1417 1.392 . S
C1415 H1425 0.931 . S
C1416 C1412 1.393 . S
C1416 C1417 1.401 . S
C1416 H1426 0.930 . S
C1417 C1415 1.392 . S
C1417 C1416 1.401 . S
C1417 H1427 0.930 . S
C1418 O1396 1.262 1_545 S
C1418 O1397 1.260 . S
C1419 Tb1355 2.833 1_545 S
C1419 O1394 1.251 . S
C1419 O1399 1.256 . S
C1419 C1412 1.500 . S
H1420 C1403 0.930 . S
H1421 C1404 0.931 . S
H1422 C1405 0.930 . S
H1423 C1406 0.930 . S
H1424 C1413 0.930 . S
H1425 C1415 0.931 . S
H1426 C1416 0.930 . S
H1427 C1417 0.930 . S
Tb1428 N1459 2.660 . S
Tb1428 N1466 2.600 . S
Tb1428 O1472 2.546 . S
Tb1428 O1473 2.610 . S
Tb1428 O1475 2.320 . S
Tb1428 O1476 2.552 . S
Tb1428 O1477 2.413 . S
Tb1428 O1479 2.362 . S
Tb1428 O1480 2.421 . S
Tb1428 C1492 2.833 . S
C1429 C1432 1.432 . S
C1429 C1433 1.414 . S
C1429 N1436 1.359 . S
C1430 C1432 1.417 . S
C1430 C1434 1.432 . S
C1430 C1442 1.410 . S
C1431 C1433 1.444 . S
C1431 C1434 1.317 . S
C1431 H1454 0.929 . S
C1432 C1429 1.432 . S
C1432 C1430 1.417 . S
C1432 N1440 1.360 . S
C1433 C1429 1.414 . S
C1433 C1431 1.444 . S
C1433 C1438 1.385 . S
C1434 C1430 1.432 . S
C1434 C1431 1.317 . S
C1434 H1446 0.930 . S
C1435 C1437 1.392 . S
C1435 C1438 1.370 . S
C1435 H1447 0.931 . S
N1436 C1429 1.359 . S
N1436 C1437 1.327 . S
N1436 Tb1439 2.600 . S
C1437 C1435 1.392 . S
C1437 N1436 1.327 . S
C1437 H1444 0.930 . S
C1438 C1433 1.385 . S
C1438 C1435 1.370 . S
C1438 H1457 0.930 . S
Tb1439 N1436 2.600 . S
Tb1439 N1440 2.660 . S
Tb1439 O1473 2.362 . S
Tb1439 O1474 2.421 . S
Tb1439 O1478 2.546 1_545 S
Tb1439 O1479 2.610 . S
Tb1439 O1481 2.320 1_545 S
Tb1439 O1482 2.552 1_545 S
Tb1439 O1483 2.413 1_545 S
Tb1439 C1503 2.833 1_545 S
N1440 C1432 1.360 . S
N1440 Tb1439 2.660 . S
N1440 C1441 1.305 . S
C1441 N1440 1.305 . S
C1441 C1443 1.407 . S
C1441 H1448 0.930 . S
C1442 C1430 1.410 . S
C1442 C1443 1.345 . S
C1442 H1450 0.930 . S
C1443 C1441 1.407 . S
C1443 C1442 1.345 . S
C1443 H1445 0.930 . S
H1444 C1437 0.930 . S
H1445 C1443 0.930 . S
H1446 C1434 0.930 . S
H1447 C1435 0.931 . S
H1448 C1441 0.930 . S
H1449 C1463 0.930 . S
H1450 C1442 0.930 . S
H1451 C1469 0.930 . S
H1452 C1460 0.930 . S
H1453 C1467 0.931 . S
H1454 C1431 0.929 . S
H1455 C1461 0.930 . S
H1456 C1494 0.930 . S
H1457 C1438 0.930 . S
H1458 C1493 0.929 . S
N1459 Tb1428 2.660 . S
N1459 C1460 1.305 . S
N1459 C1464 1.360 . S
C1460 H1452 0.930 . S
C1460 N1459 1.305 . S
C1460 C1463 1.407 . S
C1461 H1455 0.930 . S
C1461 C1462 1.410 . S
C1461 C1463 1.345 . S
C1462 C1461 1.410 . S
C1462 C1464 1.417 . S
C1462 C1494 1.432 1_545 S
C1463 H1449 0.930 . S
C1463 C1460 1.407 . S
C1463 C1461 1.345 . S
C1464 N1459 1.360 . S
C1464 C1462 1.417 . S
C1464 C1468 1.432 . S
H1465 C1470 0.930 . S
N1466 Tb1428 2.600 . S
N1466 C1468 1.359 . S
N1466 C1469 1.327 . S
C1467 H1453 0.931 . S
C1467 C1469 1.392 1_565 S
C1467 C1470 1.370 . S
C1468 C1464 1.432 . S
C1468 N1466 1.359 . S
C1468 C1471 1.414 1_545 S
C1469 H1451 0.930 . S
C1469 N1466 1.327 . S
C1469 C1467 1.392 1_545 S
C1470 H1465 0.930 . S
C1470 C1467 1.370 . S
C1470 C1471 1.385 . S
C1471 C1468 1.414 1_565 S
C1471 C1470 1.385 . S
C1471 C1493 1.444 . S
O1472 Tb1428 2.546 . S
O1472 C1492 1.251 . S
O1473 Tb1428 2.610 . S
O1473 Tb1439 2.362 . S
O1473 C1484 1.283 . S
O1474 Tb1439 2.421 . S
O1474 C1491 1.262 . S
O1475 Tb1428 2.320 . S
O1475 C1491 1.260 . S
O1476 Tb1428 2.552 . S
O1476 C1484 1.243 . S
O1477 Tb1428 2.413 . S
O1477 C1492 1.256 . S
O1478 Tb1439 2.546 1_565 S
O1478 C1503 1.251 . S
O1479 Tb1428 2.362 . S
O1479 Tb1439 2.610 . S
O1479 C1495 1.283 1_545 S
O1480 Tb1428 2.421 . S
O1480 C1502 1.262 1_545 S
O1481 Tb1439 2.320 1_565 S
O1481 C1502 1.260 . S
O1482 Tb1439 2.552 1_565 S
O1482 C1495 1.243 . S
O1483 Tb1439 2.413 1_565 S
O1483 C1503 1.256 . S
C1484 O1473 1.283 . S
C1484 O1476 1.243 . S
C1485 C1487 1.382 . S
C1485 C1489 1.393 . S
C1485 C1492 1.500 . S
C1486 C1487 1.400 . S
C1486 C1488 1.384 . S
C1487 C1485 1.382 . S
C1487 C1486 1.400 . S
C1487 H1504 0.930 . S
C1488 C1486 1.384 . S
C1488 C1490 1.392 . S
C1488 H1505 0.931 . S
C1489 C1485 1.393 . S
C1489 C1490 1.401 . S
C1489 H1506 0.930 . S
C1490 C1488 1.392 . S
C1490 C1489 1.401 . S
C1490 H1507 0.930 . S
C1491 O1474 1.262 . S
C1491 O1475 1.260 . S
C1492 Tb1428 2.833 . S
C1492 O1472 1.251 . S
C1492 O1477 1.256 . S
C1492 C1485 1.500 . S
C1493 H1458 0.929 . S
C1493 C1471 1.444 . S
C1493 C1494 1.317 . S
C1494 H1456 0.930 . S
C1494 C1462 1.432 1_565 S
C1494 C1493 1.317 . S
C1495 O1479 1.283 1_565 S
C1495 O1482 1.243 . S
C1496 C1497 1.382 . S
C1496 C1500 1.393 . S
C1496 C1503 1.500 . S
C1497 C1496 1.382 . S
C1497 C1498 1.400 . S
C1497 H1508 0.930 . S
C1498 C1497 1.400 . S
C1498 C1499 1.384 . S
C1499 C1498 1.384 . S
C1499 C1501 1.392 . S
C1499 H1509 0.931 . S
C1500 C1496 1.393 . S
C1500 C1501 1.401 . S
C1500 H1510 0.930 . S
C1501 C1499 1.392 . S
C1501 C1500 1.401 . S
C1501 H1511 0.930 . S
C1502 O1480 1.262 1_565 S
C1502 O1481 1.260 . S
C1503 Tb1439 2.833 1_565 S
C1503 O1478 1.251 . S
C1503 O1483 1.256 . S
C1503 C1496 1.500 . S
H1504 C1487 0.930 . S
H1505 C1488 0.931 . S
H1506 C1489 0.930 . S
H1507 C1490 0.930 . S
H1508 C1497 0.930 . S
H1509 C1499 0.931 . S
H1510 C1500 0.930 . S
H1511 C1501 0.930 . S
Tb1512 N1543 2.660 . S
Tb1512 N1550 2.600 . S
Tb1512 O1556 2.546 . S
Tb1512 O1557 2.610 . S
Tb1512 O1559 2.320 . S
Tb1512 O1560 2.552 . S
Tb1512 O1561 2.413 . S
Tb1512 O1563 2.362 . S
Tb1512 O1564 2.421 . S
Tb1512 C1576 2.833 . S
C1513 C1516 1.432 . S
C1513 C1517 1.414 . S
C1513 N1520 1.359 . S
C1514 C1516 1.417 . S
C1514 C1518 1.432 . S
C1514 C1526 1.410 . S
C1515 C1517 1.444 . S
C1515 C1518 1.317 . S
C1515 H1538 0.929 . S
C1516 C1513 1.432 . S
C1516 C1514 1.417 . S
C1516 N1524 1.360 . S
C1517 C1513 1.414 . S
C1517 C1515 1.444 . S
C1517 C1522 1.385 . S
C1518 C1514 1.432 . S
C1518 C1515 1.317 . S
C1518 H1530 0.930 . S
C1519 C1521 1.392 . S
C1519 C1522 1.370 . S
C1519 H1531 0.931 . S
N1520 C1513 1.359 . S
N1520 C1521 1.327 . S
N1520 Tb1523 2.600 . S
C1521 C1519 1.392 . S
C1521 N1520 1.327 . S
C1521 H1528 0.930 . S
C1522 C1517 1.385 . S
C1522 C1519 1.370 . S
C1522 H1541 0.930 . S
Tb1523 N1520 2.600 . S
Tb1523 N1524 2.660 . S
Tb1523 O1557 2.362 . S
Tb1523 O1558 2.421 . S
Tb1523 O1562 2.546 . S
Tb1523 O1563 2.610 . S
Tb1523 O1565 2.320 . S
Tb1523 O1566 2.552 . S
Tb1523 O1567 2.413 . S
Tb1523 C1587 2.833 . S
N1524 C1516 1.360 . S
N1524 Tb1523 2.660 . S
N1524 C1525 1.305 . S
C1525 N1524 1.305 . S
C1525 C1527 1.407 . S
C1525 H1532 0.930 . S
C1526 C1514 1.410 . S
C1526 C1527 1.345 . S
C1526 H1534 0.930 . S
C1527 C1525 1.407 . S
C1527 C1526 1.345 . S
C1527 H1529 0.930 . S
H1528 C1521 0.930 . S
H1529 C1527 0.930 . S
H1530 C1518 0.930 . S
H1531 C1519 0.931 . S
H1532 C1525 0.930 . S
H1533 C1547 0.930 . S
H1534 C1526 0.930 . S
H1535 C1553 0.930 . S
H1536 C1544 0.930 . S
H1537 C1551 0.931 . S
H1538 C1515 0.929 . S
H1539 C1545 0.930 . S
H1540 C1578 0.930 . S
H1541 C1522 0.930 . S
H1542 C1577 0.929 . S
N1543 Tb1512 2.660 . S
N1543 C1544 1.305 . S
N1543 C1548 1.360 . S
C1544 H1536 0.930 . S
C1544 N1543 1.305 . S
C1544 C1547 1.407 . S
C1545 H1539 0.930 . S
C1545 C1546 1.410 . S
C1545 C1547 1.345 . S
C1546 C1545 1.410 . S
C1546 C1548 1.417 . S
C1546 C1578 1.432 . S
C1547 H1533 0.930 . S
C1547 C1544 1.407 . S
C1547 C1545 1.345 . S
C1548 N1543 1.360 . S
C1548 C1546 1.417 . S
C1548 C1552 1.432 . S
H1549 C1554 0.930 . S
N1550 Tb1512 2.600 . S
N1550 C1552 1.359 . S
N1550 C1553 1.327 . S
C1551 H1537 0.931 . S
C1551 C1553 1.392 . S
C1551 C1554 1.370 . S
C1552 C1548 1.432 . S
C1552 N1550 1.359 . S
C1552 C1555 1.414 . S
C1553 H1535 0.930 . S
C1553 N1550 1.327 . S
C1553 C1551 1.392 . S
C1554 H1549 0.930 . S
C1554 C1551 1.370 . S
C1554 C1555 1.385 . S
C1555 C1552 1.414 . S
C1555 C1554 1.385 . S
C1555 C1577 1.444 . S
O1556 Tb1512 2.546 . S
O1556 C1576 1.251 . S
O1557 Tb1512 2.610 . S
O1557 Tb1523 2.362 . S
O1557 C1568 1.283 . S
O1558 Tb1523 2.421 . S
O1558 C1575 1.262 . S
O1559 Tb1512 2.320 . S
O1559 C1575 1.260 . S
O1560 Tb1512 2.552 . S
O1560 C1568 1.243 . S
O1561 Tb1512 2.413 . S
O1561 C1576 1.256 . S
O1562 Tb1523 2.546 . S
O1562 C1587 1.251 . S
O1563 Tb1512 2.362 . S
O1563 Tb1523 2.610 . S
O1563 C1579 1.283 . S
O1564 Tb1512 2.421 . S
O1564 C1586 1.262 . S
O1565 Tb1523 2.320 . S
O1565 C1586 1.260 . S
O1566 Tb1523 2.552 . S
O1566 C1579 1.243 . S
O1567 Tb1523 2.413 . S
O1567 C1587 1.256 . S
C1568 O1557 1.283 . S
C1568 O1560 1.243 . S
C1569 C1571 1.382 . S
C1569 C1573 1.393 . S
C1569 C1576 1.500 . S
C1570 C1571 1.400 . S
C1570 C1572 1.384 . S
C1571 C1569 1.382 . S
C1571 C1570 1.400 . S
C1571 H1588 0.930 . S
C1572 C1570 1.384 . S
C1572 C1574 1.392 . S
C1572 H1589 0.931 . S
C1573 C1569 1.393 . S
C1573 C1574 1.401 . S
C1573 H1590 0.930 . S
C1574 C1572 1.392 . S
C1574 C1573 1.401 . S
C1574 H1591 0.930 . S
C1575 O1558 1.262 . S
C1575 O1559 1.260 . S
C1576 Tb1512 2.833 . S
C1576 O1556 1.251 . S
C1576 O1561 1.256 . S
C1576 C1569 1.500 . S
C1577 H1542 0.929 . S
C1577 C1555 1.444 . S
C1577 C1578 1.317 . S
C1578 H1540 0.930 . S
C1578 C1546 1.432 . S
C1578 C1577 1.317 . S
C1579 O1563 1.283 . S
C1579 O1566 1.243 . S
C1580 C1581 1.382 . S
C1580 C1584 1.393 . S
C1580 C1587 1.500 . S
C1581 C1580 1.382 . S
C1581 C1582 1.400 . S
C1581 H1592 0.930 . S
C1582 C1581 1.400 . S
C1582 C1583 1.384 . S
C1583 C1582 1.384 . S
C1583 C1585 1.392 . S
C1583 H1593 0.931 . S
C1584 C1580 1.393 . S
C1584 C1585 1.401 . S
C1584 H1594 0.930 . S
C1585 C1583 1.392 . S
C1585 C1584 1.401 . S
C1585 H1595 0.930 . S
C1586 O1564 1.262 . S
C1586 O1565 1.260 . S
C1587 Tb1523 2.833 . S
C1587 O1562 1.251 . S
C1587 O1567 1.256 . S
C1587 C1580 1.500 . S
H1588 C1571 0.930 . S
H1589 C1572 0.931 . S
H1590 C1573 0.930 . S
H1591 C1574 0.930 . S
H1592 C1581 0.930 . S
H1593 C1583 0.931 . S
H1594 C1584 0.930 . S
H1595 C1585 0.930 . S
Tb1596 N1627 2.660 . S
Tb1596 N1634 2.600 . S
Tb1596 O1640 2.546 . S
Tb1596 O1641 2.610 . S
Tb1596 O1643 2.320 . S
Tb1596 O1644 2.552 . S
Tb1596 O1645 2.413 . S
Tb1596 O1647 2.362 . S
Tb1596 O1648 2.421 . S
Tb1596 C1660 2.833 . S
C1597 C1600 1.432 . S
C1597 C1601 1.414 . S
C1597 N1604 1.359 . S
C1598 C1600 1.417 . S
C1598 C1602 1.432 . S
C1598 C1610 1.410 . S
C1599 C1601 1.444 . S
C1599 C1602 1.317 . S
C1599 H1622 0.929 . S
C1600 C1597 1.432 . S
C1600 C1598 1.417 . S
C1600 N1608 1.360 . S
C1601 C1597 1.414 . S
C1601 C1599 1.444 . S
C1601 C1606 1.385 . S
C1602 C1598 1.432 . S
C1602 C1599 1.317 . S
C1602 H1614 0.930 . S
C1603 C1605 1.392 . S
C1603 C1606 1.370 . S
C1603 H1615 0.931 . S
N1604 C1597 1.359 . S
N1604 C1605 1.327 . S
N1604 Tb1607 2.600 . S
C1605 C1603 1.392 . S
C1605 N1604 1.327 . S
C1605 H1612 0.930 . S
C1606 C1601 1.385 . S
C1606 C1603 1.370 . S
C1606 H1625 0.930 . S
Tb1607 N1604 2.600 . S
Tb1607 N1608 2.660 . S
Tb1607 O1641 2.362 . S
Tb1607 O1642 2.421 . S
Tb1607 O1646 2.546 . S
Tb1607 O1647 2.610 . S
Tb1607 O1649 2.320 . S
Tb1607 O1650 2.552 . S
Tb1607 O1651 2.413 . S
Tb1607 C1671 2.833 . S
N1608 C1600 1.360 . S
N1608 Tb1607 2.660 . S
N1608 C1609 1.305 . S
C1609 N1608 1.305 . S
C1609 C1611 1.407 . S
C1609 H1616 0.930 . S
C1610 C1598 1.410 . S
C1610 C1611 1.345 . S
C1610 H1618 0.930 . S
C1611 C1609 1.407 . S
C1611 C1610 1.345 . S
C1611 H1613 0.930 . S
H1612 C1605 0.930 . S
H1613 C1611 0.930 . S
H1614 C1602 0.930 . S
H1615 C1603 0.931 . S
H1616 C1609 0.930 . S
H1617 C1631 0.930 . S
H1618 C1610 0.930 . S
H1619 C1637 0.930 . S
H1620 C1628 0.930 . S
H1621 C1635 0.931 . S
H1622 C1599 0.929 . S
H1623 C1629 0.930 . S
H1624 C1662 0.930 . S
H1625 C1606 0.930 . S
H1626 C1661 0.929 . S
N1627 Tb1596 2.660 . S
N1627 C1628 1.305 . S
N1627 C1632 1.360 . S
C1628 H1620 0.930 . S
C1628 N1627 1.305 . S
C1628 C1631 1.407 . S
C1629 H1623 0.930 . S
C1629 C1630 1.410 . S
C1629 C1631 1.345 . S
C1630 C1629 1.410 . S
C1630 C1632 1.417 . S
C1630 C1662 1.432 . S
C1631 H1617 0.930 . S
C1631 C1628 1.407 . S
C1631 C1629 1.345 . S
C1632 N1627 1.360 . S
C1632 C1630 1.417 . S
C1632 C1636 1.432 . S
H1633 C1638 0.930 . S
N1634 Tb1596 2.600 . S
N1634 C1636 1.359 . S
N1634 C1637 1.327 . S
C1635 H1621 0.931 . S
C1635 C1637 1.392 . S
C1635 C1638 1.370 . S
C1636 C1632 1.432 . S
C1636 N1634 1.359 . S
C1636 C1639 1.414 . S
C1637 H1619 0.930 . S
C1637 N1634 1.327 . S
C1637 C1635 1.392 . S
C1638 H1633 0.930 . S
C1638 C1635 1.370 . S
C1638 C1639 1.385 . S
C1639 C1636 1.414 . S
C1639 C1638 1.385 . S
C1639 C1661 1.444 . S
O1640 Tb1596 2.546 . S
O1640 C1660 1.251 . S
O1641 Tb1596 2.610 . S
O1641 Tb1607 2.362 . S
O1641 C1652 1.283 . S
O1642 Tb1607 2.421 . S
O1642 C1659 1.262 . S
O1643 Tb1596 2.320 . S
O1643 C1659 1.260 . S
O1644 Tb1596 2.552 . S
O1644 C1652 1.243 . S
O1645 Tb1596 2.413 . S
O1645 C1660 1.256 . S
O1646 Tb1607 2.546 . S
O1646 C1671 1.251 . S
O1647 Tb1596 2.362 . S
O1647 Tb1607 2.610 . S
O1647 C1663 1.283 . S
O1648 Tb1596 2.421 . S
O1648 C1670 1.262 . S
O1649 Tb1607 2.320 . S
O1649 C1670 1.260 . S
O1650 Tb1607 2.552 . S
O1650 C1663 1.243 . S
O1651 Tb1607 2.413 . S
O1651 C1671 1.256 . S
C1652 O1641 1.283 . S
C1652 O1644 1.243 . S
C1653 C1655 1.382 . S
C1653 C1657 1.393 . S
C1653 C1660 1.500 . S
C1654 C1655 1.400 . S
C1654 C1656 1.384 . S
C1655 C1653 1.382 . S
C1655 C1654 1.400 . S
C1655 H1672 0.930 . S
C1656 C1654 1.384 . S
C1656 C1658 1.392 . S
C1656 H1673 0.931 . S
C1657 C1653 1.393 . S
C1657 C1658 1.401 . S
C1657 H1674 0.930 . S
C1658 C1656 1.392 . S
C1658 C1657 1.401 . S
C1658 H1675 0.930 . S
C1659 O1642 1.262 . S
C1659 O1643 1.260 . S
C1660 Tb1596 2.833 . S
C1660 O1640 1.251 . S
C1660 O1645 1.256 . S
C1660 C1653 1.500 . S
C1661 H1626 0.929 . S
C1661 C1639 1.444 . S
C1661 C1662 1.317 . S
C1662 H1624 0.930 . S
C1662 C1630 1.432 . S
C1662 C1661 1.317 . S
C1663 O1647 1.283 . S
C1663 O1650 1.243 . S
C1664 C1665 1.382 . S
C1664 C1668 1.393 . S
C1664 C1671 1.500 . S
C1665 C1664 1.382 . S
C1665 C1666 1.400 . S
C1665 H1676 0.930 . S
C1666 C1665 1.400 . S
C1666 C1667 1.384 . S
C1667 C1666 1.384 . S
C1667 C1669 1.392 . S
C1667 H1677 0.931 . S
C1668 C1664 1.393 . S
C1668 C1669 1.401 . S
C1668 H1678 0.930 . S
C1669 C1667 1.392 . S
C1669 C1668 1.401 . S
C1669 H1679 0.930 . S
C1670 O1648 1.262 . S
C1670 O1649 1.260 . S
C1671 Tb1607 2.833 . S
C1671 O1646 1.251 . S
C1671 O1651 1.256 . S
C1671 C1664 1.500 . S
H1672 C1655 0.930 . S
H1673 C1656 0.931 . S
H1674 C1657 0.930 . S
H1675 C1658 0.930 . S
H1676 C1665 0.930 . S
H1677 C1667 0.931 . S
H1678 C1668 0.930 . S
H1679 C1669 0.930 . S
Tb1680 N1711 2.660 . S
Tb1680 N1718 2.600 . S
Tb1680 O1724 2.546 . S
Tb1680 O1725 2.610 . S
Tb1680 O1727 2.320 . S
Tb1680 O1728 2.552 . S
Tb1680 O1729 2.413 . S
Tb1680 O1731 2.362 . S
Tb1680 O1732 2.421 . S
Tb1680 C1744 2.833 . S
C1681 C1684 1.432 . S
C1681 C1685 1.414 . S
C1681 N1688 1.359 . S
C1682 C1684 1.417 . S
C1682 C1686 1.432 . S
C1682 C1694 1.410 . S
C1683 C1685 1.444 . S
C1683 C1686 1.317 . S
C1683 H1706 0.929 . S
C1684 C1681 1.432 . S
C1684 C1682 1.417 . S
C1684 N1692 1.360 . S
C1685 C1681 1.414 . S
C1685 C1683 1.444 . S
C1685 C1690 1.385 . S
C1686 C1682 1.432 . S
C1686 C1683 1.317 . S
C1686 H1698 0.930 . S
C1687 C1689 1.392 . S
C1687 C1690 1.370 . S
C1687 H1699 0.931 . S
N1688 C1681 1.359 . S
N1688 C1689 1.327 . S
N1688 Tb1691 2.600 . S
C1689 C1687 1.392 . S
C1689 N1688 1.327 . S
C1689 H1696 0.930 . S
C1690 C1685 1.385 . S
C1690 C1687 1.370 . S
C1690 H1709 0.930 . S
Tb1691 N1688 2.600 . S
Tb1691 N1692 2.660 . S
Tb1691 O1725 2.362 . S
Tb1691 O1726 2.421 . S
Tb1691 O1730 2.546 1_556 S
Tb1691 O1731 2.610 . S
Tb1691 O1733 2.320 1_556 S
Tb1691 O1734 2.552 1_556 S
Tb1691 O1735 2.413 1_556 S
Tb1691 C1755 2.833 1_556 S
N1692 C1684 1.360 . S
N1692 Tb1691 2.660 . S
N1692 C1693 1.305 . S
C1693 N1692 1.305 . S
C1693 C1695 1.407 . S
C1693 H1700 0.930 . S
C1694 C1682 1.410 . S
C1694 C1695 1.345 . S
C1694 H1702 0.930 . S
C1695 C1693 1.407 . S
C1695 C1694 1.345 . S
C1695 H1697 0.930 . S
H1696 C1689 0.930 . S
H1697 C1695 0.930 . S
H1698 C1686 0.930 . S
H1699 C1687 0.931 . S
H1700 C1693 0.930 . S
H1701 C1715 0.930 . S
H1702 C1694 0.930 . S
H1703 C1721 0.930 . S
H1704 C1712 0.930 . S
H1705 C1719 0.931 . S
H1706 C1683 0.929 . S
H1707 C1713 0.930 . S
H1708 C1746 0.930 . S
H1709 C1690 0.930 . S
H1710 C1745 0.929 . S
N1711 Tb1680 2.660 . S
N1711 C1712 1.305 . S
N1711 C1716 1.360 . S
C1712 H1704 0.930 . S
C1712 N1711 1.305 . S
C1712 C1715 1.407 . S
C1713 H1707 0.930 . S
C1713 C1714 1.410 . S
C1713 C1715 1.345 . S
C1714 C1713 1.410 . S
C1714 C1716 1.417 . S
C1714 C1746 1.432 1_556 S
C1715 H1701 0.930 . S
C1715 C1712 1.407 . S
C1715 C1713 1.345 . S
C1716 N1711 1.360 . S
C1716 C1714 1.417 . S
C1716 C1720 1.432 . S
H1717 C1722 0.930 . S
N1718 Tb1680 2.600 . S
N1718 C1720 1.359 . S
N1718 C1721 1.327 . S
C1719 H1705 0.931 . S
C1719 C1721 1.392 1_554 S
C1719 C1722 1.370 . S
C1720 C1716 1.432 . S
C1720 N1718 1.359 . S
C1720 C1723 1.414 1_556 S
C1721 H1703 0.930 . S
C1721 N1718 1.327 . S
C1721 C1719 1.392 1_556 S
C1722 H1717 0.930 . S
C1722 C1719 1.370 . S
C1722 C1723 1.385 . S
C1723 C1720 1.414 1_554 S
C1723 C1722 1.385 . S
C1723 C1745 1.444 . S
O1724 Tb1680 2.546 . S
O1724 C1744 1.251 . S
O1725 Tb1680 2.610 . S
O1725 Tb1691 2.362 . S
O1725 C1736 1.283 . S
O1726 Tb1691 2.421 . S
O1726 C1743 1.262 . S
O1727 Tb1680 2.320 . S
O1727 C1743 1.260 . S
O1728 Tb1680 2.552 . S
O1728 C1736 1.243 . S
O1729 Tb1680 2.413 . S
O1729 C1744 1.256 . S
O1730 Tb1691 2.546 1_554 S
O1730 C1755 1.251 . S
O1731 Tb1680 2.362 . S
O1731 Tb1691 2.610 . S
O1731 C1747 1.283 1_556 S
O1732 Tb1680 2.421 . S
O1732 C1754 1.262 1_556 S
O1733 Tb1691 2.320 1_554 S
O1733 C1754 1.260 . S
O1734 Tb1691 2.552 1_554 S
O1734 C1747 1.243 . S
O1735 Tb1691 2.413 1_554 S
O1735 C1755 1.256 . S
C1736 O1725 1.283 . S
C1736 O1728 1.243 . S
C1737 C1739 1.382 . S
C1737 C1741 1.393 . S
C1737 C1744 1.500 . S
C1738 C1739 1.400 . S
C1738 C1740 1.384 . S
C1739 C1737 1.382 . S
C1739 C1738 1.400 . S
C1739 H1756 0.930 . S
C1740 C1738 1.384 . S
C1740 C1742 1.392 . S
C1740 H1757 0.931 . S
C1741 C1737 1.393 . S
C1741 C1742 1.401 . S
C1741 H1758 0.930 . S
C1742 C1740 1.392 . S
C1742 C1741 1.401 . S
C1742 H1759 0.930 . S
C1743 O1726 1.262 . S
C1743 O1727 1.260 . S
C1744 Tb1680 2.833 . S
C1744 O1724 1.251 . S
C1744 O1729 1.256 . S
C1744 C1737 1.500 . S
C1745 H1710 0.929 . S
C1745 C1723 1.444 . S
C1745 C1746 1.317 . S
C1746 H1708 0.930 . S
C1746 C1714 1.432 1_554 S
C1746 C1745 1.317 . S
C1747 O1731 1.283 1_554 S
C1747 O1734 1.243 . S
C1748 C1749 1.382 . S
C1748 C1752 1.393 . S
C1748 C1755 1.500 . S
C1749 C1748 1.382 . S
C1749 C1750 1.400 . S
C1749 H1760 0.930 . S
C1750 C1749 1.400 . S
C1750 C1751 1.384 . S
C1751 C1750 1.384 . S
C1751 C1753 1.392 . S
C1751 H1761 0.931 . S
C1752 C1748 1.393 . S
C1752 C1753 1.401 . S
C1752 H1762 0.930 . S
C1753 C1751 1.392 . S
C1753 C1752 1.401 . S
C1753 H1763 0.930 . S
C1754 O1732 1.262 1_554 S
C1754 O1733 1.260 . S
C1755 Tb1691 2.833 1_554 S
C1755 O1730 1.251 . S
C1755 O1735 1.256 . S
C1755 C1748 1.500 . S
H1756 C1739 0.930 . S
H1757 C1740 0.931 . S
H1758 C1741 0.930 . S
H1759 C1742 0.930 . S
H1760 C1749 0.930 . S
H1761 C1751 0.931 . S
H1762 C1752 0.930 . S
H1763 C1753 0.930 . S
Tb1764 N1795 2.660 . S
Tb1764 N1802 2.600 . S
Tb1764 O1808 2.546 . S
Tb1764 O1809 2.610 . S
Tb1764 O1811 2.320 . S
Tb1764 O1812 2.552 . S
Tb1764 O1813 2.413 . S
Tb1764 O1815 2.362 . S
Tb1764 O1816 2.421 . S
Tb1764 C1828 2.833 . S
C1765 C1768 1.432 . S
C1765 C1769 1.414 . S
C1765 N1772 1.359 . S
C1766 C1768 1.417 . S
C1766 C1770 1.432 . S
C1766 C1778 1.410 . S
C1767 C1769 1.444 . S
C1767 C1770 1.317 . S
C1767 H1790 0.929 . S
C1768 C1765 1.432 . S
C1768 C1766 1.417 . S
C1768 N1776 1.360 . S
C1769 C1765 1.414 . S
C1769 C1767 1.444 . S
C1769 C1774 1.385 . S
C1770 C1766 1.432 . S
C1770 C1767 1.317 . S
C1770 H1782 0.930 . S
C1771 C1773 1.392 . S
C1771 C1774 1.370 . S
C1771 H1783 0.931 . S
N1772 C1765 1.359 . S
N1772 C1773 1.327 . S
N1772 Tb1775 2.600 . S
C1773 C1771 1.392 . S
C1773 N1772 1.327 . S
C1773 H1780 0.930 . S
C1774 C1769 1.385 . S
C1774 C1771 1.370 . S
C1774 H1793 0.930 . S
Tb1775 N1772 2.600 . S
Tb1775 N1776 2.660 . S
Tb1775 O1809 2.362 . S
Tb1775 O1810 2.421 . S
Tb1775 O1814 2.546 1_554 S
Tb1775 O1815 2.610 . S
Tb1775 O1817 2.320 1_554 S
Tb1775 O1818 2.552 1_554 S
Tb1775 O1819 2.413 1_554 S
Tb1775 C1839 2.833 1_554 S
N1776 C1768 1.360 . S
N1776 Tb1775 2.660 . S
N1776 C1777 1.305 . S
C1777 N1776 1.305 . S
C1777 C1779 1.407 . S
C1777 H1784 0.930 . S
C1778 C1766 1.410 . S
C1778 C1779 1.345 . S
C1778 H1786 0.930 . S
C1779 C1777 1.407 . S
C1779 C1778 1.345 . S
C1779 H1781 0.930 . S
H1780 C1773 0.930 . S
H1781 C1779 0.930 . S
H1782 C1770 0.930 . S
H1783 C1771 0.931 . S
H1784 C1777 0.930 . S
H1785 C1799 0.930 . S
H1786 C1778 0.930 . S
H1787 C1805 0.930 . S
H1788 C1796 0.930 . S
H1789 C1803 0.931 . S
H1790 C1767 0.929 . S
H1791 C1797 0.930 . S
H1792 C1830 0.930 . S
H1793 C1774 0.930 . S
H1794 C1829 0.929 . S
N1795 Tb1764 2.660 . S
N1795 C1796 1.305 . S
N1795 C1800 1.360 . S
C1796 H1788 0.930 . S
C1796 N1795 1.305 . S
C1796 C1799 1.407 . S
C1797 H1791 0.930 . S
C1797 C1798 1.410 . S
C1797 C1799 1.345 . S
C1798 C1797 1.410 . S
C1798 C1800 1.417 . S
C1798 C1830 1.432 1_554 S
C1799 H1785 0.930 . S
C1799 C1796 1.407 . S
C1799 C1797 1.345 . S
C1800 N1795 1.360 . S
C1800 C1798 1.417 . S
C1800 C1804 1.432 . S
H1801 C1806 0.930 . S
N1802 Tb1764 2.600 . S
N1802 C1804 1.359 . S
N1802 C1805 1.327 . S
C1803 H1789 0.931 . S
C1803 C1805 1.392 1_556 S
C1803 C1806 1.370 . S
C1804 C1800 1.432 . S
C1804 N1802 1.359 . S
C1804 C1807 1.414 1_554 S
C1805 H1787 0.930 . S
C1805 N1802 1.327 . S
C1805 C1803 1.392 1_554 S
C1806 H1801 0.930 . S
C1806 C1803 1.370 . S
C1806 C1807 1.385 . S
C1807 C1804 1.414 1_556 S
C1807 C1806 1.385 . S
C1807 C1829 1.444 . S
O1808 Tb1764 2.546 . S
O1808 C1828 1.251 . S
O1809 Tb1764 2.610 . S
O1809 Tb1775 2.362 . S
O1809 C1820 1.283 . S
O1810 Tb1775 2.421 . S
O1810 C1827 1.262 . S
O1811 Tb1764 2.320 . S
O1811 C1827 1.260 . S
O1812 Tb1764 2.552 . S
O1812 C1820 1.243 . S
O1813 Tb1764 2.413 . S
O1813 C1828 1.256 . S
O1814 Tb1775 2.546 1_556 S
O1814 C1839 1.251 . S
O1815 Tb1764 2.362 . S
O1815 Tb1775 2.610 . S
O1815 C1831 1.283 1_554 S
O1816 Tb1764 2.421 . S
O1816 C1838 1.262 1_554 S
O1817 Tb1775 2.320 1_556 S
O1817 C1838 1.260 . S
O1818 Tb1775 2.552 1_556 S
O1818 C1831 1.243 . S
O1819 Tb1775 2.413 1_556 S
O1819 C1839 1.256 . S
C1820 O1809 1.283 . S
C1820 O1812 1.243 . S
C1821 C1823 1.382 . S
C1821 C1825 1.393 . S
C1821 C1828 1.500 . S
C1822 C1823 1.400 . S
C1822 C1824 1.384 . S
C1823 C1821 1.382 . S
C1823 C1822 1.400 . S
C1823 H1840 0.930 . S
C1824 C1822 1.384 . S
C1824 C1826 1.392 . S
C1824 H1841 0.931 . S
C1825 C1821 1.393 . S
C1825 C1826 1.401 . S
C1825 H1842 0.930 . S
C1826 C1824 1.392 . S
C1826 C1825 1.401 . S
C1826 H1843 0.930 . S
C1827 O1810 1.262 . S
C1827 O1811 1.260 . S
C1828 Tb1764 2.833 . S
C1828 O1808 1.251 . S
C1828 O1813 1.256 . S
C1828 C1821 1.500 . S
C1829 H1794 0.929 . S
C1829 C1807 1.444 . S
C1829 C1830 1.317 . S
C1830 H1792 0.930 . S
C1830 C1798 1.432 1_556 S
C1830 C1829 1.317 . S
C1831 O1815 1.283 1_556 S
C1831 O1818 1.243 . S
C1832 C1833 1.382 . S
C1832 C1836 1.393 . S
C1832 C1839 1.500 . S
C1833 C1832 1.382 . S
C1833 C1834 1.400 . S
C1833 H1844 0.930 . S
C1834 C1833 1.400 . S
C1834 C1835 1.384 . S
C1835 C1834 1.384 . S
C1835 C1837 1.392 . S
C1835 H1845 0.931 . S
C1836 C1832 1.393 . S
C1836 C1837 1.401 . S
C1836 H1846 0.930 . S
C1837 C1835 1.392 . S
C1837 C1836 1.401 . S
C1837 H1847 0.930 . S
C1838 O1816 1.262 1_556 S
C1838 O1817 1.260 . S
C1839 Tb1775 2.833 1_556 S
C1839 O1814 1.251 . S
C1839 O1819 1.256 . S
C1839 C1832 1.500 . S
H1840 C1823 0.930 . S
H1841 C1824 0.931 . S
H1842 C1825 0.930 . S
H1843 C1826 0.930 . S
H1844 C1833 0.930 . S
H1845 C1835 0.931 . S
H1846 C1836 0.930 . S
H1847 C1837 0.930 . S
Tb1848 N1879 2.660 . S
Tb1848 N1886 2.600 . S
Tb1848 O1892 2.546 . S
Tb1848 O1893 2.610 . S
Tb1848 O1895 2.320 . S
Tb1848 O1896 2.552 . S
Tb1848 O1897 2.413 . S
Tb1848 O1899 2.362 . S
Tb1848 O1900 2.421 . S
Tb1848 C1912 2.833 . S
C1849 C1852 1.432 . S
C1849 C1853 1.414 . S
C1849 N1856 1.359 . S
C1850 C1852 1.417 . S
C1850 C1854 1.432 . S
C1850 C1862 1.410 . S
C1851 C1853 1.444 . S
C1851 C1854 1.317 . S
C1851 H1874 0.929 . S
C1852 C1849 1.432 . S
C1852 C1850 1.417 . S
C1852 N1860 1.360 . S
C1853 C1849 1.414 . S
C1853 C1851 1.444 . S
C1853 C1858 1.385 . S
C1854 C1850 1.432 . S
C1854 C1851 1.317 . S
C1854 H1866 0.930 . S
C1855 C1857 1.392 . S
C1855 C1858 1.370 . S
C1855 H1867 0.931 . S
N1856 C1849 1.359 . S
N1856 C1857 1.327 . S
N1856 Tb1859 2.600 . S
C1857 C1855 1.392 . S
C1857 N1856 1.327 . S
C1857 H1864 0.930 . S
C1858 C1853 1.385 . S
C1858 C1855 1.370 . S
C1858 H1877 0.930 . S
Tb1859 N1856 2.600 . S
Tb1859 N1860 2.660 . S
Tb1859 O1893 2.362 . S
Tb1859 O1894 2.421 . S
Tb1859 O1898 2.546 . S
Tb1859 O1899 2.610 . S
Tb1859 O1901 2.320 . S
Tb1859 O1902 2.552 . S
Tb1859 O1903 2.413 . S
Tb1859 C1923 2.833 . S
N1860 C1852 1.360 . S
N1860 Tb1859 2.660 . S
N1860 C1861 1.305 . S
C1861 N1860 1.305 . S
C1861 C1863 1.407 . S
C1861 H1868 0.930 . S
C1862 C1850 1.410 . S
C1862 C1863 1.345 . S
C1862 H1870 0.930 . S
C1863 C1861 1.407 . S
C1863 C1862 1.345 . S
C1863 H1865 0.930 . S
H1864 C1857 0.930 . S
H1865 C1863 0.930 . S
H1866 C1854 0.930 . S
H1867 C1855 0.931 . S
H1868 C1861 0.930 . S
H1869 C1883 0.930 . S
H1870 C1862 0.930 . S
H1871 C1889 0.930 . S
H1872 C1880 0.930 . S
H1873 C1887 0.931 . S
H1874 C1851 0.929 . S
H1875 C1881 0.930 . S
H1876 C1914 0.930 . S
H1877 C1858 0.930 . S
H1878 C1913 0.929 . S
N1879 Tb1848 2.660 . S
N1879 C1880 1.305 . S
N1879 C1884 1.360 . S
C1880 H1872 0.930 . S
C1880 N1879 1.305 . S
C1880 C1883 1.407 . S
C1881 H1875 0.930 . S
C1881 C1882 1.410 . S
C1881 C1883 1.345 . S
C1882 C1881 1.410 . S
C1882 C1884 1.417 . S
C1882 C1914 1.432 . S
C1883 H1869 0.930 . S
C1883 C1880 1.407 . S
C1883 C1881 1.345 . S
C1884 N1879 1.360 . S
C1884 C1882 1.417 . S
C1884 C1888 1.432 . S
H1885 C1890 0.930 . S
N1886 Tb1848 2.600 . S
N1886 C1888 1.359 . S
N1886 C1889 1.327 . S
C1887 H1873 0.931 . S
C1887 C1889 1.392 . S
C1887 C1890 1.370 . S
C1888 C1884 1.432 . S
C1888 N1886 1.359 . S
C1888 C1891 1.414 . S
C1889 H1871 0.930 . S
C1889 N1886 1.327 . S
C1889 C1887 1.392 . S
C1890 H1885 0.930 . S
C1890 C1887 1.370 . S
C1890 C1891 1.385 . S
C1891 C1888 1.414 . S
C1891 C1890 1.385 . S
C1891 C1913 1.444 . S
O1892 Tb1848 2.546 . S
O1892 C1912 1.251 . S
O1893 Tb1848 2.610 . S
O1893 Tb1859 2.362 . S
O1893 C1904 1.283 . S
O1894 Tb1859 2.421 . S
O1894 C1911 1.262 . S
O1895 Tb1848 2.320 . S
O1895 C1911 1.260 . S
O1896 Tb1848 2.552 . S
O1896 C1904 1.243 . S
O1897 Tb1848 2.413 . S
O1897 C1912 1.256 . S
O1898 Tb1859 2.546 . S
O1898 C1923 1.251 . S
O1899 Tb1848 2.362 . S
O1899 Tb1859 2.610 . S
O1899 C1915 1.283 . S
O1900 Tb1848 2.421 . S
O1900 C1922 1.262 . S
O1901 Tb1859 2.320 . S
O1901 C1922 1.260 . S
O1902 Tb1859 2.552 . S
O1902 C1915 1.243 . S
O1903 Tb1859 2.413 . S
O1903 C1923 1.256 . S
C1904 O1893 1.283 . S
C1904 O1896 1.243 . S
C1905 C1907 1.382 . S
C1905 C1909 1.393 . S
C1905 C1912 1.500 . S
C1906 C1907 1.400 . S
C1906 C1908 1.384 . S
C1907 C1905 1.382 . S
C1907 C1906 1.400 . S
C1907 H1924 0.930 . S
C1908 C1906 1.384 . S
C1908 C1910 1.392 . S
C1908 H1925 0.931 . S
C1909 C1905 1.393 . S
C1909 C1910 1.401 . S
C1909 H1926 0.930 . S
C1910 C1908 1.392 . S
C1910 C1909 1.401 . S
C1910 H1927 0.930 . S
C1911 O1894 1.262 . S
C1911 O1895 1.260 . S
C1912 Tb1848 2.833 . S
C1912 O1892 1.251 . S
C1912 O1897 1.256 . S
C1912 C1905 1.500 . S
C1913 H1878 0.929 . S
C1913 C1891 1.444 . S
C1913 C1914 1.317 . S
C1914 H1876 0.930 . S
C1914 C1882 1.432 . S
C1914 C1913 1.317 . S
C1915 O1899 1.283 . S
C1915 O1902 1.243 . S
C1916 C1917 1.382 . S
C1916 C1920 1.393 . S
C1916 C1923 1.500 . S
C1917 C1916 1.382 . S
C1917 C1918 1.400 . S
C1917 H1928 0.930 . S
C1918 C1917 1.400 . S
C1918 C1919 1.384 . S
C1919 C1918 1.384 . S
C1919 C1921 1.392 . S
C1919 H1929 0.931 . S
C1920 C1916 1.393 . S
C1920 C1921 1.401 . S
C1920 H1930 0.930 . S
C1921 C1919 1.392 . S
C1921 C1920 1.401 . S
C1921 H1931 0.930 . S
C1922 O1900 1.262 . S
C1922 O1901 1.260 . S
C1923 Tb1859 2.833 . S
C1923 O1898 1.251 . S
C1923 O1903 1.256 . S
C1923 C1916 1.500 . S
H1924 C1907 0.930 . S
H1925 C1908 0.931 . S
H1926 C1909 0.930 . S
H1927 C1910 0.930 . S
H1928 C1917 0.930 . S
H1929 C1919 0.931 . S
H1930 C1920 0.930 . S
H1931 C1921 0.930 . S
Tb1932 N1963 2.660 . S
Tb1932 N1970 2.600 . S
Tb1932 O1976 2.546 . S
Tb1932 O1977 2.610 . S
Tb1932 O1979 2.320 . S
Tb1932 O1980 2.552 . S
Tb1932 O1981 2.413 . S
Tb1932 O1983 2.362 . S
Tb1932 O1984 2.421 . S
Tb1932 C1996 2.833 . S
C1933 C1936 1.432 . S
C1933 C1937 1.414 . S
C1933 N1940 1.359 . S
C1934 C1936 1.417 . S
C1934 C1938 1.432 . S
C1934 C1946 1.410 . S
C1935 C1937 1.444 . S
C1935 C1938 1.317 . S
C1935 H1958 0.929 . S
C1936 C1933 1.432 . S
C1936 C1934 1.417 . S
C1936 N1944 1.360 . S
C1937 C1933 1.414 . S
C1937 C1935 1.444 . S
C1937 C1942 1.385 . S
C1938 C1934 1.432 . S
C1938 C1935 1.317 . S
C1938 H1950 0.930 . S
C1939 C1941 1.392 . S
C1939 C1942 1.370 . S
C1939 H1951 0.931 . S
N1940 C1933 1.359 . S
N1940 C1941 1.327 . S
N1940 Tb1943 2.600 . S
C1941 C1939 1.392 . S
C1941 N1940 1.327 . S
C1941 H1948 0.930 . S
C1942 C1937 1.385 . S
C1942 C1939 1.370 . S
C1942 H1961 0.930 . S
Tb1943 N1940 2.600 . S
Tb1943 N1944 2.660 . S
Tb1943 O1977 2.362 . S
Tb1943 O1978 2.421 . S
Tb1943 O1982 2.546 . S
Tb1943 O1983 2.610 . S
Tb1943 O1985 2.320 . S
Tb1943 O1986 2.552 . S
Tb1943 O1987 2.413 . S
Tb1943 C2007 2.833 . S
N1944 C1936 1.360 . S
N1944 Tb1943 2.660 . S
N1944 C1945 1.305 . S
C1945 N1944 1.305 . S
C1945 C1947 1.407 . S
C1945 H1952 0.930 . S
C1946 C1934 1.410 . S
C1946 C1947 1.345 . S
C1946 H1954 0.930 . S
C1947 C1945 1.407 . S
C1947 C1946 1.345 . S
C1947 H1949 0.930 . S
H1948 C1941 0.930 . S
H1949 C1947 0.930 . S
H1950 C1938 0.930 . S
H1951 C1939 0.931 . S
H1952 C1945 0.930 . S
H1953 C1967 0.930 . S
H1954 C1946 0.930 . S
H1955 C1973 0.930 . S
H1956 C1964 0.930 . S
H1957 C1971 0.931 . S
H1958 C1935 0.929 . S
H1959 C1965 0.930 . S
H1960 C1998 0.930 . S
H1961 C1942 0.930 . S
H1962 C1997 0.929 . S
N1963 Tb1932 2.660 . S
N1963 C1964 1.305 . S
N1963 C1968 1.360 . S
C1964 H1956 0.930 . S
C1964 N1963 1.305 . S
C1964 C1967 1.407 . S
C1965 H1959 0.930 . S
C1965 C1966 1.410 . S
C1965 C1967 1.345 . S
C1966 C1965 1.410 . S
C1966 C1968 1.417 . S
C1966 C1998 1.432 . S
C1967 H1953 0.930 . S
C1967 C1964 1.407 . S
C1967 C1965 1.345 . S
C1968 N1963 1.360 . S
C1968 C1966 1.417 . S
C1968 C1972 1.432 . S
H1969 C1974 0.930 . S
N1970 Tb1932 2.600 . S
N1970 C1972 1.359 . S
N1970 C1973 1.327 . S
C1971 H1957 0.931 . S
C1971 C1973 1.392 . S
C1971 C1974 1.370 . S
C1972 C1968 1.432 . S
C1972 N1970 1.359 . S
C1972 C1975 1.414 . S
C1973 H1955 0.930 . S
C1973 N1970 1.327 . S
C1973 C1971 1.392 . S
C1974 H1969 0.930 . S
C1974 C1971 1.370 . S
C1974 C1975 1.385 . S
C1975 C1972 1.414 . S
C1975 C1974 1.385 . S
C1975 C1997 1.444 . S
O1976 Tb1932 2.546 . S
O1976 C1996 1.251 . S
O1977 Tb1932 2.610 . S
O1977 Tb1943 2.362 . S
O1977 C1988 1.283 . S
O1978 Tb1943 2.421 . S
O1978 C1995 1.262 . S
O1979 Tb1932 2.320 . S
O1979 C1995 1.260 . S
O1980 Tb1932 2.552 . S
O1980 C1988 1.243 . S
O1981 Tb1932 2.413 . S
O1981 C1996 1.256 . S
O1982 Tb1943 2.546 . S
O1982 C2007 1.251 . S
O1983 Tb1932 2.362 . S
O1983 Tb1943 2.610 . S
O1983 C1999 1.283 . S
O1984 Tb1932 2.421 . S
O1984 C2006 1.262 . S
O1985 Tb1943 2.320 . S
O1985 C2006 1.260 . S
O1986 Tb1943 2.552 . S
O1986 C1999 1.243 . S
O1987 Tb1943 2.413 . S
O1987 C2007 1.256 . S
C1988 O1977 1.283 . S
C1988 O1980 1.243 . S
C1989 C1991 1.382 . S
C1989 C1993 1.393 . S
C1989 C1996 1.500 . S
C1990 C1991 1.400 . S
C1990 C1992 1.384 . S
C1991 C1989 1.382 . S
C1991 C1990 1.400 . S
C1991 H2008 0.930 . S
C1992 C1990 1.384 . S
C1992 C1994 1.392 . S
C1992 H2009 0.931 . S
C1993 C1989 1.393 . S
C1993 C1994 1.401 . S
C1993 H2010 0.930 . S
C1994 C1992 1.392 . S
C1994 C1993 1.401 . S
C1994 H2011 0.930 . S
C1995 O1978 1.262 . S
C1995 O1979 1.260 . S
C1996 Tb1932 2.833 . S
C1996 O1976 1.251 . S
C1996 O1981 1.256 . S
C1996 C1989 1.500 . S
C1997 H1962 0.929 . S
C1997 C1975 1.444 . S
C1997 C1998 1.317 . S
C1998 H1960 0.930 . S
C1998 C1966 1.432 . S
C1998 C1997 1.317 . S
C1999 O1983 1.283 . S
C1999 O1986 1.243 . S
C2000 C2001 1.382 . S
C2000 C2004 1.393 . S
C2000 C2007 1.500 . S
C2001 C2000 1.382 . S
C2001 C2002 1.400 . S
C2001 H2012 0.930 . S
C2002 C2001 1.400 . S
C2002 C2003 1.384 . S
C2003 C2002 1.384 . S
C2003 C2005 1.392 . S
C2003 H2013 0.931 . S
C2004 C2000 1.393 . S
C2004 C2005 1.401 . S
C2004 H2014 0.930 . S
C2005 C2003 1.392 . S
C2005 C2004 1.401 . S
C2005 H2015 0.930 . S
C2006 O1984 1.262 . S
C2006 O1985 1.260 . S
C2007 Tb1943 2.833 . S
C2007 O1982 1.251 . S
C2007 O1987 1.256 . S
C2007 C2000 1.500 . S
H2008 C1991 0.930 . S
H2009 C1992 0.931 . S
H2010 C1993 0.930 . S
H2011 C1994 0.930 . S
H2012 C2001 0.930 . S
H2013 C2003 0.931 . S
H2014 C2004 0.930 . S
H2015 C2005 0.930 . S
H2016 C2022 0.930 . S
H2017 C2026 0.930 . S
H2018 C2031 0.929 . S
H2019 C2029 0.929 . S
H2020 C2024 0.929 . S
H2021 C2030 0.929 . S
C2022 H2016 0.930 . S
C2022 C2023 1.367 . S
C2022 C2030 1.378 . S
C2023 C2022 1.367 . S
C2023 C2031 1.433 . S
C2024 H2020 0.929 . S
C2024 C2026 1.378 . S
C2024 C2028 1.350 . S
C2025 C2028 1.463 . S
C2025 C2030 1.350 . S
C2025 N2033 1.427 . S
C2026 H2017 0.930 . S
C2026 C2024 1.378 . S
C2026 C2027 1.367 . S
C2027 C2026 1.367 . S
C2027 C2029 1.433 . S
C2028 C2024 1.350 . S
C2028 C2025 1.463 . S
C2028 N2032 1.427 . S
C2029 H2019 0.929 . S
C2029 C2027 1.433 . S
C2029 N2032 1.384 . S
C2030 H2021 0.929 . S
C2030 C2022 1.378 . S
C2030 C2025 1.350 . S
C2031 H2018 0.929 . S
C2031 C2023 1.433 . S
C2031 N2033 1.384 . S
N2032 C2028 1.427 . S
N2032 C2029 1.384 . S
N2033 C2025 1.427 . S
N2033 C2031 1.384 . S
H2034 C2040 0.930 . S
H2035 C2044 0.930 . S
H2036 C2049 0.929 . S
H2037 C2047 0.929 . S
H2038 C2042 0.929 . S
H2039 C2048 0.929 . S
C2040 H2034 0.930 . S
C2040 C2041 1.367 . S
C2040 C2048 1.378 . S
C2041 C2040 1.367 . S
C2041 C2049 1.433 . S
C2042 H2038 0.929 . S
C2042 C2044 1.378 . S
C2042 C2046 1.350 . S
C2043 C2046 1.463 . S
C2043 C2048 1.350 . S
C2043 N2051 1.427 . S
C2044 H2035 0.930 . S
C2044 C2042 1.378 . S
C2044 C2045 1.367 . S
C2045 C2044 1.367 . S
C2045 C2047 1.433 . S
C2046 C2042 1.350 . S
C2046 C2043 1.463 . S
C2046 N2050 1.427 . S
C2047 H2037 0.929 . S
C2047 C2045 1.433 . S
C2047 N2050 1.384 . S
C2048 H2039 0.929 . S
C2048 C2040 1.378 . S
C2048 C2043 1.350 . S
C2049 H2036 0.929 . S
C2049 C2041 1.433 . S
C2049 N2051 1.384 . S
N2050 C2046 1.427 . S
N2050 C2047 1.384 . S
N2051 C2043 1.427 . S
N2051 C2049 1.384 . S
H2052 C2058 0.930 . S
H2053 C2062 0.930 . S
H2054 C2067 0.929 . S
H2055 C2065 0.929 . S
H2056 C2060 0.929 . S
H2057 C2066 0.929 . S
C2058 H2052 0.930 . S
C2058 C2059 1.367 . S
C2058 C2066 1.378 . S
C2059 C2058 1.367 . S
C2059 C2067 1.433 . S
C2060 H2056 0.929 . S
C2060 C2062 1.378 . S
C2060 C2064 1.350 . S
C2061 C2064 1.463 . S
C2061 C2066 1.350 . S
C2061 N2069 1.427 . S
C2062 H2053 0.930 . S
C2062 C2060 1.378 . S
C2062 C2063 1.367 . S
C2063 C2062 1.367 . S
C2063 C2065 1.433 . S
C2064 C2060 1.350 . S
C2064 C2061 1.463 . S
C2064 N2068 1.427 . S
C2065 H2055 0.929 . S
C2065 C2063 1.433 . S
C2065 N2068 1.384 . S
C2066 H2057 0.929 . S
C2066 C2058 1.378 . S
C2066 C2061 1.350 . S
C2067 H2054 0.929 . S
C2067 C2059 1.433 . S
C2067 N2069 1.384 . S
N2068 C2064 1.427 . S
N2068 C2065 1.384 . S
N2069 C2061 1.427 . S
N2069 C2067 1.384 . S
H2070 C2076 0.930 . S
H2071 C2080 0.930 . S
H2072 C2085 0.929 . S
H2073 C2083 0.929 . S
H2074 C2078 0.929 . S
H2075 C2084 0.929 . S
C2076 H2070 0.930 . S
C2076 C2077 1.367 . S
C2076 C2084 1.378 . S
C2077 C2076 1.367 . S
C2077 C2085 1.433 . S
C2078 H2074 0.929 . S
C2078 C2080 1.378 . S
C2078 C2082 1.350 . S
C2079 C2082 1.463 . S
C2079 C2084 1.350 . S
C2079 N2087 1.427 . S
C2080 H2071 0.930 . S
C2080 C2078 1.378 . S
C2080 C2081 1.367 . S
C2081 C2080 1.367 . S
C2081 C2083 1.433 . S
C2082 C2078 1.350 . S
C2082 C2079 1.463 . S
C2082 N2086 1.427 . S
C2083 H2073 0.929 . S
C2083 C2081 1.433 . S
C2083 N2086 1.384 . S
C2084 H2075 0.929 . S
C2084 C2076 1.378 . S
C2084 C2079 1.350 . S
C2085 H2072 0.929 . S
C2085 C2077 1.433 . S
C2085 N2087 1.384 . S
N2086 C2082 1.427 . S
N2086 C2083 1.384 . S
N2087 C2079 1.427 . S
N2087 C2085 1.384 . S
H2088 C2094 0.930 . S
H2089 C2098 0.930 . S
H2090 C2103 0.929 . S
H2091 C2101 0.929 . S
H2092 C2096 0.929 . S
H2093 C2102 0.929 . S
C2094 H2088 0.930 . S
C2094 C2095 1.367 . S
C2094 C2102 1.378 . S
C2095 C2094 1.367 . S
C2095 C2103 1.433 . S
C2096 H2092 0.929 . S
C2096 C2098 1.378 . S
C2096 C2100 1.350 . S
C2097 C2100 1.463 . S
C2097 C2102 1.350 . S
C2097 N2105 1.427 . S
C2098 H2089 0.930 . S
C2098 C2096 1.378 . S
C2098 C2099 1.367 . S
C2099 C2098 1.367 . S
C2099 C2101 1.433 . S
C2100 C2096 1.350 . S
C2100 C2097 1.463 . S
C2100 N2104 1.427 . S
C2101 H2091 0.929 . S
C2101 C2099 1.433 . S
C2101 N2104 1.384 . S
C2102 H2093 0.929 . S
C2102 C2094 1.378 . S
C2102 C2097 1.350 . S
C2103 H2090 0.929 . S
C2103 C2095 1.433 . S
C2103 N2105 1.384 . S
N2104 C2100 1.427 . S
N2104 C2101 1.384 . S
N2105 C2097 1.427 . S
N2105 C2103 1.384 . S
H2106 C2112 0.930 . S
H2107 C2116 0.930 . S
H2108 C2121 0.929 . S
H2109 C2119 0.929 . S
H2110 C2114 0.929 . S
H2111 C2120 0.929 . S
C2112 H2106 0.930 . S
C2112 C2113 1.367 . S
C2112 C2120 1.378 . S
C2113 C2112 1.367 . S
C2113 C2121 1.433 . S
C2114 H2110 0.929 . S
C2114 C2116 1.378 . S
C2114 C2118 1.350 . S
C2115 C2118 1.463 . S
C2115 C2120 1.350 . S
C2115 N2123 1.427 . S
C2116 H2107 0.930 . S
C2116 C2114 1.378 . S
C2116 C2117 1.367 . S
C2117 C2116 1.367 . S
C2117 C2119 1.433 . S
C2118 C2114 1.350 . S
C2118 C2115 1.463 . S
C2118 N2122 1.427 . S
C2119 H2109 0.929 . S
C2119 C2117 1.433 . S
C2119 N2122 1.384 . S
C2120 H2111 0.929 . S
C2120 C2112 1.378 . S
C2120 C2115 1.350 . S
C2121 H2108 0.929 . S
C2121 C2113 1.433 . S
C2121 N2123 1.384 . S
N2122 C2118 1.427 . S
N2122 C2119 1.384 . S
N2123 C2115 1.427 . S
N2123 C2121 1.384 . S
H2124 C2130 0.930 . S
H2125 C2134 0.930 . S
H2126 C2139 0.929 . S
H2127 C2137 0.929 . S
H2128 C2132 0.929 . S
H2129 C2138 0.929 . S
C2130 H2124 0.930 . S
C2130 C2131 1.367 . S
C2130 C2138 1.378 . S
C2131 C2130 1.367 . S
C2131 C2139 1.433 . S
C2132 H2128 0.929 . S
C2132 C2134 1.378 . S
C2132 C2136 1.350 . S
C2133 C2136 1.463 . S
C2133 C2138 1.350 . S
C2133 N2141 1.427 . S
C2134 H2125 0.930 . S
C2134 C2132 1.378 . S
C2134 C2135 1.367 . S
C2135 C2134 1.367 . S
C2135 C2137 1.433 . S
C2136 C2132 1.350 . S
C2136 C2133 1.463 . S
C2136 N2140 1.427 . S
C2137 H2127 0.929 . S
C2137 C2135 1.433 . S
C2137 N2140 1.384 . S
C2138 H2129 0.929 . S
C2138 C2130 1.378 . S
C2138 C2133 1.350 . S
C2139 H2126 0.929 . S
C2139 C2131 1.433 . S
C2139 N2141 1.384 . S
N2140 C2136 1.427 . S
N2140 C2137 1.384 . S
N2141 C2133 1.427 . S
N2141 C2139 1.384 . S
H2142 C2148 0.930 . S
H2143 C2152 0.930 . S
H2144 C2157 0.929 . S
H2145 C2155 0.929 . S
H2146 C2150 0.929 . S
H2147 C2156 0.929 . S
C2148 H2142 0.930 . S
C2148 C2149 1.367 . S
C2148 C2156 1.378 . S
C2149 C2148 1.367 . S
C2149 C2157 1.433 . S
C2150 H2146 0.929 . S
C2150 C2152 1.378 . S
C2150 C2154 1.350 . S
C2151 C2154 1.463 . S
C2151 C2156 1.350 . S
C2151 N2159 1.427 . S
C2152 H2143 0.930 . S
C2152 C2150 1.378 . S
C2152 C2153 1.367 . S
C2153 C2152 1.367 . S
C2153 C2155 1.433 . S
C2154 C2150 1.350 . S
C2154 C2151 1.463 . S
C2154 N2158 1.427 . S
C2155 H2145 0.929 . S
C2155 C2153 1.433 . S
C2155 N2158 1.384 . S
C2156 H2147 0.929 . S
C2156 C2148 1.378 . S
C2156 C2151 1.350 . S
C2157 H2144 0.929 . S
C2157 C2149 1.433 . S
C2157 N2159 1.384 . S
N2158 C2154 1.427 . S
N2158 C2155 1.384 . S
N2159 C2151 1.427 . S
N2159 C2157 1.384 . S
H2160 C2166 0.930 . S
H2161 C2170 0.930 . S
H2162 C2175 0.929 . S
H2163 C2173 0.929 . S
H2164 C2168 0.929 . S
H2165 C2174 0.929 . S
C2166 H2160 0.930 . S
C2166 C2167 1.367 . S
C2166 C2174 1.378 . S
C2167 C2166 1.367 . S
C2167 C2175 1.433 . S
C2168 H2164 0.929 . S
C2168 C2170 1.378 . S
C2168 C2172 1.350 . S
C2169 C2172 1.463 . S
C2169 C2174 1.350 . S
C2169 N2177 1.427 . S
C2170 H2161 0.930 . S
C2170 C2168 1.378 . S
C2170 C2171 1.367 . S
C2171 C2170 1.367 . S
C2171 C2173 1.433 . S
C2172 C2168 1.350 . S
C2172 C2169 1.463 . S
C2172 N2176 1.427 . S
C2173 H2163 0.929 . S
C2173 C2171 1.433 . S
C2173 N2176 1.384 . S
C2174 H2165 0.929 . S
C2174 C2166 1.378 . S
C2174 C2169 1.350 . S
C2175 H2162 0.929 . S
C2175 C2167 1.433 . S
C2175 N2177 1.384 . S
N2176 C2172 1.427 . S
N2176 C2173 1.384 . S
N2177 C2169 1.427 . S
N2177 C2175 1.384 . S
H2178 C2184 0.930 . S
H2179 C2188 0.930 . S
H2180 C2193 0.929 . S
H2181 C2191 0.929 . S
H2182 C2186 0.929 . S
H2183 C2192 0.929 . S
C2184 H2178 0.930 . S
C2184 C2185 1.367 . S
C2184 C2192 1.378 . S
C2185 C2184 1.367 . S
C2185 C2193 1.433 . S
C2186 H2182 0.929 . S
C2186 C2188 1.378 . S
C2186 C2190 1.350 . S
C2187 C2190 1.463 . S
C2187 C2192 1.350 . S
C2187 N2195 1.427 . S
C2188 H2179 0.930 . S
C2188 C2186 1.378 . S
C2188 C2189 1.367 . S
C2189 C2188 1.367 . S
C2189 C2191 1.433 . S
C2190 C2186 1.350 . S
C2190 C2187 1.463 . S
C2190 N2194 1.427 . S
C2191 H2181 0.929 . S
C2191 C2189 1.433 . S
C2191 N2194 1.384 . S
C2192 H2183 0.929 . S
C2192 C2184 1.378 . S
C2192 C2187 1.350 . S
C2193 H2180 0.929 . S
C2193 C2185 1.433 . S
C2193 N2195 1.384 . S
N2194 C2190 1.427 . S
N2194 C2191 1.384 . S
N2195 C2187 1.427 . S
N2195 C2193 1.384 . S
H2196 C2202 0.930 . S
H2197 C2206 0.930 . S
H2198 C2211 0.929 . S
H2199 C2209 0.929 . S
H2200 C2204 0.929 . S
H2201 C2210 0.929 . S
C2202 H2196 0.930 . S
C2202 C2203 1.367 . S
C2202 C2210 1.378 . S
C2203 C2202 1.367 . S
C2203 C2211 1.433 . S
C2204 H2200 0.929 . S
C2204 C2206 1.378 . S
C2204 C2208 1.350 . S
C2205 C2208 1.463 . S
C2205 C2210 1.350 . S
C2205 N2213 1.427 . S
C2206 H2197 0.930 . S
C2206 C2204 1.378 . S
C2206 C2207 1.367 . S
C2207 C2206 1.367 . S
C2207 C2209 1.433 . S
C2208 C2204 1.350 . S
C2208 C2205 1.463 . S
C2208 N2212 1.427 . S
C2209 H2199 0.929 . S
C2209 C2207 1.433 . S
C2209 N2212 1.384 . S
C2210 H2201 0.929 . S
C2210 C2202 1.378 . S
C2210 C2205 1.350 . S
C2211 H2198 0.929 . S
C2211 C2203 1.433 . S
C2211 N2213 1.384 . S
N2212 C2208 1.427 . S
N2212 C2209 1.384 . S
N2213 C2205 1.427 . S
N2213 C2211 1.384 . S
H2214 C2220 0.930 . S
H2215 C2224 0.930 . S
H2216 C2229 0.929 . S
H2217 C2227 0.929 . S
H2218 C2222 0.929 . S
H2219 C2228 0.929 . S
C2220 H2214 0.930 . S
C2220 C2221 1.367 . S
C2220 C2228 1.378 . S
C2221 C2220 1.367 . S
C2221 C2229 1.433 . S
C2222 H2218 0.929 . S
C2222 C2224 1.378 . S
C2222 C2226 1.350 . S
C2223 C2226 1.463 . S
C2223 C2228 1.350 . S
C2223 N2231 1.427 . S
C2224 H2215 0.930 . S
C2224 C2222 1.378 . S
C2224 C2225 1.367 . S
C2225 C2224 1.367 . S
C2225 C2227 1.433 . S
C2226 C2222 1.350 . S
C2226 C2223 1.463 . S
C2226 N2230 1.427 . S
C2227 H2217 0.929 . S
C2227 C2225 1.433 . S
C2227 N2230 1.384 . S
C2228 H2219 0.929 . S
C2228 C2220 1.378 . S
C2228 C2223 1.350 . S
C2229 H2216 0.929 . S
C2229 C2221 1.433 . S
C2229 N2231 1.384 . S
N2230 C2226 1.427 . S
N2230 C2227 1.384 . S
N2231 C2223 1.427 . S
N2231 C2229 1.384 . S
H2232 C2238 0.930 . S
H2233 C2242 0.930 . S
H2234 C2247 0.929 . S
H2235 C2245 0.929 . S
H2236 C2240 0.929 . S
H2237 C2246 0.929 . S
C2238 H2232 0.930 . S
C2238 C2239 1.367 . S
C2238 C2246 1.378 . S
C2239 C2238 1.367 . S
C2239 C2247 1.433 . S
C2240 H2236 0.929 . S
C2240 C2242 1.378 . S
C2240 C2244 1.350 . S
C2241 C2244 1.463 . S
C2241 C2246 1.350 . S
C2241 N2249 1.427 . S
C2242 H2233 0.930 . S
C2242 C2240 1.378 . S
C2242 C2243 1.367 . S
C2243 C2242 1.367 . S
C2243 C2245 1.433 . S
C2244 C2240 1.350 . S
C2244 C2241 1.463 . S
C2244 N2248 1.427 . S
C2245 H2235 0.929 . S
C2245 C2243 1.433 . S
C2245 N2248 1.384 . S
C2246 H2237 0.929 . S
C2246 C2238 1.378 . S
C2246 C2241 1.350 . S
C2247 H2234 0.929 . S
C2247 C2239 1.433 . S
C2247 N2249 1.384 . S
N2248 C2244 1.427 . S
N2248 C2245 1.384 . S
N2249 C2241 1.427 . S
N2249 C2247 1.384 . S
H2250 C2256 0.930 . S
H2251 C2260 0.930 . S
H2252 C2265 0.929 . S
H2253 C2263 0.929 . S
H2254 C2258 0.929 . S
H2255 C2264 0.929 . S
C2256 H2250 0.930 . S
C2256 C2257 1.367 . S
C2256 C2264 1.378 . S
C2257 C2256 1.367 . S
C2257 C2265 1.433 . S
C2258 H2254 0.929 . S
C2258 C2260 1.378 . S
C2258 C2262 1.350 . S
C2259 C2262 1.463 . S
C2259 C2264 1.350 . S
C2259 N2267 1.427 . S
C2260 H2251 0.930 . S
C2260 C2258 1.378 . S
C2260 C2261 1.367 . S
C2261 C2260 1.367 . S
C2261 C2263 1.433 . S
C2262 C2258 1.350 . S
C2262 C2259 1.463 . S
C2262 N2266 1.427 . S
C2263 H2253 0.929 . S
C2263 C2261 1.433 . S
C2263 N2266 1.384 . S
C2264 H2255 0.929 . S
C2264 C2256 1.378 . S
C2264 C2259 1.350 . S
C2265 H2252 0.929 . S
C2265 C2257 1.433 . S
C2265 N2267 1.384 . S
N2266 C2262 1.427 . S
N2266 C2263 1.384 . S
N2267 C2259 1.427 . S
N2267 C2265 1.384 . S
H2268 C2274 0.930 . S
H2269 C2278 0.930 . S
H2270 C2283 0.929 . S
H2271 C2281 0.929 . S
H2272 C2276 0.929 . S
H2273 C2282 0.929 . S
C2274 H2268 0.930 . S
C2274 C2275 1.367 . S
C2274 C2282 1.378 . S
C2275 C2274 1.367 . S
C2275 C2283 1.433 . S
C2276 H2272 0.929 . S
C2276 C2278 1.378 . S
C2276 C2280 1.350 . S
C2277 C2280 1.463 . S
C2277 C2282 1.350 . S
C2277 N2285 1.427 . S
C2278 H2269 0.930 . S
C2278 C2276 1.378 . S
C2278 C2279 1.367 . S
C2279 C2278 1.367 . S
C2279 C2281 1.433 . S
C2280 C2276 1.350 . S
C2280 C2277 1.463 . S
C2280 N2284 1.427 . S
C2281 H2271 0.929 . S
C2281 C2279 1.433 . S
C2281 N2284 1.384 . S
C2282 H2273 0.929 . S
C2282 C2274 1.378 . S
C2282 C2277 1.350 . S
C2283 H2270 0.929 . S
C2283 C2275 1.433 . S
C2283 N2285 1.384 . S
N2284 C2280 1.427 . S
N2284 C2281 1.384 . S
N2285 C2277 1.427 . S
N2285 C2283 1.384 . S
H2286 C2292 0.930 . S
H2287 C2296 0.930 . S
H2288 C2301 0.929 . S
H2289 C2299 0.929 . S
H2290 C2294 0.929 . S
H2291 C2300 0.929 . S
C2292 H2286 0.930 . S
C2292 C2293 1.367 . S
C2292 C2300 1.378 . S
C2293 C2292 1.367 . S
C2293 C2301 1.433 . S
C2294 H2290 0.929 . S
C2294 C2296 1.378 . S
C2294 C2298 1.350 . S
C2295 C2298 1.463 . S
C2295 C2300 1.350 . S
C2295 N2303 1.427 . S
C2296 H2287 0.930 . S
C2296 C2294 1.378 . S
C2296 C2297 1.367 . S
C2297 C2296 1.367 . S
C2297 C2299 1.433 . S
C2298 C2294 1.350 . S
C2298 C2295 1.463 . S
C2298 N2302 1.427 . S
C2299 H2289 0.929 . S
C2299 C2297 1.433 . S
C2299 N2302 1.384 . S
C2300 H2291 0.929 . S
C2300 C2292 1.378 . S
C2300 C2295 1.350 . S
C2301 H2288 0.929 . S
C2301 C2293 1.433 . S
C2301 N2303 1.384 . S
N2302 C2298 1.427 . S
N2302 C2299 1.384 . S
N2303 C2295 1.427 . S
N2303 C2301 1.384 . S
H2304 C2310 0.930 . S
H2305 C2314 0.930 . S
H2306 C2319 0.929 . S
H2307 C2317 0.929 . S
H2308 C2312 0.929 . S
H2309 C2318 0.929 . S
C2310 H2304 0.930 . S
C2310 C2311 1.367 . S
C2310 C2318 1.378 . S
C2311 C2310 1.367 . S
C2311 C2319 1.433 . S
C2312 H2308 0.929 . S
C2312 C2314 1.378 . S
C2312 C2316 1.350 . S
C2313 C2316 1.463 . S
C2313 C2318 1.350 . S
C2313 N2321 1.427 . S
C2314 H2305 0.930 . S
C2314 C2312 1.378 . S
C2314 C2315 1.367 . S
C2315 C2314 1.367 . S
C2315 C2317 1.433 . S
C2316 C2312 1.350 . S
C2316 C2313 1.463 . S
C2316 N2320 1.427 . S
C2317 H2307 0.929 . S
C2317 C2315 1.433 . S
C2317 N2320 1.384 . S
C2318 H2309 0.929 . S
C2318 C2310 1.378 . S
C2318 C2313 1.350 . S
C2319 H2306 0.929 . S
C2319 C2311 1.433 . S
C2319 N2321 1.384 . S
N2320 C2316 1.427 . S
N2320 C2317 1.384 . S
N2321 C2313 1.427 . S
N2321 C2319 1.384 . S
H2322 C2328 0.930 . S
H2323 C2332 0.930 . S
H2324 C2337 0.929 . S
H2325 C2335 0.929 . S
H2326 C2330 0.929 . S
H2327 C2336 0.929 . S
C2328 H2322 0.930 . S
C2328 C2329 1.367 . S
C2328 C2336 1.378 . S
C2329 C2328 1.367 . S
C2329 C2337 1.433 . S
C2330 H2326 0.929 . S
C2330 C2332 1.378 . S
C2330 C2334 1.350 . S
C2331 C2334 1.463 . S
C2331 C2336 1.350 . S
C2331 N2339 1.427 . S
C2332 H2323 0.930 . S
C2332 C2330 1.378 . S
C2332 C2333 1.367 . S
C2333 C2332 1.367 . S
C2333 C2335 1.433 . S
C2334 C2330 1.350 . S
C2334 C2331 1.463 . S
C2334 N2338 1.427 . S
C2335 H2325 0.929 . S
C2335 C2333 1.433 . S
C2335 N2338 1.384 . S
C2336 H2327 0.929 . S
C2336 C2328 1.378 . S
C2336 C2331 1.350 . S
C2337 H2324 0.929 . S
C2337 C2329 1.433 . S
C2337 N2339 1.384 . S
N2338 C2334 1.427 . S
N2338 C2335 1.384 . S
N2339 C2331 1.427 . S
N2339 C2337 1.384 . S
H2340 C2346 0.930 . S
H2341 C2350 0.930 . S
H2342 C2355 0.929 . S
H2343 C2353 0.929 . S
H2344 C2348 0.929 . S
H2345 C2354 0.929 . S
C2346 H2340 0.930 . S
C2346 C2347 1.367 . S
C2346 C2354 1.378 . S
C2347 C2346 1.367 . S
C2347 C2355 1.433 . S
C2348 H2344 0.929 . S
C2348 C2350 1.378 . S
C2348 C2352 1.350 . S
C2349 C2352 1.463 . S
C2349 C2354 1.350 . S
C2349 N2357 1.427 . S
C2350 H2341 0.930 . S
C2350 C2348 1.378 . S
C2350 C2351 1.367 . S
C2351 C2350 1.367 . S
C2351 C2353 1.433 . S
C2352 C2348 1.350 . S
C2352 C2349 1.463 . S
C2352 N2356 1.427 . S
C2353 H2343 0.929 . S
C2353 C2351 1.433 . S
C2353 N2356 1.384 . S
C2354 H2345 0.929 . S
C2354 C2346 1.378 . S
C2354 C2349 1.350 . S
C2355 H2342 0.929 . S
C2355 C2347 1.433 . S
C2355 N2357 1.384 . S
N2356 C2352 1.427 . S
N2356 C2353 1.384 . S
N2357 C2349 1.427 . S
N2357 C2355 1.384 . S
H2358 C2364 0.930 . S
H2359 C2368 0.930 . S
H2360 C2373 0.929 . S
H2361 C2371 0.929 . S
H2362 C2366 0.929 . S
H2363 C2372 0.929 . S
C2364 H2358 0.930 . S
C2364 C2365 1.367 . S
C2364 C2372 1.378 . S
C2365 C2364 1.367 . S
C2365 C2373 1.433 . S
C2366 H2362 0.929 . S
C2366 C2368 1.378 . S
C2366 C2370 1.350 . S
C2367 C2370 1.463 . S
C2367 C2372 1.350 . S
C2367 N2375 1.427 . S
C2368 H2359 0.930 . S
C2368 C2366 1.378 . S
C2368 C2369 1.367 . S
C2369 C2368 1.367 . S
C2369 C2371 1.433 . S
C2370 C2366 1.350 . S
C2370 C2367 1.463 . S
C2370 N2374 1.427 . S
C2371 H2361 0.929 . S
C2371 C2369 1.433 . S
C2371 N2374 1.384 . S
C2372 H2363 0.929 . S
C2372 C2364 1.378 . S
C2372 C2367 1.350 . S
C2373 H2360 0.929 . S
C2373 C2365 1.433 . S
C2373 N2375 1.384 . S
N2374 C2370 1.427 . S
N2374 C2371 1.384 . S
N2375 C2367 1.427 . S
N2375 C2373 1.384 . S
H2376 C2382 0.930 . S
H2377 C2386 0.930 . S
H2378 C2391 0.929 . S
H2379 C2389 0.929 . S
H2380 C2384 0.929 . S
H2381 C2390 0.929 . S
C2382 H2376 0.930 . S
C2382 C2383 1.367 . S
C2382 C2390 1.378 . S
C2383 C2382 1.367 . S
C2383 C2391 1.433 . S
C2384 H2380 0.929 . S
C2384 C2386 1.378 . S
C2384 C2388 1.350 . S
C2385 C2388 1.463 . S
C2385 C2390 1.350 . S
C2385 N2393 1.427 . S
C2386 H2377 0.930 . S
C2386 C2384 1.378 . S
C2386 C2387 1.367 . S
C2387 C2386 1.367 . S
C2387 C2389 1.433 . S
C2388 C2384 1.350 . S
C2388 C2385 1.463 . S
C2388 N2392 1.427 . S
C2389 H2379 0.929 . S
C2389 C2387 1.433 . S
C2389 N2392 1.384 . S
C2390 H2381 0.929 . S
C2390 C2382 1.378 . S
C2390 C2385 1.350 . S
C2391 H2378 0.929 . S
C2391 C2383 1.433 . S
C2391 N2393 1.384 . S
N2392 C2388 1.427 . S
N2392 C2389 1.384 . S
N2393 C2385 1.427 . S
N2393 C2391 1.384 . S
H2394 C2400 0.930 . S
H2395 C2404 0.930 . S
H2396 C2409 0.929 . S
H2397 C2407 0.929 . S
H2398 C2402 0.929 . S
H2399 C2408 0.929 . S
C2400 H2394 0.930 . S
C2400 C2401 1.367 . S
C2400 C2408 1.378 . S
C2401 C2400 1.367 . S
C2401 C2409 1.433 . S
C2402 H2398 0.929 . S
C2402 C2404 1.378 . S
C2402 C2406 1.350 . S
C2403 C2406 1.463 . S
C2403 C2408 1.350 . S
C2403 N2411 1.427 . S
C2404 H2395 0.930 . S
C2404 C2402 1.378 . S
C2404 C2405 1.367 . S
C2405 C2404 1.367 . S
C2405 C2407 1.433 . S
C2406 C2402 1.350 . S
C2406 C2403 1.463 . S
C2406 N2410 1.427 . S
C2407 H2397 0.929 . S
C2407 C2405 1.433 . S
C2407 N2410 1.384 . S
C2408 H2399 0.929 . S
C2408 C2400 1.378 . S
C2408 C2403 1.350 . S
C2409 H2396 0.929 . S
C2409 C2401 1.433 . S
C2409 N2411 1.384 . S
N2410 C2406 1.427 . S
N2410 C2407 1.384 . S
N2411 C2403 1.427 . S
N2411 C2409 1.384 . S
H2412 C2418 0.930 . S
H2413 C2422 0.930 . S
H2414 C2427 0.929 . S
H2415 C2425 0.929 . S
H2416 C2420 0.929 . S
H2417 C2426 0.929 . S
C2418 H2412 0.930 . S
C2418 C2419 1.367 . S
C2418 C2426 1.378 . S
C2419 C2418 1.367 . S
C2419 C2427 1.433 . S
C2420 H2416 0.929 . S
C2420 C2422 1.378 . S
C2420 C2424 1.350 . S
C2421 C2424 1.463 . S
C2421 C2426 1.350 . S
C2421 N2429 1.427 . S
C2422 H2413 0.930 . S
C2422 C2420 1.378 . S
C2422 C2423 1.367 . S
C2423 C2422 1.367 . S
C2423 C2425 1.433 . S
C2424 C2420 1.350 . S
C2424 C2421 1.463 . S
C2424 N2428 1.427 . S
C2425 H2415 0.929 . S
C2425 C2423 1.433 . S
C2425 N2428 1.384 . S
C2426 H2417 0.929 . S
C2426 C2418 1.378 . S
C2426 C2421 1.350 . S
C2427 H2414 0.929 . S
C2427 C2419 1.433 . S
C2427 N2429 1.384 . S
N2428 C2424 1.427 . S
N2428 C2425 1.384 . S
N2429 C2421 1.427 . S
N2429 C2427 1.384 . S
H2430 C2436 0.930 . S
H2431 C2440 0.930 . S
H2432 C2445 0.929 . S
H2433 C2443 0.929 . S
H2434 C2438 0.929 . S
H2435 C2444 0.929 . S
C2436 H2430 0.930 . S
C2436 C2437 1.367 . S
C2436 C2444 1.378 . S
C2437 C2436 1.367 . S
C2437 C2445 1.433 . S
C2438 H2434 0.929 . S
C2438 C2440 1.378 . S
C2438 C2442 1.350 . S
C2439 C2442 1.463 . S
C2439 C2444 1.350 . S
C2439 N2447 1.427 . S
C2440 H2431 0.930 . S
C2440 C2438 1.378 . S
C2440 C2441 1.367 . S
C2441 C2440 1.367 . S
C2441 C2443 1.433 . S
C2442 C2438 1.350 . S
C2442 C2439 1.463 . S
C2442 N2446 1.427 . S
C2443 H2433 0.929 . S
C2443 C2441 1.433 . S
C2443 N2446 1.384 . S
C2444 H2435 0.929 . S
C2444 C2436 1.378 . S
C2444 C2439 1.350 . S
C2445 H2432 0.929 . S
C2445 C2437 1.433 . S
C2445 N2447 1.384 . S
N2446 C2442 1.427 . S
N2446 C2443 1.384 . S
N2447 C2439 1.427 . S
N2447 C2445 1.384 . S
H2448 C2454 0.930 . S
H2449 C2458 0.930 . S
H2450 C2463 0.929 . S
H2451 C2461 0.929 . S
H2452 C2456 0.929 . S
H2453 C2462 0.929 . S
C2454 H2448 0.930 . S
C2454 C2455 1.367 . S
C2454 C2462 1.378 . S
C2455 C2454 1.367 . S
C2455 C2463 1.433 . S
C2456 H2452 0.929 . S
C2456 C2458 1.378 . S
C2456 C2460 1.350 . S
C2457 C2460 1.463 . S
C2457 C2462 1.350 . S
C2457 N2465 1.427 . S
C2458 H2449 0.930 . S
C2458 C2456 1.378 . S
C2458 C2459 1.367 . S
C2459 C2458 1.367 . S
C2459 C2461 1.433 . S
C2460 C2456 1.350 . S
C2460 C2457 1.463 . S
C2460 N2464 1.427 . S
C2461 H2451 0.929 . S
C2461 C2459 1.433 . S
C2461 N2464 1.384 . S
C2462 H2453 0.929 . S
C2462 C2454 1.378 . S
C2462 C2457 1.350 . S
C2463 H2450 0.929 . S
C2463 C2455 1.433 . S
C2463 N2465 1.384 . S
N2464 C2460 1.427 . S
N2464 C2461 1.384 . S
N2465 C2457 1.427 . S
N2465 C2463 1.384 . S
H2466 C2472 0.930 . S
H2467 C2476 0.930 . S
H2468 C2481 0.929 . S
H2469 C2479 0.929 . S
H2470 C2474 0.929 . S
H2471 C2480 0.929 . S
C2472 H2466 0.930 . S
C2472 C2473 1.367 . S
C2472 C2480 1.378 . S
C2473 C2472 1.367 . S
C2473 C2481 1.433 . S
C2474 H2470 0.929 . S
C2474 C2476 1.378 . S
C2474 C2478 1.350 . S
C2475 C2478 1.463 . S
C2475 C2480 1.350 . S
C2475 N2483 1.427 . S
C2476 H2467 0.930 . S
C2476 C2474 1.378 . S
C2476 C2477 1.367 . S
C2477 C2476 1.367 . S
C2477 C2479 1.433 . S
C2478 C2474 1.350 . S
C2478 C2475 1.463 . S
C2478 N2482 1.427 . S
C2479 H2469 0.929 . S
C2479 C2477 1.433 . S
C2479 N2482 1.384 . S
C2480 H2471 0.929 . S
C2480 C2472 1.378 . S
C2480 C2475 1.350 . S
C2481 H2468 0.929 . S
C2481 C2473 1.433 . S
C2481 N2483 1.384 . S
N2482 C2478 1.427 . S
N2482 C2479 1.384 . S
N2483 C2475 1.427 . S
N2483 C2481 1.384 . S
H2484 C2490 0.930 . S
H2485 C2494 0.930 . S
H2486 C2499 0.929 . S
H2487 C2497 0.929 . S
H2488 C2492 0.929 . S
H2489 C2498 0.929 . S
C2490 H2484 0.930 . S
C2490 C2491 1.367 . S
C2490 C2498 1.378 . S
C2491 C2490 1.367 . S
C2491 C2499 1.433 . S
C2492 H2488 0.929 . S
C2492 C2494 1.378 . S
C2492 C2496 1.350 . S
C2493 C2496 1.463 . S
C2493 C2498 1.350 . S
C2493 N2501 1.427 . S
C2494 H2485 0.930 . S
C2494 C2492 1.378 . S
C2494 C2495 1.367 . S
C2495 C2494 1.367 . S
C2495 C2497 1.433 . S
C2496 C2492 1.350 . S
C2496 C2493 1.463 . S
C2496 N2500 1.427 . S
C2497 H2487 0.929 . S
C2497 C2495 1.433 . S
C2497 N2500 1.384 . S
C2498 H2489 0.929 . S
C2498 C2490 1.378 . S
C2498 C2493 1.350 . S
C2499 H2486 0.929 . S
C2499 C2491 1.433 . S
C2499 N2501 1.384 . S
N2500 C2496 1.427 . S
N2500 C2497 1.384 . S
N2501 C2493 1.427 . S
N2501 C2499 1.384 . S
H2502 C2508 0.930 . S
H2503 C2512 0.930 . S
H2504 C2517 0.929 . S
H2505 C2515 0.929 . S
H2506 C2510 0.929 . S
H2507 C2516 0.929 . S
C2508 H2502 0.930 . S
C2508 C2509 1.367 . S
C2508 C2516 1.378 . S
C2509 C2508 1.367 . S
C2509 C2517 1.433 . S
C2510 H2506 0.929 . S
C2510 C2512 1.378 . S
C2510 C2514 1.350 . S
C2511 C2514 1.463 . S
C2511 C2516 1.350 . S
C2511 N2519 1.427 . S
C2512 H2503 0.930 . S
C2512 C2510 1.378 . S
C2512 C2513 1.367 . S
C2513 C2512 1.367 . S
C2513 C2515 1.433 . S
C2514 C2510 1.350 . S
C2514 C2511 1.463 . S
C2514 N2518 1.427 . S
C2515 H2505 0.929 . S
C2515 C2513 1.433 . S
C2515 N2518 1.384 . S
C2516 H2507 0.929 . S
C2516 C2508 1.378 . S
C2516 C2511 1.350 . S
C2517 H2504 0.929 . S
C2517 C2509 1.433 . S
C2517 N2519 1.384 . S
N2518 C2514 1.427 . S
N2518 C2515 1.384 . S
N2519 C2511 1.427 . S
N2519 C2517 1.384 . S
H2520 C2526 0.930 . S
H2521 C2530 0.930 . S
H2522 C2535 0.929 . S
H2523 C2533 0.929 . S
H2524 C2528 0.929 . S
H2525 C2534 0.929 . S
C2526 H2520 0.930 . S
C2526 C2527 1.367 . S
C2526 C2534 1.378 . S
C2527 C2526 1.367 . S
C2527 C2535 1.433 . S
C2528 H2524 0.929 . S
C2528 C2530 1.378 . S
C2528 C2532 1.350 . S
C2529 C2532 1.463 . S
C2529 C2534 1.350 . S
C2529 N2537 1.427 . S
C2530 H2521 0.930 . S
C2530 C2528 1.378 . S
C2530 C2531 1.367 . S
C2531 C2530 1.367 . S
C2531 C2533 1.433 . S
C2532 C2528 1.350 . S
C2532 C2529 1.463 . S
C2532 N2536 1.427 . S
C2533 H2523 0.929 . S
C2533 C2531 1.433 . S
C2533 N2536 1.384 . S
C2534 H2525 0.929 . S
C2534 C2526 1.378 . S
C2534 C2529 1.350 . S
C2535 H2522 0.929 . S
C2535 C2527 1.433 . S
C2535 N2537 1.384 . S
N2536 C2532 1.427 . S
N2536 C2533 1.384 . S
N2537 C2529 1.427 . S
N2537 C2535 1.384 . S
H2538 C2544 0.930 . S
H2539 C2548 0.930 . S
H2540 C2553 0.929 . S
H2541 C2551 0.929 . S
H2542 C2546 0.929 . S
H2543 C2552 0.929 . S
C2544 H2538 0.930 . S
C2544 C2545 1.367 . S
C2544 C2552 1.378 . S
C2545 C2544 1.367 . S
C2545 C2553 1.433 . S
C2546 H2542 0.929 . S
C2546 C2548 1.378 . S
C2546 C2550 1.350 . S
C2547 C2550 1.463 . S
C2547 C2552 1.350 . S
C2547 N2555 1.427 . S
C2548 H2539 0.930 . S
C2548 C2546 1.378 . S
C2548 C2549 1.367 . S
C2549 C2548 1.367 . S
C2549 C2551 1.433 . S
C2550 C2546 1.350 . S
C2550 C2547 1.463 . S
C2550 N2554 1.427 . S
C2551 H2541 0.929 . S
C2551 C2549 1.433 . S
C2551 N2554 1.384 . S
C2552 H2543 0.929 . S
C2552 C2544 1.378 . S
C2552 C2547 1.350 . S
C2553 H2540 0.929 . S
C2553 C2545 1.433 . S
C2553 N2555 1.384 . S
N2554 C2550 1.427 . S
N2554 C2551 1.384 . S
N2555 C2547 1.427 . S
N2555 C2553 1.384 . S
H2556 C2562 0.930 . S
H2557 C2566 0.930 . S
H2558 C2571 0.929 . S
H2559 C2569 0.929 . S
H2560 C2564 0.929 . S
H2561 C2570 0.929 . S
C2562 H2556 0.930 . S
C2562 C2563 1.367 . S
C2562 C2570 1.378 . S
C2563 C2562 1.367 . S
C2563 C2571 1.433 . S
C2564 H2560 0.929 . S
C2564 C2566 1.378 . S
C2564 C2568 1.350 . S
C2565 C2568 1.463 . S
C2565 C2570 1.350 . S
C2565 N2573 1.427 . S
C2566 H2557 0.930 . S
C2566 C2564 1.378 . S
C2566 C2567 1.367 . S
C2567 C2566 1.367 . S
C2567 C2569 1.433 . S
C2568 C2564 1.350 . S
C2568 C2565 1.463 . S
C2568 N2572 1.427 . S
C2569 H2559 0.929 . S
C2569 C2567 1.433 . S
C2569 N2572 1.384 . S
C2570 H2561 0.929 . S
C2570 C2562 1.378 . S
C2570 C2565 1.350 . S
C2571 H2558 0.929 . S
C2571 C2563 1.433 . S
C2571 N2573 1.384 . S
N2572 C2568 1.427 . S
N2572 C2569 1.384 . S
N2573 C2565 1.427 . S
N2573 C2571 1.384 . S
H2574 C2580 0.930 . S
H2575 C2584 0.930 . S
H2576 C2589 0.929 . S
H2577 C2587 0.929 . S
H2578 C2582 0.929 . S
H2579 C2588 0.929 . S
C2580 H2574 0.930 . S
C2580 C2581 1.367 . S
C2580 C2588 1.378 . S
C2581 C2580 1.367 . S
C2581 C2589 1.433 . S
C2582 H2578 0.929 . S
C2582 C2584 1.378 . S
C2582 C2586 1.350 . S
C2583 C2586 1.463 . S
C2583 C2588 1.350 . S
C2583 N2591 1.427 . S
C2584 H2575 0.930 . S
C2584 C2582 1.378 . S
C2584 C2585 1.367 . S
C2585 C2584 1.367 . S
C2585 C2587 1.433 . S
C2586 C2582 1.350 . S
C2586 C2583 1.463 . S
C2586 N2590 1.427 . S
C2587 H2577 0.929 . S
C2587 C2585 1.433 . S
C2587 N2590 1.384 . S
C2588 H2579 0.929 . S
C2588 C2580 1.378 . S
C2588 C2583 1.350 . S
C2589 H2576 0.929 . S
C2589 C2581 1.433 . S
C2589 N2591 1.384 . S
N2590 C2586 1.427 . S
N2590 C2587 1.384 . S
N2591 C2583 1.427 . S
N2591 C2589 1.384 . S
H2592 C2598 0.930 . S
H2593 C2602 0.930 . S
H2594 C2607 0.929 . S
H2595 C2605 0.929 . S
H2596 C2600 0.929 . S
H2597 C2606 0.929 . S
C2598 H2592 0.930 . S
C2598 C2599 1.367 . S
C2598 C2606 1.378 . S
C2599 C2598 1.367 . S
C2599 C2607 1.433 . S
C2600 H2596 0.929 . S
C2600 C2602 1.378 . S
C2600 C2604 1.350 . S
C2601 C2604 1.463 . S
C2601 C2606 1.350 . S
C2601 N2609 1.427 . S
C2602 H2593 0.930 . S
C2602 C2600 1.378 . S
C2602 C2603 1.367 . S
C2603 C2602 1.367 . S
C2603 C2605 1.433 . S
C2604 C2600 1.350 . S
C2604 C2601 1.463 . S
C2604 N2608 1.427 . S
C2605 H2595 0.929 . S
C2605 C2603 1.433 . S
C2605 N2608 1.384 . S
C2606 H2597 0.929 . S
C2606 C2598 1.378 . S
C2606 C2601 1.350 . S
C2607 H2594 0.929 . S
C2607 C2599 1.433 . S
C2607 N2609 1.384 . S
N2608 C2604 1.427 . S
N2608 C2605 1.384 . S
N2609 C2601 1.427 . S
N2609 C2607 1.384 . S
H2610 C2616 0.930 . S
H2611 C2620 0.930 . S
H2612 C2625 0.929 . S
H2613 C2623 0.929 . S
H2614 C2618 0.929 . S
H2615 C2624 0.929 . S
C2616 H2610 0.930 . S
C2616 C2617 1.367 . S
C2616 C2624 1.378 . S
C2617 C2616 1.367 . S
C2617 C2625 1.433 . S
C2618 H2614 0.929 . S
C2618 C2620 1.378 . S
C2618 C2622 1.350 . S
C2619 C2622 1.463 . S
C2619 C2624 1.350 . S
C2619 N2627 1.427 . S
C2620 H2611 0.930 . S
C2620 C2618 1.378 . S
C2620 C2621 1.367 . S
C2621 C2620 1.367 . S
C2621 C2623 1.433 . S
C2622 C2618 1.350 . S
C2622 C2619 1.463 . S
C2622 N2626 1.427 . S
C2623 H2613 0.929 . S
C2623 C2621 1.433 . S
C2623 N2626 1.384 . S
C2624 H2615 0.929 . S
C2624 C2616 1.378 . S
C2624 C2619 1.350 . S
C2625 H2612 0.929 . S
C2625 C2617 1.433 . S
C2625 N2627 1.384 . S
N2626 C2622 1.427 . S
N2626 C2623 1.384 . S
N2627 C2619 1.427 . S
N2627 C2625 1.384 . S
H2628 C2634 0.930 . S
H2629 C2638 0.930 . S
H2630 C2643 0.929 . S
H2631 C2641 0.929 . S
H2632 C2636 0.929 . S
H2633 C2642 0.929 . S
C2634 H2628 0.930 . S
C2634 C2635 1.367 . S
C2634 C2642 1.378 . S
C2635 C2634 1.367 . S
C2635 C2643 1.433 . S
C2636 H2632 0.929 . S
C2636 C2638 1.378 . S
C2636 C2640 1.350 . S
C2637 C2640 1.463 . S
C2637 C2642 1.350 . S
C2637 N2645 1.427 . S
C2638 H2629 0.930 . S
C2638 C2636 1.378 . S
C2638 C2639 1.367 . S
C2639 C2638 1.367 . S
C2639 C2641 1.433 . S
C2640 C2636 1.350 . S
C2640 C2637 1.463 . S
C2640 N2644 1.427 . S
C2641 H2631 0.929 . S
C2641 C2639 1.433 . S
C2641 N2644 1.384 . S
C2642 H2633 0.929 . S
C2642 C2634 1.378 . S
C2642 C2637 1.350 . S
C2643 H2630 0.929 . S
C2643 C2635 1.433 . S
C2643 N2645 1.384 . S
N2644 C2640 1.427 . S
N2644 C2641 1.384 . S
N2645 C2637 1.427 . S
N2645 C2643 1.384 . S
H2646 C2652 0.930 . S
H2647 C2656 0.930 . S
H2648 C2661 0.929 . S
H2649 C2659 0.929 . S
H2650 C2654 0.929 . S
H2651 C2660 0.929 . S
C2652 H2646 0.930 . S
C2652 C2653 1.367 . S
C2652 C2660 1.378 . S
C2653 C2652 1.367 . S
C2653 C2661 1.433 . S
C2654 H2650 0.929 . S
C2654 C2656 1.378 . S
C2654 C2658 1.350 . S
C2655 C2658 1.463 . S
C2655 C2660 1.350 . S
C2655 N2663 1.427 . S
C2656 H2647 0.930 . S
C2656 C2654 1.378 . S
C2656 C2657 1.367 . S
C2657 C2656 1.367 . S
C2657 C2659 1.433 . S
C2658 C2654 1.350 . S
C2658 C2655 1.463 . S
C2658 N2662 1.427 . S
C2659 H2649 0.929 . S
C2659 C2657 1.433 . S
C2659 N2662 1.384 . S
C2660 H2651 0.929 . S
C2660 C2652 1.378 . S
C2660 C2655 1.350 . S
C2661 H2648 0.929 . S
C2661 C2653 1.433 . S
C2661 N2663 1.384 . S
N2662 C2658 1.427 . S
N2662 C2659 1.384 . S
N2663 C2655 1.427 . S
N2663 C2661 1.384 . S
H2664 C2670 0.930 . S
H2665 C2674 0.930 . S
H2666 C2679 0.929 . S
H2667 C2677 0.929 . S
H2668 C2672 0.929 . S
H2669 C2678 0.929 . S
C2670 H2664 0.930 . S
C2670 C2671 1.367 . S
C2670 C2678 1.378 . S
C2671 C2670 1.367 . S
C2671 C2679 1.433 . S
C2672 H2668 0.929 . S
C2672 C2674 1.378 . S
C2672 C2676 1.350 . S
C2673 C2676 1.463 . S
C2673 C2678 1.350 . S
C2673 N2681 1.427 . S
C2674 H2665 0.930 . S
C2674 C2672 1.378 . S
C2674 C2675 1.367 . S
C2675 C2674 1.367 . S
C2675 C2677 1.433 . S
C2676 C2672 1.350 . S
C2676 C2673 1.463 . S
C2676 N2680 1.427 . S
C2677 H2667 0.929 . S
C2677 C2675 1.433 . S
C2677 N2680 1.384 . S
C2678 H2669 0.929 . S
C2678 C2670 1.378 . S
C2678 C2673 1.350 . S
C2679 H2666 0.929 . S
C2679 C2671 1.433 . S
C2679 N2681 1.384 . S
N2680 C2676 1.427 . S
N2680 C2677 1.384 . S
N2681 C2673 1.427 . S
N2681 C2679 1.384 . S
H2682 C2688 0.930 . S
H2683 C2692 0.930 . S
H2684 C2697 0.929 . S
H2685 C2695 0.929 . S
H2686 C2690 0.929 . S
H2687 C2696 0.929 . S
C2688 H2682 0.930 . S
C2688 C2689 1.367 . S
C2688 C2696 1.378 . S
C2689 C2688 1.367 . S
C2689 C2697 1.433 . S
C2690 H2686 0.929 . S
C2690 C2692 1.378 . S
C2690 C2694 1.350 . S
C2691 C2694 1.463 . S
C2691 C2696 1.350 . S
C2691 N2699 1.427 . S
C2692 H2683 0.930 . S
C2692 C2690 1.378 . S
C2692 C2693 1.367 . S
C2693 C2692 1.367 . S
C2693 C2695 1.433 . S
C2694 C2690 1.350 . S
C2694 C2691 1.463 . S
C2694 N2698 1.427 . S
C2695 H2685 0.929 . S
C2695 C2693 1.433 . S
C2695 N2698 1.384 . S
C2696 H2687 0.929 . S
C2696 C2688 1.378 . S
C2696 C2691 1.350 . S
C2697 H2684 0.929 . S
C2697 C2689 1.433 . S
C2697 N2699 1.384 . S
N2698 C2694 1.427 . S
N2698 C2695 1.384 . S
N2699 C2691 1.427 . S
N2699 C2697 1.384 . S
H2700 C2706 0.930 . S
H2701 C2710 0.930 . S
H2702 C2715 0.929 . S
H2703 C2713 0.929 . S
H2704 C2708 0.929 . S
H2705 C2714 0.929 . S
C2706 H2700 0.930 . S
C2706 C2707 1.367 . S
C2706 C2714 1.378 . S
C2707 C2706 1.367 . S
C2707 C2715 1.433 . S
C2708 H2704 0.929 . S
C2708 C2710 1.378 . S
C2708 C2712 1.350 . S
C2709 C2712 1.463 . S
C2709 C2714 1.350 . S
C2709 N2717 1.427 . S
C2710 H2701 0.930 . S
C2710 C2708 1.378 . S
C2710 C2711 1.367 . S
C2711 C2710 1.367 . S
C2711 C2713 1.433 . S
C2712 C2708 1.350 . S
C2712 C2709 1.463 . S
C2712 N2716 1.427 . S
C2713 H2703 0.929 . S
C2713 C2711 1.433 . S
C2713 N2716 1.384 . S
C2714 H2705 0.929 . S
C2714 C2706 1.378 . S
C2714 C2709 1.350 . S
C2715 H2702 0.929 . S
C2715 C2707 1.433 . S
C2715 N2717 1.384 . S
N2716 C2712 1.427 . S
N2716 C2713 1.384 . S
N2717 C2709 1.427 . S
N2717 C2715 1.384 . S
H2718 C2724 0.930 . S
H2719 C2728 0.930 . S
H2720 C2733 0.929 . S
H2721 C2731 0.929 . S
H2722 C2726 0.929 . S
H2723 C2732 0.929 . S
C2724 H2718 0.930 . S
C2724 C2725 1.367 . S
C2724 C2732 1.378 . S
C2725 C2724 1.367 . S
C2725 C2733 1.433 . S
C2726 H2722 0.929 . S
C2726 C2728 1.378 . S
C2726 C2730 1.350 . S
C2727 C2730 1.463 . S
C2727 C2732 1.350 . S
C2727 N2735 1.427 . S
C2728 H2719 0.930 . S
C2728 C2726 1.378 . S
C2728 C2729 1.367 . S
C2729 C2728 1.367 . S
C2729 C2731 1.433 . S
C2730 C2726 1.350 . S
C2730 C2727 1.463 . S
C2730 N2734 1.427 . S
C2731 H2721 0.929 . S
C2731 C2729 1.433 . S
C2731 N2734 1.384 . S
C2732 H2723 0.929 . S
C2732 C2724 1.378 . S
C2732 C2727 1.350 . S
C2733 H2720 0.929 . S
C2733 C2725 1.433 . S
C2733 N2735 1.384 . S
N2734 C2730 1.427 . S
N2734 C2731 1.384 . S
N2735 C2727 1.427 . S
N2735 C2733 1.384 . S
H2736 C2742 0.930 . S
H2737 C2746 0.930 . S
H2738 C2751 0.929 . S
H2739 C2749 0.929 . S
H2740 C2744 0.929 . S
H2741 C2750 0.929 . S
C2742 H2736 0.930 . S
C2742 C2743 1.367 . S
C2742 C2750 1.378 . S
C2743 C2742 1.367 . S
C2743 C2751 1.433 . S
C2744 H2740 0.929 . S
C2744 C2746 1.378 . S
C2744 C2748 1.350 . S
C2745 C2748 1.463 . S
C2745 C2750 1.350 . S
C2745 N2753 1.427 . S
C2746 H2737 0.930 . S
C2746 C2744 1.378 . S
C2746 C2747 1.367 . S
C2747 C2746 1.367 . S
C2747 C2749 1.433 . S
C2748 C2744 1.350 . S
C2748 C2745 1.463 . S
C2748 N2752 1.427 . S
C2749 H2739 0.929 . S
C2749 C2747 1.433 . S
C2749 N2752 1.384 . S
C2750 H2741 0.929 . S
C2750 C2742 1.378 . S
C2750 C2745 1.350 . S
C2751 H2738 0.929 . S
C2751 C2743 1.433 . S
C2751 N2753 1.384 . S
N2752 C2748 1.427 . S
N2752 C2749 1.384 . S
N2753 C2745 1.427 . S
N2753 C2751 1.384 . S
H2754 C2760 0.930 . S
H2755 C2764 0.930 . S
H2756 C2769 0.929 . S
H2757 C2767 0.929 . S
H2758 C2762 0.929 . S
H2759 C2768 0.929 . S
C2760 H2754 0.930 . S
C2760 C2761 1.367 . S
C2760 C2768 1.378 . S
C2761 C2760 1.367 . S
C2761 C2769 1.433 . S
C2762 H2758 0.929 . S
C2762 C2764 1.378 . S
C2762 C2766 1.350 . S
C2763 C2766 1.463 . S
C2763 C2768 1.350 . S
C2763 N2771 1.427 . S
C2764 H2755 0.930 . S
C2764 C2762 1.378 . S
C2764 C2765 1.367 . S
C2765 C2764 1.367 . S
C2765 C2767 1.433 . S
C2766 C2762 1.350 . S
C2766 C2763 1.463 . S
C2766 N2770 1.427 . S
C2767 H2757 0.929 . S
C2767 C2765 1.433 . S
C2767 N2770 1.384 . S
C2768 H2759 0.929 . S
C2768 C2760 1.378 . S
C2768 C2763 1.350 . S
C2769 H2756 0.929 . S
C2769 C2761 1.433 . S
C2769 N2771 1.384 . S
N2770 C2766 1.427 . S
N2770 C2767 1.384 . S
N2771 C2763 1.427 . S
N2771 C2769 1.384 . S
H2772 C2778 0.930 . S
H2773 C2782 0.930 . S
H2774 C2787 0.929 . S
H2775 C2785 0.929 . S
H2776 C2780 0.929 . S
H2777 C2786 0.929 . S
C2778 H2772 0.930 . S
C2778 C2779 1.367 . S
C2778 C2786 1.378 . S
C2779 C2778 1.367 . S
C2779 C2787 1.433 . S
C2780 H2776 0.929 . S
C2780 C2782 1.378 . S
C2780 C2784 1.350 . S
C2781 C2784 1.463 . S
C2781 C2786 1.350 . S
C2781 N2789 1.427 . S
C2782 H2773 0.930 . S
C2782 C2780 1.378 . S
C2782 C2783 1.367 . S
C2783 C2782 1.367 . S
C2783 C2785 1.433 . S
C2784 C2780 1.350 . S
C2784 C2781 1.463 . S
C2784 N2788 1.427 . S
C2785 H2775 0.929 . S
C2785 C2783 1.433 . S
C2785 N2788 1.384 . S
C2786 H2777 0.929 . S
C2786 C2778 1.378 . S
C2786 C2781 1.350 . S
C2787 H2774 0.929 . S
C2787 C2779 1.433 . S
C2787 N2789 1.384 . S
N2788 C2784 1.427 . S
N2788 C2785 1.384 . S
N2789 C2781 1.427 . S
N2789 C2787 1.384 . S
H2790 C2796 0.930 . S
H2791 C2800 0.930 . S
H2792 C2805 0.929 . S
H2793 C2803 0.929 . S
H2794 C2798 0.929 . S
H2795 C2804 0.929 . S
C2796 H2790 0.930 . S
C2796 C2797 1.367 . S
C2796 C2804 1.378 . S
C2797 C2796 1.367 . S
C2797 C2805 1.433 . S
C2798 H2794 0.929 . S
C2798 C2800 1.378 . S
C2798 C2802 1.350 . S
C2799 C2802 1.463 . S
C2799 C2804 1.350 . S
C2799 N2807 1.427 . S
C2800 H2791 0.930 . S
C2800 C2798 1.378 . S
C2800 C2801 1.367 . S
C2801 C2800 1.367 . S
C2801 C2803 1.433 . S
C2802 C2798 1.350 . S
C2802 C2799 1.463 . S
C2802 N2806 1.427 . S
C2803 H2793 0.929 . S
C2803 C2801 1.433 . S
C2803 N2806 1.384 . S
C2804 H2795 0.929 . S
C2804 C2796 1.378 . S
C2804 C2799 1.350 . S
C2805 H2792 0.929 . S
C2805 C2797 1.433 . S
C2805 N2807 1.384 . S
N2806 C2802 1.427 . S
N2806 C2803 1.384 . S
N2807 C2799 1.427 . S
N2807 C2805 1.384 . S
H2808 C2814 0.930 . S
H2809 C2818 0.930 . S
H2810 C2823 0.929 . S
H2811 C2821 0.929 . S
H2812 C2816 0.929 . S
H2813 C2822 0.929 . S
C2814 H2808 0.930 . S
C2814 C2815 1.367 . S
C2814 C2822 1.378 . S
C2815 C2814 1.367 . S
C2815 C2823 1.433 . S
C2816 H2812 0.929 . S
C2816 C2818 1.378 . S
C2816 C2820 1.350 . S
C2817 C2820 1.463 . S
C2817 C2822 1.350 . S
C2817 N2825 1.427 . S
C2818 H2809 0.930 . S
C2818 C2816 1.378 . S
C2818 C2819 1.367 . S
C2819 C2818 1.367 . S
C2819 C2821 1.433 . S
C2820 C2816 1.350 . S
C2820 C2817 1.463 . S
C2820 N2824 1.427 . S
C2821 H2811 0.929 . S
C2821 C2819 1.433 . S
C2821 N2824 1.384 . S
C2822 H2813 0.929 . S
C2822 C2814 1.378 . S
C2822 C2817 1.350 . S
C2823 H2810 0.929 . S
C2823 C2815 1.433 . S
C2823 N2825 1.384 . S
N2824 C2820 1.427 . S
N2824 C2821 1.384 . S
N2825 C2817 1.427 . S
N2825 C2823 1.384 . S
H2826 C2832 0.930 . S
H2827 C2836 0.930 . S
H2828 C2841 0.929 . S
H2829 C2839 0.929 . S
H2830 C2834 0.929 . S
H2831 C2840 0.929 . S
C2832 H2826 0.930 . S
C2832 C2833 1.367 . S
C2832 C2840 1.378 . S
C2833 C2832 1.367 . S
C2833 C2841 1.433 . S
C2834 H2830 0.929 . S
C2834 C2836 1.378 . S
C2834 C2838 1.350 . S
C2835 C2838 1.463 . S
C2835 C2840 1.350 . S
C2835 N2843 1.427 . S
C2836 H2827 0.930 . S
C2836 C2834 1.378 . S
C2836 C2837 1.367 . S
C2837 C2836 1.367 . S
C2837 C2839 1.433 . S
C2838 C2834 1.350 . S
C2838 C2835 1.463 . S
C2838 N2842 1.427 . S
C2839 H2829 0.929 . S
C2839 C2837 1.433 . S
C2839 N2842 1.384 . S
C2840 H2831 0.929 . S
C2840 C2832 1.378 . S
C2840 C2835 1.350 . S
C2841 H2828 0.929 . S
C2841 C2833 1.433 . S
C2841 N2843 1.384 . S
N2842 C2838 1.427 . S
N2842 C2839 1.384 . S
N2843 C2835 1.427 . S
N2843 C2841 1.384 . S
H2844 C2850 0.930 . S
H2845 C2854 0.930 . S
H2846 C2859 0.929 . S
H2847 C2857 0.929 . S
H2848 C2852 0.929 . S
H2849 C2858 0.929 . S
C2850 H2844 0.930 . S
C2850 C2851 1.367 . S
C2850 C2858 1.378 . S
C2851 C2850 1.367 . S
C2851 C2859 1.433 . S
C2852 H2848 0.929 . S
C2852 C2854 1.378 . S
C2852 C2856 1.350 . S
C2853 C2856 1.463 . S
C2853 C2858 1.350 . S
C2853 N2861 1.427 . S
C2854 H2845 0.930 . S
C2854 C2852 1.378 . S
C2854 C2855 1.367 . S
C2855 C2854 1.367 . S
C2855 C2857 1.433 . S
C2856 C2852 1.350 . S
C2856 C2853 1.463 . S
C2856 N2860 1.427 . S
C2857 H2847 0.929 . S
C2857 C2855 1.433 . S
C2857 N2860 1.384 . S
C2858 H2849 0.929 . S
C2858 C2850 1.378 . S
C2858 C2853 1.350 . S
C2859 H2846 0.929 . S
C2859 C2851 1.433 . S
C2859 N2861 1.384 . S
N2860 C2856 1.427 . S
N2860 C2857 1.384 . S
N2861 C2853 1.427 . S
N2861 C2859 1.384 . S
H2862 C2868 0.930 . S
H2863 C2872 0.930 . S
H2864 C2877 0.929 . S
H2865 C2875 0.929 . S
H2866 C2870 0.929 . S
H2867 C2876 0.929 . S
C2868 H2862 0.930 . S
C2868 C2869 1.367 . S
C2868 C2876 1.378 . S
C2869 C2868 1.367 . S
C2869 C2877 1.433 . S
C2870 H2866 0.929 . S
C2870 C2872 1.378 . S
C2870 C2874 1.350 . S
C2871 C2874 1.463 . S
C2871 C2876 1.350 . S
C2871 N2879 1.427 . S
C2872 H2863 0.930 . S
C2872 C2870 1.378 . S
C2872 C2873 1.367 . S
C2873 C2872 1.367 . S
C2873 C2875 1.433 . S
C2874 C2870 1.350 . S
C2874 C2871 1.463 . S
C2874 N2878 1.427 . S
C2875 H2865 0.929 . S
C2875 C2873 1.433 . S
C2875 N2878 1.384 . S
C2876 H2867 0.929 . S
C2876 C2868 1.378 . S
C2876 C2871 1.350 . S
C2877 H2864 0.929 . S
C2877 C2869 1.433 . S
C2877 N2879 1.384 . S
N2878 C2874 1.427 . S
N2878 C2875 1.384 . S
N2879 C2871 1.427 . S
N2879 C2877 1.384 . S
H2880 C2886 0.930 . S
H2881 C2890 0.930 . S
H2882 C2895 0.929 . S
H2883 C2893 0.929 . S
H2884 C2888 0.929 . S
H2885 C2894 0.929 . S
C2886 H2880 0.930 . S
C2886 C2887 1.367 . S
C2886 C2894 1.378 . S
C2887 C2886 1.367 . S
C2887 C2895 1.433 . S
C2888 H2884 0.929 . S
C2888 C2890 1.378 . S
C2888 C2892 1.350 . S
C2889 C2892 1.463 . S
C2889 C2894 1.350 . S
C2889 N2897 1.427 . S
C2890 H2881 0.930 . S
C2890 C2888 1.378 . S
C2890 C2891 1.367 . S
C2891 C2890 1.367 . S
C2891 C2893 1.433 . S
C2892 C2888 1.350 . S
C2892 C2889 1.463 . S
C2892 N2896 1.427 . S
C2893 H2883 0.929 . S
C2893 C2891 1.433 . S
C2893 N2896 1.384 . S
C2894 H2885 0.929 . S
C2894 C2886 1.378 . S
C2894 C2889 1.350 . S
C2895 H2882 0.929 . S
C2895 C2887 1.433 . S
C2895 N2897 1.384 . S
N2896 C2892 1.427 . S
N2896 C2893 1.384 . S
N2897 C2889 1.427 . S
N2897 C2895 1.384 . S
H2898 C2904 0.930 . S
H2899 C2908 0.930 . S
H2900 C2913 0.929 . S
H2901 C2911 0.929 . S
H2902 C2906 0.929 . S
H2903 C2912 0.929 . S
C2904 H2898 0.930 . S
C2904 C2905 1.367 . S
C2904 C2912 1.378 . S
C2905 C2904 1.367 . S
C2905 C2913 1.433 . S
C2906 H2902 0.929 . S
C2906 C2908 1.378 . S
C2906 C2910 1.350 . S
C2907 C2910 1.463 . S
C2907 C2912 1.350 . S
C2907 N2915 1.427 . S
C2908 H2899 0.930 . S
C2908 C2906 1.378 . S
C2908 C2909 1.367 . S
C2909 C2908 1.367 . S
C2909 C2911 1.433 . S
C2910 C2906 1.350 . S
C2910 C2907 1.463 . S
C2910 N2914 1.427 . S
C2911 H2901 0.929 . S
C2911 C2909 1.433 . S
C2911 N2914 1.384 . S
C2912 H2903 0.929 . S
C2912 C2904 1.378 . S
C2912 C2907 1.350 . S
C2913 H2900 0.929 . S
C2913 C2905 1.433 . S
C2913 N2915 1.384 . S
N2914 C2910 1.427 . S
N2914 C2911 1.384 . S
N2915 C2907 1.427 . S
N2915 C2913 1.384 . S
H2916 C2922 0.930 . S
H2917 C2926 0.930 . S
H2918 C2931 0.929 . S
H2919 C2929 0.929 . S
H2920 C2924 0.929 . S
H2921 C2930 0.929 . S
C2922 H2916 0.930 . S
C2922 C2923 1.367 . S
C2922 C2930 1.378 . S
C2923 C2922 1.367 . S
C2923 C2931 1.433 . S
C2924 H2920 0.929 . S
C2924 C2926 1.378 . S
C2924 C2928 1.350 . S
C2925 C2928 1.463 . S
C2925 C2930 1.350 . S
C2925 N2933 1.427 . S
C2926 H2917 0.930 . S
C2926 C2924 1.378 . S
C2926 C2927 1.367 . S
C2927 C2926 1.367 . S
C2927 C2929 1.433 . S
C2928 C2924 1.350 . S
C2928 C2925 1.463 . S
C2928 N2932 1.427 . S
C2929 H2919 0.929 . S
C2929 C2927 1.433 . S
C2929 N2932 1.384 . S
C2930 H2921 0.929 . S
C2930 C2922 1.378 . S
C2930 C2925 1.350 . S
C2931 H2918 0.929 . S
C2931 C2923 1.433 . S
C2931 N2933 1.384 . S
N2932 C2928 1.427 . S
N2932 C2929 1.384 . S
N2933 C2925 1.427 . S
N2933 C2931 1.384 . S
H2934 C2940 0.930 . S
H2935 C2944 0.973 . S
H2936 C2949 0.929 . S
H2937 C2947 0.929 . S
H2938 C2942 0.929 . S
H2939 C2948 0.929 . S
C2940 H2934 0.930 . S
C2940 C2941 1.367 . S
C2940 C2948 1.378 . S
C2941 C2940 1.367 . S
C2941 C2949 1.433 . S
C2942 H2938 0.929 . S
C2942 C2944 1.378 . S
C2942 C2946 1.350 . S
C2943 C2946 1.463 . S
C2943 C2948 1.350 . S
C2943 N2951 1.427 . S
C2944 H2935 0.973 . S
C2944 C2942 1.378 . S
C2944 C2945 1.367 . S
C2945 C2944 1.367 . S
C2945 C2947 1.433 . S
C2946 C2942 1.350 . S
C2946 C2943 1.463 . S
C2946 N2950 1.427 . S
C2947 H2937 0.929 . S
C2947 C2945 1.433 . S
C2947 N2950 1.384 . S
C2948 H2939 0.929 . S
C2948 C2940 1.378 . S
C2948 C2943 1.350 . S
C2949 H2936 0.929 . S
C2949 C2941 1.433 . S
C2949 N2951 1.384 . S
N2950 C2946 1.427 . S
N2950 C2947 1.384 . S
N2951 C2943 1.427 . S
N2951 C2949 1.384 . S
H2952 C2958 0.930 1_545 S
H2953 C2962 0.930 . S
H2954 C2967 0.929 . S
H2955 C2965 0.929 . S
H2956 C2960 0.929 . S
H2957 C2966 0.929 . S
C2958 H2952 0.930 1_565 S
C2958 C2959 1.367 . S
C2958 C2966 1.378 . S
C2959 C2958 1.367 . S
C2959 C2967 1.433 . S
C2960 H2956 0.929 . S
C2960 C2962 1.378 . S
C2960 C2964 1.350 . S
C2961 C2964 1.463 . S
C2961 C2966 1.350 . S
C2961 N2969 1.427 . S
C2962 H2953 0.930 . S
C2962 C2960 1.378 . S
C2962 C2963 1.367 . S
C2963 C2962 1.367 . S
C2963 C2965 1.433 . S
C2964 C2960 1.350 . S
C2964 C2961 1.463 . S
C2964 N2968 1.427 . S
C2965 H2955 0.929 . S
C2965 C2963 1.433 . S
C2965 N2968 1.384 . S
C2966 H2957 0.929 . S
C2966 C2958 1.378 . S
C2966 C2961 1.350 . S
C2967 H2954 0.929 . S
C2967 C2959 1.433 . S
C2967 N2969 1.384 . S
N2968 C2964 1.427 . S
N2968 C2965 1.384 . S
N2969 C2961 1.427 . S
N2969 C2967 1.384 . S
H2970 C2976 0.930 . S
H2971 C2980 0.930 . S
H2972 C2985 0.929 . S
H2973 C2983 0.929 . S
H2974 C2978 0.929 . S
H2975 C2984 0.929 . S
C2976 H2970 0.930 . S
C2976 C2977 1.367 . S
C2976 C2984 1.378 . S
C2977 C2976 1.367 . S
C2977 C2985 1.433 . S
C2978 H2974 0.929 . S
C2978 C2980 1.378 . S
C2978 C2982 1.350 . S
C2979 C2982 1.463 . S
C2979 C2984 1.350 . S
C2979 N2987 1.427 . S
C2980 H2971 0.930 . S
C2980 C2978 1.378 . S
C2980 C2981 1.367 . S
C2981 C2980 1.367 . S
C2981 C2983 1.433 . S
C2982 C2978 1.350 . S
C2982 C2979 1.463 . S
C2982 N2986 1.427 . S
C2983 H2973 0.929 . S
C2983 C2981 1.433 . S
C2983 N2986 1.384 . S
C2984 H2975 0.929 . S
C2984 C2976 1.378 . S
C2984 C2979 1.350 . S
C2985 H2972 0.929 . S
C2985 C2977 1.433 . S
C2985 N2987 1.384 . S
N2986 C2982 1.427 . S
N2986 C2983 1.384 . S
N2987 C2979 1.427 . S
N2987 C2985 1.384 . S
H2988 C2994 0.930 . S
H2989 C2998 0.930 . S
H2990 C3003 0.929 . S
H2991 C3001 0.929 . S
H2992 C2996 0.929 . S
H2993 C3002 0.929 . S
C2994 H2988 0.930 . S
C2994 C2995 1.367 . S
C2994 C3002 1.378 . S
C2995 C2994 1.367 . S
C2995 C3003 1.433 . S
C2996 H2992 0.929 . S
C2996 C2998 1.378 . S
C2996 C3000 1.350 . S
C2997 C3000 1.463 . S
C2997 C3002 1.350 . S
C2997 N3005 1.427 . S
C2998 H2989 0.930 . S
C2998 C2996 1.378 . S
C2998 C2999 1.367 . S
C2999 C2998 1.367 . S
C2999 C3001 1.433 . S
C3000 C2996 1.350 . S
C3000 C2997 1.463 . S
C3000 N3004 1.427 . S
C3001 H2991 0.929 . S
C3001 C2999 1.433 . S
C3001 N3004 1.384 . S
C3002 H2993 0.929 . S
C3002 C2994 1.378 . S
C3002 C2997 1.350 . S
C3003 H2990 0.929 . S
C3003 C2995 1.433 . S
C3003 N3005 1.384 . S
N3004 C3000 1.427 . S
N3004 C3001 1.384 . S
N3005 C2997 1.427 . S
N3005 C3003 1.384 . S
H3006 C3012 0.930 . S
H3007 C3016 0.930 . S
H3008 C3021 0.929 . S
H3009 C3019 0.929 . S
H3010 C3014 0.929 . S
H3011 C3020 0.929 . S
C3012 H3006 0.930 . S
C3012 C3013 1.367 . S
C3012 C3020 1.378 . S
C3013 C3012 1.367 . S
C3013 C3021 1.433 . S
C3014 H3010 0.929 . S
C3014 C3016 1.378 . S
C3014 C3018 1.350 . S
C3015 C3018 1.463 . S
C3015 C3020 1.350 . S
C3015 N3023 1.427 . S
C3016 H3007 0.930 . S
C3016 C3014 1.378 . S
C3016 C3017 1.367 . S
C3017 C3016 1.367 . S
C3017 C3019 1.433 . S
C3018 C3014 1.350 . S
C3018 C3015 1.463 . S
C3018 N3022 1.427 . S
C3019 H3009 0.929 . S
C3019 C3017 1.433 . S
C3019 N3022 1.384 . S
C3020 H3011 0.929 . S
C3020 C3012 1.378 . S
C3020 C3015 1.350 . S
C3021 H3008 0.929 . S
C3021 C3013 1.433 . S
C3021 N3023 1.384 . S
N3022 C3018 1.427 . S
N3022 C3019 1.384 . S
N3023 C3015 1.427 . S
N3023 C3021 1.384 . S
H3024 C3030 0.930 . S
H3025 C3034 0.930 . S
H3026 C3039 0.929 . S
H3027 C3037 0.929 . S
H3028 C3032 0.929 . S
H3029 C3038 0.929 . S
C3030 H3024 0.930 . S
C3030 C3031 1.367 . S
C3030 C3038 1.378 . S
C3031 C3030 1.367 . S
C3031 C3039 1.433 . S
C3032 H3028 0.929 . S
C3032 C3034 1.378 . S
C3032 C3036 1.350 . S
C3033 C3036 1.463 . S
C3033 C3038 1.350 . S
C3033 N3041 1.427 . S
C3034 H3025 0.930 . S
C3034 C3032 1.378 . S
C3034 C3035 1.367 . S
C3035 C3034 1.367 . S
C3035 C3037 1.433 . S
C3036 C3032 1.350 . S
C3036 C3033 1.463 . S
C3036 N3040 1.427 . S
C3037 H3027 0.929 . S
C3037 C3035 1.433 . S
C3037 N3040 1.384 . S
C3038 H3029 0.929 . S
C3038 C3030 1.378 . S
C3038 C3033 1.350 . S
C3039 H3026 0.929 . S
C3039 C3031 1.433 . S
C3039 N3041 1.384 . S
N3040 C3036 1.427 . S
N3040 C3037 1.384 . S
N3041 C3033 1.427 . S
N3041 C3039 1.384 . S
H3042 C3048 0.930 . S
H3043 C3052 0.930 . S
H3044 C3057 0.929 . S
H3045 C3055 0.929 . S
H3046 C3050 0.929 . S
H3047 C3056 0.929 . S
C3048 H3042 0.930 . S
C3048 C3049 1.367 . S
C3048 C3056 1.378 . S
C3049 C3048 1.367 . S
C3049 C3057 1.433 . S
C3050 H3046 0.929 . S
C3050 C3052 1.378 . S
C3050 C3054 1.350 . S
C3051 C3054 1.463 . S
C3051 C3056 1.350 . S
C3051 N3059 1.427 . S
C3052 H3043 0.930 . S
C3052 C3050 1.378 . S
C3052 C3053 1.367 . S
C3053 C3052 1.367 . S
C3053 C3055 1.433 . S
C3054 C3050 1.350 . S
C3054 C3051 1.463 . S
C3054 N3058 1.427 . S
C3055 H3045 0.929 . S
C3055 C3053 1.433 . S
C3055 N3058 1.384 . S
C3056 H3047 0.929 . S
C3056 C3048 1.378 . S
C3056 C3051 1.350 . S
C3057 H3044 0.929 . S
C3057 C3049 1.433 . S
C3057 N3059 1.384 . S
N3058 C3054 1.427 . S
N3058 C3055 1.384 . S
N3059 C3051 1.427 . S
N3059 C3057 1.384 . S
H3060 C3066 0.930 . S
H3061 C3070 0.930 . S
H3062 C3075 0.929 . S
H3063 C3073 0.929 . S
H3064 C3068 0.929 . S
H3065 C3074 0.929 . S
C3066 H3060 0.930 . S
C3066 C3067 1.367 . S
C3066 C3074 1.378 . S
C3067 C3066 1.367 . S
C3067 C3075 1.433 . S
C3068 H3064 0.929 . S
C3068 C3070 1.378 . S
C3068 C3072 1.350 . S
C3069 C3072 1.463 . S
C3069 C3074 1.350 . S
C3069 N3077 1.427 . S
C3070 H3061 0.930 . S
C3070 C3068 1.378 . S
C3070 C3071 1.367 . S
C3071 C3070 1.367 . S
C3071 C3073 1.433 . S
C3072 C3068 1.350 . S
C3072 C3069 1.463 . S
C3072 N3076 1.427 . S
C3073 H3063 0.929 . S
C3073 C3071 1.433 . S
C3073 N3076 1.384 . S
C3074 H3065 0.929 . S
C3074 C3066 1.378 . S
C3074 C3069 1.350 . S
C3075 H3062 0.929 . S
C3075 C3067 1.433 . S
C3075 N3077 1.384 . S
N3076 C3072 1.427 . S
N3076 C3073 1.384 . S
N3077 C3069 1.427 . S
N3077 C3075 1.384 . S
H3078 C3084 0.930 . S
H3079 C3088 0.930 . S
H3080 C3093 0.929 . S
H3081 C3091 0.929 . S
H3082 C3086 0.929 . S
H3083 C3092 0.929 . S
C3084 H3078 0.930 . S
C3084 C3085 1.367 . S
C3084 C3092 1.378 . S
C3085 C3084 1.367 . S
C3085 C3093 1.433 . S
C3086 H3082 0.929 . S
C3086 C3088 1.378 . S
C3086 C3090 1.350 . S
C3087 C3090 1.463 . S
C3087 C3092 1.350 . S
C3087 N3095 1.427 . S
C3088 H3079 0.930 . S
C3088 C3086 1.378 . S
C3088 C3089 1.367 . S
C3089 C3088 1.367 . S
C3089 C3091 1.433 . S
C3090 C3086 1.350 . S
C3090 C3087 1.463 . S
C3090 N3094 1.427 . S
C3091 H3081 0.929 . S
C3091 C3089 1.433 . S
C3091 N3094 1.384 . S
C3092 H3083 0.929 . S
C3092 C3084 1.378 . S
C3092 C3087 1.350 . S
C3093 H3080 0.929 . S
C3093 C3085 1.433 . S
C3093 N3095 1.384 . S
N3094 C3090 1.427 . S
N3094 C3091 1.384 . S
N3095 C3087 1.427 . S
N3095 C3093 1.384 . S
H3096 C3102 0.930 . S
H3097 C3106 0.930 . S
H3098 C3111 0.929 . S
H3099 C3109 0.929 . S
H3100 C3104 0.929 . S
H3101 C3110 0.929 . S
C3102 H3096 0.930 . S
C3102 C3103 1.367 . S
C3102 C3110 1.378 . S
C3103 C3102 1.367 . S
C3103 C3111 1.433 . S
C3104 H3100 0.929 . S
C3104 C3106 1.378 . S
C3104 C3108 1.350 . S
C3105 C3108 1.463 . S
C3105 C3110 1.350 . S
C3105 N3113 1.427 . S
C3106 H3097 0.930 . S
C3106 C3104 1.378 . S
C3106 C3107 1.367 . S
C3107 C3106 1.367 . S
C3107 C3109 1.433 . S
C3108 C3104 1.350 . S
C3108 C3105 1.463 . S
C3108 N3112 1.427 . S
C3109 H3099 0.929 . S
C3109 C3107 1.433 . S
C3109 N3112 1.384 . S
C3110 H3101 0.929 . S
C3110 C3102 1.378 . S
C3110 C3105 1.350 . S
C3111 H3098 0.929 . S
C3111 C3103 1.433 . S
C3111 N3113 1.384 . S
N3112 C3108 1.427 . S
N3112 C3109 1.384 . S
N3113 C3105 1.427 . S
N3113 C3111 1.384 . S
H3114 C3120 0.930 . S
H3115 C3124 0.930 . S
H3116 C3129 0.929 . S
H3117 C3127 0.929 . S
H3118 C3122 0.929 . S
H3119 C3128 0.929 . S
C3120 H3114 0.930 . S
C3120 C3121 1.367 . S
C3120 C3128 1.378 . S
C3121 C3120 1.367 . S
C3121 C3129 1.433 . S
C3122 H3118 0.929 . S
C3122 C3124 1.378 . S
C3122 C3126 1.350 . S
C3123 C3126 1.463 . S
C3123 C3128 1.350 . S
C3123 N3131 1.427 . S
C3124 H3115 0.930 . S
C3124 C3122 1.378 . S
C3124 C3125 1.367 . S
C3125 C3124 1.367 . S
C3125 C3127 1.433 . S
C3126 C3122 1.350 . S
C3126 C3123 1.463 . S
C3126 N3130 1.427 . S
C3127 H3117 0.929 . S
C3127 C3125 1.433 . S
C3127 N3130 1.384 . S
C3128 H3119 0.929 . S
C3128 C3120 1.378 . S
C3128 C3123 1.350 . S
C3129 H3116 0.929 . S
C3129 C3121 1.433 . S
C3129 N3131 1.384 . S
N3130 C3126 1.427 . S
N3130 C3127 1.384 . S
N3131 C3123 1.427 . S
N3131 C3129 1.384 . S
H3132 C3138 0.930 . S
H3133 C3142 0.930 . S
H3134 C3147 0.929 . S
H3135 C3145 0.929 . S
H3136 C3140 0.929 . S
H3137 C3146 0.929 . S
C3138 H3132 0.930 . S
C3138 C3139 1.367 . S
C3138 C3146 1.378 . S
C3139 C3138 1.367 . S
C3139 C3147 1.433 . S
C3140 H3136 0.929 . S
C3140 C3142 1.378 . S
C3140 C3144 1.350 . S
C3141 C3144 1.463 . S
C3141 C3146 1.350 . S
C3141 N3149 1.427 . S
C3142 H3133 0.930 . S
C3142 C3140 1.378 . S
C3142 C3143 1.367 . S
C3143 C3142 1.367 . S
C3143 C3145 1.433 . S
C3144 C3140 1.350 . S
C3144 C3141 1.463 . S
C3144 N3148 1.427 . S
C3145 H3135 0.929 . S
C3145 C3143 1.433 . S
C3145 N3148 1.384 . S
C3146 H3137 0.929 . S
C3146 C3138 1.378 . S
C3146 C3141 1.350 . S
C3147 H3134 0.929 . S
C3147 C3139 1.433 . S
C3147 N3149 1.384 . S
N3148 C3144 1.427 . S
N3148 C3145 1.384 . S
N3149 C3141 1.427 . S
N3149 C3147 1.384 . S
H3150 C3156 0.930 . S
H3151 C3160 0.930 . S
H3152 C3165 0.929 . S
H3153 C3163 0.929 . S
H3154 C3158 0.929 . S
H3155 C3164 0.929 . S
C3156 H3150 0.930 . S
C3156 C3157 1.367 . S
C3156 C3164 1.378 . S
C3157 C3156 1.367 . S
C3157 C3165 1.433 . S
C3158 H3154 0.929 . S
C3158 C3160 1.378 . S
C3158 C3162 1.350 . S
C3159 C3162 1.463 . S
C3159 C3164 1.350 . S
C3159 N3167 1.427 . S
C3160 H3151 0.930 . S
C3160 C3158 1.378 . S
C3160 C3161 1.367 . S
C3161 C3160 1.367 . S
C3161 C3163 1.433 . S
C3162 C3158 1.350 . S
C3162 C3159 1.463 . S
C3162 N3166 1.427 . S
C3163 H3153 0.929 . S
C3163 C3161 1.433 . S
C3163 N3166 1.384 . S
C3164 H3155 0.929 . S
C3164 C3156 1.378 . S
C3164 C3159 1.350 . S
C3165 H3152 0.929 . S
C3165 C3157 1.433 . S
C3165 N3167 1.384 . S
N3166 C3162 1.427 . S
N3166 C3163 1.384 . S
N3167 C3159 1.427 . S
N3167 C3165 1.384 . S
H3168 C3174 0.930 . S
H3169 C3178 0.930 . S
H3170 C3183 0.929 . S
H3171 C3181 0.929 . S
H3172 C3176 0.929 . S
H3173 C3182 0.929 . S
C3174 H3168 0.930 . S
C3174 C3175 1.367 . S
C3174 C3182 1.378 . S
C3175 C3174 1.367 . S
C3175 C3183 1.433 . S
C3176 H3172 0.929 . S
C3176 C3178 1.378 . S
C3176 C3180 1.350 . S
C3177 C3180 1.463 . S
C3177 C3182 1.350 . S
C3177 N3185 1.427 . S
C3178 H3169 0.930 . S
C3178 C3176 1.378 . S
C3178 C3179 1.367 . S
C3179 C3178 1.367 . S
C3179 C3181 1.433 . S
C3180 C3176 1.350 . S
C3180 C3177 1.463 . S
C3180 N3184 1.427 . S
C3181 H3171 0.929 . S
C3181 C3179 1.433 . S
C3181 N3184 1.384 . S
C3182 H3173 0.929 . S
C3182 C3174 1.378 . S
C3182 C3177 1.350 . S
C3183 H3170 0.929 . S
C3183 C3175 1.433 . S
C3183 N3185 1.384 . S
N3184 C3180 1.427 . S
N3184 C3181 1.384 . S
N3185 C3177 1.427 . S
N3185 C3183 1.384 . S
H3186 C3192 0.930 . S
H3187 C3196 0.930 . S
H3188 C3201 0.929 . S
H3189 C3199 0.929 . S
H3190 C3194 0.929 . S
H3191 C3200 0.929 . S
C3192 H3186 0.930 . S
C3192 C3193 1.367 . S
C3192 C3200 1.378 . S
C3193 C3192 1.367 . S
C3193 C3201 1.433 . S
C3194 H3190 0.929 . S
C3194 C3196 1.378 . S
C3194 C3198 1.350 . S
C3195 C3198 1.463 . S
C3195 C3200 1.350 . S
C3195 N3203 1.427 . S
C3196 H3187 0.930 . S
C3196 C3194 1.378 . S
C3196 C3197 1.367 . S
C3197 C3196 1.367 . S
C3197 C3199 1.433 . S
C3198 C3194 1.350 . S
C3198 C3195 1.463 . S
C3198 N3202 1.427 . S
C3199 H3189 0.929 . S
C3199 C3197 1.433 . S
C3199 N3202 1.384 . S
C3200 H3191 0.929 . S
C3200 C3192 1.378 . S
C3200 C3195 1.350 . S
C3201 H3188 0.929 . S
C3201 C3193 1.433 . S
C3201 N3203 1.384 . S
N3202 C3198 1.427 . S
N3202 C3199 1.384 . S
N3203 C3195 1.427 . S
N3203 C3201 1.384 . S
H3204 C3210 0.930 . S
H3205 C3214 0.930 . S
H3206 C3219 0.929 . S
H3207 C3217 0.929 . S
H3208 C3212 0.929 . S
H3209 C3218 0.929 . S
C3210 H3204 0.930 . S
C3210 C3211 1.367 . S
C3210 C3218 1.378 . S
C3211 C3210 1.367 . S
C3211 C3219 1.433 . S
C3212 H3208 0.929 . S
C3212 C3214 1.378 . S
C3212 C3216 1.350 . S
C3213 C3216 1.463 . S
C3213 C3218 1.350 . S
C3213 N3221 1.427 . S
C3214 H3205 0.930 . S
C3214 C3212 1.378 . S
C3214 C3215 1.367 . S
C3215 C3214 1.367 . S
C3215 C3217 1.433 . S
C3216 C3212 1.350 . S
C3216 C3213 1.463 . S
C3216 N3220 1.427 . S
C3217 H3207 0.929 . S
C3217 C3215 1.433 . S
C3217 N3220 1.384 . S
C3218 H3209 0.929 . S
C3218 C3210 1.378 . S
C3218 C3213 1.350 . S
C3219 H3206 0.929 . S
C3219 C3211 1.433 . S
C3219 N3221 1.384 . S
N3220 C3216 1.427 . S
N3220 C3217 1.384 . S
N3221 C3213 1.427 . S
N3221 C3219 1.384 . S
H3222 C3228 0.930 . S
H3223 C3232 0.930 . S
H3224 C3237 0.929 . S
H3225 C3235 0.929 . S
H3226 C3230 0.929 . S
H3227 C3236 0.929 . S
C3228 H3222 0.930 . S
C3228 C3229 1.367 . S
C3228 C3236 1.378 . S
C3229 C3228 1.367 . S
C3229 C3237 1.433 . S
C3230 H3226 0.929 . S
C3230 C3232 1.378 . S
C3230 C3234 1.350 . S
C3231 C3234 1.463 . S
C3231 C3236 1.350 . S
C3231 N3239 1.427 . S
C3232 H3223 0.930 . S
C3232 C3230 1.378 . S
C3232 C3233 1.367 . S
C3233 C3232 1.367 . S
C3233 C3235 1.433 . S
C3234 C3230 1.350 . S
C3234 C3231 1.463 . S
C3234 N3238 1.427 . S
C3235 H3225 0.929 . S
C3235 C3233 1.433 . S
C3235 N3238 1.384 . S
C3236 H3227 0.929 . S
C3236 C3228 1.378 . S
C3236 C3231 1.350 . S
C3237 H3224 0.929 . S
C3237 C3229 1.433 . S
C3237 N3239 1.384 . S
N3238 C3234 1.427 . S
N3238 C3235 1.384 . S
N3239 C3231 1.427 . S
N3239 C3237 1.384 . S
H3240 C3246 0.930 . S
H3241 C3250 0.930 . S
H3242 C3255 0.929 . S
H3243 C3253 0.929 . S
H3244 C3248 0.929 . S
H3245 C3254 0.929 . S
C3246 H3240 0.930 . S
C3246 C3247 1.367 . S
C3246 C3254 1.378 . S
C3247 C3246 1.367 . S
C3247 C3255 1.433 . S
C3248 H3244 0.929 . S
C3248 C3250 1.378 . S
C3248 C3252 1.350 . S
C3249 C3252 1.463 . S
C3249 C3254 1.350 . S
C3249 N3257 1.427 . S
C3250 H3241 0.930 . S
C3250 C3248 1.378 . S
C3250 C3251 1.367 . S
C3251 C3250 1.367 . S
C3251 C3253 1.433 . S
C3252 C3248 1.350 . S
C3252 C3249 1.463 . S
C3252 N3256 1.427 . S
C3253 H3243 0.929 . S
C3253 C3251 1.433 . S
C3253 N3256 1.384 . S
C3254 H3245 0.929 . S
C3254 C3246 1.378 . S
C3254 C3249 1.350 . S
C3255 H3242 0.929 . S
C3255 C3247 1.433 . S
C3255 N3257 1.384 . S
N3256 C3252 1.427 . S
N3256 C3253 1.384 . S
N3257 C3249 1.427 . S
N3257 C3255 1.384 . S
H3258 C3264 0.930 . S
H3259 C3268 0.930 . S
H3260 C3273 0.929 . S
H3261 C3271 0.929 1_554 S
H3262 C3266 0.929 . S
H3263 C3272 0.929 . S
C3264 H3258 0.930 . S
C3264 C3265 1.367 . S
C3264 C3272 1.378 . S
C3265 C3264 1.367 . S
C3265 C3273 1.433 . S
C3266 H3262 0.929 . S
C3266 C3268 1.378 . S
C3266 C3270 1.350 . S
C3267 C3270 1.463 . S
C3267 C3272 1.350 . S
C3267 N3275 1.427 . S
C3268 H3259 0.930 . S
C3268 C3266 1.378 . S
C3268 C3269 1.367 . S
C3269 C3268 1.367 . S
C3269 C3271 1.433 . S
C3270 C3266 1.350 . S
C3270 C3267 1.463 . S
C3270 N3274 1.427 . S
C3271 H3261 0.929 1_556 S
C3271 C3269 1.433 . S
C3271 N3274 1.384 . S
C3272 H3263 0.929 . S
C3272 C3264 1.378 . S
C3272 C3267 1.350 . S
C3273 H3260 0.929 . S
C3273 C3265 1.433 . S
C3273 N3275 1.384 . S
N3274 C3270 1.427 . S
N3274 C3271 1.384 . S
N3275 C3267 1.427 . S
N3275 C3273 1.384 . S
H3276 C3282 0.930 . S
H3277 C3286 0.930 . S
H3278 C3291 0.929 . S
H3279 C3289 0.929 . S
H3280 C3284 0.929 . S
H3281 C3290 0.929 . S
C3282 H3276 0.930 . S
C3282 C3283 1.367 . S
C3282 C3290 1.378 . S
C3283 C3282 1.367 . S
C3283 C3291 1.433 . S
C3284 H3280 0.929 . S
C3284 C3286 1.378 . S
C3284 C3288 1.350 . S
C3285 C3288 1.463 . S
C3285 C3290 1.350 . S
C3285 N3293 1.427 . S
C3286 H3277 0.930 . S
C3286 C3284 1.378 . S
C3286 C3287 1.367 . S
C3287 C3286 1.367 . S
C3287 C3289 1.433 . S
C3288 C3284 1.350 . S
C3288 C3285 1.463 . S
C3288 N3292 1.427 . S
C3289 H3279 0.929 . S
C3289 C3287 1.433 . S
C3289 N3292 1.384 . S
C3290 H3281 0.929 . S
C3290 C3282 1.378 . S
C3290 C3285 1.350 . S
C3291 H3278 0.929 . S
C3291 C3283 1.433 . S
C3291 N3293 1.384 . S
N3292 C3288 1.427 . S
N3292 C3289 1.384 . S
N3293 C3285 1.427 . S
N3293 C3291 1.384 . S
H3294 C3300 0.930 . S
H3295 C3304 0.930 . S
H3296 C3309 0.929 . S
H3297 C3307 0.929 . S
H3298 C3302 0.929 . S
H3299 C3308 0.929 . S
C3300 H3294 0.930 . S
C3300 C3301 1.367 . S
C3300 C3308 1.378 . S
C3301 C3300 1.367 . S
C3301 C3309 1.433 . S
C3302 H3298 0.929 . S
C3302 C3304 1.378 . S
C3302 C3306 1.350 . S
C3303 C3306 1.463 . S
C3303 C3308 1.350 . S
C3303 N3311 1.427 . S
C3304 H3295 0.930 . S
C3304 C3302 1.378 . S
C3304 C3305 1.367 . S
C3305 C3304 1.367 . S
C3305 C3307 1.433 . S
C3306 C3302 1.350 . S
C3306 C3303 1.463 . S
C3306 N3310 1.427 . S
C3307 H3297 0.929 . S
C3307 C3305 1.433 . S
C3307 N3310 1.384 . S
C3308 H3299 0.929 . S
C3308 C3300 1.378 . S
C3308 C3303 1.350 . S
C3309 H3296 0.929 . S
C3309 C3301 1.433 . S
C3309 N3311 1.384 . S
N3310 C3306 1.427 . S
N3310 C3307 1.384 . S
N3311 C3303 1.427 . S
N3311 C3309 1.384 . S
C2023 C74 2.361 . S
C2027 C1579 2.385 . S
C2041 C1663 2.385 . S
C2045 C158 2.366 . S
C2059 C242 2.366 . S
C2063 C1411 2.393 . S
C2077 C326 2.368 . S
C2081 C1495 2.393 . S
C2095 C1915 2.390 . S
C2099 C410 2.363 . S
C2113 C494 2.368 . S
C2117 C1831 2.386 . S
C2131 C1999 2.390 . S
C2135 C578 2.362 . S
C2149 C662 2.367 . S
C2153 C1747 2.385 . S
C2167 C746 2.362 . S
C2171 C1159 2.389 . S
C2185 C830 2.370 . S
C2189 C1327 2.392 . S
C2203 C1243 2.391 . S
C2207 C914 2.363 . S
C2221 C998 2.363 . S
C2225 C1075 2.384 . S
C2239 C1071 2.371 . S
C2243 C560 2.391 . S
C2257 C1155 2.369 . S
C2261 C644 2.386 . S
C2275 C1239 2.371 . S
C2279 C392 2.391 . S
C2293 C476 2.390 . S
C2297 C1323 2.371 . S
C2311 C1407 2.363 . S
C2315 C896 2.391 . S
C2329 C812 2.391 . S
C2333 C1491 2.363 . S
C2347 C980 2.389 . S
C2351 C1575 2.362 . S
C2365 C728 2.390 . S
C2369 C1659 2.362 . S
C2383 C140 2.385 . S
C2387 C1743 2.361 . S
C2401 C308 2.392 . S
C2405 C1827 2.370 . S
C2419 C224 2.393 . S
C2423 C1911 2.369 . S
C2437 C1995 2.369 . S
C2441 C56 2.387 . S
C2455 C403 1.491 . S
C2459 C70 1.252 . S
C2473 C487 1.502 . S
C2477 C154 1.243 . S
C2491 C571 1.484 . S
C2495 C238 1.239 . S
C2509 C655 1.483 . S
C2513 C322 1.228 . S
C2527 C406 1.253 . S
C2531 C739 1.494 . S
C2545 C490 1.225 . S
C2549 C991 1.484 . S
C2563 C574 1.252 . S
C2567 C823 1.491 . S
C2581 C658 1.253 . S
C2585 C907 1.494 . S
C2599 C742 1.253 . S
C2603 C67 1.493 . S
C2617 C826 1.246 . S
C2621 C235 1.501 . S
C2635 C910 1.253 . S
C2639 C319 1.496 . S
C2653 C151 1.500 . S
C2657 C994 1.229 . S
C2671 C1400 1.492 . S
C2675 C1066 1.253 . S
C2689 C1484 1.502 . S
C2693 C1150 1.239 . S
C2707 C1234 1.228 . S
C2711 C1568 1.500 . S
C2725 C1318 1.246 . S
C2729 C1652 1.486 . S
C2743 C1736 1.490 . S
C2747 C1402 1.220 . S
C2761 C1486 1.242 . S
C2765 C1988 1.502 . S
C2779 C1820 1.489 . S
C2783 C1570 1.220 . S
C2797 C1654 1.230 . S
C2801 C1904 1.483 . S
C2815 C1064 1.502 . S
C2819 C1738 1.239 . S
C2833 C1822 1.224 . S
C2837 C1232 1.485 . S
C2851 C1906 1.250 . S
C2855 C1316 1.489 . S
C2869 C1148 1.484 . S
C2873 C1990 1.225 . S
C2887 C63 1.407 . S
C2891 C814 1.441 . S
C2905 C898 1.445 . S
C2909 C147 1.408 . S
C2923 C730 1.430 . S
C2927 C231 1.418 . S
C2941 C982 1.444 . S
C2945 C315 1.409 . S
C2959 C399 1.405 . S
C2963 C310 1.445 . S
C2977 C226 1.439 . S
C2981 C483 1.409 . S
C2995 C567 1.409 . S
C2999 C142 1.439 . S
C3013 C58 1.425 . S
C3017 C651 1.425 . S
C3031 C735 1.422 . S
C3035 C478 1.427 . S
C3049 C819 1.424 . S
C3053 C646 1.426 . S
C3067 C903 1.411 . S
C3071 C562 1.443 . S
C3085 C987 1.428 . S
C3089 C394 1.424 . S
C3103 C1082 1.422 . S
C3107 C1834 1.427 . S
C3121 C1166 1.424 . S
C3125 C1918 1.432 . S
C3139 C1750 1.428 . S
C3143 C1250 1.427 . S
C3157 C2002 1.427 . S
C3161 C1334 1.422 . S
C3175 C1418 1.421 . S
C3179 C1330 1.427 . S
C3193 C1502 1.407 . S
C3197 C1246 1.441 . S
C3211 C1162 1.426 . S
C3215 C1586 1.424 . S
C3229 C1670 1.413 . S
C3233 C1078 1.442 . S
C3247 C1754 1.410 . S
C3251 C1498 1.438 . S
C3265 C1666 1.424 . S
C3269 C1838 1.426 . S
C3283 C1922 1.408 . S
C3287 C1582 1.440 . S
C3301 C2006 1.428 . S
C3305 C1414 1.426 . S
