# Generated by pormake.
# Topology uoc, (4)-cn, num edge types: 1
# Building blocks:
#     Node 0, Type 0, BuildingBlock: KUFVIS_clean_sbu_0, # of connection points: 4
#     Node 1, Type 0, BuildingBlock: KUFVIS_clean_sbu_0, # of connection points: 4
#     Node 2, Type 0, BuildingBlock: KUFVIS_clean_sbu_0, # of connection points: 4
#     Node 3, Type 0, BuildingBlock: KUFVIS_clean_sbu_0, # of connection points: 4
#     Node 4, Type 0, BuildingBlock: KUFVIS_clean_sbu_0, # of connection points: 4
#     Node 5, Type 0, BuildingBlock: KUFVIS_clean_sbu_0, # of connection points: 4
#     Node 6, Type 0, BuildingBlock: KUFVIS_clean_sbu_0, # of connection points: 4
#     Node 7, Type 0, BuildingBlock: KUFVIS_clean_sbu_0, # of connection points: 4
#     Edge 8, Type (0, 0), BuildingBlock: MIFKUJ_clean_linker_0, # of connection points: 2
#     Edge 9, Type (0, 0), BuildingBlock: MIFKUJ_clean_linker_0, # of connection points: 2
#     Edge 10, Type (0, 0), BuildingBlock: MIFKUJ_clean_linker_0, # of connection points: 2
#     Edge 11, Type (0, 0), BuildingBlock: MIFKUJ_clean_linker_0, # of connection points: 2
#     Edge 12, Type (0, 0), BuildingBlock: MIFKUJ_clean_linker_0, # of connection points: 2
#     Edge 13, Type (0, 0), BuildingBlock: MIFKUJ_clean_linker_0, # of connection points: 2
#     Edge 14, Type (0, 0), BuildingBlock: MIFKUJ_clean_linker_0, # of connection points: 2
#     Edge 15, Type (0, 0), BuildingBlock: MIFKUJ_clean_linker_0, # of connection points: 2
#     Edge 16, Type (0, 0), BuildingBlock: MIFKUJ_clean_linker_0, # of connection points: 2
#     Edge 17, Type (0, 0), BuildingBlock: MIFKUJ_clean_linker_0, # of connection points: 2
#     Edge 18, Type (0, 0), BuildingBlock: MIFKUJ_clean_linker_0, # of connection points: 2
#     Edge 19, Type (0, 0), BuildingBlock: MIFKUJ_clean_linker_0, # of connection points: 2
#     Edge 20, Type (0, 0), BuildingBlock: MIFKUJ_clean_linker_0, # of connection points: 2
#     Edge 21, Type (0, 0), BuildingBlock: MIFKUJ_clean_linker_0, # of connection points: 2
#     Edge 22, Type (0, 0), BuildingBlock: MIFKUJ_clean_linker_0, # of connection points: 2
#     Edge 23, Type (0, 0), BuildingBlock: MIFKUJ_clean_linker_0, # of connection points: 2
# Relax obj value: 0.118
# Max RMSD: 0.133
# Mean RMSD: 0.131
data_MOF--net-uoc--node1-KUFVIS_clean_sbu_0--edge1-MIFKUJ_clean_linker_0
_symmetry_space_group_name_H-M    P1
_symmetry_Int_Tables_number       1
_symmetry_cell_setting            triclinic
loop_
_symmetry_equiv_pos_as_xyz
'x, y, z'
_cell_length_a     35.230106
_cell_length_b     35.253998
_cell_length_c     69.824453
_cell_angle_alpha  90.593955
_cell_angle_beta   90.601237
_cell_angle_gamma 89.934392
loop_
_atom_site_label
_atom_site_type_symbol
_atom_site_fract_x
_atom_site_fract_y
_atom_site_fract_z
_atom_type_partial_charge
Mn0 Mn 0.09587 0.21866 0.12494 0.0
Mn1 Mn 0.17606 0.16879 0.1331 0.0
C2 C 0.12025 0.21401 0.15564 0.0
C3 C 0.06545 0.27516 0.11709 0.0
C4 C 0.09952 0.13217 0.12537 0.0
O5 O 0.11881 0.21377 0.09845 0.0
O6 O 0.17371 0.18408 0.10584 0.0
C7 C 0.23316 0.22891 0.127 0.0
N8 N 0.21751 0.20226 0.13848 0.0
C9 C 0.26295 0.21552 0.16362 0.0
C10 C 0.27968 0.24299 0.15204 0.0
C11 C 0.26465 0.24977 0.13367 0.0
C12 C 0.2317 0.19555 0.15618 0.0
H13 H 0.22169 0.23419 0.11287 0.0
C14 C 0.15111 0.20012 0.0939 0.0
O15 O 0.04899 0.24256 0.11441 0.0
O16 O 0.09983 0.2748 0.12393 0.0
N17 N 0.18176 0.15291 0.15906 0.0
C18 C 0.16068 0.12738 0.16887 0.0
C19 C 0.17129 0.11808 0.18767 0.0
C20 C 0.20352 0.13495 0.19611 0.0
C21 C 0.2246 0.16138 0.1858 0.0
C22 C 0.2128 0.16934 0.16707 0.0
H23 H 0.136 0.11416 0.1624 0.0
O24 O 0.08467 0.22208 0.15286 0.0
O25 O 0.14037 0.20891 0.14035 0.0
O26 O 0.08041 0.16279 0.12429 0.0
O27 O 0.13538 0.13146 0.12813 0.0
C28 C 0.25665 0.18035 0.19339 0.0
C29 C 0.27567 0.20757 0.18236 0.0
H30 H 0.30388 0.25924 0.15716 0.0
H31 H 0.27731 0.27103 0.12468 0.0
H32 H 0.15481 0.09779 0.1956 0.0
H33 H 0.21179 0.12729 0.21049 0.0
H34 H 0.26677 0.17446 0.20773 0.0
H35 H 0.29991 0.2224 0.18847 0.0
Mn36 Mn 0.76035 0.62429 0.37952 0.0
Mn37 Mn 0.80622 0.70616 0.38936 0.0
C38 C 0.75637 0.6508 0.40957 0.0
C39 C 0.70627 0.59379 0.36771 0.0
C40 C 0.84579 0.62961 0.38685 0.0
O41 O 0.77357 0.64397 0.35339 0.0
O42 O 0.79916 0.70085 0.361 0.0
C43 C 0.74694 0.76038 0.37693 0.0
N44 N 0.77042 0.74681 0.39088 0.0
C45 C 0.74691 0.79238 0.41377 0.0
C46 C 0.7227 0.80705 0.3996 0.0
C47 C 0.72269 0.79095 0.3811 0.0
C48 C 0.77073 0.76215 0.40871 0.0
H49 H 0.74663 0.7479 0.36274 0.0
C50 C 0.78795 0.67569 0.34878 0.0
O51 O 0.73893 0.57658 0.36816 0.0
O52 O 0.70545 0.62869 0.37369 0.0
N53 N 0.81449 0.71494 0.41619 0.0
C54 C 0.83782 0.69599 0.4285 0.0
C55 C 0.84009 0.70766 0.44778 0.0
C56 C 0.81853 0.73876 0.45416 0.0
C57 C 0.79504 0.75807 0.44118 0.0
C58 C 0.79419 0.74536 0.4221 0.0
H59 H 0.8543 0.67193 0.42371 0.0
O60 O 0.74877 0.61515 0.40683 0.0
O61 O 0.76544 0.67007 0.39449 0.0
O62 O 0.81599 0.60964 0.384 0.0
O63 O 0.84522 0.66577 0.38856 0.0
C64 C 0.77178 0.78887 0.44651 0.0
C65 C 0.74773 0.806 0.43282 0.0
H66 H 0.70372 0.83041 0.4028 0.0
H67 H 0.70392 0.80196 0.37012 0.0
H68 H 0.85824 0.69257 0.45771 0.0
H69 H 0.82001 0.74739 0.46908 0.0
H70 H 0.77177 0.79926 0.46116 0.0
H71 H 0.72959 0.82932 0.43715 0.0
Mn72 Mn 0.35891 0.23898 0.60941 0.0
Mn73 Mn 0.28096 0.18457 0.60382 0.0
C74 C 0.33294 0.22922 0.57938 0.0
C75 C 0.38667 0.2976 0.61598 0.0
C76 C 0.35975 0.15212 0.60998 0.0
O77 O 0.33854 0.23569 0.6363 0.0
O78 O 0.28563 0.20101 0.63114 0.0
C79 C 0.2227 0.24331 0.61128 0.0
N80 N 0.23814 0.21671 0.5994 0.0
C81 C 0.19039 0.22801 0.57525 0.0
C82 C 0.17383 0.2554 0.58725 0.0
C83 C 0.19018 0.26321 0.6053 0.0
C84 C 0.22299 0.2094 0.5819 0.0
H85 H 0.2351 0.24926 0.6252 0.0
C86 C 0.30849 0.21958 0.64213 0.0
O87 O 0.40497 0.26618 0.61899 0.0
O88 O 0.35219 0.29494 0.60941 0.0
N89 N 0.27292 0.16681 0.57813 0.0
C90 C 0.2926 0.13987 0.56821 0.0
C91 C 0.28032 0.12921 0.54973 0.0
C92 C 0.24763 0.14591 0.54179 0.0
C93 C 0.22753 0.1731 0.55241 0.0
C94 C 0.24125 0.18279 0.57069 0.0
H95 H 0.31757 0.1267 0.5743 0.0
O96 O 0.36809 0.23973 0.58134 0.0
O97 O 0.31397 0.22533 0.59508 0.0
O98 O 0.37711 0.18385 0.61074 0.0
O99 O 0.32382 0.14928 0.60773 0.0
C100 C 0.19419 0.19068 0.54566 0.0
C101 C 0.17571 0.21826 0.55702 0.0
H102 H 0.14863 0.27065 0.58273 0.0
H103 H 0.17764 0.28438 0.61462 0.0
H104 H 0.29593 0.10809 0.54166 0.0
H105 H 0.23817 0.13756 0.52755 0.0
H106 H 0.18248 0.18292 0.53179 0.0
H107 H 0.15008 0.23162 0.55168 0.0
Mn108 Mn 0.77941 0.90952 0.86627 0.0
Mn109 Mn 0.8357 0.83353 0.8579 0.0
C110 C 0.78058 0.88237 0.83602 0.0
C111 C 0.72177 0.93617 0.87553 0.0
C112 C 0.8655 0.91399 0.86168 0.0
O113 O 0.79054 0.89017 0.89303 0.0
O114 O 0.82513 0.8383 0.88572 0.0
C115 C 0.78439 0.77126 0.86908 0.0
N116 N 0.80704 0.78769 0.85583 0.0
C117 C 0.79771 0.73551 0.8338 0.0
C118 C 0.7744 0.71794 0.84724 0.0
C119 C 0.76766 0.73594 0.86494 0.0
C120 C 0.81393 0.77051 0.83881 0.0
H121 H 0.77918 0.78497 0.88271 0.0
C122 C 0.80843 0.86015 0.89777 0.0
O123 O 0.7532 0.9553 0.87656 0.0
O124 O 0.72405 0.90117 0.86972 0.0
N125 N 0.84764 0.82515 0.83155 0.0
C126 C 0.86774 0.84758 0.81955 0.0
C127 C 0.87574 0.83446 0.80098 0.0
C128 C 0.8631 0.79843 0.79497 0.0
C129 C 0.84212 0.77604 0.80751 0.0
C130 C 0.83542 0.79041 0.82593 0.0
H131 H 0.87767 0.87521 0.82415 0.0
O132 O 0.77036 0.91745 0.83848 0.0
O133 O 0.79048 0.86405 0.85141 0.0
O134 O 0.83359 0.93022 0.86421 0.0
O135 O 0.86899 0.87825 0.85947 0.0
C136 C 0.82694 0.74037 0.80233 0.0
C137 C 0.8047 0.72015 0.81546 0.0
H138 H 0.76119 0.69084 0.84404 0.0
H139 H 0.7496 0.72262 0.87535 0.0
H140 H 0.89176 0.852 0.79135 0.0
H141 H 0.86945 0.78835 0.78066 0.0
H142 H 0.83162 0.72855 0.78817 0.0
H143 H 0.79259 0.69309 0.81118 0.0
Mn144 Mn 0.58691 0.7396 0.63172 0.0
Mn145 Mn 0.66458 0.68424 0.63622 0.0
C146 C 0.61714 0.73619 0.66113 0.0
C147 C 0.55905 0.7974 0.62386 0.0
C148 C 0.58417 0.65381 0.63254 0.0
O149 O 0.60331 0.72988 0.60423 0.0
O150 O 0.65973 0.70099 0.60923 0.0
C151 C 0.72668 0.73813 0.62828 0.0
N152 N 0.71026 0.71253 0.64007 0.0
C153 C 0.76205 0.71744 0.66271 0.0
C154 C 0.77967 0.74367 0.65074 0.0
C155 C 0.76185 0.75413 0.63348 0.0
C156 C 0.72724 0.70209 0.65666 0.0
H157 H 0.713 0.74632 0.61504 0.0
C158 C 0.63478 0.7164 0.59829 0.0
O159 O 0.53997 0.76593 0.62305 0.0
O160 O 0.59462 0.79513 0.62875 0.0
N161 N 0.67257 0.66681 0.6618 0.0
C162 C 0.6498 0.6446 0.67265 0.0
C163 C 0.66243 0.63322 0.69085 0.0
C164 C 0.69831 0.64471 0.69766 0.0
C165 C 0.72103 0.66794 0.68634 0.0
C166 C 0.70712 0.67805 0.66825 0.0
H167 H 0.62225 0.63561 0.66744 0.0
O168 O 0.58196 0.74695 0.65982 0.0
O169 O 0.63378 0.72769 0.64504 0.0
O170 O 0.56691 0.68543 0.6337 0.0
O171 O 0.6202 0.6507 0.63236 0.0
C172 C 0.75653 0.68215 0.69248 0.0
C173 C 0.77703 0.7069 0.68067 0.0
H174 H 0.8066 0.75638 0.65479 0.0
H175 H 0.77515 0.77455 0.62423 0.0
H176 H 0.6446 0.61556 0.69958 0.0
H177 H 0.70803 0.63579 0.71167 0.0
H178 H 0.76799 0.67483 0.70642 0.0
H179 H 0.80391 0.71828 0.68573 0.0
Mn180 Mn 0.28085 0.1386 0.88042 0.0
Mn181 Mn 0.33496 0.21725 0.88327 0.0
C182 C 0.28942 0.1692 0.90944 0.0
C183 C 0.22221 0.11029 0.87424 0.0
C184 C 0.3676 0.13768 0.88051 0.0
O185 O 0.28558 0.15431 0.85275 0.0
O186 O 0.31806 0.20898 0.85625 0.0
C187 C 0.27614 0.27437 0.87391 0.0
N188 N 0.30303 0.26073 0.88619 0.0
C189 C 0.29135 0.31121 0.90884 0.0
C190 C 0.26368 0.32594 0.89638 0.0
C191 C 0.25599 0.30738 0.87886 0.0
C192 C 0.31053 0.27826 0.90312 0.0
H193 H 0.27007 0.26012 0.86046 0.0
C194 C 0.30048 0.18416 0.84596 0.0
O195 O 0.25367 0.09131 0.87265 0.0
O196 O 0.22493 0.14574 0.87922 0.0
N197 N 0.35284 0.22873 0.90861 0.0
C198 C 0.3793 0.20998 0.91931 0.0
C199 C 0.39008 0.22467 0.9373 0.0
C200 C 0.37372 0.2585 0.94405 0.0
C201 C 0.34644 0.27723 0.93284 0.0
C202 C 0.33713 0.26147 0.91492 0.0
H203 H 0.39211 0.18405 0.91415 0.0
O204 O 0.27863 0.13402 0.90877 0.0
O205 O 0.29408 0.18561 0.89306 0.0
O206 O 0.33595 0.12014 0.88062 0.0
O207 O 0.37025 0.17384 0.88088 0.0
C208 C 0.328 0.31079 0.93874 0.0
C209 C 0.30033 0.32766 0.92679 0.0
H210 H 0.24801 0.35134 0.90017 0.0
H211 H 0.23456 0.31848 0.86921 0.0
H212 H 0.41109 0.21005 0.94591 0.0
H213 H 0.38256 0.26988 0.95779 0.0
H214 H 0.33466 0.32377 0.95247 0.0
H215 H 0.28604 0.35321 0.93159 0.0
Mn216 Mn 0.87318 0.71789 0.11102 0.0
Mn217 Mn 0.79063 0.67011 0.10797 0.0
C218 C 0.84236 0.71214 0.08208 0.0
C219 C 0.90515 0.77446 0.11703 0.0
C220 C 0.86747 0.63133 0.11016 0.0
O221 O 0.85733 0.71407 0.1386 0.0
O222 O 0.80098 0.68444 0.13533 0.0
C223 C 0.7388 0.73267 0.11888 0.0
N224 N 0.75002 0.7059 0.10591 0.0
C225 C 0.7019 0.7254 0.08336 0.0
C226 C 0.68965 0.75299 0.09653 0.0
C227 C 0.7082 0.75663 0.11436 0.0
C228 C 0.73231 0.70207 0.08874 0.0
H229 H 0.75317 0.73581 0.13254 0.0
C230 C 0.82707 0.7004 0.14556 0.0
O231 O 0.92234 0.74196 0.11864 0.0
O232 O 0.8695 0.77385 0.1123 0.0
N233 N 0.77715 0.65522 0.08235 0.0
C234 C 0.79347 0.6283 0.07095 0.0
C235 C 0.77885 0.62175 0.05243 0.0
C236 C 0.74758 0.64284 0.04583 0.0
C237 C 0.73101 0.67011 0.05789 0.0
C238 C 0.74655 0.67512 0.07629 0.0
H239 H 0.81771 0.61222 0.07588 0.0
O240 O 0.87831 0.72 0.08282 0.0
O241 O 0.82538 0.70858 0.09842 0.0
O242 O 0.88736 0.66159 0.11069 0.0
O243 O 0.83117 0.63133 0.10943 0.0
C244 C 0.70014 0.693 0.05226 0.0
C245 C 0.68559 0.72061 0.06498 0.0
H246 H 0.66626 0.77173 0.09304 0.0
H247 H 0.69905 0.77799 0.12456 0.0
H248 H 0.79183 0.60069 0.0432 0.0
H249 H 0.73666 0.63801 0.03146 0.0
H250 H 0.68761 0.68986 0.03809 0.0
H251 H 0.66208 0.73829 0.06041 0.0
Mn252 Mn 0.26046 0.41199 0.35903 0.0
Mn253 Mn 0.30675 0.33096 0.34815 0.0
C254 C 0.25623 0.38629 0.32857 0.0
C255 C 0.20596 0.44199 0.37036 0.0
C256 C 0.34594 0.40728 0.3527 0.0
O257 O 0.27308 0.39011 0.38518 0.0
O258 O 0.2989 0.33415 0.37623 0.0
C259 C 0.24801 0.27508 0.3586 0.0
N260 N 0.27149 0.2901 0.34529 0.0
C261 C 0.25145 0.24408 0.3216 0.0
C262 C 0.22715 0.22802 0.33506 0.0
C263 C 0.22532 0.2437 0.35362 0.0
C264 C 0.2732 0.27547 0.32735 0.0
H265 H 0.24667 0.28694 0.3729 0.0
C266 C 0.28712 0.35759 0.38902 0.0
O267 O 0.23861 0.45915 0.37068 0.0
O268 O 0.20541 0.40735 0.364 0.0
N269 N 0.31555 0.32441 0.32132 0.0
C270 C 0.33896 0.34443 0.30976 0.0
C271 C 0.34298 0.33324 0.29052 0.0
C272 C 0.32329 0.30134 0.28344 0.0
C273 C 0.29966 0.28097 0.29566 0.0
C274 C 0.29662 0.29357 0.31467 0.0
H275 H 0.35437 0.36882 0.31515 0.0
O276 O 0.24886 0.42197 0.3314 0.0
O277 O 0.26581 0.36709 0.34358 0.0
O278 O 0.31613 0.42712 0.35552 0.0
O279 O 0.34535 0.3713 0.35035 0.0
C280 C 0.27885 0.24878 0.28971 0.0
C281 C 0.2547 0.23038 0.30266 0.0
H282 H 0.20965 0.20377 0.33129 0.0
H283 H 0.20655 0.23153 0.36407 0.0
H284 H 0.36128 0.34911 0.28119 0.0
H285 H 0.32642 0.29283 0.26859 0.0
H286 H 0.28075 0.23827 0.27511 0.0
H287 H 0.23838 0.20602 0.29781 0.0
H288 H 0.12159 0.24561 0.06571 0.0
H289 H 0.14718 0.25554 0.03367 0.0
H290 H 0.23594 0.17423 0.04523 0.0
H291 H 0.21119 0.16467 0.07719 0.0
H292 H 0.26437 0.23669 0.02981 0.0
H293 H 0.15756 0.15264 0.01699 0.0
H294 H 0.08999 0.13442 0.01731 0.0
H295 H 0.061 0.23357 0.98506 0.0
H296 H 0.1284 0.25261 0.98474 0.0
H297 H 0.32124 0.15151 0.94363 0.0
H298 H 0.30256 0.17644 0.97494 0.0
H299 H 0.22874 0.25751 0.94736 0.0
H300 H 0.247 0.23194 0.91602 0.0
H301 H 0.19051 0.21206 0.97016 0.0
H302 H 0.29583 0.29765 0.98366 0.0
H303 H 0.36225 0.31977 0.98602 0.0
H304 H 0.39332 0.21866 0.01615 0.0
H305 H 0.32679 0.19672 0.01464 0.0
C306 C 0.14636 0.22962 0.06135 0.0
C307 C 0.16436 0.20436 0.07402 0.0
C308 C 0.16095 0.23536 0.04306 0.0
C309 C 0.19345 0.2156 0.03709 0.0
C310 C 0.21101 0.19 0.04961 0.0
C311 C 0.19669 0.18445 0.06787 0.0
C312 C 0.20975 0.22138 0.0179 0.0
C313 C 0.24822 0.23123 0.01675 0.0
C314 C 0.18836 0.21576 0.00086 0.0
C315 C 0.14791 0.20429 0.00106 0.0
C316 C 0.13672 0.17071 0.01011 0.0
C317 C 0.09847 0.16021 0.01026 0.0
C318 C 0.0712 0.18289 0.00127 0.0
C319 C 0.08214 0.21607 0.99205 0.0
C320 C 0.12035 0.22673 0.99188 0.0
C321 C 0.30217 0.17561 0.94432 0.0
C322 C 0.28603 0.19034 0.92755 0.0
C323 C 0.29173 0.19011 0.96218 0.0
C324 C 0.26449 0.21915 0.96352 0.0
C325 C 0.25009 0.23541 0.94666 0.0
C326 C 0.26064 0.22094 0.92879 0.0
C327 C 0.24555 0.2262 0.98206 0.0
C328 C 0.20648 0.21859 0.98315 0.0
C329 C 0.26631 0.23383 -0.00095 0.0
C330 C 0.30659 0.24542 -0.00116 0.0
C331 C 0.31694 0.28007 0.99066 0.0
C332 C 0.35445 0.29277 0.99206 0.0
C333 C 0.38202 0.27053 0.00112 0.0
C334 C 0.37199 0.23579 0.00907 0.0
C335 C 0.33434 0.22339 0.00812 0.0
H336 H 0.41111 0.28027 0.00202 0.0
H337 H 0.0416 0.17471 0.0014 0.0
H338 H 0.79083 0.62367 0.31977 0.0
H339 H 0.79888 0.63522 0.28568 0.0
H340 H 0.80299 0.75573 0.29668 0.0
H341 H 0.79538 0.74445 0.33109 0.0
H342 H 0.75386 0.73185 0.26496 0.0
H343 H 0.88158 0.71946 0.28765 0.0
H344 H 0.93541 0.69042 0.30497 0.0
H345 H 0.92429 0.58942 0.27049 0.0
H346 H 0.87004 0.6177 0.25311 0.0
H347 H 0.87579 0.73216 0.17188 0.0
H348 H 0.86905 0.73526 0.20652 0.0
H349 H 0.76133 0.6777 0.20185 0.0
H350 H 0.7675 0.67481 0.16701 0.0
H351 H 0.86559 0.67873 0.23123 0.0
H352 H 0.70445 0.70868 0.23847 0.0
H353 H 0.65336 0.74178 0.2209 0.0
H354 H 0.73535 0.81557 0.19566 0.0
H355 H 0.78686 0.7833 0.21329 0.0
C356 C 0.79332 0.65269 0.31499 0.0
C357 C 0.79248 0.68319 0.32814 0.0
C358 C 0.79804 0.65919 0.29551 0.0
C359 C 0.80164 0.69627 0.28875 0.0
C360 C 0.80025 0.72691 0.30171 0.0
C361 C 0.79609 0.7204 0.32132 0.0
C362 C 0.80715 0.70251 0.26808 0.0
C363 C 0.77832 0.72046 0.25754 0.0
C364 C 0.83935 0.68803 0.25856 0.0
C365 C 0.87157 0.67062 0.26917 0.0
C366 C 0.89036 0.69092 0.28389 0.0
C367 C 0.92102 0.67464 0.29367 0.0
C368 C 0.93329 0.63813 0.2888 0.0
C369 C 0.9148 0.61774 0.27421 0.0
C370 C 0.88412 0.63389 0.26437 0.0
C371 C 0.8505 0.72027 0.17813 0.0
C372 C 0.82222 0.70308 0.16659 0.0
C373 C 0.84676 0.72206 0.19798 0.0
C374 C 0.81465 0.70691 0.20675 0.0
C375 C 0.78615 0.69002 0.19534 0.0
C376 C 0.78983 0.68822 0.17542 0.0
C377 C 0.81188 0.70739 0.22791 0.0
C378 C 0.84119 0.69046 0.23858 0.0
C379 C 0.78037 0.72331 0.23753 0.0
C380 C 0.74954 0.74331 0.22708 0.0
C381 C 0.71156 0.73209 0.22924 0.0
C382 C 0.68253 0.75068 0.21926 0.0
C383 C 0.69112 0.78068 0.20712 0.0
C384 C 0.72875 0.79224 0.20501 0.0
C385 C 0.75788 0.77377 0.21497 0.0
H386 H 0.66861 0.79502 0.19939 0.0
H387 H 0.95719 0.62568 0.29631 0.0
H388 H 0.27745 0.2787 0.57003 0.0
H389 H 0.2611 0.29942 0.53779 0.0
H390 H 0.3299 0.20915 0.51419 0.0
H391 H 0.34932 0.19126 0.54657 0.0
H392 H 0.35285 0.26907 0.50071 0.0
H393 H 0.21431 0.22416 0.49688 0.0
H394 H 0.14798 0.22023 0.50792 0.0
H395 H 0.15133 0.33749 0.52501 0.0
H396 H 0.21689 0.34255 0.5131 0.0
H397 H 0.31448 0.29058 0.40276 0.0
H398 H 0.31628 0.26935 0.43575 0.0
H399 H 0.26623 0.375 0.45435 0.0
H400 H 0.2638 0.39663 0.42113 0.0
H401 H 0.23286 0.31375 0.47088 0.0
H402 H 0.35883 0.35977 0.4623 0.0
H403 H 0.42027 0.36642 0.44609 0.0
H404 H 0.44147 0.24725 0.45257 0.0
H405 H 0.37989 0.23977 0.46859 0.0
C406 C 0.28799 0.26262 0.55788 0.0
C407 C 0.31441 0.23333 0.56061 0.0
C408 C 0.27827 0.2742 0.53937 0.0
C409 C 0.294 0.25586 0.52333 0.0
C410 C 0.31759 0.22411 0.52625 0.0
C411 C 0.32854 0.21364 0.54472 0.0
C412 C 0.29205 0.27342 0.50402 0.0
C413 C 0.32633 0.27795 0.49411 0.0
C414 C 0.25811 0.28743 0.49564 0.0
C415 C 0.22061 0.28345 0.50459 0.0
C416 C 0.20097 0.24892 0.50322 0.0
C417 C 0.1634 0.24665 0.50937 0.0
C418 C 0.14563 0.27845 0.51737 0.0
C419 C 0.16519 0.3128 0.51895 0.0
C420 C 0.20238 0.31549 0.51232 0.0
C421 C 0.30398 0.30955 0.4138 0.0
C422 C 0.28914 0.34547 0.40925 0.0
C423 C 0.30515 0.29733 0.43269 0.0
C424 C 0.29182 0.32079 0.44749 0.0
C425 C 0.27677 0.35656 0.44309 0.0
C426 C 0.27555 0.36889 0.42412 0.0
C427 C 0.29317 0.30734 0.46748 0.0
C428 C 0.25914 0.30428 0.47754 0.0
C429 C 0.32736 0.2947 0.47602 0.0
C430 C 0.36459 0.29917 0.46653 0.0
C431 C 0.37647 0.33493 0.46016 0.0
C432 C 0.41134 0.33885 0.45102 0.0
C433 C 0.43472 0.30727 0.44827 0.0
C434 C 0.42332 0.27169 0.4547 0.0
C435 C 0.38845 0.2676 0.46383 0.0
H436 H 0.46171 0.31036 0.44119 0.0
H437 H 0.11665 0.27651 0.52226 0.0
H438 H 0.75364 0.81093 0.83097 0.0
H439 H 0.73946 0.77809 0.80118 0.0
H440 H 0.75193 0.88455 0.77148 0.0
H441 H 0.77742 0.9133 0.80056 0.0
H442 H 0.69345 0.77149 0.78009 0.0
H443 H 0.75004 0.88555 0.72631 0.0
H444 H 0.80806 0.92323 0.72142 0.0
H445 H 0.87245 0.84449 0.75521 0.0
H446 H 0.81474 0.80622 0.7602 0.0
H447 H 0.58971 0.73412 0.69729 0.0
H448 H 0.62087 0.75652 0.72639 0.0
H449 H 0.72424 0.77406 0.69462 0.0
H450 H 0.68863 0.76348 0.6653 0.0
H451 H 0.73227 0.8176 0.71668 0.0
H452 H 0.69911 0.69361 0.7338 0.0
H453 H 0.66071 0.6358 0.73825 0.0
H454 H 0.58721 0.69667 0.77639 0.0
H455 H 0.62488 0.75483 0.77207 0.0
C456 C 0.75719 0.8259 0.81771 0.0
C457 C 0.77081 0.86313 0.81778 0.0
C458 C 0.747 0.80777 0.80058 0.0
C459 C 0.74558 0.82796 0.78328 0.0
C460 C 0.75553 0.86673 0.78386 0.0
C461 C 0.76934 0.88366 0.80072 0.0
C462 C 0.731 0.80943 0.76517 0.0
C463 C 0.70311 0.78095 0.76628 0.0
C464 C 0.74349 0.82013 0.74675 0.0
C465 C 0.77806 0.84329 0.74383 0.0
C466 C 0.77659 0.87626 0.73267 0.0
C467 C 0.80938 0.89775 0.72992 0.0
C468 C 0.84386 0.88637 0.73811 0.0
C469 C 0.84565 0.85342 0.74903 0.0
C470 C 0.81293 0.83189 0.75187 0.0
C471 C 0.61921 0.74264 0.69669 0.0
C472 C 0.63809 0.74363 0.67914 0.0
C473 C 0.63756 0.75464 0.71353 0.0
C474 C 0.67622 0.76509 0.71349 0.0
C475 C 0.69474 0.76604 0.69571 0.0
C476 C 0.67508 0.75783 0.67876 0.0
C477 C 0.69631 0.77796 0.73151 0.0
C478 C 0.72436 0.8063 0.73042 0.0
C479 C 0.68765 0.76342 0.74984 0.0
C480 C 0.66464 0.72862 0.75246 0.0
C481 C 0.67459 0.69467 0.74302 0.0
C482 C 0.65299 0.66187 0.74553 0.0
C483 C 0.6215 0.66263 0.75752 0.0
C484 C 0.61159 0.69614 0.76709 0.0
C485 C 0.6331 0.72901 0.76465 0.0
H486 H 0.60482 0.63721 0.75943 0.0
H487 H 0.86922 0.90301 0.73593 0.0
H488 H 0.27553 0.40044 0.29162 0.0
H489 H 0.25085 0.36801 0.2628 0.0
H490 H 0.17781 0.30008 0.29803 0.0
H491 H 0.20401 0.33102 0.32668 0.0
H492 H 0.20644 0.25696 0.27357 0.0
H493 H 0.14488 0.37653 0.26932 0.0
H494 H 0.13917 0.44622 0.26866 0.0
H495 H 0.2075 0.44955 0.21815 0.0
H496 H 0.21406 0.37989 0.21865 0.0
H497 H 0.09485 0.1941 0.19081 0.0
H498 H 0.11745 0.21911 0.22175 0.0
H499 H 0.20676 0.27941 0.19326 0.0
H500 H 0.18209 0.25724 0.16236 0.0
H501 H 0.16361 0.32482 0.21552 0.0
H502 H 0.25092 0.21059 0.23946 0.0
H503 H 0.26012 0.14195 0.24458 0.0
H504 H 0.1421 0.13021 0.25811 0.0
H505 H 0.13273 0.19903 0.25375 0.0
C506 C 0.25433 0.37845 0.29304 0.0
C507 C 0.24219 0.36736 0.31117 0.0
C508 C 0.23993 0.36023 0.27665 0.0
C509 C 0.21203 0.33191 0.27821 0.0
C510 C 0.19935 0.32168 0.29642 0.0
C511 C 0.21434 0.33925 0.31276 0.0
C512 C 0.19708 0.31174 0.26099 0.0
C513 C 0.19713 0.27197 0.26093 0.0
C514 C 0.18418 0.33109 0.24451 0.0
C515 C 0.18022 0.373 0.24412 0.0
C516 C 0.15891 0.39214 0.25815 0.0
C517 C 0.15549 0.43164 0.25779 0.0
C518 C 0.17303 0.4523 0.2434 0.0
C519 C 0.19396 0.4335 0.2293 0.0
C520 C 0.1975 0.39401 0.2296 0.0
C521 C 0.11992 0.21186 0.19131 0.0
C522 C 0.13776 0.22258 0.17435 0.0
C523 C 0.13317 0.2257 0.209 0.0
C524 C 0.1646 0.25016 0.20992 0.0
C525 C 0.18292 0.26001 0.19294 0.0
C526 C 0.16916 0.24693 0.17531 0.0
C527 C 0.175 0.27017 0.22794 0.0
C528 C 0.17359 0.31003 0.22816 0.0
C529 C 0.18652 0.251 0.24466 0.0
C530 C 0.19081 0.20943 0.24546 0.0
C531 C 0.22686 0.19315 0.24321 0.0
C532 C 0.23224 0.15438 0.24628 0.0
C533 C 0.20163 0.13165 0.25148 0.0
C534 C 0.16569 0.14775 0.25386 0.0
C535 C 0.16036 0.18664 0.25112 0.0
H536 H 0.20579 0.1016 0.25376 0.0
H537 H 0.17035 0.48288 0.24315 0.0
H538 H 0.70457 0.71542 0.58189 0.0
H539 H 0.71935 0.71713 0.54786 0.0
H540 H 0.60004 0.72428 0.53394 0.0
H541 H 0.58484 0.72332 0.56817 0.0
H542 H 0.6409 0.66482 0.51494 0.0
H543 H 0.64764 0.79809 0.52561 0.0
H544 H 0.66696 0.8573 0.54204 0.0
H545 H 0.78389 0.83288 0.53026 0.0
H546 H 0.76535 0.77319 0.51402 0.0
H547 H 0.7092 0.71063 0.41514 0.0
H548 H 0.68453 0.7339 0.44589 0.0
H549 H 0.75152 0.65001 0.4755 0.0
H550 H 0.7772 0.62768 0.44486 0.0
H551 H 0.726 0.7571 0.48361 0.0
H552 H 0.68187 0.60549 0.50266 0.0
H553 H 0.66335 0.54579 0.48637 0.0
H554 H 0.61933 0.60857 0.43866 0.0
H555 H 0.63694 0.66865 0.45483 0.0
C556 C 0.68142 0.71768 0.57163 0.0
C557 C 0.6435 0.71903 0.5777 0.0
C558 C 0.68996 0.71895 0.55221 0.0
C559 C 0.66079 0.72114 0.53848 0.0
C560 C 0.6229 0.72287 0.54441 0.0
C561 C 0.61431 0.72229 0.56392 0.0
C562 C 0.67015 0.71821 0.51796 0.0
C563 C 0.65903 0.68528 0.508 0.0
C564 C 0.69373 0.74503 0.50897 0.0
C565 C 0.70508 0.78095 0.51871 0.0
C566 C 0.6775 0.80514 0.52667 0.0
C567 C 0.68831 0.83884 0.53592 0.0
C568 C 0.72663 0.84881 0.53723 0.0
C569 C 0.75422 0.82511 0.52925 0.0
C570 C 0.74356 0.79135 0.51999 0.0
C571 C 0.71973 0.69832 0.42832 0.0
C572 C 0.74608 0.66844 0.42787 0.0
C573 C 0.70546 0.71137 0.44577 0.0
C574 C 0.71639 0.69365 0.46284 0.0
C575 C 0.74304 0.66409 0.46241 0.0
C576 C 0.75764 0.65141 0.44501 0.0
C577 C 0.69754 0.70333 0.48097 0.0
C578 C 0.70715 0.73722 0.49047 0.0
C579 C 0.67248 0.67747 0.48958 0.0
C580 C 0.66105 0.64154 0.47989 0.0
C581 C 0.66806 0.60655 0.48874 0.0
C582 C 0.65774 0.57265 0.47953 0.0
C583 C 0.64026 0.57339 0.46148 0.0
C584 C 0.63298 0.60804 0.45262 0.0
C585 C 0.64318 0.64203 0.46179 0.0
H586 H 0.63228 0.5471 0.45439 0.0
H587 H 0.73495 0.87492 0.5444 0.0
H588 H 0.33597 0.27018 0.66867 0.0
H589 H 0.3287 0.26812 0.70336 0.0
H590 H 0.25748 0.16912 0.69734 0.0
H591 H 0.26359 0.17173 0.66253 0.0
H592 H 0.23225 0.21326 0.72547 0.0
H593 H 0.35242 0.16064 0.70776 0.0
H594 H 0.41465 0.15947 0.69191 0.0
H595 H 0.44999 0.25695 0.72487 0.0
H596 H 0.38774 0.25898 0.74074 0.0
H597 H 0.2648 0.13934 0.81898 0.0
H598 H 0.2613 0.14913 0.78446 0.0
H599 H 0.32506 0.25291 0.79099 0.0
H600 H 0.3291 0.24333 0.82552 0.0
H601 H 0.35276 0.20699 0.76278 0.0
H602 H 0.23054 0.25569 0.78173 0.0
H603 H 0.16874 0.25207 0.79788 0.0
H604 H 0.13778 0.15587 0.7629 0.0
H605 H 0.1996 0.15866 0.74668 0.0
C606 C 0.31841 0.24821 0.67471 0.0
C607 C 0.30076 0.22081 0.66288 0.0
C608 C 0.31434 0.24703 0.69454 0.0
C609 C 0.29327 0.21794 0.70295 0.0
C610 C 0.27401 0.19171 0.69114 0.0
C611 C 0.2776 0.19321 0.67126 0.0
C612 C 0.29334 0.21353 0.72403 0.0
C613 C 0.25858 0.21156 0.73362 0.0
C614 C 0.32771 0.21153 0.73468 0.0
C615 C 0.36531 0.21018 0.7253 0.0
C616 C 0.37338 0.18197 0.71154 0.0
C617 C 0.40866 0.18113 0.70256 0.0
C618 C 0.43622 0.20818 0.70735 0.0
C619 C 0.4286 0.23605 0.72116 0.0
C620 C 0.39334 0.23703 0.73017 0.0
C621 C 0.27799 0.16436 0.81313 0.0
C622 C 0.29737 0.19049 0.82507 0.0
C623 C 0.27576 0.16999 0.7934 0.0
C624 C 0.29263 0.20191 0.78523 0.0
C625 C 0.3118 0.22812 0.79706 0.0
C626 C 0.31404 0.22257 0.8168 0.0
C627 C 0.29173 0.20717 0.76424 0.0
C628 C 0.32642 0.20903 0.75465 0.0
C629 C 0.25732 0.20844 0.75363 0.0
C630 C 0.21983 0.20722 0.7631 0.0
C631 C 0.21063 0.23364 0.77755 0.0
C632 C 0.17559 0.23176 0.7867 0.0
C633 C 0.14939 0.20371 0.78145 0.0
C634 C 0.15811 0.17758 0.76696 0.0
C635 C 0.19312 0.17934 0.75776 0.0
H636 H 0.1223 0.20227 0.78857 0.0
H637 H 0.46351 0.20751 0.70038 0.0
H638 H 0.85704 0.68032 0.04759 0.0
H639 H 0.83573 0.70426 0.01647 0.0
H640 H 0.76311 0.78519 0.04497 0.0
H641 H 0.78474 0.76146 0.07609 0.0
H642 H 0.76808 0.71969 -0.00425 0.0
H643 H 0.7853 0.87132 0.02498 0.0
H644 H 0.81541 0.90484 0.05241 0.0
H645 H 0.90119 0.81847 0.05579 0.0
H646 H 0.87205 0.78493 0.02818 0.0
H647 H 0.77166 0.89409 0.92803 0.0
H648 H 0.76479 0.86913 0.96044 0.0
H649 H 0.8357 0.77373 0.94559 0.0
H650 H 0.84269 0.79802 0.91336 0.0
H651 H 0.81845 0.85037 0.98894 0.0
H652 H 0.79741 0.69448 0.96377 0.0
H653 H 0.77207 0.66003 0.93551 0.0
H654 H 0.69842 0.75373 0.92273 0.0
H655 H 0.7228 0.78847 0.9511 0.0
C656 C 0.83543 0.7022 0.0471 0.0
C657 C 0.82193 0.71869 0.06406 0.0
C658 C 0.82319 0.71576 0.02939 0.0
C659 C 0.79815 0.74667 0.02848 0.0
C660 C 0.78248 0.76132 0.04542 0.0
C661 C 0.79461 0.74762 0.06314 0.0
C662 C 0.79394 0.76732 0.01029 0.0
C663 C 0.77888 0.74829 0.99422 0.0
C664 C 0.80774 0.80483 0.00846 0.0
C665 C 0.82617 0.8254 0.0247 0.0
C666 C 0.81068 0.85962 0.03154 0.0
C667 C 0.8276 0.87862 0.0471 0.0
C668 C 0.86013 0.86373 0.05588 0.0
C669 C 0.87596 0.82994 0.04902 0.0
C670 C 0.85925 0.81093 0.03342 0.0
C671 C 0.78613 0.868 0.93171 0.0
C672 C 0.80749 0.84793 0.918 0.0
C673 C 0.7821 0.8538 0.95022 0.0
C674 C 0.7991 0.81926 0.95522 0.0
C675 C 0.82173 0.80008 0.94186 0.0
C676 C 0.82583 0.81418 0.92344 0.0
C677 C 0.79311 0.80253 0.97428 0.0
C678 C 0.80652 0.82222 0.99051 0.0
C679 C 0.77812 0.76551 0.9762 0.0
C680 C 0.76215 0.74418 0.95952 0.0
C681 C 0.77557 0.70761 0.95504 0.0
C682 C 0.76142 0.68805 0.93897 0.0
C683 C 0.73373 0.70472 0.9273 0.0
C684 C 0.71995 0.74089 0.93175 0.0
C685 C 0.73393 0.76053 0.94782 0.0
H686 H 0.72293 0.6896 0.91483 0.0
H687 H 0.87312 0.87841 0.06796 0.0
H688 H 0.02264 0.11993 0.12369 0.0
H689 H 0.98964 0.05897 0.12257 0.0
H690 H 0.09715 0.00035 0.1228 0.0
H691 H 0.13046 0.06098 0.12383 0.0
H692 H 0.04664 0.97013 0.09644 0.0
H693 H 0.04808 0.00688 0.16303 0.0
H694 H 0.03663 0.0498 0.19048 0.0
H695 H 0.91715 0.04948 0.17767 0.0
H696 H 0.92797 0.00699 0.14995 0.0
H697 H 0.98167 0.78625 0.12071 0.0
H698 H 0.01461 0.84743 0.12254 0.0
H699 H 0.90698 0.9058 0.12076 0.0
H700 H 0.87392 0.845 0.11885 0.0
H701 H 0.95723 0.93612 0.14797 0.0
H702 H 0.95466 0.90112 0.08151 0.0
H703 H 0.9647 0.85894 0.05364 0.0
H704 H 0.08444 0.85669 0.06574 0.0
H705 H 0.07504 0.89855 0.09385 0.0
C706 C 0.03932 0.09411 0.12341 0.0
C707 C 0.07924 0.09543 0.12392 0.0
C708 C 0.02039 0.0593 0.12284 0.0
C709 C 0.041 0.0252 0.12279 0.0
C710 C 0.08076 0.02637 0.12286 0.0
C711 C 0.09972 0.06111 0.12351 0.0
C712 C 0.02114 0.98823 0.12293 0.0
C713 C 0.02748 0.96248 0.10783 0.0
C714 C 0.99549 0.97869 0.13757 0.0
C715 C 0.98889 0.00406 0.1543 0.0
C716 C 0.01941 0.01621 0.16597 0.0
C717 C 0.01302 0.04041 0.18159 0.0
C718 C 0.9762 0.05243 0.18579 0.0
C719 C 0.94567 0.04019 0.17439 0.0
C720 C 0.95191 0.01602 0.15873 0.0
C721 C 0.96505 0.81212 0.12089 0.0
C722 C 0.92526 0.81087 0.11958 0.0
C723 C 0.98387 0.84698 0.12186 0.0
C724 C 0.96316 0.88104 0.12164 0.0
C725 C 0.92342 0.87981 0.12095 0.0
C726 C 0.90463 0.84505 0.11981 0.0
C727 C 0.98291 0.91803 0.12155 0.0
C728 C 0.97648 0.94377 0.13662 0.0
C729 C 0.0083 0.92767 0.10683 0.0
C730 C 0.0141 0.90263 0.0899 0.0
C731 C 0.98309 0.89137 0.07833 0.0
C732 C 0.98867 0.86757 0.06247 0.0
C733 C 0.02517 0.85503 0.05796 0.0
C734 C 0.05618 0.86638 0.06927 0.0
C735 C 0.05075 0.89017 0.08515 0.0
H736 H 0.02943 0.8366 0.04568 0.0
H737 H 0.97131 0.07117 0.19789 0.0
H738 H 0.19558 0.51682 0.38031 0.0
H739 H 0.13501 0.5494 0.38568 0.0
H740 H 0.07537 0.44354 0.37756 0.0
H741 H 0.13542 0.41103 0.372 0.0
H742 H 0.04462 0.49841 0.35616 0.0
H743 H 0.0848 0.48458 0.42185 0.0
H744 H 0.12866 0.49154 0.44942 0.0
H745 H 0.12549 0.61269 0.44383 0.0
H746 H 0.08198 0.60643 0.41605 0.0
H747 H 0.86064 0.55335 0.38365 0.0
H748 H 0.92259 0.5222 0.38351 0.0
H749 H 0.97764 0.63041 0.39185 0.0
H750 H 0.9159 0.66182 0.39236 0.0
H751 H 0.01158 0.57633 0.41317 0.0
H752 H 0.97022 0.59066 0.34819 0.0
H753 H 0.92559 0.58426 0.32095 0.0
H754 H 0.93235 0.46295 0.3244 0.0
H755 H 0.97599 0.46856 0.35214 0.0
C756 C 0.16958 0.50045 0.37993 0.0
C757 C 0.17027 0.46139 0.37567 0.0
C758 C 0.13501 0.51907 0.38303 0.0
C759 C 0.10065 0.49887 0.38204 0.0
C760 C 0.10149 0.45972 0.37831 0.0
C761 C 0.1359 0.44116 0.3752 0.0
C762 C 0.06358 0.51858 0.38387 0.0
C763 C 0.0372 0.51501 0.36875 0.0
C764 C 0.05437 0.54119 0.40003 0.0
C765 C 0.08045 0.54501 0.41675 0.0
C766 C 0.09371 0.51269 0.4264 0.0
C767 C 0.11845 0.51651 0.44208 0.0
C768 C 0.12994 0.55253 0.44834 0.0
C769 C 0.11661 0.58481 0.43895 0.0
C770 C 0.09188 0.58114 0.42325 0.0
C771 C 0.88585 0.57058 0.38558 0.0
C772 C 0.88317 0.6102 0.38781 0.0
C773 C 0.92128 0.5527 0.38546 0.0
C774 C 0.95476 0.57406 0.38739 0.0
C775 C 0.95218 0.61339 0.39029 0.0
C776 C 0.91678 0.6313 0.39047 0.0
C777 C 0.99245 0.5556 0.38559 0.0
C778 C 0.019 0.55962 0.40062 0.0
C779 C 0.00195 0.53349 0.36929 0.0
C780 C 0.97612 0.53004 0.3524 0.0
C781 C 0.96196 0.5626 0.34326 0.0
C782 C 0.93686 0.55912 0.32771 0.0
C783 C 0.92622 0.52324 0.32091 0.0
C784 C 0.94061 0.49074 0.32969 0.0
C785 C 0.96546 0.49404 0.34536 0.0
H786 H 0.90684 0.52064 0.30884 0.0
H787 H 0.1491 0.55543 0.46048 0.0
H788 H 0.37065 0.36331 0.59761 0.0
H789 H 0.40314 0.42416 0.60113 0.0
H790 H 0.47394 0.37755 0.64597 0.0
H791 H 0.44315 0.31585 0.64147 0.0
H792 H 0.41054 0.47494 0.62574 0.0
H793 H 0.55909 0.41808 0.64825 0.0
H794 H 0.59903 0.36136 0.64322 0.0
H795 H 0.54046 0.33741 0.59023 0.0
H796 H 0.50051 0.39421 0.59483 0.0
H797 H 0.52211 0.63436 0.65332 0.0
H798 H 0.48736 0.5742 0.65192 0.0
H799 H 0.55994 0.5353 0.60622 0.0
H800 H 0.59627 0.5941 0.60872 0.0
H801 H 0.55114 0.4807 0.62707 0.0
H802 H 0.46199 0.56807 0.60024 0.0
H803 H 0.42207 0.62552 0.5988 0.0
H804 H 0.3621 0.58998 0.64873 0.0
H805 H 0.40199 0.53253 0.6506 0.0
C806 C 0.39319 0.36611 0.60821 0.0
C807 C 0.40472 0.33487 0.61914 0.0
C808 C 0.41168 0.40097 0.61027 0.0
C809 C 0.44156 0.4055 0.6236 0.0
C810 C 0.45184 0.37462 0.63517 0.0
C811 C 0.43409 0.33942 0.63269 0.0
C812 C 0.46228 0.44227 0.62502 0.0
C813 C 0.44131 0.47616 0.626 0.0
C814 C 0.50245 0.4442 0.62497 0.0
C815 C 0.52655 0.41014 0.62201 0.0
C816 C 0.55483 0.40075 0.6355 0.0
C817 C 0.57745 0.36859 0.63273 0.0
C818 C 0.57219 0.34572 0.61645 0.0
C819 C 0.5444 0.35505 0.60287 0.0
C820 C 0.52174 0.38721 0.60556 0.0
C821 C 0.5304 0.61287 0.64297 0.0
C822 C 0.5617 0.61869 0.6311 0.0
C823 C 0.51044 0.57858 0.64207 0.0
C824 C 0.52051 0.55016 0.62874 0.0
C825 C 0.5516 0.55646 0.61672 0.0
C826 C 0.57226 0.59014 0.61807 0.0
C827 C 0.49945 0.51353 0.62749 0.0
C828 C 0.52038 0.47959 0.62673 0.0
C829 C 0.45927 0.51171 0.62674 0.0
C830 C 0.43524 0.54622 0.62567 0.0
C831 C 0.44047 0.57265 0.61099 0.0
C832 C 0.41782 0.60519 0.61008 0.0
C833 C 0.38964 0.61145 0.62369 0.0
C834 C 0.38398 0.58513 0.63821 0.0
C835 C 0.40658 0.55256 0.6392 0.0
H836 H 0.37213 0.63665 0.62296 0.0
H837 H 0.58971 0.32082 0.61434 0.0
H838 H 0.70783 0.01049 0.88441 0.0
H839 H 0.64615 0.04155 0.88735 0.0
H840 H 0.59005 0.93406 0.87815 0.0
H841 H 0.65174 0.90289 0.8748 0.0
H842 H 0.55917 0.98645 0.85615 0.0
H843 H 0.59159 0.97818 0.92253 0.0
H844 H 0.63177 0.98569 0.95144 0.0
H845 H 0.63267 0.10645 0.94405 0.0
H846 H 0.59292 0.09963 0.91493 0.0
H847 H 0.37555 0.0603 0.87774 0.0
H848 H 0.43441 0.02355 0.87866 0.0
H849 H 0.4991 0.1269 0.88434 0.0
H850 H 0.44058 0.16391 0.88362 0.0
H851 H 0.52347 0.07322 0.90938 0.0
H852 H 0.49397 0.0804 0.84193 0.0
H853 H 0.45359 0.0725 0.81311 0.0
H854 H 0.44684 0.95268 0.82298 0.0
H855 H 0.48678 0.95996 0.85202 0.0
C856 C 0.68239 0.99335 0.88326 0.0
C857 C 0.68466 0.95423 0.87936 0.0
C858 C 0.64711 0.01114 0.88501 0.0
C859 C 0.61342 0.9901 0.88312 0.0
C860 C 0.61566 0.95087 0.87965 0.0
C861 C 0.65094 0.93308 0.87782 0.0
C862 C 0.57594 0.00943 0.88369 0.0
C863 C 0.55109 0.00487 0.86797 0.0
C864 C 0.56568 0.03411 0.8989 0.0
C865 C 0.58952 0.03835 0.91645 0.0
C866 C 0.60059 0.00632 0.92698 0.0
C867 C 0.62325 0.01045 0.94343 0.0
C868 C 0.63484 0.04652 0.94956 0.0
C869 C 0.6237 0.07853 0.93928 0.0
C870 C 0.60107 0.07454 0.92281 0.0
C871 C 0.40227 0.07529 0.87914 0.0
C872 C 0.40322 0.11515 0.88053 0.0
C873 C 0.43591 0.0542 0.87962 0.0
C874 C 0.47114 0.07251 0.88145 0.0
C875 C 0.47221 0.1122 0.88295 0.0
C876 C 0.43866 0.13331 0.88242 0.0
C877 C 0.50701 0.05043 0.8818 0.0
C878 C 0.53151 0.05452 0.89767 0.0
C879 C 0.51691 0.02522 0.86676 0.0
C880 C 0.49302 0.02079 0.84926 0.0
C881 C 0.48362 0.05241 0.83804 0.0
C882 C 0.46086 0.04804 0.82165 0.0
C883 C 0.44756 0.01213 0.81625 0.0
C884 C 0.4571 0.98049 0.8272 0.0
C885 C 0.47982 0.98472 0.84362 0.0
H886 H 0.42995 0.0088 0.80355 0.0
H887 H 0.65238 0.04966 0.96229 0.0
H888 H 0.9439 0.61796 0.11388 0.0
H889 H 0.97653 0.55686 0.11324 0.0
H890 H 0.86934 0.49958 0.10515 0.0
H891 H 0.83632 0.56046 0.10606 0.0
H892 H 0.91181 0.46443 0.1313 0.0
H893 H 0.93042 0.51073 0.06793 0.0
H894 H 0.94919 0.55691 0.04351 0.0
H895 H 0.06396 0.55469 0.06478 0.0
H896 H 0.04575 0.50889 0.08953 0.0
H897 H 0.99082 0.28515 0.10722 0.0
H898 H 0.95656 0.34527 0.10414 0.0
H899 H 0.06004 0.40671 0.11618 0.0
H900 H 0.09451 0.3468 0.11923 0.0
H901 H 0.01801 0.43867 0.08686 0.0
H902 H 0.99823 0.39432 0.15102 0.0
H903 H 0.97919 0.34806 0.17535 0.0
H904 H 0.86585 0.34648 0.15212 0.0
H905 H 0.88439 0.39235 0.12746 0.0
C906 C 0.92718 0.59242 0.11195 0.0
C907 C 0.88742 0.59424 0.11 0.0
C908 C 0.94594 0.55749 0.1115 0.0
C909 C 0.92542 0.52368 0.10889 0.0
C910 C 0.88575 0.52532 0.10714 0.0
C911 C 0.86693 0.56021 0.10765 0.0
C912 C 0.94529 0.48655 0.10832 0.0
C913 C 0.93462 0.4586 0.12137 0.0
C914 C 0.97555 0.4792 0.09561 0.0
C915 C 0.98663 0.50664 0.0807 0.0
C916 C 0.9596 0.52031 0.0675 0.0
C917 C 0.97014 0.54638 0.05358 0.0
C918 C 0.00772 0.5588 0.05262 0.0
C919 C 0.03485 0.54508 0.06556 0.0
C920 C 0.02444 0.51904 0.07952 0.0
C921 C 0.00635 0.31146 0.10902 0.0
C922 C 0.04531 0.31126 0.11358 0.0
C923 C 0.98672 0.34576 0.10733 0.0
C924 C 0.0057 0.38039 0.11015 0.0
C925 C 0.04487 0.38028 0.11398 0.0
C926 C 0.06448 0.34602 0.11577 0.0
C927 C 0.98454 0.41673 0.10986 0.0
C928 C 0.99502 0.4445 0.09669 0.0
C929 C 0.95403 0.42392 0.12241 0.0
C930 C 0.94281 0.39644 0.13727 0.0
C931 C 0.96933 0.38386 0.151 0.0
C932 C 0.95862 0.35776 0.16487 0.0
C933 C 0.92136 0.34425 0.16525 0.0
C934 C 0.89472 0.35691 0.15179 0.0
C935 C 0.90531 0.38298 0.13787 0.0
H936 H 0.91312 0.32405 0.176 0.0
H937 H 0.01583 0.57898 0.04183 0.0
H938 H 0.36127 0.48365 0.35544 0.0
H939 H 0.42352 0.51436 0.35501 0.0
H940 H 0.47749 0.40526 0.34821 0.0
H941 H 0.41575 0.3743 0.34871 0.0
H942 H 0.51191 0.4479 0.37583 0.0
H943 H 0.47011 0.46397 0.31078 0.0
H944 H 0.42601 0.48345 0.28505 0.0
H945 H 0.43276 0.59911 0.30467 0.0
H946 H 0.47649 0.58022 0.33071 0.0
H947 H 0.69633 0.51854 0.35867 0.0
H948 H 0.63597 0.48567 0.35279 0.0
H949 H 0.57592 0.59186 0.35841 0.0
H950 H 0.63588 0.62484 0.36402 0.0
H951 H 0.54559 0.54874 0.32998 0.0
H952 H 0.5835 0.53317 0.39578 0.0
H953 H 0.62698 0.51497 0.422 0.0
H954 H 0.6262 0.39958 0.40171 0.0
H955 H 0.58324 0.41727 0.37511 0.0
C956 C 0.38634 0.46617 0.3538 0.0
C957 C 0.38338 0.42646 0.35214 0.0
C958 C 0.42189 0.48379 0.35347 0.0
C959 C 0.45509 0.46207 0.35144 0.0
C960 C 0.45223 0.42253 0.34979 0.0
C961 C 0.4168 0.40492 0.35005 0.0
C962 C 0.49296 0.48037 0.35157 0.0
C963 C 0.5195 0.46951 0.36561 0.0
C964 C 0.5025 0.50915 0.33849 0.0
C965 C 0.4763 0.52061 0.32281 0.0
C966 C 0.46195 0.49351 0.30971 0.0
C967 C 0.43706 0.50445 0.29505 0.0
C968 C 0.42652 0.54248 0.29325 0.0
C969 C 0.44092 0.56966 0.30609 0.0
C970 C 0.46578 0.55885 0.32079 0.0
C971 C 0.67031 0.53492 0.35837 0.0
C972 C 0.67081 0.5742 0.36198 0.0
C973 C 0.63586 0.51611 0.35508 0.0
C974 C 0.60143 0.53629 0.35544 0.0
C975 C 0.60212 0.57574 0.3581 0.0
C976 C 0.63644 0.59451 0.36139 0.0
C977 C 0.56448 0.51625 0.35424 0.0
C978 C 0.53809 0.52687 0.34007 0.0
C979 C 0.55492 0.48739 0.36727 0.0
C980 C 0.58051 0.47662 0.38333 0.0
C981 C 0.59284 0.50397 0.39682 0.0
C982 C 0.61735 0.49375 0.41177 0.0
C983 C 0.6294 0.45616 0.41351 0.0
C984 C 0.61689 0.4287 0.40033 0.0
C985 C 0.59247 0.43881 0.38531 0.0
H986 H 0.64837 0.44829 0.42511 0.0
H987 H 0.40725 0.5509 0.28189 0.0
H988 H 0.33341 0.07912 0.60927 0.0
H989 H 0.37013 0.02072 0.61145 0.0
H990 H 0.4736 0.08553 0.6162 0.0
H991 H 0.4371 0.14445 0.61387 0.0
H992 H 0.48082 0.0256 0.59141 0.0
H993 H 0.43804 0.0459 0.65521 0.0
H994 H 0.39165 0.05932 0.68059 0.0
H995 H 0.33088 0.95753 0.66568 0.0
H996 H 0.3766 0.94379 0.63999 0.0
H997 H 0.59217 0.86749 0.62353 0.0
H998 H 0.56048 0.92901 0.62054 0.0
H999 H 0.45245 0.8726 0.61408 0.0
H1000 H 0.48385 0.81104 0.6171 0.0
H1001 H 0.45068 0.93024 0.64075 0.0
H1002 H 0.4939 0.91165 0.57607 0.0
H1003 H 0.54165 0.89884 0.55125 0.0
H1004 H 0.60363 0.99828 0.56883 0.0
H1005 H 0.5565 0.01139 0.59395 0.0
C1006 C 0.36397 0.08114 0.61083 0.0
C1007 C 0.38222 0.11663 0.6115 0.0
C1008 C 0.38491 0.04764 0.61211 0.0
C1009 C 0.42455 0.0488 0.6142 0.0
C1010 C 0.44301 0.08404 0.61463 0.0
C1011 C 0.42205 0.11768 0.61337 0.0
C1012 C 0.44649 0.01305 0.61589 0.0
C1013 C 0.47466 0.00498 0.60237 0.0
C1014 C 0.43806 0.98596 0.63005 0.0
C1015 C 0.41057 0.994 0.64555 0.0
C1016 C 0.41461 0.02653 0.65724 0.0
C1017 C 0.38847 0.03417 0.6717 0.0
C1018 C 0.35829 0.00934 0.67472 0.0
C1019 C 0.35425 0.97676 0.66331 0.0
C1020 C 0.38029 0.96901 0.64881 0.0
C1021 C 0.56171 0.86818 0.62128 0.0
C1022 C 0.54049 0.83442 0.62055 0.0
C1023 C 0.54367 0.90334 0.61955 0.0
C1024 C 0.50414 0.90533 0.61704 0.0
C1025 C 0.48299 0.87166 0.61604 0.0
C1026 C 0.501 0.83651 0.61769 0.0
C1027 C 0.48457 0.94252 0.61609 0.0
C1028 C 0.45691 0.9509 0.62982 0.0
C1029 C 0.4937 0.96995 0.60222 0.0
C1030 C 0.52188 0.96228 0.58702 0.0
C1031 C 0.51787 0.93062 0.57474 0.0
C1032 C 0.54479 0.92333 0.5606 0.0
C1033 C 0.57571 0.94767 0.5585 0.0
C1034 C 0.57969 0.97942 0.57049 0.0
C1035 C 0.55287 0.98681 0.58468 0.0
H1036 H 0.59653 0.94197 0.54755 0.0
H1037 H 0.33807 0.0153 0.68593 0.0
H1038 H 0.93725 0.89018 0.85328 0.0
H1039 H 0.99564 0.92689 0.85428 0.0
H1040 H 0.93276 0.02704 0.8704 0.0
H1041 H 0.87358 0.99044 0.86929 0.0
H1042 H 0.98853 0.0418 0.84352 0.0
H1043 H 0.97946 0.98029 0.90411 0.0
H1044 H 0.97018 0.92632 0.92574 0.0
H1045 H 0.06757 0.87043 0.90201 0.0
H1046 H 0.07711 0.92383 0.88002 0.0
H1047 H 0.15223 0.14303 0.87743 0.0
H1048 H 0.09034 0.11237 0.87387 0.0
H1049 H 0.14547 0.00626 0.86029 0.0
H1050 H 0.20754 0.03662 0.86409 0.0
H1051 H 0.09175 0.99711 0.88665 0.0
H1052 H 0.10058 0.05874 0.82579 0.0
H1053 H 0.10968 0.11285 0.8042 0.0
H1054 H 0.01303 0.169 0.82854 0.0
H1055 H 0.0037 0.11549 0.85049 0.0
C1056 C 0.93559 0.92003 0.85702 0.0
C1057 C 0.90061 0.93721 0.86143 0.0
C1058 C 0.96912 0.94097 0.85758 0.0
C1059 C 0.96862 0.97953 0.8627 0.0
C1060 C 0.93374 0.99725 0.86648 0.0
C1061 C 0.89999 0.97625 0.8659 0.0
C1062 C 0.00485 0.00067 0.86466 0.0
C1063 C 0.01094 0.03244 0.85315 0.0
C1064 C 0.03427 0.98798 0.87699 0.0
C1065 C 0.0288 0.95593 0.8903 0.0
C1066 C 0.99874 0.95637 0.9034 0.0
C1067 C 0.99345 0.9259 0.91574 0.0
C1068 C 0.01822 0.89493 0.91522 0.0
C1069 C 0.04839 0.89442 0.90239 0.0
C1070 C 0.05377 0.9248 0.88999 0.0
C1071 C 0.1512 0.11322 0.87355 0.0
C1072 C 0.18478 0.09221 0.87107 0.0
C1073 C 0.11578 0.09579 0.87144 0.0
C1074 C 0.11326 0.05709 0.86666 0.0
C1075 C 0.14676 0.03616 0.86398 0.0
C1076 C 0.1822 0.05356 0.86611 0.0
C1077 C 0.0758 0.03798 0.8653 0.0
C1078 C 0.0694 0.00659 0.87702 0.0
C1079 C 0.04619 0.05112 0.85318 0.0
C1080 C 0.05167 0.08325 0.83992 0.0
C1081 C 0.08145 0.08276 0.82665 0.0
C1082 C 0.08662 0.1133 0.81433 0.0
C1083 C 0.062 0.14437 0.81503 0.0
C1084 C 0.03211 0.14493 0.82803 0.0
C1085 C 0.02685 0.1145 0.8404 0.0
H1086 H 0.06602 0.16796 0.80547 0.0
H1087 H 0.01408 0.87136 0.92479 0.0
loop_
_geom_bond_atom_site_label_1
_geom_bond_atom_site_label_2
_geom_bond_distance
_geom_bond_site_symmetry_2
_ccdc_geom_bond_type
Mn0 O5 2.095 . S
Mn0 O15 2.162 . S
Mn0 O16 2.297 . S
Mn0 O24 2.385 . S
Mn0 O25 2.209 . S
Mn0 O26 2.094 . S
Mn1 O6 2.121 . S
Mn1 N8 2.257 . S
Mn1 N17 2.282 . S
Mn1 O25 2.215 . S
Mn1 O27 2.117 . S
C2 O24 1.234 . S
C2 O25 1.283 . S
C3 O15 1.281 . S
C3 O16 1.236 . S
C4 O26 1.240 . S
C4 O27 1.264 . S
O5 Mn0 2.095 . S
O5 C14 1.250 . S
O6 Mn1 2.121 . S
O6 C14 1.258 . S
C7 N8 1.326 . S
C7 C11 1.460 . S
C7 H13 0.929 . S
N8 Mn1 2.257 . S
N8 C7 1.326 . S
N8 C12 1.362 . S
C9 C10 1.258 . S
C9 C12 1.431 . S
C9 C29 1.449 . S
C10 C9 1.258 . S
C10 C11 1.477 . S
C10 H30 0.931 . S
C11 C7 1.460 . S
C11 C10 1.477 . S
C11 H31 0.930 . S
C12 N8 1.362 . S
C12 C9 1.431 . S
C12 C22 1.476 . S
H13 C7 0.929 . S
C14 O5 1.250 . S
C14 O6 1.258 . S
O15 Mn0 2.162 . S
O15 C3 1.281 . S
O16 Mn0 2.297 . S
O16 C3 1.236 . S
N17 Mn1 2.282 . S
N17 C18 1.328 . S
N17 C22 1.318 . S
C18 N17 1.328 . S
C18 C19 1.457 . S
C18 H23 0.929 . S
C19 C18 1.457 . S
C19 C20 1.291 . S
C19 H32 0.931 . S
C20 C19 1.291 . S
C20 C21 1.373 . S
C20 H33 0.929 . S
C21 C20 1.373 . S
C21 C22 1.396 . S
C21 C28 1.403 . S
C22 C12 1.476 . S
C22 N17 1.318 . S
C22 C21 1.396 . S
H23 C18 0.929 . S
O24 Mn0 2.385 . S
O24 C2 1.234 . S
O25 Mn0 2.209 . S
O25 Mn1 2.215 . S
O25 C2 1.283 . S
O26 Mn0 2.094 . S
O26 C4 1.240 . S
O27 Mn1 2.117 . S
O27 C4 1.264 . S
C28 C21 1.403 . S
C28 C29 1.399 . S
C28 H34 0.929 . S
C29 C9 1.449 . S
C29 C28 1.399 . S
C29 H35 0.930 . S
H30 C10 0.931 . S
H31 C11 0.930 . S
H32 C19 0.931 . S
H33 C20 0.929 . S
H34 C28 0.929 . S
H35 C29 0.930 . S
Mn36 O41 2.095 . S
Mn36 O51 2.162 . S
Mn36 O52 2.297 . S
Mn36 O60 2.385 . S
Mn36 O61 2.209 . S
Mn36 O62 2.094 . S
Mn37 O42 2.121 . S
Mn37 N44 2.257 . S
Mn37 N53 2.282 . S
Mn37 O61 2.215 . S
Mn37 O63 2.117 . S
C38 O60 1.234 . S
C38 O61 1.283 . S
C39 O51 1.281 . S
C39 O52 1.236 . S
C40 O62 1.240 . S
C40 O63 1.264 . S
O41 Mn36 2.095 . S
O41 C50 1.250 . S
O42 Mn37 2.121 . S
O42 C50 1.258 . S
C43 N44 1.326 . S
C43 C47 1.460 . S
C43 H49 0.929 . S
N44 Mn37 2.257 . S
N44 C43 1.326 . S
N44 C48 1.362 . S
C45 C46 1.258 . S
C45 C48 1.431 . S
C45 C65 1.449 . S
C46 C45 1.258 . S
C46 C47 1.477 . S
C46 H66 0.931 . S
C47 C43 1.460 . S
C47 C46 1.477 . S
C47 H67 0.930 . S
C48 N44 1.362 . S
C48 C45 1.431 . S
C48 C58 1.476 . S
H49 C43 0.929 . S
C50 O41 1.250 . S
C50 O42 1.258 . S
O51 Mn36 2.162 . S
O51 C39 1.281 . S
O52 Mn36 2.297 . S
O52 C39 1.236 . S
N53 Mn37 2.282 . S
N53 C54 1.328 . S
N53 C58 1.318 . S
C54 N53 1.328 . S
C54 C55 1.457 . S
C54 H59 0.929 . S
C55 C54 1.457 . S
C55 C56 1.291 . S
C55 H68 0.931 . S
C56 C55 1.291 . S
C56 C57 1.373 . S
C56 H69 0.929 . S
C57 C56 1.373 . S
C57 C58 1.396 . S
C57 C64 1.403 . S
C58 C48 1.476 . S
C58 N53 1.318 . S
C58 C57 1.396 . S
H59 C54 0.929 . S
O60 Mn36 2.385 . S
O60 C38 1.234 . S
O61 Mn36 2.209 . S
O61 Mn37 2.215 . S
O61 C38 1.283 . S
O62 Mn36 2.094 . S
O62 C40 1.240 . S
O63 Mn37 2.117 . S
O63 C40 1.264 . S
C64 C57 1.403 . S
C64 C65 1.399 . S
C64 H70 0.929 . S
C65 C45 1.449 . S
C65 C64 1.399 . S
C65 H71 0.930 . S
H66 C46 0.931 . S
H67 C47 0.930 . S
H68 C55 0.931 . S
H69 C56 0.929 . S
H70 C64 0.929 . S
H71 C65 0.930 . S
Mn72 O77 2.095 . S
Mn72 O87 2.162 . S
Mn72 O88 2.297 . S
Mn72 O96 2.385 . S
Mn72 O97 2.209 . S
Mn72 O98 2.094 . S
Mn73 O78 2.121 . S
Mn73 N80 2.257 . S
Mn73 N89 2.282 . S
Mn73 O97 2.215 . S
Mn73 O99 2.117 . S
C74 O96 1.234 . S
C74 O97 1.283 . S
C75 O87 1.281 . S
C75 O88 1.236 . S
C76 O98 1.240 . S
C76 O99 1.264 . S
O77 Mn72 2.095 . S
O77 C86 1.250 . S
O78 Mn73 2.121 . S
O78 C86 1.258 . S
C79 N80 1.326 . S
C79 C83 1.460 . S
C79 H85 0.929 . S
N80 Mn73 2.257 . S
N80 C79 1.326 . S
N80 C84 1.362 . S
C81 C82 1.258 . S
C81 C84 1.431 . S
C81 C101 1.449 . S
C82 C81 1.258 . S
C82 C83 1.477 . S
C82 H102 0.931 . S
C83 C79 1.460 . S
C83 C82 1.477 . S
C83 H103 0.930 . S
C84 N80 1.362 . S
C84 C81 1.431 . S
C84 C94 1.476 . S
H85 C79 0.929 . S
C86 O77 1.250 . S
C86 O78 1.258 . S
O87 Mn72 2.162 . S
O87 C75 1.281 . S
O88 Mn72 2.297 . S
O88 C75 1.236 . S
N89 Mn73 2.282 . S
N89 C90 1.328 . S
N89 C94 1.318 . S
C90 N89 1.328 . S
C90 C91 1.457 . S
C90 H95 0.929 . S
C91 C90 1.457 . S
C91 C92 1.291 . S
C91 H104 0.931 . S
C92 C91 1.291 . S
C92 C93 1.373 . S
C92 H105 0.929 . S
C93 C92 1.373 . S
C93 C94 1.396 . S
C93 C100 1.403 . S
C94 C84 1.476 . S
C94 N89 1.318 . S
C94 C93 1.396 . S
H95 C90 0.929 . S
O96 Mn72 2.385 . S
O96 C74 1.234 . S
O97 Mn72 2.209 . S
O97 Mn73 2.215 . S
O97 C74 1.283 . S
O98 Mn72 2.094 . S
O98 C76 1.240 . S
O99 Mn73 2.117 . S
O99 C76 1.264 . S
C100 C93 1.403 . S
C100 C101 1.399 . S
C100 H106 0.929 . S
C101 C81 1.449 . S
C101 C100 1.399 . S
C101 H107 0.930 . S
H102 C82 0.931 . S
H103 C83 0.930 . S
H104 C91 0.931 . S
H105 C92 0.929 . S
H106 C100 0.929 . S
H107 C101 0.930 . S
Mn108 O113 2.095 . S
Mn108 O123 2.162 . S
Mn108 O124 2.297 . S
Mn108 O132 2.385 . S
Mn108 O133 2.209 . S
Mn108 O134 2.094 . S
Mn109 O114 2.121 . S
Mn109 N116 2.257 . S
Mn109 N125 2.282 . S
Mn109 O133 2.215 . S
Mn109 O135 2.117 . S
C110 O132 1.234 . S
C110 O133 1.283 . S
C111 O123 1.281 . S
C111 O124 1.236 . S
C112 O134 1.240 . S
C112 O135 1.264 . S
O113 Mn108 2.095 . S
O113 C122 1.250 . S
O114 Mn109 2.121 . S
O114 C122 1.258 . S
C115 N116 1.326 . S
C115 C119 1.460 . S
C115 H121 0.929 . S
N116 Mn109 2.257 . S
N116 C115 1.326 . S
N116 C120 1.362 . S
C117 C118 1.258 . S
C117 C120 1.431 . S
C117 C137 1.449 . S
C118 C117 1.258 . S
C118 C119 1.477 . S
C118 H138 0.931 . S
C119 C115 1.460 . S
C119 C118 1.477 . S
C119 H139 0.930 . S
C120 N116 1.362 . S
C120 C117 1.431 . S
C120 C130 1.476 . S
H121 C115 0.929 . S
C122 O113 1.250 . S
C122 O114 1.258 . S
O123 Mn108 2.162 . S
O123 C111 1.281 . S
O124 Mn108 2.297 . S
O124 C111 1.236 . S
N125 Mn109 2.282 . S
N125 C126 1.328 . S
N125 C130 1.318 . S
C126 N125 1.328 . S
C126 C127 1.457 . S
C126 H131 0.929 . S
C127 C126 1.457 . S
C127 C128 1.291 . S
C127 H140 0.931 . S
C128 C127 1.291 . S
C128 C129 1.373 . S
C128 H141 0.929 . S
C129 C128 1.373 . S
C129 C130 1.396 . S
C129 C136 1.403 . S
C130 C120 1.476 . S
C130 N125 1.318 . S
C130 C129 1.396 . S
H131 C126 0.929 . S
O132 Mn108 2.385 . S
O132 C110 1.234 . S
O133 Mn108 2.209 . S
O133 Mn109 2.215 . S
O133 C110 1.283 . S
O134 Mn108 2.094 . S
O134 C112 1.240 . S
O135 Mn109 2.117 . S
O135 C112 1.264 . S
C136 C129 1.403 . S
C136 C137 1.399 . S
C136 H142 0.929 . S
C137 C117 1.449 . S
C137 C136 1.399 . S
C137 H143 0.930 . S
H138 C118 0.931 . S
H139 C119 0.930 . S
H140 C127 0.931 . S
H141 C128 0.929 . S
H142 C136 0.929 . S
H143 C137 0.930 . S
Mn144 O149 2.095 . S
Mn144 O159 2.162 . S
Mn144 O160 2.297 . S
Mn144 O168 2.385 . S
Mn144 O169 2.209 . S
Mn144 O170 2.094 . S
Mn145 O150 2.121 . S
Mn145 N152 2.257 . S
Mn145 N161 2.282 . S
Mn145 O169 2.215 . S
Mn145 O171 2.117 . S
C146 O168 1.234 . S
C146 O169 1.283 . S
C147 O159 1.281 . S
C147 O160 1.236 . S
C148 O170 1.240 . S
C148 O171 1.264 . S
O149 Mn144 2.095 . S
O149 C158 1.250 . S
O150 Mn145 2.121 . S
O150 C158 1.258 . S
C151 N152 1.326 . S
C151 C155 1.460 . S
C151 H157 0.929 . S
N152 Mn145 2.257 . S
N152 C151 1.326 . S
N152 C156 1.362 . S
C153 C154 1.258 . S
C153 C156 1.431 . S
C153 C173 1.449 . S
C154 C153 1.258 . S
C154 C155 1.477 . S
C154 H174 0.931 . S
C155 C151 1.460 . S
C155 C154 1.477 . S
C155 H175 0.930 . S
C156 N152 1.362 . S
C156 C153 1.431 . S
C156 C166 1.476 . S
H157 C151 0.929 . S
C158 O149 1.250 . S
C158 O150 1.258 . S
O159 Mn144 2.162 . S
O159 C147 1.281 . S
O160 Mn144 2.297 . S
O160 C147 1.236 . S
N161 Mn145 2.282 . S
N161 C162 1.328 . S
N161 C166 1.318 . S
C162 N161 1.328 . S
C162 C163 1.457 . S
C162 H167 0.929 . S
C163 C162 1.457 . S
C163 C164 1.291 . S
C163 H176 0.931 . S
C164 C163 1.291 . S
C164 C165 1.373 . S
C164 H177 0.929 . S
C165 C164 1.373 . S
C165 C166 1.396 . S
C165 C172 1.403 . S
C166 C156 1.476 . S
C166 N161 1.318 . S
C166 C165 1.396 . S
H167 C162 0.929 . S
O168 Mn144 2.385 . S
O168 C146 1.234 . S
O169 Mn144 2.209 . S
O169 Mn145 2.215 . S
O169 C146 1.283 . S
O170 Mn144 2.094 . S
O170 C148 1.240 . S
O171 Mn145 2.117 . S
O171 C148 1.264 . S
C172 C165 1.403 . S
C172 C173 1.399 . S
C172 H178 0.929 . S
C173 C153 1.449 . S
C173 C172 1.399 . S
C173 H179 0.930 . S
H174 C154 0.931 . S
H175 C155 0.930 . S
H176 C163 0.931 . S
H177 C164 0.929 . S
H178 C172 0.929 . S
H179 C173 0.930 . S
Mn180 O185 2.095 . S
Mn180 O195 2.162 . S
Mn180 O196 2.297 . S
Mn180 O204 2.385 . S
Mn180 O205 2.209 . S
Mn180 O206 2.094 . S
Mn181 O186 2.121 . S
Mn181 N188 2.257 . S
Mn181 N197 2.282 . S
Mn181 O205 2.215 . S
Mn181 O207 2.117 . S
C182 O204 1.234 . S
C182 O205 1.283 . S
C183 O195 1.281 . S
C183 O196 1.236 . S
C184 O206 1.240 . S
C184 O207 1.264 . S
O185 Mn180 2.095 . S
O185 C194 1.250 . S
O186 Mn181 2.121 . S
O186 C194 1.258 . S
C187 N188 1.326 . S
C187 C191 1.460 . S
C187 H193 0.929 . S
N188 Mn181 2.257 . S
N188 C187 1.326 . S
N188 C192 1.362 . S
C189 C190 1.258 . S
C189 C192 1.431 . S
C189 C209 1.449 . S
C190 C189 1.258 . S
C190 C191 1.477 . S
C190 H210 0.931 . S
C191 C187 1.460 . S
C191 C190 1.477 . S
C191 H211 0.930 . S
C192 N188 1.362 . S
C192 C189 1.431 . S
C192 C202 1.476 . S
H193 C187 0.929 . S
C194 O185 1.250 . S
C194 O186 1.258 . S
O195 Mn180 2.162 . S
O195 C183 1.281 . S
O196 Mn180 2.297 . S
O196 C183 1.236 . S
N197 Mn181 2.282 . S
N197 C198 1.328 . S
N197 C202 1.318 . S
C198 N197 1.328 . S
C198 C199 1.457 . S
C198 H203 0.929 . S
C199 C198 1.457 . S
C199 C200 1.291 . S
C199 H212 0.931 . S
C200 C199 1.291 . S
C200 C201 1.373 . S
C200 H213 0.929 . S
C201 C200 1.373 . S
C201 C202 1.396 . S
C201 C208 1.403 . S
C202 C192 1.476 . S
C202 N197 1.318 . S
C202 C201 1.396 . S
H203 C198 0.929 . S
O204 Mn180 2.385 . S
O204 C182 1.234 . S
O205 Mn180 2.209 . S
O205 Mn181 2.215 . S
O205 C182 1.283 . S
O206 Mn180 2.094 . S
O206 C184 1.240 . S
O207 Mn181 2.117 . S
O207 C184 1.264 . S
C208 C201 1.403 . S
C208 C209 1.399 . S
C208 H214 0.929 . S
C209 C189 1.449 . S
C209 C208 1.399 . S
C209 H215 0.930 . S
H210 C190 0.931 . S
H211 C191 0.930 . S
H212 C199 0.931 . S
H213 C200 0.929 . S
H214 C208 0.929 . S
H215 C209 0.930 . S
Mn216 O221 2.095 . S
Mn216 O231 2.162 . S
Mn216 O232 2.297 . S
Mn216 O240 2.385 . S
Mn216 O241 2.209 . S
Mn216 O242 2.094 . S
Mn217 O222 2.121 . S
Mn217 N224 2.257 . S
Mn217 N233 2.282 . S
Mn217 O241 2.215 . S
Mn217 O243 2.117 . S
C218 O240 1.234 . S
C218 O241 1.283 . S
C219 O231 1.281 . S
C219 O232 1.236 . S
C220 O242 1.240 . S
C220 O243 1.264 . S
O221 Mn216 2.095 . S
O221 C230 1.250 . S
O222 Mn217 2.121 . S
O222 C230 1.258 . S
C223 N224 1.326 . S
C223 C227 1.460 . S
C223 H229 0.929 . S
N224 Mn217 2.257 . S
N224 C223 1.326 . S
N224 C228 1.362 . S
C225 C226 1.258 . S
C225 C228 1.431 . S
C225 C245 1.449 . S
C226 C225 1.258 . S
C226 C227 1.477 . S
C226 H246 0.931 . S
C227 C223 1.460 . S
C227 C226 1.477 . S
C227 H247 0.930 . S
C228 N224 1.362 . S
C228 C225 1.431 . S
C228 C238 1.476 . S
H229 C223 0.929 . S
C230 O221 1.250 . S
C230 O222 1.258 . S
O231 Mn216 2.162 . S
O231 C219 1.281 . S
O232 Mn216 2.297 . S
O232 C219 1.236 . S
N233 Mn217 2.282 . S
N233 C234 1.328 . S
N233 C238 1.318 . S
C234 N233 1.328 . S
C234 C235 1.457 . S
C234 H239 0.929 . S
C235 C234 1.457 . S
C235 C236 1.291 . S
C235 H248 0.931 . S
C236 C235 1.291 . S
C236 C237 1.373 . S
C236 H249 0.929 . S
C237 C236 1.373 . S
C237 C238 1.396 . S
C237 C244 1.403 . S
C238 C228 1.476 . S
C238 N233 1.318 . S
C238 C237 1.396 . S
H239 C234 0.929 . S
O240 Mn216 2.385 . S
O240 C218 1.234 . S
O241 Mn216 2.209 . S
O241 Mn217 2.215 . S
O241 C218 1.283 . S
O242 Mn216 2.094 . S
O242 C220 1.240 . S
O243 Mn217 2.117 . S
O243 C220 1.264 . S
C244 C237 1.403 . S
C244 C245 1.399 . S
C244 H250 0.929 . S
C245 C225 1.449 . S
C245 C244 1.399 . S
C245 H251 0.930 . S
H246 C226 0.931 . S
H247 C227 0.930 . S
H248 C235 0.931 . S
H249 C236 0.929 . S
H250 C244 0.929 . S
H251 C245 0.930 . S
Mn252 O257 2.095 . S
Mn252 O267 2.162 . S
Mn252 O268 2.297 . S
Mn252 O276 2.385 . S
Mn252 O277 2.209 . S
Mn252 O278 2.094 . S
Mn253 O258 2.121 . S
Mn253 N260 2.257 . S
Mn253 N269 2.282 . S
Mn253 O277 2.215 . S
Mn253 O279 2.117 . S
C254 O276 1.234 . S
C254 O277 1.283 . S
C255 O267 1.281 . S
C255 O268 1.236 . S
C256 O278 1.240 . S
C256 O279 1.264 . S
O257 Mn252 2.095 . S
O257 C266 1.250 . S
O258 Mn253 2.121 . S
O258 C266 1.258 . S
C259 N260 1.326 . S
C259 C263 1.460 . S
C259 H265 0.929 . S
N260 Mn253 2.257 . S
N260 C259 1.326 . S
N260 C264 1.362 . S
C261 C262 1.258 . S
C261 C264 1.431 . S
C261 C281 1.449 . S
C262 C261 1.258 . S
C262 C263 1.477 . S
C262 H282 0.931 . S
C263 C259 1.460 . S
C263 C262 1.477 . S
C263 H283 0.930 . S
C264 N260 1.362 . S
C264 C261 1.431 . S
C264 C274 1.476 . S
H265 C259 0.929 . S
C266 O257 1.250 . S
C266 O258 1.258 . S
O267 Mn252 2.162 . S
O267 C255 1.281 . S
O268 Mn252 2.297 . S
O268 C255 1.236 . S
N269 Mn253 2.282 . S
N269 C270 1.328 . S
N269 C274 1.318 . S
C270 N269 1.328 . S
C270 C271 1.457 . S
C270 H275 0.929 . S
C271 C270 1.457 . S
C271 C272 1.291 . S
C271 H284 0.931 . S
C272 C271 1.291 . S
C272 C273 1.373 . S
C272 H285 0.929 . S
C273 C272 1.373 . S
C273 C274 1.396 . S
C273 C280 1.403 . S
C274 C264 1.476 . S
C274 N269 1.318 . S
C274 C273 1.396 . S
H275 C270 0.929 . S
O276 Mn252 2.385 . S
O276 C254 1.234 . S
O277 Mn252 2.209 . S
O277 Mn253 2.215 . S
O277 C254 1.283 . S
O278 Mn252 2.094 . S
O278 C256 1.240 . S
O279 Mn253 2.117 . S
O279 C256 1.264 . S
C280 C273 1.403 . S
C280 C281 1.399 . S
C280 H286 0.929 . S
C281 C261 1.449 . S
C281 C280 1.399 . S
C281 H287 0.930 . S
H282 C262 0.931 . S
H283 C263 0.930 . S
H284 C271 0.931 . S
H285 C272 0.929 . S
H286 C280 0.929 . S
H287 C281 0.930 . S
H288 C306 0.951 . S
H289 C308 0.951 . S
H290 C310 0.950 . S
H291 C311 0.950 . S
H292 C313 0.950 . S
H293 C316 0.950 . S
H294 C317 0.950 . S
H295 C319 0.941 1_556 S
H296 C320 0.932 1_556 S
H297 C321 0.951 . S
H298 C323 0.951 . S
H299 C325 0.950 . S
H300 C326 0.950 . S
H301 C328 0.950 . S
H302 C331 0.950 . S
H303 C332 0.950 . S
H304 C334 0.950 . S
H305 C335 0.950 1_554 S
C306 H288 0.951 . S
C306 C307 1.366 . S
C306 C308 1.388 . S
C307 C306 1.366 . S
C307 C311 1.385 . S
C308 H289 0.951 . S
C308 C306 1.388 . S
C308 C309 1.366 . S
C309 C308 1.366 . S
C309 C310 1.414 . S
C309 C312 1.499 . S
C310 H290 0.950 . S
C310 C309 1.414 . S
C310 C311 1.374 . S
C311 H291 0.950 . S
C311 C307 1.385 . S
C311 C310 1.374 . S
C312 C309 1.499 . S
C312 C313 1.373 . S
C312 C314 1.389 . S
C313 H292 0.950 . S
C313 C312 1.373 . S
C313 C329 1.377 1_554 S
C314 C312 1.389 . S
C314 C315 1.524 . S
C314 C328 1.377 1_554 S
C315 C314 1.524 . S
C315 C316 1.397 . S
C315 C320 1.376 . S
C316 H293 0.950 . S
C316 C315 1.397 . S
C316 C317 1.334 . S
C317 H294 0.950 . S
C317 C316 1.334 . S
C317 C318 1.287 . S
C318 C317 1.287 . S
C318 C319 1.524 . S
C318 H337 0.913 . S
C319 H295 0.941 1_554 S
C319 C318 1.524 . S
C319 C320 1.420 . S
C320 H296 0.932 1_554 S
C320 C315 1.376 . S
C320 C319 1.420 . S
C321 H297 0.951 . S
C321 C322 1.366 . S
C321 C323 1.388 . S
C322 C321 1.366 . S
C322 C326 1.385 . S
C323 H298 0.951 . S
C323 C321 1.388 . S
C323 C324 1.366 . S
C324 C323 1.366 . S
C324 C325 1.414 . S
C324 C327 1.499 . S
C325 H299 0.950 . S
C325 C324 1.414 . S
C325 C326 1.374 . S
C326 H300 0.950 . S
C326 C322 1.385 . S
C326 C325 1.374 . S
C327 C324 1.499 . S
C327 C328 1.373 . S
C327 C329 1.389 . S
C328 H301 0.950 . S
C328 C314 1.377 1_556 S
C328 C327 1.373 . S
C329 C313 1.377 1_556 S
C329 C327 1.389 . S
C329 C330 1.524 . S
C330 C329 1.524 . S
C330 C331 1.397 . S
C330 C335 1.363 . S
C331 H302 0.950 . S
C331 C330 1.397 . S
C331 C332 1.334 . S
C332 H303 0.950 . S
C332 C331 1.334 . S
C332 C333 1.287 . S
C333 C332 1.287 . S
C333 C334 1.524 . S
C333 H336 0.999 . S
C334 H304 0.950 . S
C334 C333 1.524 . S
C334 C335 1.415 . S
C335 H305 0.950 1_556 S
C335 C330 1.363 . S
C335 C334 1.415 . S
H336 C333 0.999 . S
H337 C318 0.913 . S
H338 C356 0.951 . S
H339 C358 0.951 . S
H340 C360 0.950 . S
H341 C361 0.950 . S
H342 C363 0.950 . S
H343 C366 0.950 . S
H344 C367 0.950 . S
H345 C369 0.950 . S
H346 C370 0.950 . S
H347 C371 0.951 . S
H348 C373 0.951 . S
H349 C375 0.950 . S
H350 C376 0.950 . S
H351 C378 0.950 . S
H352 C381 0.950 . S
H353 C382 0.950 . S
H354 C384 0.950 . S
H355 C385 0.950 . S
C356 H338 0.951 . S
C356 C357 1.366 . S
C356 C358 1.388 . S
C357 C356 1.366 . S
C357 C361 1.385 . S
C358 H339 0.951 . S
C358 C356 1.388 . S
C358 C359 1.366 . S
C359 C358 1.366 . S
C359 C360 1.414 . S
C359 C362 1.499 . S
C360 H340 0.950 . S
C360 C359 1.414 . S
C360 C361 1.374 . S
C361 H341 0.950 . S
C361 C357 1.385 . S
C361 C360 1.374 . S
C362 C359 1.499 . S
C362 C363 1.373 . S
C362 C364 1.389 . S
C363 H342 0.950 . S
C363 C362 1.373 . S
C363 C379 1.377 . S
C364 C362 1.389 . S
C364 C365 1.524 . S
C364 C378 1.377 . S
C365 C364 1.524 . S
C365 C366 1.397 . S
C365 C370 1.363 . S
C366 H343 0.950 . S
C366 C365 1.397 . S
C366 C367 1.334 . S
C367 H344 0.950 . S
C367 C366 1.334 . S
C367 C368 1.287 . S
C368 C367 1.287 . S
C368 C369 1.524 . S
C368 H387 0.913 . S
C369 H345 0.950 . S
C369 C368 1.524 . S
C369 C370 1.415 . S
C370 H346 0.950 . S
C370 C365 1.363 . S
C370 C369 1.415 . S
C371 H347 0.951 . S
C371 C372 1.366 . S
C371 C373 1.388 . S
C372 C371 1.366 . S
C372 C376 1.385 . S
C373 H348 0.951 . S
C373 C371 1.388 . S
C373 C374 1.366 . S
C374 C373 1.366 . S
C374 C375 1.414 . S
C374 C377 1.499 . S
C375 H349 0.950 . S
C375 C374 1.414 . S
C375 C376 1.374 . S
C376 H350 0.950 . S
C376 C372 1.385 . S
C376 C375 1.374 . S
C377 C374 1.499 . S
C377 C378 1.373 . S
C377 C379 1.389 . S
C378 H351 0.950 . S
C378 C364 1.377 . S
C378 C377 1.373 . S
C379 C363 1.377 . S
C379 C377 1.389 . S
C379 C380 1.524 . S
C380 C379 1.524 . S
C380 C381 1.397 . S
C380 C385 1.363 . S
C381 H352 0.950 . S
C381 C380 1.397 . S
C381 C382 1.334 . S
C382 H353 0.950 . S
C382 C381 1.334 . S
C382 C383 1.287 . S
C383 C382 1.287 . S
C383 C384 1.524 . S
C383 H386 0.999 . S
C384 H354 0.950 . S
C384 C383 1.524 . S
C384 C385 1.415 . S
C385 H355 0.950 . S
C385 C380 1.363 . S
C385 C384 1.415 . S
H386 C383 0.999 . S
H387 C368 0.913 . S
H388 C406 0.951 . S
H389 C408 0.951 . S
H390 C410 0.950 . S
H391 C411 0.950 . S
H392 C413 0.950 . S
H393 C416 0.950 . S
H394 C417 0.950 . S
H395 C419 0.950 . S
H396 C420 0.950 . S
H397 C421 0.951 . S
H398 C423 0.951 . S
H399 C425 0.950 . S
H400 C426 0.950 . S
H401 C428 0.950 . S
H402 C431 0.950 . S
H403 C432 0.950 . S
H404 C434 0.950 . S
H405 C435 0.950 . S
C406 H388 0.951 . S
C406 C407 1.366 . S
C406 C408 1.388 . S
C407 C406 1.366 . S
C407 C411 1.385 . S
C408 H389 0.951 . S
C408 C406 1.388 . S
C408 C409 1.366 . S
C409 C408 1.366 . S
C409 C410 1.414 . S
C409 C412 1.499 . S
C410 H390 0.950 . S
C410 C409 1.414 . S
C410 C411 1.374 . S
C411 H391 0.950 . S
C411 C407 1.385 . S
C411 C410 1.374 . S
C412 C409 1.499 . S
C412 C413 1.373 . S
C412 C414 1.389 . S
C413 H392 0.950 . S
C413 C412 1.373 . S
C413 C429 1.377 . S
C414 C412 1.389 . S
C414 C415 1.524 . S
C414 C428 1.377 . S
C415 C414 1.524 . S
C415 C416 1.397 . S
C415 C420 1.363 . S
C416 H393 0.950 . S
C416 C415 1.397 . S
C416 C417 1.334 . S
C417 H394 0.950 . S
C417 C416 1.334 . S
C417 C418 1.287 . S
C418 C417 1.287 . S
C418 C419 1.524 . S
C418 H437 0.913 . S
C419 H395 0.950 . S
C419 C418 1.524 . S
C419 C420 1.415 . S
C420 H396 0.950 . S
C420 C415 1.363 . S
C420 C419 1.415 . S
C421 H397 0.951 . S
C421 C422 1.366 . S
C421 C423 1.388 . S
C422 C421 1.366 . S
C422 C426 1.385 . S
C423 H398 0.951 . S
C423 C421 1.388 . S
C423 C424 1.366 . S
C424 C423 1.366 . S
C424 C425 1.414 . S
C424 C427 1.499 . S
C425 H399 0.950 . S
C425 C424 1.414 . S
C425 C426 1.374 . S
C426 H400 0.950 . S
C426 C422 1.385 . S
C426 C425 1.374 . S
C427 C424 1.499 . S
C427 C428 1.373 . S
C427 C429 1.389 . S
C428 H401 0.950 . S
C428 C414 1.377 . S
C428 C427 1.373 . S
C429 C413 1.377 . S
C429 C427 1.389 . S
C429 C430 1.524 . S
C430 C429 1.524 . S
C430 C431 1.397 . S
C430 C435 1.363 . S
C431 H402 0.950 . S
C431 C430 1.397 . S
C431 C432 1.334 . S
C432 H403 0.950 . S
C432 C431 1.334 . S
C432 C433 1.287 . S
C433 C432 1.287 . S
C433 C434 1.524 . S
C433 H436 0.999 . S
C434 H404 0.950 . S
C434 C433 1.524 . S
C434 C435 1.415 . S
C435 H405 0.950 . S
C435 C430 1.363 . S
C435 C434 1.415 . S
H436 C433 0.999 . S
H437 C418 0.913 . S
H438 C456 0.951 . S
H439 C458 0.951 . S
H440 C460 0.950 . S
H441 C461 0.950 . S
H442 C463 0.950 . S
H443 C466 0.950 . S
H444 C467 0.950 . S
H445 C469 0.950 . S
H446 C470 0.950 . S
H447 C471 0.951 . S
H448 C473 0.951 . S
H449 C475 0.950 . S
H450 C476 0.950 . S
H451 C478 0.950 . S
H452 C481 0.950 . S
H453 C482 0.950 . S
H454 C484 0.950 . S
H455 C485 0.950 . S
C456 H438 0.951 . S
C456 C457 1.366 . S
C456 C458 1.388 . S
C457 C456 1.366 . S
C457 C461 1.385 . S
C458 H439 0.951 . S
C458 C456 1.388 . S
C458 C459 1.366 . S
C459 C458 1.366 . S
C459 C460 1.414 . S
C459 C462 1.499 . S
C460 H440 0.950 . S
C460 C459 1.414 . S
C460 C461 1.374 . S
C461 H441 0.950 . S
C461 C457 1.385 . S
C461 C460 1.374 . S
C462 C459 1.499 . S
C462 C463 1.373 . S
C462 C464 1.389 . S
C463 H442 0.950 . S
C463 C462 1.373 . S
C463 C479 1.377 . S
C464 C462 1.389 . S
C464 C465 1.524 . S
C464 C478 1.377 . S
C465 C464 1.524 . S
C465 C466 1.397 . S
C465 C470 1.363 . S
C466 H443 0.950 . S
C466 C465 1.397 . S
C466 C467 1.334 . S
C467 H444 0.950 . S
C467 C466 1.334 . S
C467 C468 1.287 . S
C468 C467 1.287 . S
C468 C469 1.524 . S
C468 H487 0.913 . S
C469 H445 0.950 . S
C469 C468 1.524 . S
C469 C470 1.415 . S
C470 H446 0.950 . S
C470 C465 1.363 . S
C470 C469 1.415 . S
C471 H447 0.951 . S
C471 C472 1.366 . S
C471 C473 1.388 . S
C472 C471 1.366 . S
C472 C476 1.385 . S
C473 H448 0.951 . S
C473 C471 1.388 . S
C473 C474 1.366 . S
C474 C473 1.366 . S
C474 C475 1.414 . S
C474 C477 1.499 . S
C475 H449 0.950 . S
C475 C474 1.414 . S
C475 C476 1.374 . S
C476 H450 0.950 . S
C476 C472 1.385 . S
C476 C475 1.374 . S
C477 C474 1.499 . S
C477 C478 1.373 . S
C477 C479 1.389 . S
C478 H451 0.950 . S
C478 C464 1.377 . S
C478 C477 1.373 . S
C479 C463 1.377 . S
C479 C477 1.389 . S
C479 C480 1.524 . S
C480 C479 1.524 . S
C480 C481 1.397 . S
C480 C485 1.363 . S
C481 H452 0.950 . S
C481 C480 1.397 . S
C481 C482 1.334 . S
C482 H453 0.950 . S
C482 C481 1.334 . S
C482 C483 1.287 . S
C483 C482 1.287 . S
C483 C484 1.524 . S
C483 H486 0.999 . S
C484 H454 0.950 . S
C484 C483 1.524 . S
C484 C485 1.415 . S
C485 H455 0.950 . S
C485 C480 1.363 . S
C485 C484 1.415 . S
H486 C483 0.999 . S
H487 C468 0.913 . S
H488 C506 0.951 . S
H489 C508 0.951 . S
H490 C510 0.950 . S
H491 C511 0.950 . S
H492 C513 0.950 . S
H493 C516 0.950 . S
H494 C517 0.950 . S
H495 C519 0.950 . S
H496 C520 0.950 . S
H497 C521 0.951 . S
H498 C523 0.951 . S
H499 C525 0.950 . S
H500 C526 0.950 . S
H501 C528 0.950 . S
H502 C531 0.950 . S
H503 C532 0.950 . S
H504 C534 0.950 . S
H505 C535 0.950 . S
C506 H488 0.951 . S
C506 C507 1.366 . S
C506 C508 1.388 . S
C507 C506 1.366 . S
C507 C511 1.385 . S
C508 H489 0.951 . S
C508 C506 1.388 . S
C508 C509 1.366 . S
C509 C508 1.366 . S
C509 C510 1.414 . S
C509 C512 1.499 . S
C510 H490 0.950 . S
C510 C509 1.414 . S
C510 C511 1.374 . S
C511 H491 0.950 . S
C511 C507 1.385 . S
C511 C510 1.374 . S
C512 C509 1.499 . S
C512 C513 1.373 . S
C512 C514 1.389 . S
C513 H492 0.950 . S
C513 C512 1.373 . S
C513 C529 1.377 . S
C514 C512 1.389 . S
C514 C515 1.524 . S
C514 C528 1.377 . S
C515 C514 1.524 . S
C515 C516 1.397 . S
C515 C520 1.363 . S
C516 H493 0.950 . S
C516 C515 1.397 . S
C516 C517 1.334 . S
C517 H494 0.950 . S
C517 C516 1.334 . S
C517 C518 1.287 . S
C518 C517 1.287 . S
C518 C519 1.524 . S
C518 H537 0.913 . S
C519 H495 0.950 . S
C519 C518 1.524 . S
C519 C520 1.415 . S
C520 H496 0.950 . S
C520 C515 1.363 . S
C520 C519 1.415 . S
C521 H497 0.951 . S
C521 C522 1.366 . S
C521 C523 1.388 . S
C522 C521 1.366 . S
C522 C526 1.385 . S
C523 H498 0.951 . S
C523 C521 1.388 . S
C523 C524 1.366 . S
C524 C523 1.366 . S
C524 C525 1.414 . S
C524 C527 1.499 . S
C525 H499 0.950 . S
C525 C524 1.414 . S
C525 C526 1.374 . S
C526 H500 0.950 . S
C526 C522 1.385 . S
C526 C525 1.374 . S
C527 C524 1.499 . S
C527 C528 1.373 . S
C527 C529 1.389 . S
C528 H501 0.950 . S
C528 C514 1.377 . S
C528 C527 1.373 . S
C529 C513 1.377 . S
C529 C527 1.389 . S
C529 C530 1.524 . S
C530 C529 1.524 . S
C530 C531 1.397 . S
C530 C535 1.363 . S
C531 H502 0.950 . S
C531 C530 1.397 . S
C531 C532 1.334 . S
C532 H503 0.950 . S
C532 C531 1.334 . S
C532 C533 1.287 . S
C533 C532 1.287 . S
C533 C534 1.524 . S
C533 H536 0.999 . S
C534 H504 0.950 . S
C534 C533 1.524 . S
C534 C535 1.415 . S
C535 H505 0.950 . S
C535 C530 1.363 . S
C535 C534 1.415 . S
H536 C533 0.999 . S
H537 C518 0.913 . S
H538 C556 0.951 . S
H539 C558 0.951 . S
H540 C560 0.950 . S
H541 C561 0.950 . S
H542 C563 0.950 . S
H543 C566 0.950 . S
H544 C567 0.950 . S
H545 C569 0.950 . S
H546 C570 0.950 . S
H547 C571 0.951 . S
H548 C573 0.951 . S
H549 C575 0.950 . S
H550 C576 0.950 . S
H551 C578 0.950 . S
H552 C581 0.950 . S
H553 C582 0.950 . S
H554 C584 0.950 . S
H555 C585 0.950 . S
C556 H538 0.951 . S
C556 C557 1.366 . S
C556 C558 1.388 . S
C557 C556 1.366 . S
C557 C561 1.385 . S
C558 H539 0.951 . S
C558 C556 1.388 . S
C558 C559 1.366 . S
C559 C558 1.366 . S
C559 C560 1.414 . S
C559 C562 1.499 . S
C560 H540 0.950 . S
C560 C559 1.414 . S
C560 C561 1.374 . S
C561 H541 0.950 . S
C561 C557 1.385 . S
C561 C560 1.374 . S
C562 C559 1.499 . S
C562 C563 1.373 . S
C562 C564 1.389 . S
C563 H542 0.950 . S
C563 C562 1.373 . S
C563 C579 1.377 . S
C564 C562 1.389 . S
C564 C565 1.524 . S
C564 C578 1.377 . S
C565 C564 1.524 . S
C565 C566 1.397 . S
C565 C570 1.363 . S
C566 H543 0.950 . S
C566 C565 1.397 . S
C566 C567 1.334 . S
C567 H544 0.950 . S
C567 C566 1.334 . S
C567 C568 1.287 . S
C568 C567 1.287 . S
C568 C569 1.524 . S
C568 H587 0.913 . S
C569 H545 0.950 . S
C569 C568 1.524 . S
C569 C570 1.415 . S
C570 H546 0.950 . S
C570 C565 1.363 . S
C570 C569 1.415 . S
C571 H547 0.951 . S
C571 C572 1.366 . S
C571 C573 1.388 . S
C572 C571 1.366 . S
C572 C576 1.385 . S
C573 H548 0.951 . S
C573 C571 1.388 . S
C573 C574 1.366 . S
C574 C573 1.366 . S
C574 C575 1.414 . S
C574 C577 1.499 . S
C575 H549 0.950 . S
C575 C574 1.414 . S
C575 C576 1.374 . S
C576 H550 0.950 . S
C576 C572 1.385 . S
C576 C575 1.374 . S
C577 C574 1.499 . S
C577 C578 1.373 . S
C577 C579 1.389 . S
C578 H551 0.950 . S
C578 C564 1.377 . S
C578 C577 1.373 . S
C579 C563 1.377 . S
C579 C577 1.389 . S
C579 C580 1.524 . S
C580 C579 1.524 . S
C580 C581 1.397 . S
C580 C585 1.363 . S
C581 H552 0.950 . S
C581 C580 1.397 . S
C581 C582 1.334 . S
C582 H553 0.950 . S
C582 C581 1.334 . S
C582 C583 1.287 . S
C583 C582 1.287 . S
C583 C584 1.524 . S
C583 H586 0.999 . S
C584 H554 0.950 . S
C584 C583 1.524 . S
C584 C585 1.415 . S
C585 H555 0.950 . S
C585 C580 1.363 . S
C585 C584 1.415 . S
H586 C583 0.999 . S
H587 C568 0.913 . S
H588 C606 0.951 . S
H589 C608 0.951 . S
H590 C610 0.950 . S
H591 C611 0.950 . S
H592 C613 0.950 . S
H593 C616 0.950 . S
H594 C617 0.950 . S
H595 C619 0.950 . S
H596 C620 0.950 . S
H597 C621 0.951 . S
H598 C623 0.951 . S
H599 C625 0.950 . S
H600 C626 0.950 . S
H601 C628 0.950 . S
H602 C631 0.950 . S
H603 C632 0.950 . S
H604 C634 0.950 . S
H605 C635 0.950 . S
C606 H588 0.951 . S
C606 C607 1.366 . S
C606 C608 1.388 . S
C607 C606 1.366 . S
C607 C611 1.385 . S
C608 H589 0.951 . S
C608 C606 1.388 . S
C608 C609 1.366 . S
C609 C608 1.366 . S
C609 C610 1.414 . S
C609 C612 1.499 . S
C610 H590 0.950 . S
C610 C609 1.414 . S
C610 C611 1.374 . S
C611 H591 0.950 . S
C611 C607 1.385 . S
C611 C610 1.374 . S
C612 C609 1.499 . S
C612 C613 1.373 . S
C612 C614 1.389 . S
C613 H592 0.950 . S
C613 C612 1.373 . S
C613 C629 1.377 . S
C614 C612 1.389 . S
C614 C615 1.524 . S
C614 C628 1.377 . S
C615 C614 1.524 . S
C615 C616 1.397 . S
C615 C620 1.363 . S
C616 H593 0.950 . S
C616 C615 1.397 . S
C616 C617 1.334 . S
C617 H594 0.950 . S
C617 C616 1.334 . S
C617 C618 1.287 . S
C618 C617 1.287 . S
C618 C619 1.524 . S
C618 H637 0.913 . S
C619 H595 0.950 . S
C619 C618 1.524 . S
C619 C620 1.415 . S
C620 H596 0.950 . S
C620 C615 1.363 . S
C620 C619 1.415 . S
C621 H597 0.951 . S
C621 C622 1.366 . S
C621 C623 1.388 . S
C622 C621 1.366 . S
C622 C626 1.385 . S
C623 H598 0.951 . S
C623 C621 1.388 . S
C623 C624 1.366 . S
C624 C623 1.366 . S
C624 C625 1.414 . S
C624 C627 1.499 . S
C625 H599 0.950 . S
C625 C624 1.414 . S
C625 C626 1.374 . S
C626 H600 0.950 . S
C626 C622 1.385 . S
C626 C625 1.374 . S
C627 C624 1.499 . S
C627 C628 1.373 . S
C627 C629 1.389 . S
C628 H601 0.950 . S
C628 C614 1.377 . S
C628 C627 1.373 . S
C629 C613 1.377 . S
C629 C627 1.389 . S
C629 C630 1.524 . S
C630 C629 1.524 . S
C630 C631 1.397 . S
C630 C635 1.363 . S
C631 H602 0.950 . S
C631 C630 1.397 . S
C631 C632 1.334 . S
C632 H603 0.950 . S
C632 C631 1.334 . S
C632 C633 1.287 . S
C633 C632 1.287 . S
C633 C634 1.524 . S
C633 H636 0.999 . S
C634 H604 0.950 . S
C634 C633 1.524 . S
C634 C635 1.415 . S
C635 H605 0.950 . S
C635 C630 1.363 . S
C635 C634 1.415 . S
H636 C633 0.999 . S
H637 C618 0.913 . S
H638 C656 0.951 . S
H639 C658 0.951 . S
H640 C660 0.950 . S
H641 C661 0.950 . S
H642 C663 0.950 . S
H643 C666 0.950 . S
H644 C667 0.950 . S
H645 C669 0.950 . S
H646 C670 0.950 . S
H647 C671 0.951 . S
H648 C673 0.951 . S
H649 C675 0.950 . S
H650 C676 0.950 . S
H651 C678 0.950 . S
H652 C681 0.950 . S
H653 C682 0.950 . S
H654 C684 0.950 . S
H655 C685 0.950 . S
C656 H638 0.951 . S
C656 C657 1.366 . S
C656 C658 1.388 . S
C657 C656 1.366 . S
C657 C661 1.385 . S
C658 H639 0.951 . S
C658 C656 1.388 . S
C658 C659 1.366 . S
C659 C658 1.366 . S
C659 C660 1.414 . S
C659 C662 1.499 . S
C660 H640 0.950 . S
C660 C659 1.414 . S
C660 C661 1.374 . S
C661 H641 0.950 . S
C661 C657 1.385 . S
C661 C660 1.374 . S
C662 C659 1.499 . S
C662 C663 1.373 . S
C662 C664 1.389 . S
C663 H642 0.950 . S
C663 C662 1.373 . S
C663 C679 1.377 1_554 S
C664 C662 1.389 . S
C664 C665 1.524 . S
C664 C678 1.377 1_554 S
C665 C664 1.524 . S
C665 C666 1.397 . S
C665 C670 1.363 . S
C666 H643 0.950 . S
C666 C665 1.397 . S
C666 C667 1.334 . S
C667 H644 0.950 . S
C667 C666 1.334 . S
C667 C668 1.287 . S
C668 C667 1.287 . S
C668 C669 1.524 . S
C668 H687 0.913 . S
C669 H645 0.950 . S
C669 C668 1.524 . S
C669 C670 1.415 . S
C670 H646 0.950 . S
C670 C665 1.363 . S
C670 C669 1.415 . S
C671 H647 0.951 . S
C671 C672 1.366 . S
C671 C673 1.388 . S
C672 C671 1.366 . S
C672 C676 1.385 . S
C673 H648 0.951 . S
C673 C671 1.388 . S
C673 C674 1.366 . S
C674 C673 1.366 . S
C674 C675 1.414 . S
C674 C677 1.499 . S
C675 H649 0.950 . S
C675 C674 1.414 . S
C675 C676 1.374 . S
C676 H650 0.950 . S
C676 C672 1.385 . S
C676 C675 1.374 . S
C677 C674 1.499 . S
C677 C678 1.373 . S
C677 C679 1.389 . S
C678 H651 0.950 . S
C678 C664 1.377 1_556 S
C678 C677 1.373 . S
C679 C663 1.377 1_556 S
C679 C677 1.389 . S
C679 C680 1.524 . S
C680 C679 1.524 . S
C680 C681 1.397 . S
C680 C685 1.363 . S
C681 H652 0.950 . S
C681 C680 1.397 . S
C681 C682 1.334 . S
C682 H653 0.950 . S
C682 C681 1.334 . S
C682 C683 1.287 . S
C683 C682 1.287 . S
C683 C684 1.524 . S
C683 H686 0.999 . S
C684 H654 0.950 . S
C684 C683 1.524 . S
C684 C685 1.415 . S
C685 H655 0.950 . S
C685 C680 1.363 . S
C685 C684 1.415 . S
H686 C683 0.999 . S
H687 C668 0.913 . S
H688 C706 0.951 . S
H689 C708 0.952 1_655 S
H690 C710 0.950 . S
H691 C711 0.950 . S
H692 C713 0.950 . S
H693 C716 0.950 . S
H694 C717 0.950 1_455 S
H695 C719 0.950 . S
H696 C720 0.950 . S
H697 C721 0.951 . S
H698 C723 0.951 1_455 S
H699 C725 0.950 . S
H700 C726 0.950 . S
H701 C728 0.950 . S
H702 C731 0.950 . S
H703 C732 0.950 1_655 S
H704 C734 0.950 . S
H705 C735 0.950 . S
C706 H688 0.951 . S
C706 C707 1.366 . S
C706 C708 1.388 . S
C707 C706 1.366 . S
C707 C711 1.385 . S
C708 H689 0.952 1_455 S
C708 C706 1.388 . S
C708 C709 1.366 . S
C709 C708 1.366 . S
C709 C710 1.414 . S
C709 C712 1.499 . S
C710 H690 0.950 . S
C710 C709 1.414 . S
C710 C711 1.374 . S
C711 H691 0.950 . S
C711 C707 1.385 . S
C711 C710 1.374 . S
C712 C709 1.499 . S
C712 C713 1.373 . S
C712 C714 1.389 1_455 S
C713 H692 0.950 . S
C713 C712 1.373 . S
C713 C729 1.377 1_545 S
C714 C712 1.389 1_655 S
C714 C715 1.524 . S
C714 C728 1.377 1_545 S
C715 C714 1.524 . S
C715 C716 1.397 1_655 S
C715 C720 1.363 . S
C716 H693 0.950 . S
C716 C715 1.397 1_455 S
C716 C717 1.334 1_455 S
C717 H694 0.950 1_655 S
C717 C716 1.334 1_655 S
C717 C718 1.287 . S
C718 C717 1.287 . S
C718 C719 1.524 . S
C718 H737 0.913 . S
C719 H695 0.950 . S
C719 C718 1.524 . S
C719 C720 1.415 . S
C720 H696 0.950 . S
C720 C715 1.363 . S
C720 C719 1.415 . S
C721 H697 0.951 . S
C721 C722 1.366 . S
C721 C723 1.388 . S
C722 C721 1.366 . S
C722 C726 1.385 . S
C723 H698 0.951 1_655 S
C723 C721 1.388 . S
C723 C724 1.366 . S
C724 C723 1.366 . S
C724 C725 1.414 . S
C724 C727 1.499 . S
C725 H699 0.950 . S
C725 C724 1.414 . S
C725 C726 1.374 . S
C726 H700 0.950 . S
C726 C722 1.385 . S
C726 C725 1.374 . S
C727 C724 1.499 . S
C727 C728 1.373 . S
C727 C729 1.389 1_655 S
C728 H701 0.950 . S
C728 C714 1.377 1_565 S
C728 C727 1.373 . S
C729 C713 1.377 1_565 S
C729 C727 1.389 1_455 S
C729 C730 1.524 . S
C730 C729 1.524 . S
C730 C731 1.397 1_455 S
C730 C735 1.363 . S
C731 H702 0.950 . S
C731 C730 1.397 1_655 S
C731 C732 1.334 1_655 S
C732 H703 0.950 1_455 S
C732 C731 1.334 1_455 S
C732 C733 1.287 . S
C733 C732 1.287 . S
C733 C734 1.524 . S
C733 H736 0.999 . S
C734 H704 0.950 . S
C734 C733 1.524 . S
C734 C735 1.415 . S
C735 H705 0.950 . S
C735 C730 1.363 . S
C735 C734 1.415 . S
H736 C733 0.999 . S
H737 C718 0.913 . S
H738 C756 0.951 . S
H739 C758 0.951 . S
H740 C760 0.950 . S
H741 C761 0.950 . S
H742 C763 0.950 . S
H743 C766 0.950 . S
H744 C767 0.950 . S
H745 C769 0.950 . S
H746 C770 0.950 . S
H747 C771 0.951 . S
H748 C773 0.951 . S
H749 C775 0.950 . S
H750 C776 0.950 . S
H751 C778 0.950 . S
H752 C781 0.950 . S
H753 C782 0.950 . S
H754 C784 0.950 . S
H755 C785 0.950 . S
C756 H738 0.951 . S
C756 C757 1.366 . S
C756 C758 1.388 . S
C757 C756 1.366 . S
C757 C761 1.385 . S
C758 H739 0.951 . S
C758 C756 1.388 . S
C758 C759 1.366 . S
C759 C758 1.366 . S
C759 C760 1.414 . S
C759 C762 1.499 . S
C760 H740 0.950 . S
C760 C759 1.414 . S
C760 C761 1.374 . S
C761 H741 0.950 . S
C761 C757 1.385 . S
C761 C760 1.374 . S
C762 C759 1.499 . S
C762 C763 1.374 . S
C762 C764 1.389 . S
C763 H742 0.950 . S
C763 C762 1.374 . S
C763 C779 1.376 1_455 S
C764 C762 1.389 . S
C764 C765 1.524 . S
C764 C778 1.377 1_455 S
C765 C764 1.524 . S
C765 C766 1.397 . S
C765 C770 1.363 . S
C766 H743 0.950 . S
C766 C765 1.397 . S
C766 C767 1.334 . S
C767 H744 0.950 . S
C767 C766 1.334 . S
C767 C768 1.287 . S
C768 C767 1.287 . S
C768 C769 1.524 . S
C768 H787 0.913 . S
C769 H745 0.950 . S
C769 C768 1.524 . S
C769 C770 1.415 . S
C770 H746 0.950 . S
C770 C765 1.363 . S
C770 C769 1.415 . S
C771 H747 0.951 . S
C771 C772 1.366 . S
C771 C773 1.388 . S
C772 C771 1.366 . S
C772 C776 1.385 . S
C773 H748 0.951 . S
C773 C771 1.388 . S
C773 C774 1.366 . S
C774 C773 1.366 . S
C774 C775 1.414 . S
C774 C777 1.499 . S
C775 H749 0.950 . S
C775 C774 1.414 . S
C775 C776 1.374 . S
C776 H750 0.950 . S
C776 C772 1.385 . S
C776 C775 1.374 . S
C777 C774 1.499 . S
C777 C778 1.373 . S
C777 C779 1.389 . S
C778 H751 0.950 . S
C778 C764 1.377 1_655 S
C778 C777 1.373 . S
C779 C763 1.376 1_655 S
C779 C777 1.389 . S
C779 C780 1.524 . S
C780 C779 1.524 . S
C780 C781 1.397 . S
C780 C785 1.363 . S
C781 H752 0.950 . S
C781 C780 1.397 . S
C781 C782 1.334 . S
C782 H753 0.950 . S
C782 C781 1.334 . S
C782 C783 1.287 . S
C783 C782 1.287 . S
C783 C784 1.524 . S
C783 H786 0.999 . S
C784 H754 0.950 . S
C784 C783 1.524 . S
C784 C785 1.415 . S
C785 H755 0.950 . S
C785 C780 1.363 . S
C785 C784 1.415 . S
H786 C783 0.999 . S
H787 C768 0.913 . S
H788 C806 0.951 . S
H789 C808 0.951 . S
H790 C810 0.950 . S
H791 C811 0.950 . S
H792 C813 0.950 . S
H793 C816 0.950 . S
H794 C817 0.950 . S
H795 C819 0.950 . S
H796 C820 0.950 . S
H797 C821 0.951 . S
H798 C823 0.951 . S
H799 C825 0.950 . S
H800 C826 0.950 . S
H801 C828 0.950 . S
H802 C831 0.950 . S
H803 C832 0.950 . S
H804 C834 0.950 . S
H805 C835 0.950 . S
C806 H788 0.951 . S
C806 C807 1.366 . S
C806 C808 1.388 . S
C807 C806 1.366 . S
C807 C811 1.385 . S
C808 H789 0.951 . S
C808 C806 1.388 . S
C808 C809 1.366 . S
C809 C808 1.366 . S
C809 C810 1.414 . S
C809 C812 1.499 . S
C810 H790 0.950 . S
C810 C809 1.414 . S
C810 C811 1.374 . S
C811 H791 0.950 . S
C811 C807 1.385 . S
C811 C810 1.374 . S
C812 C809 1.499 . S
C812 C813 1.373 . S
C812 C814 1.389 . S
C813 H792 0.950 . S
C813 C812 1.373 . S
C813 C829 1.377 . S
C814 C812 1.389 . S
C814 C815 1.524 . S
C814 C828 1.377 . S
C815 C814 1.524 . S
C815 C816 1.397 . S
C815 C820 1.363 . S
C816 H793 0.950 . S
C816 C815 1.397 . S
C816 C817 1.334 . S
C817 H794 0.950 . S
C817 C816 1.334 . S
C817 C818 1.287 . S
C818 C817 1.287 . S
C818 C819 1.524 . S
C818 H837 0.913 . S
C819 H795 0.950 . S
C819 C818 1.524 . S
C819 C820 1.415 . S
C820 H796 0.950 . S
C820 C815 1.363 . S
C820 C819 1.415 . S
C821 H797 0.951 . S
C821 C822 1.366 . S
C821 C823 1.388 . S
C822 C821 1.366 . S
C822 C826 1.385 . S
C823 H798 0.951 . S
C823 C821 1.388 . S
C823 C824 1.366 . S
C824 C823 1.366 . S
C824 C825 1.414 . S
C824 C827 1.499 . S
C825 H799 0.950 . S
C825 C824 1.414 . S
C825 C826 1.374 . S
C826 H800 0.950 . S
C826 C822 1.385 . S
C826 C825 1.374 . S
C827 C824 1.499 . S
C827 C828 1.373 . S
C827 C829 1.389 . S
C828 H801 0.950 . S
C828 C814 1.377 . S
C828 C827 1.373 . S
C829 C813 1.377 . S
C829 C827 1.389 . S
C829 C830 1.524 . S
C830 C829 1.524 . S
C830 C831 1.397 . S
C830 C835 1.363 . S
C831 H802 0.950 . S
C831 C830 1.397 . S
C831 C832 1.334 . S
C832 H803 0.950 . S
C832 C831 1.334 . S
C832 C833 1.287 . S
C833 C832 1.287 . S
C833 C834 1.524 . S
C833 H836 0.999 . S
C834 H804 0.950 . S
C834 C833 1.524 . S
C834 C835 1.415 . S
C835 H805 0.950 . S
C835 C830 1.363 . S
C835 C834 1.415 . S
H836 C833 0.999 . S
H837 C818 0.913 . S
H838 C856 0.951 . S
H839 C858 0.951 . S
H840 C860 0.950 . S
H841 C861 0.950 . S
H842 C863 0.950 . S
H843 C866 0.950 1_565 S
H844 C867 0.950 . S
H845 C869 0.950 . S
H846 C870 0.950 . S
H847 C871 0.951 . S
H848 C873 0.951 . S
H849 C875 0.950 . S
H850 C876 0.950 . S
H851 C878 0.950 . S
H852 C881 0.939 1_545 S
H853 C882 0.950 . S
H854 C884 0.950 . S
H855 C885 0.950 . S
C856 H838 0.951 . S
C856 C857 1.366 . S
C856 C858 1.388 . S
C857 C856 1.366 . S
C857 C861 1.385 . S
C858 H839 0.951 . S
C858 C856 1.388 . S
C858 C859 1.366 . S
C859 C858 1.366 . S
C859 C860 1.414 . S
C859 C862 1.499 . S
C860 H840 0.950 . S
C860 C859 1.414 . S
C860 C861 1.374 . S
C861 H841 0.950 . S
C861 C857 1.385 . S
C861 C860 1.374 . S
C862 C859 1.499 . S
C862 C863 1.373 . S
C862 C864 1.389 1_565 S
C863 H842 0.950 . S
C863 C862 1.373 . S
C863 C879 1.377 . S
C864 C862 1.389 1_545 S
C864 C865 1.524 . S
C864 C878 1.377 . S
C865 C864 1.524 . S
C865 C866 1.397 . S
C865 C870 1.363 . S
C866 H843 0.950 1_545 S
C866 C865 1.397 . S
C866 C867 1.334 . S
C867 H844 0.950 . S
C867 C866 1.334 . S
C867 C868 1.287 . S
C868 C867 1.287 . S
C868 C869 1.524 . S
C868 H887 0.913 . S
C869 H845 0.950 . S
C869 C868 1.524 . S
C869 C870 1.415 . S
C870 H846 0.950 . S
C870 C865 1.363 . S
C870 C869 1.415 . S
C871 H847 0.951 . S
C871 C872 1.366 . S
C871 C873 1.388 . S
C872 C871 1.366 . S
C872 C876 1.385 . S
C873 H848 0.951 . S
C873 C871 1.388 . S
C873 C874 1.366 . S
C874 C873 1.366 . S
C874 C875 1.414 . S
C874 C877 1.499 . S
C875 H849 0.950 . S
C875 C874 1.414 . S
C875 C876 1.374 . S
C876 H850 0.950 . S
C876 C872 1.385 . S
C876 C875 1.374 . S
C877 C874 1.499 . S
C877 C878 1.373 . S
C877 C879 1.389 1_545 S
C878 H851 0.950 . S
C878 C864 1.377 . S
C878 C877 1.373 . S
C879 C863 1.377 . S
C879 C877 1.389 1_565 S
C879 C880 1.524 . S
C880 C879 1.524 . S
C880 C881 1.397 . S
C880 C885 1.363 . S
C881 H852 0.939 1_565 S
C881 C880 1.397 . S
C881 C882 1.334 . S
C882 H853 0.950 . S
C882 C881 1.334 . S
C882 C883 1.287 . S
C883 C882 1.287 . S
C883 C884 1.524 . S
C883 H886 0.999 . S
C884 H854 0.950 . S
C884 C883 1.524 . S
C884 C885 1.415 . S
C885 H855 0.950 . S
C885 C880 1.363 . S
C885 C884 1.415 . S
H886 C883 0.999 . S
H887 C868 0.913 . S
H888 C906 0.951 . S
H889 C908 0.951 1_455 S
H890 C910 0.950 . S
H891 C911 0.950 . S
H892 C913 0.950 . S
H893 C916 0.950 . S
H894 C917 0.950 1_655 S
H895 C919 0.950 . S
H896 C920 0.950 . S
H897 C921 0.951 . S
H898 C923 0.953 1_655 S
H899 C925 0.950 . S
H900 C926 0.950 . S
H901 C928 0.950 . S
H902 C931 0.950 . S
H903 C932 0.964 . S
H904 C934 0.950 . S
H905 C935 0.950 . S
C906 H888 0.951 . S
C906 C907 1.366 . S
C906 C908 1.388 . S
C907 C906 1.366 . S
C907 C911 1.385 . S
C908 H889 0.951 1_655 S
C908 C906 1.388 . S
C908 C909 1.366 . S
C909 C908 1.366 . S
C909 C910 1.414 . S
C909 C912 1.499 . S
C910 H890 0.950 . S
C910 C909 1.414 . S
C910 C911 1.374 . S
C911 H891 0.950 . S
C911 C907 1.385 . S
C911 C910 1.374 . S
C912 C909 1.499 . S
C912 C913 1.373 . S
C912 C914 1.389 1_655 S
C913 H892 0.950 . S
C913 C912 1.373 . S
C913 C929 1.377 . S
C914 C912 1.389 1_455 S
C914 C915 1.524 . S
C914 C928 1.377 . S
C915 C914 1.524 . S
C915 C916 1.397 1_455 S
C915 C920 1.363 . S
C916 H893 0.950 . S
C916 C915 1.397 1_655 S
C916 C917 1.334 1_655 S
C917 H894 0.950 1_455 S
C917 C916 1.334 1_455 S
C917 C918 1.287 . S
C918 C917 1.287 . S
C918 C919 1.524 . S
C918 H937 0.913 . S
C919 H895 0.950 . S
C919 C918 1.524 . S
C919 C920 1.415 . S
C920 H896 0.950 . S
C920 C915 1.363 . S
C920 C919 1.415 . S
C921 H897 0.951 . S
C921 C922 1.366 . S
C921 C923 1.388 . S
C922 C921 1.366 . S
C922 C926 1.385 . S
C923 H898 0.953 1_455 S
C923 C921 1.388 . S
C923 C924 1.366 . S
C924 C923 1.366 . S
C924 C925 1.414 . S
C924 C927 1.499 . S
C925 H899 0.950 . S
C925 C924 1.414 . S
C925 C926 1.374 . S
C926 H900 0.950 . S
C926 C922 1.385 . S
C926 C925 1.374 . S
C927 C924 1.499 . S
C927 C928 1.373 . S
C927 C929 1.389 1_455 S
C928 H901 0.950 . S
C928 C914 1.377 . S
C928 C927 1.373 . S
C929 C913 1.377 . S
C929 C927 1.389 1_655 S
C929 C930 1.524 . S
C930 C929 1.524 . S
C930 C931 1.397 1_655 S
C930 C935 1.363 . S
C931 H902 0.950 . S
C931 C930 1.397 1_455 S
C931 C932 1.338 . S
C932 H903 0.964 . S
C932 C931 1.338 . S
C932 C933 1.268 1_455 S
C933 C932 1.268 1_655 S
C933 C934 1.524 . S
C933 H936 0.999 . S
C934 H904 0.950 . S
C934 C933 1.524 . S
C934 C935 1.415 . S
C935 H905 0.950 . S
C935 C930 1.363 . S
C935 C934 1.415 . S
H936 C933 0.999 . S
H937 C918 0.913 . S
H938 C956 0.951 . S
H939 C958 0.951 . S
H940 C960 0.950 . S
H941 C961 0.950 . S
H942 C963 0.950 . S
H943 C966 0.950 . S
H944 C967 0.950 . S
H945 C969 0.950 . S
H946 C970 0.950 . S
H947 C971 0.951 . S
H948 C973 0.951 . S
H949 C975 0.950 . S
H950 C976 0.950 . S
H951 C978 0.950 . S
H952 C981 0.950 . S
H953 C982 0.950 . S
H954 C984 0.950 . S
H955 C985 0.950 . S
C956 H938 0.951 . S
C956 C957 1.366 . S
C956 C958 1.388 . S
C957 C956 1.366 . S
C957 C961 1.385 . S
C958 H939 0.951 . S
C958 C956 1.388 . S
C958 C959 1.366 . S
C959 C958 1.366 . S
C959 C960 1.414 . S
C959 C962 1.499 . S
C960 H940 0.950 . S
C960 C959 1.414 . S
C960 C961 1.374 . S
C961 H941 0.950 . S
C961 C957 1.385 . S
C961 C960 1.374 . S
C962 C959 1.499 . S
C962 C963 1.373 . S
C962 C964 1.389 . S
C963 H942 0.950 . S
C963 C962 1.373 . S
C963 C979 1.377 . S
C964 C962 1.389 . S
C964 C965 1.524 . S
C964 C978 1.377 . S
C965 C964 1.524 . S
C965 C966 1.397 . S
C965 C970 1.363 . S
C966 H943 0.950 . S
C966 C965 1.397 . S
C966 C967 1.334 . S
C967 H944 0.950 . S
C967 C966 1.334 . S
C967 C968 1.287 . S
C968 C967 1.287 . S
C968 C969 1.524 . S
C968 H987 0.913 . S
C969 H945 0.950 . S
C969 C968 1.524 . S
C969 C970 1.415 . S
C970 H946 0.950 . S
C970 C965 1.363 . S
C970 C969 1.415 . S
C971 H947 0.951 . S
C971 C972 1.366 . S
C971 C973 1.388 . S
C972 C971 1.366 . S
C972 C976 1.385 . S
C973 H948 0.951 . S
C973 C971 1.388 . S
C973 C974 1.366 . S
C974 C973 1.366 . S
C974 C975 1.414 . S
C974 C977 1.499 . S
C975 H949 0.950 . S
C975 C974 1.414 . S
C975 C976 1.374 . S
C976 H950 0.950 . S
C976 C972 1.385 . S
C976 C975 1.374 . S
C977 C974 1.499 . S
C977 C978 1.373 . S
C977 C979 1.389 . S
C978 H951 0.950 . S
C978 C964 1.377 . S
C978 C977 1.373 . S
C979 C963 1.377 . S
C979 C977 1.389 . S
C979 C980 1.524 . S
C980 C979 1.524 . S
C980 C981 1.397 . S
C980 C985 1.363 . S
C981 H952 0.950 . S
C981 C980 1.397 . S
C981 C982 1.334 . S
C982 H953 0.950 . S
C982 C981 1.334 . S
C982 C983 1.287 . S
C983 C982 1.287 . S
C983 C984 1.524 . S
C983 H986 0.999 . S
C984 H954 0.950 . S
C984 C983 1.524 . S
C984 C985 1.415 . S
C985 H955 0.950 . S
C985 C980 1.363 . S
C985 C984 1.415 . S
H986 C983 0.999 . S
H987 C968 0.913 . S
H988 C1006 0.951 . S
H989 C1008 0.951 . S
H990 C1010 0.950 . S
H991 C1011 0.950 . S
H992 C1013 0.950 . S
H993 C1016 0.950 . S
H994 C1017 0.950 . S
H995 C1019 0.950 1_565 S
H996 C1020 0.950 1_565 S
H997 C1021 0.951 . S
H998 C1023 0.951 . S
H999 C1025 0.950 . S
H1000 C1026 0.950 . S
H1001 C1028 0.950 . S
H1002 C1031 0.950 . S
H1003 C1032 0.950 . S
H1004 C1034 0.950 1_545 S
H1005 C1035 0.929 1_545 S
C1006 H988 0.951 . S
C1006 C1007 1.366 . S
C1006 C1008 1.388 . S
C1007 C1006 1.366 . S
C1007 C1011 1.385 . S
C1008 H989 0.951 . S
C1008 C1006 1.388 . S
C1008 C1009 1.366 . S
C1009 C1008 1.366 . S
C1009 C1010 1.414 . S
C1009 C1012 1.499 . S
C1010 H990 0.950 . S
C1010 C1009 1.414 . S
C1010 C1011 1.374 . S
C1011 H991 0.950 . S
C1011 C1007 1.385 . S
C1011 C1010 1.374 . S
C1012 C1009 1.499 . S
C1012 C1013 1.373 . S
C1012 C1014 1.389 . S
C1013 H992 0.950 . S
C1013 C1012 1.373 . S
C1013 C1029 1.377 1_545 S
C1014 C1012 1.389 . S
C1014 C1015 1.524 . S
C1014 C1028 1.377 1_545 S
C1015 C1014 1.524 . S
C1015 C1016 1.397 . S
C1015 C1020 1.363 . S
C1016 H993 0.950 . S
C1016 C1015 1.397 . S
C1016 C1017 1.334 . S
C1017 H994 0.950 . S
C1017 C1016 1.334 . S
C1017 C1018 1.287 . S
C1018 C1017 1.287 . S
C1018 C1019 1.524 . S
C1018 H1037 0.913 . S
C1019 H995 0.950 1_545 S
C1019 C1018 1.524 . S
C1019 C1020 1.415 . S
C1020 H996 0.950 1_545 S
C1020 C1015 1.363 . S
C1020 C1019 1.415 . S
C1021 H997 0.951 . S
C1021 C1022 1.366 . S
C1021 C1023 1.388 . S
C1022 C1021 1.366 . S
C1022 C1026 1.385 . S
C1023 H998 0.951 . S
C1023 C1021 1.388 . S
C1023 C1024 1.366 . S
C1024 C1023 1.366 . S
C1024 C1025 1.414 . S
C1024 C1027 1.499 . S
C1025 H999 0.950 . S
C1025 C1024 1.414 . S
C1025 C1026 1.374 . S
C1026 H1000 0.950 . S
C1026 C1022 1.385 . S
C1026 C1025 1.374 . S
C1027 C1024 1.499 . S
C1027 C1028 1.373 . S
C1027 C1029 1.389 . S
C1028 H1001 0.950 . S
C1028 C1014 1.377 1_565 S
C1028 C1027 1.373 . S
C1029 C1013 1.377 1_565 S
C1029 C1027 1.389 . S
C1029 C1030 1.524 . S
C1030 C1029 1.524 . S
C1030 C1031 1.397 . S
C1030 C1035 1.378 . S
C1031 H1002 0.950 . S
C1031 C1030 1.397 . S
C1031 C1032 1.334 . S
C1032 H1003 0.950 . S
C1032 C1031 1.334 . S
C1032 C1033 1.287 . S
C1033 C1032 1.287 . S
C1033 C1034 1.524 . S
C1033 H1036 0.999 . S
C1034 H1004 0.950 1_565 S
C1034 C1033 1.524 . S
C1034 C1035 1.422 . S
C1035 H1005 0.929 1_565 S
C1035 C1030 1.378 . S
C1035 C1034 1.422 . S
H1036 C1033 0.999 . S
H1037 C1018 0.913 . S
H1038 C1056 0.951 . S
H1039 C1058 0.951 . S
H1040 C1060 0.950 . S
H1041 C1061 0.950 . S
H1042 C1063 0.950 . S
H1043 C1066 0.950 . S
H1044 C1067 0.950 . S
H1045 C1069 0.950 . S
H1046 C1070 0.950 . S
H1047 C1071 0.951 . S
H1048 C1073 0.951 . S
H1049 C1075 0.950 . S
H1050 C1076 0.950 . S
H1051 C1078 0.950 . S
H1052 C1081 0.950 . S
H1053 C1082 0.950 . S
H1054 C1084 0.950 . S
H1055 C1085 0.950 . S
C1056 H1038 0.951 . S
C1056 C1057 1.366 . S
C1056 C1058 1.388 . S
C1057 C1056 1.366 . S
C1057 C1061 1.385 . S
C1058 H1039 0.951 . S
C1058 C1056 1.388 . S
C1058 C1059 1.366 . S
C1059 C1058 1.366 . S
C1059 C1060 1.414 . S
C1059 C1062 1.499 . S
C1060 H1040 0.950 . S
C1060 C1059 1.414 . S
C1060 C1061 1.374 . S
C1061 H1041 0.950 . S
C1061 C1057 1.385 . S
C1061 C1060 1.374 . S
C1062 C1059 1.499 . S
C1062 C1063 1.373 1_565 S
C1062 C1064 1.408 . S
C1063 H1042 0.950 . S
C1063 C1062 1.373 1_545 S
C1063 C1079 1.377 . S
C1064 C1062 1.408 . S
C1064 C1065 1.523 1_655 S
C1064 C1078 1.358 1_655 S
C1065 C1064 1.523 1_455 S
C1065 C1066 1.397 1_455 S
C1065 C1070 1.363 . S
C1066 H1043 0.950 . S
C1066 C1065 1.397 1_655 S
C1066 C1067 1.334 . S
C1067 H1044 0.950 . S
C1067 C1066 1.334 . S
C1067 C1068 1.287 1_655 S
C1068 C1067 1.287 1_455 S
C1068 C1069 1.524 . S
C1068 H1087 0.913 . S
C1069 H1045 0.950 . S
C1069 C1068 1.524 . S
C1069 C1070 1.415 . S
C1070 H1046 0.950 . S
C1070 C1065 1.363 . S
C1070 C1069 1.415 . S
C1071 H1047 0.951 . S
C1071 C1072 1.366 . S
C1071 C1073 1.388 . S
C1072 C1071 1.366 . S
C1072 C1076 1.385 . S
C1073 H1048 0.951 . S
C1073 C1071 1.388 . S
C1073 C1074 1.366 . S
C1074 C1073 1.366 . S
C1074 C1075 1.414 . S
C1074 C1077 1.499 . S
C1075 H1049 0.950 . S
C1075 C1074 1.414 . S
C1075 C1076 1.374 . S
C1076 H1050 0.950 . S
C1076 C1072 1.385 . S
C1076 C1075 1.374 . S
C1077 C1074 1.499 . S
C1077 C1078 1.373 1_545 S
C1077 C1079 1.389 1_455 S
C1078 H1051 0.950 . S
C1078 C1064 1.358 1_455 S
C1078 C1077 1.373 1_565 S
C1079 C1063 1.377 . S
C1079 C1077 1.389 1_655 S
C1079 C1080 1.524 . S
C1080 C1079 1.524 . S
C1080 C1081 1.397 1_655 S
C1080 C1085 1.363 . S
C1081 H1052 0.950 . S
C1081 C1080 1.397 1_455 S
C1081 C1082 1.334 . S
C1082 H1053 0.950 . S
C1082 C1081 1.334 . S
C1082 C1083 1.287 1_455 S
C1083 C1082 1.287 1_655 S
C1083 C1084 1.524 . S
C1083 H1086 0.999 . S
C1084 H1054 0.950 . S
C1084 C1083 1.524 . S
C1084 C1085 1.415 . S
C1085 H1055 0.950 . S
C1085 C1080 1.363 . S
C1085 C1084 1.415 . S
H1086 C1083 0.999 . S
H1087 C1068 0.913 . S
C307 C14 1.007 . S
C322 C182 1.004 . S
C357 C50 0.953 . S
C372 C230 0.953 . S
C407 C74 1.002 . S
C422 C266 1.008 . S
C457 C110 1.056 . S
C472 C146 1.056 . S
C507 C254 1.056 . S
C522 C2 1.055 . S
C557 C158 1.007 . S
C572 C38 1.004 . S
C607 C86 0.952 . S
C622 C194 0.952 . S
C657 C218 1.003 . S
C672 C122 1.008 . S
C707 C4 1.582 . S
C722 C219 1.577 . S
C757 C255 1.578 . S
C772 C40 1.582 . S
C807 C75 1.578 . S
C822 C148 1.582 . S
C857 C111 1.578 . S
C872 C184 1.582 . S
C907 C220 1.582 . S
C922 C3 1.578 . S
C957 C256 1.582 . S
C972 C39 1.577 . S
C1007 C76 1.582 . S
C1022 C147 1.578 . S
C1057 C112 1.582 . S
C1072 C183 1.577 . S
