# Generated by pormake.
# Topology bcg, (8)-cn, num edge types: 1
# Building blocks:
#     Node 0, Type 0, BuildingBlock: AJUNOK_clean_sbu_0, # of connection points: 8
#     Node 1, Type 0, BuildingBlock: AJUNOK_clean_sbu_0, # of connection points: 8
#     Node 2, Type 0, BuildingBlock: AJUNOK_clean_sbu_0, # of connection points: 8
#     Node 3, Type 0, BuildingBlock: AJUNOK_clean_sbu_0, # of connection points: 8
#     Edge 4, Type (0, 0), BuildingBlock: ZUJKAS_clean_linker_0, # of connection points: 2
#     Edge 5, Type (0, 0), BuildingBlock: ZUJKAS_clean_linker_0, # of connection points: 2
#     Edge 6, Type (0, 0), BuildingBlock: ZUJKAS_clean_linker_0, # of connection points: 2
#     Edge 7, Type (0, 0), BuildingBlock: ZUJKAS_clean_linker_0, # of connection points: 2
#     Edge 8, Type (0, 0), BuildingBlock: ZUJKAS_clean_linker_0, # of connection points: 2
#     Edge 9, Type (0, 0), BuildingBlock: ZUJKAS_clean_linker_0, # of connection points: 2
#     Edge 10, Type (0, 0), BuildingBlock: ZUJKAS_clean_linker_0, # of connection points: 2
#     Edge 11, Type (0, 0), BuildingBlock: ZUJKAS_clean_linker_0, # of connection points: 2
#     Edge 12, Type (0, 0), BuildingBlock: ZUJKAS_clean_linker_0, # of connection points: 2
#     Edge 13, Type (0, 0), BuildingBlock: ZUJKAS_clean_linker_0, # of connection points: 2
#     Edge 14, Type (0, 0), BuildingBlock: ZUJKAS_clean_linker_0, # of connection points: 2
#     Edge 15, Type (0, 0), BuildingBlock: ZUJKAS_clean_linker_0, # of connection points: 2
#     Edge 16, Type (0, 0), BuildingBlock: ZUJKAS_clean_linker_0, # of connection points: 2
#     Edge 17, Type (0, 0), BuildingBlock: ZUJKAS_clean_linker_0, # of connection points: 2
#     Edge 18, Type (0, 0), BuildingBlock: ZUJKAS_clean_linker_0, # of connection points: 2
#     Edge 19, Type (0, 0), BuildingBlock: ZUJKAS_clean_linker_0, # of connection points: 2
# Relax obj value: 0.152
# Max RMSD: 0.187
# Mean RMSD: 0.187
data_MOF--net-bcg--node1-AJUNOK_clean_sbu_0--edge1-ZUJKAS_clean_linker_0
_symmetry_space_group_name_H-M    P1
_symmetry_Int_Tables_number       1
_symmetry_cell_setting            triclinic
loop_
_symmetry_equiv_pos_as_xyz
'x, y, z'
_cell_length_a     20.262001
_cell_length_b     34.483822
_cell_length_c     46.215635
_cell_angle_alpha  89.896406
_cell_angle_beta   89.949075
_cell_angle_gamma 90.025013
loop_
_atom_site_label
_atom_site_type_symbol
_atom_site_fract_x
_atom_site_fract_y
_atom_site_fract_z
_atom_type_partial_charge
Cd0 Cd 0.12892 0.2659 0.02651 0.0
Cd1 Cd 0.3197 0.21451 1.01368 0.0
C2 C 0.0694 0.29784 0.0859 0.0
N3 N 0.10805 0.26824 0.07644 0.0
C4 C 0.10984 0.24044 0.12395 0.0
C5 C 0.06832 0.27013 0.13417 0.0
C6 C 0.0489 0.29938 0.11474 0.0
C7 C 0.12929 0.24008 0.09486 0.0
H8 H 0.053 0.31979 0.07078 0.0
H9 H 0.16032 0.21692 0.08691 0.0
C10 C 0.17565 0.16465 0.03033 0.0
C11 C 0.26963 0.20297 0.94861 0.0
C12 C 0.28032 0.20572 0.91873 0.0
C13 C 0.3134 0.23824 0.90735 0.0
C14 C 0.32823 0.26905 0.9261 0.0
C15 C 0.3174 0.26494 0.95575 0.0
N16 N 0.29053 0.23176 0.9665 0.0
H17 H 0.25108 0.17619 0.95775 0.0
H18 H 0.33661 0.28672 0.97021 0.0
C19 C 0.38423 0.17634 0.06954 0.0
N20 N 0.34386 0.20642 0.06267 0.0
C21 C 0.35095 0.23098 0.11092 0.0
C22 C 0.39556 0.20128 0.1183 0.0
C23 C 0.4105 0.17309 0.09735 0.0
C24 C 0.32551 0.233 0.08283 0.0
H25 H 0.39811 0.1557 0.05302 0.0
H26 H 0.29337 0.25669 0.07683 0.0
C27 C 0.28086 0.31436 0.02808 0.0
C28 C 0.00819 0.29873 1.00762 0.0
N29 N 0.13145 0.24494 0.97833 0.0
C30 C 0.15073 0.2709 0.95777 0.0
C31 C 0.12939 0.26682 0.92913 0.0
C32 C 0.08681 0.23615 0.92185 0.0
C33 C 0.07208 0.20828 0.94306 0.0
C34 C 0.0939 0.21361 0.97134 0.0
C35 C 0.44241 0.18927 0.99074 0.0
O36 O 0.142 0.19565 0.03208 0.0
O37 O 0.23609 0.1654 0.02302 0.0
O38 O 0.31491 0.28415 0.0232 0.0
O39 O 0.21836 0.31278 0.02967 0.0
O40 O 0.00962 0.26981 0.02463 0.0
O41 O 0.06273 0.31497 1.00181 0.0
O42 O 0.43828 0.21687 1.00868 0.0
O43 O 0.38988 0.17099 0.98493 0.0
H44 H 0.17765 0.29661 0.9641 0.0
H45 H 0.07506 0.19469 0.98804 0.0
H46 H 0.12685 0.21762 0.13823 0.0
H47 H 0.01639 0.32258 0.12148 0.0
H48 H 0.26841 0.18111 0.90518 0.0
H49 H 0.35274 0.29493 0.91826 0.0
H50 H 0.33822 0.25352 0.12622 0.0
H51 H 0.44345 0.14922 0.10215 0.0
H52 H 0.14139 0.28925 0.91357 0.0
H53 H 0.03986 0.18403 0.93836 0.0
Cd54 Cd 0.63795 0.77503 0.03149 0.0
Cd55 Cd 0.80051 0.71125 0.01885 0.0
C56 C 0.65835 0.80249 0.09619 0.0
N57 N 0.66517 0.76946 0.08048 0.0
C58 C 0.66355 0.73111 0.12363 0.0
C59 C 0.65028 0.76436 0.14022 0.0
C60 C 0.65081 0.80063 0.12622 0.0
C61 C 0.66956 0.73424 0.09362 0.0
H62 H 0.65275 0.82997 0.08514 0.0
H63 H 0.67395 0.70826 0.08085 0.0
C64 C 0.64456 0.67166 0.02909 0.0
C65 C 0.73167 0.68732 0.95716 0.0
C66 C 0.7278 0.68627 0.92691 0.0
C67 C 0.76008 0.71487 0.91041 0.0
C68 C 0.79283 0.74492 0.92496 0.0
C69 C 0.79552 0.74482 0.95508 0.0
N70 N 0.76573 0.71618 0.97058 0.0
H71 H 0.71078 0.66384 0.96966 0.0
H72 H 0.82502 0.7664 0.96594 0.0
C73 C 0.81635 0.68439 0.08501 0.0
N74 N 0.81337 0.71811 0.06968 0.0
C75 C 0.84244 0.75429 0.112 0.0
C76 C 0.84893 0.71989 0.12795 0.0
C77 C 0.83389 0.68459 0.11432 0.0
C78 C 0.8252 0.75275 0.08284 0.0
H79 H 0.80739 0.65712 0.07418 0.0
H80 H 0.82288 0.77946 0.07102 0.0
C81 C 0.79342 0.81484 0.02252 0.0
C82 C 0.51603 0.8147 0.03787 0.0
N83 N 0.63339 0.76586 0.98114 0.0
C84 C 0.66253 0.7929 0.96387 0.0
C85 C 0.65254 0.79238 0.93394 0.0
C86 C 0.61163 0.76395 0.92163 0.0
C87 C 0.58212 0.73646 0.93999 0.0
C88 C 0.59297 0.73826 0.96979 0.0
C89 C 0.92124 0.67345 1.00542 0.0
O90 O 0.61739 0.70473 0.03139 0.0
O91 O 0.70634 0.66855 0.02516 0.0
O92 O 0.81928 0.7816 0.01904 0.0
O93 O 0.73229 0.81835 0.02795 0.0
O94 O 0.52989 0.7838 0.05126 0.0
O95 O 0.56059 0.82877 0.02177 0.0
O96 O 0.90442 0.70596 0.99526 0.0
O97 O 0.88115 0.65713 0.0226 0.0
H98 H 0.69231 0.81553 0.97337 0.0
H99 H 0.56676 0.7185 0.98383 0.0
H100 H 0.66525 0.70261 0.13348 0.0
H101 H 0.63993 0.82707 0.13787 0.0
H102 H 0.70224 0.66249 0.91653 0.0
H103 H 0.81987 0.767 0.91321 0.0
H104 H 0.8521 0.78224 0.12178 0.0
H105 H 0.83856 0.6573 0.12575 0.0
H106 H 0.67631 0.81415 0.92061 0.0
H107 H 0.54862 0.71475 0.93158 0.0
Cd108 Cd 0.31261 0.76726 0.52163 0.0
Cd109 Cd 0.12276 0.71186 0.5232 0.0
C110 C 0.26854 0.78274 0.4562 0.0
N111 N 0.29199 0.75362 0.47321 0.0
C112 C 0.33544 0.72067 0.43194 0.0
C113 C 0.31585 0.75153 0.41408 0.0
C114 C 0.27971 0.78217 0.42633 0.0
C115 C 0.3239 0.72262 0.46164 0.0
H116 H 0.24618 0.80793 0.46608 0.0
H117 H 0.34584 0.7011 0.47559 0.0
C118 C 0.27291 0.66514 0.52941 0.0
C119 C 0.06131 0.67608 0.58063 0.0
C120 C 0.03553 0.67407 0.60861 0.0
C121 C 0.04859 0.70405 0.62835 0.0
C122 C 0.09026 0.73456 0.61965 0.0
C123 C 0.11518 0.73535 0.59142 0.0
N124 N 0.09919 0.70674 0.57246 0.0
H125 H 0.04874 0.65403 0.56495 0.0
H126 H 0.14531 0.75947 0.5844 0.0
C127 C 0.16615 0.70244 0.45687 0.0
N128 N 0.14086 0.72946 0.47521 0.0
C129 C 0.09517 0.76491 0.43556 0.0
C130 C 0.11718 0.73631 0.41625 0.0
C131 C 0.15556 0.7056 0.42705 0.0
C132 C 0.10683 0.76065 0.4651 0.0
H133 H 0.19004 0.67692 0.46557 0.0
H134 H 0.08358 0.78048 0.48001 0.0
C135 C 0.16401 0.81382 0.53132 0.0
C136 C 0.43692 0.79563 0.50296 0.0
N137 N 0.32778 0.7703 0.57164 0.0
C138 C 0.3689 0.79851 0.58142 0.0
C139 C 0.38813 0.79928 0.61041 0.0
C140 C 0.365 0.77063 0.62957 0.0
C141 C 0.32066 0.7426 0.61903 0.0
C142 C 0.30259 0.74297 0.58981 0.0
C143 C -0.00011 0.68479 0.50211 0.0
O144 O 0.30463 0.69677 0.52693 0.0
O145 O 0.21026 0.66437 0.52917 0.0
O146 O 0.13314 0.78184 0.52968 0.0
O147 O 0.22633 0.81515 0.52866 0.0
O148 O 0.43169 0.76616 0.51924 0.0
O149 O 0.38462 0.81428 0.49741 0.0
O150 O 0.00401 0.71274 0.51979 0.0
O151 O 0.0526 0.66667 0.49625 0.0
H152 H 0.38869 0.81962 0.5664 0.0
H153 H 0.27002 0.7208 0.58147 0.0
H154 H 0.36478 0.697 0.4235 0.0
H155 H 0.26392 0.80654 0.41326 0.0
H156 H 0.00314 0.65024 0.61425 0.0
H157 H 0.10234 0.75798 0.63431 0.0
H158 H 0.06548 0.78905 0.42811 0.0
H159 H 0.17265 0.68266 0.41294 0.0
H160 H 0.42294 0.82115 0.61743 0.0
H161 H 0.30091 0.72029 0.63312 0.0
Cd162 Cd 0.79713 0.26815 0.53905 0.0
Cd163 Cd 0.63727 0.20998 0.51151 0.0
C164 C 0.78715 0.2961 0.47241 0.0
N165 N 0.80768 0.2649 0.48807 0.0
C166 C 0.85261 0.23575 0.44534 0.0
C167 C 0.83129 0.26731 0.42853 0.0
C168 C 0.79839 0.29791 0.44253 0.0
C169 C 0.84115 0.23539 0.47514 0.0
H170 H 0.76275 0.31993 0.48318 0.0
H171 H 0.86141 0.21205 0.48786 0.0
C172 C 0.78564 0.16577 0.52679 0.0
C173 C 0.65286 0.19185 0.58066 0.0
C174 C 0.63879 0.19316 0.61033 0.0
C175 C 0.59372 0.22064 0.62095 0.0
C176 C 0.56324 0.24582 0.60117 0.0
C177 C 0.5778 0.24304 0.57175 0.0
N178 N 0.62322 0.21703 0.56204 0.0
H179 H 0.68664 0.17025 0.5725 0.0
H180 H 0.55075 0.26085 0.55663 0.0
C181 C 0.69036 0.18639 0.44821 0.0
N182 N 0.67297 0.21826 0.46375 0.0
C183 C 0.65785 0.25486 0.4203 0.0
C184 C 0.67023 0.22166 0.40355 0.0
C185 C 0.68952 0.18747 0.41793 0.0
C186 C 0.658 0.25227 0.4504 0.0
H187 H 0.69932 0.15921 0.45924 0.0
H188 H 0.64236 0.27697 0.46294 0.0
C189 C 0.64623 0.31127 0.52599 0.0
C190 C 0.9184 0.30564 0.55184 0.0
N191 N 0.76576 0.25713 0.58725 0.0
C192 C 0.73318 0.28439 0.60304 0.0
C193 C 0.73154 0.28182 0.63328 0.0
C194 C 0.76388 0.251 0.64726 0.0
C195 C 0.79409 0.22236 0.63029 0.0
C196 C 0.79521 0.22627 0.60029 0.0
C197 C 0.51398 0.17484 0.49887 0.0
O198 O 0.81102 0.19784 0.53444 0.0
O199 O 0.72684 0.16405 0.51746 0.0
O200 O 0.621 0.28043 0.51588 0.0
O201 O 0.70401 0.31178 0.5365 0.0
O202 O 0.90348 0.27225 0.56103 0.0
O203 O 0.87604 0.32279 0.5363 0.0
O204 O 0.53332 0.20607 0.48734 0.0
O205 O 0.55374 0.15827 0.51602 0.0
H206 H 0.71222 0.30944 0.59244 0.0
H207 H 0.8234 0.20588 0.58764 0.0
H208 H 0.88025 0.21214 0.4358 0.0
H209 H 0.78095 0.32286 0.43052 0.0
H210 H 0.66308 0.17298 0.6248 0.0
H211 H 0.52635 0.26649 0.60819 0.0
H212 H 0.64454 0.28218 0.41033 0.0
H213 H 0.69873 0.16095 0.40611 0.0
H214 H 0.70802 0.30461 0.64564 0.0
H215 H 0.82099 0.19863 0.64014 0.0
H216 H 0.45174 0.19755 0.9329 0.0
H217 H 0.5526 0.21599 0.90681 0.0
H218 H 0.66703 0.19258 0.98358 0.0
H219 H 0.56631 0.17603 1.00988 0.0
H220 H 0.61812 0.28152 0.93498 0.0
H221 H 0.79196 0.16143 0.91472 0.0
H222 H 0.7032 0.15502 0.91462 0.0
H223 H 0.74817 0.15515 0.94821 0.0
C224 C 0.49901 0.19441 0.94362 0.0
C225 C 0.50204 0.18515 0.97322 0.0
C226 C 0.55638 0.20503 0.92873 0.0
C227 C 0.6172 0.20522 0.94318 0.0
C228 C 0.62072 0.19182 0.97187 0.0
H229 H 0.88114 0.30012 0.0259 0.0
H230 H 0.78449 0.29001 0.99525 0.0
C231 C 0.56333 0.1824 0.98694 0.0
C232 C 0.67323 0.22816 0.93209 0.0
H233 H 0.84054 0.22191 0.93348 0.0
C234 C 0.66683 0.26868 0.93315 0.0
C235 C 0.73642 0.2115 0.92923 0.0
C236 C 0.74536 0.16832 0.92632 0.0
C237 C 0.7225 0.29236 0.93651 0.0
C238 C 0.7852 0.27488 0.93845 0.0
C239 C 0.79212 0.23522 0.93233 0.0
C240 C 0.83876 0.29343 0.95493 0.0
C241 C 0.71348 0.3352 0.94141 0.0
C242 C 0.90043 0.30046 0.94225 0.0
C243 C 0.95534 0.3074 0.9598 0.0
C244 C 0.94921 0.30601 0.99012 0.0
C245 C 0.88667 0.30183 1.00261 0.0
C246 C 0.83164 0.29607 0.98509 0.0
H247 H 0.66807 0.34598 0.9306 0.0
H248 H 0.70854 0.3407 0.96497 0.0
H249 H 0.75673 0.35178 0.93329 0.0
H250 H 0.90687 0.29791 0.91906 0.0
H251 H 0.00347 0.30981 0.94972 0.0
H252 H 0.00197 0.6488 0.04816 0.0
H253 H 0.11608 0.6713 0.05001 0.0
H254 H 0.1097 0.69738 0.95881 0.0
H255 H -0.00448 0.67525 0.95691 0.0
H256 H 0.24887 0.67951 0.99438 0.0
H257 H 0.07568 0.79658 0.02882 0.0
H258 H 0.06501 0.74889 0.04408 0.0
H259 H 0.04931 0.75676 1.00637 0.0
C260 C 0.02646 0.65648 0.02809 0.0
C261 C -0.00995 0.66156 1.00258 0.0
C262 C 0.09151 0.66966 0.02923 0.0
C263 C 0.11985 0.68696 1.00471 0.0
C264 C 0.08798 0.68437 0.97794 0.0
H265 H 0.45357 0.83891 0.98935 0.0
H266 H 0.3412 0.81784 0.97866 0.0
C267 C 0.02292 0.67149 0.97685 0.0
C268 C 0.1705 0.71688 1.00851 0.0
H269 H 0.1892 0.81108 0.02973 0.0
C270 C 0.23613 0.70832 1.00193 0.0
C271 C 0.15266 0.75448 0.01805 0.0
C272 C 0.08187 0.76506 0.02465 0.0
C273 C 0.28541 0.73636 1.00556 0.0
C274 C 0.26773 0.77381 1.01556 0.0
C275 C 0.20189 0.7825 0.02169 0.0
C276 C 0.31889 0.80222 0.02293 0.0
C277 C 0.35636 0.72544 0.99965 0.0
C278 C 0.33979 0.80431 0.05175 0.0
C279 C 0.40385 0.81625 0.05789 0.0
C280 C 0.44678 0.82594 0.03516 0.0
C281 C 0.42131 0.83133 1.0072 0.0
C282 C 0.35731 0.81898 1.001 0.0
H283 H 0.36224 0.69395 0.99527 0.0
H284 H 0.37456 0.74178 0.98053 0.0
H285 H 0.38804 0.73325 0.01835 0.0
H286 H 0.31013 0.7918 0.06892 0.0
H287 H 0.42255 0.81232 0.07967 0.0
H288 H 0.44777 0.81007 0.44548 0.0
H289 H 0.5461 0.79678 0.41599 0.0
H290 H 0.65976 0.7796 0.49386 0.0
H291 H 0.56173 0.79168 0.52318 0.0
H292 H 0.72767 0.81733 0.43984 0.0
H293 H 0.59938 0.67599 0.42418 0.0
H294 H 0.56033 0.72163 0.41561 0.0
H295 H 0.57081 0.70743 0.4527 0.0
C296 C 0.49464 0.80535 0.45621 0.0
C297 C 0.49779 0.8019 0.48653 0.0
C298 C 0.55047 0.79756 0.43934 0.0
C299 C 0.60978 0.78709 0.45283 0.0
C300 C 0.61433 0.7879 0.48313 0.0
H301 H 0.87359 0.68463 0.52083 0.0
H302 H 0.77786 0.70168 0.49142 0.0
C303 C 0.55853 0.79481 0.49989 0.0
C304 C 0.66354 0.76784 0.43691 0.0
H305 H 0.71507 0.67414 0.43194 0.0
C306 C 0.7251 0.78629 0.43627 0.0
C307 C 0.65963 0.72745 0.43189 0.0
C308 C 0.59406 0.70674 0.43094 0.0
C309 C 0.78341 0.76446 0.43558 0.0
C310 C 0.77912 0.72352 0.43608 0.0
C311 C 0.71791 0.70555 0.43185 0.0
C312 C 0.83116 0.70117 0.45079 0.0
C313 C 0.84878 0.78499 0.43874 0.0
C314 C 0.8915 0.69294 0.43731 0.0
C315 C 0.94596 0.68224 0.45413 0.0
C316 C 0.9404 0.68055 0.48447 0.0
C317 C 0.8786 0.68534 0.49748 0.0
C318 C 0.82412 0.69514 0.48069 0.0
H319 H 0.84424 0.81676 0.43522 0.0
H320 H 0.86869 0.77993 0.4608 0.0
H321 H 0.88488 0.7732 0.42298 0.0
H322 H 0.89775 0.69779 0.41431 0.0
H323 H -0.00629 0.67945 0.44374 0.0
H324 H 0.00086 0.2978 0.59741 0.0
H325 H 0.11692 0.2817 0.5907 0.0
H326 H 0.10627 0.32159 0.50232 0.0
H327 H -0.00919 0.33864 0.50921 0.0
H328 H 0.111 0.2231 0.54846 0.0
H329 H 0.30418 0.33167 0.52142 0.0
H330 H 0.23273 0.34333 0.54319 0.0
H331 H 0.22565 0.34015 0.50453 0.0
C332 C 0.02469 0.30575 0.57724 0.0
C333 C -0.01289 0.31828 0.55353 0.0
C334 C 0.0909 0.2964 0.57339 0.0
C335 C 0.11932 0.29953 0.54583 0.0
C336 C 0.08515 0.31903 0.52378 0.0
H337 H 0.42806 0.18744 0.45501 0.0
H338 H 0.31504 0.20845 0.46403 0.0
C339 C 0.019 0.32887 0.52776 0.0
C340 C 0.17221 0.27241 0.53779 0.0
H341 H 0.32408 0.26645 0.50689 0.0
C342 C 0.15806 0.23252 0.5397 0.0
C343 C 0.23245 0.28493 0.52581 0.0
C344 C 0.25009 0.32735 0.52378 0.0
C345 C 0.20265 0.20468 0.52965 0.0
C346 C 0.26279 0.21719 0.51758 0.0
C347 C 0.27711 0.25707 0.51577 0.0
C348 C 0.31467 0.18986 0.50874 0.0
C349 C 0.18477 0.16227 0.53157 0.0
C350 C 0.34854 0.16879 0.53005 0.0
C351 C 0.4128 0.15619 0.52477 0.0
C352 C 0.4435 0.16568 0.49846 0.0
C353 C 0.40535 0.18033 0.47559 0.0
C354 C 0.34101 0.19259 0.48077 0.0
H355 H 0.1307 0.15801 0.53407 0.0
H356 H 0.20173 0.14639 0.51205 0.0
H357 H 0.20944 0.14931 0.55071 0.0
H358 H 0.32895 0.16651 0.5518 0.0
H359 H 0.44125 0.14478 0.54271 0.0
H360 H 0.51007 0.66647 0.03477 0.0
H361 H 0.44315 0.60746 0.03777 0.0
H362 H 0.6189 0.53774 0.03011 0.0
H363 H 0.68624 0.59631 0.02743 0.0
H364 H 0.43278 0.54753 0.99715 0.0
H365 H 0.52832 0.49236 0.10177 0.0
H366 H 0.54101 0.54169 0.08983 0.0
H367 H 0.59206 0.50328 0.07601 0.0
C368 C 0.53459 0.63859 0.03393 0.0
C369 C 0.60364 0.63615 0.03106 0.0
C370 C 0.49622 0.60492 0.03561 0.0
C371 C 0.52621 0.56828 0.03468 0.0
C372 C 0.59493 0.56575 0.03153 0.0
H373 H 0.4135 0.32888 0.02562 0.0
H374 H 0.46893 0.3917 0.02814 0.0
C375 C 0.6333 0.59931 0.02982 0.0
C376 C 0.48573 0.53254 0.03594 0.0
H377 H 0.46595 0.4478 0.07328 0.0
C378 C 0.43939 0.52588 1.01395 0.0
C379 C 0.49452 0.50443 0.05794 0.0
C380 C 0.54121 0.51088 0.08289 0.0
C381 C 0.40336 0.49113 1.01275 0.0
C382 C 0.41335 0.46264 0.03437 0.0
C383 C 0.45864 0.46967 0.05669 0.0
C384 C 0.37907 0.42474 0.03361 0.0
C385 C 0.35666 0.48458 0.98781 0.0
C386 C 0.31022 0.42249 0.03633 0.0
C387 C 0.27825 0.3866 0.03491 0.0
C388 C 0.31468 0.35229 0.03084 0.0
C389 C 0.38385 0.35468 0.0287 0.0
C390 C 0.41568 0.39055 0.03016 0.0
H391 H 0.36507 0.50558 0.96992 0.0
H392 H 0.36197 0.45471 0.97916 0.0
H393 H 0.30512 0.48809 0.9955 0.0
H394 H 0.28122 0.44852 0.03951 0.0
H395 H 0.22498 0.38583 0.03678 0.0
H396 H 0.64314 0.36379 0.56954 0.0
H397 H 0.57352 0.42133 0.57337 0.0
H398 H 0.49158 0.39715 0.48905 0.0
H399 H 0.55786 0.33789 0.48624 0.0
H400 H 0.57178 0.48347 0.54578 0.0
H401 H 0.32569 0.41822 0.52997 0.0
H402 H 0.39855 0.38904 0.53495 0.0
H403 H 0.3777 0.40778 0.49965 0.0
C404 C 0.60987 0.3707 0.55194 0.0
C405 C 0.60561 0.34654 0.52762 0.0
C406 C 0.57001 0.40354 0.55413 0.0
C407 C 0.52614 0.41338 0.53175 0.0
C408 C 0.52305 0.38957 0.5071 0.0
H409 H 0.39233 0.64876 0.5056 0.0
H410 H 0.45176 0.58739 0.50688 0.0
C411 C 0.56149 0.35599 0.50532 0.0
C412 C 0.48665 0.44963 0.53367 0.0
H413 H 0.33263 0.48731 0.5235 0.0
C414 C 0.51927 0.4841 0.54126 0.0
C415 C 0.41777 0.45062 0.52843 0.0
C416 C 0.37787 0.41433 0.52314 0.0
C417 C 0.48554 0.51948 0.54319 0.0
C418 C 0.41784 0.52101 0.53567 0.0
C419 C 0.38476 0.48641 0.52877 0.0
C420 C 0.38074 0.55816 0.53444 0.0
C421 C 0.5229 0.55449 0.55398 0.0
C422 C 0.31914 0.56179 0.5482 0.0
C423 C 0.28372 0.59652 0.54648 0.0
C424 C 0.30991 0.62844 0.53145 0.0
C425 C 0.37142 0.62482 0.51771 0.0
C426 C 0.40578 0.5898 0.51868 0.0
H427 H 0.5638 0.54582 0.56863 0.0
H428 H 0.54524 0.56994 0.5353 0.0
H429 H 0.49018 0.57483 0.56582 0.0
H430 H 0.29848 0.53778 0.56035 0.0
H431 H 0.23632 0.59859 0.55723 0.0
H432 H 0.04534 0.15195 0.04252 0.0
H433 H -0.01283 0.09007 0.04368 0.0
H434 H 0.16972 0.02975 0.0272 0.0
H435 H 0.22855 0.09172 0.02555 0.0
H436 H 0.06858 0.00753 0.9907 0.0
H437 H -0.01636 0.0049 0.10467 0.0
H438 H 0.9621 0.04886 0.08612 0.0
H439 H 0.0476 0.03729 0.09208 0.0
C440 C 0.07348 0.12555 0.03954 0.0
C441 C 0.14172 0.12686 0.03393 0.0
C442 C 0.04009 0.09014 0.04037 0.0
C443 C 0.07425 0.05528 0.03591 0.0
C444 C 0.14253 0.05635 0.03085 0.0
H445 H 0.92789 0.81783 0.01655 0.0
H446 H -0.00103 0.87496 0.01966 0.0
C447 C 0.17605 0.09179 0.02997 0.0
C448 C 0.03774 0.01809 0.03459 0.0
H449 H 0.93102 0.96046 0.07238 0.0
C450 C 0.03911 -0.00306 1.00866 0.0
C451 C -0.00068 0.00442 0.05805 0.0
C452 C -0.00153 0.02484 0.0869 0.0
C453 C 0.00113 0.96321 1.00519 0.0
C454 C 0.9615 0.95009 0.02843 0.0
C455 C 0.96119 0.97077 0.05455 0.0
C456 C 0.91867 0.91546 0.02589 0.0
C457 C 0.00195 0.94266 0.97639 0.0
C458 C 0.85005 0.91925 0.02873 0.0
C459 C 0.80923 0.88668 0.02709 0.0
C460 C 0.83635 0.84961 0.0227 0.0
C461 C 0.90524 0.84596 0.01972 0.0
C462 C 0.94601 0.87859 0.02141 0.0
H463 H 0.02296 0.96116 0.95896 0.0
H464 H 0.03278 0.91617 0.97816 0.0
H465 H 0.95138 0.93367 0.97003 0.0
H466 H 0.82806 0.94749 0.03227 0.0
H467 H 0.75647 0.89056 0.02954 0.0
H468 H 0.74396 0.09096 0.51975 0.0
H469 H 0.81004 0.03186 0.52307 0.0
H470 H -0.01625 0.10031 0.54042 0.0
H471 H 0.91784 0.15952 0.53784 0.0
H472 H 0.91487 0.00993 0.4902 0.0
H473 H -0.00951 0.02132 0.60527 0.0
H474 H 0.92587 0.05088 0.58992 0.0
H475 H 0.0111 0.06318 0.58397 0.0
C476 C 0.79616 0.09346 0.52442 0.0
C477 C 0.82555 0.12995 0.52868 0.0
C478 C 0.83383 0.05965 0.52632 0.0
C479 C 0.90155 0.06165 0.53249 0.0
C480 C 0.93124 0.09803 0.53639 0.0
H481 H 0.21187 0.88783 0.53671 0.0
H482 H 0.1483 0.9482 0.53768 0.0
C483 C 0.89353 0.13187 0.53471 0.0
C484 C 0.94135 0.02566 0.53375 0.0
H485 H 0.04234 0.97204 0.57741 0.0
C486 C 0.94247 0.00156 0.50931 0.0
C487 C -0.02254 0.01488 0.55871 0.0
C488 C -0.02417 0.03871 0.58606 0.0
C489 C -0.02078 0.96713 0.50904 0.0
C490 C 0.01522 0.95638 0.53397 0.0
C491 C 0.01461 0.98052 0.55835 0.0
C492 C 0.05327 0.91986 0.53511 0.0
C493 C -0.01997 0.94273 0.48196 0.0
C494 C 0.02059 0.88407 0.53404 0.0
C495 C 0.05658 0.84957 0.53356 0.0
C496 C 0.12601 0.85028 0.53414 0.0
C497 C 0.15851 0.88625 0.5361 0.0
C498 C 0.12235 0.92076 0.53669 0.0
H499 H 0.96196 0.95912 0.46282 0.0
H500 H 0.03062 0.932 0.47736 0.0
H501 H 0.94748 0.91717 0.4851 0.0
H502 H 0.96719 0.88285 0.53322 0.0
H503 H 0.0299 0.82241 0.53216 0.0
H504 H 0.73164 0.18117 0.35938 0.0
H505 H 0.6974 0.17723 0.30864 0.0
H506 H 0.53829 0.2569 0.32564 0.0
H507 H 0.57031 0.26024 0.37608 0.0
H508 H 0.57687 0.15226 0.28726 0.0
H509 H 0.62244 0.30395 0.25379 0.0
H510 H 0.65581 0.28384 0.28677 0.0
H511 H 0.57214 0.3013 0.28569 0.0
C512 C 0.68971 0.19813 0.35232 0.0
C513 C 0.65461 0.22155 0.37198 0.0
C514 C 0.67039 0.19594 0.32325 0.0
C515 C 0.61627 0.2175 0.3132 0.0
C516 C 0.5815 0.24097 0.33266 0.0
H517 H 0.34424 0.22026 0.17158 0.0
H518 H 0.40246 0.22288 0.218 0.0
C519 C 0.6003 0.24297 0.36162 0.0
C520 C 0.59263 0.21379 0.28295 0.0
H521 H 0.54732 0.26731 0.22392 0.0
C522 C 0.57145 0.17728 0.27321 0.0
C523 C 0.58567 0.24647 0.26461 0.0
C524 C 0.61088 0.28601 0.27314 0.0
C525 C 0.54073 0.17299 0.24616 0.0
C526 C 0.53102 0.20597 0.22854 0.0
C527 C 0.55421 0.24219 0.23775 0.0
C528 C 0.49582 0.20348 0.2006 0.0
C529 C 0.51686 0.13355 0.23679 0.0
C530 C 0.52929 0.19174 0.1756 0.0
C531 C 0.49649 0.19057 0.14901 0.0
C532 C 0.42938 0.201 0.14695 0.0
C533 C 0.39596 0.21243 0.17226 0.0
C534 C 0.429 0.21377 0.19882 0.0
H535 H 0.52614 0.11091 0.25344 0.0
H536 H 0.4631 0.13468 0.2322 0.0
H537 H 0.54219 0.12505 0.21646 0.0
H538 H 0.58105 0.18398 0.1766 0.0
H539 H 0.52428 0.18237 0.12996 0.0
H540 H 0.57178 0.70747 0.1633 0.0
H541 H 0.52035 0.70587 0.21092 0.0
H542 H 0.61836 0.81244 0.23359 0.0
H543 H 0.6725 0.81377 0.18612 0.0
H544 H 0.58358 0.7131 0.2713 0.0
H545 H 0.40803 0.82987 0.23929 0.0
H546 H 0.45053 0.80042 0.21289 0.0
H547 H 0.49457 0.83729 0.2322 0.0
C548 C 0.58434 0.73005 0.17858 0.0
C549 C 0.62651 0.76083 0.17068 0.0
C550 C 0.55424 0.7292 0.20576 0.0
C551 C 0.56501 0.75923 0.22555 0.0
C552 C 0.60897 0.7892 0.2184 0.0
H553 H 0.37429 0.81405 0.38868 0.0
H554 H 0.43376 0.81602 0.34266 0.0
C555 C 0.63966 0.78994 0.19123 0.0
C556 C 0.52739 0.75998 0.253 0.0
H557 H 0.39687 0.80405 0.28619 0.0
C558 C 0.54287 0.733 0.27467 0.0
C559 C 0.47441 0.78603 0.25719 0.0
C560 C 0.45527 0.81502 0.23419 0.0
C561 C 0.50693 0.73159 0.30067 0.0
C562 C 0.4529 0.7571 0.30465 0.0
C563 C 0.43794 0.78434 0.28301 0.0
C564 C 0.41218 0.75649 0.33137 0.0
C565 C 0.52805 0.70335 0.32388 0.0
C566 C 0.37818 0.7228 0.33979 0.0
C567 C 0.34394 0.72162 0.36608 0.0
C568 C 0.34239 0.7543 0.38421 0.0
C569 C 0.37366 0.78859 0.37499 0.0
C570 C 0.40817 0.78967 0.34881 0.0
H571 H 0.57983 0.69362 0.32072 0.0
H572 H 0.52359 0.71647 0.34572 0.0
H573 H 0.49581 0.67736 0.32308 0.0
H574 H 0.37915 0.69717 0.32629 0.0
H575 H 0.31986 0.69492 0.37256 0.0
H576 H 0.38533 0.83121 0.66687 0.0
H577 H 0.4328 0.82884 0.71551 0.0
H578 H 0.44733 0.70436 0.70979 0.0
H579 H 0.40144 0.70651 0.66084 0.0
H580 H 0.38578 0.78963 0.76462 0.0
H581 H 0.63491 0.73729 0.73341 0.0
H582 H 0.57729 0.75681 0.70742 0.0
H583 H 0.56785 0.70799 0.72046 0.0
C584 C 0.39901 0.80333 0.67587 0.0
C585 C 0.38981 0.76906 0.65988 0.0
C586 C 0.42591 0.80202 0.70371 0.0
C587 C 0.44467 0.7665 0.71607 0.0
C588 C 0.43437 0.73216 0.70046 0.0
H589 H 0.60152 0.70199 0.8847 0.0
H590 H 0.56371 0.70262 0.83433 0.0
C591 C 0.40729 0.73341 0.67262 0.0
C592 C 0.4735 0.76544 0.74559 0.0
H593 H 0.61198 0.74068 0.78362 0.0
C594 C 0.4353 0.77907 0.76877 0.0
C595 C 0.53809 0.75151 0.75094 0.0
C596 C 0.58228 0.73785 0.72674 0.0
C597 C 0.45955 0.77872 0.79721 0.0
C598 C 0.52428 0.76506 0.80256 0.0
C599 C 0.56244 0.7512 0.77943 0.0
C600 C 0.5528 0.76496 0.83211 0.0
C601 C 0.41512 0.79228 0.82139 0.0
C602 C 0.56141 0.79987 0.84719 0.0
C603 C 0.58268 0.7996 0.87595 0.0
C604 C 0.59602 0.76437 0.89018 0.0
C605 C 0.59041 0.72954 0.87453 0.0
C606 C 0.56925 0.72986 0.84572 0.0
H607 H 0.3624 0.79249 0.81479 0.0
H608 H 0.42048 0.7735 0.84079 0.0
H609 H 0.42899 0.82228 0.82754 0.0
H610 H 0.55017 0.82733 0.8369 0.0
H611 H 0.58617 0.82693 0.88734 0.0
H612 H 0.43481 0.26327 0.88976 0.0
H613 H 0.48308 0.2605 0.84159 0.0
H614 H 0.30643 0.20598 0.80919 0.0
H615 H 0.2561 0.21041 0.85736 0.0
H616 H 0.51295 0.19912 0.80893 0.0
H617 H 0.3325 0.29161 0.7507 0.0
H618 H 0.335 0.28855 0.78966 0.0
H619 H 0.29554 0.25104 0.76891 0.0
C620 C 0.40524 0.25165 0.87229 0.0
C621 C 0.34084 0.2378 0.8774 0.0
C622 C 0.43343 0.2496 0.84477 0.0
C623 C 0.39821 0.23355 0.82159 0.0
C624 C 0.33412 0.21929 0.82657 0.0
H625 H 0.56893 0.15961 0.65745 0.0
H626 H 0.52623 0.16228 0.70695 0.0
C627 C 0.30559 0.22152 0.85418 0.0
C628 C 0.42964 0.23115 0.79252 0.0
H629 H 0.41195 0.25895 0.72196 0.0
C630 C 0.49085 0.21224 0.78991 0.0
C631 C 0.40141 0.24877 0.76777 0.0
C632 C 0.33784 0.27147 0.76935 0.0
C633 C 0.52423 0.21022 0.76327 0.0
C634 C 0.49498 0.22683 0.7384 0.0
C635 C 0.4341 0.24598 0.74102 0.0
C636 C 0.5266 0.22495 0.7094 0.0
C637 C 0.59121 0.19113 0.76211 0.0
C638 C 0.54132 0.25925 0.69432 0.0
C639 C 0.5656 0.25781 0.66602 0.0
C640 C 0.57535 0.222 0.65212 0.0
C641 C 0.56273 0.18764 0.66763 0.0
C642 C 0.53826 0.18912 0.69594 0.0
H643 H 0.61414 0.1892 0.7839 0.0
H644 H 0.58577 0.16124 0.75361 0.0
H645 H 0.62512 0.20727 0.74752 0.0
H646 H 0.53295 0.28722 0.70431 0.0
H647 H 0.57572 0.28478 0.65482 0.0
H648 H -0.00827 0.7498 0.39808 0.0
H649 H 0.94806 0.74604 0.34904 0.0
H650 H 0.14171 0.71693 0.31688 0.0
H651 H 0.18599 0.72056 0.36629 0.0
H652 H -0.01873 0.7877 0.30059 0.0
H653 H 0.02593 0.63044 0.28378 0.0
H654 H 0.03088 0.65294 0.31895 0.0
H655 H 0.09787 0.65782 0.29369 0.0
C656 C 0.02533 0.74311 0.38055 0.0
C657 C 0.09248 0.73578 0.38602 0.0
C658 C 0.00014 0.7407 0.35255 0.0
C659 C 0.04137 0.73075 0.32934 0.0
C660 C 0.10872 0.72389 0.33457 0.0
H661 H 0.95078 0.76389 0.14809 0.0
H662 H -0.00446 0.76622 0.19702 0.0
C663 C 0.13403 0.72614 0.36273 0.0
C664 C 0.01332 0.72819 0.29975 0.0
H665 H -0.01359 0.66612 0.2434 0.0
C666 C -0.01758 0.76112 0.28809 0.0
C667 C 0.01385 0.69329 0.28367 0.0
C668 C 0.04334 0.65646 0.29569 0.0
C669 C 0.95281 0.76028 0.26066 0.0
C670 C 0.95508 0.72574 0.24423 0.0
C671 C -0.01488 0.69261 0.256 0.0
C672 C 0.92768 0.7238 0.21452 0.0
C673 C 0.91842 0.79622 0.24968 0.0
C674 C 0.87549 0.69849 0.20794 0.0
C675 C 0.8495 0.69713 0.17987 0.0
C676 C 0.87551 0.72099 0.15793 0.0
C677 C 0.92848 0.74582 0.16462 0.0
C678 C 0.95432 0.74713 0.19257 0.0
H679 H 0.90591 0.81641 0.26757 0.0
H680 H 0.95156 0.81174 0.23444 0.0
H681 H 0.8724 0.78864 0.23794 0.0
H682 H 0.85442 0.68013 0.2246 0.0
H683 H 0.80858 0.67782 0.17544 0.0
H684 H 0.86899 0.33034 0.39611 0.0
H685 H 0.90132 0.33169 0.34516 0.0
H686 H 0.8631 0.209 0.33866 0.0
H687 H 0.82879 0.2076 0.38934 0.0
H688 H 0.00479 0.29225 0.32154 0.0
H689 H 0.77279 0.24994 0.26662 0.0
H690 H 0.77527 0.26342 0.30433 0.0
H691 H 0.79907 0.21541 0.29329 0.0
C692 C 0.86592 0.30378 0.38371 0.0
C693 C 0.84619 0.26884 0.39692 0.0
C694 C 0.88491 0.30456 0.3546 0.0
C695 C 0.88417 0.27054 0.33795 0.0
C696 C 0.86316 0.23577 0.35087 0.0
H697 H 0.02583 0.20812 0.16649 0.0
H698 H -0.01774 0.20856 0.21594 0.0
C699 C 0.84424 0.23495 0.37999 0.0
C700 C 0.90998 0.27093 0.3078 0.0
H701 H 0.87097 0.24915 0.23772 0.0
C702 C -0.02469 0.28314 0.30319 0.0
C703 C 0.87169 0.25877 0.28385 0.0
C704 C 0.8006 0.24651 0.28718 0.0
C705 C 0.00377 0.28288 0.27546 0.0
C706 C 0.96558 0.27068 0.25154 0.0
C707 C 0.90021 0.25848 0.25609 0.0
C708 C -0.00735 0.2705 0.22163 0.0
C709 C 0.07505 0.2948 0.27212 0.0
C710 C 0.01274 0.30519 0.20835 0.0
C711 C 0.03808 0.30502 0.18017 0.0
C712 C 0.04364 0.27013 0.16459 0.0
C713 C 0.0233 0.23541 0.17799 0.0
C714 C -0.00219 0.23564 0.20616 0.0
H715 H 0.10187 0.29383 0.29307 0.0
H716 H 0.10097 0.27576 0.25643 0.0
H717 H 0.07728 0.32498 0.26382 0.0
H718 H 0.00835 0.33252 0.21971 0.0
H719 H 0.05359 0.33225 0.17064 0.0
H720 H 0.95662 0.22019 0.91322 0.0
H721 H 0.89469 0.22193 0.86811 0.0
H722 H 0.07062 0.25647 0.82216 0.0
H723 H 0.13388 0.25348 0.86738 0.0
H724 H 0.87178 0.28275 0.83189 0.0
H725 H 0.00513 0.16573 0.77392 0.0
H726 H 0.01419 0.17371 0.81229 0.0
H727 H 0.05773 0.20385 0.78685 0.0
C728 C -0.01731 0.22729 0.89345 0.0
C729 C 0.05059 0.23601 0.89385 0.0
C730 C 0.94692 0.2287 0.8677 0.0
C731 C -0.02189 0.23877 0.84167 0.0
C732 C 0.04578 0.24787 0.84191 0.0
H733 H 0.80319 0.31192 0.68053 0.0
H734 H 0.84658 0.30917 0.72977 0.0
C735 C 0.08177 0.24645 0.86778 0.0
C736 C 0.9391 0.24041 0.8145 0.0
H737 H 0.92854 0.20261 0.74644 0.0
C738 C 0.88404 0.26514 0.81322 0.0
C739 C 0.95444 0.21694 0.79034 0.0
C740 C 0.01068 0.18827 0.7909 0.0
C741 C 0.84473 0.26759 0.78825 0.0
C742 C 0.8615 0.24513 0.76376 0.0
C743 C 0.91581 0.2199 0.76522 0.0
C744 C 0.82521 0.24821 0.73595 0.0
C745 C 0.78519 0.29384 0.78841 0.0
C746 C 0.79747 0.21505 0.72322 0.0
C747 C 0.7726 0.21656 0.69502 0.0
C748 C 0.77537 0.25122 0.67899 0.0
C749 C 0.79938 0.28493 0.69245 0.0
C750 C 0.8244 0.28338 0.72062 0.0
H751 H 0.76831 0.30009 0.8108 0.0
H752 H 0.79831 0.32182 0.77799 0.0
H753 H 0.74365 0.28079 0.77614 0.0
H754 H 0.79743 0.18764 0.73471 0.0
H755 H 0.75391 0.19021 0.68526 0.0
H756 H 0.02959 0.6432 0.66572 0.0
H757 H -0.03076 0.6435 0.71166 0.0
H758 H 0.9331 0.76606 0.70214 0.0
H759 H -0.00789 0.76589 0.65592 0.0
H760 H -0.00362 0.6876 0.76159 0.0
H761 H 0.74797 0.72027 0.71749 0.0
H762 H 0.81584 0.70499 0.69495 0.0
H763 H 0.81071 0.75439 0.70708 0.0
C764 C 0.00849 0.67018 0.67332 0.0
C765 C 0.01558 0.70451 0.65712 0.0
C766 C -0.02583 0.67031 0.69959 0.0
C767 C 0.94573 0.70465 0.71004 0.0
C768 C 0.95362 0.73909 0.6942 0.0
H769 H 0.75279 0.772 0.86911 0.0
H770 H 0.79135 0.76779 0.81892 0.0
C771 C -0.01184 0.73904 0.66799 0.0
C772 C 0.90965 0.70464 0.73798 0.0
H773 H 0.75923 0.72241 0.76885 0.0
C774 C 0.94444 0.69492 0.76317 0.0
C775 C 0.84193 0.71439 0.73994 0.0
C776 C 0.80165 0.72379 0.71341 0.0
C777 C 0.91377 0.69544 0.79039 0.0
C778 C 0.84599 0.7051 0.7924 0.0
C779 C 0.81105 0.7148 0.76721 0.0
C780 C 0.8117 0.70626 0.82075 0.0
C781 C 0.95478 0.68669 0.81688 0.0
C782 C 0.80696 0.67269 0.83784 0.0
C783 C 0.78538 0.67504 0.86651 0.0
C784 C 0.76789 0.71102 0.87856 0.0
C785 C 0.76721 0.74402 0.86058 0.0
C786 C 0.78889 0.74163 0.83189 0.0
H787 H 0.00851 0.689 0.81236 0.0
H788 H 0.94229 0.70672 0.83485 0.0
H789 H 0.94447 0.65663 0.82421 0.0
H790 H 0.82314 0.64497 0.82943 0.0
H791 H 0.78672 0.64909 0.87972 0.0
loop_
_geom_bond_atom_site_label_1
_geom_bond_atom_site_label_2
_geom_bond_distance
_geom_bond_site_symmetry_2
_ccdc_geom_bond_type
Cd0 N3 2.334 . S
Cd0 N29 2.304 1_554 S
Cd0 O36 2.268 . S
Cd0 O39 2.273 . S
Cd0 O40 2.417 . S
Cd0 O41 2.331 . S
Cd1 N16 2.304 1_554 S
Cd1 N20 2.334 . S
Cd1 O37 2.273 . S
Cd1 O38 2.268 . S
Cd1 O42 2.417 . S
Cd1 O43 2.331 . S
C2 N3 1.332 . S
C2 C6 1.381 . S
C2 H8 0.931 . S
N3 Cd0 2.334 . S
N3 C2 1.332 . S
N3 C7 1.328 . S
C4 C5 1.396 . S
C4 C7 1.378 . S
C4 H46 0.931 . S
C5 C4 1.396 . S
C5 C6 1.382 . S
C6 C2 1.381 . S
C6 C5 1.382 . S
C6 H47 0.930 . S
C7 N3 1.328 . S
C7 C4 1.378 . S
C7 H9 0.930 . S
H8 C2 0.931 . S
H9 C7 0.930 . S
C10 O36 1.238 . S
C10 O37 1.253 . S
C11 C12 1.379 . S
C11 N16 1.337 . S
C11 H17 0.929 . S
C12 C11 1.379 . S
C12 C13 1.380 . S
C12 H48 0.929 . S
C13 C12 1.380 . S
C13 C14 1.399 . S
C14 C13 1.399 . S
C14 C15 1.376 . S
C14 H49 0.931 . S
C15 C14 1.376 . S
C15 N16 1.338 . S
C15 H18 0.930 . S
N16 Cd1 2.304 1_556 S
N16 C11 1.337 . S
N16 C15 1.338 . S
H17 C11 0.929 . S
H18 C15 0.930 . S
C19 N20 1.332 . S
C19 C23 1.381 . S
C19 H25 0.931 . S
N20 Cd1 2.334 . S
N20 C19 1.332 . S
N20 C24 1.328 . S
C21 C22 1.396 . S
C21 C24 1.378 . S
C21 H50 0.931 . S
C22 C21 1.396 . S
C22 C23 1.382 . S
C23 C19 1.381 . S
C23 C22 1.382 . S
C23 H51 0.930 . S
C24 N20 1.328 . S
C24 C21 1.378 . S
C24 H26 0.930 . S
H25 C19 0.931 . S
H26 C24 0.930 . S
C27 O38 1.238 . S
C27 O39 1.253 . S
C28 O40 1.239 . S
C28 O41 1.231 . S
N29 Cd0 2.304 1_556 S
N29 C30 1.337 . S
N29 C34 1.338 . S
C30 N29 1.337 . S
C30 C31 1.379 . S
C30 H44 0.929 . S
C31 C30 1.379 . S
C31 C32 1.380 . S
C31 H52 0.929 . S
C32 C31 1.380 . S
C32 C33 1.399 . S
C33 C32 1.399 . S
C33 C34 1.376 . S
C33 H53 0.931 . S
C34 N29 1.338 . S
C34 C33 1.376 . S
C34 H45 0.930 . S
C35 O42 1.239 . S
C35 O43 1.231 . S
O36 Cd0 2.268 . S
O36 C10 1.238 . S
O37 Cd1 2.273 . S
O37 C10 1.253 . S
O38 Cd1 2.268 . S
O38 C27 1.238 . S
O39 Cd0 2.273 . S
O39 C27 1.253 . S
O40 Cd0 2.417 . S
O40 C28 1.239 . S
O41 Cd0 2.331 . S
O41 C28 1.231 . S
O42 Cd1 2.417 . S
O42 C35 1.239 . S
O43 Cd1 2.331 . S
O43 C35 1.231 . S
H44 C30 0.929 . S
H45 C34 0.930 . S
H46 C4 0.931 . S
H47 C6 0.930 . S
H48 C12 0.929 . S
H49 C14 0.931 . S
H50 C21 0.931 . S
H51 C23 0.930 . S
H52 C31 0.929 . S
H53 C33 0.931 . S
Cd54 N57 2.334 . S
Cd54 N83 2.304 1_554 S
Cd54 O90 2.268 . S
Cd54 O93 2.273 . S
Cd54 O94 2.417 . S
Cd54 O95 2.331 . S
Cd55 N70 2.304 1_554 S
Cd55 N74 2.334 . S
Cd55 O91 2.273 . S
Cd55 O92 2.268 . S
Cd55 O96 2.417 . S
Cd55 O97 2.331 . S
C56 N57 1.332 . S
C56 C60 1.381 . S
C56 H62 0.931 . S
N57 Cd54 2.334 . S
N57 C56 1.332 . S
N57 C61 1.328 . S
C58 C59 1.396 . S
C58 C61 1.378 . S
C58 H100 0.931 . S
C59 C58 1.396 . S
C59 C60 1.382 . S
C60 C56 1.381 . S
C60 C59 1.382 . S
C60 H101 0.930 . S
C61 N57 1.328 . S
C61 C58 1.378 . S
C61 H63 0.930 . S
H62 C56 0.931 . S
H63 C61 0.930 . S
C64 O90 1.238 . S
C64 O91 1.253 . S
C65 C66 1.379 . S
C65 N70 1.337 . S
C65 H71 0.929 . S
C66 C65 1.379 . S
C66 C67 1.380 . S
C66 H102 0.929 . S
C67 C66 1.380 . S
C67 C68 1.399 . S
C68 C67 1.399 . S
C68 C69 1.376 . S
C68 H103 0.931 . S
C69 C68 1.376 . S
C69 N70 1.338 . S
C69 H72 0.930 . S
N70 Cd55 2.304 1_556 S
N70 C65 1.337 . S
N70 C69 1.338 . S
H71 C65 0.929 . S
H72 C69 0.930 . S
C73 N74 1.332 . S
C73 C77 1.381 . S
C73 H79 0.931 . S
N74 Cd55 2.334 . S
N74 C73 1.332 . S
N74 C78 1.328 . S
C75 C76 1.396 . S
C75 C78 1.378 . S
C75 H104 0.931 . S
C76 C75 1.396 . S
C76 C77 1.382 . S
C77 C73 1.381 . S
C77 C76 1.382 . S
C77 H105 0.930 . S
C78 N74 1.328 . S
C78 C75 1.378 . S
C78 H80 0.930 . S
H79 C73 0.931 . S
H80 C78 0.930 . S
C81 O92 1.238 . S
C81 O93 1.253 . S
C82 O94 1.239 . S
C82 O95 1.231 . S
N83 Cd54 2.304 1_556 S
N83 C84 1.337 . S
N83 C88 1.338 . S
C84 N83 1.337 . S
C84 C85 1.379 . S
C84 H98 0.929 . S
C85 C84 1.379 . S
C85 C86 1.380 . S
C85 H106 0.929 . S
C86 C85 1.380 . S
C86 C87 1.399 . S
C87 C86 1.399 . S
C87 C88 1.376 . S
C87 H107 0.931 . S
C88 N83 1.338 . S
C88 C87 1.376 . S
C88 H99 0.930 . S
C89 O96 1.239 . S
C89 O97 1.231 . S
O90 Cd54 2.268 . S
O90 C64 1.238 . S
O91 Cd55 2.273 . S
O91 C64 1.253 . S
O92 Cd55 2.268 . S
O92 C81 1.238 . S
O93 Cd54 2.273 . S
O93 C81 1.253 . S
O94 Cd54 2.417 . S
O94 C82 1.239 . S
O95 Cd54 2.331 . S
O95 C82 1.231 . S
O96 Cd55 2.417 . S
O96 C89 1.239 . S
O97 Cd55 2.331 . S
O97 C89 1.231 . S
H98 C84 0.929 . S
H99 C88 0.930 . S
H100 C58 0.931 . S
H101 C60 0.930 . S
H102 C66 0.929 . S
H103 C68 0.931 . S
H104 C75 0.931 . S
H105 C77 0.930 . S
H106 C85 0.929 . S
H107 C87 0.931 . S
Cd108 N111 2.334 . S
Cd108 N137 2.304 . S
Cd108 O144 2.268 . S
Cd108 O147 2.273 . S
Cd108 O148 2.417 . S
Cd108 O149 2.330 . S
Cd109 N124 2.304 . S
Cd109 N128 2.334 . S
Cd109 O145 2.273 . S
Cd109 O146 2.268 . S
Cd109 O150 2.417 . S
Cd109 O151 2.330 . S
C110 N111 1.332 . S
C110 C114 1.381 . S
C110 H116 0.931 . S
N111 Cd108 2.334 . S
N111 C110 1.332 . S
N111 C115 1.328 . S
C112 C113 1.396 . S
C112 C115 1.378 . S
C112 H154 0.931 . S
C113 C112 1.396 . S
C113 C114 1.382 . S
C114 C110 1.381 . S
C114 C113 1.382 . S
C114 H155 0.930 . S
C115 N111 1.328 . S
C115 C112 1.378 . S
C115 H117 0.930 . S
H116 C110 0.931 . S
H117 C115 0.930 . S
C118 O144 1.238 . S
C118 O145 1.253 . S
C119 C120 1.379 . S
C119 N124 1.337 . S
C119 H125 0.929 . S
C120 C119 1.379 . S
C120 C121 1.380 . S
C120 H156 0.929 . S
C121 C120 1.380 . S
C121 C122 1.399 . S
C122 C121 1.399 . S
C122 C123 1.376 . S
C122 H157 0.931 . S
C123 C122 1.376 . S
C123 N124 1.338 . S
C123 H126 0.930 . S
N124 Cd109 2.304 . S
N124 C119 1.337 . S
N124 C123 1.338 . S
H125 C119 0.929 . S
H126 C123 0.930 . S
C127 N128 1.332 . S
C127 C131 1.381 . S
C127 H133 0.931 . S
N128 Cd109 2.334 . S
N128 C127 1.332 . S
N128 C132 1.328 . S
C129 C130 1.396 . S
C129 C132 1.378 . S
C129 H158 0.931 . S
C130 C129 1.396 . S
C130 C131 1.382 . S
C131 C127 1.381 . S
C131 C130 1.382 . S
C131 H159 0.930 . S
C132 N128 1.328 . S
C132 C129 1.378 . S
C132 H134 0.930 . S
H133 C127 0.931 . S
H134 C132 0.930 . S
C135 O146 1.238 . S
C135 O147 1.253 . S
C136 O148 1.239 . S
C136 O149 1.230 . S
N137 Cd108 2.304 . S
N137 C138 1.337 . S
N137 C142 1.338 . S
C138 N137 1.337 . S
C138 C139 1.379 . S
C138 H152 0.929 . S
C139 C138 1.379 . S
C139 C140 1.380 . S
C139 H160 0.929 . S
C140 C139 1.380 . S
C140 C141 1.399 . S
C141 C140 1.399 . S
C141 C142 1.376 . S
C141 H161 0.931 . S
C142 N137 1.338 . S
C142 C141 1.376 . S
C142 H153 0.930 . S
C143 O150 1.239 . S
C143 O151 1.230 . S
O144 Cd108 2.268 . S
O144 C118 1.238 . S
O145 Cd109 2.273 . S
O145 C118 1.253 . S
O146 Cd109 2.268 . S
O146 C135 1.238 . S
O147 Cd108 2.273 . S
O147 C135 1.253 . S
O148 Cd108 2.417 . S
O148 C136 1.239 . S
O149 Cd108 2.330 . S
O149 C136 1.230 . S
O150 Cd109 2.417 . S
O150 C143 1.239 . S
O151 Cd109 2.330 . S
O151 C143 1.230 . S
H152 C138 0.929 . S
H153 C142 0.930 . S
H154 C112 0.931 . S
H155 C114 0.930 . S
H156 C120 0.929 . S
H157 C122 0.931 . S
H158 C129 0.931 . S
H159 C131 0.930 . S
H160 C139 0.929 . S
H161 C141 0.931 . S
Cd162 N165 2.334 . S
Cd162 N191 2.304 . S
Cd162 O198 2.268 . S
Cd162 O201 2.273 . S
Cd162 O202 2.417 . S
Cd162 O203 2.330 . S
Cd163 N178 2.304 . S
Cd163 N182 2.334 . S
Cd163 O199 2.273 . S
Cd163 O200 2.268 . S
Cd163 O204 2.417 . S
Cd163 O205 2.330 . S
C164 N165 1.332 . S
C164 C168 1.381 . S
C164 H170 0.931 . S
N165 Cd162 2.334 . S
N165 C164 1.332 . S
N165 C169 1.328 . S
C166 C167 1.396 . S
C166 C169 1.378 . S
C166 H208 0.931 . S
C167 C166 1.396 . S
C167 C168 1.382 . S
C168 C164 1.381 . S
C168 C167 1.382 . S
C168 H209 0.930 . S
C169 N165 1.328 . S
C169 C166 1.378 . S
C169 H171 0.930 . S
H170 C164 0.931 . S
H171 C169 0.930 . S
C172 O198 1.238 . S
C172 O199 1.253 . S
C173 C174 1.379 . S
C173 N178 1.337 . S
C173 H179 0.929 . S
C174 C173 1.379 . S
C174 C175 1.380 . S
C174 H210 0.929 . S
C175 C174 1.380 . S
C175 C176 1.399 . S
C176 C175 1.399 . S
C176 C177 1.376 . S
C176 H211 0.931 . S
C177 C176 1.376 . S
C177 N178 1.338 . S
C177 H180 0.930 . S
N178 Cd163 2.304 . S
N178 C173 1.337 . S
N178 C177 1.338 . S
H179 C173 0.929 . S
H180 C177 0.930 . S
C181 N182 1.332 . S
C181 C185 1.381 . S
C181 H187 0.931 . S
N182 Cd163 2.334 . S
N182 C181 1.332 . S
N182 C186 1.328 . S
C183 C184 1.396 . S
C183 C186 1.378 . S
C183 H212 0.931 . S
C184 C183 1.396 . S
C184 C185 1.382 . S
C185 C181 1.381 . S
C185 C184 1.382 . S
C185 H213 0.930 . S
C186 N182 1.328 . S
C186 C183 1.378 . S
C186 H188 0.930 . S
H187 C181 0.931 . S
H188 C186 0.930 . S
C189 O200 1.238 . S
C189 O201 1.253 . S
C190 O202 1.239 . S
C190 O203 1.230 . S
N191 Cd162 2.304 . S
N191 C192 1.337 . S
N191 C196 1.338 . S
C192 N191 1.337 . S
C192 C193 1.379 . S
C192 H206 0.929 . S
C193 C192 1.379 . S
C193 C194 1.380 . S
C193 H214 0.929 . S
C194 C193 1.380 . S
C194 C195 1.399 . S
C195 C194 1.399 . S
C195 C196 1.376 . S
C195 H215 0.931 . S
C196 N191 1.338 . S
C196 C195 1.376 . S
C196 H207 0.930 . S
C197 O204 1.239 . S
C197 O205 1.230 . S
O198 Cd162 2.268 . S
O198 C172 1.238 . S
O199 Cd163 2.273 . S
O199 C172 1.253 . S
O200 Cd163 2.268 . S
O200 C189 1.238 . S
O201 Cd162 2.273 . S
O201 C189 1.253 . S
O202 Cd162 2.417 . S
O202 C190 1.239 . S
O203 Cd162 2.330 . S
O203 C190 1.230 . S
O204 Cd163 2.417 . S
O204 C197 1.239 . S
O205 Cd163 2.330 . S
O205 C197 1.230 . S
H206 C192 0.929 . S
H207 C196 0.930 . S
H208 C166 0.931 . S
H209 C168 0.930 . S
H210 C174 0.929 . S
H211 C176 0.931 . S
H212 C183 0.931 . S
H213 C185 0.930 . S
H214 C193 0.929 . S
H215 C195 0.931 . S
H216 C224 0.929 . S
H217 C226 0.930 . S
H218 C228 0.930 . S
H219 C231 0.929 . S
H220 C234 0.930 . S
H221 C236 0.960 . S
H222 C236 0.960 . S
H223 C236 0.960 . S
C224 H216 0.929 . S
C224 C225 1.377 1_556 S
C224 C226 1.384 . S
C225 C224 1.377 1_554 S
C225 C231 1.390 . S
C226 H217 0.930 . S
C226 C224 1.384 . S
C226 C227 1.372 1_556 S
C227 C226 1.372 1_554 S
C227 C228 1.400 . S
C227 C232 1.490 . S
C228 H218 0.930 . S
C228 C227 1.400 . S
C228 C231 1.386 . S
H229 C245 0.930 . S
H230 C246 0.931 . S
C231 H219 0.929 . S
C231 C225 1.390 . S
C231 C228 1.386 . S
C232 C227 1.490 . S
C232 C234 1.395 . S
C232 C235 1.403 1_554 S
H233 C239 0.930 . S
C234 H220 0.930 . S
C234 C232 1.395 . S
C234 C237 1.403 . S
C235 C232 1.403 1_556 S
C235 C236 1.524 . S
C235 C239 1.400 . S
C236 H221 0.960 . S
C236 H222 0.960 . S
C236 H223 0.960 . S
C236 C235 1.524 . S
C237 C234 1.403 . S
C237 C238 1.392 . S
C237 C241 1.495 . S
C238 C237 1.392 . S
C238 C239 1.385 1_554 S
C238 C240 1.478 . S
C239 H233 0.930 . S
C239 C235 1.400 . S
C239 C238 1.385 1_556 S
C240 C238 1.478 . S
C240 C242 1.381 1_554 S
C240 C246 1.383 . S
C241 C237 1.495 . S
C241 H247 0.959 . S
C241 H248 0.961 . S
C241 H249 0.960 . S
C242 C240 1.381 1_556 S
C242 C243 1.394 . S
C242 H250 0.930 . S
C243 C242 1.394 . S
C243 C244 1.383 1_656 S
C243 H251 0.929 1_655 S
C244 C243 1.383 1_454 S
C244 C245 1.377 . S
C245 H229 0.930 . S
C245 C244 1.377 . S
C245 C246 1.379 1_455 S
C246 H230 0.931 . S
C246 C240 1.383 . S
C246 C245 1.379 1_655 S
H247 C241 0.959 . S
H248 C241 0.961 . S
H249 C241 0.960 . S
H250 C242 0.930 . S
H251 C243 0.929 1_455 S
H252 C260 0.929 . S
H253 C262 0.930 . S
H254 C264 0.930 . S
H255 C267 0.932 . S
H256 C270 0.930 . S
H257 C272 0.960 . S
H258 C272 0.960 . S
H259 C272 0.960 . S
C260 H252 0.929 . S
C260 C261 1.377 . S
C260 C262 1.384 1_655 S
C261 C260 1.377 . S
C261 C267 1.393 1_554 S
C262 H253 0.930 . S
C262 C260 1.384 1_455 S
C262 C263 1.372 . S
C263 C262 1.372 . S
C263 C264 1.400 1_554 S
C263 C268 1.490 . S
C264 H254 0.930 . S
C264 C263 1.400 1_556 S
C264 C267 1.380 1_455 S
H265 C281 0.930 . S
H266 C282 0.931 . S
C267 H255 0.932 . S
C267 C261 1.393 1_556 S
C267 C264 1.380 1_655 S
C268 C263 1.490 . S
C268 C270 1.395 . S
C268 C271 1.403 1_554 S
H269 C275 0.930 . S
C270 H256 0.930 . S
C270 C268 1.395 . S
C270 C273 1.403 . S
C271 C268 1.403 1_556 S
C271 C272 1.524 . S
C271 C275 1.400 . S
C272 H257 0.960 . S
C272 H258 0.960 . S
C272 H259 0.960 . S
C272 C271 1.524 . S
C273 C270 1.403 . S
C273 C274 1.392 . S
C273 C277 1.495 . S
C274 C273 1.392 . S
C274 C275 1.385 1_554 S
C274 C276 1.478 . S
C275 H269 0.930 . S
C275 C271 1.400 . S
C275 C274 1.385 1_556 S
C276 C274 1.478 . S
C276 C278 1.381 . S
C276 C282 1.383 1_554 S
C277 C273 1.495 . S
C277 H283 0.959 . S
C277 H284 0.961 . S
C277 H285 0.960 . S
C278 C276 1.381 . S
C278 C279 1.394 . S
C278 H286 0.930 . S
C279 C278 1.394 . S
C279 C280 1.383 . S
C279 H287 0.929 . S
C280 C279 1.383 . S
C280 C281 1.377 1_554 S
C281 H265 0.930 . S
C281 C280 1.377 1_556 S
C281 C282 1.379 . S
C282 H266 0.931 . S
C282 C276 1.383 1_556 S
C282 C281 1.379 . S
H283 C277 0.959 . S
H284 C277 0.961 . S
H285 C277 0.960 . S
H286 C278 0.930 . S
H287 C279 0.929 . S
H288 C296 0.929 . S
H289 C298 0.930 . S
H290 C300 0.930 . S
H291 C303 0.929 . S
H292 C306 0.930 . S
H293 C308 0.960 . S
H294 C308 0.960 . S
H295 C308 0.960 . S
C296 H288 0.929 . S
C296 C297 1.377 . S
C296 C298 1.384 . S
C297 C296 1.377 . S
C297 C303 1.390 . S
C298 H289 0.930 . S
C298 C296 1.384 . S
C298 C299 1.372 . S
C299 C298 1.372 . S
C299 C300 1.400 . S
C299 C304 1.490 . S
C300 H290 0.930 . S
C300 C299 1.400 . S
C300 C303 1.386 . S
H301 C317 0.930 1_455 S
H302 C318 0.931 . S
C303 H291 0.929 . S
C303 C297 1.390 . S
C303 C300 1.386 . S
C304 C299 1.490 . S
C304 C306 1.395 . S
C304 C307 1.403 . S
H305 C311 0.930 . S
C306 H292 0.930 . S
C306 C304 1.395 . S
C306 C309 1.403 . S
C307 C304 1.403 . S
C307 C308 1.524 . S
C307 C311 1.400 . S
C308 H293 0.960 . S
C308 H294 0.960 . S
C308 H295 0.960 . S
C308 C307 1.524 . S
C309 C306 1.403 . S
C309 C310 1.392 . S
C309 C313 1.495 . S
C310 C309 1.392 . S
C310 C311 1.385 . S
C310 C312 1.478 . S
C311 H305 0.930 . S
C311 C307 1.400 . S
C311 C310 1.385 . S
C312 C310 1.478 . S
C312 C314 1.381 . S
C312 C318 1.383 . S
C313 C309 1.495 . S
C313 H319 0.959 . S
C313 H320 0.961 . S
C313 H321 0.960 . S
C314 C312 1.381 . S
C314 C315 1.394 1_655 S
C314 H322 0.930 . S
C315 C314 1.394 1_455 S
C315 C316 1.383 . S
C315 H323 0.929 . S
C316 C315 1.383 . S
C316 C317 1.377 1_455 S
C317 H301 0.930 1_655 S
C317 C316 1.377 1_655 S
C317 C318 1.379 . S
C318 H302 0.931 . S
C318 C312 1.383 . S
C318 C317 1.379 . S
H319 C313 0.959 . S
H320 C313 0.961 . S
H321 C313 0.960 . S
H322 C314 0.930 . S
H323 C315 0.929 . S
H324 C332 0.929 . S
H325 C334 0.930 . S
H326 C336 0.930 . S
H327 C339 0.929 . S
H328 C342 0.930 . S
H329 C344 0.960 . S
H330 C344 0.960 . S
H331 C344 0.960 . S
C332 H324 0.929 . S
C332 C333 1.377 . S
C332 C334 1.384 1_655 S
C333 C332 1.377 . S
C333 C339 1.390 . S
C334 H325 0.930 . S
C334 C332 1.384 1_455 S
C334 C335 1.372 . S
C335 C334 1.372 . S
C335 C336 1.400 . S
C335 C340 1.490 . S
C336 H326 0.930 . S
C336 C335 1.400 . S
C336 C339 1.386 1_455 S
H337 C353 0.930 . S
H338 C354 0.931 . S
C339 H327 0.929 . S
C339 C333 1.390 . S
C339 C336 1.386 1_655 S
C340 C335 1.490 . S
C340 C342 1.395 . S
C340 C343 1.403 . S
H341 C347 0.930 . S
C342 H328 0.930 . S
C342 C340 1.395 . S
C342 C345 1.403 . S
C343 C340 1.403 . S
C343 C344 1.524 . S
C343 C347 1.400 . S
C344 H329 0.960 . S
C344 H330 0.960 . S
C344 H331 0.960 . S
C344 C343 1.524 . S
C345 C342 1.403 . S
C345 C346 1.392 . S
C345 C349 1.495 . S
C346 C345 1.392 . S
C346 C347 1.385 . S
C346 C348 1.478 . S
C347 H341 0.930 . S
C347 C343 1.400 . S
C347 C346 1.385 . S
C348 C346 1.478 . S
C348 C350 1.381 . S
C348 C354 1.383 . S
C349 C345 1.495 . S
C349 H355 0.959 . S
C349 H356 0.961 . S
C349 H357 0.960 . S
C350 C348 1.381 . S
C350 C351 1.394 . S
C350 H358 0.930 . S
C351 C350 1.394 . S
C351 C352 1.383 . S
C351 H359 0.929 . S
C352 C351 1.383 . S
C352 C353 1.377 . S
C353 H337 0.930 . S
C353 C352 1.377 . S
C353 C354 1.379 . S
C354 H338 0.931 . S
C354 C348 1.383 . S
C354 C353 1.379 . S
H355 C349 0.959 . S
H356 C349 0.961 . S
H357 C349 0.960 . S
H358 C350 0.930 . S
H359 C351 0.929 . S
H360 C368 0.929 . S
H361 C370 0.930 . S
H362 C372 0.930 . S
H363 C375 0.929 . S
H364 C378 0.930 . S
H365 C380 0.960 . S
H366 C380 0.960 . S
H367 C380 0.960 . S
C368 H360 0.929 . S
C368 C369 1.377 . S
C368 C370 1.384 . S
C369 C368 1.377 . S
C369 C375 1.390 1_554 S
C370 H361 0.930 . S
C370 C368 1.384 . S
C370 C371 1.372 . S
C371 C370 1.372 . S
C371 C372 1.400 1_554 S
C371 C376 1.490 . S
C372 H362 0.930 . S
C372 C371 1.400 1_556 S
C372 C375 1.386 . S
H373 C389 0.930 . S
H374 C390 0.931 . S
C375 H363 0.929 . S
C375 C369 1.390 1_556 S
C375 C372 1.386 . S
C376 C371 1.490 . S
C376 C378 1.395 1_554 S
C376 C379 1.403 . S
H377 C383 0.930 . S
C378 H364 0.930 . S
C378 C376 1.395 1_556 S
C378 C381 1.403 . S
C379 C376 1.403 . S
C379 C380 1.524 . S
C379 C383 1.400 . S
C380 H365 0.960 . S
C380 H366 0.960 . S
C380 H367 0.960 . S
C380 C379 1.524 . S
C381 C378 1.403 . S
C381 C382 1.410 . S
C381 C385 1.495 . S
C382 C381 1.410 . S
C382 C383 1.367 1_556 S
C382 C384 1.479 . S
C383 H377 0.930 . S
C383 C379 1.400 . S
C383 C382 1.367 1_554 S
C384 C382 1.479 . S
C384 C386 1.381 1_556 S
C384 C390 1.383 . S
C385 C381 1.495 . S
C385 H391 0.959 . S
C385 H392 0.961 . S
C385 H393 0.960 . S
C386 C384 1.381 1_554 S
C386 C387 1.394 . S
C386 H394 0.930 . S
C387 C386 1.394 . S
C387 C388 1.385 . S
C387 H395 0.929 . S
C388 C387 1.385 . S
C388 C389 1.375 1_554 S
C389 H373 0.930 . S
C389 C388 1.375 1_556 S
C389 C390 1.379 . S
C390 H374 0.931 . S
C390 C384 1.383 . S
C390 C389 1.379 . S
H391 C385 0.959 . S
H392 C385 0.961 . S
H393 C385 0.960 . S
H394 C386 0.930 . S
H395 C387 0.929 . S
H396 C404 0.929 . S
H397 C406 0.930 . S
H398 C408 0.930 . S
H399 C411 0.929 . S
H400 C414 0.930 . S
H401 C416 0.960 . S
H402 C416 0.960 . S
H403 C416 0.960 . S
C404 H396 0.929 . S
C404 C405 1.377 . S
C404 C406 1.384 . S
C405 C404 1.377 . S
C405 C411 1.390 . S
C406 H397 0.930 . S
C406 C404 1.384 . S
C406 C407 1.372 . S
C407 C406 1.372 . S
C407 C408 1.400 . S
C407 C412 1.490 . S
C408 H398 0.930 . S
C408 C407 1.400 . S
C408 C411 1.386 . S
H409 C425 0.930 . S
H410 C426 0.931 . S
C411 H399 0.929 . S
C411 C405 1.390 . S
C411 C408 1.386 . S
C412 C407 1.490 . S
C412 C414 1.395 . S
C412 C415 1.403 . S
H413 C419 0.930 . S
C414 H400 0.930 . S
C414 C412 1.395 . S
C414 C417 1.403 . S
C415 C412 1.403 . S
C415 C416 1.524 . S
C415 C419 1.400 . S
C416 H401 0.960 . S
C416 H402 0.960 . S
C416 H403 0.960 . S
C416 C415 1.524 . S
C417 C414 1.403 . S
C417 C418 1.392 . S
C417 C421 1.495 . S
C418 C417 1.392 . S
C418 C419 1.385 . S
C418 C420 1.478 . S
C419 H413 0.930 . S
C419 C415 1.400 . S
C419 C418 1.385 . S
C420 C418 1.478 . S
C420 C422 1.381 . S
C420 C426 1.383 . S
C421 C417 1.495 . S
C421 H427 0.959 . S
C421 H428 0.961 . S
C421 H429 0.960 . S
C422 C420 1.381 . S
C422 C423 1.394 . S
C422 H430 0.930 . S
C423 C422 1.394 . S
C423 C424 1.383 . S
C423 H431 0.929 . S
C424 C423 1.383 . S
C424 C425 1.377 . S
C425 H409 0.930 . S
C425 C424 1.377 . S
C425 C426 1.379 . S
C426 H410 0.931 . S
C426 C420 1.383 . S
C426 C425 1.379 . S
H427 C421 0.959 . S
H428 C421 0.961 . S
H429 C421 0.960 . S
H430 C422 0.930 . S
H431 C423 0.929 . S
H432 C440 0.929 . S
H433 C442 0.930 . S
H434 C444 0.930 . S
H435 C447 0.929 . S
H436 C450 0.931 . S
H437 C452 0.960 . S
H438 C452 0.960 . S
H439 C452 0.960 . S
C440 H432 0.929 . S
C440 C441 1.377 1_556 S
C440 C442 1.384 . S
C441 C440 1.377 1_554 S
C441 C447 1.390 . S
C442 H433 0.930 . S
C442 C440 1.384 . S
C442 C443 1.370 . S
C443 C442 1.370 . S
C443 C444 1.401 1_556 S
C443 C448 1.490 . S
C444 H434 0.930 . S
C444 C443 1.401 1_554 S
C444 C447 1.386 . S
H445 C461 0.930 . S
H446 C462 0.931 . S
C447 H435 0.929 . S
C447 C441 1.390 . S
C447 C444 1.386 . S
C448 C443 1.490 . S
C448 C450 1.405 1_545 S
C448 C451 1.393 1_456 S
H449 C455 0.930 . S
C450 H436 0.931 . S
C450 C448 1.405 1_565 S
C450 C453 1.403 . S
C451 C448 1.393 1_654 S
C451 C452 1.524 . S
C451 C455 1.400 1_545 S
C452 H437 0.960 . S
C452 H438 0.960 . S
C452 H439 0.960 . S
C452 C451 1.524 . S
C453 C450 1.403 . S
C453 C454 1.392 1_455 S
C453 C457 1.495 . S
C454 C453 1.392 1_655 S
C454 C455 1.385 1_556 S
C454 C456 1.478 . S
C455 H449 0.930 . S
C455 C451 1.400 1_565 S
C455 C454 1.385 1_554 S
C456 C454 1.478 . S
C456 C458 1.381 . S
C456 C462 1.383 1_556 S
C457 C453 1.495 . S
C457 H463 0.959 . S
C457 H464 0.961 . S
C457 H465 0.960 . S
C458 C456 1.381 . S
C458 C459 1.394 . S
C458 H466 0.930 . S
C459 C458 1.394 . S
C459 C460 1.363 1_556 S
C459 H467 0.929 . S
C460 C459 1.363 1_554 S
C460 C461 1.396 . S
C461 H445 0.930 . S
C461 C460 1.396 . S
C461 C462 1.379 . S
C462 H446 0.931 . S
C462 C456 1.383 1_554 S
C462 C461 1.379 . S
H463 C457 0.959 . S
H464 C457 0.961 . S
H465 C457 0.960 . S
H466 C458 0.930 . S
H467 C459 0.929 . S
H468 C476 0.929 . S
H469 C478 0.930 . S
H470 C480 0.930 . S
H471 C483 0.929 . S
H472 C486 0.930 . S
H473 C488 0.960 . S
H474 C488 0.960 . S
H475 C488 0.960 . S
C476 H468 0.929 . S
C476 C477 1.377 . S
C476 C478 1.384 . S
C477 C476 1.377 . S
C477 C483 1.390 . S
C478 H469 0.930 . S
C478 C476 1.384 . S
C478 C479 1.372 . S
C479 C478 1.372 . S
C479 C480 1.400 . S
C479 C484 1.490 . S
C480 H470 0.930 . S
C480 C479 1.400 . S
C480 C483 1.386 . S
H481 C497 0.930 . S
H482 C498 0.931 . S
C483 H471 0.929 . S
C483 C477 1.390 . S
C483 C480 1.386 . S
C484 C479 1.490 . S
C484 C486 1.395 1_545 S
C484 C487 1.403 1_655 S
H485 C491 0.930 . S
C486 H472 0.930 . S
C486 C484 1.395 1_565 S
C486 C489 1.403 . S
C487 C484 1.403 1_455 S
C487 C488 1.524 . S
C487 C491 1.400 1_545 S
C488 H473 0.960 . S
C488 H474 0.960 . S
C488 H475 0.960 . S
C488 C487 1.524 . S
C489 C486 1.403 . S
C489 C490 1.392 1_655 S
C489 C493 1.495 . S
C490 C489 1.392 1_455 S
C490 C491 1.385 . S
C490 C492 1.478 . S
C491 H485 0.930 . S
C491 C487 1.400 1_565 S
C491 C490 1.385 . S
C492 C490 1.478 . S
C492 C494 1.381 . S
C492 C498 1.383 . S
C493 C489 1.495 . S
C493 H499 0.959 . S
C493 H500 0.961 . S
C493 H501 0.960 . S
C494 C492 1.381 . S
C494 C495 1.394 . S
C494 H502 0.930 . S
C495 C494 1.394 . S
C495 C496 1.383 . S
C495 H503 0.929 . S
C496 C495 1.383 . S
C496 C497 1.377 . S
C497 H481 0.930 . S
C497 C496 1.377 . S
C497 C498 1.379 . S
C498 H482 0.931 . S
C498 C492 1.383 . S
C498 C497 1.379 . S
H499 C493 0.959 . S
H500 C493 0.961 . S
H501 C493 0.960 . S
H502 C494 0.930 . S
H503 C495 0.929 . S
H504 C512 0.929 . S
H505 C514 0.930 . S
H506 C516 0.930 . S
H507 C519 0.929 . S
H508 C522 0.930 . S
H509 C524 0.960 . S
H510 C524 0.960 . S
H511 C524 0.960 . S
C512 H504 0.929 . S
C512 C513 1.377 . S
C512 C514 1.384 . S
C513 C512 1.377 . S
C513 C519 1.390 . S
C514 H505 0.930 . S
C514 C512 1.384 . S
C514 C515 1.372 . S
C515 C514 1.372 . S
C515 C516 1.400 . S
C515 C520 1.490 . S
C516 H506 0.930 . S
C516 C515 1.400 . S
C516 C519 1.386 . S
H517 C533 0.930 . S
H518 C534 0.931 . S
C519 H507 0.929 . S
C519 C513 1.390 . S
C519 C516 1.386 . S
C520 C515 1.490 . S
C520 C522 1.395 . S
C520 C523 1.403 . S
H521 C527 0.930 . S
C522 H508 0.930 . S
C522 C520 1.395 . S
C522 C525 1.403 . S
C523 C520 1.403 . S
C523 C524 1.524 . S
C523 C527 1.400 . S
C524 H509 0.960 . S
C524 H510 0.960 . S
C524 H511 0.960 . S
C524 C523 1.524 . S
C525 C522 1.403 . S
C525 C526 1.392 . S
C525 C529 1.495 . S
C526 C525 1.392 . S
C526 C527 1.385 . S
C526 C528 1.478 . S
C527 H521 0.930 . S
C527 C523 1.400 . S
C527 C526 1.385 . S
C528 C526 1.478 . S
C528 C530 1.381 . S
C528 C534 1.383 . S
C529 C525 1.495 . S
C529 H535 0.959 . S
C529 H536 0.961 . S
C529 H537 0.960 . S
C530 C528 1.381 . S
C530 C531 1.394 . S
C530 H538 0.930 . S
C531 C530 1.394 . S
C531 C532 1.383 . S
C531 H539 0.929 . S
C532 C531 1.383 . S
C532 C533 1.377 . S
C533 H517 0.930 . S
C533 C532 1.377 . S
C533 C534 1.379 . S
C534 H518 0.931 . S
C534 C528 1.383 . S
C534 C533 1.379 . S
H535 C529 0.959 . S
H536 C529 0.961 . S
H537 C529 0.960 . S
H538 C530 0.930 . S
H539 C531 0.929 . S
H540 C548 0.929 . S
H541 C550 0.930 . S
H542 C552 0.930 . S
H543 C555 0.929 . S
H544 C558 0.930 . S
H545 C560 0.960 . S
H546 C560 0.960 . S
H547 C560 0.960 . S
C548 H540 0.929 . S
C548 C549 1.377 . S
C548 C550 1.384 . S
C549 C548 1.377 . S
C549 C555 1.390 . S
C550 H541 0.930 . S
C550 C548 1.384 . S
C550 C551 1.372 . S
C551 C550 1.372 . S
C551 C552 1.400 . S
C551 C556 1.490 . S
C552 H542 0.930 . S
C552 C551 1.400 . S
C552 C555 1.386 . S
H553 C569 0.930 . S
H554 C570 0.931 . S
C555 H543 0.929 . S
C555 C549 1.390 . S
C555 C552 1.386 . S
C556 C551 1.490 . S
C556 C558 1.395 . S
C556 C559 1.403 . S
H557 C563 0.930 . S
C558 H544 0.930 . S
C558 C556 1.395 . S
C558 C561 1.403 . S
C559 C556 1.403 . S
C559 C560 1.524 . S
C559 C563 1.400 . S
C560 H545 0.960 . S
C560 H546 0.960 . S
C560 H547 0.960 . S
C560 C559 1.524 . S
C561 C558 1.403 . S
C561 C562 1.392 . S
C561 C565 1.495 . S
C562 C561 1.392 . S
C562 C563 1.385 . S
C562 C564 1.478 . S
C563 H557 0.930 . S
C563 C559 1.400 . S
C563 C562 1.385 . S
C564 C562 1.478 . S
C564 C566 1.381 . S
C564 C570 1.383 . S
C565 C561 1.495 . S
C565 H571 0.959 . S
C565 H572 0.961 . S
C565 H573 0.960 . S
C566 C564 1.381 . S
C566 C567 1.394 . S
C566 H574 0.930 . S
C567 C566 1.394 . S
C567 C568 1.383 . S
C567 H575 0.929 . S
C568 C567 1.383 . S
C568 C569 1.377 . S
C569 H553 0.930 . S
C569 C568 1.377 . S
C569 C570 1.379 . S
C570 H554 0.931 . S
C570 C564 1.383 . S
C570 C569 1.379 . S
H571 C565 0.959 . S
H572 C565 0.961 . S
H573 C565 0.960 . S
H574 C566 0.930 . S
H575 C567 0.929 . S
H576 C584 0.929 . S
H577 C586 0.930 . S
H578 C588 0.930 . S
H579 C591 0.929 . S
H580 C594 0.930 . S
H581 C596 0.960 . S
H582 C596 0.960 . S
H583 C596 0.960 . S
C584 H576 0.929 . S
C584 C585 1.377 . S
C584 C586 1.384 . S
C585 C584 1.377 . S
C585 C591 1.390 . S
C586 H577 0.930 . S
C586 C584 1.384 . S
C586 C587 1.372 . S
C587 C586 1.372 . S
C587 C588 1.400 . S
C587 C592 1.490 . S
C588 H578 0.930 . S
C588 C587 1.400 . S
C588 C591 1.386 . S
H589 C605 0.930 . S
H590 C606 0.931 . S
C591 H579 0.929 . S
C591 C585 1.390 . S
C591 C588 1.386 . S
C592 C587 1.490 . S
C592 C594 1.395 . S
C592 C595 1.403 . S
H593 C599 0.930 . S
C594 H580 0.930 . S
C594 C592 1.395 . S
C594 C597 1.403 . S
C595 C592 1.403 . S
C595 C596 1.524 . S
C595 C599 1.400 . S
C596 H581 0.960 . S
C596 H582 0.960 . S
C596 H583 0.960 . S
C596 C595 1.524 . S
C597 C594 1.403 . S
C597 C598 1.392 . S
C597 C601 1.495 . S
C598 C597 1.392 . S
C598 C599 1.385 . S
C598 C600 1.478 . S
C599 H593 0.930 . S
C599 C595 1.400 . S
C599 C598 1.385 . S
C600 C598 1.478 . S
C600 C602 1.381 . S
C600 C606 1.383 . S
C601 C597 1.495 . S
C601 H607 0.959 . S
C601 H608 0.961 . S
C601 H609 0.960 . S
C602 C600 1.381 . S
C602 C603 1.394 . S
C602 H610 0.930 . S
C603 C602 1.394 . S
C603 C604 1.383 . S
C603 H611 0.929 . S
C604 C603 1.383 . S
C604 C605 1.377 . S
C605 H589 0.930 . S
C605 C604 1.377 . S
C605 C606 1.379 . S
C606 H590 0.931 . S
C606 C600 1.383 . S
C606 C605 1.379 . S
H607 C601 0.959 . S
H608 C601 0.961 . S
H609 C601 0.960 . S
H610 C602 0.930 . S
H611 C603 0.929 . S
H612 C620 0.929 . S
H613 C622 0.930 . S
H614 C624 0.930 . S
H615 C627 0.929 . S
H616 C630 0.930 . S
H617 C632 0.960 . S
H618 C632 0.960 . S
H619 C632 0.960 . S
C620 H612 0.929 . S
C620 C621 1.377 . S
C620 C622 1.384 . S
C621 C620 1.377 . S
C621 C627 1.390 . S
C622 H613 0.930 . S
C622 C620 1.384 . S
C622 C623 1.372 . S
C623 C622 1.372 . S
C623 C624 1.400 . S
C623 C628 1.490 . S
C624 H614 0.930 . S
C624 C623 1.400 . S
C624 C627 1.386 . S
H625 C641 0.930 . S
H626 C642 0.931 . S
C627 H615 0.929 . S
C627 C621 1.390 . S
C627 C624 1.386 . S
C628 C623 1.490 . S
C628 C630 1.395 . S
C628 C631 1.403 . S
H629 C635 0.930 . S
C630 H616 0.930 . S
C630 C628 1.395 . S
C630 C633 1.403 . S
C631 C628 1.403 . S
C631 C632 1.524 . S
C631 C635 1.400 . S
C632 H617 0.960 . S
C632 H618 0.960 . S
C632 H619 0.960 . S
C632 C631 1.524 . S
C633 C630 1.403 . S
C633 C634 1.392 . S
C633 C637 1.495 . S
C634 C633 1.392 . S
C634 C635 1.385 . S
C634 C636 1.478 . S
C635 H629 0.930 . S
C635 C631 1.400 . S
C635 C634 1.385 . S
C636 C634 1.478 . S
C636 C638 1.381 . S
C636 C642 1.383 . S
C637 C633 1.495 . S
C637 H643 0.959 . S
C637 H644 0.961 . S
C637 H645 0.960 . S
C638 C636 1.381 . S
C638 C639 1.394 . S
C638 H646 0.930 . S
C639 C638 1.394 . S
C639 C640 1.383 . S
C639 H647 0.929 . S
C640 C639 1.383 . S
C640 C641 1.377 . S
C641 H625 0.930 . S
C641 C640 1.377 . S
C641 C642 1.379 . S
C642 H626 0.931 . S
C642 C636 1.383 . S
C642 C641 1.379 . S
H643 C637 0.959 . S
H644 C637 0.961 . S
H645 C637 0.960 . S
H646 C638 0.930 . S
H647 C639 0.929 . S
H648 C656 0.929 . S
H649 C658 0.930 1_655 S
H650 C660 0.930 . S
H651 C663 0.929 . S
H652 C666 0.930 . S
H653 C668 0.960 . S
H654 C668 0.960 . S
H655 C668 0.960 . S
C656 H648 0.929 . S
C656 C657 1.377 . S
C656 C658 1.384 . S
C657 C656 1.377 . S
C657 C663 1.390 . S
C658 H649 0.930 1_455 S
C658 C656 1.384 . S
C658 C659 1.372 . S
C659 C658 1.372 . S
C659 C660 1.400 . S
C659 C664 1.490 . S
C660 H650 0.930 . S
C660 C659 1.400 . S
C660 C663 1.386 . S
H661 C677 0.930 . S
H662 C678 0.931 1_455 S
C663 H651 0.929 . S
C663 C657 1.390 . S
C663 C660 1.386 . S
C664 C659 1.490 . S
C664 C666 1.395 1_455 S
C664 C667 1.403 . S
H665 C671 0.930 . S
C666 H652 0.930 . S
C666 C664 1.395 1_655 S
C666 C669 1.403 . S
C667 C664 1.403 . S
C667 C668 1.524 . S
C667 C671 1.400 1_455 S
C668 H653 0.960 . S
C668 H654 0.960 . S
C668 H655 0.960 . S
C668 C667 1.524 . S
C669 C666 1.403 . S
C669 C670 1.392 . S
C669 C673 1.495 . S
C670 C669 1.392 . S
C670 C671 1.385 . S
C670 C672 1.478 . S
C671 H665 0.930 . S
C671 C667 1.400 1_655 S
C671 C670 1.385 . S
C672 C670 1.478 . S
C672 C674 1.381 . S
C672 C678 1.383 . S
C673 C669 1.495 . S
C673 H679 0.959 . S
C673 H680 0.961 . S
C673 H681 0.960 . S
C674 C672 1.381 . S
C674 C675 1.394 . S
C674 H682 0.930 . S
C675 C674 1.394 . S
C675 C676 1.383 . S
C675 H683 0.929 . S
C676 C675 1.383 . S
C676 C677 1.377 . S
C677 H661 0.930 . S
C677 C676 1.377 . S
C677 C678 1.379 . S
C678 H662 0.931 1_655 S
C678 C672 1.383 . S
C678 C677 1.379 . S
H679 C673 0.959 . S
H680 C673 0.961 . S
H681 C673 0.960 . S
H682 C674 0.930 . S
H683 C675 0.929 . S
H684 C692 0.929 . S
H685 C694 0.930 . S
H686 C696 0.930 . S
H687 C699 0.929 . S
H688 C702 0.930 . S
H689 C704 0.960 . S
H690 C704 0.960 . S
H691 C704 0.960 . S
C692 H684 0.929 . S
C692 C693 1.377 . S
C692 C694 1.384 . S
C693 C692 1.377 . S
C693 C699 1.390 . S
C694 H685 0.930 . S
C694 C692 1.384 . S
C694 C695 1.372 . S
C695 C694 1.372 . S
C695 C696 1.400 . S
C695 C700 1.490 . S
C696 H686 0.930 . S
C696 C695 1.400 . S
C696 C699 1.386 . S
H697 C713 0.930 . S
H698 C714 0.931 . S
C699 H687 0.929 . S
C699 C693 1.390 . S
C699 C696 1.386 . S
C700 C695 1.490 . S
C700 C702 1.395 1_655 S
C700 C703 1.403 . S
H701 C707 0.930 . S
C702 H688 0.930 . S
C702 C700 1.395 1_455 S
C702 C705 1.403 . S
C703 C700 1.403 . S
C703 C704 1.524 . S
C703 C707 1.400 . S
C704 H689 0.960 . S
C704 H690 0.960 . S
C704 H691 0.960 . S
C704 C703 1.524 . S
C705 C702 1.403 . S
C705 C706 1.392 . S
C705 C709 1.495 . S
C706 C705 1.392 . S
C706 C707 1.385 1_455 S
C706 C708 1.478 . S
C707 H701 0.930 . S
C707 C703 1.400 . S
C707 C706 1.385 1_655 S
C708 C706 1.478 . S
C708 C710 1.381 . S
C708 C714 1.383 . S
C709 C705 1.495 . S
C709 H715 0.959 . S
C709 H716 0.961 . S
C709 H717 0.960 . S
C710 C708 1.381 . S
C710 C711 1.394 . S
C710 H718 0.930 . S
C711 C710 1.394 . S
C711 C712 1.383 . S
C711 H719 0.929 . S
C712 C711 1.383 . S
C712 C713 1.377 . S
C713 H697 0.930 . S
C713 C712 1.377 . S
C713 C714 1.379 . S
C714 H698 0.931 . S
C714 C708 1.383 . S
C714 C713 1.379 . S
H715 C709 0.959 . S
H716 C709 0.961 . S
H717 C709 0.960 . S
H718 C710 0.930 . S
H719 C711 0.929 . S
H720 C728 0.929 . S
H721 C730 0.930 . S
H722 C732 0.930 . S
H723 C735 0.929 . S
H724 C738 0.930 . S
H725 C740 0.960 . S
H726 C740 0.960 . S
H727 C740 0.960 . S
C728 H720 0.929 . S
C728 C729 1.377 . S
C728 C730 1.384 . S
C729 C728 1.377 . S
C729 C735 1.390 . S
C730 H721 0.930 . S
C730 C728 1.384 . S
C730 C731 1.372 . S
C731 C730 1.372 . S
C731 C732 1.400 . S
C731 C736 1.490 . S
C732 H722 0.930 . S
C732 C731 1.400 . S
C732 C735 1.386 . S
H733 C749 0.930 . S
H734 C750 0.931 . S
C735 H723 0.929 . S
C735 C729 1.390 . S
C735 C732 1.386 . S
C736 C731 1.490 . S
C736 C738 1.395 1_455 S
C736 C739 1.403 . S
H737 C743 0.930 . S
C738 H724 0.930 . S
C738 C736 1.395 1_655 S
C738 C741 1.403 . S
C739 C736 1.403 . S
C739 C740 1.524 . S
C739 C743 1.400 . S
C740 H725 0.960 . S
C740 H726 0.960 . S
C740 H727 0.960 . S
C740 C739 1.524 . S
C741 C738 1.403 . S
C741 C742 1.392 . S
C741 C745 1.495 . S
C742 C741 1.392 . S
C742 C743 1.385 1_655 S
C742 C744 1.478 . S
C743 H737 0.930 . S
C743 C739 1.400 . S
C743 C742 1.385 1_455 S
C744 C742 1.478 . S
C744 C746 1.381 . S
C744 C750 1.383 . S
C745 C741 1.495 . S
C745 H751 0.959 . S
C745 H752 0.961 . S
C745 H753 0.960 . S
C746 C744 1.381 . S
C746 C747 1.394 . S
C746 H754 0.930 . S
C747 C746 1.394 . S
C747 C748 1.383 . S
C747 H755 0.929 . S
C748 C747 1.383 . S
C748 C749 1.377 . S
C749 H733 0.930 . S
C749 C748 1.377 . S
C749 C750 1.379 . S
C750 H734 0.931 . S
C750 C744 1.383 . S
C750 C749 1.379 . S
H751 C745 0.959 . S
H752 C745 0.961 . S
H753 C745 0.960 . S
H754 C746 0.930 . S
H755 C747 0.929 . S
H756 C764 0.929 . S
H757 C766 0.930 . S
H758 C768 0.930 . S
H759 C771 0.929 . S
H760 C774 0.930 . S
H761 C776 0.960 . S
H762 C776 0.960 . S
H763 C776 0.960 . S
C764 H756 0.929 . S
C764 C765 1.377 . S
C764 C766 1.384 . S
C765 C764 1.377 . S
C765 C771 1.390 . S
C766 H757 0.930 . S
C766 C764 1.384 . S
C766 C767 1.372 . S
C767 C766 1.372 . S
C767 C768 1.400 . S
C767 C772 1.490 . S
C768 H758 0.930 . S
C768 C767 1.400 . S
C768 C771 1.386 . S
H769 C785 0.930 . S
H770 C786 0.931 . S
C771 H759 0.929 . S
C771 C765 1.390 . S
C771 C768 1.386 . S
C772 C767 1.490 . S
C772 C774 1.395 . S
C772 C775 1.403 1_455 S
H773 C779 0.930 . S
C774 H760 0.930 . S
C774 C772 1.395 . S
C774 C777 1.403 . S
C775 C772 1.403 1_655 S
C775 C776 1.524 . S
C775 C779 1.400 . S
C776 H761 0.960 . S
C776 H762 0.960 . S
C776 H763 0.960 . S
C776 C775 1.524 . S
C777 C774 1.403 . S
C777 C778 1.392 1_455 S
C777 C781 1.495 . S
C778 C777 1.392 1_655 S
C778 C779 1.385 . S
C778 C780 1.478 . S
C779 H773 0.930 . S
C779 C775 1.400 . S
C779 C778 1.385 . S
C780 C778 1.478 . S
C780 C782 1.381 . S
C780 C786 1.383 . S
C781 C777 1.495 . S
C781 H787 0.959 . S
C781 H788 0.961 . S
C781 H789 0.960 . S
C782 C780 1.381 . S
C782 C783 1.394 . S
C782 H790 0.930 . S
C783 C782 1.394 . S
C783 C784 1.383 . S
C783 H791 0.929 . S
C784 C783 1.383 . S
C784 C785 1.377 . S
C785 H769 0.930 . S
C785 C784 1.377 . S
C785 C786 1.379 . S
C786 H770 0.931 . S
C786 C780 1.383 . S
C786 C785 1.379 . S
H787 C781 0.959 . S
H788 C781 0.961 . S
H789 C781 0.960 . S
H790 C782 0.930 . S
H791 C783 0.929 . S
C225 C35 0.787 . S
C244 C28 0.824 . S
C261 C89 0.781 . S
C280 C82 0.773 . S
C297 C136 0.788 . S
C316 C143 0.771 . S
C333 C190 0.795 . S
C352 C197 0.827 . S
C369 C64 1.662 . S
C388 C27 1.661 . S
C405 C189 1.661 . S
C424 C118 1.655 . S
C441 C10 1.661 . S
C460 C81 1.656 . S
C477 C172 1.661 . S
C496 C135 1.655 . S
C513 C184 1.819 . S
C532 C22 1.816 . S
C549 C59 1.812 . S
C568 C113 1.814 . S
C585 C140 1.800 . S
C604 C86 1.779 . S
C621 C13 1.801 . S
C640 C175 1.813 . S
C657 C130 1.812 . S
C676 C76 1.817 . S
C693 C167 1.817 . S
C712 C5 1.830 . S
C729 C32 1.803 . S
C748 C194 1.818 . S
C765 C121 1.802 . S
C784 C67 1.780 . S
