# Generated by pormake.
# Topology une, (4)-cn, num edge types: 1
# Building blocks:
#     Node 0, Type 0, BuildingBlock: CEKHIL_clean_sbu_0, # of connection points: 4
#     Node 1, Type 0, BuildingBlock: CEKHIL_clean_sbu_0, # of connection points: 4
#     Node 2, Type 0, BuildingBlock: CEKHIL_clean_sbu_0, # of connection points: 4
#     Node 3, Type 0, BuildingBlock: CEKHIL_clean_sbu_0, # of connection points: 4
#     Node 4, Type 0, BuildingBlock: CEKHIL_clean_sbu_0, # of connection points: 4
#     Node 5, Type 0, BuildingBlock: CEKHIL_clean_sbu_0, # of connection points: 4
#     Node 6, Type 0, BuildingBlock: CEKHIL_clean_sbu_0, # of connection points: 4
#     Node 7, Type 0, BuildingBlock: CEKHIL_clean_sbu_0, # of connection points: 4
#     Node 8, Type 0, BuildingBlock: CEKHIL_clean_sbu_0, # of connection points: 4
#     Node 9, Type 0, BuildingBlock: CEKHIL_clean_sbu_0, # of connection points: 4
#     Node 10, Type 0, BuildingBlock: CEKHIL_clean_sbu_0, # of connection points: 4
#     Node 11, Type 0, BuildingBlock: CEKHIL_clean_sbu_0, # of connection points: 4
#     Node 12, Type 0, BuildingBlock: CEKHIL_clean_sbu_0, # of connection points: 4
#     Node 13, Type 0, BuildingBlock: CEKHIL_clean_sbu_0, # of connection points: 4
#     Node 14, Type 0, BuildingBlock: CEKHIL_clean_sbu_0, # of connection points: 4
#     Node 15, Type 0, BuildingBlock: CEKHIL_clean_sbu_0, # of connection points: 4
#     Node 16, Type 0, BuildingBlock: CEKHIL_clean_sbu_0, # of connection points: 4
#     Node 17, Type 0, BuildingBlock: CEKHIL_clean_sbu_0, # of connection points: 4
#     Edge 18, Type (0, 0), BuildingBlock: EZIPEK_clean_linker_0, # of connection points: 2
#     Edge 19, Type (0, 0), BuildingBlock: EZIPEK_clean_linker_0, # of connection points: 2
#     Edge 20, Type (0, 0), BuildingBlock: EZIPEK_clean_linker_0, # of connection points: 2
#     Edge 21, Type (0, 0), BuildingBlock: EZIPEK_clean_linker_0, # of connection points: 2
#     Edge 22, Type (0, 0), BuildingBlock: EZIPEK_clean_linker_0, # of connection points: 2
#     Edge 23, Type (0, 0), BuildingBlock: EZIPEK_clean_linker_0, # of connection points: 2
#     Edge 24, Type (0, 0), BuildingBlock: EZIPEK_clean_linker_0, # of connection points: 2
#     Edge 25, Type (0, 0), BuildingBlock: EZIPEK_clean_linker_0, # of connection points: 2
#     Edge 26, Type (0, 0), BuildingBlock: EZIPEK_clean_linker_0, # of connection points: 2
#     Edge 27, Type (0, 0), BuildingBlock: EZIPEK_clean_linker_0, # of connection points: 2
#     Edge 28, Type (0, 0), BuildingBlock: EZIPEK_clean_linker_0, # of connection points: 2
#     Edge 29, Type (0, 0), BuildingBlock: EZIPEK_clean_linker_0, # of connection points: 2
#     Edge 30, Type (0, 0), BuildingBlock: EZIPEK_clean_linker_0, # of connection points: 2
#     Edge 31, Type (0, 0), BuildingBlock: EZIPEK_clean_linker_0, # of connection points: 2
#     Edge 32, Type (0, 0), BuildingBlock: EZIPEK_clean_linker_0, # of connection points: 2
#     Edge 33, Type (0, 0), BuildingBlock: EZIPEK_clean_linker_0, # of connection points: 2
#     Edge 34, Type (0, 0), BuildingBlock: EZIPEK_clean_linker_0, # of connection points: 2
#     Edge 35, Type (0, 0), BuildingBlock: EZIPEK_clean_linker_0, # of connection points: 2
#     Edge 36, Type (0, 0), BuildingBlock: EZIPEK_clean_linker_0, # of connection points: 2
#     Edge 37, Type (0, 0), BuildingBlock: EZIPEK_clean_linker_0, # of connection points: 2
#     Edge 38, Type (0, 0), BuildingBlock: EZIPEK_clean_linker_0, # of connection points: 2
#     Edge 39, Type (0, 0), BuildingBlock: EZIPEK_clean_linker_0, # of connection points: 2
#     Edge 40, Type (0, 0), BuildingBlock: EZIPEK_clean_linker_0, # of connection points: 2
#     Edge 41, Type (0, 0), BuildingBlock: EZIPEK_clean_linker_0, # of connection points: 2
#     Edge 42, Type (0, 0), BuildingBlock: EZIPEK_clean_linker_0, # of connection points: 2
#     Edge 43, Type (0, 0), BuildingBlock: EZIPEK_clean_linker_0, # of connection points: 2
#     Edge 44, Type (0, 0), BuildingBlock: EZIPEK_clean_linker_0, # of connection points: 2
#     Edge 45, Type (0, 0), BuildingBlock: EZIPEK_clean_linker_0, # of connection points: 2
#     Edge 46, Type (0, 0), BuildingBlock: EZIPEK_clean_linker_0, # of connection points: 2
#     Edge 47, Type (0, 0), BuildingBlock: EZIPEK_clean_linker_0, # of connection points: 2
#     Edge 48, Type (0, 0), BuildingBlock: EZIPEK_clean_linker_0, # of connection points: 2
#     Edge 49, Type (0, 0), BuildingBlock: EZIPEK_clean_linker_0, # of connection points: 2
#     Edge 50, Type (0, 0), BuildingBlock: EZIPEK_clean_linker_0, # of connection points: 2
#     Edge 51, Type (0, 0), BuildingBlock: EZIPEK_clean_linker_0, # of connection points: 2
#     Edge 52, Type (0, 0), BuildingBlock: EZIPEK_clean_linker_0, # of connection points: 2
#     Edge 53, Type (0, 0), BuildingBlock: EZIPEK_clean_linker_0, # of connection points: 2
# Relax obj value: 0.260
# Max RMSD: 0.175
# Mean RMSD: 0.165
data_MOF--net-une--node1-CEKHIL_clean_sbu_0--edge1-EZIPEK_clean_linker_0
_symmetry_space_group_name_H-M    P1
_symmetry_Int_Tables_number       1
_symmetry_cell_setting            triclinic
loop_
_symmetry_equiv_pos_as_xyz
'x, y, z'
_cell_length_a     27.891557
_cell_length_b     27.41898
_cell_length_c     37.59689
_cell_angle_alpha  90.01587
_cell_angle_beta   90.613382
_cell_angle_gamma 119.96532
loop_
_atom_site_label
_atom_site_type_symbol
_atom_site_fract_x
_atom_site_fract_y
_atom_site_fract_z
_atom_type_partial_charge
Co0 Co 0.38346 0.07449 0.09917 0.0
O1 O 0.42025 0.02991 0.107 0.0
O2 O 0.44381 0.09355 0.06599 0.0
C3 C 0.36984 0.10166 0.15448 0.0
O4 O 0.35811 0.12776 0.0817 0.0
Co5 Co 0.26043 0.02794 0.12157 0.0
O6 O 0.26955 0.09617 0.09708 0.0
C7 C 0.28487 0.9751 0.06333 0.0
C8 C 0.45031 0.05327 0.07893 0.0
C9 C 0.31452 0.13255 0.08275 0.0
O10 O 0.33435 0.01663 0.06343 0.0
O11 O 0.24911 0.96783 0.08675 0.0
O12 O 0.41906 0.12623 0.14043 0.0
O13 O 0.33568 0.05476 0.13881 0.0
Co14 Co 0.93211 0.32182 0.04857 0.0
O15 O 0.86892 0.29372 0.08134 0.0
O16 O 0.94268 0.28608 0.09066 0.0
C17 C 0.94834 0.40971 0.03006 0.0
O18 O 1.00333 0.34164 0.0236 0.0
Co19 Co 0.91696 0.33482 0.96728 0.0
O20 O 0.99619 0.35474 0.96495 0.0
C21 C 0.85247 0.22932 1.00396 0.0
C22 C 0.89266 0.27134 0.10017 0.0
C23 C 0.02359 0.35409 0.9922 0.0
O24 O 0.89385 0.24669 0.02515 0.0
O25 O 0.85003 0.26039 0.97948 0.0
O26 O 0.96508 0.40277 0.06133 0.0
O27 O 0.91489 0.36227 1.01488 0.0
Co28 Co 0.71075 0.59548 0.07915 0.0
O29 O 0.62995 0.5489 0.08615 0.0
O30 O 0.67173 0.54806 0.03774 0.0
C31 C 0.74877 0.58856 0.13336 0.0
O32 O 0.78885 0.63245 0.05982 0.0
Co33 Co 0.78968 0.70604 0.12244 0.0
O34 O 0.84867 0.69858 0.09825 0.0
C35 C 0.71077 0.70552 0.06989 0.0
C36 C 0.62475 0.53091 0.05337 0.0
C37 C 0.83824 0.66732 0.07085 0.0
O38 O 0.69874 0.65641 0.0585 0.0
O39 O 0.7426 0.73046 0.09653 0.0
O40 O 0.72992 0.54776 0.10986 0.0
O41 O 0.73631 0.62642 0.12517 0.0
Co42 Co 0.60598 0.91701 0.97061 0.0
O43 O 0.57064 0.85584 0.93469 0.0
O44 O 0.65495 0.92737 0.93134 0.0
C45 C 0.53768 0.93886 0.98632 0.0
O46 O 0.65966 0.98676 0.99755 0.0
Co47 Co 0.57406 0.9096 0.05081 0.0
O48 O 0.63309 0.99028 0.05329 0.0
C49 C 0.62517 0.84576 0.02426 0.0
C50 C 0.61866 0.87849 0.91886 0.0
C51 C 0.66571 0.01218 0.02722 0.0
O52 O 0.63529 0.87185 0.99459 0.0
O53 O 0.59709 0.85114 0.04907 0.0
O54 O 0.56491 0.95659 0.95658 0.0
O55 O 0.5473 0.90273 1.00194 0.0
Co56 Co 0.09072 0.70772 0.92916 0.0
O57 O 0.13563 0.72714 0.88574 0.0
O58 O 0.07615 0.7551 0.89714 0.0
C59 C 0.06183 0.61257 0.93834 0.0
O60 O 0.03771 0.69924 0.96827 0.0
Co61 Co 0.12752 0.6746 0.99979 0.0
O62 O 0.05703 0.66592 1.01803 0.0
C63 C 0.19019 0.78968 0.97349 0.0
C64 C 0.11577 0.75982 0.87698 0.0
C65 C 0.02767 0.6815 1.00047 0.0
O66 O 0.15018 0.77872 0.9519 0.0
O67 O 0.19184 0.75164 0.99227 0.0
O68 O 0.03736 0.62807 0.91468 0.0
O69 O 0.10658 0.6549 0.95039 0.0
Co70 Co 0.32897 0.37771 0.94701 0.0
O71 O 0.31518 0.40376 0.90115 0.0
O72 O 0.28108 0.31508 0.91565 0.0
C73 C 0.42365 0.43694 0.95908 0.0
O74 O 0.32969 0.33161 0.98818 0.0
Co75 Co 0.36183 0.44991 1.01696 0.0
O76 O 0.36486 0.38458 0.0377 0.0
C77 C 0.25015 0.40397 0.9874 0.0
C78 C 0.27997 0.3509 0.89366 0.0
C79 C 0.34566 0.33813 0.02075 0.0
O80 O 0.2602 0.37449 0.96549 0.0
O81 O 0.2865 0.44085 1.00847 0.0
O82 O 0.40594 0.39547 0.93613 0.0
O83 O 0.38424 0.44566 0.9687 0.0
Co84 Co 0.04341 0.40319 0.43236 0.0
O85 O 0.0785 0.35672 0.43878 0.0
O86 O 0.10166 0.42035 0.39785 0.0
C87 C 0.03403 0.4292 0.48994 0.0
O88 O 0.02045 0.45873 0.41573 0.0
Co89 Co 0.92394 0.36598 0.45941 0.0
O90 O 0.94604 0.4449 0.44675 0.0
C91 C 0.93953 0.30728 0.39939 0.0
C92 C 0.10774 0.3796 0.41035 0.0
C93 C 0.98579 0.47378 0.42566 0.0
O94 O 0.99047 0.34566 0.39774 0.0
O95 O 0.90677 0.30485 0.42378 0.0
O96 O 0.08158 0.45421 0.47372 0.0
O97 O 0.99825 0.38443 0.47324 0.0
Co98 Co 0.58815 0.65524 0.3856 0.0
O99 O 0.52525 0.63263 0.41813 0.0
O100 O 0.59733 0.62325 0.42991 0.0
C101 C 0.60497 0.74198 0.36298 0.0
O102 O 0.65966 0.6703 0.36261 0.0
Co103 Co 0.58004 0.66513 0.30296 0.0
O104 O 0.65992 0.68807 0.30405 0.0
C105 C 0.51267 0.55845 0.33946 0.0
C106 C 0.54794 0.61133 0.43897 0.0
C107 C 0.68344 0.68411 0.33228 0.0
O108 O 0.54747 0.57726 0.36543 0.0
O109 O 0.51543 0.58826 0.31256 0.0
O110 O 0.62235 0.7379 0.39472 0.0
O111 O 0.57257 0.6933 0.349 0.0
Co112 Co 0.37458 0.92691 0.41358 0.0
O113 O 0.29427 0.87965 0.42178 0.0
O114 O 0.33489 0.87727 0.37317 0.0
C115 C 0.4173 0.92444 0.46611 0.0
O116 O 0.45235 0.9643 0.39391 0.0
Co117 Co 0.45005 0.04092 0.45445 0.0
O118 O 0.50859 0.04537 0.42291 0.0
C119 C 0.36775 0.03332 0.4032 0.0
C120 C 0.28831 0.86009 0.38937 0.0
C121 C 0.50021 0.00782 0.39983 0.0
O122 O 0.3602 0.98578 0.39169 0.0
O123 O 0.39741 0.05921 0.43037 0.0
O124 O 0.39621 0.88131 0.44431 0.0
O125 O 0.40177 0.96032 0.45877 0.0
Co126 Co 0.26347 0.24315 0.30296 0.0
O127 O 0.22845 0.18174 0.26721 0.0
O128 O 0.31267 0.25347 0.26411 0.0
C129 C 0.19433 0.26409 0.3183 0.0
O130 O 0.31737 0.31341 0.3291 0.0
Co131 Co 0.23267 0.23795 0.38308 0.0
O132 O 0.29199 0.3187 0.38481 0.0
C133 C 0.28201 0.17232 0.35692 0.0
C134 C 0.27663 0.20462 0.25154 0.0
C135 C 0.32436 0.3395 0.35851 0.0
O136 O 0.29301 0.19864 0.32733 0.0
O137 O 0.25388 0.17807 0.38154 0.0
O138 O 0.22176 0.28202 0.28862 0.0
O139 O 0.20481 0.22888 0.33431 0.0
Co140 Co 0.74834 0.03357 0.25731 0.0
O141 O 0.79702 0.0549 0.21559 0.0
O142 O 0.73613 0.08188 0.22454 0.0
C143 C 0.71698 0.93781 0.26564 0.0
O144 O 0.69276 0.02472 0.29454 0.0
Co145 Co 0.77535 0.99258 0.32937 0.0
O146 O 0.7022 0.9819 0.34316 0.0
C147 C 0.83302 0.11288 0.31188 0.0
C148 C 0.7774 0.0874 0.20584 0.0
C149 C 0.67755 1.00275 0.32545 0.0
O150 O 0.80576 0.10334 0.28254 0.0
O151 O 0.82982 0.0745 0.33263 0.0
O152 O 0.69556 0.95495 0.24093 0.0
O153 O 0.76144 0.9789 0.27901 0.0
Co154 Co 0.99096 0.70708 0.28526 0.0
O155 O 0.97796 0.72965 0.23789 0.0
O156 O 0.94235 0.64217 0.25557 0.0
C157 C 0.08581 0.76585 0.2967 0.0
O158 O 0.99104 0.66424 0.32891 0.0
Co159 Co 0.02432 0.78424 0.35263 0.0
O160 O 0.02886 0.72205 0.37623 0.0
C161 C 0.90992 0.73106 0.3259 0.0
C162 C 0.94217 0.67645 0.2319 0.0
C163 C 0.00884 0.67408 0.36122 0.0
O164 O 0.92271 0.70699 0.3016 0.0
O165 O 0.94498 0.76515 0.34875 0.0
O166 O 0.06719 0.72214 0.2755 0.0
O167 O 0.0471 0.77654 0.30503 0.0
Co168 Co 0.70908 0.74161 0.76216 0.0
O169 O 0.74272 0.69332 0.76812 0.0
O170 O 0.76368 0.75511 0.72565 0.0
C171 C 0.70414 0.77054 0.8199 0.0
O172 O 0.68734 0.79803 0.74512 0.0
Co173 Co 0.59252 0.71156 0.79166 0.0
O174 O 0.61718 0.79047 0.77825 0.0
C175 C 0.60175 0.64605 0.73307 0.0
C176 C 0.76796 0.71317 0.73792 0.0
C177 C 0.65571 0.81643 0.7559 0.0
O178 O 0.65306 0.68238 0.73002 0.0
O179 O 0.57064 0.64829 0.75702 0.0
O180 O 0.75066 0.79405 0.80245 0.0
O181 O 0.66634 0.72611 0.804 0.0
Co182 Co 0.2574 0.98906 0.71764 0.0
O183 O 0.19701 0.96943 0.75175 0.0
O184 O 0.26707 0.95614 0.76123 0.0
C185 C 0.27696 0.07667 0.695 0.0
O186 O 0.32677 1.0012 0.69326 0.0
Co187 Co 0.24581 0.99793 0.63537 0.0
O188 O 0.32598 0.02159 0.6353 0.0
C189 C 0.17843 0.89194 0.67249 0.0
C190 C 0.21871 0.94593 0.77152 0.0
C191 C 0.34995 0.01624 0.66285 0.0
O192 O 0.2135 0.9109 0.69825 0.0
O193 O 0.18088 0.92137 0.64545 0.0
O194 O 0.29492 0.07189 0.72639 0.0
O195 O 0.24215 0.02828 0.68156 0.0
Co196 Co 0.04632 0.27209 0.74343 0.0
O197 O 0.96549 0.22786 0.75099 0.0
O198 O 1.00672 0.22474 0.70238 0.0
C199 C 0.08437 0.26509 0.79743 0.0
O200 O 0.12367 0.30609 0.72323 0.0
Co201 Co 0.13044 0.38249 0.7845 0.0
O202 O 0.1861 0.36767 0.76245 0.0
C203 C 0.04882 0.38317 0.73431 0.0
C204 C 0.96039 0.20991 0.71814 0.0
C205 C 0.17355 0.33634 0.73495 0.0
O206 O 0.03497 0.33351 0.72306 0.0
O207 O 0.08436 0.40866 0.75923 0.0
O208 O 0.06405 0.22368 0.77434 0.0
O209 O 0.0736 0.30407 0.78898 0.0
Co210 Co 0.92838 0.57858 0.63297 0.0
O211 O 0.89437 0.51556 0.59822 0.0
O212 O 0.97752 0.58753 0.59408 0.0
C213 C 0.86106 0.60189 0.64693 0.0
O214 O 0.98102 0.64967 0.65871 0.0
Co215 Co 0.89376 0.57218 0.71272 0.0
O216 O 0.95942 0.64961 0.7162 0.0
C217 C 0.94146 0.50567 0.68753 0.0
C218 C 0.94155 0.53869 0.58143 0.0
C219 C 0.99003 0.67292 0.68939 0.0
O220 O 0.95915 0.53662 0.65975 0.0
O221 O 0.90616 0.50653 0.70855 0.0
O222 O 0.88662 0.6165 0.61646 0.0
O223 O 0.86944 0.56577 0.66358 0.0
Co224 Co 0.42418 0.3712 0.59661 0.0
O225 O 0.4724 0.39863 0.55439 0.0
O226 O 0.41008 0.4221 0.56736 0.0
C227 C 0.39501 0.27513 0.60044 0.0
O228 O 0.36826 0.35625 0.63467 0.0
Co229 Co 0.45473 0.32553 0.66492 0.0
O230 O 0.3832 0.31566 0.68249 0.0
C231 C 0.51591 0.4437 0.64936 0.0
C232 C 0.45043 0.42989 0.54693 0.0
C233 C 0.35599 0.33472 0.66581 0.0
O234 O 0.48007 0.43774 0.62542 0.0
O235 O 0.52001 0.40279 0.6621 0.0
O236 O 0.37242 0.29366 0.57738 0.0
O237 O 0.4391 0.31566 0.61447 0.0
Co238 Co 0.66183 0.04916 0.6163 0.0
O239 O 0.64775 0.071 0.56903 0.0
O240 O 0.61412 0.98373 0.58675 0.0
C241 C 0.7552 0.10761 0.62829 0.0
O242 O 0.66331 0.00732 0.66029 0.0
Co243 Co 0.69291 0.1271 0.68339 0.0
O244 O 0.69422 0.06436 0.70846 0.0
C245 C 0.5785 0.07 0.65677 0.0
C246 C 0.61311 0.01752 0.56303 0.0
C247 C 0.67797 0.0171 0.69325 0.0
O248 O 0.59273 0.04699 0.63267 0.0
O249 O 0.61276 0.10496 0.6796 0.0
O250 O 0.73825 0.06564 0.60582 0.0
O251 O 0.7168 0.11902 0.63623 0.0
C252 C 0.5096 0.05418 0.02595 0.0
C253 C 0.47988 0.02775 0.05762 0.0
C254 C 0.48012 0.94115 0.03845 0.0
C255 C 0.51053 0.96741 1.00706 0.0
N256 N 0.53541 0.04395 0.96602 0.0
N257 N 0.46 0.95311 0.09921 0.0
C258 C 0.52004 0.02258 0.9994 0.0
C259 C 0.47164 0.97321 0.06532 0.0
N260 N 0.53275 0.11113 0.02261 0.0
N261 N 0.45514 0.884 0.0416 0.0
H262 H 0.46179 0.97786 0.12073 0.0
H263 H 0.45792 0.9156 0.1069 0.0
H264 H 0.45407 0.85813 0.0209 0.0
H265 H 0.42859 0.86179 0.06227 0.0
H266 H 0.55875 0.13407 1.00192 0.0
H267 H 0.53338 0.13669 0.04334 0.0
H268 H 0.53801 0.08147 0.95786 0.0
H269 H 0.53715 0.02061 0.94482 0.0
C270 C 0.94835 0.46975 0.97732 0.0
C271 C 0.97518 0.46494 1.00873 0.0
C272 C 0.06105 0.54924 0.98906 0.0
C273 C 0.03395 0.55626 0.95865 0.0
N274 N 0.9567 0.50867 0.91803 0.0
N275 N 0.05222 0.51661 0.04953 0.0
C276 C 0.97881 0.51246 0.95117 0.0
C277 C 0.03001 0.5094 1.01611 0.0
N278 N 0.89223 0.43669 0.97394 0.0
N279 N 0.11752 0.57684 0.99083 0.0
H280 H 0.02951 0.49431 0.07145 0.0
H281 H 0.09032 0.55117 0.05666 0.0
H282 H 0.14213 0.59878 0.96933 0.0
H283 H 0.13945 0.56989 1.01091 0.0
H284 H 0.86904 0.44162 0.95386 0.0
H285 H 0.86781 0.40968 0.99398 0.0
H286 H 0.91888 0.47501 0.90966 0.0
H287 H 0.97958 0.53457 0.89719 0.0
C288 C 0.51702 0.44168 0.97884 0.0
C289 C 0.47936 0.46302 0.98008 0.0
C290 C 0.52877 0.51609 0.0348 0.0
C291 C 0.56963 0.49962 0.0322 0.0
N292 N 0.60023 0.44319 1.00157 0.0
N293 N 0.47024 0.54122 1.0012 0.0
C294 C 0.56278 0.46131 1.00409 0.0
C295 C 0.49134 0.50614 1.00573 0.0
N296 N 0.51017 0.40325 0.95332 0.0
N297 N 0.52357 0.53987 0.06529 0.0
H298 H 0.48122 0.57594 1.01767 0.0
H299 H 0.44928 0.54115 0.97805 0.0
H300 H 0.54547 0.54331 0.08856 0.0
H301 H 0.49149 0.54846 0.06894 0.0
H302 H 0.5281 0.3779 0.9547 0.0
H303 H 0.48748 0.39732 0.93004 0.0
H304 H 0.60406 0.42269 0.97942 0.0
H305 H 0.62827 0.44913 0.02199 0.0
C306 C 0.16341 0.37815 0.35584 0.0
C307 C 0.13627 0.35345 0.38857 0.0
C308 C 0.13742 0.26681 0.37069 0.0
C309 C 0.16598 0.29179 0.33856 0.0
N310 N 0.18494 0.36421 0.29547 0.0
N311 N 0.11996 0.28141 0.43151 0.0
C312 C 0.17271 0.34538 0.32958 0.0
C313 C 0.12949 0.29974 0.39718 0.0
N314 N 0.18559 0.43473 0.35109 0.0
N315 N 0.11349 0.20994 0.37492 0.0
H316 H 0.12245 0.30706 0.45268 0.0
H317 H 0.11903 0.24464 0.43971 0.0
H318 H 0.11219 0.18335 0.35462 0.0
H319 H 0.08781 0.1885 0.39613 0.0
H320 H 0.20941 0.45632 0.32927 0.0
H321 H 0.18797 0.46161 0.37149 0.0
H322 H 0.1856 0.40048 0.28653 0.0
H323 H 0.18595 0.33952 0.27481 0.0
C324 C 0.60025 0.79897 0.30938 0.0
C325 C 0.62936 0.79577 0.3402 0.0
C326 C 0.71467 0.87373 0.31553 0.0
C327 C 0.6861 0.88212 0.28658 0.0
N328 N 0.59861 0.84786 0.25558 0.0
N329 N 0.70939 0.85137 0.37783 0.0
C330 C 0.62791 0.84323 0.28338 0.0
C331 C 0.68493 0.83956 0.34497 0.0
N332 N 0.54542 0.76012 0.3052 0.0
N333 N 0.7707 0.89633 0.31449 0.0
H334 H 0.68781 0.83237 0.40087 0.0
H335 H 0.74894 0.88556 0.38245 0.0
H336 H 0.79343 0.91515 0.29168 0.0
H337 H 0.79291 0.8894 0.33438 0.0
H338 H 0.52335 0.75333 0.28148 0.0
H339 H 0.52159 0.73449 0.32592 0.0
H340 H 0.55565 0.82864 0.25484 0.0
H341 H 0.61715 0.87017 0.23264 0.0
C342 C 0.18004 0.77189 0.315 0.0
C343 C 0.14154 0.79202 0.31765 0.0
C344 C 0.19041 0.84188 0.37322 0.0
C345 C 0.23261 0.82768 0.36895 0.0
N346 N 0.26423 0.77394 0.33621 0.0
N347 N 0.1311 0.86803 0.34172 0.0
C348 C 0.22615 0.79102 0.3399 0.0
C349 C 0.15284 0.83328 0.34454 0.0
N350 N 0.17375 0.73534 0.28831 0.0
N351 N 0.18391 0.86178 0.40495 0.0
H352 H 0.11076 0.8699 0.31879 0.0
H353 H 0.14126 0.90107 0.35953 0.0
H354 H 0.2057 0.86328 0.42791 0.0
H355 H 0.15099 0.86876 0.40957 0.0
H356 H 0.19243 0.71064 0.28841 0.0
H357 H 0.15129 0.73104 0.26513 0.0
H358 H 0.26819 0.75466 0.31348 0.0
H359 H 0.29244 0.77922 0.35637 0.0
C360 C 0.78511 0.59876 0.68639 0.0
C361 C 0.83412 0.63165 0.66626 0.0
C362 C 0.84148 0.71756 0.69499 0.0
C363 C 0.79227 0.68445 0.71487 0.0
N364 N 0.70937 0.59365 0.72045 0.0
N365 N 0.90338 0.72476 0.64738 0.0
C366 C 0.76222 0.62508 0.70827 0.0
C367 C 0.8601 0.69176 0.66901 0.0
N368 N 0.75928 0.54134 0.68434 0.0
N369 N 0.8721 0.77403 0.70214 0.0
H370 H 0.92181 0.70934 0.63038 0.0
H371 H 0.91959 0.76785 0.6444 0.0
H372 H 0.86327 0.79324 0.72299 0.0
H373 H 0.9086 0.80186 0.68953 0.0
H374 H 0.72974 0.51482 0.70245 0.0
H375 H 0.76857 0.51995 0.66515 0.0
H376 H 0.68243 0.5523 0.71245 0.0
H377 H 0.68975 0.60987 0.73575 0.0
C378 C 0.39091 0.21005 0.65037 0.0
C379 C 0.36472 0.2182 0.62004 0.0
C380 C 0.27767 0.13348 0.63949 0.0
C381 C 0.304 0.12999 0.67171 0.0
N382 N 0.37988 0.1859 0.71237 0.0
N383 N 0.28607 0.17429 0.58038 0.0
C384 C 0.35881 0.17434 0.67856 0.0
C385 C 0.30864 0.1761 0.61308 0.0
N386 N 0.44707 0.23355 0.65153 0.0
N387 N 0.22165 0.09986 0.63581 0.0
H388 H 0.30913 0.20073 0.55977 0.0
H389 H 0.24728 0.14244 0.57198 0.0
H390 H 0.197 0.07385 0.65612 0.0
H391 H 0.19843 0.10282 0.61497 0.0
H392 H 0.4678 0.22681 0.67248 0.0
H393 H 0.47169 0.25326 0.62953 0.0
H394 H 0.41864 0.22045 0.71837 0.0
H395 H 0.35605 0.16664 0.73462 0.0
C396 C 0.83497 0.19032 0.66166 0.0
C397 C 0.81003 0.13334 0.64953 0.0
C398 C 0.88632 0.12749 0.68098 0.0
C399 C 0.90591 0.18135 0.69705 0.0
N400 N 0.89288 0.2613 0.70533 0.0
N401 N 0.80964 0.04472 0.65369 0.0
C402 C 0.87804 0.21155 0.6884 0.0
C403 C 0.83548 0.10129 0.66043 0.0
N404 N 0.82021 0.22588 0.64586 0.0
N405 N 0.91597 0.10057 0.68568 0.0
H406 H 0.77081 0.02183 0.64184 0.0
H407 H 0.82346 0.01854 0.66387 0.0
H408 H 0.95026 0.11563 0.70272 0.0
H409 H 0.90875 0.06531 0.67095 0.0
H410 H 0.84069 0.2691 0.6507 0.0
H411 H 0.79233 0.21372 0.62452 0.0
H412 H 0.87022 0.28199 0.70312 0.0
H413 H 0.92492 0.27963 0.72401 0.0
C414 C 0.35842 0.18586 0.17468 0.0
C415 C 0.34926 0.13021 0.1805 0.0
C416 C 0.28555 0.11963 0.22987 0.0
C417 C 0.29519 0.17553 0.22447 0.0
N418 N 0.34123 0.26171 0.19131 0.0
N419 N 0.31304 0.04945 0.21854 0.0
C420 C 0.33204 0.20839 0.19684 0.0
C421 C 0.31472 0.09853 0.20921 0.0
N422 N 0.38996 0.21662 0.14668 0.0
N423 N 0.24891 0.08619 0.25508 0.0
H424 H 0.33518 0.03379 0.20523 0.0
H425 H 0.29464 0.02696 0.24149 0.0
H426 H 0.23103 0.10016 0.27356 0.0
H427 H 0.2334 0.04298 0.25663 0.0
H428 H 0.39299 0.25394 0.13782 0.0
H429 H 0.41185 0.20431 0.13043 0.0
H430 H 0.37395 0.29237 0.17682 0.0
H431 H 0.31583 0.27593 0.20168 0.0
C432 C 0.8534 0.1686 0.12071 0.0
C433 C 0.86161 0.22392 0.12697 0.0
C434 C 0.81816 0.19066 0.18592 0.0
C435 C 0.80524 0.13413 0.17818 0.0
N436 N 0.80084 0.06853 0.13404 0.0
N437 N 0.8427 0.28376 0.16401 0.0
C438 C 0.82033 0.12307 0.14442 0.0
C439 C 0.84062 0.23341 0.15894 0.0
N440 N 0.87757 0.15895 0.09224 0.0
N441 N 0.81284 0.20508 0.21985 0.0
H442 H 0.86149 0.31703 0.14616 0.0
H443 H 0.82217 0.29098 0.18453 0.0
H444 H 0.79969 0.17697 0.24093 0.0
H445 H 0.82728 0.24644 0.22806 0.0
H446 H 0.87879 0.1219 0.08876 0.0
H447 H 0.90028 0.18919 0.07338 0.0
H448 H 0.80467 0.05696 0.1083 0.0
H449 H 0.77566 0.03427 0.15003 0.0
C450 C 0.88348 0.61049 0.18093 0.0
C451 C 0.89437 0.65534 0.20492 0.0
C452 C 0.80216 0.64253 0.1888 0.0
C453 C 0.7937 0.60206 0.16202 0.0
N454 N 0.81681 0.53183 0.14442 0.0
N455 N 0.86481 0.71845 0.22791 0.0
C456 C 0.83182 0.58165 0.16119 0.0
C457 C 0.85396 0.67258 0.20765 0.0
N458 N 0.92392 0.59704 0.17576 0.0
N459 N 0.75829 0.64843 0.19875 0.0
H460 H 0.90087 0.74156 0.24281 0.0
H461 H 0.84015 0.73707 0.22739 0.0
H462 H 0.71849 0.62315 0.18831 0.0
H463 H 0.75914 0.6721 0.22066 0.0
H464 H 0.92226 0.56987 0.15583 0.0
H465 H 0.96188 0.61741 0.18929 0.0
H466 H 0.84021 0.51188 0.14524 0.0
H467 H 0.77754 0.50638 0.13353 0.0
C468 C 0.6234 0.79067 0.89759 0.0
C469 C 0.63695 0.84795 0.89274 0.0
C470 C 0.7095 0.85773 0.85086 0.0
C471 C 0.68825 0.79854 0.84958 0.0
N472 N 0.62402 0.70816 0.87459 0.0
N473 N 0.68681 0.93165 0.85727 0.0
C474 C 0.64442 0.76493 0.87352 0.0
C475 C 0.67806 0.87993 0.86706 0.0
N476 N 0.59435 0.76159 0.92675 0.0
N477 N 0.76143 0.89379 0.83907 0.0
H478 H 0.66291 0.94828 0.86676 0.0
H479 H 0.7131 0.95448 0.83658 0.0
H480 H 0.78866 0.88038 0.83128 0.0
H481 H 0.77996 0.93736 0.84198 0.0
H482 H 0.58905 0.7225 0.93387 0.0
H483 H 0.58044 0.77833 0.94618 0.0
H484 H 0.58693 0.68045 0.88689 0.0
H485 H 0.64375 0.68868 0.86271 0.0
C486 C 0.19881 0.84911 0.85144 0.0
C487 C 0.14165 0.80666 0.84917 0.0
C488 C 0.13158 0.85886 0.79789 0.0
C489 C 0.1885 0.90227 0.80094 0.0
N490 N 0.26963 0.94536 0.83855 0.0
N491 N 0.05205 0.77618 0.82276 0.0
C492 C 0.22007 0.89891 0.82992 0.0
C493 C 0.1077 0.81359 0.82336 0.0
N494 N 0.23353 0.84277 0.87446 0.0
N495 N 0.10024 0.85856 0.76971 0.0
H496 H 0.03393 0.73892 0.83725 0.0
H497 H 0.02321 0.78316 0.80933 0.0
H498 H 0.11351 0.89006 0.75087 0.0
H499 H 0.06111 0.82513 0.7638 0.0
H500 H 0.27644 0.86788 0.87375 0.0
H501 H 0.22037 0.81053 0.89293 0.0
H502 H 0.29229 0.94854 0.86149 0.0
H503 H 0.28477 0.98349 0.82516 0.0
C504 C 0.19214 0.34899 0.87034 0.0
C505 C 0.23189 0.33097 0.867 0.0
C506 C 0.16751 0.25731 0.82392 0.0
C507 C 0.12983 0.27818 0.82552 0.0
N508 N 0.09677 0.32648 0.86245 0.0
N509 N 0.25997 0.27241 0.8366 0.0
C510 C 0.13977 0.31936 0.8521 0.0
C511 C 0.21989 0.28603 0.84281 0.0
N512 N 0.20413 0.39519 0.89056 0.0
N513 N 0.15152 0.20724 0.80719 0.0
H514 H 0.29858 0.29294 0.84933 0.0
H515 H 0.25733 0.24509 0.81645 0.0
H516 H 0.1117 0.18176 0.79712 0.0
H517 H 0.17473 0.18707 0.80745 0.0
H518 H 0.1803 0.41474 0.88998 0.0
H519 H 0.2402 0.41752 0.90553 0.0
H520 H 0.09867 0.35083 0.88426 0.0
H521 H 0.05663 0.30173 0.85239 0.0
C522 C 0.04066 0.51661 0.52171 0.0
C523 C 0.01449 0.45717 0.51742 0.0
C524 C 0.93394 0.44938 0.55086 0.0
C525 C 0.95981 0.50919 0.55414 0.0
N526 N 0.02778 0.59705 0.52831 0.0
N527 N 0.9449 0.36794 0.54034 0.0
C528 C 0.01037 0.54191 0.5355 0.0
C529 C 0.96336 0.4239 0.53541 0.0
N530 N 0.09591 0.5494 0.51554 0.0
N531 N 0.87974 0.41644 0.55988 0.0
H532 H 0.96766 0.34909 0.53252 0.0
H533 H 0.91153 0.34217 0.55637 0.0
H534 H 0.85466 0.4328 0.56698 0.0
H535 H 0.8572 0.37323 0.55517 0.0
H536 H 0.11782 0.59245 0.5211 0.0
H537 H 0.12135 0.53272 0.51011 0.0
H538 H 0.06131 0.62152 0.51199 0.0
H539 H 1.0039 0.61554 0.53408 0.0
C540 C 0.47097 0.51391 0.45974 0.0
C541 C 0.51742 0.56791 0.46814 0.0
C542 C 0.51302 0.53364 0.52977 0.0
C543 C 0.47389 0.47718 0.51951 0.0
N544 N 0.41872 0.41357 0.47265 0.0
N545 N 0.58497 0.62698 0.51218 0.0
C546 C 0.45388 0.46745 0.48385 0.0
C547 C 0.53923 0.57685 0.50344 0.0
N548 N 0.44137 0.50704 0.4293 0.0
N549 N 0.52313 0.54713 0.56499 0.0
H550 H 0.60274 0.66094 0.49475 0.0
H551 H 0.6068 0.63362 0.53605 0.0
H552 H 0.50344 0.51768 0.58491 0.0
H553 H 0.54614 0.58841 0.57433 0.0
H554 H 0.40355 0.47102 0.42392 0.0
H555 H 0.45086 0.53984 0.41181 0.0
H556 H 0.40734 0.4028 0.44607 0.0
H557 H 0.40451 0.37907 0.4896 0.0
C558 C 0.5217 0.00743 0.54061 0.0
C559 C 0.56555 0.9956 0.53595 0.0
C560 C 0.51173 0.93286 0.48521 0.0
C561 C 0.46574 0.94097 0.49222 0.0
N562 N 0.4232 0.97267 0.53489 0.0
N563 N 0.59699 0.93849 0.50704 0.0
C564 C 0.46984 0.97433 0.52241 0.0
C565 C 0.5585 0.9552 0.50949 0.0
N566 N 0.52909 0.05073 0.56225 0.0
N567 N 0.51343 0.90758 0.45432 0.0
H568 H 0.63332 0.95654 0.52234 0.0
H569 H 0.59114 0.90445 0.49148 0.0
H570 H 0.48203 0.89165 0.43523 0.0
H571 H 0.54867 0.90713 0.44592 0.0
H572 H 0.50036 0.06435 0.56398 0.0
H573 H 0.56614 0.0772 0.57542 0.0
H574 H 0.42234 0.99166 0.55871 0.0
H575 H 0.384 0.94645 0.52388 0.0
C576 C 0.29362 0.90014 0.03175 0.0
C577 C 0.26903 0.93456 0.03399 0.0
C578 C 0.21466 0.89089 0.98002 0.0
C579 C 0.23038 0.84926 0.98282 0.0
N580 N 0.30474 0.83224 0.9966 0.0
N581 N 0.21111 0.96829 1.00869 0.0
C582 C 0.27688 0.86015 1.00386 0.0
C583 C 0.23147 0.93215 1.00734 0.0
N584 N 0.32942 0.9025 0.05771 0.0
N585 N 0.18702 0.89292 0.95038 0.0
H586 H 0.22511 1.00122 0.02711 0.0
H587 H 0.17865 0.96426 0.99266 0.0
H588 H 0.18078 0.86758 0.9282 0.0
H589 H 0.17708 0.92423 0.94564 0.0
H590 H 0.34359 0.87392 0.05946 0.0
H591 H 0.34162 0.9302 0.07928 0.0
H592 H 0.34181 0.84119 1.00905 0.0
H593 H 0.29335 0.80433 0.97509 0.0
C594 C 0.0948 0.32505 0.99885 0.0
C595 C 0.08118 0.36618 0.98785 0.0
C596 C 0.17868 0.43151 0.9742 0.0
C597 C 0.19262 0.39248 0.98885 0.0
N598 N 0.16597 0.30533 0.01927 0.0
N599 N 0.10941 0.45957 0.96647 0.0
C600 C 0.1512 0.34006 1.00226 0.0
C601 C 0.12286 0.41961 0.9756 0.0
N602 N 0.05362 0.27088 1.00455 0.0
N603 N 0.21864 0.47921 0.95821 0.0
H604 H 0.06913 0.45253 0.9669 0.0
H605 H 0.13835 0.50081 0.96014 0.0
H606 H 0.26014 0.48989 0.95758 0.0
H607 H 0.21053 0.50626 0.94328 0.0
H608 H 0.06088 0.23764 1.00904 0.0
H609 H 0.01171 0.25782 1.00121 0.0
H610 H 0.13822 0.26961 0.0332 0.0
H611 H 0.20695 0.31471 0.02212 0.0
C612 C 0.72269 0.78725 0.03467 0.0
C613 C 0.68677 0.73581 0.0516 0.0
C614 C 0.60869 0.75056 0.04031 0.0
C615 C 0.64622 0.80656 0.02994 0.0
N616 N 0.7405 0.88038 0.01953 0.0
N617 N 0.59647 0.67059 0.07436 0.0
C618 C 0.70366 0.82541 0.02714 0.0
C619 C 0.62978 0.7175 0.05508 0.0
N620 N 0.77488 0.79938 0.02577 0.0
N621 N 0.55302 0.72865 0.0354 0.0
H622 H 0.61065 0.64565 0.08613 0.0
H623 H 0.55611 0.65924 0.08117 0.0
H624 H 0.53624 0.75129 0.02356 0.0
H625 H 0.52423 0.68635 0.03951 0.0
H626 H 0.80123 0.8338 1.01032 0.0
H627 H 0.78972 0.77182 0.03088 0.0
H628 H 0.78324 0.89761 0.02135 0.0
H629 H 0.72884 0.91025 1.01416 0.0
C630 C 0.76689 0.07449 0.02509 0.0
C631 C 0.71427 0.06903 0.03017 0.0
C632 C 0.7542 0.17051 0.02295 0.0
C633 C 0.80418 0.17392 1.01144 0.0
N634 N 0.85742 0.1286 0.99898 0.0
N635 N 0.6562 0.11073 0.0334 0.0
C636 C 0.81055 0.12578 1.01206 0.0
C637 C 0.7075 0.11683 0.02937 0.0
N638 N 0.77487 0.03052 0.03329 0.0
N639 N 0.75197 0.21848 0.02919 0.0
H640 H 0.62171 0.07259 0.04022 0.0
H641 H 0.64747 0.14285 0.0284 0.0
H642 H 0.78533 0.25882 0.02521 0.0
H643 H 0.71864 0.21856 0.04136 0.0
H644 H 0.81343 0.03315 0.03306 0.0
H645 H 0.74358 0.99335 0.04426 0.0
H646 H 0.86204 0.09347 0.99564 0.0
H647 H 0.88994 0.16536 0.9885 0.0
C648 C 0.89051 0.62167 0.04789 0.0
C649 C 0.88538 0.67045 0.05126 0.0
C650 C 0.97572 0.72739 0.02348 0.0
C651 C 0.97875 0.67786 1.0178 0.0
N652 N 0.93475 0.57656 1.01841 0.0
N653 N 0.91718 0.76721 0.03587 0.0
C654 C 0.93494 0.62462 0.02828 0.0
C655 C 0.92636 0.7227 0.03725 0.0
N656 N 0.85431 0.57294 0.06461 0.0
N657 N 0.02073 0.77904 1.01706 0.0
H658 H 0.88094 0.76496 0.04499 0.0
H659 H 0.94295 0.80452 0.02263 0.0
H660 H 0.05789 0.78427 1.00733 0.0
H661 H 0.023 0.8168 0.02433 0.0
H662 H 0.86034 0.53854 0.06705 0.0
H663 H 0.82038 0.56824 0.07862 0.0
H664 H 0.90086 0.53632 0.02148 0.0
H665 H 0.96678 0.57706 1.00425 0.0
C666 C 0.36419 0.2587 0.02332 0.0
C667 C 0.33986 0.288 0.03888 0.0
C668 C 0.29727 0.21518 0.08421 0.0
C669 C 0.31783 0.18337 0.06652 0.0
N670 N 0.35485 0.1677 1.0126 0.0
N671 N 0.27306 0.28826 0.0791 0.0
C672 C 0.34669 0.20306 0.0341 0.0
C673 C 0.30348 0.26468 0.06792 0.0
N674 N 0.40473 0.28436 0.99858 0.0
N675 N 0.27387 0.20008 0.11704 0.0
H676 H 0.27663 0.32488 0.06824 0.0
H677 H 0.2407 0.26879 0.09703 0.0
H678 H 0.26821 0.1648 0.13079 0.0
H679 H 0.26438 0.22571 0.13237 0.0
H680 H 0.42744 0.26654 0.9889 0.0
H681 H 0.41951 0.32581 0.99062 0.0
H682 H 0.37155 0.17892 0.98725 0.0
H683 H 0.33864 0.12505 1.01811 0.0
C684 C 0.94301 0.23131 0.36432 0.0
C685 C 0.91743 0.2639 0.3713 0.0
C686 C 0.83947 0.20282 0.33267 0.0
C687 C 0.86578 0.17104 0.32506 0.0
N688 N 0.94929 0.16574 0.32417 0.0
N689 N 0.85179 0.29216 0.35287 0.0
C690 C 0.92018 0.18939 0.33751 0.0
C691 C 0.86912 0.25352 0.35232 0.0
N692 N 0.98611 0.23698 0.38501 0.0
N693 N 0.78509 0.18294 0.32387 0.0
H694 H 0.87342 0.33049 0.36646 0.0
H695 H 0.81958 0.28876 0.33679 0.0
H696 H 0.76052 0.14544 0.31013 0.0
H697 H 0.76284 0.20164 0.33292 0.0
H698 H 1.00236 0.21016 0.38303 0.0
H699 H 1.00185 0.2644 0.40665 0.0
H700 H 0.99095 0.18078 0.33018 0.0
H701 H 0.93314 0.135 0.30419 0.0
C702 C 0.8068 0.66305 0.32048 0.0
C703 C 0.85158 0.71872 0.32703 0.0
C704 C 0.78499 0.74859 0.34167 0.0
C705 C 0.74103 0.69579 0.33025 0.0
N706 N 0.71039 0.60503 0.30321 0.0
N707 N 0.88078 0.81776 0.33323 0.0
C708 C 0.75208 0.65388 0.31756 0.0
C709 C 0.84009 0.76256 0.33467 0.0
N710 N 0.81551 0.61824 0.3194 0.0
N711 N 0.77445 0.78511 0.35988 0.0
H712 H 0.92086 0.83056 0.32492 0.0
H713 H 0.87274 0.85086 0.33584 0.0
H714 H 0.73444 0.77536 0.36623 0.0
H715 H 0.80558 0.82175 0.37189 0.0
H716 H 0.78341 0.5766 0.31805 0.0
H717 H 0.85386 0.62159 0.32406 0.0
H718 H 0.7175 0.57591 0.28992 0.0
H719 H 0.66928 0.59577 0.30209 0.0
C720 C 0.36053 0.15261 0.36086 0.0
C721 C 0.30294 0.13318 0.36288 0.0
C722 C 0.28607 0.04287 0.3861 0.0
C723 C 0.34334 0.06205 0.38359 0.0
N724 N 0.43215 0.1272 0.3593 0.0
N725 N 0.20966 0.05482 0.36657 0.0
C726 C 0.37954 0.1143 0.36766 0.0
C727 C 0.2652 0.07657 0.37199 0.0
N728 N 0.39743 0.2082 0.35491 0.0
N729 N 0.25225 0.99436 0.40382 0.0
H730 H 0.19309 0.07811 0.35536 0.0
H731 H 0.18077 0.01232 0.36973 0.0
H732 H 0.26636 0.96876 0.41464 0.0
H733 H 0.21144 0.98192 0.41007 0.0
H734 H 0.44014 0.22544 0.35714 0.0
H735 H 0.38574 0.23841 0.35085 0.0
H736 H 0.4589 0.16252 0.34466 0.0
H737 H 0.44691 0.09944 0.36393 0.0
C738 C 0.47141 0.45554 0.35083 0.0
C739 C 0.46382 0.50201 0.34353 0.0
C740 C 0.36379 0.44255 0.35112 0.0
C741 C 0.37184 0.39704 0.36012 0.0
N742 N 0.43267 0.36174 0.37556 0.0
N743 N 0.40444 0.54309 0.34466 0.0
C744 C 0.42563 0.40414 0.36221 0.0
C745 C 0.41037 0.49644 0.34543 0.0
N746 N 0.52188 0.46003 0.3455 0.0
N747 N 0.31139 0.43399 0.34764 0.0
H748 H 0.43742 0.584 0.34209 0.0
H749 H 0.36741 0.54202 0.35013 0.0
H750 H 0.27678 0.39653 0.35518 0.0
H751 H 0.30234 0.46293 0.33596 0.0
H752 H 0.52883 0.42616 0.34714 0.0
H753 H 0.55589 0.49671 0.33617 0.0
H754 H 0.47122 0.3658 0.38083 0.0
H755 H 0.39958 0.32407 0.38465 0.0
C756 C 0.58071 0.98685 0.32667 0.0
C757 C 0.63326 0.00766 0.34317 0.0
C758 C 0.59974 0.02957 0.39712 0.0
C759 C 0.54802 0.01277 0.37975 0.0
N760 N 0.49741 0.99318 0.32398 0.0
N761 N 0.69758 0.0664 0.38909 0.0
C762 C 0.54087 0.99671 0.34325 0.0
C763 C 0.64432 0.03452 0.37684 0.0
N764 N 0.56798 0.95608 0.29591 0.0
N765 N 0.60627 0.03788 0.43311 0.0
H766 H 0.73187 0.0732 0.37439 0.0
H767 H 0.70785 0.09132 0.41196 0.0
H768 H 0.57522 0.03317 0.45015 0.0
H769 H 0.64152 0.04373 0.44675 0.0
H770 H 0.52821 0.93526 0.28487 0.0
H771 H 0.59572 0.94693 0.28331 0.0
H772 H 0.49309 0.9861 0.2966 0.0
H773 H 0.46958 0.00416 0.33445 0.0
C774 C 0.94995 0.57851 0.38558 0.0
C775 C 1.00325 0.62619 0.38198 0.0
C776 C 0.04401 0.57706 0.4128 0.0
C777 C 0.99174 0.5266 0.41126 0.0
N778 N 0.8973 0.47728 0.38891 0.0
N779 N 0.10249 0.66963 0.38824 0.0
C780 C 0.94512 0.5267 0.39585 0.0
C781 C 0.0508 0.62541 0.39472 0.0
N782 N 0.90392 0.58312 0.37988 0.0
N783 N 0.08674 0.57949 0.43232 0.0
H784 H 0.10926 0.70622 0.37548 0.0
H785 H 0.13866 0.6683 0.3931 0.0
H786 H 0.08377 0.5452 0.44604 0.0
H787 H 0.12346 0.61686 0.43759 0.0
H788 H 0.86396 0.55071 0.38512 0.0
H789 H 0.90634 0.62143 0.37387 0.0
H790 H 0.8642 0.47533 0.37457 0.0
H791 H 0.89281 0.43781 0.39382 0.0
C792 C 0.52585 0.49304 0.7068 0.0
C793 C 0.54107 0.49579 0.6706 0.0
C794 C 0.59107 0.59826 0.67401 0.0
C795 C 0.58027 0.59487 0.71106 0.0
N796 N 0.55537 0.53742 0.76412 0.0
N797 N 0.60016 0.55009 0.62271 0.0
C798 C 0.55295 0.54185 0.72798 0.0
C799 C 0.57739 0.5482 0.65498 0.0
N800 N 0.48425 0.44461 0.72097 0.0
N801 N 0.61231 0.64854 0.65676 0.0
H802 H 0.59125 0.51373 0.60851 0.0
H803 H 0.63115 0.5873 0.6117 0.0
H804 H 0.62046 0.68575 0.6695 0.0
H805 H 0.61646 0.65203 0.62922 0.0
H806 H 0.46856 0.44319 0.74624 0.0
H807 H 0.46139 0.4076 0.70648 0.0
H808 H 0.53995 0.49878 0.77689 0.0
H809 H 0.57874 0.57174 0.7809 0.0
C810 C 0.50634 0.09802 0.66617 0.0
C811 C 0.51955 0.05579 0.65742 0.0
C812 C 0.4207 0.98971 0.64624 0.0
C813 C 0.408 0.02963 0.66038 0.0
N814 N 0.43902 0.11586 0.69346 0.0
N815 N 0.48578 0.95615 0.64701 0.0
C816 C 0.45086 0.08193 0.6734 0.0
C817 C 0.47583 1.00006 0.64934 0.0
N818 N 0.5457 0.15379 0.66565 0.0
N819 N 0.38015 0.9415 0.63053 0.0
H820 H 0.52425 0.95995 0.6519 0.0
H821 H 0.45434 0.91437 0.64441 0.0
H822 H 0.33883 0.93147 0.62918 0.0
H823 H 0.3885 0.91397 0.61635 0.0
H824 H 0.5362 0.1857 0.66939 0.0
H825 H 0.58589 0.16837 0.65685 0.0
H826 H 0.46961 0.1517 0.70652 0.0
H827 H 0.39878 0.10442 0.70036 0.0
C828 C 1.00787 0.41341 0.68424 0.0
C829 C 0.01798 0.41053 0.72108 0.0
C830 C 0.98481 0.47532 0.73435 0.0
C831 C 0.9678 0.47267 0.69841 0.0
N832 N 0.95152 0.42768 0.64073 0.0
N833 N 0.99569 0.42242 0.78146 0.0
C834 C 0.97586 0.4383 0.67367 0.0
C835 C 1.00009 0.43635 0.74627 0.0
N836 N 0.03044 0.39486 0.65932 0.0
N837 N 0.98934 0.51664 0.75684 0.0
H838 H 1.00202 0.39039 0.79113 0.0
H839 H 0.97883 0.43771 0.80003 0.0
H840 H 0.98368 0.54975 0.74858 0.0
H841 H 1.00576 0.5219 0.78254 0.0
H842 H 0.02819 0.40099 0.63213 0.0
H843 H 0.05606 0.37855 0.66582 0.0
H844 H 0.95222 0.39881 0.62301 0.0
H845 H 0.92558 0.44292 0.63274 0.0
C846 C 0.13829 0.78793 0.67817 0.0
C847 C 0.13037 0.83514 0.67671 0.0
C848 C 0.0344 0.77679 0.69563 0.0
C849 C 0.04011 0.72867 0.6926 0.0
N850 N 0.0965 0.68637 0.68242 0.0
N851 N 0.07015 0.87475 0.68143 0.0
C852 C 0.09205 0.73376 0.68455 0.0
C853 C 0.07816 0.82959 0.68452 0.0
N854 N 0.18998 0.79508 0.67344 0.0
N855 N 0.98813 0.77257 0.71062 0.0
H856 H 0.10172 0.91542 0.67591 0.0
H857 H 0.03122 0.87122 0.68228 0.0
H858 H 0.9552 0.73465 0.71929 0.0
H859 H 0.98548 0.80754 0.7185 0.0
H860 H 0.20012 0.76391 0.67814 0.0
H861 H 0.22389 0.8334 0.66606 0.0
H862 H 0.13075 0.68563 0.67239 0.0
H863 H 0.06468 0.64677 0.68997 0.0
C864 C 0.21832 0.28343 0.71112 0.0
C865 C 0.21867 0.33511 0.71557 0.0
C866 C 0.31144 0.38658 0.69056 0.0
C867 C 0.30922 0.33461 0.68364 0.0
N868 N 0.25748 0.23328 0.68162 0.0
N869 N 0.25978 0.43403 0.70242 0.0
C870 C 0.26182 0.28292 0.69238 0.0
C871 C 0.26366 0.38625 0.70331 0.0
N872 N 0.17763 0.23508 0.72589 0.0
N873 N 0.35979 0.43626 0.68616 0.0
H874 H 0.22461 0.43502 0.7105 0.0
H875 H 0.28897 0.47112 0.69033 0.0
H876 H 0.39597 0.43846 0.67702 0.0
H877 H 0.3655 0.47501 0.69461 0.0
H878 H 0.17934 0.19807 0.72765 0.0
H879 H 0.14394 0.23278 0.73888 0.0
H880 H 0.22125 0.19447 0.68327 0.0
H881 H 0.28899 0.2315 0.66825 0.0
C882 C 0.61608 0.86853 0.72464 0.0
C883 C 0.66258 0.86903 0.74063 0.0
C884 C 0.71944 0.97048 0.72974 0.0
C885 C 0.67223 0.96951 0.71457 0.0
N886 N 0.57322 0.92315 0.70792 0.0
N887 N 0.75759 0.92057 0.76149 0.0
C888 C 0.61976 0.92011 0.7152 0.0
C889 C 0.71411 0.92007 0.74404 0.0
N890 N 0.56941 0.8186 0.71659 0.0
N891 N 0.76953 0.01911 0.72964 0.0
H892 H 0.75693 0.88432 0.77023 0.0
H893 H 0.79369 0.957 0.76906 0.0
H894 H 0.7743 0.05779 0.72213 0.0
H895 H 0.80707 0.02134 0.73562 0.0
H896 H 0.5365 0.81591 0.70164 0.0
H897 H 0.56584 0.77949 0.72147 0.0
H898 H 0.53323 0.88942 0.71103 0.0
H899 H 0.57474 0.96131 0.70285 0.0
loop_
_geom_bond_atom_site_label_1
_geom_bond_atom_site_label_2
_geom_bond_distance
_geom_bond_site_symmetry_2
_ccdc_geom_bond_type
Co0 O1 2.216 1_545 S
Co0 O2 2.091 . S
Co0 O4 2.004 . S
Co0 O10 2.021 1_545 S
Co0 O12 2.137 . S
Co0 O13 2.244 . S
O1 Co0 2.216 1_565 S
O1 C8 1.247 1_565 S
O2 Co0 2.091 . S
O2 C8 1.261 . S
C3 O12 1.247 . S
C3 O13 1.272 . S
O4 Co0 2.004 . S
O4 C9 1.259 . S
Co5 O6 2.061 . S
Co5 O11 2.052 1_545 S
Co5 O13 2.135 . S
O6 Co5 2.061 . S
O6 C9 1.235 . S
C7 O10 1.238 . S
C7 O11 1.241 . S
C8 O1 1.247 1_545 S
C8 O2 1.261 . S
C9 O4 1.259 . S
C9 O6 1.235 . S
O10 Co0 2.021 1_565 S
O10 C7 1.238 . S
O11 Co5 2.052 1_565 S
O11 C7 1.241 . S
O12 Co0 2.137 . S
O12 C3 1.247 . S
O13 Co0 2.244 . S
O13 C3 1.272 . S
O13 Co5 2.135 . S
Co14 O15 2.216 . S
Co14 O16 2.091 . S
Co14 O18 2.004 1_655 S
Co14 O24 2.021 . S
Co14 O26 2.137 . S
Co14 O27 2.244 . S
O15 Co14 2.216 . S
O15 C22 1.247 . S
O16 Co14 2.091 . S
O16 C22 1.261 . S
C17 O26 1.247 . S
C17 O27 1.272 . S
O18 Co14 2.004 1_455 S
O18 C23 1.259 . S
Co19 O20 2.061 1_655 S
Co19 O25 2.052 . S
Co19 O27 2.135 1_556 S
O20 Co19 2.061 1_455 S
O20 C23 1.235 1_556 S
C21 O24 1.238 . S
C21 O25 1.241 1_554 S
C22 O15 1.247 . S
C22 O16 1.261 . S
C23 O18 1.259 . S
C23 O20 1.235 1_554 S
O24 Co14 2.021 . S
O24 C21 1.238 . S
O25 Co19 2.052 . S
O25 C21 1.241 1_556 S
O26 Co14 2.137 . S
O26 C17 1.247 . S
O27 Co14 2.244 . S
O27 C17 1.272 . S
O27 Co19 2.135 1_554 S
Co28 O29 2.216 . S
Co28 O30 2.091 . S
Co28 O32 2.004 . S
Co28 O38 2.021 . S
Co28 O40 2.137 . S
Co28 O41 2.244 . S
O29 Co28 2.216 . S
O29 C36 1.247 . S
O30 Co28 2.091 . S
O30 C36 1.261 . S
C31 O40 1.247 . S
C31 O41 1.272 . S
O32 Co28 2.004 . S
O32 C37 1.259 . S
Co33 O34 2.061 . S
Co33 O39 2.052 . S
Co33 O41 2.135 . S
O34 Co33 2.061 . S
O34 C37 1.235 . S
C35 O38 1.238 . S
C35 O39 1.241 . S
C36 O29 1.247 . S
C36 O30 1.261 . S
C37 O32 1.259 . S
C37 O34 1.235 . S
O38 Co28 2.021 . S
O38 C35 1.238 . S
O39 Co33 2.052 . S
O39 C35 1.241 . S
O40 Co28 2.137 . S
O40 C31 1.247 . S
O41 Co28 2.244 . S
O41 C31 1.272 . S
O41 Co33 2.135 . S
Co42 O43 2.216 . S
Co42 O44 2.091 . S
Co42 O46 2.004 1_565 S
Co42 O52 2.021 . S
Co42 O54 2.137 . S
Co42 O55 2.244 . S
O43 Co42 2.216 . S
O43 C50 1.247 . S
O44 Co42 2.091 . S
O44 C50 1.261 . S
C45 O54 1.247 . S
C45 O55 1.272 . S
O46 Co42 2.004 1_545 S
O46 C51 1.259 . S
Co47 O48 2.061 1_565 S
Co47 O53 2.052 . S
Co47 O55 2.135 1_554 S
O48 Co47 2.061 1_545 S
O48 C51 1.235 1_554 S
C49 O52 1.238 . S
C49 O53 1.241 1_556 S
C50 O43 1.247 . S
C50 O44 1.261 . S
C51 O46 1.259 . S
C51 O48 1.235 1_556 S
O52 Co42 2.021 . S
O52 C49 1.238 . S
O53 Co47 2.052 . S
O53 C49 1.241 1_554 S
O54 Co42 2.137 . S
O54 C45 1.247 . S
O55 Co42 2.244 . S
O55 C45 1.272 . S
O55 Co47 2.135 1_556 S
Co56 O57 2.216 . S
Co56 O58 2.091 . S
Co56 O60 2.004 1_455 S
Co56 O66 2.021 . S
Co56 O68 2.137 . S
Co56 O69 2.244 . S
O57 Co56 2.216 . S
O57 C64 1.247 . S
O58 Co56 2.091 . S
O58 C64 1.261 . S
C59 O68 1.247 . S
C59 O69 1.272 . S
O60 Co56 2.004 1_655 S
O60 C65 1.259 . S
Co61 O62 2.061 1_455 S
Co61 O67 2.052 . S
Co61 O69 2.135 1_554 S
O62 Co61 2.061 1_655 S
O62 C65 1.235 1_554 S
C63 O66 1.238 . S
C63 O67 1.241 1_556 S
C64 O57 1.247 . S
C64 O58 1.261 . S
C65 O60 1.259 . S
C65 O62 1.235 1_556 S
O66 Co56 2.021 . S
O66 C63 1.238 . S
O67 Co61 2.052 . S
O67 C63 1.241 1_554 S
O68 Co56 2.137 . S
O68 C59 1.247 . S
O69 Co56 2.244 . S
O69 C59 1.272 . S
O69 Co61 2.135 1_556 S
Co70 O71 2.216 . S
Co70 O72 2.091 . S
Co70 O74 2.004 . S
Co70 O80 2.021 . S
Co70 O82 2.137 . S
Co70 O83 2.244 . S
O71 Co70 2.216 . S
O71 C78 1.247 . S
O72 Co70 2.091 . S
O72 C78 1.261 . S
C73 O82 1.247 . S
C73 O83 1.272 . S
O74 Co70 2.004 . S
O74 C79 1.259 . S
Co75 O76 2.061 . S
Co75 O81 2.052 . S
Co75 O83 2.135 1_554 S
O76 Co75 2.061 . S
O76 C79 1.235 1_554 S
C77 O80 1.238 . S
C77 O81 1.241 1_556 S
C78 O71 1.247 . S
C78 O72 1.261 . S
C79 O74 1.259 . S
C79 O76 1.235 1_556 S
O80 Co70 2.021 . S
O80 C77 1.238 . S
O81 Co75 2.052 . S
O81 C77 1.241 1_554 S
O82 Co70 2.137 . S
O82 C73 1.247 . S
O83 Co70 2.244 . S
O83 C73 1.272 . S
O83 Co75 2.135 1_556 S
Co84 O85 2.216 . S
Co84 O86 2.091 . S
Co84 O88 2.004 . S
Co84 O94 2.021 1_455 S
Co84 O96 2.137 . S
Co84 O97 2.244 1_455 S
O85 Co84 2.216 . S
O85 C92 1.247 . S
O86 Co84 2.091 . S
O86 C92 1.261 . S
C87 O96 1.247 . S
C87 O97 1.272 1_455 S
O88 Co84 2.004 . S
O88 C93 1.259 1_455 S
Co89 O90 2.061 . S
Co89 O95 2.052 . S
Co89 O97 2.135 . S
O90 Co89 2.061 . S
O90 C93 1.235 . S
C91 O94 1.238 . S
C91 O95 1.241 . S
C92 O85 1.247 . S
C92 O86 1.261 . S
C93 O88 1.259 1_655 S
C93 O90 1.235 . S
O94 Co84 2.021 1_655 S
O94 C91 1.238 . S
O95 Co89 2.052 . S
O95 C91 1.241 . S
O96 Co84 2.137 . S
O96 C87 1.247 . S
O97 Co84 2.244 1_655 S
O97 C87 1.272 1_655 S
O97 Co89 2.135 . S
Co98 O99 2.216 . S
Co98 O100 2.091 . S
Co98 O102 2.004 . S
Co98 O108 2.021 . S
Co98 O110 2.137 . S
Co98 O111 2.244 . S
O99 Co98 2.216 . S
O99 C106 1.247 . S
O100 Co98 2.091 . S
O100 C106 1.261 . S
C101 O110 1.247 . S
C101 O111 1.272 . S
O102 Co98 2.004 . S
O102 C107 1.259 . S
Co103 O104 2.061 . S
Co103 O109 2.052 . S
Co103 O111 2.135 . S
O104 Co103 2.061 . S
O104 C107 1.235 . S
C105 O108 1.238 . S
C105 O109 1.241 . S
C106 O99 1.247 . S
C106 O100 1.261 . S
C107 O102 1.259 . S
C107 O104 1.235 . S
O108 Co98 2.021 . S
O108 C105 1.238 . S
O109 Co103 2.052 . S
O109 C105 1.241 . S
O110 Co98 2.137 . S
O110 C101 1.247 . S
O111 Co98 2.244 . S
O111 C101 1.272 . S
O111 Co103 2.135 . S
Co112 O113 2.216 . S
Co112 O114 2.091 . S
Co112 O116 2.004 . S
Co112 O122 2.021 1_565 S
Co112 O124 2.137 . S
Co112 O125 2.244 1_565 S
O113 Co112 2.216 . S
O113 C120 1.247 . S
O114 Co112 2.091 . S
O114 C120 1.261 . S
C115 O124 1.247 . S
C115 O125 1.272 1_565 S
O116 Co112 2.004 . S
O116 C121 1.259 1_565 S
Co117 O118 2.061 . S
Co117 O123 2.052 . S
Co117 O125 2.135 . S
O118 Co117 2.061 . S
O118 C121 1.235 . S
C119 O122 1.238 . S
C119 O123 1.241 . S
C120 O113 1.247 . S
C120 O114 1.261 . S
C121 O116 1.259 1_545 S
C121 O118 1.235 . S
O122 Co112 2.021 1_545 S
O122 C119 1.238 . S
O123 Co117 2.052 . S
O123 C119 1.241 . S
O124 Co112 2.137 . S
O124 C115 1.247 . S
O125 Co112 2.244 1_545 S
O125 C115 1.272 1_545 S
O125 Co117 2.135 . S
Co126 O127 2.216 . S
Co126 O128 2.091 . S
Co126 O130 2.004 . S
Co126 O136 2.021 . S
Co126 O138 2.137 . S
Co126 O139 2.244 . S
O127 Co126 2.216 . S
O127 C134 1.247 . S
O128 Co126 2.091 . S
O128 C134 1.261 . S
C129 O138 1.247 . S
C129 O139 1.272 . S
O130 Co126 2.004 . S
O130 C135 1.259 . S
Co131 O132 2.061 . S
Co131 O137 2.052 . S
Co131 O139 2.135 . S
O132 Co131 2.061 . S
O132 C135 1.235 . S
C133 O136 1.238 . S
C133 O137 1.241 . S
C134 O127 1.247 . S
C134 O128 1.261 . S
C135 O130 1.259 . S
C135 O132 1.235 . S
O136 Co126 2.021 . S
O136 C133 1.238 . S
O137 Co131 2.052 . S
O137 C133 1.241 . S
O138 Co126 2.137 . S
O138 C129 1.247 . S
O139 Co126 2.244 . S
O139 C129 1.272 . S
O139 Co131 2.135 . S
Co140 O141 2.216 . S
Co140 O142 2.091 . S
Co140 O144 2.004 . S
Co140 O150 2.021 . S
Co140 O152 2.137 1_545 S
Co140 O153 2.244 1_545 S
O141 Co140 2.216 . S
O141 C148 1.247 . S
O142 Co140 2.091 . S
O142 C148 1.261 . S
C143 O152 1.247 . S
C143 O153 1.272 . S
O144 Co140 2.004 . S
O144 C149 1.259 . S
Co145 O146 2.061 . S
Co145 O151 2.052 . S
Co145 O153 2.135 1_545 S
O146 Co145 2.061 . S
O146 C149 1.235 . S
C147 O150 1.238 . S
C147 O151 1.241 . S
C148 O141 1.247 . S
C148 O142 1.261 . S
C149 O144 1.259 . S
C149 O146 1.235 . S
O150 Co140 2.021 . S
O150 C147 1.238 . S
O151 Co145 2.052 . S
O151 C147 1.241 . S
O152 Co140 2.137 1_565 S
O152 C143 1.247 . S
O153 Co140 2.244 1_565 S
O153 C143 1.272 . S
O153 Co145 2.135 1_565 S
Co154 O155 2.216 . S
Co154 O156 2.091 . S
Co154 O158 2.004 . S
Co154 O164 2.021 . S
Co154 O166 2.137 1_655 S
Co154 O167 2.244 . S
O155 Co154 2.216 . S
O155 C162 1.247 . S
O156 Co154 2.091 . S
O156 C162 1.261 . S
C157 O166 1.247 . S
C157 O167 1.272 1_455 S
O158 Co154 2.004 . S
O158 C163 1.259 . S
Co159 O160 2.061 . S
Co159 O165 2.052 . S
Co159 O167 2.135 . S
O160 Co159 2.061 . S
O160 C163 1.235 . S
C161 O164 1.238 . S
C161 O165 1.241 . S
C162 O155 1.247 . S
C162 O156 1.261 . S
C163 O158 1.259 . S
C163 O160 1.235 . S
O164 Co154 2.021 . S
O164 C161 1.238 . S
O165 Co159 2.052 . S
O165 C161 1.241 . S
O166 Co154 2.137 1_455 S
O166 C157 1.247 . S
O167 Co154 2.244 . S
O167 C157 1.272 1_655 S
O167 Co159 2.135 . S
Co168 O169 2.216 . S
Co168 O170 2.091 . S
Co168 O172 2.004 . S
Co168 O178 2.021 . S
Co168 O180 2.137 . S
Co168 O181 2.244 . S
O169 Co168 2.216 . S
O169 C176 1.247 . S
O170 Co168 2.091 . S
O170 C176 1.261 . S
C171 O180 1.247 . S
C171 O181 1.272 . S
O172 Co168 2.004 . S
O172 C177 1.259 . S
Co173 O174 2.061 . S
Co173 O179 2.052 . S
Co173 O181 2.135 . S
O174 Co173 2.061 . S
O174 C177 1.235 . S
C175 O178 1.238 . S
C175 O179 1.241 . S
C176 O169 1.247 . S
C176 O170 1.261 . S
C177 O172 1.259 . S
C177 O174 1.235 . S
O178 Co168 2.021 . S
O178 C175 1.238 . S
O179 Co173 2.052 . S
O179 C175 1.241 . S
O180 Co168 2.137 . S
O180 C171 1.247 . S
O181 Co168 2.244 . S
O181 C171 1.272 . S
O181 Co173 2.135 . S
Co182 O183 2.216 . S
Co182 O184 2.091 . S
Co182 O186 2.004 . S
Co182 O192 2.021 . S
Co182 O194 2.137 1_565 S
Co182 O195 2.244 1_565 S
O183 Co182 2.216 . S
O183 C190 1.247 . S
O184 Co182 2.091 . S
O184 C190 1.261 . S
C185 O194 1.247 . S
C185 O195 1.272 . S
O186 Co182 2.004 . S
O186 C191 1.259 . S
Co187 O188 2.061 . S
Co187 O193 2.052 . S
Co187 O195 2.135 1_565 S
O188 Co187 2.061 . S
O188 C191 1.235 . S
C189 O192 1.238 . S
C189 O193 1.241 . S
C190 O183 1.247 . S
C190 O184 1.261 . S
C191 O186 1.259 . S
C191 O188 1.235 . S
O192 Co182 2.021 . S
O192 C189 1.238 . S
O193 Co187 2.052 . S
O193 C189 1.241 . S
O194 Co182 2.137 1_545 S
O194 C185 1.247 . S
O195 Co182 2.244 1_545 S
O195 C185 1.272 . S
O195 Co187 2.135 1_545 S
Co196 O197 2.216 1_455 S
Co196 O198 2.091 1_455 S
Co196 O200 2.004 . S
Co196 O206 2.021 . S
Co196 O208 2.137 . S
Co196 O209 2.244 . S
O197 Co196 2.216 1_655 S
O197 C204 1.247 . S
O198 Co196 2.091 1_655 S
O198 C204 1.261 . S
C199 O208 1.247 . S
C199 O209 1.272 . S
O200 Co196 2.004 . S
O200 C205 1.259 . S
Co201 O202 2.061 . S
Co201 O207 2.052 . S
Co201 O209 2.135 . S
O202 Co201 2.061 . S
O202 C205 1.235 . S
C203 O206 1.238 . S
C203 O207 1.241 . S
C204 O197 1.247 . S
C204 O198 1.261 . S
C205 O200 1.259 . S
C205 O202 1.235 . S
O206 Co196 2.021 . S
O206 C203 1.238 . S
O207 Co201 2.052 . S
O207 C203 1.241 . S
O208 Co196 2.137 . S
O208 C199 1.247 . S
O209 Co196 2.244 . S
O209 C199 1.272 . S
O209 Co201 2.135 . S
Co210 O211 2.211 1_455 S
Co210 O212 2.098 . S
Co210 O214 2.012 . S
Co210 O220 2.036 . S
Co210 O222 2.118 1_455 S
Co210 O223 2.229 1_455 S
O211 Co210 2.211 1_655 S
O211 C218 1.247 . S
O212 Co210 2.098 . S
O212 C218 1.261 1_455 S
C213 O222 1.247 . S
C213 O223 1.272 . S
O214 Co210 2.012 . S
O214 C219 1.259 . S
Co215 O216 2.061 1_655 S
Co215 O221 2.052 . S
Co215 O223 2.135 . S
O216 Co215 2.061 1_455 S
O216 C219 1.235 . S
C217 O220 1.238 . S
C217 O221 1.241 1_455 S
C218 O211 1.247 . S
C218 O212 1.261 1_655 S
C219 O214 1.259 . S
C219 O216 1.235 . S
O220 Co210 2.036 . S
O220 C217 1.238 . S
O221 Co215 2.052 . S
O221 C217 1.241 1_655 S
O222 Co210 2.118 1_655 S
O222 C213 1.247 . S
O223 Co210 2.229 1_655 S
O223 C213 1.272 . S
O223 Co215 2.135 . S
Co224 O225 2.216 . S
Co224 O226 2.091 . S
Co224 O228 2.004 . S
Co224 O234 2.021 . S
Co224 O236 2.137 . S
Co224 O237 2.244 . S
O225 Co224 2.216 . S
O225 C232 1.247 . S
O226 Co224 2.091 . S
O226 C232 1.261 . S
C227 O236 1.247 . S
C227 O237 1.272 . S
O228 Co224 2.004 . S
O228 C233 1.259 . S
Co229 O230 2.061 . S
Co229 O235 2.052 . S
Co229 O237 2.135 . S
O230 Co229 2.061 . S
O230 C233 1.235 . S
C231 O234 1.238 . S
C231 O235 1.241 . S
C232 O225 1.247 . S
C232 O226 1.261 . S
C233 O228 1.259 . S
C233 O230 1.235 . S
O234 Co224 2.021 . S
O234 C231 1.238 . S
O235 Co229 2.052 . S
O235 C231 1.241 . S
O236 Co224 2.137 . S
O236 C227 1.247 . S
O237 Co224 2.244 . S
O237 C227 1.272 . S
O237 Co229 2.135 . S
Co238 O239 2.216 1_565 S
Co238 O240 2.091 . S
Co238 O242 2.004 . S
Co238 O248 2.021 . S
Co238 O250 2.137 1_565 S
Co238 O251 2.244 1_565 S
O239 Co238 2.216 1_545 S
O239 C246 1.247 . S
O240 Co238 2.091 . S
O240 C246 1.261 1_565 S
C241 O250 1.247 . S
C241 O251 1.272 . S
O242 Co238 2.004 . S
O242 C247 1.259 . S
Co243 O244 2.061 1_545 S
Co243 O249 2.052 . S
Co243 O251 2.135 . S
O244 Co243 2.061 1_565 S
O244 C247 1.235 . S
C245 O248 1.238 . S
C245 O249 1.241 1_565 S
C246 O239 1.247 . S
C246 O240 1.261 1_545 S
C247 O242 1.259 . S
C247 O244 1.235 . S
O248 Co238 2.021 . S
O248 C245 1.238 . S
O249 Co243 2.052 . S
O249 C245 1.241 1_545 S
O250 Co238 2.137 1_545 S
O250 C241 1.247 . S
O251 Co238 2.244 1_545 S
O251 C241 1.272 . S
O251 Co243 2.135 . S
C252 C253 1.363 1_556 S
C252 C258 1.379 . S
C252 N260 1.356 . S
C253 C252 1.363 1_554 S
C253 C259 1.363 1_545 S
C254 C255 1.363 1_554 S
C254 C259 1.379 . S
C254 N261 1.356 . S
C255 C254 1.363 1_556 S
C255 C258 1.363 1_565 S
N256 C258 1.356 . S
N256 H268 0.984 . S
N256 H269 0.985 . S
N257 C259 1.356 . S
N257 H262 0.984 . S
N257 H263 0.985 . S
C258 C252 1.379 . S
C258 C255 1.363 1_545 S
C258 N256 1.356 . S
C259 C253 1.363 1_565 S
C259 C254 1.379 . S
C259 N257 1.356 . S
N260 C252 1.356 . S
N260 H266 0.984 . S
N260 H267 0.984 1_556 S
N261 C254 1.356 . S
N261 H264 0.984 1_554 S
N261 H265 0.985 . S
H262 N257 0.984 . S
H263 N257 0.985 . S
H264 N261 0.984 1_556 S
H265 N261 0.985 . S
H266 N260 0.984 . S
H267 N260 0.984 1_554 S
H268 N256 0.984 . S
H269 N256 0.985 . S
C270 C271 1.363 1_556 S
C270 C276 1.379 1_655 S
C270 N278 1.356 . S
C271 C270 1.363 1_554 S
C271 C277 1.363 . S
C272 C273 1.363 1_554 S
C272 C277 1.379 1_455 S
C272 N279 1.356 . S
C273 C272 1.363 1_556 S
C273 C276 1.363 . S
N274 C276 1.356 . S
N274 H286 0.984 . S
N274 H287 0.985 . S
N275 C277 1.356 . S
N275 H280 0.984 . S
N275 H281 0.985 . S
C276 C270 1.379 1_455 S
C276 C273 1.363 . S
C276 N274 1.356 . S
C277 C271 1.363 . S
C277 C272 1.379 1_655 S
C277 N275 1.356 . S
N278 C270 1.356 . S
N278 H284 0.984 . S
N278 H285 0.984 1_556 S
N279 C272 1.356 . S
N279 H282 0.988 . S
N279 H283 0.985 . S
H280 N275 0.984 . S
H281 N275 0.985 . S
H282 N279 0.988 . S
H283 N279 0.985 . S
H284 N278 0.984 . S
H285 N278 0.984 1_554 S
H286 N274 0.984 . S
H287 N274 0.985 . S
C288 C289 1.363 . S
C288 C294 1.379 . S
C288 N296 1.356 . S
C289 C288 1.363 . S
C289 C295 1.363 1_556 S
C290 C291 1.363 . S
C290 C295 1.379 . S
C290 N297 1.356 . S
C291 C290 1.363 . S
C291 C294 1.363 1_554 S
N292 C294 1.356 . S
N292 H304 0.984 . S
N292 H305 0.985 1_556 S
N293 C295 1.356 . S
N293 H298 0.984 1_554 S
N293 H299 0.985 . S
C294 C288 1.379 . S
C294 C291 1.363 1_556 S
C294 N292 1.356 . S
C295 C289 1.363 1_554 S
C295 C290 1.379 . S
C295 N293 1.356 . S
N296 C288 1.356 . S
N296 H302 0.984 . S
N296 H303 0.984 . S
N297 C290 1.356 . S
N297 H300 0.984 . S
N297 H301 0.985 . S
H298 N293 0.984 1_556 S
H299 N293 0.985 . S
H300 N297 0.984 . S
H301 N297 0.985 . S
H302 N296 0.984 . S
H303 N296 0.984 . S
H304 N292 0.984 . S
H305 N292 0.985 1_554 S
C306 C307 1.363 . S
C306 C312 1.379 . S
C306 N314 1.356 . S
C307 C306 1.363 . S
C307 C313 1.363 . S
C308 C309 1.363 . S
C308 C313 1.379 . S
C308 N315 1.356 . S
C309 C308 1.363 . S
C309 C312 1.363 . S
N310 C312 1.356 . S
N310 H322 0.984 . S
N310 H323 0.985 . S
N311 C313 1.356 . S
N311 H316 0.984 . S
N311 H317 0.985 . S
C312 C306 1.379 . S
C312 C309 1.363 . S
C312 N310 1.356 . S
C313 C307 1.363 . S
C313 C308 1.379 . S
C313 N311 1.356 . S
N314 C306 1.356 . S
N314 H320 0.984 . S
N314 H321 0.984 . S
N315 C308 1.356 . S
N315 H318 0.984 . S
N315 H319 0.985 . S
H316 N311 0.984 . S
H317 N311 0.985 . S
H318 N315 0.984 . S
H319 N315 0.985 . S
H320 N314 0.984 . S
H321 N314 0.984 . S
H322 N310 0.984 . S
H323 N310 0.985 . S
C324 C325 1.363 . S
C324 C330 1.379 . S
C324 N332 1.356 . S
C325 C324 1.363 . S
C325 C331 1.363 . S
C326 C327 1.363 . S
C326 C331 1.379 . S
C326 N333 1.356 . S
C327 C326 1.363 . S
C327 C330 1.363 . S
N328 C330 1.356 . S
N328 H340 0.984 . S
N328 H341 0.985 . S
N329 C331 1.356 . S
N329 H334 0.984 . S
N329 H335 0.985 . S
C330 C324 1.379 . S
C330 C327 1.363 . S
C330 N328 1.356 . S
C331 C325 1.363 . S
C331 C326 1.379 . S
C331 N329 1.356 . S
N332 C324 1.356 . S
N332 H338 0.984 . S
N332 H339 0.984 . S
N333 C326 1.356 . S
N333 H336 0.984 . S
N333 H337 0.985 . S
H334 N329 0.984 . S
H335 N329 0.985 . S
H336 N333 0.984 . S
H337 N333 0.985 . S
H338 N332 0.984 . S
H339 N332 0.984 . S
H340 N328 0.984 . S
H341 N328 0.985 . S
C342 C343 1.363 . S
C342 C348 1.379 . S
C342 N350 1.356 . S
C343 C342 1.363 . S
C343 C349 1.363 . S
C344 C345 1.363 . S
C344 C349 1.379 . S
C344 N351 1.356 . S
C345 C344 1.363 . S
C345 C348 1.363 . S
N346 C348 1.356 . S
N346 H358 0.984 . S
N346 H359 0.985 . S
N347 C349 1.356 . S
N347 H352 0.984 . S
N347 H353 0.985 . S
C348 C342 1.379 . S
C348 C345 1.363 . S
C348 N346 1.356 . S
C349 C343 1.363 . S
C349 C344 1.379 . S
C349 N347 1.356 . S
N350 C342 1.356 . S
N350 H356 0.984 . S
N350 H357 0.984 . S
N351 C344 1.356 . S
N351 H354 0.984 . S
N351 H355 0.985 . S
H352 N347 0.984 . S
H353 N347 0.985 . S
H354 N351 0.984 . S
H355 N351 0.985 . S
H356 N350 0.984 . S
H357 N350 0.984 . S
H358 N346 0.984 . S
H359 N346 0.985 . S
C360 C361 1.363 . S
C360 C366 1.379 . S
C360 N368 1.356 . S
C361 C360 1.363 . S
C361 C367 1.363 . S
C362 C363 1.363 . S
C362 C367 1.379 . S
C362 N369 1.356 . S
C363 C362 1.363 . S
C363 C366 1.363 . S
N364 C366 1.356 . S
N364 H376 0.984 . S
N364 H377 0.985 . S
N365 C367 1.356 . S
N365 H370 0.984 . S
N365 H371 0.985 . S
C366 C360 1.379 . S
C366 C363 1.363 . S
C366 N364 1.356 . S
C367 C361 1.363 . S
C367 C362 1.379 . S
C367 N365 1.356 . S
N368 C360 1.356 . S
N368 H374 0.984 . S
N368 H375 0.984 . S
N369 C362 1.356 . S
N369 H372 0.984 . S
N369 H373 0.985 . S
H370 N365 0.984 . S
H371 N365 0.985 . S
H372 N369 0.984 . S
H373 N369 0.985 . S
H374 N368 0.984 . S
H375 N368 0.984 . S
H376 N364 0.984 . S
H377 N364 0.985 . S
C378 C379 1.363 . S
C378 C384 1.379 . S
C378 N386 1.356 . S
C379 C378 1.363 . S
C379 C385 1.363 . S
C380 C381 1.363 . S
C380 C385 1.379 . S
C380 N387 1.356 . S
C381 C380 1.363 . S
C381 C384 1.363 . S
N382 C384 1.356 . S
N382 H394 0.984 . S
N382 H395 0.985 . S
N383 C385 1.356 . S
N383 H388 0.984 . S
N383 H389 0.985 . S
C384 C378 1.379 . S
C384 C381 1.363 . S
C384 N382 1.356 . S
C385 C379 1.363 . S
C385 C380 1.379 . S
C385 N383 1.356 . S
N386 C378 1.356 . S
N386 H392 0.984 . S
N386 H393 0.984 . S
N387 C380 1.356 . S
N387 H390 0.984 . S
N387 H391 0.985 . S
H388 N383 0.984 . S
H389 N383 0.985 . S
H390 N387 0.984 . S
H391 N387 0.985 . S
H392 N386 0.984 . S
H393 N386 0.984 . S
H394 N382 0.984 . S
H395 N382 0.985 . S
C396 C397 1.363 . S
C396 C402 1.379 . S
C396 N404 1.356 . S
C397 C396 1.363 . S
C397 C403 1.363 . S
C398 C399 1.363 . S
C398 C403 1.379 . S
C398 N405 1.356 . S
C399 C398 1.363 . S
C399 C402 1.363 . S
N400 C402 1.356 . S
N400 H412 0.984 . S
N400 H413 0.985 . S
N401 C403 1.356 . S
N401 H406 0.984 . S
N401 H407 0.985 . S
C402 C396 1.379 . S
C402 C399 1.363 . S
C402 N400 1.356 . S
C403 C397 1.363 . S
C403 C398 1.379 . S
C403 N401 1.356 . S
N404 C396 1.356 . S
N404 H410 0.984 . S
N404 H411 0.984 . S
N405 C398 1.356 . S
N405 H408 0.984 . S
N405 H409 0.985 . S
H406 N401 0.984 . S
H407 N401 0.985 . S
H408 N405 0.984 . S
H409 N405 0.985 . S
H410 N404 0.984 . S
H411 N404 0.984 . S
H412 N400 0.984 . S
H413 N400 0.985 . S
C414 C415 1.363 . S
C414 C420 1.379 . S
C414 N422 1.356 . S
C415 C414 1.363 . S
C415 C421 1.363 . S
C416 C417 1.363 . S
C416 C421 1.379 . S
C416 N423 1.356 . S
C417 C416 1.363 . S
C417 C420 1.363 . S
N418 C420 1.356 . S
N418 H430 0.984 . S
N418 H431 0.985 . S
N419 C421 1.356 . S
N419 H424 0.984 . S
N419 H425 0.985 . S
C420 C414 1.379 . S
C420 C417 1.363 . S
C420 N418 1.356 . S
C421 C415 1.363 . S
C421 C416 1.379 . S
C421 N419 1.356 . S
N422 C414 1.356 . S
N422 H428 0.984 . S
N422 H429 0.984 . S
N423 C416 1.356 . S
N423 H426 0.984 . S
N423 H427 0.985 . S
H424 N419 0.984 . S
H425 N419 0.985 . S
H426 N423 0.984 . S
H427 N423 0.985 . S
H428 N422 0.984 . S
H429 N422 0.984 . S
H430 N418 0.984 . S
H431 N418 0.985 . S
C432 C433 1.363 . S
C432 C438 1.379 . S
C432 N440 1.356 . S
C433 C432 1.363 . S
C433 C439 1.363 . S
C434 C435 1.363 . S
C434 C439 1.379 . S
C434 N441 1.356 . S
C435 C434 1.363 . S
C435 C438 1.363 . S
N436 C438 1.356 . S
N436 H448 0.984 . S
N436 H449 0.985 . S
N437 C439 1.356 . S
N437 H442 0.984 . S
N437 H443 0.985 . S
C438 C432 1.379 . S
C438 C435 1.363 . S
C438 N436 1.356 . S
C439 C433 1.363 . S
C439 C434 1.379 . S
C439 N437 1.356 . S
N440 C432 1.356 . S
N440 H446 0.984 . S
N440 H447 0.984 . S
N441 C434 1.356 . S
N441 H444 0.984 . S
N441 H445 0.985 . S
H442 N437 0.984 . S
H443 N437 0.985 . S
H444 N441 0.984 . S
H445 N441 0.985 . S
H446 N440 0.984 . S
H447 N440 0.984 . S
H448 N436 0.984 . S
H449 N436 0.985 . S
C450 C451 1.363 . S
C450 C456 1.379 . S
C450 N458 1.356 . S
C451 C450 1.363 . S
C451 C457 1.363 . S
C452 C453 1.363 . S
C452 C457 1.379 . S
C452 N459 1.356 . S
C453 C452 1.363 . S
C453 C456 1.363 . S
N454 C456 1.356 . S
N454 H466 0.984 . S
N454 H467 0.985 . S
N455 C457 1.356 . S
N455 H460 0.984 . S
N455 H461 0.985 . S
C456 C450 1.379 . S
C456 C453 1.363 . S
C456 N454 1.356 . S
C457 C451 1.363 . S
C457 C452 1.379 . S
C457 N455 1.356 . S
N458 C450 1.356 . S
N458 H464 0.984 . S
N458 H465 0.984 . S
N459 C452 1.356 . S
N459 H462 0.984 . S
N459 H463 0.985 . S
H460 N455 0.984 . S
H461 N455 0.985 . S
H462 N459 0.984 . S
H463 N459 0.985 . S
H464 N458 0.984 . S
H465 N458 0.984 . S
H466 N454 0.984 . S
H467 N454 0.985 . S
C468 C469 1.363 . S
C468 C474 1.379 . S
C468 N476 1.356 . S
C469 C468 1.363 . S
C469 C475 1.363 . S
C470 C471 1.363 . S
C470 C475 1.379 . S
C470 N477 1.356 . S
C471 C470 1.363 . S
C471 C474 1.363 . S
N472 C474 1.356 . S
N472 H484 0.984 . S
N472 H485 0.985 . S
N473 C475 1.356 . S
N473 H478 0.984 . S
N473 H479 0.985 . S
C474 C468 1.379 . S
C474 C471 1.363 . S
C474 N472 1.356 . S
C475 C469 1.363 . S
C475 C470 1.379 . S
C475 N473 1.356 . S
N476 C468 1.356 . S
N476 H482 0.984 . S
N476 H483 0.984 . S
N477 C470 1.356 . S
N477 H480 0.984 . S
N477 H481 0.985 . S
H478 N473 0.984 . S
H479 N473 0.985 . S
H480 N477 0.984 . S
H481 N477 0.985 . S
H482 N476 0.984 . S
H483 N476 0.984 . S
H484 N472 0.984 . S
H485 N472 0.985 . S
C486 C487 1.363 . S
C486 C492 1.379 . S
C486 N494 1.356 . S
C487 C486 1.363 . S
C487 C493 1.363 . S
C488 C489 1.363 . S
C488 C493 1.379 . S
C488 N495 1.356 . S
C489 C488 1.363 . S
C489 C492 1.363 . S
N490 C492 1.356 . S
N490 H502 0.984 . S
N490 H503 0.985 . S
N491 C493 1.356 . S
N491 H496 0.984 . S
N491 H497 0.985 . S
C492 C486 1.379 . S
C492 C489 1.363 . S
C492 N490 1.356 . S
C493 C487 1.363 . S
C493 C488 1.379 . S
C493 N491 1.356 . S
N494 C486 1.356 . S
N494 H500 0.984 . S
N494 H501 0.984 . S
N495 C488 1.356 . S
N495 H498 0.984 . S
N495 H499 0.985 . S
H496 N491 0.984 . S
H497 N491 0.985 . S
H498 N495 0.984 . S
H499 N495 0.985 . S
H500 N494 0.984 . S
H501 N494 0.984 . S
H502 N490 0.984 . S
H503 N490 0.985 . S
C504 C505 1.363 . S
C504 C510 1.379 . S
C504 N512 1.356 . S
C505 C504 1.363 . S
C505 C511 1.363 . S
C506 C507 1.363 . S
C506 C511 1.379 . S
C506 N513 1.356 . S
C507 C506 1.363 . S
C507 C510 1.363 . S
N508 C510 1.356 . S
N508 H520 0.984 . S
N508 H521 0.985 . S
N509 C511 1.356 . S
N509 H514 0.984 . S
N509 H515 0.985 . S
C510 C504 1.379 . S
C510 C507 1.363 . S
C510 N508 1.356 . S
C511 C505 1.363 . S
C511 C506 1.379 . S
C511 N509 1.356 . S
N512 C504 1.356 . S
N512 H518 0.984 . S
N512 H519 0.984 . S
N513 C506 1.356 . S
N513 H516 0.984 . S
N513 H517 0.985 . S
H514 N509 0.984 . S
H515 N509 0.985 . S
H516 N513 0.984 . S
H517 N513 0.985 . S
H518 N512 0.984 . S
H519 N512 0.984 . S
H520 N508 0.984 . S
H521 N508 0.985 . S
C522 C523 1.363 . S
C522 C528 1.379 . S
C522 N530 1.356 . S
C523 C522 1.363 . S
C523 C529 1.363 1_455 S
C524 C525 1.363 . S
C524 C529 1.379 . S
C524 N531 1.356 . S
C525 C524 1.363 . S
C525 C528 1.363 1_655 S
N526 C528 1.356 . S
N526 H538 0.984 . S
N526 H539 0.985 . S
N527 C529 1.356 . S
N527 H532 0.984 . S
N527 H533 0.985 . S
C528 C522 1.379 . S
C528 C525 1.363 1_455 S
C528 N526 1.356 . S
C529 C523 1.363 1_655 S
C529 C524 1.379 . S
C529 N527 1.356 . S
N530 C522 1.356 . S
N530 H536 0.984 . S
N530 H537 0.984 . S
N531 C524 1.356 . S
N531 H534 0.984 . S
N531 H535 0.985 . S
H532 N527 0.984 . S
H533 N527 0.985 . S
H534 N531 0.984 . S
H535 N531 0.985 . S
H536 N530 0.984 . S
H537 N530 0.984 . S
H538 N526 0.984 . S
H539 N526 0.985 . S
C540 C541 1.363 . S
C540 C546 1.379 . S
C540 N548 1.356 . S
C541 C540 1.363 . S
C541 C547 1.363 . S
C542 C543 1.363 . S
C542 C547 1.379 . S
C542 N549 1.356 . S
C543 C542 1.363 . S
C543 C546 1.363 . S
N544 C546 1.356 . S
N544 H556 0.984 . S
N544 H557 0.985 . S
N545 C547 1.356 . S
N545 H550 0.984 . S
N545 H551 0.985 . S
C546 C540 1.379 . S
C546 C543 1.363 . S
C546 N544 1.356 . S
C547 C541 1.363 . S
C547 C542 1.379 . S
C547 N545 1.356 . S
N548 C540 1.356 . S
N548 H554 0.984 . S
N548 H555 0.984 . S
N549 C542 1.356 . S
N549 H552 0.984 . S
N549 H553 0.985 . S
H550 N545 0.984 . S
H551 N545 0.985 . S
H552 N549 0.984 . S
H553 N549 0.985 . S
H554 N548 0.984 . S
H555 N548 0.984 . S
H556 N544 0.984 . S
H557 N544 0.985 . S
C558 C559 1.363 . S
C558 C564 1.379 . S
C558 N566 1.356 . S
C559 C558 1.363 . S
C559 C565 1.363 1_545 S
C560 C561 1.363 . S
C560 C565 1.379 . S
C560 N567 1.356 . S
C561 C560 1.363 . S
C561 C564 1.363 1_565 S
N562 C564 1.356 . S
N562 H574 0.984 . S
N562 H575 0.985 . S
N563 C565 1.356 . S
N563 H568 0.984 . S
N563 H569 0.985 . S
C564 C558 1.379 . S
C564 C561 1.363 1_545 S
C564 N562 1.356 . S
C565 C559 1.363 1_565 S
C565 C560 1.379 . S
C565 N563 1.356 . S
N566 C558 1.356 . S
N566 H572 0.984 . S
N566 H573 0.984 . S
N567 C560 1.356 . S
N567 H570 0.984 . S
N567 H571 0.985 . S
H568 N563 0.984 . S
H569 N563 0.985 . S
H570 N567 0.984 . S
H571 N567 0.985 . S
H572 N566 0.984 . S
H573 N566 0.984 . S
H574 N562 0.984 . S
H575 N562 0.985 . S
C576 C577 1.363 . S
C576 C582 1.379 . S
C576 N584 1.356 . S
C577 C576 1.363 . S
C577 C583 1.363 . S
C578 C579 1.363 . S
C578 C583 1.379 1_556 S
C578 N585 1.356 . S
C579 C578 1.363 . S
C579 C582 1.363 1_556 S
N580 C582 1.356 . S
N580 H592 0.984 . S
N580 H593 0.985 1_554 S
N581 C583 1.356 . S
N581 H586 0.984 1_565 S
N581 H587 0.998 1_554 S
C582 C576 1.379 . S
C582 C579 1.363 1_554 S
C582 N580 1.356 . S
C583 C577 1.363 . S
C583 C578 1.379 1_554 S
C583 N581 1.356 . S
N584 C576 1.356 . S
N584 H590 0.984 . S
N584 H591 0.984 . S
N585 C578 1.356 . S
N585 H588 0.984 . S
N585 H589 0.985 . S
H586 N581 0.984 1_545 S
H587 N581 0.998 1_556 S
H588 N585 0.984 . S
H589 N585 0.985 . S
H590 N584 0.984 . S
H591 N584 0.984 . S
H592 N580 0.984 . S
H593 N580 0.985 1_556 S
C594 C595 1.363 . S
C594 C600 1.379 . S
C594 N602 1.356 . S
C595 C594 1.363 . S
C595 C601 1.363 1_554 S
C596 C597 1.363 . S
C596 C601 1.379 . S
C596 N603 1.356 . S
C597 C596 1.363 . S
C597 C600 1.363 1_556 S
N598 C600 1.356 . S
N598 H610 0.984 . S
N598 H611 0.985 1_554 S
N599 C601 1.356 . S
N599 H604 0.984 1_556 S
N599 H605 0.985 . S
C600 C594 1.379 . S
C600 C597 1.363 1_554 S
C600 N598 1.356 . S
C601 C595 1.363 1_556 S
C601 C596 1.379 . S
C601 N599 1.356 . S
N602 C594 1.356 . S
N602 H608 0.984 . S
N602 H609 0.984 . S
N603 C596 1.356 . S
N603 H606 0.984 . S
N603 H607 0.985 . S
H604 N599 0.984 1_554 S
H605 N599 0.985 . S
H606 N603 0.984 . S
H607 N603 0.985 . S
H608 N602 0.984 . S
H609 N602 0.984 . S
H610 N598 0.984 . S
H611 N598 0.985 1_556 S
C612 C613 1.363 1_556 S
C612 C618 1.379 . S
C612 N620 1.356 . S
C613 C612 1.363 1_554 S
C613 C619 1.363 . S
C614 C615 1.363 1_554 S
C614 C619 1.379 . S
C614 N621 1.356 . S
C615 C614 1.363 1_556 S
C615 C618 1.363 . S
N616 C618 1.356 . S
N616 H628 0.984 . S
N616 H629 0.985 . S
N617 C619 1.356 . S
N617 H622 0.984 . S
N617 H623 0.985 . S
C618 C612 1.379 . S
C618 C615 1.363 . S
C618 N616 1.356 . S
C619 C613 1.363 . S
C619 C614 1.379 . S
C619 N617 1.356 . S
N620 C612 1.356 . S
N620 H626 0.984 . S
N620 H627 0.984 1_556 S
N621 C614 1.356 . S
N621 H624 0.984 1_554 S
N621 H625 0.985 . S
H622 N617 0.984 . S
H623 N617 0.985 . S
H624 N621 0.984 1_556 S
H625 N621 0.985 . S
H626 N620 0.984 . S
H627 N620 0.984 1_554 S
H628 N616 0.984 . S
H629 N616 0.985 . S
C630 C631 1.363 1_554 S
C630 C636 1.379 . S
C630 N638 1.356 . S
C631 C630 1.363 1_556 S
C631 C637 1.363 . S
C632 C633 1.363 1_556 S
C632 C637 1.379 . S
C632 N639 1.356 . S
C633 C632 1.363 1_554 S
C633 C636 1.363 . S
N634 C636 1.356 . S
N634 H646 0.984 . S
N634 H647 0.985 . S
N635 C637 1.356 . S
N635 H640 0.984 . S
N635 H641 0.985 . S
C636 C630 1.379 . S
C636 C633 1.363 . S
C636 N634 1.356 . S
C637 C631 1.363 . S
C637 C632 1.379 . S
C637 N635 1.356 . S
N638 C630 1.356 . S
N638 H644 0.984 1_545 S
N638 H645 0.984 1_544 S
N639 C632 1.356 . S
N639 H642 0.984 . S
N639 H643 0.985 . S
H640 N635 0.984 . S
H641 N635 0.985 . S
H642 N639 0.984 . S
H643 N639 0.985 . S
H644 N638 0.984 1_565 S
H645 N638 0.984 1_566 S
H646 N634 0.984 . S
H647 N634 0.985 . S
C648 C649 1.363 . S
C648 C654 1.379 . S
C648 N656 1.356 . S
C649 C648 1.363 . S
C649 C655 1.363 1_554 S
C650 C651 1.363 . S
C650 C655 1.379 . S
C650 N657 1.356 . S
C651 C650 1.363 . S
C651 C654 1.363 1_556 S
N652 C654 1.356 . S
N652 H664 0.984 . S
N652 H665 0.985 1_554 S
N653 C655 1.356 . S
N653 H658 0.984 . S
N653 H659 0.985 . S
C654 C648 1.379 . S
C654 C651 1.363 1_554 S
C654 N652 1.356 . S
C655 C649 1.363 1_556 S
C655 C650 1.379 . S
C655 N653 1.356 . S
N656 C648 1.356 . S
N656 H662 0.984 . S
N656 H663 0.984 . S
N657 C650 1.356 . S
N657 H660 0.984 . S
N657 H661 0.985 . S
H658 N653 0.984 . S
H659 N653 0.985 . S
H660 N657 0.984 . S
H661 N657 0.985 . S
H662 N656 0.984 . S
H663 N656 0.984 . S
H664 N652 0.984 . S
H665 N652 0.985 1_556 S
C666 C667 1.363 . S
C666 C672 1.379 . S
C666 N674 1.356 . S
C667 C666 1.363 . S
C667 C673 1.363 1_556 S
C668 C669 1.363 . S
C668 C673 1.379 . S
C668 N675 1.356 . S
C669 C668 1.363 . S
C669 C672 1.363 1_554 S
N670 C672 1.356 . S
N670 H682 0.984 . S
N670 H683 0.985 . S
N671 C673 1.356 . S
N671 H676 0.984 . S
N671 H677 0.985 . S
C672 C666 1.379 . S
C672 C669 1.363 1_556 S
C672 N670 1.356 . S
C673 C667 1.363 1_554 S
C673 C668 1.379 . S
C673 N671 1.356 . S
N674 C666 1.356 . S
N674 H680 0.984 . S
N674 H681 0.984 . S
N675 C668 1.356 . S
N675 H678 0.984 . S
N675 H679 0.985 . S
H676 N671 0.984 . S
H677 N671 0.985 . S
H678 N675 0.984 . S
H679 N675 0.985 . S
H680 N674 0.984 . S
H681 N674 0.984 . S
H682 N670 0.984 . S
H683 N670 0.985 . S
C684 C685 1.363 . S
C684 C690 1.379 . S
C684 N692 1.356 . S
C685 C684 1.363 . S
C685 C691 1.363 . S
C686 C687 1.363 . S
C686 C691 1.379 . S
C686 N693 1.356 . S
C687 C686 1.363 . S
C687 C690 1.363 . S
N688 C690 1.356 . S
N688 H700 0.984 . S
N688 H701 0.985 . S
N689 C691 1.356 . S
N689 H694 0.984 . S
N689 H695 0.985 . S
C690 C684 1.379 . S
C690 C687 1.363 . S
C690 N688 1.356 . S
C691 C685 1.363 . S
C691 C686 1.379 . S
C691 N689 1.356 . S
N692 C684 1.356 . S
N692 H698 0.984 . S
N692 H699 0.984 . S
N693 C686 1.356 . S
N693 H696 0.984 . S
N693 H697 0.985 . S
H694 N689 0.984 . S
H695 N689 0.985 . S
H696 N693 0.984 . S
H697 N693 0.985 . S
H698 N692 0.984 . S
H699 N692 0.984 . S
H700 N688 0.984 . S
H701 N688 0.985 . S
C702 C703 1.363 . S
C702 C708 1.379 . S
C702 N710 1.356 . S
C703 C702 1.363 . S
C703 C709 1.363 . S
C704 C705 1.363 . S
C704 C709 1.379 . S
C704 N711 1.356 . S
C705 C704 1.363 . S
C705 C708 1.363 . S
N706 C708 1.356 . S
N706 H718 0.984 . S
N706 H719 0.985 . S
N707 C709 1.356 . S
N707 H712 0.984 . S
N707 H713 0.985 . S
C708 C702 1.379 . S
C708 C705 1.363 . S
C708 N706 1.356 . S
C709 C703 1.363 . S
C709 C704 1.379 . S
C709 N707 1.356 . S
N710 C702 1.356 . S
N710 H716 0.984 . S
N710 H717 0.984 . S
N711 C704 1.356 . S
N711 H714 0.984 . S
N711 H715 0.985 . S
H712 N707 0.984 . S
H713 N707 0.985 . S
H714 N711 0.984 . S
H715 N711 0.985 . S
H716 N710 0.984 . S
H717 N710 0.984 . S
H718 N706 0.984 . S
H719 N706 0.985 . S
C720 C721 1.363 . S
C720 C726 1.379 . S
C720 N728 1.356 . S
C721 C720 1.363 . S
C721 C727 1.363 . S
C722 C723 1.363 . S
C722 C727 1.379 . S
C722 N729 1.356 . S
C723 C722 1.363 . S
C723 C726 1.363 . S
N724 C726 1.356 . S
N724 H736 0.984 . S
N724 H737 0.985 . S
N725 C727 1.356 . S
N725 H730 0.984 . S
N725 H731 0.985 . S
C726 C720 1.379 . S
C726 C723 1.363 . S
C726 N724 1.356 . S
C727 C721 1.363 . S
C727 C722 1.379 . S
C727 N725 1.356 . S
N728 C720 1.356 . S
N728 H734 0.984 . S
N728 H735 0.984 . S
N729 C722 1.356 . S
N729 H732 0.984 . S
N729 H733 0.985 . S
H730 N725 0.984 . S
H731 N725 0.985 . S
H732 N729 0.984 . S
H733 N729 0.985 . S
H734 N728 0.984 . S
H735 N728 0.984 . S
H736 N724 0.984 . S
H737 N724 0.985 . S
C738 C739 1.363 . S
C738 C744 1.379 . S
C738 N746 1.356 . S
C739 C738 1.363 . S
C739 C745 1.363 . S
C740 C741 1.363 . S
C740 C745 1.379 . S
C740 N747 1.356 . S
C741 C740 1.363 . S
C741 C744 1.363 . S
N742 C744 1.356 . S
N742 H754 0.984 . S
N742 H755 0.985 . S
N743 C745 1.356 . S
N743 H748 0.984 . S
N743 H749 0.985 . S
C744 C738 1.379 . S
C744 C741 1.363 . S
C744 N742 1.356 . S
C745 C739 1.363 . S
C745 C740 1.379 . S
C745 N743 1.356 . S
N746 C738 1.356 . S
N746 H752 0.984 . S
N746 H753 0.984 . S
N747 C740 1.356 . S
N747 H750 0.984 . S
N747 H751 0.985 . S
H748 N743 0.984 . S
H749 N743 0.985 . S
H750 N747 0.984 . S
H751 N747 0.985 . S
H752 N746 0.984 . S
H753 N746 0.984 . S
H754 N742 0.984 . S
H755 N742 0.985 . S
C756 C757 1.363 1_565 S
C756 C762 1.379 . S
C756 N764 1.356 . S
C757 C756 1.363 1_545 S
C757 C763 1.363 . S
C758 C759 1.363 . S
C758 C763 1.379 . S
C758 N765 1.356 . S
C759 C758 1.363 . S
C759 C762 1.363 1_545 S
N760 C762 1.356 . S
N760 H772 0.984 . S
N760 H773 0.985 . S
N761 C763 1.356 . S
N761 H766 0.984 . S
N761 H767 0.985 . S
C762 C756 1.379 . S
C762 C759 1.363 1_565 S
C762 N760 1.356 . S
C763 C757 1.363 . S
C763 C758 1.379 . S
C763 N761 1.356 . S
N764 C756 1.356 . S
N764 H770 0.984 . S
N764 H771 0.984 . S
N765 C758 1.356 . S
N765 H768 0.984 . S
N765 H769 0.985 . S
H766 N761 0.984 . S
H767 N761 0.985 . S
H768 N765 0.984 . S
H769 N765 0.985 . S
H770 N764 0.984 . S
H771 N764 0.984 . S
H772 N760 0.984 . S
H773 N760 0.985 . S
C774 C775 1.363 . S
C774 C780 1.379 . S
C774 N782 1.356 . S
C775 C774 1.363 . S
C775 C781 1.363 1_655 S
C776 C777 1.363 1_455 S
C776 C781 1.379 . S
C776 N783 1.356 . S
C777 C776 1.363 1_655 S
C777 C780 1.363 . S
N778 C780 1.356 . S
N778 H790 0.984 . S
N778 H791 0.985 . S
N779 C781 1.356 . S
N779 H784 0.984 . S
N779 H785 0.985 . S
C780 C774 1.379 . S
C780 C777 1.363 . S
C780 N778 1.356 . S
C781 C775 1.363 1_455 S
C781 C776 1.379 . S
C781 N779 1.356 . S
N782 C774 1.356 . S
N782 H788 0.984 . S
N782 H789 0.984 . S
N783 C776 1.356 . S
N783 H786 0.984 . S
N783 H787 0.985 . S
H784 N779 0.984 . S
H785 N779 0.985 . S
H786 N783 0.984 . S
H787 N783 0.985 . S
H788 N782 0.984 . S
H789 N782 0.984 . S
H790 N778 0.984 . S
H791 N778 0.985 . S
C792 C793 1.363 . S
C792 C798 1.379 . S
C792 N800 1.356 . S
C793 C792 1.363 . S
C793 C799 1.363 . S
C794 C795 1.363 . S
C794 C799 1.379 . S
C794 N801 1.356 . S
C795 C794 1.363 . S
C795 C798 1.363 . S
N796 C798 1.356 . S
N796 H808 0.984 . S
N796 H809 0.985 . S
N797 C799 1.356 . S
N797 H802 0.984 . S
N797 H803 0.985 . S
C798 C792 1.379 . S
C798 C795 1.363 . S
C798 N796 1.356 . S
C799 C793 1.363 . S
C799 C794 1.379 . S
C799 N797 1.356 . S
N800 C792 1.356 . S
N800 H806 0.984 . S
N800 H807 0.984 . S
N801 C794 1.356 . S
N801 H804 0.984 . S
N801 H805 0.985 . S
H802 N797 0.984 . S
H803 N797 0.985 . S
H804 N801 0.984 . S
H805 N801 0.985 . S
H806 N800 0.984 . S
H807 N800 0.984 . S
H808 N796 0.984 . S
H809 N796 0.985 . S
C810 C811 1.363 1_545 S
C810 C816 1.379 . S
C810 N818 1.356 . S
C811 C810 1.363 1_565 S
C811 C817 1.363 . S
C812 C813 1.363 . S
C812 C817 1.379 . S
C812 N819 1.356 . S
C813 C812 1.363 . S
C813 C816 1.363 1_565 S
N814 C816 1.356 . S
N814 H826 0.984 . S
N814 H827 0.985 . S
N815 C817 1.356 . S
N815 H820 0.984 . S
N815 H821 0.985 . S
C816 C810 1.379 . S
C816 C813 1.363 1_545 S
C816 N814 1.356 . S
C817 C811 1.363 . S
C817 C812 1.379 . S
C817 N815 1.356 . S
N818 C810 1.356 . S
N818 H824 0.984 . S
N818 H825 0.984 . S
N819 C812 1.356 . S
N819 H822 0.984 . S
N819 H823 0.985 . S
H820 N815 0.984 . S
H821 N815 0.985 . S
H822 N819 0.984 . S
H823 N819 0.985 . S
H824 N818 0.984 . S
H825 N818 0.984 . S
H826 N814 0.984 . S
H827 N814 0.985 . S
C828 C829 1.363 . S
C828 C834 1.379 . S
C828 N836 1.356 . S
C829 C828 1.363 . S
C829 C835 1.363 . S
C830 C831 1.363 . S
C830 C835 1.379 . S
C830 N837 1.356 . S
C831 C830 1.363 . S
C831 C834 1.363 . S
N832 C834 1.356 . S
N832 H844 0.984 . S
N832 H845 0.985 . S
N833 C835 1.356 . S
N833 H838 0.984 . S
N833 H839 0.985 . S
C834 C828 1.379 . S
C834 C831 1.363 . S
C834 N832 1.356 . S
C835 C829 1.363 . S
C835 C830 1.379 . S
C835 N833 1.356 . S
N836 C828 1.356 . S
N836 H842 0.984 . S
N836 H843 0.984 . S
N837 C830 1.356 . S
N837 H840 0.984 . S
N837 H841 0.985 . S
H838 N833 0.984 . S
H839 N833 0.985 . S
H840 N837 0.984 . S
H841 N837 0.985 . S
H842 N836 0.984 . S
H843 N836 0.984 . S
H844 N832 0.984 . S
H845 N832 0.985 . S
C846 C847 1.363 . S
C846 C852 1.379 . S
C846 N854 1.356 . S
C847 C846 1.363 . S
C847 C853 1.363 . S
C848 C849 1.363 . S
C848 C853 1.379 . S
C848 N855 1.356 . S
C849 C848 1.363 . S
C849 C852 1.363 . S
N850 C852 1.356 . S
N850 H862 0.984 . S
N850 H863 0.985 . S
N851 C853 1.356 . S
N851 H856 0.984 . S
N851 H857 0.985 . S
C852 C846 1.379 . S
C852 C849 1.363 . S
C852 N850 1.356 . S
C853 C847 1.363 . S
C853 C848 1.379 . S
C853 N851 1.356 . S
N854 C846 1.356 . S
N854 H860 0.984 . S
N854 H861 0.984 . S
N855 C848 1.356 . S
N855 H858 0.984 . S
N855 H859 0.985 . S
H856 N851 0.984 . S
H857 N851 0.985 . S
H858 N855 0.984 . S
H859 N855 0.985 . S
H860 N854 0.984 . S
H861 N854 0.984 . S
H862 N850 0.984 . S
H863 N850 0.985 . S
C864 C865 1.363 . S
C864 C870 1.379 . S
C864 N872 1.356 . S
C865 C864 1.363 . S
C865 C871 1.363 . S
C866 C867 1.363 . S
C866 C871 1.379 . S
C866 N873 1.356 . S
C867 C866 1.363 . S
C867 C870 1.363 . S
N868 C870 1.356 . S
N868 H880 0.984 . S
N868 H881 0.985 . S
N869 C871 1.356 . S
N869 H874 0.984 . S
N869 H875 0.985 . S
C870 C864 1.379 . S
C870 C867 1.363 . S
C870 N868 1.356 . S
C871 C865 1.363 . S
C871 C866 1.379 . S
C871 N869 1.356 . S
N872 C864 1.356 . S
N872 H878 0.984 . S
N872 H879 0.984 . S
N873 C866 1.356 . S
N873 H876 0.984 . S
N873 H877 0.985 . S
H874 N869 0.984 . S
H875 N869 0.985 . S
H876 N873 0.984 . S
H877 N873 0.985 . S
H878 N872 0.984 . S
H879 N872 0.984 . S
H880 N868 0.984 . S
H881 N868 0.985 . S
C882 C883 1.363 . S
C882 C888 1.379 . S
C882 N890 1.356 . S
C883 C882 1.363 . S
C883 C889 1.363 . S
C884 C885 1.363 . S
C884 C889 1.379 . S
C884 N891 1.356 . S
C885 C884 1.363 . S
C885 C888 1.363 . S
N886 C888 1.356 . S
N886 H898 0.984 . S
N886 H899 0.985 . S
N887 C889 1.356 . S
N887 H892 0.984 . S
N887 H893 0.985 . S
C888 C882 1.379 . S
C888 C885 1.363 . S
C888 N886 1.356 . S
C889 C883 1.363 . S
C889 C884 1.379 . S
C889 N887 1.356 . S
N890 C882 1.356 . S
N890 H896 0.984 . S
N890 H897 0.984 . S
N891 C884 1.356 . S
N891 H894 0.984 . S
N891 H895 0.985 . S
H892 N887 0.984 . S
H893 N887 0.985 . S
H894 N891 0.984 . S
H895 N891 0.985 . S
H896 N890 0.984 . S
H897 N890 0.984 . S
H898 N886 0.984 . S
H899 N886 0.985 . S
C253 C8 2.008 . S
C255 C45 2.030 . S
C271 C17 1.974 . S
C273 C59 1.977 . S
C289 C73 1.963 . S
C291 C36 1.946 . S
C307 C92 2.003 . S
C309 C129 2.025 . S
C325 C101 1.974 . S
C327 C143 1.977 . S
C343 C157 1.956 . S
C345 C120 1.939 . S
C361 C213 2.026 . S
C363 C176 2.001 . S
C379 C227 1.977 . S
C381 C185 1.974 . S
C397 C241 1.957 . S
C399 C204 1.939 . S
C415 C3 1.753 . S
C417 C134 1.764 . S
C433 C22 1.742 . S
C435 C148 1.739 . S
C451 C162 1.721 . S
C453 C31 1.705 . S
C469 C50 1.765 . S
C471 C171 1.753 . S
C487 C64 1.739 . S
C489 C190 1.741 . S
C505 C78 1.721 . S
C507 C199 1.705 . S
C523 C87 1.762 . S
C525 C218 1.775 . S
C541 C106 1.746 . S
C543 C232 1.743 . S
C559 C246 1.716 . S
C561 C115 1.699 . S
C577 C7 0.755 . S
C579 C63 0.756 . S
C595 C23 0.732 . S
C597 C77 0.732 . S
C613 C35 0.736 . S
C615 C49 0.736 . S
C631 C51 0.797 . S
C633 C21 0.796 . S
C649 C37 0.823 . S
C651 C65 0.825 . S
C667 C79 0.826 . S
C669 C9 0.827 . S
C685 C91 0.769 . S
C687 C147 0.771 . S
C703 C161 0.735 . S
C705 C107 0.735 . S
C721 C133 0.741 . S
C723 C119 0.743 . S
C739 C105 0.793 . S
C741 C135 0.793 . S
C757 C149 0.829 . S
C759 C121 0.826 . S
C775 C163 0.821 . S
C777 C93 0.823 . S
C793 C231 0.752 . S
C795 C175 0.752 . S
C811 C245 0.736 . S
C813 C191 0.735 . S
C829 C203 0.731 . S
C831 C217 0.732 . S
C847 C189 0.809 . S
C849 C219 0.812 . S
C865 C205 0.824 . S
C867 C233 0.825 . S
C883 C177 0.832 . S
C885 C247 0.834 . S
