# Generated by pormake.
# Topology wne, (6)-cn, num edge types: 1
# Building blocks:
#     Node 0, Type 0, BuildingBlock: CUKXOW_clean_sbu_0, # of connection points: 6
#     Node 1, Type 0, BuildingBlock: CUKXOW_clean_sbu_0, # of connection points: 6
#     Node 2, Type 0, BuildingBlock: CUKXOW_clean_sbu_0, # of connection points: 6
#     Node 3, Type 0, BuildingBlock: CUKXOW_clean_sbu_0, # of connection points: 6
#     Node 4, Type 0, BuildingBlock: CUKXOW_clean_sbu_0, # of connection points: 6
#     Node 5, Type 0, BuildingBlock: CUKXOW_clean_sbu_0, # of connection points: 6
#     Node 6, Type 0, BuildingBlock: CUKXOW_clean_sbu_0, # of connection points: 6
#     Node 7, Type 0, BuildingBlock: CUKXOW_clean_sbu_0, # of connection points: 6
#     Node 8, Type 0, BuildingBlock: CUKXOW_clean_sbu_0, # of connection points: 6
#     Node 9, Type 0, BuildingBlock: CUKXOW_clean_sbu_0, # of connection points: 6
#     Node 10, Type 0, BuildingBlock: CUKXOW_clean_sbu_0, # of connection points: 6
#     Node 11, Type 0, BuildingBlock: CUKXOW_clean_sbu_0, # of connection points: 6
#     Node 12, Type 0, BuildingBlock: CUKXOW_clean_sbu_0, # of connection points: 6
#     Node 13, Type 0, BuildingBlock: CUKXOW_clean_sbu_0, # of connection points: 6
#     Node 14, Type 0, BuildingBlock: CUKXOW_clean_sbu_0, # of connection points: 6
#     Node 15, Type 0, BuildingBlock: CUKXOW_clean_sbu_0, # of connection points: 6
#     Node 16, Type 0, BuildingBlock: CUKXOW_clean_sbu_0, # of connection points: 6
#     Node 17, Type 0, BuildingBlock: CUKXOW_clean_sbu_0, # of connection points: 6
#     Node 18, Type 0, BuildingBlock: CUKXOW_clean_sbu_0, # of connection points: 6
#     Node 19, Type 0, BuildingBlock: CUKXOW_clean_sbu_0, # of connection points: 6
#     Node 20, Type 0, BuildingBlock: CUKXOW_clean_sbu_0, # of connection points: 6
#     Node 21, Type 0, BuildingBlock: CUKXOW_clean_sbu_0, # of connection points: 6
#     Node 22, Type 0, BuildingBlock: CUKXOW_clean_sbu_0, # of connection points: 6
#     Node 23, Type 0, BuildingBlock: CUKXOW_clean_sbu_0, # of connection points: 6
#     Node 24, Type 0, BuildingBlock: CUKXOW_clean_sbu_0, # of connection points: 6
#     Node 25, Type 0, BuildingBlock: CUKXOW_clean_sbu_0, # of connection points: 6
#     Node 26, Type 0, BuildingBlock: CUKXOW_clean_sbu_0, # of connection points: 6
#     Node 27, Type 0, BuildingBlock: CUKXOW_clean_sbu_0, # of connection points: 6
#     Node 28, Type 0, BuildingBlock: CUKXOW_clean_sbu_0, # of connection points: 6
#     Node 29, Type 0, BuildingBlock: CUKXOW_clean_sbu_0, # of connection points: 6
#     Node 30, Type 0, BuildingBlock: CUKXOW_clean_sbu_0, # of connection points: 6
#     Node 31, Type 0, BuildingBlock: CUKXOW_clean_sbu_0, # of connection points: 6
#     Node 32, Type 0, BuildingBlock: CUKXOW_clean_sbu_0, # of connection points: 6
#     Node 33, Type 0, BuildingBlock: CUKXOW_clean_sbu_0, # of connection points: 6
#     Node 34, Type 0, BuildingBlock: CUKXOW_clean_sbu_0, # of connection points: 6
#     Node 35, Type 0, BuildingBlock: CUKXOW_clean_sbu_0, # of connection points: 6
#     Edge 36, Type (0, 0), BuildingBlock: AJUNOK_clean_linker_0, # of connection points: 2
#     Edge 37, Type (0, 0), BuildingBlock: AJUNOK_clean_linker_0, # of connection points: 2
#     Edge 38, Type (0, 0), BuildingBlock: AJUNOK_clean_linker_0, # of connection points: 2
#     Edge 39, Type (0, 0), BuildingBlock: AJUNOK_clean_linker_0, # of connection points: 2
#     Edge 40, Type (0, 0), BuildingBlock: AJUNOK_clean_linker_0, # of connection points: 2
#     Edge 41, Type (0, 0), BuildingBlock: AJUNOK_clean_linker_0, # of connection points: 2
#     Edge 42, Type (0, 0), BuildingBlock: AJUNOK_clean_linker_0, # of connection points: 2
#     Edge 43, Type (0, 0), BuildingBlock: AJUNOK_clean_linker_0, # of connection points: 2
#     Edge 44, Type (0, 0), BuildingBlock: AJUNOK_clean_linker_0, # of connection points: 2
#     Edge 45, Type (0, 0), BuildingBlock: AJUNOK_clean_linker_0, # of connection points: 2
#     Edge 46, Type (0, 0), BuildingBlock: AJUNOK_clean_linker_0, # of connection points: 2
#     Edge 47, Type (0, 0), BuildingBlock: AJUNOK_clean_linker_0, # of connection points: 2
#     Edge 48, Type (0, 0), BuildingBlock: AJUNOK_clean_linker_0, # of connection points: 2
#     Edge 49, Type (0, 0), BuildingBlock: AJUNOK_clean_linker_0, # of connection points: 2
#     Edge 50, Type (0, 0), BuildingBlock: AJUNOK_clean_linker_0, # of connection points: 2
#     Edge 51, Type (0, 0), BuildingBlock: AJUNOK_clean_linker_0, # of connection points: 2
#     Edge 52, Type (0, 0), BuildingBlock: AJUNOK_clean_linker_0, # of connection points: 2
#     Edge 53, Type (0, 0), BuildingBlock: AJUNOK_clean_linker_0, # of connection points: 2
#     Edge 54, Type (0, 0), BuildingBlock: AJUNOK_clean_linker_0, # of connection points: 2
#     Edge 55, Type (0, 0), BuildingBlock: AJUNOK_clean_linker_0, # of connection points: 2
#     Edge 56, Type (0, 0), BuildingBlock: AJUNOK_clean_linker_0, # of connection points: 2
#     Edge 57, Type (0, 0), BuildingBlock: AJUNOK_clean_linker_0, # of connection points: 2
#     Edge 58, Type (0, 0), BuildingBlock: AJUNOK_clean_linker_0, # of connection points: 2
#     Edge 59, Type (0, 0), BuildingBlock: AJUNOK_clean_linker_0, # of connection points: 2
#     Edge 60, Type (0, 0), BuildingBlock: AJUNOK_clean_linker_0, # of connection points: 2
#     Edge 61, Type (0, 0), BuildingBlock: AJUNOK_clean_linker_0, # of connection points: 2
#     Edge 62, Type (0, 0), BuildingBlock: AJUNOK_clean_linker_0, # of connection points: 2
#     Edge 63, Type (0, 0), BuildingBlock: AJUNOK_clean_linker_0, # of connection points: 2
#     Edge 64, Type (0, 0), BuildingBlock: AJUNOK_clean_linker_0, # of connection points: 2
#     Edge 65, Type (0, 0), BuildingBlock: AJUNOK_clean_linker_0, # of connection points: 2
#     Edge 66, Type (0, 0), BuildingBlock: AJUNOK_clean_linker_0, # of connection points: 2
#     Edge 67, Type (0, 0), BuildingBlock: AJUNOK_clean_linker_0, # of connection points: 2
#     Edge 68, Type (0, 0), BuildingBlock: AJUNOK_clean_linker_0, # of connection points: 2
#     Edge 69, Type (0, 0), BuildingBlock: AJUNOK_clean_linker_0, # of connection points: 2
#     Edge 70, Type (0, 0), BuildingBlock: AJUNOK_clean_linker_0, # of connection points: 2
#     Edge 71, Type (0, 0), BuildingBlock: AJUNOK_clean_linker_0, # of connection points: 2
#     Edge 72, Type (0, 0), BuildingBlock: AJUNOK_clean_linker_0, # of connection points: 2
#     Edge 73, Type (0, 0), BuildingBlock: AJUNOK_clean_linker_0, # of connection points: 2
#     Edge 74, Type (0, 0), BuildingBlock: AJUNOK_clean_linker_0, # of connection points: 2
#     Edge 75, Type (0, 0), BuildingBlock: AJUNOK_clean_linker_0, # of connection points: 2
#     Edge 76, Type (0, 0), BuildingBlock: AJUNOK_clean_linker_0, # of connection points: 2
#     Edge 77, Type (0, 0), BuildingBlock: AJUNOK_clean_linker_0, # of connection points: 2
#     Edge 78, Type (0, 0), BuildingBlock: AJUNOK_clean_linker_0, # of connection points: 2
#     Edge 79, Type (0, 0), BuildingBlock: AJUNOK_clean_linker_0, # of connection points: 2
#     Edge 80, Type (0, 0), BuildingBlock: AJUNOK_clean_linker_0, # of connection points: 2
#     Edge 81, Type (0, 0), BuildingBlock: AJUNOK_clean_linker_0, # of connection points: 2
#     Edge 82, Type (0, 0), BuildingBlock: AJUNOK_clean_linker_0, # of connection points: 2
#     Edge 83, Type (0, 0), BuildingBlock: AJUNOK_clean_linker_0, # of connection points: 2
#     Edge 84, Type (0, 0), BuildingBlock: AJUNOK_clean_linker_0, # of connection points: 2
#     Edge 85, Type (0, 0), BuildingBlock: AJUNOK_clean_linker_0, # of connection points: 2
#     Edge 86, Type (0, 0), BuildingBlock: AJUNOK_clean_linker_0, # of connection points: 2
#     Edge 87, Type (0, 0), BuildingBlock: AJUNOK_clean_linker_0, # of connection points: 2
#     Edge 88, Type (0, 0), BuildingBlock: AJUNOK_clean_linker_0, # of connection points: 2
#     Edge 89, Type (0, 0), BuildingBlock: AJUNOK_clean_linker_0, # of connection points: 2
#     Edge 90, Type (0, 0), BuildingBlock: AJUNOK_clean_linker_0, # of connection points: 2
#     Edge 91, Type (0, 0), BuildingBlock: AJUNOK_clean_linker_0, # of connection points: 2
#     Edge 92, Type (0, 0), BuildingBlock: AJUNOK_clean_linker_0, # of connection points: 2
#     Edge 93, Type (0, 0), BuildingBlock: AJUNOK_clean_linker_0, # of connection points: 2
#     Edge 94, Type (0, 0), BuildingBlock: AJUNOK_clean_linker_0, # of connection points: 2
#     Edge 95, Type (0, 0), BuildingBlock: AJUNOK_clean_linker_0, # of connection points: 2
#     Edge 96, Type (0, 0), BuildingBlock: AJUNOK_clean_linker_0, # of connection points: 2
#     Edge 97, Type (0, 0), BuildingBlock: AJUNOK_clean_linker_0, # of connection points: 2
#     Edge 98, Type (0, 0), BuildingBlock: AJUNOK_clean_linker_0, # of connection points: 2
#     Edge 99, Type (0, 0), BuildingBlock: AJUNOK_clean_linker_0, # of connection points: 2
#     Edge 100, Type (0, 0), BuildingBlock: AJUNOK_clean_linker_0, # of connection points: 2
#     Edge 101, Type (0, 0), BuildingBlock: AJUNOK_clean_linker_0, # of connection points: 2
#     Edge 102, Type (0, 0), BuildingBlock: AJUNOK_clean_linker_0, # of connection points: 2
#     Edge 103, Type (0, 0), BuildingBlock: AJUNOK_clean_linker_0, # of connection points: 2
#     Edge 104, Type (0, 0), BuildingBlock: AJUNOK_clean_linker_0, # of connection points: 2
#     Edge 105, Type (0, 0), BuildingBlock: AJUNOK_clean_linker_0, # of connection points: 2
#     Edge 106, Type (0, 0), BuildingBlock: AJUNOK_clean_linker_0, # of connection points: 2
#     Edge 107, Type (0, 0), BuildingBlock: AJUNOK_clean_linker_0, # of connection points: 2
#     Edge 108, Type (0, 0), BuildingBlock: AJUNOK_clean_linker_0, # of connection points: 2
#     Edge 109, Type (0, 0), BuildingBlock: AJUNOK_clean_linker_0, # of connection points: 2
#     Edge 110, Type (0, 0), BuildingBlock: AJUNOK_clean_linker_0, # of connection points: 2
#     Edge 111, Type (0, 0), BuildingBlock: AJUNOK_clean_linker_0, # of connection points: 2
#     Edge 112, Type (0, 0), BuildingBlock: AJUNOK_clean_linker_0, # of connection points: 2
#     Edge 113, Type (0, 0), BuildingBlock: AJUNOK_clean_linker_0, # of connection points: 2
#     Edge 114, Type (0, 0), BuildingBlock: AJUNOK_clean_linker_0, # of connection points: 2
#     Edge 115, Type (0, 0), BuildingBlock: AJUNOK_clean_linker_0, # of connection points: 2
#     Edge 116, Type (0, 0), BuildingBlock: AJUNOK_clean_linker_0, # of connection points: 2
#     Edge 117, Type (0, 0), BuildingBlock: AJUNOK_clean_linker_0, # of connection points: 2
#     Edge 118, Type (0, 0), BuildingBlock: AJUNOK_clean_linker_0, # of connection points: 2
#     Edge 119, Type (0, 0), BuildingBlock: AJUNOK_clean_linker_0, # of connection points: 2
#     Edge 120, Type (0, 0), BuildingBlock: AJUNOK_clean_linker_0, # of connection points: 2
#     Edge 121, Type (0, 0), BuildingBlock: AJUNOK_clean_linker_0, # of connection points: 2
#     Edge 122, Type (0, 0), BuildingBlock: AJUNOK_clean_linker_0, # of connection points: 2
#     Edge 123, Type (0, 0), BuildingBlock: AJUNOK_clean_linker_0, # of connection points: 2
#     Edge 124, Type (0, 0), BuildingBlock: AJUNOK_clean_linker_0, # of connection points: 2
#     Edge 125, Type (0, 0), BuildingBlock: AJUNOK_clean_linker_0, # of connection points: 2
#     Edge 126, Type (0, 0), BuildingBlock: AJUNOK_clean_linker_0, # of connection points: 2
#     Edge 127, Type (0, 0), BuildingBlock: AJUNOK_clean_linker_0, # of connection points: 2
#     Edge 128, Type (0, 0), BuildingBlock: AJUNOK_clean_linker_0, # of connection points: 2
#     Edge 129, Type (0, 0), BuildingBlock: AJUNOK_clean_linker_0, # of connection points: 2
#     Edge 130, Type (0, 0), BuildingBlock: AJUNOK_clean_linker_0, # of connection points: 2
#     Edge 131, Type (0, 0), BuildingBlock: AJUNOK_clean_linker_0, # of connection points: 2
#     Edge 132, Type (0, 0), BuildingBlock: AJUNOK_clean_linker_0, # of connection points: 2
#     Edge 133, Type (0, 0), BuildingBlock: AJUNOK_clean_linker_0, # of connection points: 2
#     Edge 134, Type (0, 0), BuildingBlock: AJUNOK_clean_linker_0, # of connection points: 2
#     Edge 135, Type (0, 0), BuildingBlock: AJUNOK_clean_linker_0, # of connection points: 2
#     Edge 136, Type (0, 0), BuildingBlock: AJUNOK_clean_linker_0, # of connection points: 2
#     Edge 137, Type (0, 0), BuildingBlock: AJUNOK_clean_linker_0, # of connection points: 2
#     Edge 138, Type (0, 0), BuildingBlock: AJUNOK_clean_linker_0, # of connection points: 2
#     Edge 139, Type (0, 0), BuildingBlock: AJUNOK_clean_linker_0, # of connection points: 2
#     Edge 140, Type (0, 0), BuildingBlock: AJUNOK_clean_linker_0, # of connection points: 2
#     Edge 141, Type (0, 0), BuildingBlock: AJUNOK_clean_linker_0, # of connection points: 2
#     Edge 142, Type (0, 0), BuildingBlock: AJUNOK_clean_linker_0, # of connection points: 2
#     Edge 143, Type (0, 0), BuildingBlock: AJUNOK_clean_linker_0, # of connection points: 2
# Relax obj value: 0.143
# Max RMSD: 0.227
# Mean RMSD: 0.227
data_MOF--net-wne--node1-CUKXOW_clean_sbu_0--edge1-AJUNOK_clean_linker_0
_symmetry_space_group_name_H-M    P1
_symmetry_Int_Tables_number       1
_symmetry_cell_setting            triclinic
loop_
_symmetry_equiv_pos_as_xyz
'x, y, z'
_cell_length_a     50.667693
_cell_length_b     50.684889
_cell_length_c     27.976528
_cell_angle_alpha  89.959882
_cell_angle_beta   90.032481
_cell_angle_gamma 120.03042
loop_
_atom_site_label
_atom_site_type_symbol
_atom_site_fract_x
_atom_site_fract_y
_atom_site_fract_z
_atom_type_partial_charge
Tb0 Tb 0.30962 0.24513 0.09984 0.0
C1 C 0.253 0.22728 0.15565 0.0
Tb2 Tb 0.26082 0.24483 0.04303 0.0
O3 O 0.31728 0.28588 0.13896 0.0
O4 O 0.30266 0.27943 0.06931 0.0
O5 O 0.27332 0.21886 0.14869 0.0
C6 C 0.2125 0.24991 0.01378 0.0
O7 O 0.24676 0.24109 0.12024 0.0
C8 C 0.26618 0.1961 0.03081 0.0
C9 C 0.32568 0.26791 0.99323 0.0
O10 O 0.21336 0.22489 0.01804 0.0
O11 O 0.23933 0.27235 0.02479 0.0
O12 O 0.2579 0.20845 0.99772 0.0
O13 O 0.26864 0.20969 0.07003 0.0
O14 O 0.29952 0.26865 0.99074 0.0
O15 O 0.33226 0.25691 0.03128 0.0
C16 C 0.35277 0.23477 0.13022 0.0
O17 O 0.34086 0.24763 0.15539 0.0
O18 O 0.34036 0.22786 0.08837 0.0
C19 C 0.30796 0.29645 0.10472 0.0
Tb20 Tb 0.82664 0.08471 0.09778 0.0
C21 C 0.84433 0.04458 0.15532 0.0
Tb22 Tb 0.82917 0.03297 0.04198 0.0
O23 O 0.77849 0.05809 0.12114 0.0
O24 O 0.79868 0.03867 0.08341 0.0
O25 O 0.85031 0.0728 0.14924 0.0
C26 C 0.82876 0.98126 0.01856 0.0
O27 O 0.83254 1.02414 0.11978 0.0
C28 C 0.8752 0.08893 0.02692 0.0
C29 C 0.79918 0.06961 0.99442 0.0
O30 O 0.84985 1.00406 0.04229 0.0
O31 O 0.80771 0.98772 1.00687 0.0
O32 O 0.86538 0.06686 0.9961 0.0
O33 O 0.8611 0.07809 0.06566 0.0
O34 O 0.80067 0.04383 0.99388 0.0
O35 O 0.81246 0.09077 0.02778 0.0
C36 C 0.8413 0.13723 0.13639 0.0
O37 O 0.84622 0.13351 0.09197 0.0
O38 O 0.82795 0.11137 0.15877 0.0
C39 C 0.774 0.0328 0.10223 0.0
Tb40 Tb 0.98965 0.76627 0.0981 0.0
C41 C 1.03388 0.81844 0.16044 0.0
Tb42 Tb 0.04794 0.81353 0.04985 0.0
O43 O 1.00388 0.7355 0.12756 0.0
O44 O 1.03448 0.77361 0.08973 0.0
O45 O 1.005 0.80233 0.14904 0.0
C46 C 0.10328 0.86247 0.03193 0.0
O47 O 0.05537 0.82283 0.1285 0.0
C48 C 0.99741 0.81511 0.02852 0.0
C49 C 1.00509 0.74991 0.99913 0.0
O50 O 0.08343 0.86084 0.06261 0.0
O51 O 0.09207 0.8361 0.01071 0.0
O52 O 1.01983 0.8227 0.99916 0.0
O53 O 1.00531 0.80962 0.06804 0.0
O54 O 1.03419 0.77221 1.00458 0.0
O55 O 0.98311 0.74826 0.02669 0.0
C56 C 0.93454 0.73841 0.13265 0.0
O57 O 0.94071 0.74306 0.08731 0.0
O58 O 0.95914 0.7484 0.15778 0.0
C59 C 1.03155 0.7505 0.11148 0.0
Tb60 Tb 0.26457 0.30315 0.42478 0.0
C61 C 0.24278 0.24643 0.35942 0.0
Tb62 Tb 0.26297 0.24814 0.46873 0.0
O63 O 0.31391 0.32983 0.42639 0.0
O64 O 0.2917 0.28216 0.41984 0.0
O65 O 0.23939 0.26984 0.36998 0.0
C66 C 0.27328 0.2026 0.49586 0.0
O67 O 0.25407 0.23528 0.3917 0.0
C68 C 0.21057 0.24854 0.47139 0.0
C69 C 0.29073 0.31291 0.5263 0.0
O70 O 0.25741 0.21197 0.5196 0.0
O71 O 0.28421 0.21984 0.45852 0.0
O72 O 0.21244 0.22397 0.46769 0.0
O73 O 0.2372 0.27049 0.47649 0.0
O74 O 0.28954 0.28571 0.52263 0.0
O75 O 0.27815 0.32236 0.49446 0.0
C76 C 0.24962 0.34089 0.3861 0.0
O77 O 0.26889 0.33408 0.36758 0.0
O78 O 0.23923 0.32676 0.42621 0.0
C79 C 0.31708 0.30599 0.42644 0.0
Tb80 Tb 0.7739 0.97616 0.42741 0.0
C81 C 0.82857 1.01465 0.35766 0.0
Tb82 Tb 0.82773 0.03123 0.46885 0.0
O83 O 0.74523 0.99649 0.42409 0.0
O84 O 0.79297 1.02403 0.41963 0.0
O85 O 0.80265 0.98922 0.36484 0.0
C86 C 0.87194 0.0871 0.49803 0.0
O87 O 0.84182 0.03534 0.39236 0.0
C88 C 0.82886 0.97927 0.47479 0.0
C89 C 0.7648 0.99312 0.52787 0.0
O90 O 0.8553 0.08092 0.45996 0.0
O91 O 0.86271 0.06169 0.52116 0.0
O92 O 0.85296 1.00592 0.46951 0.0
O93 O 0.80657 0.98335 0.47969 0.0
O94 O 0.78984 1.02056 0.52109 0.0
O95 O 0.75833 0.96977 0.49981 0.0
C96 C 0.74274 0.92145 0.39136 0.0
O97 O 0.73104 0.93808 0.40378 0.0
O98 O 0.77179 0.93557 0.39918 0.0
C99 C 0.76819 1.02411 0.42455 0.0
Tb100 Tb 0.09942 0.81881 0.42542 0.0
C101 C 0.05858 0.83309 0.3657 0.0
Tb102 Tb 1.04367 0.81498 0.47738 0.0
O103 O 0.07762 0.77121 0.39952 0.0
O104 O 0.05365 0.78612 0.43862 0.0
O105 O 0.08722 0.84293 0.3761 0.0
C106 C 0.98876 0.80882 0.49783 0.0
O107 O 1.03675 0.81774 0.39837 0.0
C108 C 0.09679 0.86454 0.49463 0.0
C109 C 0.08582 0.79155 0.52674 0.0
O110 O 1.00867 0.82797 0.46795 0.0
O111 O 0.99973 0.79279 0.51676 0.0
O112 O 0.07392 0.85327 0.524 0.0
O113 O 0.08777 0.84997 0.45602 0.0
O114 O 0.058 0.78881 0.52529 0.0
O115 O 0.10754 0.80918 0.49662 0.0
C116 C 0.15379 0.83874 0.38998 0.0
O117 O 0.14818 0.83999 0.43495 0.0
O118 O 0.1288 0.82592 0.36523 0.0
C119 C 0.05129 0.76295 0.41865 0.0
Tb120 Tb 0.83163 0.81713 0.97132 0.0
C121 C 0.76801 0.79523 0.02613 0.0
Tb122 Tb 0.78153 0.81836 0.92114 0.0
O123 O 0.84052 0.8558 0.01677 0.0
O124 O 0.82411 0.85299 0.94798 0.0
O125 O 0.79299 0.79224 0.02416 0.0
C126 C 0.74027 0.83086 0.88827 0.0
O127 O 0.76154 0.80835 0.99101 0.0
C128 C 0.78154 0.76579 0.9123 0.0
C129 C 0.83474 0.83455 0.86014 0.0
O130 O 0.75013 0.81518 0.86581 0.0
O131 O 0.75321 0.839 0.92974 0.0
O132 O 0.7716 0.7772 0.88031 0.0
O133 O 0.78862 0.78295 0.94792 0.0
O134 O 0.81756 0.84571 0.87314 0.0
O135 O 0.84002 0.81798 0.89192 0.0
C136 C 0.88218 0.81301 0.98979 0.0
O137 O 0.87822 0.82731 0.95478 0.0
O138 O 0.85728 0.80063 0.01512 0.0
C139 C 0.8297 0.86747 0.98681 0.0
Tb140 Tb 0.26539 0.02993 0.97046 0.0
C141 C 0.29021 0.98981 0.02065 0.0
Tb142 Tb 0.25674 0.97134 0.92171 0.0
O143 O 0.22846 1.00088 0.02066 0.0
O144 O 0.22828 0.98608 0.95219 0.0
O145 O 0.2933 1.01765 0.01692 0.0
C146 C 0.23048 0.91622 0.88575 0.0
O147 O 0.27261 0.96694 0.99169 0.0
C148 C 0.3133 1.01585 0.90897 0.0
C149 C 0.24843 1.01616 0.85896 0.0
O150 O 0.24823 0.94097 0.86249 0.0
O151 O 0.22826 0.92226 0.93027 0.0
O152 O 0.30247 0.98831 0.89294 0.0
O153 O 0.2919 1.01688 0.93021 0.0
O154 O 0.23711 0.98715 0.86901 0.0
O155 O 0.26388 0.03759 0.89197 0.0
C156 C 0.27042 0.08434 0.99193 0.0
O157 O 0.25115 0.06409 0.96252 0.0
O158 O 0.28753 0.07415 0.0093 0.0
C159 C 0.21488 0.97801 0.99172 0.0
Tb160 Tb 0.04561 0.25018 0.97092 0.0
C161 C 0.08404 0.31494 0.02767 0.0
Tb162 Tb 0.10177 0.30748 0.92507 0.0
O163 O 0.07205 0.22882 0.99903 0.0
O164 O 0.09262 0.26974 0.96634 0.0
O165 O 0.05744 0.28836 0.02338 0.0
C166 C 0.15449 0.34265 0.88425 0.0
O167 O 0.10678 0.32393 0.99695 0.0
C168 C 0.05128 0.30934 0.92814 0.0
C169 C 0.06502 0.25084 0.8604 0.0
O170 O 0.12834 0.33562 0.8655 0.0
O171 O 0.15084 0.3308 0.92651 0.0
O172 O 0.07816 0.33341 0.925 0.0
O173 O 0.05326 0.28569 0.92272 0.0
O174 O 0.09228 0.27353 0.87114 0.0
O175 O 1.04218 0.24032 0.89229 0.0
C176 C 0.98971 0.20297 0.99209 0.0
O177 O 1.00742 0.20422 0.9577 0.0
O178 O 1.00344 0.22884 0.01511 0.0
C179 C 0.0984 0.25099 0.98568 0.0
Tb180 Tb 0.82389 0.81121 0.54185 0.0
C181 C 0.80217 0.74803 0.48782 0.0
Tb182 Tb 0.82593 0.75816 0.59339 0.0
O183 O 0.86109 0.81565 0.49576 0.0
O184 O 0.85814 0.80152 0.56612 0.0
O185 O 0.79858 0.77257 0.49046 0.0
C186 C 0.84375 0.72172 0.62729 0.0
O187 O 0.81706 0.74191 0.52082 0.0
C188 C 0.76987 0.74972 0.59519 0.0
C189 C 0.83938 0.81336 0.65553 0.0
O190 O 0.82581 0.72898 0.64934 0.0
O191 O 0.85205 0.73518 0.58605 0.0
O192 O 0.7774 0.7305 0.61167 0.0
O193 O 0.79413 0.77206 0.58 0.0
O194 O 0.84547 0.79126 0.64896 0.0
O195 O 0.82789 0.82269 0.62026 0.0
C196 C 0.82418 0.86308 0.51703 0.0
O197 O 0.84735 0.86069 0.53063 0.0
O198 O 0.80023 0.83577 0.51725 0.0
C199 C 0.873 0.80627 0.52789 0.0
Tb200 Tb 0.26362 0.03151 0.54158 0.0
C201 C 0.32645 0.06973 0.48544 0.0
Tb202 Tb 0.31685 0.08781 0.58774 0.0
O203 O 0.25655 0.06272 0.49491 0.0
O204 O 0.2727 0.07551 0.56367 0.0
O205 O 0.30143 0.04225 0.4905 0.0
C206 C 0.3507 0.14307 0.61991 0.0
O207 O 0.33327 0.09256 0.51515 0.0
C208 C 0.3269 0.04178 0.59426 0.0
C209 C 0.26516 0.04508 0.65463 0.0
O210 O 0.33803 0.13665 0.57792 0.0
O211 O 0.34474 0.11852 0.64292 0.0
O212 O 0.34521 0.06889 0.61058 0.0
O213 O 0.30424 0.04198 0.57626 0.0
O214 O 0.2848 0.07381 0.64535 0.0
O215 O 0.25636 1.02377 0.6205 0.0
C216 C 0.21257 0.97775 0.52466 0.0
O217 O 0.215 0.9994 0.55216 0.0
O218 O 0.23917 0.98644 0.50567 0.0
C219 C 0.2668 0.08475 0.52574 0.0
Tb220 Tb 0.04454 0.24554 0.54312 0.0
C221 C 1.00205 0.27003 0.49902 0.0
Tb222 Tb 0.99055 0.24191 0.60307 0.0
O223 O 1.01044 0.20965 0.49691 0.0
O224 O 1.00118 0.21093 0.56904 0.0
O225 O 1.02957 0.27194 0.49708 0.0
C226 C 0.93695 0.22127 0.64271 0.0
O227 O 0.98207 0.2549 0.53347 0.0
C228 C 1.03991 0.29665 0.60723 0.0
C229 C 1.03541 0.22941 0.65723 0.0
O230 O 0.96269 0.23982 0.66304 0.0
O231 O 0.94127 0.2145 0.59972 0.0
O232 O 1.01448 0.28985 0.62841 0.0
O233 O 1.03546 0.27301 0.58634 0.0
O234 O 1.00637 0.22084 0.65274 0.0
O235 O 0.05492 0.24193 0.62047 0.0
C236 C 0.09697 0.24889 0.51368 0.0
O237 O 0.09248 0.27196 0.51863 0.0
O238 O 0.07182 0.22423 0.52461 0.0
C239 C 0.98991 0.19735 0.53015 0.0
Tb240 Tb 0.98333 0.58069 0.43045 0.0
C241 C 0.92831 0.56677 0.49208 0.0
Tb242 Tb 0.93008 0.58315 0.37905 0.0
O243 O 1.00876 0.62875 0.45463 0.0
O244 O 0.96853 0.61164 0.41826 0.0
O245 O 0.94842 0.55834 0.48293 0.0
C246 C 0.87989 0.58669 0.35799 0.0
O247 O 0.92032 0.58035 0.45824 0.0
C248 C 0.93538 0.53449 0.36145 0.0
C249 C 0.9944 0.60644 0.32613 0.0
O250 O 0.88077 0.56508 0.38154 0.0
O251 O 0.90769 0.60671 0.34558 0.0
O252 O 0.92372 0.54568 0.332 0.0
O253 O 0.94049 0.54886 0.40031 0.0
O254 O 0.96918 0.60897 0.32835 0.0
O255 O 1.00118 0.59205 0.35906 0.0
C256 C 1.01707 0.55942 0.4638 0.0
O257 O 1.00825 0.55696 0.41965 0.0
O258 O 1.00774 0.57477 0.4887 0.0
C259 C 0.98901 0.63538 0.43724 0.0
Tb260 Tb 0.49382 0.41184 0.43158 0.0
C261 C 0.5149 0.37762 0.49108 0.0
Tb262 Tb 0.49356 0.36258 0.38005 0.0
O263 O 0.45566 0.37926 0.47567 0.0
O264 O 0.45827 0.36871 0.40566 0.0
O265 O 0.52261 0.40574 0.48056 0.0
C266 C 0.4865 0.30733 0.35715 0.0
O267 O 0.50048 0.35593 0.45801 0.0
C268 C 0.54375 0.41526 0.36464 0.0
C269 C 0.46668 0.40146 0.32974 0.0
O270 O 0.48643 0.31733 0.39963 0.0
O271 O 0.49004 0.32838 0.32709 0.0
O272 O 0.53194 0.39287 0.33466 0.0
O273 O 0.52968 0.40602 0.40379 0.0
O274 O 0.46478 0.37402 0.33173 0.0
O275 O 0.482 0.42192 0.36276 0.0
C276 C 0.50128 0.4639 0.46412 0.0
O277 O 0.48719 0.43819 0.4866 0.0
O278 O 0.51122 0.46028 0.42346 0.0
C279 C 0.44343 0.3582 0.44348 0.0
Tb280 Tb 0.65589 0.09257 0.42605 0.0
C281 C 0.69756 0.14749 0.48882 0.0
Tb282 Tb 0.71156 0.14657 0.37584 0.0
O283 O 0.67844 0.0681 0.45328 0.0
O284 O 0.70212 0.10765 0.41437 0.0
O285 O 0.66902 0.12665 0.48051 0.0
C286 C 0.7655 0.1975 0.35775 0.0
O287 O 0.71883 0.15609 0.45457 0.0
C288 C 0.65735 0.14105 0.35914 0.0
C289 C 0.67399 0.08091 0.32432 0.0
O290 O 0.74329 0.19566 0.38327 0.0
O291 O 0.75722 0.17035 0.34132 0.0
O292 O 0.68002 0.15302 0.32932 0.0
O293 O 0.66686 0.13561 0.39733 0.0
O294 O 0.70012 0.1079 0.32564 0.0
O295 O 0.6519 0.07288 0.35608 0.0
C296 C 0.60011 0.0585 0.45775 0.0
O297 O 0.607 0.06806 0.41394 0.0
O298 O 0.62462 0.06736 0.48296 0.0
C299 C 0.70486 0.08718 0.4351 0.0
Tb300 Tb 0.92769 0.63801 0.76153 0.0
C301 C 0.91675 0.58372 0.69673 0.0
Tb302 Tb 0.93044 0.58202 0.81169 0.0
O303 O 0.9749 0.66089 0.73347 0.0
O304 O 0.95705 0.62087 0.77115 0.0
O305 O 0.91169 0.60656 0.70317 0.0
C306 C 0.93973 0.53521 0.83182 0.0
O307 O 0.92667 0.57281 0.7322 0.0
C308 C 0.87726 0.5809 0.82413 0.0
C309 C 0.9537 0.64686 0.86542 0.0
O310 O 0.9282 0.53909 0.79288 0.0
O311 O 0.94711 0.55856 0.85974 0.0
O312 O 0.88276 0.56013 0.84033 0.0
O313 O 0.9012 0.59929 0.80299 0.0
O314 O 0.95657 0.62174 0.86186 0.0
O315 O 0.93836 0.65367 0.83396 0.0
C316 C 0.90112 0.66697 0.72855 0.0
O317 O 0.93037 0.67949 0.73496 0.0
O318 O 0.88707 0.6386 0.74113 0.0
C319 C 0.98085 0.6406 0.75101 0.0
Tb320 Tb 0.44069 0.30973 0.75659 0.0
C321 C 0.49653 0.35066 0.69584 0.0
Tb322 Tb 0.49355 0.3646 0.8083 0.0
O323 O 0.41461 0.3316 0.73382 0.0
O324 O 0.45445 0.35541 0.77115 0.0
O325 O 0.47589 0.32223 0.70459 0.0
C326 C 0.54351 0.4187 0.82854 0.0
O327 O 0.50414 0.37213 0.72953 0.0
C328 C 0.4886 0.31083 0.82494 0.0
C329 C 0.42924 0.32215 0.86101 0.0
O330 O 0.5427 0.39643 0.80457 0.0
O331 O 0.51582 0.4104 0.84228 0.0
O332 O 0.50022 0.33349 0.85475 0.0
O333 O 0.48347 0.32021 0.78619 0.0
O334 O 0.45429 0.35005 0.85914 0.0
O335 O 0.42296 0.30116 0.82807 0.0
C336 C 0.40533 0.25733 0.71608 0.0
O337 O 0.41404 0.2606 0.76048 0.0
O338 O 0.4163 0.28345 0.69493 0.0
C339 C 0.43321 0.35775 0.75277 0.0
Tb340 Tb 0.76331 0.1492 0.75707 0.0
C341 C 0.72607 0.16555 0.69288 0.0
Tb342 Tb 0.71037 0.14541 0.8042 0.0
O343 O 0.73482 0.11093 0.71049 0.0
O344 O 0.71983 0.11172 0.77887 0.0
O345 O 0.75434 0.17356 0.70312 0.0
C346 C 0.65416 0.138 0.82205 0.0
O347 O 0.70433 0.15139 0.72592 0.0
C348 C 0.76216 0.1969 0.82089 0.0
C349 C 0.74848 0.1191 0.85807 0.0
O350 O 0.66549 0.13771 0.78078 0.0
O351 O 0.67434 0.14162 0.854 0.0
O352 O 0.73988 0.18414 0.85099 0.0
O353 O 0.75331 0.18251 0.78216 0.0
O354 O 0.72094 0.1168 0.85382 0.0
O355 O 0.77007 0.13469 0.82647 0.0
C356 C 0.81977 0.16631 0.73217 0.0
O357 O 0.79564 0.14476 0.71173 0.0
O358 O 0.81208 0.1777 0.76723 0.0
C359 C 0.71229 0.097 0.74018 0.0
Tb360 Tb 0.49358 0.14562 0.30265 0.0
C361 C 0.42815 0.12324 0.35096 0.0
Tb362 Tb 0.44361 0.15222 0.24969 0.0
O363 O 0.50111 0.18361 0.35021 0.0
O364 O 0.48656 0.18183 0.28082 0.0
O365 O 0.45228 0.11893 0.34894 0.0
C366 C 0.41306 0.17617 0.21241 0.0
O367 O 0.4251 0.14157 0.32068 0.0
C368 C 0.43377 0.09579 0.24077 0.0
C369 C 0.49852 0.16415 0.19106 0.0
O370 O 0.42276 0.16066 0.18893 0.0
O371 O 0.41967 0.17742 0.25755 0.0
O372 O 0.41652 0.10525 0.22207 0.0
O373 O 0.45492 0.11817 0.26201 0.0
O374 O 0.48065 0.1751 0.20114 0.0
O375 O 0.50382 0.14801 0.22388 0.0
C376 C 0.54255 0.13988 0.32384 0.0
O377 O 0.54178 0.15913 0.29423 0.0
O378 O 0.51539 0.12345 0.34211 0.0
C379 C 0.49168 0.19619 0.31942 0.0
Tb380 Tb 0.93078 0.36536 0.31035 0.0
C381 C 0.95389 0.32444 0.36395 0.0
Tb382 Tb 0.92592 0.30854 0.26152 0.0
O383 O 0.89248 0.33545 0.35771 0.0
O384 O 0.89514 0.3212 0.28983 0.0
O385 O 0.95701 0.35233 0.36026 0.0
C386 C 0.90327 0.25342 0.22749 0.0
O387 O 0.93769 0.30235 0.33321 0.0
C388 C 0.98191 0.3551 0.25211 0.0
C389 C 0.91359 0.3506 0.19837 0.0
O390 O 0.90083 0.2596 0.27176 0.0
O391 O 0.91915 0.27819 0.20308 0.0
O392 O 0.97282 0.32808 0.23511 0.0
O393 O 0.95942 0.35437 0.27235 0.0
O394 O 0.90469 0.32197 0.20798 0.0
O395 O 0.92807 0.37231 0.23149 0.0
C396 C 0.93606 0.42024 0.32897 0.0
O397 O 0.91572 0.39884 0.30224 0.0
O398 O 0.95376 0.4107 0.34611 0.0
C399 C 0.88047 0.31257 0.32838 0.0
Tb400 Tb 0.71076 0.57957 0.30595 0.0
C401 C 0.75168 0.64527 0.35351 0.0
Tb402 Tb 0.76344 0.63112 0.24912 0.0
O403 O 0.74311 0.57616 0.35351 0.0
O404 O 0.75559 0.59014 0.28344 0.0
O405 O 0.72404 0.6199 0.35372 0.0
C406 C 0.81636 0.66981 0.21327 0.0
O407 O 0.77178 0.65086 0.31933 0.0
C408 C 0.71303 0.63471 0.24281 0.0
C409 C 0.72288 0.57453 0.1928 0.0
O410 O 0.81142 0.66263 0.25818 0.0
O411 O 0.79166 0.65472 0.18831 0.0
O412 O 0.73861 0.65401 0.22293 0.0
O413 O 0.71785 0.61581 0.26365 0.0
O414 O 0.75169 0.59452 0.20043 0.0
O415 O 0.70215 0.56771 0.2276 0.0
C416 C 0.65846 0.52892 0.33001 0.0
O417 O 0.68125 0.53008 0.30709 0.0
O418 O 0.66518 0.55671 0.34032 0.0
C419 C 0.76549 0.58688 0.32325 0.0
Tb420 Tb 0.49203 0.1459 0.8744 0.0
C421 C 0.47116 0.08205 0.82314 0.0
Tb422 Tb 0.49952 0.09591 0.92557 0.0
O423 O 0.52944 0.15324 0.82549 0.0
O424 O 0.52873 0.13897 0.89472 0.0
O425 O 0.46556 0.10529 0.82701 0.0
C426 C 0.52149 0.06445 0.96488 0.0
O427 O 0.48912 0.07839 0.85358 0.0
C428 C 0.44259 0.08503 0.93361 0.0
C429 C 0.51032 0.14989 0.98612 0.0
O430 O 0.52518 0.07245 0.92012 0.0
O431 O 0.50522 0.0738 0.9869 0.0
O432 O 0.45191 0.06684 0.94851 0.0
O433 O 0.46575 0.1076 0.91643 0.0
O434 O 0.5214 0.13207 0.97603 0.0
O435 O 0.49463 0.15574 0.95321 0.0
C436 C 0.48692 0.19544 0.85566 0.0
O437 O 0.5082 0.19471 0.88029 0.0
O438 O 0.46813 0.16788 0.84059 0.0
C439 C 0.54262 0.14405 0.85563 0.0
Tb440 Tb 0.92773 0.36376 0.88158 0.0
C441 C 0.99279 0.40217 0.82889 0.0
Tb442 Tb 0.9786 0.41441 0.93202 0.0
O443 O 0.91941 0.39519 0.83856 0.0
O444 O 0.93596 0.40691 0.90736 0.0
O445 O 0.96685 0.37504 0.83123 0.0
C446 C 1.02119 0.4695 0.95792 0.0
O447 O 0.99913 0.42285 0.86214 0.0
C448 C 0.97619 0.36112 0.9428 0.0
C449 C 0.92366 0.3785 0.99394 0.0
O450 O 1.00503 0.46303 0.91938 0.0
O451 O 1.0137 0.44477 0.98171 0.0
O452 O 0.98654 0.38275 0.9744 0.0
O453 O 0.97024 0.37117 0.90575 0.0
O454 O 0.94495 0.40657 0.98464 0.0
O455 O 0.91483 0.35719 0.95977 0.0
C456 C 0.87917 0.30829 0.8591 0.0
O457 O 0.89273 0.31668 0.90013 0.0
O458 O 0.89353 0.33112 0.83001 0.0
C459 C 0.93051 0.41696 0.86974 0.0
Tb460 Tb 0.71132 0.58271 0.87645 0.0
C461 C 0.67212 0.60678 0.81974 0.0
Tb462 Tb 0.65577 0.58187 0.92404 0.0
O463 O 0.68002 0.54612 0.82856 0.0
O464 O 0.66614 0.54896 0.89712 0.0
O465 O 0.69938 0.60836 0.82349 0.0
C466 C 0.60229 0.56393 0.96224 0.0
O467 O 0.65004 0.59251 0.85147 0.0
C468 C 0.70447 0.63674 0.93053 0.0
C469 C 0.69485 0.56565 0.98838 0.0
O470 O 0.6065 0.55888 0.91807 0.0
O471 O 0.62812 0.57968 0.98398 0.0
O472 O 0.6779 0.62967 0.94734 0.0
O473 O 0.70203 0.61302 0.91238 0.0
O474 O 0.66695 0.55933 0.97844 0.0
O475 O 0.71693 0.57802 0.95525 0.0
C476 C 0.76399 0.58368 0.85577 0.0
O477 O 0.73848 0.56023 0.86893 0.0
O478 O 0.7599 0.60712 0.85381 0.0
C479 C 0.65721 0.53466 0.85811 0.0
Tb480 Tb 0.65026 0.91187 0.75984 0.0
C481 C 0.59531 0.89673 0.82503 0.0
Tb482 Tb 0.59908 0.91512 0.71247 0.0
O483 O 0.68119 0.96074 0.75635 0.0
O484 O 0.63412 0.9437 0.76104 0.0
O485 O 0.6198 0.89442 0.81924 0.0
C486 C 0.54894 0.91823 0.68726 0.0
O487 O 0.58434 0.90636 0.7895 0.0
C488 C 0.60386 0.86654 0.69072 0.0
C489 C 0.66211 0.93812 0.6581 0.0
O490 O 0.5497 0.89391 0.69929 0.0
O491 O 0.57678 0.94115 0.68916 0.0
O492 O 0.59525 0.88042 0.66106 0.0
O493 O 0.60785 0.87928 0.73083 0.0
O494 O 0.63828 0.94256 0.66306 0.0
O495 O 0.66545 0.91928 0.68659 0.0
C496 C 0.68388 0.8909 0.79635 0.0
O497 O 0.6781 0.91023 0.81755 0.0
O498 O 0.67156 0.88429 0.75429 0.0
C499 C 0.65971 0.96748 0.75459 0.0
Tb500 Tb 0.15953 0.74744 0.76009 0.0
C501 C 0.1802 0.71199 0.819 0.0
Tb502 Tb 0.1617 0.6984 0.70718 0.0
O503 O 0.11986 0.7138 0.80107 0.0
O504 O 0.1261 0.70462 0.73202 0.0
O505 O 0.18706 0.74005 0.80989 0.0
C506 C 0.15533 0.64388 0.68113 0.0
O507 O 0.16703 0.69073 0.78502 0.0
C508 C 0.20941 0.75299 0.69289 0.0
C509 C 0.1351 0.73668 0.65471 0.0
O510 O 0.1807 0.66971 0.68326 0.0
O511 O 0.13347 0.649 0.69259 0.0
O512 O 0.19766 0.7317 0.66069 0.0
O513 O 0.19579 0.7423 0.73222 0.0
O514 O 0.13779 0.71161 0.65297 0.0
O515 O 0.14478 0.75531 0.69171 0.0
C516 C 0.1695 0.80048 0.79245 0.0
O517 O 0.1531 0.77461 0.81386 0.0
O518 O 0.17986 0.79633 0.75251 0.0
C519 C 0.1092 0.69322 0.76778 0.0
Tb520 Tb 0.32415 0.43078 0.75995 0.0
C521 C 0.36254 0.4844 0.8232 0.0
Tb522 Tb 0.37673 0.48018 0.7109 0.0
O523 O 0.35392 0.41921 0.8016 0.0
O524 O 0.36646 0.43698 0.73427 0.0
O525 O 0.33402 0.46458 0.81346 0.0
C526 C 0.43308 0.52764 0.69115 0.0
O527 O 0.38385 0.49188 0.7894 0.0
C528 C 0.32545 0.48103 0.69744 0.0
C529 C 0.33626 0.41518 0.65804 0.0
O530 O 0.42299 0.51524 0.73251 0.0
O531 O 0.41157 0.51258 0.66015 0.0
O532 O 0.34768 0.49122 0.66713 0.0
O533 O 0.33423 0.47446 0.7355 0.0
O534 O 0.36433 0.43997 0.66184 0.0
O535 O 0.31504 0.41093 0.68924 0.0
C536 C 0.26832 0.3909 0.78669 0.0
O537 O 0.29287 0.39659 0.80957 0.0
O538 O 0.27535 0.40712 0.74815 0.0
C539 C 0.37575 0.4295 0.77037 0.0
Tb540 Tb 0.59432 0.96604 0.08518 0.0
C541 C 0.57773 0.90921 0.02726 0.0
Tb542 Tb 0.59544 0.91382 0.14021 0.0
O543 O 0.6412 0.98887 0.05679 0.0
O544 O 0.62495 0.95085 0.09884 0.0
O545 O 0.57048 0.93043 0.03432 0.0
C546 C 0.59901 0.86403 0.16327 0.0
O547 O 0.59074 0.90135 0.06214 0.0
C548 C 0.54752 0.92054 0.15568 0.0
C549 C 0.62305 0.98038 0.1879 0.0
O550 O 0.57509 0.86427 0.14726 0.0
O551 O 0.62102 0.89215 0.16739 0.0
O552 O 0.55895 0.91016 0.18711 0.0
O553 O 0.56158 0.9242 0.11685 0.0
O554 O 0.62245 0.95353 0.18909 0.0
O555 O 0.60863 0.98682 0.1546 0.0
C556 C 0.57724 1.00325 0.05252 0.0
O557 O 0.57375 0.99387 0.09648 0.0
O558 O 0.59036 0.9917 0.02707 0.0
C559 C 0.64821 0.97016 0.07699 0.0
Tb560 Tb 0.10894 0.63992 0.08912 0.0
C561 C 0.16108 0.68316 0.02222 0.0
Tb562 Tb 0.15756 0.69647 0.13477 0.0
O563 O 0.07442 0.65274 0.09626 0.0
O564 O 0.12021 0.68698 0.08854 0.0
O565 O 0.13944 0.65497 0.02968 0.0
C566 C 0.20692 0.75122 0.15665 0.0
O567 O 0.16974 0.70423 0.05677 0.0
C568 C 0.15887 0.64574 0.15496 0.0
C569 C 0.09749 0.65195 0.19256 0.0
O570 O 0.20653 0.72997 0.13049 0.0
O571 O 0.17904 0.74181 0.17072 0.0
O572 O 0.16678 0.66809 0.18448 0.0
O573 O 0.1527 0.65351 0.11579 0.0
O574 O 0.11836 0.68139 0.1857 0.0
O575 O 0.0964 0.63099 0.16339 0.0
C576 C 0.07782 0.58626 0.04832 0.0
O577 O 0.08955 0.59093 0.0908 0.0
O578 O 0.08269 0.61168 0.02948 0.0
C579 C 0.09344 0.68178 0.09705 0.0
Tb580 Tb 0.43284 0.4786 0.09091 0.0
C581 C 0.39212 0.49293 0.02713 0.0
Tb582 Tb 0.3787 0.4797 0.14087 0.0
O583 O 0.40881 0.43062 0.0674 0.0
O584 O 0.38666 0.44875 0.10445 0.0
O585 O 0.42026 0.49901 0.03477 0.0
C586 C 0.32531 0.47715 0.16067 0.0
O587 O 0.37117 0.48185 0.06209 0.0
C588 C 0.43347 0.52748 0.15694 0.0
C589 C 0.41597 0.45176 0.19423 0.0
O590 O 0.34732 0.4975 0.13476 0.0
O591 O 0.33346 0.45805 0.1764 0.0
O592 O 0.41058 0.5177 0.18618 0.0
O593 O 0.42382 0.51238 0.11873 0.0
O594 O 0.3904 0.45362 0.19307 0.0
O595 O 0.43758 0.46426 0.16143 0.0
C596 C 0.48776 0.49762 0.058 0.0
O597 O 0.48173 0.50281 0.10096 0.0
O598 O 0.46282 0.48104 0.03425 0.0
C599 C 0.38289 0.42458 0.08603 0.0
Tb600 Tb 0.15862 0.47981 0.64198 0.0
C601 C 0.09272 0.44997 0.69268 0.0
Tb602 Tb 0.10323 0.47589 0.58894 0.0
O603 O 0.16289 0.51761 0.68631 0.0
O604 O 0.14472 0.51104 0.61843 0.0
O605 O 0.12058 0.45287 0.69308 0.0
C606 C 0.06538 0.49132 0.55245 0.0
O607 O 0.08347 0.46168 0.65886 0.0
C608 C 0.10172 0.42308 0.58377 0.0
C609 C 0.15995 0.49418 0.52875 0.0
O610 O 0.0749 0.49631 0.59641 0.0
O611 O 0.07677 0.47713 0.52946 0.0
O612 O 0.0817 0.42844 0.564 0.0
O613 O 0.12117 0.44735 0.60354 0.0
O614 O 0.13768 0.49983 0.53638 0.0
O615 O 0.16953 0.48274 0.56356 0.0
C616 C 0.21029 0.47958 0.66462 0.0
O617 O 0.20819 0.49975 0.63891 0.0
O618 O 0.18297 0.4593 0.67852 0.0
C619 C 0.14872 0.52585 0.65653 0.0
Tb620 Tb 0.59518 0.69591 0.63389 0.0
C621 C 0.61735 0.65289 0.68243 0.0
Tb622 Tb 0.58408 0.63681 0.58369 0.0
O623 O 0.55821 0.66709 0.68461 0.0
O624 O 0.55718 0.65301 0.61537 0.0
O625 O 0.62292 0.68175 0.67837 0.0
C626 C 0.55601 0.58148 0.54931 0.0
O627 O 0.59754 0.63086 0.6542 0.0
C628 C 0.64109 0.681 0.56975 0.0
C629 C 0.5747 0.68085 0.52323 0.0
O630 O 0.55547 0.58803 0.59409 0.0
O631 O 0.5732 0.60585 0.52474 0.0
O632 O 0.6298 0.65348 0.55328 0.0
O633 O 0.61998 0.68185 0.59193 0.0
O634 O 0.56212 0.65204 0.53494 0.0
O635 O 0.59206 0.70256 0.55495 0.0
C636 C 0.60214 0.75151 0.65262 0.0
O637 O 0.58246 0.73107 0.62395 0.0
O638 O 0.61831 0.74065 0.67146 0.0
C639 C 0.54386 0.64477 0.65483 0.0
Tb640 Tb 0.38108 0.91455 0.63707 0.0
C641 C 0.42115 0.97906 0.6892 0.0
Tb642 Tb 0.43109 0.96479 0.58431 0.0
O643 O 0.4121 0.90548 0.68019 0.0
O644 O 0.42463 0.92298 0.61192 0.0
O645 O 0.39326 0.9541 0.6867 0.0
C646 C 0.48298 1.00708 0.54646 0.0
O647 O 0.44124 0.98531 0.65472 0.0
C648 C 0.37754 0.96282 0.57642 0.0
C649 C 0.39566 0.90818 0.52639 0.0
O650 O 0.45698 0.99385 0.5247 0.0
O651 O 0.47949 0.99707 0.58987 0.0
O652 O 0.39815 0.9718 0.54346 0.0
O653 O 0.38865 0.95705 0.61236 0.0
O654 O 0.42377 0.92868 0.53691 0.0
O655 O 0.37401 0.90058 0.55953 0.0
C656 C 0.32463 0.86729 0.65917 0.0
O657 O 0.33327 0.88164 0.6188 0.0
O658 O 0.34788 0.88005 0.68793 0.0
C659 C 0.43455 0.91797 0.65025 0.0
Tb660 Tb 0.16155 0.48112 0.2126 0.0
C661 C 0.13681 0.41586 0.16222 0.0
Tb662 Tb 0.16642 0.42922 0.26293 0.0
O663 O 0.1991 0.48865 0.16454 0.0
O664 O 0.19711 0.47236 0.23284 0.0
O665 O 0.13362 0.44066 0.16548 0.0
C666 C 0.189 0.39658 0.29598 0.0
O667 O 0.15464 0.41137 0.19154 0.0
C668 C 0.11048 0.42091 0.27076 0.0
C669 C 0.17807 0.48345 0.32513 0.0
O670 O 0.17301 0.40517 0.32078 0.0
O671 O 0.19161 0.40563 0.25194 0.0
O672 O 0.11831 0.40162 0.28611 0.0
O673 O 0.13399 0.44248 0.25266 0.0
O674 O 0.18733 0.46392 0.31625 0.0
O675 O 0.1638 0.49059 0.29143 0.0
C676 C 0.15736 0.53113 0.19346 0.0
O677 O 0.17699 0.52967 0.22141 0.0
O678 O 0.13972 0.50407 0.17557 0.0
C679 C 0.21126 0.47791 0.19381 0.0
Tb680 Tb 0.59748 0.69739 0.20447 0.0
C681 C 0.66222 0.74109 0.15423 0.0
Tb682 Tb 0.65073 0.75211 0.25895 0.0
O683 O 0.58979 0.72852 0.15904 0.0
O684 O 0.60901 0.74202 0.22593 0.0
O685 O 0.63791 0.71268 0.15566 0.0
C686 C 0.68005 0.80528 0.30069 0.0
O687 O 0.66685 0.76182 0.1868 0.0
C688 C 0.65415 0.7019 0.26708 0.0
C689 C 0.59549 0.70869 0.32021 0.0
O690 O 0.69327 0.79289 0.27735 0.0
O691 O 0.65078 0.78808 0.29946 0.0
O692 O 0.6732 0.72758 0.28739 0.0
O693 O 0.635 0.70621 0.24557 0.0
O694 O 0.62005 0.7356 0.31713 0.0
O695 O 0.58459 0.6894 0.2828 0.0
C696 C 0.54791 0.64319 0.1834 0.0
O697 O 0.54842 0.66529 0.20744 0.0
O698 O 0.57573 0.65173 0.16992 0.0
C699 C 0.60366 0.75165 0.18771 0.0
Tb700 Tb 0.37748 0.91277 0.20955 0.0
C701 C 0.33742 0.93749 0.15847 0.0
Tb702 Tb 0.32384 0.91236 0.26238 0.0
O703 O 0.34543 0.87447 0.16438 0.0
O704 O 0.33279 0.8789 0.23279 0.0
O705 O 0.36505 0.93986 0.16077 0.0
C706 C 0.27119 0.89586 0.30224 0.0
O707 O 0.31586 0.92161 0.19021 0.0
C708 C 0.37295 0.96763 0.26502 0.0
C709 C 0.36574 0.8983 0.32278 0.0
O710 O 0.27493 0.89289 0.25701 0.0
O711 O 0.29704 0.90845 0.32455 0.0
O712 O 0.34664 0.96103 0.28237 0.0
O713 O 0.36966 0.94328 0.24808 0.0
O714 O 0.33718 0.89085 0.31566 0.0
O715 O 0.3864 0.91078 0.28768 0.0
C716 C 0.4314 0.91718 0.18705 0.0
O717 O 0.4111 0.89771 0.21618 0.0
O718 O 0.42126 0.93434 0.16983 0.0
C719 C 0.32293 0.86394 0.19449 0.0
C720 C 0.2589 0.1527 0.97891 0.0
C721 C 0.2683 0.16792 0.02315 0.0
C722 C 0.26009 0.12608 0.96942 0.0
C723 C 0.2715 0.11371 1.00316 0.0
H724 H 0.25009 0.16117 0.95126 0.0
H725 H 0.25199 0.11509 0.93507 0.0
S726 S 0.29923 0.14443 0.12468 0.0
N727 N 0.28884 0.16792 0.10174 0.0
N728 N 0.29271 0.1189 0.08277 0.0
C729 C 0.2816 0.1289 0.04729 0.0
C730 C 0.27955 0.15567 0.05758 0.0
C731 C 0.94498 0.15358 0.96632 0.0
C732 C 0.95935 0.17559 1.00241 0.0
C733 C 0.91757 0.12629 0.97465 0.0
C734 C 0.9033 0.11933 0.01973 0.0
H735 H 0.95515 0.15732 0.93111 0.0
H736 H 0.90776 0.11021 0.94544 0.0
S737 S 0.93162 0.16905 0.12697 0.0
N738 N 0.95695 0.18877 0.08514 0.0
N739 N 0.90596 0.13697 0.10137 0.0
C740 C 0.91723 0.14124 0.05625 0.0
C741 C 0.94507 0.16945 0.04746 0.0
C742 C 0.91729 0.80446 0.04419 0.0
C743 C 0.91097 0.81232 0.99902 0.0
C744 C 0.94528 0.8056 0.05358 0.0
C745 C 0.96783 0.81399 0.01794 0.0
H746 H 0.90081 0.79803 0.07282 0.0
H747 H 0.94934 0.8001 0.08924 0.0
S748 S 0.96209 0.83563 0.8932 0.0
N749 N 0.92963 0.82844 0.91813 0.0
N750 N 0.98138 0.82973 0.93536 0.0
C751 C 0.96151 0.82141 0.9725 0.0
C752 C 0.93333 0.82073 0.96316 0.0
C753 C 0.12593 0.22396 0.48272 0.0
C754 C 0.12624 0.25005 0.50097 0.0
C755 C 0.15316 0.22381 0.47268 0.0
C756 C 0.18197 0.24959 0.48116 0.0
H757 H 0.10439 0.2034 0.47608 0.0
H758 H 0.15159 0.2032 0.45846 0.0
S759 S 0.19538 0.32282 0.5331 0.0
N760 N 0.15791 0.30202 0.52872 0.0
N761 N 0.20879 0.30131 0.51244 0.0
C762 C 0.18254 0.27565 0.50032 0.0
C763 C 0.15481 0.276 0.50952 0.0
C764 C 0.80012 0.92246 0.49092 0.0
C765 C 0.82813 0.94973 0.4841 0.0
C766 C 0.79883 0.89444 0.50044 0.0
C767 C 0.82554 0.89255 0.50465 0.0
H768 H 0.77891 0.92272 0.48924 0.0
H769 H 0.77675 0.87423 0.50544 0.0
S770 S 0.90473 0.95722 0.491 0.0
N771 N 0.8832 0.97274 0.48232 0.0
N772 N 0.88095 0.92073 0.50143 0.0
C773 C 0.85367 0.91968 0.4982 0.0
C774 C 0.85494 0.94804 0.48772 0.0
C775 C 0.14998 0.904 0.46802 0.0
C776 C 0.12684 0.89269 0.50307 0.0
C777 C 0.17816 0.93098 0.47552 0.0
C778 C 0.18391 0.94804 0.51786 0.0
H779 H 0.14621 0.89216 0.43432 0.0
H780 H 0.19516 0.93897 0.44746 0.0
S781 S 0.1317 0.92769 0.62173 0.0
N782 N 0.11253 0.90019 0.5827 0.0
N783 N 0.16461 0.95095 0.59596 0.0
C784 C 0.16114 0.93676 0.55326 0.0
C785 C 0.13284 0.90913 0.54608 0.0
C786 C 0.81441 0.93379 0.97 0.0
C787 C 0.82817 0.9519 0.01069 0.0
C788 C 0.81526 0.90669 0.96194 0.0
C789 C 0.82913 0.89631 0.99495 0.0
H790 H 0.80354 0.94093 0.94374 0.0
H791 H 0.80497 0.89381 0.92968 0.0
S792 S 0.86642 0.93451 0.10883 0.0
N793 N 0.85515 0.95701 0.08493 0.0
N794 N 0.85581 0.90603 0.07091 0.0
C795 C 0.84223 0.91395 0.03629 0.0
C796 C 0.84196 0.94171 0.04387 0.0
C797 C 0.17219 0.926 0.96655 0.0
C798 C 0.18722 0.94796 1.00271 0.0
C799 C 0.14575 0.89778 0.97633 0.0
C800 C 0.13296 0.8907 0.02244 0.0
H801 H 0.18059 0.93082 0.93018 0.0
H802 H 0.13468 0.88189 0.94726 0.0
S803 S 0.16366 0.93969 0.13 0.0
N804 N 0.18754 0.95989 0.08689 0.0
N805 N 0.13772 0.90767 0.10476 0.0
C806 C 0.14783 0.91234 0.05884 0.0
C807 C 0.17493 0.94074 0.04912 0.0
C808 C 0.15717 0.22507 0.99093 0.0
C809 C 0.18445 0.25168 1.00349 0.0
C810 C 0.12969 0.22527 0.98462 0.0
C811 C 0.1283 0.25214 0.99011 0.0
H812 H 0.15689 0.20369 0.98664 0.0
H813 H 0.10928 0.20412 0.97551 0.0
S814 S 0.1924 0.32741 0.02681 0.0
N815 N 0.20785 0.30548 0.02309 0.0
N816 N 0.15616 0.30558 0.0122 0.0
C817 C 0.15528 0.27888 1.00289 0.0
C818 C 0.18334 0.27872 0.00929 0.0
C819 C 0.94295 0.81063 0.46884 0.0
C820 C 0.95837 0.80586 0.50676 0.0
C821 C 0.91512 0.80994 0.476 0.0
C822 C 0.90171 0.80506 0.52161 0.0
H823 H 0.95253 0.815 0.43316 0.0
H824 H 0.90425 0.81372 0.44549 0.0
S825 S 0.93442 0.79422 0.63382 0.0
N826 N 0.95876 0.79714 0.59198 0.0
N827 N 0.90715 0.79701 0.60595 0.0
C828 C 0.91707 0.80053 0.56005 0.0
C829 C 0.94519 0.80063 0.5525 0.0
C830 C 0.26672 0.13161 0.55664 0.0
C831 C 0.27014 0.1155 0.51827 0.0
C832 C 0.26803 0.15988 0.54953 0.0
C833 C 0.27389 0.17368 0.50407 0.0
H834 H 0.2621 0.12187 0.59222 0.0
H835 H 0.26436 0.17095 0.57982 0.0
S836 S 0.28706 0.14205 0.39261 0.0
N837 N 0.28079 0.11612 0.43366 0.0
N838 N 0.28462 0.16944 0.42056 0.0
C839 C 0.27857 0.1583 0.46589 0.0
C840 C 0.27635 0.12921 0.47289 0.0
C841 C 0.94308 0.15005 0.5605 0.0
C842 C 0.9586 0.17078 0.52312 0.0
C843 C 0.91475 0.12329 0.55266 0.0
C844 C 0.90044 0.11672 0.50752 0.0
H845 H 0.95341 0.15395 0.5956 0.0
H846 H 0.90417 0.10746 0.58198 0.0
S847 S 0.93044 0.16515 0.39901 0.0
N848 N 0.95679 0.1836 0.44005 0.0
N849 N 0.90349 0.13435 0.42573 0.0
C850 C 0.91517 0.13807 0.47057 0.0
C851 C 0.94423 0.1648 0.47826 0.0
C852 C 0.94779 0.49381 0.388 0.0
C853 C 0.93746 0.50637 0.35251 0.0
C854 C 0.9486 0.46663 0.3799 0.0
C855 C 0.93833 0.45054 0.33646 0.0
H856 H 0.95482 0.50473 0.42257 0.0
H857 H 0.9563 0.45763 0.40839 0.0
S858 S 0.91101 0.47449 0.23094 0.0
N859 N 0.91862 0.50119 0.27114 0.0
N860 N 0.91903 0.45008 0.25688 0.0
C861 C 0.92852 0.46316 0.30061 0.0
C862 C 0.92833 0.491 0.30838 0.0
C863 C 0.61004 0.49735 0.37783 0.0
C864 C 0.62907 0.50027 0.33904 0.0
C865 C 0.58277 0.46965 0.38681 0.0
C866 C 0.57317 0.44418 0.35658 0.0
H867 H 0.6165 0.51639 0.40181 0.0
H868 H 0.56899 0.46829 0.41729 0.0
S869 S 0.61435 0.44063 0.24908 0.0
N870 N 0.63611 0.47541 0.27002 0.0
N871 N 0.58494 0.42422 0.28571 0.0
C872 C 0.59189 0.44714 0.31735 0.0
C873 C 0.61977 0.47493 0.3089 0.0
C874 C 0.59245 0.14565 0.29773 0.0
C875 C 0.57038 0.13774 0.33383 0.0
C876 C 0.62 0.14597 0.3062 0.0
C877 C 0.62712 0.13908 0.35149 0.0
H878 H 0.58841 0.15171 0.26242 0.0
H879 H 0.63606 0.15212 0.27699 0.0
S880 S 0.57811 0.11942 0.4595 0.0
N881 N 0.55776 0.12348 0.41701 0.0
N882 N 0.61018 0.12584 0.43388 0.0
C883 C 0.60538 0.13151 0.38822 0.0
C884 C 0.57688 0.13038 0.37915 0.0
C885 C 0.84836 0.60955 0.83335 0.0
C886 C 0.8484 0.5818 0.83015 0.0
C887 C 0.8211 0.61018 0.84131 0.0
C888 C 0.7928 0.5831 0.84611 0.0
H889 H 0.86964 0.63095 0.8311 0.0
H890 H 0.82228 0.63204 0.8445 0.0
S891 S 0.78061 0.50451 0.84056 0.0
N892 N 0.81768 0.52667 0.83277 0.0
N893 N 0.76684 0.52772 0.847 0.0
C894 C 0.79268 0.55528 0.84298 0.0
C895 C 0.82033 0.55468 0.83525 0.0
C896 C 0.47427 0.22952 0.80565 0.0
C897 C 0.48468 0.22349 0.84876 0.0
C898 C 0.47535 0.25767 0.79798 0.0
C899 C 0.48619 0.2805 0.83356 0.0
H900 H 0.46631 0.2129 0.77706 0.0
H901 H 0.46813 0.26174 0.76368 0.0
S902 S 0.51293 0.27435 0.95457 0.0
N903 N 0.50444 0.24191 0.92828 0.0
N904 N 0.50546 0.2938 0.9148 0.0
C905 C 0.49539 0.27401 0.87744 0.0
C906 C 0.49487 0.2458 0.88479 0.0
C907 C 0.81113 0.24327 0.79303 0.0
C908 C 0.79255 0.22458 0.83052 0.0
C909 C 0.8392 0.27013 0.80226 0.0
C910 C 0.85018 0.27901 0.84928 0.0
H911 H 0.80365 0.23746 0.75632 0.0
H912 H 0.85235 0.28407 0.77233 0.0
S913 S 0.81133 0.23678 0.95983 0.0
N914 N 0.78794 0.21639 0.91636 0.0
N915 N 0.84056 0.2659 0.93351 0.0
C916 C 0.83223 0.25993 0.88683 0.0
C917 C 0.8035 0.23302 0.87752 0.0
C918 C 0.49075 0.23486 0.37449 0.0
C919 C 0.48912 0.22396 0.32769 0.0
C920 C 0.48911 0.26133 0.38353 0.0
C921 C 0.48608 0.27828 0.34613 0.0
H922 H 0.49342 0.2229 0.40452 0.0
H923 H 0.49079 0.26886 0.42021 0.0
S924 S 0.48014 0.2593 0.21704 0.0
N925 N 0.4838 0.23213 0.24339 0.0
N926 N 0.48077 0.28173 0.2604 0.0
C927 C 0.48404 0.26747 0.29918 0.0
C928 C 0.48554 0.24038 0.28997 0.0
C929 C 0.81248 0.23184 0.30857 0.0
C930 C 0.79553 0.22604 0.35105 0.0
C931 C 0.83975 0.25985 0.30124 0.0
C932 C 0.85172 0.28277 0.3367 0.0
H933 H 0.80416 0.21504 0.28022 0.0
H934 H 0.85131 0.26368 0.26726 0.0
S935 S 0.817 0.27781 0.45566 0.0
N936 N 0.79318 0.24523 0.42949 0.0
N937 N 0.84465 0.29682 0.41672 0.0
C938 C 0.8353 0.27674 0.37978 0.0
C939 C 0.80726 0.24868 0.3867 0.0
C940 C 0.81995 0.60207 0.30029 0.0
C941 C 0.79511 0.58773 0.3322 0.0
C942 C 0.84778 0.60265 0.30918 0.0
C943 C 0.85148 0.58815 0.34961 0.0
H944 H 0.81789 0.61288 0.26824 0.0
H945 H 0.86619 0.6138 0.28363 0.0
S946 S 0.79394 0.54803 0.44468 0.0
N947 N 0.77686 0.55958 0.40676 0.0
N948 N 0.82814 0.55974 0.42218 0.0
C949 C 0.82689 0.5739 0.38165 0.0
C950 C 0.79902 0.57391 0.37329 0.0
C951 C 0.61297 0.13561 0.87642 0.0
C952 C 0.62487 0.13796 0.83007 0.0
C953 C 0.58616 0.13706 0.88437 0.0
C954 C 0.57032 0.14134 0.84638 0.0
H955 H 0.62454 0.13278 0.90687 0.0
H956 H 0.57807 0.13529 0.9207 0.0
S957 S 0.59151 0.14827 0.71812 0.0
N958 N 0.61807 0.14412 0.74554 0.0
N959 N 0.5684 0.14729 0.76055 0.0
C960 C 0.58183 0.14343 0.79991 0.0
C961 C 0.60885 0.14161 0.79176 0.0
C962 C 0.93167 0.48429 0.80707 0.0
C963 C 0.94022 0.50658 0.843 0.0
C964 C 0.92892 0.45578 0.81631 0.0
C965 C 0.93448 0.44799 0.86202 0.0
H966 H 0.92657 0.4887 0.77132 0.0
H967 H 0.92207 0.43955 0.78724 0.0
S968 S 0.95823 0.49829 0.96879 0.0
N969 N 0.95505 0.51913 0.92616 0.0
N970 N 0.94943 0.46534 0.94382 0.0
C971 C 0.94355 0.4702 0.8983 0.0
C972 C 0.94656 0.49949 0.88874 0.0
C973 C 0.60389 0.49444 0.88397 0.0
C974 C 0.62759 0.5058 0.8498 0.0
C975 C 0.57622 0.46681 0.87656 0.0
C976 C 0.5716 0.44902 0.83535 0.0
H977 H 0.60682 0.50677 0.91694 0.0
H978 H 0.55877 0.45889 0.90388 0.0
S979 S 0.62579 0.46875 0.73433 0.0
N980 N 0.64364 0.49726 0.77224 0.0
N981 N 0.5927 0.44529 0.75944 0.0
C982 C 0.595 0.46023 0.80096 0.0
C983 C 0.62269 0.48855 0.80789 0.0
C984 C 0.61326 0.82366 0.71574 0.0
C985 C 0.60484 0.83796 0.68031 0.0
C986 C 0.61365 0.79641 0.70633 0.0
C987 C 0.60475 0.78186 0.66153 0.0
H988 H 0.6192 0.83332 0.75128 0.0
H989 H 0.61996 0.78615 0.73481 0.0
S990 S 0.58152 0.80999 0.55613 0.0
N991 N 0.58853 0.83565 0.59795 0.0
N992 N 0.58806 0.78429 0.58113 0.0
C993 C 0.59647 0.79598 0.62588 0.0
C994 C 0.59676 0.82397 0.63504 0.0
C995 C 0.25785 0.79931 0.72301 0.0
C996 C 0.23767 0.78326 0.68525 0.0
C997 C 0.28577 0.82659 0.71469 0.0
C998 C 0.29432 0.83927 0.66846 0.0
H999 H 0.25249 0.79027 0.75901 0.0
H1000 H 0.30087 0.83766 0.74465 0.0
S1001 S 0.24825 0.80751 0.55809 0.0
N1002 N 0.22766 0.78307 0.60033 0.0
N1003 N 0.27915 0.83416 0.58499 0.0
C1004 C 0.27372 0.82396 0.63087 0.0
C1005 C 0.2457 0.79607 0.63918 0.0
C1006 C 0.24412 0.46687 0.71492 0.0
C1007 C 0.23923 0.47929 0.67303 0.0
C1008 C 0.27219 0.46797 0.72333 0.0
C1009 C 0.29605 0.48068 0.68949 0.0
H1010 H 0.22641 0.45684 0.74182 0.0
H1011 H 0.27517 0.45879 0.75653 0.0
S1012 S 0.29392 0.5148 0.57291 0.0
N1013 N 0.26039 0.50421 0.59718 0.0
N1014 N 0.31219 0.50524 0.61183 0.0
C1015 C 0.29105 0.49265 0.64717 0.0
C1016 C 0.26291 0.49217 0.63922 0.0
C1017 C 0.4753 0.91131 0.21396 0.0
C1018 C 0.46161 0.91978 0.17787 0.0
C1019 C 0.50326 0.91234 0.20655 0.0
C1020 C 0.5185 0.92116 0.16229 0.0
H1021 H 0.46436 0.90393 0.24851 0.0
H1022 H 0.51277 0.9057 0.23574 0.0
S1023 S 0.49124 0.94369 0.05487 0.0
N1024 N 0.4652 0.93701 0.09594 0.0
N1025 N 0.51677 0.93726 0.08095 0.0
C1026 C 0.50484 0.92935 0.12558 0.0
C1027 C 0.4767 0.92911 0.13364 0.0
C1028 C 0.14895 0.59349 0.12997 0.0
C1029 C 0.15775 0.61621 0.16541 0.0
C1030 C 0.1476 0.56546 0.13952 0.0
C1031 C 0.15606 0.55949 0.18443 0.0
H1032 H 0.14339 0.5975 0.09433 0.0
H1033 H 0.14088 0.54881 0.11111 0.0
S1034 S 0.1806 0.61098 0.28961 0.0
N1035 N 0.17429 0.6301 0.24768 0.0
N1036 N 0.17316 0.57843 0.26478 0.0
C1037 C 0.16502 0.582 0.21999 0.0
C1038 C 0.1656 0.6101 0.2107 0.0
C1039 C 0.51421 0.59534 0.13514 0.0
C1040 C 0.52003 0.61261 0.1773 0.0
C1041 C 0.48633 0.56774 0.12852 0.0
C1042 C 0.4636 0.55599 0.16432 0.0
H1043 H 0.53081 0.60369 0.10649 0.0
H1044 H 0.48239 0.55584 0.09483 0.0
S1045 S 0.46929 0.5912 0.28319 0.0
N1046 N 0.50148 0.6151 0.25616 0.0
N1047 N 0.45019 0.5633 0.24474 0.0
C1048 C 0.4699 0.57262 0.20726 0.0
C1049 C 0.49779 0.60083 0.21348 0.0
C1050 C 0.17803 0.61143 0.65744 0.0
C1051 C 0.15243 0.61342 0.67196 0.0
C1052 C 0.17647 0.58303 0.65148 0.0
C1053 C 0.14927 0.55545 0.65986 0.0
H1054 H 0.19962 0.63201 0.65117 0.0
H1055 H 0.19684 0.58267 0.64085 0.0
S1056 S 0.07598 0.54767 0.69985 0.0
N1057 N 0.09897 0.58485 0.69484 0.0
N1058 N 0.09642 0.53185 0.68462 0.0
C1059 C 0.12353 0.55701 0.67427 0.0
C1060 C 0.125 0.58587 0.68 0.0
C1061 C 0.49889 0.59532 0.62708 0.0
C1062 C 0.51638 0.61452 0.66494 0.0
C1063 C 0.47233 0.56706 0.63566 0.0
C1064 C 0.46237 0.55662 0.68248 0.0
H1065 H 0.5055 0.60239 0.59039 0.0
H1066 H 0.45941 0.5534 0.60535 0.0
S1067 S 0.50075 0.5975 0.79418 0.0
N1068 N 0.52214 0.62053 0.75104 0.0
N1069 N 0.47282 0.56752 0.76725 0.0
C1070 C 0.48008 0.57528 0.72062 0.0
C1071 C 0.50687 0.60418 0.71185 0.0
C1072 C 0.49311 0.8919 0.66541 0.0
C1073 C 0.52054 0.91915 0.67529 0.0
C1074 C 0.46561 0.89176 0.65619 0.0
C1075 C 0.46432 0.91885 0.65648 0.0
H1076 H 0.49278 0.87037 0.6651 0.0
H1077 H 0.44512 0.87021 0.64928 0.0
S1078 S 0.52878 0.99591 0.68455 0.0
N1079 N 0.54409 0.97382 0.68657 0.0
N1080 N 0.4925 0.97333 0.6709 0.0
C1081 C 0.49141 0.94614 0.66691 0.0
C1082 C 0.51948 0.94636 0.67579 0.0
C1083 C 0.25226 0.46614 0.21992 0.0
C1084 C 0.23976 0.47666 0.18467 0.0
C1085 C 0.27934 0.46524 0.21165 0.0
C1086 C 0.29552 0.47583 0.1684 0.0
H1087 H 0.24129 0.45888 0.25441 0.0
H1088 H 0.28813 0.4571 0.23982 0.0
S1089 S 0.27243 0.50486 0.06404 0.0
N1090 N 0.24548 0.49677 0.10404 0.0
N1091 N 0.29663 0.49638 0.08956 0.0
C1092 C 0.28327 0.48632 0.13298 0.0
C1093 C 0.25541 0.48648 0.14085 0.0
C1094 C 0.57637 0.78008 0.16819 0.0
C1095 C 0.60328 0.78073 0.18261 0.0
C1096 C 0.57515 0.80707 0.16303 0.0
C1097 C 0.60091 0.83593 0.17145 0.0
H1098 H 0.55596 0.75847 0.16118 0.0
H1099 H 0.55383 0.80527 0.15188 0.0
S1100 S 0.67777 0.85033 0.2054 0.0
N1101 N 0.65682 0.81282 0.20229 0.0
N1102 N 0.65459 0.86343 0.19274 0.0
C1103 C 0.6281 0.83693 0.18522 0.0
C1104 C 0.62927 0.80938 0.19076 0.0
C1105 C 0.28641 0.8206 0.14216 0.0
C1106 C 0.29244 0.83583 0.18643 0.0
C1107 C 0.25864 0.79369 0.13304 0.0
C1108 C 0.2351 0.78099 0.16723 0.0
H1109 H 0.30352 0.82931 0.11425 0.0
H1110 H 0.25557 0.78269 0.09866 0.0
S1111 S 0.23918 0.8108 0.28968 0.0
N1112 N 0.2726 0.83494 0.26592 0.0
N1113 N 0.21986 0.78547 0.24766 0.0
C1114 C 0.24048 0.79607 0.21147 0.0
C1115 C 0.26922 0.82313 0.22134 0.0
C1116 C 0.37793 0.22557 0.19841 0.0
C1117 C 0.37194 0.22346 0.14919 0.0
C1118 C 0.39154 0.21022 0.21873 0.0
C1119 C 0.39943 0.19245 0.19026 0.0
H1120 H 0.37107 0.23817 0.22163 0.0
H1121 H 0.39541 0.21188 0.25698 0.0
S1122 S 0.39113 0.18225 0.05874 0.0
N1123 N 0.37691 0.20438 0.07184 0.0
N1124 N 0.40244 0.17529 0.11017 0.0
C1125 C 0.39483 0.19131 0.14067 0.0
C1126 C 0.38111 0.20701 0.12 0.0
C1127 C 0.87462 0.19273 0.13404 0.0
C1128 C 0.85441 0.16665 0.15985 0.0
C1129 C 0.89076 0.22072 0.15677 0.0
C1130 C 0.88695 0.22343 0.20584 0.0
H1131 H 0.8787 0.19141 0.09632 0.0
H1132 H 0.90638 0.24033 0.13568 0.0
S1133 S 0.83499 0.16225 0.28852 0.0
N1134 N 0.83014 0.14518 0.23635 0.0
N1135 N 0.86058 0.19838 0.27928 0.0
C1136 C 0.8662 0.19773 0.23191 0.0
C1137 C 0.84977 0.16911 0.20874 0.0
C1138 C 0.84999 0.69066 0.14344 0.0
C1139 C 0.84598 0.69024 0.1931 0.0
C1140 C 0.87893 0.70737 0.12362 0.0
C1141 C 0.90431 0.72388 0.15315 0.0
H1142 H 0.83089 0.67715 0.11994 0.0
H1143 H 0.88154 0.70645 0.08531 0.0
S1144 S 0.90484 0.73372 0.28461 0.0
N1145 N 0.86882 0.71017 0.27087 0.0
N1146 N 0.92355 0.74182 0.23349 0.0
C1147 C 0.90035 0.72513 0.20257 0.0
C1148 C 0.87094 0.70815 0.22269 0.0
C1149 C 0.20066 0.3752 0.36576 0.0
C1150 C 0.20508 0.38254 0.31705 0.0
C1151 C 0.21641 0.36288 0.38815 0.0
C1152 C 0.23699 0.35751 0.36245 0.0
H1153 H 0.18485 0.37887 0.38686 0.0
H1154 H 0.21195 0.357 0.42568 0.0
S1155 S 0.2575 0.37404 0.23445 0.0
N1156 N 0.23205 0.38475 0.2438 0.0
N1157 N 0.26186 0.36109 0.28632 0.0
C1158 C 0.24221 0.36533 0.3139 0.0
C1159 C 0.22606 0.37792 0.29096 0.0
C1160 C 0.72737 0.85122 0.32505 0.0
C1161 C 0.69548 0.83459 0.32439 0.0
C1162 C 0.74257 0.87943 0.34754 0.0
C1163 C 0.72616 0.89166 0.36947 0.0
H1164 H 0.74066 0.84246 0.30812 0.0
H1165 H 0.76728 0.89184 0.34721 0.0
S1166 S 0.64233 0.85661 0.37823 0.0
N1167 N 0.64782 0.83181 0.34802 0.0
N1168 N 0.6767 0.88527 0.39019 0.0
C1169 C 0.69429 0.87525 0.36925 0.0
C1170 C 0.6788 0.84647 0.34664 0.0
C1171 C 0.21534 0.87015 0.2977 0.0
C1172 C 0.24178 0.88276 0.32573 0.0
C1173 C 0.18676 0.85541 0.31906 0.0
C1174 C 0.18397 0.85295 0.36897 0.0
H1175 H 0.21669 0.87142 0.25903 0.0
H1176 H 0.16678 0.8461 0.29629 0.0
S1177 S 0.24638 0.88117 0.45798 0.0
N1178 N 0.26372 0.89138 0.40569 0.0
N1179 N 0.20956 0.86352 0.446 0.0
C1180 C 0.21019 0.86537 0.39748 0.0
C1181 C 0.23934 0.88042 0.37574 0.0
C1182 C 0.72059 0.86659 0.88969 0.0
C1183 C 0.72312 0.84356 0.86598 0.0
C1184 C 0.70814 0.88221 0.86656 0.0
C1185 C 0.69795 0.87518 0.81917 0.0
H1186 H 0.72899 0.87317 0.92587 0.0
H1187 H 0.70664 0.89995 0.88583 0.0
S1188 S 0.69795 0.8155 0.74279 0.0
N1189 N 0.71329 0.81344 0.79367 0.0
N1190 N 0.68992 0.84301 0.7499 0.0
C1191 C 0.69972 0.85173 0.79547 0.0
C1192 C 0.71226 0.83577 0.81906 0.0
C1193 C 0.20416 0.85588 0.79153 0.0
C1194 C 0.18123 0.83017 0.81504 0.0
C1195 C 0.21995 0.88369 0.81506 0.0
C1196 C 0.2133 0.88658 0.8628 0.0
H1197 H 0.21077 0.85434 0.75526 0.0
H1198 H 0.23787 0.90288 0.79588 0.0
S1199 S 0.15273 0.827 0.93807 0.0
N1200 N 0.15062 0.80973 0.88701 0.0
N1201 N 0.18075 0.86245 0.93162 0.0
C1202 C 0.18954 0.86145 0.88611 0.0
C1203 C 0.17327 0.83307 0.862 0.0
C1204 C 0.20799 0.35556 0.88004 0.0
C1205 C 0.18309 0.35559 0.85817 0.0
C1206 C 0.23508 0.36541 0.8553 0.0
C1207 C 0.23815 0.37584 0.80811 0.0
H1208 H 0.20659 0.34771 0.91648 0.0
H1209 H 0.25399 0.36564 0.87382 0.0
S1210 S 0.1792 0.37952 0.73436 0.0
N1211 N 0.16255 0.36592 0.78644 0.0
N1212 N 0.21404 0.38494 0.73963 0.0
C1213 C 0.21326 0.37549 0.78537 0.0
C1214 C 0.18554 0.36533 0.81062 0.0
C1215 C 0.8867 0.71279 0.63874 0.0
C1216 C 0.85677 0.70524 0.6499 0.0
C1217 C 0.90157 0.70116 0.66595 0.0
C1218 C 0.88627 0.68085 0.70346 0.0
H1219 H 0.89899 0.72848 0.60995 0.0
H1220 H 0.92484 0.70759 0.65702 0.0
S1221 S 0.80654 0.65135 0.74257 0.0
N1222 N 0.8117 0.67521 0.69861 0.0
N1223 N 0.83921 0.6518 0.74818 0.0
C1224 C 0.85585 0.67195 0.71328 0.0
C1225 C 0.84109 0.68451 0.68666 0.0
C1226 C 0.37644 0.17551 0.68886 0.0
C1227 C 0.36549 0.17288 0.64202 0.0
C1228 C 0.38844 0.20292 0.71323 0.0
C1229 C 0.39002 0.22846 0.69122 0.0
H1230 H 0.37555 0.15621 0.70711 0.0
H1231 H 0.39703 0.20421 0.74916 0.0
S1232 S 0.36378 0.23313 0.56933 0.0
N1233 N 0.35631 0.19759 0.57456 0.0
N1234 N 0.37949 0.24982 0.62055 0.0
C1235 C 0.37915 0.22625 0.64437 0.0
C1236 C 0.36675 0.19819 0.61957 0.0
C1237 C 0.88347 0.18023 0.64921 0.0
C1238 C 0.90756 0.20772 0.66656 0.0
C1239 C 0.85529 0.16626 0.67209 0.0
C1240 C 0.85044 0.17956 0.71265 0.0
H1241 H 0.88643 0.16936 0.61795 0.0
H1242 H 0.83706 0.14522 0.65737 0.0
S1243 S 0.90629 0.25199 0.77107 0.0
N1244 N 0.9251 0.24803 0.72606 0.0
N1245 N 0.87175 0.22182 0.76908 0.0
C1246 C 0.87445 0.20699 0.73055 0.0
C1247 C 0.90319 0.22113 0.70737 0.0
C1248 C 1.0352 0.54428 0.53431 0.0
C1249 C 1.0299 0.54219 0.4849 0.0
C1250 C 0.04529 0.52639 0.55638 0.0
C1251 C 0.05044 0.50604 0.52957 0.0
H1252 H 1.03147 0.55976 0.55618 0.0
H1253 H 0.04977 0.52909 0.59445 0.0
S1254 S 1.03849 0.49127 0.39932 0.0
N1255 N 1.02937 0.51772 0.40983 0.0
N1256 N 0.04856 0.48385 0.45154 0.0
C1257 C 0.04462 0.50325 0.48024 0.0
C1258 C 1.03437 0.52154 0.45773 0.0
C1259 C 0.54337 0.54814 0.47946 0.0
C1260 C 0.53903 0.55136 0.52814 0.0
C1261 C 0.52927 0.51957 0.45822 0.0
C1262 C 0.51044 0.49346 0.48508 0.0
H1263 H 0.55847 0.56767 0.45779 0.0
H1264 H 0.53422 0.51789 0.42102 0.0
S1265 S 0.48826 0.49041 0.61215 0.0
N1266 N 0.51216 0.52687 0.60157 0.0
N1267 N 0.48542 0.47259 0.56134 0.0
C1268 C 0.50426 0.4965 0.53305 0.0
C1269 C 0.51873 0.52571 0.55478 0.0
C1270 C 0.56701 0.04337 0.52856 0.0
C1271 C 0.5698 0.0454 0.47862 0.0
C1272 C 0.53881 0.03267 0.55029 0.0
C1273 C 0.51249 1.02341 0.52275 0.0
H1274 H 0.58674 0.05013 0.55119 0.0
H1275 H 0.53755 0.03087 0.58889 0.0
S1276 S 0.50803 1.02551 0.3906 0.0
N1277 N 0.54446 0.03858 0.40205 0.0
N1278 N 0.49086 1.01785 0.44311 0.0
C1279 C 0.515 1.02604 0.47276 0.0
C1280 C 0.54387 0.03709 0.45057 0.0
C1281 C 0.57047 0.02978 0.98451 0.0
C1282 C 0.56448 1.02073 0.03251 0.0
C1283 C 0.5562 0.04391 0.96266 0.0
C1284 C 0.53561 0.04922 0.98833 0.0
H1285 H 0.58593 1.02555 0.96346 0.0
H1286 H 0.5613 0.05061 0.9255 0.0
S1287 S 0.51246 0.02987 0.11512 0.0
N1288 N 0.53713 1.01822 0.10545 0.0
N1289 N 0.5099 0.04476 0.06406 0.0
C1290 C 0.52968 0.04062 0.03658 0.0
C1291 C 0.54435 1.02639 0.05889 0.0
C1292 C 0.05033 0.50377 0.02416 0.0
C1293 C 1.03908 0.50013 0.97737 0.0
C1294 C 0.06287 0.53193 0.04688 0.0
C1295 C 0.06449 0.55717 0.02341 0.0
H1296 H 0.04853 0.48456 0.04396 0.0
H1297 H 0.07097 0.53378 0.08327 0.0
S1298 S 1.04032 0.55991 0.89923 0.0
N1299 N 1.03195 0.52426 0.90707 0.0
N1300 N 0.05558 0.57745 0.95009 0.0
C1301 C 0.05438 0.55415 0.97597 0.0
C1302 C 1.0417 0.52549 0.95275 0.0
C1303 C 0.52031 0.50822 0.98723 0.0
C1304 C 0.51766 0.51355 0.03575 0.0
C1305 C 0.54771 0.52552 0.9631 0.0
C1306 C 0.57317 0.54853 0.98691 0.0
H1307 H 0.501 0.49084 0.96752 0.0
H1308 H 0.54902 0.52051 0.92581 0.0
S1309 S 0.57786 0.57128 0.11407 0.0
N1310 N 0.5425 0.54318 0.10699 0.0
N1311 N 0.59437 0.57592 0.06146 0.0
C1312 C 0.5709 0.55406 0.03551 0.0
C1313 C 0.54298 0.53639 0.0601 0.0
C1314 C 0.35981 0.30985 0.93394 0.0
C1315 C 0.35079 0.28169 0.95666 0.0
C1316 C 0.3868 0.32463 0.90581 0.0
C1317 C 0.40602 0.31206 0.90005 0.0
H1318 H 0.34622 0.32072 0.93839 0.0
H1319 H 0.39205 0.34541 0.88716 0.0
S1320 S 0.3925 0.23865 0.9506 0.0
N1321 N 0.36334 0.24172 0.96968 0.0
N1322 N 0.41356 0.26963 0.91872 0.0
C1323 C 0.39718 0.28412 0.92271 0.0
C1324 C 0.36983 0.26898 0.95041 0.0
C1325 C 0.78613 0.0762 0.90974 0.0
C1326 C 0.78059 0.0755 0.95895 0.0
C1327 C 0.77394 0.0887 0.87741 0.0
C1328 C 0.75532 0.10066 0.89265 0.0
H1329 H 0.80154 0.06892 0.89646 0.0
H1330 H 0.7802 0.0901 0.84008 0.0
S1331 S 0.73073 0.1004 0.01727 0.0
N1332 N 0.75292 0.08523 0.02103 0.0
N1333 N 0.72976 0.10807 0.96008 0.0
C1334 C 0.74777 0.09795 0.94127 0.0
C1335 C 0.76054 0.08563 0.97437 0.0
C1336 C 0.95149 0.68488 0.91854 0.0
C1337 C 0.96757 0.67006 0.90483 0.0
C1338 C 0.96471 0.71123 0.9466 0.0
C1339 C 0.99488 0.72452 0.96348 0.0
H1340 H 0.92831 0.67642 0.90634 0.0
H1341 H 0.95082 0.7213 0.95529 0.0
S1342 S 0.04687 0.69397 0.94202 0.0
N1343 N 1.01549 0.67022 0.91264 0.0
N1344 N 1.04021 0.71969 0.96681 0.0
C1345 C 1.01132 0.70974 0.95148 0.0
C1346 C 0.99768 0.68251 0.92224 0.0
C1347 C 0.33096 0.36567 0.55014 0.0
C1348 C 0.30823 0.33596 0.56412 0.0
C1349 C 0.34152 0.39108 0.5811 0.0
C1350 C 0.32909 0.38802 0.62702 0.0
H1351 H 0.33947 0.36963 0.51379 0.0
H1352 H 0.35809 0.41344 0.5679 0.0
S1353 S 0.27076 0.3147 0.68237 0.0
N1354 N 0.27524 0.30491 0.62801 0.0
N1355 N 0.29453 0.35175 0.68637 0.0
C1356 C 0.30753 0.35799 0.64225 0.0
C1357 C 0.2972 0.33226 0.61085 0.0
C1358 C 0.68551 0.96409 0.57892 0.0
C1359 C 0.68893 0.95756 0.62656 0.0
C1360 C 0.71096 0.97827 0.54799 0.0
C1361 C 0.7409 0.98747 0.56385 0.0
H1362 H 0.66296 0.95649 0.56466 0.0
H1363 H 0.70699 0.98066 0.5106 0.0
S1364 S 0.76272 0.97891 0.68645 0.0
N1365 N 0.72534 0.96372 0.68884 0.0
N1366 N 0.77249 0.99087 0.63092 0.0
C1367 C 0.74481 0.98299 0.61198 0.0
C1368 C 0.71903 0.96797 0.64321 0.0
C1369 C 0.11669 0.76619 0.54275 0.0
C1370 C 0.09364 0.77241 0.55819 0.0
C1371 C 0.12824 0.75189 0.57242 0.0
C1372 C 0.11726 0.74308 0.61895 0.0
H1373 H 0.12682 0.77339 0.50765 0.0
H1374 H 0.14719 0.74953 0.5599 0.0
S1375 S 0.05444 0.74983 0.67525 0.0
N1376 N 0.05818 0.76528 0.62182 0.0
N1377 N 0.08005 0.73878 0.67795 0.0
C1378 C 0.09288 0.74721 0.6339 0.0
C1379 C 0.08093 0.76161 0.60345 0.0
C1380 C 0.70333 0.73697 0.10723 0.0
C1381 C 0.68685 0.75208 0.11708 0.0
C1382 C 0.73107 0.75137 0.08069 0.0
C1383 C 0.74355 0.7816 0.06376 0.0
H1384 H 0.69527 0.71428 0.12119 0.0
H1385 H 0.74237 0.73857 0.0727 0.0
S1386 S 0.71002 0.8315 0.0821 0.0
N1387 N 0.68558 0.79904 0.10782 0.0
N1388 N 0.73746 0.82622 0.06119 0.0
C1389 C 0.72745 0.79689 0.07467 0.0
C1390 C 0.69926 0.78216 0.10021 0.0
C1391 C 0.29763 0.97777 0.10464 0.0
C1392 C 0.3075 0.98308 0.05704 0.0
C1393 C 0.30852 0.96414 0.13699 0.0
C1394 C 0.32986 0.95521 0.12337 0.0
H1395 H 0.28013 0.98264 0.11634 0.0
H1396 H 0.29939 0.95984 0.17296 0.0
S1397 S 0.36495 0.96694 1.00335 0.0
N1398 N 0.34118 0.9802 0.99816 0.0
N1399 N 0.36214 0.95522 0.05927 0.0
C1400 C 0.34126 0.9621 0.07649 0.0
C1401 C 0.32984 0.9757 0.04327 0.0
C1402 C 0.11106 0.35986 0.14293 0.0
C1403 C 0.11803 0.38963 0.12912 0.0
C1404 C 0.09698 0.33476 0.11162 0.0
C1405 C 0.08914 0.33815 0.06491 0.0
H1406 H 0.11748 0.35598 0.17805 0.0
H1407 H 0.09407 0.31304 0.12307 0.0
S1408 S 0.09962 0.4101 0.01172 0.0
N1409 N 0.11336 0.42004 0.06643 0.0
N1410 N 0.08788 0.37337 1.00705 0.0
C1411 C 0.09449 0.36737 0.05138 0.0
C1412 C 0.10848 0.39289 0.08358 0.0
C1413 C 0.7583 0.70978 0.43526 0.0
C1414 C 0.7894 0.72485 0.44841 0.0
C1415 C 0.7451 0.68265 0.4074 0.0
C1416 C 0.76264 0.66981 0.39103 0.0
H1417 H 0.74384 0.7184 0.44773 0.0
H1418 H 0.72124 0.67211 0.39818 0.0
S1419 S 0.84533 0.70107 0.41449 0.0
N1420 N 0.83727 0.72509 0.44152 0.0
N1421 N 0.81298 0.6749 0.39049 0.0
C1422 C 0.79377 0.68506 0.40379 0.0
C1423 C 0.807 0.71233 0.43171 0.0
C1424 C 0.3508 0.0966 0.41029 0.0
C1425 C 0.34881 0.07655 0.44633 0.0
C1426 C 0.37626 0.11085 0.38014 0.0
C1427 C 0.40159 0.10626 0.38466 0.0
H1428 H 0.33303 0.10244 0.40665 0.0
H1429 H 0.37606 0.12628 0.35357 0.0
S1430 S 0.40726 0.055 0.4738 0.0
N1431 N 0.37391 0.05216 0.4852 0.0
N1432 N 0.42192 0.07877 0.42815 0.0
C1433 C 0.3995 0.08546 0.42001 0.0
C1434 C 0.37321 0.07078 0.45092 0.0
C1435 C 0.96063 0.27745 0.46315 0.0
C1436 C 0.99183 0.28579 0.46372 0.0
C1437 C 0.9493 0.2919 0.4335 0.0
C1438 C 0.96841 0.31592 0.40298 0.0
H1439 H 0.94428 0.25899 0.48538 0.0
H1440 H 0.92496 0.28343 0.43334 0.0
S1441 S 0.05163 0.34686 0.38839 0.0
N1442 N 1.04169 0.32008 0.42954 0.0
N1443 N 1.02012 0.34703 0.37361 0.0
C1444 C 0.99964 0.32484 0.40283 0.0
C1445 C 1.01137 0.30989 0.43309 0.0
C1446 C 0.06246 0.66099 0.24805 0.0
C1447 C 0.07138 0.64116 0.2276 0.0
C1448 C 1.03575 0.64982 0.27657 0.0
C1449 C 1.01674 0.61834 0.2856 0.0
H1450 H 0.07605 0.68528 0.24177 0.0
H1451 H 1.03075 0.66613 0.29286 0.0
S1452 S 1.02952 0.55659 0.24166 0.0
N1453 N 0.0585 0.58804 0.22006 0.0
N1454 N 1.00883 0.56775 0.27162 0.0
C1455 C 1.02522 0.59845 0.26481 0.0
C1456 C 0.05231 0.6096 0.23662 0.0
C1457 C 0.4427 0.43325 0.30944 0.0
C1458 C 0.44854 0.40959 0.29609 0.0
C1459 C 0.42942 0.445 0.27792 0.0
C1460 C 0.42122 0.43369 0.23138 0.0
H1461 H 0.4494 0.44373 0.34438 0.0
H1462 H 0.42732 0.46432 0.28916 0.0
S1463 S 0.42768 0.36969 0.17942 0.0
N1464 N 0.4419 0.37347 0.23384 0.0
N1465 N 0.41743 0.39582 0.17431 0.0
C1466 C 0.42513 0.40891 0.21824 0.0
C1467 C 0.43848 0.39671 0.25061 0.0
C1468 C 0.66428 0.06124 0.23977 0.0
C1469 C 0.66843 0.05696 0.28807 0.0
C1470 C 0.65105 0.03642 0.20777 0.0
C1471 C 0.64132 1.00605 0.22239 0.0
H1472 H 0.66951 0.08356 0.22719 0.0
H1473 H 0.64743 0.04107 0.1713 0.0
S1474 S 0.65102 0.9835 0.34426 0.0
N1475 N 0.66445 1.0206 0.34837 0.0
N1476 N 0.64008 0.97422 0.28813 0.0
C1477 C 0.64744 1.0019 0.26991 0.0
C1478 C 0.6607 1.02721 0.30269 0.0
C1479 C 0.46166 1.01824 0.74105 0.0
C1480 C 0.43085 1.0032 0.72699 0.0
C1481 C 0.47434 0.04445 0.76965 0.0
C1482 C 0.4572 0.05773 0.78542 0.0
H1483 H 0.47643 1.00975 0.72945 0.0
H1484 H 0.49808 0.05436 0.77985 0.0
S1485 S 0.37553 1.0284 0.75736 0.0
N1486 N 0.38319 1.00374 0.73121 0.0
N1487 N 0.40758 0.05421 0.78296 0.0
C1488 C 0.42641 0.04347 0.77089 0.0
C1489 C 0.41309 1.01591 0.74255 0.0
C1490 C 0.07343 0.44244 0.77689 0.0
C1491 C 0.06932 0.43211 0.72964 0.0
C1492 C 0.04864 0.43132 0.80873 0.0
C1493 C 1.01852 0.4093 0.79493 0.0
H1494 H 0.09549 0.46066 0.78849 0.0
H1495 H 0.05313 0.44105 0.8443 0.0
S1496 S 0.9968 0.37179 0.67651 0.0
N1497 N 1.03366 0.39642 0.67151 0.0
N1498 N 0.98725 0.37527 0.73167 0.0
C1499 C 1.01465 0.39711 0.74876 0.0
C1500 C 1.03994 0.40868 0.71609 0.0
C1501 C 0.62364 0.61178 0.7219 0.0
C1502 C 0.63399 0.6433 0.71696 0.0
C1503 C 0.63807 0.60071 0.75198 0.0
C1504 C 0.66392 0.62032 0.77888 0.0
H1505 H 0.60356 0.59498 0.703 0.0
H1506 H 0.62803 0.57624 0.75573 0.0
S1507 S 0.70121 0.70477 0.77998 0.0
N1508 N 0.6728 0.69417 0.74164 0.0
N1509 N 0.6994 0.67308 0.79935 0.0
C1510 C 0.67508 0.65192 0.77421 0.0
C1511 C 0.6603 0.66342 0.74313 0.0
C1512 C 0.24834 0.2165 0.29142 0.0
C1513 C 0.23867 0.23656 0.30774 0.0
C1514 C 0.25049 0.21185 0.24217 0.0
C1515 C 0.24323 0.22708 0.20656 0.0
H1516 H 0.25585 0.20546 0.31674 0.0
H1517 H 0.2595 0.19726 0.23205 0.0
S1518 S 0.21321 0.2793 0.22962 0.0
N1519 N 0.21862 0.26944 0.2834 0.0
N1520 N 0.22333 0.26103 0.19169 0.0
C1521 C 0.23154 0.24555 0.22228 0.0
C1522 C 0.22915 0.25021 0.27247 0.0
C1523 C 0.85967 0.05867 0.24143 0.0
C1524 C 0.84649 0.03573 0.20588 0.0
C1525 C 0.8561 0.05172 0.29061 0.0
C1526 C 0.83924 1.02147 0.30672 0.0
H1527 H 0.87151 0.08252 0.23143 0.0
H1528 H 0.8649 0.07035 0.31599 0.0
S1529 S 0.80506 0.95251 0.22911 0.0
N1530 N 0.81943 0.98124 0.19098 0.0
N1531 N 0.81311 0.96803 0.28287 0.0
C1532 C 0.8284 0.99818 0.27165 0.0
C1533 C 0.83195 1.00531 0.22151 0.0
C1534 C 1.01678 0.81257 0.24626 0.0
C1535 C 1.04062 0.8267 0.21222 0.0
C1536 C 1.02225 0.81628 0.29578 0.0
C1537 C 0.05181 0.83458 0.31383 0.0
H1538 H 0.99359 0.79721 0.23483 0.0
H1539 H 1.00335 0.80349 0.31996 0.0
S1540 S 0.12169 0.88048 0.24022 0.0
N1541 N 0.09445 0.86207 0.20047 0.0
N1542 N 0.10498 0.87013 0.29296 0.0
C1543 C 0.07559 0.85066 0.2801 0.0
C1544 C 0.06999 0.84641 0.22962 0.0
C1545 C 0.85683 0.81486 0.74043 0.0
C1546 C 0.84284 0.82458 0.70613 0.0
C1547 C 0.85567 0.81955 0.7898 0.0
C1548 C 0.84083 0.8346 0.8075 0.0
H1549 H 0.8678 0.80219 0.7294 0.0
H1550 H 0.86545 0.81021 0.81429 0.0
S1551 S 0.80351 0.86788 0.73294 0.0
N1552 N 0.8157 0.85209 0.69372 0.0
N1553 N 0.81414 0.86191 0.78572 0.0
C1554 C 0.82857 0.84639 0.77336 0.0
C1555 C 0.82946 0.84121 0.72303 0.0
C1556 C 0.26693 0.05373 0.79069 0.0
C1557 C 0.24779 1.02396 0.8073 0.0
C1558 C 0.27106 0.0603 0.74148 0.0
C1559 C 0.25643 0.03738 0.70621 0.0
H1560 H 0.28001 0.072 0.81577 0.0
H1561 H 0.28701 0.08357 0.73128 0.0
S1562 S 0.20049 0.95623 0.73038 0.0
N1563 N 0.21116 0.97166 0.78393 0.0
N1564 N 0.21963 0.98415 0.69196 0.0
C1565 C 0.23584 1.00783 0.72224 0.0
C1566 C 0.23134 1.00111 0.77247 0.0
C1567 C 1.02373 0.21356 0.74359 0.0
C1568 C 0.04578 0.22979 0.70774 0.0
C1569 C 1.03041 0.2191 0.79272 0.0
C1570 C 0.05959 0.24096 0.80873 0.0
H1571 H 1.00042 0.19746 0.73367 0.0
H1572 H 1.0121 0.20709 0.81818 0.0
S1573 S 0.12684 0.28703 0.72996 0.0
N1574 N 0.09879 0.26676 0.6923 0.0
N1575 N 0.11189 0.27674 0.78385 0.0
C1576 C 0.08255 0.25566 0.77327 0.0
C1577 C 0.07557 0.25015 0.72316 0.0
C1578 C 0.90379 0.58615 0.61003 0.0
C1579 C 0.91452 0.57364 0.6454 0.0
C1580 C 0.90629 0.5822 0.56069 0.0
C1581 C 0.91938 0.56526 0.54389 0.0
H1582 H 0.89449 0.60045 0.62027 0.0
H1583 H 0.8993 0.59385 0.53565 0.0
S1584 S 0.9467 0.52351 0.62084 0.0
N1585 N 0.93586 0.54088 0.65935 0.0
N1586 N 0.9398 0.53248 0.56737 0.0
C1587 C 0.92798 0.55054 0.57885 0.0
C1588 C 0.92572 0.55492 0.62919 0.0
C1589 C 0.52542 0.39406 0.57769 0.0
C1590 C 0.51602 0.37055 0.54311 0.0
C1591 C 0.52104 0.38789 0.62718 0.0
C1592 C 0.50726 0.35792 0.64472 0.0
H1593 H 0.53484 0.41753 0.5665 0.0
H1594 H 0.52704 0.40667 0.65154 0.0
S1595 S 0.48302 0.2884 0.57026 0.0
N1596 N 0.49531 0.31638 0.53095 0.0
N1597 N 0.48783 0.30461 0.62314 0.0
C1598 C 0.50003 0.33441 0.61073 0.0
C1599 C 0.50421 0.34073 0.56034 0.0
C1600 C 0.68213 0.14495 0.57526 0.0
C1601 C 0.70533 0.15763 0.54 0.0
C1602 C 0.68865 0.14942 0.6245 0.0
C1603 C 0.7187 0.16698 0.64119 0.0
H1604 H 0.65857 0.1301 0.56508 0.0
H1605 H 0.67007 0.13761 0.6496 0.0
S1606 S 0.78746 0.20966 0.56429 0.0
N1607 N 0.7593 0.19152 0.52583 0.0
N1608 N 0.7717 0.20054 0.61784 0.0
C1609 C 0.74191 0.18184 0.60633 0.0
C1610 C 0.73523 0.17704 0.55606 0.0
C1611 C 0.51862 0.1475 0.12176 0.0
C1612 C 0.50718 0.16571 0.13935 0.0
C1613 C 0.52099 0.14406 0.07233 0.0
C1614 C 0.51169 0.15833 0.03784 0.0
H1615 H 0.52446 0.13463 0.1462 0.0
H1616 H 0.52894 0.12875 0.06132 0.0
S1617 S 0.48399 0.21188 0.06469 0.0
N1618 N 0.48979 0.20133 0.11767 0.0
N1619 N 0.49333 0.19369 0.02534 0.0
C1620 C 0.50186 0.17797 0.05483 0.0
C1621 C 0.4999 0.18196 0.10527 0.0
C1622 C 0.92662 0.38793 0.12997 0.0
C1623 C 0.91052 0.35785 0.14709 0.0
C1624 C 0.92866 0.39434 0.08061 0.0
C1625 C 0.91494 0.37101 0.04569 0.0
H1626 H 0.93906 0.40662 0.15459 0.0
H1627 H 0.9426 0.41792 0.06981 0.0
S1628 S 0.86598 0.28864 0.07162 0.0
N1629 N 0.87703 0.30458 0.12476 0.0
N1630 N 0.88177 0.31684 0.03269 0.0
C1631 C 0.89695 0.34106 0.06244 0.0
C1632 C 0.89456 0.33447 0.11278 0.0
C1633 C 0.73746 0.57561 0.10613 0.0
C1634 C 0.71425 0.56559 0.14136 0.0
C1635 C 0.73107 0.57395 0.05679 0.0
C1636 C 0.70111 0.5619 0.03995 0.0
H1637 H 0.76118 0.58637 0.11663 0.0
H1638 H 0.74999 0.58356 0.03188 0.0
S1639 S 0.63136 0.52812 0.11656 0.0
N1640 N 0.65974 0.5403 0.1551 0.0
N1641 N 0.64736 0.53619 0.06317 0.0
C1642 C 0.6774 0.54952 0.0747 0.0
C1643 C 0.68405 0.55156 0.125 0.0
C1644 C 0.56833 0.90758 0.89146 0.0
C1645 C 0.58367 0.89264 0.87543 0.0
C1646 C 0.56438 0.91052 0.94064 0.0
C1647 C 0.57582 0.89892 0.9763 0.0
H1648 H 0.5611 0.91886 0.86612 0.0
H1649 H 0.55375 0.92369 0.95059 0.0
S1650 S 0.61249 0.85265 0.95303 0.0
N1651 N 0.60606 0.86175 0.89932 0.0
N1652 N 0.5994 0.86821 0.99115 0.0
C1653 C 0.58877 0.88162 0.96063 0.0
C1654 C 0.59251 0.87829 0.91049 0.0
C1655 C 0.18639 0.72098 0.95491 0.0
C1656 C 0.17223 0.69083 0.97156 0.0
C1657 C 0.19099 0.72761 0.90566 0.0
C1658 C 0.18142 0.70438 0.87057 0.0
H1659 H 0.19242 0.73954 0.97975 0.0
H1660 H 0.20068 0.75121 0.89508 0.0
S1661 S 0.14781 0.62191 0.89562 0.0
N1662 N 0.15257 0.63765 0.94888 0.0
N1663 N 0.1604 0.65027 0.85697 0.0
C1664 C 0.1694 0.67437 0.88695 0.0
C1665 C 0.16501 0.66758 0.93713 0.0
C1666 C 0.40718 0.50519 0.94031 0.0
C1667 C 0.38431 0.49569 0.97601 0.0
C1668 C 0.40045 0.50369 0.89117 0.0
C1669 C 0.37051 0.49276 0.87495 0.0
H1670 H 0.43057 0.5127 0.95005 0.0
H1671 H 0.4187 0.50962 0.86573 0.0
S1672 S 0.30277 0.46954 0.95309 0.0
N1673 N 0.33088 0.47808 0.99105 0.0
N1674 N 0.31814 0.47568 0.89928 0.0
C1675 C 0.34773 0.48532 0.91027 0.0
C1676 C 0.35462 0.48668 0.96044 0.0
C1677 C 0.15621 0.50593 0.44219 0.0
C1678 C 0.17021 0.49695 0.47763 0.0
C1679 C 0.16052 0.50368 0.393 0.0
C1680 C 0.17927 0.49257 0.37655 0.0
H1681 H 0.14038 0.51345 0.45223 0.0
H1682 H 0.14768 0.50912 0.36783 0.0
S1683 S 0.2257 0.47118 0.4538 0.0
N1684 N 0.20657 0.48 0.49212 0.0
N1685 N 0.21547 0.47642 0.40017 0.0
C1686 C 0.19549 0.48594 0.41152 0.0
C1687 C 0.19079 0.48797 0.46175 0.0
C1688 C 0.59352 0.72386 0.40504 0.0
C1689 C 0.58313 0.70045 0.37007 0.0
C1690 C 0.58916 0.71755 0.45423 0.0
C1691 C 0.57362 0.68751 0.47112 0.0
H1692 H 0.60672 0.74758 0.39463 0.0
H1693 H 0.59931 0.73642 0.47917 0.0
S1694 S 0.53652 0.61777 0.39451 0.0
N1695 N 0.55327 0.6461 0.35597 0.0
N1696 N 0.54366 0.63379 0.44786 0.0
C1697 C 0.5604 0.66383 0.43633 0.0
C1698 C 0.5654 0.67039 0.38608 0.0
C1699 C 0.35813 0.88521 0.4582 0.0
C1700 C 0.38842 0.89977 0.47449 0.0
C1701 C 0.35124 0.88321 0.40905 0.0
C1702 C 0.37427 0.89587 0.37352 0.0
H1703 H 0.33952 0.87665 0.4836 0.0
H1704 H 0.32743 0.87277 0.39917 0.0
S1705 S 0.45739 0.93311 0.39647 0.0
N1706 N 0.44184 0.92423 0.45016 0.0
N1707 N 0.42868 0.92098 0.35855 0.0
C1708 C 0.40459 0.90871 0.38908 0.0
C1709 C 0.41168 0.91053 0.43919 0.0
C1710 C 0.33118 0.34293 0.05407 0.0
C1711 C 0.31991 0.32937 0.09893 0.0
C1712 C 0.34955 0.3745 0.04964 0.0
C1713 C 0.35633 0.39365 0.08942 0.0
H1714 H 0.32797 0.32906 0.02281 0.0
H1715 H 0.36003 0.38384 0.01534 0.0
S1716 S 0.32753 0.36953 0.21288 0.0
N1717 N 0.31377 0.33733 0.18268 0.0
N1718 N 0.34666 0.397 0.17371 0.0
C1719 C 0.34238 0.38059 0.13334 0.0
C1720 C 0.32452 0.34827 0.13825 0.0
C1721 C 0.69901 0.99095 0.04098 0.0
C1722 C 0.67946 0.97533 0.07927 0.0
C1723 C 0.73062 1.00639 0.04687 0.0
C1724 C 0.74363 1.00717 0.09146 0.0
H1725 H 0.68981 0.99351 1.00742 0.0
H1726 H 0.74449 1.0203 0.0177 0.0
S1727 S 0.70279 0.96493 0.2002 0.0
N1728 N 0.67555 0.95686 0.16064 0.0
N1729 N 0.7352 0.98762 0.17249 0.0
C1730 C 0.72458 0.98906 0.12851 0.0
C1731 C 0.69231 0.97253 0.12213 0.0
C1732 C 1.04321 0.71148 0.13989 0.0
C1733 C 0.05246 0.73803 0.11275 0.0
C1734 C 0.058 0.69467 0.13606 0.0
C1735 C 0.08326 0.70399 0.10597 0.0
H1736 H 1.02323 0.70253 0.16259 0.0
H1737 H 0.04862 0.67334 0.15538 0.0
S1738 S 0.11886 0.77348 0.03104 0.0
N1739 N 0.08997 0.77424 0.0571 0.0
N1740 N 0.11858 0.74265 0.05105 0.0
C1741 C 0.09433 0.73162 0.08108 0.0
C1742 C 0.07875 0.74869 0.08429 0.0
C1743 C 0.3929 0.33417 0.48292 0.0
C1744 C 0.41061 0.33547 0.44349 0.0
C1745 C 0.36133 0.32086 0.47874 0.0
C1746 C 0.34642 0.30788 0.43549 0.0
H1747 H 0.40362 0.34593 0.51583 0.0
H1748 H 0.349 0.32307 0.50844 0.0
S1749 S 0.38155 0.29897 0.3254 0.0
N1750 N 0.41042 0.31759 0.36257 0.0
N1751 N 0.35073 0.29269 0.35505 0.0
C1752 C 0.36328 0.30554 0.39783 0.0
C1753 C 0.39557 0.31925 0.40185 0.0
C1754 C 0.75083 0.0524 0.47401 0.0
C1755 C 0.76418 0.0506 0.43113 0.0
C1756 C 0.73455 0.06788 0.47629 0.0
C1757 C 0.73112 0.08221 0.43577 0.0
H1758 H 0.75037 0.03936 0.50487 0.0
H1759 H 0.72228 0.06628 0.5089 0.0
S1760 S 0.76566 0.0879 0.31672 0.0
N1761 N 0.77595 0.06711 0.34869 0.0
N1762 N 0.74601 0.09725 0.3532 0.0
C1763 C 0.74734 0.08362 0.39414 0.0
C1764 C 0.76371 0.06744 0.39172 0.0
C1765 C 1.02074 0.71225 0.38143 0.0
C1766 C 1.02618 0.73103 0.42148 0.0
C1767 C 1.00475 0.68045 0.38575 0.0
C1768 C 0.99487 0.66652 0.4305 0.0
H1769 H 1.03067 0.72222 0.34712 0.0
H1770 H 1.00253 0.66684 0.35479 0.0
S1771 S 0.99857 0.7047 0.54486 0.0
N1772 N 1.01534 0.73275 0.5058 0.0
N1773 N 0.98799 0.67305 0.51442 0.0
C1774 C 0.9978 0.6847 0.46997 0.0
C1775 C 1.0128 0.71705 0.46527 0.0
C1776 C 0.7319 0.68801 0.96514 0.0
C1777 C 0.73019 0.66826 0.92864 0.0
C1778 C 0.7502 0.71949 0.96044 0.0
C1779 C 0.76706 0.73256 0.9186 0.0
H1780 H 0.71771 0.67915 0.99672 0.0
H1781 H 0.74951 0.73372 0.98859 0.0
S1782 S 0.77392 0.69089 0.81519 0.0
N1783 N 0.75 0.66377 0.85172 0.0
N1784 N 0.78343 0.72355 0.84187 0.0
C1785 C 0.76711 0.71316 0.88292 0.0
C1786 C 0.749 0.68079 0.8883 0.0
C1787 C 0.36557 0.02974 0.88659 0.0
C1788 C 0.34625 0.03832 0.90929 0.0
C1789 C 0.39705 0.04664 0.89227 0.0
C1790 C 0.41075 0.07332 0.91957 0.0
H1791 H 0.35631 1.00878 0.8664 0.0
H1792 H 0.41076 0.03777 0.87701 0.0
S1793 S 0.37097 0.1072 0.98385 0.0
N1794 N 0.3432 0.07626 0.95846 0.0
N1795 N 0.40316 0.10866 0.96817 0.0
C1796 C 0.39211 0.08339 0.94041 0.0
C1797 C 0.35963 0.06573 0.93526 0.0
C1798 C 1.00077 0.33496 0.98217 0.0
C1799 C 0.98665 0.33859 0.94146 0.0
C1800 C 1.01894 0.32145 0.97883 0.0
C1801 C 1.02347 0.31102 0.93483 0.0
H1802 H 0.99986 0.34482 0.01606 0.0
H1803 H 1.03141 0.32149 0.01018 0.0
S1804 S 0.9865 0.30909 0.81988 0.0
N1805 N 0.97392 0.32541 0.85754 0.0
N1806 N 1.00914 0.30101 0.85137 0.0
C1807 C 1.0068 0.31128 0.89514 0.0
C1808 C 0.98799 0.32478 0.89848 0.0
C1809 C 0.72509 0.71415 0.54862 0.0
C1810 C 0.73859 0.73946 0.57916 0.0
C1811 C 0.6935 0.697 0.54306 0.0
C1812 C 0.67399 0.70392 0.56903 0.0
H1813 H 0.73896 0.7061 0.53173 0.0
H1814 H 0.68429 0.67691 0.52061 0.0
S1815 S 0.69811 0.76898 0.65184 0.0
N1816 N 0.73047 0.77181 0.63379 0.0
N1817 N 0.67056 0.73919 0.62393 0.0
C1818 C 0.6872 0.73022 0.59772 0.0
C1819 C 0.71966 0.74802 0.60288 0.0
C1820 C 0.37207 1.00293 0.61649 0.0
C1821 C 0.36094 0.97944 0.58259 0.0
C1822 C 0.35936 1.02156 0.62144 0.0
C1823 C 0.33514 1.01775 0.59231 0.0
H1824 H 0.39186 1.00797 0.63782 0.0
H1825 H 0.36954 0.03999 0.64717 0.0
S1826 S 0.29783 0.95961 0.49739 0.0
N1827 N 0.32444 0.95313 0.51905 0.0
N1828 N 0.30003 0.98834 0.52855 0.0
C1829 C 0.32317 0.99387 0.55879 0.0
C1830 C 0.33639 0.97481 0.55359 0.0
C1831 C 0.08508 0.37269 0.54855 0.0
C1832 C 0.09743 0.3922 0.5881 0.0
C1833 C 0.06948 0.341 0.5542 0.0
C1834 C 0.06505 0.32787 0.59973 0.0
H1835 H 0.08517 0.38196 0.51357 0.0
H1836 H 0.05823 0.32702 0.52347 0.0
S1837 S 0.09733 0.36848 0.71353 0.0
N1838 N 0.10862 0.39581 0.67312 0.0
N1839 N 0.07741 0.33615 0.68407 0.0
C1840 C 0.07967 0.34689 0.63884 0.0
C1841 C 0.09649 0.37919 0.63289 0.0
C1842 C 1.02547 0.64895 0.79963 0.0
C1843 C 1.01159 0.64474 0.7547 0.0
C1844 C 0.05728 0.6627 0.80383 0.0
C1845 C 0.07599 0.67164 0.763 0.0
H1846 H 1.01198 0.64392 0.83169 0.0
H1847 H 0.06736 0.66797 0.83918 0.0
S1848 S 0.04916 0.65825 0.63685 0.0
N1849 N 1.01785 0.64636 0.66882 0.0
N1850 N 0.07719 0.66951 0.67594 0.0
C1851 C 0.06171 0.66378 0.71778 0.0
C1852 C 1.02955 0.65104 0.71377 0.0
C1853 C 0.41158 0.3868 0.71703 0.0
C1854 C 0.42669 0.38287 0.75595 0.0
C1855 C 0.3969 0.4037 0.72147 0.0
C1856 C 0.39606 0.41669 0.76544 0.0
H1857 H 0.40964 0.37529 0.68346 0.0
H1858 H 0.38443 0.4047 0.69086 0.0
S1859 S 0.43597 0.41697 0.87643 0.0
N1860 N 0.44359 0.39682 0.83819 0.0
N1861 N 0.41434 0.42747 0.84724 0.0
C1862 C 0.41273 0.4147 0.80389 0.0
C1863 C 0.42858 0.39812 0.79893 0.0
C1864 C 0.69821 0.04678 0.70407 0.0
C1865 C 0.69252 0.06335 0.73878 0.0
C1866 C 0.68559 1.01524 0.70803 0.0
C1867 C 0.66586 0.99875 0.74568 0.0
H1868 H 0.71429 0.0584 0.67541 0.0
H1869 H 0.69262 1.00395 0.6826 0.0
S1870 S 0.64003 0.03049 0.84217 0.0
N1871 N 0.66343 0.06048 0.80977 0.0
N1872 N 0.63882 1.00068 0.81593 0.0
C1873 C 0.65776 1.01448 0.77834 0.0
C1874 C 0.67126 0.04692 0.77509 0.0
C1875 C 0.40605 0.04388 0.20647 0.0
C1876 C 0.42598 0.06349 0.24171 0.0
C1877 C 0.39152 1.0122 0.21168 0.0
C1878 C 0.39626 0.99893 0.25239 0.0
H1879 H 0.40003 0.05306 0.17604 0.0
H1880 H 0.37452 0.99822 0.18561 0.0
S1881 S 0.44847 0.03987 0.35274 0.0
N1882 N 0.45226 0.06721 0.31628 0.0
N1883 N 0.42371 1.00745 0.327 0.0
C1884 C 0.41771 1.0181 0.28627 0.0
C1885 C 0.43303 0.05049 0.28057 0.0
C1886 C 1.0329 0.37885 0.21571 0.0
C1887 C 1.01412 0.37956 0.252 0.0
C1888 C 0.06461 0.39501 0.22007 0.0
C1889 C 0.07875 0.4125 0.2608 0.0
H1890 H 1.02299 0.36396 0.18512 0.0
H1891 H 0.07783 0.39168 0.19308 0.0
S1892 S 1.04026 0.4244 0.36395 0.0
N1893 N 1.0121 0.40176 0.32792 0.0
N1894 N 0.07206 0.43141 0.33675 0.0
C1895 C 0.0605 0.41523 0.29586 0.0
C1896 C 1.02801 0.39906 0.29113 0.0
C1897 C 0.67282 0.66989 0.30289 0.0
C1898 C 0.65866 0.67545 0.26414 0.0
C1899 C 0.68704 0.65253 0.29709 0.0
C1900 C 0.68836 0.64108 0.25216 0.0
H1901 H 0.675 0.68098 0.33696 0.0
H1902 H 0.6997 0.65082 0.32664 0.0
S1903 S 0.64993 0.64418 0.1417 0.0
N1904 N 0.64196 0.66322 0.18154 0.0
N1905 N 0.67094 0.63258 0.16998 0.0
C1906 C 0.67182 0.64387 0.21436 0.0
C1907 C 0.65628 0.66056 0.22062 0.0
loop_
_geom_bond_atom_site_label_1
_geom_bond_atom_site_label_2
_geom_bond_distance
_geom_bond_site_symmetry_2
_ccdc_geom_bond_type
Tb0 O3 2.453 . S
Tb0 O4 2.596 . S
Tb0 O5 2.374 . S
Tb0 O13 2.343 . S
Tb0 O15 2.353 . S
Tb0 O17 2.427 . S
Tb0 O18 2.513 . S
C1 O5 1.251 . S
C1 O7 1.263 . S
Tb2 O4 2.343 . S
Tb2 O7 2.353 . S
Tb2 O10 2.427 . S
Tb2 O11 2.513 1_554 S
Tb2 O12 2.453 . S
Tb2 O13 2.596 . S
Tb2 O14 2.374 1_554 S
O3 Tb0 2.453 . S
O3 C19 1.245 . S
O4 Tb0 2.596 . S
O4 Tb2 2.343 . S
O4 C19 1.259 . S
O5 Tb0 2.374 . S
O5 C1 1.251 . S
C6 O10 1.275 . S
C6 O11 1.246 1_554 S
O7 C1 1.263 . S
O7 Tb2 2.353 . S
C8 O12 1.245 . S
C8 O13 1.259 . S
C9 O14 1.250 . S
C9 O15 1.263 1_556 S
O10 Tb2 2.427 . S
O10 C6 1.275 . S
O11 Tb2 2.513 1_556 S
O11 C6 1.246 1_556 S
O12 Tb2 2.453 . S
O12 C8 1.245 . S
O13 Tb0 2.343 . S
O13 Tb2 2.596 . S
O13 C8 1.259 . S
O14 Tb2 2.374 1_556 S
O14 C9 1.250 . S
O15 Tb0 2.353 . S
O15 C9 1.263 1_554 S
C16 O17 1.275 . S
C16 O18 1.246 . S
O17 Tb0 2.427 . S
O17 C16 1.275 . S
O18 Tb0 2.513 . S
O18 C16 1.246 . S
C19 O3 1.245 . S
C19 O4 1.259 . S
Tb20 O23 2.453 . S
Tb20 O24 2.596 . S
Tb20 O25 2.374 . S
Tb20 O33 2.343 . S
Tb20 O35 2.353 . S
Tb20 O37 2.427 . S
Tb20 O38 2.513 . S
C21 O25 1.251 . S
C21 O27 1.263 . S
Tb22 O24 2.343 . S
Tb22 O27 2.353 . S
Tb22 O30 2.427 1_545 S
Tb22 O31 2.513 1_544 S
Tb22 O32 2.453 . S
Tb22 O33 2.596 . S
Tb22 O34 2.374 1_554 S
O23 Tb20 2.453 . S
O23 C39 1.245 . S
O24 Tb20 2.596 . S
O24 Tb22 2.343 . S
O24 C39 1.259 . S
O25 Tb20 2.374 . S
O25 C21 1.251 . S
C26 O30 1.275 . S
C26 O31 1.246 1_554 S
O27 C21 1.263 . S
O27 Tb22 2.353 . S
C28 O32 1.245 . S
C28 O33 1.259 . S
C29 O34 1.250 . S
C29 O35 1.263 1_556 S
O30 Tb22 2.427 1_565 S
O30 C26 1.275 . S
O31 Tb22 2.513 1_566 S
O31 C26 1.246 1_556 S
O32 Tb22 2.453 . S
O32 C28 1.245 . S
O33 Tb20 2.343 . S
O33 Tb22 2.596 . S
O33 C28 1.259 . S
O34 Tb22 2.374 1_556 S
O34 C29 1.250 . S
O35 Tb20 2.353 . S
O35 C29 1.263 1_554 S
C36 O37 1.275 . S
C36 O38 1.246 . S
O37 Tb20 2.427 . S
O37 C36 1.275 . S
O38 Tb20 2.513 . S
O38 C36 1.246 . S
C39 O23 1.245 . S
C39 O24 1.259 . S
Tb40 O43 2.453 . S
Tb40 O44 2.596 . S
Tb40 O45 2.374 . S
Tb40 O53 2.343 . S
Tb40 O55 2.353 . S
Tb40 O57 2.427 . S
Tb40 O58 2.513 . S
C41 O45 1.251 . S
C41 O47 1.263 . S
Tb42 O44 2.343 . S
Tb42 O47 2.353 . S
Tb42 O50 2.427 1_655 S
Tb42 O51 2.513 1_654 S
Tb42 O52 2.453 . S
Tb42 O53 2.596 . S
Tb42 O54 2.374 1_554 S
O43 Tb40 2.453 . S
O43 C59 1.245 . S
O44 Tb40 2.596 . S
O44 Tb42 2.343 . S
O44 C59 1.259 . S
O45 Tb40 2.374 . S
O45 C41 1.251 . S
C46 O50 1.275 . S
C46 O51 1.246 1_554 S
O47 C41 1.263 . S
O47 Tb42 2.353 . S
C48 O52 1.245 . S
C48 O53 1.259 . S
C49 O54 1.250 . S
C49 O55 1.263 1_556 S
O50 Tb42 2.427 1_455 S
O50 C46 1.275 . S
O51 Tb42 2.513 1_456 S
O51 C46 1.246 1_556 S
O52 Tb42 2.453 . S
O52 C48 1.245 . S
O53 Tb40 2.343 . S
O53 Tb42 2.596 . S
O53 C48 1.259 . S
O54 Tb42 2.374 1_556 S
O54 C49 1.250 . S
O55 Tb40 2.353 . S
O55 C49 1.263 1_554 S
C56 O57 1.275 . S
C56 O58 1.246 . S
O57 Tb40 2.427 . S
O57 C56 1.275 . S
O58 Tb40 2.513 . S
O58 C56 1.246 . S
C59 O43 1.245 . S
C59 O44 1.259 . S
Tb60 O63 2.453 . S
Tb60 O64 2.596 . S
Tb60 O65 2.374 . S
Tb60 O73 2.343 . S
Tb60 O75 2.353 . S
Tb60 O77 2.427 . S
Tb60 O78 2.513 . S
C61 O65 1.251 . S
C61 O67 1.263 . S
Tb62 O64 2.343 . S
Tb62 O67 2.353 . S
Tb62 O70 2.427 . S
Tb62 O71 2.513 . S
Tb62 O72 2.453 . S
Tb62 O73 2.596 . S
Tb62 O74 2.374 . S
O63 Tb60 2.453 . S
O63 C79 1.245 . S
O64 Tb60 2.596 . S
O64 Tb62 2.343 . S
O64 C79 1.259 . S
O65 Tb60 2.374 . S
O65 C61 1.251 . S
C66 O70 1.275 . S
C66 O71 1.246 . S
O67 C61 1.263 . S
O67 Tb62 2.353 . S
C68 O72 1.245 . S
C68 O73 1.259 . S
C69 O74 1.250 . S
C69 O75 1.263 . S
O70 Tb62 2.427 . S
O70 C66 1.275 . S
O71 Tb62 2.513 . S
O71 C66 1.246 . S
O72 Tb62 2.453 . S
O72 C68 1.245 . S
O73 Tb60 2.343 . S
O73 Tb62 2.596 . S
O73 C68 1.259 . S
O74 Tb62 2.374 . S
O74 C69 1.250 . S
O75 Tb60 2.353 . S
O75 C69 1.263 . S
C76 O77 1.275 . S
C76 O78 1.246 . S
O77 Tb60 2.427 . S
O77 C76 1.275 . S
O78 Tb60 2.513 . S
O78 C76 1.246 . S
C79 O63 1.245 . S
C79 O64 1.259 . S
Tb80 O83 2.453 . S
Tb80 O84 2.596 . S
Tb80 O85 2.374 . S
Tb80 O93 2.343 . S
Tb80 O95 2.353 . S
Tb80 O97 2.427 . S
Tb80 O98 2.513 . S
C81 O85 1.251 . S
C81 O87 1.263 . S
Tb82 O84 2.343 . S
Tb82 O87 2.353 . S
Tb82 O90 2.427 1_565 S
Tb82 O91 2.513 1_565 S
Tb82 O92 2.453 . S
Tb82 O93 2.596 . S
Tb82 O94 2.374 . S
O83 Tb80 2.453 . S
O83 C99 1.245 . S
O84 Tb80 2.596 . S
O84 Tb82 2.343 . S
O84 C99 1.259 . S
O85 Tb80 2.374 . S
O85 C81 1.251 . S
C86 O90 1.275 . S
C86 O91 1.246 . S
O87 C81 1.263 . S
O87 Tb82 2.353 . S
C88 O92 1.245 . S
C88 O93 1.259 . S
C89 O94 1.250 . S
C89 O95 1.263 . S
O90 Tb82 2.427 1_545 S
O90 C86 1.275 . S
O91 Tb82 2.513 1_545 S
O91 C86 1.246 . S
O92 Tb82 2.453 . S
O92 C88 1.245 . S
O93 Tb80 2.343 . S
O93 Tb82 2.596 . S
O93 C88 1.259 . S
O94 Tb82 2.374 . S
O94 C89 1.250 . S
O95 Tb80 2.353 . S
O95 C89 1.263 . S
C96 O97 1.275 . S
C96 O98 1.246 . S
O97 Tb80 2.427 . S
O97 C96 1.275 . S
O98 Tb80 2.513 . S
O98 C96 1.246 . S
C99 O83 1.245 . S
C99 O84 1.259 . S
Tb100 O103 2.453 . S
Tb100 O104 2.596 . S
Tb100 O105 2.374 . S
Tb100 O113 2.343 . S
Tb100 O115 2.353 . S
Tb100 O117 2.427 . S
Tb100 O118 2.513 . S
C101 O105 1.251 . S
C101 O107 1.263 . S
Tb102 O104 2.343 . S
Tb102 O107 2.353 . S
Tb102 O110 2.427 1_455 S
Tb102 O111 2.513 1_455 S
Tb102 O112 2.453 . S
Tb102 O113 2.596 . S
Tb102 O114 2.374 . S
O103 Tb100 2.453 . S
O103 C119 1.245 . S
O104 Tb100 2.596 . S
O104 Tb102 2.343 . S
O104 C119 1.259 . S
O105 Tb100 2.374 . S
O105 C101 1.251 . S
C106 O110 1.275 . S
C106 O111 1.246 . S
O107 C101 1.263 . S
O107 Tb102 2.353 . S
C108 O112 1.245 . S
C108 O113 1.259 . S
C109 O114 1.250 . S
C109 O115 1.263 . S
O110 Tb102 2.427 1_655 S
O110 C106 1.275 . S
O111 Tb102 2.513 1_655 S
O111 C106 1.246 . S
O112 Tb102 2.453 . S
O112 C108 1.245 . S
O113 Tb100 2.343 . S
O113 Tb102 2.596 . S
O113 C108 1.259 . S
O114 Tb102 2.374 . S
O114 C109 1.250 . S
O115 Tb100 2.353 . S
O115 C109 1.263 . S
C116 O117 1.275 . S
C116 O118 1.246 . S
O117 Tb100 2.427 . S
O117 C116 1.275 . S
O118 Tb100 2.513 . S
O118 C116 1.246 . S
C119 O103 1.245 . S
C119 O104 1.259 . S
Tb120 O123 2.453 . S
Tb120 O124 2.596 . S
Tb120 O125 2.374 1_556 S
Tb120 O133 2.343 . S
Tb120 O135 2.353 . S
Tb120 O137 2.427 . S
Tb120 O138 2.513 1_556 S
C121 O125 1.251 . S
C121 O127 1.263 1_554 S
Tb122 O124 2.343 . S
Tb122 O127 2.353 . S
Tb122 O130 2.427 . S
Tb122 O131 2.513 . S
Tb122 O132 2.453 . S
Tb122 O133 2.596 . S
Tb122 O134 2.374 . S
O123 Tb120 2.453 . S
O123 C139 1.245 . S
O124 Tb120 2.596 . S
O124 Tb122 2.343 . S
O124 C139 1.259 . S
O125 Tb120 2.374 1_554 S
O125 C121 1.251 . S
C126 O130 1.275 . S
C126 O131 1.246 . S
O127 C121 1.263 1_556 S
O127 Tb122 2.353 . S
C128 O132 1.245 . S
C128 O133 1.259 . S
C129 O134 1.250 . S
C129 O135 1.263 . S
O130 Tb122 2.427 . S
O130 C126 1.275 . S
O131 Tb122 2.513 . S
O131 C126 1.246 . S
O132 Tb122 2.453 . S
O132 C128 1.245 . S
O133 Tb120 2.343 . S
O133 Tb122 2.596 . S
O133 C128 1.259 . S
O134 Tb122 2.374 . S
O134 C129 1.250 . S
O135 Tb120 2.353 . S
O135 C129 1.263 . S
C136 O137 1.275 . S
C136 O138 1.246 1_556 S
O137 Tb120 2.427 . S
O137 C136 1.275 . S
O138 Tb120 2.513 1_554 S
O138 C136 1.246 1_554 S
C139 O123 1.245 . S
C139 O124 1.259 . S
Tb140 O143 2.453 . S
Tb140 O144 2.596 . S
Tb140 O145 2.374 1_556 S
Tb140 O153 2.343 . S
Tb140 O155 2.353 . S
Tb140 O157 2.427 1_565 S
Tb140 O158 2.513 1_566 S
C141 O145 1.251 . S
C141 O147 1.263 1_554 S
Tb142 O144 2.343 . S
Tb142 O147 2.353 . S
Tb142 O150 2.427 . S
Tb142 O151 2.513 . S
Tb142 O152 2.453 . S
Tb142 O153 2.596 . S
Tb142 O154 2.374 . S
O143 Tb140 2.453 . S
O143 C159 1.245 . S
O144 Tb140 2.596 . S
O144 Tb142 2.343 . S
O144 C159 1.259 . S
O145 Tb140 2.374 1_554 S
O145 C141 1.251 . S
C146 O150 1.275 . S
C146 O151 1.246 . S
O147 C141 1.263 1_556 S
O147 Tb142 2.353 . S
C148 O152 1.245 . S
C148 O153 1.259 . S
C149 O154 1.250 . S
C149 O155 1.263 . S
O150 Tb142 2.427 . S
O150 C146 1.275 . S
O151 Tb142 2.513 . S
O151 C146 1.246 . S
O152 Tb142 2.453 . S
O152 C148 1.245 . S
O153 Tb140 2.343 . S
O153 Tb142 2.596 . S
O153 C148 1.259 . S
O154 Tb142 2.374 . S
O154 C149 1.250 . S
O155 Tb140 2.353 . S
O155 C149 1.263 . S
C156 O157 1.275 . S
C156 O158 1.246 1_556 S
O157 Tb140 2.427 1_545 S
O157 C156 1.275 . S
O158 Tb140 2.513 1_544 S
O158 C156 1.246 1_554 S
C159 O143 1.245 . S
C159 O144 1.259 . S
Tb160 O163 2.453 . S
Tb160 O164 2.596 . S
Tb160 O165 2.374 1_556 S
Tb160 O173 2.343 . S
Tb160 O175 2.353 . S
Tb160 O177 2.427 1_455 S
Tb160 O178 2.513 1_456 S
C161 O165 1.251 . S
C161 O167 1.263 1_554 S
Tb162 O164 2.343 . S
Tb162 O167 2.353 . S
Tb162 O170 2.427 . S
Tb162 O171 2.513 . S
Tb162 O172 2.453 . S
Tb162 O173 2.596 . S
Tb162 O174 2.374 . S
O163 Tb160 2.453 . S
O163 C179 1.245 . S
O164 Tb160 2.596 . S
O164 Tb162 2.343 . S
O164 C179 1.259 . S
O165 Tb160 2.374 1_554 S
O165 C161 1.251 . S
C166 O170 1.275 . S
C166 O171 1.246 . S
O167 C161 1.263 1_556 S
O167 Tb162 2.353 . S
C168 O172 1.245 . S
C168 O173 1.259 . S
C169 O174 1.250 . S
C169 O175 1.263 . S
O170 Tb162 2.427 . S
O170 C166 1.275 . S
O171 Tb162 2.513 . S
O171 C166 1.246 . S
O172 Tb162 2.453 . S
O172 C168 1.245 . S
O173 Tb160 2.343 . S
O173 Tb162 2.596 . S
O173 C168 1.259 . S
O174 Tb162 2.374 . S
O174 C169 1.250 . S
O175 Tb160 2.353 . S
O175 C169 1.263 . S
C176 O177 1.275 . S
C176 O178 1.246 1_556 S
O177 Tb160 2.427 1_655 S
O177 C176 1.275 . S
O178 Tb160 2.513 1_654 S
O178 C176 1.246 1_554 S
C179 O163 1.245 . S
C179 O164 1.259 . S
Tb180 O183 2.453 . S
Tb180 O184 2.596 . S
Tb180 O185 2.374 . S
Tb180 O193 2.343 . S
Tb180 O195 2.353 . S
Tb180 O197 2.427 . S
Tb180 O198 2.513 . S
C181 O185 1.251 . S
C181 O187 1.263 . S
Tb182 O184 2.343 . S
Tb182 O187 2.353 . S
Tb182 O190 2.427 . S
Tb182 O191 2.513 . S
Tb182 O192 2.453 . S
Tb182 O193 2.596 . S
Tb182 O194 2.374 . S
O183 Tb180 2.453 . S
O183 C199 1.245 . S
O184 Tb180 2.596 . S
O184 Tb182 2.343 . S
O184 C199 1.259 . S
O185 Tb180 2.374 . S
O185 C181 1.251 . S
C186 O190 1.275 . S
C186 O191 1.246 . S
O187 C181 1.263 . S
O187 Tb182 2.353 . S
C188 O192 1.245 . S
C188 O193 1.259 . S
C189 O194 1.250 . S
C189 O195 1.263 . S
O190 Tb182 2.427 . S
O190 C186 1.275 . S
O191 Tb182 2.513 . S
O191 C186 1.246 . S
O192 Tb182 2.453 . S
O192 C188 1.245 . S
O193 Tb180 2.343 . S
O193 Tb182 2.596 . S
O193 C188 1.259 . S
O194 Tb182 2.374 . S
O194 C189 1.250 . S
O195 Tb180 2.353 . S
O195 C189 1.263 . S
C196 O197 1.275 . S
C196 O198 1.246 . S
O197 Tb180 2.427 . S
O197 C196 1.275 . S
O198 Tb180 2.513 . S
O198 C196 1.246 . S
C199 O183 1.245 . S
C199 O184 1.259 . S
Tb200 O203 2.453 . S
Tb200 O204 2.596 . S
Tb200 O205 2.374 . S
Tb200 O213 2.343 . S
Tb200 O215 2.353 . S
Tb200 O217 2.427 1_545 S
Tb200 O218 2.513 1_545 S
C201 O205 1.251 . S
C201 O207 1.263 . S
Tb202 O204 2.343 . S
Tb202 O207 2.353 . S
Tb202 O210 2.427 . S
Tb202 O211 2.513 . S
Tb202 O212 2.453 . S
Tb202 O213 2.596 . S
Tb202 O214 2.374 . S
O203 Tb200 2.453 . S
O203 C219 1.245 . S
O204 Tb200 2.596 . S
O204 Tb202 2.343 . S
O204 C219 1.259 . S
O205 Tb200 2.374 . S
O205 C201 1.251 . S
C206 O210 1.275 . S
C206 O211 1.246 . S
O207 C201 1.263 . S
O207 Tb202 2.353 . S
C208 O212 1.245 . S
C208 O213 1.259 . S
C209 O214 1.250 . S
C209 O215 1.263 . S
O210 Tb202 2.427 . S
O210 C206 1.275 . S
O211 Tb202 2.513 . S
O211 C206 1.246 . S
O212 Tb202 2.453 . S
O212 C208 1.245 . S
O213 Tb200 2.343 . S
O213 Tb202 2.596 . S
O213 C208 1.259 . S
O214 Tb202 2.374 . S
O214 C209 1.250 . S
O215 Tb200 2.353 . S
O215 C209 1.263 . S
C216 O217 1.275 . S
C216 O218 1.246 . S
O217 Tb200 2.427 1_565 S
O217 C216 1.275 . S
O218 Tb200 2.513 1_565 S
O218 C216 1.246 . S
C219 O203 1.245 . S
C219 O204 1.259 . S
Tb220 O223 2.453 . S
Tb220 O224 2.596 . S
Tb220 O225 2.374 . S
Tb220 O233 2.343 . S
Tb220 O235 2.353 . S
Tb220 O237 2.427 1_655 S
Tb220 O238 2.513 1_655 S
C221 O225 1.251 . S
C221 O227 1.263 . S
Tb222 O224 2.343 . S
Tb222 O227 2.353 . S
Tb222 O230 2.427 . S
Tb222 O231 2.513 . S
Tb222 O232 2.453 . S
Tb222 O233 2.596 . S
Tb222 O234 2.374 . S
O223 Tb220 2.453 . S
O223 C239 1.245 . S
O224 Tb220 2.596 . S
O224 Tb222 2.343 . S
O224 C239 1.259 . S
O225 Tb220 2.374 . S
O225 C221 1.251 . S
C226 O230 1.275 . S
C226 O231 1.246 . S
O227 C221 1.263 . S
O227 Tb222 2.353 . S
C228 O232 1.245 . S
C228 O233 1.259 . S
C229 O234 1.250 . S
C229 O235 1.263 . S
O230 Tb222 2.427 . S
O230 C226 1.275 . S
O231 Tb222 2.513 . S
O231 C226 1.246 . S
O232 Tb222 2.453 . S
O232 C228 1.245 . S
O233 Tb220 2.343 . S
O233 Tb222 2.596 . S
O233 C228 1.259 . S
O234 Tb222 2.374 . S
O234 C229 1.250 . S
O235 Tb220 2.353 . S
O235 C229 1.263 . S
C236 O237 1.275 . S
C236 O238 1.246 . S
O237 Tb220 2.427 1_455 S
O237 C236 1.275 . S
O238 Tb220 2.513 1_455 S
O238 C236 1.246 . S
C239 O223 1.245 . S
C239 O224 1.259 . S
Tb240 O243 2.453 . S
Tb240 O244 2.596 . S
Tb240 O245 2.374 . S
Tb240 O253 2.343 . S
Tb240 O255 2.353 . S
Tb240 O257 2.427 . S
Tb240 O258 2.513 . S
C241 O245 1.251 . S
C241 O247 1.263 . S
Tb242 O244 2.343 . S
Tb242 O247 2.353 . S
Tb242 O250 2.427 . S
Tb242 O251 2.513 . S
Tb242 O252 2.453 . S
Tb242 O253 2.596 . S
Tb242 O254 2.374 . S
O243 Tb240 2.453 . S
O243 C259 1.245 . S
O244 Tb240 2.596 . S
O244 Tb242 2.343 . S
O244 C259 1.259 . S
O245 Tb240 2.374 . S
O245 C241 1.251 . S
C246 O250 1.275 . S
C246 O251 1.246 . S
O247 C241 1.263 . S
O247 Tb242 2.353 . S
C248 O252 1.245 . S
C248 O253 1.259 . S
C249 O254 1.250 . S
C249 O255 1.263 . S
O250 Tb242 2.427 . S
O250 C246 1.275 . S
O251 Tb242 2.513 . S
O251 C246 1.246 . S
O252 Tb242 2.453 . S
O252 C248 1.245 . S
O253 Tb240 2.343 . S
O253 Tb242 2.596 . S
O253 C248 1.259 . S
O254 Tb242 2.374 . S
O254 C249 1.250 . S
O255 Tb240 2.353 . S
O255 C249 1.263 . S
C256 O257 1.275 . S
C256 O258 1.246 . S
O257 Tb240 2.427 . S
O257 C256 1.275 . S
O258 Tb240 2.513 . S
O258 C256 1.246 . S
C259 O243 1.245 . S
C259 O244 1.259 . S
Tb260 O263 2.453 . S
Tb260 O264 2.596 . S
Tb260 O265 2.374 . S
Tb260 O273 2.343 . S
Tb260 O275 2.353 . S
Tb260 O277 2.427 . S
Tb260 O278 2.513 . S
C261 O265 1.251 . S
C261 O267 1.263 . S
Tb262 O264 2.343 . S
Tb262 O267 2.353 . S
Tb262 O270 2.427 . S
Tb262 O271 2.513 . S
Tb262 O272 2.453 . S
Tb262 O273 2.596 . S
Tb262 O274 2.374 . S
O263 Tb260 2.453 . S
O263 C279 1.245 . S
O264 Tb260 2.596 . S
O264 Tb262 2.343 . S
O264 C279 1.259 . S
O265 Tb260 2.374 . S
O265 C261 1.251 . S
C266 O270 1.275 . S
C266 O271 1.246 . S
O267 C261 1.263 . S
O267 Tb262 2.353 . S
C268 O272 1.245 . S
C268 O273 1.259 . S
C269 O274 1.250 . S
C269 O275 1.263 . S
O270 Tb262 2.427 . S
O270 C266 1.275 . S
O271 Tb262 2.513 . S
O271 C266 1.246 . S
O272 Tb262 2.453 . S
O272 C268 1.245 . S
O273 Tb260 2.343 . S
O273 Tb262 2.596 . S
O273 C268 1.259 . S
O274 Tb262 2.374 . S
O274 C269 1.250 . S
O275 Tb260 2.353 . S
O275 C269 1.263 . S
C276 O277 1.275 . S
C276 O278 1.246 . S
O277 Tb260 2.427 . S
O277 C276 1.275 . S
O278 Tb260 2.513 . S
O278 C276 1.246 . S
C279 O263 1.245 . S
C279 O264 1.259 . S
Tb280 O283 2.453 . S
Tb280 O284 2.596 . S
Tb280 O285 2.374 . S
Tb280 O293 2.343 . S
Tb280 O295 2.353 . S
Tb280 O297 2.427 . S
Tb280 O298 2.513 . S
C281 O285 1.251 . S
C281 O287 1.263 . S
Tb282 O284 2.343 . S
Tb282 O287 2.353 . S
Tb282 O290 2.427 . S
Tb282 O291 2.513 . S
Tb282 O292 2.453 . S
Tb282 O293 2.596 . S
Tb282 O294 2.374 . S
O283 Tb280 2.453 . S
O283 C299 1.245 . S
O284 Tb280 2.596 . S
O284 Tb282 2.343 . S
O284 C299 1.259 . S
O285 Tb280 2.374 . S
O285 C281 1.251 . S
C286 O290 1.275 . S
C286 O291 1.246 . S
O287 C281 1.263 . S
O287 Tb282 2.353 . S
C288 O292 1.245 . S
C288 O293 1.259 . S
C289 O294 1.250 . S
C289 O295 1.263 . S
O290 Tb282 2.427 . S
O290 C286 1.275 . S
O291 Tb282 2.513 . S
O291 C286 1.246 . S
O292 Tb282 2.453 . S
O292 C288 1.245 . S
O293 Tb280 2.343 . S
O293 Tb282 2.596 . S
O293 C288 1.259 . S
O294 Tb282 2.374 . S
O294 C289 1.250 . S
O295 Tb280 2.353 . S
O295 C289 1.263 . S
C296 O297 1.275 . S
C296 O298 1.246 . S
O297 Tb280 2.427 . S
O297 C296 1.275 . S
O298 Tb280 2.513 . S
O298 C296 1.246 . S
C299 O283 1.245 . S
C299 O284 1.259 . S
Tb300 O303 2.453 . S
Tb300 O304 2.596 . S
Tb300 O305 2.374 . S
Tb300 O313 2.343 . S
Tb300 O315 2.353 . S
Tb300 O317 2.427 . S
Tb300 O318 2.513 . S
C301 O305 1.251 . S
C301 O307 1.263 . S
Tb302 O304 2.343 . S
Tb302 O307 2.353 . S
Tb302 O310 2.427 . S
Tb302 O311 2.513 . S
Tb302 O312 2.453 . S
Tb302 O313 2.596 . S
Tb302 O314 2.374 . S
O303 Tb300 2.453 . S
O303 C319 1.245 . S
O304 Tb300 2.596 . S
O304 Tb302 2.343 . S
O304 C319 1.259 . S
O305 Tb300 2.374 . S
O305 C301 1.251 . S
C306 O310 1.275 . S
C306 O311 1.246 . S
O307 C301 1.263 . S
O307 Tb302 2.353 . S
C308 O312 1.245 . S
C308 O313 1.259 . S
C309 O314 1.250 . S
C309 O315 1.263 . S
O310 Tb302 2.427 . S
O310 C306 1.275 . S
O311 Tb302 2.513 . S
O311 C306 1.246 . S
O312 Tb302 2.453 . S
O312 C308 1.245 . S
O313 Tb300 2.343 . S
O313 Tb302 2.596 . S
O313 C308 1.259 . S
O314 Tb302 2.374 . S
O314 C309 1.250 . S
O315 Tb300 2.353 . S
O315 C309 1.263 . S
C316 O317 1.275 . S
C316 O318 1.246 . S
O317 Tb300 2.427 . S
O317 C316 1.275 . S
O318 Tb300 2.513 . S
O318 C316 1.246 . S
C319 O303 1.245 . S
C319 O304 1.259 . S
Tb320 O323 2.453 . S
Tb320 O324 2.596 . S
Tb320 O325 2.374 . S
Tb320 O333 2.343 . S
Tb320 O335 2.353 . S
Tb320 O337 2.427 . S
Tb320 O338 2.513 . S
C321 O325 1.251 . S
C321 O327 1.263 . S
Tb322 O324 2.343 . S
Tb322 O327 2.353 . S
Tb322 O330 2.427 . S
Tb322 O331 2.513 . S
Tb322 O332 2.453 . S
Tb322 O333 2.596 . S
Tb322 O334 2.374 . S
O323 Tb320 2.453 . S
O323 C339 1.245 . S
O324 Tb320 2.596 . S
O324 Tb322 2.343 . S
O324 C339 1.259 . S
O325 Tb320 2.374 . S
O325 C321 1.251 . S
C326 O330 1.275 . S
C326 O331 1.246 . S
O327 C321 1.263 . S
O327 Tb322 2.353 . S
C328 O332 1.245 . S
C328 O333 1.259 . S
C329 O334 1.250 . S
C329 O335 1.263 . S
O330 Tb322 2.427 . S
O330 C326 1.275 . S
O331 Tb322 2.513 . S
O331 C326 1.246 . S
O332 Tb322 2.453 . S
O332 C328 1.245 . S
O333 Tb320 2.343 . S
O333 Tb322 2.596 . S
O333 C328 1.259 . S
O334 Tb322 2.374 . S
O334 C329 1.250 . S
O335 Tb320 2.353 . S
O335 C329 1.263 . S
C336 O337 1.275 . S
C336 O338 1.246 . S
O337 Tb320 2.427 . S
O337 C336 1.275 . S
O338 Tb320 2.513 . S
O338 C336 1.246 . S
C339 O323 1.245 . S
C339 O324 1.259 . S
Tb340 O343 2.453 . S
Tb340 O344 2.596 . S
Tb340 O345 2.374 . S
Tb340 O353 2.343 . S
Tb340 O355 2.353 . S
Tb340 O357 2.427 . S
Tb340 O358 2.513 . S
C341 O345 1.251 . S
C341 O347 1.263 . S
Tb342 O344 2.343 . S
Tb342 O347 2.353 . S
Tb342 O350 2.427 . S
Tb342 O351 2.513 . S
Tb342 O352 2.453 . S
Tb342 O353 2.596 . S
Tb342 O354 2.374 . S
O343 Tb340 2.453 . S
O343 C359 1.245 . S
O344 Tb340 2.596 . S
O344 Tb342 2.343 . S
O344 C359 1.259 . S
O345 Tb340 2.374 . S
O345 C341 1.251 . S
C346 O350 1.275 . S
C346 O351 1.246 . S
O347 C341 1.263 . S
O347 Tb342 2.353 . S
C348 O352 1.245 . S
C348 O353 1.259 . S
C349 O354 1.250 . S
C349 O355 1.263 . S
O350 Tb342 2.427 . S
O350 C346 1.275 . S
O351 Tb342 2.513 . S
O351 C346 1.246 . S
O352 Tb342 2.453 . S
O352 C348 1.245 . S
O353 Tb340 2.343 . S
O353 Tb342 2.596 . S
O353 C348 1.259 . S
O354 Tb342 2.374 . S
O354 C349 1.250 . S
O355 Tb340 2.353 . S
O355 C349 1.263 . S
C356 O357 1.275 . S
C356 O358 1.246 . S
O357 Tb340 2.427 . S
O357 C356 1.275 . S
O358 Tb340 2.513 . S
O358 C356 1.246 . S
C359 O343 1.245 . S
C359 O344 1.259 . S
Tb360 O363 2.453 . S
Tb360 O364 2.596 . S
Tb360 O365 2.374 . S
Tb360 O373 2.343 . S
Tb360 O375 2.353 . S
Tb360 O377 2.427 . S
Tb360 O378 2.513 . S
C361 O365 1.251 . S
C361 O367 1.263 . S
Tb362 O364 2.343 . S
Tb362 O367 2.353 . S
Tb362 O370 2.427 . S
Tb362 O371 2.513 . S
Tb362 O372 2.453 . S
Tb362 O373 2.596 . S
Tb362 O374 2.374 . S
O363 Tb360 2.453 . S
O363 C379 1.245 . S
O364 Tb360 2.596 . S
O364 Tb362 2.343 . S
O364 C379 1.259 . S
O365 Tb360 2.374 . S
O365 C361 1.251 . S
C366 O370 1.275 . S
C366 O371 1.246 . S
O367 C361 1.263 . S
O367 Tb362 2.353 . S
C368 O372 1.245 . S
C368 O373 1.259 . S
C369 O374 1.250 . S
C369 O375 1.263 . S
O370 Tb362 2.427 . S
O370 C366 1.275 . S
O371 Tb362 2.513 . S
O371 C366 1.246 . S
O372 Tb362 2.453 . S
O372 C368 1.245 . S
O373 Tb360 2.343 . S
O373 Tb362 2.596 . S
O373 C368 1.259 . S
O374 Tb362 2.374 . S
O374 C369 1.250 . S
O375 Tb360 2.353 . S
O375 C369 1.263 . S
C376 O377 1.275 . S
C376 O378 1.246 . S
O377 Tb360 2.427 . S
O377 C376 1.275 . S
O378 Tb360 2.513 . S
O378 C376 1.246 . S
C379 O363 1.245 . S
C379 O364 1.259 . S
Tb380 O383 2.453 . S
Tb380 O384 2.596 . S
Tb380 O385 2.374 . S
Tb380 O393 2.343 . S
Tb380 O395 2.353 . S
Tb380 O397 2.427 . S
Tb380 O398 2.513 . S
C381 O385 1.251 . S
C381 O387 1.263 . S
Tb382 O384 2.343 . S
Tb382 O387 2.353 . S
Tb382 O390 2.427 . S
Tb382 O391 2.513 . S
Tb382 O392 2.453 . S
Tb382 O393 2.596 . S
Tb382 O394 2.374 . S
O383 Tb380 2.453 . S
O383 C399 1.245 . S
O384 Tb380 2.596 . S
O384 Tb382 2.343 . S
O384 C399 1.259 . S
O385 Tb380 2.374 . S
O385 C381 1.251 . S
C386 O390 1.275 . S
C386 O391 1.246 . S
O387 C381 1.263 . S
O387 Tb382 2.353 . S
C388 O392 1.245 . S
C388 O393 1.259 . S
C389 O394 1.250 . S
C389 O395 1.263 . S
O390 Tb382 2.427 . S
O390 C386 1.275 . S
O391 Tb382 2.513 . S
O391 C386 1.246 . S
O392 Tb382 2.453 . S
O392 C388 1.245 . S
O393 Tb380 2.343 . S
O393 Tb382 2.596 . S
O393 C388 1.259 . S
O394 Tb382 2.374 . S
O394 C389 1.250 . S
O395 Tb380 2.353 . S
O395 C389 1.263 . S
C396 O397 1.275 . S
C396 O398 1.246 . S
O397 Tb380 2.427 . S
O397 C396 1.275 . S
O398 Tb380 2.513 . S
O398 C396 1.246 . S
C399 O383 1.245 . S
C399 O384 1.259 . S
Tb400 O403 2.453 . S
Tb400 O404 2.596 . S
Tb400 O405 2.374 . S
Tb400 O413 2.343 . S
Tb400 O415 2.353 . S
Tb400 O417 2.427 . S
Tb400 O418 2.513 . S
C401 O405 1.251 . S
C401 O407 1.263 . S
Tb402 O404 2.343 . S
Tb402 O407 2.353 . S
Tb402 O410 2.427 . S
Tb402 O411 2.513 . S
Tb402 O412 2.453 . S
Tb402 O413 2.596 . S
Tb402 O414 2.374 . S
O403 Tb400 2.453 . S
O403 C419 1.245 . S
O404 Tb400 2.596 . S
O404 Tb402 2.343 . S
O404 C419 1.259 . S
O405 Tb400 2.374 . S
O405 C401 1.251 . S
C406 O410 1.275 . S
C406 O411 1.246 . S
O407 C401 1.263 . S
O407 Tb402 2.353 . S
C408 O412 1.245 . S
C408 O413 1.259 . S
C409 O414 1.250 . S
C409 O415 1.263 . S
O410 Tb402 2.427 . S
O410 C406 1.275 . S
O411 Tb402 2.513 . S
O411 C406 1.246 . S
O412 Tb402 2.453 . S
O412 C408 1.245 . S
O413 Tb400 2.343 . S
O413 Tb402 2.596 . S
O413 C408 1.259 . S
O414 Tb402 2.374 . S
O414 C409 1.250 . S
O415 Tb400 2.353 . S
O415 C409 1.263 . S
C416 O417 1.275 . S
C416 O418 1.246 . S
O417 Tb400 2.427 . S
O417 C416 1.275 . S
O418 Tb400 2.513 . S
O418 C416 1.246 . S
C419 O403 1.245 . S
C419 O404 1.259 . S
Tb420 O423 2.453 . S
Tb420 O424 2.596 . S
Tb420 O425 2.374 . S
Tb420 O433 2.343 . S
Tb420 O435 2.353 . S
Tb420 O437 2.427 . S
Tb420 O438 2.513 . S
C421 O425 1.251 . S
C421 O427 1.263 . S
Tb422 O424 2.343 . S
Tb422 O427 2.353 . S
Tb422 O430 2.427 . S
Tb422 O431 2.513 . S
Tb422 O432 2.453 . S
Tb422 O433 2.596 . S
Tb422 O434 2.374 . S
O423 Tb420 2.453 . S
O423 C439 1.245 . S
O424 Tb420 2.596 . S
O424 Tb422 2.343 . S
O424 C439 1.259 . S
O425 Tb420 2.374 . S
O425 C421 1.251 . S
C426 O430 1.275 . S
C426 O431 1.246 . S
O427 C421 1.263 . S
O427 Tb422 2.353 . S
C428 O432 1.245 . S
C428 O433 1.259 . S
C429 O434 1.250 . S
C429 O435 1.263 . S
O430 Tb422 2.427 . S
O430 C426 1.275 . S
O431 Tb422 2.513 . S
O431 C426 1.246 . S
O432 Tb422 2.453 . S
O432 C428 1.245 . S
O433 Tb420 2.343 . S
O433 Tb422 2.596 . S
O433 C428 1.259 . S
O434 Tb422 2.374 . S
O434 C429 1.250 . S
O435 Tb420 2.353 . S
O435 C429 1.263 . S
C436 O437 1.275 . S
C436 O438 1.246 . S
O437 Tb420 2.427 . S
O437 C436 1.275 . S
O438 Tb420 2.513 . S
O438 C436 1.246 . S
C439 O423 1.245 . S
C439 O424 1.259 . S
Tb440 O443 2.453 . S
Tb440 O444 2.596 . S
Tb440 O445 2.374 . S
Tb440 O453 2.343 . S
Tb440 O455 2.353 . S
Tb440 O457 2.427 . S
Tb440 O458 2.513 . S
C441 O445 1.251 . S
C441 O447 1.263 . S
Tb442 O444 2.343 . S
Tb442 O447 2.353 . S
Tb442 O450 2.427 . S
Tb442 O451 2.513 . S
Tb442 O452 2.453 . S
Tb442 O453 2.596 . S
Tb442 O454 2.374 . S
O443 Tb440 2.453 . S
O443 C459 1.245 . S
O444 Tb440 2.596 . S
O444 Tb442 2.343 . S
O444 C459 1.259 . S
O445 Tb440 2.374 . S
O445 C441 1.251 . S
C446 O450 1.275 . S
C446 O451 1.246 . S
O447 C441 1.263 . S
O447 Tb442 2.353 . S
C448 O452 1.245 . S
C448 O453 1.259 . S
C449 O454 1.250 . S
C449 O455 1.263 . S
O450 Tb442 2.427 . S
O450 C446 1.275 . S
O451 Tb442 2.513 . S
O451 C446 1.246 . S
O452 Tb442 2.453 . S
O452 C448 1.245 . S
O453 Tb440 2.343 . S
O453 Tb442 2.596 . S
O453 C448 1.259 . S
O454 Tb442 2.374 . S
O454 C449 1.250 . S
O455 Tb440 2.353 . S
O455 C449 1.263 . S
C456 O457 1.275 . S
C456 O458 1.246 . S
O457 Tb440 2.427 . S
O457 C456 1.275 . S
O458 Tb440 2.513 . S
O458 C456 1.246 . S
C459 O443 1.245 . S
C459 O444 1.259 . S
Tb460 O463 2.453 . S
Tb460 O464 2.596 . S
Tb460 O465 2.374 . S
Tb460 O473 2.343 . S
Tb460 O475 2.353 . S
Tb460 O477 2.427 . S
Tb460 O478 2.513 . S
C461 O465 1.251 . S
C461 O467 1.263 . S
Tb462 O464 2.343 . S
Tb462 O467 2.353 . S
Tb462 O470 2.427 . S
Tb462 O471 2.513 . S
Tb462 O472 2.453 . S
Tb462 O473 2.596 . S
Tb462 O474 2.374 . S
O463 Tb460 2.453 . S
O463 C479 1.245 . S
O464 Tb460 2.596 . S
O464 Tb462 2.343 . S
O464 C479 1.259 . S
O465 Tb460 2.374 . S
O465 C461 1.251 . S
C466 O470 1.275 . S
C466 O471 1.246 . S
O467 C461 1.263 . S
O467 Tb462 2.353 . S
C468 O472 1.245 . S
C468 O473 1.259 . S
C469 O474 1.250 . S
C469 O475 1.263 . S
O470 Tb462 2.427 . S
O470 C466 1.275 . S
O471 Tb462 2.513 . S
O471 C466 1.246 . S
O472 Tb462 2.453 . S
O472 C468 1.245 . S
O473 Tb460 2.343 . S
O473 Tb462 2.596 . S
O473 C468 1.259 . S
O474 Tb462 2.374 . S
O474 C469 1.250 . S
O475 Tb460 2.353 . S
O475 C469 1.263 . S
C476 O477 1.275 . S
C476 O478 1.246 . S
O477 Tb460 2.427 . S
O477 C476 1.275 . S
O478 Tb460 2.513 . S
O478 C476 1.246 . S
C479 O463 1.245 . S
C479 O464 1.259 . S
Tb480 O483 2.453 . S
Tb480 O484 2.596 . S
Tb480 O485 2.374 . S
Tb480 O493 2.343 . S
Tb480 O495 2.353 . S
Tb480 O497 2.427 . S
Tb480 O498 2.513 . S
C481 O485 1.251 . S
C481 O487 1.263 . S
Tb482 O484 2.343 . S
Tb482 O487 2.353 . S
Tb482 O490 2.427 . S
Tb482 O491 2.513 . S
Tb482 O492 2.453 . S
Tb482 O493 2.596 . S
Tb482 O494 2.374 . S
O483 Tb480 2.453 . S
O483 C499 1.245 . S
O484 Tb480 2.596 . S
O484 Tb482 2.343 . S
O484 C499 1.259 . S
O485 Tb480 2.374 . S
O485 C481 1.251 . S
C486 O490 1.275 . S
C486 O491 1.246 . S
O487 C481 1.263 . S
O487 Tb482 2.353 . S
C488 O492 1.245 . S
C488 O493 1.259 . S
C489 O494 1.250 . S
C489 O495 1.263 . S
O490 Tb482 2.427 . S
O490 C486 1.275 . S
O491 Tb482 2.513 . S
O491 C486 1.246 . S
O492 Tb482 2.453 . S
O492 C488 1.245 . S
O493 Tb480 2.343 . S
O493 Tb482 2.596 . S
O493 C488 1.259 . S
O494 Tb482 2.374 . S
O494 C489 1.250 . S
O495 Tb480 2.353 . S
O495 C489 1.263 . S
C496 O497 1.275 . S
C496 O498 1.246 . S
O497 Tb480 2.427 . S
O497 C496 1.275 . S
O498 Tb480 2.513 . S
O498 C496 1.246 . S
C499 O483 1.245 . S
C499 O484 1.259 . S
Tb500 O503 2.453 . S
Tb500 O504 2.596 . S
Tb500 O505 2.374 . S
Tb500 O513 2.343 . S
Tb500 O515 2.353 . S
Tb500 O517 2.427 . S
Tb500 O518 2.513 . S
C501 O505 1.251 . S
C501 O507 1.263 . S
Tb502 O504 2.343 . S
Tb502 O507 2.353 . S
Tb502 O510 2.427 . S
Tb502 O511 2.513 . S
Tb502 O512 2.453 . S
Tb502 O513 2.596 . S
Tb502 O514 2.374 . S
O503 Tb500 2.453 . S
O503 C519 1.245 . S
O504 Tb500 2.596 . S
O504 Tb502 2.343 . S
O504 C519 1.259 . S
O505 Tb500 2.374 . S
O505 C501 1.251 . S
C506 O510 1.275 . S
C506 O511 1.246 . S
O507 C501 1.263 . S
O507 Tb502 2.353 . S
C508 O512 1.245 . S
C508 O513 1.259 . S
C509 O514 1.250 . S
C509 O515 1.263 . S
O510 Tb502 2.427 . S
O510 C506 1.275 . S
O511 Tb502 2.513 . S
O511 C506 1.246 . S
O512 Tb502 2.453 . S
O512 C508 1.245 . S
O513 Tb500 2.343 . S
O513 Tb502 2.596 . S
O513 C508 1.259 . S
O514 Tb502 2.374 . S
O514 C509 1.250 . S
O515 Tb500 2.353 . S
O515 C509 1.263 . S
C516 O517 1.275 . S
C516 O518 1.246 . S
O517 Tb500 2.427 . S
O517 C516 1.275 . S
O518 Tb500 2.513 . S
O518 C516 1.246 . S
C519 O503 1.245 . S
C519 O504 1.259 . S
Tb520 O523 2.453 . S
Tb520 O524 2.596 . S
Tb520 O525 2.374 . S
Tb520 O533 2.343 . S
Tb520 O535 2.353 . S
Tb520 O537 2.427 . S
Tb520 O538 2.513 . S
C521 O525 1.251 . S
C521 O527 1.263 . S
Tb522 O524 2.343 . S
Tb522 O527 2.353 . S
Tb522 O530 2.427 . S
Tb522 O531 2.513 . S
Tb522 O532 2.453 . S
Tb522 O533 2.596 . S
Tb522 O534 2.374 . S
O523 Tb520 2.453 . S
O523 C539 1.245 . S
O524 Tb520 2.596 . S
O524 Tb522 2.343 . S
O524 C539 1.259 . S
O525 Tb520 2.374 . S
O525 C521 1.251 . S
C526 O530 1.275 . S
C526 O531 1.246 . S
O527 C521 1.263 . S
O527 Tb522 2.353 . S
C528 O532 1.245 . S
C528 O533 1.259 . S
C529 O534 1.250 . S
C529 O535 1.263 . S
O530 Tb522 2.427 . S
O530 C526 1.275 . S
O531 Tb522 2.513 . S
O531 C526 1.246 . S
O532 Tb522 2.453 . S
O532 C528 1.245 . S
O533 Tb520 2.343 . S
O533 Tb522 2.596 . S
O533 C528 1.259 . S
O534 Tb522 2.374 . S
O534 C529 1.250 . S
O535 Tb520 2.353 . S
O535 C529 1.263 . S
C536 O537 1.275 . S
C536 O538 1.246 . S
O537 Tb520 2.427 . S
O537 C536 1.275 . S
O538 Tb520 2.513 . S
O538 C536 1.246 . S
C539 O523 1.245 . S
C539 O524 1.259 . S
Tb540 O543 2.453 . S
Tb540 O544 2.596 . S
Tb540 O545 2.374 . S
Tb540 O553 2.343 . S
Tb540 O555 2.353 . S
Tb540 O557 2.427 . S
Tb540 O558 2.513 . S
C541 O545 1.251 . S
C541 O547 1.263 . S
Tb542 O544 2.343 . S
Tb542 O547 2.353 . S
Tb542 O550 2.427 . S
Tb542 O551 2.513 . S
Tb542 O552 2.453 . S
Tb542 O553 2.596 . S
Tb542 O554 2.374 . S
O543 Tb540 2.453 . S
O543 C559 1.245 . S
O544 Tb540 2.596 . S
O544 Tb542 2.343 . S
O544 C559 1.259 . S
O545 Tb540 2.374 . S
O545 C541 1.251 . S
C546 O550 1.275 . S
C546 O551 1.246 . S
O547 C541 1.263 . S
O547 Tb542 2.353 . S
C548 O552 1.245 . S
C548 O553 1.259 . S
C549 O554 1.250 . S
C549 O555 1.263 . S
O550 Tb542 2.427 . S
O550 C546 1.275 . S
O551 Tb542 2.513 . S
O551 C546 1.246 . S
O552 Tb542 2.453 . S
O552 C548 1.245 . S
O553 Tb540 2.343 . S
O553 Tb542 2.596 . S
O553 C548 1.259 . S
O554 Tb542 2.374 . S
O554 C549 1.250 . S
O555 Tb540 2.353 . S
O555 C549 1.263 . S
C556 O557 1.275 . S
C556 O558 1.246 . S
O557 Tb540 2.427 . S
O557 C556 1.275 . S
O558 Tb540 2.513 . S
O558 C556 1.246 . S
C559 O543 1.245 . S
C559 O544 1.259 . S
Tb560 O563 2.453 . S
Tb560 O564 2.596 . S
Tb560 O565 2.374 . S
Tb560 O573 2.343 . S
Tb560 O575 2.353 . S
Tb560 O577 2.427 . S
Tb560 O578 2.513 . S
C561 O565 1.251 . S
C561 O567 1.263 . S
Tb562 O564 2.343 . S
Tb562 O567 2.353 . S
Tb562 O570 2.427 . S
Tb562 O571 2.513 . S
Tb562 O572 2.453 . S
Tb562 O573 2.596 . S
Tb562 O574 2.374 . S
O563 Tb560 2.453 . S
O563 C579 1.245 . S
O564 Tb560 2.596 . S
O564 Tb562 2.343 . S
O564 C579 1.259 . S
O565 Tb560 2.374 . S
O565 C561 1.251 . S
C566 O570 1.275 . S
C566 O571 1.246 . S
O567 C561 1.263 . S
O567 Tb562 2.353 . S
C568 O572 1.245 . S
C568 O573 1.259 . S
C569 O574 1.250 . S
C569 O575 1.263 . S
O570 Tb562 2.427 . S
O570 C566 1.275 . S
O571 Tb562 2.513 . S
O571 C566 1.246 . S
O572 Tb562 2.453 . S
O572 C568 1.245 . S
O573 Tb560 2.343 . S
O573 Tb562 2.596 . S
O573 C568 1.259 . S
O574 Tb562 2.374 . S
O574 C569 1.250 . S
O575 Tb560 2.353 . S
O575 C569 1.263 . S
C576 O577 1.275 . S
C576 O578 1.246 . S
O577 Tb560 2.427 . S
O577 C576 1.275 . S
O578 Tb560 2.513 . S
O578 C576 1.246 . S
C579 O563 1.245 . S
C579 O564 1.259 . S
Tb580 O583 2.453 . S
Tb580 O584 2.596 . S
Tb580 O585 2.374 . S
Tb580 O593 2.343 . S
Tb580 O595 2.353 . S
Tb580 O597 2.427 . S
Tb580 O598 2.513 . S
C581 O585 1.251 . S
C581 O587 1.263 . S
Tb582 O584 2.343 . S
Tb582 O587 2.353 . S
Tb582 O590 2.427 . S
Tb582 O591 2.513 . S
Tb582 O592 2.453 . S
Tb582 O593 2.596 . S
Tb582 O594 2.374 . S
O583 Tb580 2.453 . S
O583 C599 1.245 . S
O584 Tb580 2.596 . S
O584 Tb582 2.343 . S
O584 C599 1.259 . S
O585 Tb580 2.374 . S
O585 C581 1.251 . S
C586 O590 1.275 . S
C586 O591 1.246 . S
O587 C581 1.263 . S
O587 Tb582 2.353 . S
C588 O592 1.245 . S
C588 O593 1.259 . S
C589 O594 1.250 . S
C589 O595 1.263 . S
O590 Tb582 2.427 . S
O590 C586 1.275 . S
O591 Tb582 2.513 . S
O591 C586 1.246 . S
O592 Tb582 2.453 . S
O592 C588 1.245 . S
O593 Tb580 2.343 . S
O593 Tb582 2.596 . S
O593 C588 1.259 . S
O594 Tb582 2.374 . S
O594 C589 1.250 . S
O595 Tb580 2.353 . S
O595 C589 1.263 . S
C596 O597 1.275 . S
C596 O598 1.246 . S
O597 Tb580 2.427 . S
O597 C596 1.275 . S
O598 Tb580 2.513 . S
O598 C596 1.246 . S
C599 O583 1.245 . S
C599 O584 1.259 . S
Tb600 O603 2.453 . S
Tb600 O604 2.596 . S
Tb600 O605 2.374 . S
Tb600 O613 2.343 . S
Tb600 O615 2.353 . S
Tb600 O617 2.427 . S
Tb600 O618 2.513 . S
C601 O605 1.251 . S
C601 O607 1.263 . S
Tb602 O604 2.343 . S
Tb602 O607 2.353 . S
Tb602 O610 2.427 . S
Tb602 O611 2.513 . S
Tb602 O612 2.453 . S
Tb602 O613 2.596 . S
Tb602 O614 2.374 . S
O603 Tb600 2.453 . S
O603 C619 1.245 . S
O604 Tb600 2.596 . S
O604 Tb602 2.343 . S
O604 C619 1.259 . S
O605 Tb600 2.374 . S
O605 C601 1.251 . S
C606 O610 1.275 . S
C606 O611 1.246 . S
O607 C601 1.263 . S
O607 Tb602 2.353 . S
C608 O612 1.245 . S
C608 O613 1.259 . S
C609 O614 1.250 . S
C609 O615 1.263 . S
O610 Tb602 2.427 . S
O610 C606 1.275 . S
O611 Tb602 2.513 . S
O611 C606 1.246 . S
O612 Tb602 2.453 . S
O612 C608 1.245 . S
O613 Tb600 2.343 . S
O613 Tb602 2.596 . S
O613 C608 1.259 . S
O614 Tb602 2.374 . S
O614 C609 1.250 . S
O615 Tb600 2.353 . S
O615 C609 1.263 . S
C616 O617 1.275 . S
C616 O618 1.246 . S
O617 Tb600 2.427 . S
O617 C616 1.275 . S
O618 Tb600 2.513 . S
O618 C616 1.246 . S
C619 O603 1.245 . S
C619 O604 1.259 . S
Tb620 O623 2.453 . S
Tb620 O624 2.596 . S
Tb620 O625 2.374 . S
Tb620 O633 2.343 . S
Tb620 O635 2.353 . S
Tb620 O637 2.427 . S
Tb620 O638 2.513 . S
C621 O625 1.251 . S
C621 O627 1.263 . S
Tb622 O624 2.343 . S
Tb622 O627 2.353 . S
Tb622 O630 2.427 . S
Tb622 O631 2.513 . S
Tb622 O632 2.453 . S
Tb622 O633 2.596 . S
Tb622 O634 2.374 . S
O623 Tb620 2.453 . S
O623 C639 1.245 . S
O624 Tb620 2.596 . S
O624 Tb622 2.343 . S
O624 C639 1.259 . S
O625 Tb620 2.374 . S
O625 C621 1.251 . S
C626 O630 1.275 . S
C626 O631 1.246 . S
O627 C621 1.263 . S
O627 Tb622 2.353 . S
C628 O632 1.245 . S
C628 O633 1.259 . S
C629 O634 1.250 . S
C629 O635 1.263 . S
O630 Tb622 2.427 . S
O630 C626 1.275 . S
O631 Tb622 2.513 . S
O631 C626 1.246 . S
O632 Tb622 2.453 . S
O632 C628 1.245 . S
O633 Tb620 2.343 . S
O633 Tb622 2.596 . S
O633 C628 1.259 . S
O634 Tb622 2.374 . S
O634 C629 1.250 . S
O635 Tb620 2.353 . S
O635 C629 1.263 . S
C636 O637 1.275 . S
C636 O638 1.246 . S
O637 Tb620 2.427 . S
O637 C636 1.275 . S
O638 Tb620 2.513 . S
O638 C636 1.246 . S
C639 O623 1.245 . S
C639 O624 1.259 . S
Tb640 O643 2.453 . S
Tb640 O644 2.596 . S
Tb640 O645 2.374 . S
Tb640 O653 2.343 . S
Tb640 O655 2.353 . S
Tb640 O657 2.427 . S
Tb640 O658 2.513 . S
C641 O645 1.251 . S
C641 O647 1.263 . S
Tb642 O644 2.343 . S
Tb642 O647 2.353 . S
Tb642 O650 2.427 . S
Tb642 O651 2.513 . S
Tb642 O652 2.453 . S
Tb642 O653 2.596 . S
Tb642 O654 2.374 . S
O643 Tb640 2.453 . S
O643 C659 1.245 . S
O644 Tb640 2.596 . S
O644 Tb642 2.343 . S
O644 C659 1.259 . S
O645 Tb640 2.374 . S
O645 C641 1.251 . S
C646 O650 1.275 . S
C646 O651 1.246 . S
O647 C641 1.263 . S
O647 Tb642 2.353 . S
C648 O652 1.245 . S
C648 O653 1.259 . S
C649 O654 1.250 . S
C649 O655 1.263 . S
O650 Tb642 2.427 . S
O650 C646 1.275 . S
O651 Tb642 2.513 . S
O651 C646 1.246 . S
O652 Tb642 2.453 . S
O652 C648 1.245 . S
O653 Tb640 2.343 . S
O653 Tb642 2.596 . S
O653 C648 1.259 . S
O654 Tb642 2.374 . S
O654 C649 1.250 . S
O655 Tb640 2.353 . S
O655 C649 1.263 . S
C656 O657 1.275 . S
C656 O658 1.246 . S
O657 Tb640 2.427 . S
O657 C656 1.275 . S
O658 Tb640 2.513 . S
O658 C656 1.246 . S
C659 O643 1.245 . S
C659 O644 1.259 . S
Tb660 O663 2.453 . S
Tb660 O664 2.596 . S
Tb660 O665 2.374 . S
Tb660 O673 2.343 . S
Tb660 O675 2.353 . S
Tb660 O677 2.427 . S
Tb660 O678 2.513 . S
C661 O665 1.251 . S
C661 O667 1.263 . S
Tb662 O664 2.343 . S
Tb662 O667 2.353 . S
Tb662 O670 2.427 . S
Tb662 O671 2.513 . S
Tb662 O672 2.453 . S
Tb662 O673 2.596 . S
Tb662 O674 2.374 . S
O663 Tb660 2.453 . S
O663 C679 1.245 . S
O664 Tb660 2.596 . S
O664 Tb662 2.343 . S
O664 C679 1.259 . S
O665 Tb660 2.374 . S
O665 C661 1.251 . S
C666 O670 1.275 . S
C666 O671 1.246 . S
O667 C661 1.263 . S
O667 Tb662 2.353 . S
C668 O672 1.245 . S
C668 O673 1.259 . S
C669 O674 1.250 . S
C669 O675 1.263 . S
O670 Tb662 2.427 . S
O670 C666 1.275 . S
O671 Tb662 2.513 . S
O671 C666 1.246 . S
O672 Tb662 2.453 . S
O672 C668 1.245 . S
O673 Tb660 2.343 . S
O673 Tb662 2.596 . S
O673 C668 1.259 . S
O674 Tb662 2.374 . S
O674 C669 1.250 . S
O675 Tb660 2.353 . S
O675 C669 1.263 . S
C676 O677 1.275 . S
C676 O678 1.246 . S
O677 Tb660 2.427 . S
O677 C676 1.275 . S
O678 Tb660 2.513 . S
O678 C676 1.246 . S
C679 O663 1.245 . S
C679 O664 1.259 . S
Tb680 O683 2.453 . S
Tb680 O684 2.596 . S
Tb680 O685 2.374 . S
Tb680 O693 2.343 . S
Tb680 O695 2.353 . S
Tb680 O697 2.427 . S
Tb680 O698 2.513 . S
C681 O685 1.251 . S
C681 O687 1.263 . S
Tb682 O684 2.343 . S
Tb682 O687 2.353 . S
Tb682 O690 2.427 . S
Tb682 O691 2.513 . S
Tb682 O692 2.453 . S
Tb682 O693 2.596 . S
Tb682 O694 2.374 . S
O683 Tb680 2.453 . S
O683 C699 1.245 . S
O684 Tb680 2.596 . S
O684 Tb682 2.343 . S
O684 C699 1.259 . S
O685 Tb680 2.374 . S
O685 C681 1.251 . S
C686 O690 1.275 . S
C686 O691 1.246 . S
O687 C681 1.263 . S
O687 Tb682 2.353 . S
C688 O692 1.245 . S
C688 O693 1.259 . S
C689 O694 1.250 . S
C689 O695 1.263 . S
O690 Tb682 2.427 . S
O690 C686 1.275 . S
O691 Tb682 2.513 . S
O691 C686 1.246 . S
O692 Tb682 2.453 . S
O692 C688 1.245 . S
O693 Tb680 2.343 . S
O693 Tb682 2.596 . S
O693 C688 1.259 . S
O694 Tb682 2.374 . S
O694 C689 1.250 . S
O695 Tb680 2.353 . S
O695 C689 1.263 . S
C696 O697 1.275 . S
C696 O698 1.246 . S
O697 Tb680 2.427 . S
O697 C696 1.275 . S
O698 Tb680 2.513 . S
O698 C696 1.246 . S
C699 O683 1.245 . S
C699 O684 1.259 . S
Tb700 O703 2.453 . S
Tb700 O704 2.596 . S
Tb700 O705 2.374 . S
Tb700 O713 2.343 . S
Tb700 O715 2.353 . S
Tb700 O717 2.427 . S
Tb700 O718 2.513 . S
C701 O705 1.251 . S
C701 O707 1.263 . S
Tb702 O704 2.343 . S
Tb702 O707 2.353 . S
Tb702 O710 2.427 . S
Tb702 O711 2.513 . S
Tb702 O712 2.453 . S
Tb702 O713 2.596 . S
Tb702 O714 2.374 . S
O703 Tb700 2.453 . S
O703 C719 1.245 . S
O704 Tb700 2.596 . S
O704 Tb702 2.343 . S
O704 C719 1.259 . S
O705 Tb700 2.374 . S
O705 C701 1.251 . S
C706 O710 1.275 . S
C706 O711 1.246 . S
O707 C701 1.263 . S
O707 Tb702 2.353 . S
C708 O712 1.245 . S
C708 O713 1.259 . S
C709 O714 1.250 . S
C709 O715 1.263 . S
O710 Tb702 2.427 . S
O710 C706 1.275 . S
O711 Tb702 2.513 . S
O711 C706 1.246 . S
O712 Tb702 2.453 . S
O712 C708 1.245 . S
O713 Tb700 2.343 . S
O713 Tb702 2.596 . S
O713 C708 1.259 . S
O714 Tb702 2.374 . S
O714 C709 1.250 . S
O715 Tb700 2.353 . S
O715 C709 1.263 . S
C716 O717 1.275 . S
C716 O718 1.246 . S
O717 Tb700 2.427 . S
O717 C716 1.275 . S
O718 Tb700 2.513 . S
O718 C716 1.246 . S
C719 O703 1.245 . S
C719 O704 1.259 . S
C720 C721 1.369 1_556 S
C720 C722 1.419 . S
C720 H724 0.930 . S
C721 C720 1.369 1_554 S
C721 C730 1.429 . S
C722 C720 1.419 . S
C722 C723 1.363 1_556 S
C722 H725 0.929 . S
C723 C722 1.363 1_554 S
C723 C729 1.428 . S
H724 C720 0.930 . S
H725 C722 0.929 . S
S726 N727 1.613 . S
S726 N728 1.610 . S
N727 S726 1.613 . S
N727 C730 1.350 . S
N728 S726 1.610 . S
N728 C729 1.351 . S
C729 C723 1.428 . S
C729 N728 1.351 . S
C729 C730 1.434 . S
C730 C721 1.429 . S
C730 N727 1.350 . S
C730 C729 1.434 . S
C731 C732 1.369 1_556 S
C731 C733 1.419 1_556 S
C731 H735 0.930 . S
C732 C731 1.369 1_554 S
C732 C741 1.429 . S
C733 C731 1.419 1_554 S
C733 C734 1.363 . S
C733 H736 0.929 1_554 S
C734 C733 1.363 . S
C734 C740 1.428 . S
H735 C731 0.930 . S
H736 C733 0.929 1_556 S
S737 N738 1.613 . S
S737 N739 1.610 . S
N738 S737 1.613 . S
N738 C741 1.350 . S
N739 S737 1.610 . S
N739 C740 1.351 . S
C740 C734 1.428 . S
C740 N739 1.351 . S
C740 C741 1.434 . S
C741 C732 1.429 . S
C741 N738 1.350 . S
C741 C740 1.434 . S
C742 C743 1.369 . S
C742 C744 1.419 . S
C742 H746 0.930 . S
C743 C742 1.369 . S
C743 C752 1.429 1_554 S
C744 C742 1.419 . S
C744 C745 1.363 . S
C744 H747 0.929 . S
C745 C744 1.363 . S
C745 C751 1.428 1_554 S
H746 C742 0.930 . S
H747 C744 0.929 . S
S748 N749 1.613 . S
S748 N750 1.610 . S
N749 S748 1.613 . S
N749 C752 1.350 . S
N750 S748 1.610 . S
N750 C751 1.351 . S
C751 C745 1.428 1_556 S
C751 N750 1.351 . S
C751 C752 1.434 . S
C752 C743 1.429 1_556 S
C752 N749 1.350 . S
C752 C751 1.434 . S
C753 C754 1.369 . S
C753 C755 1.419 . S
C753 H757 0.930 . S
C754 C753 1.369 . S
C754 C763 1.429 . S
C755 C753 1.419 . S
C755 C756 1.363 . S
C755 H758 0.929 . S
C756 C755 1.363 . S
C756 C762 1.428 . S
H757 C753 0.930 . S
H758 C755 0.929 . S
S759 N760 1.613 . S
S759 N761 1.610 . S
N760 S759 1.613 . S
N760 C763 1.350 . S
N761 S759 1.610 . S
N761 C762 1.351 . S
C762 C756 1.428 . S
C762 N761 1.351 . S
C762 C763 1.434 . S
C763 C754 1.429 . S
C763 N760 1.350 . S
C763 C762 1.434 . S
C764 C765 1.369 . S
C764 C766 1.419 . S
C764 H768 0.930 . S
C765 C764 1.369 . S
C765 C774 1.429 . S
C766 C764 1.419 . S
C766 C767 1.363 . S
C766 H769 0.929 . S
C767 C766 1.363 . S
C767 C773 1.428 . S
H768 C764 0.930 . S
H769 C766 0.929 . S
S770 N771 1.613 . S
S770 N772 1.610 . S
N771 S770 1.613 . S
N771 C774 1.350 . S
N772 S770 1.610 . S
N772 C773 1.351 . S
C773 C767 1.428 . S
C773 N772 1.351 . S
C773 C774 1.434 . S
C774 C765 1.429 . S
C774 N771 1.350 . S
C774 C773 1.434 . S
C775 C776 1.369 . S
C775 C777 1.419 . S
C775 H779 0.930 . S
C776 C775 1.369 . S
C776 C785 1.429 . S
C777 C775 1.419 . S
C777 C778 1.363 . S
C777 H780 0.929 . S
C778 C777 1.363 . S
C778 C784 1.428 . S
H779 C775 0.930 . S
H780 C777 0.929 . S
S781 N782 1.613 . S
S781 N783 1.610 . S
N782 S781 1.613 . S
N782 C785 1.350 . S
N783 S781 1.610 . S
N783 C784 1.351 . S
C784 C778 1.428 . S
C784 N783 1.351 . S
C784 C785 1.434 . S
C785 C776 1.429 . S
C785 N782 1.350 . S
C785 C784 1.434 . S
C786 C787 1.369 . S
C786 C788 1.419 . S
C786 H790 0.930 . S
C787 C786 1.369 . S
C787 C796 1.429 1_556 S
C788 C786 1.419 . S
C788 C789 1.363 . S
C788 H791 0.929 . S
C789 C788 1.363 . S
C789 C795 1.428 1_556 S
H790 C786 0.930 . S
H791 C788 0.929 . S
S792 N793 1.613 . S
S792 N794 1.610 . S
N793 S792 1.613 . S
N793 C796 1.350 . S
N794 S792 1.610 . S
N794 C795 1.351 . S
C795 C789 1.428 1_554 S
C795 N794 1.351 . S
C795 C796 1.434 . S
C796 C787 1.429 1_554 S
C796 N793 1.350 . S
C796 C795 1.434 . S
C797 C798 1.369 . S
C797 C799 1.419 . S
C797 H801 0.930 . S
C798 C797 1.369 . S
C798 C807 1.429 1_556 S
C799 C797 1.419 . S
C799 C800 1.363 . S
C799 H802 0.929 . S
C800 C799 1.363 . S
C800 C806 1.428 1_556 S
H801 C797 0.930 . S
H802 C799 0.929 . S
S803 N804 1.613 . S
S803 N805 1.610 . S
N804 S803 1.613 . S
N804 C807 1.350 . S
N805 S803 1.610 . S
N805 C806 1.351 . S
C806 C800 1.428 1_554 S
C806 N805 1.351 . S
C806 C807 1.434 . S
C807 C798 1.429 1_554 S
C807 N804 1.350 . S
C807 C806 1.434 . S
C808 C809 1.369 1_554 S
C808 C810 1.419 1_554 S
C808 H812 0.930 . S
C809 C808 1.369 1_556 S
C809 C818 1.429 . S
C810 C808 1.419 1_556 S
C810 C811 1.363 . S
C810 H813 0.929 . S
C811 C810 1.363 . S
C811 C817 1.428 . S
H812 C808 0.930 . S
H813 C810 0.929 . S
S814 N815 1.613 . S
S814 N816 1.610 . S
N815 S814 1.613 . S
N815 C818 1.350 . S
N816 S814 1.610 . S
N816 C817 1.351 . S
C817 C811 1.428 . S
C817 N816 1.351 . S
C817 C818 1.434 . S
C818 C809 1.429 . S
C818 N815 1.350 . S
C818 C817 1.434 . S
C819 C820 1.369 . S
C819 C821 1.419 . S
C819 H823 0.930 . S
C820 C819 1.369 . S
C820 C829 1.429 . S
C821 C819 1.419 . S
C821 C822 1.363 . S
C821 H824 0.929 . S
C822 C821 1.363 . S
C822 C828 1.428 . S
H823 C819 0.930 . S
H824 C821 0.929 . S
S825 N826 1.613 . S
S825 N827 1.610 . S
N826 S825 1.613 . S
N826 C829 1.350 . S
N827 S825 1.610 . S
N827 C828 1.351 . S
C828 C822 1.428 . S
C828 N827 1.351 . S
C828 C829 1.434 . S
C829 C820 1.429 . S
C829 N826 1.350 . S
C829 C828 1.434 . S
C830 C831 1.369 . S
C830 C832 1.419 . S
C830 H834 0.930 . S
C831 C830 1.369 . S
C831 C840 1.429 . S
C832 C830 1.419 . S
C832 C833 1.363 . S
C832 H835 0.929 . S
C833 C832 1.363 . S
C833 C839 1.428 . S
H834 C830 0.930 . S
H835 C832 0.929 . S
S836 N837 1.613 . S
S836 N838 1.610 . S
N837 S836 1.613 . S
N837 C840 1.350 . S
N838 S836 1.610 . S
N838 C839 1.351 . S
C839 C833 1.428 . S
C839 N838 1.351 . S
C839 C840 1.434 . S
C840 C831 1.429 . S
C840 N837 1.350 . S
C840 C839 1.434 . S
C841 C842 1.369 . S
C841 C843 1.419 . S
C841 H845 0.930 . S
C842 C841 1.369 . S
C842 C851 1.429 . S
C843 C841 1.419 . S
C843 C844 1.363 . S
C843 H846 0.929 . S
C844 C843 1.363 . S
C844 C850 1.428 . S
H845 C841 0.930 . S
H846 C843 0.929 . S
S847 N848 1.613 . S
S847 N849 1.610 . S
N848 S847 1.613 . S
N848 C851 1.350 . S
N849 S847 1.610 . S
N849 C850 1.351 . S
C850 C844 1.428 . S
C850 N849 1.351 . S
C850 C851 1.434 . S
C851 C842 1.429 . S
C851 N848 1.350 . S
C851 C850 1.434 . S
C852 C853 1.369 . S
C852 C854 1.419 . S
C852 H856 0.930 . S
C853 C852 1.369 . S
C853 C862 1.429 . S
C854 C852 1.419 . S
C854 C855 1.363 . S
C854 H857 0.929 . S
C855 C854 1.363 . S
C855 C861 1.428 . S
H856 C852 0.930 . S
H857 C854 0.929 . S
S858 N859 1.613 . S
S858 N860 1.610 . S
N859 S858 1.613 . S
N859 C862 1.350 . S
N860 S858 1.610 . S
N860 C861 1.351 . S
C861 C855 1.428 . S
C861 N860 1.351 . S
C861 C862 1.434 . S
C862 C853 1.429 . S
C862 N859 1.350 . S
C862 C861 1.434 . S
C863 C864 1.369 . S
C863 C865 1.419 . S
C863 H867 0.930 . S
C864 C863 1.369 . S
C864 C873 1.429 . S
C865 C863 1.419 . S
C865 C866 1.363 . S
C865 H868 0.929 . S
C866 C865 1.363 . S
C866 C872 1.428 . S
H867 C863 0.930 . S
H868 C865 0.929 . S
S869 N870 1.613 . S
S869 N871 1.610 . S
N870 S869 1.613 . S
N870 C873 1.350 . S
N871 S869 1.610 . S
N871 C872 1.351 . S
C872 C866 1.428 . S
C872 N871 1.351 . S
C872 C873 1.434 . S
C873 C864 1.429 . S
C873 N870 1.350 . S
C873 C872 1.434 . S
C874 C875 1.369 . S
C874 C876 1.419 . S
C874 H878 0.930 . S
C875 C874 1.369 . S
C875 C884 1.429 . S
C876 C874 1.419 . S
C876 C877 1.363 . S
C876 H879 0.929 . S
C877 C876 1.363 . S
C877 C883 1.428 . S
H878 C874 0.930 . S
H879 C876 0.929 . S
S880 N881 1.613 . S
S880 N882 1.610 . S
N881 S880 1.613 . S
N881 C884 1.350 . S
N882 S880 1.610 . S
N882 C883 1.351 . S
C883 C877 1.428 . S
C883 N882 1.351 . S
C883 C884 1.434 . S
C884 C875 1.429 . S
C884 N881 1.350 . S
C884 C883 1.434 . S
C885 C886 1.369 . S
C885 C887 1.419 . S
C885 H889 0.930 . S
C886 C885 1.369 . S
C886 C895 1.429 . S
C887 C885 1.419 . S
C887 C888 1.363 . S
C887 H890 0.929 . S
C888 C887 1.363 . S
C888 C894 1.428 . S
H889 C885 0.930 . S
H890 C887 0.929 . S
S891 N892 1.613 . S
S891 N893 1.610 . S
N892 S891 1.613 . S
N892 C895 1.350 . S
N893 S891 1.610 . S
N893 C894 1.351 . S
C894 C888 1.428 . S
C894 N893 1.351 . S
C894 C895 1.434 . S
C895 C886 1.429 . S
C895 N892 1.350 . S
C895 C894 1.434 . S
C896 C897 1.369 . S
C896 C898 1.419 . S
C896 H900 0.930 . S
C897 C896 1.369 . S
C897 C906 1.429 . S
C898 C896 1.419 . S
C898 C899 1.363 . S
C898 H901 0.929 . S
C899 C898 1.363 . S
C899 C905 1.428 . S
H900 C896 0.930 . S
H901 C898 0.929 . S
S902 N903 1.613 . S
S902 N904 1.610 . S
N903 S902 1.613 . S
N903 C906 1.350 . S
N904 S902 1.610 . S
N904 C905 1.351 . S
C905 C899 1.428 . S
C905 N904 1.351 . S
C905 C906 1.434 . S
C906 C897 1.429 . S
C906 N903 1.350 . S
C906 C905 1.434 . S
C907 C908 1.369 . S
C907 C909 1.419 . S
C907 H911 0.930 . S
C908 C907 1.369 . S
C908 C917 1.429 . S
C909 C907 1.419 . S
C909 C910 1.363 . S
C909 H912 0.929 . S
C910 C909 1.363 . S
C910 C916 1.428 . S
H911 C907 0.930 . S
H912 C909 0.929 . S
S913 N914 1.613 . S
S913 N915 1.610 . S
N914 S913 1.613 . S
N914 C917 1.350 . S
N915 S913 1.610 . S
N915 C916 1.351 . S
C916 C910 1.428 . S
C916 N915 1.351 . S
C916 C917 1.434 . S
C917 C908 1.429 . S
C917 N914 1.350 . S
C917 C916 1.434 . S
C918 C919 1.369 . S
C918 C920 1.419 . S
C918 H922 0.930 . S
C919 C918 1.369 . S
C919 C928 1.429 . S
C920 C918 1.419 . S
C920 C921 1.363 . S
C920 H923 0.929 . S
C921 C920 1.363 . S
C921 C927 1.428 . S
H922 C918 0.930 . S
H923 C920 0.929 . S
S924 N925 1.613 . S
S924 N926 1.610 . S
N925 S924 1.613 . S
N925 C928 1.350 . S
N926 S924 1.610 . S
N926 C927 1.351 . S
C927 C921 1.428 . S
C927 N926 1.351 . S
C927 C928 1.434 . S
C928 C919 1.429 . S
C928 N925 1.350 . S
C928 C927 1.434 . S
C929 C930 1.369 . S
C929 C931 1.419 . S
C929 H933 0.930 . S
C930 C929 1.369 . S
C930 C939 1.429 . S
C931 C929 1.419 . S
C931 C932 1.363 . S
C931 H934 0.929 . S
C932 C931 1.363 . S
C932 C938 1.428 . S
H933 C929 0.930 . S
H934 C931 0.929 . S
S935 N936 1.613 . S
S935 N937 1.610 . S
N936 S935 1.613 . S
N936 C939 1.350 . S
N937 S935 1.610 . S
N937 C938 1.351 . S
C938 C932 1.428 . S
C938 N937 1.351 . S
C938 C939 1.434 . S
C939 C930 1.429 . S
C939 N936 1.350 . S
C939 C938 1.434 . S
C940 C941 1.369 . S
C940 C942 1.419 . S
C940 H944 0.930 . S
C941 C940 1.369 . S
C941 C950 1.429 . S
C942 C940 1.419 . S
C942 C943 1.363 . S
C942 H945 0.929 . S
C943 C942 1.363 . S
C943 C949 1.428 . S
H944 C940 0.930 . S
H945 C942 0.929 . S
S946 N947 1.613 . S
S946 N948 1.610 . S
N947 S946 1.613 . S
N947 C950 1.350 . S
N948 S946 1.610 . S
N948 C949 1.351 . S
C949 C943 1.428 . S
C949 N948 1.351 . S
C949 C950 1.434 . S
C950 C941 1.429 . S
C950 N947 1.350 . S
C950 C949 1.434 . S
C951 C952 1.369 . S
C951 C953 1.419 . S
C951 H955 0.930 . S
C952 C951 1.369 . S
C952 C961 1.429 . S
C953 C951 1.419 . S
C953 C954 1.363 . S
C953 H956 0.929 . S
C954 C953 1.363 . S
C954 C960 1.428 . S
H955 C951 0.930 . S
H956 C953 0.929 . S
S957 N958 1.613 . S
S957 N959 1.610 . S
N958 S957 1.613 . S
N958 C961 1.350 . S
N959 S957 1.610 . S
N959 C960 1.351 . S
C960 C954 1.428 . S
C960 N959 1.351 . S
C960 C961 1.434 . S
C961 C952 1.429 . S
C961 N958 1.350 . S
C961 C960 1.434 . S
C962 C963 1.369 . S
C962 C964 1.419 . S
C962 H966 0.930 . S
C963 C962 1.369 . S
C963 C972 1.429 . S
C964 C962 1.419 . S
C964 C965 1.363 . S
C964 H967 0.929 . S
C965 C964 1.363 . S
C965 C971 1.428 . S
H966 C962 0.930 . S
H967 C964 0.929 . S
S968 N969 1.613 . S
S968 N970 1.610 . S
N969 S968 1.613 . S
N969 C972 1.350 . S
N970 S968 1.610 . S
N970 C971 1.351 . S
C971 C965 1.428 . S
C971 N970 1.351 . S
C971 C972 1.434 . S
C972 C963 1.429 . S
C972 N969 1.350 . S
C972 C971 1.434 . S
C973 C974 1.369 . S
C973 C975 1.419 . S
C973 H977 0.930 . S
C974 C973 1.369 . S
C974 C983 1.429 . S
C975 C973 1.419 . S
C975 C976 1.363 . S
C975 H978 0.929 . S
C976 C975 1.363 . S
C976 C982 1.428 . S
H977 C973 0.930 . S
H978 C975 0.929 . S
S979 N980 1.613 . S
S979 N981 1.610 . S
N980 S979 1.613 . S
N980 C983 1.350 . S
N981 S979 1.610 . S
N981 C982 1.351 . S
C982 C976 1.428 . S
C982 N981 1.351 . S
C982 C983 1.434 . S
C983 C974 1.429 . S
C983 N980 1.350 . S
C983 C982 1.434 . S
C984 C985 1.369 . S
C984 C986 1.419 . S
C984 H988 0.930 . S
C985 C984 1.369 . S
C985 C994 1.429 . S
C986 C984 1.419 . S
C986 C987 1.363 . S
C986 H989 0.929 . S
C987 C986 1.363 . S
C987 C993 1.428 . S
H988 C984 0.930 . S
H989 C986 0.929 . S
S990 N991 1.613 . S
S990 N992 1.610 . S
N991 S990 1.613 . S
N991 C994 1.350 . S
N992 S990 1.610 . S
N992 C993 1.351 . S
C993 C987 1.428 . S
C993 N992 1.351 . S
C993 C994 1.434 . S
C994 C985 1.429 . S
C994 N991 1.350 . S
C994 C993 1.434 . S
C995 C996 1.369 . S
C995 C997 1.419 . S
C995 H999 0.930 . S
C996 C995 1.369 . S
C996 C1005 1.429 . S
C997 C995 1.419 . S
C997 C998 1.363 . S
C997 H1000 0.929 . S
C998 C997 1.363 . S
C998 C1004 1.428 . S
H999 C995 0.930 . S
H1000 C997 0.929 . S
S1001 N1002 1.613 . S
S1001 N1003 1.610 . S
N1002 S1001 1.613 . S
N1002 C1005 1.350 . S
N1003 S1001 1.610 . S
N1003 C1004 1.351 . S
C1004 C998 1.428 . S
C1004 N1003 1.351 . S
C1004 C1005 1.434 . S
C1005 C996 1.429 . S
C1005 N1002 1.350 . S
C1005 C1004 1.434 . S
C1006 C1007 1.369 . S
C1006 C1008 1.419 . S
C1006 H1010 0.930 . S
C1007 C1006 1.369 . S
C1007 C1016 1.429 . S
C1008 C1006 1.419 . S
C1008 C1009 1.363 . S
C1008 H1011 0.929 . S
C1009 C1008 1.363 . S
C1009 C1015 1.428 . S
H1010 C1006 0.930 . S
H1011 C1008 0.929 . S
S1012 N1013 1.613 . S
S1012 N1014 1.610 . S
N1013 S1012 1.613 . S
N1013 C1016 1.350 . S
N1014 S1012 1.610 . S
N1014 C1015 1.351 . S
C1015 C1009 1.428 . S
C1015 N1014 1.351 . S
C1015 C1016 1.434 . S
C1016 C1007 1.429 . S
C1016 N1013 1.350 . S
C1016 C1015 1.434 . S
C1017 C1018 1.369 . S
C1017 C1019 1.419 . S
C1017 H1021 0.930 . S
C1018 C1017 1.369 . S
C1018 C1027 1.429 . S
C1019 C1017 1.419 . S
C1019 C1020 1.363 . S
C1019 H1022 0.929 . S
C1020 C1019 1.363 . S
C1020 C1026 1.428 . S
H1021 C1017 0.930 . S
H1022 C1019 0.929 . S
S1023 N1024 1.613 . S
S1023 N1025 1.610 . S
N1024 S1023 1.613 . S
N1024 C1027 1.350 . S
N1025 S1023 1.610 . S
N1025 C1026 1.351 . S
C1026 C1020 1.428 . S
C1026 N1025 1.351 . S
C1026 C1027 1.434 . S
C1027 C1018 1.429 . S
C1027 N1024 1.350 . S
C1027 C1026 1.434 . S
C1028 C1029 1.369 . S
C1028 C1030 1.419 . S
C1028 H1032 0.930 . S
C1029 C1028 1.369 . S
C1029 C1038 1.429 . S
C1030 C1028 1.419 . S
C1030 C1031 1.363 . S
C1030 H1033 0.929 . S
C1031 C1030 1.363 . S
C1031 C1037 1.428 . S
H1032 C1028 0.930 . S
H1033 C1030 0.929 . S
S1034 N1035 1.613 . S
S1034 N1036 1.610 . S
N1035 S1034 1.613 . S
N1035 C1038 1.350 . S
N1036 S1034 1.610 . S
N1036 C1037 1.351 . S
C1037 C1031 1.428 . S
C1037 N1036 1.351 . S
C1037 C1038 1.434 . S
C1038 C1029 1.429 . S
C1038 N1035 1.350 . S
C1038 C1037 1.434 . S
C1039 C1040 1.369 . S
C1039 C1041 1.419 . S
C1039 H1043 0.930 . S
C1040 C1039 1.369 . S
C1040 C1049 1.429 . S
C1041 C1039 1.419 . S
C1041 C1042 1.363 . S
C1041 H1044 0.929 . S
C1042 C1041 1.363 . S
C1042 C1048 1.428 . S
H1043 C1039 0.930 . S
H1044 C1041 0.929 . S
S1045 N1046 1.613 . S
S1045 N1047 1.610 . S
N1046 S1045 1.613 . S
N1046 C1049 1.350 . S
N1047 S1045 1.610 . S
N1047 C1048 1.351 . S
C1048 C1042 1.428 . S
C1048 N1047 1.351 . S
C1048 C1049 1.434 . S
C1049 C1040 1.429 . S
C1049 N1046 1.350 . S
C1049 C1048 1.434 . S
C1050 C1051 1.369 . S
C1050 C1052 1.419 . S
C1050 H1054 0.930 . S
C1051 C1050 1.369 . S
C1051 C1060 1.429 . S
C1052 C1050 1.419 . S
C1052 C1053 1.363 . S
C1052 H1055 0.929 . S
C1053 C1052 1.363 . S
C1053 C1059 1.428 . S
H1054 C1050 0.930 . S
H1055 C1052 0.929 . S
S1056 N1057 1.613 . S
S1056 N1058 1.610 . S
N1057 S1056 1.613 . S
N1057 C1060 1.350 . S
N1058 S1056 1.610 . S
N1058 C1059 1.351 . S
C1059 C1053 1.428 . S
C1059 N1058 1.351 . S
C1059 C1060 1.434 . S
C1060 C1051 1.429 . S
C1060 N1057 1.350 . S
C1060 C1059 1.434 . S
C1061 C1062 1.369 . S
C1061 C1063 1.419 . S
C1061 H1065 0.930 . S
C1062 C1061 1.369 . S
C1062 C1071 1.429 . S
C1063 C1061 1.419 . S
C1063 C1064 1.363 . S
C1063 H1066 0.929 . S
C1064 C1063 1.363 . S
C1064 C1070 1.428 . S
H1065 C1061 0.930 . S
H1066 C1063 0.929 . S
S1067 N1068 1.613 . S
S1067 N1069 1.610 . S
N1068 S1067 1.613 . S
N1068 C1071 1.350 . S
N1069 S1067 1.610 . S
N1069 C1070 1.351 . S
C1070 C1064 1.428 . S
C1070 N1069 1.351 . S
C1070 C1071 1.434 . S
C1071 C1062 1.429 . S
C1071 N1068 1.350 . S
C1071 C1070 1.434 . S
C1072 C1073 1.369 . S
C1072 C1074 1.419 . S
C1072 H1076 0.930 . S
C1073 C1072 1.369 . S
C1073 C1082 1.429 . S
C1074 C1072 1.419 . S
C1074 C1075 1.363 . S
C1074 H1077 0.929 . S
C1075 C1074 1.363 . S
C1075 C1081 1.428 . S
H1076 C1072 0.930 . S
H1077 C1074 0.929 . S
S1078 N1079 1.613 . S
S1078 N1080 1.610 . S
N1079 S1078 1.613 . S
N1079 C1082 1.350 . S
N1080 S1078 1.610 . S
N1080 C1081 1.351 . S
C1081 C1075 1.428 . S
C1081 N1080 1.351 . S
C1081 C1082 1.434 . S
C1082 C1073 1.429 . S
C1082 N1079 1.350 . S
C1082 C1081 1.434 . S
C1083 C1084 1.369 . S
C1083 C1085 1.419 . S
C1083 H1087 0.930 . S
C1084 C1083 1.369 . S
C1084 C1093 1.429 . S
C1085 C1083 1.419 . S
C1085 C1086 1.363 . S
C1085 H1088 0.929 . S
C1086 C1085 1.363 . S
C1086 C1092 1.428 . S
H1087 C1083 0.930 . S
H1088 C1085 0.929 . S
S1089 N1090 1.613 . S
S1089 N1091 1.610 . S
N1090 S1089 1.613 . S
N1090 C1093 1.350 . S
N1091 S1089 1.610 . S
N1091 C1092 1.351 . S
C1092 C1086 1.428 . S
C1092 N1091 1.351 . S
C1092 C1093 1.434 . S
C1093 C1084 1.429 . S
C1093 N1090 1.350 . S
C1093 C1092 1.434 . S
C1094 C1095 1.369 . S
C1094 C1096 1.419 . S
C1094 H1098 0.930 . S
C1095 C1094 1.369 . S
C1095 C1104 1.429 . S
C1096 C1094 1.419 . S
C1096 C1097 1.363 . S
C1096 H1099 0.929 . S
C1097 C1096 1.363 . S
C1097 C1103 1.428 . S
H1098 C1094 0.930 . S
H1099 C1096 0.929 . S
S1100 N1101 1.613 . S
S1100 N1102 1.610 . S
N1101 S1100 1.613 . S
N1101 C1104 1.350 . S
N1102 S1100 1.610 . S
N1102 C1103 1.351 . S
C1103 C1097 1.428 . S
C1103 N1102 1.351 . S
C1103 C1104 1.434 . S
C1104 C1095 1.429 . S
C1104 N1101 1.350 . S
C1104 C1103 1.434 . S
C1105 C1106 1.369 . S
C1105 C1107 1.419 . S
C1105 H1109 0.930 . S
C1106 C1105 1.369 . S
C1106 C1115 1.429 . S
C1107 C1105 1.419 . S
C1107 C1108 1.363 . S
C1107 H1110 0.929 . S
C1108 C1107 1.363 . S
C1108 C1114 1.428 . S
H1109 C1105 0.930 . S
H1110 C1107 0.929 . S
S1111 N1112 1.613 . S
S1111 N1113 1.610 . S
N1112 S1111 1.613 . S
N1112 C1115 1.350 . S
N1113 S1111 1.610 . S
N1113 C1114 1.351 . S
C1114 C1108 1.428 . S
C1114 N1113 1.351 . S
C1114 C1115 1.434 . S
C1115 C1106 1.429 . S
C1115 N1112 1.350 . S
C1115 C1114 1.434 . S
C1116 C1117 1.369 . S
C1116 C1118 1.419 . S
C1116 H1120 0.930 . S
C1117 C1116 1.369 . S
C1117 C1126 1.429 . S
C1118 C1116 1.419 . S
C1118 C1119 1.363 . S
C1118 H1121 0.929 . S
C1119 C1118 1.363 . S
C1119 C1125 1.428 . S
H1120 C1116 0.930 . S
H1121 C1118 0.929 . S
S1122 N1123 1.613 . S
S1122 N1124 1.610 . S
N1123 S1122 1.613 . S
N1123 C1126 1.350 . S
N1124 S1122 1.610 . S
N1124 C1125 1.351 . S
C1125 C1119 1.428 . S
C1125 N1124 1.351 . S
C1125 C1126 1.434 . S
C1126 C1117 1.429 . S
C1126 N1123 1.350 . S
C1126 C1125 1.434 . S
C1127 C1128 1.369 . S
C1127 C1129 1.419 . S
C1127 H1131 0.930 . S
C1128 C1127 1.369 . S
C1128 C1137 1.429 . S
C1129 C1127 1.419 . S
C1129 C1130 1.363 . S
C1129 H1132 0.929 . S
C1130 C1129 1.363 . S
C1130 C1136 1.428 . S
H1131 C1127 0.930 . S
H1132 C1129 0.929 . S
S1133 N1134 1.613 . S
S1133 N1135 1.610 . S
N1134 S1133 1.613 . S
N1134 C1137 1.350 . S
N1135 S1133 1.610 . S
N1135 C1136 1.351 . S
C1136 C1130 1.428 . S
C1136 N1135 1.351 . S
C1136 C1137 1.434 . S
C1137 C1128 1.429 . S
C1137 N1134 1.350 . S
C1137 C1136 1.434 . S
C1138 C1139 1.369 . S
C1138 C1140 1.419 . S
C1138 H1142 0.930 . S
C1139 C1138 1.369 . S
C1139 C1148 1.429 . S
C1140 C1138 1.419 . S
C1140 C1141 1.363 . S
C1140 H1143 0.929 . S
C1141 C1140 1.363 . S
C1141 C1147 1.428 . S
H1142 C1138 0.930 . S
H1143 C1140 0.929 . S
S1144 N1145 1.613 . S
S1144 N1146 1.610 . S
N1145 S1144 1.613 . S
N1145 C1148 1.350 . S
N1146 S1144 1.610 . S
N1146 C1147 1.351 . S
C1147 C1141 1.428 . S
C1147 N1146 1.351 . S
C1147 C1148 1.434 . S
C1148 C1139 1.429 . S
C1148 N1145 1.350 . S
C1148 C1147 1.434 . S
C1149 C1150 1.369 . S
C1149 C1151 1.419 . S
C1149 H1153 0.930 . S
C1150 C1149 1.369 . S
C1150 C1159 1.429 . S
C1151 C1149 1.419 . S
C1151 C1152 1.363 . S
C1151 H1154 0.929 . S
C1152 C1151 1.363 . S
C1152 C1158 1.428 . S
H1153 C1149 0.930 . S
H1154 C1151 0.929 . S
S1155 N1156 1.613 . S
S1155 N1157 1.610 . S
N1156 S1155 1.613 . S
N1156 C1159 1.350 . S
N1157 S1155 1.610 . S
N1157 C1158 1.351 . S
C1158 C1152 1.428 . S
C1158 N1157 1.351 . S
C1158 C1159 1.434 . S
C1159 C1150 1.429 . S
C1159 N1156 1.350 . S
C1159 C1158 1.434 . S
C1160 C1161 1.369 . S
C1160 C1162 1.419 . S
C1160 H1164 0.930 . S
C1161 C1160 1.369 . S
C1161 C1170 1.429 . S
C1162 C1160 1.419 . S
C1162 C1163 1.363 . S
C1162 H1165 0.929 . S
C1163 C1162 1.363 . S
C1163 C1169 1.428 . S
H1164 C1160 0.930 . S
H1165 C1162 0.929 . S
S1166 N1167 1.613 . S
S1166 N1168 1.610 . S
N1167 S1166 1.613 . S
N1167 C1170 1.350 . S
N1168 S1166 1.610 . S
N1168 C1169 1.351 . S
C1169 C1163 1.428 . S
C1169 N1168 1.351 . S
C1169 C1170 1.434 . S
C1170 C1161 1.429 . S
C1170 N1167 1.350 . S
C1170 C1169 1.434 . S
C1171 C1172 1.369 . S
C1171 C1173 1.419 . S
C1171 H1175 0.930 . S
C1172 C1171 1.369 . S
C1172 C1181 1.429 . S
C1173 C1171 1.419 . S
C1173 C1174 1.363 . S
C1173 H1176 0.929 . S
C1174 C1173 1.363 . S
C1174 C1180 1.428 . S
H1175 C1171 0.930 . S
H1176 C1173 0.929 . S
S1177 N1178 1.613 . S
S1177 N1179 1.610 . S
N1178 S1177 1.613 . S
N1178 C1181 1.350 . S
N1179 S1177 1.610 . S
N1179 C1180 1.351 . S
C1180 C1174 1.428 . S
C1180 N1179 1.351 . S
C1180 C1181 1.434 . S
C1181 C1172 1.429 . S
C1181 N1178 1.350 . S
C1181 C1180 1.434 . S
C1182 C1183 1.369 . S
C1182 C1184 1.419 . S
C1182 H1186 0.930 . S
C1183 C1182 1.369 . S
C1183 C1192 1.429 . S
C1184 C1182 1.419 . S
C1184 C1185 1.363 . S
C1184 H1187 0.929 . S
C1185 C1184 1.363 . S
C1185 C1191 1.428 . S
H1186 C1182 0.930 . S
H1187 C1184 0.929 . S
S1188 N1189 1.613 . S
S1188 N1190 1.610 . S
N1189 S1188 1.613 . S
N1189 C1192 1.350 . S
N1190 S1188 1.610 . S
N1190 C1191 1.351 . S
C1191 C1185 1.428 . S
C1191 N1190 1.351 . S
C1191 C1192 1.434 . S
C1192 C1183 1.429 . S
C1192 N1189 1.350 . S
C1192 C1191 1.434 . S
C1193 C1194 1.369 . S
C1193 C1195 1.419 . S
C1193 H1197 0.930 . S
C1194 C1193 1.369 . S
C1194 C1203 1.429 . S
C1195 C1193 1.419 . S
C1195 C1196 1.363 . S
C1195 H1198 0.929 . S
C1196 C1195 1.363 . S
C1196 C1202 1.428 . S
H1197 C1193 0.930 . S
H1198 C1195 0.929 . S
S1199 N1200 1.613 . S
S1199 N1201 1.610 . S
N1200 S1199 1.613 . S
N1200 C1203 1.350 . S
N1201 S1199 1.610 . S
N1201 C1202 1.351 . S
C1202 C1196 1.428 . S
C1202 N1201 1.351 . S
C1202 C1203 1.434 . S
C1203 C1194 1.429 . S
C1203 N1200 1.350 . S
C1203 C1202 1.434 . S
C1204 C1205 1.369 . S
C1204 C1206 1.419 . S
C1204 H1208 0.930 . S
C1205 C1204 1.369 . S
C1205 C1214 1.429 . S
C1206 C1204 1.419 . S
C1206 C1207 1.363 . S
C1206 H1209 0.929 . S
C1207 C1206 1.363 . S
C1207 C1213 1.428 . S
H1208 C1204 0.930 . S
H1209 C1206 0.929 . S
S1210 N1211 1.613 . S
S1210 N1212 1.610 . S
N1211 S1210 1.613 . S
N1211 C1214 1.350 . S
N1212 S1210 1.610 . S
N1212 C1213 1.351 . S
C1213 C1207 1.428 . S
C1213 N1212 1.351 . S
C1213 C1214 1.434 . S
C1214 C1205 1.429 . S
C1214 N1211 1.350 . S
C1214 C1213 1.434 . S
C1215 C1216 1.369 . S
C1215 C1217 1.419 . S
C1215 H1219 0.930 . S
C1216 C1215 1.369 . S
C1216 C1225 1.429 . S
C1217 C1215 1.419 . S
C1217 C1218 1.363 . S
C1217 H1220 0.929 . S
C1218 C1217 1.363 . S
C1218 C1224 1.428 . S
H1219 C1215 0.930 . S
H1220 C1217 0.929 . S
S1221 N1222 1.613 . S
S1221 N1223 1.610 . S
N1222 S1221 1.613 . S
N1222 C1225 1.350 . S
N1223 S1221 1.610 . S
N1223 C1224 1.351 . S
C1224 C1218 1.428 . S
C1224 N1223 1.351 . S
C1224 C1225 1.434 . S
C1225 C1216 1.429 . S
C1225 N1222 1.350 . S
C1225 C1224 1.434 . S
C1226 C1227 1.369 . S
C1226 C1228 1.419 . S
C1226 H1230 0.930 . S
C1227 C1226 1.369 . S
C1227 C1236 1.429 . S
C1228 C1226 1.419 . S
C1228 C1229 1.363 . S
C1228 H1231 0.929 . S
C1229 C1228 1.363 . S
C1229 C1235 1.428 . S
H1230 C1226 0.930 . S
H1231 C1228 0.929 . S
S1232 N1233 1.613 . S
S1232 N1234 1.610 . S
N1233 S1232 1.613 . S
N1233 C1236 1.350 . S
N1234 S1232 1.610 . S
N1234 C1235 1.351 . S
C1235 C1229 1.428 . S
C1235 N1234 1.351 . S
C1235 C1236 1.434 . S
C1236 C1227 1.429 . S
C1236 N1233 1.350 . S
C1236 C1235 1.434 . S
C1237 C1238 1.369 . S
C1237 C1239 1.419 . S
C1237 H1241 0.930 . S
C1238 C1237 1.369 . S
C1238 C1247 1.429 . S
C1239 C1237 1.419 . S
C1239 C1240 1.363 . S
C1239 H1242 0.929 . S
C1240 C1239 1.363 . S
C1240 C1246 1.428 . S
H1241 C1237 0.930 . S
H1242 C1239 0.929 . S
S1243 N1244 1.613 . S
S1243 N1245 1.610 . S
N1244 S1243 1.613 . S
N1244 C1247 1.350 . S
N1245 S1243 1.610 . S
N1245 C1246 1.351 . S
C1246 C1240 1.428 . S
C1246 N1245 1.351 . S
C1246 C1247 1.434 . S
C1247 C1238 1.429 . S
C1247 N1244 1.350 . S
C1247 C1246 1.434 . S
C1248 C1249 1.369 . S
C1248 C1250 1.419 . S
C1248 H1252 0.930 . S
C1249 C1248 1.369 . S
C1249 C1258 1.429 1_655 S
C1250 C1248 1.419 . S
C1250 C1251 1.363 1_655 S
C1250 H1253 0.929 . S
C1251 C1250 1.363 1_455 S
C1251 C1257 1.428 . S
H1252 C1248 0.930 . S
H1253 C1250 0.929 . S
S1254 N1255 1.613 . S
S1254 N1256 1.610 . S
N1255 S1254 1.613 . S
N1255 C1258 1.350 . S
N1256 S1254 1.610 . S
N1256 C1257 1.351 . S
C1257 C1251 1.428 . S
C1257 N1256 1.351 . S
C1257 C1258 1.434 . S
C1258 C1249 1.429 1_455 S
C1258 N1255 1.350 . S
C1258 C1257 1.434 . S
C1259 C1260 1.369 . S
C1259 C1261 1.419 . S
C1259 H1263 0.930 . S
C1260 C1259 1.369 . S
C1260 C1269 1.429 . S
C1261 C1259 1.419 . S
C1261 C1262 1.363 . S
C1261 H1264 0.929 . S
C1262 C1261 1.363 . S
C1262 C1268 1.428 . S
H1263 C1259 0.930 . S
H1264 C1261 0.929 . S
S1265 N1266 1.613 . S
S1265 N1267 1.610 . S
N1266 S1265 1.613 . S
N1266 C1269 1.350 . S
N1267 S1265 1.610 . S
N1267 C1268 1.351 . S
C1268 C1262 1.428 . S
C1268 N1267 1.351 . S
C1268 C1269 1.434 . S
C1269 C1260 1.429 . S
C1269 N1266 1.350 . S
C1269 C1268 1.434 . S
C1270 C1271 1.369 . S
C1270 C1272 1.419 1_545 S
C1270 H1274 0.930 . S
C1271 C1270 1.369 . S
C1271 C1280 1.429 . S
C1272 C1270 1.419 1_565 S
C1272 C1273 1.363 . S
C1272 H1275 0.929 . S
C1273 C1272 1.363 . S
C1273 C1279 1.428 . S
H1274 C1270 0.930 . S
H1275 C1272 0.929 . S
S1276 N1277 1.613 1_565 S
S1276 N1278 1.610 . S
N1277 S1276 1.613 1_545 S
N1277 C1280 1.350 . S
N1278 S1276 1.610 . S
N1278 C1279 1.351 . S
C1279 C1273 1.428 . S
C1279 N1278 1.351 . S
C1279 C1280 1.434 1_565 S
C1280 C1271 1.429 . S
C1280 N1277 1.350 . S
C1280 C1279 1.434 1_545 S
C1281 C1282 1.369 1_556 S
C1281 C1283 1.419 1_565 S
C1281 H1285 0.930 . S
C1282 C1281 1.369 1_554 S
C1282 C1291 1.429 . S
C1283 C1281 1.419 1_545 S
C1283 C1284 1.363 . S
C1283 H1286 0.929 . S
C1284 C1283 1.363 . S
C1284 C1290 1.428 1_556 S
H1285 C1281 0.930 . S
H1286 C1283 0.929 . S
S1287 N1288 1.613 . S
S1287 N1289 1.610 1_565 S
N1288 S1287 1.613 . S
N1288 C1291 1.350 . S
N1289 S1287 1.610 1_545 S
N1289 C1290 1.351 . S
C1290 C1284 1.428 1_554 S
C1290 N1289 1.351 . S
C1290 C1291 1.434 1_545 S
C1291 C1282 1.429 . S
C1291 N1288 1.350 . S
C1291 C1290 1.434 1_565 S
C1292 C1293 1.369 1_554 S
C1292 C1294 1.419 . S
C1292 H1296 0.930 . S
C1293 C1292 1.369 1_556 S
C1293 C1302 1.429 1_655 S
C1294 C1292 1.419 . S
C1294 C1295 1.363 1_655 S
C1294 H1297 0.929 . S
C1295 C1294 1.363 1_455 S
C1295 C1301 1.428 1_554 S
H1296 C1292 0.930 . S
H1297 C1294 0.929 . S
S1298 N1299 1.613 . S
S1298 N1300 1.610 . S
N1299 S1298 1.613 . S
N1299 C1302 1.350 . S
N1300 S1298 1.610 . S
N1300 C1301 1.351 . S
C1301 C1295 1.428 1_556 S
C1301 N1300 1.351 . S
C1301 C1302 1.434 . S
C1302 C1293 1.429 1_455 S
C1302 N1299 1.350 . S
C1302 C1301 1.434 . S
C1303 C1304 1.369 1_556 S
C1303 C1305 1.419 . S
C1303 H1307 0.930 . S
C1304 C1303 1.369 1_554 S
C1304 C1313 1.429 . S
C1305 C1303 1.419 . S
C1305 C1306 1.363 . S
C1305 H1308 0.929 . S
C1306 C1305 1.363 . S
C1306 C1312 1.428 1_556 S
H1307 C1303 0.930 . S
H1308 C1305 0.929 . S
S1309 N1310 1.613 . S
S1309 N1311 1.610 . S
N1310 S1309 1.613 . S
N1310 C1313 1.350 . S
N1311 S1309 1.610 . S
N1311 C1312 1.351 . S
C1312 C1306 1.428 1_554 S
C1312 N1311 1.351 . S
C1312 C1313 1.434 . S
C1313 C1304 1.429 . S
C1313 N1310 1.350 . S
C1313 C1312 1.434 . S
C1314 C1315 1.369 . S
C1314 C1316 1.419 . S
C1314 H1318 0.930 . S
C1315 C1314 1.369 . S
C1315 C1324 1.429 . S
C1316 C1314 1.419 . S
C1316 C1317 1.363 . S
C1316 H1319 0.929 . S
C1317 C1316 1.363 . S
C1317 C1323 1.428 . S
H1318 C1314 0.930 . S
H1319 C1316 0.929 . S
S1320 N1321 1.613 . S
S1320 N1322 1.610 . S
N1321 S1320 1.613 . S
N1321 C1324 1.350 . S
N1322 S1320 1.610 . S
N1322 C1323 1.351 . S
C1323 C1317 1.428 . S
C1323 N1322 1.351 . S
C1323 C1324 1.434 . S
C1324 C1315 1.429 . S
C1324 N1321 1.350 . S
C1324 C1323 1.434 . S
C1325 C1326 1.369 . S
C1325 C1327 1.419 . S
C1325 H1329 0.930 . S
C1326 C1325 1.369 . S
C1326 C1335 1.429 . S
C1327 C1325 1.419 . S
C1327 C1328 1.363 . S
C1327 H1330 0.929 . S
C1328 C1327 1.363 . S
C1328 C1334 1.428 . S
H1329 C1325 0.930 . S
H1330 C1327 0.929 . S
S1331 N1332 1.613 . S
S1331 N1333 1.610 . S
N1332 S1331 1.613 . S
N1332 C1335 1.350 . S
N1333 S1331 1.610 . S
N1333 C1334 1.351 . S
C1334 C1328 1.428 . S
C1334 N1333 1.351 . S
C1334 C1335 1.434 . S
C1335 C1326 1.429 . S
C1335 N1332 1.350 . S
C1335 C1334 1.434 . S
C1336 C1337 1.369 . S
C1336 C1338 1.419 . S
C1336 H1340 0.930 . S
C1337 C1336 1.369 . S
C1337 C1346 1.429 . S
C1338 C1336 1.419 . S
C1338 C1339 1.363 . S
C1338 H1341 0.929 . S
C1339 C1338 1.363 . S
C1339 C1345 1.428 . S
H1340 C1336 0.930 . S
H1341 C1338 0.929 . S
S1342 N1343 1.613 . S
S1342 N1344 1.610 . S
N1343 S1342 1.613 . S
N1343 C1346 1.350 . S
N1344 S1342 1.610 . S
N1344 C1345 1.351 . S
C1345 C1339 1.428 . S
C1345 N1344 1.351 . S
C1345 C1346 1.434 . S
C1346 C1337 1.429 . S
C1346 N1343 1.350 . S
C1346 C1345 1.434 . S
C1347 C1348 1.369 . S
C1347 C1349 1.419 . S
C1347 H1351 0.930 . S
C1348 C1347 1.369 . S
C1348 C1357 1.429 . S
C1349 C1347 1.419 . S
C1349 C1350 1.363 . S
C1349 H1352 0.929 . S
C1350 C1349 1.363 . S
C1350 C1356 1.428 . S
H1351 C1347 0.930 . S
H1352 C1349 0.929 . S
S1353 N1354 1.613 . S
S1353 N1355 1.610 . S
N1354 S1353 1.613 . S
N1354 C1357 1.350 . S
N1355 S1353 1.610 . S
N1355 C1356 1.351 . S
C1356 C1350 1.428 . S
C1356 N1355 1.351 . S
C1356 C1357 1.434 . S
C1357 C1348 1.429 . S
C1357 N1354 1.350 . S
C1357 C1356 1.434 . S
C1358 C1359 1.369 . S
C1358 C1360 1.419 . S
C1358 H1362 0.930 . S
C1359 C1358 1.369 . S
C1359 C1368 1.429 . S
C1360 C1358 1.419 . S
C1360 C1361 1.363 . S
C1360 H1363 0.929 . S
C1361 C1360 1.363 . S
C1361 C1367 1.428 . S
H1362 C1358 0.930 . S
H1363 C1360 0.929 . S
S1364 N1365 1.613 . S
S1364 N1366 1.610 . S
N1365 S1364 1.613 . S
N1365 C1368 1.350 . S
N1366 S1364 1.610 . S
N1366 C1367 1.351 . S
C1367 C1361 1.428 . S
C1367 N1366 1.351 . S
C1367 C1368 1.434 . S
C1368 C1359 1.429 . S
C1368 N1365 1.350 . S
C1368 C1367 1.434 . S
C1369 C1370 1.369 . S
C1369 C1371 1.419 . S
C1369 H1373 0.930 . S
C1370 C1369 1.369 . S
C1370 C1379 1.429 . S
C1371 C1369 1.419 . S
C1371 C1372 1.363 . S
C1371 H1374 0.929 . S
C1372 C1371 1.363 . S
C1372 C1378 1.428 . S
H1373 C1369 0.930 . S
H1374 C1371 0.929 . S
S1375 N1376 1.613 . S
S1375 N1377 1.610 . S
N1376 S1375 1.613 . S
N1376 C1379 1.350 . S
N1377 S1375 1.610 . S
N1377 C1378 1.351 . S
C1378 C1372 1.428 . S
C1378 N1377 1.351 . S
C1378 C1379 1.434 . S
C1379 C1370 1.429 . S
C1379 N1376 1.350 . S
C1379 C1378 1.434 . S
C1380 C1381 1.369 . S
C1380 C1382 1.419 . S
C1380 H1384 0.930 . S
C1381 C1380 1.369 . S
C1381 C1390 1.429 . S
C1382 C1380 1.419 . S
C1382 C1383 1.363 . S
C1382 H1385 0.929 . S
C1383 C1382 1.363 . S
C1383 C1389 1.428 . S
H1384 C1380 0.930 . S
H1385 C1382 0.929 . S
S1386 N1387 1.613 . S
S1386 N1388 1.610 . S
N1387 S1386 1.613 . S
N1387 C1390 1.350 . S
N1388 S1386 1.610 . S
N1388 C1389 1.351 . S
C1389 C1383 1.428 . S
C1389 N1388 1.351 . S
C1389 C1390 1.434 . S
C1390 C1381 1.429 . S
C1390 N1387 1.350 . S
C1390 C1389 1.434 . S
C1391 C1392 1.369 . S
C1391 C1393 1.419 . S
C1391 H1395 0.930 . S
C1392 C1391 1.369 . S
C1392 C1401 1.429 . S
C1393 C1391 1.419 . S
C1393 C1394 1.363 . S
C1393 H1396 0.929 . S
C1394 C1393 1.363 . S
C1394 C1400 1.428 . S
H1395 C1391 0.930 . S
H1396 C1393 0.929 . S
S1397 N1398 1.613 . S
S1397 N1399 1.610 1_556 S
N1398 S1397 1.613 . S
N1398 C1401 1.350 1_556 S
N1399 S1397 1.610 1_554 S
N1399 C1400 1.351 . S
C1400 C1394 1.428 . S
C1400 N1399 1.351 . S
C1400 C1401 1.434 . S
C1401 C1392 1.429 . S
C1401 N1398 1.350 1_554 S
C1401 C1400 1.434 . S
C1402 C1403 1.369 . S
C1402 C1404 1.419 . S
C1402 H1406 0.930 . S
C1403 C1402 1.369 . S
C1403 C1412 1.429 . S
C1404 C1402 1.419 . S
C1404 C1405 1.363 . S
C1404 H1407 0.929 . S
C1405 C1404 1.363 . S
C1405 C1411 1.428 . S
H1406 C1402 0.930 . S
H1407 C1404 0.929 . S
S1408 N1409 1.613 . S
S1408 N1410 1.610 . S
N1409 S1408 1.613 . S
N1409 C1412 1.350 . S
N1410 S1408 1.610 . S
N1410 C1411 1.351 . S
C1411 C1405 1.428 . S
C1411 N1410 1.351 . S
C1411 C1412 1.434 . S
C1412 C1403 1.429 . S
C1412 N1409 1.350 . S
C1412 C1411 1.434 . S
C1413 C1414 1.369 . S
C1413 C1415 1.419 . S
C1413 H1417 0.930 . S
C1414 C1413 1.369 . S
C1414 C1423 1.429 . S
C1415 C1413 1.419 . S
C1415 C1416 1.363 . S
C1415 H1418 0.929 . S
C1416 C1415 1.363 . S
C1416 C1422 1.428 . S
H1417 C1413 0.930 . S
H1418 C1415 0.929 . S
S1419 N1420 1.613 . S
S1419 N1421 1.610 . S
N1420 S1419 1.613 . S
N1420 C1423 1.350 . S
N1421 S1419 1.610 . S
N1421 C1422 1.351 . S
C1422 C1416 1.428 . S
C1422 N1421 1.351 . S
C1422 C1423 1.434 . S
C1423 C1414 1.429 . S
C1423 N1420 1.350 . S
C1423 C1422 1.434 . S
C1424 C1425 1.369 . S
C1424 C1426 1.419 . S
C1424 H1428 0.930 . S
C1425 C1424 1.369 . S
C1425 C1434 1.429 . S
C1426 C1424 1.419 . S
C1426 C1427 1.363 . S
C1426 H1429 0.929 . S
C1427 C1426 1.363 . S
C1427 C1433 1.428 . S
H1428 C1424 0.930 . S
H1429 C1426 0.929 . S
S1430 N1431 1.613 . S
S1430 N1432 1.610 . S
N1431 S1430 1.613 . S
N1431 C1434 1.350 . S
N1432 S1430 1.610 . S
N1432 C1433 1.351 . S
C1433 C1427 1.428 . S
C1433 N1432 1.351 . S
C1433 C1434 1.434 . S
C1434 C1425 1.429 . S
C1434 N1431 1.350 . S
C1434 C1433 1.434 . S
C1435 C1436 1.369 . S
C1435 C1437 1.419 . S
C1435 H1439 0.930 . S
C1436 C1435 1.369 . S
C1436 C1445 1.429 . S
C1437 C1435 1.419 . S
C1437 C1438 1.363 . S
C1437 H1440 0.929 . S
C1438 C1437 1.363 . S
C1438 C1444 1.428 . S
H1439 C1435 0.930 . S
H1440 C1437 0.929 . S
S1441 N1442 1.613 . S
S1441 N1443 1.610 . S
N1442 S1441 1.613 . S
N1442 C1445 1.350 . S
N1443 S1441 1.610 . S
N1443 C1444 1.351 . S
C1444 C1438 1.428 . S
C1444 N1443 1.351 . S
C1444 C1445 1.434 . S
C1445 C1436 1.429 . S
C1445 N1442 1.350 . S
C1445 C1444 1.434 . S
C1446 C1447 1.369 . S
C1446 C1448 1.419 1_455 S
C1446 H1450 0.930 . S
C1447 C1446 1.369 . S
C1447 C1456 1.429 . S
C1448 C1446 1.419 1_655 S
C1448 C1449 1.363 . S
C1448 H1451 0.929 . S
C1449 C1448 1.363 . S
C1449 C1455 1.428 . S
H1450 C1446 0.930 . S
H1451 C1448 0.929 . S
S1452 N1453 1.613 1_655 S
S1452 N1454 1.610 . S
N1453 S1452 1.613 1_455 S
N1453 C1456 1.350 . S
N1454 S1452 1.610 . S
N1454 C1455 1.351 . S
C1455 C1449 1.428 . S
C1455 N1454 1.351 . S
C1455 C1456 1.434 1_655 S
C1456 C1447 1.429 . S
C1456 N1453 1.350 . S
C1456 C1455 1.434 1_455 S
C1457 C1458 1.369 . S
C1457 C1459 1.419 . S
C1457 H1461 0.930 . S
C1458 C1457 1.369 . S
C1458 C1467 1.429 . S
C1459 C1457 1.419 . S
C1459 C1460 1.363 . S
C1459 H1462 0.929 . S
C1460 C1459 1.363 . S
C1460 C1466 1.428 . S
H1461 C1457 0.930 . S
H1462 C1459 0.929 . S
S1463 N1464 1.613 . S
S1463 N1465 1.610 . S
N1464 S1463 1.613 . S
N1464 C1467 1.350 . S
N1465 S1463 1.610 . S
N1465 C1466 1.351 . S
C1466 C1460 1.428 . S
C1466 N1465 1.351 . S
C1466 C1467 1.434 . S
C1467 C1458 1.429 . S
C1467 N1464 1.350 . S
C1467 C1466 1.434 . S
C1468 C1469 1.369 . S
C1468 C1470 1.419 1_545 S
C1468 H1472 0.930 . S
C1469 C1468 1.369 . S
C1469 C1478 1.429 . S
C1470 C1468 1.419 1_565 S
C1470 C1471 1.363 . S
C1470 H1473 0.929 . S
C1471 C1470 1.363 . S
C1471 C1477 1.428 . S
H1472 C1468 0.930 . S
H1473 C1470 0.929 . S
S1474 N1475 1.649 . S
S1474 N1476 1.610 . S
N1475 S1474 1.649 . S
N1475 C1478 1.349 1_565 S
N1476 S1474 1.610 . S
N1476 C1477 1.351 . S
C1477 C1471 1.428 . S
C1477 N1476 1.351 . S
C1477 C1478 1.434 1_565 S
C1478 C1469 1.429 . S
C1478 N1475 1.349 1_545 S
C1478 C1477 1.434 1_545 S
C1479 C1480 1.369 . S
C1479 C1481 1.419 1_565 S
C1479 H1483 0.930 . S
C1480 C1479 1.369 . S
C1480 C1489 1.429 . S
C1481 C1479 1.419 1_545 S
C1481 C1482 1.363 . S
C1481 H1484 0.929 . S
C1482 C1481 1.363 . S
C1482 C1488 1.428 . S
H1483 C1479 0.930 . S
H1484 C1481 0.929 . S
S1485 N1486 1.613 1_545 S
S1485 N1487 1.610 . S
N1486 S1485 1.613 1_565 S
N1486 C1489 1.350 . S
N1487 S1485 1.610 . S
N1487 C1488 1.351 . S
C1488 C1482 1.428 . S
C1488 N1487 1.351 . S
C1488 C1489 1.434 1_545 S
C1489 C1480 1.429 . S
C1489 N1486 1.350 . S
C1489 C1488 1.434 1_565 S
C1490 C1491 1.369 . S
C1490 C1492 1.419 1_455 S
C1490 H1494 0.930 . S
C1491 C1490 1.369 . S
C1491 C1500 1.429 . S
C1492 C1490 1.419 1_655 S
C1492 C1493 1.363 . S
C1492 H1495 0.929 . S
C1493 C1492 1.363 . S
C1493 C1499 1.428 . S
H1494 C1490 0.930 . S
H1495 C1492 0.929 . S
S1496 N1497 1.613 . S
S1496 N1498 1.610 1_455 S
N1497 S1496 1.613 . S
N1497 C1500 1.350 . S
N1498 S1496 1.610 1_655 S
N1498 C1499 1.351 . S
C1499 C1493 1.428 . S
C1499 N1498 1.351 . S
C1499 C1500 1.434 1_655 S
C1500 C1491 1.429 . S
C1500 N1497 1.350 . S
C1500 C1499 1.434 1_455 S
C1501 C1502 1.369 . S
C1501 C1503 1.419 . S
C1501 H1505 0.930 . S
C1502 C1501 1.369 . S
C1502 C1511 1.429 . S
C1503 C1501 1.419 . S
C1503 C1504 1.363 . S
C1503 H1506 0.929 . S
C1504 C1503 1.363 . S
C1504 C1510 1.428 . S
H1505 C1501 0.930 . S
H1506 C1503 0.929 . S
S1507 N1508 1.613 . S
S1507 N1509 1.610 . S
N1508 S1507 1.613 . S
N1508 C1511 1.350 . S
N1509 S1507 1.610 . S
N1509 C1510 1.351 . S
C1510 C1504 1.428 . S
C1510 N1509 1.351 . S
C1510 C1511 1.434 . S
C1511 C1502 1.429 . S
C1511 N1508 1.350 . S
C1511 C1510 1.434 . S
C1512 C1513 1.369 . S
C1512 C1514 1.419 . S
C1512 H1516 0.930 . S
C1513 C1512 1.369 . S
C1513 C1522 1.429 . S
C1514 C1512 1.419 . S
C1514 C1515 1.363 . S
C1514 H1517 0.929 . S
C1515 C1514 1.363 . S
C1515 C1521 1.428 . S
H1516 C1512 0.930 . S
H1517 C1514 0.929 . S
S1518 N1519 1.613 . S
S1518 N1520 1.610 . S
N1519 S1518 1.613 . S
N1519 C1522 1.350 . S
N1520 S1518 1.610 . S
N1520 C1521 1.351 . S
C1521 C1515 1.428 . S
C1521 N1520 1.351 . S
C1521 C1522 1.434 . S
C1522 C1513 1.429 . S
C1522 N1519 1.350 . S
C1522 C1521 1.434 . S
C1523 C1524 1.369 . S
C1523 C1525 1.419 . S
C1523 H1527 0.930 . S
C1524 C1523 1.369 . S
C1524 C1533 1.429 1_545 S
C1525 C1523 1.419 . S
C1525 C1526 1.363 1_545 S
C1525 H1528 0.929 . S
C1526 C1525 1.363 1_565 S
C1526 C1532 1.428 . S
H1527 C1523 0.930 . S
H1528 C1525 0.929 . S
S1529 N1530 1.613 . S
S1529 N1531 1.610 . S
N1530 S1529 1.613 . S
N1530 C1533 1.350 . S
N1531 S1529 1.610 . S
N1531 C1532 1.351 . S
C1532 C1526 1.428 . S
C1532 N1531 1.351 . S
C1532 C1533 1.434 . S
C1533 C1524 1.429 1_565 S
C1533 N1530 1.350 . S
C1533 C1532 1.434 . S
C1534 C1535 1.369 . S
C1534 C1536 1.419 . S
C1534 H1538 0.930 . S
C1535 C1534 1.369 . S
C1535 C1544 1.429 1_655 S
C1536 C1534 1.419 . S
C1536 C1537 1.363 1_655 S
C1536 H1539 0.929 . S
C1537 C1536 1.363 1_455 S
C1537 C1543 1.428 . S
H1538 C1534 0.930 . S
H1539 C1536 0.929 . S
S1540 N1541 1.613 . S
S1540 N1542 1.610 . S
N1541 S1540 1.613 . S
N1541 C1544 1.350 . S
N1542 S1540 1.610 . S
N1542 C1543 1.351 . S
C1543 C1537 1.428 . S
C1543 N1542 1.351 . S
C1543 C1544 1.434 . S
C1544 C1535 1.429 1_455 S
C1544 N1541 1.350 . S
C1544 C1543 1.434 . S
C1545 C1546 1.369 . S
C1545 C1547 1.419 . S
C1545 H1549 0.930 . S
C1546 C1545 1.369 . S
C1546 C1555 1.429 . S
C1547 C1545 1.419 . S
C1547 C1548 1.363 . S
C1547 H1550 0.929 . S
C1548 C1547 1.363 . S
C1548 C1554 1.428 . S
H1549 C1545 0.930 . S
H1550 C1547 0.929 . S
S1551 N1552 1.613 . S
S1551 N1553 1.610 . S
N1552 S1551 1.613 . S
N1552 C1555 1.350 . S
N1553 S1551 1.610 . S
N1553 C1554 1.351 . S
C1554 C1548 1.428 . S
C1554 N1553 1.351 . S
C1554 C1555 1.434 . S
C1555 C1546 1.429 . S
C1555 N1552 1.350 . S
C1555 C1554 1.434 . S
C1556 C1557 1.373 1_545 S
C1556 C1558 1.422 . S
C1556 H1560 0.923 . S
C1557 C1556 1.373 1_565 S
C1557 C1566 1.429 . S
C1558 C1556 1.422 . S
C1558 C1559 1.363 . S
C1558 H1561 0.929 . S
C1559 C1558 1.363 . S
C1559 C1565 1.428 1_545 S
H1560 C1556 0.923 . S
H1561 C1558 0.929 . S
S1562 N1563 1.613 . S
S1562 N1564 1.610 . S
N1563 S1562 1.613 . S
N1563 C1566 1.350 . S
N1564 S1562 1.610 . S
N1564 C1565 1.351 . S
C1565 C1559 1.428 1_565 S
C1565 N1564 1.351 . S
C1565 C1566 1.434 . S
C1566 C1557 1.429 . S
C1566 N1563 1.350 . S
C1566 C1565 1.434 . S
C1567 C1568 1.369 . S
C1567 C1569 1.419 . S
C1567 H1571 0.930 . S
C1568 C1567 1.369 . S
C1568 C1577 1.429 1_655 S
C1569 C1567 1.419 . S
C1569 C1570 1.363 1_655 S
C1569 H1572 0.929 . S
C1570 C1569 1.363 1_455 S
C1570 C1576 1.428 . S
H1571 C1567 0.930 . S
H1572 C1569 0.929 . S
S1573 N1574 1.613 . S
S1573 N1575 1.610 . S
N1574 S1573 1.613 . S
N1574 C1577 1.350 . S
N1575 S1573 1.610 . S
N1575 C1576 1.351 . S
C1576 C1570 1.428 . S
C1576 N1575 1.351 . S
C1576 C1577 1.434 . S
C1577 C1568 1.429 1_455 S
C1577 N1574 1.350 . S
C1577 C1576 1.434 . S
C1578 C1579 1.369 . S
C1578 C1580 1.419 . S
C1578 H1582 0.930 . S
C1579 C1578 1.369 . S
C1579 C1588 1.429 . S
C1580 C1578 1.419 . S
C1580 C1581 1.363 . S
C1580 H1583 0.929 . S
C1581 C1580 1.363 . S
C1581 C1587 1.428 . S
H1582 C1578 0.930 . S
H1583 C1580 0.929 . S
S1584 N1585 1.613 . S
S1584 N1586 1.610 . S
N1585 S1584 1.613 . S
N1585 C1588 1.350 . S
N1586 S1584 1.610 . S
N1586 C1587 1.351 . S
C1587 C1581 1.428 . S
C1587 N1586 1.351 . S
C1587 C1588 1.434 . S
C1588 C1579 1.429 . S
C1588 N1585 1.350 . S
C1588 C1587 1.434 . S
C1589 C1590 1.369 . S
C1589 C1591 1.419 . S
C1589 H1593 0.930 . S
C1590 C1589 1.369 . S
C1590 C1599 1.429 . S
C1591 C1589 1.419 . S
C1591 C1592 1.363 . S
C1591 H1594 0.929 . S
C1592 C1591 1.363 . S
C1592 C1598 1.428 . S
H1593 C1589 0.930 . S
H1594 C1591 0.929 . S
S1595 N1596 1.613 . S
S1595 N1597 1.610 . S
N1596 S1595 1.613 . S
N1596 C1599 1.350 . S
N1597 S1595 1.610 . S
N1597 C1598 1.351 . S
C1598 C1592 1.428 . S
C1598 N1597 1.351 . S
C1598 C1599 1.434 . S
C1599 C1590 1.429 . S
C1599 N1596 1.350 . S
C1599 C1598 1.434 . S
C1600 C1601 1.369 . S
C1600 C1602 1.419 . S
C1600 H1604 0.930 . S
C1601 C1600 1.369 . S
C1601 C1610 1.429 . S
C1602 C1600 1.419 . S
C1602 C1603 1.363 . S
C1602 H1605 0.929 . S
C1603 C1602 1.363 . S
C1603 C1609 1.428 . S
H1604 C1600 0.930 . S
H1605 C1602 0.929 . S
S1606 N1607 1.613 . S
S1606 N1608 1.610 . S
N1607 S1606 1.613 . S
N1607 C1610 1.350 . S
N1608 S1606 1.610 . S
N1608 C1609 1.351 . S
C1609 C1603 1.428 . S
C1609 N1608 1.351 . S
C1609 C1610 1.434 . S
C1610 C1601 1.429 . S
C1610 N1607 1.350 . S
C1610 C1609 1.434 . S
C1611 C1612 1.369 . S
C1611 C1613 1.419 . S
C1611 H1615 0.930 . S
C1612 C1611 1.369 . S
C1612 C1621 1.429 . S
C1613 C1611 1.419 . S
C1613 C1614 1.363 . S
C1613 H1616 0.929 . S
C1614 C1613 1.363 . S
C1614 C1620 1.428 . S
H1615 C1611 0.930 . S
H1616 C1613 0.929 . S
S1617 N1618 1.613 . S
S1617 N1619 1.610 . S
N1618 S1617 1.613 . S
N1618 C1621 1.350 . S
N1619 S1617 1.610 . S
N1619 C1620 1.351 . S
C1620 C1614 1.428 . S
C1620 N1619 1.351 . S
C1620 C1621 1.434 . S
C1621 C1612 1.429 . S
C1621 N1618 1.350 . S
C1621 C1620 1.434 . S
C1622 C1623 1.369 . S
C1622 C1624 1.419 . S
C1622 H1626 0.930 . S
C1623 C1622 1.369 . S
C1623 C1632 1.429 . S
C1624 C1622 1.419 . S
C1624 C1625 1.363 . S
C1624 H1627 0.929 . S
C1625 C1624 1.363 . S
C1625 C1631 1.428 . S
H1626 C1622 0.930 . S
H1627 C1624 0.929 . S
S1628 N1629 1.613 . S
S1628 N1630 1.610 . S
N1629 S1628 1.613 . S
N1629 C1632 1.350 . S
N1630 S1628 1.610 . S
N1630 C1631 1.351 . S
C1631 C1625 1.428 . S
C1631 N1630 1.351 . S
C1631 C1632 1.434 . S
C1632 C1623 1.429 . S
C1632 N1629 1.350 . S
C1632 C1631 1.434 . S
C1633 C1634 1.369 . S
C1633 C1635 1.419 . S
C1633 H1637 0.930 . S
C1634 C1633 1.369 . S
C1634 C1643 1.429 . S
C1635 C1633 1.419 . S
C1635 C1636 1.363 . S
C1635 H1638 0.929 . S
C1636 C1635 1.363 . S
C1636 C1642 1.428 . S
H1637 C1633 0.930 . S
H1638 C1635 0.929 . S
S1639 N1640 1.613 . S
S1639 N1641 1.610 . S
N1640 S1639 1.613 . S
N1640 C1643 1.350 . S
N1641 S1639 1.610 . S
N1641 C1642 1.351 . S
C1642 C1636 1.428 . S
C1642 N1641 1.351 . S
C1642 C1643 1.434 . S
C1643 C1634 1.429 . S
C1643 N1640 1.350 . S
C1643 C1642 1.434 . S
C1644 C1645 1.369 . S
C1644 C1646 1.419 . S
C1644 H1648 0.930 . S
C1645 C1644 1.369 . S
C1645 C1654 1.429 . S
C1646 C1644 1.419 . S
C1646 C1647 1.363 . S
C1646 H1649 0.929 . S
C1647 C1646 1.363 . S
C1647 C1653 1.428 . S
H1648 C1644 0.930 . S
H1649 C1646 0.929 . S
S1650 N1651 1.613 . S
S1650 N1652 1.610 . S
N1651 S1650 1.613 . S
N1651 C1654 1.350 . S
N1652 S1650 1.610 . S
N1652 C1653 1.351 . S
C1653 C1647 1.428 . S
C1653 N1652 1.351 . S
C1653 C1654 1.434 . S
C1654 C1645 1.429 . S
C1654 N1651 1.350 . S
C1654 C1653 1.434 . S
C1655 C1656 1.369 . S
C1655 C1657 1.419 . S
C1655 H1659 0.930 . S
C1656 C1655 1.369 . S
C1656 C1665 1.429 . S
C1657 C1655 1.419 . S
C1657 C1658 1.363 . S
C1657 H1660 0.929 . S
C1658 C1657 1.363 . S
C1658 C1664 1.428 . S
H1659 C1655 0.930 . S
H1660 C1657 0.929 . S
S1661 N1662 1.613 . S
S1661 N1663 1.610 . S
N1662 S1661 1.613 . S
N1662 C1665 1.350 . S
N1663 S1661 1.610 . S
N1663 C1664 1.351 . S
C1664 C1658 1.428 . S
C1664 N1663 1.351 . S
C1664 C1665 1.434 . S
C1665 C1656 1.429 . S
C1665 N1662 1.350 . S
C1665 C1664 1.434 . S
C1666 C1667 1.369 . S
C1666 C1668 1.419 . S
C1666 H1670 0.930 . S
C1667 C1666 1.369 . S
C1667 C1676 1.429 . S
C1668 C1666 1.419 . S
C1668 C1669 1.363 . S
C1668 H1671 0.929 . S
C1669 C1668 1.363 . S
C1669 C1675 1.428 . S
H1670 C1666 0.930 . S
H1671 C1668 0.929 . S
S1672 N1673 1.613 . S
S1672 N1674 1.610 . S
N1673 S1672 1.613 . S
N1673 C1676 1.350 . S
N1674 S1672 1.610 . S
N1674 C1675 1.351 . S
C1675 C1669 1.428 . S
C1675 N1674 1.351 . S
C1675 C1676 1.434 . S
C1676 C1667 1.429 . S
C1676 N1673 1.350 . S
C1676 C1675 1.434 . S
C1677 C1678 1.369 . S
C1677 C1679 1.419 . S
C1677 H1681 0.930 . S
C1678 C1677 1.369 . S
C1678 C1687 1.429 . S
C1679 C1677 1.419 . S
C1679 C1680 1.363 . S
C1679 H1682 0.929 . S
C1680 C1679 1.363 . S
C1680 C1686 1.428 . S
H1681 C1677 0.930 . S
H1682 C1679 0.929 . S
S1683 N1684 1.613 . S
S1683 N1685 1.610 . S
N1684 S1683 1.613 . S
N1684 C1687 1.350 . S
N1685 S1683 1.610 . S
N1685 C1686 1.351 . S
C1686 C1680 1.428 . S
C1686 N1685 1.351 . S
C1686 C1687 1.434 . S
C1687 C1678 1.429 . S
C1687 N1684 1.350 . S
C1687 C1686 1.434 . S
C1688 C1689 1.369 . S
C1688 C1690 1.419 . S
C1688 H1692 0.930 . S
C1689 C1688 1.369 . S
C1689 C1698 1.429 . S
C1690 C1688 1.419 . S
C1690 C1691 1.363 . S
C1690 H1693 0.929 . S
C1691 C1690 1.363 . S
C1691 C1697 1.428 . S
H1692 C1688 0.930 . S
H1693 C1690 0.929 . S
S1694 N1695 1.613 . S
S1694 N1696 1.610 . S
N1695 S1694 1.613 . S
N1695 C1698 1.350 . S
N1696 S1694 1.610 . S
N1696 C1697 1.351 . S
C1697 C1691 1.428 . S
C1697 N1696 1.351 . S
C1697 C1698 1.434 . S
C1698 C1689 1.429 . S
C1698 N1695 1.350 . S
C1698 C1697 1.434 . S
C1699 C1700 1.369 . S
C1699 C1701 1.419 . S
C1699 H1703 0.930 . S
C1700 C1699 1.369 . S
C1700 C1709 1.429 . S
C1701 C1699 1.419 . S
C1701 C1702 1.363 . S
C1701 H1704 0.929 . S
C1702 C1701 1.363 . S
C1702 C1708 1.428 . S
H1703 C1699 0.930 . S
H1704 C1701 0.929 . S
S1705 N1706 1.613 . S
S1705 N1707 1.610 . S
N1706 S1705 1.613 . S
N1706 C1709 1.350 . S
N1707 S1705 1.610 . S
N1707 C1708 1.351 . S
C1708 C1702 1.428 . S
C1708 N1707 1.351 . S
C1708 C1709 1.434 . S
C1709 C1700 1.429 . S
C1709 N1706 1.350 . S
C1709 C1708 1.434 . S
C1710 C1711 1.369 . S
C1710 C1712 1.419 . S
C1710 H1714 0.930 . S
C1711 C1710 1.369 . S
C1711 C1720 1.429 . S
C1712 C1710 1.419 . S
C1712 C1713 1.363 . S
C1712 H1715 0.929 . S
C1713 C1712 1.363 . S
C1713 C1719 1.428 . S
H1714 C1710 0.930 . S
H1715 C1712 0.929 . S
S1716 N1717 1.613 . S
S1716 N1718 1.610 . S
N1717 S1716 1.613 . S
N1717 C1720 1.350 . S
N1718 S1716 1.610 . S
N1718 C1719 1.351 . S
C1719 C1713 1.428 . S
C1719 N1718 1.351 . S
C1719 C1720 1.434 . S
C1720 C1711 1.429 . S
C1720 N1717 1.350 . S
C1720 C1719 1.434 . S
C1721 C1722 1.369 . S
C1721 C1723 1.419 . S
C1721 H1725 0.930 . S
C1722 C1721 1.369 . S
C1722 C1731 1.429 . S
C1723 C1721 1.419 . S
C1723 C1724 1.363 . S
C1723 H1726 0.929 . S
C1724 C1723 1.363 . S
C1724 C1730 1.428 . S
H1725 C1721 0.930 . S
H1726 C1723 0.929 . S
S1727 N1728 1.613 . S
S1727 N1729 1.610 . S
N1728 S1727 1.613 . S
N1728 C1731 1.350 . S
N1729 S1727 1.610 . S
N1729 C1730 1.351 . S
C1730 C1724 1.428 . S
C1730 N1729 1.351 . S
C1730 C1731 1.434 . S
C1731 C1722 1.429 . S
C1731 N1728 1.350 . S
C1731 C1730 1.434 . S
C1732 C1733 1.369 . S
C1732 C1734 1.419 . S
C1732 H1736 0.930 . S
C1733 C1732 1.369 . S
C1733 C1742 1.429 . S
C1734 C1732 1.419 . S
C1734 C1735 1.363 . S
C1734 H1737 0.929 . S
C1735 C1734 1.363 . S
C1735 C1741 1.428 . S
H1736 C1732 0.930 . S
H1737 C1734 0.929 . S
S1738 N1739 1.613 1_556 S
S1738 N1740 1.610 1_556 S
N1739 S1738 1.613 1_554 S
N1739 C1742 1.350 . S
N1740 S1738 1.610 1_554 S
N1740 C1741 1.351 . S
C1741 C1735 1.428 . S
C1741 N1740 1.351 . S
C1741 C1742 1.434 . S
C1742 C1733 1.429 . S
C1742 N1739 1.350 . S
C1742 C1741 1.434 . S
C1743 C1744 1.369 . S
C1743 C1745 1.419 . S
C1743 H1747 0.930 . S
C1744 C1743 1.369 . S
C1744 C1753 1.429 . S
C1745 C1743 1.419 . S
C1745 C1746 1.363 . S
C1745 H1748 0.929 . S
C1746 C1745 1.363 . S
C1746 C1752 1.428 . S
H1747 C1743 0.930 . S
H1748 C1745 0.929 . S
S1749 N1750 1.613 . S
S1749 N1751 1.610 . S
N1750 S1749 1.613 . S
N1750 C1753 1.350 . S
N1751 S1749 1.610 . S
N1751 C1752 1.351 . S
C1752 C1746 1.428 . S
C1752 N1751 1.351 . S
C1752 C1753 1.434 . S
C1753 C1744 1.429 . S
C1753 N1750 1.350 . S
C1753 C1752 1.434 . S
C1754 C1755 1.369 . S
C1754 C1756 1.419 . S
C1754 H1758 0.930 . S
C1755 C1754 1.369 . S
C1755 C1764 1.429 . S
C1756 C1754 1.419 . S
C1756 C1757 1.363 . S
C1756 H1759 0.929 . S
C1757 C1756 1.363 . S
C1757 C1763 1.428 . S
H1758 C1754 0.930 . S
H1759 C1756 0.929 . S
S1760 N1761 1.613 . S
S1760 N1762 1.610 . S
N1761 S1760 1.613 . S
N1761 C1764 1.350 . S
N1762 S1760 1.610 . S
N1762 C1763 1.351 . S
C1763 C1757 1.428 . S
C1763 N1762 1.351 . S
C1763 C1764 1.434 . S
C1764 C1755 1.429 . S
C1764 N1761 1.350 . S
C1764 C1763 1.434 . S
C1765 C1766 1.369 . S
C1765 C1767 1.419 . S
C1765 H1769 0.930 . S
C1766 C1765 1.369 . S
C1766 C1775 1.429 . S
C1767 C1765 1.419 . S
C1767 C1768 1.363 . S
C1767 H1770 0.929 . S
C1768 C1767 1.363 . S
C1768 C1774 1.428 . S
H1769 C1765 0.930 . S
H1770 C1767 0.929 . S
S1771 N1772 1.613 . S
S1771 N1773 1.610 . S
N1772 S1771 1.613 . S
N1772 C1775 1.350 . S
N1773 S1771 1.610 . S
N1773 C1774 1.351 . S
C1774 C1768 1.428 . S
C1774 N1773 1.351 . S
C1774 C1775 1.434 . S
C1775 C1766 1.429 . S
C1775 N1772 1.350 . S
C1775 C1774 1.434 . S
C1776 C1777 1.369 . S
C1776 C1778 1.419 . S
C1776 H1780 0.930 . S
C1777 C1776 1.369 . S
C1777 C1786 1.429 . S
C1778 C1776 1.419 . S
C1778 C1779 1.363 . S
C1778 H1781 0.929 . S
C1779 C1778 1.363 . S
C1779 C1785 1.428 . S
H1780 C1776 0.930 . S
H1781 C1778 0.929 . S
S1782 N1783 1.613 . S
S1782 N1784 1.610 . S
N1783 S1782 1.613 . S
N1783 C1786 1.350 . S
N1784 S1782 1.610 . S
N1784 C1785 1.351 . S
C1785 C1779 1.428 . S
C1785 N1784 1.351 . S
C1785 C1786 1.434 . S
C1786 C1777 1.429 . S
C1786 N1783 1.350 . S
C1786 C1785 1.434 . S
C1787 C1788 1.369 . S
C1787 C1789 1.419 . S
C1787 H1791 0.930 . S
C1788 C1787 1.369 . S
C1788 C1797 1.429 . S
C1789 C1787 1.419 . S
C1789 C1790 1.363 . S
C1789 H1792 0.929 . S
C1790 C1789 1.363 . S
C1790 C1796 1.428 . S
H1791 C1787 0.930 . S
H1792 C1789 0.929 . S
S1793 N1794 1.613 1_554 S
S1793 N1795 1.610 1_554 S
N1794 S1793 1.613 1_556 S
N1794 C1797 1.350 . S
N1795 S1793 1.610 1_556 S
N1795 C1796 1.351 . S
C1796 C1790 1.428 . S
C1796 N1795 1.351 . S
C1796 C1797 1.434 . S
C1797 C1788 1.429 . S
C1797 N1794 1.350 . S
C1797 C1796 1.434 . S
C1798 C1799 1.369 . S
C1798 C1800 1.419 . S
C1798 H1802 0.930 . S
C1799 C1798 1.369 . S
C1799 C1808 1.429 . S
C1800 C1798 1.419 . S
C1800 C1801 1.363 . S
C1800 H1803 0.929 . S
C1801 C1800 1.363 . S
C1801 C1807 1.428 . S
H1802 C1798 0.930 . S
H1803 C1800 0.929 . S
S1804 N1805 1.613 1_455 S
S1804 N1806 1.610 . S
N1805 S1804 1.613 1_655 S
N1805 C1808 1.350 . S
N1806 S1804 1.610 . S
N1806 C1807 1.351 1_455 S
C1807 C1801 1.428 . S
C1807 N1806 1.351 1_655 S
C1807 C1808 1.434 . S
C1808 C1799 1.429 . S
C1808 N1805 1.350 . S
C1808 C1807 1.434 . S
C1809 C1810 1.369 . S
C1809 C1811 1.419 . S
C1809 H1813 0.930 . S
C1810 C1809 1.369 . S
C1810 C1819 1.429 . S
C1811 C1809 1.419 . S
C1811 C1812 1.363 . S
C1811 H1814 0.929 . S
C1812 C1811 1.363 . S
C1812 C1818 1.428 . S
H1813 C1809 0.930 . S
H1814 C1811 0.929 . S
S1815 N1816 1.613 . S
S1815 N1817 1.610 . S
N1816 S1815 1.613 . S
N1816 C1819 1.350 . S
N1817 S1815 1.610 . S
N1817 C1818 1.351 . S
C1818 C1812 1.428 . S
C1818 N1817 1.351 . S
C1818 C1819 1.434 . S
C1819 C1810 1.429 . S
C1819 N1816 1.350 . S
C1819 C1818 1.434 . S
C1820 C1821 1.369 . S
C1820 C1822 1.419 . S
C1820 H1824 0.930 . S
C1821 C1820 1.369 . S
C1821 C1830 1.429 . S
C1822 C1820 1.419 . S
C1822 C1823 1.363 . S
C1822 H1825 0.929 1_565 S
C1823 C1822 1.363 . S
C1823 C1829 1.428 . S
H1824 C1820 0.930 . S
H1825 C1822 0.929 1_545 S
S1826 N1827 1.613 . S
S1826 N1828 1.610 . S
N1827 S1826 1.613 . S
N1827 C1830 1.350 . S
N1828 S1826 1.610 . S
N1828 C1829 1.351 . S
C1829 C1823 1.428 . S
C1829 N1828 1.351 . S
C1829 C1830 1.434 . S
C1830 C1821 1.429 . S
C1830 N1827 1.350 . S
C1830 C1829 1.434 . S
C1831 C1832 1.369 . S
C1831 C1833 1.419 . S
C1831 H1835 0.930 . S
C1832 C1831 1.369 . S
C1832 C1841 1.429 . S
C1833 C1831 1.419 . S
C1833 C1834 1.363 . S
C1833 H1836 0.929 . S
C1834 C1833 1.363 . S
C1834 C1840 1.428 . S
H1835 C1831 0.930 . S
H1836 C1833 0.929 . S
S1837 N1838 1.613 . S
S1837 N1839 1.610 . S
N1838 S1837 1.613 . S
N1838 C1841 1.350 . S
N1839 S1837 1.610 . S
N1839 C1840 1.351 . S
C1840 C1834 1.428 . S
C1840 N1839 1.351 . S
C1840 C1841 1.434 . S
C1841 C1832 1.429 . S
C1841 N1838 1.350 . S
C1841 C1840 1.434 . S
C1842 C1843 1.369 . S
C1842 C1844 1.419 1_655 S
C1842 H1846 0.930 . S
C1843 C1842 1.369 . S
C1843 C1852 1.429 . S
C1844 C1842 1.419 1_455 S
C1844 C1845 1.363 . S
C1844 H1847 0.929 . S
C1845 C1844 1.363 . S
C1845 C1851 1.428 . S
H1846 C1842 0.930 . S
H1847 C1844 0.929 . S
S1848 N1849 1.605 1_455 S
S1848 N1850 1.632 . S
N1849 S1848 1.605 1_655 S
N1849 C1852 1.350 . S
N1850 S1848 1.632 . S
N1850 C1851 1.351 . S
C1851 C1845 1.428 . S
C1851 N1850 1.351 . S
C1851 C1852 1.434 1_455 S
C1852 C1843 1.429 . S
C1852 N1849 1.350 . S
C1852 C1851 1.434 1_655 S
C1853 C1854 1.369 . S
C1853 C1855 1.419 . S
C1853 H1857 0.930 . S
C1854 C1853 1.369 . S
C1854 C1863 1.429 . S
C1855 C1853 1.419 . S
C1855 C1856 1.363 . S
C1855 H1858 0.929 . S
C1856 C1855 1.363 . S
C1856 C1862 1.428 . S
H1857 C1853 0.930 . S
H1858 C1855 0.929 . S
S1859 N1860 1.613 . S
S1859 N1861 1.610 . S
N1860 S1859 1.613 . S
N1860 C1863 1.350 . S
N1861 S1859 1.610 . S
N1861 C1862 1.351 . S
C1862 C1856 1.428 . S
C1862 N1861 1.351 . S
C1862 C1863 1.434 . S
C1863 C1854 1.429 . S
C1863 N1860 1.350 . S
C1863 C1862 1.434 . S
C1864 C1865 1.369 . S
C1864 C1866 1.419 1_545 S
C1864 H1868 0.930 . S
C1865 C1864 1.369 . S
C1865 C1874 1.429 . S
C1866 C1864 1.419 1_565 S
C1866 C1867 1.363 . S
C1866 H1869 0.929 . S
C1867 C1866 1.363 . S
C1867 C1873 1.428 . S
H1868 C1864 0.930 . S
H1869 C1866 0.929 . S
S1870 N1871 1.613 . S
S1870 N1872 1.610 1_545 S
N1871 S1870 1.613 . S
N1871 C1874 1.350 . S
N1872 S1870 1.610 1_565 S
N1872 C1873 1.351 . S
C1873 C1867 1.428 . S
C1873 N1872 1.351 . S
C1873 C1874 1.434 1_565 S
C1874 C1865 1.429 . S
C1874 N1871 1.350 . S
C1874 C1873 1.434 1_545 S
C1875 C1876 1.369 . S
C1875 C1877 1.419 1_545 S
C1875 H1879 0.930 . S
C1876 C1875 1.369 . S
C1876 C1885 1.429 . S
C1877 C1875 1.419 1_565 S
C1877 C1878 1.363 . S
C1877 H1880 0.929 . S
C1878 C1877 1.363 . S
C1878 C1884 1.428 . S
H1879 C1875 0.930 . S
H1880 C1877 0.929 . S
S1881 N1882 1.613 . S
S1881 N1883 1.610 1_545 S
N1882 S1881 1.613 . S
N1882 C1885 1.350 . S
N1883 S1881 1.610 1_565 S
N1883 C1884 1.351 . S
C1884 C1878 1.428 . S
C1884 N1883 1.351 . S
C1884 C1885 1.434 1_565 S
C1885 C1876 1.429 . S
C1885 N1882 1.350 . S
C1885 C1884 1.434 1_545 S
C1886 C1887 1.369 . S
C1886 C1888 1.419 1_655 S
C1886 H1890 0.930 . S
C1887 C1886 1.369 . S
C1887 C1896 1.429 . S
C1888 C1886 1.419 1_455 S
C1888 C1889 1.363 . S
C1888 H1891 0.929 . S
C1889 C1888 1.363 . S
C1889 C1895 1.428 . S
H1890 C1886 0.930 . S
H1891 C1888 0.929 . S
S1892 N1893 1.613 . S
S1892 N1894 1.610 1_655 S
N1893 S1892 1.613 . S
N1893 C1896 1.350 . S
N1894 S1892 1.610 1_455 S
N1894 C1895 1.351 . S
C1895 C1889 1.428 . S
C1895 N1894 1.351 . S
C1895 C1896 1.434 1_455 S
C1896 C1887 1.429 . S
C1896 N1893 1.350 . S
C1896 C1895 1.434 1_655 S
C1897 C1898 1.369 . S
C1897 C1899 1.419 . S
C1897 H1901 0.930 . S
C1898 C1897 1.369 . S
C1898 C1907 1.429 . S
C1899 C1897 1.419 . S
C1899 C1900 1.363 . S
C1899 H1902 0.929 . S
C1900 C1899 1.363 . S
C1900 C1906 1.428 . S
H1901 C1897 0.930 . S
H1902 C1899 0.929 . S
S1903 N1904 1.613 . S
S1903 N1905 1.610 . S
N1904 S1903 1.613 . S
N1904 C1907 1.350 . S
N1905 S1903 1.610 . S
N1905 C1906 1.351 . S
C1906 C1900 1.428 . S
C1906 N1905 1.351 . S
C1906 C1907 1.434 . S
C1907 C1898 1.429 . S
C1907 N1904 1.350 . S
C1907 C1906 1.434 . S
C721 C8 2.123 . S
C723 C156 1.977 1_554 S
C732 C176 1.980 1_554 S
C734 C28 2.124 . S
C743 C136 1.975 1_554 S
C745 C48 2.121 . S
C754 C236 1.981 . S
C756 C68 2.122 . S
C765 C88 2.122 . S
C767 C196 1.974 . S
C776 C108 2.121 . S
C778 C216 1.974 . S
C787 C26 1.973 1_556 S
C789 C139 2.121 . S
C798 C159 2.122 . S
C800 C46 1.979 1_556 S
C809 C6 1.982 1_556 S
C811 C179 2.123 . S
C820 C106 1.981 . S
C822 C199 2.123 . S
C831 C219 2.123 . S
C833 C66 1.981 . S
C842 C239 2.121 . S
C844 C86 1.977 . S
C853 C248 2.121 . S
C855 C396 1.973 . S
C864 C416 1.973 . S
C866 C268 2.121 . S
C875 C376 1.974 . S
C877 C288 2.123 . S
C886 C308 2.121 . S
C888 C476 1.973 . S
C897 C436 1.976 . S
C899 C328 2.121 . S
C908 C348 2.121 . S
C910 C456 1.973 . S
C919 C379 2.122 . S
C921 C266 1.975 . S
C930 C286 1.978 . S
C932 C399 2.122 . S
C941 C419 2.121 . S
C943 C246 1.977 . S
C952 C346 1.973 . S
C954 C439 2.121 . S
C963 C306 1.974 . S
C965 C459 2.122 . S
C974 C479 2.123 . S
C976 C326 1.980 . S
C985 C488 2.120 . S
C987 C636 1.975 . S
C996 C508 2.122 . S
C998 C656 1.979 . S
C1007 C616 1.976 . S
C1009 C528 2.121 . S
C1018 C716 1.973 . S
C1020 C548 2.122 . S
C1029 C568 2.122 . S
C1031 C676 1.979 . S
C1040 C696 1.975 . S
C1042 C588 2.121 . S
C1051 C506 1.981 . S
C1053 C619 2.122 . S
C1062 C639 2.120 . S
C1064 C526 1.974 . S
C1073 C486 1.982 . S
C1075 C659 2.123 . S
C1084 C679 2.122 . S
C1086 C586 1.980 . S
C1095 C699 2.124 . S
C1097 C546 1.980 . S
C1106 C719 2.124 . S
C1108 C566 1.979 . S
C1117 C16 1.224 . S
C1119 C366 1.218 . S
C1128 C36 1.215 . S
C1130 C386 1.225 . S
C1139 C406 1.216 . S
C1141 C56 1.224 . S
C1150 C666 1.227 . S
C1152 C76 1.216 . S
C1161 C686 1.227 . S
C1163 C96 1.216 . S
C1172 C706 1.216 . S
C1174 C116 1.224 . S
C1183 C126 1.217 . S
C1185 C496 1.224 . S
C1194 C516 1.226 . S
C1196 C146 1.217 . S
C1205 C166 1.215 . S
C1207 C536 1.225 . S
C1216 C186 1.214 . S
C1218 C316 1.226 . S
C1227 C206 1.226 . S
C1229 C336 1.216 . S
C1238 C226 1.216 . S
C1240 C356 1.224 . S
C1249 C256 1.227 . S
C1251 C606 1.216 . S
C1260 C626 1.226 . S
C1262 C276 1.216 . S
C1271 C296 1.227 . S
C1273 C646 1.216 . S
C1282 C556 1.226 . S
C1284 C426 1.216 . S
C1293 C446 1.225 . S
C1295 C576 1.217 . S
C1304 C596 1.227 . S
C1306 C466 1.216 . S
C1315 C9 1.641 . S
C1317 C329 1.647 . S
C1326 C29 1.638 . S
C1328 C349 1.640 . S
C1337 C309 1.644 . S
C1339 C49 1.638 . S
C1348 C69 1.639 . S
C1350 C529 1.646 . S
C1359 C489 1.637 . S
C1361 C89 1.645 . S
C1370 C109 1.648 . S
C1372 C509 1.642 . S
C1381 C681 1.643 . S
C1383 C121 1.646 . S
C1392 C141 1.638 . S
C1394 C701 1.646 . S
C1403 C661 1.637 . S
C1405 C161 1.641 . S
C1414 C181 1.648 . S
C1416 C401 1.642 . S
C1425 C201 1.636 . S
C1427 C361 1.643 . S
C1436 C221 1.638 . S
C1438 C381 1.640 . S
C1447 C569 1.643 . S
C1449 C249 1.646 . S
C1458 C269 1.640 . S
C1460 C589 1.639 . S
C1469 C289 1.637 . S
C1471 C549 1.645 . S
C1480 C641 1.637 . S
C1482 C421 1.644 . S
C1491 C601 1.638 . S
C1493 C441 1.640 . S
C1502 C621 1.641 . S
C1504 C461 1.639 . S
C1513 C61 1.458 . S
C1515 C1 1.461 . S
C1524 C21 1.464 . S
C1526 C81 1.459 . S
C1535 C41 1.461 . S
C1537 C101 1.459 . S
C1546 C189 1.464 . S
C1548 C129 1.459 . S
C1557 C149 1.459 . S
C1559 C209 1.462 . S
C1568 C229 1.464 . S
C1570 C169 1.458 . S
C1579 C301 1.461 . S
C1581 C241 1.459 . S
C1590 C261 1.464 . S
C1592 C321 1.458 . S
C1601 C281 1.464 . S
C1603 C341 1.458 . S
C1612 C369 1.457 . S
C1614 C429 1.463 1_554 S
C1623 C389 1.458 . S
C1625 C449 1.464 1_554 S
C1634 C409 1.464 . S
C1636 C469 1.459 1_554 S
C1645 C481 1.457 . S
C1647 C541 1.462 1_556 S
C1656 C561 1.462 1_556 S
C1658 C501 1.462 . S
C1667 C581 1.460 1_556 S
C1669 C521 1.460 . S
C1678 C609 1.462 . S
C1680 C669 1.461 . S
C1689 C689 1.464 . S
C1691 C629 1.458 . S
C1700 C649 1.457 . S
C1702 C709 1.464 . S
C1711 C19 1.481 . S
C1713 C599 1.480 . S
C1722 C559 1.476 . S
C1724 C39 1.477 1_565 S
C1733 C59 1.475 1_455 S
C1735 C579 1.477 . S
C1744 C279 1.468 . S
C1746 C79 1.469 . S
C1755 C99 1.477 1_545 S
C1757 C299 1.474 . S
C1766 C119 1.468 1_655 S
C1768 C259 1.471 . S
C1777 C468 1.481 . S
C1779 C128 1.479 . S
C1788 C148 1.478 1_545 S
C1790 C428 1.478 . S
C1799 C448 1.470 . S
C1801 C168 1.472 1_655 S
C1810 C188 1.477 . S
C1812 C628 1.475 . S
C1821 C648 1.481 . S
C1823 C208 1.479 1_565 S
C1832 C608 1.476 . S
C1834 C228 1.477 1_455 S
C1843 C319 1.469 . S
C1845 C519 1.469 . S
C1854 C339 1.477 . S
C1856 C539 1.478 . S
C1865 C359 1.467 . S
C1867 C499 1.469 . S
C1876 C368 1.474 . S
C1878 C708 1.476 . S
C1887 C388 1.474 . S
C1889 C668 1.475 . S
C1898 C688 1.480 . S
C1900 C408 1.479 . S
