# Generated by pormake.
# Topology gsi, (4)-cn, num edge types: 1
# Building blocks:
#     Node 0, Type 0, BuildingBlock: KUFVIS_clean_sbu_0, # of connection points: 4
#     Node 1, Type 0, BuildingBlock: KUFVIS_clean_sbu_0, # of connection points: 4
#     Node 2, Type 0, BuildingBlock: KUFVIS_clean_sbu_0, # of connection points: 4
#     Node 3, Type 0, BuildingBlock: KUFVIS_clean_sbu_0, # of connection points: 4
#     Node 4, Type 0, BuildingBlock: KUFVIS_clean_sbu_0, # of connection points: 4
#     Node 5, Type 0, BuildingBlock: KUFVIS_clean_sbu_0, # of connection points: 4
#     Node 6, Type 0, BuildingBlock: KUFVIS_clean_sbu_0, # of connection points: 4
#     Node 7, Type 0, BuildingBlock: KUFVIS_clean_sbu_0, # of connection points: 4
#     Node 8, Type 0, BuildingBlock: KUFVIS_clean_sbu_0, # of connection points: 4
#     Node 9, Type 0, BuildingBlock: KUFVIS_clean_sbu_0, # of connection points: 4
#     Node 10, Type 0, BuildingBlock: KUFVIS_clean_sbu_0, # of connection points: 4
#     Node 11, Type 0, BuildingBlock: KUFVIS_clean_sbu_0, # of connection points: 4
#     Node 12, Type 0, BuildingBlock: KUFVIS_clean_sbu_0, # of connection points: 4
#     Node 13, Type 0, BuildingBlock: KUFVIS_clean_sbu_0, # of connection points: 4
#     Node 14, Type 0, BuildingBlock: KUFVIS_clean_sbu_0, # of connection points: 4
#     Node 15, Type 0, BuildingBlock: KUFVIS_clean_sbu_0, # of connection points: 4
#     Edge 16, Type (0, 0), BuildingBlock: KIFKEQ_clean_linker_1, # of connection points: 2
#     Edge 17, Type (0, 0), BuildingBlock: KIFKEQ_clean_linker_1, # of connection points: 2
#     Edge 18, Type (0, 0), BuildingBlock: KIFKEQ_clean_linker_1, # of connection points: 2
#     Edge 19, Type (0, 0), BuildingBlock: KIFKEQ_clean_linker_1, # of connection points: 2
#     Edge 20, Type (0, 0), BuildingBlock: KIFKEQ_clean_linker_1, # of connection points: 2
#     Edge 21, Type (0, 0), BuildingBlock: KIFKEQ_clean_linker_1, # of connection points: 2
#     Edge 22, Type (0, 0), BuildingBlock: KIFKEQ_clean_linker_1, # of connection points: 2
#     Edge 23, Type (0, 0), BuildingBlock: KIFKEQ_clean_linker_1, # of connection points: 2
#     Edge 24, Type (0, 0), BuildingBlock: KIFKEQ_clean_linker_1, # of connection points: 2
#     Edge 25, Type (0, 0), BuildingBlock: KIFKEQ_clean_linker_1, # of connection points: 2
#     Edge 26, Type (0, 0), BuildingBlock: KIFKEQ_clean_linker_1, # of connection points: 2
#     Edge 27, Type (0, 0), BuildingBlock: KIFKEQ_clean_linker_1, # of connection points: 2
#     Edge 28, Type (0, 0), BuildingBlock: KIFKEQ_clean_linker_1, # of connection points: 2
#     Edge 29, Type (0, 0), BuildingBlock: KIFKEQ_clean_linker_1, # of connection points: 2
#     Edge 30, Type (0, 0), BuildingBlock: KIFKEQ_clean_linker_1, # of connection points: 2
#     Edge 31, Type (0, 0), BuildingBlock: KIFKEQ_clean_linker_1, # of connection points: 2
#     Edge 32, Type (0, 0), BuildingBlock: KIFKEQ_clean_linker_1, # of connection points: 2
#     Edge 33, Type (0, 0), BuildingBlock: KIFKEQ_clean_linker_1, # of connection points: 2
#     Edge 34, Type (0, 0), BuildingBlock: KIFKEQ_clean_linker_1, # of connection points: 2
#     Edge 35, Type (0, 0), BuildingBlock: KIFKEQ_clean_linker_1, # of connection points: 2
#     Edge 36, Type (0, 0), BuildingBlock: KIFKEQ_clean_linker_1, # of connection points: 2
#     Edge 37, Type (0, 0), BuildingBlock: KIFKEQ_clean_linker_1, # of connection points: 2
#     Edge 38, Type (0, 0), BuildingBlock: KIFKEQ_clean_linker_1, # of connection points: 2
#     Edge 39, Type (0, 0), BuildingBlock: KIFKEQ_clean_linker_1, # of connection points: 2
#     Edge 40, Type (0, 0), BuildingBlock: KIFKEQ_clean_linker_1, # of connection points: 2
#     Edge 41, Type (0, 0), BuildingBlock: KIFKEQ_clean_linker_1, # of connection points: 2
#     Edge 42, Type (0, 0), BuildingBlock: KIFKEQ_clean_linker_1, # of connection points: 2
#     Edge 43, Type (0, 0), BuildingBlock: KIFKEQ_clean_linker_1, # of connection points: 2
#     Edge 44, Type (0, 0), BuildingBlock: KIFKEQ_clean_linker_1, # of connection points: 2
#     Edge 45, Type (0, 0), BuildingBlock: KIFKEQ_clean_linker_1, # of connection points: 2
#     Edge 46, Type (0, 0), BuildingBlock: KIFKEQ_clean_linker_1, # of connection points: 2
#     Edge 47, Type (0, 0), BuildingBlock: KIFKEQ_clean_linker_1, # of connection points: 2
# Relax obj value: 0.113
# Max RMSD: 0.169
# Mean RMSD: 0.121
data_MOF--net-gsi--node1-KUFVIS_clean_sbu_0--edge1-KIFKEQ_clean_linker_1
_symmetry_space_group_name_H-M    P1
_symmetry_Int_Tables_number       1
_symmetry_cell_setting            triclinic
loop_
_symmetry_equiv_pos_as_xyz
'x, y, z'
_cell_length_a     42.891698
_cell_length_b     41.418453
_cell_length_c     41.215254
_cell_angle_alpha  92.249755
_cell_angle_beta   91.753976
_cell_angle_gamma 96.436004
loop_
_atom_site_label
_atom_site_type_symbol
_atom_site_fract_x
_atom_site_fract_y
_atom_site_fract_z
_atom_type_partial_charge
Mn0 Mn 0.16514 0.16181 0.14672 0.0
Mn1 Mn 0.15583 0.17327 0.22715 0.0
C2 C 0.19353 0.20574 0.17582 0.0
C3 C 0.1907 0.1405 0.10232 0.0
C4 C 0.10685 0.18623 0.17624 0.0
O5 O 0.14606 0.11643 0.16087 0.0
O6 O 0.14695 0.1265 0.21532 0.0
C7 C 0.20945 0.14069 0.25096 0.0
N8 N 0.19351 0.16732 0.25076 0.0
C9 C 0.23291 0.1982 0.28558 0.0
C10 C 0.24997 0.17123 0.28589 0.0
C11 C 0.2381 0.14229 0.26868 0.0
C12 C 0.20468 0.19525 0.26731 0.0
H13 H 0.20064 0.11866 0.23718 0.0
C14 C 0.14254 0.10725 0.19013 0.0
O15 O 0.16244 0.14862 0.09943 0.0
O16 O 0.20351 0.14305 0.13139 0.0
N17 N 0.16386 0.21794 0.24161 0.0
C18 C 0.1468 0.24302 0.23539 0.0
C19 C 0.15522 0.2735 0.25123 0.0
C20 C 0.18095 0.27786 0.27344 0.0
C21 C 0.19814 0.25173 0.27934 0.0
C22 C 0.18851 0.22183 0.26306 0.0
H23 H 0.12676 0.23984 0.21866 0.0
O24 O 0.18887 0.20681 0.14463 0.0
O25 O 0.18076 0.17969 0.18859 0.0
O26 O 0.12317 0.18145 0.15146 0.0
O27 O 0.1161 0.18108 0.20509 0.0
C28 C 0.22514 0.25448 0.29983 0.0
C29 C 0.24345 0.2284 0.30133 0.0
H30 H 0.27245 0.17257 0.29879 0.0
H31 H 0.25121 0.12144 0.26872 0.0
H32 H 0.14187 0.29357 0.24639 0.0
H33 H 0.18762 0.30149 0.2854 0.0
H34 H 0.23288 0.27707 0.31328 0.0
H35 H 0.26605 0.23237 0.31382 0.0
Mn36 Mn 0.86782 0.35079 0.16445 0.0
Mn37 Mn 0.88314 0.34084 0.24393 0.0
C38 C 0.84009 0.30889 0.19158 0.0
C39 C 0.83927 0.37203 0.1224 0.0
C40 C 0.92669 0.32317 0.19103 0.0
O41 O 0.88911 0.39592 0.1807 0.0
O42 O 0.89489 0.38679 0.23417 0.0
C43 C 0.83452 0.37961 0.26871 0.0
N44 N 0.84814 0.35143 0.268 0.0
C45 C 0.80824 0.32547 0.30096 0.0
C46 C 0.79344 0.35401 0.30148 0.0
C47 C 0.80679 0.38128 0.28555 0.0
C48 C 0.83548 0.32505 0.28324 0.0
H49 H 0.84425 0.40034 0.25575 0.0
C50 C 0.89663 0.40551 0.21019 0.0
O51 O 0.8669 0.36299 0.11798 0.0
O52 O 0.82898 0.37031 0.15162 0.0
N53 N 0.87221 0.29727 0.25676 0.0
C54 C 0.88633 0.27012 0.24947 0.0
C55 C 0.87607 0.24084 0.26389 0.0
C56 C 0.85154 0.23979 0.28575 0.0
C57 C 0.83736 0.26802 0.29277 0.0
C58 C 0.84877 0.29658 0.27794 0.0
H59 H 0.90538 0.27079 0.23291 0.0
O60 O 0.84244 0.30646 0.16027 0.0
O61 O 0.85513 0.33477 0.2055 0.0
O62 O 0.90935 0.32999 0.16706 0.0
O63 O 0.91977 0.32819 0.2206 0.0
C64 C 0.81168 0.2687 0.31307 0.0
C65 C 0.7962 0.29687 0.31582 0.0
H66 H 0.77134 0.35505 0.31313 0.0
H67 H 0.79537 0.4033 0.28572 0.0
H68 H 0.88706 0.21913 0.25819 0.0
H69 H 0.84345 0.21709 0.29658 0.0
H70 H 0.80273 0.24721 0.32547 0.0
H71 H 0.77457 0.29584 0.32862 0.0
Mn72 Mn 0.17448 0.876 0.3573 0.0
Mn73 Mn 0.17446 0.79962 0.38421 0.0
C74 C 0.21126 0.84288 0.33961 0.0
C75 C 0.15853 0.91378 0.32073 0.0
C76 C 0.19935 0.85989 0.425 0.0
O77 O 0.12998 0.86612 0.3741 0.0
O78 O 0.133 0.81492 0.38973 0.0
C79 C 0.12913 0.7641 0.33607 0.0
N80 N 0.15803 0.76802 0.35129 0.0
C81 C 0.17203 0.71902 0.3251 0.0
C82 C 0.1424 0.71439 0.30918 0.0
C83 C 0.12094 0.73715 0.31453 0.0
C84 C 0.179 0.74654 0.34596 0.0
H85 H 0.11242 0.78129 0.34048 0.0
C86 C 0.1179 0.83942 0.38553 0.0
O87 O 0.16839 0.92232 0.35022 0.0
O88 O 0.15705 0.88303 0.31259 0.0
N89 N 0.21317 0.78127 0.37989 0.0
C90 C 0.24153 0.79063 0.39521 0.0
C91 C 0.26613 0.77127 0.39119 0.0
C92 C 0.26107 0.74216 0.37213 0.0
C93 C 0.23159 0.73292 0.35686 0.0
C94 C 0.20817 0.75347 0.36126 0.0
H95 H 0.24533 0.81268 0.41036 0.0
O96 O 0.21695 0.8743 0.3387 0.0
O97 O 0.18454 0.83176 0.35109 0.0
O98 O 0.19439 0.88062 0.40385 0.0
O99 O 0.19216 0.82938 0.42011 0.0
C100 C 0.22456 0.70423 0.3373 0.0
C101 C 0.19495 0.69748 0.32108 0.0
H102 H 0.13592 0.69352 0.29271 0.0
H103 H 0.09805 0.73377 0.30231 0.0
H104 H 0.28883 0.77858 0.40302 0.0
H105 H 0.27997 0.72712 0.36931 0.0
H106 H 0.24202 0.68751 0.33398 0.0
H107 H 0.19013 0.67575 0.30543 0.0
Mn108 Mn 0.85444 0.66711 0.3687 0.0
Mn109 Mn 0.86806 0.68267 0.2899 0.0
C110 C 0.83296 0.70914 0.34416 0.0
C111 C 0.82551 0.64253 0.41043 0.0
C112 C 0.91423 0.70607 0.34483 0.0
O113 O 0.86991 0.62463 0.35153 0.0
O114 O 0.87989 0.63934 0.30044 0.0
C115 C 0.81939 0.63222 0.26142 0.0
N116 N 0.83225 0.66385 0.2642 0.0
C117 C 0.79462 0.67962 0.2251 0.0
C118 C 0.78107 0.6472 0.22169 0.0
C119 C 0.79341 0.62344 0.24007 0.0
C120 C 0.82015 0.68701 0.24715 0.0
H121 H 0.82886 0.61383 0.27535 0.0
C122 C 0.87958 0.61903 0.32299 0.0
O123 O 0.85491 0.65364 0.41466 0.0
O124 O 0.81344 0.6436 0.38126 0.0
N125 N 0.85783 0.72352 0.275 0.0
C126 C 0.87417 0.75354 0.28039 0.0
C127 C 0.86511 0.77997 0.26351 0.0
C128 C 0.83985 0.77517 0.24071 0.0
C129 C 0.82403 0.7439 0.2348 0.0
C130 C 0.83405 0.7185 0.25243 0.0
H131 H 0.89396 0.75733 0.29747 0.0
O132 O 0.83655 0.70928 0.37551 0.0
O133 O 0.84151 0.68427 0.32791 0.0
O134 O 0.89858 0.69207 0.36723 0.0
O135 O 0.9052 0.70381 0.31493 0.0
C136 C 0.7989 0.73689 0.21189 0.0
C137 C 0.78393 0.70486 0.20736 0.0
H138 H 0.76119 0.64028 0.20505 0.0
H139 H 0.78304 0.59837 0.23764 0.0
H140 H 0.87765 0.80397 0.26798 0.0
H141 H 0.83289 0.79562 0.22777 0.0
H142 H 0.79073 0.75602 0.19781 0.0
H143 H 0.76435 0.69987 0.18998 0.0
Mn144 Mn 0.36457 0.85029 0.66696 0.0
Mn145 Mn 0.37771 0.83699 0.74612 0.0
C146 C 0.33539 0.80776 0.69208 0.0
C147 C 0.33722 0.8733 0.6251 0.0
C148 C 0.42212 0.82043 0.69364 0.0
O149 O 0.3866 0.89462 0.68512 0.0
O150 O 0.39055 0.88301 0.73804 0.0
C151 C 0.32928 0.87602 0.77079 0.0
N152 N 0.34251 0.84762 0.76978 0.0
C153 C 0.30199 0.82161 0.80191 0.0
C154 C 0.28749 0.85034 0.80258 0.0
C155 C 0.30134 0.87774 0.78724 0.0
C156 C 0.32931 0.82108 0.78437 0.0
H157 H 0.33945 0.89687 0.75829 0.0
C158 C 0.39346 0.9029 0.71509 0.0
O159 O 0.3648 0.86403 0.62095 0.0
O160 O 0.32643 0.87101 0.65407 0.0
N161 N 0.36567 0.79315 0.75748 0.0
C162 C 0.37936 0.76586 0.74969 0.0
C163 C 0.36857 0.73639 0.76351 0.0
C164 C 0.34401 0.73536 0.78534 0.0
C165 C 0.33029 0.76375 0.79289 0.0
C166 C 0.34214 0.79243 0.77856 0.0
H167 H 0.39851 0.76656 0.73325 0.0
O168 O 0.33836 0.80644 0.66083 0.0
O169 O 0.35061 0.8329 0.70709 0.0
O170 O 0.40556 0.82854 0.66963 0.0
O171 O 0.4145 0.82432 0.72314 0.0
C172 C 0.30471 0.76455 0.81331 0.0
C173 C 0.2896 0.79296 0.81645 0.0
H174 H 0.26521 0.85142 0.81384 0.0
H175 H 0.29017 0.89991 0.78756 0.0
H176 H 0.37922 0.71456 0.75742 0.0
H177 H 0.33556 0.71254 0.79577 0.0
H178 H 0.2955 0.74298 0.82544 0.0
H179 H 0.26805 0.79212 0.82939 0.0
Mn180 Mn 0.8697 0.86666 0.8701 0.0
Mn181 Mn 0.83793 0.7964 0.90058 0.0
C182 C 0.85036 0.82244 0.83546 0.0
C183 C 0.86952 0.91864 0.84932 0.0
C184 C 0.90775 0.81591 0.90009 0.0
O185 O 0.85808 0.8818 0.9158 0.0
O186 O 0.83915 0.83276 0.93319 0.0
C187 C 0.77315 0.81261 0.9097 0.0
N188 N 0.7932 0.79234 0.89748 0.0
C189 C 0.75139 0.74897 0.88799 0.0
C190 C 0.73014 0.76941 0.90019 0.0
C191 C 0.74101 0.80155 0.91063 0.0
C192 C 0.78274 0.762 0.88586 0.0
H193 H 0.78173 0.83675 0.9192 0.0
C194 C 0.84599 0.86347 0.93747 0.0
O195 O 0.8944 0.909 0.86259 0.0
O196 O 0.84395 0.89851 0.84926 0.0
N197 N 0.83452 0.75839 0.87242 0.0
C198 C 0.85791 0.74245 0.86008 0.0
C199 C 0.85098 0.71021 0.8479 0.0
C200 C 0.82044 0.69429 0.84993 0.0
C201 C 0.79683 0.71116 0.86304 0.0
C202 C 0.80477 0.74379 0.87306 0.0
H203 H 0.88179 0.75402 0.86027 0.0
O204 O 0.87238 0.8441 0.82662 0.0
O205 O 0.84066 0.82668 0.86471 0.0
O206 O 0.90593 0.84349 0.88812 0.0
O207 O 0.88365 0.79633 0.9054 0.0
C208 C 0.7658 0.69686 0.86692 0.0
C209 C 0.74296 0.71591 0.87885 0.0
H210 H 0.70553 0.76061 0.90197 0.0
H211 H 0.72482 0.81741 0.92031 0.0
H212 H 0.86937 0.6973 0.83801 0.0
H213 H 0.81542 0.66908 0.84151 0.0
H214 H 0.75905 0.67147 0.86005 0.0
H215 H 0.71901 0.70489 0.88087 0.0
Mn216 Mn 0.15539 0.67716 0.87696 0.0
Mn217 Mn 0.18938 0.74858 0.9099 0.0
C218 C 0.17412 0.71877 0.84382 0.0
C219 C 0.15492 0.62428 0.85483 0.0
C220 C 0.11933 0.731 0.90575 0.0
O221 O 0.16847 0.66432 0.92237 0.0
O222 O 0.18698 0.71441 0.94226 0.0
C223 C 0.25305 0.72957 0.92291 0.0
N224 N 0.23402 0.7501 0.9096 0.0
C225 C 0.2779 0.79002 0.90145 0.0
C226 C 0.29806 0.76931 0.91494 0.0
C227 C 0.28561 0.73872 0.92527 0.0
C228 C 0.24591 0.77879 0.89809 0.0
H229 H 0.24344 0.70664 0.93209 0.0
C230 C 0.18059 0.68381 0.94529 0.0
O231 O 0.13023 0.63442 0.86733 0.0
O232 O 0.18046 0.64446 0.8564 0.0
N233 N 0.19438 0.78452 0.88217 0.0
C234 C 0.17187 0.80091 0.86851 0.0
C235 C 0.18049 0.83154 0.85593 0.0
C236 C 0.2119 0.84556 0.85888 0.0
C237 C 0.23458 0.82834 0.87341 0.0
C238 C 0.22485 0.79722 0.88389 0.0
H239 H 0.14746 0.79094 0.8678 0.0
O240 O 0.15117 0.69712 0.83403 0.0
O241 O 0.18491 0.71617 0.87332 0.0
O242 O 0.12033 0.70206 0.89461 0.0
O243 O 0.14388 0.75087 0.91157 0.0
C244 C 0.26634 0.84105 0.87858 0.0
C245 C 0.2881 0.82169 0.89203 0.0
H246 H 0.32306 0.77672 0.91771 0.0
H247 H 0.30096 0.72264 0.93584 0.0
H248 H 0.16282 0.84476 0.84493 0.0
H249 H 0.2183 0.86962 0.85006 0.0
H250 H 0.27441 0.86549 0.87176 0.0
H251 H 0.31259 0.8314 0.89501 0.0
Mn252 Mn 0.86279 0.16713 0.67447 0.0
Mn253 Mn 0.90448 0.20214 0.74012 0.0
C254 C 0.83796 0.19117 0.71643 0.0
C255 C 0.83706 0.16756 0.62373 0.0
C256 C 0.88913 0.12918 0.7297 0.0
O257 O 0.90693 0.17638 0.65694 0.0
O258 O 0.9324 0.19876 0.70274 0.0
C259 C 0.9223 0.26799 0.7161 0.0
N260 N 0.9082 0.24852 0.73856 0.0
C261 C 0.89558 0.29493 0.77046 0.0
C262 C 0.91007 0.31545 0.74773 0.0
C263 C 0.92343 0.3019 0.7204 0.0
C264 C 0.89533 0.26132 0.76499 0.0
H265 H 0.93263 0.25779 0.69506 0.0
C266 C 0.93154 0.1901 0.67246 0.0
O267 O 0.84585 0.14105 0.63489 0.0
O268 O 0.84536 0.19426 0.64094 0.0
N269 N 0.87979 0.20771 0.77747 0.0
C270 C 0.86431 0.1846 0.79558 0.0
C271 C 0.84837 0.19418 0.82297 0.0
C272 C 0.84871 0.22735 0.8316 0.0
C273 C 0.86481 0.25067 0.81263 0.0
C274 C 0.88028 0.2397 0.78559 0.0
H275 H 0.86391 0.15905 0.78907 0.0
O276 O 0.82293 0.16794 0.69812 0.0
O277 O 0.86735 0.19878 0.71054 0.0
O278 O 0.87498 0.13003 0.70218 0.0
O279 O 0.90159 0.15473 0.74543 0.0
C280 C 0.86558 0.28439 0.81912 0.0
C281 C 0.88086 0.30652 0.79799 0.0
H282 H 0.91085 0.34162 0.75087 0.0
H283 H 0.93457 0.31757 0.70269 0.0
H284 H 0.83584 0.17603 0.83739 0.0
H285 H 0.83633 0.23467 0.85269 0.0
H286 H 0.85401 0.29357 0.83999 0.0
H287 H 0.88075 0.33239 0.8029 0.0
Mn288 Mn 0.17768 0.37391 0.67316 0.0
Mn289 Mn 0.13937 0.33775 0.73524 0.0
C290 C 0.20494 0.35742 0.71791 0.0
C291 C 0.20377 0.37356 0.62399 0.0
C292 C 0.14506 0.41032 0.72645 0.0
O293 O 0.13439 0.35769 0.65201 0.0
O294 O 0.11169 0.33476 0.69565 0.0
C295 C 0.13248 0.26981 0.70822 0.0
N296 N 0.14281 0.29206 0.7325 0.0
C297 C 0.16189 0.25066 0.76466 0.0
C298 C 0.15136 0.22732 0.74005 0.0
C299 C 0.13668 0.23697 0.71166 0.0
C300 C 0.15722 0.28307 0.75979 0.0
H301 H 0.12113 0.27703 0.68641 0.0
C302 C 0.11129 0.34198 0.66573 0.0
O303 O 0.19164 0.39901 0.63482 0.0
O304 O 0.1991 0.34763 0.64073 0.0
N305 N 0.16372 0.33818 0.77503 0.0
C306 C 0.17351 0.36381 0.79604 0.0
C307 C 0.18905 0.35832 0.82545 0.0
C308 C 0.19408 0.32653 0.83314 0.0
C309 C 0.18348 0.30051 0.81134 0.0
C310 C 0.16805 0.30745 0.78243 0.0
H311 H 0.16959 0.38829 0.79039 0.0
O312 O 0.2178 0.3803 0.70038 0.0
O313 O 0.17667 0.34536 0.70907 0.0
O314 O 0.16006 0.40984 0.70023 0.0
O315 O 0.13548 0.38464 0.74103 0.0
C316 C 0.18788 0.26798 0.81703 0.0
C317 C 0.17715 0.24309 0.79368 0.0
H318 H 0.15455 0.20196 0.74261 0.0
H319 H 0.12855 0.21911 0.6925 0.0
H320 H 0.19714 0.37854 0.84216 0.0
H321 H 0.20624 0.32241 0.85577 0.0
H322 H 0.19985 0.26189 0.83911 0.0
H323 H 0.18104 0.21823 0.79815 0.0
Mn324 Mn 0.65714 0.17783 0.37489 0.0
Mn325 Mn 0.69085 0.24921 0.40838 0.0
C326 C 0.67706 0.21931 0.34218 0.0
C327 C 0.65699 0.12475 0.35329 0.0
C328 C 0.62074 0.23184 0.40284 0.0
O329 O 0.66898 0.1651 0.4207 0.0
O330 O 0.68786 0.21506 0.44076 0.0
C331 C 0.75431 0.23033 0.42278 0.0
N332 N 0.73552 0.25072 0.40886 0.0
C333 C 0.77957 0.29061 0.40125 0.0
C334 C 0.79948 0.27004 0.41538 0.0
C335 C 0.78684 0.23953 0.42574 0.0
C336 C 0.74763 0.27933 0.39731 0.0
H337 H 0.74453 0.2075 0.43202 0.0
C338 C 0.68103 0.1845 0.44374 0.0
O339 O 0.63201 0.13512 0.36489 0.0
O340 O 0.68256 0.14487 0.35533 0.0
N341 N 0.69633 0.28501 0.3805 0.0
C342 C 0.67406 0.30127 0.3662 0.0
C343 C 0.68294 0.33172 0.35337 0.0
C344 C 0.71434 0.34574 0.35671 0.0
C345 C 0.73676 0.32866 0.3719 0.0
C346 C 0.72681 0.29766 0.38255 0.0
H347 H 0.64964 0.29131 0.36517 0.0
O348 O 0.6543 0.19774 0.33172 0.0
O349 O 0.68694 0.21667 0.37197 0.0
O350 O 0.6218 0.203 0.39144 0.0
O351 O 0.64529 0.25154 0.40931 0.0
C352 C 0.76842 0.34146 0.37767 0.0
C353 C 0.78993 0.32225 0.39183 0.0
H354 H 0.82444 0.27751 0.41863 0.0
H355 H 0.80201 0.22356 0.43681 0.0
H356 H 0.66546 0.34484 0.34187 0.0
H357 H 0.72092 0.36968 0.34772 0.0
H358 H 0.77661 0.36587 0.37087 0.0
H359 H 0.81435 0.33203 0.39531 0.0
Mn360 Mn 0.66245 0.66219 0.64812 0.0
Mn361 Mn 0.6532 0.6735 0.72854 0.0
C362 C 0.69067 0.70621 0.67716 0.0
C363 C 0.68822 0.64098 0.6039 0.0
C364 C 0.60401 0.68607 0.67769 0.0
O365 O 0.64358 0.61676 0.66222 0.0
O366 O 0.64457 0.62671 0.71669 0.0
C367 C 0.70709 0.64126 0.75223 0.0
N368 N 0.69102 0.6678 0.75204 0.0
C369 C 0.73053 0.69898 0.78649 0.0
C370 C 0.74772 0.6721 0.7868 0.0
C371 C 0.73585 0.64306 0.76977 0.0
C372 C 0.70217 0.69582 0.76844 0.0
H373 H 0.69829 0.61915 0.73857 0.0
C374 C 0.64017 0.60751 0.69146 0.0
O375 O 0.6599 0.64895 0.60084 0.0
O376 O 0.70093 0.64364 0.633 0.0
N377 N 0.66103 0.7182 0.74296 0.0
C378 C 0.64379 0.74315 0.73677 0.0
C379 C 0.6522 0.77372 0.75244 0.0
C380 C 0.6781 0.7783 0.77443 0.0
C381 C 0.69547 0.75229 0.78029 0.0
C382 C 0.68584 0.72229 0.76421 0.0
H383 H 0.62364 0.7398 0.7202 0.0
O384 O 0.68595 0.70727 0.64599 0.0
O385 O 0.67801 0.68011 0.68994 0.0
O386 O 0.62035 0.68153 0.65288 0.0
O387 O 0.61336 0.68102 0.70654 0.0
C388 C 0.72264 0.75527 0.80054 0.0
C389 C 0.74107 0.72928 0.80205 0.0
H390 H 0.77028 0.6736 0.79953 0.0
H391 H 0.74905 0.62227 0.76979 0.0
H392 H 0.63871 0.79369 0.74763 0.0
H393 H 0.68476 0.802 0.78624 0.0
H394 H 0.7304 0.77795 0.81382 0.0
H395 H 0.76375 0.73338 0.81437 0.0
Mn396 Mn 0.67449 0.37529 0.85622 0.0
Mn397 Mn 0.6742 0.29876 0.88277 0.0
C398 C 0.71105 0.34209 0.83821 0.0
C399 C 0.65837 0.41326 0.82004 0.0
C400 C 0.69951 0.35881 0.92367 0.0
O401 O 0.63012 0.36561 0.87331 0.0
O402 O 0.63283 0.31422 0.88847 0.0
C403 C 0.62867 0.26357 0.83463 0.0
N404 N 0.65759 0.26731 0.84979 0.0
C405 C 0.67131 0.21827 0.82345 0.0
C406 C 0.64165 0.21381 0.80759 0.0
C407 C 0.62032 0.23669 0.81305 0.0
C408 C 0.67844 0.24573 0.84436 0.0
H409 H 0.61206 0.28085 0.83912 0.0
C410 C 0.6179 0.3389 0.88455 0.0
O411 O 0.66851 0.42166 0.84948 0.0
O412 O 0.65678 0.38254 0.81171 0.0
N413 N 0.71281 0.28024 0.87829 0.0
C414 C 0.74124 0.28945 0.89353 0.0
C415 C 0.76574 0.26999 0.88937 0.0
C416 C 0.76051 0.24092 0.87026 0.0
C417 C 0.73096 0.23183 0.85508 0.0
C418 C 0.70765 0.25248 0.85961 0.0
H419 H 0.74516 0.31146 0.90873 0.0
O420 O 0.71681 0.37351 0.83734 0.0
O421 O 0.68434 0.331 0.84975 0.0
O422 O 0.69465 0.37964 0.90261 0.0
O423 O 0.69208 0.32834 0.91872 0.0
C424 C 0.72376 0.20317 0.83549 0.0
C425 C 0.69411 0.1966 0.81933 0.0
H426 H 0.63505 0.193 0.79109 0.0
H427 H 0.5974 0.23344 0.80087 0.0
H428 H 0.78849 0.27718 0.90114 0.0
H429 H 0.77935 0.22582 0.86731 0.0
H430 H 0.74111 0.18636 0.8321 0.0
H431 H 0.68915 0.17491 0.80365 0.0
Mn432 Mn 0.35323 0.16928 0.86597 0.0
Mn433 Mn 0.36417 0.19016 0.78804 0.0
C434 C 0.33006 0.21228 0.84489 0.0
C435 C 0.32564 0.142 0.9071 0.0
C436 C 0.41182 0.2105 0.84262 0.0
O437 O 0.3695 0.12826 0.84555 0.0
O438 O 0.37599 0.14625 0.79513 0.0
C439 C 0.31481 0.14158 0.75773 0.0
N440 N 0.32779 0.17304 0.76233 0.0
C441 C 0.29032 0.19127 0.72458 0.0
C442 C 0.27659 0.15907 0.71935 0.0
C443 C 0.28877 0.13414 0.73617 0.0
C444 C 0.31576 0.19729 0.74692 0.0
H445 H 0.3243 0.12229 0.77032 0.0
C446 C 0.3774 0.1244 0.81599 0.0
O447 O 0.35503 0.15326 0.91098 0.0
O448 O 0.31294 0.14416 0.87836 0.0
N449 N 0.35368 0.23203 0.77651 0.0
C450 C 0.37019 0.2617 0.78354 0.0
C451 C 0.36128 0.2892 0.7684 0.0
C452 C 0.33607 0.28583 0.7455 0.0
C453 C 0.32009 0.25494 0.73787 0.0
C454 C 0.32981 0.22846 0.754 0.0
H455 H 0.39005 0.2644 0.80055 0.0
O456 O 0.33447 0.21059 0.87599 0.0
O457 O 0.3388 0.18871 0.82693 0.0
O458 O 0.3968 0.19533 0.86472 0.0
O459 O 0.40203 0.20968 0.813 0.0
C460 C 0.29519 0.24932 0.71454 0.0
C461 C 0.28 0.21759 0.70825 0.0
H462 H 0.25675 0.15319 0.70243 0.0
H463 H 0.27829 0.10923 0.73229 0.0
H464 H 0.37397 0.31291 0.77417 0.0
H465 H 0.32932 0.30708 0.73379 0.0
H466 H 0.28732 0.26929 0.70151 0.0
H467 H 0.26055 0.21367 0.69062 0.0
Mn468 Mn 0.36996 0.36645 0.37095 0.0
Mn469 Mn 0.33885 0.29559 0.40073 0.0
C470 C 0.35127 0.32234 0.33586 0.0
C471 C 0.36937 0.41856 0.35054 0.0
C472 C 0.40855 0.31589 0.40046 0.0
O473 O 0.35791 0.38104 0.41669 0.0
O474 O 0.3396 0.33164 0.43367 0.0
C475 C 0.2738 0.31102 0.40982 0.0
N476 N 0.29411 0.29107 0.39753 0.0
C477 C 0.25269 0.24737 0.3876 0.0
C478 C 0.23119 0.26748 0.39988 0.0
C479 C 0.24173 0.29962 0.41057 0.0
C480 C 0.28397 0.26074 0.38567 0.0
H481 H 0.28213 0.33516 0.4195 0.0
C482 C 0.34599 0.36238 0.4382 0.0
O483 O 0.39429 0.4091 0.3639 0.0
O484 O 0.34396 0.39818 0.35021 0.0
N485 N 0.33587 0.25781 0.37229 0.0
C486 C 0.35948 0.24222 0.35991 0.0
C487 C 0.35289 0.21001 0.34753 0.0
C488 C 0.32246 0.19375 0.3494 0.0
C489 C 0.29863 0.21026 0.36256 0.0
C490 C 0.30623 0.24287 0.3728 0.0
H491 H 0.38326 0.25403 0.36022 0.0
O492 O 0.37311 0.34435 0.32734 0.0
O493 O 0.34133 0.32618 0.36508 0.0
O494 O 0.40644 0.34358 0.38887 0.0
O495 O 0.38463 0.29598 0.40556 0.0
C496 C 0.26768 0.19561 0.36624 0.0
C497 C 0.24459 0.21432 0.3782 0.0
H498 H 0.20663 0.25841 0.40151 0.0
H499 H 0.22534 0.31522 0.42031 0.0
H500 H 0.37145 0.19739 0.3376 0.0
H501 H 0.31771 0.16858 0.34081 0.0
H502 H 0.26119 0.17023 0.35918 0.0
H503 H 0.22071 0.20305 0.38006 0.0
Mn504 Mn 0.36293 0.66751 0.17603 0.0
Mn505 Mn 0.40433 0.70245 0.2419 0.0
C506 C 0.33793 0.69164 0.21783 0.0
C507 C 0.33741 0.66788 0.12514 0.0
C508 C 0.38885 0.6295 0.23148 0.0
O509 O 0.40719 0.67669 0.15874 0.0
O510 O 0.43244 0.69891 0.20472 0.0
C511 C 0.42251 0.76822 0.21786 0.0
N512 N 0.40824 0.74882 0.24028 0.0
C513 C 0.39575 0.79535 0.27209 0.0
C514 C 0.41042 0.81579 0.2494 0.0
C515 C 0.42379 0.80215 0.22214 0.0
C516 C 0.39534 0.76171 0.26665 0.0
H517 H 0.43286 0.75795 0.19687 0.0
C518 C 0.43175 0.69028 0.17444 0.0
O519 O 0.34614 0.64139 0.13641 0.0
O520 O 0.34566 0.6946 0.14233 0.0
N521 N 0.37948 0.70816 0.2791 0.0
C522 C 0.36386 0.68513 0.29719 0.0
C523 C 0.34792 0.69481 0.32454 0.0
C524 C 0.34842 0.72801 0.33316 0.0
C525 C 0.36466 0.75125 0.3142 0.0
C526 C 0.38012 0.74017 0.28721 0.0
H527 H 0.36336 0.65957 0.29069 0.0
O528 O 0.32295 0.66842 0.19947 0.0
O529 O 0.36736 0.69918 0.21209 0.0
O530 O 0.37491 0.63038 0.20385 0.0
O531 O 0.40124 0.65504 0.24728 0.0
C532 C 0.36559 0.78499 0.32068 0.0
C533 C 0.38102 0.80703 0.29958 0.0
H534 H 0.41132 0.84197 0.25253 0.0
H535 H 0.43507 0.81776 0.20446 0.0
H536 H 0.33529 0.67673 0.33895 0.0
H537 H 0.33609 0.73541 0.35424 0.0
H538 H 0.35403 0.79424 0.34152 0.0
H539 H 0.38104 0.83292 0.30448 0.0
Mn540 Mn 0.68024 0.87286 0.17365 0.0
Mn541 Mn 0.64404 0.83637 0.23671 0.0
C542 C 0.70893 0.85625 0.21734 0.0
C543 C 0.705 0.87287 0.12376 0.0
C544 C 0.64899 0.90898 0.22817 0.0
O545 O 0.63646 0.85651 0.15376 0.0
O546 O 0.61516 0.83337 0.198 0.0
C547 C 0.63675 0.76853 0.20942 0.0
N548 N 0.64773 0.79075 0.23349 0.0
C549 C 0.66822 0.74939 0.26462 0.0
C550 C 0.65704 0.72608 0.24021 0.0
C551 C 0.64133 0.73573 0.21243 0.0
C552 C 0.66317 0.78177 0.26016 0.0
H553 H 0.6246 0.77575 0.18808 0.0
C554 C 0.61386 0.84067 0.16812 0.0
O555 O 0.69296 0.89818 0.13509 0.0
O556 O 0.70087 0.84683 0.14041 0.0
N557 N 0.66964 0.83682 0.27567 0.0
C558 C 0.67976 0.86239 0.29663 0.0
C559 C 0.69624 0.85688 0.32549 0.0
C560 C 0.70183 0.82513 0.3327 0.0
C561 C 0.69086 0.79915 0.31099 0.0
C562 C 0.67453 0.80611 0.28263 0.0
H563 H 0.67539 0.88684 0.29136 0.0
O564 O 0.7211 0.87932 0.19962 0.0
O565 O 0.68046 0.84418 0.20936 0.0
O566 O 0.66321 0.90857 0.20148 0.0
O567 O 0.64002 0.88325 0.24298 0.0
C568 C 0.69567 0.76666 0.31627 0.0
C569 C 0.68441 0.7418 0.29308 0.0
H570 H 0.66049 0.70075 0.24246 0.0
H571 H 0.6327 0.7179 0.19343 0.0
H572 H 0.7046 0.87706 0.34214 0.0
H573 H 0.71468 0.82099 0.35491 0.0
H574 H 0.70833 0.76055 0.33792 0.0
H575 H 0.68857 0.71696 0.29724 0.0
H576 H 0.20265 0.27214 0.18683 0.0
H577 H 0.24541 0.18433 0.20126 0.0
H578 H 0.24519 0.3032 0.2198 0.0
H579 H 0.28722 0.21446 0.2347 0.0
H580 H 0.36487 0.2752 0.2916 0.0
H581 H 0.33117 0.25103 0.24581 0.0
H582 H 0.25943 0.31111 0.27399 0.0
H583 H 0.29238 0.33332 0.32026 0.0
C584 C 0.22136 0.25962 0.19687 0.0
C585 C 0.22034 0.2258 0.19256 0.0
C586 C 0.24569 0.27727 0.21594 0.0
C587 C 0.26957 0.26139 0.23079 0.0
C588 C 0.26964 0.22787 0.22381 0.0
C589 C 0.24534 0.21036 0.20499 0.0
C590 C 0.34152 0.28241 0.28823 0.0
C591 C 0.33059 0.305 0.31009 0.0
C592 C 0.32223 0.26884 0.26189 0.0
C593 C 0.29201 0.27846 0.25625 0.0
C594 C 0.2822 0.30262 0.27735 0.0
C595 C 0.30087 0.31505 0.30432 0.0
H596 H 0.82452 0.24368 0.20109 0.0
H597 H 0.79262 0.33799 0.21571 0.0
H598 H 0.78054 0.21947 0.23214 0.0
H599 H 0.74954 0.31465 0.24719 0.0
H600 H 0.73393 0.20179 0.33045 0.0
H601 H 0.76776 0.2175 0.28626 0.0
H602 H 0.70229 0.28286 0.25427 0.0
H603 H 0.66737 0.26503 0.29774 0.0
C604 C 0.80787 0.25907 0.21071 0.0
C605 C 0.81232 0.29271 0.207 0.0
C606 C 0.78276 0.24538 0.22865 0.0
C607 C 0.76158 0.26513 0.24287 0.0
C608 C 0.76495 0.29844 0.23663 0.0
C609 C 0.78998 0.312 0.21895 0.0
C610 C 0.72706 0.21988 0.31418 0.0
C611 C 0.69873 0.2332 0.31811 0.0
C612 C 0.74624 0.22863 0.28849 0.0
C613 C 0.73843 0.25223 0.26697 0.0
C614 C 0.70964 0.26527 0.27079 0.0
C615 C 0.68972 0.25538 0.2958 0.0
H616 H 0.28786 0.6759 0.25532 0.0
H617 H 0.34608 0.75744 0.21923 0.0
H618 H 0.25672 0.71353 0.28348 0.0
H619 H 0.31661 0.79504 0.24963 0.0
H620 H 0.27515 0.84589 0.34003 0.0
H621 H 0.30646 0.8095 0.30987 0.0
H622 H 0.22143 0.75658 0.26778 0.0
H623 H 0.19045 0.79371 0.29676 0.0
C624 C 0.29441 0.70185 0.25419 0.0
C625 C 0.32025 0.71389 0.23657 0.0
C626 C 0.27675 0.72335 0.27041 0.0
C627 C 0.2849 0.75713 0.26967 0.0
C628 C 0.31035 0.76911 0.25137 0.0
C629 C 0.32739 0.74763 0.23433 0.0
C630 C 0.26335 0.82646 0.32427 0.0
C631 C 0.2305 0.82159 0.32161 0.0
C632 C 0.28115 0.80567 0.30712 0.0
C633 C 0.26629 0.77981 0.28711 0.0
C634 C 0.23344 0.77583 0.28362 0.0
C635 C 0.21575 0.79689 0.30031 0.0
H636 H 0.84407 0.77528 0.34677 0.0
H637 H 0.77903 0.69477 0.3093 0.0
H638 H 0.81542 0.81283 0.31672 0.0
H639 H 0.74846 0.73165 0.28186 0.0
H640 H 0.71632 0.79378 0.2064 0.0
H641 H 0.74597 0.75984 0.23834 0.0
H642 H 0.77613 0.84215 0.3046 0.0
H643 H 0.74748 0.87659 0.27037 0.0
C644 C 0.82316 0.76587 0.3325 0.0
C645 C 0.81426 0.73232 0.32905 0.0
C646 C 0.80643 0.78735 0.31547 0.0
C647 C 0.77973 0.77561 0.2958 0.0
C648 C 0.76953 0.74197 0.2952 0.0
C649 C 0.78685 0.7206 0.31123 0.0
C650 C 0.72962 0.80458 0.22767 0.0
C651 C 0.72919 0.83743 0.23651 0.0
C652 C 0.74656 0.78502 0.2464 0.0
C653 C 0.76331 0.79765 0.2749 0.0
C654 C 0.76392 0.83123 0.28285 0.0
C655 C 0.74736 0.85108 0.26345 0.0
H656 H 0.28802 0.8369 0.71628 0.0
H657 H 0.31865 0.74231 0.69951 0.0
H658 H 0.24477 0.81349 0.74732 0.0
H659 H 0.27433 0.71794 0.72992 0.0
H660 H 0.16443 0.76595 0.80095 0.0
H661 H 0.19792 0.78324 0.75624 0.0
H662 H 0.26158 0.71405 0.78327 0.0
H663 H 0.2291 0.69867 0.82851 0.0
C664 C 0.28501 0.81081 0.71888 0.0
C665 C 0.30712 0.79147 0.70655 0.0
C666 C 0.25984 0.79719 0.73633 0.0
C667 C 0.25607 0.76373 0.74195 0.0
C668 C 0.27689 0.74395 0.72708 0.0
C669 C 0.30219 0.75773 0.70944 0.0
C670 C 0.18612 0.75531 0.79764 0.0
C671 C 0.1951 0.73221 0.81893 0.0
C672 C 0.20523 0.76489 0.77188 0.0
C673 C 0.23317 0.75072 0.76632 0.0
C674 C 0.24071 0.72603 0.78669 0.0
C675 C 0.22237 0.71751 0.81308 0.0
H676 H 0.69996 0.77258 0.68831 0.0
H677 H 0.74267 0.68462 0.70208 0.0
H678 H 0.74287 0.80351 0.72087 0.0
H679 H 0.78486 0.71463 0.7351 0.0
H680 H 0.86334 0.77532 0.79089 0.0
H681 H 0.82902 0.75119 0.74554 0.0
H682 H 0.75771 0.81128 0.77496 0.0
H683 H 0.79125 0.83341 0.82083 0.0
C684 C 0.71872 0.76001 0.69813 0.0
C685 C 0.7176 0.72619 0.69376 0.0
C686 C 0.74327 0.77758 0.71695 0.0
C687 C 0.76727 0.76162 0.73148 0.0
C688 C 0.7672 0.72809 0.72444 0.0
C689 C 0.74268 0.71066 0.70587 0.0
C690 C 0.83995 0.78254 0.78789 0.0
C691 C 0.82933 0.80511 0.80997 0.0
C692 C 0.82031 0.76899 0.76181 0.0
C693 C 0.79003 0.77862 0.75667 0.0
C694 C 0.7805 0.80274 0.77799 0.0
C695 C 0.79953 0.81515 0.80471 0.0
H696 H 0.77492 0.34521 0.8387 0.0
H697 H 0.69033 0.29287 0.79537 0.0
H698 H 0.80633 0.3089 0.80859 0.0
H699 H 0.72142 0.25579 0.76644 0.0
H700 H 0.78817 0.17531 0.75424 0.0
H701 H 0.75699 0.21285 0.78246 0.0
H702 H 0.81637 0.29449 0.74814 0.0
H703 H 0.84589 0.25696 0.71771 0.0
C704 C 0.76316 0.32576 0.82294 0.0
C705 C 0.73031 0.32082 0.82025 0.0
C706 C 0.78102 0.30501 0.80581 0.0
C707 C 0.76623 0.27913 0.78581 0.0
C708 C 0.73337 0.27507 0.78228 0.0
C709 C 0.71563 0.2961 0.79895 0.0
C710 C 0.79461 0.20127 0.75302 0.0
C711 C 0.82031 0.21337 0.73525 0.0
C712 C 0.77692 0.22272 0.76927 0.0
C713 C 0.7849 0.25651 0.76839 0.0
C714 C 0.81024 0.26855 0.74997 0.0
C715 C 0.82731 0.24712 0.73291 0.0
H716 H 0.24269 0.37876 0.77132 0.0
H717 H 0.21131 0.2945 0.70935 0.0
H718 H 0.2704 0.34493 0.80714 0.0
H719 H 0.23948 0.26103 0.74314 0.0
H720 H 0.27488 0.19735 0.81263 0.0
H721 H 0.24268 0.23383 0.78691 0.0
H722 H 0.30938 0.31577 0.82038 0.0
H723 H 0.33949 0.27859 0.84923 0.0
C724 C 0.24226 0.35303 0.76523 0.0
C725 C 0.2244 0.33887 0.73829 0.0
C726 C 0.25822 0.33351 0.7856 0.0
C727 C 0.25723 0.29971 0.77869 0.0
C728 C 0.24049 0.28645 0.75041 0.0
C729 C 0.22437 0.30573 0.73059 0.0
C730 C 0.28221 0.22328 0.81477 0.0
C731 C 0.31 0.23532 0.83177 0.0
C732 C 0.26399 0.24442 0.79964 0.0
C733 C 0.2738 0.27812 0.8 0.0
C734 C 0.30071 0.29021 0.81922 0.0
C735 C 0.31829 0.26894 0.83556 0.0
H736 H 0.1476 0.97625 0.33452 0.0
H737 H 0.15257 0.90741 0.25398 0.0
H738 H 0.13813 0.01812 0.29678 0.0
H739 H 0.14329 0.9498 0.21584 0.0
H740 H 0.17311 0.05544 0.17052 0.0
H741 H 0.17287 1.00432 0.19895 0.0
H742 H 0.09687 0.03108 0.25683 0.0
H743 H 0.09735 0.08181 0.22875 0.0
C744 C 0.14642 0.96996 0.30872 0.0
C745 C 0.15076 0.93842 0.29733 0.0
C746 C 0.14081 0.99396 0.28702 0.0
C747 C 0.13972 0.9873 0.25322 0.0
C748 C 0.14399 0.95572 0.2417 0.0
C749 C 0.14913 0.93143 0.26355 0.0
C750 C 0.15541 0.04958 0.18821 0.0
C751 C 0.13514 0.07252 0.1973 0.0
C752 C 0.15544 0.02045 0.20474 0.0
C753 C 0.13529 1.01397 0.23068 0.0
C754 C 0.11309 0.03559 0.23745 0.0
C755 C 0.11308 0.06448 0.22105 0.0
H756 H 0.94375 0.43676 0.24916 0.0
H757 H 0.85919 0.45178 0.19529 0.0
H758 H 0.94256 0.48903 0.27895 0.0
H759 H 0.85741 0.50354 0.22585 0.0
H760 H 0.84202 0.56168 0.32276 0.0
H761 H 0.84963 0.51162 0.29148 0.0
H762 H 0.94195 0.5538 0.26677 0.0
H763 H 0.93387 0.6042 0.29712 0.0
C764 C 0.92562 0.45187 0.24284 0.0
C765 C 0.90195 0.44057 0.21942 0.0
C766 C 0.92472 0.48153 0.26016 0.0
C767 C 0.8996 0.49997 0.25507 0.0
C768 C 0.87686 0.48957 0.23044 0.0
C769 C 0.87821 0.46031 0.21252 0.0
C770 C 0.86431 0.55978 0.31156 0.0
C771 C 0.88763 0.58647 0.3129 0.0
C772 C 0.86846 0.53144 0.29321 0.0
C773 C 0.89624 0.52908 0.27639 0.0
C774 C 0.92033 0.55502 0.27943 0.0
C775 C 0.91585 0.58365 0.29708 0.0
H776 H 0.26379 0.11609 0.907 0.0
H777 H 0.34364 0.14718 0.97141 0.0
H778 H 0.23051 0.10872 0.95372 0.0
H779 H 0.31039 0.14139 1.01791 0.0
H780 H 0.24816 0.11733 0.1007 0.0
H781 H 0.28013 0.11016 0.05356 0.0
H782 H 0.20667 0.14044 0.99146 0.0
H783 H 0.17438 0.14602 0.03832 0.0
C784 C 0.27434 0.12098 0.93116 0.0
C785 C 0.30642 0.1323 0.93536 0.0
C786 C 0.25516 0.11712 0.95805 0.0
C787 C 0.26743 0.12487 0.98991 0.0
C788 C 0.29989 0.13474 0.99403 0.0
C789 C 0.31909 0.13821 0.96719 0.0
C790 C 0.23866 0.12189 0.07687 0.0
C791 C 0.20871 0.13233 0.07337 0.0
C792 C 0.25714 0.11807 0.04976 0.0
C793 C 0.24636 0.12503 1.01839 0.0
C794 C 0.21585 0.13434 1.01491 0.0
C795 C 0.19727 0.13775 0.04195 0.0
H796 H 0.77705 0.3806 0.12294 0.0
H797 H 0.85503 0.38059 0.05908 0.0
H798 H 0.74151 0.38456 0.0762 0.0
H799 H 0.81939 0.38471 1.01232 0.0
H800 H 0.74702 0.40855 0.93512 0.0
H801 H 0.78076 0.41903 0.98455 0.0
H802 H 0.72449 0.34252 0.03133 0.0
H803 H 0.6913 0.33189 0.98221 0.0
C804 C 0.78675 0.38213 0.09902 0.0
C805 C 0.81887 0.38 0.09474 0.0
C806 C 0.76633 0.38427 0.07223 0.0
C807 C 0.77759 0.38471 0.04054 0.0
C808 C 0.81002 0.38465 0.03643 0.0
C809 C 0.83042 0.38214 0.06322 0.0
C810 C 0.74149 0.39457 0.95627 0.0
C811 C 0.71651 0.36942 0.95482 0.0
C812 C 0.76094 0.40036 0.98443 0.0
C813 C 0.75531 0.38157 1.01183 0.0
C814 C 0.7293 0.35765 1.01081 0.0
C815 C 0.71033 0.35147 0.98261 0.0
H816 H 0.35378 0.88219 0.56202 0.0
H817 H 0.27509 0.88237 0.62492 0.0
H818 H 0.31865 0.88632 0.51484 0.0
H819 H 0.24007 0.88634 0.57778 0.0
H820 H 0.19067 0.83332 0.48363 0.0
H821 H 0.22345 0.84417 0.533 0.0
H822 H 0.28024 0.92034 0.48628 0.0
H823 H 0.24688 0.90964 0.43659 0.0
C824 C 0.32913 0.88382 0.56587 0.0
C825 C 0.31724 0.88169 0.59725 0.0
C826 C 0.30901 0.88632 0.53883 0.0
C827 C 0.27652 0.88638 0.54254 0.0
C828 C 0.26494 0.88603 0.57409 0.0
C829 C 0.28507 0.88391 0.60113 0.0
C830 C 0.20972 0.85288 0.48408 0.0
C831 C 0.21614 0.87067 0.45624 0.0
C832 C 0.22847 0.85918 0.51244 0.0
C833 C 0.25451 0.88309 0.51358 0.0
C834 C 0.26039 0.9017 0.48609 0.0
C835 C 0.24116 0.89578 0.45778 0.0
H836 H 0.74567 0.61791 0.6028 0.0
H837 H 0.67235 0.64658 0.53978 0.0
H838 H 0.77815 0.6111 0.55601 0.0
H839 H 0.70517 0.6413 0.49324 0.0
H840 H 0.7636 0.61678 0.40957 0.0
H841 H 0.72967 0.60953 0.45582 0.0
H842 H 0.80854 0.64321 0.52097 0.0
H843 H 0.84244 0.64896 0.47497 0.0
C844 C 0.73638 0.62253 0.5789 0.0
C845 C 0.70642 0.63289 0.5751 0.0
C846 C 0.75515 0.61892 0.552 0.0
C847 C 0.74465 0.626 0.52059 0.0
C848 C 0.71412 0.63515 0.51677 0.0
C849 C 0.69524 0.63837 0.54361 0.0
C850 C 0.77378 0.62198 0.43384 0.0
C851 C 0.80576 0.63352 0.43849 0.0
C852 C 0.75423 0.61816 0.46044 0.0
C853 C 0.76606 0.62612 0.49241 0.0
C854 C 0.79841 0.63635 0.49698 0.0
C855 C 0.81796 0.63983 0.47044 0.0
H856 H 0.94439 0.29475 0.13361 0.0
H857 H 0.97256 0.31139 0.235 0.0
H858 H 0.98644 0.25982 0.12651 0.0
H859 H 1.01434 0.27717 0.22778 0.0
H860 H 0.05953 0.18581 0.21883 0.0
H861 H 0.01656 0.21927 0.21929 0.0
H862 H 0.04461 0.25749 0.12734 0.0
H863 H 0.08782 0.22333 0.12663 0.0
C864 C 0.95979 0.29147 0.15425 0.0
C865 C 0.95477 0.30578 0.18497 0.0
C866 C 0.98388 0.27138 0.15016 0.0
C867 C 1.00341 0.26508 0.17672 0.0
C868 C 0.99925 0.28068 0.20696 0.0
C869 C 0.97535 0.30063 0.21103 0.0
C870 C 0.05637 0.20093 0.19838 0.0
C871 C 0.07739 0.20198 0.17281 0.0
C872 C 0.03182 0.22041 0.19881 0.0
C873 C 0.02751 0.24175 0.17375 0.0
C874 C 0.04728 0.24142 0.14709 0.0
C875 C 0.07199 0.22173 0.14662 0.0
H876 H 0.95742 0.73545 0.30466 0.0
H877 H 0.93518 0.72897 0.40595 0.0
H878 H 1.00211 0.77524 0.31933 0.0
H879 H 0.97948 0.76961 0.42054 0.0
H880 H 0.08741 0.8031 0.43047 0.0
H881 H 0.0352 0.77404 0.42299 0.0
H882 H 0.01842 0.83008 0.3392 0.0
H883 H 0.07146 0.85854 0.34629 0.0
C884 C 0.96201 0.74251 0.33009 0.0
C885 C 0.9428 0.72864 0.35413 0.0
C886 C 0.98743 0.76579 0.33848 0.0
C887 C 0.99427 0.77605 0.37112 0.0
C888 C 0.97506 0.76219 0.39518 0.0
C889 C 0.94971 0.73872 0.38681 0.0
C890 C 0.0721 0.81014 0.41122 0.0
C891 C 0.08361 0.83288 0.38879 0.0
C892 C 0.0421 0.79337 0.40684 0.0
C893 C 0.02283 0.79905 0.37995 0.0
C894 C 0.03301 0.82449 0.35967 0.0
C895 C 0.06316 0.84132 0.36409 0.0
H896 H 0.58504 0.72406 0.62886 0.0
H897 H 0.55608 0.68362 0.7196 0.0
H898 H 0.54126 0.75744 0.62991 0.0
H899 H 0.51247 0.71623 0.72035 0.0
H900 H 0.46706 0.8072 0.73795 0.0
H901 H 0.5092 0.77354 0.73041 0.0
H902 H 0.48324 0.75931 0.62839 0.0
H903 H 0.44086 0.79376 0.63583 0.0
C904 C 0.56893 0.72164 0.64857 0.0
C905 C 0.5743 0.70134 0.67429 0.0
C906 C 0.54389 0.74087 0.64923 0.0
C907 C 0.52373 0.74014 0.67562 0.0
C908 C 0.52802 0.71821 0.70013 0.0
C909 C 0.55294 0.69922 0.69954 0.0
C910 C 0.47033 0.79722 0.71377 0.0
C911 C 0.45024 0.80313 0.68757 0.0
C912 C 0.49445 0.77759 0.7095 0.0
C913 C 0.49928 0.76304 0.67892 0.0
C914 C 0.48017 0.77005 0.65229 0.0
C915 C 0.45589 0.78985 0.65657 0.0
H916 H 0.86047 0.0691 0.70776 0.0
H917 H 0.91514 0.1175 0.78906 0.0
H918 H 0.85508 0.01871 0.73695 0.0
H919 H 0.90917 0.06752 0.8183 0.0
H920 H 0.92005 0.96456 0.84821 0.0
H921 H 0.92552 1.0142 0.81845 0.0
H922 H 0.82903 0.99433 0.78347 0.0
H923 H 0.82375 0.94386 0.81295 0.0
C924 C 0.87157 0.06901 0.73171 0.0
C925 C 0.88841 0.09751 0.74587 0.0
C926 C 0.86815 0.04015 0.74862 0.0
C927 C 0.88153 0.03898 0.78011 0.0
C928 C 0.89882 0.06731 0.79398 0.0
C929 C 0.90223 0.0961 0.77713 0.0
C930 C 0.89985 0.97079 0.83438 0.0
C931 C 0.8714 0.95019 0.83307 0.0
C932 C 0.90299 0.99943 0.81734 0.0
C933 C 0.87775 1.00841 0.79846 0.0
C934 C 0.8491 0.988 0.79741 0.0
C935 C 0.84595 0.95923 0.81457 0.0
H936 H 0.10459 0.57769 0.84858 0.0
H937 H 0.20086 0.59847 0.82091 0.0
H938 H 0.09987 0.5268 0.81617 0.0
H939 H 0.1963 0.54717 0.78885 0.0
H940 H 0.1681 0.47106 0.70775 0.0
H941 H 0.16981 0.52243 0.73899 0.0
H942 H 0.11837 0.47348 0.81477 0.0
H943 H 0.11612 0.42222 0.78342 0.0
C944 C 0.12488 0.57123 0.83585 0.0
C945 C 0.15312 0.59214 0.83735 0.0
C946 C 0.12217 0.54199 0.8173 0.0
C947 C 0.14762 0.53296 0.79971 0.0
C948 C 0.17606 0.55365 0.80165 0.0
C949 C 0.17879 0.58289 0.8203 0.0
C950 C 0.15668 0.47126 0.73082 0.0
C951 C 0.14202 0.44232 0.743 0.0
C952 C 0.15799 0.50071 0.74891 0.0
C953 C 0.1446 0.50203 0.77959 0.0
C954 C 0.12881 0.4734 0.79117 0.0
C955 C 0.12754 0.44394 0.77313 0.0
H956 H 0.72284 0.92603 0.08823 0.0
H957 H 0.73446 0.82432 0.09561 0.0
H958 H 0.76141 0.93055 0.04571 0.0
H959 H 0.77234 0.82861 0.05279 0.0
H960 H 0.85853 0.84615 0.99856 0.0
H961 H 0.8252 0.85196 0.04477 0.0
H962 H 0.77067 0.91387 0.98973 0.0
H963 H 0.80493 0.90871 0.94381 0.0
C964 C 0.7333 0.90452 0.08049 0.0
C965 C 0.72557 0.8748 0.09539 0.0
C966 C 0.75547 0.90715 0.05612 0.0
C967 C 0.77048 0.88013 0.04614 0.0
C968 C 0.76195 0.8502 0.06043 0.0
C969 C 0.73987 0.84759 0.08474 0.0
C970 C 0.84032 0.86222 0.99694 0.0
C971 C 0.83454 0.87729 0.96779 0.0
C972 C 0.82077 0.86502 0.02316 0.0
C973 C 0.79461 0.88257 1.02068 0.0
C974 C 0.79055 0.90012 0.99253 0.0
C975 C 0.81041 0.89753 0.96631 0.0
H976 H 0.21487 0.63249 0.9498 0.0
H977 H 0.17936 0.70897 1.00683 0.0
H978 H 0.25325 0.62593 0.9935 0.0
H979 H 0.21687 0.70191 0.05083 0.0
H980 H 0.30909 0.61438 0.0901 0.0
H981 H 0.26654 0.61256 0.04902 0.0
H982 H 0.27269 0.71746 0.05521 0.0
H983 H 0.31455 0.71921 0.09666 0.0
C984 C 0.21421 0.64674 0.97233 0.0
C985 C 0.19413 0.67121 0.97496 0.0
C986 C 0.23646 0.64326 0.99726 0.0
C987 C 0.2388 0.6641 0.02529 0.0
C988 C 0.21643 0.68619 0.02915 0.0
C989 C 0.1945 0.68983 1.00421 0.0
C990 C 0.3016 0.63708 0.08237 0.0
C991 C 0.31516 0.66697 0.09676 0.0
C992 C 0.27714 0.636 0.05887 0.0
C993 C 0.26568 0.66479 0.04927 0.0
C994 C 0.28024 0.69472 0.0627 0.0
C995 C 0.30459 0.69578 0.08619 0.0
H996 H 0.67951 0.20966 0.50525 0.0
H997 H 0.71455 0.13267 0.44853 0.0
H998 H 0.71668 0.20225 0.54946 0.0
H999 H 0.7526 0.12577 0.49242 0.0
H1000 H 0.80835 0.11411 0.58892 0.0
H1001 H 0.76573 0.11246 0.54794 0.0
H1002 H 0.77254 0.2174 0.55387 0.0
H1003 H 0.81445 0.21898 0.59523 0.0
C1004 C 0.69445 0.19033 0.50276 0.0
C1005 C 0.69409 0.17168 0.47352 0.0
C1006 C 0.71618 0.18648 0.52781 0.0
C1007 C 0.73836 0.16416 0.52408 0.0
C1008 C 0.73596 0.14328 0.49608 0.0
C1009 C 0.7139 0.14695 0.47104 0.0
C1010 C 0.80098 0.13685 0.58116 0.0
C1011 C 0.81474 0.1667 0.59544 0.0
C1012 C 0.77648 0.13587 0.55772 0.0
C1013 C 0.76519 0.16473 0.54807 0.0
C1014 C 0.77995 0.19461 0.5614 0.0
C1015 C 0.80432 0.19558 0.58483 0.0
H1016 H 0.22291 0.42645 0.58858 0.0
H1017 H 0.23281 0.32441 0.59633 0.0
H1018 H 0.26169 0.43019 0.54626 0.0
H1019 H 0.27086 0.32789 0.55364 0.0
H1020 H 0.35723 0.34374 0.49913 0.0
H1021 H 0.3238 0.34984 0.54521 0.0
H1022 H 0.27106 0.41364 0.49056 0.0
H1023 H 0.30546 0.40822 0.4448 0.0
C1024 C 0.23306 0.4047 0.58098 0.0
C1025 C 0.22476 0.37511 0.59591 0.0
C1026 C 0.25534 0.40687 0.55669 0.0
C1027 C 0.2699 0.37951 0.5468 0.0
C1028 C 0.26085 0.34973 0.56118 0.0
C1029 C 0.23867 0.34759 0.58544 0.0
C1030 C 0.33936 0.36022 0.49756 0.0
C1031 C 0.33417 0.3758 0.46856 0.0
C1032 C 0.31975 0.36321 0.5237 0.0
C1033 C 0.29407 0.38145 0.52132 0.0
C1034 C 0.29055 0.39936 0.49331 0.0
C1035 C 0.31049 0.3966 0.46717 0.0
H1036 H 0.06087 0.69778 0.89333 0.0
H1037 H 0.10716 0.79164 0.92741 0.0
H1038 H 1.01031 0.71908 0.89534 0.0
H1039 H 0.05647 0.81265 0.93008 0.0
H1040 H 0.96555 0.8478 0.88771 0.0
H1041 H 0.01643 0.82722 0.8925 0.0
H1042 H 0.97227 0.73861 0.93102 0.0
H1043 H 0.92133 0.75879 0.9256 0.0
C1044 C 0.06029 0.72281 0.90171 0.0
C1045 C 0.08823 0.74296 0.91007 0.0
C1046 C 0.03121 0.73501 0.90301 0.0
C1047 C 0.02927 0.76766 0.91275 0.0
C1048 C 0.05711 0.78754 0.922 0.0
C1049 C 0.0862 0.77537 0.92069 0.0
C1050 C 0.96667 0.82406 0.89751 0.0
C1051 C 0.93919 0.80495 0.90609 0.0
C1052 C 0.99593 0.81229 0.9004 0.0
C1053 C 0.99847 0.78114 0.91198 0.0
C1054 C 0.97114 0.76247 0.92151 0.0
C1055 C 0.9419 0.7742 0.9186 0.0
H1056 H 0.05012 0.35258 0.66855 0.0
H1057 H 0.11223 0.29103 0.62308 0.0
H1058 H 1.00571 0.31097 0.65628 0.0
H1059 H 0.06805 0.24865 0.61225 0.0
H1060 H 0.99344 0.18525 0.68534 0.0
H1061 H 0.03729 0.22326 0.66857 0.0
H1062 H 0.97414 0.26809 0.60565 0.0
H1063 H 0.93047 0.22899 0.62125 0.0
C1064 C 0.05393 0.33093 0.65429 0.0
C1065 C 0.08447 0.3253 0.64617 0.0
C1066 C 0.02859 0.30696 0.64753 0.0
C1067 C 0.03354 0.27659 0.63342 0.0
C1068 C 0.06361 0.27196 0.62289 0.0
C1069 C 0.08879 0.29637 0.62873 0.0
C1070 C 0.98929 0.20198 0.66653 0.0
C1071 C 0.95869 0.20378 0.65417 0.0
C1072 C 1.01431 0.22386 0.65706 0.0
C1073 C 1.00902 0.24857 0.63583 0.0
C1074 C 0.97884 0.24906 0.62179 0.0
C1075 C 0.95397 0.22647 0.63049 0.0
H1076 H 0.5623 0.19878 0.38977 0.0
H1077 H 0.60848 0.2923 0.42499 0.0
H1078 H 0.51167 0.21988 0.39247 0.0
H1079 H 0.55774 0.3131 0.42834 0.0
H1080 H 0.46606 0.34848 0.38812 0.0
H1081 H 0.51714 0.32814 0.39175 0.0
H1082 H 0.47393 0.23852 0.42905 0.0
H1083 H 0.42279 0.25846 0.42479 0.0
C1084 C 0.56169 0.22371 0.39849 0.0
C1085 C 0.58962 0.2438 0.40705 0.0
C1086 C 0.53257 0.23578 0.40021 0.0
C1087 C 0.53057 0.26826 0.41055 0.0
C1088 C 0.55842 0.28812 0.41983 0.0
C1089 C 0.58754 0.27607 0.41811 0.0
C1090 C 0.46744 0.32457 0.39743 0.0
C1091 C 0.44016 0.30512 0.406 0.0
C1092 C 0.49681 0.31293 0.39964 0.0
C1093 C 0.49967 0.28157 0.4105 0.0
C1094 C 0.47255 0.26255 0.42006 0.0
C1095 C 0.4432 0.27415 0.41784 0.0
H1096 H 0.59563 0.58173 0.73061 0.0
H1097 H 0.67056 0.5559 0.67088 0.0
H1098 H 0.59556 0.53073 0.75814 0.0
H1099 H 0.67076 0.50453 0.69878 0.0
H1100 H 0.65146 0.40723 0.75334 0.0
H1101 H 0.6415 0.44983 0.71568 0.0
H1102 H 0.6375 0.51769 0.79725 0.0
H1103 H 0.64761 0.47562 0.8345 0.0
C1104 C 0.61126 0.56447 0.72249 0.0
C1105 C 0.63299 0.57273 0.69849 0.0
C1106 C 0.6115 0.53543 0.73855 0.0
C1107 C 0.63362 0.51389 0.73119 0.0
C1108 C 0.6534 0.52061 0.70501 0.0
C1109 C 0.65312 0.54988 0.6888 0.0
C1110 C 0.64813 0.4312 0.76315 0.0
C1111 C 0.65027 0.43802 0.79695 0.0
C1112 C 0.6426 0.4556 0.74158 0.0
C1113 C 0.63845 0.4871 0.75343 0.0
C1114 C 0.64006 0.49358 0.78726 0.0
C1115 C 0.64605 0.46947 0.80867 0.0
H1116 H 0.37198 0.06429 0.84403 0.0
H1117 H 0.40353 0.11268 0.75788 0.0
H1118 H 0.38116 1.01201 0.81803 0.0
H1119 H 0.41228 0.06099 0.73231 0.0
H1120 H 0.37788 0.95742 0.6849 0.0
H1121 H 0.378 1.01188 0.71039 0.0
H1122 H 0.42378 0.98086 0.7966 0.0
H1123 H 0.42405 0.92689 0.77122 0.0
C1124 C 0.38129 0.06395 0.8199 0.0
C1125 C 0.3867 0.09282 0.80312 0.0
C1126 C 0.38652 0.034 0.80494 0.0
C1127 C 0.39709 0.03233 0.77287 0.0
C1128 C 0.40359 0.06131 0.75672 0.0
C1129 C 0.39866 0.09104 0.77163 0.0
C1130 C 0.38892 0.96253 0.70881 0.0
C1131 C 0.40082 0.93768 0.72597 0.0
C1132 C 0.38874 0.99366 0.7236 0.0
C1133 C 0.40033 1.00048 0.75585 0.0
C1134 C 0.41403 0.97622 0.77209 0.0
C1135 C 0.41446 0.94536 0.7573 0.0
H1136 H 0.45441 0.24121 0.80269 0.0
H1137 H 0.43392 0.23089 0.90404 0.0
H1138 H 0.4999 0.27977 0.81794 0.0
H1139 H 0.47897 0.27035 0.91927 0.0
H1140 H 0.58721 0.3011 0.92827 0.0
H1141 H 0.53446 0.27346 0.92062 0.0
H1142 H 0.51792 0.33343 0.83974 0.0
H1143 H 0.57152 0.36044 0.8469 0.0
C1144 C 0.45955 0.2472 0.82825 0.0
C1145 C 0.44064 0.23256 0.85212 0.0
C1146 C 0.48542 0.26977 0.83701 0.0
C1147 C 0.49301 0.27855 0.86986 0.0
C1148 C 0.47401 0.26403 0.89374 0.0
C1149 C 0.44822 0.24124 0.885 0.0
C1150 C 0.5719 0.30925 0.90962 0.0
C1151 C 0.5836 0.33267 0.88796 0.0
C1152 C 0.54156 0.29332 0.90517 0.0
C1153 C 0.52213 0.30057 0.879 0.0
C1154 C 0.53261 0.32665 0.85961 0.0
C1155 C 0.56311 0.34262 0.86408 0.0
H1156 H 0.3605 0.56936 0.20928 0.0
H1157 H 0.41426 0.61784 0.29112 0.0
H1158 H 0.35504 0.51891 0.23838 0.0
H1159 H 0.40821 0.56782 0.32026 0.0
H1160 H 0.41954 0.46497 0.35012 0.0
H1161 H 0.42489 0.51472 0.32054 0.0
H1162 H 0.32877 0.4941 0.28454 0.0
H1163 H 0.32363 0.44351 0.31384 0.0
C1164 C 0.37138 0.56928 0.23333 0.0
C1165 C 0.38801 0.59782 0.24766 0.0
C1166 C 0.36792 0.54038 0.25019 0.0
C1167 C 0.38103 0.53921 0.2818 0.0
C1168 C 0.39807 0.56759 0.29585 0.0
C1169 C 0.40153 0.59642 0.27906 0.0
C1170 C 0.39939 0.47106 0.3361 0.0
C1171 C 0.3711 0.45021 0.33446 0.0
C1172 C 0.40246 0.49976 0.31917 0.0
C1173 C 0.3773 0.50857 0.30005 0.0
C1174 C 0.34879 0.48791 0.29868 0.0
C1175 C 0.34571 0.45907 0.31573 0.0
H1176 H 0.60719 0.07743 0.34801 0.0
H1177 H 0.70326 0.09889 0.31996 0.0
H1178 H 0.60316 0.02581 0.3168 0.0
H1179 H 0.69935 0.04697 0.28902 0.0
H1180 H 0.671 0.96969 0.20869 0.0
H1181 H 0.67242 0.02133 0.23938 0.0
H1182 H 0.62299 0.97265 0.31658 0.0
H1183 H 0.62114 0.921 0.28584 0.0
C1184 C 0.62757 0.07099 0.33543 0.0
C1185 C 0.65557 0.09229 0.33648 0.0
C1186 C 0.62526 0.04134 0.31759 0.0
C1187 C 0.65085 0.03233 0.30022 0.0
C1188 C 0.67903 0.05341 0.3017 0.0
C1189 C 0.68138 0.08303 0.31969 0.0
C1190 C 0.66 0.96996 0.23199 0.0
C1191 C 0.64599 0.941 0.24472 0.0
C1192 C 0.66114 0.99958 0.24975 0.0
C1193 C 0.64817 1.00108 0.28062 0.0
C1194 C 0.63308 0.9724 0.29282 0.0
C1195 C 0.63204 0.94274 0.27513 0.0
H1196 H 0.61346 0.78972 0.1252 0.0
H1197 H 0.55287 0.85155 0.17278 0.0
H1198 H 0.56871 0.74793 0.11456 0.0
H1199 H 0.50788 0.81054 0.16071 0.0
H1200 H 0.49344 0.68446 0.18744 0.0
H1201 H 0.53779 0.72222 0.17132 0.0
H1202 H 0.47558 0.76874 0.10884 0.0
H1203 H 0.43142 0.7299 0.12377 0.0
C1204 C 0.59021 0.79525 0.13143 0.0
C1205 C 0.58648 0.82411 0.14929 0.0
C1206 C 0.56472 0.77118 0.12568 0.0
C1207 C 0.53491 0.77608 0.13677 0.0
C1208 C 0.53055 0.80635 0.15152 0.0
C1209 C 0.55621 0.82997 0.15816 0.0
C1210 C 0.4896 0.70152 0.16885 0.0
C1211 C 0.45912 0.70384 0.15641 0.0
C1212 C 0.5149 0.72326 0.15977 0.0
C1213 C 0.51003 0.74835 0.13885 0.0
C1214 C 0.47996 0.7494 0.12474 0.0
C1215 C 0.4548 0.72696 0.13304 0.0
loop_
_geom_bond_atom_site_label_1
_geom_bond_atom_site_label_2
_geom_bond_distance
_geom_bond_site_symmetry_2
_ccdc_geom_bond_type
Mn0 O5 2.095 . S
Mn0 O15 2.162 . S
Mn0 O16 2.297 . S
Mn0 O24 2.385 . S
Mn0 O25 2.209 . S
Mn0 O26 2.094 . S
Mn1 O6 2.121 . S
Mn1 N8 2.257 . S
Mn1 N17 2.282 . S
Mn1 O25 2.215 . S
Mn1 O27 2.117 . S
C2 O24 1.234 . S
C2 O25 1.283 . S
C3 O15 1.281 . S
C3 O16 1.236 . S
C4 O26 1.240 . S
C4 O27 1.264 . S
O5 Mn0 2.095 . S
O5 C14 1.250 . S
O6 Mn1 2.121 . S
O6 C14 1.258 . S
C7 N8 1.326 . S
C7 C11 1.460 . S
C7 H13 0.929 . S
N8 Mn1 2.257 . S
N8 C7 1.326 . S
N8 C12 1.362 . S
C9 C10 1.258 . S
C9 C12 1.431 . S
C9 C29 1.449 . S
C10 C9 1.258 . S
C10 C11 1.477 . S
C10 H30 0.931 . S
C11 C7 1.460 . S
C11 C10 1.477 . S
C11 H31 0.930 . S
C12 N8 1.362 . S
C12 C9 1.431 . S
C12 C22 1.476 . S
H13 C7 0.929 . S
C14 O5 1.250 . S
C14 O6 1.258 . S
O15 Mn0 2.162 . S
O15 C3 1.281 . S
O16 Mn0 2.297 . S
O16 C3 1.236 . S
N17 Mn1 2.282 . S
N17 C18 1.328 . S
N17 C22 1.318 . S
C18 N17 1.328 . S
C18 C19 1.457 . S
C18 H23 0.929 . S
C19 C18 1.457 . S
C19 C20 1.291 . S
C19 H32 0.931 . S
C20 C19 1.291 . S
C20 C21 1.373 . S
C20 H33 0.929 . S
C21 C20 1.373 . S
C21 C22 1.396 . S
C21 C28 1.403 . S
C22 C12 1.476 . S
C22 N17 1.318 . S
C22 C21 1.396 . S
H23 C18 0.929 . S
O24 Mn0 2.385 . S
O24 C2 1.234 . S
O25 Mn0 2.209 . S
O25 Mn1 2.215 . S
O25 C2 1.283 . S
O26 Mn0 2.094 . S
O26 C4 1.240 . S
O27 Mn1 2.117 . S
O27 C4 1.264 . S
C28 C21 1.403 . S
C28 C29 1.399 . S
C28 H34 0.929 . S
C29 C9 1.449 . S
C29 C28 1.399 . S
C29 H35 0.930 . S
H30 C10 0.931 . S
H31 C11 0.930 . S
H32 C19 0.931 . S
H33 C20 0.929 . S
H34 C28 0.929 . S
H35 C29 0.930 . S
Mn36 O41 2.095 . S
Mn36 O51 2.162 . S
Mn36 O52 2.297 . S
Mn36 O60 2.385 . S
Mn36 O61 2.209 . S
Mn36 O62 2.094 . S
Mn37 O42 2.121 . S
Mn37 N44 2.257 . S
Mn37 N53 2.282 . S
Mn37 O61 2.215 . S
Mn37 O63 2.117 . S
C38 O60 1.234 . S
C38 O61 1.283 . S
C39 O51 1.281 . S
C39 O52 1.236 . S
C40 O62 1.240 . S
C40 O63 1.264 . S
O41 Mn36 2.095 . S
O41 C50 1.250 . S
O42 Mn37 2.121 . S
O42 C50 1.258 . S
C43 N44 1.326 . S
C43 C47 1.460 . S
C43 H49 0.929 . S
N44 Mn37 2.257 . S
N44 C43 1.326 . S
N44 C48 1.362 . S
C45 C46 1.258 . S
C45 C48 1.431 . S
C45 C65 1.449 . S
C46 C45 1.258 . S
C46 C47 1.477 . S
C46 H66 0.931 . S
C47 C43 1.460 . S
C47 C46 1.477 . S
C47 H67 0.930 . S
C48 N44 1.362 . S
C48 C45 1.431 . S
C48 C58 1.476 . S
H49 C43 0.929 . S
C50 O41 1.250 . S
C50 O42 1.258 . S
O51 Mn36 2.162 . S
O51 C39 1.281 . S
O52 Mn36 2.297 . S
O52 C39 1.236 . S
N53 Mn37 2.282 . S
N53 C54 1.328 . S
N53 C58 1.318 . S
C54 N53 1.328 . S
C54 C55 1.457 . S
C54 H59 0.929 . S
C55 C54 1.457 . S
C55 C56 1.291 . S
C55 H68 0.931 . S
C56 C55 1.291 . S
C56 C57 1.373 . S
C56 H69 0.929 . S
C57 C56 1.373 . S
C57 C58 1.396 . S
C57 C64 1.403 . S
C58 C48 1.476 . S
C58 N53 1.318 . S
C58 C57 1.396 . S
H59 C54 0.929 . S
O60 Mn36 2.385 . S
O60 C38 1.234 . S
O61 Mn36 2.209 . S
O61 Mn37 2.215 . S
O61 C38 1.283 . S
O62 Mn36 2.094 . S
O62 C40 1.240 . S
O63 Mn37 2.117 . S
O63 C40 1.264 . S
C64 C57 1.403 . S
C64 C65 1.399 . S
C64 H70 0.929 . S
C65 C45 1.449 . S
C65 C64 1.399 . S
C65 H71 0.930 . S
H66 C46 0.931 . S
H67 C47 0.930 . S
H68 C55 0.931 . S
H69 C56 0.929 . S
H70 C64 0.929 . S
H71 C65 0.930 . S
Mn72 O77 2.095 . S
Mn72 O87 2.162 . S
Mn72 O88 2.297 . S
Mn72 O96 2.385 . S
Mn72 O97 2.209 . S
Mn72 O98 2.094 . S
Mn73 O78 2.121 . S
Mn73 N80 2.257 . S
Mn73 N89 2.282 . S
Mn73 O97 2.215 . S
Mn73 O99 2.117 . S
C74 O96 1.234 . S
C74 O97 1.283 . S
C75 O87 1.281 . S
C75 O88 1.236 . S
C76 O98 1.240 . S
C76 O99 1.264 . S
O77 Mn72 2.095 . S
O77 C86 1.250 . S
O78 Mn73 2.121 . S
O78 C86 1.258 . S
C79 N80 1.326 . S
C79 C83 1.460 . S
C79 H85 0.929 . S
N80 Mn73 2.257 . S
N80 C79 1.326 . S
N80 C84 1.362 . S
C81 C82 1.258 . S
C81 C84 1.431 . S
C81 C101 1.449 . S
C82 C81 1.258 . S
C82 C83 1.477 . S
C82 H102 0.931 . S
C83 C79 1.460 . S
C83 C82 1.477 . S
C83 H103 0.930 . S
C84 N80 1.362 . S
C84 C81 1.431 . S
C84 C94 1.476 . S
H85 C79 0.929 . S
C86 O77 1.250 . S
C86 O78 1.258 . S
O87 Mn72 2.162 . S
O87 C75 1.281 . S
O88 Mn72 2.297 . S
O88 C75 1.236 . S
N89 Mn73 2.282 . S
N89 C90 1.328 . S
N89 C94 1.318 . S
C90 N89 1.328 . S
C90 C91 1.457 . S
C90 H95 0.929 . S
C91 C90 1.457 . S
C91 C92 1.291 . S
C91 H104 0.931 . S
C92 C91 1.291 . S
C92 C93 1.373 . S
C92 H105 0.929 . S
C93 C92 1.373 . S
C93 C94 1.396 . S
C93 C100 1.403 . S
C94 C84 1.476 . S
C94 N89 1.318 . S
C94 C93 1.396 . S
H95 C90 0.929 . S
O96 Mn72 2.385 . S
O96 C74 1.234 . S
O97 Mn72 2.209 . S
O97 Mn73 2.215 . S
O97 C74 1.283 . S
O98 Mn72 2.094 . S
O98 C76 1.240 . S
O99 Mn73 2.117 . S
O99 C76 1.264 . S
C100 C93 1.403 . S
C100 C101 1.399 . S
C100 H106 0.929 . S
C101 C81 1.449 . S
C101 C100 1.399 . S
C101 H107 0.930 . S
H102 C82 0.931 . S
H103 C83 0.930 . S
H104 C91 0.931 . S
H105 C92 0.929 . S
H106 C100 0.929 . S
H107 C101 0.930 . S
Mn108 O113 2.095 . S
Mn108 O123 2.162 . S
Mn108 O124 2.297 . S
Mn108 O132 2.385 . S
Mn108 O133 2.209 . S
Mn108 O134 2.094 . S
Mn109 O114 2.121 . S
Mn109 N116 2.257 . S
Mn109 N125 2.282 . S
Mn109 O133 2.215 . S
Mn109 O135 2.117 . S
C110 O132 1.234 . S
C110 O133 1.283 . S
C111 O123 1.281 . S
C111 O124 1.236 . S
C112 O134 1.240 . S
C112 O135 1.264 . S
O113 Mn108 2.095 . S
O113 C122 1.250 . S
O114 Mn109 2.121 . S
O114 C122 1.258 . S
C115 N116 1.326 . S
C115 C119 1.460 . S
C115 H121 0.929 . S
N116 Mn109 2.257 . S
N116 C115 1.326 . S
N116 C120 1.362 . S
C117 C118 1.258 . S
C117 C120 1.431 . S
C117 C137 1.449 . S
C118 C117 1.258 . S
C118 C119 1.477 . S
C118 H138 0.931 . S
C119 C115 1.460 . S
C119 C118 1.477 . S
C119 H139 0.930 . S
C120 N116 1.362 . S
C120 C117 1.431 . S
C120 C130 1.476 . S
H121 C115 0.929 . S
C122 O113 1.250 . S
C122 O114 1.258 . S
O123 Mn108 2.162 . S
O123 C111 1.281 . S
O124 Mn108 2.297 . S
O124 C111 1.236 . S
N125 Mn109 2.282 . S
N125 C126 1.328 . S
N125 C130 1.318 . S
C126 N125 1.328 . S
C126 C127 1.457 . S
C126 H131 0.929 . S
C127 C126 1.457 . S
C127 C128 1.291 . S
C127 H140 0.931 . S
C128 C127 1.291 . S
C128 C129 1.373 . S
C128 H141 0.929 . S
C129 C128 1.373 . S
C129 C130 1.396 . S
C129 C136 1.403 . S
C130 C120 1.476 . S
C130 N125 1.318 . S
C130 C129 1.396 . S
H131 C126 0.929 . S
O132 Mn108 2.385 . S
O132 C110 1.234 . S
O133 Mn108 2.209 . S
O133 Mn109 2.215 . S
O133 C110 1.283 . S
O134 Mn108 2.094 . S
O134 C112 1.240 . S
O135 Mn109 2.117 . S
O135 C112 1.264 . S
C136 C129 1.403 . S
C136 C137 1.399 . S
C136 H142 0.929 . S
C137 C117 1.449 . S
C137 C136 1.399 . S
C137 H143 0.930 . S
H138 C118 0.931 . S
H139 C119 0.930 . S
H140 C127 0.931 . S
H141 C128 0.929 . S
H142 C136 0.929 . S
H143 C137 0.930 . S
Mn144 O149 2.095 . S
Mn144 O159 2.162 . S
Mn144 O160 2.297 . S
Mn144 O168 2.385 . S
Mn144 O169 2.209 . S
Mn144 O170 2.094 . S
Mn145 O150 2.121 . S
Mn145 N152 2.257 . S
Mn145 N161 2.282 . S
Mn145 O169 2.215 . S
Mn145 O171 2.117 . S
C146 O168 1.234 . S
C146 O169 1.283 . S
C147 O159 1.281 . S
C147 O160 1.236 . S
C148 O170 1.240 . S
C148 O171 1.264 . S
O149 Mn144 2.095 . S
O149 C158 1.250 . S
O150 Mn145 2.121 . S
O150 C158 1.258 . S
C151 N152 1.326 . S
C151 C155 1.460 . S
C151 H157 0.929 . S
N152 Mn145 2.257 . S
N152 C151 1.326 . S
N152 C156 1.362 . S
C153 C154 1.258 . S
C153 C156 1.431 . S
C153 C173 1.449 . S
C154 C153 1.258 . S
C154 C155 1.477 . S
C154 H174 0.931 . S
C155 C151 1.460 . S
C155 C154 1.477 . S
C155 H175 0.930 . S
C156 N152 1.362 . S
C156 C153 1.431 . S
C156 C166 1.476 . S
H157 C151 0.929 . S
C158 O149 1.250 . S
C158 O150 1.258 . S
O159 Mn144 2.162 . S
O159 C147 1.281 . S
O160 Mn144 2.297 . S
O160 C147 1.236 . S
N161 Mn145 2.282 . S
N161 C162 1.328 . S
N161 C166 1.318 . S
C162 N161 1.328 . S
C162 C163 1.457 . S
C162 H167 0.929 . S
C163 C162 1.457 . S
C163 C164 1.291 . S
C163 H176 0.931 . S
C164 C163 1.291 . S
C164 C165 1.373 . S
C164 H177 0.929 . S
C165 C164 1.373 . S
C165 C166 1.396 . S
C165 C172 1.403 . S
C166 C156 1.476 . S
C166 N161 1.318 . S
C166 C165 1.396 . S
H167 C162 0.929 . S
O168 Mn144 2.385 . S
O168 C146 1.234 . S
O169 Mn144 2.209 . S
O169 Mn145 2.215 . S
O169 C146 1.283 . S
O170 Mn144 2.094 . S
O170 C148 1.240 . S
O171 Mn145 2.117 . S
O171 C148 1.264 . S
C172 C165 1.403 . S
C172 C173 1.399 . S
C172 H178 0.929 . S
C173 C153 1.449 . S
C173 C172 1.399 . S
C173 H179 0.930 . S
H174 C154 0.931 . S
H175 C155 0.930 . S
H176 C163 0.931 . S
H177 C164 0.929 . S
H178 C172 0.929 . S
H179 C173 0.930 . S
Mn180 O185 2.095 . S
Mn180 O195 2.162 . S
Mn180 O196 2.297 . S
Mn180 O204 2.385 . S
Mn180 O205 2.209 . S
Mn180 O206 2.094 . S
Mn181 O186 2.121 . S
Mn181 N188 2.257 . S
Mn181 N197 2.282 . S
Mn181 O205 2.215 . S
Mn181 O207 2.117 . S
C182 O204 1.234 . S
C182 O205 1.283 . S
C183 O195 1.281 . S
C183 O196 1.236 . S
C184 O206 1.240 . S
C184 O207 1.264 . S
O185 Mn180 2.095 . S
O185 C194 1.250 . S
O186 Mn181 2.121 . S
O186 C194 1.258 . S
C187 N188 1.326 . S
C187 C191 1.460 . S
C187 H193 0.929 . S
N188 Mn181 2.257 . S
N188 C187 1.326 . S
N188 C192 1.362 . S
C189 C190 1.258 . S
C189 C192 1.431 . S
C189 C209 1.449 . S
C190 C189 1.258 . S
C190 C191 1.477 . S
C190 H210 0.931 . S
C191 C187 1.460 . S
C191 C190 1.477 . S
C191 H211 0.930 . S
C192 N188 1.362 . S
C192 C189 1.431 . S
C192 C202 1.476 . S
H193 C187 0.929 . S
C194 O185 1.250 . S
C194 O186 1.258 . S
O195 Mn180 2.162 . S
O195 C183 1.281 . S
O196 Mn180 2.297 . S
O196 C183 1.236 . S
N197 Mn181 2.282 . S
N197 C198 1.328 . S
N197 C202 1.318 . S
C198 N197 1.328 . S
C198 C199 1.457 . S
C198 H203 0.929 . S
C199 C198 1.457 . S
C199 C200 1.291 . S
C199 H212 0.931 . S
C200 C199 1.291 . S
C200 C201 1.373 . S
C200 H213 0.929 . S
C201 C200 1.373 . S
C201 C202 1.396 . S
C201 C208 1.403 . S
C202 C192 1.476 . S
C202 N197 1.318 . S
C202 C201 1.396 . S
H203 C198 0.929 . S
O204 Mn180 2.385 . S
O204 C182 1.234 . S
O205 Mn180 2.209 . S
O205 Mn181 2.215 . S
O205 C182 1.283 . S
O206 Mn180 2.094 . S
O206 C184 1.240 . S
O207 Mn181 2.117 . S
O207 C184 1.264 . S
C208 C201 1.403 . S
C208 C209 1.399 . S
C208 H214 0.929 . S
C209 C189 1.449 . S
C209 C208 1.399 . S
C209 H215 0.930 . S
H210 C190 0.931 . S
H211 C191 0.930 . S
H212 C199 0.931 . S
H213 C200 0.929 . S
H214 C208 0.929 . S
H215 C209 0.930 . S
Mn216 O221 2.095 . S
Mn216 O231 2.162 . S
Mn216 O232 2.297 . S
Mn216 O240 2.385 . S
Mn216 O241 2.209 . S
Mn216 O242 2.094 . S
Mn217 O222 2.121 . S
Mn217 N224 2.257 . S
Mn217 N233 2.282 . S
Mn217 O241 2.215 . S
Mn217 O243 2.117 . S
C218 O240 1.234 . S
C218 O241 1.283 . S
C219 O231 1.281 . S
C219 O232 1.236 . S
C220 O242 1.240 . S
C220 O243 1.264 . S
O221 Mn216 2.095 . S
O221 C230 1.250 . S
O222 Mn217 2.121 . S
O222 C230 1.258 . S
C223 N224 1.326 . S
C223 C227 1.460 . S
C223 H229 0.929 . S
N224 Mn217 2.257 . S
N224 C223 1.326 . S
N224 C228 1.362 . S
C225 C226 1.258 . S
C225 C228 1.431 . S
C225 C245 1.449 . S
C226 C225 1.258 . S
C226 C227 1.477 . S
C226 H246 0.931 . S
C227 C223 1.460 . S
C227 C226 1.477 . S
C227 H247 0.930 . S
C228 N224 1.362 . S
C228 C225 1.431 . S
C228 C238 1.476 . S
H229 C223 0.929 . S
C230 O221 1.250 . S
C230 O222 1.258 . S
O231 Mn216 2.162 . S
O231 C219 1.281 . S
O232 Mn216 2.297 . S
O232 C219 1.236 . S
N233 Mn217 2.282 . S
N233 C234 1.328 . S
N233 C238 1.318 . S
C234 N233 1.328 . S
C234 C235 1.457 . S
C234 H239 0.929 . S
C235 C234 1.457 . S
C235 C236 1.291 . S
C235 H248 0.931 . S
C236 C235 1.291 . S
C236 C237 1.373 . S
C236 H249 0.929 . S
C237 C236 1.373 . S
C237 C238 1.396 . S
C237 C244 1.403 . S
C238 C228 1.476 . S
C238 N233 1.318 . S
C238 C237 1.396 . S
H239 C234 0.929 . S
O240 Mn216 2.385 . S
O240 C218 1.234 . S
O241 Mn216 2.209 . S
O241 Mn217 2.215 . S
O241 C218 1.283 . S
O242 Mn216 2.094 . S
O242 C220 1.240 . S
O243 Mn217 2.117 . S
O243 C220 1.264 . S
C244 C237 1.403 . S
C244 C245 1.399 . S
C244 H250 0.929 . S
C245 C225 1.449 . S
C245 C244 1.399 . S
C245 H251 0.930 . S
H246 C226 0.931 . S
H247 C227 0.930 . S
H248 C235 0.931 . S
H249 C236 0.929 . S
H250 C244 0.929 . S
H251 C245 0.930 . S
Mn252 O257 2.095 . S
Mn252 O267 2.162 . S
Mn252 O268 2.297 . S
Mn252 O276 2.385 . S
Mn252 O277 2.209 . S
Mn252 O278 2.094 . S
Mn253 O258 2.121 . S
Mn253 N260 2.257 . S
Mn253 N269 2.282 . S
Mn253 O277 2.215 . S
Mn253 O279 2.117 . S
C254 O276 1.234 . S
C254 O277 1.283 . S
C255 O267 1.281 . S
C255 O268 1.236 . S
C256 O278 1.240 . S
C256 O279 1.264 . S
O257 Mn252 2.095 . S
O257 C266 1.250 . S
O258 Mn253 2.121 . S
O258 C266 1.258 . S
C259 N260 1.326 . S
C259 C263 1.460 . S
C259 H265 0.929 . S
N260 Mn253 2.257 . S
N260 C259 1.326 . S
N260 C264 1.362 . S
C261 C262 1.258 . S
C261 C264 1.431 . S
C261 C281 1.449 . S
C262 C261 1.258 . S
C262 C263 1.477 . S
C262 H282 0.931 . S
C263 C259 1.460 . S
C263 C262 1.477 . S
C263 H283 0.930 . S
C264 N260 1.362 . S
C264 C261 1.431 . S
C264 C274 1.476 . S
H265 C259 0.929 . S
C266 O257 1.250 . S
C266 O258 1.258 . S
O267 Mn252 2.162 . S
O267 C255 1.281 . S
O268 Mn252 2.297 . S
O268 C255 1.236 . S
N269 Mn253 2.282 . S
N269 C270 1.328 . S
N269 C274 1.318 . S
C270 N269 1.328 . S
C270 C271 1.457 . S
C270 H275 0.929 . S
C271 C270 1.457 . S
C271 C272 1.291 . S
C271 H284 0.931 . S
C272 C271 1.291 . S
C272 C273 1.373 . S
C272 H285 0.929 . S
C273 C272 1.373 . S
C273 C274 1.396 . S
C273 C280 1.403 . S
C274 C264 1.476 . S
C274 N269 1.318 . S
C274 C273 1.396 . S
H275 C270 0.929 . S
O276 Mn252 2.385 . S
O276 C254 1.234 . S
O277 Mn252 2.209 . S
O277 Mn253 2.215 . S
O277 C254 1.283 . S
O278 Mn252 2.094 . S
O278 C256 1.240 . S
O279 Mn253 2.117 . S
O279 C256 1.264 . S
C280 C273 1.403 . S
C280 C281 1.399 . S
C280 H286 0.929 . S
C281 C261 1.449 . S
C281 C280 1.399 . S
C281 H287 0.930 . S
H282 C262 0.931 . S
H283 C263 0.930 . S
H284 C271 0.931 . S
H285 C272 0.929 . S
H286 C280 0.929 . S
H287 C281 0.930 . S
Mn288 O293 2.095 . S
Mn288 O303 2.162 . S
Mn288 O304 2.297 . S
Mn288 O312 2.385 . S
Mn288 O313 2.209 . S
Mn288 O314 2.094 . S
Mn289 O294 2.121 . S
Mn289 N296 2.257 . S
Mn289 N305 2.282 . S
Mn289 O313 2.215 . S
Mn289 O315 2.117 . S
C290 O312 1.234 . S
C290 O313 1.283 . S
C291 O303 1.281 . S
C291 O304 1.236 . S
C292 O314 1.240 . S
C292 O315 1.264 . S
O293 Mn288 2.095 . S
O293 C302 1.250 . S
O294 Mn289 2.121 . S
O294 C302 1.258 . S
C295 N296 1.326 . S
C295 C299 1.460 . S
C295 H301 0.929 . S
N296 Mn289 2.257 . S
N296 C295 1.326 . S
N296 C300 1.362 . S
C297 C298 1.258 . S
C297 C300 1.431 . S
C297 C317 1.449 . S
C298 C297 1.258 . S
C298 C299 1.477 . S
C298 H318 0.931 . S
C299 C295 1.460 . S
C299 C298 1.477 . S
C299 H319 0.930 . S
C300 N296 1.362 . S
C300 C297 1.431 . S
C300 C310 1.476 . S
H301 C295 0.929 . S
C302 O293 1.250 . S
C302 O294 1.258 . S
O303 Mn288 2.162 . S
O303 C291 1.281 . S
O304 Mn288 2.297 . S
O304 C291 1.236 . S
N305 Mn289 2.282 . S
N305 C306 1.328 . S
N305 C310 1.318 . S
C306 N305 1.328 . S
C306 C307 1.457 . S
C306 H311 0.929 . S
C307 C306 1.457 . S
C307 C308 1.291 . S
C307 H320 0.931 . S
C308 C307 1.291 . S
C308 C309 1.373 . S
C308 H321 0.929 . S
C309 C308 1.373 . S
C309 C310 1.396 . S
C309 C316 1.403 . S
C310 C300 1.476 . S
C310 N305 1.318 . S
C310 C309 1.396 . S
H311 C306 0.929 . S
O312 Mn288 2.385 . S
O312 C290 1.234 . S
O313 Mn288 2.209 . S
O313 Mn289 2.215 . S
O313 C290 1.283 . S
O314 Mn288 2.094 . S
O314 C292 1.240 . S
O315 Mn289 2.117 . S
O315 C292 1.264 . S
C316 C309 1.403 . S
C316 C317 1.399 . S
C316 H322 0.929 . S
C317 C297 1.449 . S
C317 C316 1.399 . S
C317 H323 0.930 . S
H318 C298 0.931 . S
H319 C299 0.930 . S
H320 C307 0.931 . S
H321 C308 0.929 . S
H322 C316 0.929 . S
H323 C317 0.930 . S
Mn324 O329 2.095 . S
Mn324 O339 2.162 . S
Mn324 O340 2.297 . S
Mn324 O348 2.385 . S
Mn324 O349 2.209 . S
Mn324 O350 2.094 . S
Mn325 O330 2.121 . S
Mn325 N332 2.257 . S
Mn325 N341 2.282 . S
Mn325 O349 2.215 . S
Mn325 O351 2.117 . S
C326 O348 1.234 . S
C326 O349 1.283 . S
C327 O339 1.281 . S
C327 O340 1.236 . S
C328 O350 1.240 . S
C328 O351 1.264 . S
O329 Mn324 2.095 . S
O329 C338 1.250 . S
O330 Mn325 2.121 . S
O330 C338 1.258 . S
C331 N332 1.326 . S
C331 C335 1.460 . S
C331 H337 0.929 . S
N332 Mn325 2.257 . S
N332 C331 1.326 . S
N332 C336 1.362 . S
C333 C334 1.258 . S
C333 C336 1.431 . S
C333 C353 1.449 . S
C334 C333 1.258 . S
C334 C335 1.477 . S
C334 H354 0.931 . S
C335 C331 1.460 . S
C335 C334 1.477 . S
C335 H355 0.930 . S
C336 N332 1.362 . S
C336 C333 1.431 . S
C336 C346 1.476 . S
H337 C331 0.929 . S
C338 O329 1.250 . S
C338 O330 1.258 . S
O339 Mn324 2.162 . S
O339 C327 1.281 . S
O340 Mn324 2.297 . S
O340 C327 1.236 . S
N341 Mn325 2.282 . S
N341 C342 1.328 . S
N341 C346 1.318 . S
C342 N341 1.328 . S
C342 C343 1.457 . S
C342 H347 0.929 . S
C343 C342 1.457 . S
C343 C344 1.291 . S
C343 H356 0.931 . S
C344 C343 1.291 . S
C344 C345 1.373 . S
C344 H357 0.929 . S
C345 C344 1.373 . S
C345 C346 1.396 . S
C345 C352 1.403 . S
C346 C336 1.476 . S
C346 N341 1.318 . S
C346 C345 1.396 . S
H347 C342 0.929 . S
O348 Mn324 2.385 . S
O348 C326 1.234 . S
O349 Mn324 2.209 . S
O349 Mn325 2.215 . S
O349 C326 1.283 . S
O350 Mn324 2.094 . S
O350 C328 1.240 . S
O351 Mn325 2.117 . S
O351 C328 1.264 . S
C352 C345 1.403 . S
C352 C353 1.399 . S
C352 H358 0.929 . S
C353 C333 1.449 . S
C353 C352 1.399 . S
C353 H359 0.930 . S
H354 C334 0.931 . S
H355 C335 0.930 . S
H356 C343 0.931 . S
H357 C344 0.929 . S
H358 C352 0.929 . S
H359 C353 0.930 . S
Mn360 O365 2.095 . S
Mn360 O375 2.162 . S
Mn360 O376 2.297 . S
Mn360 O384 2.385 . S
Mn360 O385 2.209 . S
Mn360 O386 2.094 . S
Mn361 O366 2.121 . S
Mn361 N368 2.257 . S
Mn361 N377 2.282 . S
Mn361 O385 2.215 . S
Mn361 O387 2.117 . S
C362 O384 1.234 . S
C362 O385 1.283 . S
C363 O375 1.281 . S
C363 O376 1.236 . S
C364 O386 1.240 . S
C364 O387 1.264 . S
O365 Mn360 2.095 . S
O365 C374 1.250 . S
O366 Mn361 2.121 . S
O366 C374 1.258 . S
C367 N368 1.326 . S
C367 C371 1.460 . S
C367 H373 0.929 . S
N368 Mn361 2.257 . S
N368 C367 1.326 . S
N368 C372 1.362 . S
C369 C370 1.258 . S
C369 C372 1.431 . S
C369 C389 1.449 . S
C370 C369 1.258 . S
C370 C371 1.477 . S
C370 H390 0.931 . S
C371 C367 1.460 . S
C371 C370 1.477 . S
C371 H391 0.930 . S
C372 N368 1.362 . S
C372 C369 1.431 . S
C372 C382 1.476 . S
H373 C367 0.929 . S
C374 O365 1.250 . S
C374 O366 1.258 . S
O375 Mn360 2.162 . S
O375 C363 1.281 . S
O376 Mn360 2.297 . S
O376 C363 1.236 . S
N377 Mn361 2.282 . S
N377 C378 1.328 . S
N377 C382 1.318 . S
C378 N377 1.328 . S
C378 C379 1.457 . S
C378 H383 0.929 . S
C379 C378 1.457 . S
C379 C380 1.291 . S
C379 H392 0.931 . S
C380 C379 1.291 . S
C380 C381 1.373 . S
C380 H393 0.929 . S
C381 C380 1.373 . S
C381 C382 1.396 . S
C381 C388 1.403 . S
C382 C372 1.476 . S
C382 N377 1.318 . S
C382 C381 1.396 . S
H383 C378 0.929 . S
O384 Mn360 2.385 . S
O384 C362 1.234 . S
O385 Mn360 2.209 . S
O385 Mn361 2.215 . S
O385 C362 1.283 . S
O386 Mn360 2.094 . S
O386 C364 1.240 . S
O387 Mn361 2.117 . S
O387 C364 1.264 . S
C388 C381 1.403 . S
C388 C389 1.399 . S
C388 H394 0.929 . S
C389 C369 1.449 . S
C389 C388 1.399 . S
C389 H395 0.930 . S
H390 C370 0.931 . S
H391 C371 0.930 . S
H392 C379 0.931 . S
H393 C380 0.929 . S
H394 C388 0.929 . S
H395 C389 0.930 . S
Mn396 O401 2.095 . S
Mn396 O411 2.162 . S
Mn396 O412 2.297 . S
Mn396 O420 2.385 . S
Mn396 O421 2.209 . S
Mn396 O422 2.094 . S
Mn397 O402 2.121 . S
Mn397 N404 2.257 . S
Mn397 N413 2.282 . S
Mn397 O421 2.215 . S
Mn397 O423 2.117 . S
C398 O420 1.234 . S
C398 O421 1.283 . S
C399 O411 1.281 . S
C399 O412 1.236 . S
C400 O422 1.240 . S
C400 O423 1.264 . S
O401 Mn396 2.095 . S
O401 C410 1.250 . S
O402 Mn397 2.121 . S
O402 C410 1.258 . S
C403 N404 1.326 . S
C403 C407 1.460 . S
C403 H409 0.929 . S
N404 Mn397 2.257 . S
N404 C403 1.326 . S
N404 C408 1.362 . S
C405 C406 1.258 . S
C405 C408 1.431 . S
C405 C425 1.449 . S
C406 C405 1.258 . S
C406 C407 1.477 . S
C406 H426 0.931 . S
C407 C403 1.460 . S
C407 C406 1.477 . S
C407 H427 0.930 . S
C408 N404 1.362 . S
C408 C405 1.431 . S
C408 C418 1.476 . S
H409 C403 0.929 . S
C410 O401 1.250 . S
C410 O402 1.258 . S
O411 Mn396 2.162 . S
O411 C399 1.281 . S
O412 Mn396 2.297 . S
O412 C399 1.236 . S
N413 Mn397 2.282 . S
N413 C414 1.328 . S
N413 C418 1.318 . S
C414 N413 1.328 . S
C414 C415 1.457 . S
C414 H419 0.929 . S
C415 C414 1.457 . S
C415 C416 1.291 . S
C415 H428 0.931 . S
C416 C415 1.291 . S
C416 C417 1.373 . S
C416 H429 0.929 . S
C417 C416 1.373 . S
C417 C418 1.396 . S
C417 C424 1.403 . S
C418 C408 1.476 . S
C418 N413 1.318 . S
C418 C417 1.396 . S
H419 C414 0.929 . S
O420 Mn396 2.385 . S
O420 C398 1.234 . S
O421 Mn396 2.209 . S
O421 Mn397 2.215 . S
O421 C398 1.283 . S
O422 Mn396 2.094 . S
O422 C400 1.240 . S
O423 Mn397 2.117 . S
O423 C400 1.264 . S
C424 C417 1.403 . S
C424 C425 1.399 . S
C424 H430 0.929 . S
C425 C405 1.449 . S
C425 C424 1.399 . S
C425 H431 0.930 . S
H426 C406 0.931 . S
H427 C407 0.930 . S
H428 C415 0.931 . S
H429 C416 0.929 . S
H430 C424 0.929 . S
H431 C425 0.930 . S
Mn432 O437 2.095 . S
Mn432 O447 2.162 . S
Mn432 O448 2.297 . S
Mn432 O456 2.385 . S
Mn432 O457 2.209 . S
Mn432 O458 2.094 . S
Mn433 O438 2.121 . S
Mn433 N440 2.257 . S
Mn433 N449 2.282 . S
Mn433 O457 2.215 . S
Mn433 O459 2.117 . S
C434 O456 1.234 . S
C434 O457 1.283 . S
C435 O447 1.281 . S
C435 O448 1.236 . S
C436 O458 1.240 . S
C436 O459 1.264 . S
O437 Mn432 2.095 . S
O437 C446 1.250 . S
O438 Mn433 2.121 . S
O438 C446 1.258 . S
C439 N440 1.326 . S
C439 C443 1.460 . S
C439 H445 0.929 . S
N440 Mn433 2.257 . S
N440 C439 1.326 . S
N440 C444 1.362 . S
C441 C442 1.258 . S
C441 C444 1.431 . S
C441 C461 1.449 . S
C442 C441 1.258 . S
C442 C443 1.477 . S
C442 H462 0.931 . S
C443 C439 1.460 . S
C443 C442 1.477 . S
C443 H463 0.930 . S
C444 N440 1.362 . S
C444 C441 1.431 . S
C444 C454 1.476 . S
H445 C439 0.929 . S
C446 O437 1.250 . S
C446 O438 1.258 . S
O447 Mn432 2.162 . S
O447 C435 1.281 . S
O448 Mn432 2.297 . S
O448 C435 1.236 . S
N449 Mn433 2.282 . S
N449 C450 1.328 . S
N449 C454 1.318 . S
C450 N449 1.328 . S
C450 C451 1.457 . S
C450 H455 0.929 . S
C451 C450 1.457 . S
C451 C452 1.291 . S
C451 H464 0.931 . S
C452 C451 1.291 . S
C452 C453 1.373 . S
C452 H465 0.929 . S
C453 C452 1.373 . S
C453 C454 1.396 . S
C453 C460 1.403 . S
C454 C444 1.476 . S
C454 N449 1.318 . S
C454 C453 1.396 . S
H455 C450 0.929 . S
O456 Mn432 2.385 . S
O456 C434 1.234 . S
O457 Mn432 2.209 . S
O457 Mn433 2.215 . S
O457 C434 1.283 . S
O458 Mn432 2.094 . S
O458 C436 1.240 . S
O459 Mn433 2.117 . S
O459 C436 1.264 . S
C460 C453 1.403 . S
C460 C461 1.399 . S
C460 H466 0.929 . S
C461 C441 1.449 . S
C461 C460 1.399 . S
C461 H467 0.930 . S
H462 C442 0.931 . S
H463 C443 0.930 . S
H464 C451 0.931 . S
H465 C452 0.929 . S
H466 C460 0.929 . S
H467 C461 0.930 . S
Mn468 O473 2.095 . S
Mn468 O483 2.162 . S
Mn468 O484 2.297 . S
Mn468 O492 2.385 . S
Mn468 O493 2.209 . S
Mn468 O494 2.094 . S
Mn469 O474 2.121 . S
Mn469 N476 2.257 . S
Mn469 N485 2.282 . S
Mn469 O493 2.215 . S
Mn469 O495 2.117 . S
C470 O492 1.234 . S
C470 O493 1.283 . S
C471 O483 1.281 . S
C471 O484 1.236 . S
C472 O494 1.240 . S
C472 O495 1.264 . S
O473 Mn468 2.095 . S
O473 C482 1.250 . S
O474 Mn469 2.121 . S
O474 C482 1.258 . S
C475 N476 1.326 . S
C475 C479 1.460 . S
C475 H481 0.929 . S
N476 Mn469 2.257 . S
N476 C475 1.326 . S
N476 C480 1.362 . S
C477 C478 1.258 . S
C477 C480 1.431 . S
C477 C497 1.449 . S
C478 C477 1.258 . S
C478 C479 1.477 . S
C478 H498 0.931 . S
C479 C475 1.460 . S
C479 C478 1.477 . S
C479 H499 0.930 . S
C480 N476 1.362 . S
C480 C477 1.431 . S
C480 C490 1.476 . S
H481 C475 0.929 . S
C482 O473 1.250 . S
C482 O474 1.258 . S
O483 Mn468 2.162 . S
O483 C471 1.281 . S
O484 Mn468 2.297 . S
O484 C471 1.236 . S
N485 Mn469 2.282 . S
N485 C486 1.328 . S
N485 C490 1.318 . S
C486 N485 1.328 . S
C486 C487 1.457 . S
C486 H491 0.929 . S
C487 C486 1.457 . S
C487 C488 1.291 . S
C487 H500 0.931 . S
C488 C487 1.291 . S
C488 C489 1.373 . S
C488 H501 0.929 . S
C489 C488 1.373 . S
C489 C490 1.396 . S
C489 C496 1.403 . S
C490 C480 1.476 . S
C490 N485 1.318 . S
C490 C489 1.396 . S
H491 C486 0.929 . S
O492 Mn468 2.385 . S
O492 C470 1.234 . S
O493 Mn468 2.209 . S
O493 Mn469 2.215 . S
O493 C470 1.283 . S
O494 Mn468 2.094 . S
O494 C472 1.240 . S
O495 Mn469 2.117 . S
O495 C472 1.264 . S
C496 C489 1.403 . S
C496 C497 1.399 . S
C496 H502 0.929 . S
C497 C477 1.449 . S
C497 C496 1.399 . S
C497 H503 0.930 . S
H498 C478 0.931 . S
H499 C479 0.930 . S
H500 C487 0.931 . S
H501 C488 0.929 . S
H502 C496 0.929 . S
H503 C497 0.930 . S
Mn504 O509 2.095 . S
Mn504 O519 2.162 . S
Mn504 O520 2.297 . S
Mn504 O528 2.385 . S
Mn504 O529 2.209 . S
Mn504 O530 2.094 . S
Mn505 O510 2.121 . S
Mn505 N512 2.257 . S
Mn505 N521 2.282 . S
Mn505 O529 2.215 . S
Mn505 O531 2.117 . S
C506 O528 1.234 . S
C506 O529 1.283 . S
C507 O519 1.281 . S
C507 O520 1.236 . S
C508 O530 1.240 . S
C508 O531 1.264 . S
O509 Mn504 2.095 . S
O509 C518 1.250 . S
O510 Mn505 2.121 . S
O510 C518 1.258 . S
C511 N512 1.326 . S
C511 C515 1.460 . S
C511 H517 0.929 . S
N512 Mn505 2.257 . S
N512 C511 1.326 . S
N512 C516 1.362 . S
C513 C514 1.258 . S
C513 C516 1.431 . S
C513 C533 1.449 . S
C514 C513 1.258 . S
C514 C515 1.477 . S
C514 H534 0.931 . S
C515 C511 1.460 . S
C515 C514 1.477 . S
C515 H535 0.930 . S
C516 N512 1.362 . S
C516 C513 1.431 . S
C516 C526 1.476 . S
H517 C511 0.929 . S
C518 O509 1.250 . S
C518 O510 1.258 . S
O519 Mn504 2.162 . S
O519 C507 1.281 . S
O520 Mn504 2.297 . S
O520 C507 1.236 . S
N521 Mn505 2.282 . S
N521 C522 1.328 . S
N521 C526 1.318 . S
C522 N521 1.328 . S
C522 C523 1.457 . S
C522 H527 0.929 . S
C523 C522 1.457 . S
C523 C524 1.291 . S
C523 H536 0.931 . S
C524 C523 1.291 . S
C524 C525 1.373 . S
C524 H537 0.929 . S
C525 C524 1.373 . S
C525 C526 1.396 . S
C525 C532 1.403 . S
C526 C516 1.476 . S
C526 N521 1.318 . S
C526 C525 1.396 . S
H527 C522 0.929 . S
O528 Mn504 2.385 . S
O528 C506 1.234 . S
O529 Mn504 2.209 . S
O529 Mn505 2.215 . S
O529 C506 1.283 . S
O530 Mn504 2.094 . S
O530 C508 1.240 . S
O531 Mn505 2.117 . S
O531 C508 1.264 . S
C532 C525 1.403 . S
C532 C533 1.399 . S
C532 H538 0.929 . S
C533 C513 1.449 . S
C533 C532 1.399 . S
C533 H539 0.930 . S
H534 C514 0.931 . S
H535 C515 0.930 . S
H536 C523 0.931 . S
H537 C524 0.929 . S
H538 C532 0.929 . S
H539 C533 0.930 . S
Mn540 O545 2.095 . S
Mn540 O555 2.162 . S
Mn540 O556 2.297 . S
Mn540 O564 2.385 . S
Mn540 O565 2.209 . S
Mn540 O566 2.094 . S
Mn541 O546 2.121 . S
Mn541 N548 2.257 . S
Mn541 N557 2.282 . S
Mn541 O565 2.215 . S
Mn541 O567 2.117 . S
C542 O564 1.234 . S
C542 O565 1.283 . S
C543 O555 1.281 . S
C543 O556 1.236 . S
C544 O566 1.240 . S
C544 O567 1.264 . S
O545 Mn540 2.095 . S
O545 C554 1.250 . S
O546 Mn541 2.121 . S
O546 C554 1.258 . S
C547 N548 1.326 . S
C547 C551 1.460 . S
C547 H553 0.929 . S
N548 Mn541 2.257 . S
N548 C547 1.326 . S
N548 C552 1.362 . S
C549 C550 1.258 . S
C549 C552 1.431 . S
C549 C569 1.449 . S
C550 C549 1.258 . S
C550 C551 1.477 . S
C550 H570 0.931 . S
C551 C547 1.460 . S
C551 C550 1.477 . S
C551 H571 0.930 . S
C552 N548 1.362 . S
C552 C549 1.431 . S
C552 C562 1.476 . S
H553 C547 0.929 . S
C554 O545 1.250 . S
C554 O546 1.258 . S
O555 Mn540 2.162 . S
O555 C543 1.281 . S
O556 Mn540 2.297 . S
O556 C543 1.236 . S
N557 Mn541 2.282 . S
N557 C558 1.328 . S
N557 C562 1.318 . S
C558 N557 1.328 . S
C558 C559 1.457 . S
C558 H563 0.929 . S
C559 C558 1.457 . S
C559 C560 1.291 . S
C559 H572 0.931 . S
C560 C559 1.291 . S
C560 C561 1.373 . S
C560 H573 0.929 . S
C561 C560 1.373 . S
C561 C562 1.396 . S
C561 C568 1.403 . S
C562 C552 1.476 . S
C562 N557 1.318 . S
C562 C561 1.396 . S
H563 C558 0.929 . S
O564 Mn540 2.385 . S
O564 C542 1.234 . S
O565 Mn540 2.209 . S
O565 Mn541 2.215 . S
O565 C542 1.283 . S
O566 Mn540 2.094 . S
O566 C544 1.240 . S
O567 Mn541 2.117 . S
O567 C544 1.264 . S
C568 C561 1.403 . S
C568 C569 1.399 . S
C568 H574 0.929 . S
C569 C549 1.449 . S
C569 C568 1.399 . S
C569 H575 0.930 . S
H570 C550 0.931 . S
H571 C551 0.930 . S
H572 C559 0.931 . S
H573 C560 0.929 . S
H574 C568 0.929 . S
H575 C569 0.930 . S
H576 C584 0.950 . S
H577 C589 0.950 . S
H578 C586 0.950 . S
H579 C588 0.950 . S
H580 C590 0.950 . S
H581 C592 0.950 . S
H582 C594 0.950 . S
H583 C595 0.950 . S
C584 H576 0.950 . S
C584 C585 1.386 . S
C584 C586 1.391 . S
C585 C584 1.386 . S
C585 C589 1.393 . S
C586 H578 0.950 . S
C586 C584 1.391 . S
C586 C587 1.400 . S
C587 C586 1.400 . S
C587 C588 1.398 . S
C587 C593 1.491 . S
C588 H579 0.950 . S
C588 C587 1.398 . S
C588 C589 1.391 . S
C589 H577 0.950 . S
C589 C585 1.393 . S
C589 C588 1.391 . S
C590 H580 0.950 . S
C590 C591 1.386 . S
C590 C592 1.391 . S
C591 C590 1.386 . S
C591 C595 1.393 . S
C592 H581 0.950 . S
C592 C590 1.391 . S
C592 C593 1.400 . S
C593 C587 1.491 . S
C593 C592 1.400 . S
C593 C594 1.398 . S
C594 H582 0.950 . S
C594 C593 1.398 . S
C594 C595 1.391 . S
C595 H583 0.950 . S
C595 C591 1.393 . S
C595 C594 1.391 . S
H596 C604 0.950 . S
H597 C609 0.950 . S
H598 C606 0.950 . S
H599 C608 0.950 . S
H600 C610 0.950 . S
H601 C612 0.950 . S
H602 C614 0.950 . S
H603 C615 0.950 . S
C604 H596 0.950 . S
C604 C605 1.386 . S
C604 C606 1.391 . S
C605 C604 1.386 . S
C605 C609 1.393 . S
C606 H598 0.950 . S
C606 C604 1.391 . S
C606 C607 1.400 . S
C607 C606 1.400 . S
C607 C608 1.398 . S
C607 C613 1.491 . S
C608 H599 0.950 . S
C608 C607 1.398 . S
C608 C609 1.391 . S
C609 H597 0.950 . S
C609 C605 1.393 . S
C609 C608 1.391 . S
C610 H600 0.950 . S
C610 C611 1.386 . S
C610 C612 1.391 . S
C611 C610 1.386 . S
C611 C615 1.393 . S
C612 H601 0.950 . S
C612 C610 1.391 . S
C612 C613 1.400 . S
C613 C607 1.491 . S
C613 C612 1.400 . S
C613 C614 1.398 . S
C614 H602 0.950 . S
C614 C613 1.398 . S
C614 C615 1.391 . S
C615 H603 0.950 . S
C615 C611 1.393 . S
C615 C614 1.391 . S
H616 C624 0.950 . S
H617 C629 0.950 . S
H618 C626 0.950 . S
H619 C628 0.950 . S
H620 C630 0.950 . S
H621 C632 0.950 . S
H622 C634 0.950 . S
H623 C635 0.950 . S
C624 H616 0.950 . S
C624 C625 1.386 . S
C624 C626 1.391 . S
C625 C624 1.386 . S
C625 C629 1.393 . S
C626 H618 0.950 . S
C626 C624 1.391 . S
C626 C627 1.400 . S
C627 C626 1.400 . S
C627 C628 1.398 . S
C627 C633 1.491 . S
C628 H619 0.950 . S
C628 C627 1.398 . S
C628 C629 1.391 . S
C629 H617 0.950 . S
C629 C625 1.393 . S
C629 C628 1.391 . S
C630 H620 0.950 . S
C630 C631 1.386 . S
C630 C632 1.391 . S
C631 C630 1.386 . S
C631 C635 1.393 . S
C632 H621 0.950 . S
C632 C630 1.391 . S
C632 C633 1.400 . S
C633 C627 1.491 . S
C633 C632 1.400 . S
C633 C634 1.398 . S
C634 H622 0.950 . S
C634 C633 1.398 . S
C634 C635 1.391 . S
C635 H623 0.950 . S
C635 C631 1.393 . S
C635 C634 1.391 . S
H636 C644 0.950 . S
H637 C649 0.950 . S
H638 C646 0.950 . S
H639 C648 0.950 . S
H640 C650 0.950 . S
H641 C652 0.950 . S
H642 C654 0.950 . S
H643 C655 0.950 . S
C644 H636 0.950 . S
C644 C645 1.386 . S
C644 C646 1.391 . S
C645 C644 1.386 . S
C645 C649 1.393 . S
C646 H638 0.950 . S
C646 C644 1.391 . S
C646 C647 1.400 . S
C647 C646 1.400 . S
C647 C648 1.398 . S
C647 C653 1.491 . S
C648 H639 0.950 . S
C648 C647 1.398 . S
C648 C649 1.391 . S
C649 H637 0.950 . S
C649 C645 1.393 . S
C649 C648 1.391 . S
C650 H640 0.950 . S
C650 C651 1.386 . S
C650 C652 1.391 . S
C651 C650 1.386 . S
C651 C655 1.393 . S
C652 H641 0.950 . S
C652 C650 1.391 . S
C652 C653 1.400 . S
C653 C647 1.491 . S
C653 C652 1.400 . S
C653 C654 1.398 . S
C654 H642 0.950 . S
C654 C653 1.398 . S
C654 C655 1.391 . S
C655 H643 0.950 . S
C655 C651 1.393 . S
C655 C654 1.391 . S
H656 C664 0.950 . S
H657 C669 0.950 . S
H658 C666 0.950 . S
H659 C668 0.950 . S
H660 C670 0.950 . S
H661 C672 0.950 . S
H662 C674 0.950 . S
H663 C675 0.950 . S
C664 H656 0.950 . S
C664 C665 1.386 . S
C664 C666 1.391 . S
C665 C664 1.386 . S
C665 C669 1.393 . S
C666 H658 0.950 . S
C666 C664 1.391 . S
C666 C667 1.400 . S
C667 C666 1.400 . S
C667 C668 1.398 . S
C667 C673 1.491 . S
C668 H659 0.950 . S
C668 C667 1.398 . S
C668 C669 1.391 . S
C669 H657 0.950 . S
C669 C665 1.393 . S
C669 C668 1.391 . S
C670 H660 0.950 . S
C670 C671 1.386 . S
C670 C672 1.391 . S
C671 C670 1.386 . S
C671 C675 1.393 . S
C672 H661 0.950 . S
C672 C670 1.391 . S
C672 C673 1.400 . S
C673 C667 1.491 . S
C673 C672 1.400 . S
C673 C674 1.398 . S
C674 H662 0.950 . S
C674 C673 1.398 . S
C674 C675 1.391 . S
C675 H663 0.950 . S
C675 C671 1.393 . S
C675 C674 1.391 . S
H676 C684 0.950 . S
H677 C689 0.950 . S
H678 C686 0.950 . S
H679 C688 0.950 . S
H680 C690 0.950 . S
H681 C692 0.950 . S
H682 C694 0.950 . S
H683 C695 0.950 . S
C684 H676 0.950 . S
C684 C685 1.386 . S
C684 C686 1.391 . S
C685 C684 1.386 . S
C685 C689 1.393 . S
C686 H678 0.950 . S
C686 C684 1.391 . S
C686 C687 1.400 . S
C687 C686 1.400 . S
C687 C688 1.398 . S
C687 C693 1.491 . S
C688 H679 0.950 . S
C688 C687 1.398 . S
C688 C689 1.391 . S
C689 H677 0.950 . S
C689 C685 1.393 . S
C689 C688 1.391 . S
C690 H680 0.950 . S
C690 C691 1.386 . S
C690 C692 1.391 . S
C691 C690 1.386 . S
C691 C695 1.393 . S
C692 H681 0.950 . S
C692 C690 1.391 . S
C692 C693 1.400 . S
C693 C687 1.491 . S
C693 C692 1.400 . S
C693 C694 1.398 . S
C694 H682 0.950 . S
C694 C693 1.398 . S
C694 C695 1.391 . S
C695 H683 0.950 . S
C695 C691 1.393 . S
C695 C694 1.391 . S
H696 C704 0.950 . S
H697 C709 0.950 . S
H698 C706 0.950 . S
H699 C708 0.950 . S
H700 C710 0.950 . S
H701 C712 0.950 . S
H702 C714 0.950 . S
H703 C715 0.950 . S
C704 H696 0.950 . S
C704 C705 1.386 . S
C704 C706 1.391 . S
C705 C704 1.386 . S
C705 C709 1.393 . S
C706 H698 0.950 . S
C706 C704 1.391 . S
C706 C707 1.400 . S
C707 C706 1.400 . S
C707 C708 1.398 . S
C707 C713 1.491 . S
C708 H699 0.950 . S
C708 C707 1.398 . S
C708 C709 1.391 . S
C709 H697 0.950 . S
C709 C705 1.393 . S
C709 C708 1.391 . S
C710 H700 0.950 . S
C710 C711 1.386 . S
C710 C712 1.391 . S
C711 C710 1.386 . S
C711 C715 1.393 . S
C712 H701 0.950 . S
C712 C710 1.391 . S
C712 C713 1.400 . S
C713 C707 1.491 . S
C713 C712 1.400 . S
C713 C714 1.398 . S
C714 H702 0.950 . S
C714 C713 1.398 . S
C714 C715 1.391 . S
C715 H703 0.950 . S
C715 C711 1.393 . S
C715 C714 1.391 . S
H716 C724 0.950 . S
H717 C729 0.950 . S
H718 C726 0.950 . S
H719 C728 0.950 . S
H720 C730 0.950 . S
H721 C732 0.950 . S
H722 C734 0.950 . S
H723 C735 0.950 . S
C724 H716 0.950 . S
C724 C725 1.386 . S
C724 C726 1.391 . S
C725 C724 1.386 . S
C725 C729 1.393 . S
C726 H718 0.950 . S
C726 C724 1.391 . S
C726 C727 1.400 . S
C727 C726 1.400 . S
C727 C728 1.398 . S
C727 C733 1.491 . S
C728 H719 0.950 . S
C728 C727 1.398 . S
C728 C729 1.391 . S
C729 H717 0.950 . S
C729 C725 1.393 . S
C729 C728 1.391 . S
C730 H720 0.950 . S
C730 C731 1.386 . S
C730 C732 1.391 . S
C731 C730 1.386 . S
C731 C735 1.393 . S
C732 H721 0.950 . S
C732 C730 1.391 . S
C732 C733 1.400 . S
C733 C727 1.491 . S
C733 C732 1.400 . S
C733 C734 1.398 . S
C734 H722 0.950 . S
C734 C733 1.398 . S
C734 C735 1.391 . S
C735 H723 0.950 . S
C735 C731 1.393 . S
C735 C734 1.391 . S
H736 C744 0.950 . S
H737 C749 0.950 . S
H738 C746 0.950 1_545 S
H739 C748 0.950 . S
H740 C750 0.950 . S
H741 C752 0.950 1_565 S
H742 C754 0.950 . S
H743 C755 0.950 . S
C744 H736 0.950 . S
C744 C745 1.386 . S
C744 C746 1.391 . S
C745 C744 1.386 . S
C745 C749 1.393 . S
C746 H738 0.950 1_565 S
C746 C744 1.391 . S
C746 C747 1.400 . S
C747 C746 1.400 . S
C747 C748 1.398 . S
C747 C753 1.491 1_565 S
C748 H739 0.950 . S
C748 C747 1.398 . S
C748 C749 1.391 . S
C749 H737 0.950 . S
C749 C745 1.393 . S
C749 C748 1.391 . S
C750 H740 0.950 . S
C750 C751 1.386 . S
C750 C752 1.391 . S
C751 C750 1.386 . S
C751 C755 1.393 . S
C752 H741 0.950 1_545 S
C752 C750 1.391 . S
C752 C753 1.400 . S
C753 C747 1.491 1_545 S
C753 C752 1.400 . S
C753 C754 1.398 . S
C754 H742 0.950 . S
C754 C753 1.398 . S
C754 C755 1.391 . S
C755 H743 0.950 . S
C755 C751 1.393 . S
C755 C754 1.391 . S
H756 C764 0.950 . S
H757 C769 0.950 . S
H758 C766 0.950 . S
H759 C768 0.950 . S
H760 C770 0.950 . S
H761 C772 0.950 . S
H762 C774 0.950 . S
H763 C775 0.950 . S
C764 H756 0.950 . S
C764 C765 1.386 . S
C764 C766 1.391 . S
C765 C764 1.386 . S
C765 C769 1.393 . S
C766 H758 0.950 . S
C766 C764 1.391 . S
C766 C767 1.400 . S
C767 C766 1.400 . S
C767 C768 1.398 . S
C767 C773 1.491 . S
C768 H759 0.950 . S
C768 C767 1.398 . S
C768 C769 1.391 . S
C769 H757 0.950 . S
C769 C765 1.393 . S
C769 C768 1.391 . S
C770 H760 0.950 . S
C770 C771 1.386 . S
C770 C772 1.391 . S
C771 C770 1.386 . S
C771 C775 1.393 . S
C772 H761 0.950 . S
C772 C770 1.391 . S
C772 C773 1.400 . S
C773 C767 1.491 . S
C773 C772 1.400 . S
C773 C774 1.398 . S
C774 H762 0.950 . S
C774 C773 1.398 . S
C774 C775 1.391 . S
C775 H763 0.950 . S
C775 C771 1.393 . S
C775 C774 1.391 . S
H776 C784 0.950 . S
H777 C789 0.950 . S
H778 C786 0.950 . S
H779 C788 0.950 . S
H780 C790 0.950 . S
H781 C792 0.950 . S
H782 C794 0.950 1_556 S
H783 C795 0.950 . S
C784 H776 0.950 . S
C784 C785 1.386 . S
C784 C786 1.391 . S
C785 C784 1.386 . S
C785 C789 1.393 . S
C786 H778 0.950 . S
C786 C784 1.391 . S
C786 C787 1.400 . S
C787 C786 1.400 . S
C787 C788 1.398 . S
C787 C793 1.491 1_556 S
C788 H779 0.950 . S
C788 C787 1.398 . S
C788 C789 1.391 . S
C789 H777 0.950 . S
C789 C785 1.393 . S
C789 C788 1.391 . S
C790 H780 0.950 . S
C790 C791 1.386 . S
C790 C792 1.391 . S
C791 C790 1.386 . S
C791 C795 1.393 . S
C792 H781 0.950 . S
C792 C790 1.391 . S
C792 C793 1.400 . S
C793 C787 1.491 1_554 S
C793 C792 1.400 . S
C793 C794 1.398 . S
C794 H782 0.950 1_554 S
C794 C793 1.398 . S
C794 C795 1.391 . S
C795 H783 0.950 . S
C795 C791 1.393 . S
C795 C794 1.391 . S
H796 C804 0.950 . S
H797 C809 0.950 . S
H798 C806 0.950 . S
H799 C808 0.950 . S
H800 C810 0.950 . S
H801 C812 0.950 . S
H802 C814 0.950 . S
H803 C815 0.950 . S
C804 H796 0.950 . S
C804 C805 1.386 . S
C804 C806 1.391 . S
C805 C804 1.386 . S
C805 C809 1.393 . S
C806 H798 0.950 . S
C806 C804 1.391 . S
C806 C807 1.400 . S
C807 C806 1.400 . S
C807 C808 1.398 . S
C807 C813 1.491 1_554 S
C808 H799 0.950 . S
C808 C807 1.398 . S
C808 C809 1.391 . S
C809 H797 0.950 . S
C809 C805 1.393 . S
C809 C808 1.391 . S
C810 H800 0.950 . S
C810 C811 1.386 . S
C810 C812 1.391 . S
C811 C810 1.386 . S
C811 C815 1.393 . S
C812 H801 0.950 . S
C812 C810 1.391 . S
C812 C813 1.400 . S
C813 C807 1.491 1_556 S
C813 C812 1.400 . S
C813 C814 1.398 . S
C814 H802 0.950 . S
C814 C813 1.398 . S
C814 C815 1.391 . S
C815 H803 0.950 . S
C815 C811 1.393 . S
C815 C814 1.391 . S
H816 C824 0.950 . S
H817 C829 0.950 . S
H818 C826 0.950 . S
H819 C828 0.950 . S
H820 C830 0.950 . S
H821 C832 0.950 . S
H822 C834 0.950 . S
H823 C835 0.950 . S
C824 H816 0.950 . S
C824 C825 1.386 . S
C824 C826 1.391 . S
C825 C824 1.386 . S
C825 C829 1.393 . S
C826 H818 0.950 . S
C826 C824 1.391 . S
C826 C827 1.400 . S
C827 C826 1.400 . S
C827 C828 1.398 . S
C827 C833 1.491 . S
C828 H819 0.950 . S
C828 C827 1.398 . S
C828 C829 1.391 . S
C829 H817 0.950 . S
C829 C825 1.393 . S
C829 C828 1.391 . S
C830 H820 0.950 . S
C830 C831 1.386 . S
C830 C832 1.391 . S
C831 C830 1.386 . S
C831 C835 1.393 . S
C832 H821 0.950 . S
C832 C830 1.391 . S
C832 C833 1.400 . S
C833 C827 1.491 . S
C833 C832 1.400 . S
C833 C834 1.398 . S
C834 H822 0.950 . S
C834 C833 1.398 . S
C834 C835 1.391 . S
C835 H823 0.950 . S
C835 C831 1.393 . S
C835 C834 1.391 . S
H836 C844 0.950 . S
H837 C849 0.950 . S
H838 C846 0.950 . S
H839 C848 0.950 . S
H840 C850 0.950 . S
H841 C852 0.950 . S
H842 C854 0.950 . S
H843 C855 0.950 . S
C844 H836 0.950 . S
C844 C845 1.386 . S
C844 C846 1.391 . S
C845 C844 1.386 . S
C845 C849 1.393 . S
C846 H838 0.950 . S
C846 C844 1.391 . S
C846 C847 1.400 . S
C847 C846 1.400 . S
C847 C848 1.398 . S
C847 C853 1.491 . S
C848 H839 0.950 . S
C848 C847 1.398 . S
C848 C849 1.391 . S
C849 H837 0.950 . S
C849 C845 1.393 . S
C849 C848 1.391 . S
C850 H840 0.950 . S
C850 C851 1.386 . S
C850 C852 1.391 . S
C851 C850 1.386 . S
C851 C855 1.393 . S
C852 H841 0.950 . S
C852 C850 1.391 . S
C852 C853 1.400 . S
C853 C847 1.491 . S
C853 C852 1.400 . S
C853 C854 1.398 . S
C854 H842 0.950 . S
C854 C853 1.398 . S
C854 C855 1.391 . S
C855 H843 0.950 . S
C855 C851 1.393 . S
C855 C854 1.391 . S
H856 C864 0.950 . S
H857 C869 0.950 . S
H858 C866 0.950 . S
H859 C868 0.950 . S
H860 C870 0.950 . S
H861 C872 0.950 . S
H862 C874 0.950 1_655 S
H863 C875 0.950 . S
C864 H856 0.950 . S
C864 C865 1.386 . S
C864 C866 1.391 . S
C865 C864 1.386 . S
C865 C869 1.393 . S
C866 H858 0.950 . S
C866 C864 1.391 . S
C866 C867 1.400 . S
C867 C866 1.400 . S
C867 C868 1.398 . S
C867 C873 1.491 1_655 S
C868 H859 0.950 . S
C868 C867 1.398 . S
C868 C869 1.391 . S
C869 H857 0.950 . S
C869 C865 1.393 . S
C869 C868 1.391 . S
C870 H860 0.950 . S
C870 C871 1.386 . S
C870 C872 1.391 . S
C871 C870 1.386 . S
C871 C875 1.393 . S
C872 H861 0.950 . S
C872 C870 1.391 . S
C872 C873 1.400 . S
C873 C867 1.491 1_455 S
C873 C872 1.400 . S
C873 C874 1.398 . S
C874 H862 0.950 1_455 S
C874 C873 1.398 . S
C874 C875 1.391 . S
C875 H863 0.950 . S
C875 C871 1.393 . S
C875 C874 1.391 . S
H876 C884 0.950 . S
H877 C889 0.950 . S
H878 C886 0.950 1_455 S
H879 C888 0.950 . S
H880 C890 0.950 . S
H881 C892 0.950 1_655 S
H882 C894 0.950 . S
H883 C895 0.950 . S
C884 H876 0.950 . S
C884 C885 1.386 . S
C884 C886 1.391 . S
C885 C884 1.386 . S
C885 C889 1.393 . S
C886 H878 0.950 1_655 S
C886 C884 1.391 . S
C886 C887 1.400 . S
C887 C886 1.400 . S
C887 C888 1.398 . S
C887 C893 1.491 1_655 S
C888 H879 0.950 . S
C888 C887 1.398 . S
C888 C889 1.391 . S
C889 H877 0.950 . S
C889 C885 1.393 . S
C889 C888 1.391 . S
C890 H880 0.950 . S
C890 C891 1.386 . S
C890 C892 1.391 . S
C891 C890 1.386 . S
C891 C895 1.393 . S
C892 H881 0.950 1_455 S
C892 C890 1.391 . S
C892 C893 1.400 . S
C893 C887 1.491 1_455 S
C893 C892 1.400 . S
C893 C894 1.398 . S
C894 H882 0.950 . S
C894 C893 1.398 . S
C894 C895 1.391 . S
C895 H883 0.950 . S
C895 C891 1.393 . S
C895 C894 1.391 . S
H896 C904 0.950 . S
H897 C909 0.950 . S
H898 C906 0.950 . S
H899 C908 0.950 . S
H900 C910 0.950 . S
H901 C912 0.950 . S
H902 C914 0.950 . S
H903 C915 0.950 . S
C904 H896 0.950 . S
C904 C905 1.386 . S
C904 C906 1.391 . S
C905 C904 1.386 . S
C905 C909 1.393 . S
C906 H898 0.950 . S
C906 C904 1.391 . S
C906 C907 1.400 . S
C907 C906 1.400 . S
C907 C908 1.398 . S
C907 C913 1.491 . S
C908 H899 0.950 . S
C908 C907 1.398 . S
C908 C909 1.391 . S
C909 H897 0.950 . S
C909 C905 1.393 . S
C909 C908 1.391 . S
C910 H900 0.950 . S
C910 C911 1.386 . S
C910 C912 1.391 . S
C911 C910 1.386 . S
C911 C915 1.393 . S
C912 H901 0.950 . S
C912 C910 1.391 . S
C912 C913 1.400 . S
C913 C907 1.491 . S
C913 C912 1.400 . S
C913 C914 1.398 . S
C914 H902 0.950 . S
C914 C913 1.398 . S
C914 C915 1.391 . S
C915 H903 0.950 . S
C915 C911 1.393 . S
C915 C914 1.391 . S
H916 C924 0.950 . S
H917 C929 0.950 . S
H918 C926 0.950 . S
H919 C928 0.950 . S
H920 C930 0.950 . S
H921 C932 0.950 . S
H922 C934 0.948 1_545 S
H923 C935 0.950 . S
C924 H916 0.950 . S
C924 C925 1.386 . S
C924 C926 1.391 . S
C925 C924 1.386 . S
C925 C929 1.393 . S
C926 H918 0.950 . S
C926 C924 1.391 . S
C926 C927 1.400 . S
C927 C926 1.400 . S
C927 C928 1.398 . S
C927 C933 1.491 . S
C928 H919 0.950 . S
C928 C927 1.398 . S
C928 C929 1.391 . S
C929 H917 0.950 . S
C929 C925 1.393 . S
C929 C928 1.391 . S
C930 H920 0.950 . S
C930 C931 1.386 . S
C930 C932 1.391 . S
C931 C930 1.386 . S
C931 C935 1.393 . S
C932 H921 0.950 . S
C932 C930 1.391 . S
C932 C933 1.400 1_565 S
C933 C927 1.491 . S
C933 C932 1.400 1_545 S
C933 C934 1.398 1_545 S
C934 H922 0.948 1_565 S
C934 C933 1.398 1_565 S
C934 C935 1.393 . S
C935 H923 0.950 . S
C935 C931 1.393 . S
C935 C934 1.393 . S
H936 C944 0.950 . S
H937 C949 0.950 . S
H938 C946 0.950 . S
H939 C948 0.950 . S
H940 C950 0.950 . S
H941 C952 0.950 . S
H942 C954 0.950 . S
H943 C955 0.950 . S
C944 H936 0.950 . S
C944 C945 1.386 . S
C944 C946 1.391 . S
C945 C944 1.386 . S
C945 C949 1.393 . S
C946 H938 0.950 . S
C946 C944 1.391 . S
C946 C947 1.400 . S
C947 C946 1.400 . S
C947 C948 1.398 . S
C947 C953 1.491 . S
C948 H939 0.950 . S
C948 C947 1.398 . S
C948 C949 1.391 . S
C949 H937 0.950 . S
C949 C945 1.393 . S
C949 C948 1.391 . S
C950 H940 0.950 . S
C950 C951 1.386 . S
C950 C952 1.391 . S
C951 C950 1.386 . S
C951 C955 1.393 . S
C952 H941 0.950 . S
C952 C950 1.391 . S
C952 C953 1.400 . S
C953 C947 1.491 . S
C953 C952 1.400 . S
C953 C954 1.398 . S
C954 H942 0.950 . S
C954 C953 1.398 . S
C954 C955 1.391 . S
C955 H943 0.950 . S
C955 C951 1.393 . S
C955 C954 1.391 . S
H956 C964 0.950 . S
H957 C969 0.950 . S
H958 C966 0.950 . S
H959 C968 0.950 . S
H960 C970 0.950 . S
H961 C972 0.950 1_554 S
H962 C974 0.950 . S
H963 C975 0.950 . S
C964 H956 0.950 . S
C964 C965 1.386 . S
C964 C966 1.391 . S
C965 C964 1.386 . S
C965 C969 1.393 . S
C966 H958 0.950 . S
C966 C964 1.391 . S
C966 C967 1.400 . S
C967 C966 1.400 . S
C967 C968 1.398 . S
C967 C973 1.491 1_554 S
C968 H959 0.950 . S
C968 C967 1.398 . S
C968 C969 1.391 . S
C969 H957 0.950 . S
C969 C965 1.393 . S
C969 C968 1.391 . S
C970 H960 0.950 . S
C970 C971 1.386 . S
C970 C972 1.391 . S
C971 C970 1.386 . S
C971 C975 1.393 . S
C972 H961 0.950 1_556 S
C972 C970 1.391 . S
C972 C973 1.400 . S
C973 C967 1.491 1_556 S
C973 C972 1.400 . S
C973 C974 1.398 . S
C974 H962 0.950 . S
C974 C973 1.398 . S
C974 C975 1.391 . S
C975 H963 0.950 . S
C975 C971 1.393 . S
C975 C974 1.391 . S
H976 C984 0.950 . S
H977 C989 0.950 . S
H978 C986 0.950 . S
H979 C988 0.950 1_554 S
H980 C990 0.950 . S
H981 C992 0.950 . S
H982 C994 0.950 1_556 S
H983 C995 0.950 . S
C984 H976 0.950 . S
C984 C985 1.386 . S
C984 C986 1.391 . S
C985 C984 1.386 . S
C985 C989 1.393 . S
C986 H978 0.950 . S
C986 C984 1.391 . S
C986 C987 1.400 . S
C987 C986 1.400 . S
C987 C988 1.398 . S
C987 C993 1.491 1_556 S
C988 H979 0.950 1_556 S
C988 C987 1.398 . S
C988 C989 1.391 . S
C989 H977 0.950 . S
C989 C985 1.393 . S
C989 C988 1.391 . S
C990 H980 0.950 . S
C990 C991 1.386 . S
C990 C992 1.391 . S
C991 C990 1.386 . S
C991 C995 1.393 . S
C992 H981 0.950 . S
C992 C990 1.391 . S
C992 C993 1.400 . S
C993 C987 1.491 1_554 S
C993 C992 1.400 . S
C993 C994 1.398 . S
C994 H982 0.950 1_554 S
C994 C993 1.398 . S
C994 C995 1.391 . S
C995 H983 0.950 . S
C995 C991 1.393 . S
C995 C994 1.391 . S
H996 C1004 0.950 . S
H997 C1009 0.950 . S
H998 C1006 0.950 . S
H999 C1008 0.950 . S
H1000 C1010 0.950 . S
H1001 C1012 0.950 . S
H1002 C1014 0.950 . S
H1003 C1015 0.950 . S
C1004 H996 0.950 . S
C1004 C1005 1.386 . S
C1004 C1006 1.391 . S
C1005 C1004 1.386 . S
C1005 C1009 1.393 . S
C1006 H998 0.950 . S
C1006 C1004 1.391 . S
C1006 C1007 1.400 . S
C1007 C1006 1.400 . S
C1007 C1008 1.398 . S
C1007 C1013 1.491 . S
C1008 H999 0.950 . S
C1008 C1007 1.398 . S
C1008 C1009 1.391 . S
C1009 H997 0.950 . S
C1009 C1005 1.393 . S
C1009 C1008 1.391 . S
C1010 H1000 0.950 . S
C1010 C1011 1.386 . S
C1010 C1012 1.391 . S
C1011 C1010 1.386 . S
C1011 C1015 1.393 . S
C1012 H1001 0.950 . S
C1012 C1010 1.391 . S
C1012 C1013 1.400 . S
C1013 C1007 1.491 . S
C1013 C1012 1.400 . S
C1013 C1014 1.398 . S
C1014 H1002 0.950 . S
C1014 C1013 1.398 . S
C1014 C1015 1.391 . S
C1015 H1003 0.950 . S
C1015 C1011 1.393 . S
C1015 C1014 1.391 . S
H1016 C1024 0.950 . S
H1017 C1029 0.950 . S
H1018 C1026 0.950 . S
H1019 C1028 0.950 . S
H1020 C1030 0.950 . S
H1021 C1032 0.950 . S
H1022 C1034 0.950 . S
H1023 C1035 0.950 . S
C1024 H1016 0.950 . S
C1024 C1025 1.386 . S
C1024 C1026 1.391 . S
C1025 C1024 1.386 . S
C1025 C1029 1.393 . S
C1026 H1018 0.950 . S
C1026 C1024 1.391 . S
C1026 C1027 1.400 . S
C1027 C1026 1.400 . S
C1027 C1028 1.398 . S
C1027 C1033 1.491 . S
C1028 H1019 0.950 . S
C1028 C1027 1.398 . S
C1028 C1029 1.391 . S
C1029 H1017 0.950 . S
C1029 C1025 1.393 . S
C1029 C1028 1.391 . S
C1030 H1020 0.950 . S
C1030 C1031 1.386 . S
C1030 C1032 1.391 . S
C1031 C1030 1.386 . S
C1031 C1035 1.393 . S
C1032 H1021 0.950 . S
C1032 C1030 1.391 . S
C1032 C1033 1.400 . S
C1033 C1027 1.491 . S
C1033 C1032 1.400 . S
C1033 C1034 1.398 . S
C1034 H1022 0.950 . S
C1034 C1033 1.398 . S
C1034 C1035 1.391 . S
C1035 H1023 0.950 . S
C1035 C1031 1.393 . S
C1035 C1034 1.391 . S
H1036 C1044 0.950 . S
H1037 C1049 0.950 . S
H1038 C1046 0.950 1_655 S
H1039 C1048 0.950 . S
H1040 C1050 0.950 . S
H1041 C1052 0.950 1_455 S
H1042 C1054 0.950 . S
H1043 C1055 0.950 . S
C1044 H1036 0.950 . S
C1044 C1045 1.386 . S
C1044 C1046 1.391 . S
C1045 C1044 1.386 . S
C1045 C1049 1.393 . S
C1046 H1038 0.950 1_455 S
C1046 C1044 1.391 . S
C1046 C1047 1.400 . S
C1047 C1046 1.400 . S
C1047 C1048 1.398 . S
C1047 C1053 1.491 1_455 S
C1048 H1039 0.950 . S
C1048 C1047 1.398 . S
C1048 C1049 1.391 . S
C1049 H1037 0.950 . S
C1049 C1045 1.393 . S
C1049 C1048 1.391 . S
C1050 H1040 0.950 . S
C1050 C1051 1.386 . S
C1050 C1052 1.391 . S
C1051 C1050 1.386 . S
C1051 C1055 1.393 . S
C1052 H1041 0.950 1_655 S
C1052 C1050 1.391 . S
C1052 C1053 1.400 . S
C1053 C1047 1.491 1_655 S
C1053 C1052 1.400 . S
C1053 C1054 1.398 . S
C1054 H1042 0.950 . S
C1054 C1053 1.398 . S
C1054 C1055 1.391 . S
C1055 H1043 0.950 . S
C1055 C1051 1.393 . S
C1055 C1054 1.391 . S
H1056 C1064 0.950 . S
H1057 C1069 0.950 . S
H1058 C1066 0.950 . S
H1059 C1068 0.950 . S
H1060 C1070 0.950 . S
H1061 C1072 0.950 1_455 S
H1062 C1074 0.950 . S
H1063 C1075 0.950 . S
C1064 H1056 0.950 . S
C1064 C1065 1.386 . S
C1064 C1066 1.391 . S
C1065 C1064 1.386 . S
C1065 C1069 1.393 . S
C1066 H1058 0.950 . S
C1066 C1064 1.391 . S
C1066 C1067 1.400 . S
C1067 C1066 1.400 . S
C1067 C1068 1.398 . S
C1067 C1073 1.491 1_455 S
C1068 H1059 0.950 . S
C1068 C1067 1.398 . S
C1068 C1069 1.391 . S
C1069 H1057 0.950 . S
C1069 C1065 1.393 . S
C1069 C1068 1.391 . S
C1070 H1060 0.950 . S
C1070 C1071 1.386 . S
C1070 C1072 1.391 . S
C1071 C1070 1.386 . S
C1071 C1075 1.393 . S
C1072 H1061 0.950 1_655 S
C1072 C1070 1.391 . S
C1072 C1073 1.400 . S
C1073 C1067 1.491 1_655 S
C1073 C1072 1.400 . S
C1073 C1074 1.398 . S
C1074 H1062 0.950 . S
C1074 C1073 1.398 . S
C1074 C1075 1.391 . S
C1075 H1063 0.950 . S
C1075 C1071 1.393 . S
C1075 C1074 1.391 . S
H1076 C1084 0.950 . S
H1077 C1089 0.950 . S
H1078 C1086 0.950 . S
H1079 C1088 0.950 . S
H1080 C1090 0.950 . S
H1081 C1092 0.950 . S
H1082 C1094 0.950 . S
H1083 C1095 0.950 . S
C1084 H1076 0.950 . S
C1084 C1085 1.386 . S
C1084 C1086 1.391 . S
C1085 C1084 1.386 . S
C1085 C1089 1.393 . S
C1086 H1078 0.950 . S
C1086 C1084 1.391 . S
C1086 C1087 1.400 . S
C1087 C1086 1.400 . S
C1087 C1088 1.398 . S
C1087 C1093 1.491 . S
C1088 H1079 0.950 . S
C1088 C1087 1.398 . S
C1088 C1089 1.391 . S
C1089 H1077 0.950 . S
C1089 C1085 1.393 . S
C1089 C1088 1.391 . S
C1090 H1080 0.950 . S
C1090 C1091 1.386 . S
C1090 C1092 1.391 . S
C1091 C1090 1.386 . S
C1091 C1095 1.393 . S
C1092 H1081 0.950 . S
C1092 C1090 1.391 . S
C1092 C1093 1.400 . S
C1093 C1087 1.491 . S
C1093 C1092 1.400 . S
C1093 C1094 1.398 . S
C1094 H1082 0.950 . S
C1094 C1093 1.398 . S
C1094 C1095 1.391 . S
C1095 H1083 0.950 . S
C1095 C1091 1.393 . S
C1095 C1094 1.391 . S
H1096 C1104 0.950 . S
H1097 C1109 0.950 . S
H1098 C1106 0.950 . S
H1099 C1108 0.950 . S
H1100 C1110 0.950 . S
H1101 C1112 0.950 . S
H1102 C1114 0.950 . S
H1103 C1115 0.950 . S
C1104 H1096 0.950 . S
C1104 C1105 1.386 . S
C1104 C1106 1.391 . S
C1105 C1104 1.386 . S
C1105 C1109 1.393 . S
C1106 H1098 0.950 . S
C1106 C1104 1.391 . S
C1106 C1107 1.400 . S
C1107 C1106 1.400 . S
C1107 C1108 1.398 . S
C1107 C1113 1.491 . S
C1108 H1099 0.950 . S
C1108 C1107 1.398 . S
C1108 C1109 1.391 . S
C1109 H1097 0.950 . S
C1109 C1105 1.393 . S
C1109 C1108 1.391 . S
C1110 H1100 0.950 . S
C1110 C1111 1.386 . S
C1110 C1112 1.391 . S
C1111 C1110 1.386 . S
C1111 C1115 1.393 . S
C1112 H1101 0.950 . S
C1112 C1110 1.391 . S
C1112 C1113 1.400 . S
C1113 C1107 1.491 . S
C1113 C1112 1.400 . S
C1113 C1114 1.398 . S
C1114 H1102 0.950 . S
C1114 C1113 1.398 . S
C1114 C1115 1.391 . S
C1115 H1103 0.950 . S
C1115 C1111 1.393 . S
C1115 C1114 1.391 . S
H1116 C1124 0.950 . S
H1117 C1129 0.950 . S
H1118 C1126 0.950 1_565 S
H1119 C1128 0.950 . S
H1120 C1130 0.950 . S
H1121 C1132 0.950 . S
H1122 C1134 0.950 . S
H1123 C1135 0.950 . S
C1124 H1116 0.950 . S
C1124 C1125 1.386 . S
C1124 C1126 1.391 . S
C1125 C1124 1.386 . S
C1125 C1129 1.393 . S
C1126 H1118 0.950 1_545 S
C1126 C1124 1.391 . S
C1126 C1127 1.400 . S
C1127 C1126 1.400 . S
C1127 C1128 1.398 . S
C1127 C1133 1.491 1_545 S
C1128 H1119 0.950 . S
C1128 C1127 1.398 . S
C1128 C1129 1.391 . S
C1129 H1117 0.950 . S
C1129 C1125 1.393 . S
C1129 C1128 1.391 . S
C1130 H1120 0.950 . S
C1130 C1131 1.386 . S
C1130 C1132 1.391 . S
C1131 C1130 1.386 . S
C1131 C1135 1.393 . S
C1132 H1121 0.950 . S
C1132 C1130 1.391 . S
C1132 C1133 1.400 . S
C1133 C1127 1.491 1_565 S
C1133 C1132 1.400 . S
C1133 C1134 1.398 . S
C1134 H1122 0.950 . S
C1134 C1133 1.398 . S
C1134 C1135 1.391 . S
C1135 H1123 0.950 . S
C1135 C1131 1.393 . S
C1135 C1134 1.391 . S
H1136 C1144 0.950 . S
H1137 C1149 0.950 . S
H1138 C1146 0.950 . S
H1139 C1148 0.950 . S
H1140 C1150 0.950 . S
H1141 C1152 0.950 . S
H1142 C1154 0.950 . S
H1143 C1155 0.950 . S
C1144 H1136 0.950 . S
C1144 C1145 1.386 . S
C1144 C1146 1.391 . S
C1145 C1144 1.386 . S
C1145 C1149 1.393 . S
C1146 H1138 0.950 . S
C1146 C1144 1.391 . S
C1146 C1147 1.400 . S
C1147 C1146 1.400 . S
C1147 C1148 1.398 . S
C1147 C1153 1.491 . S
C1148 H1139 0.950 . S
C1148 C1147 1.398 . S
C1148 C1149 1.391 . S
C1149 H1137 0.950 . S
C1149 C1145 1.393 . S
C1149 C1148 1.391 . S
C1150 H1140 0.950 . S
C1150 C1151 1.386 . S
C1150 C1152 1.391 . S
C1151 C1150 1.386 . S
C1151 C1155 1.393 . S
C1152 H1141 0.950 . S
C1152 C1150 1.391 . S
C1152 C1153 1.400 . S
C1153 C1147 1.491 . S
C1153 C1152 1.400 . S
C1153 C1154 1.398 . S
C1154 H1142 0.950 . S
C1154 C1153 1.398 . S
C1154 C1155 1.391 . S
C1155 H1143 0.950 . S
C1155 C1151 1.393 . S
C1155 C1154 1.391 . S
H1156 C1164 0.950 . S
H1157 C1169 0.950 . S
H1158 C1166 0.950 . S
H1159 C1168 0.950 . S
H1160 C1170 0.950 . S
H1161 C1172 0.950 . S
H1162 C1174 0.950 . S
H1163 C1175 0.950 . S
C1164 H1156 0.950 . S
C1164 C1165 1.386 . S
C1164 C1166 1.391 . S
C1165 C1164 1.386 . S
C1165 C1169 1.393 . S
C1166 H1158 0.950 . S
C1166 C1164 1.391 . S
C1166 C1167 1.400 . S
C1167 C1166 1.400 . S
C1167 C1168 1.398 . S
C1167 C1173 1.491 . S
C1168 H1159 0.950 . S
C1168 C1167 1.398 . S
C1168 C1169 1.391 . S
C1169 H1157 0.950 . S
C1169 C1165 1.393 . S
C1169 C1168 1.391 . S
C1170 H1160 0.950 . S
C1170 C1171 1.386 . S
C1170 C1172 1.391 . S
C1171 C1170 1.386 . S
C1171 C1175 1.393 . S
C1172 H1161 0.950 . S
C1172 C1170 1.391 . S
C1172 C1173 1.400 . S
C1173 C1167 1.491 . S
C1173 C1172 1.400 . S
C1173 C1174 1.398 . S
C1174 H1162 0.950 . S
C1174 C1173 1.398 . S
C1174 C1175 1.391 . S
C1175 H1163 0.950 . S
C1175 C1171 1.393 . S
C1175 C1174 1.391 . S
H1176 C1184 0.950 . S
H1177 C1189 0.950 . S
H1178 C1186 0.950 . S
H1179 C1188 0.950 . S
H1180 C1190 0.950 . S
H1181 C1192 0.950 . S
H1182 C1194 0.950 . S
H1183 C1195 0.950 . S
C1184 H1176 0.950 . S
C1184 C1185 1.386 . S
C1184 C1186 1.391 . S
C1185 C1184 1.386 . S
C1185 C1189 1.393 . S
C1186 H1178 0.950 . S
C1186 C1184 1.391 . S
C1186 C1187 1.400 . S
C1187 C1186 1.400 . S
C1187 C1188 1.398 . S
C1187 C1193 1.491 1_545 S
C1188 H1179 0.950 . S
C1188 C1187 1.398 . S
C1188 C1189 1.391 . S
C1189 H1177 0.950 . S
C1189 C1185 1.393 . S
C1189 C1188 1.391 . S
C1190 H1180 0.950 . S
C1190 C1191 1.386 . S
C1190 C1192 1.391 . S
C1191 C1190 1.386 . S
C1191 C1195 1.393 . S
C1192 H1181 0.950 . S
C1192 C1190 1.391 . S
C1192 C1193 1.400 . S
C1193 C1187 1.491 1_565 S
C1193 C1192 1.400 . S
C1193 C1194 1.398 . S
C1194 H1182 0.950 . S
C1194 C1193 1.398 . S
C1194 C1195 1.391 . S
C1195 H1183 0.950 . S
C1195 C1191 1.393 . S
C1195 C1194 1.391 . S
H1196 C1204 0.950 . S
H1197 C1209 0.950 . S
H1198 C1206 0.950 . S
H1199 C1208 0.950 . S
H1200 C1210 0.950 . S
H1201 C1212 0.950 . S
H1202 C1214 0.950 . S
H1203 C1215 0.950 . S
C1204 H1196 0.950 . S
C1204 C1205 1.386 . S
C1204 C1206 1.391 . S
C1205 C1204 1.386 . S
C1205 C1209 1.393 . S
C1206 H1198 0.950 . S
C1206 C1204 1.391 . S
C1206 C1207 1.400 . S
C1207 C1206 1.400 . S
C1207 C1208 1.398 . S
C1207 C1213 1.491 . S
C1208 H1199 0.950 . S
C1208 C1207 1.398 . S
C1208 C1209 1.391 . S
C1209 H1197 0.950 . S
C1209 C1205 1.393 . S
C1209 C1208 1.391 . S
C1210 H1200 0.950 . S
C1210 C1211 1.386 . S
C1210 C1212 1.391 . S
C1211 C1210 1.386 . S
C1211 C1215 1.393 . S
C1212 H1201 0.950 . S
C1212 C1210 1.391 . S
C1212 C1213 1.400 . S
C1213 C1207 1.491 . S
C1213 C1212 1.400 . S
C1213 C1214 1.398 . S
C1214 H1202 0.950 . S
C1214 C1213 1.398 . S
C1214 C1215 1.391 . S
C1215 H1203 0.950 . S
C1215 C1211 1.393 . S
C1215 C1214 1.391 . S
C585 C2 1.240 . S
C591 C470 1.237 . S
C605 C38 0.989 . S
C611 C326 0.986 . S
C625 C506 1.024 . S
C631 C74 1.025 . S
C645 C110 1.217 . S
C651 C542 1.220 . S
C665 C146 0.987 . S
C671 C218 0.984 . S
C685 C362 1.241 . S
C691 C182 1.237 . S
C705 C398 1.017 . S
C711 C254 1.020 . S
C725 C290 1.221 . S
C731 C434 1.215 . S
C745 C75 1.632 . S
C751 C14 1.522 . S
C765 C50 1.676 . S
C771 C122 1.670 . S
C785 C435 1.654 . S
C791 C3 1.652 . S
C805 C39 1.733 . S
C811 C400 1.720 . S
C825 C147 1.728 . S
C831 C76 1.729 . S
C845 C363 1.656 . S
C851 C111 1.652 . S
C865 C40 1.789 . S
C871 C4 1.776 . S
C885 C112 0.975 . S
C891 C86 0.925 . S
C905 C364 1.780 . S
C911 C148 1.789 . S
C925 C256 1.677 . S
C931 C183 1.679 . S
C945 C219 1.262 . S
C951 C292 1.259 . S
C965 C543 1.677 . S
C971 C194 1.556 . S
C985 C230 1.374 . S
C991 C507 1.467 . S
C1005 C338 1.388 . S
C1011 C255 1.472 . S
C1025 C291 1.677 . S
C1031 C482 1.556 . S
C1045 C220 1.697 . S
C1051 C184 1.694 . S
C1065 C302 1.721 . S
C1071 C266 1.720 . S
C1085 C328 1.693 . S
C1091 C472 1.690 . S
C1105 C374 1.542 . S
C1111 C399 1.632 . S
C1125 C446 1.659 . S
C1131 C158 1.662 . S
C1145 C436 0.971 . S
C1151 C410 0.914 . S
C1165 C508 1.679 . S
C1171 C471 1.681 . S
C1185 C327 1.263 . S
C1191 C544 1.260 . S
C1205 C554 1.709 . S
C1211 C518 1.728 . S
