# Generated by pormake.
# Topology tsi, (8)-cn, num edge types: 1
# Building blocks:
#     Node 0, Type 0, BuildingBlock: TAGTUT_clean_sbu_1, # of connection points: 8
#     Node 1, Type 0, BuildingBlock: TAGTUT_clean_sbu_1, # of connection points: 8
#     Node 2, Type 0, BuildingBlock: TAGTUT_clean_sbu_1, # of connection points: 8
#     Node 3, Type 0, BuildingBlock: TAGTUT_clean_sbu_1, # of connection points: 8
#     Edge 4, Type (0, 0), BuildingBlock: MIFKUJ_clean_linker_0, # of connection points: 2
#     Edge 5, Type (0, 0), BuildingBlock: MIFKUJ_clean_linker_0, # of connection points: 2
#     Edge 6, Type (0, 0), BuildingBlock: MIFKUJ_clean_linker_0, # of connection points: 2
#     Edge 7, Type (0, 0), BuildingBlock: MIFKUJ_clean_linker_0, # of connection points: 2
#     Edge 8, Type (0, 0), BuildingBlock: MIFKUJ_clean_linker_0, # of connection points: 2
#     Edge 9, Type (0, 0), BuildingBlock: MIFKUJ_clean_linker_0, # of connection points: 2
#     Edge 10, Type (0, 0), BuildingBlock: MIFKUJ_clean_linker_0, # of connection points: 2
#     Edge 11, Type (0, 0), BuildingBlock: MIFKUJ_clean_linker_0, # of connection points: 2
#     Edge 12, Type (0, 0), BuildingBlock: MIFKUJ_clean_linker_0, # of connection points: 2
#     Edge 13, Type (0, 0), BuildingBlock: MIFKUJ_clean_linker_0, # of connection points: 2
#     Edge 14, Type (0, 0), BuildingBlock: MIFKUJ_clean_linker_0, # of connection points: 2
#     Edge 15, Type (0, 0), BuildingBlock: MIFKUJ_clean_linker_0, # of connection points: 2
#     Edge 16, Type (0, 0), BuildingBlock: MIFKUJ_clean_linker_0, # of connection points: 2
#     Edge 17, Type (0, 0), BuildingBlock: MIFKUJ_clean_linker_0, # of connection points: 2
#     Edge 18, Type (0, 0), BuildingBlock: MIFKUJ_clean_linker_0, # of connection points: 2
#     Edge 19, Type (0, 0), BuildingBlock: MIFKUJ_clean_linker_0, # of connection points: 2
# Relax obj value: 0.133
# Max RMSD: 0.247
# Mean RMSD: 0.247
data_MOF--net-tsi--node1-TAGTUT_clean_sbu_1--edge1-MIFKUJ_clean_linker_0
_symmetry_space_group_name_H-M    P1
_symmetry_Int_Tables_number       1
_symmetry_cell_setting            triclinic
loop_
_symmetry_equiv_pos_as_xyz
'x, y, z'
_cell_length_a     19.561781
_cell_length_b     20.327885
_cell_length_c     81.271842
_cell_angle_alpha  93.557635
_cell_angle_beta   91.572759
_cell_angle_gamma 110.44429
loop_
_atom_site_label
_atom_site_type_symbol
_atom_site_fract_x
_atom_site_fract_y
_atom_site_fract_z
_atom_type_partial_charge
C0 C 0.04241 0.22095 0.42915 0.0
C1 C 0.00818 0.40758 0.41746 0.0
C2 C 0.87513 0.24304 0.36019 0.0
Mg3 Mg 0.12362 0.3437 0.40784 0.0
O4 O 0.05602 0.28638 0.39176 0.0
Mg5 Mg 0.95011 0.24686 0.396 0.0
Mg6 Mg 0.04866 0.31431 0.36908 0.0
O7 O 0.04149 0.33942 0.34608 0.0
Mg8 Mg 0.98691 0.26273 0.33163 0.0
Mg9 Mg 0.14806 0.38428 0.34198 0.0
C10 C 0.22625 0.36349 0.37749 0.0
C11 C 0.10229 0.48559 0.36888 0.0
O12 O 0.98424 0.20947 0.42001 0.0
O13 O 0.10362 0.26818 0.42637 0.0
O14 O 0.9582 0.35069 0.41132 0.0
O15 O 0.07605 0.41951 0.41557 0.0
O16 O 0.2207 0.36702 0.39323 0.0
O17 O 0.17022 0.3469 0.36745 0.0
C18 C 0.99082 0.14301 0.3691 0.0
O19 O 0.03136 0.19708 0.3621 0.0
O20 O 0.95315 0.14893 0.38139 0.0
O21 O 0.10746 0.41215 0.31671 0.0
O22 O -0.00353 0.32653 0.31159 0.0
O23 O 0.15437 0.28744 0.32737 0.0
C24 C 0.04801 0.38159 0.30774 0.0
O25 O 0.04874 0.1978 0.32407 0.0
O26 O 0.88693 0.22746 0.34521 0.0
C27 C 0.11671 0.22508 0.32159 0.0
O28 O 0.92658 0.2817 0.37049 0.0
O29 O 0.06499 0.43143 0.37627 0.0
O30 O 0.13789 0.48009 0.3562 0.0
C31 C 0.99139 0.66205 0.69063 0.0
C32 C 0.91432 0.81592 0.67722 0.0
C33 C 0.80313 0.66513 0.62111 0.0
Mg34 Mg 0.04526 0.78095 0.66667 0.0
O35 O 0.99008 0.70348 0.65252 0.0
Mg36 Mg 0.88488 0.65613 0.6571 0.0
Mg37 Mg 0.98138 0.72545 0.6294 0.0
O38 O 0.9729 0.74978 0.60642 0.0
Mg39 Mg 0.90709 0.68749 0.59074 0.0
Mg40 Mg 0.07918 0.78813 0.6021 0.0
C41 C 0.15582 0.79715 0.63805 0.0
C42 C 0.03809 0.89585 0.62792 0.0
O43 O 0.93064 0.63083 0.68215 0.0
O44 O 0.04112 0.71782 0.68653 0.0
O45 O 0.87751 0.75322 0.67149 0.0
O46 O 0.98225 0.84411 0.67476 0.0
O47 O 0.14445 0.81463 0.65294 0.0
O48 O 0.10359 0.75844 0.62795 0.0
C49 C 0.93073 0.55471 0.63042 0.0
O50 O 0.96658 0.6086 0.62279 0.0
O51 O 0.89587 0.56041 0.64319 0.0
O52 O 0.0443 0.81968 0.57752 0.0
O53 O 0.92524 0.75892 0.57125 0.0
O54 O 0.07345 0.68249 0.58804 0.0
C55 C 0.98629 0.80582 0.56819 0.0
O56 O 0.95637 0.61189 0.58406 0.0
O57 O 0.81014 0.65981 0.60543 0.0
C58 C 0.02437 0.62413 0.58242 0.0
O59 O 0.85876 0.69014 0.63135 0.0
O60 O -0.0018 0.84329 0.63551 0.0
O61 O 0.07491 0.88763 0.61566 0.0
C62 C 0.50097 0.68145 0.92979 0.0
C63 C 0.46934 0.86851 0.91593 0.0
C64 C 0.34258 0.69923 0.85926 0.0
Mg65 Mg 0.58601 0.80224 0.90852 0.0
O66 O 0.52094 0.744 0.89218 0.0
Mg67 Mg 0.41394 0.7057 0.89569 0.0
Mg68 Mg 0.51651 0.76843 0.8691 0.0
O69 O 0.51111 0.78948 0.84581 0.0
Mg70 Mg 0.45743 0.71028 0.83185 0.0
Mg71 Mg 0.61739 0.83447 0.84203 0.0
C72 C 0.69381 0.82759 0.87884 0.0
C73 C 0.56916 0.93853 0.86751 0.0
O74 O 0.44412 0.67148 0.92034 0.0
O75 O 0.56372 0.72668 0.92718 0.0
O76 O 0.41961 0.81161 0.90973 0.0
O77 O 0.53733 0.87826 0.91526 0.0
O78 O 0.68488 0.83117 0.89446 0.0
O79 O 0.63937 0.80305 0.86826 0.0
C80 C 0.4582 0.59814 0.87054 0.0
O81 O 0.4998 0.65092 0.86331 0.0
O82 O 0.41886 0.60597 0.88233 0.0
O83 O 0.57675 0.85729 0.81617 0.0
O84 O 0.46684 0.7701 0.81115 0.0
O85 O 0.6249 0.73479 0.82893 0.0
C86 C 0.51788 0.82508 0.80712 0.0
O87 O 0.52 0.64423 0.82563 0.0
O88 O 0.35548 0.68038 0.84461 0.0
C89 C 0.58855 0.67125 0.82375 0.0
O90 O 0.39418 0.73675 0.86965 0.0
O91 O 0.53198 0.88538 0.87521 0.0
O92 O 0.60539 0.93182 0.85502 0.0
C93 C 0.51466 0.19033 0.19171 0.0
C94 C 0.42737 0.32954 0.1729 0.0
C95 C 0.2978 0.14444 0.12409 0.0
Mg96 Mg 0.5557 0.28837 0.16298 0.0
O97 O 0.49752 0.20232 0.15203 0.0
Mg98 Mg 0.39529 0.16012 0.15919 0.0
Mg99 Mg 0.47765 0.21055 0.12842 0.0
O100 O 0.4583 0.22183 0.10495 0.0
Mg101 Mg 0.38745 0.15246 0.09156 0.0
Mg102 Mg 0.56101 0.25974 0.09801 0.0
C103 C 0.65399 0.28522 0.13268 0.0
C104 C 0.52965 0.37726 0.12259 0.0
O105 O 0.4517 0.1535 0.18474 0.0
O106 O 0.56145 0.24179 0.18522 0.0
O107 O 0.39042 0.26423 0.16992 0.0
O108 O 0.4943 0.35532 0.16941 0.0
O109 O 0.64801 0.31203 0.14709 0.0
O110 O 0.59846 0.24187 0.12414 0.0
C111 C 0.43118 0.04469 0.13475 0.0
O112 O 0.4608 0.09263 0.12495 0.0
O113 O 0.40371 0.05812 0.14812 0.0
O114 O 0.51305 0.27826 0.07338 0.0
O115 O 0.39279 0.21436 0.07062 0.0
O116 O 0.55273 0.15115 0.0854 0.0
C117 C 0.4508 0.25911 0.06543 0.0
O118 O 0.43672 0.07713 0.08434 0.0
O119 O 0.29806 0.12991 0.10845 0.0
C120 C 0.50344 0.09136 0.08087 0.0
O121 O 0.35703 0.17662 0.13285 0.0
O122 O 0.49503 0.32877 0.13184 0.0
O123 O 0.56031 0.36374 0.10974 0.0
H124 H 0.09092 0.53888 0.43109 0.0
H125 H 0.09211 0.57663 0.46023 0.0
H126 H 0.89074 0.40423 0.46525 0.0
H127 H 0.88839 0.36676 0.43612 0.0
H128 H 0.90361 0.51551 0.48703 0.0
H129 H 0.05011 0.3777 0.47074 0.0
H130 H 0.14302 0.35005 0.45471 0.0
H131 H 0.30647 0.5442 0.47412 0.0
H132 H 0.21425 0.57345 0.49018 0.0
H133 H 0.94429 0.4892 0.57059 0.0
H134 H 0.94304 0.44495 0.54191 0.0
H135 H 0.14154 0.61805 0.53505 0.0
H136 H 0.14397 0.66196 0.5637 0.0
H137 H 0.12855 0.50239 0.51426 0.0
H138 H 0.97891 0.6417 0.52946 0.0
H139 H 0.88485 0.66819 0.54533 0.0
H140 H 0.72645 0.4676 0.52807 0.0
H141 H 0.8197 0.43984 0.51206 0.0
C142 C 0.04505 0.51091 0.43819 0.0
C143 C 0.99078 0.44852 0.43139 0.0
C144 C 0.04627 0.53211 0.45491 0.0
C145 C 0.99325 0.49128 0.46502 0.0
C146 C 0.93298 0.43567 0.45771 0.0
C147 C 0.93145 0.41466 0.44095 0.0
C148 C 0.00565 0.50022 0.48325 0.0
C149 C 0.95243 0.51197 0.49297 0.0
C150 C 0.06951 0.49575 0.49104 0.0
C151 C 0.12519 0.47807 0.48153 0.0
C152 C 0.10577 0.4147 0.47151 0.0
C153 C 0.1583 0.3987 0.46243 0.0
C154 C 0.23054 0.44539 0.46333 0.0
C155 C 0.25046 0.50812 0.4734 0.0
C156 C 0.19812 0.52442 0.48252 0.0
C157 C 0.98964 0.51597 0.56322 0.0
C158 C 0.04286 0.58043 0.56927 0.0
C159 C 0.98842 0.49099 0.54677 0.0
C160 C 0.04038 0.5301 0.5362 0.0
C161 C 0.10009 0.58783 0.54293 0.0
C162 C 0.10166 0.61261 0.55942 0.0
C163 C 0.02671 0.51807 0.51802 0.0
C164 C 0.07968 0.50573 0.50831 0.0
C165 C 0.96247 0.52166 0.51023 0.0
C166 C 0.90631 0.53847 0.51971 0.0
C167 C 0.92409 0.60314 0.52912 0.0
C168 C 0.87095 0.6184 0.53813 0.0
C169 C 0.79984 0.56953 0.5378 0.0
C170 C 0.78159 0.50537 0.52835 0.0
C171 C 0.83449 0.4899 0.51927 0.0
H172 H 0.75883 0.58147 0.54482 0.0
H173 H 0.27109 0.43286 0.45627 0.0
H174 H 0.72905 0.67513 0.82177 0.0
H175 H 0.79244 0.69426 0.79598 0.0
H176 H 0.58568 0.6367 0.76856 0.0
H177 H 0.52202 0.61271 0.79407 0.0
H178 H 0.69617 0.6094 0.75045 0.0
H179 H 0.67904 0.85098 0.77614 0.0
H180 H 0.69351 0.92964 0.80143 0.0
H181 H 0.88678 0.89029 0.81661 0.0
H182 H 0.8753 0.81437 0.79097 0.0
H183 H 0.77408 0.80842 0.68188 0.0
H184 H 0.71795 0.78535 0.70847 0.0
H185 H 0.93109 0.84104 0.73286 0.0
H186 H 0.98762 0.86867 0.7066 0.0
H187 H 0.82283 0.86875 0.75279 0.0
H188 H 0.84468 0.62854 0.73005 0.0
H189 H 0.8423 0.55114 0.70522 0.0
H190 H 0.65456 0.5872 0.68503 0.0
H191 H 0.65362 0.66178 0.7102 0.0
C192 C 0.69701 0.66215 0.81016 0.0
C193 C 0.62064 0.64355 0.80997 0.0
C194 C 0.73335 0.67514 0.79546 0.0
C195 C 0.69386 0.67113 0.78052 0.0
C196 C 0.61734 0.64166 0.78002 0.0
C197 C 0.58087 0.62687 0.79466 0.0
C198 C 0.73071 0.70608 0.76602 0.0
C199 C 0.7236 0.66607 0.75098 0.0
C200 C 0.76754 0.77999 0.76665 0.0
C201 C 0.77508 0.82563 0.78196 0.0
C202 C 0.7242 0.85883 0.78496 0.0
C203 C 0.7321 0.90315 0.79929 0.0
C204 C 0.79013 0.91379 0.81079 0.0
C205 C 0.84145 0.88149 0.80778 0.0
C206 C 0.83462 0.83832 0.79329 0.0
C207 C 0.80908 0.82001 0.69304 0.0
C208 C 0.88522 0.83963 0.6921 0.0
C209 C 0.77691 0.80488 0.70817 0.0
C210 C 0.82032 0.80764 0.72243 0.0
C211 C 0.89653 0.83718 0.72193 0.0
C212 C 0.92885 0.85408 0.70688 0.0
C213 C 0.78716 0.77218 0.73718 0.0
C214 C 0.79515 0.81212 0.75226 0.0
C215 C 0.75219 0.69809 0.73665 0.0
C216 C 0.75047 0.65221 0.72169 0.0
C217 C 0.80307 0.61999 0.72026 0.0
C218 C 0.80192 0.57624 0.70622 0.0
C219 C 0.74882 0.56502 0.69346 0.0
C220 C 0.69576 0.59627 0.6949 0.0
C221 C 0.69577 0.63889 0.70909 0.0
H222 H 0.74851 0.53174 0.68251 0.0
H223 H 0.79574 0.94762 0.82195 0.0
H224 H 0.37454 0.60177 0.94271 0.0
H225 H 0.35953 0.52047 0.96425 0.0
H226 H 0.59316 0.57498 0.96957 0.0
H227 H 0.60911 0.65713 0.94788 0.0
H228 H 0.50758 0.42455 0.9676 0.0
H229 H 0.51974 0.64393 0.99679 0.0
H230 H 0.48257 0.74731 0.00168 0.0
H231 H 0.26332 0.61154 0.009 0.0
H232 H 0.29893 0.50727 0.00386 0.0
H233 H 0.56324 0.31956 0.04607 0.0
H234 H 0.56017 0.37817 0.02098 0.0
H235 H 0.32769 0.32768 0.02389 0.0
H236 H 0.33031 0.26884 0.04924 0.0
H237 H 0.4006 0.46687 0.02014 0.0
H238 H 0.38781 0.24814 0.99442 0.0
H239 H 0.4201 0.14219 0.98933 0.0
H240 H 0.63173 0.26933 0.97464 0.0
H241 H 0.60147 0.37649 0.98002 0.0
C242 C 0.42294 0.59677 0.94845 0.0
C243 C 0.49313 0.63597 0.9436 0.0
C244 C 0.41412 0.55018 0.96074 0.0
C245 C 0.47521 0.54182 0.9684 0.0
C246 C 0.54543 0.5807 0.96367 0.0
C247 C 0.55444 0.62797 0.95142 0.0
C248 C 0.46533 0.49373 0.9817 0.0
C249 C 0.48508 0.43395 0.97919 0.0
C250 C 0.43302 0.505 0.99645 0.0
C251 C 0.41184 0.56776 -0.00023 0.0
C252 C 0.46347 0.63609 -0.00069 0.0
C253 C 0.44271 0.69487 0.00215 0.0
C254 C 0.37059 0.686 0.00561 0.0
C255 C 0.31915 0.61834 0.00629 0.0
C256 C 0.33959 0.55938 0.00342 0.0
C257 C 0.51129 0.32053 0.04135 0.0
C258 C 0.44706 0.29024 0.04969 0.0
C259 C 0.50957 0.35345 0.02693 0.0
C260 C 0.44365 0.35672 0.02056 0.0
C261 C 0.37903 0.32535 0.02863 0.0
C262 C 0.3806 0.29183 0.04306 0.0
C263 C 0.44421 0.39809 0.00625 0.0
C264 C 0.42257 0.45677 0.00852 0.0
C265 C 0.47406 0.3852 0.99124 0.0
C266 C 0.49254 0.32071 0.9878 0.0
C267 C 0.44156 0.25376 0.99027 0.0
C268 C 0.45949 0.19338 0.98732 0.0
C269 C 0.52807 0.19903 0.98175 0.0
C270 C 0.57871 0.26507 0.97902 0.0
C271 C 0.56117 0.32569 0.98201 0.0
H272 H 0.54183 0.15221 0.97947 0.0
H273 H 0.35462 0.73156 0.00781 0.0
H274 H -0.00074 0.48707 0.30111 0.0
H275 H 0.91176 0.4726 0.27793 0.0
H276 H 0.97168 0.30284 0.25607 0.0
H277 H 0.06241 0.32118 0.27853 0.0
H278 H 0.90519 0.34987 0.23328 0.0
H279 H 0.84379 0.26739 0.28966 0.0
H280 H 0.85013 0.2953 0.31982 0.0
H281 H 0.75707 0.45458 0.31263 0.0
H282 H 0.74902 0.42663 0.28244 0.0
H283 H 0.58776 0.10563 0.20022 0.0
H284 H 0.68669 0.14713 0.22161 0.0
H285 H 0.59888 0.30223 0.24067 0.0
H286 H 0.49834 0.25834 0.21981 0.0
H287 H 0.67845 0.27508 0.26425 0.0
H288 H 0.71405 0.33483 0.20754 0.0
H289 H 0.71262 0.30869 0.17745 0.0
H290 H 0.86046 0.19772 0.18471 0.0
H291 H 0.86306 0.22347 0.21485 0.0
C292 C -0.00191 0.45105 0.29065 0.0
C293 C 0.03679 0.40489 0.29159 0.0
C294 C 0.94676 0.44144 0.27758 0.0
C295 C 0.93235 0.3839 0.26582 0.0
C296 C 0.98068 0.34666 0.26518 0.0
C297 C 0.0332 0.35761 0.27798 0.0
C298 C 0.85959 0.35172 0.25702 0.0
C299 C 0.85559 0.33369 0.24002 0.0
C300 C 0.79466 0.33073 0.26579 0.0
C301 C 0.79581 0.34498 0.28389 0.0
C302 C 0.82426 0.30799 0.29456 0.0
C303 C 0.82834 0.32394 0.31163 0.0
C304 C 0.80453 0.377 0.31813 0.0
C305 C 0.77578 0.41371 0.30758 0.0
C306 C 0.77092 0.39751 0.2905 0.0
C307 C 0.58655 0.14479 0.20977 0.0
C308 C 0.53607 0.17926 0.20836 0.0
C309 C 0.64414 0.1698 0.22174 0.0
C310 C 0.65211 0.23018 0.23215 0.0
C311 C 0.59467 0.25649 0.23256 0.0
C312 C 0.53641 0.23055 0.22078 0.0
C313 C 0.724 0.27232 0.24048 0.0
C314 C 0.72771 0.29199 0.25741 0.0
C315 C 0.78867 0.29502 0.23158 0.0
C316 C 0.78813 0.28047 0.21345 0.0
C317 C 0.74611 0.30472 0.20271 0.0
C318 C 0.74519 0.29006 0.18565 0.0
C319 C 0.78615 0.25131 0.17918 0.0
C320 C 0.82875 0.22773 0.18974 0.0
C321 C 0.83012 0.24248 0.20681 0.0
H322 H 0.78486 0.23951 0.16598 0.0
H323 H 0.80789 0.38931 0.33135 0.0
H324 H 0.50021 0.39479 0.20133 0.0
H325 H 0.44022 0.38191 0.22742 0.0
H326 H 0.2311 0.32798 0.20125 0.0
H327 H 0.29049 0.33544 0.17493 0.0
H328 H 0.31685 0.42071 0.24414 0.0
H329 H 0.1795 0.20616 0.20413 0.0
H330 H 0.18326 0.12263 0.1811 0.0
H331 H 0.35828 0.08381 0.20695 0.0
H332 H 0.35826 0.17052 0.22959 0.0
H333 H 0.04212 0.17421 0.29229 0.0
H334 H 0.09785 0.19952 0.26586 0.0
H335 H 0.31136 0.25171 0.28979 0.0
H336 H 0.25617 0.2307 0.31658 0.0
H337 H 0.22025 0.16155 0.24788 0.0
H338 H 0.35752 0.37482 0.28793 0.0
H339 H 0.35525 0.459 0.31093 0.0
H340 H 0.18237 0.50136 0.28518 0.0
H341 H 0.18116 0.41448 0.26242 0.0
C342 C 0.44189 0.3842 0.20109 0.0
C343 C 0.39983 0.36488 0.18609 0.0
C344 C 0.40753 0.37581 0.21607 0.0
C345 C 0.33109 0.35064 0.21615 0.0
C346 C 0.29007 0.34457 0.20134 0.0
C347 C 0.32418 0.35068 0.18631 0.0
C348 C 0.29529 0.31962 0.23107 0.0
C349 C 0.29528 0.36411 0.24492 0.0
C350 C 0.26805 0.24574 0.23219 0.0
C351 C 0.27 0.19597 0.21829 0.0
C352 C 0.21985 0.18103 0.20467 0.0
C353 C 0.2214 0.13323 0.19168 0.0
C354 C 0.2716 0.09851 0.19246 0.0
C355 C 0.32021 0.11155 0.20622 0.0
C356 C 0.31992 0.16053 0.21905 0.0
C357 C 0.10071 0.18761 0.2919 0.0
C358 C 0.14486 0.20127 0.30658 0.0
C359 C 0.13256 0.20332 0.27677 0.0
C360 C 0.20874 0.23085 0.27608 0.0
C361 C 0.25248 0.23351 0.29025 0.0
C362 C 0.22081 0.21959 0.30548 0.0
C363 C 0.24172 0.2626 0.26097 0.0
C364 C 0.24136 0.21816 0.24708 0.0
C365 C 0.26862 0.33651 0.25984 0.0
C366 C 0.26745 0.38635 0.2738 0.0
C367 C 0.31752 0.40044 0.28742 0.0
C368 C 0.31702 0.44881 0.30038 0.0
C369 C 0.26797 0.48479 0.29962 0.0
C370 C 0.21952 0.47262 0.28587 0.0
C371 C 0.21903 0.42344 0.27301 0.0
H372 H 0.26793 0.52255 0.30961 0.0
H373 H 0.27249 0.06114 0.18245 0.0
H374 H 0.06207 0.57129 0.6945 0.0
H375 H 0.15805 0.59764 0.71627 0.0
H376 H 0.06343 0.73193 0.74299 0.0
H377 H 0.96838 0.70643 0.72103 0.0
H378 H 0.19569 0.80507 0.73202 0.0
H379 H 0.09482 0.59835 0.76131 0.0
H380 H 0.0395 0.47113 0.76459 0.0
H381 H 0.22824 0.43872 0.74521 0.0
H382 H 0.28434 0.56567 0.74159 0.0
H383 H 0.44895 0.91536 0.80114 0.0
H384 H 0.35798 0.88715 0.77828 0.0
H385 H 0.45772 0.75036 0.75444 0.0
H386 H 0.54747 0.77736 0.77761 0.0
H387 H 0.32497 0.67746 0.76307 0.0
H388 H 0.42751 0.88341 0.73425 0.0
H389 H 0.48355 0.01029 0.73065 0.0
H390 H 0.29308 0.04407 0.74856 0.0
H391 H 0.23623 0.91751 0.7525 0.0
C392 C 0.05853 0.60195 0.70563 0.0
C393 C 0.00811 0.63692 0.70613 0.0
C394 C 0.11418 0.61795 0.71799 0.0
C395 C 0.11883 0.66814 0.73105 0.0
C396 C 0.0612 0.69363 0.73292 0.0
C397 C 0.00577 0.67769 0.72054 0.0
C398 C 0.18958 0.70461 0.74039 0.0
C399 C 0.22344 0.77743 0.7391 0.0
C400 C 0.22716 0.66794 0.74889 0.0
C401 C 0.1935 0.59151 0.75103 0.0
C402 C 0.12428 0.56403 0.7576 0.0
C403 C 0.09283 0.49197 0.75956 0.0
C404 C 0.13025 0.44684 0.75507 0.0
C405 C 0.19928 0.47372 0.74866 0.0
C406 C 0.23097 0.54575 0.74667 0.0
C407 C 0.45484 0.88364 0.79043 0.0
C408 C 0.50492 0.84844 0.7911 0.0
C409 C 0.40205 0.86663 0.77741 0.0
C410 C 0.40001 0.8153 0.76482 0.0
C411 C 0.45782 0.7895 0.76413 0.0
C412 C 0.51029 0.80627 0.77721 0.0
C413 C 0.33101 0.77821 0.75484 0.0
C414 C 0.29743 0.7052 0.75597 0.0
C415 C 0.29379 0.81466 0.74613 0.0
C416 C 0.32782 0.89094 0.7438 0.0
C417 C 0.39779 0.91795 0.73756 0.0
C418 C 0.42966 0.98982 0.73542 0.0
C419 C 0.39197 0.03523 0.7394 0.0
C420 C 0.32224 0.00883 0.74549 0.0
C421 C 0.29011 0.937 0.74765 0.0
H422 H 0.41675 0.09086 0.73774 0.0
H423 H 0.10581 0.39107 0.7566 0.0
H424 H 0.54745 0.00526 0.92669 0.0
H425 H 0.54935 0.05218 0.95517 0.0
H426 H 0.35315 0.87812 0.96307 0.0
H427 H 0.35005 0.83176 0.93461 0.0
H428 H 0.36542 0.99163 0.9838 0.0
H429 H 0.51762 0.85677 0.96813 0.0
H430 H 0.61017 0.83144 0.95144 0.0
H431 H 0.76732 0.03458 0.96742 0.0
H432 H 0.67542 0.06125 0.98416 0.0
H433 H 0.4164 0.96058 0.06742 0.0
H434 H 0.40891 0.92314 0.03809 0.0
H435 H 0.60982 0.09383 0.03154 0.0
H436 H 0.61896 0.13045 0.06082 0.0
H437 H 0.59551 0.9857 0.00995 0.0
H438 H 0.43933 0.11766 0.02645 0.0
H439 H 0.34282 0.13952 0.04239 0.0
H440 H 0.19033 0.93676 0.02471 0.0
H441 H 0.28575 0.91353 0.0086 0.0
C442 C 0.5026 0.97896 0.93423 0.0
C443 C 0.44999 0.91354 0.92858 0.0
C444 C 0.5042 0.00544 0.95057 0.0
C445 C 0.45331 0.96676 0.9614 0.0
C446 C 0.39378 0.9081 0.95499 0.0
C447 C 0.39178 0.88189 0.9386 0.0
C448 C 0.46855 0.97958 0.97954 0.0
C449 C 0.41552 0.99001 0.98952 0.0
C450 C 0.53401 0.97754 0.98704 0.0
C451 C 0.58965 0.96118 0.97727 0.0
C452 C 0.57187 0.89608 0.96803 0.0
C453 C 0.62415 0.8815 0.95856 0.0
C454 C 0.69448 0.93145 0.95831 0.0
C455 C 0.71279 0.99598 0.9676 0.0
C456 C 0.6607 0.01082 0.97711 0.0
C457 C 0.46075 0.98836 0.05991 0.0
C458 C 0.51698 0.05001 0.06643 0.0
C459 C 0.45575 0.96751 0.04306 0.0
C460 C 0.50683 0.00792 0.03249 0.0
C461 C 0.56879 0.06281 0.03939 0.0
C462 C 0.57423 0.08332 0.05626 0.0
C463 C 0.49234 0.99791 0.01429 0.0
C464 C 0.54556 0.98781 0.00426 0.0
C465 C 0.42677 0.99973 0.00676 0.0
C466 C 0.36972 0.01361 0.01648 0.0
C467 C 0.38533 0.07759 0.02606 0.0
C468 C 0.33086 0.09028 0.03509 0.0
C469 C 0.26073 0.03954 0.03465 0.0
C470 C 0.24472 0.97599 0.02508 0.0
C471 C 0.29886 0.96308 0.01595 0.0
H472 H 0.21874 0.04956 0.04169 0.0
H473 H 0.73484 0.92009 0.95094 0.0
H474 H 0.15241 0.22603 0.45146 0.0
H475 H 0.14317 0.1545 0.47495 0.0
H476 H 0.91404 0.04528 0.4621 0.0
H477 H 0.92216 0.11715 0.43886 0.0
H478 H 0.93604 0.08186 0.49432 0.0
H479 H 0.04209 0.96299 0.45412 0.0
H480 H 0.13344 0.95746 0.43417 0.0
H481 H 0.30474 0.04289 0.47203 0.0
H482 H 0.21442 0.0487 0.49217 0.0
H483 H 0.87699 0.79656 0.54519 0.0
H484 H 0.88665 0.8664 0.5213 0.0
H485 H 0.11526 0.97731 0.53439 0.0
H486 H 0.1067 0.90768 0.55802 0.0
H487 H 0.09404 0.94 0.50211 0.0
H488 H 0.99218 0.05467 0.54266 0.0
H489 H 0.90478 0.06376 0.56319 0.0
H490 H 0.73028 0.99321 0.52575 0.0
H491 H 0.81657 0.9829 0.50502 0.0
C492 C 0.10002 0.18684 0.45363 0.0
C493 C 0.03801 0.17751 0.44328 0.0
C494 C 0.09497 0.14567 0.46699 0.0
C495 C 0.02807 0.09403 0.47013 0.0
C496 C 0.96617 0.08485 0.45988 0.0
C497 C 0.97106 0.12598 0.44657 0.0
C498 C 0.02181 0.05037 0.4843 0.0
C499 C 0.96982 0.05 0.4959 0.0
C500 C 0.0674 0.01057 0.48662 0.0
C501 C 0.12167 0.00698 0.47455 0.0
C502 C 0.09931 0.98107 0.45811 0.0
C503 C 0.15082 0.97776 0.4468 0.0
C504 C 0.22482 1.00027 0.4518 0.0
C505 C 0.24742 0.02564 0.46816 0.0
C506 C 0.19609 0.02873 0.47954 0.0
C507 C 0.92932 0.83571 0.54296 0.0
C508 C 0.99096 0.84663 0.55356 0.0
C509 C 0.93467 0.87572 0.52936 0.0
C510 C 0.00155 0.92739 0.52621 0.0
C511 C 0.06319 0.93768 0.53662 0.0
C512 C 0.05799 0.89785 0.55017 0.0
C513 C 0.00782 0.97099 0.51204 0.0
C514 C 0.05995 0.97155 0.50049 0.0
C515 C 0.96284 0.0115 0.50987 0.0
C516 C 0.91071 0.01727 0.52232 0.0
C517 C 0.93506 0.04048 0.53883 0.0
C518 C 0.88575 0.04599 0.5505 0.0
C519 C 0.81199 0.02888 0.54579 0.0
C520 C 0.78742 0.00634 0.52939 0.0
C521 C 0.83651 1.00072 0.51767 0.0
H522 H 0.77392 0.03325 0.55484 0.0
H523 H 0.2646 0.99779 0.44301 0.0
H524 H 0.8878 0.01498 0.37307 0.0
H525 H 0.90612 0.90206 0.3727 0.0
H526 H 0.12438 0.99991 0.35652 0.0
H527 H 0.10536 0.11277 0.35632 0.0
H528 H 0.06385 0.86775 0.34288 0.0
H529 H 0.08716 0.98161 0.39774 0.0
H530 H 0.04214 0.03696 0.42084 0.0
H531 H 0.86391 0.84312 0.425 0.0
H532 H 0.90671 0.78708 0.40166 0.0
H533 H 0.20464 0.61372 0.36492 0.0
H534 H 0.18723 0.72706 0.36624 0.0
H535 H 0.9707 0.62914 0.38333 0.0
H536 H 0.98903 0.51559 0.38262 0.0
H537 H 0.03029 0.76168 0.39685 0.0
H538 H -0.00166 0.64985 0.34207 0.0
H539 H 0.03391 0.59204 0.318 0.0
H540 H 0.22059 0.77834 0.31317 0.0
H541 H 0.18661 0.8371 0.33745 0.0
C542 C 0.93902 0.01204 0.36901 0.0
C543 C 0.99541 0.07287 0.36488 0.0
C544 C 0.94965 0.94757 0.36894 0.0
C545 C 0.01751 0.94299 0.36514 0.0
C546 C 0.07184 0.00234 0.3597 0.0
C547 C 0.06079 0.06678 0.3595 0.0
C548 C 0.03336 0.87789 0.36788 0.0
C549 C 0.05747 0.84518 0.35474 0.0
C550 C 0.02348 0.84738 0.38329 0.0
C551 C -0.00025 0.88031 0.39782 0.0
C552 C 0.03811 0.95089 0.40351 0.0
C553 C 0.01281 0.98248 0.4166 0.0
C554 C 0.94993 0.94367 0.42429 0.0
C555 C 0.91247 0.87314 0.41899 0.0
C556 C 0.93718 0.84146 0.40582 0.0
C557 C 0.154 0.61664 0.36937 0.0
C558 C 0.09784 0.55559 0.37347 0.0
C559 C 0.14391 0.68142 0.37001 0.0
C560 C 0.07675 0.68628 0.37436 0.0
C561 C 0.02274 0.6266 0.37978 0.0
C562 C 0.03333 0.56174 0.37941 0.0
C563 C 0.06101 0.75172 0.37184 0.0
C564 C 0.03698 0.78449 0.38502 0.0
C565 C 0.07036 0.78214 0.35643 0.0
C566 C 0.0903 0.74759 0.34166 0.0
C567 C 0.04719 0.67837 0.33593 0.0
C568 C 0.06707 0.64542 0.32224 0.0
C569 C 0.12959 0.68133 0.31406 0.0
C570 C 0.17222 0.7505 0.31953 0.0
C571 C 0.15265 0.7837 0.33325 0.0
H572 H 0.1449 0.6556 0.30347 0.0
H573 H 0.93038 0.96806 0.43442 0.0
H574 H 0.28089 0.87387 0.65635 0.0
H575 H 0.39947 0.86077 0.65385 0.0
H576 H 0.32134 0.73224 0.60821 0.0
H577 H 0.20308 0.74556 0.61047 0.0
H578 H 0.40735 0.73286 0.65571 0.0
H579 H 0.46207 0.7302 0.58559 0.0
H580 H 0.45381 0.79677 0.56171 0.0
H581 H 0.4729 0.97755 0.59429 0.0
H582 H 0.48216 0.91242 0.61835 0.0
H583 H 0.67207 0.59312 0.6048 0.0
H584 H 0.55835 0.61375 0.60946 0.0
H585 H 0.65497 0.73982 0.65451 0.0
H586 H 0.76844 0.719 0.65 0.0
H587 H 0.56538 0.74837 0.60841 0.0
H588 H 0.51864 0.75607 0.67824 0.0
H589 H 0.52554 0.69113 0.70253 0.0
H590 H 0.49221 0.504 0.67098 0.0
H591 H 0.48458 0.56763 0.64652 0.0
C592 C 0.28962 0.84481 0.64547 0.0
C593 C 0.23193 0.80924 0.63381 0.0
C594 C 0.3574 0.8372 0.64412 0.0
C595 C 0.3687 0.79467 0.63101 0.0
C596 C 0.31385 0.76553 0.61842 0.0
C597 C 0.24607 0.77318 0.61974 0.0
C598 C 0.43259 0.77193 0.6317 0.0
C599 C 0.44298 0.73752 0.64551 0.0
C600 C 0.4775 0.77641 0.61821 0.0
C601 C 0.47215 0.81611 0.60379 0.0
C602 C 0.46475 0.78422 0.58766 0.0
C603 C 0.45984 0.8217 0.57409 0.0
C604 C 0.46261 0.89127 0.57649 0.0
C605 C 0.47044 0.92356 0.59246 0.0
C606 C 0.47535 0.88632 0.60606 0.0
C607 C 0.66822 0.62298 0.61603 0.0
C608 C 0.72971 0.65572 0.62686 0.0
C609 C 0.60329 0.6349 0.61864 0.0
C610 C 0.59885 0.67937 0.63215 0.0
C611 C 0.65721 0.70521 0.64402 0.0
C612 C 0.72217 0.69304 0.64144 0.0
C613 C 0.53913 0.70804 0.63227 0.0
C614 C 0.5299 0.74395 0.61863 0.0
C615 C 0.49566 0.70533 0.64597 0.0
C616 C 0.50164 0.66684 0.66055 0.0
C617 C 0.51272 0.70104 0.67649 0.0
C618 C 0.51667 0.66445 0.69029 0.0
C619 C 0.50909 0.59344 0.68829 0.0
C620 C 0.49802 0.559 0.6725 0.0
C621 C 0.49419 0.59539 0.65866 0.0
H622 H 0.51212 0.56519 0.69899 0.0
H623 H 0.45883 0.9202 0.56597 0.0
H624 H 0.56909 0.56518 0.8566 0.0
H625 H 0.58778 0.45243 0.85662 0.0
H626 H 0.3772 0.35879 0.87701 0.0
H627 H 0.35927 0.47182 0.87751 0.0
H628 H 0.47544 0.32766 0.89409 0.0
H629 H 0.41237 0.31879 0.83616 0.0
H630 H 0.42257 0.36492 0.80862 0.0
H631 H 0.64563 0.37569 0.80795 0.0
H632 H 0.63703 0.33043 0.83558 0.0
H633 H 0.45975 0.96925 0.88285 0.0
H634 H 0.44103 0.08235 0.88428 0.0
H635 H 0.64946 0.17906 0.86317 0.0
H636 H 0.66702 0.0659 0.86115 0.0
H637 H 0.55067 0.20828 0.84665 0.0
H638 H 0.61222 0.21359 0.90461 0.0
H639 H 0.60145 0.16928 0.93236 0.0
H640 H 0.38084 0.16554 0.93325 0.0
H641 H 0.38971 0.20858 0.90538 0.0
C642 C 0.526 0.52016 0.86071 0.0
C643 C 0.46277 0.52749 0.86709 0.0
C644 C 0.53681 0.45565 0.86076 0.0
C645 C 0.48389 0.39693 0.86684 0.0
C646 C 0.41908 0.40338 0.87239 0.0
C647 C 0.40867 0.46795 0.87255 0.0
C648 C 0.49747 0.32985 0.86824 0.0
C649 C 0.49091 0.30094 0.88366 0.0
C650 C 0.51939 0.29589 0.85476 0.0
C651 C 0.5242 0.32174 0.83799 0.0
C652 C 0.46369 0.33132 0.83017 0.0
C653 C 0.46918 0.35728 0.81454 0.0
C654 C 0.53476 0.37339 0.80655 0.0
C655 C 0.59488 0.36325 0.81415 0.0
C656 C 0.5897 0.33733 0.82979 0.0
C657 C 0.50228 0.01503 0.87888 0.0
C658 C 0.56453 0.00861 0.87175 0.0
C659 C 0.49158 0.07976 0.87971 0.0
C660 C 0.54376 0.13941 0.87377 0.0
C661 C 0.60807 0.13377 0.86767 0.0
C662 C 0.61821 0.06908 0.86659 0.0
C663 C 0.52913 0.20606 0.87254 0.0
C664 C 0.5353 0.23488 0.85712 0.0
C665 C 0.50676 0.23975 0.88603 0.0
C666 C 0.50145 0.21375 0.90281 0.0
C667 C 0.56119 0.20276 0.91065 0.0
C668 C 0.55545 0.17796 0.92642 0.0
C669 C 0.49048 0.16454 0.93454 0.0
C670 C 0.43111 0.17591 0.92693 0.0
C671 C 0.43647 0.20052 0.91115 0.0
H672 H 0.48609 0.1454 0.94673 0.0
H673 H 0.53894 0.39363 0.79447 0.0
H674 H 0.27192 0.22197 0.15019 0.0
H675 H 0.1575 0.24191 0.15408 0.0
H676 H 0.04891 0.07297 0.11708 0.0
H677 H 0.16355 0.05331 0.11301 0.0
H678 H 0.05055 0.19827 0.10796 0.0
H679 H 0.99286 0.06986 0.15633 0.0
H680 H 0.01057 0.03649 0.18434 0.0
H681 H 0.03932 0.24541 0.2044 0.0
H682 H 0.0232 0.28052 0.17646 0.0
H683 H 0.69084 0.20486 0.10877 0.0
H684 H 0.80654 0.1853 0.10808 0.0
H685 H 0.90062 0.35527 0.14572 0.0
H686 H 0.78456 0.37463 0.14671 0.0
H687 H 0.90977 0.23518 0.15518 0.0
H688 H 0.96877 0.36452 0.1074 0.0
H689 H 0.94853 0.39912 0.07965 0.0
H690 H 0.91812 0.19083 0.05885 0.0
H691 H 0.93728 0.15469 0.08651 0.0
C692 C 0.22304 0.18673 0.14348 0.0
C693 C 0.22694 0.13712 0.13103 0.0
C694 C 0.15751 0.1984 0.14567 0.0
C695 C 0.09518 0.15983 0.1356 0.0
C696 C 0.09682 0.10389 0.1248 0.0
C697 C 0.16228 0.09256 0.12253 0.0
C698 C 0.03404 0.1862 0.13391 0.0
C699 C 0.01882 0.20511 0.11825 0.0
C700 C 0.99536 0.1984 0.14749 0.0
C701 C 0.00753 0.17802 0.16425 0.0
C702 C 0.00391 0.10899 0.16667 0.0
C703 C 0.01333 0.08966 0.18255 0.0
C704 C 0.02584 0.13873 0.19614 0.0
C705 C 0.02945 0.2074 0.19386 0.0
C706 C 0.02029 0.22707 0.178 0.0
C707 C 0.73679 0.23996 0.11646 0.0
C708 C 0.72802 0.29037 0.12804 0.0
C709 C 0.80305 0.22857 0.11607 0.0
C710 C 0.8618 0.26826 0.12702 0.0
C711 C 0.85558 0.32362 0.1373 0.0
C712 C 0.78929 0.33486 0.13776 0.0
C713 C 0.92555 0.24596 0.1292 0.0
C714 C 0.9416 0.22829 0.14494 0.0
C715 C 0.96543 0.23524 0.11573 0.0
C716 C 0.95388 0.25675 0.09906 0.0
C717 C 0.95719 0.32592 0.09693 0.0
C718 C 0.94604 0.34585 0.08121 0.0
C719 C 0.93188 0.29716 0.0675 0.0
C720 C 0.92904 0.22848 0.06948 0.0
C721 C 0.94015 0.20827 0.08517 0.0
H722 H 0.92326 0.31269 0.05534 0.0
H723 H 0.03305 0.12363 0.20842 0.0
H724 H 0.13645 0.02106 0.62025 0.0
H725 H 0.11917 0.13421 0.62065 0.0
H726 H 0.91423 0.04532 0.64366 0.0
H727 H 0.93104 0.93114 0.64324 0.0
H728 H 0.90125 0.11099 0.61572 0.0
H729 H 0.05775 0.1665 0.66492 0.0
H730 H 0.16781 0.1775 0.68202 0.0
H731 H 0.30181 0.32219 0.64956 0.0
H732 H 0.19262 0.31123 0.63211 0.0
H733 H 0.83577 0.4267 0.63729 0.0
H734 H 0.85546 0.31459 0.63503 0.0
H735 H 0.05755 0.41209 0.61157 0.0
H736 H 0.03793 0.52515 0.61372 0.0
H737 H 0.07458 0.34292 0.63869 0.0
H738 H 0.92053 0.29085 0.58986 0.0
H739 H 0.81225 0.27967 0.57212 0.0
H740 H 0.67565 0.12889 0.60301 0.0
H741 H 0.78301 0.13998 0.62111 0.0
C742 C 0.08841 0.02585 0.62575 0.0
C743 C 0.03492 0.96696 0.63165 0.0
C744 C 0.07868 0.09071 0.62598 0.0
C745 C 0.01531 0.09822 0.63213 0.0
C746 C 0.96346 0.04055 0.63881 0.0
C747 C 0.97345 0.97554 0.6387 0.0
C748 C 0.001 0.16462 0.63037 0.0
C749 C 0.93846 0.16162 0.62099 0.0
C750 C 0.0512 0.23091 0.63665 0.0
C751 C 0.11701 0.23747 0.64711 0.0
C752 C 0.11074 0.20015 0.66133 0.0
C753 C 0.17297 0.20649 0.67111 0.0
C754 C 0.24178 0.25037 0.66685 0.0
C755 C 0.24848 0.28813 0.65283 0.0
C756 C 0.18643 0.28192 0.643 0.0
C757 C 0.88364 0.42406 0.6313 0.0
C758 C 0.93559 0.48493 0.62579 0.0
C759 C 0.89472 0.3598 0.62998 0.0
C760 C 0.95809 0.35499 0.6232 0.0
C761 C 0.00833 0.41477 0.61689 0.0
C762 C -0.00319 0.47916 0.61802 0.0
C763 C 0.97443 0.28923 0.62419 0.0
C764 C 0.03739 0.29232 0.6334 0.0
C765 C 0.9248 0.22306 0.61769 0.0
C766 C 0.85983 0.21681 0.60695 0.0
C767 C 0.86733 0.25587 0.59299 0.0
C768 C 0.80611 0.24941 0.58283 0.0
C769 C 0.73709 0.20373 0.58646 0.0
C770 C 0.72915 0.16434 0.60023 0.0
C771 C 0.79019 0.17065 0.61043 0.0
H772 H 0.68977 0.19875 0.57857 0.0
H773 H 0.28989 0.25523 0.67444 0.0
H774 H 0.8219 0.88426 0.89741 0.0
H775 H 0.93716 0.87098 0.89094 0.0
H776 H 0.85109 0.78802 0.84151 0.0
H777 H 0.73529 0.80107 0.84792 0.0
H778 H 0.88944 0.69463 0.85868 0.0
H779 H -0.00019 0.93338 0.84698 0.0
H780 H 0.03541 0.06235 0.85112 0.0
H781 H 0.15851 0.06345 0.89576 0.0
H782 H 0.12269 0.93431 0.89207 0.0
H783 H 0.22067 0.64066 0.83862 0.0
H784 H 0.10703 0.66318 0.84085 0.0
H785 H 0.17769 0.76303 0.88984 0.0
H786 H 0.29265 0.74229 0.8876 0.0
H787 H 0.1476 0.85007 0.86994 0.0
H788 H 0.02878 0.61012 0.88264 0.0
H789 H 0.99153 0.48093 0.87861 0.0
H790 H 0.88305 0.48239 0.83205 0.0
H791 H 0.9206 0.61175 0.83568 0.0
C792 C 0.82806 0.86536 0.88498 0.0
C793 C 0.76853 0.84149 0.87333 0.0
C794 C 0.89428 0.85814 0.88128 0.0
C795 C 0.90211 0.82752 0.86584 0.0
C796 C 0.84567 0.81111 0.85357 0.0
C797 C 0.77946 0.81866 0.85725 0.0
C798 C 0.96325 0.80168 0.8637 0.0
C799 C 0.94614 0.72876 0.86075 0.0
C800 C 0.03667 0.84614 0.86695 0.0
C801 C 0.05806 0.92393 0.8693 0.0
C802 C 0.03391 0.96098 0.85777 0.0
C803 C 0.05425 0.03418 0.86002 0.0
C804 C 0.09908 0.07106 0.87371 0.0
C805 C 0.12374 0.03481 0.88517 0.0
C806 C 0.1035 0.9616 0.88299 0.0
C807 C 0.21132 0.66544 0.8501 0.0
C808 C 0.26657 0.69125 0.86278 0.0
C809 C 0.14606 0.67819 0.85135 0.0
C810 C 0.1345 0.71568 0.86541 0.0
C811 C 0.18617 0.73478 0.8788 0.0
C812 C 0.25168 0.72245 0.87753 0.0
C813 C 0.07364 0.74284 0.86529 0.0
C814 C 0.09094 0.81601 0.86775 0.0
C815 C 0.00035 0.69859 0.86161 0.0
C816 C 0.97825 0.62078 0.85935 0.0
C817 C -0.00235 0.583 0.87146 0.0
C818 C 0.97632 0.5097 0.86926 0.0
C819 C 0.93514 0.47349 0.85506 0.0
C820 C 0.91507 0.51051 0.84303 0.0
C821 C 0.93633 0.58382 0.84516 0.0
H822 H 0.91863 0.41674 0.85339 0.0
H823 H 0.11481 0.12773 0.87542 0.0
H824 H 0.45536 0.42546 0.14581 0.0
H825 H 0.44164 0.5405 0.14817 0.0
H826 H 0.5827 0.60554 0.10778 0.0
H827 H 0.59961 0.49235 0.10589 0.0
H828 H 0.60831 0.7118 0.12972 0.0
H829 H 0.39238 0.54042 0.10213 0.0
H830 H 0.28623 0.42953 0.09929 0.0
H831 H 0.19942 0.49456 0.14277 0.0
H832 H 0.30555 0.60553 0.14599 0.0
H833 H 0.49962 0.99724 0.11006 0.0
H834 H 0.51538 0.88284 0.10709 0.0
H835 H 0.38606 0.81712 0.14926 0.0
H836 H 0.36882 0.93005 0.15214 0.0
H837 H 0.35463 0.71155 0.12564 0.0
H838 H 0.57237 0.88266 0.15322 0.0
H839 H 0.67845 0.99363 0.15575 0.0
H840 H 0.76152 0.92892 0.11166 0.0
H841 H 0.65537 0.81791 0.10875 0.0
C842 C 0.48498 0.46478 0.13773 0.0
C843 C 0.5284 0.4494 0.12564 0.0
C844 C 0.47636 0.53031 0.13894 0.0
C845 C 0.50976 0.58104 0.12788 0.0
C846 C 0.55604 0.56712 0.11639 0.0
C847 C 0.56543 0.5021 0.1153 0.0
C848 C 0.49406 0.64731 0.12768 0.0
C849 C 0.55286 0.71167 0.12864 0.0
C850 C 0.42166 0.64724 0.12644 0.0
C851 C 0.35723 0.58101 0.12438 0.0
C852 C 0.35083 0.53091 0.11113 0.0
C853 C 0.29066 0.46806 0.10945 0.0
C854 C 0.23619 0.45493 0.12087 0.0
C855 C 0.24168 0.50477 0.13395 0.0
C856 C 0.30178 0.56768 0.1357 0.0
C857 C 0.4736 0.95805 0.11854 0.0
C858 C 0.43363 0.97315 0.13145 0.0
C859 C 0.48301 0.89287 0.11688 0.0
C860 C 0.45297 0.84205 0.12816 0.0
C861 C 0.40997 0.8557 0.14048 0.0
C862 C 0.40042 0.92052 0.14213 0.0
C863 C 0.46883 0.77586 0.12774 0.0
C864 C 0.41006 0.71156 0.12666 0.0
C865 C 0.54122 0.77598 0.12881 0.0
C866 C 0.60556 0.84229 0.13068 0.0
C867 C 0.61303 0.89229 0.14401 0.0
C868 C 0.6732 0.95517 0.14552 0.0
C869 C 0.7266 0.96841 0.13385 0.0
C870 C 0.72006 0.91865 0.12068 0.0
C871 C 0.65995 0.85572 0.1191 0.0
H872 H 0.77311 0.01715 0.13503 0.0
H873 H 0.18968 0.40621 0.11955 0.0
H874 H 0.75547 0.13297 0.34741 0.0
H875 H 0.62767 0.12004 0.35071 0.0
H876 H 0.69637 0.3042 0.38521 0.0
H877 H 0.8228 0.31356 0.383 0.0
H878 H 0.57126 0.21885 0.39326 0.0
H879 H 0.64025 0.3107 0.33151 0.0
H880 H 0.6657 0.27683 0.30317 0.0
H881 H 0.52139 0.06501 0.30718 0.0
H882 H 0.49249 0.09799 0.3352 0.0
H883 H 0.36579 0.43026 0.39026 0.0
H884 H 0.46738 0.38825 0.386 0.0
H885 H 0.33666 0.23365 0.34811 0.0
H886 H 0.23713 0.27739 0.35182 0.0
H887 H 0.46589 0.26387 0.34075 0.0
H888 H 0.34502 0.19285 0.38885 0.0
H889 H 0.28867 0.2018 0.41526 0.0
H890 H 0.49848 0.3282 0.4378 0.0
H891 H 0.55601 0.32094 0.41144 0.0
C892 C 0.74278 0.16942 0.35602 0.0
C893 C 0.79889 0.22495 0.36475 0.0
C894 C 0.66981 0.16277 0.35767 0.0
C895 C 0.65235 0.21315 0.36758 0.0
C896 C 0.7082 0.26489 0.37735 0.0
C897 C 0.78072 0.27028 0.37609 0.0
C898 C 0.57857 0.21828 0.36686 0.0
C899 C 0.5479 0.22843 0.38179 0.0
C900 C 0.54475 0.22619 0.35185 0.0
C901 C 0.56579 0.20629 0.33551 0.0
C902 C 0.61467 0.2568 0.32638 0.0
C903 C 0.62947 0.2379 0.31038 0.0
C904 C 0.59646 0.16878 0.30352 0.0
C905 C 0.54751 0.11842 0.31255 0.0
C906 C 0.5315 0.13722 0.32842 0.0
C907 C 0.36016 0.38944 0.38055 0.0
C908 C 0.29377 0.35723 0.37135 0.0
C909 C 0.4176 0.36462 0.3783 0.0
C910 C 0.40838 0.30589 0.36721 0.0
C911 C 0.34484 0.27852 0.35686 0.0
C912 C 0.28813 0.30434 0.35884 0.0
C913 C 0.46249 0.27003 0.36729 0.0
C914 C 0.48845 0.25365 0.35226 0.0
C915 C 0.48882 0.25226 0.38216 0.0
C916 C 0.45478 0.25675 0.39812 0.0
C917 C 0.37912 0.22295 0.39941 0.0
C918 C 0.34695 0.22768 0.41437 0.0
C919 C 0.38995 0.26565 0.42819 0.0
C920 C 0.46524 0.29884 0.42708 0.0
C921 C 0.49768 0.29437 0.41213 0.0
H922 H 0.36495 0.26924 0.43977 0.0
H923 H 0.60828 0.15449 0.29116 0.0
loop_
_geom_bond_atom_site_label_1
_geom_bond_atom_site_label_2
_geom_bond_distance
_geom_bond_site_symmetry_2
_ccdc_geom_bond_type
C0 O12 1.241 1_455 S
C0 O13 1.280 . S
C1 O14 1.277 . S
C1 O15 1.245 1_655 S
C2 O26 1.247 . S
C2 O28 1.289 . S
Mg3 O4 1.926 . S
Mg3 O13 1.984 . S
Mg3 O15 1.988 . S
Mg3 O16 2.061 . S
O4 Mg3 1.926 . S
O4 Mg5 1.986 1_455 S
O4 Mg6 1.917 . S
Mg5 O4 1.986 1_655 S
Mg5 O12 2.042 . S
Mg5 O14 2.041 . S
Mg5 O20 2.038 . S
Mg5 O28 2.238 . S
Mg6 O4 1.917 . S
Mg6 O7 1.917 1_455 S
Mg6 O17 2.106 . S
Mg6 O19 2.079 . S
Mg6 O28 2.106 1_455 S
Mg6 O29 2.079 . S
O7 Mg6 1.917 1_655 S
O7 Mg8 1.926 . S
O7 Mg9 1.986 1_655 S
Mg8 O7 1.926 . S
Mg8 O22 1.984 . S
Mg8 O25 1.988 . S
Mg8 O26 2.061 . S
Mg9 O7 1.986 1_455 S
Mg9 O17 2.238 . S
Mg9 O21 2.042 . S
Mg9 O23 2.041 . S
Mg9 O30 2.038 . S
C10 O16 1.247 . S
C10 O17 1.289 . S
C11 O29 1.245 . S
C11 O30 1.274 . S
O12 C0 1.241 1_655 S
O12 Mg5 2.042 . S
O13 C0 1.280 . S
O13 Mg3 1.984 . S
O14 C1 1.277 . S
O14 Mg5 2.041 . S
O15 C1 1.245 1_455 S
O15 Mg3 1.988 . S
O16 Mg3 2.061 . S
O16 C10 1.247 . S
O17 Mg6 2.106 . S
O17 Mg9 2.238 . S
O17 C10 1.289 . S
C18 O19 1.245 1_655 S
C18 O20 1.274 . S
O19 Mg6 2.079 . S
O19 C18 1.245 1_455 S
O20 Mg5 2.038 . S
O20 C18 1.274 . S
O21 Mg9 2.042 . S
O21 C24 1.241 1_455 S
O22 Mg8 1.984 . S
O22 C24 1.280 . S
O23 Mg9 2.041 . S
O23 C27 1.277 . S
C24 O21 1.241 1_655 S
C24 O22 1.280 . S
O25 Mg8 1.988 . S
O25 C27 1.245 1_655 S
O26 C2 1.247 . S
O26 Mg8 2.061 . S
C27 O23 1.277 . S
C27 O25 1.245 1_455 S
O28 C2 1.289 . S
O28 Mg5 2.238 . S
O28 Mg6 2.106 1_655 S
O29 Mg6 2.079 . S
O29 C11 1.245 . S
O30 Mg9 2.038 . S
O30 C11 1.274 . S
C31 O43 1.241 1_455 S
C31 O44 1.280 . S
C32 O45 1.277 . S
C32 O46 1.245 1_655 S
C33 O57 1.247 . S
C33 O59 1.289 . S
Mg34 O35 1.926 . S
Mg34 O44 1.984 . S
Mg34 O46 1.988 . S
Mg34 O47 2.061 . S
O35 Mg34 1.926 . S
O35 Mg36 1.986 1_455 S
O35 Mg37 1.917 . S
Mg36 O35 1.986 1_655 S
Mg36 O43 2.042 . S
Mg36 O45 2.041 . S
Mg36 O51 2.038 . S
Mg36 O59 2.238 . S
Mg37 O35 1.917 . S
Mg37 O38 1.917 1_455 S
Mg37 O48 2.106 . S
Mg37 O50 2.079 1_455 S
Mg37 O59 2.106 1_455 S
Mg37 O60 2.079 . S
O38 Mg37 1.917 1_655 S
O38 Mg39 1.926 . S
O38 Mg40 1.986 1_655 S
Mg39 O38 1.926 . S
Mg39 O53 1.984 . S
Mg39 O56 1.988 . S
Mg39 O57 2.061 . S
Mg40 O38 1.986 1_455 S
Mg40 O48 2.238 . S
Mg40 O52 2.042 . S
Mg40 O54 2.041 . S
Mg40 O61 2.038 . S
C41 O47 1.247 . S
C41 O48 1.289 . S
C42 O60 1.245 . S
C42 O61 1.274 . S
O43 C31 1.241 1_655 S
O43 Mg36 2.042 . S
O44 C31 1.280 . S
O44 Mg34 1.984 . S
O45 C32 1.277 . S
O45 Mg36 2.041 . S
O46 C32 1.245 1_455 S
O46 Mg34 1.988 . S
O47 Mg34 2.061 . S
O47 C41 1.247 . S
O48 Mg37 2.106 . S
O48 Mg40 2.238 . S
O48 C41 1.289 . S
C49 O50 1.245 . S
C49 O51 1.274 . S
O50 Mg37 2.079 1_655 S
O50 C49 1.245 . S
O51 Mg36 2.038 . S
O51 C49 1.274 . S
O52 Mg40 2.042 . S
O52 C55 1.241 1_455 S
O53 Mg39 1.984 . S
O53 C55 1.280 . S
O54 Mg40 2.041 . S
O54 C58 1.277 . S
C55 O52 1.241 1_655 S
C55 O53 1.280 . S
O56 Mg39 1.988 . S
O56 C58 1.245 1_655 S
O57 C33 1.247 . S
O57 Mg39 2.061 . S
C58 O54 1.277 . S
C58 O56 1.245 1_455 S
O59 C33 1.289 . S
O59 Mg36 2.238 . S
O59 Mg37 2.106 1_655 S
O60 Mg37 2.079 . S
O60 C42 1.245 . S
O61 Mg40 2.038 . S
O61 C42 1.274 . S
C62 O74 1.241 . S
C62 O75 1.280 . S
C63 O76 1.277 . S
C63 O77 1.245 . S
C64 O88 1.247 . S
C64 O90 1.289 . S
Mg65 O66 1.926 . S
Mg65 O75 1.984 . S
Mg65 O77 1.988 . S
Mg65 O78 2.061 . S
O66 Mg65 1.926 . S
O66 Mg67 1.986 . S
O66 Mg68 1.917 . S
Mg67 O66 1.986 . S
Mg67 O74 2.042 . S
Mg67 O76 2.041 . S
Mg67 O82 2.038 . S
Mg67 O90 2.238 . S
Mg68 O66 1.917 . S
Mg68 O69 1.917 . S
Mg68 O79 2.106 . S
Mg68 O81 2.079 . S
Mg68 O90 2.106 . S
Mg68 O91 2.079 . S
O69 Mg68 1.917 . S
O69 Mg70 1.926 . S
O69 Mg71 1.986 . S
Mg70 O69 1.926 . S
Mg70 O84 1.984 . S
Mg70 O87 1.988 . S
Mg70 O88 2.061 . S
Mg71 O69 1.986 . S
Mg71 O79 2.238 . S
Mg71 O83 2.042 . S
Mg71 O85 2.041 . S
Mg71 O92 2.038 . S
C72 O78 1.247 . S
C72 O79 1.289 . S
C73 O91 1.245 . S
C73 O92 1.274 . S
O74 C62 1.241 . S
O74 Mg67 2.042 . S
O75 C62 1.280 . S
O75 Mg65 1.984 . S
O76 C63 1.277 . S
O76 Mg67 2.041 . S
O77 C63 1.245 . S
O77 Mg65 1.988 . S
O78 Mg65 2.061 . S
O78 C72 1.247 . S
O79 Mg68 2.106 . S
O79 Mg71 2.238 . S
O79 C72 1.289 . S
C80 O81 1.245 . S
C80 O82 1.274 . S
O81 Mg68 2.079 . S
O81 C80 1.245 . S
O82 Mg67 2.038 . S
O82 C80 1.274 . S
O83 Mg71 2.042 . S
O83 C86 1.241 . S
O84 Mg70 1.984 . S
O84 C86 1.280 . S
O85 Mg71 2.041 . S
O85 C89 1.277 . S
C86 O83 1.241 . S
C86 O84 1.280 . S
O87 Mg70 1.988 . S
O87 C89 1.245 . S
O88 C64 1.247 . S
O88 Mg70 2.061 . S
C89 O85 1.277 . S
C89 O87 1.245 . S
O90 C64 1.289 . S
O90 Mg67 2.238 . S
O90 Mg68 2.106 . S
O91 Mg68 2.079 . S
O91 C73 1.245 . S
O92 Mg71 2.038 . S
O92 C73 1.274 . S
C93 O105 1.241 . S
C93 O106 1.280 . S
C94 O107 1.277 . S
C94 O108 1.245 . S
C95 O119 1.247 . S
C95 O121 1.289 . S
Mg96 O97 1.926 . S
Mg96 O106 1.984 . S
Mg96 O108 1.988 . S
Mg96 O109 2.061 . S
O97 Mg96 1.926 . S
O97 Mg98 1.986 . S
O97 Mg99 1.917 . S
Mg98 O97 1.986 . S
Mg98 O105 2.042 . S
Mg98 O107 2.041 . S
Mg98 O113 2.038 . S
Mg98 O121 2.238 . S
Mg99 O97 1.917 . S
Mg99 O100 1.917 . S
Mg99 O110 2.106 . S
Mg99 O112 2.079 . S
Mg99 O121 2.106 . S
Mg99 O122 2.079 . S
O100 Mg99 1.917 . S
O100 Mg101 1.926 . S
O100 Mg102 1.986 . S
Mg101 O100 1.926 . S
Mg101 O115 1.984 . S
Mg101 O118 1.988 . S
Mg101 O119 2.061 . S
Mg102 O100 1.986 . S
Mg102 O110 2.238 . S
Mg102 O114 2.042 . S
Mg102 O116 2.041 . S
Mg102 O123 2.038 . S
C103 O109 1.247 . S
C103 O110 1.289 . S
C104 O122 1.245 . S
C104 O123 1.274 . S
O105 C93 1.241 . S
O105 Mg98 2.042 . S
O106 C93 1.280 . S
O106 Mg96 1.984 . S
O107 C94 1.277 . S
O107 Mg98 2.041 . S
O108 C94 1.245 . S
O108 Mg96 1.988 . S
O109 Mg96 2.061 . S
O109 C103 1.247 . S
O110 Mg99 2.106 . S
O110 Mg102 2.238 . S
O110 C103 1.289 . S
C111 O112 1.245 . S
C111 O113 1.274 . S
O112 Mg99 2.079 . S
O112 C111 1.245 . S
O113 Mg98 2.038 . S
O113 C111 1.274 . S
O114 Mg102 2.042 . S
O114 C117 1.241 . S
O115 Mg101 1.984 . S
O115 C117 1.280 . S
O116 Mg102 2.041 . S
O116 C120 1.277 . S
C117 O114 1.241 . S
C117 O115 1.280 . S
O118 Mg101 1.988 . S
O118 C120 1.245 . S
O119 C95 1.247 . S
O119 Mg101 2.061 . S
C120 O116 1.277 . S
C120 O118 1.245 . S
O121 C95 1.289 . S
O121 Mg98 2.238 . S
O121 Mg99 2.106 . S
O122 Mg99 2.079 . S
O122 C104 1.245 . S
O123 Mg102 2.038 . S
O123 C104 1.274 . S
H124 C142 0.951 . S
H125 C144 0.951 . S
H126 C146 0.950 . S
H127 C147 0.950 . S
H128 C149 0.950 . S
H129 C152 0.950 . S
H130 C153 0.950 . S
H131 C155 0.950 . S
H132 C156 0.950 1_655 S
H133 C157 0.951 . S
H134 C159 0.951 . S
H135 C161 0.950 1_655 S
H136 C162 0.950 1_655 S
H137 C164 0.950 . S
H138 C167 0.950 . S
H139 C168 0.950 . S
H140 C170 0.950 . S
H141 C171 0.950 1_455 S
C142 H124 0.951 . S
C142 C143 1.366 . S
C142 C144 1.388 . S
C143 C142 1.366 . S
C143 C147 1.385 1_655 S
C144 H125 0.951 . S
C144 C142 1.388 . S
C144 C145 1.366 . S
C145 C144 1.366 . S
C145 C146 1.414 1_655 S
C145 C148 1.499 1_655 S
C146 H126 0.950 . S
C146 C145 1.414 1_455 S
C146 C147 1.374 . S
C147 H127 0.950 . S
C147 C143 1.385 1_455 S
C147 C146 1.374 . S
C148 C145 1.499 1_455 S
C148 C149 1.373 1_455 S
C148 C150 1.389 . S
C149 H128 0.950 . S
C149 C148 1.373 1_655 S
C149 C165 1.377 . S
C150 C148 1.389 . S
C150 C151 1.524 . S
C150 C164 1.377 . S
C151 C150 1.524 . S
C151 C152 1.397 . S
C151 C156 1.363 . S
C152 H129 0.950 . S
C152 C151 1.397 . S
C152 C153 1.334 . S
C153 H130 0.950 . S
C153 C152 1.334 . S
C153 C154 1.287 . S
C154 C153 1.287 . S
C154 C155 1.524 . S
C154 H173 0.913 . S
C155 H131 0.950 . S
C155 C154 1.524 . S
C155 C156 1.415 . S
C156 H132 0.950 1_455 S
C156 C151 1.363 . S
C156 C155 1.415 . S
C157 H133 0.951 . S
C157 C158 1.366 . S
C157 C159 1.388 . S
C158 C157 1.366 . S
C158 C162 1.385 . S
C159 H134 0.951 . S
C159 C157 1.388 . S
C159 C160 1.366 . S
C160 C159 1.366 . S
C160 C161 1.414 . S
C160 C163 1.499 . S
C161 H135 0.950 1_455 S
C161 C160 1.414 . S
C161 C162 1.374 . S
C162 H136 0.950 1_455 S
C162 C158 1.385 . S
C162 C161 1.374 . S
C163 C160 1.499 . S
C163 C164 1.373 . S
C163 C165 1.389 1_455 S
C164 H137 0.950 . S
C164 C150 1.377 . S
C164 C163 1.373 . S
C165 C149 1.377 . S
C165 C163 1.389 1_655 S
C165 C166 1.524 . S
C166 C165 1.524 . S
C166 C167 1.397 . S
C166 C171 1.363 . S
C167 H138 0.950 . S
C167 C166 1.397 . S
C167 C168 1.334 . S
C168 H139 0.950 . S
C168 C167 1.334 . S
C168 C169 1.287 . S
C169 C168 1.287 . S
C169 C170 1.524 . S
C169 H172 0.999 . S
C170 H140 0.950 . S
C170 C169 1.524 . S
C170 C171 1.415 . S
C171 H141 0.950 1_655 S
C171 C166 1.363 . S
C171 C170 1.415 . S
H172 C169 0.999 . S
H173 C154 0.913 . S
H174 C192 0.951 . S
H175 C194 0.951 . S
H176 C196 0.950 . S
H177 C197 0.950 . S
H178 C199 0.950 . S
H179 C202 0.950 . S
H180 C203 0.950 . S
H181 C205 0.950 . S
H182 C206 0.950 . S
H183 C207 0.951 . S
H184 C209 0.951 . S
H185 C211 0.950 . S
H186 C212 0.950 . S
H187 C214 0.950 . S
H188 C217 0.950 . S
H189 C218 0.950 1_455 S
H190 C220 0.950 . S
H191 C221 0.950 . S
C192 H174 0.951 . S
C192 C193 1.366 . S
C192 C194 1.388 . S
C193 C192 1.366 . S
C193 C197 1.385 . S
C194 H175 0.951 . S
C194 C192 1.388 . S
C194 C195 1.366 . S
C195 C194 1.366 . S
C195 C196 1.414 . S
C195 C198 1.499 . S
C196 H176 0.950 . S
C196 C195 1.414 . S
C196 C197 1.374 . S
C197 H177 0.950 . S
C197 C193 1.385 . S
C197 C196 1.374 . S
C198 C195 1.499 . S
C198 C199 1.373 . S
C198 C200 1.389 . S
C199 H178 0.950 . S
C199 C198 1.373 . S
C199 C215 1.377 . S
C200 C198 1.389 . S
C200 C201 1.524 . S
C200 C214 1.377 . S
C201 C200 1.524 . S
C201 C202 1.397 . S
C201 C206 1.363 . S
C202 H179 0.950 . S
C202 C201 1.397 . S
C202 C203 1.334 . S
C203 H180 0.950 . S
C203 C202 1.334 . S
C203 C204 1.287 . S
C204 C203 1.287 . S
C204 C205 1.524 . S
C204 H223 0.913 . S
C205 H181 0.950 . S
C205 C204 1.524 . S
C205 C206 1.415 . S
C206 H182 0.950 . S
C206 C201 1.363 . S
C206 C205 1.415 . S
C207 H183 0.951 . S
C207 C208 1.366 . S
C207 C209 1.388 . S
C208 C207 1.366 . S
C208 C212 1.385 . S
C209 H184 0.951 . S
C209 C207 1.388 . S
C209 C210 1.366 . S
C210 C209 1.366 . S
C210 C211 1.414 . S
C210 C213 1.499 . S
C211 H185 0.950 . S
C211 C210 1.414 . S
C211 C212 1.374 . S
C212 H186 0.950 . S
C212 C208 1.385 . S
C212 C211 1.374 . S
C213 C210 1.499 . S
C213 C214 1.373 . S
C213 C215 1.389 . S
C214 H187 0.950 . S
C214 C200 1.377 . S
C214 C213 1.373 . S
C215 C199 1.377 . S
C215 C213 1.389 . S
C215 C216 1.524 . S
C216 C215 1.524 . S
C216 C217 1.397 . S
C216 C221 1.363 . S
C217 H188 0.950 . S
C217 C216 1.397 . S
C217 C218 1.334 . S
C218 H189 0.950 1_655 S
C218 C217 1.334 . S
C218 C219 1.287 . S
C219 C218 1.287 . S
C219 C220 1.524 . S
C219 H222 0.999 1_655 S
C220 H190 0.950 . S
C220 C219 1.524 . S
C220 C221 1.415 . S
C221 H191 0.950 . S
C221 C216 1.363 . S
C221 C220 1.415 . S
H222 C219 0.999 1_455 S
H223 C204 0.913 . S
H224 C242 0.951 . S
H225 C244 0.951 . S
H226 C246 0.950 . S
H227 C247 0.950 . S
H228 C249 0.950 . S
H229 C252 0.950 . S
H230 C253 0.950 . S
H231 C255 0.950 . S
H232 C256 0.950 . S
H233 C257 0.951 . S
H234 C259 0.951 . S
H235 C261 0.950 . S
H236 C262 0.950 . S
H237 C264 0.950 . S
H238 C267 0.950 . S
H239 C268 0.950 . S
H240 C270 0.950 . S
H241 C271 0.950 . S
C242 H224 0.951 . S
C242 C243 1.366 . S
C242 C244 1.388 . S
C243 C242 1.366 . S
C243 C247 1.385 . S
C244 H225 0.951 . S
C244 C242 1.388 . S
C244 C245 1.366 . S
C245 C244 1.366 . S
C245 C246 1.414 . S
C245 C248 1.499 . S
C246 H226 0.950 . S
C246 C245 1.414 . S
C246 C247 1.374 . S
C247 H227 0.950 . S
C247 C243 1.385 . S
C247 C246 1.374 . S
C248 C245 1.499 . S
C248 C249 1.373 . S
C248 C250 1.389 . S
C249 H228 0.950 . S
C249 C248 1.373 . S
C249 C265 1.377 1_556 S
C250 C248 1.389 . S
C250 C251 1.524 . S
C250 C264 1.377 1_556 S
C251 C250 1.524 . S
C251 C252 1.397 . S
C251 C256 1.363 . S
C252 H229 0.950 . S
C252 C251 1.397 . S
C252 C253 1.334 . S
C253 H230 0.950 . S
C253 C252 1.334 . S
C253 C254 1.287 . S
C254 C253 1.287 . S
C254 C255 1.524 . S
C254 H273 0.913 . S
C255 H231 0.950 . S
C255 C254 1.524 . S
C255 C256 1.415 . S
C256 H232 0.950 . S
C256 C251 1.363 . S
C256 C255 1.415 . S
C257 H233 0.951 . S
C257 C258 1.366 . S
C257 C259 1.388 . S
C258 C257 1.366 . S
C258 C262 1.385 . S
C259 H234 0.951 . S
C259 C257 1.388 . S
C259 C260 1.366 . S
C260 C259 1.366 . S
C260 C261 1.414 . S
C260 C263 1.499 . S
C261 H235 0.950 . S
C261 C260 1.414 . S
C261 C262 1.374 . S
C262 H236 0.950 . S
C262 C258 1.385 . S
C262 C261 1.374 . S
C263 C260 1.499 . S
C263 C264 1.373 . S
C263 C265 1.389 . S
C264 H237 0.950 . S
C264 C250 1.377 1_554 S
C264 C263 1.373 . S
C265 C249 1.377 1_554 S
C265 C263 1.389 . S
C265 C266 1.524 . S
C266 C265 1.524 . S
C266 C267 1.397 . S
C266 C271 1.363 . S
C267 H238 0.950 . S
C267 C266 1.397 . S
C267 C268 1.334 . S
C268 H239 0.950 . S
C268 C267 1.334 . S
C268 C269 1.287 . S
C269 C268 1.287 . S
C269 C270 1.524 . S
C269 H272 0.999 . S
C270 H240 0.950 . S
C270 C269 1.524 . S
C270 C271 1.415 . S
C271 H241 0.950 . S
C271 C266 1.363 . S
C271 C270 1.415 . S
H272 C269 0.999 . S
H273 C254 0.913 . S
H274 C292 0.951 . S
H275 C294 0.951 . S
H276 C296 0.950 . S
H277 C297 0.950 . S
H278 C299 0.950 . S
H279 C302 0.950 . S
H280 C303 0.950 . S
H281 C305 0.950 . S
H282 C306 0.950 . S
H283 C307 0.951 . S
H284 C309 0.951 . S
H285 C311 0.950 . S
H286 C312 0.950 . S
H287 C314 0.950 . S
H288 C317 0.950 . S
H289 C318 0.950 . S
H290 C320 0.950 1_565 S
H291 C321 0.950 . S
C292 H274 0.951 . S
C292 C293 1.366 . S
C292 C294 1.388 . S
C293 C292 1.366 . S
C293 C297 1.385 . S
C294 H275 0.951 . S
C294 C292 1.388 . S
C294 C295 1.366 . S
C295 C294 1.366 . S
C295 C296 1.414 . S
C295 C298 1.499 . S
C296 H276 0.950 . S
C296 C295 1.414 . S
C296 C297 1.374 . S
C297 H277 0.950 . S
C297 C293 1.385 . S
C297 C296 1.374 . S
C298 C295 1.499 . S
C298 C299 1.373 . S
C298 C300 1.389 . S
C299 H278 0.950 . S
C299 C298 1.373 . S
C299 C315 1.377 . S
C300 C298 1.389 . S
C300 C301 1.524 . S
C300 C314 1.377 . S
C301 C300 1.524 . S
C301 C302 1.397 . S
C301 C306 1.363 . S
C302 H279 0.950 . S
C302 C301 1.397 . S
C302 C303 1.334 . S
C303 H280 0.950 . S
C303 C302 1.334 . S
C303 C304 1.287 . S
C304 C303 1.287 . S
C304 C305 1.524 . S
C304 H323 0.913 . S
C305 H281 0.950 . S
C305 C304 1.524 . S
C305 C306 1.415 . S
C306 H282 0.950 . S
C306 C301 1.363 . S
C306 C305 1.415 . S
C307 H283 0.951 . S
C307 C308 1.366 . S
C307 C309 1.388 . S
C308 C307 1.366 . S
C308 C312 1.385 . S
C309 H284 0.951 . S
C309 C307 1.388 . S
C309 C310 1.366 . S
C310 C309 1.366 . S
C310 C311 1.414 . S
C310 C313 1.499 . S
C311 H285 0.950 . S
C311 C310 1.414 . S
C311 C312 1.374 . S
C312 H286 0.950 . S
C312 C308 1.385 . S
C312 C311 1.374 . S
C313 C310 1.499 . S
C313 C314 1.373 . S
C313 C315 1.389 . S
C314 H287 0.950 . S
C314 C300 1.377 . S
C314 C313 1.373 . S
C315 C299 1.377 . S
C315 C313 1.389 . S
C315 C316 1.524 . S
C316 C315 1.524 . S
C316 C317 1.397 . S
C316 C321 1.363 . S
C317 H288 0.950 . S
C317 C316 1.397 . S
C317 C318 1.334 . S
C318 H289 0.950 . S
C318 C317 1.334 . S
C318 C319 1.287 . S
C319 C318 1.287 . S
C319 C320 1.524 . S
C319 H322 0.999 1_545 S
C320 H290 0.950 1_545 S
C320 C319 1.524 . S
C320 C321 1.415 . S
C321 H291 0.950 . S
C321 C316 1.363 . S
C321 C320 1.415 . S
H322 C319 0.999 1_565 S
H323 C304 0.913 . S
H324 C342 0.951 . S
H325 C344 0.951 . S
H326 C346 0.950 . S
H327 C347 0.950 . S
H328 C349 0.950 . S
H329 C352 0.950 . S
H330 C353 0.950 . S
H331 C355 0.950 . S
H332 C356 0.950 . S
H333 C357 0.951 . S
H334 C359 0.951 . S
H335 C361 0.950 . S
H336 C362 0.950 . S
H337 C364 0.950 . S
H338 C367 0.950 . S
H339 C368 0.950 . S
H340 C370 0.950 1_655 S
H341 C371 0.950 . S
C342 H324 0.951 . S
C342 C343 1.366 . S
C342 C344 1.388 . S
C343 C342 1.366 . S
C343 C347 1.385 . S
C344 H325 0.951 . S
C344 C342 1.388 . S
C344 C345 1.366 . S
C345 C344 1.366 . S
C345 C346 1.414 . S
C345 C348 1.499 . S
C346 H326 0.950 . S
C346 C345 1.414 . S
C346 C347 1.374 . S
C347 H327 0.950 . S
C347 C343 1.385 . S
C347 C346 1.374 . S
C348 C345 1.499 . S
C348 C349 1.373 . S
C348 C350 1.389 . S
C349 H328 0.950 . S
C349 C348 1.373 . S
C349 C365 1.377 . S
C350 C348 1.389 . S
C350 C351 1.524 . S
C350 C364 1.377 . S
C351 C350 1.524 . S
C351 C352 1.397 . S
C351 C356 1.363 . S
C352 H329 0.950 . S
C352 C351 1.397 . S
C352 C353 1.334 . S
C353 H330 0.950 . S
C353 C352 1.334 . S
C353 C354 1.287 . S
C354 C353 1.287 . S
C354 C355 1.524 . S
C354 H373 0.913 . S
C355 H331 0.950 . S
C355 C354 1.524 . S
C355 C356 1.415 . S
C356 H332 0.950 . S
C356 C351 1.363 . S
C356 C355 1.415 . S
C357 H333 0.951 . S
C357 C358 1.366 . S
C357 C359 1.388 . S
C358 C357 1.366 . S
C358 C362 1.385 . S
C359 H334 0.951 . S
C359 C357 1.388 . S
C359 C360 1.366 . S
C360 C359 1.366 . S
C360 C361 1.414 . S
C360 C363 1.499 . S
C361 H335 0.950 . S
C361 C360 1.414 . S
C361 C362 1.374 . S
C362 H336 0.950 . S
C362 C358 1.385 . S
C362 C361 1.374 . S
C363 C360 1.499 . S
C363 C364 1.373 . S
C363 C365 1.389 . S
C364 H337 0.950 . S
C364 C350 1.377 . S
C364 C363 1.373 . S
C365 C349 1.377 . S
C365 C363 1.389 . S
C365 C366 1.524 . S
C366 C365 1.524 . S
C366 C367 1.397 . S
C366 C371 1.363 . S
C367 H338 0.950 . S
C367 C366 1.397 . S
C367 C368 1.334 . S
C368 H339 0.950 . S
C368 C367 1.334 . S
C368 C369 1.287 . S
C369 C368 1.287 . S
C369 C370 1.524 . S
C369 H372 0.999 1_455 S
C370 H340 0.950 1_455 S
C370 C369 1.524 . S
C370 C371 1.415 . S
C371 H341 0.950 . S
C371 C366 1.363 . S
C371 C370 1.415 . S
H372 C369 0.999 1_655 S
H373 C354 0.913 . S
H374 C392 0.951 . S
H375 C394 0.951 . S
H376 C396 0.950 . S
H377 C397 0.950 . S
H378 C399 0.950 . S
H379 C402 0.950 . S
H380 C403 0.950 1_655 S
H381 C405 0.950 . S
H382 C406 0.950 . S
H383 C407 0.951 . S
H384 C409 0.951 . S
H385 C411 0.950 . S
H386 C412 0.950 . S
H387 C414 0.950 . S
H388 C417 0.950 . S
H389 C418 0.950 . S
H390 C420 0.950 . S
H391 C421 0.950 . S
C392 H374 0.951 . S
C392 C393 1.366 . S
C392 C394 1.388 . S
C393 C392 1.366 . S
C393 C397 1.385 . S
C394 H375 0.951 . S
C394 C392 1.388 . S
C394 C395 1.366 . S
C395 C394 1.366 . S
C395 C396 1.414 . S
C395 C398 1.499 . S
C396 H376 0.950 . S
C396 C395 1.414 . S
C396 C397 1.374 . S
C397 H377 0.950 . S
C397 C393 1.385 . S
C397 C396 1.374 . S
C398 C395 1.499 . S
C398 C399 1.373 . S
C398 C400 1.389 . S
C399 H378 0.950 . S
C399 C398 1.373 . S
C399 C415 1.377 . S
C400 C398 1.389 . S
C400 C401 1.524 . S
C400 C414 1.377 . S
C401 C400 1.524 . S
C401 C402 1.397 . S
C401 C406 1.363 . S
C402 H379 0.950 . S
C402 C401 1.397 . S
C402 C403 1.334 . S
C403 H380 0.950 1_455 S
C403 C402 1.334 . S
C403 C404 1.287 . S
C404 C403 1.287 . S
C404 C405 1.524 . S
C404 H423 0.913 . S
C405 H381 0.950 . S
C405 C404 1.524 . S
C405 C406 1.415 . S
C406 H382 0.950 . S
C406 C401 1.363 . S
C406 C405 1.415 . S
C407 H383 0.951 . S
C407 C408 1.366 . S
C407 C409 1.388 . S
C408 C407 1.366 . S
C408 C412 1.385 . S
C409 H384 0.951 . S
C409 C407 1.388 . S
C409 C410 1.366 . S
C410 C409 1.366 . S
C410 C411 1.414 . S
C410 C413 1.499 . S
C411 H385 0.950 . S
C411 C410 1.414 . S
C411 C412 1.374 . S
C412 H386 0.950 . S
C412 C408 1.385 . S
C412 C411 1.374 . S
C413 C410 1.499 . S
C413 C414 1.373 . S
C413 C415 1.389 . S
C414 H387 0.950 . S
C414 C400 1.377 . S
C414 C413 1.373 . S
C415 C399 1.377 . S
C415 C413 1.389 . S
C415 C416 1.524 . S
C416 C415 1.524 . S
C416 C417 1.397 . S
C416 C421 1.363 . S
C417 H388 0.950 . S
C417 C416 1.397 . S
C417 C418 1.334 . S
C418 H389 0.950 . S
C418 C417 1.334 . S
C418 C419 1.287 1_565 S
C419 C418 1.287 1_545 S
C419 C420 1.524 . S
C419 H422 0.999 . S
C420 H390 0.950 . S
C420 C419 1.524 . S
C420 C421 1.415 1_545 S
C421 H391 0.950 . S
C421 C416 1.363 . S
C421 C420 1.415 1_565 S
H422 C419 0.999 . S
H423 C404 0.913 . S
H424 C442 0.951 . S
H425 C444 0.951 . S
H426 C446 0.950 . S
H427 C447 0.950 . S
H428 C449 0.950 . S
H429 C452 0.950 . S
H430 C453 0.950 . S
H431 C455 0.950 . S
H432 C456 0.950 . S
H433 C457 0.951 . S
H434 C459 0.951 . S
H435 C461 0.950 . S
H436 C462 0.950 . S
H437 C464 0.950 . S
H438 C467 0.950 . S
H439 C468 0.950 . S
H440 C470 0.950 . S
H441 C471 0.950 . S
C442 H424 0.951 . S
C442 C443 1.366 . S
C442 C444 1.388 . S
C443 C442 1.366 . S
C443 C447 1.385 . S
C444 H425 0.951 . S
C444 C442 1.388 . S
C444 C445 1.366 . S
C445 C444 1.366 . S
C445 C446 1.414 . S
C445 C448 1.499 . S
C446 H426 0.950 . S
C446 C445 1.414 . S
C446 C447 1.374 . S
C447 H427 0.950 . S
C447 C443 1.385 . S
C447 C446 1.374 . S
C448 C445 1.499 . S
C448 C449 1.373 . S
C448 C450 1.389 1_565 S
C449 H428 0.950 . S
C449 C448 1.373 . S
C449 C465 1.377 1_556 S
C450 C448 1.389 1_545 S
C450 C451 1.524 . S
C450 C464 1.377 1_556 S
C451 C450 1.524 . S
C451 C452 1.397 . S
C451 C456 1.363 . S
C452 H429 0.950 . S
C452 C451 1.397 . S
C452 C453 1.334 . S
C453 H430 0.950 . S
C453 C452 1.334 . S
C453 C454 1.287 . S
C454 C453 1.287 . S
C454 C455 1.524 . S
C454 H473 0.913 . S
C455 H431 0.950 . S
C455 C454 1.524 . S
C455 C456 1.415 . S
C456 H432 0.950 . S
C456 C451 1.363 . S
C456 C455 1.415 . S
C457 H433 0.951 . S
C457 C458 1.366 . S
C457 C459 1.388 . S
C458 C457 1.366 . S
C458 C462 1.385 . S
C459 H434 0.951 . S
C459 C457 1.388 . S
C459 C460 1.366 . S
C460 C459 1.366 . S
C460 C461 1.414 . S
C460 C463 1.499 . S
C461 H435 0.950 . S
C461 C460 1.414 . S
C461 C462 1.374 . S
C462 H436 0.950 . S
C462 C458 1.385 . S
C462 C461 1.374 . S
C463 C460 1.499 . S
C463 C464 1.373 . S
C463 C465 1.389 1_545 S
C464 H437 0.950 . S
C464 C450 1.377 1_554 S
C464 C463 1.373 . S
C465 C449 1.377 1_554 S
C465 C463 1.389 1_565 S
C465 C466 1.524 . S
C466 C465 1.524 . S
C466 C467 1.397 . S
C466 C471 1.363 . S
C467 H438 0.950 . S
C467 C466 1.397 . S
C467 C468 1.334 . S
C468 H439 0.950 . S
C468 C467 1.334 . S
C468 C469 1.287 . S
C469 C468 1.287 . S
C469 C470 1.524 . S
C469 H472 0.999 . S
C470 H440 0.950 . S
C470 C469 1.524 . S
C470 C471 1.415 . S
C471 H441 0.950 . S
C471 C466 1.363 . S
C471 C470 1.415 . S
H472 C469 0.999 . S
H473 C454 0.913 . S
H474 C492 0.951 . S
H475 C494 0.951 . S
H476 C496 0.950 1_665 S
H477 C497 0.950 1_655 S
H478 C499 0.950 . S
H479 C502 0.950 1_565 S
H480 C503 0.950 . S
H481 C505 0.950 . S
H482 C506 0.950 . S
H483 C507 0.951 . S
H484 C509 0.951 . S
H485 C511 0.950 1_545 S
H486 C512 0.950 . S
H487 C514 0.950 . S
H488 C517 0.950 1_545 S
H489 C518 0.950 . S
H490 C520 0.950 . S
H491 C521 0.950 . S
C492 H474 0.951 . S
C492 C493 1.366 . S
C492 C494 1.388 . S
C493 C492 1.366 . S
C493 C497 1.385 . S
C494 H475 0.951 . S
C494 C492 1.388 . S
C494 C495 1.366 . S
C495 C494 1.366 . S
C495 C496 1.414 . S
C495 C498 1.499 . S
C496 H476 0.950 1_445 S
C496 C495 1.414 . S
C496 C497 1.374 . S
C497 H477 0.950 1_455 S
C497 C493 1.385 . S
C497 C496 1.374 . S
C498 C495 1.499 . S
C498 C499 1.373 1_455 S
C498 C500 1.389 . S
C499 H478 0.950 . S
C499 C498 1.373 1_655 S
C499 C515 1.377 1_545 S
C500 C498 1.389 . S
C500 C501 1.524 . S
C500 C514 1.377 1_545 S
C501 C500 1.524 . S
C501 C502 1.397 . S
C501 C506 1.363 . S
C502 H479 0.950 1_545 S
C502 C501 1.397 . S
C502 C503 1.334 . S
C503 H480 0.950 . S
C503 C502 1.334 . S
C503 C504 1.287 . S
C504 C503 1.287 . S
C504 C505 1.524 . S
C504 H523 0.913 . S
C505 H481 0.950 . S
C505 C504 1.524 . S
C505 C506 1.415 . S
C506 H482 0.950 . S
C506 C501 1.363 . S
C506 C505 1.415 . S
C507 H483 0.951 . S
C507 C508 1.366 . S
C507 C509 1.388 . S
C508 C507 1.366 . S
C508 C512 1.385 1_655 S
C509 H484 0.951 . S
C509 C507 1.388 . S
C509 C510 1.366 . S
C510 C509 1.366 . S
C510 C511 1.414 1_655 S
C510 C513 1.499 . S
C511 H485 0.950 1_565 S
C511 C510 1.414 1_455 S
C511 C512 1.374 . S
C512 H486 0.950 . S
C512 C508 1.385 1_455 S
C512 C511 1.374 . S
C513 C510 1.499 . S
C513 C514 1.373 1_655 S
C513 C515 1.389 . S
C514 H487 0.950 . S
C514 C500 1.377 1_565 S
C514 C513 1.373 1_455 S
C515 C499 1.377 1_565 S
C515 C513 1.389 . S
C515 C516 1.524 . S
C516 C515 1.524 . S
C516 C517 1.397 . S
C516 C521 1.363 . S
C517 H488 0.950 1_565 S
C517 C516 1.397 . S
C517 C518 1.334 . S
C518 H489 0.950 . S
C518 C517 1.334 . S
C518 C519 1.287 . S
C519 C518 1.287 . S
C519 C520 1.524 . S
C519 H522 0.999 . S
C520 H490 0.950 . S
C520 C519 1.524 . S
C520 C521 1.415 . S
C521 H491 0.950 . S
C521 C516 1.363 . S
C521 C520 1.415 . S
H522 C519 0.999 . S
H523 C504 0.913 . S
H524 C542 0.951 . S
H525 C544 0.951 . S
H526 C546 0.950 . S
H527 C547 0.950 . S
H528 C549 0.950 . S
H529 C552 0.950 . S
H530 C553 0.950 . S
H531 C555 0.950 . S
H532 C556 0.950 . S
H533 C557 0.951 . S
H534 C559 0.951 . S
H535 C561 0.950 . S
H536 C562 0.950 . S
H537 C564 0.950 . S
H538 C567 0.950 . S
H539 C568 0.950 . S
H540 C570 0.950 . S
H541 C571 0.950 . S
C542 H524 0.951 . S
C542 C543 1.366 1_565 S
C542 C544 1.388 . S
C543 C542 1.366 1_545 S
C543 C547 1.385 1_655 S
C544 H525 0.951 . S
C544 C542 1.388 . S
C544 C545 1.366 1_655 S
C545 C544 1.366 1_455 S
C545 C546 1.414 . S
C545 C548 1.499 . S
C546 H526 0.950 . S
C546 C545 1.414 . S
C546 C547 1.374 1_565 S
C547 H527 0.950 . S
C547 C543 1.385 1_455 S
C547 C546 1.374 1_545 S
C548 C545 1.499 . S
C548 C549 1.373 . S
C548 C550 1.389 1_455 S
C549 H528 0.950 . S
C549 C548 1.373 . S
C549 C565 1.377 . S
C550 C548 1.389 1_655 S
C550 C551 1.524 . S
C550 C564 1.377 . S
C551 C550 1.524 . S
C551 C552 1.397 . S
C551 C556 1.363 . S
C552 H529 0.950 . S
C552 C551 1.397 . S
C552 C553 1.334 . S
C553 H530 0.950 . S
C553 C552 1.334 . S
C553 C554 1.287 . S
C554 C553 1.287 . S
C554 C555 1.524 . S
C554 H573 0.913 . S
C555 H531 0.950 . S
C555 C554 1.524 . S
C555 C556 1.415 . S
C556 H532 0.950 . S
C556 C551 1.363 . S
C556 C555 1.415 . S
C557 H533 0.951 . S
C557 C558 1.366 . S
C557 C559 1.388 . S
C558 C557 1.366 . S
C558 C562 1.385 1_455 S
C559 H534 0.951 . S
C559 C557 1.388 . S
C559 C560 1.366 . S
C560 C559 1.366 . S
C560 C561 1.414 1_455 S
C560 C563 1.499 . S
C561 H535 0.950 . S
C561 C560 1.414 1_655 S
C561 C562 1.374 . S
C562 H536 0.950 . S
C562 C558 1.385 1_655 S
C562 C561 1.374 . S
C563 C560 1.499 . S
C563 C564 1.373 1_455 S
C563 C565 1.389 . S
C564 H537 0.950 . S
C564 C550 1.377 . S
C564 C563 1.373 1_655 S
C565 C549 1.377 . S
C565 C563 1.389 . S
C565 C566 1.524 . S
C566 C565 1.524 . S
C566 C567 1.397 . S
C566 C571 1.363 . S
C567 H538 0.950 . S
C567 C566 1.397 . S
C567 C568 1.334 . S
C568 H539 0.950 . S
C568 C567 1.334 . S
C568 C569 1.287 . S
C569 C568 1.287 . S
C569 C570 1.524 . S
C569 H572 0.999 . S
C570 H540 0.950 . S
C570 C569 1.524 . S
C570 C571 1.415 . S
C571 H541 0.950 . S
C571 C566 1.363 . S
C571 C570 1.415 . S
H572 C569 0.999 . S
H573 C554 0.913 . S
H574 C592 0.951 . S
H575 C594 0.951 . S
H576 C596 0.950 . S
H577 C597 0.950 . S
H578 C599 0.950 . S
H579 C602 0.950 . S
H580 C603 0.950 . S
H581 C605 0.950 1_545 S
H582 C606 0.950 . S
H583 C607 0.951 . S
H584 C609 0.951 . S
H585 C611 0.950 . S
H586 C612 0.950 . S
H587 C614 0.950 . S
H588 C617 0.950 . S
H589 C618 0.950 . S
H590 C620 0.950 . S
H591 C621 0.950 . S
C592 H574 0.951 . S
C592 C593 1.366 . S
C592 C594 1.388 . S
C593 C592 1.366 . S
C593 C597 1.385 . S
C594 H575 0.951 . S
C594 C592 1.388 . S
C594 C595 1.366 . S
C595 C594 1.366 . S
C595 C596 1.414 . S
C595 C598 1.499 . S
C596 H576 0.950 . S
C596 C595 1.414 . S
C596 C597 1.374 . S
C597 H577 0.950 . S
C597 C593 1.385 . S
C597 C596 1.374 . S
C598 C595 1.499 . S
C598 C599 1.373 . S
C598 C600 1.389 . S
C599 H578 0.950 . S
C599 C598 1.373 . S
C599 C615 1.377 . S
C600 C598 1.389 . S
C600 C601 1.524 . S
C600 C614 1.377 . S
C601 C600 1.524 . S
C601 C602 1.397 . S
C601 C606 1.363 . S
C602 H579 0.950 . S
C602 C601 1.397 . S
C602 C603 1.334 . S
C603 H580 0.950 . S
C603 C602 1.334 . S
C603 C604 1.287 . S
C604 C603 1.287 . S
C604 C605 1.524 . S
C604 H623 0.913 . S
C605 H581 0.950 1_565 S
C605 C604 1.524 . S
C605 C606 1.415 . S
C606 H582 0.950 . S
C606 C601 1.363 . S
C606 C605 1.415 . S
C607 H583 0.951 . S
C607 C608 1.366 . S
C607 C609 1.388 . S
C608 C607 1.366 . S
C608 C612 1.385 . S
C609 H584 0.951 . S
C609 C607 1.388 . S
C609 C610 1.366 . S
C610 C609 1.366 . S
C610 C611 1.414 . S
C610 C613 1.499 . S
C611 H585 0.950 . S
C611 C610 1.414 . S
C611 C612 1.374 . S
C612 H586 0.950 . S
C612 C608 1.385 . S
C612 C611 1.374 . S
C613 C610 1.499 . S
C613 C614 1.373 . S
C613 C615 1.389 . S
C614 H587 0.950 . S
C614 C600 1.377 . S
C614 C613 1.373 . S
C615 C599 1.377 . S
C615 C613 1.389 . S
C615 C616 1.524 . S
C616 C615 1.524 . S
C616 C617 1.397 . S
C616 C621 1.363 . S
C617 H588 0.950 . S
C617 C616 1.397 . S
C617 C618 1.334 . S
C618 H589 0.950 . S
C618 C617 1.334 . S
C618 C619 1.287 . S
C619 C618 1.287 . S
C619 C620 1.524 . S
C619 H622 0.999 . S
C620 H590 0.950 . S
C620 C619 1.524 . S
C620 C621 1.415 . S
C621 H591 0.950 . S
C621 C616 1.363 . S
C621 C620 1.415 . S
H622 C619 0.999 . S
H623 C604 0.913 . S
H624 C642 0.951 . S
H625 C644 0.951 . S
H626 C646 0.950 . S
H627 C647 0.950 . S
H628 C649 0.950 . S
H629 C652 0.950 . S
H630 C653 0.950 . S
H631 C655 0.950 . S
H632 C656 0.950 . S
H633 C657 0.958 . S
H634 C659 0.951 . S
H635 C661 0.950 . S
H636 C662 0.950 . S
H637 C664 0.950 . S
H638 C667 0.950 . S
H639 C668 0.950 . S
H640 C670 0.950 . S
H641 C671 0.950 . S
C642 H624 0.951 . S
C642 C643 1.366 . S
C642 C644 1.388 . S
C643 C642 1.366 . S
C643 C647 1.385 . S
C644 H625 0.951 . S
C644 C642 1.388 . S
C644 C645 1.366 . S
C645 C644 1.366 . S
C645 C646 1.414 . S
C645 C648 1.499 . S
C646 H626 0.950 . S
C646 C645 1.414 . S
C646 C647 1.374 . S
C647 H627 0.950 . S
C647 C643 1.385 . S
C647 C646 1.374 . S
C648 C645 1.499 . S
C648 C649 1.373 . S
C648 C650 1.389 . S
C649 H628 0.950 . S
C649 C648 1.373 . S
C649 C665 1.377 . S
C650 C648 1.389 . S
C650 C651 1.524 . S
C650 C664 1.377 . S
C651 C650 1.524 . S
C651 C652 1.397 . S
C651 C656 1.363 . S
C652 H629 0.950 . S
C652 C651 1.397 . S
C652 C653 1.334 . S
C653 H630 0.950 . S
C653 C652 1.334 . S
C653 C654 1.287 . S
C654 C653 1.287 . S
C654 C655 1.524 . S
C654 H673 0.913 . S
C655 H631 0.950 . S
C655 C654 1.524 . S
C655 C656 1.415 . S
C656 H632 0.950 . S
C656 C651 1.363 . S
C656 C655 1.415 . S
C657 H633 0.958 . S
C657 C658 1.372 . S
C657 C659 1.374 1_565 S
C658 C657 1.372 . S
C658 C662 1.385 1_565 S
C659 H634 0.951 . S
C659 C657 1.374 1_545 S
C659 C660 1.366 . S
C660 C659 1.366 . S
C660 C661 1.414 . S
C660 C663 1.499 . S
C661 H635 0.950 . S
C661 C660 1.414 . S
C661 C662 1.374 . S
C662 H636 0.950 . S
C662 C658 1.385 1_545 S
C662 C661 1.374 . S
C663 C660 1.499 . S
C663 C664 1.373 . S
C663 C665 1.389 . S
C664 H637 0.950 . S
C664 C650 1.377 . S
C664 C663 1.373 . S
C665 C649 1.377 . S
C665 C663 1.389 . S
C665 C666 1.524 . S
C666 C665 1.524 . S
C666 C667 1.397 . S
C666 C671 1.363 . S
C667 H638 0.950 . S
C667 C666 1.397 . S
C667 C668 1.334 . S
C668 H639 0.950 . S
C668 C667 1.334 . S
C668 C669 1.287 . S
C669 C668 1.287 . S
C669 C670 1.524 . S
C669 H672 0.999 . S
C670 H640 0.950 . S
C670 C669 1.524 . S
C670 C671 1.415 . S
C671 H641 0.950 . S
C671 C666 1.363 . S
C671 C670 1.415 . S
H672 C669 0.999 . S
H673 C654 0.913 . S
H674 C692 0.951 . S
H675 C694 0.951 . S
H676 C696 0.950 . S
H677 C697 0.950 . S
H678 C699 0.950 . S
H679 C702 0.950 . S
H680 C703 0.950 . S
H681 C705 0.950 . S
H682 C706 0.950 . S
H683 C707 0.951 . S
H684 C709 0.951 . S
H685 C711 0.950 . S
H686 C712 0.950 . S
H687 C714 0.950 . S
H688 C717 0.950 . S
H689 C718 0.950 . S
H690 C720 0.950 . S
H691 C721 0.950 . S
C692 H674 0.951 . S
C692 C693 1.366 . S
C692 C694 1.388 . S
C693 C692 1.366 . S
C693 C697 1.385 . S
C694 H675 0.951 . S
C694 C692 1.388 . S
C694 C695 1.366 . S
C695 C694 1.366 . S
C695 C696 1.414 . S
C695 C698 1.499 . S
C696 H676 0.950 . S
C696 C695 1.414 . S
C696 C697 1.374 . S
C697 H677 0.950 . S
C697 C693 1.385 . S
C697 C696 1.374 . S
C698 C695 1.499 . S
C698 C699 1.373 . S
C698 C700 1.389 . S
C699 H678 0.950 . S
C699 C698 1.373 . S
C699 C715 1.377 1_455 S
C700 C698 1.389 . S
C700 C701 1.524 . S
C700 C714 1.377 1_455 S
C701 C700 1.524 . S
C701 C702 1.397 . S
C701 C706 1.363 . S
C702 H679 0.950 . S
C702 C701 1.397 . S
C702 C703 1.334 . S
C703 H680 0.950 . S
C703 C702 1.334 . S
C703 C704 1.287 . S
C704 C703 1.287 . S
C704 C705 1.524 . S
C704 H723 0.913 . S
C705 H681 0.950 . S
C705 C704 1.524 . S
C705 C706 1.415 . S
C706 H682 0.950 . S
C706 C701 1.363 . S
C706 C705 1.415 . S
C707 H683 0.951 . S
C707 C708 1.366 . S
C707 C709 1.388 . S
C708 C707 1.366 . S
C708 C712 1.385 . S
C709 H684 0.951 . S
C709 C707 1.388 . S
C709 C710 1.366 . S
C710 C709 1.366 . S
C710 C711 1.414 . S
C710 C713 1.499 . S
C711 H685 0.950 . S
C711 C710 1.414 . S
C711 C712 1.374 . S
C712 H686 0.950 . S
C712 C708 1.385 . S
C712 C711 1.374 . S
C713 C710 1.499 . S
C713 C714 1.373 . S
C713 C715 1.389 . S
C714 H687 0.950 . S
C714 C700 1.377 1_655 S
C714 C713 1.373 . S
C715 C699 1.377 1_655 S
C715 C713 1.389 . S
C715 C716 1.524 . S
C716 C715 1.524 . S
C716 C717 1.397 . S
C716 C721 1.363 . S
C717 H688 0.950 . S
C717 C716 1.397 . S
C717 C718 1.334 . S
C718 H689 0.950 . S
C718 C717 1.334 . S
C718 C719 1.287 . S
C719 C718 1.287 . S
C719 C720 1.524 . S
C719 H722 0.999 . S
C720 H690 0.950 . S
C720 C719 1.524 . S
C720 C721 1.415 . S
C721 H691 0.950 . S
C721 C716 1.363 . S
C721 C720 1.415 . S
H722 C719 0.999 . S
H723 C704 0.913 . S
H724 C742 0.951 . S
H725 C744 0.951 . S
H726 C746 0.950 . S
H727 C747 0.950 . S
H728 C749 0.950 . S
H729 C752 0.950 1_655 S
H730 C753 0.950 . S
H731 C755 0.950 . S
H732 C756 0.950 . S
H733 C757 0.951 . S
H734 C759 0.951 . S
H735 C761 0.950 . S
H736 C762 0.950 . S
H737 C764 0.950 . S
H738 C767 0.950 1_455 S
H739 C768 0.950 . S
H740 C770 0.950 . S
H741 C771 0.950 . S
C742 H724 0.951 . S
C742 C743 1.366 1_545 S
C742 C744 1.388 . S
C743 C742 1.366 1_565 S
C743 C747 1.385 1_455 S
C744 H725 0.951 . S
C744 C742 1.388 . S
C744 C745 1.366 . S
C745 C744 1.366 . S
C745 C746 1.414 1_455 S
C745 C748 1.499 . S
C746 H726 0.950 . S
C746 C745 1.414 1_655 S
C746 C747 1.374 1_545 S
C747 H727 0.950 . S
C747 C743 1.385 1_655 S
C747 C746 1.374 1_565 S
C748 C745 1.499 . S
C748 C749 1.373 1_455 S
C748 C750 1.389 . S
C749 H728 0.950 . S
C749 C748 1.373 1_655 S
C749 C765 1.377 . S
C750 C748 1.389 . S
C750 C751 1.524 . S
C750 C764 1.377 . S
C751 C750 1.524 . S
C751 C752 1.397 . S
C751 C756 1.363 . S
C752 H729 0.950 1_455 S
C752 C751 1.397 . S
C752 C753 1.334 . S
C753 H730 0.950 . S
C753 C752 1.334 . S
C753 C754 1.287 . S
C754 C753 1.287 . S
C754 C755 1.524 . S
C754 H773 0.913 . S
C755 H731 0.950 . S
C755 C754 1.524 . S
C755 C756 1.415 . S
C756 H732 0.950 . S
C756 C751 1.363 . S
C756 C755 1.415 . S
C757 H733 0.951 . S
C757 C758 1.366 . S
C757 C759 1.388 . S
C758 C757 1.366 . S
C758 C762 1.385 1_655 S
C759 H734 0.951 . S
C759 C757 1.388 . S
C759 C760 1.366 . S
C760 C759 1.366 . S
C760 C761 1.414 1_655 S
C760 C763 1.499 1_655 S
C761 H735 0.950 . S
C761 C760 1.414 1_455 S
C761 C762 1.374 . S
C762 H736 0.950 . S
C762 C758 1.385 1_455 S
C762 C761 1.374 . S
C763 C760 1.499 1_455 S
C763 C764 1.373 . S
C763 C765 1.389 1_455 S
C764 H737 0.950 . S
C764 C750 1.377 . S
C764 C763 1.373 . S
C765 C749 1.377 . S
C765 C763 1.389 1_655 S
C765 C766 1.524 . S
C766 C765 1.524 . S
C766 C767 1.397 . S
C766 C771 1.363 . S
C767 H738 0.950 1_655 S
C767 C766 1.397 . S
C767 C768 1.334 . S
C768 H739 0.950 . S
C768 C767 1.334 . S
C768 C769 1.287 . S
C769 C768 1.287 . S
C769 C770 1.524 . S
C769 H772 0.999 . S
C770 H740 0.950 . S
C770 C769 1.524 . S
C770 C771 1.415 . S
C771 H741 0.950 . S
C771 C766 1.363 . S
C771 C770 1.415 . S
H772 C769 0.999 . S
H773 C754 0.913 . S
H774 C792 0.951 . S
H775 C794 0.951 . S
H776 C796 0.950 . S
H777 C797 0.950 . S
H778 C799 0.950 . S
H779 C802 0.950 . S
H780 C803 0.950 1_545 S
H781 C805 0.957 . S
H782 C806 0.950 . S
H783 C807 0.951 . S
H784 C809 0.951 . S
H785 C811 0.950 . S
H786 C812 0.950 . S
H787 C814 0.950 . S
H788 C817 0.950 . S
H789 C818 0.950 . S
H790 C820 0.950 . S
H791 C821 0.950 . S
C792 H774 0.951 . S
C792 C793 1.366 . S
C792 C794 1.388 . S
C793 C792 1.366 . S
C793 C797 1.385 . S
C794 H775 0.951 . S
C794 C792 1.388 . S
C794 C795 1.366 . S
C795 C794 1.366 . S
C795 C796 1.414 . S
C795 C798 1.499 . S
C796 H776 0.950 . S
C796 C795 1.414 . S
C796 C797 1.374 . S
C797 H777 0.950 . S
C797 C793 1.385 . S
C797 C796 1.374 . S
C798 C795 1.499 . S
C798 C799 1.373 . S
C798 C800 1.389 1_655 S
C799 H778 0.950 . S
C799 C798 1.373 . S
C799 C815 1.377 1_655 S
C800 C798 1.389 1_455 S
C800 C801 1.524 . S
C800 C814 1.377 . S
C801 C800 1.524 . S
C801 C802 1.397 1_455 S
C801 C806 1.363 . S
C802 H779 0.950 . S
C802 C801 1.397 1_655 S
C802 C803 1.334 . S
C803 H780 0.950 1_565 S
C803 C802 1.334 . S
C803 C804 1.287 1_665 S
C804 C803 1.287 1_445 S
C804 C805 1.534 . S
C804 H823 0.913 . S
C805 H781 0.957 . S
C805 C804 1.534 . S
C805 C806 1.397 1_545 S
C806 H782 0.950 . S
C806 C801 1.363 . S
C806 C805 1.397 1_565 S
C807 H783 0.951 . S
C807 C808 1.366 . S
C807 C809 1.388 . S
C808 C807 1.366 . S
C808 C812 1.385 . S
C809 H784 0.951 . S
C809 C807 1.388 . S
C809 C810 1.366 . S
C810 C809 1.366 . S
C810 C811 1.414 . S
C810 C813 1.499 . S
C811 H785 0.950 . S
C811 C810 1.414 . S
C811 C812 1.374 . S
C812 H786 0.950 . S
C812 C808 1.385 . S
C812 C811 1.374 . S
C813 C810 1.499 . S
C813 C814 1.373 . S
C813 C815 1.389 . S
C814 H787 0.950 . S
C814 C800 1.377 . S
C814 C813 1.373 . S
C815 C799 1.377 1_455 S
C815 C813 1.389 . S
C815 C816 1.524 . S
C816 C815 1.524 . S
C816 C817 1.397 . S
C816 C821 1.363 1_455 S
C817 H788 0.950 . S
C817 C816 1.397 . S
C817 C818 1.334 . S
C818 H789 0.950 . S
C818 C817 1.334 . S
C818 C819 1.287 . S
C819 C818 1.287 . S
C819 C820 1.524 1_455 S
C819 H822 0.999 . S
C820 H790 0.950 . S
C820 C819 1.524 1_655 S
C820 C821 1.415 . S
C821 H791 0.950 . S
C821 C816 1.363 1_655 S
C821 C820 1.415 . S
H822 C819 0.999 . S
H823 C804 0.913 . S
H824 C842 0.951 . S
H825 C844 0.951 . S
H826 C846 0.950 . S
H827 C847 0.950 . S
H828 C849 0.950 . S
H829 C852 0.950 . S
H830 C853 0.950 . S
H831 C855 0.950 . S
H832 C856 0.950 . S
H833 C857 0.951 . S
H834 C859 0.951 . S
H835 C861 0.950 . S
H836 C862 0.950 1_545 S
H837 C864 0.950 . S
H838 C867 0.950 . S
H839 C868 0.950 . S
H840 C870 0.950 . S
H841 C871 0.950 . S
C842 H824 0.951 . S
C842 C843 1.366 . S
C842 C844 1.388 . S
C843 C842 1.366 . S
C843 C847 1.385 . S
C844 H825 0.951 . S
C844 C842 1.388 . S
C844 C845 1.366 . S
C845 C844 1.366 . S
C845 C846 1.414 . S
C845 C848 1.499 . S
C846 H826 0.950 . S
C846 C845 1.414 . S
C846 C847 1.374 . S
C847 H827 0.950 . S
C847 C843 1.385 . S
C847 C846 1.374 . S
C848 C845 1.499 . S
C848 C849 1.373 . S
C848 C850 1.389 . S
C849 H828 0.950 . S
C849 C848 1.373 . S
C849 C865 1.377 . S
C850 C848 1.389 . S
C850 C851 1.524 . S
C850 C864 1.377 . S
C851 C850 1.524 . S
C851 C852 1.397 . S
C851 C856 1.363 . S
C852 H829 0.950 . S
C852 C851 1.397 . S
C852 C853 1.334 . S
C853 H830 0.950 . S
C853 C852 1.334 . S
C853 C854 1.287 . S
C854 C853 1.287 . S
C854 C855 1.524 . S
C854 H873 0.913 . S
C855 H831 0.950 . S
C855 C854 1.524 . S
C855 C856 1.415 . S
C856 H832 0.950 . S
C856 C851 1.363 . S
C856 C855 1.415 . S
C857 H833 0.951 . S
C857 C858 1.366 1_565 S
C857 C859 1.388 . S
C858 C857 1.366 1_545 S
C858 C862 1.385 1_545 S
C859 H834 0.951 . S
C859 C857 1.388 . S
C859 C860 1.366 . S
C860 C859 1.366 . S
C860 C861 1.414 . S
C860 C863 1.499 . S
C861 H835 0.950 . S
C861 C860 1.414 . S
C861 C862 1.374 . S
C862 H836 0.950 1_565 S
C862 C858 1.385 1_565 S
C862 C861 1.374 . S
C863 C860 1.499 . S
C863 C864 1.373 . S
C863 C865 1.389 . S
C864 H837 0.950 . S
C864 C850 1.377 . S
C864 C863 1.373 . S
C865 C849 1.377 . S
C865 C863 1.389 . S
C865 C866 1.524 . S
C866 C865 1.524 . S
C866 C867 1.397 . S
C866 C871 1.363 . S
C867 H838 0.950 . S
C867 C866 1.397 . S
C867 C868 1.334 . S
C868 H839 0.950 . S
C868 C867 1.334 . S
C868 C869 1.287 . S
C869 C868 1.287 . S
C869 C870 1.524 . S
C869 H872 0.999 . S
C870 H840 0.950 . S
C870 C869 1.524 . S
C870 C871 1.415 . S
C871 H841 0.950 . S
C871 C866 1.363 . S
C871 C870 1.415 . S
H872 C869 0.999 . S
H873 C854 0.913 . S
H874 C892 0.951 . S
H875 C894 0.951 . S
H876 C896 0.950 . S
H877 C897 0.950 . S
H878 C899 0.950 . S
H879 C902 0.950 . S
H880 C903 0.950 . S
H881 C905 0.950 1_565 S
H882 C906 0.950 . S
H883 C907 0.951 . S
H884 C909 0.951 . S
H885 C911 0.950 . S
H886 C912 0.950 . S
H887 C914 0.950 . S
H888 C917 0.950 . S
H889 C918 0.950 . S
H890 C920 0.950 . S
H891 C921 0.950 . S
C892 H874 0.951 . S
C892 C893 1.366 . S
C892 C894 1.388 . S
C893 C892 1.366 . S
C893 C897 1.385 . S
C894 H875 0.951 . S
C894 C892 1.388 . S
C894 C895 1.366 . S
C895 C894 1.366 . S
C895 C896 1.414 . S
C895 C898 1.499 . S
C896 H876 0.950 . S
C896 C895 1.414 . S
C896 C897 1.374 . S
C897 H877 0.950 . S
C897 C893 1.385 . S
C897 C896 1.374 . S
C898 C895 1.499 . S
C898 C899 1.373 . S
C898 C900 1.389 . S
C899 H878 0.950 . S
C899 C898 1.373 . S
C899 C915 1.377 . S
C900 C898 1.389 . S
C900 C901 1.524 . S
C900 C914 1.377 . S
C901 C900 1.524 . S
C901 C902 1.397 . S
C901 C906 1.363 . S
C902 H879 0.950 . S
C902 C901 1.397 . S
C902 C903 1.334 . S
C903 H880 0.950 . S
C903 C902 1.334 . S
C903 C904 1.287 . S
C904 C903 1.287 . S
C904 C905 1.524 . S
C904 H923 0.913 . S
C905 H881 0.950 1_545 S
C905 C904 1.524 . S
C905 C906 1.415 . S
C906 H882 0.950 . S
C906 C901 1.363 . S
C906 C905 1.415 . S
C907 H883 0.951 . S
C907 C908 1.366 . S
C907 C909 1.388 . S
C908 C907 1.366 . S
C908 C912 1.385 . S
C909 H884 0.951 . S
C909 C907 1.388 . S
C909 C910 1.366 . S
C910 C909 1.366 . S
C910 C911 1.414 . S
C910 C913 1.499 . S
C911 H885 0.950 . S
C911 C910 1.414 . S
C911 C912 1.374 . S
C912 H886 0.950 . S
C912 C908 1.385 . S
C912 C911 1.374 . S
C913 C910 1.499 . S
C913 C914 1.373 . S
C913 C915 1.389 . S
C914 H887 0.950 . S
C914 C900 1.377 . S
C914 C913 1.373 . S
C915 C899 1.377 . S
C915 C913 1.389 . S
C915 C916 1.524 . S
C916 C915 1.524 . S
C916 C917 1.397 . S
C916 C921 1.363 . S
C917 H888 0.950 . S
C917 C916 1.397 . S
C917 C918 1.334 . S
C918 H889 0.950 . S
C918 C917 1.334 . S
C918 C919 1.287 . S
C919 C918 1.287 . S
C919 C920 1.524 . S
C919 H922 0.999 . S
C920 H890 0.950 . S
C920 C919 1.524 . S
C920 C921 1.415 . S
C921 H891 0.950 . S
C921 C916 1.363 . S
C921 C920 1.415 . S
H922 C919 0.999 . S
H923 C904 0.913 . S
C143 C1 1.212 . S
C158 C58 1.212 . S
C193 C89 1.832 . S
C208 C32 1.832 . S
C243 C62 1.298 . S
C258 C117 1.298 . S
C293 C24 1.264 . S
C308 C93 1.264 . S
C343 C94 1.832 . S
C358 C27 1.832 . S
C393 C31 1.264 . S
C408 C86 1.264 . S
C443 C63 1.212 . S
C458 C120 1.212 . S
C493 C0 1.296 . S
C508 C55 1.296 . S
C543 C18 1.626 . S
C558 C11 1.626 . S
C593 C41 1.212 . S
C608 C33 1.212 . S
C643 C80 1.626 . S
C658 C73 1.626 . S
C693 C95 1.212 . S
C708 C103 1.212 . S
C743 C42 1.625 . S
C758 C49 1.625 . S
C793 C72 1.212 . S
C808 C64 1.212 . S
C843 C104 1.626 . S
C858 C111 1.626 . S
C893 C2 1.213 . S
C908 C10 1.213 . S
