# Generated by pormake.
# Topology som, (6)-cn, num edge types: 1
# Building blocks:
#     Node 0, Type 0, BuildingBlock: GEDQOX_clean_sbu_0, # of connection points: 6
#     Node 1, Type 0, BuildingBlock: GEDQOX_clean_sbu_0, # of connection points: 6
#     Node 2, Type 0, BuildingBlock: GEDQOX_clean_sbu_0, # of connection points: 6
#     Node 3, Type 0, BuildingBlock: GEDQOX_clean_sbu_0, # of connection points: 6
#     Node 4, Type 0, BuildingBlock: GEDQOX_clean_sbu_0, # of connection points: 6
#     Node 5, Type 0, BuildingBlock: GEDQOX_clean_sbu_0, # of connection points: 6
#     Node 6, Type 0, BuildingBlock: GEDQOX_clean_sbu_0, # of connection points: 6
#     Node 7, Type 0, BuildingBlock: GEDQOX_clean_sbu_0, # of connection points: 6
#     Node 8, Type 0, BuildingBlock: GEDQOX_clean_sbu_0, # of connection points: 6
#     Node 9, Type 0, BuildingBlock: GEDQOX_clean_sbu_0, # of connection points: 6
#     Node 10, Type 0, BuildingBlock: GEDQOX_clean_sbu_0, # of connection points: 6
#     Node 11, Type 0, BuildingBlock: GEDQOX_clean_sbu_0, # of connection points: 6
#     Node 12, Type 0, BuildingBlock: GEDQOX_clean_sbu_0, # of connection points: 6
#     Node 13, Type 0, BuildingBlock: GEDQOX_clean_sbu_0, # of connection points: 6
#     Node 14, Type 0, BuildingBlock: GEDQOX_clean_sbu_0, # of connection points: 6
#     Node 15, Type 0, BuildingBlock: GEDQOX_clean_sbu_0, # of connection points: 6
#     Node 16, Type 0, BuildingBlock: GEDQOX_clean_sbu_0, # of connection points: 6
#     Node 17, Type 0, BuildingBlock: GEDQOX_clean_sbu_0, # of connection points: 6
#     Node 18, Type 0, BuildingBlock: GEDQOX_clean_sbu_0, # of connection points: 6
#     Node 19, Type 0, BuildingBlock: GEDQOX_clean_sbu_0, # of connection points: 6
#     Node 20, Type 0, BuildingBlock: GEDQOX_clean_sbu_0, # of connection points: 6
#     Node 21, Type 0, BuildingBlock: GEDQOX_clean_sbu_0, # of connection points: 6
#     Node 22, Type 0, BuildingBlock: GEDQOX_clean_sbu_0, # of connection points: 6
#     Node 23, Type 0, BuildingBlock: GEDQOX_clean_sbu_0, # of connection points: 6
#     Node 24, Type 0, BuildingBlock: GEDQOX_clean_sbu_0, # of connection points: 6
#     Node 25, Type 0, BuildingBlock: GEDQOX_clean_sbu_0, # of connection points: 6
#     Node 26, Type 0, BuildingBlock: GEDQOX_clean_sbu_0, # of connection points: 6
#     Node 27, Type 0, BuildingBlock: GEDQOX_clean_sbu_0, # of connection points: 6
#     Node 28, Type 0, BuildingBlock: GEDQOX_clean_sbu_0, # of connection points: 6
#     Node 29, Type 0, BuildingBlock: GEDQOX_clean_sbu_0, # of connection points: 6
#     Node 30, Type 0, BuildingBlock: GEDQOX_clean_sbu_0, # of connection points: 6
#     Node 31, Type 0, BuildingBlock: GEDQOX_clean_sbu_0, # of connection points: 6
#     Edge 32, Type (0, 0), BuildingBlock: EZIPEK_clean_linker_0, # of connection points: 2
#     Edge 33, Type (0, 0), BuildingBlock: EZIPEK_clean_linker_0, # of connection points: 2
#     Edge 34, Type (0, 0), BuildingBlock: EZIPEK_clean_linker_0, # of connection points: 2
#     Edge 35, Type (0, 0), BuildingBlock: EZIPEK_clean_linker_0, # of connection points: 2
#     Edge 36, Type (0, 0), BuildingBlock: EZIPEK_clean_linker_0, # of connection points: 2
#     Edge 37, Type (0, 0), BuildingBlock: EZIPEK_clean_linker_0, # of connection points: 2
#     Edge 38, Type (0, 0), BuildingBlock: EZIPEK_clean_linker_0, # of connection points: 2
#     Edge 39, Type (0, 0), BuildingBlock: EZIPEK_clean_linker_0, # of connection points: 2
#     Edge 40, Type (0, 0), BuildingBlock: EZIPEK_clean_linker_0, # of connection points: 2
#     Edge 41, Type (0, 0), BuildingBlock: EZIPEK_clean_linker_0, # of connection points: 2
#     Edge 42, Type (0, 0), BuildingBlock: EZIPEK_clean_linker_0, # of connection points: 2
#     Edge 43, Type (0, 0), BuildingBlock: EZIPEK_clean_linker_0, # of connection points: 2
#     Edge 44, Type (0, 0), BuildingBlock: EZIPEK_clean_linker_0, # of connection points: 2
#     Edge 45, Type (0, 0), BuildingBlock: EZIPEK_clean_linker_0, # of connection points: 2
#     Edge 46, Type (0, 0), BuildingBlock: EZIPEK_clean_linker_0, # of connection points: 2
#     Edge 47, Type (0, 0), BuildingBlock: EZIPEK_clean_linker_0, # of connection points: 2
#     Edge 48, Type (0, 0), BuildingBlock: EZIPEK_clean_linker_0, # of connection points: 2
#     Edge 49, Type (0, 0), BuildingBlock: EZIPEK_clean_linker_0, # of connection points: 2
#     Edge 50, Type (0, 0), BuildingBlock: EZIPEK_clean_linker_0, # of connection points: 2
#     Edge 51, Type (0, 0), BuildingBlock: EZIPEK_clean_linker_0, # of connection points: 2
#     Edge 52, Type (0, 0), BuildingBlock: EZIPEK_clean_linker_0, # of connection points: 2
#     Edge 53, Type (0, 0), BuildingBlock: EZIPEK_clean_linker_0, # of connection points: 2
#     Edge 54, Type (0, 0), BuildingBlock: EZIPEK_clean_linker_0, # of connection points: 2
#     Edge 55, Type (0, 0), BuildingBlock: EZIPEK_clean_linker_0, # of connection points: 2
#     Edge 56, Type (0, 0), BuildingBlock: EZIPEK_clean_linker_0, # of connection points: 2
#     Edge 57, Type (0, 0), BuildingBlock: EZIPEK_clean_linker_0, # of connection points: 2
#     Edge 58, Type (0, 0), BuildingBlock: EZIPEK_clean_linker_0, # of connection points: 2
#     Edge 59, Type (0, 0), BuildingBlock: EZIPEK_clean_linker_0, # of connection points: 2
#     Edge 60, Type (0, 0), BuildingBlock: EZIPEK_clean_linker_0, # of connection points: 2
#     Edge 61, Type (0, 0), BuildingBlock: EZIPEK_clean_linker_0, # of connection points: 2
#     Edge 62, Type (0, 0), BuildingBlock: EZIPEK_clean_linker_0, # of connection points: 2
#     Edge 63, Type (0, 0), BuildingBlock: EZIPEK_clean_linker_0, # of connection points: 2
#     Edge 64, Type (0, 0), BuildingBlock: EZIPEK_clean_linker_0, # of connection points: 2
#     Edge 65, Type (0, 0), BuildingBlock: EZIPEK_clean_linker_0, # of connection points: 2
#     Edge 66, Type (0, 0), BuildingBlock: EZIPEK_clean_linker_0, # of connection points: 2
#     Edge 67, Type (0, 0), BuildingBlock: EZIPEK_clean_linker_0, # of connection points: 2
#     Edge 68, Type (0, 0), BuildingBlock: EZIPEK_clean_linker_0, # of connection points: 2
#     Edge 69, Type (0, 0), BuildingBlock: EZIPEK_clean_linker_0, # of connection points: 2
#     Edge 70, Type (0, 0), BuildingBlock: EZIPEK_clean_linker_0, # of connection points: 2
#     Edge 71, Type (0, 0), BuildingBlock: EZIPEK_clean_linker_0, # of connection points: 2
#     Edge 72, Type (0, 0), BuildingBlock: EZIPEK_clean_linker_0, # of connection points: 2
#     Edge 73, Type (0, 0), BuildingBlock: EZIPEK_clean_linker_0, # of connection points: 2
#     Edge 74, Type (0, 0), BuildingBlock: EZIPEK_clean_linker_0, # of connection points: 2
#     Edge 75, Type (0, 0), BuildingBlock: EZIPEK_clean_linker_0, # of connection points: 2
#     Edge 76, Type (0, 0), BuildingBlock: EZIPEK_clean_linker_0, # of connection points: 2
#     Edge 77, Type (0, 0), BuildingBlock: EZIPEK_clean_linker_0, # of connection points: 2
#     Edge 78, Type (0, 0), BuildingBlock: EZIPEK_clean_linker_0, # of connection points: 2
#     Edge 79, Type (0, 0), BuildingBlock: EZIPEK_clean_linker_0, # of connection points: 2
#     Edge 80, Type (0, 0), BuildingBlock: EZIPEK_clean_linker_0, # of connection points: 2
#     Edge 81, Type (0, 0), BuildingBlock: EZIPEK_clean_linker_0, # of connection points: 2
#     Edge 82, Type (0, 0), BuildingBlock: EZIPEK_clean_linker_0, # of connection points: 2
#     Edge 83, Type (0, 0), BuildingBlock: EZIPEK_clean_linker_0, # of connection points: 2
#     Edge 84, Type (0, 0), BuildingBlock: EZIPEK_clean_linker_0, # of connection points: 2
#     Edge 85, Type (0, 0), BuildingBlock: EZIPEK_clean_linker_0, # of connection points: 2
#     Edge 86, Type (0, 0), BuildingBlock: EZIPEK_clean_linker_0, # of connection points: 2
#     Edge 87, Type (0, 0), BuildingBlock: EZIPEK_clean_linker_0, # of connection points: 2
#     Edge 88, Type (0, 0), BuildingBlock: EZIPEK_clean_linker_0, # of connection points: 2
#     Edge 89, Type (0, 0), BuildingBlock: EZIPEK_clean_linker_0, # of connection points: 2
#     Edge 90, Type (0, 0), BuildingBlock: EZIPEK_clean_linker_0, # of connection points: 2
#     Edge 91, Type (0, 0), BuildingBlock: EZIPEK_clean_linker_0, # of connection points: 2
#     Edge 92, Type (0, 0), BuildingBlock: EZIPEK_clean_linker_0, # of connection points: 2
#     Edge 93, Type (0, 0), BuildingBlock: EZIPEK_clean_linker_0, # of connection points: 2
#     Edge 94, Type (0, 0), BuildingBlock: EZIPEK_clean_linker_0, # of connection points: 2
#     Edge 95, Type (0, 0), BuildingBlock: EZIPEK_clean_linker_0, # of connection points: 2
#     Edge 96, Type (0, 0), BuildingBlock: EZIPEK_clean_linker_0, # of connection points: 2
#     Edge 97, Type (0, 0), BuildingBlock: EZIPEK_clean_linker_0, # of connection points: 2
#     Edge 98, Type (0, 0), BuildingBlock: EZIPEK_clean_linker_0, # of connection points: 2
#     Edge 99, Type (0, 0), BuildingBlock: EZIPEK_clean_linker_0, # of connection points: 2
#     Edge 100, Type (0, 0), BuildingBlock: EZIPEK_clean_linker_0, # of connection points: 2
#     Edge 101, Type (0, 0), BuildingBlock: EZIPEK_clean_linker_0, # of connection points: 2
#     Edge 102, Type (0, 0), BuildingBlock: EZIPEK_clean_linker_0, # of connection points: 2
#     Edge 103, Type (0, 0), BuildingBlock: EZIPEK_clean_linker_0, # of connection points: 2
#     Edge 104, Type (0, 0), BuildingBlock: EZIPEK_clean_linker_0, # of connection points: 2
#     Edge 105, Type (0, 0), BuildingBlock: EZIPEK_clean_linker_0, # of connection points: 2
#     Edge 106, Type (0, 0), BuildingBlock: EZIPEK_clean_linker_0, # of connection points: 2
#     Edge 107, Type (0, 0), BuildingBlock: EZIPEK_clean_linker_0, # of connection points: 2
#     Edge 108, Type (0, 0), BuildingBlock: EZIPEK_clean_linker_0, # of connection points: 2
#     Edge 109, Type (0, 0), BuildingBlock: EZIPEK_clean_linker_0, # of connection points: 2
#     Edge 110, Type (0, 0), BuildingBlock: EZIPEK_clean_linker_0, # of connection points: 2
#     Edge 111, Type (0, 0), BuildingBlock: EZIPEK_clean_linker_0, # of connection points: 2
#     Edge 112, Type (0, 0), BuildingBlock: EZIPEK_clean_linker_0, # of connection points: 2
#     Edge 113, Type (0, 0), BuildingBlock: EZIPEK_clean_linker_0, # of connection points: 2
#     Edge 114, Type (0, 0), BuildingBlock: EZIPEK_clean_linker_0, # of connection points: 2
#     Edge 115, Type (0, 0), BuildingBlock: EZIPEK_clean_linker_0, # of connection points: 2
#     Edge 116, Type (0, 0), BuildingBlock: EZIPEK_clean_linker_0, # of connection points: 2
#     Edge 117, Type (0, 0), BuildingBlock: EZIPEK_clean_linker_0, # of connection points: 2
#     Edge 118, Type (0, 0), BuildingBlock: EZIPEK_clean_linker_0, # of connection points: 2
#     Edge 119, Type (0, 0), BuildingBlock: EZIPEK_clean_linker_0, # of connection points: 2
#     Edge 120, Type (0, 0), BuildingBlock: EZIPEK_clean_linker_0, # of connection points: 2
#     Edge 121, Type (0, 0), BuildingBlock: EZIPEK_clean_linker_0, # of connection points: 2
#     Edge 122, Type (0, 0), BuildingBlock: EZIPEK_clean_linker_0, # of connection points: 2
#     Edge 123, Type (0, 0), BuildingBlock: EZIPEK_clean_linker_0, # of connection points: 2
#     Edge 124, Type (0, 0), BuildingBlock: EZIPEK_clean_linker_0, # of connection points: 2
#     Edge 125, Type (0, 0), BuildingBlock: EZIPEK_clean_linker_0, # of connection points: 2
#     Edge 126, Type (0, 0), BuildingBlock: EZIPEK_clean_linker_0, # of connection points: 2
#     Edge 127, Type (0, 0), BuildingBlock: EZIPEK_clean_linker_0, # of connection points: 2
# Relax obj value: 0.195
# Max RMSD: 0.211
# Mean RMSD: 0.211
data_MOF--net-som--node1-GEDQOX_clean_sbu_0--edge1-EZIPEK_clean_linker_0
_symmetry_space_group_name_H-M    P1
_symmetry_Int_Tables_number       1
_symmetry_cell_setting            triclinic
loop_
_symmetry_equiv_pos_as_xyz
'x, y, z'
_cell_length_a     11.733031
_cell_length_b     89.006718
_cell_length_c     86.238147
_cell_angle_alpha  90.063151
_cell_angle_beta   89.978264
_cell_angle_gamma 89.749736
loop_
_atom_site_label
_atom_site_type_symbol
_atom_site_fract_x
_atom_site_fract_y
_atom_site_fract_z
_atom_type_partial_charge
Nd0 Nd 0.07269 0.49598 0.06082 0.0
Nd1 Nd 0.07162 0.52938 0.06092 0.0
C2 C 1.0438 0.46666 0.05804 0.0
C3 C 1.02487 0.45015 0.05696 0.0
C4 C 0.07548 0.4415 0.04512 0.0
C5 C 0.05577 0.42596 0.04416 0.0
C6 C 0.98506 0.41879 0.05502 0.0
C7 C 0.93473 0.4274 0.06684 0.0
C8 C 0.95445 0.44288 0.06781 0.0
C9 C 0.12507 0.50815 0.08977 0.0
C10 C 0.8219 0.51276 0.06039 0.0
C11 C 0.04738 0.55858 0.0668 0.0
C12 C 0.08681 0.57437 0.06578 0.0
C13 C 0.09594 0.58281 0.07951 0.0
C14 C 0.11699 0.59827 0.079 0.0
C15 C 0.12958 0.60563 0.06473 0.0
C16 C 0.12422 0.59719 0.05097 0.0
C17 C 0.10264 0.58168 0.05147 0.0
C18 C 0.09 0.51734 0.03116 0.0
C19 C 0.31962 0.51247 0.05905 0.0
O20 O 0.1037 0.47438 0.04798 0.0
O21 O 1.00074 0.47461 0.0694 0.0
O22 O 0.17236 0.49637 0.08376 0.0
O23 O 0.04762 0.51289 0.08072 0.0
O24 O 0.87803 0.5 0.05853 0.0
O25 O 0.87661 0.5255 0.06271 0.0
O26 O 0.10048 0.54931 0.0761 0.0
O27 O 1.00688 0.552 0.05443 0.0
O28 O 0.14578 0.52898 0.03608 0.0
O29 O 1.02622 0.51257 0.0419 0.0
O30 O 0.26508 0.52454 0.0642 0.0
O31 O 0.26178 0.50058 0.05422 0.0
H32 H 0.13003 0.44673 0.03657 0.0
H33 H 0.0952 0.41953 0.03492 0.0
H34 H 0.87973 0.42212 0.07531 0.0
H35 H 0.9139 0.44918 0.07707 0.0
H36 H 0.08276 0.57752 0.09067 0.0
H37 H 0.12052 0.60459 0.08973 0.0
H38 H 0.13342 0.60268 0.03984 0.0
H39 H 0.09519 0.57552 0.04068 0.0
Nd40 Nd 0.23067 0.78177 0.05951 0.0
Nd41 Nd 0.23499 0.7485 0.05963 0.0
C42 C 0.24473 0.81127 0.05444 0.0
C43 C 0.30484 0.82599 0.05478 0.0
C44 C 0.33029 0.83332 0.04075 0.0
C45 C 0.36852 0.84824 0.04068 0.0
C46 C 0.38159 0.85621 0.05463 0.0
C47 C 0.35999 0.84879 0.0687 0.0
C48 C 0.32185 0.83385 0.06878 0.0
C49 C 0.18953 0.76972 0.08871 0.0
C50 C 0.48373 0.76447 0.06052 0.0
C51 C 0.21021 0.71909 0.06251 0.0
C52 C 0.1945 0.70254 0.06348 0.0
C53 C 0.22922 0.69441 0.07666 0.0
C54 C 0.21899 0.67869 0.07709 0.0
C55 C 0.17425 0.67083 0.06434 0.0
C56 C 0.13886 0.67893 0.05123 0.0
C57 C 0.14877 0.6946 0.05081 0.0
C58 C 0.27362 0.76046 0.03056 0.0
C59 C 0.9862 0.76593 0.0586 0.0
O60 O 0.27144 0.80119 0.044 0.0
O61 O 0.21041 0.80534 0.06746 0.0
O62 O 0.14026 0.78151 0.08306 0.0
O63 O 0.26483 0.76494 0.0793 0.0
O64 O 0.42675 0.77725 0.05876 0.0
O65 O 0.42933 0.75162 0.06248 0.0
O66 O 0.26028 0.72718 0.0732 0.0
O67 O 0.17109 0.72678 0.05076 0.0
O68 O 0.32457 0.7488 0.03617 0.0
O69 O 0.19871 0.76524 0.04002 0.0
O70 O 1.0429 0.75405 0.06371 0.0
O71 O 1.04206 0.7777 0.05334 0.0
H72 H 0.3164 0.8277 0.02977 0.0
H73 H 0.38466 0.85373 0.0297 0.0
H74 H 0.36953 0.8547 0.0796 0.0
H75 H 0.30191 0.82866 0.0798 0.0
H76 H 0.2651 0.70017 0.08658 0.0
H77 H 0.24652 0.67265 0.08733 0.0
H78 H 0.10401 0.6731 0.04129 0.0
H79 H 0.12174 0.70048 0.04045 0.0
Nd80 Nd 0.11371 0.78033 0.18482 0.0
Nd81 Nd 0.11704 0.74661 0.18373 0.0
C82 C 0.12774 0.80962 0.19091 0.0
C83 C 0.07647 0.82483 0.18894 0.0
C84 C 0.97216 0.82885 0.19595 0.0
C85 C 0.93298 0.84378 0.19554 0.0
C86 C 0.99738 0.85498 0.18817 0.0
C87 C 0.09995 0.85093 0.18087 0.0
C88 C 0.13908 0.83603 0.18127 0.0
C89 C 0.10076 0.7687 0.15486 0.0
C90 C 0.86818 0.76312 0.18263 0.0
C91 C 0.15108 0.71763 0.17804 0.0
C92 C 0.12579 0.70135 0.17939 0.0
C93 C 0.11484 0.69275 0.16579 0.0
C94 C 0.11139 0.67703 0.16645 0.0
C95 C 0.11887 0.66956 0.18074 0.0
C96 C 0.12484 0.67812 0.19443 0.0
C97 C 0.12862 0.69387 0.19377 0.0
C98 C 0.06767 0.758 0.21309 0.0
C99 C 0.36574 0.76389 0.18445 0.0
O100 O 0.07671 0.79996 0.19996 0.0
O101 O 0.1763 0.80324 0.17893 0.0
O102 O 1.04258 0.7802 0.1598 0.0
O103 O 0.16303 0.76391 0.16571 0.0
O104 O 0.92157 0.77511 0.188 0.0
O105 O 0.92685 0.75133 0.17756 0.0
O106 O 0.08859 0.72624 0.16907 0.0
O107 O 0.19381 0.72471 0.19001 0.0
O108 O 1.02274 0.74602 0.20716 0.0
O109 O 0.14201 0.76311 0.20385 0.0
O110 O 0.31125 0.75111 0.18224 0.0
O111 O 0.30933 0.77659 0.18684 0.0
H112 H 0.92218 0.82055 0.20208 0.0
H113 H 0.85375 0.84668 0.20128 0.0
H114 H 0.15109 0.85939 0.17516 0.0
H115 H 0.22032 0.83335 0.17594 0.0
H116 H 0.11402 0.69818 0.15455 0.0
H117 H 0.10704 0.67066 0.15576 0.0
H118 H 0.13081 0.67258 0.20558 0.0
H119 H 0.13803 0.70015 0.20446 0.0
Nd120 Nd 0.2355 0.49488 0.18469 0.0
Nd121 Nd 0.23066 0.52801 0.18636 0.0
C122 C 0.21443 0.46519 0.18805 0.0
C123 C 0.27236 0.45024 0.18869 0.0
C124 C 0.25793 0.44104 0.2018 0.0
C125 C 0.29788 0.42614 0.20187 0.0
C126 C 0.35277 0.42006 0.18879 0.0
C127 C 0.37012 0.42933 0.17582 0.0
C128 C 0.33032 0.44424 0.17575 0.0
C129 C 0.23028 0.50828 0.15556 0.0
C130 C 0.48278 0.51052 0.18444 0.0
C131 C 0.25809 0.55754 0.18339 0.0
C132 C 0.21303 0.57307 0.18146 0.0
C133 C 0.25601 0.58208 0.16945 0.0
C134 C 0.23191 0.59752 0.16896 0.0
C135 C 0.16454 0.60427 0.18052 0.0
C136 C 0.11749 0.5952 0.19218 0.0
C137 C 0.1415 0.57974 0.19267 0.0
C138 C 0.23155 0.51483 0.21541 0.0
C139 C 0.98424 0.51234 0.18648 0.0
O140 O 0.22371 0.47444 0.19978 0.0
O141 O 0.21082 0.47216 0.17475 0.0
O142 O 0.29511 0.497 0.15932 0.0
O143 O 0.17234 0.51233 0.16725 0.0
O144 O 0.42947 0.49775 0.18705 0.0
O145 O 0.42437 0.52311 0.18212 0.0
O146 O 0.26126 0.54831 0.17158 0.0
O147 O 0.24118 0.55074 0.19659 0.0
O148 O 0.16671 0.52601 0.2114 0.0
O149 O 0.29195 0.51064 0.20396 0.0
O150 O 1.03772 0.52487 0.18282 0.0
O151 O 1.04286 0.49997 0.18983 0.0
H152 H 0.21244 0.44523 0.21186 0.0
H153 H 0.28348 0.41921 0.212 0.0
H154 H 0.41233 0.4249 0.1656 0.0
H155 H 0.34226 0.45092 0.16539 0.0
H156 H 0.31259 0.57731 0.16079 0.0
H157 H 0.26933 0.60431 0.15989 0.0
H158 H 0.06555 0.60019 0.20123 0.0
H159 H 0.10777 0.57317 0.20216 0.0
Nd160 Nd 1.00037 0.49883 0.93509 0.0
Nd161 Nd 0.99749 0.53209 0.93554 0.0
C162 C 1.02564 0.46956 0.92955 0.0
C163 C 0.98969 0.45371 0.93187 0.0
C164 C 0.89552 0.44767 0.92391 0.0
C165 C 0.87379 0.43217 0.9243 0.0
C166 C 0.94606 0.42243 0.93255 0.0
C167 C 1.03799 0.42847 0.94085 0.0
C168 C 0.05966 0.44393 0.94049 0.0
C169 C 0.98192 0.51047 0.96505 0.0
C170 C 0.75148 0.51545 0.93707 0.0
C171 C 1.02576 0.5614 0.93839 0.0
C172 C 1.04314 0.57792 0.93939 0.0
C173 C 1.02192 0.58583 0.95323 0.0
C174 C 1.04404 0.60131 0.95422 0.0
C175 C 0.08693 0.60916 0.94136 0.0
C176 C 0.10632 0.60131 0.92747 0.0
C177 C 0.085 0.58587 0.92651 0.0
C178 C 0.94448 0.52023 0.90649 0.0
C179 C 0.24898 0.51559 0.93534 0.0
O180 O 0.96278 0.47849 0.92104 0.0
O181 O 0.07668 0.47658 0.94089 0.0
O182 O 0.92683 0.49884 0.95998 0.0
O183 O 1.045 0.51546 0.95435 0.0
O184 O 0.80685 0.50353 0.9317 0.0
O185 O 0.80874 0.52731 0.9421 0.0
O186 O 0.96949 0.55356 0.94873 0.0
O187 O 0.06553 0.55358 0.92671 0.0
O188 O 0.89504 0.53167 0.91288 0.0
O189 O 1.02323 0.51548 0.91535 0.0
O190 O 0.19229 0.52818 0.93786 0.0
O191 O 0.19459 0.50293 0.9325 0.0
H192 H 0.84076 0.45482 0.91698 0.0
H193 H 0.8026 0.42772 0.91778 0.0
H194 H 0.09493 0.42114 0.94725 0.0
H195 H 0.1339 0.44816 0.94652 0.0
H196 H 0.99009 0.58003 0.96337 0.0
H197 H 1.02881 0.60713 0.96507 0.0
H198 H 0.13944 0.60713 0.91741 0.0
H199 H 0.10214 0.58014 0.91566 0.0
Nd200 Nd 0.84675 0.27948 0.9362 0.0
Nd201 Nd 0.85635 0.24667 0.93599 0.0
C202 C 0.8669 0.309 0.93366 0.0
C203 C 0.87981 0.32559 0.93272 0.0
C204 C 0.84095 0.33367 0.91972 0.0
C205 C 0.84979 0.34939 0.91923 0.0
C206 C 0.89743 0.35731 0.93174 0.0
C207 C 0.93678 0.34928 0.94467 0.0
C208 C 0.92814 0.33359 0.94516 0.0
C209 C 0.80269 0.2674 0.96525 0.0
C210 C 0.09974 0.26298 0.93691 0.0
C211 C 0.84447 0.21685 0.93843 0.0
C212 C 0.78029 0.20258 0.9405 0.0
C213 C 0.77605 0.19542 0.95504 0.0
C214 C 0.73468 0.18069 0.95638 0.0
C215 C 0.69784 0.17278 0.94319 0.0
C216 C 0.69777 0.18011 0.92879 0.0
C217 C 0.73857 0.19482 0.92745 0.0
C218 C 0.9038 0.25894 0.90712 0.0
C219 C 0.60195 0.26325 0.93514 0.0
O220 O 0.8159 0.30089 0.92308 0.0
O221 O 0.90878 0.30129 0.94522 0.0
O222 O 0.74786 0.27854 0.95913 0.0
O223 O 0.88042 0.26287 0.95609 0.0
O224 O 1.04085 0.27487 0.93229 0.0
O225 O 0.04611 0.25075 0.94145 0.0
O226 O 0.86464 0.22566 0.95026 0.0
O227 O 0.83222 0.22422 0.92547 0.0
O228 O 0.95795 0.24783 0.91339 0.0
O229 O 0.82424 0.26334 0.91606 0.0
O230 O 0.66036 0.25087 0.93839 0.0
O231 O 0.65521 0.27592 0.93199 0.0
H232 H 0.8031 0.32785 0.90997 0.0
H233 H 0.81904 0.35539 0.90914 0.0
H234 H 0.97388 0.35517 0.95443 0.0
H235 H 0.95848 0.32775 0.95538 0.0
H236 H 0.809 0.20096 0.96528 0.0
H237 H 0.73555 0.17525 0.9676 0.0
H238 H 0.66995 0.17422 0.91847 0.0
H239 H 0.74204 0.19984 0.91603 0.0
Nd240 Nd 0.97887 0.27935 0.8117 0.0
Nd241 Nd 0.98369 0.2457 0.811 0.0
C242 C 0.94227 0.30836 0.81703 0.0
C243 C 0.9649 0.32473 0.81569 0.0
C244 C 0.97907 0.33327 0.82928 0.0
C245 C 0.9808 0.34901 0.8287 0.0
C246 C 0.96825 0.35656 0.81452 0.0
C247 C 0.95841 0.34807 0.80083 0.0
C248 C 0.95642 0.3323 0.8014 0.0
C249 C 1.03285 0.26782 0.78253 0.0
C250 C 0.73088 0.26195 0.81062 0.0
C251 C 0.97392 0.2163 0.80518 0.0
C252 C 1.02628 0.20114 0.80752 0.0
C253 C 0.11057 0.19565 0.7973 0.0
C254 C 0.1482 0.18067 0.79817 0.0
C255 C 0.10213 0.17081 0.8092 0.0
C256 C 1.02019 0.17632 0.81967 0.0
C257 C 0.98242 0.19129 0.8188 0.0
C258 C 0.9942 0.25767 0.84091 0.0
C259 C 0.22823 0.26314 0.81324 0.0
O260 O 1.00495 0.29993 0.82615 0.0
O261 O 0.90113 0.30111 0.80507 0.0
O262 O 0.07544 0.27991 0.78847 0.0
O263 O 0.95767 0.26264 0.79163 0.0
O264 O 0.78496 0.27478 0.81272 0.0
O265 O 0.78797 0.24924 0.80857 0.0
O266 O 1.02576 0.22594 0.7962 0.0
O267 O 0.92203 0.22276 0.81685 0.0
O268 O 0.05391 0.24627 0.8361 0.0
O269 O 0.9319 0.26221 0.82994 0.0
O270 O 0.1756 0.25106 0.808 0.0
O271 O 0.16859 0.27489 0.81823 0.0
H272 H 0.98412 0.32778 0.84046 0.0
H273 H 0.98832 0.35532 0.8394 0.0
H274 H 0.94863 0.35367 0.78976 0.0
H275 H 0.94427 0.32609 0.79073 0.0
H276 H 0.14519 0.20279 0.78831 0.0
H277 H 0.2113 0.17666 0.78996 0.0
H278 H 0.9833 0.16892 0.82826 0.0
H279 H 0.91621 0.19502 0.82669 0.0
Nd280 Nd 0.86378 0.49972 0.81017 0.0
Nd281 Nd 0.86191 0.53292 0.81007 0.0
C282 C 0.89013 0.47027 0.81235 0.0
C283 C 0.90642 0.45369 0.81325 0.0
C284 C 0.85809 0.4453 0.82539 0.0
C285 C 0.86994 0.4296 0.8258 0.0
C286 C 0.93027 0.42198 0.81408 0.0
C287 C 0.97951 0.43034 0.80204 0.0
C288 C 0.96778 0.44601 0.80163 0.0
C289 C 0.80856 0.51177 0.78128 0.0
C290 C 0.11375 0.51657 0.81003 0.0
C291 C 0.87109 0.56229 0.8041 0.0
C292 C 0.81807 0.57745 0.80596 0.0
C293 C 0.79222 0.5859 0.79264 0.0
C294 C 0.7536 0.60079 0.79383 0.0
C295 C 0.73997 0.60763 0.8084 0.0
C296 C 0.76331 0.59914 0.82179 0.0
C297 C 0.80232 0.5842 0.8206 0.0
C298 C 0.85257 0.52102 0.84002 0.0
C299 C 0.61666 0.51587 0.81284 0.0
O300 O 0.83331 0.47808 0.82271 0.0
O301 O 0.9337 0.47824 0.80109 0.0
O302 O 0.75878 0.50044 0.7876 0.0
O303 O 0.8867 0.51645 0.79018 0.0
O304 O 0.05834 0.50382 0.81209 0.0
O305 O 0.05752 0.52932 0.80781 0.0
O306 O 0.82118 0.55257 0.79499 0.0
O307 O 0.92016 0.55597 0.81605 0.0
O308 O 0.79242 0.53237 0.83518 0.0
O309 O 0.91402 0.51626 0.829 0.0
O310 O 0.66925 0.5278 0.80723 0.0
O311 O 0.67704 0.50427 0.81792 0.0
H312 H 0.81014 0.45084 0.8345 0.0
H313 H 0.83121 0.42336 0.83519 0.0
H314 H 1.02624 0.4247 0.79288 0.0
H315 H 1.00591 0.4521 0.79209 0.0
H316 H 0.80459 0.58108 0.78121 0.0
H317 H 0.73614 0.60708 0.78335 0.0
H318 H 0.75318 0.60416 0.83316 0.0
H319 H 0.82208 0.57807 0.8311 0.0
Nd320 Nd 0.09076 0.99599 0.56036 0.0
Nd321 Nd 0.08741 0.02914 0.56098 0.0
C322 C 0.0626 0.96669 0.55725 0.0
C323 C 1.04415 0.95019 0.55608 0.0
C324 C 0.08553 0.94185 0.54338 0.0
C325 C 0.06439 0.92635 0.54224 0.0
C326 C 1.0017 0.91892 0.5538 0.0
C327 C 0.9612 0.9272 0.56653 0.0
C328 C 0.98214 0.94264 0.56766 0.0
C329 C 0.1447 1.00762 0.58948 0.0
C330 C 0.83888 1.01246 0.56076 0.0
C331 C 0.06057 0.05835 0.56663 0.0
C332 C 0.09556 0.07424 0.56448 0.0
C333 C 0.1886 0.08034 0.57262 0.0
C334 C 0.20888 0.09586 0.57244 0.0
C335 C 0.13625 0.10556 0.5642 0.0
C336 C 0.04563 0.09948 0.55569 0.0
C337 C 1.0254 0.08399 0.55584 0.0
C338 C 0.10527 0.01766 0.53095 0.0
C339 C 0.33638 1.01271 0.55889 0.0
O340 O 0.12079 0.97456 0.54713 0.0
O341 O 1.02121 0.97448 0.56884 0.0
O342 O 0.19379 0.9962 0.583 0.0
O343 O 0.06571 1.01244 0.5807 0.0
O344 O 0.8956 0.99983 0.55837 0.0
O345 O 0.89342 0.02514 0.56341 0.0
O346 O 0.12337 0.04944 0.57516 0.0
O347 O 1.01077 0.05136 0.55518 0.0
O348 O 0.1609 0.02922 0.53609 0.0
O349 O 1.04212 1.01267 0.54163 0.0
O350 O 0.28083 0.02453 0.56443 0.0
O351 O 0.2792 1.00092 0.55367 0.0
H352 H 0.13334 0.94731 0.53426 0.0
H353 H 0.09614 0.92018 0.5323 0.0
H354 H 0.91251 0.92171 0.57555 0.0
H355 H 0.94887 0.94869 0.5776 0.0
H356 H 0.24342 0.07321 0.57957 0.0
H357 H 0.27906 0.10037 0.57912 0.0
H358 H 0.98847 0.10678 0.5493 0.0
H359 H 0.952 0.0797 0.54967 0.0
Nd360 Nd 0.22702 0.2814 0.56155 0.0
Nd361 Nd 0.23102 0.24834 0.56165 0.0
C362 C 0.24108 0.31088 0.55684 0.0
C363 C 0.30471 0.3252 0.55541 0.0
C364 C 0.29172 0.33383 0.54188 0.0
C365 C 0.33263 0.34858 0.54119 0.0
C366 C 0.3871 0.35502 0.55406 0.0
C367 C 0.40478 0.34623 0.56737 0.0
C368 C 0.36385 0.33145 0.56806 0.0
C369 C 0.18114 0.26951 0.59066 0.0
C370 C 0.47951 0.2641 0.56248 0.0
C371 C 0.20724 0.21893 0.56439 0.0
C372 C 0.19216 0.2024 0.56539 0.0
C373 C 0.23202 0.19424 0.57827 0.0
C374 C 0.22403 0.17852 0.57861 0.0
C375 C 0.1763 0.17068 0.56605 0.0
C376 C 0.13529 0.1788 0.55327 0.0
C377 C 0.14305 0.19449 0.55294 0.0
C378 C 0.27118 0.26034 0.53257 0.0
C379 C 0.98177 0.2657 0.56085 0.0
O380 O 0.24393 0.30105 0.54556 0.0
O381 O 0.23075 0.30472 0.57049 0.0
O382 O 0.13114 0.28108 0.58466 0.0
O383 O 0.2582 0.26468 0.58153 0.0
O384 O 0.4227 0.27681 0.56021 0.0
O385 O 0.42481 0.25137 0.56493 0.0
O386 O 0.25842 0.22699 0.57501 0.0
O387 O 0.16608 0.22666 0.5528 0.0
O388 O 0.32213 0.24871 0.53823 0.0
O389 O 0.19584 0.26503 0.54198 0.0
O390 O 1.0387 0.25375 0.56573 0.0
O391 O 1.03742 0.27759 0.55584 0.0
H392 H 0.24521 0.3294 0.53204 0.0
H393 H 0.31789 0.35518 0.53083 0.0
H394 H 0.44646 0.351 0.57743 0.0
H395 H 0.37453 0.32516 0.57871 0.0
H396 H 0.27069 0.19999 0.588 0.0
H397 H 0.25601 0.17244 0.58858 0.0
H398 H 0.09806 0.17296 0.54349 0.0
H399 H 0.11206 0.20039 0.5428 0.0
Nd400 Nd 0.10312 0.28246 0.68663 0.0
Nd401 Nd 0.10697 0.24861 0.68586 0.0
C402 C 0.1161 0.31183 0.69246 0.0
C403 C 0.06251 0.32696 0.69083 0.0
C404 C 1.03844 0.3354 0.70425 0.0
C405 C 0.99949 0.35028 0.70319 0.0
C406 C 0.98381 0.35712 0.68868 0.0
C407 C 1.00537 0.34864 0.6752 0.0
C408 C 1.04466 0.33372 0.67625 0.0
C409 C 0.09053 0.2704 0.65683 0.0
C410 C 0.8579 0.26517 0.68473 0.0
C411 C 0.14259 0.21963 0.68031 0.0
C412 C 0.12189 0.20319 0.6814 0.0
C413 C 0.10878 0.1948 0.66769 0.0
C414 C 0.10885 0.17906 0.66803 0.0
C415 C 0.12218 0.17133 0.6821 0.0
C416 C 0.13102 0.17965 0.69591 0.0
C417 C 0.13121 0.19543 0.69557 0.0
C418 C 0.05653 0.26023 0.71509 0.0
C419 C 0.35542 0.26603 0.68646 0.0
O420 O 0.06922 0.3022 0.70194 0.0
O421 O 0.16067 0.3054 0.68023 0.0
O422 O 1.03216 0.28196 0.66158 0.0
O423 O 0.15284 0.26581 0.66776 0.0
O424 O 0.91127 0.2772 0.68999 0.0
O425 O 0.91652 0.25333 0.67972 0.0
O426 O 0.07953 0.22811 0.67129 0.0
O427 O 0.18406 0.22677 0.69232 0.0
O428 O 1.01239 0.24816 0.70925 0.0
O429 O 0.13098 0.26531 0.70582 0.0
O430 O 0.30112 0.2532 0.68445 0.0
O431 O 0.29893 0.27877 0.68863 0.0
H432 H 0.05247 0.33057 0.71562 0.0
H433 H 0.9834 0.35657 0.71373 0.0
H434 H 0.99365 0.35366 0.66388 0.0
H435 H 0.06303 0.3276 0.66568 0.0
H436 H 0.10314 0.20044 0.65658 0.0
H437 H 0.10208 0.17288 0.65724 0.0
H438 H 0.14135 0.17392 0.7069 0.0
H439 H 0.14258 0.20152 0.70634 0.0
Nd440 Nd 0.23096 0.99474 0.68532 0.0
Nd441 Nd 0.23147 0.02817 0.6858 0.0
C442 C 0.21551 0.96516 0.68984 0.0
C443 C 0.26843 0.95004 0.6874 0.0
C444 C 0.35313 0.94453 0.69752 0.0
C445 C 0.39139 0.92959 0.69648 0.0
C446 C 0.34564 0.91978 0.68535 0.0
C447 C 0.26326 0.92532 0.67498 0.0
C448 C 0.22481 0.94025 0.67603 0.0
C449 C 0.24223 1.00735 0.65571 0.0
C450 C 0.47798 1.01138 0.68374 0.0
C451 C 0.20703 0.05764 0.68352 0.0
C452 C 0.19121 0.07424 0.6827 0.0
C453 C 0.23913 0.08269 0.67057 0.0
C454 C 0.22668 0.09839 0.6702 0.0
C455 C 0.16613 0.10595 0.68195 0.0
C456 C 0.11749 0.09753 0.69398 0.0
C457 C 0.12985 0.08186 0.69436 0.0
C458 C 0.28385 0.01563 0.71452 0.0
C459 C 0.9807 1.01146 0.68573 0.0
O460 O 0.26322 0.97441 0.69964 0.0
O461 O 0.17022 0.9721 0.67798 0.0
O462 O 0.30085 0.99575 0.66026 0.0
O463 O 0.18136 1.01195 0.66684 0.0
O464 O 0.42347 0.99944 0.68897 0.0
O465 O 0.41978 0.02325 0.6788 0.0
O466 O 0.26312 0.04976 0.67312 0.0
O467 O 0.16364 0.04973 0.69483 0.0
O468 O 0.3338 0.02713 0.70846 0.0
O469 O 0.20617 1.01108 0.70543 0.0
O470 O 1.03636 0.02423 0.68399 0.0
O471 O 1.03615 0.99863 0.68766 0.0
H472 H 0.38772 0.95163 0.70657 0.0
H473 H 0.45484 0.92556 0.70461 0.0
H474 H 0.22659 0.91796 0.66632 0.0
H475 H 0.15832 0.944 0.66822 0.0
H476 H 0.28703 0.07719 0.66143 0.0
H477 H 0.26497 0.10468 0.66081 0.0
H478 H 0.0706 0.10311 0.70317 0.0
H479 H 0.09196 0.07573 0.70389 0.0
Nd480 Nd 0.99945 0.99978 0.43518 0.0
Nd481 Nd 1.00311 0.03314 0.43508 0.0
C482 C 1.02722 0.97046 0.42986 0.0
C483 C 0.98347 0.95478 0.42981 0.0
C484 C 0.96734 0.94725 0.41562 0.0
C485 C 0.9454 0.93178 0.41526 0.0
C486 C 0.93992 0.92346 0.42907 0.0
C487 C 0.952 0.93101 0.44329 0.0
C488 C 0.97371 0.9465 0.44366 0.0
C489 C 0.99322 1.01172 0.46488 0.0
C490 C 0.75216 0.01561 0.43689 0.0
C491 C 0.98246 0.06269 0.43994 0.0
C492 C 1.03694 0.07779 0.43871 0.0
C493 C 0.10445 0.0836 0.45081 0.0
C494 C 0.14302 0.09852 0.4504 0.0
C495 C 0.11436 0.108 0.43795 0.0
C496 C 0.04912 0.10216 0.42572 0.0
C497 C 1.01066 0.08726 0.42611 0.0
C498 C 1.00474 0.02088 0.40534 0.0
C499 C 0.25047 0.01733 0.43359 0.0
O500 O 0.99306 0.97994 0.41925 0.0
O501 O 0.04775 0.97695 0.44313 0.0
O502 O 0.93253 1.00039 0.46026 0.0
O503 O 0.05459 0.01645 0.4538 0.0
O504 O 0.80524 1.00297 0.43326 0.0
O505 O 0.81063 0.02799 0.44005 0.0
O506 O 1.01774 0.05323 0.45051 0.0
O507 O 0.95246 0.05595 0.42716 0.0
O508 O 0.06744 0.0321 0.40977 0.0
O509 O 0.94503 0.01644 0.41667 0.0
O510 O 0.19724 0.03 0.43697 0.0
O511 O 0.19219 1.00493 0.43057 0.0
H512 H 0.97619 0.95323 0.40475 0.0
H513 H 0.93654 0.92617 0.40417 0.0
H514 H 0.94827 0.92481 0.45408 0.0
H515 H 0.98705 0.95185 0.4548 0.0
H516 H 0.12502 0.07674 0.4608 0.0
H517 H 0.19299 0.1028 0.45998 0.0
H518 H 1.0257 0.10926 0.41603 0.0
H519 H 0.95739 0.08329 0.41672 0.0
Nd520 Nd 0.85338 0.78029 0.43428 0.0
Nd521 Nd 0.86299 0.74732 0.43406 0.0
C522 C 0.87284 0.8098 0.43148 0.0
C523 C 0.88534 0.82639 0.43021 0.0
C524 C 0.82889 0.83452 0.4185 0.0
C525 C 0.83658 0.85025 0.41786 0.0
C526 C 0.90099 0.85814 0.4289 0.0
C527 C 0.95842 0.85004 0.44049 0.0
C528 C 0.95056 0.83435 0.44116 0.0
C529 C 0.81072 0.76813 0.46333 0.0
C530 C 0.10603 0.76375 0.43501 0.0
C531 C 0.8548 0.71748 0.43651 0.0
C532 C 0.79446 0.70286 0.43772 0.0
C533 C 0.73952 0.69822 0.45141 0.0
C534 C 0.69737 0.6835 0.45276 0.0
C535 C 0.71069 0.67316 0.44053 0.0
C536 C 0.76291 0.67791 0.42677 0.0
C537 C 0.80417 0.69258 0.42538 0.0
C538 C 0.90872 0.75977 0.40521 0.0
C539 C 0.60837 0.76393 0.43324 0.0
O540 O 0.81902 0.80161 0.42124 0.0
O541 O 0.918 0.80218 0.44289 0.0
O542 O 0.75702 0.77946 0.45739 0.0
O543 O 0.88783 0.76359 0.45408 0.0
O544 O 0.04722 0.77558 0.43019 0.0
O545 O 0.05222 0.7516 0.43976 0.0
O546 O 0.8627 0.72644 0.44849 0.0
O547 O 0.85099 0.72469 0.42337 0.0
O548 O 0.96356 0.74866 0.41136 0.0
O549 O 0.82946 0.76407 0.41424 0.0
O550 O 0.66665 0.75146 0.4362 0.0
O551 O 0.66153 0.77666 0.43032 0.0
H552 H 0.77765 0.82875 0.40993 0.0
H553 H 0.79184 0.85629 0.4088 0.0
H554 H 1.00873 0.8559 0.44909 0.0
H555 H 0.99495 0.82846 0.45035 0.0
H556 H 0.73176 0.7058 0.46119 0.0
H557 H 0.65741 0.68003 0.4635 0.0
H558 H 0.77416 0.67014 0.41721 0.0
H559 H 0.84746 0.69573 0.41478 0.0
Nd560 Nd 0.99411 0.77872 0.309 0.0
Nd561 Nd 0.99238 0.74531 0.30995 0.0
C562 C 0.97484 0.80822 0.31125 0.0
C563 C 0.96262 0.82484 0.31212 0.0
C564 C 1.00446 0.83294 0.32492 0.0
C565 C 0.99608 0.84867 0.32537 0.0
C566 C 0.94594 0.85659 0.31303 0.0
C567 C 0.90362 0.84853 0.30029 0.0
C568 C 0.91178 0.83283 0.29984 0.0
C569 C 0.04565 0.76569 0.28048 0.0
C570 C 0.74247 0.76222 0.3094 0.0
C571 C 0.97339 0.71577 0.30541 0.0
C572 C 1.02701 0.7006 0.30665 0.0
C573 C 0.06355 0.69313 0.29312 0.0
C574 C 0.10121 0.67817 0.29367 0.0
C575 C 0.10289 0.67028 0.30775 0.0
C576 C 0.06878 0.67776 0.32137 0.0
C577 C 1.03084 0.69274 0.32083 0.0
C578 C 1.0039 0.75854 0.33928 0.0
C579 C 0.23993 0.76177 0.31132 0.0
O580 O 1.02759 0.80017 0.32179 0.0
O581 O 0.93106 0.80047 0.29983 0.0
O582 O 0.09622 0.77727 0.2863 0.0
O583 O 0.9682 0.76137 0.28968 0.0
O584 O 0.7984 0.77505 0.31055 0.0
O585 O 0.79752 0.74929 0.30808 0.0
O586 O 1.01305 0.72507 0.29503 0.0
O587 O 0.93894 0.72263 0.31799 0.0
O588 O 0.06259 0.74684 0.33498 0.0
O589 O 0.9427 0.76283 0.32809 0.0
O590 O 0.18529 0.74975 0.30627 0.0
O591 O 0.1819 0.77374 0.31606 0.0
H592 H 1.04427 0.82713 0.33454 0.0
H593 H 1.02913 0.85469 0.33532 0.0
H594 H 0.86455 0.85443 0.29066 0.0
H595 H 0.87908 0.82697 0.28978 0.0
H596 H 0.06008 0.69874 0.28199 0.0
H597 H 0.12698 0.67263 0.28303 0.0
H598 H 0.06941 0.67188 0.33236 0.0
H599 H 1.00207 0.69804 0.33145 0.0
Nd600 Nd 0.84839 0.99829 0.31051 0.0
Nd601 Nd 0.84956 0.03151 0.31021 0.0
C602 C 0.82364 0.96903 0.31587 0.0
C603 C 0.8586 0.95313 0.31337 0.0
C604 C 0.95325 0.94687 0.32111 0.0
C605 C 0.97408 0.93133 0.32059 0.0
C606 C 0.90041 0.92177 0.31242 0.0
C607 C 0.80799 0.92802 0.30433 0.0
C608 C 0.78723 0.94353 0.30482 0.0
C609 C 0.86626 1.00994 0.28059 0.0
C610 C 0.09644 0.01485 0.30854 0.0
C611 C 0.82001 0.06084 0.30761 0.0
C612 C 0.80192 0.07738 0.30674 0.0
C613 C 0.82273 0.08536 0.29296 0.0
C614 C 0.80036 0.10086 0.29212 0.0
C615 C 0.75765 0.10867 0.30507 0.0
C616 C 0.73857 0.10075 0.31889 0.0
C617 C 0.76012 0.08528 0.31971 0.0
C618 C 0.90402 0.01956 0.33918 0.0
C619 C 0.59897 0.0151 0.31033 0.0
O620 O 0.8878 0.97782 0.32429 0.0
O621 O 0.77136 0.97618 0.3047 0.0
O622 O 0.92192 0.9983 0.28563 0.0
O623 O 0.80289 0.01495 0.2913 0.0
O624 O 1.04178 1.00294 0.31389 0.0
O625 O 1.0384 0.02672 0.30356 0.0
O626 O 0.87663 0.05304 0.2972 0.0
O627 O 0.78043 0.05297 0.31921 0.0
O628 O 0.95274 0.03099 0.33281 0.0
O629 O 0.82511 0.01487 0.33036 0.0
O630 O 0.655 0.02767 0.30778 0.0
O631 O 0.65408 1.00245 0.3132 0.0
H632 H 1.00907 0.95388 0.32798 0.0
H633 H 0.04566 0.92671 0.32695 0.0
H634 H 0.74999 0.92083 0.29801 0.0
H635 H 0.7126 0.94793 0.29896 0.0
H636 H 0.85451 0.07959 0.28276 0.0
H637 H 0.81534 0.10674 0.28133 0.0
H638 H 0.7056 0.10653 0.32902 0.0
H639 H 0.74332 0.0795 0.33051 0.0
Nd640 Nd 0.59026 0.49574 0.56014 0.0
Nd641 Nd 0.58771 0.52889 0.56071 0.0
C642 C 0.56239 0.46644 0.55732 0.0
C643 C 0.54497 0.44993 0.55645 0.0
C644 C 0.5666 0.44188 0.5427 0.0
C645 C 0.54492 0.42639 0.54189 0.0
C646 C 0.50204 0.41867 0.55485 0.0
C647 C 0.48225 0.42665 0.56864 0.0
C648 C 0.50319 0.4421 0.56942 0.0
C649 C 0.64372 0.50732 0.58924 0.0
C650 C 0.33872 0.51228 0.56049 0.0
C651 C 0.563 0.55816 0.56629 0.0
C652 C 0.59895 0.57401 0.56395 0.0
C653 C 0.69252 0.5801 0.57199 0.0
C654 C 0.71414 0.5956 0.57157 0.0
C655 C 0.64233 0.6053 0.56318 0.0
C656 C 0.55101 0.59921 0.5548 0.0
C657 C 0.52947 0.58375 0.5552 0.0
C658 C 0.6051 0.51726 0.53073 0.0
C659 C 0.83621 0.51235 0.55864 0.0
O660 O 0.61806 0.47426 0.5469 0.0
O661 O 0.52265 0.47428 0.56898 0.0
O662 O 0.69305 0.49594 0.58274 0.0
O663 O 0.56512 0.51222 0.58045 0.0
O664 O 0.39523 0.49963 0.55813 0.0
O665 O 0.39347 0.52495 0.56313 0.0
O666 O 0.62586 0.54922 0.57478 0.0
O667 O 0.5118 0.55115 0.55495 0.0
O668 O 0.66117 0.5288 0.5358 0.0
O669 O 0.54178 0.51238 0.54143 0.0
O670 O 0.78088 0.52417 0.56422 0.0
O671 O 0.77879 0.50058 0.55342 0.0
H672 H 0.59849 0.44759 0.53251 0.0
H673 H 0.56042 0.42044 0.53113 0.0
H674 H 0.44909 0.42093 0.57875 0.0
H675 H 0.48587 0.44793 0.5802 0.0
H676 H 0.74686 0.57299 0.57903 0.0
H677 H 0.78484 0.60009 0.57815 0.0
H678 H 0.49442 0.60651 0.5483 0.0
H679 H 0.45566 0.57948 0.5491 0.0
Nd680 Nd 0.73156 0.78118 0.55989 0.0
Nd681 Nd 0.74075 0.74826 0.55946 0.0
C682 C 0.74313 0.811 0.55742 0.0
C683 C 0.80695 0.82532 0.55553 0.0
C684 C 0.81128 0.83259 0.54105 0.0
C685 C 0.85209 0.84736 0.53984 0.0
C686 C 0.88834 0.8552 0.5531 0.0
C687 C 0.88835 0.84777 0.56745 0.0
C688 C 0.84807 0.83302 0.56866 0.0
C689 C 0.68529 0.76868 0.5887 0.0
C690 C 0.98579 0.7645 0.56062 0.0
C691 C 0.72055 0.71875 0.5619 0.0
C692 C 0.70776 0.70215 0.56282 0.0
C693 C 0.74598 0.69409 0.57586 0.0
C694 C 0.73719 0.67836 0.57635 0.0
C695 C 0.69024 0.67043 0.56381 0.0
C696 C 0.65153 0.67845 0.55083 0.0
C697 C 0.66011 0.69413 0.55034 0.0
C698 C 0.78437 0.76065 0.53056 0.0
C699 C 0.48801 0.76486 0.55893 0.0
O700 O 0.7254 0.80215 0.54555 0.0
O701 O 0.75327 0.80366 0.57044 0.0
O702 O 0.63113 0.7799 0.58261 0.0
O703 O 0.76418 0.76433 0.57965 0.0
O704 O 0.92756 0.77693 0.55752 0.0
O705 O 0.93245 0.7518 0.56364 0.0
O706 O 0.7706 0.72684 0.57257 0.0
O707 O 0.67972 0.72646 0.55027 0.0
O708 O 0.83844 0.74933 0.53646 0.0
O709 O 0.70667 0.76506 0.53978 0.0
O710 O 0.54678 0.75292 0.56346 0.0
O711 O 0.54169 0.77711 0.55445 0.0
H712 H 0.77875 0.82711 0.53075 0.0
H713 H 0.85128 0.85288 0.52865 0.0
H714 H 0.91572 0.85359 0.57782 0.0
H715 H 0.84453 0.8279 0.58004 0.0
H716 H 0.78328 0.69991 0.58564 0.0
H717 H 0.76743 0.67237 0.58649 0.0
H718 H 0.61494 0.67254 0.54105 0.0
H719 H 0.63025 0.69997 0.54009 0.0
Nd720 Nd 0.60445 0.7819 0.68425 0.0
Nd721 Nd 0.60487 0.74844 0.68468 0.0
C722 C 0.61926 0.81139 0.68937 0.0
C723 C 0.56525 0.82651 0.68782 0.0
C724 C 0.54082 0.83485 0.70129 0.0
C725 C 0.5015 0.84972 0.70032 0.0
C726 C 0.48581 0.85664 0.68585 0.0
C727 C 0.50779 0.84826 0.67233 0.0
C728 C 0.54748 0.83335 0.67329 0.0
C729 C 0.59209 0.76918 0.65471 0.0
C730 C 0.35791 0.76511 0.68267 0.0
C731 C 0.62965 0.71901 0.68236 0.0
C732 C 0.64556 0.70245 0.68151 0.0
C733 C 0.59852 0.69402 0.66929 0.0
C734 C 0.61072 0.67833 0.66891 0.0
C735 C 0.67011 0.67078 0.68074 0.0
C736 C 0.71795 0.67917 0.69287 0.0
C737 C 0.70588 0.69483 0.69325 0.0
C738 C 0.55498 0.76113 0.71342 0.0
C739 C 0.85526 0.76525 0.68433 0.0
O740 O 0.57538 0.80194 0.69928 0.0
O741 O 0.65992 0.80473 0.67701 0.0
O742 O 0.53391 0.78083 0.65924 0.0
O743 O 0.65364 0.76467 0.66577 0.0
O744 O 0.41207 0.77708 0.68794 0.0
O745 O 0.41637 0.75324 0.67776 0.0
O746 O 0.57363 0.72686 0.67196 0.0
O747 O 0.67283 0.72692 0.6937 0.0
O748 O 0.50455 0.74956 0.70756 0.0
O749 O 0.63169 0.76555 0.70417 0.0
O750 O 0.79981 0.75243 0.68273 0.0
O751 O 0.7997 0.77809 0.68618 0.0
H752 H 0.55485 0.82998 0.71264 0.0
H753 H 0.48514 0.85594 0.71091 0.0
H754 H 0.49612 0.85335 0.66104 0.0
H755 H 0.56622 0.82732 0.66267 0.0
H756 H 0.55144 0.69954 0.6601 0.0
H757 H 0.57307 0.67205 0.65946 0.0
H758 H 0.7639 0.67357 0.70211 0.0
H759 H 0.74302 0.70095 0.70284 0.0
Nd760 Nd 0.72464 0.49505 0.68603 0.0
Nd761 Nd 0.72016 0.52851 0.68412 0.0
C762 C 0.71675 0.4658 0.69261 0.0
C763 C 0.76882 0.45062 0.69009 0.0
C764 C 0.85223 0.44499 0.70033 0.0
C765 C 0.89018 0.43003 0.69925 0.0
C766 C 0.84526 0.42032 0.68797 0.0
C767 C 0.76413 0.42597 0.67749 0.0
C768 C 0.72606 0.44092 0.67857 0.0
C769 C 0.73486 0.50585 0.65566 0.0
C770 C 0.96886 0.51219 0.68297 0.0
C771 C 0.68314 0.55737 0.67821 0.0
C772 C 0.7065 0.5737 0.67954 0.0
C773 C 0.72093 0.58216 0.66592 0.0
C774 C 0.72294 0.59789 0.66645 0.0
C775 C 0.71043 0.60549 0.68062 0.0
C776 C 0.70066 0.59708 0.69435 0.0
C777 C 0.6984 0.58132 0.69382 0.0
C778 C 0.77587 0.51823 0.71366 0.0
C779 C 0.47187 0.51119 0.68579 0.0
O780 O 0.77192 0.47564 0.70102 0.0
O781 O 0.66008 0.47203 0.68124 0.0
O782 O 0.79412 0.49458 0.66085 0.0
O783 O 0.6729 0.51086 0.66645 0.0
O784 O 0.91616 0.5005 0.68907 0.0
O785 O 0.90897 0.52362 0.67734 0.0
O786 O 0.74764 0.54884 0.66942 0.0
O787 O 0.64008 0.55029 0.69013 0.0
O788 O 0.81956 0.52989 0.70706 0.0
O789 O 0.69974 0.51267 0.70491 0.0
O790 O 0.52628 0.52384 0.68289 0.0
O791 O 0.52901 0.49864 0.68869 0.0
H792 H 0.88596 0.45201 0.7095 0.0
H793 H 0.95263 0.42592 0.70748 0.0
H794 H 0.72812 0.41869 0.66871 0.0
H795 H 0.6606 0.44475 0.67063 0.0
H796 H 0.72579 0.57661 0.65475 0.0
H797 H 0.73042 0.60415 0.65574 0.0
H798 H 0.69094 0.60274 0.7054 0.0
H799 H 0.68618 0.57516 0.7045 0.0
Nd800 Nd 0.50908 0.49905 0.43503 0.0
Nd801 Nd 0.50644 0.5325 0.4352 0.0
C802 C 0.53502 0.46982 0.42939 0.0
C803 C 0.49478 0.45406 0.43056 0.0
C804 C 0.4821 0.44563 0.41687 0.0
C805 C 0.46035 0.43018 0.41748 0.0
C806 C 0.45073 0.42284 0.4318 0.0
C807 C 0.45968 0.43127 0.44553 0.0
C808 C 0.48185 0.44676 0.44493 0.0
C809 C 0.4921 0.51108 0.46478 0.0
C810 C 0.26057 0.5157 0.43704 0.0
C811 C 0.534 0.56184 0.43808 0.0
C812 C 0.55105 0.57838 0.43915 0.0
C813 C 0.52607 0.58632 0.45287 0.0
C814 C 0.54689 0.60183 0.45391 0.0
C815 C 0.5924 0.60969 0.44123 0.0
C816 C 0.61596 0.60183 0.42747 0.0
C817 C 0.59579 0.58636 0.42645 0.0
C818 C 0.45167 0.52032 0.4064 0.0
C819 C 0.75813 0.51581 0.43522 0.0
O820 O 0.48284 0.479 0.41993 0.0
O821 O 0.57431 0.47652 0.44176 0.0
O822 O 0.43604 0.49944 0.45991 0.0
O823 O 0.55482 0.51592 0.45397 0.0
O824 O 0.31562 0.50373 0.43173 0.0
O825 O 0.31796 0.52761 0.44196 0.0
O826 O 0.47928 0.55392 0.44851 0.0
O827 O 0.57261 0.55409 0.42629 0.0
O828 O 0.40303 0.53191 0.41262 0.0
O829 O 0.53095 0.51567 0.41523 0.0
O830 O 0.7017 0.52858 0.4369 0.0
O831 O 0.70363 0.50301 0.43324 0.0
H832 H 0.49306 0.4509 0.40565 0.0
H833 H 0.45405 0.42387 0.40677 0.0
H834 H 0.45281 0.42579 0.45669 0.0
H835 H 0.49209 0.4529 0.45568 0.0
H836 H 0.49191 0.58052 0.46287 0.0
H837 H 0.52832 0.60769 0.46464 0.0
H838 H 0.65124 0.60767 0.41757 0.0
H839 H 0.61595 0.58062 0.41571 0.0
Nd840 Nd 0.34902 0.27993 0.43674 0.0
Nd841 Nd 0.35158 0.24641 0.43628 0.0
C842 C 0.36947 0.30939 0.43438 0.0
C843 C 0.38273 0.32598 0.43353 0.0
C844 C 0.3406 0.33421 0.42082 0.0
C845 C 0.35071 0.34992 0.42038 0.0
C846 C 0.40284 0.35769 0.43266 0.0
C847 C 0.44525 0.3495 0.44532 0.0
C848 C 0.43537 0.33383 0.44575 0.0
C849 C 0.29803 0.26736 0.4654 0.0
C850 C 0.60094 0.26322 0.43651 0.0
C851 C 0.3705 0.21691 0.44121 0.0
C852 C 0.31852 0.20169 0.43981 0.0
C853 C 0.28411 0.19405 0.4533 0.0
C854 C 0.24779 0.17907 0.45261 0.0
C855 C 0.24532 0.17132 0.43842 0.0
C856 C 0.27737 0.17898 0.42486 0.0
C857 C 0.31397 0.19399 0.42554 0.0
C858 C 0.33912 0.25923 0.40682 0.0
C859 C 0.10356 0.2631 0.43465 0.0
O860 O 0.31606 0.3014 0.42387 0.0
O861 O 0.41303 0.30159 0.4458 0.0
O862 O 0.24767 0.27895 0.45949 0.0
O863 O 0.37547 0.26281 0.45625 0.0
O864 O 0.54452 0.27604 0.43502 0.0
O865 O 0.54641 0.25035 0.43821 0.0
O866 O 0.32723 0.22633 0.45128 0.0
O867 O 0.40829 0.22362 0.42876 0.0
O868 O 0.28078 0.24763 0.41126 0.0
O869 O 0.40051 0.26363 0.41792 0.0
O870 O 0.1586 0.25113 0.43986 0.0
O871 O 0.16111 0.27498 0.42977 0.0
H872 H 0.29943 0.32851 0.41125 0.0
H873 H 0.31768 0.35603 0.41049 0.0
H874 H 0.48587 0.35527 0.45489 0.0
H875 H 0.4684 0.32788 0.45574 0.0
H876 H 0.28816 0.19955 0.4645 0.0
H877 H 0.22361 0.17341 0.46322 0.0
H878 H 0.27609 0.17324 0.41378 0.0
H879 H 0.34101 0.19943 0.41494 0.0
Nd880 Nd 0.48436 0.27984 0.31158 0.0
Nd881 Nd 0.48359 0.24668 0.31202 0.0
C882 C 0.46213 0.30927 0.31474 0.0
C883 C 0.44873 0.32582 0.31612 0.0
C884 C 0.47803 0.33337 0.32989 0.0
C885 C 0.47189 0.3491 0.33074 0.0
C886 C 0.43676 0.35754 0.31783 0.0
C887 C 0.4064 0.35004 0.30414 0.0
C888 C 0.41217 0.33434 0.30329 0.0
C889 C 0.52689 0.26748 0.28262 0.0
C890 C 0.23572 0.2622 0.31072 0.0
C891 C 0.50187 0.21703 0.30876 0.0
C892 C 0.56434 0.20261 0.30647 0.0
C893 C 0.543 0.19393 0.29315 0.0
C894 C 0.58264 0.17908 0.29207 0.0
C895 C 0.64381 0.17255 0.30435 0.0
C896 C 0.66966 0.18137 0.31739 0.0
C897 C 0.63031 0.19625 0.31846 0.0
C898 C 0.4352 0.25929 0.34082 0.0
C899 C 0.73339 0.26411 0.31225 0.0
O900 O 0.50482 0.3008 0.32572 0.0
O901 O 0.42814 0.30195 0.30246 0.0
O902 O 0.57597 0.27927 0.28818 0.0
O903 O 0.45245 0.26276 0.2921 0.0
O904 O 0.29105 0.27458 0.31464 0.0
O905 O 0.29245 0.24994 0.30683 0.0
O906 O 0.4833 0.22608 0.29708 0.0
O907 O 0.51128 0.22406 0.32199 0.0
O908 O 0.38701 0.24753 0.33508 0.0
O909 O 0.51241 0.26385 0.33164 0.0
O910 O 0.67741 0.25155 0.30925 0.0
O911 O 0.67766 0.27667 0.3154 0.0
H912 H 0.50695 0.32715 0.33994 0.0
H913 H 0.49553 0.35471 0.34141 0.0
H914 H 0.37895 0.35636 0.29408 0.0
H915 H 0.38962 0.3289 0.29249 0.0
H916 H 0.49105 0.19841 0.28384 0.0
H917 H 0.56161 0.17247 0.28192 0.0
H918 H 0.71664 0.17656 0.327 0.0
H919 H 0.64746 0.20252 0.32896 0.0
Nd920 Nd 0.3523 0.499 0.31058 0.0
Nd921 Nd 0.35048 0.53225 0.31081 0.0
C922 C 0.31929 0.46982 0.31551 0.0
C923 C 0.3599 0.45398 0.31532 0.0
C924 C 0.42368 0.44789 0.32766 0.0
C925 C 0.44582 0.43238 0.32836 0.0
C926 C 0.40361 0.42272 0.31684 0.0
C927 C 0.34275 0.42881 0.30434 0.0
C928 C 0.32109 0.44426 0.30359 0.0
C929 C 0.35878 0.51086 0.28094 0.0
C930 C 0.6006 0.51437 0.30931 0.0
C931 C 0.37415 0.56178 0.30657 0.0
C932 C 0.31883 0.57689 0.30747 0.0
C933 C 0.25269 0.58261 0.29516 0.0
C934 C 0.21284 0.59752 0.29544 0.0
C935 C 0.23882 0.60705 0.30795 0.0
C936 C 0.3028 0.60129 0.32036 0.0
C937 C 0.34254 0.58642 0.32011 0.0
C938 C 0.34912 0.51987 0.34041 0.0
C939 C 0.10247 0.51692 0.31193 0.0
O940 O 0.35426 0.47907 0.32629 0.0
O941 O 0.30104 0.47646 0.30226 0.0
O942 O 0.41946 0.49948 0.28557 0.0
O943 O 0.29775 0.51576 0.29203 0.0
O944 O 0.54679 0.50181 0.31285 0.0
O945 O 0.54255 0.52676 0.30586 0.0
O946 O 0.3454 0.55248 0.2955 0.0
O947 O 0.39642 0.55488 0.31957 0.0
O948 O 0.28655 0.5312 0.33612 0.0
O949 O 0.40837 0.5154 0.32905 0.0
O950 O 0.15628 0.52944 0.30837 0.0
O951 O 0.16059 0.5046 0.31549 0.0
H952 H 0.45336 0.455 0.337 0.0
H953 H 0.49268 0.42786 0.33813 0.0
H954 H 0.30928 0.42153 0.29537 0.0
H955 H 0.27009 0.44852 0.29408 0.0
H956 H 0.23401 0.5757 0.28515 0.0
H957 H 0.16386 0.60175 0.28572 0.0
H958 H 0.32414 0.60844 0.3301 0.0
H959 H 0.3947 0.5825 0.32966 0.0
Nd960 Nd 0.60091 0.9949 0.0612 0.0
Nd961 Nd 0.60164 0.02801 0.05952 0.0
C962 C 0.62713 0.96527 0.05814 0.0
C963 C 0.57453 0.95024 0.05587 0.0
C964 C 0.6215 0.94033 0.04486 0.0
C965 C 0.58597 0.92531 0.04407 0.0
C966 C 0.5029 0.91985 0.05434 0.0
C967 C 0.45294 0.92985 0.06502 0.0
C968 C 0.48836 0.94489 0.06579 0.0
C969 C 0.60797 1.00839 0.09028 0.0
C970 C 0.35258 1.01031 0.06134 0.0
C971 C 0.5689 0.05745 0.06314 0.0
C972 C 0.61213 0.07311 0.06455 0.0
C973 C 0.61329 0.08036 0.07907 0.0
C974 C 0.63424 0.09584 0.08016 0.0
C975 C 0.65338 0.10441 0.06674 0.0
C976 C 0.65621 0.09714 0.0523 0.0
C977 C 0.6357 0.08167 0.0512 0.0
C978 C 0.6008 0.01479 0.03046 0.0
C979 C 0.85103 1.01257 0.05916 0.0
O980 O 0.63436 0.97458 0.04645 0.0
O981 O 0.60965 0.97212 0.07133 0.0
O982 O 0.54386 0.99707 0.08668 0.0
O983 O 0.66401 1.01245 0.07848 0.0
O984 O 0.40739 0.99779 0.05782 0.0
O985 O 0.4099 0.02272 0.06459 0.0
O986 O 0.57817 0.04812 0.0748 0.0
O987 O 0.57576 0.05074 0.0497 0.0
O988 O 0.66333 0.02618 0.03435 0.0
O989 O 0.54167 1.01053 0.04197 0.0
O990 O 0.79627 0.02531 0.06189 0.0
O991 O 0.79391 0.99994 0.05678 0.0
H992 H 0.68884 0.94407 0.0372 0.0
H993 H 0.62558 0.91782 0.03574 0.0
H994 H 0.38862 0.9259 0.07303 0.0
H995 H 0.45081 0.95218 0.07448 0.0
H996 H 0.59356 0.07419 0.08954 0.0
H997 H 0.63154 0.10124 0.09142 0.0
H998 H 0.67062 0.10353 0.04181 0.0
H999 H 0.63383 0.07656 0.0398 0.0
Nd1000 Nd 0.72609 0.2806 0.06162 0.0
Nd1001 Nd 0.73462 0.24756 0.06155 0.0
C1002 C 0.73668 0.31037 0.05846 0.0
C1003 C 0.79963 0.32482 0.05711 0.0
C1004 C 0.8176 0.33154 0.04253 0.0
C1005 C 0.85738 0.34637 0.04144 0.0
C1006 C 0.87888 0.35483 0.0549 0.0
C1007 C 0.86518 0.34797 0.06942 0.0
C1008 C 0.82595 0.33317 0.07052 0.0
C1009 C 0.68141 0.26835 0.09059 0.0
C1010 C 0.98016 0.26382 0.06249 0.0
C1011 C 0.71514 0.21807 0.06453 0.0
C1012 C 0.70281 0.20149 0.06589 0.0
C1013 C 0.75337 0.19356 0.07823 0.0
C1014 C 0.74612 0.17783 0.07899 0.0
C1015 C 0.68825 0.16975 0.06744 0.0
C1016 C 0.63665 0.17765 0.05522 0.0
C1017 C 0.6439 0.19335 0.05444 0.0
C1018 C 0.77507 0.25973 0.03248 0.0
C1019 C 0.48234 0.26428 0.061 0.0
O1020 O 0.72972 0.30117 0.04666 0.0
O1021 O 0.73708 0.30341 0.07177 0.0
O1022 O 0.62733 0.27958 0.0845 0.0
O1023 O 0.75965 0.2639 0.08148 0.0
O1024 O 0.92229 0.2763 0.05948 0.0
O1025 O 0.92672 0.25114 0.06554 0.0
O1026 O 0.76716 0.22636 0.07486 0.0
O1027 O 0.67173 0.22559 0.05293 0.0
O1028 O 0.82896 0.24834 0.03828 0.0
O1029 O 0.69866 0.26424 0.04184 0.0
O1030 O 0.54089 0.25236 0.06565 0.0
O1031 O 0.53626 0.27643 0.05624 0.0
H1032 H 0.79662 0.32556 0.03198 0.0
H1033 H 0.86732 0.35144 0.03012 0.0
H1034 H 0.88106 0.35428 0.07995 0.0
H1035 H 0.81155 0.32849 0.08195 0.0
H1036 H 0.79962 0.19948 0.0872 0.0
H1037 H 0.78627 0.17195 0.08854 0.0
H1038 H 0.59143 0.17164 0.0462 0.0
H1039 H 0.60421 0.19908 0.04476 0.0
Nd1040 Nd 0.5997 0.2816 0.18613 0.0
Nd1041 Nd 0.59915 0.24814 0.18659 0.0
C1042 C 0.61652 0.31114 0.19092 0.0
C1043 C 0.56632 0.32644 0.18883 0.0
C1044 C 0.4648 0.33084 0.19634 0.0
C1045 C 0.42728 0.34586 0.19583 0.0
C1046 C 0.49054 0.3568 0.18787 0.0
C1047 C 0.5903 0.35236 0.18008 0.0
C1048 C 0.6278 0.33737 0.18058 0.0
C1049 C 0.58772 0.26884 0.15657 0.0
C1050 C 0.3527 0.26493 0.18451 0.0
C1051 C 0.62146 0.21867 0.18432 0.0
C1052 C 0.63579 0.20207 0.18352 0.0
C1053 C 0.59365 0.19378 0.17088 0.0
C1054 C 0.6048 0.17807 0.17049 0.0
C1055 C 0.65802 0.17037 0.18275 0.0
C1056 C 0.70044 0.17862 0.19534 0.0
C1057 C 0.68952 0.1943 0.19573 0.0
C1058 C 0.54831 0.2608 0.21531 0.0
C1059 C 0.84998 0.26481 0.18639 0.0
O1060 O 0.56764 0.30186 0.20058 0.0
O1061 O 0.66099 0.30429 0.17894 0.0
O1062 O 0.52977 0.28053 0.16107 0.0
O1063 O 0.64881 0.26432 0.16768 0.0
O1064 O 0.40707 0.27689 0.18975 0.0
O1065 O 0.41098 0.25305 0.17961 0.0
O1066 O 0.56697 0.2266 0.17383 0.0
O1067 O 0.66507 0.22654 0.19567 0.0
O1068 O 0.49781 0.24928 0.20936 0.0
O1069 O 0.62554 0.26525 0.20614 0.0
O1070 O 0.79431 0.25202 0.18469 0.0
O1071 O 0.79458 0.27765 0.18832 0.0
H1072 H 0.41575 0.32279 0.20294 0.0
H1073 H 0.35012 0.34902 0.20194 0.0
H1074 H 0.64053 0.36058 0.17388 0.0
H1075 H 0.70701 0.33441 0.17486 0.0
H1076 H 0.55167 0.19942 0.16132 0.0
H1077 H 0.57174 0.1719 0.16064 0.0
H1078 H 0.74188 0.17291 0.2049 0.0
H1079 H 0.72259 0.20031 0.20567 0.0
Nd1080 Nd 0.77491 0.99569 0.18452 0.0
Nd1081 Nd 0.77488 0.02897 0.18491 0.0
C1082 C 0.80614 0.96632 0.18654 0.0
C1083 C 0.82601 0.94978 0.18708 0.0
C1084 C 0.7919 0.94116 0.19992 0.0
C1085 C 0.81468 0.92565 0.20046 0.0
C1086 C 0.87184 0.91848 0.18816 0.0
C1087 C 0.90477 0.92703 0.17526 0.0
C1088 C 0.88223 0.94249 0.17473 0.0
C1089 C 0.71893 1.00815 0.15587 0.0
C1090 C 1.02531 1.01236 0.18501 0.0
C1091 C 0.79819 0.05828 0.17967 0.0
C1092 C 0.75648 0.07401 0.18084 0.0
C1093 C 0.74187 0.08237 0.16715 0.0
C1094 C 0.71898 0.09781 0.16775 0.0
C1095 C 0.71015 0.10523 0.18206 0.0
C1096 C 0.72099 0.09687 0.1958 0.0
C1097 C 0.74431 0.08138 0.19521 0.0
C1098 C 0.75778 0.0166 0.2145 0.0
C1099 C 0.52769 1.01229 0.18669 0.0
O1100 O 0.7486 0.97385 0.19707 0.0
O1101 O 0.84542 0.97447 0.17514 0.0
O1102 O 0.67107 0.99652 0.16197 0.0
O1103 O 0.79782 1.01273 0.16476 0.0
O1104 O 0.96973 0.99958 0.18649 0.0
O1105 O 0.96987 0.02517 0.18318 0.0
O1106 O 0.74815 0.04912 0.17 0.0
O1107 O 0.83664 0.05151 0.19206 0.0
O1108 O 0.70047 0.02823 0.20971 0.0
O1109 O 0.82181 1.01196 0.20369 0.0
O1110 O 0.5818 0.02432 0.18152 0.0
O1111 O 0.58612 1.00035 0.19143 0.0
H1112 H 0.74867 0.94642 0.20963 0.0
H1113 H 0.7886 0.91926 0.21053 0.0
H1114 H 0.94898 0.92174 0.16566 0.0
H1115 H 0.90969 0.94875 0.16465 0.0
H1116 H 0.75226 0.07705 0.15593 0.0
H1117 H 0.71125 0.10407 0.15703 0.0
H1118 H 0.71477 0.10241 0.20695 0.0
H1119 H 0.75611 0.07531 0.20596 0.0
Nd1120 Nd 0.49384 0.9989 0.9347 0.0
Nd1121 Nd 0.49106 0.03216 0.93583 0.0
C1122 C 0.51977 0.96976 0.92862 0.0
C1123 C 0.48396 0.9539 0.93083 0.0
C1124 C 0.38968 0.94792 0.92286 0.0
C1125 C 0.36805 0.93243 0.92314 0.0
C1126 C 0.44056 0.92265 0.9313 0.0
C1127 C 0.53255 0.92863 0.93962 0.0
C1128 C 0.55412 0.94408 0.93937 0.0
C1129 C 0.47617 1.00992 0.96487 0.0
C1130 C 0.24522 0.01545 0.93711 0.0
C1131 C 0.5202 0.06141 0.93913 0.0
C1132 C 0.53937 0.0779 0.94037 0.0
C1133 C 0.49819 0.08623 0.95309 0.0
C1134 C 0.51972 0.10171 0.95425 0.0
C1135 C 0.5826 0.10914 0.94271 0.0
C1136 C 0.62295 0.10086 0.92997 0.0
C1137 C 0.60162 0.08543 0.92881 0.0
C1138 C 0.43712 0.02084 0.90663 0.0
C1139 C 0.7426 0.01558 0.93528 0.0
O1140 O 0.45621 0.97877 0.92032 0.0
O1141 O 0.57123 0.97663 0.94002 0.0
O1142 O 0.42066 0.99843 0.95957 0.0
O1143 O 0.53891 0.01515 0.95426 0.0
O1144 O 0.30052 1.00369 0.93139 0.0
O1145 O 0.30257 0.02718 0.94248 0.0
O1146 O 0.46191 0.05352 0.94923 0.0
O1147 O 0.56125 0.05367 0.92749 0.0
O1148 O 0.38827 0.03222 0.9132 0.0
O1149 O 0.51616 0.01592 0.91533 0.0
O1150 O 0.68599 0.02818 0.9379 0.0
O1151 O 0.68796 1.00296 0.93236 0.0
H1152 H 0.33479 0.95511 0.91599 0.0
H1153 H 0.29683 0.92801 0.91661 0.0
H1154 H 0.58964 0.92126 0.94595 0.0
H1155 H 0.62843 0.94828 0.94541 0.0
H1156 H 0.45017 0.08077 0.96219 0.0
H1157 H 0.48809 0.10789 0.9642 0.0
H1158 H 0.67178 0.10634 0.92096 0.0
H1159 H 0.63474 0.0794 0.91886 0.0
Nd1160 Nd 0.34515 0.77983 0.93446 0.0
Nd1161 Nd 0.35402 0.74692 0.93447 0.0
C1162 C 0.3652 0.80931 0.93188 0.0
C1163 C 0.37814 0.82589 0.93093 0.0
C1164 C 0.3383 0.83397 0.918 0.0
C1165 C 0.34654 0.84969 0.91756 0.0
C1166 C 0.39458 0.85759 0.93005 0.0
C1167 C 0.4351 0.84954 0.94291 0.0
C1168 C 0.42703 0.83386 0.94335 0.0
C1169 C 0.30196 0.76778 0.96351 0.0
C1170 C 0.59796 0.76319 0.93507 0.0
C1171 C 0.34202 0.7172 0.93757 0.0
C1172 C 0.27984 0.70286 0.94006 0.0
C1173 C 0.302 0.69426 0.95341 0.0
C1174 C 0.26252 0.67945 0.95459 0.0
C1175 C 0.20076 0.6729 0.94239 0.0
C1176 C 0.17412 0.68166 0.92935 0.0
C1177 C 0.21323 0.69649 0.92818 0.0
C1178 C 0.40157 0.75906 0.90556 0.0
C1179 C 0.10012 0.76364 0.93354 0.0
O1180 O 0.31453 0.8012 0.92127 0.0
O1181 O 0.40687 0.80163 0.94347 0.0
O1182 O 0.24753 0.77901 0.95749 0.0
O1183 O 0.37936 0.76327 0.95432 0.0
O1184 O 0.53926 0.77517 0.9306 0.0
O1185 O 0.54427 0.75095 0.9396 0.0
O1186 O 0.36313 0.72621 0.9492 0.0
O1187 O 0.32809 0.72431 0.92447 0.0
O1188 O 0.45498 0.74786 0.91179 0.0
O1189 O 0.32225 0.76353 0.91449 0.0
O1190 O 0.1582 0.75129 0.93701 0.0
O1191 O 0.15365 0.77622 0.93008 0.0
H1192 H 0.29997 0.82817 0.90828 0.0
H1193 H 0.31491 0.85571 0.90753 0.0
H1194 H 0.47255 0.85543 0.95265 0.0
H1195 H 0.45813 0.828 0.95352 0.0
H1196 H 0.35444 0.69874 0.96264 0.0
H1197 H 0.28415 0.67288 0.96475 0.0
H1198 H 0.1267 0.67683 0.9198 0.0
H1199 H 0.19546 0.70269 0.91765 0.0
Nd1200 Nd 0.48134 0.77929 0.80967 0.0
Nd1201 Nd 0.48412 0.74592 0.8097 0.0
C1202 C 0.45431 0.80869 0.81215 0.0
C1203 C 0.43752 0.82525 0.8132 0.0
C1204 C 0.48564 0.8336 0.8254 0.0
C1205 C 0.47313 0.84928 0.82596 0.0
C1206 C 0.41231 0.85692 0.81432 0.0
C1207 C 0.36326 0.84861 0.80223 0.0
C1208 C 0.37567 0.83295 0.80167 0.0
C1209 C 0.53609 0.76701 0.78086 0.0
C1210 C 0.23203 0.76232 0.80937 0.0
C1211 C 0.47548 0.71643 0.80426 0.0
C1212 C 0.52754 0.70128 0.80689 0.0
C1213 C 0.61111 0.69554 0.79671 0.0
C1214 C 0.64845 0.68056 0.79786 0.0
C1215 C 0.60283 0.67093 0.80915 0.0
C1216 C 0.52162 0.6767 0.81958 0.0
C1217 C 0.48412 0.69167 0.81843 0.0
C1218 C 0.49417 0.75823 0.83947 0.0
C1219 C 0.72908 0.76315 0.81204 0.0
O1220 O 0.5111 0.80084 0.82246 0.0
O1221 O 0.4113 0.8008 0.80078 0.0
O1222 O 0.58377 0.77863 0.78694 0.0
O1223 O 0.45872 0.76232 0.78987 0.0
O1224 O 0.28698 0.77509 0.81149 0.0
O1225 O 0.28858 0.74958 0.80717 0.0
O1226 O 0.52849 0.72598 0.79528 0.0
O1227 O 0.42185 0.72304 0.81569 0.0
O1228 O 0.55432 0.74683 0.83475 0.0
O1229 O 0.43226 0.76276 0.82845 0.0
O1230 O 0.67639 0.75115 0.80659 0.0
O1231 O 0.66893 0.77479 0.8171 0.0
H1232 H 0.53393 0.82803 0.83444 0.0
H1233 H 0.51174 0.85549 0.83539 0.0
H1234 H 0.31617 0.85428 0.79313 0.0
H1235 H 0.33765 0.82689 0.79209 0.0
H1236 H 0.64537 0.70248 0.78754 0.0
H1237 H 0.71098 0.67637 0.78967 0.0
H1238 H 0.48506 0.66949 0.82836 0.0
H1239 H 0.41847 0.69558 0.82631 0.0
Nd1240 Nd 0.3627 0.99928 0.81165 0.0
Nd1241 Nd 0.35802 0.03303 0.81013 0.0
C1242 C 0.39876 0.97044 0.81779 0.0
C1243 C 0.37558 0.95409 0.81645 0.0
C1244 C 0.36327 0.94555 0.83006 0.0
C1245 C 0.36149 0.92982 0.82944 0.0
C1246 C 0.37212 0.92229 0.8152 0.0
C1247 C 0.37988 0.93078 0.80151 0.0
C1248 C 0.38187 0.94654 0.80212 0.0
C1249 C 0.31272 1.00997 0.7821 0.0
C1250 C 0.61065 0.0167 0.81064 0.0
C1251 C 0.37004 0.06227 0.80371 0.0
C1252 C 0.31703 0.07742 0.80544 0.0
C1253 C 0.29453 0.08597 0.79208 0.0
C1254 C 0.25588 0.10086 0.79324 0.0
C1255 C 0.23893 0.10757 0.8078 0.0
C1256 C 0.25886 0.09897 0.82122 0.0
C1257 C 0.29782 0.08404 0.82006 0.0
C1258 C 0.34574 0.02168 0.84024 0.0
C1259 C 0.11295 0.01568 0.81239 0.0
O1260 O 0.33376 0.97903 0.82648 0.0
O1261 O 0.44283 0.97747 0.8059 0.0
O1262 O 0.26977 0.99799 0.78823 0.0
O1263 O 0.38615 0.01551 0.79125 0.0
O1264 O 0.5566 1.00393 0.81306 0.0
O1265 O 0.55397 0.02934 0.80807 0.0
O1266 O 0.32034 0.05249 0.79464 0.0
O1267 O 0.41784 0.05604 0.81581 0.0
O1268 O 0.28713 0.0331 0.83523 0.0
O1269 O 0.40826 0.0169 0.8294 0.0
O1270 O 0.16601 0.02767 0.80702 0.0
O1271 O 0.17182 1.00395 0.81758 0.0
H1272 H 0.35987 0.95104 0.84127 0.0
H1273 H 0.35558 0.92349 0.84013 0.0
H1274 H 0.38813 0.92519 0.7904 0.0
H1275 H 0.39244 0.95277 0.79144 0.0
H1276 H 0.30953 0.08123 0.78067 0.0
H1277 H 0.24102 0.10725 0.78274 0.0
H1278 H 0.2461 0.1039 0.83258 0.0
H1279 H 0.31485 0.07781 0.83059 0.0
C1280 C 1.04362 0.39168 0.05917 0.0
C1281 C 0.96139 0.4023 0.05397 0.0
C1282 C 0.82427 0.38188 0.04973 0.0
C1283 C 0.90893 0.37115 0.05393 0.0
N1284 N 0.10487 0.36559 0.06007 0.0
N1285 N 0.78148 0.40736 0.04152 0.0
C1286 C 1.02041 0.376 0.0579 0.0
C1287 C 0.8541 0.39733 0.0484 0.0
N1288 N 0.14226 0.3966 0.06587 0.0
N1289 N 0.71392 0.37741 0.04769 0.0
H1290 H 0.80016 0.41876 0.0404 0.0
H1291 H 0.70756 0.4042 0.03571 0.0
H1292 H 0.68808 0.36626 0.04863 0.0
H1293 H 0.64611 0.38489 0.04637 0.0
H1294 H 0.1997 0.38953 0.07151 0.0
H1295 H 0.16283 0.40795 0.06684 0.0
H1296 H 0.19042 0.36836 0.0614 0.0
H1297 H 0.09089 0.35405 0.05921 0.0
C1298 C 0.36485 0.89885 0.04837 0.0
C1299 C 0.47177 0.90352 0.05435 0.0
C1300 C 0.52367 0.87708 0.05918 0.0
C1301 C 0.41307 0.87253 0.05448 0.0
N1302 N 0.22148 0.87931 0.04705 0.0
N1303 N 0.64569 0.89737 0.06786 0.0
C1304 C 0.33172 0.88349 0.04974 0.0
C1305 C 0.54926 0.8927 0.06041 0.0
N1306 N 0.29627 0.909 0.04096 0.0
N1307 N 0.60551 0.86646 0.06202 0.0
H1308 H 0.66738 0.90866 0.06905 0.0
H1309 H 0.69916 0.89017 0.07403 0.0
H1310 H 0.5899 0.85495 0.06129 0.0
H1311 H 0.69103 0.86901 0.06381 0.0
H1312 H 0.2233 0.90601 0.03484 0.0
H1313 H 0.31739 0.92032 0.03979 0.0
H1314 H 0.1554 0.88695 0.04524 0.0
H1315 H 0.19373 0.86823 0.04796 0.0
C1316 C 0.99237 0.89692 0.19801 0.0
C1317 C 0.89977 0.90205 0.1888 0.0
C1318 C 0.87291 0.8764 0.17874 0.0
C1319 C 0.96072 0.87111 0.1887 0.0
N1320 N 0.0901 0.87576 0.20986 0.0
N1321 N 0.73955 0.89642 0.17236 0.0
C1322 C 1.01634 0.88122 0.19894 0.0
C1323 C 0.8364 0.89169 0.17973 0.0
N1324 N 0.06027 0.9071 0.20543 0.0
N1325 N 0.8271 0.86692 0.16795 0.0
H1326 H 0.71067 0.90752 0.17278 0.0
H1327 H 0.68275 0.88917 0.16692 0.0
H1328 H 0.85065 0.85564 0.16702 0.0
H1329 H 0.77225 0.87044 0.15918 0.0
H1330 H 0.1367 0.90424 0.21082 0.0
H1331 H 1.04512 0.91865 0.20516 0.0
H1332 H 0.12386 0.88228 0.21876 0.0
H1333 H 0.11015 0.86437 0.21086 0.0
C1334 C 0.4869 0.39908 0.19675 0.0
C1335 C 0.38849 0.40384 0.18849 0.0
C1336 C 0.36189 0.37799 0.17886 0.0
C1337 C 0.4547 0.37302 0.18813 0.0
N1338 N 0.59456 0.37835 0.20783 0.0
N1339 N 0.22158 0.39748 0.17361 0.0
C1340 C 0.51424 0.38345 0.19761 0.0
C1341 C 0.32304 0.39318 0.18006 0.0
N1342 N 0.55629 0.40956 0.20341 0.0
N1343 N 0.31301 0.36831 0.16853 0.0
H1344 H 0.19056 0.40846 0.17416 0.0
H1345 H 0.16365 0.38995 0.16883 0.0
H1346 H 0.33843 0.35711 0.16742 0.0
H1347 H 0.25381 0.37162 0.16021 0.0
H1348 H 0.63582 0.40703 0.20811 0.0
H1349 H 0.53866 0.42106 0.20312 0.0
H1350 H 0.63206 0.38509 0.21626 0.0
H1351 H 0.61711 0.36704 0.20878 0.0
C1352 C 1.02731 0.63651 0.94313 0.0
C1353 C 0.11541 0.62551 0.94244 0.0
C1354 C 0.2583 0.64558 0.94077 0.0
C1355 C 0.17114 0.65655 0.94274 0.0
N1356 N 0.97491 0.66245 0.94841 0.0
N1357 N 0.31585 0.61954 0.9437 0.0
C1358 C 0.05616 0.652 0.94469 0.0
C1359 C 0.2313 0.63005 0.94217 0.0
N1360 N 0.91612 0.6322 0.94171 0.0
N1361 N 0.36626 0.64994 0.93692 0.0
H1362 H 0.29959 0.60808 0.94489 0.0
H1363 H 0.4013 0.62227 0.94526 0.0
H1364 H 0.38967 0.66116 0.93565 0.0
H1365 H 0.43014 0.64243 0.93362 0.0
H1366 H 0.84888 0.63977 0.9404 0.0
H1367 H 0.89163 0.62101 0.94055 0.0
H1368 H 0.89204 0.65968 0.95161 0.0
H1369 H 0.99295 0.67386 0.94961 0.0
C1370 C 0.75266 0.14547 0.94637 0.0
C1371 C 0.66634 0.15652 0.94416 0.0
C1372 C 0.52439 0.1365 0.94073 0.0
C1373 C 0.60933 0.12552 0.944 0.0
N1374 N 0.79891 0.11966 0.95294 0.0
N1375 N 0.46698 0.16273 0.94194 0.0
C1376 C 0.72188 0.13006 0.94774 0.0
C1377 C 0.55115 0.15207 0.94214 0.0
N1378 N 0.86478 0.1496 0.94645 0.0
N1379 N 0.41936 0.13205 0.93569 0.0
H1380 H 0.48355 0.1742 0.94296 0.0
H1381 H 0.38046 0.16019 0.94212 0.0
H1382 H 0.3963 0.12079 0.93463 0.0
H1383 H 0.35805 0.13946 0.93142 0.0
H1384 H 0.93195 0.14192 0.94622 0.0
H1385 H 0.89134 0.16072 0.94538 0.0
H1386 H 0.87838 0.12247 0.95743 0.0
H1387 H 0.77953 0.10828 0.95409 0.0
C1388 C 0.24526 0.15018 0.81496 0.0
C1389 C 0.1362 0.15453 0.80935 0.0
C1390 C 0.08956 0.12793 0.80477 0.0
C1391 C 0.20248 0.12373 0.80889 0.0
N1392 N 0.39359 0.13109 0.81571 0.0
N1393 N 0.9606 0.1478 0.79664 0.0
C1394 C 0.28189 0.13492 0.81343 0.0
C1395 C 0.05985 0.14346 0.80366 0.0
N1396 N 0.31275 0.16055 0.82213 0.0
N1397 N 1.00964 0.11705 0.80232 0.0
H1398 H 0.93577 0.15902 0.79556 0.0
H1399 H 0.90754 0.14042 0.79071 0.0
H1400 H 1.02813 0.1056 0.80305 0.0
H1401 H 0.92313 0.11934 0.80093 0.0
H1402 H 0.38761 0.15779 0.82798 0.0
H1403 H 0.28901 0.17179 0.82341 0.0
H1404 H 0.45808 0.13894 0.81731 0.0
H1405 H 0.42383 0.1201 0.81472 0.0
C1406 C 0.74648 0.65036 0.81502 0.0
C1407 C 0.63672 0.65463 0.80959 0.0
C1408 C 0.58971 0.62794 0.8056 0.0
C1409 C 0.70329 0.6238 0.80946 0.0
N1410 N 0.89518 0.63132 0.81568 0.0
N1411 N 0.4595 0.64766 0.79745 0.0
C1412 C 0.78311 0.63509 0.81364 0.0
C1413 C 0.55971 0.64345 0.8043 0.0
N1414 N 0.81475 0.66085 0.82188 0.0
N1415 N 0.50951 0.61702 0.80358 0.0
H1416 H 0.43441 0.65885 0.79622 0.0
H1417 H 0.40573 0.64017 0.79179 0.0
H1418 H 0.52817 0.60558 0.80449 0.0
H1419 H 0.4228 0.61928 0.80239 0.0
H1420 H 0.89035 0.65818 0.82759 0.0
H1421 H 0.79098 0.6721 0.82305 0.0
H1422 H 0.95973 0.63921 0.817 0.0
H1423 H 0.92547 0.62032 0.81479 0.0
C1424 C 0.8629 0.89793 0.54877 0.0
C1425 C 0.97533 0.90252 0.55252 0.0
C1426 C 1.03432 0.876 0.5543 0.0
C1427 C 0.91929 0.87149 0.55226 0.0
N1428 N 0.72064 0.8783 0.54999 0.0
N1429 N 0.16548 0.89607 0.56082 0.0
C1430 C 0.83262 0.8825 0.55009 0.0
C1431 C 0.06058 0.89158 0.55576 0.0
N1432 N 0.78552 0.90831 0.54361 0.0
N1433 N 0.11884 0.86538 0.55447 0.0
H1434 H 0.18816 0.90734 0.56191 0.0
H1435 H 0.22702 0.88869 0.56507 0.0
H1436 H 0.10264 0.85391 0.55342 0.0
H1437 H 0.20527 0.86797 0.5543 0.0
H1438 H 0.70615 0.90546 0.53911 0.0
H1439 H 0.80452 0.9197 0.5425 0.0
H1440 H 0.65322 0.88595 0.55024 0.0
H1441 H 0.69446 0.86717 0.55101 0.0
C1442 C 0.3302 0.38232 0.55549 0.0
C1443 C 0.4176 0.37132 0.55398 0.0
C1444 C 0.56174 0.39131 0.55372 0.0
C1445 C 0.47361 0.40232 0.55396 0.0
N1446 N 0.27352 0.40834 0.5521 0.0
N1447 N 0.61482 0.36525 0.54923 0.0
C1448 C 0.35763 0.39782 0.55398 0.0
C1449 C 0.53302 0.3758 0.5524 0.0
N1450 N 0.22136 0.378 0.55891 0.0
N1451 N 0.67273 0.39565 0.55534 0.0
H1452 H 0.59697 0.35381 0.54833 0.0
H1453 H 0.69835 0.36792 0.54627 0.0
H1454 H 0.69706 0.40687 0.55629 0.0
H1455 H 0.73982 0.38812 0.55698 0.0
H1456 H 0.15676 0.38553 0.56187 0.0
H1457 H 0.19759 0.36678 0.56013 0.0
H1458 H 0.18825 0.40563 0.55034 0.0
H1459 H 0.29012 0.41978 0.55084 0.0
C1460 C 1.02629 0.38455 0.68343 0.0
C1461 C 0.9469 0.37326 0.68772 0.0
C1462 C 0.80322 0.39287 0.69301 0.0
C1463 C 0.8797 0.40405 0.68759 0.0
N1464 N 0.05702 0.41029 0.67513 0.0
N1465 N 0.75372 0.36643 0.6939 0.0
C1466 C 0.9893 0.39981 0.68207 0.0
C1467 C 0.83351 0.37737 0.69173 0.0
N1468 N 0.13827 0.3808 0.68125 0.0
N1469 N 0.70324 0.39708 0.69994 0.0
H1470 H 0.77263 0.35499 0.69303 0.0
H1471 H 0.66704 0.36865 0.69519 0.0
H1472 H 0.67792 0.40827 0.70113 0.0
H1473 H 0.64993 0.3896 0.70569 0.0
H1474 H 0.20263 0.3887 0.67983 0.0
H1475 H 0.16878 0.36982 0.68212 0.0
H1476 H 0.1324 0.40764 0.66934 0.0
H1477 H 1.03302 0.42154 0.67398 0.0
C1478 C 0.3352 0.87683 0.68908 0.0
C1479 C 0.44857 0.87278 0.685 0.0
C1480 C 0.49024 0.89935 0.67941 0.0
C1481 C 0.38065 0.90354 0.68498 0.0
N1482 N 0.20489 0.89647 0.69746 0.0
N1483 N 0.63972 0.88043 0.67853 0.0
C1484 C 0.30464 0.89231 0.69043 0.0
C1485 C 0.52765 0.88412 0.68073 0.0
N1486 N 0.25567 0.86585 0.69124 0.0
N1487 N 0.55754 0.90987 0.67245 0.0
H1488 H 0.67055 0.86945 0.67939 0.0
H1489 H 0.70384 0.88836 0.67713 0.0
H1490 H 0.53321 0.9211 0.67131 0.0
H1491 H 0.63286 0.90725 0.66663 0.0
H1492 H 0.16898 0.86805 0.69258 0.0
H1493 H 0.27474 0.85443 0.69032 0.0
H1494 H 0.15198 0.88895 0.70322 0.0
H1495 H 0.17949 0.90764 0.69873 0.0
C1496 C 0.26219 0.12837 0.43443 0.0
C1497 C 0.14836 0.12423 0.43799 0.0
C1498 C 0.09578 0.15099 0.44011 0.0
C1499 C 0.21158 0.15508 0.43792 0.0
N1500 N 0.40845 0.14757 0.43539 0.0
N1501 N 0.96044 0.13143 0.44662 0.0
C1502 C 0.29577 0.14373 0.43571 0.0
C1503 C 0.06611 0.13551 0.44148 0.0
N1504 N 0.33755 0.11767 0.42941 0.0
N1505 N 1.01348 0.16191 0.4404 0.0
H1506 H 0.93534 0.12026 0.44774 0.0
H1507 H 0.90094 0.13904 0.45101 0.0
H1508 H 1.03185 0.17333 0.43942 0.0
H1509 H 0.92652 0.15963 0.44026 0.0
H1510 H 0.41781 0.12015 0.42497 0.0
H1511 H 0.31643 0.10633 0.42849 0.0
H1512 H 0.47458 0.13973 0.43556 0.0
H1513 H 0.4365 0.15864 0.43626 0.0
C1514 C 0.75193 0.64648 0.44871 0.0
C1515 C 0.67506 0.6571 0.44216 0.0
C1516 C 0.53732 0.63686 0.43712 0.0
C1517 C 0.61849 0.6261 0.44234 0.0
N1518 N 0.80638 0.62028 0.45191 0.0
N1519 N 0.49816 0.66257 0.42915 0.0
C1520 C 0.7265 0.63083 0.44791 0.0
C1521 C 0.5684 0.65233 0.43616 0.0
N1522 N 0.84908 0.6514 0.45582 0.0
N1523 N 0.42978 0.63226 0.43335 0.0
H1524 H 0.51573 0.67404 0.42886 0.0
H1525 H 0.42574 0.65968 0.42287 0.0
H1526 H 0.40501 0.62102 0.43366 0.0
H1527 H 0.36261 0.63958 0.431 0.0
H1528 H 0.90261 0.64453 0.46234 0.0
H1529 H 0.87257 0.66269 0.45616 0.0
H1530 H 0.89118 0.62277 0.45428 0.0
H1531 H 0.78985 0.60878 0.45193 0.0
C1532 C 0.08868 0.62732 0.31115 0.0
C1533 C 0.2033 0.62324 0.30784 0.0
C1534 C 0.25413 0.65001 0.30612 0.0
C1535 C 0.13776 0.65405 0.3081 0.0
N1536 N 0.94112 0.6465 0.31003 0.0
N1537 N 0.39174 0.63053 0.29971 0.0
C1538 C 0.05411 0.64268 0.30996 0.0
C1539 C 0.28513 0.63456 0.30465 0.0
N1540 N 1.0135 0.61657 0.31588 0.0
N1541 N 0.33561 0.66095 0.30614 0.0
H1542 H 0.41775 0.61937 0.29852 0.0
H1543 H 0.45124 0.63817 0.29555 0.0
H1544 H 0.31624 0.67235 0.3072 0.0
H1545 H 0.42271 0.65868 0.30646 0.0
H1546 H 0.93248 0.61901 0.32015 0.0
H1547 H 1.03532 0.60522 0.31672 0.0
H1548 H 0.87562 0.63866 0.30961 0.0
H1549 H 0.91236 0.65757 0.30921 0.0
C1550 C 0.61333 0.12975 0.30451 0.0
C1551 C 0.72919 0.12507 0.30416 0.0
C1552 C 0.78854 0.15149 0.30206 0.0
C1553 C 0.6736 0.15618 0.30406 0.0
N1554 N 0.47854 0.14979 0.3099 0.0
N1555 N 0.92852 0.13151 0.30487 0.0
C1556 C 0.58643 0.1453 0.30601 0.0
C1557 C 0.81732 0.13596 0.30351 0.0
N1558 N 0.52868 0.11934 0.30296 0.0
N1559 N 0.86978 0.16185 0.29838 0.0
H1560 H 0.95297 0.12028 0.30595 0.0
H1561 H 0.99583 0.13899 0.3062 0.0
H1562 H 0.85181 0.17329 0.29728 0.0
H1563 H 0.95257 0.15899 0.29513 0.0
H1564 H 0.44321 0.12219 0.30146 0.0
H1565 H 0.54484 0.10787 0.3017 0.0
H1566 H 0.41465 0.14236 0.31318 0.0
H1567 H 0.45524 0.16104 0.31122 0.0
C1568 C 0.07296 0.50087 0.11715 0.0
C1569 C 0.13053 0.51085 0.10702 0.0
C1570 C 0.23502 0.52138 0.12948 0.0
C1571 C 0.18821 0.51009 0.13918 0.0
N1572 N 0.0611 0.48914 0.14257 0.0
N1573 N 0.25692 0.53172 0.10348 0.0
C1574 C 0.10558 0.49998 0.13312 0.0
C1575 C 0.20779 0.52158 0.11325 0.0
N1576 N 0.98531 0.49242 0.11145 0.0
N1577 N 0.30609 0.53185 0.13585 0.0
H1578 H 0.23354 0.53254 0.09188 0.0
H1579 H 0.32171 0.53907 0.10653 0.0
H1580 H 0.32985 0.53165 0.1475 0.0
H1581 H 0.33828 0.54109 0.12998 0.0
H1582 H 0.93173 0.48592 0.11829 0.0
H1583 H 0.95945 0.49293 0.09989 0.0
H1584 H 1.01178 0.48023 0.13865 0.0
H1585 H 0.07743 0.48865 0.15443 0.0
C1586 C 0.24835 0.77656 0.1159 0.0
C1587 C 0.18714 0.76685 0.10586 0.0
C1588 C 0.08464 0.75642 0.12845 0.0
C1589 C 0.13574 0.76738 0.13817 0.0
N1590 N 0.2694 0.78763 0.14155 0.0
N1591 N 0.05315 0.74683 0.10234 0.0
C1592 C 0.21961 0.77726 0.13202 0.0
C1593 C 0.10792 0.75645 0.11214 0.0
N1594 N 0.33499 0.785 0.10993 0.0
N1595 N 1.01486 0.74588 0.13493 0.0
H1596 H 0.07715 0.74559 0.09078 0.0
H1597 H 0.98408 0.7402 0.10546 0.0
H1598 H 0.99495 0.74577 0.14671 0.0
H1599 H 0.9816 0.73673 0.12897 0.0
H1600 H 0.39117 0.79131 0.11658 0.0
H1601 H 0.3565 0.78484 0.0982 0.0
H1602 H 0.321 0.79633 0.1377 0.0
H1603 H 0.25568 0.78796 0.15348 0.0
C1604 C 0.95687 0.53099 0.86373 0.0
C1605 C 0.88826 0.51966 0.85676 0.0
C1606 C 0.875 0.50685 0.88214 0.0
C1607 C 0.94131 0.51837 0.88912 0.0
N1608 N 0.06927 0.53912 0.8859 0.0
N1609 N 0.79927 0.49544 0.8586 0.0
C1610 C 0.98949 0.52973 0.87966 0.0
C1611 C 0.85337 0.50711 0.86576 0.0
N1612 N 0.98907 0.54319 0.8552 0.0
N1613 N 0.82927 0.49593 0.89131 0.0
H1614 H 0.77816 0.49561 0.84686 0.0
H1615 H 0.78137 0.48524 0.86393 0.0
H1616 H 0.84751 0.49517 0.90309 0.0
H1617 H 0.76936 0.48815 0.88756 0.0
H1618 H 1.02554 0.55278 0.85997 0.0
H1619 H 0.97441 0.54411 0.84334 0.0
H1620 H 0.11697 0.5467 0.87944 0.0
H1621 H 0.0961 0.53831 0.89741 0.0
C1622 C 0.99867 0.27145 0.86673 0.0
C1623 C 0.95891 0.25919 0.85762 0.0
C1624 C 0.85722 0.24922 0.88049 0.0
C1625 C 0.90496 0.26071 0.88983 0.0
N1626 N 0.9994 0.28447 0.8917 0.0
N1627 N 0.85241 0.23612 0.85578 0.0
C1628 C 0.96892 0.27239 0.88285 0.0
C1629 C 0.88765 0.24809 0.86448 0.0
N1630 N 0.0694 0.28177 0.86007 0.0
N1631 N 0.77949 0.23966 0.88695 0.0
H1632 H 0.86702 0.23524 0.84391 0.0
H1633 H 0.81305 0.22664 0.86033 0.0
H1634 H 0.75414 0.24045 0.89852 0.0
H1635 H 0.73225 0.23186 0.88071 0.0
H1636 H 0.11004 0.29034 0.86608 0.0
H1637 H 0.09223 0.28136 0.84839 0.0
H1638 H 1.0399 0.29398 0.88748 0.0
H1639 H 0.97674 0.2854 0.90337 0.0
C1640 C 0.09669 0.9991 0.61671 0.0
C1641 C 0.15038 1.00969 0.60681 0.0
C1642 C 0.25738 0.01965 0.62927 0.0
C1643 C 0.20517 1.00889 0.63909 0.0
N1644 N 0.05684 0.9906 0.64294 0.0
N1645 N 0.26196 0.03212 0.6042 0.0
C1646 C 0.11898 0.99932 0.63303 0.0
C1647 C 0.22434 0.02064 0.61331 0.0
N1648 N 1.02673 0.98848 0.6104 0.0
N1649 N 0.34125 0.02863 0.63512 0.0
H1650 H 0.24034 0.03293 0.59254 0.0
H1651 H 0.30688 0.04135 0.60833 0.0
H1652 H 0.36343 0.02869 0.64683 0.0
H1653 H 0.39302 0.03544 0.62832 0.0
H1654 H 0.99693 0.97917 0.61643 0.0
H1655 H 1.00207 0.98862 0.59878 0.0
H1656 H 0.98451 0.98467 0.63964 0.0
H1657 H 0.07186 0.99018 0.65484 0.0
C1658 C 0.09766 0.25704 0.61443 0.0
C1659 C 0.17787 0.26715 0.6079 0.0
C1660 C 0.20904 0.27839 0.63372 0.0
C1661 C 0.12505 0.2687 0.64015 0.0
N1662 N 1.0039 0.24714 0.63748 0.0
N1663 N 0.32627 0.28532 0.61154 0.0
C1664 C 0.07402 0.25748 0.63074 0.0
C1665 C 0.23884 0.27714 0.61768 0.0
N1666 N 1.04212 0.24725 0.60489 0.0
N1667 N 0.25793 0.28912 0.64291 0.0
H1668 H 0.34866 0.28477 0.59985 0.0
H1669 H 0.38236 0.29177 0.61806 0.0
H1670 H 0.24327 0.28989 0.6548 0.0
H1671 H 0.30934 0.29772 0.63878 0.0
H1672 H 0.97237 0.24083 0.60819 0.0
H1673 H 0.0657 0.24573 0.59335 0.0
H1674 H 0.9713 0.23779 0.63179 0.0
H1675 H 0.98313 0.24741 0.64924 0.0
C1676 C 0.89447 0.03038 0.3819 0.0
C1677 C 0.96668 0.01928 0.38871 0.0
C1678 C 0.97801 1.00629 0.36336 0.0
C1679 C 0.90849 0.01764 0.35654 0.0
N1680 N 0.77685 0.03808 0.36004 0.0
N1681 N 0.06592 0.99568 0.38658 0.0
C1682 C 0.85948 0.02893 0.36608 0.0
C1683 C 1.00408 1.00685 0.37963 0.0
N1684 N 0.86203 0.04263 0.3904 0.0
N1685 N 1.0221 0.99525 0.35411 0.0
H1686 H 0.09237 0.99629 0.3981 0.0
H1687 H 0.08733 0.98556 0.38129 0.0
H1688 H 1.00053 0.99433 0.34245 0.0
H1689 H 0.08267 0.98741 0.35763 0.0
H1690 H 0.82273 0.05208 0.38568 0.0
H1691 H 0.8797 0.04376 0.40216 0.0
H1692 H 0.72847 0.04556 0.36662 0.0
H1693 H 0.74854 0.03714 0.34861 0.0
C1694 C 0.88167 0.75067 0.36203 0.0
C1695 C 0.9661 0.7604 0.35582 0.0
C1696 C 0.97998 0.77302 0.38125 0.0
C1697 C 0.90994 0.7618 0.38795 0.0
N1698 N 0.79185 0.73997 0.38488 0.0
N1699 N 0.09624 0.78094 0.35936 0.0
C1700 C 0.8591 0.75074 0.37832 0.0
C1701 C 1.01457 0.77172 0.36537 0.0
N1702 N 0.82147 0.74151 0.35231 0.0
N1703 N 1.01213 0.785 0.39011 0.0
H1704 H 0.12016 0.78063 0.34771 0.0
H1705 H 0.14465 0.7883 0.36601 0.0
H1706 H 0.98629 0.78621 0.40163 0.0
H1707 H 0.05543 0.79428 0.38581 0.0
H1708 H 0.75039 0.7354 0.35574 0.0
H1709 H 0.83649 0.74091 0.34042 0.0
H1710 H 0.76471 0.73037 0.37907 0.0
H1711 H 0.76675 0.74032 0.39648 0.0
C1712 C 0.71732 0.52018 0.61357 0.0
C1713 C 0.64745 0.50904 0.6066 0.0
C1714 C 0.62983 0.49628 0.63189 0.0
C1715 C 0.70199 0.50722 0.63884 0.0
N1716 N 0.80168 0.53071 0.63699 0.0
N1717 N 0.51537 0.48872 0.60969 0.0
C1718 C 0.74113 0.51958 0.62987 0.0
C1719 C 0.5971 0.49778 0.61598 0.0
N1720 N 0.76398 0.53106 0.60444 0.0
N1721 N 0.59459 0.48421 0.64041 0.0
H1722 H 0.48867 0.48971 0.5982 0.0
H1723 H 0.46634 0.48123 0.61607 0.0
H1724 H 0.61076 0.48308 0.65222 0.0
H1725 H 0.55442 0.47488 0.63567 0.0
H1726 H 0.826 0.53858 0.60809 0.0
H1727 H 0.74334 0.53215 0.59276 0.0
H1728 H 0.82315 0.54083 0.63177 0.0
H1729 H 0.8264 0.53011 0.64858 0.0
C1730 C 0.73473 0.77754 0.61566 0.0
C1731 C 0.68403 0.76654 0.60595 0.0
C1732 C 0.58086 0.75628 0.62849 0.0
C1733 C 0.62911 0.76754 0.63812 0.0
N1734 N 0.77279 0.78654 0.64175 0.0
N1735 N 0.5826 0.74329 0.60358 0.0
C1736 C 0.71271 0.77743 0.63196 0.0
C1737 C 0.61473 0.75519 0.61256 0.0
N1738 N 0.80146 0.78841 0.60918 0.0
N1739 N 0.50008 0.74691 0.63447 0.0
H1740 H 0.60773 0.74224 0.59202 0.0
H1741 H 0.53993 0.73393 0.60781 0.0
H1742 H 0.47685 0.74705 0.64614 0.0
H1743 H 0.45173 0.73957 0.62778 0.0
H1744 H 0.82841 0.79797 0.61507 0.0
H1745 H 0.8264 0.78817 0.59757 0.0
H1746 H 0.84335 0.79276 0.63834 0.0
H1747 H 0.75826 0.78698 0.65366 0.0
C1748 C 0.47594 0.5279 0.36271 0.0
C1749 C 0.38853 0.51836 0.35692 0.0
C1750 C 0.37017 0.507 0.38288 0.0
C1751 C 0.44558 0.51791 0.38912 0.0
N1752 N 0.57137 0.53882 0.38507 0.0
N1753 N 0.25011 0.49901 0.3614 0.0
C1754 C 0.49974 0.52827 0.379 0.0
C1755 C 0.3359 0.50785 0.36697 0.0
N1756 N 0.53721 0.53651 0.3526 0.0
N1757 N 0.33213 0.4957 0.3922 0.0
H1758 H 0.22627 0.49891 0.34974 0.0
H1759 H 0.19823 0.4924 0.36839 0.0
H1760 H 0.35417 0.49504 0.40385 0.0
H1761 H 0.28634 0.48648 0.38823 0.0
H1762 H 0.61015 0.54241 0.35568 0.0
H1763 H 0.52068 0.53687 0.34074 0.0
H1764 H 0.60198 0.54799 0.37888 0.0
H1765 H 0.59686 0.53877 0.39666 0.0
C1766 C 0.46827 0.25259 0.38421 0.0
C1767 C 0.37487 0.26107 0.39021 0.0
C1768 C 0.3368 0.27099 0.36404 0.0
C1769 C 0.42861 0.2623 0.35796 0.0
N1770 N 0.5965 0.24742 0.36264 0.0
N1771 N 0.23631 0.28073 0.38667 0.0
C1772 C 0.4993 0.25398 0.36823 0.0
C1773 C 0.31415 0.27102 0.38035 0.0
N1774 N 0.52445 0.24269 0.39366 0.0
N1775 N 0.26936 0.27897 0.3541 0.0
H1776 H 0.21813 0.28099 0.3985 0.0
H1777 H 0.1963 0.28929 0.38049 0.0
H1778 H 0.29041 0.28038 0.34247 0.0
H1779 H 0.19182 0.28383 0.3572 0.0
H1780 H 0.58398 0.23487 0.38972 0.0
H1781 H 0.50695 0.24161 0.40545 0.0
H1782 H 0.65868 0.24252 0.36962 0.0
H1783 H 0.61998 0.24801 0.35101 0.0
C1784 C 0.6342 0.02154 0.13261 0.0
C1785 C 0.71209 1.01075 0.13863 0.0
C1786 C 0.74138 1.00091 0.1121 0.0
C1787 C 0.65135 1.01025 0.10656 0.0
N1788 N 0.50933 0.02923 0.11149 0.0
N1789 N 0.84174 0.99018 0.13421 0.0
C1790 C 0.59795 0.02063 0.11678 0.0
C1791 C 0.76732 1.00058 0.12833 0.0
N1792 N 0.5955 0.03276 0.14205 0.0
N1793 N 0.80243 0.99237 0.10183 0.0
H1794 H 0.86835 0.99026 0.14575 0.0
H1795 H 0.8738 0.98112 0.1279 0.0
H1796 H 0.78364 0.99185 0.09003 0.0
H1797 H 0.87693 0.98663 0.10469 0.0
H1798 H 0.54765 0.0419 0.13821 0.0
H1799 H 0.61907 0.03346 0.15365 0.0
H1800 H 0.45714 0.03569 0.11865 0.0
H1801 H 0.48354 0.02924 0.09991 0.0
C1802 C 0.61181 0.25479 0.11446 0.0
C1803 C 0.68043 0.2662 0.10783 0.0
C1804 C 0.70864 0.27711 0.13385 0.0
C1805 C 0.62521 0.2672 0.14 0.0
N1806 N 0.49683 0.24649 0.13632 0.0
N1807 N 0.79678 0.28817 0.11106 0.0
C1808 C 0.57753 0.25589 0.13037 0.0
C1809 C 0.73058 0.27725 0.11754 0.0
N1810 N 0.58069 0.24282 0.10551 0.0
N1811 N 0.76866 0.28622 0.14364 0.0
H1812 H 0.82155 0.28797 0.09944 0.0
H1813 H 0.82337 0.29774 0.11696 0.0
H1814 H 0.75444 0.2866 0.15556 0.0
H1815 H 0.83902 0.29248 0.14023 0.0
H1816 H 0.53864 0.23342 0.10977 0.0
H1817 H 0.6061 0.24177 0.09397 0.0
H1818 H 0.44889 0.23912 0.12962 0.0
H1819 H 0.47316 0.24666 0.14798 0.0
C1820 C 0.32951 1.00904 0.86645 0.0
C1821 C 0.37974 0.02026 0.85698 0.0
C1822 C 0.4879 0.02961 0.87964 0.0
C1823 C 0.43186 0.01902 0.88928 0.0
N1824 N 0.31976 0.99663 0.89155 0.0
N1825 N 0.50708 0.04127 0.85422 0.0
C1826 C 0.35887 1.0081 0.88254 0.0
C1827 C 0.46013 0.03045 0.86347 0.0
N1828 N 0.24967 0.99969 0.86014 0.0
N1829 N 0.57023 0.03856 0.88596 0.0
H1830 H 0.49368 0.04176 0.84229 0.0
H1831 H 0.55648 0.05012 0.85824 0.0
H1832 H 0.59329 0.038 0.89763 0.0
H1833 H 0.62191 0.04579 0.87967 0.0
H1834 H 0.19959 0.99234 0.86654 0.0
H1835 H 0.22867 0.99983 0.8484 0.0
H1836 H 0.27493 0.98742 0.88738 0.0
H1837 H 0.33948 0.99582 0.90328 0.0
C1838 C 0.3885 0.74828 0.86293 0.0
C1839 C 0.45741 0.75967 0.85612 0.0
C1840 C 0.46384 0.77288 0.88136 0.0
C1841 C 0.4028 0.7609 0.88828 0.0
N1842 N 0.28113 0.73949 0.8853 0.0
N1843 N 0.55971 0.78292 0.85848 0.0
C1844 C 0.35747 0.74928 0.87892 0.0
C1845 C 0.49329 0.77215 0.86521 0.0
N1846 N 0.35572 0.73621 0.85421 0.0
N1847 N 0.49201 0.78501 0.89028 0.0
H1848 H 0.58161 0.78269 0.84677 0.0
H1849 H 0.59688 0.7918 0.86442 0.0
H1850 H 0.4694 0.78577 0.90196 0.0
H1851 H 0.53131 0.79465 0.88616 0.0
H1852 H 0.31893 0.72656 0.85875 0.0
H1853 H 0.36955 0.73549 0.84231 0.0
H1854 H 0.23545 0.73157 0.87901 0.0
H1855 H 0.25506 0.7402 0.89685 0.0
C1856 C 0.05459 0.64744 0.06642 0.0
C1857 C 0.16365 0.65409 0.06462 0.0
C1858 C 0.25163 0.62893 0.0637 0.0
C1859 C 0.14176 0.62233 0.06429 0.0
N1860 N 0.93738 0.62516 0.06393 0.0
N1861 N 0.36434 0.65134 0.05926 0.0
C1862 C 1.04283 0.63157 0.06499 0.0
C1863 C 0.26188 0.64487 0.06266 0.0
N1864 N 0.96273 0.65629 0.07003 0.0
N1865 N 0.34628 0.61995 0.06449 0.0
H1866 H 0.37532 0.66294 0.05849 0.0
H1867 H 0.43649 0.64526 0.05601 0.0
H1868 H 0.34197 0.60825 0.06483 0.0
H1869 H 0.42854 0.62406 0.06591 0.0
H1870 H 0.88347 0.65204 0.07316 0.0
H1871 H 0.96795 0.66793 0.07118 0.0
H1872 H 0.8624 0.63132 0.06257 0.0
H1873 H 0.92518 0.61358 0.06317 0.0
C1874 C 1.03235 0.6437 0.17795 0.0
C1875 C 0.12869 0.65279 0.18122 0.0
C1876 C 0.24362 0.63005 0.18581 0.0
C1877 C 0.15066 0.62099 0.18102 0.0
N1878 N 0.96076 0.61912 0.17061 0.0
N1879 N 0.33117 0.65466 0.18569 0.0
C1880 C 0.04595 0.6278 0.17659 0.0
C1881 C 0.23575 0.64597 0.18448 0.0
N1882 N 0.92725 0.65024 0.17657 0.0
N1883 N 0.33849 0.62346 0.19207 0.0
H1884 H 0.32953 0.66634 0.18474 0.0
H1885 H 0.41339 0.65024 0.18628 0.0
H1886 H 0.34767 0.61186 0.19326 0.0
H1887 H 0.40364 0.6295 0.19735 0.0
H1888 H 0.85182 0.64417 0.17582 0.0
H1889 H 0.91434 0.66181 0.17748 0.0
H1890 H 0.88725 0.62352 0.16558 0.0
H1891 H 0.96742 0.60747 0.16957 0.0
C1892 C 0.82883 0.38299 0.94012 0.0
C1893 C 0.90642 0.37406 0.93138 0.0
C1894 C 0.99999 0.39697 0.92195 0.0
C1895 C 0.9297 0.40579 0.93186 0.0
N1896 N 0.78611 0.40723 0.95178 0.0
N1897 N 0.07533 0.37229 0.91556 0.0
C1898 C 0.84624 0.3988 0.94131 0.0
C1899 C 0.99445 0.38099 0.92268 0.0
N1900 N 0.7367 0.37637 0.94696 0.0
N1901 N 0.07011 0.40391 0.91153 0.0
H1902 H 0.07351 0.36057 0.91568 0.0
H1903 H 0.149 0.3766 0.91056 0.0
H1904 H 0.07719 0.41556 0.91072 0.0
H1905 H 0.1141 0.39821 0.90282 0.0
H1906 H 0.67034 0.38237 0.9521 0.0
H1907 H 0.72163 0.36483 0.94641 0.0
H1908 H 0.73344 0.40264 0.96024 0.0
H1909 H 0.79528 0.41884 0.95279 0.0
C1910 C 0.04541 0.39822 0.81815 0.0
C1911 C 0.94019 0.4052 0.81421 0.0
C1912 C 0.85164 0.38032 0.81157 0.0
C1913 C 0.95919 0.37335 0.81416 0.0
N1914 N 0.16218 0.37562 0.81757 0.0
N1915 N 0.74806 0.40297 0.80459 0.0
C1916 C 0.0572 0.3823 0.81681 0.0
C1917 C 0.84461 0.39626 0.8102 0.0
N1918 N 0.13305 0.40677 0.82366 0.0
N1919 N 0.75531 0.37174 0.81099 0.0
H1920 H 0.73937 0.41459 0.80346 0.0
H1921 H 0.68034 0.39702 0.79983 0.0
H1922 H 0.75656 0.36007 0.81196 0.0
H1923 H 0.67328 0.37626 0.81088 0.0
H1924 H 0.20747 0.40225 0.82833 0.0
H1925 H 0.12765 0.41842 0.82478 0.0
H1926 H 0.23822 0.3816 0.81779 0.0
H1927 H 0.17399 0.36403 0.81665 0.0
C1928 C 0.23336 0.1295 0.55588 0.0
C1929 C 0.15051 0.1222 0.56517 0.0
C1930 C 0.08221 0.14669 0.5747 0.0
C1931 C 0.16955 0.15393 0.56615 0.0
N1932 N 0.33992 0.15227 0.55062 0.0
N1933 N 1.00913 0.12345 0.58543 0.0
C1934 C 0.2486 0.14533 0.55732 0.0
C1935 C 0.07872 0.1307 0.57518 0.0
N1936 N 0.29497 0.12135 0.54533 0.0
N1937 N 1.0001 0.15512 0.58192 0.0
H1938 H 1.0035 0.11177 0.58604 0.0
H1939 H 0.96408 0.12891 0.5942 0.0
H1940 H 1.00054 0.16683 0.582 0.0
H1941 H 0.92684 0.15057 0.58681 0.0
H1942 H 0.34733 0.12618 0.53698 0.0
H1943 H 0.28743 0.10973 0.54416 0.0
H1944 H 0.40721 0.14649 0.54542 0.0
H1945 H 0.35334 0.16383 0.55134 0.0
C1946 C 0.24111 0.14773 0.68475 0.0
C1947 C 0.13293 0.15455 0.68222 0.0
C1948 C 0.0492 0.12957 0.67794 0.0
C1949 C 0.15499 0.12272 0.68185 0.0
N1950 N 0.34682 0.12518 0.69151 0.0
N1951 N 0.93025 0.15196 0.67871 0.0
C1952 C 0.24967 0.13178 0.68596 0.0
C1953 C 1.03585 0.14545 0.67944 0.0
N1954 N 0.33658 0.15646 0.68546 0.0
N1955 N 0.96246 0.12092 0.67233 0.0
H1956 H 0.91729 0.16352 0.67975 0.0
H1957 H 0.85479 0.14585 0.6784 0.0
H1958 H 0.96902 0.10929 0.67109 0.0
H1959 H 0.88767 0.12536 0.66768 0.0
H1960 H 0.41903 0.15208 0.68553 0.0
H1961 H 0.33419 0.16814 0.68461 0.0
H1962 H 0.41391 0.1312 0.69635 0.0
H1963 H 0.3567 0.11356 0.6925 0.0
C1964 C 0.8174 0.8839 0.43407 0.0
C1965 C 0.90878 0.87491 0.4284 0.0
C1966 C 1.0227 0.89766 0.4241 0.0
C1967 C 0.92829 0.90672 0.42864 0.0
N1968 N 0.72995 0.90865 0.43562 0.0
N1969 N 0.09079 0.87322 0.41556 0.0
C1970 C 0.82388 0.89988 0.43297 0.0
C1971 C 1.00926 0.88181 0.4227 0.0
N1972 N 0.72596 0.87718 0.44097 0.0
N1973 N 0.12666 0.90415 0.42171 0.0
H1974 H 0.08429 0.86159 0.41441 0.0
H1975 H 0.15998 0.87772 0.40963 0.0
H1976 H 0.14032 0.91568 0.42265 0.0
H1977 H 0.20153 0.89802 0.4201 0.0
H1978 H 0.66274 0.88309 0.4469 0.0
H1979 H 0.71755 0.86555 0.44182 0.0
H1980 H 0.64837 0.90435 0.43718 0.0
H1981 H 0.73172 0.92035 0.435 0.0
C1982 C 1.01391 0.8821 0.30437 0.0
C1983 C 0.93747 0.87335 0.31336 0.0
C1984 C 0.84668 0.89644 0.32312 0.0
C1985 C 0.9158 0.90511 0.31301 0.0
N1986 N 0.05591 0.90625 0.29263 0.0
N1987 N 0.7713 0.87191 0.32972 0.0
C1988 C 0.99717 0.89795 0.30327 0.0
C1989 C 0.8513 0.88045 0.32235 0.0
N1990 N 0.10438 0.87528 0.29721 0.0
N1991 N 0.7786 0.90353 0.33375 0.0
H1992 H 0.77255 0.86019 0.32958 0.0
H1993 H 0.69873 0.87637 0.33497 0.0
H1994 H 0.77213 0.91519 0.33458 0.0
H1995 H 0.73576 0.89793 0.34259 0.0
H1996 H 0.17011 0.88115 0.29186 0.0
H1997 H 0.11886 0.86372 0.29767 0.0
H1998 H 0.10681 0.90155 0.28399 0.0
H1999 H 0.04726 0.91789 0.29169 0.0
C2000 C 0.74221 0.62891 0.55441 0.0
C2001 C 0.65844 0.62194 0.56382 0.0
C2002 C 0.5929 0.64676 0.57284 0.0
C2003 C 0.68126 0.65368 0.56419 0.0
N2004 N 0.85167 0.65136 0.54875 0.0
N2005 N 0.51699 0.62387 0.58401 0.0
C2006 C 0.75935 0.64474 0.55554 0.0
C2007 C 0.58754 0.63078 0.57363 0.0
N2008 N 0.80291 0.62046 0.54402 0.0
N2009 N 0.51155 0.65547 0.57985 0.0
H2010 H 0.51001 0.61222 0.58486 0.0
H2011 H 0.4725 0.62959 0.59266 0.0
H2012 H 0.51319 0.66719 0.57968 0.0
H2013 H 0.4377 0.65116 0.5848 0.0
H2014 H 0.85587 0.62503 0.53559 0.0
H2015 H 0.79398 0.60884 0.54306 0.0
H2016 H 0.91833 0.64534 0.54369 0.0
H2017 H 0.86655 0.66289 0.54926 0.0
C2018 C 0.59281 0.62914 0.68337 0.0
C2019 C 0.70079 0.62224 0.68091 0.0
C2020 C 0.78629 0.64712 0.67686 0.0
C2021 C 0.68054 0.65404 0.68066 0.0
N2022 N 0.48797 0.65177 0.69012 0.0
N2023 N 0.90388 0.62461 0.67767 0.0
C2024 C 0.58508 0.64508 0.68464 0.0
C2025 C 0.79863 0.63123 0.67831 0.0
N2026 N 0.49681 0.62051 0.68393 0.0
N2027 N 0.87392 0.6557 0.6714 0.0
H2028 H 0.91604 0.61303 0.67866 0.0
H2029 H 0.97974 0.63063 0.67747 0.0
H2030 H 0.86809 0.66734 0.67021 0.0
H2031 H 0.94886 0.6512 0.66684 0.0
H2032 H 0.4146 0.62496 0.68394 0.0
H2033 H 0.49857 0.60882 0.68304 0.0
H2034 H 0.42026 0.64581 0.69487 0.0
H2035 H 0.47872 0.66339 0.69117 0.0
C2036 C 0.32842 0.39965 0.43417 0.0
C2037 C 0.43789 0.40614 0.43231 0.0
C2038 C 0.52209 0.38096 0.42922 0.0
C2039 C 0.4142 0.37442 0.43228 0.0
N2040 N 0.21773 0.37735 0.43994 0.0
N2041 N 0.64168 0.40311 0.43043 0.0
C2042 C 0.31805 0.38372 0.43536 0.0
C2043 C 0.53556 0.39681 0.43051 0.0
N2044 N 0.23405 0.40871 0.43441 0.0
N2045 N 0.6109 0.37203 0.42456 0.0
H2046 H 0.65498 0.41467 0.43113 0.0
H2047 H 0.71684 0.39687 0.43092 0.0
H2048 H 0.6044 0.36039 0.42349 0.0
H2049 H 0.68807 0.37621 0.4205 0.0
H2050 H 0.15101 0.40466 0.43395 0.0
H2051 H 0.23868 0.4204 0.43391 0.0
H2052 H 0.14821 0.3835 0.444 0.0
H2053 H 0.20667 0.36576 0.44085 0.0
C2054 C 0.33524 0.38158 0.32501 0.0
C2055 C 0.43205 0.37429 0.31853 0.0
C2056 C 0.51162 0.39878 0.31107 0.0
C2057 C 0.41717 0.40608 0.31815 0.0
N2058 N 0.24787 0.40482 0.33393 0.0
N2059 N 0.6207 0.37575 0.30761 0.0
C2060 C 0.33171 0.39757 0.32578 0.0
C2061 C 0.52279 0.38286 0.31221 0.0
N2062 N 0.24473 0.37319 0.32991 0.0
N2063 N 0.58898 0.40706 0.30291 0.0
H2064 H 0.6312 0.36411 0.30811 0.0
H2065 H 0.69468 0.38136 0.30442 0.0
H2066 H 0.58574 0.41877 0.30231 0.0
H2067 H 0.6522 0.40237 0.29593 0.0
H2068 H 0.16625 0.37776 0.33306 0.0
H2069 H 0.24508 0.36147 0.32982 0.0
H2070 H 0.1904 0.39937 0.34116 0.0
H2071 H 0.2407 0.4165 0.3344 0.0
C2072 C 0.56597 0.13013 0.07071 0.0
C2073 C 0.66397 0.12115 0.06765 0.0
C2074 C 0.77731 0.14405 0.06383 0.0
C2075 C 0.68139 0.15298 0.06803 0.0
N2076 N 0.49038 0.1545 0.07819 0.0
N2077 N 0.86706 0.11941 0.06387 0.0
C2078 C 0.57744 0.14599 0.07228 0.0
C2079 C 0.77095 0.12809 0.06495 0.0
N2080 N 0.46094 0.12357 0.07146 0.0
N2081 N 0.87323 0.15082 0.05822 0.0
H2082 H 0.86553 0.10771 0.06463 0.0
H2083 H 0.94911 0.12381 0.06356 0.0
H2084 H 0.88147 0.16245 0.05732 0.0
H2085 H 0.9411 0.14492 0.05331 0.0
H2086 H 0.38502 0.12966 0.0719 0.0
H2087 H 0.44854 0.11203 0.0703 0.0
H2088 H 0.41718 0.14994 0.08309 0.0
H2089 H 0.4955 0.16614 0.07947 0.0
C2090 C 0.77863 0.14709 0.17927 0.0
C2091 C 0.67047 0.15364 0.18242 0.0
C2092 C 0.58646 0.12842 0.18449 0.0
C2093 C 0.69624 0.12192 0.18254 0.0
N2094 N 0.89973 0.12494 0.18042 0.0
N2095 N 0.47461 0.15076 0.19029 0.0
C2096 C 0.79321 0.13124 0.1806 0.0
C2097 C 0.5751 0.14435 0.18563 0.0
N2098 N 0.8666 0.15599 0.1745 0.0
N2099 N 0.4927 0.11936 0.18485 0.0
H2100 H 0.46284 0.16235 0.19116 0.0
H2101 H 0.4057 0.14463 0.19444 0.0
H2102 H 0.49809 0.10767 0.1844 0.0
H2103 H 0.40937 0.12341 0.18447 0.0
H2104 H 0.94383 0.15179 0.17038 0.0
H2105 H 0.85929 0.16763 0.1734 0.0
H2106 H 0.97452 0.13118 0.18082 0.0
H2107 H 0.91383 0.11338 0.18114 0.0
C2108 C 0.48988 0.88137 0.92103 0.0
C2109 C 0.40265 0.87433 0.92978 0.0
C2110 C 0.34191 0.89893 0.93995 0.0
C2111 C 0.42457 0.90603 0.93047 0.0
N2112 N 0.56393 0.90441 0.90998 0.0
N2113 N 0.23367 0.87638 0.94555 0.0
C2114 C 0.49467 0.89735 0.92041 0.0
C2115 C 0.32511 0.88312 0.93866 0.0
N2116 N 0.57075 0.87277 0.91377 0.0
N2117 N 0.28202 0.90725 0.95054 0.0
H2118 H 0.21906 0.86484 0.94492 0.0
H2119 H 0.16735 0.8823 0.9508 0.0
H2120 H 0.29072 0.91886 0.95162 0.0
H2121 H 0.23001 0.90256 0.95902 0.0
H2122 H 0.64395 0.87718 0.90873 0.0
H2123 H 0.56945 0.86105 0.91381 0.0
H2124 H 0.60768 0.89881 0.90118 0.0
H2125 H 0.57049 0.91608 0.90925 0.0
C2126 C 0.49685 0.8827 0.81051 0.0
C2127 C 0.40183 0.87369 0.81459 0.0
C2128 C 0.2842 0.89649 0.8175 0.0
C2129 C 0.38172 0.90551 0.81477 0.0
N2130 N 0.58528 0.90726 0.8113 0.0
N2131 N 0.2096 0.87195 0.82426 0.0
C2132 C 0.48933 0.89862 0.81198 0.0
C2133 C 0.29662 0.88058 0.81871 0.0
N2134 N 0.59329 0.87606 0.80475 0.0
N2135 N 0.17909 0.90311 0.81847 0.0
H2136 H 0.21547 0.86029 0.82527 0.0
H2137 H 0.13529 0.87639 0.82905 0.0
H2138 H 0.16688 0.9147 0.81767 0.0
H2139 H 0.10323 0.89709 0.81877 0.0
H2140 H 0.6605 0.88207 0.79993 0.0
H2141 H 0.60237 0.86445 0.80355 0.0
H2142 H 0.66747 0.90281 0.81106 0.0
H2143 H 0.58365 0.91894 0.81233 0.0
C2144 C 0.6345 0.5127 0.04554 0.0
C2145 C 0.69339 0.51271 0.05998 0.0
C2146 C 0.50854 0.51172 0.07374 0.0
C2147 C 0.44892 0.51211 0.0593 0.0
N2148 N 0.45429 0.51451 0.03152 0.0
N2149 N 0.68938 0.51084 0.08776 0.0
C2150 C 0.51198 0.5129 0.04521 0.0
C2151 C 0.63087 0.51196 0.07407 0.0
N2152 N 0.69637 0.51218 0.0321 0.0
N2153 N 0.44741 0.51115 0.0872 0.0
H2154 H 0.77812 0.51116 0.08841 0.0
H2155 H 0.65225 0.50898 0.09852 0.0
H2156 H 0.35982 0.50964 0.08733 0.0
H2157 H 0.48124 0.51244 0.09825 0.0
H2158 H 0.66126 0.51059 0.02115 0.0
H2159 H 0.78521 0.51251 0.03191 0.0
H2160 H 0.49289 0.51674 0.02092 0.0
H2161 H 0.36557 0.51452 0.03083 0.0
C2162 C 0.6745 0.77416 0.07037 0.0
C2163 C 0.6129 0.76466 0.06012 0.0
C2164 C 0.79671 0.75538 0.04952 0.0
C2165 C 0.85747 0.76585 0.0588 0.0
N2166 N 0.85112 0.78698 0.07637 0.0
N2167 N 0.6174 0.74841 0.0377 0.0
C2168 C 0.79529 0.77581 0.06865 0.0
C2169 C 0.6747 0.75578 0.04917 0.0
N2170 N 0.61849 0.78106 0.08233 0.0
N2171 N 0.85545 0.74509 0.04082 0.0
H2172 H 0.52938 0.74874 0.03668 0.0
H2173 H 0.65719 0.74324 0.0283 0.0
H2174 H 0.94386 0.74516 0.03964 0.0
H2175 H 0.81702 0.7359 0.0355 0.0
H2176 H 0.65973 0.78676 0.09125 0.0
H2177 H 0.53136 0.77982 0.08425 0.0
H2178 H 0.80943 0.79564 0.08223 0.0
H2179 H 0.93897 0.78836 0.07589 0.0
C2180 C 0.67498 0.76236 0.16894 0.0
C2181 C 0.73903 0.76285 0.18295 0.0
C2182 C 0.55862 0.76548 0.19772 0.0
C2183 C 0.49439 0.76391 0.18386 0.0
N2184 N 0.49075 0.75935 0.15631 0.0
N2185 N 0.73936 0.76177 0.21086 0.0
C2186 C 0.55261 0.76184 0.16949 0.0
C2187 C 0.67998 0.76366 0.19738 0.0
N2188 N 0.731 0.76307 0.15506 0.0
N2189 N 0.50362 0.76871 0.21131 0.0
H2190 H 0.82661 0.75969 0.21103 0.0
H2191 H 0.70133 0.7607 0.2217 0.0
H2192 H 0.41508 0.76934 0.21223 0.0
H2193 H 0.54569 0.77182 0.22144 0.0
H2194 H 0.69026 0.76444 0.14444 0.0
H2195 H 0.81961 0.76344 0.15421 0.0
H2196 H 0.52668 0.75599 0.14582 0.0
H2197 H 0.40193 0.75979 0.15604 0.0
C2198 C 0.79703 0.5141 0.1717 0.0
C2199 C 0.85567 0.51189 0.18599 0.0
C2200 C 0.67042 0.50785 0.19905 0.0
C2201 C 0.61144 0.51096 0.18494 0.0
N2202 N 0.61819 0.51857 0.15815 0.0
N2203 N 0.84794 0.50876 0.21368 0.0
C2204 C 0.67485 0.51461 0.17139 0.0
C2205 C 0.79214 0.50923 0.19976 0.0
N2206 N 0.85824 0.51498 0.15824 0.0
N2207 N 0.60995 0.50364 0.21188 0.0
H2208 H 0.93613 0.50982 0.21465 0.0
H2209 H 0.80708 0.50854 0.22438 0.0
H2210 H 0.5212 0.50364 0.21231 0.0
H2211 H 0.64719 0.49938 0.22191 0.0
H2212 H 0.82181 0.51479 0.14724 0.0
H2213 H 0.94699 0.51469 0.15793 0.0
H2214 H 0.65784 0.52322 0.1485 0.0
H2215 H 0.52981 0.51801 0.15706 0.0
C2216 C 0.55824 0.51587 0.95077 0.0
C2217 C 0.62216 0.51575 0.93672 0.0
C2218 C 0.44086 0.51647 0.92186 0.0
C2219 C 0.37749 0.51567 0.93585 0.0
N2220 N 0.374 0.51332 0.96363 0.0
N2221 N 0.62366 0.51503 0.90876 0.0
C2222 C 0.43589 0.5151 0.95032 0.0
C2223 C 0.56293 0.51574 0.92225 0.0
N2224 N 0.61473 0.51675 0.96461 0.0
N2225 N 0.38403 0.51855 0.90817 0.0
H2226 H 0.71174 0.51598 0.90845 0.0
H2227 H 0.58795 0.51287 0.89795 0.0
H2228 H 0.2953 0.51887 0.90741 0.0
H2229 H 0.42373 0.52101 0.89769 0.0
H2230 H 0.57492 0.51862 0.97522 0.0
H2231 H 0.70331 0.51635 0.96547 0.0
H2232 H 0.40959 0.51114 0.97444 0.0
H2233 H 0.28514 0.51314 0.96374 0.0
C2234 C 0.40941 0.2659 0.92184 0.0
C2235 C 0.47317 0.26309 0.93558 0.0
C2236 C 0.29229 0.26142 0.95036 0.0
C2237 C 0.22857 0.26319 0.93645 0.0
N2238 N 0.227 0.26506 0.90857 0.0
N2239 N 0.47529 0.25716 0.96285 0.0
C2240 C 0.28744 0.265 0.92211 0.0
C2241 C 0.41432 0.26046 0.94979 0.0
N2242 N 0.46555 0.2694 0.90843 0.0
N2243 N 0.23625 0.26148 0.96428 0.0
H2244 H 0.56372 0.25778 0.96331 0.0
H2245 H 0.43911 0.25313 0.97304 0.0
H2246 H 0.14783 0.26236 0.9652 0.0
H2247 H 0.27693 0.26191 0.97499 0.0
H2248 H 0.42525 0.27358 0.89858 0.0
H2249 H 0.55401 0.26895 0.90734 0.0
H2250 H 0.2639 0.26455 0.89761 0.0
H2251 H 0.13867 0.26438 0.90824 0.0
C2252 C 0.54261 0.25316 0.8223 0.0
C2253 C 0.60199 0.26197 0.81117 0.0
C2254 C 0.4181 0.27332 0.80326 0.0
C2255 C 0.35746 0.26338 0.81322 0.0
N2256 N 0.36358 0.24264 0.8312 0.0
N2257 N 0.59284 0.27846 0.78909 0.0
C2258 C 0.4204 0.25288 0.82234 0.0
C2259 C 0.53864 0.27155 0.80116 0.0
N2260 N 0.60278 0.2457 0.83349 0.0
N2261 N 0.36117 0.28461 0.79581 0.0
H2262 H 0.6798 0.27717 0.78693 0.0
H2263 H 0.55019 0.28422 0.78033 0.0
H2264 H 0.27367 0.28621 0.79672 0.0
H2265 H 0.40194 0.29322 0.78984 0.0
H2266 H 0.56514 0.2405 0.84299 0.0
H2267 H 0.69136 0.24592 0.83411 0.0
H2268 H 0.40326 0.23347 0.83645 0.0
H2269 H 0.27544 0.24278 0.83262 0.0
C2270 C 0.30686 0.50665 0.80115 0.0
C2271 C 0.24267 0.51651 0.8108 0.0
C2272 C 0.42366 0.52623 0.82161 0.0
C2273 C 0.48739 0.51549 0.81287 0.0
N2274 N 0.48448 0.49342 0.7965 0.0
N2275 N 0.24072 0.53347 0.8326 0.0
C2276 C 0.42731 0.50505 0.80337 0.0
C2277 C 0.30141 0.52576 0.82162 0.0
N2278 N 0.25369 0.49932 0.78926 0.0
N2279 N 0.47971 0.53688 0.83006 0.0
H2280 H 0.1522 0.53307 0.83333 0.0
H2281 H 0.27809 0.53907 0.84189 0.0
H2282 H 0.56791 0.53693 0.83143 0.0
H2283 H 0.43922 0.54615 0.835 0.0
H2284 H 0.29724 0.49336 0.7807 0.0
H2285 H 0.16684 0.50046 0.78699 0.0
H2286 H 0.44374 0.48456 0.79093 0.0
H2287 H 0.57177 0.49178 0.7976 0.0
C2288 C 0.52469 1.01352 0.57368 0.0
C2289 C 0.46562 1.01247 0.55926 0.0
C2290 C 0.65199 1.01027 0.54589 0.0
C2291 C 0.71034 1.01247 0.56021 0.0
N2292 N 0.70167 0.01811 0.5875 0.0
N2293 N 0.47441 1.01218 0.53138 0.0
C2294 C 0.64629 0.01476 0.57399 0.0
C2295 C 0.52985 1.01137 0.5453 0.0
N2296 N 0.46502 1.01242 0.58722 0.0
N2297 N 0.71346 1.00719 0.53279 0.0
H2298 H 0.38619 1.01331 0.53051 0.0
H2299 H 0.5157 1.01304 0.52074 0.0
H2300 H 0.80231 1.00727 0.5325 0.0
H2301 H 0.67693 1.0037 0.5224 0.0
H2302 H 0.50274 1.01143 0.59809 0.0
H2303 H 0.37732 1.01102 0.58748 0.0
H2304 H 0.66017 0.02185 0.59747 0.0
H2305 H 0.79023 0.01813 0.58852 0.0
C2306 C 0.66939 0.2741 0.57218 0.0
C2307 C 0.60855 0.26426 0.56219 0.0
C2308 C 0.79292 0.25482 0.55196 0.0
C2309 C 0.85303 0.26556 0.56099 0.0
N2310 N 0.84511 0.28718 0.57795 0.0
N2311 N 0.61409 0.24719 0.54044 0.0
C2312 C 0.79014 0.27577 0.5705 0.0
C2313 C 0.67092 0.25506 0.55159 0.0
N2314 N 0.61264 0.28131 0.58389 0.0
N2315 N 0.85228 0.24439 0.5435 0.0
H2316 H 0.52599 0.24718 0.53955 0.0
H2317 H 0.65405 0.2418 0.53118 0.0
H2318 H 0.94053 0.24462 0.54216 0.0
H2319 H 0.81464 0.235 0.53848 0.0
H2320 H 0.65332 0.28726 0.59268 0.0
H2321 H 0.52545 0.28009 0.58578 0.0
H2322 H 0.80276 0.29599 0.58347 0.0
H2323 H 0.93289 0.2886 0.57757 0.0
C2324 C 0.66485 0.26487 0.671 0.0
C2325 C 0.72873 0.26493 0.68503 0.0
C2326 C 0.54806 0.26713 0.69984 0.0
C2327 C 0.48409 0.26604 0.68591 0.0
N2328 N 0.48061 0.26236 0.65823 0.0
N2329 N 0.72919 0.26341 0.71292 0.0
C2330 C 0.54244 0.26442 0.6715 0.0
C2331 C 0.66958 0.26541 0.69948 0.0
N2332 N 0.72115 0.26591 0.65716 0.0
N2333 N 0.49257 0.26986 0.71351 0.0
H2334 H 0.81686 0.26168 0.71309 0.0
H2335 H 0.69139 0.26202 0.72374 0.0
H2336 H 0.40398 0.27046 0.71438 0.0
H2337 H 0.53407 0.27259 0.7238 0.0
H2338 H 0.68071 0.26762 0.64657 0.0
H2339 H 0.8098 0.26617 0.65635 0.0
H2340 H 0.51649 0.25939 0.64762 0.0
H2341 H 0.39177 0.26276 0.658 0.0
C2342 C 0.78792 1.00845 0.69876 0.0
C2343 C 0.85206 1.01148 0.68515 0.0
C2344 C 0.67161 1.01349 0.67029 0.0
C2345 C 0.60724 1.01163 0.68415 0.0
N2346 N 0.60628 1.01009 0.71207 0.0
N2347 N 0.85507 0.01835 0.65812 0.0
C2348 C 0.66619 1.00975 0.6985 0.0
C2349 C 0.7937 0.01452 0.67099 0.0
N2350 N 0.84334 1.00434 0.71205 0.0
N2351 N 0.61644 1.01348 0.65633 0.0
H2352 H 0.94392 0.0183 0.65784 0.0
H2353 H 0.81842 0.02245 0.64797 0.0
H2354 H 0.52826 1.01246 0.65535 0.0
H2355 H 0.65799 1.01317 0.64568 0.0
H2356 H 0.80195 1.00007 0.72176 0.0
H2357 H 0.93189 1.00424 0.71308 0.0
H2358 H 0.64393 1.01047 0.72299 0.0
H2359 H 0.51843 1.01149 0.71245 0.0
C2360 C 0.55682 1.00826 0.44729 0.0
C2361 C 0.6234 0.01623 0.43626 0.0
C2362 C 0.4458 0.02469 0.42323 0.0
C2363 C 0.37921 0.01672 0.43426 0.0
N2364 N 0.36983 1.00282 0.45816 0.0
N2365 N 0.63273 0.03009 0.41234 0.0
C2366 C 0.4346 1.00889 0.44658 0.0
C2367 C 0.56799 0.02405 0.42394 0.0
N2368 N 0.61089 0.99987 0.45837 0.0
N2369 N 0.39179 0.03307 0.41214 0.0
H2370 H 0.72142 0.02971 0.41239 0.0
H2371 H 0.59997 0.03452 0.40211 0.0
H2372 H 0.30364 0.03304 0.41064 0.0
H2373 H 0.43276 0.04066 0.40489 0.0
H2374 H 0.56997 0.99229 0.46563 0.0
H2375 H 0.69906 0.99989 0.45984 0.0
H2376 H 0.40262 0.99836 0.46837 0.0
H2377 H 0.2811 1.00316 0.45811 0.0
C2378 C 0.4207 0.76143 0.44793 0.0
C2379 C 0.47957 0.76379 0.43368 0.0
C2380 C 0.29392 0.76547 0.42018 0.0
C2381 C 0.23494 0.76392 0.43455 0.0
N2382 N 0.24259 0.7627 0.46241 0.0
N2383 N 0.47206 0.76974 0.40645 0.0
C2384 C 0.29865 0.7624 0.44849 0.0
C2385 C 0.41587 0.76639 0.4199 0.0
N2386 N 0.48174 0.7584 0.46105 0.0
N2387 N 0.2336 0.76526 0.40663 0.0
H2388 H 0.56059 0.76939 0.40542 0.0
H2389 H 0.43171 0.77373 0.39652 0.0
H2390 H 0.14532 0.76451 0.40632 0.0
H2391 H 0.2706 0.76458 0.39569 0.0
H2392 H 0.44569 0.75457 0.47133 0.0
H2393 H 0.57017 0.75904 0.46146 0.0
H2394 H 0.28325 0.76331 0.47311 0.0
H2395 H 0.15417 0.7636 0.46331 0.0
C2396 C 0.42835 0.75989 0.29663 0.0
C2397 C 0.36913 0.76206 0.31092 0.0
C2398 C 0.55517 0.76561 0.32401 0.0
C2399 C 0.61387 0.76226 0.30994 0.0
N2400 N 0.60604 0.75433 0.28325 0.0
N2401 N 0.37781 0.76477 0.33868 0.0
C2402 C 0.55014 0.75875 0.29642 0.0
C2403 C 0.43317 0.76443 0.32472 0.0
N2404 N 0.36861 0.7598 0.28304 0.0
N2405 N 0.61618 0.76988 0.33677 0.0
H2406 H 0.2897 0.76366 0.33969 0.0
H2407 H 0.41924 0.76484 0.34934 0.0
H2408 H 0.70503 0.76999 0.33702 0.0
H2409 H 0.57917 0.77419 0.34681 0.0
H2410 H 0.40645 0.75994 0.27212 0.0
H2411 H 0.28066 0.76109 0.28261 0.0
H2412 H 0.56507 0.74972 0.27366 0.0
H2413 H 0.69462 0.7543 0.28224 0.0
C2414 C 0.28973 0.01554 0.29486 0.0
C2415 C 0.22578 0.01516 0.30891 0.0
C2416 C 0.407 0.01569 0.3238 0.0
C2417 C 0.47046 0.01519 0.3098 0.0
N2418 N 0.47434 1.01341 0.28197 0.0
N2419 N 0.22421 0.01413 0.33684 0.0
C2420 C 0.41218 0.01487 0.29531 0.0
C2421 C 0.28498 0.01496 0.32338 0.0
N2422 N 0.23316 0.01655 0.28104 0.0
N2423 N 0.46367 0.0175 0.33754 0.0
H2424 H 0.13617 0.01519 0.33716 0.0
H2425 H 0.25981 1.01179 0.34763 0.0
H2426 H 0.55237 0.01785 0.33831 0.0
H2427 H 0.42386 0.01972 0.34808 0.0
H2428 H 0.27268 0.01863 0.27046 0.0
H2429 H 0.14467 0.01601 0.28016 0.0
H2430 H 0.43911 1.01144 0.2711 0.0
H2431 H 0.56321 1.01331 0.28186 0.0
C2432 C 0.15185 0.51004 0.54561 0.0
C2433 C 0.21016 0.51229 0.55992 0.0
C2434 C 1.02455 0.51316 0.57341 0.0
C2435 C 0.96545 0.51209 0.559 0.0
N2436 N 0.97405 0.51174 0.53111 0.0
N2437 N 0.2013 0.51792 0.58722 0.0
C2438 C 1.02963 0.51103 0.54502 0.0
C2439 C 0.14606 0.51452 0.57371 0.0
N2440 N 0.21343 0.50701 0.53251 0.0
N2441 N 0.96506 0.51195 0.58695 0.0
H2442 H 0.28986 0.51804 0.58823 0.0
H2443 H 0.1596 0.52161 0.59719 0.0
H2444 H 0.87749 0.51039 0.58722 0.0
H2445 H 1.00294 0.51096 0.59782 0.0
H2446 H 0.17706 0.5035 0.52211 0.0
H2447 H 0.30227 0.50714 0.53222 0.0
H2448 H 1.01521 0.51265 0.52047 0.0
H2449 H 0.88569 0.51268 0.53024 0.0
C2450 C 0.30017 0.76296 0.57372 0.0
C2451 C 0.35916 0.76465 0.55937 0.0
C2452 C 0.1735 0.76716 0.54598 0.0
C2453 C 0.11457 0.76465 0.5602 0.0
N2454 N 0.12203 0.75854 0.5874 0.0
N2455 N 0.35179 0.76612 0.53153 0.0
C2456 C 0.17823 0.76199 0.57397 0.0
C2457 C 0.29557 0.76626 0.54543 0.0
N2458 N 0.36048 0.76308 0.58727 0.0
N2459 N 0.11254 0.77029 0.53287 0.0
H2460 H 0.44027 0.76531 0.53064 0.0
H2461 H 0.31129 0.76557 0.52081 0.0
H2462 H 1.02414 0.76961 0.53242 0.0
H2463 H 0.14864 0.77423 0.52264 0.0
H2464 H 0.32347 0.76364 0.59822 0.0
H2465 H 0.44875 0.76387 0.58758 0.0
H2466 H 0.16239 0.75451 0.59731 0.0
H2467 H 1.03351 0.75888 0.58843 0.0
C2468 C 0.04759 0.76799 0.69751 0.0
C2469 C 0.98388 0.76521 0.6838 0.0
C2470 C 0.16485 0.76318 0.66905 0.0
C2471 C 0.22868 0.76484 0.68299 0.0
N2472 N 0.22849 0.76587 0.71092 0.0
N2473 N 0.98154 0.75864 0.65669 0.0
C2474 C 0.16921 0.76655 0.69731 0.0
C2475 C 1.04265 0.76227 0.66964 0.0
N2476 N 0.99187 0.77201 0.71082 0.0
N2477 N 0.22071 0.76323 0.65514 0.0
H2478 H 0.89269 0.75875 0.65638 0.0
H2479 H 1.01833 0.75464 0.6465 0.0
H2480 H 0.30907 0.76406 0.65423 0.0
H2481 H 0.17969 0.76369 0.64445 0.0
H2482 H 1.03319 0.77608 0.72064 0.0
H2483 H 0.90326 0.77227 0.71176 0.0
H2484 H 0.19031 0.7654 0.72181 0.0
H2485 H 0.31612 0.76421 0.71131 0.0
C2486 C 0.15855 0.52313 0.69207 0.0
C2487 C 0.09813 0.51244 0.68294 0.0
C2488 C 0.28365 0.50156 0.67473 0.0
C2489 C 0.3428 0.51119 0.68516 0.0
N2490 N 0.33262 0.52941 0.70578 0.0
N2491 N 0.10465 0.49043 0.6666 0.0
C2492 C 0.27898 0.52154 0.69431 0.0
C2493 C 0.16133 0.5013 0.67467 0.0
N2494 N 0.10156 0.53497 0.69857 0.0
N2495 N 0.34411 0.49328 0.66418 0.0
H2496 H 1.01652 0.49048 0.66515 0.0
H2497 H 0.14439 0.48091 0.66206 0.0
H2498 H 0.43274 0.49341 0.66357 0.0
H2499 H 0.30666 0.48737 0.6551 0.0
H2500 H 0.14231 0.54404 0.70379 0.0
H2501 H 1.01407 0.5365 0.69759 0.0
H2502 H 0.28964 0.53573 0.71412 0.0
H2503 H 0.4196 0.52844 0.70793 0.0
C2504 C 0.94499 0.51842 0.45004 0.0
C2505 C 0.88664 0.51582 0.43579 0.0
C2506 C 0.07214 0.51459 0.42232 0.0
C2507 C 0.13132 0.51598 0.4367 0.0
N2508 N 0.12278 0.51701 0.46457 0.0
N2509 N 0.89538 0.50945 0.40867 0.0
C2510 C 0.06719 0.51739 0.45065 0.0
C2511 C 0.95066 0.51322 0.42207 0.0
N2512 N 0.88346 0.52183 0.46305 0.0
N2513 N 0.1315 0.51551 0.40875 0.0
H2514 H 0.80681 0.50925 0.40769 0.0
H2515 H 0.93711 0.50551 0.3988 0.0
H2516 H 0.21898 0.51713 0.40844 0.0
H2517 H 0.09353 0.51623 0.39787 0.0
H2518 H 0.91993 0.52557 0.47335 0.0
H2519 H 0.79459 0.52181 0.46331 0.0
H2520 H 0.08158 0.51638 0.47523 0.0
H2521 H 0.21111 0.51604 0.46546 0.0
C2522 C 0.91012 0.26513 0.42112 0.0
C2523 C 0.97431 0.26339 0.43502 0.0
C2524 C 0.79361 0.26034 0.44959 0.0
C2525 C 0.72954 0.26325 0.43594 0.0
N2526 N 0.72654 0.26995 0.40887 0.0
N2527 N 0.97466 0.26229 0.46295 0.0
C2528 C 0.78795 0.26618 0.42177 0.0
C2529 C 0.91517 0.26169 0.44936 0.0
N2530 N 0.96559 0.26501 0.40718 0.0
N2531 N 0.73829 0.2563 0.4629 0.0
H2532 H 0.06224 0.26388 0.46331 0.0
H2533 H 0.93667 0.26277 0.47385 0.0
H2534 H 0.64971 0.2561 0.46388 0.0
H2535 H 0.77997 0.25214 0.47266 0.0
H2536 H 0.92425 0.2646 0.39651 0.0
H2537 H 0.05389 0.26402 0.40623 0.0
H2538 H 0.76314 0.27392 0.39868 0.0
H2539 H 0.63769 0.26999 0.40862 0.0
C2540 C 1.04485 0.25283 0.32112 0.0
C2541 C 0.10679 0.26224 0.31073 0.0
C2542 C 0.92442 0.27311 0.30151 0.0
C2543 C 0.86243 0.26392 0.31211 0.0
N2544 N 0.8628 0.24442 0.33145 0.0
N2545 N 0.10643 0.28212 0.29182 0.0
C2546 C 0.9228 0.25363 0.32174 0.0
C2547 C 0.0465 0.2726 0.3012 0.0
N2548 N 0.10324 0.24369 0.33108 0.0
N2549 N 0.86635 0.28161 0.29094 0.0
H2550 H 0.19385 0.2811 0.28994 0.0
H2551 H 0.07116 0.29146 0.28636 0.0
H2552 H 0.77831 0.2826 0.29088 0.0
H2553 H 0.90388 0.28693 0.28151 0.0
H2554 H 0.06717 0.23813 0.34046 0.0
H2555 H 0.19055 0.24201 0.33042 0.0
H2556 H 0.89708 0.23517 0.33716 0.0
H2557 H 0.77588 0.2457 0.33352 0.0
C2558 C 0.9158 0.51826 0.29686 0.0
C2559 C 0.97365 0.51638 0.31129 0.0
C2560 C 0.78734 0.51295 0.32437 0.0
C2561 C 0.72946 0.51488 0.30995 0.0
N2562 N 0.73789 0.51741 0.28222 0.0
N2563 N 0.96524 0.51376 0.33902 0.0
C2564 C 0.79372 0.51717 0.29615 0.0
C2565 C 0.90942 0.51405 0.32508 0.0
N2566 N 0.97806 0.52117 0.28379 0.0
N2567 N 0.72519 0.50993 0.33742 0.0
H2568 H 0.05348 0.51474 0.33998 0.0
H2569 H 0.92521 0.51356 0.34977 0.0
H2570 H 0.63642 0.51 0.33764 0.0
H2571 H 0.7602 0.5067 0.34798 0.0
H2572 H 0.94316 0.52436 0.27322 0.0
H2573 H 0.06684 0.52102 0.28357 0.0
H2574 H 0.77784 0.51764 0.27147 0.0
H2575 H 0.64972 0.51634 0.28127 0.0
C2576 C 1.0433 1.00814 0.04621 0.0
C2577 C 0.97976 1.01215 0.05967 0.0
C2578 C 0.1603 1.01384 0.07451 0.0
C2579 C 0.22396 1.01075 0.06083 0.0
N2580 N 0.22696 1.00697 0.03315 0.0
N2581 N 0.97818 0.02 0.08647 0.0
C2582 C 0.16551 1.00833 0.04657 0.0
C2583 C 1.03864 0.01543 0.07374 0.0
N2584 N 0.98669 1.00416 0.03298 0.0
N2585 N 0.21591 0.01452 0.08843 0.0
H2586 H 0.88947 0.02017 0.08689 0.0
H2587 H 1.01542 0.0244 0.09643 0.0
H2588 H 0.30405 1.01331 0.08946 0.0
H2589 H 0.17494 0.01506 0.09912 0.0
H2590 H 1.02599 0.9992 0.02343 0.0
H2591 H 0.89855 1.0051 0.03178 0.0
H2592 H 0.1909 1.00704 0.02213 0.0
H2593 H 0.31572 1.00692 0.03288 0.0
C2594 C 0.168 0.26495 0.04771 0.0
C2595 C 0.10893 0.26393 0.06212 0.0
C2596 C 0.29418 0.26309 0.07584 0.0
C2597 C 0.3534 0.26416 0.06142 0.0
N2598 N 0.34786 0.26409 0.03353 0.0
N2599 N 0.11386 0.26364 0.08998 0.0
C2600 C 0.29034 0.26471 0.04734 0.0
C2601 C 0.17179 0.26329 0.0762 0.0
N2602 N 0.10649 0.26624 0.03432 0.0
N2603 N 0.35546 0.26178 0.08925 0.0
H2604 H 1.02509 0.26375 0.09066 0.0
H2605 H 0.15207 0.2647 0.10079 0.0
H2606 H 0.44363 0.26277 0.08958 0.0
H2607 H 0.32078 0.25915 0.1 0.0
H2608 H 0.14107 0.26893 0.02358 0.0
H2609 H 1.01826 0.2652 0.03403 0.0
H2610 H 0.30914 0.26292 0.02276 0.0
H2611 H 0.43655 0.26373 0.03279 0.0
C2612 C 1.03722 0.26179 0.17166 0.0
C2613 C 0.97864 0.26479 0.18583 0.0
C2614 C 0.16426 0.26645 0.19923 0.0
C2615 C 0.22346 0.26465 0.18489 0.0
N2616 N 0.2149 0.26277 0.15706 0.0
N2617 N 0.98696 0.27183 0.21278 0.0
C2618 C 0.15937 0.2628 0.171 0.0
C2619 C 1.04256 0.26776 0.19947 0.0
N2620 N 0.97597 0.25803 0.15875 0.0
N2621 N 0.22391 0.266 0.21282 0.0
H2622 H 0.89838 0.27195 0.21378 0.0
H2623 H 1.02825 0.27606 0.22252 0.0
H2624 H 0.31168 0.2645 0.21319 0.0
H2625 H 0.18606 0.26558 0.22372 0.0
H2626 H 1.01268 0.25398 0.14858 0.0
H2627 H 0.88712 0.25811 0.15847 0.0
H2628 H 0.17363 0.2631 0.14639 0.0
H2629 H 0.30318 0.26369 0.15611 0.0
C2630 C 0.33464 1.01039 0.20033 0.0
C2631 C 0.39847 1.01201 0.18639 0.0
C2632 C 0.21751 0.0151 0.17187 0.0
C2633 C 0.1538 1.01234 0.18557 0.0
N2634 N 0.15116 1.00593 0.21271 0.0
N2635 N 0.39815 1.01286 0.15846 0.0
C2636 C 0.21244 1.00948 0.19974 0.0
C2637 C 0.33901 1.01364 0.17206 0.0
N2638 N 0.39052 1.01046 0.21424 0.0
N2639 N 0.16192 0.01909 0.15855 0.0
H2640 H 0.48562 1.01114 0.1581 0.0
H2641 H 0.36001 1.01233 0.14757 0.0
H2642 H 0.07333 0.01936 0.1576 0.0
H2643 H 0.20339 0.02315 0.14874 0.0
H2644 H 0.34953 1.01094 0.22493 0.0
H2645 H 0.4789 1.01127 0.21513 0.0
H2646 H 0.18782 1.002 0.22292 0.0
H2647 H 0.0623 1.00606 0.213 0.0
C2648 C 0.93525 1.01351 0.92201 0.0
C2649 C 0.87119 0.01557 0.93584 0.0
C2650 C 0.05177 0.01661 0.95075 0.0
C2651 C 0.11595 0.01571 0.93676 0.0
N2652 N 0.11639 0.01612 0.90881 0.0
N2653 N 0.86805 0.02049 0.96333 0.0
C2654 C 0.05683 0.01481 0.92234 0.0
C2655 C 0.92956 0.01763 0.95018 0.0
N2656 N 0.87991 1.01032 0.90846 0.0
N2657 N 0.10736 0.0157 0.96464 0.0
H2658 H 0.77921 0.02036 0.96362 0.0
H2659 H 0.90447 0.02387 0.97376 0.0
H2660 H 0.19569 0.01469 0.9655 0.0
H2661 H 0.06621 0.01467 0.97528 0.0
H2662 H 0.92146 1.00673 0.89844 0.0
H2663 H 0.79135 1.01027 0.90744 0.0
H2664 H 0.07859 0.01723 0.89795 0.0
H2665 H 0.20402 0.0176 0.90855 0.0
C2666 C 0.91231 0.76191 0.94829 0.0
C2667 C 0.97133 0.76353 0.93393 0.0
C2668 C 0.78599 0.76502 0.92028 0.0
C2669 C 0.72686 0.76334 0.93464 0.0
N2670 N 0.7326 0.76224 0.96251 0.0
N2671 N 0.96599 0.76482 0.90609 0.0
C2672 C 0.78999 0.76217 0.94868 0.0
C2673 C 0.90834 0.76476 0.9199 0.0
N2674 N 0.97381 0.76007 0.96161 0.0
N2675 N 0.72474 0.76695 0.90695 0.0
H2676 H 0.05472 0.76458 0.90537 0.0
H2677 H 0.92744 0.76414 0.89527 0.0
H2678 H 0.63658 0.76595 0.90654 0.0
H2679 H 0.75954 0.77014 0.89637 0.0
H2680 H 0.93931 0.75689 0.97221 0.0
H2681 H 0.06194 0.76118 0.96196 0.0
H2682 H 0.77144 0.76292 0.97331 0.0
H2683 H 0.64395 0.76266 0.96328 0.0
C2684 C 1.04397 0.7532 0.8209 0.0
C2685 C 0.10307 0.76236 0.81004 0.0
C2686 C 0.91871 0.7738 0.80247 0.0
C2687 C 0.85834 0.76347 0.81206 0.0
N2688 N 0.8654 0.74222 0.82939 0.0
N2689 N 0.09294 0.7794 0.78841 0.0
C2690 C 0.92175 0.75278 0.82087 0.0
C2691 C 1.03926 0.77216 0.80031 0.0
N2692 N 0.10432 0.74555 0.83192 0.0
N2693 N 0.86164 0.78533 0.79545 0.0
H2694 H 0.17985 0.7782 0.78617 0.0
H2695 H 0.0498 0.78533 0.77981 0.0
H2696 H 0.7742 0.78692 0.79643 0.0
H2697 H 0.90242 0.79414 0.78981 0.0
H2698 H 0.06672 0.74004 0.84125 0.0
H2699 H 0.19282 0.74591 0.83265 0.0
H2700 H 0.90562 0.73296 0.83437 0.0
H2701 H 0.77721 0.74222 0.83077 0.0
C2702 C 0.79766 0.01764 0.82555 0.0
C2703 C 0.73931 0.01671 0.81109 0.0
C2704 C 0.92481 0.01402 0.79766 0.0
C2705 C 0.98373 0.01534 0.81208 0.0
N2706 N 0.97741 0.01995 0.83956 0.0
N2707 N 0.74452 1.01246 0.78358 0.0
C2708 C 0.92016 0.01746 0.82599 0.0
C2709 C 0.80246 0.01458 0.79719 0.0
N2710 N 0.73529 0.01827 0.83894 0.0
N2711 N 0.98664 1.01237 0.78434 0.0
H2712 H 0.65589 1.01311 0.7828 0.0
H2713 H 0.78209 1.00942 0.77312 0.0
H2714 H 0.0743 1.01067 0.78438 0.0
H2715 H 0.95321 1.01302 0.7732 0.0
H2716 H 0.76988 0.01738 0.85 0.0
H2717 H 0.6465 0.01883 0.83902 0.0
H2718 H 0.93862 0.02323 0.84987 0.0
H2719 H 0.06606 0.01959 0.84036 0.0
C2720 C 0.1121 0.50362 0.00552 0.0
C2721 C 0.06135 0.51543 0.01425 0.0
C2722 C 0.95997 0.52414 0.9907 0.0
C2723 C 1.01027 0.51229 0.98198 0.0
N2724 N 0.14603 0.49195 0.98036 0.0
N2725 N 0.92367 0.53555 0.0159 0.0
C2726 C 0.08913 0.5023 0.98924 0.0
C2727 C 0.98201 0.52536 0.00701 0.0
N2728 N 0.17974 0.49337 0.01298 0.0
N2729 N 0.89385 0.53455 0.98324 0.0
H2730 H 0.93744 0.53684 0.02776 0.0
H2731 H 0.8555 0.54197 0.01192 0.0
H2732 H 0.87412 0.53381 0.97148 0.0
H2733 H 0.86465 0.54446 0.9883 0.0
H2734 H 0.21022 0.48351 0.00796 0.0
H2735 H 0.20029 0.49423 0.0247 0.0
H2736 H 0.2133 0.48536 0.98432 0.0
H2737 H 0.13164 0.49062 0.96852 0.0
C2738 C 0.23827 0.75341 0.98717 0.0
C2739 C 0.30235 0.76535 0.9807 0.0
C2740 C 0.34758 0.77429 0.00708 0.0
C2741 C 0.27418 0.76325 0.01346 0.0
N2742 N 0.13786 0.74346 0.00954 0.0
N2743 N 0.41184 0.78794 0.98434 0.0
C2744 C 0.21616 0.75314 0.00346 0.0
C2745 C 0.35504 0.77603 0.99063 0.0
N2746 N 0.20092 0.7421 0.97777 0.0
N2747 N 0.41386 0.78273 0.01675 0.0
H2748 H 0.42696 0.78898 0.97248 0.0
H2749 H 0.43924 0.79715 0.99077 0.0
H2750 H 0.40904 0.78196 0.02878 0.0
H2751 H 0.47892 0.78972 0.01291 0.0
H2752 H 0.16413 0.73225 0.98187 0.0
H2753 H 0.21543 0.74202 0.96585 0.0
H2754 H 0.08388 0.73689 0.0028 0.0
H2755 H 0.1197 0.74295 0.02137 0.0
C2756 C 0.99195 0.77395 0.25337 0.0
C2757 C 1.04466 0.76316 0.26324 0.0
C2758 C 0.1251 0.75037 0.24024 0.0
C2759 C 0.06725 0.76064 0.23033 0.0
N2760 N 0.94078 0.78178 0.2273 0.0
N2761 N 0.15012 0.7401 0.26612 0.0
C2762 C 0.99984 0.77236 0.23689 0.0
C2763 C 0.10782 0.75107 0.25666 0.0
N2764 N 0.93513 0.78587 0.25982 0.0
N2765 N 0.20045 0.7403 0.23395 0.0
H2766 H 0.14268 0.74059 0.27813 0.0
H2767 H 0.18545 0.73007 0.26215 0.0
H2768 H 0.21621 0.73957 0.22207 0.0
H2769 H 0.25478 0.73354 0.24048 0.0
H2770 H 0.90781 0.79524 0.25363 0.0
H2771 H 0.91837 0.78671 0.27166 0.0
H2772 H 0.87855 0.78933 0.23099 0.0
H2773 H 0.95031 0.78152 0.21534 0.0
C2774 C 0.3584 0.52227 0.23795 0.0
C2775 C 0.26847 0.51321 0.23201 0.0
C2776 C 0.23451 0.50309 0.25826 0.0
C2777 C 0.32439 0.51215 0.26421 0.0
N2778 N 0.4628 0.53161 0.26043 0.0
N2779 N 0.12969 0.4938 0.23579 0.0
C2780 C 0.3843 0.52202 0.2542 0.0
C2781 C 0.20865 0.50334 0.24201 0.0
N2782 N 0.42053 0.53091 0.22795 0.0
N2783 N 0.17162 0.49456 0.26827 0.0
H2784 H 0.10901 0.49375 0.22402 0.0
H2785 H 0.08952 0.48526 0.24189 0.0
H2786 H 0.18917 0.49383 0.28009 0.0
H2787 H 0.09762 0.4889 0.26524 0.0
H2788 H 0.49465 0.53656 0.23096 0.0
H2789 H 0.40195 0.53182 0.21617 0.0
H2790 H 0.50322 0.54012 0.25432 0.0
H2791 H 0.4828 0.53174 0.27222 0.0
C2792 C 0.84265 0.27663 0.99252 0.0
C2793 C 0.80253 0.26505 0.98251 0.0
C2794 C 0.72863 0.25136 0.00523 0.0
C2795 C 0.7745 0.26246 0.0153 0.0
N2796 N 0.88116 0.28521 0.01881 0.0
N2797 N 0.72044 0.24052 0.97937 0.0
C2798 C 0.8325 0.27503 0.00899 0.0
C2799 C 0.74961 0.25214 0.98891 0.0
N2800 N 0.89061 0.2892 0.98623 0.0
N2801 N 0.66071 0.24037 0.01126 0.0
H2802 H 0.73053 0.241 0.96738 0.0
H2803 H 0.69368 0.23007 0.98331 0.0
H2804 H 0.6417 0.23964 0.02305 0.0
H2805 H 0.61474 0.2328 0.00455 0.0
H2806 H 0.90816 0.29893 0.99245 0.0
H2807 H 0.91014 0.29012 0.97448 0.0
H2808 H 0.93597 0.29371 0.01531 0.0
H2809 H 0.87138 0.28468 0.0308 0.0
C2810 C 0.96971 0.27482 0.75543 0.0
C2811 C 1.03493 0.26529 0.76527 0.0
C2812 C 0.12138 0.25326 0.74217 0.0
C2813 C 0.05628 0.26284 0.73234 0.0
N2814 N 0.93347 0.28435 0.72949 0.0
N2815 N 0.16392 0.24444 0.76827 0.0
C2816 C 0.98445 0.27405 0.73897 0.0
C2817 C 0.10861 0.25426 0.75868 0.0
N2818 N 0.88996 0.28421 0.76184 0.0
N2819 N 0.19897 0.24362 0.73565 0.0
H2820 H 0.157 0.24501 0.78027 0.0
H2821 H 0.2108 0.23518 0.76456 0.0
H2822 H 0.21118 0.24272 0.7237 0.0
H2823 H 0.2571 0.23718 0.74188 0.0
H2824 H 0.83017 0.29025 0.75545 0.0
H2825 H 0.87698 0.28513 0.77377 0.0
H2826 H 0.89007 0.29384 0.7334 0.0
H2827 H 0.94226 0.28404 0.71751 0.0
C2828 C 0.89182 0.50863 0.75424 0.0
C2829 C 0.80333 0.51414 0.76401 0.0
C2830 C 0.6915 0.52105 0.74071 0.0
C2831 C 0.78286 0.51626 0.73099 0.0
N2832 N 0.97876 0.50824 0.72871 0.0
N2833 N 0.62317 0.5269 0.76669 0.0
C2834 C 0.88562 0.51091 0.73785 0.0
C2835 C 0.70402 0.52063 0.75724 0.0
N2836 N 0.97928 0.50046 0.76052 0.0
N2837 N 0.59298 0.52622 0.73413 0.0
H2838 H 0.62868 0.52662 0.77872 0.0
H2839 H 0.55454 0.53328 0.76278 0.0
H2840 H 0.58502 0.52827 0.7223 0.0
H2841 H 0.5175 0.52802 0.74019 0.0
H2842 H 1.03913 0.49462 0.75391 0.0
H2843 H 0.98656 0.49835 0.77236 0.0
H2844 H 0.05987 0.50611 0.73311 0.0
H2845 H 0.97724 0.50933 0.7167 0.0
C2846 C 0.12856 1.0046 0.505 0.0
C2847 C 0.07614 0.01604 0.51404 0.0
C2848 C 0.9782 0.0255 0.49055 0.0
C2849 C 1.02524 1.01352 0.48169 0.0
N2850 N 0.13578 0.99061 0.48081 0.0
N2851 N 0.93707 0.03596 0.51602 0.0
C2852 C 0.09789 1.00279 0.48903 0.0
C2853 C 0.99728 0.02612 0.50695 0.0
N2854 N 0.20984 0.99562 0.51163 0.0
N2855 N 0.91601 0.0364 0.48323 0.0
H2856 H 0.94848 0.03679 0.52798 0.0
H2857 H 0.86935 0.04245 0.51199 0.0
H2858 H 0.8968 0.03597 0.47143 0.0
H2859 H 0.89017 0.04636 0.48852 0.0
H2860 H 0.26227 0.98834 0.5054 0.0
H2861 H 0.22997 0.9961 0.52339 0.0
H2862 H 0.17665 0.98141 0.48578 0.0
H2863 H 0.12099 0.98927 0.46899 0.0
C2864 C 0.22804 0.25365 0.48922 0.0
C2865 C 0.29805 0.26494 0.48262 0.0
C2866 C 0.34857 0.27362 0.50895 0.0
C2867 C 0.27145 0.26309 0.51545 0.0
N2868 N 0.12644 0.24437 0.51182 0.0
N2869 N 0.41905 0.28651 0.48606 0.0
C2870 C 0.20794 0.25348 0.50557 0.0
C2871 C 0.35663 0.27516 0.49248 0.0
N2872 N 0.1831 0.24279 0.47988 0.0
N2873 N 0.41685 0.28184 0.51856 0.0
H2874 H 0.43413 0.28736 0.47418 0.0
H2875 H 0.45162 0.29549 0.49238 0.0
H2876 H 0.40944 0.28152 0.53059 0.0
H2877 H 0.48482 0.28833 0.51473 0.0
H2878 H 0.14162 0.23328 0.484 0.0
H2879 H 0.19543 0.24269 0.46793 0.0
H2880 H 0.06839 0.23828 0.50523 0.0
H2881 H 0.11029 0.24384 0.52369 0.0
C2882 C 0.24093 0.0235 0.75801 0.0
C2883 C 0.31138 1.01223 0.76478 0.0
C2884 C 0.34989 1.00188 0.73867 0.0
C2885 C 0.2837 1.01353 0.73184 0.0
N2886 N 0.17045 0.03598 0.7348 0.0
N2887 N 0.44803 0.99224 0.76147 0.0
C2888 C 0.23036 0.02448 0.7415 0.0
C2889 C 0.36978 1.00183 0.75506 0.0
N2890 N 0.18174 0.03308 0.76744 0.0
N2891 N 0.39237 0.99068 0.72948 0.0
H2892 H 0.4658 0.99203 0.77332 0.0
H2893 H 0.50268 0.98544 0.75502 0.0
H2894 H 0.38203 0.99065 0.7175 0.0
H2895 H 0.43046 0.98094 0.73371 0.0
H2896 H 0.11751 0.04029 0.76368 0.0
H2897 H 0.19363 0.03332 0.77937 0.0
H2898 H 0.14199 0.04546 0.74075 0.0
H2899 H 0.15205 0.03635 0.72299 0.0
C2900 C 0.85597 0.77691 0.49053 0.0
C2901 C 0.81086 0.76565 0.48056 0.0
C2902 C 0.73883 0.7519 0.50336 0.0
C2903 C 0.78405 0.76314 0.51334 0.0
N2904 N 0.87096 0.78734 0.51657 0.0
N2905 N 0.72298 0.74152 0.47732 0.0
C2906 C 0.83847 0.77593 0.50693 0.0
C2907 C 0.75614 0.75288 0.48696 0.0
N2908 N 0.92092 0.78812 0.48432 0.0
N2909 N 0.67386 0.74069 0.50958 0.0
H2910 H 0.73116 0.74216 0.46532 0.0
H2911 H 0.69393 0.73112 0.48109 0.0
H2912 H 0.65662 0.73991 0.52142 0.0
H2913 H 0.62887 0.73286 0.50308 0.0
H2914 H 0.96591 0.79593 0.49084 0.0
H2915 H 0.9381 0.78891 0.47249 0.0
H2916 H 0.89981 0.79774 0.51279 0.0
H2917 H 0.86204 0.78674 0.52857 0.0
C2918 C 0.73565 1.00304 0.24017 0.0
C2919 C 0.78721 0.01466 0.23137 0.0
C2920 C 0.88907 0.02334 0.25485 0.0
C2921 C 0.83772 1.01171 0.26367 0.0
N2922 N 0.70069 0.99169 0.26541 0.0
N2923 N 0.92732 0.0343 0.22955 0.0
C2924 C 0.75828 1.00183 0.25647 0.0
C2925 C 0.86757 0.02442 0.23853 0.0
N2926 N 0.66794 0.99283 0.23277 0.0
N2927 N 0.95545 0.0337 0.26225 0.0
H2928 H 0.9139 0.03549 0.21767 0.0
H2929 H 0.99625 0.04053 0.2335 0.0
H2930 H 0.97423 0.03311 0.27404 0.0
H2931 H 0.98548 0.04347 0.25708 0.0
H2932 H 0.63646 0.98312 0.23788 0.0
H2933 H 0.64876 0.99352 0.22099 0.0
H2934 H 0.63298 0.98523 0.2615 0.0
H2935 H 0.71502 0.99043 0.27727 0.0
C2936 C 0.6321 0.50461 0.50463 0.0
C2937 C 0.5756 0.5156 0.51384 0.0
C2938 C 0.46613 0.52388 0.49082 0.0
C2939 C 0.52248 0.51287 0.48162 0.0
N2940 N 0.67126 0.49428 0.47902 0.0
N2941 N 0.42733 0.53426 0.51642 0.0
C2942 C 0.60862 0.50362 0.48836 0.0
C2943 C 0.4897 0.52488 0.50709 0.0
N2944 N 0.70495 0.49469 0.51164 0.0
N2945 N 0.39328 0.53379 0.4838 0.0
H2946 H 0.44302 0.53553 0.52824 0.0
H2947 H 0.35492 0.54006 0.51281 0.0
H2948 H 0.37395 0.53331 0.47202 0.0
H2949 H 0.35802 0.54315 0.48926 0.0
H2950 H 0.74008 0.48533 0.50617 0.0
H2951 H 0.72444 0.49517 0.52342 0.0
H2952 H 0.74386 0.48852 0.48263 0.0
H2953 H 0.65576 0.49304 0.46719 0.0
C2954 C 0.61699 0.75482 0.75667 0.0
C2955 C 0.53705 0.76482 0.76361 0.0
C2956 C 0.4853 0.7743 0.73765 0.0
C2957 C 0.55767 0.7634 0.73066 0.0
N2958 N 0.68674 0.74243 0.73338 0.0
N2959 N 0.38516 0.78291 0.7607 0.0
C2960 C 0.62203 0.75344 0.74016 0.0
C2961 C 0.46836 0.77422 0.75407 0.0
N2962 N 0.69055 0.74692 0.76588 0.0
N2963 N 0.43518 0.78503 0.7286 0.0
H2964 H 0.37161 0.7834 0.77264 0.0
H2965 H 0.32363 0.78872 0.75438 0.0
H2966 H 0.44579 0.78535 0.71662 0.0
H2967 H 0.39121 0.79429 0.73298 0.0
H2968 H 0.76028 0.7409 0.76168 0.0
H2969 H 0.68584 0.7471 0.77793 0.0
H2970 H 0.72366 0.73357 0.73948 0.0
H2971 H 0.69916 0.74169 0.72144 0.0
C2972 C 0.46216 0.27467 0.25574 0.0
C2973 C 0.52544 0.26481 0.26546 0.0
C2974 C 0.60794 0.25266 0.24226 0.0
C2975 C 0.54938 0.26309 0.23257 0.0
N2976 N 0.43441 0.28539 0.23012 0.0
N2977 N 0.66721 0.2454 0.26823 0.0
C2978 C 0.48037 0.27448 0.23935 0.0
C2979 C 0.60047 0.25404 0.25876 0.0
N2980 N 0.38245 0.28402 0.2622 0.0
N2981 N 0.66972 0.24127 0.23564 0.0
H2982 H 0.65907 0.24549 0.28026 0.0
H2983 H 0.73415 0.23869 0.26432 0.0
H2984 H 0.68462 0.24056 0.22374 0.0
H2985 H 0.7023 0.23216 0.24178 0.0
H2986 H 0.32434 0.29032 0.25579 0.0
H2987 H 0.36787 0.28459 0.27412 0.0
H2988 H 0.3936 0.29497 0.23432 0.0
H2989 H 0.44482 0.28542 0.21813 0.0
C2990 C 0.47725 0.02239 0.00762 0.0
C2991 C 0.56356 1.01287 0.01391 0.0
C2992 C 0.59329 1.00154 0.98806 0.0
C2993 C 0.50691 1.01105 0.98176 0.0
N2994 N 0.37677 0.03177 0.98482 0.0
N2995 N 0.69383 0.99218 0.01086 0.0
C2996 C 0.45119 0.02176 0.99139 0.0
C2997 C 0.61891 1.00213 0.0043 0.0
N2998 N 0.41826 0.03181 0.01732 0.0
N2999 N 0.6544 0.9924 0.97834 0.0
H3000 H 0.71552 0.9925 0.02258 0.0
H3001 H 0.72906 0.983 0.0051 0.0
H3002 H 0.63764 0.9915 0.96651 0.0
H3003 H 0.7267 0.9864 0.98163 0.0
H3004 H 0.34657 0.03794 0.01408 0.0
H3005 H 0.43623 0.03281 0.02911 0.0
H3006 H 0.34063 0.04087 0.99061 0.0
H3007 H 0.35605 0.03158 0.97307 0.0
loop_
_geom_bond_atom_site_label_1
_geom_bond_atom_site_label_2
_geom_bond_distance
_geom_bond_site_symmetry_2
_ccdc_geom_bond_type
Nd0 C2 2.836 1_455 S
Nd0 O20 2.500 1_455 S
Nd0 O21 2.492 1_455 S
Nd0 O22 2.487 . S
Nd0 O23 2.682 . S
Nd0 O24 2.410 1_455 S
Nd0 O29 2.414 . S
Nd0 O31 2.424 . S
Nd1 C11 2.836 1_655 S
Nd1 O23 2.414 1_655 S
Nd1 O25 2.424 . S
Nd1 O26 2.500 1_655 S
Nd1 O27 2.492 1_655 S
Nd1 O28 2.487 . S
Nd1 O29 2.682 1_655 S
Nd1 O30 2.410 1_655 S
C2 Nd0 2.836 1_655 S
C2 C3 1.498 . S
C2 O20 1.258 . S
C2 O21 1.239 . S
C3 C2 1.498 . S
C3 C4 1.366 . S
C3 C8 1.407 . S
C4 C3 1.366 . S
C4 C5 1.392 . S
C4 H32 0.930 . S
C5 C4 1.392 . S
C5 C6 1.398 . S
C5 H33 0.929 . S
C6 C5 1.398 . S
C6 C7 1.352 . S
C7 C6 1.352 . S
C7 C8 1.384 . S
C7 H34 0.930 . S
C8 C3 1.407 . S
C8 C7 1.384 . S
C8 H35 0.929 . S
C9 O22 1.241 . S
C9 O23 1.273 . S
C10 O24 1.251 . S
C10 O25 1.268 . S
C11 Nd1 2.836 1_455 S
C11 C12 1.498 . S
C11 O26 1.258 . S
C11 O27 1.239 . S
C12 C11 1.498 . S
C12 C13 1.366 . S
C12 C17 1.407 . S
C13 C12 1.366 . S
C13 C14 1.392 . S
C13 H36 0.930 . S
C14 C13 1.392 . S
C14 C15 1.398 . S
C14 H37 0.929 . S
C15 C14 1.398 . S
C15 C16 1.352 . S
C16 C15 1.352 . S
C16 C17 1.384 . S
C16 H38 0.930 . S
C17 C12 1.407 . S
C17 C16 1.384 . S
C17 H39 0.929 . S
C18 O28 1.241 . S
C18 O29 1.273 1_655 S
C19 O30 1.251 . S
C19 O31 1.268 . S
O20 Nd0 2.500 1_655 S
O20 C2 1.258 . S
O21 Nd0 2.492 1_655 S
O21 C2 1.239 . S
O22 Nd0 2.487 . S
O22 C9 1.241 . S
O23 Nd0 2.682 . S
O23 Nd1 2.414 1_455 S
O23 C9 1.273 . S
O24 Nd0 2.410 1_655 S
O24 C10 1.251 . S
O25 Nd1 2.424 . S
O25 C10 1.268 . S
O26 Nd1 2.500 1_455 S
O26 C11 1.258 . S
O27 Nd1 2.492 1_455 S
O27 C11 1.239 . S
O28 Nd1 2.487 . S
O28 C18 1.241 . S
O29 Nd0 2.414 . S
O29 Nd1 2.682 1_455 S
O29 C18 1.273 1_455 S
O30 Nd1 2.410 1_455 S
O30 C19 1.251 . S
O31 Nd0 2.424 . S
O31 C19 1.268 . S
H32 C4 0.930 . S
H33 C5 0.929 . S
H34 C7 0.930 . S
H35 C8 0.929 . S
H36 C13 0.930 . S
H37 C14 0.929 . S
H38 C16 0.930 . S
H39 C17 0.929 . S
Nd40 C42 2.836 . S
Nd40 O60 2.500 . S
Nd40 O61 2.492 . S
Nd40 O62 2.487 . S
Nd40 O63 2.682 . S
Nd40 O64 2.410 . S
Nd40 O69 2.414 . S
Nd40 O71 2.424 . S
Nd41 C51 2.836 . S
Nd41 O63 2.414 . S
Nd41 O65 2.424 . S
Nd41 O66 2.500 . S
Nd41 O67 2.492 . S
Nd41 O68 2.487 . S
Nd41 O69 2.682 . S
Nd41 O70 2.410 . S
C42 Nd40 2.836 . S
C42 C43 1.498 . S
C42 O60 1.258 . S
C42 O61 1.239 . S
C43 C42 1.498 . S
C43 C44 1.366 . S
C43 C48 1.407 . S
C44 C43 1.366 . S
C44 C45 1.392 . S
C44 H72 0.930 . S
C45 C44 1.392 . S
C45 C46 1.398 . S
C45 H73 0.929 . S
C46 C45 1.398 . S
C46 C47 1.352 . S
C47 C46 1.352 . S
C47 C48 1.384 . S
C47 H74 0.930 . S
C48 C43 1.407 . S
C48 C47 1.384 . S
C48 H75 0.929 . S
C49 O62 1.241 . S
C49 O63 1.273 . S
C50 O64 1.251 . S
C50 O65 1.268 . S
C51 Nd41 2.836 . S
C51 C52 1.498 . S
C51 O66 1.258 . S
C51 O67 1.239 . S
C52 C51 1.498 . S
C52 C53 1.366 . S
C52 C57 1.407 . S
C53 C52 1.366 . S
C53 C54 1.392 1_455 S
C53 H76 0.930 . S
C54 C53 1.392 1_655 S
C54 C55 1.398 . S
C54 H77 0.929 . S
C55 C54 1.398 . S
C55 C56 1.352 1_655 S
C56 C55 1.352 1_455 S
C56 C57 1.384 . S
C56 H78 0.930 . S
C57 C52 1.407 . S
C57 C56 1.384 . S
C57 H79 0.929 . S
C58 O68 1.241 . S
C58 O69 1.273 . S
C59 O70 1.251 . S
C59 O71 1.268 . S
O60 Nd40 2.500 . S
O60 C42 1.258 . S
O61 Nd40 2.492 . S
O61 C42 1.239 . S
O62 Nd40 2.487 . S
O62 C49 1.241 . S
O63 Nd40 2.682 . S
O63 Nd41 2.414 . S
O63 C49 1.273 . S
O64 Nd40 2.410 . S
O64 C50 1.251 . S
O65 Nd41 2.424 . S
O65 C50 1.268 . S
O66 Nd41 2.500 . S
O66 C51 1.258 . S
O67 Nd41 2.492 . S
O67 C51 1.239 . S
O68 Nd41 2.487 . S
O68 C58 1.241 . S
O69 Nd40 2.414 . S
O69 Nd41 2.682 . S
O69 C58 1.273 . S
O70 Nd41 2.410 . S
O70 C59 1.251 . S
O71 Nd40 2.424 . S
O71 C59 1.268 . S
H72 C44 0.930 . S
H73 C45 0.929 . S
H74 C47 0.930 . S
H75 C48 0.929 . S
H76 C53 0.930 . S
H77 C54 0.929 . S
H78 C56 0.930 . S
H79 C57 0.929 . S
Nd80 C82 2.836 1_455 S
Nd80 O100 2.500 1_455 S
Nd80 O101 2.492 1_455 S
Nd80 O102 2.487 . S
Nd80 O103 2.682 . S
Nd80 O104 2.410 1_455 S
Nd80 O109 2.414 . S
Nd80 O111 2.424 . S
Nd81 C91 2.836 1_655 S
Nd81 O103 2.414 1_655 S
Nd81 O105 2.424 . S
Nd81 O106 2.500 1_655 S
Nd81 O107 2.492 1_655 S
Nd81 O108 2.487 . S
Nd81 O109 2.682 1_655 S
Nd81 O110 2.410 1_655 S
C82 Nd80 2.836 1_655 S
C82 C83 1.498 . S
C82 O100 1.258 . S
C82 O101 1.239 . S
C83 C82 1.498 . S
C83 C84 1.366 . S
C83 C88 1.407 . S
C84 C83 1.366 . S
C84 C85 1.392 . S
C84 H112 0.930 . S
C85 C84 1.392 . S
C85 C86 1.398 . S
C85 H113 0.929 . S
C86 C85 1.398 . S
C86 C87 1.352 . S
C87 C86 1.352 . S
C87 C88 1.384 . S
C87 H114 0.930 . S
C88 C83 1.407 . S
C88 C87 1.384 . S
C88 H115 0.929 . S
C89 O102 1.241 . S
C89 O103 1.273 . S
C90 O104 1.251 . S
C90 O105 1.268 . S
C91 Nd81 2.836 1_455 S
C91 C92 1.498 . S
C91 O106 1.258 . S
C91 O107 1.239 . S
C92 C91 1.498 . S
C92 C93 1.366 . S
C92 C97 1.407 . S
C93 C92 1.366 . S
C93 C94 1.392 . S
C93 H116 0.930 . S
C94 C93 1.392 . S
C94 C95 1.398 . S
C94 H117 0.929 . S
C95 C94 1.398 . S
C95 C96 1.352 . S
C96 C95 1.352 . S
C96 C97 1.384 . S
C96 H118 0.930 . S
C97 C92 1.407 . S
C97 C96 1.384 . S
C97 H119 0.929 . S
C98 O108 1.241 . S
C98 O109 1.273 1_655 S
C99 O110 1.251 . S
C99 O111 1.268 . S
O100 Nd80 2.500 1_655 S
O100 C82 1.258 . S
O101 Nd80 2.492 1_655 S
O101 C82 1.239 . S
O102 Nd80 2.487 . S
O102 C89 1.241 . S
O103 Nd80 2.682 . S
O103 Nd81 2.414 1_455 S
O103 C89 1.273 . S
O104 Nd80 2.410 1_655 S
O104 C90 1.251 . S
O105 Nd81 2.424 . S
O105 C90 1.268 . S
O106 Nd81 2.500 1_455 S
O106 C91 1.258 . S
O107 Nd81 2.492 1_455 S
O107 C91 1.239 . S
O108 Nd81 2.487 . S
O108 C98 1.241 . S
O109 Nd80 2.414 . S
O109 Nd81 2.682 1_455 S
O109 C98 1.273 1_455 S
O110 Nd81 2.410 1_455 S
O110 C99 1.251 . S
O111 Nd80 2.424 . S
O111 C99 1.268 . S
H112 C84 0.930 . S
H113 C85 0.929 . S
H114 C87 0.930 . S
H115 C88 0.929 . S
H116 C93 0.930 . S
H117 C94 0.929 . S
H118 C96 0.930 . S
H119 C97 0.929 . S
Nd120 C122 2.836 . S
Nd120 O140 2.500 . S
Nd120 O141 2.492 . S
Nd120 O142 2.487 . S
Nd120 O143 2.682 . S
Nd120 O144 2.410 . S
Nd120 O149 2.414 . S
Nd120 O151 2.424 . S
Nd121 C131 2.836 . S
Nd121 O143 2.414 . S
Nd121 O145 2.424 . S
Nd121 O146 2.500 . S
Nd121 O147 2.492 . S
Nd121 O148 2.487 . S
Nd121 O149 2.682 . S
Nd121 O150 2.410 . S
C122 Nd120 2.836 . S
C122 C123 1.498 . S
C122 O140 1.258 . S
C122 O141 1.239 . S
C123 C122 1.498 . S
C123 C124 1.366 . S
C123 C128 1.407 . S
C124 C123 1.366 . S
C124 C125 1.392 . S
C124 H152 0.930 . S
C125 C124 1.392 . S
C125 C126 1.398 . S
C125 H153 0.929 . S
C126 C125 1.398 . S
C126 C127 1.352 . S
C127 C126 1.352 . S
C127 C128 1.384 . S
C127 H154 0.930 . S
C128 C123 1.407 . S
C128 C127 1.384 . S
C128 H155 0.929 . S
C129 O142 1.241 . S
C129 O143 1.273 . S
C130 O144 1.251 . S
C130 O145 1.268 . S
C131 Nd121 2.836 . S
C131 C132 1.498 . S
C131 O146 1.258 . S
C131 O147 1.239 . S
C132 C131 1.498 . S
C132 C133 1.366 . S
C132 C137 1.407 . S
C133 C132 1.366 . S
C133 C134 1.392 1_455 S
C133 H156 0.930 . S
C134 C133 1.392 1_655 S
C134 C135 1.398 . S
C134 H157 0.929 . S
C135 C134 1.398 . S
C135 C136 1.352 1_655 S
C136 C135 1.352 1_455 S
C136 C137 1.384 . S
C136 H158 0.930 . S
C137 C132 1.407 . S
C137 C136 1.384 . S
C137 H159 0.929 . S
C138 O148 1.241 . S
C138 O149 1.273 . S
C139 O150 1.251 . S
C139 O151 1.268 . S
O140 Nd120 2.500 . S
O140 C122 1.258 . S
O141 Nd120 2.492 . S
O141 C122 1.239 . S
O142 Nd120 2.487 . S
O142 C129 1.241 . S
O143 Nd120 2.682 . S
O143 Nd121 2.414 . S
O143 C129 1.273 . S
O144 Nd120 2.410 . S
O144 C130 1.251 . S
O145 Nd121 2.424 . S
O145 C130 1.268 . S
O146 Nd121 2.500 . S
O146 C131 1.258 . S
O147 Nd121 2.492 . S
O147 C131 1.239 . S
O148 Nd121 2.487 . S
O148 C138 1.241 . S
O149 Nd120 2.414 . S
O149 Nd121 2.682 . S
O149 C138 1.273 . S
O150 Nd121 2.410 . S
O150 C139 1.251 . S
O151 Nd120 2.424 . S
O151 C139 1.268 . S
H152 C124 0.930 . S
H153 C125 0.929 . S
H154 C127 0.930 . S
H155 C128 0.929 . S
H156 C133 0.930 . S
H157 C134 0.929 . S
H158 C136 0.930 . S
H159 C137 0.929 . S
Nd160 C162 2.836 1_455 S
Nd160 O180 2.500 1_455 S
Nd160 O181 2.492 1_455 S
Nd160 O182 2.487 . S
Nd160 O183 2.682 1_455 S
Nd160 O184 2.410 1_455 S
Nd160 O189 2.414 1_455 S
Nd160 O191 2.424 . S
Nd161 C171 2.836 1_655 S
Nd161 O183 2.414 . S
Nd161 O185 2.424 . S
Nd161 O186 2.500 1_655 S
Nd161 O187 2.492 1_655 S
Nd161 O188 2.487 . S
Nd161 O189 2.682 . S
Nd161 O190 2.410 1_655 S
C162 Nd160 2.836 1_655 S
C162 C163 1.498 . S
C162 O180 1.258 . S
C162 O181 1.239 . S
C163 C162 1.498 . S
C163 C164 1.366 . S
C163 C168 1.407 . S
C164 C163 1.366 . S
C164 C165 1.392 . S
C164 H192 0.930 . S
C165 C164 1.392 . S
C165 C166 1.398 . S
C165 H193 0.929 . S
C166 C165 1.398 . S
C166 C167 1.352 . S
C167 C166 1.352 . S
C167 C168 1.384 . S
C167 H194 0.930 . S
C168 C163 1.407 . S
C168 C167 1.384 . S
C168 H195 0.929 . S
C169 O182 1.241 . S
C169 O183 1.273 1_455 S
C170 O184 1.251 . S
C170 O185 1.268 . S
C171 Nd161 2.836 1_455 S
C171 C172 1.498 . S
C171 O186 1.258 . S
C171 O187 1.239 . S
C172 C171 1.498 . S
C172 C173 1.366 . S
C172 C177 1.407 . S
C173 C172 1.366 . S
C173 C174 1.392 . S
C173 H196 0.930 . S
C174 C173 1.392 . S
C174 C175 1.398 . S
C174 H197 0.929 . S
C175 C174 1.398 . S
C175 C176 1.352 . S
C176 C175 1.352 . S
C176 C177 1.384 . S
C176 H198 0.930 . S
C177 C172 1.407 . S
C177 C176 1.384 . S
C177 H199 0.929 . S
C178 O188 1.241 . S
C178 O189 1.273 . S
C179 O190 1.251 . S
C179 O191 1.268 . S
O180 Nd160 2.500 1_655 S
O180 C162 1.258 . S
O181 Nd160 2.492 1_655 S
O181 C162 1.239 . S
O182 Nd160 2.487 . S
O182 C169 1.241 . S
O183 Nd160 2.682 1_655 S
O183 Nd161 2.414 . S
O183 C169 1.273 1_655 S
O184 Nd160 2.410 1_655 S
O184 C170 1.251 . S
O185 Nd161 2.424 . S
O185 C170 1.268 . S
O186 Nd161 2.500 1_455 S
O186 C171 1.258 . S
O187 Nd161 2.492 1_455 S
O187 C171 1.239 . S
O188 Nd161 2.487 . S
O188 C178 1.241 . S
O189 Nd160 2.414 1_655 S
O189 Nd161 2.682 . S
O189 C178 1.273 . S
O190 Nd161 2.410 1_455 S
O190 C179 1.251 . S
O191 Nd160 2.424 . S
O191 C179 1.268 . S
H192 C164 0.930 . S
H193 C165 0.929 . S
H194 C167 0.930 . S
H195 C168 0.929 . S
H196 C173 0.930 . S
H197 C174 0.929 . S
H198 C176 0.930 . S
H199 C177 0.929 . S
Nd200 C202 2.836 . S
Nd200 O220 2.500 . S
Nd200 O221 2.492 . S
Nd200 O222 2.487 . S
Nd200 O223 2.682 . S
Nd200 O224 2.410 . S
Nd200 O229 2.414 . S
Nd200 O231 2.424 . S
Nd201 C211 2.836 . S
Nd201 O223 2.414 . S
Nd201 O225 2.424 . S
Nd201 O226 2.500 . S
Nd201 O227 2.492 . S
Nd201 O228 2.487 . S
Nd201 O229 2.682 . S
Nd201 O230 2.410 . S
C202 Nd200 2.836 . S
C202 C203 1.498 . S
C202 O220 1.258 . S
C202 O221 1.239 . S
C203 C202 1.498 . S
C203 C204 1.366 . S
C203 C208 1.407 . S
C204 C203 1.366 . S
C204 C205 1.392 1_655 S
C204 H232 0.930 . S
C205 C204 1.392 1_455 S
C205 C206 1.398 . S
C205 H233 0.929 . S
C206 C205 1.398 . S
C206 C207 1.352 1_455 S
C207 C206 1.352 1_655 S
C207 C208 1.384 . S
C207 H234 0.930 . S
C208 C203 1.407 . S
C208 C207 1.384 . S
C208 H235 0.929 . S
C209 O222 1.241 . S
C209 O223 1.273 . S
C210 O224 1.251 . S
C210 O225 1.268 . S
C211 Nd201 2.836 . S
C211 C212 1.498 . S
C211 O226 1.258 . S
C211 O227 1.239 . S
C212 C211 1.498 . S
C212 C213 1.366 . S
C212 C217 1.407 . S
C213 C212 1.366 . S
C213 C214 1.392 . S
C213 H236 0.930 . S
C214 C213 1.392 . S
C214 C215 1.398 . S
C214 H237 0.929 . S
C215 C214 1.398 . S
C215 C216 1.352 . S
C216 C215 1.352 . S
C216 C217 1.384 . S
C216 H238 0.930 . S
C217 C212 1.407 . S
C217 C216 1.384 . S
C217 H239 0.929 . S
C218 O228 1.241 . S
C218 O229 1.273 . S
C219 O230 1.251 . S
C219 O231 1.268 . S
O220 Nd200 2.500 . S
O220 C202 1.258 . S
O221 Nd200 2.492 . S
O221 C202 1.239 . S
O222 Nd200 2.487 . S
O222 C209 1.241 . S
O223 Nd200 2.682 . S
O223 Nd201 2.414 . S
O223 C209 1.273 . S
O224 Nd200 2.410 . S
O224 C210 1.251 . S
O225 Nd201 2.424 . S
O225 C210 1.268 . S
O226 Nd201 2.500 . S
O226 C211 1.258 . S
O227 Nd201 2.492 . S
O227 C211 1.239 . S
O228 Nd201 2.487 . S
O228 C218 1.241 . S
O229 Nd200 2.414 . S
O229 Nd201 2.682 . S
O229 C218 1.273 . S
O230 Nd201 2.410 . S
O230 C219 1.251 . S
O231 Nd200 2.424 . S
O231 C219 1.268 . S
H232 C204 0.930 . S
H233 C205 0.929 . S
H234 C207 0.930 . S
H235 C208 0.929 . S
H236 C213 0.930 . S
H237 C214 0.929 . S
H238 C216 0.930 . S
H239 C217 0.929 . S
Nd240 C242 2.836 1_455 S
Nd240 O260 2.500 1_455 S
Nd240 O261 2.492 1_455 S
Nd240 O262 2.487 . S
Nd240 O263 2.682 1_455 S
Nd240 O264 2.410 1_455 S
Nd240 O269 2.414 1_455 S
Nd240 O271 2.424 . S
Nd241 C251 2.836 1_655 S
Nd241 O263 2.414 . S
Nd241 O265 2.424 . S
Nd241 O266 2.500 1_655 S
Nd241 O267 2.492 1_655 S
Nd241 O268 2.487 . S
Nd241 O269 2.682 . S
Nd241 O270 2.410 1_655 S
C242 Nd240 2.836 1_655 S
C242 C243 1.498 . S
C242 O260 1.258 . S
C242 O261 1.239 . S
C243 C242 1.498 . S
C243 C244 1.366 . S
C243 C248 1.407 . S
C244 C243 1.366 . S
C244 C245 1.392 . S
C244 H272 0.930 . S
C245 C244 1.392 . S
C245 C246 1.398 . S
C245 H273 0.929 . S
C246 C245 1.398 . S
C246 C247 1.352 . S
C247 C246 1.352 . S
C247 C248 1.384 . S
C247 H274 0.930 . S
C248 C243 1.407 . S
C248 C247 1.384 . S
C248 H275 0.929 . S
C249 O262 1.241 . S
C249 O263 1.273 1_455 S
C250 O264 1.251 . S
C250 O265 1.268 . S
C251 Nd241 2.836 1_455 S
C251 C252 1.498 . S
C251 O266 1.258 . S
C251 O267 1.239 . S
C252 C251 1.498 . S
C252 C253 1.366 . S
C252 C257 1.407 . S
C253 C252 1.366 . S
C253 C254 1.392 . S
C253 H276 0.930 . S
C254 C253 1.392 . S
C254 C255 1.398 . S
C254 H277 0.929 . S
C255 C254 1.398 . S
C255 C256 1.352 . S
C256 C255 1.352 . S
C256 C257 1.384 . S
C256 H278 0.930 . S
C257 C252 1.407 . S
C257 C256 1.384 . S
C257 H279 0.929 . S
C258 O268 1.241 . S
C258 O269 1.273 . S
C259 O270 1.251 . S
C259 O271 1.268 . S
O260 Nd240 2.500 1_655 S
O260 C242 1.258 . S
O261 Nd240 2.492 1_655 S
O261 C242 1.239 . S
O262 Nd240 2.487 . S
O262 C249 1.241 . S
O263 Nd240 2.682 1_655 S
O263 Nd241 2.414 . S
O263 C249 1.273 1_655 S
O264 Nd240 2.410 1_655 S
O264 C250 1.251 . S
O265 Nd241 2.424 . S
O265 C250 1.268 . S
O266 Nd241 2.500 1_455 S
O266 C251 1.258 . S
O267 Nd241 2.492 1_455 S
O267 C251 1.239 . S
O268 Nd241 2.487 . S
O268 C258 1.241 . S
O269 Nd240 2.414 1_655 S
O269 Nd241 2.682 . S
O269 C258 1.273 . S
O270 Nd241 2.410 1_455 S
O270 C259 1.251 . S
O271 Nd240 2.424 . S
O271 C259 1.268 . S
H272 C244 0.930 . S
H273 C245 0.929 . S
H274 C247 0.930 . S
H275 C248 0.929 . S
H276 C253 0.930 . S
H277 C254 0.929 . S
H278 C256 0.930 . S
H279 C257 0.929 . S
Nd280 C282 2.836 . S
Nd280 O300 2.500 . S
Nd280 O301 2.492 . S
Nd280 O302 2.487 . S
Nd280 O303 2.682 . S
Nd280 O304 2.410 . S
Nd280 O309 2.414 . S
Nd280 O311 2.424 . S
Nd281 C291 2.836 . S
Nd281 O303 2.414 . S
Nd281 O305 2.424 . S
Nd281 O306 2.500 . S
Nd281 O307 2.492 . S
Nd281 O308 2.487 . S
Nd281 O309 2.682 . S
Nd281 O310 2.410 . S
C282 Nd280 2.836 . S
C282 C283 1.498 . S
C282 O300 1.258 . S
C282 O301 1.239 . S
C283 C282 1.498 . S
C283 C284 1.366 . S
C283 C288 1.407 . S
C284 C283 1.366 . S
C284 C285 1.392 1_655 S
C284 H312 0.930 . S
C285 C284 1.392 1_455 S
C285 C286 1.398 . S
C285 H313 0.929 . S
C286 C285 1.398 . S
C286 C287 1.352 1_455 S
C287 C286 1.352 1_655 S
C287 C288 1.384 . S
C287 H314 0.930 . S
C288 C283 1.407 . S
C288 C287 1.384 . S
C288 H315 0.929 . S
C289 O302 1.241 . S
C289 O303 1.273 . S
C290 O304 1.251 . S
C290 O305 1.268 . S
C291 Nd281 2.836 . S
C291 C292 1.498 . S
C291 O306 1.258 . S
C291 O307 1.239 . S
C292 C291 1.498 . S
C292 C293 1.366 . S
C292 C297 1.407 . S
C293 C292 1.366 . S
C293 C294 1.392 . S
C293 H316 0.930 . S
C294 C293 1.392 . S
C294 C295 1.398 . S
C294 H317 0.929 . S
C295 C294 1.398 . S
C295 C296 1.352 . S
C296 C295 1.352 . S
C296 C297 1.384 . S
C296 H318 0.930 . S
C297 C292 1.407 . S
C297 C296 1.384 . S
C297 H319 0.929 . S
C298 O308 1.241 . S
C298 O309 1.273 . S
C299 O310 1.251 . S
C299 O311 1.268 . S
O300 Nd280 2.500 . S
O300 C282 1.258 . S
O301 Nd280 2.492 . S
O301 C282 1.239 . S
O302 Nd280 2.487 . S
O302 C289 1.241 . S
O303 Nd280 2.682 . S
O303 Nd281 2.414 . S
O303 C289 1.273 . S
O304 Nd280 2.410 . S
O304 C290 1.251 . S
O305 Nd281 2.424 . S
O305 C290 1.268 . S
O306 Nd281 2.500 . S
O306 C291 1.258 . S
O307 Nd281 2.492 . S
O307 C291 1.239 . S
O308 Nd281 2.487 . S
O308 C298 1.241 . S
O309 Nd280 2.414 . S
O309 Nd281 2.682 . S
O309 C298 1.273 . S
O310 Nd281 2.410 . S
O310 C299 1.251 . S
O311 Nd280 2.424 . S
O311 C299 1.268 . S
H312 C284 0.930 . S
H313 C285 0.929 . S
H314 C287 0.930 . S
H315 C288 0.929 . S
H316 C293 0.930 . S
H317 C294 0.929 . S
H318 C296 0.930 . S
H319 C297 0.929 . S
Nd320 C322 2.836 1_455 S
Nd320 O340 2.500 1_455 S
Nd320 O341 2.492 1_455 S
Nd320 O342 2.487 . S
Nd320 O343 2.682 1_565 S
Nd320 O344 2.410 1_455 S
Nd320 O349 2.414 . S
Nd320 O351 2.424 . S
Nd321 C331 2.836 1_655 S
Nd321 O343 2.414 1_655 S
Nd321 O345 2.424 . S
Nd321 O346 2.500 1_655 S
Nd321 O347 2.492 1_655 S
Nd321 O348 2.487 . S
Nd321 O349 2.682 1_645 S
Nd321 O350 2.410 1_655 S
C322 Nd320 2.836 1_655 S
C322 C323 1.498 . S
C322 O340 1.258 . S
C322 O341 1.239 . S
C323 C322 1.498 . S
C323 C324 1.366 . S
C323 C328 1.407 . S
C324 C323 1.366 . S
C324 C325 1.392 . S
C324 H352 0.930 . S
C325 C324 1.392 . S
C325 C326 1.398 . S
C325 H353 0.929 . S
C326 C325 1.398 . S
C326 C327 1.352 . S
C327 C326 1.352 . S
C327 C328 1.384 . S
C327 H354 0.930 . S
C328 C323 1.407 . S
C328 C327 1.384 . S
C328 H355 0.929 . S
C329 O342 1.241 . S
C329 O343 1.273 1_565 S
C330 O344 1.251 . S
C330 O345 1.268 1_565 S
C331 Nd321 2.836 1_455 S
C331 C332 1.498 . S
C331 O346 1.258 . S
C331 O347 1.239 . S
C332 C331 1.498 . S
C332 C333 1.366 . S
C332 C337 1.407 . S
C333 C332 1.366 . S
C333 C334 1.392 . S
C333 H356 0.930 . S
C334 C333 1.392 . S
C334 C335 1.398 . S
C334 H357 0.929 . S
C335 C334 1.398 . S
C335 C336 1.352 . S
C336 C335 1.352 . S
C336 C337 1.384 . S
C336 H358 0.930 . S
C337 C332 1.407 . S
C337 C336 1.384 . S
C337 H359 0.929 . S
C338 O348 1.241 . S
C338 O349 1.273 1_645 S
C339 O350 1.251 . S
C339 O351 1.268 1_545 S
O340 Nd320 2.500 1_655 S
O340 C322 1.258 . S
O341 Nd320 2.492 1_655 S
O341 C322 1.239 . S
O342 Nd320 2.487 . S
O342 C329 1.241 . S
O343 Nd320 2.682 1_545 S
O343 Nd321 2.414 1_455 S
O343 C329 1.273 1_545 S
O344 Nd320 2.410 1_655 S
O344 C330 1.251 . S
O345 Nd321 2.424 . S
O345 C330 1.268 1_545 S
O346 Nd321 2.500 1_455 S
O346 C331 1.258 . S
O347 Nd321 2.492 1_455 S
O347 C331 1.239 . S
O348 Nd321 2.487 . S
O348 C338 1.241 . S
O349 Nd320 2.414 . S
O349 Nd321 2.682 1_465 S
O349 C338 1.273 1_465 S
O350 Nd321 2.410 1_455 S
O350 C339 1.251 . S
O351 Nd320 2.424 . S
O351 C339 1.268 1_565 S
H352 C324 0.930 . S
H353 C325 0.929 . S
H354 C327 0.930 . S
H355 C328 0.929 . S
H356 C333 0.930 . S
H357 C334 0.929 . S
H358 C336 0.930 . S
H359 C337 0.929 . S
Nd360 C362 2.836 . S
Nd360 O380 2.500 . S
Nd360 O381 2.492 . S
Nd360 O382 2.487 . S
Nd360 O383 2.682 . S
Nd360 O384 2.410 . S
Nd360 O389 2.414 . S
Nd360 O391 2.424 . S
Nd361 C371 2.836 . S
Nd361 O383 2.414 . S
Nd361 O385 2.424 . S
Nd361 O386 2.500 . S
Nd361 O387 2.492 . S
Nd361 O388 2.487 . S
Nd361 O389 2.682 . S
Nd361 O390 2.410 . S
C362 Nd360 2.836 . S
C362 C363 1.498 . S
C362 O380 1.258 . S
C362 O381 1.239 . S
C363 C362 1.498 . S
C363 C364 1.366 . S
C363 C368 1.407 . S
C364 C363 1.366 . S
C364 C365 1.392 . S
C364 H392 0.930 . S
C365 C364 1.392 . S
C365 C366 1.398 . S
C365 H393 0.929 . S
C366 C365 1.398 . S
C366 C367 1.352 . S
C367 C366 1.352 . S
C367 C368 1.384 . S
C367 H394 0.930 . S
C368 C363 1.407 . S
C368 C367 1.384 . S
C368 H395 0.929 . S
C369 O382 1.241 . S
C369 O383 1.273 . S
C370 O384 1.251 . S
C370 O385 1.268 . S
C371 Nd361 2.836 . S
C371 C372 1.498 . S
C371 O386 1.258 . S
C371 O387 1.239 . S
C372 C371 1.498 . S
C372 C373 1.366 . S
C372 C377 1.407 . S
C373 C372 1.366 . S
C373 C374 1.392 1_455 S
C373 H396 0.930 . S
C374 C373 1.392 1_655 S
C374 C375 1.398 . S
C374 H397 0.929 . S
C375 C374 1.398 . S
C375 C376 1.352 1_655 S
C376 C375 1.352 1_455 S
C376 C377 1.384 . S
C376 H398 0.930 . S
C377 C372 1.407 . S
C377 C376 1.384 . S
C377 H399 0.929 . S
C378 O388 1.241 . S
C378 O389 1.273 . S
C379 O390 1.251 . S
C379 O391 1.268 . S
O380 Nd360 2.500 . S
O380 C362 1.258 . S
O381 Nd360 2.492 . S
O381 C362 1.239 . S
O382 Nd360 2.487 . S
O382 C369 1.241 . S
O383 Nd360 2.682 . S
O383 Nd361 2.414 . S
O383 C369 1.273 . S
O384 Nd360 2.410 . S
O384 C370 1.251 . S
O385 Nd361 2.424 . S
O385 C370 1.268 . S
O386 Nd361 2.500 . S
O386 C371 1.258 . S
O387 Nd361 2.492 . S
O387 C371 1.239 . S
O388 Nd361 2.487 . S
O388 C378 1.241 . S
O389 Nd360 2.414 . S
O389 Nd361 2.682 . S
O389 C378 1.273 . S
O390 Nd361 2.410 . S
O390 C379 1.251 . S
O391 Nd360 2.424 . S
O391 C379 1.268 . S
H392 C364 0.930 . S
H393 C365 0.929 . S
H394 C367 0.930 . S
H395 C368 0.929 . S
H396 C373 0.930 . S
H397 C374 0.929 . S
H398 C376 0.930 . S
H399 C377 0.929 . S
Nd400 C402 2.836 1_455 S
Nd400 O420 2.500 1_455 S
Nd400 O421 2.492 1_455 S
Nd400 O422 2.487 . S
Nd400 O423 2.682 . S
Nd400 O424 2.410 1_455 S
Nd400 O429 2.414 . S
Nd400 O431 2.424 . S
Nd401 C411 2.836 1_655 S
Nd401 O423 2.414 1_655 S
Nd401 O425 2.424 . S
Nd401 O426 2.500 1_655 S
Nd401 O427 2.492 1_655 S
Nd401 O428 2.487 . S
Nd401 O429 2.682 1_655 S
Nd401 O430 2.410 1_655 S
C402 Nd400 2.836 1_655 S
C402 C403 1.498 . S
C402 O420 1.258 . S
C402 O421 1.239 . S
C403 C402 1.498 . S
C403 C404 1.366 . S
C403 C408 1.407 . S
C404 C403 1.366 . S
C404 C405 1.392 . S
C404 H432 0.930 . S
C405 C404 1.392 . S
C405 C406 1.398 . S
C405 H433 0.929 . S
C406 C405 1.398 . S
C406 C407 1.352 . S
C407 C406 1.352 . S
C407 C408 1.384 . S
C407 H434 0.930 . S
C408 C403 1.407 . S
C408 C407 1.384 . S
C408 H435 0.929 . S
C409 O422 1.241 . S
C409 O423 1.273 . S
C410 O424 1.251 . S
C410 O425 1.268 . S
C411 Nd401 2.836 1_455 S
C411 C412 1.498 . S
C411 O426 1.258 . S
C411 O427 1.239 . S
C412 C411 1.498 . S
C412 C413 1.366 . S
C412 C417 1.407 . S
C413 C412 1.366 . S
C413 C414 1.392 . S
C413 H436 0.930 . S
C414 C413 1.392 . S
C414 C415 1.398 . S
C414 H437 0.929 . S
C415 C414 1.398 . S
C415 C416 1.352 . S
C416 C415 1.352 . S
C416 C417 1.384 . S
C416 H438 0.930 . S
C417 C412 1.407 . S
C417 C416 1.384 . S
C417 H439 0.929 . S
C418 O428 1.241 . S
C418 O429 1.273 1_655 S
C419 O430 1.251 . S
C419 O431 1.268 . S
O420 Nd400 2.500 1_655 S
O420 C402 1.258 . S
O421 Nd400 2.492 1_655 S
O421 C402 1.239 . S
O422 Nd400 2.487 . S
O422 C409 1.241 . S
O423 Nd400 2.682 . S
O423 Nd401 2.414 1_455 S
O423 C409 1.273 . S
O424 Nd400 2.410 1_655 S
O424 C410 1.251 . S
O425 Nd401 2.424 . S
O425 C410 1.268 . S
O426 Nd401 2.500 1_455 S
O426 C411 1.258 . S
O427 Nd401 2.492 1_455 S
O427 C411 1.239 . S
O428 Nd401 2.487 . S
O428 C418 1.241 . S
O429 Nd400 2.414 . S
O429 Nd401 2.682 1_455 S
O429 C418 1.273 1_455 S
O430 Nd401 2.410 1_455 S
O430 C419 1.251 . S
O431 Nd400 2.424 . S
O431 C419 1.268 . S
H432 C404 0.930 . S
H433 C405 0.929 . S
H434 C407 0.930 . S
H435 C408 0.929 . S
H436 C413 0.930 . S
H437 C414 0.929 . S
H438 C416 0.930 . S
H439 C417 0.929 . S
Nd440 C442 2.836 . S
Nd440 O460 2.500 . S
Nd440 O461 2.492 . S
Nd440 O462 2.487 . S
Nd440 O463 2.682 1_565 S
Nd440 O464 2.410 . S
Nd440 O469 2.414 . S
Nd440 O471 2.424 . S
Nd441 C451 2.836 . S
Nd441 O463 2.414 . S
Nd441 O465 2.424 . S
Nd441 O466 2.500 . S
Nd441 O467 2.492 . S
Nd441 O468 2.487 . S
Nd441 O469 2.682 1_545 S
Nd441 O470 2.410 . S
C442 Nd440 2.836 . S
C442 C443 1.498 . S
C442 O460 1.258 . S
C442 O461 1.239 . S
C443 C442 1.498 . S
C443 C444 1.366 . S
C443 C448 1.407 . S
C444 C443 1.366 . S
C444 C445 1.392 . S
C444 H472 0.930 . S
C445 C444 1.392 . S
C445 C446 1.398 . S
C445 H473 0.929 . S
C446 C445 1.398 . S
C446 C447 1.352 . S
C447 C446 1.352 . S
C447 C448 1.384 . S
C447 H474 0.930 . S
C448 C443 1.407 . S
C448 C447 1.384 . S
C448 H475 0.929 . S
C449 O462 1.241 . S
C449 O463 1.273 1_565 S
C450 O464 1.251 . S
C450 O465 1.268 1_565 S
C451 Nd441 2.836 . S
C451 C452 1.498 . S
C451 O466 1.258 . S
C451 O467 1.239 . S
C452 C451 1.498 . S
C452 C453 1.366 . S
C452 C457 1.407 . S
C453 C452 1.366 . S
C453 C454 1.392 1_455 S
C453 H476 0.930 . S
C454 C453 1.392 1_655 S
C454 C455 1.398 . S
C454 H477 0.929 . S
C455 C454 1.398 . S
C455 C456 1.352 1_655 S
C456 C455 1.352 1_455 S
C456 C457 1.384 . S
C456 H478 0.930 . S
C457 C452 1.407 . S
C457 C456 1.384 . S
C457 H479 0.929 . S
C458 O468 1.241 . S
C458 O469 1.273 1_545 S
C459 O470 1.251 . S
C459 O471 1.268 1_545 S
O460 Nd440 2.500 . S
O460 C442 1.258 . S
O461 Nd440 2.492 . S
O461 C442 1.239 . S
O462 Nd440 2.487 . S
O462 C449 1.241 . S
O463 Nd440 2.682 1_545 S
O463 Nd441 2.414 . S
O463 C449 1.273 1_545 S
O464 Nd440 2.410 . S
O464 C450 1.251 . S
O465 Nd441 2.424 . S
O465 C450 1.268 1_545 S
O466 Nd441 2.500 . S
O466 C451 1.258 . S
O467 Nd441 2.492 . S
O467 C451 1.239 . S
O468 Nd441 2.487 . S
O468 C458 1.241 . S
O469 Nd440 2.414 . S
O469 Nd441 2.682 1_565 S
O469 C458 1.273 1_565 S
O470 Nd441 2.410 . S
O470 C459 1.251 . S
O471 Nd440 2.424 . S
O471 C459 1.268 1_565 S
H472 C444 0.930 . S
H473 C445 0.929 . S
H474 C447 0.930 . S
H475 C448 0.929 . S
H476 C453 0.930 . S
H477 C454 0.929 . S
H478 C456 0.930 . S
H479 C457 0.929 . S
Nd480 C482 2.836 1_455 S
Nd480 O500 2.500 1_455 S
Nd480 O501 2.492 1_455 S
Nd480 O502 2.487 . S
Nd480 O503 2.682 1_465 S
Nd480 O504 2.410 1_455 S
Nd480 O509 2.414 1_455 S
Nd480 O511 2.424 . S
Nd481 C491 2.836 1_655 S
Nd481 O503 2.414 . S
Nd481 O505 2.424 . S
Nd481 O506 2.500 1_655 S
Nd481 O507 2.492 1_655 S
Nd481 O508 2.487 . S
Nd481 O509 2.682 1_545 S
Nd481 O510 2.410 1_655 S
C482 Nd480 2.836 1_655 S
C482 C483 1.498 . S
C482 O500 1.258 . S
C482 O501 1.239 . S
C483 C482 1.498 . S
C483 C484 1.366 . S
C483 C488 1.407 . S
C484 C483 1.366 . S
C484 C485 1.392 . S
C484 H512 0.930 . S
C485 C484 1.392 . S
C485 C486 1.398 . S
C485 H513 0.929 . S
C486 C485 1.398 . S
C486 C487 1.352 . S
C487 C486 1.352 . S
C487 C488 1.384 . S
C487 H514 0.930 . S
C488 C483 1.407 . S
C488 C487 1.384 . S
C488 H515 0.929 . S
C489 O502 1.241 . S
C489 O503 1.273 1_465 S
C490 O504 1.251 . S
C490 O505 1.268 1_565 S
C491 Nd481 2.836 1_455 S
C491 C492 1.498 . S
C491 O506 1.258 . S
C491 O507 1.239 . S
C492 C491 1.498 . S
C492 C493 1.366 . S
C492 C497 1.407 . S
C493 C492 1.366 . S
C493 C494 1.392 . S
C493 H516 0.930 . S
C494 C493 1.392 . S
C494 C495 1.398 . S
C494 H517 0.929 . S
C495 C494 1.398 . S
C495 C496 1.352 . S
C496 C495 1.352 . S
C496 C497 1.384 . S
C496 H518 0.930 . S
C497 C492 1.407 . S
C497 C496 1.384 . S
C497 H519 0.929 . S
C498 O508 1.241 . S
C498 O509 1.273 1_545 S
C499 O510 1.251 . S
C499 O511 1.268 1_545 S
O500 Nd480 2.500 1_655 S
O500 C482 1.258 . S
O501 Nd480 2.492 1_655 S
O501 C482 1.239 . S
O502 Nd480 2.487 . S
O502 C489 1.241 . S
O503 Nd480 2.682 1_645 S
O503 Nd481 2.414 . S
O503 C489 1.273 1_645 S
O504 Nd480 2.410 1_655 S
O504 C490 1.251 . S
O505 Nd481 2.424 . S
O505 C490 1.268 1_545 S
O506 Nd481 2.500 1_455 S
O506 C491 1.258 . S
O507 Nd481 2.492 1_455 S
O507 C491 1.239 . S
O508 Nd481 2.487 . S
O508 C498 1.241 . S
O509 Nd480 2.414 1_655 S
O509 Nd481 2.682 1_565 S
O509 C498 1.273 1_565 S
O510 Nd481 2.410 1_455 S
O510 C499 1.251 . S
O511 Nd480 2.424 . S
O511 C499 1.268 1_565 S
H512 C484 0.930 . S
H513 C485 0.929 . S
H514 C487 0.930 . S
H515 C488 0.929 . S
H516 C493 0.930 . S
H517 C494 0.929 . S
H518 C496 0.930 . S
H519 C497 0.929 . S
Nd520 C522 2.836 . S
Nd520 O540 2.500 . S
Nd520 O541 2.492 . S
Nd520 O542 2.487 . S
Nd520 O543 2.682 . S
Nd520 O544 2.410 . S
Nd520 O549 2.414 . S
Nd520 O551 2.424 . S
Nd521 C531 2.836 . S
Nd521 O543 2.414 . S
Nd521 O545 2.424 . S
Nd521 O546 2.500 . S
Nd521 O547 2.492 . S
Nd521 O548 2.487 . S
Nd521 O549 2.682 . S
Nd521 O550 2.410 . S
C522 Nd520 2.836 . S
C522 C523 1.498 . S
C522 O540 1.258 . S
C522 O541 1.239 . S
C523 C522 1.498 . S
C523 C524 1.366 . S
C523 C528 1.407 . S
C524 C523 1.366 . S
C524 C525 1.392 1_655 S
C524 H552 0.930 . S
C525 C524 1.392 1_455 S
C525 C526 1.398 . S
C525 H553 0.929 . S
C526 C525 1.398 . S
C526 C527 1.352 1_455 S
C527 C526 1.352 1_655 S
C527 C528 1.384 . S
C527 H554 0.930 . S
C528 C523 1.407 . S
C528 C527 1.384 . S
C528 H555 0.929 . S
C529 O542 1.241 . S
C529 O543 1.273 . S
C530 O544 1.251 . S
C530 O545 1.268 . S
C531 Nd521 2.836 . S
C531 C532 1.498 . S
C531 O546 1.258 . S
C531 O547 1.239 . S
C532 C531 1.498 . S
C532 C533 1.366 . S
C532 C537 1.407 . S
C533 C532 1.366 . S
C533 C534 1.392 . S
C533 H556 0.930 . S
C534 C533 1.392 . S
C534 C535 1.398 . S
C534 H557 0.929 . S
C535 C534 1.398 . S
C535 C536 1.352 . S
C536 C535 1.352 . S
C536 C537 1.384 . S
C536 H558 0.930 . S
C537 C532 1.407 . S
C537 C536 1.384 . S
C537 H559 0.929 . S
C538 O548 1.241 . S
C538 O549 1.273 . S
C539 O550 1.251 . S
C539 O551 1.268 . S
O540 Nd520 2.500 . S
O540 C522 1.258 . S
O541 Nd520 2.492 . S
O541 C522 1.239 . S
O542 Nd520 2.487 . S
O542 C529 1.241 . S
O543 Nd520 2.682 . S
O543 Nd521 2.414 . S
O543 C529 1.273 . S
O544 Nd520 2.410 . S
O544 C530 1.251 . S
O545 Nd521 2.424 . S
O545 C530 1.268 . S
O546 Nd521 2.500 . S
O546 C531 1.258 . S
O547 Nd521 2.492 . S
O547 C531 1.239 . S
O548 Nd521 2.487 . S
O548 C538 1.241 . S
O549 Nd520 2.414 . S
O549 Nd521 2.682 . S
O549 C538 1.273 . S
O550 Nd521 2.410 . S
O550 C539 1.251 . S
O551 Nd520 2.424 . S
O551 C539 1.268 . S
H552 C524 0.930 . S
H553 C525 0.929 . S
H554 C527 0.930 . S
H555 C528 0.929 . S
H556 C533 0.930 . S
H557 C534 0.929 . S
H558 C536 0.930 . S
H559 C537 0.929 . S
Nd560 C562 2.836 1_455 S
Nd560 O580 2.500 1_455 S
Nd560 O581 2.492 1_455 S
Nd560 O582 2.487 . S
Nd560 O583 2.682 1_455 S
Nd560 O584 2.410 1_455 S
Nd560 O589 2.414 1_455 S
Nd560 O591 2.424 . S
Nd561 C571 2.836 1_655 S
Nd561 O583 2.414 . S
Nd561 O585 2.424 . S
Nd561 O586 2.500 1_655 S
Nd561 O587 2.492 1_655 S
Nd561 O588 2.487 . S
Nd561 O589 2.682 . S
Nd561 O590 2.410 1_655 S
C562 Nd560 2.836 1_655 S
C562 C563 1.498 . S
C562 O580 1.258 . S
C562 O581 1.239 . S
C563 C562 1.498 . S
C563 C564 1.366 . S
C563 C568 1.407 . S
C564 C563 1.366 . S
C564 C565 1.392 . S
C564 H592 0.930 . S
C565 C564 1.392 . S
C565 C566 1.398 . S
C565 H593 0.929 . S
C566 C565 1.398 . S
C566 C567 1.352 . S
C567 C566 1.352 . S
C567 C568 1.384 . S
C567 H594 0.930 . S
C568 C563 1.407 . S
C568 C567 1.384 . S
C568 H595 0.929 . S
C569 O582 1.241 . S
C569 O583 1.273 1_455 S
C570 O584 1.251 . S
C570 O585 1.268 . S
C571 Nd561 2.836 1_455 S
C571 C572 1.498 . S
C571 O586 1.258 . S
C571 O587 1.239 . S
C572 C571 1.498 . S
C572 C573 1.366 . S
C572 C577 1.407 . S
C573 C572 1.366 . S
C573 C574 1.392 . S
C573 H596 0.930 . S
C574 C573 1.392 . S
C574 C575 1.398 . S
C574 H597 0.929 . S
C575 C574 1.398 . S
C575 C576 1.352 . S
C576 C575 1.352 . S
C576 C577 1.384 . S
C576 H598 0.930 . S
C577 C572 1.407 . S
C577 C576 1.384 . S
C577 H599 0.929 . S
C578 O588 1.241 . S
C578 O589 1.273 . S
C579 O590 1.251 . S
C579 O591 1.268 . S
O580 Nd560 2.500 1_655 S
O580 C562 1.258 . S
O581 Nd560 2.492 1_655 S
O581 C562 1.239 . S
O582 Nd560 2.487 . S
O582 C569 1.241 . S
O583 Nd560 2.682 1_655 S
O583 Nd561 2.414 . S
O583 C569 1.273 1_655 S
O584 Nd560 2.410 1_655 S
O584 C570 1.251 . S
O585 Nd561 2.424 . S
O585 C570 1.268 . S
O586 Nd561 2.500 1_455 S
O586 C571 1.258 . S
O587 Nd561 2.492 1_455 S
O587 C571 1.239 . S
O588 Nd561 2.487 . S
O588 C578 1.241 . S
O589 Nd560 2.414 1_655 S
O589 Nd561 2.682 . S
O589 C578 1.273 . S
O590 Nd561 2.410 1_455 S
O590 C579 1.251 . S
O591 Nd560 2.424 . S
O591 C579 1.268 . S
H592 C564 0.930 . S
H593 C565 0.929 . S
H594 C567 0.930 . S
H595 C568 0.929 . S
H596 C573 0.930 . S
H597 C574 0.929 . S
H598 C576 0.930 . S
H599 C577 0.929 . S
Nd600 C602 2.836 . S
Nd600 O620 2.500 . S
Nd600 O621 2.492 . S
Nd600 O622 2.487 . S
Nd600 O623 2.682 1_565 S
Nd600 O624 2.410 . S
Nd600 O629 2.414 . S
Nd600 O631 2.424 . S
Nd601 C611 2.836 . S
Nd601 O623 2.414 . S
Nd601 O625 2.424 . S
Nd601 O626 2.500 . S
Nd601 O627 2.492 . S
Nd601 O628 2.487 . S
Nd601 O629 2.682 1_545 S
Nd601 O630 2.410 . S
C602 Nd600 2.836 . S
C602 C603 1.498 . S
C602 O620 1.258 . S
C602 O621 1.239 . S
C603 C602 1.498 . S
C603 C604 1.366 . S
C603 C608 1.407 . S
C604 C603 1.366 . S
C604 C605 1.392 1_655 S
C604 H632 0.930 . S
C605 C604 1.392 1_455 S
C605 C606 1.398 . S
C605 H633 0.929 . S
C606 C605 1.398 . S
C606 C607 1.352 1_455 S
C607 C606 1.352 1_655 S
C607 C608 1.384 . S
C607 H634 0.930 . S
C608 C603 1.407 . S
C608 C607 1.384 . S
C608 H635 0.929 . S
C609 O622 1.241 . S
C609 O623 1.273 1_565 S
C610 O624 1.251 . S
C610 O625 1.268 1_565 S
C611 Nd601 2.836 . S
C611 C612 1.498 . S
C611 O626 1.258 . S
C611 O627 1.239 . S
C612 C611 1.498 . S
C612 C613 1.366 . S
C612 C617 1.407 . S
C613 C612 1.366 . S
C613 C614 1.392 . S
C613 H636 0.930 . S
C614 C613 1.392 . S
C614 C615 1.398 . S
C614 H637 0.929 . S
C615 C614 1.398 . S
C615 C616 1.352 . S
C616 C615 1.352 . S
C616 C617 1.384 . S
C616 H638 0.930 . S
C617 C612 1.407 . S
C617 C616 1.384 . S
C617 H639 0.929 . S
C618 O628 1.241 . S
C618 O629 1.273 1_545 S
C619 O630 1.251 . S
C619 O631 1.268 1_545 S
O620 Nd600 2.500 . S
O620 C602 1.258 . S
O621 Nd600 2.492 . S
O621 C602 1.239 . S
O622 Nd600 2.487 . S
O622 C609 1.241 . S
O623 Nd600 2.682 1_545 S
O623 Nd601 2.414 . S
O623 C609 1.273 1_545 S
O624 Nd600 2.410 . S
O624 C610 1.251 . S
O625 Nd601 2.424 . S
O625 C610 1.268 1_545 S
O626 Nd601 2.500 . S
O626 C611 1.258 . S
O627 Nd601 2.492 . S
O627 C611 1.239 . S
O628 Nd601 2.487 . S
O628 C618 1.241 . S
O629 Nd600 2.414 . S
O629 Nd601 2.682 1_565 S
O629 C618 1.273 1_565 S
O630 Nd601 2.410 . S
O630 C619 1.251 . S
O631 Nd600 2.424 . S
O631 C619 1.268 1_565 S
H632 C604 0.930 . S
H633 C605 0.929 . S
H634 C607 0.930 . S
H635 C608 0.929 . S
H636 C613 0.930 . S
H637 C614 0.929 . S
H638 C616 0.930 . S
H639 C617 0.929 . S
Nd640 C642 2.836 . S
Nd640 O660 2.500 . S
Nd640 O661 2.492 . S
Nd640 O662 2.487 . S
Nd640 O663 2.682 . S
Nd640 O664 2.410 . S
Nd640 O669 2.414 . S
Nd640 O671 2.424 . S
Nd641 C651 2.836 . S
Nd641 O663 2.414 . S
Nd641 O665 2.424 . S
Nd641 O666 2.500 . S
Nd641 O667 2.492 . S
Nd641 O668 2.487 . S
Nd641 O669 2.682 . S
Nd641 O670 2.410 . S
C642 Nd640 2.836 . S
C642 C643 1.498 . S
C642 O660 1.258 . S
C642 O661 1.239 . S
C643 C642 1.498 . S
C643 C644 1.366 . S
C643 C648 1.407 . S
C644 C643 1.366 . S
C644 C645 1.392 . S
C644 H672 0.930 . S
C645 C644 1.392 . S
C645 C646 1.398 . S
C645 H673 0.929 . S
C646 C645 1.398 . S
C646 C647 1.352 . S
C647 C646 1.352 . S
C647 C648 1.384 . S
C647 H674 0.930 . S
C648 C643 1.407 . S
C648 C647 1.384 . S
C648 H675 0.929 . S
C649 O662 1.241 . S
C649 O663 1.273 . S
C650 O664 1.251 . S
C650 O665 1.268 . S
C651 Nd641 2.836 . S
C651 C652 1.498 . S
C651 O666 1.258 . S
C651 O667 1.239 . S
C652 C651 1.498 . S
C652 C653 1.366 . S
C652 C657 1.407 . S
C653 C652 1.366 . S
C653 C654 1.392 . S
C653 H676 0.930 . S
C654 C653 1.392 . S
C654 C655 1.398 . S
C654 H677 0.929 . S
C655 C654 1.398 . S
C655 C656 1.352 . S
C656 C655 1.352 . S
C656 C657 1.384 . S
C656 H678 0.930 . S
C657 C652 1.407 . S
C657 C656 1.384 . S
C657 H679 0.929 . S
C658 O668 1.241 . S
C658 O669 1.273 . S
C659 O670 1.251 . S
C659 O671 1.268 . S
O660 Nd640 2.500 . S
O660 C642 1.258 . S
O661 Nd640 2.492 . S
O661 C642 1.239 . S
O662 Nd640 2.487 . S
O662 C649 1.241 . S
O663 Nd640 2.682 . S
O663 Nd641 2.414 . S
O663 C649 1.273 . S
O664 Nd640 2.410 . S
O664 C650 1.251 . S
O665 Nd641 2.424 . S
O665 C650 1.268 . S
O666 Nd641 2.500 . S
O666 C651 1.258 . S
O667 Nd641 2.492 . S
O667 C651 1.239 . S
O668 Nd641 2.487 . S
O668 C658 1.241 . S
O669 Nd640 2.414 . S
O669 Nd641 2.682 . S
O669 C658 1.273 . S
O670 Nd641 2.410 . S
O670 C659 1.251 . S
O671 Nd640 2.424 . S
O671 C659 1.268 . S
H672 C644 0.930 . S
H673 C645 0.929 . S
H674 C647 0.930 . S
H675 C648 0.929 . S
H676 C653 0.930 . S
H677 C654 0.929 . S
H678 C656 0.930 . S
H679 C657 0.929 . S
Nd680 C682 2.836 . S
Nd680 O700 2.500 . S
Nd680 O701 2.492 . S
Nd680 O702 2.487 . S
Nd680 O703 2.682 . S
Nd680 O704 2.410 . S
Nd680 O709 2.414 . S
Nd680 O711 2.424 . S
Nd681 C691 2.836 . S
Nd681 O703 2.414 . S
Nd681 O705 2.424 . S
Nd681 O706 2.500 . S
Nd681 O707 2.492 . S
Nd681 O708 2.487 . S
Nd681 O709 2.682 . S
Nd681 O710 2.410 . S
C682 Nd680 2.836 . S
C682 C683 1.498 . S
C682 O700 1.258 . S
C682 O701 1.239 . S
C683 C682 1.498 . S
C683 C684 1.366 . S
C683 C688 1.407 . S
C684 C683 1.366 . S
C684 C685 1.392 . S
C684 H712 0.930 . S
C685 C684 1.392 . S
C685 C686 1.398 . S
C685 H713 0.929 1_655 S
C686 C685 1.398 . S
C686 C687 1.352 . S
C687 C686 1.352 . S
C687 C688 1.384 . S
C687 H714 0.930 . S
C688 C683 1.407 . S
C688 C687 1.384 . S
C688 H715 0.929 . S
C689 O702 1.241 . S
C689 O703 1.273 . S
C690 O704 1.251 . S
C690 O705 1.268 . S
C691 Nd681 2.836 . S
C691 C692 1.498 . S
C691 O706 1.258 . S
C691 O707 1.239 . S
C692 C691 1.498 . S
C692 C693 1.366 . S
C692 C697 1.407 . S
C693 C692 1.366 . S
C693 C694 1.392 . S
C693 H716 0.930 . S
C694 C693 1.392 . S
C694 C695 1.398 . S
C694 H717 0.929 . S
C695 C694 1.398 . S
C695 C696 1.352 . S
C696 C695 1.352 . S
C696 C697 1.384 . S
C696 H718 0.930 . S
C697 C692 1.407 . S
C697 C696 1.384 . S
C697 H719 0.929 . S
C698 O708 1.241 . S
C698 O709 1.273 . S
C699 O710 1.251 . S
C699 O711 1.268 . S
O700 Nd680 2.500 . S
O700 C682 1.258 . S
O701 Nd680 2.492 . S
O701 C682 1.239 . S
O702 Nd680 2.487 . S
O702 C689 1.241 . S
O703 Nd680 2.682 . S
O703 Nd681 2.414 . S
O703 C689 1.273 . S
O704 Nd680 2.410 . S
O704 C690 1.251 . S
O705 Nd681 2.424 . S
O705 C690 1.268 . S
O706 Nd681 2.500 . S
O706 C691 1.258 . S
O707 Nd681 2.492 . S
O707 C691 1.239 . S
O708 Nd681 2.487 . S
O708 C698 1.241 . S
O709 Nd680 2.414 . S
O709 Nd681 2.682 . S
O709 C698 1.273 . S
O710 Nd681 2.410 . S
O710 C699 1.251 . S
O711 Nd680 2.424 . S
O711 C699 1.268 . S
H712 C684 0.930 . S
H713 C685 0.929 1_455 S
H714 C687 0.930 . S
H715 C688 0.929 . S
H716 C693 0.930 . S
H717 C694 0.929 . S
H718 C696 0.930 . S
H719 C697 0.929 . S
Nd720 C722 2.836 . S
Nd720 O740 2.500 . S
Nd720 O741 2.492 . S
Nd720 O742 2.487 . S
Nd720 O743 2.682 . S
Nd720 O744 2.410 . S
Nd720 O749 2.414 . S
Nd720 O751 2.424 . S
Nd721 C731 2.836 . S
Nd721 O743 2.414 . S
Nd721 O745 2.424 . S
Nd721 O746 2.500 . S
Nd721 O747 2.492 . S
Nd721 O748 2.487 . S
Nd721 O749 2.682 . S
Nd721 O750 2.410 . S
C722 Nd720 2.836 . S
C722 C723 1.498 . S
C722 O740 1.258 . S
C722 O741 1.239 . S
C723 C722 1.498 . S
C723 C724 1.366 . S
C723 C728 1.407 . S
C724 C723 1.366 . S
C724 C725 1.392 . S
C724 H752 0.930 . S
C725 C724 1.392 . S
C725 C726 1.398 . S
C725 H753 0.929 . S
C726 C725 1.398 . S
C726 C727 1.352 . S
C727 C726 1.352 . S
C727 C728 1.384 . S
C727 H754 0.930 . S
C728 C723 1.407 . S
C728 C727 1.384 . S
C728 H755 0.929 . S
C729 O742 1.241 . S
C729 O743 1.273 . S
C730 O744 1.251 . S
C730 O745 1.268 . S
C731 Nd721 2.836 . S
C731 C732 1.498 . S
C731 O746 1.258 . S
C731 O747 1.239 . S
C732 C731 1.498 . S
C732 C733 1.366 . S
C732 C737 1.407 . S
C733 C732 1.366 . S
C733 C734 1.392 . S
C733 H756 0.930 . S
C734 C733 1.392 . S
C734 C735 1.398 . S
C734 H757 0.929 . S
C735 C734 1.398 . S
C735 C736 1.352 . S
C736 C735 1.352 . S
C736 C737 1.384 . S
C736 H758 0.930 . S
C737 C732 1.407 . S
C737 C736 1.384 . S
C737 H759 0.929 . S
C738 O748 1.241 . S
C738 O749 1.273 . S
C739 O750 1.251 . S
C739 O751 1.268 . S
O740 Nd720 2.500 . S
O740 C722 1.258 . S
O741 Nd720 2.492 . S
O741 C722 1.239 . S
O742 Nd720 2.487 . S
O742 C729 1.241 . S
O743 Nd720 2.682 . S
O743 Nd721 2.414 . S
O743 C729 1.273 . S
O744 Nd720 2.410 . S
O744 C730 1.251 . S
O745 Nd721 2.424 . S
O745 C730 1.268 . S
O746 Nd721 2.500 . S
O746 C731 1.258 . S
O747 Nd721 2.492 . S
O747 C731 1.239 . S
O748 Nd721 2.487 . S
O748 C738 1.241 . S
O749 Nd720 2.414 . S
O749 Nd721 2.682 . S
O749 C738 1.273 . S
O750 Nd721 2.410 . S
O750 C739 1.251 . S
O751 Nd720 2.424 . S
O751 C739 1.268 . S
H752 C724 0.930 . S
H753 C725 0.929 . S
H754 C727 0.930 . S
H755 C728 0.929 . S
H756 C733 0.930 . S
H757 C734 0.929 . S
H758 C736 0.930 . S
H759 C737 0.929 . S
Nd760 C762 2.836 . S
Nd760 O780 2.500 . S
Nd760 O781 2.492 . S
Nd760 O782 2.487 . S
Nd760 O783 2.682 . S
Nd760 O784 2.410 . S
Nd760 O789 2.414 . S
Nd760 O791 2.424 . S
Nd761 C771 2.836 . S
Nd761 O783 2.414 . S
Nd761 O785 2.424 . S
Nd761 O786 2.500 . S
Nd761 O787 2.492 . S
Nd761 O788 2.487 . S
Nd761 O789 2.682 . S
Nd761 O790 2.410 . S
C762 Nd760 2.836 . S
C762 C763 1.498 . S
C762 O780 1.258 . S
C762 O781 1.239 . S
C763 C762 1.498 . S
C763 C764 1.366 . S
C763 C768 1.407 . S
C764 C763 1.366 . S
C764 C765 1.392 . S
C764 H792 0.930 . S
C765 C764 1.392 . S
C765 C766 1.398 . S
C765 H793 0.929 1_655 S
C766 C765 1.398 . S
C766 C767 1.352 . S
C767 C766 1.352 . S
C767 C768 1.384 . S
C767 H794 0.930 . S
C768 C763 1.407 . S
C768 C767 1.384 . S
C768 H795 0.929 . S
C769 O782 1.241 . S
C769 O783 1.273 . S
C770 O784 1.251 . S
C770 O785 1.268 . S
C771 Nd761 2.836 . S
C771 C772 1.498 . S
C771 O786 1.258 . S
C771 O787 1.239 . S
C772 C771 1.498 . S
C772 C773 1.366 . S
C772 C777 1.407 . S
C773 C772 1.366 . S
C773 C774 1.392 . S
C773 H796 0.930 . S
C774 C773 1.392 . S
C774 C775 1.398 . S
C774 H797 0.929 . S
C775 C774 1.398 . S
C775 C776 1.352 . S
C776 C775 1.352 . S
C776 C777 1.384 . S
C776 H798 0.930 . S
C777 C772 1.407 . S
C777 C776 1.384 . S
C777 H799 0.929 . S
C778 O788 1.241 . S
C778 O789 1.273 . S
C779 O790 1.251 . S
C779 O791 1.268 . S
O780 Nd760 2.500 . S
O780 C762 1.258 . S
O781 Nd760 2.492 . S
O781 C762 1.239 . S
O782 Nd760 2.487 . S
O782 C769 1.241 . S
O783 Nd760 2.682 . S
O783 Nd761 2.414 . S
O783 C769 1.273 . S
O784 Nd760 2.410 . S
O784 C770 1.251 . S
O785 Nd761 2.424 . S
O785 C770 1.268 . S
O786 Nd761 2.500 . S
O786 C771 1.258 . S
O787 Nd761 2.492 . S
O787 C771 1.239 . S
O788 Nd761 2.487 . S
O788 C778 1.241 . S
O789 Nd760 2.414 . S
O789 Nd761 2.682 . S
O789 C778 1.273 . S
O790 Nd761 2.410 . S
O790 C779 1.251 . S
O791 Nd760 2.424 . S
O791 C779 1.268 . S
H792 C764 0.930 . S
H793 C765 0.929 1_455 S
H794 C767 0.930 . S
H795 C768 0.929 . S
H796 C773 0.930 . S
H797 C774 0.929 . S
H798 C776 0.930 . S
H799 C777 0.929 . S
Nd800 C802 2.836 . S
Nd800 O820 2.500 . S
Nd800 O821 2.492 . S
Nd800 O822 2.487 . S
Nd800 O823 2.682 . S
Nd800 O824 2.410 . S
Nd800 O829 2.414 . S
Nd800 O831 2.424 . S
Nd801 C811 2.836 . S
Nd801 O823 2.414 . S
Nd801 O825 2.424 . S
Nd801 O826 2.500 . S
Nd801 O827 2.492 . S
Nd801 O828 2.487 . S
Nd801 O829 2.682 . S
Nd801 O830 2.410 . S
C802 Nd800 2.836 . S
C802 C803 1.498 . S
C802 O820 1.258 . S
C802 O821 1.239 . S
C803 C802 1.498 . S
C803 C804 1.366 . S
C803 C808 1.407 . S
C804 C803 1.366 . S
C804 C805 1.392 . S
C804 H832 0.930 . S
C805 C804 1.392 . S
C805 C806 1.398 . S
C805 H833 0.929 . S
C806 C805 1.398 . S
C806 C807 1.352 . S
C807 C806 1.352 . S
C807 C808 1.384 . S
C807 H834 0.930 . S
C808 C803 1.407 . S
C808 C807 1.384 . S
C808 H835 0.929 . S
C809 O822 1.241 . S
C809 O823 1.273 . S
C810 O824 1.251 . S
C810 O825 1.268 . S
C811 Nd801 2.836 . S
C811 C812 1.498 . S
C811 O826 1.258 . S
C811 O827 1.239 . S
C812 C811 1.498 . S
C812 C813 1.366 . S
C812 C817 1.407 . S
C813 C812 1.366 . S
C813 C814 1.392 . S
C813 H836 0.930 . S
C814 C813 1.392 . S
C814 C815 1.398 . S
C814 H837 0.929 . S
C815 C814 1.398 . S
C815 C816 1.352 . S
C816 C815 1.352 . S
C816 C817 1.384 . S
C816 H838 0.930 . S
C817 C812 1.407 . S
C817 C816 1.384 . S
C817 H839 0.929 . S
C818 O828 1.241 . S
C818 O829 1.273 . S
C819 O830 1.251 . S
C819 O831 1.268 . S
O820 Nd800 2.500 . S
O820 C802 1.258 . S
O821 Nd800 2.492 . S
O821 C802 1.239 . S
O822 Nd800 2.487 . S
O822 C809 1.241 . S
O823 Nd800 2.682 . S
O823 Nd801 2.414 . S
O823 C809 1.273 . S
O824 Nd800 2.410 . S
O824 C810 1.251 . S
O825 Nd801 2.424 . S
O825 C810 1.268 . S
O826 Nd801 2.500 . S
O826 C811 1.258 . S
O827 Nd801 2.492 . S
O827 C811 1.239 . S
O828 Nd801 2.487 . S
O828 C818 1.241 . S
O829 Nd800 2.414 . S
O829 Nd801 2.682 . S
O829 C818 1.273 . S
O830 Nd801 2.410 . S
O830 C819 1.251 . S
O831 Nd800 2.424 . S
O831 C819 1.268 . S
H832 C804 0.930 . S
H833 C805 0.929 . S
H834 C807 0.930 . S
H835 C808 0.929 . S
H836 C813 0.930 . S
H837 C814 0.929 . S
H838 C816 0.930 . S
H839 C817 0.929 . S
Nd840 C842 2.836 . S
Nd840 O860 2.500 . S
Nd840 O861 2.492 . S
Nd840 O862 2.487 . S
Nd840 O863 2.682 . S
Nd840 O864 2.410 . S
Nd840 O869 2.414 . S
Nd840 O871 2.424 . S
Nd841 C851 2.836 . S
Nd841 O863 2.414 . S
Nd841 O865 2.424 . S
Nd841 O866 2.500 . S
Nd841 O867 2.492 . S
Nd841 O868 2.487 . S
Nd841 O869 2.682 . S
Nd841 O870 2.410 . S
C842 Nd840 2.836 . S
C842 C843 1.498 . S
C842 O860 1.258 . S
C842 O861 1.239 . S
C843 C842 1.498 . S
C843 C844 1.366 . S
C843 C848 1.407 . S
C844 C843 1.366 . S
C844 C845 1.392 . S
C844 H872 0.930 . S
C845 C844 1.392 . S
C845 C846 1.398 . S
C845 H873 0.929 . S
C846 C845 1.398 . S
C846 C847 1.352 . S
C847 C846 1.352 . S
C847 C848 1.384 . S
C847 H874 0.930 . S
C848 C843 1.407 . S
C848 C847 1.384 . S
C848 H875 0.929 . S
C849 O862 1.241 . S
C849 O863 1.273 . S
C850 O864 1.251 . S
C850 O865 1.268 . S
C851 Nd841 2.836 . S
C851 C852 1.498 . S
C851 O866 1.258 . S
C851 O867 1.239 . S
C852 C851 1.498 . S
C852 C853 1.366 . S
C852 C857 1.407 . S
C853 C852 1.366 . S
C853 C854 1.392 . S
C853 H876 0.930 . S
C854 C853 1.392 . S
C854 C855 1.398 . S
C854 H877 0.929 1_455 S
C855 C854 1.398 . S
C855 C856 1.352 . S
C856 C855 1.352 . S
C856 C857 1.384 . S
C856 H878 0.930 . S
C857 C852 1.407 . S
C857 C856 1.384 . S
C857 H879 0.929 . S
C858 O868 1.241 . S
C858 O869 1.273 . S
C859 O870 1.251 . S
C859 O871 1.268 . S
O860 Nd840 2.500 . S
O860 C842 1.258 . S
O861 Nd840 2.492 . S
O861 C842 1.239 . S
O862 Nd840 2.487 . S
O862 C849 1.241 . S
O863 Nd840 2.682 . S
O863 Nd841 2.414 . S
O863 C849 1.273 . S
O864 Nd840 2.410 . S
O864 C850 1.251 . S
O865 Nd841 2.424 . S
O865 C850 1.268 . S
O866 Nd841 2.500 . S
O866 C851 1.258 . S
O867 Nd841 2.492 . S
O867 C851 1.239 . S
O868 Nd841 2.487 . S
O868 C858 1.241 . S
O869 Nd840 2.414 . S
O869 Nd841 2.682 . S
O869 C858 1.273 . S
O870 Nd841 2.410 . S
O870 C859 1.251 . S
O871 Nd840 2.424 . S
O871 C859 1.268 . S
H872 C844 0.930 . S
H873 C845 0.929 . S
H874 C847 0.930 . S
H875 C848 0.929 . S
H876 C853 0.930 . S
H877 C854 0.929 1_655 S
H878 C856 0.930 . S
H879 C857 0.929 . S
Nd880 C882 2.836 . S
Nd880 O900 2.500 . S
Nd880 O901 2.492 . S
Nd880 O902 2.487 . S
Nd880 O903 2.682 . S
Nd880 O904 2.410 . S
Nd880 O909 2.414 . S
Nd880 O911 2.424 . S
Nd881 C891 2.836 . S
Nd881 O903 2.414 . S
Nd881 O905 2.424 . S
Nd881 O906 2.500 . S
Nd881 O907 2.492 . S
Nd881 O908 2.487 . S
Nd881 O909 2.682 . S
Nd881 O910 2.410 . S
C882 Nd880 2.836 . S
C882 C883 1.498 . S
C882 O900 1.258 . S
C882 O901 1.239 . S
C883 C882 1.498 . S
C883 C884 1.366 . S
C883 C888 1.407 . S
C884 C883 1.366 . S
C884 C885 1.392 . S
C884 H912 0.930 . S
C885 C884 1.392 . S
C885 C886 1.398 . S
C885 H913 0.929 . S
C886 C885 1.398 . S
C886 C887 1.352 . S
C887 C886 1.352 . S
C887 C888 1.384 . S
C887 H914 0.930 . S
C888 C883 1.407 . S
C888 C887 1.384 . S
C888 H915 0.929 . S
C889 O902 1.241 . S
C889 O903 1.273 . S
C890 O904 1.251 . S
C890 O905 1.268 . S
C891 Nd881 2.836 . S
C891 C892 1.498 . S
C891 O906 1.258 . S
C891 O907 1.239 . S
C892 C891 1.498 . S
C892 C893 1.366 . S
C892 C897 1.407 . S
C893 C892 1.366 . S
C893 C894 1.392 . S
C893 H916 0.930 . S
C894 C893 1.392 . S
C894 C895 1.398 . S
C894 H917 0.929 . S
C895 C894 1.398 . S
C895 C896 1.352 . S
C896 C895 1.352 . S
C896 C897 1.384 . S
C896 H918 0.930 . S
C897 C892 1.407 . S
C897 C896 1.384 . S
C897 H919 0.929 . S
C898 O908 1.241 . S
C898 O909 1.273 . S
C899 O910 1.251 . S
C899 O911 1.268 . S
O900 Nd880 2.500 . S
O900 C882 1.258 . S
O901 Nd880 2.492 . S
O901 C882 1.239 . S
O902 Nd880 2.487 . S
O902 C889 1.241 . S
O903 Nd880 2.682 . S
O903 Nd881 2.414 . S
O903 C889 1.273 . S
O904 Nd880 2.410 . S
O904 C890 1.251 . S
O905 Nd881 2.424 . S
O905 C890 1.268 . S
O906 Nd881 2.500 . S
O906 C891 1.258 . S
O907 Nd881 2.492 . S
O907 C891 1.239 . S
O908 Nd881 2.487 . S
O908 C898 1.241 . S
O909 Nd880 2.414 . S
O909 Nd881 2.682 . S
O909 C898 1.273 . S
O910 Nd881 2.410 . S
O910 C899 1.251 . S
O911 Nd880 2.424 . S
O911 C899 1.268 . S
H912 C884 0.930 . S
H913 C885 0.929 . S
H914 C887 0.930 . S
H915 C888 0.929 . S
H916 C893 0.930 . S
H917 C894 0.929 . S
H918 C896 0.930 . S
H919 C897 0.929 . S
Nd920 C922 2.836 . S
Nd920 O940 2.500 . S
Nd920 O941 2.492 . S
Nd920 O942 2.487 . S
Nd920 O943 2.682 . S
Nd920 O944 2.410 . S
Nd920 O949 2.414 . S
Nd920 O951 2.424 . S
Nd921 C931 2.836 . S
Nd921 O943 2.414 . S
Nd921 O945 2.424 . S
Nd921 O946 2.500 . S
Nd921 O947 2.492 . S
Nd921 O948 2.487 . S
Nd921 O949 2.682 . S
Nd921 O950 2.410 . S
C922 Nd920 2.836 . S
C922 C923 1.498 . S
C922 O940 1.258 . S
C922 O941 1.239 . S
C923 C922 1.498 . S
C923 C924 1.366 . S
C923 C928 1.407 . S
C924 C923 1.366 . S
C924 C925 1.392 . S
C924 H952 0.930 . S
C925 C924 1.392 . S
C925 C926 1.398 . S
C925 H953 0.929 . S
C926 C925 1.398 . S
C926 C927 1.352 . S
C927 C926 1.352 . S
C927 C928 1.384 . S
C927 H954 0.930 . S
C928 C923 1.407 . S
C928 C927 1.384 . S
C928 H955 0.929 . S
C929 O942 1.241 . S
C929 O943 1.273 . S
C930 O944 1.251 . S
C930 O945 1.268 . S
C931 Nd921 2.836 . S
C931 C932 1.498 . S
C931 O946 1.258 . S
C931 O947 1.239 . S
C932 C931 1.498 . S
C932 C933 1.366 . S
C932 C937 1.407 . S
C933 C932 1.366 . S
C933 C934 1.392 . S
C933 H956 0.930 . S
C934 C933 1.392 . S
C934 C935 1.398 . S
C934 H957 0.929 1_455 S
C935 C934 1.398 . S
C935 C936 1.352 . S
C936 C935 1.352 . S
C936 C937 1.384 . S
C936 H958 0.930 . S
C937 C932 1.407 . S
C937 C936 1.384 . S
C937 H959 0.929 . S
C938 O948 1.241 . S
C938 O949 1.273 . S
C939 O950 1.251 . S
C939 O951 1.268 . S
O940 Nd920 2.500 . S
O940 C922 1.258 . S
O941 Nd920 2.492 . S
O941 C922 1.239 . S
O942 Nd920 2.487 . S
O942 C929 1.241 . S
O943 Nd920 2.682 . S
O943 Nd921 2.414 . S
O943 C929 1.273 . S
O944 Nd920 2.410 . S
O944 C930 1.251 . S
O945 Nd921 2.424 . S
O945 C930 1.268 . S
O946 Nd921 2.500 . S
O946 C931 1.258 . S
O947 Nd921 2.492 . S
O947 C931 1.239 . S
O948 Nd921 2.487 . S
O948 C938 1.241 . S
O949 Nd920 2.414 . S
O949 Nd921 2.682 . S
O949 C938 1.273 . S
O950 Nd921 2.410 . S
O950 C939 1.251 . S
O951 Nd920 2.424 . S
O951 C939 1.268 . S
H952 C924 0.930 . S
H953 C925 0.929 . S
H954 C927 0.930 . S
H955 C928 0.929 . S
H956 C933 0.930 . S
H957 C934 0.929 1_655 S
H958 C936 0.930 . S
H959 C937 0.929 . S
Nd960 C962 2.836 . S
Nd960 O980 2.500 . S
Nd960 O981 2.492 . S
Nd960 O982 2.487 . S
Nd960 O983 2.682 1_565 S
Nd960 O984 2.410 . S
Nd960 O989 2.414 . S
Nd960 O991 2.424 . S
Nd961 C971 2.836 . S
Nd961 O983 2.414 . S
Nd961 O985 2.424 . S
Nd961 O986 2.500 . S
Nd961 O987 2.492 . S
Nd961 O988 2.487 . S
Nd961 O989 2.682 1_545 S
Nd961 O990 2.410 . S
C962 Nd960 2.836 . S
C962 C963 1.498 . S
C962 O980 1.258 . S
C962 O981 1.239 . S
C963 C962 1.498 . S
C963 C964 1.366 . S
C963 C968 1.407 . S
C964 C963 1.366 . S
C964 C965 1.392 . S
C964 H992 0.930 . S
C965 C964 1.392 . S
C965 C966 1.398 . S
C965 H993 0.929 . S
C966 C965 1.398 . S
C966 C967 1.352 . S
C967 C966 1.352 . S
C967 C968 1.384 . S
C967 H994 0.930 . S
C968 C963 1.407 . S
C968 C967 1.384 . S
C968 H995 0.929 . S
C969 O982 1.241 . S
C969 O983 1.273 1_565 S
C970 O984 1.251 . S
C970 O985 1.268 1_565 S
C971 Nd961 2.836 . S
C971 C972 1.498 . S
C971 O986 1.258 . S
C971 O987 1.239 . S
C972 C971 1.498 . S
C972 C973 1.366 . S
C972 C977 1.407 . S
C973 C972 1.366 . S
C973 C974 1.392 . S
C973 H996 0.930 . S
C974 C973 1.392 . S
C974 C975 1.398 . S
C974 H997 0.929 . S
C975 C974 1.398 . S
C975 C976 1.352 . S
C976 C975 1.352 . S
C976 C977 1.384 . S
C976 H998 0.930 . S
C977 C972 1.407 . S
C977 C976 1.384 . S
C977 H999 0.929 . S
C978 O988 1.241 . S
C978 O989 1.273 1_545 S
C979 O990 1.251 . S
C979 O991 1.268 1_545 S
O980 Nd960 2.500 . S
O980 C962 1.258 . S
O981 Nd960 2.492 . S
O981 C962 1.239 . S
O982 Nd960 2.487 . S
O982 C969 1.241 . S
O983 Nd960 2.682 1_545 S
O983 Nd961 2.414 . S
O983 C969 1.273 1_545 S
O984 Nd960 2.410 . S
O984 C970 1.251 . S
O985 Nd961 2.424 . S
O985 C970 1.268 1_545 S
O986 Nd961 2.500 . S
O986 C971 1.258 . S
O987 Nd961 2.492 . S
O987 C971 1.239 . S
O988 Nd961 2.487 . S
O988 C978 1.241 . S
O989 Nd960 2.414 . S
O989 Nd961 2.682 1_565 S
O989 C978 1.273 1_565 S
O990 Nd961 2.410 . S
O990 C979 1.251 . S
O991 Nd960 2.424 . S
O991 C979 1.268 1_565 S
H992 C964 0.930 . S
H993 C965 0.929 . S
H994 C967 0.930 . S
H995 C968 0.929 . S
H996 C973 0.930 . S
H997 C974 0.929 . S
H998 C976 0.930 . S
H999 C977 0.929 . S
Nd1000 C1002 2.836 . S
Nd1000 O1020 2.500 . S
Nd1000 O1021 2.492 . S
Nd1000 O1022 2.487 . S
Nd1000 O1023 2.682 . S
Nd1000 O1024 2.410 . S
Nd1000 O1029 2.414 . S
Nd1000 O1031 2.424 . S
Nd1001 C1011 2.836 . S
Nd1001 O1023 2.414 . S
Nd1001 O1025 2.424 . S
Nd1001 O1026 2.500 . S
Nd1001 O1027 2.492 . S
Nd1001 O1028 2.487 . S
Nd1001 O1029 2.682 . S
Nd1001 O1030 2.410 . S
C1002 Nd1000 2.836 . S
C1002 C1003 1.498 . S
C1002 O1020 1.258 . S
C1002 O1021 1.239 . S
C1003 C1002 1.498 . S
C1003 C1004 1.366 . S
C1003 C1008 1.407 . S
C1004 C1003 1.366 . S
C1004 C1005 1.392 . S
C1004 H1032 0.930 . S
C1005 C1004 1.392 . S
C1005 C1006 1.398 . S
C1005 H1033 0.929 1_655 S
C1006 C1005 1.398 . S
C1006 C1007 1.352 . S
C1007 C1006 1.352 . S
C1007 C1008 1.384 . S
C1007 H1034 0.930 . S
C1008 C1003 1.407 . S
C1008 C1007 1.384 . S
C1008 H1035 0.929 . S
C1009 O1022 1.241 . S
C1009 O1023 1.273 . S
C1010 O1024 1.251 . S
C1010 O1025 1.268 . S
C1011 Nd1001 2.836 . S
C1011 C1012 1.498 . S
C1011 O1026 1.258 . S
C1011 O1027 1.239 . S
C1012 C1011 1.498 . S
C1012 C1013 1.366 . S
C1012 C1017 1.407 . S
C1013 C1012 1.366 . S
C1013 C1014 1.392 . S
C1013 H1036 0.930 . S
C1014 C1013 1.392 . S
C1014 C1015 1.398 . S
C1014 H1037 0.929 . S
C1015 C1014 1.398 . S
C1015 C1016 1.352 . S
C1016 C1015 1.352 . S
C1016 C1017 1.384 . S
C1016 H1038 0.930 . S
C1017 C1012 1.407 . S
C1017 C1016 1.384 . S
C1017 H1039 0.929 . S
C1018 O1028 1.241 . S
C1018 O1029 1.273 . S
C1019 O1030 1.251 . S
C1019 O1031 1.268 . S
O1020 Nd1000 2.500 . S
O1020 C1002 1.258 . S
O1021 Nd1000 2.492 . S
O1021 C1002 1.239 . S
O1022 Nd1000 2.487 . S
O1022 C1009 1.241 . S
O1023 Nd1000 2.682 . S
O1023 Nd1001 2.414 . S
O1023 C1009 1.273 . S
O1024 Nd1000 2.410 . S
O1024 C1010 1.251 . S
O1025 Nd1001 2.424 . S
O1025 C1010 1.268 . S
O1026 Nd1001 2.500 . S
O1026 C1011 1.258 . S
O1027 Nd1001 2.492 . S
O1027 C1011 1.239 . S
O1028 Nd1001 2.487 . S
O1028 C1018 1.241 . S
O1029 Nd1000 2.414 . S
O1029 Nd1001 2.682 . S
O1029 C1018 1.273 . S
O1030 Nd1001 2.410 . S
O1030 C1019 1.251 . S
O1031 Nd1000 2.424 . S
O1031 C1019 1.268 . S
H1032 C1004 0.930 . S
H1033 C1005 0.929 1_455 S
H1034 C1007 0.930 . S
H1035 C1008 0.929 . S
H1036 C1013 0.930 . S
H1037 C1014 0.929 . S
H1038 C1016 0.930 . S
H1039 C1017 0.929 . S
Nd1040 C1042 2.836 . S
Nd1040 O1060 2.500 . S
Nd1040 O1061 2.492 . S
Nd1040 O1062 2.487 . S
Nd1040 O1063 2.682 . S
Nd1040 O1064 2.410 . S
Nd1040 O1069 2.414 . S
Nd1040 O1071 2.424 . S
Nd1041 C1051 2.836 . S
Nd1041 O1063 2.414 . S
Nd1041 O1065 2.424 . S
Nd1041 O1066 2.500 . S
Nd1041 O1067 2.492 . S
Nd1041 O1068 2.487 . S
Nd1041 O1069 2.682 . S
Nd1041 O1070 2.410 . S
C1042 Nd1040 2.836 . S
C1042 C1043 1.498 . S
C1042 O1060 1.258 . S
C1042 O1061 1.239 . S
C1043 C1042 1.498 . S
C1043 C1044 1.366 . S
C1043 C1048 1.407 . S
C1044 C1043 1.366 . S
C1044 C1045 1.392 . S
C1044 H1072 0.930 . S
C1045 C1044 1.392 . S
C1045 C1046 1.398 . S
C1045 H1073 0.929 . S
C1046 C1045 1.398 . S
C1046 C1047 1.352 . S
C1047 C1046 1.352 . S
C1047 C1048 1.384 . S
C1047 H1074 0.930 . S
C1048 C1043 1.407 . S
C1048 C1047 1.384 . S
C1048 H1075 0.929 . S
C1049 O1062 1.241 . S
C1049 O1063 1.273 . S
C1050 O1064 1.251 . S
C1050 O1065 1.268 . S
C1051 Nd1041 2.836 . S
C1051 C1052 1.498 . S
C1051 O1066 1.258 . S
C1051 O1067 1.239 . S
C1052 C1051 1.498 . S
C1052 C1053 1.366 . S
C1052 C1057 1.407 . S
C1053 C1052 1.366 . S
C1053 C1054 1.392 . S
C1053 H1076 0.930 . S
C1054 C1053 1.392 . S
C1054 C1055 1.398 . S
C1054 H1077 0.929 . S
C1055 C1054 1.398 . S
C1055 C1056 1.352 . S
C1056 C1055 1.352 . S
C1056 C1057 1.384 . S
C1056 H1078 0.930 . S
C1057 C1052 1.407 . S
C1057 C1056 1.384 . S
C1057 H1079 0.929 . S
C1058 O1068 1.241 . S
C1058 O1069 1.273 . S
C1059 O1070 1.251 . S
C1059 O1071 1.268 . S
O1060 Nd1040 2.500 . S
O1060 C1042 1.258 . S
O1061 Nd1040 2.492 . S
O1061 C1042 1.239 . S
O1062 Nd1040 2.487 . S
O1062 C1049 1.241 . S
O1063 Nd1040 2.682 . S
O1063 Nd1041 2.414 . S
O1063 C1049 1.273 . S
O1064 Nd1040 2.410 . S
O1064 C1050 1.251 . S
O1065 Nd1041 2.424 . S
O1065 C1050 1.268 . S
O1066 Nd1041 2.500 . S
O1066 C1051 1.258 . S
O1067 Nd1041 2.492 . S
O1067 C1051 1.239 . S
O1068 Nd1041 2.487 . S
O1068 C1058 1.241 . S
O1069 Nd1040 2.414 . S
O1069 Nd1041 2.682 . S
O1069 C1058 1.273 . S
O1070 Nd1041 2.410 . S
O1070 C1059 1.251 . S
O1071 Nd1040 2.424 . S
O1071 C1059 1.268 . S
H1072 C1044 0.930 . S
H1073 C1045 0.929 . S
H1074 C1047 0.930 . S
H1075 C1048 0.929 . S
H1076 C1053 0.930 . S
H1077 C1054 0.929 . S
H1078 C1056 0.930 . S
H1079 C1057 0.929 . S
Nd1080 C1082 2.836 . S
Nd1080 O1100 2.500 . S
Nd1080 O1101 2.492 . S
Nd1080 O1102 2.487 . S
Nd1080 O1103 2.682 1_565 S
Nd1080 O1104 2.410 . S
Nd1080 O1109 2.414 . S
Nd1080 O1111 2.424 . S
Nd1081 C1091 2.836 . S
Nd1081 O1103 2.414 . S
Nd1081 O1105 2.424 . S
Nd1081 O1106 2.500 . S
Nd1081 O1107 2.492 . S
Nd1081 O1108 2.487 . S
Nd1081 O1109 2.682 1_545 S
Nd1081 O1110 2.410 . S
C1082 Nd1080 2.836 . S
C1082 C1083 1.498 . S
C1082 O1100 1.258 . S
C1082 O1101 1.239 . S
C1083 C1082 1.498 . S
C1083 C1084 1.366 . S
C1083 C1088 1.407 . S
C1084 C1083 1.366 . S
C1084 C1085 1.392 . S
C1084 H1112 0.930 . S
C1085 C1084 1.392 . S
C1085 C1086 1.398 . S
C1085 H1113 0.929 1_655 S
C1086 C1085 1.398 . S
C1086 C1087 1.352 . S
C1087 C1086 1.352 . S
C1087 C1088 1.384 . S
C1087 H1114 0.930 . S
C1088 C1083 1.407 . S
C1088 C1087 1.384 . S
C1088 H1115 0.929 . S
C1089 O1102 1.241 . S
C1089 O1103 1.273 1_565 S
C1090 O1104 1.251 . S
C1090 O1105 1.268 1_565 S
C1091 Nd1081 2.836 . S
C1091 C1092 1.498 . S
C1091 O1106 1.258 . S
C1091 O1107 1.239 . S
C1092 C1091 1.498 . S
C1092 C1093 1.366 . S
C1092 C1097 1.407 . S
C1093 C1092 1.366 . S
C1093 C1094 1.392 . S
C1093 H1116 0.930 . S
C1094 C1093 1.392 . S
C1094 C1095 1.398 . S
C1094 H1117 0.929 . S
C1095 C1094 1.398 . S
C1095 C1096 1.352 . S
C1096 C1095 1.352 . S
C1096 C1097 1.384 . S
C1096 H1118 0.930 . S
C1097 C1092 1.407 . S
C1097 C1096 1.384 . S
C1097 H1119 0.929 . S
C1098 O1108 1.241 . S
C1098 O1109 1.273 1_545 S
C1099 O1110 1.251 . S
C1099 O1111 1.268 1_545 S
O1100 Nd1080 2.500 . S
O1100 C1082 1.258 . S
O1101 Nd1080 2.492 . S
O1101 C1082 1.239 . S
O1102 Nd1080 2.487 . S
O1102 C1089 1.241 . S
O1103 Nd1080 2.682 1_545 S
O1103 Nd1081 2.414 . S
O1103 C1089 1.273 1_545 S
O1104 Nd1080 2.410 . S
O1104 C1090 1.251 . S
O1105 Nd1081 2.424 . S
O1105 C1090 1.268 1_545 S
O1106 Nd1081 2.500 . S
O1106 C1091 1.258 . S
O1107 Nd1081 2.492 . S
O1107 C1091 1.239 . S
O1108 Nd1081 2.487 . S
O1108 C1098 1.241 . S
O1109 Nd1080 2.414 . S
O1109 Nd1081 2.682 1_565 S
O1109 C1098 1.273 1_565 S
O1110 Nd1081 2.410 . S
O1110 C1099 1.251 . S
O1111 Nd1080 2.424 . S
O1111 C1099 1.268 1_565 S
H1112 C1084 0.930 . S
H1113 C1085 0.929 1_455 S
H1114 C1087 0.930 . S
H1115 C1088 0.929 . S
H1116 C1093 0.930 . S
H1117 C1094 0.929 . S
H1118 C1096 0.930 . S
H1119 C1097 0.929 . S
Nd1120 C1122 2.836 . S
Nd1120 O1140 2.500 . S
Nd1120 O1141 2.492 . S
Nd1120 O1142 2.487 . S
Nd1120 O1143 2.682 1_565 S
Nd1120 O1144 2.410 . S
Nd1120 O1149 2.414 . S
Nd1120 O1151 2.424 . S
Nd1121 C1131 2.836 . S
Nd1121 O1143 2.414 . S
Nd1121 O1145 2.424 . S
Nd1121 O1146 2.500 . S
Nd1121 O1147 2.492 . S
Nd1121 O1148 2.487 . S
Nd1121 O1149 2.682 1_545 S
Nd1121 O1150 2.410 . S
C1122 Nd1120 2.836 . S
C1122 C1123 1.498 . S
C1122 O1140 1.258 . S
C1122 O1141 1.239 . S
C1123 C1122 1.498 . S
C1123 C1124 1.366 . S
C1123 C1128 1.407 . S
C1124 C1123 1.366 . S
C1124 C1125 1.392 . S
C1124 H1152 0.930 . S
C1125 C1124 1.392 . S
C1125 C1126 1.398 . S
C1125 H1153 0.929 . S
C1126 C1125 1.398 . S
C1126 C1127 1.352 . S
C1127 C1126 1.352 . S
C1127 C1128 1.384 . S
C1127 H1154 0.930 . S
C1128 C1123 1.407 . S
C1128 C1127 1.384 . S
C1128 H1155 0.929 . S
C1129 O1142 1.241 . S
C1129 O1143 1.273 1_565 S
C1130 O1144 1.251 . S
C1130 O1145 1.268 1_565 S
C1131 Nd1121 2.836 . S
C1131 C1132 1.498 . S
C1131 O1146 1.258 . S
C1131 O1147 1.239 . S
C1132 C1131 1.498 . S
C1132 C1133 1.366 . S
C1132 C1137 1.407 . S
C1133 C1132 1.366 . S
C1133 C1134 1.392 . S
C1133 H1156 0.930 . S
C1134 C1133 1.392 . S
C1134 C1135 1.398 . S
C1134 H1157 0.929 . S
C1135 C1134 1.398 . S
C1135 C1136 1.352 . S
C1136 C1135 1.352 . S
C1136 C1137 1.384 . S
C1136 H1158 0.930 . S
C1137 C1132 1.407 . S
C1137 C1136 1.384 . S
C1137 H1159 0.929 . S
C1138 O1148 1.241 . S
C1138 O1149 1.273 1_545 S
C1139 O1150 1.251 . S
C1139 O1151 1.268 1_545 S
O1140 Nd1120 2.500 . S
O1140 C1122 1.258 . S
O1141 Nd1120 2.492 . S
O1141 C1122 1.239 . S
O1142 Nd1120 2.487 . S
O1142 C1129 1.241 . S
O1143 Nd1120 2.682 1_545 S
O1143 Nd1121 2.414 . S
O1143 C1129 1.273 1_545 S
O1144 Nd1120 2.410 . S
O1144 C1130 1.251 . S
O1145 Nd1121 2.424 . S
O1145 C1130 1.268 1_545 S
O1146 Nd1121 2.500 . S
O1146 C1131 1.258 . S
O1147 Nd1121 2.492 . S
O1147 C1131 1.239 . S
O1148 Nd1121 2.487 . S
O1148 C1138 1.241 . S
O1149 Nd1120 2.414 . S
O1149 Nd1121 2.682 1_565 S
O1149 C1138 1.273 1_565 S
O1150 Nd1121 2.410 . S
O1150 C1139 1.251 . S
O1151 Nd1120 2.424 . S
O1151 C1139 1.268 1_565 S
H1152 C1124 0.930 . S
H1153 C1125 0.929 . S
H1154 C1127 0.930 . S
H1155 C1128 0.929 . S
H1156 C1133 0.930 . S
H1157 C1134 0.929 . S
H1158 C1136 0.930 . S
H1159 C1137 0.929 . S
Nd1160 C1162 2.836 . S
Nd1160 O1180 2.500 . S
Nd1160 O1181 2.492 . S
Nd1160 O1182 2.487 . S
Nd1160 O1183 2.682 . S
Nd1160 O1184 2.410 . S
Nd1160 O1189 2.414 . S
Nd1160 O1191 2.424 . S
Nd1161 C1171 2.836 . S
Nd1161 O1183 2.414 . S
Nd1161 O1185 2.424 . S
Nd1161 O1186 2.500 . S
Nd1161 O1187 2.492 . S
Nd1161 O1188 2.487 . S
Nd1161 O1189 2.682 . S
Nd1161 O1190 2.410 . S
C1162 Nd1160 2.836 . S
C1162 C1163 1.498 . S
C1162 O1180 1.258 . S
C1162 O1181 1.239 . S
C1163 C1162 1.498 . S
C1163 C1164 1.366 . S
C1163 C1168 1.407 . S
C1164 C1163 1.366 . S
C1164 C1165 1.392 . S
C1164 H1192 0.930 . S
C1165 C1164 1.392 . S
C1165 C1166 1.398 . S
C1165 H1193 0.929 . S
C1166 C1165 1.398 . S
C1166 C1167 1.352 . S
C1167 C1166 1.352 . S
C1167 C1168 1.384 . S
C1167 H1194 0.930 . S
C1168 C1163 1.407 . S
C1168 C1167 1.384 . S
C1168 H1195 0.929 . S
C1169 O1182 1.241 . S
C1169 O1183 1.273 . S
C1170 O1184 1.251 . S
C1170 O1185 1.268 . S
C1171 Nd1161 2.836 . S
C1171 C1172 1.498 . S
C1171 O1186 1.258 . S
C1171 O1187 1.239 . S
C1172 C1171 1.498 . S
C1172 C1173 1.366 . S
C1172 C1177 1.407 . S
C1173 C1172 1.366 . S
C1173 C1174 1.392 . S
C1173 H1196 0.930 . S
C1174 C1173 1.392 . S
C1174 C1175 1.398 . S
C1174 H1197 0.929 1_455 S
C1175 C1174 1.398 . S
C1175 C1176 1.352 . S
C1176 C1175 1.352 . S
C1176 C1177 1.384 . S
C1176 H1198 0.930 . S
C1177 C1172 1.407 . S
C1177 C1176 1.384 . S
C1177 H1199 0.929 . S
C1178 O1188 1.241 . S
C1178 O1189 1.273 . S
C1179 O1190 1.251 . S
C1179 O1191 1.268 . S
O1180 Nd1160 2.500 . S
O1180 C1162 1.258 . S
O1181 Nd1160 2.492 . S
O1181 C1162 1.239 . S
O1182 Nd1160 2.487 . S
O1182 C1169 1.241 . S
O1183 Nd1160 2.682 . S
O1183 Nd1161 2.414 . S
O1183 C1169 1.273 . S
O1184 Nd1160 2.410 . S
O1184 C1170 1.251 . S
O1185 Nd1161 2.424 . S
O1185 C1170 1.268 . S
O1186 Nd1161 2.500 . S
O1186 C1171 1.258 . S
O1187 Nd1161 2.492 . S
O1187 C1171 1.239 . S
O1188 Nd1161 2.487 . S
O1188 C1178 1.241 . S
O1189 Nd1160 2.414 . S
O1189 Nd1161 2.682 . S
O1189 C1178 1.273 . S
O1190 Nd1161 2.410 . S
O1190 C1179 1.251 . S
O1191 Nd1160 2.424 . S
O1191 C1179 1.268 . S
H1192 C1164 0.930 . S
H1193 C1165 0.929 . S
H1194 C1167 0.930 . S
H1195 C1168 0.929 . S
H1196 C1173 0.930 . S
H1197 C1174 0.929 1_655 S
H1198 C1176 0.930 . S
H1199 C1177 0.929 . S
Nd1200 C1202 2.836 . S
Nd1200 O1220 2.500 . S
Nd1200 O1221 2.492 . S
Nd1200 O1222 2.487 . S
Nd1200 O1223 2.682 . S
Nd1200 O1224 2.410 . S
Nd1200 O1229 2.414 . S
Nd1200 O1231 2.424 . S
Nd1201 C1211 2.836 . S
Nd1201 O1223 2.414 . S
Nd1201 O1225 2.424 . S
Nd1201 O1226 2.500 . S
Nd1201 O1227 2.492 . S
Nd1201 O1228 2.487 . S
Nd1201 O1229 2.682 . S
Nd1201 O1230 2.410 . S
C1202 Nd1200 2.836 . S
C1202 C1203 1.498 . S
C1202 O1220 1.258 . S
C1202 O1221 1.239 . S
C1203 C1202 1.498 . S
C1203 C1204 1.366 . S
C1203 C1208 1.407 . S
C1204 C1203 1.366 . S
C1204 C1205 1.392 . S
C1204 H1232 0.930 . S
C1205 C1204 1.392 . S
C1205 C1206 1.398 . S
C1205 H1233 0.929 . S
C1206 C1205 1.398 . S
C1206 C1207 1.352 . S
C1207 C1206 1.352 . S
C1207 C1208 1.384 . S
C1207 H1234 0.930 . S
C1208 C1203 1.407 . S
C1208 C1207 1.384 . S
C1208 H1235 0.929 . S
C1209 O1222 1.241 . S
C1209 O1223 1.273 . S
C1210 O1224 1.251 . S
C1210 O1225 1.268 . S
C1211 Nd1201 2.836 . S
C1211 C1212 1.498 . S
C1211 O1226 1.258 . S
C1211 O1227 1.239 . S
C1212 C1211 1.498 . S
C1212 C1213 1.366 . S
C1212 C1217 1.407 . S
C1213 C1212 1.366 . S
C1213 C1214 1.392 . S
C1213 H1236 0.930 . S
C1214 C1213 1.392 . S
C1214 C1215 1.398 . S
C1214 H1237 0.929 . S
C1215 C1214 1.398 . S
C1215 C1216 1.352 . S
C1216 C1215 1.352 . S
C1216 C1217 1.384 . S
C1216 H1238 0.930 . S
C1217 C1212 1.407 . S
C1217 C1216 1.384 . S
C1217 H1239 0.929 . S
C1218 O1228 1.241 . S
C1218 O1229 1.273 . S
C1219 O1230 1.251 . S
C1219 O1231 1.268 . S
O1220 Nd1200 2.500 . S
O1220 C1202 1.258 . S
O1221 Nd1200 2.492 . S
O1221 C1202 1.239 . S
O1222 Nd1200 2.487 . S
O1222 C1209 1.241 . S
O1223 Nd1200 2.682 . S
O1223 Nd1201 2.414 . S
O1223 C1209 1.273 . S
O1224 Nd1200 2.410 . S
O1224 C1210 1.251 . S
O1225 Nd1201 2.424 . S
O1225 C1210 1.268 . S
O1226 Nd1201 2.500 . S
O1226 C1211 1.258 . S
O1227 Nd1201 2.492 . S
O1227 C1211 1.239 . S
O1228 Nd1201 2.487 . S
O1228 C1218 1.241 . S
O1229 Nd1200 2.414 . S
O1229 Nd1201 2.682 . S
O1229 C1218 1.273 . S
O1230 Nd1201 2.410 . S
O1230 C1219 1.251 . S
O1231 Nd1200 2.424 . S
O1231 C1219 1.268 . S
H1232 C1204 0.930 . S
H1233 C1205 0.929 . S
H1234 C1207 0.930 . S
H1235 C1208 0.929 . S
H1236 C1213 0.930 . S
H1237 C1214 0.929 . S
H1238 C1216 0.930 . S
H1239 C1217 0.929 . S
Nd1240 C1242 2.836 . S
Nd1240 O1260 2.500 . S
Nd1240 O1261 2.492 . S
Nd1240 O1262 2.487 . S
Nd1240 O1263 2.682 1_565 S
Nd1240 O1264 2.410 . S
Nd1240 O1269 2.414 . S
Nd1240 O1271 2.424 . S
Nd1241 C1251 2.836 . S
Nd1241 O1263 2.414 . S
Nd1241 O1265 2.424 . S
Nd1241 O1266 2.500 . S
Nd1241 O1267 2.492 . S
Nd1241 O1268 2.487 . S
Nd1241 O1269 2.682 1_545 S
Nd1241 O1270 2.410 . S
C1242 Nd1240 2.836 . S
C1242 C1243 1.498 . S
C1242 O1260 1.258 . S
C1242 O1261 1.239 . S
C1243 C1242 1.498 . S
C1243 C1244 1.366 . S
C1243 C1248 1.407 . S
C1244 C1243 1.366 . S
C1244 C1245 1.392 . S
C1244 H1272 0.930 . S
C1245 C1244 1.392 . S
C1245 C1246 1.398 . S
C1245 H1273 0.929 . S
C1246 C1245 1.398 . S
C1246 C1247 1.352 . S
C1247 C1246 1.352 . S
C1247 C1248 1.384 . S
C1247 H1274 0.930 . S
C1248 C1243 1.407 . S
C1248 C1247 1.384 . S
C1248 H1275 0.929 . S
C1249 O1262 1.241 . S
C1249 O1263 1.273 1_565 S
C1250 O1264 1.251 . S
C1250 O1265 1.268 1_565 S
C1251 Nd1241 2.836 . S
C1251 C1252 1.498 . S
C1251 O1266 1.258 . S
C1251 O1267 1.239 . S
C1252 C1251 1.498 . S
C1252 C1253 1.366 . S
C1252 C1257 1.407 . S
C1253 C1252 1.366 . S
C1253 C1254 1.392 . S
C1253 H1276 0.930 . S
C1254 C1253 1.392 . S
C1254 C1255 1.398 . S
C1254 H1277 0.929 1_455 S
C1255 C1254 1.398 . S
C1255 C1256 1.352 . S
C1256 C1255 1.352 . S
C1256 C1257 1.384 . S
C1256 H1278 0.930 . S
C1257 C1252 1.407 . S
C1257 C1256 1.384 . S
C1257 H1279 0.929 . S
C1258 O1268 1.241 . S
C1258 O1269 1.273 1_545 S
C1259 O1270 1.251 . S
C1259 O1271 1.268 1_545 S
O1260 Nd1240 2.500 . S
O1260 C1242 1.258 . S
O1261 Nd1240 2.492 . S
O1261 C1242 1.239 . S
O1262 Nd1240 2.487 . S
O1262 C1249 1.241 . S
O1263 Nd1240 2.682 1_545 S
O1263 Nd1241 2.414 . S
O1263 C1249 1.273 1_545 S
O1264 Nd1240 2.410 . S
O1264 C1250 1.251 . S
O1265 Nd1241 2.424 . S
O1265 C1250 1.268 1_545 S
O1266 Nd1241 2.500 . S
O1266 C1251 1.258 . S
O1267 Nd1241 2.492 . S
O1267 C1251 1.239 . S
O1268 Nd1241 2.487 . S
O1268 C1258 1.241 . S
O1269 Nd1240 2.414 . S
O1269 Nd1241 2.682 1_565 S
O1269 C1258 1.273 1_565 S
O1270 Nd1241 2.410 . S
O1270 C1259 1.251 . S
O1271 Nd1240 2.424 . S
O1271 C1259 1.268 1_565 S
H1272 C1244 0.930 . S
H1273 C1245 0.929 . S
H1274 C1247 0.930 . S
H1275 C1248 0.929 . S
H1276 C1253 0.930 . S
H1277 C1254 0.929 1_655 S
H1278 C1256 0.930 . S
H1279 C1257 0.929 . S
C1280 C1281 1.363 . S
C1280 C1286 1.379 . S
C1280 N1288 1.356 . S
C1281 C1280 1.363 . S
C1281 C1287 1.363 . S
C1282 C1283 1.363 . S
C1282 C1287 1.379 . S
C1282 N1289 1.356 . S
C1283 C1282 1.363 . S
C1283 C1286 1.363 . S
N1284 C1286 1.356 1_455 S
N1284 H1296 0.984 . S
N1284 H1297 0.985 . S
N1285 C1287 1.356 . S
N1285 H1290 0.984 . S
N1285 H1291 0.985 . S
C1286 C1280 1.379 . S
C1286 C1283 1.363 . S
C1286 N1284 1.356 1_655 S
C1287 C1281 1.363 . S
C1287 C1282 1.379 . S
C1287 N1285 1.356 . S
N1288 C1280 1.356 . S
N1288 H1294 0.984 . S
N1288 H1295 0.984 . S
N1289 C1282 1.356 . S
N1289 H1292 0.984 . S
N1289 H1293 0.985 . S
H1290 N1285 0.984 . S
H1291 N1285 0.985 . S
H1292 N1289 0.984 . S
H1293 N1289 0.985 . S
H1294 N1288 0.984 . S
H1295 N1288 0.984 . S
H1296 N1284 0.984 . S
H1297 N1284 0.985 . S
C1298 C1299 1.363 . S
C1298 C1304 1.379 . S
C1298 N1306 1.356 . S
C1299 C1298 1.363 . S
C1299 C1305 1.363 . S
C1300 C1301 1.363 . S
C1300 C1305 1.379 . S
C1300 N1307 1.356 . S
C1301 C1300 1.363 . S
C1301 C1304 1.363 . S
N1302 C1304 1.356 . S
N1302 H1314 0.984 . S
N1302 H1315 0.985 . S
N1303 C1305 1.356 . S
N1303 H1308 0.984 . S
N1303 H1309 0.985 . S
C1304 C1298 1.379 . S
C1304 C1301 1.363 . S
C1304 N1302 1.356 . S
C1305 C1299 1.363 . S
C1305 C1300 1.379 . S
C1305 N1303 1.356 . S
N1306 C1298 1.356 . S
N1306 H1312 0.984 . S
N1306 H1313 0.984 . S
N1307 C1300 1.356 . S
N1307 H1310 0.984 . S
N1307 H1311 0.985 . S
H1308 N1303 0.984 . S
H1309 N1303 0.985 . S
H1310 N1307 0.984 . S
H1311 N1307 0.985 . S
H1312 N1306 0.984 . S
H1313 N1306 0.984 . S
H1314 N1302 0.984 . S
H1315 N1302 0.985 . S
C1316 C1317 1.363 . S
C1316 C1322 1.379 . S
C1316 N1324 1.356 1_655 S
C1317 C1316 1.363 . S
C1317 C1323 1.363 . S
C1318 C1319 1.363 . S
C1318 C1323 1.379 . S
C1318 N1325 1.356 . S
C1319 C1318 1.363 . S
C1319 C1322 1.363 . S
N1320 C1322 1.356 . S
N1320 H1332 0.984 . S
N1320 H1333 0.985 . S
N1321 C1323 1.356 . S
N1321 H1326 0.984 . S
N1321 H1327 0.985 . S
C1322 C1316 1.379 . S
C1322 C1319 1.363 . S
C1322 N1320 1.356 . S
C1323 C1317 1.363 . S
C1323 C1318 1.379 . S
C1323 N1321 1.356 . S
N1324 C1316 1.356 1_455 S
N1324 H1330 0.984 . S
N1324 H1331 0.984 . S
N1325 C1318 1.356 . S
N1325 H1328 0.984 . S
N1325 H1329 0.985 . S
H1326 N1321 0.984 . S
H1327 N1321 0.985 . S
H1328 N1325 0.984 . S
H1329 N1325 0.985 . S
H1330 N1324 0.984 . S
H1331 N1324 0.984 . S
H1332 N1320 0.984 . S
H1333 N1320 0.985 . S
C1334 C1335 1.363 . S
C1334 C1340 1.379 . S
C1334 N1342 1.356 . S
C1335 C1334 1.363 . S
C1335 C1341 1.363 . S
C1336 C1337 1.363 . S
C1336 C1341 1.379 . S
C1336 N1343 1.356 . S
C1337 C1336 1.363 . S
C1337 C1340 1.363 . S
N1338 C1340 1.356 . S
N1338 H1350 0.984 . S
N1338 H1351 0.985 . S
N1339 C1341 1.356 . S
N1339 H1344 0.984 . S
N1339 H1345 0.985 . S
C1340 C1334 1.379 . S
C1340 C1337 1.363 . S
C1340 N1338 1.356 . S
C1341 C1335 1.363 . S
C1341 C1336 1.379 . S
C1341 N1339 1.356 . S
N1342 C1334 1.356 . S
N1342 H1348 0.984 . S
N1342 H1349 0.984 . S
N1343 C1336 1.356 . S
N1343 H1346 0.984 . S
N1343 H1347 0.985 . S
H1344 N1339 0.984 . S
H1345 N1339 0.985 . S
H1346 N1343 0.984 . S
H1347 N1343 0.985 . S
H1348 N1342 0.984 . S
H1349 N1342 0.984 . S
H1350 N1338 0.984 . S
H1351 N1338 0.985 . S
C1352 C1353 1.363 . S
C1352 C1358 1.379 . S
C1352 N1360 1.356 . S
C1353 C1352 1.363 . S
C1353 C1359 1.363 . S
C1354 C1355 1.363 . S
C1354 C1359 1.379 . S
C1354 N1361 1.356 . S
C1355 C1354 1.363 . S
C1355 C1358 1.363 . S
N1356 C1358 1.356 1_655 S
N1356 H1368 0.984 . S
N1356 H1369 0.985 . S
N1357 C1359 1.356 . S
N1357 H1362 0.984 . S
N1357 H1363 0.985 . S
C1358 C1352 1.379 . S
C1358 C1355 1.363 . S
C1358 N1356 1.356 1_455 S
C1359 C1353 1.363 . S
C1359 C1354 1.379 . S
C1359 N1357 1.356 . S
N1360 C1352 1.356 . S
N1360 H1366 0.984 . S
N1360 H1367 0.984 . S
N1361 C1354 1.356 . S
N1361 H1364 0.984 . S
N1361 H1365 0.985 . S
H1362 N1357 0.984 . S
H1363 N1357 0.985 . S
H1364 N1361 0.984 . S
H1365 N1361 0.985 . S
H1366 N1360 0.984 . S
H1367 N1360 0.984 . S
H1368 N1356 0.984 . S
H1369 N1356 0.985 . S
C1370 C1371 1.363 . S
C1370 C1376 1.379 . S
C1370 N1378 1.356 . S
C1371 C1370 1.363 . S
C1371 C1377 1.363 . S
C1372 C1373 1.363 . S
C1372 C1377 1.379 . S
C1372 N1379 1.356 . S
C1373 C1372 1.363 . S
C1373 C1376 1.363 . S
N1374 C1376 1.356 . S
N1374 H1386 0.984 . S
N1374 H1387 0.985 . S
N1375 C1377 1.356 . S
N1375 H1380 0.984 . S
N1375 H1381 0.985 . S
C1376 C1370 1.379 . S
C1376 C1373 1.363 . S
C1376 N1374 1.356 . S
C1377 C1371 1.363 . S
C1377 C1372 1.379 . S
C1377 N1375 1.356 . S
N1378 C1370 1.356 . S
N1378 H1384 0.984 . S
N1378 H1385 0.984 . S
N1379 C1372 1.356 . S
N1379 H1382 0.984 . S
N1379 H1383 0.985 . S
H1380 N1375 0.984 . S
H1381 N1375 0.985 . S
H1382 N1379 0.984 . S
H1383 N1379 0.985 . S
H1384 N1378 0.984 . S
H1385 N1378 0.984 . S
H1386 N1374 0.984 . S
H1387 N1374 0.985 . S
C1388 C1389 1.363 . S
C1388 C1394 1.379 . S
C1388 N1396 1.356 . S
C1389 C1388 1.363 . S
C1389 C1395 1.363 . S
C1390 C1391 1.363 . S
C1390 C1395 1.379 . S
C1390 N1397 1.356 1_455 S
C1391 C1390 1.363 . S
C1391 C1394 1.363 . S
N1392 C1394 1.356 . S
N1392 H1404 0.984 . S
N1392 H1405 0.985 . S
N1393 C1395 1.356 . S
N1393 H1398 0.984 . S
N1393 H1399 0.985 . S
C1394 C1388 1.379 . S
C1394 C1391 1.363 . S
C1394 N1392 1.356 . S
C1395 C1389 1.363 . S
C1395 C1390 1.379 . S
C1395 N1393 1.356 . S
N1396 C1388 1.356 . S
N1396 H1402 0.984 . S
N1396 H1403 0.984 . S
N1397 C1390 1.356 1_655 S
N1397 H1400 0.984 . S
N1397 H1401 0.985 . S
H1398 N1393 0.984 . S
H1399 N1393 0.985 . S
H1400 N1397 0.984 . S
H1401 N1397 0.985 . S
H1402 N1396 0.984 . S
H1403 N1396 0.984 . S
H1404 N1392 0.984 . S
H1405 N1392 0.985 . S
C1406 C1407 1.363 . S
C1406 C1412 1.379 . S
C1406 N1414 1.356 . S
C1407 C1406 1.363 . S
C1407 C1413 1.363 . S
C1408 C1409 1.363 . S
C1408 C1413 1.379 . S
C1408 N1415 1.356 . S
C1409 C1408 1.363 . S
C1409 C1412 1.363 . S
N1410 C1412 1.356 . S
N1410 H1422 0.984 . S
N1410 H1423 0.985 . S
N1411 C1413 1.356 . S
N1411 H1416 0.984 . S
N1411 H1417 0.985 . S
C1412 C1406 1.379 . S
C1412 C1409 1.363 . S
C1412 N1410 1.356 . S
C1413 C1407 1.363 . S
C1413 C1408 1.379 . S
C1413 N1411 1.356 . S
N1414 C1406 1.356 . S
N1414 H1420 0.984 . S
N1414 H1421 0.984 . S
N1415 C1408 1.356 . S
N1415 H1418 0.984 . S
N1415 H1419 0.985 . S
H1416 N1411 0.984 . S
H1417 N1411 0.985 . S
H1418 N1415 0.984 . S
H1419 N1415 0.985 . S
H1420 N1414 0.984 . S
H1421 N1414 0.984 . S
H1422 N1410 0.984 . S
H1423 N1410 0.985 . S
C1424 C1425 1.363 . S
C1424 C1430 1.379 . S
C1424 N1432 1.356 . S
C1425 C1424 1.363 . S
C1425 C1431 1.363 . S
C1426 C1427 1.363 . S
C1426 C1431 1.379 . S
C1426 N1433 1.356 1_655 S
C1427 C1426 1.363 . S
C1427 C1430 1.363 . S
N1428 C1430 1.356 . S
N1428 H1440 0.984 . S
N1428 H1441 0.985 . S
N1429 C1431 1.356 . S
N1429 H1434 0.984 . S
N1429 H1435 0.985 . S
C1430 C1424 1.379 . S
C1430 C1427 1.363 . S
C1430 N1428 1.356 . S
C1431 C1425 1.363 . S
C1431 C1426 1.379 . S
C1431 N1429 1.356 . S
N1432 C1424 1.356 . S
N1432 H1438 0.984 . S
N1432 H1439 0.984 . S
N1433 C1426 1.356 1_455 S
N1433 H1436 0.984 . S
N1433 H1437 0.985 . S
H1434 N1429 0.984 . S
H1435 N1429 0.985 . S
H1436 N1433 0.984 . S
H1437 N1433 0.985 . S
H1438 N1432 0.984 . S
H1439 N1432 0.984 . S
H1440 N1428 0.984 . S
H1441 N1428 0.985 . S
C1442 C1443 1.363 . S
C1442 C1448 1.379 . S
C1442 N1450 1.356 . S
C1443 C1442 1.363 . S
C1443 C1449 1.363 . S
C1444 C1445 1.363 . S
C1444 C1449 1.379 . S
C1444 N1451 1.356 . S
C1445 C1444 1.363 . S
C1445 C1448 1.363 . S
N1446 C1448 1.356 . S
N1446 H1458 0.984 . S
N1446 H1459 0.985 . S
N1447 C1449 1.356 . S
N1447 H1452 0.984 . S
N1447 H1453 0.985 . S
C1448 C1442 1.379 . S
C1448 C1445 1.363 . S
C1448 N1446 1.356 . S
C1449 C1443 1.363 . S
C1449 C1444 1.379 . S
C1449 N1447 1.356 . S
N1450 C1442 1.356 . S
N1450 H1456 0.984 . S
N1450 H1457 0.984 . S
N1451 C1444 1.356 . S
N1451 H1454 0.984 . S
N1451 H1455 0.985 . S
H1452 N1447 0.984 . S
H1453 N1447 0.985 . S
H1454 N1451 0.984 . S
H1455 N1451 0.985 . S
H1456 N1450 0.984 . S
H1457 N1450 0.984 . S
H1458 N1446 0.984 . S
H1459 N1446 0.985 . S
C1460 C1461 1.363 . S
C1460 C1466 1.379 . S
C1460 N1468 1.356 . S
C1461 C1460 1.363 . S
C1461 C1467 1.363 . S
C1462 C1463 1.363 . S
C1462 C1467 1.379 . S
C1462 N1469 1.356 . S
C1463 C1462 1.363 . S
C1463 C1466 1.363 . S
N1464 C1466 1.356 1_455 S
N1464 H1476 0.984 . S
N1464 H1477 0.985 . S
N1465 C1467 1.356 . S
N1465 H1470 0.984 . S
N1465 H1471 0.985 . S
C1466 C1460 1.379 . S
C1466 C1463 1.363 . S
C1466 N1464 1.356 1_655 S
C1467 C1461 1.363 . S
C1467 C1462 1.379 . S
C1467 N1465 1.356 . S
N1468 C1460 1.356 . S
N1468 H1474 0.984 . S
N1468 H1475 0.984 . S
N1469 C1462 1.356 . S
N1469 H1472 0.984 . S
N1469 H1473 0.985 . S
H1470 N1465 0.984 . S
H1471 N1465 0.985 . S
H1472 N1469 0.984 . S
H1473 N1469 0.985 . S
H1474 N1468 0.984 . S
H1475 N1468 0.984 . S
H1476 N1464 0.984 . S
H1477 N1464 0.985 . S
C1478 C1479 1.363 . S
C1478 C1484 1.379 . S
C1478 N1486 1.356 . S
C1479 C1478 1.363 . S
C1479 C1485 1.363 . S
C1480 C1481 1.363 . S
C1480 C1485 1.379 . S
C1480 N1487 1.356 . S
C1481 C1480 1.363 . S
C1481 C1484 1.363 . S
N1482 C1484 1.356 . S
N1482 H1494 0.984 . S
N1482 H1495 0.985 . S
N1483 C1485 1.356 . S
N1483 H1488 0.984 . S
N1483 H1489 0.985 . S
C1484 C1478 1.379 . S
C1484 C1481 1.363 . S
C1484 N1482 1.356 . S
C1485 C1479 1.363 . S
C1485 C1480 1.379 . S
C1485 N1483 1.356 . S
N1486 C1478 1.356 . S
N1486 H1492 0.984 . S
N1486 H1493 0.984 . S
N1487 C1480 1.356 . S
N1487 H1490 0.984 . S
N1487 H1491 0.985 . S
H1488 N1483 0.984 . S
H1489 N1483 0.985 . S
H1490 N1487 0.984 . S
H1491 N1487 0.985 . S
H1492 N1486 0.984 . S
H1493 N1486 0.984 . S
H1494 N1482 0.984 . S
H1495 N1482 0.985 . S
C1496 C1497 1.363 . S
C1496 C1502 1.379 . S
C1496 N1504 1.356 . S
C1497 C1496 1.363 . S
C1497 C1503 1.363 . S
C1498 C1499 1.363 . S
C1498 C1503 1.379 . S
C1498 N1505 1.356 1_455 S
C1499 C1498 1.363 . S
C1499 C1502 1.363 . S
N1500 C1502 1.356 . S
N1500 H1512 0.984 . S
N1500 H1513 0.985 . S
N1501 C1503 1.356 . S
N1501 H1506 0.984 . S
N1501 H1507 0.985 . S
C1502 C1496 1.379 . S
C1502 C1499 1.363 . S
C1502 N1500 1.356 . S
C1503 C1497 1.363 . S
C1503 C1498 1.379 . S
C1503 N1501 1.356 . S
N1504 C1496 1.356 . S
N1504 H1510 0.984 . S
N1504 H1511 0.984 . S
N1505 C1498 1.356 1_655 S
N1505 H1508 0.984 . S
N1505 H1509 0.985 . S
H1506 N1501 0.984 . S
H1507 N1501 0.985 . S
H1508 N1505 0.984 . S
H1509 N1505 0.985 . S
H1510 N1504 0.984 . S
H1511 N1504 0.984 . S
H1512 N1500 0.984 . S
H1513 N1500 0.985 . S
C1514 C1515 1.363 . S
C1514 C1520 1.379 . S
C1514 N1522 1.356 . S
C1515 C1514 1.363 . S
C1515 C1521 1.363 . S
C1516 C1517 1.363 . S
C1516 C1521 1.379 . S
C1516 N1523 1.356 . S
C1517 C1516 1.363 . S
C1517 C1520 1.363 . S
N1518 C1520 1.356 . S
N1518 H1530 0.984 . S
N1518 H1531 0.985 . S
N1519 C1521 1.356 . S
N1519 H1524 0.984 . S
N1519 H1525 0.985 . S
C1520 C1514 1.379 . S
C1520 C1517 1.363 . S
C1520 N1518 1.356 . S
C1521 C1515 1.363 . S
C1521 C1516 1.379 . S
C1521 N1519 1.356 . S
N1522 C1514 1.356 . S
N1522 H1528 0.984 . S
N1522 H1529 0.984 . S
N1523 C1516 1.356 . S
N1523 H1526 0.984 . S
N1523 H1527 0.985 . S
H1524 N1519 0.984 . S
H1525 N1519 0.985 . S
H1526 N1523 0.984 . S
H1527 N1523 0.985 . S
H1528 N1522 0.984 . S
H1529 N1522 0.984 . S
H1530 N1518 0.984 . S
H1531 N1518 0.985 . S
C1532 C1533 1.363 . S
C1532 C1538 1.379 . S
C1532 N1540 1.356 1_455 S
C1533 C1532 1.363 . S
C1533 C1539 1.363 . S
C1534 C1535 1.363 . S
C1534 C1539 1.379 . S
C1534 N1541 1.356 . S
C1535 C1534 1.363 . S
C1535 C1538 1.363 . S
N1536 C1538 1.356 . S
N1536 H1548 0.984 . S
N1536 H1549 0.985 . S
N1537 C1539 1.356 . S
N1537 H1542 0.984 . S
N1537 H1543 0.985 . S
C1538 C1532 1.379 . S
C1538 C1535 1.363 . S
C1538 N1536 1.356 . S
C1539 C1533 1.363 . S
C1539 C1534 1.379 . S
C1539 N1537 1.356 . S
N1540 C1532 1.356 1_655 S
N1540 H1546 0.984 . S
N1540 H1547 0.984 . S
N1541 C1534 1.356 . S
N1541 H1544 0.984 . S
N1541 H1545 0.985 . S
H1542 N1537 0.984 . S
H1543 N1537 0.985 . S
H1544 N1541 0.984 . S
H1545 N1541 0.985 . S
H1546 N1540 0.984 . S
H1547 N1540 0.984 . S
H1548 N1536 0.984 . S
H1549 N1536 0.985 . S
C1550 C1551 1.363 . S
C1550 C1556 1.379 . S
C1550 N1558 1.356 . S
C1551 C1550 1.363 . S
C1551 C1557 1.363 . S
C1552 C1553 1.363 . S
C1552 C1557 1.379 . S
C1552 N1559 1.356 . S
C1553 C1552 1.363 . S
C1553 C1556 1.363 . S
N1554 C1556 1.356 . S
N1554 H1566 0.984 . S
N1554 H1567 0.985 . S
N1555 C1557 1.356 . S
N1555 H1560 0.984 . S
N1555 H1561 0.985 . S
C1556 C1550 1.379 . S
C1556 C1553 1.363 . S
C1556 N1554 1.356 . S
C1557 C1551 1.363 . S
C1557 C1552 1.379 . S
C1557 N1555 1.356 . S
N1558 C1550 1.356 . S
N1558 H1564 0.984 . S
N1558 H1565 0.984 . S
N1559 C1552 1.356 . S
N1559 H1562 0.984 . S
N1559 H1563 0.985 . S
H1560 N1555 0.984 . S
H1561 N1555 0.985 . S
H1562 N1559 0.984 . S
H1563 N1559 0.985 . S
H1564 N1558 0.984 . S
H1565 N1558 0.984 . S
H1566 N1554 0.984 . S
H1567 N1554 0.985 . S
C1568 C1569 1.363 . S
C1568 C1574 1.379 . S
C1568 N1576 1.356 1_455 S
C1569 C1568 1.363 . S
C1569 C1575 1.363 . S
C1570 C1571 1.363 . S
C1570 C1575 1.379 . S
C1570 N1577 1.356 . S
C1571 C1570 1.363 . S
C1571 C1574 1.363 . S
N1572 C1574 1.356 . S
N1572 H1584 0.984 . S
N1572 H1585 0.985 . S
N1573 C1575 1.356 . S
N1573 H1578 0.984 . S
N1573 H1579 0.985 . S
C1574 C1568 1.379 . S
C1574 C1571 1.363 . S
C1574 N1572 1.356 . S
C1575 C1569 1.363 . S
C1575 C1570 1.379 . S
C1575 N1573 1.356 . S
N1576 C1568 1.356 1_655 S
N1576 H1582 0.984 . S
N1576 H1583 0.984 . S
N1577 C1570 1.356 . S
N1577 H1580 0.984 . S
N1577 H1581 0.985 . S
H1578 N1573 0.984 . S
H1579 N1573 0.985 . S
H1580 N1577 0.984 . S
H1581 N1577 0.985 . S
H1582 N1576 0.984 . S
H1583 N1576 0.984 . S
H1584 N1572 0.984 . S
H1585 N1572 0.985 . S
C1586 C1587 1.363 . S
C1586 C1592 1.379 . S
C1586 N1594 1.356 . S
C1587 C1586 1.363 . S
C1587 C1593 1.363 . S
C1588 C1589 1.363 . S
C1588 C1593 1.379 . S
C1588 N1595 1.356 1_455 S
C1589 C1588 1.363 . S
C1589 C1592 1.363 . S
N1590 C1592 1.356 . S
N1590 H1602 0.984 . S
N1590 H1603 0.985 . S
N1591 C1593 1.356 . S
N1591 H1596 0.984 . S
N1591 H1597 0.985 . S
C1592 C1586 1.379 . S
C1592 C1589 1.363 . S
C1592 N1590 1.356 . S
C1593 C1587 1.363 . S
C1593 C1588 1.379 . S
C1593 N1591 1.356 . S
N1594 C1586 1.356 . S
N1594 H1600 0.984 . S
N1594 H1601 0.984 . S
N1595 C1588 1.356 1_655 S
N1595 H1598 0.984 . S
N1595 H1599 0.985 . S
H1596 N1591 0.984 . S
H1597 N1591 0.985 . S
H1598 N1595 0.984 . S
H1599 N1595 0.985 . S
H1600 N1594 0.984 . S
H1601 N1594 0.984 . S
H1602 N1590 0.984 . S
H1603 N1590 0.985 . S
C1604 C1605 1.363 . S
C1604 C1610 1.379 . S
C1604 N1612 1.356 . S
C1605 C1604 1.363 . S
C1605 C1611 1.363 . S
C1606 C1607 1.363 . S
C1606 C1611 1.379 . S
C1606 N1613 1.356 . S
C1607 C1606 1.363 . S
C1607 C1610 1.363 . S
N1608 C1610 1.356 1_455 S
N1608 H1620 0.984 . S
N1608 H1621 0.985 . S
N1609 C1611 1.356 . S
N1609 H1614 0.984 . S
N1609 H1615 0.985 . S
C1610 C1604 1.379 . S
C1610 C1607 1.363 . S
C1610 N1608 1.356 1_655 S
C1611 C1605 1.363 . S
C1611 C1606 1.379 . S
C1611 N1609 1.356 . S
N1612 C1604 1.356 . S
N1612 H1618 0.984 . S
N1612 H1619 0.984 . S
N1613 C1606 1.356 . S
N1613 H1616 0.984 . S
N1613 H1617 0.985 . S
H1614 N1609 0.984 . S
H1615 N1609 0.985 . S
H1616 N1613 0.984 . S
H1617 N1613 0.985 . S
H1618 N1612 0.984 . S
H1619 N1612 0.984 . S
H1620 N1608 0.984 . S
H1621 N1608 0.985 . S
C1622 C1623 1.363 . S
C1622 C1628 1.379 . S
C1622 N1630 1.356 1_655 S
C1623 C1622 1.363 . S
C1623 C1629 1.363 . S
C1624 C1625 1.363 . S
C1624 C1629 1.379 . S
C1624 N1631 1.356 . S
C1625 C1624 1.363 . S
C1625 C1628 1.363 . S
N1626 C1628 1.356 . S
N1626 H1638 0.984 . S
N1626 H1639 0.985 . S
N1627 C1629 1.356 . S
N1627 H1632 0.984 . S
N1627 H1633 0.985 . S
C1628 C1622 1.379 . S
C1628 C1625 1.363 . S
C1628 N1626 1.356 . S
C1629 C1623 1.363 . S
C1629 C1624 1.379 . S
C1629 N1627 1.356 . S
N1630 C1622 1.356 1_455 S
N1630 H1636 0.984 . S
N1630 H1637 0.984 . S
N1631 C1624 1.356 . S
N1631 H1634 0.984 . S
N1631 H1635 0.985 . S
H1632 N1627 0.984 . S
H1633 N1627 0.985 . S
H1634 N1631 0.984 . S
H1635 N1631 0.985 . S
H1636 N1630 0.984 . S
H1637 N1630 0.984 . S
H1638 N1626 0.984 . S
H1639 N1626 0.985 . S
C1640 C1641 1.321 1_565 S
C1640 C1646 1.379 . S
C1640 N1648 1.356 1_455 S
C1641 C1640 1.321 1_545 S
C1641 C1647 1.407 . S
C1642 C1643 1.407 . S
C1642 C1647 1.379 . S
C1642 N1649 1.356 . S
C1643 C1642 1.407 . S
C1643 C1646 1.321 1_545 S
N1644 C1646 1.356 . S
N1644 H1656 0.984 . S
N1644 H1657 0.985 . S
N1645 C1647 1.356 . S
N1645 H1650 0.984 . S
N1645 H1651 0.985 . S
C1646 C1640 1.379 . S
C1646 C1643 1.321 1_565 S
C1646 N1644 1.356 . S
C1647 C1641 1.407 . S
C1647 C1642 1.379 . S
C1647 N1645 1.356 . S
N1648 C1640 1.356 1_655 S
N1648 H1654 0.984 . S
N1648 H1655 0.984 . S
N1649 C1642 1.356 . S
N1649 H1652 0.984 . S
N1649 H1653 0.985 . S
H1650 N1645 0.984 . S
H1651 N1645 0.985 . S
H1652 N1649 0.984 . S
H1653 N1649 0.985 . S
H1654 N1648 0.984 . S
H1655 N1648 0.984 . S
H1656 N1644 0.984 . S
H1657 N1644 0.985 . S
C1658 C1659 1.363 . S
C1658 C1664 1.379 . S
C1658 N1666 1.356 . S
C1659 C1658 1.363 . S
C1659 C1665 1.363 . S
C1660 C1661 1.363 . S
C1660 C1665 1.379 . S
C1660 N1667 1.356 . S
C1661 C1660 1.363 . S
C1661 C1664 1.363 . S
N1662 C1664 1.356 1_655 S
N1662 H1674 0.984 . S
N1662 H1675 0.985 . S
N1663 C1665 1.356 . S
N1663 H1668 0.984 . S
N1663 H1669 0.985 . S
C1664 C1658 1.379 . S
C1664 C1661 1.363 . S
C1664 N1662 1.356 1_455 S
C1665 C1659 1.363 . S
C1665 C1660 1.379 . S
C1665 N1663 1.356 . S
N1666 C1658 1.356 . S
N1666 H1672 0.984 . S
N1666 H1673 0.984 . S
N1667 C1660 1.356 . S
N1667 H1670 0.984 . S
N1667 H1671 0.985 . S
H1668 N1663 0.984 . S
H1669 N1663 0.985 . S
H1670 N1667 0.984 . S
H1671 N1667 0.985 . S
H1672 N1666 0.984 . S
H1673 N1666 0.984 . S
H1674 N1662 0.984 . S
H1675 N1662 0.985 . S
C1676 C1677 1.321 1_545 S
C1676 C1682 1.379 . S
C1676 N1684 1.356 . S
C1677 C1676 1.321 1_565 S
C1677 C1683 1.407 . S
C1678 C1679 1.407 . S
C1678 C1683 1.379 . S
C1678 N1685 1.356 . S
C1679 C1678 1.407 . S
C1679 C1682 1.321 1_565 S
N1680 C1682 1.356 . S
N1680 H1692 0.984 . S
N1680 H1693 0.985 . S
N1681 C1683 1.356 1_455 S
N1681 H1686 0.984 . S
N1681 H1687 0.985 . S
C1682 C1676 1.379 . S
C1682 C1679 1.321 1_545 S
C1682 N1680 1.356 . S
C1683 C1677 1.407 . S
C1683 C1678 1.379 . S
C1683 N1681 1.356 1_655 S
N1684 C1676 1.356 . S
N1684 H1690 0.984 . S
N1684 H1691 0.984 . S
N1685 C1678 1.356 . S
N1685 H1688 0.984 . S
N1685 H1689 0.985 . S
H1686 N1681 0.984 . S
H1687 N1681 0.985 . S
H1688 N1685 0.984 . S
H1689 N1685 0.985 . S
H1690 N1684 0.984 . S
H1691 N1684 0.984 . S
H1692 N1680 0.984 . S
H1693 N1680 0.985 . S
C1694 C1695 1.363 . S
C1694 C1700 1.379 . S
C1694 N1702 1.356 . S
C1695 C1694 1.363 . S
C1695 C1701 1.363 . S
C1696 C1697 1.363 . S
C1696 C1701 1.379 . S
C1696 N1703 1.356 . S
C1697 C1696 1.363 . S
C1697 C1700 1.363 . S
N1698 C1700 1.356 . S
N1698 H1710 0.984 . S
N1698 H1711 0.985 . S
N1699 C1701 1.356 1_455 S
N1699 H1704 0.984 . S
N1699 H1705 0.985 . S
C1700 C1694 1.379 . S
C1700 C1697 1.363 . S
C1700 N1698 1.356 . S
C1701 C1695 1.363 . S
C1701 C1696 1.379 . S
C1701 N1699 1.356 1_655 S
N1702 C1694 1.356 . S
N1702 H1708 0.984 . S
N1702 H1709 0.984 . S
N1703 C1696 1.356 . S
N1703 H1706 0.984 . S
N1703 H1707 0.985 . S
H1704 N1699 0.984 . S
H1705 N1699 0.985 . S
H1706 N1703 0.984 . S
H1707 N1703 0.985 . S
H1708 N1702 0.984 . S
H1709 N1702 0.984 . S
H1710 N1698 0.984 . S
H1711 N1698 0.985 . S
C1712 C1713 1.363 . S
C1712 C1718 1.379 . S
C1712 N1720 1.356 . S
C1713 C1712 1.363 . S
C1713 C1719 1.363 . S
C1714 C1715 1.363 . S
C1714 C1719 1.379 . S
C1714 N1721 1.356 . S
C1715 C1714 1.363 . S
C1715 C1718 1.363 . S
N1716 C1718 1.356 . S
N1716 H1728 0.984 . S
N1716 H1729 0.985 . S
N1717 C1719 1.356 . S
N1717 H1722 0.984 . S
N1717 H1723 0.985 . S
C1718 C1712 1.379 . S
C1718 C1715 1.363 . S
C1718 N1716 1.356 . S
C1719 C1713 1.363 . S
C1719 C1714 1.379 . S
C1719 N1717 1.356 . S
N1720 C1712 1.356 . S
N1720 H1726 0.984 . S
N1720 H1727 0.984 . S
N1721 C1714 1.356 . S
N1721 H1724 0.984 . S
N1721 H1725 0.985 . S
H1722 N1717 0.984 . S
H1723 N1717 0.985 . S
H1724 N1721 0.984 . S
H1725 N1721 0.985 . S
H1726 N1720 0.984 . S
H1727 N1720 0.984 . S
H1728 N1716 0.984 . S
H1729 N1716 0.985 . S
C1730 C1731 1.363 . S
C1730 C1736 1.379 . S
C1730 N1738 1.356 . S
C1731 C1730 1.363 . S
C1731 C1737 1.363 . S
C1732 C1733 1.363 . S
C1732 C1737 1.379 . S
C1732 N1739 1.356 . S
C1733 C1732 1.363 . S
C1733 C1736 1.363 . S
N1734 C1736 1.356 . S
N1734 H1746 0.984 . S
N1734 H1747 0.985 . S
N1735 C1737 1.356 . S
N1735 H1740 0.984 . S
N1735 H1741 0.985 . S
C1736 C1730 1.379 . S
C1736 C1733 1.363 . S
C1736 N1734 1.356 . S
C1737 C1731 1.363 . S
C1737 C1732 1.379 . S
C1737 N1735 1.356 . S
N1738 C1730 1.356 . S
N1738 H1744 0.984 . S
N1738 H1745 0.984 . S
N1739 C1732 1.356 . S
N1739 H1742 0.984 . S
N1739 H1743 0.985 . S
H1740 N1735 0.984 . S
H1741 N1735 0.985 . S
H1742 N1739 0.984 . S
H1743 N1739 0.985 . S
H1744 N1738 0.984 . S
H1745 N1738 0.984 . S
H1746 N1734 0.984 . S
H1747 N1734 0.985 . S
C1748 C1749 1.363 . S
C1748 C1754 1.379 . S
C1748 N1756 1.356 . S
C1749 C1748 1.363 . S
C1749 C1755 1.363 . S
C1750 C1751 1.363 . S
C1750 C1755 1.379 . S
C1750 N1757 1.356 . S
C1751 C1750 1.363 . S
C1751 C1754 1.363 . S
N1752 C1754 1.356 . S
N1752 H1764 0.984 . S
N1752 H1765 0.985 . S
N1753 C1755 1.356 . S
N1753 H1758 0.984 . S
N1753 H1759 0.985 . S
C1754 C1748 1.379 . S
C1754 C1751 1.363 . S
C1754 N1752 1.356 . S
C1755 C1749 1.363 . S
C1755 C1750 1.379 . S
C1755 N1753 1.356 . S
N1756 C1748 1.356 . S
N1756 H1762 0.984 . S
N1756 H1763 0.984 . S
N1757 C1750 1.356 . S
N1757 H1760 0.984 . S
N1757 H1761 0.985 . S
H1758 N1753 0.984 . S
H1759 N1753 0.985 . S
H1760 N1757 0.984 . S
H1761 N1757 0.985 . S
H1762 N1756 0.984 . S
H1763 N1756 0.984 . S
H1764 N1752 0.984 . S
H1765 N1752 0.985 . S
C1766 C1767 1.363 . S
C1766 C1772 1.379 . S
C1766 N1774 1.356 . S
C1767 C1766 1.363 . S
C1767 C1773 1.363 . S
C1768 C1769 1.363 . S
C1768 C1773 1.379 . S
C1768 N1775 1.356 . S
C1769 C1768 1.363 . S
C1769 C1772 1.363 . S
N1770 C1772 1.356 . S
N1770 H1782 0.984 . S
N1770 H1783 0.985 . S
N1771 C1773 1.356 . S
N1771 H1776 0.984 . S
N1771 H1777 0.985 . S
C1772 C1766 1.379 . S
C1772 C1769 1.363 . S
C1772 N1770 1.356 . S
C1773 C1767 1.363 . S
C1773 C1768 1.379 . S
C1773 N1771 1.356 . S
N1774 C1766 1.356 . S
N1774 H1780 0.984 . S
N1774 H1781 0.984 . S
N1775 C1768 1.356 . S
N1775 H1778 0.984 . S
N1775 H1779 0.985 . S
H1776 N1771 0.984 . S
H1777 N1771 0.985 . S
H1778 N1775 0.984 . S
H1779 N1775 0.985 . S
H1780 N1774 0.984 . S
H1781 N1774 0.984 . S
H1782 N1770 0.984 . S
H1783 N1770 0.985 . S
C1784 C1785 1.407 . S
C1784 C1790 1.379 . S
C1784 N1792 1.356 . S
C1785 C1784 1.407 . S
C1785 C1791 1.321 1_545 S
C1786 C1787 1.321 1_565 S
C1786 C1791 1.379 . S
C1786 N1793 1.356 . S
C1787 C1786 1.321 1_545 S
C1787 C1790 1.407 . S
N1788 C1790 1.356 . S
N1788 H1800 0.984 . S
N1788 H1801 0.985 . S
N1789 C1791 1.356 . S
N1789 H1794 0.984 . S
N1789 H1795 0.985 . S
C1790 C1784 1.379 . S
C1790 C1787 1.407 . S
C1790 N1788 1.356 . S
C1791 C1785 1.321 1_565 S
C1791 C1786 1.379 . S
C1791 N1789 1.356 . S
N1792 C1784 1.356 . S
N1792 H1798 0.984 . S
N1792 H1799 0.984 . S
N1793 C1786 1.356 . S
N1793 H1796 0.984 . S
N1793 H1797 0.985 . S
H1794 N1789 0.984 . S
H1795 N1789 0.985 . S
H1796 N1793 0.984 . S
H1797 N1793 0.985 . S
H1798 N1792 0.984 . S
H1799 N1792 0.984 . S
H1800 N1788 0.984 . S
H1801 N1788 0.985 . S
C1802 C1803 1.363 . S
C1802 C1808 1.379 . S
C1802 N1810 1.356 . S
C1803 C1802 1.363 . S
C1803 C1809 1.363 . S
C1804 C1805 1.363 . S
C1804 C1809 1.379 . S
C1804 N1811 1.356 . S
C1805 C1804 1.363 . S
C1805 C1808 1.363 . S
N1806 C1808 1.356 . S
N1806 H1818 0.984 . S
N1806 H1819 0.985 . S
N1807 C1809 1.356 . S
N1807 H1812 0.984 . S
N1807 H1813 0.985 . S
C1808 C1802 1.379 . S
C1808 C1805 1.363 . S
C1808 N1806 1.356 . S
C1809 C1803 1.363 . S
C1809 C1804 1.379 . S
C1809 N1807 1.356 . S
N1810 C1802 1.356 . S
N1810 H1816 0.984 . S
N1810 H1817 0.984 . S
N1811 C1804 1.356 . S
N1811 H1814 0.984 . S
N1811 H1815 0.985 . S
H1812 N1807 0.984 . S
H1813 N1807 0.985 . S
H1814 N1811 0.984 . S
H1815 N1811 0.985 . S
H1816 N1810 0.984 . S
H1817 N1810 0.984 . S
H1818 N1806 0.984 . S
H1819 N1806 0.985 . S
C1820 C1821 1.407 . S
C1820 C1826 1.379 . S
C1820 N1828 1.356 . S
C1821 C1820 1.407 . S
C1821 C1827 1.321 1_565 S
C1822 C1823 1.321 1_545 S
C1822 C1827 1.379 . S
C1822 N1829 1.356 . S
C1823 C1822 1.321 1_565 S
C1823 C1826 1.407 . S
N1824 C1826 1.356 . S
N1824 H1836 0.984 . S
N1824 H1837 0.985 . S
N1825 C1827 1.356 . S
N1825 H1830 0.984 . S
N1825 H1831 0.985 . S
C1826 C1820 1.379 . S
C1826 C1823 1.407 . S
C1826 N1824 1.356 . S
C1827 C1821 1.321 1_545 S
C1827 C1822 1.379 . S
C1827 N1825 1.356 . S
N1828 C1820 1.356 . S
N1828 H1834 0.984 . S
N1828 H1835 0.984 . S
N1829 C1822 1.356 . S
N1829 H1832 0.984 . S
N1829 H1833 0.985 . S
H1830 N1825 0.984 . S
H1831 N1825 0.985 . S
H1832 N1829 0.984 . S
H1833 N1829 0.985 . S
H1834 N1828 0.984 . S
H1835 N1828 0.984 . S
H1836 N1824 0.984 . S
H1837 N1824 0.985 . S
C1838 C1839 1.363 . S
C1838 C1844 1.379 . S
C1838 N1846 1.356 . S
C1839 C1838 1.363 . S
C1839 C1845 1.363 . S
C1840 C1841 1.363 . S
C1840 C1845 1.379 . S
C1840 N1847 1.356 . S
C1841 C1840 1.363 . S
C1841 C1844 1.363 . S
N1842 C1844 1.356 . S
N1842 H1854 0.984 . S
N1842 H1855 0.985 . S
N1843 C1845 1.356 . S
N1843 H1848 0.984 . S
N1843 H1849 0.985 . S
C1844 C1838 1.379 . S
C1844 C1841 1.363 . S
C1844 N1842 1.356 . S
C1845 C1839 1.363 . S
C1845 C1840 1.379 . S
C1845 N1843 1.356 . S
N1846 C1838 1.356 . S
N1846 H1852 0.984 . S
N1846 H1853 0.984 . S
N1847 C1840 1.356 . S
N1847 H1850 0.984 . S
N1847 H1851 0.985 . S
H1848 N1843 0.984 . S
H1849 N1843 0.985 . S
H1850 N1847 0.984 . S
H1851 N1847 0.985 . S
H1852 N1846 0.984 . S
H1853 N1846 0.984 . S
H1854 N1842 0.984 . S
H1855 N1842 0.985 . S
C1856 C1857 1.363 . S
C1856 C1862 1.379 . S
C1856 N1864 1.356 1_455 S
C1857 C1856 1.363 . S
C1857 C1863 1.363 . S
C1858 C1859 1.363 . S
C1858 C1863 1.379 . S
C1858 N1865 1.356 . S
C1859 C1858 1.363 . S
C1859 C1862 1.363 . S
N1860 C1862 1.356 . S
N1860 H1872 0.984 . S
N1860 H1873 0.985 . S
N1861 C1863 1.356 . S
N1861 H1866 0.984 . S
N1861 H1867 0.985 . S
C1862 C1856 1.379 . S
C1862 C1859 1.363 . S
C1862 N1860 1.356 . S
C1863 C1857 1.363 . S
C1863 C1858 1.379 . S
C1863 N1861 1.356 . S
N1864 C1856 1.356 1_655 S
N1864 H1870 0.984 . S
N1864 H1871 0.984 . S
N1865 C1858 1.356 . S
N1865 H1868 0.984 . S
N1865 H1869 0.985 . S
H1866 N1861 0.984 . S
H1867 N1861 0.985 . S
H1868 N1865 0.984 . S
H1869 N1865 0.985 . S
H1870 N1864 0.984 . S
H1871 N1864 0.984 . S
H1872 N1860 0.984 . S
H1873 N1860 0.985 . S
C1874 C1875 1.363 . S
C1874 C1880 1.379 . S
C1874 N1882 1.356 . S
C1875 C1874 1.363 . S
C1875 C1881 1.363 . S
C1876 C1877 1.363 . S
C1876 C1881 1.379 . S
C1876 N1883 1.356 . S
C1877 C1876 1.363 . S
C1877 C1880 1.363 . S
N1878 C1880 1.356 1_655 S
N1878 H1890 0.984 . S
N1878 H1891 0.985 . S
N1879 C1881 1.356 . S
N1879 H1884 0.984 . S
N1879 H1885 0.985 . S
C1880 C1874 1.379 . S
C1880 C1877 1.363 . S
C1880 N1878 1.356 1_455 S
C1881 C1875 1.363 . S
C1881 C1876 1.379 . S
C1881 N1879 1.356 . S
N1882 C1874 1.356 . S
N1882 H1888 0.984 . S
N1882 H1889 0.984 . S
N1883 C1876 1.356 . S
N1883 H1886 0.984 . S
N1883 H1887 0.985 . S
H1884 N1879 0.984 . S
H1885 N1879 0.985 . S
H1886 N1883 0.984 . S
H1887 N1883 0.985 . S
H1888 N1882 0.984 . S
H1889 N1882 0.984 . S
H1890 N1878 0.984 . S
H1891 N1878 0.985 . S
C1892 C1893 1.363 . S
C1892 C1898 1.379 . S
C1892 N1900 1.356 . S
C1893 C1892 1.363 . S
C1893 C1899 1.363 . S
C1894 C1895 1.363 . S
C1894 C1899 1.379 . S
C1894 N1901 1.356 . S
C1895 C1894 1.363 . S
C1895 C1898 1.363 . S
N1896 C1898 1.356 . S
N1896 H1908 0.984 . S
N1896 H1909 0.985 . S
N1897 C1899 1.356 1_455 S
N1897 H1902 0.984 . S
N1897 H1903 0.985 . S
C1898 C1892 1.379 . S
C1898 C1895 1.363 . S
C1898 N1896 1.356 . S
C1899 C1893 1.363 . S
C1899 C1894 1.379 . S
C1899 N1897 1.356 1_655 S
N1900 C1892 1.356 . S
N1900 H1906 0.984 . S
N1900 H1907 0.984 . S
N1901 C1894 1.356 . S
N1901 H1904 0.984 . S
N1901 H1905 0.985 . S
H1902 N1897 0.984 . S
H1903 N1897 0.985 . S
H1904 N1901 0.984 . S
H1905 N1901 0.985 . S
H1906 N1900 0.984 . S
H1907 N1900 0.984 . S
H1908 N1896 0.984 . S
H1909 N1896 0.985 . S
C1910 C1911 1.363 . S
C1910 C1916 1.379 . S
C1910 N1918 1.356 1_655 S
C1911 C1910 1.363 . S
C1911 C1917 1.363 . S
C1912 C1913 1.363 . S
C1912 C1917 1.379 . S
C1912 N1919 1.356 . S
C1913 C1912 1.363 . S
C1913 C1916 1.363 . S
N1914 C1916 1.356 . S
N1914 H1926 0.984 . S
N1914 H1927 0.985 . S
N1915 C1917 1.356 . S
N1915 H1920 0.984 . S
N1915 H1921 0.985 . S
C1916 C1910 1.379 . S
C1916 C1913 1.363 . S
C1916 N1914 1.356 . S
C1917 C1911 1.363 . S
C1917 C1912 1.379 . S
C1917 N1915 1.356 . S
N1918 C1910 1.356 1_455 S
N1918 H1924 0.984 . S
N1918 H1925 0.984 . S
N1919 C1912 1.356 . S
N1919 H1922 0.984 . S
N1919 H1923 0.985 . S
H1920 N1915 0.984 . S
H1921 N1915 0.985 . S
H1922 N1919 0.984 . S
H1923 N1919 0.985 . S
H1924 N1918 0.984 . S
H1925 N1918 0.984 . S
H1926 N1914 0.984 . S
H1927 N1914 0.985 . S
C1928 C1929 1.363 . S
C1928 C1934 1.379 . S
C1928 N1936 1.356 . S
C1929 C1928 1.363 . S
C1929 C1935 1.363 . S
C1930 C1931 1.363 . S
C1930 C1935 1.379 . S
C1930 N1937 1.356 1_455 S
C1931 C1930 1.363 . S
C1931 C1934 1.363 . S
N1932 C1934 1.356 . S
N1932 H1944 0.984 . S
N1932 H1945 0.985 . S
N1933 C1935 1.356 . S
N1933 H1938 0.984 . S
N1933 H1939 0.985 . S
C1934 C1928 1.379 . S
C1934 C1931 1.363 . S
C1934 N1932 1.356 . S
C1935 C1929 1.363 . S
C1935 C1930 1.379 . S
C1935 N1933 1.356 . S
N1936 C1928 1.356 . S
N1936 H1942 0.984 . S
N1936 H1943 0.984 . S
N1937 C1930 1.356 1_655 S
N1937 H1940 0.984 . S
N1937 H1941 0.985 . S
H1938 N1933 0.984 . S
H1939 N1933 0.985 . S
H1940 N1937 0.984 . S
H1941 N1937 0.985 . S
H1942 N1936 0.984 . S
H1943 N1936 0.984 . S
H1944 N1932 0.984 . S
H1945 N1932 0.985 . S
C1946 C1947 1.363 . S
C1946 C1952 1.379 . S
C1946 N1954 1.356 . S
C1947 C1946 1.363 . S
C1947 C1953 1.363 . S
C1948 C1949 1.363 . S
C1948 C1953 1.379 . S
C1948 N1955 1.356 1_455 S
C1949 C1948 1.363 . S
C1949 C1952 1.363 . S
N1950 C1952 1.356 . S
N1950 H1962 0.984 . S
N1950 H1963 0.985 . S
N1951 C1953 1.356 . S
N1951 H1956 0.984 . S
N1951 H1957 0.985 . S
C1952 C1946 1.379 . S
C1952 C1949 1.363 . S
C1952 N1950 1.356 . S
C1953 C1947 1.363 . S
C1953 C1948 1.379 . S
C1953 N1951 1.356 . S
N1954 C1946 1.356 . S
N1954 H1960 0.984 . S
N1954 H1961 0.984 . S
N1955 C1948 1.356 1_655 S
N1955 H1958 0.984 . S
N1955 H1959 0.985 . S
H1956 N1951 0.984 . S
H1957 N1951 0.985 . S
H1958 N1955 0.984 . S
H1959 N1955 0.985 . S
H1960 N1954 0.984 . S
H1961 N1954 0.984 . S
H1962 N1950 0.984 . S
H1963 N1950 0.985 . S
C1964 C1965 1.363 . S
C1964 C1970 1.379 . S
C1964 N1972 1.356 . S
C1965 C1964 1.363 . S
C1965 C1971 1.363 . S
C1966 C1967 1.363 . S
C1966 C1971 1.379 . S
C1966 N1973 1.356 . S
C1967 C1966 1.363 . S
C1967 C1970 1.363 . S
N1968 C1970 1.356 . S
N1968 H1980 0.984 . S
N1968 H1981 0.985 . S
N1969 C1971 1.356 1_455 S
N1969 H1974 0.984 . S
N1969 H1975 0.985 . S
C1970 C1964 1.379 . S
C1970 C1967 1.363 . S
C1970 N1968 1.356 . S
C1971 C1965 1.363 . S
C1971 C1966 1.379 . S
C1971 N1969 1.356 1_655 S
N1972 C1964 1.356 . S
N1972 H1978 0.984 . S
N1972 H1979 0.984 . S
N1973 C1966 1.356 . S
N1973 H1976 0.984 . S
N1973 H1977 0.985 . S
H1974 N1969 0.984 . S
H1975 N1969 0.985 . S
H1976 N1973 0.984 . S
H1977 N1973 0.985 . S
H1978 N1972 0.984 . S
H1979 N1972 0.984 . S
H1980 N1968 0.984 . S
H1981 N1968 0.985 . S
C1982 C1983 1.363 . S
C1982 C1988 1.379 . S
C1982 N1990 1.356 . S
C1983 C1982 1.363 . S
C1983 C1989 1.363 . S
C1984 C1985 1.363 . S
C1984 C1989 1.379 . S
C1984 N1991 1.356 . S
C1985 C1984 1.363 . S
C1985 C1988 1.363 . S
N1986 C1988 1.356 1_455 S
N1986 H1998 0.984 . S
N1986 H1999 0.985 . S
N1987 C1989 1.356 . S
N1987 H1992 0.984 . S
N1987 H1993 0.985 . S
C1988 C1982 1.379 . S
C1988 C1985 1.363 . S
C1988 N1986 1.356 1_655 S
C1989 C1983 1.363 . S
C1989 C1984 1.379 . S
C1989 N1987 1.356 . S
N1990 C1982 1.356 . S
N1990 H1996 0.984 . S
N1990 H1997 0.984 . S
N1991 C1984 1.356 . S
N1991 H1994 0.984 . S
N1991 H1995 0.985 . S
H1992 N1987 0.984 . S
H1993 N1987 0.985 . S
H1994 N1991 0.984 . S
H1995 N1991 0.985 . S
H1996 N1990 0.984 . S
H1997 N1990 0.984 . S
H1998 N1986 0.984 . S
H1999 N1986 0.985 . S
C2000 C2001 1.363 . S
C2000 C2006 1.379 . S
C2000 N2008 1.356 . S
C2001 C2000 1.363 . S
C2001 C2007 1.363 . S
C2002 C2003 1.363 . S
C2002 C2007 1.379 . S
C2002 N2009 1.356 . S
C2003 C2002 1.363 . S
C2003 C2006 1.363 . S
N2004 C2006 1.356 . S
N2004 H2016 0.984 . S
N2004 H2017 0.985 . S
N2005 C2007 1.356 . S
N2005 H2010 0.984 . S
N2005 H2011 0.985 . S
C2006 C2000 1.379 . S
C2006 C2003 1.363 . S
C2006 N2004 1.356 . S
C2007 C2001 1.363 . S
C2007 C2002 1.379 . S
C2007 N2005 1.356 . S
N2008 C2000 1.356 . S
N2008 H2014 0.984 . S
N2008 H2015 0.984 . S
N2009 C2002 1.356 . S
N2009 H2012 0.984 . S
N2009 H2013 0.985 . S
H2010 N2005 0.984 . S
H2011 N2005 0.985 . S
H2012 N2009 0.984 . S
H2013 N2009 0.985 . S
H2014 N2008 0.984 . S
H2015 N2008 0.984 . S
H2016 N2004 0.984 . S
H2017 N2004 0.985 . S
C2018 C2019 1.363 . S
C2018 C2024 1.379 . S
C2018 N2026 1.356 . S
C2019 C2018 1.363 . S
C2019 C2025 1.363 . S
C2020 C2021 1.363 . S
C2020 C2025 1.379 . S
C2020 N2027 1.356 . S
C2021 C2020 1.363 . S
C2021 C2024 1.363 . S
N2022 C2024 1.356 . S
N2022 H2034 0.984 . S
N2022 H2035 0.985 . S
N2023 C2025 1.356 . S
N2023 H2028 0.984 . S
N2023 H2029 0.985 . S
C2024 C2018 1.379 . S
C2024 C2021 1.363 . S
C2024 N2022 1.356 . S
C2025 C2019 1.363 . S
C2025 C2020 1.379 . S
C2025 N2023 1.356 . S
N2026 C2018 1.356 . S
N2026 H2032 0.984 . S
N2026 H2033 0.984 . S
N2027 C2020 1.356 . S
N2027 H2030 0.984 . S
N2027 H2031 0.985 . S
H2028 N2023 0.984 . S
H2029 N2023 0.985 . S
H2030 N2027 0.984 . S
H2031 N2027 0.985 . S
H2032 N2026 0.984 . S
H2033 N2026 0.984 . S
H2034 N2022 0.984 . S
H2035 N2022 0.985 . S
C2036 C2037 1.363 . S
C2036 C2042 1.379 . S
C2036 N2044 1.356 . S
C2037 C2036 1.363 . S
C2037 C2043 1.363 . S
C2038 C2039 1.363 . S
C2038 C2043 1.379 . S
C2038 N2045 1.356 . S
C2039 C2038 1.363 . S
C2039 C2042 1.363 . S
N2040 C2042 1.356 . S
N2040 H2052 0.984 . S
N2040 H2053 0.985 . S
N2041 C2043 1.356 . S
N2041 H2046 0.984 . S
N2041 H2047 0.985 . S
C2042 C2036 1.379 . S
C2042 C2039 1.363 . S
C2042 N2040 1.356 . S
C2043 C2037 1.363 . S
C2043 C2038 1.379 . S
C2043 N2041 1.356 . S
N2044 C2036 1.356 . S
N2044 H2050 0.984 . S
N2044 H2051 0.984 . S
N2045 C2038 1.356 . S
N2045 H2048 0.984 . S
N2045 H2049 0.985 . S
H2046 N2041 0.984 . S
H2047 N2041 0.985 . S
H2048 N2045 0.984 . S
H2049 N2045 0.985 . S
H2050 N2044 0.984 . S
H2051 N2044 0.984 . S
H2052 N2040 0.984 . S
H2053 N2040 0.985 . S
C2054 C2055 1.363 . S
C2054 C2060 1.379 . S
C2054 N2062 1.356 . S
C2055 C2054 1.363 . S
C2055 C2061 1.363 . S
C2056 C2057 1.363 . S
C2056 C2061 1.379 . S
C2056 N2063 1.356 . S
C2057 C2056 1.363 . S
C2057 C2060 1.363 . S
N2058 C2060 1.356 . S
N2058 H2070 0.984 . S
N2058 H2071 0.985 . S
N2059 C2061 1.356 . S
N2059 H2064 0.984 . S
N2059 H2065 0.985 . S
C2060 C2054 1.379 . S
C2060 C2057 1.363 . S
C2060 N2058 1.356 . S
C2061 C2055 1.363 . S
C2061 C2056 1.379 . S
C2061 N2059 1.356 . S
N2062 C2054 1.356 . S
N2062 H2068 0.984 . S
N2062 H2069 0.984 . S
N2063 C2056 1.356 . S
N2063 H2066 0.984 . S
N2063 H2067 0.985 . S
H2064 N2059 0.984 . S
H2065 N2059 0.985 . S
H2066 N2063 0.984 . S
H2067 N2063 0.985 . S
H2068 N2062 0.984 . S
H2069 N2062 0.984 . S
H2070 N2058 0.984 . S
H2071 N2058 0.985 . S
C2072 C2073 1.363 . S
C2072 C2078 1.379 . S
C2072 N2080 1.356 . S
C2073 C2072 1.363 . S
C2073 C2079 1.363 . S
C2074 C2075 1.363 . S
C2074 C2079 1.379 . S
C2074 N2081 1.356 . S
C2075 C2074 1.363 . S
C2075 C2078 1.363 . S
N2076 C2078 1.356 . S
N2076 H2088 0.984 . S
N2076 H2089 0.985 . S
N2077 C2079 1.356 . S
N2077 H2082 0.984 . S
N2077 H2083 0.985 . S
C2078 C2072 1.379 . S
C2078 C2075 1.363 . S
C2078 N2076 1.356 . S
C2079 C2073 1.363 . S
C2079 C2074 1.379 . S
C2079 N2077 1.356 . S
N2080 C2072 1.356 . S
N2080 H2086 0.984 . S
N2080 H2087 0.984 . S
N2081 C2074 1.356 . S
N2081 H2084 0.984 . S
N2081 H2085 0.985 . S
H2082 N2077 0.984 . S
H2083 N2077 0.985 . S
H2084 N2081 0.984 . S
H2085 N2081 0.985 . S
H2086 N2080 0.984 . S
H2087 N2080 0.984 . S
H2088 N2076 0.984 . S
H2089 N2076 0.985 . S
C2090 C2091 1.363 . S
C2090 C2096 1.379 . S
C2090 N2098 1.356 . S
C2091 C2090 1.363 . S
C2091 C2097 1.363 . S
C2092 C2093 1.363 . S
C2092 C2097 1.379 . S
C2092 N2099 1.356 . S
C2093 C2092 1.363 . S
C2093 C2096 1.363 . S
N2094 C2096 1.356 . S
N2094 H2106 0.984 . S
N2094 H2107 0.985 . S
N2095 C2097 1.356 . S
N2095 H2100 0.984 . S
N2095 H2101 0.985 . S
C2096 C2090 1.379 . S
C2096 C2093 1.363 . S
C2096 N2094 1.356 . S
C2097 C2091 1.363 . S
C2097 C2092 1.379 . S
C2097 N2095 1.356 . S
N2098 C2090 1.356 . S
N2098 H2104 0.984 . S
N2098 H2105 0.984 . S
N2099 C2092 1.356 . S
N2099 H2102 0.984 . S
N2099 H2103 0.985 . S
H2100 N2095 0.984 . S
H2101 N2095 0.985 . S
H2102 N2099 0.984 . S
H2103 N2099 0.985 . S
H2104 N2098 0.984 . S
H2105 N2098 0.984 . S
H2106 N2094 0.984 . S
H2107 N2094 0.985 . S
C2108 C2109 1.363 . S
C2108 C2114 1.379 . S
C2108 N2116 1.356 . S
C2109 C2108 1.363 . S
C2109 C2115 1.363 . S
C2110 C2111 1.363 . S
C2110 C2115 1.379 . S
C2110 N2117 1.356 . S
C2111 C2110 1.363 . S
C2111 C2114 1.363 . S
N2112 C2114 1.356 . S
N2112 H2124 0.984 . S
N2112 H2125 0.985 . S
N2113 C2115 1.356 . S
N2113 H2118 0.984 . S
N2113 H2119 0.985 . S
C2114 C2108 1.379 . S
C2114 C2111 1.363 . S
C2114 N2112 1.356 . S
C2115 C2109 1.363 . S
C2115 C2110 1.379 . S
C2115 N2113 1.356 . S
N2116 C2108 1.356 . S
N2116 H2122 0.984 . S
N2116 H2123 0.984 . S
N2117 C2110 1.356 . S
N2117 H2120 0.984 . S
N2117 H2121 0.985 . S
H2118 N2113 0.984 . S
H2119 N2113 0.985 . S
H2120 N2117 0.984 . S
H2121 N2117 0.985 . S
H2122 N2116 0.984 . S
H2123 N2116 0.984 . S
H2124 N2112 0.984 . S
H2125 N2112 0.985 . S
C2126 C2127 1.363 . S
C2126 C2132 1.379 . S
C2126 N2134 1.356 . S
C2127 C2126 1.363 . S
C2127 C2133 1.363 . S
C2128 C2129 1.363 . S
C2128 C2133 1.379 . S
C2128 N2135 1.356 . S
C2129 C2128 1.363 . S
C2129 C2132 1.363 . S
N2130 C2132 1.356 . S
N2130 H2142 0.984 . S
N2130 H2143 0.985 . S
N2131 C2133 1.356 . S
N2131 H2136 0.984 . S
N2131 H2137 0.985 . S
C2132 C2126 1.379 . S
C2132 C2129 1.363 . S
C2132 N2130 1.356 . S
C2133 C2127 1.363 . S
C2133 C2128 1.379 . S
C2133 N2131 1.356 . S
N2134 C2126 1.356 . S
N2134 H2140 0.984 . S
N2134 H2141 0.984 . S
N2135 C2128 1.356 . S
N2135 H2138 0.984 . S
N2135 H2139 0.985 . S
H2136 N2131 0.984 . S
H2137 N2131 0.985 . S
H2138 N2135 0.984 . S
H2139 N2135 0.985 . S
H2140 N2134 0.984 . S
H2141 N2134 0.984 . S
H2142 N2130 0.984 . S
H2143 N2130 0.985 . S
C2144 C2145 1.363 . S
C2144 C2150 1.379 . S
C2144 N2152 1.356 . S
C2145 C2144 1.363 . S
C2145 C2151 1.363 . S
C2146 C2147 1.363 . S
C2146 C2151 1.379 . S
C2146 N2153 1.356 . S
C2147 C2146 1.363 . S
C2147 C2150 1.363 . S
N2148 C2150 1.356 . S
N2148 H2160 0.984 . S
N2148 H2161 0.985 . S
N2149 C2151 1.356 . S
N2149 H2154 0.984 . S
N2149 H2155 0.985 . S
C2150 C2144 1.379 . S
C2150 C2147 1.363 . S
C2150 N2148 1.356 . S
C2151 C2145 1.363 . S
C2151 C2146 1.379 . S
C2151 N2149 1.356 . S
N2152 C2144 1.356 . S
N2152 H2158 0.984 . S
N2152 H2159 0.984 . S
N2153 C2146 1.356 . S
N2153 H2156 0.984 . S
N2153 H2157 0.985 . S
H2154 N2149 0.984 . S
H2155 N2149 0.985 . S
H2156 N2153 0.984 . S
H2157 N2153 0.985 . S
H2158 N2152 0.984 . S
H2159 N2152 0.984 . S
H2160 N2148 0.984 . S
H2161 N2148 0.985 . S
C2162 C2163 1.363 . S
C2162 C2168 1.379 . S
C2162 N2170 1.356 . S
C2163 C2162 1.363 . S
C2163 C2169 1.363 . S
C2164 C2165 1.363 . S
C2164 C2169 1.379 . S
C2164 N2171 1.356 . S
C2165 C2164 1.363 . S
C2165 C2168 1.363 . S
N2166 C2168 1.356 . S
N2166 H2178 0.984 . S
N2166 H2179 0.985 . S
N2167 C2169 1.356 . S
N2167 H2172 0.984 . S
N2167 H2173 0.985 . S
C2168 C2162 1.379 . S
C2168 C2165 1.363 . S
C2168 N2166 1.356 . S
C2169 C2163 1.363 . S
C2169 C2164 1.379 . S
C2169 N2167 1.356 . S
N2170 C2162 1.356 . S
N2170 H2176 0.984 . S
N2170 H2177 0.984 . S
N2171 C2164 1.356 . S
N2171 H2174 0.984 . S
N2171 H2175 0.985 . S
H2172 N2167 0.984 . S
H2173 N2167 0.985 . S
H2174 N2171 0.984 . S
H2175 N2171 0.985 . S
H2176 N2170 0.984 . S
H2177 N2170 0.984 . S
H2178 N2166 0.984 . S
H2179 N2166 0.985 . S
C2180 C2181 1.363 . S
C2180 C2186 1.379 . S
C2180 N2188 1.356 . S
C2181 C2180 1.363 . S
C2181 C2187 1.363 . S
C2182 C2183 1.363 . S
C2182 C2187 1.379 . S
C2182 N2189 1.356 . S
C2183 C2182 1.363 . S
C2183 C2186 1.363 . S
N2184 C2186 1.356 . S
N2184 H2196 0.984 . S
N2184 H2197 0.985 . S
N2185 C2187 1.356 . S
N2185 H2190 0.984 . S
N2185 H2191 0.985 . S
C2186 C2180 1.379 . S
C2186 C2183 1.363 . S
C2186 N2184 1.356 . S
C2187 C2181 1.363 . S
C2187 C2182 1.379 . S
C2187 N2185 1.356 . S
N2188 C2180 1.356 . S
N2188 H2194 0.984 . S
N2188 H2195 0.984 . S
N2189 C2182 1.356 . S
N2189 H2192 0.984 . S
N2189 H2193 0.985 . S
H2190 N2185 0.984 . S
H2191 N2185 0.985 . S
H2192 N2189 0.984 . S
H2193 N2189 0.985 . S
H2194 N2188 0.984 . S
H2195 N2188 0.984 . S
H2196 N2184 0.984 . S
H2197 N2184 0.985 . S
C2198 C2199 1.363 . S
C2198 C2204 1.379 . S
C2198 N2206 1.356 . S
C2199 C2198 1.363 . S
C2199 C2205 1.363 . S
C2200 C2201 1.363 . S
C2200 C2205 1.379 . S
C2200 N2207 1.356 . S
C2201 C2200 1.363 . S
C2201 C2204 1.363 . S
N2202 C2204 1.356 . S
N2202 H2214 0.984 . S
N2202 H2215 0.985 . S
N2203 C2205 1.356 . S
N2203 H2208 0.984 . S
N2203 H2209 0.985 . S
C2204 C2198 1.379 . S
C2204 C2201 1.363 . S
C2204 N2202 1.356 . S
C2205 C2199 1.363 . S
C2205 C2200 1.379 . S
C2205 N2203 1.356 . S
N2206 C2198 1.356 . S
N2206 H2212 0.984 . S
N2206 H2213 0.984 . S
N2207 C2200 1.356 . S
N2207 H2210 0.984 . S
N2207 H2211 0.985 . S
H2208 N2203 0.984 . S
H2209 N2203 0.985 . S
H2210 N2207 0.984 . S
H2211 N2207 0.985 . S
H2212 N2206 0.984 . S
H2213 N2206 0.984 . S
H2214 N2202 0.984 . S
H2215 N2202 0.985 . S
C2216 C2217 1.363 . S
C2216 C2222 1.379 . S
C2216 N2224 1.356 . S
C2217 C2216 1.363 . S
C2217 C2223 1.363 . S
C2218 C2219 1.363 . S
C2218 C2223 1.379 . S
C2218 N2225 1.356 . S
C2219 C2218 1.363 . S
C2219 C2222 1.363 . S
N2220 C2222 1.356 . S
N2220 H2232 0.984 . S
N2220 H2233 0.985 . S
N2221 C2223 1.356 . S
N2221 H2226 0.984 . S
N2221 H2227 0.985 . S
C2222 C2216 1.379 . S
C2222 C2219 1.363 . S
C2222 N2220 1.356 . S
C2223 C2217 1.363 . S
C2223 C2218 1.379 . S
C2223 N2221 1.356 . S
N2224 C2216 1.356 . S
N2224 H2230 0.984 . S
N2224 H2231 0.984 . S
N2225 C2218 1.356 . S
N2225 H2228 0.984 . S
N2225 H2229 0.985 . S
H2226 N2221 0.984 . S
H2227 N2221 0.985 . S
H2228 N2225 0.984 . S
H2229 N2225 0.985 . S
H2230 N2224 0.984 . S
H2231 N2224 0.984 . S
H2232 N2220 0.984 . S
H2233 N2220 0.985 . S
C2234 C2235 1.363 . S
C2234 C2240 1.379 . S
C2234 N2242 1.356 . S
C2235 C2234 1.363 . S
C2235 C2241 1.363 . S
C2236 C2237 1.363 . S
C2236 C2241 1.379 . S
C2236 N2243 1.356 . S
C2237 C2236 1.363 . S
C2237 C2240 1.363 . S
N2238 C2240 1.356 . S
N2238 H2250 0.984 . S
N2238 H2251 0.985 . S
N2239 C2241 1.356 . S
N2239 H2244 0.984 . S
N2239 H2245 0.985 . S
C2240 C2234 1.379 . S
C2240 C2237 1.363 . S
C2240 N2238 1.356 . S
C2241 C2235 1.363 . S
C2241 C2236 1.379 . S
C2241 N2239 1.356 . S
N2242 C2234 1.356 . S
N2242 H2248 0.984 . S
N2242 H2249 0.984 . S
N2243 C2236 1.356 . S
N2243 H2246 0.984 . S
N2243 H2247 0.985 . S
H2244 N2239 0.984 . S
H2245 N2239 0.985 . S
H2246 N2243 0.984 . S
H2247 N2243 0.985 . S
H2248 N2242 0.984 . S
H2249 N2242 0.984 . S
H2250 N2238 0.984 . S
H2251 N2238 0.985 . S
C2252 C2253 1.363 . S
C2252 C2258 1.379 . S
C2252 N2260 1.356 . S
C2253 C2252 1.363 . S
C2253 C2259 1.363 . S
C2254 C2255 1.363 . S
C2254 C2259 1.379 . S
C2254 N2261 1.356 . S
C2255 C2254 1.363 . S
C2255 C2258 1.363 . S
N2256 C2258 1.356 . S
N2256 H2268 0.984 . S
N2256 H2269 0.985 . S
N2257 C2259 1.356 . S
N2257 H2262 0.984 . S
N2257 H2263 0.985 . S
C2258 C2252 1.379 . S
C2258 C2255 1.363 . S
C2258 N2256 1.356 . S
C2259 C2253 1.363 . S
C2259 C2254 1.379 . S
C2259 N2257 1.356 . S
N2260 C2252 1.356 . S
N2260 H2266 0.984 . S
N2260 H2267 0.984 . S
N2261 C2254 1.356 . S
N2261 H2264 0.984 . S
N2261 H2265 0.985 . S
H2262 N2257 0.984 . S
H2263 N2257 0.985 . S
H2264 N2261 0.984 . S
H2265 N2261 0.985 . S
H2266 N2260 0.984 . S
H2267 N2260 0.984 . S
H2268 N2256 0.984 . S
H2269 N2256 0.985 . S
C2270 C2271 1.363 . S
C2270 C2276 1.379 . S
C2270 N2278 1.356 . S
C2271 C2270 1.363 . S
C2271 C2277 1.363 . S
C2272 C2273 1.363 . S
C2272 C2277 1.379 . S
C2272 N2279 1.356 . S
C2273 C2272 1.363 . S
C2273 C2276 1.363 . S
N2274 C2276 1.356 . S
N2274 H2286 0.984 . S
N2274 H2287 0.985 . S
N2275 C2277 1.356 . S
N2275 H2280 0.984 . S
N2275 H2281 0.985 . S
C2276 C2270 1.379 . S
C2276 C2273 1.363 . S
C2276 N2274 1.356 . S
C2277 C2271 1.363 . S
C2277 C2272 1.379 . S
C2277 N2275 1.356 . S
N2278 C2270 1.356 . S
N2278 H2284 0.984 . S
N2278 H2285 0.984 . S
N2279 C2272 1.356 . S
N2279 H2282 0.984 . S
N2279 H2283 0.985 . S
H2280 N2275 0.984 . S
H2281 N2275 0.985 . S
H2282 N2279 0.984 . S
H2283 N2279 0.985 . S
H2284 N2278 0.984 . S
H2285 N2278 0.984 . S
H2286 N2274 0.984 . S
H2287 N2274 0.985 . S
C2288 C2289 1.363 . S
C2288 C2294 1.379 . S
C2288 N2296 1.356 . S
C2289 C2288 1.363 . S
C2289 C2295 1.363 1_545 S
C2290 C2291 1.363 . S
C2290 C2295 1.379 . S
C2290 N2297 1.356 . S
C2291 C2290 1.363 . S
C2291 C2294 1.363 1_565 S
N2292 C2294 1.356 . S
N2292 H2304 0.984 . S
N2292 H2305 0.985 . S
N2293 C2295 1.356 . S
N2293 H2298 0.984 . S
N2293 H2299 0.985 . S
C2294 C2288 1.379 . S
C2294 C2291 1.363 1_545 S
C2294 N2292 1.356 . S
C2295 C2289 1.363 1_565 S
C2295 C2290 1.379 . S
C2295 N2293 1.356 . S
N2296 C2288 1.356 . S
N2296 H2302 0.984 . S
N2296 H2303 0.984 . S
N2297 C2290 1.356 . S
N2297 H2300 0.984 . S
N2297 H2301 0.985 . S
H2298 N2293 0.984 . S
H2299 N2293 0.985 . S
H2300 N2297 0.984 . S
H2301 N2297 0.985 . S
H2302 N2296 0.984 . S
H2303 N2296 0.984 . S
H2304 N2292 0.984 . S
H2305 N2292 0.985 . S
C2306 C2307 1.363 . S
C2306 C2312 1.379 . S
C2306 N2314 1.356 . S
C2307 C2306 1.363 . S
C2307 C2313 1.363 . S
C2308 C2309 1.363 . S
C2308 C2313 1.379 . S
C2308 N2315 1.356 . S
C2309 C2308 1.363 . S
C2309 C2312 1.363 . S
N2310 C2312 1.356 . S
N2310 H2322 0.984 . S
N2310 H2323 0.985 . S
N2311 C2313 1.356 . S
N2311 H2316 0.984 . S
N2311 H2317 0.985 . S
C2312 C2306 1.379 . S
C2312 C2309 1.363 . S
C2312 N2310 1.356 . S
C2313 C2307 1.363 . S
C2313 C2308 1.379 . S
C2313 N2311 1.356 . S
N2314 C2306 1.356 . S
N2314 H2320 0.984 . S
N2314 H2321 0.984 . S
N2315 C2308 1.356 . S
N2315 H2318 0.984 . S
N2315 H2319 0.985 . S
H2316 N2311 0.984 . S
H2317 N2311 0.985 . S
H2318 N2315 0.984 . S
H2319 N2315 0.985 . S
H2320 N2314 0.984 . S
H2321 N2314 0.984 . S
H2322 N2310 0.984 . S
H2323 N2310 0.985 . S
C2324 C2325 1.363 . S
C2324 C2330 1.379 . S
C2324 N2332 1.356 . S
C2325 C2324 1.363 . S
C2325 C2331 1.363 . S
C2326 C2327 1.363 . S
C2326 C2331 1.379 . S
C2326 N2333 1.356 . S
C2327 C2326 1.363 . S
C2327 C2330 1.363 . S
N2328 C2330 1.356 . S
N2328 H2340 0.984 . S
N2328 H2341 0.985 . S
N2329 C2331 1.356 . S
N2329 H2334 0.984 . S
N2329 H2335 0.985 . S
C2330 C2324 1.379 . S
C2330 C2327 1.363 . S
C2330 N2328 1.356 . S
C2331 C2325 1.363 . S
C2331 C2326 1.379 . S
C2331 N2329 1.356 . S
N2332 C2324 1.356 . S
N2332 H2338 0.984 . S
N2332 H2339 0.984 . S
N2333 C2326 1.356 . S
N2333 H2336 0.984 . S
N2333 H2337 0.985 . S
H2334 N2329 0.984 . S
H2335 N2329 0.985 . S
H2336 N2333 0.984 . S
H2337 N2333 0.985 . S
H2338 N2332 0.984 . S
H2339 N2332 0.984 . S
H2340 N2328 0.984 . S
H2341 N2328 0.985 . S
C2342 C2343 1.363 1_565 S
C2342 C2348 1.379 . S
C2342 N2350 1.356 . S
C2343 C2342 1.363 1_545 S
C2343 C2349 1.363 . S
C2344 C2345 1.363 1_545 S
C2344 C2349 1.379 . S
C2344 N2351 1.356 . S
C2345 C2344 1.363 1_565 S
C2345 C2348 1.363 . S
N2346 C2348 1.356 . S
N2346 H2358 0.984 . S
N2346 H2359 0.985 . S
N2347 C2349 1.356 . S
N2347 H2352 0.984 . S
N2347 H2353 0.985 . S
C2348 C2342 1.379 . S
C2348 C2345 1.363 . S
C2348 N2346 1.356 . S
C2349 C2343 1.363 . S
C2349 C2344 1.379 . S
C2349 N2347 1.356 . S
N2350 C2342 1.356 . S
N2350 H2356 0.984 . S
N2350 H2357 0.984 . S
N2351 C2344 1.356 . S
N2351 H2354 0.984 . S
N2351 H2355 0.985 . S
H2352 N2347 0.984 . S
H2353 N2347 0.985 . S
H2354 N2351 0.984 . S
H2355 N2351 0.985 . S
H2356 N2350 0.984 . S
H2357 N2350 0.984 . S
H2358 N2346 0.984 . S
H2359 N2346 0.985 . S
C2360 C2361 1.363 . S
C2360 C2366 1.379 . S
C2360 N2368 1.356 . S
C2361 C2360 1.363 . S
C2361 C2367 1.363 1_565 S
C2362 C2363 1.363 . S
C2362 C2367 1.379 . S
C2362 N2369 1.356 . S
C2363 C2362 1.363 . S
C2363 C2366 1.363 1_545 S
N2364 C2366 1.356 . S
N2364 H2376 0.984 . S
N2364 H2377 0.985 . S
N2365 C2367 1.356 . S
N2365 H2370 0.984 . S
N2365 H2371 0.985 . S
C2366 C2360 1.379 . S
C2366 C2363 1.363 1_565 S
C2366 N2364 1.356 . S
C2367 C2361 1.363 1_545 S
C2367 C2362 1.379 . S
C2367 N2365 1.356 . S
N2368 C2360 1.356 . S
N2368 H2374 0.984 . S
N2368 H2375 0.984 . S
N2369 C2362 1.356 . S
N2369 H2372 0.984 . S
N2369 H2373 0.985 . S
H2370 N2365 0.984 . S
H2371 N2365 0.985 . S
H2372 N2369 0.984 . S
H2373 N2369 0.985 . S
H2374 N2368 0.984 . S
H2375 N2368 0.984 . S
H2376 N2364 0.984 . S
H2377 N2364 0.985 . S
C2378 C2379 1.363 . S
C2378 C2384 1.379 . S
C2378 N2386 1.356 . S
C2379 C2378 1.363 . S
C2379 C2385 1.363 . S
C2380 C2381 1.363 . S
C2380 C2385 1.379 . S
C2380 N2387 1.356 . S
C2381 C2380 1.363 . S
C2381 C2384 1.363 . S
N2382 C2384 1.356 . S
N2382 H2394 0.984 . S
N2382 H2395 0.985 . S
N2383 C2385 1.356 . S
N2383 H2388 0.984 . S
N2383 H2389 0.985 . S
C2384 C2378 1.379 . S
C2384 C2381 1.363 . S
C2384 N2382 1.356 . S
C2385 C2379 1.363 . S
C2385 C2380 1.379 . S
C2385 N2383 1.356 . S
N2386 C2378 1.356 . S
N2386 H2392 0.984 . S
N2386 H2393 0.984 . S
N2387 C2380 1.356 . S
N2387 H2390 0.984 . S
N2387 H2391 0.985 . S
H2388 N2383 0.984 . S
H2389 N2383 0.985 . S
H2390 N2387 0.984 . S
H2391 N2387 0.985 . S
H2392 N2386 0.984 . S
H2393 N2386 0.984 . S
H2394 N2382 0.984 . S
H2395 N2382 0.985 . S
C2396 C2397 1.363 . S
C2396 C2402 1.379 . S
C2396 N2404 1.356 . S
C2397 C2396 1.363 . S
C2397 C2403 1.363 . S
C2398 C2399 1.363 . S
C2398 C2403 1.379 . S
C2398 N2405 1.356 . S
C2399 C2398 1.363 . S
C2399 C2402 1.363 . S
N2400 C2402 1.356 . S
N2400 H2412 0.984 . S
N2400 H2413 0.985 . S
N2401 C2403 1.356 . S
N2401 H2406 0.984 . S
N2401 H2407 0.985 . S
C2402 C2396 1.379 . S
C2402 C2399 1.363 . S
C2402 N2400 1.356 . S
C2403 C2397 1.363 . S
C2403 C2398 1.379 . S
C2403 N2401 1.356 . S
N2404 C2396 1.356 . S
N2404 H2410 0.984 . S
N2404 H2411 0.984 . S
N2405 C2398 1.356 . S
N2405 H2408 0.984 . S
N2405 H2409 0.985 . S
H2406 N2401 0.984 . S
H2407 N2401 0.985 . S
H2408 N2405 0.984 . S
H2409 N2405 0.985 . S
H2410 N2404 0.984 . S
H2411 N2404 0.984 . S
H2412 N2400 0.984 . S
H2413 N2400 0.985 . S
C2414 C2415 1.363 . S
C2414 C2420 1.379 . S
C2414 N2422 1.356 . S
C2415 C2414 1.363 . S
C2415 C2421 1.363 1_565 S
C2416 C2417 1.363 . S
C2416 C2421 1.379 . S
C2416 N2423 1.356 . S
C2417 C2416 1.363 . S
C2417 C2420 1.363 1_545 S
N2418 C2420 1.356 . S
N2418 H2430 0.984 . S
N2418 H2431 0.985 . S
N2419 C2421 1.356 . S
N2419 H2424 0.984 . S
N2419 H2425 0.985 . S
C2420 C2414 1.379 . S
C2420 C2417 1.363 1_565 S
C2420 N2418 1.356 . S
C2421 C2415 1.363 1_545 S
C2421 C2416 1.379 . S
C2421 N2419 1.356 . S
N2422 C2414 1.356 . S
N2422 H2428 0.984 . S
N2422 H2429 0.984 . S
N2423 C2416 1.356 . S
N2423 H2426 0.984 . S
N2423 H2427 0.985 . S
H2424 N2419 0.984 . S
H2425 N2419 0.985 . S
H2426 N2423 0.984 . S
H2427 N2423 0.985 . S
H2428 N2422 0.984 . S
H2429 N2422 0.984 . S
H2430 N2418 0.984 . S
H2431 N2418 0.985 . S
C2432 C2433 1.363 . S
C2432 C2438 1.379 1_455 S
C2432 N2440 1.356 . S
C2433 C2432 1.363 . S
C2433 C2439 1.363 . S
C2434 C2435 1.363 . S
C2434 C2439 1.379 1_655 S
C2434 N2441 1.356 . S
C2435 C2434 1.363 . S
C2435 C2438 1.363 . S
N2436 C2438 1.356 . S
N2436 H2448 0.984 . S
N2436 H2449 0.985 . S
N2437 C2439 1.356 . S
N2437 H2442 0.984 . S
N2437 H2443 0.985 . S
C2438 C2432 1.379 1_655 S
C2438 C2435 1.363 . S
C2438 N2436 1.356 . S
C2439 C2433 1.363 . S
C2439 C2434 1.379 1_455 S
C2439 N2437 1.356 . S
N2440 C2432 1.356 . S
N2440 H2446 0.984 . S
N2440 H2447 0.984 . S
N2441 C2434 1.356 . S
N2441 H2444 0.984 . S
N2441 H2445 0.985 . S
H2442 N2437 0.984 . S
H2443 N2437 0.985 . S
H2444 N2441 0.984 . S
H2445 N2441 0.985 . S
H2446 N2440 0.984 . S
H2447 N2440 0.984 . S
H2448 N2436 0.984 . S
H2449 N2436 0.985 . S
C2450 C2451 1.363 . S
C2450 C2456 1.379 . S
C2450 N2458 1.356 . S
C2451 C2450 1.363 . S
C2451 C2457 1.363 . S
C2452 C2453 1.363 . S
C2452 C2457 1.379 . S
C2452 N2459 1.356 . S
C2453 C2452 1.363 . S
C2453 C2456 1.363 . S
N2454 C2456 1.356 . S
N2454 H2466 0.984 . S
N2454 H2467 0.985 1_455 S
N2455 C2457 1.356 . S
N2455 H2460 0.984 . S
N2455 H2461 0.985 . S
C2456 C2450 1.379 . S
C2456 C2453 1.363 . S
C2456 N2454 1.356 . S
C2457 C2451 1.363 . S
C2457 C2452 1.379 . S
C2457 N2455 1.356 . S
N2458 C2450 1.356 . S
N2458 H2464 0.984 . S
N2458 H2465 0.984 . S
N2459 C2452 1.356 . S
N2459 H2462 0.984 . S
N2459 H2463 0.985 . S
H2460 N2455 0.984 . S
H2461 N2455 0.985 . S
H2462 N2459 0.984 . S
H2463 N2459 0.985 . S
H2464 N2458 0.984 . S
H2465 N2458 0.984 . S
H2466 N2454 0.984 . S
H2467 N2454 0.985 1_655 S
C2468 C2469 1.363 . S
C2468 C2474 1.379 1_655 S
C2468 N2476 1.356 . S
C2469 C2468 1.363 . S
C2469 C2475 1.363 . S
C2470 C2471 1.363 . S
C2470 C2475 1.379 1_455 S
C2470 N2477 1.356 . S
C2471 C2470 1.363 . S
C2471 C2474 1.363 . S
N2472 C2474 1.356 . S
N2472 H2484 0.984 . S
N2472 H2485 0.985 . S
N2473 C2475 1.356 . S
N2473 H2478 0.984 . S
N2473 H2479 0.985 . S
C2474 C2468 1.379 1_455 S
C2474 C2471 1.363 . S
C2474 N2472 1.356 . S
C2475 C2469 1.363 . S
C2475 C2470 1.379 1_655 S
C2475 N2473 1.356 . S
N2476 C2468 1.356 . S
N2476 H2482 0.984 . S
N2476 H2483 0.984 . S
N2477 C2470 1.356 . S
N2477 H2480 0.984 . S
N2477 H2481 0.985 . S
H2478 N2473 0.984 . S
H2479 N2473 0.985 . S
H2480 N2477 0.984 . S
H2481 N2477 0.985 . S
H2482 N2476 0.984 . S
H2483 N2476 0.984 . S
H2484 N2472 0.984 . S
H2485 N2472 0.985 . S
C2486 C2487 1.363 . S
C2486 C2492 1.379 . S
C2486 N2494 1.356 . S
C2487 C2486 1.363 . S
C2487 C2493 1.363 . S
C2488 C2489 1.363 . S
C2488 C2493 1.379 . S
C2488 N2495 1.356 . S
C2489 C2488 1.363 . S
C2489 C2492 1.363 . S
N2490 C2492 1.356 . S
N2490 H2502 0.984 . S
N2490 H2503 0.985 . S
N2491 C2493 1.356 . S
N2491 H2496 0.984 . S
N2491 H2497 0.985 . S
C2492 C2486 1.379 . S
C2492 C2489 1.363 . S
C2492 N2490 1.356 . S
C2493 C2487 1.363 . S
C2493 C2488 1.379 . S
C2493 N2491 1.356 . S
N2494 C2486 1.356 . S
N2494 H2500 0.984 . S
N2494 H2501 0.984 . S
N2495 C2488 1.356 . S
N2495 H2498 0.984 . S
N2495 H2499 0.985 . S
H2496 N2491 0.984 . S
H2497 N2491 0.985 . S
H2498 N2495 0.984 . S
H2499 N2495 0.985 . S
H2500 N2494 0.984 . S
H2501 N2494 0.984 . S
H2502 N2490 0.984 . S
H2503 N2490 0.985 . S
C2504 C2505 1.363 . S
C2504 C2510 1.379 1_655 S
C2504 N2512 1.356 . S
C2505 C2504 1.363 . S
C2505 C2511 1.363 . S
C2506 C2507 1.363 . S
C2506 C2511 1.379 1_455 S
C2506 N2513 1.356 . S
C2507 C2506 1.363 . S
C2507 C2510 1.363 . S
N2508 C2510 1.356 . S
N2508 H2520 0.984 . S
N2508 H2521 0.985 . S
N2509 C2511 1.356 . S
N2509 H2514 0.984 . S
N2509 H2515 0.985 . S
C2510 C2504 1.379 1_455 S
C2510 C2507 1.363 . S
C2510 N2508 1.356 . S
C2511 C2505 1.363 . S
C2511 C2506 1.379 1_655 S
C2511 N2509 1.356 . S
N2512 C2504 1.356 . S
N2512 H2518 0.984 . S
N2512 H2519 0.984 . S
N2513 C2506 1.356 . S
N2513 H2516 0.984 . S
N2513 H2517 0.985 . S
H2514 N2509 0.984 . S
H2515 N2509 0.985 . S
H2516 N2513 0.984 . S
H2517 N2513 0.985 . S
H2518 N2512 0.984 . S
H2519 N2512 0.984 . S
H2520 N2508 0.984 . S
H2521 N2508 0.985 . S
C2522 C2523 1.363 . S
C2522 C2528 1.379 . S
C2522 N2530 1.356 . S
C2523 C2522 1.363 . S
C2523 C2529 1.363 . S
C2524 C2525 1.363 . S
C2524 C2529 1.379 . S
C2524 N2531 1.356 . S
C2525 C2524 1.363 . S
C2525 C2528 1.363 . S
N2526 C2528 1.356 . S
N2526 H2538 0.984 . S
N2526 H2539 0.985 . S
N2527 C2529 1.356 . S
N2527 H2532 0.984 . S
N2527 H2533 0.985 . S
C2528 C2522 1.379 . S
C2528 C2525 1.363 . S
C2528 N2526 1.356 . S
C2529 C2523 1.363 . S
C2529 C2524 1.379 . S
C2529 N2527 1.356 . S
N2530 C2522 1.356 . S
N2530 H2536 0.984 . S
N2530 H2537 0.984 . S
N2531 C2524 1.356 . S
N2531 H2534 0.984 . S
N2531 H2535 0.985 . S
H2532 N2527 0.984 . S
H2533 N2527 0.985 . S
H2534 N2531 0.984 . S
H2535 N2531 0.985 . S
H2536 N2530 0.984 . S
H2537 N2530 0.984 . S
H2538 N2526 0.984 . S
H2539 N2526 0.985 . S
C2540 C2541 1.363 . S
C2540 C2546 1.379 1_455 S
C2540 N2548 1.356 . S
C2541 C2540 1.363 . S
C2541 C2547 1.363 . S
C2542 C2543 1.363 . S
C2542 C2547 1.379 1_655 S
C2542 N2549 1.356 . S
C2543 C2542 1.363 . S
C2543 C2546 1.363 . S
N2544 C2546 1.356 . S
N2544 H2556 0.984 . S
N2544 H2557 0.985 . S
N2545 C2547 1.356 . S
N2545 H2550 0.984 . S
N2545 H2551 0.985 . S
C2546 C2540 1.379 1_655 S
C2546 C2543 1.363 . S
C2546 N2544 1.356 . S
C2547 C2541 1.363 . S
C2547 C2542 1.379 1_455 S
C2547 N2545 1.356 . S
N2548 C2540 1.356 . S
N2548 H2554 0.984 . S
N2548 H2555 0.984 . S
N2549 C2542 1.356 . S
N2549 H2552 0.984 . S
N2549 H2553 0.985 . S
H2550 N2545 0.984 . S
H2551 N2545 0.985 . S
H2552 N2549 0.984 . S
H2553 N2549 0.985 . S
H2554 N2548 0.984 . S
H2555 N2548 0.984 . S
H2556 N2544 0.984 . S
H2557 N2544 0.985 . S
C2558 C2559 1.363 . S
C2558 C2564 1.379 . S
C2558 N2566 1.356 . S
C2559 C2558 1.363 . S
C2559 C2565 1.363 . S
C2560 C2561 1.363 . S
C2560 C2565 1.379 . S
C2560 N2567 1.356 . S
C2561 C2560 1.363 . S
C2561 C2564 1.363 . S
N2562 C2564 1.356 . S
N2562 H2574 0.984 . S
N2562 H2575 0.985 . S
N2563 C2565 1.356 . S
N2563 H2568 0.984 . S
N2563 H2569 0.985 . S
C2564 C2558 1.379 . S
C2564 C2561 1.363 . S
C2564 N2562 1.356 . S
C2565 C2559 1.363 . S
C2565 C2560 1.379 . S
C2565 N2563 1.356 . S
N2566 C2558 1.356 . S
N2566 H2572 0.984 . S
N2566 H2573 0.984 . S
N2567 C2560 1.356 . S
N2567 H2570 0.984 . S
N2567 H2571 0.985 . S
H2568 N2563 0.984 . S
H2569 N2563 0.985 . S
H2570 N2567 0.984 . S
H2571 N2567 0.985 . S
H2572 N2566 0.984 . S
H2573 N2566 0.984 . S
H2574 N2562 0.984 . S
H2575 N2562 0.985 . S
C2576 C2577 1.363 1_565 S
C2576 C2582 1.379 1_655 S
C2576 N2584 1.356 . S
C2577 C2576 1.363 1_545 S
C2577 C2583 1.363 . S
C2578 C2579 1.363 1_545 S
C2578 C2583 1.379 1_455 S
C2578 N2585 1.356 . S
C2579 C2578 1.363 1_565 S
C2579 C2582 1.363 . S
N2580 C2582 1.356 . S
N2580 H2592 0.984 . S
N2580 H2593 0.985 . S
N2581 C2583 1.356 . S
N2581 H2586 0.984 . S
N2581 H2587 0.985 . S
C2582 C2576 1.379 1_455 S
C2582 C2579 1.363 . S
C2582 N2580 1.356 . S
C2583 C2577 1.363 . S
C2583 C2578 1.379 1_655 S
C2583 N2581 1.356 . S
N2584 C2576 1.356 . S
N2584 H2590 0.984 . S
N2584 H2591 0.984 . S
N2585 C2578 1.356 . S
N2585 H2588 0.984 . S
N2585 H2589 0.985 . S
H2586 N2581 0.984 . S
H2587 N2581 0.985 . S
H2588 N2585 0.984 . S
H2589 N2585 0.985 . S
H2590 N2584 0.984 . S
H2591 N2584 0.984 . S
H2592 N2580 0.984 . S
H2593 N2580 0.985 . S
C2594 C2595 1.363 . S
C2594 C2600 1.379 . S
C2594 N2602 1.356 . S
C2595 C2594 1.363 . S
C2595 C2601 1.363 . S
C2596 C2597 1.363 . S
C2596 C2601 1.379 . S
C2596 N2603 1.356 . S
C2597 C2596 1.363 . S
C2597 C2600 1.363 . S
N2598 C2600 1.356 . S
N2598 H2610 0.984 . S
N2598 H2611 0.985 . S
N2599 C2601 1.356 . S
N2599 H2604 0.984 . S
N2599 H2605 0.985 . S
C2600 C2594 1.379 . S
C2600 C2597 1.363 . S
C2600 N2598 1.356 . S
C2601 C2595 1.363 . S
C2601 C2596 1.379 . S
C2601 N2599 1.356 . S
N2602 C2594 1.356 . S
N2602 H2608 0.984 . S
N2602 H2609 0.984 . S
N2603 C2596 1.356 . S
N2603 H2606 0.984 . S
N2603 H2607 0.985 . S
H2604 N2599 0.984 . S
H2605 N2599 0.985 . S
H2606 N2603 0.984 . S
H2607 N2603 0.985 . S
H2608 N2602 0.984 . S
H2609 N2602 0.984 . S
H2610 N2598 0.984 . S
H2611 N2598 0.985 . S
C2612 C2613 1.363 . S
C2612 C2618 1.379 1_655 S
C2612 N2620 1.356 . S
C2613 C2612 1.363 . S
C2613 C2619 1.363 . S
C2614 C2615 1.363 . S
C2614 C2619 1.379 1_455 S
C2614 N2621 1.356 . S
C2615 C2614 1.363 . S
C2615 C2618 1.363 . S
N2616 C2618 1.356 . S
N2616 H2628 0.984 . S
N2616 H2629 0.985 . S
N2617 C2619 1.356 . S
N2617 H2622 0.984 . S
N2617 H2623 0.985 . S
C2618 C2612 1.379 1_455 S
C2618 C2615 1.363 . S
C2618 N2616 1.356 . S
C2619 C2613 1.363 . S
C2619 C2614 1.379 1_655 S
C2619 N2617 1.356 . S
N2620 C2612 1.356 . S
N2620 H2626 0.984 . S
N2620 H2627 0.984 . S
N2621 C2614 1.356 . S
N2621 H2624 0.984 . S
N2621 H2625 0.985 . S
H2622 N2617 0.984 . S
H2623 N2617 0.985 . S
H2624 N2621 0.984 . S
H2625 N2621 0.985 . S
H2626 N2620 0.984 . S
H2627 N2620 0.984 . S
H2628 N2616 0.984 . S
H2629 N2616 0.985 . S
C2630 C2631 1.363 . S
C2630 C2636 1.378 1_545 S
C2630 N2638 1.356 . S
C2631 C2630 1.363 . S
C2631 C2637 1.363 . S
C2632 C2633 1.368 . S
C2632 C2637 1.374 1_565 S
C2632 N2639 1.358 . S
C2633 C2632 1.368 . S
C2633 C2636 1.363 . S
N2634 C2636 1.356 . S
N2634 H2646 0.984 . S
N2634 H2647 0.985 . S
N2635 C2637 1.356 . S
N2635 H2640 0.984 . S
N2635 H2641 0.985 . S
C2636 C2630 1.378 1_565 S
C2636 C2633 1.363 . S
C2636 N2634 1.356 . S
C2637 C2631 1.363 . S
C2637 C2632 1.374 1_545 S
C2637 N2635 1.356 . S
N2638 C2630 1.356 . S
N2638 H2644 0.977 1_545 S
N2638 H2645 0.984 . S
N2639 C2632 1.358 . S
N2639 H2642 0.984 . S
N2639 H2643 0.981 1_565 S
H2640 N2635 0.984 . S
H2641 N2635 0.985 . S
H2642 N2639 0.984 . S
H2643 N2639 0.981 1_545 S
H2644 N2638 0.977 1_565 S
H2645 N2638 0.984 . S
H2646 N2634 0.984 . S
H2647 N2634 0.985 . S
C2648 C2649 1.363 1_565 S
C2648 C2654 1.379 1_655 S
C2648 N2656 1.356 . S
C2649 C2648 1.363 1_545 S
C2649 C2655 1.363 . S
C2650 C2651 1.363 1_545 S
C2650 C2655 1.379 1_455 S
C2650 N2657 1.356 . S
C2651 C2650 1.363 1_565 S
C2651 C2654 1.363 . S
N2652 C2654 1.356 . S
N2652 H2664 0.984 . S
N2652 H2665 0.985 . S
N2653 C2655 1.356 . S
N2653 H2658 0.984 . S
N2653 H2659 0.985 . S
C2654 C2648 1.379 1_455 S
C2654 C2651 1.363 . S
C2654 N2652 1.356 . S
C2655 C2649 1.363 . S
C2655 C2650 1.379 1_655 S
C2655 N2653 1.356 . S
N2656 C2648 1.356 . S
N2656 H2662 0.984 . S
N2656 H2663 0.984 . S
N2657 C2650 1.356 . S
N2657 H2660 0.984 . S
N2657 H2661 0.985 . S
H2658 N2653 0.984 . S
H2659 N2653 0.985 . S
H2660 N2657 0.984 . S
H2661 N2657 0.985 . S
H2662 N2656 0.984 . S
H2663 N2656 0.984 . S
H2664 N2652 0.984 . S
H2665 N2652 0.985 . S
C2666 C2667 1.363 . S
C2666 C2672 1.379 . S
C2666 N2674 1.356 . S
C2667 C2666 1.363 . S
C2667 C2673 1.363 . S
C2668 C2669 1.363 . S
C2668 C2673 1.379 . S
C2668 N2675 1.356 . S
C2669 C2668 1.363 . S
C2669 C2672 1.363 . S
N2670 C2672 1.356 . S
N2670 H2682 0.984 . S
N2670 H2683 0.985 . S
N2671 C2673 1.356 . S
N2671 H2676 0.984 . S
N2671 H2677 0.985 . S
C2672 C2666 1.379 . S
C2672 C2669 1.363 . S
C2672 N2670 1.356 . S
C2673 C2667 1.363 . S
C2673 C2668 1.379 . S
C2673 N2671 1.356 . S
N2674 C2666 1.356 . S
N2674 H2680 0.984 . S
N2674 H2681 0.984 . S
N2675 C2668 1.356 . S
N2675 H2678 0.984 . S
N2675 H2679 0.985 . S
H2676 N2671 0.984 . S
H2677 N2671 0.985 . S
H2678 N2675 0.984 . S
H2679 N2675 0.985 . S
H2680 N2674 0.984 . S
H2681 N2674 0.984 . S
H2682 N2670 0.984 . S
H2683 N2670 0.985 . S
C2684 C2685 1.363 . S
C2684 C2690 1.379 1_455 S
C2684 N2692 1.356 . S
C2685 C2684 1.363 . S
C2685 C2691 1.363 . S
C2686 C2687 1.363 . S
C2686 C2691 1.379 1_655 S
C2686 N2693 1.356 . S
C2687 C2686 1.363 . S
C2687 C2690 1.363 . S
N2688 C2690 1.356 . S
N2688 H2700 0.984 . S
N2688 H2701 0.985 . S
N2689 C2691 1.356 . S
N2689 H2694 0.984 . S
N2689 H2695 0.985 . S
C2690 C2684 1.379 1_655 S
C2690 C2687 1.363 . S
C2690 N2688 1.356 . S
C2691 C2685 1.363 . S
C2691 C2686 1.379 1_455 S
C2691 N2689 1.356 . S
N2692 C2684 1.356 . S
N2692 H2698 0.984 . S
N2692 H2699 0.984 . S
N2693 C2686 1.356 . S
N2693 H2696 0.984 . S
N2693 H2697 0.985 . S
H2694 N2689 0.984 . S
H2695 N2689 0.985 . S
H2696 N2693 0.984 . S
H2697 N2693 0.985 . S
H2698 N2692 0.984 . S
H2699 N2692 0.984 . S
H2700 N2688 0.984 . S
H2701 N2688 0.985 . S
C2702 C2703 1.363 1_545 S
C2702 C2708 1.379 . S
C2702 N2710 1.356 . S
C2703 C2702 1.363 1_565 S
C2703 C2709 1.363 . S
C2704 C2705 1.363 1_565 S
C2704 C2709 1.379 . S
C2704 N2711 1.356 . S
C2705 C2704 1.363 1_545 S
C2705 C2708 1.363 . S
N2706 C2708 1.356 . S
N2706 H2718 0.984 . S
N2706 H2719 0.985 . S
N2707 C2709 1.356 . S
N2707 H2712 0.984 . S
N2707 H2713 0.985 . S
C2708 C2702 1.379 . S
C2708 C2705 1.363 . S
C2708 N2706 1.356 . S
C2709 C2703 1.363 . S
C2709 C2704 1.379 . S
C2709 N2707 1.356 . S
N2710 C2702 1.356 . S
N2710 H2716 0.984 . S
N2710 H2717 1.017 . S
N2711 C2704 1.356 . S
N2711 H2714 1.009 . S
N2711 H2715 0.985 . S
H2712 N2707 0.984 . S
H2713 N2707 0.985 . S
H2714 N2711 1.009 . S
H2715 N2711 0.985 . S
H2716 N2710 0.984 . S
H2717 N2710 1.017 . S
H2718 N2706 0.984 . S
H2719 N2706 0.985 . S
C2720 C2721 1.363 1_455 S
C2720 C2726 1.379 1_554 S
C2720 N2728 1.356 . S
C2721 C2720 1.363 1_655 S
C2721 C2727 1.363 . S
C2722 C2723 1.363 1_655 S
C2722 C2727 1.379 1_556 S
C2722 N2729 1.356 . S
C2723 C2722 1.363 1_455 S
C2723 C2726 1.363 . S
N2724 C2726 1.356 . S
N2724 H2736 0.984 . S
N2724 H2737 0.985 . S
N2725 C2727 1.356 . S
N2725 H2730 0.984 . S
N2725 H2731 0.985 . S
C2726 C2720 1.379 1_556 S
C2726 C2723 1.363 . S
C2726 N2724 1.356 . S
C2727 C2721 1.363 . S
C2727 C2722 1.379 1_554 S
C2727 N2725 1.356 . S
N2728 C2720 1.356 . S
N2728 H2734 0.984 . S
N2728 H2735 0.984 . S
N2729 C2722 1.356 . S
N2729 H2732 0.984 . S
N2729 H2733 0.985 . S
H2730 N2725 0.984 . S
H2731 N2725 0.985 . S
H2732 N2729 0.984 . S
H2733 N2729 0.985 . S
H2734 N2728 0.984 . S
H2735 N2728 0.984 . S
H2736 N2724 0.984 . S
H2737 N2724 0.985 . S
C2738 C2739 1.363 . S
C2738 C2744 1.379 1_556 S
C2738 N2746 1.356 . S
C2739 C2738 1.363 . S
C2739 C2745 1.363 . S
C2740 C2741 1.363 . S
C2740 C2745 1.379 1_554 S
C2740 N2747 1.356 . S
C2741 C2740 1.363 . S
C2741 C2744 1.363 . S
N2742 C2744 1.356 . S
N2742 H2754 0.984 . S
N2742 H2755 0.985 . S
N2743 C2745 1.356 . S
N2743 H2748 0.984 . S
N2743 H2749 0.985 . S
C2744 C2738 1.379 1_554 S
C2744 C2741 1.363 . S
C2744 N2742 1.356 . S
C2745 C2739 1.363 . S
C2745 C2740 1.379 1_556 S
C2745 N2743 1.356 . S
N2746 C2738 1.356 . S
N2746 H2752 0.984 . S
N2746 H2753 0.984 . S
N2747 C2740 1.356 . S
N2747 H2750 0.984 . S
N2747 H2751 0.985 . S
H2748 N2743 0.984 . S
H2749 N2743 0.985 . S
H2750 N2747 0.984 . S
H2751 N2747 0.985 . S
H2752 N2746 0.984 . S
H2753 N2746 0.984 . S
H2754 N2742 0.984 . S
H2755 N2742 0.985 . S
C2756 C2757 1.363 1_655 S
C2756 C2762 1.379 . S
C2756 N2764 1.356 . S
C2757 C2756 1.363 1_455 S
C2757 C2763 1.363 . S
C2758 C2759 1.363 1_455 S
C2758 C2763 1.379 . S
C2758 N2765 1.356 . S
C2759 C2758 1.363 1_655 S
C2759 C2762 1.363 . S
N2760 C2762 1.356 . S
N2760 H2772 0.984 . S
N2760 H2773 0.985 . S
N2761 C2763 1.356 . S
N2761 H2766 0.984 . S
N2761 H2767 0.985 . S
C2762 C2756 1.379 . S
C2762 C2759 1.363 . S
C2762 N2760 1.356 . S
C2763 C2757 1.363 . S
C2763 C2758 1.379 . S
C2763 N2761 1.356 . S
N2764 C2756 1.356 . S
N2764 H2770 0.984 . S
N2764 H2771 0.984 . S
N2765 C2758 1.356 . S
N2765 H2768 0.984 . S
N2765 H2769 0.985 . S
H2766 N2761 0.984 . S
H2767 N2761 0.985 . S
H2768 N2765 0.984 . S
H2769 N2765 0.985 . S
H2770 N2764 0.984 . S
H2771 N2764 0.984 . S
H2772 N2760 0.984 . S
H2773 N2760 0.985 . S
C2774 C2775 1.363 . S
C2774 C2780 1.379 . S
C2774 N2782 1.356 . S
C2775 C2774 1.363 . S
C2775 C2781 1.363 . S
C2776 C2777 1.363 . S
C2776 C2781 1.379 . S
C2776 N2783 1.356 . S
C2777 C2776 1.363 . S
C2777 C2780 1.363 . S
N2778 C2780 1.356 . S
N2778 H2790 0.984 . S
N2778 H2791 0.985 . S
N2779 C2781 1.356 . S
N2779 H2784 0.984 . S
N2779 H2785 0.985 . S
C2780 C2774 1.379 . S
C2780 C2777 1.363 . S
C2780 N2778 1.356 . S
C2781 C2775 1.363 . S
C2781 C2776 1.379 . S
C2781 N2779 1.356 . S
N2782 C2774 1.356 . S
N2782 H2788 0.984 . S
N2782 H2789 0.984 . S
N2783 C2776 1.356 . S
N2783 H2786 0.984 . S
N2783 H2787 0.985 . S
H2784 N2779 0.984 . S
H2785 N2779 0.985 . S
H2786 N2783 0.984 . S
H2787 N2783 0.985 . S
H2788 N2782 0.984 . S
H2789 N2782 0.984 . S
H2790 N2778 0.984 . S
H2791 N2778 0.985 . S
C2792 C2793 1.363 . S
C2792 C2798 1.379 1_556 S
C2792 N2800 1.356 . S
C2793 C2792 1.363 . S
C2793 C2799 1.363 . S
C2794 C2795 1.363 . S
C2794 C2799 1.379 1_554 S
C2794 N2801 1.356 . S
C2795 C2794 1.363 . S
C2795 C2798 1.363 . S
N2796 C2798 1.356 . S
N2796 H2808 0.984 . S
N2796 H2809 0.985 . S
N2797 C2799 1.356 . S
N2797 H2802 0.984 . S
N2797 H2803 0.985 . S
C2798 C2792 1.379 1_554 S
C2798 C2795 1.363 . S
C2798 N2796 1.356 . S
C2799 C2793 1.363 . S
C2799 C2794 1.379 1_556 S
C2799 N2797 1.356 . S
N2800 C2792 1.356 . S
N2800 H2806 0.984 . S
N2800 H2807 0.984 . S
N2801 C2794 1.356 . S
N2801 H2804 0.984 . S
N2801 H2805 0.985 . S
H2802 N2797 0.984 . S
H2803 N2797 0.985 . S
H2804 N2801 0.984 . S
H2805 N2801 0.985 . S
H2806 N2800 0.984 . S
H2807 N2800 0.984 . S
H2808 N2796 0.984 . S
H2809 N2796 0.985 . S
C2810 C2811 1.363 1_655 S
C2810 C2816 1.379 . S
C2810 N2818 1.356 . S
C2811 C2810 1.363 1_455 S
C2811 C2817 1.363 . S
C2812 C2813 1.363 1_455 S
C2812 C2817 1.379 . S
C2812 N2819 1.356 . S
C2813 C2812 1.363 1_655 S
C2813 C2816 1.363 . S
N2814 C2816 1.356 . S
N2814 H2826 0.984 . S
N2814 H2827 0.985 . S
N2815 C2817 1.356 . S
N2815 H2820 0.984 . S
N2815 H2821 0.985 . S
C2816 C2810 1.379 . S
C2816 C2813 1.363 . S
C2816 N2814 1.356 . S
C2817 C2811 1.363 . S
C2817 C2812 1.379 . S
C2817 N2815 1.356 . S
N2818 C2810 1.356 . S
N2818 H2824 0.984 . S
N2818 H2825 0.984 . S
N2819 C2812 1.356 . S
N2819 H2822 0.984 . S
N2819 H2823 0.985 . S
H2820 N2815 0.984 . S
H2821 N2815 0.985 . S
H2822 N2819 0.984 . S
H2823 N2819 0.985 . S
H2824 N2818 0.984 . S
H2825 N2818 0.984 . S
H2826 N2814 0.984 . S
H2827 N2814 0.985 . S
C2828 C2829 1.363 . S
C2828 C2834 1.379 . S
C2828 N2836 1.356 . S
C2829 C2828 1.363 . S
C2829 C2835 1.363 . S
C2830 C2831 1.363 . S
C2830 C2835 1.379 . S
C2830 N2837 1.356 . S
C2831 C2830 1.363 . S
C2831 C2834 1.363 . S
N2832 C2834 1.356 . S
N2832 H2844 0.984 . S
N2832 H2845 0.985 . S
N2833 C2835 1.356 . S
N2833 H2838 0.984 . S
N2833 H2839 0.985 . S
C2834 C2828 1.379 . S
C2834 C2831 1.363 . S
C2834 N2832 1.356 . S
C2835 C2829 1.363 . S
C2835 C2830 1.379 . S
C2835 N2833 1.356 . S
N2836 C2828 1.356 . S
N2836 H2842 0.984 . S
N2836 H2843 0.984 . S
N2837 C2830 1.356 . S
N2837 H2840 0.984 . S
N2837 H2841 0.985 . S
H2838 N2833 0.984 . S
H2839 N2833 0.985 . S
H2840 N2837 0.984 . S
H2841 N2837 0.985 . S
H2842 N2836 0.984 . S
H2843 N2836 0.984 . S
H2844 N2832 0.984 . S
H2845 N2832 0.985 . S
C2846 C2847 1.398 1_455 S
C2846 C2852 1.379 . S
C2846 N2854 1.356 . S
C2847 C2846 1.398 1_655 S
C2847 C2853 1.327 1_565 S
C2848 C2849 1.386 1_655 S
C2848 C2853 1.379 . S
C2848 N2855 1.356 . S
C2849 C2848 1.386 1_455 S
C2849 C2852 1.339 1_545 S
N2850 C2852 1.356 . S
N2850 H2862 0.984 . S
N2850 H2863 0.985 . S
N2851 C2853 1.356 . S
N2851 H2856 0.984 . S
N2851 H2857 0.985 . S
C2852 C2846 1.379 . S
C2852 C2849 1.339 1_565 S
C2852 N2850 1.356 . S
C2853 C2847 1.327 1_545 S
C2853 C2848 1.379 . S
C2853 N2851 1.356 . S
N2854 C2846 1.356 . S
N2854 H2860 0.984 . S
N2854 H2861 0.984 . S
N2855 C2848 1.356 . S
N2855 H2858 0.984 . S
N2855 H2859 0.985 . S
H2856 N2851 0.984 . S
H2857 N2851 0.985 . S
H2858 N2855 0.984 . S
H2859 N2855 0.985 . S
H2860 N2854 0.984 . S
H2861 N2854 0.984 . S
H2862 N2850 0.984 . S
H2863 N2850 0.985 . S
C2864 C2865 1.363 . S
C2864 C2870 1.379 . S
C2864 N2872 1.356 . S
C2865 C2864 1.363 . S
C2865 C2871 1.363 . S
C2866 C2867 1.363 . S
C2866 C2871 1.379 . S
C2866 N2873 1.356 . S
C2867 C2866 1.363 . S
C2867 C2870 1.363 . S
N2868 C2870 1.356 . S
N2868 H2880 0.984 . S
N2868 H2881 0.985 . S
N2869 C2871 1.356 . S
N2869 H2874 0.984 . S
N2869 H2875 0.985 . S
C2870 C2864 1.379 . S
C2870 C2867 1.363 . S
C2870 N2868 1.356 . S
C2871 C2865 1.363 . S
C2871 C2866 1.379 . S
C2871 N2869 1.356 . S
N2872 C2864 1.356 . S
N2872 H2878 0.984 . S
N2872 H2879 0.984 . S
N2873 C2866 1.356 . S
N2873 H2876 0.984 . S
N2873 H2877 0.985 . S
H2874 N2869 0.984 . S
H2875 N2869 0.985 . S
H2876 N2873 0.984 . S
H2877 N2873 0.985 . S
H2878 N2872 0.984 . S
H2879 N2872 0.984 . S
H2880 N2868 0.984 . S
H2881 N2868 0.985 . S
C2882 C2883 1.399 . S
C2882 C2888 1.379 . S
C2882 N2890 1.356 . S
C2883 C2882 1.399 . S
C2883 C2889 1.326 1_545 S
C2884 C2885 1.386 . S
C2884 C2889 1.379 . S
C2884 N2891 1.356 . S
C2885 C2884 1.386 . S
C2885 C2888 1.339 1_565 S
N2886 C2888 1.356 . S
N2886 H2898 0.984 . S
N2886 H2899 0.985 . S
N2887 C2889 1.356 . S
N2887 H2892 0.984 . S
N2887 H2893 0.985 . S
C2888 C2882 1.379 . S
C2888 C2885 1.339 1_545 S
C2888 N2886 1.356 . S
C2889 C2883 1.326 1_565 S
C2889 C2884 1.379 . S
C2889 N2887 1.356 . S
N2890 C2882 1.356 . S
N2890 H2896 0.984 . S
N2890 H2897 0.984 . S
N2891 C2884 1.356 . S
N2891 H2894 0.984 . S
N2891 H2895 0.985 . S
H2892 N2887 0.984 . S
H2893 N2887 0.985 . S
H2894 N2891 0.984 . S
H2895 N2891 0.985 . S
H2896 N2890 0.984 . S
H2897 N2890 0.984 . S
H2898 N2886 0.984 . S
H2899 N2886 0.985 . S
C2900 C2901 1.363 . S
C2900 C2906 1.379 . S
C2900 N2908 1.356 . S
C2901 C2900 1.363 . S
C2901 C2907 1.363 . S
C2902 C2903 1.363 . S
C2902 C2907 1.379 . S
C2902 N2909 1.356 . S
C2903 C2902 1.363 . S
C2903 C2906 1.363 . S
N2904 C2906 1.356 . S
N2904 H2916 0.984 . S
N2904 H2917 0.985 . S
N2905 C2907 1.356 . S
N2905 H2910 0.984 . S
N2905 H2911 0.985 . S
C2906 C2900 1.379 . S
C2906 C2903 1.363 . S
C2906 N2904 1.356 . S
C2907 C2901 1.363 . S
C2907 C2902 1.379 . S
C2907 N2905 1.356 . S
N2908 C2900 1.356 . S
N2908 H2914 0.984 . S
N2908 H2915 0.984 . S
N2909 C2902 1.356 . S
N2909 H2912 0.984 . S
N2909 H2913 0.985 . S
H2910 N2905 0.984 . S
H2911 N2905 0.985 . S
H2912 N2909 0.984 . S
H2913 N2909 0.985 . S
H2914 N2908 0.984 . S
H2915 N2908 0.984 . S
H2916 N2904 0.984 . S
H2917 N2904 0.985 . S
C2918 C2919 1.399 . S
C2918 C2924 1.379 . S
C2918 N2926 1.356 . S
C2919 C2918 1.399 . S
C2919 C2925 1.326 1_565 S
C2920 C2921 1.386 . S
C2920 C2925 1.379 . S
C2920 N2927 1.356 . S
C2921 C2920 1.386 . S
C2921 C2924 1.339 1_545 S
N2922 C2924 1.356 . S
N2922 H2934 0.984 . S
N2922 H2935 0.985 . S
N2923 C2925 1.356 . S
N2923 H2928 0.984 . S
N2923 H2929 0.985 . S
C2924 C2918 1.379 . S
C2924 C2921 1.339 1_565 S
C2924 N2922 1.356 . S
C2925 C2919 1.326 1_545 S
C2925 C2920 1.379 . S
C2925 N2923 1.356 . S
N2926 C2918 1.356 . S
N2926 H2932 0.984 . S
N2926 H2933 0.984 . S
N2927 C2920 1.356 . S
N2927 H2930 0.984 . S
N2927 H2931 0.985 . S
H2928 N2923 0.984 . S
H2929 N2923 0.985 . S
H2930 N2927 0.984 . S
H2931 N2927 0.985 . S
H2932 N2926 0.984 . S
H2933 N2926 0.984 . S
H2934 N2922 0.984 . S
H2935 N2922 0.985 . S
C2936 C2937 1.363 . S
C2936 C2942 1.379 . S
C2936 N2944 1.356 . S
C2937 C2936 1.363 . S
C2937 C2943 1.363 . S
C2938 C2939 1.363 . S
C2938 C2943 1.379 . S
C2938 N2945 1.356 . S
C2939 C2938 1.363 . S
C2939 C2942 1.363 . S
N2940 C2942 1.356 . S
N2940 H2952 0.984 . S
N2940 H2953 0.985 . S
N2941 C2943 1.356 . S
N2941 H2946 0.984 . S
N2941 H2947 0.985 . S
C2942 C2936 1.379 . S
C2942 C2939 1.363 . S
C2942 N2940 1.356 . S
C2943 C2937 1.363 . S
C2943 C2938 1.379 . S
C2943 N2941 1.356 . S
N2944 C2936 1.356 . S
N2944 H2950 0.984 . S
N2944 H2951 0.984 . S
N2945 C2938 1.356 . S
N2945 H2948 0.984 . S
N2945 H2949 0.985 . S
H2946 N2941 0.984 . S
H2947 N2941 0.985 . S
H2948 N2945 0.984 . S
H2949 N2945 0.985 . S
H2950 N2944 0.984 . S
H2951 N2944 0.984 . S
H2952 N2940 0.984 . S
H2953 N2940 0.985 . S
C2954 C2955 1.363 . S
C2954 C2960 1.379 . S
C2954 N2962 1.356 . S
C2955 C2954 1.363 . S
C2955 C2961 1.363 . S
C2956 C2957 1.363 . S
C2956 C2961 1.379 . S
C2956 N2963 1.356 . S
C2957 C2956 1.363 . S
C2957 C2960 1.363 . S
N2958 C2960 1.356 . S
N2958 H2970 0.984 . S
N2958 H2971 0.985 . S
N2959 C2961 1.356 . S
N2959 H2964 0.984 . S
N2959 H2965 0.985 . S
C2960 C2954 1.379 . S
C2960 C2957 1.363 . S
C2960 N2958 1.356 . S
C2961 C2955 1.363 . S
C2961 C2956 1.379 . S
C2961 N2959 1.356 . S
N2962 C2954 1.356 . S
N2962 H2968 0.984 . S
N2962 H2969 0.984 . S
N2963 C2956 1.356 . S
N2963 H2966 0.984 . S
N2963 H2967 0.985 . S
H2964 N2959 0.984 . S
H2965 N2959 0.985 . S
H2966 N2963 0.984 . S
H2967 N2963 0.985 . S
H2968 N2962 0.984 . S
H2969 N2962 0.984 . S
H2970 N2958 0.984 . S
H2971 N2958 0.985 . S
C2972 C2973 1.363 . S
C2972 C2978 1.379 . S
C2972 N2980 1.356 . S
C2973 C2972 1.363 . S
C2973 C2979 1.363 . S
C2974 C2975 1.363 . S
C2974 C2979 1.379 . S
C2974 N2981 1.356 . S
C2975 C2974 1.363 . S
C2975 C2978 1.363 . S
N2976 C2978 1.356 . S
N2976 H2988 0.984 . S
N2976 H2989 0.985 . S
N2977 C2979 1.356 . S
N2977 H2982 0.984 . S
N2977 H2983 0.985 . S
C2978 C2972 1.379 . S
C2978 C2975 1.363 . S
C2978 N2976 1.356 . S
C2979 C2973 1.363 . S
C2979 C2974 1.379 . S
C2979 N2977 1.356 . S
N2980 C2972 1.356 . S
N2980 H2986 0.984 . S
N2980 H2987 0.984 . S
N2981 C2974 1.356 . S
N2981 H2984 0.984 . S
N2981 H2985 0.985 . S
H2982 N2977 0.984 . S
H2983 N2977 0.985 . S
H2984 N2981 0.984 . S
H2985 N2981 0.985 . S
H2986 N2980 0.984 . S
H2987 N2980 0.984 . S
H2988 N2976 0.984 . S
H2989 N2976 0.985 . S
C2990 C2991 1.327 1_545 S
C2990 C2996 1.379 1_554 S
C2990 N2998 1.356 . S
C2991 C2990 1.327 1_565 S
C2991 C2997 1.398 . S
C2992 C2993 1.339 1_565 S
C2992 C2997 1.379 1_556 S
C2992 N2999 1.356 . S
C2993 C2992 1.339 1_545 S
C2993 C2996 1.386 . S
N2994 C2996 1.356 . S
N2994 H3006 0.984 . S
N2994 H3007 0.985 . S
N2995 C2997 1.356 . S
N2995 H3000 0.984 . S
N2995 H3001 0.985 . S
C2996 C2990 1.379 1_556 S
C2996 C2993 1.386 . S
C2996 N2994 1.356 . S
C2997 C2991 1.398 . S
C2997 C2992 1.379 1_554 S
C2997 N2995 1.356 . S
N2998 C2990 1.356 . S
N2998 H3004 0.984 . S
N2998 H3005 0.984 . S
N2999 C2992 1.356 . S
N2999 H3002 0.984 . S
N2999 H3003 0.985 . S
H3000 N2995 0.984 . S
H3001 N2995 0.985 . S
H3002 N2999 0.984 . S
H3003 N2999 0.985 . S
H3004 N2998 0.984 . S
H3005 N2998 0.984 . S
H3006 N2994 0.984 . S
H3007 N2994 0.985 . S
C1281 C6 2.332 . S
C1283 C1006 2.332 . S
C1299 C966 2.312 . S
C1301 C46 2.304 . S
C1317 C1086 2.312 . S
C1319 C86 2.304 . S
C1335 C126 2.332 . S
C1337 C1046 2.332 . S
C1353 C175 2.332 . S
C1355 C1175 2.332 . S
C1371 C215 2.312 . S
C1373 C1135 2.303 . S
C1389 C255 2.312 . S
C1391 C1255 2.303 . S
C1407 C1215 2.332 . S
C1409 C295 2.332 . S
C1425 C326 2.312 . S
C1427 C686 2.304 . S
C1443 C366 2.332 . S
C1445 C646 2.332 . S
C1461 C406 2.332 . S
C1463 C766 2.332 . S
C1479 C726 2.312 . S
C1481 C446 2.303 . S
C1497 C495 2.312 . S
C1499 C855 2.304 . S
C1515 C535 2.332 . S
C1517 C815 2.332 . S
C1533 C935 2.332 . S
C1535 C575 2.332 . S
C1551 C615 2.312 . S
C1553 C895 2.304 . S
C1569 C9 1.483 . S
C1571 C129 1.483 . S
C1587 C49 1.487 . S
C1589 C89 1.487 . S
C1605 C298 1.483 . S
C1607 C178 1.483 . S
C1623 C258 1.487 . S
C1625 C218 1.487 . S
C1641 C329 1.465 1_545 S
C1643 C449 1.465 1_545 S
C1659 C369 1.476 . S
C1661 C409 1.476 . S
C1677 C498 1.465 1_565 S
C1679 C618 1.465 1_565 S
C1695 C578 1.476 . S
C1697 C538 1.476 . S
C1713 C649 1.483 . S
C1715 C769 1.483 . S
C1731 C689 1.487 . S
C1733 C729 1.487 . S
C1749 C938 1.483 . S
C1751 C818 1.483 . S
C1767 C858 1.487 . S
C1769 C898 1.487 . S
C1785 C1089 1.465 1_545 S
C1787 C969 1.465 1_545 S
C1803 C1009 1.476 . S
C1805 C1049 1.476 . S
C1821 C1258 1.465 1_565 S
C1823 C1138 1.465 1_565 S
C1839 C1218 1.476 . S
C1841 C1178 1.476 . S
C1857 C55 2.530 1_455 S
C1859 C15 2.530 . S
C1875 C95 2.530 . S
C1877 C135 2.530 1_455 S
C1893 C206 2.530 1_655 S
C1895 C166 2.530 . S
C1911 C286 2.530 1_655 S
C1913 C246 2.530 . S
C1929 C335 2.548 . S
C1931 C375 2.557 1_455 S
C1947 C415 2.549 . S
C1949 C455 2.557 1_455 S
C1965 C526 2.549 1_655 S
C1967 C486 2.557 . S
C1983 C566 2.549 . S
C1985 C606 2.557 1_655 S
C2001 C655 2.530 . S
C2003 C695 2.530 . S
C2019 C775 2.530 . S
C2021 C735 2.530 . S
C2037 C806 2.530 . S
C2039 C846 2.530 . S
C2055 C886 2.530 . S
C2057 C926 2.530 . S
C2073 C975 2.548 . S
C2075 C1015 2.557 . S
C2091 C1055 2.549 . S
C2093 C1095 2.557 . S
C2109 C1166 2.549 . S
C2111 C1126 2.557 . S
C2127 C1206 2.549 . S
C2129 C1246 2.557 . S
C2145 C10 2.373 . S
C2147 C19 2.373 . S
C2163 C50 2.373 . S
C2165 C59 2.373 1_655 S
C2181 C90 2.373 . S
C2183 C99 2.373 . S
C2199 C139 2.373 1_655 S
C2201 C130 2.373 . S
C2217 C170 2.373 . S
C2219 C179 2.373 . S
C2235 C219 2.373 . S
C2237 C210 2.373 1_455 S
C2253 C250 2.373 . S
C2255 C259 2.373 . S
C2271 C290 2.373 1_455 S
C2273 C299 2.373 . S
C2289 C339 2.373 . S
C2291 C330 2.373 . S
C2307 C370 2.373 . S
C2309 C379 2.373 1_655 S
C2325 C410 2.373 . S
C2327 C419 2.373 . S
C2343 C459 2.373 1_655 S
C2345 C450 2.373 . S
C2361 C490 2.373 . S
C2363 C499 2.373 . S
C2379 C539 2.373 . S
C2381 C530 2.373 1_455 S
C2397 C579 2.373 . S
C2399 C570 2.373 . S
C2415 C610 2.373 1_455 S
C2417 C619 2.373 . S
C2433 C650 2.373 . S
C2435 C659 2.373 . S
C2451 C699 2.373 . S
C2453 C690 2.373 1_455 S
C2469 C739 2.373 . S
C2471 C730 2.373 . S
C2487 C770 2.373 1_455 S
C2489 C779 2.373 . S
C2505 C819 2.373 . S
C2507 C810 2.373 . S
C2523 C859 2.373 1_655 S
C2525 C850 2.373 . S
C2541 C890 2.373 . S
C2543 C899 2.373 . S
C2559 C939 2.373 1_655 S
C2561 C930 2.373 . S
C2577 C979 2.373 . S
C2579 C970 2.373 . S
C2595 C1010 2.373 1_455 S
C2597 C1019 2.373 . S
C2613 C1059 2.373 . S
C2615 C1050 2.373 . S
C2631 C1099 2.373 . S
C2633 C1090 2.373 1_455 S
C2649 C1139 2.373 . S
C2651 C1130 2.373 . S
C2667 C1179 2.373 1_655 S
C2669 C1170 2.373 . S
C2685 C1210 2.373 . S
C2687 C1219 2.373 . S
C2703 C1250 2.373 . S
C2705 C1259 2.373 1_655 S
C2721 C18 1.475 . S
C2723 C169 1.475 . S
C2739 C1169 1.477 . S
C2741 C58 1.477 . S
C2757 C569 1.477 . S
C2759 C98 1.477 . S
C2775 C138 1.475 . S
C2777 C929 1.475 . S
C2793 C209 1.477 . S
C2795 C1018 1.477 . S
C2811 C249 1.477 . S
C2813 C418 1.477 . S
C2829 C289 1.475 . S
C2831 C778 1.475 . S
C2847 C338 1.459 1_565 S
C2849 C489 1.459 1_545 S
C2865 C849 1.477 . S
C2867 C378 1.477 . S
C2883 C1249 1.459 1_545 S
C2885 C458 1.459 1_565 S
C2901 C529 1.477 . S
C2903 C698 1.477 . S
C2919 C1098 1.459 1_565 S
C2921 C609 1.459 1_545 S
C2937 C658 1.475 . S
C2939 C809 1.475 . S
C2955 C1209 1.477 . S
C2957 C738 1.477 . S
C2973 C889 1.477 . S
C2975 C1058 1.477 . S
C2991 C978 1.459 1_565 S
C2993 C1129 1.459 1_545 S
