# Generated by pormake.
# Topology wme, (6)-cn, num edge types: 1
# Building blocks:
#     Node 0, Type 0, BuildingBlock: VOLQOD_clean_sbu_1, # of connection points: 6
#     Node 1, Type 0, BuildingBlock: VOLQOD_clean_sbu_1, # of connection points: 6
#     Node 2, Type 0, BuildingBlock: VOLQOD_clean_sbu_1, # of connection points: 6
#     Node 3, Type 0, BuildingBlock: VOLQOD_clean_sbu_1, # of connection points: 6
#     Node 4, Type 0, BuildingBlock: VOLQOD_clean_sbu_1, # of connection points: 6
#     Node 5, Type 0, BuildingBlock: VOLQOD_clean_sbu_1, # of connection points: 6
#     Node 6, Type 0, BuildingBlock: VOLQOD_clean_sbu_1, # of connection points: 6
#     Node 7, Type 0, BuildingBlock: VOLQOD_clean_sbu_1, # of connection points: 6
#     Node 8, Type 0, BuildingBlock: VOLQOD_clean_sbu_1, # of connection points: 6
#     Node 9, Type 0, BuildingBlock: VOLQOD_clean_sbu_1, # of connection points: 6
#     Node 10, Type 0, BuildingBlock: VOLQOD_clean_sbu_1, # of connection points: 6
#     Node 11, Type 0, BuildingBlock: VOLQOD_clean_sbu_1, # of connection points: 6
#     Edge 12, Type (0, 0), BuildingBlock: EZIPEK_clean_linker_0, # of connection points: 2
#     Edge 13, Type (0, 0), BuildingBlock: EZIPEK_clean_linker_0, # of connection points: 2
#     Edge 14, Type (0, 0), BuildingBlock: EZIPEK_clean_linker_0, # of connection points: 2
#     Edge 15, Type (0, 0), BuildingBlock: EZIPEK_clean_linker_0, # of connection points: 2
#     Edge 16, Type (0, 0), BuildingBlock: EZIPEK_clean_linker_0, # of connection points: 2
#     Edge 17, Type (0, 0), BuildingBlock: EZIPEK_clean_linker_0, # of connection points: 2
#     Edge 18, Type (0, 0), BuildingBlock: EZIPEK_clean_linker_0, # of connection points: 2
#     Edge 19, Type (0, 0), BuildingBlock: EZIPEK_clean_linker_0, # of connection points: 2
#     Edge 20, Type (0, 0), BuildingBlock: EZIPEK_clean_linker_0, # of connection points: 2
#     Edge 21, Type (0, 0), BuildingBlock: EZIPEK_clean_linker_0, # of connection points: 2
#     Edge 22, Type (0, 0), BuildingBlock: EZIPEK_clean_linker_0, # of connection points: 2
#     Edge 23, Type (0, 0), BuildingBlock: EZIPEK_clean_linker_0, # of connection points: 2
#     Edge 24, Type (0, 0), BuildingBlock: EZIPEK_clean_linker_0, # of connection points: 2
#     Edge 25, Type (0, 0), BuildingBlock: EZIPEK_clean_linker_0, # of connection points: 2
#     Edge 26, Type (0, 0), BuildingBlock: EZIPEK_clean_linker_0, # of connection points: 2
#     Edge 27, Type (0, 0), BuildingBlock: EZIPEK_clean_linker_0, # of connection points: 2
#     Edge 28, Type (0, 0), BuildingBlock: EZIPEK_clean_linker_0, # of connection points: 2
#     Edge 29, Type (0, 0), BuildingBlock: EZIPEK_clean_linker_0, # of connection points: 2
#     Edge 30, Type (0, 0), BuildingBlock: EZIPEK_clean_linker_0, # of connection points: 2
#     Edge 31, Type (0, 0), BuildingBlock: EZIPEK_clean_linker_0, # of connection points: 2
#     Edge 32, Type (0, 0), BuildingBlock: EZIPEK_clean_linker_0, # of connection points: 2
#     Edge 33, Type (0, 0), BuildingBlock: EZIPEK_clean_linker_0, # of connection points: 2
#     Edge 34, Type (0, 0), BuildingBlock: EZIPEK_clean_linker_0, # of connection points: 2
#     Edge 35, Type (0, 0), BuildingBlock: EZIPEK_clean_linker_0, # of connection points: 2
#     Edge 36, Type (0, 0), BuildingBlock: EZIPEK_clean_linker_0, # of connection points: 2
#     Edge 37, Type (0, 0), BuildingBlock: EZIPEK_clean_linker_0, # of connection points: 2
#     Edge 38, Type (0, 0), BuildingBlock: EZIPEK_clean_linker_0, # of connection points: 2
#     Edge 39, Type (0, 0), BuildingBlock: EZIPEK_clean_linker_0, # of connection points: 2
#     Edge 40, Type (0, 0), BuildingBlock: EZIPEK_clean_linker_0, # of connection points: 2
#     Edge 41, Type (0, 0), BuildingBlock: EZIPEK_clean_linker_0, # of connection points: 2
#     Edge 42, Type (0, 0), BuildingBlock: EZIPEK_clean_linker_0, # of connection points: 2
#     Edge 43, Type (0, 0), BuildingBlock: EZIPEK_clean_linker_0, # of connection points: 2
#     Edge 44, Type (0, 0), BuildingBlock: EZIPEK_clean_linker_0, # of connection points: 2
#     Edge 45, Type (0, 0), BuildingBlock: EZIPEK_clean_linker_0, # of connection points: 2
#     Edge 46, Type (0, 0), BuildingBlock: EZIPEK_clean_linker_0, # of connection points: 2
#     Edge 47, Type (0, 0), BuildingBlock: EZIPEK_clean_linker_0, # of connection points: 2
# Relax obj value: 0.332
# Max RMSD: 0.236
# Mean RMSD: 0.236
data_MOF--net-wme--node1-VOLQOD_clean_sbu_1--edge1-EZIPEK_clean_linker_0
_symmetry_space_group_name_H-M    P1
_symmetry_Int_Tables_number       1
_symmetry_cell_setting            triclinic
loop_
_symmetry_equiv_pos_as_xyz
'x, y, z'
_cell_length_a     23.92864
_cell_length_b     24.06307
_cell_length_c     49.061791
_cell_angle_alpha  89.897331
_cell_angle_beta   90.052535
_cell_angle_gamma 120.23421
loop_
_atom_site_label
_atom_site_type_symbol
_atom_site_fract_x
_atom_site_fract_y
_atom_site_fract_z
_atom_type_partial_charge
O0 O 0.15694 0.42301 0.09875 0.0
Zn1 Zn 0.15787 0.34176 0.08967 0.0
O2 O 0.20173 0.31902 0.11718 0.0
Zn3 Zn 0.27281 0.31715 0.10077 0.0
Zn4 Zn 0.23219 0.38439 0.14345 0.0
Zn5 Zn 0.14731 0.24114 0.13562 0.0
O6 O 0.27848 0.24024 0.11216 0.0
O7 O 0.1764 0.17927 0.12631 0.0
O8 O 0.1866 0.33762 0.05166 0.0
O9 O 0.25673 0.3052 0.06115 0.0
O10 O 0.35271 0.40311 0.10389 0.0
O11 O 0.31828 0.45402 0.13108 0.0
O12 O 0.22661 0.35501 0.18196 0.0
O13 O 0.06522 0.27697 0.09081 0.0
O14 O 0.14682 0.25437 0.17602 0.0
O15 O 0.05741 0.20843 0.12321 0.0
C16 C 0.15075 0.43573 0.12338 0.0
C17 C 0.23036 0.18592 0.11877 0.0
C18 C 0.36047 0.45401 0.11526 0.0
C19 C 0.22383 0.31699 0.04428 0.0
C20 C 0.18252 0.30152 0.19147 0.0
C21 C 0.03222 0.22769 0.10547 0.0
O22 O 0.1719 0.41717 0.14297 0.0
O23 O 0.7242 0.10628 0.57462 0.0
Zn24 Zn 0.81051 0.11968 0.5869 0.0
O25 O 0.84654 0.1786 0.61754 0.0
Zn26 Zn 0.93135 0.24907 0.60842 0.0
Zn27 Zn 0.79094 0.21197 0.62611 0.0
Zn28 Zn 0.85428 0.13482 0.64887 0.0
O29 O 0.00141 0.24696 0.62995 0.0
O30 O 0.94595 0.16498 0.65762 0.0
O31 O 0.87485 0.14561 0.55618 0.0
O32 O 0.95011 0.24249 0.56986 0.0
O33 O 0.9372 0.33403 0.6106 0.0
O34 O 0.83305 0.30406 0.61512 0.0
O35 O 0.76707 0.20232 0.66563 0.0
O36 O 0.78536 0.03218 0.59891 0.0
O37 O 0.81107 0.14587 0.68082 0.0
O38 O 0.81206 0.04097 0.64265 0.0
C39 C 0.68769 0.12207 0.58707 0.0
C40 C -0.00018 0.2102 0.64897 0.0
C41 C 0.89185 0.34682 0.61107 0.0
C42 C 0.92686 0.19865 0.55192 0.0
C43 C 0.77817 0.1732 0.6846 0.0
C44 C 0.78686 0.00727 0.62149 0.0
O45 O 0.70752 0.16067 0.60707 0.0
O46 O 0.5653 0.7515 0.07542 0.0
Zn47 Zn 0.64938 0.83408 0.08051 0.0
O48 O 0.65028 0.87779 0.1133 0.0
Zn49 Zn 0.64123 0.95015 0.10284 0.0
Zn50 Zn 0.58256 0.81922 0.13563 0.0
Zn51 Zn 0.72728 0.90385 0.13336 0.0
O52 O 0.72094 0.03199 0.11288 0.0
O53 O 0.78618 -0.00492 0.12529 0.0
O54 O 0.67631 0.89483 0.04888 0.0
O55 O 0.63894 0.95809 0.06209 0.0
O56 O 0.56061 0.94268 0.11801 0.0
O57 O 0.51804 0.84592 0.1365 0.0
O58 O 0.60838 0.81583 0.17387 0.0
O59 O 0.70991 0.80193 0.08427 0.0
O60 O 0.713 0.88852 0.17346 0.0
O61 O 0.76502 0.85132 0.12168 0.0
C62 C 0.53617 0.71343 0.09521 0.0
C63 C 0.77664 0.04074 0.11867 0.0
C64 C 0.51452 0.89542 0.13037 0.0
C65 C 0.66458 0.94 0.0441 0.0
C66 C 0.66217 0.84805 0.18605 0.0
C67 C 0.75249 0.81248 0.10204 0.0
O68 O 0.54373 0.73257 0.11974 0.0
O69 O 0.86887 0.60213 0.58912 0.0
Zn70 Zn 0.84182 0.66808 0.59328 0.0
O71 O 0.76682 0.63384 0.61789 0.0
Zn72 Zn 0.69518 0.63393 0.60009 0.0
Zn73 Zn 0.73939 0.54895 0.63109 0.0
Zn74 Zn 0.79082 0.68873 0.64888 0.0
O75 O 0.67319 0.69564 0.61702 0.0
O76 O 0.76065 0.75097 0.6428 0.0
O77 O 0.82236 0.69167 0.55602 0.0
O78 O 0.71902 0.66266 0.56183 0.0
O79 O 0.61806 0.54727 0.59709 0.0
O80 O 0.65119 0.48559 0.61684 0.0
O81 O 0.74366 0.5459 0.67213 0.0
O82 O 0.92114 0.74254 0.61019 0.0
O83 O 0.75983 0.64186 0.68411 0.0
O84 O 0.88674 0.73612 0.65269 0.0
C85 C 0.84887 0.54839 0.60104 0.0
C86 C 0.71105 0.74536 0.63067 0.0
C87 C 0.60876 0.49247 0.60401 0.0
C88 C 0.76933 0.68514 0.54707 0.0
C89 C 0.74963 0.58622 0.69029 0.0
C90 C 0.93225 0.75717 0.63533 0.0
O91 O 0.8012 0.52456 0.61737 0.0
O92 O 0.22316 0.8013 0.09223 0.0
Zn93 Zn 0.13885 0.80087 0.09032 0.0
O94 O 0.08419 0.75701 0.12168 0.0
Zn95 Zn 0.0116 0.67665 0.10918 0.0
Zn96 Zn 0.13023 0.73873 0.14754 0.0
Zn97 Zn 0.06028 0.81177 0.14047 0.0
O98 O 0.93108 0.67996 0.11502 0.0
O99 O 0.96902 0.77932 0.13147 0.0
O100 O 0.08994 0.76465 0.05539 0.0
O101 O 0.01335 0.6675 0.06848 0.0
O102 O 0.00869 0.59897 0.12593 0.0
O103 O 0.10013 0.6471 0.14906 0.0
O104 O 0.1315 0.76911 0.18459 0.0
O105 O 0.16791 0.89425 0.09127 0.0
O106 O 0.0771 0.82068 0.18102 0.0
O107 O 0.11401 0.90114 0.12677 0.0
C108 C 0.25066 0.80375 0.11479 0.0
C109 C 0.92339 0.72647 0.12219 0.0
C110 C 0.05052 0.59606 0.1409 0.0
C111 C 0.04204 0.70933 0.0499 0.0
C112 C 0.10915 0.80185 0.19502 0.0
C113 C 0.15449 0.92684 0.10749 0.0
O114 O 0.21956 0.78493 0.13693 0.0
O115 O 0.34396 0.21389 0.58537 0.0
Zn116 Zn 0.27414 0.12585 0.59734 0.0
O117 O 0.30711 0.09034 0.62512 0.0
Zn118 Zn 0.29494 0.00764 0.61356 0.0
Zn119 Zn 0.39717 0.14882 0.63254 0.0
Zn120 Zn 0.26203 0.07814 0.65882 0.0
O121 O 0.22895 0.93429 0.63652 0.0
O122 O 0.19989 0.98584 0.66511 0.0
O123 O 0.24538 0.07032 0.56342 0.0
O124 O 0.25743 -0.01155 0.57646 0.0
O125 O 0.38048 0.01081 0.60791 0.0
O126 O 0.44966 0.11321 0.61809 0.0
O127 O 0.4176 0.174 0.67205 0.0
O128 O 0.20393 0.13954 0.61328 0.0
O129 O 0.32011 0.11696 0.6906 0.0
O130 O 0.21045 0.12114 0.65732 0.0
C131 C 0.40148 0.24852 0.59403 0.0
C132 C 0.19226 0.93344 0.65553 0.0
C133 C 0.43784 0.05883 0.60916 0.0
C134 C 0.24214 0.01673 0.55862 0.0
C135 C 0.38035 0.15624 0.69265 0.0
C136 C 0.18826 0.13974 0.63811 0.0
O137 O 0.42545 0.22895 0.61213 0.0
O138 O 0.57627 0.80883 0.41214 0.0
Zn139 Zn 0.66328 0.81815 0.40722 0.0
O140 O 0.6664 0.77663 0.37445 0.0
Zn141 Zn 0.67013 0.70149 0.38276 0.0
Zn142 Zn 0.59344 0.75856 0.35338 0.0
Zn143 Zn 0.7401 0.83089 0.35392 0.0
O144 O 0.73401 0.69553 0.35829 0.0
O145 O 0.8022 0.80129 0.35802 0.0
O146 O 0.69297 0.78781 0.43978 0.0
O147 O 0.70198 0.70829 0.42107 0.0
O148 O 0.5807 0.62556 0.38127 0.0
O149 O 0.52739 0.66809 0.36078 0.0
O150 O 0.61343 0.77723 0.31343 0.0
O151 O 0.71603 0.9125 0.40149 0.0
O152 O 0.72051 0.82467 0.31424 0.0
O153 O 0.77297 0.92211 0.36441 0.0
C154 C 0.5492 0.82072 0.39241 0.0
C155 C 0.79018 0.74387 0.35442 0.0
C156 C 0.52883 0.62136 0.37223 0.0
C157 C 0.70736 0.74352 0.4414 0.0
C158 C 0.66784 0.80428 0.30128 0.0
C159 C 0.75621 0.94701 0.38329 0.0
O160 O 0.55879 0.81194 0.3677 0.0
O161 O 0.74924 0.62038 0.90839 0.0
Zn162 Zn 0.84346 0.68439 0.90344 0.0
O163 O 0.87527 0.66123 0.87195 0.0
Zn164 Zn 0.95712 0.66796 0.87951 0.0
Zn165 Zn 0.8188 0.57608 0.86133 0.0
Zn166 Zn 0.8803 0.71516 0.84291 0.0
O167 O 0.02688 0.75253 0.86572 0.0
O168 O 0.97076 0.78737 0.84203 0.0
O169 O 0.8958 0.69069 0.93673 0.0
O170 O 0.9691 0.66876 0.91998 0.0
O171 O 0.96097 0.59214 0.86478 0.0
O172 O 0.8565 0.52388 0.8725 0.0
O173 O 0.80382 0.56677 0.82082 0.0
O174 O 0.84153 0.76529 0.89663 0.0
O175 O 0.85124 0.66869 0.80725 0.0
O176 O 0.8251 0.753 0.85181 0.0
C177 C 0.71264 0.56837 0.89576 0.0
C178 C 0.02354 0.79566 0.85198 0.0
C179 C 0.9137 0.53529 0.86805 0.0
C180 C 0.94324 0.68113 0.93998 0.0
C181 C 0.81948 0.60874 0.80215 0.0
C182 C 0.82182 0.77698 0.87441 0.0
O183 O 0.73373 0.54573 0.87778 0.0
O184 O 0.1264 0.74489 0.40235 0.0
Zn185 Zn 0.14254 0.83495 0.40165 0.0
O186 O 0.21323 0.88617 0.37667 0.0
Zn187 Zn 0.28353 0.9553 0.39561 0.0
Zn188 Zn 0.23946 0.83668 0.35606 0.0
Zn189 Zn 0.1832 0.92139 0.35028 0.0
O190 O 0.30195 0.04078 0.38161 0.0
O191 O 0.20584 0.00783 0.36234 0.0
O192 O 0.15872 0.87229 0.43933 0.0
O193 O 0.25892 0.95459 0.43441 0.0
O194 O 0.35984 0.94353 0.39552 0.0
O195 O 0.32896 0.86162 0.36656 0.0
O196 O 0.22452 0.83904 0.31584 0.0
O197 O 0.05949 0.82442 0.38782 0.0
O198 O 0.21552 0.92594 0.31298 0.0
O199 O 0.08942 0.86283 0.34612 0.0
C200 C 0.14427 0.7167 0.38552 0.0
C201 C 0.25858 0.05169 0.37254 0.0
C202 C 0.36984 0.90327 0.38291 0.0
C203 C 0.20877 0.92115 0.44883 0.0
C204 C 0.21711 0.87935 0.30182 0.0
C205 C 0.04563 0.83008 0.36335 0.0
O206 O 0.18489 0.7463 0.36668 0.0
O207 O 0.36605 0.14904 0.90857 0.0
Zn208 Zn 0.2976 0.17133 0.89998 0.0
O209 O 0.3216 0.23215 0.86973 0.0
Zn210 Zn 0.31303 0.305 0.88041 0.0
Zn211 Zn 0.40851 0.25942 0.85933 0.0
Zn212 Zn 0.26792 0.19371 0.83841 0.0
O213 O 0.24124 0.30895 0.86079 0.0
O214 O 0.19989 0.21804 0.83722 0.0
O215 O 0.27475 0.20303 0.93404 0.0
O216 O 0.28438 0.29444 0.91877 0.0
O217 O 0.39908 0.38634 0.8814 0.0
O218 O 0.46455 0.34713 0.8734 0.0
O219 O 0.41978 0.25613 0.81904 0.0
O220 O 0.22552 0.08653 0.88793 0.0
O221 O 0.31866 0.21142 0.80385 0.0
O222 O 0.21963 0.09927 0.84322 0.0
C223 C 0.41629 0.16175 0.89502 0.0
C224 C 0.19551 0.26463 0.84696 0.0
C225 C 0.45514 0.39257 0.88048 0.0
C226 C 0.27169 0.25385 0.9377 0.0
C227 C 0.37891 0.2349 0.79971 0.0
C228 C 0.20424 0.06391 0.86431 0.0
O229 O 0.43597 0.20109 0.87522 0.0
O230 O 0.23402 0.40914 0.40754 0.0
Zn231 Zn 0.15303 0.32467 0.40614 0.0
O232 O 0.09562 0.318 0.37708 0.0
Zn233 Zn 0.02483 0.32098 0.39341 0.0
Zn234 Zn 0.14424 0.38832 0.35314 0.0
Zn235 Zn 0.06236 0.23904 0.35765 0.0
O236 O 0.94027 0.25678 0.3774 0.0
O237 O 0.96768 0.18427 0.36569 0.0
O238 O 0.10947 0.29761 0.44212 0.0
O239 O 0.01789 0.29587 0.43265 0.0
O240 O 0.03884 0.40873 0.39051 0.0
O241 O 0.11808 0.45421 0.3596 0.0
O242 O 0.13892 0.35961 0.31419 0.0
O243 O 0.18429 0.26593 0.39819 0.0
O244 O 0.07473 0.25359 0.3173 0.0
O245 O 0.11474 0.1979 0.36755 0.0
C246 C 0.26472 0.43895 0.38626 0.0
C247 C 0.92512 0.19973 0.37112 0.0
C248 C 0.07794 0.45639 0.37601 0.0
C249 C 0.05422 0.28776 0.44916 0.0
C250 C 0.11 0.30395 0.30334 0.0
C251 C 0.16382 0.21706 0.38304 0.0
O252 O 0.23709 0.43013 0.36325 0.0
O253 O 0.8181 0.24932 0.89558 0.0
Zn254 Zn 0.81207 0.16234 0.89575 0.0
O255 O 0.75275 0.10676 0.86776 0.0
Zn256 Zn 0.68146 0.03074 0.88214 0.0
Zn257 Zn 0.71775 0.15191 0.85177 0.0
Zn258 Zn 0.79549 0.09103 0.83892 0.0
O259 O 0.68636 0.95393 0.8697 0.0
O260 O 0.77526 0.00171 0.84383 0.0
O261 O 0.78767 0.11794 0.93275 0.0
O262 O 0.6951 0.03042 0.92151 0.0
O263 O 0.5969 0.03056 0.87984 0.0
O264 O 0.64015 0.13572 0.87236 0.0
O265 O 0.69578 0.1335 0.81277 0.0
O266 O 0.9022 0.1847 0.88536 0.0
O267 O 0.76925 0.10661 0.80223 0.0
O268 O 0.89134 0.14667 0.8431 0.0
C269 C 0.81827 0.27534 0.87291 0.0
C270 C 0.7321 0.95303 0.85673 0.0
C271 C 0.59311 0.08162 0.87981 0.0
C272 C 0.73745 0.0647 0.93906 0.0
C273 C 0.72689 0.12105 0.79531 0.0
C274 C 0.92637 0.17836 0.86326 0.0
O275 O 0.78716 0.24121 0.8527 0.0
C276 C 0.23387 0.03237 0.127 0.0
C277 C 0.19046 -0.00286 0.10565 0.0
C278 C 0.20009 0.09551 0.08725 0.0
C279 C 0.23102 0.12715 0.11179 0.0
N280 N 0.28158 0.12938 0.15445 0.0
N281 N 0.13369 -0.0065 0.0645 0.0
C282 C 0.25038 0.09707 0.13133 0.0
C283 C 0.17515 0.02844 0.08506 0.0
N284 N 0.25909 0.00362 0.14287 0.0
N285 N 0.19387 0.12973 0.06639 0.0
H286 H 0.11575 0.94432 0.06201 0.0
H287 H 0.11443 0.01234 0.05072 0.0
H288 H 0.2116 0.17909 0.06766 0.0
H289 H 0.17677 0.11077 0.0471 0.0
H290 H 0.2946 0.02787 0.15757 0.0
H291 H 0.24873 0.95657 0.1394 0.0
H292 H 0.29049 0.10778 0.17099 0.0
H293 H 0.29632 0.1778 0.15744 0.0
C294 C 0.09021 0.12764 0.6617 0.0
C295 C 0.14578 0.16528 0.64544 0.0
C296 C 0.11941 0.25128 0.64325 0.0
C297 C 0.05997 0.20946 0.65643 0.0
N298 N 0.01244 0.13053 0.69217 0.0
N299 N 0.22552 0.271 0.62965 0.0
C300 C 0.05319 0.15501 0.67039 0.0
C301 C 0.16433 0.22987 0.63883 0.0
N302 N 0.0706 0.06493 0.66768 0.0
N303 N 0.13282 0.31123 0.63547 0.0
H304 H 0.2603 0.2573 0.62776 0.0
H305 H 0.24381 0.31981 0.62618 0.0
H306 H 0.10578 0.3313 0.64259 0.0
H307 H 0.17062 0.34107 0.62251 0.0
H308 H 0.02689 0.03446 0.6774 0.0
H309 H 0.09457 0.04158 0.6607 0.0
H310 H 0.00892 0.09311 0.70418 0.0
H311 H -0.01084 0.15374 0.70018 0.0
C312 C 0.86061 0.15308 0.12888 0.0
C313 C 0.83346 0.1009 0.11055 0.0
C314 C 0.93067 0.15093 0.08242 0.0
C315 C 0.96198 0.19476 0.10385 0.0
N316 N 0.95858 0.24693 0.14516 0.0
N317 N 0.83807 0.0498 0.06891 0.0
C318 C 0.92708 0.19957 0.12618 0.0
C319 C 0.86654 0.10063 0.08656 0.0
N320 N 0.82315 0.15657 0.14905 0.0
N321 N 0.96293 0.15655 0.05865 0.0
H322 H 0.79039 0.0125 0.07106 0.0
H323 H 0.86213 0.04273 0.05283 0.0
H324 H 0.01077 0.19256 0.05544 0.0
H325 H 0.94102 0.12936 0.04131 0.0
H326 H 0.8387 0.19508 0.16241 0.0
H327 H 0.77425 0.1222 0.15118 0.0
H328 H 0.93806 0.24999 0.16336 0.0
H329 H 0.00667 0.28336 0.14277 0.0
C330 C 0.73768 0.838 0.60139 0.0
C331 C 0.70952 0.80458 0.62591 0.0
C332 C 0.71685 0.90149 0.64481 0.0
C333 C 0.75861 0.93729 0.62293 0.0
N334 N 0.81957 0.93918 0.58311 0.0
N335 N 0.67257 0.80352 0.67157 0.0
C336 C 0.77165 0.90554 0.60175 0.0
C337 C 0.69883 0.83597 0.64785 0.0
N338 N 0.73332 0.80568 0.57793 0.0
N339 N 0.69273 0.92906 0.66192 0.0
H340 H 0.65581 0.7544 0.67362 0.0
H341 H 0.67032 0.82601 0.68933 0.0
H342 H 0.70179 0.9759 0.65933 0.0
H343 H 0.65821 0.90326 0.67683 0.0
H344 H 0.7493 0.82876 0.55917 0.0
H345 H 0.70601 0.7559 0.57649 0.0
H346 H 0.83408 0.9168 0.56888 0.0
H347 H 0.85026 -0.01112 0.58389 0.0
C348 C 0.87548 0.7648 0.08802 0.0
C349 C 0.86724 0.72808 0.11192 0.0
C350 C 0.77037 0.73037 0.12429 0.0
C351 C 0.78293 0.77312 0.1021 0.0
N352 N 0.83279 0.8154 0.05848 0.0
N353 N 0.80077 0.66108 0.14842 0.0
C354 C 0.83016 0.78439 0.08224 0.0
C355 C 0.81195 0.70525 0.1285 0.0
N356 N 0.92939 0.78498 0.07215 0.0
N357 N 0.72027 0.71622 0.1417 0.0
H358 H 0.83151 0.64261 0.15152 0.0
H359 H 0.75945 0.63933 0.1605 0.0
H360 H 0.68697 0.73136 0.13818 0.0
H361 H 0.71191 0.69059 0.15978 0.0
H362 H 0.94262 0.8184 0.05645 0.0
H363 H 0.96317 0.77041 0.07549 0.0
H364 H 0.86224 0.8196 0.04208 0.0
H365 H 0.80167 0.83273 0.05414 0.0
C366 C 0.04564 0.77581 0.63855 0.0
C367 C -0.00016 0.79517 0.64518 0.0
C368 C 0.08056 0.87915 0.6744 0.0
C369 C 0.12949 0.87312 0.66104 0.0
N370 N 0.15843 0.80282 0.63846 0.0
N371 N 0.97571 0.86877 0.66907 0.0
C372 C 0.11182 0.81676 0.64577 0.0
C373 C 0.01738 0.84707 0.66347 0.0
N374 N 0.02553 0.71775 0.62632 0.0
N375 N 0.09477 0.9154 0.69745 0.0
H376 H 0.93019 0.84973 0.66012 0.0
H377 H -0.01079 0.91019 0.68045 0.0
H378 H 0.14029 0.93561 0.70662 0.0
H379 H 0.05972 0.91816 0.70902 0.0
H380 H 0.05523 0.69852 0.62277 0.0
H381 H 0.97744 0.68593 0.62136 0.0
H382 H 0.15165 0.76761 0.62442 0.0
H383 H 0.20459 0.82702 0.64708 0.0
C384 C 0.95317 0.81945 0.33452 0.0
C385 C 0.97752 0.79383 0.3544 0.0
C386 C 0.86785 0.70657 0.36405 0.0
C387 C 0.84479 0.73636 0.34613 0.0
N388 N 0.86278 0.79657 0.30501 0.0
N389 N 0.95958 0.6971 0.37776 0.0
C390 C 0.88724 0.78289 0.32749 0.0
C391 C 0.93542 0.73192 0.36582 0.0
N392 N -0.01031 0.88064 0.32463 0.0
N393 N 0.82612 0.65719 0.38047 0.0
H394 H 0.00877 0.71256 0.37815 0.0
H395 H 0.93045 0.64981 0.38437 0.0
H396 H 0.77611 0.63438 0.37814 0.0
H397 H 0.84141 0.63999 0.39665 0.0
H398 H 0.97093 0.90173 0.31174 0.0
H399 H 0.03578 0.91349 0.33161 0.0
H400 H 0.89195 0.82809 0.28977 0.0
H401 H 0.81325 0.77089 0.30073 0.0
C402 C 0.06709 0.89603 0.87803 0.0
C403 C 0.07458 0.86218 0.85606 0.0
C404 C 0.17292 0.9588 0.84176 0.0
C405 C 0.15995 -0.00552 0.86135 0.0
N406 N 0.08677 -0.00113 0.89412 0.0
N407 N 0.1298 0.86035 0.81544 0.0
C408 C 0.10508 0.96363 0.87855 0.0
C409 C 0.12616 0.8932 0.8374 0.0
N410 N 0.0237 0.8636 0.89845 0.0
N411 N 0.23072 0.98662 0.82822 0.0
H412 H 0.09727 0.81148 0.8124 0.0
H413 H 0.1623 0.88238 0.79946 0.0
H414 H 0.26724 0.03406 0.83134 0.0
H415 H 0.24502 0.961 0.81576 0.0
H416 H 0.02168 0.8857 0.91637 0.0
H417 H -0.00645 0.81375 0.89869 0.0
H418 H 0.0435 0.97853 0.90498 0.0
H419 H 0.11103 0.04897 0.89394 0.0
C420 C 0.20354 0.15071 0.40528 0.0
C421 C 0.20165 0.18498 0.38215 0.0
C422 C 0.26482 0.15074 0.35562 0.0
C423 C 0.26258 0.11299 0.37805 0.0
N424 N 0.25228 0.09431 0.42646 0.0
N425 N 0.24893 0.23665 0.33927 0.0
C426 C 0.24012 0.11956 0.4038 0.0
C427 C 0.23845 0.19133 0.35852 0.0
N428 N 0.16765 0.14496 0.42791 0.0
N429 N 0.2891 0.14491 0.3313 0.0
H430 H 0.2305 0.26759 0.34105 0.0
H431 H 0.28026 0.24727 0.32284 0.0
H432 H 0.3116 0.11752 0.32934 0.0
H433 H 0.28483 0.16501 0.31315 0.0
H434 H 0.16163 0.11463 0.4442 0.0
H435 H 0.13988 0.16706 0.42966 0.0
H436 H 0.24071 0.101 0.44618 0.0
H437 H 0.28047 0.07258 0.42571 0.0
C438 C 0.0957 0.207 0.87461 0.0
C439 C 0.12933 0.25074 0.85294 0.0
C440 C 0.03195 0.25422 0.84084 0.0
C441 C -0.00288 0.20666 0.86105 0.0
N442 N -0.00445 0.14309 0.8995 0.0
N443 N 0.1314 0.31419 0.81472 0.0
C444 C 0.02905 0.1849 0.87874 0.0
C445 C 0.09818 0.27444 0.836 0.0
N446 N 0.12702 0.18383 0.89024 0.0
N447 N 0.00214 0.28178 0.82717 0.0
H448 H 0.18049 0.33122 0.81141 0.0
H449 H 0.11016 0.32785 0.79962 0.0
H450 H 0.95418 0.26915 0.83074 0.0
H451 H 0.02584 0.32063 0.81393 0.0
H452 H 0.10413 0.14543 0.90368 0.0
H453 H 0.17659 0.20109 0.88912 0.0
H454 H 0.01673 0.13143 0.91532 0.0
H455 H 0.94566 0.12115 0.90188 0.0
C456 C 0.82944 0.1079 0.35033 0.0
C457 C 0.85759 0.14773 0.37315 0.0
C458 C 0.79486 0.05797 0.40398 0.0
C459 C 0.77753 0.01631 0.38115 0.0
N460 N 0.74265 0.00579 0.33442 0.0
N461 N 0.84365 0.16584 0.42055 0.0
C462 C 0.78328 0.04259 0.35473 0.0
C463 C 0.83153 0.12498 0.39939 0.0
N464 N 0.84948 0.13178 0.32472 0.0
N465 N 0.778 0.03518 0.42995 0.0
H466 H 0.86946 0.21589 0.41862 0.0
H467 H 0.86946 0.21589 0.41862 0.0
H468 H 0.75289 -0.01319 0.43521 0.0
H469 H 0.7885 0.06573 0.44658 0.0
H470 H 0.83572 0.1028 0.30739 0.0
H471 H 0.88174 0.18061 0.32128 0.0
H472 H 0.74104 0.02463 0.31548 0.0
H473 H 0.70543 0.95867 0.33789 0.0
C474 C 0.72948 0.79559 0.86752 0.0
C475 C 0.79536 0.82024 0.87445 0.0
C476 C 0.81065 0.92755 0.87763 0.0
C477 C 0.7498 0.90508 0.86466 0.0
N478 N 0.65067 0.81759 0.84674 0.0
N479 N 0.90112 0.91095 0.88404 0.0
C480 C 0.70853 0.83884 0.85962 0.0
C481 C 0.83667 0.88654 0.8792 0.0
N482 N 0.68683 0.73124 0.8697 0.0
N483 N 0.84256 -0.01277 0.8893 0.0
H484 H 0.92222 0.88229 0.88543 0.0
H485 H 0.93438 0.96016 0.88447 0.0
H486 H 0.82385 0.01812 0.88982 0.0
H487 H 0.8837 0.00267 0.90132 0.0
H488 H 0.63718 0.71064 0.86672 0.0
H489 H 0.70072 0.70007 0.87793 0.0
H490 H 0.62164 0.77031 0.84019 0.0
H491 H 0.63397 0.84841 0.84094 0.0
C492 C 0.10035 0.53877 0.16158 0.0
C493 C 0.05101 0.53504 0.14467 0.0
C494 C 0.05285 0.44892 0.11915 0.0
C495 C 0.11542 0.46938 0.13026 0.0
N496 N 0.20172 0.54098 0.16079 0.0
N497 N 0.96594 0.47208 0.1127 0.0
C498 C 0.13971 0.51558 0.15152 0.0
C499 C 0.0222 0.48507 0.12518 0.0
N500 N 0.11147 0.56789 0.18639 0.0
N501 N 0.02145 0.39359 0.10427 0.0
H502 H 0.93671 0.48914 0.12031 0.0
H503 H 0.94783 0.4436 0.09535 0.0
H504 H 0.04091 0.36434 0.10048 0.0
H505 H 0.97364 0.37325 0.09785 0.0
H506 H 0.14503 0.56879 0.20024 0.0
H507 H 0.08177 0.58469 0.19385 0.0
H508 H 0.2222 0.57852 0.17485 0.0
H509 H 0.235 0.53027 0.15216 0.0
C510 C 0.58987 0.11891 0.56862 0.0
C511 C 0.6176 0.08699 0.5822 0.0
C512 C 0.51715 0.01946 0.60721 0.0
C513 C 0.49192 0.05646 0.5959 0.0
N514 N 0.49382 0.12574 0.55986 0.0
N515 N 0.60402 -0.0052 0.60705 0.0
C516 C 0.52479 0.10063 0.57435 0.0
C517 C 0.57935 0.03234 0.59873 0.0
N518 N 0.62739 0.16933 0.55173 0.0
N519 N 0.48405 0.97588 0.62737 0.0
H520 H 0.6498 0.00411 0.60109 0.0
H521 H 0.57756 0.95178 0.61768 0.0
H522 H 0.43796 0.96484 0.63365 0.0
H523 H 0.50304 0.95264 0.63871 0.0
H524 H 0.61308 0.2003 0.54369 0.0
H525 H 0.67441 0.18117 0.54646 0.0
H526 H 0.51292 0.1539 0.54247 0.0
H527 H 0.44643 0.11411 0.56407 0.0
C528 C 0.43092 0.61757 0.0835 0.0
C529 C 0.49648 0.64408 0.09081 0.0
C530 C 0.47586 0.54141 0.10968 0.0
C531 C 0.40951 0.5161 0.104 0.0
N532 N 0.32692 0.521 0.07747 0.0
N533 N 0.58563 0.6292 0.10253 0.0
C534 C 0.38803 0.55129 0.08816 0.0
C535 C 0.52038 0.60487 0.10098 0.0
N536 N 0.40916 0.65647 0.07368 0.0
N537 N 0.49556 0.50623 0.12451 0.0
H538 H 0.61863 0.67549 0.09572 0.0
H539 H 0.60676 0.60213 0.10803 0.0
H540 H 0.46379 0.45912 0.13076 0.0
H541 H 0.54244 0.52464 0.13184 0.0
H542 H 0.36036 0.64161 0.07133 0.0
H543 H 0.44029 0.70488 0.06905 0.0
H544 H 0.3105 0.54288 0.06385 0.0
H545 H 0.29452 0.47194 0.08011 0.0
C546 C 0.87823 0.4775 0.57597 0.0
C547 C 0.88585 0.51526 0.5992 0.0
C548 C 0.92803 0.45822 0.62554 0.0
C549 C 0.90616 0.41195 0.60457 0.0
N550 N 0.87152 0.37995 0.55833 0.0
N551 N 0.92488 0.54913 0.64496 0.0
C552 C 0.88604 0.4232 0.57899 0.0
C553 C 0.91477 0.50909 0.62343 0.0
N554 N 0.8612 0.49242 0.55161 0.0
N555 N 0.95927 0.45192 0.64762 0.0
H556 H 0.91681 0.58779 0.64367 0.0
H557 H 0.93888 0.54314 0.66432 0.0
H558 H 0.96849 0.41408 0.64956 0.0
H559 H 0.98056 0.48631 0.66289 0.0
H560 H 0.85766 0.46887 0.53339 0.0
H561 H 0.85486 0.53199 0.54927 0.0
H562 H 0.85055 0.38116 0.53993 0.0
H563 H 0.88001 0.34153 0.55986 0.0
C564 C 0.43066 0.9247 0.11611 0.0
C565 C 0.4503 0.89003 0.13328 0.0
C566 C 0.34179 0.79921 0.13474 0.0
C567 C 0.32072 0.83155 0.11708 0.0
N568 N 0.34103 0.9328 0.09763 0.0
N569 N 0.41737 0.81457 0.17041 0.0
C570 C 0.36393 0.89666 0.10945 0.0
C571 C 0.40299 0.83428 0.14667 0.0
N572 N 0.4749 0.98443 0.10682 0.0
N573 N 0.30376 0.73485 0.13984 0.0
H574 H 0.46213 0.84211 0.17998 0.0
H575 H 0.3828 0.77563 0.18171 0.0
H576 H 0.25934 0.70641 0.13017 0.0
H577 H 0.31974 0.70902 0.15134 0.0
H578 H 0.46581 0.00731 0.09082 0.0
H579 H 0.52026 0.0118 0.1158 0.0
H580 H 0.36919 0.98221 0.0945 0.0
H581 H 0.2926 0.91481 0.09276 0.0
C582 C 0.48807 0.42196 0.60247 0.0
C583 C 0.55032 0.43495 0.59419 0.0
C584 C 0.50397 0.32922 0.57308 0.0
C585 C 0.44331 0.31421 0.58393 0.0
N586 N 0.37206 0.35181 0.59767 0.0
N587 N 0.6147 0.4115 0.56357 0.0
C588 C 0.43346 0.36291 0.59462 0.0
C589 C 0.55737 0.39198 0.5767 0.0
N590 N 0.48143 0.46353 0.61926 0.0
N591 N 0.51058 0.282 0.56075 0.0
H592 H 0.6543 0.45796 0.56543 0.0
H593 H 0.62123 0.38388 0.549 0.0
H594 H 0.47063 0.23674 0.5567 0.0
H595 H 0.55492 0.28687 0.55538 0.0
H596 H 0.43771 0.45288 0.62824 0.0
H597 H 0.52046 0.50697 0.62584 0.0
H598 H 0.36148 0.38694 0.60377 0.0
H599 H 0.33215 0.3093 0.59084 0.0
C600 C 0.48495 0.93148 0.38075 0.0
C601 C 0.4226 0.89401 0.39196 0.0
C602 C 0.44939 0.81601 0.41024 0.0
C603 C 0.51054 0.85122 0.39751 0.0
N604 N 0.59441 0.95083 0.37828 0.0
N605 N 0.3511 0.81373 0.42413 0.0
C606 C 0.53101 0.9121 0.38536 0.0
C607 C 0.40693 0.84075 0.40917 0.0
N608 N 0.49875 0.9833 0.36468 0.0
N609 N 0.43025 0.75716 0.42156 0.0
H610 H 0.31892 0.83105 0.42364 0.0
H611 H 0.33954 0.77827 0.43881 0.0
H612 H 0.46077 0.73819 0.42322 0.0
H613 H 0.38316 0.72557 0.42798 0.0
H614 H 0.54095 0.00824 0.35326 0.0
H615 H 0.4662 -0.00034 0.36184 0.0
H616 H 0.61371 -0.00213 0.37131 0.0
H617 H 0.6291 0.93762 0.38178 0.0
C618 C 0.60944 0.54514 0.87425 0.0
C619 C 0.64247 0.53974 0.89731 0.0
C620 C 0.54346 0.44839 0.91415 0.0
C621 C 0.51149 0.45156 0.89028 0.0
N622 N 0.50627 0.51336 0.85286 0.0
N623 N 0.63914 0.50088 0.94277 0.0
C624 C 0.54173 0.50434 0.87235 0.0
C625 C 0.60845 0.49686 0.91875 0.0
N626 N 0.64342 0.58545 0.85322 0.0
N627 N 0.5132 0.39651 0.93118 0.0
H628 H 0.68744 0.5356 0.94616 0.0
H629 H 0.61546 0.47392 0.95999 0.0
H630 H 0.46549 0.36 0.92822 0.0
H631 H 0.53626 0.38764 0.94718 0.0
H632 H 0.62268 0.58622 0.83467 0.0
H633 H 0.69349 0.61583 0.85365 0.0
H634 H 0.52487 0.55417 0.84056 0.0
H635 H 0.45645 0.48285 0.85089 0.0
C636 C 0.13354 0.61855 0.40724 0.0
C637 C 0.11514 0.64686 0.38641 0.0
C638 C 0.06354 0.5466 0.36047 0.0
C639 C 0.0832 0.51871 0.38098 0.0
N640 N 0.12617 0.52204 0.42602 0.0
N641 N 0.05377 0.63767 0.34591 0.0
C642 C 0.1141 0.55256 0.40523 0.0
C643 C 0.07693 0.61056 0.36391 0.0
N644 N 0.17361 0.65591 0.42776 0.0
N645 N 0.03404 0.51242 0.3374 0.0
H646 H 0.06456 0.68528 0.34736 0.0
H647 H 0.02055 0.61235 0.33057 0.0
H648 H 0.02039 0.46412 0.33501 0.0
H649 H 0.02525 0.53208 0.32016 0.0
H650 H 0.19599 0.64038 0.44152 0.0
H651 H 0.18802 0.70436 0.43017 0.0
H652 H 0.14142 0.54179 0.44534 0.0
H653 H 0.11715 0.475 0.42477 0.0
C654 C 0.47793 0.05385 0.87471 0.0
C655 C 0.53532 0.08097 0.89041 0.0
C656 C 0.50136 0.14538 0.91644 0.0
C657 C 0.44733 0.12303 0.899 0.0
N658 N 0.37181 0.04204 0.86837 0.0
N659 N 0.592 0.13421 0.93143 0.0
C660 C 0.43121 0.07188 0.88058 0.0
C661 C 0.5434 0.12033 0.91325 0.0
N662 N 0.47046 0.01499 0.85309 0.0
N663 N 0.5141 0.1929 0.93483 0.0
H664 H 0.62279 0.11546 0.92941 0.0
H665 H 0.59816 0.15907 0.94956 0.0
H666 H 0.4823 0.21001 0.9381 0.0
H667 H 0.55672 0.21672 0.94606 0.0
H668 H 0.43347 0.00014 0.8388 0.0
H669 H 0.50324 -0.00028 0.84871 0.0
H670 H 0.35495 0.0013 0.8562 0.0
H671 H 0.33699 0.05477 0.87261 0.0
C672 C 0.37273 0.46288 0.37008 0.0
C673 C 0.33528 0.47911 0.38723 0.0
C674 C 0.43262 0.57617 0.40167 0.0
C675 C 0.46677 0.56662 0.38035 0.0
N676 N 0.47186 0.5019 0.34421 0.0
N677 N 0.32807 0.55229 0.41873 0.0
C678 C 0.4379 0.50977 0.36473 0.0
C679 C 0.36484 0.53545 0.40333 0.0
N680 N 0.34609 0.40234 0.35945 0.0
N681 N 0.46522 0.6243 0.42019 0.0
H682 H 0.27793 0.52388 0.42031 0.0
H683 H 0.34675 0.59674 0.42832 0.0
H684 H 0.51523 0.65514 0.41939 0.0
H685 H 0.44378 0.62945 0.43774 0.0
H686 H 0.3724 0.38602 0.3486 0.0
H687 H 0.29894 0.36634 0.36395 0.0
H688 H 0.45094 0.46477 0.33003 0.0
H689 H 0.52064 0.53476 0.34057 0.0
C690 C 0.94146 0.45318 0.88206 0.0
C691 C 0.91928 0.47906 0.86181 0.0
C692 C 0.83404 0.37411 0.84896 0.0
C693 C 0.85526 0.34586 0.86902 0.0
N694 N 0.94632 0.3596 0.89635 0.0
N695 N 0.8672 0.4645 0.81859 0.0
C696 C 0.91459 0.3855 0.88308 0.0
C697 C 0.87529 0.4388 0.84202 0.0
N698 N -0.01449 0.49268 0.90086 0.0
N699 N 0.77243 0.34249 0.83882 0.0
H700 H 0.89617 0.51349 0.81422 0.0
H701 H 0.83671 0.43621 0.8029 0.0
H702 H 0.73576 0.2993 0.84685 0.0
H703 H 0.75525 0.36397 0.82531 0.0
H704 H -0.00201 0.47545 0.91795 0.0
H705 H 0.0072 0.54265 0.89963 0.0
H706 H -0.00838 0.38777 0.90527 0.0
H707 H 0.93169 0.31091 0.89546 0.0
C708 C 0.15663 0.26483 0.26723 0.0
C709 C 0.12275 0.29748 0.27429 0.0
C710 C 0.12142 0.3249 0.22628 0.0
C711 C 0.16191 0.29925 0.21995 0.0
N712 N 0.22302 0.24982 0.23394 0.0
N713 N 0.07479 0.36081 0.26104 0.0
C714 C 0.18061 0.27025 0.24026 0.0
C715 C 0.10579 0.32827 0.25393 0.0
N716 N 0.16562 0.22822 0.28611 0.0
N717 N 0.09596 0.34387 0.20572 0.0
H718 H 0.05747 0.3597 0.28065 0.0
H719 H 0.06882 0.39139 0.24786 0.0
H720 H 0.10597 0.34196 0.18518 0.0
H721 H 0.06067 0.35645 0.20868 0.0
H722 H 0.18302 0.19755 0.28134 0.0
H723 H 0.15113 0.22413 0.30632 0.0
H724 H 0.24497 0.23537 0.24843 0.0
H725 H 0.24021 0.25182 0.21421 0.0
C726 C 0.775 0.2164 0.73002 0.0
C727 C 0.74781 0.16484 0.71136 0.0
C728 C 0.68781 0.08851 0.74786 0.0
C729 C 0.72472 0.13773 0.76678 0.0
N730 N 0.79991 0.24923 0.77722 0.0
N731 N 0.67176 0.05436 0.70052 0.0
C732 C 0.76613 0.20236 0.75828 0.0
C733 C 0.70112 0.10167 0.71968 0.0
N734 N 0.81029 0.2782 0.72065 0.0
N735 N 0.64084 0.02963 0.75706 0.0
H736 H 0.67786 0.06408 0.67964 0.0
H737 H 0.64228 0.00578 0.70501 0.0
H738 H 0.63061 0.01962 0.77777 0.0
H739 H 0.6092 -0.00784 0.74447 0.0
H740 H 0.82721 0.31865 0.73298 0.0
H741 H 0.81826 0.28935 0.69996 0.0
H742 H 0.83657 0.29558 0.77246 0.0
H743 H 0.79322 0.24116 0.79814 0.0
C744 C 0.64558 0.77378 0.22496 0.0
C745 C 0.66578 0.83688 0.21538 0.0
C746 C 0.69891 0.87923 0.26138 0.0
C747 C 0.6703 0.81532 0.27157 0.0
N748 N 0.61286 0.70083 0.26348 0.0
N749 N 0.70056 0.94797 0.22505 0.0
C750 C 0.6422 0.76222 0.25348 0.0
C751 C 0.68976 0.88928 0.2337 0.0
N752 N 0.63289 0.72568 0.20684 0.0
N753 N 0.73535 0.9306 0.27793 0.0
H754 H 0.6926 0.95709 0.20506 0.0
H755 H 0.71109 0.98585 0.23827 0.0
H756 H 0.7429 0.92611 0.29846 0.0
H757 H 0.76329 0.97747 0.27066 0.0
H758 H 0.62456 0.68048 0.21263 0.0
H759 H 0.63684 0.73264 0.18579 0.0
H760 H 0.58458 0.66035 0.25158 0.0
H761 H 0.61379 0.69031 0.28405 0.0
C762 C 0.82815 0.59629 0.72595 0.0
C763 C 0.76322 0.57633 0.71862 0.0
C764 C 0.73223 0.56553 0.76664 0.0
C765 C 0.79772 0.58805 0.77392 0.0
N766 N 0.90367 0.60836 0.76171 0.0
N767 N 0.65109 0.52802 0.7307 0.0
C768 C 0.84429 0.59796 0.75389 0.0
C769 C 0.71432 0.55609 0.73863 0.0
N770 N 0.87494 0.61684 0.70627 0.0
N771 N 0.68813 0.55646 0.78639 0.0
H772 H 0.63736 0.52106 0.71022 0.0
H773 H 0.61217 0.507 0.74413 0.0
H774 H 0.69912 0.56102 0.80711 0.0
H775 H 0.64155 0.54732 0.78235 0.0
H776 H 0.92425 0.63967 0.71045 0.0
H777 H 0.86489 0.61425 0.68547 0.0
H778 H 0.9379 0.60983 0.7482 0.0
H779 H 0.91659 0.60981 0.78214 0.0
C780 C 0.0945 0.79673 0.24528 0.0
C781 C 0.13283 0.82835 0.22229 0.0
C782 C 0.22524 0.89795 0.25149 0.0
C783 C 0.18944 0.86115 0.27426 0.0
N784 N 0.09011 0.77509 0.29367 0.0
N785 N 0.23415 0.9077 0.20228 0.0
C786 C 0.12394 0.81047 0.27142 0.0
C787 C 0.19796 0.87907 0.22507 0.0
N788 N 0.02983 0.75433 0.24199 0.0
N789 N 0.28495 0.95113 0.25521 0.0
H790 H 0.21472 0.89765 0.18267 0.0
H791 H 0.28389 0.93925 0.20253 0.0
H792 H 0.30759 0.96439 0.2742 0.0
H793 H 0.31063 0.98432 0.23992 0.0
H794 H -0.00279 0.73398 0.25802 0.0
H795 H 0.00747 0.74334 0.22292 0.0
H796 H 0.04534 0.73309 0.29255 0.0
H797 H 0.10785 0.7854 0.31351 0.0
C798 C 0.40084 0.16737 0.76805 0.0
C799 C 0.39946 0.22491 0.7728 0.0
C800 C 0.40789 0.24778 0.72403 0.0
C801 C 0.40418 0.18782 0.7192 0.0
N802 N 0.41593 0.10016 0.73537 0.0
N803 N 0.4195 0.32799 0.75718 0.0
C804 C 0.40736 0.15101 0.74094 0.0
C805 C 0.40933 0.26809 0.75132 0.0
N806 N 0.39217 0.12681 0.78928 0.0
N807 N 0.40569 0.28297 0.70257 0.0
H808 H 0.42035 0.34334 0.77715 0.0
H809 H 0.4324 0.36408 0.74269 0.0
H810 H 0.40693 0.27061 0.6823 0.0
H811 H 0.40016 0.32296 0.70469 0.0
H812 H 0.38495 0.08069 0.78685 0.0
H813 H 0.38925 0.13811 0.80955 0.0
H814 H 0.42375 0.07387 0.75021 0.0
H815 H 0.42099 0.08804 0.71546 0.0
C816 C 0.19789 0.22698 0.97812 0.0
C817 C 0.25715 0.26953 0.96492 0.0
C818 C 0.28385 0.34962 0.00086 0.0
C819 C 0.22893 0.30427 0.01549 0.0
N820 N 0.13545 0.1983 0.01996 0.0
N821 N 0.36169 0.36711 0.96581 0.0
C822 C 0.1861 0.24258 0.0046 0.0
C823 C 0.30139 0.33001 0.97675 0.0
N824 N 0.15211 0.17296 0.96506 0.0
N825 N 0.31912 0.41151 0.01009 0.0
H826 H 0.37747 0.3536 0.94866 0.0
H827 H 0.39832 0.40817 0.97518 0.0
H828 H 0.30735 0.42706 0.02789 0.0
H829 H 0.35601 0.44865 -0.00111 0.0
H830 H 0.10521 0.1441 0.97233 0.0
H831 H 0.1593 0.15933 0.94584 0.0
H832 H 0.10724 0.15004 0.01462 0.0
H833 H 0.12384 0.20906 0.03898 0.0
C834 C 0.96536 0.20264 0.47643 0.0
C835 C 0.02732 0.25814 0.47579 0.0
C836 C 0.0303 0.25399 0.52526 0.0
C837 C 0.96195 0.21172 0.52564 0.0
N838 N 0.86282 0.15551 0.49885 0.0
N839 N 0.11918 0.3402 0.5006 0.0
C840 C 0.92873 0.18763 0.50056 0.0
C841 C 0.06052 0.28479 0.50048 0.0
N842 N 0.94203 0.16324 0.45433 0.0
N843 N 0.06652 0.26305 0.54812 0.0
H844 H 0.14232 0.36506 0.48287 0.0
H845 H 0.14188 0.36416 0.51853 0.0
H846 H 0.04693 0.23667 0.56597 0.0
H847 H 0.11691 0.29021 0.5481 0.0
H848 H 0.9001 0.1183 0.45547 0.0
H849 H 0.96848 0.17198 0.43633 0.0
H850 H 0.83904 0.14305 0.48013 0.0
H851 H 0.83221 0.14892 0.51509 0.0
C852 C 0.67768 0.93846 0.99351 0.0
C853 C 0.68435 0.97411 0.01749 0.0
C854 C 0.72742 0.07255 0.98991 0.0
C855 C 0.72788 0.03759 0.96683 0.0
N856 N 0.72188 0.94107 0.94909 0.0
N857 N 0.73289 0.07961 0.03889 0.0
C858 C 0.7091 0.97176 0.96946 0.0
C859 C 0.71423 0.04255 0.01591 0.0
N860 N 0.63851 0.87309 0.9931 0.0
N861 N 0.73656 0.13308 0.9871 0.0
H862 H 0.72749 0.06124 0.0585 0.0
H863 H 0.76063 0.12966 0.03826 0.0
H864 H 0.74531 0.15664 0.96841 0.0
H865 H 0.72946 0.15741 0.00306 0.0
H866 H 0.62845 0.84612 0.97529 0.0
H867 H 0.60968 0.84689 0.00956 0.0
H868 H 0.71362 0.89438 0.95112 0.0
H869 H 0.74747 0.96476 0.93154 0.0
C870 C 0.79608 0.76419 0.50861 0.0
C871 C 0.76277 0.69995 0.5184 0.0
C872 C 0.69125 0.66601 0.47874 0.0
C873 C 0.72698 0.72923 0.46793 0.0
N874 N 0.82171 0.83523 0.46967 0.0
N875 N 0.69062 0.58724 0.50964 0.0
C876 C 0.78197 0.7775 0.482 0.0
C877 C 0.71425 0.65007 0.50237 0.0
N878 N 0.83887 0.81282 0.5251 0.0
N879 N 0.63329 0.62211 0.46744 0.0
H880 H 0.70738 0.57384 0.52664 0.0
H881 H 0.65961 0.54866 0.49731 0.0
H882 H 0.61278 0.63246 0.45084 0.0
H883 H 0.60224 0.57759 0.47628 0.0
H884 H 0.85868 0.86133 0.52028 0.0
H885 H 0.85101 0.80492 0.54456 0.0
H886 H 0.86593 0.86972 0.47783 0.0
H887 H 0.81337 0.8464 0.45009 0.0
C888 C 0.03634 0.72051 0.97297 0.0
C889 C 0.96882 0.68412 0.96778 0.0
C890 C 0.94823 0.66491 0.01661 0.0
C891 C 0.01613 0.69551 0.0216 0.0
N892 N 0.1229 0.73458 0.00281 0.0
N893 N 0.86275 0.60518 0.98413 0.0
C894 C 0.05968 0.71776 -0.00077 0.0
C895 C 0.92542 0.65108 0.98942 0.0
N896 N 0.07812 0.7604 0.95347 0.0
N897 N 0.90522 0.65245 0.0373 0.0
H898 H 0.84468 0.59142 0.96442 0.0
H899 H 0.83108 0.57571 -0.00072 0.0
H900 H 0.91829 0.66437 0.05756 0.0
H901 H 0.85647 0.63658 0.0338 0.0
H902 H 0.12694 0.7922 0.95737 0.0
H903 H 0.06307 0.76717 0.93444 0.0
H904 H 0.15505 0.74596 0.9866 0.0
H905 H 0.14103 0.72964 0.02143 0.0
C906 C 0.16912 0.95964 0.48794 0.0
C907 C 0.21115 0.939 0.47767 0.0
C908 C 0.2764 0.97648 0.51888 0.0
C909 C 0.23085 -0.00898 0.53054 0.0
N910 N 0.12737 0.98538 0.52802 0.0
N911 N 0.29447 0.91263 0.48601 0.0
C912 C 0.17519 0.97944 0.51562 0.0
C913 C 0.26145 0.94254 0.49403 0.0
N914 N 0.12554 0.96314 0.47105 0.0
N915 N 0.33573 -0.00162 0.5306 0.0
H916 H 0.28386 0.88594 0.46807 0.0
H917 H 0.32744 0.9086 0.49855 0.0
H918 H 0.35088 0.02712 0.54795 0.0
H919 H 0.37271 -0.00564 0.52133 0.0
H920 H 0.09887 0.98464 0.4767 0.0
H921 H 0.11984 0.94935 0.45063 0.0
H922 H 0.08291 0.97134 0.51886 0.0
H923 H 0.1298 -0.00114 0.54838 0.0
loop_
_geom_bond_atom_site_label_1
_geom_bond_atom_site_label_2
_geom_bond_distance
_geom_bond_site_symmetry_2
_ccdc_geom_bond_type
O0 Zn1 1.953 . S
O0 C16 1.225 . S
Zn1 O0 1.953 . S
Zn1 O2 1.949 . S
Zn1 O8 1.919 . S
Zn1 O13 1.924 . S
O2 Zn1 1.949 . S
O2 Zn3 1.923 . S
O2 Zn4 1.950 . S
O2 Zn5 1.945 . S
Zn3 O2 1.923 . S
Zn3 O6 1.933 . S
Zn3 O9 1.941 . S
Zn3 O10 1.965 . S
Zn4 O2 1.950 . S
Zn4 O11 1.938 . S
Zn4 O12 1.906 . S
Zn4 O22 1.953 . S
Zn5 O2 1.945 . S
Zn5 O7 1.932 . S
Zn5 O14 1.977 . S
Zn5 O15 1.910 . S
O6 Zn3 1.933 . S
O6 C17 1.226 . S
O7 Zn5 1.932 . S
O7 C17 1.307 . S
O8 Zn1 1.919 . S
O8 C19 1.253 . S
O9 Zn3 1.941 . S
O9 C19 1.283 . S
O10 Zn3 1.965 . S
O10 C18 1.303 . S
O11 Zn4 1.938 . S
O11 C18 1.247 . S
O12 Zn4 1.906 . S
O12 C20 1.304 . S
O13 Zn1 1.924 . S
O13 C21 1.311 . S
O14 Zn5 1.977 . S
O14 C20 1.272 . S
O15 Zn5 1.910 . S
O15 C21 1.231 . S
C16 O0 1.225 . S
C16 O22 1.298 . S
C17 O6 1.226 . S
C17 O7 1.307 . S
C18 O10 1.303 . S
C18 O11 1.247 . S
C19 O8 1.253 . S
C19 O9 1.283 . S
C20 O12 1.304 . S
C20 O14 1.272 . S
C21 O13 1.311 . S
C21 O15 1.231 . S
O22 Zn4 1.953 . S
O22 C16 1.298 . S
O23 Zn24 1.953 . S
O23 C39 1.225 . S
Zn24 O23 1.953 . S
Zn24 O25 1.949 . S
Zn24 O31 1.919 . S
Zn24 O36 1.924 . S
O25 Zn24 1.949 . S
O25 Zn26 1.923 . S
O25 Zn27 1.950 . S
O25 Zn28 1.945 . S
Zn26 O25 1.923 . S
Zn26 O29 1.933 1_655 S
Zn26 O32 1.941 . S
Zn26 O33 1.965 . S
Zn27 O25 1.950 . S
Zn27 O34 1.938 . S
Zn27 O35 1.906 . S
Zn27 O45 1.953 . S
Zn28 O25 1.945 . S
Zn28 O30 1.932 . S
Zn28 O37 1.977 . S
Zn28 O38 1.910 . S
O29 Zn26 1.933 1_455 S
O29 C40 1.226 . S
O30 Zn28 1.932 . S
O30 C40 1.307 1_655 S
O31 Zn24 1.919 . S
O31 C42 1.253 . S
O32 Zn26 1.941 . S
O32 C42 1.283 . S
O33 Zn26 1.965 . S
O33 C41 1.303 . S
O34 Zn27 1.938 . S
O34 C41 1.247 . S
O35 Zn27 1.906 . S
O35 C43 1.304 . S
O36 Zn24 1.924 . S
O36 C44 1.311 . S
O37 Zn28 1.977 . S
O37 C43 1.272 . S
O38 Zn28 1.910 . S
O38 C44 1.231 . S
C39 O23 1.225 . S
C39 O45 1.298 . S
C40 O29 1.226 . S
C40 O30 1.307 1_455 S
C41 O33 1.303 . S
C41 O34 1.247 . S
C42 O31 1.253 . S
C42 O32 1.283 . S
C43 O35 1.304 . S
C43 O37 1.272 . S
C44 O36 1.311 . S
C44 O38 1.231 . S
O45 Zn27 1.953 . S
O45 C39 1.298 . S
O46 Zn47 1.953 . S
O46 C62 1.225 . S
Zn47 O46 1.953 . S
Zn47 O48 1.949 . S
Zn47 O54 1.919 . S
Zn47 O59 1.924 . S
O48 Zn47 1.949 . S
O48 Zn49 1.923 . S
O48 Zn50 1.950 . S
O48 Zn51 1.945 . S
Zn49 O48 1.923 . S
Zn49 O52 1.933 1_565 S
Zn49 O55 1.941 . S
Zn49 O56 1.965 . S
Zn50 O48 1.950 . S
Zn50 O57 1.938 . S
Zn50 O58 1.906 . S
Zn50 O68 1.953 . S
Zn51 O48 1.945 . S
Zn51 O53 1.932 . S
Zn51 O60 1.977 . S
Zn51 O61 1.910 . S
O52 Zn49 1.933 1_545 S
O52 C63 1.226 . S
O53 Zn51 1.932 . S
O53 C63 1.307 1_565 S
O54 Zn47 1.919 . S
O54 C65 1.253 . S
O55 Zn49 1.941 . S
O55 C65 1.283 . S
O56 Zn49 1.965 . S
O56 C64 1.303 . S
O57 Zn50 1.938 . S
O57 C64 1.247 . S
O58 Zn50 1.906 . S
O58 C66 1.304 . S
O59 Zn47 1.924 . S
O59 C67 1.311 . S
O60 Zn51 1.977 . S
O60 C66 1.272 . S
O61 Zn51 1.910 . S
O61 C67 1.231 . S
C62 O46 1.225 . S
C62 O68 1.298 . S
C63 O52 1.226 . S
C63 O53 1.307 1_545 S
C64 O56 1.303 . S
C64 O57 1.247 . S
C65 O54 1.253 . S
C65 O55 1.283 . S
C66 O58 1.304 . S
C66 O60 1.272 . S
C67 O59 1.311 . S
C67 O61 1.231 . S
O68 Zn50 1.953 . S
O68 C62 1.298 . S
O69 Zn70 1.953 . S
O69 C85 1.225 . S
Zn70 O69 1.953 . S
Zn70 O71 1.949 . S
Zn70 O77 1.919 . S
Zn70 O82 1.924 . S
O71 Zn70 1.949 . S
O71 Zn72 1.923 . S
O71 Zn73 1.950 . S
O71 Zn74 1.945 . S
Zn72 O71 1.923 . S
Zn72 O75 1.933 . S
Zn72 O78 1.941 . S
Zn72 O79 1.965 . S
Zn73 O71 1.950 . S
Zn73 O80 1.938 . S
Zn73 O81 1.906 . S
Zn73 O91 1.953 . S
Zn74 O71 1.945 . S
Zn74 O76 1.932 . S
Zn74 O83 1.977 . S
Zn74 O84 1.910 . S
O75 Zn72 1.933 . S
O75 C86 1.226 . S
O76 Zn74 1.932 . S
O76 C86 1.307 . S
O77 Zn70 1.919 . S
O77 C88 1.253 . S
O78 Zn72 1.941 . S
O78 C88 1.283 . S
O79 Zn72 1.965 . S
O79 C87 1.303 . S
O80 Zn73 1.938 . S
O80 C87 1.247 . S
O81 Zn73 1.906 . S
O81 C89 1.304 . S
O82 Zn70 1.924 . S
O82 C90 1.311 . S
O83 Zn74 1.977 . S
O83 C89 1.272 . S
O84 Zn74 1.910 . S
O84 C90 1.231 . S
C85 O69 1.225 . S
C85 O91 1.298 . S
C86 O75 1.226 . S
C86 O76 1.307 . S
C87 O79 1.303 . S
C87 O80 1.247 . S
C88 O77 1.253 . S
C88 O78 1.283 . S
C89 O81 1.304 . S
C89 O83 1.272 . S
C90 O82 1.311 . S
C90 O84 1.231 . S
O91 Zn73 1.953 . S
O91 C85 1.298 . S
O92 Zn93 1.953 . S
O92 C108 1.225 . S
Zn93 O92 1.953 . S
Zn93 O94 1.949 . S
Zn93 O100 1.919 . S
Zn93 O105 1.924 . S
O94 Zn93 1.949 . S
O94 Zn95 1.923 . S
O94 Zn96 1.950 . S
O94 Zn97 1.945 . S
Zn95 O94 1.923 . S
Zn95 O98 1.933 1_455 S
Zn95 O101 1.941 . S
Zn95 O102 1.965 . S
Zn96 O94 1.950 . S
Zn96 O103 1.938 . S
Zn96 O104 1.906 . S
Zn96 O114 1.953 . S
Zn97 O94 1.945 . S
Zn97 O99 1.932 . S
Zn97 O106 1.977 . S
Zn97 O107 1.910 . S
O98 Zn95 1.933 1_655 S
O98 C109 1.226 . S
O99 Zn97 1.932 . S
O99 C109 1.307 1_455 S
O100 Zn93 1.919 . S
O100 C111 1.253 . S
O101 Zn95 1.941 . S
O101 C111 1.283 . S
O102 Zn95 1.965 . S
O102 C110 1.303 . S
O103 Zn96 1.938 . S
O103 C110 1.247 . S
O104 Zn96 1.906 . S
O104 C112 1.304 . S
O105 Zn93 1.924 . S
O105 C113 1.311 . S
O106 Zn97 1.977 . S
O106 C112 1.272 . S
O107 Zn97 1.910 . S
O107 C113 1.231 . S
C108 O92 1.225 . S
C108 O114 1.298 . S
C109 O98 1.226 . S
C109 O99 1.307 1_655 S
C110 O102 1.303 . S
C110 O103 1.247 . S
C111 O100 1.253 . S
C111 O101 1.283 . S
C112 O104 1.304 . S
C112 O106 1.272 . S
C113 O105 1.311 . S
C113 O107 1.231 . S
O114 Zn96 1.953 . S
O114 C108 1.298 . S
O115 Zn116 1.953 . S
O115 C131 1.225 . S
Zn116 O115 1.953 . S
Zn116 O117 1.949 . S
Zn116 O123 1.919 . S
Zn116 O128 1.924 . S
O117 Zn116 1.949 . S
O117 Zn118 1.923 . S
O117 Zn119 1.950 . S
O117 Zn120 1.945 . S
Zn118 O117 1.923 . S
Zn118 O121 1.933 1_545 S
Zn118 O124 1.941 . S
Zn118 O125 1.965 . S
Zn119 O117 1.950 . S
Zn119 O126 1.938 . S
Zn119 O127 1.906 . S
Zn119 O137 1.953 . S
Zn120 O117 1.945 . S
Zn120 O122 1.932 . S
Zn120 O129 1.977 . S
Zn120 O130 1.910 . S
O121 Zn118 1.933 1_565 S
O121 C132 1.226 . S
O122 Zn120 1.932 . S
O122 C132 1.307 1_545 S
O123 Zn116 1.919 . S
O123 C134 1.253 . S
O124 Zn118 1.941 . S
O124 C134 1.283 . S
O125 Zn118 1.965 . S
O125 C133 1.303 . S
O126 Zn119 1.938 . S
O126 C133 1.247 . S
O127 Zn119 1.906 . S
O127 C135 1.304 . S
O128 Zn116 1.924 . S
O128 C136 1.311 . S
O129 Zn120 1.977 . S
O129 C135 1.272 . S
O130 Zn120 1.910 . S
O130 C136 1.231 . S
C131 O115 1.225 . S
C131 O137 1.298 . S
C132 O121 1.226 . S
C132 O122 1.307 1_565 S
C133 O125 1.303 . S
C133 O126 1.247 . S
C134 O123 1.253 . S
C134 O124 1.283 . S
C135 O127 1.304 . S
C135 O129 1.272 . S
C136 O128 1.311 . S
C136 O130 1.231 . S
O137 Zn119 1.953 . S
O137 C131 1.298 . S
O138 Zn139 1.953 . S
O138 C154 1.225 . S
Zn139 O138 1.953 . S
Zn139 O140 1.949 . S
Zn139 O146 1.919 . S
Zn139 O151 1.924 . S
O140 Zn139 1.949 . S
O140 Zn141 1.923 . S
O140 Zn142 1.950 . S
O140 Zn143 1.945 . S
Zn141 O140 1.923 . S
Zn141 O144 1.933 . S
Zn141 O147 1.941 . S
Zn141 O148 1.965 . S
Zn142 O140 1.950 . S
Zn142 O149 1.938 . S
Zn142 O150 1.906 . S
Zn142 O160 1.953 . S
Zn143 O140 1.945 . S
Zn143 O145 1.932 . S
Zn143 O152 1.977 . S
Zn143 O153 1.910 . S
O144 Zn141 1.933 . S
O144 C155 1.226 . S
O145 Zn143 1.932 . S
O145 C155 1.307 . S
O146 Zn139 1.919 . S
O146 C157 1.253 . S
O147 Zn141 1.941 . S
O147 C157 1.283 . S
O148 Zn141 1.965 . S
O148 C156 1.303 . S
O149 Zn142 1.938 . S
O149 C156 1.247 . S
O150 Zn142 1.906 . S
O150 C158 1.304 . S
O151 Zn139 1.924 . S
O151 C159 1.311 . S
O152 Zn143 1.977 . S
O152 C158 1.272 . S
O153 Zn143 1.910 . S
O153 C159 1.231 . S
C154 O138 1.225 . S
C154 O160 1.298 . S
C155 O144 1.226 . S
C155 O145 1.307 . S
C156 O148 1.303 . S
C156 O149 1.247 . S
C157 O146 1.253 . S
C157 O147 1.283 . S
C158 O150 1.304 . S
C158 O152 1.272 . S
C159 O151 1.311 . S
C159 O153 1.231 . S
O160 Zn142 1.953 . S
O160 C154 1.298 . S
O161 Zn162 1.953 . S
O161 C177 1.225 . S
Zn162 O161 1.953 . S
Zn162 O163 1.949 . S
Zn162 O169 1.919 . S
Zn162 O174 1.924 . S
O163 Zn162 1.949 . S
O163 Zn164 1.923 . S
O163 Zn165 1.950 . S
O163 Zn166 1.945 . S
Zn164 O163 1.923 . S
Zn164 O167 1.933 1_655 S
Zn164 O170 1.941 . S
Zn164 O171 1.965 . S
Zn165 O163 1.950 . S
Zn165 O172 1.938 . S
Zn165 O173 1.906 . S
Zn165 O183 1.953 . S
Zn166 O163 1.945 . S
Zn166 O168 1.932 . S
Zn166 O175 1.977 . S
Zn166 O176 1.910 . S
O167 Zn164 1.933 1_455 S
O167 C178 1.226 . S
O168 Zn166 1.932 . S
O168 C178 1.307 1_655 S
O169 Zn162 1.919 . S
O169 C180 1.253 . S
O170 Zn164 1.941 . S
O170 C180 1.283 . S
O171 Zn164 1.965 . S
O171 C179 1.303 . S
O172 Zn165 1.938 . S
O172 C179 1.247 . S
O173 Zn165 1.906 . S
O173 C181 1.304 . S
O174 Zn162 1.924 . S
O174 C182 1.311 . S
O175 Zn166 1.977 . S
O175 C181 1.272 . S
O176 Zn166 1.910 . S
O176 C182 1.231 . S
C177 O161 1.225 . S
C177 O183 1.298 . S
C178 O167 1.226 . S
C178 O168 1.307 1_455 S
C179 O171 1.303 . S
C179 O172 1.247 . S
C180 O169 1.253 . S
C180 O170 1.283 . S
C181 O173 1.304 . S
C181 O175 1.272 . S
C182 O174 1.311 . S
C182 O176 1.231 . S
O183 Zn165 1.953 . S
O183 C177 1.298 . S
O184 Zn185 1.953 . S
O184 C200 1.225 . S
Zn185 O184 1.953 . S
Zn185 O186 1.949 . S
Zn185 O192 1.919 . S
Zn185 O197 1.924 . S
O186 Zn185 1.949 . S
O186 Zn187 1.923 . S
O186 Zn188 1.950 . S
O186 Zn189 1.945 . S
Zn187 O186 1.923 . S
Zn187 O190 1.933 1_565 S
Zn187 O193 1.941 . S
Zn187 O194 1.965 . S
Zn188 O186 1.950 . S
Zn188 O195 1.938 . S
Zn188 O196 1.906 . S
Zn188 O206 1.953 . S
Zn189 O186 1.945 . S
Zn189 O191 1.932 . S
Zn189 O198 1.977 . S
Zn189 O199 1.910 . S
O190 Zn187 1.933 1_545 S
O190 C201 1.226 . S
O191 Zn189 1.932 . S
O191 C201 1.307 1_565 S
O192 Zn185 1.919 . S
O192 C203 1.253 . S
O193 Zn187 1.941 . S
O193 C203 1.283 . S
O194 Zn187 1.965 . S
O194 C202 1.303 . S
O195 Zn188 1.938 . S
O195 C202 1.247 . S
O196 Zn188 1.906 . S
O196 C204 1.304 . S
O197 Zn185 1.924 . S
O197 C205 1.311 . S
O198 Zn189 1.977 . S
O198 C204 1.272 . S
O199 Zn189 1.910 . S
O199 C205 1.231 . S
C200 O184 1.225 . S
C200 O206 1.298 . S
C201 O190 1.226 . S
C201 O191 1.307 1_545 S
C202 O194 1.303 . S
C202 O195 1.247 . S
C203 O192 1.253 . S
C203 O193 1.283 . S
C204 O196 1.304 . S
C204 O198 1.272 . S
C205 O197 1.311 . S
C205 O199 1.231 . S
O206 Zn188 1.953 . S
O206 C200 1.298 . S
O207 Zn208 1.953 . S
O207 C223 1.225 . S
Zn208 O207 1.953 . S
Zn208 O209 1.949 . S
Zn208 O215 1.919 . S
Zn208 O220 1.924 . S
O209 Zn208 1.949 . S
O209 Zn210 1.923 . S
O209 Zn211 1.950 . S
O209 Zn212 1.945 . S
Zn210 O209 1.923 . S
Zn210 O213 1.933 . S
Zn210 O216 1.941 . S
Zn210 O217 1.965 . S
Zn211 O209 1.950 . S
Zn211 O218 1.938 . S
Zn211 O219 1.906 . S
Zn211 O229 1.953 . S
Zn212 O209 1.945 . S
Zn212 O214 1.932 . S
Zn212 O221 1.977 . S
Zn212 O222 1.910 . S
O213 Zn210 1.933 . S
O213 C224 1.226 . S
O214 Zn212 1.932 . S
O214 C224 1.307 . S
O215 Zn208 1.919 . S
O215 C226 1.253 . S
O216 Zn210 1.941 . S
O216 C226 1.283 . S
O217 Zn210 1.965 . S
O217 C225 1.303 . S
O218 Zn211 1.938 . S
O218 C225 1.247 . S
O219 Zn211 1.906 . S
O219 C227 1.304 . S
O220 Zn208 1.924 . S
O220 C228 1.311 . S
O221 Zn212 1.977 . S
O221 C227 1.272 . S
O222 Zn212 1.910 . S
O222 C228 1.231 . S
C223 O207 1.225 . S
C223 O229 1.298 . S
C224 O213 1.226 . S
C224 O214 1.307 . S
C225 O217 1.303 . S
C225 O218 1.247 . S
C226 O215 1.253 . S
C226 O216 1.283 . S
C227 O219 1.304 . S
C227 O221 1.272 . S
C228 O220 1.311 . S
C228 O222 1.231 . S
O229 Zn211 1.953 . S
O229 C223 1.298 . S
O230 Zn231 1.953 . S
O230 C246 1.225 . S
Zn231 O230 1.953 . S
Zn231 O232 1.949 . S
Zn231 O238 1.919 . S
Zn231 O243 1.924 . S
O232 Zn231 1.949 . S
O232 Zn233 1.923 . S
O232 Zn234 1.950 . S
O232 Zn235 1.945 . S
Zn233 O232 1.923 . S
Zn233 O236 1.933 1_455 S
Zn233 O239 1.941 . S
Zn233 O240 1.965 . S
Zn234 O232 1.950 . S
Zn234 O241 1.938 . S
Zn234 O242 1.906 . S
Zn234 O252 1.953 . S
Zn235 O232 1.945 . S
Zn235 O237 1.932 . S
Zn235 O244 1.977 . S
Zn235 O245 1.910 . S
O236 Zn233 1.933 1_655 S
O236 C247 1.226 . S
O237 Zn235 1.932 . S
O237 C247 1.307 1_455 S
O238 Zn231 1.919 . S
O238 C249 1.253 . S
O239 Zn233 1.941 . S
O239 C249 1.283 . S
O240 Zn233 1.965 . S
O240 C248 1.303 . S
O241 Zn234 1.938 . S
O241 C248 1.247 . S
O242 Zn234 1.906 . S
O242 C250 1.304 . S
O243 Zn231 1.924 . S
O243 C251 1.311 . S
O244 Zn235 1.977 . S
O244 C250 1.272 . S
O245 Zn235 1.910 . S
O245 C251 1.231 . S
C246 O230 1.225 . S
C246 O252 1.298 . S
C247 O236 1.226 . S
C247 O237 1.307 1_655 S
C248 O240 1.303 . S
C248 O241 1.247 . S
C249 O238 1.253 . S
C249 O239 1.283 . S
C250 O242 1.304 . S
C250 O244 1.272 . S
C251 O243 1.311 . S
C251 O245 1.231 . S
O252 Zn234 1.953 . S
O252 C246 1.298 . S
O253 Zn254 1.953 . S
O253 C269 1.225 . S
Zn254 O253 1.953 . S
Zn254 O255 1.949 . S
Zn254 O261 1.919 . S
Zn254 O266 1.924 . S
O255 Zn254 1.949 . S
O255 Zn256 1.923 . S
O255 Zn257 1.950 . S
O255 Zn258 1.945 . S
Zn256 O255 1.923 . S
Zn256 O259 1.933 1_545 S
Zn256 O262 1.941 . S
Zn256 O263 1.965 . S
Zn257 O255 1.950 . S
Zn257 O264 1.938 . S
Zn257 O265 1.906 . S
Zn257 O275 1.953 . S
Zn258 O255 1.945 . S
Zn258 O260 1.932 . S
Zn258 O267 1.977 . S
Zn258 O268 1.910 . S
O259 Zn256 1.933 1_565 S
O259 C270 1.226 . S
O260 Zn258 1.932 . S
O260 C270 1.307 1_545 S
O261 Zn254 1.919 . S
O261 C272 1.253 . S
O262 Zn256 1.941 . S
O262 C272 1.283 . S
O263 Zn256 1.965 . S
O263 C271 1.303 . S
O264 Zn257 1.938 . S
O264 C271 1.247 . S
O265 Zn257 1.906 . S
O265 C273 1.304 . S
O266 Zn254 1.924 . S
O266 C274 1.311 . S
O267 Zn258 1.977 . S
O267 C273 1.272 . S
O268 Zn258 1.910 . S
O268 C274 1.231 . S
C269 O253 1.225 . S
C269 O275 1.298 . S
C270 O259 1.226 . S
C270 O260 1.307 1_565 S
C271 O263 1.303 . S
C271 O264 1.247 . S
C272 O261 1.253 . S
C272 O262 1.283 . S
C273 O265 1.304 . S
C273 O267 1.272 . S
C274 O266 1.311 . S
C274 O268 1.231 . S
O275 Zn257 1.953 . S
O275 C269 1.298 . S
C276 C277 1.363 . S
C276 C282 1.379 . S
C276 N284 1.356 1_545 S
C277 C276 1.363 . S
C277 C283 1.363 . S
C278 C279 1.363 . S
C278 C283 1.379 . S
C278 N285 1.356 . S
C279 C278 1.363 . S
C279 C282 1.363 . S
N280 C282 1.356 . S
N280 H292 0.984 . S
N280 H293 0.985 . S
N281 C283 1.356 . S
N281 H286 0.984 . S
N281 H287 0.985 . S
C282 C276 1.379 . S
C282 C279 1.363 . S
C282 N280 1.356 . S
C283 C277 1.363 . S
C283 C278 1.379 . S
C283 N281 1.356 . S
N284 C276 1.356 1_565 S
N284 H290 0.984 . S
N284 H291 0.984 . S
N285 C278 1.356 . S
N285 H288 0.984 . S
N285 H289 0.985 . S
H286 N281 0.984 . S
H287 N281 0.985 . S
H288 N285 0.984 . S
H289 N285 0.985 . S
H290 N284 0.984 . S
H291 N284 0.984 . S
H292 N280 0.984 . S
H293 N280 0.985 . S
C294 C295 1.363 . S
C294 C300 1.379 . S
C294 N302 1.356 . S
C295 C294 1.363 . S
C295 C301 1.363 . S
C296 C297 1.363 . S
C296 C301 1.379 . S
C296 N303 1.356 . S
C297 C296 1.363 . S
C297 C300 1.363 . S
N298 C300 1.356 . S
N298 H310 0.984 . S
N298 H311 0.985 1_455 S
N299 C301 1.356 . S
N299 H304 0.984 . S
N299 H305 0.985 . S
C300 C294 1.379 . S
C300 C297 1.363 . S
C300 N298 1.356 . S
C301 C295 1.363 . S
C301 C296 1.379 . S
C301 N299 1.356 . S
N302 C294 1.356 . S
N302 H308 0.984 . S
N302 H309 0.984 . S
N303 C296 1.356 . S
N303 H306 0.984 . S
N303 H307 0.985 . S
H304 N299 0.984 . S
H305 N299 0.985 . S
H306 N303 0.984 . S
H307 N303 0.985 . S
H308 N302 0.984 . S
H309 N302 0.984 . S
H310 N298 0.984 . S
H311 N298 0.985 1_655 S
C312 C313 1.363 . S
C312 C318 1.379 . S
C312 N320 1.356 . S
C313 C312 1.363 . S
C313 C319 1.363 . S
C314 C315 1.363 . S
C314 C319 1.379 . S
C314 N321 1.356 . S
C315 C314 1.363 . S
C315 C318 1.363 . S
N316 C318 1.356 1_455 S
N316 H328 0.984 . S
N316 H329 0.985 . S
N317 C319 1.356 . S
N317 H322 0.984 . S
N317 H323 0.985 . S
C318 C312 1.379 . S
C318 C315 1.363 . S
C318 N316 1.356 1_655 S
C319 C313 1.363 . S
C319 C314 1.379 . S
C319 N317 1.356 . S
N320 C312 1.356 . S
N320 H326 0.984 . S
N320 H327 0.984 . S
N321 C314 1.356 . S
N321 H324 0.984 1_655 S
N321 H325 0.985 . S
H322 N317 0.984 . S
H323 N317 0.985 . S
H324 N321 0.984 1_455 S
H325 N321 0.985 . S
H326 N320 0.984 . S
H327 N320 0.984 . S
H328 N316 0.984 . S
H329 N316 0.985 . S
C330 C331 1.363 . S
C330 C336 1.379 . S
C330 N338 1.356 . S
C331 C330 1.363 . S
C331 C337 1.363 . S
C332 C333 1.363 . S
C332 C337 1.379 . S
C332 N339 1.356 . S
C333 C332 1.363 . S
C333 C336 1.363 . S
N334 C336 1.356 . S
N334 H346 0.984 . S
N334 H347 0.985 1_565 S
N335 C337 1.356 . S
N335 H340 0.984 . S
N335 H341 0.985 . S
C336 C330 1.379 . S
C336 C333 1.363 . S
C336 N334 1.356 . S
C337 C331 1.363 . S
C337 C332 1.379 . S
C337 N335 1.356 . S
N338 C330 1.356 . S
N338 H344 0.984 . S
N338 H345 0.984 . S
N339 C332 1.356 . S
N339 H342 0.984 1_565 S
N339 H343 0.985 . S
H340 N335 0.984 . S
H341 N335 0.985 . S
H342 N339 0.984 1_545 S
H343 N339 0.985 . S
H344 N338 0.984 . S
H345 N338 0.984 . S
H346 N334 0.984 . S
H347 N334 0.985 1_545 S
C348 C349 1.363 . S
C348 C354 1.379 . S
C348 N356 1.356 . S
C349 C348 1.363 . S
C349 C355 1.363 . S
C350 C351 1.363 . S
C350 C355 1.379 . S
C350 N357 1.356 . S
C351 C350 1.363 . S
C351 C354 1.363 . S
N352 C354 1.356 . S
N352 H364 0.984 . S
N352 H365 0.985 . S
N353 C355 1.356 . S
N353 H358 0.984 . S
N353 H359 0.985 . S
C354 C348 1.379 . S
C354 C351 1.363 . S
C354 N352 1.356 . S
C355 C349 1.363 . S
C355 C350 1.379 . S
C355 N353 1.356 . S
N356 C348 1.356 . S
N356 H362 0.984 . S
N356 H363 0.985 1_655 S
N357 C350 1.356 . S
N357 H360 0.984 . S
N357 H361 0.985 . S
H358 N353 0.984 . S
H359 N353 0.985 . S
H360 N357 0.984 . S
H361 N357 0.985 . S
H362 N356 0.984 . S
H363 N356 0.985 1_455 S
H364 N352 0.984 . S
H365 N352 0.985 . S
C366 C367 1.363 . S
C366 C372 1.379 . S
C366 N374 1.356 . S
C367 C366 1.363 . S
C367 C373 1.363 . S
C368 C369 1.363 . S
C368 C373 1.379 . S
C368 N375 1.356 . S
C369 C368 1.363 . S
C369 C372 1.363 . S
N370 C372 1.356 . S
N370 H382 0.984 . S
N370 H383 0.985 . S
N371 C373 1.356 1_655 S
N371 H376 0.984 . S
N371 H377 0.985 . S
C372 C366 1.379 . S
C372 C369 1.363 . S
C372 N370 1.356 . S
C373 C367 1.363 . S
C373 C368 1.379 . S
C373 N371 1.356 1_455 S
N374 C366 1.356 . S
N374 H380 0.984 . S
N374 H381 0.984 . S
N375 C368 1.356 . S
N375 H378 0.985 . S
N375 H379 0.985 . S
H376 N371 0.984 . S
H377 N371 0.985 . S
H378 N375 0.985 . S
H379 N375 0.985 . S
H380 N374 0.984 . S
H381 N374 0.984 . S
H382 N370 0.984 . S
H383 N370 0.985 . S
C384 C385 1.363 . S
C384 C390 1.379 . S
C384 N392 1.356 1_655 S
C385 C384 1.363 . S
C385 C391 1.363 . S
C386 C387 1.363 . S
C386 C391 1.379 . S
C386 N393 1.356 . S
C387 C386 1.363 . S
C387 C390 1.363 . S
N388 C390 1.356 . S
N388 H400 0.984 . S
N388 H401 0.985 . S
N389 C391 1.356 . S
N389 H394 0.984 . S
N389 H395 0.985 . S
C390 C384 1.379 . S
C390 C387 1.363 . S
C390 N388 1.356 . S
C391 C385 1.363 . S
C391 C386 1.379 . S
C391 N389 1.356 . S
N392 C384 1.356 1_455 S
N392 H398 0.984 . S
N392 H399 0.984 . S
N393 C386 1.356 . S
N393 H396 0.984 . S
N393 H397 0.985 . S
H394 N389 0.984 . S
H395 N389 0.985 . S
H396 N393 0.984 . S
H397 N393 0.985 . S
H398 N392 0.984 . S
H399 N392 0.984 . S
H400 N388 0.984 . S
H401 N388 0.985 . S
C402 C403 1.363 . S
C402 C408 1.379 . S
C402 N410 1.356 . S
C403 C402 1.363 . S
C403 C409 1.363 . S
C404 C405 1.363 . S
C404 C409 1.379 . S
C404 N411 1.356 . S
C405 C404 1.363 . S
C405 C408 1.363 . S
N406 C408 1.356 . S
N406 H418 0.984 . S
N406 H419 0.985 1_565 S
N407 C409 1.356 . S
N407 H412 0.984 . S
N407 H413 0.985 . S
C408 C402 1.379 . S
C408 C405 1.363 . S
C408 N406 1.356 . S
C409 C403 1.363 . S
C409 C404 1.379 . S
C409 N407 1.356 . S
N410 C402 1.356 . S
N410 H416 0.984 . S
N410 H417 0.984 . S
N411 C404 1.356 . S
N411 H414 0.984 1_565 S
N411 H415 0.985 . S
H412 N407 0.984 . S
H413 N407 0.985 . S
H414 N411 0.984 1_545 S
H415 N411 0.985 . S
H416 N410 0.984 . S
H417 N410 0.984 . S
H418 N406 0.984 . S
H419 N406 0.985 1_545 S
C420 C421 1.363 . S
C420 C426 1.379 . S
C420 N428 1.356 . S
C421 C420 1.363 . S
C421 C427 1.363 . S
C422 C423 1.363 . S
C422 C427 1.379 . S
C422 N429 1.356 . S
C423 C422 1.363 . S
C423 C426 1.363 . S
N424 C426 1.356 . S
N424 H436 0.984 . S
N424 H437 0.985 . S
N425 C427 1.356 . S
N425 H430 0.984 . S
N425 H431 0.985 . S
C426 C420 1.379 . S
C426 C423 1.363 . S
C426 N424 1.356 . S
C427 C421 1.363 . S
C427 C422 1.379 . S
C427 N425 1.356 . S
N428 C420 1.356 . S
N428 H434 0.984 . S
N428 H435 0.984 . S
N429 C422 1.356 . S
N429 H432 0.984 . S
N429 H433 0.985 . S
H430 N425 0.984 . S
H431 N425 0.985 . S
H432 N429 0.984 . S
H433 N429 0.985 . S
H434 N428 0.984 . S
H435 N428 0.984 . S
H436 N424 0.984 . S
H437 N424 0.985 . S
C438 C439 1.363 . S
C438 C444 1.379 . S
C438 N446 1.356 . S
C439 C438 1.363 . S
C439 C445 1.363 . S
C440 C441 1.363 . S
C440 C445 1.379 . S
C440 N447 1.356 . S
C441 C440 1.363 . S
C441 C444 1.363 . S
N442 C444 1.356 1_655 S
N442 H454 0.984 1_655 S
N442 H455 0.985 . S
N443 C445 1.356 . S
N443 H448 0.984 . S
N443 H449 0.985 . S
C444 C438 1.379 . S
C444 C441 1.363 . S
C444 N442 1.356 1_455 S
C445 C439 1.363 . S
C445 C440 1.379 . S
C445 N443 1.356 . S
N446 C438 1.356 . S
N446 H452 0.984 . S
N446 H453 0.984 . S
N447 C440 1.356 . S
N447 H450 0.984 1_455 S
N447 H451 0.985 . S
H448 N443 0.984 . S
H449 N443 0.985 . S
H450 N447 0.984 1_655 S
H451 N447 0.985 . S
H452 N446 0.984 . S
H453 N446 0.984 . S
H454 N442 0.984 1_455 S
H455 N442 0.985 . S
C456 C457 1.363 . S
C456 C462 1.379 . S
C456 N464 1.356 . S
C457 C456 1.363 . S
C457 C463 1.363 . S
C458 C459 1.363 . S
C458 C463 1.379 . S
C458 N465 1.356 . S
C459 C458 1.363 . S
C459 C462 1.363 . S
N460 C462 1.356 1_565 S
N460 H472 0.984 . S
N460 H473 0.985 . S
N461 C463 1.356 . S
N461 H466 0.984 . S
N461 H467 0.985 . S
C462 C456 1.379 . S
C462 C459 1.363 . S
C462 N460 1.356 1_545 S
C463 C457 1.363 . S
C463 C458 1.379 . S
C463 N461 1.356 . S
N464 C456 1.356 . S
N464 H470 0.984 . S
N464 H471 0.984 . S
N465 C458 1.356 . S
N465 H468 0.984 1_545 S
N465 H469 0.985 . S
H466 N461 0.984 . S
H467 N461 0.985 . S
H468 N465 0.984 1_565 S
H469 N465 0.985 . S
H470 N464 0.984 . S
H471 N464 0.984 . S
H472 N460 0.984 . S
H473 N460 0.985 . S
C474 C475 1.363 . S
C474 C480 1.379 . S
C474 N482 1.356 . S
C475 C474 1.363 . S
C475 C481 1.363 . S
C476 C477 1.363 . S
C476 C481 1.379 . S
C476 N483 1.356 . S
C477 C476 1.363 . S
C477 C480 1.363 . S
N478 C480 1.356 . S
N478 H490 0.984 . S
N478 H491 0.985 . S
N479 C481 1.356 . S
N479 H484 0.984 . S
N479 H485 0.985 . S
C480 C474 1.379 . S
C480 C477 1.363 . S
C480 N478 1.356 . S
C481 C475 1.363 . S
C481 C476 1.379 . S
C481 N479 1.356 . S
N482 C474 1.356 . S
N482 H488 0.984 . S
N482 H489 0.984 . S
N483 C476 1.356 . S
N483 H486 0.984 1_565 S
N483 H487 0.985 1_565 S
H484 N479 0.984 . S
H485 N479 0.985 . S
H486 N483 0.984 1_545 S
H487 N483 0.985 1_545 S
H488 N482 0.984 . S
H489 N482 0.984 . S
H490 N478 0.984 . S
H491 N478 0.985 . S
C492 C493 1.363 . S
C492 C498 1.379 . S
C492 N500 1.356 . S
C493 C492 1.363 . S
C493 C499 1.363 . S
C494 C495 1.363 . S
C494 C499 1.379 . S
C494 N501 1.356 . S
C495 C494 1.363 . S
C495 C498 1.363 . S
N496 C498 1.356 . S
N496 H508 0.984 . S
N496 H509 0.985 . S
N497 C499 1.356 . S
N497 H502 0.984 . S
N497 H503 0.985 . S
C498 C492 1.379 . S
C498 C495 1.363 . S
C498 N496 1.356 . S
C499 C493 1.363 . S
C499 C494 1.379 . S
C499 N497 1.356 . S
N500 C492 1.356 . S
N500 H506 0.984 . S
N500 H507 0.984 . S
N501 C494 1.356 . S
N501 H504 0.984 . S
N501 H505 0.985 . S
H502 N497 0.984 . S
H503 N497 0.985 . S
H504 N501 0.984 . S
H505 N501 0.985 . S
H506 N500 0.984 . S
H507 N500 0.984 . S
H508 N496 0.984 . S
H509 N496 0.985 . S
C510 C511 1.363 . S
C510 C516 1.379 . S
C510 N518 1.356 . S
C511 C510 1.363 . S
C511 C517 1.363 . S
C512 C513 1.363 . S
C512 C517 1.379 . S
C512 N519 1.356 . S
C513 C512 1.363 . S
C513 C516 1.363 . S
N514 C516 1.356 . S
N514 H526 0.984 . S
N514 H527 0.985 . S
N515 C517 1.356 . S
N515 H520 0.984 . S
N515 H521 0.985 . S
C516 C510 1.379 . S
C516 C513 1.363 . S
C516 N514 1.356 . S
C517 C511 1.363 . S
C517 C512 1.379 . S
C517 N515 1.356 . S
N518 C510 1.356 . S
N518 H524 0.984 . S
N518 H525 0.984 . S
N519 C512 1.356 . S
N519 H522 0.984 . S
N519 H523 0.985 . S
H520 N515 0.984 . S
H521 N515 0.985 . S
H522 N519 0.984 . S
H523 N519 0.985 . S
H524 N518 0.984 . S
H525 N518 0.984 . S
H526 N514 0.984 . S
H527 N514 0.985 . S
C528 C529 1.363 . S
C528 C534 1.379 . S
C528 N536 1.356 . S
C529 C528 1.363 . S
C529 C535 1.363 . S
C530 C531 1.363 . S
C530 C535 1.379 . S
C530 N537 1.356 . S
C531 C530 1.363 . S
C531 C534 1.363 . S
N532 C534 1.356 . S
N532 H544 0.984 . S
N532 H545 0.985 . S
N533 C535 1.356 . S
N533 H538 0.984 . S
N533 H539 0.985 . S
C534 C528 1.379 . S
C534 C531 1.363 . S
C534 N532 1.356 . S
C535 C529 1.363 . S
C535 C530 1.379 . S
C535 N533 1.356 . S
N536 C528 1.356 . S
N536 H542 0.984 . S
N536 H543 0.984 . S
N537 C530 1.356 . S
N537 H540 0.984 . S
N537 H541 0.985 . S
H538 N533 0.984 . S
H539 N533 0.985 . S
H540 N537 0.984 . S
H541 N537 0.985 . S
H542 N536 0.984 . S
H543 N536 0.984 . S
H544 N532 0.984 . S
H545 N532 0.985 . S
C546 C547 1.363 . S
C546 C552 1.379 . S
C546 N554 1.356 . S
C547 C546 1.363 . S
C547 C553 1.363 . S
C548 C549 1.363 . S
C548 C553 1.379 . S
C548 N555 1.356 . S
C549 C548 1.363 . S
C549 C552 1.363 . S
N550 C552 1.356 . S
N550 H562 0.984 . S
N550 H563 0.985 . S
N551 C553 1.356 . S
N551 H556 0.984 . S
N551 H557 0.985 1_655 S
C552 C546 1.379 . S
C552 C549 1.363 . S
C552 N550 1.356 . S
C553 C547 1.363 . S
C553 C548 1.379 . S
C553 N551 1.356 . S
N554 C546 1.356 . S
N554 H560 0.984 . S
N554 H561 0.984 . S
N555 C548 1.356 . S
N555 H558 0.984 . S
N555 H559 0.985 1_655 S
H556 N551 0.984 . S
H557 N551 0.985 1_455 S
H558 N555 0.984 . S
H559 N555 0.985 1_455 S
H560 N554 0.984 . S
H561 N554 0.984 . S
H562 N550 0.984 . S
H563 N550 0.985 . S
C564 C565 1.363 . S
C564 C570 1.379 . S
C564 N572 1.356 . S
C565 C564 1.363 . S
C565 C571 1.363 . S
C566 C567 1.363 . S
C566 C571 1.379 . S
C566 N573 1.356 . S
C567 C566 1.363 . S
C567 C570 1.363 . S
N568 C570 1.356 . S
N568 H580 0.984 . S
N568 H581 0.985 . S
N569 C571 1.356 . S
N569 H574 0.984 . S
N569 H575 0.985 . S
C570 C564 1.379 . S
C570 C567 1.363 . S
C570 N568 1.356 . S
C571 C565 1.363 . S
C571 C566 1.379 . S
C571 N569 1.356 . S
N572 C564 1.356 . S
N572 H578 0.984 1_565 S
N572 H579 0.984 . S
N573 C566 1.356 . S
N573 H576 0.984 . S
N573 H577 0.985 . S
H574 N569 0.984 . S
H575 N569 0.985 . S
H576 N573 0.984 . S
H577 N573 0.985 . S
H578 N572 0.984 1_545 S
H579 N572 0.984 . S
H580 N568 0.984 . S
H581 N568 0.985 . S
C582 C583 1.363 . S
C582 C588 1.379 . S
C582 N590 1.356 . S
C583 C582 1.363 . S
C583 C589 1.363 . S
C584 C585 1.363 . S
C584 C589 1.379 . S
C584 N591 1.356 . S
C585 C584 1.363 . S
C585 C588 1.363 . S
N586 C588 1.356 . S
N586 H598 0.984 . S
N586 H599 0.985 . S
N587 C589 1.356 . S
N587 H592 0.984 . S
N587 H593 0.985 . S
C588 C582 1.379 . S
C588 C585 1.363 . S
C588 N586 1.356 . S
C589 C583 1.363 . S
C589 C584 1.379 . S
C589 N587 1.356 . S
N590 C582 1.356 . S
N590 H596 0.984 . S
N590 H597 0.984 . S
N591 C584 1.356 . S
N591 H594 0.984 . S
N591 H595 0.985 . S
H592 N587 0.984 . S
H593 N587 0.985 . S
H594 N591 0.984 . S
H595 N591 0.985 . S
H596 N590 0.984 . S
H597 N590 0.984 . S
H598 N586 0.984 . S
H599 N586 0.985 . S
C600 C601 1.363 . S
C600 C606 1.379 . S
C600 N608 1.356 . S
C601 C600 1.363 . S
C601 C607 1.363 . S
C602 C603 1.363 . S
C602 C607 1.379 . S
C602 N609 1.356 . S
C603 C602 1.363 . S
C603 C606 1.363 . S
N604 C606 1.356 . S
N604 H616 0.984 . S
N604 H617 0.985 . S
N605 C607 1.356 . S
N605 H610 0.984 . S
N605 H611 0.985 . S
C606 C600 1.379 . S
C606 C603 1.363 . S
C606 N604 1.356 . S
C607 C601 1.363 . S
C607 C602 1.379 . S
C607 N605 1.356 . S
N608 C600 1.356 . S
N608 H614 0.984 1_565 S
N608 H615 0.984 . S
N609 C602 1.356 . S
N609 H612 0.984 . S
N609 H613 0.985 . S
H610 N605 0.984 . S
H611 N605 0.985 . S
H612 N609 0.984 . S
H613 N609 0.985 . S
H614 N608 0.984 1_545 S
H615 N608 0.984 . S
H616 N604 0.984 . S
H617 N604 0.985 . S
C618 C619 1.363 . S
C618 C624 1.379 . S
C618 N626 1.356 . S
C619 C618 1.363 . S
C619 C625 1.363 . S
C620 C621 1.363 . S
C620 C625 1.379 . S
C620 N627 1.356 . S
C621 C620 1.363 . S
C621 C624 1.363 . S
N622 C624 1.356 . S
N622 H634 0.984 . S
N622 H635 0.985 . S
N623 C625 1.356 . S
N623 H628 0.984 . S
N623 H629 0.985 . S
C624 C618 1.379 . S
C624 C621 1.363 . S
C624 N622 1.356 . S
C625 C619 1.363 . S
C625 C620 1.379 . S
C625 N623 1.356 . S
N626 C618 1.356 . S
N626 H632 0.984 . S
N626 H633 0.984 . S
N627 C620 1.356 . S
N627 H630 0.984 . S
N627 H631 0.985 . S
H628 N623 0.984 . S
H629 N623 0.985 . S
H630 N627 0.984 . S
H631 N627 0.985 . S
H632 N626 0.984 . S
H633 N626 0.984 . S
H634 N622 0.984 . S
H635 N622 0.985 . S
C636 C637 1.363 . S
C636 C642 1.379 . S
C636 N644 1.356 . S
C637 C636 1.363 . S
C637 C643 1.363 . S
C638 C639 1.363 . S
C638 C643 1.379 . S
C638 N645 1.356 . S
C639 C638 1.363 . S
C639 C642 1.363 . S
N640 C642 1.356 . S
N640 H652 0.984 . S
N640 H653 0.985 . S
N641 C643 1.356 . S
N641 H646 0.984 . S
N641 H647 0.985 . S
C642 C636 1.379 . S
C642 C639 1.363 . S
C642 N640 1.356 . S
C643 C637 1.363 . S
C643 C638 1.379 . S
C643 N641 1.356 . S
N644 C636 1.356 . S
N644 H650 0.984 . S
N644 H651 0.984 . S
N645 C638 1.356 . S
N645 H648 0.984 . S
N645 H649 0.985 . S
H646 N641 0.984 . S
H647 N641 0.985 . S
H648 N645 0.984 . S
H649 N645 0.985 . S
H650 N644 0.984 . S
H651 N644 0.984 . S
H652 N640 0.984 . S
H653 N640 0.985 . S
C654 C655 1.363 . S
C654 C660 1.379 . S
C654 N662 1.356 . S
C655 C654 1.363 . S
C655 C661 1.363 . S
C656 C657 1.363 . S
C656 C661 1.379 . S
C656 N663 1.356 . S
C657 C656 1.363 . S
C657 C660 1.363 . S
N658 C660 1.356 . S
N658 H670 0.984 1_545 S
N658 H671 0.985 . S
N659 C661 1.356 . S
N659 H664 0.984 . S
N659 H665 0.985 . S
C660 C654 1.379 . S
C660 C657 1.363 . S
C660 N658 1.356 . S
C661 C655 1.363 . S
C661 C656 1.379 . S
C661 N659 1.356 . S
N662 C654 1.356 . S
N662 H668 0.984 1_545 S
N662 H669 0.984 . S
N663 C656 1.356 . S
N663 H666 0.984 . S
N663 H667 0.985 . S
H664 N659 0.984 . S
H665 N659 0.985 . S
H666 N663 0.984 . S
H667 N663 0.985 . S
H668 N662 0.984 1_565 S
H669 N662 0.984 . S
H670 N658 0.984 1_565 S
H671 N658 0.985 . S
C672 C673 1.363 . S
C672 C678 1.379 . S
C672 N680 1.356 . S
C673 C672 1.363 . S
C673 C679 1.363 . S
C674 C675 1.363 . S
C674 C679 1.379 . S
C674 N681 1.356 . S
C675 C674 1.363 . S
C675 C678 1.363 . S
N676 C678 1.356 . S
N676 H688 0.984 . S
N676 H689 0.985 . S
N677 C679 1.356 . S
N677 H682 0.984 . S
N677 H683 0.985 . S
C678 C672 1.379 . S
C678 C675 1.363 . S
C678 N676 1.356 . S
C679 C673 1.363 . S
C679 C674 1.379 . S
C679 N677 1.356 . S
N680 C672 1.356 . S
N680 H686 0.984 . S
N680 H687 0.984 . S
N681 C674 1.356 . S
N681 H684 0.984 . S
N681 H685 0.985 . S
H682 N677 0.984 . S
H683 N677 0.985 . S
H684 N681 0.984 . S
H685 N681 0.985 . S
H686 N680 0.984 . S
H687 N680 0.984 . S
H688 N676 0.984 . S
H689 N676 0.985 . S
C690 C691 1.363 . S
C690 C696 1.379 . S
C690 N698 1.356 . S
C691 C690 1.363 . S
C691 C697 1.363 . S
C692 C693 1.363 . S
C692 C697 1.379 . S
C692 N699 1.356 . S
C693 C692 1.363 . S
C693 C696 1.363 . S
N694 C696 1.356 . S
N694 H706 0.984 . S
N694 H707 0.985 . S
N695 C697 1.356 . S
N695 H700 0.984 . S
N695 H701 0.985 . S
C696 C690 1.379 . S
C696 C693 1.363 . S
C696 N694 1.356 . S
C697 C691 1.363 . S
C697 C692 1.379 . S
C697 N695 1.356 . S
N698 C690 1.356 . S
N698 H704 0.984 . S
N698 H705 0.984 . S
N699 C692 1.356 . S
N699 H702 0.984 . S
N699 H703 0.985 . S
H700 N695 0.984 . S
H701 N695 0.985 . S
H702 N699 0.984 . S
H703 N699 0.985 . S
H704 N698 0.984 . S
H705 N698 0.984 . S
H706 N694 0.984 . S
H707 N694 0.985 . S
C708 C709 1.363 . S
C708 C714 1.379 . S
C708 N716 1.356 . S
C709 C708 1.363 . S
C709 C715 1.363 . S
C710 C711 1.363 . S
C710 C715 1.379 . S
C710 N717 1.356 . S
C711 C710 1.363 . S
C711 C714 1.363 . S
N712 C714 1.356 . S
N712 H724 0.984 . S
N712 H725 0.985 . S
N713 C715 1.356 . S
N713 H718 0.984 . S
N713 H719 0.985 . S
C714 C708 1.379 . S
C714 C711 1.363 . S
C714 N712 1.356 . S
C715 C709 1.363 . S
C715 C710 1.379 . S
C715 N713 1.356 . S
N716 C708 1.356 . S
N716 H722 0.984 . S
N716 H723 0.984 . S
N717 C710 1.356 . S
N717 H720 0.984 . S
N717 H721 0.985 . S
H718 N713 0.984 . S
H719 N713 0.985 . S
H720 N717 0.984 . S
H721 N717 0.985 . S
H722 N716 0.984 . S
H723 N716 0.984 . S
H724 N712 0.984 . S
H725 N712 0.985 . S
C726 C727 1.363 . S
C726 C732 1.379 . S
C726 N734 1.356 . S
C727 C726 1.363 . S
C727 C733 1.363 . S
C728 C729 1.363 . S
C728 C733 1.379 . S
C728 N735 1.356 . S
C729 C728 1.363 . S
C729 C732 1.363 . S
N730 C732 1.356 . S
N730 H742 0.984 . S
N730 H743 0.985 . S
N731 C733 1.356 . S
N731 H736 0.984 . S
N731 H737 0.985 . S
C732 C726 1.379 . S
C732 C729 1.363 . S
C732 N730 1.356 . S
C733 C727 1.363 . S
C733 C728 1.379 . S
C733 N731 1.356 . S
N734 C726 1.356 . S
N734 H740 0.984 . S
N734 H741 0.984 . S
N735 C728 1.356 . S
N735 H738 0.984 . S
N735 H739 0.985 . S
H736 N731 0.984 . S
H737 N731 0.985 . S
H738 N735 0.984 . S
H739 N735 0.985 . S
H740 N734 0.984 . S
H741 N734 0.984 . S
H742 N730 0.984 . S
H743 N730 0.985 . S
C744 C745 1.363 . S
C744 C750 1.379 . S
C744 N752 1.356 . S
C745 C744 1.363 . S
C745 C751 1.363 . S
C746 C747 1.363 . S
C746 C751 1.379 . S
C746 N753 1.356 . S
C747 C746 1.363 . S
C747 C750 1.363 . S
N748 C750 1.356 . S
N748 H760 0.984 . S
N748 H761 0.985 . S
N749 C751 1.356 . S
N749 H754 0.984 . S
N749 H755 0.985 . S
C750 C744 1.379 . S
C750 C747 1.363 . S
C750 N748 1.356 . S
C751 C745 1.363 . S
C751 C746 1.379 . S
C751 N749 1.356 . S
N752 C744 1.356 . S
N752 H758 0.984 . S
N752 H759 0.984 . S
N753 C746 1.356 . S
N753 H756 0.984 . S
N753 H757 0.985 . S
H754 N749 0.984 . S
H755 N749 0.985 . S
H756 N753 0.984 . S
H757 N753 0.985 . S
H758 N752 0.984 . S
H759 N752 0.984 . S
H760 N748 0.984 . S
H761 N748 0.985 . S
C762 C763 1.363 . S
C762 C768 1.379 . S
C762 N770 1.356 . S
C763 C762 1.363 . S
C763 C769 1.363 . S
C764 C765 1.363 . S
C764 C769 1.379 . S
C764 N771 1.356 . S
C765 C764 1.363 . S
C765 C768 1.363 . S
N766 C768 1.356 . S
N766 H778 0.984 . S
N766 H779 0.985 . S
N767 C769 1.356 . S
N767 H772 0.984 . S
N767 H773 0.985 . S
C768 C762 1.379 . S
C768 C765 1.363 . S
C768 N766 1.356 . S
C769 C763 1.363 . S
C769 C764 1.379 . S
C769 N767 1.356 . S
N770 C762 1.356 . S
N770 H776 0.984 . S
N770 H777 0.984 . S
N771 C764 1.356 . S
N771 H774 0.984 . S
N771 H775 0.985 . S
H772 N767 0.984 . S
H773 N767 0.985 . S
H774 N771 0.984 . S
H775 N771 0.985 . S
H776 N770 0.984 . S
H777 N770 0.984 . S
H778 N766 0.984 . S
H779 N766 0.985 . S
C780 C781 1.363 . S
C780 C786 1.379 . S
C780 N788 1.356 . S
C781 C780 1.363 . S
C781 C787 1.363 . S
C782 C783 1.363 . S
C782 C787 1.379 . S
C782 N789 1.356 . S
C783 C782 1.363 . S
C783 C786 1.363 . S
N784 C786 1.356 . S
N784 H796 0.984 . S
N784 H797 0.985 . S
N785 C787 1.356 . S
N785 H790 0.984 . S
N785 H791 0.985 . S
C786 C780 1.379 . S
C786 C783 1.363 . S
C786 N784 1.356 . S
C787 C781 1.363 . S
C787 C782 1.379 . S
C787 N785 1.356 . S
N788 C780 1.356 . S
N788 H794 0.984 . S
N788 H795 0.984 . S
N789 C782 1.356 . S
N789 H792 0.984 . S
N789 H793 0.985 . S
H790 N785 0.984 . S
H791 N785 0.985 . S
H792 N789 0.984 . S
H793 N789 0.985 . S
H794 N788 0.984 . S
H795 N788 0.984 . S
H796 N784 0.984 . S
H797 N784 0.985 . S
C798 C799 1.363 . S
C798 C804 1.379 . S
C798 N806 1.356 . S
C799 C798 1.363 . S
C799 C805 1.363 . S
C800 C801 1.363 . S
C800 C805 1.379 . S
C800 N807 1.356 . S
C801 C800 1.363 . S
C801 C804 1.363 . S
N802 C804 1.356 . S
N802 H814 0.984 . S
N802 H815 0.985 . S
N803 C805 1.356 . S
N803 H808 0.984 . S
N803 H809 0.985 . S
C804 C798 1.379 . S
C804 C801 1.363 . S
C804 N802 1.356 . S
C805 C799 1.363 . S
C805 C800 1.379 . S
C805 N803 1.356 . S
N806 C798 1.356 . S
N806 H812 0.984 . S
N806 H813 0.984 . S
N807 C800 1.356 . S
N807 H810 0.984 . S
N807 H811 0.985 . S
H808 N803 0.984 . S
H809 N803 0.985 . S
H810 N807 0.984 . S
H811 N807 0.985 . S
H812 N806 0.984 . S
H813 N806 0.984 . S
H814 N802 0.984 . S
H815 N802 0.985 . S
C816 C817 1.363 . S
C816 C822 1.379 1_556 S
C816 N824 1.356 . S
C817 C816 1.363 . S
C817 C823 1.363 . S
C818 C819 1.363 . S
C818 C823 1.379 1_554 S
C818 N825 1.356 . S
C819 C818 1.363 . S
C819 C822 1.363 . S
N820 C822 1.356 . S
N820 H832 0.984 . S
N820 H833 0.985 . S
N821 C823 1.356 . S
N821 H826 0.984 . S
N821 H827 0.985 . S
C822 C816 1.379 1_554 S
C822 C819 1.363 . S
C822 N820 1.356 . S
C823 C817 1.363 . S
C823 C818 1.379 1_556 S
C823 N821 1.356 . S
N824 C816 1.356 . S
N824 H830 0.984 . S
N824 H831 0.984 . S
N825 C818 1.356 . S
N825 H828 0.984 . S
N825 H829 0.985 . S
H826 N821 0.984 . S
H827 N821 0.985 . S
H828 N825 0.984 . S
H829 N825 0.985 . S
H830 N824 0.984 . S
H831 N824 0.984 . S
H832 N820 0.984 . S
H833 N820 0.985 . S
C834 C835 1.363 1_655 S
C834 C840 1.379 . S
C834 N842 1.356 . S
C835 C834 1.363 1_455 S
C835 C841 1.363 . S
C836 C837 1.363 1_455 S
C836 C841 1.379 . S
C836 N843 1.356 . S
C837 C836 1.363 1_655 S
C837 C840 1.363 . S
N838 C840 1.356 . S
N838 H850 0.984 . S
N838 H851 0.985 . S
N839 C841 1.356 . S
N839 H844 0.984 . S
N839 H845 0.985 . S
C840 C834 1.379 . S
C840 C837 1.363 . S
C840 N838 1.356 . S
C841 C835 1.363 . S
C841 C836 1.379 . S
C841 N839 1.356 . S
N842 C834 1.356 . S
N842 H848 0.984 . S
N842 H849 0.984 1_655 S
N843 C836 1.356 . S
N843 H846 0.984 1_455 S
N843 H847 0.985 . S
H844 N839 0.984 . S
H845 N839 0.985 . S
H846 N843 0.984 1_655 S
H847 N843 0.985 . S
H848 N842 0.984 . S
H849 N842 0.984 1_455 S
H850 N838 0.984 . S
H851 N838 0.985 . S
C852 C853 1.363 1_556 S
C852 C858 1.379 . S
C852 N860 1.356 1_556 S
C853 C852 1.363 1_554 S
C853 C859 1.363 1_565 S
C854 C855 1.363 1_554 S
C854 C859 1.379 . S
C854 N861 1.356 1_554 S
C855 C854 1.363 1_556 S
C855 C858 1.363 1_545 S
N856 C858 1.356 . S
N856 H868 0.984 . S
N856 H869 0.985 1_565 S
N857 C859 1.356 . S
N857 H862 0.984 1_545 S
N857 H863 0.985 . S
C858 C852 1.379 . S
C858 C855 1.363 1_565 S
C858 N856 1.356 . S
C859 C853 1.363 1_545 S
C859 C854 1.379 . S
C859 N857 1.356 . S
N860 C852 1.356 1_554 S
N860 H866 0.984 1_554 S
N860 H867 0.984 . S
N861 C854 1.356 1_556 S
N861 H864 0.984 . S
N861 H865 0.985 1_556 S
H862 N857 0.984 1_565 S
H863 N857 0.985 . S
H864 N861 0.984 . S
H865 N861 0.985 1_554 S
H866 N860 0.984 1_556 S
H867 N860 0.984 . S
H868 N856 0.984 . S
H869 N856 0.985 1_545 S
C870 C871 1.363 . S
C870 C876 1.379 . S
C870 N878 1.356 . S
C871 C870 1.363 . S
C871 C877 1.363 . S
C872 C873 1.363 . S
C872 C877 1.379 . S
C872 N879 1.356 . S
C873 C872 1.363 . S
C873 C876 1.363 . S
N874 C876 1.356 . S
N874 H886 0.984 . S
N874 H887 0.985 . S
N875 C877 1.356 . S
N875 H880 0.984 . S
N875 H881 0.985 . S
C876 C870 1.379 . S
C876 C873 1.363 . S
C876 N874 1.356 . S
C877 C871 1.363 . S
C877 C872 1.379 . S
C877 N875 1.356 . S
N878 C870 1.356 . S
N878 H884 0.984 . S
N878 H885 0.984 . S
N879 C872 1.356 . S
N879 H882 0.984 . S
N879 H883 0.985 . S
H880 N875 0.984 . S
H881 N875 0.985 . S
H882 N879 0.984 . S
H883 N879 0.985 . S
H884 N878 0.984 . S
H885 N878 0.984 . S
H886 N874 0.984 . S
H887 N874 0.985 . S
C888 C889 1.363 1_455 S
C888 C894 1.400 . S
C888 N896 1.356 . S
C889 C888 1.363 1_655 S
C889 C895 1.341 1_556 S
C890 C891 1.363 1_655 S
C890 C895 1.400 . S
C890 N897 1.356 . S
C891 C890 1.363 1_455 S
C891 C894 1.341 1_554 S
N892 C894 1.350 1_554 S
N892 H904 0.984 1_554 S
N892 H905 0.985 . S
N893 C895 1.350 1_556 S
N893 H898 0.984 . S
N893 H899 0.985 1_556 S
C894 C888 1.400 . S
C894 C891 1.341 1_556 S
C894 N892 1.350 1_556 S
C895 C889 1.341 1_554 S
C895 C890 1.400 . S
C895 N893 1.350 1_554 S
N896 C888 1.356 . S
N896 H902 0.984 . S
N896 H903 0.984 1_455 S
N897 C890 1.356 . S
N897 H900 0.984 1_655 S
N897 H901 0.985 . S
H898 N893 0.984 . S
H899 N893 0.985 1_554 S
H900 N897 0.984 1_455 S
H901 N897 0.985 . S
H902 N896 0.984 . S
H903 N896 0.984 1_655 S
H904 N892 0.984 1_556 S
H905 N892 0.985 . S
C906 C907 1.363 . S
C906 C912 1.379 . S
C906 N914 1.356 . S
C907 C906 1.363 . S
C907 C913 1.363 1_565 S
C908 C909 1.363 . S
C908 C913 1.379 . S
C908 N915 1.356 . S
C909 C908 1.363 . S
C909 C912 1.363 1_545 S
N910 C912 1.356 . S
N910 H922 0.984 . S
N910 H923 0.985 1_565 S
N911 C913 1.356 . S
N911 H916 0.984 1_545 S
N911 H917 0.985 . S
C912 C906 1.379 . S
C912 C909 1.363 1_565 S
C912 N910 1.356 . S
C913 C907 1.363 1_545 S
C913 C908 1.379 . S
C913 N911 1.356 . S
N914 C906 1.356 . S
N914 H920 0.984 . S
N914 H921 0.984 . S
N915 C908 1.356 . S
N915 H918 0.984 . S
N915 H919 0.985 . S
H916 N911 0.984 1_565 S
H917 N911 0.985 . S
H918 N915 0.984 . S
H919 N915 0.985 . S
H920 N914 0.984 . S
H921 N914 0.984 . S
H922 N910 0.984 . S
H923 N910 0.985 1_545 S
C277 C113 1.058 1_545 S
C279 C17 1.062 . S
C295 C136 1.058 . S
C297 C40 1.062 . S
C313 C63 1.062 . S
C315 C21 1.058 1_655 S
C331 C86 1.062 . S
C333 C44 1.058 1_565 S
C349 C109 1.062 . S
C351 C67 1.058 . S
C367 C90 1.058 1_455 S
C369 C132 1.062 . S
C385 C205 1.058 1_655 S
C387 C155 1.062 . S
C403 C178 1.062 . S
C405 C228 1.058 1_565 S
C421 C251 1.058 . S
C423 C201 1.062 . S
C439 C224 1.062 . S
C441 C274 1.058 1_455 S
C457 C247 1.062 . S
C459 C159 1.058 1_545 S
C475 C182 1.058 . S
C477 C270 1.062 . S
C493 C110 1.261 . S
C495 C16 1.253 . S
C511 C39 1.253 . S
C513 C133 1.261 . S
C529 C62 1.253 . S
C531 C18 1.261 . S
C547 C85 1.253 . S
C549 C41 1.261 . S
C565 C64 1.261 . S
C567 C108 1.253 . S
C583 C87 1.261 . S
C585 C131 1.253 . S
C601 C202 1.261 . S
C603 C154 1.253 . S
C619 C177 1.253 . S
C621 C225 1.261 . S
C637 C200 1.253 . S
C639 C248 1.261 . S
C655 C271 1.261 . S
C657 C223 1.253 . S
C673 C246 1.253 . S
C675 C156 1.261 . S
C691 C179 1.261 . S
C693 C269 1.253 . S
C709 C250 1.508 . S
C711 C20 1.508 . S
C727 C43 1.508 . S
C729 C273 1.508 . S
C745 C66 1.508 . S
C747 C158 1.508 . S
C763 C89 1.508 . S
C765 C181 1.508 . S
C781 C112 1.508 . S
C783 C204 1.508 . S
C799 C227 1.508 . S
C801 C135 1.508 . S
C817 C226 1.541 . S
C819 C19 1.541 . S
C835 C249 1.541 . S
C837 C42 1.541 . S
C853 C65 1.541 . S
C855 C272 1.541 . S
C871 C88 1.542 . S
C873 C157 1.542 . S
C889 C180 1.541 . S
C891 C111 1.541 . S
C907 C203 1.541 . S
C909 C134 1.541 . S
