# Generated by pormake.
# Topology wme, (6)-cn, num edge types: 1
# Building blocks:
#     Node 0, Type 0, BuildingBlock: MIFKUJ_clean_sbu_0, # of connection points: 6
#     Node 1, Type 0, BuildingBlock: MIFKUJ_clean_sbu_0, # of connection points: 6
#     Node 2, Type 0, BuildingBlock: MIFKUJ_clean_sbu_0, # of connection points: 6
#     Node 3, Type 0, BuildingBlock: MIFKUJ_clean_sbu_0, # of connection points: 6
#     Node 4, Type 0, BuildingBlock: MIFKUJ_clean_sbu_0, # of connection points: 6
#     Node 5, Type 0, BuildingBlock: MIFKUJ_clean_sbu_0, # of connection points: 6
#     Node 6, Type 0, BuildingBlock: MIFKUJ_clean_sbu_0, # of connection points: 6
#     Node 7, Type 0, BuildingBlock: MIFKUJ_clean_sbu_0, # of connection points: 6
#     Node 8, Type 0, BuildingBlock: MIFKUJ_clean_sbu_0, # of connection points: 6
#     Node 9, Type 0, BuildingBlock: MIFKUJ_clean_sbu_0, # of connection points: 6
#     Node 10, Type 0, BuildingBlock: MIFKUJ_clean_sbu_0, # of connection points: 6
#     Node 11, Type 0, BuildingBlock: MIFKUJ_clean_sbu_0, # of connection points: 6
#     Edge 12, Type (0, 0), BuildingBlock: ZUJKAS_clean_linker_0, # of connection points: 2
#     Edge 13, Type (0, 0), BuildingBlock: ZUJKAS_clean_linker_0, # of connection points: 2
#     Edge 14, Type (0, 0), BuildingBlock: ZUJKAS_clean_linker_0, # of connection points: 2
#     Edge 15, Type (0, 0), BuildingBlock: ZUJKAS_clean_linker_0, # of connection points: 2
#     Edge 16, Type (0, 0), BuildingBlock: ZUJKAS_clean_linker_0, # of connection points: 2
#     Edge 17, Type (0, 0), BuildingBlock: ZUJKAS_clean_linker_0, # of connection points: 2
#     Edge 18, Type (0, 0), BuildingBlock: ZUJKAS_clean_linker_0, # of connection points: 2
#     Edge 19, Type (0, 0), BuildingBlock: ZUJKAS_clean_linker_0, # of connection points: 2
#     Edge 20, Type (0, 0), BuildingBlock: ZUJKAS_clean_linker_0, # of connection points: 2
#     Edge 21, Type (0, 0), BuildingBlock: ZUJKAS_clean_linker_0, # of connection points: 2
#     Edge 22, Type (0, 0), BuildingBlock: ZUJKAS_clean_linker_0, # of connection points: 2
#     Edge 23, Type (0, 0), BuildingBlock: ZUJKAS_clean_linker_0, # of connection points: 2
#     Edge 24, Type (0, 0), BuildingBlock: ZUJKAS_clean_linker_0, # of connection points: 2
#     Edge 25, Type (0, 0), BuildingBlock: ZUJKAS_clean_linker_0, # of connection points: 2
#     Edge 26, Type (0, 0), BuildingBlock: ZUJKAS_clean_linker_0, # of connection points: 2
#     Edge 27, Type (0, 0), BuildingBlock: ZUJKAS_clean_linker_0, # of connection points: 2
#     Edge 28, Type (0, 0), BuildingBlock: ZUJKAS_clean_linker_0, # of connection points: 2
#     Edge 29, Type (0, 0), BuildingBlock: ZUJKAS_clean_linker_0, # of connection points: 2
#     Edge 30, Type (0, 0), BuildingBlock: ZUJKAS_clean_linker_0, # of connection points: 2
#     Edge 31, Type (0, 0), BuildingBlock: ZUJKAS_clean_linker_0, # of connection points: 2
#     Edge 32, Type (0, 0), BuildingBlock: ZUJKAS_clean_linker_0, # of connection points: 2
#     Edge 33, Type (0, 0), BuildingBlock: ZUJKAS_clean_linker_0, # of connection points: 2
#     Edge 34, Type (0, 0), BuildingBlock: ZUJKAS_clean_linker_0, # of connection points: 2
#     Edge 35, Type (0, 0), BuildingBlock: ZUJKAS_clean_linker_0, # of connection points: 2
#     Edge 36, Type (0, 0), BuildingBlock: ZUJKAS_clean_linker_0, # of connection points: 2
#     Edge 37, Type (0, 0), BuildingBlock: ZUJKAS_clean_linker_0, # of connection points: 2
#     Edge 38, Type (0, 0), BuildingBlock: ZUJKAS_clean_linker_0, # of connection points: 2
#     Edge 39, Type (0, 0), BuildingBlock: ZUJKAS_clean_linker_0, # of connection points: 2
#     Edge 40, Type (0, 0), BuildingBlock: ZUJKAS_clean_linker_0, # of connection points: 2
#     Edge 41, Type (0, 0), BuildingBlock: ZUJKAS_clean_linker_0, # of connection points: 2
#     Edge 42, Type (0, 0), BuildingBlock: ZUJKAS_clean_linker_0, # of connection points: 2
#     Edge 43, Type (0, 0), BuildingBlock: ZUJKAS_clean_linker_0, # of connection points: 2
#     Edge 44, Type (0, 0), BuildingBlock: ZUJKAS_clean_linker_0, # of connection points: 2
#     Edge 45, Type (0, 0), BuildingBlock: ZUJKAS_clean_linker_0, # of connection points: 2
#     Edge 46, Type (0, 0), BuildingBlock: ZUJKAS_clean_linker_0, # of connection points: 2
#     Edge 47, Type (0, 0), BuildingBlock: ZUJKAS_clean_linker_0, # of connection points: 2
# Relax obj value: 0.071
# Max RMSD: 0.160
# Mean RMSD: 0.160
data_MOF--net-wme--node1-MIFKUJ_clean_sbu_0--edge1-ZUJKAS_clean_linker_0
_symmetry_space_group_name_H-M    P1
_symmetry_Int_Tables_number       1
_symmetry_cell_setting            triclinic
loop_
_symmetry_equiv_pos_as_xyz
'x, y, z'
_cell_length_a     43.310454
_cell_length_b     43.283909
_cell_length_c     69.284172
_cell_angle_alpha  90.04991
_cell_angle_beta   90.03881
_cell_angle_gamma 119.79872
loop_
_atom_site_label
_atom_site_type_symbol
_atom_site_fract_x
_atom_site_fract_y
_atom_site_fract_z
_atom_type_partial_charge
Zn0 Zn 0.21833 0.30342 0.10565 0.0
Zn1 Zn 0.21214 0.37402 0.09679 0.0
C2 C 0.14634 0.26346 0.11631 0.0
O3 O 0.16272 0.26256 0.13209 0.0
C4 C 0.27679 0.43383 0.08417 0.0
O5 O 0.2548 0.43255 0.07071 0.0
O6 O 0.22575 0.26059 0.10733 0.0
O7 O 0.24614 0.33353 0.08351 0.0
O8 O 0.20177 0.34026 0.07387 0.0
C9 C 0.21406 0.23884 0.09321 0.0
O10 O 0.20045 0.24661 0.07829 0.0
O11 O 0.16494 0.28122 0.10192 0.0
C12 C 0.19722 0.42872 0.10551 0.0
O13 O 0.21691 0.4297 0.12019 0.0
O14 O 0.18944 0.405 0.09258 0.0
O15 O 0.19804 0.35448 0.12411 0.0
O16 O 0.23146 0.33016 0.13029 0.0
O17 O 0.26516 0.40971 0.09706 0.0
C18 C 0.22634 0.33323 0.07001 0.0
C19 C 0.21379 0.3446 0.13607 0.0
Zn20 Zn 0.92907 0.21276 0.61347 0.0
Zn21 Zn 0.85367 0.21264 0.60465 0.0
C22 C 0.90137 0.14012 0.61719 0.0
O23 O 0.92425 0.1538 0.63147 0.0
C24 C 0.8678 0.28226 0.59385 0.0
O25 O 0.85778 0.2664 0.57698 0.0
O26 O 0.97848 0.21828 0.61535 0.0
O27 O 0.93097 0.2466 0.59379 0.0
O28 O 0.87972 0.20833 0.58109 0.0
C29 C 0.99027 0.2102 0.60048 0.0
O30 O 0.97093 0.20061 0.58467 0.0
O31 O 0.89651 0.16101 0.60632 0.0
C32 C 0.78105 0.19081 0.61179 0.0
O33 O 0.79516 0.20304 0.62884 0.0
O34 O 0.80102 0.19084 0.59829 0.0
O35 O 0.85669 0.19379 0.6313 0.0
O36 O 0.91408 0.22112 0.63877 0.0
O37 O 0.86966 0.2648 0.60813 0.0
C38 C 0.91233 0.23166 0.57902 0.0
C39 C 0.88163 0.20526 0.64381 0.0
Zn40 Zn 0.72041 0.92119 0.12094 0.0
Zn41 Zn 0.6346 0.84943 0.10685 0.0
C42 C 0.75221 0.87921 0.12611 0.0
O43 O 0.75228 0.89065 0.14369 0.0
C44 C 0.58169 0.85956 0.08761 0.0
O45 O 0.58979 0.84503 0.07326 0.0
O46 O 0.76475 0.96949 0.12357 0.0
O47 O 0.68888 0.92562 0.10171 0.0
O48 O 0.67166 0.87579 0.08605 0.0
C49 C 0.78546 0.98029 0.10905 0.0
O50 O 0.77671 0.95999 0.09362 0.0
O51 O 0.7379 0.88774 0.11264 0.0
C52 C 0.57742 0.78027 0.11117 0.0
O53 O 0.56952 0.79907 0.12301 0.0
O54 O 0.60671 0.79602 0.10197 0.0
O55 O 0.6473 0.85684 0.13542 0.0
O56 O 0.6961 0.90463 0.14598 0.0
O57 O 0.59849 0.86537 0.10346 0.0
C58 C 0.68664 0.90956 0.08608 0.0
C59 C 0.66726 0.8759 0.14917 0.0
Zn60 Zn 0.80348 0.71604 0.61075 0.0
Zn61 Zn 0.80189 0.63367 0.60516 0.0
C62 C 0.87553 0.76502 0.61428 0.0
O63 O 0.86049 0.7757 0.62711 0.0
C64 C 0.74263 0.56935 0.59087 0.0
O65 O 0.76777 0.56987 0.58003 0.0
O66 O 0.79235 0.75623 0.6086 0.0
O67 O 0.77185 0.67702 0.59309 0.0
O68 O 0.81177 0.66539 0.58172 0.0
C69 C 0.80694 0.77839 0.5949 0.0
O70 O 0.82661 0.7731 0.58238 0.0
O71 O 0.85588 0.73719 0.60444 0.0
C72 C 0.82769 0.58784 0.61721 0.0
O73 O 0.80878 0.58624 0.63239 0.0
O74 O 0.83042 0.60829 0.60335 0.0
O75 O 0.80683 0.65329 0.63263 0.0
O76 O 0.79796 0.69911 0.63755 0.0
O77 O 0.75063 0.59468 0.60272 0.0
C78 C 0.78981 0.67628 0.57893 0.0
C79 C 0.80363 0.67486 0.64393 0.0
Zn80 Zn 0.09338 0.80039 0.11263 0.0
Zn81 Zn 0.16826 0.80527 0.10231 0.0
C82 C 0.11937 0.87355 0.1183 0.0
O83 O 0.10025 0.85918 0.13387 0.0
C84 C 0.16064 0.73955 0.08871 0.0
O85 O 0.17465 0.75974 0.07344 0.0
O86 O 0.04296 0.7907 0.11513 0.0
O87 O 0.09358 0.76856 0.09193 0.0
O88 O 0.14189 0.81272 0.07998 0.0
C89 C 0.02922 0.79703 0.1005 0.0
O90 O 0.04771 0.80776 0.08445 0.0
O91 O 0.12217 0.85319 0.106 0.0
C92 C 0.23889 0.82318 0.10787 0.0
O93 O 0.22319 0.80462 0.12341 0.0
O94 O 0.22038 0.82891 0.09566 0.0
O95 O 0.16658 0.82176 0.12976 0.0
O96 O 0.1097 0.79309 0.13795 0.0
O97 O 0.15344 0.75267 0.10333 0.0
C98 C 0.11071 0.78667 0.07744 0.0
C99 C 0.14234 0.81008 0.14261 0.0
Zn100 Zn 0.30502 0.08466 0.60795 0.0
Zn101 Zn 0.37751 0.16088 0.60067 0.0
C102 C 0.26327 0.11684 0.61653 0.0
O103 O 0.2603 0.0995 0.63261 0.0
C104 C 0.43395 0.14983 0.58619 0.0
O105 O 0.42863 0.16366 0.57053 0.0
O106 O 0.26331 0.03431 0.60783 0.0
O107 O 0.33844 0.08846 0.58724 0.0
O108 O 0.34384 0.13877 0.57776 0.0
C109 C 0.24074 0.02676 0.59431 0.0
O110 O 0.24678 0.051 0.58119 0.0
O111 O 0.28291 0.11598 0.60312 0.0
C112 C 0.43373 0.22939 0.60793 0.0
O113 O 0.43808 0.21038 0.62131 0.0
O114 O 0.40733 0.21394 0.59651 0.0
O115 O 0.35847 0.15489 0.6282 0.0
O116 O 0.32768 0.09678 0.63369 0.0
O117 O 0.41379 0.14409 0.60069 0.0
C118 C 0.33674 0.10727 0.5738 0.0
C119 C 0.34449 0.12862 0.63984 0.0
Zn120 Zn 0.72296 0.80208 0.37271 0.0
Zn121 Zn 0.63491 0.78498 0.38612 0.0
C122 C 0.74875 0.87564 0.36874 0.0
O123 O 0.74952 0.86636 0.35077 0.0
C124 C 0.57317 0.72423 0.40164 0.0
O125 O 0.57366 0.74848 0.41326 0.0
O126 O 0.76902 0.80087 0.37074 0.0
O127 O 0.69089 0.76486 0.39106 0.0
O128 O 0.67106 0.79459 0.40741 0.0
C129 C 0.79164 0.81588 0.38423 0.0
O130 O 0.78374 0.83061 0.39856 0.0
O131 O 0.73639 0.8516 0.38165 0.0
C132 C 0.58318 0.80413 0.37831 0.0
O133 O 0.57772 0.78064 0.36479 0.0
O134 O 0.60863 0.81252 0.39016 0.0
O135 O 0.64936 0.78974 0.3577 0.0
O136 O 0.69985 0.79414 0.34731 0.0
O137 O 0.59754 0.73343 0.38908 0.0
C138 C 0.68845 0.77806 0.40687 0.0
C139 C 0.66998 0.79192 0.34399 0.0
Zn140 Zn 0.91168 0.70172 0.87603 0.0
Zn141 Zn 0.83533 0.63309 0.886 0.0
C142 C 0.88546 0.74712 0.86688 0.0
O143 O 0.90373 0.74843 0.85147 0.0
C144 C 0.85053 0.57953 0.89919 0.0
O145 O 0.83931 0.58641 0.91538 0.0
O146 O 0.9623 0.74276 0.87299 0.0
O147 O 0.91054 0.67227 0.89832 0.0
O148 O 0.86028 0.66653 0.90876 0.0
C149 C 0.97596 0.7636 0.88736 0.0
O150 O 0.95785 0.75599 0.90355 0.0
O151 O 0.88314 0.72663 0.88066 0.0
C152 C 0.76403 0.58013 0.87857 0.0
O153 O 0.77948 0.58111 0.86209 0.0
O154 O 0.78265 0.60164 0.89191 0.0
O155 O 0.83818 0.65357 0.85914 0.0
O156 O 0.89474 0.67458 0.85156 0.0
O157 O 0.85286 0.59759 0.88422 0.0
C158 C 0.89172 0.67277 0.91214 0.0
C159 C 0.86255 0.66246 0.84652 0.0
Zn160 Zn 0.22531 0.92129 0.37632 0.0
Zn161 Zn 0.2153 0.84323 0.38392 0.0
C162 C 0.15355 0.89585 0.36684 0.0
O163 O 0.1703 0.91616 0.35199 0.0
C164 C 0.27952 0.84899 0.39875 0.0
O165 O 0.25798 0.83261 0.41325 0.0
O166 O 0.23564 0.97252 0.37645 0.0
O167 O 0.25221 0.91543 0.39791 0.0
O168 O 0.20481 0.86667 0.40662 0.0
C169 C 0.22052 0.98033 0.38983 0.0
O170 O 0.20153 0.95592 0.40268 0.0
O171 O 0.1718 0.89198 0.38003 0.0
C172 C 0.19324 0.77107 0.37536 0.0
O173 O 0.2097 0.78652 0.35927 0.0
O174 O 0.19068 0.79007 0.38859 0.0
O175 O 0.20304 0.85018 0.35633 0.0
O176 O 0.23611 0.90812 0.35088 0.0
O177 O 0.26768 0.85812 0.38433 0.0
C178 C 0.2304 0.89723 0.411 0.0
C179 C 0.21819 0.87636 0.34468 0.0
Zn180 Zn 0.29585 0.19953 0.87238 0.0
Zn181 Zn 0.36929 0.19685 0.88271 0.0
C182 C 0.25429 0.12574 0.86532 0.0
O183 O 0.2536 0.13942 0.84851 0.0
C184 C 0.42371 0.26497 0.89678 0.0
O185 O 0.41607 0.24684 0.91297 0.0
O186 O 0.25468 0.20887 0.86964 0.0
O187 O 0.32788 0.23134 0.89296 0.0
O188 O 0.33495 0.1887 0.905 0.0
C189 C 0.23411 0.202 0.88407 0.0
O190 O 0.24153 0.19092 0.90013 0.0
O191 O 0.2725 0.14674 0.87893 0.0
C192 C 0.42064 0.17596 0.87622 0.0
O193 O 0.42102 0.19097 0.85968 0.0
O194 O 0.39897 0.17393 0.88924 0.0
O195 O 0.35117 0.18107 0.85513 0.0
O196 O 0.32036 0.20761 0.84735 0.0
O197 O 0.40594 0.24958 0.88167 0.0
C198 C 0.32775 0.21354 0.90743 0.0
C199 C 0.33765 0.19226 0.84249 0.0
Zn200 Zn 0.088 0.28567 0.36893 0.0
Zn201 Zn 0.16348 0.36877 0.37726 0.0
C202 C 0.11251 0.23756 0.36851 0.0
O203 O 0.08784 0.22611 0.35506 0.0
C204 C 0.15282 0.42455 0.39305 0.0
O205 O 0.16217 0.41521 0.4091 0.0
O206 O 0.03757 0.24477 0.36939 0.0
O207 O 0.08872 0.32307 0.38585 0.0
O208 O 0.13869 0.33712 0.40025 0.0
C209 C 0.02726 0.22736 0.38508 0.0
O210 O 0.04958 0.23697 0.39966 0.0
O211 O 0.11939 0.26569 0.37778 0.0
C212 C 0.23345 0.42173 0.37079 0.0
O213 O 0.21592 0.42834 0.35745 0.0
O214 O 0.21639 0.39486 0.38168 0.0
O215 O 0.15474 0.34985 0.34964 0.0
O216 O 0.10259 0.30269 0.34239 0.0
O217 O 0.15031 0.40757 0.37759 0.0
C218 C 0.10566 0.32639 0.40126 0.0
C219 C 0.13285 0.32794 0.33736 0.0
Zn220 Zn 0.8034 0.09269 0.87398 0.0
Zn221 Zn 0.80265 0.16596 0.8852 0.0
C222 C 0.87642 0.13006 0.86484 0.0
O223 O 0.86213 0.11483 0.84827 0.0
C224 C 0.7334 0.14846 0.89871 0.0
O225 O 0.75065 0.15734 0.91522 0.0
O226 O 0.79933 0.04435 0.87044 0.0
O227 O 0.77321 0.0884 0.89618 0.0
O228 O 0.81065 0.14085 0.90813 0.0
C229 C 0.81306 0.03507 0.88389 0.0
O230 O 0.82745 0.05654 0.8987 0.0
O231 O 0.85598 0.12606 0.87896 0.0
C232 C 0.82097 0.23745 0.87837 0.0
O233 O 0.80619 0.22236 0.86186 0.0
O234 O 0.82379 0.21844 0.8915 0.0
O235 O 0.8199 0.1641 0.85794 0.0
O236 O 0.78882 0.10705 0.85025 0.0
O237 O 0.74989 0.14854 0.8835 0.0
C238 C 0.78931 0.10776 0.91055 0.0
C239 C 0.80538 0.13953 0.8453 0.0
H240 H 0.11443 0.92181 0.14145 0.0
H241 H 0.1362 0.98475 0.13523 0.0
H242 H 0.18142 0.9769 0.08133 0.0
H243 H 0.15946 0.91332 0.08738 0.0
H244 H 0.22656 0.04125 0.10807 0.0
H245 H 0.09119 0.01742 0.09035 0.0
H246 H 0.09491 0.99659 0.11201 0.0
H247 H 0.10282 0.98275 0.089 0.0
C248 C 0.12918 0.93334 0.12829 0.0
C249 C 0.13499 0.91236 0.11484 0.0
C250 C 0.14158 0.96939 0.12478 0.0
C251 C 0.16015 0.98538 0.10777 0.0
C252 C 0.16707 0.96497 0.09454 0.0
H253 H 0.19108 0.18784 0.06516 0.0
H254 H 0.18184 0.12757 0.0676 0.0
C255 C 0.15447 0.92867 0.098 0.0
C256 C 0.17094 0.02307 0.10368 0.0
H257 H 0.13655 0.0774 0.09423 0.0
C258 C 0.207 0.04923 0.10489 0.0
C259 C 0.14535 0.0333 0.09943 0.0
C260 C 0.10638 0.00611 0.09746 0.0
C261 C 0.21801 0.08556 0.10243 0.0
C262 C 0.19223 0.09588 0.09882 0.0
C263 C 0.1563 0.06953 0.09711 0.0
C264 C 0.20161 0.13378 0.09684 0.0
C265 C 0.25711 0.11259 0.10363 0.0
C266 C 0.2162 0.15759 0.11242 0.0
C267 C 0.22153 0.19224 0.11108 0.0
C268 C 0.21217 0.20364 0.09417 0.0
C269 C 0.19855 0.18001 0.07843 0.0
C270 C 0.19321 0.14547 0.07978 0.0
H271 H 0.27391 0.10007 0.10163 0.0
H272 H 0.26456 0.13372 0.0926 0.0
H273 H 0.26306 0.12538 0.11807 0.0
H274 H 0.2223 0.14899 0.12585 0.0
H275 H 0.23192 0.20967 0.1235 0.0
H276 H 0.22733 0.13149 0.64397 0.0
H277 H 0.1864 0.15433 0.63924 0.0
H278 H 0.20803 0.1638 0.57816 0.0
H279 H 0.24926 0.14088 0.58275 0.0
H280 H 0.19749 0.2207 0.62074 0.0
H281 H 0.09745 0.09647 0.58388 0.0
H282 H 0.13301 0.09833 0.59837 0.0
H283 H 0.14221 0.11769 0.57471 0.0
C284 C 0.22368 0.13871 0.62953 0.0
C285 C 0.2414 0.13413 0.61371 0.0
C286 C 0.20032 0.15185 0.62688 0.0
C287 C 0.19389 0.16039 0.60835 0.0
C288 C 0.21239 0.15703 0.59257 0.0
H289 H 0.02628 0.20243 0.57029 0.0
H290 H 0.07826 0.19445 0.57153 0.0
C291 C 0.23605 0.1441 0.59523 0.0
C292 C 0.16656 0.17117 0.6056 0.0
H293 H 0.08263 0.14133 0.58824 0.0
C294 C 0.17243 0.20351 0.61353 0.0
C295 C 0.13395 0.14867 0.5962 0.0
C296 C 0.12593 0.11321 0.58788 0.0
C297 C 0.14651 0.21399 0.61228 0.0
C298 C 0.11345 0.19103 0.60332 0.0
C299 C 0.10791 0.15895 0.59512 0.0
C300 C 0.08382 0.19913 0.6026 0.0
C301 C 0.15502 0.24974 0.62036 0.0
C302 C 0.06963 0.20469 0.61964 0.0
C303 C 0.04 0.20958 0.61896 0.0
C304 C 0.02361 0.20845 0.60124 0.0
C305 C 0.03818 0.20339 0.58419 0.0
C306 C 0.06793 0.1988 0.58487 0.0
H307 H 0.1842 0.26828 0.62099 0.0
H308 H 0.14266 0.26217 0.61158 0.0
H309 H 0.14454 0.24619 0.63529 0.0
H310 H 0.08077 0.20416 0.63355 0.0
H311 H 0.02924 0.21306 0.63237 0.0
H312 H 0.83056 0.01409 0.07905 0.0
H313 H 0.88962 0.0671 0.08036 0.0
H314 H 0.8775 0.07617 0.1415 0.0
H315 H 0.81829 0.023 0.14038 0.0
H316 H 0.91306 0.13973 0.09511 0.0
H317 H 0.96911 0.06718 0.13497 0.0
H318 H 0.9274 0.04445 0.12207 0.0
H319 H 0.92968 0.06471 0.14503 0.0
C320 C 0.84032 0.02744 0.09278 0.0
C321 C 0.81988 0.01408 0.10967 0.0
C322 C 0.87403 0.05782 0.09346 0.0
C323 C 0.88804 0.07526 0.11105 0.0
C324 C 0.86725 0.06281 0.12782 0.0
H325 H 0.09966 0.23557 0.14608 0.0
H326 H 0.03599 0.19322 0.14444 0.0
C327 C 0.83341 0.0325 0.12714 0.0
C328 C 0.9251 0.10531 0.11197 0.0
H329 H 0.00755 0.12814 0.12918 0.0
C330 C 0.93379 0.13735 0.10258 0.0
C331 C 0.95201 0.10195 0.12165 0.0
C332 C 0.94435 0.06769 0.1314 0.0
C333 C 0.96871 0.16644 0.10292 0.0
C334 C 0.99571 0.16302 0.11254 0.0
C335 C 0.98687 0.13086 0.12188 0.0
C336 C 0.03342 0.19215 0.11323 0.0
C337 C 0.97615 0.20075 0.09335 0.0
C338 C 0.05318 0.20627 0.09622 0.0
C339 C 0.0897 0.23091 0.09713 0.0
C340 C 0.10713 0.24133 0.11507 0.0
C341 C 0.08706 0.22794 0.13203 0.0
C342 C 0.05063 0.2037 0.13112 0.0
H343 H 0.95152 0.20245 0.09171 0.0
H344 H 0.99591 0.22421 0.1017 0.0
H345 H 0.98713 0.20201 0.07872 0.0
H346 H 0.04073 0.19721 0.08223 0.0
H347 H 0.10453 0.24053 0.08381 0.0
H348 H 0.85226 0.83927 0.57595 0.0
H349 H 0.85593 0.89714 0.57828 0.0
H350 H 0.76247 0.85174 0.61439 0.0
H351 H 0.75982 0.79385 0.61295 0.0
H352 H 0.81616 0.92486 0.56919 0.0
H353 H 0.83077 0.92876 0.649 0.0
H354 H 0.83083 0.89425 0.63451 0.0
H355 H 0.78956 0.89272 0.64027 0.0
C356 C 0.8323 0.84147 0.5843 0.0
C357 C 0.80606 0.81211 0.59452 0.0
C358 C 0.83438 0.87463 0.58558 0.0
C359 C 0.81 0.87912 0.59688 0.0
C360 C 0.7823 0.84927 0.60609 0.0
H361 H 0.84054 0.09822 0.59617 0.0
H362 H 0.81199 0.03359 0.59092 0.0
C363 C 0.78065 0.81614 0.60515 0.0
C364 C 0.81531 0.91553 0.59975 0.0
H365 H 0.83342 0.97864 0.63428 0.0
C366 C 0.81969 0.9366 0.58343 0.0
C367 C 0.82009 0.9309 0.61835 0.0
C368 C 0.8179 0.91066 0.63653 0.0
C369 C 0.8304 0.97294 0.58512 0.0
C370 C 0.83565 0.98836 0.60371 0.0
C371 C 0.82937 0.9668 0.62003 0.0
C372 C 0.85175 0.0274 0.60674 0.0
C373 C 0.83798 0.9948 0.56697 0.0
C374 C 0.88297 0.0453 0.61778 0.0
C375 C 0.89867 0.08174 0.62116 0.0
C376 C 0.88383 0.10142 0.61339 0.0
C377 C 0.85267 0.08372 0.60222 0.0
C378 C 0.8365 0.04686 0.59911 0.0
H379 H 0.84042 0.98075 0.55414 0.0
H380 H 0.81581 1.00013 0.56427 0.0
H381 H 0.86293 0.02075 0.56846 0.0
H382 H 0.8954 0.03101 0.62376 0.0
H383 H 0.92281 0.09459 0.62971 0.0
H384 H 0.99266 0.80827 0.07178 0.0
H385 H 0.93961 0.81419 0.07507 0.0
H386 H 0.93484 0.79035 0.13576 0.0
H387 H 0.98798 0.78447 0.13267 0.0
H388 H 0.86802 0.76663 0.09069 0.0
H389 H 0.94638 0.892 0.13228 0.0
H390 H 0.96703 0.87226 0.11808 0.0
H391 H 0.94841 0.85411 0.14128 0.0
C392 C 0.9801 0.80383 0.08579 0.0
C393 C 0.99478 0.79629 0.10202 0.0
C394 C 0.94973 0.80714 0.08761 0.0
C395 C 0.93368 0.80317 0.10569 0.0
C396 C 0.94717 0.79391 0.12172 0.0
H397 H 0.77821 0.85106 0.1522 0.0
H398 H 0.8188 0.82836 0.14625 0.0
C399 C 0.97747 0.79048 0.11992 0.0
C400 C 0.90448 0.81125 0.10807 0.0
H401 H 0.88474 0.87039 0.12936 0.0
C402 C 0.87156 0.78929 0.09912 0.0
C403 C 0.90942 0.84103 0.11893 0.0
C404 C 0.94477 0.86646 0.12808 0.0
C405 C 0.84303 0.79589 0.10121 0.0
C406 C 0.84792 0.82547 0.11226 0.0
C407 C 0.881 0.84757 0.121 0.0
C408 C 0.81927 0.83425 0.11524 0.0
C409 C 0.80775 0.7708 0.09195 0.0
C410 C 0.80543 0.84441 0.0997 0.0
C411 C 0.782 0.85737 0.10305 0.0
C412 C 0.77244 0.86069 0.12202 0.0
C413 C 0.7852 0.84905 0.13743 0.0
C414 C 0.8084 0.83602 0.13406 0.0
H415 H 0.80587 0.74508 0.0879 0.0
H416 H 0.78541 0.76543 0.10181 0.0
H417 H 0.80459 0.78322 0.07865 0.0
H418 H 0.81396 0.84385 0.08508 0.0
H419 H 0.77276 0.8663 0.0909 0.0
H420 H 0.9187 0.8342 0.62388 0.0
H421 H 0.98254 0.87052 0.61895 0.0
H422 H 0.98467 0.7809 0.59301 0.0
H423 H 0.91992 0.74456 0.5972 0.0
H424 H 0.03475 0.86394 0.63352 0.0
H425 H 0.03941 0.85624 0.55361 0.0
H426 H 0.99824 0.84048 0.56661 0.0
H427 H 0.01964 0.81398 0.56565 0.0
C428 C 0.93265 0.82217 0.61703 0.0
C429 C 0.91429 0.78651 0.61091 0.0
C430 C 0.96924 0.843 0.61424 0.0
C431 C 0.98852 0.82865 0.60545 0.0
C432 C 0.97032 0.79287 0.59942 0.0
H433 H 0.22147 0.96682 0.61603 0.0
H434 H 0.16249 0.91351 0.61795 0.0
C435 C 0.93339 0.77206 0.60193 0.0
C436 C 0.0277 0.8515 0.60319 0.0
H437 H 0.09421 0.88926 0.56975 0.0
C438 C 0.04781 0.86932 0.61958 0.0
C439 C 0.0447 0.85859 0.58498 0.0
C440 C 0.02441 0.8416 0.56667 0.0
C441 C 0.08392 0.89521 0.61822 0.0
C442 C 0.10096 0.90248 0.6 0.0
C443 C 0.08122 0.88353 0.58372 0.0
C444 C 0.138 0.93219 0.59722 0.0
C445 C 0.10271 0.91593 0.63615 0.0
C446 C 0.14449 0.95943 0.58408 0.0
C447 C 0.17827 0.9894 0.58262 0.0
C448 C 0.20629 0.99303 0.59444 0.0
C449 C 0.20028 0.96503 0.60696 0.0
C450 C 0.16651 0.93467 0.60816 0.0
H451 H 0.08363 0.91325 0.64763 0.0
H452 H 0.11971 0.90564 0.64199 0.0
H453 H 0.11989 0.94467 0.63288 0.0
H454 H 0.12306 0.95814 0.5754 0.0
H455 H 0.18201 0.01034 0.57273 0.0
H456 H 0.10837 0.8996 0.34081 0.0
H457 H 0.04549 0.88054 0.34506 0.0
H458 H 0.04726 0.83954 0.40147 0.0
H459 H 0.11059 0.85862 0.39738 0.0
H460 H 0.98417 0.79417 0.37605 0.0
H461 H 0.01456 0.93425 0.38451 0.0
H462 H 0.03403 0.92563 0.36375 0.0
H463 H 0.04784 0.92107 0.38752 0.0
C464 C 0.09544 0.88627 0.35409 0.0
C465 C 0.11462 0.88092 0.36884 0.0
C466 C 0.05947 0.87544 0.35648 0.0
C467 C 0.04192 0.85906 0.37365 0.0
C468 C 0.06045 0.85226 0.38812 0.0
H469 H 0.84432 0.84512 0.41127 0.0
H470 H 0.90387 0.85238 0.40965 0.0
C471 C 0.09659 0.86318 0.38577 0.0
C472 C 1.00473 0.85079 0.37672 0.0
H473 H 0.95384 0.89036 0.38136 0.0
C474 C 0.97745 0.81511 0.37733 0.0
C475 C 0.9962 0.87822 0.37856 0.0
C476 C 0.02465 0.91698 0.37872 0.0
C477 C 0.94161 0.80618 0.37926 0.0
C478 C 0.93301 0.83368 0.38045 0.0
C479 C 0.96046 0.86931 0.3803 0.0
C480 C 0.89579 0.82637 0.38194 0.0
C481 C 0.91329 0.76746 0.38019 0.0
C482 C 0.87137 0.80921 0.3669 0.0
C483 C 0.83718 0.80504 0.36776 0.0
C484 C 0.82694 0.81817 0.38362 0.0
C485 C 0.85132 0.83478 0.3988 0.0
C486 C 0.8854 0.83893 0.39792 0.0
H487 H 0.92467 0.75018 0.38389 0.0
H488 H 0.89265 0.76322 0.39101 0.0
H489 H 0.90015 0.75898 0.36589 0.0
H490 H 0.87905 0.7999 0.35427 0.0
H491 H 0.81909 0.79222 0.35581 0.0
H492 H 0.01346 0.81123 0.91593 0.0
H493 H 0.06513 0.87078 0.91245 0.0
H494 H 0.06655 0.85385 0.85122 0.0
H495 H 0.01467 0.79415 0.85452 0.0
H496 H 0.13546 0.89587 0.896 0.0
H497 H 0.05565 0.9438 0.85639 0.0
H498 H 0.03547 0.90288 0.87003 0.0
H499 H 0.05412 0.90455 0.84665 0.0
C500 C 0.02494 0.81996 0.90173 0.0
C501 C 0.0097 0.79798 0.88547 0.0
C502 C 0.05454 0.85402 0.89979 0.0
C503 C 0.06936 0.86693 0.88156 0.0
C504 C 0.0552 0.84456 0.8654 0.0
H505 H 0.2228 0.07439 0.83785 0.0
H506 H 0.18082 0.01121 0.84243 0.0
C507 C 0.02565 0.81038 0.86733 0.0
C508 C 0.0984 0.90439 0.87935 0.0
H509 H 0.11705 0.98408 0.85963 0.0
C510 C 0.13154 0.91523 0.88805 0.0
C511 C 0.09309 0.9296 0.86908 0.0
C512 C 0.05762 0.91987 0.86011 0.0
C513 C 0.15981 0.95047 0.88636 0.0
C514 C 0.1545 0.97569 0.87605 0.0
C515 C 0.12122 0.96477 0.86747 0.0
C516 C 0.18295 0.01348 0.87363 0.0
C517 C 0.19529 0.96011 0.89524 0.0
C518 C 0.19866 0.03591 0.88966 0.0
C519 C 0.22307 0.07224 0.88707 0.0
C520 C 0.23176 0.08683 0.8684 0.0
C521 C 0.2166 0.0641 0.85243 0.0
C522 C 0.19254 0.0279 0.85502 0.0
H523 H 0.19786 0.93617 0.89786 0.0
H524 H 0.21757 0.97877 0.88585 0.0
H525 H 0.19787 0.97336 0.90934 0.0
H526 H 0.19116 0.02565 0.90417 0.0
H527 H 0.23406 0.08909 0.89966 0.0
H528 H 0.17584 0.2596 0.38783 0.0
H529 H 0.20714 0.2257 0.39228 0.0
H530 H 0.12137 0.13567 0.3633 0.0
H531 H 0.0909 0.16938 0.3583 0.0
H532 H 0.19087 0.16505 0.41064 0.0
H533 H 0.20446 0.14533 0.33325 0.0
H534 H 0.19113 0.17637 0.34175 0.0
H535 H 0.1587 0.12986 0.33882 0.0
C536 C 0.16382 0.2326 0.38239 0.0
C537 C 0.13116 0.21735 0.37247 0.0
C538 C 0.18171 0.21329 0.38491 0.0
C539 C 0.16714 0.17847 0.37759 0.0
C540 C 0.13386 0.1629 0.36842 0.0
H541 H 0.17948 0.99803 0.41172 0.0
H542 H 0.17428 0.05125 0.40964 0.0
C543 C 0.1163 0.18219 0.3657 0.0
C544 C 0.18571 0.15754 0.37982 0.0
H545 H 0.20565 0.10179 0.35479 0.0
C546 C 0.19476 0.15172 0.39839 0.0
C547 C 0.19196 0.14098 0.36383 0.0
C548 C 0.18643 0.14883 0.34329 0.0
C549 C 0.20732 0.12777 0.40152 0.0
C550 C 0.20973 0.10821 0.38573 0.0
C551 C 0.20321 0.1161 0.36702 0.0
C552 C 0.21587 0.07747 0.3883 0.0
C553 C 0.21757 0.12359 0.42176 0.0
C554 C 0.24041 0.07369 0.37665 0.0
C555 C 0.24275 0.04255 0.37742 0.0
C556 C 0.22074 0.01469 0.38994 0.0
C557 C 0.19704 0.01903 0.40199 0.0
C558 C 0.19432 0.04979 0.40099 0.0
H559 H 0.22826 0.14899 0.42992 0.0
H560 H 0.19357 0.10343 0.42953 0.0
H561 H 0.23784 0.11501 0.42181 0.0
H562 H 0.25722 0.09452 0.36664 0.0
H563 H 0.26131 0.04005 0.36797 0.0
H564 H 0.18582 0.19028 0.9125 0.0
H565 H 0.12774 0.1863 0.90917 0.0
H566 H 0.14791 0.21181 0.84872 0.0
H567 H 0.20617 0.21588 0.85187 0.0
H568 H 0.10675 0.23683 0.89425 0.0
H569 H 0.05526 0.11246 0.85103 0.0
H570 H 0.09536 0.12983 0.86531 0.0
H571 H 0.09587 0.14984 0.84254 0.0
C572 C 0.17815 0.19548 0.89852 0.0
C573 C 0.20056 0.20313 0.8824 0.0
C574 C 0.14494 0.19324 0.89667 0.0
C575 C 0.1334 0.19834 0.87866 0.0
C576 C 0.15622 0.20739 0.8627 0.0
H577 H 0.92665 0.15282 0.83663 0.0
H578 H 0.99016 0.17412 0.84029 0.0
C579 C 0.18953 0.20979 0.86454 0.0
C580 C 0.09668 0.19208 0.87638 0.0
H581 H 0.01662 0.13534 0.85566 0.0
C582 C 0.08698 0.21473 0.88579 0.0
C583 C 0.07101 0.16312 0.8654 0.0
C584 C 0.07964 0.13717 0.85559 0.0
C585 C 0.05229 0.20947 0.88424 0.0
C586 C 0.02653 0.18034 0.87333 0.0
C587 C 0.03639 0.15777 0.86394 0.0
C588 C 0.989 0.17217 0.8715 0.0
C589 C 0.04378 0.23552 0.89398 0.0
C590 C 0.96723 0.16463 0.88786 0.0
C591 C 0.93082 0.15272 0.88581 0.0
C592 C 0.91549 0.1476 0.86735 0.0
C593 C 0.9376 0.15633 0.85105 0.0
C594 C 0.97393 0.16851 0.85311 0.0
H595 H 0.06821 0.26144 0.89676 0.0
H596 H 0.02519 0.2403 0.88512 0.0
H597 H 0.03094 0.22445 0.90809 0.0
H598 H 0.97802 0.16647 0.90218 0.0
H599 H 0.91443 0.14592 0.89863 0.0
H600 H 0.9786 0.19358 0.35628 0.0
H601 H 0.92279 0.13708 0.3584 0.0
H602 H 0.93969 0.13202 0.41941 0.0
H603 H 0.99583 0.18824 0.41737 0.0
H604 H 0.92698 0.07209 0.40049 0.0
H605 H 0.82483 0.1072 0.37993 0.0
H606 H 0.8605 0.12303 0.36279 0.0
H607 H 0.86935 0.14024 0.38705 0.0
C608 C 0.97016 0.18076 0.37021 0.0
C609 C 0.99175 0.19524 0.38662 0.0
C610 C 0.93809 0.1486 0.37144 0.0
C611 C 0.92683 0.13058 0.38913 0.0
C612 C 0.94779 0.1456 0.40565 0.0
H613 H 0.76459 0.90534 0.40497 0.0
H614 H 0.80324 0.96842 0.41293 0.0
C615 C 0.97991 0.17767 0.40443 0.0
C616 C 0.89544 0.0943 0.38987 0.0
H617 H 0.80801 0.04524 0.37688 0.0
C618 C 0.90076 0.06625 0.39571 0.0
C619 C 0.8613 0.0868 0.38363 0.0
C620 C 0.85352 0.11598 0.37818 0.0
C621 C 0.87343 0.03072 0.39442 0.0
C622 C 0.83969 0.0231 0.38739 0.0
C623 C 0.83391 0.05121 0.38229 0.0
C624 C 0.81161 0.98612 0.38322 0.0
C625 C 0.8815 1.00154 0.39952 0.0
C626 C 0.80216 0.97557 0.36398 0.0
C627 C 0.78007 0.93975 0.35941 0.0
C628 C 0.76695 0.91378 0.374 0.0
C629 C 0.77447 0.92469 0.39339 0.0
C630 C 0.79665 0.96066 0.39796 0.0
H631 H 0.91046 0.01183 0.40151 0.0
H632 H 0.86785 0.98874 0.4132 0.0
H633 H 0.87157 0.98077 0.3881 0.0
H634 H 0.81334 0.99486 0.35241 0.0
H635 H 0.77451 0.93229 0.34434 0.0
H636 H 0.85346 0.75865 0.89824 0.0
H637 H 0.83493 0.80362 0.90128 0.0
H638 H 0.86616 0.83576 0.84234 0.0
H639 H 0.88477 0.79131 0.83918 0.0
H640 H 0.89606 0.89189 0.86943 0.0
H641 H 0.74935 0.80914 0.87774 0.0
H642 H 0.77567 0.79816 0.89338 0.0
H643 H 0.77624 0.79177 0.86781 0.0
C644 C 0.85586 0.77493 0.88585 0.0
C645 C 0.87074 0.77148 0.8685 0.0
C646 C 0.84513 0.80051 0.88759 0.0
C647 C 0.84898 0.82287 0.87199 0.0
C648 C 0.86291 0.81875 0.85454 0.0
H649 H 0.78681 0.98414 0.85533 0.0
H650 H 0.79367 0.93127 0.85274 0.0
C651 C 0.87356 0.79329 0.85279 0.0
C652 C 0.84121 0.85244 0.87411 0.0
H653 H 0.77452 0.87155 0.88181 0.0
C654 C 0.86948 0.88743 0.87213 0.0
C655 C 0.80646 0.84651 0.87747 0.0
C656 C 0.77504 0.80939 0.87909 0.0
C657 C 0.86404 0.9167 0.8736 0.0
C658 C 0.82945 0.91085 0.87729 0.0
C659 C 0.80103 0.87587 0.87907 0.0
C660 C 0.82273 0.94103 0.87954 0.0
C661 C 0.89529 0.95374 0.87103 0.0
C662 C 0.83622 0.96352 0.89563 0.0
C663 C 0.83232 0.99357 0.89717 0.0
C664 C 0.81488 1.00181 0.88262 0.0
C665 C 0.80048 0.97863 0.86675 0.0
C666 C 0.80429 0.94839 0.86526 0.0
H667 H 0.9186 0.95339 0.86458 0.0
H668 H 0.88791 0.96992 0.86169 0.0
H669 H 0.90335 0.96705 0.88531 0.0
H670 H 0.8503 0.95811 0.90686 0.0
H671 H 0.84359 0.01069 0.90965 0.0
H672 H 0.13672 0.69163 0.11871 0.0
H673 H 0.13721 0.63524 0.12068 0.0
H674 H 0.17753 0.6501 0.06257 0.0
H675 H 0.17715 0.70623 0.06042 0.0
H676 H 0.10505 0.57092 0.09465 0.0
H677 H 0.25294 0.64318 0.09804 0.0
H678 H 0.22713 0.66462 0.10305 0.0
H679 H 0.23364 0.65541 0.07859 0.0
C680 C 0.14529 0.68269 0.10626 0.0
C681 C 0.15718 0.70365 0.08946 0.0
C682 C 0.1455 0.65045 0.10741 0.0
C683 C 0.15777 0.63874 0.09184 0.0
C684 C 0.1683 0.65886 0.07481 0.0
H685 H 0.16056 0.43894 0.07594 0.0
H686 H 0.14817 0.48824 0.07241 0.0
C687 C 0.16799 0.69095 0.07362 0.0
C688 C 0.16161 0.60663 0.0937 0.0
H689 H 0.22406 0.58051 0.09635 0.0
C690 C 0.13102 0.57291 0.09501 0.0
C691 C 0.19554 0.60941 0.09431 0.0
C692 C 0.22928 0.64506 0.09357 0.0
C693 C 0.13354 0.54182 0.09675 0.0
C694 C 0.16751 0.54462 0.09711 0.0
C695 C 0.19803 0.57839 0.09593 0.0
C696 C 0.17233 0.51317 0.09961 0.0
C697 C 0.09998 0.50629 0.09859 0.0
C698 C 0.19004 0.51086 0.11602 0.0
C699 C 0.19716 0.4829 0.11805 0.0
C700 C 0.18697 0.45665 0.10365 0.0
C701 C 0.16864 0.45862 0.08733 0.0
C702 C 0.16142 0.48669 0.08533 0.0
H703 H 0.07642 0.50925 0.10171 0.0
H704 H 0.09506 0.49134 0.08485 0.0
H705 H 0.10278 0.49021 0.11023 0.0
H706 H 0.19878 0.53102 0.12719 0.0
H707 H 0.21128 0.48231 0.13083 0.0
H708 H 0.74631 0.17986 0.57703 0.0
H709 H 0.6853 0.16801 0.57176 0.0
H710 H 0.66917 0.16468 0.6333 0.0
H711 H 0.73003 0.17731 0.63867 0.0
H712 H 0.61872 0.11368 0.58258 0.0
H713 H 0.64605 0.24059 0.6168 0.0
H714 H 0.681 0.23122 0.61054 0.0
H715 H 0.65587 0.21353 0.6324 0.0
C716 C 0.72965 0.17636 0.58943 0.0
C717 C 0.74319 0.17998 0.60827 0.0
C718 C 0.6948 0.16961 0.5864 0.0
C719 C 0.67292 0.16631 0.60214 0.0
C720 C 0.68585 0.16813 0.62093 0.0
H721 H 0.46133 0.13627 0.61868 0.0
H722 H 0.518 0.137 0.62186 0.0
C723 C 0.72065 0.17516 0.62396 0.0
C724 C 0.63692 0.16188 0.59906 0.0
H725 H 0.5854 0.19884 0.61023 0.0
C726 C 0.61149 0.1324 0.58852 0.0
C727 C 0.62751 0.18646 0.60671 0.0
C728 C 0.65414 0.21991 0.61707 0.0
C729 C 0.57668 0.12637 0.58589 0.0
C730 C 0.56718 0.15053 0.59392 0.0
C731 C 0.59266 0.18014 0.60427 0.0
C732 C 0.53115 0.14617 0.59153 0.0
C733 C 0.55006 0.09391 0.57486 0.0
C734 C 0.51961 0.15076 0.57338 0.0
C735 C 0.48733 0.15058 0.57152 0.0
C736 C 0.46593 0.14573 0.58779 0.0
C737 C 0.47703 0.1399 0.60584 0.0
C738 C 0.50945 0.14039 0.6077 0.0
H739 H 0.55937 0.07439 0.57283 0.0
H740 H 0.52407 0.08063 0.58246 0.0
H741 H 0.54575 0.10216 0.56041 0.0
H742 H 0.53617 0.15576 0.56076 0.0
H743 H 0.47962 0.1552 0.55741 0.0
H744 H 0.58777 0.72864 0.094 0.0
H745 H 0.54338 0.66555 0.08931 0.0
H746 H 0.46356 0.68342 0.11595 0.0
H747 H 0.50771 0.74553 0.12132 0.0
H748 H 0.45867 0.62436 0.12915 0.0
H749 H 0.46675 0.62371 0.04914 0.0
H750 H 0.50786 0.63614 0.06136 0.0
H751 H 0.48831 0.66425 0.06307 0.0
C752 C 0.56073 0.719 0.09883 0.0
C753 C 0.55129 0.7421 0.10803 0.0
C754 C 0.53531 0.683 0.09604 0.0
C755 C 0.49989 0.66972 0.10201 0.0
C756 C 0.49065 0.69287 0.11123 0.0
H757 H 0.30241 0.49671 0.06499 0.0
H758 H 0.35933 0.55089 0.06953 0.0
C759 C 0.516 0.7285 0.11427 0.0
C760 C 0.47201 0.63186 0.09895 0.0
H761 H 0.42653 0.56963 0.06408 0.0
C762 C 0.45178 0.61229 0.11492 0.0
C763 C 0.46287 0.61615 0.08037 0.0
C764 C 0.48232 0.63617 0.06247 0.0
C765 C 0.42189 0.57823 0.1128 0.0
C766 C 0.41263 0.56254 0.09422 0.0
C767 C 0.43371 0.58153 0.07833 0.0
C768 C 0.37925 0.52823 0.09064 0.0
C769 C 0.39944 0.5604 0.13038 0.0
C770 C 0.37159 0.49695 0.10064 0.0
C771 C 0.33857 0.46589 0.09832 0.0
C772 C 0.31296 0.46533 0.08561 0.0
C773 C 0.32147 0.49614 0.07491 0.0
C774 C 0.35413 0.52722 0.07746 0.0
H775 H 0.40511 0.57959 0.14236 0.0
H776 H 0.37064 0.54743 0.12689 0.0
H777 H 0.40535 0.53969 0.13564 0.0
H778 H 0.39088 0.49668 0.11048 0.0
H779 H 0.33296 0.44248 0.10662 0.0
H780 H 0.83508 0.54881 0.64581 0.0
H781 H 0.85108 0.50234 0.64246 0.0
H782 H 0.86575 0.52233 0.58124 0.0
H783 H 0.85069 0.56957 0.58457 0.0
H784 H 0.81406 0.44257 0.62213 0.0
H785 H 0.95213 0.5142 0.59423 0.0
H786 H 0.93083 0.5371 0.60461 0.0
H787 H 0.92178 0.52163 0.58003 0.0
C788 C 0.84237 0.54379 0.63168 0.0
C789 C 0.8416 0.56287 0.61545 0.0
C790 C 0.8515 0.51719 0.62979 0.0
C791 C 0.85997 0.509 0.61164 0.0
C792 C 0.86018 0.52868 0.59547 0.0
H793 H 0.86836 0.32748 0.56614 0.0
H794 H 0.86965 0.38412 0.57099 0.0
C795 C 0.85136 0.55559 0.59738 0.0
C796 C 0.86515 0.47771 0.60945 0.0
H797 H 0.92176 0.45059 0.5921 0.0
C798 C 0.83781 0.44445 0.61576 0.0
C799 C 0.89605 0.4801 0.60102 0.0
C800 C 0.92702 0.51524 0.59475 0.0
C801 C 0.8402 0.41349 0.61359 0.0
C802 C 0.87088 0.41583 0.60501 0.0
C803 C 0.89831 0.44899 0.59871 0.0
C804 C 0.87419 0.38371 0.60205 0.0
C805 C 0.80948 0.37829 0.62005 0.0
C806 C 0.8773 0.36527 0.6179 0.0
C807 C 0.87666 0.33293 0.6152 0.0
C808 C 0.87277 0.31842 0.59658 0.0
C809 C 0.87118 0.33779 0.58068 0.0
C810 C 0.87201 0.37021 0.5834 0.0
H811 H 0.78525 0.38009 0.62314 0.0
H812 H 0.80293 0.35753 0.60886 0.0
H813 H 0.81709 0.36959 0.63341 0.0
H814 H 0.87931 0.37548 0.63241 0.0
H815 H 0.87804 0.31877 0.62776 0.0
H816 H 0.55663 0.88704 0.11501 0.0
H817 H 0.50055 0.88776 0.11442 0.0
H818 H 0.47967 0.84426 0.05681 0.0
H819 H 0.53564 0.8432 0.05725 0.0
H820 H 0.47012 0.91808 0.08766 0.0
H821 H 0.39619 0.7699 0.09087 0.0
H822 H 0.44313 0.79593 0.09614 0.0
H823 H 0.42785 0.7897 0.0716 0.0
C824 C 0.54039 0.87809 0.10209 0.0
C825 C 0.55039 0.86463 0.08626 0.0
C826 C 0.50842 0.87864 0.10177 0.0
C827 C 0.48587 0.86566 0.08568 0.0
C828 C 0.49661 0.85403 0.06945 0.0
H829 H 0.27902 0.85712 0.07589 0.0
H830 H 0.34006 0.8705 0.06903 0.0
C831 C 0.52862 0.85351 0.06973 0.0
C832 C 0.44989 0.86152 0.08663 0.0
H833 H 0.36223 0.79856 0.09083 0.0
C834 C 0.44644 0.89201 0.08815 0.0
C835 C 0.4192 0.82741 0.08748 0.0
C836 C 0.42155 0.79377 0.08658 0.0
C837 C 0.41294 0.8892 0.09073 0.0
C838 C 0.38238 0.85508 0.09177 0.0
C839 C 0.38581 0.82467 0.08992 0.0
C840 C 0.34677 0.85001 0.09623 0.0
C841 C 0.41048 0.92256 0.09304 0.0
C842 C 0.33057 0.83423 0.11377 0.0
C843 C 0.29592 0.82657 0.11771 0.0
C844 C 0.27663 0.83432 0.10411 0.0
C845 C 0.29321 0.85092 0.08667 0.0
C846 C 0.32807 0.85866 0.08275 0.0
H847 H 0.4371 0.94675 0.09442 0.0
H848 H 0.39688 0.92578 0.08027 0.0
H849 H 0.39442 0.92046 0.10597 0.0
H850 H 0.34461 0.82732 0.12433 0.0
H851 H 0.28403 0.81386 0.1313 0.0
H852 H 0.7213 0.50446 0.57465 0.0
H853 H 0.66244 0.45172 0.57584 0.0
H854 H 0.62227 0.51114 0.60658 0.0
H855 H 0.68174 0.56387 0.60611 0.0
H856 H 0.60143 0.45082 0.62365 0.0
H857 H 0.57352 0.42167 0.54614 0.0
H858 H 0.61522 0.42476 0.55207 0.0
H859 H 0.60989 0.46332 0.55469 0.0
C860 C 0.69986 0.5065 0.58144 0.0
C861 C 0.70617 0.53836 0.59027 0.0
C862 C 0.66606 0.47634 0.58196 0.0
C863 C 0.6376 0.47756 0.59091 0.0
C864 C 0.64371 0.50958 0.59946 0.0
H865 H 0.43021 0.27937 0.58498 0.0
H866 H 0.47575 0.34224 0.58128 0.0
C867 C 0.6777 0.53968 0.59919 0.0
C868 C 0.60249 0.44457 0.59282 0.0
H869 H 0.54164 0.37145 0.5678 0.0
C870 C 0.58804 0.43382 0.61136 0.0
C871 C 0.58437 0.42261 0.5768 0.0
C872 C 0.59639 0.43394 0.55631 0.0
C873 C 0.55732 0.40083 0.61446 0.0
C874 C 0.54126 0.37739 0.59868 0.0
C875 C 0.55432 0.38907 0.57998 0.0
C876 C 0.51275 0.33988 0.60144 0.0
C877 C 0.54265 0.39138 0.63468 0.0
C878 C 0.51854 0.31758 0.61379 0.0
C879 C 0.49256 0.28197 0.61608 0.0
C880 C 0.46039 0.26757 0.60576 0.0
C881 C 0.45468 0.28973 0.59318 0.0
C882 C 0.48066 0.32562 0.59105 0.0
H883 H 0.54894 0.41565 0.64313 0.0
H884 H 0.51336 0.37347 0.63462 0.0
H885 H 0.55516 0.37774 0.6422 0.0
H886 H 0.54351 0.32756 0.62146 0.0
H887 H 0.49807 0.26557 0.62569 0.0
H888 H 0.33006 0.87831 0.37027 0.0
H889 H 0.38639 0.8779 0.36824 0.0
H890 H 0.36662 0.82773 0.42405 0.0
H891 H 0.31042 0.82796 0.42626 0.0
H892 H 0.44886 0.90435 0.39577 0.0
H893 H 0.37379 0.75777 0.38404 0.0
H894 H 0.35387 0.78544 0.38067 0.0
H895 H 0.36075 0.77405 0.40458 0.0
C896 C 0.33792 0.86763 0.38224 0.0
C897 C 0.31553 0.85283 0.39835 0.0
C898 C 0.37015 0.86751 0.38107 0.0
C899 C 0.38043 0.85248 0.39592 0.0
C900 C 0.35898 0.8392 0.41238 0.0
H901 H 0.5758 0.84072 0.40886 0.0
H902 H 0.52872 0.85599 0.41339 0.0
C903 C 0.32686 0.83939 0.4136 0.0
C904 C 0.41208 0.84811 0.39359 0.0
H905 H 0.4361 0.78485 0.38659 0.0
C906 C 0.4462 0.87828 0.39378 0.0
C907 C 0.40839 0.81407 0.39084 0.0
C908 C 0.37228 0.78091 0.38986 0.0
C909 C 0.47685 0.87519 0.39139 0.0
C910 C 0.47312 0.84105 0.38886 0.0
C911 C 0.43893 0.81099 0.38863 0.0
C912 C 0.50397 0.8356 0.38561 0.0
C913 C 0.51287 0.90844 0.39117 0.0
C914 C 0.50577 0.8192 0.36851 0.0
C915 C 0.53235 0.81028 0.36596 0.0
C916 C 0.55776 0.81746 0.38048 0.0
C917 C 0.55674 0.83502 0.39736 0.0
C918 C 0.52993 0.84387 0.39994 0.0
H919 H 0.51076 0.93279 0.38916 0.0
H920 H 0.52647 0.91084 0.40513 0.0
H921 H 0.52972 0.90711 0.3795 0.0
H922 H 0.48605 0.81257 0.35727 0.0
H923 H 0.53243 0.79697 0.35273 0.0
H924 H 0.72653 0.56047 0.91265 0.0
H925 H 0.66576 0.51105 0.91771 0.0
H926 H 0.65584 0.48774 0.85679 0.0
H927 H 0.71621 0.53684 0.85158 0.0
H928 H 0.59434 0.48678 0.87479 0.0
H929 H 0.64084 0.40465 0.91345 0.0
H930 H 0.65691 0.44916 0.9223 0.0
H931 H 0.67021 0.4425 0.89885 0.0
C932 C 0.71127 0.54504 0.90031 0.0
C933 C 0.72634 0.55247 0.88173 0.0
C934 C 0.67663 0.51672 0.90324 0.0
C935 C 0.65647 0.49549 0.88764 0.0
C936 C 0.67097 0.5037 0.86902 0.0
H937 H 0.45536 0.30545 0.86466 0.0
H938 H 0.51017 0.36307 0.86324 0.0
C939 C 0.70556 0.53177 0.8661 0.0
C940 C 0.62076 0.46384 0.89063 0.0
H941 H 0.57918 0.37964 0.90916 0.0
C942 C 0.59092 0.4634 0.8824 0.0
C943 C 0.61641 0.43341 0.90057 0.0
C944 C 0.64772 0.43209 0.90922 0.0
C945 C 0.55678 0.43329 0.88384 0.0
C946 C 0.55253 0.40246 0.89335 0.0
C947 C 0.58236 0.40322 0.90187 0.0
C948 C 0.51774 0.36872 0.89421 0.0
C949 C 0.52559 0.43502 0.87535 0.0
C950 C 0.50383 0.35232 0.91205 0.0
C951 C 0.47273 0.31914 0.91288 0.0
C952 C 0.4548 0.30156 0.89588 0.0
C953 C 0.46829 0.31837 0.87804 0.0
C954 C 0.49958 0.35148 0.87721 0.0
H955 H 0.53113 0.46293 0.87429 0.0
H956 H 0.52037 0.4237 0.86056 0.0
H957 H 0.50118 0.41953 0.88412 0.0
H958 H 0.51738 0.36498 0.92536 0.0
H959 H 0.4631 0.307 0.92687 0.0
H960 H 0.17125 0.73328 0.40919 0.0
H961 H 0.15653 0.6714 0.41455 0.0
H962 H 0.17311 0.66077 0.35413 0.0
H963 H 0.18786 0.72237 0.34862 0.0
H964 H 0.1088 0.6007 0.37239 0.0
H965 H 0.23609 0.64216 0.41137 0.0
H966 H 0.20946 0.66107 0.4193 0.0
H967 H 0.22988 0.67222 0.39592 0.0
C968 C 0.17136 0.71764 0.39701 0.0
C969 C 0.18095 0.73282 0.3785 0.0
C970 C 0.16308 0.68237 0.40012 0.0
C971 C 0.16409 0.66172 0.38476 0.0
C972 C 0.17227 0.67634 0.36617 0.0
H973 H 0.1452 0.45805 0.36143 0.0
H974 H 0.14407 0.51387 0.36065 0.0
C975 C 0.18077 0.71159 0.36307 0.0
C976 C 0.15827 0.6254 0.38806 0.0
H977 H 0.19798 0.58089 0.40678 0.0
C978 C 0.12811 0.59624 0.38003 0.0
C979 C 0.18349 0.61977 0.39808 0.0
C980 C 0.21673 0.65036 0.4066 0.0
C981 C 0.12259 0.56148 0.38165 0.0
C982 C 0.14845 0.55595 0.3911 0.0
C983 C 0.17818 0.5851 0.39953 0.0
C984 C 0.14623 0.52057 0.39169 0.0
C985 C 0.08901 0.53106 0.37333 0.0
C986 C 0.14838 0.50591 0.40937 0.0
C987 C 0.14951 0.47418 0.40985 0.0
C988 C 0.14857 0.45648 0.39264 0.0
C989 C 0.14566 0.47081 0.37497 0.0
C990 C 0.14477 0.50266 0.3745 0.0
H991 H 0.06737 0.53773 0.3725 0.0
H992 H 0.09438 0.52549 0.35844 0.0
H993 H 0.07958 0.50649 0.38205 0.0
H994 H 0.14973 0.51934 0.42281 0.0
H995 H 0.15174 0.46387 0.4237 0.0
H996 H 0.69463 0.143 0.86633 0.0
H997 H 0.63682 0.14016 0.86479 0.0
H998 H 0.63093 0.13706 0.92695 0.0
H999 H 0.68905 0.14073 0.92864 0.0
H1000 H 0.56958 0.09214 0.87815 0.0
H1001 H 0.62072 0.22315 0.91446 0.0
H1002 H 0.64975 0.20747 0.90577 0.0
H1003 H 0.62623 0.19105 0.92816 0.0
C1004 C 0.68091 0.14141 0.87968 0.0
C1005 C 0.69666 0.14253 0.89762 0.0
C1006 C 0.64786 0.13979 0.87877 0.0
C1007 C 0.62991 0.13919 0.89576 0.0
C1008 C 0.64472 0.13843 0.91366 0.0
H1009 H 0.43874 0.1582 0.91082 0.0
H1010 H 0.48664 0.1446 0.91672 0.0
C1011 C 0.67787 0.14032 0.91459 0.0
C1012 C 0.59638 0.14062 0.89469 0.0
H1013 H 0.55954 0.1918 0.90691 0.0
C1014 C 0.56734 0.11385 0.8845 0.0
C1015 C 0.59347 0.169 0.90299 0.0
C1016 C 0.62426 0.19949 0.91331 0.0
C1017 C 0.53556 0.11481 0.88229 0.0
C1018 C 0.53291 0.14344 0.89032 0.0
C1019 C 0.5616 0.16975 0.90089 0.0
C1020 C 0.50178 0.14822 0.8867 0.0
C1021 C 0.50509 0.08522 0.87134 0.0
C1022 C 0.49444 0.15469 0.86789 0.0
C1023 C 0.46737 0.16265 0.8645 0.0
C1024 C 0.44703 0.16432 0.87986 0.0
C1025 C 0.4538 0.15694 0.89867 0.0
C1026 C 0.48117 0.14923 0.90207 0.0
H1027 H 0.50747 0.06083 0.87077 0.0
H1028 H 0.47916 0.07846 0.87799 0.0
H1029 H 0.50515 0.09403 0.85629 0.0
H1030 H 0.51043 0.1547 0.85587 0.0
H1031 H 0.46288 0.16821 0.84985 0.0
H1032 H 0.28108 0.41288 0.39298 0.0
H1033 H 0.34348 0.4571 0.3994 0.0
H1034 H 0.33327 0.53271 0.36327 0.0
H1035 H 0.27184 0.48852 0.35621 0.0
H1036 H 0.39416 0.53476 0.35659 0.0
H1037 H 0.37662 0.53982 0.43578 0.0
H1038 H 0.36603 0.49686 0.42663 0.0
H1039 H 0.3395 0.51635 0.41958 0.0
C1040 C 0.2923 0.43889 0.38634 0.0
C1041 C 0.27153 0.44727 0.37415 0.0
C1042 C 0.32785 0.46421 0.39013 0.0
C1043 C 0.34288 0.49847 0.38211 0.0
C1044 C 0.32229 0.50649 0.36964 0.0
H1045 H 0.5073 0.70212 0.41653 0.0
H1046 H 0.45415 0.64394 0.41262 0.0
C1047 C 0.28709 0.48115 0.36563 0.0
C1048 C 0.37983 0.52655 0.38664 0.0
H1049 H 0.43372 0.57782 0.42331 0.0
C1050 C 0.40296 0.54403 0.37119 0.0
C1051 C 0.39112 0.53872 0.40571 0.0
C1052 C 0.36699 0.52223 0.42289 0.0
C1053 C 0.43636 0.57428 0.37414 0.0
C1054 C 0.44762 0.58659 0.39321 0.0
C1055 C 0.42512 0.56821 0.40874 0.0
C1056 C 0.48093 0.62047 0.39718 0.0
C1057 C 0.4582 0.59389 0.35669 0.0
C1058 C 0.51395 0.62637 0.39035 0.0
C1059 C 0.54429 0.65992 0.39223 0.0
C1060 C 0.54227 0.68781 0.40144 0.0
C1061 C 0.5097 0.68117 0.40936 0.0
C1062 C 0.47928 0.64788 0.40714 0.0
H1063 H 0.44195 0.58609 0.34329 0.0
H1064 H 0.47048 0.62313 0.35856 0.0
H1065 H 0.47979 0.58744 0.35469 0.0
H1066 H 0.5161 0.60532 0.38314 0.0
H1067 H 0.56919 0.66418 0.38621 0.0
H1068 H 0.85417 0.54027 0.92901 0.0
H1069 H 0.8579 0.48585 0.92713 0.0
H1070 H 0.86235 0.49343 0.86502 0.0
H1071 H 0.85951 0.54839 0.86681 0.0
H1072 H 0.81008 0.42461 0.91078 0.0
H1073 H 0.94027 0.47059 0.87543 0.0
H1074 H 0.92758 0.5011 0.88556 0.0
H1075 H 0.91217 0.48224 0.86195 0.0
C1076 C 0.85655 0.53071 0.91495 0.0
C1077 C 0.85655 0.54871 0.89806 0.0
C1078 C 0.85866 0.49955 0.9139 0.0
C1079 C 0.86083 0.48567 0.89595 0.0
C1080 C 0.8616 0.50401 0.87906 0.0
H1081 H 0.82556 0.28597 0.85182 0.0
H1082 H 0.83829 0.34688 0.85751 0.0
C1083 C 0.85976 0.53537 0.8801 0.0
C1084 C 0.85924 0.45058 0.89486 0.0
H1085 H 0.90018 0.40748 0.87561 0.0
C1086 C 0.83007 0.42098 0.90333 0.0
C1087 C 0.88531 0.44579 0.88513 0.0
C1088 C 0.91828 0.47669 0.87667 0.0
C1089 C 0.8256 0.38664 0.90175 0.0
C1090 C 0.85113 0.38176 0.89157 0.0
C1091 C 0.88066 0.41135 0.88341 0.0
C1092 C 0.8463 0.34576 0.88824 0.0
C1093 C 0.79288 0.3556 0.91035 0.0
C1094 C 0.84736 0.32516 0.90361 0.0
C1095 C 0.84019 0.29022 0.90041 0.0
C1096 C 0.8317 0.27531 0.88178 0.0
C1097 C 0.83177 0.2965 0.86637 0.0
C1098 C 0.83915 0.33139 0.86957 0.0
H1099 H 0.77286 0.36306 0.91491 0.0
H1100 H 0.7803 0.33337 0.89981 0.0
H1101 H 0.80065 0.34575 0.9232 0.0
H1102 H 0.8532 0.33593 0.91812 0.0
H1103 H 0.8404 0.27464 0.91258 0.0
H1104 H 0.091 0.29113 0.30665 0.0
H1105 H 0.10799 0.29732 0.2727 0.0
H1106 H 0.21411 0.37997 0.28739 0.0
H1107 H 0.19725 0.37456 0.3214 0.0
H1108 H 0.18668 0.39646 0.25553 0.0
H1109 H 0.17022 0.2614 0.24878 0.0
H1110 H 0.13115 0.26112 0.25764 0.0
H1111 H 0.17127 0.28136 0.27183 0.0
C1112 C 0.11797 0.31065 0.3027 0.0
C1113 C 0.14284 0.3322 0.31675 0.0
C1114 C 0.12766 0.314 0.2833 0.0
C1115 C 0.16245 0.33861 0.27764 0.0
C1116 C 0.18717 0.36067 0.29153 0.0
H1117 H 0.24803 0.33212 0.16555 0.0
H1118 H 0.23841 0.33401 0.20014 0.0
C1119 C 0.17747 0.3575 0.31095 0.0
C1120 C 0.17297 0.34139 0.25718 0.0
H1121 H 0.17741 0.29305 0.21951 0.0
C1122 C 0.18491 0.37397 0.24765 0.0
C1123 C 0.17114 0.31213 0.24709 0.0
C1124 C 0.1606 0.27713 0.25689 0.0
C1125 C 0.19425 0.3778 0.22807 0.0
C1126 C 0.19081 0.34804 0.21776 0.0
C1127 C 0.17969 0.31574 0.22743 0.0
C1128 C 0.19827 0.34952 0.19688 0.0
C1129 C 0.20804 0.41373 0.21868 0.0
C1130 C 0.17888 0.35766 0.18362 0.0
C1131 C 0.18447 0.35684 0.16383 0.0
C1132 C 0.20919 0.34734 0.15699 0.0
C1133 C 0.22873 0.33945 0.17034 0.0
C1134 C 0.22331 0.34053 0.19011 0.0
H1135 H 0.21891 0.43554 0.22953 0.0
H1136 H 0.22915 0.41892 0.20799 0.0
H1137 H 0.18585 0.41441 0.21105 0.0
H1138 H 0.15883 0.36382 0.18854 0.0
H1139 H 0.16884 0.36287 0.15392 0.0
H1140 H 0.81554 0.17294 0.66049 0.0
H1141 H 0.80162 0.16443 0.69496 0.0
H1142 H 0.91361 0.21701 0.70844 0.0
H1143 H 0.92788 0.22538 0.67414 0.0
H1144 H 0.87301 0.15204 0.72731 0.0
H1145 H 0.81479 0.24043 0.7353 0.0
H1146 H 0.79574 0.20795 0.71631 0.0
H1147 H 0.84144 0.24256 0.71476 0.0
C1148 C 0.83722 0.18283 0.67078 0.0
C1149 C 0.87283 0.1999 0.66456 0.0
C1150 C 0.8292 0.17815 0.69045 0.0
C1151 C 0.85664 0.19059 0.70416 0.0
C1152 C 0.89212 0.20745 0.69802 0.0
H1153 H 0.84589 0.20515 0.82877 0.0
H1154 H 0.85794 0.21844 0.79433 0.0
C1155 C 0.90018 0.21216 0.67841 0.0
C1156 C 0.84849 0.18465 0.72493 0.0
H1157 H 0.80977 0.20427 0.76227 0.0
C1158 C 0.85927 0.16351 0.73498 0.0
C1159 C 0.83097 0.20008 0.73485 0.0
C1160 C 0.8203 0.2243 0.72484 0.0
C1161 C 0.85247 0.15687 0.75473 0.0
C1162 C 0.83393 0.17134 0.76453 0.0
C1163 C 0.8237 0.19303 0.75459 0.0
C1164 C 0.82476 0.16384 0.78511 0.0
C1165 C 0.86548 0.13472 0.76499 0.0
C1166 C 0.80147 0.12894 0.79111 0.0
C1167 C 0.79463 0.12122 0.81068 0.0
C1168 C 0.81084 0.14838 0.82457 0.0
C1169 C 0.83315 0.18362 0.81843 0.0
C1170 C 0.84002 0.19129 0.7988 0.0
H1171 H 0.88651 0.13308 0.75664 0.0
H1172 H 0.87616 0.14584 0.7795 0.0
H1173 H 0.8429 0.10726 0.7669 0.0
H1174 H 0.78901 0.10756 0.78066 0.0
H1175 H 0.77703 0.09386 0.81489 0.0
H1176 H 0.60811 0.81556 0.16184 0.0
H1177 H 0.59325 0.79455 0.19514 0.0
H1178 H 0.68825 0.88778 0.21509 0.0
H1179 H 0.70312 0.90923 0.18206 0.0
H1180 H 0.63391 0.77864 0.21896 0.0
H1181 H 0.61335 0.88307 0.25221 0.0
H1182 H 0.613 0.87706 0.22638 0.0
H1183 H 0.65449 0.90201 0.23915 0.0
C1184 C 0.62559 0.83186 0.17334 0.0
C1185 C 0.65683 0.86411 0.16929 0.0
C1186 C 0.617 0.8198 0.19234 0.0
C1187 C 0.63932 0.83993 0.20755 0.0
C1188 C 0.67019 0.87232 0.20358 0.0
H1189 H 0.70711 0.79662 0.31126 0.0
H1190 H 0.69149 0.80181 0.27812 0.0
C1191 C 0.6788 0.88439 0.18465 0.0
C1192 C 0.63253 0.82588 0.22743 0.0
H1193 H 0.63081 0.85053 0.27395 0.0
C1194 C 0.63241 0.79391 0.23099 0.0
C1195 C 0.62988 0.84547 0.24304 0.0
C1196 C 0.62729 0.87861 0.23999 0.0
C1197 C 0.63253 0.78247 0.24988 0.0
C1198 C 0.63342 0.80394 0.26549 0.0
C1199 C 0.63068 0.83439 0.26193 0.0
C1200 C 0.64086 0.79742 0.28541 0.0
C1201 C 0.63274 0.74807 0.25293 0.0
C1202 C 0.61781 0.79382 0.30053 0.0
C1203 C 0.62683 0.79118 0.31957 0.0
C1204 C 0.65919 0.79237 0.3238 0.0
C1205 C 0.68191 0.79543 0.30854 0.0
C1206 C 0.67289 0.79809 0.28955 0.0
H1207 H 0.61979 0.72942 0.24068 0.0
H1208 H 0.66068 0.75378 0.25381 0.0
H1209 H 0.61892 0.73478 0.2665 0.0
H1210 H 0.59313 0.79362 0.29761 0.0
H1211 H 0.60877 0.78894 0.33095 0.0
H1212 H 0.8246 0.63309 0.66308 0.0
H1213 H 0.83021 0.62872 0.6979 0.0
H1214 H 0.79367 0.70381 0.70732 0.0
H1215 H 0.78851 0.70885 0.67251 0.0
H1216 H 0.85374 0.72041 0.7276 0.0
H1217 H 0.75304 0.57835 0.73833 0.0
H1218 H 0.78539 0.58506 0.72021 0.0
H1219 H 0.75556 0.60219 0.71648 0.0
C1220 C 0.81739 0.6484 0.67254 0.0
C1221 C 0.80598 0.67122 0.66501 0.0
C1222 C 0.82043 0.64571 0.69245 0.0
C1223 C 0.81175 0.66547 0.70516 0.0
C1224 C 0.80027 0.68817 0.69771 0.0
H1225 H 0.79763 0.64252 0.83029 0.0
H1226 H 0.78421 0.64338 0.79604 0.0
C1227 C 0.79738 0.69103 0.67782 0.0
C1228 C 0.81664 0.66408 0.72619 0.0
H1229 H 0.79289 0.60754 0.7646 0.0
C1230 C 0.84025 0.69578 0.73572 0.0
C1231 C 0.79862 0.63199 0.73676 0.0
C1232 C 0.77146 0.59752 0.72748 0.0
C1233 C 0.84705 0.69613 0.75551 0.0
C1234 C 0.83033 0.66376 0.76589 0.0
C1235 C 0.80596 0.63221 0.7565 0.0
C1236 C 0.8382 0.66217 0.78648 0.0
C1237 C 0.87189 0.73117 0.76514 0.0
C1238 C 0.87282 0.67175 0.79231 0.0
C1239 C 0.88063 0.67142 0.8118 0.0
C1240 C 0.85383 0.66122 0.82582 0.0
C1241 C 0.81891 0.65067 0.81986 0.0
C1242 C 0.81116 0.6511 0.80033 0.0
H1243 H 0.87456 0.75411 0.75662 0.0
H1244 H 0.86247 0.7325 0.77986 0.0
H1245 H 0.89869 0.73395 0.76643 0.0
H1246 H 0.89387 0.67964 0.78176 0.0
H1247 H 0.90774 0.67943 0.81587 0.0
H1248 H 0.09776 0.79243 0.1736 0.0
H1249 H 0.11403 0.80494 0.2076 0.0
H1250 H 0.22519 0.85629 0.19248 0.0
H1251 H 0.20926 0.84361 0.15833 0.0
H1252 H 0.20535 0.80778 0.22396 0.0
H1253 H 0.15718 0.90425 0.2329 0.0
H1254 H 0.1249 0.8622 0.22277 0.0
H1255 H 0.16473 0.89075 0.20952 0.0
C1256 C 0.1257 0.80638 0.17745 0.0
C1257 C 0.15223 0.8172 0.16323 0.0
C1258 C 0.13492 0.81364 0.19689 0.0
C1259 C 0.17078 0.83197 0.20246 0.0
C1260 C 0.19736 0.84228 0.18839 0.0
H1261 H 0.24565 0.92556 0.31569 0.0
H1262 H 0.23667 0.91492 0.28098 0.0
C1263 C 0.18818 0.83507 0.16891 0.0
C1264 C 0.18041 0.84014 0.22302 0.0
H1265 H 0.17225 0.88458 0.26158 0.0
C1266 C 0.19835 0.82473 0.2322 0.0
C1267 C 0.17158 0.86261 0.23359 0.0
C1268 C 0.15383 0.88121 0.22419 0.0
C1269 C 0.20691 0.83051 0.25189 0.0
C1270 C 0.19681 0.85186 0.26263 0.0
C1271 C 0.17967 0.86797 0.25332 0.0
C1272 C 0.20357 0.8578 0.28359 0.0
C1273 C 0.2269 0.81397 0.261 0.0
C1274 C 0.18778 0.82915 0.29651 0.0
C1275 C 0.19287 0.83509 0.31637 0.0
C1276 C 0.21365 0.86985 0.32364 0.0
C1277 C 0.22952 0.89845 0.3106 0.0
C1278 C 0.22443 0.89246 0.29076 0.0
H1279 H 0.24076 0.80658 0.25 0.0
H1280 H 0.24682 0.83241 0.27159 0.0
H1281 H 0.20783 0.78939 0.26875 0.0
H1282 H 0.17097 0.80227 0.29126 0.0
H1283 H 0.18014 0.81247 0.32601 0.0
H1284 H 0.3689 0.15683 0.82616 0.0
H1285 H 0.37292 0.14625 0.79178 0.0
H1286 H 0.31875 0.2042 0.77767 0.0
H1287 H 0.31407 0.21445 0.81186 0.0
H1288 H 0.29063 0.13913 0.75926 0.0
H1289 H 0.43751 0.21731 0.75074 0.0
H1290 H 0.42222 0.1847 0.76968 0.0
H1291 H 0.41485 0.22195 0.77145 0.0
C1292 C 0.35802 0.1675 0.81574 0.0
C1293 C 0.34118 0.1865 0.82176 0.0
C1294 C 0.36053 0.1616 0.79611 0.0
C1295 C 0.34652 0.17485 0.78223 0.0
C1296 C 0.32983 0.19388 0.78819 0.0
H1297 H 0.37456 0.19292 0.65848 0.0
H1298 H 0.37555 0.20344 0.69322 0.0
C1299 C 0.32721 0.1997 0.80775 0.0
C1300 C 0.34779 0.16773 0.76147 0.0
H1301 H 0.40432 0.18283 0.72383 0.0
C1302 C 0.31547 0.14866 0.7515 0.0
C1303 C 0.38027 0.18058 0.75141 0.0
C1304 C 0.41573 0.20255 0.76128 0.0
C1305 C 0.31471 0.14196 0.73167 0.0
C1306 C 0.34717 0.15408 0.72169 0.0
C1307 C 0.37952 0.17334 0.73162 0.0
C1308 C 0.34795 0.1476 0.70082 0.0
C1309 C 0.27919 0.12265 0.72152 0.0
C1310 C 0.33267 0.11273 0.6937 0.0
C1311 C 0.33186 0.10658 0.67389 0.0
C1312 C 0.3466 0.13526 0.66086 0.0
C1313 C 0.36282 0.17024 0.66811 0.0
C1314 C 0.3635 0.17633 0.68794 0.0
H1315 H 0.25776 0.12311 0.73009 0.0
H1316 H 0.28046 0.1346 0.70715 0.0
H1317 H 0.27184 0.09441 0.71931 0.0
H1318 H 0.32114 0.09025 0.70348 0.0
H1319 H 0.31944 0.07933 0.66882 0.0
H1320 H 0.28842 0.16284 0.93466 0.0
H1321 H 0.25624 0.17005 0.96201 0.0
H1322 H 0.30113 0.28132 0.94798 0.0
H1323 H 0.33215 0.27406 0.92063 0.0
H1324 H 0.27717 0.21013 -0.00623 0.0
H1325 H 0.19746 0.25119 0.95045 0.0
H1326 H 0.22228 0.23232 0.93961 0.0
H1327 H 0.24341 0.27942 0.94453 0.0
C1328 C 0.29158 0.18884 0.93762 0.0
C1329 C 0.31249 0.21787 0.92552 0.0
C1330 C 0.27298 0.19285 0.95308 0.0
C1331 C 0.27525 0.22593 0.95657 0.0
C1332 C 0.29776 0.25522 0.94508 0.0
H1333 H 0.28513 0.33905 0.05349 0.0
H1334 H 0.28849 0.30575 0.02603 0.0
C1335 C 0.31586 0.25116 0.92962 0.0
C1336 C 0.25581 0.23108 0.97269 0.0
H1337 H 0.21146 0.2756 0.98355 0.0
C1338 C 0.262 0.22359 0.99152 0.0
C1339 C 0.23484 0.24747 0.96981 0.0
C1340 C 0.22378 0.25261 0.94996 0.0
C1341 C 0.25107 0.23555 0.00753 0.0
C1342 C 0.23465 0.25643 0.00454 0.0
C1343 C 0.225 0.2605 0.98581 0.0
C1344 C 0.23184 0.27798 0.0203 0.0
C1345 C 0.25856 0.22692 0.02749 0.0
C1346 C 0.19916 0.2753 0.02534 0.0
C1347 C 0.1973 0.2951 0.04088 0.0
C1348 C 0.22813 0.31761 0.05147 0.0
C1349 C 0.26093 0.3216 0.04566 0.0
C1350 C 0.26281 0.30225 0.03014 0.0
H1351 H 0.25774 0.20086 0.02762 0.0
H1352 H 0.28568 0.24756 0.03201 0.0
H1353 H 0.23914 0.22615 0.03821 0.0
H1354 H 0.17506 0.25713 0.01767 0.0
H1355 H 0.17166 0.29141 0.0452 0.0
H1356 H 0.03447 0.29822 0.4065 0.0
H1357 H 1.00132 0.27934 0.43665 0.0
H1358 H 0.09848 0.31005 0.46788 0.0
H1359 H 0.13226 0.32874 0.43755 0.0
H1360 H 1.00658 0.22747 0.46756 0.0
H1361 H 0.04351 0.3655 0.48983 0.0
H1362 H 0.0427 0.35346 0.46478 0.0
H1363 H 0.07751 0.35725 0.48032 0.0
C1364 C 0.04893 0.3009 0.41973 0.0
C1365 C 0.08605 0.31497 0.41966 0.0
C1366 C 0.02986 0.28995 0.4369 0.0
C1367 C 0.04757 0.29334 0.45432 0.0
C1368 C 0.08454 0.30726 0.45444 0.0
H1369 H 0.983 0.27285 0.57211 0.0
H1370 H 0.01376 0.28509 0.54143 0.0
C1371 C 0.10372 0.31796 0.43717 0.0
C1372 C 0.02723 0.28346 0.47241 0.0
H1373 H 1.00619 0.31895 0.51062 0.0
C1374 C 1.00644 0.24732 0.47708 0.0
C1375 C 0.02716 0.30962 0.48451 0.0
C1376 C 0.04874 0.34871 0.4797 0.0
C1377 C 0.98593 0.2366 0.49398 0.0
C1378 C 0.98569 0.2628 0.5061 0.0
C1379 C 1.00634 0.29895 0.50123 0.0
C1380 C 0.96611 0.25375 0.52455 0.0
C1381 C 0.96554 0.19753 0.49898 0.0
C1382 C 0.92892 0.23205 0.52523 0.0
C1383 C 0.91104 0.22462 0.54292 0.0
C1384 C 0.93016 0.23919 0.56008 0.0
C1385 C 0.96734 0.26119 0.55919 0.0
C1386 C 0.98508 0.26825 0.54165 0.0
H1387 H 0.97515 0.182 0.49067 0.0
H1388 H 0.96773 0.1934 0.51463 0.0
H1389 H 0.93699 0.1868 0.4955 0.0
H1390 H 0.91375 0.22122 0.51209 0.0
H1391 H 0.88238 0.20775 0.54316 0.0
H1392 H 0.68388 0.88546 0.04908 0.0
H1393 H 0.70714 0.92183 0.01984 0.0
H1394 H 0.74662 0.01738 0.05403 0.0
H1395 H 0.72357 0.98171 0.08311 0.0
H1396 H 0.68595 0.97344 0.00818 0.0
H1397 H 0.83212 0.03523 0.01906 0.0
H1398 H 0.80041 0.99477 0.03114 0.0
H1399 H 0.80712 0.03702 0.03932 0.0
C1400 C 0.69783 0.9142 0.05036 0.0
C1401 C 0.70188 0.93068 0.06839 0.0
C1402 C 0.71113 0.93488 0.0337 0.0
C1403 C 0.72898 0.97219 0.03492 0.0
C1404 C 0.73351 0.98864 0.05289 0.0
H1405 H 0.80709 0.13914 0.94652 0.0
H1406 H 0.79386 0.10825 0.97785 0.0
C1407 C 0.72004 0.96811 0.06946 0.0
C1408 C 0.74022 0.99406 0.0173 0.0
H1409 H 0.81283 0.05713 -0.00697 0.0
C1410 C 0.71368 0.99162 0.0048 0.0
C1411 C 0.77638 0.01821 0.01326 0.0
C1412 C 0.80577 0.02144 0.0263 0.0
C1413 C 0.72233 0.01269 0.98821 0.0
C1414 C 0.75854 0.03615 0.98383 0.0
C1415 C 0.78513 0.03912 -0.00349 0.0
C1416 C 0.76901 0.05545 0.96532 0.0
C1417 C 0.69261 0.00979 0.97555 0.0
C1418 C 0.76026 0.03592 0.94814 0.0
C1419 C 0.76737 0.05323 0.93047 0.0
C1420 C 0.78392 0.09058 0.92958 0.0
C1421 C 0.79417 0.11035 0.94681 0.0
C1422 C 0.78669 0.09281 0.96464 0.0
H1423 H 0.66722 0.99917 0.98366 0.0
H1424 H 0.6993 0.03606 0.96937 0.0
H1425 H 0.68827 0.99124 0.96345 0.0
H1426 H 0.74734 0.00712 0.9484 0.0
H1427 H 0.75961 0.03715 0.91748 0.0
H1428 H 0.75058 0.70798 0.57112 0.0
H1429 H 0.7452 0.73261 0.5406 0.0
H1430 H 0.8196 0.70648 0.51437 0.0
H1431 H 0.82542 0.68162 0.54516 0.0
H1432 H 0.80018 0.78784 0.51569 0.0
H1433 H 0.72437 0.65283 0.48253 0.0
H1434 H 0.73035 0.65917 0.5083 0.0
H1435 H 0.76675 0.66524 0.49336 0.0
C1436 C 0.76608 0.70761 0.55895 0.0
C1437 C 0.78831 0.69263 0.56052 0.0
C1438 C 0.76308 0.72191 0.54155 0.0
C1439 C 0.78188 0.72118 0.52532 0.0
C1440 C 0.80478 0.70707 0.52682 0.0
H1441 H 0.73546 0.75375 0.40788 0.0
H1442 H 0.76428 0.74553 0.43596 0.0
C1443 C 0.80804 0.69289 0.54436 0.0
C1444 C 0.77516 0.73303 0.50664 0.0
H1445 H 0.72952 0.70088 0.46455 0.0
C1446 C 0.78517 0.76902 0.50433 0.0
C1447 C 0.75544 0.70826 0.49201 0.0
C1448 C 0.74332 0.66914 0.49408 0.0
C1449 C 0.77549 0.78086 0.48777 0.0
C1450 C 0.75458 0.75581 0.47347 0.0
C1451 C 0.74552 0.72002 0.47557 0.0
C1452 C 0.74067 0.76552 0.4564 0.0
C1453 C 0.78771 0.81997 0.48577 0.0
C1454 C 0.71812 0.77997 0.45855 0.0
C1455 C 0.70184 0.78521 0.4424 0.0
C1456 C 0.70743 0.77545 0.42395 0.0
C1457 C 0.73051 0.76155 0.42189 0.0
C1458 C 0.7471 0.75684 0.43792 0.0
H1459 H 0.81195 0.83653 0.49453 0.0
H1460 H 0.79343 0.82863 0.47048 0.0
H1461 H 0.76642 0.82502 0.49102 0.0
H1462 H 0.71209 0.78602 0.47275 0.0
H1463 H 0.68402 0.79575 0.44444 0.0
H1464 H 0.88018 0.71355 0.93837 0.0
H1465 H 0.9177 0.74452 0.96651 0.0
H1466 H 0.98016 0.6937 0.95581 0.0
H1467 H 0.94373 0.6638 0.92766 0.0
H1468 H 0.93391 0.72281 -0.00038 0.0
H1469 H 0.05614 0.79718 0.95676 0.0
H1470 H 0.01264 0.77345 0.94576 0.0
H1471 H 0.03659 0.75056 0.95176 0.0
C1472 C 0.90163 0.70871 0.94227 0.0
C1473 C 0.90935 0.68659 0.93084 0.0
C1474 C 0.92318 0.72659 0.95819 0.0
C1475 C 0.95246 0.72234 0.96279 0.0
C1476 C 0.95857 0.69843 0.95207 0.0
H1477 H 0.05537 0.72526 0.06455 0.0
H1478 H 0.01757 0.71667 0.03672 0.0
C1479 C 0.93749 0.68103 0.93614 0.0
C1480 C 0.97665 0.74205 0.97897 0.0
H1481 H 0.0649 0.78687 0.99053 0.0
C1482 C 0.96252 0.7375 -0.00239 0.0
C1483 C 0.01396 0.76236 0.97632 0.0
C1484 C 0.03063 0.77153 0.95652 0.0
C1485 C 0.98488 0.74986 0.01381 0.0
C1486 C 0.02218 0.76605 0.01124 0.0
C1487 C 0.0363 0.7736 0.99253 0.0
C1488 C 0.04642 0.77179 0.02763 0.0
C1489 C 0.96822 0.7446 0.03353 0.0
C1490 C 0.07667 0.80515 0.03104 0.0
C1491 C 0.099 0.80993 0.04675 0.0
C1492 C 0.09115 0.7814 0.05923 0.0
C1493 C 0.06176 0.7478 0.05527 0.0
C1494 C 0.03987 0.74297 0.03952 0.0
H1495 H 0.9431 0.74559 0.0328 0.0
H1496 H 0.96152 0.71794 0.03908 0.0
H1497 H 0.98648 0.76511 0.04393 0.0
H1498 H 0.08251 0.82761 0.02182 0.0
H1499 H 0.12143 0.83615 0.04958 0.0
H1500 H 0.1739 0.88332 0.43468 0.0
H1501 H 0.17427 0.9204 0.46175 0.0
H1502 H 0.28729 0.98941 0.45432 0.0
H1503 H 0.28692 0.95339 0.42731 0.0
H1504 H 0.20773 0.93752 0.49574 0.0
H1505 H 0.25432 0.06123 0.4548 0.0
H1506 H 0.23717 0.01854 0.44303 0.0
H1507 H 0.28353 0.04412 0.4497 0.0
C1508 C 0.19879 0.90626 0.439 0.0
C1509 C 0.23036 0.91571 0.42885 0.0
C1510 C 0.1989 0.92757 0.45429 0.0
C1511 C 0.23056 0.95843 0.45955 0.0
C1512 C 0.26226 0.96664 0.44999 0.0
H1513 H 0.33412 0.04907 0.55817 0.0
H1514 H 0.29849 0.01395 0.53097 0.0
C1515 C 0.26212 0.94573 0.43473 0.0
C1516 C 0.23191 0.98138 0.47575 0.0
H1517 H 0.27591 0.06897 0.48868 0.0
C1518 C 0.22164 0.96624 0.49415 0.0
C1519 C 0.24857 0.01882 0.4737 0.0
C1520 C 0.25605 0.03648 0.45417 0.0
C1521 C 0.23183 0.98776 0.5107 0.0
C1522 C 0.25394 0.02505 0.50869 0.0
C1523 C 0.26004 0.0403 0.49026 0.0
C1524 C 0.27549 0.04742 0.52505 0.0
C1525 C 0.22037 0.97019 0.5302 0.0
C1526 C 0.27627 0.0793 0.53 0.0
C1527 C 0.29751 0.10009 0.54539 0.0
C1528 C 0.31808 0.08908 0.55595 0.0
C1529 C 0.3182 0.05795 0.55042 0.0
C1530 C 0.29743 0.03757 0.53505 0.0
H1531 H 0.19343 0.94631 0.52935 0.0
H1532 H 0.23903 0.96114 0.53499 0.0
H1533 H 0.22004 0.98869 0.54121 0.0
H1534 H 0.26004 0.08772 0.52221 0.0
H1535 H 0.29684 0.12392 0.54945 0.0
loop_
_geom_bond_atom_site_label_1
_geom_bond_atom_site_label_2
_geom_bond_distance
_geom_bond_site_symmetry_2
_ccdc_geom_bond_type
Zn0 O6 1.969 . S
Zn0 O7 1.965 . S
Zn0 O11 2.024 . S
Zn0 O16 1.969 . S
Zn1 O8 1.969 . S
Zn1 O14 1.969 . S
Zn1 O15 1.965 . S
Zn1 O17 2.024 . S
C2 O3 1.229 . S
C2 O11 1.058 . S
O3 C2 1.229 . S
C4 O5 1.229 . S
C4 O17 1.058 . S
O5 C4 1.229 . S
O6 Zn0 1.969 . S
O6 C9 1.267 . S
O7 Zn0 1.965 . S
O7 C18 1.260 . S
O8 Zn1 1.969 . S
O8 C18 1.258 . S
C9 O6 1.267 . S
C9 O10 1.228 . S
O10 C9 1.228 . S
O11 Zn0 2.024 . S
O11 C2 1.058 . S
C12 O13 1.228 . S
C12 O14 1.267 . S
O13 C12 1.228 . S
O14 Zn1 1.969 . S
O14 C12 1.267 . S
O15 Zn1 1.965 . S
O15 C19 1.260 . S
O16 Zn0 1.969 . S
O16 C19 1.258 . S
O17 Zn1 2.024 . S
O17 C4 1.058 . S
C18 O7 1.260 . S
C18 O8 1.258 . S
C19 O15 1.260 . S
C19 O16 1.258 . S
Zn20 O26 1.969 . S
Zn20 O27 1.965 . S
Zn20 O31 2.024 . S
Zn20 O36 1.969 . S
Zn21 O28 1.969 . S
Zn21 O34 1.969 . S
Zn21 O35 1.965 . S
Zn21 O37 2.024 . S
C22 O23 1.229 . S
C22 O31 1.058 . S
O23 C22 1.229 . S
C24 O25 1.229 . S
C24 O37 1.058 . S
O25 C24 1.229 . S
O26 Zn20 1.969 . S
O26 C29 1.267 . S
O27 Zn20 1.965 . S
O27 C38 1.260 . S
O28 Zn21 1.969 . S
O28 C38 1.258 . S
C29 O26 1.267 . S
C29 O30 1.228 . S
O30 C29 1.228 . S
O31 Zn20 2.024 . S
O31 C22 1.058 . S
C32 O33 1.228 . S
C32 O34 1.267 . S
O33 C32 1.228 . S
O34 Zn21 1.969 . S
O34 C32 1.267 . S
O35 Zn21 1.965 . S
O35 C39 1.260 . S
O36 Zn20 1.969 . S
O36 C39 1.258 . S
O37 Zn21 2.024 . S
O37 C24 1.058 . S
C38 O27 1.260 . S
C38 O28 1.258 . S
C39 O35 1.260 . S
C39 O36 1.258 . S
Zn40 O46 1.969 . S
Zn40 O47 1.965 . S
Zn40 O51 2.024 . S
Zn40 O56 1.969 . S
Zn41 O48 1.969 . S
Zn41 O54 1.969 . S
Zn41 O55 1.965 . S
Zn41 O57 2.024 . S
C42 O43 1.229 . S
C42 O51 1.058 . S
O43 C42 1.229 . S
C44 O45 1.229 . S
C44 O57 1.058 . S
O45 C44 1.229 . S
O46 Zn40 1.969 . S
O46 C49 1.267 . S
O47 Zn40 1.965 . S
O47 C58 1.260 . S
O48 Zn41 1.969 . S
O48 C58 1.258 . S
C49 O46 1.267 . S
C49 O50 1.228 . S
O50 C49 1.228 . S
O51 Zn40 2.024 . S
O51 C42 1.058 . S
C52 O53 1.228 . S
C52 O54 1.267 . S
O53 C52 1.228 . S
O54 Zn41 1.969 . S
O54 C52 1.267 . S
O55 Zn41 1.965 . S
O55 C59 1.260 . S
O56 Zn40 1.969 . S
O56 C59 1.258 . S
O57 Zn41 2.024 . S
O57 C44 1.058 . S
C58 O47 1.260 . S
C58 O48 1.258 . S
C59 O55 1.260 . S
C59 O56 1.258 . S
Zn60 O66 1.969 . S
Zn60 O67 1.965 . S
Zn60 O71 2.024 . S
Zn60 O76 1.969 . S
Zn61 O68 1.969 . S
Zn61 O74 1.969 . S
Zn61 O75 1.965 . S
Zn61 O77 2.024 . S
C62 O63 1.229 . S
C62 O71 1.058 . S
O63 C62 1.229 . S
C64 O65 1.229 . S
C64 O77 1.058 . S
O65 C64 1.229 . S
O66 Zn60 1.969 . S
O66 C69 1.267 . S
O67 Zn60 1.965 . S
O67 C78 1.260 . S
O68 Zn61 1.969 . S
O68 C78 1.258 . S
C69 O66 1.267 . S
C69 O70 1.228 . S
O70 C69 1.228 . S
O71 Zn60 2.024 . S
O71 C62 1.058 . S
C72 O73 1.228 . S
C72 O74 1.267 . S
O73 C72 1.228 . S
O74 Zn61 1.969 . S
O74 C72 1.267 . S
O75 Zn61 1.965 . S
O75 C79 1.260 . S
O76 Zn60 1.969 . S
O76 C79 1.258 . S
O77 Zn61 2.024 . S
O77 C64 1.058 . S
C78 O67 1.260 . S
C78 O68 1.258 . S
C79 O75 1.260 . S
C79 O76 1.258 . S
Zn80 O86 1.969 . S
Zn80 O87 1.965 . S
Zn80 O91 2.024 . S
Zn80 O96 1.969 . S
Zn81 O88 1.969 . S
Zn81 O94 1.969 . S
Zn81 O95 1.965 . S
Zn81 O97 2.024 . S
C82 O83 1.229 . S
C82 O91 1.058 . S
O83 C82 1.229 . S
C84 O85 1.229 . S
C84 O97 1.058 . S
O85 C84 1.229 . S
O86 Zn80 1.969 . S
O86 C89 1.267 . S
O87 Zn80 1.965 . S
O87 C98 1.260 . S
O88 Zn81 1.969 . S
O88 C98 1.258 . S
C89 O86 1.267 . S
C89 O90 1.228 . S
O90 C89 1.228 . S
O91 Zn80 2.024 . S
O91 C82 1.058 . S
C92 O93 1.228 . S
C92 O94 1.267 . S
O93 C92 1.228 . S
O94 Zn81 1.969 . S
O94 C92 1.267 . S
O95 Zn81 1.965 . S
O95 C99 1.260 . S
O96 Zn80 1.969 . S
O96 C99 1.258 . S
O97 Zn81 2.024 . S
O97 C84 1.058 . S
C98 O87 1.260 . S
C98 O88 1.258 . S
C99 O95 1.260 . S
C99 O96 1.258 . S
Zn100 O106 1.969 . S
Zn100 O107 1.965 . S
Zn100 O111 2.024 . S
Zn100 O116 1.969 . S
Zn101 O108 1.969 . S
Zn101 O114 1.969 . S
Zn101 O115 1.965 . S
Zn101 O117 2.024 . S
C102 O103 1.229 . S
C102 O111 1.058 . S
O103 C102 1.229 . S
C104 O105 1.229 . S
C104 O117 1.058 . S
O105 C104 1.229 . S
O106 Zn100 1.969 . S
O106 C109 1.267 . S
O107 Zn100 1.965 . S
O107 C118 1.260 . S
O108 Zn101 1.969 . S
O108 C118 1.258 . S
C109 O106 1.267 . S
C109 O110 1.228 . S
O110 C109 1.228 . S
O111 Zn100 2.024 . S
O111 C102 1.058 . S
C112 O113 1.228 . S
C112 O114 1.267 . S
O113 C112 1.228 . S
O114 Zn101 1.969 . S
O114 C112 1.267 . S
O115 Zn101 1.965 . S
O115 C119 1.260 . S
O116 Zn100 1.969 . S
O116 C119 1.258 . S
O117 Zn101 2.024 . S
O117 C104 1.058 . S
C118 O107 1.260 . S
C118 O108 1.258 . S
C119 O115 1.260 . S
C119 O116 1.258 . S
Zn120 O126 1.969 . S
Zn120 O127 1.965 . S
Zn120 O131 2.024 . S
Zn120 O136 1.969 . S
Zn121 O128 1.969 . S
Zn121 O134 1.969 . S
Zn121 O135 1.965 . S
Zn121 O137 2.024 . S
C122 O123 1.229 . S
C122 O131 1.058 . S
O123 C122 1.229 . S
C124 O125 1.229 . S
C124 O137 1.058 . S
O125 C124 1.229 . S
O126 Zn120 1.969 . S
O126 C129 1.267 . S
O127 Zn120 1.965 . S
O127 C138 1.260 . S
O128 Zn121 1.969 . S
O128 C138 1.258 . S
C129 O126 1.267 . S
C129 O130 1.228 . S
O130 C129 1.228 . S
O131 Zn120 2.024 . S
O131 C122 1.058 . S
C132 O133 1.228 . S
C132 O134 1.267 . S
O133 C132 1.228 . S
O134 Zn121 1.969 . S
O134 C132 1.267 . S
O135 Zn121 1.965 . S
O135 C139 1.260 . S
O136 Zn120 1.969 . S
O136 C139 1.258 . S
O137 Zn121 2.024 . S
O137 C124 1.058 . S
C138 O127 1.260 . S
C138 O128 1.258 . S
C139 O135 1.260 . S
C139 O136 1.258 . S
Zn140 O146 1.969 . S
Zn140 O147 1.965 . S
Zn140 O151 2.024 . S
Zn140 O156 1.969 . S
Zn141 O148 1.969 . S
Zn141 O154 1.969 . S
Zn141 O155 1.965 . S
Zn141 O157 2.024 . S
C142 O143 1.229 . S
C142 O151 1.058 . S
O143 C142 1.229 . S
C144 O145 1.229 . S
C144 O157 1.058 . S
O145 C144 1.229 . S
O146 Zn140 1.969 . S
O146 C149 1.267 . S
O147 Zn140 1.965 . S
O147 C158 1.260 . S
O148 Zn141 1.969 . S
O148 C158 1.258 . S
C149 O146 1.267 . S
C149 O150 1.228 . S
O150 C149 1.228 . S
O151 Zn140 2.024 . S
O151 C142 1.058 . S
C152 O153 1.228 . S
C152 O154 1.267 . S
O153 C152 1.228 . S
O154 Zn141 1.969 . S
O154 C152 1.267 . S
O155 Zn141 1.965 . S
O155 C159 1.260 . S
O156 Zn140 1.969 . S
O156 C159 1.258 . S
O157 Zn141 2.024 . S
O157 C144 1.058 . S
C158 O147 1.260 . S
C158 O148 1.258 . S
C159 O155 1.260 . S
C159 O156 1.258 . S
Zn160 O166 1.969 . S
Zn160 O167 1.965 . S
Zn160 O171 2.024 . S
Zn160 O176 1.969 . S
Zn161 O168 1.969 . S
Zn161 O174 1.969 . S
Zn161 O175 1.965 . S
Zn161 O177 2.024 . S
C162 O163 1.229 . S
C162 O171 1.058 . S
O163 C162 1.229 . S
C164 O165 1.229 . S
C164 O177 1.058 . S
O165 C164 1.229 . S
O166 Zn160 1.969 . S
O166 C169 1.267 . S
O167 Zn160 1.965 . S
O167 C178 1.260 . S
O168 Zn161 1.969 . S
O168 C178 1.258 . S
C169 O166 1.267 . S
C169 O170 1.228 . S
O170 C169 1.228 . S
O171 Zn160 2.024 . S
O171 C162 1.058 . S
C172 O173 1.228 . S
C172 O174 1.267 . S
O173 C172 1.228 . S
O174 Zn161 1.969 . S
O174 C172 1.267 . S
O175 Zn161 1.965 . S
O175 C179 1.260 . S
O176 Zn160 1.969 . S
O176 C179 1.258 . S
O177 Zn161 2.024 . S
O177 C164 1.058 . S
C178 O167 1.260 . S
C178 O168 1.258 . S
C179 O175 1.260 . S
C179 O176 1.258 . S
Zn180 O186 1.969 . S
Zn180 O187 1.965 . S
Zn180 O191 2.024 . S
Zn180 O196 1.969 . S
Zn181 O188 1.969 . S
Zn181 O194 1.969 . S
Zn181 O195 1.965 . S
Zn181 O197 2.024 . S
C182 O183 1.229 . S
C182 O191 1.058 . S
O183 C182 1.229 . S
C184 O185 1.229 . S
C184 O197 1.058 . S
O185 C184 1.229 . S
O186 Zn180 1.969 . S
O186 C189 1.267 . S
O187 Zn180 1.965 . S
O187 C198 1.260 . S
O188 Zn181 1.969 . S
O188 C198 1.258 . S
C189 O186 1.267 . S
C189 O190 1.228 . S
O190 C189 1.228 . S
O191 Zn180 2.024 . S
O191 C182 1.058 . S
C192 O193 1.228 . S
C192 O194 1.267 . S
O193 C192 1.228 . S
O194 Zn181 1.969 . S
O194 C192 1.267 . S
O195 Zn181 1.965 . S
O195 C199 1.260 . S
O196 Zn180 1.969 . S
O196 C199 1.258 . S
O197 Zn181 2.024 . S
O197 C184 1.058 . S
C198 O187 1.260 . S
C198 O188 1.258 . S
C199 O195 1.260 . S
C199 O196 1.258 . S
Zn200 O206 1.969 . S
Zn200 O207 1.965 . S
Zn200 O211 2.024 . S
Zn200 O216 1.969 . S
Zn201 O208 1.969 . S
Zn201 O214 1.969 . S
Zn201 O215 1.965 . S
Zn201 O217 2.024 . S
C202 O203 1.229 . S
C202 O211 1.058 . S
O203 C202 1.229 . S
C204 O205 1.229 . S
C204 O217 1.058 . S
O205 C204 1.229 . S
O206 Zn200 1.969 . S
O206 C209 1.267 . S
O207 Zn200 1.965 . S
O207 C218 1.260 . S
O208 Zn201 1.969 . S
O208 C218 1.258 . S
C209 O206 1.267 . S
C209 O210 1.228 . S
O210 C209 1.228 . S
O211 Zn200 2.024 . S
O211 C202 1.058 . S
C212 O213 1.228 . S
C212 O214 1.267 . S
O213 C212 1.228 . S
O214 Zn201 1.969 . S
O214 C212 1.267 . S
O215 Zn201 1.965 . S
O215 C219 1.260 . S
O216 Zn200 1.969 . S
O216 C219 1.258 . S
O217 Zn201 2.024 . S
O217 C204 1.058 . S
C218 O207 1.260 . S
C218 O208 1.258 . S
C219 O215 1.260 . S
C219 O216 1.258 . S
Zn220 O226 1.969 . S
Zn220 O227 1.965 . S
Zn220 O231 2.024 . S
Zn220 O236 1.969 . S
Zn221 O228 1.969 . S
Zn221 O234 1.969 . S
Zn221 O235 1.965 . S
Zn221 O237 2.024 . S
C222 O223 1.229 . S
C222 O231 1.058 . S
O223 C222 1.229 . S
C224 O225 1.229 . S
C224 O237 1.058 . S
O225 C224 1.229 . S
O226 Zn220 1.969 . S
O226 C229 1.267 . S
O227 Zn220 1.965 . S
O227 C238 1.260 . S
O228 Zn221 1.969 . S
O228 C238 1.258 . S
C229 O226 1.267 . S
C229 O230 1.228 . S
O230 C229 1.228 . S
O231 Zn220 2.024 . S
O231 C222 1.058 . S
C232 O233 1.228 . S
C232 O234 1.267 . S
O233 C232 1.228 . S
O234 Zn221 1.969 . S
O234 C232 1.267 . S
O235 Zn221 1.965 . S
O235 C239 1.260 . S
O236 Zn220 1.969 . S
O236 C239 1.258 . S
O237 Zn221 2.024 . S
O237 C224 1.058 . S
C238 O227 1.260 . S
C238 O228 1.258 . S
C239 O235 1.260 . S
C239 O236 1.258 . S
H240 C248 0.929 . S
H241 C250 0.930 1_545 S
H242 C252 0.930 . S
H243 C255 0.929 . S
H244 C258 0.930 . S
H245 C260 0.960 . S
H246 C260 0.960 . S
H247 C260 0.960 1_565 S
C248 H240 0.929 . S
C248 C249 1.377 . S
C248 C250 1.384 . S
C249 C248 1.377 . S
C249 C255 1.390 . S
C250 H241 0.930 1_565 S
C250 C248 1.384 . S
C250 C251 1.372 . S
C251 C250 1.372 . S
C251 C252 1.400 . S
C251 C256 1.490 1_565 S
C252 H242 0.930 . S
C252 C251 1.400 . S
C252 C255 1.386 . S
H253 C269 0.930 . S
H254 C270 0.931 . S
C255 H243 0.929 . S
C255 C249 1.390 . S
C255 C252 1.386 . S
C256 C251 1.490 1_545 S
C256 C258 1.395 . S
C256 C259 1.403 . S
H257 C263 0.930 . S
C258 H244 0.930 . S
C258 C256 1.395 . S
C258 C261 1.403 . S
C259 C256 1.403 . S
C259 C260 1.524 . S
C259 C263 1.400 . S
C260 H245 0.960 . S
C260 H246 0.960 . S
C260 H247 0.960 1_545 S
C260 C259 1.524 . S
C261 C258 1.403 . S
C261 C262 1.392 . S
C261 C265 1.495 . S
C262 C261 1.392 . S
C262 C263 1.385 . S
C262 C264 1.478 . S
C263 H257 0.930 . S
C263 C259 1.400 . S
C263 C262 1.385 . S
C264 C262 1.478 . S
C264 C266 1.381 . S
C264 C270 1.383 . S
C265 C261 1.495 . S
C265 H271 0.959 . S
C265 H272 0.961 . S
C265 H273 0.960 . S
C266 C264 1.381 . S
C266 C267 1.394 . S
C266 H274 0.930 . S
C267 C266 1.394 . S
C267 C268 1.383 . S
C267 H275 0.929 . S
C268 C267 1.383 . S
C268 C269 1.377 . S
C269 H253 0.930 . S
C269 C268 1.377 . S
C269 C270 1.379 . S
C270 H254 0.931 . S
C270 C264 1.383 . S
C270 C269 1.379 . S
H271 C265 0.959 . S
H272 C265 0.961 . S
H273 C265 0.960 . S
H274 C266 0.930 . S
H275 C267 0.929 . S
H276 C284 0.929 . S
H277 C286 0.930 . S
H278 C288 0.930 . S
H279 C291 0.929 . S
H280 C294 0.930 . S
H281 C296 0.960 . S
H282 C296 0.960 . S
H283 C296 0.960 . S
C284 H276 0.929 . S
C284 C285 1.377 . S
C284 C286 1.384 . S
C285 C284 1.377 . S
C285 C291 1.390 . S
C286 H277 0.930 . S
C286 C284 1.384 . S
C286 C287 1.372 . S
C287 C286 1.372 . S
C287 C288 1.400 . S
C287 C292 1.490 . S
C288 H278 0.930 . S
C288 C287 1.400 . S
C288 C291 1.386 . S
H289 C305 0.930 . S
H290 C306 0.931 . S
C291 H279 0.929 . S
C291 C285 1.390 . S
C291 C288 1.386 . S
C292 C287 1.490 . S
C292 C294 1.395 . S
C292 C295 1.403 . S
H293 C299 0.930 . S
C294 H280 0.930 . S
C294 C292 1.395 . S
C294 C297 1.403 . S
C295 C292 1.403 . S
C295 C296 1.524 . S
C295 C299 1.400 . S
C296 H281 0.960 . S
C296 H282 0.960 . S
C296 H283 0.960 . S
C296 C295 1.524 . S
C297 C294 1.403 . S
C297 C298 1.392 . S
C297 C301 1.495 . S
C298 C297 1.392 . S
C298 C299 1.385 . S
C298 C300 1.478 . S
C299 H293 0.930 . S
C299 C295 1.400 . S
C299 C298 1.385 . S
C300 C298 1.478 . S
C300 C302 1.381 . S
C300 C306 1.383 . S
C301 C297 1.495 . S
C301 H307 0.959 . S
C301 H308 0.961 . S
C301 H309 0.960 . S
C302 C300 1.381 . S
C302 C303 1.394 1_455 S
C302 H310 0.930 . S
C303 C302 1.394 1_655 S
C303 C304 1.383 . S
C303 H311 0.929 . S
C304 C303 1.383 . S
C304 C305 1.377 1_655 S
C305 H289 0.930 . S
C305 C304 1.377 1_455 S
C305 C306 1.379 . S
C306 H290 0.931 . S
C306 C300 1.383 . S
C306 C305 1.379 . S
H307 C301 0.959 . S
H308 C301 0.961 . S
H309 C301 0.960 . S
H310 C302 0.930 . S
H311 C303 0.929 . S
H312 C320 0.929 . S
H313 C322 0.930 . S
H314 C324 0.930 . S
H315 C327 0.929 . S
H316 C330 0.930 . S
H317 C332 0.960 . S
H318 C332 0.960 . S
H319 C332 0.960 . S
C320 H312 0.929 . S
C320 C321 1.377 . S
C320 C322 1.384 1_565 S
C321 C320 1.377 . S
C321 C327 1.390 1_565 S
C322 H313 0.930 . S
C322 C320 1.384 1_545 S
C322 C323 1.372 . S
C323 C322 1.372 . S
C323 C324 1.400 . S
C323 C328 1.490 . S
C324 H314 0.930 . S
C324 C323 1.400 . S
C324 C327 1.386 . S
H325 C341 0.930 . S
H326 C342 0.931 1_655 S
C327 H315 0.929 . S
C327 C321 1.390 1_545 S
C327 C324 1.386 . S
C328 C323 1.490 . S
C328 C330 1.395 . S
C328 C331 1.403 . S
H329 C335 0.930 . S
C330 H316 0.930 . S
C330 C328 1.395 . S
C330 C333 1.403 . S
C331 C328 1.403 . S
C331 C332 1.524 . S
C331 C335 1.400 . S
C332 H317 0.960 . S
C332 H318 0.960 . S
C332 H319 0.960 . S
C332 C331 1.524 . S
C333 C330 1.403 . S
C333 C334 1.392 . S
C333 C337 1.495 . S
C334 C333 1.392 . S
C334 C335 1.385 . S
C334 C336 1.478 1_655 S
C335 H329 0.930 . S
C335 C331 1.400 . S
C335 C334 1.385 . S
C336 C334 1.478 1_455 S
C336 C338 1.381 . S
C336 C342 1.383 . S
C337 C333 1.495 . S
C337 H343 0.959 . S
C337 H344 0.961 . S
C337 H345 0.960 . S
C338 C336 1.381 . S
C338 C339 1.394 . S
C338 H346 0.930 . S
C339 C338 1.394 . S
C339 C340 1.383 . S
C339 H347 0.929 . S
C340 C339 1.383 . S
C340 C341 1.377 . S
C341 H325 0.930 . S
C341 C340 1.377 . S
C341 C342 1.379 . S
C342 H326 0.931 1_455 S
C342 C336 1.383 . S
C342 C341 1.379 . S
H343 C337 0.959 . S
H344 C337 0.961 . S
H345 C337 0.960 . S
H346 C338 0.930 . S
H347 C339 0.929 . S
H348 C356 0.929 . S
H349 C358 0.930 . S
H350 C360 0.930 . S
H351 C363 0.929 . S
H352 C366 0.930 . S
H353 C368 0.960 . S
H354 C368 0.960 . S
H355 C368 0.960 . S
C356 H348 0.929 . S
C356 C357 1.377 . S
C356 C358 1.384 . S
C357 C356 1.377 . S
C357 C363 1.390 . S
C358 H349 0.930 . S
C358 C356 1.384 . S
C358 C359 1.372 . S
C359 C358 1.372 . S
C359 C360 1.400 . S
C359 C364 1.490 . S
C360 H350 0.930 . S
C360 C359 1.400 . S
C360 C363 1.386 . S
H361 C377 0.930 . S
H362 C378 0.931 1_565 S
C363 H351 0.929 . S
C363 C357 1.390 . S
C363 C360 1.386 . S
C364 C359 1.490 . S
C364 C366 1.395 . S
C364 C367 1.403 . S
H365 C371 0.930 . S
C366 H352 0.930 . S
C366 C364 1.395 . S
C366 C369 1.403 . S
C367 C364 1.403 . S
C367 C368 1.524 . S
C367 C371 1.400 . S
C368 H353 0.960 . S
C368 H354 0.960 . S
C368 H355 0.960 . S
C368 C367 1.524 . S
C369 C366 1.403 . S
C369 C370 1.392 . S
C369 C373 1.495 . S
C370 C369 1.392 . S
C370 C371 1.385 . S
C370 C372 1.478 1_565 S
C371 H365 0.930 . S
C371 C367 1.400 . S
C371 C370 1.385 . S
C372 C370 1.478 1_545 S
C372 C374 1.381 . S
C372 C378 1.383 . S
C373 C369 1.495 . S
C373 H379 0.959 . S
C373 H380 0.961 . S
C373 H381 0.960 . S
C374 C372 1.381 . S
C374 C375 1.394 . S
C374 H382 0.930 . S
C375 C374 1.394 . S
C375 C376 1.383 . S
C375 H383 0.929 . S
C376 C375 1.383 . S
C376 C377 1.377 . S
C377 H361 0.930 . S
C377 C376 1.377 . S
C377 C378 1.379 . S
C378 H362 0.931 1_545 S
C378 C372 1.383 . S
C378 C377 1.379 . S
H379 C373 0.959 . S
H380 C373 0.961 . S
H381 C373 0.960 . S
H382 C374 0.930 . S
H383 C375 0.929 . S
H384 C392 0.929 . S
H385 C394 0.930 . S
H386 C396 0.930 . S
H387 C399 0.929 . S
H388 C402 0.930 . S
H389 C404 0.960 . S
H390 C404 0.960 . S
H391 C404 0.960 . S
C392 H384 0.929 . S
C392 C393 1.377 1_655 S
C392 C394 1.384 . S
C393 C392 1.377 1_455 S
C393 C399 1.390 . S
C394 H385 0.930 . S
C394 C392 1.384 . S
C394 C395 1.372 . S
C395 C394 1.372 . S
C395 C396 1.400 . S
C395 C400 1.490 . S
C396 H386 0.930 . S
C396 C395 1.400 . S
C396 C399 1.386 1_655 S
H397 C413 0.930 . S
H398 C414 0.931 . S
C399 H387 0.929 . S
C399 C393 1.390 . S
C399 C396 1.386 1_455 S
C400 C395 1.490 . S
C400 C402 1.395 . S
C400 C403 1.403 . S
H401 C407 0.930 . S
C402 H388 0.930 . S
C402 C400 1.395 . S
C402 C405 1.403 . S
C403 C400 1.403 . S
C403 C404 1.524 . S
C403 C407 1.400 . S
C404 H389 0.960 . S
C404 H390 0.960 . S
C404 H391 0.960 . S
C404 C403 1.524 . S
C405 C402 1.403 . S
C405 C406 1.392 . S
C405 C409 1.495 . S
C406 C405 1.392 . S
C406 C407 1.385 . S
C406 C408 1.478 . S
C407 H401 0.930 . S
C407 C403 1.400 . S
C407 C406 1.385 . S
C408 C406 1.478 . S
C408 C410 1.381 . S
C408 C414 1.383 . S
C409 C405 1.495 . S
C409 H415 0.959 . S
C409 H416 0.961 . S
C409 H417 0.960 . S
C410 C408 1.381 . S
C410 C411 1.394 . S
C410 H418 0.930 . S
C411 C410 1.394 . S
C411 C412 1.383 . S
C411 H419 0.929 . S
C412 C411 1.383 . S
C412 C413 1.377 . S
C413 H397 0.930 . S
C413 C412 1.377 . S
C413 C414 1.379 . S
C414 H398 0.931 . S
C414 C408 1.383 . S
C414 C413 1.379 . S
H415 C409 0.959 . S
H416 C409 0.961 . S
H417 C409 0.960 . S
H418 C410 0.930 . S
H419 C411 0.929 . S
H420 C428 0.929 . S
H421 C430 0.930 . S
H422 C432 0.930 1_455 S
H423 C435 0.929 . S
H424 C438 0.930 . S
H425 C440 0.960 . S
H426 C440 0.960 . S
H427 C440 0.960 . S
C428 H420 0.929 . S
C428 C429 1.377 . S
C428 C430 1.384 . S
C429 C428 1.377 . S
C429 C435 1.390 . S
C430 H421 0.930 . S
C430 C428 1.384 . S
C430 C431 1.372 . S
C431 C430 1.372 . S
C431 C432 1.400 . S
C431 C436 1.490 1_655 S
C432 H422 0.930 1_655 S
C432 C431 1.400 . S
C432 C435 1.386 . S
H433 C449 0.930 . S
H434 C450 0.931 . S
C435 H423 0.929 . S
C435 C429 1.390 . S
C435 C432 1.386 . S
C436 C431 1.490 1_455 S
C436 C438 1.395 . S
C436 C439 1.403 . S
H437 C443 0.930 . S
C438 H424 0.930 . S
C438 C436 1.395 . S
C438 C441 1.403 . S
C439 C436 1.403 . S
C439 C440 1.524 . S
C439 C443 1.400 . S
C440 H425 0.960 . S
C440 H426 0.960 . S
C440 H427 0.960 . S
C440 C439 1.524 . S
C441 C438 1.403 . S
C441 C442 1.392 . S
C441 C445 1.495 . S
C442 C441 1.392 . S
C442 C443 1.385 . S
C442 C444 1.478 . S
C443 H437 0.930 . S
C443 C439 1.400 . S
C443 C442 1.385 . S
C444 C442 1.478 . S
C444 C446 1.381 . S
C444 C450 1.383 . S
C445 C441 1.495 . S
C445 H451 0.959 . S
C445 H452 0.961 . S
C445 H453 0.960 . S
C446 C444 1.381 . S
C446 C447 1.394 1_565 S
C446 H454 0.930 . S
C447 C446 1.394 1_545 S
C447 C448 1.383 . S
C447 H455 0.929 . S
C448 C447 1.383 . S
C448 C449 1.377 1_545 S
C449 H433 0.930 . S
C449 C448 1.377 1_565 S
C449 C450 1.379 . S
C450 H434 0.931 . S
C450 C444 1.383 . S
C450 C449 1.379 . S
H451 C445 0.959 . S
H452 C445 0.961 . S
H453 C445 0.960 . S
H454 C446 0.930 . S
H455 C447 0.929 . S
H456 C464 0.929 . S
H457 C466 0.930 1_655 S
H458 C468 0.930 . S
H459 C471 0.929 . S
H460 C474 0.930 . S
H461 C476 0.960 . S
H462 C476 0.960 . S
H463 C476 0.960 1_455 S
C464 H456 0.929 . S
C464 C465 1.377 . S
C464 C466 1.384 . S
C465 C464 1.377 . S
C465 C471 1.390 . S
C466 H457 0.930 1_455 S
C466 C464 1.384 . S
C466 C467 1.372 . S
C467 C466 1.372 . S
C467 C468 1.400 . S
C467 C472 1.490 1_455 S
C468 H458 0.930 . S
C468 C467 1.400 . S
C468 C471 1.386 . S
H469 C485 0.930 . S
H470 C486 0.931 . S
C471 H459 0.929 . S
C471 C465 1.390 . S
C471 C468 1.386 . S
C472 C467 1.490 1_655 S
C472 C474 1.395 . S
C472 C475 1.403 . S
H473 C479 0.930 . S
C474 H460 0.930 . S
C474 C472 1.395 . S
C474 C477 1.403 . S
C475 C472 1.403 . S
C475 C476 1.524 . S
C475 C479 1.400 . S
C476 H461 0.960 . S
C476 H462 0.960 . S
C476 H463 0.960 1_655 S
C476 C475 1.524 . S
C477 C474 1.403 . S
C477 C478 1.392 . S
C477 C481 1.495 . S
C478 C477 1.392 . S
C478 C479 1.385 . S
C478 C480 1.478 . S
C479 H473 0.930 . S
C479 C475 1.400 . S
C479 C478 1.385 . S
C480 C478 1.478 . S
C480 C482 1.381 . S
C480 C486 1.383 . S
C481 C477 1.495 . S
C481 H487 0.959 . S
C481 H488 0.961 . S
C481 H489 0.960 . S
C482 C480 1.381 . S
C482 C483 1.394 . S
C482 H490 0.930 . S
C483 C482 1.394 . S
C483 C484 1.383 . S
C483 H491 0.929 . S
C484 C483 1.383 . S
C484 C485 1.377 . S
C485 H469 0.930 . S
C485 C484 1.377 . S
C485 C486 1.379 . S
C486 H470 0.931 . S
C486 C480 1.383 . S
C486 C485 1.379 . S
H487 C481 0.959 . S
H488 C481 0.961 . S
H489 C481 0.960 . S
H490 C482 0.930 . S
H491 C483 0.929 . S
H492 C500 0.929 . S
H493 C502 0.930 . S
H494 C504 0.930 . S
H495 C507 0.929 . S
H496 C510 0.930 . S
H497 C512 0.960 . S
H498 C512 0.960 . S
H499 C512 0.960 . S
C500 H492 0.929 . S
C500 C501 1.377 . S
C500 C502 1.384 1_655 S
C501 C500 1.377 . S
C501 C507 1.390 1_655 S
C502 H493 0.930 . S
C502 C500 1.384 1_455 S
C502 C503 1.372 . S
C503 C502 1.372 . S
C503 C504 1.400 . S
C503 C508 1.490 . S
C504 H494 0.930 . S
C504 C503 1.400 . S
C504 C507 1.386 . S
H505 C521 0.930 . S
H506 C522 0.931 1_565 S
C507 H495 0.929 . S
C507 C501 1.390 1_455 S
C507 C504 1.386 . S
C508 C503 1.490 . S
C508 C510 1.395 . S
C508 C511 1.403 . S
H509 C515 0.930 . S
C510 H496 0.930 . S
C510 C508 1.395 . S
C510 C513 1.403 . S
C511 C508 1.403 . S
C511 C512 1.524 . S
C511 C515 1.400 . S
C512 H497 0.960 . S
C512 H498 0.960 . S
C512 H499 0.960 . S
C512 C511 1.524 . S
C513 C510 1.403 . S
C513 C514 1.392 . S
C513 C517 1.495 . S
C514 C513 1.392 . S
C514 C515 1.385 . S
C514 C516 1.478 1_565 S
C515 H509 0.930 . S
C515 C511 1.400 . S
C515 C514 1.385 . S
C516 C514 1.478 1_545 S
C516 C518 1.381 . S
C516 C522 1.383 . S
C517 C513 1.495 . S
C517 H523 0.959 . S
C517 H524 0.961 . S
C517 H525 0.960 . S
C518 C516 1.381 . S
C518 C519 1.394 . S
C518 H526 0.930 . S
C519 C518 1.394 . S
C519 C520 1.383 . S
C519 H527 0.929 . S
C520 C519 1.383 . S
C520 C521 1.377 . S
C521 H505 0.930 . S
C521 C520 1.377 . S
C521 C522 1.379 . S
C522 H506 0.931 1_545 S
C522 C516 1.383 . S
C522 C521 1.379 . S
H523 C517 0.959 . S
H524 C517 0.961 . S
H525 C517 0.960 . S
H526 C518 0.930 . S
H527 C519 0.929 . S
H528 C536 0.929 . S
H529 C538 0.930 . S
H530 C540 0.930 . S
H531 C543 0.929 . S
H532 C546 0.930 . S
H533 C548 0.960 . S
H534 C548 0.960 . S
H535 C548 0.960 . S
C536 H528 0.929 . S
C536 C537 1.377 . S
C536 C538 1.384 . S
C537 C536 1.377 . S
C537 C543 1.390 . S
C538 H529 0.930 . S
C538 C536 1.384 . S
C538 C539 1.372 . S
C539 C538 1.372 . S
C539 C540 1.400 . S
C539 C544 1.490 . S
C540 H530 0.930 . S
C540 C539 1.400 . S
C540 C543 1.386 . S
H541 C557 0.930 . S
H542 C558 0.931 . S
C543 H531 0.929 . S
C543 C537 1.390 . S
C543 C540 1.386 . S
C544 C539 1.490 . S
C544 C546 1.395 . S
C544 C547 1.403 . S
H545 C551 0.930 . S
C546 H532 0.930 . S
C546 C544 1.395 . S
C546 C549 1.403 . S
C547 C544 1.403 . S
C547 C548 1.524 . S
C547 C551 1.400 . S
C548 H533 0.960 . S
C548 H534 0.960 . S
C548 H535 0.960 . S
C548 C547 1.524 . S
C549 C546 1.403 . S
C549 C550 1.392 . S
C549 C553 1.495 . S
C550 C549 1.392 . S
C550 C551 1.385 . S
C550 C552 1.478 . S
C551 H545 0.930 . S
C551 C547 1.400 . S
C551 C550 1.385 . S
C552 C550 1.478 . S
C552 C554 1.381 . S
C552 C558 1.383 . S
C553 C549 1.495 . S
C553 H559 0.959 . S
C553 H560 0.961 . S
C553 H561 0.960 . S
C554 C552 1.381 . S
C554 C555 1.394 . S
C554 H562 0.930 . S
C555 C554 1.394 . S
C555 C556 1.383 1_545 S
C555 H563 0.929 . S
C556 C555 1.383 1_565 S
C556 C557 1.377 . S
C557 H541 0.930 . S
C557 C556 1.377 . S
C557 C558 1.379 1_565 S
C558 H542 0.931 . S
C558 C552 1.383 . S
C558 C557 1.379 1_545 S
H559 C553 0.959 . S
H560 C553 0.961 . S
H561 C553 0.960 . S
H562 C554 0.930 . S
H563 C555 0.929 . S
H564 C572 0.929 . S
H565 C574 0.930 . S
H566 C576 0.930 . S
H567 C579 0.929 . S
H568 C582 0.930 . S
H569 C584 0.960 . S
H570 C584 0.960 . S
H571 C584 0.960 . S
C572 H564 0.929 . S
C572 C573 1.377 . S
C572 C574 1.384 . S
C573 C572 1.377 . S
C573 C579 1.390 . S
C574 H565 0.930 . S
C574 C572 1.384 . S
C574 C575 1.372 . S
C575 C574 1.372 . S
C575 C576 1.400 . S
C575 C580 1.490 . S
C576 H566 0.930 . S
C576 C575 1.400 . S
C576 C579 1.386 . S
H577 C593 0.930 . S
H578 C594 0.931 . S
C579 H567 0.929 . S
C579 C573 1.390 . S
C579 C576 1.386 . S
C580 C575 1.490 . S
C580 C582 1.395 . S
C580 C583 1.403 . S
H581 C587 0.930 . S
C582 H568 0.930 . S
C582 C580 1.395 . S
C582 C585 1.403 . S
C583 C580 1.403 . S
C583 C584 1.524 . S
C583 C587 1.400 . S
C584 H569 0.960 . S
C584 H570 0.960 . S
C584 H571 0.960 . S
C584 C583 1.524 . S
C585 C582 1.403 . S
C585 C586 1.392 . S
C585 C589 1.495 . S
C586 C585 1.392 . S
C586 C587 1.385 . S
C586 C588 1.478 1_455 S
C587 H581 0.930 . S
C587 C583 1.400 . S
C587 C586 1.385 . S
C588 C586 1.478 1_655 S
C588 C590 1.381 . S
C588 C594 1.383 . S
C589 C585 1.495 . S
C589 H595 0.959 . S
C589 H596 0.961 . S
C589 H597 0.960 . S
C590 C588 1.381 . S
C590 C591 1.394 . S
C590 H598 0.930 1_655 S
C591 C590 1.394 . S
C591 C592 1.383 . S
C591 H599 0.929 . S
C592 C591 1.383 . S
C592 C593 1.377 . S
C593 H577 0.930 . S
C593 C592 1.377 . S
C593 C594 1.379 . S
C594 H578 0.931 . S
C594 C588 1.383 . S
C594 C593 1.379 . S
H595 C589 0.959 . S
H596 C589 0.961 . S
H597 C589 0.960 . S
H598 C590 0.930 1_455 S
H599 C591 0.929 . S
H600 C608 0.929 . S
H601 C610 0.930 . S
H602 C612 0.930 . S
H603 C615 0.929 . S
H604 C618 0.930 . S
H605 C620 0.960 . S
H606 C620 0.960 . S
H607 C620 0.960 . S
C608 H600 0.929 . S
C608 C609 1.377 . S
C608 C610 1.384 1_455 S
C609 C608 1.377 . S
C609 C615 1.390 1_455 S
C610 H601 0.930 . S
C610 C608 1.384 1_655 S
C610 C611 1.372 . S
C611 C610 1.372 . S
C611 C612 1.400 . S
C611 C616 1.490 . S
C612 H602 0.930 . S
C612 C611 1.400 . S
C612 C615 1.386 . S
H613 C629 0.930 . S
H614 C630 0.912 1_545 S
C615 H603 0.929 . S
C615 C609 1.390 1_655 S
C615 C612 1.386 . S
C616 C611 1.490 . S
C616 C618 1.395 . S
C616 C619 1.403 . S
H617 C623 0.930 . S
C618 H604 0.930 . S
C618 C616 1.395 . S
C618 C621 1.403 . S
C619 C616 1.403 . S
C619 C620 1.524 . S
C619 C623 1.400 . S
C620 H605 0.960 . S
C620 H606 0.960 . S
C620 H607 0.960 . S
C620 C619 1.524 . S
C621 C618 1.403 . S
C621 C622 1.392 . S
C621 C625 1.495 . S
C622 C621 1.392 . S
C622 C623 1.385 . S
C622 C624 1.478 1_545 S
C623 H617 0.930 . S
C623 C619 1.400 . S
C623 C622 1.385 . S
C624 C622 1.478 1_565 S
C624 C626 1.381 . S
C624 C630 1.383 . S
C625 C621 1.495 . S
C625 H631 0.959 . S
C625 H632 0.961 1_545 S
C625 H633 0.960 1_545 S
C626 C624 1.381 . S
C626 C627 1.394 . S
C626 H634 0.930 . S
C627 C626 1.394 . S
C627 C628 1.383 . S
C627 H635 0.929 . S
C628 C627 1.383 . S
C628 C629 1.377 . S
C629 H613 0.930 . S
C629 C628 1.377 . S
C629 C630 1.379 . S
C630 H614 0.912 1_565 S
C630 C624 1.383 . S
C630 C629 1.379 . S
H631 C625 0.959 . S
H632 C625 0.961 1_565 S
H633 C625 0.960 1_565 S
H634 C626 0.930 . S
H635 C627 0.929 . S
H636 C644 0.929 . S
H637 C646 0.930 . S
H638 C648 0.930 . S
H639 C651 0.929 . S
H640 C654 0.930 . S
H641 C656 0.960 . S
H642 C656 0.960 . S
H643 C656 0.960 . S
C644 H636 0.929 . S
C644 C645 1.377 . S
C644 C646 1.384 . S
C645 C644 1.377 . S
C645 C651 1.390 . S
C646 H637 0.930 . S
C646 C644 1.384 . S
C646 C647 1.372 . S
C647 C646 1.372 . S
C647 C648 1.400 . S
C647 C652 1.490 . S
C648 H638 0.930 . S
C648 C647 1.400 . S
C648 C651 1.386 . S
H649 C665 0.930 . S
H650 C666 0.931 . S
C651 H639 0.929 . S
C651 C645 1.390 . S
C651 C648 1.386 . S
C652 C647 1.490 . S
C652 C654 1.395 . S
C652 C655 1.403 . S
H653 C659 0.930 . S
C654 H640 0.930 . S
C654 C652 1.395 . S
C654 C657 1.403 . S
C655 C652 1.403 . S
C655 C656 1.524 . S
C655 C659 1.400 . S
C656 H641 0.960 . S
C656 H642 0.960 . S
C656 H643 0.960 . S
C656 C655 1.524 . S
C657 C654 1.403 . S
C657 C658 1.392 . S
C657 C661 1.495 . S
C658 C657 1.392 . S
C658 C659 1.385 . S
C658 C660 1.478 . S
C659 H653 0.930 . S
C659 C655 1.400 . S
C659 C658 1.385 . S
C660 C658 1.478 . S
C660 C662 1.381 . S
C660 C666 1.383 . S
C661 C657 1.495 . S
C661 H667 0.959 . S
C661 H668 0.961 . S
C661 H669 0.960 . S
C662 C660 1.381 . S
C662 C663 1.394 1_565 S
C662 H670 0.930 . S
C663 C662 1.394 1_545 S
C663 C664 1.383 . S
C663 H671 0.929 . S
C664 C663 1.383 . S
C664 C665 1.377 1_545 S
C665 H649 0.930 . S
C665 C664 1.377 1_565 S
C665 C666 1.379 . S
C666 H650 0.931 . S
C666 C660 1.383 . S
C666 C665 1.379 . S
H667 C661 0.959 . S
H668 C661 0.961 . S
H669 C661 0.960 . S
H670 C662 0.930 . S
H671 C663 0.929 . S
H672 C680 0.929 . S
H673 C682 0.930 . S
H674 C684 0.930 . S
H675 C687 0.929 . S
H676 C690 0.930 . S
H677 C692 0.960 . S
H678 C692 0.960 . S
H679 C692 0.960 . S
C680 H672 0.929 . S
C680 C681 1.377 . S
C680 C682 1.384 . S
C681 C680 1.377 . S
C681 C687 1.390 . S
C682 H673 0.930 . S
C682 C680 1.384 . S
C682 C683 1.372 . S
C683 C682 1.372 . S
C683 C684 1.400 . S
C683 C688 1.490 . S
C684 H674 0.930 . S
C684 C683 1.400 . S
C684 C687 1.386 . S
H685 C701 0.930 . S
H686 C702 0.931 . S
C687 H675 0.929 . S
C687 C681 1.390 . S
C687 C684 1.386 . S
C688 C683 1.490 . S
C688 C690 1.395 . S
C688 C691 1.403 . S
H689 C695 0.930 . S
C690 H676 0.930 . S
C690 C688 1.395 . S
C690 C693 1.403 . S
C691 C688 1.403 . S
C691 C692 1.524 . S
C691 C695 1.400 . S
C692 H677 0.960 . S
C692 H678 0.960 . S
C692 H679 0.960 . S
C692 C691 1.524 . S
C693 C690 1.403 . S
C693 C694 1.392 . S
C693 C697 1.495 . S
C694 C693 1.392 . S
C694 C695 1.385 . S
C694 C696 1.478 . S
C695 H689 0.930 . S
C695 C691 1.400 . S
C695 C694 1.385 . S
C696 C694 1.478 . S
C696 C698 1.381 . S
C696 C702 1.383 . S
C697 C693 1.495 . S
C697 H703 0.959 . S
C697 H704 0.961 . S
C697 H705 0.960 . S
C698 C696 1.381 . S
C698 C699 1.394 . S
C698 H706 0.930 . S
C699 C698 1.394 . S
C699 C700 1.383 . S
C699 H707 0.929 . S
C700 C699 1.383 . S
C700 C701 1.377 . S
C701 H685 0.930 . S
C701 C700 1.377 . S
C701 C702 1.379 . S
C702 H686 0.931 . S
C702 C696 1.383 . S
C702 C701 1.379 . S
H703 C697 0.959 . S
H704 C697 0.961 . S
H705 C697 0.960 . S
H706 C698 0.930 . S
H707 C699 0.929 . S
H708 C716 0.929 . S
H709 C718 0.930 . S
H710 C720 0.930 . S
H711 C723 0.929 . S
H712 C726 0.930 . S
H713 C728 0.960 . S
H714 C728 0.960 . S
H715 C728 0.960 . S
C716 H708 0.929 . S
C716 C717 1.377 . S
C716 C718 1.384 . S
C717 C716 1.377 . S
C717 C723 1.390 . S
C718 H709 0.930 . S
C718 C716 1.384 . S
C718 C719 1.372 . S
C719 C718 1.372 . S
C719 C720 1.400 . S
C719 C724 1.490 . S
C720 H710 0.930 . S
C720 C719 1.400 . S
C720 C723 1.386 . S
H721 C737 0.930 . S
H722 C738 0.931 . S
C723 H711 0.929 . S
C723 C717 1.390 . S
C723 C720 1.386 . S
C724 C719 1.490 . S
C724 C726 1.395 . S
C724 C727 1.403 . S
H725 C731 0.930 . S
C726 H712 0.930 . S
C726 C724 1.395 . S
C726 C729 1.403 . S
C727 C724 1.403 . S
C727 C728 1.524 . S
C727 C731 1.400 . S
C728 H713 0.960 . S
C728 H714 0.960 . S
C728 H715 0.960 . S
C728 C727 1.524 . S
C729 C726 1.403 . S
C729 C730 1.392 . S
C729 C733 1.495 . S
C730 C729 1.392 . S
C730 C731 1.385 . S
C730 C732 1.478 . S
C731 H725 0.930 . S
C731 C727 1.400 . S
C731 C730 1.385 . S
C732 C730 1.478 . S
C732 C734 1.381 . S
C732 C738 1.383 . S
C733 C729 1.495 . S
C733 H739 0.959 . S
C733 H740 0.961 . S
C733 H741 0.960 . S
C734 C732 1.381 . S
C734 C735 1.394 . S
C734 H742 0.930 . S
C735 C734 1.394 . S
C735 C736 1.383 . S
C735 H743 0.929 . S
C736 C735 1.383 . S
C736 C737 1.377 . S
C737 H721 0.930 . S
C737 C736 1.377 . S
C737 C738 1.379 . S
C738 H722 0.931 . S
C738 C732 1.383 . S
C738 C737 1.379 . S
H739 C733 0.959 . S
H740 C733 0.961 . S
H741 C733 0.960 . S
H742 C734 0.930 . S
H743 C735 0.929 . S
H744 C752 0.929 . S
H745 C754 0.930 . S
H746 C756 0.930 . S
H747 C759 0.929 . S
H748 C762 0.930 . S
H749 C764 0.960 . S
H750 C764 0.960 . S
H751 C764 0.960 . S
C752 H744 0.929 . S
C752 C753 1.377 . S
C752 C754 1.384 . S
C753 C752 1.377 . S
C753 C759 1.390 . S
C754 H745 0.930 . S
C754 C752 1.384 . S
C754 C755 1.372 . S
C755 C754 1.372 . S
C755 C756 1.400 . S
C755 C760 1.490 . S
C756 H746 0.930 . S
C756 C755 1.400 . S
C756 C759 1.386 . S
H757 C773 0.930 . S
H758 C774 0.931 . S
C759 H747 0.929 . S
C759 C753 1.390 . S
C759 C756 1.386 . S
C760 C755 1.490 . S
C760 C762 1.395 . S
C760 C763 1.403 . S
H761 C767 0.930 . S
C762 H748 0.930 . S
C762 C760 1.395 . S
C762 C765 1.403 . S
C763 C760 1.403 . S
C763 C764 1.524 . S
C763 C767 1.400 . S
C764 H749 0.960 . S
C764 H750 0.960 . S
C764 H751 0.960 . S
C764 C763 1.524 . S
C765 C762 1.403 . S
C765 C766 1.392 . S
C765 C769 1.495 . S
C766 C765 1.392 . S
C766 C767 1.385 . S
C766 C768 1.478 . S
C767 H761 0.930 . S
C767 C763 1.400 . S
C767 C766 1.385 . S
C768 C766 1.478 . S
C768 C770 1.381 . S
C768 C774 1.383 . S
C769 C765 1.495 . S
C769 H775 0.959 . S
C769 H776 0.961 . S
C769 H777 0.960 . S
C770 C768 1.381 . S
C770 C771 1.394 . S
C770 H778 0.930 . S
C771 C770 1.394 . S
C771 C772 1.383 . S
C771 H779 0.929 . S
C772 C771 1.383 . S
C772 C773 1.377 . S
C773 H757 0.930 . S
C773 C772 1.377 . S
C773 C774 1.379 . S
C774 H758 0.931 . S
C774 C768 1.383 . S
C774 C773 1.379 . S
H775 C769 0.959 . S
H776 C769 0.961 . S
H777 C769 0.960 . S
H778 C770 0.930 . S
H779 C771 0.929 . S
H780 C788 0.929 . S
H781 C790 0.930 . S
H782 C792 0.930 . S
H783 C795 0.929 . S
H784 C798 0.930 . S
H785 C800 0.960 . S
H786 C800 0.960 . S
H787 C800 0.960 . S
C788 H780 0.929 . S
C788 C789 1.377 . S
C788 C790 1.384 . S
C789 C788 1.377 . S
C789 C795 1.390 . S
C790 H781 0.930 . S
C790 C788 1.384 . S
C790 C791 1.372 . S
C791 C790 1.372 . S
C791 C792 1.400 . S
C791 C796 1.490 . S
C792 H782 0.930 . S
C792 C791 1.400 . S
C792 C795 1.386 . S
H793 C809 0.930 . S
H794 C810 0.931 . S
C795 H783 0.929 . S
C795 C789 1.390 . S
C795 C792 1.386 . S
C796 C791 1.490 . S
C796 C798 1.395 . S
C796 C799 1.403 . S
H797 C803 0.930 . S
C798 H784 0.930 . S
C798 C796 1.395 . S
C798 C801 1.403 . S
C799 C796 1.403 . S
C799 C800 1.524 . S
C799 C803 1.400 . S
C800 H785 0.960 . S
C800 H786 0.960 . S
C800 H787 0.960 . S
C800 C799 1.524 . S
C801 C798 1.403 . S
C801 C802 1.392 . S
C801 C805 1.495 . S
C802 C801 1.392 . S
C802 C803 1.385 . S
C802 C804 1.478 . S
C803 H797 0.930 . S
C803 C799 1.400 . S
C803 C802 1.385 . S
C804 C802 1.478 . S
C804 C806 1.381 . S
C804 C810 1.383 . S
C805 C801 1.495 . S
C805 H811 0.959 . S
C805 H812 0.961 . S
C805 H813 0.960 . S
C806 C804 1.381 . S
C806 C807 1.394 . S
C806 H814 0.930 . S
C807 C806 1.394 . S
C807 C808 1.383 . S
C807 H815 0.929 . S
C808 C807 1.383 . S
C808 C809 1.377 . S
C809 H793 0.930 . S
C809 C808 1.377 . S
C809 C810 1.379 . S
C810 H794 0.931 . S
C810 C804 1.383 . S
C810 C809 1.379 . S
H811 C805 0.959 . S
H812 C805 0.961 . S
H813 C805 0.960 . S
H814 C806 0.930 . S
H815 C807 0.929 . S
H816 C824 0.929 . S
H817 C826 0.930 . S
H818 C828 0.930 . S
H819 C831 0.929 . S
H820 C834 0.930 . S
H821 C836 0.960 . S
H822 C836 0.960 . S
H823 C836 0.960 . S
C824 H816 0.929 . S
C824 C825 1.377 . S
C824 C826 1.384 . S
C825 C824 1.377 . S
C825 C831 1.390 . S
C826 H817 0.930 . S
C826 C824 1.384 . S
C826 C827 1.372 . S
C827 C826 1.372 . S
C827 C828 1.400 . S
C827 C832 1.490 . S
C828 H818 0.930 . S
C828 C827 1.400 . S
C828 C831 1.386 . S
H829 C845 0.930 . S
H830 C846 0.931 . S
C831 H819 0.929 . S
C831 C825 1.390 . S
C831 C828 1.386 . S
C832 C827 1.490 . S
C832 C834 1.395 . S
C832 C835 1.403 . S
H833 C839 0.930 . S
C834 H820 0.930 . S
C834 C832 1.395 . S
C834 C837 1.403 . S
C835 C832 1.403 . S
C835 C836 1.524 . S
C835 C839 1.400 . S
C836 H821 0.960 . S
C836 H822 0.960 . S
C836 H823 0.960 . S
C836 C835 1.524 . S
C837 C834 1.403 . S
C837 C838 1.392 . S
C837 C841 1.495 . S
C838 C837 1.392 . S
C838 C839 1.385 . S
C838 C840 1.478 . S
C839 H833 0.930 . S
C839 C835 1.400 . S
C839 C838 1.385 . S
C840 C838 1.478 . S
C840 C842 1.381 . S
C840 C846 1.383 . S
C841 C837 1.495 . S
C841 H847 0.959 . S
C841 H848 0.961 . S
C841 H849 0.960 . S
C842 C840 1.381 . S
C842 C843 1.394 . S
C842 H850 0.930 . S
C843 C842 1.394 . S
C843 C844 1.383 . S
C843 H851 0.929 . S
C844 C843 1.383 . S
C844 C845 1.377 . S
C845 H829 0.930 . S
C845 C844 1.377 . S
C845 C846 1.379 . S
C846 H830 0.931 . S
C846 C840 1.383 . S
C846 C845 1.379 . S
H847 C841 0.959 . S
H848 C841 0.961 . S
H849 C841 0.960 . S
H850 C842 0.930 . S
H851 C843 0.929 . S
H852 C860 0.929 . S
H853 C862 0.930 . S
H854 C864 0.930 . S
H855 C867 0.929 . S
H856 C870 0.930 . S
H857 C872 0.960 . S
H858 C872 0.960 . S
H859 C872 0.960 . S
C860 H852 0.929 . S
C860 C861 1.377 . S
C860 C862 1.384 . S
C861 C860 1.377 . S
C861 C867 1.390 . S
C862 H853 0.930 . S
C862 C860 1.384 . S
C862 C863 1.372 . S
C863 C862 1.372 . S
C863 C864 1.400 . S
C863 C868 1.490 . S
C864 H854 0.930 . S
C864 C863 1.400 . S
C864 C867 1.386 . S
H865 C881 0.930 . S
H866 C882 0.931 . S
C867 H855 0.929 . S
C867 C861 1.390 . S
C867 C864 1.386 . S
C868 C863 1.490 . S
C868 C870 1.395 . S
C868 C871 1.403 . S
H869 C875 0.930 . S
C870 H856 0.930 . S
C870 C868 1.395 . S
C870 C873 1.403 . S
C871 C868 1.403 . S
C871 C872 1.524 . S
C871 C875 1.400 . S
C872 H857 0.960 . S
C872 H858 0.960 . S
C872 H859 0.960 . S
C872 C871 1.524 . S
C873 C870 1.403 . S
C873 C874 1.392 . S
C873 C877 1.495 . S
C874 C873 1.392 . S
C874 C875 1.385 . S
C874 C876 1.478 . S
C875 H869 0.930 . S
C875 C871 1.400 . S
C875 C874 1.385 . S
C876 C874 1.478 . S
C876 C878 1.381 . S
C876 C882 1.383 . S
C877 C873 1.495 . S
C877 H883 0.959 . S
C877 H884 0.961 . S
C877 H885 0.960 . S
C878 C876 1.381 . S
C878 C879 1.394 . S
C878 H886 0.930 . S
C879 C878 1.394 . S
C879 C880 1.383 . S
C879 H887 0.929 . S
C880 C879 1.383 . S
C880 C881 1.377 . S
C881 H865 0.930 . S
C881 C880 1.377 . S
C881 C882 1.379 . S
C882 H866 0.931 . S
C882 C876 1.383 . S
C882 C881 1.379 . S
H883 C877 0.959 . S
H884 C877 0.961 . S
H885 C877 0.960 . S
H886 C878 0.930 . S
H887 C879 0.929 . S
H888 C896 0.929 . S
H889 C898 0.930 . S
H890 C900 0.930 . S
H891 C903 0.929 . S
H892 C906 0.930 . S
H893 C908 0.960 . S
H894 C908 0.960 . S
H895 C908 0.960 . S
C896 H888 0.929 . S
C896 C897 1.377 . S
C896 C898 1.384 . S
C897 C896 1.377 . S
C897 C903 1.390 . S
C898 H889 0.930 . S
C898 C896 1.384 . S
C898 C899 1.372 . S
C899 C898 1.372 . S
C899 C900 1.400 . S
C899 C904 1.490 . S
C900 H890 0.930 . S
C900 C899 1.400 . S
C900 C903 1.386 . S
H901 C917 0.930 . S
H902 C918 0.931 . S
C903 H891 0.929 . S
C903 C897 1.390 . S
C903 C900 1.386 . S
C904 C899 1.490 . S
C904 C906 1.395 . S
C904 C907 1.403 . S
H905 C911 0.930 . S
C906 H892 0.930 . S
C906 C904 1.395 . S
C906 C909 1.403 . S
C907 C904 1.403 . S
C907 C908 1.524 . S
C907 C911 1.400 . S
C908 H893 0.960 . S
C908 H894 0.960 . S
C908 H895 0.960 . S
C908 C907 1.524 . S
C909 C906 1.403 . S
C909 C910 1.392 . S
C909 C913 1.495 . S
C910 C909 1.392 . S
C910 C911 1.385 . S
C910 C912 1.478 . S
C911 H905 0.930 . S
C911 C907 1.400 . S
C911 C910 1.385 . S
C912 C910 1.478 . S
C912 C914 1.381 . S
C912 C918 1.383 . S
C913 C909 1.495 . S
C913 H919 0.959 . S
C913 H920 0.961 . S
C913 H921 0.960 . S
C914 C912 1.381 . S
C914 C915 1.394 . S
C914 H922 0.930 . S
C915 C914 1.394 . S
C915 C916 1.383 . S
C915 H923 0.929 . S
C916 C915 1.383 . S
C916 C917 1.377 . S
C917 H901 0.930 . S
C917 C916 1.377 . S
C917 C918 1.379 . S
C918 H902 0.931 . S
C918 C912 1.383 . S
C918 C917 1.379 . S
H919 C913 0.959 . S
H920 C913 0.961 . S
H921 C913 0.960 . S
H922 C914 0.930 . S
H923 C915 0.929 . S
H924 C932 0.929 . S
H925 C934 0.930 . S
H926 C936 0.930 . S
H927 C939 0.929 . S
H928 C942 0.930 . S
H929 C944 0.960 . S
H930 C944 0.960 . S
H931 C944 0.960 . S
C932 H924 0.929 . S
C932 C933 1.377 . S
C932 C934 1.384 . S
C933 C932 1.377 . S
C933 C939 1.390 . S
C934 H925 0.930 . S
C934 C932 1.384 . S
C934 C935 1.372 . S
C935 C934 1.372 . S
C935 C936 1.400 . S
C935 C940 1.490 . S
C936 H926 0.930 . S
C936 C935 1.400 . S
C936 C939 1.386 . S
H937 C953 0.930 . S
H938 C954 0.931 . S
C939 H927 0.929 . S
C939 C933 1.390 . S
C939 C936 1.386 . S
C940 C935 1.490 . S
C940 C942 1.395 . S
C940 C943 1.403 . S
H941 C947 0.930 . S
C942 H928 0.930 . S
C942 C940 1.395 . S
C942 C945 1.403 . S
C943 C940 1.403 . S
C943 C944 1.524 . S
C943 C947 1.400 . S
C944 H929 0.960 . S
C944 H930 0.960 . S
C944 H931 0.960 . S
C944 C943 1.524 . S
C945 C942 1.403 . S
C945 C946 1.392 . S
C945 C949 1.495 . S
C946 C945 1.392 . S
C946 C947 1.385 . S
C946 C948 1.478 . S
C947 H941 0.930 . S
C947 C943 1.400 . S
C947 C946 1.385 . S
C948 C946 1.478 . S
C948 C950 1.381 . S
C948 C954 1.383 . S
C949 C945 1.495 . S
C949 H955 0.959 . S
C949 H956 0.961 . S
C949 H957 0.960 . S
C950 C948 1.381 . S
C950 C951 1.394 . S
C950 H958 0.930 . S
C951 C950 1.394 . S
C951 C952 1.383 . S
C951 H959 0.929 . S
C952 C951 1.383 . S
C952 C953 1.377 . S
C953 H937 0.930 . S
C953 C952 1.377 . S
C953 C954 1.379 . S
C954 H938 0.931 . S
C954 C948 1.383 . S
C954 C953 1.379 . S
H955 C949 0.959 . S
H956 C949 0.961 . S
H957 C949 0.960 . S
H958 C950 0.930 . S
H959 C951 0.929 . S
H960 C968 0.929 . S
H961 C970 0.930 . S
H962 C972 0.930 . S
H963 C975 0.929 . S
H964 C978 0.930 . S
H965 C980 0.960 . S
H966 C980 0.960 . S
H967 C980 0.960 . S
C968 H960 0.929 . S
C968 C969 1.377 . S
C968 C970 1.384 . S
C969 C968 1.377 . S
C969 C975 1.390 . S
C970 H961 0.930 . S
C970 C968 1.384 . S
C970 C971 1.372 . S
C971 C970 1.372 . S
C971 C972 1.400 . S
C971 C976 1.490 . S
C972 H962 0.930 . S
C972 C971 1.400 . S
C972 C975 1.386 . S
H973 C989 0.930 . S
H974 C990 0.931 . S
C975 H963 0.929 . S
C975 C969 1.390 . S
C975 C972 1.386 . S
C976 C971 1.490 . S
C976 C978 1.395 . S
C976 C979 1.403 . S
H977 C983 0.930 . S
C978 H964 0.930 . S
C978 C976 1.395 . S
C978 C981 1.403 . S
C979 C976 1.403 . S
C979 C980 1.524 . S
C979 C983 1.400 . S
C980 H965 0.960 . S
C980 H966 0.960 . S
C980 H967 0.960 . S
C980 C979 1.524 . S
C981 C978 1.403 . S
C981 C982 1.392 . S
C981 C985 1.495 . S
C982 C981 1.392 . S
C982 C983 1.385 . S
C982 C984 1.478 . S
C983 H977 0.930 . S
C983 C979 1.400 . S
C983 C982 1.385 . S
C984 C982 1.478 . S
C984 C986 1.381 . S
C984 C990 1.383 . S
C985 C981 1.495 . S
C985 H991 0.959 . S
C985 H992 0.961 . S
C985 H993 0.960 . S
C986 C984 1.381 . S
C986 C987 1.394 . S
C986 H994 0.930 . S
C987 C986 1.394 . S
C987 C988 1.383 . S
C987 H995 0.929 . S
C988 C987 1.383 . S
C988 C989 1.377 . S
C989 H973 0.930 . S
C989 C988 1.377 . S
C989 C990 1.379 . S
C990 H974 0.931 . S
C990 C984 1.383 . S
C990 C989 1.379 . S
H991 C985 0.959 . S
H992 C985 0.961 . S
H993 C985 0.960 . S
H994 C986 0.930 . S
H995 C987 0.929 . S
H996 C1004 0.929 . S
H997 C1006 0.930 . S
H998 C1008 0.930 . S
H999 C1011 0.929 . S
H1000 C1014 0.930 . S
H1001 C1016 0.960 . S
H1002 C1016 0.960 . S
H1003 C1016 0.960 . S
C1004 H996 0.929 . S
C1004 C1005 1.377 . S
C1004 C1006 1.384 . S
C1005 C1004 1.377 . S
C1005 C1011 1.390 . S
C1006 H997 0.930 . S
C1006 C1004 1.384 . S
C1006 C1007 1.372 . S
C1007 C1006 1.372 . S
C1007 C1008 1.400 . S
C1007 C1012 1.490 . S
C1008 H998 0.930 . S
C1008 C1007 1.400 . S
C1008 C1011 1.386 . S
H1009 C1025 0.930 . S
H1010 C1026 0.931 . S
C1011 H999 0.929 . S
C1011 C1005 1.390 . S
C1011 C1008 1.386 . S
C1012 C1007 1.490 . S
C1012 C1014 1.395 . S
C1012 C1015 1.403 . S
H1013 C1019 0.930 . S
C1014 H1000 0.930 . S
C1014 C1012 1.395 . S
C1014 C1017 1.403 . S
C1015 C1012 1.403 . S
C1015 C1016 1.524 . S
C1015 C1019 1.400 . S
C1016 H1001 0.960 . S
C1016 H1002 0.960 . S
C1016 H1003 0.960 . S
C1016 C1015 1.524 . S
C1017 C1014 1.403 . S
C1017 C1018 1.392 . S
C1017 C1021 1.495 . S
C1018 C1017 1.392 . S
C1018 C1019 1.385 . S
C1018 C1020 1.478 . S
C1019 H1013 0.930 . S
C1019 C1015 1.400 . S
C1019 C1018 1.385 . S
C1020 C1018 1.478 . S
C1020 C1022 1.381 . S
C1020 C1026 1.383 . S
C1021 C1017 1.495 . S
C1021 H1027 0.959 . S
C1021 H1028 0.961 . S
C1021 H1029 0.960 . S
C1022 C1020 1.381 . S
C1022 C1023 1.394 . S
C1022 H1030 0.930 . S
C1023 C1022 1.394 . S
C1023 C1024 1.383 . S
C1023 H1031 0.929 . S
C1024 C1023 1.383 . S
C1024 C1025 1.377 . S
C1025 H1009 0.930 . S
C1025 C1024 1.377 . S
C1025 C1026 1.379 . S
C1026 H1010 0.931 . S
C1026 C1020 1.383 . S
C1026 C1025 1.379 . S
H1027 C1021 0.959 . S
H1028 C1021 0.961 . S
H1029 C1021 0.960 . S
H1030 C1022 0.930 . S
H1031 C1023 0.929 . S
H1032 C1040 0.929 . S
H1033 C1042 0.930 . S
H1034 C1044 0.930 . S
H1035 C1047 0.929 . S
H1036 C1050 0.930 . S
H1037 C1052 0.960 . S
H1038 C1052 0.960 . S
H1039 C1052 0.960 . S
C1040 H1032 0.929 . S
C1040 C1041 1.377 . S
C1040 C1042 1.384 . S
C1041 C1040 1.377 . S
C1041 C1047 1.390 . S
C1042 H1033 0.930 . S
C1042 C1040 1.384 . S
C1042 C1043 1.372 . S
C1043 C1042 1.372 . S
C1043 C1044 1.400 . S
C1043 C1048 1.490 . S
C1044 H1034 0.930 . S
C1044 C1043 1.400 . S
C1044 C1047 1.386 . S
H1045 C1061 0.930 . S
H1046 C1062 0.931 . S
C1047 H1035 0.929 . S
C1047 C1041 1.390 . S
C1047 C1044 1.386 . S
C1048 C1043 1.490 . S
C1048 C1050 1.395 . S
C1048 C1051 1.403 . S
H1049 C1055 0.930 . S
C1050 H1036 0.930 . S
C1050 C1048 1.395 . S
C1050 C1053 1.403 . S
C1051 C1048 1.403 . S
C1051 C1052 1.524 . S
C1051 C1055 1.400 . S
C1052 H1037 0.960 . S
C1052 H1038 0.960 . S
C1052 H1039 0.960 . S
C1052 C1051 1.524 . S
C1053 C1050 1.403 . S
C1053 C1054 1.392 . S
C1053 C1057 1.495 . S
C1054 C1053 1.392 . S
C1054 C1055 1.385 . S
C1054 C1056 1.478 . S
C1055 H1049 0.930 . S
C1055 C1051 1.400 . S
C1055 C1054 1.385 . S
C1056 C1054 1.478 . S
C1056 C1058 1.381 . S
C1056 C1062 1.383 . S
C1057 C1053 1.495 . S
C1057 H1063 0.959 . S
C1057 H1064 0.961 . S
C1057 H1065 0.960 . S
C1058 C1056 1.381 . S
C1058 C1059 1.394 . S
C1058 H1066 0.930 . S
C1059 C1058 1.394 . S
C1059 C1060 1.383 . S
C1059 H1067 0.929 . S
C1060 C1059 1.383 . S
C1060 C1061 1.377 . S
C1061 H1045 0.930 . S
C1061 C1060 1.377 . S
C1061 C1062 1.379 . S
C1062 H1046 0.931 . S
C1062 C1056 1.383 . S
C1062 C1061 1.379 . S
H1063 C1057 0.959 . S
H1064 C1057 0.961 . S
H1065 C1057 0.960 . S
H1066 C1058 0.930 . S
H1067 C1059 0.929 . S
H1068 C1076 0.929 . S
H1069 C1078 0.930 . S
H1070 C1080 0.930 . S
H1071 C1083 0.929 . S
H1072 C1086 0.930 . S
H1073 C1088 0.960 . S
H1074 C1088 0.960 . S
H1075 C1088 0.960 . S
C1076 H1068 0.929 . S
C1076 C1077 1.377 . S
C1076 C1078 1.384 . S
C1077 C1076 1.377 . S
C1077 C1083 1.390 . S
C1078 H1069 0.930 . S
C1078 C1076 1.384 . S
C1078 C1079 1.372 . S
C1079 C1078 1.372 . S
C1079 C1080 1.400 . S
C1079 C1084 1.490 . S
C1080 H1070 0.930 . S
C1080 C1079 1.400 . S
C1080 C1083 1.386 . S
H1081 C1097 0.930 . S
H1082 C1098 0.931 . S
C1083 H1071 0.929 . S
C1083 C1077 1.390 . S
C1083 C1080 1.386 . S
C1084 C1079 1.490 . S
C1084 C1086 1.395 . S
C1084 C1087 1.403 . S
H1085 C1091 0.930 . S
C1086 H1072 0.930 . S
C1086 C1084 1.395 . S
C1086 C1089 1.403 . S
C1087 C1084 1.403 . S
C1087 C1088 1.524 . S
C1087 C1091 1.400 . S
C1088 H1073 0.960 . S
C1088 H1074 0.960 . S
C1088 H1075 0.960 . S
C1088 C1087 1.524 . S
C1089 C1086 1.403 . S
C1089 C1090 1.392 . S
C1089 C1093 1.495 . S
C1090 C1089 1.392 . S
C1090 C1091 1.385 . S
C1090 C1092 1.478 . S
C1091 H1085 0.930 . S
C1091 C1087 1.400 . S
C1091 C1090 1.385 . S
C1092 C1090 1.478 . S
C1092 C1094 1.381 . S
C1092 C1098 1.383 . S
C1093 C1089 1.495 . S
C1093 H1099 0.959 . S
C1093 H1100 0.961 . S
C1093 H1101 0.960 . S
C1094 C1092 1.381 . S
C1094 C1095 1.394 . S
C1094 H1102 0.930 . S
C1095 C1094 1.394 . S
C1095 C1096 1.383 . S
C1095 H1103 0.929 . S
C1096 C1095 1.383 . S
C1096 C1097 1.377 . S
C1097 H1081 0.930 . S
C1097 C1096 1.377 . S
C1097 C1098 1.379 . S
C1098 H1082 0.931 . S
C1098 C1092 1.383 . S
C1098 C1097 1.379 . S
H1099 C1093 0.959 . S
H1100 C1093 0.961 . S
H1101 C1093 0.960 . S
H1102 C1094 0.930 . S
H1103 C1095 0.929 . S
H1104 C1112 0.929 . S
H1105 C1114 0.930 . S
H1106 C1116 0.930 . S
H1107 C1119 0.929 . S
H1108 C1122 0.930 . S
H1109 C1124 0.960 . S
H1110 C1124 0.960 . S
H1111 C1124 0.960 . S
C1112 H1104 0.929 . S
C1112 C1113 1.377 . S
C1112 C1114 1.384 . S
C1113 C1112 1.377 . S
C1113 C1119 1.390 . S
C1114 H1105 0.930 . S
C1114 C1112 1.384 . S
C1114 C1115 1.372 . S
C1115 C1114 1.372 . S
C1115 C1116 1.400 . S
C1115 C1120 1.490 . S
C1116 H1106 0.930 . S
C1116 C1115 1.400 . S
C1116 C1119 1.386 . S
H1117 C1133 0.930 . S
H1118 C1134 0.931 . S
C1119 H1107 0.929 . S
C1119 C1113 1.390 . S
C1119 C1116 1.386 . S
C1120 C1115 1.490 . S
C1120 C1122 1.395 . S
C1120 C1123 1.403 . S
H1121 C1127 0.930 . S
C1122 H1108 0.930 . S
C1122 C1120 1.395 . S
C1122 C1125 1.403 . S
C1123 C1120 1.403 . S
C1123 C1124 1.524 . S
C1123 C1127 1.400 . S
C1124 H1109 0.960 . S
C1124 H1110 0.960 . S
C1124 H1111 0.960 . S
C1124 C1123 1.524 . S
C1125 C1122 1.403 . S
C1125 C1126 1.392 . S
C1125 C1129 1.495 . S
C1126 C1125 1.392 . S
C1126 C1127 1.385 . S
C1126 C1128 1.478 . S
C1127 H1121 0.930 . S
C1127 C1123 1.400 . S
C1127 C1126 1.385 . S
C1128 C1126 1.478 . S
C1128 C1130 1.381 . S
C1128 C1134 1.383 . S
C1129 C1125 1.495 . S
C1129 H1135 0.959 . S
C1129 H1136 0.961 . S
C1129 H1137 0.960 . S
C1130 C1128 1.381 . S
C1130 C1131 1.394 . S
C1130 H1138 0.930 . S
C1131 C1130 1.394 . S
C1131 C1132 1.383 . S
C1131 H1139 0.929 . S
C1132 C1131 1.383 . S
C1132 C1133 1.377 . S
C1133 H1117 0.930 . S
C1133 C1132 1.377 . S
C1133 C1134 1.379 . S
C1134 H1118 0.931 . S
C1134 C1128 1.383 . S
C1134 C1133 1.379 . S
H1135 C1129 0.959 . S
H1136 C1129 0.961 . S
H1137 C1129 0.960 . S
H1138 C1130 0.930 . S
H1139 C1131 0.929 . S
H1140 C1148 0.929 . S
H1141 C1150 0.930 . S
H1142 C1152 0.930 . S
H1143 C1155 0.929 . S
H1144 C1158 0.930 . S
H1145 C1160 0.960 . S
H1146 C1160 0.960 . S
H1147 C1160 0.960 . S
C1148 H1140 0.929 . S
C1148 C1149 1.377 . S
C1148 C1150 1.384 . S
C1149 C1148 1.377 . S
C1149 C1155 1.390 . S
C1150 H1141 0.930 . S
C1150 C1148 1.384 . S
C1150 C1151 1.372 . S
C1151 C1150 1.372 . S
C1151 C1152 1.400 . S
C1151 C1156 1.490 . S
C1152 H1142 0.930 . S
C1152 C1151 1.400 . S
C1152 C1155 1.386 . S
H1153 C1169 0.930 . S
H1154 C1170 0.931 . S
C1155 H1143 0.929 . S
C1155 C1149 1.390 . S
C1155 C1152 1.386 . S
C1156 C1151 1.490 . S
C1156 C1158 1.395 . S
C1156 C1159 1.403 . S
H1157 C1163 0.930 . S
C1158 H1144 0.930 . S
C1158 C1156 1.395 . S
C1158 C1161 1.403 . S
C1159 C1156 1.403 . S
C1159 C1160 1.524 . S
C1159 C1163 1.400 . S
C1160 H1145 0.960 . S
C1160 H1146 0.960 . S
C1160 H1147 0.960 . S
C1160 C1159 1.524 . S
C1161 C1158 1.403 . S
C1161 C1162 1.392 . S
C1161 C1165 1.495 . S
C1162 C1161 1.392 . S
C1162 C1163 1.385 . S
C1162 C1164 1.478 . S
C1163 H1157 0.930 . S
C1163 C1159 1.400 . S
C1163 C1162 1.385 . S
C1164 C1162 1.478 . S
C1164 C1166 1.381 . S
C1164 C1170 1.383 . S
C1165 C1161 1.495 . S
C1165 H1171 0.959 . S
C1165 H1172 0.961 . S
C1165 H1173 0.960 . S
C1166 C1164 1.381 . S
C1166 C1167 1.394 . S
C1166 H1174 0.930 . S
C1167 C1166 1.394 . S
C1167 C1168 1.383 . S
C1167 H1175 0.929 . S
C1168 C1167 1.383 . S
C1168 C1169 1.377 . S
C1169 H1153 0.930 . S
C1169 C1168 1.377 . S
C1169 C1170 1.379 . S
C1170 H1154 0.931 . S
C1170 C1164 1.383 . S
C1170 C1169 1.379 . S
H1171 C1165 0.959 . S
H1172 C1165 0.961 . S
H1173 C1165 0.960 . S
H1174 C1166 0.930 . S
H1175 C1167 0.929 . S
H1176 C1184 0.929 . S
H1177 C1186 0.930 . S
H1178 C1188 0.930 . S
H1179 C1191 0.929 . S
H1180 C1194 0.930 . S
H1181 C1196 0.960 . S
H1182 C1196 0.960 . S
H1183 C1196 0.960 . S
C1184 H1176 0.929 . S
C1184 C1185 1.377 . S
C1184 C1186 1.384 . S
C1185 C1184 1.377 . S
C1185 C1191 1.390 . S
C1186 H1177 0.930 . S
C1186 C1184 1.384 . S
C1186 C1187 1.372 . S
C1187 C1186 1.372 . S
C1187 C1188 1.400 . S
C1187 C1192 1.490 . S
C1188 H1178 0.930 . S
C1188 C1187 1.400 . S
C1188 C1191 1.386 . S
H1189 C1205 0.930 . S
H1190 C1206 0.931 . S
C1191 H1179 0.929 . S
C1191 C1185 1.390 . S
C1191 C1188 1.386 . S
C1192 C1187 1.490 . S
C1192 C1194 1.395 . S
C1192 C1195 1.403 . S
H1193 C1199 0.930 . S
C1194 H1180 0.930 . S
C1194 C1192 1.395 . S
C1194 C1197 1.403 . S
C1195 C1192 1.403 . S
C1195 C1196 1.524 . S
C1195 C1199 1.400 . S
C1196 H1181 0.960 . S
C1196 H1182 0.960 . S
C1196 H1183 0.960 . S
C1196 C1195 1.524 . S
C1197 C1194 1.403 . S
C1197 C1198 1.392 . S
C1197 C1201 1.495 . S
C1198 C1197 1.392 . S
C1198 C1199 1.385 . S
C1198 C1200 1.478 . S
C1199 H1193 0.930 . S
C1199 C1195 1.400 . S
C1199 C1198 1.385 . S
C1200 C1198 1.478 . S
C1200 C1202 1.381 . S
C1200 C1206 1.383 . S
C1201 C1197 1.495 . S
C1201 H1207 0.959 . S
C1201 H1208 0.961 . S
C1201 H1209 0.960 . S
C1202 C1200 1.381 . S
C1202 C1203 1.394 . S
C1202 H1210 0.930 . S
C1203 C1202 1.394 . S
C1203 C1204 1.383 . S
C1203 H1211 0.929 . S
C1204 C1203 1.383 . S
C1204 C1205 1.377 . S
C1205 H1189 0.930 . S
C1205 C1204 1.377 . S
C1205 C1206 1.379 . S
C1206 H1190 0.931 . S
C1206 C1200 1.383 . S
C1206 C1205 1.379 . S
H1207 C1201 0.959 . S
H1208 C1201 0.961 . S
H1209 C1201 0.960 . S
H1210 C1202 0.930 . S
H1211 C1203 0.929 . S
H1212 C1220 0.929 . S
H1213 C1222 0.930 . S
H1214 C1224 0.930 . S
H1215 C1227 0.929 . S
H1216 C1230 0.930 . S
H1217 C1232 0.960 . S
H1218 C1232 0.960 . S
H1219 C1232 0.960 . S
C1220 H1212 0.929 . S
C1220 C1221 1.377 . S
C1220 C1222 1.384 . S
C1221 C1220 1.377 . S
C1221 C1227 1.390 . S
C1222 H1213 0.930 . S
C1222 C1220 1.384 . S
C1222 C1223 1.372 . S
C1223 C1222 1.372 . S
C1223 C1224 1.400 . S
C1223 C1228 1.490 . S
C1224 H1214 0.930 . S
C1224 C1223 1.400 . S
C1224 C1227 1.386 . S
H1225 C1241 0.930 . S
H1226 C1242 0.931 . S
C1227 H1215 0.929 . S
C1227 C1221 1.390 . S
C1227 C1224 1.386 . S
C1228 C1223 1.490 . S
C1228 C1230 1.395 . S
C1228 C1231 1.403 . S
H1229 C1235 0.930 . S
C1230 H1216 0.930 . S
C1230 C1228 1.395 . S
C1230 C1233 1.403 . S
C1231 C1228 1.403 . S
C1231 C1232 1.524 . S
C1231 C1235 1.400 . S
C1232 H1217 0.960 . S
C1232 H1218 0.960 . S
C1232 H1219 0.960 . S
C1232 C1231 1.524 . S
C1233 C1230 1.403 . S
C1233 C1234 1.392 . S
C1233 C1237 1.495 . S
C1234 C1233 1.392 . S
C1234 C1235 1.385 . S
C1234 C1236 1.478 . S
C1235 H1229 0.930 . S
C1235 C1231 1.400 . S
C1235 C1234 1.385 . S
C1236 C1234 1.478 . S
C1236 C1238 1.381 . S
C1236 C1242 1.383 . S
C1237 C1233 1.495 . S
C1237 H1243 0.959 . S
C1237 H1244 0.961 . S
C1237 H1245 0.960 . S
C1238 C1236 1.381 . S
C1238 C1239 1.394 . S
C1238 H1246 0.930 . S
C1239 C1238 1.394 . S
C1239 C1240 1.383 . S
C1239 H1247 0.929 . S
C1240 C1239 1.383 . S
C1240 C1241 1.377 . S
C1241 H1225 0.930 . S
C1241 C1240 1.377 . S
C1241 C1242 1.379 . S
C1242 H1226 0.931 . S
C1242 C1236 1.383 . S
C1242 C1241 1.379 . S
H1243 C1237 0.959 . S
H1244 C1237 0.961 . S
H1245 C1237 0.960 . S
H1246 C1238 0.930 . S
H1247 C1239 0.929 . S
H1248 C1256 0.929 . S
H1249 C1258 0.930 . S
H1250 C1260 0.930 . S
H1251 C1263 0.929 . S
H1252 C1266 0.930 . S
H1253 C1268 0.960 . S
H1254 C1268 0.960 . S
H1255 C1268 0.960 . S
C1256 H1248 0.929 . S
C1256 C1257 1.377 . S
C1256 C1258 1.384 . S
C1257 C1256 1.377 . S
C1257 C1263 1.390 . S
C1258 H1249 0.930 . S
C1258 C1256 1.384 . S
C1258 C1259 1.372 . S
C1259 C1258 1.372 . S
C1259 C1260 1.400 . S
C1259 C1264 1.490 . S
C1260 H1250 0.930 . S
C1260 C1259 1.400 . S
C1260 C1263 1.386 . S
H1261 C1277 0.930 . S
H1262 C1278 0.931 . S
C1263 H1251 0.929 . S
C1263 C1257 1.390 . S
C1263 C1260 1.386 . S
C1264 C1259 1.490 . S
C1264 C1266 1.395 . S
C1264 C1267 1.403 . S
H1265 C1271 0.930 . S
C1266 H1252 0.930 . S
C1266 C1264 1.395 . S
C1266 C1269 1.403 . S
C1267 C1264 1.403 . S
C1267 C1268 1.524 . S
C1267 C1271 1.400 . S
C1268 H1253 0.960 . S
C1268 H1254 0.960 . S
C1268 H1255 0.960 . S
C1268 C1267 1.524 . S
C1269 C1266 1.403 . S
C1269 C1270 1.392 . S
C1269 C1273 1.495 . S
C1270 C1269 1.392 . S
C1270 C1271 1.385 . S
C1270 C1272 1.478 . S
C1271 H1265 0.930 . S
C1271 C1267 1.400 . S
C1271 C1270 1.385 . S
C1272 C1270 1.478 . S
C1272 C1274 1.381 . S
C1272 C1278 1.383 . S
C1273 C1269 1.495 . S
C1273 H1279 0.959 . S
C1273 H1280 0.961 . S
C1273 H1281 0.960 . S
C1274 C1272 1.381 . S
C1274 C1275 1.394 . S
C1274 H1282 0.930 . S
C1275 C1274 1.394 . S
C1275 C1276 1.383 . S
C1275 H1283 0.929 . S
C1276 C1275 1.383 . S
C1276 C1277 1.377 . S
C1277 H1261 0.930 . S
C1277 C1276 1.377 . S
C1277 C1278 1.379 . S
C1278 H1262 0.931 . S
C1278 C1272 1.383 . S
C1278 C1277 1.379 . S
H1279 C1273 0.959 . S
H1280 C1273 0.961 . S
H1281 C1273 0.960 . S
H1282 C1274 0.930 . S
H1283 C1275 0.929 . S
H1284 C1292 0.929 . S
H1285 C1294 0.930 . S
H1286 C1296 0.930 . S
H1287 C1299 0.929 . S
H1288 C1302 0.930 . S
H1289 C1304 0.960 . S
H1290 C1304 0.960 . S
H1291 C1304 0.960 . S
C1292 H1284 0.929 . S
C1292 C1293 1.377 . S
C1292 C1294 1.384 . S
C1293 C1292 1.377 . S
C1293 C1299 1.390 . S
C1294 H1285 0.930 . S
C1294 C1292 1.384 . S
C1294 C1295 1.372 . S
C1295 C1294 1.372 . S
C1295 C1296 1.400 . S
C1295 C1300 1.490 . S
C1296 H1286 0.930 . S
C1296 C1295 1.400 . S
C1296 C1299 1.386 . S
H1297 C1313 0.930 . S
H1298 C1314 0.931 . S
C1299 H1287 0.929 . S
C1299 C1293 1.390 . S
C1299 C1296 1.386 . S
C1300 C1295 1.490 . S
C1300 C1302 1.395 . S
C1300 C1303 1.403 . S
H1301 C1307 0.930 . S
C1302 H1288 0.930 . S
C1302 C1300 1.395 . S
C1302 C1305 1.403 . S
C1303 C1300 1.403 . S
C1303 C1304 1.524 . S
C1303 C1307 1.400 . S
C1304 H1289 0.960 . S
C1304 H1290 0.960 . S
C1304 H1291 0.960 . S
C1304 C1303 1.524 . S
C1305 C1302 1.403 . S
C1305 C1306 1.392 . S
C1305 C1309 1.495 . S
C1306 C1305 1.392 . S
C1306 C1307 1.385 . S
C1306 C1308 1.478 . S
C1307 H1301 0.930 . S
C1307 C1303 1.400 . S
C1307 C1306 1.385 . S
C1308 C1306 1.478 . S
C1308 C1310 1.381 . S
C1308 C1314 1.383 . S
C1309 C1305 1.495 . S
C1309 H1315 0.959 . S
C1309 H1316 0.961 . S
C1309 H1317 0.960 . S
C1310 C1308 1.381 . S
C1310 C1311 1.394 . S
C1310 H1318 0.930 . S
C1311 C1310 1.394 . S
C1311 C1312 1.383 . S
C1311 H1319 0.929 . S
C1312 C1311 1.383 . S
C1312 C1313 1.377 . S
C1313 H1297 0.930 . S
C1313 C1312 1.377 . S
C1313 C1314 1.379 . S
C1314 H1298 0.931 . S
C1314 C1308 1.383 . S
C1314 C1313 1.379 . S
H1315 C1309 0.959 . S
H1316 C1309 0.961 . S
H1317 C1309 0.960 . S
H1318 C1310 0.930 . S
H1319 C1311 0.929 . S
H1320 C1328 0.929 . S
H1321 C1330 0.930 . S
H1322 C1332 0.930 . S
H1323 C1335 0.929 . S
H1324 C1338 0.930 . S
H1325 C1340 0.960 . S
H1326 C1340 0.960 . S
H1327 C1340 0.960 . S
C1328 H1320 0.929 . S
C1328 C1329 1.377 . S
C1328 C1330 1.384 . S
C1329 C1328 1.377 . S
C1329 C1335 1.390 . S
C1330 H1321 0.930 . S
C1330 C1328 1.384 . S
C1330 C1331 1.372 . S
C1331 C1330 1.372 . S
C1331 C1332 1.400 . S
C1331 C1336 1.490 . S
C1332 H1322 0.930 . S
C1332 C1331 1.400 . S
C1332 C1335 1.386 . S
H1333 C1349 0.930 . S
H1334 C1350 0.931 . S
C1335 H1323 0.929 . S
C1335 C1329 1.390 . S
C1335 C1332 1.386 . S
C1336 C1331 1.490 . S
C1336 C1338 1.395 1_556 S
C1336 C1339 1.403 . S
H1337 C1343 0.933 . S
C1338 H1324 0.930 . S
C1338 C1336 1.395 1_554 S
C1338 C1341 1.403 . S
C1339 C1336 1.403 . S
C1339 C1340 1.524 . S
C1339 C1343 1.420 . S
C1340 H1325 0.960 . S
C1340 H1326 0.960 . S
C1340 H1327 0.960 . S
C1340 C1339 1.524 . S
C1341 C1338 1.403 . S
C1341 C1342 1.392 . S
C1341 C1345 1.495 . S
C1342 C1341 1.392 . S
C1342 C1343 1.363 1_554 S
C1342 C1344 1.478 . S
C1343 H1337 0.933 . S
C1343 C1339 1.420 . S
C1343 C1342 1.363 1_556 S
C1344 C1342 1.478 . S
C1344 C1346 1.381 . S
C1344 C1350 1.383 . S
C1345 C1341 1.495 . S
C1345 H1351 0.959 . S
C1345 H1352 0.961 . S
C1345 H1353 0.960 . S
C1346 C1344 1.381 . S
C1346 C1347 1.394 . S
C1346 H1354 0.930 . S
C1347 C1346 1.394 . S
C1347 C1348 1.383 . S
C1347 H1355 0.929 . S
C1348 C1347 1.383 . S
C1348 C1349 1.377 . S
C1349 H1333 0.930 . S
C1349 C1348 1.377 . S
C1349 C1350 1.379 . S
C1350 H1334 0.931 . S
C1350 C1344 1.383 . S
C1350 C1349 1.379 . S
H1351 C1345 0.959 . S
H1352 C1345 0.961 . S
H1353 C1345 0.960 . S
H1354 C1346 0.930 . S
H1355 C1347 0.929 . S
H1356 C1364 0.929 . S
H1357 C1366 0.930 . S
H1358 C1368 0.930 . S
H1359 C1371 0.929 . S
H1360 C1374 0.929 . S
H1361 C1376 0.960 . S
H1362 C1376 0.960 . S
H1363 C1376 0.960 . S
C1364 H1356 0.929 . S
C1364 C1365 1.377 . S
C1364 C1366 1.384 . S
C1365 C1364 1.377 . S
C1365 C1371 1.390 . S
C1366 H1357 0.930 . S
C1366 C1364 1.384 . S
C1366 C1367 1.372 . S
C1367 C1366 1.372 . S
C1367 C1368 1.400 . S
C1367 C1372 1.490 . S
C1368 H1358 0.930 . S
C1368 C1367 1.400 . S
C1368 C1371 1.386 . S
H1369 C1385 0.930 . S
H1370 C1386 0.931 . S
C1371 H1359 0.929 . S
C1371 C1365 1.390 . S
C1371 C1368 1.386 . S
C1372 C1367 1.490 . S
C1372 C1374 1.395 1_455 S
C1372 C1375 1.403 . S
H1373 C1379 0.930 . S
C1374 H1360 0.929 . S
C1374 C1372 1.395 1_655 S
C1374 C1377 1.403 . S
C1375 C1372 1.403 . S
C1375 C1376 1.524 . S
C1375 C1379 1.400 1_455 S
C1376 H1361 0.960 . S
C1376 H1362 0.960 . S
C1376 H1363 0.960 . S
C1376 C1375 1.524 . S
C1377 C1374 1.403 . S
C1377 C1378 1.392 . S
C1377 C1381 1.495 . S
C1378 C1377 1.392 . S
C1378 C1379 1.385 . S
C1378 C1380 1.478 . S
C1379 H1373 0.930 . S
C1379 C1375 1.400 1_655 S
C1379 C1378 1.385 . S
C1380 C1378 1.478 . S
C1380 C1382 1.381 . S
C1380 C1386 1.383 . S
C1381 C1377 1.495 . S
C1381 H1387 0.959 . S
C1381 H1388 0.961 . S
C1381 H1389 0.960 . S
C1382 C1380 1.381 . S
C1382 C1383 1.394 . S
C1382 H1390 0.930 . S
C1383 C1382 1.394 . S
C1383 C1384 1.383 . S
C1383 H1391 0.929 . S
C1384 C1383 1.383 . S
C1384 C1385 1.377 . S
C1385 H1369 0.930 . S
C1385 C1384 1.377 . S
C1385 C1386 1.379 . S
C1386 H1370 0.931 . S
C1386 C1380 1.383 . S
C1386 C1385 1.379 . S
H1387 C1381 0.959 . S
H1388 C1381 0.961 . S
H1389 C1381 0.960 . S
H1390 C1382 0.930 . S
H1391 C1383 0.929 . S
H1392 C1400 0.929 . S
H1393 C1402 0.930 . S
H1394 C1404 0.930 . S
H1395 C1407 0.929 . S
H1396 C1410 0.930 . S
H1397 C1412 0.960 . S
H1398 C1412 0.960 . S
H1399 C1412 0.960 . S
C1400 H1392 0.929 . S
C1400 C1401 1.377 . S
C1400 C1402 1.384 . S
C1401 C1400 1.377 . S
C1401 C1407 1.390 . S
C1402 H1393 0.930 . S
C1402 C1400 1.384 . S
C1402 C1403 1.372 . S
C1403 C1402 1.372 . S
C1403 C1404 1.400 . S
C1403 C1408 1.490 . S
C1404 H1394 0.930 . S
C1404 C1403 1.400 . S
C1404 C1407 1.386 . S
H1405 C1421 0.930 . S
H1406 C1422 0.931 . S
C1407 H1395 0.929 . S
C1407 C1401 1.390 . S
C1407 C1404 1.386 . S
C1408 C1403 1.490 . S
C1408 C1410 1.395 1_554 S
C1408 C1411 1.403 1_565 S
H1409 C1415 0.927 1_554 S
C1410 H1396 0.930 . S
C1410 C1408 1.395 1_556 S
C1410 C1413 1.403 . S
C1411 C1408 1.403 1_545 S
C1411 C1412 1.524 . S
C1411 C1415 1.392 1_554 S
C1412 H1397 0.960 . S
C1412 H1398 0.960 . S
C1412 H1399 0.960 . S
C1412 C1411 1.524 . S
C1413 C1410 1.403 . S
C1413 C1414 1.392 1_565 S
C1413 C1417 1.495 . S
C1414 C1413 1.392 1_545 S
C1414 C1415 1.394 . S
C1414 C1416 1.478 . S
C1415 H1409 0.927 1_556 S
C1415 C1411 1.392 1_556 S
C1415 C1414 1.394 . S
C1416 C1414 1.478 . S
C1416 C1418 1.381 . S
C1416 C1422 1.383 . S
C1417 C1413 1.495 . S
C1417 H1423 0.959 . S
C1417 H1424 0.961 . S
C1417 H1425 0.960 . S
C1418 C1416 1.381 . S
C1418 C1419 1.394 . S
C1418 H1426 0.930 . S
C1419 C1418 1.394 . S
C1419 C1420 1.383 . S
C1419 H1427 0.929 . S
C1420 C1419 1.383 . S
C1420 C1421 1.377 . S
C1421 H1405 0.930 . S
C1421 C1420 1.377 . S
C1421 C1422 1.379 . S
C1422 H1406 0.931 . S
C1422 C1416 1.383 . S
C1422 C1421 1.379 . S
H1423 C1417 0.959 . S
H1424 C1417 0.961 . S
H1425 C1417 0.960 . S
H1426 C1418 0.930 . S
H1427 C1419 0.929 . S
H1428 C1436 0.929 . S
H1429 C1438 0.930 . S
H1430 C1440 0.930 . S
H1431 C1443 0.929 . S
H1432 C1446 0.930 . S
H1433 C1448 0.960 . S
H1434 C1448 0.960 . S
H1435 C1448 0.960 . S
C1436 H1428 0.929 . S
C1436 C1437 1.377 . S
C1436 C1438 1.384 . S
C1437 C1436 1.377 . S
C1437 C1443 1.390 . S
C1438 H1429 0.930 . S
C1438 C1436 1.384 . S
C1438 C1439 1.372 . S
C1439 C1438 1.372 . S
C1439 C1440 1.400 . S
C1439 C1444 1.490 . S
C1440 H1430 0.930 . S
C1440 C1439 1.400 . S
C1440 C1443 1.386 . S
H1441 C1457 0.930 . S
H1442 C1458 0.931 . S
C1443 H1431 0.929 . S
C1443 C1437 1.390 . S
C1443 C1440 1.386 . S
C1444 C1439 1.490 . S
C1444 C1446 1.395 . S
C1444 C1447 1.403 . S
H1445 C1451 0.930 . S
C1446 H1432 0.930 . S
C1446 C1444 1.395 . S
C1446 C1449 1.403 . S
C1447 C1444 1.403 . S
C1447 C1448 1.524 . S
C1447 C1451 1.400 . S
C1448 H1433 0.960 . S
C1448 H1434 0.960 . S
C1448 H1435 0.960 . S
C1448 C1447 1.524 . S
C1449 C1446 1.403 . S
C1449 C1450 1.392 . S
C1449 C1453 1.495 . S
C1450 C1449 1.392 . S
C1450 C1451 1.385 . S
C1450 C1452 1.478 . S
C1451 H1445 0.930 . S
C1451 C1447 1.400 . S
C1451 C1450 1.385 . S
C1452 C1450 1.478 . S
C1452 C1454 1.381 . S
C1452 C1458 1.383 . S
C1453 C1449 1.495 . S
C1453 H1459 0.959 . S
C1453 H1460 0.961 . S
C1453 H1461 0.960 . S
C1454 C1452 1.381 . S
C1454 C1455 1.394 . S
C1454 H1462 0.930 . S
C1455 C1454 1.394 . S
C1455 C1456 1.383 . S
C1455 H1463 0.929 . S
C1456 C1455 1.383 . S
C1456 C1457 1.377 . S
C1457 H1441 0.930 . S
C1457 C1456 1.377 . S
C1457 C1458 1.379 . S
C1458 H1442 0.931 . S
C1458 C1452 1.383 . S
C1458 C1457 1.379 . S
H1459 C1453 0.959 . S
H1460 C1453 0.961 . S
H1461 C1453 0.960 . S
H1462 C1454 0.930 . S
H1463 C1455 0.929 . S
H1464 C1472 0.929 . S
H1465 C1474 0.930 . S
H1466 C1476 0.930 . S
H1467 C1479 0.929 . S
H1468 C1482 0.930 . S
H1469 C1484 0.960 . S
H1470 C1484 0.960 . S
H1471 C1484 0.960 . S
C1472 H1464 0.929 . S
C1472 C1473 1.377 . S
C1472 C1474 1.384 . S
C1473 C1472 1.377 . S
C1473 C1479 1.390 . S
C1474 H1465 0.930 . S
C1474 C1472 1.384 . S
C1474 C1475 1.372 . S
C1475 C1474 1.372 . S
C1475 C1476 1.400 . S
C1475 C1480 1.490 . S
C1476 H1466 0.930 . S
C1476 C1475 1.400 . S
C1476 C1479 1.386 . S
H1477 C1493 0.930 . S
H1478 C1494 0.931 . S
C1479 H1467 0.929 . S
C1479 C1473 1.390 . S
C1479 C1476 1.386 . S
C1480 C1475 1.490 . S
C1480 C1482 1.395 1_556 S
C1480 C1483 1.403 1_655 S
H1481 C1487 0.928 1_556 S
C1482 H1468 0.930 . S
C1482 C1480 1.395 1_554 S
C1482 C1485 1.403 . S
C1483 C1480 1.403 1_455 S
C1483 C1484 1.524 . S
C1483 C1487 1.405 1_556 S
C1484 H1469 0.960 . S
C1484 H1470 0.960 . S
C1484 H1471 0.960 . S
C1484 C1483 1.524 . S
C1485 C1482 1.403 . S
C1485 C1486 1.392 1_655 S
C1485 C1489 1.495 . S
C1486 C1485 1.392 1_455 S
C1486 C1487 1.379 . S
C1486 C1488 1.478 . S
C1487 H1481 0.928 1_554 S
C1487 C1483 1.405 1_554 S
C1487 C1486 1.379 . S
C1488 C1486 1.478 . S
C1488 C1490 1.381 . S
C1488 C1494 1.383 . S
C1489 C1485 1.495 . S
C1489 H1495 0.959 . S
C1489 H1496 0.961 . S
C1489 H1497 0.960 . S
C1490 C1488 1.381 . S
C1490 C1491 1.394 . S
C1490 H1498 0.930 . S
C1491 C1490 1.394 . S
C1491 C1492 1.383 . S
C1491 H1499 0.929 . S
C1492 C1491 1.383 . S
C1492 C1493 1.377 . S
C1493 H1477 0.930 . S
C1493 C1492 1.377 . S
C1493 C1494 1.379 . S
C1494 H1478 0.931 . S
C1494 C1488 1.383 . S
C1494 C1493 1.379 . S
H1495 C1489 0.959 . S
H1496 C1489 0.961 . S
H1497 C1489 0.960 . S
H1498 C1490 0.930 . S
H1499 C1491 0.929 . S
H1500 C1508 0.929 . S
H1501 C1510 0.930 . S
H1502 C1512 0.930 . S
H1503 C1515 0.929 . S
H1504 C1518 0.930 . S
H1505 C1520 0.960 . S
H1506 C1520 0.960 . S
H1507 C1520 0.960 . S
C1508 H1500 0.929 . S
C1508 C1509 1.377 . S
C1508 C1510 1.384 . S
C1509 C1508 1.377 . S
C1509 C1515 1.390 . S
C1510 H1501 0.930 . S
C1510 C1508 1.384 . S
C1510 C1511 1.372 . S
C1511 C1510 1.372 . S
C1511 C1512 1.400 . S
C1511 C1516 1.490 . S
C1512 H1502 0.930 . S
C1512 C1511 1.400 . S
C1512 C1515 1.386 . S
H1513 C1529 0.930 . S
H1514 C1530 0.931 . S
C1515 H1503 0.929 . S
C1515 C1509 1.390 . S
C1515 C1512 1.386 . S
C1516 C1511 1.490 . S
C1516 C1518 1.395 . S
C1516 C1519 1.403 1_565 S
H1517 C1523 0.930 . S
C1518 H1504 0.930 . S
C1518 C1516 1.395 . S
C1518 C1521 1.403 . S
C1519 C1516 1.403 1_545 S
C1519 C1520 1.524 . S
C1519 C1523 1.400 . S
C1520 H1505 0.960 . S
C1520 H1506 0.960 . S
C1520 H1507 0.960 . S
C1520 C1519 1.524 . S
C1521 C1518 1.403 . S
C1521 C1522 1.392 1_565 S
C1521 C1525 1.495 . S
C1522 C1521 1.392 1_545 S
C1522 C1523 1.385 . S
C1522 C1524 1.478 . S
C1523 H1517 0.930 . S
C1523 C1519 1.400 . S
C1523 C1522 1.385 . S
C1524 C1522 1.478 . S
C1524 C1526 1.381 . S
C1524 C1530 1.383 . S
C1525 C1521 1.495 . S
C1525 H1531 0.959 . S
C1525 H1532 0.961 . S
C1525 H1533 0.960 . S
C1526 C1524 1.381 . S
C1526 C1527 1.394 . S
C1526 H1534 0.930 . S
C1527 C1526 1.394 . S
C1527 C1528 1.383 . S
C1527 H1535 0.929 . S
C1528 C1527 1.383 . S
C1528 C1529 1.377 . S
C1529 H1513 0.930 . S
C1529 C1528 1.377 . S
C1529 C1530 1.379 . S
C1530 H1514 0.931 . S
C1530 C1524 1.383 . S
C1530 C1529 1.379 . S
H1531 C1525 0.959 . S
H1532 C1525 0.961 . S
H1533 C1525 0.960 . S
H1534 C1526 0.930 . S
H1535 C1527 0.929 . S
C249 C82 1.035 . S
C268 C9 1.051 . S
C285 C102 1.033 . S
C304 C29 1.058 . S
C321 C49 1.018 . S
C340 C2 1.071 . S
C357 C69 1.023 . S
C376 C22 1.052 . S
C393 C89 1.020 . S
C412 C42 1.066 . S
C429 C62 1.037 . S
C448 C109 1.039 . S
C465 C162 1.037 . S
C484 C129 1.042 . S
C501 C149 1.019 . S
C520 C182 1.068 . S
C537 C202 1.043 . S
C556 C169 1.009 . S
C573 C189 1.020 . S
C592 C222 1.068 . S
C609 C209 1.032 . S
C628 C122 1.012 . S
C645 C142 1.045 . S
C664 C229 0.992 . S
C681 C84 1.267 . S
C700 C12 1.386 . S
C717 C32 1.368 . S
C736 C104 1.299 . S
C753 C52 1.372 . S
C772 C4 1.278 . S
C789 C72 1.371 . S
C808 C24 1.260 . S
C825 C44 1.267 . S
C844 C92 1.386 . S
C861 C64 1.257 . S
C880 C112 1.342 . S
C897 C164 1.270 . S
C916 C132 1.388 . S
C933 C152 1.372 . S
C952 C184 1.306 . S
C969 C172 1.372 . S
C988 C204 1.302 . S
C1005 C224 1.261 . S
C1024 C192 1.377 . S
C1041 C212 1.372 . S
C1060 C124 1.281 . S
C1077 C144 1.262 . S
C1096 C232 1.344 . S
C1113 C219 1.681 . S
C1132 C19 1.689 . S
C1149 C39 1.688 . S
C1168 C239 1.674 . S
C1185 C59 1.685 . S
C1204 C139 1.693 . S
C1221 C79 1.688 . S
C1240 C159 1.675 . S
C1257 C99 1.681 . S
C1276 C179 1.690 . S
C1293 C199 1.688 . S
C1312 C119 1.672 . S
C1329 C198 1.835 . S
C1348 C18 1.809 . S
C1365 C218 1.829 . S
C1384 C38 1.848 . S
C1401 C58 1.836 . S
C1420 C238 1.808 . S
C1437 C78 1.829 . S
C1456 C138 1.850 . S
C1473 C158 1.832 . S
C1492 C98 1.817 . S
C1509 C178 1.833 . S
C1528 C118 1.814 . S
