# Generated by pormake.
# Topology snp, (6)-cn, num edge types: 1
# Building blocks:
#     Node 0, Type 0, BuildingBlock: KUMJIN_clean_sbu_1, # of connection points: 6
#     Node 1, Type 0, BuildingBlock: KUMJIN_clean_sbu_1, # of connection points: 6
#     Node 2, Type 0, BuildingBlock: KUMJIN_clean_sbu_1, # of connection points: 6
#     Node 3, Type 0, BuildingBlock: KUMJIN_clean_sbu_1, # of connection points: 6
#     Edge 4, Type (0, 0), BuildingBlock: ZUJKAS_clean_linker_0, # of connection points: 2
#     Edge 5, Type (0, 0), BuildingBlock: ZUJKAS_clean_linker_0, # of connection points: 2
#     Edge 6, Type (0, 0), BuildingBlock: ZUJKAS_clean_linker_0, # of connection points: 2
#     Edge 7, Type (0, 0), BuildingBlock: ZUJKAS_clean_linker_0, # of connection points: 2
#     Edge 8, Type (0, 0), BuildingBlock: ZUJKAS_clean_linker_0, # of connection points: 2
#     Edge 9, Type (0, 0), BuildingBlock: ZUJKAS_clean_linker_0, # of connection points: 2
#     Edge 10, Type (0, 0), BuildingBlock: ZUJKAS_clean_linker_0, # of connection points: 2
#     Edge 11, Type (0, 0), BuildingBlock: ZUJKAS_clean_linker_0, # of connection points: 2
#     Edge 12, Type (0, 0), BuildingBlock: ZUJKAS_clean_linker_0, # of connection points: 2
#     Edge 13, Type (0, 0), BuildingBlock: ZUJKAS_clean_linker_0, # of connection points: 2
#     Edge 14, Type (0, 0), BuildingBlock: ZUJKAS_clean_linker_0, # of connection points: 2
#     Edge 15, Type (0, 0), BuildingBlock: ZUJKAS_clean_linker_0, # of connection points: 2
# Relax obj value: 0.196
# Max RMSD: 0.234
# Mean RMSD: 0.234
data_MOF--net-snp--node1-KUMJIN_clean_sbu_1--edge1-ZUJKAS_clean_linker_0
_symmetry_space_group_name_H-M    P1
_symmetry_Int_Tables_number       1
_symmetry_cell_setting            triclinic
loop_
_symmetry_equiv_pos_as_xyz
'x, y, z'
_cell_length_a     31.256053
_cell_length_b     31.303348
_cell_length_c     40.981396
_cell_angle_alpha  107.78487
_cell_angle_beta   72.249434
_cell_angle_gamma 155.15814
loop_
_atom_site_label
_atom_site_type_symbol
_atom_site_fract_x
_atom_site_fract_y
_atom_site_fract_z
_atom_type_partial_charge
Eu0 Eu 0.95545 0.74201 0.08897 0.0
C1 C 0.46905 0.27192 0.09994 0.0
N2 N 0.52494 0.34685 0.12574 0.0
C3 C 0.39232 0.28293 0.14423 0.0
C4 C 0.37421 0.20245 0.09413 0.0
C5 C 0.48715 0.35181 0.14839 0.0
C6 C 0.33701 0.21 0.11634 0.0
C7 C 0.44292 0.17771 0.05599 0.0
C8 C 0.50279 0.25949 0.08113 0.0
C9 C 0.35151 0.11221 0.04862 0.0
C10 C 0.31715 0.1245 0.06769 0.0
Eu11 Eu 0.68393 0.45937 0.13053 0.0
N12 N 0.5915 0.32403 0.08888 0.0
C13 C 0.47416 0.16121 0.04035 0.0
C14 C 0.6174 0.30303 0.07606 0.0
C15 C 0.56004 0.22223 0.05122 0.0
H16 H 0.52977 0.40817 0.16999 0.0
H17 H 0.58228 0.20733 0.04042 0.0
H18 H 0.11721 0.8002 0.0538 0.0
H19 H 0.02891 0.97233 0.17894 0.0
H20 H 0.68283 0.34947 0.0848 0.0
H21 H 0.42992 0.09877 0.02109 0.0
H22 H 0.93277 0.82958 0.13576 0.0
H23 H 0.36136 0.28513 0.16295 0.0
H24 H 0.30476 0.04932 0.02921 0.0
H25 H 0.24442 0.07086 0.06272 0.0
H26 H 0.28453 0.92519 0.06523 0.0
H27 H 0.2634 0.15663 0.11321 0.0
H28 H 0.19305 0.09873 0.19613 0.0
N29 N 0.11838 0.86236 0.09481 0.0
C30 C 0.17254 0.939 0.1197 0.0
C31 C 0.25333 0.92918 0.08097 0.0
C32 C 0.26873 0.01251 0.12684 0.0
C33 C 0.15841 0.85822 0.07471 0.0
C34 C 0.30804 0.00573 0.10748 0.0
N35 N 0.04062 0.87454 0.12989 0.0
C36 C 0.00479 0.88528 0.14319 0.0
C37 C 0.1905 0.02833 0.16181 0.0
C38 C 0.1336 0.9465 0.13723 0.0
C39 C 0.15156 0.03683 0.17718 0.0
C40 C 0.05899 0.96575 0.16747 0.0
H41 H 0.38183 0.06094 0.11212 0.0
H42 H 0.39692 0.14781 0.15851 0.0
H43 H 0.32868 0.16191 0.1891 0.0
O44 O 0.93748 0.77685 0.0628 0.0
O45 O 0.93109 0.7395 0.14913 0.0
O46 O 0.75755 0.5856 0.16614 0.0
O47 O 0.06477 0.84558 0.04731 0.0
O48 O 0.79955 0.6293 0.08566 0.0
O49 O 0.70347 0.55052 0.13562 0.0
O50 O 0.69312 0.41675 0.15656 0.0
O51 O 0.70655 0.46251 0.07212 0.0
O52 O 0.87761 0.61468 0.05128 0.0
O53 O 0.57293 0.35834 0.17254 0.0
O54 O 0.84512 0.58103 0.13111 0.0
O55 O 0.94247 0.6545 0.08191 0.0
C56 C 0.8538 0.68005 0.17318 0.0
C57 C 0.99298 0.80453 1.00336 0.0
C58 C 0.95939 0.80156 0.9542 0.0
C59 C 0.94779 0.74611 0.93426 0.0
C60 C 0.98021 0.74889 0.98225 0.0
C61 C 0.95808 0.7203 0.94812 0.0
C62 C 0.98323 0.8317 0.98908 0.0
C63 C 0.73253 0.59126 0.1097 0.0
C64 C 0.0138 0.83094 0.04018 0.0
C65 C 0.32339 0.09133 0.15251 0.0
C66 C 0.28446 0.0993 0.16993 0.0
C67 C 0.77944 0.51943 0.04709 0.0
C68 C 0.63866 0.39298 0.21543 0.0
C69 C 0.57965 0.33859 0.27297 0.0
C70 C 0.67037 0.44175 0.28541 0.0
C71 C 0.72904 0.49518 0.22824 0.0
C72 C 0.56454 0.31509 0.23774 0.0
C73 C 0.74446 0.51928 0.26312 0.0
C74 C 0.89262 0.59448 0.10507 0.0
C75 C 0.61848 0.36672 0.17927 0.0
H76 H 0.93169 0.72323 0.90748 0.0
H77 H 0.98641 0.72639 0.99224 0.0
H78 H 0.94832 0.67724 0.93225 0.0
H79 H 0.9923 0.87414 1.00509 0.0
H80 H 0.68368 0.46271 0.31243 0.0
H81 H 0.78709 0.55615 0.21133 0.0
H82 H 0.49548 0.23633 0.2275 0.0
H83 H 0.81374 0.5983 0.27298 0.0
Eu84 Eu 0.74462 0.94875 0.61008 0.0
C85 C 0.27091 0.45694 0.59405 0.0
N86 N 0.35028 0.51623 0.56996 0.0
C87 C 0.28898 0.3858 0.55136 0.0
C88 C 0.20038 0.36134 0.59909 0.0
C89 C 0.35911 0.48152 0.5481 0.0
C90 C 0.21107 0.32675 0.57764 0.0
C91 C 0.17221 0.42694 0.63645 0.0
C92 C 0.25653 0.48906 0.61229 0.0
C93 C 0.1051 0.33427 0.64292 0.0
C94 C 0.11902 0.30142 0.62421 0.0
Eu95 Eu 0.46474 0.67645 0.56696 0.0
N96 N 0.32385 0.58017 0.60603 0.0
C97 C 0.15745 0.45953 0.65316 0.0
C98 C 0.30469 0.60779 0.61994 0.0
C99 C 0.22316 0.5496 0.64453 0.0
H100 H 0.41975 0.52751 0.52788 0.0
H101 H 0.21112 0.57423 0.657 0.0
H102 H 0.79684 0.10589 0.64433 0.0
H103 H 0.98441 0.03314 0.52078 0.0
H104 H 0.35451 0.67636 0.61289 0.0
H105 H 0.09416 0.41449 0.6721 0.0
H106 H 0.84507 0.9386 0.56571 0.0
H107 H 0.29477 0.3575 0.53343 0.0
H108 H 0.04056 0.28612 0.66163 0.0
H109 H 0.06471 0.22816 0.6286 0.0
H110 H 0.91423 0.26754 0.63129 0.0
H111 H 0.15669 0.25255 0.58025 0.0
H112 H 0.09859 0.18745 0.50037 0.0
N113 N 0.85831 0.107 0.60264 0.0
C114 C 0.93308 0.1602 0.57694 0.0
C115 C 0.9195 0.23752 0.61556 0.0
C116 C 1.00259 0.25349 0.56895 0.0
C117 C 0.85279 0.14576 0.62273 0.0
C118 C 0.99372 0.29085 0.58824 0.0
N119 N 0.87791 0.03584 0.56875 0.0
C120 C 0.89536 0.00631 0.55684 0.0
C121 C 0.0247 0.18103 0.53459 0.0
C122 C 0.94406 0.12441 0.55984 0.0
C123 C 0.03768 0.14624 0.51991 0.0
C124 C 0.97386 0.05955 0.53154 0.0
H125 H 0.04597 0.36248 0.58301 0.0
H126 H 0.13432 0.3796 0.53626 0.0
H127 H 0.15371 0.31626 0.50621 0.0
O128 O 0.78916 0.94086 0.63627 0.0
O129 O 0.7405 0.91832 0.55019 0.0
O130 O 0.58999 0.74378 0.53572 0.0
O131 O 0.85133 0.06343 0.65083 0.0
O132 O 0.6335 0.79564 0.61752 0.0
O133 O 0.55093 0.69258 0.5681 0.0
O134 O 0.44748 0.70122 0.5325 0.0
O135 O 0.46389 0.70065 0.62543 0.0
O136 O 0.61617 0.8696 0.64788 0.0
O137 O 0.35496 0.55928 0.52745 0.0
O138 O 0.58432 0.83619 0.56599 0.0
O139 O 0.6545 0.93236 0.6156 0.0
C140 C 0.68541 0.83886 0.52827 0.0
C141 C 0.82592 0.00516 0.69498 0.0
C142 C 0.84564 0.99275 0.74342 0.0
C143 C 0.79567 0.98631 0.76546 0.0
C144 C 0.77577 -0.0023 0.71801 0.0
C145 C 0.76054 0.98799 0.75282 0.0
C146 C 0.85981 0.00119 0.7078 0.0
C147 C 0.58811 0.72172 0.59579 0.0
C148 C 0.84365 0.01864 0.658 0.0
C149 C 0.08048 0.30799 0.54278 0.0
C150 C 0.09148 0.27185 0.52564 0.0
C151 C 0.51909 0.7715 0.65126 0.0
C152 C 0.40449 0.62022 0.47676 0.0
C153 C 0.34368 0.5492 0.41925 0.0
C154 C 0.43948 0.61602 0.40532 0.0
C155 C 0.49965 0.68697 0.46231 0.0
C156 C 0.32709 0.55205 0.45523 0.0
C157 C 0.51688 0.68465 0.42676 0.0
C158 C 0.59556 0.88233 0.59174 0.0
C159 C 0.38247 0.61548 0.51419 0.0
H160 H 0.78284 0.97895 0.79268 0.0
H161 H 0.74891 0.00026 0.7091 0.0
H162 H 0.72168 0.98231 0.7702 0.0
H163 H 0.8985 0.00663 0.69041 0.0
H164 H 0.4544 0.61451 0.37787 0.0
H165 H 0.56003 0.7399 0.47852 0.0
H166 H 0.25414 0.50149 0.46664 0.0
H167 H 0.59013 0.7355 0.41579 0.0
Eu168 Eu 0.8271 0.02076 0.05747 0.0
C169 C 0.34578 0.55281 0.06812 0.0
N170 N 0.39804 0.62915 0.09288 0.0
C171 C 0.26432 0.56346 0.10274 0.0
C172 C 0.25159 0.48038 0.05893 0.0
C173 C 0.35795 0.63418 0.11078 0.0
C174 C 0.21149 0.48699 0.07644 0.0
C175 C 0.33238 0.4664 0.0271 0.0
C176 C 0.38499 0.54506 0.05256 0.0
C177 C 0.24037 0.39635 0.01703 0.0
C178 C 0.19981 0.40297 0.03304 0.0
Eu179 Eu 0.55788 0.74741 0.10253 0.0
N180 N 0.4756 0.61551 0.06213 0.0
C181 C 0.37303 0.45954 1.01302 0.0
C182 C 0.51209 0.60536 0.05038 0.0
C183 C 0.46221 0.52817 0.02516 0.0
H184 H 0.39779 0.69231 0.13144 0.0
H185 H 0.49312 0.52233 1.01485 0.0
H186 H 0.97473 0.06429 0.0168 0.0
H187 H 0.9308 0.27273 0.14966 0.0
H188 H 0.58192 0.65963 0.05949 0.0
H189 H 0.3348 0.40006 0.99341 0.0
H190 H 0.82476 0.12619 0.10697 0.0
H191 H 0.23277 0.56775 0.11689 0.0
H192 H 0.19876 0.33535 0.99746 0.0
H193 H 0.12761 0.34698 0.02555 0.0
H194 H 0.14538 0.18902 0.02102 0.0
H195 H 0.13888 0.43223 0.07036 0.0
H196 H 0.09307 0.39101 0.16338 0.0
N197 N 0.98691 0.13326 0.05988 0.0
C198 C 0.04714 0.21247 0.08417 0.0
C199 C 0.11718 0.19419 0.03984 0.0
C200 C 0.14314 0.28264 0.08856 0.0
C201 C 0.02108 0.12433 0.03726 0.0
C202 C 0.17695 0.27144 0.06639 0.0
N203 N 0.92284 0.15859 0.09824 0.0
C204 C 0.89433 0.1766 0.11328 0.0
C205 C 0.07852 0.31141 0.12749 0.0
C206 C 0.01526 0.22678 0.1034 0.0
C207 C 0.04641 0.32659 0.14482 0.0
C208 C 0.95475 0.25987 0.13721 0.0
H209 H 0.25112 0.32498 0.06852 0.0
H210 H 0.27809 0.41874 0.11751 0.0
H211 H 0.22129 0.44372 0.15168 0.0
O212 O 0.81832 0.06281 0.0305 0.0
O213 O 0.81417 0.02202 0.11548 0.0
O214 O 0.64602 0.88279 0.13765 0.0
O215 O 0.93946 0.12234 1.01583 0.0
O216 O 0.66938 0.9073 0.05824 0.0
O217 O 0.57931 0.84198 0.10915 0.0
O218 O 0.57004 0.71378 0.13466 0.0
O219 O 0.57682 0.74469 0.04261 0.0
O220 O 0.74844 0.89076 0.02266 0.0
O221 O 0.43905 0.63924 0.1424 0.0
O222 O 0.70578 0.84398 0.10288 0.0
O223 O 0.80374 0.92662 0.05298 0.0
C224 C 0.74462 0.97123 0.14152 0.0
C225 C 0.88178 0.09602 0.97243 0.0
C226 C 0.94353 0.1632 0.91823 0.0
C227 C 0.86839 0.06574 0.90163 0.0
C228 C 0.80692 -0.00057 0.95559 0.0
C229 C 0.80003 0.98446 0.92033 0.0
C230 C 0.94874 0.17698 0.9539 0.0
C231 C 0.62552 0.89775 0.08483 0.0
C232 C 0.89562 0.11569 1.00884 0.0
C233 C 0.20426 0.36433 0.11369 0.0
C234 C 0.17211 0.37879 0.13306 0.0
C235 C 0.65057 0.79518 0.01817 0.0
C236 C 0.49205 0.67005 0.19195 0.0
C237 C 0.5151 0.66889 0.24433 0.0
C238 C 0.48801 0.6888 0.26403 0.0
C239 C 0.46899 0.69318 0.2129 0.0
C240 C 0.51564 0.65831 0.20786 0.0
C241 C 0.4666 0.70191 0.24849 0.0
C242 C 0.77599 0.88695 0.07897 0.0
C243 C 0.4872 0.65447 0.15387 0.0
H244 H 0.86306 0.05228 0.87413 0.0
H245 H 0.75476 0.93619 0.96959 0.0
H246 H 0.74216 0.90988 0.90738 0.0
H247 H 0.00498 0.25071 0.96748 0.0
H248 H 0.48196 0.69328 0.29182 0.0
H249 H 0.45129 0.70333 0.20181 0.0
H250 H 0.53486 0.64182 0.19188 0.0
H251 H 0.44699 0.71809 0.26425 0.0
Eu252 Eu 0.02461 0.80572 0.63963 0.0
C253 C 0.56708 0.33989 0.62297 0.0
N254 N 0.63905 0.3925 0.59628 0.0
C255 C 0.57893 0.26264 0.58112 0.0
C256 C 0.50201 0.24931 0.63108 0.0
C257 C 0.64247 0.35281 0.57433 0.0
C258 C 0.50991 0.21183 0.61003 0.0
C259 C 0.47379 0.31558 0.66642 0.0
C260 C 0.5516 0.37117 0.64 0.0
C261 C 0.41488 0.23054 0.67675 0.0
C262 C 0.42823 0.19681 0.65884 0.0
Eu263 Eu 0.75006 0.55033 0.59036 0.0
N264 N 0.6085 0.45247 0.62901 0.0
C265 C 0.45362 0.34354 0.68005 0.0
C266 C 0.57993 0.47088 0.63856 0.0
C267 C 0.50298 0.41767 0.66476 0.0
H268 H 0.69473 0.39102 0.55165 0.0
H269 H 0.48409 0.43601 0.67381 0.0
H270 H 0.06275 0.94407 0.69366 0.0
H271 H 0.2856 0.93723 0.53675 0.0
H272 H 0.62178 0.53156 0.62768 0.0
H273 H 0.39509 0.30351 0.70066 0.0
H274 H 0.13941 0.82017 0.58048 0.0
H275 H 0.58279 0.23207 0.56398 0.0
H276 H 0.35495 0.18694 0.69718 0.0
H277 H 0.3786 0.12804 0.66582 0.0
H278 H 0.16589 0.10327 0.69248 0.0
H279 H 0.46003 0.14145 0.61487 0.0
H280 H 0.39268 0.09684 0.53064 0.0
N281 N 0.13173 0.96466 0.6463 0.0
C282 C 0.20738 0.02809 0.62101 0.0
C283 C 0.17762 0.08248 0.67209 0.0
C284 C 0.26782 0.11937 0.61935 0.0
C285 C 0.11985 -0.00707 0.67278 0.0
C286 C 0.24929 0.14396 0.6446 0.0
N287 N 0.1642 0.91245 0.59829 0.0
C288 C 0.18656 0.88994 0.57795 0.0
C289 C 0.30903 0.07118 0.57219 0.0
C290 C 0.22656 0.00329 0.59719 0.0
C291 C 0.32957 0.04631 0.55003 0.0
C292 C 0.26913 0.95614 0.55333 0.0
H293 H 0.2928 0.21239 0.64373 0.0
H294 H 0.39307 0.25458 0.59148 0.0
H295 H 0.43056 0.21348 0.55067 0.0
O296 O 0.07274 0.79186 0.6539 0.0
O297 O 0.02623 0.80231 0.58258 0.0
O298 O 0.88675 0.63766 0.55762 0.0
O299 O 0.11634 0.89743 0.68425 0.0
O300 O 0.89294 0.63931 0.63423 0.0
O301 O 0.83658 0.56162 0.58219 0.0
O302 O 0.74753 0.58857 0.55463 0.0
O303 O 0.74508 0.5796 0.65001 0.0
O304 O 0.89295 0.71173 0.67898 0.0
O305 O 0.63509 0.43672 0.55248 0.0
O306 O 0.85346 0.70414 0.59877 0.0
O307 O 0.93994 0.7947 0.64841 0.0
C308 C 0.97528 0.73656 0.55543 0.0
C309 C 0.22366 0.93251 0.68301 0.0
C310 C 0.35297 0.03833 0.72011 0.0
C311 C 0.40654 0.05734 0.69109 0.0
C312 C 0.27792 0.95158 0.65462 0.0
C313 C 0.36879 0.01371 0.65869 0.0
C314 C 0.26154 0.97612 0.71571 0.0
C315 C 0.88486 0.5978 0.60701 0.0
C316 C 0.12378 0.86108 0.67944 0.0
C317 C 0.34627 0.18434 0.59322 0.0
C318 C 0.36776 0.16104 0.57001 0.0
C319 C 0.79456 0.63091 0.67852 0.0
C320 C 0.68216 0.49431 0.49961 0.0
C321 C 0.67926 0.50879 0.44415 0.0
C322 C 0.68315 0.46561 0.42736 0.0
C323 C 0.69066 0.45617 0.48126 0.0
C324 C 0.67781 0.52192 0.48086 0.0
C325 C 0.69045 0.44148 0.44561 0.0
C326 C 0.89954 0.77213 0.62492 0.0
C327 C 0.67214 0.49928 0.53812 0.0
H328 H 0.47794 0.10623 0.69338 0.0
H329 H 0.24974 0.91779 0.62937 0.0
H330 H 0.41012 0.02804 0.63661 0.0
H331 H 0.21804 0.95885 0.7378 0.0
H332 H 0.67897 0.44828 0.39987 0.0
H333 H 0.69529 0.43544 0.49456 0.0
H334 H 0.67342 0.55338 0.49493 0.0
H335 H 0.69447 0.40954 0.43195 0.0
H336 H 0.84325 0.86322 0.04349 0.0
H337 H 1.00315 0.97341 0.05164 0.0
H338 H 0.0499 0.13157 0.13917 0.0
H339 H 0.88499 0.01237 0.13386 0.0
H340 H 0.16667 0.14843 0.03985 0.0
H341 H 0.18477 0.1707 0.17358 0.0
H342 H 0.06483 0.071 0.15754 0.0
H343 H 0.14668 0.19177 0.17571 0.0
C344 C 0.88552 0.91774 0.06564 0.0
C345 C 0.85284 0.92983 0.08832 0.0
C346 C 0.97717 0.98138 0.07014 0.0
C347 C 0.03931 0.06108 0.09626 0.0
C348 C 1.00273 0.06868 0.11983 0.0
H349 H 0.66859 0.61912 0.14224 0.0
H350 H 0.5103 0.51051 0.13286 0.0
C351 C 0.90876 0.0014 0.11649 0.0
C352 C 0.14852 0.14726 0.09504 0.0
H353 H 0.34555 0.33304 0.14605 0.0
C354 C 0.20523 0.18798 0.06317 0.0
C355 C 0.20021 0.19919 0.12514 0.0
C356 C 0.14515 0.15469 0.15973 0.0
C357 C 0.31181 0.28211 0.06081 0.0
C358 C 0.36335 0.3341 0.09092 0.0
C359 C 0.30678 0.2935 0.12277 0.0
C360 C 0.47203 0.41935 0.08974 0.0
C361 C 0.36728 0.32619 0.02617 0.0
C362 C 0.50627 0.40843 0.06741 0.0
C363 C 0.59817 0.47305 0.07184 0.0
C364 C 0.65522 0.54686 0.09948 0.0
C365 C 0.62529 0.56271 0.1206 0.0
C366 C 0.53495 0.50047 0.11531 0.0
H367 H 0.32855 0.31092 1.01207 0.0
H368 H 0.44795 0.40971 0.02829 0.0
H369 H 0.36493 0.28825 1.01051 0.0
H370 H 0.45807 0.34435 0.04852 0.0
H371 H 0.619 0.45816 0.05589 0.0
H372 H 0.8778 0.83767 0.66906 0.0
H373 H 0.98246 -0.00347 0.66617 0.0
H374 H 0.13756 0.05256 0.57214 0.0
H375 H 0.02326 0.88907 0.57257 0.0
H376 H 0.16152 0.16797 0.67443 0.0
H377 H 0.14947 0.16704 0.54362 0.0
H378 H 0.05397 0.05027 0.56071 0.0
H379 H 0.17246 0.13039 0.53913 0.0
C380 C 0.93047 0.88203 0.64687 0.0
C381 C 0.94236 0.85182 0.62063 0.0
C382 C 0.99093 0.973 0.64534 0.0
C383 C 0.06693 0.03646 0.6184 0.0
C384 C 0.07606 0.00357 0.59201 0.0
H385 H 0.60767 0.64971 0.56575 0.0
H386 H 0.49747 0.49319 0.57874 0.0
C387 C 0.01192 0.91057 0.59254 0.0
C388 C 0.14702 0.14285 0.62012 0.0
H389 H 0.31432 0.33067 0.5682 0.0
C390 C 0.19271 0.20285 0.65135 0.0
C391 C 0.18895 0.18966 0.59022 0.0
C392 C 0.13734 0.13011 0.55679 0.0
C393 C 0.28209 0.30869 0.65299 0.0
C394 C 0.32657 0.35555 0.62258 0.0
C395 C 0.28057 0.29536 0.59159 0.0
C396 C 0.41325 0.46411 0.62214 0.0
C397 C 0.32954 0.36881 0.68701 0.0
C398 C 0.40697 0.5031 0.64351 0.0
C399 C 0.4732 0.59475 0.63704 0.0
C400 C 0.54313 0.64591 0.6083 0.0
C401 C 0.5543 0.6111 0.5882 0.0
C402 C 0.49119 0.52178 0.59558 0.0
H403 H 0.31664 0.33359 0.70235 0.0
H404 H 0.41287 0.44919 0.68377 0.0
H405 H 0.29257 0.3679 0.70201 0.0
H406 H 0.34582 0.45906 0.66338 0.0
H407 H 0.46332 0.6205 0.65252 0.0
H408 H 0.6527 0.95871 0.03241 0.0
H409 H 0.69951 0.07777 0.03585 0.0
H410 H 0.66127 0.08154 0.14632 0.0
H411 H 0.61562 0.96266 0.14303 0.0
H412 H 0.5825 0.075 0.11584 0.0
H413 H 0.98136 0.38326 0.06676 0.0
H414 H 0.88555 0.26521 0.04057 0.0
H415 H 0.89544 0.27061 0.08319 0.0
C416 C 0.65444 0.98493 0.05753 0.0
C417 C 0.63376 0.95373 0.08749 0.0
C418 C 0.68125 0.05315 0.05942 0.0
C419 C 0.68718 0.09144 0.09134 0.0
C420 C 0.6587 0.0543 0.12136 0.0
H421 H 0.86742 0.5338 0.15646 0.0
H422 H 0.81997 0.41393 0.15212 0.0
C423 C 0.6318 0.98567 0.11947 0.0
C424 C 0.7253 0.17165 0.09301 0.0
H425 H 0.93359 0.41501 0.07176 0.0
C426 C 0.6594 0.14946 0.10639 0.0
C427 C 0.82569 0.26903 0.08052 0.0
C428 C 0.90163 0.29921 0.06721 0.0
C429 C 0.69041 0.22096 0.10705 0.0
C430 C 0.79075 0.31829 0.09455 0.0
C431 C 0.85664 0.34048 0.08115 0.0
C432 C 0.82914 0.3988 0.0966 0.0
C433 C 0.61477 0.19113 0.12057 0.0
C434 C 0.85576 0.43509 0.06681 0.0
C435 C 0.88301 0.50417 0.06923 0.0
C436 C 0.88334 0.53741 0.10153 0.0
C437 C 0.86431 0.50685 0.13117 0.0
C438 C 0.83706 0.43814 0.12875 0.0
H439 H 0.53502 0.10718 0.12139 0.0
H440 H 0.63187 0.22621 0.14707 0.0
H441 H 0.62035 0.21903 0.10447 0.0
H442 H 0.85148 0.40688 0.04167 0.0
H443 H 0.89774 0.52661 0.04592 0.0
H444 H 0.52534 0.8869 0.64947 0.0
H445 H 0.40704 0.84184 0.65175 0.0
H446 H 0.41913 0.81149 0.54113 0.0
H447 H 0.53786 0.85792 0.53875 0.0
H448 H 0.42231 0.90943 0.57199 0.0
H449 H 0.10399 0.54359 0.62857 0.0
H450 H 0.21971 0.65668 0.65067 0.0
H451 H 0.21914 0.61718 0.60807 0.0
C452 C 0.50421 0.8725 0.62568 0.0
C453 C 0.5386 0.8729 0.59393 0.0
C454 C 0.43562 0.84556 0.62698 0.0
C455 C 0.40179 0.82055 0.59657 0.0
C456 C 0.44242 0.82869 0.56495 0.0
H457 H 0.97484 0.62063 0.54718 0.0
H458 H 0.09724 0.67004 0.5425 0.0
C459 C 0.50985 0.85452 0.56366 0.0
C460 C 0.32145 0.78217 0.59734 0.0
H461 H 0.06919 0.58158 0.62043 0.0
C462 C 0.34513 0.83787 0.58267 0.0
C463 C 0.22016 0.68807 0.61076 0.0
C464 C 0.18832 0.62205 0.6252 0.0
C465 C 0.27141 0.80357 0.58192 0.0
C466 C 0.16996 0.70944 0.59558 0.0
C467 C 0.14645 0.65359 0.60997 0.0
C468 C 0.08839 0.66984 0.59703 0.0
C469 C 0.30409 0.87001 0.56711 0.0
C470 C 0.03635 0.64551 0.62865 0.0
C471 C 0.96487 0.61496 0.63114 0.0
C472 C 0.94516 0.61034 0.60228 0.0
C473 C 0.99007 0.62572 0.57004 0.0
C474 C 0.06145 0.6557 0.56747 0.0
H475 H 0.38774 0.95097 0.56779 0.0
H476 H 0.28496 0.84329 0.53988 0.0
H477 H 0.26433 0.86618 0.58116 0.0
H478 H 0.05353 0.65349 0.6518 0.0
H479 H 0.92878 0.6001 0.65617 0.0
H480 H 0.62295 0.69964 0.49385 0.0
H481 H 0.68741 0.70887 0.43905 0.0
H482 H 0.92139 0.01377 0.43159 0.0
H483 H 0.85242 0.00398 0.48699 0.0
H484 H 0.86998 0.93814 0.3651 0.0
H485 H 0.86997 0.7713 0.416 0.0
H486 H 0.80354 0.76119 0.44392 0.0
H487 H 0.93736 0.88316 0.43478 0.0
C488 C 0.68869 0.76968 0.48104 0.0
C489 C 0.73328 0.85189 0.49537 0.0
C490 C 0.72672 0.77507 0.44972 0.0
C491 C 0.81173 0.86275 0.43174 0.0
C492 C 0.85661 0.94546 0.44534 0.0
H493 H 0.03537 0.87148 0.20463 0.0
H494 H 0.05399 0.93654 0.264 0.0
C495 C 0.81773 0.94019 0.47708 0.0
C496 C 0.84622 0.8616 0.39801 0.0
H497 H 0.88981 0.76722 0.34692 0.0
C498 C 0.87321 0.90548 0.36195 0.0
C499 C 0.85119 0.80692 0.39287 0.0
C500 C 0.86518 0.8041 0.42355 0.0
C501 C 0.90008 0.89028 0.31969 0.0
C502 C 0.89787 0.82967 0.31402 0.0
C503 C 0.87653 0.79036 0.35033 0.0
C504 C 0.89244 0.79327 0.27895 0.0
C505 C 0.91693 0.92208 0.28928 0.0
C506 C 0.79619 0.69222 0.26767 0.0
C507 C 0.78515 0.65692 0.23364 0.0
C508 C 0.87053 0.72112 0.20974 0.0
C509 C 0.96791 0.8214 0.22163 0.0
C510 C 0.97869 0.858 0.25578 0.0
H511 H 0.91392 0.95656 0.29732 0.0
H512 H 0.99217 0.97757 0.27586 0.0
H513 H 0.85759 0.85465 0.27101 0.0
H514 H 0.72843 0.64078 0.28496 0.0
H515 H 0.70851 0.57858 0.22616 0.0
H516 H 0.34641 0.5784 0.6698 0.0
H517 H 0.27286 0.5186 0.72662 0.0
H518 H 0.51134 0.82406 0.77086 0.0
H519 H 0.58289 0.88464 0.71275 0.0
H520 H 0.43896 0.65238 0.78063 0.0
H521 H 0.17644 0.56344 0.81584 0.0
H522 H 0.19411 0.54681 0.77115 0.0
H523 H 0.29864 0.67246 0.79225 0.0
C524 C 0.38101 0.63269 0.69118 0.0
C525 C 0.46973 0.73613 0.68637 0.0
C526 C 0.33953 0.59838 0.72387 0.0
C527 C 0.38662 0.66687 0.75276 0.0
C528 C 0.47384 0.77014 0.74865 0.0
H529 H 0.14561 0.36555 0.92899 0.0
H530 H 0.26487 0.5075 0.89652 0.0
C531 C 0.51478 0.80453 0.71552 0.0
C532 C 0.34718 0.62824 0.78648 0.0
H533 H 0.14145 0.47645 0.84382 0.0
C534 C 0.37601 0.61651 0.79539 0.0
C535 C 0.26452 0.5808 0.80497 0.0
C536 C 0.23132 0.59148 0.79584 0.0
C537 C 0.31848 0.55092 0.82048 0.0
C538 C 0.23149 0.49815 0.83769 0.0
C539 C 0.20784 0.51663 0.83056 0.0
C540 C 0.15742 0.41468 0.85983 0.0
C541 C 0.34639 0.53227 0.82606 0.0
C542 C 0.05597 0.31578 0.85093 0.0
C543 C 0.9864 0.23466 0.87008 0.0
C544 C 0.01697 0.2504 0.89845 0.0
C545 C 0.11849 0.35018 0.90763 0.0
C546 C 0.18755 0.43159 0.88877 0.0
H547 H 0.40182 0.56215 0.80554 0.0
H548 H 0.382 0.57137 0.85091 0.0
H549 H 0.27751 0.44957 0.82697 0.0
H550 H 0.03087 0.3009 0.82872 0.0
H551 H 0.90862 0.15968 0.86259 0.0
H552 H 0.75055 0.55993 0.37587 0.0
H553 H 0.73557 0.59546 0.34081 0.0
H554 H 0.58665 0.56103 0.4261 0.0
H555 H 0.59232 0.51617 0.46146 0.0
H556 H 0.51963 0.46713 0.35425 0.0
H557 H 0.03502 0.01889 0.35423 0.0
H558 H 0.03555 0.96502 0.34965 0.0
H559 H 0.01222 0.98071 0.38798 0.0
C560 C 0.71519 0.56055 0.388 0.0
C561 C 0.67612 0.53816 0.42281 0.0
C562 C 0.71054 0.58534 0.3678 0.0
C563 C 0.67701 0.59983 0.38227 0.0
C564 C 0.62794 0.56686 0.41566 0.0
H565 H 0.61194 0.77257 0.30445 0.0
H566 H 0.64153 0.74928 0.33772 0.0
C567 C 0.62964 0.53907 0.43587 0.0
C568 C 0.67427 0.62967 0.36077 0.0
H569 H 0.74817 0.74426 0.34373 0.0
C570 C 0.5758 0.54078 0.34865 0.0
C571 C 0.76144 0.74255 0.35118 0.0
C572 C 0.98197 0.94629 0.36166 0.0
C573 C 0.54334 0.53914 0.32996 0.0
C574 C 0.609 0.62999 0.32209 0.0
C575 C 0.70727 0.72346 0.33303 0.0
C576 C 0.5806 0.6352 0.30193 0.0
C577 C 0.4338 0.43686 0.32036 0.0
C578 C 0.53804 0.58101 0.26971 0.0
C579 C 0.51796 0.59229 0.25063 0.0
C580 C 0.54173 0.65972 0.26284 0.0
C581 C 0.58833 0.71679 0.29436 0.0
C582 C 0.60638 0.7041 0.31357 0.0
H583 H 0.38388 0.37823 0.33776 0.0
H584 H 0.40219 0.44145 0.32117 0.0
H585 H 0.43014 0.41026 0.29393 0.0
H586 H 0.52153 0.53087 0.25893 0.0
H587 H 0.48268 0.54717 0.22652 0.0
H588 H 0.3544 0.1192 0.77254 0.0
H589 H 0.42479 0.19637 0.8287 0.0
H590 H 0.51163 0.13526 0.80208 0.0
H591 H 0.43915 0.05546 0.7464 0.0
H592 H 0.37896 0.09533 0.88104 0.0
H593 H 0.77781 0.4646 0.82759 0.0
H594 H 0.669 0.3806 0.80805 0.0
H595 H 0.69576 0.34725 0.80396 0.0
C596 C 0.38701 0.1207 0.77881 0.0
C597 C 0.39183 0.08183 0.7548 0.0
C598 C 0.42745 0.16511 0.81083 0.0
C599 C 0.4736 0.17168 0.81931 0.0
C600 C 0.47671 0.13123 0.79583 0.0
H601 H 0.72392 0.3859 1.00868 0.0
H602 H 0.6468 0.29699 0.95293 0.0
C603 C 0.43599 0.08647 0.76393 0.0
C604 C 0.52227 0.2244 0.85216 0.0
H605 H 0.75437 0.45064 0.88656 0.0
C606 C 0.46095 0.17282 0.88234 0.0
C607 C 0.62915 0.32543 0.85355 0.0
C608 C 0.69743 0.38354 0.82168 0.0
C609 C 0.50434 0.22016 0.91406 0.0
C610 C 0.6113 0.32121 0.91539 0.0
C611 C 0.67244 0.37282 0.88524 0.0
C612 C 0.6605 0.37622 0.94823 0.0
C613 C 0.436 0.16308 0.94613 0.0
C614 C 0.6949 0.45087 0.96348 0.0
C615 C 0.73705 0.49994 0.9953 0.0
C616 C 0.74675 0.47611 1.01199 0.0
C617 C 0.7156 0.40401 0.99629 0.0
C618 C 0.67215 0.35381 0.96457 0.0
H619 H 0.35376 0.08879 0.9413 0.0
H620 H 0.45134 0.14867 0.95624 0.0
H621 H 0.45276 0.20978 0.96638 0.0
H622 H 0.68681 0.46932 0.95114 0.0
H623 H 0.75988 0.5548 1.00729 0.0
H624 H 0.74334 0.79847 0.98914 0.0
H625 H 0.72439 0.72875 0.93208 0.0
H626 H 0.48722 0.59881 0.91575 0.0
H627 H 0.50451 0.66711 0.97378 0.0
H628 H 0.56282 0.53385 0.89671 0.0
H629 H 0.70606 0.79285 0.83815 0.0
H630 H 0.71187 0.8048 0.8833 0.0
H631 H 0.59255 0.70407 0.86655 0.0
C632 C 0.68616 0.75392 0.97355 0.0
C633 C 0.62654 0.73958 0.98558 0.0
C634 C 0.67527 0.7139 0.94096 0.0
C635 C 0.60653 0.66095 0.91917 0.0
C636 C 0.54247 0.64139 0.93182 0.0
H637 H 0.6773 0.60178 0.69545 0.0
H638 H 0.60617 0.58189 0.75223 0.0
C639 C 0.55189 0.67984 0.96496 0.0
C640 C 0.60895 0.63397 0.88269 0.0
H641 H 0.68528 0.70173 0.80122 0.0
C642 C 0.58872 0.56978 0.87569 0.0
C643 C 0.64168 0.67981 0.85515 0.0
C644 C 0.66499 0.74976 0.86092 0.0
C645 C 0.60208 0.55172 0.84214 0.0
C646 C 0.64155 0.6031 0.81482 0.0
C647 C 0.6573 0.6637 0.82179 0.0
C648 C 0.67185 0.59967 0.77941 0.0
C649 C 0.57159 0.47606 0.8366 0.0
C650 C 0.73207 0.61536 0.77488 0.0
C651 C 0.76628 0.61916 0.74195 0.0
C652 C 0.74395 0.61038 0.71254 0.0
C653 C 0.68732 0.59872 0.71703 0.0
C654 C 0.64972 0.59106 0.74988 0.0
H655 H 0.507 0.41551 0.85497 0.0
H656 H 0.54863 0.43917 0.81011 0.0
H657 H 0.63675 0.5158 0.84143 0.0
H658 H 0.75619 0.62857 0.79684 0.0
H659 H 0.81362 0.63275 0.73955 0.0
H660 H 0.61024 0.33469 0.32706 0.0
H661 H 0.48198 0.20233 0.36717 0.0
H662 H 0.24268 0.02121 0.3125 0.0
H663 H 0.37083 0.15575 0.2731 0.0
H664 H 0.21135 0.03127 0.38072 0.0
H665 H 0.29771 0.92904 0.35472 0.0
H666 H 0.41029 0.06366 0.36438 0.0
H667 H 0.34588 0.00367 0.32655 0.0
C668 C 0.53043 0.26701 0.32355 0.0
C669 C 0.5011 0.25603 0.29672 0.0
C670 C 0.45703 0.19051 0.34621 0.0
C671 C 0.35263 0.10066 0.34232 0.0
C672 C 0.32282 0.08928 0.31566 0.0
H673 H 0.91674 0.63486 0.49155 0.0
H674 H 0.98976 0.70401 0.43547 0.0
C675 C 0.39628 0.16609 0.29304 0.0
C676 C 0.2755 0.02241 0.36766 0.0
H677 H 0.2102 0.88772 0.4101 0.0
C678 C 0.20964 -0.00176 0.38665 0.0
C679 C 0.27151 0.97742 0.37496 0.0
C680 C 0.33441 -0.00608 0.35378 0.0
C681 C 0.14579 0.93669 0.41444 0.0
C682 C 0.14903 0.89971 0.42365 0.0
C683 C 0.20889 0.91729 0.40315 0.0
C684 C 0.10212 0.85521 0.45692 0.0
C685 C 0.0779 0.91455 0.43455 0.0
C686 C 0.14224 0.91778 0.48724 0.0
C687 C 0.1015 0.87906 0.51898 0.0
C688 C 0.01993 0.77691 0.52125 0.0
C689 C 0.97981 0.71403 0.49073 0.0
C690 C 0.0212 0.75322 0.45872 0.0
H691 H 0.06435 0.92537 0.41932 0.0
H692 H 1.00321 0.83533 0.44269 0.0
H693 H 0.11515 0.96747 0.45799 0.0
H694 H 0.20558 -0.00292 0.48635 0.0
H695 H 0.13331 0.92936 0.54172 0.0
H696 H 0.97717 0.12275 0.79405 0.0
H697 H 0.01104 0.10276 0.82716 0.0
H698 H 0.8172 0.8289 0.76382 0.0
H699 H 0.78842 0.85287 0.72977 0.0
H700 H 0.9108 0.98791 0.86823 0.0
H701 H 0.88518 0.82207 0.76289 0.0
H702 H 0.00566 0.91126 0.77074 0.0
H703 H 0.99911 0.95634 0.75932 0.0
C704 C 0.94427 0.05989 0.7866 0.0
C705 C 0.88092 0.99006 0.75894 0.0
C706 C 0.96265 0.04751 0.80591 0.0
C707 C 0.91678 0.9636 0.79879 0.0
C708 C 0.85589 0.89554 0.77024 0.0
H709 H 0.81157 0.67486 0.91176 0.0
H710 H 0.80439 0.71818 0.87631 0.0
C711 C 0.83909 0.90915 0.75046 0.0
C712 C 0.92629 0.94406 0.82291 0.0
H713 H 0.94905 0.85705 0.82681 0.0
C714 C 0.92094 0.96094 0.85874 0.0
C715 C 0.93991 0.90888 0.81156 0.0
C716 C 0.95902 0.89985 0.77407 0.0
C717 C 0.92596 0.94177 0.88298 0.0
C718 C 0.93481 0.9023 0.87158 0.0
C719 C 0.94076 0.88582 0.83589 0.0
C720 C 0.9367 0.87602 0.89579 0.0
C721 C 0.92109 0.96411 0.92058 0.0
C722 C 0.01241 0.94938 0.91953 0.0
C723 C 0.01692 0.92459 0.9401 0.0
C724 C 0.94637 0.82597 0.93726 0.0
C725 C 0.86844 0.75208 0.91447 0.0
C726 C 0.86415 0.7768 0.894 0.0
H727 H 0.87045 0.94837 0.92588 0.0
H728 H 0.89392 0.91962 0.9375 0.0
H729 H 0.99873 0.0463 0.92754 0.0
H730 H 0.07008 0.02684 0.92145 0.0
H731 H 0.07845 0.98386 0.95702 0.0
H732 H 0.93737 0.13545 0.15895 0.0
H733 H 0.99964 0.20818 0.2155 0.0
H734 H 0.69856 0.9804 0.26156 0.0
H735 H 0.63476 0.90762 0.20396 0.0
H736 H 0.94925 0.25925 0.27743 0.0
H737 H 0.83829 -0.0047 0.29571 0.0
H738 H 0.86992 0.02579 0.25264 0.0
H739 H 0.757 0.95204 0.27612 0.0
C740 C 0.88415 0.1017 0.18075 0.0
C741 C 0.7812 0.01659 0.17662 0.0
C742 C 0.92 0.143 0.21323 0.0
C743 C 0.85375 0.09969 0.24254 0.0
C744 C 0.75072 0.0148 0.23903 0.0
H745 H 0.13706 0.35193 0.42983 0.0
H746 H 1.00284 0.23528 0.39245 0.0
C747 C 0.71457 0.97347 0.20619 0.0
C748 C 0.89562 0.14532 0.27632 0.0
H749 H 0.96986 0.15395 0.32875 0.0
C750 C 0.95158 0.2349 0.28941 0.0
C751 C 0.89798 0.1129 0.29175 0.0
C752 C 0.8374 0.016 0.27859 0.0
C753 C 0.01531 0.2967 0.31629 0.0
C754 C 0.02539 0.26941 0.32963 0.0
C755 C 0.96319 0.17559 0.31825 0.0
C756 C 0.10602 0.34099 0.35303 0.0
C757 C 0.07343 0.39211 0.32938 0.0
C758 C 0.20887 0.43863 0.34306 0.0
C759 C 0.28561 0.50609 0.36456 0.0
C760 C 0.26151 0.47685 0.39634 0.0
C761 C 0.15843 0.37803 0.40594 0.0
C762 C 0.08151 0.31083 0.38448 0.0
H763 H 0.03129 0.38298 0.32613 0.0
H764 H 0.0877 0.41224 0.35693 0.0
H765 H 0.14798 0.45637 0.31431 0.0
H766 H 0.2301 0.46265 0.31844 0.0
H767 H 0.36378 0.58154 0.35632 0.0
loop_
_geom_bond_atom_site_label_1
_geom_bond_atom_site_label_2
_geom_bond_distance
_geom_bond_site_symmetry_2
_ccdc_geom_bond_type
Eu0 N29 2.600 1_655 S
Eu0 N35 2.562 . S
Eu0 O44 2.462 . S
Eu0 O45 2.373 . S
Eu0 O47 2.432 . S
Eu0 O48 2.291 . S
Eu0 O52 2.335 . S
Eu0 O55 2.372 . S
Eu0 C64 2.787 . S
C1 N2 1.365 . S
C1 C4 1.405 . S
C1 C8 1.448 . S
N2 C1 1.365 . S
N2 C5 1.319 . S
N2 Eu11 2.600 . S
C3 C5 1.397 . S
C3 C6 1.367 . S
C3 H23 0.931 . S
C4 C1 1.405 . S
C4 C6 1.403 . S
C4 C10 1.439 1_545 S
C5 N2 1.319 . S
C5 C3 1.397 . S
C5 H16 0.930 . S
C6 C3 1.367 . S
C6 C4 1.403 . S
C6 H27 0.929 1_545 S
C7 C8 1.430 . S
C7 C9 1.387 1_545 S
C7 C13 1.404 . S
C8 C1 1.448 . S
C8 C7 1.430 . S
C8 N12 1.351 . S
C9 C7 1.387 1_565 S
C9 C10 1.374 . S
C9 H24 0.931 . S
C10 C4 1.439 1_565 S
C10 C9 1.374 . S
C10 H25 0.931 . S
Eu11 N2 2.600 . S
Eu11 N12 2.562 . S
Eu11 O46 2.335 . S
Eu11 O49 2.372 . S
Eu11 O50 2.462 . S
Eu11 O51 2.373 . S
Eu11 O53 2.432 . S
Eu11 O54 2.291 . S
Eu11 C75 2.787 . S
N12 C8 1.351 . S
N12 Eu11 2.562 . S
N12 C14 1.325 . S
C13 C7 1.404 . S
C13 C15 1.366 . S
C13 H21 0.930 . S
C14 N12 1.325 . S
C14 C15 1.416 . S
C14 H20 0.929 . S
C15 C13 1.366 . S
C15 C14 1.416 . S
C15 H17 0.930 . S
H16 C5 0.930 . S
H17 C15 0.930 . S
H18 C33 0.930 . S
H19 C40 0.930 . S
H20 C14 0.929 . S
H21 C13 0.930 . S
H22 C36 0.929 . S
H23 C3 0.931 . S
H24 C9 0.931 . S
H25 C10 0.931 . S
H26 C31 0.931 . S
H27 C6 0.929 1_565 S
H28 C39 0.930 1_545 S
N29 Eu0 2.600 1_455 S
N29 C30 1.365 . S
N29 C33 1.319 . S
C30 N29 1.365 . S
C30 C32 1.405 . S
C30 C38 1.448 . S
C31 H26 0.931 . S
C31 C33 1.397 . S
C31 C34 1.367 1_565 S
C32 C30 1.405 . S
C32 C34 1.403 1_565 S
C32 C65 1.439 1_565 S
C33 H18 0.930 . S
C33 N29 1.319 . S
C33 C31 1.397 . S
C34 C31 1.367 1_545 S
C34 C32 1.403 1_545 S
C34 H41 0.929 . S
N35 Eu0 2.562 . S
N35 C36 1.325 . S
N35 C38 1.351 1_655 S
C36 H22 0.929 . S
C36 N35 1.325 . S
C36 C40 1.416 . S
C37 C38 1.430 . S
C37 C39 1.404 . S
C37 C66 1.387 1_565 S
C38 C30 1.448 . S
C38 N35 1.351 1_455 S
C38 C37 1.430 . S
C39 H28 0.930 1_565 S
C39 C37 1.404 . S
C39 C40 1.366 1_455 S
C40 H19 0.930 . S
C40 C36 1.416 . S
C40 C39 1.366 1_655 S
H41 C34 0.929 . S
H42 C65 0.931 . S
H43 C66 0.931 . S
O44 Eu0 2.462 . S
O44 C64 1.252 . S
O45 Eu0 2.373 . S
O45 C56 1.249 . S
O46 Eu11 2.335 . S
O46 C56 1.264 . S
O47 Eu0 2.432 . S
O47 C64 1.268 . S
O48 Eu0 2.291 . S
O48 C63 1.255 . S
O49 Eu11 2.372 . S
O49 C63 1.257 . S
O50 Eu11 2.462 . S
O50 C75 1.252 . S
O51 Eu11 2.373 . S
O51 C67 1.249 . S
O52 Eu0 2.335 . S
O52 C67 1.264 . S
O53 Eu11 2.432 . S
O53 C75 1.268 . S
O54 Eu11 2.291 . S
O54 C74 1.255 . S
O55 Eu0 2.372 . S
O55 C74 1.257 . S
C56 O45 1.249 . S
C56 O46 1.264 . S
C57 C60 1.382 1_655 S
C57 C62 1.390 . S
C57 C64 1.506 1_556 S
C58 C59 1.398 1_655 S
C58 C62 1.392 . S
C59 C58 1.398 1_455 S
C59 C61 1.372 . S
C59 H76 0.931 . S
C60 C57 1.382 1_455 S
C60 C61 1.390 . S
C60 H77 0.931 . S
C61 C59 1.372 . S
C61 C60 1.390 . S
C61 H78 0.929 . S
C62 C57 1.390 . S
C62 C58 1.392 . S
C62 H79 0.930 . S
C63 O48 1.255 . S
C63 O49 1.257 . S
C64 Eu0 2.787 . S
C64 O44 1.252 . S
C64 O47 1.268 . S
C64 C57 1.506 1_554 S
C65 C32 1.439 1_545 S
C65 H42 0.931 . S
C65 C66 1.374 . S
C66 C37 1.387 1_545 S
C66 H43 0.931 . S
C66 C65 1.374 . S
C67 O51 1.249 . S
C67 O52 1.264 . S
C68 C71 1.382 . S
C68 C72 1.390 . S
C68 C75 1.506 . S
C69 C70 1.398 . S
C69 C72 1.392 . S
C70 C69 1.398 . S
C70 C73 1.372 . S
C70 H80 0.931 . S
C71 C68 1.382 . S
C71 C73 1.390 . S
C71 H81 0.931 . S
C72 C68 1.390 . S
C72 C69 1.392 . S
C72 H82 0.930 . S
C73 C70 1.372 . S
C73 C71 1.390 . S
C73 H83 0.929 . S
C74 O54 1.255 . S
C74 O55 1.257 . S
C75 Eu11 2.787 . S
C75 O50 1.252 . S
C75 O53 1.268 . S
C75 C68 1.506 . S
H76 C59 0.931 . S
H77 C60 0.931 . S
H78 C61 0.929 . S
H79 C62 0.930 . S
H80 C70 0.931 . S
H81 C71 0.931 . S
H82 C72 0.930 . S
H83 C73 0.929 . S
Eu84 N113 2.600 1_565 S
Eu84 N119 2.562 . S
Eu84 O128 2.462 . S
Eu84 O129 2.373 . S
Eu84 O131 2.432 . S
Eu84 O132 2.291 . S
Eu84 O136 2.335 . S
Eu84 O139 2.372 . S
Eu84 C148 2.787 . S
C85 N86 1.365 . S
C85 C88 1.405 . S
C85 C92 1.448 . S
N86 C85 1.365 . S
N86 C89 1.319 . S
N86 Eu95 2.600 . S
C87 C89 1.397 . S
C87 C90 1.367 . S
C87 H107 0.931 . S
C88 C85 1.405 . S
C88 C90 1.403 . S
C88 C94 1.439 1_455 S
C89 N86 1.319 . S
C89 C87 1.397 . S
C89 H100 0.930 . S
C90 C87 1.367 . S
C90 C88 1.403 . S
C90 H111 0.929 1_455 S
C91 C92 1.430 . S
C91 C93 1.387 1_455 S
C91 C97 1.404 . S
C92 C85 1.448 . S
C92 C91 1.430 . S
C92 N96 1.351 . S
C93 C91 1.387 1_655 S
C93 C94 1.374 . S
C93 H108 0.931 . S
C94 C88 1.439 1_655 S
C94 C93 1.374 . S
C94 H109 0.931 . S
Eu95 N86 2.600 . S
Eu95 N96 2.562 . S
Eu95 O130 2.335 . S
Eu95 O133 2.372 . S
Eu95 O134 2.462 . S
Eu95 O135 2.373 . S
Eu95 O137 2.432 . S
Eu95 O138 2.291 . S
Eu95 C159 2.787 . S
N96 C92 1.351 . S
N96 Eu95 2.562 . S
N96 C98 1.325 . S
C97 C91 1.404 . S
C97 C99 1.366 . S
C97 H105 0.930 . S
C98 N96 1.325 . S
C98 C99 1.416 . S
C98 H104 0.929 . S
C99 C97 1.366 . S
C99 C98 1.416 . S
C99 H101 0.930 . S
H100 C89 0.930 . S
H101 C99 0.930 . S
H102 C117 0.930 . S
H103 C124 0.930 . S
H104 C98 0.929 . S
H105 C97 0.930 . S
H106 C120 0.929 . S
H107 C87 0.931 . S
H108 C93 0.931 . S
H109 C94 0.931 . S
H110 C115 0.931 . S
H111 C90 0.929 1_655 S
H112 C123 0.930 1_455 S
N113 Eu84 2.600 1_545 S
N113 C114 1.365 . S
N113 C117 1.319 . S
C114 N113 1.365 . S
C114 C116 1.405 . S
C114 C122 1.448 . S
C115 H110 0.931 . S
C115 C117 1.397 . S
C115 C118 1.367 1_655 S
C116 C114 1.405 . S
C116 C118 1.403 1_655 S
C116 C149 1.439 1_655 S
C117 H102 0.930 . S
C117 N113 1.319 . S
C117 C115 1.397 . S
C118 C115 1.367 1_455 S
C118 C116 1.403 1_455 S
C118 H125 0.929 . S
N119 Eu84 2.562 . S
N119 C120 1.325 . S
N119 C122 1.351 1_565 S
C120 H106 0.929 . S
C120 N119 1.325 . S
C120 C124 1.416 . S
C121 C122 1.430 . S
C121 C123 1.404 . S
C121 C150 1.387 1_655 S
C122 C114 1.448 . S
C122 N119 1.351 1_545 S
C122 C121 1.430 . S
C123 H112 0.930 1_655 S
C123 C121 1.404 . S
C123 C124 1.366 1_545 S
C124 H103 0.930 . S
C124 C120 1.416 . S
C124 C123 1.366 1_565 S
H125 C118 0.929 . S
H126 C149 0.931 . S
H127 C150 0.931 . S
O128 Eu84 2.462 . S
O128 C148 1.252 . S
O129 Eu84 2.373 . S
O129 C140 1.249 . S
O130 Eu95 2.335 . S
O130 C140 1.264 . S
O131 Eu84 2.432 . S
O131 C148 1.268 . S
O132 Eu84 2.291 . S
O132 C147 1.255 . S
O133 Eu95 2.372 . S
O133 C147 1.257 . S
O134 Eu95 2.462 . S
O134 C159 1.252 . S
O135 Eu95 2.373 . S
O135 C151 1.249 . S
O136 Eu84 2.335 . S
O136 C151 1.264 . S
O137 Eu95 2.432 . S
O137 C159 1.268 . S
O138 Eu95 2.291 . S
O138 C158 1.255 . S
O139 Eu84 2.372 . S
O139 C158 1.257 . S
C140 O129 1.249 . S
C140 O130 1.264 . S
C141 C144 1.382 1_565 S
C141 C146 1.390 . S
C141 C148 1.506 . S
C142 C143 1.398 1_565 S
C142 C146 1.392 . S
C143 C142 1.398 1_545 S
C143 C145 1.372 . S
C143 H160 0.931 . S
C144 C141 1.382 1_545 S
C144 C145 1.390 . S
C144 H161 0.931 . S
C145 C143 1.372 . S
C145 C144 1.390 . S
C145 H162 0.929 . S
C146 C141 1.390 . S
C146 C142 1.392 . S
C146 H163 0.930 . S
C147 O132 1.255 . S
C147 O133 1.257 . S
C148 Eu84 2.787 . S
C148 O128 1.252 . S
C148 O131 1.268 . S
C148 C141 1.506 . S
C149 C116 1.439 1_455 S
C149 H126 0.931 . S
C149 C150 1.374 . S
C150 C121 1.387 1_455 S
C150 H127 0.931 . S
C150 C149 1.374 . S
C151 O135 1.249 . S
C151 O136 1.264 . S
C152 C155 1.382 . S
C152 C156 1.390 . S
C152 C159 1.506 . S
C153 C154 1.398 . S
C153 C156 1.392 . S
C154 C153 1.398 . S
C154 C157 1.372 . S
C154 H164 0.931 . S
C155 C152 1.382 . S
C155 C157 1.390 . S
C155 H165 0.931 . S
C156 C152 1.390 . S
C156 C153 1.392 . S
C156 H166 0.930 . S
C157 C154 1.372 . S
C157 C155 1.390 . S
C157 H167 0.929 . S
C158 O138 1.255 . S
C158 O139 1.257 . S
C159 Eu95 2.787 . S
C159 O134 1.252 . S
C159 O137 1.268 . S
C159 C152 1.506 . S
H160 C143 0.931 . S
H161 C144 0.931 . S
H162 C145 0.929 . S
H163 C146 0.930 . S
H164 C154 0.931 . S
H165 C155 0.931 . S
H166 C156 0.930 . S
H167 C157 0.929 . S
Eu168 N197 2.600 1_655 S
Eu168 N203 2.562 1_655 S
Eu168 O212 2.462 . S
Eu168 O213 2.373 . S
Eu168 O215 2.432 1_654 S
Eu168 O216 2.291 . S
Eu168 O220 2.335 . S
Eu168 O223 2.372 . S
Eu168 C232 2.787 1_654 S
C169 N170 1.365 . S
C169 C172 1.405 . S
C169 C176 1.448 . S
N170 C169 1.365 . S
N170 C173 1.319 . S
N170 Eu179 2.600 . S
C171 C173 1.397 . S
C171 C174 1.367 . S
C171 H191 0.931 . S
C172 C169 1.405 . S
C172 C174 1.403 . S
C172 C178 1.439 . S
C173 N170 1.319 . S
C173 C171 1.397 . S
C173 H184 0.930 . S
C174 C171 1.367 . S
C174 C172 1.403 . S
C174 H195 0.929 . S
C175 C176 1.430 . S
C175 C177 1.387 . S
C175 C181 1.404 . S
C176 C169 1.448 . S
C176 C175 1.430 . S
C176 N180 1.351 . S
C177 C175 1.387 . S
C177 C178 1.374 . S
C177 H192 0.931 . S
C178 C172 1.439 . S
C178 C177 1.374 . S
C178 H193 0.931 . S
Eu179 N170 2.600 . S
Eu179 N180 2.562 . S
Eu179 O214 2.335 1_565 S
Eu179 O217 2.372 . S
Eu179 O218 2.462 . S
Eu179 O219 2.373 . S
Eu179 O221 2.432 . S
Eu179 O222 2.291 . S
Eu179 C243 2.787 . S
N180 C176 1.351 . S
N180 Eu179 2.562 . S
N180 C182 1.325 . S
C181 C175 1.404 . S
C181 C183 1.366 . S
C181 H189 0.930 . S
C182 N180 1.325 . S
C182 C183 1.416 . S
C182 H188 0.929 . S
C183 C181 1.366 . S
C183 C182 1.416 . S
C183 H185 0.930 . S
H184 C173 0.930 . S
H185 C183 0.930 . S
H186 C201 0.930 . S
H187 C208 0.930 1_655 S
H188 C182 0.929 . S
H189 C181 0.930 . S
H190 C204 0.929 . S
H191 C171 0.931 . S
H192 C177 0.931 . S
H193 C178 0.931 . S
H194 C199 0.931 . S
H195 C174 0.929 . S
H196 C207 0.930 . S
N197 Eu168 2.600 1_455 S
N197 C198 1.365 . S
N197 C201 1.319 . S
C198 N197 1.365 . S
C198 C200 1.405 . S
C198 C206 1.448 . S
C199 H194 0.931 . S
C199 C201 1.397 . S
C199 C202 1.367 . S
C200 C198 1.405 . S
C200 C202 1.403 . S
C200 C233 1.439 . S
C201 H186 0.930 . S
C201 N197 1.319 . S
C201 C199 1.397 . S
C202 C199 1.367 . S
C202 C200 1.403 . S
C202 H209 0.929 . S
N203 Eu168 2.562 1_455 S
N203 C204 1.325 1_455 S
N203 C206 1.351 . S
C204 H190 0.929 . S
C204 N203 1.325 1_655 S
C204 C208 1.416 1_655 S
C205 C206 1.430 . S
C205 C207 1.404 . S
C205 C234 1.387 . S
C206 C198 1.448 . S
C206 N203 1.351 . S
C206 C205 1.430 . S
C207 H196 0.930 . S
C207 C205 1.404 . S
C207 C208 1.366 . S
C208 H187 0.930 1_455 S
C208 C204 1.416 1_455 S
C208 C207 1.366 . S
H209 C202 0.929 . S
H210 C233 0.931 . S
H211 C234 0.931 . S
O212 Eu168 2.462 . S
O212 C232 1.252 1_654 S
O213 Eu168 2.373 . S
O213 C224 1.249 . S
O214 Eu179 2.335 1_545 S
O214 C224 1.264 . S
O215 Eu168 2.432 1_456 S
O215 C232 1.268 . S
O216 Eu168 2.291 . S
O216 C231 1.255 1_545 S
O217 Eu179 2.372 . S
O217 C231 1.257 . S
O218 Eu179 2.462 . S
O218 C243 1.252 . S
O219 Eu179 2.373 . S
O219 C235 1.249 . S
O220 Eu168 2.335 . S
O220 C235 1.264 1_545 S
O221 Eu179 2.432 . S
O221 C243 1.268 . S
O222 Eu179 2.291 . S
O222 C242 1.255 1_565 S
O223 Eu168 2.372 . S
O223 C242 1.257 . S
C224 O213 1.249 . S
C224 O214 1.264 . S
C225 C228 1.382 . S
C225 C230 1.390 1_455 S
C225 C232 1.506 . S
C226 C227 1.398 . S
C226 C230 1.392 1_455 S
C227 C226 1.398 . S
C227 C229 1.372 . S
C227 H244 0.931 . S
C228 C225 1.382 . S
C228 C229 1.390 . S
C228 H245 0.931 . S
C229 C227 1.372 . S
C229 C228 1.390 . S
C229 H246 0.929 . S
C230 C225 1.390 1_655 S
C230 C226 1.392 1_655 S
C230 H247 0.930 . S
C231 O216 1.255 1_565 S
C231 O217 1.257 . S
C232 Eu168 2.787 1_456 S
C232 O212 1.252 1_456 S
C232 O215 1.268 . S
C232 C225 1.506 . S
C233 C200 1.439 . S
C233 H210 0.931 . S
C233 C234 1.374 . S
C234 C205 1.387 . S
C234 H211 0.931 . S
C234 C233 1.374 . S
C235 O219 1.249 . S
C235 O220 1.264 1_565 S
C236 C239 1.382 . S
C236 C240 1.390 . S
C236 C243 1.506 . S
C237 C238 1.398 . S
C237 C240 1.392 . S
C238 C237 1.398 . S
C238 C241 1.372 . S
C238 H248 0.931 . S
C239 C236 1.382 . S
C239 C241 1.390 . S
C239 H249 0.931 . S
C240 C236 1.390 . S
C240 C237 1.392 . S
C240 H250 0.930 . S
C241 C238 1.372 . S
C241 C239 1.390 . S
C241 H251 0.929 . S
C242 O222 1.255 1_545 S
C242 O223 1.257 . S
C243 Eu179 2.787 . S
C243 O218 1.252 . S
C243 O221 1.268 . S
C243 C236 1.506 . S
H244 C227 0.931 . S
H245 C228 0.931 . S
H246 C229 0.929 . S
H247 C230 0.930 . S
H248 C238 0.931 . S
H249 C239 0.931 . S
H250 C240 0.930 . S
H251 C241 0.929 . S
Eu252 N281 2.600 1_565 S
Eu252 N287 2.562 1_565 S
Eu252 O296 2.462 . S
Eu252 O297 2.373 . S
Eu252 O299 2.432 1_565 S
Eu252 O300 2.291 . S
Eu252 O304 2.335 . S
Eu252 O307 2.372 . S
Eu252 C316 2.787 1_565 S
C253 N254 1.365 . S
C253 C256 1.405 . S
C253 C260 1.448 . S
N254 C253 1.365 . S
N254 C257 1.319 . S
N254 Eu263 2.600 . S
C255 C257 1.397 . S
C255 C258 1.367 . S
C255 H275 0.931 . S
C256 C253 1.405 . S
C256 C258 1.403 . S
C256 C262 1.439 . S
C257 N254 1.319 . S
C257 C255 1.397 . S
C257 H268 0.930 . S
C258 C255 1.367 . S
C258 C256 1.403 . S
C258 H279 0.929 . S
C259 C260 1.430 . S
C259 C261 1.387 . S
C259 C265 1.404 . S
C260 C253 1.448 . S
C260 C259 1.430 . S
C260 N264 1.351 . S
C261 C259 1.387 . S
C261 C262 1.374 . S
C261 H276 0.931 . S
C262 C256 1.439 . S
C262 C261 1.374 . S
C262 H277 0.931 . S
Eu263 N254 2.600 . S
Eu263 N264 2.562 . S
Eu263 O298 2.335 1_655 S
Eu263 O301 2.372 . S
Eu263 O302 2.462 . S
Eu263 O303 2.373 . S
Eu263 O305 2.432 . S
Eu263 O306 2.291 . S
Eu263 C327 2.787 . S
N264 C260 1.351 . S
N264 Eu263 2.562 . S
N264 C266 1.325 . S
C265 C259 1.404 . S
C265 C267 1.366 . S
C265 H273 0.930 . S
C266 N264 1.325 . S
C266 C267 1.416 . S
C266 H272 0.929 . S
C267 C265 1.366 . S
C267 C266 1.416 . S
C267 H269 0.930 . S
H268 C257 0.930 . S
H269 C267 0.930 . S
H270 C285 0.930 . S
H271 C292 0.930 1_565 S
H272 C266 0.929 . S
H273 C265 0.930 . S
H274 C288 0.929 . S
H275 C255 0.931 . S
H276 C261 0.931 . S
H277 C262 0.931 . S
H278 C283 0.931 . S
H279 C258 0.929 . S
H280 C291 0.930 . S
N281 Eu252 2.600 1_545 S
N281 C282 1.365 . S
N281 C285 1.319 . S
C282 N281 1.365 . S
C282 C284 1.405 . S
C282 C290 1.448 . S
C283 H278 0.931 . S
C283 C285 1.397 . S
C283 C286 1.367 . S
C284 C282 1.405 . S
C284 C286 1.403 . S
C284 C317 1.439 . S
C285 H270 0.930 . S
C285 N281 1.319 . S
C285 C283 1.397 . S
C286 C283 1.367 . S
C286 C284 1.403 . S
C286 H293 0.929 . S
N287 Eu252 2.562 1_545 S
N287 C288 1.325 1_545 S
N287 C290 1.351 . S
C288 H274 0.929 . S
C288 N287 1.325 1_565 S
C288 C292 1.416 1_565 S
C289 C290 1.430 . S
C289 C291 1.404 . S
C289 C318 1.387 . S
C290 C282 1.448 . S
C290 N287 1.351 . S
C290 C289 1.430 . S
C291 H280 0.930 . S
C291 C289 1.404 . S
C291 C292 1.366 . S
C292 H271 0.930 1_545 S
C292 C288 1.416 1_545 S
C292 C291 1.366 . S
H293 C286 0.929 . S
H294 C317 0.931 . S
H295 C318 0.931 . S
O296 Eu252 2.462 . S
O296 C316 1.252 1_565 S
O297 Eu252 2.373 . S
O297 C308 1.249 . S
O298 Eu263 2.335 1_455 S
O298 C308 1.264 . S
O299 Eu252 2.432 1_545 S
O299 C316 1.268 . S
O300 Eu252 2.291 . S
O300 C315 1.255 1_455 S
O301 Eu263 2.372 . S
O301 C315 1.257 . S
O302 Eu263 2.462 . S
O302 C327 1.252 . S
O303 Eu263 2.373 . S
O303 C319 1.249 . S
O304 Eu252 2.335 . S
O304 C319 1.264 1_455 S
O305 Eu263 2.432 . S
O305 C327 1.268 . S
O306 Eu263 2.291 . S
O306 C326 1.255 1_655 S
O307 Eu252 2.372 . S
O307 C326 1.257 . S
C308 O297 1.249 . S
C308 O298 1.264 . S
C309 C312 1.382 . S
C309 C314 1.390 1_545 S
C309 C316 1.506 . S
C310 C311 1.398 . S
C310 C314 1.392 1_545 S
C311 C310 1.398 . S
C311 C313 1.372 . S
C311 H328 0.931 . S
C312 C309 1.382 . S
C312 C313 1.390 . S
C312 H329 0.931 . S
C313 C311 1.372 . S
C313 C312 1.390 . S
C313 H330 0.929 . S
C314 C309 1.390 1_565 S
C314 C310 1.392 1_565 S
C314 H331 0.930 . S
C315 O300 1.255 1_655 S
C315 O301 1.257 . S
C316 Eu252 2.787 1_545 S
C316 O296 1.252 1_545 S
C316 O299 1.268 . S
C316 C309 1.506 . S
C317 C284 1.439 . S
C317 H294 0.931 . S
C317 C318 1.374 . S
C318 C289 1.387 . S
C318 H295 0.931 . S
C318 C317 1.374 . S
C319 O303 1.249 . S
C319 O304 1.264 1_655 S
C320 C323 1.382 . S
C320 C324 1.390 . S
C320 C327 1.506 . S
C321 C322 1.398 . S
C321 C324 1.392 . S
C322 C321 1.398 . S
C322 C325 1.372 . S
C322 H332 0.931 . S
C323 C320 1.382 . S
C323 C325 1.390 . S
C323 H333 0.931 . S
C324 C320 1.390 . S
C324 C321 1.392 . S
C324 H334 0.930 . S
C325 C322 1.372 . S
C325 C323 1.390 . S
C325 H335 0.929 . S
C326 O306 1.255 1_455 S
C326 O307 1.257 . S
C327 Eu263 2.787 . S
C327 O302 1.252 . S
C327 O305 1.268 . S
C327 C320 1.506 . S
H328 C311 0.931 . S
H329 C312 0.931 . S
H330 C313 0.929 . S
H331 C314 0.930 . S
H332 C322 0.931 . S
H333 C323 0.931 . S
H334 C324 0.930 . S
H335 C325 0.929 . S
H336 C344 0.929 . S
H337 C346 0.930 1_565 S
H338 C348 0.930 . S
H339 C351 0.929 . S
H340 C354 0.930 . S
H341 C356 0.960 . S
H342 C356 0.960 . S
H343 C356 0.960 . S
C344 H336 0.929 . S
C344 C345 1.377 1_565 S
C344 C346 1.384 1_565 S
C345 C344 1.377 1_545 S
C345 C351 1.390 . S
C346 H337 0.930 1_545 S
C346 C344 1.384 1_545 S
C346 C347 1.372 1_655 S
C347 C346 1.372 1_455 S
C347 C348 1.400 . S
C347 C352 1.490 . S
C348 H338 0.930 . S
C348 C347 1.400 . S
C348 C351 1.386 1_455 S
H349 C365 0.930 . S
H350 C366 0.931 . S
C351 H339 0.929 . S
C351 C345 1.390 . S
C351 C348 1.386 1_655 S
C352 C347 1.490 . S
C352 C354 1.395 . S
C352 C355 1.403 . S
H353 C359 0.930 . S
C354 H340 0.930 . S
C354 C352 1.395 . S
C354 C357 1.403 . S
C355 C352 1.403 . S
C355 C356 1.524 . S
C355 C359 1.400 . S
C356 H341 0.960 . S
C356 H342 0.960 . S
C356 H343 0.960 . S
C356 C355 1.524 . S
C357 C354 1.403 . S
C357 C358 1.392 . S
C357 C361 1.495 . S
C358 C357 1.392 . S
C358 C359 1.385 . S
C358 C360 1.478 . S
C359 H353 0.930 . S
C359 C355 1.400 . S
C359 C358 1.385 . S
C360 C358 1.478 . S
C360 C362 1.381 . S
C360 C366 1.383 . S
C361 C357 1.495 . S
C361 H367 0.959 1_554 S
C361 H368 0.961 . S
C361 H369 0.960 . S
C362 C360 1.381 . S
C362 C363 1.394 . S
C362 H370 0.930 . S
C363 C362 1.394 . S
C363 C364 1.383 . S
C363 H371 0.929 . S
C364 C363 1.383 . S
C364 C365 1.377 . S
C365 H349 0.930 . S
C365 C364 1.377 . S
C365 C366 1.379 . S
C366 H350 0.931 . S
C366 C360 1.383 . S
C366 C365 1.379 . S
H367 C361 0.959 1_556 S
H368 C361 0.961 . S
H369 C361 0.960 . S
H370 C362 0.930 . S
H371 C363 0.929 . S
H372 C380 0.929 . S
H373 C382 0.930 1_655 S
H374 C384 0.930 . S
H375 C387 0.929 . S
H376 C390 0.930 . S
H377 C392 0.960 . S
H378 C392 0.960 . S
H379 C392 0.960 . S
C380 H372 0.929 . S
C380 C381 1.377 1_655 S
C380 C382 1.384 1_655 S
C381 C380 1.377 1_455 S
C381 C387 1.390 . S
C382 H373 0.930 1_455 S
C382 C380 1.384 1_455 S
C382 C383 1.372 1_565 S
C383 C382 1.372 1_545 S
C383 C384 1.400 . S
C383 C388 1.490 . S
C384 H374 0.930 . S
C384 C383 1.400 . S
C384 C387 1.386 1_545 S
H385 C401 0.930 . S
H386 C402 0.931 . S
C387 H375 0.929 . S
C387 C381 1.390 . S
C387 C384 1.386 1_565 S
C388 C383 1.490 . S
C388 C390 1.395 . S
C388 C391 1.403 . S
H389 C395 0.930 . S
C390 H376 0.930 . S
C390 C388 1.395 . S
C390 C393 1.403 . S
C391 C388 1.403 . S
C391 C392 1.524 . S
C391 C395 1.400 . S
C392 H377 0.960 . S
C392 H378 0.960 . S
C392 H379 0.960 . S
C392 C391 1.524 . S
C393 C390 1.403 . S
C393 C394 1.392 . S
C393 C397 1.495 . S
C394 C393 1.392 . S
C394 C395 1.385 . S
C394 C396 1.478 . S
C395 H389 0.930 . S
C395 C391 1.400 . S
C395 C394 1.385 . S
C396 C394 1.478 . S
C396 C398 1.381 . S
C396 C402 1.383 . S
C397 C393 1.495 . S
C397 H403 0.959 . S
C397 H404 0.961 . S
C397 H405 0.960 . S
C398 C396 1.381 . S
C398 C399 1.394 . S
C398 H406 0.930 . S
C399 C398 1.394 . S
C399 C400 1.383 . S
C399 H407 0.929 . S
C400 C399 1.383 . S
C400 C401 1.377 . S
C401 H385 0.930 . S
C401 C400 1.377 . S
C401 C402 1.379 . S
C402 H386 0.931 . S
C402 C396 1.383 . S
C402 C401 1.379 . S
H403 C397 0.959 . S
H404 C397 0.961 . S
H405 C397 0.960 . S
H406 C398 0.930 . S
H407 C399 0.929 . S
H408 C416 0.929 . S
H409 C418 0.930 . S
H410 C420 0.930 . S
H411 C423 0.929 . S
H412 C426 0.930 . S
H413 C428 0.960 . S
H414 C428 0.960 . S
H415 C428 0.960 . S
C416 H408 0.929 . S
C416 C417 1.377 1_565 S
C416 C418 1.384 1_565 S
C417 C416 1.377 1_545 S
C417 C423 1.390 . S
C418 H409 0.930 . S
C418 C416 1.384 1_545 S
C418 C419 1.372 . S
C419 C418 1.372 . S
C419 C420 1.400 . S
C419 C424 1.490 . S
C420 H410 0.930 . S
C420 C419 1.400 . S
C420 C423 1.386 . S
H421 C437 0.930 . S
H422 C438 0.931 . S
C423 H411 0.929 . S
C423 C417 1.390 . S
C423 C420 1.386 . S
C424 C419 1.490 . S
C424 C426 1.395 . S
C424 C427 1.403 . S
H425 C431 0.930 . S
C426 H412 0.930 . S
C426 C424 1.395 . S
C426 C429 1.403 . S
C427 C424 1.403 . S
C427 C428 1.524 . S
C427 C431 1.400 . S
C428 H413 0.960 . S
C428 H414 0.960 . S
C428 H415 0.960 . S
C428 C427 1.524 . S
C429 C426 1.403 . S
C429 C430 1.392 . S
C429 C433 1.495 . S
C430 C429 1.392 . S
C430 C431 1.385 . S
C430 C432 1.478 . S
C431 H425 0.930 . S
C431 C427 1.400 . S
C431 C430 1.385 . S
C432 C430 1.478 . S
C432 C434 1.381 . S
C432 C438 1.383 . S
C433 C429 1.495 . S
C433 H439 0.959 . S
C433 H440 0.961 . S
C433 H441 0.960 . S
C434 C432 1.381 . S
C434 C435 1.394 . S
C434 H442 0.930 . S
C435 C434 1.394 . S
C435 C436 1.383 . S
C435 H443 0.929 . S
C436 C435 1.383 . S
C436 C437 1.377 . S
C437 H421 0.930 . S
C437 C436 1.377 . S
C437 C438 1.379 . S
C438 H422 0.931 . S
C438 C432 1.383 . S
C438 C437 1.379 . S
H439 C433 0.959 . S
H440 C433 0.961 . S
H441 C433 0.960 . S
H442 C434 0.930 . S
H443 C435 0.929 . S
H444 C452 0.929 . S
H445 C454 0.930 . S
H446 C456 0.930 . S
H447 C459 0.929 . S
H448 C462 0.930 . S
H449 C464 0.960 . S
H450 C464 0.960 . S
H451 C464 0.960 . S
C452 H444 0.929 . S
C452 C453 1.377 . S
C452 C454 1.384 . S
C453 C452 1.377 . S
C453 C459 1.390 . S
C454 H445 0.930 . S
C454 C452 1.384 . S
C454 C455 1.372 . S
C455 C454 1.372 . S
C455 C456 1.400 . S
C455 C460 1.490 . S
C456 H446 0.930 . S
C456 C455 1.400 . S
C456 C459 1.386 . S
H457 C473 0.930 . S
H458 C474 0.931 . S
C459 H447 0.929 . S
C459 C453 1.390 . S
C459 C456 1.386 . S
C460 C455 1.490 . S
C460 C462 1.395 . S
C460 C463 1.403 . S
H461 C467 0.930 . S
C462 H448 0.930 . S
C462 C460 1.395 . S
C462 C465 1.403 . S
C463 C460 1.403 . S
C463 C464 1.524 . S
C463 C467 1.400 . S
C464 H449 0.960 . S
C464 H450 0.960 . S
C464 H451 0.960 . S
C464 C463 1.524 . S
C465 C462 1.403 . S
C465 C466 1.392 . S
C465 C469 1.495 . S
C466 C465 1.392 . S
C466 C467 1.385 . S
C466 C468 1.478 . S
C467 H461 0.930 . S
C467 C463 1.400 . S
C467 C466 1.385 . S
C468 C466 1.478 . S
C468 C470 1.381 . S
C468 C474 1.383 . S
C469 C465 1.495 . S
C469 H475 0.959 . S
C469 H476 0.961 . S
C469 H477 0.960 . S
C470 C468 1.381 . S
C470 C471 1.394 . S
C470 H478 0.930 . S
C471 C470 1.394 . S
C471 C472 1.383 . S
C471 H479 0.929 . S
C472 C471 1.383 . S
C472 C473 1.377 1_455 S
C473 H457 0.930 . S
C473 C472 1.377 1_655 S
C473 C474 1.379 1_655 S
C474 H458 0.931 . S
C474 C468 1.383 . S
C474 C473 1.379 1_455 S
H475 C469 0.959 . S
H476 C469 0.961 . S
H477 C469 0.960 . S
H478 C470 0.930 . S
H479 C471 0.929 . S
H480 C488 0.929 . S
H481 C490 0.930 . S
H482 C492 0.930 . S
H483 C495 0.929 . S
H484 C498 0.930 . S
H485 C500 0.960 . S
H486 C500 0.960 . S
H487 C500 0.960 . S
C488 H480 0.929 . S
C488 C489 1.377 . S
C488 C490 1.384 . S
C489 C488 1.377 . S
C489 C495 1.390 . S
C490 H481 0.930 . S
C490 C488 1.384 . S
C490 C491 1.372 . S
C491 C490 1.372 . S
C491 C492 1.400 . S
C491 C496 1.490 . S
C492 H482 0.930 . S
C492 C491 1.400 . S
C492 C495 1.386 . S
H493 C509 0.930 . S
H494 C510 0.931 . S
C495 H483 0.929 . S
C495 C489 1.390 . S
C495 C492 1.386 . S
C496 C491 1.490 . S
C496 C498 1.395 . S
C496 C499 1.403 . S
H497 C503 0.930 . S
C498 H484 0.930 . S
C498 C496 1.395 . S
C498 C501 1.403 . S
C499 C496 1.403 . S
C499 C500 1.524 . S
C499 C503 1.400 . S
C500 H485 0.960 . S
C500 H486 0.960 . S
C500 H487 0.960 . S
C500 C499 1.524 . S
C501 C498 1.403 . S
C501 C502 1.392 . S
C501 C505 1.495 . S
C502 C501 1.392 . S
C502 C503 1.385 . S
C502 C504 1.478 . S
C503 H497 0.930 . S
C503 C499 1.400 . S
C503 C502 1.385 . S
C504 C502 1.478 . S
C504 C506 1.381 . S
C504 C510 1.383 . S
C505 C501 1.495 . S
C505 H511 0.959 . S
C505 H512 0.961 . S
C505 H513 0.960 . S
C506 C504 1.381 . S
C506 C507 1.394 . S
C506 H514 0.930 . S
C507 C506 1.394 . S
C507 C508 1.383 . S
C507 H515 0.929 . S
C508 C507 1.383 . S
C508 C509 1.377 . S
C509 H493 0.930 . S
C509 C508 1.377 . S
C509 C510 1.379 . S
C510 H494 0.931 . S
C510 C504 1.383 . S
C510 C509 1.379 . S
H511 C505 0.959 . S
H512 C505 0.961 . S
H513 C505 0.960 . S
H514 C506 0.930 . S
H515 C507 0.929 . S
H516 C524 0.929 . S
H517 C526 0.930 . S
H518 C528 0.930 . S
H519 C531 0.929 . S
H520 C534 0.930 . S
H521 C536 0.960 . S
H522 C536 0.960 . S
H523 C536 0.960 . S
C524 H516 0.929 . S
C524 C525 1.377 . S
C524 C526 1.384 . S
C525 C524 1.377 . S
C525 C531 1.390 . S
C526 H517 0.930 . S
C526 C524 1.384 . S
C526 C527 1.372 . S
C527 C526 1.372 . S
C527 C528 1.400 . S
C527 C532 1.490 . S
C528 H518 0.930 . S
C528 C527 1.400 . S
C528 C531 1.386 . S
H529 C545 0.930 . S
H530 C546 0.931 . S
C531 H519 0.929 . S
C531 C525 1.390 . S
C531 C528 1.386 . S
C532 C527 1.490 . S
C532 C534 1.395 . S
C532 C535 1.403 . S
H533 C539 0.930 . S
C534 H520 0.930 . S
C534 C532 1.395 . S
C534 C537 1.403 . S
C535 C532 1.403 . S
C535 C536 1.524 . S
C535 C539 1.400 . S
C536 H521 0.960 . S
C536 H522 0.960 . S
C536 H523 0.960 . S
C536 C535 1.524 . S
C537 C534 1.403 . S
C537 C538 1.392 . S
C537 C541 1.495 . S
C538 C537 1.392 . S
C538 C539 1.385 . S
C538 C540 1.478 . S
C539 H533 0.930 . S
C539 C535 1.400 . S
C539 C538 1.385 . S
C540 C538 1.478 . S
C540 C542 1.381 . S
C540 C546 1.383 . S
C541 C537 1.495 . S
C541 H547 0.959 . S
C541 H548 0.961 . S
C541 H549 0.960 . S
C542 C540 1.381 . S
C542 C543 1.394 1_455 S
C542 H550 0.930 . S
C543 C542 1.394 1_655 S
C543 C544 1.383 1_655 S
C543 H551 0.929 . S
C544 C543 1.383 1_455 S
C544 C545 1.377 . S
C545 H529 0.930 . S
C545 C544 1.377 . S
C545 C546 1.379 . S
C546 H530 0.931 . S
C546 C540 1.383 . S
C546 C545 1.379 . S
H547 C541 0.959 . S
H548 C541 0.961 . S
H549 C541 0.960 . S
H550 C542 0.930 . S
H551 C543 0.929 . S
H552 C560 0.929 . S
H553 C562 0.930 . S
H554 C564 0.930 . S
H555 C567 0.929 . S
H556 C570 0.930 . S
H557 C572 0.960 . S
H558 C572 0.960 . S
H559 C572 0.960 . S
C560 H552 0.929 . S
C560 C561 1.377 . S
C560 C562 1.384 . S
C561 C560 1.377 . S
C561 C567 1.390 . S
C562 H553 0.930 . S
C562 C560 1.384 . S
C562 C563 1.372 . S
C563 C562 1.372 . S
C563 C564 1.400 . S
C563 C568 1.490 . S
C564 H554 0.930 . S
C564 C563 1.400 . S
C564 C567 1.386 . S
H565 C581 0.930 . S
H566 C582 0.931 . S
C567 H555 0.929 . S
C567 C561 1.390 . S
C567 C564 1.386 . S
C568 C563 1.490 . S
C568 C570 1.395 . S
C568 C571 1.403 . S
H569 C575 0.930 . S
C570 H556 0.930 . S
C570 C568 1.395 . S
C570 C573 1.403 . S
C571 C568 1.403 . S
C571 C572 1.524 . S
C571 C575 1.400 . S
C572 H557 0.960 . S
C572 H558 0.960 . S
C572 H559 0.960 . S
C572 C571 1.524 . S
C573 C570 1.403 . S
C573 C574 1.392 . S
C573 C577 1.495 . S
C574 C573 1.392 . S
C574 C575 1.385 . S
C574 C576 1.478 . S
C575 H569 0.930 . S
C575 C571 1.400 . S
C575 C574 1.385 . S
C576 C574 1.478 . S
C576 C578 1.381 . S
C576 C582 1.383 . S
C577 C573 1.495 . S
C577 H583 0.959 . S
C577 H584 0.961 . S
C577 H585 0.960 . S
C578 C576 1.381 . S
C578 C579 1.394 . S
C578 H586 0.930 . S
C579 C578 1.394 . S
C579 C580 1.383 . S
C579 H587 0.929 . S
C580 C579 1.383 . S
C580 C581 1.377 . S
C581 H565 0.930 . S
C581 C580 1.377 . S
C581 C582 1.379 . S
C582 H566 0.931 . S
C582 C576 1.383 . S
C582 C581 1.379 . S
H583 C577 0.959 . S
H584 C577 0.961 . S
H585 C577 0.960 . S
H586 C578 0.930 . S
H587 C579 0.929 . S
H588 C596 0.929 . S
H589 C598 0.930 . S
H590 C600 0.930 . S
H591 C603 0.929 1_565 S
H592 C606 0.930 . S
H593 C608 0.960 . S
H594 C608 0.960 . S
H595 C608 0.960 . S
C596 H588 0.929 . S
C596 C597 1.377 . S
C596 C598 1.384 . S
C597 C596 1.377 . S
C597 C603 1.390 . S
C598 H589 0.930 . S
C598 C596 1.384 . S
C598 C599 1.372 . S
C599 C598 1.372 . S
C599 C600 1.400 . S
C599 C604 1.490 . S
C600 H590 0.930 . S
C600 C599 1.400 . S
C600 C603 1.386 . S
H601 C617 0.930 . S
H602 C618 0.931 . S
C603 H591 0.929 1_545 S
C603 C597 1.390 . S
C603 C600 1.386 . S
C604 C599 1.490 . S
C604 C606 1.395 . S
C604 C607 1.403 . S
H605 C611 0.930 . S
C606 H592 0.930 . S
C606 C604 1.395 . S
C606 C609 1.403 . S
C607 C604 1.403 . S
C607 C608 1.524 . S
C607 C611 1.400 . S
C608 H593 0.960 . S
C608 H594 0.960 . S
C608 H595 0.960 . S
C608 C607 1.524 . S
C609 C606 1.403 . S
C609 C610 1.392 . S
C609 C613 1.495 . S
C610 C609 1.392 . S
C610 C611 1.385 . S
C610 C612 1.478 . S
C611 H605 0.930 . S
C611 C607 1.400 . S
C611 C610 1.385 . S
C612 C610 1.478 . S
C612 C614 1.381 . S
C612 C618 1.383 . S
C613 C609 1.495 . S
C613 H619 0.959 . S
C613 H620 0.961 . S
C613 H621 0.960 . S
C614 C612 1.381 . S
C614 C615 1.394 . S
C614 H622 0.930 . S
C615 C614 1.394 . S
C615 C616 1.383 1_556 S
C615 H623 0.929 1_556 S
C616 C615 1.383 1_554 S
C616 C617 1.377 1_554 S
C617 H601 0.930 . S
C617 C616 1.377 1_556 S
C617 C618 1.379 . S
C618 H602 0.931 . S
C618 C612 1.383 . S
C618 C617 1.379 . S
H619 C613 0.959 . S
H620 C613 0.961 . S
H621 C613 0.960 . S
H622 C614 0.930 . S
H623 C615 0.929 1_554 S
H624 C632 0.929 . S
H625 C634 0.930 . S
H626 C636 0.930 . S
H627 C639 0.929 . S
H628 C642 0.930 . S
H629 C644 0.960 . S
H630 C644 0.960 . S
H631 C644 0.960 . S
C632 H624 0.929 . S
C632 C633 1.377 . S
C632 C634 1.384 . S
C633 C632 1.377 . S
C633 C639 1.390 . S
C634 H625 0.930 . S
C634 C632 1.384 . S
C634 C635 1.372 . S
C635 C634 1.372 . S
C635 C636 1.400 . S
C635 C640 1.490 . S
C636 H626 0.930 . S
C636 C635 1.400 . S
C636 C639 1.386 . S
H637 C653 0.930 . S
H638 C654 0.931 . S
C639 H627 0.929 . S
C639 C633 1.390 . S
C639 C636 1.386 . S
C640 C635 1.490 . S
C640 C642 1.395 . S
C640 C643 1.403 . S
H641 C647 0.930 . S
C642 H628 0.930 . S
C642 C640 1.395 . S
C642 C645 1.403 . S
C643 C640 1.403 . S
C643 C644 1.524 . S
C643 C647 1.400 . S
C644 H629 0.960 . S
C644 H630 0.960 . S
C644 H631 0.960 . S
C644 C643 1.524 . S
C645 C642 1.403 . S
C645 C646 1.392 . S
C645 C649 1.495 . S
C646 C645 1.392 . S
C646 C647 1.385 . S
C646 C648 1.478 . S
C647 H641 0.930 . S
C647 C643 1.400 . S
C647 C646 1.385 . S
C648 C646 1.478 . S
C648 C650 1.381 . S
C648 C654 1.383 . S
C649 C645 1.495 . S
C649 H655 0.959 . S
C649 H656 0.961 . S
C649 H657 0.960 . S
C650 C648 1.381 . S
C650 C651 1.394 . S
C650 H658 0.930 . S
C651 C650 1.394 . S
C651 C652 1.383 . S
C651 H659 0.929 . S
C652 C651 1.383 . S
C652 C653 1.377 . S
C653 H637 0.930 . S
C653 C652 1.377 . S
C653 C654 1.379 . S
C654 H638 0.931 . S
C654 C648 1.383 . S
C654 C653 1.379 . S
H655 C649 0.959 . S
H656 C649 0.961 . S
H657 C649 0.960 . S
H658 C650 0.930 . S
H659 C651 0.929 . S
H660 C668 0.929 . S
H661 C670 0.930 . S
H662 C672 0.930 1_565 S
H663 C675 0.929 . S
H664 C678 0.930 . S
H665 C680 0.960 . S
H666 C680 0.960 1_545 S
H667 C680 0.960 . S
C668 H660 0.929 . S
C668 C669 1.377 . S
C668 C670 1.384 . S
C669 C668 1.377 . S
C669 C675 1.390 . S
C670 H661 0.930 . S
C670 C668 1.384 . S
C670 C671 1.372 . S
C671 C670 1.372 . S
C671 C672 1.400 . S
C671 C676 1.490 . S
C672 H662 0.930 1_545 S
C672 C671 1.400 . S
C672 C675 1.386 . S
H673 C689 0.930 . S
H674 C690 0.931 . S
C675 H663 0.929 . S
C675 C669 1.390 . S
C675 C672 1.386 . S
C676 C671 1.490 . S
C676 C678 1.395 . S
C676 C679 1.403 . S
H677 C683 0.930 . S
C678 H664 0.930 . S
C678 C676 1.395 . S
C678 C681 1.403 . S
C679 C676 1.403 . S
C679 C680 1.524 1_545 S
C679 C683 1.400 1_545 S
C680 H665 0.960 . S
C680 H666 0.960 1_565 S
C680 H667 0.960 . S
C680 C679 1.524 1_565 S
C681 C678 1.403 . S
C681 C682 1.392 . S
C681 C685 1.495 . S
C682 C681 1.392 . S
C682 C683 1.385 1_545 S
C682 C684 1.478 1_545 S
C683 H677 0.930 . S
C683 C679 1.400 1_565 S
C683 C682 1.385 1_565 S
C684 C682 1.478 1_565 S
C684 C686 1.381 1_565 S
C684 C690 1.383 . S
C685 C681 1.495 . S
C685 H691 0.959 . S
C685 H692 0.961 . S
C685 H693 0.960 . S
C686 C684 1.381 1_545 S
C686 C687 1.394 . S
C686 H694 0.930 . S
C687 C686 1.394 . S
C687 C688 1.383 1_545 S
C687 H695 0.929 . S
C688 C687 1.383 1_565 S
C688 C689 1.377 . S
C689 H673 0.930 . S
C689 C688 1.377 . S
C689 C690 1.379 . S
C690 H674 0.931 . S
C690 C684 1.383 . S
C690 C689 1.379 . S
H691 C685 0.959 . S
H692 C685 0.961 . S
H693 C685 0.960 . S
H694 C686 0.930 . S
H695 C687 0.929 . S
H696 C704 0.929 1_545 S
H697 C706 0.930 1_545 S
H698 C708 0.930 . S
H699 C711 0.929 . S
H700 C714 0.930 . S
H701 C716 0.960 . S
H702 C716 0.960 . S
H703 C716 0.960 . S
C704 H696 0.929 1_565 S
C704 C705 1.377 . S
C704 C706 1.384 . S
C705 C704 1.377 . S
C705 C711 1.390 . S
C706 H697 0.930 1_565 S
C706 C704 1.384 . S
C706 C707 1.372 . S
C707 C706 1.372 . S
C707 C708 1.400 . S
C707 C712 1.490 . S
C708 H698 0.930 . S
C708 C707 1.400 . S
C708 C711 1.386 . S
H709 C725 0.930 . S
H710 C726 0.931 . S
C711 H699 0.929 . S
C711 C705 1.390 . S
C711 C708 1.386 . S
C712 C707 1.490 . S
C712 C714 1.395 . S
C712 C715 1.403 . S
H713 C719 0.930 . S
C714 H700 0.930 . S
C714 C712 1.395 . S
C714 C717 1.403 . S
C715 C712 1.403 . S
C715 C716 1.524 . S
C715 C719 1.400 . S
C716 H701 0.960 . S
C716 H702 0.960 . S
C716 H703 0.960 . S
C716 C715 1.524 . S
C717 C714 1.403 . S
C717 C718 1.392 . S
C717 C721 1.495 1_565 S
C718 C717 1.392 . S
C718 C719 1.385 . S
C718 C720 1.478 . S
C719 H713 0.930 . S
C719 C715 1.400 . S
C719 C718 1.385 . S
C720 C718 1.478 . S
C720 C722 1.381 . S
C720 C726 1.383 . S
C721 C717 1.495 1_545 S
C721 H727 0.959 . S
C721 H728 0.961 1_545 S
C721 H729 0.960 1_655 S
C722 C720 1.381 . S
C722 C723 1.394 . S
C722 H730 0.930 1_655 S
C723 C722 1.394 . S
C723 C724 1.383 . S
C723 H731 0.929 1_655 S
C724 C723 1.383 . S
C724 C725 1.377 . S
C725 H709 0.930 . S
C725 C724 1.377 . S
C725 C726 1.379 . S
C726 H710 0.931 . S
C726 C720 1.383 . S
C726 C725 1.379 . S
H727 C721 0.959 . S
H728 C721 0.961 1_565 S
H729 C721 0.960 1_455 S
H730 C722 0.930 1_455 S
H731 C723 0.929 1_455 S
H732 C740 0.930 . S
H733 C742 0.930 . S
H734 C744 0.930 . S
H735 C747 0.929 . S
H736 C750 0.930 . S
H737 C752 0.960 . S
H738 C752 0.960 . S
H739 C752 0.960 . S
C740 H732 0.930 . S
C740 C741 1.374 1_455 S
C740 C742 1.387 . S
C741 C740 1.374 1_655 S
C741 C747 1.390 . S
C742 H733 0.930 . S
C742 C740 1.387 . S
C742 C743 1.372 1_455 S
C743 C742 1.372 1_655 S
C743 C744 1.400 . S
C743 C748 1.490 1_655 S
C744 H734 0.930 . S
C744 C743 1.400 . S
C744 C747 1.386 . S
H745 C761 0.930 . S
H746 C762 0.931 1_655 S
C747 H735 0.929 . S
C747 C741 1.390 . S
C747 C744 1.386 . S
C748 C743 1.490 1_455 S
C748 C750 1.395 . S
C748 C751 1.403 . S
H749 C755 0.930 . S
C750 H736 0.930 . S
C750 C748 1.395 . S
C750 C753 1.403 . S
C751 C748 1.403 . S
C751 C752 1.524 1_455 S
C751 C755 1.400 . S
C752 H737 0.960 . S
C752 H738 0.960 . S
C752 H739 0.960 . S
C752 C751 1.524 1_655 S
C753 C750 1.403 . S
C753 C754 1.392 . S
C753 C757 1.495 . S
C754 C753 1.392 . S
C754 C755 1.385 . S
C754 C756 1.478 . S
C755 H749 0.930 . S
C755 C751 1.400 . S
C755 C754 1.385 . S
C756 C754 1.478 . S
C756 C758 1.381 . S
C756 C762 1.383 . S
C757 C753 1.495 . S
C757 H763 0.959 . S
C757 H764 0.961 . S
C757 H765 0.960 . S
C758 C756 1.381 . S
C758 C759 1.394 . S
C758 H766 0.930 . S
C759 C758 1.394 . S
C759 C760 1.383 . S
C759 H767 0.929 . S
C760 C759 1.383 . S
C760 C761 1.377 . S
C761 H745 0.930 . S
C761 C760 1.377 . S
C761 C762 1.379 . S
C762 H746 0.931 1_455 S
C762 C756 1.383 . S
C762 C761 1.379 . S
H763 C757 0.959 . S
H764 C757 0.961 . S
H765 C757 0.960 . S
H766 C758 0.930 . S
H767 C759 0.929 . S
C345 C242 0.449 . S
C364 C63 0.473 . S
C381 C326 0.445 . S
C400 C147 0.428 . S
C417 C231 1.566 1_545 S
C436 C74 1.544 . S
C453 C158 1.562 . S
C472 C315 1.532 1_455 S
C489 C140 1.951 . S
C508 C56 1.946 . S
C525 C151 1.097 . S
C544 C226 0.869 . S
C561 C321 1.854 . S
C580 C237 1.843 . S
C597 C310 0.935 . S
C616 C67 1.075 . S
C633 C235 1.952 1_556 S
C652 C319 1.961 . S
C669 C69 0.961 . S
C688 C308 1.065 . S
C705 C142 1.857 . S
C724 C58 1.861 . S
C741 C224 1.092 . S
C760 C153 1.019 . S
