# Generated by pormake.
# Topology nfb, (4)-cn, num edge types: 1
# Building blocks:
#     Node 0, Type 0, BuildingBlock: QUQFOY_clean_sbu_1, # of connection points: 4
#     Node 1, Type 0, BuildingBlock: QUQFOY_clean_sbu_1, # of connection points: 4
#     Node 2, Type 0, BuildingBlock: QUQFOY_clean_sbu_1, # of connection points: 4
#     Node 3, Type 0, BuildingBlock: QUQFOY_clean_sbu_1, # of connection points: 4
#     Node 4, Type 0, BuildingBlock: QUQFOY_clean_sbu_1, # of connection points: 4
#     Node 5, Type 0, BuildingBlock: QUQFOY_clean_sbu_1, # of connection points: 4
#     Node 6, Type 0, BuildingBlock: QUQFOY_clean_sbu_1, # of connection points: 4
#     Node 7, Type 0, BuildingBlock: QUQFOY_clean_sbu_1, # of connection points: 4
#     Node 8, Type 0, BuildingBlock: QUQFOY_clean_sbu_1, # of connection points: 4
#     Node 9, Type 0, BuildingBlock: QUQFOY_clean_sbu_1, # of connection points: 4
#     Node 10, Type 0, BuildingBlock: QUQFOY_clean_sbu_1, # of connection points: 4
#     Node 11, Type 0, BuildingBlock: QUQFOY_clean_sbu_1, # of connection points: 4
#     Node 12, Type 0, BuildingBlock: QUQFOY_clean_sbu_1, # of connection points: 4
#     Node 13, Type 0, BuildingBlock: QUQFOY_clean_sbu_1, # of connection points: 4
#     Node 14, Type 0, BuildingBlock: QUQFOY_clean_sbu_1, # of connection points: 4
#     Node 15, Type 0, BuildingBlock: QUQFOY_clean_sbu_1, # of connection points: 4
#     Node 16, Type 0, BuildingBlock: QUQFOY_clean_sbu_1, # of connection points: 4
#     Node 17, Type 0, BuildingBlock: QUQFOY_clean_sbu_1, # of connection points: 4
#     Node 18, Type 0, BuildingBlock: QUQFOY_clean_sbu_1, # of connection points: 4
#     Node 19, Type 0, BuildingBlock: QUQFOY_clean_sbu_1, # of connection points: 4
#     Node 20, Type 0, BuildingBlock: QUQFOY_clean_sbu_1, # of connection points: 4
#     Node 21, Type 0, BuildingBlock: QUQFOY_clean_sbu_1, # of connection points: 4
#     Node 22, Type 0, BuildingBlock: QUQFOY_clean_sbu_1, # of connection points: 4
#     Node 23, Type 0, BuildingBlock: QUQFOY_clean_sbu_1, # of connection points: 4
#     Node 24, Type 0, BuildingBlock: QUQFOY_clean_sbu_1, # of connection points: 4
#     Node 25, Type 0, BuildingBlock: QUQFOY_clean_sbu_1, # of connection points: 4
#     Node 26, Type 0, BuildingBlock: QUQFOY_clean_sbu_1, # of connection points: 4
#     Node 27, Type 0, BuildingBlock: QUQFOY_clean_sbu_1, # of connection points: 4
#     Node 28, Type 0, BuildingBlock: QUQFOY_clean_sbu_1, # of connection points: 4
#     Node 29, Type 0, BuildingBlock: QUQFOY_clean_sbu_1, # of connection points: 4
#     Node 30, Type 0, BuildingBlock: QUQFOY_clean_sbu_1, # of connection points: 4
#     Node 31, Type 0, BuildingBlock: QUQFOY_clean_sbu_1, # of connection points: 4
#     Node 32, Type 0, BuildingBlock: QUQFOY_clean_sbu_1, # of connection points: 4
#     Node 33, Type 0, BuildingBlock: QUQFOY_clean_sbu_1, # of connection points: 4
#     Node 34, Type 0, BuildingBlock: QUQFOY_clean_sbu_1, # of connection points: 4
#     Node 35, Type 0, BuildingBlock: QUQFOY_clean_sbu_1, # of connection points: 4
#     Node 36, Type 0, BuildingBlock: QUQFOY_clean_sbu_1, # of connection points: 4
#     Node 37, Type 0, BuildingBlock: QUQFOY_clean_sbu_1, # of connection points: 4
#     Node 38, Type 0, BuildingBlock: QUQFOY_clean_sbu_1, # of connection points: 4
#     Node 39, Type 0, BuildingBlock: QUQFOY_clean_sbu_1, # of connection points: 4
#     Node 40, Type 0, BuildingBlock: QUQFOY_clean_sbu_1, # of connection points: 4
#     Node 41, Type 0, BuildingBlock: QUQFOY_clean_sbu_1, # of connection points: 4
#     Node 42, Type 0, BuildingBlock: QUQFOY_clean_sbu_1, # of connection points: 4
#     Node 43, Type 0, BuildingBlock: QUQFOY_clean_sbu_1, # of connection points: 4
#     Node 44, Type 0, BuildingBlock: QUQFOY_clean_sbu_1, # of connection points: 4
#     Node 45, Type 0, BuildingBlock: QUQFOY_clean_sbu_1, # of connection points: 4
#     Node 46, Type 0, BuildingBlock: QUQFOY_clean_sbu_1, # of connection points: 4
#     Node 47, Type 0, BuildingBlock: QUQFOY_clean_sbu_1, # of connection points: 4
#     Edge 48, Type (0, 0), BuildingBlock: XUDNAN_clean_linker_2, # of connection points: 2
#     Edge 49, Type (0, 0), BuildingBlock: XUDNAN_clean_linker_2, # of connection points: 2
#     Edge 50, Type (0, 0), BuildingBlock: XUDNAN_clean_linker_2, # of connection points: 2
#     Edge 51, Type (0, 0), BuildingBlock: XUDNAN_clean_linker_2, # of connection points: 2
#     Edge 52, Type (0, 0), BuildingBlock: XUDNAN_clean_linker_2, # of connection points: 2
#     Edge 53, Type (0, 0), BuildingBlock: XUDNAN_clean_linker_2, # of connection points: 2
#     Edge 54, Type (0, 0), BuildingBlock: XUDNAN_clean_linker_2, # of connection points: 2
#     Edge 55, Type (0, 0), BuildingBlock: XUDNAN_clean_linker_2, # of connection points: 2
#     Edge 56, Type (0, 0), BuildingBlock: XUDNAN_clean_linker_2, # of connection points: 2
#     Edge 57, Type (0, 0), BuildingBlock: XUDNAN_clean_linker_2, # of connection points: 2
#     Edge 58, Type (0, 0), BuildingBlock: XUDNAN_clean_linker_2, # of connection points: 2
#     Edge 59, Type (0, 0), BuildingBlock: XUDNAN_clean_linker_2, # of connection points: 2
#     Edge 60, Type (0, 0), BuildingBlock: XUDNAN_clean_linker_2, # of connection points: 2
#     Edge 61, Type (0, 0), BuildingBlock: XUDNAN_clean_linker_2, # of connection points: 2
#     Edge 62, Type (0, 0), BuildingBlock: XUDNAN_clean_linker_2, # of connection points: 2
#     Edge 63, Type (0, 0), BuildingBlock: XUDNAN_clean_linker_2, # of connection points: 2
#     Edge 64, Type (0, 0), BuildingBlock: XUDNAN_clean_linker_2, # of connection points: 2
#     Edge 65, Type (0, 0), BuildingBlock: XUDNAN_clean_linker_2, # of connection points: 2
#     Edge 66, Type (0, 0), BuildingBlock: XUDNAN_clean_linker_2, # of connection points: 2
#     Edge 67, Type (0, 0), BuildingBlock: XUDNAN_clean_linker_2, # of connection points: 2
#     Edge 68, Type (0, 0), BuildingBlock: XUDNAN_clean_linker_2, # of connection points: 2
#     Edge 69, Type (0, 0), BuildingBlock: XUDNAN_clean_linker_2, # of connection points: 2
#     Edge 70, Type (0, 0), BuildingBlock: XUDNAN_clean_linker_2, # of connection points: 2
#     Edge 71, Type (0, 0), BuildingBlock: XUDNAN_clean_linker_2, # of connection points: 2
#     Edge 72, Type (0, 0), BuildingBlock: XUDNAN_clean_linker_2, # of connection points: 2
#     Edge 73, Type (0, 0), BuildingBlock: XUDNAN_clean_linker_2, # of connection points: 2
#     Edge 74, Type (0, 0), BuildingBlock: XUDNAN_clean_linker_2, # of connection points: 2
#     Edge 75, Type (0, 0), BuildingBlock: XUDNAN_clean_linker_2, # of connection points: 2
#     Edge 76, Type (0, 0), BuildingBlock: XUDNAN_clean_linker_2, # of connection points: 2
#     Edge 77, Type (0, 0), BuildingBlock: XUDNAN_clean_linker_2, # of connection points: 2
#     Edge 78, Type (0, 0), BuildingBlock: XUDNAN_clean_linker_2, # of connection points: 2
#     Edge 79, Type (0, 0), BuildingBlock: XUDNAN_clean_linker_2, # of connection points: 2
#     Edge 80, Type (0, 0), BuildingBlock: XUDNAN_clean_linker_2, # of connection points: 2
#     Edge 81, Type (0, 0), BuildingBlock: XUDNAN_clean_linker_2, # of connection points: 2
#     Edge 82, Type (0, 0), BuildingBlock: XUDNAN_clean_linker_2, # of connection points: 2
#     Edge 83, Type (0, 0), BuildingBlock: XUDNAN_clean_linker_2, # of connection points: 2
#     Edge 84, Type (0, 0), BuildingBlock: XUDNAN_clean_linker_2, # of connection points: 2
#     Edge 85, Type (0, 0), BuildingBlock: XUDNAN_clean_linker_2, # of connection points: 2
#     Edge 86, Type (0, 0), BuildingBlock: XUDNAN_clean_linker_2, # of connection points: 2
#     Edge 87, Type (0, 0), BuildingBlock: XUDNAN_clean_linker_2, # of connection points: 2
#     Edge 88, Type (0, 0), BuildingBlock: XUDNAN_clean_linker_2, # of connection points: 2
#     Edge 89, Type (0, 0), BuildingBlock: XUDNAN_clean_linker_2, # of connection points: 2
#     Edge 90, Type (0, 0), BuildingBlock: XUDNAN_clean_linker_2, # of connection points: 2
#     Edge 91, Type (0, 0), BuildingBlock: XUDNAN_clean_linker_2, # of connection points: 2
#     Edge 92, Type (0, 0), BuildingBlock: XUDNAN_clean_linker_2, # of connection points: 2
#     Edge 93, Type (0, 0), BuildingBlock: XUDNAN_clean_linker_2, # of connection points: 2
#     Edge 94, Type (0, 0), BuildingBlock: XUDNAN_clean_linker_2, # of connection points: 2
#     Edge 95, Type (0, 0), BuildingBlock: XUDNAN_clean_linker_2, # of connection points: 2
#     Edge 96, Type (0, 0), BuildingBlock: XUDNAN_clean_linker_2, # of connection points: 2
#     Edge 97, Type (0, 0), BuildingBlock: XUDNAN_clean_linker_2, # of connection points: 2
#     Edge 98, Type (0, 0), BuildingBlock: XUDNAN_clean_linker_2, # of connection points: 2
#     Edge 99, Type (0, 0), BuildingBlock: XUDNAN_clean_linker_2, # of connection points: 2
#     Edge 100, Type (0, 0), BuildingBlock: XUDNAN_clean_linker_2, # of connection points: 2
#     Edge 101, Type (0, 0), BuildingBlock: XUDNAN_clean_linker_2, # of connection points: 2
#     Edge 102, Type (0, 0), BuildingBlock: XUDNAN_clean_linker_2, # of connection points: 2
#     Edge 103, Type (0, 0), BuildingBlock: XUDNAN_clean_linker_2, # of connection points: 2
#     Edge 104, Type (0, 0), BuildingBlock: XUDNAN_clean_linker_2, # of connection points: 2
#     Edge 105, Type (0, 0), BuildingBlock: XUDNAN_clean_linker_2, # of connection points: 2
#     Edge 106, Type (0, 0), BuildingBlock: XUDNAN_clean_linker_2, # of connection points: 2
#     Edge 107, Type (0, 0), BuildingBlock: XUDNAN_clean_linker_2, # of connection points: 2
#     Edge 108, Type (0, 0), BuildingBlock: XUDNAN_clean_linker_2, # of connection points: 2
#     Edge 109, Type (0, 0), BuildingBlock: XUDNAN_clean_linker_2, # of connection points: 2
#     Edge 110, Type (0, 0), BuildingBlock: XUDNAN_clean_linker_2, # of connection points: 2
#     Edge 111, Type (0, 0), BuildingBlock: XUDNAN_clean_linker_2, # of connection points: 2
#     Edge 112, Type (0, 0), BuildingBlock: XUDNAN_clean_linker_2, # of connection points: 2
#     Edge 113, Type (0, 0), BuildingBlock: XUDNAN_clean_linker_2, # of connection points: 2
#     Edge 114, Type (0, 0), BuildingBlock: XUDNAN_clean_linker_2, # of connection points: 2
#     Edge 115, Type (0, 0), BuildingBlock: XUDNAN_clean_linker_2, # of connection points: 2
#     Edge 116, Type (0, 0), BuildingBlock: XUDNAN_clean_linker_2, # of connection points: 2
#     Edge 117, Type (0, 0), BuildingBlock: XUDNAN_clean_linker_2, # of connection points: 2
#     Edge 118, Type (0, 0), BuildingBlock: XUDNAN_clean_linker_2, # of connection points: 2
#     Edge 119, Type (0, 0), BuildingBlock: XUDNAN_clean_linker_2, # of connection points: 2
#     Edge 120, Type (0, 0), BuildingBlock: XUDNAN_clean_linker_2, # of connection points: 2
#     Edge 121, Type (0, 0), BuildingBlock: XUDNAN_clean_linker_2, # of connection points: 2
#     Edge 122, Type (0, 0), BuildingBlock: XUDNAN_clean_linker_2, # of connection points: 2
#     Edge 123, Type (0, 0), BuildingBlock: XUDNAN_clean_linker_2, # of connection points: 2
#     Edge 124, Type (0, 0), BuildingBlock: XUDNAN_clean_linker_2, # of connection points: 2
#     Edge 125, Type (0, 0), BuildingBlock: XUDNAN_clean_linker_2, # of connection points: 2
#     Edge 126, Type (0, 0), BuildingBlock: XUDNAN_clean_linker_2, # of connection points: 2
#     Edge 127, Type (0, 0), BuildingBlock: XUDNAN_clean_linker_2, # of connection points: 2
#     Edge 128, Type (0, 0), BuildingBlock: XUDNAN_clean_linker_2, # of connection points: 2
#     Edge 129, Type (0, 0), BuildingBlock: XUDNAN_clean_linker_2, # of connection points: 2
#     Edge 130, Type (0, 0), BuildingBlock: XUDNAN_clean_linker_2, # of connection points: 2
#     Edge 131, Type (0, 0), BuildingBlock: XUDNAN_clean_linker_2, # of connection points: 2
#     Edge 132, Type (0, 0), BuildingBlock: XUDNAN_clean_linker_2, # of connection points: 2
#     Edge 133, Type (0, 0), BuildingBlock: XUDNAN_clean_linker_2, # of connection points: 2
#     Edge 134, Type (0, 0), BuildingBlock: XUDNAN_clean_linker_2, # of connection points: 2
#     Edge 135, Type (0, 0), BuildingBlock: XUDNAN_clean_linker_2, # of connection points: 2
#     Edge 136, Type (0, 0), BuildingBlock: XUDNAN_clean_linker_2, # of connection points: 2
#     Edge 137, Type (0, 0), BuildingBlock: XUDNAN_clean_linker_2, # of connection points: 2
#     Edge 138, Type (0, 0), BuildingBlock: XUDNAN_clean_linker_2, # of connection points: 2
#     Edge 139, Type (0, 0), BuildingBlock: XUDNAN_clean_linker_2, # of connection points: 2
#     Edge 140, Type (0, 0), BuildingBlock: XUDNAN_clean_linker_2, # of connection points: 2
#     Edge 141, Type (0, 0), BuildingBlock: XUDNAN_clean_linker_2, # of connection points: 2
#     Edge 142, Type (0, 0), BuildingBlock: XUDNAN_clean_linker_2, # of connection points: 2
#     Edge 143, Type (0, 0), BuildingBlock: XUDNAN_clean_linker_2, # of connection points: 2
# Relax obj value: 0.337
# Max RMSD: 0.150
# Mean RMSD: 0.117
data_MOF--net-nfb--node1-QUQFOY_clean_sbu_1--edge1-XUDNAN_clean_linker_2
_symmetry_space_group_name_H-M    P1
_symmetry_Int_Tables_number       1
_symmetry_cell_setting            triclinic
loop_
_symmetry_equiv_pos_as_xyz
'x, y, z'
_cell_length_a     60.221265
_cell_length_b     60.833568
_cell_length_c     60.749223
_cell_angle_alpha  91.393156
_cell_angle_beta   91.353018
_cell_angle_gamma 95.596236
loop_
_atom_site_label
_atom_site_type_symbol
_atom_site_fract_x
_atom_site_fract_y
_atom_site_fract_z
_atom_type_partial_charge
O0 O 0.10213 0.14565 0.39287 0.0
Cd1 Cd 0.1338 0.15737 0.40365 0.0
Cd2 Cd 0.14468 0.12175 0.3826 0.0
O3 O 0.11133 0.12153 0.36795 0.0
O4 O 0.12771 0.18506 0.41922 0.0
O5 O 0.14924 0.18459 0.39031 0.0
C6 C 0.14009 0.19575 0.40532 0.0
C7 C 0.1827 0.13243 0.37317 0.0
C8 C 0.09628 0.13187 0.3773 0.0
C9 C 0.14956 0.12055 0.42973 0.0
O10 O 0.14441 0.10785 0.41317 0.0
O11 O 0.14906 0.14127 0.42819 0.0
O12 O 0.17328 0.11277 0.36848 0.0
O13 O 0.16997 0.14665 0.38071 0.0
O14 O 0.37546 0.65949 0.89339 0.0
Cd15 Cd 0.37358 0.62953 0.90821 0.0
Cd16 Cd 0.36197 0.6112 0.86811 0.0
O17 O 0.36493 0.64633 0.8601 0.0
O18 O 0.39197 0.63428 0.9357 0.0
O19 O 0.39828 0.60967 0.90967 0.0
C20 C 0.40336 0.61872 0.92879 0.0
C21 C 0.37324 0.57634 0.85498 0.0
C22 C 0.36991 0.66293 0.87359 0.0
C23 C 0.3281 0.60678 0.90384 0.0
O24 O 0.33299 0.60329 0.88398 0.0
O25 O 0.34193 0.61746 0.91718 0.0
O26 O 0.3598 0.58725 0.84357 0.0
O27 O 0.38282 0.58662 0.87209 0.0
O28 O 0.92591 0.88831 0.38479 0.0
Cd29 Cd 0.89837 0.8755 0.40104 0.0
Cd30 Cd 0.88377 0.91563 0.39626 0.0
O31 O 0.91507 0.92133 0.37896 0.0
O32 O 0.90859 0.8464 0.40751 0.0
O33 O 0.87607 0.84963 0.39125 0.0
C34 C 0.88986 0.83714 0.39986 0.0
C35 C 0.84416 0.91511 0.38934 0.0
C36 C 0.93023 0.90778 0.37798 0.0
C37 C 0.89487 0.90478 0.44158 0.0
O38 O 0.88971 0.92038 0.42963 0.0
O39 O 0.8977 0.88614 0.43297 0.0
O40 O 0.85734 0.93328 0.39034 0.0
O41 O 0.85369 0.89691 0.38927 0.0
O42 O 0.64183 0.34517 0.90161 0.0
Cd43 Cd 0.64723 0.37771 0.91218 0.0
Cd44 Cd 0.64669 0.38658 0.86921 0.0
O45 O 0.63659 0.35141 0.86625 0.0
O46 O 0.63856 0.37802 0.94371 0.0
O47 O 0.62189 0.39603 0.91787 0.0
C48 C 0.62361 0.39081 0.9382 0.0
C49 C 0.63308 0.42176 0.8616 0.0
C50 C 0.63784 0.33778 0.88204 0.0
C51 C 0.69055 0.39376 0.89279 0.0
O52 O 0.68042 0.39062 0.87426 0.0
O53 O 0.67999 0.39188 0.91065 0.0
O54 O 0.63919 0.40905 0.84589 0.0
O55 O 0.63238 0.41351 0.88097 0.0
O56 O 0.1855 0.87998 0.62796 0.0
Cd57 Cd 0.15132 0.87628 0.62672 0.0
Cd58 Cd 0.15515 0.88658 0.66876 0.0
O59 O 0.18958 0.8972 0.66031 0.0
O60 O 0.14363 0.86995 0.59513 0.0
O61 O 0.13518 0.90017 0.6126 0.0
C62 C 0.13462 0.88827 0.59475 0.0
C63 C 0.11896 0.90046 0.672 0.0
C64 C 0.19828 0.88984 0.64277 0.0
C65 C 0.14149 0.84072 0.65907 0.0
O66 O 0.15236 0.85314 0.67349 0.0
O67 O 0.13616 0.84842 0.64063 0.0
O68 O 0.13312 0.90181 0.68851 0.0
O69 O 0.12621 0.89368 0.65351 0.0
O70 O 0.61633 0.68297 0.0975 0.0
Cd71 Cd 0.63508 0.68818 0.12615 0.0
Cd72 Cd 0.66655 0.67545 0.10246 0.0
O73 O 0.64678 0.68673 0.07789 0.0
O74 O 0.6256 0.7152 0.14323 0.0
O75 O 0.65566 0.71698 0.12324 0.0
C76 C 0.64198 0.72729 0.13476 0.0
C77 C 0.70463 0.68531 0.10712 0.0
C78 C 0.62564 0.68566 0.0791 0.0
C79 C 0.64626 0.64047 0.13112 0.0
O80 O 0.65662 0.64453 0.11352 0.0
O81 O 0.63852 0.6566 0.14164 0.0
O82 O 0.69689 0.67229 0.09107 0.0
O83 O 0.6906 0.6938 0.11974 0.0
O84 O 0.85747 0.12307 0.62785 0.0
Cd85 Cd 0.88941 0.12776 0.61684 0.0
Cd86 Cd 0.90134 0.12809 0.65835 0.0
O87 O 0.86648 0.11623 0.66216 0.0
O88 O 0.88439 0.12186 0.58473 0.0
O89 O 0.90684 0.10345 0.60504 0.0
C90 C 0.89791 0.10681 0.5861 0.0
C91 C 0.93814 0.11599 0.66199 0.0
C92 C 0.85142 0.11842 0.64717 0.0
C93 C 0.90487 0.17132 0.63757 0.0
O94 O 0.90337 0.16168 0.65585 0.0
O95 O 0.9027 0.16017 0.61954 0.0
O96 O 0.92677 0.12044 0.67911 0.0
O97 O 0.92778 0.11605 0.64311 0.0
O98 O 0.41669 0.35022 0.09067 0.0
Cd99 Cd 0.40019 0.34719 0.11964 0.0
Cd100 Cd 0.36925 0.36193 0.09601 0.0
O101 O 0.38478 0.34458 0.0719 0.0
O102 O 0.40694 0.31721 0.13307 0.0
O103 O 0.37591 0.32157 0.11475 0.0
C104 C 0.38856 0.30818 0.12379 0.0
C105 C 0.33278 0.35966 0.10773 0.0
C106 C 0.40603 0.34531 0.07265 0.0
C107 C 0.39336 0.39642 0.12348 0.0
O108 O 0.38462 0.39226 0.10448 0.0
O109 O 0.39839 0.38007 0.13519 0.0
O110 O 0.33787 0.3679 0.08887 0.0
O111 O 0.3479 0.35055 0.11865 0.0
O112 O 0.40067 0.06141 0.12597 0.0
Cd113 Cd 0.41187 0.09357 0.13241 0.0
Cd114 Cd 0.39214 0.10611 0.09642 0.0
O115 O 0.37829 0.07111 0.09934 0.0
O116 O 0.42134 0.09944 0.16396 0.0
O117 O 0.39093 0.11107 0.14893 0.0
C118 C 0.40425 0.11058 0.16573 0.0
C119 C 0.38163 0.14353 0.10231 0.0
C120 C 0.38579 0.05589 0.11119 0.0
C121 C 0.43988 0.10894 0.09336 0.0
O122 O 0.42231 0.10806 0.08125 0.0
O123 O 0.43859 0.10571 0.11395 0.0
O124 O 0.37341 0.13106 0.0859 0.0
O125 O 0.39409 0.13434 0.11612 0.0
O126 O 0.37084 0.88238 0.6554 0.0
Cd127 Cd 0.40474 0.88966 0.65813 0.0
Cd128 Cd 0.40693 0.85669 0.63387 0.0
O129 O 0.37489 0.86716 0.62279 0.0
O130 O 0.41768 0.91015 0.63552 0.0
O131 O 0.40957 0.92048 0.66946 0.0
C132 C 0.41632 0.92571 0.6501 0.0
C133 C 0.44509 0.85783 0.62212 0.0
C134 C 0.36213 0.87508 0.63714 0.0
C135 C 0.41252 0.8511 0.68059 0.0
O136 O 0.40275 0.84154 0.66369 0.0
O137 O 0.42149 0.87072 0.67894 0.0
O138 O 0.43004 0.84239 0.61511 0.0
O139 O 0.43812 0.87361 0.63388 0.0
O140 O 0.64587 0.97603 0.14298 0.0
Cd141 Cd 0.63535 0.94516 0.15295 0.0
Cd142 Cd 0.64332 0.92904 0.11222 0.0
O143 O 0.6585 0.96368 0.11156 0.0
O144 O 0.63069 0.94483 0.18545 0.0
O145 O 0.65737 0.92822 0.16956 0.0
C146 C 0.64667 0.93227 0.18699 0.0
C147 C 0.65169 0.89193 0.12114 0.0
C148 C 0.65527 0.98 0.12482 0.0
C149 C 0.59644 0.92954 0.12122 0.0
O150 O 0.60975 0.92798 0.10548 0.0
O151 O 0.60375 0.93406 0.1408 0.0
O152 O 0.65502 0.89925 0.1015 0.0
O153 O 0.64609 0.90616 0.13549 0.0
O154 O 0.67522 0.12299 0.66116 0.0
Cd155 Cd 0.64149 0.1156 0.65485 0.0
Cd156 Cd 0.64472 0.1548 0.64349 0.0
O157 O 0.67891 0.14875 0.63652 0.0
O158 O 0.63709 0.08444 0.6627 0.0
O159 O 0.63272 0.09548 0.62852 0.0
C160 C 0.63271 0.07961 0.64223 0.0
C161 C 0.60934 0.15654 0.625 0.0
C162 C 0.68792 0.13564 0.64955 0.0
C163 C 0.62526 0.14691 0.68513 0.0
O164 O 0.6403 0.16006 0.67685 0.0
O165 O 0.61927 0.12861 0.67536 0.0
O166 O 0.62387 0.17372 0.62672 0.0
O167 O 0.61609 0.13794 0.63074 0.0
O168 O 0.34476 0.86816 0.83706 0.0
Cd169 Cd 0.34256 0.87093 0.87054 0.0
Cd170 Cd 0.38569 0.86544 0.87194 0.0
O171 O 0.38117 0.87531 0.84021 0.0
O172 O 0.32154 0.8945 0.87812 0.0
O173 O 0.358 0.90073 0.88263 0.0
C174 C 0.33873 0.90855 0.8827 0.0
C175 C 0.4225 0.8753 0.88397 0.0
C176 C 0.36356 0.87194 0.82825 0.0
C177 C 0.35519 0.82458 0.88116 0.0
O178 O 0.37481 0.83292 0.87737 0.0
O179 O 0.33932 0.8373 0.88212 0.0
O180 O 0.41746 0.86151 0.86796 0.0
O181 O 0.40651 0.88348 0.8941 0.0
O182 O 0.59427 0.8743 0.38043 0.0
Cd183 Cd 0.6206 0.8903 0.36469 0.0
Cd184 Cd 0.6385 0.90003 0.40392 0.0
O185 O 0.60648 0.88421 0.41412 0.0
O186 O 0.61227 0.88244 0.33366 0.0
O187 O 0.64538 0.87767 0.34794 0.0
C188 C 0.63219 0.8772 0.33087 0.0
C189 C 0.67794 0.8962 0.40735 0.0
C190 C 0.59075 0.87569 0.40091 0.0
C191 C 0.62542 0.938 0.37904 0.0
O192 O 0.63411 0.9321 0.39689 0.0
O193 O 0.61922 0.92378 0.36399 0.0
O194 O 0.66656 0.9028 0.42366 0.0
O195 O 0.66656 0.88903 0.38984 0.0
O196 O 0.63854 0.12671 0.84953 0.0
Cd197 Cd 0.64803 0.12707 0.88207 0.0
Cd198 Cd 0.60674 0.13877 0.88859 0.0
O199 O 0.60309 0.13061 0.85548 0.0
O200 O 0.67052 0.10407 0.88618 0.0
O201 O 0.63585 0.09849 0.89702 0.0
C202 C 0.65478 0.09061 0.89392 0.0
C203 C 0.57504 0.13068 0.90956 0.0
C204 C 0.61876 0.12803 0.8423 0.0
C205 C 0.64324 0.17592 0.8943 0.0
O206 O 0.62256 0.16974 0.89468 0.0
O207 O 0.6572 0.16142 0.89151 0.0
O208 O 0.57622 0.14593 0.89529 0.0
O209 O 0.592 0.11948 0.91203 0.0
O210 O 0.4335 0.15711 0.36972 0.0
Cd211 Cd 0.40552 0.14606 0.35121 0.0
Cd212 Cd 0.38726 0.14092 0.39097 0.0
O213 O 0.41947 0.15631 0.4029 0.0
O214 O 0.41964 0.14882 0.32232 0.0
O215 O 0.3887 0.1638 0.32951 0.0
C216 C 0.40359 0.15951 0.31555 0.0
C217 C 0.3493 0.14989 0.38799 0.0
C218 C 0.43638 0.15968 0.39041 0.0
C219 C 0.39342 0.09983 0.36581 0.0
O220 O 0.38925 0.10787 0.38456 0.0
O221 O 0.3985 0.11244 0.35004 0.0
O222 O 0.35729 0.14256 0.40606 0.0
O223 O 0.36333 0.15434 0.37249 0.0
O224 O 0.11965 0.42986 0.18056 0.0
Cd225 Cd 0.1383 0.4035 0.18235 0.0
Cd226 Cd 0.16725 0.43103 0.16624 0.0
O227 O 0.14959 0.45375 0.18255 0.0
O228 O 0.12876 0.38506 0.20915 0.0
O229 O 0.1588 0.40868 0.2101 0.0
C230 C 0.1451 0.39541 0.22068 0.0
C231 C 0.20333 0.42142 0.16966 0.0
C232 C 0.12842 0.44966 0.18307 0.0
C233 C 0.1457 0.401 0.13257 0.0
O234 O 0.15388 0.42076 0.1363 0.0
O235 O 0.14092 0.38872 0.14918 0.0
O236 O 0.19943 0.43983 0.16078 0.0
O237 O 0.18703 0.40991 0.17872 0.0
O238 O 0.13107 0.60451 0.81284 0.0
Cd239 Cd 0.13065 0.59268 0.8444 0.0
Cd240 Cd 0.1418 0.63533 0.85723 0.0
O241 O 0.13501 0.64002 0.82235 0.0
O242 O 0.11407 0.56264 0.84434 0.0
O243 O 0.10394 0.59123 0.8635 0.0
C244 C 0.10129 0.57034 0.85881 0.0
C245 C 0.12932 0.64574 0.8929 0.0
C246 C 0.13299 0.62462 0.80725 0.0
C247 C 0.17595 0.60461 0.86528 0.0
O248 O 0.17244 0.62464 0.86288 0.0
O249 O 0.16096 0.58917 0.85981 0.0
O250 O 0.14072 0.65986 0.88091 0.0
O251 O 0.1223 0.62704 0.88341 0.0
O252 O 0.87175 0.66567 0.42883 0.0
Cd253 Cd 0.88045 0.63388 0.43 0.0
Cd254 Cd 0.91802 0.65229 0.42215 0.0
O255 O 0.906 0.67835 0.43875 0.0
O256 O 0.86253 0.61698 0.45381 0.0
O257 O 0.8975 0.63051 0.45921 0.0
C258 C 0.87943 0.62119 0.46739 0.0
C259 C 0.95029 0.63554 0.42952 0.0
C260 C 0.8857 0.68171 0.43519 0.0
C261 C 0.89561 0.63358 0.38244 0.0
O262 O 0.90863 0.64994 0.38959 0.0
O263 O 0.88487 0.62134 0.39651 0.0
O264 O 0.95116 0.6558 0.42345 0.0
O265 O 0.93099 0.62521 0.43297 0.0
O266 O 0.89835 0.40788 0.8177 0.0
Cd267 Cd 0.89557 0.41857 0.84995 0.0
Cd268 Cd 0.88825 0.37599 0.85835 0.0
O269 O 0.89887 0.37251 0.82455 0.0
O270 O 0.90675 0.45032 0.84986 0.0
O271 O 0.92162 0.42615 0.871 0.0
C272 C 0.921 0.44624 0.86498 0.0
C273 C 0.90081 0.36855 0.89518 0.0
C274 C 0.89985 0.38826 0.81068 0.0
C275 C 0.84989 0.40164 0.86378 0.0
O276 O 0.85546 0.3824 0.85968 0.0
O277 O 0.86406 0.41841 0.86265 0.0
O278 O 0.89209 0.35286 0.88194 0.0
O279 O 0.90493 0.38775 0.8867 0.0
O280 O 0.13964 0.40396 0.47275 0.0
Cd281 Cd 0.12778 0.38984 0.44378 0.0
Cd282 Cd 0.15069 0.4232 0.42315 0.0
O283 O 0.16743 0.42284 0.45615 0.0
O284 O 0.1188 0.35751 0.44698 0.0
O285 O 0.14805 0.37095 0.42846 0.0
C286 C 0.13558 0.35408 0.43493 0.0
C287 C 0.15719 0.41171 0.38527 0.0
C288 C 0.15801 0.41603 0.47403 0.0
C289 C 0.10227 0.42447 0.42387 0.0
O290 O 0.12053 0.43684 0.42331 0.0
O291 O 0.10221 0.40428 0.4289 0.0
O292 O 0.16576 0.43075 0.39307 0.0
O293 O 0.14724 0.39887 0.39928 0.0
O294 O 0.87689 0.62522 0.2082 0.0
Cd295 Cd 0.87643 0.61976 0.17522 0.0
Cd296 Cd 0.89837 0.65771 0.17264 0.0
O297 O 0.90717 0.64845 0.20647 0.0
O298 O 0.87403 0.58709 0.16899 0.0
O299 O 0.90504 0.60933 0.16522 0.0
C300 C 0.8949 0.58971 0.16416 0.0
C301 C 0.91307 0.65891 0.13568 0.0
C302 C 0.89344 0.63609 0.21797 0.0
C303 C 0.85216 0.65684 0.16016 0.0
O304 O 0.86744 0.66882 0.17083 0.0
O305 O 0.85416 0.63638 0.15663 0.0
O306 O 0.91874 0.67465 0.15009 0.0
O307 O 0.90118 0.64196 0.14278 0.0
O308 O 0.90015 0.37423 0.56171 0.0
Cd309 Cd 0.91298 0.36166 0.58945 0.0
Cd310 Cd 0.91067 0.40262 0.60853 0.0
O311 O 0.8952 0.40713 0.57593 0.0
O312 O 0.91316 0.32942 0.58284 0.0
O313 O 0.89528 0.3428 0.6107 0.0
C314 C 0.90166 0.32598 0.60024 0.0
C315 C 0.89929 0.39586 0.64595 0.0
C316 C 0.89436 0.39353 0.55918 0.0
C317 C 0.95609 0.38929 0.60229 0.0
O318 O 0.94517 0.40535 0.60772 0.0
O319 O 0.94604 0.37093 0.59567 0.0
O320 O 0.90224 0.4158 0.63881 0.0
O321 O 0.90026 0.38022 0.63137 0.0
O322 O 0.13659 0.64471 0.56143 0.0
Cd323 Cd 0.12865 0.6551 0.59231 0.0
Cd324 Cd 0.13618 0.61409 0.60537 0.0
O325 O 0.14994 0.61403 0.57219 0.0
O326 O 0.12362 0.68684 0.59117 0.0
O327 O 0.15039 0.67447 0.61155 0.0
C328 C 0.13922 0.69058 0.60607 0.0
C329 C 0.14752 0.6217 0.64335 0.0
C330 C 0.14597 0.62744 0.55672 0.0
C331 C 0.09088 0.62279 0.60889 0.0
O332 O 0.10223 0.60656 0.60572 0.0
O333 O 0.09943 0.64232 0.60569 0.0
O334 O 0.14794 0.60207 0.63467 0.0
O335 O 0.14378 0.63708 0.6299 0.0
O336 O 0.94837 0.87588 0.64842 0.0
Cd337 Cd 0.91758 0.86891 0.63389 0.0
Cd338 Cd 0.90182 0.88459 0.67028 0.0
O339 O 0.93645 0.90008 0.67183 0.0
O340 O 0.92168 0.86426 0.60174 0.0
O341 O 0.90776 0.89364 0.616 0.0
C342 C 0.91364 0.88293 0.59892 0.0
C343 C 0.86455 0.8909 0.65717 0.0
C344 C 0.95278 0.89136 0.66268 0.0
C345 C 0.89437 0.83791 0.66509 0.0
O346 O 0.90008 0.8525 0.67999 0.0
O347 O 0.89678 0.84231 0.64486 0.0
O348 O 0.87119 0.89678 0.67709 0.0
O349 O 0.87957 0.8842 0.64461 0.0
O350 O 0.60755 0.43416 0.09569 0.0
Cd351 Cd 0.62863 0.43768 0.12316 0.0
Cd352 Cd 0.65683 0.43054 0.0945 0.0
O353 O 0.63545 0.44729 0.07579 0.0
O354 O 0.61869 0.46169 0.14423 0.0
O355 O 0.6473 0.46778 0.12265 0.0
C356 C 0.63382 0.47573 0.13631 0.0
C357 C 0.69475 0.44068 0.09911 0.0
C358 C 0.61464 0.44242 0.07788 0.0
C359 C 0.64268 0.39113 0.11887 0.0
O360 O 0.64769 0.39759 0.09974 0.0
O361 O 0.63799 0.40565 0.13342 0.0
O362 O 0.68652 0.43231 0.08059 0.0
O363 O 0.68118 0.44437 0.11461 0.0
O364 O 0.10701 0.13395 0.62908 0.0
Cd365 Cd 0.1383 0.14051 0.61649 0.0
Cd366 Cd 0.15419 0.13493 0.6551 0.0
O367 O 0.12028 0.11943 0.65888 0.0
O368 O 0.13472 0.14022 0.58404 0.0
O369 O 0.15184 0.11504 0.60188 0.0
C370 C 0.14546 0.12291 0.58356 0.0
C371 C 0.19162 0.12495 0.65075 0.0
C372 C 0.10343 0.12372 0.64681 0.0
C373 C 0.1591 0.18004 0.64256 0.0
O374 O 0.15589 0.16852 0.65956 0.0
O375 O 0.15569 0.17111 0.62349 0.0
O376 O 0.18199 0.12356 0.66959 0.0
O377 O 0.17936 0.12951 0.63409 0.0
O378 O 0.4226 0.59702 0.0853 0.0
Cd379 Cd 0.4051 0.59741 0.11394 0.0
Cd380 Cd 0.37031 0.5953 0.08715 0.0
O381 O 0.39283 0.58083 0.06756 0.0
O382 O 0.41763 0.57581 0.13564 0.0
O383 O 0.38667 0.5675 0.11609 0.0
C384 C 0.4018 0.56094 0.1291 0.0
C385 C 0.33311 0.58023 0.08865 0.0
C386 C 0.41376 0.58639 0.06855 0.0
C387 C 0.38453 0.64054 0.10751 0.0
O388 O 0.37454 0.62921 0.09171 0.0
O389 O 0.39614 0.63061 0.12151 0.0
O390 O 0.34069 0.58985 0.07132 0.0
O391 O 0.34688 0.57843 0.10493 0.0
O392 O 0.86267 0.1463 0.42054 0.0
Cd393 Cd 0.89678 0.1531 0.42175 0.0
Cd394 Cd 0.89404 0.12106 0.39363 0.0
O395 O 0.86039 0.13039 0.38766 0.0
O396 O 0.90964 0.1772 0.4026 0.0
O397 O 0.90115 0.18242 0.43746 0.0
C398 C 0.90795 0.19058 0.41913 0.0
C399 C 0.93009 0.1242 0.37707 0.0
C400 C 0.85069 0.1388 0.40405 0.0
C401 C 0.90882 0.11099 0.43748 0.0
O402 O 0.89591 0.10301 0.42182 0.0
O403 O 0.91505 0.13156 0.4385 0.0
O404 O 0.91473 0.1087 0.3709 0.0
O405 O 0.92411 0.13925 0.39042 0.0
O406 O 0.39187 0.41306 0.88563 0.0
Cd407 Cd 0.3871 0.38903 0.90823 0.0
Cd408 Cd 0.35874 0.36622 0.87766 0.0
O409 O 0.36787 0.39718 0.86052 0.0
O410 O 0.41124 0.39561 0.93129 0.0
O411 O 0.40499 0.36353 0.91328 0.0
C412 C 0.41568 0.37544 0.92861 0.0
C413 C 0.36445 0.32711 0.875 0.0
C414 C 0.38067 0.41426 0.8678 0.0
C415 C 0.3385 0.38338 0.91865 0.0
O416 O 0.33523 0.37223 0.90068 0.0
O417 O 0.35805 0.3912 0.92479 0.0
O418 O 0.34885 0.33499 0.86343 0.0
O419 O 0.37782 0.34154 0.88592 0.0
O420 O 0.17147 0.89078 0.39966 0.0
Cd421 Cd 0.13814 0.88065 0.40253 0.0
Cd422 Cd 0.13215 0.92237 0.39618 0.0
O423 O 0.16735 0.92436 0.38843 0.0
O424 O 0.13926 0.84831 0.40407 0.0
O425 O 0.12135 0.86385 0.37734 0.0
C426 C 0.1277 0.84623 0.38594 0.0
C427 C 0.09623 0.92434 0.3788 0.0
C428 C 0.1801 0.90922 0.39312 0.0
C429 C 0.12253 0.90742 0.44029 0.0
O430 O 0.12812 0.92453 0.42944 0.0
O431 O 0.12329 0.88831 0.43155 0.0
O432 O 0.10992 0.94189 0.38268 0.0
O433 O 0.10406 0.90556 0.38201 0.0
O434 O 0.63736 0.58831 0.89487 0.0
Cd435 Cd 0.64636 0.61815 0.90968 0.0
Cd436 Cd 0.64632 0.63588 0.86982 0.0
O437 O 0.6317 0.60176 0.86201 0.0
O438 O 0.63825 0.616 0.94128 0.0
O439 O 0.62287 0.63765 0.91778 0.0
C440 C 0.6245 0.63055 0.93747 0.0
C441 C 0.63629 0.6736 0.87009 0.0
C442 C 0.63169 0.58504 0.87475 0.0
C443 C 0.69054 0.63481 0.89115 0.0
O444 O 0.68035 0.63706 0.87291 0.0
O445 O 0.67986 0.62901 0.90824 0.0
O446 O 0.63817 0.66264 0.85178 0.0
O447 O 0.63779 0.66268 0.88787 0.0
O448 O 0.66771 0.87648 0.8517 0.0
Cd449 Cd 0.65711 0.87673 0.8835 0.0
Cd450 Cd 0.62067 0.88954 0.86631 0.0
O451 O 0.63226 0.8696 0.84178 0.0
O452 O 0.66546 0.84716 0.8964 0.0
O453 O 0.63171 0.85205 0.88418 0.0
C454 C 0.64565 0.83845 0.89047 0.0
C455 C 0.5836 0.88544 0.87618 0.0
C456 C 0.65278 0.86886 0.8377 0.0
C457 C 0.64949 0.92599 0.88825 0.0
O458 O 0.6354 0.92096 0.87265 0.0
O459 O 0.65877 0.91035 0.89777 0.0
O460 O 0.58953 0.89372 0.85763 0.0
O461 O 0.59876 0.87857 0.88893 0.0
O462 O 0.67917 0.14362 0.37491 0.0
Cd463 Cd 0.64695 0.14 0.36243 0.0
Cd464 Cd 0.6356 0.14084 0.40393 0.0
O465 O 0.67075 0.15153 0.40909 0.0
O466 O 0.65235 0.14191 0.33059 0.0
O467 O 0.63196 0.16453 0.34833 0.0
C468 C 0.64007 0.15804 0.33009 0.0
C469 C 0.60051 0.15581 0.40888 0.0
C470 C 0.68554 0.14887 0.39455 0.0
C471 C 0.62669 0.09802 0.38071 0.0
O472 O 0.63024 0.10705 0.39968 0.0
O473 O 0.63018 0.1092 0.36358 0.0
O474 O 0.61217 0.14963 0.4254 0.0
O475 O 0.60992 0.15594 0.38993 0.0
O476 O 0.35695 0.12277 0.84299 0.0
Cd477 Cd 0.3497 0.1231 0.87572 0.0
Cd478 Cd 0.39064 0.11019 0.87968 0.0
O479 O 0.39281 0.12848 0.85137 0.0
O480 O 0.33369 0.15144 0.8797 0.0
O481 O 0.36838 0.14926 0.89101 0.0
C482 C 0.3524 0.16158 0.88711 0.0
C483 C 0.42211 0.11185 0.90272 0.0
C484 C 0.37669 0.12932 0.83765 0.0
C485 C 0.35285 0.07428 0.88472 0.0
O486 O 0.3729 0.07941 0.87942 0.0
O487 O 0.34003 0.08987 0.88742 0.0
O488 O 0.42096 0.10094 0.88427 0.0
O489 O 0.40559 0.12272 0.90805 0.0
O490 O 0.34664 0.89134 0.3803 0.0
Cd491 Cd 0.37677 0.89423 0.36501 0.0
Cd492 Cd 0.39432 0.90373 0.40588 0.0
O493 O 0.35943 0.89831 0.41442 0.0
O494 O 0.36678 0.88558 0.33447 0.0
O495 O 0.39188 0.86854 0.35265 0.0
C496 C 0.38051 0.8707 0.33471 0.0
C497 C 0.42853 0.88678 0.4107 0.0
C498 C 0.3429 0.89455 0.40053 0.0
C499 C 0.39777 0.9404 0.37459 0.0
O500 O 0.40037 0.93502 0.39445 0.0
O501 O 0.38991 0.92616 0.36013 0.0
O502 O 0.42145 0.89936 0.426 0.0
O503 O 0.41515 0.88196 0.39388 0.0
O504 O 0.62143 0.21987 0.12805 0.0
Cd505 Cd 0.6134 0.18775 0.13651 0.0
Cd506 Cd 0.63884 0.17839 0.10355 0.0
O507 O 0.65119 0.21311 0.10965 0.0
O508 O 0.59731 0.1917 0.16419 0.0
O509 O 0.62942 0.17689 0.16267 0.0
C510 C 0.61352 0.18353 0.17427 0.0
C511 C 0.65394 0.14322 0.10792 0.0
C512 C 0.63912 0.22704 0.11861 0.0
C513 C 0.59167 0.16534 0.09658 0.0
O514 O 0.60856 0.173 0.08606 0.0
O515 O 0.59172 0.16709 0.11743 0.0
O516 O 0.65881 0.15568 0.09139 0.0
O517 O 0.64266 0.15174 0.12329 0.0
O518 O 0.44046 0.13662 0.64588 0.0
Cd519 Cd 0.40993 0.12183 0.65376 0.0
Cd520 Cd 0.39544 0.15703 0.63741 0.0
O521 O 0.42751 0.15833 0.62123 0.0
O522 O 0.41764 0.09319 0.66472 0.0
O523 O 0.39785 0.09631 0.63396 0.0
C524 C 0.40758 0.08402 0.64743 0.0
C525 C 0.3568 0.1433 0.63079 0.0
C526 C 0.44412 0.14971 0.63017 0.0
C527 C 0.39361 0.15482 0.68416 0.0
O528 O 0.39872 0.16891 0.66958 0.0
O529 O 0.39334 0.13432 0.67964 0.0
O530 O 0.36409 0.16313 0.62537 0.0
O531 O 0.37176 0.13071 0.63688 0.0
O532 O 0.40977 0.81252 0.12826 0.0
Cd533 Cd 0.41399 0.84301 0.14384 0.0
Cd534 Cd 0.39705 0.8561 0.10472 0.0
O535 O 0.38459 0.82108 0.10391 0.0
O536 O 0.4262 0.83509 0.17287 0.0
O537 O 0.39371 0.84879 0.16865 0.0
C538 C 0.40835 0.84109 0.18147 0.0
C539 C 0.38109 0.89108 0.10433 0.0
C540 C 0.39479 0.80631 0.11383 0.0
C541 C 0.44292 0.87085 0.11428 0.0
O542 O 0.43061 0.86275 0.09825 0.0
O543 O 0.43712 0.8675 0.13393 0.0
O544 O 0.38116 0.87845 0.08686 0.0
O545 O 0.38737 0.8827 0.12258 0.0
O546 O 0.61581 0.87345 0.65276 0.0
Cd547 Cd 0.64735 0.88799 0.65923 0.0
Cd548 Cd 0.66059 0.85614 0.63925 0.0
O549 O 0.62745 0.8566 0.62357 0.0
O550 O 0.642 0.9181 0.66875 0.0
O551 O 0.65814 0.9105 0.6374 0.0
C552 C 0.64998 0.9247 0.65026 0.0
C553 C 0.69915 0.8666 0.63125 0.0
C554 C 0.61119 0.86305 0.63467 0.0
C555 C 0.66608 0.85474 0.68579 0.0
O556 O 0.65968 0.84176 0.66968 0.0
O557 O 0.66622 0.87548 0.68366 0.0
O558 O 0.68867 0.84839 0.62333 0.0
O559 O 0.68725 0.88002 0.64134 0.0
O560 O 0.89339 0.62706 0.96924 0.0
Cd561 Cd 0.88631 0.61164 0.93981 0.0
Cd562 Cd 0.89878 0.6501 0.92139 0.0
O563 O 0.91453 0.65444 0.95478 0.0
O564 O 0.88842 0.57903 0.94223 0.0
O565 O 0.91326 0.60172 0.92563 0.0
C566 C 0.90672 0.58201 0.93153 0.0
C567 C 0.90551 0.64114 0.88305 0.0
C568 C 0.90727 0.64402 0.97193 0.0
C569 C 0.85125 0.63773 0.92064 0.0
O570 O 0.86571 0.65439 0.92222 0.0
O571 O 0.85672 0.61837 0.92419 0.0
O572 O 0.91005 0.66117 0.89078 0.0
O573 O 0.90003 0.62643 0.89738 0.0
O574 O 0.90689 0.40613 0.06143 0.0
Cd575 Cd 0.8988 0.4246 0.08778 0.0
Cd576 Cd 0.88705 0.38596 0.10759 0.0
O577 O 0.89669 0.37348 0.07514 0.0
O578 O 0.91556 0.45405 0.08547 0.0
O579 O 0.91763 0.43304 0.11467 0.0
C580 C 0.92274 0.45163 0.10534 0.0
C581 C 0.89398 0.37867 0.14595 0.0
C582 C 0.9036 0.38531 0.0588 0.0
C583 C 0.85169 0.41749 0.09901 0.0
O584 O 0.85692 0.39956 0.107 0.0
O585 O 0.86597 0.43033 0.08945 0.0
O586 O 0.88183 0.36483 0.1331 0.0
O587 O 0.90495 0.39499 0.13648 0.0
O588 O 0.15133 0.38103 0.70923 0.0
Cd589 Cd 0.14825 0.37123 0.67651 0.0
Cd590 Cd 0.15164 0.41516 0.67224 0.0
O591 O 0.16148 0.41663 0.70702 0.0
O592 O 0.14449 0.33883 0.68006 0.0
O593 O 0.17238 0.35557 0.66192 0.0
C594 C 0.16223 0.33753 0.66895 0.0
C595 C 0.16846 0.41917 0.63687 0.0
C596 C 0.15763 0.39946 0.7188 0.0
C597 C 0.10927 0.39288 0.65789 0.0
O598 O 0.11762 0.41091 0.66692 0.0
O599 O 0.12009 0.376 0.65807 0.0
O600 O 0.16254 0.43605 0.64787 0.0
O601 O 0.16758 0.40066 0.64701 0.0
O602 O 0.12024 0.60762 0.05655 0.0
Cd603 Cd 0.12639 0.58696 0.08145 0.0
Cd604 Cd 0.14647 0.62545 0.10366 0.0
O605 O 0.13686 0.63866 0.07185 0.0
O606 O 0.10341 0.56144 0.08564 0.0
O607 O 0.1125 0.58858 0.11022 0.0
C608 C 0.10184 0.56963 0.10533 0.0
C609 C 0.14389 0.63585 0.14239 0.0
C610 C 0.12708 0.62797 0.05505 0.0
C611 C 0.17428 0.58716 0.09189 0.0
O612 O 0.17272 0.60598 0.10093 0.0
O613 O 0.15762 0.57629 0.0823 0.0
O614 O 0.15817 0.64618 0.12974 0.0
O615 O 0.12922 0.62185 0.13268 0.0
O616 O 0.86604 0.6663 0.68024 0.0
Cd617 Cd 0.87726 0.63544 0.68113 0.0
Cd618 Cd 0.91246 0.65415 0.66745 0.0
O619 O 0.90099 0.68014 0.68477 0.0
O620 O 0.86608 0.61921 0.70873 0.0
O621 O 0.89975 0.63661 0.70728 0.0
C622 C 0.88459 0.62639 0.71897 0.0
C623 C 0.94804 0.64327 0.67122 0.0
C624 C 0.88028 0.68266 0.68492 0.0
C625 C 0.88627 0.63046 0.63189 0.0
O626 O 0.89962 0.64753 0.63622 0.0
O627 O 0.8771 0.62007 0.6481 0.0
O628 O 0.94458 0.66215 0.66326 0.0
O629 O 0.93126 0.63103 0.67854 0.0
O630 O 0.10765 0.42792 0.92689 0.0
Cd631 Cd 0.1305 0.40519 0.93037 0.0
Cd632 Cd 0.15774 0.43832 0.92189 0.0
O633 O 0.13348 0.45416 0.93786 0.0
O634 O 0.12112 0.38235 0.95408 0.0
O635 O 0.14601 0.41063 0.96085 0.0
C636 C 0.13408 0.39384 0.96834 0.0
C637 C 0.19309 0.43212 0.93471 0.0
C638 C 0.11306 0.44771 0.93358 0.0
C639 C 0.14782 0.41106 0.88306 0.0
O640 O 0.15168 0.43124 0.88906 0.0
O641 O 0.14289 0.39657 0.89786 0.0
O642 O 0.18909 0.4516 0.9286 0.0
O643 O 0.17689 0.41663 0.93422 0.0
O644 O 0.11632 0.63739 0.30971 0.0
Cd645 Cd 0.11054 0.65181 0.33961 0.0
Cd646 Cd 0.13268 0.61814 0.35564 0.0
O647 O 0.14546 0.62184 0.32227 0.0
O648 O 0.12873 0.67967 0.34964 0.0
O649 O 0.09629 0.6786 0.33146 0.0
C650 C 0.11307 0.69004 0.34102 0.0
C651 C 0.14912 0.62087 0.39219 0.0
C652 C 0.13384 0.62814 0.30591 0.0
C653 C 0.08649 0.61666 0.36597 0.0
O654 O 0.1003 0.60355 0.35947 0.0
O655 O 0.08946 0.63697 0.36161 0.0
O656 O 0.15098 0.60398 0.37923 0.0
O657 O 0.14073 0.63753 0.38346 0.0
O658 O 0.91824 0.38095 0.31573 0.0
Cd659 Cd 0.92707 0.37454 0.34768 0.0
Cd660 Cd 0.90544 0.40965 0.35897 0.0
O661 O 0.8921 0.40216 0.32545 0.0
O662 O 0.93552 0.34366 0.3496 0.0
O663 O 0.90653 0.35574 0.36624 0.0
C664 C 0.91912 0.34012 0.36277 0.0
C665 C 0.89096 0.40826 0.39587 0.0
C666 C 0.9021 0.39185 0.31037 0.0
C667 C 0.95377 0.4155 0.36537 0.0
O668 O 0.93727 0.42622 0.36078 0.0
O669 O 0.95211 0.3946 0.36326 0.0
O670 O 0.8876 0.42431 0.38296 0.0
O671 O 0.90018 0.392 0.38712 0.0
H672 H 0.11544 0.31485 0.44913 0.0
H673 H 0.16595 0.34261 0.40511 0.0
H674 H 0.17298 0.30503 0.39276 0.0
H675 H 0.14424 0.26826 0.46525 0.0
H676 H 0.11901 0.24978 0.46615 0.0
H677 H 0.11817 0.27891 0.47162 0.0
H678 H 0.08779 0.28007 0.4408 0.0
H679 H 0.08858 0.25096 0.43521 0.0
H680 H 0.09315 0.27028 0.41337 0.0
H681 H 0.17373 0.26435 0.38446 0.0
H682 H 0.16883 0.22347 0.38183 0.0
H683 H 0.11839 0.22288 0.43178 0.0
C684 C 0.12803 0.31303 0.43695 0.0
C685 C 0.14017 0.3316 0.42811 0.0
C686 C 0.15652 0.32856 0.41219 0.0
C687 C 0.16061 0.30731 0.40503 0.0
C688 C 0.14828 0.28933 0.41403 0.0
C689 C 0.13241 0.29197 0.42971 0.0
C690 C 0.12144 0.26995 0.43676 0.0
C691 C 0.126 0.26653 0.4614 0.0
C692 C 0.09625 0.26769 0.43119 0.0
C693 C 0.13356 0.25454 0.42253 0.0
C694 C 0.14893 0.26598 0.40947 0.0
C695 C 0.16182 0.25518 0.39468 0.0
C696 C 0.15891 0.23202 0.39327 0.0
C697 C 0.14332 0.22006 0.40665 0.0
C698 C 0.13056 0.23155 0.42143 0.0
H699 H 0.29751 0.63435 0.91405 0.0
H700 H 0.30722 0.56543 0.90372 0.0
H701 H 0.2665 0.5562 0.89944 0.0
H702 H 0.23828 0.6259 0.93893 0.0
H703 H 0.23016 0.6491 0.92382 0.0
H704 H 0.25847 0.64908 0.93418 0.0
H705 H 0.27255 0.65606 0.8948 0.0
H706 H 0.24448 0.65535 0.88411 0.0
H707 H 0.26307 0.6368 0.87273 0.0
H708 H 0.22717 0.55582 0.88684 0.0
H709 H 0.19158 0.56396 0.86929 0.0
H710 H 0.20785 0.63367 0.88547 0.0
C711 C 0.29079 0.61718 0.91247 0.0
C712 C 0.30512 0.60044 0.90994 0.0
C713 C 0.29622 0.57827 0.9064 0.0
C714 C 0.27316 0.57294 0.90385 0.0
C715 C 0.25939 0.59005 0.90474 0.0
C716 C 0.26782 0.61175 0.90936 0.0
C717 C 0.25035 0.62753 0.90515 0.0
C718 C 0.24393 0.63855 0.92682 0.0
C719 C 0.25809 0.64493 0.88819 0.0
C720 C 0.23143 0.61156 0.89595 0.0
C721 C 0.23669 0.58997 0.89643 0.0
C722 C 0.2226 0.57259 0.88691 0.0
C723 C 0.20255 0.57739 0.87678 0.0
C724 C 0.19702 0.59945 0.87592 0.0
C725 C 0.2116 0.61663 0.88585 0.0
H726 H 0.91671 0.80854 0.41747 0.0
H727 H 0.8499 0.81213 0.39027 0.0
H728 H 0.84 0.77301 0.39981 0.0
H729 H 0.92318 0.75374 0.39899 0.0
H730 H 0.93862 0.74749 0.42345 0.0
H731 H 0.93972 0.77547 0.41435 0.0
H732 H 0.92672 0.78789 0.45273 0.0
H733 H 0.9251 0.75981 0.46178 0.0
H734 H 0.90099 0.77512 0.46326 0.0
H735 H 0.83806 0.73312 0.41224 0.0
H736 H 0.84519 0.69544 0.42288 0.0
H737 H 0.91303 0.7197 0.4429 0.0
C738 C 0.89999 0.80116 0.41335 0.0
C739 C 0.88406 0.81334 0.40308 0.0
C740 C 0.86239 0.80301 0.39803 0.0
C741 C 0.85659 0.78091 0.40356 0.0
C742 C 0.87263 0.76958 0.41422 0.0
C743 C 0.89394 0.77939 0.41887 0.0
C744 C 0.90841 0.76376 0.42991 0.0
C745 C 0.92867 0.75988 0.41583 0.0
C746 C 0.91573 0.77216 0.45331 0.0
C747 C 0.89207 0.74336 0.43047 0.0
C748 C 0.87145 0.74702 0.42157 0.0
C749 C 0.8541 0.73014 0.41937 0.0
C750 C 0.85828 0.70881 0.42559 0.0
C751 C 0.87967 0.70461 0.43377 0.0
C752 C 0.89644 0.72235 0.43692 0.0
H753 H 0.81152 0.37672 0.85106 0.0
H754 H 0.83724 0.43271 0.89283 0.0
H755 H 0.79924 0.43604 0.90648 0.0
H756 H 0.76084 0.39924 0.83515 0.0
H757 H 0.74441 0.37281 0.83442 0.0
H758 H 0.77377 0.37438 0.82898 0.0
H759 H 0.77929 0.34673 0.86002 0.0
H760 H 0.74996 0.34521 0.86565 0.0
H761 H 0.77032 0.35281 0.88742 0.0
H762 H 0.7583 0.43187 0.91669 0.0
H763 H 0.71712 0.42376 0.91867 0.0
H764 H 0.71867 0.37289 0.86769 0.0
C765 C 0.80912 0.38964 0.86311 0.0
C766 C 0.82718 0.40438 0.87103 0.0
C767 C 0.82348 0.42131 0.88653 0.0
C768 C 0.80204 0.42323 0.89448 0.0
C769 C 0.78454 0.40831 0.88642 0.0
C770 C 0.78782 0.3921 0.87078 0.0
C771 C 0.76615 0.37893 0.86381 0.0
C772 C 0.76099 0.38151 0.83913 0.0
C773 C 0.76646 0.35447 0.86958 0.0
C774 C 0.75014 0.39021 0.87796 0.0
C775 C 0.76102 0.40684 0.89123 0.0
C776 C 0.74957 0.41904 0.90621 0.0
C777 C 0.7263 0.41431 0.90732 0.0
C778 C 0.71495 0.39794 0.89315 0.0
C779 C 0.72705 0.38571 0.87847 0.0
H780 H 0.11506 0.7257 0.60085 0.0
H781 H 0.1695 0.70313 0.63961 0.0
H782 H 0.17164 0.73755 0.66244 0.0
H783 H 0.13619 0.78123 0.59907 0.0
H784 H 0.10921 0.79155 0.60086 0.0
H785 H 0.11147 0.76452 0.58908 0.0
H786 H 0.083 0.74799 0.61716 0.0
H787 H 0.0812 0.77502 0.62941 0.0
H788 H 0.08867 0.75275 0.64624 0.0
H789 H 0.16932 0.77559 0.67926 0.0
H790 H 0.16599 0.81547 0.68525 0.0
H791 H 0.11201 0.81174 0.63637 0.0
C792 C 0.12748 0.72796 0.6141 0.0
C793 C 0.1422 0.71184 0.61839 0.0
C794 C 0.15815 0.7154 0.63595 0.0
C795 C 0.15931 0.73474 0.64916 0.0
C796 C 0.1442 0.75012 0.64473 0.0
C797 C 0.12871 0.74696 0.6275 0.0
C798 C 0.11534 0.76652 0.62512 0.0
C799 C 0.11825 0.77655 0.60219 0.0
C800 C 0.09059 0.76018 0.62977 0.0
C801 C 0.12636 0.78165 0.6431 0.0
C802 C 0.14264 0.77179 0.6546 0.0
C803 C 0.15638 0.78339 0.67062 0.0
C804 C 0.15426 0.80598 0.67406 0.0
C805 C 0.13873 0.81659 0.66125 0.0
C806 C 0.12388 0.80396 0.64652 0.0
H807 H 0.73546 0.65728 0.09653 0.0
H808 H 0.72756 0.71901 0.13132 0.0
H809 H 0.76649 0.72038 0.14558 0.0
H810 H 0.76317 0.63446 0.13875 0.0
H811 H 0.78164 0.62008 0.12191 0.0
H812 H 0.75499 0.62601 0.11084 0.0
H813 H 0.77429 0.64649 0.07847 0.0
H814 H 0.80107 0.64037 0.08928 0.0
H815 H 0.79604 0.66855 0.08419 0.0
H816 H 0.80454 0.71296 0.15918 0.0
H817 H 0.83862 0.69704 0.17183 0.0
H818 H 0.82064 0.63896 0.12982 0.0
C819 C 0.7422 0.6715 0.10648 0.0
C820 C 0.72871 0.68825 0.11256 0.0
C821 C 0.73778 0.70616 0.1263 0.0
C822 C 0.75985 0.70708 0.13443 0.0
C823 C 0.77249 0.68988 0.12876 0.0
C824 C 0.76401 0.67244 0.11504 0.0
C825 C 0.78001 0.65476 0.11356 0.0
C826 C 0.76931 0.63253 0.12176 0.0
C827 C 0.78835 0.65241 0.08997 0.0
C828 C 0.7985 0.66466 0.12911 0.0
C829 C 0.79406 0.68511 0.13735 0.0
C830 C 0.80832 0.69707 0.15266 0.0
C831 C 0.8276 0.68786 0.15978 0.0
C832 C 0.83223 0.66673 0.15187 0.0
C833 C 0.81753 0.65512 0.13621 0.0
H834 H 0.91333 0.19737 0.60216 0.0
H835 H 0.89822 0.19995 0.67168 0.0
H836 H 0.89415 0.23981 0.6693 0.0
H837 H 0.9453 0.25139 0.60127 0.0
H838 H 0.9349 0.25694 0.5741 0.0
H839 H 0.93756 0.22892 0.58184 0.0
H840 H 0.89577 0.21863 0.57141 0.0
H841 H 0.89284 0.24673 0.56413 0.0
H842 H 0.87491 0.23356 0.58429 0.0
H843 H 0.88901 0.27865 0.65863 0.0
H844 H 0.88869 0.31513 0.6417 0.0
H845 H 0.90791 0.28691 0.57948 0.0
C846 C 0.9095 0.20636 0.61698 0.0
C847 C 0.90604 0.19559 0.63708 0.0
C848 C 0.90107 0.20793 0.65612 0.0
C849 C 0.89854 0.23051 0.6549 0.0
C850 C 0.90127 0.24044 0.63461 0.0
C851 C 0.90707 0.22887 0.6161 0.0
C852 C 0.90917 0.24342 0.59631 0.0
C853 C 0.93316 0.24528 0.5879 0.0
C854 C 0.89215 0.23508 0.57796 0.0
C855 C 0.9035 0.26497 0.60654 0.0
C856 C 0.89875 0.26287 0.62858 0.0
C857 C 0.89284 0.28055 0.64142 0.0
C858 C 0.89252 0.30113 0.63162 0.0
C859 C 0.8983 0.30377 0.60931 0.0
C860 C 0.90342 0.28534 0.59657 0.0
H861 H 0.30553 0.39169 0.09806 0.0
H862 H 0.31342 0.33786 0.14225 0.0
H863 H 0.28221 0.34911 0.16425 0.0
H864 H 0.29512 0.43095 0.13935 0.0
H865 H 0.27489 0.44405 0.12324 0.0
H866 H 0.29653 0.4308 0.10975 0.0
H867 H 0.26689 0.40609 0.0863 0.0
H868 H 0.2452 0.41968 0.09931 0.0
H869 H 0.24474 0.39003 0.09987 0.0
H870 H 0.25093 0.36689 0.182 0.0
H871 H 0.21979 0.38822 0.19259 0.0
H872 H 0.23382 0.43165 0.13796 0.0
C873 C 0.3003 0.3819 0.11201 0.0
C874 C 0.31168 0.36371 0.1183 0.0
C875 C 0.30475 0.3517 0.13703 0.0
C876 C 0.28717 0.35806 0.1497 0.0
C877 C 0.27685 0.37658 0.14353 0.0
C878 C 0.28301 0.38821 0.12501 0.0
C879 C 0.26969 0.4079 0.12235 0.0
C880 C 0.28497 0.42971 0.12376 0.0
C881 C 0.2558 0.40579 0.10068 0.0
C882 C 0.25498 0.40545 0.14219 0.0
C883 C 0.2594 0.3873 0.15421 0.0
C884 C 0.24738 0.3812 0.17278 0.0
C885 C 0.22983 0.39349 0.17875 0.0
C886 C 0.22459 0.41175 0.16628 0.0
C887 C 0.23775 0.4181 0.14812 0.0
H888 H 0.43468 0.12323 0.1985 0.0
H889 H 0.36557 0.12682 0.17845 0.0
H890 H 0.35943 0.1475 0.21299 0.0
H891 H 0.42612 0.11282 0.2527 0.0
H892 H 0.45084 0.12927 0.26308 0.0
H893 H 0.45005 0.11778 0.23557 0.0
H894 H 0.45993 0.15704 0.2206 0.0
H895 H 0.46034 0.16869 0.2482 0.0
H896 H 0.4426 0.17872 0.22716 0.0
H897 H 0.35959 0.16231 0.25212 0.0
H898 H 0.36577 0.16813 0.29234 0.0
H899 H 0.43538 0.1574 0.28523 0.0
C900 C 0.41832 0.12859 0.20127 0.0
C901 C 0.40055 0.1233 0.186 0.0
C902 C 0.3794 0.1307 0.19006 0.0
C903 C 0.37582 0.1426 0.20951 0.0
C904 C 0.39371 0.14742 0.22439 0.0
C905 C 0.4146 0.14078 0.22034 0.0
C906 C 0.43058 0.14627 0.23962 0.0
C907 C 0.43992 0.12529 0.24825 0.0
C908 C 0.44948 0.16372 0.23352 0.0
C909 C 0.41507 0.1557 0.25574 0.0
C910 C 0.39397 0.15671 0.2466 0.0
C911 C 0.37618 0.16217 0.25932 0.0
C912 C 0.37984 0.16556 0.28214 0.0
C913 C 0.40106 0.16325 0.29181 0.0
C914 C 0.41905 0.15951 0.27822 0.0
H915 H 0.4324 0.86567 0.71956 0.0
H916 H 0.37733 0.82181 0.69142 0.0
H917 H 0.35854 0.82206 0.727 0.0
H918 H 0.4292 0.84405 0.77771 0.0
H919 H 0.43633 0.87158 0.78899 0.0
H920 H 0.44736 0.86358 0.763 0.0
H921 H 0.43124 0.89719 0.74537 0.0
H922 H 0.41916 0.90469 0.77093 0.0
H923 H 0.4017 0.89969 0.74647 0.0
H924 H 0.34236 0.83348 0.76285 0.0
H925 H 0.33396 0.84811 0.79974 0.0
H926 H 0.39947 0.88493 0.8037 0.0
C927 C 0.41693 0.85523 0.72119 0.0
C928 C 0.40628 0.84383 0.70274 0.0
C929 C 0.38589 0.83055 0.70539 0.0
C930 C 0.37495 0.8308 0.72549 0.0
C931 C 0.3849 0.84401 0.74274 0.0
C932 C 0.40582 0.85534 0.74106 0.0
C933 C 0.41213 0.86969 0.76134 0.0
C934 C 0.43245 0.86174 0.77348 0.0
C935 C 0.41629 0.89426 0.75566 0.0
C936 C 0.39116 0.86531 0.77431 0.0
C937 C 0.37562 0.8505 0.76336 0.0
C938 C 0.35458 0.84475 0.77179 0.0
C939 C 0.34981 0.85344 0.79256 0.0
C940 C 0.36608 0.86762 0.80455 0.0
C941 C 0.38671 0.87409 0.79494 0.0
H942 H 0.61498 0.91119 0.21121 0.0
H943 H 0.68656 0.92586 0.20745 0.0
H944 H 0.69173 0.90558 0.24196 0.0
H945 H 0.6096 0.91816 0.26638 0.0
H946 H 0.58835 0.89547 0.26928 0.0
H947 H 0.59136 0.90879 0.24337 0.0
H948 H 0.59592 0.87087 0.22432 0.0
H949 H 0.59338 0.85751 0.25045 0.0
H950 H 0.61749 0.85462 0.23397 0.0
H951 H 0.68793 0.8893 0.27999 0.0
H952 H 0.67564 0.87974 0.31741 0.0
H953 H 0.60688 0.87198 0.29349 0.0
C954 C 0.63174 0.90998 0.21765 0.0
C955 C 0.65037 0.92035 0.20721 0.0
C956 C 0.67212 0.91813 0.21557 0.0
C957 C 0.67517 0.9065 0.23496 0.0
C958 C 0.65632 0.89652 0.24506 0.0
C959 C 0.63505 0.89787 0.23641 0.0
C960 C 0.61739 0.88695 0.25081 0.0
C961 C 0.60073 0.90332 0.25789 0.0
C962 C 0.60534 0.86626 0.23919 0.0
C963 C 0.63183 0.88079 0.2699 0.0
C964 C 0.6543 0.88596 0.26619 0.0
C965 C 0.67046 0.88459 0.28284 0.0
C966 C 0.66335 0.87902 0.30404 0.0
C967 C 0.64031 0.8751 0.30828 0.0
C968 C 0.62462 0.87464 0.29066 0.0
H969 H 0.6491 0.14182 0.81194 0.0
H970 H 0.579 0.11973 0.81926 0.0
H971 H 0.5719 0.12676 0.77985 0.0
H972 H 0.6403 0.18621 0.77519 0.0
H973 H 0.66457 0.18217 0.75934 0.0
H974 H 0.6641 0.17543 0.78806 0.0
H975 H 0.67273 0.13541 0.7784 0.0
H976 H 0.67378 0.14222 0.74979 0.0
H977 H 0.65522 0.11914 0.75836 0.0
H978 H 0.57329 0.13361 0.73925 0.0
H979 H 0.58333 0.13854 0.70029 0.0
H980 H 0.65168 0.15946 0.72067 0.0
C981 C 0.63228 0.13821 0.80522 0.0
C982 C 0.61462 0.12995 0.8185 0.0
C983 C 0.59277 0.1259 0.80924 0.0
C984 C 0.58857 0.13 0.78698 0.0
C985 C 0.60633 0.13859 0.77446 0.0
C986 C 0.62773 0.14266 0.78327 0.0
C987 C 0.64398 0.1516 0.76633 0.0
C988 C 0.65381 0.17526 0.77261 0.0
C989 C 0.66251 0.13617 0.76302 0.0
C990 C 0.62852 0.1513 0.74635 0.0
C991 C 0.60683 0.14385 0.75139 0.0
C992 C 0.59007 0.13995 0.73518 0.0
C993 C 0.59585 0.14289 0.71317 0.0
C994 C 0.61809 0.14995 0.70775 0.0
C995 C 0.6344 0.15494 0.72456 0.0
H996 H 0.91171 0.81049 0.69398 0.0
H997 H 0.85616 0.81575 0.64852 0.0
H998 H 0.84168 0.7772 0.65577 0.0
H999 H 0.92265 0.75992 0.6747 0.0
H1000 H 0.93129 0.74942 0.70071 0.0
H1001 H 0.93394 0.77865 0.69653 0.0
H1002 H 0.91032 0.78444 0.73097 0.0
H1003 H 0.9075 0.75507 0.73517 0.0
H1004 H 0.88298 0.76971 0.73271 0.0
H1005 H 0.83605 0.73724 0.66399 0.0
H1006 H 0.84251 0.69808 0.66806 0.0
H1007 H 0.9034 0.71806 0.70589 0.0
C1008 C 0.89608 0.80365 0.68624 0.0
C1009 C 0.88471 0.81592 0.67107 0.0
C1010 C 0.86485 0.80644 0.66038 0.0
C1011 C 0.85644 0.7847 0.66456 0.0
C1012 C 0.8683 0.77269 0.67926 0.0
C1013 C 0.88784 0.78177 0.68977 0.0
C1014 C 0.89956 0.76437 0.70154 0.0
C1015 C 0.92324 0.76301 0.69283 0.0
C1016 C 0.90011 0.76866 0.72659 0.0
C1017 C 0.88416 0.74397 0.69512 0.0
C1018 C 0.86578 0.7492 0.68299 0.0
C1019 C 0.85016 0.73294 0.67377 0.0
C1020 C 0.85392 0.71074 0.67621 0.0
C1021 C 0.87344 0.70515 0.68728 0.0
C1022 C 0.88825 0.72195 0.6975 0.0
H1023 H 0.82021 0.42715 0.06859 0.0
H1024 H 0.8335 0.42273 0.13866 0.0
H1025 H 0.79595 0.43385 0.14635 0.0
H1026 H 0.78423 0.47308 0.07075 0.0
H1027 H 0.76534 0.46071 0.04946 0.0
H1028 H 0.79438 0.45578 0.04947 0.0
H1029 H 0.78324 0.4135 0.04918 0.0
H1030 H 0.75425 0.41833 0.04899 0.0
H1031 H 0.76532 0.40197 0.07022 0.0
H1032 H 0.75678 0.4435 0.1464 0.0
H1033 H 0.71666 0.44575 0.13895 0.0
H1034 H 0.72762 0.44098 0.06869 0.0
C1035 C 0.81522 0.42896 0.08551 0.0
C1036 C 0.82955 0.42444 0.10311 0.0
C1037 C 0.82256 0.42628 0.12506 0.0
C1038 C 0.80142 0.43274 0.12956 0.0
C1039 C 0.78748 0.43698 0.11186 0.0
C1040 C 0.79392 0.43484 0.09025 0.0
C1041 C 0.77478 0.43763 0.07429 0.0
C1042 C 0.78 0.45802 0.06016 0.0
C1043 C 0.76906 0.4166 0.05983 0.0
C1044 C 0.75648 0.44115 0.09029 0.0
C1045 C 0.76434 0.44133 0.11186 0.0
C1046 C 0.75042 0.44353 0.12959 0.0
C1047 C 0.72767 0.44488 0.12519 0.0
C1048 C 0.71907 0.44353 0.10325 0.0
C1049 C 0.73378 0.44217 0.08562 0.0
H1050 H 0.15227 0.2079 0.67704 0.0
H1051 H 0.18138 0.2059 0.6125 0.0
H1052 H 0.19068 0.24638 0.61477 0.0
H1053 H 0.12521 0.25425 0.66821 0.0
H1054 H 0.12902 0.26554 0.6959 0.0
H1055 H 0.12844 0.23625 0.69097 0.0
H1056 H 0.16717 0.23647 0.71062 0.0
H1057 H 0.16786 0.26586 0.71561 0.0
H1058 H 0.19034 0.25465 0.7014 0.0
H1059 H 0.19353 0.28741 0.62257 0.0
H1060 H 0.18662 0.32552 0.63384 0.0
H1061 H 0.15394 0.30032 0.69221 0.0
C1062 C 0.16115 0.21593 0.66367 0.0
C1063 C 0.16632 0.20384 0.64471 0.0
C1064 C 0.17734 0.21493 0.62722 0.0
C1065 C 0.18283 0.23787 0.62842 0.0
C1066 C 0.17709 0.24942 0.64719 0.0
C1067 C 0.1664 0.23881 0.66446 0.0
C1068 C 0.15952 0.25516 0.6815 0.0
C1069 C 0.13405 0.25265 0.68428 0.0
C1070 C 0.17198 0.2529 0.70359 0.0
C1071 C 0.16729 0.27661 0.67076 0.0
C1072 C 0.17792 0.27304 0.65128 0.0
C1073 C 0.18548 0.29043 0.63794 0.0
C1074 C 0.18154 0.31199 0.64445 0.0
C1075 C 0.16974 0.31573 0.66383 0.0
C1076 C 0.16304 0.29787 0.67732 0.0
H1077 H 0.20579 0.59031 0.06077 0.0
H1078 H 0.1916 0.56547 0.12562 0.0
H1079 H 0.23038 0.55541 0.12957 0.0
H1080 H 0.24686 0.5499 0.04501 0.0
H1081 H 0.26413 0.57095 0.03129 0.0
H1082 H 0.23435 0.57213 0.03192 0.0
H1083 H 0.2406 0.61172 0.04914 0.0
H1084 H 0.27029 0.61063 0.04866 0.0
H1085 H 0.25716 0.61648 0.07423 0.0
H1086 H 0.27157 0.55313 0.12852 0.0
H1087 H 0.31216 0.55949 0.12309 0.0
H1088 H 0.29962 0.58624 0.05889 0.0
C1089 C 0.21076 0.582 0.0754 0.0
C1090 C 0.1959 0.57812 0.09272 0.0
C1091 C 0.20287 0.56808 0.11207 0.0
C1092 C 0.22477 0.56231 0.1144 0.0
C1093 C 0.23933 0.56675 0.09718 0.0
C1094 C 0.23258 0.57627 0.07799 0.0
C1095 C 0.25205 0.58171 0.0631 0.0
C1096 C 0.24917 0.56784 0.04156 0.0
C1097 C 0.2552 0.60661 0.05854 0.0
C1098 C 0.27096 0.57473 0.07733 0.0
C1099 C 0.26324 0.56573 0.09672 0.0
C1100 C 0.27778 0.55975 0.11323 0.0
C1101 C 0.30082 0.56347 0.11001 0.0
C1102 C 0.30905 0.57327 0.09053 0.0
C1103 C 0.29385 0.57843 0.07382 0.0
H1104 H 0.92788 0.21278 0.38505 0.0
H1105 H 0.8948 0.22265 0.44674 0.0
H1106 H 0.89491 0.26237 0.43937 0.0
H1107 H 0.96318 0.26623 0.38761 0.0
H1108 H 0.96086 0.26947 0.35826 0.0
H1109 H 0.95981 0.24222 0.36941 0.0
H1110 H 0.92184 0.23176 0.34899 0.0
H1111 H 0.92255 0.25905 0.33808 0.0
H1112 H 0.89904 0.24827 0.35371 0.0
H1113 H 0.89444 0.29978 0.4232 0.0
H1114 H 0.89799 0.33374 0.40157 0.0
H1115 H 0.93305 0.29997 0.35132 0.0
C1116 C 0.92108 0.22339 0.39722 0.0
C1117 C 0.91132 0.21468 0.41645 0.0
C1118 C 0.9025 0.22903 0.43196 0.0
C1119 C 0.90239 0.25158 0.42788 0.0
C1120 C 0.91148 0.25951 0.40841 0.0
C1121 C 0.9211 0.24597 0.39355 0.0
C1122 C 0.9293 0.25856 0.37365 0.0
C1123 C 0.9548 0.25916 0.37216 0.0
C1124 C 0.91747 0.24883 0.35236 0.0
C1125 C 0.92225 0.28115 0.37937 0.0
C1126 C 0.91189 0.28132 0.39943 0.0
C1127 C 0.90282 0.29997 0.40763 0.0
C1128 C 0.90474 0.31909 0.39515 0.0
C1129 C 0.91583 0.31941 0.37484 0.0
C1130 C 0.92466 0.30019 0.36689 0.0
H1131 H 0.20995 0.39326 0.92682 0.0
H1132 H 0.22768 0.45954 0.95346 0.0
H1133 H 0.26677 0.45091 0.95913 0.0
H1134 H 0.25051 0.36371 0.95976 0.0
H1135 H 0.25615 0.34657 0.93632 0.0
H1136 H 0.22894 0.3562 0.9391 0.0
H1137 H 0.23198 0.37337 0.9005 0.0
H1138 H 0.25904 0.36375 0.89759 0.0
H1139 H 0.25567 0.39269 0.89482 0.0
H1140 H 0.30426 0.43627 0.95828 0.0
H1141 H 0.33767 0.41952 0.94602 0.0
H1142 H 0.29555 0.36396 0.91685 0.0
C1143 C 0.22193 0.4057 0.93455 0.0
C1144 C 0.21587 0.42689 0.94016 0.0
C1145 C 0.23207 0.44312 0.94933 0.0
C1146 C 0.25421 0.43829 0.95274 0.0
C1147 C 0.25977 0.41727 0.94664 0.0
C1148 C 0.24409 0.40133 0.93748 0.0
C1149 C 0.25481 0.38145 0.9289 0.0
C1150 C 0.24714 0.36076 0.9418 0.0
C1151 C 0.2501 0.37761 0.90399 0.0
C1152 C 0.2791 0.38899 0.93387 0.0
C1153 C 0.28157 0.40933 0.9448 0.0
C1154 C 0.30253 0.42024 0.94996 0.0
C1155 C 0.32142 0.41053 0.94298 0.0
C1156 C 0.31916 0.39043 0.93047 0.0
C1157 C 0.29775 0.37924 0.92653 0.0
H1158 H 0.14603 0.80856 0.3962 0.0
H1159 H 0.09838 0.83443 0.35137 0.0
H1160 H 0.09054 0.79728 0.33366 0.0
H1161 H 0.16817 0.77171 0.35673 0.0
H1162 H 0.17146 0.75066 0.37659 0.0
H1163 H 0.17341 0.77929 0.38539 0.0
H1164 H 0.1423 0.7703 0.41351 0.0
H1165 H 0.14031 0.74165 0.40488 0.0
H1166 H 0.11582 0.75648 0.40406 0.0
H1167 H 0.08684 0.75692 0.32223 0.0
H1168 H 0.08786 0.71659 0.31743 0.0
H1169 H 0.13911 0.71802 0.36903 0.0
C1170 C 0.13392 0.80647 0.38266 0.0
C1171 C 0.1227 0.8243 0.37519 0.0
C1172 C 0.10712 0.82093 0.35733 0.0
C1173 C 0.10261 0.79993 0.34718 0.0
C1174 C 0.11401 0.7827 0.355 0.0
C1175 C 0.12942 0.7858 0.37227 0.0
C1176 C 0.13933 0.76464 0.37772 0.0
C1177 C 0.16459 0.7667 0.37387 0.0
C1178 C 0.13412 0.75787 0.40144 0.0
C1179 C 0.12685 0.74898 0.36102 0.0
C1180 C 0.11232 0.75969 0.34806 0.0
C1181 C 0.09829 0.7484 0.33213 0.0
C1182 C 0.09898 0.72553 0.32956 0.0
C1183 C 0.11368 0.71428 0.34277 0.0
C1184 C 0.12795 0.72625 0.35848 0.0
H1185 H 0.81287 0.61389 0.93274 0.0
H1186 H 0.83796 0.66872 0.89299 0.0
H1187 H 0.79943 0.67367 0.88053 0.0
H1188 H 0.76821 0.59155 0.89615 0.0
H1189 H 0.74906 0.5849 0.91792 0.0
H1190 H 0.77866 0.58521 0.92308 0.0
H1191 H 0.77636 0.6133 0.95554 0.0
H1192 H 0.74675 0.61305 0.95049 0.0
H1193 H 0.76431 0.63882 0.95079 0.0
H1194 H 0.7584 0.67144 0.87113 0.0
H1195 H 0.7172 0.66463 0.8684 0.0
H1196 H 0.71886 0.61347 0.91675 0.0
C1197 C 0.8102 0.62687 0.92136 0.0
C1198 C 0.82825 0.64086 0.91368 0.0
C1199 C 0.82423 0.65789 0.89907 0.0
C1200 C 0.80247 0.66077 0.89184 0.0
C1201 C 0.78498 0.6467 0.89972 0.0
C1202 C 0.78856 0.6303 0.91439 0.0
C1203 C 0.76679 0.61805 0.92108 0.0
C1204 C 0.76562 0.59347 0.91414 0.0
C1205 C 0.76336 0.62099 0.94595 0.0
C1206 C 0.75044 0.63002 0.90775 0.0
C1207 C 0.76127 0.64628 0.8953 0.0
C1208 C 0.7497 0.65892 0.88097 0.0
C1209 C 0.72638 0.65491 0.87947 0.0
C1210 C 0.715 0.63872 0.89253 0.0
C1211 C 0.7272 0.62619 0.90685 0.0
H1212 H 0.68466 0.88401 0.80941 0.0
H1213 H 0.63364 0.8303 0.81962 0.0
H1214 H 0.64013 0.81457 0.78276 0.0
H1215 H 0.66709 0.89461 0.75913 0.0
H1216 H 0.69389 0.90198 0.74732 0.0
H1217 H 0.69076 0.90484 0.77646 0.0
H1218 H 0.7227 0.87988 0.78302 0.0
H1219 H 0.72579 0.87683 0.75367 0.0
H1220 H 0.72095 0.85271 0.7702 0.0
H1221 H 0.64619 0.80894 0.74319 0.0
H1222 H 0.64759 0.81659 0.70351 0.0
H1223 H 0.69315 0.87504 0.71784 0.0
C1224 C 0.67562 0.86844 0.8041 0.0
C1225 C 0.65891 0.85813 0.81718 0.0
C1226 C 0.64662 0.83829 0.80967 0.0
C1227 C 0.65039 0.82912 0.78891 0.0
C1228 C 0.66641 0.84011 0.77585 0.0
C1229 C 0.67882 0.85943 0.78314 0.0
C1230 C 0.69144 0.8705 0.76453 0.0
C1231 C 0.6854 0.89436 0.7617 0.0
C1232 C 0.71672 0.86993 0.76807 0.0
C1233 C 0.68274 0.85545 0.7454 0.0
C1234 C 0.6692 0.83742 0.75239 0.0
C1235 C 0.65718 0.82267 0.73752 0.0
C1236 C 0.65808 0.82709 0.715 0.0
C1237 C 0.67045 0.8464 0.70781 0.0
C1238 C 0.68375 0.86006 0.72305 0.0
H1239 H 0.64395 0.16511 0.20035 0.0
H1240 H 0.58471 0.20038 0.20283 0.0
H1241 H 0.58667 0.20037 0.24345 0.0
H1242 H 0.6302 0.12996 0.24488 0.0
H1243 H 0.65862 0.13033 0.25499 0.0
H1244 H 0.65296 0.13413 0.22619 0.0
H1245 H 0.67837 0.17113 0.22815 0.0
H1246 H 0.68391 0.16755 0.25704 0.0
H1247 H 0.67279 0.19234 0.24794 0.0
H1248 H 0.59479 0.19587 0.28391 0.0
H1249 H 0.60684 0.18455 0.32086 0.0
H1250 H 0.66039 0.15219 0.29128 0.0
C1251 C 0.63142 0.17288 0.20942 0.0
C1252 C 0.61423 0.18277 0.19848 0.0
C1253 C 0.59805 0.19266 0.21092 0.0
C1254 C 0.59908 0.19286 0.23399 0.0
C1255 C 0.61638 0.18311 0.24428 0.0
C1256 C 0.63215 0.17317 0.2324 0.0
C1257 C 0.64847 0.163 0.24736 0.0
C1258 C 0.64749 0.13787 0.2431 0.0
C1259 C 0.67229 0.17418 0.24497 0.0
C1260 C 0.63922 0.1685 0.2695 0.0
C1261 C 0.62088 0.18033 0.26746 0.0
C1262 C 0.60921 0.1867 0.28574 0.0
C1263 C 0.6162 0.18029 0.30663 0.0
C1264 C 0.63451 0.16752 0.30886 0.0
C1265 C 0.64634 0.16198 0.29008 0.0
H1266 H 0.36028 0.13805 0.7093 0.0
H1267 H 0.41924 0.18488 0.71022 0.0
H1268 H 0.41875 0.18704 0.75098 0.0
H1269 H 0.33402 0.16208 0.76038 0.0
H1270 H 0.32358 0.13471 0.76831 0.0
H1271 H 0.32578 0.14106 0.73956 0.0
H1272 H 0.34967 0.10829 0.73404 0.0
H1273 H 0.3482 0.1022 0.76276 0.0
H1274 H 0.37501 0.1075 0.75031 0.0
H1275 H 0.41704 0.17683 0.79069 0.0
H1276 H 0.41073 0.15985 0.82687 0.0
H1277 H 0.35161 0.12111 0.79993 0.0
C1278 C 0.3724 0.14955 0.71813 0.0
C1279 C 0.38966 0.16147 0.70691 0.0
C1280 C 0.40566 0.176 0.71871 0.0
C1281 C 0.40555 0.1772 0.7418 0.0
C1282 C 0.38899 0.16418 0.75255 0.0
C1283 C 0.37226 0.15117 0.74105 0.0
C1284 C 0.35769 0.13714 0.75628 0.0
C1285 C 0.33386 0.14418 0.75613 0.0
C1286 C 0.35767 0.11233 0.7505 0.0
C1287 C 0.36969 0.14315 0.77801 0.0
C1288 C 0.38761 0.15887 0.77559 0.0
C1289 C 0.40266 0.16505 0.79293 0.0
C1290 C 0.39911 0.15513 0.8133 0.0
C1291 C 0.38061 0.1393 0.81611 0.0
C1292 C 0.36566 0.13345 0.79829 0.0
H1293 H 0.37487 0.85619 0.20565 0.0
H1294 H 0.43468 0.82203 0.21125 0.0
H1295 H 0.43066 0.82081 0.2515 0.0
H1296 H 0.3863 0.89077 0.25102 0.0
H1297 H 0.35787 0.89044 0.25973 0.0
H1298 H 0.3635 0.88556 0.23122 0.0
H1299 H 0.33868 0.84826 0.23157 0.0
H1300 H 0.33305 0.85302 0.26022 0.0
H1301 H 0.34449 0.82801 0.25155 0.0
H1302 H 0.42285 0.82727 0.29128 0.0
H1303 H 0.41258 0.8424 0.32738 0.0
H1304 H 0.35779 0.87186 0.29564 0.0
C1305 C 0.38685 0.84805 0.2153 0.0
C1306 C 0.40504 0.83919 0.20535 0.0
C1307 C 0.42058 0.82895 0.21855 0.0
C1308 C 0.41837 0.82803 0.24141 0.0
C1309 C 0.40043 0.83724 0.25078 0.0
C1310 C 0.3849 0.84701 0.23813 0.0
C1311 C 0.36845 0.8576 0.25237 0.0
C1312 C 0.36909 0.88256 0.24835 0.0
C1313 C 0.34476 0.84602 0.24871 0.0
C1314 C 0.37776 0.85312 0.27498 0.0
C1315 C 0.39593 0.84098 0.27377 0.0
C1316 C 0.40838 0.83644 0.29249 0.0
C1317 C 0.40244 0.84507 0.31291 0.0
C1318 C 0.38438 0.85824 0.31429 0.0
C1319 C 0.37156 0.86167 0.29515 0.0
H1320 H 0.17068 0.14429 0.5539 0.0
H1321 H 0.13294 0.08173 0.5657 0.0
H1322 H 0.13737 0.07005 0.52671 0.0
H1323 H 0.14715 0.15439 0.50665 0.0
H1324 H 0.17151 0.16674 0.49326 0.0
H1325 H 0.17065 0.16735 0.5227 0.0
H1326 H 0.20715 0.14807 0.52499 0.0
H1327 H 0.20823 0.14752 0.49534 0.0
H1328 H 0.20888 0.12228 0.51019 0.0
H1329 H 0.1383 0.06944 0.48522 0.0
H1330 H 0.13593 0.07978 0.44609 0.0
H1331 H 0.17443 0.14223 0.46228 0.0
C1332 C 0.1642 0.12778 0.54837 0.0
C1333 C 0.15167 0.11376 0.56242 0.0
C1334 C 0.1429 0.09245 0.55496 0.0
C1335 C 0.1454 0.08573 0.53294 0.0
C1336 C 0.15719 0.10038 0.51904 0.0
C1337 C 0.16687 0.12083 0.52668 0.0
C1338 C 0.17597 0.13485 0.50819 0.0
C1339 C 0.16568 0.15711 0.50768 0.0
C1340 C 0.20158 0.13838 0.50978 0.0
C1341 C 0.16817 0.12 0.48874 0.0
C1342 C 0.15795 0.0999 0.49519 0.0
C1343 C 0.14686 0.08482 0.47996 0.0
C1344 C 0.14556 0.0908 0.4578 0.0
C1345 C 0.15497 0.1118 0.45134 0.0
C1346 C 0.16719 0.12602 0.46684 0.0
H1347 H 0.42861 0.64076 0.96117 0.0
H1348 H 0.41202 0.57579 0.93137 0.0
H1349 H 0.42639 0.5589 0.96452 0.0
H1350 H 0.47915 0.62298 0.99923 0.0
H1351 H 0.47143 0.64191 0.02035 0.0
H1352 H 0.46921 0.64885 0.99173 0.0
H1353 H 0.42776 0.65511 0.99685 0.0
H1354 H 0.42971 0.64801 0.0251 0.0
H1355 H 0.40891 0.63304 1.00713 0.0
H1356 H 0.42599 0.54984 1.00325 0.0
H1357 H 0.41587 0.54976 0.04235 0.0
H1358 H 0.43699 0.61958 0.04852 0.0
C1359 C 0.42935 0.62305 0.96126 0.0
C1360 C 0.41921 0.60953 0.94397 0.0
C1361 C 0.41997 0.58642 0.94443 0.0
C1362 C 0.42814 0.57669 0.96325 0.0
C1363 C 0.43613 0.59038 0.98108 0.0
C1364 C 0.43774 0.61321 0.97988 0.0
C1365 C 0.44304 0.62417 1.0023 0.0
C1366 C 0.46714 0.63512 1.00347 0.0
C1367 C 0.42634 0.64101 1.00817 0.0
C1368 C 0.44059 0.60415 0.01669 0.0
C1369 C 0.43744 0.58471 1.0041 0.0
C1370 C 0.42962 0.56471 0.01337 0.0
C1371 C 0.42383 0.56476 0.03557 0.0
C1372 C 0.42632 0.58457 0.04832 0.0
C1373 C 0.436 0.60413 0.03915 0.0
H1374 H 0.91369 0.87715 0.46906 0.0
H1375 H 0.88283 0.93875 0.46838 0.0
H1376 H 0.88626 0.94128 0.50918 0.0
H1377 H 0.88678 0.85523 0.51479 0.0
H1378 H 0.91051 0.84237 0.52514 0.0
H1379 H 0.90731 0.84666 0.4961 0.0
H1380 H 0.94651 0.86851 0.49597 0.0
H1381 H 0.94992 0.86419 0.52504 0.0
H1382 H 0.95286 0.89183 0.51471 0.0
H1383 H 0.89078 0.93513 0.55028 0.0
H1384 H 0.89653 0.92143 0.58779 0.0
H1385 H 0.92437 0.864 0.56005 0.0
C1386 C 0.90777 0.89134 0.47738 0.0
C1387 C 0.89789 0.90773 0.46562 0.0
C1388 C 0.8905 0.92603 0.47715 0.0
C1389 C 0.89238 0.92759 0.50026 0.0
C1390 C 0.90188 0.91082 0.51133 0.0
C1391 C 0.90958 0.89315 0.50017 0.0
C1392 C 0.91827 0.87676 0.51563 0.0
C1393 C 0.90491 0.85392 0.51274 0.0
C1394 C 0.94338 0.87525 0.51266 0.0
C1395 C 0.91385 0.88766 0.53739 0.0
C1396 C 0.90453 0.90736 0.53467 0.0
C1397 C 0.89826 0.91985 0.55258 0.0
C1398 C 0.90155 0.91192 0.57378 0.0
C1399 C 0.91093 0.89167 0.57676 0.0
C1400 C 0.91727 0.87957 0.5583 0.0
H1401 H 0.6081 0.37177 0.97546 0.0
H1402 H 0.61026 0.43225 0.93915 0.0
H1403 H 0.59606 0.4515 0.97134 0.0
H1404 H 0.55677 0.38454 0.01092 0.0
H1405 H 0.56874 0.37139 0.03403 0.0
H1406 H 0.57226 0.36101 1.00639 0.0
H1407 H 0.61516 0.36493 0.01295 0.0
H1408 H 0.61174 0.37513 0.04037 0.0
H1409 H 0.62909 0.39138 0.02179 0.0
H1410 H 0.59545 0.46612 1.00934 0.0
H1411 H 0.605 0.47372 0.04872 0.0
H1412 H 0.59737 0.40375 0.0607 0.0
C1413 C 0.60457 0.38881 0.9741 0.0
C1414 C 0.61025 0.40063 0.95507 0.0
C1415 C 0.60577 0.42292 0.95363 0.0
C1416 C 0.59762 0.43394 0.97181 0.0
C1417 C 0.59328 0.42216 0.99092 0.0
C1418 C 0.59587 0.39983 0.99192 0.0
C1419 C 0.59307 0.39164 0.0151 0.0
C1420 C 0.57141 0.37624 0.01669 0.0
C1421 C 0.61348 0.38014 0.02299 0.0
C1422 C 0.59132 0.41331 0.02742 0.0
C1423 C 0.59088 0.4307 0.01314 0.0
C1424 C 0.59453 0.45267 0.02071 0.0
C1425 C 0.5999 0.45691 0.0431 0.0
C1426 C 0.60099 0.43928 0.05762 0.0
C1427 C 0.59535 0.4174 0.04995 0.0
H1428 H 0.12035 0.86257 0.55931 0.0
H1429 H 0.12812 0.93056 0.58353 0.0
H1430 H 0.11845 0.94302 0.54635 0.0
H1431 H 0.14668 0.8705 0.51241 0.0
H1432 H 0.12901 0.851 0.49539 0.0
H1433 H 0.13105 0.84724 0.52452 0.0
H1434 H 0.08812 0.84686 0.5273 0.0
H1435 H 0.08588 0.85044 0.49798 0.0
H1436 H 0.0743 0.86951 0.51665 0.0
H1437 H 0.11627 0.94815 0.50557 0.0
H1438 H 0.1202 0.94538 0.46526 0.0
H1439 H 0.1127 0.87384 0.46827 0.0
C1440 C 0.11931 0.88003 0.55692 0.0
C1441 C 0.12502 0.89565 0.57409 0.0
C1442 C 0.12364 0.91836 0.5705 0.0
C1443 C 0.1181 0.92555 0.54948 0.0
C1444 C 0.11352 0.90973 0.53255 0.0
C1445 C 0.11362 0.88738 0.53621 0.0
C1446 C 0.11082 0.87384 0.515 0.0
C1447 C 0.13057 0.85985 0.51165 0.0
C1448 C 0.08844 0.85931 0.51419 0.0
C1449 C 0.1108 0.89211 0.49867 0.0
C1450 C 0.11186 0.9127 0.50903 0.0
C1451 C 0.11478 0.9321 0.49725 0.0
C1452 C 0.11713 0.93042 0.47436 0.0
C1453 C 0.11674 0.90942 0.46365 0.0
C1454 C 0.1128 0.89016 0.47595 0.0
H1455 H 0.61345 0.61211 0.97648 0.0
H1456 H 0.61043 0.67171 0.93941 0.0
H1457 H 0.5995 0.69141 0.97276 0.0
H1458 H 0.56665 0.62461 0.01737 0.0
H1459 H 0.58166 0.61243 0.03921 0.0
H1460 H 0.58227 0.60145 0.0114 0.0
H1461 H 0.6255 0.60665 0.01317 0.0
H1462 H 0.62503 0.61762 0.04072 0.0
H1463 H 0.63951 0.63363 0.01992 0.0
H1464 H 0.60196 0.70692 1.01063 0.0
H1465 H 0.61389 0.7157 0.0494 0.0
H1466 H 0.61115 0.64601 0.06242 0.0
C1467 C 0.60948 0.62903 0.97527 0.0
C1468 C 0.6128 0.64046 0.95558 0.0
C1469 C 0.60777 0.66264 0.9544 0.0
C1470 C 0.60148 0.67393 0.97326 0.0
C1471 C 0.5996 0.66257 0.99289 0.0
C1472 C 0.60277 0.64036 0.99386 0.0
C1473 C 0.60296 0.63274 0.01736 0.0
C1474 C 0.58214 0.61687 0.02158 0.0
C1475 C 0.62453 0.62208 0.0231 0.0
C1476 C 0.60199 0.65459 0.02952 0.0
C1477 C 0.59947 0.67158 0.01517 0.0
C1478 C 0.60277 0.69374 0.02219 0.0
C1479 C 0.60955 0.69864 0.04416 0.0
C1480 C 0.61253 0.68142 0.05871 0.0
C1481 C 0.60782 0.65927 0.0516 0.0
H1482 H 0.87731 0.0901 0.4618 0.0
H1483 H 0.94862 0.10553 0.45776 0.0
H1484 H 0.95364 0.09347 0.49594 0.0
H1485 H 0.87352 0.11659 0.50746 0.0
H1486 H 0.85163 0.0991 0.51989 0.0
H1487 H 0.85389 0.09882 0.4906 0.0
H1488 H 0.85647 0.05657 0.49014 0.0
H1489 H 0.85398 0.05666 0.51968 0.0
H1490 H 0.87728 0.04525 0.50711 0.0
H1491 H 0.95048 0.08961 0.53599 0.0
H1492 H 0.93957 0.09877 0.57385 0.0
H1493 H 0.87003 0.09049 0.55299 0.0
C1494 C 0.89401 0.08949 0.46863 0.0
C1495 C 0.91265 0.09796 0.4569 0.0
C1496 C 0.93426 0.09845 0.46649 0.0
C1497 C 0.93722 0.09155 0.48812 0.0
C1498 C 0.91832 0.08464 0.49998 0.0
C1499 C 0.89704 0.08357 0.4905 0.0
C1500 C 0.87933 0.08148 0.5078 0.0
C1501 C 0.86372 0.10012 0.50635 0.0
C1502 C 0.86598 0.05862 0.50608 0.0
C1503 C 0.89391 0.08372 0.52849 0.0
C1504 C 0.91631 0.08419 0.5237 0.0
C1505 C 0.933 0.08868 0.53999 0.0
C1506 C 0.92671 0.09387 0.56144 0.0
C1507 C 0.90401 0.09521 0.56605 0.0
C1508 C 0.88746 0.08921 0.54969 0.0
H1509 H 0.40306 0.3367 0.94635 0.0
H1510 H 0.45343 0.39239 0.95143 0.0
H1511 H 0.46457 0.38096 0.98843 0.0
H1512 H 0.38163 0.34759 0.99158 0.0
H1513 H 0.37348 0.32016 1.00099 0.0
H1514 H 0.37681 0.32454 0.97223 0.0
H1515 H 0.40556 0.29565 0.97025 0.0
H1516 H 0.40196 0.29069 0.99916 0.0
H1517 H 0.42945 0.29809 0.9889 0.0
H1518 H 0.4628 0.37103 0.0271 0.0
H1519 H 0.44642 0.36663 0.06366 0.0
H1520 H 0.39287 0.32118 0.03542 0.0
C1521 C 0.41746 0.3455 0.95475 0.0
C1522 C 0.42785 0.365 0.94603 0.0
C1523 C 0.44572 0.37707 0.95775 0.0
C1524 C 0.45213 0.37061 0.97877 0.0
C1525 C 0.44011 0.3524 0.98793 0.0
C1526 C 0.42307 0.33994 0.97619 0.0
C1527 C 0.4085 0.32557 0.99125 0.0
C1528 C 0.38368 0.32976 0.98887 0.0
C1529 C 0.41156 0.30105 0.98715 0.0
C1530 C 0.41846 0.33363 0.0134 0.0
C1531 C 0.43752 0.34798 0.01109 0.0
C1532 C 0.44825 0.35941 0.02913 0.0
C1533 C 0.43876 0.35688 0.04984 0.0
C1534 C 0.41835 0.34364 0.05216 0.0
C1535 C 0.40857 0.33127 0.03393 0.0
H1536 H 0.5687 0.12839 0.10981 0.0
H1537 H 0.56926 0.1775 0.05945 0.0
H1538 H 0.53074 0.16291 0.0476 0.0
H1539 H 0.53061 0.08325 0.07901 0.0
H1540 H 0.51766 0.07537 0.10446 0.0
H1541 H 0.54677 0.08567 0.10446 0.0
H1542 H 0.53937 0.11564 0.1337 0.0
H1543 H 0.51035 0.10577 0.13358 0.0
H1544 H 0.51861 0.13431 0.12787 0.0
H1545 H 0.48963 0.14806 0.04715 0.0
H1546 H 0.45125 0.1345 0.05775 0.0
H1547 H 0.47866 0.09583 0.10884 0.0
C1548 C 0.561 0.13544 0.09568 0.0
C1549 C 0.57176 0.15389 0.08541 0.0
C1550 C 0.56128 0.16307 0.06723 0.0
C1551 C 0.53943 0.15489 0.06046 0.0
C1552 C 0.52871 0.13733 0.07183 0.0
C1553 C 0.53945 0.12746 0.08881 0.0
C1554 C 0.52376 0.11111 0.10059 0.0
C1555 C 0.53008 0.08744 0.0969 0.0
C1556 C 0.52298 0.11709 0.12537 0.0
C1557 C 0.50212 0.11439 0.08872 0.0
C1558 C 0.50522 0.12906 0.07176 0.0
C1559 C 0.48712 0.13615 0.06002 0.0
C1560 C 0.4654 0.12841 0.06614 0.0
C1561 C 0.46213 0.11419 0.08412 0.0
C1562 C 0.48073 0.10666 0.09499 0.0
H1563 H 0.42465 0.96111 0.67819 0.0
H1564 H 0.41453 0.94274 0.60897 0.0
H1565 H 0.41237 0.98196 0.60019 0.0
H1566 H 0.38699 0.99972 0.68055 0.0
H1567 H 0.40322 0.01897 0.69905 0.0
H1568 H 0.40702 0.99003 0.69962 0.0
H1569 H 0.4493 0.99856 0.69282 0.0
H1570 H 0.44576 0.02763 0.69276 0.0
H1571 H 0.45818 0.01483 0.66963 0.0
H1572 H 0.40577 0.02233 0.6 0.0
H1573 H 0.40091 0.06173 0.60771 0.0
H1574 H 0.41657 0.05307 0.67686 0.0
C1575 C 0.42259 0.96542 0.66111 0.0
C1576 C 0.41975 0.94903 0.64424 0.0
C1577 C 0.41696 0.95517 0.62209 0.0
C1578 C 0.41557 0.97735 0.61698 0.0
C1579 C 0.41743 0.99304 0.63418 0.0
C1580 C 0.42144 0.9874 0.65573 0.0
C1581 C 0.4219 1.00713 0.67134 0.0
C1582 C 0.4037 1.00375 0.68865 0.0
C1583 C 0.44517 0.01235 0.68227 0.0
C1584 C 0.4168 0.02464 0.65532 0.0
C1585 C 0.41422 0.01626 0.63397 0.0
C1586 C 0.40816 0.02918 0.61659 0.0
C1587 C 0.40521 0.05142 0.62114 0.0
C1588 C 0.40849 0.06034 0.64284 0.0
C1589 C 0.41419 0.0467 0.66007 0.0
H1590 H 0.47956 0.86374 0.09004 0.0
H1591 H 0.45111 0.91167 0.13206 0.0
H1592 H 0.48676 0.93527 0.13292 0.0
H1593 H 0.529 0.86532 0.11773 0.0
H1594 H 0.54675 0.86279 0.0945 0.0
H1595 H 0.51788 0.85205 0.0924 0.0
H1596 H 0.51201 0.87583 0.05835 0.0
H1597 H 0.54103 0.88649 0.06016 0.0
H1598 H 0.51961 0.90523 0.06015 0.0
H1599 H 0.52591 0.94945 0.1359 0.0
H1600 H 0.56693 0.95479 0.13923 0.0
H1601 H 0.57154 0.89862 0.09483 0.0
C1602 C 0.48072 0.87968 0.09855 0.0
C1603 C 0.46272 0.88619 0.11073 0.0
C1604 C 0.46481 0.90664 0.12249 0.0
C1605 C 0.48493 0.92016 0.12299 0.0
C1606 C 0.50277 0.91296 0.11163 0.0
C1607 C 0.50091 0.89334 0.09939 0.0
C1608 C 0.52351 0.8882 0.0912 0.0
C1609 C 0.52963 0.86577 0.09946 0.0
C1610 C 0.52407 0.88899 0.06596 0.0
C1611 C 0.5384 0.90725 0.10186 0.0
C1612 C 0.52595 0.92149 0.11324 0.0
C1613 C 0.53585 0.93884 0.12655 0.0
C1614 C 0.55911 0.94164 0.12848 0.0
C1615 C 0.5722 0.92727 0.11707 0.0
C1616 C 0.56178 0.91015 0.10322 0.0
H1617 H 0.61578 0.04556 0.66597 0.0
H1618 H 0.64503 0.06151 0.60316 0.0
H1619 H 0.64996 0.02195 0.59637 0.0
H1620 H 0.65235 1.01108 0.68194 0.0
H1621 H 0.63315 0.9915 0.6954 0.0
H1622 H 0.62697 0.01964 0.69307 0.0
H1623 H 0.58912 1.00702 0.67325 0.0
H1624 H 0.59478 0.97867 0.67615 0.0
H1625 H 0.58843 0.98882 0.64932 0.0
H1626 H 0.65788 0.9819 0.60007 0.0
H1627 H 0.66418 0.94428 0.612 0.0
H1628 H 0.63036 0.95621 0.67283 0.0
C1629 C 0.6224 0.04057 0.65039 0.0
C1630 C 0.62997 0.05634 0.63504 0.0
C1631 C 0.63883 0.04946 0.61494 0.0
C1632 C 0.64181 0.0271 0.61104 0.0
C1633 C 0.63544 1.01207 0.62727 0.0
C1634 C 0.62541 0.01851 0.64631 0.0
C1635 C 0.6221 0.99993 0.66225 0.0
C1636 C 0.63438 1.00591 0.68446 0.0
C1637 C 0.59712 0.99321 0.66541 0.0
C1638 C 0.63283 0.98228 0.64974 0.0
C1639 C 0.6402 0.98935 0.62949 0.0
C1640 C 0.65179 0.97606 0.61572 0.0
C1641 C 0.65549 0.95485 0.62271 0.0
C1642 C 0.64782 0.94741 0.64335 0.0
C1643 C 0.63646 0.9614 0.65695 0.0
H1644 H 0.45385 0.88627 0.85476 0.0
H1645 H 0.44402 0.87769 0.92452 0.0
H1646 H 0.48519 0.88116 0.93099 0.0
H1647 H 0.49722 0.85462 0.8493 0.0
H1648 H 0.51235 0.8718 0.82982 0.0
H1649 H 0.48257 0.87177 0.83129 0.0
H1650 H 0.48658 0.91421 0.83817 0.0
H1651 H 0.51642 0.91451 0.8362 0.0
H1652 H 0.50464 0.92619 0.86031 0.0
H1653 H 0.52744 0.88014 0.92826 0.0
H1654 H 0.56685 0.87947 0.91754 0.0
H1655 H 0.54756 0.88985 0.84961 0.0
C1656 C 0.46042 0.88576 0.87149 0.0
C1657 C 0.44608 0.88184 0.8892 0.0
C1658 C 0.45497 0.88103 0.91086 0.0
C1659 C 0.47824 0.88283 0.9146 0.0
C1660 C 0.49203 0.88583 0.89651 0.0
C1661 C 0.48335 0.88782 0.87545 0.0
C1662 C 0.50134 0.88993 0.85856 0.0
C1663 C 0.49817 0.8709 0.84124 0.0
C1664 C 0.5023 0.91256 0.84768 0.0
C1665 C 0.52157 0.88811 0.87321 0.0
C1666 C 0.51601 0.88575 0.89505 0.0
C1667 C 0.532 0.88239 0.91128 0.0
C1668 C 0.55426 0.88185 0.90502 0.0
C1669 C 0.56018 0.88473 0.88277 0.0
C1670 C 0.54357 0.88785 0.86678 0.0
H1671 H 0.63409 0.97256 0.40876 0.0
H1672 H 0.60859 0.95617 0.34226 0.0
H1673 H 0.60236 0.99515 0.33705 0.0
H1674 H 0.59608 0.01447 0.42116 0.0
H1675 H 0.61718 0.03198 0.43649 0.0
H1676 H 0.61817 1.00245 0.43569 0.0
H1677 H 0.65841 1.00752 0.42107 0.0
H1678 H 0.65761 0.037 0.42201 0.0
H1679 H 0.66382 0.02319 0.39662 0.0
H1680 H 0.60148 0.03581 0.33797 0.0
H1681 H 0.60726 0.07613 0.34452 0.0
H1682 H 0.63254 0.06611 0.41067 0.0
C1683 C 0.62705 0.97712 0.39315 0.0
C1684 C 0.62181 0.96134 0.37593 0.0
C1685 C 0.61271 0.96799 0.35572 0.0
C1686 C 0.60899 0.99005 0.35262 0.0
C1687 C 0.61431 1.00517 0.36995 0.0
C1688 C 0.62314 0.99904 0.38981 0.0
C1689 C 0.62853 0.01876 0.40533 0.0
C1690 C 0.61413 0.01679 0.42588 0.0
C1691 C 0.65358 0.02179 0.41161 0.0
C1692 C 0.62194 0.03703 0.39082 0.0
C1693 C 0.61354 0.02877 0.37058 0.0
C1694 C 0.60774 0.0425 0.35384 0.0
C1695 C 0.61113 0.06534 0.3577 0.0
C1696 C 0.62023 0.07415 0.37813 0.0
C1697 C 0.62517 0.05979 0.39506 0.0
H1698 H 0.45047 0.14748 0.91471 0.0
H1699 H 0.43993 0.07648 0.91917 0.0
H1700 H 0.47867 0.07554 0.93297 0.0
H1701 H 0.49707 0.14807 0.88959 0.0
H1702 H 0.51168 0.17277 0.90196 0.0
H1703 H 0.48182 0.1694 0.90133 0.0
H1704 H 0.4816 0.17488 0.94374 0.0
H1705 H 0.5117 0.17847 0.9445 0.0
H1706 H 0.4971 0.15782 0.96105 0.0
H1707 H 0.5196 0.08065 0.93613 0.0
H1708 H 0.5587 0.09101 0.92613 0.0
H1709 H 0.54372 0.15854 0.91769 0.0
C1710 C 0.45609 0.13202 0.91997 0.0
C1711 C 0.44234 0.11214 0.91658 0.0
C1712 C 0.45027 0.09189 0.92224 0.0
C1713 C 0.47221 0.09125 0.93017 0.0
C1714 C 0.48602 0.11101 0.9321 0.0
C1715 C 0.4782 0.13112 0.92731 0.0
C1716 C 0.49726 0.14913 0.92579 0.0
C1717 C 0.49693 0.16046 0.90334 0.0
C1718 C 0.49689 0.16607 0.94492 0.0
C1719 C 0.51695 0.13562 0.92829 0.0
C1720 C 0.5102 0.1139 0.93297 0.0
C1721 C 0.52518 0.09774 0.93312 0.0
C1722 C 0.54736 0.10372 0.9274 0.0
C1723 C 0.55406 0.12552 0.92114 0.0
C1724 C 0.53895 0.14178 0.9226 0.0
H1725 H 0.40089 0.97629 0.40266 0.0
H1726 H 0.40118 0.95728 0.33331 0.0
H1727 H 0.40109 0.99643 0.3235 0.0
H1728 H 0.36293 0.01545 0.39712 0.0
H1729 H 0.37594 0.03461 0.41776 0.0
H1730 H 0.37893 1.00556 0.41963 0.0
H1731 H 0.42203 0.01352 0.42059 0.0
H1732 H 0.41919 0.04267 0.41917 0.0
H1733 H 0.43544 0.02945 0.39912 0.0
H1734 H 0.39827 0.03708 0.32125 0.0
H1735 H 0.39441 0.07685 0.32669 0.0
H1736 H 0.39441 0.06874 0.39754 0.0
C1737 C 0.40155 0.98039 0.38542 0.0
C1738 C 0.40121 0.96381 0.36873 0.0
C1739 C 0.40154 0.96978 0.34635 0.0
C1740 C 0.40147 0.99194 0.34062 0.0
C1741 C 0.401 1.0078 0.35748 0.0
C1742 C 0.40121 1.00233 0.37943 0.0
C1743 C 0.39921 0.02228 0.39432 0.0
C1744 C 0.37799 0.01928 0.408 0.0
C1745 C 0.42022 0.02728 0.40917 0.0
C1746 C 0.39751 0.03978 0.37731 0.0
C1747 C 0.39875 0.03113 0.35617 0.0
C1748 C 0.39741 0.04409 0.33772 0.0
C1749 C 0.39514 0.06661 0.34099 0.0
C1750 C 0.39404 0.07584 0.36254 0.0
C1751 C 0.39503 0.06214 0.38087 0.0
H1752 H 0.14011 0.49368 0.19138 0.0
H1753 H 0.08471 0.44682 0.16946 0.0
H1754 H 0.06524 0.47707 0.15471 0.0
H1755 H 0.10392 0.54392 0.20107 0.0
H1756 H 0.12687 0.56205 0.19128 0.0
H1757 H 0.13226 0.53827 0.20698 0.0
H1758 H 0.15675 0.52585 0.17525 0.0
H1759 H 0.15079 0.54921 0.15965 0.0
H1760 H 0.14459 0.52176 0.14785 0.0
H1761 H 0.05962 0.50786 0.13045 0.0
H1762 H 0.0658 0.53818 0.10421 0.0
H1763 H 0.12108 0.56764 0.14517 0.0
C1764 C 0.12335 0.49001 0.18455 0.0
C1765 C 0.11406 0.46795 0.18138 0.0
C1766 C 0.09221 0.46362 0.17213 0.0
C1767 C 0.08093 0.48076 0.1637 0.0
C1768 C 0.09137 0.50222 0.16534 0.0
C1769 C 0.11174 0.50706 0.17637 0.0
C1770 C 0.12102 0.5307 0.17289 0.0
C1771 C 0.12099 0.54454 0.19436 0.0
C1772 C 0.14464 0.53191 0.16332 0.0
C1773 C 0.10397 0.53759 0.15639 0.0
C1774 C 0.08677 0.52107 0.15242 0.0
C1775 C 0.07219 0.52147 0.13419 0.0
C1776 C 0.0758 0.53869 0.11931 0.0
C1777 C 0.09344 0.55547 0.12314 0.0
C1778 C 0.10681 0.5555 0.1425 0.0
H1779 H 0.08434 0.52814 0.84864 0.0
H1780 H 0.09002 0.5778 0.90125 0.0
H1781 H 0.08168 0.54896 0.92827 0.0
H1782 H 0.04052 0.48652 0.87908 0.0
H1783 H 0.05365 0.46377 0.86723 0.0
H1784 H 0.05131 0.48838 0.85169 0.0
H1785 H 0.09398 0.49188 0.84619 0.0
H1786 H 0.09653 0.4677 0.86178 0.0
H1787 H 0.11258 0.49327 0.87002 0.0
H1788 H 0.08894 0.51622 0.94891 0.0
H1789 H 0.10489 0.48237 0.96075 0.0
H1790 H 0.08962 0.45222 0.89634 0.0
C1791 C 0.0824 0.53295 0.86571 0.0
C1792 C 0.08787 0.55506 0.87289 0.0
C1793 C 0.08565 0.56094 0.89535 0.0
C1794 C 0.08093 0.5446 0.91087 0.0
C1795 C 0.07766 0.52258 0.90356 0.0
C1796 C 0.07732 0.51678 0.88133 0.0
C1797 C 0.07703 0.492 0.87792 0.0
C1798 C 0.05427 0.48208 0.86843 0.0
C1799 C 0.09618 0.48589 0.86315 0.0
C1800 C 0.08035 0.48516 0.90148 0.0
C1801 C 0.0801 0.50294 0.91614 0.0
C1802 C 0.08794 0.50187 0.93791 0.0
C1803 C 0.09702 0.48263 0.94455 0.0
C1804 C 0.09769 0.46459 0.92962 0.0
C1805 C 0.08818 0.46548 0.90829 0.0
H1806 H 0.07404 0.64063 0.4001 0.0
H1807 H 0.05802 0.578 0.3652 0.0
H1808 H 0.02336 0.57169 0.38657 0.0
H1809 H 0.04616 0.62501 0.4543 0.0
H1810 H 0.0372 0.65234 0.45703 0.0
H1811 H 0.06331 0.6484 0.44427 0.0
H1812 H 0.05042 0.66827 0.40964 0.0
H1813 H 0.02443 0.67217 0.42214 0.0
H1814 H 0.02455 0.65812 0.39567 0.0
H1815 H 0.9872 0.57648 0.40558 0.0
H1816 H 0.95313 0.59243 0.41759 0.0
H1817 H 0.99282 0.65282 0.43838 0.0
C1818 C 0.06358 0.62521 0.39749 0.0
C1819 C 0.06847 0.6098 0.38105 0.0
C1820 C 0.05454 0.58987 0.37792 0.0
C1821 C 0.03491 0.58619 0.39004 0.0
C1822 C 0.02991 0.60243 0.40539 0.0
C1823 C 0.04412 0.62146 0.40928 0.0
C1824 C 0.03369 0.63815 0.42354 0.0
C1825 C 0.04581 0.64114 0.44613 0.0
C1826 C 0.03323 0.66045 0.41204 0.0
C1827 C 1.01058 0.62646 0.42556 0.0
C1828 C 1.00893 0.60548 0.41586 0.0
C1829 C 0.98848 0.59261 0.41368 0.0
C1830 C 0.9692 0.60178 0.42061 0.0
C1831 C 0.97052 0.6238 0.42898 0.0
C1832 C 0.99153 0.63584 0.43232 0.0
H1833 H 0.90076 0.53931 0.94516 0.0
H1834 H 0.94041 0.58263 0.90234 0.0
H1835 H 0.95713 0.55068 0.88661 0.0
H1836 H 0.94429 0.49661 0.95126 0.0
H1837 H 0.9222 0.47437 0.95117 0.0
H1838 H 0.91795 0.50094 0.96333 0.0
H1839 H 0.88286 0.50273 0.93813 0.0
H1840 H 0.88695 0.47629 0.92615 0.0
H1841 H 0.88529 0.49967 0.9087 0.0
H1842 H 0.96059 0.51497 0.86837 0.0
H1843 H 0.95156 0.47815 0.85053 0.0
H1844 H 0.91339 0.45676 0.90682 0.0
C1845 C 0.91356 0.54209 0.93305 0.0
C1846 C 0.91924 0.56337 0.92493 0.0
C1847 C 0.93585 0.56645 0.90888 0.0
C1848 C 0.94558 0.5484 0.89994 0.0
C1849 C 0.93897 0.52744 0.90761 0.0
C1850 C 0.92367 0.52422 0.92417 0.0
C1851 C 0.91706 0.49987 0.92729 0.0
C1852 C 0.92591 0.49252 0.94959 0.0
C1853 C 0.89155 0.49434 0.92489 0.0
C1854 C 0.92923 0.49006 0.90845 0.0
C1855 C 0.94226 0.50621 0.89762 0.0
C1856 C 0.9514 0.50196 0.87722 0.0
C1857 C 0.94625 0.48105 0.86718 0.0
C1858 C 0.93256 0.46467 0.87782 0.0
C1859 C 0.92488 0.46885 0.89906 0.0
H1860 H 0.06143 0.4081 0.43652 0.0
H1861 H 0.09477 0.45878 0.3967 0.0
H1862 H 0.05805 0.46729 0.38154 0.0
H1863 H 0.02551 0.38605 0.39768 0.0
H1864 H 1.00218 0.37979 0.41528 0.0
H1865 H 0.03007 0.38162 0.42661 0.0
H1866 H 0.02037 0.41135 0.45519 0.0
H1867 H 0.99224 0.4095 0.44398 0.0
H1868 H 1.0088 0.43585 0.4459 0.0
H1869 H 0.01805 0.46516 0.36595 0.0
H1870 H 0.97983 0.45218 0.35162 0.0
H1871 H 0.97421 0.40262 0.40164 0.0
C1872 C 0.06099 0.42147 0.42511 0.0
C1873 C 0.08083 0.43278 0.41774 0.0
C1874 C 0.07966 0.45007 0.4027 0.0
C1875 C 0.05889 0.455 0.39404 0.0
C1876 C 0.03958 0.44277 0.40097 0.0
C1877 C 0.04056 0.42655 0.41646 0.0
C1878 C 0.01812 0.41374 0.41932 0.0
C1879 C 0.01904 0.38885 0.41441 0.0
C1880 C 1.00937 0.41787 0.44247 0.0
C1881 C 1.00458 0.42424 0.40202 0.0
C1882 C 0.0169 0.44138 0.39194 0.0
C1883 C 1.00814 0.4521 0.37407 0.0
C1884 C 0.98649 0.44469 0.36603 0.0
C1885 C 0.97434 0.42649 0.37564 0.0
C1886 C 0.98326 0.41668 0.39416 0.0
H1887 H 0.90849 0.46378 0.14473 0.0
H1888 H 0.95384 0.48445 0.09337 0.0
H1889 H 0.95761 0.5225 0.10907 0.0
H1890 H 0.87768 0.50397 0.13835 0.0
H1891 H 0.87038 0.50881 0.16654 0.0
H1892 H 0.87787 0.48217 0.15794 0.0
H1893 H 0.90931 0.48398 0.18789 0.0
H1894 H 0.90149 0.51045 0.19724 0.0
H1895 H 0.92988 0.50759 0.18979 0.0
H1896 H 0.94971 0.55884 0.12437 0.0
H1897 H 0.93058 0.59059 0.13749 0.0
H1898 H 0.88647 0.5467 0.17576 0.0
C1899 C 0.92038 0.47606 0.13779 0.0
C1900 C 0.93147 0.47126 0.11837 0.0
C1901 C 0.94578 0.48785 0.10867 0.0
C1902 C 0.94794 0.50948 0.11747 0.0
C1903 C 0.93535 0.51417 0.13569 0.0
C1904 C 0.92191 0.49785 0.14586 0.0
C1905 C 0.90628 0.50768 0.16172 0.0
C1906 C 0.88162 0.50022 0.15575 0.0
C1907 C 0.9121 0.5021 0.18558 0.0
C1908 C 0.91192 0.53199 0.15774 0.0
C1909 C 0.92933 0.53542 0.14338 0.0
C1910 C 0.93641 0.55639 0.13599 0.0
C1911 C 0.92536 0.57427 0.14339 0.0
C1912 C 0.90704 0.57093 0.1575 0.0
C1913 C 0.90043 0.5496 0.16493 0.0
H1914 H 0.98368 0.41666 0.63021 0.0
H1915 H 0.98364 0.36507 0.57953 0.0
H1916 H 0.02374 0.36307 0.58639 0.0
H1917 H 0.04169 0.44306 0.62019 0.0
H1918 H 0.04738 0.44852 0.64917 0.0
H1919 H 0.01932 0.44847 0.63813 0.0
H1920 H 1.0056 0.41928 0.66637 0.0
H1921 H 0.03359 0.419 0.6773 0.0
H1922 H 0.01824 0.39363 0.66738 0.0
H1923 H 0.06144 0.36237 0.6018 0.0
H1924 H 0.09669 0.36515 0.62338 0.0
H1925 H 0.07393 0.41785 0.66394 0.0
C1926 C 0.99233 0.40549 0.62012 0.0
C1927 C 0.98062 0.39105 0.60431 0.0
C1928 C 0.99231 0.37624 0.59175 0.0
C1929 C 0.0151 0.37502 0.59547 0.0
C1930 C 0.02601 0.38882 0.6117 0.0
C1931 C 0.01522 0.404 0.62367 0.0
C1932 C 0.03071 0.41558 0.64132 0.0
C1933 C 0.03503 0.44038 0.63693 0.0
C1934 C 0.02148 0.41162 0.66445 0.0
C1935 C 0.05152 0.40388 0.63785 0.0
C1936 C 0.04837 0.38863 0.62056 0.0
C1937 C 0.06435 0.37454 0.61511 0.0
C1938 C 0.08421 0.37611 0.6276 0.0
C1939 C 0.088 0.39174 0.64527 0.0
C1940 C 0.07153 0.40596 0.65033 0.0
H1941 H 0.06779 0.65551 0.62445 0.0
H1942 H 0.06483 0.58405 0.61783 0.0
H1943 H 0.02931 0.58094 0.63805 0.0
H1944 H 0.04618 0.65738 0.6795 0.0
H1945 H 0.03137 0.68105 0.67383 0.0
H1946 H 0.0568 0.67721 0.65982 0.0
H1947 H 0.03629 0.6791 0.62195 0.0
H1948 H 1.01099 0.68338 0.63582 0.0
H1949 H 1.01132 0.66087 0.61601 0.0
H1950 H 0.99275 0.58657 0.65737 0.0
H1951 H 0.95787 0.60016 0.67067 0.0
H1952 H 0.98727 0.66769 0.66521 0.0
C1953 C 0.05978 0.6391 0.62711 0.0
C1954 C 0.06898 0.62 0.61939 0.0
C1955 C 0.05795 0.59891 0.62348 0.0
C1956 C 0.03793 0.59701 0.63511 0.0
C1957 C 0.02955 0.61634 0.64275 0.0
C1958 C 0.04023 0.63694 0.63882 0.0
C1959 C 0.02775 0.65535 0.64779 0.0
C1960 C 0.04134 0.66851 0.66634 0.0
C1961 C 0.02119 0.67055 0.62929 0.0
C1962 C 1.00772 0.642 0.65666 0.0
C1963 C 1.00911 0.61952 0.65404 0.0
C1964 C 0.99166 0.60411 0.65976 0.0
C1965 C 0.97198 0.61197 0.66743 0.0
C1966 C 0.97001 0.63497 0.66898 0.0
C1967 C 0.98841 0.65003 0.66434 0.0
H1968 H 0.96711 0.15075 0.39333 0.0
H1969 H 0.94843 0.09534 0.3483 0.0
H1970 H 0.98843 0.09183 0.34173 0.0
H1971 H 0.01572 0.17443 0.3638 0.0
H1972 H 0.03157 0.18212 0.38881 0.0
H1973 H 1.00155 0.18097 0.38858 0.0
H1974 H 1.00045 0.15386 0.42082 0.0
H1975 H 0.03043 0.15486 0.4211 0.0
H1976 H 1.01374 0.12866 0.41804 0.0
H1977 H 0.03229 0.0936 0.34164 0.0
H1978 H 0.07335 0.10047 0.34834 0.0
H1979 H 0.06246 0.15436 0.39362 0.0
C1980 C 0.97132 0.13811 0.38174 0.0
C1981 C 0.95428 0.1235 0.37114 0.0
C1982 C 0.96091 0.10694 0.35649 0.0
C1983 C 0.98373 0.10477 0.35269 0.0
C1984 C 1.00008 0.11925 0.36367 0.0
C1985 C 0.99403 0.13565 0.37786 0.0
C1986 C 0.0146 0.14859 0.3884 0.0
C1987 C 0.01593 0.17297 0.38201 0.0
C1988 C 0.01481 0.14635 0.41358 0.0
C1989 C 0.03322 0.13695 0.37809 0.0
C1990 C 0.02468 0.12009 0.36377 0.0
C1991 C 0.03901 0.10689 0.35277 0.0
C1992 C 0.06243 0.11093 0.35662 0.0
C1993 C 0.07156 0.12801 0.37145 0.0
C1994 C 0.05642 0.14116 0.38208 0.0
H1995 H 0.40183 0.45361 0.88453 0.0
H1996 H 0.35713 0.42779 0.83098 0.0
H1997 H 0.35269 0.46627 0.82001 0.0
H1998 H 0.37112 0.49756 0.89988 0.0
H1999 H 0.3952 0.51651 0.90723 0.0
H2000 H 0.39672 0.48721 0.90907 0.0
H2001 H 0.43064 0.48978 0.88356 0.0
H2002 H 0.42927 0.51914 0.88169 0.0
H2003 H 0.42835 0.50203 0.85698 0.0
H2004 H 0.35152 0.50903 0.81659 0.0
H2005 H 0.35269 0.54962 0.82159 0.0
H2006 H 0.3971 0.54709 0.87847 0.0
C2007 C 0.39145 0.45581 0.87011 0.0
C2008 C 0.38014 0.43717 0.85843 0.0
C2009 C 0.36634 0.44141 0.84006 0.0
C2010 C 0.36365 0.46336 0.83378 0.0
C2011 C 0.37472 0.48121 0.84603 0.0
C2012 C 0.38838 0.47753 0.86385 0.0
C2013 C 0.39734 0.49929 0.87534 0.0
C2014 C 0.38963 0.50019 0.89929 0.0
C2015 C 0.42292 0.50276 0.87433 0.0
C2016 C 0.38651 0.51599 0.86142 0.0
C2017 C 0.37367 0.5053 0.84443 0.0
C2018 C 0.36167 0.51737 0.82979 0.0
C2019 C 0.36252 0.5406 0.83273 0.0
C2020 C 0.37517 0.55199 0.8503 0.0
C2021 C 0.38749 0.53924 0.86464 0.0
H2022 H 0.06115 0.89092 0.37751 0.0
H2023 H 0.07517 0.96145 0.36933 0.0
H2024 H 0.03469 0.96493 0.36521 0.0
H2025 H 1.0126 0.88258 0.33886 0.0
H2026 H 0.99778 0.86254 0.35592 0.0
H2027 H 0.02786 0.86547 0.35635 0.0
H2028 H 0.02843 0.87218 0.3986 0.0
H2029 H 0.9984 0.86928 0.39831 0.0
H2030 H 1.0136 0.89395 0.41005 0.0
H2031 H 0.99106 0.96087 0.36473 0.0
H2032 H 0.95054 0.94958 0.36822 0.0
H2033 H 0.96531 0.88182 0.37627 0.0
C2034 C 0.0558 0.90706 0.37434 0.0
C2035 C 0.07173 0.92587 0.37348 0.0
C2036 C 0.06362 0.94668 0.36984 0.0
C2037 C 0.0405 0.94884 0.36752 0.0
C2038 C 0.02527 0.93006 0.36882 0.0
C2039 C 0.03271 0.90952 0.37205 0.0
C2040 C 1.013 0.89204 0.37393 0.0
C2041 C 1.0128 0.87462 0.35515 0.0
C2042 C 1.01339 0.88123 0.39657 0.0
C2043 C 0.99333 0.90587 0.37154 0.0
C2044 C 1.00063 0.92777 0.3685 0.0
C2045 C 0.9853 0.94366 0.36686 0.0
C2046 C 0.96216 0.93708 0.36875 0.0
C2047 C 0.95425 0.91473 0.37226 0.0
C2048 C 0.97036 0.89904 0.37328 0.0
H2049 H 0.62658 0.45423 0.89298 0.0
H2050 H 0.63193 0.44422 0.82251 0.0
H2051 H 0.6293 0.4842 0.81732 0.0
H2052 H 0.58775 0.49712 0.89109 0.0
H2053 H 0.60106 0.51232 0.91445 0.0
H2054 H 0.60164 0.48279 0.9122 0.0
H2055 H 0.64476 0.48758 0.91568 0.0
H2056 H 0.64432 0.51709 0.91796 0.0
H2057 H 0.66043 0.5052 0.89691 0.0
H2058 H 0.6281 0.52733 0.82045 0.0
H2059 H 0.62959 0.56704 0.83177 0.0
H2060 H 0.62519 0.54814 0.9 0.0
C2061 C 0.62678 0.46028 0.87637 0.0
C2062 C 0.62921 0.44568 0.85813 0.0
C2063 C 0.62986 0.45475 0.83679 0.0
C2064 C 0.6284 0.47758 0.83368 0.0
C2065 C 0.62631 0.49153 0.85204 0.0
C2066 C 0.62547 0.48307 0.87299 0.0
C2067 C 0.62429 0.50149 0.89019 0.0
C2068 C 0.60238 0.49823 0.90272 0.0
C2069 C 0.64466 0.50292 0.90612 0.0
C2070 C 0.6248 0.52169 0.8758 0.0
C2071 C 0.62582 0.51575 0.8538 0.0
C2072 C 0.62713 0.53197 0.83768 0.0
C2073 C 0.62783 0.55462 0.84424 0.0
C2074 C 0.62735 0.56113 0.8668 0.0
C2075 C 0.62544 0.5441 0.88256 0.0
H2076 H 0.98864 0.88381 0.63748 0.0
H2077 H 0.97296 0.91405 0.69982 0.0
H2078 H 1.01363 0.92132 0.7088 0.0
H2079 H 0.03435 0.85663 0.65641 0.0
H2080 H 0.05025 0.86121 0.63189 0.0
H2081 H 0.02025 0.85963 0.63031 0.0
H2082 H 0.02238 0.89804 0.61261 0.0
H2083 H 0.05242 0.89972 0.61409 0.0
H2084 H 0.03804 0.9213 0.62652 0.0
H2085 H 0.05769 0.92246 0.71166 0.0
H2086 H 0.09815 0.91914 0.70726 0.0
H2087 H 0.08402 0.88939 0.64229 0.0
C2088 C 0.9936 0.89219 0.65301 0.0
C2089 C 0.97723 0.89832 0.66793 0.0
C2090 C 0.98488 0.90928 0.68797 0.0
C2091 C 1.00807 0.91339 0.69323 0.0
C2092 C 0.02366 0.90672 0.67822 0.0
C2093 C 0.01655 0.89657 0.65836 0.0
C2094 C 0.03627 0.89066 0.64496 0.0
C2095 C 0.03521 0.86555 0.64065 0.0
C2096 C 0.03733 0.90318 0.62326 0.0
C2097 C 0.05578 0.89873 0.66037 0.0
C2098 C 0.04831 0.90791 0.67955 0.0
C2099 C 0.06351 0.91552 0.69653 0.0
C2100 C 0.08659 0.9136 0.69388 0.0
C2101 C 0.09464 0.90429 0.6743 0.0
C2102 C 0.07875 0.89697 0.65735 0.0
H2103 H 0.65853 0.51014 0.11605 0.0
H2104 H 0.60999 0.49757 0.1669 0.0
H2105 H 0.60884 0.5379 0.17278 0.0
H2106 H 0.68853 0.55986 0.14162 0.0
H2107 H 0.69262 0.57333 0.11572 0.0
H2108 H 0.6905 0.54362 0.11665 0.0
H2109 H 0.65811 0.54105 0.08763 0.0
H2110 H 0.66011 0.57073 0.08664 0.0
H2111 H 0.63391 0.55549 0.09278 0.0
H2112 H 0.61231 0.58127 0.17197 0.0
H2113 H 0.6194 0.62119 0.16384 0.0
H2114 H 0.66509 0.60481 0.11322 0.0
C2115 C 0.64789 0.5158 0.1287 0.0
C2116 C 0.63453 0.50034 0.14118 0.0
C2117 C 0.62057 0.5088 0.15721 0.0
C2118 C 0.61979 0.53183 0.16065 0.0
C2119 C 0.63299 0.54657 0.14791 0.0
C2120 C 0.64679 0.53876 0.13223 0.0
C2121 C 0.65867 0.55786 0.12001 0.0
C2122 C 0.68409 0.55871 0.12373 0.0
C2123 C 0.65232 0.55617 0.09531 0.0
C2124 C 0.64941 0.57764 0.13109 0.0
C2125 C 0.63469 0.57094 0.14725 0.0
C2126 C 0.62391 0.58654 0.15936 0.0
C2127 C 0.62809 0.60932 0.15469 0.0
C2128 C 0.64288 0.61656 0.13793 0.0
C2129 C 0.6537 0.6002 0.12623 0.0
H2130 H 0.96967 0.11955 0.6293 0.0
H2131 H 0.96306 0.10685 0.69884 0.0
H2132 H 1.00393 0.10506 0.70241 0.0
H2133 H 0.01509 0.08496 0.61873 0.0
H2134 H 0.0288 0.10428 0.6002 0.0
H2135 H 0.99895 0.10273 0.60289 0.0
H2136 H 1.00185 0.14458 0.61265 0.0
H2137 H 0.03168 0.14624 0.61001 0.0
H2138 H 0.01994 0.15546 0.63523 0.0
H2139 H 0.04708 0.10579 0.69831 0.0
H2140 H 0.08671 0.11094 0.68742 0.0
H2141 H 0.06509 0.12475 0.62102 0.0
C2142 C 0.97671 0.11596 0.64523 0.0
C2143 C 0.96278 0.11299 0.66374 0.0
C2144 C 0.97307 0.10896 0.68433 0.0
C2145 C 0.99641 0.10793 0.68651 0.0
C2146 C 1.00965 0.11118 0.66802 0.0
C2147 C 1.00007 0.11521 0.64777 0.0
C2148 C 0.01801 0.11944 0.63069 0.0
C2149 C 0.01503 0.1018 0.61202 0.0
C2150 C 0.01786 0.14282 0.62161 0.0
C2151 C 0.03919 0.11728 0.6444 0.0
C2152 C 0.03409 0.11227 0.66587 0.0
C2153 C 0.0511 0.10968 0.68149 0.0
C2154 C 0.07369 0.11255 0.67513 0.0
C2155 C 0.0794 0.11823 0.65332 0.0
C2156 C 0.06162 0.12038 0.63785 0.0
H2157 H 0.3759 0.52487 0.11037 0.0
H2158 H 0.42905 0.54168 0.15896 0.0
H2159 H 0.43167 0.50181 0.16497 0.0
H2160 H 0.34956 0.47589 0.13706 0.0
H2161 H 0.34345 0.46099 0.11129 0.0
H2162 H 0.34476 0.49072 0.11234 0.0
H2163 H 0.37439 0.49271 0.08206 0.0
H2164 H 0.37319 0.46303 0.08093 0.0
H2165 H 0.39952 0.4793 0.08611 0.0
H2166 H 0.42894 0.45812 0.16445 0.0
H2167 H 0.42226 0.41766 0.15609 0.0
H2168 H 0.37191 0.43046 0.10714 0.0
C2169 C 0.38784 0.52026 0.12261 0.0
C2170 C 0.40206 0.53676 0.1344 0.0
C2171 C 0.41776 0.52963 0.14983 0.0
C2172 C 0.41938 0.50688 0.15335 0.0
C2173 C 0.40529 0.49107 0.14124 0.0
C2174 C 0.38982 0.49762 0.12615 0.0
C2175 C 0.37737 0.47763 0.11429 0.0
C2176 C 0.3523 0.47623 0.11903 0.0
C2177 C 0.38136 0.47821 0.08938 0.0
C2178 C 0.38827 0.45879 0.12483 0.0
C2179 C 0.4042 0.46667 0.14054 0.0
C2180 C 0.41642 0.45195 0.15216 0.0
C2181 C 0.41248 0.42887 0.1474 0.0
C2182 C 0.3966 0.42052 0.13091 0.0
C2183 C 0.38429 0.43598 0.11981 0.0
H2184 H 0.39554 0.02131 0.13737 0.0
H2185 H 0.36168 0.03408 0.0759 0.0
H2186 H 0.35501 0.99362 0.06827 0.0
H2187 H 0.42339 0.97629 0.11796 0.0
H2188 H 0.4205 0.96098 0.14293 0.0
H2189 H 0.42125 0.99064 0.14402 0.0
H2190 H 0.38343 0.98785 0.16361 0.0
H2191 H 0.38258 0.95814 0.16266 0.0
H2192 H 0.35971 0.97146 0.15106 0.0
H2193 H 0.35483 0.95057 0.06625 0.0
H2194 H 0.35963 0.91094 0.07066 0.0
H2195 H 0.39268 0.92624 0.13409 0.0
C2196 C 0.38639 0.01573 0.12239 0.0
C2197 C 0.37904 0.03132 0.10731 0.0
C2198 C 0.36732 0.02285 0.0879 0.0
C2199 C 0.36356 0.99974 0.08339 0.0
C2200 C 0.3714 0.98498 0.09846 0.0
C2201 C 0.38241 0.99277 0.11771 0.0
C2202 C 0.38966 0.97366 0.13111 0.0
C2203 C 0.41521 0.97551 0.13418 0.0
C2204 C 0.37816 0.97273 0.15343 0.0
C2205 C 0.38133 0.95377 0.11638 0.0
C2206 C 0.37086 0.96061 0.09757 0.0
C2207 C 0.36277 0.94522 0.08109 0.0
C2208 C 0.36555 0.92258 0.08377 0.0
C2209 C 0.37619 0.91503 0.1029 0.0
C2210 C 0.38398 0.9311 0.11946 0.0
H2211 H 0.4811 0.88208 0.64324 0.0
H2212 H 0.46538 0.83019 0.5936 0.0
H2213 H 0.50578 0.82647 0.5898 0.0
H2214 H 0.53241 0.90707 0.61948 0.0
H2215 H 0.54627 0.91253 0.64595 0.0
H2216 H 0.51634 0.91191 0.64349 0.0
H2217 H 0.51215 0.88224 0.67335 0.0
H2218 H 0.54204 0.88274 0.67586 0.0
H2219 H 0.52527 0.85704 0.66973 0.0
H2220 H 0.5497 0.82826 0.59229 0.0
H2221 H 0.59029 0.83439 0.60196 0.0
H2222 H 0.57632 0.88393 0.65086 0.0
C2223 C 0.48609 0.87015 0.63128 0.0
C2224 C 0.46974 0.85664 0.6185 0.0
C2225 C 0.47732 0.84092 0.60347 0.0
C2226 C 0.50037 0.83868 0.60121 0.0
C2227 C 0.516 0.85211 0.61422 0.0
C2228 C 0.50902 0.86751 0.62902 0.0
C2229 C 0.52887 0.87929 0.64189 0.0
C2230 C 0.5311 0.90417 0.63743 0.0
C2231 C 0.52696 0.87507 0.66667 0.0
C2232 C 0.54813 0.86816 0.63218 0.0
C2233 C 0.54056 0.85264 0.61608 0.0
C2234 C 0.55564 0.84042 0.60492 0.0
C2235 C 0.57878 0.84402 0.61047 0.0
C2236 C 0.58686 0.85957 0.62727 0.0
C2237 C 0.57102 0.87178 0.63801 0.0
H2238 H 0.64282 0.11078 0.13878 0.0
H2239 H 0.67617 0.12063 0.07682 0.0
H2240 H 0.68165 0.08087 0.07462 0.0
H2241 H 0.67787 0.06921 0.15972 0.0
H2242 H 0.65488 0.05346 0.17234 0.0
H2243 H 0.65456 0.08284 0.16946 0.0
H2244 H 0.61644 0.07635 0.14855 0.0
H2245 H 0.61668 0.04698 0.15133 0.0
H2246 H 0.61368 0.05835 0.12442 0.0
H2247 H 0.68146 0.03806 0.07824 0.0
H2248 H 0.67647 0.99848 0.08809 0.0
H2249 H 0.64424 0.01689 0.14797 0.0
C2250 C 0.65161 0.10471 0.12489 0.0
C2251 C 0.6592 0.11929 0.10805 0.0
C2252 C 0.6703 0.11019 0.09009 0.0
C2253 C 0.67346 0.08744 0.08865 0.0
C2254 C 0.66554 0.07354 0.10533 0.0
C2255 C 0.65498 0.08196 0.12322 0.0
C2256 C 0.64761 0.06349 0.13876 0.0
C2257 C 0.65944 0.06749 0.16141 0.0
C2258 C 0.62209 0.06116 0.14088 0.0
C2259 C 0.65544 0.04339 0.12681 0.0
C2260 C 0.66575 0.04941 0.10752 0.0
C2261 C 0.67358 0.03335 0.09348 0.0
C2262 C 0.67072 1.01076 0.09922 0.0
C2263 C 0.6602 1.00413 0.11897 0.0
C2264 C 0.65267 0.02102 0.13286 0.0
H2265 H 0.57315 0.12698 0.63377 0.0
H2266 H 0.58991 0.19108 0.60573 0.0
H2267 H 0.54957 0.19573 0.60116 0.0
H2268 H 0.52234 0.11048 0.60047 0.0
H2269 H 0.50806 0.09761 0.62327 0.0
H2270 H 0.53801 0.09867 0.62208 0.0
H2271 H 0.54177 0.11795 0.66066 0.0
H2272 H 0.51187 0.11698 0.66194 0.0
H2273 H 0.52875 0.14303 0.6654 0.0
H2274 H 0.50559 0.19356 0.60126 0.0
H2275 H 0.46498 0.18565 0.60802 0.0
H2276 H 0.47817 0.12387 0.63742 0.0
C2277 C 0.56842 0.1418 0.62614 0.0
C2278 C 0.58498 0.15847 0.61969 0.0
C2279 C 0.57775 0.17788 0.61051 0.0
C2280 C 0.55475 0.18068 0.60789 0.0
C2281 C 0.53888 0.16403 0.61472 0.0
C2282 C 0.54557 0.14498 0.62374 0.0
C2283 C 0.52555 0.13018 0.6313 0.0
C2284 C 0.52336 0.10792 0.61851 0.0
C2285 C 0.52708 0.12685 0.6563 0.0
C2286 C 0.50651 0.14378 0.62527 0.0
C2287 C 0.51432 0.16318 0.61549 0.0
C2288 C 0.49946 0.17833 0.60888 0.0
C2289 C 0.4763 0.17368 0.61267 0.0
C2290 C 0.46806 0.15414 0.62327 0.0
C2291 C 0.48364 0.13903 0.6293 0.0
H2292 H 0.37902 0.03943 0.88374 0.0
H2293 H 0.31008 0.05286 0.89063 0.0
H2294 H 0.29906 0.01244 0.89227 0.0
H2295 H 0.36876 0.99122 0.84902 0.0
H2296 H 0.39074 0.97717 0.86136 0.0
H2297 H 0.39294 1.00691 0.86152 0.0
H2298 H 0.39824 1.00802 0.90393 0.0
H2299 H 0.39606 0.97827 0.90391 0.0
H2300 H 0.37772 0.99308 0.92049 0.0
H2301 H 0.29573 0.96901 0.89141 0.0
H2302 H 0.30032 0.92904 0.88886 0.0
H2303 H 0.37174 0.94426 0.88327 0.0
C2304 C 0.36153 0.03406 0.88574 0.0
C2305 C 0.34545 0.0498 0.88708 0.0
C2306 C 0.32283 0.04152 0.88966 0.0
C2307 C 0.31643 0.01844 0.89056 0.0
C2308 C 0.33276 1.00352 0.88899 0.0
C2309 C 0.35491 1.01117 0.88675 0.0
C2310 C 0.36938 0.99195 0.88513 0.0
C2311 C 0.38115 0.99181 0.86294 0.0
C2312 C 0.38635 0.99289 0.90452 0.0
C2313 C 0.35202 0.9721 0.88664 0.0
C2314 C 0.33095 0.97907 0.88884 0.0
C2315 C 0.31223 0.96361 0.88986 0.0
C2316 C 0.31503 0.94076 0.88843 0.0
C2317 C 0.33642 0.93307 0.88611 0.0
C2318 C 0.35514 0.94926 0.88539 0.0
H2319 H 0.56348 0.90101 0.42558 0.0
H2320 H 0.56329 0.83913 0.38877 0.0
H2321 H 0.52217 0.83395 0.38987 0.0
H2322 H 0.51353 0.88396 0.46027 0.0
H2323 H 0.50342 0.91083 0.45892 0.0
H2324 H 0.53296 0.90825 0.45809 0.0
H2325 H 0.53491 0.92918 0.42155 0.0
H2326 H 0.50537 0.93161 0.42211 0.0
H2327 H 0.51712 0.91897 0.3985 0.0
H2328 H 0.48069 0.83796 0.38996 0.0
H2329 H 0.44243 0.84926 0.39192 0.0
H2330 H 0.46781 0.90799 0.42988 0.0
C2331 C 0.55484 0.88584 0.41874 0.0
C2332 C 0.56697 0.87007 0.4077 0.0
C2333 C 0.55468 0.85112 0.39786 0.0
C2334 C 0.53118 0.84814 0.39824 0.0
C2335 C 0.51971 0.86426 0.4085 0.0
C2336 C 0.53111 0.88262 0.41892 0.0
C2337 C 0.51451 0.89812 0.42745 0.0
C2338 C 0.51621 0.90042 0.45269 0.0
C2339 C 0.5182 0.92081 0.41676 0.0
C2340 C 0.49214 0.88585 0.41985 0.0
C2341 C 0.49562 0.86636 0.4089 0.0
C2342 C 0.47781 0.85296 0.39892 0.0
C2343 C 0.45602 0.85954 0.4001 0.0
C2344 C 0.45175 0.87927 0.41145 0.0
C2345 C 0.47024 0.89247 0.42161 0.0
H2346 H 0.62368 0.05386 0.88877 0.0
H2347 H 0.69337 0.07233 0.90568 0.0
H2348 H 0.69935 0.03276 0.90899 0.0
H2349 H 0.61492 1.00524 0.92315 0.0
H2350 H 0.59758 0.98946 0.90265 0.0
H2351 H 0.59842 0.01916 0.90376 0.0
H2352 H 0.60957 0.02054 0.86289 0.0
H2353 H 0.60871 0.99087 0.86166 0.0
H2354 H 0.6337 1.00753 0.8543 0.0
H2355 H 0.69749 0.98951 0.9102 0.0
H2356 H 0.68889 0.94882 0.90516 0.0
H2357 H 0.62137 0.95883 0.88443 0.0
C2358 C 0.64012 0.04963 0.89361 0.0
C2359 C 0.65795 0.06652 0.89744 0.0
C2360 C 0.67933 0.05995 0.90294 0.0
C2361 C 0.68289 0.03738 0.90488 0.0
C2362 C 0.66502 0.02116 0.90085 0.0
C2363 C 0.64409 0.02709 0.89505 0.0
C2364 C 0.62806 1.00655 0.88981 0.0
C2365 C 0.60859 1.00502 0.9058 0.0
C2366 C 0.61951 1.00637 0.86574 0.0
C2367 C 0.64311 0.98814 0.89356 0.0
C2368 C 0.66431 0.99678 0.90029 0.0
C2369 C 0.6809 0.98273 0.90487 0.0
C2370 C 0.67585 0.95951 0.90211 0.0
C2371 C 0.65446 0.9503 0.89441 0.0
C2372 C 0.63795 0.9651 0.89034 0.0
H2373 H 0.47451 0.16651 0.36633 0.0
H2374 H 0.45316 0.16029 0.43377 0.0
H2375 H 0.49288 0.16128 0.44623 0.0
H2376 H 0.51693 0.13093 0.36997 0.0
H2377 H 0.53561 0.14649 0.35203 0.0
H2378 H 0.50595 0.14762 0.34896 0.0
H2379 H 0.51133 0.19023 0.35347 0.0
H2380 H 0.54106 0.18926 0.35647 0.0
H2381 H 0.52616 0.20274 0.37744 0.0
H2382 H 0.53602 0.1602 0.4507 0.0
H2383 H 0.57643 0.15716 0.44688 0.0
H2384 H 0.56914 0.16342 0.37621 0.0
C2385 C 0.47801 0.16581 0.38385 0.0
C2386 C 0.46029 0.16358 0.39906 0.0
C2387 C 0.46611 0.16234 0.42173 0.0
C2388 C 0.48876 0.16278 0.42894 0.0
C2389 C 0.50565 0.16447 0.41335 0.0
C2390 C 0.50041 0.16608 0.39125 0.0
C2391 C 0.52131 0.16656 0.37751 0.0
C2392 C 0.51985 0.14672 0.36116 0.0
C2393 C 0.52519 0.1885 0.36552 0.0
C2394 C 0.53929 0.16473 0.39521 0.0
C2395 C 0.52998 0.16367 0.41583 0.0
C2396 C 0.54331 0.16121 0.4346 0.0
C2397 C 0.56641 0.15954 0.43226 0.0
C2398 C 0.57637 0.16027 0.41127 0.0
C2399 C 0.56239 0.16313 0.39258 0.0
H2400 H 0.15645 0.41846 1.00235 0.0
H2401 H 0.1119 0.35887 0.99005 0.0
H2402 H 0.11082 0.35264 0.03026 0.0
H2403 H 0.18785 0.39862 0.04862 0.0
H2404 H 0.19014 0.42498 0.06313 0.0
H2405 H 0.18812 0.42377 0.03348 0.0
H2406 H 0.15385 0.44635 0.03454 0.0
H2407 H 0.15576 0.44762 0.06417 0.0
H2408 H 0.13009 0.43662 0.05037 0.0
H2409 H 0.11426 0.35394 0.07387 0.0
H2410 H 0.12099 0.3633 0.1138 0.0
H2411 H 0.16263 0.42219 0.09638 0.0
C2412 C 0.14664 0.40391 1.00799 0.0
C2413 C 0.1344 0.38907 0.99269 0.0
C2414 C 0.12158 0.37046 1.00117 0.0
C2415 C 0.12086 0.3668 0.02412 0.0
C2416 C 0.13299 0.38188 0.03874 0.0
C2417 C 0.14565 0.40009 0.03083 0.0
C2418 C 0.15662 0.41436 0.04971 0.0
C2419 C 0.1822 0.41549 0.04867 0.0
C2420 C 0.14859 0.43761 0.04969 0.0
C2421 C 0.14813 0.40157 0.06954 0.0
C2422 C 0.13463 0.38276 0.06308 0.0
C2423 C 0.12487 0.36866 0.07892 0.0
C2424 C 0.12884 0.37405 0.10168 0.0
C2425 C 0.14233 0.39352 0.10863 0.0
C2426 C 0.15214 0.40717 0.09201 0.0
H2427 H 0.11028 0.61691 0.92347 0.0
H2428 H 0.14448 0.68261 0.91851 0.0
H2429 H 0.14547 0.68684 0.95919 0.0
H2430 H 0.07667 0.62889 0.97158 0.0
H2431 H 0.07933 0.60225 0.98318 0.0
H2432 H 0.07978 0.60531 0.95376 0.0
H2433 H 0.11775 0.58889 0.95267 0.0
H2434 H 0.11751 0.58582 0.98205 0.0
H2435 H 0.1408 0.60131 0.96966 0.0
H2436 H 0.14537 0.68231 1.002 0.0
H2437 H 0.14357 0.66964 0.04058 0.0
H2438 H 0.10879 0.60742 0.01697 0.0
C2439 C 0.11753 0.63243 0.93084 0.0
C2440 C 0.12705 0.64954 0.91743 0.0
C2441 C 0.13679 0.66931 0.92812 0.0
C2442 C 0.13751 0.67184 0.95136 0.0
C2443 C 0.12835 0.6545 0.96407 0.0
C2444 C 0.11837 0.63524 0.95405 0.0
C2445 C 0.11057 0.61864 0.97125 0.0
C2446 C 0.08507 0.61348 0.96986 0.0
C2447 C 0.12237 0.59742 0.96876 0.0
C2448 C 0.11795 0.63135 0.99252 0.0
C2449 C 0.12814 0.65205 0.98818 0.0
C2450 C 0.13714 0.66619 1.00544 0.0
C2451 C 0.13597 0.6589 0.02745 0.0
C2452 C 0.12582 0.63758 0.03229 0.0
C2453 C 0.11646 0.62395 0.0143 0.0
H2454 H 0.9076 0.63873 0.50156 0.0
H2455 H 0.84669 0.59572 0.48912 0.0
H2456 H 0.84233 0.59161 0.52935 0.0
H2457 H 0.92763 0.61115 0.54993 0.0
H2458 H 0.9381 0.6367 0.56386 0.0
H2459 H 0.93706 0.63486 0.5342 0.0
H2460 H 0.91356 0.66826 0.5331 0.0
H2461 H 0.9145 0.67019 0.56273 0.0
H2462 H 0.88798 0.66739 0.54803 0.0
H2463 H 0.84454 0.59301 0.57262 0.0
H2464 H 0.85216 0.60131 0.61254 0.0
H2465 H 0.91063 0.64456 0.59616 0.0
C2466 C 0.89351 0.62812 0.50722 0.0
C2467 C 0.87766 0.61729 0.49184 0.0
C2468 C 0.85923 0.60405 0.5003 0.0
C2469 C 0.8566 0.60163 0.52326 0.0
C2470 C 0.87241 0.6127 0.53793 0.0
C2471 C 0.89048 0.62577 0.53012 0.0
C2472 C 0.90455 0.63688 0.54917 0.0
C2473 C 0.92824 0.62945 0.54929 0.0
C2474 C 0.90518 0.66218 0.54819 0.0
C2475 C 0.89166 0.62814 0.56895 0.0
C2476 C 0.87326 0.61403 0.56226 0.0
C2477 C 0.85896 0.60407 0.57786 0.0
C2478 C 0.86344 0.60881 0.60064 0.0
C2479 C 0.88198 0.62363 0.60787 0.0
C2480 C 0.89623 0.63318 0.59151 0.0
H2481 H 0.91508 0.39963 0.92814 0.0
H2482 H 0.89168 0.33034 0.91843 0.0
H2483 H 0.89195 0.32585 0.95885 0.0
H2484 H 0.95163 0.3931 0.97656 0.0
H2485 H 0.94488 0.41843 0.98964 0.0
H2486 H 0.94423 0.41563 0.96003 0.0
H2487 H 0.90339 0.42545 0.95885 0.0
H2488 H 0.90388 0.42824 0.98842 0.0
H2489 H 0.88274 0.40956 0.9745 0.0
H2490 H 0.89231 0.32993 1.00207 0.0
H2491 H 0.89324 0.34223 0.04149 0.0
H2492 H 0.91724 0.40837 0.02228 0.0
C2493 C 0.91042 0.38337 0.93442 0.0
C2494 C 0.90357 0.36529 0.91972 0.0
C2495 C 0.89724 0.34447 0.92903 0.0
C2496 C 0.89727 0.34176 0.95213 0.0
C2497 C 0.90378 0.35998 0.96612 0.0
C2498 C 0.9104 0.38037 0.95747 0.0
C2499 C 0.91593 0.39759 0.97588 0.0
C2500 C 0.94064 0.40672 0.9755 0.0
C2501 C 0.90057 0.41631 0.97432 0.0
C2502 C 0.91115 0.38389 0.99621 0.0
C2503 C 0.90418 0.3622 0.99041 0.0
C2504 C 0.898 0.34688 1.00665 0.0
C2505 C 0.89867 0.35397 0.02915 0.0
C2506 C 0.90552 0.37625 0.03548 0.0
C2507 C 0.91211 0.39112 0.01847 0.0
H2508 H 0.14471 0.43749 0.60375 0.0
H2509 H 0.20253 0.40178 0.61474 0.0
H2510 H 0.20907 0.40118 0.57451 0.0
H2511 H 0.12533 0.40555 0.55594 0.0
H2512 H 0.11419 0.42815 0.54218 0.0
H2513 H 0.11602 0.42819 0.57179 0.0
H2514 H 0.13908 0.46641 0.57198 0.0
H2515 H 0.13747 0.46637 0.54231 0.0
H2516 H 0.16428 0.46988 0.55646 0.0
H2517 H 0.20858 0.40405 0.53156 0.0
H2518 H 0.19802 0.40503 0.4918 0.0
H2519 H 0.1385 0.43545 0.50881 0.0
C2520 C 0.15909 0.43004 0.59774 0.0
C2521 C 0.17355 0.42029 0.61267 0.0
C2522 C 0.19151 0.40978 0.60385 0.0
C2523 C 0.19534 0.40939 0.58092 0.0
C2524 C 0.18075 0.4191 0.56663 0.0
C2525 C 0.16273 0.42889 0.57479 0.0
C2526 C 0.14809 0.43599 0.55596 0.0
C2527 C 0.12452 0.42374 0.5565 0.0
C2528 C 0.14718 0.46116 0.55673 0.0
C2529 C 0.1606 0.42878 0.53591 0.0
C2530 C 0.17968 0.41946 0.54233 0.0
C2531 C 0.1937 0.41143 0.52652 0.0
C2532 C 0.18775 0.4123 0.50384 0.0
C2533 C 0.16773 0.42085 0.49692 0.0
C2534 C 0.15423 0.42935 0.51339 0.0
H2535 H 0.89847 0.62 1.0088 0.0
H2536 H 0.93043 0.68331 0.98945 0.0
H2537 H 0.93748 0.69385 0.02911 0.0
H2538 H 0.87036 0.63954 0.05448 0.0
H2539 H 0.87376 0.61563 0.07072 0.0
H2540 H 0.87282 0.61313 0.04113 0.0
H2541 H 0.91099 0.59684 0.04197 0.0
H2542 H 0.91205 0.59929 0.0716 0.0
H2543 H 0.93462 0.61206 0.05593 0.0
H2544 H 0.9389 0.69756 0.07298 0.0
H2545 H 0.93463 0.69399 0.11337 0.0
H2546 H 0.90157 0.628 0.10237 0.0
C2547 C 0.90717 0.63611 0.01265 0.0
C2548 C 0.9139 0.65077 0.99557 0.0
C2549 C 0.9252 0.67161 1.0019 0.0
C2550 C 0.92919 0.67775 0.02452 0.0
C2551 C 0.92193 0.66288 0.04083 0.0
C2552 C 0.91123 0.6424 0.03493 0.0
C2553 C 0.90432 0.62935 0.05511 0.0
C2554 C 0.87881 0.62412 0.05537 0.0
C2555 C 0.91621 0.60813 0.05621 0.0
C2556 C 0.91254 0.64562 0.07355 0.0
C2557 C 0.92275 0.6649 0.06518 0.0
C2558 C 0.93104 0.6824 0.07946 0.0
C2559 C 0.92861 0.6802 0.10252 0.0
C2560 C 0.91793 0.66064 0.1114 0.0
C2561 C 0.91004 0.64315 0.09644 0.0
H2562 H 0.89642 0.37665 0.42734 0.0
H2563 H 0.87666 0.44281 0.42045 0.0
H2564 H 0.87358 0.44633 0.46096 0.0
H2565 H 0.85992 0.36112 0.4732 0.0
H2566 H 0.88022 0.34551 0.48631 0.0
H2567 H 0.87974 0.34804 0.45681 0.0
H2568 H 0.9213 0.36363 0.45847 0.0
H2569 H 0.92192 0.36121 0.48794 0.0
H2570 H 0.92995 0.38749 0.47589 0.0
H2571 H 0.87539 0.44321 0.50413 0.0
H2572 H 0.88044 0.43305 0.54326 0.0
H2573 H 0.89761 0.36867 0.52114 0.0
C2574 C 0.89108 0.39179 0.43425 0.0
C2575 C 0.88664 0.4094 0.42033 0.0
C2576 C 0.87998 0.42894 0.43044 0.0
C2577 C 0.87826 0.43113 0.45359 0.0
C2578 C 0.88308 0.41359 0.46682 0.0
C2579 C 0.88914 0.39419 0.45735 0.0
C2580 C 0.89387 0.37787 0.47505 0.0
C2581 C 0.87746 0.35689 0.4727 0.0
C2582 C 0.9182 0.37223 0.47429 0.0
C2583 C 0.8898 0.39108 0.49595 0.0
C2584 C 0.88363 0.4117 0.49103 0.0
C2585 C 0.87997 0.42695 0.50799 0.0
C2586 C 0.88283 0.42104 0.53031 0.0
C2587 C 0.88916 0.39993 0.53574 0.0
C2588 C 0.89243 0.38488 0.518 0.0
H2589 H 0.1348 0.6515 0.5208 0.0
H2590 H 0.16757 0.59346 0.5374 0.0
H2591 H 0.17368 0.58651 0.49761 0.0
H2592 H 0.1061 0.62835 0.47201 0.0
H2593 H 0.109 0.65382 0.45734 0.0
H2594 H 0.10814 0.65446 0.48695 0.0
H2595 H 0.1459 0.67883 0.48903 0.0
H2596 H 0.14691 0.67818 0.4594 0.0
H2597 H 0.16972 0.66936 0.47559 0.0
H2598 H 0.17502 0.58553 0.45468 0.0
H2599 H 0.17087 0.58997 0.41446 0.0
H2600 H 0.13713 0.64878 0.42607 0.0
C2601 C 0.14349 0.63736 0.51626 0.0
C2602 C 0.15085 0.62312 0.53268 0.0
C2603 C 0.16185 0.60474 0.52549 0.0
C2604 C 0.16538 0.60068 0.5028 0.0
C2605 C 0.1578 0.61505 0.48718 0.0
C2606 C 0.14702 0.63302 0.49373 0.0
C2607 C 0.13981 0.64569 0.47382 0.0
C2608 C 0.11425 0.64557 0.47246 0.0
C2609 C 0.15127 0.66942 0.47451 0.0
C2610 C 0.14822 0.63216 0.45489 0.0
C2611 C 0.15857 0.61453 0.4629 0.0
C2612 C 0.16706 0.59939 0.44843 0.0
C2613 C 0.16468 0.60211 0.42546 0.0
C2614 C 0.15394 0.61991 0.41673 0.0
C2615 C 0.14583 0.63521 0.43192 0.0
H2616 H 0.3134 0.12138 0.40103 0.0
H2617 H 0.32913 0.18175 0.36582 0.0
H2618 H 0.28879 0.18402 0.35826 0.0
H2619 H 0.2694 0.09915 0.36281 0.0
H2620 H 0.25221 0.08613 0.38364 0.0
H2621 H 0.28208 0.09008 0.38775 0.0
H2622 H 0.27732 0.11129 0.42451 0.0
H2623 H 0.24744 0.10729 0.42055 0.0
H2624 H 0.26122 0.13477 0.42478 0.0
H2625 H 0.24566 0.18047 0.35605 0.0
H2626 H 0.20487 0.16957 0.35619 0.0
H2627 H 0.21694 0.10908 0.38859 0.0
C2628 C 0.30832 0.13526 0.39201 0.0
C2629 C 0.32464 0.15171 0.38446 0.0
C2630 C 0.31714 0.16913 0.37206 0.0
C2631 C 0.29416 0.17053 0.36767 0.0
C2632 C 0.27855 0.15404 0.37522 0.0
C2633 C 0.28538 0.13653 0.38686 0.0
C2634 C 0.26532 0.12025 0.39192 0.0
C2635 C 0.26738 0.09756 0.38087 0.0
C2636 C 0.26267 0.11829 0.41693 0.0
C2637 C 0.24612 0.13137 0.38153 0.0
C2638 C 0.25409 0.15105 0.37229 0.0
C2639 C 0.2394 0.16489 0.36292 0.0
C2640 C 0.21618 0.15855 0.36301 0.0
C2641 C 0.20756 0.13819 0.3718 0.0
C2642 C 0.22293 0.12443 0.38109 0.0
H2643 H 0.394 0.70166 0.88837 0.0
H2644 H 0.33549 0.67765 0.84882 0.0
H2645 H 0.32388 0.71571 0.84824 0.0
H2646 H 0.36969 0.7406 0.92135 0.0
H2647 H 0.39323 0.76133 0.92168 0.0
H2648 H 0.39749 0.73258 0.91807 0.0
H2649 H 0.41779 0.74072 0.88164 0.0
H2650 H 0.4141 0.76959 0.88544 0.0
H2651 H 0.40424 0.75509 0.86033 0.0
H2652 H 0.31683 0.75721 0.85571 0.0
H2653 H 0.31902 0.79761 0.86375 0.0
H2654 H 0.38351 0.79475 0.89607 0.0
C2655 C 0.37905 0.70446 0.87902 0.0
C2656 C 0.36588 0.68641 0.86833 0.0
C2657 C 0.34623 0.69102 0.85668 0.0
C2658 C 0.33933 0.71267 0.85657 0.0
C2659 C 0.35236 0.7299 0.86789 0.0
C2660 C 0.3722 0.72605 0.87834 0.0
C2661 C 0.38357 0.74736 0.88889 0.0
C2662 C 0.38614 0.74533 0.91398 0.0
C2663 C 0.40627 0.75356 0.87845 0.0
C2664 C 0.36696 0.76382 0.88311 0.0
C2665 C 0.34884 0.75344 0.87129 0.0
C2666 C 0.33112 0.76537 0.86478 0.0
C2667 C 0.33233 0.78838 0.86971 0.0
C2668 C 0.35128 0.79962 0.88081 0.0
C2669 C 0.36863 0.78684 0.88776 0.0
H2670 H 0.71027 0.87387 0.38481 0.0
H2671 H 0.70323 0.92883 0.43014 0.0
H2672 H 0.7436 0.93976 0.42881 0.0
H2673 H 0.76414 0.86085 0.40969 0.0
H2674 H 0.77549 0.85291 0.38382 0.0
H2675 H 0.74576 0.8494 0.38757 0.0
H2676 H 0.73986 0.87258 0.35318 0.0
H2677 H 0.76958 0.87634 0.34946 0.0
H2678 H 0.75395 0.90004 0.35187 0.0
H2679 H 0.78424 0.94712 0.42039 0.0
H2680 H 0.82373 0.94658 0.41112 0.0
H2681 H 0.8078 0.88443 0.37494 0.0
C2682 C 0.71728 0.88807 0.39461 0.0
C2683 C 0.70318 0.90046 0.40763 0.0
C2684 C 0.71333 0.91887 0.42019 0.0
C2685 C 0.73638 0.92537 0.41941 0.0
C2686 C 0.74969 0.91308 0.40637 0.0
C2687 C 0.74071 0.89444 0.39464 0.0
C2688 C 0.75938 0.88364 0.38299 0.0
C2689 C 0.7613 0.86031 0.39153 0.0
C2690 C 0.75545 0.88312 0.35788 0.0
C2691 C 0.78005 0.89931 0.38977 0.0
C2692 C 0.77379 0.9164 0.4029 0.0
C2693 C 0.78933 0.93362 0.41039 0.0
C2694 C 0.81186 0.93324 0.40484 0.0
C2695 C 0.81927 0.91552 0.39227 0.0
C2696 C 0.80292 0.89825 0.38463 0.0
H2697 H 0.62625 0.21017 0.91698 0.0
H2698 H 0.67235 0.19714 0.86572 0.0
H2699 H 0.67427 0.23647 0.85536 0.0
H2700 H 0.59591 0.24756 0.889 0.0
H2701 H 0.59308 0.26594 0.91227 0.0
H2702 H 0.59628 0.23722 0.91656 0.0
H2703 H 0.63075 0.24782 0.94225 0.0
H2704 H 0.62727 0.27659 0.93855 0.0
H2705 H 0.65357 0.26619 0.93263 0.0
H2706 H 0.66712 0.27729 0.84775 0.0
H2707 H 0.65866 0.31642 0.84906 0.0
H2708 H 0.61998 0.30362 0.90738 0.0
C2709 C 0.63737 0.21573 0.90406 0.0
C2710 C 0.64949 0.20039 0.89245 0.0
C2711 C 0.66339 0.20846 0.87531 0.0
C2712 C 0.66427 0.23081 0.86907 0.0
C2713 C 0.65148 0.24526 0.88034 0.0
C2714 C 0.63888 0.23812 0.898 0.0
C2715 C 0.62706 0.25698 0.9078 0.0
C2716 C 0.60157 0.25159 0.90631 0.0
C2717 C 0.63515 0.26221 0.93172 0.0
C2718 C 0.63461 0.2758 0.89275 0.0
C2719 C 0.64835 0.26865 0.87672 0.0
C2720 C 0.65659 0.28298 0.86045 0.0
C2721 C 0.65141 0.30521 0.86111 0.0
C2722 C 0.63841 0.31327 0.87813 0.0
C2723 C 0.62977 0.29808 0.89398 0.0
H2724 H 0.33033 0.8816 0.66815 0.0
H2725 H 0.33755 0.87264 0.59771 0.0
H2726 H 0.29747 0.87788 0.59201 0.0
H2727 H 0.27508 0.85213 0.67056 0.0
H2728 H 0.2658 0.87022 0.69165 0.0
H2729 H 0.29497 0.86619 0.69004 0.0
H2730 H 0.30462 0.90842 0.68768 0.0
H2731 H 0.27545 0.91257 0.68903 0.0
H2732 H 0.29162 0.92326 0.66637 0.0
H2733 H 0.25659 0.8851 0.59398 0.0
H2734 H 0.21771 0.88943 0.60297 0.0
H2735 H 0.23553 0.89238 0.6727 0.0
C2736 C 0.32355 0.8807 0.65145 0.0
C2737 C 0.33744 0.87676 0.6333 0.0
C2738 C 0.32755 0.87555 0.61187 0.0
C2739 C 0.30473 0.87865 0.60851 0.0
C2740 C 0.29172 0.88277 0.62672 0.0
C2741 C 0.30072 0.88349 0.64783 0.0
C2742 C 0.2829 0.88742 0.66465 0.0
C2743 C 0.27949 0.86782 0.68014 0.0
C2744 C 0.28902 0.90921 0.67771 0.0
C2745 C 0.26233 0.88886 0.64977 0.0
C2746 C 0.268 0.88634 0.62794 0.0
C2747 C 0.25209 0.88696 0.61102 0.0
C2748 C 0.22988 0.88952 0.6164 0.0
C2749 C 0.22311 0.89134 0.63861 0.0
C2750 C 0.2399 0.89139 0.65554 0.0
H2751 H 0.65759 0.75882 0.10468 0.0
H2752 H 0.63045 0.75251 0.16992 0.0
H2753 H 0.63226 0.79324 0.17385 0.0
H2754 H 0.69464 0.80974 0.11501 0.0
H2755 H 0.68862 0.82129 0.08874 0.0
H2756 H 0.68689 0.79174 0.0915 0.0
H2757 H 0.64619 0.7883 0.07633 0.0
H2758 H 0.6478 0.81782 0.07348 0.0
H2759 H 0.62604 0.80398 0.08942 0.0
H2760 H 0.63713 0.83492 0.17096 0.0
H2761 H 0.64095 0.87384 0.16056 0.0
H2762 H 0.66219 0.85475 0.09562 0.0
C2763 C 0.65236 0.76604 0.11994 0.0
C2764 C 0.64424 0.75221 0.13723 0.0
C2765 C 0.63693 0.7625 0.15657 0.0
C2766 C 0.63794 0.78573 0.15893 0.0
C2767 C 0.64589 0.79883 0.14164 0.0
C2768 C 0.65271 0.78938 0.12236 0.0
C2769 C 0.65908 0.80735 0.10577 0.0
C2770 C 0.68378 0.80754 0.09991 0.0
C2771 C 0.64387 0.80417 0.08502 0.0
C2772 C 0.65488 0.82837 0.11874 0.0
C2773 C 0.64756 0.82293 0.1395 0.0
C2774 C 0.64275 0.83925 0.1547 0.0
C2775 C 0.64508 0.86152 0.14856 0.0
C2776 C 0.65191 0.86785 0.12718 0.0
C2777 C 0.65702 0.85079 0.11212 0.0
H2778 H 0.81709 0.12653 0.61833 0.0
H2779 H 0.82965 0.11146 0.6867 0.0
H2780 H 0.78993 0.11542 0.6944 0.0
H2781 H 0.78005 0.16804 0.62854 0.0
H2782 H 0.76203 0.16045 0.6049 0.0
H2783 H 0.79102 0.15548 0.60445 0.0
H2784 H 0.7799 0.11407 0.59529 0.0
H2785 H 0.75087 0.11895 0.59545 0.0
H2786 H 0.76099 0.09833 0.61288 0.0
H2787 H 0.74861 0.12168 0.69468 0.0
H2788 H 0.70938 0.12804 0.68779 0.0
H2789 H 0.72302 0.14026 0.61914 0.0
C2790 C 0.81156 0.12376 0.63495 0.0
C2791 C 0.82685 0.11842 0.6519 0.0
C2792 C 0.81856 0.11529 0.67336 0.0
C2793 C 0.79594 0.11765 0.67788 0.0
C2794 C 0.78159 0.12329 0.66086 0.0
C2795 C 0.78908 0.1262 0.63977 0.0
C2796 C 0.77032 0.13247 0.62444 0.0
C2797 C 0.77621 0.15548 0.61503 0.0
C2798 C 0.76522 0.11491 0.60592 0.0
C2799 C 0.75095 0.13265 0.64014 0.0
C2800 C 0.75792 0.12727 0.66107 0.0
C2801 C 0.74313 0.1259 0.67836 0.0
C2802 C 0.72073 0.12962 0.67422 0.0
C2803 C 0.7128 0.13487 0.65293 0.0
C2804 C 0.7284 0.13669 0.63569 0.0
H2805 H 0.40714 0.17714 0.12623 0.0
H2806 H 0.34841 0.16545 0.08332 0.0
H2807 H 0.34299 0.20524 0.08608 0.0
H2808 H 0.38744 0.22035 0.16167 0.0
H2809 H 0.41415 0.23655 0.16368 0.0
H2810 H 0.41277 0.207 0.15952 0.0
H2811 H 0.43639 0.21222 0.12468 0.0
H2812 H 0.43787 0.24176 0.12876 0.0
H2813 H 0.42725 0.22918 0.10297 0.0
H2814 H 0.34387 0.24679 0.09343 0.0
H2815 H 0.35233 0.2865 0.10201 0.0
H2816 H 0.41201 0.27299 0.13865 0.0
C2817 C 0.39296 0.18288 0.1176 0.0
C2818 C 0.37799 0.16778 0.10472 0.0
C2819 C 0.36002 0.17635 0.09338 0.0
C2820 C 0.3568 0.19905 0.0949 0.0
C2821 C 0.37184 0.21342 0.10761 0.0
C2822 C 0.38973 0.20571 0.11862 0.0
C2823 C 0.4041 0.22494 0.13019 0.0
C2824 C 0.40465 0.22203 0.15525 0.0
C2825 C 0.42781 0.22715 0.12111 0.0
C2826 C 0.39155 0.24468 0.12401 0.0
C2827 C 0.37284 0.23751 0.11117 0.0
C2828 C 0.35851 0.25246 0.10343 0.0
C2829 C 0.36348 0.27518 0.10852 0.0
C2830 C 0.38284 0.28335 0.12116 0.0
C2831 C 0.39697 0.26759 0.12911 0.0
H2832 H 0.16532 0.42558 0.25225 0.0
H2833 H 0.12883 0.36062 0.24556 0.0
H2834 H 0.13021 0.35728 0.28605 0.0
H2835 H 0.20097 0.41472 0.29992 0.0
H2836 H 0.19916 0.44141 0.31294 0.0
H2837 H 0.19684 0.43825 0.28336 0.0
H2838 H 0.15883 0.45468 0.28367 0.0
H2839 H 0.16105 0.45792 0.31322 0.0
H2840 H 0.1369 0.44241 0.30046 0.0
H2841 H 0.13507 0.36096 0.32763 0.0
H2842 H 0.14035 0.37209 0.36672 0.0
H2843 H 0.17198 0.43592 0.3482 0.0
C2844 C 0.15793 0.41049 0.25929 0.0
C2845 C 0.14723 0.39315 0.24539 0.0
C2846 C 0.13727 0.37403 0.25555 0.0
C2847 C 0.138 0.37199 0.27866 0.0
C2848 C 0.14849 0.38935 0.29182 0.0
C2849 C 0.15812 0.40835 0.28253 0.0
C2850 C 0.16713 0.42505 0.30064 0.0
C2851 C 0.19254 0.43016 0.29912 0.0
C2852 C 0.15527 0.44627 0.29942 0.0
C2853 C 0.16109 0.4125 0.32154 0.0
C2854 C 0.15055 0.39183 0.31592 0.0
C2855 C 0.14328 0.37713 0.33211 0.0
C2856 C 0.14644 0.38367 0.35446 0.0
C2857 C 0.15668 0.40495 0.36101 0.0
C2858 C 0.16427 0.41948 0.34406 0.0
H2859 H 0.14325 0.59213 0.67795 0.0
H2860 H 0.15273 0.66213 0.66491 0.0
H2861 H 0.1498 0.67079 0.70461 0.0
H2862 H 0.10248 0.59613 0.71936 0.0
H2863 H 0.11235 0.57505 0.73636 0.0
H2864 H 0.11652 0.5742 0.7071 0.0
H2865 H 0.15905 0.5736 0.71388 0.0
H2866 H 0.15497 0.57421 0.74317 0.0
H2867 H 0.17405 0.59491 0.73109 0.0
H2868 H 0.14457 0.67195 0.7469 0.0
H2869 H 0.13888 0.66512 0.78659 0.0
H2870 H 0.13197 0.59456 0.77214 0.0
C2871 C 0.14518 0.60928 0.68346 0.0
C2872 C 0.14857 0.6264 0.66798 0.0
C2873 C 0.15039 0.64861 0.67616 0.0
C2874 C 0.14864 0.65374 0.69883 0.0
C2875 C 0.14491 0.63656 0.71356 0.0
C2876 C 0.14331 0.61474 0.70616 0.0
C2877 C 0.13871 0.59936 0.72533 0.0
C2878 C 0.11618 0.58536 0.72182 0.0
C2879 C 0.15783 0.58465 0.72856 0.0
C2880 C 0.13795 0.61584 0.74459 0.0
C2881 C 0.14158 0.63725 0.73753 0.0
C2882 C 0.14171 0.65518 0.75249 0.0
C2883 C 0.13835 0.65116 0.77513 0.0
C2884 C 0.13477 0.62933 0.7829 0.0
C2885 C 0.13446 0.61154 0.76708 0.0
H2886 H 0.9093 0.66496 0.25378 0.0
H2887 H 0.88304 0.59736 0.23767 0.0
H2888 H 0.88072 0.58936 0.27699 0.0
H2889 H 0.94259 0.65119 0.30329 0.0
H2890 H 0.93672 0.67558 0.31867 0.0
H2891 H 0.93765 0.67599 0.28905 0.0
H2892 H 0.89784 0.68856 0.2875 0.0
H2893 H 0.89671 0.68795 0.31709 0.0
H2894 H 0.87543 0.67217 0.30034 0.0
H2895 H 0.87798 0.58887 0.31854 0.0
H2896 H 0.87901 0.59549 0.35903 0.0
H2897 H 0.90817 0.66256 0.34956 0.0
C2898 C 0.90361 0.64836 0.25854 0.0
C2899 C 0.89639 0.63183 0.24225 0.0
C2900 C 0.88864 0.61044 0.24953 0.0
C2901 C 0.88718 0.60566 0.27198 0.0
C2902 C 0.89366 0.62231 0.28757 0.0
C2903 C 0.90207 0.64317 0.28125 0.0
C2904 C 0.90752 0.65801 0.30168 0.0
C2905 C 0.93262 0.66564 0.30326 0.0
C2906 C 0.89354 0.67785 0.30164 0.0
C2907 C 0.90066 0.64231 0.32018 0.0
C2908 C 0.89257 0.62182 0.31164 0.0
C2909 C 0.88453 0.60483 0.32541 0.0
C2910 C 0.88506 0.60874 0.34848 0.0
C2911 C 0.89376 0.62944 0.35781 0.0
C2912 C 0.90156 0.6464 0.3432 0.0
H2913 H 0.90462 0.41938 0.77812 0.0
H2914 H 0.89661 0.34848 0.78658 0.0
H2915 H 0.89471 0.34288 0.74594 0.0
H2916 H 0.86706 0.42076 0.73182 0.0
H2917 H 0.88366 0.44242 0.71826 0.0
H2918 H 0.88512 0.44081 0.74783 0.0
H2919 H 0.92789 0.43959 0.74671 0.0
H2920 H 0.92662 0.44143 0.71716 0.0
H2921 H 0.93917 0.41892 0.72968 0.0
H2922 H 0.89242 0.34531 0.70344 0.0
H2923 H 0.89238 0.35503 0.66424 0.0
H2924 H 0.90212 0.4246 0.68309 0.0
C2925 C 0.90268 0.40258 0.77155 0.0
C2926 C 0.90087 0.38433 0.78597 0.0
C2927 C 0.89824 0.36277 0.77624 0.0
C2928 C 0.89701 0.35945 0.75304 0.0
C2929 C 0.89849 0.37782 0.73945 0.0
C2930 C 0.90148 0.39899 0.74844 0.0
C2931 C 0.90262 0.41601 0.73031 0.0
C2932 C 0.88347 0.43088 0.73217 0.0
C2933 C 0.92543 0.4298 0.73101 0.0
C2934 C 0.89971 0.40123 0.7096 0.0
C2935 C 0.89728 0.37923 0.71527 0.0
C2936 C 0.89435 0.3625 0.699 0.0
C2937 C 0.89426 0.36825 0.67661 0.0
C2938 C 0.89708 0.39065 0.67016 0.0
C2939 C 0.89968 0.40732 0.68716 0.0
H2940 H 0.72893 0.88728 0.66278 0.0
H2941 H 0.72646 0.85499 0.59827 0.0
H2942 H 0.76772 0.86023 0.5973 0.0
H2943 H 0.77775 0.92729 0.65491 0.0
H2944 H 0.78924 0.92448 0.68225 0.0
H2945 H 0.7595 0.92004 0.67726 0.0
H2946 H 0.75893 0.88119 0.69369 0.0
H2947 H 0.78865 0.88551 0.69877 0.0
H2948 H 0.77683 0.86179 0.68261 0.0
H2949 H 0.80945 0.8688 0.60324 0.0
H2950 H 0.84829 0.87635 0.61664 0.0
H2951 H 0.82546 0.90067 0.67912 0.0
C2952 C 0.73708 0.88169 0.64827 0.0
C2953 C 0.72421 0.8711 0.6303 0.0
C2954 C 0.73572 0.86336 0.61205 0.0
C2955 C 0.75924 0.86631 0.61138 0.0
C2956 C 0.7714 0.87666 0.62932 0.0
C2957 C 0.76075 0.88399 0.64759 0.0
C2958 C 0.77798 0.89306 0.66531 0.0
C2959 C 0.77599 0.91768 0.67022 0.0
C2960 C 0.77544 0.87958 0.68634 0.0
C2961 C 0.79997 0.88974 0.65416 0.0
C2962 C 0.79562 0.88053 0.63327 0.0
C2963 C 0.81294 0.87594 0.6196 0.0
C2964 C 0.83515 0.88041 0.62744 0.0
C2965 C 0.84041 0.88922 0.64904 0.0
C2966 C 0.82232 0.89411 0.66249 0.0
H2967 H 0.64122 0.26047 0.08738 0.0
H2968 H 0.64971 0.2491 0.15702 0.0
H2969 H 0.65181 0.28927 0.16495 0.0
H2970 H 0.67862 0.31347 0.08689 0.0
H2971 H 0.66094 0.32567 0.06723 0.0
H2972 H 0.66214 0.29618 0.06685 0.0
H2973 H 0.61924 0.29057 0.0703 0.0
H2974 H 0.61796 0.32004 0.07106 0.0
H2975 H 0.60638 0.30356 0.09305 0.0
H2976 H 0.64904 0.33112 0.16592 0.0
H2977 H 0.64596 0.3708 0.15911 0.0
H2978 H 0.64052 0.35591 0.0889 0.0
C2979 C 0.64445 0.26652 0.10417 0.0
C2980 C 0.64604 0.25143 0.12153 0.0
C2981 C 0.64911 0.26019 0.14337 0.0
C2982 C 0.65009 0.28308 0.14808 0.0
C2983 C 0.64793 0.29748 0.13079 0.0
C2984 C 0.64556 0.28958 0.10919 0.0
C2985 C 0.64293 0.30868 0.09379 0.0
C2986 C 0.66231 0.31115 0.07774 0.0
C2987 C 0.62028 0.30551 0.08132 0.0
C2988 C 0.64398 0.32835 0.11006 0.0
C2989 C 0.64669 0.32152 0.13136 0.0
C2990 C 0.6472 0.33662 0.14922 0.0
C2991 C 0.64529 0.35921 0.14524 0.0
C2992 C 0.64312 0.36683 0.12351 0.0
C2993 C 0.64237 0.35091 0.10578 0.0
H2994 H 0.22219 0.14988 0.62567 0.0
H2995 H 0.21728 0.09648 0.67174 0.0
H2996 H 0.25801 0.09406 0.66945 0.0
H2997 H 0.26663 0.13127 0.59183 0.0
H2998 H 0.28061 0.1586 0.58902 0.0
H2999 H 0.25087 0.15498 0.59271 0.0
H3000 H 0.2552 0.18172 0.62662 0.0
H3001 H 0.28493 0.18546 0.62301 0.0
H3002 H 0.27399 0.17636 0.64898 0.0
H3003 H 0.29957 0.09707 0.66171 0.0
H3004 H 0.33881 0.10786 0.65319 0.0
H3005 H 0.31864 0.16219 0.61489 0.0
C3006 C 0.22966 0.13744 0.63501 0.0
C3007 C 0.21626 0.12298 0.64858 0.0
C3008 C 0.22695 0.10751 0.66107 0.0
C3009 C 0.25015 0.10602 0.65982 0.0
C3010 C 0.26286 0.1205 0.64638 0.0
C3011 C 0.25304 0.13618 0.63446 0.0
C3012 C 0.27085 0.15087 0.62266 0.0
C3013 C 0.26701 0.1488 0.59756 0.0
C3014 C 0.27126 0.17504 0.63081 0.0
C3015 C 0.29221 0.14096 0.6297 0.0
C3016 C 0.28705 0.1232 0.64307 0.0
C3017 C 0.3037 0.11103 0.65135 0.0
C3018 C 0.32611 0.11728 0.64625 0.0
C3019 C 0.33222 0.13591 0.63324 0.0
C3020 C 0.31478 0.14783 0.62479 0.0
H3021 H 0.41636 0.77231 0.13148 0.0
H3022 H 0.36116 0.78374 0.08738 0.0
H3023 H 0.35227 0.74318 0.08243 0.0
H3024 H 0.43358 0.72474 0.10193 0.0
H3025 H 0.44079 0.7107 0.1265 0.0
H3026 H 0.44264 0.74044 0.12662 0.0
H3027 H 0.4166 0.74026 0.15986 0.0
H3028 H 0.41454 0.7105 0.15979 0.0
H3029 H 0.3896 0.72457 0.15791 0.0
H3030 H 0.3492 0.70101 0.08268 0.0
H3031 H 0.35283 0.66144 0.08605 0.0
H3032 H 0.41062 0.67626 0.12989 0.0
C3033 C 0.40236 0.76641 0.1207 0.0
C3034 C 0.38944 0.78163 0.1098 0.0
C3035 C 0.37138 0.77278 0.09589 0.0
C3036 C 0.36618 0.74965 0.09306 0.0
C3037 C 0.37917 0.73529 0.10418 0.0
C3038 C 0.39699 0.74337 0.11764 0.0
C3039 C 0.40851 0.72438 0.12752 0.0
C3040 C 0.43282 0.72511 0.1202 0.0
C3041 C 0.40723 0.72497 0.15277 0.0
C3042 C 0.39444 0.7042 0.11752 0.0
C3043 C 0.37755 0.71101 0.10419 0.0
C3044 C 0.36241 0.69566 0.09303 0.0
C3045 C 0.36469 0.67299 0.09513 0.0
C3046 C 0.38205 0.6652 0.10827 0.0
C3047 C 0.39701 0.6813 0.11986 0.0
H3048 H 0.7203 0.14319 0.36639 0.0
H3049 H 0.70719 0.1559 0.43526 0.0
H3050 H 0.74728 0.15417 0.44436 0.0
H3051 H 0.76059 0.10436 0.37502 0.0
H3052 H 0.77816 0.11378 0.35285 0.0
H3053 H 0.7487 0.1168 0.35142 0.0
H3054 H 0.75709 0.15878 0.34596 0.0
H3055 H 0.78659 0.15589 0.3472 0.0
H3056 H 0.77496 0.17509 0.36568 0.0
H3057 H 0.78857 0.14993 0.44623 0.0
H3058 H 0.82803 0.14534 0.44128 0.0
H3059 H 0.81602 0.13515 0.3708 0.0
C3060 C 0.72581 0.14586 0.38342 0.0
C3061 C 0.71024 0.14984 0.40012 0.0
C3062 C 0.71848 0.15302 0.42212 0.0
C3063 C 0.74132 0.15196 0.42744 0.0
C3064 C 0.75599 0.14771 0.41064 0.0
C3065 C 0.74861 0.14485 0.38903 0.0
C3066 C 0.76792 0.14033 0.37414 0.0
C3067 C 0.76357 0.11746 0.36268 0.0
C3068 C 0.77187 0.15861 0.35724 0.0
C3069 C 0.78742 0.14098 0.39076 0.0
C3070 C 0.77996 0.14526 0.41169 0.0
C3071 C 0.79449 0.14669 0.42989 0.0
C3072 C 0.81712 0.14404 0.42679 0.0
C3073 C 0.82569 0.13994 0.40557 0.0
C3074 C 0.81033 0.13817 0.38726 0.0
H3075 H 0.3348 0.29014 0.86091 0.0
H3076 H 0.39817 0.30775 0.89546 0.0
H3077 H 0.40115 0.26852 0.90285 0.0
H3078 H 0.31489 0.24659 0.89721 0.0
H3079 H 0.30182 0.2285 0.87572 0.0
H3080 H 0.3046 0.25797 0.87226 0.0
H3081 H 0.32538 0.253 0.83598 0.0
H3082 H 0.32249 0.2235 0.83923 0.0
H3083 H 0.34974 0.23797 0.83601 0.0
H3084 H 0.39749 0.2269 0.90722 0.0
H3085 H 0.38802 0.18651 0.90705 0.0
H3086 H 0.32669 0.19403 0.87033 0.0
C3087 C 0.34946 0.28574 0.86978 0.0
C3088 C 0.36637 0.30251 0.87738 0.0
C3089 C 0.38501 0.29564 0.88923 0.0
C3090 C 0.38684 0.27321 0.89362 0.0
C3091 C 0.3699 0.25725 0.88621 0.0
C3092 C 0.35157 0.26315 0.87443 0.0
C3093 C 0.33569 0.24246 0.86858 0.0
C3094 C 0.3129 0.24398 0.87907 0.0
C3095 C 0.33318 0.23903 0.84346 0.0
C3096 C 0.34793 0.22414 0.8789 0.0
C3097 C 0.36765 0.23316 0.88898 0.0
C3098 C 0.38204 0.21975 0.8994 0.0
C3099 C 0.37643 0.19665 0.89929 0.0
C3100 C 0.35644 0.18665 0.88896 0.0
C3101 C 0.34194 0.20088 0.87875 0.0
H3102 H 0.20987 0.88098 0.37821 0.0
H3103 H 0.2073 0.94472 0.41082 0.0
H3104 H 0.24805 0.94655 0.41911 0.0
H3105 H 0.24968 0.85984 0.41346 0.0
H3106 H 0.26418 0.84666 0.39198 0.0
H3107 H 0.23509 0.85056 0.38817 0.0
H3108 H 0.24354 0.87175 0.3524 0.0
H3109 H 0.27256 0.86738 0.35579 0.0
H3110 H 0.26457 0.895 0.35303 0.0
H3111 H 0.28959 0.93917 0.42692 0.0
H3112 H 0.32801 0.92771 0.42619 0.0
H3113 H 0.304 0.87049 0.38551 0.0
C3114 C 0.21798 0.89561 0.38662 0.0
C3115 C 0.20522 0.91288 0.39359 0.0
C3116 C 0.21659 0.93152 0.40485 0.0
C3117 C 0.23977 0.93251 0.40991 0.0
C3118 C 0.25169 0.91491 0.40332 0.0
C3119 C 0.2412 0.89712 0.39128 0.0
C3120 C 0.25781 0.88072 0.38528 0.0
C3121 C 0.25129 0.85811 0.39532 0.0
C3122 C 0.25974 0.87859 0.36014 0.0
C3123 C 0.27928 0.89181 0.396 0.0
C3124 C 0.27538 0.9113 0.40675 0.0
C3125 C 0.2927 0.92401 0.41835 0.0
C3126 C 0.31452 0.91718 0.41816 0.0
C3127 C 0.31921 0.89797 0.40613 0.0
C3128 C 0.30108 0.88507 0.39518 0.0
H3129 H 0.6578 0.70621 0.89804 0.0
H3130 H 0.60985 0.69686 0.84352 0.0
H3131 H 0.60575 0.73704 0.84459 0.0
H3132 H 0.63379 0.75062 0.92759 0.0
H3133 H 0.66029 0.76582 0.93469 0.0
H3134 H 0.6584 0.73622 0.93079 0.0
H3135 H 0.68889 0.7403 0.9015 0.0
H3136 H 0.69095 0.7699 0.90537 0.0
H3137 H 0.68524 0.75762 0.87828 0.0
H3138 H 0.60584 0.7785 0.85254 0.0
H3139 H 0.61365 0.81796 0.86265 0.0
H3140 H 0.66506 0.80241 0.90938 0.0
C3141 C 0.64626 0.71261 0.88646 0.0
C3142 C 0.63378 0.69809 0.8709 0.0
C3143 C 0.61941 0.70739 0.85569 0.0
C3144 C 0.61695 0.73028 0.85624 0.0
C3145 C 0.62942 0.74409 0.87175 0.0
C3146 C 0.64416 0.73566 0.88632 0.0
C3147 C 0.65679 0.75442 0.90021 0.0
C3148 C 0.65203 0.7516 0.92478 0.0
C3149 C 0.68196 0.75563 0.89609 0.0
C3150 C 0.64673 0.77471 0.89138 0.0
C3151 C 0.63067 0.7682 0.87524 0.0
C3152 C 0.6185 0.78366 0.86504 0.0
C3153 C 0.623 0.80622 0.87108 0.0
C3154 C 0.63994 0.81372 0.88696 0.0
C3155 C 0.65195 0.79749 0.89724 0.0
H3156 H 0.91672 0.66666 0.84561 0.0
H3157 H 0.88944 0.60135 0.86459 0.0
H3158 H 0.88199 0.59069 0.82569 0.0
H3159 H 0.87886 0.67237 0.80001 0.0
H3160 H 0.89938 0.68555 0.78223 0.0
H3161 H 0.90322 0.68847 0.81169 0.0
H3162 H 0.94178 0.67336 0.80912 0.0
H3163 H 0.93808 0.6705 0.77962 0.0
H3164 H 0.94388 0.64699 0.79553 0.0
H3165 H 0.87388 0.58763 0.78456 0.0
H3166 H 0.87005 0.59131 0.74417 0.0
H3167 H 0.90551 0.65678 0.74975 0.0
C3168 C 0.90948 0.65002 0.84158 0.0
C3169 C 0.90375 0.63493 0.85865 0.0
C3170 C 0.89416 0.61337 0.85226 0.0
C3171 C 0.88973 0.60708 0.83001 0.0
C3172 C 0.89521 0.62228 0.81373 0.0
C3173 C 0.90527 0.64321 0.81912 0.0
C3174 C 0.90969 0.65609 0.79807 0.0
C3175 C 0.89704 0.67685 0.798 0.0
C3176 C 0.93486 0.66209 0.79543 0.0
C3177 C 0.90027 0.63929 0.78022 0.0
C3178 C 0.89175 0.61998 0.78974 0.0
C3179 C 0.88089 0.60254 0.77693 0.0
C3180 C 0.87874 0.60477 0.75391 0.0
C3181 C 0.88782 0.62408 0.74351 0.0
C3182 C 0.89885 0.64153 0.75702 0.0
H3183 H 0.92772 0.40515 0.27512 0.0
H3184 H 0.86173 0.37604 0.29095 0.0
H3185 H 0.85313 0.36865 0.25111 0.0
H3186 H 0.90943 0.43222 0.22435 0.0
H3187 H 0.93471 0.42795 0.21024 0.0
H3188 H 0.93524 0.43132 0.23981 0.0
H3189 H 0.95241 0.39415 0.2432 0.0
H3190 H 0.95158 0.39047 0.21367 0.0
H3191 H 0.93806 0.36947 0.23056 0.0
H3192 H 0.85346 0.36073 0.20925 0.0
H3193 H 0.85958 0.35904 0.16924 0.0
H3194 H 0.92396 0.39694 0.17936 0.0
C3195 C 0.91124 0.39771 0.27014 0.0
C3196 C 0.89526 0.39146 0.28633 0.0
C3197 C 0.87407 0.38142 0.27903 0.0
C3198 C 0.86916 0.37695 0.25636 0.0
C3199 C 0.88542 0.38295 0.2409 0.0
C3200 C 0.90584 0.39373 0.24747 0.0
C3201 C 0.92018 0.399 0.22748 0.0
C3202 C 0.92519 0.42411 0.22534 0.0
C3203 C 0.94184 0.38759 0.22882 0.0
C3204 C 0.9049 0.38912 0.20859 0.0
C3205 C 0.88507 0.37962 0.21679 0.0
C3206 C 0.86881 0.36845 0.20276 0.0
C3207 C 0.87256 0.3674 0.17992 0.0
C3208 C 0.89227 0.37779 0.17078 0.0
C3209 C 0.90868 0.38879 0.18557 0.0
H3210 H 0.14668 0.4384 0.84719 0.0
H3211 H 0.15366 0.3704 0.86374 0.0
H3212 H 0.15902 0.36145 0.82432 0.0
H3213 H 0.1154 0.42554 0.79573 0.0
H3214 H 0.12823 0.44912 0.78176 0.0
H3215 H 0.12548 0.45031 0.81122 0.0
H3216 H 0.16799 0.46085 0.81596 0.0
H3217 H 0.17092 0.45948 0.78651 0.0
H3218 H 0.18707 0.44316 0.80399 0.0
H3219 H 0.16465 0.36002 0.7832 0.0
H3220 H 0.1661 0.36451 0.74327 0.0
H3221 H 0.15381 0.43335 0.75147 0.0
C3222 C 0.14934 0.42158 0.84257 0.0
C3223 C 0.14985 0.4051 0.85891 0.0
C3224 C 0.15313 0.38332 0.85184 0.0
C3225 C 0.15632 0.37813 0.8294 0.0
C3226 C 0.15596 0.39479 0.81389 0.0
C3227 C 0.15224 0.41603 0.82011 0.0
C3228 C 0.15181 0.43063 0.79992 0.0
C3229 C 0.12886 0.43942 0.79699 0.0
C3230 C 0.17056 0.44966 0.80171 0.0
C3231 C 0.15598 0.41432 0.78129 0.0
C3232 C 0.15852 0.39382 0.78993 0.0
C3233 C 0.16253 0.37597 0.77636 0.0
C3234 C 0.16336 0.37879 0.75349 0.0
C3235 C 0.16006 0.3993 0.74373 0.0
C3236 C 0.15668 0.41749 0.7581 0.0
H3237 H 0.10689 0.61964 0.26884 0.0
H3238 H 0.17619 0.63544 0.28901 0.0
H3239 H 0.18606 0.64033 0.24981 0.0
H3240 H 0.11842 0.5881 0.21957 0.0
H3241 H 0.09584 0.59702 0.20305 0.0
H3242 H 0.09338 0.59512 0.23248 0.0
H3243 H 0.08568 0.63574 0.23648 0.0
H3244 H 0.08708 0.63832 0.20706 0.0
H3245 H 0.10466 0.65696 0.22503 0.0
H3246 H 0.18734 0.6474 0.20778 0.0
H3247 H 0.18153 0.6492 0.16744 0.0
H3248 H 0.11192 0.62516 0.17404 0.0
C3249 C 0.12425 0.62373 0.26501 0.0
C3250 C 0.1408 0.62699 0.28223 0.0
C3251 C 0.16324 0.63247 0.27631 0.0
C3252 C 0.16893 0.63554 0.25401 0.0
C3253 C 0.1521 0.6327 0.23754 0.0
C3254 C 0.13026 0.62635 0.24281 0.0
C3255 C 0.11535 0.6236 0.22206 0.0
C3256 C 0.10513 0.59953 0.21908 0.0
C3257 C 0.09712 0.63961 0.22271 0.0
C3258 C 0.13205 0.62975 0.20421 0.0
C3259 C 0.15309 0.63534 0.21352 0.0
C3260 C 0.17096 0.64273 0.20044 0.0
C3261 C 0.16743 0.64391 0.17742 0.0
C3262 C 0.14626 0.6374 0.16725 0.0
C3263 C 0.12834 0.63028 0.18108 0.0
loop_
_geom_bond_atom_site_label_1
_geom_bond_atom_site_label_2
_geom_bond_distance
_geom_bond_site_symmetry_2
_ccdc_geom_bond_type
O0 Cd1 2.223 . S
O0 C8 1.315 . S
Cd1 O0 2.223 . S
Cd1 O4 2.297 . S
Cd1 O5 2.439 . S
Cd1 O11 2.240 . S
Cd2 O3 2.240 . S
Cd2 O10 2.223 . S
Cd2 O12 2.297 . S
Cd2 O13 2.439 . S
O3 Cd2 2.240 . S
O3 C8 1.279 . S
O4 Cd1 2.297 . S
O4 C6 1.247 . S
O5 Cd1 2.439 . S
O5 C6 1.208 . S
C6 O4 1.247 . S
C6 O5 1.208 . S
C7 O12 1.247 . S
C7 O13 1.208 . S
C8 O0 1.315 . S
C8 O3 1.279 . S
C9 O10 1.315 . S
C9 O11 1.279 . S
O10 Cd2 2.223 . S
O10 C9 1.315 . S
O11 Cd1 2.240 . S
O11 C9 1.279 . S
O12 Cd2 2.297 . S
O12 C7 1.247 . S
O13 Cd2 2.439 . S
O13 C7 1.208 . S
O14 Cd15 2.223 . S
O14 C22 1.315 . S
Cd15 O14 2.223 . S
Cd15 O18 2.297 . S
Cd15 O19 2.439 . S
Cd15 O25 2.240 . S
Cd16 O17 2.240 . S
Cd16 O24 2.223 . S
Cd16 O26 2.297 . S
Cd16 O27 2.439 . S
O17 Cd16 2.240 . S
O17 C22 1.279 . S
O18 Cd15 2.297 . S
O18 C20 1.247 . S
O19 Cd15 2.439 . S
O19 C20 1.208 . S
C20 O18 1.247 . S
C20 O19 1.208 . S
C21 O26 1.247 . S
C21 O27 1.208 . S
C22 O14 1.315 . S
C22 O17 1.279 . S
C23 O24 1.315 . S
C23 O25 1.279 . S
O24 Cd16 2.223 . S
O24 C23 1.315 . S
O25 Cd15 2.240 . S
O25 C23 1.279 . S
O26 Cd16 2.297 . S
O26 C21 1.247 . S
O27 Cd16 2.439 . S
O27 C21 1.208 . S
O28 Cd29 2.223 . S
O28 C36 1.315 . S
Cd29 O28 2.223 . S
Cd29 O32 2.297 . S
Cd29 O33 2.439 . S
Cd29 O39 2.240 . S
Cd30 O31 2.240 . S
Cd30 O38 2.223 . S
Cd30 O40 2.297 . S
Cd30 O41 2.439 . S
O31 Cd30 2.240 . S
O31 C36 1.279 . S
O32 Cd29 2.297 . S
O32 C34 1.247 . S
O33 Cd29 2.439 . S
O33 C34 1.208 . S
C34 O32 1.247 . S
C34 O33 1.208 . S
C35 O40 1.247 . S
C35 O41 1.208 . S
C36 O28 1.315 . S
C36 O31 1.279 . S
C37 O38 1.315 . S
C37 O39 1.279 . S
O38 Cd30 2.223 . S
O38 C37 1.315 . S
O39 Cd29 2.240 . S
O39 C37 1.279 . S
O40 Cd30 2.297 . S
O40 C35 1.247 . S
O41 Cd30 2.439 . S
O41 C35 1.208 . S
O42 Cd43 2.223 . S
O42 C50 1.315 . S
Cd43 O42 2.223 . S
Cd43 O46 2.297 . S
Cd43 O47 2.439 . S
Cd43 O53 2.240 . S
Cd44 O45 2.240 . S
Cd44 O52 2.223 . S
Cd44 O54 2.297 . S
Cd44 O55 2.439 . S
O45 Cd44 2.240 . S
O45 C50 1.279 . S
O46 Cd43 2.297 . S
O46 C48 1.247 . S
O47 Cd43 2.439 . S
O47 C48 1.208 . S
C48 O46 1.247 . S
C48 O47 1.208 . S
C49 O54 1.247 . S
C49 O55 1.208 . S
C50 O42 1.315 . S
C50 O45 1.279 . S
C51 O52 1.315 . S
C51 O53 1.279 . S
O52 Cd44 2.223 . S
O52 C51 1.315 . S
O53 Cd43 2.240 . S
O53 C51 1.279 . S
O54 Cd44 2.297 . S
O54 C49 1.247 . S
O55 Cd44 2.439 . S
O55 C49 1.208 . S
O56 Cd57 2.223 . S
O56 C64 1.315 . S
Cd57 O56 2.223 . S
Cd57 O60 2.297 . S
Cd57 O61 2.439 . S
Cd57 O67 2.240 . S
Cd58 O59 2.240 . S
Cd58 O66 2.223 . S
Cd58 O68 2.297 . S
Cd58 O69 2.439 . S
O59 Cd58 2.240 . S
O59 C64 1.279 . S
O60 Cd57 2.297 . S
O60 C62 1.247 . S
O61 Cd57 2.439 . S
O61 C62 1.208 . S
C62 O60 1.247 . S
C62 O61 1.208 . S
C63 O68 1.247 . S
C63 O69 1.208 . S
C64 O56 1.315 . S
C64 O59 1.279 . S
C65 O66 1.315 . S
C65 O67 1.279 . S
O66 Cd58 2.223 . S
O66 C65 1.315 . S
O67 Cd57 2.240 . S
O67 C65 1.279 . S
O68 Cd58 2.297 . S
O68 C63 1.247 . S
O69 Cd58 2.439 . S
O69 C63 1.208 . S
O70 Cd71 2.223 . S
O70 C78 1.315 . S
Cd71 O70 2.223 . S
Cd71 O74 2.297 . S
Cd71 O75 2.439 . S
Cd71 O81 2.240 . S
Cd72 O73 2.240 . S
Cd72 O80 2.223 . S
Cd72 O82 2.297 . S
Cd72 O83 2.439 . S
O73 Cd72 2.240 . S
O73 C78 1.279 . S
O74 Cd71 2.297 . S
O74 C76 1.247 . S
O75 Cd71 2.439 . S
O75 C76 1.208 . S
C76 O74 1.247 . S
C76 O75 1.208 . S
C77 O82 1.247 . S
C77 O83 1.208 . S
C78 O70 1.315 . S
C78 O73 1.279 . S
C79 O80 1.315 . S
C79 O81 1.279 . S
O80 Cd72 2.223 . S
O80 C79 1.315 . S
O81 Cd71 2.240 . S
O81 C79 1.279 . S
O82 Cd72 2.297 . S
O82 C77 1.247 . S
O83 Cd72 2.439 . S
O83 C77 1.208 . S
O84 Cd85 2.223 . S
O84 C92 1.315 . S
Cd85 O84 2.223 . S
Cd85 O88 2.297 . S
Cd85 O89 2.439 . S
Cd85 O95 2.240 . S
Cd86 O87 2.240 . S
Cd86 O94 2.223 . S
Cd86 O96 2.297 . S
Cd86 O97 2.439 . S
O87 Cd86 2.240 . S
O87 C92 1.279 . S
O88 Cd85 2.297 . S
O88 C90 1.247 . S
O89 Cd85 2.439 . S
O89 C90 1.208 . S
C90 O88 1.247 . S
C90 O89 1.208 . S
C91 O96 1.247 . S
C91 O97 1.208 . S
C92 O84 1.315 . S
C92 O87 1.279 . S
C93 O94 1.315 . S
C93 O95 1.279 . S
O94 Cd86 2.223 . S
O94 C93 1.315 . S
O95 Cd85 2.240 . S
O95 C93 1.279 . S
O96 Cd86 2.297 . S
O96 C91 1.247 . S
O97 Cd86 2.439 . S
O97 C91 1.208 . S
O98 Cd99 2.223 . S
O98 C106 1.315 . S
Cd99 O98 2.223 . S
Cd99 O102 2.297 . S
Cd99 O103 2.439 . S
Cd99 O109 2.240 . S
Cd100 O101 2.240 . S
Cd100 O108 2.223 . S
Cd100 O110 2.297 . S
Cd100 O111 2.439 . S
O101 Cd100 2.240 . S
O101 C106 1.279 . S
O102 Cd99 2.297 . S
O102 C104 1.247 . S
O103 Cd99 2.439 . S
O103 C104 1.208 . S
C104 O102 1.247 . S
C104 O103 1.208 . S
C105 O110 1.247 . S
C105 O111 1.208 . S
C106 O98 1.315 . S
C106 O101 1.279 . S
C107 O108 1.315 . S
C107 O109 1.279 . S
O108 Cd100 2.223 . S
O108 C107 1.315 . S
O109 Cd99 2.240 . S
O109 C107 1.279 . S
O110 Cd100 2.297 . S
O110 C105 1.247 . S
O111 Cd100 2.439 . S
O111 C105 1.208 . S
O112 Cd113 2.223 . S
O112 C120 1.315 . S
Cd113 O112 2.223 . S
Cd113 O116 2.297 . S
Cd113 O117 2.439 . S
Cd113 O123 2.240 . S
Cd114 O115 2.240 . S
Cd114 O122 2.223 . S
Cd114 O124 2.297 . S
Cd114 O125 2.439 . S
O115 Cd114 2.240 . S
O115 C120 1.279 . S
O116 Cd113 2.297 . S
O116 C118 1.247 . S
O117 Cd113 2.439 . S
O117 C118 1.208 . S
C118 O116 1.247 . S
C118 O117 1.208 . S
C119 O124 1.247 . S
C119 O125 1.208 . S
C120 O112 1.315 . S
C120 O115 1.279 . S
C121 O122 1.315 . S
C121 O123 1.279 . S
O122 Cd114 2.223 . S
O122 C121 1.315 . S
O123 Cd113 2.240 . S
O123 C121 1.279 . S
O124 Cd114 2.297 . S
O124 C119 1.247 . S
O125 Cd114 2.439 . S
O125 C119 1.208 . S
O126 Cd127 2.223 . S
O126 C134 1.315 . S
Cd127 O126 2.223 . S
Cd127 O130 2.297 . S
Cd127 O131 2.439 . S
Cd127 O137 2.240 . S
Cd128 O129 2.240 . S
Cd128 O136 2.223 . S
Cd128 O138 2.297 . S
Cd128 O139 2.439 . S
O129 Cd128 2.240 . S
O129 C134 1.279 . S
O130 Cd127 2.297 . S
O130 C132 1.247 . S
O131 Cd127 2.439 . S
O131 C132 1.208 . S
C132 O130 1.247 . S
C132 O131 1.208 . S
C133 O138 1.247 . S
C133 O139 1.208 . S
C134 O126 1.315 . S
C134 O129 1.279 . S
C135 O136 1.315 . S
C135 O137 1.279 . S
O136 Cd128 2.223 . S
O136 C135 1.315 . S
O137 Cd127 2.240 . S
O137 C135 1.279 . S
O138 Cd128 2.297 . S
O138 C133 1.247 . S
O139 Cd128 2.439 . S
O139 C133 1.208 . S
O140 Cd141 2.223 . S
O140 C148 1.315 . S
Cd141 O140 2.223 . S
Cd141 O144 2.297 . S
Cd141 O145 2.439 . S
Cd141 O151 2.240 . S
Cd142 O143 2.240 . S
Cd142 O150 2.223 . S
Cd142 O152 2.297 . S
Cd142 O153 2.439 . S
O143 Cd142 2.240 . S
O143 C148 1.279 . S
O144 Cd141 2.297 . S
O144 C146 1.247 . S
O145 Cd141 2.439 . S
O145 C146 1.208 . S
C146 O144 1.247 . S
C146 O145 1.208 . S
C147 O152 1.247 . S
C147 O153 1.208 . S
C148 O140 1.315 . S
C148 O143 1.279 . S
C149 O150 1.315 . S
C149 O151 1.279 . S
O150 Cd142 2.223 . S
O150 C149 1.315 . S
O151 Cd141 2.240 . S
O151 C149 1.279 . S
O152 Cd142 2.297 . S
O152 C147 1.247 . S
O153 Cd142 2.439 . S
O153 C147 1.208 . S
O154 Cd155 2.223 . S
O154 C162 1.315 . S
Cd155 O154 2.223 . S
Cd155 O158 2.297 . S
Cd155 O159 2.439 . S
Cd155 O165 2.240 . S
Cd156 O157 2.240 . S
Cd156 O164 2.223 . S
Cd156 O166 2.297 . S
Cd156 O167 2.439 . S
O157 Cd156 2.240 . S
O157 C162 1.279 . S
O158 Cd155 2.297 . S
O158 C160 1.247 . S
O159 Cd155 2.439 . S
O159 C160 1.208 . S
C160 O158 1.247 . S
C160 O159 1.208 . S
C161 O166 1.247 . S
C161 O167 1.208 . S
C162 O154 1.315 . S
C162 O157 1.279 . S
C163 O164 1.315 . S
C163 O165 1.279 . S
O164 Cd156 2.223 . S
O164 C163 1.315 . S
O165 Cd155 2.240 . S
O165 C163 1.279 . S
O166 Cd156 2.297 . S
O166 C161 1.247 . S
O167 Cd156 2.439 . S
O167 C161 1.208 . S
O168 Cd169 2.223 . S
O168 C176 1.315 . S
Cd169 O168 2.223 . S
Cd169 O172 2.297 . S
Cd169 O173 2.439 . S
Cd169 O179 2.240 . S
Cd170 O171 2.240 . S
Cd170 O178 2.223 . S
Cd170 O180 2.297 . S
Cd170 O181 2.439 . S
O171 Cd170 2.240 . S
O171 C176 1.279 . S
O172 Cd169 2.297 . S
O172 C174 1.247 . S
O173 Cd169 2.439 . S
O173 C174 1.208 . S
C174 O172 1.247 . S
C174 O173 1.208 . S
C175 O180 1.247 . S
C175 O181 1.208 . S
C176 O168 1.315 . S
C176 O171 1.279 . S
C177 O178 1.315 . S
C177 O179 1.279 . S
O178 Cd170 2.223 . S
O178 C177 1.315 . S
O179 Cd169 2.240 . S
O179 C177 1.279 . S
O180 Cd170 2.297 . S
O180 C175 1.247 . S
O181 Cd170 2.439 . S
O181 C175 1.208 . S
O182 Cd183 2.223 . S
O182 C190 1.315 . S
Cd183 O182 2.223 . S
Cd183 O186 2.297 . S
Cd183 O187 2.439 . S
Cd183 O193 2.240 . S
Cd184 O185 2.240 . S
Cd184 O192 2.223 . S
Cd184 O194 2.297 . S
Cd184 O195 2.439 . S
O185 Cd184 2.240 . S
O185 C190 1.279 . S
O186 Cd183 2.297 . S
O186 C188 1.247 . S
O187 Cd183 2.439 . S
O187 C188 1.208 . S
C188 O186 1.247 . S
C188 O187 1.208 . S
C189 O194 1.247 . S
C189 O195 1.208 . S
C190 O182 1.315 . S
C190 O185 1.279 . S
C191 O192 1.315 . S
C191 O193 1.279 . S
O192 Cd184 2.223 . S
O192 C191 1.315 . S
O193 Cd183 2.240 . S
O193 C191 1.279 . S
O194 Cd184 2.297 . S
O194 C189 1.247 . S
O195 Cd184 2.439 . S
O195 C189 1.208 . S
O196 Cd197 2.223 . S
O196 C204 1.315 . S
Cd197 O196 2.223 . S
Cd197 O200 2.297 . S
Cd197 O201 2.439 . S
Cd197 O207 2.240 . S
Cd198 O199 2.240 . S
Cd198 O206 2.223 . S
Cd198 O208 2.297 . S
Cd198 O209 2.439 . S
O199 Cd198 2.240 . S
O199 C204 1.279 . S
O200 Cd197 2.297 . S
O200 C202 1.247 . S
O201 Cd197 2.439 . S
O201 C202 1.208 . S
C202 O200 1.247 . S
C202 O201 1.208 . S
C203 O208 1.247 . S
C203 O209 1.208 . S
C204 O196 1.315 . S
C204 O199 1.279 . S
C205 O206 1.315 . S
C205 O207 1.279 . S
O206 Cd198 2.223 . S
O206 C205 1.315 . S
O207 Cd197 2.240 . S
O207 C205 1.279 . S
O208 Cd198 2.297 . S
O208 C203 1.247 . S
O209 Cd198 2.439 . S
O209 C203 1.208 . S
O210 Cd211 2.223 . S
O210 C218 1.315 . S
Cd211 O210 2.223 . S
Cd211 O214 2.297 . S
Cd211 O215 2.439 . S
Cd211 O221 2.240 . S
Cd212 O213 2.240 . S
Cd212 O220 2.223 . S
Cd212 O222 2.297 . S
Cd212 O223 2.439 . S
O213 Cd212 2.240 . S
O213 C218 1.279 . S
O214 Cd211 2.297 . S
O214 C216 1.247 . S
O215 Cd211 2.439 . S
O215 C216 1.208 . S
C216 O214 1.247 . S
C216 O215 1.208 . S
C217 O222 1.247 . S
C217 O223 1.208 . S
C218 O210 1.315 . S
C218 O213 1.279 . S
C219 O220 1.315 . S
C219 O221 1.279 . S
O220 Cd212 2.223 . S
O220 C219 1.315 . S
O221 Cd211 2.240 . S
O221 C219 1.279 . S
O222 Cd212 2.297 . S
O222 C217 1.247 . S
O223 Cd212 2.439 . S
O223 C217 1.208 . S
O224 Cd225 2.223 . S
O224 C232 1.315 . S
Cd225 O224 2.223 . S
Cd225 O228 2.297 . S
Cd225 O229 2.439 . S
Cd225 O235 2.240 . S
Cd226 O227 2.240 . S
Cd226 O234 2.223 . S
Cd226 O236 2.297 . S
Cd226 O237 2.439 . S
O227 Cd226 2.240 . S
O227 C232 1.279 . S
O228 Cd225 2.297 . S
O228 C230 1.247 . S
O229 Cd225 2.439 . S
O229 C230 1.208 . S
C230 O228 1.247 . S
C230 O229 1.208 . S
C231 O236 1.247 . S
C231 O237 1.208 . S
C232 O224 1.315 . S
C232 O227 1.279 . S
C233 O234 1.315 . S
C233 O235 1.279 . S
O234 Cd226 2.223 . S
O234 C233 1.315 . S
O235 Cd225 2.240 . S
O235 C233 1.279 . S
O236 Cd226 2.297 . S
O236 C231 1.247 . S
O237 Cd226 2.439 . S
O237 C231 1.208 . S
O238 Cd239 2.223 . S
O238 C246 1.315 . S
Cd239 O238 2.223 . S
Cd239 O242 2.297 . S
Cd239 O243 2.439 . S
Cd239 O249 2.240 . S
Cd240 O241 2.240 . S
Cd240 O248 2.223 . S
Cd240 O250 2.297 . S
Cd240 O251 2.439 . S
O241 Cd240 2.240 . S
O241 C246 1.279 . S
O242 Cd239 2.297 . S
O242 C244 1.247 . S
O243 Cd239 2.439 . S
O243 C244 1.208 . S
C244 O242 1.247 . S
C244 O243 1.208 . S
C245 O250 1.247 . S
C245 O251 1.208 . S
C246 O238 1.315 . S
C246 O241 1.279 . S
C247 O248 1.315 . S
C247 O249 1.279 . S
O248 Cd240 2.223 . S
O248 C247 1.315 . S
O249 Cd239 2.240 . S
O249 C247 1.279 . S
O250 Cd240 2.297 . S
O250 C245 1.247 . S
O251 Cd240 2.439 . S
O251 C245 1.208 . S
O252 Cd253 2.223 . S
O252 C260 1.315 . S
Cd253 O252 2.223 . S
Cd253 O256 2.297 . S
Cd253 O257 2.439 . S
Cd253 O263 2.240 . S
Cd254 O255 2.240 . S
Cd254 O262 2.223 . S
Cd254 O264 2.297 . S
Cd254 O265 2.439 . S
O255 Cd254 2.240 . S
O255 C260 1.279 . S
O256 Cd253 2.297 . S
O256 C258 1.247 . S
O257 Cd253 2.439 . S
O257 C258 1.208 . S
C258 O256 1.247 . S
C258 O257 1.208 . S
C259 O264 1.247 . S
C259 O265 1.208 . S
C260 O252 1.315 . S
C260 O255 1.279 . S
C261 O262 1.315 . S
C261 O263 1.279 . S
O262 Cd254 2.223 . S
O262 C261 1.315 . S
O263 Cd253 2.240 . S
O263 C261 1.279 . S
O264 Cd254 2.297 . S
O264 C259 1.247 . S
O265 Cd254 2.439 . S
O265 C259 1.208 . S
O266 Cd267 2.223 . S
O266 C274 1.315 . S
Cd267 O266 2.223 . S
Cd267 O270 2.297 . S
Cd267 O271 2.439 . S
Cd267 O277 2.240 . S
Cd268 O269 2.240 . S
Cd268 O276 2.223 . S
Cd268 O278 2.297 . S
Cd268 O279 2.439 . S
O269 Cd268 2.240 . S
O269 C274 1.279 . S
O270 Cd267 2.297 . S
O270 C272 1.247 . S
O271 Cd267 2.439 . S
O271 C272 1.208 . S
C272 O270 1.247 . S
C272 O271 1.208 . S
C273 O278 1.247 . S
C273 O279 1.208 . S
C274 O266 1.315 . S
C274 O269 1.279 . S
C275 O276 1.315 . S
C275 O277 1.279 . S
O276 Cd268 2.223 . S
O276 C275 1.315 . S
O277 Cd267 2.240 . S
O277 C275 1.279 . S
O278 Cd268 2.297 . S
O278 C273 1.247 . S
O279 Cd268 2.439 . S
O279 C273 1.208 . S
O280 Cd281 2.223 . S
O280 C288 1.315 . S
Cd281 O280 2.223 . S
Cd281 O284 2.297 . S
Cd281 O285 2.439 . S
Cd281 O291 2.240 . S
Cd282 O283 2.240 . S
Cd282 O290 2.223 . S
Cd282 O292 2.297 . S
Cd282 O293 2.439 . S
O283 Cd282 2.240 . S
O283 C288 1.279 . S
O284 Cd281 2.297 . S
O284 C286 1.247 . S
O285 Cd281 2.439 . S
O285 C286 1.208 . S
C286 O284 1.247 . S
C286 O285 1.208 . S
C287 O292 1.247 . S
C287 O293 1.208 . S
C288 O280 1.315 . S
C288 O283 1.279 . S
C289 O290 1.315 . S
C289 O291 1.279 . S
O290 Cd282 2.223 . S
O290 C289 1.315 . S
O291 Cd281 2.240 . S
O291 C289 1.279 . S
O292 Cd282 2.297 . S
O292 C287 1.247 . S
O293 Cd282 2.439 . S
O293 C287 1.208 . S
O294 Cd295 2.223 . S
O294 C302 1.315 . S
Cd295 O294 2.223 . S
Cd295 O298 2.297 . S
Cd295 O299 2.439 . S
Cd295 O305 2.240 . S
Cd296 O297 2.240 . S
Cd296 O304 2.223 . S
Cd296 O306 2.297 . S
Cd296 O307 2.439 . S
O297 Cd296 2.240 . S
O297 C302 1.279 . S
O298 Cd295 2.297 . S
O298 C300 1.247 . S
O299 Cd295 2.439 . S
O299 C300 1.208 . S
C300 O298 1.247 . S
C300 O299 1.208 . S
C301 O306 1.247 . S
C301 O307 1.208 . S
C302 O294 1.315 . S
C302 O297 1.279 . S
C303 O304 1.315 . S
C303 O305 1.279 . S
O304 Cd296 2.223 . S
O304 C303 1.315 . S
O305 Cd295 2.240 . S
O305 C303 1.279 . S
O306 Cd296 2.297 . S
O306 C301 1.247 . S
O307 Cd296 2.439 . S
O307 C301 1.208 . S
O308 Cd309 2.223 . S
O308 C316 1.315 . S
Cd309 O308 2.223 . S
Cd309 O312 2.297 . S
Cd309 O313 2.439 . S
Cd309 O319 2.240 . S
Cd310 O311 2.240 . S
Cd310 O318 2.223 . S
Cd310 O320 2.297 . S
Cd310 O321 2.439 . S
O311 Cd310 2.240 . S
O311 C316 1.279 . S
O312 Cd309 2.297 . S
O312 C314 1.247 . S
O313 Cd309 2.439 . S
O313 C314 1.208 . S
C314 O312 1.247 . S
C314 O313 1.208 . S
C315 O320 1.247 . S
C315 O321 1.208 . S
C316 O308 1.315 . S
C316 O311 1.279 . S
C317 O318 1.315 . S
C317 O319 1.279 . S
O318 Cd310 2.223 . S
O318 C317 1.315 . S
O319 Cd309 2.240 . S
O319 C317 1.279 . S
O320 Cd310 2.297 . S
O320 C315 1.247 . S
O321 Cd310 2.439 . S
O321 C315 1.208 . S
O322 Cd323 2.223 . S
O322 C330 1.315 . S
Cd323 O322 2.223 . S
Cd323 O326 2.297 . S
Cd323 O327 2.439 . S
Cd323 O333 2.240 . S
Cd324 O325 2.240 . S
Cd324 O332 2.223 . S
Cd324 O334 2.297 . S
Cd324 O335 2.439 . S
O325 Cd324 2.240 . S
O325 C330 1.279 . S
O326 Cd323 2.297 . S
O326 C328 1.247 . S
O327 Cd323 2.439 . S
O327 C328 1.208 . S
C328 O326 1.247 . S
C328 O327 1.208 . S
C329 O334 1.247 . S
C329 O335 1.208 . S
C330 O322 1.315 . S
C330 O325 1.279 . S
C331 O332 1.315 . S
C331 O333 1.279 . S
O332 Cd324 2.223 . S
O332 C331 1.315 . S
O333 Cd323 2.240 . S
O333 C331 1.279 . S
O334 Cd324 2.297 . S
O334 C329 1.247 . S
O335 Cd324 2.439 . S
O335 C329 1.208 . S
O336 Cd337 2.223 . S
O336 C344 1.315 . S
Cd337 O336 2.223 . S
Cd337 O340 2.297 . S
Cd337 O341 2.439 . S
Cd337 O347 2.240 . S
Cd338 O339 2.240 . S
Cd338 O346 2.223 . S
Cd338 O348 2.297 . S
Cd338 O349 2.439 . S
O339 Cd338 2.240 . S
O339 C344 1.279 . S
O340 Cd337 2.297 . S
O340 C342 1.247 . S
O341 Cd337 2.439 . S
O341 C342 1.208 . S
C342 O340 1.247 . S
C342 O341 1.208 . S
C343 O348 1.247 . S
C343 O349 1.208 . S
C344 O336 1.315 . S
C344 O339 1.279 . S
C345 O346 1.315 . S
C345 O347 1.279 . S
O346 Cd338 2.223 . S
O346 C345 1.315 . S
O347 Cd337 2.240 . S
O347 C345 1.279 . S
O348 Cd338 2.297 . S
O348 C343 1.247 . S
O349 Cd338 2.439 . S
O349 C343 1.208 . S
O350 Cd351 2.223 . S
O350 C358 1.315 . S
Cd351 O350 2.223 . S
Cd351 O354 2.297 . S
Cd351 O355 2.439 . S
Cd351 O361 2.240 . S
Cd352 O353 2.240 . S
Cd352 O360 2.223 . S
Cd352 O362 2.297 . S
Cd352 O363 2.439 . S
O353 Cd352 2.240 . S
O353 C358 1.279 . S
O354 Cd351 2.297 . S
O354 C356 1.247 . S
O355 Cd351 2.439 . S
O355 C356 1.208 . S
C356 O354 1.247 . S
C356 O355 1.208 . S
C357 O362 1.247 . S
C357 O363 1.208 . S
C358 O350 1.315 . S
C358 O353 1.279 . S
C359 O360 1.315 . S
C359 O361 1.279 . S
O360 Cd352 2.223 . S
O360 C359 1.315 . S
O361 Cd351 2.240 . S
O361 C359 1.279 . S
O362 Cd352 2.297 . S
O362 C357 1.247 . S
O363 Cd352 2.439 . S
O363 C357 1.208 . S
O364 Cd365 2.223 . S
O364 C372 1.315 . S
Cd365 O364 2.223 . S
Cd365 O368 2.297 . S
Cd365 O369 2.439 . S
Cd365 O375 2.240 . S
Cd366 O367 2.240 . S
Cd366 O374 2.223 . S
Cd366 O376 2.297 . S
Cd366 O377 2.439 . S
O367 Cd366 2.240 . S
O367 C372 1.279 . S
O368 Cd365 2.297 . S
O368 C370 1.247 . S
O369 Cd365 2.439 . S
O369 C370 1.208 . S
C370 O368 1.247 . S
C370 O369 1.208 . S
C371 O376 1.247 . S
C371 O377 1.208 . S
C372 O364 1.315 . S
C372 O367 1.279 . S
C373 O374 1.315 . S
C373 O375 1.279 . S
O374 Cd366 2.223 . S
O374 C373 1.315 . S
O375 Cd365 2.240 . S
O375 C373 1.279 . S
O376 Cd366 2.297 . S
O376 C371 1.247 . S
O377 Cd366 2.439 . S
O377 C371 1.208 . S
O378 Cd379 2.223 . S
O378 C386 1.315 . S
Cd379 O378 2.223 . S
Cd379 O382 2.297 . S
Cd379 O383 2.439 . S
Cd379 O389 2.240 . S
Cd380 O381 2.240 . S
Cd380 O388 2.223 . S
Cd380 O390 2.297 . S
Cd380 O391 2.439 . S
O381 Cd380 2.240 . S
O381 C386 1.279 . S
O382 Cd379 2.297 . S
O382 C384 1.247 . S
O383 Cd379 2.439 . S
O383 C384 1.208 . S
C384 O382 1.247 . S
C384 O383 1.208 . S
C385 O390 1.247 . S
C385 O391 1.208 . S
C386 O378 1.315 . S
C386 O381 1.279 . S
C387 O388 1.315 . S
C387 O389 1.279 . S
O388 Cd380 2.223 . S
O388 C387 1.315 . S
O389 Cd379 2.240 . S
O389 C387 1.279 . S
O390 Cd380 2.297 . S
O390 C385 1.247 . S
O391 Cd380 2.439 . S
O391 C385 1.208 . S
O392 Cd393 2.223 . S
O392 C400 1.315 . S
Cd393 O392 2.223 . S
Cd393 O396 2.297 . S
Cd393 O397 2.439 . S
Cd393 O403 2.240 . S
Cd394 O395 2.240 . S
Cd394 O402 2.223 . S
Cd394 O404 2.297 . S
Cd394 O405 2.439 . S
O395 Cd394 2.240 . S
O395 C400 1.279 . S
O396 Cd393 2.297 . S
O396 C398 1.247 . S
O397 Cd393 2.439 . S
O397 C398 1.208 . S
C398 O396 1.247 . S
C398 O397 1.208 . S
C399 O404 1.247 . S
C399 O405 1.208 . S
C400 O392 1.315 . S
C400 O395 1.279 . S
C401 O402 1.315 . S
C401 O403 1.279 . S
O402 Cd394 2.223 . S
O402 C401 1.315 . S
O403 Cd393 2.240 . S
O403 C401 1.279 . S
O404 Cd394 2.297 . S
O404 C399 1.247 . S
O405 Cd394 2.439 . S
O405 C399 1.208 . S
O406 Cd407 2.223 . S
O406 C414 1.315 . S
Cd407 O406 2.223 . S
Cd407 O410 2.297 . S
Cd407 O411 2.439 . S
Cd407 O417 2.240 . S
Cd408 O409 2.240 . S
Cd408 O416 2.223 . S
Cd408 O418 2.297 . S
Cd408 O419 2.439 . S
O409 Cd408 2.240 . S
O409 C414 1.279 . S
O410 Cd407 2.297 . S
O410 C412 1.247 . S
O411 Cd407 2.439 . S
O411 C412 1.208 . S
C412 O410 1.247 . S
C412 O411 1.208 . S
C413 O418 1.247 . S
C413 O419 1.208 . S
C414 O406 1.315 . S
C414 O409 1.279 . S
C415 O416 1.315 . S
C415 O417 1.279 . S
O416 Cd408 2.223 . S
O416 C415 1.315 . S
O417 Cd407 2.240 . S
O417 C415 1.279 . S
O418 Cd408 2.297 . S
O418 C413 1.247 . S
O419 Cd408 2.439 . S
O419 C413 1.208 . S
O420 Cd421 2.223 . S
O420 C428 1.315 . S
Cd421 O420 2.223 . S
Cd421 O424 2.297 . S
Cd421 O425 2.439 . S
Cd421 O431 2.240 . S
Cd422 O423 2.240 . S
Cd422 O430 2.223 . S
Cd422 O432 2.297 . S
Cd422 O433 2.439 . S
O423 Cd422 2.240 . S
O423 C428 1.279 . S
O424 Cd421 2.297 . S
O424 C426 1.247 . S
O425 Cd421 2.439 . S
O425 C426 1.208 . S
C426 O424 1.247 . S
C426 O425 1.208 . S
C427 O432 1.247 . S
C427 O433 1.208 . S
C428 O420 1.315 . S
C428 O423 1.279 . S
C429 O430 1.315 . S
C429 O431 1.279 . S
O430 Cd422 2.223 . S
O430 C429 1.315 . S
O431 Cd421 2.240 . S
O431 C429 1.279 . S
O432 Cd422 2.297 . S
O432 C427 1.247 . S
O433 Cd422 2.439 . S
O433 C427 1.208 . S
O434 Cd435 2.223 . S
O434 C442 1.315 . S
Cd435 O434 2.223 . S
Cd435 O438 2.297 . S
Cd435 O439 2.439 . S
Cd435 O445 2.240 . S
Cd436 O437 2.240 . S
Cd436 O444 2.223 . S
Cd436 O446 2.297 . S
Cd436 O447 2.439 . S
O437 Cd436 2.240 . S
O437 C442 1.279 . S
O438 Cd435 2.297 . S
O438 C440 1.247 . S
O439 Cd435 2.439 . S
O439 C440 1.208 . S
C440 O438 1.247 . S
C440 O439 1.208 . S
C441 O446 1.247 . S
C441 O447 1.208 . S
C442 O434 1.315 . S
C442 O437 1.279 . S
C443 O444 1.315 . S
C443 O445 1.279 . S
O444 Cd436 2.223 . S
O444 C443 1.315 . S
O445 Cd435 2.240 . S
O445 C443 1.279 . S
O446 Cd436 2.297 . S
O446 C441 1.247 . S
O447 Cd436 2.439 . S
O447 C441 1.208 . S
O448 Cd449 2.223 . S
O448 C456 1.315 . S
Cd449 O448 2.223 . S
Cd449 O452 2.297 . S
Cd449 O453 2.439 . S
Cd449 O459 2.240 . S
Cd450 O451 2.240 . S
Cd450 O458 2.223 . S
Cd450 O460 2.297 . S
Cd450 O461 2.439 . S
O451 Cd450 2.240 . S
O451 C456 1.279 . S
O452 Cd449 2.297 . S
O452 C454 1.247 . S
O453 Cd449 2.439 . S
O453 C454 1.208 . S
C454 O452 1.247 . S
C454 O453 1.208 . S
C455 O460 1.247 . S
C455 O461 1.208 . S
C456 O448 1.315 . S
C456 O451 1.279 . S
C457 O458 1.315 . S
C457 O459 1.279 . S
O458 Cd450 2.223 . S
O458 C457 1.315 . S
O459 Cd449 2.240 . S
O459 C457 1.279 . S
O460 Cd450 2.297 . S
O460 C455 1.247 . S
O461 Cd450 2.439 . S
O461 C455 1.208 . S
O462 Cd463 2.223 . S
O462 C470 1.315 . S
Cd463 O462 2.223 . S
Cd463 O466 2.297 . S
Cd463 O467 2.439 . S
Cd463 O473 2.240 . S
Cd464 O465 2.240 . S
Cd464 O472 2.223 . S
Cd464 O474 2.297 . S
Cd464 O475 2.439 . S
O465 Cd464 2.240 . S
O465 C470 1.279 . S
O466 Cd463 2.297 . S
O466 C468 1.247 . S
O467 Cd463 2.439 . S
O467 C468 1.208 . S
C468 O466 1.247 . S
C468 O467 1.208 . S
C469 O474 1.247 . S
C469 O475 1.208 . S
C470 O462 1.315 . S
C470 O465 1.279 . S
C471 O472 1.315 . S
C471 O473 1.279 . S
O472 Cd464 2.223 . S
O472 C471 1.315 . S
O473 Cd463 2.240 . S
O473 C471 1.279 . S
O474 Cd464 2.297 . S
O474 C469 1.247 . S
O475 Cd464 2.439 . S
O475 C469 1.208 . S
O476 Cd477 2.223 . S
O476 C484 1.315 . S
Cd477 O476 2.223 . S
Cd477 O480 2.297 . S
Cd477 O481 2.439 . S
Cd477 O487 2.240 . S
Cd478 O479 2.240 . S
Cd478 O486 2.223 . S
Cd478 O488 2.297 . S
Cd478 O489 2.439 . S
O479 Cd478 2.240 . S
O479 C484 1.279 . S
O480 Cd477 2.297 . S
O480 C482 1.247 . S
O481 Cd477 2.439 . S
O481 C482 1.208 . S
C482 O480 1.247 . S
C482 O481 1.208 . S
C483 O488 1.247 . S
C483 O489 1.208 . S
C484 O476 1.315 . S
C484 O479 1.279 . S
C485 O486 1.315 . S
C485 O487 1.279 . S
O486 Cd478 2.223 . S
O486 C485 1.315 . S
O487 Cd477 2.240 . S
O487 C485 1.279 . S
O488 Cd478 2.297 . S
O488 C483 1.247 . S
O489 Cd478 2.439 . S
O489 C483 1.208 . S
O490 Cd491 2.223 . S
O490 C498 1.315 . S
Cd491 O490 2.223 . S
Cd491 O494 2.297 . S
Cd491 O495 2.439 . S
Cd491 O501 2.240 . S
Cd492 O493 2.240 . S
Cd492 O500 2.223 . S
Cd492 O502 2.297 . S
Cd492 O503 2.439 . S
O493 Cd492 2.240 . S
O493 C498 1.279 . S
O494 Cd491 2.297 . S
O494 C496 1.247 . S
O495 Cd491 2.439 . S
O495 C496 1.208 . S
C496 O494 1.247 . S
C496 O495 1.208 . S
C497 O502 1.247 . S
C497 O503 1.208 . S
C498 O490 1.315 . S
C498 O493 1.279 . S
C499 O500 1.315 . S
C499 O501 1.279 . S
O500 Cd492 2.223 . S
O500 C499 1.315 . S
O501 Cd491 2.240 . S
O501 C499 1.279 . S
O502 Cd492 2.297 . S
O502 C497 1.247 . S
O503 Cd492 2.439 . S
O503 C497 1.208 . S
O504 Cd505 2.223 . S
O504 C512 1.315 . S
Cd505 O504 2.223 . S
Cd505 O508 2.297 . S
Cd505 O509 2.439 . S
Cd505 O515 2.240 . S
Cd506 O507 2.240 . S
Cd506 O514 2.223 . S
Cd506 O516 2.297 . S
Cd506 O517 2.439 . S
O507 Cd506 2.240 . S
O507 C512 1.279 . S
O508 Cd505 2.297 . S
O508 C510 1.247 . S
O509 Cd505 2.439 . S
O509 C510 1.208 . S
C510 O508 1.247 . S
C510 O509 1.208 . S
C511 O516 1.247 . S
C511 O517 1.208 . S
C512 O504 1.315 . S
C512 O507 1.279 . S
C513 O514 1.315 . S
C513 O515 1.279 . S
O514 Cd506 2.223 . S
O514 C513 1.315 . S
O515 Cd505 2.240 . S
O515 C513 1.279 . S
O516 Cd506 2.297 . S
O516 C511 1.247 . S
O517 Cd506 2.439 . S
O517 C511 1.208 . S
O518 Cd519 2.223 . S
O518 C526 1.315 . S
Cd519 O518 2.223 . S
Cd519 O522 2.297 . S
Cd519 O523 2.439 . S
Cd519 O529 2.240 . S
Cd520 O521 2.240 . S
Cd520 O528 2.223 . S
Cd520 O530 2.297 . S
Cd520 O531 2.439 . S
O521 Cd520 2.240 . S
O521 C526 1.279 . S
O522 Cd519 2.297 . S
O522 C524 1.247 . S
O523 Cd519 2.439 . S
O523 C524 1.208 . S
C524 O522 1.247 . S
C524 O523 1.208 . S
C525 O530 1.247 . S
C525 O531 1.208 . S
C526 O518 1.315 . S
C526 O521 1.279 . S
C527 O528 1.315 . S
C527 O529 1.279 . S
O528 Cd520 2.223 . S
O528 C527 1.315 . S
O529 Cd519 2.240 . S
O529 C527 1.279 . S
O530 Cd520 2.297 . S
O530 C525 1.247 . S
O531 Cd520 2.439 . S
O531 C525 1.208 . S
O532 Cd533 2.223 . S
O532 C540 1.315 . S
Cd533 O532 2.223 . S
Cd533 O536 2.297 . S
Cd533 O537 2.439 . S
Cd533 O543 2.240 . S
Cd534 O535 2.240 . S
Cd534 O542 2.223 . S
Cd534 O544 2.297 . S
Cd534 O545 2.439 . S
O535 Cd534 2.240 . S
O535 C540 1.279 . S
O536 Cd533 2.297 . S
O536 C538 1.247 . S
O537 Cd533 2.439 . S
O537 C538 1.208 . S
C538 O536 1.247 . S
C538 O537 1.208 . S
C539 O544 1.247 . S
C539 O545 1.208 . S
C540 O532 1.315 . S
C540 O535 1.279 . S
C541 O542 1.315 . S
C541 O543 1.279 . S
O542 Cd534 2.223 . S
O542 C541 1.315 . S
O543 Cd533 2.240 . S
O543 C541 1.279 . S
O544 Cd534 2.297 . S
O544 C539 1.247 . S
O545 Cd534 2.439 . S
O545 C539 1.208 . S
O546 Cd547 2.223 . S
O546 C554 1.315 . S
Cd547 O546 2.223 . S
Cd547 O550 2.297 . S
Cd547 O551 2.439 . S
Cd547 O557 2.240 . S
Cd548 O549 2.240 . S
Cd548 O556 2.223 . S
Cd548 O558 2.297 . S
Cd548 O559 2.439 . S
O549 Cd548 2.240 . S
O549 C554 1.279 . S
O550 Cd547 2.297 . S
O550 C552 1.247 . S
O551 Cd547 2.439 . S
O551 C552 1.208 . S
C552 O550 1.247 . S
C552 O551 1.208 . S
C553 O558 1.247 . S
C553 O559 1.208 . S
C554 O546 1.315 . S
C554 O549 1.279 . S
C555 O556 1.315 . S
C555 O557 1.279 . S
O556 Cd548 2.223 . S
O556 C555 1.315 . S
O557 Cd547 2.240 . S
O557 C555 1.279 . S
O558 Cd548 2.297 . S
O558 C553 1.247 . S
O559 Cd548 2.439 . S
O559 C553 1.208 . S
O560 Cd561 2.223 . S
O560 C568 1.315 . S
Cd561 O560 2.223 . S
Cd561 O564 2.297 . S
Cd561 O565 2.439 . S
Cd561 O571 2.240 . S
Cd562 O563 2.240 . S
Cd562 O570 2.223 . S
Cd562 O572 2.297 . S
Cd562 O573 2.439 . S
O563 Cd562 2.240 . S
O563 C568 1.279 . S
O564 Cd561 2.297 . S
O564 C566 1.247 . S
O565 Cd561 2.439 . S
O565 C566 1.208 . S
C566 O564 1.247 . S
C566 O565 1.208 . S
C567 O572 1.247 . S
C567 O573 1.208 . S
C568 O560 1.315 . S
C568 O563 1.279 . S
C569 O570 1.315 . S
C569 O571 1.279 . S
O570 Cd562 2.223 . S
O570 C569 1.315 . S
O571 Cd561 2.240 . S
O571 C569 1.279 . S
O572 Cd562 2.297 . S
O572 C567 1.247 . S
O573 Cd562 2.439 . S
O573 C567 1.208 . S
O574 Cd575 2.223 . S
O574 C582 1.315 . S
Cd575 O574 2.223 . S
Cd575 O578 2.297 . S
Cd575 O579 2.439 . S
Cd575 O585 2.240 . S
Cd576 O577 2.240 . S
Cd576 O584 2.223 . S
Cd576 O586 2.297 . S
Cd576 O587 2.439 . S
O577 Cd576 2.240 . S
O577 C582 1.279 . S
O578 Cd575 2.297 . S
O578 C580 1.247 . S
O579 Cd575 2.439 . S
O579 C580 1.208 . S
C580 O578 1.247 . S
C580 O579 1.208 . S
C581 O586 1.247 . S
C581 O587 1.208 . S
C582 O574 1.315 . S
C582 O577 1.279 . S
C583 O584 1.315 . S
C583 O585 1.279 . S
O584 Cd576 2.223 . S
O584 C583 1.315 . S
O585 Cd575 2.240 . S
O585 C583 1.279 . S
O586 Cd576 2.297 . S
O586 C581 1.247 . S
O587 Cd576 2.439 . S
O587 C581 1.208 . S
O588 Cd589 2.223 . S
O588 C596 1.315 . S
Cd589 O588 2.223 . S
Cd589 O592 2.297 . S
Cd589 O593 2.439 . S
Cd589 O599 2.240 . S
Cd590 O591 2.240 . S
Cd590 O598 2.223 . S
Cd590 O600 2.297 . S
Cd590 O601 2.439 . S
O591 Cd590 2.240 . S
O591 C596 1.279 . S
O592 Cd589 2.297 . S
O592 C594 1.247 . S
O593 Cd589 2.439 . S
O593 C594 1.208 . S
C594 O592 1.247 . S
C594 O593 1.208 . S
C595 O600 1.247 . S
C595 O601 1.208 . S
C596 O588 1.315 . S
C596 O591 1.279 . S
C597 O598 1.315 . S
C597 O599 1.279 . S
O598 Cd590 2.223 . S
O598 C597 1.315 . S
O599 Cd589 2.240 . S
O599 C597 1.279 . S
O600 Cd590 2.297 . S
O600 C595 1.247 . S
O601 Cd590 2.439 . S
O601 C595 1.208 . S
O602 Cd603 2.223 . S
O602 C610 1.315 . S
Cd603 O602 2.223 . S
Cd603 O606 2.297 . S
Cd603 O607 2.439 . S
Cd603 O613 2.240 . S
Cd604 O605 2.240 . S
Cd604 O612 2.223 . S
Cd604 O614 2.297 . S
Cd604 O615 2.439 . S
O605 Cd604 2.240 . S
O605 C610 1.279 . S
O606 Cd603 2.297 . S
O606 C608 1.247 . S
O607 Cd603 2.439 . S
O607 C608 1.208 . S
C608 O606 1.247 . S
C608 O607 1.208 . S
C609 O614 1.247 . S
C609 O615 1.208 . S
C610 O602 1.315 . S
C610 O605 1.279 . S
C611 O612 1.315 . S
C611 O613 1.279 . S
O612 Cd604 2.223 . S
O612 C611 1.315 . S
O613 Cd603 2.240 . S
O613 C611 1.279 . S
O614 Cd604 2.297 . S
O614 C609 1.247 . S
O615 Cd604 2.439 . S
O615 C609 1.208 . S
O616 Cd617 2.223 . S
O616 C624 1.315 . S
Cd617 O616 2.223 . S
Cd617 O620 2.297 . S
Cd617 O621 2.439 . S
Cd617 O627 2.240 . S
Cd618 O619 2.240 . S
Cd618 O626 2.223 . S
Cd618 O628 2.297 . S
Cd618 O629 2.439 . S
O619 Cd618 2.240 . S
O619 C624 1.279 . S
O620 Cd617 2.297 . S
O620 C622 1.247 . S
O621 Cd617 2.439 . S
O621 C622 1.208 . S
C622 O620 1.247 . S
C622 O621 1.208 . S
C623 O628 1.247 . S
C623 O629 1.208 . S
C624 O616 1.315 . S
C624 O619 1.279 . S
C625 O626 1.315 . S
C625 O627 1.279 . S
O626 Cd618 2.223 . S
O626 C625 1.315 . S
O627 Cd617 2.240 . S
O627 C625 1.279 . S
O628 Cd618 2.297 . S
O628 C623 1.247 . S
O629 Cd618 2.439 . S
O629 C623 1.208 . S
O630 Cd631 2.223 . S
O630 C638 1.315 . S
Cd631 O630 2.223 . S
Cd631 O634 2.297 . S
Cd631 O635 2.439 . S
Cd631 O641 2.240 . S
Cd632 O633 2.240 . S
Cd632 O640 2.223 . S
Cd632 O642 2.297 . S
Cd632 O643 2.439 . S
O633 Cd632 2.240 . S
O633 C638 1.279 . S
O634 Cd631 2.297 . S
O634 C636 1.247 . S
O635 Cd631 2.439 . S
O635 C636 1.208 . S
C636 O634 1.247 . S
C636 O635 1.208 . S
C637 O642 1.247 . S
C637 O643 1.208 . S
C638 O630 1.315 . S
C638 O633 1.279 . S
C639 O640 1.315 . S
C639 O641 1.279 . S
O640 Cd632 2.223 . S
O640 C639 1.315 . S
O641 Cd631 2.240 . S
O641 C639 1.279 . S
O642 Cd632 2.297 . S
O642 C637 1.247 . S
O643 Cd632 2.439 . S
O643 C637 1.208 . S
O644 Cd645 2.223 . S
O644 C652 1.315 . S
Cd645 O644 2.223 . S
Cd645 O648 2.297 . S
Cd645 O649 2.439 . S
Cd645 O655 2.240 . S
Cd646 O647 2.240 . S
Cd646 O654 2.223 . S
Cd646 O656 2.297 . S
Cd646 O657 2.439 . S
O647 Cd646 2.240 . S
O647 C652 1.279 . S
O648 Cd645 2.297 . S
O648 C650 1.247 . S
O649 Cd645 2.439 . S
O649 C650 1.208 . S
C650 O648 1.247 . S
C650 O649 1.208 . S
C651 O656 1.247 . S
C651 O657 1.208 . S
C652 O644 1.315 . S
C652 O647 1.279 . S
C653 O654 1.315 . S
C653 O655 1.279 . S
O654 Cd646 2.223 . S
O654 C653 1.315 . S
O655 Cd645 2.240 . S
O655 C653 1.279 . S
O656 Cd646 2.297 . S
O656 C651 1.247 . S
O657 Cd646 2.439 . S
O657 C651 1.208 . S
O658 Cd659 2.223 . S
O658 C666 1.315 . S
Cd659 O658 2.223 . S
Cd659 O662 2.297 . S
Cd659 O663 2.439 . S
Cd659 O669 2.240 . S
Cd660 O661 2.240 . S
Cd660 O668 2.223 . S
Cd660 O670 2.297 . S
Cd660 O671 2.439 . S
O661 Cd660 2.240 . S
O661 C666 1.279 . S
O662 Cd659 2.297 . S
O662 C664 1.247 . S
O663 Cd659 2.439 . S
O663 C664 1.208 . S
C664 O662 1.247 . S
C664 O663 1.208 . S
C665 O670 1.247 . S
C665 O671 1.208 . S
C666 O658 1.315 . S
C666 O661 1.279 . S
C667 O668 1.315 . S
C667 O669 1.279 . S
O668 Cd660 2.223 . S
O668 C667 1.315 . S
O669 Cd659 2.240 . S
O669 C667 1.279 . S
O670 Cd660 2.297 . S
O670 C665 1.247 . S
O671 Cd660 2.439 . S
O671 C665 1.208 . S
H672 C684 0.930 . S
H673 C686 0.930 . S
H674 C687 0.930 . S
H675 C691 0.959 . S
H676 C691 0.959 . S
H677 C691 0.961 . S
H678 C692 0.960 . S
H679 C692 0.961 . S
H680 C692 0.959 . S
H681 C695 0.929 . S
H682 C696 0.931 . S
H683 C698 0.930 . S
C684 H672 0.930 . S
C684 C685 1.399 . S
C684 C689 1.399 . S
C685 C684 1.399 . S
C685 C686 1.376 . S
C686 H673 0.930 . S
C686 C685 1.376 . S
C686 C687 1.388 . S
C687 H674 0.930 . S
C687 C686 1.388 . S
C687 C688 1.390 . S
C688 C687 1.390 . S
C688 C689 1.394 . S
C688 C694 1.465 . S
C689 C684 1.399 . S
C689 C688 1.394 . S
C689 C690 1.516 . S
C690 C689 1.516 . S
C690 C691 1.502 . S
C690 C692 1.561 . S
C690 C693 1.526 . S
C691 H675 0.959 . S
C691 H676 0.959 . S
C691 H677 0.961 . S
C691 C690 1.502 . S
C692 H678 0.960 . S
C692 H679 0.961 . S
C692 H680 0.959 . S
C692 C690 1.561 . S
C693 C690 1.526 . S
C693 C694 1.396 . S
C693 C698 1.390 . S
C694 C688 1.465 . S
C694 C693 1.396 . S
C694 C695 1.399 . S
C695 H681 0.929 . S
C695 C694 1.399 . S
C695 C696 1.385 . S
C696 H682 0.931 . S
C696 C695 1.385 . S
C696 C697 1.389 . S
C697 C696 1.389 . S
C697 C698 1.387 . S
C698 H683 0.930 . S
C698 C693 1.390 . S
C698 C697 1.387 . S
H699 C711 0.930 . S
H700 C713 0.930 . S
H701 C714 0.930 . S
H702 C718 0.959 . S
H703 C718 0.959 . S
H704 C718 0.961 . S
H705 C719 0.960 . S
H706 C719 0.961 . S
H707 C719 0.959 . S
H708 C722 0.929 . S
H709 C723 0.931 . S
H710 C725 0.930 . S
C711 H699 0.930 . S
C711 C712 1.399 . S
C711 C716 1.399 . S
C712 C711 1.399 . S
C712 C713 1.376 . S
C713 H700 0.930 . S
C713 C712 1.376 . S
C713 C714 1.388 . S
C714 H701 0.930 . S
C714 C713 1.388 . S
C714 C715 1.390 . S
C715 C714 1.390 . S
C715 C716 1.394 . S
C715 C721 1.465 . S
C716 C711 1.399 . S
C716 C715 1.394 . S
C716 C717 1.516 . S
C717 C716 1.516 . S
C717 C718 1.502 . S
C717 C719 1.561 . S
C717 C720 1.526 . S
C718 H702 0.959 . S
C718 H703 0.959 . S
C718 H704 0.961 . S
C718 C717 1.502 . S
C719 H705 0.960 . S
C719 H706 0.961 . S
C719 H707 0.959 . S
C719 C717 1.561 . S
C720 C717 1.526 . S
C720 C721 1.396 . S
C720 C725 1.390 . S
C721 C715 1.465 . S
C721 C720 1.396 . S
C721 C722 1.399 . S
C722 H708 0.929 . S
C722 C721 1.399 . S
C722 C723 1.385 . S
C723 H709 0.931 . S
C723 C722 1.385 . S
C723 C724 1.389 . S
C724 C723 1.389 . S
C724 C725 1.387 . S
C725 H710 0.930 . S
C725 C720 1.390 . S
C725 C724 1.387 . S
H726 C738 0.930 . S
H727 C740 0.930 . S
H728 C741 0.930 . S
H729 C745 0.959 . S
H730 C745 0.959 . S
H731 C745 0.961 . S
H732 C746 0.960 . S
H733 C746 0.961 . S
H734 C746 0.959 . S
H735 C749 0.929 . S
H736 C750 0.931 . S
H737 C752 0.930 . S
C738 H726 0.930 . S
C738 C739 1.399 . S
C738 C743 1.399 . S
C739 C738 1.399 . S
C739 C740 1.376 . S
C740 H727 0.930 . S
C740 C739 1.376 . S
C740 C741 1.388 . S
C741 H728 0.930 . S
C741 C740 1.388 . S
C741 C742 1.390 . S
C742 C741 1.390 . S
C742 C743 1.394 . S
C742 C748 1.465 . S
C743 C738 1.399 . S
C743 C742 1.394 . S
C743 C744 1.516 . S
C744 C743 1.516 . S
C744 C745 1.502 . S
C744 C746 1.561 . S
C744 C747 1.526 . S
C745 H729 0.959 . S
C745 H730 0.959 . S
C745 H731 0.961 . S
C745 C744 1.502 . S
C746 H732 0.960 . S
C746 H733 0.961 . S
C746 H734 0.959 . S
C746 C744 1.561 . S
C747 C744 1.526 . S
C747 C748 1.396 . S
C747 C752 1.390 . S
C748 C742 1.465 . S
C748 C747 1.396 . S
C748 C749 1.399 . S
C749 H735 0.929 . S
C749 C748 1.399 . S
C749 C750 1.385 . S
C750 H736 0.931 . S
C750 C749 1.385 . S
C750 C751 1.389 . S
C751 C750 1.389 . S
C751 C752 1.387 . S
C752 H737 0.930 . S
C752 C747 1.390 . S
C752 C751 1.387 . S
H753 C765 0.930 . S
H754 C767 0.930 . S
H755 C768 0.930 . S
H756 C772 0.959 . S
H757 C772 0.959 . S
H758 C772 0.961 . S
H759 C773 0.960 . S
H760 C773 0.961 . S
H761 C773 0.959 . S
H762 C776 0.929 . S
H763 C777 0.931 . S
H764 C779 0.930 . S
C765 H753 0.930 . S
C765 C766 1.399 . S
C765 C770 1.399 . S
C766 C765 1.399 . S
C766 C767 1.376 . S
C767 H754 0.930 . S
C767 C766 1.376 . S
C767 C768 1.388 . S
C768 H755 0.930 . S
C768 C767 1.388 . S
C768 C769 1.390 . S
C769 C768 1.390 . S
C769 C770 1.394 . S
C769 C775 1.465 . S
C770 C765 1.399 . S
C770 C769 1.394 . S
C770 C771 1.516 . S
C771 C770 1.516 . S
C771 C772 1.502 . S
C771 C773 1.561 . S
C771 C774 1.526 . S
C772 H756 0.959 . S
C772 H757 0.959 . S
C772 H758 0.961 . S
C772 C771 1.502 . S
C773 H759 0.960 . S
C773 H760 0.961 . S
C773 H761 0.959 . S
C773 C771 1.561 . S
C774 C771 1.526 . S
C774 C775 1.396 . S
C774 C779 1.390 . S
C775 C769 1.465 . S
C775 C774 1.396 . S
C775 C776 1.399 . S
C776 H762 0.929 . S
C776 C775 1.399 . S
C776 C777 1.385 . S
C777 H763 0.931 . S
C777 C776 1.385 . S
C777 C778 1.389 . S
C778 C777 1.389 . S
C778 C779 1.387 . S
C779 H764 0.930 . S
C779 C774 1.390 . S
C779 C778 1.387 . S
H780 C792 0.930 . S
H781 C794 0.930 . S
H782 C795 0.930 . S
H783 C799 0.959 . S
H784 C799 0.959 . S
H785 C799 0.961 . S
H786 C800 0.960 . S
H787 C800 0.961 . S
H788 C800 0.959 . S
H789 C803 0.929 . S
H790 C804 0.931 . S
H791 C806 0.930 . S
C792 H780 0.930 . S
C792 C793 1.399 . S
C792 C797 1.399 . S
C793 C792 1.399 . S
C793 C794 1.376 . S
C794 H781 0.930 . S
C794 C793 1.376 . S
C794 C795 1.388 . S
C795 H782 0.930 . S
C795 C794 1.388 . S
C795 C796 1.390 . S
C796 C795 1.390 . S
C796 C797 1.394 . S
C796 C802 1.465 . S
C797 C792 1.399 . S
C797 C796 1.394 . S
C797 C798 1.516 . S
C798 C797 1.516 . S
C798 C799 1.502 . S
C798 C800 1.561 . S
C798 C801 1.526 . S
C799 H783 0.959 . S
C799 H784 0.959 . S
C799 H785 0.961 . S
C799 C798 1.502 . S
C800 H786 0.960 . S
C800 H787 0.961 . S
C800 H788 0.959 . S
C800 C798 1.561 . S
C801 C798 1.526 . S
C801 C802 1.396 . S
C801 C806 1.390 . S
C802 C796 1.465 . S
C802 C801 1.396 . S
C802 C803 1.399 . S
C803 H789 0.929 . S
C803 C802 1.399 . S
C803 C804 1.385 . S
C804 H790 0.931 . S
C804 C803 1.385 . S
C804 C805 1.389 . S
C805 C804 1.389 . S
C805 C806 1.387 . S
C806 H791 0.930 . S
C806 C801 1.390 . S
C806 C805 1.387 . S
H807 C819 0.930 . S
H808 C821 0.930 . S
H809 C822 0.930 . S
H810 C826 0.959 . S
H811 C826 0.959 . S
H812 C826 0.961 . S
H813 C827 0.960 . S
H814 C827 0.961 . S
H815 C827 0.959 . S
H816 C830 0.929 . S
H817 C831 0.931 . S
H818 C833 0.930 . S
C819 H807 0.930 . S
C819 C820 1.399 . S
C819 C824 1.399 . S
C820 C819 1.399 . S
C820 C821 1.376 . S
C821 H808 0.930 . S
C821 C820 1.376 . S
C821 C822 1.388 . S
C822 H809 0.930 . S
C822 C821 1.388 . S
C822 C823 1.390 . S
C823 C822 1.390 . S
C823 C824 1.394 . S
C823 C829 1.465 . S
C824 C819 1.399 . S
C824 C823 1.394 . S
C824 C825 1.516 . S
C825 C824 1.516 . S
C825 C826 1.502 . S
C825 C827 1.561 . S
C825 C828 1.526 . S
C826 H810 0.959 . S
C826 H811 0.959 . S
C826 H812 0.961 . S
C826 C825 1.502 . S
C827 H813 0.960 . S
C827 H814 0.961 . S
C827 H815 0.959 . S
C827 C825 1.561 . S
C828 C825 1.526 . S
C828 C829 1.396 . S
C828 C833 1.390 . S
C829 C823 1.465 . S
C829 C828 1.396 . S
C829 C830 1.399 . S
C830 H816 0.929 . S
C830 C829 1.399 . S
C830 C831 1.385 . S
C831 H817 0.931 . S
C831 C830 1.385 . S
C831 C832 1.389 . S
C832 C831 1.389 . S
C832 C833 1.387 . S
C833 H818 0.930 . S
C833 C828 1.390 . S
C833 C832 1.387 . S
H834 C846 0.930 . S
H835 C848 0.930 . S
H836 C849 0.930 . S
H837 C853 0.959 . S
H838 C853 0.959 . S
H839 C853 0.961 . S
H840 C854 0.960 . S
H841 C854 0.961 . S
H842 C854 0.959 . S
H843 C857 0.929 . S
H844 C858 0.931 . S
H845 C860 0.930 . S
C846 H834 0.930 . S
C846 C847 1.399 . S
C846 C851 1.399 . S
C847 C846 1.399 . S
C847 C848 1.376 . S
C848 H835 0.930 . S
C848 C847 1.376 . S
C848 C849 1.388 . S
C849 H836 0.930 . S
C849 C848 1.388 . S
C849 C850 1.390 . S
C850 C849 1.390 . S
C850 C851 1.394 . S
C850 C856 1.465 . S
C851 C846 1.399 . S
C851 C850 1.394 . S
C851 C852 1.516 . S
C852 C851 1.516 . S
C852 C853 1.502 . S
C852 C854 1.561 . S
C852 C855 1.526 . S
C853 H837 0.959 . S
C853 H838 0.959 . S
C853 H839 0.961 . S
C853 C852 1.502 . S
C854 H840 0.960 . S
C854 H841 0.961 . S
C854 H842 0.959 . S
C854 C852 1.561 . S
C855 C852 1.526 . S
C855 C856 1.396 . S
C855 C860 1.390 . S
C856 C850 1.465 . S
C856 C855 1.396 . S
C856 C857 1.399 . S
C857 H843 0.929 . S
C857 C856 1.399 . S
C857 C858 1.385 . S
C858 H844 0.931 . S
C858 C857 1.385 . S
C858 C859 1.389 . S
C859 C858 1.389 . S
C859 C860 1.387 . S
C860 H845 0.930 . S
C860 C855 1.390 . S
C860 C859 1.387 . S
H861 C873 0.930 . S
H862 C875 0.930 . S
H863 C876 0.930 . S
H864 C880 0.959 . S
H865 C880 0.959 . S
H866 C880 0.961 . S
H867 C881 0.960 . S
H868 C881 0.961 . S
H869 C881 0.959 . S
H870 C884 0.929 . S
H871 C885 0.931 . S
H872 C887 0.930 . S
C873 H861 0.930 . S
C873 C874 1.399 . S
C873 C878 1.399 . S
C874 C873 1.399 . S
C874 C875 1.376 . S
C875 H862 0.930 . S
C875 C874 1.376 . S
C875 C876 1.388 . S
C876 H863 0.930 . S
C876 C875 1.388 . S
C876 C877 1.390 . S
C877 C876 1.390 . S
C877 C878 1.394 . S
C877 C883 1.465 . S
C878 C873 1.399 . S
C878 C877 1.394 . S
C878 C879 1.516 . S
C879 C878 1.516 . S
C879 C880 1.502 . S
C879 C881 1.561 . S
C879 C882 1.526 . S
C880 H864 0.959 . S
C880 H865 0.959 . S
C880 H866 0.961 . S
C880 C879 1.502 . S
C881 H867 0.960 . S
C881 H868 0.961 . S
C881 H869 0.959 . S
C881 C879 1.561 . S
C882 C879 1.526 . S
C882 C883 1.396 . S
C882 C887 1.390 . S
C883 C877 1.465 . S
C883 C882 1.396 . S
C883 C884 1.399 . S
C884 H870 0.929 . S
C884 C883 1.399 . S
C884 C885 1.385 . S
C885 H871 0.931 . S
C885 C884 1.385 . S
C885 C886 1.389 . S
C886 C885 1.389 . S
C886 C887 1.387 . S
C887 H872 0.930 . S
C887 C882 1.390 . S
C887 C886 1.387 . S
H888 C900 0.930 . S
H889 C902 0.930 . S
H890 C903 0.930 . S
H891 C907 0.959 . S
H892 C907 0.959 . S
H893 C907 0.961 . S
H894 C908 0.960 . S
H895 C908 0.961 . S
H896 C908 0.959 . S
H897 C911 0.929 . S
H898 C912 0.931 . S
H899 C914 0.930 . S
C900 H888 0.930 . S
C900 C901 1.399 . S
C900 C905 1.399 . S
C901 C900 1.399 . S
C901 C902 1.376 . S
C902 H889 0.930 . S
C902 C901 1.376 . S
C902 C903 1.388 . S
C903 H890 0.930 . S
C903 C902 1.388 . S
C903 C904 1.390 . S
C904 C903 1.390 . S
C904 C905 1.394 . S
C904 C910 1.465 . S
C905 C900 1.399 . S
C905 C904 1.394 . S
C905 C906 1.516 . S
C906 C905 1.516 . S
C906 C907 1.502 . S
C906 C908 1.561 . S
C906 C909 1.526 . S
C907 H891 0.959 . S
C907 H892 0.959 . S
C907 H893 0.961 . S
C907 C906 1.502 . S
C908 H894 0.960 . S
C908 H895 0.961 . S
C908 H896 0.959 . S
C908 C906 1.561 . S
C909 C906 1.526 . S
C909 C910 1.396 . S
C909 C914 1.390 . S
C910 C904 1.465 . S
C910 C909 1.396 . S
C910 C911 1.399 . S
C911 H897 0.929 . S
C911 C910 1.399 . S
C911 C912 1.385 . S
C912 H898 0.931 . S
C912 C911 1.385 . S
C912 C913 1.389 . S
C913 C912 1.389 . S
C913 C914 1.387 . S
C914 H899 0.930 . S
C914 C909 1.390 . S
C914 C913 1.387 . S
H915 C927 0.930 . S
H916 C929 0.930 . S
H917 C930 0.930 . S
H918 C934 0.959 . S
H919 C934 0.959 . S
H920 C934 0.961 . S
H921 C935 0.960 . S
H922 C935 0.961 . S
H923 C935 0.959 . S
H924 C938 0.929 . S
H925 C939 0.931 . S
H926 C941 0.930 . S
C927 H915 0.930 . S
C927 C928 1.399 . S
C927 C932 1.399 . S
C928 C927 1.399 . S
C928 C929 1.376 . S
C929 H916 0.930 . S
C929 C928 1.376 . S
C929 C930 1.388 . S
C930 H917 0.930 . S
C930 C929 1.388 . S
C930 C931 1.390 . S
C931 C930 1.390 . S
C931 C932 1.394 . S
C931 C937 1.465 . S
C932 C927 1.399 . S
C932 C931 1.394 . S
C932 C933 1.516 . S
C933 C932 1.516 . S
C933 C934 1.502 . S
C933 C935 1.561 . S
C933 C936 1.526 . S
C934 H918 0.959 . S
C934 H919 0.959 . S
C934 H920 0.961 . S
C934 C933 1.502 . S
C935 H921 0.960 . S
C935 H922 0.961 . S
C935 H923 0.959 . S
C935 C933 1.561 . S
C936 C933 1.526 . S
C936 C937 1.396 . S
C936 C941 1.390 . S
C937 C931 1.465 . S
C937 C936 1.396 . S
C937 C938 1.399 . S
C938 H924 0.929 . S
C938 C937 1.399 . S
C938 C939 1.385 . S
C939 H925 0.931 . S
C939 C938 1.385 . S
C939 C940 1.389 . S
C940 C939 1.389 . S
C940 C941 1.387 . S
C941 H926 0.930 . S
C941 C936 1.390 . S
C941 C940 1.387 . S
H942 C954 0.930 . S
H943 C956 0.930 . S
H944 C957 0.930 . S
H945 C961 0.959 . S
H946 C961 0.959 . S
H947 C961 0.961 . S
H948 C962 0.960 . S
H949 C962 0.961 . S
H950 C962 0.959 . S
H951 C965 0.929 . S
H952 C966 0.931 . S
H953 C968 0.930 . S
C954 H942 0.930 . S
C954 C955 1.399 . S
C954 C959 1.399 . S
C955 C954 1.399 . S
C955 C956 1.376 . S
C956 H943 0.930 . S
C956 C955 1.376 . S
C956 C957 1.388 . S
C957 H944 0.930 . S
C957 C956 1.388 . S
C957 C958 1.390 . S
C958 C957 1.390 . S
C958 C959 1.394 . S
C958 C964 1.465 . S
C959 C954 1.399 . S
C959 C958 1.394 . S
C959 C960 1.516 . S
C960 C959 1.516 . S
C960 C961 1.502 . S
C960 C962 1.561 . S
C960 C963 1.526 . S
C961 H945 0.959 . S
C961 H946 0.959 . S
C961 H947 0.961 . S
C961 C960 1.502 . S
C962 H948 0.960 . S
C962 H949 0.961 . S
C962 H950 0.959 . S
C962 C960 1.561 . S
C963 C960 1.526 . S
C963 C964 1.396 . S
C963 C968 1.390 . S
C964 C958 1.465 . S
C964 C963 1.396 . S
C964 C965 1.399 . S
C965 H951 0.929 . S
C965 C964 1.399 . S
C965 C966 1.385 . S
C966 H952 0.931 . S
C966 C965 1.385 . S
C966 C967 1.389 . S
C967 C966 1.389 . S
C967 C968 1.387 . S
C968 H953 0.930 . S
C968 C963 1.390 . S
C968 C967 1.387 . S
H969 C981 0.930 . S
H970 C983 0.930 . S
H971 C984 0.930 . S
H972 C988 0.959 . S
H973 C988 0.959 . S
H974 C988 0.961 . S
H975 C989 0.960 . S
H976 C989 0.961 . S
H977 C989 0.959 . S
H978 C992 0.929 . S
H979 C993 0.931 . S
H980 C995 0.930 . S
C981 H969 0.930 . S
C981 C982 1.399 . S
C981 C986 1.399 . S
C982 C981 1.399 . S
C982 C983 1.376 . S
C983 H970 0.930 . S
C983 C982 1.376 . S
C983 C984 1.388 . S
C984 H971 0.930 . S
C984 C983 1.388 . S
C984 C985 1.390 . S
C985 C984 1.390 . S
C985 C986 1.394 . S
C985 C991 1.465 . S
C986 C981 1.399 . S
C986 C985 1.394 . S
C986 C987 1.516 . S
C987 C986 1.516 . S
C987 C988 1.502 . S
C987 C989 1.561 . S
C987 C990 1.526 . S
C988 H972 0.959 . S
C988 H973 0.959 . S
C988 H974 0.961 . S
C988 C987 1.502 . S
C989 H975 0.960 . S
C989 H976 0.961 . S
C989 H977 0.959 . S
C989 C987 1.561 . S
C990 C987 1.526 . S
C990 C991 1.396 . S
C990 C995 1.390 . S
C991 C985 1.465 . S
C991 C990 1.396 . S
C991 C992 1.399 . S
C992 H978 0.929 . S
C992 C991 1.399 . S
C992 C993 1.385 . S
C993 H979 0.931 . S
C993 C992 1.385 . S
C993 C994 1.389 . S
C994 C993 1.389 . S
C994 C995 1.387 . S
C995 H980 0.930 . S
C995 C990 1.390 . S
C995 C994 1.387 . S
H996 C1008 0.930 . S
H997 C1010 0.930 . S
H998 C1011 0.930 . S
H999 C1015 0.959 . S
H1000 C1015 0.959 . S
H1001 C1015 0.961 . S
H1002 C1016 0.960 . S
H1003 C1016 0.961 . S
H1004 C1016 0.959 . S
H1005 C1019 0.929 . S
H1006 C1020 0.931 . S
H1007 C1022 0.930 . S
C1008 H996 0.930 . S
C1008 C1009 1.399 . S
C1008 C1013 1.399 . S
C1009 C1008 1.399 . S
C1009 C1010 1.376 . S
C1010 H997 0.930 . S
C1010 C1009 1.376 . S
C1010 C1011 1.388 . S
C1011 H998 0.930 . S
C1011 C1010 1.388 . S
C1011 C1012 1.390 . S
C1012 C1011 1.390 . S
C1012 C1013 1.394 . S
C1012 C1018 1.465 . S
C1013 C1008 1.399 . S
C1013 C1012 1.394 . S
C1013 C1014 1.516 . S
C1014 C1013 1.516 . S
C1014 C1015 1.502 . S
C1014 C1016 1.561 . S
C1014 C1017 1.526 . S
C1015 H999 0.959 . S
C1015 H1000 0.959 . S
C1015 H1001 0.961 . S
C1015 C1014 1.502 . S
C1016 H1002 0.960 . S
C1016 H1003 0.961 . S
C1016 H1004 0.959 . S
C1016 C1014 1.561 . S
C1017 C1014 1.526 . S
C1017 C1018 1.396 . S
C1017 C1022 1.390 . S
C1018 C1012 1.465 . S
C1018 C1017 1.396 . S
C1018 C1019 1.399 . S
C1019 H1005 0.929 . S
C1019 C1018 1.399 . S
C1019 C1020 1.385 . S
C1020 H1006 0.931 . S
C1020 C1019 1.385 . S
C1020 C1021 1.389 . S
C1021 C1020 1.389 . S
C1021 C1022 1.387 . S
C1022 H1007 0.930 . S
C1022 C1017 1.390 . S
C1022 C1021 1.387 . S
H1023 C1035 0.930 . S
H1024 C1037 0.930 . S
H1025 C1038 0.930 . S
H1026 C1042 0.959 . S
H1027 C1042 0.959 . S
H1028 C1042 0.961 . S
H1029 C1043 0.960 . S
H1030 C1043 0.961 . S
H1031 C1043 0.959 . S
H1032 C1046 0.929 . S
H1033 C1047 0.931 . S
H1034 C1049 0.930 . S
C1035 H1023 0.930 . S
C1035 C1036 1.399 . S
C1035 C1040 1.399 . S
C1036 C1035 1.399 . S
C1036 C1037 1.376 . S
C1037 H1024 0.930 . S
C1037 C1036 1.376 . S
C1037 C1038 1.388 . S
C1038 H1025 0.930 . S
C1038 C1037 1.388 . S
C1038 C1039 1.390 . S
C1039 C1038 1.390 . S
C1039 C1040 1.394 . S
C1039 C1045 1.465 . S
C1040 C1035 1.399 . S
C1040 C1039 1.394 . S
C1040 C1041 1.516 . S
C1041 C1040 1.516 . S
C1041 C1042 1.502 . S
C1041 C1043 1.561 . S
C1041 C1044 1.526 . S
C1042 H1026 0.959 . S
C1042 H1027 0.959 . S
C1042 H1028 0.961 . S
C1042 C1041 1.502 . S
C1043 H1029 0.960 . S
C1043 H1030 0.961 . S
C1043 H1031 0.959 . S
C1043 C1041 1.561 . S
C1044 C1041 1.526 . S
C1044 C1045 1.396 . S
C1044 C1049 1.390 . S
C1045 C1039 1.465 . S
C1045 C1044 1.396 . S
C1045 C1046 1.399 . S
C1046 H1032 0.929 . S
C1046 C1045 1.399 . S
C1046 C1047 1.385 . S
C1047 H1033 0.931 . S
C1047 C1046 1.385 . S
C1047 C1048 1.389 . S
C1048 C1047 1.389 . S
C1048 C1049 1.387 . S
C1049 H1034 0.930 . S
C1049 C1044 1.390 . S
C1049 C1048 1.387 . S
H1050 C1062 0.930 . S
H1051 C1064 0.930 . S
H1052 C1065 0.930 . S
H1053 C1069 0.959 . S
H1054 C1069 0.959 . S
H1055 C1069 0.961 . S
H1056 C1070 0.960 . S
H1057 C1070 0.961 . S
H1058 C1070 0.959 . S
H1059 C1073 0.929 . S
H1060 C1074 0.931 . S
H1061 C1076 0.930 . S
C1062 H1050 0.930 . S
C1062 C1063 1.399 . S
C1062 C1067 1.399 . S
C1063 C1062 1.399 . S
C1063 C1064 1.376 . S
C1064 H1051 0.930 . S
C1064 C1063 1.376 . S
C1064 C1065 1.388 . S
C1065 H1052 0.930 . S
C1065 C1064 1.388 . S
C1065 C1066 1.390 . S
C1066 C1065 1.390 . S
C1066 C1067 1.394 . S
C1066 C1072 1.465 . S
C1067 C1062 1.399 . S
C1067 C1066 1.394 . S
C1067 C1068 1.516 . S
C1068 C1067 1.516 . S
C1068 C1069 1.502 . S
C1068 C1070 1.561 . S
C1068 C1071 1.526 . S
C1069 H1053 0.959 . S
C1069 H1054 0.959 . S
C1069 H1055 0.961 . S
C1069 C1068 1.502 . S
C1070 H1056 0.960 . S
C1070 H1057 0.961 . S
C1070 H1058 0.959 . S
C1070 C1068 1.561 . S
C1071 C1068 1.526 . S
C1071 C1072 1.396 . S
C1071 C1076 1.390 . S
C1072 C1066 1.465 . S
C1072 C1071 1.396 . S
C1072 C1073 1.399 . S
C1073 H1059 0.929 . S
C1073 C1072 1.399 . S
C1073 C1074 1.385 . S
C1074 H1060 0.931 . S
C1074 C1073 1.385 . S
C1074 C1075 1.389 . S
C1075 C1074 1.389 . S
C1075 C1076 1.387 . S
C1076 H1061 0.930 . S
C1076 C1071 1.390 . S
C1076 C1075 1.387 . S
H1077 C1089 0.930 . S
H1078 C1091 0.930 . S
H1079 C1092 0.930 . S
H1080 C1096 0.959 . S
H1081 C1096 0.959 . S
H1082 C1096 0.961 . S
H1083 C1097 0.960 . S
H1084 C1097 0.961 . S
H1085 C1097 0.959 . S
H1086 C1100 0.929 . S
H1087 C1101 0.931 . S
H1088 C1103 0.930 . S
C1089 H1077 0.930 . S
C1089 C1090 1.399 . S
C1089 C1094 1.399 . S
C1090 C1089 1.399 . S
C1090 C1091 1.376 . S
C1091 H1078 0.930 . S
C1091 C1090 1.376 . S
C1091 C1092 1.388 . S
C1092 H1079 0.930 . S
C1092 C1091 1.388 . S
C1092 C1093 1.390 . S
C1093 C1092 1.390 . S
C1093 C1094 1.394 . S
C1093 C1099 1.465 . S
C1094 C1089 1.399 . S
C1094 C1093 1.394 . S
C1094 C1095 1.516 . S
C1095 C1094 1.516 . S
C1095 C1096 1.502 . S
C1095 C1097 1.561 . S
C1095 C1098 1.526 . S
C1096 H1080 0.959 . S
C1096 H1081 0.959 . S
C1096 H1082 0.961 . S
C1096 C1095 1.502 . S
C1097 H1083 0.960 . S
C1097 H1084 0.961 . S
C1097 H1085 0.959 . S
C1097 C1095 1.561 . S
C1098 C1095 1.526 . S
C1098 C1099 1.396 . S
C1098 C1103 1.390 . S
C1099 C1093 1.465 . S
C1099 C1098 1.396 . S
C1099 C1100 1.399 . S
C1100 H1086 0.929 . S
C1100 C1099 1.399 . S
C1100 C1101 1.385 . S
C1101 H1087 0.931 . S
C1101 C1100 1.385 . S
C1101 C1102 1.389 . S
C1102 C1101 1.389 . S
C1102 C1103 1.387 . S
C1103 H1088 0.930 . S
C1103 C1098 1.390 . S
C1103 C1102 1.387 . S
H1104 C1116 0.930 . S
H1105 C1118 0.930 . S
H1106 C1119 0.930 . S
H1107 C1123 0.959 . S
H1108 C1123 0.959 . S
H1109 C1123 0.961 . S
H1110 C1124 0.960 . S
H1111 C1124 0.961 . S
H1112 C1124 0.959 . S
H1113 C1127 0.929 . S
H1114 C1128 0.931 . S
H1115 C1130 0.930 . S
C1116 H1104 0.930 . S
C1116 C1117 1.399 . S
C1116 C1121 1.399 . S
C1117 C1116 1.399 . S
C1117 C1118 1.376 . S
C1118 H1105 0.930 . S
C1118 C1117 1.376 . S
C1118 C1119 1.388 . S
C1119 H1106 0.930 . S
C1119 C1118 1.388 . S
C1119 C1120 1.390 . S
C1120 C1119 1.390 . S
C1120 C1121 1.394 . S
C1120 C1126 1.465 . S
C1121 C1116 1.399 . S
C1121 C1120 1.394 . S
C1121 C1122 1.516 . S
C1122 C1121 1.516 . S
C1122 C1123 1.502 . S
C1122 C1124 1.561 . S
C1122 C1125 1.526 . S
C1123 H1107 0.959 . S
C1123 H1108 0.959 . S
C1123 H1109 0.961 . S
C1123 C1122 1.502 . S
C1124 H1110 0.960 . S
C1124 H1111 0.961 . S
C1124 H1112 0.959 . S
C1124 C1122 1.561 . S
C1125 C1122 1.526 . S
C1125 C1126 1.396 . S
C1125 C1130 1.390 . S
C1126 C1120 1.465 . S
C1126 C1125 1.396 . S
C1126 C1127 1.399 . S
C1127 H1113 0.929 . S
C1127 C1126 1.399 . S
C1127 C1128 1.385 . S
C1128 H1114 0.931 . S
C1128 C1127 1.385 . S
C1128 C1129 1.389 . S
C1129 C1128 1.389 . S
C1129 C1130 1.387 . S
C1130 H1115 0.930 . S
C1130 C1125 1.390 . S
C1130 C1129 1.387 . S
H1131 C1143 0.930 . S
H1132 C1145 0.930 . S
H1133 C1146 0.930 . S
H1134 C1150 0.959 . S
H1135 C1150 0.959 . S
H1136 C1150 0.961 . S
H1137 C1151 0.960 . S
H1138 C1151 0.961 . S
H1139 C1151 0.959 . S
H1140 C1154 0.929 . S
H1141 C1155 0.931 . S
H1142 C1157 0.930 . S
C1143 H1131 0.930 . S
C1143 C1144 1.399 . S
C1143 C1148 1.399 . S
C1144 C1143 1.399 . S
C1144 C1145 1.376 . S
C1145 H1132 0.930 . S
C1145 C1144 1.376 . S
C1145 C1146 1.388 . S
C1146 H1133 0.930 . S
C1146 C1145 1.388 . S
C1146 C1147 1.390 . S
C1147 C1146 1.390 . S
C1147 C1148 1.394 . S
C1147 C1153 1.465 . S
C1148 C1143 1.399 . S
C1148 C1147 1.394 . S
C1148 C1149 1.516 . S
C1149 C1148 1.516 . S
C1149 C1150 1.502 . S
C1149 C1151 1.561 . S
C1149 C1152 1.526 . S
C1150 H1134 0.959 . S
C1150 H1135 0.959 . S
C1150 H1136 0.961 . S
C1150 C1149 1.502 . S
C1151 H1137 0.960 . S
C1151 H1138 0.961 . S
C1151 H1139 0.959 . S
C1151 C1149 1.561 . S
C1152 C1149 1.526 . S
C1152 C1153 1.396 . S
C1152 C1157 1.390 . S
C1153 C1147 1.465 . S
C1153 C1152 1.396 . S
C1153 C1154 1.399 . S
C1154 H1140 0.929 . S
C1154 C1153 1.399 . S
C1154 C1155 1.385 . S
C1155 H1141 0.931 . S
C1155 C1154 1.385 . S
C1155 C1156 1.389 . S
C1156 C1155 1.389 . S
C1156 C1157 1.387 . S
C1157 H1142 0.930 . S
C1157 C1152 1.390 . S
C1157 C1156 1.387 . S
H1158 C1170 0.930 . S
H1159 C1172 0.930 . S
H1160 C1173 0.930 . S
H1161 C1177 0.959 . S
H1162 C1177 0.959 . S
H1163 C1177 0.961 . S
H1164 C1178 0.960 . S
H1165 C1178 0.961 . S
H1166 C1178 0.959 . S
H1167 C1181 0.929 . S
H1168 C1182 0.931 . S
H1169 C1184 0.930 . S
C1170 H1158 0.930 . S
C1170 C1171 1.399 . S
C1170 C1175 1.399 . S
C1171 C1170 1.399 . S
C1171 C1172 1.376 . S
C1172 H1159 0.930 . S
C1172 C1171 1.376 . S
C1172 C1173 1.388 . S
C1173 H1160 0.930 . S
C1173 C1172 1.388 . S
C1173 C1174 1.390 . S
C1174 C1173 1.390 . S
C1174 C1175 1.394 . S
C1174 C1180 1.465 . S
C1175 C1170 1.399 . S
C1175 C1174 1.394 . S
C1175 C1176 1.516 . S
C1176 C1175 1.516 . S
C1176 C1177 1.502 . S
C1176 C1178 1.561 . S
C1176 C1179 1.526 . S
C1177 H1161 0.959 . S
C1177 H1162 0.959 . S
C1177 H1163 0.961 . S
C1177 C1176 1.502 . S
C1178 H1164 0.960 . S
C1178 H1165 0.961 . S
C1178 H1166 0.959 . S
C1178 C1176 1.561 . S
C1179 C1176 1.526 . S
C1179 C1180 1.396 . S
C1179 C1184 1.390 . S
C1180 C1174 1.465 . S
C1180 C1179 1.396 . S
C1180 C1181 1.399 . S
C1181 H1167 0.929 . S
C1181 C1180 1.399 . S
C1181 C1182 1.385 . S
C1182 H1168 0.931 . S
C1182 C1181 1.385 . S
C1182 C1183 1.389 . S
C1183 C1182 1.389 . S
C1183 C1184 1.387 . S
C1184 H1169 0.930 . S
C1184 C1179 1.390 . S
C1184 C1183 1.387 . S
H1185 C1197 0.930 . S
H1186 C1199 0.930 . S
H1187 C1200 0.930 . S
H1188 C1204 0.959 . S
H1189 C1204 0.959 . S
H1190 C1204 0.961 . S
H1191 C1205 0.960 . S
H1192 C1205 0.961 . S
H1193 C1205 0.959 . S
H1194 C1208 0.929 . S
H1195 C1209 0.931 . S
H1196 C1211 0.930 . S
C1197 H1185 0.930 . S
C1197 C1198 1.399 . S
C1197 C1202 1.399 . S
C1198 C1197 1.399 . S
C1198 C1199 1.376 . S
C1199 H1186 0.930 . S
C1199 C1198 1.376 . S
C1199 C1200 1.388 . S
C1200 H1187 0.930 . S
C1200 C1199 1.388 . S
C1200 C1201 1.390 . S
C1201 C1200 1.390 . S
C1201 C1202 1.394 . S
C1201 C1207 1.465 . S
C1202 C1197 1.399 . S
C1202 C1201 1.394 . S
C1202 C1203 1.516 . S
C1203 C1202 1.516 . S
C1203 C1204 1.502 . S
C1203 C1205 1.561 . S
C1203 C1206 1.526 . S
C1204 H1188 0.959 . S
C1204 H1189 0.959 . S
C1204 H1190 0.961 . S
C1204 C1203 1.502 . S
C1205 H1191 0.960 . S
C1205 H1192 0.961 . S
C1205 H1193 0.959 . S
C1205 C1203 1.561 . S
C1206 C1203 1.526 . S
C1206 C1207 1.396 . S
C1206 C1211 1.390 . S
C1207 C1201 1.465 . S
C1207 C1206 1.396 . S
C1207 C1208 1.399 . S
C1208 H1194 0.929 . S
C1208 C1207 1.399 . S
C1208 C1209 1.385 . S
C1209 H1195 0.931 . S
C1209 C1208 1.385 . S
C1209 C1210 1.389 . S
C1210 C1209 1.389 . S
C1210 C1211 1.387 . S
C1211 H1196 0.930 . S
C1211 C1206 1.390 . S
C1211 C1210 1.387 . S
H1212 C1224 0.930 . S
H1213 C1226 0.930 . S
H1214 C1227 0.930 . S
H1215 C1231 0.959 . S
H1216 C1231 0.959 . S
H1217 C1231 0.961 . S
H1218 C1232 0.960 . S
H1219 C1232 0.961 . S
H1220 C1232 0.959 . S
H1221 C1235 0.929 . S
H1222 C1236 0.931 . S
H1223 C1238 0.930 . S
C1224 H1212 0.930 . S
C1224 C1225 1.399 . S
C1224 C1229 1.399 . S
C1225 C1224 1.399 . S
C1225 C1226 1.376 . S
C1226 H1213 0.930 . S
C1226 C1225 1.376 . S
C1226 C1227 1.388 . S
C1227 H1214 0.930 . S
C1227 C1226 1.388 . S
C1227 C1228 1.390 . S
C1228 C1227 1.390 . S
C1228 C1229 1.394 . S
C1228 C1234 1.465 . S
C1229 C1224 1.399 . S
C1229 C1228 1.394 . S
C1229 C1230 1.516 . S
C1230 C1229 1.516 . S
C1230 C1231 1.502 . S
C1230 C1232 1.561 . S
C1230 C1233 1.526 . S
C1231 H1215 0.959 . S
C1231 H1216 0.959 . S
C1231 H1217 0.961 . S
C1231 C1230 1.502 . S
C1232 H1218 0.960 . S
C1232 H1219 0.961 . S
C1232 H1220 0.959 . S
C1232 C1230 1.561 . S
C1233 C1230 1.526 . S
C1233 C1234 1.396 . S
C1233 C1238 1.390 . S
C1234 C1228 1.465 . S
C1234 C1233 1.396 . S
C1234 C1235 1.399 . S
C1235 H1221 0.929 . S
C1235 C1234 1.399 . S
C1235 C1236 1.385 . S
C1236 H1222 0.931 . S
C1236 C1235 1.385 . S
C1236 C1237 1.389 . S
C1237 C1236 1.389 . S
C1237 C1238 1.387 . S
C1238 H1223 0.930 . S
C1238 C1233 1.390 . S
C1238 C1237 1.387 . S
H1239 C1251 0.930 . S
H1240 C1253 0.930 . S
H1241 C1254 0.930 . S
H1242 C1258 0.959 . S
H1243 C1258 0.959 . S
H1244 C1258 0.961 . S
H1245 C1259 0.960 . S
H1246 C1259 0.961 . S
H1247 C1259 0.959 . S
H1248 C1262 0.929 . S
H1249 C1263 0.931 . S
H1250 C1265 0.930 . S
C1251 H1239 0.930 . S
C1251 C1252 1.399 . S
C1251 C1256 1.399 . S
C1252 C1251 1.399 . S
C1252 C1253 1.376 . S
C1253 H1240 0.930 . S
C1253 C1252 1.376 . S
C1253 C1254 1.388 . S
C1254 H1241 0.930 . S
C1254 C1253 1.388 . S
C1254 C1255 1.390 . S
C1255 C1254 1.390 . S
C1255 C1256 1.394 . S
C1255 C1261 1.465 . S
C1256 C1251 1.399 . S
C1256 C1255 1.394 . S
C1256 C1257 1.516 . S
C1257 C1256 1.516 . S
C1257 C1258 1.502 . S
C1257 C1259 1.561 . S
C1257 C1260 1.526 . S
C1258 H1242 0.959 . S
C1258 H1243 0.959 . S
C1258 H1244 0.961 . S
C1258 C1257 1.502 . S
C1259 H1245 0.960 . S
C1259 H1246 0.961 . S
C1259 H1247 0.959 . S
C1259 C1257 1.561 . S
C1260 C1257 1.526 . S
C1260 C1261 1.396 . S
C1260 C1265 1.390 . S
C1261 C1255 1.465 . S
C1261 C1260 1.396 . S
C1261 C1262 1.399 . S
C1262 H1248 0.929 . S
C1262 C1261 1.399 . S
C1262 C1263 1.385 . S
C1263 H1249 0.931 . S
C1263 C1262 1.385 . S
C1263 C1264 1.389 . S
C1264 C1263 1.389 . S
C1264 C1265 1.387 . S
C1265 H1250 0.930 . S
C1265 C1260 1.390 . S
C1265 C1264 1.387 . S
H1266 C1278 0.930 . S
H1267 C1280 0.930 . S
H1268 C1281 0.930 . S
H1269 C1285 0.959 . S
H1270 C1285 0.959 . S
H1271 C1285 0.961 . S
H1272 C1286 0.960 . S
H1273 C1286 0.961 . S
H1274 C1286 0.959 . S
H1275 C1289 0.929 . S
H1276 C1290 0.931 . S
H1277 C1292 0.930 . S
C1278 H1266 0.930 . S
C1278 C1279 1.399 . S
C1278 C1283 1.399 . S
C1279 C1278 1.399 . S
C1279 C1280 1.376 . S
C1280 H1267 0.930 . S
C1280 C1279 1.376 . S
C1280 C1281 1.388 . S
C1281 H1268 0.930 . S
C1281 C1280 1.388 . S
C1281 C1282 1.390 . S
C1282 C1281 1.390 . S
C1282 C1283 1.394 . S
C1282 C1288 1.465 . S
C1283 C1278 1.399 . S
C1283 C1282 1.394 . S
C1283 C1284 1.516 . S
C1284 C1283 1.516 . S
C1284 C1285 1.502 . S
C1284 C1286 1.561 . S
C1284 C1287 1.526 . S
C1285 H1269 0.959 . S
C1285 H1270 0.959 . S
C1285 H1271 0.961 . S
C1285 C1284 1.502 . S
C1286 H1272 0.960 . S
C1286 H1273 0.961 . S
C1286 H1274 0.959 . S
C1286 C1284 1.561 . S
C1287 C1284 1.526 . S
C1287 C1288 1.396 . S
C1287 C1292 1.390 . S
C1288 C1282 1.465 . S
C1288 C1287 1.396 . S
C1288 C1289 1.399 . S
C1289 H1275 0.929 . S
C1289 C1288 1.399 . S
C1289 C1290 1.385 . S
C1290 H1276 0.931 . S
C1290 C1289 1.385 . S
C1290 C1291 1.389 . S
C1291 C1290 1.389 . S
C1291 C1292 1.387 . S
C1292 H1277 0.930 . S
C1292 C1287 1.390 . S
C1292 C1291 1.387 . S
H1293 C1305 0.930 . S
H1294 C1307 0.930 . S
H1295 C1308 0.930 . S
H1296 C1312 0.959 . S
H1297 C1312 0.959 . S
H1298 C1312 0.961 . S
H1299 C1313 0.960 . S
H1300 C1313 0.961 . S
H1301 C1313 0.959 . S
H1302 C1316 0.929 . S
H1303 C1317 0.931 . S
H1304 C1319 0.930 . S
C1305 H1293 0.930 . S
C1305 C1306 1.399 . S
C1305 C1310 1.399 . S
C1306 C1305 1.399 . S
C1306 C1307 1.376 . S
C1307 H1294 0.930 . S
C1307 C1306 1.376 . S
C1307 C1308 1.388 . S
C1308 H1295 0.930 . S
C1308 C1307 1.388 . S
C1308 C1309 1.390 . S
C1309 C1308 1.390 . S
C1309 C1310 1.394 . S
C1309 C1315 1.465 . S
C1310 C1305 1.399 . S
C1310 C1309 1.394 . S
C1310 C1311 1.516 . S
C1311 C1310 1.516 . S
C1311 C1312 1.502 . S
C1311 C1313 1.561 . S
C1311 C1314 1.526 . S
C1312 H1296 0.959 . S
C1312 H1297 0.959 . S
C1312 H1298 0.961 . S
C1312 C1311 1.502 . S
C1313 H1299 0.960 . S
C1313 H1300 0.961 . S
C1313 H1301 0.959 . S
C1313 C1311 1.561 . S
C1314 C1311 1.526 . S
C1314 C1315 1.396 . S
C1314 C1319 1.390 . S
C1315 C1309 1.465 . S
C1315 C1314 1.396 . S
C1315 C1316 1.399 . S
C1316 H1302 0.929 . S
C1316 C1315 1.399 . S
C1316 C1317 1.385 . S
C1317 H1303 0.931 . S
C1317 C1316 1.385 . S
C1317 C1318 1.389 . S
C1318 C1317 1.389 . S
C1318 C1319 1.387 . S
C1319 H1304 0.930 . S
C1319 C1314 1.390 . S
C1319 C1318 1.387 . S
H1320 C1332 0.930 . S
H1321 C1334 0.930 . S
H1322 C1335 0.930 . S
H1323 C1339 0.959 . S
H1324 C1339 0.959 . S
H1325 C1339 0.961 . S
H1326 C1340 0.960 . S
H1327 C1340 0.961 . S
H1328 C1340 0.959 . S
H1329 C1343 0.929 . S
H1330 C1344 0.931 . S
H1331 C1346 0.930 . S
C1332 H1320 0.930 . S
C1332 C1333 1.399 . S
C1332 C1337 1.399 . S
C1333 C1332 1.399 . S
C1333 C1334 1.376 . S
C1334 H1321 0.930 . S
C1334 C1333 1.376 . S
C1334 C1335 1.388 . S
C1335 H1322 0.930 . S
C1335 C1334 1.388 . S
C1335 C1336 1.390 . S
C1336 C1335 1.390 . S
C1336 C1337 1.394 . S
C1336 C1342 1.465 . S
C1337 C1332 1.399 . S
C1337 C1336 1.394 . S
C1337 C1338 1.516 . S
C1338 C1337 1.516 . S
C1338 C1339 1.502 . S
C1338 C1340 1.561 . S
C1338 C1341 1.526 . S
C1339 H1323 0.959 . S
C1339 H1324 0.959 . S
C1339 H1325 0.961 . S
C1339 C1338 1.502 . S
C1340 H1326 0.960 . S
C1340 H1327 0.961 . S
C1340 H1328 0.959 . S
C1340 C1338 1.561 . S
C1341 C1338 1.526 . S
C1341 C1342 1.396 . S
C1341 C1346 1.390 . S
C1342 C1336 1.465 . S
C1342 C1341 1.396 . S
C1342 C1343 1.399 . S
C1343 H1329 0.929 . S
C1343 C1342 1.399 . S
C1343 C1344 1.385 . S
C1344 H1330 0.931 . S
C1344 C1343 1.385 . S
C1344 C1345 1.389 . S
C1345 C1344 1.389 . S
C1345 C1346 1.387 . S
C1346 H1331 0.930 . S
C1346 C1341 1.390 . S
C1346 C1345 1.387 . S
H1347 C1359 0.930 . S
H1348 C1361 0.930 . S
H1349 C1362 0.930 . S
H1350 C1366 0.959 . S
H1351 C1366 0.959 1_554 S
H1352 C1366 0.961 . S
H1353 C1367 0.960 . S
H1354 C1367 0.961 1_554 S
H1355 C1367 0.959 . S
H1356 C1370 0.929 . S
H1357 C1371 0.931 . S
H1358 C1373 0.930 . S
C1359 H1347 0.930 . S
C1359 C1360 1.399 . S
C1359 C1364 1.399 . S
C1360 C1359 1.399 . S
C1360 C1361 1.376 . S
C1361 H1348 0.930 . S
C1361 C1360 1.376 . S
C1361 C1362 1.388 . S
C1362 H1349 0.930 . S
C1362 C1361 1.388 . S
C1362 C1363 1.390 . S
C1363 C1362 1.390 . S
C1363 C1364 1.394 . S
C1363 C1369 1.465 1_556 S
C1364 C1359 1.399 . S
C1364 C1363 1.394 . S
C1364 C1365 1.516 . S
C1365 C1364 1.516 . S
C1365 C1366 1.502 . S
C1365 C1367 1.561 . S
C1365 C1368 1.526 1_556 S
C1366 H1350 0.959 . S
C1366 H1351 0.959 1_556 S
C1366 H1352 0.961 . S
C1366 C1365 1.502 . S
C1367 H1353 0.960 . S
C1367 H1354 0.961 1_556 S
C1367 H1355 0.959 . S
C1367 C1365 1.561 . S
C1368 C1365 1.526 1_554 S
C1368 C1369 1.396 . S
C1368 C1373 1.390 . S
C1369 C1363 1.465 1_554 S
C1369 C1368 1.396 . S
C1369 C1370 1.399 . S
C1370 H1356 0.929 . S
C1370 C1369 1.399 . S
C1370 C1371 1.385 . S
C1371 H1357 0.931 . S
C1371 C1370 1.385 . S
C1371 C1372 1.389 . S
C1372 C1371 1.389 . S
C1372 C1373 1.387 . S
C1373 H1358 0.930 . S
C1373 C1368 1.390 . S
C1373 C1372 1.387 . S
H1374 C1386 0.930 . S
H1375 C1388 0.930 . S
H1376 C1389 0.930 . S
H1377 C1393 0.959 . S
H1378 C1393 0.959 . S
H1379 C1393 0.961 . S
H1380 C1394 0.960 . S
H1381 C1394 0.961 . S
H1382 C1394 0.959 . S
H1383 C1397 0.929 . S
H1384 C1398 0.931 . S
H1385 C1400 0.930 . S
C1386 H1374 0.930 . S
C1386 C1387 1.399 . S
C1386 C1391 1.399 . S
C1387 C1386 1.399 . S
C1387 C1388 1.376 . S
C1388 H1375 0.930 . S
C1388 C1387 1.376 . S
C1388 C1389 1.388 . S
C1389 H1376 0.930 . S
C1389 C1388 1.388 . S
C1389 C1390 1.390 . S
C1390 C1389 1.390 . S
C1390 C1391 1.394 . S
C1390 C1396 1.465 . S
C1391 C1386 1.399 . S
C1391 C1390 1.394 . S
C1391 C1392 1.516 . S
C1392 C1391 1.516 . S
C1392 C1393 1.502 . S
C1392 C1394 1.561 . S
C1392 C1395 1.526 . S
C1393 H1377 0.959 . S
C1393 H1378 0.959 . S
C1393 H1379 0.961 . S
C1393 C1392 1.502 . S
C1394 H1380 0.960 . S
C1394 H1381 0.961 . S
C1394 H1382 0.959 . S
C1394 C1392 1.561 . S
C1395 C1392 1.526 . S
C1395 C1396 1.396 . S
C1395 C1400 1.390 . S
C1396 C1390 1.465 . S
C1396 C1395 1.396 . S
C1396 C1397 1.399 . S
C1397 H1383 0.929 . S
C1397 C1396 1.399 . S
C1397 C1398 1.385 . S
C1398 H1384 0.931 . S
C1398 C1397 1.385 . S
C1398 C1399 1.389 . S
C1399 C1398 1.389 . S
C1399 C1400 1.387 . S
C1400 H1385 0.930 . S
C1400 C1395 1.390 . S
C1400 C1399 1.387 . S
H1401 C1413 0.930 . S
H1402 C1415 0.930 . S
H1403 C1416 0.930 . S
H1404 C1420 0.959 . S
H1405 C1420 0.959 . S
H1406 C1420 0.961 . S
H1407 C1421 0.960 . S
H1408 C1421 0.961 . S
H1409 C1421 0.959 . S
H1410 C1424 0.929 . S
H1411 C1425 0.931 . S
H1412 C1427 0.930 . S
C1413 H1401 0.930 . S
C1413 C1414 1.399 . S
C1413 C1418 1.399 . S
C1414 C1413 1.399 . S
C1414 C1415 1.376 . S
C1415 H1402 0.930 . S
C1415 C1414 1.376 . S
C1415 C1416 1.388 . S
C1416 H1403 0.930 . S
C1416 C1415 1.388 . S
C1416 C1417 1.390 1_556 S
C1417 C1416 1.390 1_554 S
C1417 C1418 1.394 1_554 S
C1417 C1423 1.465 . S
C1418 C1413 1.399 . S
C1418 C1417 1.394 1_556 S
C1418 C1419 1.516 1_556 S
C1419 C1418 1.516 1_554 S
C1419 C1420 1.502 . S
C1419 C1421 1.561 . S
C1419 C1422 1.526 . S
C1420 H1404 0.959 . S
C1420 H1405 0.959 . S
C1420 H1406 0.961 . S
C1420 C1419 1.502 . S
C1421 H1407 0.960 . S
C1421 H1408 0.961 . S
C1421 H1409 0.959 . S
C1421 C1419 1.561 . S
C1422 C1419 1.526 . S
C1422 C1423 1.396 . S
C1422 C1427 1.390 . S
C1423 C1417 1.465 . S
C1423 C1422 1.396 . S
C1423 C1424 1.399 . S
C1424 H1410 0.929 . S
C1424 C1423 1.399 . S
C1424 C1425 1.385 . S
C1425 H1411 0.931 . S
C1425 C1424 1.385 . S
C1425 C1426 1.389 . S
C1426 C1425 1.389 . S
C1426 C1427 1.387 . S
C1427 H1412 0.930 . S
C1427 C1422 1.390 . S
C1427 C1426 1.387 . S
H1428 C1440 0.930 . S
H1429 C1442 0.930 . S
H1430 C1443 0.930 . S
H1431 C1447 0.959 . S
H1432 C1447 0.959 . S
H1433 C1447 0.961 . S
H1434 C1448 0.960 . S
H1435 C1448 0.961 . S
H1436 C1448 0.959 . S
H1437 C1451 0.929 . S
H1438 C1452 0.931 . S
H1439 C1454 0.930 . S
C1440 H1428 0.930 . S
C1440 C1441 1.399 . S
C1440 C1445 1.399 . S
C1441 C1440 1.399 . S
C1441 C1442 1.376 . S
C1442 H1429 0.930 . S
C1442 C1441 1.376 . S
C1442 C1443 1.388 . S
C1443 H1430 0.930 . S
C1443 C1442 1.388 . S
C1443 C1444 1.390 . S
C1444 C1443 1.390 . S
C1444 C1445 1.394 . S
C1444 C1450 1.465 . S
C1445 C1440 1.399 . S
C1445 C1444 1.394 . S
C1445 C1446 1.516 . S
C1446 C1445 1.516 . S
C1446 C1447 1.502 . S
C1446 C1448 1.561 . S
C1446 C1449 1.526 . S
C1447 H1431 0.959 . S
C1447 H1432 0.959 . S
C1447 H1433 0.961 . S
C1447 C1446 1.502 . S
C1448 H1434 0.960 . S
C1448 H1435 0.961 . S
C1448 H1436 0.959 . S
C1448 C1446 1.561 . S
C1449 C1446 1.526 . S
C1449 C1450 1.396 . S
C1449 C1454 1.390 . S
C1450 C1444 1.465 . S
C1450 C1449 1.396 . S
C1450 C1451 1.399 . S
C1451 H1437 0.929 . S
C1451 C1450 1.399 . S
C1451 C1452 1.385 . S
C1452 H1438 0.931 . S
C1452 C1451 1.385 . S
C1452 C1453 1.389 . S
C1453 C1452 1.389 . S
C1453 C1454 1.387 . S
C1454 H1439 0.930 . S
C1454 C1449 1.390 . S
C1454 C1453 1.387 . S
H1455 C1467 0.930 . S
H1456 C1469 0.930 . S
H1457 C1470 0.930 . S
H1458 C1474 0.959 . S
H1459 C1474 0.955 . S
H1460 C1474 0.965 1_556 S
H1461 C1475 0.960 1_556 S
H1462 C1475 0.961 . S
H1463 C1475 0.959 . S
H1464 C1478 0.929 . S
H1465 C1479 0.931 . S
H1466 C1481 0.930 . S
C1467 H1455 0.930 . S
C1467 C1468 1.399 . S
C1467 C1472 1.399 . S
C1468 C1467 1.399 . S
C1468 C1469 1.376 . S
C1469 H1456 0.930 . S
C1469 C1468 1.376 . S
C1469 C1470 1.388 . S
C1470 H1457 0.930 . S
C1470 C1469 1.388 . S
C1470 C1471 1.390 . S
C1471 C1470 1.390 . S
C1471 C1472 1.394 . S
C1471 C1477 1.465 1_556 S
C1472 C1467 1.399 . S
C1472 C1471 1.394 . S
C1472 C1473 1.516 1_556 S
C1473 C1472 1.516 1_554 S
C1473 C1474 1.502 . S
C1473 C1475 1.561 . S
C1473 C1476 1.526 . S
C1474 H1458 0.959 . S
C1474 H1459 0.955 . S
C1474 H1460 0.965 1_554 S
C1474 C1473 1.502 . S
C1475 H1461 0.960 1_554 S
C1475 H1462 0.961 . S
C1475 H1463 0.959 . S
C1475 C1473 1.561 . S
C1476 C1473 1.526 . S
C1476 C1477 1.396 . S
C1476 C1481 1.390 . S
C1477 C1471 1.465 1_554 S
C1477 C1476 1.396 . S
C1477 C1478 1.399 . S
C1478 H1464 0.929 . S
C1478 C1477 1.399 . S
C1478 C1479 1.385 . S
C1479 H1465 0.931 . S
C1479 C1478 1.385 . S
C1479 C1480 1.389 . S
C1480 C1479 1.389 . S
C1480 C1481 1.387 . S
C1481 H1466 0.930 . S
C1481 C1476 1.390 . S
C1481 C1480 1.387 . S
H1482 C1494 0.930 . S
H1483 C1496 0.930 . S
H1484 C1497 0.930 . S
H1485 C1501 0.959 . S
H1486 C1501 0.959 . S
H1487 C1501 0.961 . S
H1488 C1502 0.960 . S
H1489 C1502 0.961 . S
H1490 C1502 0.959 . S
H1491 C1505 0.929 . S
H1492 C1506 0.931 . S
H1493 C1508 0.930 . S
C1494 H1482 0.930 . S
C1494 C1495 1.399 . S
C1494 C1499 1.399 . S
C1495 C1494 1.399 . S
C1495 C1496 1.376 . S
C1496 H1483 0.930 . S
C1496 C1495 1.376 . S
C1496 C1497 1.388 . S
C1497 H1484 0.930 . S
C1497 C1496 1.388 . S
C1497 C1498 1.390 . S
C1498 C1497 1.390 . S
C1498 C1499 1.394 . S
C1498 C1504 1.465 . S
C1499 C1494 1.399 . S
C1499 C1498 1.394 . S
C1499 C1500 1.516 . S
C1500 C1499 1.516 . S
C1500 C1501 1.502 . S
C1500 C1502 1.561 . S
C1500 C1503 1.526 . S
C1501 H1485 0.959 . S
C1501 H1486 0.959 . S
C1501 H1487 0.961 . S
C1501 C1500 1.502 . S
C1502 H1488 0.960 . S
C1502 H1489 0.961 . S
C1502 H1490 0.959 . S
C1502 C1500 1.561 . S
C1503 C1500 1.526 . S
C1503 C1504 1.396 . S
C1503 C1508 1.390 . S
C1504 C1498 1.465 . S
C1504 C1503 1.396 . S
C1504 C1505 1.399 . S
C1505 H1491 0.929 . S
C1505 C1504 1.399 . S
C1505 C1506 1.385 . S
C1506 H1492 0.931 . S
C1506 C1505 1.385 . S
C1506 C1507 1.389 . S
C1507 C1506 1.389 . S
C1507 C1508 1.387 . S
C1508 H1493 0.930 . S
C1508 C1503 1.390 . S
C1508 C1507 1.387 . S
H1509 C1521 0.930 . S
H1510 C1523 0.930 . S
H1511 C1524 0.930 . S
H1512 C1528 0.959 . S
H1513 C1528 0.959 . S
H1514 C1528 0.961 . S
H1515 C1529 0.960 . S
H1516 C1529 0.961 . S
H1517 C1529 0.959 . S
H1518 C1532 0.929 . S
H1519 C1533 0.931 . S
H1520 C1535 0.930 . S
C1521 H1509 0.930 . S
C1521 C1522 1.399 . S
C1521 C1526 1.399 . S
C1522 C1521 1.399 . S
C1522 C1523 1.376 . S
C1523 H1510 0.930 . S
C1523 C1522 1.376 . S
C1523 C1524 1.388 . S
C1524 H1511 0.930 . S
C1524 C1523 1.388 . S
C1524 C1525 1.390 . S
C1525 C1524 1.390 . S
C1525 C1526 1.394 . S
C1525 C1531 1.465 . S
C1526 C1521 1.399 . S
C1526 C1525 1.394 . S
C1526 C1527 1.516 . S
C1527 C1526 1.516 . S
C1527 C1528 1.502 . S
C1527 C1529 1.561 . S
C1527 C1530 1.526 1_556 S
C1528 H1512 0.959 . S
C1528 H1513 0.959 . S
C1528 H1514 0.961 . S
C1528 C1527 1.502 . S
C1529 H1515 0.960 . S
C1529 H1516 0.961 . S
C1529 H1517 0.959 . S
C1529 C1527 1.561 . S
C1530 C1527 1.526 1_554 S
C1530 C1531 1.396 1_554 S
C1530 C1535 1.390 . S
C1531 C1525 1.465 . S
C1531 C1530 1.396 1_556 S
C1531 C1532 1.399 1_556 S
C1532 H1518 0.929 . S
C1532 C1531 1.399 1_554 S
C1532 C1533 1.385 . S
C1533 H1519 0.931 . S
C1533 C1532 1.385 . S
C1533 C1534 1.389 . S
C1534 C1533 1.389 . S
C1534 C1535 1.387 . S
C1535 H1520 0.930 . S
C1535 C1530 1.390 . S
C1535 C1534 1.387 . S
H1536 C1548 0.930 . S
H1537 C1550 0.930 . S
H1538 C1551 0.930 . S
H1539 C1555 0.959 . S
H1540 C1555 0.959 . S
H1541 C1555 0.961 . S
H1542 C1556 0.960 . S
H1543 C1556 0.961 . S
H1544 C1556 0.959 . S
H1545 C1559 0.929 . S
H1546 C1560 0.931 . S
H1547 C1562 0.930 . S
C1548 H1536 0.930 . S
C1548 C1549 1.399 . S
C1548 C1553 1.399 . S
C1549 C1548 1.399 . S
C1549 C1550 1.376 . S
C1550 H1537 0.930 . S
C1550 C1549 1.376 . S
C1550 C1551 1.388 . S
C1551 H1538 0.930 . S
C1551 C1550 1.388 . S
C1551 C1552 1.390 . S
C1552 C1551 1.390 . S
C1552 C1553 1.394 . S
C1552 C1558 1.465 . S
C1553 C1548 1.399 . S
C1553 C1552 1.394 . S
C1553 C1554 1.516 . S
C1554 C1553 1.516 . S
C1554 C1555 1.502 . S
C1554 C1556 1.561 . S
C1554 C1557 1.526 . S
C1555 H1539 0.959 . S
C1555 H1540 0.959 . S
C1555 H1541 0.961 . S
C1555 C1554 1.502 . S
C1556 H1542 0.960 . S
C1556 H1543 0.961 . S
C1556 H1544 0.959 . S
C1556 C1554 1.561 . S
C1557 C1554 1.526 . S
C1557 C1558 1.396 . S
C1557 C1562 1.390 . S
C1558 C1552 1.465 . S
C1558 C1557 1.396 . S
C1558 C1559 1.399 . S
C1559 H1545 0.929 . S
C1559 C1558 1.399 . S
C1559 C1560 1.385 . S
C1560 H1546 0.931 . S
C1560 C1559 1.385 . S
C1560 C1561 1.389 . S
C1561 C1560 1.389 . S
C1561 C1562 1.387 . S
C1562 H1547 0.930 . S
C1562 C1557 1.390 . S
C1562 C1561 1.387 . S
H1563 C1575 0.930 . S
H1564 C1577 0.930 . S
H1565 C1578 0.930 . S
H1566 C1582 0.959 . S
H1567 C1582 0.959 . S
H1568 C1582 0.961 1_565 S
H1569 C1583 0.960 . S
H1570 C1583 0.961 1_545 S
H1571 C1583 0.959 . S
H1572 C1586 0.929 . S
H1573 C1587 0.931 . S
H1574 C1589 0.930 . S
C1575 H1563 0.930 . S
C1575 C1576 1.399 . S
C1575 C1580 1.399 . S
C1576 C1575 1.399 . S
C1576 C1577 1.376 . S
C1577 H1564 0.930 . S
C1577 C1576 1.376 . S
C1577 C1578 1.388 . S
C1578 H1565 0.930 . S
C1578 C1577 1.388 . S
C1578 C1579 1.390 . S
C1579 C1578 1.390 . S
C1579 C1580 1.394 . S
C1579 C1585 1.465 1_565 S
C1580 C1575 1.399 . S
C1580 C1579 1.394 . S
C1580 C1581 1.516 . S
C1581 C1580 1.516 . S
C1581 C1582 1.502 1_565 S
C1581 C1583 1.561 . S
C1581 C1584 1.526 1_565 S
C1582 H1566 0.959 . S
C1582 H1567 0.959 . S
C1582 H1568 0.961 1_545 S
C1582 C1581 1.502 1_545 S
C1583 H1569 0.960 . S
C1583 H1570 0.961 1_565 S
C1583 H1571 0.959 . S
C1583 C1581 1.561 . S
C1584 C1581 1.526 1_545 S
C1584 C1585 1.396 . S
C1584 C1589 1.390 . S
C1585 C1579 1.465 1_545 S
C1585 C1584 1.396 . S
C1585 C1586 1.399 . S
C1586 H1572 0.929 . S
C1586 C1585 1.399 . S
C1586 C1587 1.385 . S
C1587 H1573 0.931 . S
C1587 C1586 1.385 . S
C1587 C1588 1.389 . S
C1588 C1587 1.389 . S
C1588 C1589 1.387 . S
C1589 H1574 0.930 . S
C1589 C1584 1.390 . S
C1589 C1588 1.387 . S
H1590 C1602 0.930 . S
H1591 C1604 0.930 . S
H1592 C1605 0.930 . S
H1593 C1609 0.959 . S
H1594 C1609 0.959 . S
H1595 C1609 0.961 . S
H1596 C1610 0.960 . S
H1597 C1610 0.961 . S
H1598 C1610 0.959 . S
H1599 C1613 0.929 . S
H1600 C1614 0.931 . S
H1601 C1616 0.930 . S
C1602 H1590 0.930 . S
C1602 C1603 1.399 . S
C1602 C1607 1.399 . S
C1603 C1602 1.399 . S
C1603 C1604 1.376 . S
C1604 H1591 0.930 . S
C1604 C1603 1.376 . S
C1604 C1605 1.388 . S
C1605 H1592 0.930 . S
C1605 C1604 1.388 . S
C1605 C1606 1.390 . S
C1606 C1605 1.390 . S
C1606 C1607 1.394 . S
C1606 C1612 1.465 . S
C1607 C1602 1.399 . S
C1607 C1606 1.394 . S
C1607 C1608 1.516 . S
C1608 C1607 1.516 . S
C1608 C1609 1.502 . S
C1608 C1610 1.561 . S
C1608 C1611 1.526 . S
C1609 H1593 0.959 . S
C1609 H1594 0.959 . S
C1609 H1595 0.961 . S
C1609 C1608 1.502 . S
C1610 H1596 0.960 . S
C1610 H1597 0.961 . S
C1610 H1598 0.959 . S
C1610 C1608 1.561 . S
C1611 C1608 1.526 . S
C1611 C1612 1.396 . S
C1611 C1616 1.390 . S
C1612 C1606 1.465 . S
C1612 C1611 1.396 . S
C1612 C1613 1.399 . S
C1613 H1599 0.929 . S
C1613 C1612 1.399 . S
C1613 C1614 1.385 . S
C1614 H1600 0.931 . S
C1614 C1613 1.385 . S
C1614 C1615 1.389 . S
C1615 C1614 1.389 . S
C1615 C1616 1.387 . S
C1616 H1601 0.930 . S
C1616 C1611 1.390 . S
C1616 C1615 1.387 . S
H1617 C1629 0.930 . S
H1618 C1631 0.930 . S
H1619 C1632 0.930 . S
H1620 C1636 0.959 . S
H1621 C1636 0.952 1_565 S
H1622 C1636 0.968 . S
H1623 C1637 0.960 1_545 S
H1624 C1637 0.961 . S
H1625 C1637 0.959 . S
H1626 C1640 0.929 . S
H1627 C1641 0.931 . S
H1628 C1643 0.930 . S
C1629 H1617 0.930 . S
C1629 C1630 1.399 . S
C1629 C1634 1.399 . S
C1630 C1629 1.399 . S
C1630 C1631 1.376 . S
C1631 H1618 0.930 . S
C1631 C1630 1.376 . S
C1631 C1632 1.388 . S
C1632 H1619 0.930 . S
C1632 C1631 1.388 . S
C1632 C1633 1.390 . S
C1633 C1632 1.390 . S
C1633 C1634 1.394 . S
C1633 C1639 1.465 1_545 S
C1634 C1629 1.399 . S
C1634 C1633 1.394 . S
C1634 C1635 1.516 1_545 S
C1635 C1634 1.516 1_565 S
C1635 C1636 1.502 1_565 S
C1635 C1637 1.561 . S
C1635 C1638 1.526 . S
C1636 H1620 0.959 . S
C1636 H1621 0.952 1_545 S
C1636 H1622 0.968 . S
C1636 C1635 1.502 1_545 S
C1637 H1623 0.960 1_565 S
C1637 H1624 0.961 . S
C1637 H1625 0.959 . S
C1637 C1635 1.561 . S
C1638 C1635 1.526 . S
C1638 C1639 1.396 . S
C1638 C1643 1.390 . S
C1639 C1633 1.465 1_565 S
C1639 C1638 1.396 . S
C1639 C1640 1.399 . S
C1640 H1626 0.929 . S
C1640 C1639 1.399 . S
C1640 C1641 1.385 . S
C1641 H1627 0.931 . S
C1641 C1640 1.385 . S
C1641 C1642 1.389 . S
C1642 C1641 1.389 . S
C1642 C1643 1.387 . S
C1643 H1628 0.930 . S
C1643 C1638 1.390 . S
C1643 C1642 1.387 . S
H1644 C1656 0.930 . S
H1645 C1658 0.930 . S
H1646 C1659 0.930 . S
H1647 C1663 0.959 . S
H1648 C1663 0.959 . S
H1649 C1663 0.961 . S
H1650 C1664 0.960 . S
H1651 C1664 0.961 . S
H1652 C1664 0.959 . S
H1653 C1667 0.929 . S
H1654 C1668 0.931 . S
H1655 C1670 0.930 . S
C1656 H1644 0.930 . S
C1656 C1657 1.399 . S
C1656 C1661 1.399 . S
C1657 C1656 1.399 . S
C1657 C1658 1.376 . S
C1658 H1645 0.930 . S
C1658 C1657 1.376 . S
C1658 C1659 1.388 . S
C1659 H1646 0.930 . S
C1659 C1658 1.388 . S
C1659 C1660 1.390 . S
C1660 C1659 1.390 . S
C1660 C1661 1.394 . S
C1660 C1666 1.465 . S
C1661 C1656 1.399 . S
C1661 C1660 1.394 . S
C1661 C1662 1.516 . S
C1662 C1661 1.516 . S
C1662 C1663 1.502 . S
C1662 C1664 1.561 . S
C1662 C1665 1.526 . S
C1663 H1647 0.959 . S
C1663 H1648 0.959 . S
C1663 H1649 0.961 . S
C1663 C1662 1.502 . S
C1664 H1650 0.960 . S
C1664 H1651 0.961 . S
C1664 H1652 0.959 . S
C1664 C1662 1.561 . S
C1665 C1662 1.526 . S
C1665 C1666 1.396 . S
C1665 C1670 1.390 . S
C1666 C1660 1.465 . S
C1666 C1665 1.396 . S
C1666 C1667 1.399 . S
C1667 H1653 0.929 . S
C1667 C1666 1.399 . S
C1667 C1668 1.385 . S
C1668 H1654 0.931 . S
C1668 C1667 1.385 . S
C1668 C1669 1.389 . S
C1669 C1668 1.389 . S
C1669 C1670 1.387 . S
C1670 H1655 0.930 . S
C1670 C1665 1.390 . S
C1670 C1669 1.387 . S
H1671 C1683 0.930 . S
H1672 C1685 0.930 . S
H1673 C1686 0.930 . S
H1674 C1690 0.959 . S
H1675 C1690 0.959 . S
H1676 C1690 0.961 1_565 S
H1677 C1691 0.960 . S
H1678 C1691 0.961 . S
H1679 C1691 0.959 . S
H1680 C1694 0.929 . S
H1681 C1695 0.931 . S
H1682 C1697 0.930 . S
C1683 H1671 0.930 . S
C1683 C1684 1.399 . S
C1683 C1688 1.399 . S
C1684 C1683 1.399 . S
C1684 C1685 1.376 . S
C1685 H1672 0.930 . S
C1685 C1684 1.376 . S
C1685 C1686 1.388 . S
C1686 H1673 0.930 . S
C1686 C1685 1.388 . S
C1686 C1687 1.390 1_565 S
C1687 C1686 1.390 1_545 S
C1687 C1688 1.394 1_545 S
C1687 C1693 1.465 . S
C1688 C1683 1.399 . S
C1688 C1687 1.394 1_565 S
C1688 C1689 1.516 1_565 S
C1689 C1688 1.516 1_545 S
C1689 C1690 1.502 . S
C1689 C1691 1.561 . S
C1689 C1692 1.526 . S
C1690 H1674 0.959 . S
C1690 H1675 0.959 . S
C1690 H1676 0.961 1_545 S
C1690 C1689 1.502 . S
C1691 H1677 0.960 . S
C1691 H1678 0.961 . S
C1691 H1679 0.959 . S
C1691 C1689 1.561 . S
C1692 C1689 1.526 . S
C1692 C1693 1.396 . S
C1692 C1697 1.390 . S
C1693 C1687 1.465 . S
C1693 C1692 1.396 . S
C1693 C1694 1.399 . S
C1694 H1680 0.929 . S
C1694 C1693 1.399 . S
C1694 C1695 1.385 . S
C1695 H1681 0.931 . S
C1695 C1694 1.385 . S
C1695 C1696 1.389 . S
C1696 C1695 1.389 . S
C1696 C1697 1.387 . S
C1697 H1682 0.930 . S
C1697 C1692 1.390 . S
C1697 C1696 1.387 . S
H1698 C1710 0.930 . S
H1699 C1712 0.930 . S
H1700 C1713 0.930 . S
H1701 C1717 0.959 . S
H1702 C1717 0.959 . S
H1703 C1717 0.961 . S
H1704 C1718 0.960 . S
H1705 C1718 0.961 . S
H1706 C1718 0.959 . S
H1707 C1721 0.929 . S
H1708 C1722 0.931 . S
H1709 C1724 0.930 . S
C1710 H1698 0.930 . S
C1710 C1711 1.399 . S
C1710 C1715 1.399 . S
C1711 C1710 1.399 . S
C1711 C1712 1.376 . S
C1712 H1699 0.930 . S
C1712 C1711 1.376 . S
C1712 C1713 1.388 . S
C1713 H1700 0.930 . S
C1713 C1712 1.388 . S
C1713 C1714 1.390 . S
C1714 C1713 1.390 . S
C1714 C1715 1.394 . S
C1714 C1720 1.465 . S
C1715 C1710 1.399 . S
C1715 C1714 1.394 . S
C1715 C1716 1.516 . S
C1716 C1715 1.516 . S
C1716 C1717 1.502 . S
C1716 C1718 1.561 . S
C1716 C1719 1.526 . S
C1717 H1701 0.959 . S
C1717 H1702 0.959 . S
C1717 H1703 0.961 . S
C1717 C1716 1.502 . S
C1718 H1704 0.960 . S
C1718 H1705 0.961 . S
C1718 H1706 0.959 . S
C1718 C1716 1.561 . S
C1719 C1716 1.526 . S
C1719 C1720 1.396 . S
C1719 C1724 1.390 . S
C1720 C1714 1.465 . S
C1720 C1719 1.396 . S
C1720 C1721 1.399 . S
C1721 H1707 0.929 . S
C1721 C1720 1.399 . S
C1721 C1722 1.385 . S
C1722 H1708 0.931 . S
C1722 C1721 1.385 . S
C1722 C1723 1.389 . S
C1723 C1722 1.389 . S
C1723 C1724 1.387 . S
C1724 H1709 0.930 . S
C1724 C1719 1.390 . S
C1724 C1723 1.387 . S
H1725 C1737 0.930 . S
H1726 C1739 0.930 . S
H1727 C1740 0.930 . S
H1728 C1744 0.959 . S
H1729 C1744 1.001 . S
H1730 C1744 0.961 . S
H1731 C1745 0.960 . S
H1732 C1745 0.961 1_545 S
H1733 C1745 0.959 . S
H1734 C1748 0.929 . S
H1735 C1749 0.931 . S
H1736 C1751 0.930 . S
C1737 H1725 0.930 . S
C1737 C1738 1.399 . S
C1737 C1742 1.399 . S
C1738 C1737 1.399 . S
C1738 C1739 1.376 . S
C1739 H1726 0.930 . S
C1739 C1738 1.376 . S
C1739 C1740 1.388 . S
C1740 H1727 0.930 . S
C1740 C1739 1.388 . S
C1740 C1741 1.390 . S
C1741 C1740 1.390 . S
C1741 C1742 1.394 . S
C1741 C1747 1.465 1_565 S
C1742 C1737 1.399 . S
C1742 C1741 1.394 . S
C1742 C1743 1.516 . S
C1743 C1742 1.516 . S
C1743 C1744 1.502 . S
C1743 C1745 1.561 . S
C1743 C1746 1.526 1_565 S
C1744 H1728 0.959 . S
C1744 H1729 1.001 . S
C1744 H1730 0.961 . S
C1744 C1743 1.502 . S
C1745 H1731 0.960 . S
C1745 H1732 0.961 1_565 S
C1745 H1733 0.959 . S
C1745 C1743 1.561 . S
C1746 C1743 1.526 1_545 S
C1746 C1747 1.396 . S
C1746 C1751 1.390 . S
C1747 C1741 1.465 1_545 S
C1747 C1746 1.396 . S
C1747 C1748 1.399 . S
C1748 H1734 0.929 . S
C1748 C1747 1.399 . S
C1748 C1749 1.385 . S
C1749 H1735 0.931 . S
C1749 C1748 1.385 . S
C1749 C1750 1.389 . S
C1750 C1749 1.389 . S
C1750 C1751 1.387 . S
C1751 H1736 0.930 . S
C1751 C1746 1.390 . S
C1751 C1750 1.387 . S
H1752 C1764 0.930 . S
H1753 C1766 0.930 . S
H1754 C1767 0.930 . S
H1755 C1771 0.959 . S
H1756 C1771 0.959 . S
H1757 C1771 0.961 . S
H1758 C1772 0.960 . S
H1759 C1772 0.961 . S
H1760 C1772 0.959 . S
H1761 C1775 0.929 . S
H1762 C1776 0.931 . S
H1763 C1778 0.930 . S
C1764 H1752 0.930 . S
C1764 C1765 1.399 . S
C1764 C1769 1.399 . S
C1765 C1764 1.399 . S
C1765 C1766 1.376 . S
C1766 H1753 0.930 . S
C1766 C1765 1.376 . S
C1766 C1767 1.388 . S
C1767 H1754 0.930 . S
C1767 C1766 1.388 . S
C1767 C1768 1.390 . S
C1768 C1767 1.390 . S
C1768 C1769 1.394 . S
C1768 C1774 1.465 . S
C1769 C1764 1.399 . S
C1769 C1768 1.394 . S
C1769 C1770 1.516 . S
C1770 C1769 1.516 . S
C1770 C1771 1.502 . S
C1770 C1772 1.561 . S
C1770 C1773 1.526 . S
C1771 H1755 0.959 . S
C1771 H1756 0.959 . S
C1771 H1757 0.961 . S
C1771 C1770 1.502 . S
C1772 H1758 0.960 . S
C1772 H1759 0.961 . S
C1772 H1760 0.959 . S
C1772 C1770 1.561 . S
C1773 C1770 1.526 . S
C1773 C1774 1.396 . S
C1773 C1778 1.390 . S
C1774 C1768 1.465 . S
C1774 C1773 1.396 . S
C1774 C1775 1.399 . S
C1775 H1761 0.929 . S
C1775 C1774 1.399 . S
C1775 C1776 1.385 . S
C1776 H1762 0.931 . S
C1776 C1775 1.385 . S
C1776 C1777 1.389 . S
C1777 C1776 1.389 . S
C1777 C1778 1.387 . S
C1778 H1763 0.930 . S
C1778 C1773 1.390 . S
C1778 C1777 1.387 . S
H1779 C1791 0.930 . S
H1780 C1793 0.930 . S
H1781 C1794 0.930 . S
H1782 C1798 0.959 . S
H1783 C1798 0.959 . S
H1784 C1798 0.961 . S
H1785 C1799 0.960 . S
H1786 C1799 0.961 . S
H1787 C1799 0.959 . S
H1788 C1802 0.929 . S
H1789 C1803 0.931 . S
H1790 C1805 0.930 . S
C1791 H1779 0.930 . S
C1791 C1792 1.399 . S
C1791 C1796 1.399 . S
C1792 C1791 1.399 . S
C1792 C1793 1.376 . S
C1793 H1780 0.930 . S
C1793 C1792 1.376 . S
C1793 C1794 1.388 . S
C1794 H1781 0.930 . S
C1794 C1793 1.388 . S
C1794 C1795 1.390 . S
C1795 C1794 1.390 . S
C1795 C1796 1.394 . S
C1795 C1801 1.465 . S
C1796 C1791 1.399 . S
C1796 C1795 1.394 . S
C1796 C1797 1.516 . S
C1797 C1796 1.516 . S
C1797 C1798 1.502 . S
C1797 C1799 1.561 . S
C1797 C1800 1.526 . S
C1798 H1782 0.959 . S
C1798 H1783 0.959 . S
C1798 H1784 0.961 . S
C1798 C1797 1.502 . S
C1799 H1785 0.960 . S
C1799 H1786 0.961 . S
C1799 H1787 0.959 . S
C1799 C1797 1.561 . S
C1800 C1797 1.526 . S
C1800 C1801 1.396 . S
C1800 C1805 1.390 . S
C1801 C1795 1.465 . S
C1801 C1800 1.396 . S
C1801 C1802 1.399 . S
C1802 H1788 0.929 . S
C1802 C1801 1.399 . S
C1802 C1803 1.385 . S
C1803 H1789 0.931 . S
C1803 C1802 1.385 . S
C1803 C1804 1.389 . S
C1804 C1803 1.389 . S
C1804 C1805 1.387 . S
C1805 H1790 0.930 . S
C1805 C1800 1.390 . S
C1805 C1804 1.387 . S
H1806 C1818 0.930 . S
H1807 C1820 0.930 . S
H1808 C1821 0.930 . S
H1809 C1825 0.959 . S
H1810 C1825 0.959 . S
H1811 C1825 0.961 . S
H1812 C1826 0.960 . S
H1813 C1826 0.961 . S
H1814 C1826 0.959 . S
H1815 C1829 0.929 . S
H1816 C1830 0.931 . S
H1817 C1832 0.930 . S
C1818 H1806 0.930 . S
C1818 C1819 1.399 . S
C1818 C1823 1.399 . S
C1819 C1818 1.399 . S
C1819 C1820 1.376 . S
C1820 H1807 0.930 . S
C1820 C1819 1.376 . S
C1820 C1821 1.388 . S
C1821 H1808 0.930 . S
C1821 C1820 1.388 . S
C1821 C1822 1.390 . S
C1822 C1821 1.390 . S
C1822 C1823 1.394 . S
C1822 C1828 1.465 . S
C1823 C1818 1.399 . S
C1823 C1822 1.394 . S
C1823 C1824 1.516 . S
C1824 C1823 1.516 . S
C1824 C1825 1.502 . S
C1824 C1826 1.561 . S
C1824 C1827 1.526 . S
C1825 H1809 0.959 . S
C1825 H1810 0.959 . S
C1825 H1811 0.961 . S
C1825 C1824 1.502 . S
C1826 H1812 0.960 . S
C1826 H1813 0.961 . S
C1826 H1814 0.959 . S
C1826 C1824 1.561 . S
C1827 C1824 1.526 . S
C1827 C1828 1.396 . S
C1827 C1832 1.390 1_455 S
C1828 C1822 1.465 . S
C1828 C1827 1.396 . S
C1828 C1829 1.399 . S
C1829 H1815 0.929 . S
C1829 C1828 1.399 . S
C1829 C1830 1.385 1_455 S
C1830 H1816 0.931 . S
C1830 C1829 1.385 1_655 S
C1830 C1831 1.389 . S
C1831 C1830 1.389 . S
C1831 C1832 1.387 . S
C1832 H1817 0.930 . S
C1832 C1827 1.390 1_655 S
C1832 C1831 1.387 . S
H1833 C1845 0.930 . S
H1834 C1847 0.930 . S
H1835 C1848 0.930 . S
H1836 C1852 0.959 . S
H1837 C1852 0.959 . S
H1838 C1852 0.961 . S
H1839 C1853 0.960 . S
H1840 C1853 0.961 . S
H1841 C1853 0.959 . S
H1842 C1856 0.929 . S
H1843 C1857 0.931 . S
H1844 C1859 0.930 . S
C1845 H1833 0.930 . S
C1845 C1846 1.399 . S
C1845 C1850 1.399 . S
C1846 C1845 1.399 . S
C1846 C1847 1.376 . S
C1847 H1834 0.930 . S
C1847 C1846 1.376 . S
C1847 C1848 1.388 . S
C1848 H1835 0.930 . S
C1848 C1847 1.388 . S
C1848 C1849 1.390 . S
C1849 C1848 1.390 . S
C1849 C1850 1.394 . S
C1849 C1855 1.465 . S
C1850 C1845 1.399 . S
C1850 C1849 1.394 . S
C1850 C1851 1.516 . S
C1851 C1850 1.516 . S
C1851 C1852 1.502 . S
C1851 C1853 1.561 . S
C1851 C1854 1.526 . S
C1852 H1836 0.959 . S
C1852 H1837 0.959 . S
C1852 H1838 0.961 . S
C1852 C1851 1.502 . S
C1853 H1839 0.960 . S
C1853 H1840 0.961 . S
C1853 H1841 0.959 . S
C1853 C1851 1.561 . S
C1854 C1851 1.526 . S
C1854 C1855 1.396 . S
C1854 C1859 1.390 . S
C1855 C1849 1.465 . S
C1855 C1854 1.396 . S
C1855 C1856 1.399 . S
C1856 H1842 0.929 . S
C1856 C1855 1.399 . S
C1856 C1857 1.385 . S
C1857 H1843 0.931 . S
C1857 C1856 1.385 . S
C1857 C1858 1.389 . S
C1858 C1857 1.389 . S
C1858 C1859 1.387 . S
C1859 H1844 0.930 . S
C1859 C1854 1.390 . S
C1859 C1858 1.387 . S
H1860 C1872 0.930 . S
H1861 C1874 0.930 . S
H1862 C1875 0.930 . S
H1863 C1879 0.959 . S
H1864 C1879 0.959 . S
H1865 C1879 0.961 . S
H1866 C1880 0.960 . S
H1867 C1880 0.961 . S
H1868 C1880 0.959 . S
H1869 C1883 0.929 . S
H1870 C1884 0.931 . S
H1871 C1886 0.930 . S
C1872 H1860 0.930 . S
C1872 C1873 1.399 . S
C1872 C1877 1.399 1_455 S
C1873 C1872 1.399 . S
C1873 C1874 1.376 . S
C1874 H1861 0.930 . S
C1874 C1873 1.376 . S
C1874 C1875 1.388 1_455 S
C1875 H1862 0.930 . S
C1875 C1874 1.388 1_655 S
C1875 C1876 1.390 . S
C1876 C1875 1.390 . S
C1876 C1877 1.394 . S
C1876 C1882 1.465 . S
C1877 C1872 1.399 1_655 S
C1877 C1876 1.394 . S
C1877 C1878 1.516 . S
C1878 C1877 1.516 . S
C1878 C1879 1.502 . S
C1878 C1880 1.561 . S
C1878 C1881 1.526 . S
C1879 H1863 0.959 . S
C1879 H1864 0.959 . S
C1879 H1865 0.961 . S
C1879 C1878 1.502 . S
C1880 H1866 0.960 . S
C1880 H1867 0.961 . S
C1880 H1868 0.959 . S
C1880 C1878 1.561 . S
C1881 C1878 1.526 . S
C1881 C1882 1.396 . S
C1881 C1886 1.390 . S
C1882 C1876 1.465 . S
C1882 C1881 1.396 . S
C1882 C1883 1.399 . S
C1883 H1869 0.929 . S
C1883 C1882 1.399 . S
C1883 C1884 1.385 . S
C1884 H1870 0.931 . S
C1884 C1883 1.385 . S
C1884 C1885 1.389 . S
C1885 C1884 1.389 . S
C1885 C1886 1.387 . S
C1886 H1871 0.930 . S
C1886 C1881 1.390 . S
C1886 C1885 1.387 . S
H1887 C1899 0.930 . S
H1888 C1901 0.930 . S
H1889 C1902 0.930 . S
H1890 C1906 0.959 . S
H1891 C1906 0.959 . S
H1892 C1906 0.961 . S
H1893 C1907 0.960 . S
H1894 C1907 0.961 . S
H1895 C1907 0.959 . S
H1896 C1910 0.929 . S
H1897 C1911 0.931 . S
H1898 C1913 0.930 . S
C1899 H1887 0.930 . S
C1899 C1900 1.399 . S
C1899 C1904 1.399 . S
C1900 C1899 1.399 . S
C1900 C1901 1.376 . S
C1901 H1888 0.930 . S
C1901 C1900 1.376 . S
C1901 C1902 1.388 . S
C1902 H1889 0.930 . S
C1902 C1901 1.388 . S
C1902 C1903 1.390 . S
C1903 C1902 1.390 . S
C1903 C1904 1.394 . S
C1903 C1909 1.465 . S
C1904 C1899 1.399 . S
C1904 C1903 1.394 . S
C1904 C1905 1.516 . S
C1905 C1904 1.516 . S
C1905 C1906 1.502 . S
C1905 C1907 1.561 . S
C1905 C1908 1.526 . S
C1906 H1890 0.959 . S
C1906 H1891 0.959 . S
C1906 H1892 0.961 . S
C1906 C1905 1.502 . S
C1907 H1893 0.960 . S
C1907 H1894 0.961 . S
C1907 H1895 0.959 . S
C1907 C1905 1.561 . S
C1908 C1905 1.526 . S
C1908 C1909 1.396 . S
C1908 C1913 1.390 . S
C1909 C1903 1.465 . S
C1909 C1908 1.396 . S
C1909 C1910 1.399 . S
C1910 H1896 0.929 . S
C1910 C1909 1.399 . S
C1910 C1911 1.385 . S
C1911 H1897 0.931 . S
C1911 C1910 1.385 . S
C1911 C1912 1.389 . S
C1912 C1911 1.389 . S
C1912 C1913 1.387 . S
C1913 H1898 0.930 . S
C1913 C1908 1.390 . S
C1913 C1912 1.387 . S
H1914 C1926 0.930 . S
H1915 C1928 0.930 . S
H1916 C1929 0.930 . S
H1917 C1933 0.959 . S
H1918 C1933 0.959 1_455 S
H1919 C1933 0.961 . S
H1920 C1934 0.960 . S
H1921 C1934 0.961 1_455 S
H1922 C1934 0.959 . S
H1923 C1937 0.929 . S
H1924 C1938 0.931 . S
H1925 C1940 0.930 . S
C1926 H1914 0.930 . S
C1926 C1927 1.399 . S
C1926 C1931 1.399 . S
C1927 C1926 1.399 . S
C1927 C1928 1.376 . S
C1928 H1915 0.930 . S
C1928 C1927 1.376 . S
C1928 C1929 1.388 . S
C1929 H1916 0.930 . S
C1929 C1928 1.388 . S
C1929 C1930 1.390 . S
C1930 C1929 1.390 . S
C1930 C1931 1.394 . S
C1930 C1936 1.465 1_655 S
C1931 C1926 1.399 . S
C1931 C1930 1.394 . S
C1931 C1932 1.516 . S
C1932 C1931 1.516 . S
C1932 C1933 1.502 . S
C1932 C1934 1.561 . S
C1932 C1935 1.526 1_655 S
C1933 H1917 0.959 . S
C1933 H1918 0.959 1_655 S
C1933 H1919 0.961 . S
C1933 C1932 1.502 . S
C1934 H1920 0.960 . S
C1934 H1921 0.961 1_655 S
C1934 H1922 0.959 . S
C1934 C1932 1.561 . S
C1935 C1932 1.526 1_455 S
C1935 C1936 1.396 . S
C1935 C1940 1.390 . S
C1936 C1930 1.465 1_455 S
C1936 C1935 1.396 . S
C1936 C1937 1.399 . S
C1937 H1923 0.929 . S
C1937 C1936 1.399 . S
C1937 C1938 1.385 . S
C1938 H1924 0.931 . S
C1938 C1937 1.385 . S
C1938 C1939 1.389 . S
C1939 C1938 1.389 . S
C1939 C1940 1.387 . S
C1940 H1925 0.930 . S
C1940 C1935 1.390 . S
C1940 C1939 1.387 . S
H1941 C1953 0.930 . S
H1942 C1955 0.930 . S
H1943 C1956 0.930 . S
H1944 C1960 0.959 . S
H1945 C1960 0.959 . S
H1946 C1960 0.961 . S
H1947 C1961 0.960 . S
H1948 C1961 0.961 . S
H1949 C1961 0.959 . S
H1950 C1964 0.929 . S
H1951 C1965 0.931 . S
H1952 C1967 0.930 . S
C1953 H1941 0.930 . S
C1953 C1954 1.399 . S
C1953 C1958 1.399 . S
C1954 C1953 1.399 . S
C1954 C1955 1.376 . S
C1955 H1942 0.930 . S
C1955 C1954 1.376 . S
C1955 C1956 1.388 . S
C1956 H1943 0.930 . S
C1956 C1955 1.388 . S
C1956 C1957 1.390 . S
C1957 C1956 1.390 . S
C1957 C1958 1.394 . S
C1957 C1963 1.465 . S
C1958 C1953 1.399 . S
C1958 C1957 1.394 . S
C1958 C1959 1.516 . S
C1959 C1958 1.516 . S
C1959 C1960 1.502 . S
C1959 C1961 1.561 . S
C1959 C1962 1.526 . S
C1960 H1944 0.959 . S
C1960 H1945 0.959 . S
C1960 H1946 0.961 . S
C1960 C1959 1.502 . S
C1961 H1947 0.960 . S
C1961 H1948 0.961 . S
C1961 H1949 0.959 . S
C1961 C1959 1.561 . S
C1962 C1959 1.526 . S
C1962 C1963 1.396 . S
C1962 C1967 1.390 1_455 S
C1963 C1957 1.465 . S
C1963 C1962 1.396 . S
C1963 C1964 1.399 . S
C1964 H1950 0.929 . S
C1964 C1963 1.399 . S
C1964 C1965 1.385 1_455 S
C1965 H1951 0.931 . S
C1965 C1964 1.385 1_655 S
C1965 C1966 1.389 . S
C1966 C1965 1.389 . S
C1966 C1967 1.387 . S
C1967 H1952 0.930 . S
C1967 C1962 1.390 1_655 S
C1967 C1966 1.387 . S
H1968 C1980 0.930 . S
H1969 C1982 0.930 . S
H1970 C1983 0.930 . S
H1971 C1987 0.959 . S
H1972 C1987 0.959 . S
H1973 C1987 0.961 . S
H1974 C1988 0.960 . S
H1975 C1988 0.961 . S
H1976 C1988 0.959 . S
H1977 C1991 0.929 . S
H1978 C1992 0.931 . S
H1979 C1994 0.930 . S
C1980 H1968 0.930 . S
C1980 C1981 1.399 . S
C1980 C1985 1.399 . S
C1981 C1980 1.399 . S
C1981 C1982 1.376 . S
C1982 H1969 0.930 . S
C1982 C1981 1.376 . S
C1982 C1983 1.388 . S
C1983 H1970 0.930 . S
C1983 C1982 1.388 . S
C1983 C1984 1.390 . S
C1984 C1983 1.390 . S
C1984 C1985 1.394 . S
C1984 C1990 1.465 . S
C1985 C1980 1.399 . S
C1985 C1984 1.394 . S
C1985 C1986 1.516 . S
C1986 C1985 1.516 . S
C1986 C1987 1.502 . S
C1986 C1988 1.561 . S
C1986 C1989 1.498 1_655 S
C1987 H1971 0.959 . S
C1987 H1972 0.959 . S
C1987 H1973 0.961 . S
C1987 C1986 1.502 . S
C1988 H1974 0.960 . S
C1988 H1975 0.961 . S
C1988 H1976 0.959 . S
C1988 C1986 1.561 . S
C1989 C1986 1.498 1_455 S
C1989 C1990 1.387 1_455 S
C1989 C1994 1.424 . S
C1990 C1984 1.465 . S
C1990 C1989 1.387 1_655 S
C1990 C1991 1.399 1_655 S
C1991 H1977 0.929 . S
C1991 C1990 1.399 1_455 S
C1991 C1992 1.385 . S
C1992 H1978 0.931 . S
C1992 C1991 1.385 . S
C1992 C1993 1.389 . S
C1993 C1992 1.389 . S
C1993 C1994 1.387 . S
C1994 H1979 0.930 . S
C1994 C1989 1.424 . S
C1994 C1993 1.387 . S
H1995 C2007 0.930 . S
H1996 C2009 0.930 . S
H1997 C2010 0.930 . S
H1998 C2014 0.959 . S
H1999 C2014 0.959 . S
H2000 C2014 0.961 . S
H2001 C2015 0.960 . S
H2002 C2015 0.961 . S
H2003 C2015 0.959 . S
H2004 C2018 0.929 . S
H2005 C2019 0.931 . S
H2006 C2021 0.930 . S
C2007 H1995 0.930 . S
C2007 C2008 1.399 . S
C2007 C2012 1.399 . S
C2008 C2007 1.399 . S
C2008 C2009 1.376 . S
C2009 H1996 0.930 . S
C2009 C2008 1.376 . S
C2009 C2010 1.388 . S
C2010 H1997 0.930 . S
C2010 C2009 1.388 . S
C2010 C2011 1.390 . S
C2011 C2010 1.390 . S
C2011 C2012 1.394 . S
C2011 C2017 1.465 . S
C2012 C2007 1.399 . S
C2012 C2011 1.394 . S
C2012 C2013 1.516 . S
C2013 C2012 1.516 . S
C2013 C2014 1.502 . S
C2013 C2015 1.561 . S
C2013 C2016 1.526 . S
C2014 H1998 0.959 . S
C2014 H1999 0.959 . S
C2014 H2000 0.961 . S
C2014 C2013 1.502 . S
C2015 H2001 0.960 . S
C2015 H2002 0.961 . S
C2015 H2003 0.959 . S
C2015 C2013 1.561 . S
C2016 C2013 1.526 . S
C2016 C2017 1.396 . S
C2016 C2021 1.390 . S
C2017 C2011 1.465 . S
C2017 C2016 1.396 . S
C2017 C2018 1.399 . S
C2018 H2004 0.929 . S
C2018 C2017 1.399 . S
C2018 C2019 1.385 . S
C2019 H2005 0.931 . S
C2019 C2018 1.385 . S
C2019 C2020 1.389 . S
C2020 C2019 1.389 . S
C2020 C2021 1.387 . S
C2021 H2006 0.930 . S
C2021 C2016 1.390 . S
C2021 C2020 1.387 . S
H2022 C2034 0.930 . S
H2023 C2036 0.930 . S
H2024 C2037 0.930 . S
H2025 C2041 0.959 . S
H2026 C2041 0.959 . S
H2027 C2041 0.961 . S
H2028 C2042 0.960 . S
H2029 C2042 0.961 . S
H2030 C2042 0.959 . S
H2031 C2045 0.929 . S
H2032 C2046 0.931 . S
H2033 C2048 0.930 . S
C2034 H2022 0.930 . S
C2034 C2035 1.399 . S
C2034 C2039 1.399 . S
C2035 C2034 1.399 . S
C2035 C2036 1.376 . S
C2036 H2023 0.930 . S
C2036 C2035 1.376 . S
C2036 C2037 1.388 . S
C2037 H2024 0.930 . S
C2037 C2036 1.388 . S
C2037 C2038 1.390 . S
C2038 C2037 1.390 . S
C2038 C2039 1.394 . S
C2038 C2044 1.465 . S
C2039 C2034 1.399 . S
C2039 C2038 1.394 . S
C2039 C2040 1.516 . S
C2040 C2039 1.516 . S
C2040 C2041 1.502 . S
C2040 C2042 1.561 . S
C2040 C2043 1.526 1_455 S
C2041 H2025 0.959 . S
C2041 H2026 0.959 . S
C2041 H2027 0.961 . S
C2041 C2040 1.502 . S
C2042 H2028 0.960 . S
C2042 H2029 0.961 . S
C2042 H2030 0.959 . S
C2042 C2040 1.561 . S
C2043 C2040 1.526 1_655 S
C2043 C2044 1.396 1_655 S
C2043 C2048 1.390 . S
C2044 C2038 1.465 . S
C2044 C2043 1.396 1_455 S
C2044 C2045 1.399 1_455 S
C2045 H2031 0.929 . S
C2045 C2044 1.399 1_655 S
C2045 C2046 1.385 . S
C2046 H2032 0.931 . S
C2046 C2045 1.385 . S
C2046 C2047 1.389 . S
C2047 C2046 1.389 . S
C2047 C2048 1.387 . S
C2048 H2033 0.930 . S
C2048 C2043 1.390 . S
C2048 C2047 1.387 . S
H2049 C2061 0.930 . S
H2050 C2063 0.930 . S
H2051 C2064 0.930 . S
H2052 C2068 0.959 . S
H2053 C2068 0.959 . S
H2054 C2068 0.961 . S
H2055 C2069 0.960 . S
H2056 C2069 0.961 . S
H2057 C2069 0.959 . S
H2058 C2072 0.929 . S
H2059 C2073 0.931 . S
H2060 C2075 0.930 . S
C2061 H2049 0.930 . S
C2061 C2062 1.399 . S
C2061 C2066 1.399 . S
C2062 C2061 1.399 . S
C2062 C2063 1.376 . S
C2063 H2050 0.930 . S
C2063 C2062 1.376 . S
C2063 C2064 1.388 . S
C2064 H2051 0.930 . S
C2064 C2063 1.388 . S
C2064 C2065 1.390 . S
C2065 C2064 1.390 . S
C2065 C2066 1.394 . S
C2065 C2071 1.465 . S
C2066 C2061 1.399 . S
C2066 C2065 1.394 . S
C2066 C2067 1.516 . S
C2067 C2066 1.516 . S
C2067 C2068 1.502 . S
C2067 C2069 1.561 . S
C2067 C2070 1.526 . S
C2068 H2052 0.959 . S
C2068 H2053 0.959 . S
C2068 H2054 0.961 . S
C2068 C2067 1.502 . S
C2069 H2055 0.960 . S
C2069 H2056 0.961 . S
C2069 H2057 0.959 . S
C2069 C2067 1.561 . S
C2070 C2067 1.526 . S
C2070 C2071 1.396 . S
C2070 C2075 1.390 . S
C2071 C2065 1.465 . S
C2071 C2070 1.396 . S
C2071 C2072 1.399 . S
C2072 H2058 0.929 . S
C2072 C2071 1.399 . S
C2072 C2073 1.385 . S
C2073 H2059 0.931 . S
C2073 C2072 1.385 . S
C2073 C2074 1.389 . S
C2074 C2073 1.389 . S
C2074 C2075 1.387 . S
C2075 H2060 0.930 . S
C2075 C2070 1.390 . S
C2075 C2074 1.387 . S
H2076 C2088 0.930 . S
H2077 C2090 0.930 . S
H2078 C2091 0.939 . S
H2079 C2095 0.959 . S
H2080 C2095 0.959 . S
H2081 C2095 0.961 . S
H2082 C2096 0.960 . S
H2083 C2096 0.961 . S
H2084 C2096 0.959 . S
H2085 C2099 0.929 . S
H2086 C2100 0.931 . S
H2087 C2102 0.930 . S
C2088 H2076 0.930 . S
C2088 C2089 1.399 . S
C2088 C2093 1.399 1_655 S
C2089 C2088 1.399 . S
C2089 C2090 1.376 . S
C2090 H2077 0.930 . S
C2090 C2089 1.376 . S
C2090 C2091 1.388 . S
C2091 H2078 0.939 . S
C2091 C2090 1.388 . S
C2091 C2092 1.390 1_655 S
C2092 C2091 1.390 1_455 S
C2092 C2093 1.394 . S
C2092 C2098 1.465 . S
C2093 C2088 1.399 1_455 S
C2093 C2092 1.394 . S
C2093 C2094 1.516 . S
C2094 C2093 1.516 . S
C2094 C2095 1.502 . S
C2094 C2096 1.561 . S
C2094 C2097 1.526 . S
C2095 H2079 0.959 . S
C2095 H2080 0.959 . S
C2095 H2081 0.961 . S
C2095 C2094 1.502 . S
C2096 H2082 0.960 . S
C2096 H2083 0.961 . S
C2096 H2084 0.959 . S
C2096 C2094 1.561 . S
C2097 C2094 1.526 . S
C2097 C2098 1.396 . S
C2097 C2102 1.390 . S
C2098 C2092 1.465 . S
C2098 C2097 1.396 . S
C2098 C2099 1.399 . S
C2099 H2085 0.929 . S
C2099 C2098 1.399 . S
C2099 C2100 1.385 . S
C2100 H2086 0.931 . S
C2100 C2099 1.385 . S
C2100 C2101 1.389 . S
C2101 C2100 1.389 . S
C2101 C2102 1.387 . S
C2102 H2087 0.930 . S
C2102 C2097 1.390 . S
C2102 C2101 1.387 . S
H2103 C2115 0.930 . S
H2104 C2117 0.930 . S
H2105 C2118 0.930 . S
H2106 C2122 0.959 . S
H2107 C2122 0.959 . S
H2108 C2122 0.961 . S
H2109 C2123 0.960 . S
H2110 C2123 0.961 . S
H2111 C2123 0.959 . S
H2112 C2126 0.929 . S
H2113 C2127 0.931 . S
H2114 C2129 0.930 . S
C2115 H2103 0.930 . S
C2115 C2116 1.399 . S
C2115 C2120 1.399 . S
C2116 C2115 1.399 . S
C2116 C2117 1.376 . S
C2117 H2104 0.930 . S
C2117 C2116 1.376 . S
C2117 C2118 1.388 . S
C2118 H2105 0.930 . S
C2118 C2117 1.388 . S
C2118 C2119 1.390 . S
C2119 C2118 1.390 . S
C2119 C2120 1.394 . S
C2119 C2125 1.465 . S
C2120 C2115 1.399 . S
C2120 C2119 1.394 . S
C2120 C2121 1.516 . S
C2121 C2120 1.516 . S
C2121 C2122 1.502 . S
C2121 C2123 1.561 . S
C2121 C2124 1.526 . S
C2122 H2106 0.959 . S
C2122 H2107 0.959 . S
C2122 H2108 0.961 . S
C2122 C2121 1.502 . S
C2123 H2109 0.960 . S
C2123 H2110 0.961 . S
C2123 H2111 0.959 . S
C2123 C2121 1.561 . S
C2124 C2121 1.526 . S
C2124 C2125 1.396 . S
C2124 C2129 1.390 . S
C2125 C2119 1.465 . S
C2125 C2124 1.396 . S
C2125 C2126 1.399 . S
C2126 H2112 0.929 . S
C2126 C2125 1.399 . S
C2126 C2127 1.385 . S
C2127 H2113 0.931 . S
C2127 C2126 1.385 . S
C2127 C2128 1.389 . S
C2128 C2127 1.389 . S
C2128 C2129 1.387 . S
C2129 H2114 0.930 . S
C2129 C2124 1.390 . S
C2129 C2128 1.387 . S
H2130 C2142 0.930 . S
H2131 C2144 0.930 . S
H2132 C2145 0.930 . S
H2133 C2149 0.959 . S
H2134 C2149 0.959 1_455 S
H2135 C2149 0.961 . S
H2136 C2150 0.960 . S
H2137 C2150 0.961 1_455 S
H2138 C2150 0.959 . S
H2139 C2153 0.929 . S
H2140 C2154 0.931 . S
H2141 C2156 0.930 . S
C2142 H2130 0.930 . S
C2142 C2143 1.399 . S
C2142 C2147 1.399 . S
C2143 C2142 1.399 . S
C2143 C2144 1.376 . S
C2144 H2131 0.930 . S
C2144 C2143 1.376 . S
C2144 C2145 1.388 . S
C2145 H2132 0.930 . S
C2145 C2144 1.388 . S
C2145 C2146 1.390 . S
C2146 C2145 1.390 . S
C2146 C2147 1.394 . S
C2146 C2152 1.465 1_655 S
C2147 C2142 1.399 . S
C2147 C2146 1.394 . S
C2147 C2148 1.516 . S
C2148 C2147 1.516 . S
C2148 C2149 1.502 . S
C2148 C2150 1.561 . S
C2148 C2151 1.526 1_655 S
C2149 H2133 0.959 . S
C2149 H2134 0.959 1_655 S
C2149 H2135 0.961 . S
C2149 C2148 1.502 . S
C2150 H2136 0.960 . S
C2150 H2137 0.961 1_655 S
C2150 H2138 0.959 . S
C2150 C2148 1.561 . S
C2151 C2148 1.526 1_455 S
C2151 C2152 1.396 . S
C2151 C2156 1.390 . S
C2152 C2146 1.465 1_455 S
C2152 C2151 1.396 . S
C2152 C2153 1.399 . S
C2153 H2139 0.929 . S
C2153 C2152 1.399 . S
C2153 C2154 1.385 . S
C2154 H2140 0.931 . S
C2154 C2153 1.385 . S
C2154 C2155 1.389 . S
C2155 C2154 1.389 . S
C2155 C2156 1.387 . S
C2156 H2141 0.930 . S
C2156 C2151 1.390 . S
C2156 C2155 1.387 . S
H2157 C2169 0.930 . S
H2158 C2171 0.930 . S
H2159 C2172 0.930 . S
H2160 C2176 0.959 . S
H2161 C2176 0.959 . S
H2162 C2176 0.961 . S
H2163 C2177 0.960 . S
H2164 C2177 0.961 . S
H2165 C2177 0.959 . S
H2166 C2180 0.929 . S
H2167 C2181 0.931 . S
H2168 C2183 0.930 . S
C2169 H2157 0.930 . S
C2169 C2170 1.399 . S
C2169 C2174 1.399 . S
C2170 C2169 1.399 . S
C2170 C2171 1.376 . S
C2171 H2158 0.930 . S
C2171 C2170 1.376 . S
C2171 C2172 1.388 . S
C2172 H2159 0.930 . S
C2172 C2171 1.388 . S
C2172 C2173 1.390 . S
C2173 C2172 1.390 . S
C2173 C2174 1.394 . S
C2173 C2179 1.465 . S
C2174 C2169 1.399 . S
C2174 C2173 1.394 . S
C2174 C2175 1.516 . S
C2175 C2174 1.516 . S
C2175 C2176 1.502 . S
C2175 C2177 1.561 . S
C2175 C2178 1.526 . S
C2176 H2160 0.959 . S
C2176 H2161 0.959 . S
C2176 H2162 0.961 . S
C2176 C2175 1.502 . S
C2177 H2163 0.960 . S
C2177 H2164 0.961 . S
C2177 H2165 0.959 . S
C2177 C2175 1.561 . S
C2178 C2175 1.526 . S
C2178 C2179 1.396 . S
C2178 C2183 1.390 . S
C2179 C2173 1.465 . S
C2179 C2178 1.396 . S
C2179 C2180 1.399 . S
C2180 H2166 0.929 . S
C2180 C2179 1.399 . S
C2180 C2181 1.385 . S
C2181 H2167 0.931 . S
C2181 C2180 1.385 . S
C2181 C2182 1.389 . S
C2182 C2181 1.389 . S
C2182 C2183 1.387 . S
C2183 H2168 0.930 . S
C2183 C2178 1.390 . S
C2183 C2182 1.387 . S
H2184 C2196 0.930 . S
H2185 C2198 0.930 . S
H2186 C2199 0.930 . S
H2187 C2203 0.959 . S
H2188 C2203 0.959 1_565 S
H2189 C2203 0.961 . S
H2190 C2204 0.960 . S
H2191 C2204 0.961 1_565 S
H2192 C2204 0.959 . S
H2193 C2207 0.929 . S
H2194 C2208 0.931 . S
H2195 C2210 0.930 . S
C2196 H2184 0.930 . S
C2196 C2197 1.399 . S
C2196 C2201 1.399 . S
C2197 C2196 1.399 . S
C2197 C2198 1.376 . S
C2198 H2185 0.930 . S
C2198 C2197 1.376 . S
C2198 C2199 1.388 . S
C2199 H2186 0.930 . S
C2199 C2198 1.388 . S
C2199 C2200 1.390 . S
C2200 C2199 1.390 . S
C2200 C2201 1.394 . S
C2200 C2206 1.465 . S
C2201 C2196 1.399 . S
C2201 C2200 1.394 . S
C2201 C2202 1.516 . S
C2202 C2201 1.516 . S
C2202 C2203 1.502 . S
C2202 C2204 1.561 . S
C2202 C2205 1.526 1_545 S
C2203 H2187 0.959 . S
C2203 H2188 0.959 1_545 S
C2203 H2189 0.961 . S
C2203 C2202 1.502 . S
C2204 H2190 0.960 . S
C2204 H2191 0.961 1_545 S
C2204 H2192 0.959 . S
C2204 C2202 1.561 . S
C2205 C2202 1.526 1_565 S
C2205 C2206 1.396 1_565 S
C2205 C2210 1.390 . S
C2206 C2200 1.465 . S
C2206 C2205 1.396 1_545 S
C2206 C2207 1.399 1_545 S
C2207 H2193 0.929 . S
C2207 C2206 1.399 1_565 S
C2207 C2208 1.385 . S
C2208 H2194 0.931 . S
C2208 C2207 1.385 . S
C2208 C2209 1.389 . S
C2209 C2208 1.389 . S
C2209 C2210 1.387 . S
C2210 H2195 0.930 . S
C2210 C2205 1.390 . S
C2210 C2209 1.387 . S
H2211 C2223 0.930 . S
H2212 C2225 0.930 . S
H2213 C2226 0.930 . S
H2214 C2230 0.959 . S
H2215 C2230 0.959 . S
H2216 C2230 0.961 . S
H2217 C2231 0.960 . S
H2218 C2231 0.961 . S
H2219 C2231 0.959 . S
H2220 C2234 0.929 . S
H2221 C2235 0.931 . S
H2222 C2237 0.930 . S
C2223 H2211 0.930 . S
C2223 C2224 1.399 . S
C2223 C2228 1.399 . S
C2224 C2223 1.399 . S
C2224 C2225 1.376 . S
C2225 H2212 0.930 . S
C2225 C2224 1.376 . S
C2225 C2226 1.388 . S
C2226 H2213 0.930 . S
C2226 C2225 1.388 . S
C2226 C2227 1.390 . S
C2227 C2226 1.390 . S
C2227 C2228 1.394 . S
C2227 C2233 1.465 . S
C2228 C2223 1.399 . S
C2228 C2227 1.394 . S
C2228 C2229 1.516 . S
C2229 C2228 1.516 . S
C2229 C2230 1.502 . S
C2229 C2231 1.561 . S
C2229 C2232 1.526 . S
C2230 H2214 0.959 . S
C2230 H2215 0.959 . S
C2230 H2216 0.961 . S
C2230 C2229 1.502 . S
C2231 H2217 0.960 . S
C2231 H2218 0.961 . S
C2231 H2219 0.959 . S
C2231 C2229 1.561 . S
C2232 C2229 1.526 . S
C2232 C2233 1.396 . S
C2232 C2237 1.390 . S
C2233 C2227 1.465 . S
C2233 C2232 1.396 . S
C2233 C2234 1.399 . S
C2234 H2220 0.929 . S
C2234 C2233 1.399 . S
C2234 C2235 1.385 . S
C2235 H2221 0.931 . S
C2235 C2234 1.385 . S
C2235 C2236 1.389 . S
C2236 C2235 1.389 . S
C2236 C2237 1.387 . S
C2237 H2222 0.930 . S
C2237 C2232 1.390 . S
C2237 C2236 1.387 . S
H2238 C2250 0.930 . S
H2239 C2252 0.930 . S
H2240 C2253 0.930 . S
H2241 C2257 0.959 . S
H2242 C2257 0.959 . S
H2243 C2257 0.961 1_545 S
H2244 C2258 0.960 1_545 S
H2245 C2258 0.961 . S
H2246 C2258 0.959 . S
H2247 C2261 0.929 . S
H2248 C2262 0.931 . S
H2249 C2264 0.930 . S
C2250 H2238 0.930 . S
C2250 C2251 1.399 . S
C2250 C2255 1.399 . S
C2251 C2250 1.399 . S
C2251 C2252 1.376 . S
C2252 H2239 0.930 . S
C2252 C2251 1.376 . S
C2252 C2253 1.388 . S
C2253 H2240 0.930 . S
C2253 C2252 1.388 . S
C2253 C2254 1.390 . S
C2254 C2253 1.390 . S
C2254 C2255 1.394 . S
C2254 C2260 1.465 1_545 S
C2255 C2250 1.399 . S
C2255 C2254 1.394 . S
C2255 C2256 1.516 1_545 S
C2256 C2255 1.516 1_565 S
C2256 C2257 1.502 . S
C2256 C2258 1.561 . S
C2256 C2259 1.526 . S
C2257 H2241 0.959 . S
C2257 H2242 0.959 . S
C2257 H2243 0.961 1_565 S
C2257 C2256 1.502 . S
C2258 H2244 0.960 1_565 S
C2258 H2245 0.961 . S
C2258 H2246 0.959 . S
C2258 C2256 1.561 . S
C2259 C2256 1.526 . S
C2259 C2260 1.396 . S
C2259 C2264 1.390 . S
C2260 C2254 1.465 1_565 S
C2260 C2259 1.396 . S
C2260 C2261 1.399 . S
C2261 H2247 0.929 . S
C2261 C2260 1.399 . S
C2261 C2262 1.385 . S
C2262 H2248 0.931 . S
C2262 C2261 1.385 . S
C2262 C2263 1.389 . S
C2263 C2262 1.389 . S
C2263 C2264 1.387 . S
C2264 H2249 0.930 . S
C2264 C2259 1.390 . S
C2264 C2263 1.387 . S
H2265 C2277 0.930 . S
H2266 C2279 0.930 . S
H2267 C2280 0.930 . S
H2268 C2284 0.959 . S
H2269 C2284 0.959 . S
H2270 C2284 0.961 . S
H2271 C2285 0.960 . S
H2272 C2285 0.961 . S
H2273 C2285 0.959 . S
H2274 C2288 0.929 . S
H2275 C2289 0.931 . S
H2276 C2291 0.930 . S
C2277 H2265 0.930 . S
C2277 C2278 1.399 . S
C2277 C2282 1.399 . S
C2278 C2277 1.399 . S
C2278 C2279 1.376 . S
C2279 H2266 0.930 . S
C2279 C2278 1.376 . S
C2279 C2280 1.388 . S
C2280 H2267 0.930 . S
C2280 C2279 1.388 . S
C2280 C2281 1.390 . S
C2281 C2280 1.390 . S
C2281 C2282 1.394 . S
C2281 C2287 1.465 . S
C2282 C2277 1.399 . S
C2282 C2281 1.394 . S
C2282 C2283 1.516 . S
C2283 C2282 1.516 . S
C2283 C2284 1.502 . S
C2283 C2285 1.561 . S
C2283 C2286 1.526 . S
C2284 H2268 0.959 . S
C2284 H2269 0.959 . S
C2284 H2270 0.961 . S
C2284 C2283 1.502 . S
C2285 H2271 0.960 . S
C2285 H2272 0.961 . S
C2285 H2273 0.959 . S
C2285 C2283 1.561 . S
C2286 C2283 1.526 . S
C2286 C2287 1.396 . S
C2286 C2291 1.390 . S
C2287 C2281 1.465 . S
C2287 C2286 1.396 . S
C2287 C2288 1.399 . S
C2288 H2274 0.929 . S
C2288 C2287 1.399 . S
C2288 C2289 1.385 . S
C2289 H2275 0.931 . S
C2289 C2288 1.385 . S
C2289 C2290 1.389 . S
C2290 C2289 1.389 . S
C2290 C2291 1.387 . S
C2291 H2276 0.930 . S
C2291 C2286 1.390 . S
C2291 C2290 1.387 . S
H2292 C2304 0.930 . S
H2293 C2306 0.930 . S
H2294 C2307 0.930 . S
H2295 C2311 0.959 . S
H2296 C2311 0.959 1_565 S
H2297 C2311 0.961 . S
H2298 C2312 0.960 . S
H2299 C2312 0.961 1_565 S
H2300 C2312 0.959 . S
H2301 C2315 0.929 . S
H2302 C2316 0.931 . S
H2303 C2318 0.930 . S
C2304 H2292 0.930 . S
C2304 C2305 1.399 . S
C2304 C2309 1.399 . S
C2305 C2304 1.399 . S
C2305 C2306 1.376 . S
C2306 H2293 0.930 . S
C2306 C2305 1.376 . S
C2306 C2307 1.388 . S
C2307 H2294 0.930 . S
C2307 C2306 1.388 . S
C2307 C2308 1.390 . S
C2308 C2307 1.390 . S
C2308 C2309 1.394 . S
C2308 C2314 1.465 1_545 S
C2309 C2304 1.399 . S
C2309 C2308 1.394 . S
C2309 C2310 1.516 . S
C2310 C2309 1.516 . S
C2310 C2311 1.502 . S
C2310 C2312 1.561 . S
C2310 C2313 1.526 1_545 S
C2311 H2295 0.959 . S
C2311 H2296 0.959 1_545 S
C2311 H2297 0.961 . S
C2311 C2310 1.502 . S
C2312 H2298 0.960 . S
C2312 H2299 0.961 1_545 S
C2312 H2300 0.959 . S
C2312 C2310 1.561 . S
C2313 C2310 1.526 1_565 S
C2313 C2314 1.396 . S
C2313 C2318 1.390 . S
C2314 C2308 1.465 1_565 S
C2314 C2313 1.396 . S
C2314 C2315 1.399 . S
C2315 H2301 0.929 . S
C2315 C2314 1.399 . S
C2315 C2316 1.385 . S
C2316 H2302 0.931 . S
C2316 C2315 1.385 . S
C2316 C2317 1.389 . S
C2317 C2316 1.389 . S
C2317 C2318 1.387 . S
C2318 H2303 0.930 . S
C2318 C2313 1.390 . S
C2318 C2317 1.387 . S
H2319 C2331 0.930 . S
H2320 C2333 0.930 . S
H2321 C2334 0.930 . S
H2322 C2338 0.959 . S
H2323 C2338 0.959 . S
H2324 C2338 0.961 . S
H2325 C2339 0.960 . S
H2326 C2339 0.961 . S
H2327 C2339 0.959 . S
H2328 C2342 0.929 . S
H2329 C2343 0.931 . S
H2330 C2345 0.930 . S
C2331 H2319 0.930 . S
C2331 C2332 1.399 . S
C2331 C2336 1.399 . S
C2332 C2331 1.399 . S
C2332 C2333 1.376 . S
C2333 H2320 0.930 . S
C2333 C2332 1.376 . S
C2333 C2334 1.388 . S
C2334 H2321 0.930 . S
C2334 C2333 1.388 . S
C2334 C2335 1.390 . S
C2335 C2334 1.390 . S
C2335 C2336 1.394 . S
C2335 C2341 1.465 . S
C2336 C2331 1.399 . S
C2336 C2335 1.394 . S
C2336 C2337 1.516 . S
C2337 C2336 1.516 . S
C2337 C2338 1.502 . S
C2337 C2339 1.561 . S
C2337 C2340 1.526 . S
C2338 H2322 0.959 . S
C2338 H2323 0.959 . S
C2338 H2324 0.961 . S
C2338 C2337 1.502 . S
C2339 H2325 0.960 . S
C2339 H2326 0.961 . S
C2339 H2327 0.959 . S
C2339 C2337 1.561 . S
C2340 C2337 1.526 . S
C2340 C2341 1.396 . S
C2340 C2345 1.390 . S
C2341 C2335 1.465 . S
C2341 C2340 1.396 . S
C2341 C2342 1.399 . S
C2342 H2328 0.929 . S
C2342 C2341 1.399 . S
C2342 C2343 1.385 . S
C2343 H2329 0.931 . S
C2343 C2342 1.385 . S
C2343 C2344 1.389 . S
C2344 C2343 1.389 . S
C2344 C2345 1.387 . S
C2345 H2330 0.930 . S
C2345 C2340 1.390 . S
C2345 C2344 1.387 . S
H2346 C2358 0.930 . S
H2347 C2360 0.930 . S
H2348 C2361 0.930 . S
H2349 C2365 0.959 . S
H2350 C2365 0.959 . S
H2351 C2365 0.961 . S
H2352 C2366 0.960 . S
H2353 C2366 0.961 . S
H2354 C2366 0.959 . S
H2355 C2369 0.929 . S
H2356 C2370 0.931 . S
H2357 C2372 0.930 . S
C2358 H2346 0.930 . S
C2358 C2359 1.399 . S
C2358 C2363 1.399 . S
C2359 C2358 1.399 . S
C2359 C2360 1.376 . S
C2360 H2347 0.930 . S
C2360 C2359 1.376 . S
C2360 C2361 1.388 . S
C2361 H2348 0.930 . S
C2361 C2360 1.388 . S
C2361 C2362 1.390 1_545 S
C2362 C2361 1.390 1_565 S
C2362 C2363 1.394 1_565 S
C2362 C2368 1.465 . S
C2363 C2358 1.399 . S
C2363 C2362 1.394 1_545 S
C2363 C2364 1.516 1_545 S
C2364 C2363 1.516 1_565 S
C2364 C2365 1.502 . S
C2364 C2366 1.561 . S
C2364 C2367 1.526 . S
C2365 H2349 0.959 . S
C2365 H2350 0.959 . S
C2365 H2351 0.961 . S
C2365 C2364 1.502 . S
C2366 H2352 0.960 . S
C2366 H2353 0.961 . S
C2366 H2354 0.959 . S
C2366 C2364 1.561 . S
C2367 C2364 1.526 . S
C2367 C2368 1.396 . S
C2367 C2372 1.390 . S
C2368 C2362 1.465 . S
C2368 C2367 1.396 . S
C2368 C2369 1.399 . S
C2369 H2355 0.929 . S
C2369 C2368 1.399 . S
C2369 C2370 1.385 . S
C2370 H2356 0.931 . S
C2370 C2369 1.385 . S
C2370 C2371 1.389 . S
C2371 C2370 1.389 . S
C2371 C2372 1.387 . S
C2372 H2357 0.930 . S
C2372 C2367 1.390 . S
C2372 C2371 1.387 . S
H2373 C2385 0.930 . S
H2374 C2387 0.930 . S
H2375 C2388 0.930 . S
H2376 C2392 0.959 . S
H2377 C2392 0.959 . S
H2378 C2392 0.961 . S
H2379 C2393 0.960 . S
H2380 C2393 0.961 . S
H2381 C2393 0.959 . S
H2382 C2396 0.929 . S
H2383 C2397 0.931 . S
H2384 C2399 0.930 . S
C2385 H2373 0.930 . S
C2385 C2386 1.399 . S
C2385 C2390 1.399 . S
C2386 C2385 1.399 . S
C2386 C2387 1.376 . S
C2387 H2374 0.930 . S
C2387 C2386 1.376 . S
C2387 C2388 1.388 . S
C2388 H2375 0.930 . S
C2388 C2387 1.388 . S
C2388 C2389 1.390 . S
C2389 C2388 1.390 . S
C2389 C2390 1.394 . S
C2389 C2395 1.465 . S
C2390 C2385 1.399 . S
C2390 C2389 1.394 . S
C2390 C2391 1.516 . S
C2391 C2390 1.516 . S
C2391 C2392 1.502 . S
C2391 C2393 1.561 . S
C2391 C2394 1.526 . S
C2392 H2376 0.959 . S
C2392 H2377 0.959 . S
C2392 H2378 0.961 . S
C2392 C2391 1.502 . S
C2393 H2379 0.960 . S
C2393 H2380 0.961 . S
C2393 H2381 0.959 . S
C2393 C2391 1.561 . S
C2394 C2391 1.526 . S
C2394 C2395 1.396 . S
C2394 C2399 1.390 . S
C2395 C2389 1.465 . S
C2395 C2394 1.396 . S
C2395 C2396 1.399 . S
C2396 H2382 0.929 . S
C2396 C2395 1.399 . S
C2396 C2397 1.385 . S
C2397 H2383 0.931 . S
C2397 C2396 1.385 . S
C2397 C2398 1.389 . S
C2398 C2397 1.389 . S
C2398 C2399 1.387 . S
C2399 H2384 0.930 . S
C2399 C2394 1.390 . S
C2399 C2398 1.387 . S
H2400 C2412 0.930 . S
H2401 C2414 0.930 . S
H2402 C2415 0.930 . S
H2403 C2419 0.959 . S
H2404 C2419 0.959 1_554 S
H2405 C2419 0.961 . S
H2406 C2420 0.960 . S
H2407 C2420 0.961 1_554 S
H2408 C2420 0.959 . S
H2409 C2423 0.929 . S
H2410 C2424 0.931 . S
H2411 C2426 0.930 . S
C2412 H2400 0.930 . S
C2412 C2413 1.399 . S
C2412 C2417 1.399 . S
C2413 C2412 1.399 . S
C2413 C2414 1.376 . S
C2414 H2401 0.930 . S
C2414 C2413 1.376 . S
C2414 C2415 1.388 . S
C2415 H2402 0.930 . S
C2415 C2414 1.388 . S
C2415 C2416 1.390 . S
C2416 C2415 1.390 . S
C2416 C2417 1.394 . S
C2416 C2422 1.465 1_556 S
C2417 C2412 1.399 . S
C2417 C2416 1.394 . S
C2417 C2418 1.516 . S
C2418 C2417 1.516 . S
C2418 C2419 1.502 . S
C2418 C2420 1.561 . S
C2418 C2421 1.526 1_556 S
C2419 H2403 0.959 . S
C2419 H2404 0.959 1_556 S
C2419 H2405 0.961 . S
C2419 C2418 1.502 . S
C2420 H2406 0.960 . S
C2420 H2407 0.961 1_556 S
C2420 H2408 0.959 . S
C2420 C2418 1.561 . S
C2421 C2418 1.526 1_554 S
C2421 C2422 1.396 . S
C2421 C2426 1.390 . S
C2422 C2416 1.465 1_554 S
C2422 C2421 1.396 . S
C2422 C2423 1.399 . S
C2423 H2409 0.929 . S
C2423 C2422 1.399 . S
C2423 C2424 1.385 . S
C2424 H2410 0.931 . S
C2424 C2423 1.385 . S
C2424 C2425 1.389 . S
C2425 C2424 1.389 . S
C2425 C2426 1.387 . S
C2426 H2411 0.930 . S
C2426 C2421 1.390 . S
C2426 C2425 1.387 . S
H2427 C2439 0.930 . S
H2428 C2441 0.930 . S
H2429 C2442 0.930 . S
H2430 C2446 0.962 . S
H2431 C2446 1.003 . S
H2432 C2446 0.918 1_556 S
H2433 C2447 0.960 1_556 S
H2434 C2447 0.961 . S
H2435 C2447 0.959 . S
H2436 C2450 0.929 . S
H2437 C2451 0.931 . S
H2438 C2453 0.930 . S
C2439 H2427 0.930 . S
C2439 C2440 1.399 . S
C2439 C2444 1.399 . S
C2440 C2439 1.399 . S
C2440 C2441 1.376 . S
C2441 H2428 0.930 . S
C2441 C2440 1.376 . S
C2441 C2442 1.388 . S
C2442 H2429 0.930 . S
C2442 C2441 1.388 . S
C2442 C2443 1.390 . S
C2443 C2442 1.390 . S
C2443 C2444 1.394 . S
C2443 C2449 1.465 1_556 S
C2444 C2439 1.399 . S
C2444 C2443 1.394 . S
C2444 C2445 1.516 1_556 S
C2445 C2444 1.516 1_554 S
C2445 C2446 1.502 . S
C2445 C2447 1.561 . S
C2445 C2448 1.526 . S
C2446 H2430 0.962 . S
C2446 H2431 1.003 . S
C2446 H2432 0.918 1_554 S
C2446 C2445 1.502 . S
C2447 H2433 0.960 1_554 S
C2447 H2434 0.961 . S
C2447 H2435 0.959 . S
C2447 C2445 1.561 . S
C2448 C2445 1.526 . S
C2448 C2449 1.396 . S
C2448 C2453 1.390 . S
C2449 C2443 1.465 1_554 S
C2449 C2448 1.396 . S
C2449 C2450 1.399 . S
C2450 H2436 0.929 . S
C2450 C2449 1.399 . S
C2450 C2451 1.385 . S
C2451 H2437 0.931 . S
C2451 C2450 1.385 . S
C2451 C2452 1.389 . S
C2452 C2451 1.389 . S
C2452 C2453 1.387 . S
C2453 H2438 0.930 . S
C2453 C2448 1.390 . S
C2453 C2452 1.387 . S
H2454 C2466 0.930 . S
H2455 C2468 0.930 . S
H2456 C2469 0.930 . S
H2457 C2473 0.959 . S
H2458 C2473 0.959 . S
H2459 C2473 0.961 . S
H2460 C2474 0.960 . S
H2461 C2474 0.961 . S
H2462 C2474 0.959 . S
H2463 C2477 0.929 . S
H2464 C2478 0.931 . S
H2465 C2480 0.930 . S
C2466 H2454 0.930 . S
C2466 C2467 1.399 . S
C2466 C2471 1.399 . S
C2467 C2466 1.399 . S
C2467 C2468 1.376 . S
C2468 H2455 0.930 . S
C2468 C2467 1.376 . S
C2468 C2469 1.388 . S
C2469 H2456 0.930 . S
C2469 C2468 1.388 . S
C2469 C2470 1.390 . S
C2470 C2469 1.390 . S
C2470 C2471 1.394 . S
C2470 C2476 1.465 . S
C2471 C2466 1.399 . S
C2471 C2470 1.394 . S
C2471 C2472 1.516 . S
C2472 C2471 1.516 . S
C2472 C2473 1.502 . S
C2472 C2474 1.561 . S
C2472 C2475 1.526 . S
C2473 H2457 0.959 . S
C2473 H2458 0.959 . S
C2473 H2459 0.961 . S
C2473 C2472 1.502 . S
C2474 H2460 0.960 . S
C2474 H2461 0.961 . S
C2474 H2462 0.959 . S
C2474 C2472 1.561 . S
C2475 C2472 1.526 . S
C2475 C2476 1.396 . S
C2475 C2480 1.390 . S
C2476 C2470 1.465 . S
C2476 C2475 1.396 . S
C2476 C2477 1.399 . S
C2477 H2463 0.929 . S
C2477 C2476 1.399 . S
C2477 C2478 1.385 . S
C2478 H2464 0.931 . S
C2478 C2477 1.385 . S
C2478 C2479 1.389 . S
C2479 C2478 1.389 . S
C2479 C2480 1.387 . S
C2480 H2465 0.930 . S
C2480 C2475 1.390 . S
C2480 C2479 1.387 . S
H2481 C2493 0.930 1_556 S
H2482 C2495 0.930 . S
H2483 C2496 0.930 . S
H2484 C2500 0.959 . S
H2485 C2500 0.959 . S
H2486 C2500 0.961 . S
H2487 C2501 0.960 . S
H2488 C2501 0.961 . S
H2489 C2501 0.959 . S
H2490 C2504 0.929 . S
H2491 C2505 0.931 . S
H2492 C2507 0.930 . S
C2493 H2481 0.930 1_554 S
C2493 C2494 1.399 1_554 S
C2493 C2498 1.399 . S
C2494 C2493 1.399 1_556 S
C2494 C2495 1.376 . S
C2495 H2482 0.930 . S
C2495 C2494 1.376 . S
C2495 C2496 1.388 1_556 S
C2496 H2483 0.930 . S
C2496 C2495 1.388 1_554 S
C2496 C2497 1.390 . S
C2497 C2496 1.390 . S
C2497 C2498 1.394 . S
C2497 C2503 1.465 . S
C2498 C2493 1.399 . S
C2498 C2497 1.394 . S
C2498 C2499 1.516 . S
C2499 C2498 1.516 . S
C2499 C2500 1.502 . S
C2499 C2501 1.561 . S
C2499 C2502 1.526 . S
C2500 H2484 0.959 . S
C2500 H2485 0.959 . S
C2500 H2486 0.961 . S
C2500 C2499 1.502 . S
C2501 H2487 0.960 . S
C2501 H2488 0.961 . S
C2501 H2489 0.959 . S
C2501 C2499 1.561 . S
C2502 C2499 1.526 . S
C2502 C2503 1.396 . S
C2502 C2507 1.390 . S
C2503 C2497 1.465 . S
C2503 C2502 1.396 . S
C2503 C2504 1.399 . S
C2504 H2490 0.929 . S
C2504 C2503 1.399 . S
C2504 C2505 1.385 . S
C2505 H2491 0.931 . S
C2505 C2504 1.385 . S
C2505 C2506 1.389 . S
C2506 C2505 1.389 . S
C2506 C2507 1.387 . S
C2507 H2492 0.930 . S
C2507 C2502 1.390 . S
C2507 C2506 1.387 . S
H2508 C2520 0.930 . S
H2509 C2522 0.930 . S
H2510 C2523 0.930 . S
H2511 C2527 0.959 . S
H2512 C2527 0.959 . S
H2513 C2527 0.961 . S
H2514 C2528 0.960 . S
H2515 C2528 0.961 . S
H2516 C2528 0.959 . S
H2517 C2531 0.929 . S
H2518 C2532 0.931 . S
H2519 C2534 0.930 . S
C2520 H2508 0.930 . S
C2520 C2521 1.399 . S
C2520 C2525 1.399 . S
C2521 C2520 1.399 . S
C2521 C2522 1.376 . S
C2522 H2509 0.930 . S
C2522 C2521 1.376 . S
C2522 C2523 1.388 . S
C2523 H2510 0.930 . S
C2523 C2522 1.388 . S
C2523 C2524 1.390 . S
C2524 C2523 1.390 . S
C2524 C2525 1.394 . S
C2524 C2530 1.465 . S
C2525 C2520 1.399 . S
C2525 C2524 1.394 . S
C2525 C2526 1.516 . S
C2526 C2525 1.516 . S
C2526 C2527 1.502 . S
C2526 C2528 1.561 . S
C2526 C2529 1.526 . S
C2527 H2511 0.959 . S
C2527 H2512 0.959 . S
C2527 H2513 0.961 . S
C2527 C2526 1.502 . S
C2528 H2514 0.960 . S
C2528 H2515 0.961 . S
C2528 H2516 0.959 . S
C2528 C2526 1.561 . S
C2529 C2526 1.526 . S
C2529 C2530 1.396 . S
C2529 C2534 1.390 . S
C2530 C2524 1.465 . S
C2530 C2529 1.396 . S
C2530 C2531 1.399 . S
C2531 H2517 0.929 . S
C2531 C2530 1.399 . S
C2531 C2532 1.385 . S
C2532 H2518 0.931 . S
C2532 C2531 1.385 . S
C2532 C2533 1.389 . S
C2533 C2532 1.389 . S
C2533 C2534 1.387 . S
C2534 H2519 0.930 . S
C2534 C2529 1.390 . S
C2534 C2533 1.387 . S
H2535 C2547 0.930 . S
H2536 C2549 0.930 . S
H2537 C2550 0.930 . S
H2538 C2554 0.959 . S
H2539 C2554 0.959 1_554 S
H2540 C2554 0.961 . S
H2541 C2555 0.960 . S
H2542 C2555 0.961 1_554 S
H2543 C2555 0.953 1_554 S
H2544 C2558 0.929 . S
H2545 C2559 0.931 . S
H2546 C2561 0.930 . S
C2547 H2535 0.930 . S
C2547 C2548 1.399 . S
C2547 C2552 1.399 . S
C2548 C2547 1.399 . S
C2548 C2549 1.376 . S
C2549 H2536 0.930 . S
C2549 C2548 1.376 . S
C2549 C2550 1.388 . S
C2550 H2537 0.930 . S
C2550 C2549 1.388 . S
C2550 C2551 1.390 . S
C2551 C2550 1.390 . S
C2551 C2552 1.394 . S
C2551 C2557 1.465 1_556 S
C2552 C2547 1.399 . S
C2552 C2551 1.394 . S
C2552 C2553 1.516 . S
C2553 C2552 1.516 . S
C2553 C2554 1.502 . S
C2553 C2555 1.561 . S
C2553 C2556 1.526 1_556 S
C2554 H2538 0.959 . S
C2554 H2539 0.959 1_556 S
C2554 H2540 0.961 . S
C2554 C2553 1.502 . S
C2555 H2541 0.960 . S
C2555 H2542 0.961 1_556 S
C2555 H2543 0.953 1_556 S
C2555 C2553 1.561 . S
C2556 C2553 1.526 1_554 S
C2556 C2557 1.396 . S
C2556 C2561 1.390 . S
C2557 C2551 1.465 1_554 S
C2557 C2556 1.396 . S
C2557 C2558 1.399 . S
C2558 H2544 0.929 . S
C2558 C2557 1.399 . S
C2558 C2559 1.385 . S
C2559 H2545 0.931 . S
C2559 C2558 1.385 . S
C2559 C2560 1.389 . S
C2560 C2559 1.389 . S
C2560 C2561 1.387 . S
C2561 H2546 0.930 . S
C2561 C2556 1.390 . S
C2561 C2560 1.387 . S
H2562 C2574 0.930 . S
H2563 C2576 0.930 . S
H2564 C2577 0.930 . S
H2565 C2581 0.959 . S
H2566 C2581 0.959 . S
H2567 C2581 0.961 . S
H2568 C2582 0.960 . S
H2569 C2582 0.961 . S
H2570 C2582 0.959 . S
H2571 C2585 0.929 . S
H2572 C2586 0.931 . S
H2573 C2588 0.930 . S
C2574 H2562 0.930 . S
C2574 C2575 1.399 . S
C2574 C2579 1.399 . S
C2575 C2574 1.399 . S
C2575 C2576 1.376 . S
C2576 H2563 0.930 . S
C2576 C2575 1.376 . S
C2576 C2577 1.388 . S
C2577 H2564 0.930 . S
C2577 C2576 1.388 . S
C2577 C2578 1.390 . S
C2578 C2577 1.390 . S
C2578 C2579 1.394 . S
C2578 C2584 1.465 . S
C2579 C2574 1.399 . S
C2579 C2578 1.394 . S
C2579 C2580 1.516 . S
C2580 C2579 1.516 . S
C2580 C2581 1.502 . S
C2580 C2582 1.561 . S
C2580 C2583 1.526 . S
C2581 H2565 0.959 . S
C2581 H2566 0.959 . S
C2581 H2567 0.961 . S
C2581 C2580 1.502 . S
C2582 H2568 0.960 . S
C2582 H2569 0.961 . S
C2582 H2570 0.959 . S
C2582 C2580 1.561 . S
C2583 C2580 1.526 . S
C2583 C2584 1.396 . S
C2583 C2588 1.390 . S
C2584 C2578 1.465 . S
C2584 C2583 1.396 . S
C2584 C2585 1.399 . S
C2585 H2571 0.929 . S
C2585 C2584 1.399 . S
C2585 C2586 1.385 . S
C2586 H2572 0.931 . S
C2586 C2585 1.385 . S
C2586 C2587 1.389 . S
C2587 C2586 1.389 . S
C2587 C2588 1.387 . S
C2588 H2573 0.930 . S
C2588 C2583 1.390 . S
C2588 C2587 1.387 . S
H2589 C2601 0.930 . S
H2590 C2603 0.930 . S
H2591 C2604 0.930 . S
H2592 C2608 0.959 . S
H2593 C2608 0.959 . S
H2594 C2608 0.961 . S
H2595 C2609 0.960 . S
H2596 C2609 0.961 . S
H2597 C2609 0.959 . S
H2598 C2612 0.929 . S
H2599 C2613 0.931 . S
H2600 C2615 0.930 . S
C2601 H2589 0.930 . S
C2601 C2602 1.399 . S
C2601 C2606 1.399 . S
C2602 C2601 1.399 . S
C2602 C2603 1.376 . S
C2603 H2590 0.930 . S
C2603 C2602 1.376 . S
C2603 C2604 1.388 . S
C2604 H2591 0.930 . S
C2604 C2603 1.388 . S
C2604 C2605 1.390 . S
C2605 C2604 1.390 . S
C2605 C2606 1.394 . S
C2605 C2611 1.465 . S
C2606 C2601 1.399 . S
C2606 C2605 1.394 . S
C2606 C2607 1.516 . S
C2607 C2606 1.516 . S
C2607 C2608 1.502 . S
C2607 C2609 1.561 . S
C2607 C2610 1.526 . S
C2608 H2592 0.959 . S
C2608 H2593 0.959 . S
C2608 H2594 0.961 . S
C2608 C2607 1.502 . S
C2609 H2595 0.960 . S
C2609 H2596 0.961 . S
C2609 H2597 0.959 . S
C2609 C2607 1.561 . S
C2610 C2607 1.526 . S
C2610 C2611 1.396 . S
C2610 C2615 1.390 . S
C2611 C2605 1.465 . S
C2611 C2610 1.396 . S
C2611 C2612 1.399 . S
C2612 H2598 0.929 . S
C2612 C2611 1.399 . S
C2612 C2613 1.385 . S
C2613 H2599 0.931 . S
C2613 C2612 1.385 . S
C2613 C2614 1.389 . S
C2614 C2613 1.389 . S
C2614 C2615 1.387 . S
C2615 H2600 0.930 . S
C2615 C2610 1.390 . S
C2615 C2614 1.387 . S
H2616 C2628 0.930 . S
H2617 C2630 0.930 . S
H2618 C2631 0.930 . S
H2619 C2635 0.959 . S
H2620 C2635 0.959 . S
H2621 C2635 0.961 . S
H2622 C2636 0.960 . S
H2623 C2636 0.961 . S
H2624 C2636 0.959 . S
H2625 C2639 0.929 . S
H2626 C2640 0.931 . S
H2627 C2642 0.930 . S
C2628 H2616 0.930 . S
C2628 C2629 1.399 . S
C2628 C2633 1.399 . S
C2629 C2628 1.399 . S
C2629 C2630 1.376 . S
C2630 H2617 0.930 . S
C2630 C2629 1.376 . S
C2630 C2631 1.388 . S
C2631 H2618 0.930 . S
C2631 C2630 1.388 . S
C2631 C2632 1.390 . S
C2632 C2631 1.390 . S
C2632 C2633 1.394 . S
C2632 C2638 1.465 . S
C2633 C2628 1.399 . S
C2633 C2632 1.394 . S
C2633 C2634 1.516 . S
C2634 C2633 1.516 . S
C2634 C2635 1.502 . S
C2634 C2636 1.561 . S
C2634 C2637 1.526 . S
C2635 H2619 0.959 . S
C2635 H2620 0.959 . S
C2635 H2621 0.961 . S
C2635 C2634 1.502 . S
C2636 H2622 0.960 . S
C2636 H2623 0.961 . S
C2636 H2624 0.959 . S
C2636 C2634 1.561 . S
C2637 C2634 1.526 . S
C2637 C2638 1.396 . S
C2637 C2642 1.390 . S
C2638 C2632 1.465 . S
C2638 C2637 1.396 . S
C2638 C2639 1.399 . S
C2639 H2625 0.929 . S
C2639 C2638 1.399 . S
C2639 C2640 1.385 . S
C2640 H2626 0.931 . S
C2640 C2639 1.385 . S
C2640 C2641 1.389 . S
C2641 C2640 1.389 . S
C2641 C2642 1.387 . S
C2642 H2627 0.930 . S
C2642 C2637 1.390 . S
C2642 C2641 1.387 . S
H2643 C2655 0.930 . S
H2644 C2657 0.930 . S
H2645 C2658 0.930 . S
H2646 C2662 0.959 . S
H2647 C2662 0.959 . S
H2648 C2662 0.961 . S
H2649 C2663 0.960 . S
H2650 C2663 0.961 . S
H2651 C2663 0.959 . S
H2652 C2666 0.929 . S
H2653 C2667 0.931 . S
H2654 C2669 0.930 . S
C2655 H2643 0.930 . S
C2655 C2656 1.399 . S
C2655 C2660 1.399 . S
C2656 C2655 1.399 . S
C2656 C2657 1.376 . S
C2657 H2644 0.930 . S
C2657 C2656 1.376 . S
C2657 C2658 1.388 . S
C2658 H2645 0.930 . S
C2658 C2657 1.388 . S
C2658 C2659 1.390 . S
C2659 C2658 1.390 . S
C2659 C2660 1.394 . S
C2659 C2665 1.465 . S
C2660 C2655 1.399 . S
C2660 C2659 1.394 . S
C2660 C2661 1.516 . S
C2661 C2660 1.516 . S
C2661 C2662 1.502 . S
C2661 C2663 1.561 . S
C2661 C2664 1.526 . S
C2662 H2646 0.959 . S
C2662 H2647 0.959 . S
C2662 H2648 0.961 . S
C2662 C2661 1.502 . S
C2663 H2649 0.960 . S
C2663 H2650 0.961 . S
C2663 H2651 0.959 . S
C2663 C2661 1.561 . S
C2664 C2661 1.526 . S
C2664 C2665 1.396 . S
C2664 C2669 1.390 . S
C2665 C2659 1.465 . S
C2665 C2664 1.396 . S
C2665 C2666 1.399 . S
C2666 H2652 0.929 . S
C2666 C2665 1.399 . S
C2666 C2667 1.385 . S
C2667 H2653 0.931 . S
C2667 C2666 1.385 . S
C2667 C2668 1.389 . S
C2668 C2667 1.389 . S
C2668 C2669 1.387 . S
C2669 H2654 0.930 . S
C2669 C2664 1.390 . S
C2669 C2668 1.387 . S
H2670 C2682 0.930 . S
H2671 C2684 0.930 . S
H2672 C2685 0.930 . S
H2673 C2689 0.959 . S
H2674 C2689 0.959 . S
H2675 C2689 0.961 . S
H2676 C2690 0.960 . S
H2677 C2690 0.961 . S
H2678 C2690 0.959 . S
H2679 C2693 0.929 . S
H2680 C2694 0.931 . S
H2681 C2696 0.930 . S
C2682 H2670 0.930 . S
C2682 C2683 1.399 . S
C2682 C2687 1.399 . S
C2683 C2682 1.399 . S
C2683 C2684 1.376 . S
C2684 H2671 0.930 . S
C2684 C2683 1.376 . S
C2684 C2685 1.388 . S
C2685 H2672 0.930 . S
C2685 C2684 1.388 . S
C2685 C2686 1.390 . S
C2686 C2685 1.390 . S
C2686 C2687 1.394 . S
C2686 C2692 1.465 . S
C2687 C2682 1.399 . S
C2687 C2686 1.394 . S
C2687 C2688 1.516 . S
C2688 C2687 1.516 . S
C2688 C2689 1.502 . S
C2688 C2690 1.561 . S
C2688 C2691 1.526 . S
C2689 H2673 0.959 . S
C2689 H2674 0.959 . S
C2689 H2675 0.961 . S
C2689 C2688 1.502 . S
C2690 H2676 0.960 . S
C2690 H2677 0.961 . S
C2690 H2678 0.959 . S
C2690 C2688 1.561 . S
C2691 C2688 1.526 . S
C2691 C2692 1.396 . S
C2691 C2696 1.390 . S
C2692 C2686 1.465 . S
C2692 C2691 1.396 . S
C2692 C2693 1.399 . S
C2693 H2679 0.929 . S
C2693 C2692 1.399 . S
C2693 C2694 1.385 . S
C2694 H2680 0.931 . S
C2694 C2693 1.385 . S
C2694 C2695 1.389 . S
C2695 C2694 1.389 . S
C2695 C2696 1.387 . S
C2696 H2681 0.930 . S
C2696 C2691 1.390 . S
C2696 C2695 1.387 . S
H2697 C2709 0.930 . S
H2698 C2711 0.930 . S
H2699 C2712 0.930 . S
H2700 C2716 0.959 . S
H2701 C2716 0.959 . S
H2702 C2716 0.961 . S
H2703 C2717 0.960 . S
H2704 C2717 0.961 . S
H2705 C2717 0.959 . S
H2706 C2720 0.929 . S
H2707 C2721 0.931 . S
H2708 C2723 0.930 . S
C2709 H2697 0.930 . S
C2709 C2710 1.399 . S
C2709 C2714 1.399 . S
C2710 C2709 1.399 . S
C2710 C2711 1.376 . S
C2711 H2698 0.930 . S
C2711 C2710 1.376 . S
C2711 C2712 1.388 . S
C2712 H2699 0.930 . S
C2712 C2711 1.388 . S
C2712 C2713 1.390 . S
C2713 C2712 1.390 . S
C2713 C2714 1.394 . S
C2713 C2719 1.465 . S
C2714 C2709 1.399 . S
C2714 C2713 1.394 . S
C2714 C2715 1.516 . S
C2715 C2714 1.516 . S
C2715 C2716 1.502 . S
C2715 C2717 1.561 . S
C2715 C2718 1.526 . S
C2716 H2700 0.959 . S
C2716 H2701 0.959 . S
C2716 H2702 0.961 . S
C2716 C2715 1.502 . S
C2717 H2703 0.960 . S
C2717 H2704 0.961 . S
C2717 H2705 0.959 . S
C2717 C2715 1.561 . S
C2718 C2715 1.526 . S
C2718 C2719 1.396 . S
C2718 C2723 1.390 . S
C2719 C2713 1.465 . S
C2719 C2718 1.396 . S
C2719 C2720 1.399 . S
C2720 H2706 0.929 . S
C2720 C2719 1.399 . S
C2720 C2721 1.385 . S
C2721 H2707 0.931 . S
C2721 C2720 1.385 . S
C2721 C2722 1.389 . S
C2722 C2721 1.389 . S
C2722 C2723 1.387 . S
C2723 H2708 0.930 . S
C2723 C2718 1.390 . S
C2723 C2722 1.387 . S
H2724 C2736 0.930 . S
H2725 C2738 0.930 . S
H2726 C2739 0.930 . S
H2727 C2743 0.959 . S
H2728 C2743 0.959 . S
H2729 C2743 0.961 . S
H2730 C2744 0.960 . S
H2731 C2744 0.961 . S
H2732 C2744 0.959 . S
H2733 C2747 0.929 . S
H2734 C2748 0.931 . S
H2735 C2750 0.930 . S
C2736 H2724 0.930 . S
C2736 C2737 1.399 . S
C2736 C2741 1.399 . S
C2737 C2736 1.399 . S
C2737 C2738 1.376 . S
C2738 H2725 0.930 . S
C2738 C2737 1.376 . S
C2738 C2739 1.388 . S
C2739 H2726 0.930 . S
C2739 C2738 1.388 . S
C2739 C2740 1.390 . S
C2740 C2739 1.390 . S
C2740 C2741 1.394 . S
C2740 C2746 1.465 . S
C2741 C2736 1.399 . S
C2741 C2740 1.394 . S
C2741 C2742 1.516 . S
C2742 C2741 1.516 . S
C2742 C2743 1.502 . S
C2742 C2744 1.561 . S
C2742 C2745 1.526 . S
C2743 H2727 0.959 . S
C2743 H2728 0.959 . S
C2743 H2729 0.961 . S
C2743 C2742 1.502 . S
C2744 H2730 0.960 . S
C2744 H2731 0.961 . S
C2744 H2732 0.959 . S
C2744 C2742 1.561 . S
C2745 C2742 1.526 . S
C2745 C2746 1.396 . S
C2745 C2750 1.390 . S
C2746 C2740 1.465 . S
C2746 C2745 1.396 . S
C2746 C2747 1.399 . S
C2747 H2733 0.929 . S
C2747 C2746 1.399 . S
C2747 C2748 1.385 . S
C2748 H2734 0.931 . S
C2748 C2747 1.385 . S
C2748 C2749 1.389 . S
C2749 C2748 1.389 . S
C2749 C2750 1.387 . S
C2750 H2735 0.930 . S
C2750 C2745 1.390 . S
C2750 C2749 1.387 . S
H2751 C2763 0.930 . S
H2752 C2765 0.930 . S
H2753 C2766 0.930 . S
H2754 C2770 0.959 . S
H2755 C2770 0.959 . S
H2756 C2770 0.961 . S
H2757 C2771 0.960 . S
H2758 C2771 0.961 . S
H2759 C2771 0.959 . S
H2760 C2774 0.929 . S
H2761 C2775 0.931 . S
H2762 C2777 0.930 . S
C2763 H2751 0.930 . S
C2763 C2764 1.399 . S
C2763 C2768 1.399 . S
C2764 C2763 1.399 . S
C2764 C2765 1.376 . S
C2765 H2752 0.930 . S
C2765 C2764 1.376 . S
C2765 C2766 1.388 . S
C2766 H2753 0.930 . S
C2766 C2765 1.388 . S
C2766 C2767 1.390 . S
C2767 C2766 1.390 . S
C2767 C2768 1.394 . S
C2767 C2773 1.465 . S
C2768 C2763 1.399 . S
C2768 C2767 1.394 . S
C2768 C2769 1.516 . S
C2769 C2768 1.516 . S
C2769 C2770 1.502 . S
C2769 C2771 1.561 . S
C2769 C2772 1.526 . S
C2770 H2754 0.959 . S
C2770 H2755 0.959 . S
C2770 H2756 0.961 . S
C2770 C2769 1.502 . S
C2771 H2757 0.960 . S
C2771 H2758 0.961 . S
C2771 H2759 0.959 . S
C2771 C2769 1.561 . S
C2772 C2769 1.526 . S
C2772 C2773 1.396 . S
C2772 C2777 1.390 . S
C2773 C2767 1.465 . S
C2773 C2772 1.396 . S
C2773 C2774 1.399 . S
C2774 H2760 0.929 . S
C2774 C2773 1.399 . S
C2774 C2775 1.385 . S
C2775 H2761 0.931 . S
C2775 C2774 1.385 . S
C2775 C2776 1.389 . S
C2776 C2775 1.389 . S
C2776 C2777 1.387 . S
C2777 H2762 0.930 . S
C2777 C2772 1.390 . S
C2777 C2776 1.387 . S
H2778 C2790 0.930 . S
H2779 C2792 0.930 . S
H2780 C2793 0.930 . S
H2781 C2797 0.959 . S
H2782 C2797 0.959 . S
H2783 C2797 0.961 . S
H2784 C2798 0.960 . S
H2785 C2798 0.961 . S
H2786 C2798 0.959 . S
H2787 C2801 0.929 . S
H2788 C2802 0.931 . S
H2789 C2804 0.930 . S
C2790 H2778 0.930 . S
C2790 C2791 1.399 . S
C2790 C2795 1.399 . S
C2791 C2790 1.399 . S
C2791 C2792 1.376 . S
C2792 H2779 0.930 . S
C2792 C2791 1.376 . S
C2792 C2793 1.388 . S
C2793 H2780 0.930 . S
C2793 C2792 1.388 . S
C2793 C2794 1.390 . S
C2794 C2793 1.390 . S
C2794 C2795 1.394 . S
C2794 C2800 1.465 . S
C2795 C2790 1.399 . S
C2795 C2794 1.394 . S
C2795 C2796 1.516 . S
C2796 C2795 1.516 . S
C2796 C2797 1.502 . S
C2796 C2798 1.561 . S
C2796 C2799 1.526 . S
C2797 H2781 0.959 . S
C2797 H2782 0.959 . S
C2797 H2783 0.961 . S
C2797 C2796 1.502 . S
C2798 H2784 0.960 . S
C2798 H2785 0.961 . S
C2798 H2786 0.959 . S
C2798 C2796 1.561 . S
C2799 C2796 1.526 . S
C2799 C2800 1.396 . S
C2799 C2804 1.390 . S
C2800 C2794 1.465 . S
C2800 C2799 1.396 . S
C2800 C2801 1.399 . S
C2801 H2787 0.929 . S
C2801 C2800 1.399 . S
C2801 C2802 1.385 . S
C2802 H2788 0.931 . S
C2802 C2801 1.385 . S
C2802 C2803 1.389 . S
C2803 C2802 1.389 . S
C2803 C2804 1.387 . S
C2804 H2789 0.930 . S
C2804 C2799 1.390 . S
C2804 C2803 1.387 . S
H2805 C2817 0.930 . S
H2806 C2819 0.930 . S
H2807 C2820 0.930 . S
H2808 C2824 0.959 . S
H2809 C2824 0.959 . S
H2810 C2824 0.961 . S
H2811 C2825 0.960 . S
H2812 C2825 0.961 . S
H2813 C2825 0.959 . S
H2814 C2828 0.929 . S
H2815 C2829 0.931 . S
H2816 C2831 0.930 . S
C2817 H2805 0.930 . S
C2817 C2818 1.399 . S
C2817 C2822 1.399 . S
C2818 C2817 1.399 . S
C2818 C2819 1.376 . S
C2819 H2806 0.930 . S
C2819 C2818 1.376 . S
C2819 C2820 1.388 . S
C2820 H2807 0.930 . S
C2820 C2819 1.388 . S
C2820 C2821 1.390 . S
C2821 C2820 1.390 . S
C2821 C2822 1.394 . S
C2821 C2827 1.465 . S
C2822 C2817 1.399 . S
C2822 C2821 1.394 . S
C2822 C2823 1.516 . S
C2823 C2822 1.516 . S
C2823 C2824 1.502 . S
C2823 C2825 1.561 . S
C2823 C2826 1.526 . S
C2824 H2808 0.959 . S
C2824 H2809 0.959 . S
C2824 H2810 0.961 . S
C2824 C2823 1.502 . S
C2825 H2811 0.960 . S
C2825 H2812 0.961 . S
C2825 H2813 0.959 . S
C2825 C2823 1.561 . S
C2826 C2823 1.526 . S
C2826 C2827 1.396 . S
C2826 C2831 1.390 . S
C2827 C2821 1.465 . S
C2827 C2826 1.396 . S
C2827 C2828 1.399 . S
C2828 H2814 0.929 . S
C2828 C2827 1.399 . S
C2828 C2829 1.385 . S
C2829 H2815 0.931 . S
C2829 C2828 1.385 . S
C2829 C2830 1.389 . S
C2830 C2829 1.389 . S
C2830 C2831 1.387 . S
C2831 H2816 0.930 . S
C2831 C2826 1.390 . S
C2831 C2830 1.387 . S
H2832 C2844 0.930 . S
H2833 C2846 0.930 . S
H2834 C2847 0.930 . S
H2835 C2851 0.959 . S
H2836 C2851 0.959 . S
H2837 C2851 0.961 . S
H2838 C2852 0.960 . S
H2839 C2852 0.961 . S
H2840 C2852 0.959 . S
H2841 C2855 0.929 . S
H2842 C2856 0.931 . S
H2843 C2858 0.930 . S
C2844 H2832 0.930 . S
C2844 C2845 1.399 . S
C2844 C2849 1.399 . S
C2845 C2844 1.399 . S
C2845 C2846 1.376 . S
C2846 H2833 0.930 . S
C2846 C2845 1.376 . S
C2846 C2847 1.388 . S
C2847 H2834 0.930 . S
C2847 C2846 1.388 . S
C2847 C2848 1.390 . S
C2848 C2847 1.390 . S
C2848 C2849 1.394 . S
C2848 C2854 1.465 . S
C2849 C2844 1.399 . S
C2849 C2848 1.394 . S
C2849 C2850 1.516 . S
C2850 C2849 1.516 . S
C2850 C2851 1.502 . S
C2850 C2852 1.561 . S
C2850 C2853 1.526 . S
C2851 H2835 0.959 . S
C2851 H2836 0.959 . S
C2851 H2837 0.961 . S
C2851 C2850 1.502 . S
C2852 H2838 0.960 . S
C2852 H2839 0.961 . S
C2852 H2840 0.959 . S
C2852 C2850 1.561 . S
C2853 C2850 1.526 . S
C2853 C2854 1.396 . S
C2853 C2858 1.390 . S
C2854 C2848 1.465 . S
C2854 C2853 1.396 . S
C2854 C2855 1.399 . S
C2855 H2841 0.929 . S
C2855 C2854 1.399 . S
C2855 C2856 1.385 . S
C2856 H2842 0.931 . S
C2856 C2855 1.385 . S
C2856 C2857 1.389 . S
C2857 C2856 1.389 . S
C2857 C2858 1.387 . S
C2858 H2843 0.930 . S
C2858 C2853 1.390 . S
C2858 C2857 1.387 . S
H2859 C2871 0.930 . S
H2860 C2873 0.930 . S
H2861 C2874 0.930 . S
H2862 C2878 0.959 . S
H2863 C2878 0.959 . S
H2864 C2878 0.961 . S
H2865 C2879 0.960 . S
H2866 C2879 0.961 . S
H2867 C2879 0.959 . S
H2868 C2882 0.929 . S
H2869 C2883 0.931 . S
H2870 C2885 0.930 . S
C2871 H2859 0.930 . S
C2871 C2872 1.399 . S
C2871 C2876 1.399 . S
C2872 C2871 1.399 . S
C2872 C2873 1.376 . S
C2873 H2860 0.930 . S
C2873 C2872 1.376 . S
C2873 C2874 1.388 . S
C2874 H2861 0.930 . S
C2874 C2873 1.388 . S
C2874 C2875 1.390 . S
C2875 C2874 1.390 . S
C2875 C2876 1.394 . S
C2875 C2881 1.465 . S
C2876 C2871 1.399 . S
C2876 C2875 1.394 . S
C2876 C2877 1.516 . S
C2877 C2876 1.516 . S
C2877 C2878 1.502 . S
C2877 C2879 1.561 . S
C2877 C2880 1.526 . S
C2878 H2862 0.959 . S
C2878 H2863 0.959 . S
C2878 H2864 0.961 . S
C2878 C2877 1.502 . S
C2879 H2865 0.960 . S
C2879 H2866 0.961 . S
C2879 H2867 0.959 . S
C2879 C2877 1.561 . S
C2880 C2877 1.526 . S
C2880 C2881 1.396 . S
C2880 C2885 1.390 . S
C2881 C2875 1.465 . S
C2881 C2880 1.396 . S
C2881 C2882 1.399 . S
C2882 H2868 0.929 . S
C2882 C2881 1.399 . S
C2882 C2883 1.385 . S
C2883 H2869 0.931 . S
C2883 C2882 1.385 . S
C2883 C2884 1.389 . S
C2884 C2883 1.389 . S
C2884 C2885 1.387 . S
C2885 H2870 0.930 . S
C2885 C2880 1.390 . S
C2885 C2884 1.387 . S
H2886 C2898 0.930 . S
H2887 C2900 0.930 . S
H2888 C2901 0.930 . S
H2889 C2905 0.959 . S
H2890 C2905 0.959 . S
H2891 C2905 0.961 . S
H2892 C2906 0.960 . S
H2893 C2906 0.961 . S
H2894 C2906 0.959 . S
H2895 C2909 0.929 . S
H2896 C2910 0.931 . S
H2897 C2912 0.930 . S
C2898 H2886 0.930 . S
C2898 C2899 1.399 . S
C2898 C2903 1.399 . S
C2899 C2898 1.399 . S
C2899 C2900 1.376 . S
C2900 H2887 0.930 . S
C2900 C2899 1.376 . S
C2900 C2901 1.388 . S
C2901 H2888 0.930 . S
C2901 C2900 1.388 . S
C2901 C2902 1.390 . S
C2902 C2901 1.390 . S
C2902 C2903 1.394 . S
C2902 C2908 1.465 . S
C2903 C2898 1.399 . S
C2903 C2902 1.394 . S
C2903 C2904 1.516 . S
C2904 C2903 1.516 . S
C2904 C2905 1.502 . S
C2904 C2906 1.561 . S
C2904 C2907 1.526 . S
C2905 H2889 0.959 . S
C2905 H2890 0.959 . S
C2905 H2891 0.961 . S
C2905 C2904 1.502 . S
C2906 H2892 0.960 . S
C2906 H2893 0.961 . S
C2906 H2894 0.959 . S
C2906 C2904 1.561 . S
C2907 C2904 1.526 . S
C2907 C2908 1.396 . S
C2907 C2912 1.390 . S
C2908 C2902 1.465 . S
C2908 C2907 1.396 . S
C2908 C2909 1.399 . S
C2909 H2895 0.929 . S
C2909 C2908 1.399 . S
C2909 C2910 1.385 . S
C2910 H2896 0.931 . S
C2910 C2909 1.385 . S
C2910 C2911 1.389 . S
C2911 C2910 1.389 . S
C2911 C2912 1.387 . S
C2912 H2897 0.930 . S
C2912 C2907 1.390 . S
C2912 C2911 1.387 . S
H2913 C2925 0.930 . S
H2914 C2927 0.930 . S
H2915 C2928 0.930 . S
H2916 C2932 0.959 . S
H2917 C2932 0.959 . S
H2918 C2932 0.961 . S
H2919 C2933 0.960 . S
H2920 C2933 0.961 . S
H2921 C2933 0.959 . S
H2922 C2936 0.929 . S
H2923 C2937 0.931 . S
H2924 C2939 0.930 . S
C2925 H2913 0.930 . S
C2925 C2926 1.399 . S
C2925 C2930 1.399 . S
C2926 C2925 1.399 . S
C2926 C2927 1.376 . S
C2927 H2914 0.930 . S
C2927 C2926 1.376 . S
C2927 C2928 1.388 . S
C2928 H2915 0.930 . S
C2928 C2927 1.388 . S
C2928 C2929 1.390 . S
C2929 C2928 1.390 . S
C2929 C2930 1.394 . S
C2929 C2935 1.465 . S
C2930 C2925 1.399 . S
C2930 C2929 1.394 . S
C2930 C2931 1.516 . S
C2931 C2930 1.516 . S
C2931 C2932 1.502 . S
C2931 C2933 1.561 . S
C2931 C2934 1.526 . S
C2932 H2916 0.959 . S
C2932 H2917 0.959 . S
C2932 H2918 0.961 . S
C2932 C2931 1.502 . S
C2933 H2919 0.960 . S
C2933 H2920 0.961 . S
C2933 H2921 0.959 . S
C2933 C2931 1.561 . S
C2934 C2931 1.526 . S
C2934 C2935 1.396 . S
C2934 C2939 1.390 . S
C2935 C2929 1.465 . S
C2935 C2934 1.396 . S
C2935 C2936 1.399 . S
C2936 H2922 0.929 . S
C2936 C2935 1.399 . S
C2936 C2937 1.385 . S
C2937 H2923 0.931 . S
C2937 C2936 1.385 . S
C2937 C2938 1.389 . S
C2938 C2937 1.389 . S
C2938 C2939 1.387 . S
C2939 H2924 0.930 . S
C2939 C2934 1.390 . S
C2939 C2938 1.387 . S
H2940 C2952 0.930 . S
H2941 C2954 0.930 . S
H2942 C2955 0.930 . S
H2943 C2959 0.959 . S
H2944 C2959 0.959 . S
H2945 C2959 0.961 . S
H2946 C2960 0.960 . S
H2947 C2960 0.961 . S
H2948 C2960 0.959 . S
H2949 C2963 0.929 . S
H2950 C2964 0.931 . S
H2951 C2966 0.930 . S
C2952 H2940 0.930 . S
C2952 C2953 1.399 . S
C2952 C2957 1.399 . S
C2953 C2952 1.399 . S
C2953 C2954 1.376 . S
C2954 H2941 0.930 . S
C2954 C2953 1.376 . S
C2954 C2955 1.388 . S
C2955 H2942 0.930 . S
C2955 C2954 1.388 . S
C2955 C2956 1.390 . S
C2956 C2955 1.390 . S
C2956 C2957 1.394 . S
C2956 C2962 1.465 . S
C2957 C2952 1.399 . S
C2957 C2956 1.394 . S
C2957 C2958 1.516 . S
C2958 C2957 1.516 . S
C2958 C2959 1.502 . S
C2958 C2960 1.561 . S
C2958 C2961 1.526 . S
C2959 H2943 0.959 . S
C2959 H2944 0.959 . S
C2959 H2945 0.961 . S
C2959 C2958 1.502 . S
C2960 H2946 0.960 . S
C2960 H2947 0.961 . S
C2960 H2948 0.959 . S
C2960 C2958 1.561 . S
C2961 C2958 1.526 . S
C2961 C2962 1.396 . S
C2961 C2966 1.390 . S
C2962 C2956 1.465 . S
C2962 C2961 1.396 . S
C2962 C2963 1.399 . S
C2963 H2949 0.929 . S
C2963 C2962 1.399 . S
C2963 C2964 1.385 . S
C2964 H2950 0.931 . S
C2964 C2963 1.385 . S
C2964 C2965 1.389 . S
C2965 C2964 1.389 . S
C2965 C2966 1.387 . S
C2966 H2951 0.930 . S
C2966 C2961 1.390 . S
C2966 C2965 1.387 . S
H2967 C2979 0.930 . S
H2968 C2981 0.930 . S
H2969 C2982 0.930 . S
H2970 C2986 0.959 . S
H2971 C2986 0.959 . S
H2972 C2986 0.961 . S
H2973 C2987 0.960 . S
H2974 C2987 0.961 . S
H2975 C2987 0.959 . S
H2976 C2990 0.929 . S
H2977 C2991 0.931 . S
H2978 C2993 0.930 . S
C2979 H2967 0.930 . S
C2979 C2980 1.399 . S
C2979 C2984 1.399 . S
C2980 C2979 1.399 . S
C2980 C2981 1.376 . S
C2981 H2968 0.930 . S
C2981 C2980 1.376 . S
C2981 C2982 1.388 . S
C2982 H2969 0.930 . S
C2982 C2981 1.388 . S
C2982 C2983 1.390 . S
C2983 C2982 1.390 . S
C2983 C2984 1.394 . S
C2983 C2989 1.465 . S
C2984 C2979 1.399 . S
C2984 C2983 1.394 . S
C2984 C2985 1.516 . S
C2985 C2984 1.516 . S
C2985 C2986 1.502 . S
C2985 C2987 1.561 . S
C2985 C2988 1.526 . S
C2986 H2970 0.959 . S
C2986 H2971 0.959 . S
C2986 H2972 0.961 . S
C2986 C2985 1.502 . S
C2987 H2973 0.960 . S
C2987 H2974 0.961 . S
C2987 H2975 0.959 . S
C2987 C2985 1.561 . S
C2988 C2985 1.526 . S
C2988 C2989 1.396 . S
C2988 C2993 1.390 . S
C2989 C2983 1.465 . S
C2989 C2988 1.396 . S
C2989 C2990 1.399 . S
C2990 H2976 0.929 . S
C2990 C2989 1.399 . S
C2990 C2991 1.385 . S
C2991 H2977 0.931 . S
C2991 C2990 1.385 . S
C2991 C2992 1.389 . S
C2992 C2991 1.389 . S
C2992 C2993 1.387 . S
C2993 H2978 0.930 . S
C2993 C2988 1.390 . S
C2993 C2992 1.387 . S
H2994 C3006 0.930 . S
H2995 C3008 0.930 . S
H2996 C3009 0.930 . S
H2997 C3013 0.959 . S
H2998 C3013 0.959 . S
H2999 C3013 0.961 . S
H3000 C3014 0.960 . S
H3001 C3014 0.961 . S
H3002 C3014 0.959 . S
H3003 C3017 0.929 . S
H3004 C3018 0.931 . S
H3005 C3020 0.930 . S
C3006 H2994 0.930 . S
C3006 C3007 1.399 . S
C3006 C3011 1.399 . S
C3007 C3006 1.399 . S
C3007 C3008 1.376 . S
C3008 H2995 0.930 . S
C3008 C3007 1.376 . S
C3008 C3009 1.388 . S
C3009 H2996 0.930 . S
C3009 C3008 1.388 . S
C3009 C3010 1.390 . S
C3010 C3009 1.390 . S
C3010 C3011 1.394 . S
C3010 C3016 1.465 . S
C3011 C3006 1.399 . S
C3011 C3010 1.394 . S
C3011 C3012 1.516 . S
C3012 C3011 1.516 . S
C3012 C3013 1.502 . S
C3012 C3014 1.561 . S
C3012 C3015 1.526 . S
C3013 H2997 0.959 . S
C3013 H2998 0.959 . S
C3013 H2999 0.961 . S
C3013 C3012 1.502 . S
C3014 H3000 0.960 . S
C3014 H3001 0.961 . S
C3014 H3002 0.959 . S
C3014 C3012 1.561 . S
C3015 C3012 1.526 . S
C3015 C3016 1.396 . S
C3015 C3020 1.390 . S
C3016 C3010 1.465 . S
C3016 C3015 1.396 . S
C3016 C3017 1.399 . S
C3017 H3003 0.929 . S
C3017 C3016 1.399 . S
C3017 C3018 1.385 . S
C3018 H3004 0.931 . S
C3018 C3017 1.385 . S
C3018 C3019 1.389 . S
C3019 C3018 1.389 . S
C3019 C3020 1.387 . S
C3020 H3005 0.930 . S
C3020 C3015 1.390 . S
C3020 C3019 1.387 . S
H3021 C3033 0.930 . S
H3022 C3035 0.930 . S
H3023 C3036 0.930 . S
H3024 C3040 0.959 . S
H3025 C3040 0.959 . S
H3026 C3040 0.961 . S
H3027 C3041 0.960 . S
H3028 C3041 0.961 . S
H3029 C3041 0.959 . S
H3030 C3044 0.929 . S
H3031 C3045 0.931 . S
H3032 C3047 0.930 . S
C3033 H3021 0.930 . S
C3033 C3034 1.399 . S
C3033 C3038 1.399 . S
C3034 C3033 1.399 . S
C3034 C3035 1.376 . S
C3035 H3022 0.930 . S
C3035 C3034 1.376 . S
C3035 C3036 1.388 . S
C3036 H3023 0.930 . S
C3036 C3035 1.388 . S
C3036 C3037 1.390 . S
C3037 C3036 1.390 . S
C3037 C3038 1.394 . S
C3037 C3043 1.465 . S
C3038 C3033 1.399 . S
C3038 C3037 1.394 . S
C3038 C3039 1.516 . S
C3039 C3038 1.516 . S
C3039 C3040 1.502 . S
C3039 C3041 1.561 . S
C3039 C3042 1.526 . S
C3040 H3024 0.959 . S
C3040 H3025 0.959 . S
C3040 H3026 0.961 . S
C3040 C3039 1.502 . S
C3041 H3027 0.960 . S
C3041 H3028 0.961 . S
C3041 H3029 0.959 . S
C3041 C3039 1.561 . S
C3042 C3039 1.526 . S
C3042 C3043 1.396 . S
C3042 C3047 1.390 . S
C3043 C3037 1.465 . S
C3043 C3042 1.396 . S
C3043 C3044 1.399 . S
C3044 H3030 0.929 . S
C3044 C3043 1.399 . S
C3044 C3045 1.385 . S
C3045 H3031 0.931 . S
C3045 C3044 1.385 . S
C3045 C3046 1.389 . S
C3046 C3045 1.389 . S
C3046 C3047 1.387 . S
C3047 H3032 0.930 . S
C3047 C3042 1.390 . S
C3047 C3046 1.387 . S
H3048 C3060 0.930 . S
H3049 C3062 0.930 . S
H3050 C3063 0.930 . S
H3051 C3067 0.959 . S
H3052 C3067 0.959 . S
H3053 C3067 0.961 . S
H3054 C3068 0.960 . S
H3055 C3068 0.961 . S
H3056 C3068 0.959 . S
H3057 C3071 0.929 . S
H3058 C3072 0.931 . S
H3059 C3074 0.930 . S
C3060 H3048 0.930 . S
C3060 C3061 1.399 . S
C3060 C3065 1.399 . S
C3061 C3060 1.399 . S
C3061 C3062 1.376 . S
C3062 H3049 0.930 . S
C3062 C3061 1.376 . S
C3062 C3063 1.388 . S
C3063 H3050 0.930 . S
C3063 C3062 1.388 . S
C3063 C3064 1.390 . S
C3064 C3063 1.390 . S
C3064 C3065 1.394 . S
C3064 C3070 1.465 . S
C3065 C3060 1.399 . S
C3065 C3064 1.394 . S
C3065 C3066 1.516 . S
C3066 C3065 1.516 . S
C3066 C3067 1.502 . S
C3066 C3068 1.561 . S
C3066 C3069 1.526 . S
C3067 H3051 0.959 . S
C3067 H3052 0.959 . S
C3067 H3053 0.961 . S
C3067 C3066 1.502 . S
C3068 H3054 0.960 . S
C3068 H3055 0.961 . S
C3068 H3056 0.959 . S
C3068 C3066 1.561 . S
C3069 C3066 1.526 . S
C3069 C3070 1.396 . S
C3069 C3074 1.390 . S
C3070 C3064 1.465 . S
C3070 C3069 1.396 . S
C3070 C3071 1.399 . S
C3071 H3057 0.929 . S
C3071 C3070 1.399 . S
C3071 C3072 1.385 . S
C3072 H3058 0.931 . S
C3072 C3071 1.385 . S
C3072 C3073 1.389 . S
C3073 C3072 1.389 . S
C3073 C3074 1.387 . S
C3074 H3059 0.930 . S
C3074 C3069 1.390 . S
C3074 C3073 1.387 . S
H3075 C3087 0.930 . S
H3076 C3089 0.930 . S
H3077 C3090 0.930 . S
H3078 C3094 0.959 . S
H3079 C3094 0.959 . S
H3080 C3094 0.961 . S
H3081 C3095 0.960 . S
H3082 C3095 0.961 . S
H3083 C3095 0.959 . S
H3084 C3098 0.929 . S
H3085 C3099 0.931 . S
H3086 C3101 0.930 . S
C3087 H3075 0.930 . S
C3087 C3088 1.399 . S
C3087 C3092 1.399 . S
C3088 C3087 1.399 . S
C3088 C3089 1.376 . S
C3089 H3076 0.930 . S
C3089 C3088 1.376 . S
C3089 C3090 1.388 . S
C3090 H3077 0.930 . S
C3090 C3089 1.388 . S
C3090 C3091 1.390 . S
C3091 C3090 1.390 . S
C3091 C3092 1.394 . S
C3091 C3097 1.465 . S
C3092 C3087 1.399 . S
C3092 C3091 1.394 . S
C3092 C3093 1.516 . S
C3093 C3092 1.516 . S
C3093 C3094 1.502 . S
C3093 C3095 1.561 . S
C3093 C3096 1.526 . S
C3094 H3078 0.959 . S
C3094 H3079 0.959 . S
C3094 H3080 0.961 . S
C3094 C3093 1.502 . S
C3095 H3081 0.960 . S
C3095 H3082 0.961 . S
C3095 H3083 0.959 . S
C3095 C3093 1.561 . S
C3096 C3093 1.526 . S
C3096 C3097 1.396 . S
C3096 C3101 1.390 . S
C3097 C3091 1.465 . S
C3097 C3096 1.396 . S
C3097 C3098 1.399 . S
C3098 H3084 0.929 . S
C3098 C3097 1.399 . S
C3098 C3099 1.385 . S
C3099 H3085 0.931 . S
C3099 C3098 1.385 . S
C3099 C3100 1.389 . S
C3100 C3099 1.389 . S
C3100 C3101 1.387 . S
C3101 H3086 0.930 . S
C3101 C3096 1.390 . S
C3101 C3100 1.387 . S
H3102 C3114 0.930 . S
H3103 C3116 0.930 . S
H3104 C3117 0.930 . S
H3105 C3121 0.959 . S
H3106 C3121 0.959 . S
H3107 C3121 0.961 . S
H3108 C3122 0.960 . S
H3109 C3122 0.961 . S
H3110 C3122 0.959 . S
H3111 C3125 0.929 . S
H3112 C3126 0.931 . S
H3113 C3128 0.930 . S
C3114 H3102 0.930 . S
C3114 C3115 1.399 . S
C3114 C3119 1.399 . S
C3115 C3114 1.399 . S
C3115 C3116 1.376 . S
C3116 H3103 0.930 . S
C3116 C3115 1.376 . S
C3116 C3117 1.388 . S
C3117 H3104 0.930 . S
C3117 C3116 1.388 . S
C3117 C3118 1.390 . S
C3118 C3117 1.390 . S
C3118 C3119 1.394 . S
C3118 C3124 1.465 . S
C3119 C3114 1.399 . S
C3119 C3118 1.394 . S
C3119 C3120 1.516 . S
C3120 C3119 1.516 . S
C3120 C3121 1.502 . S
C3120 C3122 1.561 . S
C3120 C3123 1.526 . S
C3121 H3105 0.959 . S
C3121 H3106 0.959 . S
C3121 H3107 0.961 . S
C3121 C3120 1.502 . S
C3122 H3108 0.960 . S
C3122 H3109 0.961 . S
C3122 H3110 0.959 . S
C3122 C3120 1.561 . S
C3123 C3120 1.526 . S
C3123 C3124 1.396 . S
C3123 C3128 1.390 . S
C3124 C3118 1.465 . S
C3124 C3123 1.396 . S
C3124 C3125 1.399 . S
C3125 H3111 0.929 . S
C3125 C3124 1.399 . S
C3125 C3126 1.385 . S
C3126 H3112 0.931 . S
C3126 C3125 1.385 . S
C3126 C3127 1.389 . S
C3127 C3126 1.389 . S
C3127 C3128 1.387 . S
C3128 H3113 0.930 . S
C3128 C3123 1.390 . S
C3128 C3127 1.387 . S
H3129 C3141 0.930 . S
H3130 C3143 0.930 . S
H3131 C3144 0.930 . S
H3132 C3148 0.959 . S
H3133 C3148 0.959 . S
H3134 C3148 0.961 . S
H3135 C3149 0.960 . S
H3136 C3149 0.961 . S
H3137 C3149 0.959 . S
H3138 C3152 0.929 . S
H3139 C3153 0.931 . S
H3140 C3155 0.930 . S
C3141 H3129 0.930 . S
C3141 C3142 1.399 . S
C3141 C3146 1.399 . S
C3142 C3141 1.399 . S
C3142 C3143 1.376 . S
C3143 H3130 0.930 . S
C3143 C3142 1.376 . S
C3143 C3144 1.388 . S
C3144 H3131 0.930 . S
C3144 C3143 1.388 . S
C3144 C3145 1.390 . S
C3145 C3144 1.390 . S
C3145 C3146 1.394 . S
C3145 C3151 1.465 . S
C3146 C3141 1.399 . S
C3146 C3145 1.394 . S
C3146 C3147 1.516 . S
C3147 C3146 1.516 . S
C3147 C3148 1.502 . S
C3147 C3149 1.561 . S
C3147 C3150 1.526 . S
C3148 H3132 0.959 . S
C3148 H3133 0.959 . S
C3148 H3134 0.961 . S
C3148 C3147 1.502 . S
C3149 H3135 0.960 . S
C3149 H3136 0.961 . S
C3149 H3137 0.959 . S
C3149 C3147 1.561 . S
C3150 C3147 1.526 . S
C3150 C3151 1.396 . S
C3150 C3155 1.390 . S
C3151 C3145 1.465 . S
C3151 C3150 1.396 . S
C3151 C3152 1.399 . S
C3152 H3138 0.929 . S
C3152 C3151 1.399 . S
C3152 C3153 1.385 . S
C3153 H3139 0.931 . S
C3153 C3152 1.385 . S
C3153 C3154 1.389 . S
C3154 C3153 1.389 . S
C3154 C3155 1.387 . S
C3155 H3140 0.930 . S
C3155 C3150 1.390 . S
C3155 C3154 1.387 . S
H3156 C3168 0.930 . S
H3157 C3170 0.930 . S
H3158 C3171 0.930 . S
H3159 C3175 0.959 . S
H3160 C3175 0.959 . S
H3161 C3175 0.961 . S
H3162 C3176 0.960 . S
H3163 C3176 0.961 . S
H3164 C3176 0.959 . S
H3165 C3179 0.929 . S
H3166 C3180 0.931 . S
H3167 C3182 0.930 . S
C3168 H3156 0.930 . S
C3168 C3169 1.399 . S
C3168 C3173 1.399 . S
C3169 C3168 1.399 . S
C3169 C3170 1.376 . S
C3170 H3157 0.930 . S
C3170 C3169 1.376 . S
C3170 C3171 1.388 . S
C3171 H3158 0.930 . S
C3171 C3170 1.388 . S
C3171 C3172 1.390 . S
C3172 C3171 1.390 . S
C3172 C3173 1.394 . S
C3172 C3178 1.465 . S
C3173 C3168 1.399 . S
C3173 C3172 1.394 . S
C3173 C3174 1.516 . S
C3174 C3173 1.516 . S
C3174 C3175 1.502 . S
C3174 C3176 1.561 . S
C3174 C3177 1.526 . S
C3175 H3159 0.959 . S
C3175 H3160 0.959 . S
C3175 H3161 0.961 . S
C3175 C3174 1.502 . S
C3176 H3162 0.960 . S
C3176 H3163 0.961 . S
C3176 H3164 0.959 . S
C3176 C3174 1.561 . S
C3177 C3174 1.526 . S
C3177 C3178 1.396 . S
C3177 C3182 1.390 . S
C3178 C3172 1.465 . S
C3178 C3177 1.396 . S
C3178 C3179 1.399 . S
C3179 H3165 0.929 . S
C3179 C3178 1.399 . S
C3179 C3180 1.385 . S
C3180 H3166 0.931 . S
C3180 C3179 1.385 . S
C3180 C3181 1.389 . S
C3181 C3180 1.389 . S
C3181 C3182 1.387 . S
C3182 H3167 0.930 . S
C3182 C3177 1.390 . S
C3182 C3181 1.387 . S
H3183 C3195 0.930 . S
H3184 C3197 0.930 . S
H3185 C3198 0.930 . S
H3186 C3202 0.959 . S
H3187 C3202 0.959 . S
H3188 C3202 0.961 . S
H3189 C3203 0.960 . S
H3190 C3203 0.961 . S
H3191 C3203 0.959 . S
H3192 C3206 0.929 . S
H3193 C3207 0.931 . S
H3194 C3209 0.930 . S
C3195 H3183 0.930 . S
C3195 C3196 1.399 . S
C3195 C3200 1.399 . S
C3196 C3195 1.399 . S
C3196 C3197 1.376 . S
C3197 H3184 0.930 . S
C3197 C3196 1.376 . S
C3197 C3198 1.388 . S
C3198 H3185 0.930 . S
C3198 C3197 1.388 . S
C3198 C3199 1.390 . S
C3199 C3198 1.390 . S
C3199 C3200 1.394 . S
C3199 C3205 1.465 . S
C3200 C3195 1.399 . S
C3200 C3199 1.394 . S
C3200 C3201 1.516 . S
C3201 C3200 1.516 . S
C3201 C3202 1.502 . S
C3201 C3203 1.561 . S
C3201 C3204 1.526 . S
C3202 H3186 0.959 . S
C3202 H3187 0.959 . S
C3202 H3188 0.961 . S
C3202 C3201 1.502 . S
C3203 H3189 0.960 . S
C3203 H3190 0.961 . S
C3203 H3191 0.959 . S
C3203 C3201 1.561 . S
C3204 C3201 1.526 . S
C3204 C3205 1.396 . S
C3204 C3209 1.390 . S
C3205 C3199 1.465 . S
C3205 C3204 1.396 . S
C3205 C3206 1.399 . S
C3206 H3192 0.929 . S
C3206 C3205 1.399 . S
C3206 C3207 1.385 . S
C3207 H3193 0.931 . S
C3207 C3206 1.385 . S
C3207 C3208 1.389 . S
C3208 C3207 1.389 . S
C3208 C3209 1.387 . S
C3209 H3194 0.930 . S
C3209 C3204 1.390 . S
C3209 C3208 1.387 . S
H3210 C3222 0.930 . S
H3211 C3224 0.930 . S
H3212 C3225 0.930 . S
H3213 C3229 0.959 . S
H3214 C3229 0.959 . S
H3215 C3229 0.961 . S
H3216 C3230 0.960 . S
H3217 C3230 0.961 . S
H3218 C3230 0.959 . S
H3219 C3233 0.929 . S
H3220 C3234 0.931 . S
H3221 C3236 0.930 . S
C3222 H3210 0.930 . S
C3222 C3223 1.399 . S
C3222 C3227 1.399 . S
C3223 C3222 1.399 . S
C3223 C3224 1.376 . S
C3224 H3211 0.930 . S
C3224 C3223 1.376 . S
C3224 C3225 1.388 . S
C3225 H3212 0.930 . S
C3225 C3224 1.388 . S
C3225 C3226 1.390 . S
C3226 C3225 1.390 . S
C3226 C3227 1.394 . S
C3226 C3232 1.465 . S
C3227 C3222 1.399 . S
C3227 C3226 1.394 . S
C3227 C3228 1.516 . S
C3228 C3227 1.516 . S
C3228 C3229 1.502 . S
C3228 C3230 1.561 . S
C3228 C3231 1.526 . S
C3229 H3213 0.959 . S
C3229 H3214 0.959 . S
C3229 H3215 0.961 . S
C3229 C3228 1.502 . S
C3230 H3216 0.960 . S
C3230 H3217 0.961 . S
C3230 H3218 0.959 . S
C3230 C3228 1.561 . S
C3231 C3228 1.526 . S
C3231 C3232 1.396 . S
C3231 C3236 1.390 . S
C3232 C3226 1.465 . S
C3232 C3231 1.396 . S
C3232 C3233 1.399 . S
C3233 H3219 0.929 . S
C3233 C3232 1.399 . S
C3233 C3234 1.385 . S
C3234 H3220 0.931 . S
C3234 C3233 1.385 . S
C3234 C3235 1.389 . S
C3235 C3234 1.389 . S
C3235 C3236 1.387 . S
C3236 H3221 0.930 . S
C3236 C3231 1.390 . S
C3236 C3235 1.387 . S
H3237 C3249 0.930 . S
H3238 C3251 0.930 . S
H3239 C3252 0.930 . S
H3240 C3256 0.959 . S
H3241 C3256 0.959 . S
H3242 C3256 0.961 . S
H3243 C3257 0.960 . S
H3244 C3257 0.961 . S
H3245 C3257 0.959 . S
H3246 C3260 0.929 . S
H3247 C3261 0.931 . S
H3248 C3263 0.930 . S
C3249 H3237 0.930 . S
C3249 C3250 1.399 . S
C3249 C3254 1.399 . S
C3250 C3249 1.399 . S
C3250 C3251 1.376 . S
C3251 H3238 0.930 . S
C3251 C3250 1.376 . S
C3251 C3252 1.388 . S
C3252 H3239 0.930 . S
C3252 C3251 1.388 . S
C3252 C3253 1.390 . S
C3253 C3252 1.390 . S
C3253 C3254 1.394 . S
C3253 C3259 1.465 . S
C3254 C3249 1.399 . S
C3254 C3253 1.394 . S
C3254 C3255 1.516 . S
C3255 C3254 1.516 . S
C3255 C3256 1.502 . S
C3255 C3257 1.561 . S
C3255 C3258 1.526 . S
C3256 H3240 0.959 . S
C3256 H3241 0.959 . S
C3256 H3242 0.961 . S
C3256 C3255 1.502 . S
C3257 H3243 0.960 . S
C3257 H3244 0.961 . S
C3257 H3245 0.959 . S
C3257 C3255 1.561 . S
C3258 C3255 1.526 . S
C3258 C3259 1.396 . S
C3258 C3263 1.390 . S
C3259 C3253 1.465 . S
C3259 C3258 1.396 . S
C3259 C3260 1.399 . S
C3260 H3246 0.929 . S
C3260 C3259 1.399 . S
C3260 C3261 1.385 . S
C3261 H3247 0.931 . S
C3261 C3260 1.385 . S
C3261 C3262 1.389 . S
C3262 C3261 1.389 . S
C3262 C3263 1.387 . S
C3263 H3248 0.930 . S
C3263 C3258 1.390 . S
C3263 C3262 1.387 . S
C685 C286 1.551 . S
C697 C6 1.598 . S
C712 C23 1.804 . S
C724 C247 1.808 . S
C739 C34 1.700 . S
C751 C260 1.808 . S
C766 C275 1.782 . S
C778 C51 1.773 . S
C793 C328 1.505 . S
C805 C65 1.708 . S
C820 C77 1.721 . S
C832 C303 1.851 . S
C847 C93 1.692 . S
C859 C314 1.535 . S
C874 C105 1.653 . S
C886 C231 1.605 . S
C901 C118 1.610 . S
C913 C216 1.672 . S
C928 C135 1.827 . S
C940 C176 1.817 . S
C955 C146 1.543 . S
C967 C188 1.467 . S
C982 C204 1.783 . S
C994 C163 1.803 . S
C1009 C345 1.860 . S
C1021 C624 1.895 . S
C1036 C583 1.667 . S
C1048 C357 1.502 . S
C1063 C373 1.758 . S
C1075 C594 1.694 . S
C1090 C611 1.737 . S
C1102 C385 1.578 . S
C1117 C398 1.210 . S
C1129 C664 1.304 . S
C1144 C637 1.562 . S
C1156 C415 1.762 . S
C1171 C426 1.195 . S
C1183 C650 1.102 . S
C1198 C569 1.852 . S
C1210 C443 1.842 . S
C1225 C456 1.680 . S
C1237 C555 1.681 . S
C1252 C510 1.534 . S
C1264 C468 1.540 . S
C1279 C527 1.617 . S
C1291 C484 1.569 . S
C1306 C538 1.521 . S
C1318 C496 1.538 . S
C1333 C370 1.075 . S
C1345 C9 1.188 . S
C1360 C20 0.985 . S
C1372 C386 1.079 . S
C1387 C37 1.173 . S
C1399 C342 1.156 . S
C1414 C48 0.989 . S
C1426 C358 1.092 . S
C1441 C62 1.161 . S
C1453 C429 1.254 . S
C1468 C440 1.035 . S
C1480 C78 1.139 . S
C1495 C401 1.227 . S
C1507 C90 1.146 . S
C1522 C412 1.141 . S
C1534 C106 1.201 . S
C1549 C513 1.363 . S
C1561 C121 1.356 . S
C1576 C132 0.881 . S
C1588 C524 0.903 . S
C1603 C541 1.290 . S
C1615 C149 1.309 . S
C1630 C160 1.001 . S
C1642 C552 0.995 . S
C1657 C175 1.124 . S
C1669 C455 1.124 . S
C1684 C191 1.161 . S
C1696 C471 1.169 . S
C1711 C483 1.069 . S
C1723 C203 1.070 . S
C1738 C499 1.192 . S
C1750 C219 1.211 . S
C1765 C232 1.259 . S
C1777 C608 1.120 . S
C1792 C244 1.023 . S
C1804 C638 1.117 . S
C1819 C653 1.164 . S
C1831 C259 1.139 . S
C1846 C566 0.944 . S
C1858 C272 0.917 . S
C1873 C289 1.192 . S
C1885 C667 1.204 . S
C1900 C580 1.127 . S
C1912 C300 1.153 . S
C1927 C317 1.303 . S
C1939 C597 1.311 . S
C1954 C331 1.194 . S
C1966 C623 1.088 . S
C1981 C399 1.849 . S
C1993 C8 1.808 . S
C2008 C414 1.808 . S
C2020 C21 1.869 . S
C2035 C427 1.963 . S
C2047 C36 1.930 . S
C2062 C49 1.895 . S
C2074 C442 1.831 . S
C2089 C344 1.763 . S
C2101 C63 1.859 . S
C2116 C356 2.008 . S
C2128 C79 1.962 . S
C2143 C91 1.842 . S
C2155 C372 1.730 . S
C2170 C384 1.897 . S
C2182 C107 1.790 . S
C2197 C120 1.857 . S
C2209 C539 1.904 . S
C2224 C133 1.944 . S
C2236 C554 1.827 . S
C2251 C511 1.885 . S
C2263 C148 1.839 . S
C2278 C161 1.947 . S
C2290 C526 1.878 . S
C2305 C485 1.879 . S
C2317 C174 1.954 . S
C2332 C190 1.732 . S
C2344 C497 1.824 . S
C2359 C202 1.946 . S
C2371 C457 1.847 . S
C2386 C218 1.813 . S
C2398 C469 1.862 . S
C2413 C636 1.925 . S
C2425 C233 1.868 . S
C2440 C245 1.915 . S
C2452 C610 1.831 . S
C2467 C258 1.799 . S
C2479 C625 1.701 . S
C2494 C273 1.884 . S
C2506 C582 1.807 . S
C2521 C595 1.849 . S
C2533 C288 1.748 . S
C2548 C568 1.771 . S
C2560 C301 1.891 . S
C2575 C665 1.941 . S
C2587 C316 1.888 . S
C2602 C330 1.882 . S
C2614 C651 1.942 . S
C2629 C217 1.657 . S
C2641 C7 1.649 . S
C2656 C22 1.460 . S
C2668 C177 1.339 . S
C2683 C189 1.625 . S
C2695 C35 1.611 . S
C2710 C205 1.373 . S
C2722 C50 1.417 . S
C2737 C134 1.223 . S
C2749 C64 1.394 . S
C2764 C76 1.667 . S
C2776 C147 1.650 . S
C2791 C92 1.405 . S
C2803 C162 1.248 . S
C2818 C119 1.651 . S
C2830 C104 1.629 . S
C2845 C230 1.581 . S
C2857 C287 1.557 . S
C2872 C329 1.591 . S
C2884 C246 1.482 . S
C2899 C302 1.311 . S
C2911 C261 1.437 . S
C2926 C274 1.454 . S
C2938 C315 1.535 . S
C2953 C553 1.501 . S
C2965 C343 1.467 . S
C2980 C512 1.235 . S
C2992 C359 1.363 . S
C3007 C371 1.567 . S
C3019 C525 1.542 . S
C3034 C540 1.363 . S
C3046 C387 1.253 . S
C3061 C470 1.248 . S
C3073 C400 1.363 . S
C3088 C413 1.575 . S
C3100 C482 1.592 . S
C3115 C428 1.353 . S
C3127 C498 1.276 . S
C3142 C441 1.512 . S
C3154 C454 1.480 . S
C3169 C567 1.509 . S
C3181 C622 1.506 . S
C3196 C666 1.278 . S
C3208 C581 1.541 . S
C3223 C639 1.278 . S
C3235 C596 1.190 . S
C3250 C652 1.326 . S
C3262 C609 1.575 . S
