# Generated by pormake.
# Topology sva, (7)-cn, num edge types: 1
# Building blocks:
#     Node 0, Type 0, BuildingBlock: HICVOG_clean_sbu_0, # of connection points: 7
#     Node 1, Type 0, BuildingBlock: HICVOG_clean_sbu_0, # of connection points: 7
#     Node 2, Type 0, BuildingBlock: HICVOG_clean_sbu_0, # of connection points: 7
#     Node 3, Type 0, BuildingBlock: HICVOG_clean_sbu_0, # of connection points: 7
#     Node 4, Type 0, BuildingBlock: HICVOG_clean_sbu_0, # of connection points: 7
#     Node 5, Type 0, BuildingBlock: HICVOG_clean_sbu_0, # of connection points: 7
#     Node 6, Type 0, BuildingBlock: HICVOG_clean_sbu_0, # of connection points: 7
#     Node 7, Type 0, BuildingBlock: HICVOG_clean_sbu_0, # of connection points: 7
#     Edge 8, Type (0, 0), BuildingBlock: XUDNAN_clean_linker_2, # of connection points: 2
#     Edge 9, Type (0, 0), BuildingBlock: XUDNAN_clean_linker_2, # of connection points: 2
#     Edge 10, Type (0, 0), BuildingBlock: XUDNAN_clean_linker_2, # of connection points: 2
#     Edge 11, Type (0, 0), BuildingBlock: XUDNAN_clean_linker_2, # of connection points: 2
#     Edge 12, Type (0, 0), BuildingBlock: XUDNAN_clean_linker_2, # of connection points: 2
#     Edge 13, Type (0, 0), BuildingBlock: XUDNAN_clean_linker_2, # of connection points: 2
#     Edge 14, Type (0, 0), BuildingBlock: XUDNAN_clean_linker_2, # of connection points: 2
#     Edge 15, Type (0, 0), BuildingBlock: XUDNAN_clean_linker_2, # of connection points: 2
#     Edge 16, Type (0, 0), BuildingBlock: XUDNAN_clean_linker_2, # of connection points: 2
#     Edge 17, Type (0, 0), BuildingBlock: XUDNAN_clean_linker_2, # of connection points: 2
#     Edge 18, Type (0, 0), BuildingBlock: XUDNAN_clean_linker_2, # of connection points: 2
#     Edge 19, Type (0, 0), BuildingBlock: XUDNAN_clean_linker_2, # of connection points: 2
#     Edge 20, Type (0, 0), BuildingBlock: XUDNAN_clean_linker_2, # of connection points: 2
#     Edge 21, Type (0, 0), BuildingBlock: XUDNAN_clean_linker_2, # of connection points: 2
#     Edge 22, Type (0, 0), BuildingBlock: XUDNAN_clean_linker_2, # of connection points: 2
#     Edge 23, Type (0, 0), BuildingBlock: XUDNAN_clean_linker_2, # of connection points: 2
#     Edge 24, Type (0, 0), BuildingBlock: XUDNAN_clean_linker_2, # of connection points: 2
#     Edge 25, Type (0, 0), BuildingBlock: XUDNAN_clean_linker_2, # of connection points: 2
#     Edge 26, Type (0, 0), BuildingBlock: XUDNAN_clean_linker_2, # of connection points: 2
#     Edge 27, Type (0, 0), BuildingBlock: XUDNAN_clean_linker_2, # of connection points: 2
#     Edge 28, Type (0, 0), BuildingBlock: XUDNAN_clean_linker_2, # of connection points: 2
#     Edge 29, Type (0, 0), BuildingBlock: XUDNAN_clean_linker_2, # of connection points: 2
#     Edge 30, Type (0, 0), BuildingBlock: XUDNAN_clean_linker_2, # of connection points: 2
#     Edge 31, Type (0, 0), BuildingBlock: XUDNAN_clean_linker_2, # of connection points: 2
#     Edge 32, Type (0, 0), BuildingBlock: XUDNAN_clean_linker_2, # of connection points: 2
#     Edge 33, Type (0, 0), BuildingBlock: XUDNAN_clean_linker_2, # of connection points: 2
#     Edge 34, Type (0, 0), BuildingBlock: XUDNAN_clean_linker_2, # of connection points: 2
#     Edge 35, Type (0, 0), BuildingBlock: XUDNAN_clean_linker_2, # of connection points: 2
# Relax obj value: 0.232
# Max RMSD: 0.271
# Mean RMSD: 0.271
data_MOF--net-sva--node1-HICVOG_clean_sbu_0--edge1-XUDNAN_clean_linker_2
_symmetry_space_group_name_H-M    P1
_symmetry_Int_Tables_number       1
_symmetry_cell_setting            triclinic
loop_
_symmetry_equiv_pos_as_xyz
'x, y, z'
_cell_length_a     40.644281
_cell_length_b     40.633965
_cell_length_c     20.208156
_cell_angle_alpha  89.809207
_cell_angle_beta   90.1204
_cell_angle_gamma 90.028567
loop_
_atom_site_label
_atom_site_type_symbol
_atom_site_fract_x
_atom_site_fract_y
_atom_site_fract_z
_atom_type_partial_charge
Zn0 Zn 0.05721 0.19882 0.90798 0.0
C1 C 0.09587 0.248 0.06327 0.0
N2 N 0.12147 0.22776 0.05129 0.0
C3 C 0.1099 0.20768 0.0044 0.0
N4 N 0.07879 0.21536 0.98728 0.0
N5 N 0.06896 0.23967 0.02649 0.0
C6 C 0.98692 0.30338 0.05351 0.0
O7 O 0.98684 0.29951 0.989 0.0
O8 O 0.06681 0.15103 0.8912 0.0
Zn9 Zn 0.0227 0.23993 0.05931 0.0
N10 N 0.06887 0.22571 0.83259 0.0
C11 C 0.09688 0.27146 0.7854 0.0
C12 C 0.08918 0.25201 0.84015 0.0
C13 C 0.05568 0.21819 0.77269 0.0
N14 N 0.08351 0.26415 0.72558 0.0
C15 C 0.06277 0.23812 0.71737 0.0
O16 O 0.98749 0.21907 1.00056 0.0
C17 C 0.98391 0.20221 0.94812 0.0
O18 O 1.00838 0.19498 0.91234 0.0
H19 H 0.09938 0.25775 0.8882 0.0
H20 H 0.0401 0.19671 0.76885 0.0
C21 C 0.02265 0.21985 0.19916 0.0
C22 C 0.01748 0.19621 0.24918 0.0
C23 C 1.01179 0.15482 0.16748 0.0
C24 C 0.01617 0.17832 0.11818 0.0
N25 N 0.02157 0.21027 0.1346 0.0
N26 N 1.01221 0.16433 0.23163 0.0
H27 H 0.02593 0.24557 0.2112 0.0
C28 C 0.05983 0.13435 0.94245 0.0
O29 O 0.06011 0.14926 0.99988 0.0
O30 O 1.0026 0.28304 0.08966 0.0
H31 H 1.01419 0.17139 0.06695 0.0
H32 H 0.11318 0.29236 0.79043 0.0
H33 H 1.0073 0.12935 0.15488 0.0
Zn34 Zn 0.83879 0.55184 0.14337 0.0
C35 C 0.78247 0.58862 0.29011 0.0
N36 N 0.79951 0.61645 0.27769 0.0
C37 C 0.82234 0.60675 0.23393 0.0
N38 N 0.81913 0.57425 0.2196 0.0
N39 N 0.79441 0.56263 0.2558 0.0
C40 C 0.75334 0.46698 0.34028 0.0
O41 O 0.78399 0.45719 0.34675 0.0
O42 O 0.88789 0.56209 0.13559 0.0
Zn43 Zn 0.79309 0.51674 0.29002 0.0
N44 N 0.8113 0.56277 0.06664 0.0
C45 C 0.76233 0.58931 0.02921 0.0
C46 C 0.78517 0.58286 0.07879 0.0
C47 C 0.81554 0.54901 0.00581 0.0
N48 N 0.76617 0.57518 0.96922 0.0
C49 C 0.79213 0.55521 0.95579 0.0
O50 O 0.81582 0.48205 0.23409 0.0
C51 C 0.83363 0.47862 0.18303 0.0
O52 O 0.84196 0.50316 0.14823 0.0
H53 H 0.78151 0.5935 0.12696 0.0
H54 H 0.83605 0.53258 0.99734 0.0
C55 C 0.80838 0.51962 0.43042 0.0
C56 C 0.83002 0.51797 0.48498 0.0
C57 C 0.87511 0.51377 0.41081 0.0
C58 C 0.85354 0.5145 0.35733 0.0
N59 N 0.82071 0.5175 0.36807 0.0
N60 N 0.8629 0.51537 0.47309 0.0
H61 H 0.78213 0.52244 0.43672 0.0
C62 C 0.90271 0.56522 0.19074 0.0
O63 O 0.88558 0.56379 0.24561 0.0
O64 O 0.74821 0.49551 0.31533 0.0
H65 H 0.86281 0.51234 0.30748 0.0
H66 H 0.74142 0.60507 0.03858 0.0
H67 H 0.90134 0.51153 0.403 0.0
Zn68 Zn 0.48349 0.34844 0.41779 0.0
C69 C 0.4475 0.29296 0.5675 0.0
N70 N 0.41989 0.31043 0.55664 0.0
C71 C 0.4297 0.33421 0.51467 0.0
N72 N 0.46193 0.33075 0.49835 0.0
N73 N 0.4734 0.3055 0.53374 0.0
C74 C 0.55086 0.23443 0.56641 0.0
O75 O 0.55665 0.23997 0.50343 0.0
O76 O 0.48375 0.39772 0.41196 0.0
Zn77 Zn 0.51985 0.30001 0.56266 0.0
N78 N 0.46437 0.32956 0.3376 0.0
C79 C 0.42245 0.29846 0.28423 0.0
C80 C 0.43585 0.31221 0.34133 0.0
C81 C 0.48021 0.3335 0.27869 0.0
N82 N 0.43833 0.30216 0.22565 0.0
C83 C 0.46713 0.31913 0.22066 0.0
O84 O 0.55499 0.31409 0.49596 0.0
C85 C 0.55782 0.33112 0.44322 0.0
O86 O 0.53275 0.3429 0.41409 0.0
H87 H 0.4236 0.30889 0.38819 0.0
H88 H 0.50255 0.34793 0.27766 0.0
C89 C 0.52062 0.32139 0.70199 0.0
C90 C 0.53154 0.34219 0.7534 0.0
C91 C 0.55454 0.37842 0.67357 0.0
C92 C 0.54489 0.35727 0.62326 0.0
N93 N 0.52779 0.3294 0.6378 0.0
N94 N 0.54805 0.37021 0.73718 0.0
H95 H 0.50826 0.29841 0.71295 0.0
C96 C 0.50088 0.40854 0.45979 0.0
O97 O 0.50723 0.38863 0.50934 0.0
O98 O 0.5329 0.2546 0.59826 0.0
H99 H 0.55203 0.36266 0.57308 0.0
H100 H 0.39968 0.28471 0.28649 0.0
H101 H 0.56807 0.40068 0.66235 0.0
Zn102 Zn 0.74182 0.0163 0.8124 0.0
C103 C 0.71885 0.92963 0.72506 0.0
N104 N 0.7384 0.91656 0.77146 0.0
C105 C 0.75361 0.9429 0.79787 0.0
N106 N 0.74312 0.97164 0.76969 0.0
N107 N 0.72188 0.96276 0.72263 0.0
C108 C 0.63737 0.97693 0.66578 0.0
O109 O 0.64704 0.97262 0.72717 0.0
O110 O 0.78419 0.03533 0.85211 0.0
Zn111 Zn 0.70532 0.99014 0.65098 0.0
N112 N 0.71043 1.01157 0.88252 0.0
C113 C 0.65333 1.00913 0.90746 0.0
C114 C 0.67876 1.00932 0.86157 0.0
C115 C 0.71795 1.01388 0.94789 0.0
N116 N 0.66063 1.01199 0.97266 0.0
C117 C 0.69227 1.0144 0.99439 0.0
O118 O 0.69813 0.03678 0.67146 0.0
C119 C 0.70355 0.06003 0.71121 0.0
O120 O 0.72062 0.05536 0.7632 0.0
H121 H 0.67344 1.00888 0.80933 0.0
H122 H 0.74335 0.01682 0.96295 0.0
C123 C 0.72532 0.99815 0.51816 0.0
C124 C 0.74727 0.9981 0.46457 0.0
C125 C 0.78928 0.97798 0.53588 0.0
C126 C 0.76744 0.97851 0.58896 0.0
N127 N 0.73593 0.98849 0.5788 0.0
N128 N 0.77872 0.98772 0.47508 0.0
H129 H 0.69985 1.00527 0.51228 0.0
C130 C 0.80621 0.05 0.81817 0.0
O131 O 0.80442 0.04921 0.75328 0.0
O132 O 0.65899 0.98004 0.62101 0.0
H133 H 0.7755 0.97106 0.63778 0.0
H134 H 0.62797 1.00755 0.89138 0.0
H135 H 0.81442 0.96996 0.54289 0.0
Zn136 Zn 0.53873 0.69526 0.41019 0.0
C137 C 0.59147 0.75535 0.52687 0.0
N138 N 0.61768 0.74011 0.50041 0.0
C139 C 0.60386 0.71646 0.46329 0.0
N140 N 0.57057 0.71743 0.46642 0.0
N141 N 0.56274 0.74169 0.5072 0.0
C142 C 0.47606 0.79364 0.5619 0.0
O143 O 0.46399 0.77423 0.51606 0.0
O144 O 0.55475 0.65174 0.37614 0.0
Zn145 Zn 0.52328 0.74155 0.56333 0.0
N146 N 0.52525 0.7273 0.34545 0.0
C147 C 0.50149 0.78044 0.33284 0.0
C148 C 0.5138 0.75552 0.37302 0.0
C149 C 0.52481 0.72279 0.27885 0.0
N150 N 0.50078 0.77602 0.26647 0.0
C151 C 0.51209 0.74791 0.23795 0.0
O152 O 0.48404 0.71243 0.53634 0.0
C153 C 0.47678 0.68956 0.49595 0.0
O154 O 0.49664 0.68103 0.4511 0.0
H155 H 0.51374 0.75837 0.42613 0.0
H156 H 0.53329 0.69968 0.25861 0.0
C157 C 0.52914 0.73147 0.70411 0.0
C158 C 0.53987 0.71431 0.76085 0.0
C159 C 0.56965 0.67755 0.69212 0.0
C160 C 0.55843 0.69422 0.63634 0.0
N161 N 0.53854 0.72084 0.6434 0.0
N162 N 0.56006 0.68786 0.75278 0.0
H163 H 0.51368 0.75301 0.70739 0.0
C164 C 0.56536 0.63425 0.42389 0.0
O165 O 0.56691 0.64724 0.48321 0.0
O166 O 0.50419 0.78697 0.58649 0.0
H167 H 0.56541 0.68596 0.58769 0.0
H168 H 0.49222 0.80298 0.35418 0.0
H169 H 0.58559 0.65638 0.68733 0.0
Zn170 Zn 0.34951 0.04225 0.67485 0.0
C171 C 0.28232 0.09158 0.78023 0.0
N172 N 0.29559 0.11837 0.75119 0.0
C173 C 0.32161 0.10615 0.71872 0.0
N174 N 0.32395 0.07317 0.72696 0.0
N175 N 0.29995 0.06395 0.76784 0.0
C176 C 0.26148 0.97184 0.87221 0.0
O177 O 0.29223 0.96249 0.87928 0.0
O178 O 0.3913 0.05845 0.6334 0.0
Zn179 Zn 0.30054 0.02118 0.81761 0.0
N180 N 0.32011 0.02386 0.6077 0.0
C181 C 0.26801 0.99865 0.59015 0.0
C182 C 0.29121 1.01239 0.63234 0.0
C183 C 0.32662 0.02254 0.54134 0.0
N184 N 0.27446 0.99705 0.52455 0.0
C185 C 0.30304 1.00859 0.49805 0.0
O186 O 0.32348 0.98285 0.76876 0.0
C187 C 0.35231 0.98026 0.74495 0.0
O188 O 0.36841 1.00567 0.72924 0.0
H189 H 0.28615 1.01395 0.68464 0.0
H190 H 0.34986 0.03176 0.52301 0.0
C191 C 0.316 0.02305 0.96042 0.0
C192 C 0.33649 0.03019 0.01513 0.0
C193 C 0.37644 0.05183 0.94112 0.0
C194 C 0.35636 0.04412 0.8874 0.0
N195 N 0.32656 0.02987 0.89774 0.0
N196 N 0.36615 0.04465 0.00336 0.0
H197 H 0.29175 1.01276 0.96753 0.0
C198 C 0.41416 0.06435 0.67458 0.0
O199 O 0.40641 0.06744 0.73736 0.0
O200 O 0.25603 0.99993 0.84546 0.0
H201 H 0.36431 0.04965 0.83761 0.0
H202 H 0.24497 0.98934 0.60931 0.0
H203 H 0.40015 0.06331 0.9334 0.0
Zn204 Zn 0.99238 0.84201 0.93142 0.0
C205 C 0.95175 0.79137 0.0818 0.0
N206 N 0.92429 0.80784 0.06487 0.0
C207 C 0.93526 0.83064 0.02191 0.0
N208 N 0.96816 0.82783 0.01141 0.0
N209 N 0.97855 0.8034 0.05015 0.0
C210 C 0.05213 0.73443 0.05679 0.0
O211 O 0.05151 0.74722 0.99698 0.0
O212 O 0.981 0.88829 0.90058 0.0
Zn213 Zn 0.02388 0.79798 0.08361 0.0
N214 N 0.98416 0.80907 0.86368 0.0
C215 C 0.97553 0.75206 0.84332 0.0
C216 C 0.9818 0.77772 0.88682 0.0
C217 C 0.98147 0.81573 0.7977 0.0
N218 N 0.97263 0.75859 0.77782 0.0
C219 C 0.97565 0.78966 0.75311 0.0
O220 O 0.061 0.81895 0.02933 0.0
C221 C 0.06538 0.83705 0.97854 0.0
O222 O 0.04145 0.84574 0.94217 0.0
H223 H 0.98494 0.77263 0.93877 0.0
H224 H 0.98365 0.84089 0.78056 0.0
C225 C 1.01423 0.81073 0.22395 0.0
C226 C 1.0141 0.83127 0.28015 0.0
C227 C 0.03464 0.87519 0.21408 0.0
C228 C 0.03436 0.85494 0.15878 0.0
N229 N 0.02448 0.82311 0.16476 0.0
N230 N 0.02457 0.86295 0.27311 0.0
H231 H 1.00655 0.78528 0.22673 0.0
C232 C 0.99651 0.91044 0.93243 0.0
O233 O 1.01457 0.90195 0.98362 0.0
O234 O 0.03884 0.75055 0.10365 0.0
H235 H 0.04174 0.86461 0.11119 0.0
H236 H 0.97332 0.72705 0.86134 0.0
H237 H 0.04257 0.90053 0.21011 0.0
Zn238 Zn 0.2285 0.52537 0.3374 0.0
C239 C 0.20091 0.43763 0.26977 0.0
N240 N 0.22014 0.42475 0.31695 0.0
C241 C 0.23789 0.45082 0.33809 0.0
N242 N 0.22929 0.47893 0.30518 0.0
N243 N 0.20716 0.46977 0.26043 0.0
C244 C 0.1349 0.50962 0.22159 0.0
O245 O 0.1526 0.51012 0.27593 0.0
O246 O 0.27264 0.54658 0.36434 0.0
Zn247 Zn 0.19726 0.49224 0.17821 0.0
N248 N 0.20064 0.52586 0.41589 0.0
C249 C 0.15243 0.54681 0.46761 0.0
C250 C 0.17264 0.54414 0.41246 0.0
C251 C 0.20921 0.50995 0.47284 0.0
N252 N 0.16108 0.5313 0.52447 0.0
C253 C 0.18891 0.5128 0.52906 0.0
O254 O 0.21769 0.53707 0.1759 0.0
C255 C 0.20407 0.55942 0.2099 0.0
O256 O 0.20478 0.55742 0.27278 0.0
H257 H 0.16616 0.55707 0.36758 0.0
H258 H 0.23195 0.49614 0.47464 0.0
C259 C 0.20677 0.46824 0.04247 0.0
C260 C 0.22391 0.44996 0.99411 0.0
C261 C 0.25958 0.42952 0.078 0.0
C262 C 0.24335 0.4484 0.12486 0.0
N263 N 0.21687 0.46682 0.10683 0.0
N264 N 0.24964 0.43087 0.01409 0.0
H265 H 0.18594 0.48351 0.02955 0.0
C266 C 0.26927 0.57438 0.39276 0.0
O267 O 0.23941 0.58629 0.39928 0.0
O268 O 0.14818 0.49951 0.16849 0.0
H269 H 0.25189 0.44828 0.1755 0.0
H270 H 0.13018 0.56137 0.46548 0.0
H271 H 0.28031 0.41433 0.09202 0.0
H272 H 0.02526 0.95031 0.84067 0.0
H273 H 0.95847 0.94967 0.00715 0.0
H274 H 0.95838 1.00977 0.00871 0.0
H275 H 0.07613 1.0077 0.90011 0.0
H276 H 0.08533 0.02808 0.8232 0.0
H277 H 0.07205 0.98594 0.82258 0.0
H278 H 0.02448 1.00358 0.74215 0.0
H279 H 0.03789 0.04586 0.74666 0.0
H280 H 0.99613 0.03521 0.76763 0.0
H281 H 0.97607 0.06586 0.01416 0.0
H282 H 1.00868 0.11637 0.01946 0.0
H283 H 0.06623 0.08459 0.85074 0.0
C284 C 1.00916 0.96316 0.87449 0.0
C285 C 0.99035 0.94553 0.92135 0.0
C286 C 0.9714 0.96267 0.96839 0.0
C287 C 0.97142 0.99696 0.96994 0.0
C288 C 0.99109 1.01381 0.9249 0.0
C289 C 1.00942 0.9977 0.87732 0.0
C290 C 0.03269 0.0215 0.8428 0.0
C291 C 0.06867 1.01003 0.84742 0.0
C292 C 0.02216 0.02686 0.77051 0.0
C293 C 0.02707 0.05229 0.8834 0.0
C294 C 1.00216 0.04741 0.92891 0.0
C295 C 0.99506 0.0703 0.97777 0.0
C296 C 1.01416 0.09872 0.98105 0.0
C297 C 0.04022 0.10411 0.93593 0.0
C298 C 0.04622 0.08104 0.88535 0.0
H299 H 0.94915 0.54035 0.10552 0.0
H300 H 0.93722 0.59481 0.28821 0.0
H301 H 0.99667 0.5904 0.30984 0.0
H302 H 1.0033 0.48329 0.16496 0.0
H303 H 0.02942 0.48048 0.09322 0.0
H304 H 0.98717 0.49284 0.08396 0.0
H305 H 1.00497 0.54672 0.02557 0.0
H306 H 0.0474 0.53427 0.03305 0.0
H307 H 0.03438 0.57347 0.06521 0.0
H308 H 0.05388 0.57259 0.32191 0.0
H309 H 0.10872 0.54757 0.31813 0.0
H310 H 0.08589 0.5047 0.12678 0.0
C311 C 0.95938 0.55237 0.14867 0.0
C312 C 0.93876 0.568 0.19521 0.0
C313 C 0.95268 0.5827 0.2521 0.0
C314 C 0.9864 0.58039 0.26474 0.0
C315 C 1.00589 0.56345 0.21975 0.0
C316 C 0.99319 0.55018 0.1622 0.0
C317 C 0.01937 0.53097 0.1252 0.0
C318 C 1.0092 0.49475 0.11637 0.0
C319 C 0.02698 0.54734 0.05828 0.0
C320 C 0.04817 0.53429 0.17262 0.0
C321 C 0.03974 0.55336 0.22647 0.0
C322 C 0.06105 0.55814 0.27945 0.0
C323 C 0.09211 0.54356 0.27698 0.0
C324 C 0.10163 0.52419 0.22211 0.0
C325 C 0.07939 0.51966 0.16902 0.0
H326 H 0.53255 0.59217 0.34223 0.0
H327 H 0.60758 0.59664 0.49468 0.0
H328 H 0.60364 0.53662 0.51031 0.0
H329 H 0.48243 0.54131 0.4205 0.0
H330 H 0.46851 0.51714 0.35126 0.0
H331 H 0.48305 0.55841 0.33798 0.0
H332 H 0.52684 0.53716 0.25469 0.0
H333 H 0.51171 0.49584 0.26675 0.0
H334 H 0.55467 0.50485 0.27969 0.0
H335 H 0.58195 0.4812 0.52987 0.0
H336 H 0.55091 0.42951 0.53836 0.0
H337 H 0.48991 0.4593 0.3719 0.0
C338 C 0.5494 0.58014 0.37611 0.0
C339 C 0.57042 0.59871 0.4172 0.0
C340 C 0.59137 0.58259 0.46281 0.0
C341 C 0.58931 0.54856 0.47197 0.0
C342 C 0.56645 0.53115 0.43449 0.0
C343 C 0.54753 0.54608 0.38595 0.0
C344 C 0.52212 0.5224 0.35846 0.0
C345 C 0.48695 0.53564 0.36754 0.0
C346 C 0.52927 0.51459 0.28556 0.0
C347 C 0.52829 0.49273 0.40217 0.0
C348 C 0.55413 0.49831 0.44526 0.0
C349 C 0.56229 0.47612 0.49519 0.0
C350 C 0.5442 0.44699 0.50008 0.0
C351 C 0.51803 0.44039 0.45562 0.0
C352 C 0.51005 0.46357 0.40599 0.0
H353 H 0.59271 0.99922 0.75478 0.0
H354 H 0.60572 0.97953 0.54556 0.0
H355 H 0.5509 1.00382 0.52258 0.0
H356 H 0.5063 0.98285 0.76444 0.0
H357 H 0.49898 0.01579 0.82205 0.0
H358 H 0.53838 0.99564 0.82048 0.0
H359 H 0.5667 0.05222 0.80255 0.0
H360 H 0.52732 0.07254 0.80248 0.0
H361 H 0.55472 0.07751 0.73312 0.0
H362 H 0.49391 0.03 0.52406 0.0
H363 H 0.43911 0.05292 0.55035 0.0
H364 H 0.46665 0.05824 0.7577 0.0
C365 C 0.58385 0.99939 0.70419 0.0
C366 C 0.60321 0.98709 0.65199 0.0
C367 C 0.59105 0.98857 0.58631 0.0
C368 C 0.5601 1.0025 0.5728 0.0
C369 C 0.54202 1.01522 0.62544 0.0
C370 C 0.55351 1.01369 0.68978 0.0
C371 C 0.52989 0.02957 0.73758 0.0
C372 C 0.51766 1.00447 0.78917 0.0
C373 C 0.5456 0.05975 0.77087 0.0
C374 C 0.50281 0.03964 0.69045 0.0
C375 C 0.51021 0.03135 0.62589 0.0
C376 C 0.488 0.03683 0.57436 0.0
C377 C 0.457 0.05002 0.58972 0.0
C378 C 0.44863 0.05754 0.65604 0.0
C379 C 0.47235 0.0532 0.7064 0.0
H380 H 0.22868 0.12581 0.74441 0.0
H381 H 0.26782 0.06616 0.9038 0.0
H382 H 0.22162 0.08371 0.97564 0.0
H383 H 0.20913 0.19219 0.83389 0.0
H384 H 0.17156 0.20289 0.79142 0.0
H385 H 0.20295 0.18023 0.74891 0.0
H386 H 0.16115 0.13396 0.72178 0.0
H387 H 0.12942 0.15685 0.7636 0.0
H388 H 0.13806 0.115 0.78779 0.0
H389 H 0.17816 0.11709 0.03527 0.0
H390 H 0.13903 0.15924 0.07507 0.0
H391 H 0.12725 0.19588 0.87521 0.0
C392 C 0.22674 0.11541 0.79368 0.0
C393 C 0.2515 0.09428 0.81858 0.0
C394 C 0.24871 0.08169 0.8835 0.0
C395 C 0.22261 0.09175 0.92458 0.0
C396 C 0.19931 0.11387 0.89927 0.0
C397 C 0.20077 0.12492 0.83462 0.0
C398 C 0.17485 0.15095 0.82077 0.0
C399 C 0.19058 0.18347 0.79742 0.0
C400 C 0.14936 0.13843 0.7705 0.0
C401 C 0.15974 0.15438 0.88871 0.0
C402 C 0.17384 0.13249 0.93318 0.0
C403 C 0.16633 0.13356 1.00041 0.0
C404 C 0.14422 0.15765 0.02261 0.0
C405 C 0.1296 0.1802 0.97783 0.0
C406 C 0.13716 0.17822 0.90999 0.0
H407 H 0.84663 0.66401 0.28801 0.0
H408 H 0.84964 0.60645 0.10884 0.0
H409 H 0.89442 0.64089 0.06606 0.0
H410 H 0.85095 0.73908 0.19586 0.0
H411 H 0.87302 0.76126 0.25907 0.0
H412 H 0.84642 0.72769 0.28168 0.0
H413 H 0.8953 0.69996 0.34285 0.0
H414 H 0.92219 0.73315 0.3185 0.0
H415 H 0.93265 0.69128 0.29822 0.0
H416 H 0.94025 0.68101 0.04365 0.0
H417 H 0.96723 0.73426 0.02156 0.0
H418 H 0.92575 0.77372 0.2018 0.0
C419 C 0.85717 0.65828 0.24025 0.0
C420 C 0.84675 0.63013 0.20448 0.0
C421 C 0.85935 0.62538 0.14016 0.0
C422 C 0.88472 0.64523 0.11509 0.0
C423 C 0.89597 0.67138 0.1533 0.0
C424 C 0.88137 0.67907 0.21295 0.0
C425 C 0.89317 0.71242 0.23741 0.0
C426 C 0.86417 0.73654 0.24384 0.0
C427 C 0.91194 0.70898 0.30316 0.0
C428 C 0.91625 0.72235 0.18165 0.0
C429 C 0.91873 0.69749 0.13544 0.0
C430 C 0.93838 0.70073 0.07931 0.0
C431 C 0.95405 0.73098 0.06758 0.0
C432 C 0.9489 0.75797 0.11028 0.0
C433 C 0.93073 0.7532 0.16924 0.0
H434 H 0.36481 0.32447 0.48797 0.0
H435 H 0.43879 0.40052 0.49173 0.0
H436 H 0.39837 0.44098 0.44909 0.0
H437 H 0.31782 0.35088 0.34833 0.0
H438 H 0.27889 0.34131 0.38639 0.0
H439 H 0.31518 0.31872 0.40977 0.0
H440 H 0.30514 0.33426 0.53251 0.0
H441 H 0.26912 0.35741 0.50921 0.0
H442 H 0.30173 0.37702 0.55506 0.0
H443 H 0.34779 0.472 0.39745 0.0
H444 H 0.29398 0.48969 0.3513 0.0
H445 H 0.2518 0.39604 0.40893 0.0
C446 C 0.37269 0.34954 0.47881 0.0
C447 C 0.40596 0.35876 0.48744 0.0
C448 C 0.41466 0.39214 0.4781 0.0
C449 C 0.39136 0.41552 0.45621 0.0
C450 C 0.35883 0.40542 0.44701 0.0
C451 C 0.3495 0.37325 0.45952 0.0
C452 C 0.31286 0.36869 0.45027 0.0
C453 C 0.30578 0.34342 0.39543 0.0
C454 C 0.29624 0.35876 0.51567 0.0
C455 C 0.30295 0.4031 0.42932 0.0
C456 C 0.32967 0.42405 0.42677 0.0
C457 C 0.32655 0.45603 0.40141 0.0
C458 C 0.29567 0.46627 0.37637 0.0
C459 C 0.26812 0.44496 0.3785 0.0
C460 C 0.27197 0.41345 0.40771 0.0
H461 H 0.68844 0.87342 0.76608 0.0
H462 H 0.69966 0.9362 0.59444 0.0
H463 H 0.65715 0.9041 0.53544 0.0
H464 H 0.68721 0.80065 0.6694 0.0
H465 H 0.65991 0.77872 0.72424 0.0
H466 H 0.68624 0.81049 0.75631 0.0
H467 H 0.63506 0.83993 0.80446 0.0
H468 H 0.60852 0.80856 0.77084 0.0
H469 H 0.60162 0.85119 0.75017 0.0
H470 H 0.61339 0.86474 0.49542 0.0
H471 H 0.58556 0.81307 0.46352 0.0
H472 H 0.61039 0.77019 0.65342 0.0
C473 C 0.68153 0.88076 0.71639 0.0
C474 C 0.69537 0.90915 0.68656 0.0
C475 C 0.68728 0.91652 0.62021 0.0
C476 C 0.66337 0.89811 0.58616 0.0
C477 C 0.64893 0.87129 0.61824 0.0
C478 C 0.65873 0.86181 0.68093 0.0
C479 C 0.64383 0.82885 0.69999 0.0
C480 C 0.6709 0.80316 0.71322 0.0
C481 C 0.6209 0.83236 0.75993 0.0
C482 C 0.62445 0.82098 0.63778 0.0
C483 C 0.62666 0.84646 0.59238 0.0
C484 C 0.61144 0.84472 0.53063 0.0
C485 C 0.59528 0.81546 0.51326 0.0
C486 C 0.59523 0.7881 0.55667 0.0
C487 C 0.60918 0.7912 0.62036 0.0
H488 H 0.86636 0.07061 0.77092 0.0
H489 H 0.8008 0.07955 0.93903 0.0
H490 H 0.83771 0.1213 0.98794 0.0
H491 H 0.94187 0.07858 0.8696 0.0
H492 H 0.96379 0.10079 0.80619 0.0
H493 H 0.93251 0.07142 0.7837 0.0
H494 H 0.9016 0.11603 0.71649 0.0
H495 H 0.93264 0.14579 0.73801 0.0
H496 H 0.89002 0.15397 0.75614 0.0
H497 H 0.8801 0.16501 0.01502 0.0
H498 H 0.9286 0.20122 0.02635 0.0
H499 H 0.96799 0.16199 0.84322 0.0
C500 C 0.85996 0.08114 0.81833 0.0
C501 C 0.83057 0.07189 0.85099 0.0
C502 C 0.82322 0.08607 0.91321 0.0
C503 C 0.84394 0.11 0.9412 0.0
C504 C 0.87231 0.11914 0.90702 0.0
C505 C 0.88076 0.10458 0.8477 0.0
C506 C 0.91328 0.11795 0.82233 0.0
C507 C 0.93942 0.09057 0.82032 0.0
C508 C 0.90911 0.13442 0.7542 0.0
C509 C 0.92119 0.14309 0.87542 0.0
C510 C 0.89722 0.14347 0.92374 0.0
C511 C 0.89912 0.16477 0.97762 0.0
C512 C 0.92668 0.18552 0.98331 0.0
C513 C 0.9522 0.18479 0.93558 0.0
C514 C 0.94891 0.16352 0.88042 0.0
H515 H 0.8684 0.46027 0.07261 0.0
H516 H 0.8382 0.42545 0.26662 0.0
H517 H 0.87453 0.3772 0.25455 0.0
H518 H 0.87463 0.37878 0.99497 0.0
H519 H 0.91005 0.39043 0.94673 0.0
H520 H 0.87999 0.42096 0.96919 0.0
H521 H 0.92613 0.45613 0.02273 0.0
H522 H 0.95622 0.42546 0.00137 0.0
H523 H 0.9517 0.43816 0.08623 0.0
H524 H 0.91874 0.33616 0.22674 0.0
H525 H 0.96112 0.30026 0.17796 0.0
H526 H 0.9607 0.35999 0.99947 0.0
C527 C 0.86882 0.44214 0.11201 0.0
C528 C 0.85029 0.4467 0.17056 0.0
C529 C 0.85183 0.42245 0.22104 0.0
C530 C 0.87264 0.39505 0.21488 0.0
C531 C 0.89147 0.39201 0.15762 0.0
C532 C 0.88922 0.41451 0.10644 0.0
C533 C 0.91239 0.40572 0.05044 0.0
C534 C 0.89311 0.39854 0.98655 0.0
C535 C 0.93812 0.43299 0.03957 0.0
C536 C 0.92816 0.37482 0.07823 0.0
C537 C 0.91607 0.36764 0.14054 0.0
C538 C 0.92802 0.34126 0.1776 0.0
C539 C 0.95232 0.32116 0.14962 0.0
C540 C 0.96413 0.3272 0.08473 0.0
C541 C 0.95198 0.35459 0.04894 0.0
H542 H 0.68577 0.4676 0.31002 0.0
H543 H 0.76062 0.41344 0.4188 0.0
H544 H 0.71991 0.37166 0.44946 0.0
H545 H 0.61946 0.45118 0.42546 0.0
H546 H 0.58827 0.44624 0.36256 0.0
H547 H 0.62312 0.47258 0.34757 0.0
H548 H 0.63686 0.43966 0.24198 0.0
H549 H 0.60203 0.41317 0.25662 0.0
H550 H 0.64252 0.39573 0.24736 0.0
H551 H 0.67201 0.33508 0.46928 0.0
H552 H 0.61803 0.30828 0.48394 0.0
H553 H 0.57268 0.3845 0.36328 0.0
C554 C 0.69345 0.44708 0.34064 0.0
C555 C 0.72666 0.44395 0.36155 0.0
C556 C 0.73557 0.41652 0.40147 0.0
C557 C 0.71257 0.39245 0.41924 0.0
C558 C 0.6804 0.39576 0.39689 0.0
C559 C 0.67059 0.42242 0.35892 0.0
C560 C 0.63407 0.41982 0.34272 0.0
C561 C 0.6151 0.44921 0.3713 0.0
C562 C 0.62856 0.41692 0.2677 0.0
C563 C 0.62512 0.38785 0.37812 0.0
C564 C 0.65238 0.37433 0.40851 0.0
C565 C 0.65043 0.34534 0.4455 0.0
C566 C 0.61963 0.33014 0.45331 0.0
C567 C 0.59099 0.34384 0.42428 0.0
C568 C 0.59409 0.37286 0.38512 0.0
H569 H 0.6722 0.08045 0.59818 0.0
H570 H 0.69056 0.10905 0.80168 0.0
H571 H 0.65142 0.15536 0.78848 0.0
H572 H 0.6648 0.16251 0.52965 0.0
H573 H 0.63258 0.15084 0.47292 0.0
H574 H 0.66271 0.12097 0.49882 0.0
H575 H 0.61584 0.08246 0.53857 0.0
H576 H 0.58551 0.11245 0.51402 0.0
H577 H 0.58641 0.09733 0.59797 0.0
H578 H 0.60686 0.19652 0.75426 0.0
H579 H 0.56739 0.23356 0.69801 0.0
H580 H 0.57993 0.17879 0.51592 0.0
C581 C 0.66849 0.09673 0.63983 0.0
C582 C 0.68473 0.09111 0.70099 0.0
C583 C 0.67884 0.113 0.75413 0.0
C584 C 0.65635 0.13918 0.74725 0.0
C585 C 0.64004 0.1433 0.68684 0.0
C586 C 0.64631 0.12295 0.63376 0.0
C587 C 0.62572 0.13248 0.57401 0.0
C588 C 0.64777 0.14229 0.5154 0.0
C589 C 0.60197 0.10452 0.55505 0.0
C590 C 0.6072 0.16183 0.6012 0.0
C591 C 0.61527 0.16729 0.66678 0.0
C592 C 0.60062 0.19256 0.7028 0.0
C593 C 0.57799 0.21335 0.67051 0.0
C594 C 0.57055 0.20917 0.60244 0.0
C595 C 0.58512 0.18271 0.56788 0.0
H596 H 0.76336 0.60711 0.41372 0.0
H597 H 0.72643 0.5807 0.22017 0.0
H598 H 0.67343 0.60766 0.24557 0.0
H599 H 0.67927 0.598 0.5016 0.0
H600 H 0.68932 0.63164 0.55595 0.0
H601 H 0.72135 0.60471 0.52662 0.0
H602 H 0.75287 0.65556 0.48217 0.0
H603 H 0.72055 0.68253 0.50899 0.0
H604 H 0.73301 0.68258 0.42344 0.0
H605 H 0.63151 0.65077 0.28092 0.0
H606 H 0.59765 0.69382 0.33524 0.0
H607 H 0.65803 0.68577 0.51113 0.0
C608 C 0.74333 0.60524 0.3785 0.0
C609 C 0.7486 0.59117 0.31566 0.0
C610 C 0.72243 0.59039 0.2694 0.0
C611 C 0.6924 0.60609 0.28311 0.0
C612 C 0.68859 0.62155 0.34416 0.0
C613 C 0.71282 0.61989 0.39233 0.0
C614 C 0.7033 0.63983 0.45263 0.0
C615 C 0.69799 0.61719 0.51276 0.0
C616 C 0.72896 0.66671 0.46761 0.0
C617 C 0.67108 0.65465 0.42923 0.0
C618 C 0.66299 0.64402 0.36639 0.0
C619 C 0.63666 0.6579 0.33144 0.0
C620 C 0.6175 0.68225 0.36253 0.0
C621 C 0.62403 0.69155 0.42856 0.0
C622 C 0.65162 0.67803 0.46149 0.0
H623 H 0.42198 0.27308 0.68539 0.0
H624 H 0.46295 0.23675 0.50227 0.0
H625 H 0.43775 0.18224 0.52337 0.0
H626 H 0.43043 0.19149 0.78001 0.0
H627 H 0.39283 0.19952 0.82425 0.0
H628 H 0.41901 0.2332 0.79959 0.0
H629 H 0.36948 0.26006 0.73962 0.0
H630 H 0.34337 0.2261 0.76193 0.0
H631 H 0.34807 0.23741 0.67614 0.0
H632 H 0.39544 0.13724 0.55085 0.0
H633 H 0.35172 0.10094 0.59672 0.0
H634 H 0.34501 0.16329 0.76905 0.0
C635 C 0.42721 0.25304 0.65181 0.0
C636 C 0.44496 0.25888 0.59292 0.0
C637 C 0.45027 0.2325 0.54864 0.0
C638 C 0.43561 0.20157 0.55982 0.0
C639 C 0.41651 0.19715 0.61654 0.0
C640 C 0.41353 0.2218 0.66327 0.0
C641 C 0.39055 0.21148 0.71861 0.0
C642 C 0.40933 0.20875 0.78452 0.0
C643 C 0.36114 0.23517 0.72434 0.0
C644 C 0.37973 0.17793 0.69417 0.0
C645 C 0.39467 0.17008 0.63493 0.0
C646 C 0.38504 0.14229 0.59901 0.0
C647 C 0.3605 0.12154 0.62558 0.0
C648 C 0.3468 0.12796 0.68838 0.0
C649 C 0.35613 0.15695 0.72212 0.0
H650 H 0.76322 0.88921 0.87449 0.0
H651 H 0.80879 0.98148 0.81962 0.0
H652 H 0.85927 0.96521 0.88064 0.0
H653 H 0.8048 0.87272 0.03308 0.0
H654 H 0.80935 0.82965 0.01412 0.0
H655 H 0.77486 0.85238 0.98151 0.0
H656 H 0.79102 0.83448 0.86302 0.0
H657 H 0.82594 0.8123 0.89492 0.0
H658 H 0.8317 0.84364 0.83267 0.0
H659 H 0.90569 0.93601 0.94791 0.0
H660 H 0.94415 0.8959 0.00125 0.0
H661 H 0.87192 0.81923 0.98221 0.0
C662 C 0.78333 0.90667 0.87722 0.0
C663 C 0.7812 0.93774 0.84544 0.0
C664 C 0.80876 0.95894 0.84787 0.0
C665 C 0.83787 0.94936 0.88112 0.0
C666 C 0.83936 0.91795 0.90971 0.0
C667 C 0.81277 0.89684 0.90711 0.0
C668 C 0.82165 0.86274 0.93205 0.0
C669 C 0.80147 0.85386 0.99388 0.0
C670 C 0.81732 0.83678 0.8774 0.0
C671 C 0.85757 0.86765 0.94896 0.0
C672 C 0.86722 0.89982 0.93749 0.0
C673 C 0.89878 0.91048 0.95412 0.0
C674 C 0.92092 0.88758 0.98201 0.0
C675 C 0.91237 0.85418 0.9893 0.0
C676 C 0.87988 0.84435 0.97395 0.0
H677 H 0.21549 0.39043 0.17987 0.0
H678 H 0.13402 0.43764 0.27878 0.0
H679 H 0.09579 0.39577 0.2327 0.0
H680 H 0.16767 0.36844 0.02722 0.0
H681 H 0.19052 0.33076 0.01756 0.0
H682 H 0.20991 0.36625 0.05405 0.0
H683 H 0.22507 0.33136 0.15718 0.0
H684 H 0.20528 0.29592 0.12194 0.0
H685 H 0.19298 0.31048 0.20233 0.0
H686 H 0.06875 0.34181 0.1896 0.0
H687 H 0.05513 0.28732 0.14124 0.0
H688 H 0.15319 0.28145 0.05958 0.0
C689 C 0.1894 0.39274 0.18945 0.0
C690 C 0.17745 0.4176 0.23133 0.0
C691 C 0.14338 0.41915 0.24525 0.0
C692 C 0.1216 0.39534 0.21969 0.0
C693 C 0.13428 0.37061 0.17922 0.0
C694 C 0.16733 0.36989 0.16271 0.0
C695 C 0.17526 0.34074 0.11944 0.0
C696 C 0.18649 0.35223 0.05047 0.0
C697 C 0.20117 0.31832 0.15222 0.0
C698 C 0.14193 0.32421 0.11651 0.0
C699 C 0.11844 0.34151 0.15126 0.0
C700 C 0.08668 0.32884 0.15998 0.0
C701 C 0.0788 0.29808 0.13152 0.0
C702 C 0.10231 0.28065 0.09409 0.0
C703 C 0.13423 0.29419 0.08703 0.0
H704 H 0.33636 0.56498 0.37221 0.0
H705 H 0.26633 0.62739 0.47433 0.0
H706 H 0.31175 0.661 0.51773 0.0
H707 H 0.39966 0.56843 0.50036 0.0
H708 H 0.43378 0.57051 0.44402 0.0
H709 H 0.39675 0.54905 0.42038 0.0
H710 H 0.39008 0.58475 0.31569 0.0
H711 H 0.42804 0.60531 0.33564 0.0
H712 H 0.39106 0.62897 0.32255 0.0
H713 H 0.36455 0.68937 0.54811 0.0
H714 H 0.42088 0.7119 0.55752 0.0
H715 H 0.45713 0.63249 0.43429 0.0
C716 C 0.33064 0.58555 0.40411 0.0
C717 C 0.29762 0.59342 0.41971 0.0
C718 C 0.29129 0.62076 0.46133 0.0
C719 C 0.31699 0.64005 0.48658 0.0
C720 C 0.34915 0.63189 0.46994 0.0
C721 C 0.35614 0.60539 0.42951 0.0
C722 C 0.39292 0.60284 0.41761 0.0
C723 C 0.40655 0.57076 0.44733 0.0
C724 C 0.40098 0.60565 0.34347 0.0
C725 C 0.40525 0.6326 0.45577 0.0
C726 C 0.37964 0.64865 0.48665 0.0
C727 C 0.38484 0.67694 0.52432 0.0
C728 C 0.41698 0.68951 0.52962 0.0
C729 C 0.44354 0.67408 0.49673 0.0
C730 C 0.43743 0.64497 0.46007 0.0
H731 H 0.41687 0.96503 0.71827 0.0
H732 H 0.31934 0.92186 0.73164 0.0
H733 H 0.34142 0.86921 0.69024 0.0
H734 H 0.44153 0.92735 0.57118 0.0
H735 H 0.48355 0.92 0.59577 0.0
H736 H 0.46104 0.95375 0.63116 0.0
H737 H 0.47237 0.93153 0.74928 0.0
H738 H 0.49575 0.89823 0.71409 0.0
H739 H 0.46203 0.88954 0.76929 0.0
H740 H 0.37226 0.82376 0.63619 0.0
H741 H 0.41117 0.78549 0.58383 0.0
H742 H 0.49034 0.85584 0.6115 0.0
C743 C 0.40024 0.94433 0.71348 0.0
C744 C 0.36627 0.94759 0.72816 0.0
C745 C 0.34539 0.91994 0.72117 0.0
C746 C 0.35771 0.88996 0.69742 0.0
C747 C 0.39109 0.88784 0.68198 0.0
C748 C 0.41225 0.91404 0.69086 0.0
C749 C 0.44704 0.9052 0.66974 0.0
C750 C 0.45897 0.92793 0.61362 0.0
C751 C 0.4707 0.90617 0.72914 0.0
C752 C 0.4419 0.87019 0.64564 0.0
C753 C 0.40935 0.86087 0.65309 0.0
C754 C 0.39787 0.83056 0.63107 0.0
C755 C 0.42016 0.80909 0.60098 0.0
C756 C 0.45377 0.81765 0.59381 0.0
C757 C 0.46486 0.84854 0.61706 0.0
H758 H 0.07973 0.89443 0.91196 0.0
H759 H 0.12561 0.81349 0.01808 0.0
H760 H 0.18006 0.83958 0.00217 0.0
H761 H 0.14299 0.91006 0.79149 0.0
H762 H 0.13909 0.95419 0.79609 0.0
H763 H 0.10412 0.92835 0.81352 0.0
H764 H 0.09787 0.95533 0.92985 0.0
H765 H 0.13228 0.98183 0.91014 0.0
H766 H 0.13295 0.95699 0.98414 0.0
H767 H 0.22907 0.8746 0.97632 0.0
H768 H 0.27007 0.91542 0.94222 0.0
H769 H 0.19305 0.97565 0.85451 0.0
C770 C 0.10129 0.88187 0.93092 0.0
C771 C 0.09841 0.85154 0.96552 0.0
C772 C 0.12718 0.83651 0.99111 0.0
C773 C 0.1582 0.8512 0.98232 0.0
C774 C 0.16009 0.88119 0.9486 0.0
C775 C 0.13243 0.89646 0.92353 0.0
C776 C 0.14112 0.92949 0.89247 0.0
C777 C 0.13125 0.93057 0.81902 0.0
C778 C 0.12509 0.95762 0.9314 0.0
C779 C 0.17825 0.92985 0.90129 0.0
C780 C 0.18845 0.90184 0.93463 0.0
C781 C 0.22134 0.89652 0.95001 0.0
C782 C 0.24451 0.92006 0.93023 0.0
C783 C 0.23504 0.94891 0.89506 0.0
C784 C 0.20123 0.95395 0.88106 0.0
H785 H 0.07289 0.70782 0.17706 0.0
H786 H 0.07703 0.69253 0.96468 0.0
H787 H 0.11503 0.64612 0.98157 0.0
H788 H 0.15684 0.69131 0.21096 0.0
H789 H 0.14979 0.66957 0.28755 0.0
H790 H 0.12097 0.70037 0.25997 0.0
H791 H 0.07409 0.65792 0.26756 0.0
H792 H 0.1023 0.62608 0.29323 0.0
H793 H 0.07669 0.62027 0.22116 0.0
H794 H 0.1556 0.60402 0.01955 0.0
H795 H 0.19369 0.56643 0.07687 0.0
H796 H 0.16383 0.60719 0.26593 0.0
C797 C 0.08133 0.69434 0.13422 0.0
C798 C 0.0718 0.704 0.06939 0.0
C799 C 0.08383 0.68581 0.01478 0.0
C800 C 0.10553 0.65933 0.02383 0.0
C801 C 0.1151 0.651 0.08794 0.0
C802 C 0.10321 0.66768 0.14237 0.0
C803 C 0.11811 0.65382 0.20579 0.0
C804 C 0.13758 0.68036 0.24326 0.0
C805 C 0.09122 0.63861 0.24961 0.0
C806 C 0.14085 0.62746 0.17824 0.0
C807 C 0.13851 0.62626 0.1101 0.0
C808 C 0.15749 0.60459 0.07296 0.0
C809 C 0.17927 0.5834 0.10613 0.0
C810 C 0.18214 0.58381 0.1761 0.0
C811 C 0.16251 0.60629 0.21245 0.0
H812 H 0.06077 0.23395 0.32157 0.0
H813 H 0.97138 0.17613 0.33644 0.0
H814 H 0.97099 0.18408 0.45742 0.0
H815 H 0.09833 0.20066 0.46253 0.0
H816 H 0.11778 0.2382 0.48938 0.0
H817 H 0.10889 0.23207 0.40302 0.0
H818 H 0.07545 0.28632 0.4 0.0
H819 H 0.08449 0.2928 0.48635 0.0
H820 H 0.0424 0.29226 0.4581 0.0
H821 H 0.98201 0.1948 0.57629 0.0
H822 H 1.00408 0.20693 0.68671 0.0
H823 H 0.08833 0.25542 0.59674 0.0
C824 C 0.04068 0.22384 0.3503 0.0
C825 C 0.01583 0.20482 0.31994 0.0
C826 C 0.99049 0.19095 0.35903 0.0
C827 C 0.99002 0.19539 0.42764 0.0
C828 C 1.01523 0.21358 0.45648 0.0
C829 C 0.04011 0.22764 0.41926 0.0
C830 C 0.06568 0.24364 0.46345 0.0
C831 C 0.09967 0.22768 0.45402 0.0
C832 C 0.06707 0.28097 0.45125 0.0
C833 C 0.05157 0.23576 0.5311 0.0
C834 C 0.02228 0.21877 0.52578 0.0
C835 C 1.00498 0.20806 0.58121 0.0
C836 C 0.01804 0.21473 0.64395 0.0
C837 C 0.04846 0.23155 0.65091 0.0
C838 C 0.06508 0.2425 0.59338 0.0
H839 H 0.84508 0.55439 0.8718 0.0
H840 H 0.74282 0.52536 0.88913 0.0
H841 H 0.74227 0.50897 0.77159 0.0
H842 H 0.83702 0.59152 0.71783 0.0
H843 H 0.87644 0.57898 0.68596 0.0
H844 H 0.87076 0.58359 0.77371 0.0
H845 H 0.89001 0.52354 0.79315 0.0
H846 H 0.89624 0.51887 0.7054 0.0
H847 H 0.87003 0.49049 0.74936 0.0
H848 H 0.75115 0.5005 0.65078 0.0
H849 H 0.76911 0.49937 0.53475 0.0
H850 H 0.86497 0.53674 0.59418 0.0
C851 C 0.82302 0.54348 0.85123 0.0
C852 C 0.79415 0.54053 0.88939 0.0
C853 C 0.76525 0.52741 0.86051 0.0
C854 C 0.76471 0.51805 0.79394 0.0
C855 C 0.79323 0.5222 0.75687 0.0
C856 C 0.82193 0.53443 0.78441 0.0
C857 C 0.8482 0.53915 0.73218 0.0
C858 C 0.8587 0.57547 0.72715 0.0
C859 C 0.87787 0.51666 0.74584 0.0
C860 C 0.82953 0.52834 0.67102 0.0
C861 C 0.798 0.51836 0.68645 0.0
C862 C 0.77582 0.50821 0.63799 0.0
C863 C 0.78619 0.50812 0.57186 0.0
C864 C 0.81838 0.51855 0.55464 0.0
C865 C 0.84023 0.52857 0.60537 0.0
H866 H 0.47634 0.32167 0.82309 0.0
H867 H 0.57978 0.34567 0.84473 0.0
H868 H 0.57527 0.3396 0.96571 0.0
H869 H 0.44955 0.36678 0.96106 0.0
H870 H 0.41839 0.33798 0.98714 0.0
H871 H 0.43012 0.34017 0.90139 0.0
H872 H 0.44373 0.27793 0.902 0.0
H873 H 0.43172 0.27544 0.98769 0.0
H874 H 0.47202 0.26182 0.9628 0.0
H875 H 0.55934 0.33476 0.08402 0.0
H876 H 0.53314 0.33063 0.19298 0.0
H877 H 0.43895 0.31199 0.09756 0.0
C878 C 0.49814 0.32472 0.85336 0.0
C879 C 0.52853 0.33379 0.82458 0.0
C880 C 0.55633 0.33856 0.86583 0.0
C881 C 0.55403 0.33514 0.9346 0.0
C882 C 0.52366 0.32708 0.96179 0.0
C883 C 0.49618 0.32175 0.9227 0.0
C884 C 0.4661 0.31545 0.96541 0.0
C885 C 0.43948 0.34166 0.953 0.0
C886 C 0.4526 0.28059 0.95378 0.0
C887 C 0.48094 0.31872 0.03422 0.0
C888 C 0.51422 0.32514 0.0308 0.0
C889 C 0.53324 0.32977 0.08745 0.0
C890 C 0.5179 0.3278 0.14946 0.0
C891 C 0.48363 0.32162 0.15472 0.0
C892 C 0.46514 0.31679 0.09581 0.0
H893 H 0.77189 0.97653 0.34673 0.0
H894 H 0.69932 0.04317 0.42966 0.0
H895 H 0.67961 0.05633 0.31764 0.0
H896 H 0.79029 0.02716 0.19994 0.0
H897 H 0.79516 0.99181 0.14722 0.0
H898 H 0.80493 0.98881 0.23407 0.0
H899 H 0.76471 0.93962 0.24574 0.0
H900 H 0.75478 0.94253 0.1591 0.0
H901 H 0.72249 0.94445 0.21996 0.0
H902 H 0.66449 0.05869 0.19855 0.0
H903 H 0.65683 0.05229 0.07809 0.0
H904 H 0.74078 0.98645 0.0712 0.0
C905 C 0.75215 0.99424 0.34136 0.0
C906 C 0.73672 1.00817 0.39727 0.0
C907 C 0.71092 0.03124 0.38799 0.0
C908 C 0.69976 0.03924 0.3244 0.0
C909 C 0.71496 0.0244 0.27059 0.0
C910 C 0.74082 1.00267 0.27821 0.0
C911 C 0.75215 0.98943 0.21209 0.0
C912 C 0.78775 0.99994 0.19748 0.0
C913 C 0.74828 0.95178 0.20908 0.0
C914 C 0.72808 1.00656 0.16631 0.0
C915 C 0.70691 0.02667 0.20117 0.0
C916 C 0.68121 0.04346 0.17049 0.0
C917 C 0.67697 0.03954 0.10226 0.0
C918 C 0.69847 0.01924 0.06553 0.0
C919 C 0.7245 1.00276 0.09794 0.0
H920 H 0.55489 0.71611 0.15385 0.0
H921 H 0.46476 0.77343 0.15787 0.0
H922 H 0.46175 0.77123 0.03607 0.0
H923 H 0.5887 0.75399 0.0107 0.0
H924 H 0.60652 0.7167 0.97871 0.0
H925 H 0.60098 0.72152 0.06652 0.0
H926 H 0.56702 0.66754 0.07076 0.0
H927 H 0.57265 0.66241 0.98302 0.0
H928 H 0.53175 0.66296 0.01731 0.0
H929 H 0.46852 0.76298 0.91436 0.0
H930 H 0.48463 0.74941 0.80064 0.0
H931 H 0.57153 0.69916 0.87607 0.0
C932 C 0.53418 0.72765 0.12929 0.0
C933 C 0.50984 0.74463 0.16534 0.0
C934 C 0.48367 0.76027 0.13111 0.0
C935 C 0.48169 0.75911 0.06202 0.0
C936 C 0.50618 0.74239 0.02794 0.0
C937 C 0.53192 0.72694 0.0603 0.0
C938 C 0.55549 0.7114 0.01177 0.0
C939 C 0.58995 0.72684 0.01727 0.0
C940 C 0.55679 0.67385 0.02128 0.0
C941 C 0.53897 0.72062 0.94718 0.0
C942 C 0.51054 0.73839 0.95757 0.0
C943 C 0.49091 0.74931 0.90542 0.0
C944 C 0.50056 0.74175 0.84071 0.0
C945 C 0.52982 0.72368 0.82875 0.0
C946 C 0.5491 0.71308 0.88312 0.0
H947 H 0.33942 0.04828 0.4112 0.0
H948 H 0.27603 0.96219 0.41838 0.0
H949 H 0.27757 0.95855 0.29716 0.0
H950 H 0.30415 0.08391 0.26669 0.0
H951 H 0.34247 0.09845 0.23265 0.0
H952 H 0.33799 0.0939 0.32086 0.0
H953 H 0.38895 0.05571 0.32465 0.0
H954 H 0.3938 0.06042 0.23651 0.0
H955 H 0.39022 0.01989 0.2723 0.0
H956 H 0.2836 0.96505 0.17503 0.0
H957 H 0.29658 0.97964 0.05972 0.0
H958 H 0.35638 0.06129 0.1291 0.0
C959 C 0.32644 0.02825 0.38753 0.0
C960 C 0.30765 1.00546 0.42501 0.0
C961 C 0.29047 0.98011 0.39126 0.0
C962 C 0.29119 0.97774 0.32217 0.0
C963 C 0.30929 1.00085 0.28676 0.0
C964 C 0.32687 0.02546 0.31805 0.0
C965 C 0.34386 0.04739 0.26754 0.0
C966 C 0.33136 0.08302 0.27223 0.0
C967 C 0.38144 0.04574 0.27575 0.0
C968 C 0.33284 0.03132 0.20335 0.0
C969 C 0.31284 1.00457 0.21572 0.0
C970 C 0.29925 0.98599 0.16462 0.0
C971 C 0.3065 0.99475 0.099 0.0
C972 C 0.32719 0.02197 0.0847 0.0
C973 C 0.34048 0.04036 0.13804 0.0
H974 H 0.03285 0.85597 0.39974 0.0
H975 H 0.96958 0.78169 0.31172 0.0
H976 H 0.95111 0.7651 0.42306 0.0
H977 H 0.05765 0.80916 0.54062 0.0
H978 H 0.05751 0.84392 0.5958 0.0
H979 H 0.06541 0.84996 0.509 0.0
H980 H 0.01756 0.89202 0.50292 0.0
H981 H 1.00932 0.88586 0.58966 0.0
H982 H 0.97703 0.87986 0.52961 0.0
H983 H 0.94019 0.75608 0.54445 0.0
H984 H 0.93915 0.75382 0.66638 0.0
H985 H 1.00885 0.83472 0.67467 0.0
C986 C 1.01502 0.83624 0.40358 0.0
C987 C 1.00308 0.81994 0.34658 0.0
C988 C 0.97983 0.79416 0.35426 0.0
C989 C 0.96885 0.78478 0.41744 0.0
C990 C 0.98116 0.8015 0.47236 0.0
C991 C 1.00379 0.82663 0.46601 0.0
C992 C 1.0137 0.84029 0.53285 0.0
C993 C 0.05076 0.83553 0.54529 0.0
C994 C 1.0038 0.87666 0.5391 0.0
C995 C 0.99331 0.81868 0.57808 0.0
C996 C 0.97458 0.7966 0.54216 0.0
C997 C 0.9546 0.77338 0.57302 0.0
C998 C 0.95421 0.7723 0.64234 0.0
C999 C 0.97361 0.79432 0.68032 0.0
C1000 C 0.99308 0.81809 0.64742 0.0
H1001 H 0.17694 0.53736 0.65178 0.0
H1002 H 0.21851 0.45264 0.55192 0.0
H1003 H 0.22872 0.42614 0.66044 0.0
H1004 H 0.23426 0.53793 0.7871 0.0
H1005 H 0.20404 0.5508 0.84684 0.0
H1006 H 0.1995 0.56238 0.76125 0.0
H1007 H 0.14137 0.53612 0.75972 0.0
H1008 H 0.14595 0.52406 0.84512 0.0
H1009 H 0.13648 0.49357 0.78335 0.0
H1010 H 0.23348 0.40874 0.77993 0.0
H1011 H 0.23778 0.40367 0.90105 0.0
H1012 H 0.19478 0.50096 0.92258 0.0
C1013 C 0.18814 0.51318 0.65268 0.0
C1014 C 0.19698 0.49709 0.59338 0.0
C1015 C 0.21191 0.46563 0.59667 0.0
C1016 C 0.21751 0.45027 0.65806 0.0
C1017 C 0.20818 0.46676 0.71552 0.0
C1018 C 0.19419 0.4977 0.71335 0.0
C1019 C 0.18765 0.51076 0.78224 0.0
C1020 C 0.20756 0.54233 0.7951 0.0
C1021 C 0.15066 0.51645 0.79323 0.0
C1022 C 0.20015 0.48232 0.82378 0.0
C1023 C 0.21156 0.45706 0.78429 0.0
C1024 C 0.22469 0.4284 0.81126 0.0
C1025 C 0.22702 0.4258 0.88029 0.0
C1026 C 0.21652 0.4518 0.92199 0.0
C1027 C 0.20243 0.48024 0.8929 0.0
loop_
_geom_bond_atom_site_label_1
_geom_bond_atom_site_label_2
_geom_bond_distance
_geom_bond_site_symmetry_2
_ccdc_geom_bond_type
Zn0 N4 2.020 . S
Zn0 O8 2.019 . S
Zn0 N10 2.119 . S
Zn0 O18 1.975 1_455 S
C1 N2 1.334 . S
C1 N5 1.336 . S
N2 C1 1.334 . S
N2 C3 1.334 1_554 S
C3 N2 1.334 1_556 S
C3 N4 1.336 . S
N4 Zn0 2.020 . S
N4 C3 1.336 . S
N4 N5 1.354 1_556 S
N5 C1 1.336 . S
N5 N4 1.354 1_554 S
N5 Zn9 2.020 1_455 S
C6 O7 1.244 . S
C6 O30 1.257 . S
O7 C6 1.244 . S
O8 Zn0 2.019 . S
O8 C28 1.257 . S
Zn9 N5 2.020 1_655 S
Zn9 O16 1.975 . S
Zn9 N25 2.119 . S
Zn9 O30 2.019 . S
N10 Zn0 2.119 . S
N10 C12 1.334 1_455 S
N10 C13 1.328 . S
C11 C12 1.391 . S
C11 N14 1.329 . S
C11 H32 0.930 . S
C12 N10 1.334 1_655 S
C12 C11 1.391 . S
C12 H19 0.930 . S
C13 N10 1.328 . S
C13 C15 1.397 . S
C13 H20 0.930 . S
N14 C11 1.329 . S
N14 C15 1.322 1_655 S
C15 C13 1.397 . S
C15 N14 1.322 1_455 S
O16 Zn9 1.975 . S
O16 C17 1.252 1_554 S
C17 O16 1.252 1_556 S
C17 O18 1.252 . S
O18 Zn0 1.975 1_655 S
O18 C17 1.252 . S
H19 C12 0.930 . S
H20 C13 0.930 . S
C21 C22 1.392 . S
C21 N25 1.328 . S
C21 H27 0.930 . S
C22 C21 1.392 . S
C22 N26 1.331 . S
C23 C24 1.391 . S
C23 N26 1.329 . S
C23 H33 0.930 . S
C24 C23 1.391 . S
C24 N25 1.334 . S
C24 H31 0.922 1_655 S
N25 Zn9 2.119 . S
N25 C21 1.328 . S
N25 C24 1.334 . S
N26 C22 1.331 . S
N26 C23 1.329 . S
H27 C21 0.930 . S
C28 O8 1.257 . S
C28 O29 1.244 . S
O29 C28 1.244 . S
O30 C6 1.257 . S
O30 Zn9 2.019 . S
H31 C24 0.922 1_455 S
H32 C11 0.930 . S
H33 C23 0.930 . S
Zn34 N38 2.020 . S
Zn34 O42 2.019 . S
Zn34 N44 2.119 . S
Zn34 O52 1.975 . S
C35 N36 1.334 . S
C35 N39 1.336 . S
N36 C35 1.334 . S
N36 C37 1.334 . S
C37 N36 1.334 . S
C37 N38 1.336 . S
N38 Zn34 2.020 . S
N38 C37 1.336 . S
N38 N39 1.354 . S
N39 C35 1.336 . S
N39 N38 1.354 . S
N39 Zn43 2.020 . S
C40 O41 1.244 . S
C40 O64 1.257 . S
O41 C40 1.244 . S
O42 Zn34 2.019 . S
O42 C62 1.257 . S
Zn43 N39 2.020 . S
Zn43 O50 1.975 . S
Zn43 N59 2.119 . S
Zn43 O64 2.019 . S
N44 Zn34 2.119 . S
N44 C46 1.334 . S
N44 C47 1.328 . S
C45 C46 1.391 . S
C45 N48 1.329 1_554 S
C45 H66 0.930 . S
C46 N44 1.334 . S
C46 C45 1.391 . S
C46 H53 0.930 . S
C47 N44 1.328 . S
C47 C49 1.392 1_554 S
C47 H54 0.930 . S
N48 C45 1.329 1_556 S
N48 C49 1.331 . S
C49 C47 1.392 1_556 S
C49 N48 1.331 . S
O50 Zn43 1.975 . S
O50 C51 1.252 . S
C51 O50 1.252 . S
C51 O52 1.252 . S
O52 Zn34 1.975 . S
O52 C51 1.252 . S
H53 C46 0.930 . S
H54 C47 0.930 . S
C55 C56 1.392 . S
C55 N59 1.328 . S
C55 H61 0.930 . S
C56 C55 1.392 . S
C56 N60 1.331 . S
C57 C58 1.391 . S
C57 N60 1.329 . S
C57 H67 0.930 . S
C58 C57 1.391 . S
C58 N59 1.334 . S
C58 H65 0.930 . S
N59 Zn43 2.119 . S
N59 C55 1.328 . S
N59 C58 1.334 . S
N60 C56 1.331 . S
N60 C57 1.329 . S
H61 C55 0.930 . S
C62 O42 1.257 . S
C62 O63 1.244 . S
O63 C62 1.244 . S
O64 C40 1.257 . S
O64 Zn43 2.019 . S
H65 C58 0.930 . S
H66 C45 0.930 . S
H67 C57 0.930 . S
Zn68 N72 2.020 . S
Zn68 O76 2.019 . S
Zn68 N78 2.119 . S
Zn68 O86 1.975 . S
C69 N70 1.334 . S
C69 N73 1.336 . S
N70 C69 1.334 . S
N70 C71 1.334 . S
C71 N70 1.334 . S
C71 N72 1.336 . S
N72 Zn68 2.020 . S
N72 C71 1.336 . S
N72 N73 1.354 . S
N73 C69 1.336 . S
N73 N72 1.354 . S
N73 Zn77 2.020 . S
C74 O75 1.244 . S
C74 O98 1.257 . S
O75 C74 1.244 . S
O76 Zn68 2.019 . S
O76 C96 1.257 . S
Zn77 N73 2.020 . S
Zn77 O84 1.975 . S
Zn77 N93 2.119 . S
Zn77 O98 2.019 . S
N78 Zn68 2.119 . S
N78 C80 1.334 . S
N78 C81 1.328 . S
C79 C80 1.391 . S
C79 N82 1.329 . S
C79 H100 0.930 . S
C80 N78 1.334 . S
C80 C79 1.391 . S
C80 H87 0.930 . S
C81 N78 1.328 . S
C81 C83 1.392 . S
C81 H88 0.930 . S
N82 C79 1.329 . S
N82 C83 1.331 . S
C83 C81 1.392 . S
C83 N82 1.331 . S
O84 Zn77 1.975 . S
O84 C85 1.252 . S
C85 O84 1.252 . S
C85 O86 1.252 . S
O86 Zn68 1.975 . S
O86 C85 1.252 . S
H87 C80 0.930 . S
H88 C81 0.930 . S
C89 C90 1.392 . S
C89 N93 1.328 . S
C89 H95 0.930 . S
C90 C89 1.392 . S
C90 N94 1.331 . S
C91 C92 1.391 . S
C91 N94 1.329 . S
C91 H101 0.930 . S
C92 C91 1.391 . S
C92 N93 1.334 . S
C92 H99 0.930 . S
N93 Zn77 2.119 . S
N93 C89 1.328 . S
N93 C92 1.334 . S
N94 C90 1.331 . S
N94 C91 1.329 . S
H95 C89 0.930 . S
C96 O76 1.257 . S
C96 O97 1.244 . S
O97 C96 1.244 . S
O98 C74 1.257 . S
O98 Zn77 2.019 . S
H99 C92 0.930 . S
H100 C79 0.930 . S
H101 C91 0.930 . S
Zn102 N106 2.020 1_545 S
Zn102 O110 2.019 . S
Zn102 N112 2.119 . S
Zn102 O120 1.975 . S
C103 N104 1.334 . S
C103 N107 1.336 . S
N104 C103 1.334 . S
N104 C105 1.334 . S
C105 N104 1.334 . S
C105 N106 1.336 . S
N106 Zn102 2.020 1_565 S
N106 C105 1.336 . S
N106 N107 1.354 . S
N107 C103 1.336 . S
N107 N106 1.354 . S
N107 Zn111 2.020 . S
C108 O109 1.244 . S
C108 O132 1.257 . S
O109 C108 1.244 . S
O110 Zn102 2.019 . S
O110 C130 1.257 . S
Zn111 N107 2.020 . S
Zn111 O118 1.975 1_565 S
Zn111 N127 2.119 1_565 S
Zn111 O132 2.019 . S
N112 Zn102 2.119 . S
N112 C114 1.334 . S
N112 C115 1.328 . S
C113 C114 1.391 . S
C113 N116 1.329 1_556 S
C113 H134 0.930 . S
C114 N112 1.334 . S
C114 C113 1.391 . S
C114 H121 0.930 . S
C115 N112 1.328 . S
C115 C117 1.392 1_556 S
C115 H122 0.930 . S
N116 C113 1.329 1_554 S
N116 C117 1.331 . S
C117 C115 1.392 1_554 S
C117 N116 1.331 . S
O118 Zn111 1.975 1_545 S
O118 C119 1.252 . S
C119 O118 1.252 . S
C119 O120 1.252 . S
O120 Zn102 1.975 . S
O120 C119 1.252 . S
H121 C114 0.930 . S
H122 C115 0.930 . S
C123 C124 1.388 1_565 S
C123 N127 1.326 1_565 S
C123 H129 0.937 . S
C124 C123 1.388 1_545 S
C124 N128 1.331 . S
C125 C126 1.391 . S
C125 N128 1.329 . S
C125 H135 0.930 . S
C126 C125 1.391 . S
C126 N127 1.334 . S
C126 H133 0.930 . S
N127 Zn111 2.119 1_545 S
N127 C123 1.326 1_545 S
N127 C126 1.334 . S
N128 C124 1.331 . S
N128 C125 1.329 . S
H129 C123 0.937 . S
C130 O110 1.257 . S
C130 O131 1.244 . S
O131 C130 1.244 . S
O132 C108 1.257 . S
O132 Zn111 2.019 . S
H133 C126 0.930 . S
H134 C113 0.930 . S
H135 C125 0.930 . S
Zn136 N140 2.020 . S
Zn136 O144 2.019 . S
Zn136 N146 2.119 . S
Zn136 O154 1.975 . S
C137 N138 1.334 . S
C137 N141 1.336 . S
N138 C137 1.334 . S
N138 C139 1.334 . S
C139 N138 1.334 . S
C139 N140 1.336 . S
N140 Zn136 2.020 . S
N140 C139 1.336 . S
N140 N141 1.354 . S
N141 C137 1.336 . S
N141 N140 1.354 . S
N141 Zn145 2.020 . S
C142 O143 1.244 . S
C142 O166 1.257 . S
O143 C142 1.244 . S
O144 Zn136 2.019 . S
O144 C164 1.257 . S
Zn145 N141 2.020 . S
Zn145 O152 1.975 . S
Zn145 N161 2.119 . S
Zn145 O166 2.019 . S
N146 Zn136 2.119 . S
N146 C148 1.334 . S
N146 C149 1.328 . S
C147 C148 1.391 . S
C147 N150 1.329 . S
C147 H168 0.930 . S
C148 N146 1.334 . S
C148 C147 1.391 . S
C148 H155 0.930 . S
C149 N146 1.328 . S
C149 C151 1.392 . S
C149 H156 0.930 . S
N150 C147 1.329 . S
N150 C151 1.331 . S
C151 C149 1.392 . S
C151 N150 1.331 . S
O152 Zn145 1.975 . S
O152 C153 1.252 . S
C153 O152 1.252 . S
C153 O154 1.252 . S
O154 Zn136 1.975 . S
O154 C153 1.252 . S
H155 C148 0.930 . S
H156 C149 0.930 . S
C157 C158 1.392 . S
C157 N161 1.328 . S
C157 H163 0.930 . S
C158 C157 1.392 . S
C158 N162 1.331 . S
C159 C160 1.391 . S
C159 N162 1.329 . S
C159 H169 0.930 . S
C160 C159 1.391 . S
C160 N161 1.334 . S
C160 H167 0.930 . S
N161 Zn145 2.119 . S
N161 C157 1.328 . S
N161 C160 1.334 . S
N162 C158 1.331 . S
N162 C159 1.329 . S
H163 C157 0.930 . S
C164 O144 1.257 . S
C164 O165 1.244 . S
O165 C164 1.244 . S
O166 C142 1.257 . S
O166 Zn145 2.019 . S
H167 C160 0.930 . S
H168 C147 0.930 . S
H169 C159 0.930 . S
Zn170 N174 2.020 . S
Zn170 O178 2.019 . S
Zn170 N180 2.119 . S
Zn170 O188 1.975 1_545 S
C171 N172 1.334 . S
C171 N175 1.336 . S
N172 C171 1.334 . S
N172 C173 1.334 . S
C173 N172 1.334 . S
C173 N174 1.336 . S
N174 Zn170 2.020 . S
N174 C173 1.336 . S
N174 N175 1.354 . S
N175 C171 1.336 . S
N175 N174 1.354 . S
N175 Zn179 2.020 1_545 S
C176 O177 1.244 . S
C176 O200 1.257 . S
O177 C176 1.244 . S
O178 Zn170 2.019 . S
O178 C198 1.257 . S
Zn179 N175 2.020 1_565 S
Zn179 O186 1.975 . S
Zn179 N195 2.119 . S
Zn179 O200 2.019 . S
N180 Zn170 2.119 . S
N180 C182 1.334 1_545 S
N180 C183 1.328 . S
C181 C182 1.391 . S
C181 N184 1.329 . S
C181 H202 0.930 . S
C182 N180 1.334 1_565 S
C182 C181 1.391 . S
C182 H189 0.930 . S
C183 N180 1.328 . S
C183 C185 1.397 . S
C183 H190 0.930 . S
N184 C181 1.329 . S
N184 C185 1.322 1_565 S
C185 C183 1.397 . S
C185 N184 1.322 1_545 S
O186 Zn179 1.975 . S
O186 C187 1.252 . S
C187 O186 1.252 . S
C187 O188 1.252 . S
O188 Zn170 1.975 1_565 S
O188 C187 1.252 . S
H189 C182 0.930 . S
H190 C183 0.930 . S
C191 C192 1.392 1_556 S
C191 N195 1.328 . S
C191 H197 0.930 . S
C192 C191 1.392 1_554 S
C192 N196 1.331 . S
C193 C194 1.391 . S
C193 N196 1.329 1_556 S
C193 H203 0.930 . S
C194 C193 1.391 . S
C194 N195 1.334 . S
C194 H201 0.922 1_565 S
N195 Zn179 2.119 . S
N195 C191 1.328 . S
N195 C194 1.334 . S
N196 C192 1.331 . S
N196 C193 1.329 1_554 S
H197 C191 0.930 . S
C198 O178 1.257 . S
C198 O199 1.244 . S
O199 C198 1.244 . S
O200 C176 1.257 . S
O200 Zn179 2.019 . S
H201 C194 0.922 1_545 S
H202 C181 0.930 . S
H203 C193 0.930 . S
Zn204 N208 2.020 . S
Zn204 O212 2.019 . S
Zn204 N214 2.119 1_655 S
Zn204 O222 1.975 1_655 S
C205 N206 1.334 . S
C205 N209 1.336 . S
N206 C205 1.334 . S
N206 C207 1.334 1_554 S
C207 N206 1.334 1_556 S
C207 N208 1.336 . S
N208 Zn204 2.020 . S
N208 C207 1.336 . S
N208 N209 1.354 1_556 S
N209 C205 1.336 . S
N209 N208 1.354 1_554 S
N209 Zn213 2.020 1_655 S
C210 O211 1.244 . S
C210 O234 1.257 . S
O211 C210 1.244 . S
O212 Zn204 2.019 . S
O212 C232 1.257 . S
Zn213 N209 2.020 1_455 S
Zn213 O220 1.975 . S
Zn213 N229 2.119 . S
Zn213 O234 2.019 . S
N214 Zn204 2.119 1_455 S
N214 C216 1.334 . S
N214 C217 1.326 1_455 S
C215 C216 1.391 . S
C215 N218 1.329 . S
C215 H236 0.930 . S
C216 N214 1.334 . S
C216 C215 1.391 . S
C216 H223 0.930 . S
C217 N214 1.326 1_655 S
C217 C219 1.388 1_655 S
C217 H224 0.937 . S
N218 C215 1.329 . S
N218 C219 1.331 . S
C219 C217 1.388 1_455 S
C219 N218 1.331 . S
O220 Zn213 1.975 . S
O220 C221 1.252 1_554 S
C221 O220 1.252 1_556 S
C221 O222 1.252 . S
O222 Zn204 1.975 1_455 S
O222 C221 1.252 . S
H223 C216 0.930 . S
H224 C217 0.937 . S
C225 C226 1.392 . S
C225 N229 1.328 . S
C225 H231 0.930 . S
C226 C225 1.392 . S
C226 N230 1.331 . S
C227 C228 1.391 . S
C227 N230 1.329 . S
C227 H237 0.930 . S
C228 C227 1.391 . S
C228 N229 1.334 . S
C228 H235 0.930 . S
N229 Zn213 2.119 . S
N229 C225 1.328 . S
N229 C228 1.334 . S
N230 C226 1.331 . S
N230 C227 1.329 . S
H231 C225 0.930 . S
C232 O212 1.257 . S
C232 O233 1.244 . S
O233 C232 1.244 . S
O234 C210 1.257 . S
O234 Zn213 2.019 . S
H235 C228 0.930 . S
H236 C215 0.930 . S
H237 C227 0.930 . S
Zn238 N242 2.020 . S
Zn238 O246 2.019 . S
Zn238 N248 2.119 . S
Zn238 O256 1.975 . S
C239 N240 1.334 . S
C239 N243 1.336 . S
N240 C239 1.334 . S
N240 C241 1.334 . S
C241 N240 1.334 . S
C241 N242 1.336 . S
N242 Zn238 2.020 . S
N242 C241 1.336 . S
N242 N243 1.354 . S
N243 C239 1.336 . S
N243 N242 1.354 . S
N243 Zn247 2.020 . S
C244 O245 1.244 . S
C244 O268 1.257 . S
O245 C244 1.244 . S
O246 Zn238 2.019 . S
O246 C266 1.257 . S
Zn247 N243 2.020 . S
Zn247 O254 1.975 . S
Zn247 N263 2.119 . S
Zn247 O268 2.019 . S
N248 Zn238 2.119 . S
N248 C250 1.334 . S
N248 C251 1.328 . S
C249 C250 1.391 . S
C249 N252 1.329 . S
C249 H270 0.930 . S
C250 N248 1.334 . S
C250 C249 1.391 . S
C250 H257 0.930 . S
C251 N248 1.328 . S
C251 C253 1.392 . S
C251 H258 0.930 . S
N252 C249 1.329 . S
N252 C253 1.331 . S
C253 C251 1.392 . S
C253 N252 1.331 . S
O254 Zn247 1.975 . S
O254 C255 1.252 . S
C255 O254 1.252 . S
C255 O256 1.252 . S
O256 Zn238 1.975 . S
O256 C255 1.252 . S
H257 C250 0.930 . S
H258 C251 0.930 . S
C259 C260 1.392 1_554 S
C259 N263 1.328 . S
C259 H265 0.930 . S
C260 C259 1.392 1_556 S
C260 N264 1.331 . S
C261 C262 1.391 . S
C261 N264 1.329 1_554 S
C261 H271 0.930 . S
C262 C261 1.391 . S
C262 N263 1.334 . S
C262 H269 0.930 . S
N263 Zn247 2.119 . S
N263 C259 1.328 . S
N263 C262 1.334 . S
N264 C260 1.331 . S
N264 C261 1.329 1_556 S
H265 C259 0.930 . S
C266 O246 1.257 . S
C266 O267 1.244 . S
O267 C266 1.244 . S
O268 C244 1.257 . S
O268 Zn247 2.019 . S
H269 C262 0.930 . S
H270 C249 0.930 . S
H271 C261 0.930 . S
H272 C284 0.930 . S
H273 C286 0.930 . S
H274 C287 0.930 . S
H275 C291 0.959 . S
H276 C291 0.959 1_545 S
H277 C291 0.961 . S
H278 C292 0.960 1_565 S
H279 C292 0.961 . S
H280 C292 0.959 . S
H281 C295 0.929 1_655 S
H282 C296 0.931 . S
H283 C298 0.930 . S
C284 H272 0.930 . S
C284 C285 1.399 . S
C284 C289 1.399 . S
C285 C284 1.399 . S
C285 C286 1.376 1_556 S
C286 H273 0.930 . S
C286 C285 1.376 1_554 S
C286 C287 1.388 . S
C287 H274 0.930 . S
C287 C286 1.388 . S
C287 C288 1.390 1_554 S
C288 C287 1.390 1_556 S
C288 C289 1.394 . S
C288 C294 1.465 1_665 S
C289 C284 1.399 . S
C289 C288 1.394 . S
C289 C290 1.516 1_665 S
C290 C289 1.516 1_445 S
C290 C291 1.502 1_545 S
C290 C292 1.561 1_455 S
C290 C293 1.526 . S
C291 H275 0.959 . S
C291 H276 0.959 1_565 S
C291 H277 0.961 . S
C291 C290 1.502 1_565 S
C292 H278 0.960 1_545 S
C292 H279 0.961 . S
C292 H280 0.959 . S
C292 C290 1.561 1_655 S
C293 C290 1.526 . S
C293 C294 1.396 . S
C293 C298 1.390 . S
C294 C288 1.465 1_445 S
C294 C293 1.396 . S
C294 C295 1.399 1_556 S
C295 H281 0.929 1_455 S
C295 C294 1.399 1_554 S
C295 C296 1.385 . S
C296 H282 0.931 . S
C296 C295 1.385 . S
C296 C297 1.389 1_554 S
C297 C296 1.389 1_556 S
C297 C298 1.387 . S
C298 H283 0.930 . S
C298 C293 1.390 . S
C298 C297 1.387 . S
H299 C311 0.930 . S
H300 C313 0.930 . S
H301 C314 0.930 . S
H302 C318 0.959 . S
H303 C318 0.959 1_455 S
H304 C318 0.961 . S
H305 C319 0.960 1_655 S
H306 C319 0.961 . S
H307 C319 0.959 . S
H308 C322 0.929 . S
H309 C323 0.931 . S
H310 C325 0.930 . S
C311 H299 0.930 . S
C311 C312 1.399 . S
C311 C316 1.399 . S
C312 C311 1.399 . S
C312 C313 1.376 . S
C313 H300 0.930 . S
C313 C312 1.376 . S
C313 C314 1.388 . S
C314 H301 0.930 . S
C314 C313 1.388 . S
C314 C315 1.390 . S
C315 C314 1.390 . S
C315 C316 1.394 . S
C315 C321 1.465 1_655 S
C316 C311 1.399 . S
C316 C315 1.394 . S
C316 C317 1.516 1_655 S
C317 C316 1.516 1_455 S
C317 C318 1.502 1_455 S
C317 C319 1.561 . S
C317 C320 1.526 . S
C318 H302 0.959 . S
C318 H303 0.959 1_655 S
C318 H304 0.961 . S
C318 C317 1.502 1_655 S
C319 H305 0.960 1_455 S
C319 H306 0.961 . S
C319 H307 0.959 . S
C319 C317 1.561 . S
C320 C317 1.526 . S
C320 C321 1.396 . S
C320 C325 1.390 . S
C321 C315 1.465 1_455 S
C321 C320 1.396 . S
C321 C322 1.399 . S
C322 H308 0.929 . S
C322 C321 1.399 . S
C322 C323 1.385 . S
C323 H309 0.931 . S
C323 C322 1.385 . S
C323 C324 1.389 . S
C324 C323 1.389 . S
C324 C325 1.387 . S
C325 H310 0.930 . S
C325 C320 1.390 . S
C325 C324 1.387 . S
H326 C338 0.930 . S
H327 C340 0.930 . S
H328 C341 0.930 . S
H329 C345 0.959 . S
H330 C345 0.959 . S
H331 C345 0.961 . S
H332 C346 0.960 . S
H333 C346 0.961 . S
H334 C346 0.959 . S
H335 C349 0.929 . S
H336 C350 0.931 . S
H337 C352 0.930 . S
C338 H326 0.930 . S
C338 C339 1.399 . S
C338 C343 1.399 . S
C339 C338 1.399 . S
C339 C340 1.376 . S
C340 H327 0.930 . S
C340 C339 1.376 . S
C340 C341 1.388 . S
C341 H328 0.930 . S
C341 C340 1.388 . S
C341 C342 1.390 . S
C342 C341 1.390 . S
C342 C343 1.394 . S
C342 C348 1.465 . S
C343 C338 1.399 . S
C343 C342 1.394 . S
C343 C344 1.516 . S
C344 C343 1.516 . S
C344 C345 1.502 . S
C344 C346 1.561 . S
C344 C347 1.526 . S
C345 H329 0.959 . S
C345 H330 0.959 . S
C345 H331 0.961 . S
C345 C344 1.502 . S
C346 H332 0.960 . S
C346 H333 0.961 . S
C346 H334 0.959 . S
C346 C344 1.561 . S
C347 C344 1.526 . S
C347 C348 1.396 . S
C347 C352 1.390 . S
C348 C342 1.465 . S
C348 C347 1.396 . S
C348 C349 1.399 . S
C349 H335 0.929 . S
C349 C348 1.399 . S
C349 C350 1.385 . S
C350 H336 0.931 . S
C350 C349 1.385 . S
C350 C351 1.389 . S
C351 C350 1.389 . S
C351 C352 1.387 . S
C352 H337 0.930 . S
C352 C347 1.390 . S
C352 C351 1.387 . S
H353 C365 0.930 . S
H354 C367 0.932 . S
H355 C368 0.930 . S
H356 C372 0.959 . S
H357 C372 0.959 . S
H358 C372 0.961 . S
H359 C373 0.960 . S
H360 C373 0.961 . S
H361 C373 0.959 . S
H362 C376 0.929 . S
H363 C377 0.931 . S
H364 C379 0.930 . S
C365 H353 0.930 . S
C365 C366 1.399 . S
C365 C370 1.399 . S
C366 C365 1.399 . S
C366 C367 1.376 . S
C367 H354 0.932 . S
C367 C366 1.376 . S
C367 C368 1.388 1_565 S
C368 H355 0.930 . S
C368 C367 1.388 1_545 S
C368 C369 1.390 . S
C369 C368 1.390 . S
C369 C370 1.394 1_545 S
C369 C375 1.465 . S
C370 C365 1.399 . S
C370 C369 1.394 1_565 S
C370 C371 1.516 . S
C371 C370 1.516 . S
C371 C372 1.502 . S
C371 C373 1.561 1_565 S
C371 C374 1.526 1_565 S
C372 H356 0.959 . S
C372 H357 0.959 . S
C372 H358 0.961 . S
C372 C371 1.502 . S
C373 H359 0.960 . S
C373 H360 0.961 . S
C373 H361 0.959 . S
C373 C371 1.561 1_545 S
C374 C371 1.526 1_545 S
C374 C375 1.396 . S
C374 C379 1.390 . S
C375 C369 1.465 . S
C375 C374 1.396 . S
C375 C376 1.399 . S
C376 H362 0.929 . S
C376 C375 1.399 . S
C376 C377 1.385 . S
C377 H363 0.931 . S
C377 C376 1.385 . S
C377 C378 1.389 . S
C378 C377 1.389 . S
C378 C379 1.387 . S
C379 H364 0.930 . S
C379 C374 1.390 . S
C379 C378 1.387 . S
H380 C392 0.930 . S
H381 C394 0.930 . S
H382 C395 0.930 . S
H383 C399 0.959 . S
H384 C399 0.959 . S
H385 C399 0.961 . S
H386 C400 0.960 . S
H387 C400 0.961 . S
H388 C400 0.959 . S
H389 C403 0.929 . S
H390 C404 0.931 . S
H391 C406 0.930 . S
C392 H380 0.930 . S
C392 C393 1.399 . S
C392 C397 1.399 . S
C393 C392 1.399 . S
C393 C394 1.376 . S
C394 H381 0.930 . S
C394 C393 1.376 . S
C394 C395 1.388 . S
C395 H382 0.930 . S
C395 C394 1.388 . S
C395 C396 1.390 . S
C396 C395 1.390 . S
C396 C397 1.394 . S
C396 C402 1.465 . S
C397 C392 1.399 . S
C397 C396 1.394 . S
C397 C398 1.516 . S
C398 C397 1.516 . S
C398 C399 1.502 . S
C398 C400 1.561 . S
C398 C401 1.526 . S
C399 H383 0.959 . S
C399 H384 0.959 . S
C399 H385 0.961 . S
C399 C398 1.502 . S
C400 H386 0.960 . S
C400 H387 0.961 . S
C400 H388 0.959 . S
C400 C398 1.561 . S
C401 C398 1.526 . S
C401 C402 1.396 . S
C401 C406 1.390 . S
C402 C396 1.465 . S
C402 C401 1.396 . S
C402 C403 1.399 . S
C403 H389 0.929 . S
C403 C402 1.399 . S
C403 C404 1.385 . S
C404 H390 0.931 . S
C404 C403 1.385 . S
C404 C405 1.389 . S
C405 C404 1.389 . S
C405 C406 1.387 . S
C406 H391 0.930 . S
C406 C401 1.390 . S
C406 C405 1.387 . S
H407 C419 0.930 . S
H408 C421 0.930 . S
H409 C422 0.930 . S
H410 C426 0.959 . S
H411 C426 0.959 . S
H412 C426 0.961 . S
H413 C427 0.960 . S
H414 C427 0.961 . S
H415 C427 0.959 . S
H416 C430 0.929 . S
H417 C431 0.931 . S
H418 C433 0.930 . S
C419 H407 0.930 . S
C419 C420 1.399 . S
C419 C424 1.399 . S
C420 C419 1.399 . S
C420 C421 1.376 . S
C421 H408 0.930 . S
C421 C420 1.376 . S
C421 C422 1.388 . S
C422 H409 0.930 . S
C422 C421 1.388 . S
C422 C423 1.390 . S
C423 C422 1.390 . S
C423 C424 1.394 . S
C423 C429 1.465 . S
C424 C419 1.399 . S
C424 C423 1.394 . S
C424 C425 1.516 . S
C425 C424 1.516 . S
C425 C426 1.502 . S
C425 C427 1.561 . S
C425 C428 1.526 . S
C426 H410 0.959 . S
C426 H411 0.959 . S
C426 H412 0.961 . S
C426 C425 1.502 . S
C427 H413 0.960 . S
C427 H414 0.961 . S
C427 H415 0.959 . S
C427 C425 1.561 . S
C428 C425 1.526 . S
C428 C429 1.396 . S
C428 C433 1.390 . S
C429 C423 1.465 . S
C429 C428 1.396 . S
C429 C430 1.399 . S
C430 H416 0.929 . S
C430 C429 1.399 . S
C430 C431 1.385 . S
C431 H417 0.931 . S
C431 C430 1.385 . S
C431 C432 1.389 . S
C432 C431 1.389 . S
C432 C433 1.387 . S
C433 H418 0.930 . S
C433 C428 1.390 . S
C433 C432 1.387 . S
H434 C446 0.930 . S
H435 C448 0.930 . S
H436 C449 0.930 . S
H437 C453 0.959 . S
H438 C453 0.959 . S
H439 C453 0.961 . S
H440 C454 0.960 . S
H441 C454 0.961 . S
H442 C454 0.959 . S
H443 C457 0.929 . S
H444 C458 0.931 . S
H445 C460 0.930 . S
C446 H434 0.930 . S
C446 C447 1.399 . S
C446 C451 1.399 . S
C447 C446 1.399 . S
C447 C448 1.376 . S
C448 H435 0.930 . S
C448 C447 1.376 . S
C448 C449 1.388 . S
C449 H436 0.930 . S
C449 C448 1.388 . S
C449 C450 1.390 . S
C450 C449 1.390 . S
C450 C451 1.394 . S
C450 C456 1.465 . S
C451 C446 1.399 . S
C451 C450 1.394 . S
C451 C452 1.516 . S
C452 C451 1.516 . S
C452 C453 1.502 . S
C452 C454 1.561 . S
C452 C455 1.526 . S
C453 H437 0.959 . S
C453 H438 0.959 . S
C453 H439 0.961 . S
C453 C452 1.502 . S
C454 H440 0.960 . S
C454 H441 0.961 . S
C454 H442 0.959 . S
C454 C452 1.561 . S
C455 C452 1.526 . S
C455 C456 1.396 . S
C455 C460 1.390 . S
C456 C450 1.465 . S
C456 C455 1.396 . S
C456 C457 1.399 . S
C457 H443 0.929 . S
C457 C456 1.399 . S
C457 C458 1.385 . S
C458 H444 0.931 . S
C458 C457 1.385 . S
C458 C459 1.389 . S
C459 C458 1.389 . S
C459 C460 1.387 . S
C460 H445 0.930 . S
C460 C455 1.390 . S
C460 C459 1.387 . S
H461 C473 0.930 . S
H462 C475 0.930 . S
H463 C476 0.930 . S
H464 C480 0.959 . S
H465 C480 0.959 . S
H466 C480 0.961 . S
H467 C481 0.960 . S
H468 C481 0.961 . S
H469 C481 0.959 . S
H470 C484 0.929 . S
H471 C485 0.931 . S
H472 C487 0.930 . S
C473 H461 0.930 . S
C473 C474 1.399 . S
C473 C478 1.399 . S
C474 C473 1.399 . S
C474 C475 1.376 . S
C475 H462 0.930 . S
C475 C474 1.376 . S
C475 C476 1.388 . S
C476 H463 0.930 . S
C476 C475 1.388 . S
C476 C477 1.390 . S
C477 C476 1.390 . S
C477 C478 1.394 . S
C477 C483 1.465 . S
C478 C473 1.399 . S
C478 C477 1.394 . S
C478 C479 1.516 . S
C479 C478 1.516 . S
C479 C480 1.502 . S
C479 C481 1.561 . S
C479 C482 1.526 . S
C480 H464 0.959 . S
C480 H465 0.959 . S
C480 H466 0.961 . S
C480 C479 1.502 . S
C481 H467 0.960 . S
C481 H468 0.961 . S
C481 H469 0.959 . S
C481 C479 1.561 . S
C482 C479 1.526 . S
C482 C483 1.396 . S
C482 C487 1.390 . S
C483 C477 1.465 . S
C483 C482 1.396 . S
C483 C484 1.399 . S
C484 H470 0.929 . S
C484 C483 1.399 . S
C484 C485 1.385 . S
C485 H471 0.931 . S
C485 C484 1.385 . S
C485 C486 1.389 . S
C486 C485 1.389 . S
C486 C487 1.387 . S
C487 H472 0.930 . S
C487 C482 1.390 . S
C487 C486 1.387 . S
H488 C500 0.930 . S
H489 C502 0.930 . S
H490 C503 0.930 . S
H491 C507 0.959 . S
H492 C507 0.959 . S
H493 C507 0.961 . S
H494 C508 0.960 . S
H495 C508 0.961 . S
H496 C508 0.959 . S
H497 C511 0.929 . S
H498 C512 0.931 . S
H499 C514 0.930 . S
C500 H488 0.930 . S
C500 C501 1.399 . S
C500 C505 1.399 . S
C501 C500 1.399 . S
C501 C502 1.376 . S
C502 H489 0.930 . S
C502 C501 1.376 . S
C502 C503 1.388 . S
C503 H490 0.930 . S
C503 C502 1.388 . S
C503 C504 1.390 . S
C504 C503 1.390 . S
C504 C505 1.394 . S
C504 C510 1.465 . S
C505 C500 1.399 . S
C505 C504 1.394 . S
C505 C506 1.516 . S
C506 C505 1.516 . S
C506 C507 1.502 . S
C506 C508 1.561 . S
C506 C509 1.526 . S
C507 H491 0.959 . S
C507 H492 0.959 . S
C507 H493 0.961 . S
C507 C506 1.502 . S
C508 H494 0.960 . S
C508 H495 0.961 . S
C508 H496 0.959 . S
C508 C506 1.561 . S
C509 C506 1.526 . S
C509 C510 1.396 . S
C509 C514 1.390 . S
C510 C504 1.465 . S
C510 C509 1.396 . S
C510 C511 1.399 1_556 S
C511 H497 0.929 . S
C511 C510 1.399 1_554 S
C511 C512 1.385 . S
C512 H498 0.931 . S
C512 C511 1.385 . S
C512 C513 1.389 1_554 S
C513 C512 1.389 1_556 S
C513 C514 1.387 . S
C514 H499 0.930 . S
C514 C509 1.390 . S
C514 C513 1.387 . S
H515 C527 0.930 . S
H516 C529 0.930 . S
H517 C530 0.930 . S
H518 C534 0.959 . S
H519 C534 0.959 . S
H520 C534 0.961 . S
H521 C535 0.960 . S
H522 C535 0.961 1_556 S
H523 C535 0.959 . S
H524 C538 0.929 . S
H525 C539 0.931 . S
H526 C541 0.930 . S
C527 H515 0.930 . S
C527 C528 1.399 . S
C527 C532 1.399 . S
C528 C527 1.399 . S
C528 C529 1.376 . S
C529 H516 0.930 . S
C529 C528 1.376 . S
C529 C530 1.388 . S
C530 H517 0.930 . S
C530 C529 1.388 . S
C530 C531 1.390 . S
C531 C530 1.390 . S
C531 C532 1.394 . S
C531 C537 1.465 . S
C532 C527 1.399 . S
C532 C531 1.394 . S
C532 C533 1.516 . S
C533 C532 1.516 . S
C533 C534 1.502 . S
C533 C535 1.561 . S
C533 C536 1.526 . S
C534 H518 0.959 . S
C534 H519 0.959 . S
C534 H520 0.961 . S
C534 C533 1.502 . S
C535 H521 0.960 . S
C535 H522 0.961 1_554 S
C535 H523 0.959 . S
C535 C533 1.561 . S
C536 C533 1.526 . S
C536 C537 1.396 . S
C536 C541 1.390 . S
C537 C531 1.465 . S
C537 C536 1.396 . S
C537 C538 1.399 . S
C538 H524 0.929 . S
C538 C537 1.399 . S
C538 C539 1.385 . S
C539 H525 0.931 . S
C539 C538 1.385 . S
C539 C540 1.389 . S
C540 C539 1.389 . S
C540 C541 1.387 . S
C541 H526 0.930 . S
C541 C536 1.390 . S
C541 C540 1.387 . S
H542 C554 0.930 . S
H543 C556 0.930 . S
H544 C557 0.930 . S
H545 C561 0.959 . S
H546 C561 0.959 . S
H547 C561 0.961 . S
H548 C562 0.960 . S
H549 C562 0.961 . S
H550 C562 0.959 . S
H551 C565 0.929 . S
H552 C566 0.931 . S
H553 C568 0.930 . S
C554 H542 0.930 . S
C554 C555 1.399 . S
C554 C559 1.399 . S
C555 C554 1.399 . S
C555 C556 1.376 . S
C556 H543 0.930 . S
C556 C555 1.376 . S
C556 C557 1.388 . S
C557 H544 0.930 . S
C557 C556 1.388 . S
C557 C558 1.390 . S
C558 C557 1.390 . S
C558 C559 1.394 . S
C558 C564 1.465 . S
C559 C554 1.399 . S
C559 C558 1.394 . S
C559 C560 1.516 . S
C560 C559 1.516 . S
C560 C561 1.502 . S
C560 C562 1.561 . S
C560 C563 1.526 . S
C561 H545 0.959 . S
C561 H546 0.959 . S
C561 H547 0.961 . S
C561 C560 1.502 . S
C562 H548 0.960 . S
C562 H549 0.961 . S
C562 H550 0.959 . S
C562 C560 1.561 . S
C563 C560 1.526 . S
C563 C564 1.396 . S
C563 C568 1.390 . S
C564 C558 1.465 . S
C564 C563 1.396 . S
C564 C565 1.399 . S
C565 H551 0.929 . S
C565 C564 1.399 . S
C565 C566 1.385 . S
C566 H552 0.931 . S
C566 C565 1.385 . S
C566 C567 1.389 . S
C567 C566 1.389 . S
C567 C568 1.387 . S
C568 H553 0.930 . S
C568 C563 1.390 . S
C568 C567 1.387 . S
H569 C581 0.930 . S
H570 C583 0.930 . S
H571 C584 0.930 . S
H572 C588 0.959 . S
H573 C588 0.959 . S
H574 C588 0.961 . S
H575 C589 0.960 . S
H576 C589 0.961 . S
H577 C589 0.959 . S
H578 C592 0.929 . S
H579 C593 0.931 . S
H580 C595 0.930 . S
C581 H569 0.930 . S
C581 C582 1.399 . S
C581 C586 1.399 . S
C582 C581 1.399 . S
C582 C583 1.376 . S
C583 H570 0.930 . S
C583 C582 1.376 . S
C583 C584 1.388 . S
C584 H571 0.930 . S
C584 C583 1.388 . S
C584 C585 1.390 . S
C585 C584 1.390 . S
C585 C586 1.394 . S
C585 C591 1.465 . S
C586 C581 1.399 . S
C586 C585 1.394 . S
C586 C587 1.516 . S
C587 C586 1.516 . S
C587 C588 1.502 . S
C587 C589 1.561 . S
C587 C590 1.526 . S
C588 H572 0.959 . S
C588 H573 0.959 . S
C588 H574 0.961 . S
C588 C587 1.502 . S
C589 H575 0.960 . S
C589 H576 0.961 . S
C589 H577 0.959 . S
C589 C587 1.561 . S
C590 C587 1.526 . S
C590 C591 1.396 . S
C590 C595 1.390 . S
C591 C585 1.465 . S
C591 C590 1.396 . S
C591 C592 1.399 . S
C592 H578 0.929 . S
C592 C591 1.399 . S
C592 C593 1.385 . S
C593 H579 0.931 . S
C593 C592 1.385 . S
C593 C594 1.389 . S
C594 C593 1.389 . S
C594 C595 1.387 . S
C595 H580 0.930 . S
C595 C590 1.390 . S
C595 C594 1.387 . S
H596 C608 0.930 . S
H597 C610 0.930 . S
H598 C611 0.930 . S
H599 C615 0.959 . S
H600 C615 0.959 . S
H601 C615 0.961 . S
H602 C616 0.960 . S
H603 C616 0.961 . S
H604 C616 0.959 . S
H605 C619 0.929 . S
H606 C620 0.931 . S
H607 C622 0.930 . S
C608 H596 0.930 . S
C608 C609 1.399 . S
C608 C613 1.399 . S
C609 C608 1.399 . S
C609 C610 1.376 . S
C610 H597 0.930 . S
C610 C609 1.376 . S
C610 C611 1.388 . S
C611 H598 0.930 . S
C611 C610 1.388 . S
C611 C612 1.390 . S
C612 C611 1.390 . S
C612 C613 1.394 . S
C612 C618 1.465 . S
C613 C608 1.399 . S
C613 C612 1.394 . S
C613 C614 1.516 . S
C614 C613 1.516 . S
C614 C615 1.502 . S
C614 C616 1.561 . S
C614 C617 1.526 . S
C615 H599 0.959 . S
C615 H600 0.959 . S
C615 H601 0.961 . S
C615 C614 1.502 . S
C616 H602 0.960 . S
C616 H603 0.961 . S
C616 H604 0.959 . S
C616 C614 1.561 . S
C617 C614 1.526 . S
C617 C618 1.396 . S
C617 C622 1.390 . S
C618 C612 1.465 . S
C618 C617 1.396 . S
C618 C619 1.399 . S
C619 H605 0.929 . S
C619 C618 1.399 . S
C619 C620 1.385 . S
C620 H606 0.931 . S
C620 C619 1.385 . S
C620 C621 1.389 . S
C621 C620 1.389 . S
C621 C622 1.387 . S
C622 H607 0.930 . S
C622 C617 1.390 . S
C622 C621 1.387 . S
H623 C635 0.930 . S
H624 C637 0.930 . S
H625 C638 0.930 . S
H626 C642 0.959 . S
H627 C642 0.959 . S
H628 C642 0.961 . S
H629 C643 0.960 . S
H630 C643 0.961 . S
H631 C643 0.959 . S
H632 C646 0.929 . S
H633 C647 0.931 . S
H634 C649 0.930 . S
C635 H623 0.930 . S
C635 C636 1.399 . S
C635 C640 1.399 . S
C636 C635 1.399 . S
C636 C637 1.376 . S
C637 H624 0.930 . S
C637 C636 1.376 . S
C637 C638 1.388 . S
C638 H625 0.930 . S
C638 C637 1.388 . S
C638 C639 1.390 . S
C639 C638 1.390 . S
C639 C640 1.394 . S
C639 C645 1.465 . S
C640 C635 1.399 . S
C640 C639 1.394 . S
C640 C641 1.516 . S
C641 C640 1.516 . S
C641 C642 1.502 . S
C641 C643 1.561 . S
C641 C644 1.526 . S
C642 H626 0.959 . S
C642 H627 0.959 . S
C642 H628 0.961 . S
C642 C641 1.502 . S
C643 H629 0.960 . S
C643 H630 0.961 . S
C643 H631 0.959 . S
C643 C641 1.561 . S
C644 C641 1.526 . S
C644 C645 1.396 . S
C644 C649 1.390 . S
C645 C639 1.465 . S
C645 C644 1.396 . S
C645 C646 1.399 . S
C646 H632 0.929 . S
C646 C645 1.399 . S
C646 C647 1.385 . S
C647 H633 0.931 . S
C647 C646 1.385 . S
C647 C648 1.389 . S
C648 C647 1.389 . S
C648 C649 1.387 . S
C649 H634 0.930 . S
C649 C644 1.390 . S
C649 C648 1.387 . S
H650 C662 0.930 . S
H651 C664 0.930 . S
H652 C665 0.930 . S
H653 C669 0.959 . S
H654 C669 0.959 . S
H655 C669 0.961 . S
H656 C670 0.960 . S
H657 C670 0.961 . S
H658 C670 0.959 . S
H659 C673 0.929 . S
H660 C674 0.931 . S
H661 C676 0.930 . S
C662 H650 0.930 . S
C662 C663 1.399 . S
C662 C667 1.399 . S
C663 C662 1.399 . S
C663 C664 1.376 . S
C664 H651 0.930 . S
C664 C663 1.376 . S
C664 C665 1.388 . S
C665 H652 0.930 . S
C665 C664 1.388 . S
C665 C666 1.390 . S
C666 C665 1.390 . S
C666 C667 1.394 . S
C666 C672 1.465 . S
C667 C662 1.399 . S
C667 C666 1.394 . S
C667 C668 1.516 . S
C668 C667 1.516 . S
C668 C669 1.502 . S
C668 C670 1.561 . S
C668 C671 1.526 . S
C669 H653 0.959 . S
C669 H654 0.959 . S
C669 H655 0.961 . S
C669 C668 1.502 . S
C670 H656 0.960 . S
C670 H657 0.961 . S
C670 H658 0.959 . S
C670 C668 1.561 . S
C671 C668 1.526 . S
C671 C672 1.396 . S
C671 C676 1.390 . S
C672 C666 1.465 . S
C672 C671 1.396 . S
C672 C673 1.399 . S
C673 H659 0.929 . S
C673 C672 1.399 . S
C673 C674 1.385 . S
C674 H660 0.931 . S
C674 C673 1.385 . S
C674 C675 1.389 . S
C675 C674 1.389 . S
C675 C676 1.387 . S
C676 H661 0.930 . S
C676 C671 1.390 . S
C676 C675 1.387 . S
H677 C689 0.930 . S
H678 C691 0.930 . S
H679 C692 0.930 . S
H680 C696 0.959 . S
H681 C696 0.959 . S
H682 C696 0.961 . S
H683 C697 0.960 . S
H684 C697 0.961 . S
H685 C697 0.959 . S
H686 C700 0.929 . S
H687 C701 0.931 . S
H688 C703 0.930 . S
C689 H677 0.930 . S
C689 C690 1.399 . S
C689 C694 1.399 . S
C690 C689 1.399 . S
C690 C691 1.376 . S
C691 H678 0.930 . S
C691 C690 1.376 . S
C691 C692 1.388 . S
C692 H679 0.930 . S
C692 C691 1.388 . S
C692 C693 1.390 . S
C693 C692 1.390 . S
C693 C694 1.394 . S
C693 C699 1.465 . S
C694 C689 1.399 . S
C694 C693 1.394 . S
C694 C695 1.516 . S
C695 C694 1.516 . S
C695 C696 1.502 . S
C695 C697 1.561 . S
C695 C698 1.526 . S
C696 H680 0.959 . S
C696 H681 0.959 . S
C696 H682 0.961 . S
C696 C695 1.502 . S
C697 H683 0.960 . S
C697 H684 0.961 . S
C697 H685 0.959 . S
C697 C695 1.561 . S
C698 C695 1.526 . S
C698 C699 1.396 . S
C698 C703 1.390 . S
C699 C693 1.465 . S
C699 C698 1.396 . S
C699 C700 1.399 . S
C700 H686 0.929 . S
C700 C699 1.399 . S
C700 C701 1.385 . S
C701 H687 0.931 . S
C701 C700 1.385 . S
C701 C702 1.389 . S
C702 C701 1.389 . S
C702 C703 1.387 . S
C703 H688 0.930 . S
C703 C698 1.390 . S
C703 C702 1.387 . S
H704 C716 0.930 . S
H705 C718 0.930 . S
H706 C719 0.930 . S
H707 C723 0.959 . S
H708 C723 0.959 . S
H709 C723 0.961 . S
H710 C724 0.960 . S
H711 C724 0.961 . S
H712 C724 0.959 . S
H713 C727 0.929 . S
H714 C728 0.931 . S
H715 C730 0.930 . S
C716 H704 0.930 . S
C716 C717 1.399 . S
C716 C721 1.399 . S
C717 C716 1.399 . S
C717 C718 1.376 . S
C718 H705 0.930 . S
C718 C717 1.376 . S
C718 C719 1.388 . S
C719 H706 0.930 . S
C719 C718 1.388 . S
C719 C720 1.390 . S
C720 C719 1.390 . S
C720 C721 1.394 . S
C720 C726 1.465 . S
C721 C716 1.399 . S
C721 C720 1.394 . S
C721 C722 1.516 . S
C722 C721 1.516 . S
C722 C723 1.502 . S
C722 C724 1.561 . S
C722 C725 1.526 . S
C723 H707 0.959 . S
C723 H708 0.959 . S
C723 H709 0.961 . S
C723 C722 1.502 . S
C724 H710 0.960 . S
C724 H711 0.961 . S
C724 H712 0.959 . S
C724 C722 1.561 . S
C725 C722 1.526 . S
C725 C726 1.396 . S
C725 C730 1.390 . S
C726 C720 1.465 . S
C726 C725 1.396 . S
C726 C727 1.399 . S
C727 H713 0.929 . S
C727 C726 1.399 . S
C727 C728 1.385 . S
C728 H714 0.931 . S
C728 C727 1.385 . S
C728 C729 1.389 . S
C729 C728 1.389 . S
C729 C730 1.387 . S
C730 H715 0.930 . S
C730 C725 1.390 . S
C730 C729 1.387 . S
H731 C743 0.930 . S
H732 C745 0.930 . S
H733 C746 0.930 . S
H734 C750 0.959 . S
H735 C750 0.959 . S
H736 C750 0.961 . S
H737 C751 0.960 . S
H738 C751 0.961 . S
H739 C751 0.959 . S
H740 C754 0.929 . S
H741 C755 0.931 . S
H742 C757 0.930 . S
C743 H731 0.930 . S
C743 C744 1.399 . S
C743 C748 1.399 . S
C744 C743 1.399 . S
C744 C745 1.376 . S
C745 H732 0.930 . S
C745 C744 1.376 . S
C745 C746 1.388 . S
C746 H733 0.930 . S
C746 C745 1.388 . S
C746 C747 1.390 . S
C747 C746 1.390 . S
C747 C748 1.394 . S
C747 C753 1.465 . S
C748 C743 1.399 . S
C748 C747 1.394 . S
C748 C749 1.516 . S
C749 C748 1.516 . S
C749 C750 1.502 . S
C749 C751 1.561 . S
C749 C752 1.526 . S
C750 H734 0.959 . S
C750 H735 0.959 . S
C750 H736 0.961 . S
C750 C749 1.502 . S
C751 H737 0.960 . S
C751 H738 0.961 . S
C751 H739 0.959 . S
C751 C749 1.561 . S
C752 C749 1.526 . S
C752 C753 1.396 . S
C752 C757 1.390 . S
C753 C747 1.465 . S
C753 C752 1.396 . S
C753 C754 1.399 . S
C754 H740 0.929 . S
C754 C753 1.399 . S
C754 C755 1.385 . S
C755 H741 0.931 . S
C755 C754 1.385 . S
C755 C756 1.389 . S
C756 C755 1.389 . S
C756 C757 1.387 . S
C757 H742 0.930 . S
C757 C752 1.390 . S
C757 C756 1.387 . S
H758 C770 0.928 1_554 S
H759 C772 0.930 . S
H760 C773 0.930 . S
H761 C777 0.959 . S
H762 C777 0.959 . S
H763 C777 0.961 . S
H764 C778 0.960 . S
H765 C778 0.961 . S
H766 C778 0.959 . S
H767 C781 0.929 . S
H768 C782 0.931 . S
H769 C784 0.930 . S
C770 H758 0.928 1_556 S
C770 C771 1.399 . S
C770 C775 1.399 . S
C771 C770 1.399 . S
C771 C772 1.376 . S
C772 H759 0.930 . S
C772 C771 1.376 . S
C772 C773 1.388 . S
C773 H760 0.930 . S
C773 C772 1.388 . S
C773 C774 1.390 . S
C774 C773 1.390 . S
C774 C775 1.394 . S
C774 C780 1.465 . S
C775 C770 1.399 . S
C775 C774 1.394 . S
C775 C776 1.516 . S
C776 C775 1.516 . S
C776 C777 1.502 . S
C776 C778 1.561 1_556 S
C776 C779 1.526 . S
C777 H761 0.959 . S
C777 H762 0.959 . S
C777 H763 0.961 . S
C777 C776 1.502 . S
C778 H764 0.960 . S
C778 H765 0.961 . S
C778 H766 0.959 . S
C778 C776 1.561 1_554 S
C779 C776 1.526 . S
C779 C780 1.396 . S
C779 C784 1.390 . S
C780 C774 1.465 . S
C780 C779 1.396 . S
C780 C781 1.399 . S
C781 H767 0.929 . S
C781 C780 1.399 . S
C781 C782 1.385 . S
C782 H768 0.931 . S
C782 C781 1.385 . S
C782 C783 1.389 . S
C783 C782 1.389 . S
C783 C784 1.387 . S
C784 H769 0.930 . S
C784 C779 1.390 . S
C784 C783 1.387 . S
H785 C797 0.930 . S
H786 C799 0.930 . S
H787 C800 0.930 . S
H788 C804 0.959 . S
H789 C804 0.959 . S
H790 C804 0.961 . S
H791 C805 0.960 . S
H792 C805 0.961 . S
H793 C805 0.959 . S
H794 C808 0.929 . S
H795 C809 0.931 . S
H796 C811 0.930 . S
C797 H785 0.930 . S
C797 C798 1.399 . S
C797 C802 1.399 . S
C798 C797 1.399 . S
C798 C799 1.376 . S
C799 H786 0.930 . S
C799 C798 1.376 . S
C799 C800 1.388 . S
C800 H787 0.930 . S
C800 C799 1.388 . S
C800 C801 1.390 . S
C801 C800 1.390 . S
C801 C802 1.394 . S
C801 C807 1.465 . S
C802 C797 1.399 . S
C802 C801 1.394 . S
C802 C803 1.516 . S
C803 C802 1.516 . S
C803 C804 1.502 . S
C803 C805 1.561 . S
C803 C806 1.526 . S
C804 H788 0.959 . S
C804 H789 0.959 . S
C804 H790 0.961 . S
C804 C803 1.502 . S
C805 H791 0.960 . S
C805 H792 0.961 . S
C805 H793 0.959 . S
C805 C803 1.561 . S
C806 C803 1.526 . S
C806 C807 1.396 . S
C806 C811 1.390 . S
C807 C801 1.465 . S
C807 C806 1.396 . S
C807 C808 1.399 . S
C808 H794 0.929 . S
C808 C807 1.399 . S
C808 C809 1.385 . S
C809 H795 0.931 . S
C809 C808 1.385 . S
C809 C810 1.389 . S
C810 C809 1.389 . S
C810 C811 1.387 . S
C811 H796 0.930 . S
C811 C806 1.390 . S
C811 C810 1.387 . S
H812 C824 0.930 . S
H813 C826 0.930 . S
H814 C827 0.930 . S
H815 C831 0.959 . S
H816 C831 0.959 . S
H817 C831 0.961 . S
H818 C832 0.960 . S
H819 C832 0.961 . S
H820 C832 0.959 . S
H821 C835 0.929 . S
H822 C836 0.931 . S
H823 C838 0.930 . S
C824 H812 0.930 . S
C824 C825 1.399 . S
C824 C829 1.399 . S
C825 C824 1.399 . S
C825 C826 1.376 . S
C826 H813 0.930 . S
C826 C825 1.376 . S
C826 C827 1.388 . S
C827 H814 0.930 . S
C827 C826 1.388 . S
C827 C828 1.390 . S
C828 C827 1.390 . S
C828 C829 1.394 . S
C828 C834 1.465 . S
C829 C824 1.399 . S
C829 C828 1.394 . S
C829 C830 1.516 . S
C830 C829 1.516 . S
C830 C831 1.502 1_655 S
C830 C832 1.561 . S
C830 C833 1.526 . S
C831 H815 0.959 . S
C831 H816 0.959 . S
C831 H817 0.961 . S
C831 C830 1.502 1_455 S
C832 H818 0.960 . S
C832 H819 0.961 . S
C832 H820 0.959 . S
C832 C830 1.561 . S
C833 C830 1.526 . S
C833 C834 1.396 . S
C833 C838 1.390 1_655 S
C834 C828 1.465 . S
C834 C833 1.396 . S
C834 C835 1.399 . S
C835 H821 0.929 . S
C835 C834 1.399 . S
C835 C836 1.385 . S
C836 H822 0.931 . S
C836 C835 1.385 . S
C836 C837 1.391 . S
C837 C836 1.391 . S
C837 C838 1.386 1_655 S
C838 H823 0.930 . S
C838 C833 1.390 1_455 S
C838 C837 1.386 1_455 S
H839 C851 0.930 . S
H840 C853 0.930 . S
H841 C854 0.930 . S
H842 C858 0.959 . S
H843 C858 0.959 . S
H844 C858 0.961 . S
H845 C859 0.960 . S
H846 C859 0.961 . S
H847 C859 0.959 . S
H848 C862 0.929 . S
H849 C863 0.931 . S
H850 C865 0.930 . S
C851 H839 0.930 . S
C851 C852 1.399 . S
C851 C856 1.399 . S
C852 C851 1.399 . S
C852 C853 1.376 . S
C853 H840 0.930 . S
C853 C852 1.376 . S
C853 C854 1.388 . S
C854 H841 0.930 . S
C854 C853 1.388 . S
C854 C855 1.390 . S
C855 C854 1.390 . S
C855 C856 1.394 . S
C855 C861 1.465 . S
C856 C851 1.399 . S
C856 C855 1.394 . S
C856 C857 1.516 . S
C857 C856 1.516 . S
C857 C858 1.502 . S
C857 C859 1.561 . S
C857 C860 1.526 . S
C858 H842 0.959 . S
C858 H843 0.959 . S
C858 H844 0.961 . S
C858 C857 1.502 . S
C859 H845 0.960 . S
C859 H846 0.961 . S
C859 H847 0.959 . S
C859 C857 1.561 . S
C860 C857 1.526 . S
C860 C861 1.396 . S
C860 C865 1.390 . S
C861 C855 1.465 . S
C861 C860 1.396 . S
C861 C862 1.399 . S
C862 H848 0.929 . S
C862 C861 1.399 . S
C862 C863 1.385 . S
C863 H849 0.931 . S
C863 C862 1.385 . S
C863 C864 1.389 . S
C864 C863 1.389 . S
C864 C865 1.387 . S
C865 H850 0.930 . S
C865 C860 1.390 . S
C865 C864 1.387 . S
H866 C878 0.930 . S
H867 C880 0.930 . S
H868 C881 0.930 . S
H869 C885 0.959 1_556 S
H870 C885 0.959 . S
H871 C885 0.961 1_556 S
H872 C886 0.960 1_556 S
H873 C886 0.961 . S
H874 C886 0.959 . S
H875 C889 0.929 . S
H876 C890 0.931 . S
H877 C892 0.930 . S
C878 H866 0.930 . S
C878 C879 1.399 . S
C878 C883 1.399 . S
C879 C878 1.399 . S
C879 C880 1.376 . S
C880 H867 0.930 . S
C880 C879 1.376 . S
C880 C881 1.388 . S
C881 H868 0.930 . S
C881 C880 1.388 . S
C881 C882 1.390 . S
C882 C881 1.390 . S
C882 C883 1.394 . S
C882 C888 1.465 1_556 S
C883 C878 1.399 . S
C883 C882 1.394 . S
C883 C884 1.516 1_556 S
C884 C883 1.516 1_554 S
C884 C885 1.502 . S
C884 C886 1.561 . S
C884 C887 1.526 . S
C885 H869 0.959 1_554 S
C885 H870 0.959 . S
C885 H871 0.961 1_554 S
C885 C884 1.502 . S
C886 H872 0.960 1_554 S
C886 H873 0.961 . S
C886 H874 0.959 . S
C886 C884 1.561 . S
C887 C884 1.526 . S
C887 C888 1.396 . S
C887 C892 1.390 . S
C888 C882 1.465 1_554 S
C888 C887 1.396 . S
C888 C889 1.399 . S
C889 H875 0.929 . S
C889 C888 1.399 . S
C889 C890 1.385 . S
C890 H876 0.931 . S
C890 C889 1.385 . S
C890 C891 1.389 . S
C891 C890 1.389 . S
C891 C892 1.387 . S
C892 H877 0.930 . S
C892 C887 1.390 . S
C892 C891 1.387 . S
H893 C905 0.930 . S
H894 C907 0.930 . S
H895 C908 0.930 . S
H896 C912 0.959 . S
H897 C912 0.959 . S
H898 C912 0.961 . S
H899 C913 0.960 . S
H900 C913 0.961 . S
H901 C913 0.959 . S
H902 C916 0.929 . S
H903 C917 0.931 . S
H904 C919 0.930 1_565 S
C905 H893 0.930 . S
C905 C906 1.399 1_565 S
C905 C910 1.405 . S
C906 C905 1.399 1_545 S
C906 C907 1.376 . S
C907 H894 0.930 . S
C907 C906 1.376 . S
C907 C908 1.388 . S
C908 H895 0.930 . S
C908 C907 1.388 . S
C908 C909 1.390 . S
C909 C908 1.390 . S
C909 C910 1.375 1_545 S
C909 C915 1.465 . S
C910 C905 1.405 . S
C910 C909 1.375 1_565 S
C910 C911 1.526 . S
C911 C910 1.526 . S
C911 C912 1.502 . S
C911 C913 1.561 . S
C911 C914 1.526 1_565 S
C912 H896 0.959 . S
C912 H897 0.959 . S
C912 H898 0.961 . S
C912 C911 1.502 . S
C913 H899 0.960 . S
C913 H900 0.961 . S
C913 H901 0.959 . S
C913 C911 1.561 . S
C914 C911 1.526 1_545 S
C914 C915 1.396 . S
C914 C919 1.390 . S
C915 C909 1.465 . S
C915 C914 1.396 . S
C915 C916 1.399 . S
C916 H902 0.929 . S
C916 C915 1.399 . S
C916 C917 1.385 . S
C917 H903 0.931 . S
C917 C916 1.385 . S
C917 C918 1.389 . S
C918 C917 1.389 . S
C918 C919 1.387 . S
C919 H904 0.930 1_545 S
C919 C914 1.390 . S
C919 C918 1.387 . S
H920 C932 0.930 . S
H921 C934 0.930 . S
H922 C935 0.930 . S
H923 C939 0.959 . S
H924 C939 0.959 . S
H925 C939 0.961 . S
H926 C940 0.960 1_554 S
H927 C940 0.961 . S
H928 C940 0.959 . S
H929 C943 0.929 . S
H930 C944 0.931 . S
H931 C946 0.930 . S
C932 H920 0.930 . S
C932 C933 1.399 . S
C932 C937 1.399 . S
C933 C932 1.399 . S
C933 C934 1.376 . S
C934 H921 0.930 . S
C934 C933 1.376 . S
C934 C935 1.388 . S
C935 H922 0.930 . S
C935 C934 1.388 . S
C935 C936 1.390 . S
C936 C935 1.390 . S
C936 C937 1.394 . S
C936 C942 1.465 1_554 S
C937 C932 1.399 . S
C937 C936 1.394 . S
C937 C938 1.516 1_554 S
C938 C937 1.516 1_556 S
C938 C939 1.502 . S
C938 C940 1.561 . S
C938 C941 1.526 . S
C939 H923 0.959 . S
C939 H924 0.959 . S
C939 H925 0.961 . S
C939 C938 1.502 . S
C940 H926 0.960 1_556 S
C940 H927 0.961 . S
C940 H928 0.959 . S
C940 C938 1.561 . S
C941 C938 1.526 . S
C941 C942 1.396 . S
C941 C946 1.390 . S
C942 C936 1.465 1_556 S
C942 C941 1.396 . S
C942 C943 1.399 . S
C943 H929 0.929 . S
C943 C942 1.399 . S
C943 C944 1.385 . S
C944 H930 0.931 . S
C944 C943 1.385 . S
C944 C945 1.389 . S
C945 C944 1.389 . S
C945 C946 1.387 . S
C946 H931 0.930 . S
C946 C941 1.390 . S
C946 C945 1.387 . S
H947 C959 0.930 . S
H948 C961 0.930 . S
H949 C962 0.930 . S
H950 C966 0.959 . S
H951 C966 0.959 . S
H952 C966 0.961 . S
H953 C967 0.960 1_545 S
H954 C967 0.961 1_545 S
H955 C967 0.959 . S
H956 C970 0.929 . S
H957 C971 0.931 . S
H958 C973 0.930 1_545 S
C959 H947 0.930 . S
C959 C960 1.399 1_545 S
C959 C964 1.399 . S
C960 C959 1.399 1_565 S
C960 C961 1.376 . S
C961 H948 0.930 . S
C961 C960 1.376 . S
C961 C962 1.388 . S
C962 H949 0.930 . S
C962 C961 1.388 . S
C962 C963 1.390 . S
C963 C962 1.390 . S
C963 C964 1.394 1_565 S
C963 C969 1.465 . S
C964 C959 1.399 . S
C964 C963 1.394 1_545 S
C964 C965 1.516 . S
C965 C964 1.516 . S
C965 C966 1.502 . S
C965 C967 1.561 1_545 S
C965 C968 1.526 1_545 S
C966 H950 0.959 . S
C966 H951 0.959 . S
C966 H952 0.961 . S
C966 C965 1.502 . S
C967 H953 0.960 1_565 S
C967 H954 0.961 1_565 S
C967 H955 0.959 . S
C967 C965 1.561 1_565 S
C968 C965 1.526 1_565 S
C968 C969 1.396 . S
C968 C973 1.390 . S
C969 C963 1.465 . S
C969 C968 1.396 . S
C969 C970 1.399 . S
C970 H956 0.929 . S
C970 C969 1.399 . S
C970 C971 1.385 . S
C971 H957 0.931 . S
C971 C970 1.385 . S
C971 C972 1.389 . S
C972 C971 1.389 . S
C972 C973 1.387 . S
C973 H958 0.930 1_565 S
C973 C968 1.390 . S
C973 C972 1.387 . S
H974 C986 0.930 . S
H975 C988 0.930 . S
H976 C989 0.930 1_655 S
H977 C993 0.959 . S
H978 C993 0.959 . S
H979 C993 0.961 . S
H980 C994 0.960 . S
H981 C994 0.961 . S
H982 C994 0.959 1_655 S
H983 C997 0.929 . S
H984 C998 0.931 . S
H985 C1000 0.930 . S
C986 H974 0.930 . S
C986 C987 1.399 . S
C986 C991 1.399 . S
C987 C986 1.399 . S
C987 C988 1.376 . S
C988 H975 0.930 . S
C988 C987 1.376 . S
C988 C989 1.388 . S
C989 H976 0.930 1_455 S
C989 C988 1.388 . S
C989 C990 1.390 . S
C990 C989 1.390 . S
C990 C991 1.394 . S
C990 C996 1.465 . S
C991 C986 1.399 . S
C991 C990 1.394 . S
C991 C992 1.516 . S
C992 C991 1.516 . S
C992 C993 1.502 . S
C992 C994 1.561 . S
C992 C995 1.526 . S
C993 H977 0.959 . S
C993 H978 0.959 . S
C993 H979 0.961 . S
C993 C992 1.502 . S
C994 H980 0.960 . S
C994 H981 0.961 . S
C994 H982 0.959 1_455 S
C994 C992 1.561 . S
C995 C992 1.526 . S
C995 C996 1.396 . S
C995 C1000 1.390 . S
C996 C990 1.465 . S
C996 C995 1.396 . S
C996 C997 1.399 1_455 S
C997 H983 0.929 . S
C997 C996 1.399 1_655 S
C997 C998 1.385 . S
C998 H984 0.931 . S
C998 C997 1.385 . S
C998 C999 1.389 1_655 S
C999 C998 1.389 1_455 S
C999 C1000 1.387 . S
C1000 H985 0.930 . S
C1000 C995 1.390 . S
C1000 C999 1.387 . S
H1001 C1013 0.930 . S
H1002 C1015 0.930 . S
H1003 C1016 0.930 . S
H1004 C1020 0.959 . S
H1005 C1020 0.959 . S
H1006 C1020 0.961 . S
H1007 C1021 0.960 . S
H1008 C1021 0.961 . S
H1009 C1021 0.959 . S
H1010 C1024 0.929 . S
H1011 C1025 0.931 . S
H1012 C1027 0.930 . S
C1013 H1001 0.930 . S
C1013 C1014 1.399 . S
C1013 C1018 1.399 . S
C1014 C1013 1.399 . S
C1014 C1015 1.376 . S
C1015 H1002 0.930 . S
C1015 C1014 1.376 . S
C1015 C1016 1.388 . S
C1016 H1003 0.930 . S
C1016 C1015 1.388 . S
C1016 C1017 1.390 . S
C1017 C1016 1.390 . S
C1017 C1018 1.394 . S
C1017 C1023 1.465 . S
C1018 C1013 1.399 . S
C1018 C1017 1.394 . S
C1018 C1019 1.516 . S
C1019 C1018 1.516 . S
C1019 C1020 1.502 . S
C1019 C1021 1.561 . S
C1019 C1022 1.526 . S
C1020 H1004 0.959 . S
C1020 H1005 0.959 . S
C1020 H1006 0.961 . S
C1020 C1019 1.502 . S
C1021 H1007 0.960 . S
C1021 H1008 0.961 . S
C1021 H1009 0.959 . S
C1021 C1019 1.561 . S
C1022 C1019 1.526 . S
C1022 C1023 1.396 . S
C1022 C1027 1.390 . S
C1023 C1017 1.465 . S
C1023 C1022 1.396 . S
C1023 C1024 1.399 . S
C1024 H1010 0.929 . S
C1024 C1023 1.399 . S
C1024 C1025 1.385 . S
C1025 H1011 0.931 . S
C1025 C1024 1.385 . S
C1025 C1026 1.389 . S
C1026 C1025 1.389 . S
C1026 C1027 1.387 . S
C1027 H1012 0.930 . S
C1027 C1022 1.390 . S
C1027 C1026 1.387 . S
C285 C232 0.569 . S
C297 C28 0.444 . S
C312 C62 0.572 . S
C324 C244 0.441 . S
C339 C164 0.604 . S
C351 C96 0.409 . S
C366 C108 0.456 . S
C378 C198 0.603 . S
C393 C171 2.051 . S
C405 C3 2.092 . S
C420 C37 2.121 . S
C432 C205 2.078 . S
C447 C71 2.102 . S
C459 C241 2.094 . S
C474 C103 2.117 . S
C486 C137 2.084 . S
C501 C130 1.487 . S
C513 C17 1.525 . S
C528 C51 1.470 . S
C540 C6 1.520 . S
C555 C40 1.537 . S
C567 C85 1.470 . S
C582 C119 1.499 . S
C594 C74 1.499 . S
C609 C35 2.036 . S
C621 C139 2.112 . S
C636 C69 2.040 . S
C648 C173 2.122 . S
C663 C105 2.075 . S
C675 C207 2.122 . S
C690 C239 2.101 . S
C702 C1 2.094 . S
C717 C266 1.496 . S
C729 C153 1.523 . S
C744 C187 1.470 . S
C756 C142 1.536 . S
C771 C221 1.515 . S
C783 C176 1.506 . S
C798 C210 1.540 . S
C810 C255 1.452 . S
C825 C22 1.377 . S
C837 C15 1.444 1_655 S
C852 C49 1.381 . S
C864 C56 1.442 . S
C879 C90 1.389 . S
C891 C83 1.435 . S
C906 C124 1.430 . S
C918 C117 1.396 . S
C933 C151 1.348 . S
C945 C158 1.458 . S
C960 C185 1.360 1_565 S
C972 C192 1.454 . S
C987 C226 1.414 . S
C999 C219 1.370 . S
C1014 C253 1.358 . S
C1026 C260 1.425 . S
