# Generated by pormake.
# Topology wmy, (6)-cn, num edge types: 1
# Building blocks:
#     Node 0, Type 0, BuildingBlock: OJICUG_clean_sbu_0, # of connection points: 6
#     Node 1, Type 0, BuildingBlock: OJICUG_clean_sbu_0, # of connection points: 6
#     Node 2, Type 0, BuildingBlock: OJICUG_clean_sbu_0, # of connection points: 6
#     Node 3, Type 0, BuildingBlock: OJICUG_clean_sbu_0, # of connection points: 6
#     Node 4, Type 0, BuildingBlock: OJICUG_clean_sbu_0, # of connection points: 6
#     Node 5, Type 0, BuildingBlock: OJICUG_clean_sbu_0, # of connection points: 6
#     Node 6, Type 0, BuildingBlock: OJICUG_clean_sbu_0, # of connection points: 6
#     Node 7, Type 0, BuildingBlock: OJICUG_clean_sbu_0, # of connection points: 6
#     Node 8, Type 0, BuildingBlock: OJICUG_clean_sbu_0, # of connection points: 6
#     Node 9, Type 0, BuildingBlock: OJICUG_clean_sbu_0, # of connection points: 6
#     Node 10, Type 0, BuildingBlock: OJICUG_clean_sbu_0, # of connection points: 6
#     Node 11, Type 0, BuildingBlock: OJICUG_clean_sbu_0, # of connection points: 6
#     Node 12, Type 0, BuildingBlock: OJICUG_clean_sbu_0, # of connection points: 6
#     Node 13, Type 0, BuildingBlock: OJICUG_clean_sbu_0, # of connection points: 6
#     Node 14, Type 0, BuildingBlock: OJICUG_clean_sbu_0, # of connection points: 6
#     Node 15, Type 0, BuildingBlock: OJICUG_clean_sbu_0, # of connection points: 6
#     Node 16, Type 0, BuildingBlock: OJICUG_clean_sbu_0, # of connection points: 6
#     Node 17, Type 0, BuildingBlock: OJICUG_clean_sbu_0, # of connection points: 6
#     Node 18, Type 0, BuildingBlock: OJICUG_clean_sbu_0, # of connection points: 6
#     Node 19, Type 0, BuildingBlock: OJICUG_clean_sbu_0, # of connection points: 6
#     Node 20, Type 0, BuildingBlock: OJICUG_clean_sbu_0, # of connection points: 6
#     Node 21, Type 0, BuildingBlock: OJICUG_clean_sbu_0, # of connection points: 6
#     Node 22, Type 0, BuildingBlock: OJICUG_clean_sbu_0, # of connection points: 6
#     Node 23, Type 0, BuildingBlock: OJICUG_clean_sbu_0, # of connection points: 6
#     Node 24, Type 0, BuildingBlock: OJICUG_clean_sbu_0, # of connection points: 6
#     Node 25, Type 0, BuildingBlock: OJICUG_clean_sbu_0, # of connection points: 6
#     Node 26, Type 0, BuildingBlock: OJICUG_clean_sbu_0, # of connection points: 6
#     Node 27, Type 0, BuildingBlock: OJICUG_clean_sbu_0, # of connection points: 6
#     Node 28, Type 0, BuildingBlock: OJICUG_clean_sbu_0, # of connection points: 6
#     Node 29, Type 0, BuildingBlock: OJICUG_clean_sbu_0, # of connection points: 6
#     Node 30, Type 0, BuildingBlock: OJICUG_clean_sbu_0, # of connection points: 6
#     Node 31, Type 0, BuildingBlock: OJICUG_clean_sbu_0, # of connection points: 6
#     Node 32, Type 0, BuildingBlock: OJICUG_clean_sbu_0, # of connection points: 6
#     Node 33, Type 0, BuildingBlock: OJICUG_clean_sbu_0, # of connection points: 6
#     Node 34, Type 0, BuildingBlock: OJICUG_clean_sbu_0, # of connection points: 6
#     Node 35, Type 0, BuildingBlock: OJICUG_clean_sbu_0, # of connection points: 6
#     Edge 36, Type (0, 0), BuildingBlock: XIVTED_clean_linker_0, # of connection points: 2
#     Edge 37, Type (0, 0), BuildingBlock: XIVTED_clean_linker_0, # of connection points: 2
#     Edge 38, Type (0, 0), BuildingBlock: XIVTED_clean_linker_0, # of connection points: 2
#     Edge 39, Type (0, 0), BuildingBlock: XIVTED_clean_linker_0, # of connection points: 2
#     Edge 40, Type (0, 0), BuildingBlock: XIVTED_clean_linker_0, # of connection points: 2
#     Edge 41, Type (0, 0), BuildingBlock: XIVTED_clean_linker_0, # of connection points: 2
#     Edge 42, Type (0, 0), BuildingBlock: XIVTED_clean_linker_0, # of connection points: 2
#     Edge 43, Type (0, 0), BuildingBlock: XIVTED_clean_linker_0, # of connection points: 2
#     Edge 44, Type (0, 0), BuildingBlock: XIVTED_clean_linker_0, # of connection points: 2
#     Edge 45, Type (0, 0), BuildingBlock: XIVTED_clean_linker_0, # of connection points: 2
#     Edge 46, Type (0, 0), BuildingBlock: XIVTED_clean_linker_0, # of connection points: 2
#     Edge 47, Type (0, 0), BuildingBlock: XIVTED_clean_linker_0, # of connection points: 2
#     Edge 48, Type (0, 0), BuildingBlock: XIVTED_clean_linker_0, # of connection points: 2
#     Edge 49, Type (0, 0), BuildingBlock: XIVTED_clean_linker_0, # of connection points: 2
#     Edge 50, Type (0, 0), BuildingBlock: XIVTED_clean_linker_0, # of connection points: 2
#     Edge 51, Type (0, 0), BuildingBlock: XIVTED_clean_linker_0, # of connection points: 2
#     Edge 52, Type (0, 0), BuildingBlock: XIVTED_clean_linker_0, # of connection points: 2
#     Edge 53, Type (0, 0), BuildingBlock: XIVTED_clean_linker_0, # of connection points: 2
#     Edge 54, Type (0, 0), BuildingBlock: XIVTED_clean_linker_0, # of connection points: 2
#     Edge 55, Type (0, 0), BuildingBlock: XIVTED_clean_linker_0, # of connection points: 2
#     Edge 56, Type (0, 0), BuildingBlock: XIVTED_clean_linker_0, # of connection points: 2
#     Edge 57, Type (0, 0), BuildingBlock: XIVTED_clean_linker_0, # of connection points: 2
#     Edge 58, Type (0, 0), BuildingBlock: XIVTED_clean_linker_0, # of connection points: 2
#     Edge 59, Type (0, 0), BuildingBlock: XIVTED_clean_linker_0, # of connection points: 2
#     Edge 60, Type (0, 0), BuildingBlock: XIVTED_clean_linker_0, # of connection points: 2
#     Edge 61, Type (0, 0), BuildingBlock: XIVTED_clean_linker_0, # of connection points: 2
#     Edge 62, Type (0, 0), BuildingBlock: XIVTED_clean_linker_0, # of connection points: 2
#     Edge 63, Type (0, 0), BuildingBlock: XIVTED_clean_linker_0, # of connection points: 2
#     Edge 64, Type (0, 0), BuildingBlock: XIVTED_clean_linker_0, # of connection points: 2
#     Edge 65, Type (0, 0), BuildingBlock: XIVTED_clean_linker_0, # of connection points: 2
#     Edge 66, Type (0, 0), BuildingBlock: XIVTED_clean_linker_0, # of connection points: 2
#     Edge 67, Type (0, 0), BuildingBlock: XIVTED_clean_linker_0, # of connection points: 2
#     Edge 68, Type (0, 0), BuildingBlock: XIVTED_clean_linker_0, # of connection points: 2
#     Edge 69, Type (0, 0), BuildingBlock: XIVTED_clean_linker_0, # of connection points: 2
#     Edge 70, Type (0, 0), BuildingBlock: XIVTED_clean_linker_0, # of connection points: 2
#     Edge 71, Type (0, 0), BuildingBlock: XIVTED_clean_linker_0, # of connection points: 2
#     Edge 72, Type (0, 0), BuildingBlock: XIVTED_clean_linker_0, # of connection points: 2
#     Edge 73, Type (0, 0), BuildingBlock: XIVTED_clean_linker_0, # of connection points: 2
#     Edge 74, Type (0, 0), BuildingBlock: XIVTED_clean_linker_0, # of connection points: 2
#     Edge 75, Type (0, 0), BuildingBlock: XIVTED_clean_linker_0, # of connection points: 2
#     Edge 76, Type (0, 0), BuildingBlock: XIVTED_clean_linker_0, # of connection points: 2
#     Edge 77, Type (0, 0), BuildingBlock: XIVTED_clean_linker_0, # of connection points: 2
#     Edge 78, Type (0, 0), BuildingBlock: XIVTED_clean_linker_0, # of connection points: 2
#     Edge 79, Type (0, 0), BuildingBlock: XIVTED_clean_linker_0, # of connection points: 2
#     Edge 80, Type (0, 0), BuildingBlock: XIVTED_clean_linker_0, # of connection points: 2
#     Edge 81, Type (0, 0), BuildingBlock: XIVTED_clean_linker_0, # of connection points: 2
#     Edge 82, Type (0, 0), BuildingBlock: XIVTED_clean_linker_0, # of connection points: 2
#     Edge 83, Type (0, 0), BuildingBlock: XIVTED_clean_linker_0, # of connection points: 2
#     Edge 84, Type (0, 0), BuildingBlock: XIVTED_clean_linker_0, # of connection points: 2
#     Edge 85, Type (0, 0), BuildingBlock: XIVTED_clean_linker_0, # of connection points: 2
#     Edge 86, Type (0, 0), BuildingBlock: XIVTED_clean_linker_0, # of connection points: 2
#     Edge 87, Type (0, 0), BuildingBlock: XIVTED_clean_linker_0, # of connection points: 2
#     Edge 88, Type (0, 0), BuildingBlock: XIVTED_clean_linker_0, # of connection points: 2
#     Edge 89, Type (0, 0), BuildingBlock: XIVTED_clean_linker_0, # of connection points: 2
#     Edge 90, Type (0, 0), BuildingBlock: XIVTED_clean_linker_0, # of connection points: 2
#     Edge 91, Type (0, 0), BuildingBlock: XIVTED_clean_linker_0, # of connection points: 2
#     Edge 92, Type (0, 0), BuildingBlock: XIVTED_clean_linker_0, # of connection points: 2
#     Edge 93, Type (0, 0), BuildingBlock: XIVTED_clean_linker_0, # of connection points: 2
#     Edge 94, Type (0, 0), BuildingBlock: XIVTED_clean_linker_0, # of connection points: 2
#     Edge 95, Type (0, 0), BuildingBlock: XIVTED_clean_linker_0, # of connection points: 2
#     Edge 96, Type (0, 0), BuildingBlock: XIVTED_clean_linker_0, # of connection points: 2
#     Edge 97, Type (0, 0), BuildingBlock: XIVTED_clean_linker_0, # of connection points: 2
#     Edge 98, Type (0, 0), BuildingBlock: XIVTED_clean_linker_0, # of connection points: 2
#     Edge 99, Type (0, 0), BuildingBlock: XIVTED_clean_linker_0, # of connection points: 2
#     Edge 100, Type (0, 0), BuildingBlock: XIVTED_clean_linker_0, # of connection points: 2
#     Edge 101, Type (0, 0), BuildingBlock: XIVTED_clean_linker_0, # of connection points: 2
#     Edge 102, Type (0, 0), BuildingBlock: XIVTED_clean_linker_0, # of connection points: 2
#     Edge 103, Type (0, 0), BuildingBlock: XIVTED_clean_linker_0, # of connection points: 2
#     Edge 104, Type (0, 0), BuildingBlock: XIVTED_clean_linker_0, # of connection points: 2
#     Edge 105, Type (0, 0), BuildingBlock: XIVTED_clean_linker_0, # of connection points: 2
#     Edge 106, Type (0, 0), BuildingBlock: XIVTED_clean_linker_0, # of connection points: 2
#     Edge 107, Type (0, 0), BuildingBlock: XIVTED_clean_linker_0, # of connection points: 2
#     Edge 108, Type (0, 0), BuildingBlock: XIVTED_clean_linker_0, # of connection points: 2
#     Edge 109, Type (0, 0), BuildingBlock: XIVTED_clean_linker_0, # of connection points: 2
#     Edge 110, Type (0, 0), BuildingBlock: XIVTED_clean_linker_0, # of connection points: 2
#     Edge 111, Type (0, 0), BuildingBlock: XIVTED_clean_linker_0, # of connection points: 2
#     Edge 112, Type (0, 0), BuildingBlock: XIVTED_clean_linker_0, # of connection points: 2
#     Edge 113, Type (0, 0), BuildingBlock: XIVTED_clean_linker_0, # of connection points: 2
#     Edge 114, Type (0, 0), BuildingBlock: XIVTED_clean_linker_0, # of connection points: 2
#     Edge 115, Type (0, 0), BuildingBlock: XIVTED_clean_linker_0, # of connection points: 2
#     Edge 116, Type (0, 0), BuildingBlock: XIVTED_clean_linker_0, # of connection points: 2
#     Edge 117, Type (0, 0), BuildingBlock: XIVTED_clean_linker_0, # of connection points: 2
#     Edge 118, Type (0, 0), BuildingBlock: XIVTED_clean_linker_0, # of connection points: 2
#     Edge 119, Type (0, 0), BuildingBlock: XIVTED_clean_linker_0, # of connection points: 2
#     Edge 120, Type (0, 0), BuildingBlock: XIVTED_clean_linker_0, # of connection points: 2
#     Edge 121, Type (0, 0), BuildingBlock: XIVTED_clean_linker_0, # of connection points: 2
#     Edge 122, Type (0, 0), BuildingBlock: XIVTED_clean_linker_0, # of connection points: 2
#     Edge 123, Type (0, 0), BuildingBlock: XIVTED_clean_linker_0, # of connection points: 2
#     Edge 124, Type (0, 0), BuildingBlock: XIVTED_clean_linker_0, # of connection points: 2
#     Edge 125, Type (0, 0), BuildingBlock: XIVTED_clean_linker_0, # of connection points: 2
#     Edge 126, Type (0, 0), BuildingBlock: XIVTED_clean_linker_0, # of connection points: 2
#     Edge 127, Type (0, 0), BuildingBlock: XIVTED_clean_linker_0, # of connection points: 2
#     Edge 128, Type (0, 0), BuildingBlock: XIVTED_clean_linker_0, # of connection points: 2
#     Edge 129, Type (0, 0), BuildingBlock: XIVTED_clean_linker_0, # of connection points: 2
#     Edge 130, Type (0, 0), BuildingBlock: XIVTED_clean_linker_0, # of connection points: 2
#     Edge 131, Type (0, 0), BuildingBlock: XIVTED_clean_linker_0, # of connection points: 2
#     Edge 132, Type (0, 0), BuildingBlock: XIVTED_clean_linker_0, # of connection points: 2
#     Edge 133, Type (0, 0), BuildingBlock: XIVTED_clean_linker_0, # of connection points: 2
#     Edge 134, Type (0, 0), BuildingBlock: XIVTED_clean_linker_0, # of connection points: 2
#     Edge 135, Type (0, 0), BuildingBlock: XIVTED_clean_linker_0, # of connection points: 2
#     Edge 136, Type (0, 0), BuildingBlock: XIVTED_clean_linker_0, # of connection points: 2
#     Edge 137, Type (0, 0), BuildingBlock: XIVTED_clean_linker_0, # of connection points: 2
#     Edge 138, Type (0, 0), BuildingBlock: XIVTED_clean_linker_0, # of connection points: 2
#     Edge 139, Type (0, 0), BuildingBlock: XIVTED_clean_linker_0, # of connection points: 2
#     Edge 140, Type (0, 0), BuildingBlock: XIVTED_clean_linker_0, # of connection points: 2
#     Edge 141, Type (0, 0), BuildingBlock: XIVTED_clean_linker_0, # of connection points: 2
#     Edge 142, Type (0, 0), BuildingBlock: XIVTED_clean_linker_0, # of connection points: 2
#     Edge 143, Type (0, 0), BuildingBlock: XIVTED_clean_linker_0, # of connection points: 2
# Relax obj value: 0.454
# Max RMSD: 0.185
# Mean RMSD: 0.185
data_MOF--net-wmy--node1-OJICUG_clean_sbu_0--edge1-XIVTED_clean_linker_0
_symmetry_space_group_name_H-M    P1
_symmetry_Int_Tables_number       1
_symmetry_cell_setting            triclinic
loop_
_symmetry_equiv_pos_as_xyz
'x, y, z'
_cell_length_a     54.035376
_cell_length_b     54.042194
_cell_length_c     57.477639
_cell_angle_alpha  90.015516
_cell_angle_beta   90.021849
_cell_angle_gamma 120.03466
loop_
_atom_site_label
_atom_site_type_symbol
_atom_site_fract_x
_atom_site_fract_y
_atom_site_fract_z
_atom_type_partial_charge
Sc0 Sc 0.00835 0.13331 0.1053 0.0
Sc1 Sc 0.04983 0.2064 0.11611 0.0
Sc2 Sc 0.974 0.17292 0.11638 0.0
O3 O 0.01063 0.17092 0.11264 0.0
C4 C 0.96098 0.1333 0.07198 0.0
C5 C 0.0612 0.17689 0.07379 0.0
C6 C 0.01469 0.23254 0.09181 0.0
C7 C 0.06083 0.15876 0.13953 0.0
C8 C 0.95451 0.11192 0.13902 0.0
C9 C 0.01391 0.21085 0.15821 0.0
O10 O 0.97947 0.12608 0.07689 0.0
O11 O 0.06491 0.19974 0.08328 0.0
O12 O 0.98995 0.21216 0.09682 0.0
O13 O 0.03739 0.13763 0.13267 0.0
O14 O 0.9516 0.13369 0.13645 0.0
O15 O 0.03747 0.21566 0.14918 0.0
O16 O 0.97394 0.10934 0.12893 0.0
O17 O 0.06863 0.18442 0.13396 0.0
O18 O 0.98976 0.19642 0.14819 0.0
O19 O 0.04288 0.15214 0.08091 0.0
O20 O 0.95584 0.14944 0.08475 0.0
O21 O 0.03751 0.23313 0.09797 0.0
Sc22 Sc 0.85779 0.89074 0.10322 0.0
Sc23 Sc 0.79177 0.85025 0.13029 0.0
Sc24 Sc 0.83477 0.81958 0.11791 0.0
O25 O 0.82819 0.85345 0.11728 0.0
C26 C 0.85894 0.84646 0.06782 0.0
C27 C 0.79908 0.88424 0.08439 0.0
C28 C 0.76884 0.78866 0.10705 0.0
C29 C 0.83853 0.91417 0.14503 0.0
C30 C 0.89675 0.87056 0.12994 0.0
C31 C 0.80597 0.81684 0.16753 0.0
O32 O 0.86046 0.87021 0.07225 0.0
O33 O 0.78281 0.86416 0.09803 0.0
O34 O 0.79325 0.79151 0.10304 0.0
O35 O 0.85823 0.91448 0.13292 0.0
O36 O 0.87754 0.84444 0.1323 0.0
O37 O 0.79796 0.83476 0.1627 0.0
O38 O 0.89258 0.88857 0.11902 0.0
O39 O 0.8127 0.89382 0.14423 0.0
O40 O 0.81799 0.80847 0.15291 0.0
O41 O 0.82622 0.89748 0.08588 0.0
O42 O 0.8517 0.82684 0.08295 0.0
O43 O 0.76533 0.80686 0.11839 0.0
Sc44 Sc 0.14325 0.02204 0.09403 0.0
Sc45 Sc 0.16233 0.97238 0.11286 0.0
Sc46 Sc 0.21258 0.0471 0.116 0.0
O47 O 0.17275 0.01382 0.10781 0.0
C48 C 0.20049 0.06623 0.06736 0.0
C49 C 0.13429 0.96899 0.06355 0.0
C50 C 0.22695 0.00087 0.09527 0.0
C51 C 0.10383 0.96941 0.12706 0.0
C52 C 0.17183 0.07134 0.13168 0.0
C53 C 0.19778 0.00444 0.15864 0.0
O54 O 0.17355 0.05208 0.06986 0.0
O55 O 0.14418 0.95886 0.0785 0.0
O56 O 0.23458 0.02625 0.1016 0.0
O57 O 0.10958 0.9921 0.11615 0.0
O58 O 0.19614 0.07289 0.13169 0.0
O59 O 0.18006 0.9821 0.14752 0.0
O60 O 0.15101 0.05372 0.11936 0.0
O61 O 0.12058 0.95926 0.12749 0.0
O62 O 0.2107 0.02928 0.14965 0.0
O63 O 0.1324 0.99111 0.06719 0.0
O64 O 0.21798 0.06697 0.08247 0.0
O65 O 0.20186 0.97996 0.09811 0.0
Sc66 Sc 0.12002 0.98271 0.39115 0.0
Sc67 Sc 0.18999 0.03049 0.37395 0.0
Sc68 Sc 0.16437 0.95551 0.37429 0.0
O69 O 0.15821 0.98958 0.37965 0.0
C70 C 0.13125 0.94003 0.42215 0.0
C71 C 0.16382 0.03634 0.42158 0.0
C72 C 0.22525 0.0023 0.39423 0.0
C73 C 0.13584 0.03447 0.35671 0.0
C74 C 0.10014 0.93094 0.35621 0.0
C75 C 0.19305 0.99546 0.33017 0.0
O76 O 0.1183 0.95352 0.41714 0.0
O77 O 0.18486 0.04505 0.40767 0.0
O78 O 0.207 0.97661 0.38915 0.0
O79 O 0.11789 0.01174 0.367 0.0
O80 O 0.12241 0.92876 0.35847 0.0
O81 O 0.19778 0.01854 0.34013 0.0
O82 O 0.09696 0.94996 0.36632 0.0
O83 O 0.16266 0.0444 0.35792 0.0
O84 O 0.18103 0.97115 0.34017 0.0
O85 O 0.13939 0.01499 0.41723 0.0
O86 O 0.14888 0.93835 0.40854 0.0
O87 O 0.22152 0.02316 0.38978 0.0
Sc88 Sc 0.96843 0.1065 0.38494 0.0
Sc89 Sc 0.93945 0.14623 0.36265 0.0
Sc90 Sc 0.0138 0.17895 0.37287 0.0
O91 O 0.97408 0.14404 0.37342 0.0
C92 C 0.01373 0.14971 0.42114 0.0
C93 C 0.91579 0.10956 0.40749 0.0
C94 C 0.97752 0.20753 0.38649 0.0
C95 C 0.92355 0.08365 0.34501 0.0
C96 C 0.02721 0.13062 0.35701 0.0
C97 C 0.98512 0.18187 0.32466 0.0
O98 O 0.99221 0.12558 0.41614 0.0
O99 O 0.91869 0.13073 0.39569 0.0
O100 O 0.9995 0.20522 0.38979 0.0
O101 O 0.94496 0.08442 0.3547 0.0
O102 O 0.0331 0.15655 0.35628 0.0
O103 O 0.9595 0.16307 0.32978 0.0
O104 O 0.00553 0.11124 0.36755 0.0
O105 O 0.91682 0.10285 0.34829 0.0
O106 O 0.00602 0.19064 0.33885 0.0
O107 O 0.93006 0.09708 0.40355 0.0
O108 O 0.0248 0.17049 0.40687 0.0
O109 O 0.95577 0.18923 0.37525 0.0
Sc110 Sc 0.87606 0.86867 0.38112 0.0
Sc111 Sc 0.84572 0.79466 0.37583 0.0
Sc112 Sc 0.80201 0.8264 0.37477 0.0
O113 O 0.84123 0.82974 0.37726 0.0
C114 C 0.82962 0.87048 0.4152 0.0
C115 C 0.8874 0.83034 0.41714 0.0
C116 C 0.78532 0.76816 0.40106 0.0
C117 C 0.90296 0.8396 0.34975 0.0
C118 C 0.84133 0.88567 0.34787 0.0
C119 C 0.80342 0.78752 0.33392 0.0
O120 O 0.85437 0.88099 0.4061 0.0
O121 O 0.87112 0.80647 0.40725 0.0
O122 O 0.77911 0.78627 0.39317 0.0
O123 O 0.90208 0.86128 0.35709 0.0
O124 O 0.81743 0.86665 0.35608 0.0
O125 O 0.8207 0.7814 0.34414 0.0
O126 O 0.86465 0.88668 0.35289 0.0
O127 O 0.88416 0.81422 0.35504 0.0
O128 O 0.79525 0.80404 0.3425 0.0
O129 O 0.89112 0.85408 0.40954 0.0
O130 O 0.80774 0.84836 0.40725 0.0
O131 O 0.809 0.76949 0.39709 0.0
Sc132 Sc 0.02397 0.82918 0.8745 0.0
Sc133 Sc 0.94849 0.79771 0.87454 0.0
Sc134 Sc 0.99243 0.87147 0.88189 0.0
O135 O 0.98814 0.83261 0.87696 0.0
C136 C 0.041 0.87274 0.91519 0.0
C137 C 0.98173 0.77044 0.8998 0.0
C138 C 0.94228 0.83194 0.91704 0.0
C139 C 0.98438 0.79107 0.83302 0.0
C140 C 0.04387 0.88887 0.84829 0.0
C141 C 0.93653 0.84376 0.8502 0.0
O142 O 0.04025 0.85049 0.90711 0.0
O143 O 0.95948 0.7718 0.89537 0.0
O144 O 0.96287 0.85593 0.9104 0.0
O145 O 0.00885 0.80727 0.84209 0.0
O146 O 0.02165 0.88993 0.85355 0.0
O147 O 0.9301 0.81811 0.85413 0.0
O148 O 0.0488 0.86975 0.85622 0.0
O149 O 0.96075 0.78518 0.84269 0.0
O150 O 0.95881 0.86498 0.85845 0.0
O151 O 0.00635 0.78882 0.89257 0.0
O152 O 0.0268 0.88346 0.90645 0.0
O153 O 0.93437 0.8086 0.90614 0.0
Sc154 Sc 0.16227 0.18224 0.87162 0.0
Sc155 Sc 0.206 0.15164 0.86141 0.0
Sc156 Sc 0.14064 0.11255 0.88999 0.0
O157 O 0.16961 0.14888 0.87418 0.0
C158 C 0.1401 0.15922 0.92288 0.0
C159 C 0.22848 0.21422 0.88257 0.0
C160 C 0.1997 0.11978 0.90849 0.0
C161 C 0.19104 0.18307 0.82257 0.0
C162 C 0.10042 0.12979 0.86171 0.0
C163 C 0.15885 0.08708 0.84862 0.0
O164 O 0.14621 0.17736 0.90665 0.0
O165 O 0.23222 0.19527 0.87273 0.0
O166 O 0.17258 0.10715 0.90784 0.0
O167 O 0.17824 0.19137 0.83641 0.0
O168 O 0.10525 0.11305 0.87384 0.0
O169 O 0.18455 0.10777 0.8481 0.0
O170 O 0.11922 0.15579 0.858 0.0
O171 O 0.19996 0.1662 0.82848 0.0
O172 O 0.13979 0.08688 0.86157 0.0
O173 O 0.20404 0.21177 0.88546 0.0
O174 O 0.13884 0.13534 0.91983 0.0
O175 O 0.21569 0.13871 0.89395 0.0
Sc176 Sc 0.78309 0.95512 0.87685 0.0
Sc177 Sc 0.83479 0.02923 0.87647 0.0
Sc178 Sc 0.85125 0.98019 0.9015 0.0
O179 O 0.82306 0.98816 0.88475 0.0
C180 C 0.79262 0.93778 0.92717 0.0
C181 C 0.77067 0.00398 0.8943 0.0
C182 C 0.8621 0.03676 0.92689 0.0
C183 C 0.79844 0.99414 0.83196 0.0
C184 C 0.82334 0.92884 0.86546 0.0
C185 C 0.8925 0.02959 0.8659 0.0
O186 O 0.77612 0.9373 0.91128 0.0
O187 O 0.79614 0.02417 0.89121 0.0
O188 O 0.86088 0.01271 0.92694 0.0
O189 O 0.7856 0.97 0.84201 0.0
O190 O 0.84401 0.94677 0.87782 0.0
O191 O 0.87544 0.03885 0.8618 0.0
O192 O 0.79947 0.92813 0.86391 0.0
O193 O 0.81605 0.01713 0.84231 0.0
O194 O 0.88658 0.00909 0.87985 0.0
O195 O 0.76212 0.97813 0.88878 0.0
O196 O 0.81965 0.95127 0.92551 0.0
O197 O 0.85495 0.04639 0.90958 0.0
Sc198 Sc 0.83581 0.03997 0.61709 0.0
Sc199 Sc 0.80884 0.96484 0.61599 0.0
Sc200 Sc 0.87983 0.01238 0.60112 0.0
O201 O 0.84136 0.00565 0.61155 0.0
C202 C 0.87101 0.05689 0.57052 0.0
C203 C 0.77536 0.99465 0.59555 0.0
C204 C 0.83702 0.96069 0.56866 0.0
C205 C 0.80512 0.99922 0.66019 0.0
C206 C 0.89913 0.06274 0.63689 0.0
C207 C 0.86116 0.95861 0.63422 0.0
O208 O 0.85167 0.057 0.583 0.0
O209 O 0.77884 0.97342 0.59884 0.0
O210 O 0.86116 0.98224 0.57343 0.0
O211 O 0.81872 0.02392 0.65092 0.0
O212 O 0.90166 0.04278 0.62785 0.0
O213 O 0.83452 0.94974 0.63313 0.0
O214 O 0.87792 0.06629 0.63295 0.0
O215 O 0.79945 0.97616 0.64963 0.0
O216 O 0.87967 0.98101 0.62391 0.0
O217 O 0.79325 0.0198 0.6022 0.0
O218 O 0.88454 0.04427 0.57648 0.0
O219 O 0.81574 0.95102 0.58244 0.0
Sc220 Sc 0.9828 0.81431 0.61747 0.0
Sc221 Sc 0.0569 0.84711 0.62854 0.0
Sc222 Sc 0.02825 0.88674 0.60531 0.0
O223 O 0.02247 0.84928 0.61719 0.0
C224 C 0.98329 0.84328 0.56901 0.0
C225 C 0.01937 0.78597 0.60443 0.0
C226 C 0.08109 0.88334 0.58349 0.0
C227 C 0.01064 0.81168 0.66619 0.0
C228 C 0.9693 0.86261 0.63305 0.0
C229 C 0.07294 0.91007 0.6454 0.0
O230 O 0.97206 0.82261 0.58334 0.0
O231 O 0.04075 0.80401 0.61618 0.0
O232 O 0.06675 0.89586 0.58696 0.0
O233 O 0.99008 0.80262 0.65164 0.0
O234 O 0.99102 0.88204 0.62256 0.0
O235 O 0.07948 0.89065 0.64261 0.0
O236 O 0.96337 0.83668 0.63377 0.0
O237 O 0.03631 0.83059 0.66135 0.0
O238 O 0.05162 0.90923 0.63548 0.0
O239 O 0.99753 0.78838 0.60071 0.0
O240 O 0.00473 0.86744 0.57406 0.0
O241 O 0.0781 0.86235 0.59561 0.0
Sc242 Sc 0.1974 0.16855 0.61551 0.0
Sc243 Sc 0.15319 0.19956 0.61329 0.0
Sc244 Sc 0.1237 0.12562 0.60885 0.0
O245 O 0.1581 0.16478 0.61252 0.0
C246 C 0.17093 0.12412 0.57562 0.0
C247 C 0.21364 0.22633 0.58853 0.0
C248 C 0.11187 0.16263 0.57201 0.0
C249 C 0.19553 0.20773 0.65556 0.0
C250 C 0.15809 0.10933 0.64252 0.0
C251 C 0.09626 0.1549 0.63959 0.0
O252 O 0.19232 0.14711 0.58294 0.0
O253 O 0.18936 0.22409 0.59133 0.0
O254 O 0.10905 0.13919 0.57949 0.0
O255 O 0.20323 0.19046 0.64781 0.0
O256 O 0.13497 0.10899 0.63813 0.0
O257 O 0.11531 0.18034 0.63475 0.0
O258 O 0.18188 0.12787 0.63375 0.0
O259 O 0.17887 0.21413 0.64463 0.0
O260 O 0.0969 0.13327 0.6318 0.0
O261 O 0.2204 0.20914 0.59761 0.0
O262 O 0.14628 0.11293 0.58502 0.0
O263 O 0.12712 0.18653 0.58221 0.0
Sc264 Sc 0.6769 0.49268 0.40343 0.0
Sc265 Sc 0.71434 0.53779 0.44997 0.0
Sc266 Sc 0.63897 0.5061 0.44605 0.0
O267 O 0.67678 0.51226 0.4332 0.0
C268 C 0.62627 0.50337 0.39132 0.0
C269 C 0.73295 0.55313 0.39688 0.0
C270 C 0.68072 0.57293 0.45072 0.0
C271 C 0.72289 0.48632 0.43432 0.0
C272 C 0.62443 0.44357 0.43238 0.0
C273 C 0.67321 0.51175 0.49319 0.0
O274 O 0.6488 0.50333 0.38532 0.0
O275 O 0.73725 0.55856 0.41849 0.0
O276 O 0.65584 0.55207 0.44597 0.0
O277 O 0.70498 0.47924 0.41778 0.0
O278 O 0.62106 0.45997 0.44643 0.0
O279 O 0.69729 0.52067 0.48355 0.0
O280 O 0.64206 0.45288 0.41551 0.0
O281 O 0.72895 0.50725 0.44781 0.0
O282 O 0.65113 0.50734 0.48196 0.0
O283 O 0.71177 0.53054 0.38893 0.0
O284 O 0.61927 0.50274 0.41249 0.0
O285 O 0.70264 0.57022 0.45376 0.0
Sc286 Sc 0.50709 0.17727 0.40314 0.0
Sc287 Sc 0.45959 0.16971 0.44753 0.0
Sc288 Sc 0.4898 0.12476 0.44554 0.0
O289 O 0.48547 0.1573 0.43213 0.0
C290 C 0.49456 0.11554 0.39098 0.0
C291 C 0.44793 0.17526 0.39412 0.0
C292 C 0.42306 0.10092 0.4472 0.0
C293 C 0.51316 0.22963 0.43365 0.0
C294 C 0.55347 0.17059 0.43361 0.0
C295 C 0.48294 0.15364 0.49191 0.0
O296 O 0.49501 0.13828 0.38485 0.0
O297 O 0.44057 0.17243 0.41536 0.0
O298 O 0.44388 0.09658 0.44341 0.0
O299 O 0.5216 0.21879 0.4181 0.0
O300 O 0.5359 0.1518 0.44777 0.0
O301 O 0.47537 0.16946 0.48154 0.0
O302 O 0.54544 0.17949 0.41626 0.0
O303 O 0.49078 0.21481 0.44575 0.0
O304 O 0.48672 0.13515 0.48135 0.0
O305 O 0.47112 0.17713 0.38725 0.0
O306 O 0.49471 0.10902 0.41219 0.0
O307 O 0.4262 0.12567 0.45058 0.0
Sc308 Sc 0.81751 0.32025 0.40593 0.0
Sc309 Sc 0.82846 0.28259 0.4505 0.0
Sc310 Sc 0.87116 0.35824 0.44702 0.0
O311 O 0.83902 0.32034 0.43457 0.0
C312 C 0.87816 0.37176 0.39238 0.0
C313 C 0.82238 0.26501 0.39682 0.0
C314 C 0.89706 0.31678 0.44804 0.0
C315 C 0.76716 0.27282 0.43773 0.0
C316 C 0.82197 0.3722 0.43643 0.0
C317 C 0.84534 0.32333 0.49441 0.0
O318 O 0.85486 0.3497 0.38685 0.0
O319 O 0.82409 0.26011 0.41822 0.0
O320 O 0.90028 0.34162 0.44482 0.0
O321 O 0.77694 0.29066 0.42108 0.0
O322 O 0.8431 0.37621 0.44909 0.0
O323 O 0.8307 0.29915 0.48477 0.0
O324 O 0.81213 0.35403 0.41994 0.0
O325 O 0.78307 0.2676 0.45071 0.0
O326 O 0.86171 0.34583 0.48305 0.0
O327 O 0.82099 0.28651 0.3897 0.0
O328 O 0.88608 0.3782 0.41338 0.0
O329 O 0.87291 0.29441 0.45158 0.0
Sc330 Sc 0.82035 0.33535 0.75641 0.0
Sc331 Sc 0.87157 0.37438 0.71372 0.0
Sc332 Sc 0.83714 0.29849 0.71536 0.0
O333 O 0.84307 0.33618 0.72837 0.0
C334 C 0.83105 0.28513 0.76991 0.0
C335 C 0.87905 0.3919 0.7675 0.0
C336 C 0.9046 0.33909 0.71744 0.0
C337 C 0.81795 0.38193 0.72344 0.0
C338 C 0.77383 0.28326 0.72524 0.0
C339 C 0.84954 0.335 0.66862 0.0
O340 O 0.82989 0.30718 0.77564 0.0
O341 O 0.88744 0.39664 0.74649 0.0
O342 O 0.88235 0.31439 0.71858 0.0
O343 O 0.80874 0.36359 0.73978 0.0
O344 O 0.79142 0.28072 0.7121 0.0
O345 O 0.86012 0.35905 0.67868 0.0
O346 O 0.78175 0.30047 0.74238 0.0
O347 O 0.84065 0.38864 0.712 0.0
O348 O 0.84124 0.31185 0.67965 0.0
O349 O 0.85586 0.37013 0.77369 0.0
O350 O 0.83144 0.27824 0.74885 0.0
O351 O 0.90408 0.36227 0.71474 0.0
Sc352 Sc 0.65994 0.48453 0.75517 0.0
Sc353 Sc 0.62288 0.49814 0.71164 0.0
Sc354 Sc 0.69892 0.53719 0.71368 0.0
O355 O 0.66052 0.50661 0.72673 0.0
C356 C 0.71162 0.54526 0.76834 0.0
C357 C 0.60516 0.49004 0.76535 0.0
C358 C 0.66045 0.56643 0.71412 0.0
C359 C 0.61222 0.43605 0.72241 0.0
C360 C 0.71113 0.48721 0.72475 0.0
C361 C 0.66256 0.51253 0.66694 0.0
O362 O 0.68961 0.52198 0.77405 0.0
O363 O 0.60066 0.49317 0.74415 0.0
O364 O 0.68466 0.56783 0.71527 0.0
O365 O 0.63016 0.44479 0.73905 0.0
O366 O 0.71541 0.50816 0.7119 0.0
O367 O 0.63841 0.50078 0.6769 0.0
O368 O 0.69327 0.47814 0.74143 0.0
O369 O 0.60684 0.45257 0.71036 0.0
O370 O 0.68588 0.52671 0.67796 0.0
O371 O 0.62639 0.4879 0.77198 0.0
O372 O 0.71862 0.55253 0.7473 0.0
O373 O 0.63668 0.54315 0.71204 0.0
Sc374 Sc 0.51294 0.17648 0.75346 0.0
Sc375 Sc 0.49847 0.12492 0.71049 0.0
Sc376 Sc 0.45909 0.16152 0.71279 0.0
O377 O 0.49021 0.1543 0.72547 0.0
C378 C 0.45263 0.1683 0.76725 0.0
C379 C 0.50653 0.11602 0.76441 0.0
C380 C 0.43017 0.0939 0.71406 0.0
C381 C 0.56097 0.17595 0.72091 0.0
C382 C 0.5098 0.22408 0.72216 0.0
C383 C 0.48273 0.14894 0.66585 0.0
O384 O 0.47615 0.16998 0.7727 0.0
O385 O 0.50354 0.10816 0.74326 0.0
O386 O 0.42861 0.11659 0.71549 0.0
O387 O 0.55244 0.18545 0.73745 0.0
O388 O 0.48808 0.20708 0.71008 0.0
O389 O 0.49544 0.1374 0.67563 0.0
O390 O 0.51959 0.21581 0.7387 0.0
O391 O 0.54412 0.15416 0.70886 0.0
O392 O 0.4684 0.15769 0.67709 0.0
O393 O 0.50892 0.13958 0.7708 0.0
O394 O 0.4446 0.16694 0.74632 0.0
O395 O 0.45347 0.09364 0.71125 0.0
Sc396 Sc 0.70061 0.16207 0.21316 0.0
Sc397 Sc 0.62454 0.12529 0.21204 0.0
Sc398 Sc 0.6626 0.17706 0.25462 0.0
O399 O 0.66253 0.15478 0.2265 0.0
C400 C 0.71439 0.16815 0.26761 0.0
C401 C 0.66184 0.09436 0.21511 0.0
C402 C 0.60788 0.1171 0.26597 0.0
C403 C 0.66339 0.1491 0.16679 0.0
C404 C 0.71324 0.22462 0.22314 0.0
C405 C 0.61449 0.17728 0.22203 0.0
O406 O 0.72095 0.16733 0.24654 0.0
O407 O 0.6381 0.09391 0.213 0.0
O408 O 0.62929 0.1406 0.27219 0.0
O409 O 0.6869 0.15847 0.17756 0.0
O410 O 0.6957 0.21632 0.24004 0.0
O411 O 0.60872 0.155 0.21033 0.0
O412 O 0.7173 0.2076 0.21054 0.0
O413 O 0.63943 0.1371 0.17705 0.0
O414 O 0.63268 0.18678 0.23849 0.0
O415 O 0.68613 0.11715 0.21569 0.0
O416 O 0.69254 0.16963 0.27345 0.0
O417 O 0.60294 0.109 0.2449 0.0
Sc418 Sc 0.83907 0.53846 0.21531 0.0
Sc419 Sc 0.87511 0.49847 0.21339 0.0
Sc420 Sc 0.82335 0.48448 0.256 0.0
O421 O 0.8459 0.50714 0.22813 0.0
C422 C 0.83315 0.54537 0.26987 0.0
C423 C 0.90678 0.56671 0.21715 0.0
C424 C 0.8827 0.48853 0.26727 0.0
C425 C 0.85158 0.51473 0.16846 0.0
C426 C 0.77619 0.48859 0.2248 0.0
C427 C 0.82281 0.4365 0.22275 0.0
O428 O 0.8344 0.55338 0.24894 0.0
O429 O 0.90695 0.54328 0.21502 0.0
O430 O 0.85956 0.48714 0.27355 0.0
O431 O 0.84219 0.52859 0.17959 0.0
O432 O 0.78427 0.4787 0.24137 0.0
O433 O 0.84495 0.45312 0.21096 0.0
O434 O 0.79339 0.5101 0.21268 0.0
O435 O 0.8637 0.50266 0.17839 0.0
O436 O 0.81357 0.44503 0.23949 0.0
O437 O 0.88415 0.56849 0.21771 0.0
O438 O 0.83088 0.52157 0.27529 0.0
O439 O 0.89081 0.49179 0.24617 0.0
Sc440 Sc 0.46183 0.29955 0.2128 0.0
Sc441 Sc 0.50239 0.37557 0.21109 0.0
Sc442 Sc 0.51615 0.33723 0.25338 0.0
O443 O 0.49349 0.33751 0.22564 0.0
C444 C 0.45556 0.28582 0.2672 0.0
C445 C 0.43414 0.33937 0.21531 0.0
C446 C 0.51229 0.39255 0.26508 0.0
C447 C 0.48496 0.33608 0.166 0.0
C448 C 0.51146 0.28607 0.22161 0.0
C449 C 0.56427 0.38499 0.22037 0.0
O450 O 0.44752 0.27941 0.24625 0.0
O451 O 0.45766 0.36279 0.21275 0.0
O452 O 0.51372 0.37076 0.2712 0.0
O453 O 0.47083 0.31287 0.17713 0.0
O454 O 0.52145 0.30382 0.23836 0.0
O455 O 0.54774 0.39071 0.20868 0.0
O456 O 0.49008 0.28217 0.20945 0.0
O457 O 0.49797 0.36023 0.17597 0.0
O458 O 0.55563 0.36696 0.23692 0.0
O459 O 0.43207 0.31484 0.21612 0.0
O460 O 0.47917 0.30753 0.27276 0.0
O461 O 0.50907 0.39761 0.24404 0.0
Sc462 Sc 0.48522 0.36298 0.94444 0.0
Sc463 Sc 0.4525 0.28735 0.94776 0.0
Sc464 Sc 0.5012 0.32548 0.90333 0.0
O465 O 0.47962 0.32521 0.93194 0.0
C466 C 0.49148 0.37641 0.88982 0.0
C467 C 0.41788 0.32133 0.94493 0.0
C468 C 0.44142 0.26959 0.89415 0.0
C469 C 0.47594 0.32801 0.99175 0.0
C470 C 0.54844 0.37748 0.93402 0.0
C471 C 0.50494 0.27881 0.93542 0.0
O472 O 0.49066 0.3831 0.91085 0.0
O473 O 0.41968 0.299 0.94867 0.0
O474 O 0.46438 0.2911 0.88714 0.0
O475 O 0.48185 0.35044 0.98039 0.0
O476 O 0.5402 0.35987 0.91712 0.0
O477 O 0.48324 0.27274 0.94799 0.0
O478 O 0.5312 0.38091 0.94698 0.0
O479 O 0.46668 0.30388 0.98209 0.0
O480 O 0.51308 0.29684 0.9189 0.0
O481 O 0.43952 0.3462 0.9418 0.0
O482 O 0.49221 0.35413 0.88419 0.0
O483 O 0.43452 0.26482 0.91549 0.0
Sc484 Sc 0.6302 0.12755 0.94578 0.0
Sc485 Sc 0.70569 0.17131 0.94872 0.0
Sc486 Sc 0.66718 0.18021 0.90376 0.0
O487 O 0.66773 0.15971 0.93283 0.0
C488 C 0.61689 0.11865 0.8912 0.0
C489 C 0.67221 0.10257 0.94797 0.0
C490 C 0.72323 0.17631 0.89524 0.0
C491 C 0.66545 0.15524 0.9927 0.0
C492 C 0.61488 0.17546 0.93399 0.0
C493 C 0.71392 0.23179 0.93489 0.0
O494 O 0.61018 0.11165 0.91231 0.0
O495 O 0.69424 0.1271 0.95113 0.0
O496 O 0.7019 0.17792 0.88798 0.0
O497 O 0.64302 0.13796 0.98164 0.0
O498 O 0.63246 0.18462 0.91708 0.0
O499 O 0.72028 0.21657 0.94767 0.0
O500 O 0.6118 0.15525 0.94738 0.0
O501 O 0.68937 0.17032 0.98281 0.0
O502 O 0.69554 0.22138 0.91863 0.0
O503 O 0.64719 0.09869 0.94432 0.0
O504 O 0.63888 0.14181 0.8853 0.0
O505 O 0.72786 0.17442 0.91666 0.0
Sc506 Sc 0.86636 0.5085 0.9472 0.0
Sc507 Sc 0.82204 0.53948 0.95116 0.0
Sc508 Sc 0.81371 0.4933 0.90529 0.0
O509 O 0.83405 0.51382 0.9346 0.0
C510 C 0.87504 0.50431 0.89246 0.0
C511 C 0.89083 0.57529 0.95092 0.0
C512 C 0.81738 0.55325 0.89782 0.0
C513 C 0.83863 0.51486 0.99456 0.0
C514 C 0.8184 0.44538 0.93485 0.0
C515 C 0.76182 0.48744 0.93655 0.0
O516 O 0.88214 0.50465 0.91356 0.0
O517 O 0.86614 0.57234 0.95415 0.0
O518 O 0.81616 0.53063 0.89019 0.0
O519 O 0.85611 0.51037 0.98316 0.0
O520 O 0.80929 0.45403 0.91807 0.0
O521 O 0.77687 0.50863 0.94977 0.0
O522 O 0.83864 0.46231 0.94835 0.0
O523 O 0.82305 0.52336 0.98503 0.0
O524 O 0.77243 0.48009 0.92005 0.0
O525 O 0.89504 0.55452 0.9464 0.0
O526 O 0.85204 0.50352 0.88666 0.0
O527 O 0.81886 0.55919 0.91936 0.0
Sc528 Sc 0.34128 0.82492 0.73633 0.0
Sc529 Sc 0.37873 0.87579 0.77964 0.0
Sc530 Sc 0.30268 0.83917 0.77771 0.0
O531 O 0.34096 0.84668 0.76468 0.0
C532 C 0.28985 0.83414 0.72309 0.0
C533 C 0.39677 0.88452 0.72597 0.0
C534 C 0.34166 0.90695 0.77635 0.0
C535 C 0.38837 0.82364 0.76952 0.0
C536 C 0.29003 0.77679 0.767 0.0
C537 C 0.33906 0.8518 0.82449 0.0
O538 O 0.31194 0.83305 0.71734 0.0
O539 O 0.4013 0.89221 0.74715 0.0
O540 O 0.31733 0.88419 0.7756 0.0
O541 O 0.37065 0.81465 0.75273 0.0
O542 O 0.28596 0.79356 0.77992 0.0
O543 O 0.36318 0.86392 0.81448 0.0
O544 O 0.30769 0.78546 0.75018 0.0
O545 O 0.39402 0.84568 0.78152 0.0
O546 O 0.31572 0.84233 0.81345 0.0
O547 O 0.37513 0.86146 0.71933 0.0
O548 O 0.28285 0.83433 0.74414 0.0
O549 O 0.36539 0.90736 0.77846 0.0
Sc550 Sc 0.17936 0.5148 0.73567 0.0
Sc551 Sc 0.12783 0.50277 0.77788 0.0
Sc552 Sc 0.16268 0.46168 0.77749 0.0
O553 O 0.15658 0.4931 0.76377 0.0
C554 C 0.16914 0.45355 0.72315 0.0
C555 C 0.12001 0.5108 0.72382 0.0
C556 C 0.09521 0.43431 0.77563 0.0
C557 C 0.1806 0.56426 0.76731 0.0
C558 C 0.22585 0.51056 0.76778 0.0
C559 C 0.15084 0.48753 0.82348 0.0
O560 O 0.17095 0.47697 0.71715 0.0
O561 O 0.11161 0.50761 0.74481 0.0
O562 O 0.11752 0.432 0.77462 0.0
O563 O 0.1901 0.55498 0.75132 0.0
O564 O 0.20836 0.48986 0.78049 0.0
O565 O 0.1401 0.50047 0.81286 0.0
O566 O 0.21807 0.51991 0.7506 0.0
O567 O 0.15807 0.54819 0.77888 0.0
O568 O 0.15881 0.47198 0.81308 0.0
O569 O 0.14347 0.51264 0.71786 0.0
O570 O 0.16811 0.44625 0.74427 0.0
O571 O 0.09565 0.45803 0.77781 0.0
Sc572 Sc 0.48562 0.66236 0.73654 0.0
Sc573 Sc 0.49961 0.6245 0.7791 0.0
Sc574 Sc 0.53993 0.70053 0.77703 0.0
O575 O 0.50837 0.66239 0.76433 0.0
C576 C 0.54641 0.71314 0.72239 0.0
C577 C 0.48958 0.60687 0.72532 0.0
C578 C 0.5679 0.66098 0.77527 0.0
C579 C 0.43765 0.61515 0.76986 0.0
C580 C 0.49055 0.71411 0.76761 0.0
C581 C 0.51635 0.66435 0.82395 0.0
O582 O 0.52273 0.69138 0.71702 0.0
O583 O 0.49335 0.60223 0.74634 0.0
O584 O 0.56979 0.68541 0.77428 0.0
O585 O 0.44621 0.63327 0.75338 0.0
O586 O 0.51174 0.71793 0.77996 0.0
O587 O 0.50362 0.64015 0.81404 0.0
O588 O 0.48065 0.69627 0.75093 0.0
O589 O 0.45418 0.60915 0.78127 0.0
O590 O 0.53059 0.68754 0.8128 0.0
O591 O 0.48755 0.6283 0.71915 0.0
O592 O 0.55439 0.72012 0.74331 0.0
O593 O 0.54443 0.63748 0.77777 0.0
Sc594 Sc 0.49684 0.67953 0.08675 0.0
Sc595 Sc 0.5453 0.71723 0.04204 0.0
Sc596 Sc 0.5118 0.64156 0.0453 0.0
O597 O 0.51798 0.67948 0.05793 0.0
C598 C 0.50562 0.62782 0.09987 0.0
C599 C 0.55725 0.73463 0.0957 0.0
C600 C 0.57926 0.68261 0.04441 0.0
C601 C 0.49369 0.72681 0.05498 0.0
C602 C 0.44888 0.62799 0.05614 0.0
C603 C 0.52121 0.67672 -0.00196 0.0
O604 O 0.50496 0.6501 0.10565 0.0
O605 O 0.56374 0.73955 0.0743 0.0
O606 O 0.55747 0.65785 0.04759 0.0
O607 O 0.48568 0.70893 0.07161 0.0
O608 O 0.46582 0.62409 0.04318 0.0
O609 O 0.5308 0.70089 0.00772 0.0
O610 O 0.45744 0.64578 0.07292 0.0
O611 O 0.51497 0.73235 0.04207 0.0
O612 O 0.51501 0.6542 0.00938 0.0
O613 O 0.53426 0.71326 0.10285 0.0
O614 O 0.50655 0.62135 0.0788 0.0
O615 O 0.57772 0.7051 0.04081 0.0
Sc616 Sc 0.32887 0.82236 0.08728 0.0
Sc617 Sc 0.29011 0.83178 0.0428 0.0
Sc618 Sc 0.3657 0.87521 0.04529 0.0
O619 O 0.32821 0.84313 0.0584 0.0
C620 C 0.38005 0.8837 0.09973 0.0
C621 C 0.27339 0.82689 0.09655 0.0
C622 C 0.32386 0.90054 0.04364 0.0
C623 C 0.28124 0.77103 0.05638 0.0
C624 C 0.38046 0.82664 0.05639 0.0
C625 C 0.32998 0.84766 -0.00147 0.0
O626 O 0.35828 0.8604 0.1057 0.0
O627 O 0.26832 0.82841 0.07517 0.0
O628 O 0.34891 0.90427 0.04689 0.0
O629 O 0.29956 0.78131 0.07269 0.0
O630 O 0.38399 0.84741 0.0435 0.0
O631 O 0.30604 0.83295 0.00849 0.0
O632 O 0.36273 0.81711 0.07319 0.0
O633 O 0.2753 0.78646 0.04347 0.0
O634 O 0.35259 0.86466 0.00953 0.0
O635 O 0.29496 0.82556 0.10361 0.0
O636 O 0.38609 0.8911 0.07861 0.0
O637 O 0.30169 0.87605 0.04074 0.0
Sc638 Sc 0.18387 0.50919 0.08671 0.0
Sc639 Sc 0.17507 0.46296 0.04068 0.0
Sc640 Sc 0.13112 0.49434 0.04491 0.0
O641 O 0.16333 0.48878 0.05738 0.0
C642 C 0.12246 0.49853 0.09956 0.0
C643 C 0.17969 0.4491 0.09411 0.0
C644 C 0.1063 0.42739 0.04109 0.0
C645 C 0.23551 0.51452 0.05526 0.0
C646 C 0.17965 0.55743 0.05725 0.0
C647 C 0.15858 0.48796 -0.00258 0.0
O648 O 0.14579 0.49999 0.10535 0.0
O649 O 0.17866 0.4435 0.07252 0.0
O650 O 0.10227 0.44833 0.04533 0.0
O651 O 0.22508 0.5216 0.07209 0.0
O652 O 0.15888 0.54059 0.04414 0.0
O653 O 0.17369 0.47874 0.00671 0.0
O654 O 0.18913 0.54871 0.07371 0.0
O655 O 0.22024 0.4938 0.0417 0.0
O656 O 0.14163 0.493 0.00904 0.0
O657 O 0.18052 0.47149 0.10188 0.0
O658 O 0.11508 0.4976 0.07848 0.0
O659 O 0.13093 0.4301 0.03806 0.0
Sc660 Sc 0.36299 0.4905 0.54476 0.0
Sc661 Sc 0.28766 0.46012 0.54135 0.0
Sc662 Sc 0.32636 0.50665 0.58678 0.0
O663 O 0.32564 0.48568 0.55758 0.0
C664 C 0.37629 0.49492 0.59945 0.0
C665 C 0.31994 0.42367 0.54156 0.0
C666 C 0.26975 0.44711 0.59484 0.0
C667 C 0.32845 0.48416 0.49761 0.0
C668 C 0.37892 0.55396 0.55674 0.0
C669 C 0.28046 0.51281 0.5556 0.0
O670 O 0.38284 0.49426 0.57833 0.0
O671 O 0.2983 0.42685 0.53857 0.0
O672 O 0.29141 0.46967 0.60228 0.0
O673 O 0.35058 0.48871 0.50885 0.0
O674 O 0.36126 0.54564 0.57359 0.0
O675 O 0.27395 0.49144 0.54252 0.0
O676 O 0.38201 0.53677 0.54343 0.0
O677 O 0.30447 0.47565 0.50732 0.0
O678 O 0.29847 0.52009 0.57207 0.0
O679 O 0.34514 0.44436 0.54568 0.0
O680 O 0.35439 0.49625 0.60528 0.0
O681 O 0.26501 0.44099 0.57335 0.0
Sc682 Sc 0.51197 0.87242 0.54553 0.0
Sc683 Sc 0.54305 0.82818 0.54114 0.0
Sc684 Sc 0.49548 0.81832 0.58634 0.0
O685 O 0.51687 0.83965 0.55762 0.0
C686 C 0.50638 0.87964 0.60017 0.0
C687 C 0.57892 0.89692 0.54282 0.0
C688 C 0.55544 0.82242 0.59467 0.0
C689 C 0.51894 0.84565 0.49786 0.0
C690 C 0.44838 0.82384 0.55629 0.0
C691 C 0.49112 0.76739 0.55447 0.0
O692 O 0.50823 0.88782 0.57925 0.0
O693 O 0.57614 0.87234 0.53934 0.0
O694 O 0.53276 0.82128 0.60209 0.0
O695 O 0.51393 0.86256 0.50958 0.0
O696 O 0.45641 0.81347 0.57258 0.0
O697 O 0.51224 0.78293 0.54137 0.0
O698 O 0.46575 0.84514 0.54392 0.0
O699 O 0.52791 0.83028 0.50706 0.0
O700 O 0.4835 0.7775 0.57116 0.0
O701 O 0.55795 0.90095 0.54684 0.0
O702 O 0.50412 0.85586 0.60557 0.0
O703 O 0.56168 0.82396 0.57319 0.0
Sc704 Sc 0.13189 0.64052 0.54453 0.0
Sc705 Sc 0.17435 0.71622 0.5419 0.0
Sc706 Sc 0.18479 0.67783 0.5862 0.0
O707 O 0.16372 0.67824 0.55745 0.0
C708 C 0.12399 0.62649 0.59903 0.0
C709 C 0.10572 0.6817 0.54389 0.0
C710 C 0.18013 0.73323 0.59561 0.0
C711 C 0.15812 0.67623 0.49762 0.0
C712 C 0.18063 0.62618 0.5554 0.0
C713 C 0.23541 0.72516 0.55466 0.0
O714 O 0.11673 0.62006 0.57792 0.0
O715 O 0.12982 0.70423 0.54055 0.0
O716 O 0.18183 0.71184 0.60252 0.0
O717 O 0.14164 0.65357 0.50873 0.0
O718 O 0.18986 0.64375 0.57232 0.0
O719 O 0.21977 0.7312 0.54207 0.0
O720 O 0.16008 0.62278 0.54228 0.0
O721 O 0.17266 0.70027 0.50749 0.0
O722 O 0.22547 0.70691 0.57102 0.0
O723 O 0.10266 0.65689 0.54685 0.0
O724 O 0.14695 0.64871 0.60493 0.0
O725 O 0.17818 0.7382 0.57429 0.0
Sc726 Sc 0.16368 0.7024 0.27687 0.0
Sc727 Sc 0.12692 0.62641 0.27878 0.0
Sc728 Sc 0.17801 0.66363 0.23562 0.0
O729 O 0.15618 0.6641 0.26386 0.0
C730 C 0.16944 0.71555 0.22236 0.0
C731 C 0.09593 0.66364 0.27554 0.0
C732 C 0.11806 0.6087 0.22499 0.0
C733 C 0.15114 0.66605 0.32362 0.0
C734 C 0.22612 0.71472 0.26652 0.0
C735 C 0.17826 0.61561 0.26835 0.0
O736 O 0.1687 0.72229 0.24338 0.0
O737 O 0.09555 0.63996 0.2778 0.0
O738 O 0.14124 0.63023 0.21841 0.0
O739 O 0.16041 0.68933 0.31258 0.0
O740 O 0.21752 0.69681 0.24986 0.0
O741 O 0.15654 0.61058 0.28051 0.0
O742 O 0.20928 0.71902 0.27916 0.0
O743 O 0.13908 0.6419 0.31364 0.0
O744 O 0.1875 0.63348 0.25167 0.0
O745 O 0.11869 0.68794 0.2746 0.0
O746 O 0.17073 0.69357 0.21663 0.0
O747 O 0.11036 0.60411 0.24617 0.0
Sc748 Sc 0.30019 0.46197 0.27625 0.0
Sc749 Sc 0.37608 0.50312 0.27882 0.0
Sc750 Sc 0.33809 0.51539 0.23522 0.0
O751 O 0.33822 0.49354 0.26355 0.0
C752 C 0.28801 0.45438 0.22146 0.0
C753 C 0.34043 0.43473 0.27549 0.0
C754 C 0.3946 0.51276 0.22531 0.0
C755 C 0.33589 0.48652 0.32335 0.0
C756 C 0.28547 0.51012 0.26533 0.0
C757 C 0.38434 0.56447 0.26841 0.0
O758 O 0.28066 0.44715 0.24246 0.0
O759 O 0.36368 0.4584 0.27824 0.0
O760 O 0.37312 0.51444 0.21869 0.0
O761 O 0.31286 0.47161 0.31213 0.0
O762 O 0.30304 0.51933 0.24844 0.0
O763 O 0.39073 0.54844 0.28013 0.0
O764 O 0.28259 0.49003 0.27866 0.0
O765 O 0.3601 0.49966 0.31353 0.0
O766 O 0.36618 0.55531 0.25191 0.0
O767 O 0.31585 0.43246 0.27394 0.0
O768 O 0.31016 0.47761 0.21591 0.0
O769 O 0.39885 0.50905 0.24644 0.0
Sc770 Sc 0.54024 0.83921 0.27767 0.0
Sc771 Sc 0.50022 0.87512 0.27885 0.0
Sc772 Sc 0.4883 0.82494 0.23539 0.0
O773 O 0.50953 0.84646 0.26409 0.0
C774 C 0.54932 0.8348 0.22319 0.0
C775 C 0.56866 0.90679 0.2766 0.0
C776 C 0.49255 0.88472 0.22509 0.0
C777 C 0.51489 0.85084 0.32397 0.0
C778 C 0.49116 0.77685 0.26636 0.0
C779 C 0.43871 0.82278 0.26743 0.0
O780 O 0.55573 0.83422 0.24436 0.0
O781 O 0.54519 0.90686 0.27891 0.0
O782 O 0.4907 0.86146 0.21853 0.0
O783 O 0.53003 0.84257 0.31334 0.0
O784 O 0.48283 0.78552 0.24908 0.0
O785 O 0.45469 0.84496 0.27945 0.0
O786 O 0.51127 0.79367 0.27988 0.0
O787 O 0.5023 0.86212 0.31361 0.0
O788 O 0.44805 0.81378 0.25109 0.0
O789 O 0.57046 0.8842 0.27547 0.0
O790 O 0.52647 0.83416 0.21705 0.0
O791 O 0.49562 0.89239 0.24627 0.0
H792 H 0.07707 0.13846 0.06181 0.0
H793 H 0.13394 0.20474 0.93631 0.0
H794 H 0.08489 0.21849 0.04003 0.0
H795 H 0.1316 0.1288 0.96288 0.0
H796 H 0.1199 0.21291 0.97476 0.0
H797 H 0.10122 0.1375 0.02655 0.0
C798 C 0.08404 0.15595 0.04957 0.0
C799 C 0.07864 0.17839 0.05362 0.0
C800 C 0.12272 0.19463 0.97216 0.0
C801 C 0.10616 0.17733 0.01296 0.0
C802 C 0.13068 0.1899 0.95022 0.0
C803 C 0.13355 0.16579 0.94625 0.0
C804 C 0.1176 0.1751 0.99017 0.0
C805 C 0.12926 0.14744 0.96497 0.0
C806 C 0.09792 0.15544 0.02944 0.0
C807 C 0.08858 0.20075 0.03743 0.0
N808 N 0.12132 0.15238 0.98602 0.0
N809 N 0.10156 0.19947 0.01754 0.0
H810 H 0.75624 0.84669 0.056 0.0
H811 H 0.79238 0.96937 0.96287 0.0
H812 H 0.81446 0.9366 0.06693 0.0
H813 H 0.7677 0.88295 0.94374 0.0
H814 H 0.78317 0.95486 0.00371 0.0
H815 H 0.74395 0.85778 0.01768 0.0
C816 C 0.7657 0.8688 0.05061 0.0
C817 C 0.78657 0.89083 0.06435 0.0
C818 C 0.77909 0.9389 0.99055 0.0
C819 C 0.77261 0.90349 0.02106 0.0
C820 C 0.78424 0.94712 0.96734 0.0
C821 C 0.78084 0.92723 0.95025 0.0
C822 C 0.77082 0.91067 -0.00338 0.0
C823 C 0.77048 0.89875 0.95664 0.0
C824 C 0.75883 0.87505 0.02878 0.0
C825 C 0.79848 0.91907 0.05664 0.0
N826 N 0.76618 0.89129 0.97952 0.0
N827 N 0.79148 0.92459 0.0354 0.0
H828 H 0.12861 0.99309 0.02407 0.0
H829 H 0.06233 0.85069 0.94754 0.0
H830 H 0.1193 0.91405 0.05049 0.0
H831 H 0.06022 0.92722 0.92963 0.0
H832 H 0.08919 0.87456 0.98295 0.0
H833 H 0.11013 0.97033 0.98684 0.0
C834 C 0.1226 0.97083 0.02205 0.0
C835 C 0.12495 0.95525 0.04058 0.0
C836 C 0.08294 0.88607 0.97114 0.0
C837 C 0.10361 0.92892 -0.00227 0.0
C838 C 0.06772 0.87254 0.95094 0.0
C839 C 0.05879 0.88692 0.93577 0.0
C840 C 0.08941 0.91416 0.97592 0.0
C841 C 0.06631 0.91517 0.94097 0.0
C842 C 0.11209 0.95785 0.0007 0.0
C843 C 0.11754 0.92671 0.03669 0.0
N844 N 0.08109 0.92778 0.9606 0.0
N845 N 0.10685 0.91428 0.01568 0.0
H846 H 0.20986 0.08649 0.43779 0.0
H847 H 0.13645 0.06909 0.56208 0.0
H848 H 0.12687 0.01717 0.45801 0.0
H849 H 0.21198 0.14721 0.5414 0.0
H850 H 0.13751 0.04747 0.5254 0.0
H851 H 0.21505 0.10744 0.47673 0.0
C852 C 0.19278 0.07572 0.45032 0.0
C853 C 0.16779 0.05017 0.44452 0.0
C854 C 0.15397 0.06932 0.52883 0.0
C855 C 0.17378 0.07366 0.48889 0.0
C856 C 0.15339 0.08168 0.54983 0.0
C857 C 0.1739 0.11013 0.55464 0.0
C858 C 0.17507 0.08554 0.51231 0.0
C859 C 0.19566 0.12523 0.53828 0.0
C860 C 0.19579 0.08763 0.4725 0.0
C861 C 0.14641 0.03703 0.46148 0.0
N862 N 0.19551 0.11283 0.51763 0.0
N863 N 0.14994 0.04891 0.4828 0.0
H864 H 0.85919 0.09691 0.5513 0.0
H865 H 0.8846 0.05584 0.42427 0.0
H866 H 0.89017 0.03926 0.53436 0.0
H867 H 0.90727 0.14304 0.43868 0.0
H868 H 0.86753 0.04299 0.46412 0.0
H869 H 0.86204 0.10925 0.50955 0.0
C870 C 0.86673 0.08705 0.53891 0.0
C871 C 0.87483 0.06733 0.54634 0.0
C872 C 0.87567 0.06483 0.45841 0.0
C873 C 0.87675 0.0802 0.49914 0.0
C874 C 0.88525 0.07211 0.4357 0.0
C875 C 0.89785 0.1006 0.42846 0.0
C876 C 0.87903 0.08622 0.47404 0.0
C877 C 0.89785 0.12085 0.44379 0.0
C878 C 0.86815 0.09395 0.51524 0.0
C879 C 0.88415 0.05492 0.52961 0.0
N880 N 0.88918 0.11341 0.46622 0.0
N881 N 0.88461 0.06139 0.50686 0.0
H882 H 0.93761 0.7951 0.55052 0.0
H883 H 0.93291 0.87669 0.43664 0.0
H884 H -0.00023 0.88271 0.53406 0.0
H885 H 0.87772 0.78577 0.4461 0.0
H886 H 0.95757 0.87858 0.47244 0.0
H887 H 0.91545 0.7905 0.51245 0.0
C888 C 0.94669 0.81333 0.53891 0.0
C889 C 0.97046 0.83944 0.54563 0.0
C890 C 0.94017 0.85815 0.4667 0.0
C891 C 0.94517 0.83425 0.50214 0.0
C892 C 0.92595 0.85705 0.44625 0.0
C893 C 0.90303 0.83104 0.43842 0.0
C894 C 0.93135 0.83311 0.47965 0.0
C895 C 0.89525 0.80628 0.45152 0.0
C896 C 0.93404 0.81064 0.51717 0.0
C897 C 0.98138 0.86223 0.52978 0.0
N898 N 0.90928 0.80796 0.47165 0.0
N899 N 0.96854 0.85914 0.50887 0.0
H900 H 0.87556 0.88331 0.03102 0.0
H901 H 0.90776 0.78636 0.94528 0.0
H902 H 0.86091 0.79985 0.05072 0.0
H903 H 0.94135 0.87709 0.93698 0.0
H904 H 0.88381 0.78781 0.98116 0.0
H905 H 0.89248 0.87783 0.9933 0.0
C906 C 0.87576 0.86374 0.02743 0.0
C907 C 0.86712 0.84216 0.04426 0.0
C908 C 0.89638 0.80731 0.97137 0.0
C909 C 0.88663 0.83582 0.00091 0.0
C910 C 0.90997 0.8065 0.95092 0.0
C911 C 0.92677 0.83169 0.93825 0.0
C912 C 0.89938 0.8334 0.9789 0.0
C913 C 0.92892 0.8572 0.94631 0.0
C914 C 0.8855 0.86066 0.00584 0.0
C915 C 0.86761 0.81716 0.03837 0.0
N916 N 0.9154 0.85737 0.96608 0.0
N917 N 0.87739 0.81472 0.01718 0.0
H918 H 0.18963 0.06779 0.92212 0.0
H919 H 0.23609 0.12126 0.05175 0.0
H920 H 0.23717 0.15705 0.94034 0.0
H921 H 0.18815 0.0333 0.02975 0.0
H922 H 0.24659 0.13584 0.01057 0.0
H923 H 0.20007 0.05567 0.96029 0.0
C924 C 0.20294 0.08484 0.93407 0.0
C925 C 0.21246 0.11333 0.92835 0.0
C926 C 0.23425 0.11334 0.01485 0.0
C927 C 0.22336 0.0998 0.97244 0.0
C928 C 0.22829 0.10512 0.03823 0.0
C929 C 0.21086 0.0762 0.04379 0.0
C930 C 0.22275 0.09233 -0.0027 0.0
C931 C 0.20127 0.05589 0.02595 0.0
C932 C 0.20878 0.07801 0.95592 0.0
C933 C 0.22956 0.13479 0.9443 0.0
N934 N 0.20713 0.06435 0.00352 0.0
N935 N 0.23393 0.12756 0.96596 0.0
H936 H 0.90435 0.09235 0.92915 0.0
H937 H 0.90348 0.10893 0.06592 0.0
H938 H 0.84605 0.02107 0.97165 0.0
H939 H 0.9819 0.13305 0.02914 0.0
H940 H 0.87663 0.08794 0.0297 0.0
H941 H 0.92761 0.11949 0.96475 0.0
C942 C 0.89611 0.08275 0.94599 0.0
C943 C 0.87349 0.05457 0.94771 0.0
C944 C 0.89974 0.09818 0.02965 0.0
C945 C 0.89928 0.08529 0.98791 0.0
C946 C 0.91497 0.11011 0.05013 0.0
C947 C 0.94476 0.12239 0.05032 0.0
C948 C 0.91463 0.09953 0.00929 0.0
C949 C 0.95886 0.12344 0.02958 0.0
C950 C 0.90939 0.09809 0.96613 0.0
C951 C 0.86361 0.04277 0.9698 0.0
N952 N 0.94364 0.11224 0.00976 0.0
N953 N 0.87656 0.05826 0.98916 0.0
H954 H 0.78624 0.84885 0.44767 0.0
H955 H 0.87402 0.98202 0.53233 0.0
H956 H 0.86724 0.92359 0.43136 0.0
H957 H 0.79264 0.90971 0.5519 0.0
H958 H 0.86957 0.96107 0.49436 0.0
H959 H 0.78565 0.87112 0.48476 0.0
C960 C 0.8037 0.87002 0.45174 0.0
C961 C 0.82699 0.88426 0.4365 0.0
C962 C 0.8526 0.94965 0.50686 0.0
C963 C 0.82647 0.90963 0.47873 0.0
C964 C 0.85519 0.96158 0.52871 0.0
C965 C 0.83381 0.94745 0.54552 0.0
C966 C 0.82852 0.92319 0.50158 0.0
C967 C 0.80971 0.92124 0.53951 0.0
C968 C 0.80339 0.88263 0.47292 0.0
C969 C 0.84903 0.91161 0.44266 0.0
N970 N 0.80778 0.9098 0.518 0.0
N971 N 0.84826 0.92327 0.46329 0.0
H972 H 0.11599 0.93747 0.56894 0.0
H973 H 0.13262 0.89297 0.43983 0.0
H974 H 0.08752 0.84972 0.55117 0.0
H975 H 0.12652 0.96674 0.45981 0.0
H976 H 0.12904 0.87956 0.48138 0.0
H977 H 0.13605 0.95192 0.53006 0.0
C978 C 0.1146 0.92134 0.55694 0.0
C979 C 0.09976 0.8924 0.56298 0.0
C980 C 0.12869 0.89873 0.47648 0.0
C981 C 0.12168 0.90855 0.5183 0.0
C982 C 0.13059 0.90627 0.45291 0.0
C983 C 0.12914 0.93056 0.44645 0.0
C984 C 0.12627 0.9162 0.4934 0.0
C985 C 0.12694 0.9474 0.46396 0.0
C986 C 0.12587 0.92953 0.53474 0.0
C987 C 0.09876 0.87228 0.54698 0.0
N988 N 0.12561 0.93992 0.48654 0.0
N989 N 0.109 0.88066 0.52502 0.0
H990 H 0.06905 0.1154 0.5509 0.0
H991 H 0.05867 0.19819 0.44002 0.0
H992 H 0.11904 0.20727 0.54424 0.0
H993 H 0.99902 0.10945 0.45521 0.0
H994 H 0.08168 0.20247 0.47764 0.0
H995 H 0.04405 0.11327 0.51521 0.0
C996 C 0.07481 0.13519 0.54193 0.0
C997 C 0.09631 0.16157 0.55055 0.0
C998 C 0.06344 0.18215 0.47274 0.0
C999 C 0.06759 0.15922 0.50949 0.0
C1000 C 0.05031 0.17964 0.45126 0.0
C1001 C 0.02698 0.15334 0.44432 0.0
C1002 C 0.05328 0.15814 0.48727 0.0
C1003 C 0.01701 0.13012 0.45969 0.0
C1004 C 0.06039 0.13394 0.52155 0.0
C1005 C 0.10261 0.18648 0.53821 0.0
N1006 N 0.03033 0.13304 0.48034 0.0
N1007 N 0.0884 0.18468 0.51818 0.0
H1008 H 0.72646 0.56827 0.35314 0.0
H1009 H 0.84935 0.5486 0.31526 0.0
H1010 H 0.79045 0.5767 0.40234 0.0
H1011 H 0.81057 0.58063 0.26732 0.0
H1012 H 0.83404 0.56702 0.34759 0.0
H1013 H 0.76147 0.58203 0.32189 0.0
C1014 C 0.74823 0.57405 0.35742 0.0
C1015 C 0.75554 0.57089 0.38018 0.0
C1016 C 0.82956 0.57079 0.32999 0.0
C1017 C 0.79532 0.58551 0.34453 0.0
C1018 C 0.83818 0.56013 0.31154 0.0
C1019 C 0.83059 0.56251 0.28867 0.0
C1020 C 0.81249 0.5831 0.32554 0.0
C1021 C 0.81651 0.57801 0.28475 0.0
C1022 C 0.76824 0.58187 0.3396 0.0
C1023 C 0.78398 0.5787 0.38493 0.0
N1024 N 0.80715 0.587 0.30307 0.0
N1025 N 0.80267 0.58474 0.3671 0.0
H1026 H 0.4231 0.20794 0.40004 0.0
H1027 H 0.42099 0.22803 0.26321 0.0
H1028 H 0.43716 0.15784 0.34893 0.0
H1029 H 0.4528 0.29672 0.31329 0.0
H1030 H 0.40403 0.19356 0.29525 0.0
H1031 H 0.41073 0.23055 0.36864 0.0
C1032 C 0.42238 0.20082 0.3823 0.0
C1033 C 0.43159 0.18141 0.3769 0.0
C1034 C 0.41394 0.21616 0.29913 0.0
C1035 C 0.41749 0.20697 0.34123 0.0
C1036 C 0.42356 0.23585 0.28091 0.0
C1037 C 0.4389 0.26526 0.28569 0.0
C1038 C 0.41936 0.22605 0.32216 0.0
C1039 C 0.4416 0.27421 0.30892 0.0
C1040 C 0.41551 0.21385 0.36444 0.0
C1041 C 0.43055 0.17306 0.35368 0.0
N1042 N 0.43229 0.25465 0.32636 0.0
N1043 N 0.42406 0.18622 0.3366 0.0
H1044 H 0.77231 0.19162 0.26416 0.0
H1045 H 0.7885 0.20739 0.40157 0.0
H1046 H 0.70267 0.15203 0.31316 0.0
H1047 H 0.8424 0.27247 0.35241 0.0
H1048 H 0.76655 0.1736 0.36929 0.0
H1049 H 0.80619 0.20709 0.29665 0.0
C1050 C 0.76417 0.1854 0.28168 0.0
C1051 C 0.73467 0.17114 0.28609 0.0
C1052 C 0.78392 0.19499 0.36571 0.0
C1053 C 0.77318 0.1885 0.32308 0.0
C1054 C 0.79659 0.21419 0.3841 0.0
C1055 C 0.81686 0.2428 0.37948 0.0
C1056 C 0.79192 0.20454 0.34276 0.0
C1057 C 0.82647 0.25064 0.35656 0.0
C1058 C 0.78351 0.19428 0.30017 0.0
C1059 C 0.72527 0.16356 0.3091 0.0
N1060 N 0.81357 0.23172 0.33895 0.0
N1061 N 0.74449 0.1727 0.3268 0.0
H1062 H 0.87889 0.51809 0.84625 0.0
H1063 H 0.88718 0.38517 0.81335 0.0
H1064 H 0.90605 0.47718 0.89643 0.0
H1065 H 0.90323 0.44956 0.76194 0.0
H1066 H 0.8993 0.42082 0.84399 0.0
H1067 H 0.89291 0.49703 0.81491 0.0
C1068 C 0.88857 0.50535 0.85067 0.0
C1069 C 0.89093 0.49906 0.87398 0.0
C1070 C 0.90101 0.42742 0.826 0.0
C1071 C 0.90625 0.47425 0.83823 0.0
C1072 C 0.89411 0.40706 0.80852 0.0
C1073 C 0.89404 0.41444 0.78515 0.0
C1074 C 0.90693 0.45508 0.82007 0.0
C1075 C 0.90307 0.44305 0.77978 0.0
C1076 C 0.89659 0.49332 0.83277 0.0
C1077 C 0.90372 0.48249 0.8787 0.0
N1078 N 0.90838 0.46219 0.79716 0.0
N1079 N 0.91016 0.46999 0.86099 0.0
H1080 H 0.47784 0.36649 0.84361 0.0
H1081 H 0.61207 0.50577 0.81103 0.0
H1082 H 0.51912 0.43457 0.8938 0.0
H1083 H 0.5474 0.45844 0.75944 0.0
H1084 H 0.57603 0.4834 0.84152 0.0
H1085 H 0.49917 0.40153 0.81228 0.0
C1086 C 0.49075 0.38892 0.84802 0.0
C1087 C 0.49708 0.39759 0.87132 0.0
C1088 C 0.56947 0.47852 0.82351 0.0
C1089 C 0.52216 0.43765 0.83561 0.0
C1090 C 0.59006 0.49131 0.80612 0.0
C1091 C 0.5827 0.48371 0.78276 0.0
C1092 C 0.5416 0.45728 0.81751 0.0
C1093 C 0.55392 0.46485 0.77728 0.0
C1094 C 0.5029 0.40894 0.83014 0.0
C1095 C 0.51381 0.42694 0.87607 0.0
N1096 N 0.53453 0.4516 0.79459 0.0
N1097 N 0.52646 0.44585 0.85836 0.0
H1098 H 0.48925 0.10716 0.80966 0.0
H1099 H 0.62766 0.11331 0.84555 0.0
H1100 H 0.53789 0.08949 0.7597 0.0
H1101 H 0.55872 0.08752 0.89468 0.0
H1102 H 0.5931 0.09821 0.81373 0.0
H1103 H 0.51053 0.0934 0.84097 0.0
C1104 C 0.50376 0.0995 0.80528 0.0
C1105 C 0.51211 0.09974 0.78216 0.0
C1106 C 0.58538 0.09502 0.83148 0.0
C1107 C 0.53728 0.08496 0.81784 0.0
C1108 C 0.60513 0.10369 0.84964 0.0
C1109 C 0.59607 0.10211 0.87274 0.0
C1110 C 0.55655 0.08554 0.83645 0.0
C1111 C 0.56663 0.08931 0.8771 0.0
C1112 C 0.51592 0.09164 0.82314 0.0
C1113 C 0.53096 0.08964 0.77734 0.0
N1114 N 0.54798 0.08229 0.85909 0.0
N1115 N 0.54362 0.08347 0.79512 0.0
H1116 H 0.4793 0.10974 0.34506 0.0
H1117 H 0.6159 0.11003 0.3118 0.0
H1118 H 0.52333 0.08621 0.39519 0.0
H1119 H 0.54993 0.08933 0.26067 0.0
H1120 H 0.5801 0.0956 0.34257 0.0
H1121 H 0.5009 0.09639 0.31371 0.0
C1122 C 0.49283 0.10093 0.34947 0.0
C1123 C 0.4999 0.09951 0.37273 0.0
C1124 C 0.57324 0.09338 0.32461 0.0
C1125 C 0.52532 0.08501 0.337 0.0
C1126 C 0.5937 0.10165 0.30706 0.0
C1127 C 0.58586 0.10114 0.28374 0.0
C1128 C 0.54497 0.08548 0.3188 0.0
C1129 C 0.55683 0.09008 0.27848 0.0
C1130 C 0.50516 0.09329 0.33157 0.0
C1131 C 0.51744 0.08782 0.37748 0.0
N1132 N 0.53752 0.08346 0.29593 0.0
N1133 N 0.53025 0.08181 0.35975 0.0
H1134 H 0.88134 0.36181 0.34611 0.0
H1135 H 0.89109 0.50373 0.31307 0.0
H1136 H 0.90901 0.42994 0.39633 0.0
H1137 H 0.9067 0.45491 0.2618 0.0
H1138 H 0.90277 0.47997 0.3438 0.0
H1139 H 0.89545 0.39693 0.31478 0.0
C1140 C 0.89112 0.38426 0.35053 0.0
C1141 C 0.89369 0.39293 0.37384 0.0
C1142 C 0.9045 0.47504 0.32581 0.0
C1143 C 0.90912 0.43312 0.33813 0.0
C1144 C 0.89786 0.48863 0.30829 0.0
C1145 C 0.89776 0.48111 0.28492 0.0
C1146 C 0.91013 0.4531 0.31995 0.0
C1147 C 0.90658 0.46134 0.27963 0.0
C1148 C 0.89921 0.40432 0.33264 0.0
C1149 C 0.90658 0.42231 0.3786 0.0
N1150 N 0.91162 0.44739 0.29705 0.0
N1151 N 0.91309 0.44128 0.36089 0.0
H1152 H 0.63634 0.51873 0.34542 0.0
H1153 H 0.49661 0.38484 0.31075 0.0
H1154 H 0.56804 0.47521 0.39504 0.0
H1155 H 0.54517 0.45039 0.26019 0.0
H1156 H 0.51921 0.42006 0.34182 0.0
H1157 H 0.60157 0.49799 0.31382 0.0
C1158 C 0.61391 0.50547 0.34968 0.0
C1159 C 0.60514 0.49834 0.37288 0.0
C1160 C 0.52435 0.427 0.32392 0.0
C1161 C 0.56537 0.4739 0.33682 0.0
C1162 C 0.51143 0.40688 0.30619 0.0
C1163 C 0.51924 0.41472 0.28294 0.0
C1164 C 0.54591 0.45489 0.31837 0.0
C1165 C 0.53857 0.44352 0.27793 0.0
C1166 C 0.59404 0.49362 0.33162 0.0
C1167 C 0.57577 0.48116 0.3774 0.0
N1168 N 0.55189 0.46244 0.29556 0.0
N1169 N 0.55703 0.46886 0.35951 0.0
H1170 H 0.44969 0.15344 0.813 0.0
H1171 H 0.42914 0.27667 0.84957 0.0
H1172 H 0.41805 0.19161 0.76409 0.0
H1173 H 0.41828 0.2121 0.89909 0.0
H1174 H 0.41729 0.24211 0.81815 0.0
H1175 H 0.43146 0.16964 0.8449 0.0
C1176 C 0.43832 0.16468 0.80898 0.0
C1177 C 0.43589 0.17174 0.78595 0.0
C1178 C 0.41652 0.23513 0.83593 0.0
C1179 C 0.4155 0.19081 0.8223 0.0
C1180 C 0.42325 0.25487 0.85385 0.0
C1181 C 0.42506 0.24724 0.87682 0.0
C1182 C 0.41261 0.20799 0.84103 0.0
C1183 C 0.41723 0.21879 0.88154 0.0
C1184 C 0.42776 0.17379 0.82718 0.0
C1185 C 0.42064 0.186 0.78164 0.0
N1186 N 0.41223 0.20037 0.86369 0.0
N1187 N 0.41171 0.1958 0.79971 0.0
H1188 H 0.71596 0.15784 0.85034 0.0
H1189 H 0.84663 0.29642 0.81561 0.0
H1190 H 0.781 0.20746 0.90104 0.0
H1191 H 0.80569 0.22707 0.76645 0.0
H1192 H 0.828 0.26189 0.84741 0.0
H1193 H 0.75182 0.17847 0.81961 0.0
C1194 C 0.73802 0.17244 0.85503 0.0
C1195 C 0.74553 0.18138 0.87812 0.0
C1196 C 0.8238 0.2541 0.82966 0.0
C1197 C 0.7864 0.20575 0.84311 0.0
C1198 C 0.83435 0.27384 0.81152 0.0
C1199 C 0.82712 0.2646 0.78844 0.0
C1200 C 0.8052 0.22509 0.82466 0.0
C1201 C 0.81147 0.23511 0.78404 0.0
C1202 C 0.75852 0.1842 0.83751 0.0
C1203 C 0.77437 0.20019 0.88337 0.0
N1204 N 0.80027 0.21641 0.80203 0.0
N1205 N 0.79366 0.2125 0.86588 0.0
H1206 H 0.76964 0.57974 0.76553 0.0
H1207 H 0.78309 0.57646 0.90296 0.0
H1208 H 0.6992 0.54943 0.81375 0.0
H1209 H 0.83837 0.56753 0.85382 0.0
H1210 H 0.76173 0.58928 0.87087 0.0
H1211 H 0.80295 0.59746 0.79842 0.0
C1212 C 0.7612 0.57763 0.78296 0.0
C1213 C 0.73163 0.56247 0.78702 0.0
C1214 C 0.77926 0.58553 0.86727 0.0
C1215 C 0.76951 0.58278 0.82449 0.0
C1216 C 0.79159 0.57844 0.88557 0.0
C1217 C 0.81211 0.57047 0.88085 0.0
C1218 C 0.78783 0.58488 0.84432 0.0
C1219 C 0.82225 0.57313 0.85802 0.0
C1220 C 0.78022 0.58769 0.80169 0.0
C1221 C 0.72187 0.56043 0.80994 0.0
N1222 N 0.80967 0.57966 0.8405 0.0
N1223 N 0.74077 0.57006 0.82788 0.0
H1224 H 0.45424 0.90879 0.73249 0.0
H1225 H 0.48181 0.91295 0.59596 0.0
H1226 H 0.39107 0.89357 0.68004 0.0
H1227 H 0.51839 0.88162 0.64667 0.0
H1228 H 0.46138 0.9273 0.62767 0.0
H1229 H 0.48983 0.92034 0.7017 0.0
C1230 C 0.44816 0.90902 0.71456 0.0
C1231 C 0.41964 0.89993 0.70871 0.0
C1232 C 0.47462 0.91807 0.6318 0.0
C1233 C 0.46008 0.9131 0.67365 0.0
C1234 C 0.48644 0.91003 0.61376 0.0
C1235 C 0.50142 0.89563 0.61872 0.0
C1236 C 0.47825 0.9121 0.65489 0.0
C1237 C 0.50661 0.89227 0.64211 0.0
C1238 C 0.4684 0.91538 0.69705 0.0
C1239 C 0.41279 0.90023 0.68521 0.0
N1240 N 0.49472 0.9001 0.65936 0.0
N1241 N 0.43281 0.90636 0.66849 0.0
H1242 H 0.1195 0.63586 0.64521 0.0
H1243 H 0.11331 0.49621 0.67787 0.0
H1244 H 0.09355 0.5684 0.59455 0.0
H1245 H 0.09362 0.54225 0.72894 0.0
H1246 H 0.10086 0.51917 0.64701 0.0
H1247 H 0.10497 0.60039 0.67629 0.0
C1248 C 0.10999 0.61347 0.64064 0.0
C1249 C 0.10811 0.6051 0.6173 0.0
C1250 C 0.0984 0.52363 0.66497 0.0
C1251 C 0.0922 0.56456 0.65271 0.0
C1252 C 0.10551 0.51051 0.68257 0.0
C1253 C 0.10473 0.51758 0.70592 0.0
C1254 C 0.09141 0.54464 0.67079 0.0
C1255 C 0.09452 0.53625 0.71112 0.0
C1256 C 0.10166 0.59322 0.65838 0.0
C1257 C 0.09552 0.5758 0.61232 0.0
N1258 N 0.08905 0.54981 0.69365 0.0
N1259 N 0.0888 0.55665 0.6299 0.0
H1260 H 0.50514 0.6144 0.67964 0.0
H1261 H 0.36613 0.47994 0.64537 0.0
H1262 H 0.45725 0.54902 0.73049 0.0
H1263 H 0.43449 0.52286 0.59573 0.0
H1264 H 0.40085 0.50102 0.67698 0.0
H1265 H 0.48282 0.57888 0.64873 0.0
C1266 C 0.49053 0.59234 0.6843 0.0
C1267 C 0.48283 0.58462 0.70758 0.0
C1268 C 0.40842 0.50516 0.65918 0.0
C1269 C 0.45647 0.5441 0.67233 0.0
C1270 C 0.38858 0.49312 0.64113 0.0
C1271 C 0.39739 0.49997 0.61791 0.0
C1272 C 0.43709 0.52484 0.65396 0.0
C1273 C 0.42675 0.51709 0.61339 0.0
C1274 C 0.47778 0.57205 0.66666 0.0
C1275 C 0.46377 0.5558 0.71272 0.0
N1276 N 0.44546 0.52962 0.63126 0.0
N1277 N 0.45058 0.5367 0.69518 0.0
H1278 H 0.56978 0.7265 0.13989 0.0
H1279 H 0.5555 0.85285 0.1781 0.0
H1280 H 0.58223 0.79242 0.09121 0.0
H1281 H 0.58241 0.80981 0.22638 0.0
H1282 H 0.57372 0.83691 0.14606 0.0
H1283 H 0.58357 0.76097 0.1716 0.0
C1284 C 0.57637 0.74853 0.13585 0.0
C1285 C 0.57442 0.75661 0.11306 0.0
C1286 C 0.57643 0.83162 0.16369 0.0
C1287 C 0.58914 0.79584 0.14921 0.0
C1288 C 0.5659 0.84062 0.18198 0.0
C1289 C 0.56683 0.83201 0.20482 0.0
C1290 C 0.58714 0.81319 0.16827 0.0
C1291 C 0.58092 0.81657 0.20896 0.0
C1292 C 0.58424 0.76824 0.15393 0.0
C1293 C 0.58329 0.78537 0.10863 0.0
N1294 N 0.58978 0.80691 0.19077 0.0
N1295 N 0.5894 0.80381 0.12667 0.0
H1296 H 0.15424 0.70422 0.17658 0.0
H1297 H 0.28092 0.84556 0.14141 0.0
H1298 H 0.19349 0.77349 0.22599 0.0
H1299 H 0.21566 0.79463 0.09126 0.0
H1300 H 0.24575 0.82377 0.17252 0.0
H1301 H 0.17142 0.739 0.14493 0.0
C1302 C 0.16588 0.7268 0.18077 0.0
C1303 C 0.17303 0.736 0.20386 0.0
C1304 C 0.23881 0.81801 0.15467 0.0
C1305 C 0.19324 0.77583 0.16781 0.0
C1306 C 0.25891 0.83046 0.13693 0.0
C1307 C 0.2512 0.82147 0.11387 0.0
C1308 C 0.21119 0.79575 0.1493 0.0
C1309 C 0.22245 0.80196 0.1089 0.0
C1310 C 0.17557 0.74668 0.16271 0.0
C1311 C 0.18782 0.76549 0.20837 0.0
N1312 N 0.20361 0.78901 0.12657 0.0
N1313 N 0.1982 0.78438 0.19045 0.0
H1314 H 0.30064 0.45041 0.17607 0.0
H1315 H 0.15877 0.4347 0.13814 0.0
H1316 H 0.22989 0.42065 0.22388 0.0
H1317 H 0.21391 0.42582 0.08882 0.0
H1318 H 0.18001 0.42084 0.16935 0.0
H1319 H 0.26692 0.43345 0.14365 0.0
C1320 C 0.27794 0.43964 0.17975 0.0
C1321 C 0.26805 0.43751 0.20263 0.0
C1322 C 0.18687 0.42097 0.15163 0.0
C1323 C 0.22939 0.41863 0.16565 0.0
C1324 C 0.17471 0.42886 0.13382 0.0
C1325 C 0.18497 0.4318 0.11101 0.0
C1326 C 0.21011 0.41701 0.14664 0.0
C1327 C 0.20555 0.42394 0.10625 0.0
C1328 C 0.25866 0.42984 0.16124 0.0
C1329 C 0.23843 0.42302 0.20647 0.0
N1330 N 0.21814 0.41776 0.12406 0.0
N1331 N 0.22014 0.41487 0.18811 0.0
H1332 H 0.21205 0.42258 0.58949 0.0
H1333 H 0.19381 0.42022 0.72677 0.0
H1334 H 0.27674 0.43443 0.63936 0.0
H1335 H 0.15269 0.4484 0.67765 0.0
H1336 H 0.21062 0.4031 0.6943 0.0
H1337 H 0.17751 0.40932 0.62135 0.0
C1338 C 0.21866 0.42121 0.60702 0.0
C1339 C 0.24733 0.4301 0.61197 0.0
C1340 C 0.19716 0.41224 0.69074 0.0
C1341 C 0.2082 0.41513 0.64822 0.0
C1342 C 0.18749 0.42192 0.70923 0.0
C1343 C 0.17243 0.43633 0.70479 0.0
C1344 C 0.1914 0.41675 0.66781 0.0
C1345 C 0.1648 0.43795 0.68174 0.0
C1346 C 0.19902 0.41385 0.62516 0.0
C1347 C 0.25488 0.42816 0.63495 0.0
N1348 N 0.17474 0.42868 0.66405 0.0
N1349 N 0.23552 0.42131 0.65233 0.0
H1350 H 0.56923 0.84312 0.63879 0.0
H1351 H 0.54941 0.70022 0.67693 0.0
H1352 H 0.57836 0.78789 0.58973 0.0
H1353 H 0.58134 0.77107 0.72488 0.0
H1354 H 0.56747 0.73397 0.64458 0.0
H1355 H 0.58211 0.82137 0.67026 0.0
C1356 C 0.57495 0.82707 0.6346 0.0
C1357 C 0.57234 0.81691 0.61179 0.0
C1358 C 0.57129 0.74221 0.66219 0.0
C1359 C 0.58596 0.79119 0.64767 0.0
C1360 C 0.56084 0.72293 0.68065 0.0
C1361 C 0.56333 0.7329 0.70353 0.0
C1362 C 0.58351 0.77159 0.66666 0.0
C1363 C 0.57867 0.7625 0.70745 0.0
C1364 C 0.58227 0.81461 0.65255 0.0
C1365 C 0.58 0.79616 0.60717 0.0
N1366 N 0.58747 0.78085 0.68913 0.0
N1367 N 0.58559 0.78327 0.62509 0.0
H1368 H 0.16037 0.72522 0.64009 0.0
H1369 H 0.30189 0.85064 0.67765 0.0
H1370 H 0.2132 0.79096 0.59103 0.0
H1371 H 0.23183 0.80997 0.72615 0.0
H1372 H 0.26764 0.8344 0.64561 0.0
H1373 H 0.18183 0.75974 0.6717 0.0
C1374 C 0.17583 0.74723 0.63595 0.0
C1375 C 0.18542 0.75524 0.61307 0.0
C1376 C 0.25967 0.82972 0.66328 0.0
C1377 C 0.2108 0.7945 0.64908 0.0
C1378 C 0.27925 0.83887 0.68157 0.0
C1379 C 0.26967 0.83105 0.7045 0.0
C1380 C 0.23043 0.81191 0.66797 0.0
C1381 C 0.24011 0.81615 0.70867 0.0
C1382 C 0.1881 0.76695 0.65398 0.0
C1383 C 0.20539 0.78396 0.60852 0.0
N1384 N 0.22152 0.80631 0.69051 0.0
N1385 N 0.21815 0.80242 0.62649 0.0
H1386 H 0.08988 0.52388 0.09493 0.0
H1387 H 0.09288 0.55114 0.23143 0.0
H1388 H 0.11933 0.48596 0.14604 0.0
H1389 H 0.10953 0.61465 0.17898 0.0
H1390 H 0.08105 0.51549 0.20063 0.0
H1391 H 0.07556 0.54456 0.12644 0.0
C1392 C 0.09239 0.51901 0.11276 0.0
C1393 C 0.10628 0.50358 0.11789 0.0
C1394 C 0.08639 0.53702 0.19597 0.0
C1395 C 0.08985 0.52708 0.15386 0.0
C1396 C 0.09291 0.55731 0.21349 0.0
C1397 C 0.1025 0.58592 0.20766 0.0
C1398 C 0.089 0.5454 0.17257 0.0
C1399 C 0.1025 0.59285 0.18415 0.0
C1400 C 0.08436 0.53098 0.1307 0.0
C1401 C 0.10909 0.4981 0.14133 0.0
N1402 N 0.09621 0.57279 0.16741 0.0
N1403 N 0.10131 0.51016 0.15848 0.0
H1404 H 0.47923 0.56975 0.09528 0.0
H1405 H 0.45212 0.54592 0.23188 0.0
H1406 H 0.51808 0.63712 0.14637 0.0
H1407 H 0.3889 0.49812 0.1794 0.0
H1408 H 0.48776 0.5699 0.20109 0.0
H1409 H 0.45832 0.5348 0.12681 0.0
C1410 C 0.4842 0.57712 0.11311 0.0
C1411 C 0.50001 0.60645 0.11823 0.0
C1412 C 0.4663 0.55348 0.19642 0.0
C1413 C 0.47624 0.56659 0.15423 0.0
C1414 C 0.44603 0.53963 0.21394 0.0
C1415 C 0.41751 0.52027 0.20808 0.0
C1416 C 0.45798 0.54749 0.17301 0.0
C1417 C 0.41065 0.51316 0.18457 0.0
C1418 C 0.47211 0.55716 0.13106 0.0
C1419 C 0.50564 0.61475 0.14167 0.0
N1420 N 0.43067 0.52701 0.16785 0.0
N1421 N 0.49345 0.59494 0.15883 0.0
H1422 H 0.43806 0.91471 0.09484 0.0
H1423 H 0.46175 0.91163 0.2314 0.0
H1424 H 0.37111 0.88817 0.14603 0.0
H1425 H 0.50701 0.89261 0.17908 0.0
H1426 H 0.43909 0.92474 0.20053 0.0
H1427 H 0.47308 0.9284 0.12633 0.0
C1428 C 0.43083 0.91276 0.11268 0.0
C1429 C 0.40157 0.89982 0.11788 0.0
C1430 C 0.45469 0.91858 0.19591 0.0
C1431 C 0.44148 0.91549 0.15379 0.0
C1432 C 0.46778 0.9113 0.21348 0.0
C1433 C 0.48596 0.90067 0.20769 0.0
C1434 C 0.46027 0.91565 0.17253 0.0
C1435 C 0.49283 0.90038 0.1842 0.0
C1436 C 0.45082 0.92041 0.1306 0.0
C1437 C 0.39343 0.89767 0.14131 0.0
N1438 N 0.4797 0.90741 0.16743 0.0
N1439 N 0.41325 0.90504 0.15844 0.0
H1440 H 0.05018 0.11195 0.16541 0.0
H1441 H 0.19731 0.1295 0.12837 0.0
H1442 H 0.11926 0.19088 0.1384 0.0
H1443 H 0.13218 0.05662 0.1653 0.0
H1444 H 0.17474 0.15714 0.14046 0.0
H1445 H 0.08422 0.09613 0.17422 0.0
C1446 C 0.07265 0.12625 0.16185 0.0
C1447 C 0.08179 0.15254 0.15077 0.0
C1448 C 0.16594 0.13542 0.14664 0.0
C1449 C 0.12091 0.13423 0.16015 0.0
C1450 C 0.17906 0.11979 0.13996 0.0
C1451 C 0.16646 0.09083 0.14584 0.0
C1452 C 0.13993 0.1217 0.15897 0.0
C1453 C 0.14246 0.07896 0.16042 0.0
C1454 C 0.09215 0.11721 0.16685 0.0
C1455 C 0.11123 0.17033 0.14678 0.0
N1456 N 0.12964 0.09424 0.16609 0.0
N1457 N 0.12964 0.16054 0.15089 0.0
H1458 H 0.8814 0.94105 0.17624 0.0
H1459 H 0.89629 0.08883 0.13937 0.0
H1460 H 0.8151 0.94851 0.141 0.0
H1461 H 0.96376 0.07704 0.16718 0.0
H1462 H 0.86131 0.03988 0.15133 0.0
H1463 H 0.90546 0.99196 0.18535 0.0
C1464 C 0.87136 0.9533 0.17122 0.0
C1465 C 0.84634 0.94071 0.15782 0.0
C1466 C 0.88368 0.04831 0.15542 0.0
C1467 C 0.87448 0.99932 0.16706 0.0
C1468 C 0.90361 0.07631 0.14876 0.0
C1469 C 0.93293 0.08675 0.15203 0.0
C1470 C 0.89328 0.03088 0.16547 0.0
C1471 C 0.94134 0.06961 0.16407 0.0
C1472 C 0.88524 0.98245 0.17619 0.0
C1473 C 0.83432 0.95749 0.15149 0.0
N1474 N 0.9217 0.04244 0.17004 0.0
N1475 N 0.84891 0.98618 0.15562 0.0
H1476 H 0.92711 0.84215 0.13285 0.0
H1477 H 0.07193 0.99038 0.14599 0.0
H1478 H 0.93287 0.92318 0.14731 0.0
H1479 H 0.0699 0.91117 0.13104 0.0
H1480 H 0.02109 0.96363 0.15499 0.0
H1481 H 0.97876 0.86423 0.14015 0.0
C1482 C 0.93909 0.86435 0.13815 0.0
C1483 C 0.92588 0.88102 0.13911 0.0
C1484 C 0.03173 0.95193 0.1501 0.0
C1485 C 0.98468 0.90637 0.1473 0.0
C1486 C 0.06082 0.96725 0.14501 0.0
C1487 C 0.07503 0.95299 0.13746 0.0
C1488 C 0.01646 0.92211 0.14713 0.0
C1489 C 0.05967 0.92298 0.13674 0.0
C1490 C 0.96857 0.87698 0.14219 0.0
C1491 C 0.94235 0.90969 0.14597 0.0
N1492 N 0.03103 0.90852 0.14101 0.0
N1493 N 0.97085 0.92149 0.14953 0.0
H1494 H 0.08604 0.16031 0.35559 0.0
H1495 H 0.08501 0.01482 0.33434 0.0
H1496 H 0.01234 0.08071 0.33515 0.0
H1497 H 0.16061 0.09281 0.35479 0.0
H1498 H 0.0615 0.0421 0.32529 0.0
H1499 H 0.11663 0.13983 0.34662 0.0
C1500 C 0.07643 0.13886 0.34856 0.0
C1501 C 0.04665 0.12198 0.34645 0.0
C1502 C 0.08342 0.05346 0.33134 0.0
C1503 C 0.08121 0.0984 0.33641 0.0
C1504 C 0.09688 0.03784 0.33642 0.0
C1505 C 0.12463 0.05154 0.34561 0.0
C1506 C 0.09754 0.08296 0.336 0.0
C1507 C 0.13913 0.08144 0.3478 0.0
C1508 C 0.09383 0.12711 0.34358 0.0
C1509 C 0.0352 0.09428 0.3374 0.0
N1510 N 0.12517 0.09611 0.34356 0.0
N1511 N 0.05242 0.08327 0.33302 0.0
H1512 H 0.86544 0.05106 0.34931 0.0
H1513 H 0.87929 0.91731 0.31398 0.0
H1514 H 0.93764 0.05448 0.31442 0.0
H1515 H 0.80937 0.91166 0.35428 0.0
H1516 H 0.89252 0.96592 0.3028 0.0
H1517 H 0.83718 0.99983 0.34032 0.0
C1518 C 0.87494 0.04129 0.33887 0.0
C1519 C 0.90395 0.05685 0.33278 0.0
C1520 C 0.87386 0.95391 0.31366 0.0
C1521 C 0.87213 0.99837 0.3229 0.0
C1522 C 0.86622 0.92606 0.31994 0.0
C1523 C 0.84351 0.91063 0.33539 0.0
C1524 C 0.85913 0.96673 0.32333 0.0
C1525 C 0.82715 0.9229 0.34244 0.0
C1526 C 0.85892 0.01198 0.33396 0.0
C1527 C 0.91538 0.04312 0.3196 0.0
N1528 N 0.83574 0.95054 0.33686 0.0
N1529 N 0.89961 0.01461 0.31544 0.0
H1530 H 0.07608 0.9423 0.31971 0.0
H1531 H 0.92781 0.80617 0.35108 0.0
H1532 H 0.06734 0.87327 0.36288 0.0
H1533 H 0.93938 0.88532 0.32306 0.0
H1534 H 0.97796 0.82207 0.34236 0.0
H1535 H 0.02645 0.91279 0.30727 0.0
C1536 C 0.06395 0.92042 0.3258 0.0
C1537 C 0.07561 0.91014 0.34237 0.0
C1538 C 0.96927 0.83557 0.33751 0.0
C1539 C 0.01852 0.87673 0.3291 0.0
C1540 C 0.94058 0.82644 0.34233 0.0
C1541 C 0.92958 0.84473 0.33819 0.0
C1542 C 0.98689 0.86303 0.32834 0.0
C1543 C 0.94714 0.87077 0.32691 0.0
C1544 C 0.03555 0.90368 0.31889 0.0
C1545 C 0.05905 0.88184 0.34999 0.0
N1546 N 0.97502 0.87932 0.32272 0.0
N1547 N 0.031 0.86628 0.34374 0.0
H1548 H 0.94571 0.89106 0.82597 0.0
H1549 H 0.85053 0.93795 0.82415 0.0
H1550 H 0.8783 0.81049 0.85196 0.0
H1551 H 0.81001 0.87514 0.87818 0.0
H1552 H 0.87314 0.91147 0.8095 0.0
H1553 H 0.91118 0.90682 0.82023 0.0
C1554 C 0.92338 0.87627 0.82964 0.0
C1555 C 0.91494 0.84955 0.83966 0.0
C1556 C 0.859 0.90317 0.82435 0.0
C1557 C 0.87499 0.86751 0.83335 0.0
C1558 C 0.8457 0.918 0.83241 0.0
C1559 C 0.82841 0.90853 0.85228 0.0
C1560 C 0.85556 0.8792 0.83673 0.0
C1561 C 0.82308 0.88291 0.86268 0.0
C1562 C 0.9035 0.88523 0.82627 0.0
C1563 C 0.88574 0.83128 0.84419 0.0
N1564 N 0.837 0.86933 0.855 0.0
N1565 N 0.86695 0.84093 0.84166 0.0
H1566 H 0.11394 0.06044 0.81945 0.0
H1567 H 0.03835 0.91699 0.81109 0.0
H1568 H 0.18268 0.05279 0.84969 0.0
H1569 H 0.1008 0.9186 0.85861 0.0
H1570 H 0.07246 0.96568 0.7993 0.0
H1571 H 0.09004 0.01045 0.80884 0.0
C1572 C 0.12455 0.04831 0.82294 0.0
C1573 C 0.15027 0.06067 0.83538 0.0
C1574 C 0.07893 0.95566 0.81234 0.0
C1575 C 0.12266 0.00258 0.82382 0.0
C1576 C 0.05954 0.92755 0.81872 0.0
C1577 C 0.06664 0.91399 0.83609 0.0
C1578 C 0.10518 0.97077 0.82422 0.0
C1579 C 0.09445 0.9284 0.84522 0.0
C1580 C 0.11084 0.01948 0.8169 0.0
C1581 C 0.16295 0.04402 0.83989 0.0
N1582 N 0.11245 0.95629 0.83964 0.0
N1583 N 0.14865 0.0156 0.83464 0.0
H1584 H 0.92419 0.08617 0.85356 0.0
H1585 H 0.06638 0.07622 0.84545 0.0
H1586 H 0.9277 0.00823 0.85667 0.0
H1587 H 0.06753 0.15552 0.85764 0.0
H1588 H 0.01507 0.05253 0.83864 0.0
H1589 H 0.9756 0.1127 0.84489 0.0
C1590 C 0.9356 0.07454 0.85184 0.0
C1591 C 0.92174 0.04498 0.8561 0.0
C1592 C 0.02649 0.0752 0.84246 0.0
C1593 C 0.98035 0.07513 0.84627 0.0
C1594 C 0.05582 0.08876 0.84629 0.0
C1595 C 0.0711 0.11776 0.85247 0.0
C1596 C 0.01208 0.09058 0.84516 0.0
C1597 C 0.05646 0.13309 0.853 0.0
C1598 C 0.96495 0.08972 0.84705 0.0
C1599 C 0.93759 0.03103 0.85381 0.0
N1600 N 0.02756 0.11917 0.84984 0.0
N1601 N 0.96603 0.04624 0.84924 0.0
H1602 H 0.98455 0.91091 0.65749 0.0
H1603 H 0.83439 0.90008 0.63634 0.0
H1604 H 0.91055 0.83448 0.63248 0.0
H1605 H 0.91187 0.97656 0.65626 0.0
H1606 H 0.85762 0.87197 0.64481 0.0
H1607 H 0.95422 0.93081 0.6674 0.0
C1608 C 0.96172 0.8981 0.65452 0.0
C1609 C 0.95003 0.87123 0.64388 0.0
C1610 C 0.86926 0.89481 0.64788 0.0
C1611 C 0.91517 0.8942 0.65451 0.0
C1612 C 0.85594 0.91082 0.64323 0.0
C1613 C 0.87143 0.94072 0.64527 0.0
C1614 C 0.89813 0.90889 0.6547 0.0
C1615 C 0.89933 0.9536 0.65411 0.0
C1616 C 0.94439 0.90948 0.66012 0.0
C1617 C 0.92033 0.85535 0.64061 0.0
N1618 N 0.91188 0.93767 0.65818 0.0
N1619 N 0.90393 0.86736 0.64541 0.0
H1620 H 0.1311 0.94213 0.64111 0.0
H1621 H 0.12052 0.07807 0.67676 0.0
H1622 H 0.05918 0.94035 0.67511 0.0
H1623 H 0.1887 0.08207 0.63503 0.0
H1624 H 0.10627 0.02905 0.68746 0.0
H1625 H 0.1599 0.99347 0.64965 0.0
C1626 C 0.12176 0.95229 0.65125 0.0
C1627 C 0.0927 0.93713 0.65728 0.0
C1628 C 0.12478 0.04078 0.67638 0.0
C1629 C 0.12517 0.99573 0.66667 0.0
C1630 C 0.13301 0.06887 0.67038 0.0
C1631 C 0.15554 0.084 0.65469 0.0
C1632 C 0.13875 0.02744 0.66625 0.0
C1633 C 0.17112 0.0711 0.6471 0.0
C1634 C 0.13809 0.98165 0.65589 0.0
C1635 C 0.08148 0.95137 0.67003 0.0
N1636 N 0.16198 0.04328 0.65246 0.0
N1637 N 0.09757 0.9799 0.67398 0.0
H1638 H 0.92433 0.05187 0.67296 0.0
H1639 H 0.0711 0.18807 0.63874 0.0
H1640 H 0.93119 0.12047 0.63021 0.0
H1641 H 0.06071 0.10937 0.66673 0.0
H1642 H 0.02121 0.17213 0.64862 0.0
H1643 H 0.97422 0.08178 0.6845 0.0
C1644 C 0.93611 0.07373 0.66676 0.0
C1645 C 0.92385 0.08372 0.65049 0.0
C1646 C 0.03012 0.15875 0.6532 0.0
C1647 C 0.98125 0.1176 0.66274 0.0
C1648 C 0.05865 0.1679 0.64771 0.0
C1649 C 0.06986 0.14973 0.65153 0.0
C1650 C 0.01289 0.13141 0.66273 0.0
C1651 C 0.05275 0.12381 0.66311 0.0
C1652 C 0.96467 0.09071 0.67316 0.0
C1653 C 0.93997 0.11207 0.64282 0.0
N1654 N 0.02502 0.11525 0.66798 0.0
N1655 N 0.96817 0.12784 0.64853 0.0
H1656 H 0.84251 0.42494 0.45777 0.0
H1657 H 0.7044 0.43242 0.4187 0.0
H1658 H 0.76758 0.35668 0.42475 0.0
H1659 H 0.77272 0.50034 0.45806 0.0
H1660 H 0.72767 0.40428 0.42262 0.0
H1661 H 0.81773 0.45273 0.46033 0.0
C1662 C 0.82084 0.41571 0.45132 0.0
C1663 C 0.80728 0.38867 0.44069 0.0
C1664 C 0.73768 0.42528 0.43053 0.0
C1665 C 0.77902 0.4201 0.4435 0.0
C1666 C 0.72439 0.44147 0.42819 0.0
C1667 C 0.73676 0.46894 0.43786 0.0
C1668 C 0.76382 0.43658 0.44245 0.0
C1669 C 0.7625 0.47927 0.45028 0.0
C1670 C 0.80676 0.43156 0.45272 0.0
C1671 C 0.77916 0.37766 0.43266 0.0
N1672 N 0.77538 0.46316 0.45205 0.0
N1673 N 0.76615 0.39343 0.43412 0.0
H1674 H 0.49816 0.26451 0.45766 0.0
H1675 H 0.63957 0.40582 0.41656 0.0
H1676 H 0.56661 0.26647 0.41744 0.0
H1677 H 0.57366 0.40966 0.45613 0.0
H1678 H 0.61354 0.35438 0.41972 0.0
H1679 H 0.52573 0.31695 0.46024 0.0
C1680 C 0.51902 0.27588 0.44955 0.0
C1681 C 0.52995 0.26102 0.43711 0.0
C1682 C 0.60459 0.36626 0.42779 0.0
C1683 C 0.56143 0.3208 0.44001 0.0
C1684 C 0.61946 0.39582 0.42591 0.0
C1685 C 0.60859 0.41218 0.43579 0.0
C1686 C 0.57833 0.35253 0.43953 0.0
C1687 C 0.58272 0.39785 0.44814 0.0
C1688 C 0.53468 0.30578 0.45099 0.0
C1689 C 0.55708 0.27688 0.42698 0.0
N1690 N 0.56826 0.36871 0.44949 0.0
N1691 N 0.57173 0.30576 0.42859 0.0
H1692 H 0.73417 0.22501 0.46479 0.0
H1693 H 0.5828 0.15911 0.46771 0.0
H1694 H 0.7284 0.28501 0.41868 0.0
H1695 H 0.59585 0.21246 0.40772 0.0
H1696 H 0.63486 0.18277 0.47274 0.0
H1697 H 0.68184 0.19791 0.4671 0.0
C1698 C 0.72195 0.2327 0.45542 0.0
C1699 C 0.73578 0.25722 0.44135 0.0
C1700 C 0.62631 0.18903 0.45834 0.0
C1701 C 0.67594 0.22654 0.44405 0.0
C1702 C 0.59653 0.17559 0.45553 0.0
C1703 C 0.58477 0.18365 0.43722 0.0
C1704 C 0.64428 0.21066 0.4427 0.0
C1705 C 0.60364 0.2053 0.42208 0.0
C1706 C 0.69201 0.21724 0.4568 0.0
C1707 C 0.71885 0.26611 0.42954 0.0
N1708 N 0.63223 0.21796 0.42523 0.0
N1709 N 0.68999 0.25071 0.43105 0.0
H1710 H 0.7613 0.36054 0.73054 0.0
H1711 H 0.7625 0.50597 0.70192 0.0
H1712 H 0.83642 0.4352 0.70435 0.0
H1713 H 0.6945 0.4326 0.7367 0.0
H1714 H 0.7881 0.47929 0.69699 0.0
H1715 H 0.73446 0.38524 0.72651 0.0
C1716 C 0.77214 0.38218 0.72382 0.0
C1717 C 0.80125 0.39603 0.71815 0.0
C1718 C 0.76749 0.46911 0.70556 0.0
C1719 C 0.7706 0.42474 0.7137 0.0
C1720 C 0.75289 0.48426 0.70834 0.0
C1721 C 0.72656 0.47164 0.72006 0.0
C1722 C 0.75537 0.44114 0.71432 0.0
C1723 C 0.71498 0.44343 0.72796 0.0
C1724 C 0.75678 0.39632 0.72151 0.0
C1725 C 0.81402 0.42386 0.70906 0.0
N1726 N 0.72947 0.42926 0.725 0.0
N1727 N 0.79866 0.43754 0.7074 0.0
H1728 H 0.56627 0.26061 0.72804 0.0
H1729 H 0.55961 0.40238 0.70166 0.0
H1730 H 0.48913 0.25756 0.70395 0.0
H1731 H 0.63166 0.39951 0.73106 0.0
H1732 H 0.53476 0.35006 0.69688 0.0
H1733 H 0.59194 0.31204 0.72329 0.0
C1734 C 0.55472 0.27085 0.72169 0.0
C1735 C 0.52542 0.25489 0.71679 0.0
C1736 C 0.5561 0.36103 0.70417 0.0
C1737 C 0.55476 0.31419 0.71148 0.0
C1738 C 0.57028 0.39081 0.70684 0.0
C1739 C 0.59752 0.40519 0.71711 0.0
C1740 C 0.56951 0.34585 0.71161 0.0
C1741 C 0.61046 0.38928 0.72348 0.0
C1742 C 0.56943 0.3003 0.71892 0.0
C1743 C 0.51171 0.26921 0.70808 0.0
N1744 N 0.59631 0.36057 0.72072 0.0
N1745 N 0.52645 0.29824 0.706 0.0
H1746 H 0.59289 0.156 0.69862 0.0
H1747 H 0.74421 0.23678 0.69588 0.0
H1748 H 0.59993 0.23046 0.73268 0.0
H1749 H 0.73235 0.29162 0.74373 0.0
H1750 H 0.69229 0.20935 0.68992 0.0
H1751 H 0.64512 0.18054 0.69559 0.0
C1752 C 0.6054 0.17766 0.70509 0.0
C1753 C 0.59205 0.19105 0.7162 0.0
C1754 C 0.70102 0.2272 0.70186 0.0
C1755 C 0.65172 0.21942 0.71263 0.0
C1756 C 0.73073 0.243 0.70515 0.0
C1757 C 0.74271 0.26633 0.72056 0.0
C1758 C 0.68336 0.23502 0.71404 0.0
C1759 C 0.72426 0.2736 0.73194 0.0
C1760 C 0.63529 0.19174 0.70332 0.0
C1761 C 0.60924 0.21906 0.72434 0.0
N1762 N 0.6957 0.25805 0.72845 0.0
N1763 N 0.63804 0.23212 0.72253 0.0
H1764 H 0.63636 0.23417 0.22709 0.0
H1765 H 0.48999 0.23247 0.20188 0.0
H1766 H 0.56039 0.15797 0.20416 0.0
H1767 H 0.56732 0.30399 0.22886 0.0
H1768 H 0.51578 0.20588 0.19717 0.0
H1769 H 0.61207 0.26122 0.22201 0.0
C1770 C 0.61447 0.22313 0.2209 0.0
C1771 C 0.60019 0.1937 0.21642 0.0
C1772 C 0.52705 0.2275 0.2039 0.0
C1773 C 0.57187 0.22462 0.21076 0.0
C1774 C 0.5124 0.24265 0.20653 0.0
C1775 C 0.52644 0.27025 0.21614 0.0
C1776 C 0.55587 0.24031 0.21072 0.0
C1777 C 0.55547 0.28255 0.22182 0.0
C1778 C 0.60056 0.23862 0.21795 0.0
C1779 C 0.57205 0.18064 0.20795 0.0
N1780 N 0.56908 0.26747 0.21914 0.0
N1781 N 0.55857 0.19614 0.2057 0.0
H1782 H 0.84182 0.40273 0.20238 0.0
H1783 H 0.69386 0.26132 0.23046 0.0
H1784 H 0.76652 0.40028 0.2304 0.0
H1785 H 0.76673 0.25797 0.20369 0.0
H1786 H 0.71945 0.31268 0.22539 0.0
H1787 H 0.81425 0.35039 0.19778 0.0
C1788 C 0.81946 0.39125 0.20726 0.0
C1789 C 0.80652 0.40574 0.21715 0.0
C1790 C 0.73 0.3009 0.22049 0.0
C1791 C 0.77509 0.34637 0.2119 0.0
C1792 C 0.71536 0.27149 0.22346 0.0
C1793 C 0.7284 0.25545 0.21786 0.0
C1794 C 0.7582 0.31471 0.21216 0.0
C1795 C 0.75604 0.26968 0.20836 0.0
C1796 C 0.8038 0.36146 0.20469 0.0
C1797 C 0.77753 0.38995 0.22313 0.0
N1798 N 0.77028 0.29869 0.2061 0.0
N1799 N 0.76293 0.36122 0.22054 0.0
H1800 H 0.73937 0.43229 0.23116 0.0
H1801 H 0.59831 0.4387 0.20163 0.0
H1802 H 0.74308 0.50908 0.20538 0.0
H1803 H 0.60042 0.36469 0.22717 0.0
H1804 H 0.65079 0.46403 0.19813 0.0
H1805 H 0.68819 0.40642 0.22505 0.0
C1806 C 0.72933 0.44375 0.22419 0.0
C1807 C 0.74541 0.473 0.21916 0.0
C1808 C 0.63963 0.44214 0.20423 0.0
C1809 C 0.68633 0.44336 0.21219 0.0
C1810 C 0.60976 0.42768 0.20614 0.0
C1811 C 0.59512 0.39975 0.21506 0.0
C1812 C 0.65466 0.42835 0.21112 0.0
C1813 C 0.61087 0.3864 0.22065 0.0
C1814 C 0.70001 0.4289 0.2206 0.0
C1815 C 0.73133 0.48655 0.20964 0.0
N1816 N 0.63969 0.40086 0.21873 0.0
N1817 N 0.7024 0.47167 0.20675 0.0
H1818 H 0.56354 0.1564 0.95742 0.0
H1819 H 0.5605 0.29887 0.92431 0.0
H1820 H 0.62958 0.22905 0.92047 0.0
H1821 H 0.48815 0.22655 0.9562 0.0
H1822 H 0.58759 0.2744 0.92754 0.0
H1823 H 0.53685 0.18222 0.96147 0.0
C1824 C 0.57248 0.17775 0.95033 0.0
C1825 C 0.59862 0.19039 0.93829 0.0
C1826 C 0.56582 0.26374 0.93394 0.0
C1827 C 0.56854 0.21992 0.94298 0.0
C1828 C 0.55028 0.27776 0.93207 0.0
C1829 C 0.52186 0.26458 0.93969 0.0
C1830 C 0.55292 0.23604 0.9433 0.0
C1831 C 0.51 0.23741 0.95001 0.0
C1832 C 0.55726 0.19241 0.9526 0.0
C1833 C 0.6093 0.21813 0.92951 0.0
N1834 N 0.5255 0.22382 0.95129 0.0
N1835 N 0.59423 0.23179 0.93198 0.0
H1836 H 0.69542 0.26786 0.92121 0.0
H1837 H 0.83708 0.41245 0.95777 0.0
H1838 H 0.76518 0.267 0.95711 0.0
H1839 H 0.7647 0.40701 0.92117 0.0
H1840 H 0.81096 0.35984 0.96105 0.0
H1841 H 0.72015 0.31943 0.92449 0.0
C1842 C 0.71601 0.27856 0.92984 0.0
C1843 C 0.72838 0.26306 0.93865 0.0
C1844 C 0.80089 0.37034 0.95243 0.0
C1845 C 0.7572 0.32268 0.94241 0.0
C1846 C 0.81573 0.40028 0.9506 0.0
C1847 C 0.80327 0.41412 0.93884 0.0
C1848 C 0.77342 0.35442 0.94262 0.0
C1849 C 0.7755 0.39736 0.92996 0.0
C1850 C 0.73018 0.30814 0.93177 0.0
C1851 C 0.75494 0.27817 0.95001 0.0
N1852 N 0.7617 0.36858 0.93197 0.0
N1853 N 0.76867 0.30726 0.95137 0.0
H1854 H 0.72621 0.43293 0.92242 0.0
H1855 H 0.58085 0.42915 0.95697 0.0
H1856 H 0.72615 0.50284 0.95873 0.0
H1857 H 0.58697 0.3618 0.92182 0.0
H1858 H 0.63336 0.45571 0.96104 0.0
H1859 H 0.6746 0.40568 0.92532 0.0
C1860 C 0.7153 0.44258 0.93106 0.0
C1861 C 0.73054 0.47036 0.94009 0.0
C1862 C 0.62304 0.43502 0.95259 0.0
C1863 C 0.6709 0.43911 0.94341 0.0
C1864 C 0.59315 0.41988 0.95031 0.0
C1865 C 0.57955 0.39346 0.93869 0.0
C1866 C 0.63916 0.42342 0.94333 0.0
C1867 C 0.59647 0.38234 0.93047 0.0
C1868 C 0.6857 0.42693 0.93278 0.0
C1869 C 0.71518 0.4815 0.95145 0.0
N1870 N 0.62522 0.39738 0.93287 0.0
N1871 N 0.68608 0.46593 0.95258 0.0
H1872 H 0.51156 0.76671 0.78901 0.0
H1873 H 0.36594 0.76673 0.76427 0.0
H1874 H 0.43528 0.69741 0.75846 0.0
H1875 H 0.44236 0.84237 0.78735 0.0
H1876 H 0.39002 0.73935 0.76863 0.0
H1877 H 0.48589 0.79328 0.7944 0.0
C1878 C 0.48942 0.75702 0.78366 0.0
C1879 C 0.47565 0.73005 0.77292 0.0
C1880 C 0.40165 0.7619 0.77288 0.0
C1881 C 0.44632 0.75995 0.77919 0.0
C1882 C 0.38786 0.77756 0.77037 0.0
C1883 C 0.40237 0.80693 0.77507 0.0
C1884 C 0.43041 0.77569 0.77984 0.0
C1885 C 0.43055 0.81975 0.78341 0.0
C1886 C 0.47484 0.77217 0.7867 0.0
C1887 C 0.44695 0.71837 0.76639 0.0
N1888 N 0.4439 0.80409 0.78521 0.0
N1889 N 0.43337 0.73341 0.76954 0.0
H1890 H 0.162 0.59823 0.78799 0.0
H1891 H 0.30887 0.73999 0.75789 0.0
H1892 H 0.23647 0.60089 0.75783 0.0
H1893 H 0.23688 0.74311 0.78704 0.0
H1894 H 0.28326 0.68856 0.76228 0.0
H1895 H 0.18941 0.65059 0.79211 0.0
C1896 C 0.18414 0.60975 0.78249 0.0
C1897 C 0.19686 0.59525 0.77222 0.0
C1898 C 0.27291 0.7003 0.76784 0.0
C1899 C 0.22813 0.65474 0.77692 0.0
C1900 C 0.28756 0.72977 0.76526 0.0
C1901 C 0.27478 0.7458 0.77175 0.0
C1902 C 0.24497 0.68641 0.77672 0.0
C1903 C 0.24737 0.73144 0.78168 0.0
C1904 C 0.19971 0.63958 0.78479 0.0
C1905 C 0.22558 0.61116 0.76544 0.0
N1906 N 0.23313 0.70238 0.7836 0.0
N1907 N 0.2401 0.63994 0.76781 0.0
H1908 H 0.40264 0.63712 0.76548 0.0
H1909 H 0.25784 0.49011 0.78935 0.0
H1910 H 0.4029 0.56083 0.78721 0.0
H1911 H 0.26395 0.56597 0.75888 0.0
H1912 H 0.31014 0.51637 0.7949 0.0
H1913 H 0.35112 0.61239 0.76993 0.0
C1914 C 0.39177 0.61509 0.77131 0.0
C1915 C 0.40695 0.60082 0.77559 0.0
C1916 C 0.29987 0.5272 0.78718 0.0
C1917 C 0.3476 0.57203 0.78046 0.0
C1918 C 0.27012 0.51228 0.78406 0.0
C1919 C 0.25667 0.52577 0.77329 0.0
C1920 C 0.31593 0.55576 0.77974 0.0
C1921 C 0.27346 0.55452 0.76683 0.0
C1922 C 0.36229 0.60093 0.77387 0.0
C1923 C 0.39186 0.57248 0.7836 0.0
N1924 N 0.30208 0.56843 0.77008 0.0
N1925 N 0.36282 0.55878 0.78545 0.0
H1926 H 0.36314 0.7714 0.06597 0.0
H1927 H 0.51 0.77793 0.03233 0.0
H1928 H 0.43374 0.84705 0.03599 0.0
H1929 H 0.43907 0.70855 0.06828 0.0
H1930 H 0.4819 0.80229 0.02894 0.0
H1931 H 0.38984 0.7467 0.06195 0.0
C1932 C 0.38439 0.78288 0.05851 0.0
C1933 C 0.39642 0.81153 0.05168 0.0
C1934 C 0.47256 0.78165 0.03742 0.0
C1935 C 0.42751 0.78315 0.04709 0.0
C1936 C 0.48851 0.76773 0.0393 0.0
C1937 C 0.477 0.74133 0.05086 0.0
C1938 C 0.44491 0.76885 0.04696 0.0
C1939 C 0.44906 0.72906 0.05955 0.0
C1940 C 0.39968 0.76868 0.05616 0.0
C1941 C 0.42378 0.825 0.04161 0.0
N1942 N 0.43414 0.74293 0.05747 0.0
N1943 N 0.43864 0.81077 0.03985 0.0
H1944 H 0.2307 0.73639 0.03293 0.0
H1945 H 0.23438 0.59522 0.06874 0.0
H1946 H 0.29816 0.73418 0.07149 0.0
H1947 H 0.16022 0.59091 0.03633 0.0
H1948 H 0.25938 0.64667 0.06534 0.0
H1949 H 0.20586 0.6839 0.02986 0.0
C1950 C 0.24038 0.72495 0.04057 0.0
C1951 C 0.26643 0.73971 0.0527 0.0
C1952 C 0.23765 0.63468 0.05891 0.0
C1953 C 0.2383 0.68 0.04916 0.0
C1954 C 0.22326 0.60514 0.0609 0.0
C1955 C 0.19492 0.58868 0.05318 0.0
C1956 C 0.22374 0.64828 0.04925 0.0
C1957 C 0.18199 0.60284 0.04265 0.0
C1958 C 0.22617 0.69504 0.03886 0.0
C1959 C 0.27799 0.72381 0.06225 0.0
N1960 N 0.19643 0.63198 0.0412 0.0
N1961 N 0.26385 0.69498 0.06031 0.0
H1962 H 0.27033 0.50015 0.03043 0.0
H1963 H 0.41107 0.64496 0.06742 0.0
H1964 H 0.27212 0.56767 0.0719 0.0
H1965 H 0.41563 0.57543 0.03472 0.0
H1966 H 0.35956 0.61828 0.06396 0.0
H1967 H 0.32275 0.52842 0.02716 0.0
C1968 C 0.28167 0.52093 0.03868 0.0
C1969 C 0.26682 0.53143 0.05166 0.0
C1970 C 0.37164 0.60869 0.05747 0.0
C1971 C 0.32645 0.56374 0.04787 0.0
C1972 C 0.40119 0.62396 0.05947 0.0
C1973 C 0.41771 0.6122 0.05172 0.0
C1974 C 0.35813 0.58118 0.04776 0.0
C1975 C 0.40365 0.58518 0.04106 0.0
C1976 C 0.31153 0.53698 0.03685 0.0
C1977 C 0.28258 0.55847 0.06198 0.0
N1978 N 0.37452 0.57036 0.03961 0.0
N1979 N 0.3114 0.57356 0.05988 0.0
H1980 H 0.30006 0.56742 0.56983 0.0
H1981 H 0.16106 0.57454 0.53243 0.0
H1982 H 0.22998 0.49841 0.53276 0.0
H1983 H 0.23444 0.641 0.56846 0.0
H1984 H 0.1862 0.54716 0.52912 0.0
H1985 H 0.27672 0.59556 0.56628 0.0
C1986 C 0.27968 0.55815 0.5609 0.0
C1987 C 0.2668 0.53035 0.55184 0.0
C1988 C 0.19674 0.56784 0.53759 0.0
C1989 C 0.23962 0.56266 0.54774 0.0
C1990 C 0.18246 0.58346 0.53943 0.0
C1991 C 0.19548 0.60987 0.55106 0.0
C1992 C 0.22419 0.57894 0.54732 0.0
C1993 C 0.22326 0.6205 0.55975 0.0
C1994 C 0.26633 0.57431 0.55881 0.0
C1995 C 0.24059 0.51973 0.54008 0.0
N1996 N 0.23652 0.60498 0.55779 0.0
N1997 N 0.22765 0.53582 0.53857 0.0
H1998 H 0.50701 0.73264 0.53124 0.0
H1999 H 0.36197 0.59183 0.56756 0.0
H2000 H 0.43705 0.73075 0.56903 0.0
H2001 H 0.43178 0.58712 0.53559 0.0
H2002 H 0.38834 0.6432 0.56354 0.0
H2003 H 0.47925 0.68012 0.52833 0.0
C2004 C 0.48578 0.72126 0.53871 0.0
C2005 C 0.47445 0.7361 0.55062 0.0
C2006 C 0.3981 0.63115 0.55733 0.0
C2007 C 0.44276 0.67637 0.54729 0.0
C2008 C 0.38301 0.60166 0.55969 0.0
C2009 C 0.3949 0.58512 0.55229 0.0
C2010 C 0.42561 0.64465 0.54764 0.0
C2011 C 0.42195 0.59913 0.54168 0.0
C2012 C 0.47003 0.69134 0.5371 0.0
C2013 C 0.44688 0.7203 0.55997 0.0
N2014 N 0.43662 0.62825 0.53989 0.0
N2015 N 0.43214 0.69145 0.55815 0.0
H2016 H 0.41024 0.76819 0.56415 0.0
H2017 H 0.27047 0.77693 0.53304 0.0
H2018 H 0.41581 0.84539 0.53727 0.0
H2019 H 0.27144 0.70605 0.56678 0.0
H2020 H 0.32294 0.80111 0.52959 0.0
H2021 H 0.35883 0.74382 0.55992 0.0
C2022 C 0.40058 0.78008 0.55733 0.0
C2023 C 0.41734 0.80905 0.55145 0.0
C2024 C 0.31152 0.78019 0.53759 0.0
C2025 C 0.35788 0.78106 0.54664 0.0
C2026 C 0.28164 0.76636 0.5395 0.0
C2027 C 0.26659 0.73958 0.55047 0.0
C2028 C 0.3262 0.76691 0.5465 0.0
C2029 C 0.28209 0.72685 0.55852 0.0
C2030 C 0.3711 0.76608 0.55486 0.0
C2031 C 0.40361 0.82308 0.54216 0.0
N2032 N 0.3109 0.74063 0.55643 0.0
N2033 N 0.37451 0.80901 0.54029 0.0
H2034 H 0.24008 0.49463 0.29551 0.0
H2035 H 0.15896 0.56452 0.29165 0.0
H2036 H 0.29258 0.55856 0.24484 0.0
H2037 H 0.23238 0.63075 0.25559 0.0
H2038 H 0.1835 0.5369 0.29483 0.0
H2039 H 0.21283 0.51929 0.30105 0.0
C2040 C 0.24579 0.51372 0.28551 0.0
C2041 C 0.26847 0.52429 0.26949 0.0
C2042 C 0.19448 0.55767 0.28663 0.0
C2043 C 0.23733 0.55249 0.27554 0.0
C2044 C 0.1804 0.57344 0.28476 0.0
C2045 C 0.19348 0.5998 0.27307 0.0
C2046 C 0.22186 0.5686 0.27682 0.0
C2047 C 0.22122 0.61033 0.26441 0.0
C2048 C 0.2301 0.52774 0.28857 0.0
C2049 C 0.27511 0.54928 0.25717 0.0
N2050 N 0.23429 0.59463 0.26632 0.0
N2051 N 0.25966 0.56239 0.26048 0.0
H2052 H 0.50897 0.74418 0.29044 0.0
H2053 H 0.36367 0.60014 0.26031 0.0
H2054 H 0.43713 0.73885 0.25306 0.0
H2055 H 0.4374 0.59911 0.28804 0.0
H2056 H 0.38878 0.65174 0.26401 0.0
H2057 H 0.48192 0.69185 0.29542 0.0
C2058 C 0.48753 0.73207 0.28345 0.0
C2059 C 0.47544 0.7458 0.27101 0.0
C2060 C 0.39957 0.64037 0.26942 0.0
C2061 C 0.44452 0.68647 0.27682 0.0
C2062 C 0.38519 0.61083 0.26729 0.0
C2063 C 0.39866 0.59536 0.27351 0.0
C2064 C 0.42786 0.65483 0.27758 0.0
C2065 C 0.42635 0.61032 0.28292 0.0
C2066 C 0.47217 0.7023 0.28626 0.0
C2067 C 0.44756 0.72918 0.26238 0.0
N2068 N 0.44028 0.63939 0.28439 0.0
N2069 N 0.43318 0.70052 0.26541 0.0
H2070 H 0.25872 0.76669 0.28869 0.0
H2071 H 0.40327 0.76644 0.25918 0.0
H2072 H 0.26422 0.69803 0.2553 0.0
H2073 H 0.40372 0.84096 0.28676 0.0
H2074 H 0.35175 0.73948 0.26316 0.0
H2075 H 0.31112 0.7928 0.29317 0.0
C2076 C 0.27088 0.75703 0.28251 0.0
C2077 C 0.25716 0.73036 0.27129 0.0
C2078 C 0.36295 0.76169 0.26846 0.0
C2079 C 0.31663 0.7598 0.27646 0.0
C2080 C 0.39246 0.77714 0.26615 0.0
C2081 C 0.40775 0.80612 0.27228 0.0
C2082 C 0.34832 0.77526 0.27674 0.0
C2083 C 0.39265 0.81867 0.2817 0.0
C2084 C 0.3007 0.77193 0.28503 0.0
C2085 C 0.27386 0.71875 0.26367 0.0
N2086 N 0.36359 0.80323 0.28337 0.0
N2087 N 0.30258 0.73355 0.26632 0.0
H2088 H 0.94668 0.18 0.29284 0.0
H2089 H 0.05763 0.23046 0.19001 0.0
H2090 H 0.03697 0.21233 0.30306 0.0
H2091 H 0.96986 0.21005 0.18214 0.0
H2092 H 0.05284 0.23237 0.23205 0.0
H2093 H 0.95646 0.19784 0.25309 0.0
C2094 C 0.96859 0.19093 0.28673 0.0
C2095 C 0.99098 0.19416 0.3011 0.0
C2096 C 0.03481 0.22803 0.22109 0.0
C2097 C 0.00235 0.21468 0.25563 0.0
C2098 C 0.03755 0.22702 0.19705 0.0
C2099 C 0.01382 0.21917 0.1826 0.0
C2100 C 0.00812 0.22093 0.2306 0.0
C2101 C 0.98848 0.21535 0.19267 0.0
C2102 C 0.97421 0.20135 0.26408 0.0
C2103 C 0.01902 0.20906 0.29246 0.0
N2104 N 0.98613 0.2157 0.21611 0.0
N2105 N 0.02387 0.21839 0.27013 0.0
H2106 H 0.82944 0.76892 0.3032 0.0
H2107 H 0.76688 0.81476 0.19848 0.0
H2108 H 0.7596 0.78586 0.30908 0.0
H2109 H 0.83104 0.79013 0.18992 0.0
H2110 H 0.75862 0.79637 0.23797 0.0
H2111 H 0.82412 0.76709 0.26096 0.0
C2112 C 0.81248 0.77148 0.29567 0.0
C2113 C 0.79547 0.77841 0.3096 0.0
C2114 C 0.77435 0.79472 0.22745 0.0
C2115 C 0.78962 0.7768 0.26143 0.0
C2116 C 0.77927 0.80548 0.20494 0.0
C2117 C 0.80014 0.80455 0.19109 0.0
C2118 C 0.79074 0.78334 0.23638 0.0
C2119 C 0.81501 0.7916 0.20015 0.0
C2120 C 0.80956 0.77059 0.27153 0.0
C2121 C 0.7737 0.78126 0.29893 0.0
N2122 N 0.81034 0.78189 0.22242 0.0
N2123 N 0.77176 0.78099 0.27544 0.0
H2124 H 0.22503 0.04294 0.30346 0.0
H2125 H 0.17513 0.95572 0.18518 0.0
H2126 H 0.17747 0.95067 0.30018 0.0
H2127 H 0.23161 0.04717 0.18895 0.0
H2128 H 0.1797 0.95285 0.22717 0.0
H2129 H 0.23179 0.04447 0.26149 0.0
C2130 C 0.21622 0.02299 0.29396 0.0
C2131 C 0.20026 0.99665 0.30531 0.0
C2132 C 0.19134 0.97349 0.21875 0.0
C2133 C 0.20778 0.99826 0.25725 0.0
C2134 C 0.18869 0.97516 0.19477 0.0
C2135 C 0.20261 0.00179 0.18355 0.0
C2136 C 0.20784 0.99864 0.23158 0.0
C2137 C 0.22015 0.02621 0.19686 0.0
C2138 C 0.22015 0.02387 0.26998 0.0
C2139 C 0.18969 0.97148 0.29213 0.0
N2140 N 0.22199 0.02407 0.2202 0.0
N2141 N 0.19331 0.97292 0.26873 0.0
H2142 H 0.95809 0.78069 0.6867 0.0
H2143 H 0.02689 0.7876 0.81044 0.0
H2144 H 0.04828 0.81535 0.69965 0.0
H2145 H 0.94122 0.77275 0.80086 0.0
H2146 H 0.03067 0.78318 0.76862 0.0
H2147 H 0.94822 0.76463 0.72709 0.0
C2148 C 0.9758 0.78468 0.69795 0.0
C2149 C 0.00414 0.79991 0.68994 0.0
C2150 C 0.01086 0.78042 0.77571 0.0
C2151 C 0.99289 0.78136 0.73596 0.0
C2152 C 0.00866 0.7829 0.79957 0.0
C2153 C 0.984 0.78138 0.80902 0.0
C2154 C 0.98836 0.77663 0.76122 0.0
C2155 C 0.96079 0.77454 0.79423 0.0
C2156 C 0.97011 0.77544 0.72096 0.0
C2157 C 0.02618 0.80421 0.70521 0.0
N2158 N 0.96375 0.77301 0.7709 0.0
N2159 N 0.02009 0.79519 0.72756 0.0
H2160 H 0.1695 0.22759 0.68502 0.0
H2161 H 0.23081 0.18473 0.79259 0.0
H2162 H 0.2389 0.20976 0.68129 0.0
H2163 H 0.16554 0.20824 0.79857 0.0
H2164 H 0.23962 0.20213 0.7528 0.0
H2165 H 0.17432 0.23059 0.7273 0.0
C2166 C 0.18627 0.22508 0.69303 0.0
C2167 C 0.20327 0.21754 0.67973 0.0
C2168 C 0.22351 0.20374 0.76282 0.0
C2169 C 0.20854 0.22049 0.72793 0.0
C2170 C 0.21826 0.19352 0.7855 0.0
C2171 C 0.19695 0.19444 0.79871 0.0
C2172 C 0.20701 0.21455 0.7531 0.0
C2173 C 0.1819 0.20677 0.78884 0.0
C2174 C 0.18889 0.22663 0.71719 0.0
C2175 C 0.2248 0.21481 0.69097 0.0
N2176 N 0.18692 0.21597 0.76644 0.0
N2177 N 0.22646 0.21573 0.71448 0.0
H2178 H 0.81731 0.04153 0.80434 0.0
H2179 H 0.77611 0.95131 0.68734 0.0
H2180 H 0.76852 0.94923 0.80225 0.0
H2181 H 0.81612 0.0434 0.68958 0.0
H2182 H 0.76867 0.94985 0.72926 0.0
H2183 H 0.81287 0.04252 0.76221 0.0
C2184 C 0.80549 0.02147 0.79506 0.0
C2185 C 0.79364 0.99525 0.80682 0.0
C2186 C 0.77878 0.97035 0.72052 0.0
C2187 C 0.78858 0.99623 0.75859 0.0
C2188 C 0.78307 0.9712 0.69657 0.0
C2189 C 0.79721 0.99755 0.68495 0.0
C2190 C 0.7889 0.99602 0.73292 0.0
C2191 C 0.80546 0.0226 0.69781 0.0
C2192 C 0.80289 0.02205 0.771 0.0
C2193 C 0.77825 0.96995 0.7939 0.0
N2194 N 0.80149 0.02122 0.72115 0.0
N2195 N 0.77646 0.97107 0.77044 0.0
H2196 H 0.61746 0.48797 0.6365 0.0
H2197 H 0.71646 0.52325 0.52395 0.0
H2198 H 0.70968 0.53047 0.63902 0.0
H2199 H 0.62564 0.49202 0.52088 0.0
H2200 H 0.71359 0.52092 0.56628 0.0
H2201 H 0.61949 0.48462 0.59431 0.0
C2202 C 0.63815 0.49654 0.62823 0.0
C2203 C 0.66347 0.50971 0.64138 0.0
C2204 C 0.69427 0.51446 0.55634 0.0
C2205 C 0.66587 0.50583 0.593 0.0
C2206 C 0.69585 0.51569 0.53213 0.0
C2207 C 0.67128 0.50804 0.51877 0.0
C2208 C 0.66793 0.50546 0.56733 0.0
C2209 C 0.64518 0.49832 0.53043 0.0
C2210 C 0.63927 0.49461 0.6041 0.0
C2211 C 0.68962 0.52032 0.62963 0.0
N2212 N 0.64423 0.49744 0.55404 0.0
N2213 N 0.69013 0.5182 0.60611 0.0
H2214 H 0.4601 0.17416 0.63851 0.0
H2215 H 0.48149 0.19372 0.52002 0.0
H2216 H 0.50875 0.13065 0.63468 0.0
H2217 H 0.49213 0.11966 0.52222 0.0
H2218 H 0.48363 0.19595 0.56221 0.0
H2219 H 0.4616 0.17791 0.59641 0.0
C2220 C 0.47143 0.16568 0.62884 0.0
C2221 C 0.4844 0.15215 0.64024 0.0
C2222 C 0.48502 0.1789 0.55356 0.0
C2223 C 0.48693 0.15711 0.59178 0.0
C2224 C 0.4841 0.17778 0.52937 0.0
C2225 C 0.48616 0.15617 0.5175 0.0
C2226 C 0.48772 0.15808 0.56608 0.0
C2227 C 0.49016 0.13652 0.53062 0.0
C2228 C 0.47257 0.16815 0.60471 0.0
C2229 C 0.49853 0.14136 0.62668 0.0
N2230 N 0.49068 0.13788 0.55425 0.0
N2231 N 0.49926 0.14394 0.60314 0.0
H2232 H 0.81583 0.27956 0.52527 0.0
H2233 H 0.86991 0.37992 0.63795 0.0
H2234 H 0.87136 0.37115 0.52214 0.0
H2235 H 0.82395 0.28763 0.64056 0.0
H2236 H 0.86726 0.37748 0.59553 0.0
H2237 H 0.81517 0.28261 0.56752 0.0
C2238 C 0.82782 0.30036 0.53342 0.0
C2239 C 0.84382 0.32513 0.52005 0.0
C2240 C 0.85772 0.35778 0.6054 0.0
C2241 C 0.84313 0.32871 0.56859 0.0
C2242 C 0.85917 0.35914 0.62965 0.0
C2243 C 0.84726 0.33393 0.64291 0.0
C2244 C 0.84417 0.33105 0.5943 0.0
C2245 C 0.83359 0.30764 0.63112 0.0
C2246 C 0.82746 0.30205 0.5576 0.0
C2247 C 0.85884 0.35146 0.53169 0.0
N2248 N 0.83246 0.3069 0.60751 0.0
N2249 N 0.85818 0.35254 0.5553 0.0
H2250 H 0.61833 0.12808 0.02099 0.0
H2251 H 0.71001 0.17759 0.13827 0.0
H2252 H 0.70961 0.18589 0.02298 0.0
H2253 H 0.61776 0.12755 0.13686 0.0
H2254 H 0.71015 0.18132 0.09598 0.0
H2255 H 0.61749 0.12837 0.06345 0.0
C2256 C 0.63817 0.14097 0.03031 0.0
C2257 C 0.66411 0.15683 0.01833 0.0
C2258 C 0.68987 0.16961 0.10493 0.0
C2259 C 0.66328 0.1571 0.06697 0.0
C2260 C 0.68977 0.1674 0.1291 0.0
C2261 C 0.66384 0.1521 0.14119 0.0
C2262 C 0.66387 0.15631 0.0927 0.0
C2263 C 0.63829 0.1395 0.12832 0.0
C2264 C 0.63766 0.14111 0.05457 0.0
C2265 C 0.68911 0.17322 0.0314 0.0
N2266 N 0.63897 0.14178 0.10478 0.0
N2267 N 0.68809 0.17277 0.05499 0.0
H2268 H 0.87267 0.49113 0.13754 0.0
H2269 H 0.80789 0.52707 0.02585 0.0
H2270 H 0.82262 0.53319 0.14087 0.0
H2271 H 0.86699 0.49535 0.02185 0.0
H2272 H 0.80928 0.52498 0.06818 0.0
H2273 H 0.86734 0.48847 0.09529 0.0
C2274 C 0.86051 0.49977 0.12944 0.0
C2275 C 0.84821 0.51256 0.14284 0.0
C2276 C 0.82185 0.51837 0.05803 0.0
C2277 C 0.84197 0.50947 0.09442 0.0
C2278 C 0.82101 0.51947 0.03382 0.0
C2279 C 0.83751 0.51156 0.02019 0.0
C2280 C 0.83925 0.50925 0.06876 0.0
C2281 C 0.85405 0.50183 0.0316 0.0
C2282 C 0.8575 0.49824 0.10529 0.0
C2283 C 0.83265 0.5233 0.13129 0.0
N2284 N 0.85458 0.50106 0.05521 0.0
N2285 N 0.83001 0.52154 0.10777 0.0
H2286 H 0.49806 0.37602 0.0192 0.0
H2287 H 0.46395 0.28854 0.13826 0.0
H2288 H 0.46186 0.28444 0.02279 0.0
H2289 H 0.50747 0.38076 0.13502 0.0
H2290 H 0.46349 0.28682 0.0959 0.0
H2291 H 0.50214 0.37835 0.06154 0.0
C2292 C 0.49102 0.3564 0.02884 0.0
C2293 C 0.47947 0.32997 0.01735 0.0
C2294 C 0.47325 0.30744 0.10445 0.0
C2295 C 0.48406 0.33253 0.06588 0.0
C2296 C 0.47349 0.30846 0.12867 0.0
C2297 C 0.48565 0.33485 0.14029 0.0
C2298 C 0.48512 0.33297 0.09165 0.0
C2299 C 0.49781 0.35992 0.12686 0.0
C2300 C 0.4934 0.35777 0.05304 0.0
C2301 C 0.47084 0.3053 0.03083 0.0
N2302 N 0.49711 0.35835 0.10325 0.0
N2303 N 0.4732 0.30719 0.05436 0.0
H2304 H 0.38429 0.87278 0.8548 0.0
H2305 H 0.28579 0.81687 0.96826 0.0
H2306 H 0.29197 0.82473 0.85276 0.0
H2307 H 0.37723 0.87375 0.97033 0.0
H2308 H 0.28812 0.81581 0.92595 0.0
H2309 H 0.38242 0.86967 0.89714 0.0
C2310 C 0.36361 0.86148 0.86321 0.0
C2311 C 0.33823 0.84915 0.85014 0.0
C2312 C 0.30768 0.82845 0.93567 0.0
C2313 C 0.336 0.84553 0.89869 0.0
C2314 C 0.3064 0.82904 0.95987 0.0
C2315 C 0.33135 0.84559 0.97294 0.0
C2316 C 0.33409 0.84446 0.9244 0.0
C2317 C 0.35742 0.86083 0.96101 0.0
C2318 C 0.36258 0.85975 0.88742 0.0
C2319 C 0.31209 0.83472 0.86208 0.0
N2320 N 0.35809 0.85996 0.93742 0.0
N2321 N 0.31166 0.83337 0.88568 0.0
H2322 H 0.13065 0.5086 0.97112 0.0
H2323 H 0.14163 0.52317 0.85136 0.0
H2324 H 0.18835 0.47536 0.9653 0.0
H2325 H 0.16762 0.45952 0.854 0.0
H2326 H 0.14571 0.52749 0.8934 0.0
H2327 H 0.12942 0.51109 0.92905 0.0
C2328 C 0.14346 0.50224 0.961 0.0
C2329 C 0.15965 0.49176 0.97186 0.0
C2330 C 0.15 0.51216 0.88494 0.0
C2331 C 0.15892 0.49524 0.92332 0.0
C2332 C 0.14792 0.50985 0.8608 0.0
C2333 C 0.15388 0.49063 0.84907 0.0
C2334 C 0.1578 0.49487 0.89759 0.0
C2335 C 0.16255 0.47443 0.86228 0.0
C2336 C 0.14297 0.50394 0.93685 0.0
C2337 C 0.17561 0.48364 0.95774 0.0
N2338 N 0.16415 0.47686 0.88585 0.0
N2339 N 0.17466 0.48535 0.93419 0.0
H2340 H 0.53574 0.72047 0.96706 0.0
H2341 H 0.49196 0.61963 0.85478 0.0
H2342 H 0.49958 0.62889 0.97044 0.0
H2343 H 0.53721 0.7119 0.85175 0.0
H2344 H 0.49097 0.62232 0.89713 0.0
H2345 H 0.53264 0.71731 0.92475 0.0
C2346 C 0.52702 0.69966 0.95896 0.0
C2347 C 0.51806 0.67491 0.9724 0.0
C2348 C 0.50106 0.64196 0.88718 0.0
C2349 C 0.51452 0.67121 0.92385 0.0
C2350 C 0.50162 0.64047 0.86297 0.0
C2351 C 0.51484 0.66559 0.84962 0.0
C2352 C 0.51371 0.66876 0.89816 0.0
C2353 C 0.52693 0.69196 0.86128 0.0
C2354 C 0.52532 0.6979 0.93476 0.0
C2355 C 0.50689 0.64856 0.96083 0.0
N2356 N 0.52611 0.69284 0.88486 0.0
N2357 N 0.50552 0.64742 0.93723 0.0
H2358 H 0.28823 0.46595 0.35101 0.0
H2359 H 0.37631 0.50559 0.47009 0.0
H2360 H 0.38049 0.51107 0.35428 0.0
H2361 H 0.28488 0.47053 0.46661 0.0
H2362 H 0.37836 0.50825 0.42768 0.0
H2363 H 0.28662 0.46771 0.39337 0.0
C2364 C 0.30816 0.47628 0.3606 0.0
C2365 C 0.33454 0.48825 0.349 0.0
C2366 C 0.35788 0.50013 0.43622 0.0
C2367 C 0.33282 0.49029 0.39759 0.0
C2368 C 0.35667 0.49858 0.46045 0.0
C2369 C 0.33036 0.48767 0.472 0.0
C2370 C 0.33257 0.49054 0.42338 0.0
C2371 C 0.30566 0.47903 0.45853 0.0
C2372 C 0.30722 0.47734 0.38481 0.0
C2373 C 0.35965 0.50149 0.36242 0.0
N2374 N 0.30736 0.48049 0.43495 0.0
N2375 N 0.35816 0.50202 0.38598 0.0
H2376 H 0.48017 0.86074 0.35243 0.0
H2377 H 0.49881 0.87417 0.47176 0.0
H2378 H 0.543 0.83361 0.35395 0.0
H2379 H 0.53046 0.81519 0.46561 0.0
H2380 H 0.49514 0.87466 0.42974 0.0
H2381 H 0.47714 0.85747 0.39456 0.0
C2382 C 0.49355 0.85433 0.36164 0.0
C2383 C 0.5122 0.84786 0.34958 0.0
C2384 C 0.5022 0.86101 0.43747 0.0
C2385 C 0.50948 0.8449 0.39815 0.0
C2386 C 0.50461 0.86096 0.46159 0.0
C2387 C 0.51494 0.84458 0.47233 0.0
C2388 C 0.51003 0.84441 0.42387 0.0
C2389 C 0.52232 0.82809 0.45813 0.0
C2390 C 0.49201 0.85273 0.38582 0.0
C2391 C 0.52852 0.83907 0.36249 0.0
N2392 N 0.5199 0.8286 0.43462 0.0
N2393 N 0.52685 0.83796 0.38609 0.0
H2394 H 0.13081 0.62101 0.35406 0.0
H2395 H 0.18782 0.72037 0.46709 0.0
H2396 H 0.17827 0.71331 0.35171 0.0
H2397 H 0.13209 0.62877 0.46962 0.0
H2398 H 0.18814 0.71779 0.42476 0.0
H2399 H 0.1346 0.62318 0.39637 0.0
C2400 C 0.14211 0.64175 0.3624 0.0
C2401 C 0.15409 0.66703 0.34925 0.0
C2402 C 0.17591 0.69825 0.43459 0.0
C2403 C 0.15849 0.66961 0.39776 0.0
C2404 C 0.17574 0.69968 0.45879 0.0
C2405 C 0.15973 0.67476 0.472 0.0
C2406 C 0.16001 0.67171 0.42345 0.0
C2407 C 0.1446 0.64857 0.4602 0.0
C2408 C 0.14423 0.64295 0.38659 0.0
C2409 C 0.16854 0.69326 0.36108 0.0
N2410 N 0.14504 0.64775 0.43659 0.0
N2411 N 0.17027 0.69385 0.38466 0.0
H2412 H 0.09807 0.3842 0.01246 0.0
H2413 H 0.98861 0.26425 0.09931 0.0
H2414 H 0.06023 0.40331 0.07074 0.0
H2415 H 0.0487 0.25708 0.05455 0.0
H2416 H 0.00222 0.3108 0.08135 0.0
H2417 H 0.06637 0.33332 0.01935 0.0
C2418 C 0.08253 0.3776 0.02639 0.0
C2419 C 0.08203 0.39786 0.0413 0.0
C2420 C 0.01188 0.29866 0.07515 0.0
C2421 C 0.04622 0.33966 0.04972 0.0
C2422 C 0.00404 0.27214 0.08526 0.0
C2423 C 0.01781 0.25715 0.07845 0.0
C2424 C 0.03321 0.30974 0.05793 0.0
C2425 C 0.03783 0.26822 0.06039 0.0
C2426 C 0.06453 0.34857 0.03039 0.0
C2427 C 0.06131 0.38826 0.05893 0.0
N2428 N 0.04503 0.29389 0.05087 0.0
N2429 N 0.04458 0.3597 0.06304 0.0
H2430 H 0.71893 0.75406 0.12924 0.0
H2431 H 0.62784 0.7163 0.01987 0.0
H2432 H 0.76034 0.76826 0.06257 0.0
H2433 H 0.59616 0.66045 0.07938 0.0
H2434 H 0.67679 0.73426 0.03374 0.0
H2435 H 0.67377 0.71863 0.11136 0.0
C2436 C 0.71853 0.74923 0.1109 0.0
C2437 C 0.74318 0.764 0.09728 0.0
C2438 C 0.65919 0.71742 0.04337 0.0
C2439 C 0.69169 0.72425 0.07665 0.0
C2440 C 0.63131 0.70717 0.03546 0.0
C2441 C 0.60806 0.68697 0.04857 0.0
C2442 C 0.66366 0.70811 0.06493 0.0
C2443 C 0.61358 0.67595 0.06875 0.0
C2444 C 0.69287 0.72896 0.10074 0.0
C2445 C 0.7417 0.75714 0.0736 0.0
N2446 N 0.64083 0.68728 0.07671 0.0
N2447 N 0.71614 0.73822 0.06385 0.0
H2448 H 0.21689 0.97012 0.05602 0.0
H2449 H 0.34918 0.94687 0.07303 0.0
H2450 H 0.28275 0.01776 0.10663 0.0
H2451 H 0.28648 0.90901 0.01835 0.0
H2452 H 0.33099 0.97945 0.08177 0.0
H2453 H 0.24712 0.95394 0.03826 0.0
C2454 C 0.23797 0.97739 0.06322 0.0
C2455 C 0.24729 0.99495 0.08293 0.0
C2456 C 0.32171 0.96448 0.0675 0.0
C2457 C 0.28198 0.97597 0.06305 0.0
C2458 C 0.33222 0.94605 0.0624 0.0
C2459 C 0.31897 0.925 0.04518 0.0
C2460 C 0.29791 0.96168 0.05521 0.0
C2461 C 0.29697 0.92465 0.03203 0.0
C2462 C 0.25531 0.96821 0.05307 0.0
C2463 C 0.27487 0.0041 0.09146 0.0
N2464 N 0.28692 0.94239 0.03751 0.0
N2465 N 0.29112 0.994 0.08173 0.0
H2466 H 0.2562 0.97433 0.3912 0.0
H2467 H 0.40202 0.0527 0.41993 0.0
H2468 H 0.25521 0.0453 0.42466 0.0
H2469 H 0.37638 0.09538 0.46964 0.0
H2470 H 0.35169 0.02078 0.41005 0.0
H2471 H 0.30352 0.99009 0.40837 0.0
C2472 C 0.26585 0.99304 0.4023 0.0
C2473 C 0.2521 0.00889 0.40615 0.0
C2474 C 0.35691 0.03643 0.42368 0.0
C2475 C 0.306 0.02715 0.42561 0.0
C2476 C 0.38573 0.05468 0.42933 0.0
C2477 C 0.39335 0.07698 0.44536 0.0
C2478 C 0.3358 0.04062 0.43426 0.0
C2479 C 0.37146 0.07879 0.45689 0.0
C2480 C 0.29295 0.00219 0.41192 0.0
C2481 C 0.26532 0.0328 0.42081 0.0
N2482 N 0.3438 0.06122 0.45083 0.0
N2483 N 0.29147 0.04119 0.42988 0.0
H2484 H 0.96245 0.24214 0.36421 0.0
H2485 H 0.91174 0.28345 0.47328 0.0
H2486 H 0.98945 0.22802 0.43103 0.0
H2487 H 0.93586 0.33782 0.41283 0.0
H2488 H 0.94189 0.26442 0.4597 0.0
H2489 H 0.95369 0.27832 0.38176 0.0
C2490 C 0.96697 0.24709 0.38253 0.0
C2491 C 0.97653 0.23215 0.39629 0.0
C2492 C 0.94133 0.28118 0.4498 0.0
C2493 C 0.96596 0.27285 0.41654 0.0
C2494 C 0.92419 0.29205 0.45755 0.0
C2495 C 0.92134 0.31212 0.44408 0.0
C2496 C 0.9548 0.28974 0.42806 0.0
C2497 C 0.93765 0.32245 0.42374 0.0
C2498 C 0.96216 0.2678 0.3925 0.0
C2499 C 0.98211 0.23922 0.41991 0.0
N2500 N 0.95308 0.31051 0.41596 0.0
N2501 N 0.97605 0.25863 0.42949 0.0
H2502 H 0.72745 0.73664 0.39366 0.0
H2503 H 0.71558 0.61563 0.47984 0.0
H2504 H 0.79462 0.74294 0.43818 0.0
H2505 H 0.65899 0.59755 0.4214 0.0
H2506 H 0.73529 0.66665 0.47323 0.0
H2507 H 0.69426 0.69017 0.41148 0.0
C2508 C 0.73497 0.72858 0.4076 0.0
C2509 C 0.76382 0.74334 0.41433 0.0
C2510 C 0.71815 0.65158 0.46212 0.0
C2511 C 0.72621 0.69075 0.43474 0.0
C2512 C 0.7068 0.62248 0.46596 0.0
C2513 C 0.68601 0.60246 0.45089 0.0
C2514 C 0.709 0.6608 0.44283 0.0
C2515 C 0.67513 0.61239 0.43332 0.0
C2516 C 0.71611 0.70209 0.41765 0.0
C2517 C 0.77261 0.73201 0.43231 0.0
N2518 N 0.68724 0.641 0.4294 0.0
N2519 N 0.75395 0.70634 0.44177 0.0
H2520 H 0.89849 0.61841 0.9794 0.0
H2521 H 0.00803 0.73882 0.89289 0.0
H2522 H 0.937 0.5997 0.92137 0.0
H2523 H 0.94646 0.74512 0.93645 0.0
H2524 H 0.99448 0.69238 0.91093 0.0
H2525 H 0.92962 0.66935 0.97229 0.0
C2526 C 0.91407 0.62511 0.96549 0.0
C2527 C 0.91491 0.60493 0.95069 0.0
C2528 C 0.98444 0.70429 0.91682 0.0
C2529 C 0.95007 0.66317 0.94207 0.0
C2530 C 0.99222 0.73075 0.90665 0.0
C2531 C 0.97804 0.7455 0.91307 0.0
C2532 C 0.96278 0.69301 0.93374 0.0
C2533 C 0.95761 0.73418 0.93083 0.0
C2534 C 0.93173 0.65417 0.96137 0.0
C2535 C 0.93566 0.61467 0.93309 0.0
N2536 N 0.95049 0.70856 0.94043 0.0
N2537 N 0.95207 0.64324 0.92889 0.0
H2538 H 0.36924 0.28732 0.96931 0.0
H2539 H 0.27815 0.24891 0.86013 0.0
H2540 H 0.40087 0.34324 0.90983 0.0
H2541 H 0.23675 0.23532 0.92675 0.0
H2542 H 0.32327 0.28468 0.87786 0.0
H2543 H 0.32029 0.26929 0.95542 0.0
C2544 C 0.36576 0.29643 0.95371 0.0
C2545 C 0.389 0.31669 0.94063 0.0
C2546 C 0.30418 0.27444 0.88849 0.0
C2547 C 0.3334 0.2955 0.92426 0.0
C2548 C 0.27853 0.254 0.87841 0.0
C2549 C 0.25392 0.2393 0.89207 0.0
C2550 C 0.30536 0.27935 0.91256 0.0
C2551 C 0.25537 0.24641 0.91569 0.0
C2552 C 0.33789 0.28616 0.9458 0.0
C2553 C 0.38346 0.3277 0.92045 0.0
N2554 N 0.28092 0.26547 0.92538 0.0
N2555 N 0.35621 0.31634 0.91248 0.0
H2556 H 0.64741 0.05659 0.91824 0.0
H2557 H 0.78331 0.03947 0.93086 0.0
H2558 H 0.70981 0.09431 0.97315 0.0
H2559 H 0.71373 0.98482 0.88531 0.0
H2560 H 0.75322 0.0555 0.94903 0.0
H2561 H 0.66668 0.02512 0.90873 0.0
C2562 C 0.66451 0.05756 0.92877 0.0
C2563 C 0.6774 0.07833 0.94625 0.0
C2564 C 0.74423 0.03978 0.93524 0.0
C2565 C 0.69972 0.043 0.9353 0.0
C2566 C 0.76152 0.03077 0.92477 0.0
C2567 C 0.75106 0.01118 0.90637 0.0
C2568 C 0.71636 0.02971 0.92691 0.0
C2569 C 0.72255 0.00013 0.89939 0.0
C2570 C 0.67562 0.03977 0.92324 0.0
C2571 C 0.69959 0.0789 0.95927 0.0
N2572 N 0.70625 0.01 0.90939 0.0
N2573 N 0.7103 0.06185 0.95332 0.0
H2574 H 0.74011 0.01674 0.60439 0.0
H2575 H 0.62359 0.9054 0.51592 0.0
H2576 H 0.7513 0.95989 0.55859 0.0
H2577 H 0.60154 0.9426 0.57291 0.0
H2578 H 0.67405 0.93755 0.52409 0.0
H2579 H 0.69295 0.00081 0.58656 0.0
C2580 C 0.73288 0.0014 0.59027 0.0
C2581 C 0.74927 0.98924 0.58311 0.0
C2582 C 0.65826 0.9391 0.53462 0.0
C2583 C 0.69603 0.97133 0.56264 0.0
C2584 C 0.62945 0.92084 0.52988 0.0
C2585 C 0.60847 0.9211 0.544 0.0
C2586 C 0.66623 0.95744 0.55392 0.0
C2587 C 0.61716 0.94171 0.56169 0.0
C2588 C 0.70603 0.99228 0.58019 0.0
C2589 C 0.73906 0.96943 0.56484 0.0
N2590 N 0.64551 0.95873 0.56652 0.0
N2591 N 0.71309 0.96101 0.55535 0.0
H2592 H 0.0093 0.76797 0.55928 0.0
H2593 H 0.06546 0.65796 0.57787 0.0
H2594 H 0.03398 0.75039 0.62583 0.0
H2595 H 0.09152 0.71634 0.51991 0.0
H2596 H 0.03433 0.67609 0.59125 0.0
H2597 H 0.02078 0.73364 0.54109 0.0
C2598 C 0.01634 0.75626 0.5701 0.0
C2599 C 0.02099 0.76201 0.59397 0.0
C2600 C 0.04621 0.68421 0.5752 0.0
C2601 C 0.03344 0.72272 0.57357 0.0
C2602 C 0.06374 0.67375 0.56747 0.0
C2603 C 0.08117 0.68591 0.5479 0.0
C2604 C 0.0458 0.70648 0.56298 0.0
C2605 C 0.07851 0.70662 0.5352 0.0
C2606 C 0.02292 0.73684 0.55975 0.0
C2607 C 0.03039 0.7466 0.60731 0.0
N2608 N 0.06136 0.7165 0.54308 0.0
N2609 N 0.03642 0.72768 0.59691 0.0
H2610 H 0.34252 0.39925 0.57032 0.0
H2611 H 0.20512 0.24917 0.54949 0.0
H2612 H 0.283 0.38025 0.51393 0.0
H2613 H 0.27064 0.26067 0.59829 0.0
H2614 H 0.23791 0.29536 0.53226 0.0
H2615 H 0.32203 0.34769 0.57693 0.0
C2616 C 0.3258 0.38423 0.55887 0.0
C2617 C 0.31405 0.3939 0.54183 0.0
C2618 C 0.24546 0.28773 0.54648 0.0
C2619 C 0.29032 0.33526 0.54943 0.0
C2620 C 0.22668 0.26132 0.5563 0.0
C2621 C 0.23516 0.25132 0.57543 0.0
C2622 C 0.27273 0.30475 0.55628 0.0
C2623 C 0.26335 0.26774 0.58353 0.0
C2624 C 0.31398 0.35483 0.56272 0.0
C2625 C 0.29231 0.37363 0.52754 0.0
N2626 N 0.281 0.29403 0.57425 0.0
N2627 N 0.28088 0.34534 0.53189 0.0
H2628 H 0.04509 0.41425 0.79923 0.0
H2629 H 0.95492 0.36931 0.69411 0.0
H2630 H 0.08271 0.39891 0.73878 0.0
H2631 H 0.91693 0.31637 0.75453 0.0
H2632 H 0.00246 0.38244 0.70925 0.0
H2633 H 0.99745 0.3799 0.78421 0.0
C2634 C 0.04324 0.40295 0.78317 0.0
C2635 C 0.06758 0.40913 0.77019 0.0
C2636 C 0.98363 0.36725 0.71878 0.0
C2637 C 0.01374 0.37114 0.75265 0.0
C2638 C 0.95667 0.35987 0.71021 0.0
C2639 C 0.93226 0.34175 0.72313 0.0
C2640 C 0.98598 0.35736 0.74077 0.0
C2641 C 0.93541 0.33025 0.74405 0.0
C2642 C 0.01622 0.38342 0.77466 0.0
C2643 C 0.06429 0.39437 0.7493 0.0
N2644 N 0.96194 0.33896 0.75265 0.0
N2645 N 0.03772 0.37664 0.74074 0.0
H2646 H 0.58855 0.63056 0.79751 0.0
H2647 H 0.63022 0.58709 0.69156 0.0
H2648 H 0.60322 0.68576 0.7387 0.0
H2649 H 0.68626 0.6027 0.74999 0.0
H2650 H 0.61859 0.62227 0.70733 0.0
H2651 H 0.62332 0.61852 0.78144 0.0
C2652 C 0.59978 0.64075 0.7816 0.0
C2653 C 0.59324 0.6591 0.76934 0.0
C2654 C 0.63419 0.61866 0.71622 0.0
C2655 C 0.63175 0.64479 0.75065 0.0
C2656 C 0.64072 0.59864 0.7073 0.0
C2657 C 0.65916 0.59221 0.71956 0.0
C2658 C 0.64526 0.63117 0.73794 0.0
C2659 C 0.67207 0.60736 0.74003 0.0
C2660 C 0.61958 0.63401 0.77251 0.0
C2661 C 0.60799 0.67163 0.74866 0.0
N2662 N 0.66411 0.62554 0.74907 0.0
N2663 N 0.62596 0.66349 0.73948 0.0
H2664 H 0.40834 0.04303 0.69124 0.0
H2665 H 0.37291 0.95843 0.79796 0.0
H2666 H 0.39639 0.08312 0.75171 0.0
H2667 H 0.3148 0.91681 0.7409 0.0
H2668 H 0.38347 0.00493 0.78216 0.0
H2669 H 0.37492 0.99605 0.70784 0.0
C2670 C 0.39789 0.04185 0.70763 0.0
C2671 C 0.40487 0.0667 0.72018 0.0
C2672 C 0.36771 0.98552 0.77357 0.0
C2673 C 0.36801 0.01365 0.73948 0.0
C2674 C 0.36181 0.95915 0.7825 0.0
C2675 C 0.34301 0.93403 0.77065 0.0
C2676 C 0.35563 0.98656 0.75224 0.0
C2677 C 0.32929 0.93586 0.75054 0.0
C2678 C 0.3789 0.0152 0.71704 0.0
C2679 C 0.39122 0.06428 0.7415 0.0
N2680 N 0.33658 0.96183 0.74147 0.0
N2681 N 0.37409 0.03809 0.75093 0.0
H2682 H 0.68788 0.08528 0.25156 0.0
H2683 H 0.60524 0.91676 0.24105 0.0
H2684 H 0.63123 0.04247 0.19392 0.0
H2685 H 0.58836 0.95856 0.29771 0.0
H2686 H 0.6388 0.9638 0.22458 0.0
H2687 H 0.6748 0.0385 0.26842 0.0
C2688 C 0.67368 0.06603 0.24198 0.0
C2689 C 0.66046 0.06745 0.22141 0.0
C2690 C 0.62853 0.96249 0.24108 0.0
C2691 C 0.64615 0.01464 0.24021 0.0
C2692 C 0.60957 0.93585 0.25053 0.0
C2693 C 0.59409 0.93403 0.27068 0.0
C2694 C 0.63248 0.98718 0.25231 0.0
C2695 C 0.59992 0.95926 0.28211 0.0
C2696 C 0.66621 0.03955 0.25164 0.0
C2697 C 0.64175 0.04206 0.20984 0.0
N2698 N 0.61861 0.98496 0.27264 0.0
N2699 N 0.63495 0.01652 0.21951 0.0
H2700 H 0.08531 0.68768 0.23849 0.0
H2701 H 0.91692 0.60266 0.25326 0.0
H2702 H 0.04507 0.63446 0.29836 0.0
H2703 H 0.95813 0.5874 0.19525 0.0
H2704 H 0.96416 0.63727 0.26893 0.0
H2705 H 0.0378 0.67348 0.22257 0.0
C2706 C 0.06648 0.67403 0.24873 0.0
C2707 C 0.06881 0.66205 0.26967 0.0
C2708 C 0.96265 0.62707 0.25235 0.0
C2709 C 0.01517 0.64643 0.25191 0.0
C2710 C 0.9359 0.60751 0.24337 0.0
C2711 C 0.93392 0.59226 0.22304 0.0
C2712 C 0.98725 0.63183 0.24046 0.0
C2713 C 0.95898 0.59877 0.21102 0.0
C2714 C 0.03957 0.66591 0.2396 0.0
C2715 C 0.04394 0.64402 0.28213 0.0
N2716 N 0.98478 0.61806 0.22002 0.0
N2717 N 0.01797 0.63653 0.27295 0.0
H2718 H 0.37212 0.41579 0.29814 0.0
H2719 H 0.41242 0.36828 0.19225 0.0
H2720 H 0.31569 0.39802 0.23961 0.0
H2721 H 0.40057 0.31698 0.25317 0.0
H2722 H 0.3783 0.38126 0.20824 0.0
H2723 H 0.38474 0.38107 0.28292 0.0
C2724 C 0.36182 0.40393 0.28247 0.0
C2725 C 0.3429 0.40956 0.27005 0.0
C2726 C 0.38251 0.36642 0.2177 0.0
C2727 C 0.35787 0.37106 0.25231 0.0
C2728 C 0.40192 0.35911 0.20864 0.0
C2729 C 0.40902 0.34154 0.22146 0.0
C2730 C 0.37132 0.35704 0.24005 0.0
C2731 C 0.39529 0.33041 0.24277 0.0
C2732 C 0.36891 0.38416 0.27386 0.0
C2733 C 0.33024 0.39399 0.24969 0.0
N2734 N 0.37769 0.3391 0.25183 0.0
N2735 N 0.33867 0.37602 0.24099 0.0
loop_
_geom_bond_atom_site_label_1
_geom_bond_atom_site_label_2
_geom_bond_distance
_geom_bond_site_symmetry_2
_ccdc_geom_bond_type
Sc0 O3 2.025 . S
Sc0 O10 2.105 1_455 S
Sc0 O13 2.105 . S
Sc0 O16 2.105 1_455 S
Sc0 O19 2.105 . S
Sc1 O3 2.025 . S
Sc1 O11 2.105 . S
Sc1 O15 2.105 . S
Sc1 O17 2.105 . S
Sc1 O21 2.105 . S
Sc2 O3 2.025 1_655 S
Sc2 O12 2.105 1_655 S
Sc2 O14 2.105 . S
Sc2 O18 2.105 1_655 S
Sc2 O20 2.105 . S
O3 Sc0 2.025 . S
O3 Sc1 2.025 . S
O3 Sc2 2.025 1_455 S
C4 O10 1.268 . S
C4 O20 1.268 . S
C5 O11 1.268 . S
C5 O19 1.268 . S
C6 O12 1.268 . S
C6 O21 1.268 . S
C7 O13 1.268 . S
C7 O17 1.268 . S
C8 O14 1.268 . S
C8 O16 1.268 . S
C9 O15 1.268 . S
C9 O18 1.268 . S
O10 Sc0 2.105 1_655 S
O10 C4 1.268 . S
O11 Sc1 2.105 . S
O11 C5 1.268 . S
O12 Sc2 2.105 1_455 S
O12 C6 1.268 . S
O13 Sc0 2.105 . S
O13 C7 1.268 . S
O14 Sc2 2.105 . S
O14 C8 1.268 . S
O15 Sc1 2.105 . S
O15 C9 1.268 . S
O16 Sc0 2.105 1_655 S
O16 C8 1.268 . S
O17 Sc1 2.105 . S
O17 C7 1.268 . S
O18 Sc2 2.105 1_455 S
O18 C9 1.268 . S
O19 Sc0 2.105 . S
O19 C5 1.268 . S
O20 Sc2 2.105 . S
O20 C4 1.268 . S
O21 Sc1 2.105 . S
O21 C6 1.268 . S
Sc22 O25 2.025 . S
Sc22 O32 2.105 . S
Sc22 O35 2.105 . S
Sc22 O38 2.105 . S
Sc22 O41 2.105 . S
Sc23 O25 2.025 . S
Sc23 O33 2.105 . S
Sc23 O37 2.105 . S
Sc23 O39 2.105 . S
Sc23 O43 2.105 . S
Sc24 O25 2.025 . S
Sc24 O34 2.105 . S
Sc24 O36 2.105 . S
Sc24 O40 2.105 . S
Sc24 O42 2.105 . S
O25 Sc22 2.025 . S
O25 Sc23 2.025 . S
O25 Sc24 2.025 . S
C26 O32 1.268 . S
C26 O42 1.268 . S
C27 O33 1.268 . S
C27 O41 1.268 . S
C28 O34 1.268 . S
C28 O43 1.268 . S
C29 O35 1.268 . S
C29 O39 1.268 . S
C30 O36 1.268 . S
C30 O38 1.268 . S
C31 O37 1.268 . S
C31 O40 1.268 . S
O32 Sc22 2.105 . S
O32 C26 1.268 . S
O33 Sc23 2.105 . S
O33 C27 1.268 . S
O34 Sc24 2.105 . S
O34 C28 1.268 . S
O35 Sc22 2.105 . S
O35 C29 1.268 . S
O36 Sc24 2.105 . S
O36 C30 1.268 . S
O37 Sc23 2.105 . S
O37 C31 1.268 . S
O38 Sc22 2.105 . S
O38 C30 1.268 . S
O39 Sc23 2.105 . S
O39 C29 1.268 . S
O40 Sc24 2.105 . S
O40 C31 1.268 . S
O41 Sc22 2.105 . S
O41 C27 1.268 . S
O42 Sc24 2.105 . S
O42 C26 1.268 . S
O43 Sc23 2.105 . S
O43 C28 1.268 . S
Sc44 O47 2.025 . S
Sc44 O54 2.105 1_565 S
Sc44 O57 2.105 . S
Sc44 O60 2.105 1_565 S
Sc44 O63 2.105 . S
Sc45 O47 2.025 . S
Sc45 O55 2.105 . S
Sc45 O59 2.105 . S
Sc45 O61 2.105 . S
Sc45 O65 2.105 . S
Sc46 O47 2.025 1_545 S
Sc46 O56 2.105 1_545 S
Sc46 O58 2.105 . S
Sc46 O62 2.105 1_545 S
Sc46 O64 2.105 . S
O47 Sc44 2.025 . S
O47 Sc45 2.025 . S
O47 Sc46 2.025 1_565 S
C48 O54 1.268 . S
C48 O64 1.268 . S
C49 O55 1.268 . S
C49 O63 1.268 . S
C50 O56 1.268 . S
C50 O65 1.268 . S
C51 O57 1.268 . S
C51 O61 1.268 . S
C52 O58 1.268 . S
C52 O60 1.268 . S
C53 O59 1.268 . S
C53 O62 1.268 . S
O54 Sc44 2.105 1_545 S
O54 C48 1.268 . S
O55 Sc45 2.105 . S
O55 C49 1.268 . S
O56 Sc46 2.105 1_565 S
O56 C50 1.268 . S
O57 Sc44 2.105 . S
O57 C51 1.268 . S
O58 Sc46 2.105 . S
O58 C52 1.268 . S
O59 Sc45 2.105 . S
O59 C53 1.268 . S
O60 Sc44 2.105 1_545 S
O60 C52 1.268 . S
O61 Sc45 2.105 . S
O61 C51 1.268 . S
O62 Sc46 2.105 1_565 S
O62 C53 1.268 . S
O63 Sc44 2.105 . S
O63 C49 1.268 . S
O64 Sc46 2.105 . S
O64 C48 1.268 . S
O65 Sc45 2.105 . S
O65 C50 1.268 . S
Sc66 O69 2.025 . S
Sc66 O76 2.105 1_545 S
Sc66 O79 2.105 . S
Sc66 O82 2.105 1_545 S
Sc66 O85 2.105 . S
Sc67 O69 2.025 . S
Sc67 O77 2.105 . S
Sc67 O81 2.105 . S
Sc67 O83 2.105 . S
Sc67 O87 2.105 . S
Sc68 O69 2.025 1_565 S
Sc68 O78 2.105 1_565 S
Sc68 O80 2.105 . S
Sc68 O84 2.105 1_565 S
Sc68 O86 2.105 . S
O69 Sc66 2.025 . S
O69 Sc67 2.025 . S
O69 Sc68 2.025 1_545 S
C70 O76 1.268 . S
C70 O86 1.268 . S
C71 O77 1.268 . S
C71 O85 1.268 . S
C72 O78 1.268 . S
C72 O87 1.268 . S
C73 O79 1.268 . S
C73 O83 1.268 . S
C74 O80 1.268 . S
C74 O82 1.268 . S
C75 O81 1.268 . S
C75 O84 1.268 . S
O76 Sc66 2.105 1_565 S
O76 C70 1.268 . S
O77 Sc67 2.105 . S
O77 C71 1.268 . S
O78 Sc68 2.105 1_545 S
O78 C72 1.268 . S
O79 Sc66 2.105 . S
O79 C73 1.268 . S
O80 Sc68 2.105 . S
O80 C74 1.268 . S
O81 Sc67 2.105 . S
O81 C75 1.268 . S
O82 Sc66 2.105 1_565 S
O82 C74 1.268 . S
O83 Sc67 2.105 . S
O83 C73 1.268 . S
O84 Sc68 2.105 1_545 S
O84 C75 1.268 . S
O85 Sc66 2.105 . S
O85 C71 1.268 . S
O86 Sc68 2.105 . S
O86 C70 1.268 . S
O87 Sc67 2.105 . S
O87 C72 1.268 . S
Sc88 O91 2.025 . S
Sc88 O98 2.105 1_655 S
Sc88 O101 2.105 . S
Sc88 O104 2.105 1_655 S
Sc88 O107 2.105 . S
Sc89 O91 2.025 . S
Sc89 O99 2.105 . S
Sc89 O103 2.105 . S
Sc89 O105 2.105 . S
Sc89 O109 2.105 . S
Sc90 O91 2.025 1_455 S
Sc90 O100 2.105 1_455 S
Sc90 O102 2.105 . S
Sc90 O106 2.105 1_455 S
Sc90 O108 2.105 . S
O91 Sc88 2.025 . S
O91 Sc89 2.025 . S
O91 Sc90 2.025 1_655 S
C92 O98 1.268 . S
C92 O108 1.268 . S
C93 O99 1.268 . S
C93 O107 1.268 . S
C94 O100 1.268 . S
C94 O109 1.268 . S
C95 O101 1.268 . S
C95 O105 1.268 . S
C96 O102 1.268 . S
C96 O104 1.268 . S
C97 O103 1.268 . S
C97 O106 1.268 . S
O98 Sc88 2.105 1_455 S
O98 C92 1.268 . S
O99 Sc89 2.105 . S
O99 C93 1.268 . S
O100 Sc90 2.105 1_655 S
O100 C94 1.268 . S
O101 Sc88 2.105 . S
O101 C95 1.268 . S
O102 Sc90 2.105 . S
O102 C96 1.268 . S
O103 Sc89 2.105 . S
O103 C97 1.268 . S
O104 Sc88 2.105 1_455 S
O104 C96 1.268 . S
O105 Sc89 2.105 . S
O105 C95 1.268 . S
O106 Sc90 2.105 1_655 S
O106 C97 1.268 . S
O107 Sc88 2.105 . S
O107 C93 1.268 . S
O108 Sc90 2.105 . S
O108 C92 1.268 . S
O109 Sc89 2.105 . S
O109 C94 1.268 . S
Sc110 O113 2.025 . S
Sc110 O120 2.105 . S
Sc110 O123 2.105 . S
Sc110 O126 2.105 . S
Sc110 O129 2.105 . S
Sc111 O113 2.025 . S
Sc111 O121 2.105 . S
Sc111 O125 2.105 . S
Sc111 O127 2.105 . S
Sc111 O131 2.105 . S
Sc112 O113 2.025 . S
Sc112 O122 2.105 . S
Sc112 O124 2.105 . S
Sc112 O128 2.105 . S
Sc112 O130 2.105 . S
O113 Sc110 2.025 . S
O113 Sc111 2.025 . S
O113 Sc112 2.025 . S
C114 O120 1.268 . S
C114 O130 1.268 . S
C115 O121 1.268 . S
C115 O129 1.268 . S
C116 O122 1.268 . S
C116 O131 1.268 . S
C117 O123 1.268 . S
C117 O127 1.268 . S
C118 O124 1.268 . S
C118 O126 1.268 . S
C119 O125 1.268 . S
C119 O128 1.268 . S
O120 Sc110 2.105 . S
O120 C114 1.268 . S
O121 Sc111 2.105 . S
O121 C115 1.268 . S
O122 Sc112 2.105 . S
O122 C116 1.268 . S
O123 Sc110 2.105 . S
O123 C117 1.268 . S
O124 Sc112 2.105 . S
O124 C118 1.268 . S
O125 Sc111 2.105 . S
O125 C119 1.268 . S
O126 Sc110 2.105 . S
O126 C118 1.268 . S
O127 Sc111 2.105 . S
O127 C117 1.268 . S
O128 Sc112 2.105 . S
O128 C119 1.268 . S
O129 Sc110 2.105 . S
O129 C115 1.268 . S
O130 Sc112 2.105 . S
O130 C114 1.268 . S
O131 Sc111 2.105 . S
O131 C116 1.268 . S
Sc132 O135 2.025 1_455 S
Sc132 O142 2.105 . S
Sc132 O145 2.105 1_455 S
Sc132 O148 2.105 . S
Sc132 O151 2.105 1_455 S
Sc133 O135 2.025 . S
Sc133 O143 2.105 . S
Sc133 O147 2.105 . S
Sc133 O149 2.105 . S
Sc133 O153 2.105 . S
Sc134 O135 2.025 . S
Sc134 O144 2.105 . S
Sc134 O146 2.105 1_655 S
Sc134 O150 2.105 . S
Sc134 O152 2.105 1_655 S
O135 Sc132 2.025 1_655 S
O135 Sc133 2.025 . S
O135 Sc134 2.025 . S
C136 O142 1.268 . S
C136 O152 1.268 . S
C137 O143 1.268 . S
C137 O151 1.268 . S
C138 O144 1.268 . S
C138 O153 1.268 . S
C139 O145 1.268 . S
C139 O149 1.268 . S
C140 O146 1.268 . S
C140 O148 1.268 . S
C141 O147 1.268 . S
C141 O150 1.268 . S
O142 Sc132 2.105 . S
O142 C136 1.268 . S
O143 Sc133 2.105 . S
O143 C137 1.268 . S
O144 Sc134 2.105 . S
O144 C138 1.268 . S
O145 Sc132 2.105 1_655 S
O145 C139 1.268 . S
O146 Sc134 2.105 1_455 S
O146 C140 1.268 . S
O147 Sc133 2.105 . S
O147 C141 1.268 . S
O148 Sc132 2.105 . S
O148 C140 1.268 . S
O149 Sc133 2.105 . S
O149 C139 1.268 . S
O150 Sc134 2.105 . S
O150 C141 1.268 . S
O151 Sc132 2.105 1_655 S
O151 C137 1.268 . S
O152 Sc134 2.105 1_455 S
O152 C136 1.268 . S
O153 Sc133 2.105 . S
O153 C138 1.268 . S
Sc154 O157 2.025 . S
Sc154 O164 2.105 . S
Sc154 O167 2.105 . S
Sc154 O170 2.105 . S
Sc154 O173 2.105 . S
Sc155 O157 2.025 . S
Sc155 O165 2.105 . S
Sc155 O169 2.105 . S
Sc155 O171 2.105 . S
Sc155 O175 2.105 . S
Sc156 O157 2.025 . S
Sc156 O166 2.105 . S
Sc156 O168 2.105 . S
Sc156 O172 2.105 . S
Sc156 O174 2.105 . S
O157 Sc154 2.025 . S
O157 Sc155 2.025 . S
O157 Sc156 2.025 . S
C158 O164 1.268 . S
C158 O174 1.268 . S
C159 O165 1.268 . S
C159 O173 1.268 . S
C160 O166 1.268 . S
C160 O175 1.268 . S
C161 O167 1.268 . S
C161 O171 1.268 . S
C162 O168 1.268 . S
C162 O170 1.268 . S
C163 O169 1.268 . S
C163 O172 1.268 . S
O164 Sc154 2.105 . S
O164 C158 1.268 . S
O165 Sc155 2.105 . S
O165 C159 1.268 . S
O166 Sc156 2.105 . S
O166 C160 1.268 . S
O167 Sc154 2.105 . S
O167 C161 1.268 . S
O168 Sc156 2.105 . S
O168 C162 1.268 . S
O169 Sc155 2.105 . S
O169 C163 1.268 . S
O170 Sc154 2.105 . S
O170 C162 1.268 . S
O171 Sc155 2.105 . S
O171 C161 1.268 . S
O172 Sc156 2.105 . S
O172 C163 1.268 . S
O173 Sc154 2.105 . S
O173 C159 1.268 . S
O174 Sc156 2.105 . S
O174 C158 1.268 . S
O175 Sc155 2.105 . S
O175 C160 1.268 . S
Sc176 O179 2.025 1_565 S
Sc176 O186 2.105 . S
Sc176 O189 2.105 1_565 S
Sc176 O192 2.105 . S
Sc176 O195 2.105 1_565 S
Sc177 O179 2.025 . S
Sc177 O187 2.105 . S
Sc177 O191 2.105 . S
Sc177 O193 2.105 . S
Sc177 O197 2.105 . S
Sc178 O179 2.025 . S
Sc178 O188 2.105 . S
Sc178 O190 2.105 1_545 S
Sc178 O194 2.105 . S
Sc178 O196 2.105 1_545 S
O179 Sc176 2.025 1_545 S
O179 Sc177 2.025 . S
O179 Sc178 2.025 . S
C180 O186 1.268 . S
C180 O196 1.268 . S
C181 O187 1.268 . S
C181 O195 1.268 . S
C182 O188 1.268 . S
C182 O197 1.268 . S
C183 O189 1.268 . S
C183 O193 1.268 . S
C184 O190 1.268 . S
C184 O192 1.268 . S
C185 O191 1.268 . S
C185 O194 1.268 . S
O186 Sc176 2.105 . S
O186 C180 1.268 . S
O187 Sc177 2.105 . S
O187 C181 1.268 . S
O188 Sc178 2.105 . S
O188 C182 1.268 . S
O189 Sc176 2.105 1_545 S
O189 C183 1.268 . S
O190 Sc178 2.105 1_565 S
O190 C184 1.268 . S
O191 Sc177 2.105 . S
O191 C185 1.268 . S
O192 Sc176 2.105 . S
O192 C184 1.268 . S
O193 Sc177 2.105 . S
O193 C183 1.268 . S
O194 Sc178 2.105 . S
O194 C185 1.268 . S
O195 Sc176 2.105 1_545 S
O195 C181 1.268 . S
O196 Sc178 2.105 1_565 S
O196 C180 1.268 . S
O197 Sc177 2.105 . S
O197 C182 1.268 . S
Sc198 O201 2.025 1_545 S
Sc198 O208 2.105 . S
Sc198 O211 2.105 1_545 S
Sc198 O214 2.105 . S
Sc198 O217 2.105 1_545 S
Sc199 O201 2.025 . S
Sc199 O209 2.105 . S
Sc199 O213 2.105 . S
Sc199 O215 2.105 . S
Sc199 O219 2.105 . S
Sc200 O201 2.025 . S
Sc200 O210 2.105 . S
Sc200 O212 2.105 1_565 S
Sc200 O216 2.105 . S
Sc200 O218 2.105 1_565 S
O201 Sc198 2.025 1_565 S
O201 Sc199 2.025 . S
O201 Sc200 2.025 . S
C202 O208 1.268 . S
C202 O218 1.268 . S
C203 O209 1.268 . S
C203 O217 1.268 . S
C204 O210 1.268 . S
C204 O219 1.268 . S
C205 O211 1.268 . S
C205 O215 1.268 . S
C206 O212 1.268 . S
C206 O214 1.268 . S
C207 O213 1.268 . S
C207 O216 1.268 . S
O208 Sc198 2.105 . S
O208 C202 1.268 . S
O209 Sc199 2.105 . S
O209 C203 1.268 . S
O210 Sc200 2.105 . S
O210 C204 1.268 . S
O211 Sc198 2.105 1_565 S
O211 C205 1.268 . S
O212 Sc200 2.105 1_545 S
O212 C206 1.268 . S
O213 Sc199 2.105 . S
O213 C207 1.268 . S
O214 Sc198 2.105 . S
O214 C206 1.268 . S
O215 Sc199 2.105 . S
O215 C205 1.268 . S
O216 Sc200 2.105 . S
O216 C207 1.268 . S
O217 Sc198 2.105 1_565 S
O217 C203 1.268 . S
O218 Sc200 2.105 1_545 S
O218 C202 1.268 . S
O219 Sc199 2.105 . S
O219 C204 1.268 . S
Sc220 O223 2.025 1_655 S
Sc220 O230 2.105 . S
Sc220 O233 2.105 1_655 S
Sc220 O236 2.105 . S
Sc220 O239 2.105 1_655 S
Sc221 O223 2.025 . S
Sc221 O231 2.105 . S
Sc221 O235 2.105 . S
Sc221 O237 2.105 . S
Sc221 O241 2.105 . S
Sc222 O223 2.025 . S
Sc222 O232 2.105 . S
Sc222 O234 2.105 1_455 S
Sc222 O238 2.105 . S
Sc222 O240 2.105 1_455 S
O223 Sc220 2.025 1_455 S
O223 Sc221 2.025 . S
O223 Sc222 2.025 . S
C224 O230 1.268 . S
C224 O240 1.268 . S
C225 O231 1.268 . S
C225 O239 1.268 . S
C226 O232 1.268 . S
C226 O241 1.268 . S
C227 O233 1.268 . S
C227 O237 1.268 . S
C228 O234 1.268 . S
C228 O236 1.268 . S
C229 O235 1.268 . S
C229 O238 1.268 . S
O230 Sc220 2.105 . S
O230 C224 1.268 . S
O231 Sc221 2.105 . S
O231 C225 1.268 . S
O232 Sc222 2.105 . S
O232 C226 1.268 . S
O233 Sc220 2.105 1_455 S
O233 C227 1.268 . S
O234 Sc222 2.105 1_655 S
O234 C228 1.268 . S
O235 Sc221 2.105 . S
O235 C229 1.268 . S
O236 Sc220 2.105 . S
O236 C228 1.268 . S
O237 Sc221 2.105 . S
O237 C227 1.268 . S
O238 Sc222 2.105 . S
O238 C229 1.268 . S
O239 Sc220 2.105 1_455 S
O239 C225 1.268 . S
O240 Sc222 2.105 1_655 S
O240 C224 1.268 . S
O241 Sc221 2.105 . S
O241 C226 1.268 . S
Sc242 O245 2.025 . S
Sc242 O252 2.105 . S
Sc242 O255 2.105 . S
Sc242 O258 2.105 . S
Sc242 O261 2.105 . S
Sc243 O245 2.025 . S
Sc243 O253 2.105 . S
Sc243 O257 2.105 . S
Sc243 O259 2.105 . S
Sc243 O263 2.105 . S
Sc244 O245 2.025 . S
Sc244 O254 2.105 . S
Sc244 O256 2.105 . S
Sc244 O260 2.105 . S
Sc244 O262 2.105 . S
O245 Sc242 2.025 . S
O245 Sc243 2.025 . S
O245 Sc244 2.025 . S
C246 O252 1.268 . S
C246 O262 1.268 . S
C247 O253 1.268 . S
C247 O261 1.268 . S
C248 O254 1.268 . S
C248 O263 1.268 . S
C249 O255 1.268 . S
C249 O259 1.268 . S
C250 O256 1.268 . S
C250 O258 1.268 . S
C251 O257 1.268 . S
C251 O260 1.268 . S
O252 Sc242 2.105 . S
O252 C246 1.268 . S
O253 Sc243 2.105 . S
O253 C247 1.268 . S
O254 Sc244 2.105 . S
O254 C248 1.268 . S
O255 Sc242 2.105 . S
O255 C249 1.268 . S
O256 Sc244 2.105 . S
O256 C250 1.268 . S
O257 Sc243 2.105 . S
O257 C251 1.268 . S
O258 Sc242 2.105 . S
O258 C250 1.268 . S
O259 Sc243 2.105 . S
O259 C249 1.268 . S
O260 Sc244 2.105 . S
O260 C251 1.268 . S
O261 Sc242 2.105 . S
O261 C247 1.268 . S
O262 Sc244 2.105 . S
O262 C246 1.268 . S
O263 Sc243 2.105 . S
O263 C248 1.268 . S
Sc264 O267 2.025 . S
Sc264 O274 2.105 . S
Sc264 O277 2.105 . S
Sc264 O280 2.105 . S
Sc264 O283 2.105 . S
Sc265 O267 2.025 . S
Sc265 O275 2.105 . S
Sc265 O279 2.105 . S
Sc265 O281 2.105 . S
Sc265 O285 2.105 . S
Sc266 O267 2.025 . S
Sc266 O276 2.105 . S
Sc266 O278 2.105 . S
Sc266 O282 2.105 . S
Sc266 O284 2.105 . S
O267 Sc264 2.025 . S
O267 Sc265 2.025 . S
O267 Sc266 2.025 . S
C268 O274 1.268 . S
C268 O284 1.268 . S
C269 O275 1.268 . S
C269 O283 1.268 . S
C270 O276 1.268 . S
C270 O285 1.268 . S
C271 O277 1.268 . S
C271 O281 1.268 . S
C272 O278 1.268 . S
C272 O280 1.268 . S
C273 O279 1.268 . S
C273 O282 1.268 . S
O274 Sc264 2.105 . S
O274 C268 1.268 . S
O275 Sc265 2.105 . S
O275 C269 1.268 . S
O276 Sc266 2.105 . S
O276 C270 1.268 . S
O277 Sc264 2.105 . S
O277 C271 1.268 . S
O278 Sc266 2.105 . S
O278 C272 1.268 . S
O279 Sc265 2.105 . S
O279 C273 1.268 . S
O280 Sc264 2.105 . S
O280 C272 1.268 . S
O281 Sc265 2.105 . S
O281 C271 1.268 . S
O282 Sc266 2.105 . S
O282 C273 1.268 . S
O283 Sc264 2.105 . S
O283 C269 1.268 . S
O284 Sc266 2.105 . S
O284 C268 1.268 . S
O285 Sc265 2.105 . S
O285 C270 1.268 . S
Sc286 O289 2.025 . S
Sc286 O296 2.105 . S
Sc286 O299 2.105 . S
Sc286 O302 2.105 . S
Sc286 O305 2.105 . S
Sc287 O289 2.025 . S
Sc287 O297 2.105 . S
Sc287 O301 2.105 . S
Sc287 O303 2.105 . S
Sc287 O307 2.105 . S
Sc288 O289 2.025 . S
Sc288 O298 2.105 . S
Sc288 O300 2.105 . S
Sc288 O304 2.105 . S
Sc288 O306 2.105 . S
O289 Sc286 2.025 . S
O289 Sc287 2.025 . S
O289 Sc288 2.025 . S
C290 O296 1.268 . S
C290 O306 1.268 . S
C291 O297 1.268 . S
C291 O305 1.268 . S
C292 O298 1.268 . S
C292 O307 1.268 . S
C293 O299 1.268 . S
C293 O303 1.268 . S
C294 O300 1.268 . S
C294 O302 1.268 . S
C295 O301 1.268 . S
C295 O304 1.268 . S
O296 Sc286 2.105 . S
O296 C290 1.268 . S
O297 Sc287 2.105 . S
O297 C291 1.268 . S
O298 Sc288 2.105 . S
O298 C292 1.268 . S
O299 Sc286 2.105 . S
O299 C293 1.268 . S
O300 Sc288 2.105 . S
O300 C294 1.268 . S
O301 Sc287 2.105 . S
O301 C295 1.268 . S
O302 Sc286 2.105 . S
O302 C294 1.268 . S
O303 Sc287 2.105 . S
O303 C293 1.268 . S
O304 Sc288 2.105 . S
O304 C295 1.268 . S
O305 Sc286 2.105 . S
O305 C291 1.268 . S
O306 Sc288 2.105 . S
O306 C290 1.268 . S
O307 Sc287 2.105 . S
O307 C292 1.268 . S
Sc308 O311 2.025 . S
Sc308 O318 2.105 . S
Sc308 O321 2.105 . S
Sc308 O324 2.105 . S
Sc308 O327 2.105 . S
Sc309 O311 2.025 . S
Sc309 O319 2.105 . S
Sc309 O323 2.105 . S
Sc309 O325 2.105 . S
Sc309 O329 2.105 . S
Sc310 O311 2.025 . S
Sc310 O320 2.105 . S
Sc310 O322 2.105 . S
Sc310 O326 2.105 . S
Sc310 O328 2.105 . S
O311 Sc308 2.025 . S
O311 Sc309 2.025 . S
O311 Sc310 2.025 . S
C312 O318 1.268 . S
C312 O328 1.268 . S
C313 O319 1.268 . S
C313 O327 1.268 . S
C314 O320 1.268 . S
C314 O329 1.268 . S
C315 O321 1.268 . S
C315 O325 1.268 . S
C316 O322 1.268 . S
C316 O324 1.268 . S
C317 O323 1.268 . S
C317 O326 1.268 . S
O318 Sc308 2.105 . S
O318 C312 1.268 . S
O319 Sc309 2.105 . S
O319 C313 1.268 . S
O320 Sc310 2.105 . S
O320 C314 1.268 . S
O321 Sc308 2.105 . S
O321 C315 1.268 . S
O322 Sc310 2.105 . S
O322 C316 1.268 . S
O323 Sc309 2.105 . S
O323 C317 1.268 . S
O324 Sc308 2.105 . S
O324 C316 1.268 . S
O325 Sc309 2.105 . S
O325 C315 1.268 . S
O326 Sc310 2.105 . S
O326 C317 1.268 . S
O327 Sc308 2.105 . S
O327 C313 1.268 . S
O328 Sc310 2.105 . S
O328 C312 1.268 . S
O329 Sc309 2.105 . S
O329 C314 1.268 . S
Sc330 O333 2.025 . S
Sc330 O340 2.105 . S
Sc330 O343 2.105 . S
Sc330 O346 2.105 . S
Sc330 O349 2.105 . S
Sc331 O333 2.025 . S
Sc331 O341 2.105 . S
Sc331 O345 2.105 . S
Sc331 O347 2.105 . S
Sc331 O351 2.105 . S
Sc332 O333 2.025 . S
Sc332 O342 2.105 . S
Sc332 O344 2.105 . S
Sc332 O348 2.105 . S
Sc332 O350 2.105 . S
O333 Sc330 2.025 . S
O333 Sc331 2.025 . S
O333 Sc332 2.025 . S
C334 O340 1.268 . S
C334 O350 1.268 . S
C335 O341 1.268 . S
C335 O349 1.268 . S
C336 O342 1.268 . S
C336 O351 1.268 . S
C337 O343 1.268 . S
C337 O347 1.268 . S
C338 O344 1.268 . S
C338 O346 1.268 . S
C339 O345 1.268 . S
C339 O348 1.268 . S
O340 Sc330 2.105 . S
O340 C334 1.268 . S
O341 Sc331 2.105 . S
O341 C335 1.268 . S
O342 Sc332 2.105 . S
O342 C336 1.268 . S
O343 Sc330 2.105 . S
O343 C337 1.268 . S
O344 Sc332 2.105 . S
O344 C338 1.268 . S
O345 Sc331 2.105 . S
O345 C339 1.268 . S
O346 Sc330 2.105 . S
O346 C338 1.268 . S
O347 Sc331 2.105 . S
O347 C337 1.268 . S
O348 Sc332 2.105 . S
O348 C339 1.268 . S
O349 Sc330 2.105 . S
O349 C335 1.268 . S
O350 Sc332 2.105 . S
O350 C334 1.268 . S
O351 Sc331 2.105 . S
O351 C336 1.268 . S
Sc352 O355 2.025 . S
Sc352 O362 2.105 . S
Sc352 O365 2.105 . S
Sc352 O368 2.105 . S
Sc352 O371 2.105 . S
Sc353 O355 2.025 . S
Sc353 O363 2.105 . S
Sc353 O367 2.105 . S
Sc353 O369 2.105 . S
Sc353 O373 2.105 . S
Sc354 O355 2.025 . S
Sc354 O364 2.105 . S
Sc354 O366 2.105 . S
Sc354 O370 2.105 . S
Sc354 O372 2.105 . S
O355 Sc352 2.025 . S
O355 Sc353 2.025 . S
O355 Sc354 2.025 . S
C356 O362 1.268 . S
C356 O372 1.268 . S
C357 O363 1.268 . S
C357 O371 1.268 . S
C358 O364 1.268 . S
C358 O373 1.268 . S
C359 O365 1.268 . S
C359 O369 1.268 . S
C360 O366 1.268 . S
C360 O368 1.268 . S
C361 O367 1.268 . S
C361 O370 1.268 . S
O362 Sc352 2.105 . S
O362 C356 1.268 . S
O363 Sc353 2.105 . S
O363 C357 1.268 . S
O364 Sc354 2.105 . S
O364 C358 1.268 . S
O365 Sc352 2.105 . S
O365 C359 1.268 . S
O366 Sc354 2.105 . S
O366 C360 1.268 . S
O367 Sc353 2.105 . S
O367 C361 1.268 . S
O368 Sc352 2.105 . S
O368 C360 1.268 . S
O369 Sc353 2.105 . S
O369 C359 1.268 . S
O370 Sc354 2.105 . S
O370 C361 1.268 . S
O371 Sc352 2.105 . S
O371 C357 1.268 . S
O372 Sc354 2.105 . S
O372 C356 1.268 . S
O373 Sc353 2.105 . S
O373 C358 1.268 . S
Sc374 O377 2.025 . S
Sc374 O384 2.105 . S
Sc374 O387 2.105 . S
Sc374 O390 2.105 . S
Sc374 O393 2.105 . S
Sc375 O377 2.025 . S
Sc375 O385 2.105 . S
Sc375 O389 2.105 . S
Sc375 O391 2.105 . S
Sc375 O395 2.105 . S
Sc376 O377 2.025 . S
Sc376 O386 2.105 . S
Sc376 O388 2.105 . S
Sc376 O392 2.105 . S
Sc376 O394 2.105 . S
O377 Sc374 2.025 . S
O377 Sc375 2.025 . S
O377 Sc376 2.025 . S
C378 O384 1.268 . S
C378 O394 1.268 . S
C379 O385 1.268 . S
C379 O393 1.268 . S
C380 O386 1.268 . S
C380 O395 1.268 . S
C381 O387 1.268 . S
C381 O391 1.268 . S
C382 O388 1.268 . S
C382 O390 1.268 . S
C383 O389 1.268 . S
C383 O392 1.268 . S
O384 Sc374 2.105 . S
O384 C378 1.268 . S
O385 Sc375 2.105 . S
O385 C379 1.268 . S
O386 Sc376 2.105 . S
O386 C380 1.268 . S
O387 Sc374 2.105 . S
O387 C381 1.268 . S
O388 Sc376 2.105 . S
O388 C382 1.268 . S
O389 Sc375 2.105 . S
O389 C383 1.268 . S
O390 Sc374 2.105 . S
O390 C382 1.268 . S
O391 Sc375 2.105 . S
O391 C381 1.268 . S
O392 Sc376 2.105 . S
O392 C383 1.268 . S
O393 Sc374 2.105 . S
O393 C379 1.268 . S
O394 Sc376 2.105 . S
O394 C378 1.268 . S
O395 Sc375 2.105 . S
O395 C380 1.268 . S
Sc396 O399 2.025 . S
Sc396 O406 2.105 . S
Sc396 O409 2.105 . S
Sc396 O412 2.105 . S
Sc396 O415 2.105 . S
Sc397 O399 2.025 . S
Sc397 O407 2.105 . S
Sc397 O411 2.105 . S
Sc397 O413 2.105 . S
Sc397 O417 2.105 . S
Sc398 O399 2.025 . S
Sc398 O408 2.105 . S
Sc398 O410 2.105 . S
Sc398 O414 2.105 . S
Sc398 O416 2.105 . S
O399 Sc396 2.025 . S
O399 Sc397 2.025 . S
O399 Sc398 2.025 . S
C400 O406 1.268 . S
C400 O416 1.268 . S
C401 O407 1.268 . S
C401 O415 1.268 . S
C402 O408 1.268 . S
C402 O417 1.268 . S
C403 O409 1.268 . S
C403 O413 1.268 . S
C404 O410 1.268 . S
C404 O412 1.268 . S
C405 O411 1.268 . S
C405 O414 1.268 . S
O406 Sc396 2.105 . S
O406 C400 1.268 . S
O407 Sc397 2.105 . S
O407 C401 1.268 . S
O408 Sc398 2.105 . S
O408 C402 1.268 . S
O409 Sc396 2.105 . S
O409 C403 1.268 . S
O410 Sc398 2.105 . S
O410 C404 1.268 . S
O411 Sc397 2.105 . S
O411 C405 1.268 . S
O412 Sc396 2.105 . S
O412 C404 1.268 . S
O413 Sc397 2.105 . S
O413 C403 1.268 . S
O414 Sc398 2.105 . S
O414 C405 1.268 . S
O415 Sc396 2.105 . S
O415 C401 1.268 . S
O416 Sc398 2.105 . S
O416 C400 1.268 . S
O417 Sc397 2.105 . S
O417 C402 1.268 . S
Sc418 O421 2.025 . S
Sc418 O428 2.105 . S
Sc418 O431 2.105 . S
Sc418 O434 2.105 . S
Sc418 O437 2.105 . S
Sc419 O421 2.025 . S
Sc419 O429 2.105 . S
Sc419 O433 2.105 . S
Sc419 O435 2.105 . S
Sc419 O439 2.105 . S
Sc420 O421 2.025 . S
Sc420 O430 2.105 . S
Sc420 O432 2.105 . S
Sc420 O436 2.105 . S
Sc420 O438 2.105 . S
O421 Sc418 2.025 . S
O421 Sc419 2.025 . S
O421 Sc420 2.025 . S
C422 O428 1.268 . S
C422 O438 1.268 . S
C423 O429 1.268 . S
C423 O437 1.268 . S
C424 O430 1.268 . S
C424 O439 1.268 . S
C425 O431 1.268 . S
C425 O435 1.268 . S
C426 O432 1.268 . S
C426 O434 1.268 . S
C427 O433 1.268 . S
C427 O436 1.268 . S
O428 Sc418 2.105 . S
O428 C422 1.268 . S
O429 Sc419 2.105 . S
O429 C423 1.268 . S
O430 Sc420 2.105 . S
O430 C424 1.268 . S
O431 Sc418 2.105 . S
O431 C425 1.268 . S
O432 Sc420 2.105 . S
O432 C426 1.268 . S
O433 Sc419 2.105 . S
O433 C427 1.268 . S
O434 Sc418 2.105 . S
O434 C426 1.268 . S
O435 Sc419 2.105 . S
O435 C425 1.268 . S
O436 Sc420 2.105 . S
O436 C427 1.268 . S
O437 Sc418 2.105 . S
O437 C423 1.268 . S
O438 Sc420 2.105 . S
O438 C422 1.268 . S
O439 Sc419 2.105 . S
O439 C424 1.268 . S
Sc440 O443 2.025 . S
Sc440 O450 2.105 . S
Sc440 O453 2.105 . S
Sc440 O456 2.105 . S
Sc440 O459 2.105 . S
Sc441 O443 2.025 . S
Sc441 O451 2.105 . S
Sc441 O455 2.105 . S
Sc441 O457 2.105 . S
Sc441 O461 2.105 . S
Sc442 O443 2.025 . S
Sc442 O452 2.105 . S
Sc442 O454 2.105 . S
Sc442 O458 2.105 . S
Sc442 O460 2.105 . S
O443 Sc440 2.025 . S
O443 Sc441 2.025 . S
O443 Sc442 2.025 . S
C444 O450 1.268 . S
C444 O460 1.268 . S
C445 O451 1.268 . S
C445 O459 1.268 . S
C446 O452 1.268 . S
C446 O461 1.268 . S
C447 O453 1.268 . S
C447 O457 1.268 . S
C448 O454 1.268 . S
C448 O456 1.268 . S
C449 O455 1.268 . S
C449 O458 1.268 . S
O450 Sc440 2.105 . S
O450 C444 1.268 . S
O451 Sc441 2.105 . S
O451 C445 1.268 . S
O452 Sc442 2.105 . S
O452 C446 1.268 . S
O453 Sc440 2.105 . S
O453 C447 1.268 . S
O454 Sc442 2.105 . S
O454 C448 1.268 . S
O455 Sc441 2.105 . S
O455 C449 1.268 . S
O456 Sc440 2.105 . S
O456 C448 1.268 . S
O457 Sc441 2.105 . S
O457 C447 1.268 . S
O458 Sc442 2.105 . S
O458 C449 1.268 . S
O459 Sc440 2.105 . S
O459 C445 1.268 . S
O460 Sc442 2.105 . S
O460 C444 1.268 . S
O461 Sc441 2.105 . S
O461 C446 1.268 . S
Sc462 O465 2.025 . S
Sc462 O472 2.105 . S
Sc462 O475 2.105 . S
Sc462 O478 2.105 . S
Sc462 O481 2.105 . S
Sc463 O465 2.025 . S
Sc463 O473 2.105 . S
Sc463 O477 2.105 . S
Sc463 O479 2.105 . S
Sc463 O483 2.105 . S
Sc464 O465 2.025 . S
Sc464 O474 2.105 . S
Sc464 O476 2.105 . S
Sc464 O480 2.105 . S
Sc464 O482 2.105 . S
O465 Sc462 2.025 . S
O465 Sc463 2.025 . S
O465 Sc464 2.025 . S
C466 O472 1.268 . S
C466 O482 1.268 . S
C467 O473 1.268 . S
C467 O481 1.268 . S
C468 O474 1.268 . S
C468 O483 1.268 . S
C469 O475 1.268 1_554 S
C469 O479 1.268 1_554 S
C470 O476 1.268 . S
C470 O478 1.268 . S
C471 O477 1.268 . S
C471 O480 1.268 . S
O472 Sc462 2.105 . S
O472 C466 1.268 . S
O473 Sc463 2.105 . S
O473 C467 1.268 . S
O474 Sc464 2.105 . S
O474 C468 1.268 . S
O475 Sc462 2.105 . S
O475 C469 1.268 1_556 S
O476 Sc464 2.105 . S
O476 C470 1.268 . S
O477 Sc463 2.105 . S
O477 C471 1.268 . S
O478 Sc462 2.105 . S
O478 C470 1.268 . S
O479 Sc463 2.105 . S
O479 C469 1.268 1_556 S
O480 Sc464 2.105 . S
O480 C471 1.268 . S
O481 Sc462 2.105 . S
O481 C467 1.268 . S
O482 Sc464 2.105 . S
O482 C466 1.268 . S
O483 Sc463 2.105 . S
O483 C468 1.268 . S
Sc484 O487 2.025 . S
Sc484 O494 2.105 . S
Sc484 O497 2.105 . S
Sc484 O500 2.105 . S
Sc484 O503 2.105 . S
Sc485 O487 2.025 . S
Sc485 O495 2.105 . S
Sc485 O499 2.105 . S
Sc485 O501 2.105 . S
Sc485 O505 2.105 . S
Sc486 O487 2.025 . S
Sc486 O496 2.105 . S
Sc486 O498 2.105 . S
Sc486 O502 2.105 . S
Sc486 O504 2.105 . S
O487 Sc484 2.025 . S
O487 Sc485 2.025 . S
O487 Sc486 2.025 . S
C488 O494 1.268 . S
C488 O504 1.268 . S
C489 O495 1.268 . S
C489 O503 1.268 . S
C490 O496 1.268 . S
C490 O505 1.268 . S
C491 O497 1.268 1_554 S
C491 O501 1.268 1_554 S
C492 O498 1.268 . S
C492 O500 1.268 . S
C493 O499 1.268 . S
C493 O502 1.268 . S
O494 Sc484 2.105 . S
O494 C488 1.268 . S
O495 Sc485 2.105 . S
O495 C489 1.268 . S
O496 Sc486 2.105 . S
O496 C490 1.268 . S
O497 Sc484 2.105 . S
O497 C491 1.268 1_556 S
O498 Sc486 2.105 . S
O498 C492 1.268 . S
O499 Sc485 2.105 . S
O499 C493 1.268 . S
O500 Sc484 2.105 . S
O500 C492 1.268 . S
O501 Sc485 2.105 . S
O501 C491 1.268 1_556 S
O502 Sc486 2.105 . S
O502 C493 1.268 . S
O503 Sc484 2.105 . S
O503 C489 1.268 . S
O504 Sc486 2.105 . S
O504 C488 1.268 . S
O505 Sc485 2.105 . S
O505 C490 1.268 . S
Sc506 O509 2.025 . S
Sc506 O516 2.105 . S
Sc506 O519 2.105 . S
Sc506 O522 2.105 . S
Sc506 O525 2.105 . S
Sc507 O509 2.025 . S
Sc507 O517 2.105 . S
Sc507 O521 2.105 . S
Sc507 O523 2.105 . S
Sc507 O527 2.105 . S
Sc508 O509 2.025 . S
Sc508 O518 2.105 . S
Sc508 O520 2.105 . S
Sc508 O524 2.105 . S
Sc508 O526 2.105 . S
O509 Sc506 2.025 . S
O509 Sc507 2.025 . S
O509 Sc508 2.025 . S
C510 O516 1.268 . S
C510 O526 1.268 . S
C511 O517 1.268 . S
C511 O525 1.268 . S
C512 O518 1.268 . S
C512 O527 1.268 . S
C513 O519 1.268 1_554 S
C513 O523 1.268 1_554 S
C514 O520 1.268 . S
C514 O522 1.268 . S
C515 O521 1.268 . S
C515 O524 1.268 . S
O516 Sc506 2.105 . S
O516 C510 1.268 . S
O517 Sc507 2.105 . S
O517 C511 1.268 . S
O518 Sc508 2.105 . S
O518 C512 1.268 . S
O519 Sc506 2.105 . S
O519 C513 1.268 1_556 S
O520 Sc508 2.105 . S
O520 C514 1.268 . S
O521 Sc507 2.105 . S
O521 C515 1.268 . S
O522 Sc506 2.105 . S
O522 C514 1.268 . S
O523 Sc507 2.105 . S
O523 C513 1.268 1_556 S
O524 Sc508 2.105 . S
O524 C515 1.268 . S
O525 Sc506 2.105 . S
O525 C511 1.268 . S
O526 Sc508 2.105 . S
O526 C510 1.268 . S
O527 Sc507 2.105 . S
O527 C512 1.268 . S
Sc528 O531 2.025 . S
Sc528 O538 2.105 . S
Sc528 O541 2.105 . S
Sc528 O544 2.105 . S
Sc528 O547 2.105 . S
Sc529 O531 2.025 . S
Sc529 O539 2.105 . S
Sc529 O543 2.105 . S
Sc529 O545 2.105 . S
Sc529 O549 2.105 . S
Sc530 O531 2.025 . S
Sc530 O540 2.105 . S
Sc530 O542 2.105 . S
Sc530 O546 2.105 . S
Sc530 O548 2.105 . S
O531 Sc528 2.025 . S
O531 Sc529 2.025 . S
O531 Sc530 2.025 . S
C532 O538 1.268 . S
C532 O548 1.268 . S
C533 O539 1.268 . S
C533 O547 1.268 . S
C534 O540 1.268 . S
C534 O549 1.268 . S
C535 O541 1.268 . S
C535 O545 1.268 . S
C536 O542 1.268 . S
C536 O544 1.268 . S
C537 O543 1.268 . S
C537 O546 1.268 . S
O538 Sc528 2.105 . S
O538 C532 1.268 . S
O539 Sc529 2.105 . S
O539 C533 1.268 . S
O540 Sc530 2.105 . S
O540 C534 1.268 . S
O541 Sc528 2.105 . S
O541 C535 1.268 . S
O542 Sc530 2.105 . S
O542 C536 1.268 . S
O543 Sc529 2.105 . S
O543 C537 1.268 . S
O544 Sc528 2.105 . S
O544 C536 1.268 . S
O545 Sc529 2.105 . S
O545 C535 1.268 . S
O546 Sc530 2.105 . S
O546 C537 1.268 . S
O547 Sc528 2.105 . S
O547 C533 1.268 . S
O548 Sc530 2.105 . S
O548 C532 1.268 . S
O549 Sc529 2.105 . S
O549 C534 1.268 . S
Sc550 O553 2.025 . S
Sc550 O560 2.105 . S
Sc550 O563 2.105 . S
Sc550 O566 2.105 . S
Sc550 O569 2.105 . S
Sc551 O553 2.025 . S
Sc551 O561 2.105 . S
Sc551 O565 2.105 . S
Sc551 O567 2.105 . S
Sc551 O571 2.105 . S
Sc552 O553 2.025 . S
Sc552 O562 2.105 . S
Sc552 O564 2.105 . S
Sc552 O568 2.105 . S
Sc552 O570 2.105 . S
O553 Sc550 2.025 . S
O553 Sc551 2.025 . S
O553 Sc552 2.025 . S
C554 O560 1.268 . S
C554 O570 1.268 . S
C555 O561 1.268 . S
C555 O569 1.268 . S
C556 O562 1.268 . S
C556 O571 1.268 . S
C557 O563 1.268 . S
C557 O567 1.268 . S
C558 O564 1.268 . S
C558 O566 1.268 . S
C559 O565 1.268 . S
C559 O568 1.268 . S
O560 Sc550 2.105 . S
O560 C554 1.268 . S
O561 Sc551 2.105 . S
O561 C555 1.268 . S
O562 Sc552 2.105 . S
O562 C556 1.268 . S
O563 Sc550 2.105 . S
O563 C557 1.268 . S
O564 Sc552 2.105 . S
O564 C558 1.268 . S
O565 Sc551 2.105 . S
O565 C559 1.268 . S
O566 Sc550 2.105 . S
O566 C558 1.268 . S
O567 Sc551 2.105 . S
O567 C557 1.268 . S
O568 Sc552 2.105 . S
O568 C559 1.268 . S
O569 Sc550 2.105 . S
O569 C555 1.268 . S
O570 Sc552 2.105 . S
O570 C554 1.268 . S
O571 Sc551 2.105 . S
O571 C556 1.268 . S
Sc572 O575 2.025 . S
Sc572 O582 2.105 . S
Sc572 O585 2.105 . S
Sc572 O588 2.105 . S
Sc572 O591 2.105 . S
Sc573 O575 2.025 . S
Sc573 O583 2.105 . S
Sc573 O587 2.105 . S
Sc573 O589 2.105 . S
Sc573 O593 2.105 . S
Sc574 O575 2.025 . S
Sc574 O584 2.105 . S
Sc574 O586 2.105 . S
Sc574 O590 2.105 . S
Sc574 O592 2.105 . S
O575 Sc572 2.025 . S
O575 Sc573 2.025 . S
O575 Sc574 2.025 . S
C576 O582 1.268 . S
C576 O592 1.268 . S
C577 O583 1.268 . S
C577 O591 1.268 . S
C578 O584 1.268 . S
C578 O593 1.268 . S
C579 O585 1.268 . S
C579 O589 1.268 . S
C580 O586 1.268 . S
C580 O588 1.268 . S
C581 O587 1.268 . S
C581 O590 1.268 . S
O582 Sc572 2.105 . S
O582 C576 1.268 . S
O583 Sc573 2.105 . S
O583 C577 1.268 . S
O584 Sc574 2.105 . S
O584 C578 1.268 . S
O585 Sc572 2.105 . S
O585 C579 1.268 . S
O586 Sc574 2.105 . S
O586 C580 1.268 . S
O587 Sc573 2.105 . S
O587 C581 1.268 . S
O588 Sc572 2.105 . S
O588 C580 1.268 . S
O589 Sc573 2.105 . S
O589 C579 1.268 . S
O590 Sc574 2.105 . S
O590 C581 1.268 . S
O591 Sc572 2.105 . S
O591 C577 1.268 . S
O592 Sc574 2.105 . S
O592 C576 1.268 . S
O593 Sc573 2.105 . S
O593 C578 1.268 . S
Sc594 O597 2.025 . S
Sc594 O604 2.105 . S
Sc594 O607 2.105 . S
Sc594 O610 2.105 . S
Sc594 O613 2.105 . S
Sc595 O597 2.025 . S
Sc595 O605 2.105 . S
Sc595 O609 2.105 . S
Sc595 O611 2.105 . S
Sc595 O615 2.105 . S
Sc596 O597 2.025 . S
Sc596 O606 2.105 . S
Sc596 O608 2.105 . S
Sc596 O612 2.105 . S
Sc596 O614 2.105 . S
O597 Sc594 2.025 . S
O597 Sc595 2.025 . S
O597 Sc596 2.025 . S
C598 O604 1.268 . S
C598 O614 1.268 . S
C599 O605 1.268 . S
C599 O613 1.268 . S
C600 O606 1.268 . S
C600 O615 1.268 . S
C601 O607 1.268 . S
C601 O611 1.268 . S
C602 O608 1.268 . S
C602 O610 1.268 . S
C603 O609 1.268 1_556 S
C603 O612 1.268 1_556 S
O604 Sc594 2.105 . S
O604 C598 1.268 . S
O605 Sc595 2.105 . S
O605 C599 1.268 . S
O606 Sc596 2.105 . S
O606 C600 1.268 . S
O607 Sc594 2.105 . S
O607 C601 1.268 . S
O608 Sc596 2.105 . S
O608 C602 1.268 . S
O609 Sc595 2.105 . S
O609 C603 1.268 1_554 S
O610 Sc594 2.105 . S
O610 C602 1.268 . S
O611 Sc595 2.105 . S
O611 C601 1.268 . S
O612 Sc596 2.105 . S
O612 C603 1.268 1_554 S
O613 Sc594 2.105 . S
O613 C599 1.268 . S
O614 Sc596 2.105 . S
O614 C598 1.268 . S
O615 Sc595 2.105 . S
O615 C600 1.268 . S
Sc616 O619 2.025 . S
Sc616 O626 2.105 . S
Sc616 O629 2.105 . S
Sc616 O632 2.105 . S
Sc616 O635 2.105 . S
Sc617 O619 2.025 . S
Sc617 O627 2.105 . S
Sc617 O631 2.105 . S
Sc617 O633 2.105 . S
Sc617 O637 2.105 . S
Sc618 O619 2.025 . S
Sc618 O628 2.105 . S
Sc618 O630 2.105 . S
Sc618 O634 2.105 . S
Sc618 O636 2.105 . S
O619 Sc616 2.025 . S
O619 Sc617 2.025 . S
O619 Sc618 2.025 . S
C620 O626 1.268 . S
C620 O636 1.268 . S
C621 O627 1.268 . S
C621 O635 1.268 . S
C622 O628 1.268 . S
C622 O637 1.268 . S
C623 O629 1.268 . S
C623 O633 1.268 . S
C624 O630 1.268 . S
C624 O632 1.268 . S
C625 O631 1.268 1_556 S
C625 O634 1.268 1_556 S
O626 Sc616 2.105 . S
O626 C620 1.268 . S
O627 Sc617 2.105 . S
O627 C621 1.268 . S
O628 Sc618 2.105 . S
O628 C622 1.268 . S
O629 Sc616 2.105 . S
O629 C623 1.268 . S
O630 Sc618 2.105 . S
O630 C624 1.268 . S
O631 Sc617 2.105 . S
O631 C625 1.268 1_554 S
O632 Sc616 2.105 . S
O632 C624 1.268 . S
O633 Sc617 2.105 . S
O633 C623 1.268 . S
O634 Sc618 2.105 . S
O634 C625 1.268 1_554 S
O635 Sc616 2.105 . S
O635 C621 1.268 . S
O636 Sc618 2.105 . S
O636 C620 1.268 . S
O637 Sc617 2.105 . S
O637 C622 1.268 . S
Sc638 O641 2.025 . S
Sc638 O648 2.105 . S
Sc638 O651 2.105 . S
Sc638 O654 2.105 . S
Sc638 O657 2.105 . S
Sc639 O641 2.025 . S
Sc639 O649 2.105 . S
Sc639 O653 2.105 . S
Sc639 O655 2.105 . S
Sc639 O659 2.105 . S
Sc640 O641 2.025 . S
Sc640 O650 2.105 . S
Sc640 O652 2.105 . S
Sc640 O656 2.105 . S
Sc640 O658 2.105 . S
O641 Sc638 2.025 . S
O641 Sc639 2.025 . S
O641 Sc640 2.025 . S
C642 O648 1.268 . S
C642 O658 1.268 . S
C643 O649 1.268 . S
C643 O657 1.268 . S
C644 O650 1.268 . S
C644 O659 1.268 . S
C645 O651 1.268 . S
C645 O655 1.268 . S
C646 O652 1.268 . S
C646 O654 1.268 . S
C647 O653 1.268 1_556 S
C647 O656 1.268 1_556 S
O648 Sc638 2.105 . S
O648 C642 1.268 . S
O649 Sc639 2.105 . S
O649 C643 1.268 . S
O650 Sc640 2.105 . S
O650 C644 1.268 . S
O651 Sc638 2.105 . S
O651 C645 1.268 . S
O652 Sc640 2.105 . S
O652 C646 1.268 . S
O653 Sc639 2.105 . S
O653 C647 1.268 1_554 S
O654 Sc638 2.105 . S
O654 C646 1.268 . S
O655 Sc639 2.105 . S
O655 C645 1.268 . S
O656 Sc640 2.105 . S
O656 C647 1.268 1_554 S
O657 Sc638 2.105 . S
O657 C643 1.268 . S
O658 Sc640 2.105 . S
O658 C642 1.268 . S
O659 Sc639 2.105 . S
O659 C644 1.268 . S
Sc660 O663 2.025 . S
Sc660 O670 2.105 . S
Sc660 O673 2.105 . S
Sc660 O676 2.105 . S
Sc660 O679 2.105 . S
Sc661 O663 2.025 . S
Sc661 O671 2.105 . S
Sc661 O675 2.105 . S
Sc661 O677 2.105 . S
Sc661 O681 2.105 . S
Sc662 O663 2.025 . S
Sc662 O672 2.105 . S
Sc662 O674 2.105 . S
Sc662 O678 2.105 . S
Sc662 O680 2.105 . S
O663 Sc660 2.025 . S
O663 Sc661 2.025 . S
O663 Sc662 2.025 . S
C664 O670 1.268 . S
C664 O680 1.268 . S
C665 O671 1.268 . S
C665 O679 1.268 . S
C666 O672 1.268 . S
C666 O681 1.268 . S
C667 O673 1.268 . S
C667 O677 1.268 . S
C668 O674 1.268 . S
C668 O676 1.268 . S
C669 O675 1.268 . S
C669 O678 1.268 . S
O670 Sc660 2.105 . S
O670 C664 1.268 . S
O671 Sc661 2.105 . S
O671 C665 1.268 . S
O672 Sc662 2.105 . S
O672 C666 1.268 . S
O673 Sc660 2.105 . S
O673 C667 1.268 . S
O674 Sc662 2.105 . S
O674 C668 1.268 . S
O675 Sc661 2.105 . S
O675 C669 1.268 . S
O676 Sc660 2.105 . S
O676 C668 1.268 . S
O677 Sc661 2.105 . S
O677 C667 1.268 . S
O678 Sc662 2.105 . S
O678 C669 1.268 . S
O679 Sc660 2.105 . S
O679 C665 1.268 . S
O680 Sc662 2.105 . S
O680 C664 1.268 . S
O681 Sc661 2.105 . S
O681 C666 1.268 . S
Sc682 O685 2.025 . S
Sc682 O692 2.105 . S
Sc682 O695 2.105 . S
Sc682 O698 2.105 . S
Sc682 O701 2.105 . S
Sc683 O685 2.025 . S
Sc683 O693 2.105 . S
Sc683 O697 2.105 . S
Sc683 O699 2.105 . S
Sc683 O703 2.105 . S
Sc684 O685 2.025 . S
Sc684 O694 2.105 . S
Sc684 O696 2.105 . S
Sc684 O700 2.105 . S
Sc684 O702 2.105 . S
O685 Sc682 2.025 . S
O685 Sc683 2.025 . S
O685 Sc684 2.025 . S
C686 O692 1.268 . S
C686 O702 1.268 . S
C687 O693 1.268 . S
C687 O701 1.268 . S
C688 O694 1.268 . S
C688 O703 1.268 . S
C689 O695 1.268 . S
C689 O699 1.268 . S
C690 O696 1.268 . S
C690 O698 1.268 . S
C691 O697 1.268 . S
C691 O700 1.268 . S
O692 Sc682 2.105 . S
O692 C686 1.268 . S
O693 Sc683 2.105 . S
O693 C687 1.268 . S
O694 Sc684 2.105 . S
O694 C688 1.268 . S
O695 Sc682 2.105 . S
O695 C689 1.268 . S
O696 Sc684 2.105 . S
O696 C690 1.268 . S
O697 Sc683 2.105 . S
O697 C691 1.268 . S
O698 Sc682 2.105 . S
O698 C690 1.268 . S
O699 Sc683 2.105 . S
O699 C689 1.268 . S
O700 Sc684 2.105 . S
O700 C691 1.268 . S
O701 Sc682 2.105 . S
O701 C687 1.268 . S
O702 Sc684 2.105 . S
O702 C686 1.268 . S
O703 Sc683 2.105 . S
O703 C688 1.268 . S
Sc704 O707 2.025 . S
Sc704 O714 2.105 . S
Sc704 O717 2.105 . S
Sc704 O720 2.105 . S
Sc704 O723 2.105 . S
Sc705 O707 2.025 . S
Sc705 O715 2.105 . S
Sc705 O719 2.105 . S
Sc705 O721 2.105 . S
Sc705 O725 2.105 . S
Sc706 O707 2.025 . S
Sc706 O716 2.105 . S
Sc706 O718 2.105 . S
Sc706 O722 2.105 . S
Sc706 O724 2.105 . S
O707 Sc704 2.025 . S
O707 Sc705 2.025 . S
O707 Sc706 2.025 . S
C708 O714 1.268 . S
C708 O724 1.268 . S
C709 O715 1.268 . S
C709 O723 1.268 . S
C710 O716 1.268 . S
C710 O725 1.268 . S
C711 O717 1.268 . S
C711 O721 1.268 . S
C712 O718 1.268 . S
C712 O720 1.268 . S
C713 O719 1.268 . S
C713 O722 1.268 . S
O714 Sc704 2.105 . S
O714 C708 1.268 . S
O715 Sc705 2.105 . S
O715 C709 1.268 . S
O716 Sc706 2.105 . S
O716 C710 1.268 . S
O717 Sc704 2.105 . S
O717 C711 1.268 . S
O718 Sc706 2.105 . S
O718 C712 1.268 . S
O719 Sc705 2.105 . S
O719 C713 1.268 . S
O720 Sc704 2.105 . S
O720 C712 1.268 . S
O721 Sc705 2.105 . S
O721 C711 1.268 . S
O722 Sc706 2.105 . S
O722 C713 1.268 . S
O723 Sc704 2.105 . S
O723 C709 1.268 . S
O724 Sc706 2.105 . S
O724 C708 1.268 . S
O725 Sc705 2.105 . S
O725 C710 1.268 . S
Sc726 O729 2.025 . S
Sc726 O736 2.105 . S
Sc726 O739 2.105 . S
Sc726 O742 2.105 . S
Sc726 O745 2.105 . S
Sc727 O729 2.025 . S
Sc727 O737 2.105 . S
Sc727 O741 2.105 . S
Sc727 O743 2.105 . S
Sc727 O747 2.105 . S
Sc728 O729 2.025 . S
Sc728 O738 2.105 . S
Sc728 O740 2.105 . S
Sc728 O744 2.105 . S
Sc728 O746 2.105 . S
O729 Sc726 2.025 . S
O729 Sc727 2.025 . S
O729 Sc728 2.025 . S
C730 O736 1.268 . S
C730 O746 1.268 . S
C731 O737 1.268 . S
C731 O745 1.268 . S
C732 O738 1.268 . S
C732 O747 1.268 . S
C733 O739 1.268 . S
C733 O743 1.268 . S
C734 O740 1.268 . S
C734 O742 1.268 . S
C735 O741 1.268 . S
C735 O744 1.268 . S
O736 Sc726 2.105 . S
O736 C730 1.268 . S
O737 Sc727 2.105 . S
O737 C731 1.268 . S
O738 Sc728 2.105 . S
O738 C732 1.268 . S
O739 Sc726 2.105 . S
O739 C733 1.268 . S
O740 Sc728 2.105 . S
O740 C734 1.268 . S
O741 Sc727 2.105 . S
O741 C735 1.268 . S
O742 Sc726 2.105 . S
O742 C734 1.268 . S
O743 Sc727 2.105 . S
O743 C733 1.268 . S
O744 Sc728 2.105 . S
O744 C735 1.268 . S
O745 Sc726 2.105 . S
O745 C731 1.268 . S
O746 Sc728 2.105 . S
O746 C730 1.268 . S
O747 Sc727 2.105 . S
O747 C732 1.268 . S
Sc748 O751 2.025 . S
Sc748 O758 2.105 . S
Sc748 O761 2.105 . S
Sc748 O764 2.105 . S
Sc748 O767 2.105 . S
Sc749 O751 2.025 . S
Sc749 O759 2.105 . S
Sc749 O763 2.105 . S
Sc749 O765 2.105 . S
Sc749 O769 2.105 . S
Sc750 O751 2.025 . S
Sc750 O760 2.105 . S
Sc750 O762 2.105 . S
Sc750 O766 2.105 . S
Sc750 O768 2.105 . S
O751 Sc748 2.025 . S
O751 Sc749 2.025 . S
O751 Sc750 2.025 . S
C752 O758 1.268 . S
C752 O768 1.268 . S
C753 O759 1.268 . S
C753 O767 1.268 . S
C754 O760 1.268 . S
C754 O769 1.268 . S
C755 O761 1.268 . S
C755 O765 1.268 . S
C756 O762 1.268 . S
C756 O764 1.268 . S
C757 O763 1.268 . S
C757 O766 1.268 . S
O758 Sc748 2.105 . S
O758 C752 1.268 . S
O759 Sc749 2.105 . S
O759 C753 1.268 . S
O760 Sc750 2.105 . S
O760 C754 1.268 . S
O761 Sc748 2.105 . S
O761 C755 1.268 . S
O762 Sc750 2.105 . S
O762 C756 1.268 . S
O763 Sc749 2.105 . S
O763 C757 1.268 . S
O764 Sc748 2.105 . S
O764 C756 1.268 . S
O765 Sc749 2.105 . S
O765 C755 1.268 . S
O766 Sc750 2.105 . S
O766 C757 1.268 . S
O767 Sc748 2.105 . S
O767 C753 1.268 . S
O768 Sc750 2.105 . S
O768 C752 1.268 . S
O769 Sc749 2.105 . S
O769 C754 1.268 . S
Sc770 O773 2.025 . S
Sc770 O780 2.105 . S
Sc770 O783 2.105 . S
Sc770 O786 2.105 . S
Sc770 O789 2.105 . S
Sc771 O773 2.025 . S
Sc771 O781 2.105 . S
Sc771 O785 2.105 . S
Sc771 O787 2.105 . S
Sc771 O791 2.105 . S
Sc772 O773 2.025 . S
Sc772 O782 2.105 . S
Sc772 O784 2.105 . S
Sc772 O788 2.105 . S
Sc772 O790 2.105 . S
O773 Sc770 2.025 . S
O773 Sc771 2.025 . S
O773 Sc772 2.025 . S
C774 O780 1.268 . S
C774 O790 1.268 . S
C775 O781 1.268 . S
C775 O789 1.268 . S
C776 O782 1.268 . S
C776 O791 1.268 . S
C777 O783 1.268 . S
C777 O787 1.268 . S
C778 O784 1.268 . S
C778 O786 1.268 . S
C779 O785 1.268 . S
C779 O788 1.268 . S
O780 Sc770 2.105 . S
O780 C774 1.268 . S
O781 Sc771 2.105 . S
O781 C775 1.268 . S
O782 Sc772 2.105 . S
O782 C776 1.268 . S
O783 Sc770 2.105 . S
O783 C777 1.268 . S
O784 Sc772 2.105 . S
O784 C778 1.268 . S
O785 Sc771 2.105 . S
O785 C779 1.268 . S
O786 Sc770 2.105 . S
O786 C778 1.268 . S
O787 Sc771 2.105 . S
O787 C777 1.268 . S
O788 Sc772 2.105 . S
O788 C779 1.268 . S
O789 Sc770 2.105 . S
O789 C775 1.268 . S
O790 Sc772 2.105 . S
O790 C774 1.268 . S
O791 Sc771 2.105 . S
O791 C776 1.268 . S
H792 C798 0.930 . S
H793 C802 0.930 . S
H794 C807 0.929 . S
H795 C805 0.929 . S
H796 C800 0.929 . S
H797 C806 0.929 . S
C798 H792 0.930 . S
C798 C799 1.367 . S
C798 C806 1.378 . S
C799 C798 1.367 . S
C799 C807 1.433 . S
C800 H796 0.929 . S
C800 C802 1.378 . S
C800 C804 1.350 . S
C801 C804 1.463 1_554 S
C801 C806 1.350 . S
C801 N809 1.427 . S
C802 H793 0.930 . S
C802 C800 1.378 . S
C802 C803 1.367 . S
C803 C802 1.367 . S
C803 C805 1.433 . S
C804 C800 1.350 . S
C804 C801 1.463 1_556 S
C804 N808 1.427 . S
C805 H795 0.929 . S
C805 C803 1.433 . S
C805 N808 1.384 . S
C806 H797 0.929 . S
C806 C798 1.378 . S
C806 C801 1.350 . S
C807 H794 0.929 . S
C807 C799 1.433 . S
C807 N809 1.384 . S
N808 C804 1.427 . S
N808 C805 1.384 . S
N809 C801 1.427 . S
N809 C807 1.384 . S
H810 C816 0.930 . S
H811 C820 0.930 1_545 S
H812 C825 0.929 . S
H813 C823 0.929 . S
H814 C818 0.929 1_554 S
H815 C824 0.929 1_556 S
C816 H810 0.930 . S
C816 C817 1.367 . S
C816 C824 1.378 . S
C817 C816 1.367 . S
C817 C825 1.433 . S
C818 H814 0.929 1_556 S
C818 C820 1.378 . S
C818 C822 1.350 . S
C819 C822 1.463 1_554 S
C819 C824 1.350 . S
C819 N827 1.427 . S
C820 H811 0.930 1_565 S
C820 C818 1.378 . S
C820 C821 1.367 . S
C821 C820 1.367 . S
C821 C823 1.433 . S
C822 C818 1.350 . S
C822 C819 1.463 1_556 S
C822 N826 1.427 . S
C823 H813 0.929 . S
C823 C821 1.433 . S
C823 N826 1.384 . S
C824 H815 0.929 1_554 S
C824 C816 1.378 . S
C824 C819 1.350 . S
C825 H812 0.929 . S
C825 C817 1.433 . S
C825 N827 1.384 . S
N826 C822 1.427 . S
N826 C823 1.384 . S
N827 C819 1.427 . S
N827 C825 1.384 . S
H828 C834 0.930 . S
H829 C838 0.930 . S
H830 C843 0.929 . S
H831 C841 0.929 . S
H832 C836 0.929 . S
H833 C842 0.929 . S
C834 H828 0.930 . S
C834 C835 1.367 . S
C834 C842 1.378 . S
C835 C834 1.367 . S
C835 C843 1.433 . S
C836 H832 0.929 . S
C836 C838 1.378 . S
C836 C840 1.350 . S
C837 C840 1.463 1_554 S
C837 C842 1.350 . S
C837 N845 1.427 . S
C838 H829 0.930 . S
C838 C836 1.378 . S
C838 C839 1.367 . S
C839 C838 1.367 . S
C839 C841 1.433 . S
C840 C836 1.350 . S
C840 C837 1.463 1_556 S
C840 N844 1.427 . S
C841 H831 0.929 . S
C841 C839 1.433 . S
C841 N844 1.384 . S
C842 H833 0.929 . S
C842 C834 1.378 . S
C842 C837 1.350 . S
C843 H830 0.929 . S
C843 C835 1.433 . S
C843 N845 1.384 . S
N844 C840 1.427 . S
N844 C841 1.384 . S
N845 C837 1.427 . S
N845 C843 1.384 . S
H846 C852 0.930 . S
H847 C856 0.930 . S
H848 C861 0.929 . S
H849 C859 0.929 . S
H850 C854 0.929 . S
H851 C860 0.929 . S
C852 H846 0.930 . S
C852 C853 1.367 . S
C852 C860 1.378 . S
C853 C852 1.367 . S
C853 C861 1.433 . S
C854 H850 0.929 . S
C854 C856 1.378 . S
C854 C858 1.350 . S
C855 C858 1.463 . S
C855 C860 1.350 . S
C855 N863 1.427 . S
C856 H847 0.930 . S
C856 C854 1.378 . S
C856 C857 1.367 . S
C857 C856 1.367 . S
C857 C859 1.433 . S
C858 C854 1.350 . S
C858 C855 1.463 . S
C858 N862 1.427 . S
C859 H849 0.929 . S
C859 C857 1.433 . S
C859 N862 1.384 . S
C860 H851 0.929 . S
C860 C852 1.378 . S
C860 C855 1.350 . S
C861 H848 0.929 . S
C861 C853 1.433 . S
C861 N863 1.384 . S
N862 C858 1.427 . S
N862 C859 1.384 . S
N863 C855 1.427 . S
N863 C861 1.384 . S
H864 C870 0.930 . S
H865 C874 0.930 . S
H866 C879 0.929 1_565 S
H867 C877 0.929 . S
H868 C872 0.929 . S
H869 C878 0.929 . S
C870 H864 0.930 . S
C870 C871 1.367 . S
C870 C878 1.378 . S
C871 C870 1.367 . S
C871 C879 1.433 . S
C872 H868 0.929 . S
C872 C874 1.378 . S
C872 C876 1.350 . S
C873 C876 1.463 . S
C873 C878 1.350 . S
C873 N881 1.427 . S
C874 H865 0.930 . S
C874 C872 1.378 . S
C874 C875 1.367 . S
C875 C874 1.367 . S
C875 C877 1.433 . S
C876 C872 1.350 . S
C876 C873 1.463 . S
C876 N880 1.427 . S
C877 H867 0.929 . S
C877 C875 1.433 . S
C877 N880 1.384 . S
C878 H869 0.929 . S
C878 C870 1.378 . S
C878 C873 1.350 . S
C879 H866 0.929 1_545 S
C879 C871 1.433 . S
C879 N881 1.384 . S
N880 C876 1.427 . S
N880 C877 1.384 . S
N881 C873 1.427 . S
N881 C879 1.384 . S
H882 C888 0.930 . S
H883 C892 0.930 . S
H884 C897 0.929 1_455 S
H885 C895 0.929 . S
H886 C890 0.929 . S
H887 C896 0.929 . S
C888 H882 0.930 . S
C888 C889 1.367 . S
C888 C896 1.378 . S
C889 C888 1.367 . S
C889 C897 1.433 . S
C890 H886 0.929 . S
C890 C892 1.378 . S
C890 C894 1.350 . S
C891 C894 1.463 . S
C891 C896 1.350 . S
C891 N899 1.427 . S
C892 H883 0.930 . S
C892 C890 1.378 . S
C892 C893 1.367 . S
C893 C892 1.367 . S
C893 C895 1.433 . S
C894 C890 1.350 . S
C894 C891 1.463 . S
C894 N898 1.427 . S
C895 H885 0.929 . S
C895 C893 1.433 . S
C895 N898 1.384 . S
C896 H887 0.929 . S
C896 C888 1.378 . S
C896 C891 1.350 . S
C897 H884 0.929 1_655 S
C897 C889 1.433 . S
C897 N899 1.384 . S
N898 C894 1.427 . S
N898 C895 1.384 . S
N899 C891 1.427 . S
N899 C897 1.384 . S
H900 C906 0.930 . S
H901 C910 0.930 . S
H902 C915 0.929 . S
H903 C913 0.929 . S
H904 C908 0.929 . S
H905 C914 0.929 . S
C906 H900 0.930 . S
C906 C907 1.367 . S
C906 C914 1.378 . S
C907 C906 1.367 . S
C907 C915 1.433 . S
C908 H904 0.929 . S
C908 C910 1.378 . S
C908 C912 1.350 . S
C909 C912 1.463 1_554 S
C909 C914 1.350 . S
C909 N917 1.427 . S
C910 H901 0.930 . S
C910 C908 1.378 . S
C910 C911 1.367 . S
C911 C910 1.367 . S
C911 C913 1.433 . S
C912 C908 1.350 . S
C912 C909 1.463 1_556 S
C912 N916 1.427 . S
C913 H903 0.929 . S
C913 C911 1.433 . S
C913 N916 1.384 . S
C914 H905 0.929 . S
C914 C906 1.378 . S
C914 C909 1.350 . S
C915 H902 0.929 . S
C915 C907 1.433 . S
C915 N917 1.384 . S
N916 C912 1.427 . S
N916 C913 1.384 . S
N917 C909 1.427 . S
N917 C915 1.384 . S
H918 C924 0.930 . S
H919 C928 0.930 . S
H920 C933 0.929 . S
H921 C931 0.929 . S
H922 C926 0.929 . S
H923 C932 0.929 . S
C924 H918 0.930 . S
C924 C925 1.367 . S
C924 C932 1.378 . S
C925 C924 1.367 . S
C925 C933 1.433 . S
C926 H922 0.929 . S
C926 C928 1.378 . S
C926 C930 1.350 . S
C927 C930 1.463 1_556 S
C927 C932 1.350 . S
C927 N935 1.427 . S
C928 H919 0.930 . S
C928 C926 1.378 . S
C928 C929 1.367 . S
C929 C928 1.367 . S
C929 C931 1.433 . S
C930 C926 1.350 . S
C930 C927 1.463 1_554 S
C930 N934 1.427 . S
C931 H921 0.929 . S
C931 C929 1.433 . S
C931 N934 1.384 . S
C932 H923 0.929 . S
C932 C924 1.378 . S
C932 C927 1.350 . S
C933 H920 0.929 . S
C933 C925 1.433 . S
C933 N935 1.384 . S
N934 C930 1.427 . S
N934 C931 1.384 . S
N935 C927 1.427 . S
N935 C933 1.384 . S
H936 C942 0.930 . S
H937 C946 0.930 . S
H938 C951 0.929 . S
H939 C949 0.929 . S
H940 C944 0.929 . S
H941 C950 0.929 . S
C942 H936 0.930 . S
C942 C943 1.367 . S
C942 C950 1.378 . S
C943 C942 1.367 . S
C943 C951 1.433 . S
C944 H940 0.929 . S
C944 C946 1.378 . S
C944 C948 1.350 . S
C945 C948 1.463 1_556 S
C945 C950 1.350 . S
C945 N953 1.427 . S
C946 H937 0.930 . S
C946 C944 1.378 . S
C946 C947 1.367 . S
C947 C946 1.367 . S
C947 C949 1.433 . S
C948 C944 1.350 . S
C948 C945 1.463 1_554 S
C948 N952 1.427 . S
C949 H939 0.929 . S
C949 C947 1.433 . S
C949 N952 1.384 . S
C950 H941 0.929 . S
C950 C942 1.378 . S
C950 C945 1.350 . S
C951 H938 0.929 . S
C951 C943 1.433 . S
C951 N953 1.384 . S
N952 C948 1.427 . S
N952 C949 1.384 . S
N953 C945 1.427 . S
N953 C951 1.384 . S
H954 C960 0.930 . S
H955 C964 0.930 . S
H956 C969 0.929 . S
H957 C967 0.929 . S
H958 C962 0.929 . S
H959 C968 0.929 . S
C960 H954 0.930 . S
C960 C961 1.367 . S
C960 C968 1.378 . S
C961 C960 1.367 . S
C961 C969 1.433 . S
C962 H958 0.929 . S
C962 C964 1.378 . S
C962 C966 1.350 . S
C963 C966 1.463 . S
C963 C968 1.350 . S
C963 N971 1.427 . S
C964 H955 0.930 . S
C964 C962 1.378 . S
C964 C965 1.367 . S
C965 C964 1.367 . S
C965 C967 1.433 . S
C966 C962 1.350 . S
C966 C963 1.463 . S
C966 N970 1.427 . S
C967 H957 0.929 . S
C967 C965 1.433 . S
C967 N970 1.384 . S
C968 H959 0.929 . S
C968 C960 1.378 . S
C968 C963 1.350 . S
C969 H956 0.929 . S
C969 C961 1.433 . S
C969 N971 1.384 . S
N970 C966 1.427 . S
N970 C967 1.384 . S
N971 C963 1.427 . S
N971 C969 1.384 . S
H972 C978 0.930 . S
H973 C982 0.930 . S
H974 C987 0.929 . S
H975 C985 0.929 . S
H976 C980 0.929 . S
H977 C986 0.929 . S
C978 H972 0.930 . S
C978 C979 1.367 . S
C978 C986 1.378 . S
C979 C978 1.367 . S
C979 C987 1.433 . S
C980 H976 0.929 . S
C980 C982 1.378 . S
C980 C984 1.350 . S
C981 C984 1.463 . S
C981 C986 1.350 . S
C981 N989 1.427 . S
C982 H973 0.930 . S
C982 C980 1.378 . S
C982 C983 1.367 . S
C983 C982 1.367 . S
C983 C985 1.433 . S
C984 C980 1.350 . S
C984 C981 1.463 . S
C984 N988 1.427 . S
C985 H975 0.929 . S
C985 C983 1.433 . S
C985 N988 1.384 . S
C986 H977 0.929 . S
C986 C978 1.378 . S
C986 C981 1.350 . S
C987 H974 0.929 . S
C987 C979 1.433 . S
C987 N989 1.384 . S
N988 C984 1.427 . S
N988 C985 1.384 . S
N989 C981 1.427 . S
N989 C987 1.384 . S
H990 C996 0.930 . S
H991 C1000 0.930 . S
H992 C1005 0.929 . S
H993 C1003 0.929 1_655 S
H994 C998 0.929 . S
H995 C1004 0.929 . S
C996 H990 0.930 . S
C996 C997 1.367 . S
C996 C1004 1.378 . S
C997 C996 1.367 . S
C997 C1005 1.433 . S
C998 H994 0.929 . S
C998 C1000 1.378 . S
C998 C1002 1.350 . S
C999 C1002 1.463 . S
C999 C1004 1.350 . S
C999 N1007 1.427 . S
C1000 H991 0.930 . S
C1000 C998 1.378 . S
C1000 C1001 1.367 . S
C1001 C1000 1.367 . S
C1001 C1003 1.433 . S
C1002 C998 1.350 . S
C1002 C999 1.463 . S
C1002 N1006 1.427 . S
C1003 H993 0.929 1_455 S
C1003 C1001 1.433 . S
C1003 N1006 1.384 . S
C1004 H995 0.929 . S
C1004 C996 1.378 . S
C1004 C999 1.350 . S
C1005 H992 0.929 . S
C1005 C997 1.433 . S
C1005 N1007 1.384 . S
N1006 C1002 1.427 . S
N1006 C1003 1.384 . S
N1007 C999 1.427 . S
N1007 C1005 1.384 . S
H1008 C1014 0.930 . S
H1009 C1018 0.930 . S
H1010 C1023 0.929 . S
H1011 C1021 0.929 . S
H1012 C1016 0.929 . S
H1013 C1022 0.929 . S
C1014 H1008 0.930 . S
C1014 C1015 1.367 . S
C1014 C1022 1.378 . S
C1015 C1014 1.367 . S
C1015 C1023 1.433 . S
C1016 H1012 0.929 . S
C1016 C1018 1.378 . S
C1016 C1020 1.350 . S
C1017 C1020 1.463 . S
C1017 C1022 1.350 . S
C1017 N1025 1.427 . S
C1018 H1009 0.930 . S
C1018 C1016 1.378 . S
C1018 C1019 1.367 . S
C1019 C1018 1.367 . S
C1019 C1021 1.433 . S
C1020 C1016 1.350 . S
C1020 C1017 1.463 . S
C1020 N1024 1.427 . S
C1021 H1011 0.929 . S
C1021 C1019 1.433 . S
C1021 N1024 1.384 . S
C1022 H1013 0.929 . S
C1022 C1014 1.378 . S
C1022 C1017 1.350 . S
C1023 H1010 0.929 . S
C1023 C1015 1.433 . S
C1023 N1025 1.384 . S
N1024 C1020 1.427 . S
N1024 C1021 1.384 . S
N1025 C1017 1.427 . S
N1025 C1023 1.384 . S
H1026 C1032 0.930 . S
H1027 C1036 0.930 . S
H1028 C1041 0.929 . S
H1029 C1039 0.929 . S
H1030 C1034 0.929 . S
H1031 C1040 0.929 . S
C1032 H1026 0.930 . S
C1032 C1033 1.367 . S
C1032 C1040 1.378 . S
C1033 C1032 1.367 . S
C1033 C1041 1.433 . S
C1034 H1030 0.929 . S
C1034 C1036 1.378 . S
C1034 C1038 1.350 . S
C1035 C1038 1.463 . S
C1035 C1040 1.350 . S
C1035 N1043 1.427 . S
C1036 H1027 0.930 . S
C1036 C1034 1.378 . S
C1036 C1037 1.367 . S
C1037 C1036 1.367 . S
C1037 C1039 1.433 . S
C1038 C1034 1.350 . S
C1038 C1035 1.463 . S
C1038 N1042 1.427 . S
C1039 H1029 0.929 . S
C1039 C1037 1.433 . S
C1039 N1042 1.384 . S
C1040 H1031 0.929 . S
C1040 C1032 1.378 . S
C1040 C1035 1.350 . S
C1041 H1028 0.929 . S
C1041 C1033 1.433 . S
C1041 N1043 1.384 . S
N1042 C1038 1.427 . S
N1042 C1039 1.384 . S
N1043 C1035 1.427 . S
N1043 C1041 1.384 . S
H1044 C1050 0.930 . S
H1045 C1054 0.930 . S
H1046 C1059 0.929 . S
H1047 C1057 0.929 . S
H1048 C1052 0.929 . S
H1049 C1058 0.929 . S
C1050 H1044 0.930 . S
C1050 C1051 1.367 . S
C1050 C1058 1.378 . S
C1051 C1050 1.367 . S
C1051 C1059 1.433 . S
C1052 H1048 0.929 . S
C1052 C1054 1.378 . S
C1052 C1056 1.350 . S
C1053 C1056 1.463 . S
C1053 C1058 1.350 . S
C1053 N1061 1.427 . S
C1054 H1045 0.930 . S
C1054 C1052 1.378 . S
C1054 C1055 1.367 . S
C1055 C1054 1.367 . S
C1055 C1057 1.433 . S
C1056 C1052 1.350 . S
C1056 C1053 1.463 . S
C1056 N1060 1.427 . S
C1057 H1047 0.929 . S
C1057 C1055 1.433 . S
C1057 N1060 1.384 . S
C1058 H1049 0.929 . S
C1058 C1050 1.378 . S
C1058 C1053 1.350 . S
C1059 H1046 0.929 . S
C1059 C1051 1.433 . S
C1059 N1061 1.384 . S
N1060 C1056 1.427 . S
N1060 C1057 1.384 . S
N1061 C1053 1.427 . S
N1061 C1059 1.384 . S
H1062 C1068 0.930 . S
H1063 C1072 0.930 . S
H1064 C1077 0.929 . S
H1065 C1075 0.929 . S
H1066 C1070 0.929 . S
H1067 C1076 0.929 . S
C1068 H1062 0.930 . S
C1068 C1069 1.367 . S
C1068 C1076 1.378 . S
C1069 C1068 1.367 . S
C1069 C1077 1.433 . S
C1070 H1066 0.929 . S
C1070 C1072 1.378 . S
C1070 C1074 1.350 . S
C1071 C1074 1.463 . S
C1071 C1076 1.350 . S
C1071 N1079 1.427 . S
C1072 H1063 0.930 . S
C1072 C1070 1.378 . S
C1072 C1073 1.367 . S
C1073 C1072 1.367 . S
C1073 C1075 1.433 . S
C1074 C1070 1.350 . S
C1074 C1071 1.463 . S
C1074 N1078 1.427 . S
C1075 H1065 0.929 . S
C1075 C1073 1.433 . S
C1075 N1078 1.384 . S
C1076 H1067 0.929 . S
C1076 C1068 1.378 . S
C1076 C1071 1.350 . S
C1077 H1064 0.929 . S
C1077 C1069 1.433 . S
C1077 N1079 1.384 . S
N1078 C1074 1.427 . S
N1078 C1075 1.384 . S
N1079 C1071 1.427 . S
N1079 C1077 1.384 . S
H1080 C1086 0.930 . S
H1081 C1090 0.930 . S
H1082 C1095 0.929 . S
H1083 C1093 0.929 . S
H1084 C1088 0.929 . S
H1085 C1094 0.929 . S
C1086 H1080 0.930 . S
C1086 C1087 1.367 . S
C1086 C1094 1.378 . S
C1087 C1086 1.367 . S
C1087 C1095 1.433 . S
C1088 H1084 0.929 . S
C1088 C1090 1.378 . S
C1088 C1092 1.350 . S
C1089 C1092 1.463 . S
C1089 C1094 1.350 . S
C1089 N1097 1.427 . S
C1090 H1081 0.930 . S
C1090 C1088 1.378 . S
C1090 C1091 1.367 . S
C1091 C1090 1.367 . S
C1091 C1093 1.433 . S
C1092 C1088 1.350 . S
C1092 C1089 1.463 . S
C1092 N1096 1.427 . S
C1093 H1083 0.929 . S
C1093 C1091 1.433 . S
C1093 N1096 1.384 . S
C1094 H1085 0.929 . S
C1094 C1086 1.378 . S
C1094 C1089 1.350 . S
C1095 H1082 0.929 . S
C1095 C1087 1.433 . S
C1095 N1097 1.384 . S
N1096 C1092 1.427 . S
N1096 C1093 1.384 . S
N1097 C1089 1.427 . S
N1097 C1095 1.384 . S
H1098 C1104 0.930 . S
H1099 C1108 0.930 . S
H1100 C1113 0.929 . S
H1101 C1111 0.929 . S
H1102 C1106 0.929 . S
H1103 C1112 0.929 . S
C1104 H1098 0.930 . S
C1104 C1105 1.367 . S
C1104 C1112 1.378 . S
C1105 C1104 1.367 . S
C1105 C1113 1.433 . S
C1106 H1102 0.929 . S
C1106 C1108 1.378 . S
C1106 C1110 1.350 . S
C1107 C1110 1.463 . S
C1107 C1112 1.350 . S
C1107 N1115 1.427 . S
C1108 H1099 0.930 . S
C1108 C1106 1.378 . S
C1108 C1109 1.367 . S
C1109 C1108 1.367 . S
C1109 C1111 1.433 . S
C1110 C1106 1.350 . S
C1110 C1107 1.463 . S
C1110 N1114 1.427 . S
C1111 H1101 0.929 . S
C1111 C1109 1.433 . S
C1111 N1114 1.384 . S
C1112 H1103 0.929 . S
C1112 C1104 1.378 . S
C1112 C1107 1.350 . S
C1113 H1100 0.929 . S
C1113 C1105 1.433 . S
C1113 N1115 1.384 . S
N1114 C1110 1.427 . S
N1114 C1111 1.384 . S
N1115 C1107 1.427 . S
N1115 C1113 1.384 . S
H1116 C1122 0.930 . S
H1117 C1126 0.930 . S
H1118 C1131 0.929 . S
H1119 C1129 0.929 . S
H1120 C1124 0.929 . S
H1121 C1130 0.929 . S
C1122 H1116 0.930 . S
C1122 C1123 1.367 . S
C1122 C1130 1.378 . S
C1123 C1122 1.367 . S
C1123 C1131 1.433 . S
C1124 H1120 0.929 . S
C1124 C1126 1.378 . S
C1124 C1128 1.350 . S
C1125 C1128 1.463 . S
C1125 C1130 1.350 . S
C1125 N1133 1.427 . S
C1126 H1117 0.930 . S
C1126 C1124 1.378 . S
C1126 C1127 1.367 . S
C1127 C1126 1.367 . S
C1127 C1129 1.433 . S
C1128 C1124 1.350 . S
C1128 C1125 1.463 . S
C1128 N1132 1.427 . S
C1129 H1119 0.929 . S
C1129 C1127 1.433 . S
C1129 N1132 1.384 . S
C1130 H1121 0.929 . S
C1130 C1122 1.378 . S
C1130 C1125 1.350 . S
C1131 H1118 0.929 . S
C1131 C1123 1.433 . S
C1131 N1133 1.384 . S
N1132 C1128 1.427 . S
N1132 C1129 1.384 . S
N1133 C1125 1.427 . S
N1133 C1131 1.384 . S
H1134 C1140 0.930 . S
H1135 C1144 0.930 . S
H1136 C1149 0.929 . S
H1137 C1147 0.929 . S
H1138 C1142 0.929 . S
H1139 C1148 0.929 . S
C1140 H1134 0.930 . S
C1140 C1141 1.367 . S
C1140 C1148 1.378 . S
C1141 C1140 1.367 . S
C1141 C1149 1.433 . S
C1142 H1138 0.929 . S
C1142 C1144 1.378 . S
C1142 C1146 1.350 . S
C1143 C1146 1.463 . S
C1143 C1148 1.350 . S
C1143 N1151 1.427 . S
C1144 H1135 0.930 . S
C1144 C1142 1.378 . S
C1144 C1145 1.367 . S
C1145 C1144 1.367 . S
C1145 C1147 1.433 . S
C1146 C1142 1.350 . S
C1146 C1143 1.463 . S
C1146 N1150 1.427 . S
C1147 H1137 0.929 . S
C1147 C1145 1.433 . S
C1147 N1150 1.384 . S
C1148 H1139 0.929 . S
C1148 C1140 1.378 . S
C1148 C1143 1.350 . S
C1149 H1136 0.929 . S
C1149 C1141 1.433 . S
C1149 N1151 1.384 . S
N1150 C1146 1.427 . S
N1150 C1147 1.384 . S
N1151 C1143 1.427 . S
N1151 C1149 1.384 . S
H1152 C1158 0.930 . S
H1153 C1162 0.930 . S
H1154 C1167 0.929 . S
H1155 C1165 0.929 . S
H1156 C1160 0.929 . S
H1157 C1166 0.929 . S
C1158 H1152 0.930 . S
C1158 C1159 1.367 . S
C1158 C1166 1.378 . S
C1159 C1158 1.367 . S
C1159 C1167 1.433 . S
C1160 H1156 0.929 . S
C1160 C1162 1.378 . S
C1160 C1164 1.350 . S
C1161 C1164 1.463 . S
C1161 C1166 1.350 . S
C1161 N1169 1.427 . S
C1162 H1153 0.930 . S
C1162 C1160 1.378 . S
C1162 C1163 1.367 . S
C1163 C1162 1.367 . S
C1163 C1165 1.433 . S
C1164 C1160 1.350 . S
C1164 C1161 1.463 . S
C1164 N1168 1.427 . S
C1165 H1155 0.929 . S
C1165 C1163 1.433 . S
C1165 N1168 1.384 . S
C1166 H1157 0.929 . S
C1166 C1158 1.378 . S
C1166 C1161 1.350 . S
C1167 H1154 0.929 . S
C1167 C1159 1.433 . S
C1167 N1169 1.384 . S
N1168 C1164 1.427 . S
N1168 C1165 1.384 . S
N1169 C1161 1.427 . S
N1169 C1167 1.384 . S
H1170 C1176 0.930 . S
H1171 C1180 0.930 . S
H1172 C1185 0.929 . S
H1173 C1183 0.929 . S
H1174 C1178 0.929 . S
H1175 C1184 0.929 . S
C1176 H1170 0.930 . S
C1176 C1177 1.367 . S
C1176 C1184 1.378 . S
C1177 C1176 1.367 . S
C1177 C1185 1.433 . S
C1178 H1174 0.929 . S
C1178 C1180 1.378 . S
C1178 C1182 1.350 . S
C1179 C1182 1.463 . S
C1179 C1184 1.350 . S
C1179 N1187 1.427 . S
C1180 H1171 0.930 . S
C1180 C1178 1.378 . S
C1180 C1181 1.367 . S
C1181 C1180 1.367 . S
C1181 C1183 1.433 . S
C1182 C1178 1.350 . S
C1182 C1179 1.463 . S
C1182 N1186 1.427 . S
C1183 H1173 0.929 . S
C1183 C1181 1.433 . S
C1183 N1186 1.384 . S
C1184 H1175 0.929 . S
C1184 C1176 1.378 . S
C1184 C1179 1.350 . S
C1185 H1172 0.929 . S
C1185 C1177 1.433 . S
C1185 N1187 1.384 . S
N1186 C1182 1.427 . S
N1186 C1183 1.384 . S
N1187 C1179 1.427 . S
N1187 C1185 1.384 . S
H1188 C1194 0.930 . S
H1189 C1198 0.930 . S
H1190 C1203 0.929 . S
H1191 C1201 0.929 . S
H1192 C1196 0.929 . S
H1193 C1202 0.929 . S
C1194 H1188 0.930 . S
C1194 C1195 1.367 . S
C1194 C1202 1.378 . S
C1195 C1194 1.367 . S
C1195 C1203 1.433 . S
C1196 H1192 0.929 . S
C1196 C1198 1.378 . S
C1196 C1200 1.350 . S
C1197 C1200 1.463 . S
C1197 C1202 1.350 . S
C1197 N1205 1.427 . S
C1198 H1189 0.930 . S
C1198 C1196 1.378 . S
C1198 C1199 1.367 . S
C1199 C1198 1.367 . S
C1199 C1201 1.433 . S
C1200 C1196 1.350 . S
C1200 C1197 1.463 . S
C1200 N1204 1.427 . S
C1201 H1191 0.929 . S
C1201 C1199 1.433 . S
C1201 N1204 1.384 . S
C1202 H1193 0.929 . S
C1202 C1194 1.378 . S
C1202 C1197 1.350 . S
C1203 H1190 0.929 . S
C1203 C1195 1.433 . S
C1203 N1205 1.384 . S
N1204 C1200 1.427 . S
N1204 C1201 1.384 . S
N1205 C1197 1.427 . S
N1205 C1203 1.384 . S
H1206 C1212 0.930 . S
H1207 C1216 0.930 . S
H1208 C1221 0.929 . S
H1209 C1219 0.929 . S
H1210 C1214 0.929 . S
H1211 C1220 0.929 . S
C1212 H1206 0.930 . S
C1212 C1213 1.367 . S
C1212 C1220 1.378 . S
C1213 C1212 1.367 . S
C1213 C1221 1.433 . S
C1214 H1210 0.929 . S
C1214 C1216 1.378 . S
C1214 C1218 1.350 . S
C1215 C1218 1.463 . S
C1215 C1220 1.350 . S
C1215 N1223 1.427 . S
C1216 H1207 0.930 . S
C1216 C1214 1.378 . S
C1216 C1217 1.367 . S
C1217 C1216 1.367 . S
C1217 C1219 1.433 . S
C1218 C1214 1.350 . S
C1218 C1215 1.463 . S
C1218 N1222 1.427 . S
C1219 H1209 0.929 . S
C1219 C1217 1.433 . S
C1219 N1222 1.384 . S
C1220 H1211 0.929 . S
C1220 C1212 1.378 . S
C1220 C1215 1.350 . S
C1221 H1208 0.929 . S
C1221 C1213 1.433 . S
C1221 N1223 1.384 . S
N1222 C1218 1.427 . S
N1222 C1219 1.384 . S
N1223 C1215 1.427 . S
N1223 C1221 1.384 . S
H1224 C1230 0.930 . S
H1225 C1234 0.930 . S
H1226 C1239 0.929 . S
H1227 C1237 0.929 . S
H1228 C1232 0.929 . S
H1229 C1238 0.929 . S
C1230 H1224 0.930 . S
C1230 C1231 1.367 . S
C1230 C1238 1.378 . S
C1231 C1230 1.367 . S
C1231 C1239 1.433 . S
C1232 H1228 0.929 . S
C1232 C1234 1.378 . S
C1232 C1236 1.350 . S
C1233 C1236 1.463 . S
C1233 C1238 1.350 . S
C1233 N1241 1.427 . S
C1234 H1225 0.930 . S
C1234 C1232 1.378 . S
C1234 C1235 1.367 . S
C1235 C1234 1.367 . S
C1235 C1237 1.433 . S
C1236 C1232 1.350 . S
C1236 C1233 1.463 . S
C1236 N1240 1.427 . S
C1237 H1227 0.929 . S
C1237 C1235 1.433 . S
C1237 N1240 1.384 . S
C1238 H1229 0.929 . S
C1238 C1230 1.378 . S
C1238 C1233 1.350 . S
C1239 H1226 0.929 . S
C1239 C1231 1.433 . S
C1239 N1241 1.384 . S
N1240 C1236 1.427 . S
N1240 C1237 1.384 . S
N1241 C1233 1.427 . S
N1241 C1239 1.384 . S
H1242 C1248 0.930 . S
H1243 C1252 0.930 . S
H1244 C1257 0.929 . S
H1245 C1255 0.929 . S
H1246 C1250 0.929 . S
H1247 C1256 0.929 . S
C1248 H1242 0.930 . S
C1248 C1249 1.367 . S
C1248 C1256 1.378 . S
C1249 C1248 1.367 . S
C1249 C1257 1.433 . S
C1250 H1246 0.929 . S
C1250 C1252 1.378 . S
C1250 C1254 1.350 . S
C1251 C1254 1.463 . S
C1251 C1256 1.350 . S
C1251 N1259 1.427 . S
C1252 H1243 0.930 . S
C1252 C1250 1.378 . S
C1252 C1253 1.367 . S
C1253 C1252 1.367 . S
C1253 C1255 1.433 . S
C1254 C1250 1.350 . S
C1254 C1251 1.463 . S
C1254 N1258 1.427 . S
C1255 H1245 0.929 . S
C1255 C1253 1.433 . S
C1255 N1258 1.384 . S
C1256 H1247 0.929 . S
C1256 C1248 1.378 . S
C1256 C1251 1.350 . S
C1257 H1244 0.929 . S
C1257 C1249 1.433 . S
C1257 N1259 1.384 . S
N1258 C1254 1.427 . S
N1258 C1255 1.384 . S
N1259 C1251 1.427 . S
N1259 C1257 1.384 . S
H1260 C1266 0.930 . S
H1261 C1270 0.930 . S
H1262 C1275 0.929 . S
H1263 C1273 0.929 . S
H1264 C1268 0.929 . S
H1265 C1274 0.929 . S
C1266 H1260 0.930 . S
C1266 C1267 1.367 . S
C1266 C1274 1.378 . S
C1267 C1266 1.367 . S
C1267 C1275 1.433 . S
C1268 H1264 0.929 . S
C1268 C1270 1.378 . S
C1268 C1272 1.350 . S
C1269 C1272 1.463 . S
C1269 C1274 1.350 . S
C1269 N1277 1.427 . S
C1270 H1261 0.930 . S
C1270 C1268 1.378 . S
C1270 C1271 1.367 . S
C1271 C1270 1.367 . S
C1271 C1273 1.433 . S
C1272 C1268 1.350 . S
C1272 C1269 1.463 . S
C1272 N1276 1.427 . S
C1273 H1263 0.929 . S
C1273 C1271 1.433 . S
C1273 N1276 1.384 . S
C1274 H1265 0.929 . S
C1274 C1266 1.378 . S
C1274 C1269 1.350 . S
C1275 H1262 0.929 . S
C1275 C1267 1.433 . S
C1275 N1277 1.384 . S
N1276 C1272 1.427 . S
N1276 C1273 1.384 . S
N1277 C1269 1.427 . S
N1277 C1275 1.384 . S
H1278 C1284 0.930 . S
H1279 C1288 0.930 . S
H1280 C1293 0.929 . S
H1281 C1291 0.929 . S
H1282 C1286 0.929 . S
H1283 C1292 0.929 . S
C1284 H1278 0.930 . S
C1284 C1285 1.367 . S
C1284 C1292 1.378 . S
C1285 C1284 1.367 . S
C1285 C1293 1.433 . S
C1286 H1282 0.929 . S
C1286 C1288 1.378 . S
C1286 C1290 1.350 . S
C1287 C1290 1.463 . S
C1287 C1292 1.350 . S
C1287 N1295 1.427 . S
C1288 H1279 0.930 . S
C1288 C1286 1.378 . S
C1288 C1289 1.367 . S
C1289 C1288 1.367 . S
C1289 C1291 1.433 . S
C1290 C1286 1.350 . S
C1290 C1287 1.463 . S
C1290 N1294 1.427 . S
C1291 H1281 0.929 . S
C1291 C1289 1.433 . S
C1291 N1294 1.384 . S
C1292 H1283 0.929 . S
C1292 C1284 1.378 . S
C1292 C1287 1.350 . S
C1293 H1280 0.929 . S
C1293 C1285 1.433 . S
C1293 N1295 1.384 . S
N1294 C1290 1.427 . S
N1294 C1291 1.384 . S
N1295 C1287 1.427 . S
N1295 C1293 1.384 . S
H1296 C1302 0.930 . S
H1297 C1306 0.930 . S
H1298 C1311 0.929 . S
H1299 C1309 0.929 . S
H1300 C1304 0.929 . S
H1301 C1310 0.929 . S
C1302 H1296 0.930 . S
C1302 C1303 1.367 . S
C1302 C1310 1.378 . S
C1303 C1302 1.367 . S
C1303 C1311 1.433 . S
C1304 H1300 0.929 . S
C1304 C1306 1.378 . S
C1304 C1308 1.350 . S
C1305 C1308 1.463 . S
C1305 C1310 1.350 . S
C1305 N1313 1.427 . S
C1306 H1297 0.930 . S
C1306 C1304 1.378 . S
C1306 C1307 1.367 . S
C1307 C1306 1.367 . S
C1307 C1309 1.433 . S
C1308 C1304 1.350 . S
C1308 C1305 1.463 . S
C1308 N1312 1.427 . S
C1309 H1299 0.929 . S
C1309 C1307 1.433 . S
C1309 N1312 1.384 . S
C1310 H1301 0.929 . S
C1310 C1302 1.378 . S
C1310 C1305 1.350 . S
C1311 H1298 0.929 . S
C1311 C1303 1.433 . S
C1311 N1313 1.384 . S
N1312 C1308 1.427 . S
N1312 C1309 1.384 . S
N1313 C1305 1.427 . S
N1313 C1311 1.384 . S
H1314 C1320 0.930 . S
H1315 C1324 0.930 . S
H1316 C1329 0.929 . S
H1317 C1327 0.929 . S
H1318 C1322 0.929 . S
H1319 C1328 0.929 . S
C1320 H1314 0.930 . S
C1320 C1321 1.367 . S
C1320 C1328 1.378 . S
C1321 C1320 1.367 . S
C1321 C1329 1.433 . S
C1322 H1318 0.929 . S
C1322 C1324 1.378 . S
C1322 C1326 1.350 . S
C1323 C1326 1.463 . S
C1323 C1328 1.350 . S
C1323 N1331 1.427 . S
C1324 H1315 0.930 . S
C1324 C1322 1.378 . S
C1324 C1325 1.367 . S
C1325 C1324 1.367 . S
C1325 C1327 1.433 . S
C1326 C1322 1.350 . S
C1326 C1323 1.463 . S
C1326 N1330 1.427 . S
C1327 H1317 0.929 . S
C1327 C1325 1.433 . S
C1327 N1330 1.384 . S
C1328 H1319 0.929 . S
C1328 C1320 1.378 . S
C1328 C1323 1.350 . S
C1329 H1316 0.929 . S
C1329 C1321 1.433 . S
C1329 N1331 1.384 . S
N1330 C1326 1.427 . S
N1330 C1327 1.384 . S
N1331 C1323 1.427 . S
N1331 C1329 1.384 . S
H1332 C1338 0.930 . S
H1333 C1342 0.930 . S
H1334 C1347 0.929 . S
H1335 C1345 0.929 . S
H1336 C1340 0.929 . S
H1337 C1346 0.929 . S
C1338 H1332 0.930 . S
C1338 C1339 1.367 . S
C1338 C1346 1.378 . S
C1339 C1338 1.367 . S
C1339 C1347 1.433 . S
C1340 H1336 0.929 . S
C1340 C1342 1.378 . S
C1340 C1344 1.350 . S
C1341 C1344 1.463 . S
C1341 C1346 1.350 . S
C1341 N1349 1.427 . S
C1342 H1333 0.930 . S
C1342 C1340 1.378 . S
C1342 C1343 1.367 . S
C1343 C1342 1.367 . S
C1343 C1345 1.433 . S
C1344 C1340 1.350 . S
C1344 C1341 1.463 . S
C1344 N1348 1.427 . S
C1345 H1335 0.929 . S
C1345 C1343 1.433 . S
C1345 N1348 1.384 . S
C1346 H1337 0.929 . S
C1346 C1338 1.378 . S
C1346 C1341 1.350 . S
C1347 H1334 0.929 . S
C1347 C1339 1.433 . S
C1347 N1349 1.384 . S
N1348 C1344 1.427 . S
N1348 C1345 1.384 . S
N1349 C1341 1.427 . S
N1349 C1347 1.384 . S
H1350 C1356 0.930 . S
H1351 C1360 0.930 . S
H1352 C1365 0.929 . S
H1353 C1363 0.929 . S
H1354 C1358 0.929 . S
H1355 C1364 0.929 . S
C1356 H1350 0.930 . S
C1356 C1357 1.367 . S
C1356 C1364 1.378 . S
C1357 C1356 1.367 . S
C1357 C1365 1.433 . S
C1358 H1354 0.929 . S
C1358 C1360 1.378 . S
C1358 C1362 1.350 . S
C1359 C1362 1.463 . S
C1359 C1364 1.350 . S
C1359 N1367 1.427 . S
C1360 H1351 0.930 . S
C1360 C1358 1.378 . S
C1360 C1361 1.367 . S
C1361 C1360 1.367 . S
C1361 C1363 1.433 . S
C1362 C1358 1.350 . S
C1362 C1359 1.463 . S
C1362 N1366 1.427 . S
C1363 H1353 0.929 . S
C1363 C1361 1.433 . S
C1363 N1366 1.384 . S
C1364 H1355 0.929 . S
C1364 C1356 1.378 . S
C1364 C1359 1.350 . S
C1365 H1352 0.929 . S
C1365 C1357 1.433 . S
C1365 N1367 1.384 . S
N1366 C1362 1.427 . S
N1366 C1363 1.384 . S
N1367 C1359 1.427 . S
N1367 C1365 1.384 . S
H1368 C1374 0.930 . S
H1369 C1378 0.930 . S
H1370 C1383 0.929 . S
H1371 C1381 0.929 . S
H1372 C1376 0.929 . S
H1373 C1382 0.929 . S
C1374 H1368 0.930 . S
C1374 C1375 1.367 . S
C1374 C1382 1.378 . S
C1375 C1374 1.367 . S
C1375 C1383 1.433 . S
C1376 H1372 0.929 . S
C1376 C1378 1.378 . S
C1376 C1380 1.350 . S
C1377 C1380 1.463 . S
C1377 C1382 1.350 . S
C1377 N1385 1.427 . S
C1378 H1369 0.930 . S
C1378 C1376 1.378 . S
C1378 C1379 1.367 . S
C1379 C1378 1.367 . S
C1379 C1381 1.433 . S
C1380 C1376 1.350 . S
C1380 C1377 1.463 . S
C1380 N1384 1.427 . S
C1381 H1371 0.929 . S
C1381 C1379 1.433 . S
C1381 N1384 1.384 . S
C1382 H1373 0.929 . S
C1382 C1374 1.378 . S
C1382 C1377 1.350 . S
C1383 H1370 0.929 . S
C1383 C1375 1.433 . S
C1383 N1385 1.384 . S
N1384 C1380 1.427 . S
N1384 C1381 1.384 . S
N1385 C1377 1.427 . S
N1385 C1383 1.384 . S
H1386 C1392 0.930 . S
H1387 C1396 0.930 . S
H1388 C1401 0.929 . S
H1389 C1399 0.929 . S
H1390 C1394 0.929 . S
H1391 C1400 0.929 . S
C1392 H1386 0.930 . S
C1392 C1393 1.367 . S
C1392 C1400 1.378 . S
C1393 C1392 1.367 . S
C1393 C1401 1.433 . S
C1394 H1390 0.929 . S
C1394 C1396 1.378 . S
C1394 C1398 1.350 . S
C1395 C1398 1.463 . S
C1395 C1400 1.350 . S
C1395 N1403 1.427 . S
C1396 H1387 0.930 . S
C1396 C1394 1.378 . S
C1396 C1397 1.367 . S
C1397 C1396 1.367 . S
C1397 C1399 1.433 . S
C1398 C1394 1.350 . S
C1398 C1395 1.463 . S
C1398 N1402 1.427 . S
C1399 H1389 0.929 . S
C1399 C1397 1.433 . S
C1399 N1402 1.384 . S
C1400 H1391 0.929 . S
C1400 C1392 1.378 . S
C1400 C1395 1.350 . S
C1401 H1388 0.929 . S
C1401 C1393 1.433 . S
C1401 N1403 1.384 . S
N1402 C1398 1.427 . S
N1402 C1399 1.384 . S
N1403 C1395 1.427 . S
N1403 C1401 1.384 . S
H1404 C1410 0.930 . S
H1405 C1414 0.930 . S
H1406 C1419 0.929 . S
H1407 C1417 0.929 . S
H1408 C1412 0.929 . S
H1409 C1418 0.929 . S
C1410 H1404 0.930 . S
C1410 C1411 1.367 . S
C1410 C1418 1.378 . S
C1411 C1410 1.367 . S
C1411 C1419 1.433 . S
C1412 H1408 0.929 . S
C1412 C1414 1.378 . S
C1412 C1416 1.350 . S
C1413 C1416 1.463 . S
C1413 C1418 1.350 . S
C1413 N1421 1.427 . S
C1414 H1405 0.930 . S
C1414 C1412 1.378 . S
C1414 C1415 1.367 . S
C1415 C1414 1.367 . S
C1415 C1417 1.433 . S
C1416 C1412 1.350 . S
C1416 C1413 1.463 . S
C1416 N1420 1.427 . S
C1417 H1407 0.929 . S
C1417 C1415 1.433 . S
C1417 N1420 1.384 . S
C1418 H1409 0.929 . S
C1418 C1410 1.378 . S
C1418 C1413 1.350 . S
C1419 H1406 0.929 . S
C1419 C1411 1.433 . S
C1419 N1421 1.384 . S
N1420 C1416 1.427 . S
N1420 C1417 1.384 . S
N1421 C1413 1.427 . S
N1421 C1419 1.384 . S
H1422 C1428 0.930 . S
H1423 C1432 0.930 . S
H1424 C1437 0.929 . S
H1425 C1435 0.929 . S
H1426 C1430 0.929 . S
H1427 C1436 0.929 . S
C1428 H1422 0.930 . S
C1428 C1429 1.367 . S
C1428 C1436 1.378 . S
C1429 C1428 1.367 . S
C1429 C1437 1.433 . S
C1430 H1426 0.929 . S
C1430 C1432 1.378 . S
C1430 C1434 1.350 . S
C1431 C1434 1.463 . S
C1431 C1436 1.350 . S
C1431 N1439 1.427 . S
C1432 H1423 0.930 . S
C1432 C1430 1.378 . S
C1432 C1433 1.367 . S
C1433 C1432 1.367 . S
C1433 C1435 1.433 . S
C1434 C1430 1.350 . S
C1434 C1431 1.463 . S
C1434 N1438 1.427 . S
C1435 H1425 0.929 . S
C1435 C1433 1.433 . S
C1435 N1438 1.384 . S
C1436 H1427 0.929 . S
C1436 C1428 1.378 . S
C1436 C1431 1.350 . S
C1437 H1424 0.929 . S
C1437 C1429 1.433 . S
C1437 N1439 1.384 . S
N1438 C1434 1.427 . S
N1438 C1435 1.384 . S
N1439 C1431 1.427 . S
N1439 C1437 1.384 . S
H1440 C1446 0.930 . S
H1441 C1450 0.930 . S
H1442 C1455 0.929 . S
H1443 C1453 0.929 . S
H1444 C1448 0.929 . S
H1445 C1454 0.929 . S
C1446 H1440 0.930 . S
C1446 C1447 1.367 . S
C1446 C1454 1.378 . S
C1447 C1446 1.367 . S
C1447 C1455 1.433 . S
C1448 H1444 0.929 . S
C1448 C1450 1.378 . S
C1448 C1452 1.350 . S
C1449 C1452 1.463 . S
C1449 C1454 1.350 . S
C1449 N1457 1.427 . S
C1450 H1441 0.930 . S
C1450 C1448 1.378 . S
C1450 C1451 1.367 . S
C1451 C1450 1.367 . S
C1451 C1453 1.433 . S
C1452 C1448 1.350 . S
C1452 C1449 1.463 . S
C1452 N1456 1.427 . S
C1453 H1443 0.929 . S
C1453 C1451 1.433 . S
C1453 N1456 1.384 . S
C1454 H1445 0.929 . S
C1454 C1446 1.378 . S
C1454 C1449 1.350 . S
C1455 H1442 0.929 . S
C1455 C1447 1.433 . S
C1455 N1457 1.384 . S
N1456 C1452 1.427 . S
N1456 C1453 1.384 . S
N1457 C1449 1.427 . S
N1457 C1455 1.384 . S
H1458 C1464 0.930 . S
H1459 C1468 0.930 . S
H1460 C1473 0.929 . S
H1461 C1471 0.929 . S
H1462 C1466 0.929 . S
H1463 C1472 0.929 . S
C1464 H1458 0.930 . S
C1464 C1465 1.367 . S
C1464 C1472 1.378 . S
C1465 C1464 1.367 . S
C1465 C1473 1.433 . S
C1466 H1462 0.929 . S
C1466 C1468 1.378 . S
C1466 C1470 1.350 . S
C1467 C1470 1.463 . S
C1467 C1472 1.350 1_545 S
C1467 N1475 1.427 1_545 S
C1468 H1459 0.930 . S
C1468 C1466 1.378 . S
C1468 C1469 1.367 . S
C1469 C1468 1.367 . S
C1469 C1471 1.433 . S
C1470 C1466 1.350 . S
C1470 C1467 1.463 . S
C1470 N1474 1.427 . S
C1471 H1461 0.929 . S
C1471 C1469 1.433 . S
C1471 N1474 1.384 . S
C1472 H1463 0.929 . S
C1472 C1464 1.378 . S
C1472 C1467 1.350 1_565 S
C1473 H1460 0.929 . S
C1473 C1465 1.433 . S
C1473 N1475 1.384 . S
N1474 C1470 1.427 . S
N1474 C1471 1.384 . S
N1475 C1467 1.427 1_565 S
N1475 C1473 1.384 . S
H1476 C1482 0.930 . S
H1477 C1486 0.930 . S
H1478 C1491 0.929 . S
H1479 C1489 0.929 . S
H1480 C1484 0.929 . S
H1481 C1490 0.929 . S
C1482 H1476 0.930 . S
C1482 C1483 1.367 . S
C1482 C1490 1.378 . S
C1483 C1482 1.367 . S
C1483 C1491 1.433 . S
C1484 H1480 0.929 . S
C1484 C1486 1.378 . S
C1484 C1488 1.350 1_455 S
C1485 C1488 1.463 . S
C1485 C1490 1.350 . S
C1485 N1493 1.427 . S
C1486 H1477 0.930 . S
C1486 C1484 1.378 . S
C1486 C1487 1.367 . S
C1487 C1486 1.367 . S
C1487 C1489 1.433 . S
C1488 C1484 1.350 1_655 S
C1488 C1485 1.463 . S
C1488 N1492 1.427 1_655 S
C1489 H1479 0.929 . S
C1489 C1487 1.433 . S
C1489 N1492 1.384 . S
C1490 H1481 0.929 . S
C1490 C1482 1.378 . S
C1490 C1485 1.350 . S
C1491 H1478 0.929 . S
C1491 C1483 1.433 . S
C1491 N1493 1.384 . S
N1492 C1488 1.427 1_455 S
N1492 C1489 1.384 . S
N1493 C1485 1.427 . S
N1493 C1491 1.384 . S
H1494 C1500 0.930 . S
H1495 C1504 0.930 . S
H1496 C1509 0.929 . S
H1497 C1507 0.929 . S
H1498 C1502 0.929 . S
H1499 C1508 0.929 . S
C1500 H1494 0.930 . S
C1500 C1501 1.367 . S
C1500 C1508 1.378 . S
C1501 C1500 1.367 . S
C1501 C1509 1.433 . S
C1502 H1498 0.929 . S
C1502 C1504 1.378 . S
C1502 C1506 1.350 . S
C1503 C1506 1.463 . S
C1503 C1508 1.350 . S
C1503 N1511 1.427 . S
C1504 H1495 0.930 . S
C1504 C1502 1.378 . S
C1504 C1505 1.367 . S
C1505 C1504 1.367 . S
C1505 C1507 1.433 . S
C1506 C1502 1.350 . S
C1506 C1503 1.463 . S
C1506 N1510 1.427 . S
C1507 H1497 0.929 . S
C1507 C1505 1.433 . S
C1507 N1510 1.384 . S
C1508 H1499 0.929 . S
C1508 C1500 1.378 . S
C1508 C1503 1.350 . S
C1509 H1496 0.929 . S
C1509 C1501 1.433 . S
C1509 N1511 1.384 . S
N1510 C1506 1.427 . S
N1510 C1507 1.384 . S
N1511 C1503 1.427 . S
N1511 C1509 1.384 . S
H1512 C1518 0.930 . S
H1513 C1522 0.930 . S
H1514 C1527 0.929 . S
H1515 C1525 0.929 . S
H1516 C1520 0.929 . S
H1517 C1526 0.931 . S
C1518 H1512 0.930 . S
C1518 C1519 1.367 . S
C1518 C1526 1.378 . S
C1519 C1518 1.367 . S
C1519 C1527 1.433 . S
C1520 H1516 0.929 . S
C1520 C1522 1.378 . S
C1520 C1524 1.350 . S
C1521 C1524 1.463 . S
C1521 C1526 1.350 1_565 S
C1521 N1529 1.427 1_565 S
C1522 H1513 0.930 . S
C1522 C1520 1.378 . S
C1522 C1523 1.367 . S
C1523 C1522 1.367 . S
C1523 C1525 1.433 . S
C1524 C1520 1.350 . S
C1524 C1521 1.463 . S
C1524 N1528 1.427 . S
C1525 H1515 0.929 . S
C1525 C1523 1.433 . S
C1525 N1528 1.384 . S
C1526 H1517 0.931 . S
C1526 C1518 1.378 . S
C1526 C1521 1.350 1_545 S
C1527 H1514 0.929 . S
C1527 C1519 1.433 . S
C1527 N1529 1.384 . S
N1528 C1524 1.427 . S
N1528 C1525 1.384 . S
N1529 C1521 1.427 1_545 S
N1529 C1527 1.384 . S
H1530 C1536 0.930 . S
H1531 C1540 0.930 . S
H1532 C1545 0.929 . S
H1533 C1543 0.929 . S
H1534 C1538 0.930 1_455 S
H1535 C1544 0.929 . S
C1536 H1530 0.930 . S
C1536 C1537 1.367 . S
C1536 C1544 1.378 . S
C1537 C1536 1.367 . S
C1537 C1545 1.433 . S
C1538 H1534 0.930 1_655 S
C1538 C1540 1.378 . S
C1538 C1542 1.350 1_655 S
C1539 C1542 1.463 . S
C1539 C1544 1.350 . S
C1539 N1547 1.427 . S
C1540 H1531 0.930 . S
C1540 C1538 1.378 . S
C1540 C1541 1.367 . S
C1541 C1540 1.367 . S
C1541 C1543 1.433 . S
C1542 C1538 1.350 1_455 S
C1542 C1539 1.463 . S
C1542 N1546 1.427 1_455 S
C1543 H1533 0.929 . S
C1543 C1541 1.433 . S
C1543 N1546 1.384 . S
C1544 H1535 0.929 . S
C1544 C1536 1.378 . S
C1544 C1539 1.350 . S
C1545 H1532 0.929 . S
C1545 C1537 1.433 . S
C1545 N1547 1.384 . S
N1546 C1542 1.427 1_655 S
N1546 C1543 1.384 . S
N1547 C1539 1.427 . S
N1547 C1545 1.384 . S
H1548 C1554 0.930 . S
H1549 C1558 0.930 . S
H1550 C1563 0.929 . S
H1551 C1561 0.929 . S
H1552 C1556 0.929 . S
H1553 C1562 0.929 . S
C1554 H1548 0.930 . S
C1554 C1555 1.367 . S
C1554 C1562 1.378 . S
C1555 C1554 1.367 . S
C1555 C1563 1.433 . S
C1556 H1552 0.929 . S
C1556 C1558 1.378 . S
C1556 C1560 1.350 . S
C1557 C1560 1.463 . S
C1557 C1562 1.350 . S
C1557 N1565 1.427 . S
C1558 H1549 0.930 . S
C1558 C1556 1.378 . S
C1558 C1559 1.367 . S
C1559 C1558 1.367 . S
C1559 C1561 1.433 . S
C1560 C1556 1.350 . S
C1560 C1557 1.463 . S
C1560 N1564 1.427 . S
C1561 H1551 0.929 . S
C1561 C1559 1.433 . S
C1561 N1564 1.384 . S
C1562 H1553 0.929 . S
C1562 C1554 1.378 . S
C1562 C1557 1.350 . S
C1563 H1550 0.929 . S
C1563 C1555 1.433 . S
C1563 N1565 1.384 . S
N1564 C1560 1.427 . S
N1564 C1561 1.384 . S
N1565 C1557 1.427 . S
N1565 C1563 1.384 . S
H1566 C1572 0.930 . S
H1567 C1576 0.930 . S
H1568 C1581 0.929 . S
H1569 C1579 0.929 . S
H1570 C1574 0.929 . S
H1571 C1580 0.929 . S
C1572 H1566 0.930 . S
C1572 C1573 1.367 . S
C1572 C1580 1.378 . S
C1573 C1572 1.367 . S
C1573 C1581 1.433 . S
C1574 H1570 0.929 . S
C1574 C1576 1.378 . S
C1574 C1578 1.350 . S
C1575 C1578 1.463 . S
C1575 C1580 1.350 1_565 S
C1575 N1583 1.427 1_565 S
C1576 H1567 0.930 . S
C1576 C1574 1.378 . S
C1576 C1577 1.367 . S
C1577 C1576 1.367 . S
C1577 C1579 1.433 . S
C1578 C1574 1.350 . S
C1578 C1575 1.463 . S
C1578 N1582 1.427 . S
C1579 H1569 0.929 . S
C1579 C1577 1.433 . S
C1579 N1582 1.384 . S
C1580 H1571 0.929 . S
C1580 C1572 1.378 . S
C1580 C1575 1.350 1_545 S
C1581 H1568 0.929 . S
C1581 C1573 1.433 . S
C1581 N1583 1.384 . S
N1582 C1578 1.427 . S
N1582 C1579 1.384 . S
N1583 C1575 1.427 1_545 S
N1583 C1581 1.384 . S
H1584 C1590 0.930 . S
H1585 C1594 0.930 . S
H1586 C1599 0.929 . S
H1587 C1597 0.929 . S
H1588 C1592 0.929 . S
H1589 C1598 0.927 1_455 S
C1590 H1584 0.930 . S
C1590 C1591 1.367 . S
C1590 C1598 1.378 . S
C1591 C1590 1.367 . S
C1591 C1599 1.433 . S
C1592 H1588 0.929 . S
C1592 C1594 1.378 . S
C1592 C1596 1.350 . S
C1593 C1596 1.463 . S
C1593 C1598 1.350 1_455 S
C1593 N1601 1.427 1_455 S
C1594 H1585 0.930 . S
C1594 C1592 1.378 . S
C1594 C1595 1.367 . S
C1595 C1594 1.367 . S
C1595 C1597 1.433 . S
C1596 C1592 1.350 . S
C1596 C1593 1.463 . S
C1596 N1600 1.427 . S
C1597 H1587 0.929 . S
C1597 C1595 1.433 . S
C1597 N1600 1.384 . S
C1598 H1589 0.927 1_655 S
C1598 C1590 1.378 . S
C1598 C1593 1.350 1_655 S
C1599 H1586 0.929 . S
C1599 C1591 1.433 . S
C1599 N1601 1.384 . S
N1600 C1596 1.427 . S
N1600 C1597 1.384 . S
N1601 C1593 1.427 1_655 S
N1601 C1599 1.384 . S
H1602 C1608 0.930 . S
H1603 C1612 0.930 . S
H1604 C1617 0.929 . S
H1605 C1615 0.929 . S
H1606 C1610 0.929 . S
H1607 C1616 0.929 . S
C1608 H1602 0.930 . S
C1608 C1609 1.367 . S
C1608 C1616 1.378 . S
C1609 C1608 1.367 . S
C1609 C1617 1.433 . S
C1610 H1606 0.929 . S
C1610 C1612 1.378 . S
C1610 C1614 1.350 . S
C1611 C1614 1.463 . S
C1611 C1616 1.350 . S
C1611 N1619 1.427 . S
C1612 H1603 0.930 . S
C1612 C1610 1.378 . S
C1612 C1613 1.367 . S
C1613 C1612 1.367 . S
C1613 C1615 1.433 . S
C1614 C1610 1.350 . S
C1614 C1611 1.463 . S
C1614 N1618 1.427 . S
C1615 H1605 0.929 . S
C1615 C1613 1.433 . S
C1615 N1618 1.384 . S
C1616 H1607 0.929 . S
C1616 C1608 1.378 . S
C1616 C1611 1.350 . S
C1617 H1604 0.929 . S
C1617 C1609 1.433 . S
C1617 N1619 1.384 . S
N1618 C1614 1.427 . S
N1618 C1615 1.384 . S
N1619 C1611 1.427 . S
N1619 C1617 1.384 . S
H1620 C1626 0.930 . S
H1621 C1630 0.930 . S
H1622 C1635 0.929 . S
H1623 C1633 0.929 . S
H1624 C1628 0.929 . S
H1625 C1634 0.927 1_545 S
C1626 H1620 0.930 . S
C1626 C1627 1.367 . S
C1626 C1634 1.378 . S
C1627 C1626 1.367 . S
C1627 C1635 1.433 . S
C1628 H1624 0.929 . S
C1628 C1630 1.378 . S
C1628 C1632 1.350 . S
C1629 C1632 1.463 . S
C1629 C1634 1.350 1_545 S
C1629 N1637 1.427 1_545 S
C1630 H1621 0.930 . S
C1630 C1628 1.378 . S
C1630 C1631 1.367 . S
C1631 C1630 1.367 . S
C1631 C1633 1.433 . S
C1632 C1628 1.350 . S
C1632 C1629 1.463 . S
C1632 N1636 1.427 . S
C1633 H1623 0.929 . S
C1633 C1631 1.433 . S
C1633 N1636 1.384 . S
C1634 H1625 0.927 1_565 S
C1634 C1626 1.378 . S
C1634 C1629 1.350 1_565 S
C1635 H1622 0.929 . S
C1635 C1627 1.433 . S
C1635 N1637 1.384 . S
N1636 C1632 1.427 . S
N1636 C1633 1.384 . S
N1637 C1629 1.427 1_565 S
N1637 C1635 1.384 . S
H1638 C1644 0.930 . S
H1639 C1648 0.930 . S
H1640 C1653 0.929 . S
H1641 C1651 0.929 . S
H1642 C1646 0.914 1_655 S
H1643 C1652 0.929 . S
C1644 H1638 0.930 . S
C1644 C1645 1.367 . S
C1644 C1652 1.378 . S
C1645 C1644 1.367 . S
C1645 C1653 1.433 . S
C1646 H1642 0.914 1_455 S
C1646 C1648 1.378 . S
C1646 C1650 1.350 1_455 S
C1647 C1650 1.463 . S
C1647 C1652 1.350 . S
C1647 N1655 1.427 . S
C1648 H1639 0.930 . S
C1648 C1646 1.378 . S
C1648 C1649 1.367 . S
C1649 C1648 1.367 . S
C1649 C1651 1.433 . S
C1650 C1646 1.350 1_655 S
C1650 C1647 1.463 . S
C1650 N1654 1.427 1_655 S
C1651 H1641 0.929 . S
C1651 C1649 1.433 . S
C1651 N1654 1.384 . S
C1652 H1643 0.929 . S
C1652 C1644 1.378 . S
C1652 C1647 1.350 . S
C1653 H1640 0.929 . S
C1653 C1645 1.433 . S
C1653 N1655 1.384 . S
N1654 C1650 1.427 1_455 S
N1654 C1651 1.384 . S
N1655 C1647 1.427 . S
N1655 C1653 1.384 . S
H1656 C1662 0.930 . S
H1657 C1666 0.930 . S
H1658 C1671 0.929 . S
H1659 C1669 0.929 . S
H1660 C1664 0.929 . S
H1661 C1670 0.929 . S
C1662 H1656 0.930 . S
C1662 C1663 1.367 . S
C1662 C1670 1.378 . S
C1663 C1662 1.367 . S
C1663 C1671 1.433 . S
C1664 H1660 0.929 . S
C1664 C1666 1.378 . S
C1664 C1668 1.350 . S
C1665 C1668 1.463 . S
C1665 C1670 1.350 . S
C1665 N1673 1.427 . S
C1666 H1657 0.930 . S
C1666 C1664 1.378 . S
C1666 C1667 1.367 . S
C1667 C1666 1.367 . S
C1667 C1669 1.433 . S
C1668 C1664 1.350 . S
C1668 C1665 1.463 . S
C1668 N1672 1.427 . S
C1669 H1659 0.929 . S
C1669 C1667 1.433 . S
C1669 N1672 1.384 . S
C1670 H1661 0.929 . S
C1670 C1662 1.378 . S
C1670 C1665 1.350 . S
C1671 H1658 0.929 . S
C1671 C1663 1.433 . S
C1671 N1673 1.384 . S
N1672 C1668 1.427 . S
N1672 C1669 1.384 . S
N1673 C1665 1.427 . S
N1673 C1671 1.384 . S
H1674 C1680 0.930 . S
H1675 C1684 0.930 . S
H1676 C1689 0.929 . S
H1677 C1687 0.929 . S
H1678 C1682 0.929 . S
H1679 C1688 0.929 . S
C1680 H1674 0.930 . S
C1680 C1681 1.367 . S
C1680 C1688 1.378 . S
C1681 C1680 1.367 . S
C1681 C1689 1.433 . S
C1682 H1678 0.929 . S
C1682 C1684 1.378 . S
C1682 C1686 1.350 . S
C1683 C1686 1.463 . S
C1683 C1688 1.350 . S
C1683 N1691 1.427 . S
C1684 H1675 0.930 . S
C1684 C1682 1.378 . S
C1684 C1685 1.367 . S
C1685 C1684 1.367 . S
C1685 C1687 1.433 . S
C1686 C1682 1.350 . S
C1686 C1683 1.463 . S
C1686 N1690 1.427 . S
C1687 H1677 0.929 . S
C1687 C1685 1.433 . S
C1687 N1690 1.384 . S
C1688 H1679 0.929 . S
C1688 C1680 1.378 . S
C1688 C1683 1.350 . S
C1689 H1676 0.929 . S
C1689 C1681 1.433 . S
C1689 N1691 1.384 . S
N1690 C1686 1.427 . S
N1690 C1687 1.384 . S
N1691 C1683 1.427 . S
N1691 C1689 1.384 . S
H1692 C1698 0.930 . S
H1693 C1702 0.930 . S
H1694 C1707 0.929 . S
H1695 C1705 0.929 . S
H1696 C1700 0.929 . S
H1697 C1706 0.929 . S
C1698 H1692 0.930 . S
C1698 C1699 1.367 . S
C1698 C1706 1.378 . S
C1699 C1698 1.367 . S
C1699 C1707 1.433 . S
C1700 H1696 0.929 . S
C1700 C1702 1.378 . S
C1700 C1704 1.350 . S
C1701 C1704 1.463 . S
C1701 C1706 1.350 . S
C1701 N1709 1.427 . S
C1702 H1693 0.930 . S
C1702 C1700 1.378 . S
C1702 C1703 1.367 . S
C1703 C1702 1.367 . S
C1703 C1705 1.433 . S
C1704 C1700 1.350 . S
C1704 C1701 1.463 . S
C1704 N1708 1.427 . S
C1705 H1695 0.929 . S
C1705 C1703 1.433 . S
C1705 N1708 1.384 . S
C1706 H1697 0.929 . S
C1706 C1698 1.378 . S
C1706 C1701 1.350 . S
C1707 H1694 0.929 . S
C1707 C1699 1.433 . S
C1707 N1709 1.384 . S
N1708 C1704 1.427 . S
N1708 C1705 1.384 . S
N1709 C1701 1.427 . S
N1709 C1707 1.384 . S
H1710 C1716 0.930 . S
H1711 C1720 0.930 . S
H1712 C1725 0.929 . S
H1713 C1723 0.929 . S
H1714 C1718 0.929 . S
H1715 C1724 0.929 . S
C1716 H1710 0.930 . S
C1716 C1717 1.367 . S
C1716 C1724 1.378 . S
C1717 C1716 1.367 . S
C1717 C1725 1.433 . S
C1718 H1714 0.929 . S
C1718 C1720 1.378 . S
C1718 C1722 1.350 . S
C1719 C1722 1.463 . S
C1719 C1724 1.350 . S
C1719 N1727 1.427 . S
C1720 H1711 0.930 . S
C1720 C1718 1.378 . S
C1720 C1721 1.367 . S
C1721 C1720 1.367 . S
C1721 C1723 1.433 . S
C1722 C1718 1.350 . S
C1722 C1719 1.463 . S
C1722 N1726 1.427 . S
C1723 H1713 0.929 . S
C1723 C1721 1.433 . S
C1723 N1726 1.384 . S
C1724 H1715 0.929 . S
C1724 C1716 1.378 . S
C1724 C1719 1.350 . S
C1725 H1712 0.929 . S
C1725 C1717 1.433 . S
C1725 N1727 1.384 . S
N1726 C1722 1.427 . S
N1726 C1723 1.384 . S
N1727 C1719 1.427 . S
N1727 C1725 1.384 . S
H1728 C1734 0.930 . S
H1729 C1738 0.930 . S
H1730 C1743 0.929 . S
H1731 C1741 0.929 . S
H1732 C1736 0.929 . S
H1733 C1742 0.929 . S
C1734 H1728 0.930 . S
C1734 C1735 1.367 . S
C1734 C1742 1.378 . S
C1735 C1734 1.367 . S
C1735 C1743 1.433 . S
C1736 H1732 0.929 . S
C1736 C1738 1.378 . S
C1736 C1740 1.350 . S
C1737 C1740 1.463 . S
C1737 C1742 1.350 . S
C1737 N1745 1.427 . S
C1738 H1729 0.930 . S
C1738 C1736 1.378 . S
C1738 C1739 1.367 . S
C1739 C1738 1.367 . S
C1739 C1741 1.433 . S
C1740 C1736 1.350 . S
C1740 C1737 1.463 . S
C1740 N1744 1.427 . S
C1741 H1731 0.929 . S
C1741 C1739 1.433 . S
C1741 N1744 1.384 . S
C1742 H1733 0.929 . S
C1742 C1734 1.378 . S
C1742 C1737 1.350 . S
C1743 H1730 0.929 . S
C1743 C1735 1.433 . S
C1743 N1745 1.384 . S
N1744 C1740 1.427 . S
N1744 C1741 1.384 . S
N1745 C1737 1.427 . S
N1745 C1743 1.384 . S
H1746 C1752 0.930 . S
H1747 C1756 0.930 . S
H1748 C1761 0.929 . S
H1749 C1759 0.929 . S
H1750 C1754 0.929 . S
H1751 C1760 0.929 . S
C1752 H1746 0.930 . S
C1752 C1753 1.367 . S
C1752 C1760 1.378 . S
C1753 C1752 1.367 . S
C1753 C1761 1.433 . S
C1754 H1750 0.929 . S
C1754 C1756 1.378 . S
C1754 C1758 1.350 . S
C1755 C1758 1.463 . S
C1755 C1760 1.350 . S
C1755 N1763 1.427 . S
C1756 H1747 0.930 . S
C1756 C1754 1.378 . S
C1756 C1757 1.367 . S
C1757 C1756 1.367 . S
C1757 C1759 1.433 . S
C1758 C1754 1.350 . S
C1758 C1755 1.463 . S
C1758 N1762 1.427 . S
C1759 H1749 0.929 . S
C1759 C1757 1.433 . S
C1759 N1762 1.384 . S
C1760 H1751 0.929 . S
C1760 C1752 1.378 . S
C1760 C1755 1.350 . S
C1761 H1748 0.929 . S
C1761 C1753 1.433 . S
C1761 N1763 1.384 . S
N1762 C1758 1.427 . S
N1762 C1759 1.384 . S
N1763 C1755 1.427 . S
N1763 C1761 1.384 . S
H1764 C1770 0.930 . S
H1765 C1774 0.930 . S
H1766 C1779 0.929 . S
H1767 C1777 0.929 . S
H1768 C1772 0.929 . S
H1769 C1778 0.929 . S
C1770 H1764 0.930 . S
C1770 C1771 1.367 . S
C1770 C1778 1.378 . S
C1771 C1770 1.367 . S
C1771 C1779 1.433 . S
C1772 H1768 0.929 . S
C1772 C1774 1.378 . S
C1772 C1776 1.350 . S
C1773 C1776 1.463 . S
C1773 C1778 1.350 . S
C1773 N1781 1.427 . S
C1774 H1765 0.930 . S
C1774 C1772 1.378 . S
C1774 C1775 1.367 . S
C1775 C1774 1.367 . S
C1775 C1777 1.433 . S
C1776 C1772 1.350 . S
C1776 C1773 1.463 . S
C1776 N1780 1.427 . S
C1777 H1767 0.929 . S
C1777 C1775 1.433 . S
C1777 N1780 1.384 . S
C1778 H1769 0.929 . S
C1778 C1770 1.378 . S
C1778 C1773 1.350 . S
C1779 H1766 0.929 . S
C1779 C1771 1.433 . S
C1779 N1781 1.384 . S
N1780 C1776 1.427 . S
N1780 C1777 1.384 . S
N1781 C1773 1.427 . S
N1781 C1779 1.384 . S
H1782 C1788 0.930 . S
H1783 C1792 0.930 . S
H1784 C1797 0.929 . S
H1785 C1795 0.929 . S
H1786 C1790 0.929 . S
H1787 C1796 0.929 . S
C1788 H1782 0.930 . S
C1788 C1789 1.367 . S
C1788 C1796 1.378 . S
C1789 C1788 1.367 . S
C1789 C1797 1.433 . S
C1790 H1786 0.929 . S
C1790 C1792 1.378 . S
C1790 C1794 1.350 . S
C1791 C1794 1.463 . S
C1791 C1796 1.350 . S
C1791 N1799 1.427 . S
C1792 H1783 0.930 . S
C1792 C1790 1.378 . S
C1792 C1793 1.367 . S
C1793 C1792 1.367 . S
C1793 C1795 1.433 . S
C1794 C1790 1.350 . S
C1794 C1791 1.463 . S
C1794 N1798 1.427 . S
C1795 H1785 0.929 . S
C1795 C1793 1.433 . S
C1795 N1798 1.384 . S
C1796 H1787 0.929 . S
C1796 C1788 1.378 . S
C1796 C1791 1.350 . S
C1797 H1784 0.929 . S
C1797 C1789 1.433 . S
C1797 N1799 1.384 . S
N1798 C1794 1.427 . S
N1798 C1795 1.384 . S
N1799 C1791 1.427 . S
N1799 C1797 1.384 . S
H1800 C1806 0.930 . S
H1801 C1810 0.930 . S
H1802 C1815 0.929 . S
H1803 C1813 0.929 . S
H1804 C1808 0.929 . S
H1805 C1814 0.929 . S
C1806 H1800 0.930 . S
C1806 C1807 1.367 . S
C1806 C1814 1.378 . S
C1807 C1806 1.367 . S
C1807 C1815 1.433 . S
C1808 H1804 0.929 . S
C1808 C1810 1.378 . S
C1808 C1812 1.350 . S
C1809 C1812 1.463 . S
C1809 C1814 1.350 . S
C1809 N1817 1.427 . S
C1810 H1801 0.930 . S
C1810 C1808 1.378 . S
C1810 C1811 1.367 . S
C1811 C1810 1.367 . S
C1811 C1813 1.433 . S
C1812 C1808 1.350 . S
C1812 C1809 1.463 . S
C1812 N1816 1.427 . S
C1813 H1803 0.929 . S
C1813 C1811 1.433 . S
C1813 N1816 1.384 . S
C1814 H1805 0.929 . S
C1814 C1806 1.378 . S
C1814 C1809 1.350 . S
C1815 H1802 0.929 . S
C1815 C1807 1.433 . S
C1815 N1817 1.384 . S
N1816 C1812 1.427 . S
N1816 C1813 1.384 . S
N1817 C1809 1.427 . S
N1817 C1815 1.384 . S
H1818 C1824 0.930 . S
H1819 C1828 0.930 . S
H1820 C1833 0.929 . S
H1821 C1831 0.929 . S
H1822 C1826 0.929 . S
H1823 C1832 0.929 . S
C1824 H1818 0.930 . S
C1824 C1825 1.367 . S
C1824 C1832 1.378 . S
C1825 C1824 1.367 . S
C1825 C1833 1.433 . S
C1826 H1822 0.929 . S
C1826 C1828 1.378 . S
C1826 C1830 1.350 . S
C1827 C1830 1.463 . S
C1827 C1832 1.350 . S
C1827 N1835 1.427 . S
C1828 H1819 0.930 . S
C1828 C1826 1.378 . S
C1828 C1829 1.367 . S
C1829 C1828 1.367 . S
C1829 C1831 1.433 . S
C1830 C1826 1.350 . S
C1830 C1827 1.463 . S
C1830 N1834 1.427 . S
C1831 H1821 0.929 . S
C1831 C1829 1.433 . S
C1831 N1834 1.384 . S
C1832 H1823 0.929 . S
C1832 C1824 1.378 . S
C1832 C1827 1.350 . S
C1833 H1820 0.929 . S
C1833 C1825 1.433 . S
C1833 N1835 1.384 . S
N1834 C1830 1.427 . S
N1834 C1831 1.384 . S
N1835 C1827 1.427 . S
N1835 C1833 1.384 . S
H1836 C1842 0.930 . S
H1837 C1846 0.930 . S
H1838 C1851 0.929 . S
H1839 C1849 0.929 . S
H1840 C1844 0.929 . S
H1841 C1850 0.929 . S
C1842 H1836 0.930 . S
C1842 C1843 1.367 . S
C1842 C1850 1.378 . S
C1843 C1842 1.367 . S
C1843 C1851 1.433 . S
C1844 H1840 0.929 . S
C1844 C1846 1.378 . S
C1844 C1848 1.350 . S
C1845 C1848 1.463 . S
C1845 C1850 1.350 . S
C1845 N1853 1.427 . S
C1846 H1837 0.930 . S
C1846 C1844 1.378 . S
C1846 C1847 1.367 . S
C1847 C1846 1.367 . S
C1847 C1849 1.433 . S
C1848 C1844 1.350 . S
C1848 C1845 1.463 . S
C1848 N1852 1.427 . S
C1849 H1839 0.929 . S
C1849 C1847 1.433 . S
C1849 N1852 1.384 . S
C1850 H1841 0.929 . S
C1850 C1842 1.378 . S
C1850 C1845 1.350 . S
C1851 H1838 0.929 . S
C1851 C1843 1.433 . S
C1851 N1853 1.384 . S
N1852 C1848 1.427 . S
N1852 C1849 1.384 . S
N1853 C1845 1.427 . S
N1853 C1851 1.384 . S
H1854 C1860 0.930 . S
H1855 C1864 0.930 . S
H1856 C1869 0.929 . S
H1857 C1867 0.929 . S
H1858 C1862 0.929 . S
H1859 C1868 0.929 . S
C1860 H1854 0.930 . S
C1860 C1861 1.367 . S
C1860 C1868 1.378 . S
C1861 C1860 1.367 . S
C1861 C1869 1.433 . S
C1862 H1858 0.929 . S
C1862 C1864 1.378 . S
C1862 C1866 1.350 . S
C1863 C1866 1.463 . S
C1863 C1868 1.350 . S
C1863 N1871 1.427 . S
C1864 H1855 0.930 . S
C1864 C1862 1.378 . S
C1864 C1865 1.367 . S
C1865 C1864 1.367 . S
C1865 C1867 1.433 . S
C1866 C1862 1.350 . S
C1866 C1863 1.463 . S
C1866 N1870 1.427 . S
C1867 H1857 0.929 . S
C1867 C1865 1.433 . S
C1867 N1870 1.384 . S
C1868 H1859 0.929 . S
C1868 C1860 1.378 . S
C1868 C1863 1.350 . S
C1869 H1856 0.929 . S
C1869 C1861 1.433 . S
C1869 N1871 1.384 . S
N1870 C1866 1.427 . S
N1870 C1867 1.384 . S
N1871 C1863 1.427 . S
N1871 C1869 1.384 . S
H1872 C1878 0.930 . S
H1873 C1882 0.930 . S
H1874 C1887 0.929 . S
H1875 C1885 0.929 . S
H1876 C1880 0.929 . S
H1877 C1886 0.929 . S
C1878 H1872 0.930 . S
C1878 C1879 1.367 . S
C1878 C1886 1.378 . S
C1879 C1878 1.367 . S
C1879 C1887 1.433 . S
C1880 H1876 0.929 . S
C1880 C1882 1.378 . S
C1880 C1884 1.350 . S
C1881 C1884 1.463 . S
C1881 C1886 1.350 . S
C1881 N1889 1.427 . S
C1882 H1873 0.930 . S
C1882 C1880 1.378 . S
C1882 C1883 1.367 . S
C1883 C1882 1.367 . S
C1883 C1885 1.433 . S
C1884 C1880 1.350 . S
C1884 C1881 1.463 . S
C1884 N1888 1.427 . S
C1885 H1875 0.929 . S
C1885 C1883 1.433 . S
C1885 N1888 1.384 . S
C1886 H1877 0.929 . S
C1886 C1878 1.378 . S
C1886 C1881 1.350 . S
C1887 H1874 0.929 . S
C1887 C1879 1.433 . S
C1887 N1889 1.384 . S
N1888 C1884 1.427 . S
N1888 C1885 1.384 . S
N1889 C1881 1.427 . S
N1889 C1887 1.384 . S
H1890 C1896 0.930 . S
H1891 C1900 0.930 . S
H1892 C1905 0.929 . S
H1893 C1903 0.929 . S
H1894 C1898 0.929 . S
H1895 C1904 0.929 . S
C1896 H1890 0.930 . S
C1896 C1897 1.367 . S
C1896 C1904 1.378 . S
C1897 C1896 1.367 . S
C1897 C1905 1.433 . S
C1898 H1894 0.929 . S
C1898 C1900 1.378 . S
C1898 C1902 1.350 . S
C1899 C1902 1.463 . S
C1899 C1904 1.350 . S
C1899 N1907 1.427 . S
C1900 H1891 0.930 . S
C1900 C1898 1.378 . S
C1900 C1901 1.367 . S
C1901 C1900 1.367 . S
C1901 C1903 1.433 . S
C1902 C1898 1.350 . S
C1902 C1899 1.463 . S
C1902 N1906 1.427 . S
C1903 H1893 0.929 . S
C1903 C1901 1.433 . S
C1903 N1906 1.384 . S
C1904 H1895 0.929 . S
C1904 C1896 1.378 . S
C1904 C1899 1.350 . S
C1905 H1892 0.929 . S
C1905 C1897 1.433 . S
C1905 N1907 1.384 . S
N1906 C1902 1.427 . S
N1906 C1903 1.384 . S
N1907 C1899 1.427 . S
N1907 C1905 1.384 . S
H1908 C1914 0.930 . S
H1909 C1918 0.930 . S
H1910 C1923 0.929 . S
H1911 C1921 0.929 . S
H1912 C1916 0.929 . S
H1913 C1922 0.929 . S
C1914 H1908 0.930 . S
C1914 C1915 1.367 . S
C1914 C1922 1.378 . S
C1915 C1914 1.367 . S
C1915 C1923 1.433 . S
C1916 H1912 0.929 . S
C1916 C1918 1.378 . S
C1916 C1920 1.350 . S
C1917 C1920 1.463 . S
C1917 C1922 1.350 . S
C1917 N1925 1.427 . S
C1918 H1909 0.930 . S
C1918 C1916 1.378 . S
C1918 C1919 1.367 . S
C1919 C1918 1.367 . S
C1919 C1921 1.433 . S
C1920 C1916 1.350 . S
C1920 C1917 1.463 . S
C1920 N1924 1.427 . S
C1921 H1911 0.929 . S
C1921 C1919 1.433 . S
C1921 N1924 1.384 . S
C1922 H1913 0.929 . S
C1922 C1914 1.378 . S
C1922 C1917 1.350 . S
C1923 H1910 0.929 . S
C1923 C1915 1.433 . S
C1923 N1925 1.384 . S
N1924 C1920 1.427 . S
N1924 C1921 1.384 . S
N1925 C1917 1.427 . S
N1925 C1923 1.384 . S
H1926 C1932 0.930 . S
H1927 C1936 0.930 . S
H1928 C1941 0.929 . S
H1929 C1939 0.929 . S
H1930 C1934 0.929 . S
H1931 C1940 0.929 . S
C1932 H1926 0.930 . S
C1932 C1933 1.367 . S
C1932 C1940 1.378 . S
C1933 C1932 1.367 . S
C1933 C1941 1.433 . S
C1934 H1930 0.929 . S
C1934 C1936 1.378 . S
C1934 C1938 1.350 . S
C1935 C1938 1.463 . S
C1935 C1940 1.350 . S
C1935 N1943 1.427 . S
C1936 H1927 0.930 . S
C1936 C1934 1.378 . S
C1936 C1937 1.367 . S
C1937 C1936 1.367 . S
C1937 C1939 1.433 . S
C1938 C1934 1.350 . S
C1938 C1935 1.463 . S
C1938 N1942 1.427 . S
C1939 H1929 0.929 . S
C1939 C1937 1.433 . S
C1939 N1942 1.384 . S
C1940 H1931 0.929 . S
C1940 C1932 1.378 . S
C1940 C1935 1.350 . S
C1941 H1928 0.929 . S
C1941 C1933 1.433 . S
C1941 N1943 1.384 . S
N1942 C1938 1.427 . S
N1942 C1939 1.384 . S
N1943 C1935 1.427 . S
N1943 C1941 1.384 . S
H1944 C1950 0.930 . S
H1945 C1954 0.930 . S
H1946 C1959 0.929 . S
H1947 C1957 0.929 . S
H1948 C1952 0.929 . S
H1949 C1958 0.929 . S
C1950 H1944 0.930 . S
C1950 C1951 1.367 . S
C1950 C1958 1.378 . S
C1951 C1950 1.367 . S
C1951 C1959 1.433 . S
C1952 H1948 0.929 . S
C1952 C1954 1.378 . S
C1952 C1956 1.350 . S
C1953 C1956 1.463 . S
C1953 C1958 1.350 . S
C1953 N1961 1.427 . S
C1954 H1945 0.930 . S
C1954 C1952 1.378 . S
C1954 C1955 1.367 . S
C1955 C1954 1.367 . S
C1955 C1957 1.433 . S
C1956 C1952 1.350 . S
C1956 C1953 1.463 . S
C1956 N1960 1.427 . S
C1957 H1947 0.929 . S
C1957 C1955 1.433 . S
C1957 N1960 1.384 . S
C1958 H1949 0.929 . S
C1958 C1950 1.378 . S
C1958 C1953 1.350 . S
C1959 H1946 0.929 . S
C1959 C1951 1.433 . S
C1959 N1961 1.384 . S
N1960 C1956 1.427 . S
N1960 C1957 1.384 . S
N1961 C1953 1.427 . S
N1961 C1959 1.384 . S
H1962 C1968 0.930 . S
H1963 C1972 0.930 . S
H1964 C1977 0.929 . S
H1965 C1975 0.929 . S
H1966 C1970 0.929 . S
H1967 C1976 0.929 . S
C1968 H1962 0.930 . S
C1968 C1969 1.367 . S
C1968 C1976 1.378 . S
C1969 C1968 1.367 . S
C1969 C1977 1.433 . S
C1970 H1966 0.929 . S
C1970 C1972 1.378 . S
C1970 C1974 1.350 . S
C1971 C1974 1.463 . S
C1971 C1976 1.350 . S
C1971 N1979 1.427 . S
C1972 H1963 0.930 . S
C1972 C1970 1.378 . S
C1972 C1973 1.367 . S
C1973 C1972 1.367 . S
C1973 C1975 1.433 . S
C1974 C1970 1.350 . S
C1974 C1971 1.463 . S
C1974 N1978 1.427 . S
C1975 H1965 0.929 . S
C1975 C1973 1.433 . S
C1975 N1978 1.384 . S
C1976 H1967 0.929 . S
C1976 C1968 1.378 . S
C1976 C1971 1.350 . S
C1977 H1964 0.929 . S
C1977 C1969 1.433 . S
C1977 N1979 1.384 . S
N1978 C1974 1.427 . S
N1978 C1975 1.384 . S
N1979 C1971 1.427 . S
N1979 C1977 1.384 . S
H1980 C1986 0.930 . S
H1981 C1990 0.930 . S
H1982 C1995 0.929 . S
H1983 C1993 0.929 . S
H1984 C1988 0.929 . S
H1985 C1994 0.929 . S
C1986 H1980 0.930 . S
C1986 C1987 1.367 . S
C1986 C1994 1.378 . S
C1987 C1986 1.367 . S
C1987 C1995 1.433 . S
C1988 H1984 0.929 . S
C1988 C1990 1.378 . S
C1988 C1992 1.350 . S
C1989 C1992 1.463 . S
C1989 C1994 1.350 . S
C1989 N1997 1.427 . S
C1990 H1981 0.930 . S
C1990 C1988 1.378 . S
C1990 C1991 1.367 . S
C1991 C1990 1.367 . S
C1991 C1993 1.433 . S
C1992 C1988 1.350 . S
C1992 C1989 1.463 . S
C1992 N1996 1.427 . S
C1993 H1983 0.929 . S
C1993 C1991 1.433 . S
C1993 N1996 1.384 . S
C1994 H1985 0.929 . S
C1994 C1986 1.378 . S
C1994 C1989 1.350 . S
C1995 H1982 0.929 . S
C1995 C1987 1.433 . S
C1995 N1997 1.384 . S
N1996 C1992 1.427 . S
N1996 C1993 1.384 . S
N1997 C1989 1.427 . S
N1997 C1995 1.384 . S
H1998 C2004 0.930 . S
H1999 C2008 0.930 . S
H2000 C2013 0.929 . S
H2001 C2011 0.929 . S
H2002 C2006 0.929 . S
H2003 C2012 0.929 . S
C2004 H1998 0.930 . S
C2004 C2005 1.367 . S
C2004 C2012 1.378 . S
C2005 C2004 1.367 . S
C2005 C2013 1.433 . S
C2006 H2002 0.929 . S
C2006 C2008 1.378 . S
C2006 C2010 1.350 . S
C2007 C2010 1.463 . S
C2007 C2012 1.350 . S
C2007 N2015 1.427 . S
C2008 H1999 0.930 . S
C2008 C2006 1.378 . S
C2008 C2009 1.367 . S
C2009 C2008 1.367 . S
C2009 C2011 1.433 . S
C2010 C2006 1.350 . S
C2010 C2007 1.463 . S
C2010 N2014 1.427 . S
C2011 H2001 0.929 . S
C2011 C2009 1.433 . S
C2011 N2014 1.384 . S
C2012 H2003 0.929 . S
C2012 C2004 1.378 . S
C2012 C2007 1.350 . S
C2013 H2000 0.929 . S
C2013 C2005 1.433 . S
C2013 N2015 1.384 . S
N2014 C2010 1.427 . S
N2014 C2011 1.384 . S
N2015 C2007 1.427 . S
N2015 C2013 1.384 . S
H2016 C2022 0.930 . S
H2017 C2026 0.930 . S
H2018 C2031 0.929 . S
H2019 C2029 0.929 . S
H2020 C2024 0.929 . S
H2021 C2030 0.929 . S
C2022 H2016 0.930 . S
C2022 C2023 1.367 . S
C2022 C2030 1.378 . S
C2023 C2022 1.367 . S
C2023 C2031 1.433 . S
C2024 H2020 0.929 . S
C2024 C2026 1.378 . S
C2024 C2028 1.350 . S
C2025 C2028 1.463 . S
C2025 C2030 1.350 . S
C2025 N2033 1.427 . S
C2026 H2017 0.930 . S
C2026 C2024 1.378 . S
C2026 C2027 1.367 . S
C2027 C2026 1.367 . S
C2027 C2029 1.433 . S
C2028 C2024 1.350 . S
C2028 C2025 1.463 . S
C2028 N2032 1.427 . S
C2029 H2019 0.929 . S
C2029 C2027 1.433 . S
C2029 N2032 1.384 . S
C2030 H2021 0.929 . S
C2030 C2022 1.378 . S
C2030 C2025 1.350 . S
C2031 H2018 0.929 . S
C2031 C2023 1.433 . S
C2031 N2033 1.384 . S
N2032 C2028 1.427 . S
N2032 C2029 1.384 . S
N2033 C2025 1.427 . S
N2033 C2031 1.384 . S
H2034 C2040 0.930 . S
H2035 C2044 0.930 . S
H2036 C2049 0.929 . S
H2037 C2047 0.929 . S
H2038 C2042 0.929 . S
H2039 C2048 0.929 . S
C2040 H2034 0.930 . S
C2040 C2041 1.367 . S
C2040 C2048 1.378 . S
C2041 C2040 1.367 . S
C2041 C2049 1.433 . S
C2042 H2038 0.929 . S
C2042 C2044 1.378 . S
C2042 C2046 1.350 . S
C2043 C2046 1.463 . S
C2043 C2048 1.350 . S
C2043 N2051 1.427 . S
C2044 H2035 0.930 . S
C2044 C2042 1.378 . S
C2044 C2045 1.367 . S
C2045 C2044 1.367 . S
C2045 C2047 1.433 . S
C2046 C2042 1.350 . S
C2046 C2043 1.463 . S
C2046 N2050 1.427 . S
C2047 H2037 0.929 . S
C2047 C2045 1.433 . S
C2047 N2050 1.384 . S
C2048 H2039 0.929 . S
C2048 C2040 1.378 . S
C2048 C2043 1.350 . S
C2049 H2036 0.929 . S
C2049 C2041 1.433 . S
C2049 N2051 1.384 . S
N2050 C2046 1.427 . S
N2050 C2047 1.384 . S
N2051 C2043 1.427 . S
N2051 C2049 1.384 . S
H2052 C2058 0.930 . S
H2053 C2062 0.930 . S
H2054 C2067 0.929 . S
H2055 C2065 0.929 . S
H2056 C2060 0.929 . S
H2057 C2066 0.929 . S
C2058 H2052 0.930 . S
C2058 C2059 1.367 . S
C2058 C2066 1.378 . S
C2059 C2058 1.367 . S
C2059 C2067 1.433 . S
C2060 H2056 0.929 . S
C2060 C2062 1.378 . S
C2060 C2064 1.350 . S
C2061 C2064 1.463 . S
C2061 C2066 1.350 . S
C2061 N2069 1.427 . S
C2062 H2053 0.930 . S
C2062 C2060 1.378 . S
C2062 C2063 1.367 . S
C2063 C2062 1.367 . S
C2063 C2065 1.433 . S
C2064 C2060 1.350 . S
C2064 C2061 1.463 . S
C2064 N2068 1.427 . S
C2065 H2055 0.929 . S
C2065 C2063 1.433 . S
C2065 N2068 1.384 . S
C2066 H2057 0.929 . S
C2066 C2058 1.378 . S
C2066 C2061 1.350 . S
C2067 H2054 0.929 . S
C2067 C2059 1.433 . S
C2067 N2069 1.384 . S
N2068 C2064 1.427 . S
N2068 C2065 1.384 . S
N2069 C2061 1.427 . S
N2069 C2067 1.384 . S
H2070 C2076 0.930 . S
H2071 C2080 0.930 . S
H2072 C2085 0.929 . S
H2073 C2083 0.929 . S
H2074 C2078 0.929 . S
H2075 C2084 0.929 . S
C2076 H2070 0.930 . S
C2076 C2077 1.367 . S
C2076 C2084 1.378 . S
C2077 C2076 1.367 . S
C2077 C2085 1.433 . S
C2078 H2074 0.929 . S
C2078 C2080 1.378 . S
C2078 C2082 1.350 . S
C2079 C2082 1.463 . S
C2079 C2084 1.350 . S
C2079 N2087 1.427 . S
C2080 H2071 0.930 . S
C2080 C2078 1.378 . S
C2080 C2081 1.367 . S
C2081 C2080 1.367 . S
C2081 C2083 1.433 . S
C2082 C2078 1.350 . S
C2082 C2079 1.463 . S
C2082 N2086 1.427 . S
C2083 H2073 0.929 . S
C2083 C2081 1.433 . S
C2083 N2086 1.384 . S
C2084 H2075 0.929 . S
C2084 C2076 1.378 . S
C2084 C2079 1.350 . S
C2085 H2072 0.929 . S
C2085 C2077 1.433 . S
C2085 N2087 1.384 . S
N2086 C2082 1.427 . S
N2086 C2083 1.384 . S
N2087 C2079 1.427 . S
N2087 C2085 1.384 . S
H2088 C2094 0.930 . S
H2089 C2098 0.930 . S
H2090 C2103 0.929 . S
H2091 C2101 0.929 . S
H2092 C2096 0.929 . S
H2093 C2102 0.929 . S
C2094 H2088 0.930 . S
C2094 C2095 1.367 . S
C2094 C2102 1.378 . S
C2095 C2094 1.367 . S
C2095 C2103 1.433 1_655 S
C2096 H2092 0.929 . S
C2096 C2098 1.378 . S
C2096 C2100 1.350 . S
C2097 C2100 1.463 1_655 S
C2097 C2102 1.350 . S
C2097 N2105 1.427 1_655 S
C2098 H2089 0.930 . S
C2098 C2096 1.378 . S
C2098 C2099 1.367 . S
C2099 C2098 1.367 . S
C2099 C2101 1.433 1_455 S
C2100 C2096 1.350 . S
C2100 C2097 1.463 1_455 S
C2100 N2104 1.427 1_455 S
C2101 H2091 0.929 . S
C2101 C2099 1.433 1_655 S
C2101 N2104 1.384 . S
C2102 H2093 0.929 . S
C2102 C2094 1.378 . S
C2102 C2097 1.350 . S
C2103 H2090 0.929 . S
C2103 C2095 1.433 1_455 S
C2103 N2105 1.384 . S
N2104 C2100 1.427 1_655 S
N2104 C2101 1.384 . S
N2105 C2097 1.427 1_455 S
N2105 C2103 1.384 . S
H2106 C2112 0.930 . S
H2107 C2116 0.930 . S
H2108 C2121 0.929 . S
H2109 C2119 0.929 . S
H2110 C2114 0.929 . S
H2111 C2120 0.929 . S
C2112 H2106 0.930 . S
C2112 C2113 1.367 . S
C2112 C2120 1.378 . S
C2113 C2112 1.367 . S
C2113 C2121 1.433 . S
C2114 H2110 0.929 . S
C2114 C2116 1.378 . S
C2114 C2118 1.350 . S
C2115 C2118 1.463 . S
C2115 C2120 1.350 . S
C2115 N2123 1.427 . S
C2116 H2107 0.930 . S
C2116 C2114 1.378 . S
C2116 C2117 1.367 . S
C2117 C2116 1.367 . S
C2117 C2119 1.433 . S
C2118 C2114 1.350 . S
C2118 C2115 1.463 . S
C2118 N2122 1.427 . S
C2119 H2109 0.929 . S
C2119 C2117 1.433 . S
C2119 N2122 1.384 . S
C2120 H2111 0.929 . S
C2120 C2112 1.378 . S
C2120 C2115 1.350 . S
C2121 H2108 0.929 . S
C2121 C2113 1.433 . S
C2121 N2123 1.384 . S
N2122 C2118 1.427 . S
N2122 C2119 1.384 . S
N2123 C2115 1.427 . S
N2123 C2121 1.384 . S
H2124 C2130 0.930 . S
H2125 C2134 0.930 . S
H2126 C2139 0.929 . S
H2127 C2137 0.929 . S
H2128 C2132 0.929 . S
H2129 C2138 0.929 . S
C2130 H2124 0.930 . S
C2130 C2131 1.367 . S
C2130 C2138 1.378 . S
C2131 C2130 1.367 . S
C2131 C2139 1.433 . S
C2132 H2128 0.929 . S
C2132 C2134 1.378 . S
C2132 C2136 1.350 . S
C2133 C2136 1.463 1_545 S
C2133 C2138 1.350 . S
C2133 N2141 1.434 1_545 S
C2134 H2125 0.930 . S
C2134 C2132 1.378 . S
C2134 C2135 1.367 . S
C2135 C2134 1.367 . S
C2135 C2137 1.433 . S
C2136 C2132 1.350 . S
C2136 C2133 1.463 1_565 S
C2136 N2140 1.434 1_565 S
C2137 H2127 0.929 . S
C2137 C2135 1.433 . S
C2137 N2140 1.376 1_565 S
C2138 H2129 0.929 . S
C2138 C2130 1.378 . S
C2138 C2133 1.350 . S
C2139 H2126 0.929 . S
C2139 C2131 1.433 . S
C2139 N2141 1.375 1_545 S
N2140 C2136 1.434 1_545 S
N2140 C2137 1.376 1_545 S
N2141 C2133 1.434 1_565 S
N2141 C2139 1.375 1_565 S
H2142 C2148 0.930 . S
H2143 C2152 0.930 . S
H2144 C2157 0.929 . S
H2145 C2155 0.929 . S
H2146 C2150 0.929 . S
H2147 C2156 0.929 . S
C2148 H2142 0.930 . S
C2148 C2149 1.367 1_655 S
C2148 C2156 1.378 . S
C2149 C2148 1.367 1_455 S
C2149 C2157 1.433 . S
C2150 H2146 0.929 . S
C2150 C2152 1.378 . S
C2150 C2154 1.350 1_455 S
C2151 C2154 1.463 1_455 S
C2151 C2156 1.350 1_455 S
C2151 N2159 1.427 . S
C2152 H2143 0.930 . S
C2152 C2150 1.378 . S
C2152 C2153 1.367 1_455 S
C2153 C2152 1.367 1_655 S
C2153 C2155 1.433 . S
C2154 C2150 1.350 1_655 S
C2154 C2151 1.463 1_655 S
C2154 N2158 1.427 . S
C2155 H2145 0.929 . S
C2155 C2153 1.433 . S
C2155 N2158 1.384 . S
C2156 H2147 0.929 . S
C2156 C2148 1.378 . S
C2156 C2151 1.350 1_655 S
C2157 H2144 0.929 . S
C2157 C2149 1.433 . S
C2157 N2159 1.384 . S
N2158 C2154 1.427 . S
N2158 C2155 1.384 . S
N2159 C2151 1.427 . S
N2159 C2157 1.384 . S
H2160 C2166 0.930 . S
H2161 C2170 0.930 . S
H2162 C2175 0.929 . S
H2163 C2173 0.929 . S
H2164 C2168 0.929 . S
H2165 C2174 0.929 . S
C2166 H2160 0.930 . S
C2166 C2167 1.367 . S
C2166 C2174 1.378 . S
C2167 C2166 1.367 . S
C2167 C2175 1.433 . S
C2168 H2164 0.929 . S
C2168 C2170 1.378 . S
C2168 C2172 1.350 . S
C2169 C2172 1.463 . S
C2169 C2174 1.350 . S
C2169 N2177 1.427 . S
C2170 H2161 0.930 . S
C2170 C2168 1.378 . S
C2170 C2171 1.367 . S
C2171 C2170 1.367 . S
C2171 C2173 1.433 . S
C2172 C2168 1.350 . S
C2172 C2169 1.463 . S
C2172 N2176 1.427 . S
C2173 H2163 0.929 . S
C2173 C2171 1.433 . S
C2173 N2176 1.384 . S
C2174 H2165 0.929 . S
C2174 C2166 1.378 . S
C2174 C2169 1.350 . S
C2175 H2162 0.929 . S
C2175 C2167 1.433 . S
C2175 N2177 1.384 . S
N2176 C2172 1.427 . S
N2176 C2173 1.384 . S
N2177 C2169 1.427 . S
N2177 C2175 1.384 . S
H2178 C2184 0.930 . S
H2179 C2188 0.930 . S
H2180 C2193 0.929 . S
H2181 C2191 0.929 . S
H2182 C2186 0.929 . S
H2183 C2192 0.929 . S
C2184 H2178 0.930 . S
C2184 C2185 1.367 . S
C2184 C2192 1.378 . S
C2185 C2184 1.367 . S
C2185 C2193 1.433 . S
C2186 H2182 0.929 . S
C2186 C2188 1.378 . S
C2186 C2190 1.350 . S
C2187 C2190 1.463 1_545 S
C2187 C2192 1.350 . S
C2187 N2195 1.427 1_545 S
C2188 H2179 0.930 . S
C2188 C2186 1.378 . S
C2188 C2189 1.367 . S
C2189 C2188 1.367 . S
C2189 C2191 1.433 . S
C2190 C2186 1.350 . S
C2190 C2187 1.463 1_565 S
C2190 N2194 1.427 1_565 S
C2191 H2181 0.929 . S
C2191 C2189 1.433 . S
C2191 N2194 1.384 1_565 S
C2192 H2183 0.929 . S
C2192 C2184 1.378 . S
C2192 C2187 1.350 . S
C2193 H2180 0.929 . S
C2193 C2185 1.433 . S
C2193 N2195 1.384 1_545 S
N2194 C2190 1.427 1_545 S
N2194 C2191 1.384 1_545 S
N2195 C2187 1.427 1_565 S
N2195 C2193 1.384 1_565 S
H2196 C2202 0.930 . S
H2197 C2206 0.930 . S
H2198 C2211 0.929 . S
H2199 C2209 0.929 . S
H2200 C2204 0.929 . S
H2201 C2210 0.929 . S
C2202 H2196 0.930 . S
C2202 C2203 1.367 . S
C2202 C2210 1.378 . S
C2203 C2202 1.367 . S
C2203 C2211 1.433 . S
C2204 H2200 0.929 . S
C2204 C2206 1.378 . S
C2204 C2208 1.350 . S
C2205 C2208 1.463 . S
C2205 C2210 1.350 . S
C2205 N2213 1.427 . S
C2206 H2197 0.930 . S
C2206 C2204 1.378 . S
C2206 C2207 1.367 . S
C2207 C2206 1.367 . S
C2207 C2209 1.433 . S
C2208 C2204 1.350 . S
C2208 C2205 1.463 . S
C2208 N2212 1.427 . S
C2209 H2199 0.929 . S
C2209 C2207 1.433 . S
C2209 N2212 1.384 . S
C2210 H2201 0.929 . S
C2210 C2202 1.378 . S
C2210 C2205 1.350 . S
C2211 H2198 0.929 . S
C2211 C2203 1.433 . S
C2211 N2213 1.384 . S
N2212 C2208 1.427 . S
N2212 C2209 1.384 . S
N2213 C2205 1.427 . S
N2213 C2211 1.384 . S
H2214 C2220 0.930 . S
H2215 C2224 0.930 . S
H2216 C2229 0.929 . S
H2217 C2227 0.929 . S
H2218 C2222 0.929 . S
H2219 C2228 0.929 . S
C2220 H2214 0.930 . S
C2220 C2221 1.367 . S
C2220 C2228 1.378 . S
C2221 C2220 1.367 . S
C2221 C2229 1.433 . S
C2222 H2218 0.929 . S
C2222 C2224 1.378 . S
C2222 C2226 1.350 . S
C2223 C2226 1.463 . S
C2223 C2228 1.350 . S
C2223 N2231 1.427 . S
C2224 H2215 0.930 . S
C2224 C2222 1.378 . S
C2224 C2225 1.367 . S
C2225 C2224 1.367 . S
C2225 C2227 1.433 . S
C2226 C2222 1.350 . S
C2226 C2223 1.463 . S
C2226 N2230 1.427 . S
C2227 H2217 0.929 . S
C2227 C2225 1.433 . S
C2227 N2230 1.384 . S
C2228 H2219 0.929 . S
C2228 C2220 1.378 . S
C2228 C2223 1.350 . S
C2229 H2216 0.929 . S
C2229 C2221 1.433 . S
C2229 N2231 1.384 . S
N2230 C2226 1.427 . S
N2230 C2227 1.384 . S
N2231 C2223 1.427 . S
N2231 C2229 1.384 . S
H2232 C2238 0.930 . S
H2233 C2242 0.930 . S
H2234 C2247 0.929 . S
H2235 C2245 0.929 . S
H2236 C2240 0.929 . S
H2237 C2246 0.929 . S
C2238 H2232 0.930 . S
C2238 C2239 1.367 . S
C2238 C2246 1.378 . S
C2239 C2238 1.367 . S
C2239 C2247 1.433 . S
C2240 H2236 0.929 . S
C2240 C2242 1.378 . S
C2240 C2244 1.350 . S
C2241 C2244 1.463 . S
C2241 C2246 1.350 . S
C2241 N2249 1.427 . S
C2242 H2233 0.930 . S
C2242 C2240 1.378 . S
C2242 C2243 1.367 . S
C2243 C2242 1.367 . S
C2243 C2245 1.433 . S
C2244 C2240 1.350 . S
C2244 C2241 1.463 . S
C2244 N2248 1.427 . S
C2245 H2235 0.929 . S
C2245 C2243 1.433 . S
C2245 N2248 1.384 . S
C2246 H2237 0.929 . S
C2246 C2238 1.378 . S
C2246 C2241 1.350 . S
C2247 H2234 0.929 . S
C2247 C2239 1.433 . S
C2247 N2249 1.384 . S
N2248 C2244 1.427 . S
N2248 C2245 1.384 . S
N2249 C2241 1.427 . S
N2249 C2247 1.384 . S
H2250 C2256 0.930 . S
H2251 C2260 0.930 . S
H2252 C2265 0.929 . S
H2253 C2263 0.929 . S
H2254 C2258 0.929 . S
H2255 C2264 0.929 . S
C2256 H2250 0.930 . S
C2256 C2257 1.367 . S
C2256 C2264 1.378 . S
C2257 C2256 1.367 . S
C2257 C2265 1.433 . S
C2258 H2254 0.929 . S
C2258 C2260 1.378 . S
C2258 C2262 1.350 . S
C2259 C2262 1.463 . S
C2259 C2264 1.350 . S
C2259 N2267 1.427 . S
C2260 H2251 0.930 . S
C2260 C2258 1.378 . S
C2260 C2261 1.367 . S
C2261 C2260 1.367 . S
C2261 C2263 1.433 . S
C2262 C2258 1.350 . S
C2262 C2259 1.463 . S
C2262 N2266 1.427 . S
C2263 H2253 0.929 . S
C2263 C2261 1.433 . S
C2263 N2266 1.384 . S
C2264 H2255 0.929 . S
C2264 C2256 1.378 . S
C2264 C2259 1.350 . S
C2265 H2252 0.929 . S
C2265 C2257 1.433 . S
C2265 N2267 1.384 . S
N2266 C2262 1.427 . S
N2266 C2263 1.384 . S
N2267 C2259 1.427 . S
N2267 C2265 1.384 . S
H2268 C2274 0.930 . S
H2269 C2278 0.930 . S
H2270 C2283 0.929 . S
H2271 C2281 0.929 . S
H2272 C2276 0.929 . S
H2273 C2282 0.929 . S
C2274 H2268 0.930 . S
C2274 C2275 1.367 . S
C2274 C2282 1.378 . S
C2275 C2274 1.367 . S
C2275 C2283 1.433 . S
C2276 H2272 0.929 . S
C2276 C2278 1.378 . S
C2276 C2280 1.350 . S
C2277 C2280 1.463 . S
C2277 C2282 1.350 . S
C2277 N2285 1.427 . S
C2278 H2269 0.930 . S
C2278 C2276 1.378 . S
C2278 C2279 1.367 . S
C2279 C2278 1.367 . S
C2279 C2281 1.433 . S
C2280 C2276 1.350 . S
C2280 C2277 1.463 . S
C2280 N2284 1.427 . S
C2281 H2271 0.929 . S
C2281 C2279 1.433 . S
C2281 N2284 1.384 . S
C2282 H2273 0.929 . S
C2282 C2274 1.378 . S
C2282 C2277 1.350 . S
C2283 H2270 0.929 . S
C2283 C2275 1.433 . S
C2283 N2285 1.384 . S
N2284 C2280 1.427 . S
N2284 C2281 1.384 . S
N2285 C2277 1.427 . S
N2285 C2283 1.384 . S
H2286 C2292 0.930 . S
H2287 C2296 0.930 . S
H2288 C2301 0.929 . S
H2289 C2299 0.929 . S
H2290 C2294 0.929 . S
H2291 C2300 0.929 . S
C2292 H2286 0.930 . S
C2292 C2293 1.367 . S
C2292 C2300 1.378 . S
C2293 C2292 1.367 . S
C2293 C2301 1.433 . S
C2294 H2290 0.929 . S
C2294 C2296 1.378 . S
C2294 C2298 1.350 . S
C2295 C2298 1.463 . S
C2295 C2300 1.350 . S
C2295 N2303 1.427 . S
C2296 H2287 0.930 . S
C2296 C2294 1.378 . S
C2296 C2297 1.367 . S
C2297 C2296 1.367 . S
C2297 C2299 1.433 . S
C2298 C2294 1.350 . S
C2298 C2295 1.463 . S
C2298 N2302 1.427 . S
C2299 H2289 0.929 . S
C2299 C2297 1.433 . S
C2299 N2302 1.384 . S
C2300 H2291 0.929 . S
C2300 C2292 1.378 . S
C2300 C2295 1.350 . S
C2301 H2288 0.929 . S
C2301 C2293 1.433 . S
C2301 N2303 1.384 . S
N2302 C2298 1.427 . S
N2302 C2299 1.384 . S
N2303 C2295 1.427 . S
N2303 C2301 1.384 . S
H2304 C2310 0.930 . S
H2305 C2314 0.930 . S
H2306 C2319 0.929 . S
H2307 C2317 0.929 . S
H2308 C2312 0.929 . S
H2309 C2318 0.929 . S
C2310 H2304 0.930 . S
C2310 C2311 1.367 . S
C2310 C2318 1.378 . S
C2311 C2310 1.367 . S
C2311 C2319 1.433 . S
C2312 H2308 0.929 . S
C2312 C2314 1.378 . S
C2312 C2316 1.350 . S
C2313 C2316 1.463 . S
C2313 C2318 1.350 . S
C2313 N2321 1.427 . S
C2314 H2305 0.930 . S
C2314 C2312 1.378 . S
C2314 C2315 1.367 . S
C2315 C2314 1.367 . S
C2315 C2317 1.433 . S
C2316 C2312 1.350 . S
C2316 C2313 1.463 . S
C2316 N2320 1.427 . S
C2317 H2307 0.929 . S
C2317 C2315 1.433 . S
C2317 N2320 1.384 . S
C2318 H2309 0.929 . S
C2318 C2310 1.378 . S
C2318 C2313 1.350 . S
C2319 H2306 0.929 . S
C2319 C2311 1.433 . S
C2319 N2321 1.384 . S
N2320 C2316 1.427 . S
N2320 C2317 1.384 . S
N2321 C2313 1.427 . S
N2321 C2319 1.384 . S
H2322 C2328 0.930 . S
H2323 C2332 0.930 . S
H2324 C2337 0.929 . S
H2325 C2335 0.929 . S
H2326 C2330 0.929 . S
H2327 C2336 0.929 . S
C2328 H2322 0.930 . S
C2328 C2329 1.367 . S
C2328 C2336 1.378 . S
C2329 C2328 1.367 . S
C2329 C2337 1.433 . S
C2330 H2326 0.929 . S
C2330 C2332 1.378 . S
C2330 C2334 1.350 . S
C2331 C2334 1.463 . S
C2331 C2336 1.350 . S
C2331 N2339 1.427 . S
C2332 H2323 0.930 . S
C2332 C2330 1.378 . S
C2332 C2333 1.367 . S
C2333 C2332 1.367 . S
C2333 C2335 1.433 . S
C2334 C2330 1.350 . S
C2334 C2331 1.463 . S
C2334 N2338 1.427 . S
C2335 H2325 0.929 . S
C2335 C2333 1.433 . S
C2335 N2338 1.384 . S
C2336 H2327 0.929 . S
C2336 C2328 1.378 . S
C2336 C2331 1.350 . S
C2337 H2324 0.929 . S
C2337 C2329 1.433 . S
C2337 N2339 1.384 . S
N2338 C2334 1.427 . S
N2338 C2335 1.384 . S
N2339 C2331 1.427 . S
N2339 C2337 1.384 . S
H2340 C2346 0.930 . S
H2341 C2350 0.930 . S
H2342 C2355 0.929 . S
H2343 C2353 0.929 . S
H2344 C2348 0.929 . S
H2345 C2354 0.929 . S
C2346 H2340 0.930 . S
C2346 C2347 1.367 . S
C2346 C2354 1.378 . S
C2347 C2346 1.367 . S
C2347 C2355 1.433 . S
C2348 H2344 0.929 . S
C2348 C2350 1.378 . S
C2348 C2352 1.350 . S
C2349 C2352 1.463 . S
C2349 C2354 1.350 . S
C2349 N2357 1.427 . S
C2350 H2341 0.930 . S
C2350 C2348 1.378 . S
C2350 C2351 1.367 . S
C2351 C2350 1.367 . S
C2351 C2353 1.433 . S
C2352 C2348 1.350 . S
C2352 C2349 1.463 . S
C2352 N2356 1.427 . S
C2353 H2343 0.929 . S
C2353 C2351 1.433 . S
C2353 N2356 1.384 . S
C2354 H2345 0.929 . S
C2354 C2346 1.378 . S
C2354 C2349 1.350 . S
C2355 H2342 0.929 . S
C2355 C2347 1.433 . S
C2355 N2357 1.384 . S
N2356 C2352 1.427 . S
N2356 C2353 1.384 . S
N2357 C2349 1.427 . S
N2357 C2355 1.384 . S
H2358 C2364 0.930 . S
H2359 C2368 0.930 . S
H2360 C2373 0.929 . S
H2361 C2371 0.929 . S
H2362 C2366 0.929 . S
H2363 C2372 0.929 . S
C2364 H2358 0.930 . S
C2364 C2365 1.367 . S
C2364 C2372 1.378 . S
C2365 C2364 1.367 . S
C2365 C2373 1.433 . S
C2366 H2362 0.929 . S
C2366 C2368 1.378 . S
C2366 C2370 1.350 . S
C2367 C2370 1.463 . S
C2367 C2372 1.350 . S
C2367 N2375 1.427 . S
C2368 H2359 0.930 . S
C2368 C2366 1.378 . S
C2368 C2369 1.367 . S
C2369 C2368 1.367 . S
C2369 C2371 1.433 . S
C2370 C2366 1.350 . S
C2370 C2367 1.463 . S
C2370 N2374 1.427 . S
C2371 H2361 0.929 . S
C2371 C2369 1.433 . S
C2371 N2374 1.384 . S
C2372 H2363 0.929 . S
C2372 C2364 1.378 . S
C2372 C2367 1.350 . S
C2373 H2360 0.929 . S
C2373 C2365 1.433 . S
C2373 N2375 1.384 . S
N2374 C2370 1.427 . S
N2374 C2371 1.384 . S
N2375 C2367 1.427 . S
N2375 C2373 1.384 . S
H2376 C2382 0.930 . S
H2377 C2386 0.930 . S
H2378 C2391 0.929 . S
H2379 C2389 0.929 . S
H2380 C2384 0.929 . S
H2381 C2390 0.929 . S
C2382 H2376 0.930 . S
C2382 C2383 1.367 . S
C2382 C2390 1.378 . S
C2383 C2382 1.367 . S
C2383 C2391 1.433 . S
C2384 H2380 0.929 . S
C2384 C2386 1.378 . S
C2384 C2388 1.350 . S
C2385 C2388 1.463 . S
C2385 C2390 1.350 . S
C2385 N2393 1.427 . S
C2386 H2377 0.930 . S
C2386 C2384 1.378 . S
C2386 C2387 1.367 . S
C2387 C2386 1.367 . S
C2387 C2389 1.433 . S
C2388 C2384 1.350 . S
C2388 C2385 1.463 . S
C2388 N2392 1.427 . S
C2389 H2379 0.929 . S
C2389 C2387 1.433 . S
C2389 N2392 1.384 . S
C2390 H2381 0.929 . S
C2390 C2382 1.378 . S
C2390 C2385 1.350 . S
C2391 H2378 0.929 . S
C2391 C2383 1.433 . S
C2391 N2393 1.384 . S
N2392 C2388 1.427 . S
N2392 C2389 1.384 . S
N2393 C2385 1.427 . S
N2393 C2391 1.384 . S
H2394 C2400 0.930 . S
H2395 C2404 0.930 . S
H2396 C2409 0.929 . S
H2397 C2407 0.929 . S
H2398 C2402 0.929 . S
H2399 C2408 0.929 . S
C2400 H2394 0.930 . S
C2400 C2401 1.367 . S
C2400 C2408 1.378 . S
C2401 C2400 1.367 . S
C2401 C2409 1.433 . S
C2402 H2398 0.929 . S
C2402 C2404 1.378 . S
C2402 C2406 1.350 . S
C2403 C2406 1.463 . S
C2403 C2408 1.350 . S
C2403 N2411 1.427 . S
C2404 H2395 0.930 . S
C2404 C2402 1.378 . S
C2404 C2405 1.367 . S
C2405 C2404 1.367 . S
C2405 C2407 1.433 . S
C2406 C2402 1.350 . S
C2406 C2403 1.463 . S
C2406 N2410 1.427 . S
C2407 H2397 0.929 . S
C2407 C2405 1.433 . S
C2407 N2410 1.384 . S
C2408 H2399 0.929 . S
C2408 C2400 1.378 . S
C2408 C2403 1.350 . S
C2409 H2396 0.929 . S
C2409 C2401 1.433 . S
C2409 N2411 1.384 . S
N2410 C2406 1.427 . S
N2410 C2407 1.384 . S
N2411 C2403 1.427 . S
N2411 C2409 1.384 . S
H2412 C2418 0.930 . S
H2413 C2422 0.930 . S
H2414 C2427 0.929 . S
H2415 C2425 0.929 . S
H2416 C2420 0.929 . S
H2417 C2426 0.929 . S
C2418 H2412 0.930 . S
C2418 C2419 1.367 . S
C2418 C2426 1.378 . S
C2419 C2418 1.367 . S
C2419 C2427 1.433 . S
C2420 H2416 0.929 . S
C2420 C2422 1.378 . S
C2420 C2424 1.350 . S
C2421 C2424 1.463 . S
C2421 C2426 1.350 . S
C2421 N2429 1.427 . S
C2422 H2413 0.930 . S
C2422 C2420 1.378 . S
C2422 C2423 1.367 . S
C2423 C2422 1.367 . S
C2423 C2425 1.433 . S
C2424 C2420 1.350 . S
C2424 C2421 1.463 . S
C2424 N2428 1.427 . S
C2425 H2415 0.929 . S
C2425 C2423 1.433 . S
C2425 N2428 1.384 . S
C2426 H2417 0.929 . S
C2426 C2418 1.378 . S
C2426 C2421 1.350 . S
C2427 H2414 0.929 . S
C2427 C2419 1.433 . S
C2427 N2429 1.384 . S
N2428 C2424 1.427 . S
N2428 C2425 1.384 . S
N2429 C2421 1.427 . S
N2429 C2427 1.384 . S
H2430 C2436 0.930 . S
H2431 C2440 0.930 . S
H2432 C2445 0.929 . S
H2433 C2443 0.929 . S
H2434 C2438 0.929 . S
H2435 C2444 0.929 . S
C2436 H2430 0.930 . S
C2436 C2437 1.367 . S
C2436 C2444 1.378 . S
C2437 C2436 1.367 . S
C2437 C2445 1.433 . S
C2438 H2434 0.929 . S
C2438 C2440 1.378 . S
C2438 C2442 1.350 . S
C2439 C2442 1.463 . S
C2439 C2444 1.350 . S
C2439 N2447 1.427 . S
C2440 H2431 0.930 . S
C2440 C2438 1.378 . S
C2440 C2441 1.367 . S
C2441 C2440 1.367 . S
C2441 C2443 1.433 . S
C2442 C2438 1.350 . S
C2442 C2439 1.463 . S
C2442 N2446 1.427 . S
C2443 H2433 0.929 . S
C2443 C2441 1.433 . S
C2443 N2446 1.384 . S
C2444 H2435 0.929 . S
C2444 C2436 1.378 . S
C2444 C2439 1.350 . S
C2445 H2432 0.929 . S
C2445 C2437 1.433 . S
C2445 N2447 1.384 . S
N2446 C2442 1.427 . S
N2446 C2443 1.384 . S
N2447 C2439 1.427 . S
N2447 C2445 1.384 . S
H2448 C2454 0.930 . S
H2449 C2458 0.930 . S
H2450 C2463 0.929 . S
H2451 C2461 0.929 . S
H2452 C2456 0.929 . S
H2453 C2462 0.929 . S
C2454 H2448 0.930 . S
C2454 C2455 1.367 . S
C2454 C2462 1.378 . S
C2455 C2454 1.367 . S
C2455 C2463 1.433 . S
C2456 H2452 0.929 . S
C2456 C2458 1.378 . S
C2456 C2460 1.350 . S
C2457 C2460 1.463 . S
C2457 C2462 1.350 . S
C2457 N2465 1.427 . S
C2458 H2449 0.930 . S
C2458 C2456 1.378 . S
C2458 C2459 1.367 . S
C2459 C2458 1.367 . S
C2459 C2461 1.433 . S
C2460 C2456 1.350 . S
C2460 C2457 1.463 . S
C2460 N2464 1.427 . S
C2461 H2451 0.929 . S
C2461 C2459 1.433 . S
C2461 N2464 1.384 . S
C2462 H2453 0.929 . S
C2462 C2454 1.378 . S
C2462 C2457 1.350 . S
C2463 H2450 0.929 . S
C2463 C2455 1.433 . S
C2463 N2465 1.384 . S
N2464 C2460 1.427 . S
N2464 C2461 1.384 . S
N2465 C2457 1.427 . S
N2465 C2463 1.384 . S
H2466 C2472 0.930 . S
H2467 C2476 0.930 . S
H2468 C2481 0.929 . S
H2469 C2479 0.929 . S
H2470 C2474 0.929 . S
H2471 C2480 0.929 . S
C2472 H2466 0.930 . S
C2472 C2473 1.367 . S
C2472 C2480 1.378 . S
C2473 C2472 1.367 . S
C2473 C2481 1.433 . S
C2474 H2470 0.929 . S
C2474 C2476 1.378 . S
C2474 C2478 1.350 . S
C2475 C2478 1.463 . S
C2475 C2480 1.350 . S
C2475 N2483 1.427 . S
C2476 H2467 0.930 . S
C2476 C2474 1.378 . S
C2476 C2477 1.367 . S
C2477 C2476 1.367 . S
C2477 C2479 1.433 . S
C2478 C2474 1.350 . S
C2478 C2475 1.463 . S
C2478 N2482 1.427 . S
C2479 H2469 0.929 . S
C2479 C2477 1.433 . S
C2479 N2482 1.384 . S
C2480 H2471 0.929 . S
C2480 C2472 1.378 . S
C2480 C2475 1.350 . S
C2481 H2468 0.929 . S
C2481 C2473 1.433 . S
C2481 N2483 1.384 . S
N2482 C2478 1.427 . S
N2482 C2479 1.384 . S
N2483 C2475 1.427 . S
N2483 C2481 1.384 . S
H2484 C2490 0.930 . S
H2485 C2494 0.930 . S
H2486 C2499 0.929 . S
H2487 C2497 0.929 . S
H2488 C2492 0.929 . S
H2489 C2498 0.929 . S
C2490 H2484 0.930 . S
C2490 C2491 1.367 . S
C2490 C2498 1.378 . S
C2491 C2490 1.367 . S
C2491 C2499 1.433 . S
C2492 H2488 0.929 . S
C2492 C2494 1.378 . S
C2492 C2496 1.350 . S
C2493 C2496 1.463 . S
C2493 C2498 1.350 . S
C2493 N2501 1.427 . S
C2494 H2485 0.930 . S
C2494 C2492 1.378 . S
C2494 C2495 1.367 . S
C2495 C2494 1.367 . S
C2495 C2497 1.433 . S
C2496 C2492 1.350 . S
C2496 C2493 1.463 . S
C2496 N2500 1.427 . S
C2497 H2487 0.929 . S
C2497 C2495 1.433 . S
C2497 N2500 1.384 . S
C2498 H2489 0.929 . S
C2498 C2490 1.378 . S
C2498 C2493 1.350 . S
C2499 H2486 0.929 . S
C2499 C2491 1.433 . S
C2499 N2501 1.384 . S
N2500 C2496 1.427 . S
N2500 C2497 1.384 . S
N2501 C2493 1.427 . S
N2501 C2499 1.384 . S
H2502 C2508 0.930 . S
H2503 C2512 0.930 . S
H2504 C2517 0.929 . S
H2505 C2515 0.929 . S
H2506 C2510 0.929 . S
H2507 C2516 0.929 . S
C2508 H2502 0.930 . S
C2508 C2509 1.367 . S
C2508 C2516 1.378 . S
C2509 C2508 1.367 . S
C2509 C2517 1.433 . S
C2510 H2506 0.929 . S
C2510 C2512 1.378 . S
C2510 C2514 1.350 . S
C2511 C2514 1.463 . S
C2511 C2516 1.350 . S
C2511 N2519 1.427 . S
C2512 H2503 0.930 . S
C2512 C2510 1.378 . S
C2512 C2513 1.367 . S
C2513 C2512 1.367 . S
C2513 C2515 1.433 . S
C2514 C2510 1.350 . S
C2514 C2511 1.463 . S
C2514 N2518 1.427 . S
C2515 H2505 0.929 . S
C2515 C2513 1.433 . S
C2515 N2518 1.384 . S
C2516 H2507 0.929 . S
C2516 C2508 1.378 . S
C2516 C2511 1.350 . S
C2517 H2504 0.929 . S
C2517 C2509 1.433 . S
C2517 N2519 1.384 . S
N2518 C2514 1.427 . S
N2518 C2515 1.384 . S
N2519 C2511 1.427 . S
N2519 C2517 1.384 . S
H2520 C2526 0.930 . S
H2521 C2530 0.930 . S
H2522 C2535 0.929 . S
H2523 C2533 0.929 . S
H2524 C2528 0.929 . S
H2525 C2534 0.929 . S
C2526 H2520 0.930 . S
C2526 C2527 1.367 . S
C2526 C2534 1.378 . S
C2527 C2526 1.367 . S
C2527 C2535 1.433 . S
C2528 H2524 0.929 . S
C2528 C2530 1.378 . S
C2528 C2532 1.350 . S
C2529 C2532 1.463 . S
C2529 C2534 1.350 . S
C2529 N2537 1.427 . S
C2530 H2521 0.930 . S
C2530 C2528 1.378 . S
C2530 C2531 1.367 . S
C2531 C2530 1.367 . S
C2531 C2533 1.433 . S
C2532 C2528 1.350 . S
C2532 C2529 1.463 . S
C2532 N2536 1.427 . S
C2533 H2523 0.929 . S
C2533 C2531 1.433 . S
C2533 N2536 1.384 . S
C2534 H2525 0.929 . S
C2534 C2526 1.378 . S
C2534 C2529 1.350 . S
C2535 H2522 0.929 . S
C2535 C2527 1.433 . S
C2535 N2537 1.384 . S
N2536 C2532 1.427 . S
N2536 C2533 1.384 . S
N2537 C2529 1.427 . S
N2537 C2535 1.384 . S
H2538 C2544 0.930 . S
H2539 C2548 0.930 . S
H2540 C2553 0.929 . S
H2541 C2551 0.929 . S
H2542 C2546 0.929 . S
H2543 C2552 0.929 . S
C2544 H2538 0.930 . S
C2544 C2545 1.367 . S
C2544 C2552 1.378 . S
C2545 C2544 1.367 . S
C2545 C2553 1.433 . S
C2546 H2542 0.929 . S
C2546 C2548 1.378 . S
C2546 C2550 1.350 . S
C2547 C2550 1.463 . S
C2547 C2552 1.350 . S
C2547 N2555 1.427 . S
C2548 H2539 0.930 . S
C2548 C2546 1.378 . S
C2548 C2549 1.367 . S
C2549 C2548 1.367 . S
C2549 C2551 1.433 . S
C2550 C2546 1.350 . S
C2550 C2547 1.463 . S
C2550 N2554 1.427 . S
C2551 H2541 0.929 . S
C2551 C2549 1.433 . S
C2551 N2554 1.384 . S
C2552 H2543 0.929 . S
C2552 C2544 1.378 . S
C2552 C2547 1.350 . S
C2553 H2540 0.929 . S
C2553 C2545 1.433 . S
C2553 N2555 1.384 . S
N2554 C2550 1.427 . S
N2554 C2551 1.384 . S
N2555 C2547 1.427 . S
N2555 C2553 1.384 . S
H2556 C2562 0.930 . S
H2557 C2566 0.930 . S
H2558 C2571 0.929 . S
H2559 C2569 0.929 . S
H2560 C2564 0.929 . S
H2561 C2570 0.929 . S
C2562 H2556 0.930 . S
C2562 C2563 1.367 . S
C2562 C2570 1.378 . S
C2563 C2562 1.367 . S
C2563 C2571 1.433 . S
C2564 H2560 0.929 . S
C2564 C2566 1.378 . S
C2564 C2568 1.350 . S
C2565 C2568 1.463 . S
C2565 C2570 1.350 . S
C2565 N2573 1.427 . S
C2566 H2557 0.930 . S
C2566 C2564 1.378 . S
C2566 C2567 1.367 . S
C2567 C2566 1.367 . S
C2567 C2569 1.433 . S
C2568 C2564 1.350 . S
C2568 C2565 1.463 . S
C2568 N2572 1.427 . S
C2569 H2559 0.929 . S
C2569 C2567 1.433 . S
C2569 N2572 1.384 . S
C2570 H2561 0.929 . S
C2570 C2562 1.378 . S
C2570 C2565 1.350 . S
C2571 H2558 0.929 . S
C2571 C2563 1.433 . S
C2571 N2573 1.384 . S
N2572 C2568 1.427 . S
N2572 C2569 1.384 . S
N2573 C2565 1.427 . S
N2573 C2571 1.384 . S
H2574 C2580 0.930 . S
H2575 C2584 0.930 . S
H2576 C2589 0.929 . S
H2577 C2587 0.929 . S
H2578 C2582 0.929 . S
H2579 C2588 0.929 . S
C2580 H2574 0.930 . S
C2580 C2581 1.367 . S
C2580 C2588 1.378 . S
C2581 C2580 1.367 . S
C2581 C2589 1.433 . S
C2582 H2578 0.929 . S
C2582 C2584 1.378 . S
C2582 C2586 1.350 . S
C2583 C2586 1.463 . S
C2583 C2588 1.350 . S
C2583 N2591 1.427 . S
C2584 H2575 0.930 . S
C2584 C2582 1.378 . S
C2584 C2585 1.367 . S
C2585 C2584 1.367 . S
C2585 C2587 1.433 . S
C2586 C2582 1.350 . S
C2586 C2583 1.463 . S
C2586 N2590 1.427 . S
C2587 H2577 0.929 . S
C2587 C2585 1.433 . S
C2587 N2590 1.384 . S
C2588 H2579 0.929 . S
C2588 C2580 1.378 . S
C2588 C2583 1.350 . S
C2589 H2576 0.929 . S
C2589 C2581 1.433 . S
C2589 N2591 1.384 . S
N2590 C2586 1.427 . S
N2590 C2587 1.384 . S
N2591 C2583 1.427 . S
N2591 C2589 1.384 . S
H2592 C2598 0.930 . S
H2593 C2602 0.930 . S
H2594 C2607 0.929 . S
H2595 C2605 0.929 . S
H2596 C2600 0.929 . S
H2597 C2606 0.929 . S
C2598 H2592 0.930 . S
C2598 C2599 1.367 . S
C2598 C2606 1.378 . S
C2599 C2598 1.367 . S
C2599 C2607 1.433 . S
C2600 H2596 0.929 . S
C2600 C2602 1.378 . S
C2600 C2604 1.350 . S
C2601 C2604 1.463 . S
C2601 C2606 1.350 . S
C2601 N2609 1.427 . S
C2602 H2593 0.930 . S
C2602 C2600 1.378 . S
C2602 C2603 1.367 . S
C2603 C2602 1.367 . S
C2603 C2605 1.433 . S
C2604 C2600 1.350 . S
C2604 C2601 1.463 . S
C2604 N2608 1.427 . S
C2605 H2595 0.929 . S
C2605 C2603 1.433 . S
C2605 N2608 1.384 . S
C2606 H2597 0.929 . S
C2606 C2598 1.378 . S
C2606 C2601 1.350 . S
C2607 H2594 0.929 . S
C2607 C2599 1.433 . S
C2607 N2609 1.384 . S
N2608 C2604 1.427 . S
N2608 C2605 1.384 . S
N2609 C2601 1.427 . S
N2609 C2607 1.384 . S
H2610 C2616 0.930 . S
H2611 C2620 0.930 . S
H2612 C2625 0.929 . S
H2613 C2623 0.929 . S
H2614 C2618 0.929 . S
H2615 C2624 0.929 . S
C2616 H2610 0.930 . S
C2616 C2617 1.367 . S
C2616 C2624 1.378 . S
C2617 C2616 1.367 . S
C2617 C2625 1.433 . S
C2618 H2614 0.929 . S
C2618 C2620 1.378 . S
C2618 C2622 1.350 . S
C2619 C2622 1.463 . S
C2619 C2624 1.350 . S
C2619 N2627 1.427 . S
C2620 H2611 0.930 . S
C2620 C2618 1.378 . S
C2620 C2621 1.367 . S
C2621 C2620 1.367 . S
C2621 C2623 1.433 . S
C2622 C2618 1.350 . S
C2622 C2619 1.463 . S
C2622 N2626 1.427 . S
C2623 H2613 0.929 . S
C2623 C2621 1.433 . S
C2623 N2626 1.384 . S
C2624 H2615 0.929 . S
C2624 C2616 1.378 . S
C2624 C2619 1.350 . S
C2625 H2612 0.929 . S
C2625 C2617 1.433 . S
C2625 N2627 1.384 . S
N2626 C2622 1.427 . S
N2626 C2623 1.384 . S
N2627 C2619 1.427 . S
N2627 C2625 1.384 . S
H2628 C2634 0.930 . S
H2629 C2638 0.930 . S
H2630 C2643 0.929 . S
H2631 C2641 0.929 . S
H2632 C2636 0.929 . S
H2633 C2642 0.929 . S
C2634 H2628 0.930 . S
C2634 C2635 1.367 . S
C2634 C2642 1.378 . S
C2635 C2634 1.367 . S
C2635 C2643 1.433 . S
C2636 H2632 0.929 . S
C2636 C2638 1.378 . S
C2636 C2640 1.350 . S
C2637 C2640 1.463 1_455 S
C2637 C2642 1.350 . S
C2637 N2645 1.427 . S
C2638 H2629 0.930 . S
C2638 C2636 1.378 . S
C2638 C2639 1.367 . S
C2639 C2638 1.367 . S
C2639 C2641 1.433 . S
C2640 C2636 1.350 . S
C2640 C2637 1.463 1_655 S
C2640 N2644 1.427 . S
C2641 H2631 0.929 . S
C2641 C2639 1.433 . S
C2641 N2644 1.384 . S
C2642 H2633 0.929 . S
C2642 C2634 1.378 . S
C2642 C2637 1.350 . S
C2643 H2630 0.929 . S
C2643 C2635 1.433 . S
C2643 N2645 1.384 . S
N2644 C2640 1.427 . S
N2644 C2641 1.384 . S
N2645 C2637 1.427 . S
N2645 C2643 1.384 . S
H2646 C2652 0.930 . S
H2647 C2656 0.930 . S
H2648 C2661 0.929 . S
H2649 C2659 0.929 . S
H2650 C2654 0.929 . S
H2651 C2660 0.929 . S
C2652 H2646 0.930 . S
C2652 C2653 1.367 . S
C2652 C2660 1.378 . S
C2653 C2652 1.367 . S
C2653 C2661 1.433 . S
C2654 H2650 0.929 . S
C2654 C2656 1.378 . S
C2654 C2658 1.350 . S
C2655 C2658 1.463 . S
C2655 C2660 1.350 . S
C2655 N2663 1.427 . S
C2656 H2647 0.930 . S
C2656 C2654 1.378 . S
C2656 C2657 1.367 . S
C2657 C2656 1.367 . S
C2657 C2659 1.433 . S
C2658 C2654 1.350 . S
C2658 C2655 1.463 . S
C2658 N2662 1.427 . S
C2659 H2649 0.929 . S
C2659 C2657 1.433 . S
C2659 N2662 1.384 . S
C2660 H2651 0.929 . S
C2660 C2652 1.378 . S
C2660 C2655 1.350 . S
C2661 H2648 0.929 . S
C2661 C2653 1.433 . S
C2661 N2663 1.384 . S
N2662 C2658 1.427 . S
N2662 C2659 1.384 . S
N2663 C2655 1.427 . S
N2663 C2661 1.384 . S
H2664 C2670 0.930 . S
H2665 C2674 0.930 . S
H2666 C2679 0.929 . S
H2667 C2677 0.929 . S
H2668 C2672 0.929 . S
H2669 C2678 0.929 . S
C2670 H2664 0.930 . S
C2670 C2671 1.367 . S
C2670 C2678 1.378 . S
C2671 C2670 1.367 . S
C2671 C2679 1.433 . S
C2672 H2668 0.929 . S
C2672 C2674 1.378 . S
C2672 C2676 1.350 . S
C2673 C2676 1.463 1_545 S
C2673 C2678 1.350 . S
C2673 N2681 1.427 . S
C2674 H2665 0.930 . S
C2674 C2672 1.378 . S
C2674 C2675 1.367 . S
C2675 C2674 1.367 . S
C2675 C2677 1.433 . S
C2676 C2672 1.350 . S
C2676 C2673 1.463 1_565 S
C2676 N2680 1.427 . S
C2677 H2667 0.929 . S
C2677 C2675 1.433 . S
C2677 N2680 1.384 . S
C2678 H2669 0.929 . S
C2678 C2670 1.378 . S
C2678 C2673 1.350 . S
C2679 H2666 0.929 . S
C2679 C2671 1.433 . S
C2679 N2681 1.384 . S
N2680 C2676 1.427 . S
N2680 C2677 1.384 . S
N2681 C2673 1.427 . S
N2681 C2679 1.384 . S
H2682 C2688 0.930 . S
H2683 C2692 0.930 . S
H2684 C2697 0.929 . S
H2685 C2695 0.929 . S
H2686 C2690 0.929 . S
H2687 C2696 0.929 . S
C2688 H2682 0.930 . S
C2688 C2689 1.367 . S
C2688 C2696 1.378 . S
C2689 C2688 1.367 . S
C2689 C2697 1.433 . S
C2690 H2686 0.929 . S
C2690 C2692 1.378 . S
C2690 C2694 1.350 . S
C2691 C2694 1.463 1_545 S
C2691 C2696 1.350 . S
C2691 N2699 1.427 . S
C2692 H2683 0.930 . S
C2692 C2690 1.378 . S
C2692 C2693 1.367 . S
C2693 C2692 1.367 . S
C2693 C2695 1.433 . S
C2694 C2690 1.350 . S
C2694 C2691 1.463 1_565 S
C2694 N2698 1.427 . S
C2695 H2685 0.929 . S
C2695 C2693 1.433 . S
C2695 N2698 1.384 . S
C2696 H2687 0.929 . S
C2696 C2688 1.378 . S
C2696 C2691 1.350 . S
C2697 H2684 0.929 . S
C2697 C2689 1.433 . S
C2697 N2699 1.384 . S
N2698 C2694 1.427 . S
N2698 C2695 1.384 . S
N2699 C2691 1.427 . S
N2699 C2697 1.384 . S
H2700 C2706 0.930 . S
H2701 C2710 0.930 . S
H2702 C2715 0.929 . S
H2703 C2713 0.929 . S
H2704 C2708 0.929 . S
H2705 C2714 0.929 . S
C2706 H2700 0.930 . S
C2706 C2707 1.367 . S
C2706 C2714 1.378 . S
C2707 C2706 1.367 . S
C2707 C2715 1.433 . S
C2708 H2704 0.929 . S
C2708 C2710 1.378 . S
C2708 C2712 1.350 . S
C2709 C2712 1.463 1_455 S
C2709 C2714 1.350 . S
C2709 N2717 1.427 . S
C2710 H2701 0.930 . S
C2710 C2708 1.378 . S
C2710 C2711 1.367 . S
C2711 C2710 1.367 . S
C2711 C2713 1.433 . S
C2712 C2708 1.350 . S
C2712 C2709 1.463 1_655 S
C2712 N2716 1.427 . S
C2713 H2703 0.929 . S
C2713 C2711 1.433 . S
C2713 N2716 1.384 . S
C2714 H2705 0.929 . S
C2714 C2706 1.378 . S
C2714 C2709 1.350 . S
C2715 H2702 0.929 . S
C2715 C2707 1.433 . S
C2715 N2717 1.384 . S
N2716 C2712 1.427 . S
N2716 C2713 1.384 . S
N2717 C2709 1.427 . S
N2717 C2715 1.384 . S
H2718 C2724 0.930 . S
H2719 C2728 0.930 . S
H2720 C2733 0.929 . S
H2721 C2731 0.929 . S
H2722 C2726 0.929 . S
H2723 C2732 0.929 . S
C2724 H2718 0.930 . S
C2724 C2725 1.367 . S
C2724 C2732 1.378 . S
C2725 C2724 1.367 . S
C2725 C2733 1.433 . S
C2726 H2722 0.929 . S
C2726 C2728 1.378 . S
C2726 C2730 1.350 . S
C2727 C2730 1.463 . S
C2727 C2732 1.350 . S
C2727 N2735 1.427 . S
C2728 H2719 0.930 . S
C2728 C2726 1.378 . S
C2728 C2729 1.367 . S
C2729 C2728 1.367 . S
C2729 C2731 1.433 . S
C2730 C2726 1.350 . S
C2730 C2727 1.463 . S
C2730 N2734 1.427 . S
C2731 H2721 0.929 . S
C2731 C2729 1.433 . S
C2731 N2734 1.384 . S
C2732 H2723 0.929 . S
C2732 C2724 1.378 . S
C2732 C2727 1.350 . S
C2733 H2720 0.929 . S
C2733 C2725 1.433 . S
C2733 N2735 1.384 . S
N2734 C2730 1.427 . S
N2734 C2731 1.384 . S
N2735 C2727 1.427 . S
N2735 C2733 1.384 . S
C799 C5 1.264 . S
C803 C158 1.229 . S
C817 C27 1.271 . S
C821 C180 1.241 . S
C835 C49 1.256 . S
C839 C136 1.245 . S
C853 C71 1.261 . S
C857 C246 1.232 . S
C871 C202 1.234 . S
C875 C93 1.260 . S
C889 C224 1.237 . S
C893 C115 1.257 . S
C907 C26 1.249 . S
C911 C138 1.259 . S
C925 C160 1.265 . S
C929 C48 1.229 . S
C943 C182 1.271 . S
C947 C4 1.229 . S
C961 C114 1.245 . S
C965 C204 1.256 . S
C979 C226 1.264 . S
C983 C70 1.229 . S
C997 C248 1.256 . S
C1001 C92 1.243 . S
C1015 C269 1.258 . S
C1019 C422 1.249 . S
C1033 C291 1.256 . S
C1037 C444 1.247 . S
C1051 C400 1.235 . S
C1055 C313 1.258 . S
C1069 C510 1.242 . S
C1073 C335 1.270 . S
C1087 C466 1.247 . S
C1091 C357 1.265 . S
C1105 C379 1.269 . S
C1109 C488 1.243 . S
C1123 C290 1.249 . S
C1127 C402 1.260 . S
C1141 C312 1.238 . S
C1145 C424 1.272 . S
C1159 C268 1.244 . S
C1163 C446 1.268 . S
C1177 C378 1.237 . S
C1181 C468 1.272 . S
C1195 C490 1.262 . S
C1199 C334 1.249 . S
C1213 C356 1.232 . S
C1217 C512 1.261 . S
C1231 C533 1.271 . S
C1235 C686 1.228 . S
C1249 C708 1.247 . S
C1253 C555 1.266 . S
C1267 C577 1.271 . S
C1271 C664 1.240 . S
C1285 C599 1.270 . S
C1289 C774 1.242 . S
C1303 C730 1.245 . S
C1307 C621 1.268 . S
C1321 C752 1.244 . S
C1325 C643 1.268 . S
C1339 C666 1.256 . S
C1343 C554 1.240 . S
C1357 C688 1.271 . S
C1361 C576 1.240 . S
C1375 C710 1.264 . S
C1379 C532 1.248 . S
C1393 C642 1.229 . S
C1397 C732 1.265 . S
C1411 C598 1.241 . S
C1415 C754 1.256 . S
C1429 C620 1.228 . S
C1433 C776 1.269 . S
C1447 C7 0.962 . S
C1451 C52 0.947 . S
C1465 C29 0.955 . S
C1469 C8 0.957 . S
C1483 C30 0.964 . S
C1487 C51 0.946 . S
C1501 C96 0.966 . S
C1505 C73 0.941 . S
C1519 C95 0.939 . S
C1523 C118 0.959 . S
C1537 C74 0.944 . S
C1541 C117 0.959 . S
C1555 C141 0.936 . S
C1559 C184 0.967 . S
C1573 C163 0.940 . S
C1577 C140 0.967 . S
C1591 C185 0.948 . S
C1595 C162 0.950 . S
C1609 C228 0.953 . S
C1613 C207 0.944 . S
C1627 C229 0.948 . S
C1631 C250 0.950 . S
C1645 C206 0.954 . S
C1649 C251 0.944 . S
C1663 C316 0.967 . S
C1667 C271 0.939 . S
C1681 C293 0.936 . S
C1685 C272 0.964 . S
C1699 C315 0.936 . S
C1703 C294 0.967 . S
C1717 C337 0.949 . S
C1721 C360 0.962 . S
C1735 C382 0.945 . S
C1739 C359 0.954 . S
C1753 C381 0.961 . S
C1757 C338 0.944 . S
C1771 C405 0.950 . S
C1775 C448 0.961 . S
C1789 C427 0.958 . S
C1793 C404 0.944 . S
C1807 C426 0.945 . S
C1811 C449 0.956 . S
C1825 C492 0.965 . S
C1829 C471 0.945 . S
C1843 C493 0.939 . S
C1847 C514 0.967 . S
C1861 C515 0.958 . S
C1865 C470 0.954 . S
C1879 C580 0.967 . S
C1883 C535 0.941 . S
C1897 C557 0.938 . S
C1901 C536 0.961 . S
C1915 C579 0.954 . S
C1919 C558 0.958 . S
C1933 C624 0.947 . S
C1937 C601 0.952 . S
C1951 C623 0.936 . S
C1955 C646 0.963 . S
C1969 C645 0.937 . S
C1973 C602 0.962 . S
C1987 C669 0.961 . S
C1991 C712 0.949 . S
C2005 C691 0.959 . S
C2009 C668 0.944 . S
C2023 C690 0.952 . S
C2027 C713 0.945 . S
C2041 C756 0.944 . S
C2045 C735 0.959 . S
C2059 C778 0.946 . S
C2063 C757 0.962 . S
C2077 C734 0.949 . S
C2081 C779 0.961 . S
C2095 C97 1.449 . S
C2099 C9 1.449 . S
C2113 C119 1.450 . S
C2117 C31 1.449 . S
C2131 C75 1.445 . S
C2135 C53 1.448 . S
C2149 C227 1.441 . S
C2153 C139 1.442 . S
C2167 C249 1.449 . S
C2171 C161 1.449 . S
C2185 C183 1.448 . S
C2189 C205 1.445 . S
C2203 C361 1.446 . S
C2207 C273 1.449 . S
C2221 C383 1.442 . S
C2225 C295 1.446 . S
C2239 C317 1.447 . S
C2243 C339 1.449 . S
C2257 C491 1.442 . S
C2261 C403 1.441 . S
C2275 C425 1.448 . S
C2279 C513 1.444 . S
C2293 C469 1.441 . S
C2297 C447 1.442 . S
C2311 C537 1.444 . S
C2315 C625 1.441 . S
C2329 C647 1.443 . S
C2333 C559 1.447 . S
C2347 C603 1.447 . S
C2351 C581 1.449 . S
C2365 C755 1.441 . S
C2369 C667 1.444 . S
C2383 C777 1.446 . S
C2387 C689 1.442 . S
C2401 C733 1.449 . S
C2405 C711 1.447 . S
C2419 C644 1.315 . S
C2423 C6 1.322 . S
C2437 C28 1.322 . S
C2441 C600 1.315 . S
C2455 C50 1.314 . S
C2459 C622 1.322 . S
C2473 C72 1.315 . S
C2477 C292 1.323 . S
C2491 C94 1.316 . S
C2495 C314 1.317 . S
C2509 C116 1.321 . S
C2513 C270 1.315 . S
C2527 C511 1.316 . S
C2531 C137 1.320 . S
C2545 C467 1.323 . S
C2549 C159 1.315 . S
C2563 C489 1.315 . S
C2567 C181 1.322 . S
C2581 C203 1.317 . S
C2585 C687 1.319 . S
C2599 C225 1.321 . S
C2603 C709 1.317 . S
C2617 C665 1.323 . S
C2621 C247 1.317 . S
C2635 C556 1.319 . S
C2639 C336 1.317 . S
C2653 C578 1.315 . S
C2657 C358 1.319 . S
C2671 C380 1.315 . S
C2675 C534 1.322 . S
C2689 C401 1.317 . S
C2693 C775 1.323 . S
C2707 C731 1.322 . S
C2711 C423 1.318 . S
C2725 C753 1.322 . S
C2729 C445 1.314 . S
