# Generated by pormake.
# Topology sml, (6)-cn, num edge types: 1
# Building blocks:
#     Node 0, Type 0, BuildingBlock: GEDQOX_clean_sbu_0, # of connection points: 6
#     Node 1, Type 0, BuildingBlock: GEDQOX_clean_sbu_0, # of connection points: 6
#     Node 2, Type 0, BuildingBlock: GEDQOX_clean_sbu_0, # of connection points: 6
#     Node 3, Type 0, BuildingBlock: GEDQOX_clean_sbu_0, # of connection points: 6
#     Node 4, Type 0, BuildingBlock: GEDQOX_clean_sbu_0, # of connection points: 6
#     Node 5, Type 0, BuildingBlock: GEDQOX_clean_sbu_0, # of connection points: 6
#     Edge 6, Type (0, 0), BuildingBlock: EZIPEK_clean_linker_0, # of connection points: 2
#     Edge 7, Type (0, 0), BuildingBlock: EZIPEK_clean_linker_0, # of connection points: 2
#     Edge 8, Type (0, 0), BuildingBlock: EZIPEK_clean_linker_0, # of connection points: 2
#     Edge 9, Type (0, 0), BuildingBlock: EZIPEK_clean_linker_0, # of connection points: 2
#     Edge 10, Type (0, 0), BuildingBlock: EZIPEK_clean_linker_0, # of connection points: 2
#     Edge 11, Type (0, 0), BuildingBlock: EZIPEK_clean_linker_0, # of connection points: 2
#     Edge 12, Type (0, 0), BuildingBlock: EZIPEK_clean_linker_0, # of connection points: 2
#     Edge 13, Type (0, 0), BuildingBlock: EZIPEK_clean_linker_0, # of connection points: 2
#     Edge 14, Type (0, 0), BuildingBlock: EZIPEK_clean_linker_0, # of connection points: 2
#     Edge 15, Type (0, 0), BuildingBlock: EZIPEK_clean_linker_0, # of connection points: 2
#     Edge 16, Type (0, 0), BuildingBlock: EZIPEK_clean_linker_0, # of connection points: 2
#     Edge 17, Type (0, 0), BuildingBlock: EZIPEK_clean_linker_0, # of connection points: 2
#     Edge 18, Type (0, 0), BuildingBlock: EZIPEK_clean_linker_0, # of connection points: 2
#     Edge 19, Type (0, 0), BuildingBlock: EZIPEK_clean_linker_0, # of connection points: 2
#     Edge 20, Type (0, 0), BuildingBlock: EZIPEK_clean_linker_0, # of connection points: 2
#     Edge 21, Type (0, 0), BuildingBlock: EZIPEK_clean_linker_0, # of connection points: 2
#     Edge 22, Type (0, 0), BuildingBlock: EZIPEK_clean_linker_0, # of connection points: 2
#     Edge 23, Type (0, 0), BuildingBlock: EZIPEK_clean_linker_0, # of connection points: 2
# Relax obj value: 0.252
# Max RMSD: 0.236
# Mean RMSD: 0.236
data_MOF--net-sml--node1-GEDQOX_clean_sbu_0--edge1-EZIPEK_clean_linker_0
_symmetry_space_group_name_H-M    P1
_symmetry_Int_Tables_number       1
_symmetry_cell_setting            triclinic
loop_
_symmetry_equiv_pos_as_xyz
'x, y, z'
_cell_length_a     42.808929
_cell_length_b     43.017138
_cell_length_c     11.714253
_cell_angle_alpha  89.953123
_cell_angle_beta   89.760052
_cell_angle_gamma 120.06755
loop_
_atom_site_label
_atom_site_type_symbol
_atom_site_fract_x
_atom_site_fract_y
_atom_site_fract_z
_atom_type_partial_charge
Nd0 Nd 0.2449 0.40898 1.0156 0.0
Nd1 Nd 0.21975 0.46688 1.01583 0.0
C2 C 0.28499 0.37854 0.99107 0.0
C3 C 0.29004 0.35356 0.91576 0.0
C4 C 0.31255 0.36655 0.81863 0.0
C5 C 0.32386 0.34512 0.76255 0.0
C6 C 0.31283 0.31034 0.80236 0.0
C7 C 0.28765 0.29608 0.89218 0.0
C8 C 0.27649 0.31756 0.94881 0.0
C9 C 0.16995 0.37488 1.00806 0.0
C10 C 0.22214 0.43049 0.77068 0.0
C11 C 0.18512 0.50306 0.04716 0.0
C12 C 0.18643 0.53406 0.10743 0.0
C13 C 0.18453 0.53568 0.22734 0.0
C14 C 0.18685 0.56615 0.28017 0.0
C15 C 0.19079 0.59517 0.21379 0.0
C16 C 0.1912 0.59275 0.09439 0.0
C17 C 0.189 0.5626 0.04196 0.0
C18 C 0.29282 0.49459 0.98436 0.0
C19 C 0.23319 0.43761 0.2655 0.0
O20 O 0.29411 0.41037 0.95023 0.0
O21 O 0.25632 0.36523 0.05708 0.0
O22 O 0.18765 0.35764 1.01003 0.0
O23 O 0.19262 0.40789 1.00555 0.0
O24 O 0.24259 0.42015 0.82396 0.0
O25 O 0.20657 0.44538 0.83 0.0
O26 O 0.17813 0.47438 0.10603 0.0
O27 O 0.20901 0.51039 0.96621 0.0
O28 O 0.27457 0.50826 0.94063 0.0
O29 O 0.27305 0.46906 0.05211 0.0
O30 O 0.22637 0.46049 0.20986 0.0
O31 O 0.24197 0.41601 0.21063 0.0
H32 H 0.32343 0.39407 0.79041 0.0
H33 H 0.34355 0.35671 0.69415 0.0
H34 H 0.27916 0.26944 0.92496 0.0
H35 H 0.25916 0.30669 1.02313 0.0
H36 H 0.18215 0.51393 0.28022 0.0
H37 H 0.18708 0.56771 0.37247 0.0
H38 H 0.19483 0.61504 0.04163 0.0
H39 H 0.19011 0.56194 0.94961 0.0
Nd40 Nd 0.85 0.24262 0.3556 0.0
Nd41 Nd 0.76397 0.20952 0.36321 0.0
C42 C 0.92091 0.28522 0.33183 0.0
C43 C 0.95376 0.29476 0.26286 0.0
C44 C 0.98083 0.33103 0.25553 0.0
C45 C 1.01391 0.3411 0.20231 0.0
C46 C 1.02069 0.31514 0.15479 0.0
C47 C 0.99312 0.27885 0.15732 0.0
C48 C 0.95996 0.26869 0.21174 0.0
C49 C 0.80957 0.16797 0.36666 0.0
C50 C 0.80667 0.22437 0.10997 0.0
C51 C 0.69321 0.17072 0.39469 0.0
C52 C 0.66546 0.17508 0.45824 0.0
C53 C 0.64003 0.14712 0.52804 0.0
C54 C 0.6121 0.1499 0.58168 0.0
C55 C 0.60907 0.18066 0.56579 0.0
C56 C 0.6353 0.20919 0.50004 0.0
C57 C 0.66327 0.20653 0.44716 0.0
C58 C 0.80128 0.2836 0.36308 0.0
C59 C 0.80847 0.22513 0.60656 0.0
O60 O 0.89729 0.29318 0.29091 0.0
O61 O 0.90606 0.25505 0.38977 0.0
O62 O 0.84356 0.18686 0.3928 0.0
O63 O 0.80081 0.18861 0.31707 0.0
O64 O 0.83802 0.24037 0.16341 0.0
O65 O 0.7752 0.20807 0.1665 0.0
O66 O 0.71626 0.16612 0.45523 0.0
O67 O 0.70827 0.19174 0.30616 0.0
O68 O 0.76698 0.26405 0.3444 0.0
O69 O 0.81262 0.26358 0.40257 0.0
O70 O 0.77728 0.20706 0.55272 0.0
O71 O 0.8395 0.24479 0.55051 0.0
H72 H 0.97679 0.35162 0.2943 0.0
H73 H 0.03469 0.36918 0.20099 0.0
H74 H 0.99779 0.25837 0.12102 0.0
H75 H 0.93959 0.24051 0.21621 0.0
H76 H 0.64118 0.12269 0.53853 0.0
H77 H 0.592 0.12748 0.6314 0.0
H78 H 0.63335 0.23307 0.48629 0.0
H79 H 0.68261 0.22876 0.39511 0.0
Nd80 Nd 0.62566 0.84137 0.67966 0.0
Nd81 Nd 0.56532 0.75717 0.68497 0.0
C82 C 0.65814 0.91206 0.64763 0.0
C83 C 0.67868 0.9443 0.57318 0.0
C84 C 0.66322 0.96545 0.54499 0.0
C85 C 0.68419 0.99971 0.49654 0.0
C86 C 0.72115 0.01367 0.47488 0.0
C87 C 0.73613 0.99157 0.49515 0.0
C88 C 0.7152 0.95736 0.54459 0.0
C89 C 0.65283 0.79605 0.71302 0.0
C90 C 0.59857 0.79767 0.43379 0.0
C91 C 0.53141 0.68662 0.71336 0.0
C92 C 0.49944 0.65889 0.77808 0.0
C93 C 0.50319 0.63586 0.85531 0.0
C94 C 0.47283 0.60783 0.91018 0.0
C95 C 0.43813 0.60223 0.88827 0.0
C96 C 0.43452 0.626 0.8147 0.0
C97 C 0.46478 0.65407 0.7605 0.0
C98 C 0.53202 0.79827 0.69423 0.0
C99 C 0.59518 0.80138 0.92968 0.0
O100 O 0.62366 0.8904 0.62921 0.0
O101 O 0.67448 0.89549 0.68722 0.0
O102 O 0.66918 0.82966 0.74339 0.0
O103 O 0.62556 0.7891 0.65171 0.0
O104 O 0.62183 0.82726 0.48837 0.0
O105 O 0.57507 0.76782 0.48921 0.0
O106 O 0.55986 0.70874 0.77282 0.0
O107 O 0.52536 0.70242 0.62728 0.0
O108 O 0.51457 0.76345 0.69417 0.0
O109 O 0.56544 0.80903 0.69209 0.0
O110 O 0.57632 0.77049 0.87572 0.0
O111 O 0.61331 0.83254 0.8741 0.0
H112 H 0.63529 0.95633 0.56637 0.0
H113 H 0.67195 0.0161 0.48148 0.0
H114 H 0.76455 1.00168 0.47901 0.0
H115 H 0.72812 0.94195 0.5654 0.0
H116 H 0.52954 0.63899 0.87098 0.0
H117 H 0.47624 0.58973 0.96628 0.0
H118 H 0.40801 0.62215 0.79652 0.0
H119 H 0.46082 0.67144 0.70267 0.0
Nd120 Nd 0.79829 0.61516 0.0291 0.0
Nd121 Nd 0.82162 0.56089 0.02889 0.0
C122 C 0.77206 0.6591 0.99459 0.0
C123 C 0.75338 0.67312 0.92096 0.0
C124 C 0.71545 0.65665 0.92034 0.0
C125 C 0.6984 0.6741 0.87143 0.0
C126 C 0.71882 0.70835 0.82194 0.0
C127 C 0.75653 0.7238 0.81556 0.0
C128 C 0.7736 0.7065 0.86509 0.0
C129 C 0.87172 0.64363 0.06479 0.0
C130 C 0.81159 0.58735 0.78329 0.0
C131 C 0.85365 0.5224 0.06643 0.0
C132 C 0.84991 0.49183 0.13599 0.0
C133 C 0.88089 0.49025 0.16559 0.0
C134 C 0.87786 0.45919 0.21591 0.0
C135 C 0.84373 0.4292 0.23813 0.0
C136 C 0.81279 0.43165 0.21479 0.0
C137 C 0.81582 0.46264 0.16429 0.0
C138 C 0.74829 0.53009 0.99726 0.0
C139 C 0.80317 0.58602 0.27954 0.0
O140 O 0.75357 0.6275 0.043 0.0
O141 O 0.80499 0.66719 0.96845 0.0
O142 O 0.85165 0.6531 0.12034 0.0
O143 O 0.85324 0.62002 0.9913 0.0
O144 O 0.79048 0.59609 0.84058 0.0
O145 O 0.83318 0.57903 0.83956 0.0
O146 O 0.8629 0.55264 0.11852 0.0
O147 O 0.82947 0.51503 0.98741 0.0
O148 O 0.76844 0.51927 0.94957 0.0
O149 O 0.76647 0.55524 0.06714 0.0
O150 O 0.81748 0.56927 0.22391 0.0
O151 O 0.78987 0.60337 0.2228 0.0
H152 H 0.69897 0.63111 0.96289 0.0
H153 H 0.66932 0.66167 0.87748 0.0
H154 H 0.77289 0.75029 0.77862 0.0
H155 H 0.80282 0.72025 0.86505 0.0
H156 H 0.90747 0.51245 0.14488 0.0
H157 H 0.90207 0.45787 0.23201 0.0
H158 H 0.78616 0.40877 0.23012 0.0
H159 H 0.79149 0.46315 0.14285 0.0
Nd160 Nd 0.19629 0.79407 0.37114 0.0
Nd161 Nd 0.27578 0.81467 0.36734 0.0
C162 C 0.12644 0.77041 0.33956 0.0
C163 C 0.09484 0.75377 0.26156 0.0
C164 C 0.07998 0.71824 0.22231 0.0
C165 C 0.04628 0.70114 0.1677 0.0
C166 C 0.02691 0.71924 0.15128 0.0
C167 C 0.04295 0.75549 0.18283 0.0
C168 C 0.07651 0.77253 0.23752 0.0
C169 C 0.24418 0.86591 0.40611 0.0
C170 C 0.23541 0.80125 0.12092 0.0
C171 C 0.34676 0.85184 0.39088 0.0
C172 C 0.37458 0.84743 0.45276 0.0
C173 C 0.40094 0.87588 0.51804 0.0
C174 C 0.4287 0.87287 0.57117 0.0
C175 C 0.43048 0.84127 0.56009 0.0
C176 C 0.40353 0.81246 0.49786 0.0
C177 C 0.37581 0.81541 0.44512 0.0
C178 C 0.23843 0.7412 0.35926 0.0
C179 C 0.23338 0.79622 0.61786 0.0
O180 O 0.13875 0.75061 0.38374 0.0
O181 O 0.15187 0.80333 0.31794 0.0
O182 O 0.2144 0.84764 0.46308 0.0
O183 O 0.24795 0.84638 0.33316 0.0
O184 O 0.2051 0.79066 0.17828 0.0
O185 O 0.2669 0.81433 0.17326 0.0
O186 O 0.3247 0.85769 0.45311 0.0
O187 O 0.33059 0.83014 0.30506 0.0
O188 O 0.27287 0.76088 0.37386 0.0
O189 O 0.22322 0.76016 0.36348 0.0
O190 O 0.26335 0.8073 0.55916 0.0
O191 O 0.20261 0.78708 0.56485 0.0
H192 H 0.09341 0.70306 0.23906 0.0
H193 H 0.03425 0.67307 0.14498 0.0
H194 H 0.02834 0.76984 0.17253 0.0
H195 H 0.08716 0.79985 0.26713 0.0
H196 H 0.4005 0.90075 0.52587 0.0
H197 H 0.44931 0.89549 0.61815 0.0
H198 H 0.40449 0.78792 0.48775 0.0
H199 H 0.35578 0.79285 0.39649 0.0
Nd200 Nd 0.41696 0.18847 0.6944 0.0
Nd201 Nd 0.47527 0.26466 0.6765 0.0
C202 C 0.37558 0.11766 0.67497 0.0
C203 C 0.35585 0.08678 0.59649 0.0
C204 C 0.37362 0.0786 0.51024 0.0
C205 C 0.35576 0.04538 0.45378 0.0
C206 C 0.32009 0.01977 0.48371 0.0
C207 C 0.30157 0.02912 0.56307 0.0
C208 C 0.31925 0.0623 0.61868 0.0
C209 C 0.39146 0.23521 0.71912 0.0
C210 C 0.44058 0.22487 0.43654 0.0
C211 C 0.51909 0.33523 0.69772 0.0
C212 C 0.54924 0.36224 0.76915 0.0
C213 C 0.54272 0.37826 0.86442 0.0
C214 C 0.57156 0.40615 0.92414 0.0
C215 C 0.60737 0.41872 0.88884 0.0
C216 C 0.61389 0.4022 0.79592 0.0
C217 C 0.58524 0.37441 0.73661 0.0
C218 C 0.50105 0.2182 0.65345 0.0
C219 C 0.45076 0.22747 0.93584 0.0
O220 O 0.4109 0.13438 0.67567 0.0
O221 O 0.36269 0.13912 0.69197 0.0
O222 O 0.37999 0.20598 0.77825 0.0
O223 O 0.41513 0.239 0.64601 0.0
O224 O 0.42364 0.19554 0.49901 0.0
O225 O 0.45922 0.25654 0.48661 0.0
O226 O 0.48664 0.31806 0.74179 0.0
O227 O 0.52583 0.31472 0.63214 0.0
O228 O 0.51237 0.24738 0.59462 0.0
O229 O 0.47723 0.2144 0.72593 0.0
O230 O 0.47174 0.25614 0.87334 0.0
O231 O 0.42841 0.19657 0.88661 0.0
H232 H 0.40182 0.09689 0.49102 0.0
H233 H 0.37061 0.03858 0.39334 0.0
H234 H 0.27413 1.00973 0.58772 0.0
H235 H 0.3049 0.06788 0.68456 0.0
H236 H 0.51536 0.36978 0.8914 0.0
H237 H 0.56598 0.41847 0.99602 0.0
H238 H 0.6413 0.41137 0.76773 0.0
H239 H 0.59137 0.36301 0.66338 0.0
C240 C 0.34321 0.24948 0.65969 0.0
C241 C 0.37398 0.25768 0.7269 0.0
C242 C 0.36469 0.30062 0.83929 0.0
C243 C 0.33428 0.29294 0.77147 0.0
N244 N 0.29661 0.26386 0.6093 0.0
N245 N 0.41701 0.29435 0.86868 0.0
C246 C 0.32419 0.26853 0.67883 0.0
C247 C 0.38554 0.2843 0.81282 0.0
N248 N 0.33163 0.2227 0.58038 0.0
N249 N 0.37285 0.32251 0.93254 0.0
H250 H 0.43143 0.28116 0.85663 0.0
H251 H 0.43014 0.31713 0.91957 0.0
H252 H 0.35971 0.33669 0.95255 0.0
H253 H 0.39123 0.32511 0.99495 0.0
H254 H 0.30744 0.21255 0.53625 0.0
H255 H 0.34573 0.20934 0.56186 0.0
H256 H 0.28955 0.24894 0.53441 0.0
H257 H 0.28189 0.27686 0.62337 0.0
C258 C 0.12007 0.34195 0.15117 0.0
C259 C 0.13123 0.35857 0.0421 0.0
C260 C 0.06865 0.34323 1.00066 0.0
C261 C 0.0577 0.3265 0.10969 0.0
N262 N 0.07099 0.30319 0.27838 0.0
N263 N 0.11697 0.37404 0.85996 0.0
C264 C 0.08282 0.32368 0.18137 0.0
C265 C 0.10567 0.35891 0.96575 0.0
N266 N 0.14538 0.34569 0.2294 0.0
N267 N 0.04326 0.34332 0.93035 0.0
H268 H 0.14344 0.38435 0.83138 0.0
H269 H 0.10061 0.37611 0.79883 0.0
H270 H 1.01594 0.33066 0.95219 0.0
H271 H 0.0485 0.35522 0.85011 0.0
H272 H 0.13949 0.33809 0.31469 0.0
H273 H 0.17302 0.35954 0.21284 0.0
H274 H 0.08691 0.29604 0.32603 0.0
H275 H 0.04431 0.29072 0.30679 0.0
C276 C 0.79291 0.11354 0.49429 0.0
C277 C 0.7857 0.12825 0.39447 0.0
C278 C 0.74005 0.06615 0.33898 0.0
C279 C 0.74465 0.05267 0.44404 0.0
N280 N 0.77029 0.06519 0.63264 0.0
N281 N 0.74574 0.11678 0.23285 0.0
C282 C 0.76987 0.07675 0.52405 0.0
C283 C 0.75728 0.1041 0.32022 0.0
N284 N 0.82129 0.13446 0.56412 0.0
N285 N 0.71998 0.04256 0.25505 0.0
H286 H 0.75642 0.14371 0.2141 0.0
H287 H 0.72275 0.10053 0.1852 0.0
H288 H 0.70728 0.01476 0.26567 0.0
H289 H 0.71898 0.05043 0.17164 0.0
H290 H 0.83177 0.1236 0.62174 0.0
H291 H 0.83417 0.16229 0.56754 0.0
H292 H 0.78489 0.08247 0.69893 0.0
H293 H 0.75333 0.03891 0.6604 0.0
C294 C 0.66843 0.74752 0.65647 0.0
C295 C 0.66806 0.77178 0.73929 0.0
C296 C 0.70282 0.75563 0.87114 0.0
C297 C 0.70129 0.73003 0.79177 0.0
N298 N 0.68548 0.70268 0.60675 0.0
N299 N 0.68068 0.79461 0.9331 0.0
C300 C 0.6844 0.72594 0.6842 0.0
C301 C 0.68443 0.77485 0.8481 0.0
N302 N 0.65468 0.74602 0.55017 0.0
N303 N 0.72256 0.76209 0.9689 0.0
H304 H 0.66586 0.8076 0.92531 0.0
H305 H 0.6884 0.79479 1.01729 0.0
H306 H 0.7339 0.74673 0.9948 0.0
H307 H 0.73006 0.7843 1.02098 0.0
H308 H 0.65076 0.72717 0.48823 0.0
H309 H 0.64792 0.76467 0.52074 0.0
H310 H 0.67521 0.69852 0.52454 0.0
H311 H 0.69755 0.68732 0.62428 0.0
C312 C 0.96263 0.68198 0.2161 0.0
C313 C 0.98742 0.69861 0.12482 0.0
C314 C 0.93652 0.67967 0.9916 0.0
C315 C 0.91176 0.66088 0.08208 0.0
N316 N 0.90201 0.63939 0.27655 0.0
N317 N 0.9989 0.71076 0.92395 0.0
C318 C 0.92511 0.66084 0.19311 0.0
C319 C 0.9746 0.69661 1.01181 0.0
N320 N 0.97483 0.68734 0.32621 0.0
N321 N 0.92374 0.68299 0.88823 0.0
H322 H 0.02674 0.72411 0.93685 0.0
H323 H 0.99168 0.70727 0.83821 0.0
H324 H 0.8963 0.67135 0.87045 0.0
H325 H 0.94013 0.69944 0.82252 0.0
H326 H 0.9579 0.68023 0.39727 0.0
H327 H 1.00209 0.7015 0.34776 0.0
H328 H 0.91032 0.6343 0.35426 0.0
H329 H 0.87444 0.62404 0.26434 0.0
C330 C 0.31074 0.95859 0.52405 0.0
C331 C 0.30444 0.98121 0.4513 0.0
C332 C 0.26406 0.92873 0.33421 0.0
C333 C 0.26722 0.90579 0.41522 0.0
N334 N 0.28897 0.89874 0.59701 0.0
N335 N 0.27359 0.98835 0.29111 0.0
C336 C 0.28949 0.92075 0.51228 0.0
C337 C 0.28083 0.96646 0.35674 0.0
N338 N 0.33714 0.97327 0.60509 0.0
N339 N 0.24471 0.91439 0.23669 0.0
H340 H 0.28638 0.01607 0.30355 0.0
H341 H 0.25371 0.97905 0.22873 0.0
H342 H 0.23119 0.88691 0.21964 0.0
H343 H 0.24391 0.92972 0.16925 0.0
H344 H 0.34602 0.95841 0.65081 0.0
H345 H 0.35247 1.00078 0.62033 0.0
H346 H 0.30081 0.90798 0.67648 0.0
H347 H 0.27385 0.87094 0.59151 0.0
C348 C 0.23992 0.41479 0.57892 0.0
C349 C 0.21933 0.4273 0.6399 0.0
C350 C 0.20084 0.43813 0.44992 0.0
C351 C 0.22881 0.43478 0.39463 0.0
N352 N 0.28067 0.42717 0.42054 0.0
N353 N 0.17716 0.44952 0.62188 0.0
C354 C 0.25013 0.42541 0.46332 0.0
C355 C 0.19931 0.43908 0.57229 0.0
N356 N 0.24726 0.39017 0.62642 0.0
N357 N 0.17336 0.43682 0.38705 0.0
H358 H 0.16614 0.44176 0.7031 0.0
H359 H 0.1684 0.4649 0.5783 0.0
H360 H 0.17018 0.4311 0.30014 0.0
H361 H 0.15081 0.43621 0.4235 0.0
H362 H 0.26075 0.37938 0.58177 0.0
H363 H 0.23436 0.3758 0.70013 0.0
H364 H 0.29792 0.42254 0.47129 0.0
H365 H 0.2911 0.43764 0.34001 0.0
C366 C 0.79796 0.19232 0.91951 0.0
C367 C 0.8075 0.2244 0.98074 0.0
C368 C 0.81744 0.25659 0.79711 0.0
C369 C 0.80788 0.22462 0.73561 0.0
N370 N 0.78221 0.16031 0.73895 0.0
N371 N 0.83697 0.28915 0.97523 0.0
C372 C 0.7962 0.19198 0.79717 0.0
C373 C 0.82031 0.25712 0.91873 0.0
N374 N 0.7936 0.1629 0.978 0.0
N375 N 0.82099 0.28589 0.73995 0.0
H376 H 0.84094 0.29113 0.06309 0.0
H377 H 0.85023 0.31397 0.93409 0.0
H378 H 0.81663 0.28565 0.65248 0.0
H379 H 0.82383 0.30871 0.78043 0.0
H380 H 0.79058 0.1398 0.9392 0.0
H381 H 0.79709 0.16308 0.06597 0.0
H382 H 0.76965 0.13516 0.77793 0.0
H383 H 0.78033 0.15882 0.65042 0.0
C384 C 0.59683 0.82733 0.24574 0.0
C385 C 0.59813 0.79875 0.30444 0.0
C386 C 0.60057 0.77357 0.1167 0.0
C387 C 0.59606 0.80036 0.0588 0.0
N388 N 0.5805 0.8469 0.07348 0.0
N389 N 0.59743 0.74228 0.29213 0.0
C390 C 0.59191 0.82577 0.12477 0.0
C391 C 0.59849 0.77107 0.2387 0.0
N392 N 0.59992 0.85624 0.30422 0.0
N393 N 0.609 0.75151 0.05633 0.0
H394 H 0.601 0.74107 0.3794 0.0
H395 H 0.59124 0.71856 0.25007 0.0
H396 H 0.61133 0.75181 0.96799 0.0
H397 H 0.61751 0.73513 0.09418 0.0
H398 H 0.60508 0.87997 0.26391 0.0
H399 H 0.59928 0.85789 0.39251 0.0
H400 H 0.57268 0.86274 0.11875 0.0
H401 H 0.57469 0.84563 0.98683 0.0
C402 C 0.79966 0.555 0.59171 0.0
C403 C 0.81058 0.58723 0.65411 0.0
C404 C 0.81793 0.61927 0.47123 0.0
C405 C 0.80405 0.58642 0.40929 0.0
N406 N 0.77524 0.52182 0.41569 0.0
N407 N 0.82635 0.64952 0.6529 0.0
C408 C 0.79343 0.55402 0.4711 0.0
C409 C 0.81824 0.61904 0.59359 0.0
N410 N 0.79476 0.52497 0.64757 0.0
N411 N 0.8333 0.65126 0.41377 0.0
H412 H 0.83116 0.65221 0.74048 0.0
H413 H 0.8265 0.67165 0.61606 0.0
H414 H 0.83478 0.65332 0.32541 0.0
H415 H 0.84782 0.67614 0.45342 0.0
H416 H 0.79162 0.50223 0.6058 0.0
H417 H 0.79622 0.52344 0.73591 0.0
H418 H 0.76359 0.49702 0.45678 0.0
H419 H 0.76828 0.5197 0.32977 0.0
C420 C 0.20662 0.76721 0.81241 0.0
C421 C 0.23511 0.79549 0.74768 0.0
C422 C 0.25993 0.82852 0.9276 0.0
C423 C 0.23409 0.79912 0.99269 0.0
N424 N 0.18696 0.73686 0.99588 0.0
N425 N 0.29731 0.84609 0.76105 0.0
C426 C 0.20829 0.76752 0.93485 0.0
C427 C 0.26433 0.824 0.80969 0.0
N428 N 0.17868 0.739 0.75781 0.0
N429 N 0.27981 0.86154 0.97682 0.0
H430 H 0.3051 0.84376 0.67932 0.0
H431 H 0.31937 0.86454 0.80874 0.0
H432 H 0.27623 0.86675 0.06137 0.0
H433 H 0.29655 0.88461 0.9295 0.0
H434 H 0.15462 0.72105 0.79878 0.0
H435 H 0.1792 0.7337 0.67131 0.0
H436 H 0.17012 0.71206 0.95833 0.0
H437 H 0.18875 0.73509 0.08408 0.0
C438 C 0.44064 0.19477 0.24484 0.0
C439 C 0.43931 0.22278 0.30711 0.0
C440 C 0.45071 0.2569 0.12724 0.0
C441 C 0.4521 0.22909 0.065 0.0
N442 N 0.46052 0.17794 0.07346 0.0
N443 N 0.42815 0.27222 0.29515 0.0
C444 C 0.45024 0.19975 0.12649 0.0
C445 C 0.44024 0.25153 0.24462 0.0
N446 N 0.43033 0.16219 0.29418 0.0
N447 N 0.4616 0.28958 0.07822 0.0
H448 H 0.41715 0.26713 0.37733 0.0
H449 H 0.42422 0.29095 0.25065 0.0
H450 H 0.47349 0.297 0.99816 0.0
H451 H 0.46403 0.3115 0.12362 0.0
H452 H 0.42689 0.14 0.24816 0.0
H453 H 0.4204 0.15487 0.37643 0.0
H454 H 0.46451 0.15902 0.11651 0.0
H455 H 0.4697 0.18187 0.9892 0.0
C456 C 0.23747 0.65847 0.2496 0.0
C457 C 0.20144 0.63082 0.26544 0.0
C458 C 0.18748 0.67495 0.35089 0.0
C459 C 0.22258 0.70311 0.31961 0.0
N460 N 0.27436 0.72027 0.19603 0.0
N461 N 0.1403 0.61292 0.31884 0.0
C462 C 0.24574 0.69448 0.25683 0.0
C463 C 0.17576 0.63905 0.31263 0.0
N464 N 0.26393 0.65046 0.22616 0.0
N465 N 0.16588 0.68196 0.41932 0.0
H466 H 0.13136 0.58644 0.2946 0.0
H467 H 0.11972 0.61805 0.34093 0.0
H468 H 0.17363 0.70757 0.44956 0.0
H469 H 0.14146 0.66193 0.45303 0.0
H470 H 0.29122 0.67004 0.22381 0.0
H471 H 0.25897 0.62413 0.22154 0.0
H472 H 0.29046 0.71441 0.14351 0.0
H473 H 0.27864 0.74615 0.18422 0.0
C474 C 0.57496 0.19617 0.71146 0.0
C475 C 0.57615 0.18159 0.60378 0.0
C476 C 0.52115 0.18138 0.54514 0.0
C477 C 0.521 0.19803 0.64955 0.0
N478 N 0.54243 0.21412 0.84225 0.0
N479 N 0.54566 0.1514 0.43141 0.0
C480 C 0.546 0.20272 0.7367 0.0
C481 C 0.54753 0.17114 0.52528 0.0
N482 N 0.60239 0.20511 0.78707 0.0
N483 N 0.49689 0.17693 0.46245 0.0
H484 H 0.56488 0.14397 0.41303 0.0
H485 H 0.52365 0.13976 0.37666 0.0
H486 H 0.47568 0.18165 0.47778 0.0
H487 H 0.49852 0.17007 0.37834 0.0
H488 H 0.60559 0.21918 0.86237 0.0
H489 H 0.62306 0.19944 0.77202 0.0
H490 H 0.55771 0.21539 0.91276 0.0
H491 H 0.52215 0.21992 0.86199 0.0
C492 C 0.35271 0.54183 0.06271 0.0
C493 C 0.33318 0.51476 0.98036 0.0
C494 C 0.3879 0.53888 0.86073 0.0
C495 C 0.4049 0.5696 0.93156 0.0
N496 N 0.40549 0.59994 0.1045 0.0
N497 N 0.33219 0.48659 0.80197 0.0
C498 C 0.3881 0.57067 0.03515 0.0
C499 C 0.35106 0.51267 0.8807 0.0
N500 N 0.33711 0.54005 0.16633 0.0
N501 N 0.40706 0.53492 0.77391 0.0
H502 H 0.30589 0.4661 0.81669 0.0
H503 H 0.34184 0.48606 0.7207 0.0
H504 H 0.43389 0.5539 0.75604 0.0
H505 H 0.3976 0.51155 0.72608 0.0
H506 H 0.35051 0.55718 0.23404 0.0
H507 H 0.31134 0.51931 0.18789 0.0
H508 H 0.39366 0.60458 0.17529 0.0
H509 H 0.43182 0.62056 0.08832 0.0
C510 C 0.81291 0.33006 0.21426 0.0
C511 C 0.82185 0.32189 0.32299 0.0
C512 C 0.84858 0.38568 0.37615 0.0
C513 C 0.83979 0.3934 0.2667 0.0
N514 N 0.82526 0.37515 0.07064 0.0
N515 N 0.85718 0.34392 0.49405 0.0
C516 C 0.82568 0.36626 0.18249 0.0
C517 C 0.84284 0.35044 0.39958 0.0
N518 N 0.79095 0.30315 0.14151 0.0
N519 N 0.86089 0.41144 0.45887 0.0
H520 H 0.85498 0.319 0.50848 0.0
H521 H 0.87454 0.36392 0.54989 0.0
H522 H 0.8654 0.43729 0.44407 0.0
H523 H 0.86418 0.40647 0.54372 0.0
H524 H 0.77878 0.30733 0.07083 0.0
H525 H 0.78422 0.27648 0.15218 0.0
H526 H 0.81885 0.35693 1.004 0.0
H527 H 0.83505 0.40152 0.0431 0.0
C528 C 0.48842 0.84185 0.52314 0.0
C529 C 0.46217 0.83899 0.60294 0.0
C530 C 0.49183 0.82262 0.75201 0.0
C531 C 0.51381 0.8193 0.66736 0.0
N532 N 0.52958 0.82155 0.46861 0.0
N533 N 0.43845 0.82702 0.79463 0.0
C534 C 0.51169 0.82847 0.55225 0.0
C535 C 0.4641 0.83005 0.7185 0.0
N536 N 0.49094 0.85722 0.41882 0.0
N537 N 0.49739 0.8183 0.86423 0.0
H538 H 0.41845 0.83306 0.77315 0.0
H539 H 0.43578 0.81686 0.87698 0.0
H540 H 0.51715 0.81237 0.88996 0.0
H541 H 0.4847 0.82338 0.93169 0.0
H542 H 0.51187 0.8633 0.36123 0.0
H543 H 0.47415 0.86715 0.39456 0.0
H544 H 0.52528 0.82302 0.38179 0.0
H545 H 0.54661 0.81152 0.48628 0.0
C546 C 0.6948 0.47122 0.05404 0.0
C547 C 0.70845 0.50563 1.00299 0.0
C548 C 0.65023 0.48531 0.90838 0.0
C549 C 0.6387 0.44971 0.94563 0.0
N550 N 0.64488 0.40971 0.07457 0.0
N551 N 0.69891 0.54761 0.89535 0.0
C552 C 0.65939 0.44306 0.02598 0.0
C553 C 0.68567 0.51351 0.93641 0.0
N554 N 0.71654 0.46546 0.1258 0.0
N555 N 0.62727 0.49178 0.84523 0.0
H556 H 0.7241 0.56867 0.91909 0.0
H557 H 0.68557 0.55537 0.83818 0.0
H558 H 0.60143 0.47157 0.8229 0.0
H559 H 0.63261 0.51712 0.81957 0.0
H560 H 0.7102 0.44066 0.15992 0.0
H561 H 0.74174 0.48615 0.15163 0.0
H562 H 0.65734 0.40269 0.13724 0.0
H563 H 0.61884 0.38905 0.05614 0.0
loop_
_geom_bond_atom_site_label_1
_geom_bond_atom_site_label_2
_geom_bond_distance
_geom_bond_site_symmetry_2
_ccdc_geom_bond_type
Nd0 C2 2.836 1_554 S
Nd0 O20 2.500 1_554 S
Nd0 O21 2.492 1_554 S
Nd0 O22 2.487 . S
Nd0 O23 2.682 . S
Nd0 O24 2.410 1_554 S
Nd0 O29 2.414 1_554 S
Nd0 O31 2.424 . S
Nd1 C11 2.836 1_556 S
Nd1 O23 2.414 1_556 S
Nd1 O25 2.424 . S
Nd1 O26 2.500 1_556 S
Nd1 O27 2.492 1_556 S
Nd1 O28 2.487 . S
Nd1 O29 2.682 . S
Nd1 O30 2.410 1_556 S
C2 Nd0 2.836 1_556 S
C2 C3 1.498 . S
C2 O20 1.258 . S
C2 O21 1.239 . S
C3 C2 1.498 . S
C3 C4 1.366 . S
C3 C8 1.407 . S
C4 C3 1.366 . S
C4 C5 1.392 . S
C4 H32 0.930 . S
C5 C4 1.392 . S
C5 C6 1.398 . S
C5 H33 0.929 . S
C6 C5 1.398 . S
C6 C7 1.352 . S
C7 C6 1.352 . S
C7 C8 1.384 . S
C7 H34 0.930 . S
C8 C3 1.407 . S
C8 C7 1.384 . S
C8 H35 0.929 . S
C9 O22 1.241 . S
C9 O23 1.273 . S
C10 O24 1.251 . S
C10 O25 1.268 . S
C11 Nd1 2.836 1_554 S
C11 C12 1.498 . S
C11 O26 1.258 . S
C11 O27 1.239 . S
C12 C11 1.498 . S
C12 C13 1.366 . S
C12 C17 1.407 . S
C13 C12 1.366 . S
C13 C14 1.392 . S
C13 H36 0.930 . S
C14 C13 1.392 . S
C14 C15 1.398 . S
C14 H37 0.929 . S
C15 C14 1.398 . S
C15 C16 1.352 . S
C16 C15 1.352 . S
C16 C17 1.384 . S
C16 H38 0.930 . S
C17 C12 1.407 . S
C17 C16 1.384 . S
C17 H39 0.929 . S
C18 O28 1.241 . S
C18 O29 1.273 . S
C19 O30 1.251 . S
C19 O31 1.268 . S
O20 Nd0 2.500 1_556 S
O20 C2 1.258 . S
O21 Nd0 2.492 1_556 S
O21 C2 1.239 . S
O22 Nd0 2.487 . S
O22 C9 1.241 . S
O23 Nd0 2.682 . S
O23 Nd1 2.414 1_554 S
O23 C9 1.273 . S
O24 Nd0 2.410 1_556 S
O24 C10 1.251 . S
O25 Nd1 2.424 . S
O25 C10 1.268 . S
O26 Nd1 2.500 1_554 S
O26 C11 1.258 . S
O27 Nd1 2.492 1_554 S
O27 C11 1.239 . S
O28 Nd1 2.487 . S
O28 C18 1.241 . S
O29 Nd0 2.414 1_556 S
O29 Nd1 2.682 . S
O29 C18 1.273 . S
O30 Nd1 2.410 1_554 S
O30 C19 1.251 . S
O31 Nd0 2.424 . S
O31 C19 1.268 . S
H32 C4 0.930 . S
H33 C5 0.929 . S
H34 C7 0.930 . S
H35 C8 0.929 . S
H36 C13 0.930 . S
H37 C14 0.929 . S
H38 C16 0.930 . S
H39 C17 0.929 . S
Nd40 C42 2.836 . S
Nd40 O60 2.500 . S
Nd40 O61 2.492 . S
Nd40 O62 2.487 . S
Nd40 O63 2.682 . S
Nd40 O64 2.410 . S
Nd40 O69 2.414 . S
Nd40 O71 2.424 . S
Nd41 C51 2.836 . S
Nd41 O63 2.414 . S
Nd41 O65 2.424 . S
Nd41 O66 2.500 . S
Nd41 O67 2.492 . S
Nd41 O68 2.487 . S
Nd41 O69 2.682 . S
Nd41 O70 2.410 . S
C42 Nd40 2.836 . S
C42 C43 1.498 . S
C42 O60 1.258 . S
C42 O61 1.239 . S
C43 C42 1.498 . S
C43 C44 1.366 . S
C43 C48 1.407 . S
C44 C43 1.366 . S
C44 C45 1.392 . S
C44 H72 0.930 . S
C45 C44 1.392 . S
C45 C46 1.398 . S
C45 H73 0.929 1_554 S
C46 C45 1.398 . S
C46 C47 1.352 . S
C47 C46 1.352 . S
C47 C48 1.384 . S
C47 H74 0.930 . S
C48 C43 1.407 . S
C48 C47 1.384 . S
C48 H75 0.929 . S
C49 O62 1.241 . S
C49 O63 1.273 . S
C50 O64 1.251 . S
C50 O65 1.268 . S
C51 Nd41 2.836 . S
C51 C52 1.498 . S
C51 O66 1.258 . S
C51 O67 1.239 . S
C52 C51 1.498 . S
C52 C53 1.366 . S
C52 C57 1.407 . S
C53 C52 1.366 . S
C53 C54 1.392 . S
C53 H76 0.930 . S
C54 C53 1.392 . S
C54 C55 1.398 . S
C54 H77 0.929 . S
C55 C54 1.398 . S
C55 C56 1.352 . S
C56 C55 1.352 . S
C56 C57 1.384 . S
C56 H78 0.930 . S
C57 C52 1.407 . S
C57 C56 1.384 . S
C57 H79 0.929 . S
C58 O68 1.241 . S
C58 O69 1.273 . S
C59 O70 1.251 . S
C59 O71 1.268 . S
O60 Nd40 2.500 . S
O60 C42 1.258 . S
O61 Nd40 2.492 . S
O61 C42 1.239 . S
O62 Nd40 2.487 . S
O62 C49 1.241 . S
O63 Nd40 2.682 . S
O63 Nd41 2.414 . S
O63 C49 1.273 . S
O64 Nd40 2.410 . S
O64 C50 1.251 . S
O65 Nd41 2.424 . S
O65 C50 1.268 . S
O66 Nd41 2.500 . S
O66 C51 1.258 . S
O67 Nd41 2.492 . S
O67 C51 1.239 . S
O68 Nd41 2.487 . S
O68 C58 1.241 . S
O69 Nd40 2.414 . S
O69 Nd41 2.682 . S
O69 C58 1.273 . S
O70 Nd41 2.410 . S
O70 C59 1.251 . S
O71 Nd40 2.424 . S
O71 C59 1.268 . S
H72 C44 0.930 . S
H73 C45 0.929 1_556 S
H74 C47 0.930 . S
H75 C48 0.929 . S
H76 C53 0.930 . S
H77 C54 0.929 . S
H78 C56 0.930 . S
H79 C57 0.929 . S
Nd80 C82 2.836 . S
Nd80 O100 2.500 . S
Nd80 O101 2.492 . S
Nd80 O102 2.487 . S
Nd80 O103 2.682 . S
Nd80 O104 2.410 . S
Nd80 O109 2.414 . S
Nd80 O111 2.424 . S
Nd81 C91 2.836 . S
Nd81 O103 2.414 . S
Nd81 O105 2.424 . S
Nd81 O106 2.500 . S
Nd81 O107 2.492 . S
Nd81 O108 2.487 . S
Nd81 O109 2.682 . S
Nd81 O110 2.410 . S
C82 Nd80 2.836 . S
C82 C83 1.498 . S
C82 O100 1.258 . S
C82 O101 1.239 . S
C83 C82 1.498 . S
C83 C84 1.366 . S
C83 C88 1.407 . S
C84 C83 1.366 . S
C84 C85 1.392 . S
C84 H112 0.930 . S
C85 C84 1.392 . S
C85 C86 1.398 . S
C85 H113 0.929 . S
C86 C85 1.398 . S
C86 C87 1.352 . S
C87 C86 1.352 . S
C87 C88 1.384 . S
C87 H114 0.930 . S
C88 C83 1.407 . S
C88 C87 1.384 . S
C88 H115 0.929 . S
C89 O102 1.241 . S
C89 O103 1.273 . S
C90 O104 1.251 . S
C90 O105 1.268 . S
C91 Nd81 2.836 . S
C91 C92 1.498 . S
C91 O106 1.258 . S
C91 O107 1.239 . S
C92 C91 1.498 . S
C92 C93 1.366 . S
C92 C97 1.407 . S
C93 C92 1.366 . S
C93 C94 1.392 . S
C93 H116 0.930 . S
C94 C93 1.392 . S
C94 C95 1.398 . S
C94 H117 0.929 1_556 S
C95 C94 1.398 . S
C95 C96 1.352 . S
C96 C95 1.352 . S
C96 C97 1.384 . S
C96 H118 0.930 . S
C97 C92 1.407 . S
C97 C96 1.384 . S
C97 H119 0.929 . S
C98 O108 1.241 . S
C98 O109 1.273 . S
C99 O110 1.251 . S
C99 O111 1.268 . S
O100 Nd80 2.500 . S
O100 C82 1.258 . S
O101 Nd80 2.492 . S
O101 C82 1.239 . S
O102 Nd80 2.487 . S
O102 C89 1.241 . S
O103 Nd80 2.682 . S
O103 Nd81 2.414 . S
O103 C89 1.273 . S
O104 Nd80 2.410 . S
O104 C90 1.251 . S
O105 Nd81 2.424 . S
O105 C90 1.268 . S
O106 Nd81 2.500 . S
O106 C91 1.258 . S
O107 Nd81 2.492 . S
O107 C91 1.239 . S
O108 Nd81 2.487 . S
O108 C98 1.241 . S
O109 Nd80 2.414 . S
O109 Nd81 2.682 . S
O109 C98 1.273 . S
O110 Nd81 2.410 . S
O110 C99 1.251 . S
O111 Nd80 2.424 . S
O111 C99 1.268 . S
H112 C84 0.930 . S
H113 C85 0.929 . S
H114 C87 0.930 . S
H115 C88 0.929 . S
H116 C93 0.930 . S
H117 C94 0.929 1_554 S
H118 C96 0.930 . S
H119 C97 0.929 . S
Nd120 C122 2.836 1_554 S
Nd120 O140 2.500 1_554 S
Nd120 O141 2.492 1_554 S
Nd120 O142 2.487 . S
Nd120 O143 2.682 . S
Nd120 O144 2.410 1_554 S
Nd120 O149 2.414 1_554 S
Nd120 O151 2.424 . S
Nd121 C131 2.836 1_556 S
Nd121 O143 2.414 1_556 S
Nd121 O145 2.424 . S
Nd121 O146 2.500 1_556 S
Nd121 O147 2.492 1_556 S
Nd121 O148 2.487 . S
Nd121 O149 2.682 . S
Nd121 O150 2.410 1_556 S
C122 Nd120 2.836 1_556 S
C122 C123 1.498 . S
C122 O140 1.258 . S
C122 O141 1.239 . S
C123 C122 1.498 . S
C123 C124 1.366 . S
C123 C128 1.407 . S
C124 C123 1.366 . S
C124 C125 1.392 . S
C124 H152 0.930 . S
C125 C124 1.392 . S
C125 C126 1.398 . S
C125 H153 0.929 . S
C126 C125 1.398 . S
C126 C127 1.352 . S
C127 C126 1.352 . S
C127 C128 1.384 . S
C127 H154 0.930 . S
C128 C123 1.407 . S
C128 C127 1.384 . S
C128 H155 0.929 . S
C129 O142 1.241 . S
C129 O143 1.273 . S
C130 O144 1.251 . S
C130 O145 1.268 . S
C131 Nd121 2.836 1_554 S
C131 C132 1.498 . S
C131 O146 1.258 . S
C131 O147 1.239 . S
C132 C131 1.498 . S
C132 C133 1.366 . S
C132 C137 1.407 . S
C133 C132 1.366 . S
C133 C134 1.392 . S
C133 H156 0.930 . S
C134 C133 1.392 . S
C134 C135 1.398 . S
C134 H157 0.929 . S
C135 C134 1.398 . S
C135 C136 1.352 . S
C136 C135 1.352 . S
C136 C137 1.384 . S
C136 H158 0.930 . S
C137 C132 1.407 . S
C137 C136 1.384 . S
C137 H159 0.929 . S
C138 O148 1.241 . S
C138 O149 1.273 . S
C139 O150 1.251 . S
C139 O151 1.268 . S
O140 Nd120 2.500 1_556 S
O140 C122 1.258 . S
O141 Nd120 2.492 1_556 S
O141 C122 1.239 . S
O142 Nd120 2.487 . S
O142 C129 1.241 . S
O143 Nd120 2.682 . S
O143 Nd121 2.414 1_554 S
O143 C129 1.273 . S
O144 Nd120 2.410 1_556 S
O144 C130 1.251 . S
O145 Nd121 2.424 . S
O145 C130 1.268 . S
O146 Nd121 2.500 1_554 S
O146 C131 1.258 . S
O147 Nd121 2.492 1_554 S
O147 C131 1.239 . S
O148 Nd121 2.487 . S
O148 C138 1.241 . S
O149 Nd120 2.414 1_556 S
O149 Nd121 2.682 . S
O149 C138 1.273 . S
O150 Nd121 2.410 1_554 S
O150 C139 1.251 . S
O151 Nd120 2.424 . S
O151 C139 1.268 . S
H152 C124 0.930 . S
H153 C125 0.929 . S
H154 C127 0.930 . S
H155 C128 0.929 . S
H156 C133 0.930 . S
H157 C134 0.929 . S
H158 C136 0.930 . S
H159 C137 0.929 . S
Nd160 C162 2.836 . S
Nd160 O180 2.500 . S
Nd160 O181 2.492 . S
Nd160 O182 2.487 . S
Nd160 O183 2.682 . S
Nd160 O184 2.410 . S
Nd160 O189 2.414 . S
Nd160 O191 2.424 . S
Nd161 C171 2.836 . S
Nd161 O183 2.414 . S
Nd161 O185 2.424 . S
Nd161 O186 2.500 . S
Nd161 O187 2.492 . S
Nd161 O188 2.487 . S
Nd161 O189 2.682 . S
Nd161 O190 2.410 . S
C162 Nd160 2.836 . S
C162 C163 1.498 . S
C162 O180 1.258 . S
C162 O181 1.239 . S
C163 C162 1.498 . S
C163 C164 1.366 . S
C163 C168 1.407 . S
C164 C163 1.366 . S
C164 C165 1.392 . S
C164 H192 0.930 . S
C165 C164 1.392 . S
C165 C166 1.398 . S
C165 H193 0.929 1_554 S
C166 C165 1.398 . S
C166 C167 1.352 . S
C167 C166 1.352 . S
C167 C168 1.384 . S
C167 H194 0.930 . S
C168 C163 1.407 . S
C168 C167 1.384 . S
C168 H195 0.929 . S
C169 O182 1.241 . S
C169 O183 1.273 . S
C170 O184 1.251 . S
C170 O185 1.268 . S
C171 Nd161 2.836 . S
C171 C172 1.498 . S
C171 O186 1.258 . S
C171 O187 1.239 . S
C172 C171 1.498 . S
C172 C173 1.366 . S
C172 C177 1.407 . S
C173 C172 1.366 . S
C173 C174 1.392 . S
C173 H196 0.930 . S
C174 C173 1.392 . S
C174 C175 1.398 . S
C174 H197 0.929 . S
C175 C174 1.398 . S
C175 C176 1.352 . S
C176 C175 1.352 . S
C176 C177 1.384 . S
C176 H198 0.930 . S
C177 C172 1.407 . S
C177 C176 1.384 . S
C177 H199 0.929 . S
C178 O188 1.241 . S
C178 O189 1.273 . S
C179 O190 1.251 . S
C179 O191 1.268 . S
O180 Nd160 2.500 . S
O180 C162 1.258 . S
O181 Nd160 2.492 . S
O181 C162 1.239 . S
O182 Nd160 2.487 . S
O182 C169 1.241 . S
O183 Nd160 2.682 . S
O183 Nd161 2.414 . S
O183 C169 1.273 . S
O184 Nd160 2.410 . S
O184 C170 1.251 . S
O185 Nd161 2.424 . S
O185 C170 1.268 . S
O186 Nd161 2.500 . S
O186 C171 1.258 . S
O187 Nd161 2.492 . S
O187 C171 1.239 . S
O188 Nd161 2.487 . S
O188 C178 1.241 . S
O189 Nd160 2.414 . S
O189 Nd161 2.682 . S
O189 C178 1.273 . S
O190 Nd161 2.410 . S
O190 C179 1.251 . S
O191 Nd160 2.424 . S
O191 C179 1.268 . S
H192 C164 0.930 . S
H193 C165 0.929 1_556 S
H194 C167 0.930 . S
H195 C168 0.929 . S
H196 C173 0.930 . S
H197 C174 0.929 . S
H198 C176 0.930 . S
H199 C177 0.929 . S
Nd200 C202 2.836 . S
Nd200 O220 2.500 . S
Nd200 O221 2.492 . S
Nd200 O222 2.487 . S
Nd200 O223 2.682 . S
Nd200 O224 2.410 . S
Nd200 O229 2.414 . S
Nd200 O231 2.424 . S
Nd201 C211 2.836 . S
Nd201 O223 2.414 . S
Nd201 O225 2.424 . S
Nd201 O226 2.500 . S
Nd201 O227 2.492 . S
Nd201 O228 2.487 . S
Nd201 O229 2.682 . S
Nd201 O230 2.410 . S
C202 Nd200 2.836 . S
C202 C203 1.498 . S
C202 O220 1.258 . S
C202 O221 1.239 . S
C203 C202 1.498 . S
C203 C204 1.366 . S
C203 C208 1.407 . S
C204 C203 1.366 . S
C204 C205 1.392 . S
C204 H232 0.930 . S
C205 C204 1.392 . S
C205 C206 1.398 . S
C205 H233 0.929 . S
C206 C205 1.398 . S
C206 C207 1.352 . S
C207 C206 1.352 . S
C207 C208 1.384 . S
C207 H234 0.930 . S
C208 C203 1.407 . S
C208 C207 1.384 . S
C208 H235 0.929 . S
C209 O222 1.241 . S
C209 O223 1.273 . S
C210 O224 1.251 . S
C210 O225 1.268 . S
C211 Nd201 2.836 . S
C211 C212 1.498 . S
C211 O226 1.258 . S
C211 O227 1.239 . S
C212 C211 1.498 . S
C212 C213 1.366 . S
C212 C217 1.407 . S
C213 C212 1.366 . S
C213 C214 1.392 . S
C213 H236 0.930 . S
C214 C213 1.392 . S
C214 C215 1.398 . S
C214 H237 0.929 1_556 S
C215 C214 1.398 . S
C215 C216 1.352 . S
C216 C215 1.352 . S
C216 C217 1.384 . S
C216 H238 0.930 . S
C217 C212 1.407 . S
C217 C216 1.384 . S
C217 H239 0.929 . S
C218 O228 1.241 . S
C218 O229 1.273 . S
C219 O230 1.251 . S
C219 O231 1.268 . S
O220 Nd200 2.500 . S
O220 C202 1.258 . S
O221 Nd200 2.492 . S
O221 C202 1.239 . S
O222 Nd200 2.487 . S
O222 C209 1.241 . S
O223 Nd200 2.682 . S
O223 Nd201 2.414 . S
O223 C209 1.273 . S
O224 Nd200 2.410 . S
O224 C210 1.251 . S
O225 Nd201 2.424 . S
O225 C210 1.268 . S
O226 Nd201 2.500 . S
O226 C211 1.258 . S
O227 Nd201 2.492 . S
O227 C211 1.239 . S
O228 Nd201 2.487 . S
O228 C218 1.241 . S
O229 Nd200 2.414 . S
O229 Nd201 2.682 . S
O229 C218 1.273 . S
O230 Nd201 2.410 . S
O230 C219 1.251 . S
O231 Nd200 2.424 . S
O231 C219 1.268 . S
H232 C204 0.930 . S
H233 C205 0.929 . S
H234 C207 0.930 . S
H235 C208 0.929 . S
H236 C213 0.930 . S
H237 C214 0.929 1_554 S
H238 C216 0.930 . S
H239 C217 0.929 . S
C240 C241 1.363 . S
C240 C246 1.379 . S
C240 N248 1.356 . S
C241 C240 1.363 . S
C241 C247 1.363 . S
C242 C243 1.363 . S
C242 C247 1.379 . S
C242 N249 1.356 . S
C243 C242 1.363 . S
C243 C246 1.363 . S
N244 C246 1.356 . S
N244 H256 0.984 . S
N244 H257 0.985 . S
N245 C247 1.356 . S
N245 H250 0.984 . S
N245 H251 0.985 . S
C246 C240 1.379 . S
C246 C243 1.363 . S
C246 N244 1.356 . S
C247 C241 1.363 . S
C247 C242 1.379 . S
C247 N245 1.356 . S
N248 C240 1.356 . S
N248 H254 0.984 . S
N248 H255 0.984 . S
N249 C242 1.356 . S
N249 H252 0.984 . S
N249 H253 0.985 . S
H250 N245 0.984 . S
H251 N245 0.985 . S
H252 N249 0.984 . S
H253 N249 0.985 . S
H254 N248 0.984 . S
H255 N248 0.984 . S
H256 N244 0.984 . S
H257 N244 0.985 . S
C258 C259 1.363 . S
C258 C264 1.379 . S
C258 N266 1.356 . S
C259 C258 1.363 . S
C259 C265 1.363 1_554 S
C260 C261 1.363 1_556 S
C260 C265 1.379 . S
C260 N267 1.356 . S
C261 C260 1.363 1_554 S
C261 C264 1.363 . S
N262 C264 1.356 . S
N262 H274 0.984 . S
N262 H275 0.985 . S
N263 C265 1.356 . S
N263 H268 0.984 . S
N263 H269 0.985 . S
C264 C258 1.379 . S
C264 C261 1.363 . S
C264 N262 1.356 . S
C265 C259 1.363 1_556 S
C265 C260 1.379 . S
C265 N263 1.356 . S
N266 C258 1.356 . S
N266 H272 0.984 . S
N266 H273 0.984 . S
N267 C260 1.356 . S
N267 H270 0.984 1_455 S
N267 H271 0.985 . S
H268 N263 0.984 . S
H269 N263 0.985 . S
H270 N267 0.984 1_655 S
H271 N267 0.985 . S
H272 N266 0.984 . S
H273 N266 0.984 . S
H274 N262 0.984 . S
H275 N262 0.985 . S
C276 C277 1.363 . S
C276 C282 1.379 . S
C276 N284 1.356 . S
C277 C276 1.363 . S
C277 C283 1.363 . S
C278 C279 1.363 . S
C278 C283 1.379 . S
C278 N285 1.356 . S
C279 C278 1.363 . S
C279 C282 1.363 . S
N280 C282 1.356 . S
N280 H292 0.984 . S
N280 H293 0.954 1_545 S
N281 C283 1.356 . S
N281 H286 0.984 . S
N281 H287 0.985 . S
C282 C276 1.379 . S
C282 C279 1.363 . S
C282 N280 1.356 . S
C283 C277 1.363 . S
C283 C278 1.379 . S
C283 N281 1.356 . S
N284 C276 1.356 . S
N284 H290 0.984 . S
N284 H291 0.984 . S
N285 C278 1.356 . S
N285 H288 0.984 . S
N285 H289 0.985 . S
H286 N281 0.984 . S
H287 N281 0.985 . S
H288 N285 0.984 . S
H289 N285 0.985 . S
H290 N284 0.984 . S
H291 N284 0.984 . S
H292 N280 0.984 . S
H293 N280 0.954 1_565 S
C294 C295 1.363 . S
C294 C300 1.379 . S
C294 N302 1.356 . S
C295 C294 1.363 . S
C295 C301 1.363 . S
C296 C297 1.363 . S
C296 C301 1.379 . S
C296 N303 1.356 . S
C297 C296 1.363 . S
C297 C300 1.363 . S
N298 C300 1.356 . S
N298 H310 0.984 . S
N298 H311 0.985 . S
N299 C301 1.356 . S
N299 H304 0.984 . S
N299 H305 0.985 . S
C300 C294 1.379 . S
C300 C297 1.363 . S
C300 N298 1.356 . S
C301 C295 1.363 . S
C301 C296 1.379 . S
C301 N299 1.356 . S
N302 C294 1.356 . S
N302 H308 0.984 . S
N302 H309 0.984 . S
N303 C296 1.356 . S
N303 H306 0.984 . S
N303 H307 0.985 . S
H304 N299 0.984 . S
H305 N299 0.985 . S
H306 N303 0.984 . S
H307 N303 0.985 . S
H308 N302 0.984 . S
H309 N302 0.984 . S
H310 N298 0.984 . S
H311 N298 0.985 . S
C312 C313 1.363 . S
C312 C318 1.379 . S
C312 N320 1.356 . S
C313 C312 1.363 . S
C313 C319 1.363 1_554 S
C314 C315 1.363 1_556 S
C314 C319 1.379 . S
C314 N321 1.356 . S
C315 C314 1.363 1_554 S
C315 C318 1.363 . S
N316 C318 1.356 . S
N316 H328 0.984 . S
N316 H329 0.985 . S
N317 C319 1.356 . S
N317 H322 0.984 . S
N317 H323 0.985 . S
C318 C312 1.379 . S
C318 C315 1.363 . S
C318 N316 1.356 . S
C319 C313 1.363 1_556 S
C319 C314 1.379 . S
C319 N317 1.356 . S
N320 C312 1.356 . S
N320 H326 0.984 . S
N320 H327 0.984 1_655 S
N321 C314 1.356 . S
N321 H324 0.984 . S
N321 H325 0.985 . S
H322 N317 0.984 . S
H323 N317 0.985 . S
H324 N321 0.984 . S
H325 N321 0.985 . S
H326 N320 0.984 . S
H327 N320 0.984 1_455 S
H328 N316 0.984 . S
H329 N316 0.985 . S
C330 C331 1.363 . S
C330 C336 1.379 . S
C330 N338 1.356 . S
C331 C330 1.363 . S
C331 C337 1.363 . S
C332 C333 1.363 . S
C332 C337 1.379 . S
C332 N339 1.356 . S
C333 C332 1.363 . S
C333 C336 1.363 . S
N334 C336 1.356 . S
N334 H346 0.984 . S
N334 H347 0.985 . S
N335 C337 1.356 . S
N335 H340 0.984 . S
N335 H341 0.985 . S
C336 C330 1.379 . S
C336 C333 1.363 . S
C336 N334 1.356 . S
C337 C331 1.363 . S
C337 C332 1.379 . S
C337 N335 1.356 . S
N338 C330 1.356 . S
N338 H344 0.984 . S
N338 H345 0.984 1_565 S
N339 C332 1.356 . S
N339 H342 0.984 . S
N339 H343 0.985 . S
H340 N335 0.984 . S
H341 N335 0.985 . S
H342 N339 0.984 . S
H343 N339 0.985 . S
H344 N338 0.984 . S
H345 N338 0.984 1_545 S
H346 N334 0.984 . S
H347 N334 0.985 . S
C348 C349 1.363 . S
C348 C354 1.379 . S
C348 N356 1.356 . S
C349 C348 1.363 . S
C349 C355 1.363 . S
C350 C351 1.363 . S
C350 C355 1.379 . S
C350 N357 1.356 . S
C351 C350 1.363 . S
C351 C354 1.363 . S
N352 C354 1.356 . S
N352 H364 0.984 . S
N352 H365 0.985 . S
N353 C355 1.356 . S
N353 H358 0.984 . S
N353 H359 0.985 . S
C354 C348 1.379 . S
C354 C351 1.363 . S
C354 N352 1.356 . S
C355 C349 1.363 . S
C355 C350 1.379 . S
C355 N353 1.356 . S
N356 C348 1.356 . S
N356 H362 0.984 . S
N356 H363 0.984 . S
N357 C350 1.356 . S
N357 H360 0.984 . S
N357 H361 0.985 . S
H358 N353 0.984 . S
H359 N353 0.985 . S
H360 N357 0.984 . S
H361 N357 0.985 . S
H362 N356 0.984 . S
H363 N356 0.984 . S
H364 N352 0.984 . S
H365 N352 0.985 . S
C366 C367 1.363 . S
C366 C372 1.379 . S
C366 N374 1.356 . S
C367 C366 1.363 . S
C367 C373 1.363 . S
C368 C369 1.363 . S
C368 C373 1.379 . S
C368 N375 1.356 . S
C369 C368 1.363 . S
C369 C372 1.363 . S
N370 C372 1.356 . S
N370 H382 0.984 . S
N370 H383 0.985 . S
N371 C373 1.356 . S
N371 H376 0.984 1_556 S
N371 H377 0.985 . S
C372 C366 1.379 . S
C372 C369 1.363 . S
C372 N370 1.356 . S
C373 C367 1.363 . S
C373 C368 1.379 . S
C373 N371 1.356 . S
N374 C366 1.356 . S
N374 H380 0.984 . S
N374 H381 0.984 1_556 S
N375 C368 1.356 . S
N375 H378 0.984 . S
N375 H379 0.985 . S
H376 N371 0.984 1_554 S
H377 N371 0.985 . S
H378 N375 0.984 . S
H379 N375 0.985 . S
H380 N374 0.984 . S
H381 N374 0.984 1_554 S
H382 N370 0.984 . S
H383 N370 0.985 . S
C384 C385 1.363 . S
C384 C390 1.379 . S
C384 N392 1.356 . S
C385 C384 1.363 . S
C385 C391 1.363 . S
C386 C387 1.363 . S
C386 C391 1.379 . S
C386 N393 1.356 . S
C387 C386 1.363 . S
C387 C390 1.363 . S
N388 C390 1.356 . S
N388 H400 0.984 . S
N388 H401 0.985 1_554 S
N389 C391 1.356 . S
N389 H394 0.984 . S
N389 H395 0.985 . S
C390 C384 1.379 . S
C390 C387 1.363 . S
C390 N388 1.356 . S
C391 C385 1.363 . S
C391 C386 1.379 . S
C391 N389 1.356 . S
N392 C384 1.356 . S
N392 H398 0.984 . S
N392 H399 0.984 . S
N393 C386 1.356 . S
N393 H396 0.984 1_554 S
N393 H397 0.985 . S
H394 N389 0.984 . S
H395 N389 0.985 . S
H396 N393 0.984 1_556 S
H397 N393 0.985 . S
H398 N392 0.984 . S
H399 N392 0.984 . S
H400 N388 0.984 . S
H401 N388 0.985 1_556 S
C402 C403 1.363 . S
C402 C408 1.379 . S
C402 N410 1.356 . S
C403 C402 1.363 . S
C403 C409 1.363 . S
C404 C405 1.363 . S
C404 C409 1.379 . S
C404 N411 1.356 . S
C405 C404 1.363 . S
C405 C408 1.363 . S
N406 C408 1.356 . S
N406 H418 0.984 . S
N406 H419 0.985 . S
N407 C409 1.356 . S
N407 H412 0.984 . S
N407 H413 0.985 . S
C408 C402 1.379 . S
C408 C405 1.363 . S
C408 N406 1.356 . S
C409 C403 1.363 . S
C409 C404 1.379 . S
C409 N407 1.356 . S
N410 C402 1.356 . S
N410 H416 0.984 . S
N410 H417 0.984 . S
N411 C404 1.356 . S
N411 H414 0.984 . S
N411 H415 0.985 . S
H412 N407 0.984 . S
H413 N407 0.985 . S
H414 N411 0.984 . S
H415 N411 0.985 . S
H416 N410 0.984 . S
H417 N410 0.984 . S
H418 N406 0.984 . S
H419 N406 0.985 . S
C420 C421 1.363 . S
C420 C426 1.379 . S
C420 N428 1.356 . S
C421 C420 1.363 . S
C421 C427 1.363 . S
C422 C423 1.363 . S
C422 C427 1.379 . S
C422 N429 1.356 . S
C423 C422 1.363 . S
C423 C426 1.363 . S
N424 C426 1.356 . S
N424 H436 0.984 . S
N424 H437 0.985 1_556 S
N425 C427 1.356 . S
N425 H430 0.984 . S
N425 H431 0.985 . S
C426 C420 1.379 . S
C426 C423 1.363 . S
C426 N424 1.356 . S
C427 C421 1.363 . S
C427 C422 1.379 . S
C427 N425 1.356 . S
N428 C420 1.356 . S
N428 H434 0.984 . S
N428 H435 0.984 . S
N429 C422 1.356 . S
N429 H432 0.984 1_556 S
N429 H433 0.985 . S
H430 N425 0.984 . S
H431 N425 0.985 . S
H432 N429 0.984 1_554 S
H433 N429 0.985 . S
H434 N428 0.984 . S
H435 N428 0.984 . S
H436 N424 0.984 . S
H437 N424 0.985 1_554 S
C438 C439 1.363 . S
C438 C444 1.379 . S
C438 N446 1.356 . S
C439 C438 1.363 . S
C439 C445 1.363 . S
C440 C441 1.363 . S
C440 C445 1.379 . S
C440 N447 1.356 . S
C441 C440 1.363 . S
C441 C444 1.363 . S
N442 C444 1.356 . S
N442 H454 0.984 . S
N442 H455 0.985 1_554 S
N443 C445 1.356 . S
N443 H448 0.984 . S
N443 H449 0.985 . S
C444 C438 1.379 . S
C444 C441 1.363 . S
C444 N442 1.356 . S
C445 C439 1.363 . S
C445 C440 1.379 . S
C445 N443 1.356 . S
N446 C438 1.356 . S
N446 H452 0.984 . S
N446 H453 0.984 . S
N447 C440 1.356 . S
N447 H450 0.984 1_554 S
N447 H451 0.985 . S
H448 N443 0.984 . S
H449 N443 0.985 . S
H450 N447 0.984 1_556 S
H451 N447 0.985 . S
H452 N446 0.984 . S
H453 N446 0.984 . S
H454 N442 0.984 . S
H455 N442 0.985 1_556 S
C456 C457 1.363 . S
C456 C462 1.379 . S
C456 N464 1.356 . S
C457 C456 1.363 . S
C457 C463 1.363 . S
C458 C459 1.363 . S
C458 C463 1.379 . S
C458 N465 1.356 . S
C459 C458 1.363 . S
C459 C462 1.363 . S
N460 C462 1.356 . S
N460 H472 0.984 . S
N460 H473 0.985 . S
N461 C463 1.356 . S
N461 H466 0.984 . S
N461 H467 0.985 . S
C462 C456 1.379 . S
C462 C459 1.363 . S
C462 N460 1.356 . S
C463 C457 1.363 . S
C463 C458 1.379 . S
C463 N461 1.356 . S
N464 C456 1.356 . S
N464 H470 0.984 . S
N464 H471 0.984 . S
N465 C458 1.356 . S
N465 H468 0.984 . S
N465 H469 0.985 . S
H466 N461 0.984 . S
H467 N461 0.985 . S
H468 N465 0.984 . S
H469 N465 0.985 . S
H470 N464 0.984 . S
H471 N464 0.984 . S
H472 N460 0.984 . S
H473 N460 0.985 . S
C474 C475 1.363 . S
C474 C480 1.379 . S
C474 N482 1.356 . S
C475 C474 1.363 . S
C475 C481 1.363 . S
C476 C477 1.363 . S
C476 C481 1.379 . S
C476 N483 1.356 . S
C477 C476 1.363 . S
C477 C480 1.363 . S
N478 C480 1.356 . S
N478 H490 0.984 . S
N478 H491 0.985 . S
N479 C481 1.356 . S
N479 H484 0.984 . S
N479 H485 0.985 . S
C480 C474 1.379 . S
C480 C477 1.363 . S
C480 N478 1.356 . S
C481 C475 1.363 . S
C481 C476 1.379 . S
C481 N479 1.356 . S
N482 C474 1.356 . S
N482 H488 0.984 . S
N482 H489 0.984 . S
N483 C476 1.356 . S
N483 H486 0.984 . S
N483 H487 0.985 . S
H484 N479 0.984 . S
H485 N479 0.985 . S
H486 N483 0.984 . S
H487 N483 0.985 . S
H488 N482 0.984 . S
H489 N482 0.984 . S
H490 N478 0.984 . S
H491 N478 0.985 . S
C492 C493 1.363 1_554 S
C492 C498 1.379 . S
C492 N500 1.356 . S
C493 C492 1.363 1_556 S
C493 C499 1.363 . S
C494 C495 1.363 . S
C494 C499 1.379 . S
C494 N501 1.356 . S
C495 C494 1.363 . S
C495 C498 1.363 1_556 S
N496 C498 1.356 . S
N496 H508 0.984 . S
N496 H509 0.985 . S
N497 C499 1.356 . S
N497 H502 0.984 . S
N497 H503 0.985 . S
C498 C492 1.379 . S
C498 C495 1.363 1_554 S
C498 N496 1.356 . S
C499 C493 1.363 . S
C499 C494 1.379 . S
C499 N497 1.356 . S
N500 C492 1.356 . S
N500 H506 0.984 . S
N500 H507 0.984 . S
N501 C494 1.356 . S
N501 H504 0.984 . S
N501 H505 0.985 . S
H502 N497 0.984 . S
H503 N497 0.985 . S
H504 N501 0.984 . S
H505 N501 0.985 . S
H506 N500 0.984 . S
H507 N500 0.984 . S
H508 N496 0.984 . S
H509 N496 0.985 . S
C510 C511 1.363 . S
C510 C516 1.379 . S
C510 N518 1.356 . S
C511 C510 1.363 . S
C511 C517 1.363 . S
C512 C513 1.363 . S
C512 C517 1.379 . S
C512 N519 1.356 . S
C513 C512 1.363 . S
C513 C516 1.363 . S
N514 C516 1.356 . S
N514 H526 0.984 . S
N514 H527 0.985 . S
N515 C517 1.356 . S
N515 H520 0.984 . S
N515 H521 0.985 . S
C516 C510 1.379 . S
C516 C513 1.363 . S
C516 N514 1.356 . S
C517 C511 1.363 . S
C517 C512 1.379 . S
C517 N515 1.356 . S
N518 C510 1.356 . S
N518 H524 0.984 . S
N518 H525 0.984 . S
N519 C512 1.356 . S
N519 H522 0.984 . S
N519 H523 0.985 . S
H520 N515 0.984 . S
H521 N515 0.985 . S
H522 N519 0.984 . S
H523 N519 0.985 . S
H524 N518 0.984 . S
H525 N518 0.984 . S
H526 N514 0.984 . S
H527 N514 0.985 . S
C528 C529 1.363 . S
C528 C534 1.379 . S
C528 N536 1.356 . S
C529 C528 1.363 . S
C529 C535 1.363 . S
C530 C531 1.363 . S
C530 C535 1.379 . S
C530 N537 1.356 . S
C531 C530 1.363 . S
C531 C534 1.363 . S
N532 C534 1.356 . S
N532 H544 0.984 . S
N532 H545 0.985 . S
N533 C535 1.356 . S
N533 H538 0.984 . S
N533 H539 0.985 . S
C534 C528 1.379 . S
C534 C531 1.363 . S
C534 N532 1.356 . S
C535 C529 1.363 . S
C535 C530 1.379 . S
C535 N533 1.356 . S
N536 C528 1.356 . S
N536 H542 0.984 . S
N536 H543 0.984 . S
N537 C530 1.356 . S
N537 H540 0.984 . S
N537 H541 0.985 . S
H538 N533 0.984 . S
H539 N533 0.985 . S
H540 N537 0.984 . S
H541 N537 0.985 . S
H542 N536 0.984 . S
H543 N536 0.984 . S
H544 N532 0.984 . S
H545 N532 0.985 . S
C546 C547 1.363 1_554 S
C546 C552 1.379 . S
C546 N554 1.356 . S
C547 C546 1.363 1_556 S
C547 C553 1.363 . S
C548 C549 1.363 . S
C548 C553 1.379 . S
C548 N555 1.356 . S
C549 C548 1.363 . S
C549 C552 1.363 1_556 S
N550 C552 1.356 . S
N550 H562 0.984 . S
N550 H563 0.985 . S
N551 C553 1.356 . S
N551 H556 0.984 . S
N551 H557 0.985 . S
C552 C546 1.379 . S
C552 C549 1.363 1_554 S
C552 N550 1.356 . S
C553 C547 1.363 . S
C553 C548 1.379 . S
C553 N551 1.356 . S
N554 C546 1.356 . S
N554 H560 0.984 . S
N554 H561 0.984 . S
N555 C548 1.356 . S
N555 H558 0.984 . S
N555 H559 0.985 . S
H556 N551 0.984 . S
H557 N551 0.985 . S
H558 N555 0.984 . S
H559 N555 0.985 . S
H560 N554 0.984 . S
H561 N554 0.984 . S
H562 N550 0.984 . S
H563 N550 0.985 . S
C241 C209 1.824 . S
C243 C6 1.748 . S
C259 C9 1.824 . S
C261 C46 1.748 1_455 S
C277 C49 1.823 . S
C279 C86 1.747 1_545 S
C295 C89 1.823 . S
C297 C126 1.747 . S
C313 C166 1.748 1_655 S
C315 C129 1.824 . S
C331 C206 1.747 1_565 S
C333 C169 1.823 . S
C349 C10 2.091 . S
C351 C19 2.091 . S
C367 C50 2.091 1_556 S
C369 C59 2.091 . S
C385 C90 2.091 . S
C387 C99 2.091 1_554 S
C403 C130 2.091 . S
C405 C139 2.091 . S
C421 C179 2.091 . S
C423 C170 2.091 1_556 S
C439 C210 2.091 . S
C441 C219 2.091 1_554 S
C457 C15 1.694 . S
C459 C178 1.794 . S
C475 C55 1.694 . S
C477 C218 1.794 . S
C493 C18 1.794 . S
C495 C95 1.694 . S
C511 C58 1.794 . S
C513 C135 1.694 . S
C529 C175 1.694 . S
C531 C98 1.794 . S
C547 C138 1.794 . S
C549 C215 1.694 . S
