# Generated by pormake.
# Topology fob, (5)-cn, num edge types: 1
# Building blocks:
#     Node 0, Type 0, BuildingBlock: XOMCOT_clean_sbu_1, # of connection points: 5
#     Node 1, Type 0, BuildingBlock: XOMCOT_clean_sbu_1, # of connection points: 5
#     Node 2, Type 0, BuildingBlock: XOMCOT_clean_sbu_1, # of connection points: 5
#     Node 3, Type 0, BuildingBlock: XOMCOT_clean_sbu_1, # of connection points: 5
#     Node 4, Type 0, BuildingBlock: XOMCOT_clean_sbu_1, # of connection points: 5
#     Node 5, Type 0, BuildingBlock: XOMCOT_clean_sbu_1, # of connection points: 5
#     Node 6, Type 0, BuildingBlock: XOMCOT_clean_sbu_1, # of connection points: 5
#     Node 7, Type 0, BuildingBlock: XOMCOT_clean_sbu_1, # of connection points: 5
#     Node 8, Type 0, BuildingBlock: XOMCOT_clean_sbu_1, # of connection points: 5
#     Node 9, Type 0, BuildingBlock: XOMCOT_clean_sbu_1, # of connection points: 5
#     Node 10, Type 0, BuildingBlock: XOMCOT_clean_sbu_1, # of connection points: 5
#     Node 11, Type 0, BuildingBlock: XOMCOT_clean_sbu_1, # of connection points: 5
#     Node 12, Type 0, BuildingBlock: XOMCOT_clean_sbu_1, # of connection points: 5
#     Node 13, Type 0, BuildingBlock: XOMCOT_clean_sbu_1, # of connection points: 5
#     Node 14, Type 0, BuildingBlock: XOMCOT_clean_sbu_1, # of connection points: 5
#     Node 15, Type 0, BuildingBlock: XOMCOT_clean_sbu_1, # of connection points: 5
#     Edge 16, Type (0, 0), None
#     Edge 17, Type (0, 0), None
#     Edge 18, Type (0, 0), None
#     Edge 19, Type (0, 0), None
#     Edge 20, Type (0, 0), None
#     Edge 21, Type (0, 0), None
#     Edge 22, Type (0, 0), None
#     Edge 23, Type (0, 0), None
#     Edge 24, Type (0, 0), None
#     Edge 25, Type (0, 0), None
#     Edge 26, Type (0, 0), None
#     Edge 27, Type (0, 0), None
#     Edge 28, Type (0, 0), None
#     Edge 29, Type (0, 0), None
#     Edge 30, Type (0, 0), None
#     Edge 31, Type (0, 0), None
#     Edge 32, Type (0, 0), None
#     Edge 33, Type (0, 0), None
#     Edge 34, Type (0, 0), None
#     Edge 35, Type (0, 0), None
#     Edge 36, Type (0, 0), None
#     Edge 37, Type (0, 0), None
#     Edge 38, Type (0, 0), None
#     Edge 39, Type (0, 0), None
#     Edge 40, Type (0, 0), None
#     Edge 41, Type (0, 0), None
#     Edge 42, Type (0, 0), None
#     Edge 43, Type (0, 0), None
#     Edge 44, Type (0, 0), None
#     Edge 45, Type (0, 0), None
#     Edge 46, Type (0, 0), None
#     Edge 47, Type (0, 0), None
#     Edge 48, Type (0, 0), None
#     Edge 49, Type (0, 0), None
#     Edge 50, Type (0, 0), None
#     Edge 51, Type (0, 0), None
#     Edge 52, Type (0, 0), None
#     Edge 53, Type (0, 0), None
#     Edge 54, Type (0, 0), None
#     Edge 55, Type (0, 0), None
# Relax obj value: 0.085
# Max RMSD: 0.134
# Mean RMSD: 0.134
data_MOF--net-fob--node1-XOMCOT_clean_sbu_1--edge1-none
_symmetry_space_group_name_H-M    P1
_symmetry_Int_Tables_number       1
_symmetry_cell_setting            triclinic
loop_
_symmetry_equiv_pos_as_xyz
'x, y, z'
_cell_length_a     12.669146
_cell_length_b     35.374581
_cell_length_c     24.128701
_cell_angle_alpha  97.47211
_cell_angle_beta   88.226184
_cell_angle_gamma 89.833457
loop_
_atom_site_label
_atom_site_type_symbol
_atom_site_fract_x
_atom_site_fract_y
_atom_site_fract_z
_atom_type_partial_charge
C0 C 0.0759 0.23677 0.53677 0.0
C1 C 0.12151 0.27207 0.53616 0.0
N2 N 0.21915 0.26661 0.51275 0.0
N3 N 0.14458 0.20959 0.51357 0.0
C4 C 0.23164 0.22866 0.49976 0.0
H5 H 0.9981 0.23121 0.55345 0.0
Co6 Co 0.1244 0.1574 0.50592 0.0
C7 C 0.24877 0.13014 0.39909 0.0
O8 O 0.17298 0.10757 0.37904 0.0
N9 N 0.10605 0.10418 0.49976 0.0
C10 C 0.14743 0.04252 0.49703 0.0
C11 C 0.1864 0.07852 0.49447 0.0
C12 C 0.01885 0.08305 0.50675 0.0
N13 N 0.04216 0.0456 0.50472 0.0
O14 O 0.22778 0.1539 0.56026 0.0
H15 H 0.26904 0.08567 0.49077 0.0
H16 H 0.94052 0.09474 0.51528 0.0
O17 O 0.23654 0.15041 0.44682 0.0
C18 C 0.20243 0.15685 0.61216 0.0
O19 O 0.10263 0.15994 0.62856 0.0
N20 N 0.01687 0.16311 0.45549 0.0
C21 C 0.84242 0.17863 0.39455 0.0
C22 C 0.94456 0.18064 0.37156 0.0
C23 C 0.03108 0.17441 0.40371 0.0
C24 C 0.9178 0.1631 0.47936 0.0
C25 C 0.82908 0.17063 0.44951 0.0
H26 H 0.10857 0.1802 0.3874 0.0
H27 H 0.90785 0.15837 0.52257 0.0
H28 H 0.30321 0.21505 0.48136 0.0
H29 H 0.086 0.29934 0.55205 0.0
H30 H 0.1932 1.01649 0.49496 0.0
H31 H 0.95735 0.1883 0.32983 0.0
H32 H 0.75101 0.16978 0.46894 0.0
C33 C 0.12357 0.07979 0.70391 0.0
C34 C 0.15987 0.04349 0.70759 0.0
N35 N 0.22847 0.04586 0.74941 0.0
N36 N 0.16926 0.1045 0.74319 0.0
C37 C 0.23303 0.08297 0.77033 0.0
H38 H 0.0676 0.08779 0.67446 0.0
Co39 Co 0.14519 0.15633 0.75314 0.0
C40 C 0.25089 0.18405 0.86063 0.0
O41 O 0.17412 0.20752 0.88038 0.0
N42 N 0.12055 0.20921 0.76113 0.0
C43 C 0.14912 0.27185 0.76763 0.0
C44 C 0.1953 0.23656 0.76745 0.0
C45 C 0.02979 0.22858 0.75617 0.0
N46 N 0.04515 0.26655 0.7606 0.0
O47 O 0.26661 0.16243 0.70539 0.0
H48 H 0.27879 0.23115 0.77077 0.0
H49 H 0.95453 0.21533 0.74774 0.0
O50 O 0.24308 0.163 0.8139 0.0
C51 C 0.28585 0.16114 0.65309 0.0
O52 O 0.3839 0.16496 0.63549 0.0
N53 N 0.02632 0.14841 0.80088 0.0
C54 C 0.84448 0.13504 0.86428 0.0
C55 C 0.94413 0.13446 0.88729 0.0
C56 C 0.03416 0.13953 0.85421 0.0
C57 C 0.93006 0.14657 0.77678 0.0
C58 C 0.83785 0.14007 0.8078 0.0
H59 H 0.1095 0.13499 0.87163 0.0
H60 H 0.92475 0.15005 0.73307 0.0
H61 H 0.28188 0.09411 0.80452 0.0
H62 H 0.13773 1.01766 0.68161 0.0
H63 H 0.18917 0.29898 0.77152 0.0
H64 H 0.95263 0.12881 0.93001 0.0
H65 H 0.76212 0.13967 0.7881 0.0
C66 C 0.93743 0.82468 0.48025 0.0
C67 C 0.89183 0.78938 0.48086 0.0
N68 N 0.79418 0.79485 0.50427 0.0
N69 N 0.86874 0.85187 0.50345 0.0
C70 C 0.78168 0.83279 0.51726 0.0
H71 H 0.01524 0.83025 0.46356 0.0
Co72 Co 0.88893 0.90406 0.51108 0.0
C73 C 0.76456 0.93131 0.61792 0.0
O74 O 0.84036 0.95389 0.63797 0.0
N75 N 0.90727 0.95728 0.51724 0.0
C76 C 0.8659 1.01894 0.51995 0.0
C77 C 0.82693 0.98294 0.52255 0.0
C78 C 0.99447 0.9784 0.51019 0.0
N79 N 0.97115 1.01585 0.51221 0.0
O80 O 0.78555 0.90755 0.45675 0.0
H81 H 0.7443 0.97579 0.52629 0.0
H82 H 0.07278 0.96671 0.50164 0.0
O83 O 0.77679 0.91105 0.57018 0.0
C84 C 0.8109 0.90461 0.40484 0.0
O85 O 0.9107 0.90152 0.38845 0.0
N86 N 0.99646 0.89835 0.56151 0.0
C87 C 0.17091 0.88283 0.62246 0.0
C88 C 0.06877 0.88082 0.64545 0.0
C89 C 0.98225 0.88705 0.6133 0.0
C90 C 0.09553 0.89836 0.53765 0.0
C91 C 0.18425 0.89083 0.5675 0.0
H92 H 0.90476 0.88125 0.6296 0.0
H93 H 0.10549 0.90309 0.49443 0.0
H94 H 0.71011 0.84641 0.53565 0.0
H95 H 0.92734 0.76212 0.46497 0.0
H96 H 0.82013 0.04497 0.52205 0.0
H97 H 0.05598 0.87315 0.68717 0.0
H98 H 0.26232 0.89169 0.54807 0.0
C99 C 0.88977 0.98167 0.31309 0.0
C100 C 0.85347 1.01797 0.30941 0.0
N101 N 0.78487 1.0156 0.2676 0.0
N102 N 0.84408 0.95696 0.27382 0.0
C103 C 0.7803 0.97849 0.24668 0.0
H104 H 0.94574 0.97367 0.34254 0.0
Co105 Co 0.86814 0.90513 0.26387 0.0
C106 C 0.76245 0.87742 0.15637 0.0
O107 O 0.83922 0.85394 0.13663 0.0
N108 N 0.89278 0.85225 0.25587 0.0
C109 C 0.86421 0.78961 0.24937 0.0
C110 C 0.81803 0.8249 0.24955 0.0
C111 C 0.98354 0.83288 0.26084 0.0
N112 N 0.96819 0.79491 0.25641 0.0
O113 O 0.74672 0.89903 0.31162 0.0
H114 H 0.73454 0.83031 0.24624 0.0
H115 H 0.0588 0.84613 0.26927 0.0
O116 O 0.77026 0.89846 0.20311 0.0
C117 C 0.72748 0.90031 0.36392 0.0
O118 O 0.62943 0.89649 0.38151 0.0
N119 N 0.98702 0.91305 0.21612 0.0
C120 C 0.16886 0.92642 0.15273 0.0
C121 C 0.06921 0.92699 0.12972 0.0
C122 C 0.97918 0.92193 0.1628 0.0
C123 C 0.08328 0.91489 0.24022 0.0
C124 C 0.17548 0.92138 0.20921 0.0
H125 H 0.90384 0.92647 0.14538 0.0
H126 H 0.08858 0.91141 0.28394 0.0
H127 H 0.73145 0.96735 0.21249 0.0
H128 H 0.87561 0.0438 0.3354 0.0
H129 H 0.82416 0.76248 0.24548 0.0
H130 H 0.06072 0.93265 0.087 0.0
H131 H 0.25122 0.92179 0.22891 0.0
C132 C 0.07588 0.73677 0.03676 0.0
C133 C 0.12148 0.77208 0.03616 0.0
N134 N 0.21913 0.76661 0.01274 0.0
N135 N 0.14456 0.70959 0.01356 0.0
C136 C 0.23162 0.72866 0.99975 0.0
H137 H 0.99807 0.73121 0.05344 0.0
Co138 Co 0.12438 0.6574 1.00591 0.0
C139 C 0.24874 0.63015 0.89907 0.0
O140 O 0.17295 0.60758 0.87902 0.0
N141 N 0.10604 0.60418 0.99974 0.0
C142 C 0.14742 0.54252 0.99701 0.0
C143 C 0.18639 0.57852 0.99445 0.0
C144 C 0.01884 0.58305 1.00675 0.0
N145 N 0.04216 0.5456 1.00471 0.0
O146 O 0.22776 0.6539 0.06025 0.0
H147 H 0.26902 0.58567 0.99074 0.0
H148 H 0.94052 0.59474 0.01529 0.0
O149 O 0.23652 0.65041 0.94681 0.0
C150 C 0.20241 0.65684 0.11215 0.0
O151 O 0.10262 0.65993 0.12855 0.0
N152 N 0.01684 0.66312 0.95548 0.0
C153 C 0.8424 0.67864 0.89454 0.0
C154 C 0.94453 0.68065 0.87155 0.0
C155 C 0.03106 0.67442 0.9037 0.0
C156 C 0.91778 0.6631 0.97934 0.0
C157 C 0.82905 0.67063 0.9495 0.0
H158 H 0.10855 0.68022 0.88739 0.0
H159 H 0.90782 0.65836 0.02256 0.0
H160 H 0.30319 0.71505 0.98136 0.0
H161 H 0.08597 0.79934 0.05205 0.0
H162 H 0.19319 0.51649 0.99493 0.0
H163 H 0.95733 0.68831 0.82983 0.0
H164 H 0.75099 0.66977 0.96892 0.0
C165 C 0.12349 0.57978 0.20394 0.0
C166 C 0.1598 0.54348 0.20762 0.0
N167 N 0.22845 0.54586 0.24941 0.0
N168 N 0.16923 0.6045 0.24319 0.0
C169 C 0.23305 0.58297 0.27032 0.0
H170 H 0.06749 0.58777 0.1745 0.0
Co171 Co 0.14517 0.65632 0.25312 0.0
C172 C 0.25086 0.68405 0.36062 0.0
O173 O 0.17409 0.70752 0.38037 0.0
N174 N 0.12054 0.70921 0.2611 0.0
C175 C 0.14911 0.77185 0.26759 0.0
C176 C 0.19528 0.73656 0.26744 0.0
C177 C 0.02979 0.72857 0.2561 0.0
N178 N 0.04515 0.76654 0.26052 0.0
O179 O 0.2666 0.66242 0.20537 0.0
H180 H 0.27877 0.73115 0.27078 0.0
H181 H 0.95454 0.71532 0.24766 0.0
O182 O 0.24305 0.663 0.31389 0.0
C183 C 0.28584 0.66113 0.15307 0.0
O184 O 0.38389 0.66495 0.13547 0.0
N185 N 0.02629 0.64841 0.30087 0.0
C186 C 0.84445 0.63505 0.36426 0.0
C187 C 0.9441 0.63447 0.38728 0.0
C188 C 0.03413 0.63953 0.35419 0.0
C189 C 0.93003 0.64658 0.27677 0.0
C190 C 0.83782 0.64008 0.30779 0.0
H191 H 0.10947 0.63499 0.37161 0.0
H192 H 0.92472 0.65005 0.23306 0.0
H193 H 0.28194 0.59412 0.30448 0.0
H194 H 0.13763 0.51765 0.18165 0.0
H195 H 0.18917 0.79898 0.27149 0.0
H196 H 0.95259 0.62881 0.43 0.0
H197 H 0.76209 0.63968 0.28808 0.0
C198 C 0.93746 0.32468 0.98025 0.0
C199 C 0.89186 0.28938 0.98086 0.0
N200 N 0.79421 0.29485 1.00427 0.0
N201 N 0.86877 0.35187 1.00345 0.0
C202 C 0.78171 0.33279 0.01726 0.0
H203 H 0.01527 0.33024 0.96357 0.0
Co204 Co 0.88895 0.40405 0.01109 0.0
C205 C 0.7646 0.4313 0.11794 0.0
O206 O 0.8404 0.45387 0.13799 0.0
N207 N 0.90729 0.45728 0.01725 0.0
C208 C 0.8659 0.51894 0.01997 0.0
C209 C 0.82695 0.48294 0.02257 0.0
C210 C 0.99448 0.4784 0.01019 0.0
N211 N 0.97116 0.51584 0.01221 0.0
O212 O 0.78557 0.40755 0.95676 0.0
H213 H 0.74432 0.47579 0.02632 0.0
H214 H 0.07279 0.46671 1.00163 0.0
O215 O 0.77682 0.41105 0.0702 0.0
C216 C 0.81091 0.40461 0.90485 0.0
O217 O 0.91071 0.40152 0.88846 0.0
N218 N 0.99649 0.39834 0.06152 0.0
C219 C 0.17094 0.38283 0.12247 0.0
C220 C 0.06881 0.38081 0.14545 0.0
C221 C 0.98228 0.38704 0.1133 0.0
C222 C 0.09556 0.39837 0.03766 0.0
C223 C 0.18428 0.39084 0.06751 0.0
H224 H 0.90479 0.38124 0.12961 0.0
H225 H 0.10552 0.4031 0.99444 0.0
H226 H 0.71014 0.3464 0.03565 0.0
H227 H 0.92737 0.26212 0.96498 0.0
H228 H 0.82014 0.54497 0.02207 0.0
H229 H 0.05601 0.37314 0.18718 0.0
H230 H 0.26235 0.39169 0.04809 0.0
C231 C 0.88983 0.48168 0.81308 0.0
C232 C 0.85352 0.51798 0.80939 0.0
N233 N 0.78488 0.5156 0.7676 0.0
N234 N 0.8441 0.45696 0.77382 0.0
C235 C 0.78029 0.47849 0.74669 0.0
H236 H 0.94582 0.47368 0.84252 0.0
Co237 Co 0.86816 0.40514 0.76388 0.0
C238 C 0.76247 0.37742 0.65638 0.0
O239 O 0.83924 0.35394 0.63664 0.0
N240 N 0.89279 0.35225 0.7559 0.0
C241 C 0.86422 0.28961 0.74942 0.0
C242 C 0.81805 0.3249 0.74956 0.0
C243 C 0.98354 0.33289 0.7609 0.0
N244 N 0.96818 0.29492 0.75649 0.0
O245 O 0.74673 0.39904 0.81163 0.0
H246 H 0.73456 0.33031 0.74622 0.0
H247 H 0.05879 0.34613 0.76935 0.0
O248 O 0.77028 0.39846 0.70312 0.0
C249 C 0.72749 0.40032 0.86393 0.0
O250 O 0.62944 0.39651 0.88153 0.0
N251 N 0.98704 0.41305 0.71614 0.0
C252 C 0.16888 0.42641 0.65275 0.0
C253 C 0.06924 0.42699 0.62973 0.0
C254 C 0.9792 0.42193 0.66282 0.0
C255 C 0.0833 0.41488 0.74024 0.0
C256 C 0.1755 0.42137 0.70922 0.0
H257 H 0.90386 0.42647 0.6454 0.0
H258 H 0.0886 0.4114 0.78395 0.0
H259 H 0.73141 0.46734 0.71252 0.0
H260 H 0.87568 0.54381 0.83536 0.0
H261 H 0.82416 0.26248 0.74551 0.0
H262 H 0.06074 0.43265 0.58701 0.0
H263 H 0.25124 0.42178 0.72893 0.0
C264 C 0.57589 0.23677 0.03676 0.0
C265 C 0.6215 0.27207 0.03616 0.0
N266 N 0.71916 0.26661 0.01277 0.0
N267 N 0.64458 0.20959 0.01357 0.0
C268 C 0.73165 0.22866 0.99977 0.0
H269 H 0.49807 0.23121 0.05343 0.0
Co270 Co 0.62439 0.1574 1.00592 0.0
C271 C 0.74876 0.13014 0.89909 0.0
O272 O 0.67297 0.10757 0.87904 0.0
N273 N 0.60605 0.10418 0.99975 0.0
C274 C 0.64743 0.04252 0.99703 0.0
C275 C 0.6864 0.07852 0.99447 0.0
C276 C 0.51885 0.08305 1.00675 0.0
N277 N 0.54216 0.0456 1.00472 0.0
O278 O 0.72777 0.1539 0.06026 0.0
H279 H 0.76903 0.08567 0.99077 0.0
H280 H 0.44052 0.09474 0.01528 0.0
O281 O 0.73653 0.15041 0.94682 0.0
C282 C 0.70243 0.15685 0.11216 0.0
O283 O 0.60263 0.15994 0.12856 0.0
N284 N 0.51686 0.16311 0.9555 0.0
C285 C 0.34241 0.17863 0.89455 0.0
C286 C 0.44454 0.18064 0.87156 0.0
C287 C 0.53107 0.17441 0.90371 0.0
C288 C 0.4178 0.1631 0.97936 0.0
C289 C 0.32907 0.17063 0.94951 0.0
H290 H 0.60856 0.1802 0.8874 0.0
H291 H 0.40784 0.15837 0.02258 0.0
H292 H 0.80322 0.21505 0.98139 0.0
H293 H 0.58598 0.29934 0.05204 0.0
H294 H 0.6932 1.01649 0.99495 0.0
H295 H 0.45733 0.1883 0.82983 0.0
H296 H 0.25101 0.16978 0.96894 0.0
C297 C 0.62357 0.07979 0.20392 0.0
C298 C 0.65988 0.04349 0.2076 0.0
N299 N 0.72849 0.04586 0.2494 0.0
N300 N 0.66927 0.1045 0.24319 0.0
C301 C 0.73306 0.08297 0.27033 0.0
H302 H 0.56759 0.08779 0.17447 0.0
Co303 Co 0.6452 0.15633 0.25314 0.0
C304 C 0.7509 0.18405 0.36063 0.0
O305 O 0.67413 0.20753 0.38038 0.0
N306 N 0.62056 0.20921 0.26113 0.0
C307 C 0.64912 0.27185 0.26762 0.0
C308 C 0.6953 0.23656 0.26745 0.0
C309 C 0.52979 0.22858 0.25617 0.0
N310 N 0.54515 0.26655 0.2606 0.0
O311 O 0.76662 0.16243 0.20539 0.0
H312 H 0.7788 0.23115 0.27076 0.0
H313 H 0.45454 0.21533 0.24775 0.0
O314 O 0.74309 0.16301 0.3139 0.0
C315 C 0.78585 0.16114 0.15308 0.0
O316 O 0.8839 0.16496 0.13549 0.0
N317 N 0.52633 0.14841 0.30089 0.0
C318 C 0.34449 0.13504 0.36428 0.0
C319 C 0.44414 0.13447 0.38729 0.0
C320 C 0.53417 0.13954 0.35421 0.0
C321 C 0.43007 0.14657 0.27678 0.0
C322 C 0.33787 0.14007 0.3078 0.0
H323 H 0.60951 0.135 0.37163 0.0
H324 H 0.42476 0.15005 0.23307 0.0
H325 H 0.78191 0.09411 0.30451 0.0
H326 H 0.63773 1.01766 0.18162 0.0
H327 H 0.68918 0.29898 0.27151 0.0
H328 H 0.45264 0.12881 0.43002 0.0
H329 H 0.26213 0.13966 0.2881 0.0
C330 C 0.43745 0.82468 0.98025 0.0
C331 C 0.39184 0.78938 0.98086 0.0
N332 N 0.29418 0.79485 1.00425 0.0
N333 N 0.36876 0.85187 1.00344 0.0
C334 C 0.28168 0.83279 0.01724 0.0
H335 H 0.51526 0.83024 0.96358 0.0
Co336 Co 0.38894 0.90405 0.01108 0.0
C337 C 0.26458 0.93131 0.11792 0.0
O338 O 0.34038 0.95388 0.13797 0.0
N339 N 0.40728 0.95728 0.01724 0.0
C340 C 0.3659 1.01894 0.01995 0.0
C341 C 0.32694 0.98294 0.02255 0.0
C342 C 0.49447 0.9784 0.01019 0.0
N343 N 0.47115 1.01584 0.01221 0.0
O344 O 0.28555 0.90755 0.95675 0.0
H345 H 0.2443 0.97579 0.02629 0.0
H346 H 0.57279 0.96671 1.00164 0.0
O347 O 0.2768 0.91105 0.07018 0.0
C348 C 0.3109 0.9046 0.90484 0.0
O349 O 0.4107 0.90151 0.88844 0.0
N350 N 0.49648 0.89835 0.06151 0.0
C351 C 0.67093 0.88283 0.12245 0.0
C352 C 0.5688 0.88082 0.14544 0.0
C353 C 0.48226 0.88704 0.11329 0.0
C354 C 0.59554 0.89836 0.03765 0.0
C355 C 0.68427 0.89084 0.06749 0.0
H356 H 0.40478 0.88125 0.1296 0.0
H357 H 0.6055 0.90309 0.99443 0.0
H358 H 0.21011 0.8464 0.03562 0.0
H359 H 0.42736 0.76212 0.96498 0.0
H360 H 0.32013 0.04497 0.02205 0.0
H361 H 0.556 0.87315 0.18717 0.0
H362 H 0.76233 0.89169 0.04807 0.0
C363 C 0.38975 0.98167 0.81309 0.0
C364 C 0.35345 1.01797 0.80942 0.0
N365 N 0.28484 1.0156 0.76761 0.0
N366 N 0.34406 0.95696 0.77382 0.0
C367 C 0.28028 0.97849 0.74668 0.0
H368 H 0.44572 0.97367 0.84254 0.0
Co369 Co 0.36813 0.90513 0.76387 0.0
C370 C 0.26243 0.87741 0.65638 0.0
O371 O 0.3392 0.85393 0.63663 0.0
N372 N 0.39277 0.85224 0.75587 0.0
C373 C 0.36421 0.7896 0.74938 0.0
C374 C 0.31803 0.8249 0.74955 0.0
C375 C 0.48354 0.83288 0.76084 0.0
N376 N 0.46818 0.79491 0.75641 0.0
O377 O 0.24671 0.89903 0.81162 0.0
H378 H 0.23453 0.83031 0.74625 0.0
H379 H 0.55879 0.84613 0.76926 0.0
O380 O 0.27024 0.89845 0.70311 0.0
C381 C 0.22748 0.90031 0.86392 0.0
O382 O 0.12943 0.89649 0.88152 0.0
N383 N 0.487 0.91305 0.71612 0.0
C384 C 0.66884 0.92642 0.65273 0.0
C385 C 0.56919 0.92699 0.62971 0.0
C386 C 0.47916 0.92192 0.6628 0.0
C387 C 0.58326 0.91489 0.74022 0.0
C388 C 0.67547 0.92139 0.70921 0.0
H389 H 0.40382 0.92646 0.64537 0.0
H390 H 0.58857 0.91141 0.78394 0.0
H391 H 0.23143 0.96735 0.71249 0.0
H392 H 0.37559 0.0438 0.8354 0.0
H393 H 0.32416 0.76247 0.74549 0.0
H394 H 0.5607 0.93265 0.58699 0.0
H395 H 0.7512 0.9218 0.72891 0.0
C396 C 0.57586 0.73678 0.53675 0.0
C397 C 0.62147 0.77208 0.53616 0.0
N398 N 0.71913 0.76661 0.51276 0.0
N399 N 0.64455 0.70959 0.51356 0.0
C400 C 0.73162 0.72867 0.49977 0.0
H401 H 0.49804 0.73121 0.55342 0.0
Co402 Co 0.62437 0.6574 0.50591 0.0
C403 C 0.74873 0.63015 0.39907 0.0
O404 O 0.67293 0.60758 0.37902 0.0
N405 N 0.60603 0.60418 0.49974 0.0
C406 C 0.64742 0.54252 0.49701 0.0
C407 C 0.68638 0.57852 0.49445 0.0
C408 C 0.51883 0.58305 0.50675 0.0
N409 N 0.54215 0.5456 0.50471 0.0
O410 O 0.72775 0.6539 0.56025 0.0
H411 H 0.76901 0.58568 0.49074 0.0
H412 H 0.44051 0.59474 0.51529 0.0
O413 O 0.7365 0.65041 0.44681 0.0
C414 C 0.70241 0.65685 0.61215 0.0
O415 O 0.60262 0.65994 0.62855 0.0
N416 N 0.51683 0.66312 0.45549 0.0
C417 C 0.34238 0.67863 0.39454 0.0
C418 C 0.44451 0.68065 0.37155 0.0
C419 C 0.53104 0.67442 0.4037 0.0
C420 C 0.41777 0.6631 0.47935 0.0
C421 C 0.32904 0.67063 0.4495 0.0
H422 H 0.60853 0.68022 0.38739 0.0
H423 H 0.40781 0.65836 0.52257 0.0
H424 H 0.8032 0.71505 0.48138 0.0
H425 H 0.58595 0.79934 0.55204 0.0
H426 H 0.69319 0.51649 0.49493 0.0
H427 H 0.4573 0.68831 0.32983 0.0
H428 H 0.25097 0.66977 0.46893 0.0
C429 C 0.62351 0.57978 0.70394 0.0
C430 C 0.65983 0.54348 0.70762 0.0
N431 N 0.72848 0.54586 0.74941 0.0
N432 N 0.66925 0.6045 0.74319 0.0
C433 C 0.73306 0.58297 0.77032 0.0
H434 H 0.56751 0.58778 0.6745 0.0
Co435 Co 0.64518 0.65633 0.75312 0.0
C436 C 0.75088 0.68405 0.86062 0.0
O437 O 0.67411 0.70753 0.88036 0.0
N438 N 0.62055 0.70921 0.7611 0.0
C439 C 0.64911 0.77185 0.76758 0.0
C440 C 0.69529 0.73656 0.76743 0.0
C441 C 0.52979 0.72857 0.75611 0.0
N442 N 0.54516 0.76654 0.76052 0.0
O443 O 0.76661 0.66242 0.70537 0.0
H444 H 0.77878 0.73115 0.77077 0.0
H445 H 0.45455 0.71532 0.74766 0.0
O446 O 0.74307 0.66301 0.81389 0.0
C447 C 0.78584 0.66113 0.65307 0.0
O448 O 0.88389 0.66495 0.63547 0.0
N449 N 0.52631 0.64841 0.80087 0.0
C450 C 0.34447 0.63505 0.86426 0.0
C451 C 0.44411 0.63447 0.88728 0.0
C452 C 0.53415 0.63954 0.8542 0.0
C453 C 0.43005 0.64658 0.77677 0.0
C454 C 0.33784 0.64008 0.80779 0.0
H455 H 0.60949 0.635 0.87162 0.0
H456 H 0.42474 0.65005 0.73306 0.0
H457 H 0.78195 0.59412 0.80448 0.0
H458 H 0.63766 0.51765 0.68165 0.0
H459 H 0.68917 0.79898 0.77148 0.0
H460 H 0.45261 0.62882 0.93 0.0
H461 H 0.26211 0.63967 0.78808 0.0
C462 C 0.43747 0.32468 0.48026 0.0
C463 C 0.39186 0.28938 0.48086 0.0
N464 N 0.2942 0.29485 0.50425 0.0
N465 N 0.36878 0.35187 0.50345 0.0
C466 C 0.28171 0.33279 0.51725 0.0
H467 H 0.51529 0.33024 0.46359 0.0
Co468 Co 0.38896 0.40405 0.51109 0.0
C469 C 0.26461 0.4313 0.61794 0.0
O470 O 0.34041 0.45387 0.63799 0.0
N471 N 0.40729 0.45728 0.51725 0.0
C472 C 0.3659 0.51894 0.51997 0.0
C473 C 0.32695 0.48294 0.52257 0.0
C474 C 0.49448 0.4784 0.5102 0.0
N475 N 0.47116 0.51585 0.51221 0.0
O476 O 0.28557 0.40755 0.45676 0.0
H477 H 0.24432 0.47579 0.52632 0.0
H478 H 0.57279 0.46671 0.50163 0.0
O479 O 0.27683 0.41105 0.5702 0.0
C480 C 0.31091 0.40461 0.40486 0.0
O481 O 0.41071 0.40152 0.38846 0.0
N482 N 0.4965 0.39834 0.56152 0.0
C483 C 0.67095 0.38283 0.62246 0.0
C484 C 0.56882 0.38081 0.64545 0.0
C485 C 0.48229 0.38704 0.6133 0.0
C486 C 0.59556 0.39837 0.53766 0.0
C487 C 0.68429 0.39084 0.5675 0.0
H488 H 0.4048 0.38124 0.62961 0.0
H489 H 0.60552 0.4031 0.49444 0.0
H490 H 0.21013 0.3464 0.53563 0.0
H491 H 0.42738 0.26212 0.46498 0.0
H492 H 0.32013 0.54497 0.52207 0.0
H493 H 0.55603 0.37314 0.68717 0.0
H494 H 0.76236 0.3917 0.54808 0.0
C495 C 0.38983 0.48168 0.31307 0.0
C496 C 0.35351 0.51798 0.30939 0.0
N497 N 0.28486 0.5156 0.2676 0.0
N498 N 0.34409 0.45696 0.27382 0.0
C499 C 0.28027 0.47849 0.24669 0.0
H500 H 0.44584 0.47368 0.3425 0.0
Co501 Co 0.36815 0.40513 0.26388 0.0
C502 C 0.26246 0.37741 0.15639 0.0
O503 O 0.33923 0.35393 0.13664 0.0
N504 N 0.39278 0.35225 0.2559 0.0
C505 C 0.36422 0.28961 0.24942 0.0
C506 C 0.31804 0.3249 0.24957 0.0
C507 C 0.48354 0.33289 0.2609 0.0
N508 N 0.46817 0.29492 0.25649 0.0
O509 O 0.24672 0.39904 0.31163 0.0
H510 H 0.23455 0.33031 0.24623 0.0
H511 H 0.55878 0.34613 0.26934 0.0
O512 O 0.27027 0.39845 0.20312 0.0
C513 C 0.22749 0.40032 0.36393 0.0
O514 O 0.12944 0.39651 0.38153 0.0
N515 N 0.48703 0.41305 0.21614 0.0
C516 C 0.66887 0.42641 0.15274 0.0
C517 C 0.56923 0.42699 0.12973 0.0
C518 C 0.47919 0.42192 0.16281 0.0
C519 C 0.58329 0.41488 0.24024 0.0
C520 C 0.67549 0.42138 0.20922 0.0
H521 H 0.40385 0.42647 0.14539 0.0
H522 H 0.58859 0.41141 0.28395 0.0
H523 H 0.23137 0.46734 0.21253 0.0
H524 H 0.37568 0.54381 0.33536 0.0
H525 H 0.32416 0.26248 0.24552 0.0
H526 H 0.56073 0.43264 0.08701 0.0
H527 H 0.75123 0.42178 0.22893 0.0
loop_
_geom_bond_atom_site_label_1
_geom_bond_atom_site_label_2
_geom_bond_distance
_geom_bond_site_symmetry_2
_ccdc_geom_bond_type
C0 C1 1.351 . S
C0 N3 1.368 . S
C0 H5 0.931 . S
C1 C0 1.351 . S
C1 N2 1.373 . S
C1 H29 0.930 . S
N2 C1 1.373 . S
N2 C4 1.340 . S
N3 C0 1.368 . S
N3 C4 1.321 . S
N3 Co6 2.135 . S
C4 N2 1.340 . S
C4 N3 1.321 . S
C4 H28 0.930 . S
H5 C0 0.931 . S
Co6 N3 2.135 . S
Co6 N9 2.121 . S
Co6 O14 2.055 . S
Co6 O17 2.039 . S
Co6 N20 2.140 1_455 S
C7 O8 1.227 . S
C7 O17 1.265 . S
O8 C7 1.227 . S
N9 Co6 2.121 . S
N9 C11 1.375 . S
N9 C12 1.313 . S
C10 C11 1.338 . S
C10 N13 1.377 . S
C10 H30 0.930 1_545 S
C11 N9 1.375 . S
C11 C10 1.338 . S
C11 H15 0.931 . S
C12 N9 1.313 . S
C12 N13 1.344 . S
C12 H16 0.930 . S
N13 C10 1.377 . S
N13 C12 1.344 . S
O14 Co6 2.055 . S
O14 C18 1.253 . S
H15 C11 0.931 . S
H16 C12 0.930 . S
O17 Co6 2.039 . S
O17 C7 1.265 . S
C18 O14 1.253 . S
C18 O19 1.227 1_455 S
O19 C18 1.227 1_655 S
N20 Co6 2.140 1_655 S
N20 C23 1.346 . S
N20 C24 1.345 . S
C21 C22 1.387 . S
C21 C25 1.391 . S
C22 C21 1.387 . S
C22 C23 1.369 . S
C22 H31 0.929 . S
C23 N20 1.346 . S
C23 C22 1.369 . S
C23 H26 0.928 1_655 S
C24 N20 1.345 . S
C24 C25 1.371 . S
C24 H27 0.931 . S
C25 C21 1.391 . S
C25 C24 1.371 . S
C25 H32 0.930 . S
H26 C23 0.928 1_455 S
H27 C24 0.931 . S
H28 C4 0.930 . S
H29 C1 0.930 . S
H30 C10 0.930 1_565 S
H31 C22 0.929 . S
H32 C25 0.930 . S
C33 C34 1.351 . S
C33 N36 1.368 . S
C33 H38 0.931 . S
C34 C33 1.351 . S
C34 N35 1.373 . S
C34 H62 0.930 1_545 S
N35 C34 1.373 . S
N35 C37 1.340 . S
N36 C33 1.368 . S
N36 C37 1.321 . S
N36 Co39 2.135 . S
C37 N35 1.340 . S
C37 N36 1.321 . S
C37 H61 0.930 . S
H38 C33 0.931 . S
Co39 N36 2.135 . S
Co39 N42 2.121 . S
Co39 O47 2.055 . S
Co39 O50 2.039 . S
Co39 N53 2.140 1_455 S
C40 O41 1.227 . S
C40 O50 1.265 . S
O41 C40 1.227 . S
N42 Co39 2.121 . S
N42 C44 1.375 . S
N42 C45 1.313 . S
C43 C44 1.338 . S
C43 N46 1.377 . S
C43 H63 0.930 . S
C44 N42 1.375 . S
C44 C43 1.338 . S
C44 H48 0.931 . S
C45 N42 1.313 . S
C45 N46 1.344 . S
C45 H49 0.930 . S
N46 C43 1.377 . S
N46 C45 1.344 . S
O47 Co39 2.055 . S
O47 C51 1.253 . S
H48 C44 0.931 . S
H49 C45 0.930 . S
O50 Co39 2.039 . S
O50 C40 1.265 . S
C51 O47 1.253 . S
C51 O52 1.227 1_455 S
O52 C51 1.227 1_655 S
N53 Co39 2.140 1_655 S
N53 C56 1.346 . S
N53 C57 1.345 . S
C54 C55 1.387 . S
C54 C58 1.391 . S
C55 C54 1.387 . S
C55 C56 1.369 . S
C55 H64 0.929 . S
C56 N53 1.346 . S
C56 C55 1.369 . S
C56 H59 0.928 1_655 S
C57 N53 1.345 . S
C57 C58 1.371 . S
C57 H60 0.931 . S
C58 C54 1.391 . S
C58 C57 1.371 . S
C58 H65 0.930 . S
H59 C56 0.928 1_455 S
H60 C57 0.931 . S
H61 C37 0.930 . S
H62 C34 0.930 1_565 S
H63 C43 0.930 . S
H64 C55 0.929 . S
H65 C58 0.930 . S
C66 C67 1.351 . S
C66 N69 1.368 . S
C66 H71 0.931 . S
C67 C66 1.351 . S
C67 N68 1.373 . S
C67 H95 0.930 . S
N68 C67 1.373 . S
N68 C70 1.340 . S
N69 C66 1.368 . S
N69 C70 1.321 . S
N69 Co72 2.135 . S
C70 N68 1.340 . S
C70 N69 1.321 . S
C70 H94 0.930 . S
H71 C66 0.931 . S
Co72 N69 2.135 . S
Co72 N75 2.121 . S
Co72 O80 2.055 . S
Co72 O83 2.039 . S
Co72 N86 2.140 1_655 S
C73 O74 1.227 . S
C73 O83 1.265 . S
O74 C73 1.227 . S
N75 Co72 2.121 . S
N75 C77 1.375 . S
N75 C78 1.313 . S
C76 C77 1.338 . S
C76 N79 1.377 . S
C76 H96 0.930 1_565 S
C77 N75 1.375 . S
C77 C76 1.338 . S
C77 H81 0.931 . S
C78 N75 1.313 . S
C78 N79 1.344 . S
C78 H82 0.930 . S
N79 C76 1.377 . S
N79 C78 1.344 . S
O80 Co72 2.055 . S
O80 C84 1.253 . S
H81 C77 0.931 . S
H82 C78 0.930 . S
O83 Co72 2.039 . S
O83 C73 1.265 . S
C84 O80 1.253 . S
C84 O85 1.227 1_655 S
O85 C84 1.227 1_455 S
N86 Co72 2.140 1_455 S
N86 C89 1.346 . S
N86 C90 1.345 . S
C87 C88 1.387 . S
C87 C91 1.391 . S
C88 C87 1.387 . S
C88 C89 1.369 . S
C88 H97 0.929 . S
C89 N86 1.346 . S
C89 C88 1.369 . S
C89 H92 0.928 1_455 S
C90 N86 1.345 . S
C90 C91 1.371 . S
C90 H93 0.931 . S
C91 C87 1.391 . S
C91 C90 1.371 . S
C91 H98 0.930 . S
H92 C89 0.928 1_655 S
H93 C90 0.931 . S
H94 C70 0.930 . S
H95 C67 0.930 . S
H96 C76 0.930 1_545 S
H97 C88 0.929 . S
H98 C91 0.930 . S
C99 C100 1.351 . S
C99 N102 1.368 . S
C99 H104 0.931 . S
C100 C99 1.351 . S
C100 N101 1.373 . S
C100 H128 0.930 1_565 S
N101 C100 1.373 . S
N101 C103 1.340 . S
N102 C99 1.368 . S
N102 C103 1.321 . S
N102 Co105 2.135 . S
C103 N101 1.340 . S
C103 N102 1.321 . S
C103 H127 0.930 . S
H104 C99 0.931 . S
Co105 N102 2.135 . S
Co105 N108 2.121 . S
Co105 O113 2.055 . S
Co105 O116 2.039 . S
Co105 N119 2.140 1_655 S
C106 O107 1.227 . S
C106 O116 1.265 . S
O107 C106 1.227 . S
N108 Co105 2.121 . S
N108 C110 1.375 . S
N108 C111 1.313 . S
C109 C110 1.338 . S
C109 N112 1.377 . S
C109 H129 0.930 . S
C110 N108 1.375 . S
C110 C109 1.338 . S
C110 H114 0.931 . S
C111 N108 1.313 . S
C111 N112 1.344 . S
C111 H115 0.930 . S
N112 C109 1.377 . S
N112 C111 1.344 . S
O113 Co105 2.055 . S
O113 C117 1.253 . S
H114 C110 0.931 . S
H115 C111 0.930 . S
O116 Co105 2.039 . S
O116 C106 1.265 . S
C117 O113 1.253 . S
C117 O118 1.227 1_655 S
O118 C117 1.227 1_455 S
N119 Co105 2.140 1_455 S
N119 C122 1.346 . S
N119 C123 1.345 . S
C120 C121 1.387 . S
C120 C124 1.391 . S
C121 C120 1.387 . S
C121 C122 1.369 . S
C121 H130 0.929 . S
C122 N119 1.346 . S
C122 C121 1.369 . S
C122 H125 0.928 1_455 S
C123 N119 1.345 . S
C123 C124 1.371 . S
C123 H126 0.931 . S
C124 C120 1.391 . S
C124 C123 1.371 . S
C124 H131 0.930 . S
H125 C122 0.928 1_655 S
H126 C123 0.931 . S
H127 C103 0.930 . S
H128 C100 0.930 1_545 S
H129 C109 0.930 . S
H130 C121 0.929 . S
H131 C124 0.930 . S
C132 C133 1.351 . S
C132 N135 1.368 . S
C132 H137 0.931 . S
C133 C132 1.351 . S
C133 N134 1.373 . S
C133 H161 0.930 . S
N134 C133 1.373 . S
N134 C136 1.340 1_554 S
N135 C132 1.368 . S
N135 C136 1.321 1_554 S
N135 Co138 2.135 1_554 S
C136 N134 1.340 1_556 S
C136 N135 1.321 1_556 S
C136 H160 0.930 . S
H137 C132 0.931 . S
Co138 N135 2.135 1_556 S
Co138 N141 2.121 . S
Co138 O146 2.055 1_556 S
Co138 O149 2.039 . S
Co138 N152 2.140 1_455 S
C139 O140 1.227 . S
C139 O149 1.265 . S
O140 C139 1.227 . S
N141 Co138 2.121 . S
N141 C143 1.375 . S
N141 C144 1.313 1_556 S
C142 C143 1.338 . S
C142 N145 1.377 . S
C142 H162 0.930 . S
C143 N141 1.375 . S
C143 C142 1.338 . S
C143 H147 0.931 . S
C144 N141 1.313 1_554 S
C144 N145 1.344 1_554 S
C144 H148 0.930 . S
N145 C142 1.377 . S
N145 C144 1.344 1_556 S
O146 Co138 2.055 1_554 S
O146 C150 1.253 . S
H147 C143 0.931 . S
H148 C144 0.930 . S
O149 Co138 2.039 . S
O149 C139 1.265 . S
C150 O146 1.253 . S
C150 O151 1.227 1_455 S
O151 C150 1.227 1_655 S
N152 Co138 2.140 1_655 S
N152 C155 1.346 . S
N152 C156 1.345 . S
C153 C154 1.387 . S
C153 C157 1.391 . S
C154 C153 1.387 . S
C154 C155 1.369 . S
C154 H163 0.929 . S
C155 N152 1.346 . S
C155 C154 1.369 . S
C155 H158 0.928 1_655 S
C156 N152 1.345 . S
C156 C157 1.371 . S
C156 H159 0.931 . S
C157 C153 1.391 . S
C157 C156 1.371 . S
C157 H164 0.930 . S
H158 C155 0.928 1_455 S
H159 C156 0.931 . S
H160 C136 0.930 . S
H161 C133 0.930 . S
H162 C142 0.930 . S
H163 C154 0.929 . S
H164 C157 0.930 . S
C165 C166 1.351 . S
C165 N168 1.368 . S
C165 H170 0.931 . S
C166 C165 1.351 . S
C166 N167 1.373 . S
C166 H194 0.930 . S
N167 C166 1.373 . S
N167 C169 1.340 . S
N168 C165 1.368 . S
N168 C169 1.321 . S
N168 Co171 2.135 . S
C169 N167 1.340 . S
C169 N168 1.321 . S
C169 H193 0.930 . S
H170 C165 0.931 . S
Co171 N168 2.135 . S
Co171 N174 2.121 . S
Co171 O179 2.055 . S
Co171 O182 2.039 . S
Co171 N185 2.140 1_455 S
C172 O173 1.227 . S
C172 O182 1.265 . S
O173 C172 1.227 . S
N174 Co171 2.121 . S
N174 C176 1.375 . S
N174 C177 1.313 . S
C175 C176 1.338 . S
C175 N178 1.377 . S
C175 H195 0.930 . S
C176 N174 1.375 . S
C176 C175 1.338 . S
C176 H180 0.931 . S
C177 N174 1.313 . S
C177 N178 1.344 . S
C177 H181 0.930 . S
N178 C175 1.377 . S
N178 C177 1.344 . S
O179 Co171 2.055 . S
O179 C183 1.253 . S
H180 C176 0.931 . S
H181 C177 0.930 . S
O182 Co171 2.039 . S
O182 C172 1.265 . S
C183 O179 1.253 . S
C183 O184 1.227 1_455 S
O184 C183 1.227 1_655 S
N185 Co171 2.140 1_655 S
N185 C188 1.346 . S
N185 C189 1.345 . S
C186 C187 1.387 . S
C186 C190 1.391 . S
C187 C186 1.387 . S
C187 C188 1.369 . S
C187 H196 0.929 . S
C188 N185 1.346 . S
C188 C187 1.369 . S
C188 H191 0.928 1_655 S
C189 N185 1.345 . S
C189 C190 1.371 . S
C189 H192 0.931 . S
C190 C186 1.391 . S
C190 C189 1.371 . S
C190 H197 0.930 . S
H191 C188 0.928 1_455 S
H192 C189 0.931 . S
H193 C169 0.930 . S
H194 C166 0.930 . S
H195 C175 0.930 . S
H196 C187 0.929 . S
H197 C190 0.930 . S
C198 C199 1.351 . S
C198 N201 1.368 . S
C198 H203 0.931 . S
C199 C198 1.351 . S
C199 N200 1.373 . S
C199 H227 0.930 . S
N200 C199 1.373 . S
N200 C202 1.340 1_556 S
N201 C198 1.368 . S
N201 C202 1.321 1_556 S
N201 Co204 2.135 1_556 S
C202 N200 1.340 1_554 S
C202 N201 1.321 1_554 S
C202 H226 0.930 . S
H203 C198 0.931 . S
Co204 N201 2.135 1_554 S
Co204 N207 2.121 . S
Co204 O212 2.055 1_554 S
Co204 O215 2.039 . S
Co204 N218 2.140 1_655 S
C205 O206 1.227 . S
C205 O215 1.265 . S
O206 C205 1.227 . S
N207 Co204 2.121 . S
N207 C209 1.375 . S
N207 C210 1.313 1_554 S
C208 C209 1.338 . S
C208 N211 1.377 . S
C208 H228 0.930 . S
C209 N207 1.375 . S
C209 C208 1.338 . S
C209 H213 0.931 . S
C210 N207 1.313 1_556 S
C210 N211 1.344 1_556 S
C210 H214 0.930 . S
N211 C208 1.377 . S
N211 C210 1.344 1_554 S
O212 Co204 2.055 1_556 S
O212 C216 1.253 . S
H213 C209 0.931 . S
H214 C210 0.930 . S
O215 Co204 2.039 . S
O215 C205 1.265 . S
C216 O212 1.253 . S
C216 O217 1.227 1_655 S
O217 C216 1.227 1_455 S
N218 Co204 2.140 1_455 S
N218 C221 1.346 . S
N218 C222 1.345 . S
C219 C220 1.387 . S
C219 C223 1.391 . S
C220 C219 1.387 . S
C220 C221 1.369 . S
C220 H229 0.929 . S
C221 N218 1.346 . S
C221 C220 1.369 . S
C221 H224 0.928 1_455 S
C222 N218 1.345 . S
C222 C223 1.371 . S
C222 H225 0.931 . S
C223 C219 1.391 . S
C223 C222 1.371 . S
C223 H230 0.930 . S
H224 C221 0.928 1_655 S
H225 C222 0.931 . S
H226 C202 0.930 . S
H227 C199 0.930 . S
H228 C208 0.930 . S
H229 C220 0.929 . S
H230 C223 0.930 . S
C231 C232 1.351 . S
C231 N234 1.368 . S
C231 H236 0.931 . S
C232 C231 1.351 . S
C232 N233 1.373 . S
C232 H260 0.930 . S
N233 C232 1.373 . S
N233 C235 1.340 . S
N234 C231 1.368 . S
N234 C235 1.321 . S
N234 Co237 2.135 . S
C235 N233 1.340 . S
C235 N234 1.321 . S
C235 H259 0.930 . S
H236 C231 0.931 . S
Co237 N234 2.135 . S
Co237 N240 2.121 . S
Co237 O245 2.055 . S
Co237 O248 2.039 . S
Co237 N251 2.140 1_655 S
C238 O239 1.227 . S
C238 O248 1.265 . S
O239 C238 1.227 . S
N240 Co237 2.121 . S
N240 C242 1.375 . S
N240 C243 1.313 . S
C241 C242 1.338 . S
C241 N244 1.377 . S
C241 H261 0.930 . S
C242 N240 1.375 . S
C242 C241 1.338 . S
C242 H246 0.931 . S
C243 N240 1.313 . S
C243 N244 1.344 . S
C243 H247 0.930 . S
N244 C241 1.377 . S
N244 C243 1.344 . S
O245 Co237 2.055 . S
O245 C249 1.253 . S
H246 C242 0.931 . S
H247 C243 0.930 . S
O248 Co237 2.039 . S
O248 C238 1.265 . S
C249 O245 1.253 . S
C249 O250 1.227 1_655 S
O250 C249 1.227 1_455 S
N251 Co237 2.140 1_455 S
N251 C254 1.346 . S
N251 C255 1.345 . S
C252 C253 1.387 . S
C252 C256 1.391 . S
C253 C252 1.387 . S
C253 C254 1.369 . S
C253 H262 0.929 . S
C254 N251 1.346 . S
C254 C253 1.369 . S
C254 H257 0.928 1_455 S
C255 N251 1.345 . S
C255 C256 1.371 . S
C255 H258 0.931 . S
C256 C252 1.391 . S
C256 C255 1.371 . S
C256 H263 0.930 . S
H257 C254 0.928 1_655 S
H258 C255 0.931 . S
H259 C235 0.930 . S
H260 C232 0.930 . S
H261 C241 0.930 . S
H262 C253 0.929 . S
H263 C256 0.930 . S
C264 C265 1.351 . S
C264 N267 1.368 . S
C264 H269 0.931 . S
C265 C264 1.351 . S
C265 N266 1.373 . S
C265 H293 0.930 . S
N266 C265 1.373 . S
N266 C268 1.340 1_554 S
N267 C264 1.368 . S
N267 C268 1.321 1_554 S
N267 Co270 2.135 1_554 S
C268 N266 1.340 1_556 S
C268 N267 1.321 1_556 S
C268 H292 0.930 . S
H269 C264 0.931 . S
Co270 N267 2.135 1_556 S
Co270 N273 2.121 . S
Co270 O278 2.055 1_556 S
Co270 O281 2.039 . S
Co270 N284 2.140 . S
C271 O272 1.227 . S
C271 O281 1.265 . S
O272 C271 1.227 . S
N273 Co270 2.121 . S
N273 C275 1.375 . S
N273 C276 1.313 1_556 S
C274 C275 1.338 . S
C274 N277 1.377 . S
C274 H294 0.930 1_545 S
C275 N273 1.375 . S
C275 C274 1.338 . S
C275 H279 0.931 . S
C276 N273 1.313 1_554 S
C276 N277 1.344 1_554 S
C276 H280 0.930 . S
N277 C274 1.377 . S
N277 C276 1.344 1_556 S
O278 Co270 2.055 1_554 S
O278 C282 1.253 . S
H279 C275 0.931 . S
H280 C276 0.930 . S
O281 Co270 2.039 . S
O281 C271 1.265 . S
C282 O278 1.253 . S
C282 O283 1.227 . S
O283 C282 1.227 . S
N284 Co270 2.140 . S
N284 C287 1.346 . S
N284 C288 1.345 . S
C285 C286 1.387 . S
C285 C289 1.391 . S
C286 C285 1.387 . S
C286 C287 1.369 . S
C286 H295 0.929 . S
C287 N284 1.346 . S
C287 C286 1.369 . S
C287 H290 0.928 . S
C288 N284 1.345 . S
C288 C289 1.371 . S
C288 H291 0.931 . S
C289 C285 1.391 . S
C289 C288 1.371 . S
C289 H296 0.930 . S
H290 C287 0.928 . S
H291 C288 0.931 . S
H292 C268 0.930 . S
H293 C265 0.930 . S
H294 C274 0.930 1_565 S
H295 C286 0.929 . S
H296 C289 0.930 . S
C297 C298 1.351 . S
C297 N300 1.368 . S
C297 H302 0.931 . S
C298 C297 1.351 . S
C298 N299 1.373 . S
C298 H326 0.930 1_545 S
N299 C298 1.373 . S
N299 C301 1.340 . S
N300 C297 1.368 . S
N300 C301 1.321 . S
N300 Co303 2.135 . S
C301 N299 1.340 . S
C301 N300 1.321 . S
C301 H325 0.930 . S
H302 C297 0.931 . S
Co303 N300 2.135 . S
Co303 N306 2.121 . S
Co303 O311 2.055 . S
Co303 O314 2.039 . S
Co303 N317 2.140 . S
C304 O305 1.227 . S
C304 O314 1.265 . S
O305 C304 1.227 . S
N306 Co303 2.121 . S
N306 C308 1.375 . S
N306 C309 1.313 . S
C307 C308 1.338 . S
C307 N310 1.377 . S
C307 H327 0.930 . S
C308 N306 1.375 . S
C308 C307 1.338 . S
C308 H312 0.931 . S
C309 N306 1.313 . S
C309 N310 1.344 . S
C309 H313 0.930 . S
N310 C307 1.377 . S
N310 C309 1.344 . S
O311 Co303 2.055 . S
O311 C315 1.253 . S
H312 C308 0.931 . S
H313 C309 0.930 . S
O314 Co303 2.039 . S
O314 C304 1.265 . S
C315 O311 1.253 . S
C315 O316 1.227 . S
O316 C315 1.227 . S
N317 Co303 2.140 . S
N317 C320 1.346 . S
N317 C321 1.345 . S
C318 C319 1.387 . S
C318 C322 1.391 . S
C319 C318 1.387 . S
C319 C320 1.369 . S
C319 H328 0.929 . S
C320 N317 1.346 . S
C320 C319 1.369 . S
C320 H323 0.928 . S
C321 N317 1.345 . S
C321 C322 1.371 . S
C321 H324 0.931 . S
C322 C318 1.391 . S
C322 C321 1.371 . S
C322 H329 0.930 . S
H323 C320 0.928 . S
H324 C321 0.931 . S
H325 C301 0.930 . S
H326 C298 0.930 1_565 S
H327 C307 0.930 . S
H328 C319 0.929 . S
H329 C322 0.930 . S
C330 C331 1.351 . S
C330 N333 1.368 . S
C330 H335 0.931 . S
C331 C330 1.351 . S
C331 N332 1.373 . S
C331 H359 0.930 . S
N332 C331 1.373 . S
N332 C334 1.340 1_556 S
N333 C330 1.368 . S
N333 C334 1.321 1_556 S
N333 Co336 2.135 1_556 S
C334 N332 1.340 1_554 S
C334 N333 1.321 1_554 S
C334 H358 0.930 . S
H335 C330 0.931 . S
Co336 N333 2.135 1_554 S
Co336 N339 2.121 . S
Co336 O344 2.055 1_554 S
Co336 O347 2.039 . S
Co336 N350 2.140 . S
C337 O338 1.227 . S
C337 O347 1.265 . S
O338 C337 1.227 . S
N339 Co336 2.121 . S
N339 C341 1.375 . S
N339 C342 1.313 1_554 S
C340 C341 1.338 . S
C340 N343 1.377 . S
C340 H360 0.930 1_565 S
C341 N339 1.375 . S
C341 C340 1.338 . S
C341 H345 0.931 . S
C342 N339 1.313 1_556 S
C342 N343 1.344 1_556 S
C342 H346 0.930 . S
N343 C340 1.377 . S
N343 C342 1.344 1_554 S
O344 Co336 2.055 1_556 S
O344 C348 1.253 . S
H345 C341 0.931 . S
H346 C342 0.930 . S
O347 Co336 2.039 . S
O347 C337 1.265 . S
C348 O344 1.253 . S
C348 O349 1.227 . S
O349 C348 1.227 . S
N350 Co336 2.140 . S
N350 C353 1.346 . S
N350 C354 1.345 . S
C351 C352 1.387 . S
C351 C355 1.391 . S
C352 C351 1.387 . S
C352 C353 1.369 . S
C352 H361 0.929 . S
C353 N350 1.346 . S
C353 C352 1.369 . S
C353 H356 0.928 . S
C354 N350 1.345 . S
C354 C355 1.371 . S
C354 H357 0.931 . S
C355 C351 1.391 . S
C355 C354 1.371 . S
C355 H362 0.930 . S
H356 C353 0.928 . S
H357 C354 0.931 . S
H358 C334 0.930 . S
H359 C331 0.930 . S
H360 C340 0.930 1_545 S
H361 C352 0.929 . S
H362 C355 0.930 . S
C363 C364 1.351 . S
C363 N366 1.368 . S
C363 H368 0.931 . S
C364 C363 1.351 . S
C364 N365 1.373 . S
C364 H392 0.930 1_565 S
N365 C364 1.373 . S
N365 C367 1.340 . S
N366 C363 1.368 . S
N366 C367 1.321 . S
N366 Co369 2.135 . S
C367 N365 1.340 . S
C367 N366 1.321 . S
C367 H391 0.930 . S
H368 C363 0.931 . S
Co369 N366 2.135 . S
Co369 N372 2.121 . S
Co369 O377 2.055 . S
Co369 O380 2.039 . S
Co369 N383 2.140 . S
C370 O371 1.227 . S
C370 O380 1.265 . S
O371 C370 1.227 . S
N372 Co369 2.121 . S
N372 C374 1.375 . S
N372 C375 1.313 . S
C373 C374 1.338 . S
C373 N376 1.377 . S
C373 H393 0.930 . S
C374 N372 1.375 . S
C374 C373 1.338 . S
C374 H378 0.931 . S
C375 N372 1.313 . S
C375 N376 1.344 . S
C375 H379 0.930 . S
N376 C373 1.377 . S
N376 C375 1.344 . S
O377 Co369 2.055 . S
O377 C381 1.253 . S
H378 C374 0.931 . S
H379 C375 0.930 . S
O380 Co369 2.039 . S
O380 C370 1.265 . S
C381 O377 1.253 . S
C381 O382 1.227 . S
O382 C381 1.227 . S
N383 Co369 2.140 . S
N383 C386 1.346 . S
N383 C387 1.345 . S
C384 C385 1.387 . S
C384 C388 1.391 . S
C385 C384 1.387 . S
C385 C386 1.369 . S
C385 H394 0.929 . S
C386 N383 1.346 . S
C386 C385 1.369 . S
C386 H389 0.928 . S
C387 N383 1.345 . S
C387 C388 1.371 . S
C387 H390 0.931 . S
C388 C384 1.391 . S
C388 C387 1.371 . S
C388 H395 0.930 . S
H389 C386 0.928 . S
H390 C387 0.931 . S
H391 C367 0.930 . S
H392 C364 0.930 1_545 S
H393 C373 0.930 . S
H394 C385 0.929 . S
H395 C388 0.930 . S
C396 C397 1.351 . S
C396 N399 1.368 . S
C396 H401 0.931 . S
C397 C396 1.351 . S
C397 N398 1.373 . S
C397 H425 0.930 . S
N398 C397 1.373 . S
N398 C400 1.340 . S
N399 C396 1.368 . S
N399 C400 1.321 . S
N399 Co402 2.135 . S
C400 N398 1.340 . S
C400 N399 1.321 . S
C400 H424 0.930 . S
H401 C396 0.931 . S
Co402 N399 2.135 . S
Co402 N405 2.121 . S
Co402 O410 2.055 . S
Co402 O413 2.039 . S
Co402 N416 2.140 . S
C403 O404 1.227 . S
C403 O413 1.265 . S
O404 C403 1.227 . S
N405 Co402 2.121 . S
N405 C407 1.375 . S
N405 C408 1.313 . S
C406 C407 1.338 . S
C406 N409 1.377 . S
C406 H426 0.930 . S
C407 N405 1.375 . S
C407 C406 1.338 . S
C407 H411 0.931 . S
C408 N405 1.313 . S
C408 N409 1.344 . S
C408 H412 0.930 . S
N409 C406 1.377 . S
N409 C408 1.344 . S
O410 Co402 2.055 . S
O410 C414 1.253 . S
H411 C407 0.931 . S
H412 C408 0.930 . S
O413 Co402 2.039 . S
O413 C403 1.265 . S
C414 O410 1.253 . S
C414 O415 1.227 . S
O415 C414 1.227 . S
N416 Co402 2.140 . S
N416 C419 1.346 . S
N416 C420 1.345 . S
C417 C418 1.387 . S
C417 C421 1.391 . S
C418 C417 1.387 . S
C418 C419 1.369 . S
C418 H427 0.929 . S
C419 N416 1.346 . S
C419 C418 1.369 . S
C419 H422 0.928 . S
C420 N416 1.345 . S
C420 C421 1.371 . S
C420 H423 0.931 . S
C421 C417 1.391 . S
C421 C420 1.371 . S
C421 H428 0.930 . S
H422 C419 0.928 . S
H423 C420 0.931 . S
H424 C400 0.930 . S
H425 C397 0.930 . S
H426 C406 0.930 . S
H427 C418 0.929 . S
H428 C421 0.930 . S
C429 C430 1.351 . S
C429 N432 1.368 . S
C429 H434 0.931 . S
C430 C429 1.351 . S
C430 N431 1.373 . S
C430 H458 0.930 . S
N431 C430 1.373 . S
N431 C433 1.340 . S
N432 C429 1.368 . S
N432 C433 1.321 . S
N432 Co435 2.135 . S
C433 N431 1.340 . S
C433 N432 1.321 . S
C433 H457 0.930 . S
H434 C429 0.931 . S
Co435 N432 2.135 . S
Co435 N438 2.121 . S
Co435 O443 2.055 . S
Co435 O446 2.039 . S
Co435 N449 2.140 . S
C436 O437 1.227 . S
C436 O446 1.265 . S
O437 C436 1.227 . S
N438 Co435 2.121 . S
N438 C440 1.375 . S
N438 C441 1.313 . S
C439 C440 1.338 . S
C439 N442 1.377 . S
C439 H459 0.930 . S
C440 N438 1.375 . S
C440 C439 1.338 . S
C440 H444 0.931 . S
C441 N438 1.313 . S
C441 N442 1.344 . S
C441 H445 0.930 . S
N442 C439 1.377 . S
N442 C441 1.344 . S
O443 Co435 2.055 . S
O443 C447 1.253 . S
H444 C440 0.931 . S
H445 C441 0.930 . S
O446 Co435 2.039 . S
O446 C436 1.265 . S
C447 O443 1.253 . S
C447 O448 1.227 . S
O448 C447 1.227 . S
N449 Co435 2.140 . S
N449 C452 1.346 . S
N449 C453 1.345 . S
C450 C451 1.387 . S
C450 C454 1.391 . S
C451 C450 1.387 . S
C451 C452 1.369 . S
C451 H460 0.929 . S
C452 N449 1.346 . S
C452 C451 1.369 . S
C452 H455 0.928 . S
C453 N449 1.345 . S
C453 C454 1.371 . S
C453 H456 0.931 . S
C454 C450 1.391 . S
C454 C453 1.371 . S
C454 H461 0.930 . S
H455 C452 0.928 . S
H456 C453 0.931 . S
H457 C433 0.930 . S
H458 C430 0.930 . S
H459 C439 0.930 . S
H460 C451 0.929 . S
H461 C454 0.930 . S
C462 C463 1.351 . S
C462 N465 1.368 . S
C462 H467 0.931 . S
C463 C462 1.351 . S
C463 N464 1.373 . S
C463 H491 0.930 . S
N464 C463 1.373 . S
N464 C466 1.340 . S
N465 C462 1.368 . S
N465 C466 1.321 . S
N465 Co468 2.135 . S
C466 N464 1.340 . S
C466 N465 1.321 . S
C466 H490 0.930 . S
H467 C462 0.931 . S
Co468 N465 2.135 . S
Co468 N471 2.121 . S
Co468 O476 2.055 . S
Co468 O479 2.039 . S
Co468 N482 2.140 . S
C469 O470 1.227 . S
C469 O479 1.265 . S
O470 C469 1.227 . S
N471 Co468 2.121 . S
N471 C473 1.375 . S
N471 C474 1.313 . S
C472 C473 1.338 . S
C472 N475 1.377 . S
C472 H492 0.930 . S
C473 N471 1.375 . S
C473 C472 1.338 . S
C473 H477 0.931 . S
C474 N471 1.313 . S
C474 N475 1.344 . S
C474 H478 0.930 . S
N475 C472 1.377 . S
N475 C474 1.344 . S
O476 Co468 2.055 . S
O476 C480 1.253 . S
H477 C473 0.931 . S
H478 C474 0.930 . S
O479 Co468 2.039 . S
O479 C469 1.265 . S
C480 O476 1.253 . S
C480 O481 1.227 . S
O481 C480 1.227 . S
N482 Co468 2.140 . S
N482 C485 1.346 . S
N482 C486 1.345 . S
C483 C484 1.387 . S
C483 C487 1.391 . S
C484 C483 1.387 . S
C484 C485 1.369 . S
C484 H493 0.929 . S
C485 N482 1.346 . S
C485 C484 1.369 . S
C485 H488 0.928 . S
C486 N482 1.345 . S
C486 C487 1.371 . S
C486 H489 0.931 . S
C487 C483 1.391 . S
C487 C486 1.371 . S
C487 H494 0.930 . S
H488 C485 0.928 . S
H489 C486 0.931 . S
H490 C466 0.930 . S
H491 C463 0.930 . S
H492 C472 0.930 . S
H493 C484 0.929 . S
H494 C487 0.930 . S
C495 C496 1.351 . S
C495 N498 1.368 . S
C495 H500 0.931 . S
C496 C495 1.351 . S
C496 N497 1.373 . S
C496 H524 0.930 . S
N497 C496 1.373 . S
N497 C499 1.340 . S
N498 C495 1.368 . S
N498 C499 1.321 . S
N498 Co501 2.135 . S
C499 N497 1.340 . S
C499 N498 1.321 . S
C499 H523 0.930 . S
H500 C495 0.931 . S
Co501 N498 2.135 . S
Co501 N504 2.121 . S
Co501 O509 2.055 . S
Co501 O512 2.039 . S
Co501 N515 2.140 . S
C502 O503 1.227 . S
C502 O512 1.265 . S
O503 C502 1.227 . S
N504 Co501 2.121 . S
N504 C506 1.375 . S
N504 C507 1.313 . S
C505 C506 1.338 . S
C505 N508 1.377 . S
C505 H525 0.930 . S
C506 N504 1.375 . S
C506 C505 1.338 . S
C506 H510 0.931 . S
C507 N504 1.313 . S
C507 N508 1.344 . S
C507 H511 0.930 . S
N508 C505 1.377 . S
N508 C507 1.344 . S
O509 Co501 2.055 . S
O509 C513 1.253 . S
H510 C506 0.931 . S
H511 C507 0.930 . S
O512 Co501 2.039 . S
O512 C502 1.265 . S
C513 O509 1.253 . S
C513 O514 1.227 . S
O514 C513 1.227 . S
N515 Co501 2.140 . S
N515 C518 1.346 . S
N515 C519 1.345 . S
C516 C517 1.387 . S
C516 C520 1.391 . S
C517 C516 1.387 . S
C517 C518 1.369 . S
C517 H526 0.929 . S
C518 N515 1.346 . S
C518 C517 1.369 . S
C518 H521 0.928 . S
C519 N515 1.345 . S
C519 C520 1.371 . S
C519 H522 0.931 . S
C520 C516 1.391 . S
C520 C519 1.371 . S
C520 H527 0.930 . S
H521 C518 0.928 . S
H522 C519 0.931 . S
H523 C499 0.930 . S
H524 C496 0.930 . S
H525 C505 0.930 . S
H526 C517 0.929 . S
H527 C520 0.930 . S
N2 N464 1.884 . S
N79 N13 2.066 1_665 S
N35 N365 1.885 1_545 S
N244 N46 2.067 1_655 S
N68 N398 1.885 . S
N101 N299 1.884 1_565 S
N112 N178 2.067 1_655 S
N332 N134 1.884 1_556 S
N211 N145 2.067 1_654 S
N167 N497 1.884 . S
N266 N200 1.884 1_554 S
N431 N233 1.884 . S
N277 N343 2.067 1_546 S
N508 N310 2.067 . S
N376 N442 2.067 . S
N409 N475 2.067 . S
C7 C318 1.313 . S
C304 C21 1.313 . S
C40 C285 1.313 . S
C54 C271 1.313 . S
C384 C73 1.313 . S
C370 C87 1.313 . S
C106 C351 1.313 . S
C120 C337 1.313 . S
C139 C450 1.313 . S
C436 C153 1.313 . S
C172 C417 1.313 . S
C403 C186 1.313 . S
C516 C205 1.313 . S
C219 C502 1.313 . S
C238 C483 1.313 . S
C252 C469 1.313 . S
C51 C18 1.213 . S
C84 C117 1.213 . S
C150 C183 1.213 . S
C216 C249 1.213 . S
C315 C282 1.213 . S
C381 C348 1.213 . S
C414 C447 1.213 . S
C513 C480 1.213 . S
