# Generated by pormake.
# Topology why, (6)-cn, num edge types: 1
# Building blocks:
#     Node 0, Type 0, BuildingBlock: CUWYAW_clean_sbu_0, # of connection points: 6
#     Node 1, Type 0, BuildingBlock: CUWYAW_clean_sbu_0, # of connection points: 6
#     Node 2, Type 0, BuildingBlock: CUWYAW_clean_sbu_0, # of connection points: 6
#     Node 3, Type 0, BuildingBlock: CUWYAW_clean_sbu_0, # of connection points: 6
#     Node 4, Type 0, BuildingBlock: CUWYAW_clean_sbu_0, # of connection points: 6
#     Node 5, Type 0, BuildingBlock: CUWYAW_clean_sbu_0, # of connection points: 6
#     Node 6, Type 0, BuildingBlock: CUWYAW_clean_sbu_0, # of connection points: 6
#     Node 7, Type 0, BuildingBlock: CUWYAW_clean_sbu_0, # of connection points: 6
#     Node 8, Type 0, BuildingBlock: CUWYAW_clean_sbu_0, # of connection points: 6
#     Node 9, Type 0, BuildingBlock: CUWYAW_clean_sbu_0, # of connection points: 6
#     Node 10, Type 0, BuildingBlock: CUWYAW_clean_sbu_0, # of connection points: 6
#     Node 11, Type 0, BuildingBlock: CUWYAW_clean_sbu_0, # of connection points: 6
#     Node 12, Type 0, BuildingBlock: CUWYAW_clean_sbu_0, # of connection points: 6
#     Node 13, Type 0, BuildingBlock: CUWYAW_clean_sbu_0, # of connection points: 6
#     Node 14, Type 0, BuildingBlock: CUWYAW_clean_sbu_0, # of connection points: 6
#     Node 15, Type 0, BuildingBlock: CUWYAW_clean_sbu_0, # of connection points: 6
#     Edge 16, Type (0, 0), BuildingBlock: ZUJKAS_clean_linker_0, # of connection points: 2
#     Edge 17, Type (0, 0), BuildingBlock: ZUJKAS_clean_linker_0, # of connection points: 2
#     Edge 18, Type (0, 0), BuildingBlock: ZUJKAS_clean_linker_0, # of connection points: 2
#     Edge 19, Type (0, 0), BuildingBlock: ZUJKAS_clean_linker_0, # of connection points: 2
#     Edge 20, Type (0, 0), BuildingBlock: ZUJKAS_clean_linker_0, # of connection points: 2
#     Edge 21, Type (0, 0), BuildingBlock: ZUJKAS_clean_linker_0, # of connection points: 2
#     Edge 22, Type (0, 0), BuildingBlock: ZUJKAS_clean_linker_0, # of connection points: 2
#     Edge 23, Type (0, 0), BuildingBlock: ZUJKAS_clean_linker_0, # of connection points: 2
#     Edge 24, Type (0, 0), BuildingBlock: ZUJKAS_clean_linker_0, # of connection points: 2
#     Edge 25, Type (0, 0), BuildingBlock: ZUJKAS_clean_linker_0, # of connection points: 2
#     Edge 26, Type (0, 0), BuildingBlock: ZUJKAS_clean_linker_0, # of connection points: 2
#     Edge 27, Type (0, 0), BuildingBlock: ZUJKAS_clean_linker_0, # of connection points: 2
#     Edge 28, Type (0, 0), BuildingBlock: ZUJKAS_clean_linker_0, # of connection points: 2
#     Edge 29, Type (0, 0), BuildingBlock: ZUJKAS_clean_linker_0, # of connection points: 2
#     Edge 30, Type (0, 0), BuildingBlock: ZUJKAS_clean_linker_0, # of connection points: 2
#     Edge 31, Type (0, 0), BuildingBlock: ZUJKAS_clean_linker_0, # of connection points: 2
#     Edge 32, Type (0, 0), BuildingBlock: ZUJKAS_clean_linker_0, # of connection points: 2
#     Edge 33, Type (0, 0), BuildingBlock: ZUJKAS_clean_linker_0, # of connection points: 2
#     Edge 34, Type (0, 0), BuildingBlock: ZUJKAS_clean_linker_0, # of connection points: 2
#     Edge 35, Type (0, 0), BuildingBlock: ZUJKAS_clean_linker_0, # of connection points: 2
#     Edge 36, Type (0, 0), BuildingBlock: ZUJKAS_clean_linker_0, # of connection points: 2
#     Edge 37, Type (0, 0), BuildingBlock: ZUJKAS_clean_linker_0, # of connection points: 2
#     Edge 38, Type (0, 0), BuildingBlock: ZUJKAS_clean_linker_0, # of connection points: 2
#     Edge 39, Type (0, 0), BuildingBlock: ZUJKAS_clean_linker_0, # of connection points: 2
#     Edge 40, Type (0, 0), BuildingBlock: ZUJKAS_clean_linker_0, # of connection points: 2
#     Edge 41, Type (0, 0), BuildingBlock: ZUJKAS_clean_linker_0, # of connection points: 2
#     Edge 42, Type (0, 0), BuildingBlock: ZUJKAS_clean_linker_0, # of connection points: 2
#     Edge 43, Type (0, 0), BuildingBlock: ZUJKAS_clean_linker_0, # of connection points: 2
#     Edge 44, Type (0, 0), BuildingBlock: ZUJKAS_clean_linker_0, # of connection points: 2
#     Edge 45, Type (0, 0), BuildingBlock: ZUJKAS_clean_linker_0, # of connection points: 2
#     Edge 46, Type (0, 0), BuildingBlock: ZUJKAS_clean_linker_0, # of connection points: 2
#     Edge 47, Type (0, 0), BuildingBlock: ZUJKAS_clean_linker_0, # of connection points: 2
#     Edge 48, Type (0, 0), BuildingBlock: ZUJKAS_clean_linker_0, # of connection points: 2
#     Edge 49, Type (0, 0), BuildingBlock: ZUJKAS_clean_linker_0, # of connection points: 2
#     Edge 50, Type (0, 0), BuildingBlock: ZUJKAS_clean_linker_0, # of connection points: 2
#     Edge 51, Type (0, 0), BuildingBlock: ZUJKAS_clean_linker_0, # of connection points: 2
#     Edge 52, Type (0, 0), BuildingBlock: ZUJKAS_clean_linker_0, # of connection points: 2
#     Edge 53, Type (0, 0), BuildingBlock: ZUJKAS_clean_linker_0, # of connection points: 2
#     Edge 54, Type (0, 0), BuildingBlock: ZUJKAS_clean_linker_0, # of connection points: 2
#     Edge 55, Type (0, 0), BuildingBlock: ZUJKAS_clean_linker_0, # of connection points: 2
#     Edge 56, Type (0, 0), BuildingBlock: ZUJKAS_clean_linker_0, # of connection points: 2
#     Edge 57, Type (0, 0), BuildingBlock: ZUJKAS_clean_linker_0, # of connection points: 2
#     Edge 58, Type (0, 0), BuildingBlock: ZUJKAS_clean_linker_0, # of connection points: 2
#     Edge 59, Type (0, 0), BuildingBlock: ZUJKAS_clean_linker_0, # of connection points: 2
#     Edge 60, Type (0, 0), BuildingBlock: ZUJKAS_clean_linker_0, # of connection points: 2
#     Edge 61, Type (0, 0), BuildingBlock: ZUJKAS_clean_linker_0, # of connection points: 2
#     Edge 62, Type (0, 0), BuildingBlock: ZUJKAS_clean_linker_0, # of connection points: 2
#     Edge 63, Type (0, 0), BuildingBlock: ZUJKAS_clean_linker_0, # of connection points: 2
# Relax obj value: 0.347
# Max RMSD: 0.221
# Mean RMSD: 0.221
data_MOF--net-why--node1-CUWYAW_clean_sbu_0--edge1-ZUJKAS_clean_linker_0
_symmetry_space_group_name_H-M    P1
_symmetry_Int_Tables_number       1
_symmetry_cell_setting            triclinic
loop_
_symmetry_equiv_pos_as_xyz
'x, y, z'
_cell_length_a     61.613834
_cell_length_b     61.104329
_cell_length_c     47.761124
_cell_angle_alpha  90.02833
_cell_angle_beta   90.02013
_cell_angle_gamma 90.106846
loop_
_atom_site_label
_atom_site_type_symbol
_atom_site_fract_x
_atom_site_fract_y
_atom_site_fract_z
_atom_type_partial_charge
C0 C 0.42692 0.24196 0.13386 0.0
Eu1 Eu 0.44911 0.23017 0.09016 0.0
C2 C 0.4285 0.26014 0.15405 0.0
C3 C 0.42774 0.28204 0.14515 0.0
C4 C 0.42916 0.29904 0.16458 0.0
C5 C 0.43161 0.29454 0.19329 0.0
C6 C 0.43293 0.27259 0.20202 0.0
C7 C 0.43127 0.25557 0.1826 0.0
C8 C 0.45947 0.25577 0.04613 0.0
C9 C 0.42169 0.2085 0.03782 0.0
C10 C 0.49977 0.18917 0.01246 0.0
Eu11 Eu 0.47321 0.20591 0.04919 0.0
C12 C 0.51342 0.1964 0.98894 0.0
C13 C 0.53349 0.18624 0.98459 0.0
C14 C 0.54613 0.19168 0.96135 0.0
C15 C 0.53887 0.20733 0.94189 0.0
C16 C 0.51905 0.21807 0.94688 0.0
C17 C 0.50644 0.21266 0.97023 0.0
C18 C 0.46066 0.17997 0.09385 0.0
C19 C 0.49868 0.24608 0.08252 0.0
O20 O 0.42132 0.24692 0.10822 0.0
O21 O 0.44254 0.22751 0.13489 0.0
O22 O 0.45766 0.2632 0.07153 0.0
O23 O 0.45395 0.23595 0.0448 0.0
O24 O 0.42093 0.21451 0.06461 0.0
O25 O 0.44089 0.2063 0.02564 0.0
O26 O 0.47878 0.1903 0.00892 0.0
O27 O 0.50583 0.19531 0.03747 0.0
O28 O 0.45964 0.17457 0.0678 0.0
O29 O 0.46834 0.19925 0.09546 0.0
O30 O 0.49827 0.23279 0.06053 0.0
O31 O 0.48192 0.24625 0.09997 0.0
H32 H 0.4258 0.2861 0.12322 0.0
H33 H 0.42768 0.31569 0.1571 0.0
H34 H 0.43511 0.26852 0.22391 0.0
H35 H 0.43212 0.23881 0.18989 0.0
H36 H 0.53922 0.17378 -0.00107 0.0
H37 H 0.56151 0.18342 0.95846 0.0
H38 H 0.51289 0.23008 0.93225 0.0
H39 H 0.49104 0.2208 0.97327 0.0
C40 C 0.67563 0.68076 0.38649 0.0
Eu41 Eu 0.68636 0.7018 0.34141 0.0
C42 C 0.67132 0.6576 0.39222 0.0
C43 C 0.66296 0.64387 0.37122 0.0
C44 C 0.65996 0.6216 0.37642 0.0
C45 C 0.6656 0.61268 0.40252 0.0
C46 C 0.67433 0.62641 0.4233 0.0
C47 C 0.67712 0.64874 0.41818 0.0
C48 C 0.66568 0.70154 0.29154 0.0
C49 C 0.70772 0.67475 0.28932 0.0
C50 C 0.72786 0.7538 0.26543 0.0
Eu51 Eu 0.70994 0.72662 0.30046 0.0
C52 C 0.7219 0.77204 0.24715 0.0
C53 C 0.73833 0.78332 0.23297 0.0
C54 C 0.73308 0.79928 0.21326 0.0
C55 C 0.71126 0.80423 0.20737 0.0
C56 C 0.69481 0.79338 0.22242 0.0
C57 C 0.70011 0.77739 0.24222 0.0
C58 C 0.7358 0.71235 0.34417 0.0
C59 C 0.66994 0.75201 0.33419 0.0
O60 O 0.69575 0.6852 0.37979 0.0
O61 O 0.66151 0.69096 0.37071 0.0
O62 O 0.66567 0.68492 0.30851 0.0
O63 O 0.67541 0.71765 0.30218 0.0
O64 O 0.70262 0.67385 0.31637 0.0
O65 O 0.7094 0.69407 0.27698 0.0
O66 O 0.72018 0.73463 0.25822 0.0
O67 O 0.72694 0.75732 0.29243 0.0
O68 O 0.74018 0.71019 0.31792 0.0
O69 O 0.71717 0.721 0.34632 0.0
O70 O 0.68438 0.75262 0.31346 0.0
O71 O 0.66861 0.73419 0.34999 0.0
H72 H 0.65885 0.65035 0.35078 0.0
H73 H 0.65331 0.61132 0.36003 0.0
H74 H 0.67854 0.61997 0.44372 0.0
H75 H 0.68389 0.65907 0.43445 0.0
H76 H 0.75523 0.77927 0.2365 0.0
H77 H 0.74614 0.80703 0.20176 0.0
H78 H 0.67787 0.79697 0.21853 0.0
H79 H 0.68724 0.76882 0.25313 0.0
C80 C 0.23434 0.92645 0.63404 0.0
Eu81 Eu 0.21443 0.93823 0.58862 0.0
C82 C 0.25712 0.92232 0.6413 0.0
C83 C 0.26225 0.90506 0.65935 0.0
C84 C 0.28385 0.9008 0.66622 0.0
C85 C 0.30064 0.91386 0.65525 0.0
C86 C 0.29547 0.9312 0.6372 0.0
C87 C 0.27387 0.9353 0.63008 0.0
C88 C 0.21513 0.91778 0.5385 0.0
C89 C 0.24177 0.96031 0.53745 0.0
C90 C 0.16467 0.98032 0.51064 0.0
Eu91 Eu 0.1902 0.96225 0.54735 0.0
C92 C 0.14867 0.97439 0.48927 0.0
C93 C 0.13716 0.9911 0.47591 0.0
C94 C 0.12439 0.98645 0.45255 0.0
C95 C 0.12299 0.96497 0.4421 0.0
C96 C 0.13369 0.94802 0.45643 0.0
C97 C 0.14652 0.95273 0.47986 0.0
C98 C 0.20363 0.9881 0.59179 0.0
C99 C 0.16447 0.92187 0.58009 0.0
O100 O 0.2294 0.94679 0.62827 0.0
O101 O 0.22531 0.91242 0.61689 0.0
O102 O 0.23153 0.9178 0.55563 0.0
O103 O 0.19908 0.92745 0.54904 0.0
O104 O 0.24239 0.95523 0.56456 0.0
O105 O 0.22275 0.96162 0.52473 0.0
O106 O 0.18459 0.97423 0.50534 0.0
O107 O 0.15922 0.97766 0.53691 0.0
O108 O 0.20561 0.99294 0.56569 0.0
O109 O 0.19525 0.96917 0.59347 0.0
O110 O 0.16419 0.93638 0.5593 0.0
O111 O 0.18194 0.92053 0.5963 0.0
H112 H 0.24955 0.89487 0.66813 0.0
H113 H 0.28742 0.88747 0.68043 0.0
H114 H 0.30814 0.94137 0.62834 0.0
H115 H 0.27029 0.94859 0.61581 0.0
H116 H 0.13869 1.00791 0.48292 0.0
H117 H 0.11601 0.99976 0.44223 0.0
H118 H 0.13296 0.93135 0.44878 0.0
H119 H 0.15542 0.93965 0.48995 0.0
C120 C 0.98577 0.49007 0.88505 0.0
Eu121 Eu 0.97784 0.4649 0.84227 0.0
C122 C 0.98166 0.51302 0.89246 0.0
C123 C 0.98367 0.5298 0.87253 0.0
C124 C 0.98124 0.55164 0.88054 0.0
C125 C 0.97658 0.55701 0.90851 0.0
C126 C 0.97341 0.54007 0.92802 0.0
C127 C 0.97599 0.51826 0.92005 0.0
C128 C 1.00321 0.45562 0.79779 0.0
C129 C 0.95692 0.49337 0.78993 0.0
C130 C 0.93733 0.41481 0.764 0.0
Eu131 Eu 0.95392 0.44139 0.80102 0.0
C132 C 0.94447 0.40222 0.73948 0.0
C133 C 0.93598 0.38124 0.73515 0.0
C134 C 0.94143 0.36943 0.71116 0.0
C135 C 0.95537 0.37849 0.6909 0.0
C136 C 0.96445 0.3993 0.69578 0.0
C137 C 0.95908 0.41105 0.71991 0.0
C138 C 0.92834 0.45265 0.84626 0.0
C139 C 0.99306 0.41525 0.83462 0.0
O140 O 0.96868 0.47746 0.88337 0.0
O141 O 0.99972 0.48653 0.86496 0.0
O142 O 1.01052 0.45667 0.82331 0.0
O143 O 0.98353 0.46118 0.79665 0.0
O144 O 0.9639 0.49389 0.8163 0.0
O145 O 0.95389 0.47411 0.77778 0.0
O146 O 0.9372 0.43608 0.76152 0.0
O147 O 0.94457 0.40833 0.78831 0.0
O148 O 0.92302 0.45465 0.8203 0.0
O149 O 0.94746 0.44487 0.84748 0.0
O150 O 0.98087 0.4164 0.81174 0.0
O151 O 0.99224 0.43144 0.85311 0.0
H152 H 0.98772 0.52608 0.85098 0.0
H153 H 0.98367 0.56438 0.86508 0.0
H154 H 0.97013 0.54372 0.94981 0.0
H155 H 0.9742 0.50549 0.93563 0.0
H156 H 0.92484 0.37409 0.75016 0.0
H157 H 0.93452 0.35326 0.70835 0.0
H158 H 0.97512 0.40682 0.68054 0.0
H159 H 0.96597 0.4272 0.72295 0.0
C160 C 0.67137 0.97927 0.97517 0.0
Eu161 Eu 0.68918 0.95844 0.9334 0.0
C162 C 0.6576 0.97483 -0.00029 0.0
C163 C 0.63843 0.98686 0.00306 0.0
C164 C 0.62522 0.98351 0.02636 0.0
C165 C 0.63101 0.96816 0.04691 0.0
C166 C 0.65019 0.95601 0.04353 0.0
C167 C 0.66336 0.95925 0.02004 0.0
C168 C 0.69502 0.98049 0.88337 0.0
C169 C 0.66274 0.91862 0.90298 0.0
C170 C 0.73104 0.92117 0.84721 0.0
Eu171 Eu 0.71418 0.93338 0.89445 0.0
C172 C 0.75131 0.92639 0.83224 0.0
C173 C 0.77163 0.9227 0.84468 0.0
C174 C 0.79067 0.92709 0.82992 0.0
C175 C 0.78984 0.93548 0.80251 0.0
C176 C 0.76946 0.93999 0.79056 0.0
C177 C 0.75038 0.93539 0.80526 0.0
C178 C 0.7117 0.91363 0.94466 0.0
C179 C 0.74262 0.95623 0.94184 0.0
O180 O 0.69124 0.97188 0.97558 0.0
O181 O 0.66218 0.97708 0.95071 0.0
O182 O 0.67696 0.9787 0.8968 0.0
O183 O 0.7094 0.96983 0.89661 0.0
O184 O 0.66314 0.93202 0.92491 0.0
O185 O 0.68011 0.91795 0.8864 0.0
O186 O 0.71696 0.93712 0.8492 0.0
O187 O 0.7328 0.90982 0.87034 0.0
O188 O 0.72864 0.91209 0.92852 0.0
O189 O 0.69644 0.9235 0.93257 0.0
O190 O 0.74361 0.94816 0.91615 0.0
O191 O 0.7234 0.96052 0.95319 0.0
H192 H 0.63376 0.99903 0.9877 0.0
H193 H 0.61069 0.99332 0.02861 0.0
H194 H 0.65494 0.94396 0.05898 0.0
H195 H 0.67805 0.94968 0.01791 0.0
H196 H 0.7729 0.91602 0.86562 0.0
H197 H 0.80601 0.92302 0.83967 0.0
H198 H 0.76823 0.9467 0.76964 0.0
H199 H 0.73487 0.93863 0.7954 0.0
C200 C 0.43958 0.41352 0.72433 0.0
Eu201 Eu 0.45565 0.43893 0.68577 0.0
C202 C 0.44731 0.40357 0.75038 0.0
C203 C 0.43239 0.39933 0.77176 0.0
C204 C 0.43935 0.39035 0.79703 0.0
C205 C 0.46139 0.38542 0.80134 0.0
C206 C 0.47634 0.38967 0.77978 0.0
C207 C 0.46939 0.39887 0.75453 0.0
C208 C 0.43027 0.44998 0.64001 0.0
C209 C 0.49561 0.41295 0.65339 0.0
C210 C 0.49257 0.4844 0.60068 0.0
Eu211 Eu 0.48015 0.46283 0.64471 0.0
C212 C 0.51039 0.48178 0.58034 0.0
C213 C 0.53218 0.48397 0.58858 0.0
C214 C 0.54883 0.48163 0.56905 0.0
C215 C 0.54411 0.47689 0.54087 0.0
C216 C 0.52231 0.47414 0.53282 0.0
C217 C 0.50562 0.47667 0.55235 0.0
C218 C 0.50473 0.45315 0.68987 0.0
C219 C 0.45771 0.49114 0.69534 0.0
O220 O 0.43776 0.43478 0.72472 0.0
O221 O 0.44806 0.40622 0.70105 0.0
O222 O 0.42415 0.45007 0.66578 0.0
O223 O 0.44969 0.44303 0.63918 0.0
O224 O 0.48235 0.41361 0.67528 0.0
O225 O 0.49581 0.42958 0.63554 0.0
O226 O 0.4979 0.49002 0.62621 0.0
O227 O 0.47744 0.46936 0.59999 0.0
O228 O 0.51251 0.4544 0.66463 0.0
O229 O 0.4851 0.45885 0.6904 0.0
O230 O 0.46388 0.4915 0.66865 0.0
O231 O 0.45586 0.472 0.70814 0.0
H232 H 0.41532 0.40295 0.76889 0.0
H233 H 0.42737 0.38688 0.81302 0.0
H234 H 0.49338 0.38597 0.78249 0.0
H235 H 0.48119 0.4023 0.73829 0.0
H236 H 0.53643 0.48779 0.61004 0.0
H237 H 0.56538 0.48431 0.57591 0.0
H238 H 0.51811 0.4703 0.51135 0.0
H239 H 0.48895 0.47474 0.54553 0.0
C240 C 1.00098 0.18892 0.47246 0.0
Eu241 Eu 0.97439 0.20515 0.4354 0.0
C242 C 1.01351 0.19642 0.49685 0.0
C243 C 1.03333 0.18634 0.50292 0.0
C244 C 1.04489 0.19211 0.52696 0.0
C245 C 1.03676 0.208 0.54552 0.0
C246 C 1.0172 0.21866 0.5388 0.0
C247 C 1.00569 0.21295 0.51462 0.0
C248 C 0.96235 0.17879 0.39083 0.0
C249 C 0.99959 0.24539 0.40197 0.0
C250 C 0.92694 0.23993 0.35128 0.0
Eu251 Eu 0.95027 0.22892 0.39445 0.0
C252 C 0.92676 0.25832 0.33171 0.0
C253 C 0.94149 0.27571 0.33476 0.0
C254 C 0.94008 0.29398 0.31725 0.0
C255 C 0.92386 0.29507 0.2966 0.0
C256 C 0.90969 0.27718 0.29304 0.0
C257 C 0.91112 0.25897 0.31052 0.0
C258 C 0.96015 0.25479 0.43847 0.0
C259 C 0.92303 0.20707 0.44669 0.0
O260 O 0.9799 0.18871 0.47512 0.0
O261 O 1.00727 0.1961 0.44803 0.0
O262 O 0.96134 0.17352 0.41691 0.0
O263 O 0.96976 0.19816 0.3891 0.0
O264 O 0.99931 0.23211 0.42395 0.0
O265 O 0.98281 0.24545 0.38456 0.0
O266 O 0.92169 0.24469 0.37706 0.0
O267 O 0.9437 0.2269 0.34969 0.0
O268 O 0.95851 0.26206 0.41299 0.0
O269 O 0.95473 0.23494 0.43987 0.0
O270 O 0.92235 0.21265 0.41978 0.0
O271 O 0.9422 0.20555 0.4591 0.0
H272 H 1.0397 0.17371 0.48929 0.0
H273 H 1.06013 0.18393 0.53114 0.0
H274 H 1.01041 0.23089 0.55268 0.0
H275 H 0.99046 0.22106 0.51015 0.0
H276 H 0.95368 0.27538 0.3511 0.0
H277 H 0.9511 0.30757 0.32057 0.0
H278 H 0.89726 0.27744 0.27701 0.0
H279 H 0.89974 0.24559 0.30786 0.0
C280 C 0.22748 0.74937 0.21706 0.0
Eu281 Eu 0.2079 0.72285 0.18242 0.0
C282 C 0.22257 0.76534 0.239 0.0
C283 C 0.23953 0.77792 0.24998 0.0
C284 C 0.23568 0.79247 0.27189 0.0
C285 C 0.21473 0.79472 0.28321 0.0
C286 C 0.19762 0.78225 0.2718 0.0
C287 C 0.20153 0.76765 0.24978 0.0
C288 C 0.23276 0.70863 0.13775 0.0
C289 C 0.16782 0.74906 0.15059 0.0
C290 C 0.16881 0.67535 0.10163 0.0
Eu291 Eu 0.18266 0.69893 0.14338 0.0
C292 C 0.14874 0.67502 0.08525 0.0
C293 C 0.13102 0.68801 0.0932 0.0
C294 C 0.1113 0.68628 0.07894 0.0
C295 C 0.10907 0.67155 0.05651 0.0
C296 C 0.12722 0.65929 0.04793 0.0
C297 C 0.14689 0.66097 0.06228 0.0
C298 C 0.1584 0.71 0.18838 0.0
C299 C 0.20524 0.67123 0.19452 0.0
O300 O 0.22302 0.72898 0.22281 0.0
O301 O 0.22223 0.75476 0.19149 0.0
O302 O 0.23793 0.70719 0.16381 0.0
O303 O 0.21396 0.71707 0.13607 0.0
O304 O 0.18144 0.74865 0.17214 0.0
O305 O 0.16711 0.73203 0.13343 0.0
O306 O 0.16675 0.66958 0.12781 0.0
O307 O 0.1811 0.69263 0.09847 0.0
O308 O 0.15056 0.70832 0.16325 0.0
O309 O 0.17792 0.70401 0.18904 0.0
O310 O 0.19873 0.67052 0.16799 0.0
O311 O 0.2079 0.69058 0.20655 0.0
H312 H 0.25589 0.7762 0.24192 0.0
H313 H 0.24929 0.80148 0.2805 0.0
H314 H 0.18128 0.78372 0.27994 0.0
H315 H 0.18824 0.75799 0.24143 0.0
H316 H 0.13228 0.69905 0.11089 0.0
H317 H 0.0976 0.69583 0.08616 0.0
H318 H 0.12613 0.64811 0.03038 0.0
H319 H 0.1605 0.65097 0.0558 0.0
C320 C 0.92681 0.74516 0.62929 0.0
Eu321 Eu 0.9499 0.72975 0.58831 0.0
C322 C 0.92503 0.76735 0.64103 0.0
C323 C 0.92305 0.7856 0.62329 0.0
C324 C 0.92118 0.80658 0.63448 0.0
C325 C 0.92158 0.80974 0.66357 0.0
C326 C 0.92428 0.7916 0.6813 0.0
C327 C 0.9259 0.77052 0.67008 0.0
C328 C 0.96001 0.75449 0.54308 0.0
C329 C 0.92216 0.70705 0.53736 0.0
C330 C 0.99976 0.68632 0.51364 0.0
Eu331 Eu 0.97327 0.70457 0.54923 0.0
C332 C 1.01271 0.69304 0.48928 0.0
C333 C 1.03224 0.68227 0.48359 0.0
C334 C 1.04425 0.68762 0.45977 0.0
C335 C 1.03685 0.70378 0.44108 0.0
C336 C 1.01753 0.71501 0.44736 0.0
C337 C 1.00559 0.70972 0.4713 0.0
C338 C 0.9602 0.67944 0.59452 0.0
C339 C 0.99935 0.74528 0.58018 0.0
O340 O 0.91933 0.74253 0.60392 0.0
O341 O 0.94537 0.73529 0.63316 0.0
O342 O 0.95829 0.76233 0.56819 0.0
O343 O 0.95446 0.73469 0.54251 0.0
O344 O 0.92165 0.71297 0.56416 0.0
O345 O 0.94131 0.70512 0.52502 0.0
O346 O 0.97872 0.68667 0.51053 0.0
O347 O 1.00596 0.69394 0.53791 0.0
O348 O 0.95878 0.67397 0.56854 0.0
O349 O 0.96829 0.69856 0.59585 0.0
O350 O 0.99865 0.7316 0.55864 0.0
O351 O 0.98274 0.74577 0.59774 0.0
H352 H 0.92276 0.78369 0.60074 0.0
H353 H 0.91922 0.82035 0.62042 0.0
H354 H 0.92442 0.79364 0.70383 0.0
H355 H 0.92765 0.75668 0.68407 0.0
H356 H 1.03807 0.6695 0.49741 0.0
H357 H 1.05928 0.67897 0.4559 0.0
H358 H 1.01125 0.72741 0.43335 0.0
H359 H 0.9906 0.71833 0.47545 0.0
C360 C 0.17546 0.17975 0.8838 0.0
Eu361 Eu 0.1865 0.20194 0.83962 0.0
C362 C 0.1583 0.18213 0.90485 0.0
C363 C 0.13806 0.19105 0.89765 0.0
C364 C 0.1217 0.19279 0.91773 0.0
C365 C 0.12545 0.18595 0.94538 0.0
C366 C 0.146 0.1778 0.95274 0.0
C367 C 0.16228 0.17585 0.93257 0.0
C368 C 0.16075 0.21199 0.79568 0.0
C369 C 0.2079 0.17407 0.78752 0.0
C370 C 0.2263 0.25279 0.76119 0.0
Eu371 Eu 0.21017 0.22605 0.79836 0.0
C372 C 0.21788 0.26641 0.73843 0.0
C373 C 0.23172 0.28136 0.72525 0.0
C374 C 0.22428 0.29382 0.70273 0.0
C375 C 0.20284 0.29147 0.693 0.0
C376 C 0.18889 0.27666 0.7066 0.0
C377 C 0.19634 0.26426 0.72925 0.0
C378 C 0.23631 0.21376 0.84276 0.0
C379 C 0.17065 0.25173 0.83201 0.0
O380 O 0.16916 0.17464 0.85847 0.0
O381 O 0.19042 0.19494 0.88409 0.0
O382 O 0.15366 0.21052 0.82124 0.0
O383 O 0.18039 0.20641 0.79418 0.0
O384 O 0.20181 0.17343 0.81425 0.0
O385 O 0.21013 0.19336 0.77517 0.0
O386 O 0.2247 0.23168 0.75749 0.0
O387 O 0.22106 0.25877 0.78655 0.0
O388 O 0.24141 0.21255 0.81663 0.0
O389 O 0.2172 0.22147 0.84456 0.0
O390 O 0.18351 0.25121 0.80973 0.0
O391 O 0.17079 0.23499 0.84967 0.0
H392 H 0.1348 0.1964 0.87644 0.0
H393 H 0.10603 0.19922 0.91161 0.0
H394 H 0.14921 0.17216 0.97384 0.0
H395 H 0.1779 0.16916 0.93851 0.0
H396 H 0.2484 0.28316 0.73209 0.0
H397 H 0.23551 0.30484 0.69244 0.0
H398 H 0.17228 0.27466 0.69971 0.0
H399 H 0.18541 0.25285 0.73939 0.0
C400 C 0.73814 0.43139 0.13411 0.0
Eu401 Eu 0.71271 0.43829 0.09156 0.0
C402 C 0.76175 0.43036 0.13784 0.0
C403 C 0.77526 0.42273 0.11627 0.0
C404 C 0.79763 0.42108 0.12052 0.0
C405 C 0.80682 0.42731 0.14626 0.0
C406 C 0.79332 0.43585 0.16732 0.0
C407 C 0.77095 0.43731 0.16314 0.0
C408 C 0.70422 0.41205 0.04756 0.0
C409 C 0.74206 0.45815 0.03889 0.0
C410 C 0.66431 0.47763 0.01082 0.0
Eu411 Eu 0.69024 0.46182 0.04898 0.0
C412 C 0.65088 0.46921 0.98783 0.0
C413 C 0.6347 0.48257 0.9765 0.0
C414 C 0.62237 0.47533 0.95378 0.0
C415 C 0.62608 0.45458 0.94195 0.0
C416 C 0.64214 0.44105 0.95369 0.0
C417 C 0.65439 0.44829 0.97658 0.0
C418 C 0.70068 0.48819 0.09404 0.0
C419 C 0.6635 0.42344 0.08349 0.0
O420 O 0.73038 0.45066 0.12785 0.0
O421 O 0.7293 0.41567 0.11943 0.0
O422 O 0.705 0.40499 0.07321 0.0
O423 O 0.70982 0.43187 0.04609 0.0
O424 O 0.7421 0.4499 0.06469 0.0
O425 O 0.72321 0.46276 0.02689 0.0
O426 O 0.68526 0.47581 0.00761 0.0
O427 O 0.658 0.47271 0.03613 0.0
O428 O 0.70314 0.49323 0.06802 0.0
O429 O 0.69286 0.46893 0.09545 0.0
O430 O 0.6654 0.4347 0.05985 0.0
O431 O 0.67897 0.42516 0.10272 0.0
H432 H 0.76849 0.41765 0.09636 0.0
H433 H 0.80769 0.41454 0.10393 0.0
H434 H 0.79994 0.44047 0.1875 0.0
H435 H 0.76076 0.44346 0.17987 0.0
H436 H 0.63182 0.49877 0.98495 0.0
H437 H 0.61036 0.48626 0.94497 0.0
H438 H 0.64524 0.42492 0.94517 0.0
H439 H 0.66677 0.4377 0.98526 0.0
C440 C 0.48476 0.98669 0.38901 0.0
Eu441 Eu 0.47624 0.96695 0.34217 0.0
C442 C 0.48713 1.00972 0.39691 0.0
C443 C 0.49376 1.02538 0.37717 0.0
C444 C 0.49486 1.04746 0.38457 0.0
C445 C 0.48901 1.05421 0.41166 0.0
C446 C 0.48196 1.03851 0.43116 0.0
C447 C 0.48106 1.01641 0.42382 0.0
C448 C 0.49794 0.96901 0.29324 0.0
C449 C 0.45542 0.99453 0.29011 0.0
C450 C 0.43716 0.91659 0.26171 0.0
Eu451 Eu 0.45393 0.94246 0.2993 0.0
C452 C 0.44335 0.90034 0.24066 0.0
C453 C 0.42695 0.89013 0.22516 0.0
C454 C 0.4322 0.87695 0.20234 0.0
C455 C 0.45398 0.87386 0.1945 0.0
C456 C 0.47048 0.88333 0.21093 0.0
C457 C 0.46518 0.89654 0.23388 0.0
C458 C 0.42712 0.955 0.343 0.0
C459 C 0.49383 0.91716 0.33318 0.0
O460 O 0.46514 0.9811 0.38133 0.0
O461 O 0.49985 0.97846 0.37281 0.0
O462 O 0.49748 0.98504 0.31115 0.0
O463 O 0.48819 0.9524 0.30261 0.0
O464 O 0.45991 0.99508 0.31739 0.0
O465 O 0.45452 0.97543 0.27714 0.0
O466 O 0.44349 0.93664 0.25662 0.0
O467 O 0.43908 0.91114 0.28809 0.0
O468 O 0.42282 0.95729 0.31677 0.0
O469 O 0.44594 0.94683 0.34512 0.0
O470 O 0.47966 0.91664 0.31211 0.0
O471 O 0.4947 0.93473 0.34956 0.0
H472 H 0.49802 1.02054 0.35605 0.0
H473 H 0.50027 1.05927 0.36916 0.0
H474 H 0.47768 1.04324 0.45231 0.0
H475 H 0.47559 1.00454 0.43914 0.0
H476 H 0.41002 0.89291 0.23017 0.0
H477 H 0.41915 0.86949 0.19046 0.0
H478 H 0.4874 0.88125 0.20538 0.0
H479 H 0.47802 0.90434 0.24573 0.0
C480 C 0.16635 0.47861 0.47627 0.0
Eu481 Eu 0.19132 0.46141 0.43803 0.0
C482 C 0.15478 0.47195 0.50168 0.0
C483 C 0.14886 0.48807 0.52102 0.0
C484 C 0.13853 0.48229 0.5459 0.0
C485 C 0.1339 0.46024 0.55191 0.0
C486 C 0.13965 0.44408 0.53228 0.0
C487 C 0.15018 0.44989 0.50737 0.0
C488 C 0.20161 0.48678 0.39204 0.0
C489 C 0.16389 0.42298 0.40416 0.0
C490 C 0.23834 0.42869 0.35344 0.0
Eu491 Eu 0.21332 0.43661 0.39607 0.0
C492 C 0.26187 0.42735 0.34925 0.0
C493 C 0.27557 0.4198 0.37066 0.0
C494 C 0.29785 0.41793 0.366 0.0
C495 C 0.30677 0.42382 0.34 0.0
C496 C 0.29311 0.43228 0.31907 0.0
C497 C 0.27081 0.43398 0.32367 0.0
C498 C 0.20413 0.41155 0.44093 0.0
C499 C 0.24319 0.45675 0.44794 0.0
O500 O 0.18746 0.47832 0.47784 0.0
O501 O 0.15912 0.47095 0.45249 0.0
O502 O 0.20402 0.49239 0.41784 0.0
O503 O 0.19381 0.46749 0.39128 0.0
O504 O 0.16587 0.43464 0.42753 0.0
O505 O 0.17945 0.42408 0.38504 0.0
O506 O 0.23088 0.44816 0.35932 0.0
O507 O 0.2295 0.41332 0.36871 0.0
O508 O 0.20484 0.40388 0.41553 0.0
O509 O 0.21029 0.43122 0.44173 0.0
O510 O 0.243 0.44772 0.42259 0.0
O511 O 0.2245 0.46214 0.4598 0.0
H512 H 0.15233 0.50516 0.51691 0.0
H513 H 0.13394 0.49516 0.56032 0.0
H514 H 0.13626 0.427 0.53635 0.0
H515 H 0.15481 0.43721 0.49268 0.0
H516 H 0.26899 0.41498 0.39078 0.0
H517 H 0.30807 0.41146 0.3825 0.0
H518 H 0.29954 0.43668 0.29872 0.0
H519 H 0.26047 0.44007 0.30706 0.0
C520 C 0.93536 0.91532 0.21969 0.0
Eu521 Eu 0.95276 0.94129 0.18258 0.0
C522 C 0.942 0.90418 0.24541 0.0
C523 C 0.92598 0.89688 0.26393 0.0
C524 C 0.9318 0.88687 0.28904 0.0
C525 C 0.95377 0.88401 0.29606 0.0
C526 C 0.96986 0.89127 0.27732 0.0
C527 C 0.96399 0.9014 0.25217 0.0
C528 C 0.92781 0.95199 0.13654 0.0
C529 C 0.99172 0.91456 0.14959 0.0
C530 C 0.98585 0.99041 0.1005 0.0
Eu531 Eu 0.9774 0.96414 0.14191 0.0
C532 C 0.98883 1.01423 0.09745 0.0
C533 C 1.00512 1.02544 0.11226 0.0
C534 C 1.00807 1.04788 0.10845 0.0
C535 C 0.99469 1.05966 0.08995 0.0
C536 C 0.97789 1.04851 0.07595 0.0
C537 C 0.97508 1.026 0.07957 0.0
C538 C 1.00189 0.95536 0.1874 0.0
C539 C 0.95695 0.99336 0.19425 0.0
O540 O 0.93452 0.9366 0.22115 0.0
O541 O 0.94406 0.90842 0.19638 0.0
O542 O 0.92229 0.95441 0.16235 0.0
O543 O 0.94695 0.94419 0.13573 0.0
O544 O 0.97984 0.91623 0.17268 0.0
O545 O 0.9905 0.93029 0.13055 0.0
O546 O 0.96623 0.98391 0.10678 0.0
O547 O 1.00081 0.97969 0.11419 0.0
O548 O 1.00989 0.95676 0.1623 0.0
O549 O 0.98224 0.96091 0.18762 0.0
O550 O 0.96538 0.99367 0.1686 0.0
O551 O 0.95247 0.97416 0.20582 0.0
H552 H 0.90894 0.89897 0.25899 0.0
H553 H 0.91905 0.88111 0.30283 0.0
H554 H 0.98691 0.88937 0.28228 0.0
H555 H 0.97656 0.90714 0.2381 0.0
H556 H 1.01586 1.01685 0.12643 0.0
H557 H 1.02141 1.0558 0.11923 0.0
H558 H 0.9671 1.05711 0.06185 0.0
H559 H 0.96225 1.01773 0.06816 0.0
C560 C 0.49761 0.68193 0.97201 0.0
Eu561 Eu 0.47174 0.70112 0.93643 0.0
C562 C 0.51319 0.68758 -0.00599 0.0
C563 C 0.52475 0.67078 0.00709 0.0
C564 C 0.53904 0.67551 0.02893 0.0
C565 C 0.54202 0.6972 0.03807 0.0
C566 C 0.53052 0.7141 0.02463 0.0
C567 C 0.51622 0.70932 0.00268 0.0
C568 C 0.45857 0.67662 0.89088 0.0
C569 C 0.49809 0.7414 0.90453 0.0
C570 C 0.42598 0.74038 0.85369 0.0
Eu571 Eu 0.44833 0.72706 0.89662 0.0
C572 C 0.42862 0.75797 0.83321 0.0
C573 C 0.44625 0.77249 0.83499 0.0
C574 C 0.44824 0.78969 0.81587 0.0
C575 C 0.43262 0.79255 0.79472 0.0
C576 C 0.41517 0.77768 0.79292 0.0
C577 C 0.41323 0.76052 0.81199 0.0
C578 C 0.45905 0.75073 0.94247 0.0
C579 C 0.42009 0.70387 0.94697 0.0
O580 O 0.47732 0.68643 0.97727 0.0
O581 O 0.50319 0.68674 0.94636 0.0
O582 O 0.45698 0.67085 0.91675 0.0
O583 O 0.46677 0.69572 0.8899 0.0
O584 O 0.49727 0.72798 0.92639 0.0
O585 O 0.48154 0.74193 0.88683 0.0
O586 O 0.42208 0.74664 0.87935 0.0
O587 O 0.4403 0.72466 0.85233 0.0
O588 O 0.4577 0.7592 0.91757 0.0
O589 O 0.45288 0.73111 0.94226 0.0
O590 O 0.41971 0.71112 0.92072 0.0
O591 O 0.43911 0.70063 0.95927 0.0
H592 H 0.52249 0.65391 0.00068 0.0
H593 H 0.54733 0.66208 0.03913 0.0
H594 H 0.53259 0.73097 0.03106 0.0
H595 H 0.5074 0.72249 -0.00734 0.0
H596 H 0.4583 0.77066 0.85133 0.0
H597 H 0.46188 0.8008 0.81773 0.0
H598 H 0.40259 0.77968 0.77729 0.0
H599 H 0.39951 0.74946 0.81045 0.0
C600 C 0.72949 0.25103 0.72383 0.0
Eu601 Eu 0.71295 0.22412 0.68721 0.0
C602 C 0.72193 0.26374 0.74803 0.0
C603 C 0.73089 0.28444 0.75296 0.0
C604 C 0.72492 0.29636 0.77664 0.0
C605 C 0.70999 0.2877 0.796 0.0
C606 C 0.70042 0.26722 0.79043 0.0
C607 C 0.7063 0.25536 0.76658 0.0
C608 C 0.73882 0.21172 0.64254 0.0
C609 C 0.67298 0.2497 0.65449 0.0
C610 C 0.67635 0.17642 0.60468 0.0
Eu611 Eu 0.68896 0.19999 0.64704 0.0
C612 C 0.65668 0.17623 0.58758 0.0
C613 C 0.63988 0.19114 0.59299 0.0
C614 C 0.62032 0.18963 0.57834 0.0
C615 C 0.61732 0.17315 0.55818 0.0
C616 C 0.63457 0.15883 0.55213 0.0
C617 C 0.65409 0.16034 0.5668 0.0
C618 C 0.66377 0.21002 0.69162 0.0
C619 C 0.71117 0.17249 0.69848 0.0
O620 O 0.72969 0.22978 0.72663 0.0
O621 O 0.7224 0.25726 0.69933 0.0
O622 O 0.74405 0.21064 0.66861 0.0
O623 O 0.71967 0.2193 0.6408 0.0
O624 O 0.68612 0.24923 0.67649 0.0
O625 O 0.67296 0.23291 0.63693 0.0
O626 O 0.6736 0.17058 0.63073 0.0
O627 O 0.68872 0.19371 0.60212 0.0
O628 O 0.65634 0.20851 0.66625 0.0
O629 O 0.68338 0.20442 0.69263 0.0
O630 O 0.70593 0.17194 0.67147 0.0
O631 O 0.71229 0.19176 0.71107 0.0
H632 H 0.74277 0.29126 0.73868 0.0
H633 H 0.73221 0.3123 0.77993 0.0
H634 H 0.68896 0.26001 0.80495 0.0
H635 H 0.69901 0.23946 0.76298 0.0
H636 H 0.6417 0.20353 0.60906 0.0
H637 H 0.60728 0.20079 0.58355 0.0
H638 H 0.63284 0.14621 0.53635 0.0
H639 H 0.66697 0.1488 0.56236 0.0
H640 H 0.49955 0.28373 0.11505 0.0
H641 H 0.52643 0.31334 0.11553 0.0
H642 H 0.56558 0.27768 0.05638 0.0
H643 H 0.53821 0.24859 0.05487 0.0
H644 H 0.56523 0.32003 0.13038 0.0
H645 H 0.5677 0.33334 0.01633 0.0
H646 H 0.5482 0.31525 0.03225 0.0
H647 H 0.57532 0.30585 0.02469 0.0
C648 C 0.5139 0.28207 0.10215 0.0
C649 C 0.51641 0.26344 0.0849 0.0
C650 C 0.52943 0.29923 0.10238 0.0
C651 C 0.54825 0.29856 0.08545 0.0
C652 C 0.5511 0.27953 0.06896 0.0
H653 H 0.62559 0.41919 0.05272 0.0
H654 H 0.5981 0.39021 0.05444 0.0
C655 C 0.53542 0.26253 0.06841 0.0
C656 C 0.56478 0.31744 0.08545 0.0
H657 H 0.5958 0.35048 0.04276 0.0
C658 C 0.57175 0.32664 0.11108 0.0
C659 C 0.57339 0.32697 0.06055 0.0
C660 C 0.56559 0.32002 0.03193 0.0
C661 C 0.58684 0.3443 0.11256 0.0
C662 C 0.59637 0.35301 0.08772 0.0
C663 C 0.58914 0.34403 0.06207 0.0
C664 C 0.61329 0.37157 0.08765 0.0
C665 C 0.59166 0.35391 0.14099 0.0
C666 C 0.63159 0.37153 0.10559 0.0
C667 C 0.64723 0.38861 0.10508 0.0
C668 C 0.6456 0.40627 0.08613 0.0
C669 C 0.62752 0.40619 0.06791 0.0
C670 C 0.6117 0.38932 0.06876 0.0
H671 H 0.57803 0.35107 0.15579 0.0
H672 H 0.60623 0.34582 0.14986 0.0
H673 H 0.59471 0.37179 0.13976 0.0
H674 H 0.6342 0.35797 0.11972 0.0
H675 H 0.66104 0.38755 0.11903 0.0
H676 H 0.66728 0.79174 0.30611 0.0
H677 H 0.63841 0.8193 0.30769 0.0
H678 H 0.60356 0.77999 0.36759 0.0
H679 H 0.63274 0.75292 0.36689 0.0
H680 H 0.59852 0.82097 0.29334 0.0
H681 H 0.59649 0.83576 0.40717 0.0
H682 H 0.61756 0.81973 0.39102 0.0
H683 H 0.59172 0.80747 0.39944 0.0
C684 C 0.6537 0.78908 0.32009 0.0
C685 C 0.65287 0.76997 0.33673 0.0
C686 C 0.63692 0.80495 0.32085 0.0
C687 C 0.61849 0.80243 0.33822 0.0
C688 C 0.61761 0.78321 0.35465 0.0
H689 H 0.53096 0.91625 0.36617 0.0
H690 H 0.56033 0.88925 0.36673 0.0
C691 C 0.63447 0.76746 0.35411 0.0
C692 C 0.60009 0.81937 0.3383 0.0
H693 H 0.56641 0.84946 0.38114 0.0
C694 C 0.59166 0.82717 0.31267 0.0
C695 C 0.59089 0.82824 0.36323 0.0
C696 C 0.59978 0.82256 0.39174 0.0
C697 C 0.5746 0.84283 0.31125 0.0
C698 C 0.56468 0.85088 0.33618 0.0
C699 C 0.57337 0.84337 0.3618 0.0
C700 C 0.54591 0.86739 0.33621 0.0
C701 C 0.56798 0.85109 0.28274 0.0
C702 C 0.52716 0.86451 0.31949 0.0
C703 C 0.51025 0.88022 0.31896 0.0
C704 C 0.51105 0.89934 0.3356 0.0
C705 C 0.52941 0.90186 0.35308 0.0
C706 C 0.54643 0.88626 0.35337 0.0
H707 H 0.58133 0.84927 0.26729 0.0
H708 H 0.55399 0.84134 0.27505 0.0
H709 H 0.56321 0.86859 0.28349 0.0
H710 H 0.52547 0.84999 0.3067 0.0
H711 H 0.49653 0.87739 0.30524 0.0
H712 H 0.12783 0.91643 0.5469 0.0
H713 H 0.10075 0.88697 0.54783 0.0
H714 H 0.13286 0.85834 0.61899 0.0
H715 H 0.16017 0.88754 0.61786 0.0
H716 H 1.07058 0.87261 0.58337 0.0
H717 H 0.12922 0.80503 0.57071 0.0
H718 H 0.1348 0.82146 0.601 0.0
H719 H 0.13696 0.83332 0.5666 0.0
C720 C 0.12916 0.90398 0.56293 0.0
C721 C 0.14652 0.90471 0.5823 0.0
C722 C 0.11352 0.88693 0.5634 0.0
C723 C 0.11462 0.86971 0.58309 0.0
C724 C 0.13161 0.87077 0.60294 0.0
H725 H 1.0349 0.75175 0.54539 0.0
H726 H 1.06191 0.78132 0.54627 0.0
C727 C 0.14726 0.88781 0.60248 0.0
C728 C 0.09805 0.85095 0.58287 0.0
H729 H 0.09298 0.79476 0.58164 0.0
C730 C 1.07562 0.85562 0.583 0.0
C731 C 0.10408 0.82846 0.58185 0.0
C732 C 0.12755 0.8217 0.57974 0.0
C733 C 1.05947 0.83891 0.5827 0.0
C734 C 1.06552 0.81642 0.58273 0.0
C735 C 0.08794 0.81175 0.58203 0.0
C736 C 1.04897 0.79766 0.58282 0.0
C737 C 1.03596 0.84568 0.58153 0.0
C738 C 1.03251 0.79609 0.60334 0.0
C739 C 1.01694 0.77898 0.60293 0.0
C740 C 1.01721 0.76255 0.58209 0.0
C741 C 1.03397 0.76383 0.56194 0.0
C742 C 1.04956 0.78094 0.56239 0.0
H743 H 1.03411 0.86256 0.57324 0.0
H744 H 1.02634 0.83436 0.56821 0.0
H745 H 1.02909 0.84538 0.603 0.0
H746 H 1.03166 0.80815 0.61991 0.0
H747 H 1.00446 0.77884 0.61888 0.0
H748 H 0.99692 0.37654 0.80468 0.0
H749 H 1.02602 0.34927 0.80605 0.0
H750 H 1.05905 0.38719 0.86915 0.0
H751 H 1.02947 0.41383 0.86879 0.0
H752 H 1.06547 0.34767 0.79306 0.0
H753 H 1.06687 0.33102 0.9064 0.0
H754 H 1.04585 0.34728 0.89056 0.0
H755 H 1.07159 0.35946 0.89977 0.0
C756 C 1.01014 0.37892 0.81932 0.0
C757 C 1.0103 0.39746 0.83702 0.0
C758 C 1.02706 0.36323 0.81997 0.0
C759 C 1.04506 0.36541 0.83816 0.0
C760 C 1.04532 0.38415 0.85558 0.0
H761 H 0.13378 0.25242 0.86533 0.0
H762 H 0.10416 0.27911 0.86603 0.0
C763 C 1.02823 0.39966 0.85525 0.0
C764 C 1.06365 0.34865 0.83804 0.0
H765 H 0.09738 0.31826 0.88044 0.0
C766 C 1.07226 0.34126 0.81231 0.0
C767 C 1.07277 0.33947 0.86283 0.0
C768 C 1.06364 0.34452 0.8914 0.0
C769 C 0.08938 0.32568 0.81065 0.0
C770 C 0.09929 0.31741 0.83547 0.0
C771 C 0.09045 0.32453 0.86119 0.0
C772 C 0.11819 0.30102 0.8353 0.0
C773 C 0.096 0.31771 0.782 0.0
C774 C 0.13679 0.30401 0.81835 0.0
C775 C 0.15381 0.28842 0.81767 0.0
C776 C 0.15332 0.26941 0.83449 0.0
C777 C 0.13511 0.26679 0.85217 0.0
C778 C 0.11795 0.28221 0.85254 0.0
H779 H 1.08257 0.3195 0.76665 0.0
H780 H 0.10984 0.3277 0.77436 0.0
H781 H 0.10096 0.30026 0.78246 0.0
H782 H 0.13831 0.3185 0.80551 0.0
H783 H 0.1674 0.29129 0.80377 0.0
H784 H 0.62324 0.91615 0.93069 0.0
H785 H 0.59584 0.88701 0.92926 0.0
H786 H 0.63514 0.85131 0.87033 0.0
H787 H 0.66198 0.88085 0.87073 0.0
H788 H 0.5935 0.84745 0.94427 0.0
H789 H 0.5805 0.8431 0.83026 0.0
H790 H 0.60841 0.83833 0.83862 0.0
H791 H 0.59637 0.8646 0.84603 0.0
C792 C 0.62592 0.90231 0.91695 0.0
C793 C 0.64494 0.90136 0.90047 0.0
C794 C 0.61015 0.88539 0.91628 0.0
C795 C 0.61271 0.86663 0.89923 0.0
C796 C 0.63187 0.86561 0.88298 0.0
H797 H 0.50028 0.77791 0.87024 0.0
H798 H 0.52721 0.80741 0.8698 0.0
C799 C 0.64749 0.88267 0.88335 0.0
C800 C 0.59586 0.84806 0.89932 0.0
H801 H 0.56663 0.81318 0.85686 0.0
C802 C 0.58765 0.84013 0.92501 0.0
C803 C 0.58742 0.83827 0.87448 0.0
C804 C 0.59344 0.84667 0.84582 0.0
C805 C 0.57197 0.82302 0.92661 0.0
C806 C 0.56441 0.81246 0.90182 0.0
C807 C 0.57235 0.82062 0.87611 0.0
C808 C 0.54788 0.79361 0.90192 0.0
C809 C 0.56315 0.8171 0.95508 0.0
C810 C 0.5501 0.77516 0.9196 0.0
C811 C 0.53437 0.75819 0.92011 0.0
C812 C 0.51597 0.7586 0.90245 0.0
C813 C 0.51413 0.77665 0.8841 0.0
C814 C 0.5297 0.79374 0.88387 0.0
H815 H 0.56472 0.83096 0.97003 0.0
H816 H 0.54578 0.81231 0.95396 0.0
H817 H 0.57258 0.8032 0.9637 0.0
H818 H 0.56409 0.77375 0.93315 0.0
H819 H 0.53662 0.74472 0.93454 0.0
H820 H 0.52895 0.4081 0.61469 0.0
H821 H 0.55817 0.38086 0.61371 0.0
H822 H 0.53178 0.35042 0.68754 0.0
H823 H 0.50243 0.37741 0.68843 0.0
H824 H 0.59076 0.37122 0.64892 0.0
H825 H 0.54021 0.29669 0.64058 0.0
H826 H 0.52914 0.32375 0.63578 0.0
H827 H 0.53341 0.31308 0.67048 0.0
C828 C 0.52907 0.39544 0.63054 0.0
C829 C 0.51279 0.39506 0.65139 0.0
C830 C 0.54604 0.37979 0.63006 0.0
C831 C 0.54742 0.36295 0.65025 0.0
C832 C 0.53117 0.3626 0.67112 0.0
H833 H 0.63911 0.25355 0.61633 0.0
H834 H 0.60982 0.28072 0.61494 0.0
C835 C 0.51424 0.37827 0.67167 0.0
C836 C 0.56603 0.34634 0.6499 0.0
H837 H 0.57765 0.29119 0.65052 0.0
C838 C 0.58775 0.35374 0.64922 0.0
C839 C 0.56267 0.32327 0.64988 0.0
C840 C 0.54012 0.31367 0.64893 0.0
C841 C 0.60573 0.33913 0.64909 0.0
C842 C 0.60238 0.31608 0.65002 0.0
C843 C 0.58066 0.30867 0.65012 0.0
C844 C 0.62101 0.29949 0.65059 0.0
C845 C 0.62826 0.34871 0.64726 0.0
C846 C 0.63752 0.30034 0.6711 0.0
C847 C 0.65449 0.28472 0.67187 0.0
C848 C 0.65571 0.26748 0.65218 0.0
C849 C 0.63917 0.26659 0.63169 0.0
C850 C 0.62215 0.28219 0.63099 0.0
H851 H 0.62804 0.36547 0.63827 0.0
H852 H 0.63527 0.34982 0.66862 0.0
H853 H 0.63905 0.33832 0.63425 0.0
H854 H 0.6371 0.3129 0.68707 0.0
H855 H 0.66651 0.286 0.68833 0.0
H856 H 1.03959 0.24758 0.42854 0.0
H857 H 1.06686 0.27683 0.42703 0.0
H858 H 1.02604 0.31355 0.37089 0.0
H859 H 0.99938 0.28385 0.37124 0.0
H860 H 1.06987 0.31575 0.44315 0.0
H861 H 1.07932 0.32316 0.32884 0.0
H862 H 1.05168 0.32772 0.33877 0.0
H863 H 1.06391 0.30126 0.3444 0.0
C864 C 1.03655 0.26167 0.41538 0.0
C865 C 1.01721 0.26283 0.39956 0.0
C866 C 1.05225 0.27867 0.41466 0.0
C867 C 1.04925 0.29773 0.39832 0.0
C868 C 1.02969 0.299 0.38288 0.0
H869 H 0.16049 0.38789 0.3675 0.0
H870 H 0.13358 0.3583 0.36684 0.0
C871 C 1.01417 0.28185 0.38322 0.0
C872 C 1.06608 0.31634 0.39835 0.0
H873 H 0.09392 0.35243 0.35604 0.0
C874 C 1.07511 0.32358 0.42394 0.0
C875 C 1.07373 0.32682 0.37355 0.0
C876 C 1.06684 0.31919 0.34485 0.0
C877 C 0.09085 0.34063 0.42549 0.0
C878 C 0.09761 0.3519 0.40084 0.0
C879 C 0.08884 0.34444 0.37521 0.0
C880 C 0.11408 0.37082 0.40098 0.0
C881 C 0.10062 0.3457 0.45374 0.0
C882 C 0.11247 0.38861 0.41984 0.0
C883 C 0.12819 0.40557 0.42048 0.0
C884 C 0.14593 0.40589 0.40176 0.0
C885 C 0.14712 0.38858 0.38219 0.0
C886 C 0.13158 0.37143 0.38185 0.0
H887 H 0.09964 0.33136 0.46798 0.0
H888 H 0.11791 0.35063 0.4519 0.0
H889 H 0.09143 0.35924 0.46363 0.0
H890 H 0.09896 0.3895 0.43426 0.0
H891 H 0.12644 0.41847 0.43587 0.0
H892 H 0.16556 0.78919 0.17805 0.0
H893 H 0.13679 0.81689 0.17618 0.0
H894 H 0.10094 0.77649 0.11838 0.0
H895 H 0.13008 0.74944 0.11915 0.0
H896 H 0.09772 0.82017 0.19099 0.0
H897 H 0.09289 0.83059 0.07663 0.0
H898 H 0.08795 0.80265 0.08594 0.0
H899 H 0.11414 0.81482 0.09277 0.0
C900 C 0.15176 0.78634 0.16447 0.0
C901 C 0.1507 0.76699 0.1483 0.0
C902 C 0.13504 0.80229 0.16352 0.0
C903 C 0.11638 0.79956 0.14657 0.0
C904 C 0.11519 0.77997 0.13084 0.0
H905 H 1.02727 0.91173 0.11392 0.0
H906 H 1.0568 0.88487 0.11389 0.0
C907 C 0.13204 0.76421 0.13144 0.0
C908 C 0.09807 0.81664 0.14615 0.0
H909 H 1.06322 0.84499 0.10289 0.0
C910 C 0.09037 0.82557 0.17157 0.0
C911 C 0.08822 0.82455 0.12109 0.0
C912 C 0.09638 0.81784 0.09259 0.0
C913 C 1.07343 0.84139 0.17269 0.0
C914 C 1.06276 0.84837 0.14773 0.0
C915 C 1.07072 0.83974 0.12229 0.0
C916 C 1.04389 0.86483 0.14741 0.0
C917 C 1.06781 0.85101 0.20087 0.0
C918 C 1.0259 0.86292 0.16565 0.0
C919 C 1.00897 0.87861 0.16592 0.0
C920 C 1.00888 0.89665 0.14742 0.0
C921 C 1.02641 0.89815 0.12842 0.0
C922 C 1.04352 0.88262 0.12846 0.0
H923 H 1.08176 0.85002 0.21557 0.0
H924 H 1.06288 0.86841 0.19908 0.0
H925 H 1.05424 0.84155 0.21021 0.0
H926 H 1.02481 0.8492 0.17987 0.0
H927 H 0.9959 0.87659 0.18086 0.0
H928 H 0.2786 0.20132 0.83751 0.0
H929 H 0.30745 0.20033 0.87247 0.0
H930 H 0.26261 0.22287 0.93532 0.0
H931 H 0.23334 0.22365 0.90004 0.0
H932 H 0.32623 0.23193 0.90238 0.0
H933 H 0.29037 0.17326 0.97782 0.0
H934 H 0.27918 0.17742 0.94331 0.0
H935 H 0.27376 0.19674 0.97083 0.0
C936 C 0.27468 0.20596 0.8588 0.0
C937 C 0.25337 0.21254 0.86566 0.0
C938 C 0.29139 0.20542 0.87896 0.0
C939 C 0.2876 0.21127 0.90705 0.0
C940 C 0.26624 0.21777 0.91414 0.0
H941 H 0.3789 0.21789 0.05237 0.0
H942 H 0.34669 0.21891 0.02193 0.0
C943 C 0.24939 0.21836 0.8938 0.0
C944 C 0.30628 0.21115 0.92809 0.0
H945 H 0.32368 0.18972 0.9909 0.0
C946 C 0.32554 0.22263 0.92169 0.0
C947 C 0.30583 0.19922 0.95367 0.0
C948 C 0.28629 0.18579 0.96182 0.0
C949 C 0.34389 0.22263 0.93968 0.0
C950 C 0.34365 0.21031 0.96497 0.0
C951 C 0.32427 0.19913 0.97167 0.0
C952 C 0.36336 0.20869 0.98427 0.0
C953 C 0.36324 0.23638 0.93154 0.0
C954 C 0.38378 0.20199 0.97404 0.0
C955 C 0.4023 0.20141 0.99149 0.0
C956 C 0.40121 0.20725 0.02008 0.0
C957 C 0.38062 0.21322 0.03061 0.0
C958 C 0.36205 0.21384 0.01306 0.0
H959 H 0.35853 0.24993 0.91727 0.0
H960 H 0.37132 0.24353 0.95021 0.0
H961 H 0.37514 0.22599 0.92028 0.0
H962 H 0.38552 0.19723 0.95233 0.0
H963 H 0.41764 0.1966 0.98233 0.0
H964 H 0.68942 0.48555 0.151 0.0
H965 H 0.69023 0.51527 0.18622 0.0
H966 H 0.71552 0.55951 0.12407 0.0
H967 H 0.71458 0.53035 0.08927 0.0
H968 H 0.7233 0.54241 0.20817 0.0
H969 H 0.66431 0.59443 0.15213 0.0
H970 H 0.66851 0.56607 0.14312 0.0
H971 H 0.68685 0.58681 0.13049 0.0
C972 C 0.69514 0.50161 0.14486 0.0
C973 C 0.70171 0.50538 0.11695 0.0
C974 C 0.69563 0.5187 0.1651 0.0
C975 C 0.70249 0.54012 0.158 0.0
C976 C 0.70956 0.54356 0.13033 0.0
H977 H 0.71763 0.67049 0.23319 0.0
H978 H 0.71652 0.63777 0.20367 0.0
C979 C 0.70913 0.52664 0.1103 0.0
C980 C 0.70243 0.55894 0.17899 0.0
H981 H 0.68455 0.61174 0.18842 0.0
C982 C 0.71461 0.55746 0.20392 0.0
C983 C 0.69123 0.57889 0.1739 0.0
C984 C 0.67681 0.58164 0.14861 0.0
C985 C 0.71655 0.5753 0.22296 0.0
C986 C 0.70563 0.59541 0.21759 0.0
C987 C 0.69314 0.59667 0.19289 0.0
C988 C 0.70719 0.61542 0.23669 0.0
C989 C 0.73108 0.57263 0.24813 0.0
C990 C 0.70234 0.61442 0.26559 0.0
C991 C 0.70314 0.63332 0.28277 0.0
C992 C 0.70866 0.65404 0.27171 0.0
C993 C 0.71351 0.65499 0.24283 0.0
C994 C 0.71276 0.63612 0.22572 0.0
H995 H 0.74305 0.55927 0.24504 0.0
H996 H 0.74002 0.588 0.25281 0.0
H997 H 0.72101 0.56837 0.2666 0.0
H998 H 0.69737 0.59906 0.27488 0.0
H999 H 0.69891 0.63175 0.30468 0.0
H1000 H 0.42931 0.94423 0.3999 0.0
H1001 H 0.39968 0.94497 0.43474 0.0
H1002 H 0.35599 0.96958 0.37183 0.0
H1003 H 0.38517 0.96867 0.3373 0.0
H1004 H 0.37278 0.9778 0.45629 0.0
H1005 H 0.32139 0.91798 0.4001 0.0
H1006 H 0.34948 0.92247 0.39108 0.0
H1007 H 0.32881 0.94083 0.37856 0.0
C1008 C 0.41339 0.9498 0.3935 0.0
C1009 C 0.40979 0.95619 0.36548 0.0
C1010 C 0.39634 0.95024 0.41352 0.0
C1011 C 0.37512 0.95687 0.40613 0.0
C1012 C 0.3718 0.96379 0.37832 0.0
H1013 H 0.24601 0.97061 0.48156 0.0
H1014 H 0.27841 0.96993 0.45209 0.0
C1015 C 0.38872 0.9634 0.35845 0.0
C1016 C 0.35642 0.95671 0.42704 0.0
H1017 H 0.30427 0.93799 0.43666 0.0
C1018 C 0.3579 0.96891 0.45205 0.0
C1019 C 0.33672 0.9452 0.42198 0.0
C1020 C 0.33401 0.93071 0.39663 0.0
C1021 C 0.34029 0.97056 0.47121 0.0
C1022 C 0.32044 0.95932 0.46589 0.0
C1023 C 0.31917 0.94682 0.4411 0.0
C1024 C 0.30064 0.96062 0.48505 0.0
C1025 C 0.34293 0.98511 0.49649 0.0
C1026 C 0.30169 0.95565 0.51394 0.0
C1027 C 0.28294 0.9562 0.53113 0.0
C1028 C 0.26237 0.96157 0.52005 0.0
C1029 C 0.26139 0.96656 0.49121 0.0
C1030 C 0.28009 0.96607 0.47411 0.0
H1031 H 0.3561 0.99732 0.49345 0.0
H1032 H 0.32765 0.99397 0.50128 0.0
H1033 H 0.34725 0.97491 0.51487 0.0
H1034 H 0.31696 0.95078 0.5232 0.0
H1035 H 0.28451 0.95188 0.55302 0.0
H1036 H 0.97241 0.68221 0.65108 0.0
H1037 H 0.97217 0.6526 0.68637 0.0
H1038 H 0.94504 0.60845 0.62532 0.0
H1039 H 0.94544 0.63753 0.59041 0.0
H1040 H 0.93968 0.62572 0.70977 0.0
H1041 H 0.9968 0.57334 0.65108 0.0
H1042 H 0.99246 0.6017 0.64222 0.0
H1043 H 0.9737 0.58101 0.63048 0.0
C1044 C 0.96636 0.66621 0.64522 0.0
C1045 C 0.95915 0.66242 0.61757 0.0
C1046 C 0.96622 0.64917 0.66548 0.0
C1047 C 0.95906 0.6278 0.65867 0.0
C1048 C 0.95126 0.62436 0.63131 0.0
H1049 H 0.94503 0.49781 0.73454 0.0
H1050 H 0.94545 0.53053 0.70507 0.0
C1051 C 0.95137 0.64123 0.61123 0.0
C1052 C 0.9596 0.60902 0.67964 0.0
H1053 H 0.97751 0.55617 0.6883 0.0
C1054 C 0.94817 0.61062 0.70513 0.0
C1055 C 0.97057 0.58902 0.67405 0.0
C1056 C 0.98426 0.58617 0.64812 0.0
C1057 C 0.94673 0.59283 0.72428 0.0
C1058 C 0.95738 0.57268 0.7184 0.0
C1059 C 0.96913 0.5713 0.69314 0.0
C1060 C 0.95626 0.55272 0.73754 0.0
C1061 C 0.933 0.59561 0.75017 0.0
C1062 C 0.96216 0.55366 0.76612 0.0
C1063 C 0.96179 0.53475 0.78329 0.0
C1064 C 0.95568 0.51411 0.77249 0.0
C1065 C 0.94971 0.51324 0.74395 0.0
C1066 C 0.95004 0.53211 0.72687 0.0
H1067 H 0.92108 0.60909 0.74773 0.0
H1068 H 0.92406 0.58032 0.75522 0.0
H1069 H 0.94367 0.59972 0.76814 0.0
H1070 H 0.9676 0.56897 0.77514 0.0
H1071 H 0.96677 0.53627 0.80494 0.0
H1072 H 0.78489 0.94477 0.92814 0.0
H1073 H 0.81703 0.94385 0.9585 0.0
H1074 H 0.77925 0.97012 0.02648 0.0
H1075 H 0.74704 0.97066 -0.00353 0.0
H1076 H 0.84121 0.97331 0.98702 0.0
H1077 H 0.80431 0.91794 0.0651 0.0
H1078 H 0.79162 0.92343 0.03182 0.0
H1079 H 0.78875 0.94242 0.06044 0.0
C1080 C 0.78336 0.95051 0.9495 0.0
C1081 C 0.76304 0.95777 0.95958 0.0
C1082 C 0.80191 0.94993 0.96701 0.0
C1083 C 0.80085 0.95641 -0.00465 0.0
C1084 C 0.78073 0.96436 0.00513 0.0
H1085 H 0.88633 0.96672 0.14036 0.0
H1086 H 0.85761 0.96732 0.10536 0.0
C1087 C 0.76219 0.96491 0.98769 0.0
C1088 C 0.82057 0.95479 0.01458 0.0
H1089 H 0.83757 0.93493 0.07827 0.0
C1090 C 0.84038 0.96475 0.00686 0.0
C1091 C 0.82 0.94352 0.04063 0.0
C1092 C 0.80012 0.93102 0.0499 0.0
C1093 C 0.85896 0.96451 0.02459 0.0
C1094 C 0.85818 0.95367 0.05092 0.0
C1095 C 0.8385 0.94338 0.05834 0.0
C1096 C 0.87692 0.95375 0.07183 0.0
C1097 C 0.87904 0.97661 0.01531 0.0
C1098 C 0.89797 0.94595 0.0653 0.0
C1099 C 0.9148 0.94559 0.0857 0.0
C1100 C 0.91105 0.95293 0.11329 0.0
C1101 C 0.89007 0.96085 0.11952 0.0
C1102 C 0.87342 0.96118 0.09934 0.0
H1103 H 0.87547 0.98847 -0.0017 0.0
H1104 H 0.88656 0.98557 0.03308 0.0
H1105 H 0.89106 0.96467 0.00723 0.0
H1106 H 0.90133 0.93967 0.04457 0.0
H1107 H 0.93058 0.93925 0.07998 0.0
H1108 H 0.47011 0.6802 0.8342 0.0
H1109 H 0.46889 0.65125 0.79804 0.0
H1110 H 0.44391 0.60585 0.85906 0.0
H1111 H 0.44466 0.63443 0.89457 0.0
H1112 H 0.48894 0.61141 0.79281 0.0
H1113 H 0.40087 0.59553 0.79796 0.0
H1114 H 0.4131 0.61914 0.81431 0.0
H1115 H 0.41324 0.59299 0.83176 0.0
C1116 C 0.46412 0.66412 0.83979 0.0
C1117 C 0.45734 0.65991 0.86749 0.0
C1118 C 0.4635 0.64744 0.81906 0.0
C1119 C 0.45587 0.62612 0.8253 0.0
C1120 C 0.44928 0.62205 0.85303 0.0
H1121 H 0.44462 0.49601 0.75016 0.0
H1122 H 0.44434 0.529 0.77921 0.0
C1123 C 0.44988 0.63857 0.87357 0.0
C1124 C 0.45521 0.6079 0.80352 0.0
H1125 H 0.42232 0.56767 0.77614 0.0
C1126 C 0.47425 0.60208 0.78895 0.0
C1127 C 0.43617 0.59538 0.79807 0.0
C1128 C 0.41465 0.60121 0.81112 0.0
C1129 C 0.47499 0.5839 0.77037 0.0
C1130 C 0.45607 0.57105 0.76554 0.0
C1131 C 0.43695 0.57717 0.77966 0.0
C1132 C 0.45588 0.55085 0.74684 0.0
C1133 C 0.49636 0.5781 0.75693 0.0
C1134 C 0.46197 0.55168 0.71835 0.0
C1135 C 0.46202 0.53262 0.70142 0.0
C1136 C 0.45593 0.51204 0.71236 0.0
C1137 C 0.44941 0.51138 0.74071 0.0
C1138 C 0.44927 0.5304 0.75752 0.0
H1139 H 0.51028 0.58582 0.76799 0.0
H1140 H 0.49881 0.5601 0.75664 0.0
H1141 H 0.49643 0.58404 0.73498 0.0
H1142 H 0.46669 0.56712 0.70906 0.0
H1143 H 0.46717 0.53401 0.67983 0.0
H1144 H 0.73552 0.22103 0.58513 0.0
H1145 H 0.76452 0.21916 0.54943 0.0
H1146 H 0.80978 0.19818 0.61266 0.0
H1147 H 0.78115 0.19959 0.64776 0.0
H1148 H 0.80356 0.24022 0.54289 0.0
H1149 H 0.82149 0.15232 0.55507 0.0
H1150 H 0.79771 0.16471 0.57026 0.0
H1151 H 0.82355 0.16652 0.58779 0.0
C1152 C 0.75161 0.21582 0.59134 0.0
C1153 C 0.75574 0.21032 0.61954 0.0
C1154 C 0.76831 0.21481 0.57086 0.0
C1155 C 0.78961 0.20807 0.57784 0.0
C1156 C 0.79362 0.20283 0.60608 0.0
H1157 H 0.91883 0.19602 0.50245 0.0
H1158 H 0.88635 0.19636 0.53194 0.0
C1159 C 0.77707 0.20381 0.62638 0.0
C1160 C 0.80781 0.2069 0.55624 0.0
H1161 H 0.84845 0.17358 0.53135 0.0
C1162 C 0.81315 0.22552 0.54019 0.0
C1163 C 0.82069 0.18783 0.55228 0.0
C1164 C 0.81545 0.16666 0.56704 0.0
C1165 C 0.83115 0.22586 0.52153 0.0
C1166 C 0.84431 0.20694 0.51809 0.0
C1167 C 0.83871 0.18822 0.53377 0.0
C1168 C 0.86424 0.20634 0.49918 0.0
C1169 C 0.83639 0.24691 0.50648 0.0
C1170 C 0.86313 0.21131 0.47032 0.0
C1171 C 0.88189 0.21101 0.45316 0.0
C1172 C 0.90248 0.20564 0.46418 0.0
C1173 C 0.90344 0.20021 0.4929 0.0
C1174 C 0.88472 0.20044 0.50997 0.0
H1175 H 0.82862 0.26124 0.51668 0.0
H1176 H 0.85418 0.24973 0.50567 0.0
H1177 H 0.83023 0.24591 0.48468 0.0
H1178 H 0.84768 0.21542 0.46092 0.0
H1179 H 0.88026 0.21531 0.43127 0.0
H1180 H 0.19026 0.48309 0.33517 0.0
H1181 H 0.1918 0.51196 0.29892 0.0
H1182 H 0.21621 0.55753 0.36018 0.0
H1183 H 0.2151 0.52908 0.39577 0.0
H1184 H 0.17195 0.5521 0.29316 0.0
H1185 H 0.26008 0.56728 0.29983 0.0
H1186 H 0.24751 0.54379 0.31597 0.0
H1187 H 0.24735 0.56996 0.33338 0.0
C1188 C 0.19614 0.49921 0.34082 0.0
C1189 C 0.20268 0.50349 0.36861 0.0
C1190 C 0.19697 0.51584 0.32002 0.0
C1191 C 0.20458 0.53717 0.32629 0.0
C1192 C 0.21086 0.54132 0.35413 0.0
H1193 H 0.21807 0.66685 0.24964 0.0
H1194 H 0.21775 0.63417 0.27929 0.0
C1195 C 0.21004 0.52487 0.37472 0.0
C1196 C 0.20559 0.55532 0.30442 0.0
H1197 H 0.23911 0.59517 0.27739 0.0
C1198 C 0.18675 0.56128 0.28951 0.0
C1199 C 0.22479 0.56768 0.29925 0.0
C1200 C 0.24612 0.56172 0.31273 0.0
C1201 C 0.18635 0.57941 0.27084 0.0
C1202 C 0.20543 0.59207 0.26622 0.0
C1203 C 0.22435 0.58583 0.28073 0.0
C1204 C 0.20602 0.61211 0.24723 0.0
C1205 C 0.16515 0.58535 0.25706 0.0
C1206 C 0.20005 0.61107 0.2187 0.0
C1207 C 0.20034 0.62992 0.20146 0.0
C1208 C 0.20669 0.65055 0.21205 0.0
C1209 C 0.21311 0.65144 0.24043 0.0
C1210 C 0.2129 0.6326 0.25759 0.0
H1211 H 0.15106 0.57797 0.26811 0.0
H1212 H 0.16294 0.60338 0.2564 0.0
H1213 H 0.16512 0.57913 0.23523 0.0
H1214 H 0.19516 0.59559 0.20962 0.0
H1215 H 0.19525 0.62835 0.17984 0.0
H1216 H 0.73422 0.72375 0.40096 0.0
H1217 H 0.76411 0.72284 0.43546 0.0
H1218 H 0.80676 0.69644 0.37257 0.0
H1219 H 0.77733 0.69751 0.33838 0.0
H1220 H 0.79064 0.6897 0.45736 0.0
H1221 H 0.84254 0.74784 0.39917 0.0
H1222 H 0.81428 0.74376 0.39069 0.0
H1223 H 0.83447 0.72483 0.37826 0.0
C1224 C 0.74996 0.71773 0.3945 0.0
C1225 C 0.7532 0.7109 0.36657 0.0
C1226 C 0.76715 0.7172 0.41433 0.0
C1227 C 0.78818 0.71003 0.40681 0.0
C1228 C 0.79112 0.70265 0.37913 0.0
H1229 H 0.91778 0.69581 0.48169 0.0
H1230 H 0.88529 0.69624 0.45225 0.0
C1231 C 0.77405 0.70313 0.35947 0.0
C1232 C 0.80708 0.71014 0.42746 0.0
H1233 H 0.8596 0.72814 0.43602 0.0
C1234 C 0.80562 0.6983 0.45273 0.0
C1235 C 0.82693 0.72124 0.42189 0.0
C1236 C 0.82965 0.73531 0.39618 0.0
C1237 C 0.82337 0.69663 0.4717 0.0
C1238 C 0.84334 0.7075 0.46591 0.0
C1239 C 0.84461 0.71961 0.44082 0.0
C1240 C 0.8632 0.70631 0.48501 0.0
C1241 C 0.82072 0.68245 0.4973 0.0
C1242 C 0.86226 0.71178 0.51375 0.0
C1243 C 0.88105 0.71138 0.5309 0.0
C1244 C 0.90156 0.70567 0.51994 0.0
C1245 C 0.90244 0.70015 0.49124 0.0
C1246 C 0.8837 0.70049 0.47417 0.0
H1247 H 0.80744 0.6703 0.49458 0.0
H1248 H 0.83594 0.67353 0.50221 0.0
H1249 H 0.81652 0.69293 0.51548 0.0
H1250 H 0.84706 0.71694 0.52292 0.0
H1251 H 0.87954 0.71608 0.55267 0.0
H1252 H 0.22035 0.16965 0.73231 0.0
H1253 H 0.22007 0.13694 0.70271 0.0
H1254 H 0.19825 0.09829 0.77266 0.0
H1255 H 0.1983 0.13111 0.80241 0.0
H1256 H 0.24171 0.09816 0.70429 0.0
H1257 H 0.15389 1.08026 0.71464 0.0
H1258 H 0.16566 0.10576 0.72624 0.0
H1259 H 0.16818 1.08154 0.74737 0.0
C1260 C 0.21556 0.15422 0.7416 0.0
C1261 C 0.20934 0.15334 0.77005 0.0
C1262 C 0.21538 0.13536 0.72447 0.0
C1263 C 0.20873 0.11484 0.73492 0.0
C1264 C 0.20296 0.11379 0.76351 0.0
H1265 H 0.1928 0.98543 0.64866 0.0
H1266 H 0.1946 1.01478 0.6842 0.0
C1267 C 0.20322 0.13268 0.78074 0.0
C1268 C 0.20816 0.09478 0.71591 0.0
H1269 H 0.17479 1.05449 0.68944 0.0
C1270 C 0.22701 1.08869 0.70114 0.0
C1271 C 0.18914 1.08197 0.71152 0.0
C1272 C 0.168 1.08776 0.72554 0.0
C1273 C 0.22745 1.07051 0.68263 0.0
C1274 C 0.20832 1.05797 0.67773 0.0
C1275 C 0.18954 1.06382 0.69286 0.0
C1276 C 0.20731 1.03955 0.6562 0.0
C1277 C 0.24873 1.0647 0.66893 0.0
C1278 C 0.21352 1.04327 0.62821 0.0
C1279 C 0.21257 1.0265 0.60798 0.0
C1280 C 0.20514 1.00526 0.61465 0.0
C1281 C 0.19873 1.00143 0.6426 0.0
C1282 C 0.1997 1.01834 0.66299 0.0
H1283 H 0.26274 1.07049 0.68159 0.0
H1284 H 0.25027 1.04676 0.66585 0.0
H1285 H 0.2497 1.07281 0.64819 0.0
H1286 H 0.21887 1.05937 0.62175 0.0
H1287 H 0.21751 1.03033 0.58678 0.0
H1288 H 0.78395 0.44563 0.05359 0.0
H1289 H 0.81682 0.44541 0.02441 0.0
H1290 H 0.78017 0.47159 0.95537 0.0
H1291 H 0.74751 0.47215 0.9844 0.0
H1292 H 0.82768 0.4242 0.97636 0.0
H1293 H 0.8308 0.51276 0.95378 0.0
H1294 H 0.81317 0.50148 0.98026 0.0
H1295 H 0.80528 0.5009 0.94395 0.0
C1296 C 0.78288 0.45163 0.03231 0.0
C1297 C 0.76281 0.45917 0.02174 0.0
C1298 C 0.80181 0.45139 0.01546 0.0
C1299 C 0.80148 0.45884 0.98747 0.0
C1300 C 0.7814 0.46627 0.97692 0.0
H1301 H 0.88688 0.46762 0.84226 0.0
H1302 H 0.85819 0.4686 0.87735 0.0
C1303 C 0.76252 0.46649 -0.00631 0.0
C1304 C 0.82176 0.45841 0.96912 0.0
H1305 H 0.85308 0.48997 0.92522 0.0
C1306 C 0.83331 0.43869 0.96545 0.0
C1307 C 0.82954 0.47717 0.95462 0.0
C1308 C 0.81921 0.49932 0.95854 0.0
C1309 C 0.85147 0.43703 0.94717 0.0
C1310 C 0.85894 0.4557 0.93217 0.0
C1311 C 0.84764 0.4755 0.93634 0.0
C1312 C 0.87742 0.45494 0.91091 0.0
C1313 C 0.86193 0.41495 0.94324 0.0
C1314 C 0.89849 0.44723 0.91749 0.0
C1315 C 0.91526 0.44664 0.89706 0.0
C1316 C 0.91151 0.4538 0.8694 0.0
C1317 C 0.89059 0.46184 0.86315 0.0
C1318 C 0.87398 0.46246 0.88341 0.0
H1319 H 0.85118 0.40144 0.95035 0.0
H1320 H 0.86617 0.41214 0.92093 0.0
H1321 H 0.87708 0.41427 0.95576 0.0
H1322 H 0.90209 0.44178 0.93854 0.0
H1323 H 0.93109 0.44045 0.90289 0.0
H1324 H 0.44444 0.99906 0.23448 0.0
H1325 H 0.44502 1.03185 0.20516 0.0
H1326 H 0.46445 1.07056 0.27629 0.0
H1327 H 0.46409 1.0376 0.30583 0.0
H1328 H 0.42257 1.07015 0.20624 0.0
H1329 H 0.50981 0.08968 0.21999 0.0
H1330 H 0.49827 1.06388 0.23085 0.0
H1331 H 0.49475 1.08791 0.25209 0.0
C1332 C 0.44876 1.01452 0.24411 0.0
C1333 C 0.45416 1.01537 0.27285 0.0
C1334 C 0.44911 1.03343 0.22713 0.0
C1335 C 0.45515 1.05401 0.238 0.0
C1336 C 0.46019 1.05503 0.26685 0.0
H1337 H 0.47018 0.18351 0.15117 0.0
H1338 H 0.46837 0.15444 0.18709 0.0
C1339 C 0.45972 1.03607 0.28395 0.0
C1340 C 0.4558 1.07412 0.2191 0.0
H1341 H 0.48906 0.11488 0.19367 0.0
C1342 C 0.43718 1.07986 0.20362 0.0
C1343 C 0.47468 1.08725 0.21538 0.0
C1344 C 0.49559 1.08184 0.23022 0.0
C1345 C 0.43685 0.09796 0.18499 0.0
C1346 C 0.45587 0.11079 0.18072 0.0
C1347 C 0.4744 0.10533 0.1966 0.0
C1348 C 0.45705 0.12904 0.15896 0.0
C1349 C 0.4158 0.10333 0.17041 0.0
C1350 C 0.45165 0.12489 0.1308 0.0
C1351 C 0.45261 0.14148 0.11036 0.0
C1352 C 0.45924 0.16301 0.11698 0.0
C1353 C 0.46488 0.16728 0.14511 0.0
C1354 C 0.4639 0.15053 0.16573 0.0
H1355 H 0.4016 0.09736 0.18256 0.0
H1356 H 0.41403 0.12123 0.16714 0.0
H1357 H 0.41546 0.09511 0.1497 0.0
H1358 H 0.44689 0.10858 0.12438 0.0
H1359 H 0.44828 0.13729 0.08904 0.0
H1360 H 0.28041 0.43184 0.4422 0.0
H1361 H 0.31234 0.43059 0.47279 0.0
H1362 H 0.28586 0.48322 0.5222 0.0
H1363 H 0.25329 0.48332 0.49287 0.0
H1364 H 0.34441 0.453 0.48673 0.0
H1365 H 0.29888 0.44609 0.58559 0.0
H1366 H 0.28547 0.44498 0.55217 0.0
H1367 H 0.29196 0.471 0.56811 0.0
C1368 C 0.28133 0.44316 0.45962 0.0
C1369 C 0.26394 0.45756 0.465 0.0
C1370 C 0.29978 0.44245 0.47729 0.0
C1371 C 0.30174 0.45631 0.50088 0.0
C1372 C 0.28479 0.4715 0.50528 0.0
H1373 H 0.39246 0.42672 0.63872 0.0
H1374 H 0.36328 0.42754 0.60415 0.0
C1375 C 0.2661 0.4718 0.48808 0.0
C1376 C 0.32135 0.4549 0.52051 0.0
H1377 H 0.3364 0.45443 0.58984 0.0
C1378 C 0.3425 0.45315 0.50929 0.0
C1379 C 0.31949 0.45461 0.55024 0.0
C1380 C 0.29772 0.45402 0.56471 0.0
C1381 C 0.36132 0.45135 0.52642 0.0
C1382 C 0.35952 0.45226 0.55614 0.0
C1383 C 0.33835 0.45392 0.5673 0.0
C1384 C 0.37887 0.45066 0.57621 0.0
C1385 C 0.38282 0.4476 0.51215 0.0
C1386 C 0.39821 0.46295 0.57264 0.0
C1387 C 0.41549 0.46184 0.59226 0.0
C1388 C 0.4138 0.44889 0.61658 0.0
C1389 C 0.39456 0.43671 0.62019 0.0
C1390 C 0.37761 0.43736 0.60033 0.0
H1391 H 0.38064 0.43991 0.49125 0.0
H1392 H 0.39103 0.46357 0.5089 0.0
H1393 H 0.39355 0.43692 0.52485 0.0
H1394 H 0.3998 0.47405 0.55514 0.0
H1395 H 0.42975 0.47191 0.58905 0.0
H1396 H 0.97303 0.18185 0.33385 0.0
H1397 H 0.97139 0.15261 0.29812 0.0
H1398 H 0.9475 0.1076 0.36031 0.0
H1399 H 0.94884 0.13647 0.39552 0.0
H1400 H 0.99168 0.11209 0.29365 0.0
H1401 H 0.90333 0.09758 0.29966 0.0
H1402 H 0.91599 0.12131 0.31519 0.0
H1403 H 0.91612 0.09544 0.33326 0.0
C1404 C 0.96724 0.16578 0.33983 0.0
C1405 C 0.96095 0.16177 0.36778 0.0
C1406 C 0.96637 0.14893 0.31933 0.0
C1407 C 0.95893 0.12764 0.32602 0.0
C1408 C 0.95279 0.12376 0.35398 0.0
H1409 H 0.943 0.99819 0.24884 0.0
H1410 H 0.94382 1.0308 0.27863 0.0
C1411 C 0.95371 0.14044 0.37434 0.0
C1412 C 0.95791 0.1093 0.30441 0.0
H1413 H 0.92414 1.06983 0.27698 0.0
C1414 C 0.97681 0.10306 0.28982 0.0
C1415 C 0.93864 0.09713 0.29905 0.0
C1416 C 0.91732 0.10332 0.31239 0.0
C1417 C 0.97716 1.08486 0.27123 0.0
C1418 C 0.95795 1.07246 0.26628 0.0
C1419 C 0.93899 1.07897 0.28052 0.0
C1420 C 0.95723 1.05243 0.2472 0.0
C1421 C 0.99847 1.07856 0.25797 0.0
C1422 C 0.96402 1.05324 0.21897 0.0
C1423 C 0.96352 1.0344 0.20167 0.0
C1424 C 0.95606 1.01404 0.21188 0.0
C1425 C 0.94883 1.0134 0.23994 0.0
C1426 C 0.94932 1.0322 0.25717 0.0
H1427 H 1.01251 1.0855 0.26962 0.0
H1428 H 1.0003 1.06051 0.25702 0.0
H1429 H 0.99905 1.08506 0.2363 0.0
H1430 H 0.96967 1.06852 0.21012 0.0
H1431 H 0.96922 1.03578 0.1803 0.0
H1432 H 0.27424 0.69374 0.14272 0.0
H1433 H 0.30331 0.69265 0.10814 0.0
H1434 H 0.25983 0.71854 0.04579 0.0
H1435 H 0.23051 0.7201 0.08092 0.0
H1436 H 0.30953 0.67111 0.06114 0.0
H1437 H 0.31006 0.75923 0.03383 0.0
H1438 H 0.29477 0.74866 0.06306 0.0
H1439 H 0.28444 0.74598 0.02798 0.0
C1440 C 0.27071 0.69928 0.12168 0.0
C1441 C 0.24981 0.70716 0.11494 0.0
C1442 C 0.28753 0.69861 0.10172 0.0
C1443 C 0.28432 0.70586 0.07405 0.0
C1444 C 0.26327 0.71334 0.06698 0.0
H1445 H 0.37781 0.71428 0.93167 0.0
H1446 H 0.34493 0.71411 0.9608 0.0
C1447 C 0.2463 0.71403 0.08711 0.0
C1448 C 0.30302 0.70512 0.05311 0.0
H1449 H 0.33387 0.73644 0.00825 0.0
C1450 C 0.31474 0.68549 0.04965 0.0
C1451 C 0.31022 0.72368 0.03768 0.0
C1452 C 0.29939 0.74565 0.04093 0.0
C1453 C 0.33298 0.68386 0.03162 0.0
C1454 C 0.34041 0.7025 0.01657 0.0
C1455 C 0.32848 0.72205 0.01957 0.0
C1456 C 0.36069 0.70213 -0.00173 0.0
C1457 C 0.34386 0.66191 0.02852 0.0
C1458 C 0.38097 0.69561 0.00912 0.0
C1459 C 0.39988 0.69563 -0.00762 0.0
C1460 C 0.39936 0.70227 0.96406 0.0
C1461 C 0.37906 0.70881 0.95317 0.0
C1462 C 0.36012 0.70884 0.96999 0.0
H1463 H 0.33264 0.64829 0.03387 0.0
H1464 H 0.3499 0.65939 0.00686 0.0
H1465 H 0.35788 0.66105 0.04307 0.0
H1466 H 0.38235 0.69086 0.03088 0.0
H1467 H 0.41506 0.69074 0.0019 0.0
H1468 H 0.71461 0.1683 0.75578 0.0
H1469 H 0.71369 0.13513 0.78437 0.0
H1470 H 0.7103 0.0958 0.70959 0.0
H1471 H 0.71044 0.12909 0.68087 0.0
H1472 H 0.7379 0.101 0.79249 0.0
H1473 H 0.6607 1.06914 0.74964 0.0
H1474 H 0.68103 1.07245 0.72315 0.0
H1475 H 0.67065 0.09609 0.74126 0.0
C1476 C 0.71373 0.15262 0.74525 0.0
C1477 C 0.71252 0.15168 0.71573 0.0
C1478 C 0.71319 0.13347 0.7618 0.0
C1479 C 0.71141 0.11252 0.74959 0.0
C1480 C 0.71096 0.1115 0.72002 0.0
H1481 H 0.66567 1.01029 0.8639 0.0
H1482 H 0.67098 1.04099 0.83206 0.0
C1483 C 0.7113 0.13071 0.70342 0.0
C1484 C 0.71 0.09207 0.76787 0.0
H1485 H 0.6799 1.0456 0.78015 0.0
C1486 C 0.72517 0.08893 0.78966 0.0
C1487 C 0.6933 1.0761 0.76496 0.0
C1488 C 0.67537 1.07867 0.7437 0.0
C1489 C 0.72417 1.07075 0.80819 0.0
C1490 C 0.70781 1.05449 0.80479 0.0
C1491 C 0.69267 1.05763 0.78297 0.0
C1492 C 0.70508 1.035 0.82451 0.0
C1493 C 0.74027 1.06972 0.83194 0.0
C1494 C 0.72228 1.02058 0.83126 0.0
C1495 C 0.71928 1.00282 0.85004 0.0
C1496 C 0.69889 0.9987 0.86241 0.0
C1497 C 0.68166 1.01278 0.85505 0.0
C1498 C 0.6847 1.03051 0.8366 0.0
H1499 H 0.7474 1.08605 0.83652 0.0
H1500 H 0.73257 1.06339 0.85134 0.0
H1501 H 0.75374 1.0586 0.82608 0.0
H1502 H 0.7381 1.0229 0.82187 0.0
H1503 H 0.73292 0.99233 0.85486 0.0
H1504 H 0.54636 0.24665 0.91547 0.0
H1505 H 0.56568 0.25272 0.87122 0.0
H1506 H 0.57936 0.18367 0.86569 0.0
H1507 H 0.55953 0.17734 0.90904 0.0
H1508 H 0.60867 0.24369 0.85625 0.0
H1509 H 0.55117 0.19688 0.79031 0.0
H1510 H 0.54467 0.20545 0.8255 0.0
H1511 H 0.5606 0.1812 0.81962 0.0
C1512 C 0.55333 0.23275 0.90468 0.0
C1513 C 0.55135 0.21149 0.91578 0.0
C1514 C 0.56446 0.23627 0.87952 0.0
C1515 C 0.57362 0.21859 0.86498 0.0
C1516 C 0.57206 0.19749 0.87631 0.0
H1517 H 0.67529 0.20512 0.74619 0.0
H1518 H 0.65277 0.21129 0.78748 0.0
C1519 C 0.56094 0.19394 0.90133 0.0
C1520 C 0.58501 0.22195 0.83801 0.0
H1521 H 0.58654 0.20317 0.77082 0.0
C1522 C 0.60369 0.23512 0.83742 0.0
C1523 C 0.57821 0.21115 0.81331 0.0
C1524 C 0.55743 0.19807 0.81208 0.0
C1525 C 0.61647 0.23674 0.81314 0.0
C1526 C 0.61059 0.22449 0.78912 0.0
C1527 C 0.59122 0.21235 0.78931 0.0
C1528 C 0.62483 0.22276 0.76419 0.0
C1529 C 0.63621 0.2514 0.81361 0.0
C1530 C 0.61653 0.22672 0.73726 0.0
C1531 C 0.62927 0.22279 0.71357 0.0
C1532 C 0.65049 0.21482 0.71647 0.0
C1533 C 0.65896 0.21131 0.74339 0.0
C1534 C 0.64618 0.21506 0.76702 0.0
H1535 H 0.63409 0.26511 0.82866 0.0
H1536 H 0.6505 0.24178 0.82052 0.0
H1537 H 0.6397 0.25832 0.79259 0.0
H1538 H 0.60006 0.23254 0.73456 0.0
H1539 H 0.62246 0.22581 0.69301 0.0
H1540 H 0.73105 0.84299 0.19382 0.0
H1541 H 0.7265 0.86405 0.15078 0.0
H1542 H 0.67485 0.82077 0.12498 0.0
H1543 H 0.67986 0.7991 0.16747 0.0
H1544 H 0.70636 0.82436 0.08588 0.0
H1545 H 0.68191 0.90704 0.12118 0.0
H1546 H 0.70576 0.89731 0.13878 0.0
H1547 H 0.68032 0.8833 0.14361 0.0
C1548 C 0.71853 0.83812 0.17915 0.0
C1549 C 0.70593 0.81927 0.18396 0.0
C1550 C 0.71577 0.85035 0.15472 0.0
C1551 C 0.70021 0.84409 0.1348 0.0
C1552 C 0.68687 0.82594 0.14019 0.0
H1553 H 0.67639 0.91418 0.97878 0.0
H1554 H 0.67275 0.89746 0.02507 0.0
C1555 C 0.68966 0.81366 0.16458 0.0
C1556 C 0.69971 0.85479 0.107 0.0
H1557 H 0.69596 0.90434 0.07438 0.0
C1558 C 0.70384 0.84182 0.08335 0.0
C1559 C 0.69626 0.87752 0.10371 0.0
C1560 C 0.6906 0.89207 0.12815 0.0
C1561 C 0.70526 0.85104 0.05656 0.0
C1562 C 0.70294 0.87392 0.05345 0.0
C1563 C 0.69808 0.88684 0.07694 0.0
C1564 C 0.70547 0.88466 0.0259 0.0
C1565 C 0.70912 0.83616 0.03182 0.0
C1566 C 0.72522 0.88335 0.01133 0.0
C1567 C 0.72731 0.89279 0.98483 0.0
C1568 C 0.70971 0.90377 0.97264 0.0
C1569 C 0.69014 0.90556 0.98758 0.0
C1570 C 0.68806 0.89611 0.01404 0.0
H1571 H 0.70462 0.81895 0.03661 0.0
H1572 H 0.6997 0.84163 0.01328 0.0
H1573 H 0.72661 0.8365 0.02631 0.0
H1574 H 0.739 0.87498 0.02044 0.0
H1575 H 0.74266 0.89147 0.9739 0.0
H1576 H 0.98645 0.95171 0.24031 0.0
H1577 H 1.00739 0.94903 0.28364 0.0
H1578 H 1.06687 0.9489 0.23603 0.0
H1579 H 1.0459 0.95121 0.19236 0.0
H1580 H 1.06571 0.91869 0.28287 0.0
H1581 H 1.0414 1.00336 0.31151 0.0
H1582 H 1.01925 0.98511 0.30403 0.0
H1583 H 1.0379 0.99245 0.27668 0.0
C1584 C 1.00399 0.95099 0.23906 0.0
C1585 C 1.01464 0.95208 0.21309 0.0
C1586 C 1.0159 0.94944 0.2638 0.0
C1587 C 1.03864 0.94917 0.26298 0.0
C1588 C 1.04931 0.9492 0.23701 0.0
H1589 H 0.12563 0.98858 0.39402 0.0
H1590 H 0.10574 0.98285 0.35045 0.0
C1591 C 1.03736 0.95062 0.21217 0.0
C1592 C 1.05123 0.95033 0.28927 0.0
H1593 H 1.06127 0.98349 0.34524 0.0
C1594 C 1.0648 0.93281 0.29657 0.0
C1595 C 1.0501 0.96892 0.30683 0.0
C1596 C 1.03654 0.98864 0.29934 0.0
C1597 C 1.07722 0.93337 0.32125 0.0
C1598 C 1.07576 0.95181 0.33905 0.0
C1599 C 1.06222 0.96931 0.33162 0.0
C1600 C 0.08879 0.95395 0.36493 0.0
C1601 C 0.09215 0.91451 0.32775 0.0
C1602 C 0.08591 0.93951 0.38749 0.0
C1603 C 0.09727 0.94279 0.41254 0.0
C1604 C 0.11145 0.9607 0.41543 0.0
C1605 C 0.11451 0.97487 0.39259 0.0
C1606 C 0.10328 0.97154 0.36764 0.0
H1607 H 0.09505 0.90407 0.30907 0.0
H1608 H 0.10801 0.92052 0.33572 0.0
H1609 H 0.08468 0.90417 0.34424 0.0
H1610 H 1.07449 0.92607 0.38598 0.0
H1611 H 0.09453 0.93169 0.42987 0.0
H1612 H 0.95566 0.24337 0.4931 0.0
H1613 H 0.96036 0.26679 0.53412 0.0
H1614 H 0.9795 0.32039 0.48069 0.0
H1615 H 0.97431 0.29706 0.43937 0.0
H1616 H 0.99488 0.28983 0.55547 0.0
H1617 H 0.92831 0.34581 0.52315 0.0
H1618 H 0.9331 0.31995 0.50606 0.0
H1619 H 0.95009 0.34313 0.49844 0.0
C1620 C 0.96092 0.26014 0.4901 0.0
C1621 C 0.96425 0.26859 0.46312 0.0
C1622 C 0.96368 0.27346 0.51354 0.0
C1623 C 0.9699 0.29543 0.5104 0.0
C1624 C 0.97421 0.30363 0.4835 0.0
H1625 H 0.99362 0.37532 0.66146 0.0
H1626 H 0.99955 0.35671 0.61664 0.0
C1627 C 0.97127 0.29032 0.45998 0.0
C1628 C 0.97074 0.3098 0.53531 0.0
H1629 H 0.94578 0.35357 0.56572 0.0
C1630 C 0.98431 0.30391 0.55768 0.0
C1631 C 0.95676 0.32802 0.53813 0.0
C1632 C 0.94109 0.33456 0.51531 0.0
C1633 C 0.98384 0.31538 0.58315 0.0
C1634 C 0.96969 0.33344 0.58603 0.0
C1635 C 0.95666 0.33975 0.56334 0.0
C1636 C 0.96656 0.3448 0.61309 0.0
C1637 C 0.99768 0.30744 0.60715 0.0
C1638 C 0.94597 0.34466 0.62557 0.0
C1639 C 0.94246 0.3555 0.65082 0.0
C1640 C 0.95949 0.3667 0.66423 0.0
C1641 C 0.98014 0.36691 0.65162 0.0
C1642 C 0.98363 0.3561 0.62618 0.0
H1643 H 1.00425 0.29079 0.60327 0.0
H1644 H 1.01159 0.31878 0.61003 0.0
H1645 H 0.98822 0.30717 0.62693 0.0
H1646 H 0.93255 0.33614 0.61571 0.0
H1647 H 0.92625 0.3554 0.65958 0.0
H1648 H 0.64409 0.96637 0.10149 0.0
H1649 H 0.62108 0.96508 0.14324 0.0
H1650 H 0.56402 0.96266 0.09092 0.0
H1651 H 0.58694 0.96427 0.04914 0.0
H1652 H 0.56053 0.99326 0.13139 0.0
H1653 H 0.58776 0.91481 0.17775 0.0
H1654 H 0.60964 0.93355 0.17124 0.0
H1655 H 0.59431 0.92266 0.14232 0.0
C1656 C 0.62666 0.96517 0.09893 0.0
C1657 C 0.61728 0.96543 0.07211 0.0
C1658 C 0.61354 0.9644 0.12277 0.0
C1659 C 0.59085 0.96351 0.12017 0.0
C1660 C 0.5815 0.96333 0.09338 0.0
H1661 H 0.50046 0.93642 0.25482 0.0
H1662 H 0.52233 0.93562 0.21212 0.0
C1663 C 0.59458 0.96428 0.06957 0.0
C1664 C 0.57679 0.96402 0.1453 0.0
H1665 H 0.56596 0.93769 0.20671 0.0
C1666 C 0.56163 0.98104 0.14781 0.0
C1667 C 0.57809 0.94794 0.16651 0.0
C1668 C 0.59317 0.92858 0.16426 0.0
C1669 C 0.5479 0.98258 0.17113 0.0
C1670 C 0.54977 0.96696 0.19283 0.0
C1671 C 0.56473 0.94978 0.19016 0.0
C1672 C 0.53611 0.96789 0.2183 0.0
C1673 C 0.53125 1.00067 0.17201 0.0
C1674 C 0.53664 0.98628 0.23596 0.0
C1675 C 0.52396 0.98683 0.26022 0.0
C1676 C 0.51088 0.96887 0.26736 0.0
C1677 C 0.51043 0.95047 0.24975 0.0
C1678 C 0.52294 0.94999 0.22542 0.0
H1679 H 0.52777 1.00718 0.15077 0.0
H1680 H 0.5158 0.99489 0.18146 0.0
H1681 H 0.53758 1.01436 0.18494 0.0
H1682 H 0.54704 1.00007 0.23118 0.0
H1683 H 0.52463 1.00117 0.27354 0.0
H1684 H 0.48907 0.35085 0.80825 0.0
H1685 H 0.49528 0.32996 0.85134 0.0
H1686 H 0.45519 0.37527 0.89717 0.0
H1687 H 0.44912 0.39639 0.8544 0.0
H1688 H 0.50824 0.34414 0.9133 0.0
H1689 H 0.42519 0.31098 0.89472 0.0
H1690 H 0.44123 0.32316 0.86717 0.0
H1691 H 0.42836 0.34023 0.8928 0.0
C1692 C 0.4821 0.35672 0.82767 0.0
C1693 C 0.46829 0.37502 0.8279 0.0
C1694 C 0.48566 0.34478 0.85221 0.0
C1695 C 0.47553 0.35106 0.87721 0.0
C1696 C 0.46305 0.37018 0.87795 0.0
H1697 H 0.47135 0.29878 0.04515 0.0
H1698 H 0.47827 0.32139 0.00368 0.0
C1699 C 0.45947 0.3821 0.85349 0.0
C1700 C 0.47544 0.33619 0.9015 0.0
H1701 H 0.4424 0.30097 0.93679 0.0
C1702 C 0.49394 0.3346 0.91849 0.0
C1703 C 0.4568 0.32365 0.90783 0.0
C1704 C 0.43676 0.32437 0.88964 0.0
C1705 C 0.49406 0.32098 0.94221 0.0
C1706 C 0.47514 0.30893 0.94896 0.0
C1707 C 0.45685 0.31027 0.93157 0.0
C1708 C 0.47357 0.29493 0.97411 0.0
C1709 C 0.5144 0.31941 0.95968 0.0
C1710 C 0.4685 0.27266 0.97116 0.0
C1711 C 0.46423 0.25987 -0.00531 0.0
C1712 C 0.46492 0.26916 0.02155 0.0
C1713 C 0.4706 0.29129 0.02461 0.0
C1714 C 0.4748 0.30414 0.001 0.0
H1715 H 0.52892 0.32506 0.94793 0.0
H1716 H 0.51264 0.32991 0.9785 0.0
H1717 H 0.51714 0.30234 0.96681 0.0
H1718 H 0.46736 0.26529 0.95056 0.0
H1719 H 0.45992 0.24282 -0.0082 0.0
H1720 H 0.17154 0.20777 0.74074 0.0
H1721 H 0.14836 0.21418 0.7001 0.0
H1722 H 0.09636 0.23473 0.75459 0.0
H1723 H 0.11942 0.22774 0.79548 0.0
H1724 H 1.08251 0.20536 0.7181 0.0
H1725 H 0.12863 0.26823 0.65996 0.0
H1726 H 0.14553 0.24545 0.66894 0.0
H1727 H 0.13385 0.26199 0.69629 0.0
C1728 C 0.15522 0.21384 0.74403 0.0
C1729 C 0.14714 0.21705 0.77119 0.0
C1730 C 0.14207 0.21776 0.72077 0.0
C1731 C 0.12072 0.22531 0.72423 0.0
C1732 C 0.11281 0.22902 0.75141 0.0
H1733 H 1.04298 0.24768 0.57172 0.0
H1734 H 1.06113 0.25445 0.61665 0.0
C1735 C 0.12593 0.22494 0.77472 0.0
C1736 C 0.1061 0.2271 0.69966 0.0
H1737 H 0.1034 0.24651 0.63271 0.0
C1738 C 0.0869 0.21469 0.69963 0.0
C1739 C 0.11154 0.2396 0.67571 0.0
C1740 C 0.13089 0.25476 0.6753 0.0
C1741 C 1.07374 0.21336 0.67576 0.0
C1742 C 1.08024 0.22426 0.65101 0.0
C1743 C 0.09866 0.23781 0.65154 0.0
C1744 C 1.06904 0.22045 0.62399 0.0
C1745 C 1.05314 0.2 0.67718 0.0
C1746 C 1.06778 0.19918 0.61308 0.0
C1747 C 1.05732 0.19524 0.5877 0.0
C1748 C 1.04813 0.21255 0.57237 0.0
C1749 C 1.04967 0.23395 0.58314 0.0
C1750 C 1.06013 0.23787 0.60871 0.0
H1751 H 1.04682 0.19914 0.69893 0.0
H1752 H 1.04033 0.20691 0.66344 0.0
H1753 H 1.05661 0.18303 0.67022 0.0
H1754 H 1.07495 0.18555 0.62423 0.0
H1755 H 1.0562 0.17852 0.58028 0.0
H1756 H 0.24894 0.89989 0.50974 0.0
H1757 H 0.24732 0.88061 0.4647 0.0
H1758 H 0.17796 0.89006 0.46203 0.0
H1759 H 0.17955 0.90956 0.50668 0.0
H1760 H 0.22523 0.84308 0.45192 0.0
H1761 H 0.19637 0.91138 0.3852 0.0
H1762 H 0.20689 0.91561 0.42006 0.0
H1763 H 0.17944 0.90633 0.41508 0.0
C1764 C 0.23339 0.89788 0.49943 0.0
C1765 C 0.21438 0.90621 0.51153 0.0
C1766 C 0.23248 0.88693 0.47375 0.0
C1767 C 0.21256 0.88421 0.45984 0.0
C1768 C 0.19355 0.89244 0.47206 0.0
H1769 H 0.18984 0.78686 0.32968 0.0
H1770 H 0.18743 0.8092 0.3721 0.0
C1771 C 0.19447 0.90346 0.49761 0.0
C1772 C 0.21154 0.87195 0.43314 0.0
H1773 H 0.19604 0.87585 0.36468 0.0
C1774 C 0.21891 0.85025 0.43281 0.0
C1775 C 0.20343 0.88144 0.40823 0.0
C1776 C 0.19627 0.90503 0.40699 0.0
C1777 C 0.21827 0.83768 0.40827 0.0
C1778 C 0.20958 0.84694 0.38355 0.0
C1779 C 0.20239 0.86872 0.38379 0.0
C1780 C 0.20893 0.8346 0.3569 0.0
C1781 C 0.22738 0.81476 0.40888 0.0
C1782 C 0.22091 0.84205 0.33385 0.0
C1783 C 0.22205 0.82953 0.30946 0.0
C1784 C 0.21123 0.80928 0.30769 0.0
C1785 C 0.19832 0.80239 0.33033 0.0
C1786 C 0.19713 0.815 0.3547 0.0
H1787 H 0.23809 0.81212 0.4273 0.0
H1788 H 0.21382 0.80283 0.41015 0.0
H1789 H 0.23679 0.81125 0.38958 0.0
H1790 H 0.22996 0.85725 0.33505 0.0
H1791 H 0.23177 0.8355 0.29218 0.0
H1792 H 1.04426 0.74338 0.41541 0.0
H1793 H 1.0626 0.74993 0.37065 0.0
H1794 H 1.07531 0.68082 0.36279 0.0
H1795 H 1.05626 0.67401 0.40659 0.0
H1796 H 0.10448 0.74153 0.35422 0.0
H1797 H 1.04686 0.69482 0.28846 0.0
H1798 H 1.04078 0.7025 0.3241 0.0
H1799 H 1.05693 0.67861 0.3169 0.0
C1800 C 1.05074 0.72956 0.40397 0.0
C1801 C 1.04871 0.70815 0.41457 0.0
C1802 C 1.06133 0.73335 0.37851 0.0
C1803 C 1.06994 0.71581 0.36317 0.0
C1804 C 1.06835 0.69454 0.37398 0.0
H1805 H 0.17066 0.7053 0.24271 0.0
H1806 H 0.14837 0.71067 0.28439 0.0
C1807 C 1.05772 0.69072 0.39928 0.0
C1808 C 1.08098 0.71955 0.33605 0.0
H1809 H 1.0821 0.70148 0.26853 0.0
C1810 C 0.09943 0.73305 0.33534 0.0
C1811 C 1.07408 0.70892 0.31128 0.0
C1812 C 1.05344 0.6956 0.31011 0.0
C1813 C 0.11189 0.73516 0.31087 0.0
C1814 C 0.10598 0.72302 0.28678 0.0
C1815 C 0.08683 0.71056 0.28709 0.0
C1816 C 0.12002 0.72177 0.26164 0.0
C1817 C 0.13132 0.75025 0.31119 0.0
C1818 C 0.11141 0.7258 0.23489 0.0
C1819 C 0.12401 0.72227 0.21099 0.0
C1820 C 0.14539 0.71467 0.21349 0.0
C1821 C 0.15419 0.71118 0.24023 0.0
C1822 C 0.14154 0.71449 0.26408 0.0
H1823 H 0.12908 0.76376 0.3265 0.0
H1824 H 0.14589 0.74088 0.31766 0.0
H1825 H 0.13439 0.75744 0.29021 0.0
H1826 H 0.09481 0.73133 0.23251 0.0
H1827 H 0.11695 0.72527 0.19057 0.0
H1828 H 0.17931 0.27614 0.64847 0.0
H1829 H 0.17153 0.2953 0.60451 0.0
H1830 H 0.20258 0.35339 0.63667 0.0
H1831 H 0.21013 0.33453 0.68078 0.0
H1832 H 0.16159 0.35974 0.60406 0.0
H1833 H 0.22449 0.30879 0.55136 0.0
H1834 H 0.20347 0.29479 0.57044 0.0
H1835 H 0.22294 0.31116 0.58898 0.0
C1836 C 0.18406 0.29314 0.6464 0.0
C1837 C 0.19559 0.30377 0.66792 0.0
C1838 C 0.1797 0.30399 0.62125 0.0
C1839 C 0.18673 0.32562 0.61733 0.0
C1840 C 0.19711 0.33666 0.63933 0.0
H1841 H 0.20577 0.42478 0.49522 0.0
H1842 H 0.19766 0.40313 0.5369 0.0
C1843 C 0.20155 0.32582 0.66439 0.0
C1844 C 0.18509 0.33628 0.58965 0.0
H1845 H 0.20863 0.33682 0.52505 0.0
C1846 C 0.17165 0.35463 0.58662 0.0
C1847 C 0.19819 0.32945 0.567 0.0
C1848 C 0.21322 0.31005 0.56944 0.0
C1849 C 0.17131 0.36664 0.56156 0.0
C1850 C 0.1852 0.36043 0.53935 0.0
C1851 C 0.198 0.34157 0.54209 0.0
C1852 C 0.18812 0.37407 0.51396 0.0
C1853 C 0.15611 0.38588 0.55916 0.0
C1854 C 0.18585 0.36483 0.48718 0.0
C1855 C 0.19086 0.37708 0.46331 0.0
C1856 C 0.19831 0.39871 0.46591 0.0
C1857 C 0.20014 0.40809 0.49265 0.0
C1858 C 0.19524 0.39582 0.51647 0.0
H1859 H 0.14189 0.38402 0.57327 0.0
H1860 H 0.16482 0.40103 0.56539 0.0
H1861 H 0.1502 0.38789 0.53735 0.0
H1862 H 0.18051 0.34803 0.48478 0.0
H1863 H 0.18911 0.36957 0.44288 0.0
H1864 H 0.54715 0.44076 0.69233 0.0
H1865 H 0.56878 0.43364 0.73444 0.0
H1866 H 0.51279 0.44682 0.78598 0.0
H1867 H 0.49107 0.45348 0.74404 0.0
H1868 H 0.57754 0.46298 0.7749 0.0
H1869 H 0.53551 0.39198 0.82242 0.0
H1870 H 0.53143 0.40005 0.78643 0.0
H1871 H 0.51727 0.41391 0.81425 0.0
C1872 C 0.53946 0.44193 0.71267 0.0
C1873 C 0.51754 0.44789 0.71502 0.0
C1874 C 0.55178 0.43778 0.73666 0.0
C1875 C 0.54234 0.43941 0.76336 0.0
C1876 C 0.52031 0.44495 0.76563 0.0
H1877 H 0.58267 0.45918 0.93176 0.0
H1878 H 0.56346 0.45234 0.88776 0.0
C1879 C 0.50797 0.44901 0.74166 0.0
C1880 C 0.55596 0.43745 0.78884 0.0
H1881 H 0.55894 0.41269 0.85285 0.0
C1882 C 0.57371 0.4517 0.79174 0.0
C1883 C 0.55091 0.42275 0.81081 0.0
C1884 C 0.53287 0.40616 0.80826 0.0
C1885 C 0.58596 0.45236 0.81647 0.0
C1886 C 0.58043 0.43822 0.83878 0.0
C1887 C 0.56308 0.42352 0.83567 0.0
C1888 C 0.5916 0.43967 0.86613 0.0
C1889 C 0.60413 0.46885 0.81904 0.0
C1890 C 0.61361 0.43419 0.86869 0.0
C1891 C 0.62466 0.43817 0.89377 0.0
C1892 C 0.61384 0.44772 0.91664 0.0
C1893 C 0.59151 0.45214 0.91436 0.0
C1894 C 0.58049 0.4481 0.88934 0.0
H1895 H 0.60395 0.48099 0.80173 0.0
H1896 H 0.60303 0.47775 0.83927 0.0
H1897 H 0.61994 0.46019 0.81854 0.0
H1898 H 0.62239 0.42748 0.85102 0.0
H1899 H 0.64186 0.43466 0.89483 0.0
H1900 H 0.46635 0.7946 0.94842 0.0
H1901 H 0.47176 0.81471 -0.00765 0.0
H1902 H 0.46941 0.75395 0.03828 0.0
H1903 H 0.46353 0.73391 -0.00535 0.0
H1904 H 0.44082 0.78405 0.0578 0.0
H1905 H 0.52238 0.8216 0.04693 0.0
H1906 H 0.50483 0.82677 0.01766 0.0
H1907 H 0.51325 0.79922 0.02513 0.0
C1908 C 0.46724 0.78559 0.96787 0.0
C1909 C 0.46422 0.76282 0.96827 0.0
C1910 C 0.47055 0.79702 -0.00709 0.0
C1911 C 0.47119 0.78578 0.01854 0.0
C1912 C 0.46902 0.76292 0.01873 0.0
H1913 H 0.4859 0.84316 0.18622 0.0
H1914 H 0.49237 0.82144 0.14369 0.0
C1915 C 0.46558 0.75154 -0.00619 0.0
C1916 C 0.47152 0.79792 0.04535 0.0
H1917 H 0.49958 0.83604 0.08328 0.0
C1918 C 0.45381 0.79521 0.06349 0.0
C1919 C 0.48855 0.81234 0.05283 0.0
C1920 C 0.50844 0.81504 0.03475 0.0
C1921 C 0.45229 0.80708 0.08848 0.0
C1922 C 0.46878 0.82226 0.09531 0.0
C1923 C 0.4869 0.82447 0.07776 0.0
C1924 C 0.46662 0.83669 0.11994 0.0
C1925 C 0.4329 0.8035 0.10725 0.0
C1926 C 0.4504 0.85271 0.12023 0.0
C1927 C 0.44669 0.86504 0.14428 0.0
C1928 C 0.45915 0.8616 0.16855 0.0
C1929 C 0.47605 0.84615 0.16784 0.0
C1930 C 0.47976 0.83376 0.14364 0.0
H1931 H 0.42443 0.78788 0.10243 0.0
H1932 H 0.43784 0.8034 0.12961 0.0
H1933 H 0.4212 0.81709 0.1042 0.0
H1934 H 0.4403 0.85536 0.10197 0.0
H1935 H 0.43391 0.87719 0.14395 0.0
H1936 H 0.1424 0.47625 0.60407 0.0
H1937 H 0.12128 0.47062 0.64674 0.0
H1938 H 1.07928 0.42572 0.60278 0.0
H1939 H 0.1003 0.4314 0.5598 0.0
H1940 H 1.07674 0.48109 0.64888 0.0
H1941 H 0.09199 0.39444 0.67835 0.0
H1942 H 0.10978 0.40959 0.65532 0.0
H1943 H 0.08443 0.39913 0.64247 0.0
C1944 C 0.12877 0.46503 0.60353 0.0
C1945 C 0.12283 0.45448 0.5785 0.0
C1946 C 0.11682 0.46174 0.62795 0.0
C1947 C 0.09879 0.44771 0.62791 0.0
C1948 C 0.09335 0.43636 0.60333 0.0
H1949 H 0.99062 0.45742 0.7433 0.0
H1950 H 1.01347 0.45343 0.70172 0.0
C1951 C 0.10535 0.43964 0.5788 0.0
C1952 C 0.0845 0.44689 0.65277 0.0
H1953 H 1.06496 0.41339 0.70419 0.0
C1954 C 1.07418 0.46629 0.66099 0.0
C1955 C 1.08131 0.42757 0.66853 0.0
C1956 C 0.09256 0.40649 0.66095 0.0
C1957 C 1.06066 0.46693 0.68453 0.0
C1958 C 1.05716 0.44757 0.70007 0.0
C1959 C 1.06759 0.42814 0.69204 0.0
C1960 C 1.043 0.44752 0.72503 0.0
C1961 C 1.05047 0.48842 0.69288 0.0
C1962 C 1.05197 0.44481 0.75181 0.0
C1963 C 1.03894 0.44705 0.77561 0.0
C1964 C 1.01679 0.45199 0.77287 0.0
C1965 C 1.0077 0.45381 0.74599 0.0
C1966 C 1.0207 0.45155 0.72226 0.0
H1967 H 1.05837 0.50256 0.68237 0.0
H1968 H 1.03307 0.48831 0.68687 0.0
H1969 H 1.05144 0.49085 0.71589 0.0
H1970 H 1.06915 0.44163 0.7543 0.0
H1971 H 1.04626 0.44534 0.79611 0.0
H1972 H 0.98414 0.852 0.30434 0.0
H1973 H 0.99004 0.8306 0.34714 0.0
H1974 H 0.94234 0.86965 0.39023 0.0
H1975 H 0.93645 0.89114 0.34774 0.0
H1976 H 1.00025 0.84297 0.40608 0.0
H1977 H 0.91903 0.80507 0.39066 0.0
H1978 H 0.93301 0.8197 0.36321 0.0
H1979 H 0.9193 0.83448 0.39047 0.0
C1980 C 0.97526 0.8563 0.32312 0.0
C1981 C 0.95959 0.873 0.32264 0.0
C1982 C 0.97862 0.84407 0.34748 0.0
C1983 C 0.96637 0.84841 0.37158 0.0
C1984 C 0.9517 0.86591 0.37164 0.0
H1985 H 0.97006 0.79791 0.54039 0.0
H1986 H 0.97426 0.82021 0.49806 0.0
C1987 C 0.94831 0.87808 0.34737 0.0
C1988 C 0.96748 0.83361 0.39595 0.0
H1989 H 0.93695 0.79739 0.43334 0.0
C1990 C 0.9865 0.8329 0.41206 0.0
C1991 C 0.94959 0.82029 0.40329 0.0
C1992 C 0.92912 0.8197 0.38591 0.0
C1993 C 0.98786 0.81954 0.43594 0.0
C1994 C 0.96964 0.80686 0.44386 0.0
C1995 C 0.95085 0.80723 0.42729 0.0
C1996 C 0.96939 0.79318 0.46938 0.0
C1997 C 1.00878 0.81895 0.45233 0.0
C1998 C 0.96506 0.7707 0.46722 0.0
C1999 C 0.96234 0.75807 0.49128 0.0
C2000 C 0.96388 0.76773 0.51787 0.0
C2001 C 0.96874 0.79012 0.52008 0.0
C2002 C 0.97137 0.8028 0.49596 0.0
H2003 H 1.02272 0.82481 0.43963 0.0
H2004 H 1.00729 0.82978 0.47089 0.0
H2005 H 1.0123 0.80212 0.45983 0.0
H2006 H 0.96335 0.76301 0.44689 0.0
H2007 H 0.95858 0.74083 0.48903 0.0
H2008 H 0.53472 0.72511 0.08193 0.0
H2009 H 0.557 0.72994 0.12393 0.0
H2010 H 0.60351 0.6837 0.09162 0.0
H2011 H 0.58179 0.67939 0.04921 0.0
H2012 H 0.56658 0.69772 0.16136 0.0
H2013 H 0.64254 0.73289 0.11865 0.0
H2014 H 0.61754 0.73218 0.09893 0.0
H2015 H 0.63448 0.70827 0.10096 0.0
C2016 C 0.54997 0.7164 0.08345 0.0
C2017 C 0.55646 0.70183 0.06227 0.0
C2018 C 0.5626 0.71907 0.10753 0.0
C2019 C 0.58201 0.70734 0.11077 0.0
C2020 C 0.5888 0.69322 0.08935 0.0
H2021 H 0.64465 0.66829 0.26474 0.0
H2022 H 0.62419 0.67044 0.22078 0.0
C2023 C 0.57622 0.69057 0.06527 0.0
C2024 C 0.59425 0.70844 0.13742 0.0
H2025 H 0.64462 0.71767 0.16482 0.0
C2026 C 0.58359 0.70229 0.16217 0.0
C2027 C 0.61637 0.71462 0.13847 0.0
C2028 C 0.62836 0.72258 0.11287 0.0
C2029 C 0.59462 0.70154 0.18784 0.0
C2030 C 0.61701 0.70664 0.18864 0.0
C2031 C 0.62752 0.71345 0.16406 0.0
C2032 C 0.62977 0.70513 0.21483 0.0
C2033 C 0.58213 0.69546 0.2139 0.0
C2034 C 0.64024 0.72375 0.22552 0.0
C2035 C 0.65204 0.7225 0.25043 0.0
C2036 C 0.65356 0.7026 0.26502 0.0
C2037 C 0.64345 0.68387 0.25405 0.0
C2038 C 0.63171 0.68511 0.22905 0.0
H2039 H 0.56441 0.69802 0.21115 0.0
H2040 H 0.58479 0.67788 0.21857 0.0
H2041 H 0.5877 0.70518 0.2322 0.0
H2042 H 0.63907 0.73931 0.21476 0.0
H2043 H 0.65979 0.73716 0.25839 0.0
H2044 H 0.6886 0.3703 0.04669 0.0
H2045 H 0.68308 0.34694 0.00548 0.0
H2046 H 0.70521 0.39934 0.95203 0.0
H2047 H 0.71018 0.42285 -0.00705 0.0
H2048 H 0.6702 0.37767 0.92991 0.0
H2049 H 0.73366 0.31898 0.96471 0.0
H2050 H 0.71157 0.32273 0.98873 0.0
H2051 H 0.72969 0.34511 0.98146 0.0
C2052 C 0.69225 0.37677 0.02611 0.0
C2053 C 0.70018 0.39818 0.02294 0.0
C2054 C 0.68912 0.36344 0.00264 0.0
C2055 C 0.69415 0.37128 0.97577 0.0
C2056 C 0.70132 0.39294 0.97258 0.0
H2057 H 0.73884 0.30972 0.82889 0.0
H2058 H 0.73188 0.32906 0.87249 0.0
C2059 C 0.70427 0.4063 -0.00404 0.0
C2060 C 0.69309 0.35678 0.95097 0.0
H2061 H 0.71671 0.31181 0.92167 0.0
C2062 C 0.68019 0.36313 0.92814 0.0
C2063 C 0.70628 0.33793 0.94874 0.0
C2064 C 0.72123 0.33082 0.97208 0.0
C2065 C 0.68067 0.35153 0.90276 0.0
C2066 C 0.69411 0.33288 0.90044 0.0
C2067 C 0.70636 0.32608 0.92362 0.0
C2068 C 0.69757 0.32148 0.87346 0.0
C2069 C 0.66766 0.35994 0.87825 0.0
C2070 C 0.68055 0.31076 0.8595 0.0
C2071 C 0.68442 0.2999 0.83417 0.0
C2072 C 0.70542 0.2995 0.82255 0.0
C2073 C 0.72239 0.31011 0.83684 0.0
C2074 C 0.71849 0.321 0.86196 0.0
H2075 H 0.66147 0.37676 0.88195 0.0
H2076 H 0.67763 0.36 0.85889 0.0
H2077 H 0.65353 0.34901 0.8747 0.0
H2078 H 0.66435 0.31063 0.86828 0.0
H2079 H 0.67098 0.29195 0.82364 0.0
H2080 H 0.44949 0.33573 0.18898 0.0
H2081 H 0.44255 0.36711 0.21959 0.0
H2082 H 0.40577 0.32564 0.27516 0.0
H2083 H 0.41185 0.29457 0.24448 0.0
H2084 H 0.39935 0.37965 0.22805 0.0
H2085 H 0.4394 0.36541 0.32971 0.0
H2086 H 0.44858 0.35284 0.29752 0.0
H2087 H 0.42632 0.34114 0.31687 0.0
C2088 C 0.44016 0.33323 0.20792 0.0
C2089 C 0.43102 0.31264 0.21408 0.0
C2090 C 0.43647 0.35113 0.22553 0.0
C2091 C 0.42395 0.34861 0.24983 0.0
C2092 C 0.41599 0.32782 0.25691 0.0
H2093 H 0.3277 0.38564 0.34967 0.0
H2094 H 0.36234 0.37408 0.33028 0.0
C2095 C 0.41946 0.31002 0.23923 0.0
C2096 C 0.4155 0.36787 0.26497 0.0
H2097 H 0.40497 0.38521 0.33137 0.0
C2098 C 0.40107 0.38151 0.25053 0.0
C2099 C 0.41795 0.37021 0.29419 0.0
C2100 C 0.4341 0.35674 0.31042 0.0
C2101 C 0.38698 0.39552 0.26495 0.0
C2102 C 0.38795 0.39632 0.2946 0.0
C2103 C 0.40414 0.38448 0.3087 0.0
C2104 C 0.36975 0.40537 0.31117 0.0
C2105 C 0.36975 0.40747 0.24847 0.0
C2106 C 0.36286 0.42713 0.30805 0.0
C2107 C 0.34277 0.43367 0.31877 0.0
C2108 C 0.32963 0.41868 0.33334 0.0
C2109 C 0.33754 0.39757 0.33866 0.0
C2110 C 0.35737 0.39095 0.32758 0.0
H2111 H 0.36946 0.40252 0.22608 0.0
H2112 H 0.35343 0.40436 0.25749 0.0
H2113 H 0.37294 0.42533 0.24934 0.0
H2114 H 0.37245 0.43868 0.2961 0.0
H2115 H 0.33712 0.45015 0.31477 0.0
H2116 H 0.6281 0.59061 0.39285 0.0
H2117 H 0.61822 0.55434 0.40988 0.0
H2118 H 0.68282 0.5458 0.44302 0.0
H2119 H 0.69262 0.5826 0.42666 0.0
H2120 H 0.63239 0.51167 0.40478 0.0
H2121 H 0.64618 0.54359 0.51293 0.0
H2122 H 0.64692 0.56133 0.48285 0.0
H2123 H 0.6691 0.54305 0.48977 0.0
C2124 C 0.64034 0.58083 0.40324 0.0
C2125 C 0.661 0.58947 0.40886 0.0
C2126 C 0.63471 0.56008 0.4129 0.0
C2127 C 0.64967 0.54755 0.42816 0.0
C2128 C 0.6709 0.55542 0.43184 0.0
H2129 H 0.58553 0.46064 0.54571 0.0
H2130 H 0.61633 0.46893 0.5151 0.0
C2131 C 0.67646 0.57638 0.42252 0.0
C2132 C 0.64179 0.52785 0.44304 0.0
H2133 H 0.62585 0.51191 0.50823 0.0
C2134 C 0.63144 0.51135 0.42745 0.0
C2135 C 0.64077 0.52732 0.47265 0.0
C2136 C 0.6512 0.54477 0.49064 0.0
C2137 C 0.61843 0.49554 0.44059 0.0
C2138 C 0.61569 0.49642 0.46992 0.0
C2139 C 0.62796 0.51135 0.48569 0.0
C2140 C 0.59709 0.48586 0.48406 0.0
C2141 C 0.60671 0.47889 0.42285 0.0
C2142 C 0.57602 0.49208 0.47633 0.0
C2143 C 0.5585 0.48774 0.49393 0.0
C2144 C 0.56174 0.47711 0.51968 0.0
C2145 C 0.58259 0.46925 0.52626 0.0
C2146 C 0.60016 0.47373 0.50867 0.0
H2147 H 0.61642 0.47462 0.40403 0.0
H2148 H 0.60318 0.46372 0.43483 0.0
H2149 H 0.59113 0.48594 0.41552 0.0
H2150 H 0.57331 0.50198 0.45784 0.0
H2151 H 0.54278 0.49429 0.48831 0.0
H2152 H 0.32119 0.87461 0.65448 0.0
H2153 H 0.35713 0.86613 0.67314 0.0
H2154 H 0.36745 0.93434 0.6923 0.0
H2155 H 0.33126 0.94298 0.67364 0.0
H2156 H 0.40255 0.8855 0.66279 0.0
H2157 H 0.36681 0.8988 0.76886 0.0
H2158 H 0.34946 0.89465 0.73889 0.0
H2159 H 0.36454 0.91963 0.74235 0.0
C2160 C 0.33124 0.88783 0.66232 0.0
C2161 C 0.32341 0.90937 0.66302 0.0
C2162 C 0.35181 0.88303 0.67268 0.0
C2163 C 0.36482 0.89963 0.68409 0.0
C2164 C 0.35759 0.92137 0.68348 0.0
H2165 H 0.44283 0.83499 0.80793 0.0
H2166 H 0.4363 0.86736 0.77915 0.0
C2167 C 0.33699 0.92624 0.67286 0.0
C2168 C 0.38432 0.89323 0.69996 0.0
H2169 H 0.39736 0.87654 0.76573 0.0
C2170 C 0.40189 0.88412 0.68542 0.0
C2171 C 0.38359 0.89187 0.72945 0.0
C2172 C 0.36514 0.90171 0.746 0.0
C2173 C 0.41769 0.8718 0.69949 0.0
C2174 C 0.4153 0.86796 0.72854 0.0
C2175 C 0.39914 0.87925 0.74341 0.0
C2176 C 0.42575 0.84913 0.74271 0.0
C2177 C 0.43608 0.86209 0.68282 0.0
C2178 C 0.42295 0.82807 0.73143 0.0
C2179 C 0.42694 0.80959 0.74769 0.0
C2180 C 0.43337 0.81175 0.77576 0.0
C2181 C 0.43792 0.83275 0.78635 0.0
C2182 C 0.43414 0.8513 0.76993 0.0
H2183 H 0.44162 0.87377 0.66649 0.0
H2184 H 0.45009 0.85773 0.69633 0.0
H2185 H 0.43027 0.84715 0.67189 0.0
H2186 H 0.41599 0.82582 0.71082 0.0
H2187 H 0.4237 0.79361 0.73877 0.0
H2188 H 1.07826 0.70203 0.04173 0.0
H2189 H 1.0427 0.69503 0.0201 0.0
H2190 H 1.05649 0.62583 0.01934 0.0
H2191 H 0.09128 0.63253 0.04165 0.0
H2192 H 1.0335 0.67664 0.96961 0.0
H2193 H 0.99611 0.62635 0.05162 0.0
H2194 H 1.01938 0.64361 0.05846 0.0
H2195 H 1.02288 0.61615 0.04526 0.0
C2196 C 1.0735 0.68532 0.03728 0.0
C2197 C 0.08761 0.66782 0.04328 0.0
C2198 C 1.05324 0.68137 0.02492 0.0
C2199 C 1.04675 0.65988 0.01876 0.0
C2200 C 1.06088 0.6425 0.02466 0.0
H2201 H 1.00841 0.58608 0.89642 0.0
H2202 H 1.01692 0.61932 0.92167 0.0
C2203 C 1.08097 0.64639 0.03695 0.0
C2204 C 1.02612 0.65512 0.00411 0.0
H2205 H 0.98792 0.61499 0.00291 0.0
C2206 C 1.02298 0.66367 0.97716 0.0
C2207 C 1.01169 0.639 0.01432 0.0
C2208 C 1.01257 0.631 0.04417 0.0
C2209 C 1.00786 0.65417 0.95881 0.0
C2210 C 0.99633 0.63528 0.96744 0.0
C2211 C 0.99715 0.62903 -0.00426 0.0
C2212 C 0.98771 0.6191 0.94704 0.0
C2213 C 1.00541 0.66368 0.92987 0.0
C2214 C 0.96823 0.60781 0.95234 0.0
C2215 C 0.96359 0.58828 0.93823 0.0
C2216 C 0.97825 0.57991 0.91841 0.0
C2217 C 0.99665 0.59227 0.91129 0.0
C2218 C 1.00143 0.61152 0.92565 0.0
H2219 H 1.00558 0.68185 0.93089 0.0
H2220 H 1.01941 0.65866 0.91676 0.0
H2221 H 0.99013 0.65827 0.91963 0.0
H2222 H 0.95738 0.61325 0.96877 0.0
H2223 H 0.9492 0.5791 0.94394 0.0
H2224 H 0.83054 0.94852 0.81955 0.0
H2225 H 0.8647 0.94147 0.79506 0.0
H2226 H 0.82897 0.91889 0.72294 0.0
H2227 H 0.79504 0.92515 0.7473 0.0
H2228 H 0.87154 0.89822 0.78162 0.0
H2229 H 0.88145 0.94846 0.68669 0.0
H2230 H 0.86493 0.95701 0.71603 0.0
H2231 H 0.85409 0.93871 0.68992 0.0
C2232 C 0.82996 0.94252 0.79822 0.0
C2233 C 0.81003 0.93698 0.78561 0.0
C2234 C 0.8495 0.93877 0.78416 0.0
C2235 C 0.84937 0.92982 0.75713 0.0
C2236 C 0.82947 0.9263 0.74354 0.0
H2237 H 0.88839 0.83676 0.65038 0.0
H2238 H 0.87802 0.87056 0.67388 0.0
C2239 C 0.80999 0.92984 0.75762 0.0
C2240 C 0.869 0.91925 0.74567 0.0
H2241 H 0.89487 0.91073 0.68361 0.0
C2242 C 0.87731 0.90134 0.76053 0.0
C2243 C 0.87644 0.92345 0.71825 0.0
C2244 C 0.86889 0.94312 0.70193 0.0
C2245 C 0.89076 0.88592 0.74753 0.0
C2246 C 0.89662 0.88903 0.71913 0.0
C2247 C 0.89024 0.90827 0.70529 0.0
C2248 C 0.90551 0.87082 0.7022 0.0
C2249 C 0.89658 0.86541 0.76349 0.0
C2250 C 0.92479 0.86007 0.70968 0.0
C2251 C 0.93047 0.84039 0.69663 0.0
C2252 C 0.91726 0.83162 0.67542 0.0
C2253 C 0.89887 0.84324 0.66662 0.0
C2254 C 0.893 0.8626 0.67997 0.0
H2255 H 0.88777 0.86414 0.78372 0.0
H2256 H 0.89282 0.8506 0.75089 0.0
H2257 H 0.91422 0.86546 0.76813 0.0
H2258 H 0.93496 0.86642 0.7263 0.0
H2259 H 0.94491 0.83182 0.70345 0.0
H2260 H 0.83706 0.45398 0.17108 0.0
H2261 H 0.87215 0.44271 0.19044 0.0
H2262 H 0.86228 0.37782 0.15683 0.0
H2263 H 0.82798 0.38922 0.13679 0.0
H2264 H 0.87425 0.41593 0.23008 0.0
H2265 H 0.92563 0.37992 0.14917 0.0
H2266 H 0.90331 0.39773 0.1402 0.0
H2267 H 0.89919 0.36856 0.14393 0.0
C2268 C 0.84286 0.43754 0.16706 0.0
C2269 C 0.82981 0.42242 0.15258 0.0
C2270 C 0.86292 0.43114 0.17801 0.0
C2271 C 0.87011 0.40945 0.17491 0.0
C2272 C 0.85765 0.39483 0.1588 0.0
H2273 H 0.88567 0.31523 0.28547 0.0
H2274 H 0.87956 0.34789 0.25757 0.0
C2275 C 0.83783 0.40131 0.14751 0.0
C2276 C 0.88757 0.40061 0.19309 0.0
H2277 H 0.9236 0.35833 0.19434 0.0
C2278 C 0.88568 0.40398 0.22209 0.0
C2279 C 0.90309 0.38545 0.18307 0.0
C2280 C 0.90803 0.38298 0.15232 0.0
C2281 C 0.89648 0.39044 0.24114 0.0
C2282 C 0.90897 0.37282 0.2309 0.0
C2283 C 0.91341 0.37144 0.20215 0.0
C2284 C 0.91358 0.35362 0.24873 0.0
C2285 C 0.89304 0.39408 0.27206 0.0
C2286 C 0.93473 0.34562 0.25236 0.0
C2287 C 0.93826 0.32664 0.26816 0.0
C2288 C 0.92063 0.31529 0.28006 0.0
C2289 C 0.89955 0.32342 0.27628 0.0
C2290 C 0.89607 0.3423 0.26069 0.0
H2291 H 0.89095 0.41178 0.2767 0.0
H2292 H 0.87799 0.38555 0.27874 0.0
H2293 H 0.90685 0.38771 0.28458 0.0
H2294 H 0.9484 0.35399 0.24293 0.0
H2295 H 0.95467 0.32062 0.27063 0.0
H2296 H 0.12539 0.20043 -0.00031 0.0
H2297 H 0.09745 0.19333 0.03521 0.0
H2298 H 1.05776 0.16162 0.97267 0.0
H2299 H 0.08513 0.16931 0.93719 0.0
H2300 H 1.033 0.18344 0.01119 0.0
H2301 H 0.0952 0.13152 0.06405 0.0
H2302 H 0.10105 0.16022 0.06135 0.0
H2303 H 0.10003 0.14364 0.03026 0.0
C2304 C 0.11047 0.19234 -0.00645 0.0
C2305 C 0.10747 0.18516 0.96584 0.0
C2306 C 0.09458 0.18827 0.0138 0.0
C2307 C 1.07578 0.17649 0.0067 0.0
C2308 C 1.07215 0.17074 0.97863 0.0
H2309 H 0.99288 1.07954 0.03884 0.0
H2310 H 1.0079 0.11485 0.02598 0.0
C2311 C 0.08781 0.1751 0.95836 0.0
C2312 C 1.06116 0.16744 0.02841 0.0
H2313 H 1.05929 0.1266 0.07696 0.0
C2314 C 1.03877 0.1714 0.02611 0.0
C2315 C 1.06872 0.15184 0.04805 0.0
C2316 C 0.09251 0.14637 0.0511 0.0
C2317 C 1.02368 0.15886 0.04119 0.0
C2318 C 1.03123 0.14199 0.05886 0.0
C2319 C 1.05359 0.13958 0.06333 0.0
C2320 C 1.017 0.12392 0.06821 0.0
C2321 C 0.99979 0.16294 0.0369 0.0
C2322 C 1.01669 0.11742 0.09637 0.0
C2323 C 1.00796 0.09712 0.10388 0.0
C2324 C 0.99974 1.08286 0.08326 0.0
C2325 C 0.99876 0.09014 0.05537 0.0
C2326 C 1.00731 0.11046 0.04795 0.0
H2327 H 0.99669 0.18043 0.03196 0.0
H2328 H 0.99399 0.15304 0.0189 0.0
H2329 H 0.99024 0.1583 0.05571 0.0
H2330 H 1.02426 0.12752 0.11228 0.0
H2331 H 1.00859 0.09218 0.12564 0.0
H2332 H 0.58984 0.20425 0.53646 0.0
H2333 H 0.5548 0.19793 0.51309 0.0
H2334 H 0.56219 0.12843 0.5259 0.0
H2335 H 0.59642 0.13462 0.5498 0.0
H2336 H 0.54762 0.17541 0.46551 0.0
H2337 H 0.49999 0.13648 0.54856 0.0
H2338 H 0.52394 0.15259 0.55612 0.0
H2339 H 0.52614 0.12378 0.54814 0.0
C2340 C 0.58371 0.18769 0.53467 0.0
C2341 C 0.59591 0.1699 0.54474 0.0
C2342 C 0.56375 0.18412 0.52136 0.0
C2343 C 0.55564 0.16277 0.51837 0.0
C2344 C 0.56776 0.14511 0.52872 0.0
H2345 H 0.52455 1.07953 0.40349 0.0
H2346 H 0.53288 0.11418 0.42583 0.0
C2347 C 0.58757 0.14863 0.54191 0.0
C2348 C 0.5359 0.15806 0.50182 0.0
H2349 H 0.49578 0.11987 0.50108 0.0
C2350 C 0.53571 0.16388 0.47342 0.0
C2351 C 0.51965 0.14388 0.51222 0.0
C2352 C 0.51732 0.1391 0.54305 0.0
C2353 C 0.5219 0.15315 0.45449 0.0
C2354 C 0.50868 0.13579 0.46424 0.0
C2355 C 0.50641 0.13263 0.49323 0.0
C2356 C 0.50133 0.11791 0.44545 0.0
C2357 C 0.52272 0.15955 0.42403 0.0
C2358 C 0.48079 0.10823 0.44885 0.0
C2359 C 0.47622 1.08796 0.43657 0.0
C2360 C 0.49205 1.07719 0.42049 0.0
C2361 C 0.51196 1.08761 0.41545 0.0
C2362 C 0.51663 0.10763 0.42803 0.0
H2363 H 0.52389 0.17762 0.42199 0.0
H2364 H 0.53751 0.15253 0.41427 0.0
H2365 H 0.5082 0.15375 0.41238 0.0
H2366 H 0.46876 0.11573 0.4623 0.0
H2367 H 0.46067 1.08029 0.44056 0.0
loop_
_geom_bond_atom_site_label_1
_geom_bond_atom_site_label_2
_geom_bond_distance
_geom_bond_site_symmetry_2
_ccdc_geom_bond_type
C0 Eu1 2.835 . S
C0 C2 1.500 . S
C0 O20 1.257 . S
C0 O21 1.260 . S
Eu1 C0 2.835 . S
Eu1 O20 2.473 . S
Eu1 O21 2.480 . S
Eu1 O22 2.430 . S
Eu1 O23 2.670 . S
Eu1 O24 2.394 . S
Eu1 O29 2.355 . S
Eu1 O31 2.374 . S
C2 C0 1.500 . S
C2 C3 1.377 . S
C2 C7 1.377 . S
C3 C2 1.377 . S
C3 C4 1.395 . S
C3 H32 0.931 . S
C4 C3 1.395 . S
C4 C5 1.383 . S
C4 H33 0.931 . S
C5 C4 1.383 . S
C5 C6 1.394 . S
C6 C5 1.394 . S
C6 C7 1.378 . S
C6 H34 0.931 . S
C7 C2 1.377 . S
C7 C6 1.378 . S
C7 H35 0.931 . S
C8 O22 1.259 . S
C8 O23 1.270 . S
C9 O24 1.251 . S
C9 O25 1.251 . S
C10 Eu11 2.835 1_556 S
C10 C12 1.500 . S
C10 O26 1.257 . S
C10 O27 1.260 . S
Eu11 C10 2.835 1_554 S
Eu11 O23 2.355 . S
Eu11 O25 2.374 . S
Eu11 O26 2.473 1_554 S
Eu11 O27 2.480 1_554 S
Eu11 O28 2.430 . S
Eu11 O29 2.670 . S
Eu11 O30 2.394 . S
C12 C10 1.500 . S
C12 C13 1.377 . S
C12 C17 1.377 . S
C13 C12 1.377 . S
C13 C14 1.395 . S
C13 H36 0.931 . S
C14 C13 1.395 . S
C14 C15 1.383 . S
C14 H37 0.931 . S
C15 C14 1.383 . S
C15 C16 1.394 . S
C16 C15 1.394 . S
C16 C17 1.378 . S
C16 H38 0.931 . S
C17 C12 1.377 . S
C17 C16 1.378 . S
C17 H39 0.931 . S
C18 O28 1.259 . S
C18 O29 1.270 . S
C19 O30 1.251 . S
C19 O31 1.251 . S
O20 C0 1.257 . S
O20 Eu1 2.473 . S
O21 C0 1.260 . S
O21 Eu1 2.480 . S
O22 Eu1 2.430 . S
O22 C8 1.259 . S
O23 Eu1 2.670 . S
O23 C8 1.270 . S
O23 Eu11 2.355 . S
O24 Eu1 2.394 . S
O24 C9 1.251 . S
O25 C9 1.251 . S
O25 Eu11 2.374 . S
O26 C10 1.257 . S
O26 Eu11 2.473 1_556 S
O27 C10 1.260 . S
O27 Eu11 2.480 1_556 S
O28 Eu11 2.430 . S
O28 C18 1.259 . S
O29 Eu1 2.355 . S
O29 Eu11 2.670 . S
O29 C18 1.270 . S
O30 Eu11 2.394 . S
O30 C19 1.251 . S
O31 Eu1 2.374 . S
O31 C19 1.251 . S
H32 C3 0.931 . S
H33 C4 0.931 . S
H34 C6 0.931 . S
H35 C7 0.931 . S
H36 C13 0.931 . S
H37 C14 0.931 . S
H38 C16 0.931 . S
H39 C17 0.931 . S
C40 Eu41 2.835 . S
C40 C42 1.500 . S
C40 O60 1.257 . S
C40 O61 1.260 . S
Eu41 C40 2.835 . S
Eu41 O60 2.473 . S
Eu41 O61 2.480 . S
Eu41 O62 2.430 . S
Eu41 O63 2.670 . S
Eu41 O64 2.394 . S
Eu41 O69 2.355 . S
Eu41 O71 2.374 . S
C42 C40 1.500 . S
C42 C43 1.377 . S
C42 C47 1.377 . S
C43 C42 1.377 . S
C43 C44 1.395 . S
C43 H72 0.931 . S
C44 C43 1.395 . S
C44 C45 1.383 . S
C44 H73 0.931 . S
C45 C44 1.383 . S
C45 C46 1.394 . S
C46 C45 1.394 . S
C46 C47 1.378 . S
C46 H74 0.931 . S
C47 C42 1.377 . S
C47 C46 1.378 . S
C47 H75 0.931 . S
C48 O62 1.259 . S
C48 O63 1.270 . S
C49 O64 1.251 . S
C49 O65 1.251 . S
C50 Eu51 2.835 . S
C50 C52 1.500 . S
C50 O66 1.257 . S
C50 O67 1.260 . S
Eu51 C50 2.835 . S
Eu51 O63 2.355 . S
Eu51 O65 2.374 . S
Eu51 O66 2.473 . S
Eu51 O67 2.480 . S
Eu51 O68 2.430 . S
Eu51 O69 2.670 . S
Eu51 O70 2.394 . S
C52 C50 1.500 . S
C52 C53 1.377 . S
C52 C57 1.377 . S
C53 C52 1.377 . S
C53 C54 1.395 . S
C53 H76 0.931 . S
C54 C53 1.395 . S
C54 C55 1.383 . S
C54 H77 0.931 . S
C55 C54 1.383 . S
C55 C56 1.394 . S
C56 C55 1.394 . S
C56 C57 1.378 . S
C56 H78 0.931 . S
C57 C52 1.377 . S
C57 C56 1.378 . S
C57 H79 0.931 . S
C58 O68 1.259 . S
C58 O69 1.270 . S
C59 O70 1.251 . S
C59 O71 1.251 . S
O60 C40 1.257 . S
O60 Eu41 2.473 . S
O61 C40 1.260 . S
O61 Eu41 2.480 . S
O62 Eu41 2.430 . S
O62 C48 1.259 . S
O63 Eu41 2.670 . S
O63 C48 1.270 . S
O63 Eu51 2.355 . S
O64 Eu41 2.394 . S
O64 C49 1.251 . S
O65 C49 1.251 . S
O65 Eu51 2.374 . S
O66 C50 1.257 . S
O66 Eu51 2.473 . S
O67 C50 1.260 . S
O67 Eu51 2.480 . S
O68 Eu51 2.430 . S
O68 C58 1.259 . S
O69 Eu41 2.355 . S
O69 Eu51 2.670 . S
O69 C58 1.270 . S
O70 Eu51 2.394 . S
O70 C59 1.251 . S
O71 Eu41 2.374 . S
O71 C59 1.251 . S
H72 C43 0.931 . S
H73 C44 0.931 . S
H74 C46 0.931 . S
H75 C47 0.931 . S
H76 C53 0.931 . S
H77 C54 0.931 . S
H78 C56 0.931 . S
H79 C57 0.931 . S
C80 Eu81 2.835 . S
C80 C82 1.500 . S
C80 O100 1.257 . S
C80 O101 1.260 . S
Eu81 C80 2.835 . S
Eu81 O100 2.473 . S
Eu81 O101 2.480 . S
Eu81 O102 2.430 . S
Eu81 O103 2.670 . S
Eu81 O104 2.394 . S
Eu81 O109 2.355 . S
Eu81 O111 2.374 . S
C82 C80 1.500 . S
C82 C83 1.377 . S
C82 C87 1.377 . S
C83 C82 1.377 . S
C83 C84 1.395 . S
C83 H112 0.931 . S
C84 C83 1.395 . S
C84 C85 1.383 . S
C84 H113 0.931 . S
C85 C84 1.383 . S
C85 C86 1.394 . S
C86 C85 1.394 . S
C86 C87 1.378 . S
C86 H114 0.931 . S
C87 C82 1.377 . S
C87 C86 1.378 . S
C87 H115 0.931 . S
C88 O102 1.259 . S
C88 O103 1.270 . S
C89 O104 1.251 . S
C89 O105 1.251 . S
C90 Eu91 2.835 . S
C90 C92 1.500 . S
C90 O106 1.257 . S
C90 O107 1.260 . S
Eu91 C90 2.835 . S
Eu91 O103 2.355 . S
Eu91 O105 2.374 . S
Eu91 O106 2.473 . S
Eu91 O107 2.480 . S
Eu91 O108 2.430 . S
Eu91 O109 2.670 . S
Eu91 O110 2.394 . S
C92 C90 1.500 . S
C92 C93 1.377 . S
C92 C97 1.377 . S
C93 C92 1.377 . S
C93 C94 1.395 . S
C93 H116 0.931 . S
C94 C93 1.395 . S
C94 C95 1.383 . S
C94 H117 0.931 . S
C95 C94 1.383 . S
C95 C96 1.394 . S
C96 C95 1.394 . S
C96 C97 1.378 . S
C96 H118 0.931 . S
C97 C92 1.377 . S
C97 C96 1.378 . S
C97 H119 0.931 . S
C98 O108 1.259 . S
C98 O109 1.270 . S
C99 O110 1.251 . S
C99 O111 1.251 . S
O100 C80 1.257 . S
O100 Eu81 2.473 . S
O101 C80 1.260 . S
O101 Eu81 2.480 . S
O102 Eu81 2.430 . S
O102 C88 1.259 . S
O103 Eu81 2.670 . S
O103 C88 1.270 . S
O103 Eu91 2.355 . S
O104 Eu81 2.394 . S
O104 C89 1.251 . S
O105 C89 1.251 . S
O105 Eu91 2.374 . S
O106 C90 1.257 . S
O106 Eu91 2.473 . S
O107 C90 1.260 . S
O107 Eu91 2.480 . S
O108 Eu91 2.430 . S
O108 C98 1.259 . S
O109 Eu81 2.355 . S
O109 Eu91 2.670 . S
O109 C98 1.270 . S
O110 Eu91 2.394 . S
O110 C99 1.251 . S
O111 Eu81 2.374 . S
O111 C99 1.251 . S
H112 C83 0.931 . S
H113 C84 0.931 . S
H114 C86 0.931 . S
H115 C87 0.931 . S
H116 C93 0.931 . S
H117 C94 0.931 . S
H118 C96 0.931 . S
H119 C97 0.931 . S
C120 Eu121 2.835 . S
C120 C122 1.500 . S
C120 O140 1.257 . S
C120 O141 1.260 . S
Eu121 C120 2.835 . S
Eu121 O140 2.473 . S
Eu121 O141 2.480 . S
Eu121 O142 2.430 . S
Eu121 O143 2.670 . S
Eu121 O144 2.394 . S
Eu121 O149 2.355 . S
Eu121 O151 2.374 . S
C122 C120 1.500 . S
C122 C123 1.377 . S
C122 C127 1.377 . S
C123 C122 1.377 . S
C123 C124 1.395 . S
C123 H152 0.931 . S
C124 C123 1.395 . S
C124 C125 1.383 . S
C124 H153 0.931 . S
C125 C124 1.383 . S
C125 C126 1.394 . S
C126 C125 1.394 . S
C126 C127 1.378 . S
C126 H154 0.931 . S
C127 C122 1.377 . S
C127 C126 1.378 . S
C127 H155 0.931 . S
C128 O142 1.259 . S
C128 O143 1.270 . S
C129 O144 1.251 . S
C129 O145 1.251 . S
C130 Eu131 2.835 . S
C130 C132 1.500 . S
C130 O146 1.257 . S
C130 O147 1.260 . S
Eu131 C130 2.835 . S
Eu131 O143 2.355 . S
Eu131 O145 2.374 . S
Eu131 O146 2.473 . S
Eu131 O147 2.480 . S
Eu131 O148 2.430 . S
Eu131 O149 2.670 . S
Eu131 O150 2.394 . S
C132 C130 1.500 . S
C132 C133 1.377 . S
C132 C137 1.377 . S
C133 C132 1.377 . S
C133 C134 1.395 . S
C133 H156 0.931 . S
C134 C133 1.395 . S
C134 C135 1.383 . S
C134 H157 0.931 . S
C135 C134 1.383 . S
C135 C136 1.394 . S
C136 C135 1.394 . S
C136 C137 1.378 . S
C136 H158 0.931 . S
C137 C132 1.377 . S
C137 C136 1.378 . S
C137 H159 0.931 . S
C138 O148 1.259 . S
C138 O149 1.270 . S
C139 O150 1.251 . S
C139 O151 1.251 . S
O140 C120 1.257 . S
O140 Eu121 2.473 . S
O141 C120 1.260 . S
O141 Eu121 2.480 . S
O142 Eu121 2.430 . S
O142 C128 1.259 . S
O143 Eu121 2.670 . S
O143 C128 1.270 . S
O143 Eu131 2.355 . S
O144 Eu121 2.394 . S
O144 C129 1.251 . S
O145 C129 1.251 . S
O145 Eu131 2.374 . S
O146 C130 1.257 . S
O146 Eu131 2.473 . S
O147 C130 1.260 . S
O147 Eu131 2.480 . S
O148 Eu131 2.430 . S
O148 C138 1.259 . S
O149 Eu121 2.355 . S
O149 Eu131 2.670 . S
O149 C138 1.270 . S
O150 Eu131 2.394 . S
O150 C139 1.251 . S
O151 Eu121 2.374 . S
O151 C139 1.251 . S
H152 C123 0.931 . S
H153 C124 0.931 . S
H154 C126 0.931 . S
H155 C127 0.931 . S
H156 C133 0.931 . S
H157 C134 0.931 . S
H158 C136 0.931 . S
H159 C137 0.931 . S
C160 Eu161 2.835 1_554 S
C160 C162 1.500 . S
C160 O180 1.257 . S
C160 O181 1.260 . S
Eu161 C160 2.835 1_556 S
Eu161 O180 2.473 1_556 S
Eu161 O181 2.480 1_556 S
Eu161 O182 2.430 . S
Eu161 O183 2.670 . S
Eu161 O184 2.394 . S
Eu161 O189 2.355 . S
Eu161 O191 2.374 . S
C162 C160 1.500 . S
C162 C163 1.377 . S
C162 C167 1.377 . S
C163 C162 1.377 . S
C163 C164 1.395 . S
C163 H192 0.931 . S
C164 C163 1.395 . S
C164 C165 1.383 . S
C164 H193 0.931 . S
C165 C164 1.383 . S
C165 C166 1.394 . S
C166 C165 1.394 . S
C166 C167 1.378 . S
C166 H194 0.931 . S
C167 C162 1.377 . S
C167 C166 1.378 . S
C167 H195 0.931 . S
C168 O182 1.259 . S
C168 O183 1.270 . S
C169 O184 1.251 . S
C169 O185 1.251 . S
C170 Eu171 2.835 . S
C170 C172 1.500 . S
C170 O186 1.257 . S
C170 O187 1.260 . S
Eu171 C170 2.835 . S
Eu171 O183 2.355 . S
Eu171 O185 2.374 . S
Eu171 O186 2.473 . S
Eu171 O187 2.480 . S
Eu171 O188 2.430 . S
Eu171 O189 2.670 . S
Eu171 O190 2.394 . S
C172 C170 1.500 . S
C172 C173 1.377 . S
C172 C177 1.377 . S
C173 C172 1.377 . S
C173 C174 1.395 . S
C173 H196 0.931 . S
C174 C173 1.395 . S
C174 C175 1.383 . S
C174 H197 0.931 . S
C175 C174 1.383 . S
C175 C176 1.394 . S
C176 C175 1.394 . S
C176 C177 1.378 . S
C176 H198 0.931 . S
C177 C172 1.377 . S
C177 C176 1.378 . S
C177 H199 0.931 . S
C178 O188 1.259 . S
C178 O189 1.270 . S
C179 O190 1.251 . S
C179 O191 1.251 . S
O180 C160 1.257 . S
O180 Eu161 2.473 1_554 S
O181 C160 1.260 . S
O181 Eu161 2.480 1_554 S
O182 Eu161 2.430 . S
O182 C168 1.259 . S
O183 Eu161 2.670 . S
O183 C168 1.270 . S
O183 Eu171 2.355 . S
O184 Eu161 2.394 . S
O184 C169 1.251 . S
O185 C169 1.251 . S
O185 Eu171 2.374 . S
O186 C170 1.257 . S
O186 Eu171 2.473 . S
O187 C170 1.260 . S
O187 Eu171 2.480 . S
O188 Eu171 2.430 . S
O188 C178 1.259 . S
O189 Eu161 2.355 . S
O189 Eu171 2.670 . S
O189 C178 1.270 . S
O190 Eu171 2.394 . S
O190 C179 1.251 . S
O191 Eu161 2.374 . S
O191 C179 1.251 . S
H192 C163 0.931 . S
H193 C164 0.931 . S
H194 C166 0.931 . S
H195 C167 0.931 . S
H196 C173 0.931 . S
H197 C174 0.931 . S
H198 C176 0.931 . S
H199 C177 0.931 . S
C200 Eu201 2.835 . S
C200 C202 1.500 . S
C200 O220 1.257 . S
C200 O221 1.260 . S
Eu201 C200 2.835 . S
Eu201 O220 2.473 . S
Eu201 O221 2.480 . S
Eu201 O222 2.430 . S
Eu201 O223 2.670 . S
Eu201 O224 2.394 . S
Eu201 O229 2.355 . S
Eu201 O231 2.374 . S
C202 C200 1.500 . S
C202 C203 1.377 . S
C202 C207 1.377 . S
C203 C202 1.377 . S
C203 C204 1.395 . S
C203 H232 0.931 . S
C204 C203 1.395 . S
C204 C205 1.383 . S
C204 H233 0.931 . S
C205 C204 1.383 . S
C205 C206 1.394 . S
C206 C205 1.394 . S
C206 C207 1.378 . S
C206 H234 0.931 . S
C207 C202 1.377 . S
C207 C206 1.378 . S
C207 H235 0.931 . S
C208 O222 1.259 . S
C208 O223 1.270 . S
C209 O224 1.251 . S
C209 O225 1.251 . S
C210 Eu211 2.835 . S
C210 C212 1.500 . S
C210 O226 1.257 . S
C210 O227 1.260 . S
Eu211 C210 2.835 . S
Eu211 O223 2.355 . S
Eu211 O225 2.374 . S
Eu211 O226 2.473 . S
Eu211 O227 2.480 . S
Eu211 O228 2.430 . S
Eu211 O229 2.670 . S
Eu211 O230 2.394 . S
C212 C210 1.500 . S
C212 C213 1.377 . S
C212 C217 1.377 . S
C213 C212 1.377 . S
C213 C214 1.395 . S
C213 H236 0.931 . S
C214 C213 1.395 . S
C214 C215 1.383 . S
C214 H237 0.931 . S
C215 C214 1.383 . S
C215 C216 1.394 . S
C216 C215 1.394 . S
C216 C217 1.378 . S
C216 H238 0.931 . S
C217 C212 1.377 . S
C217 C216 1.378 . S
C217 H239 0.931 . S
C218 O228 1.259 . S
C218 O229 1.270 . S
C219 O230 1.251 . S
C219 O231 1.251 . S
O220 C200 1.257 . S
O220 Eu201 2.473 . S
O221 C200 1.260 . S
O221 Eu201 2.480 . S
O222 Eu201 2.430 . S
O222 C208 1.259 . S
O223 Eu201 2.670 . S
O223 C208 1.270 . S
O223 Eu211 2.355 . S
O224 Eu201 2.394 . S
O224 C209 1.251 . S
O225 C209 1.251 . S
O225 Eu211 2.374 . S
O226 C210 1.257 . S
O226 Eu211 2.473 . S
O227 C210 1.260 . S
O227 Eu211 2.480 . S
O228 Eu211 2.430 . S
O228 C218 1.259 . S
O229 Eu201 2.355 . S
O229 Eu211 2.670 . S
O229 C218 1.270 . S
O230 Eu211 2.394 . S
O230 C219 1.251 . S
O231 Eu201 2.374 . S
O231 C219 1.251 . S
H232 C203 0.931 . S
H233 C204 0.931 . S
H234 C206 0.931 . S
H235 C207 0.931 . S
H236 C213 0.931 . S
H237 C214 0.931 . S
H238 C216 0.931 . S
H239 C217 0.931 . S
C240 Eu241 2.835 . S
C240 C242 1.500 . S
C240 O260 1.257 . S
C240 O261 1.260 . S
Eu241 C240 2.835 . S
Eu241 O260 2.473 . S
Eu241 O261 2.480 . S
Eu241 O262 2.430 . S
Eu241 O263 2.670 . S
Eu241 O264 2.394 . S
Eu241 O269 2.355 . S
Eu241 O271 2.374 . S
C242 C240 1.500 . S
C242 C243 1.377 . S
C242 C247 1.377 . S
C243 C242 1.377 . S
C243 C244 1.395 . S
C243 H272 0.931 . S
C244 C243 1.395 . S
C244 C245 1.383 . S
C244 H273 0.931 . S
C245 C244 1.383 . S
C245 C246 1.394 . S
C246 C245 1.394 . S
C246 C247 1.378 . S
C246 H274 0.931 . S
C247 C242 1.377 . S
C247 C246 1.378 . S
C247 H275 0.931 . S
C248 O262 1.259 . S
C248 O263 1.270 . S
C249 O264 1.251 . S
C249 O265 1.251 . S
C250 Eu251 2.835 . S
C250 C252 1.500 . S
C250 O266 1.257 . S
C250 O267 1.260 . S
Eu251 C250 2.835 . S
Eu251 O263 2.355 . S
Eu251 O265 2.374 . S
Eu251 O266 2.473 . S
Eu251 O267 2.480 . S
Eu251 O268 2.430 . S
Eu251 O269 2.670 . S
Eu251 O270 2.394 . S
C252 C250 1.500 . S
C252 C253 1.377 . S
C252 C257 1.377 . S
C253 C252 1.377 . S
C253 C254 1.395 . S
C253 H276 0.931 . S
C254 C253 1.395 . S
C254 C255 1.383 . S
C254 H277 0.931 . S
C255 C254 1.383 . S
C255 C256 1.394 . S
C256 C255 1.394 . S
C256 C257 1.378 . S
C256 H278 0.931 . S
C257 C252 1.377 . S
C257 C256 1.378 . S
C257 H279 0.931 . S
C258 O268 1.259 . S
C258 O269 1.270 . S
C259 O270 1.251 . S
C259 O271 1.251 . S
O260 C240 1.257 . S
O260 Eu241 2.473 . S
O261 C240 1.260 . S
O261 Eu241 2.480 . S
O262 Eu241 2.430 . S
O262 C248 1.259 . S
O263 Eu241 2.670 . S
O263 C248 1.270 . S
O263 Eu251 2.355 . S
O264 Eu241 2.394 . S
O264 C249 1.251 . S
O265 C249 1.251 . S
O265 Eu251 2.374 . S
O266 C250 1.257 . S
O266 Eu251 2.473 . S
O267 C250 1.260 . S
O267 Eu251 2.480 . S
O268 Eu251 2.430 . S
O268 C258 1.259 . S
O269 Eu241 2.355 . S
O269 Eu251 2.670 . S
O269 C258 1.270 . S
O270 Eu251 2.394 . S
O270 C259 1.251 . S
O271 Eu241 2.374 . S
O271 C259 1.251 . S
H272 C243 0.931 . S
H273 C244 0.931 . S
H274 C246 0.931 . S
H275 C247 0.931 . S
H276 C253 0.931 . S
H277 C254 0.931 . S
H278 C256 0.931 . S
H279 C257 0.931 . S
C280 Eu281 2.835 . S
C280 C282 1.500 . S
C280 O300 1.257 . S
C280 O301 1.260 . S
Eu281 C280 2.835 . S
Eu281 O300 2.473 . S
Eu281 O301 2.480 . S
Eu281 O302 2.430 . S
Eu281 O303 2.670 . S
Eu281 O304 2.394 . S
Eu281 O309 2.355 . S
Eu281 O311 2.374 . S
C282 C280 1.500 . S
C282 C283 1.377 . S
C282 C287 1.377 . S
C283 C282 1.377 . S
C283 C284 1.395 . S
C283 H312 0.931 . S
C284 C283 1.395 . S
C284 C285 1.383 . S
C284 H313 0.931 . S
C285 C284 1.383 . S
C285 C286 1.394 . S
C286 C285 1.394 . S
C286 C287 1.378 . S
C286 H314 0.931 . S
C287 C282 1.377 . S
C287 C286 1.378 . S
C287 H315 0.931 . S
C288 O302 1.259 . S
C288 O303 1.270 . S
C289 O304 1.251 . S
C289 O305 1.251 . S
C290 Eu291 2.835 . S
C290 C292 1.500 . S
C290 O306 1.257 . S
C290 O307 1.260 . S
Eu291 C290 2.835 . S
Eu291 O303 2.355 . S
Eu291 O305 2.374 . S
Eu291 O306 2.473 . S
Eu291 O307 2.480 . S
Eu291 O308 2.430 . S
Eu291 O309 2.670 . S
Eu291 O310 2.394 . S
C292 C290 1.500 . S
C292 C293 1.377 . S
C292 C297 1.377 . S
C293 C292 1.377 . S
C293 C294 1.395 . S
C293 H316 0.931 . S
C294 C293 1.395 . S
C294 C295 1.383 . S
C294 H317 0.931 . S
C295 C294 1.383 . S
C295 C296 1.394 . S
C296 C295 1.394 . S
C296 C297 1.378 . S
C296 H318 0.931 . S
C297 C292 1.377 . S
C297 C296 1.378 . S
C297 H319 0.931 . S
C298 O308 1.259 . S
C298 O309 1.270 . S
C299 O310 1.251 . S
C299 O311 1.251 . S
O300 C280 1.257 . S
O300 Eu281 2.473 . S
O301 C280 1.260 . S
O301 Eu281 2.480 . S
O302 Eu281 2.430 . S
O302 C288 1.259 . S
O303 Eu281 2.670 . S
O303 C288 1.270 . S
O303 Eu291 2.355 . S
O304 Eu281 2.394 . S
O304 C289 1.251 . S
O305 C289 1.251 . S
O305 Eu291 2.374 . S
O306 C290 1.257 . S
O306 Eu291 2.473 . S
O307 C290 1.260 . S
O307 Eu291 2.480 . S
O308 Eu291 2.430 . S
O308 C298 1.259 . S
O309 Eu281 2.355 . S
O309 Eu291 2.670 . S
O309 C298 1.270 . S
O310 Eu291 2.394 . S
O310 C299 1.251 . S
O311 Eu281 2.374 . S
O311 C299 1.251 . S
H312 C283 0.931 . S
H313 C284 0.931 . S
H314 C286 0.931 . S
H315 C287 0.931 . S
H316 C293 0.931 . S
H317 C294 0.931 . S
H318 C296 0.931 . S
H319 C297 0.931 . S
C320 Eu321 2.835 . S
C320 C322 1.500 . S
C320 O340 1.257 . S
C320 O341 1.260 . S
Eu321 C320 2.835 . S
Eu321 O340 2.473 . S
Eu321 O341 2.480 . S
Eu321 O342 2.430 . S
Eu321 O343 2.670 . S
Eu321 O344 2.394 . S
Eu321 O349 2.355 . S
Eu321 O351 2.374 . S
C322 C320 1.500 . S
C322 C323 1.377 . S
C322 C327 1.377 . S
C323 C322 1.377 . S
C323 C324 1.395 . S
C323 H352 0.931 . S
C324 C323 1.395 . S
C324 C325 1.383 . S
C324 H353 0.931 . S
C325 C324 1.383 . S
C325 C326 1.394 . S
C326 C325 1.394 . S
C326 C327 1.378 . S
C326 H354 0.931 . S
C327 C322 1.377 . S
C327 C326 1.378 . S
C327 H355 0.931 . S
C328 O342 1.259 . S
C328 O343 1.270 . S
C329 O344 1.251 . S
C329 O345 1.251 . S
C330 Eu331 2.835 . S
C330 C332 1.500 . S
C330 O346 1.257 . S
C330 O347 1.260 . S
Eu331 C330 2.835 . S
Eu331 O343 2.355 . S
Eu331 O345 2.374 . S
Eu331 O346 2.473 . S
Eu331 O347 2.480 . S
Eu331 O348 2.430 . S
Eu331 O349 2.670 . S
Eu331 O350 2.394 . S
C332 C330 1.500 . S
C332 C333 1.377 . S
C332 C337 1.377 . S
C333 C332 1.377 . S
C333 C334 1.395 . S
C333 H356 0.931 . S
C334 C333 1.395 . S
C334 C335 1.383 . S
C334 H357 0.931 . S
C335 C334 1.383 . S
C335 C336 1.394 . S
C336 C335 1.394 . S
C336 C337 1.378 . S
C336 H358 0.931 . S
C337 C332 1.377 . S
C337 C336 1.378 . S
C337 H359 0.931 . S
C338 O348 1.259 . S
C338 O349 1.270 . S
C339 O350 1.251 . S
C339 O351 1.251 . S
O340 C320 1.257 . S
O340 Eu321 2.473 . S
O341 C320 1.260 . S
O341 Eu321 2.480 . S
O342 Eu321 2.430 . S
O342 C328 1.259 . S
O343 Eu321 2.670 . S
O343 C328 1.270 . S
O343 Eu331 2.355 . S
O344 Eu321 2.394 . S
O344 C329 1.251 . S
O345 C329 1.251 . S
O345 Eu331 2.374 . S
O346 C330 1.257 . S
O346 Eu331 2.473 . S
O347 C330 1.260 . S
O347 Eu331 2.480 . S
O348 Eu331 2.430 . S
O348 C338 1.259 . S
O349 Eu321 2.355 . S
O349 Eu331 2.670 . S
O349 C338 1.270 . S
O350 Eu331 2.394 . S
O350 C339 1.251 . S
O351 Eu321 2.374 . S
O351 C339 1.251 . S
H352 C323 0.931 . S
H353 C324 0.931 . S
H354 C326 0.931 . S
H355 C327 0.931 . S
H356 C333 0.931 . S
H357 C334 0.931 . S
H358 C336 0.931 . S
H359 C337 0.931 . S
C360 Eu361 2.835 . S
C360 C362 1.500 . S
C360 O380 1.257 . S
C360 O381 1.260 . S
Eu361 C360 2.835 . S
Eu361 O380 2.473 . S
Eu361 O381 2.480 . S
Eu361 O382 2.430 . S
Eu361 O383 2.670 . S
Eu361 O384 2.394 . S
Eu361 O389 2.355 . S
Eu361 O391 2.374 . S
C362 C360 1.500 . S
C362 C363 1.377 . S
C362 C367 1.377 . S
C363 C362 1.377 . S
C363 C364 1.395 . S
C363 H392 0.931 . S
C364 C363 1.395 . S
C364 C365 1.383 . S
C364 H393 0.931 . S
C365 C364 1.383 . S
C365 C366 1.394 . S
C366 C365 1.394 . S
C366 C367 1.378 . S
C366 H394 0.931 . S
C367 C362 1.377 . S
C367 C366 1.378 . S
C367 H395 0.931 . S
C368 O382 1.259 . S
C368 O383 1.270 . S
C369 O384 1.251 . S
C369 O385 1.251 . S
C370 Eu371 2.835 . S
C370 C372 1.500 . S
C370 O386 1.257 . S
C370 O387 1.260 . S
Eu371 C370 2.835 . S
Eu371 O383 2.355 . S
Eu371 O385 2.374 . S
Eu371 O386 2.473 . S
Eu371 O387 2.480 . S
Eu371 O388 2.430 . S
Eu371 O389 2.670 . S
Eu371 O390 2.394 . S
C372 C370 1.500 . S
C372 C373 1.377 . S
C372 C377 1.377 . S
C373 C372 1.377 . S
C373 C374 1.395 . S
C373 H396 0.931 . S
C374 C373 1.395 . S
C374 C375 1.383 . S
C374 H397 0.931 . S
C375 C374 1.383 . S
C375 C376 1.394 . S
C376 C375 1.394 . S
C376 C377 1.378 . S
C376 H398 0.931 . S
C377 C372 1.377 . S
C377 C376 1.378 . S
C377 H399 0.931 . S
C378 O388 1.259 . S
C378 O389 1.270 . S
C379 O390 1.251 . S
C379 O391 1.251 . S
O380 C360 1.257 . S
O380 Eu361 2.473 . S
O381 C360 1.260 . S
O381 Eu361 2.480 . S
O382 Eu361 2.430 . S
O382 C368 1.259 . S
O383 Eu361 2.670 . S
O383 C368 1.270 . S
O383 Eu371 2.355 . S
O384 Eu361 2.394 . S
O384 C369 1.251 . S
O385 C369 1.251 . S
O385 Eu371 2.374 . S
O386 C370 1.257 . S
O386 Eu371 2.473 . S
O387 C370 1.260 . S
O387 Eu371 2.480 . S
O388 Eu371 2.430 . S
O388 C378 1.259 . S
O389 Eu361 2.355 . S
O389 Eu371 2.670 . S
O389 C378 1.270 . S
O390 Eu371 2.394 . S
O390 C379 1.251 . S
O391 Eu361 2.374 . S
O391 C379 1.251 . S
H392 C363 0.931 . S
H393 C364 0.931 . S
H394 C366 0.931 . S
H395 C367 0.931 . S
H396 C373 0.931 . S
H397 C374 0.931 . S
H398 C376 0.931 . S
H399 C377 0.931 . S
C400 Eu401 2.835 . S
C400 C402 1.500 . S
C400 O420 1.257 . S
C400 O421 1.260 . S
Eu401 C400 2.835 . S
Eu401 O420 2.473 . S
Eu401 O421 2.480 . S
Eu401 O422 2.430 . S
Eu401 O423 2.670 . S
Eu401 O424 2.394 . S
Eu401 O429 2.355 . S
Eu401 O431 2.374 . S
C402 C400 1.500 . S
C402 C403 1.377 . S
C402 C407 1.377 . S
C403 C402 1.377 . S
C403 C404 1.395 . S
C403 H432 0.931 . S
C404 C403 1.395 . S
C404 C405 1.383 . S
C404 H433 0.931 . S
C405 C404 1.383 . S
C405 C406 1.394 . S
C406 C405 1.394 . S
C406 C407 1.378 . S
C406 H434 0.931 . S
C407 C402 1.377 . S
C407 C406 1.378 . S
C407 H435 0.931 . S
C408 O422 1.259 . S
C408 O423 1.270 . S
C409 O424 1.251 . S
C409 O425 1.251 . S
C410 Eu411 2.835 1_556 S
C410 C412 1.500 . S
C410 O426 1.257 . S
C410 O427 1.260 . S
Eu411 C410 2.835 1_554 S
Eu411 O423 2.355 . S
Eu411 O425 2.374 . S
Eu411 O426 2.473 1_554 S
Eu411 O427 2.480 1_554 S
Eu411 O428 2.430 . S
Eu411 O429 2.670 . S
Eu411 O430 2.394 . S
C412 C410 1.500 . S
C412 C413 1.377 . S
C412 C417 1.377 . S
C413 C412 1.377 . S
C413 C414 1.395 . S
C413 H436 0.931 . S
C414 C413 1.395 . S
C414 C415 1.383 . S
C414 H437 0.931 . S
C415 C414 1.383 . S
C415 C416 1.394 . S
C416 C415 1.394 . S
C416 C417 1.378 . S
C416 H438 0.931 . S
C417 C412 1.377 . S
C417 C416 1.378 . S
C417 H439 0.931 . S
C418 O428 1.259 . S
C418 O429 1.270 . S
C419 O430 1.251 . S
C419 O431 1.251 . S
O420 C400 1.257 . S
O420 Eu401 2.473 . S
O421 C400 1.260 . S
O421 Eu401 2.480 . S
O422 Eu401 2.430 . S
O422 C408 1.259 . S
O423 Eu401 2.670 . S
O423 C408 1.270 . S
O423 Eu411 2.355 . S
O424 Eu401 2.394 . S
O424 C409 1.251 . S
O425 C409 1.251 . S
O425 Eu411 2.374 . S
O426 C410 1.257 . S
O426 Eu411 2.473 1_556 S
O427 C410 1.260 . S
O427 Eu411 2.480 1_556 S
O428 Eu411 2.430 . S
O428 C418 1.259 . S
O429 Eu401 2.355 . S
O429 Eu411 2.670 . S
O429 C418 1.270 . S
O430 Eu411 2.394 . S
O430 C419 1.251 . S
O431 Eu401 2.374 . S
O431 C419 1.251 . S
H432 C403 0.931 . S
H433 C404 0.931 . S
H434 C406 0.931 . S
H435 C407 0.931 . S
H436 C413 0.931 . S
H437 C414 0.931 . S
H438 C416 0.931 . S
H439 C417 0.931 . S
C440 Eu441 2.835 . S
C440 C442 1.500 . S
C440 O460 1.257 . S
C440 O461 1.260 . S
Eu441 C440 2.835 . S
Eu441 O460 2.473 . S
Eu441 O461 2.480 . S
Eu441 O462 2.430 . S
Eu441 O463 2.670 . S
Eu441 O464 2.394 . S
Eu441 O469 2.355 . S
Eu441 O471 2.374 . S
C442 C440 1.500 . S
C442 C443 1.377 . S
C442 C447 1.377 . S
C443 C442 1.377 . S
C443 C444 1.395 . S
C443 H472 0.931 . S
C444 C443 1.395 . S
C444 C445 1.383 . S
C444 H473 0.931 . S
C445 C444 1.383 . S
C445 C446 1.394 . S
C446 C445 1.394 . S
C446 C447 1.378 . S
C446 H474 0.931 . S
C447 C442 1.377 . S
C447 C446 1.378 . S
C447 H475 0.931 . S
C448 O462 1.259 . S
C448 O463 1.270 . S
C449 O464 1.251 . S
C449 O465 1.251 . S
C450 Eu451 2.835 . S
C450 C452 1.500 . S
C450 O466 1.257 . S
C450 O467 1.260 . S
Eu451 C450 2.835 . S
Eu451 O463 2.355 . S
Eu451 O465 2.374 . S
Eu451 O466 2.473 . S
Eu451 O467 2.480 . S
Eu451 O468 2.430 . S
Eu451 O469 2.670 . S
Eu451 O470 2.394 . S
C452 C450 1.500 . S
C452 C453 1.377 . S
C452 C457 1.377 . S
C453 C452 1.377 . S
C453 C454 1.395 . S
C453 H476 0.931 . S
C454 C453 1.395 . S
C454 C455 1.383 . S
C454 H477 0.931 . S
C455 C454 1.383 . S
C455 C456 1.394 . S
C456 C455 1.394 . S
C456 C457 1.378 . S
C456 H478 0.931 . S
C457 C452 1.377 . S
C457 C456 1.378 . S
C457 H479 0.931 . S
C458 O468 1.259 . S
C458 O469 1.270 . S
C459 O470 1.251 . S
C459 O471 1.251 . S
O460 C440 1.257 . S
O460 Eu441 2.473 . S
O461 C440 1.260 . S
O461 Eu441 2.480 . S
O462 Eu441 2.430 . S
O462 C448 1.259 . S
O463 Eu441 2.670 . S
O463 C448 1.270 . S
O463 Eu451 2.355 . S
O464 Eu441 2.394 . S
O464 C449 1.251 . S
O465 C449 1.251 . S
O465 Eu451 2.374 . S
O466 C450 1.257 . S
O466 Eu451 2.473 . S
O467 C450 1.260 . S
O467 Eu451 2.480 . S
O468 Eu451 2.430 . S
O468 C458 1.259 . S
O469 Eu441 2.355 . S
O469 Eu451 2.670 . S
O469 C458 1.270 . S
O470 Eu451 2.394 . S
O470 C459 1.251 . S
O471 Eu441 2.374 . S
O471 C459 1.251 . S
H472 C443 0.931 . S
H473 C444 0.931 . S
H474 C446 0.931 . S
H475 C447 0.931 . S
H476 C453 0.931 . S
H477 C454 0.931 . S
H478 C456 0.931 . S
H479 C457 0.931 . S
C480 Eu481 2.835 . S
C480 C482 1.500 . S
C480 O500 1.257 . S
C480 O501 1.260 . S
Eu481 C480 2.835 . S
Eu481 O500 2.473 . S
Eu481 O501 2.480 . S
Eu481 O502 2.430 . S
Eu481 O503 2.670 . S
Eu481 O504 2.394 . S
Eu481 O509 2.355 . S
Eu481 O511 2.374 . S
C482 C480 1.500 . S
C482 C483 1.377 . S
C482 C487 1.377 . S
C483 C482 1.377 . S
C483 C484 1.395 . S
C483 H512 0.931 . S
C484 C483 1.395 . S
C484 C485 1.383 . S
C484 H513 0.931 . S
C485 C484 1.383 . S
C485 C486 1.394 . S
C486 C485 1.394 . S
C486 C487 1.378 . S
C486 H514 0.931 . S
C487 C482 1.377 . S
C487 C486 1.378 . S
C487 H515 0.931 . S
C488 O502 1.259 . S
C488 O503 1.270 . S
C489 O504 1.251 . S
C489 O505 1.251 . S
C490 Eu491 2.835 . S
C490 C492 1.500 . S
C490 O506 1.257 . S
C490 O507 1.260 . S
Eu491 C490 2.835 . S
Eu491 O503 2.355 . S
Eu491 O505 2.374 . S
Eu491 O506 2.473 . S
Eu491 O507 2.480 . S
Eu491 O508 2.430 . S
Eu491 O509 2.670 . S
Eu491 O510 2.394 . S
C492 C490 1.500 . S
C492 C493 1.377 . S
C492 C497 1.377 . S
C493 C492 1.377 . S
C493 C494 1.395 . S
C493 H516 0.931 . S
C494 C493 1.395 . S
C494 C495 1.383 . S
C494 H517 0.931 . S
C495 C494 1.383 . S
C495 C496 1.394 . S
C496 C495 1.394 . S
C496 C497 1.378 . S
C496 H518 0.931 . S
C497 C492 1.377 . S
C497 C496 1.378 . S
C497 H519 0.931 . S
C498 O508 1.259 . S
C498 O509 1.270 . S
C499 O510 1.251 . S
C499 O511 1.251 . S
O500 C480 1.257 . S
O500 Eu481 2.473 . S
O501 C480 1.260 . S
O501 Eu481 2.480 . S
O502 Eu481 2.430 . S
O502 C488 1.259 . S
O503 Eu481 2.670 . S
O503 C488 1.270 . S
O503 Eu491 2.355 . S
O504 Eu481 2.394 . S
O504 C489 1.251 . S
O505 C489 1.251 . S
O505 Eu491 2.374 . S
O506 C490 1.257 . S
O506 Eu491 2.473 . S
O507 C490 1.260 . S
O507 Eu491 2.480 . S
O508 Eu491 2.430 . S
O508 C498 1.259 . S
O509 Eu481 2.355 . S
O509 Eu491 2.670 . S
O509 C498 1.270 . S
O510 Eu491 2.394 . S
O510 C499 1.251 . S
O511 Eu481 2.374 . S
O511 C499 1.251 . S
H512 C483 0.931 . S
H513 C484 0.931 . S
H514 C486 0.931 . S
H515 C487 0.931 . S
H516 C493 0.931 . S
H517 C494 0.931 . S
H518 C496 0.931 . S
H519 C497 0.931 . S
C520 Eu521 2.835 . S
C520 C522 1.500 . S
C520 O540 1.257 . S
C520 O541 1.260 . S
Eu521 C520 2.835 . S
Eu521 O540 2.473 . S
Eu521 O541 2.480 . S
Eu521 O542 2.430 . S
Eu521 O543 2.670 . S
Eu521 O544 2.394 . S
Eu521 O549 2.355 . S
Eu521 O551 2.374 . S
C522 C520 1.500 . S
C522 C523 1.377 . S
C522 C527 1.377 . S
C523 C522 1.377 . S
C523 C524 1.395 . S
C523 H552 0.931 . S
C524 C523 1.395 . S
C524 C525 1.383 . S
C524 H553 0.931 . S
C525 C524 1.383 . S
C525 C526 1.394 . S
C526 C525 1.394 . S
C526 C527 1.378 . S
C526 H554 0.931 . S
C527 C522 1.377 . S
C527 C526 1.378 . S
C527 H555 0.931 . S
C528 O542 1.259 . S
C528 O543 1.270 . S
C529 O544 1.251 . S
C529 O545 1.251 . S
C530 Eu531 2.835 . S
C530 C532 1.500 . S
C530 O546 1.257 . S
C530 O547 1.260 . S
Eu531 C530 2.835 . S
Eu531 O543 2.355 . S
Eu531 O545 2.374 . S
Eu531 O546 2.473 . S
Eu531 O547 2.480 . S
Eu531 O548 2.430 . S
Eu531 O549 2.670 . S
Eu531 O550 2.394 . S
C532 C530 1.500 . S
C532 C533 1.377 . S
C532 C537 1.377 . S
C533 C532 1.377 . S
C533 C534 1.395 . S
C533 H556 0.931 . S
C534 C533 1.395 . S
C534 C535 1.383 . S
C534 H557 0.931 . S
C535 C534 1.383 . S
C535 C536 1.394 . S
C536 C535 1.394 . S
C536 C537 1.378 . S
C536 H558 0.931 . S
C537 C532 1.377 . S
C537 C536 1.378 . S
C537 H559 0.931 . S
C538 O548 1.259 . S
C538 O549 1.270 . S
C539 O550 1.251 . S
C539 O551 1.251 . S
O540 C520 1.257 . S
O540 Eu521 2.473 . S
O541 C520 1.260 . S
O541 Eu521 2.480 . S
O542 Eu521 2.430 . S
O542 C528 1.259 . S
O543 Eu521 2.670 . S
O543 C528 1.270 . S
O543 Eu531 2.355 . S
O544 Eu521 2.394 . S
O544 C529 1.251 . S
O545 C529 1.251 . S
O545 Eu531 2.374 . S
O546 C530 1.257 . S
O546 Eu531 2.473 . S
O547 C530 1.260 . S
O547 Eu531 2.480 . S
O548 Eu531 2.430 . S
O548 C538 1.259 . S
O549 Eu521 2.355 . S
O549 Eu531 2.670 . S
O549 C538 1.270 . S
O550 Eu531 2.394 . S
O550 C539 1.251 . S
O551 Eu521 2.374 . S
O551 C539 1.251 . S
H552 C523 0.931 . S
H553 C524 0.931 . S
H554 C526 0.931 . S
H555 C527 0.931 . S
H556 C533 0.931 . S
H557 C534 0.931 . S
H558 C536 0.931 . S
H559 C537 0.931 . S
C560 Eu561 2.835 1_554 S
C560 C562 1.500 . S
C560 O580 1.257 . S
C560 O581 1.260 . S
Eu561 C560 2.835 1_556 S
Eu561 O580 2.473 1_556 S
Eu561 O581 2.480 1_556 S
Eu561 O582 2.430 . S
Eu561 O583 2.670 . S
Eu561 O584 2.394 . S
Eu561 O589 2.355 . S
Eu561 O591 2.374 . S
C562 C560 1.500 . S
C562 C563 1.377 . S
C562 C567 1.377 . S
C563 C562 1.377 . S
C563 C564 1.395 . S
C563 H592 0.931 . S
C564 C563 1.395 . S
C564 C565 1.383 . S
C564 H593 0.931 . S
C565 C564 1.383 . S
C565 C566 1.394 . S
C566 C565 1.394 . S
C566 C567 1.378 . S
C566 H594 0.931 . S
C567 C562 1.377 . S
C567 C566 1.378 . S
C567 H595 0.931 . S
C568 O582 1.259 . S
C568 O583 1.270 . S
C569 O584 1.251 . S
C569 O585 1.251 . S
C570 Eu571 2.835 . S
C570 C572 1.500 . S
C570 O586 1.257 . S
C570 O587 1.260 . S
Eu571 C570 2.835 . S
Eu571 O583 2.355 . S
Eu571 O585 2.374 . S
Eu571 O586 2.473 . S
Eu571 O587 2.480 . S
Eu571 O588 2.430 . S
Eu571 O589 2.670 . S
Eu571 O590 2.394 . S
C572 C570 1.500 . S
C572 C573 1.377 . S
C572 C577 1.377 . S
C573 C572 1.377 . S
C573 C574 1.395 . S
C573 H596 0.931 . S
C574 C573 1.395 . S
C574 C575 1.383 . S
C574 H597 0.931 . S
C575 C574 1.383 . S
C575 C576 1.394 . S
C576 C575 1.394 . S
C576 C577 1.378 . S
C576 H598 0.931 . S
C577 C572 1.377 . S
C577 C576 1.378 . S
C577 H599 0.931 . S
C578 O588 1.259 . S
C578 O589 1.270 . S
C579 O590 1.251 . S
C579 O591 1.251 . S
O580 C560 1.257 . S
O580 Eu561 2.473 1_554 S
O581 C560 1.260 . S
O581 Eu561 2.480 1_554 S
O582 Eu561 2.430 . S
O582 C568 1.259 . S
O583 Eu561 2.670 . S
O583 C568 1.270 . S
O583 Eu571 2.355 . S
O584 Eu561 2.394 . S
O584 C569 1.251 . S
O585 C569 1.251 . S
O585 Eu571 2.374 . S
O586 C570 1.257 . S
O586 Eu571 2.473 . S
O587 C570 1.260 . S
O587 Eu571 2.480 . S
O588 Eu571 2.430 . S
O588 C578 1.259 . S
O589 Eu561 2.355 . S
O589 Eu571 2.670 . S
O589 C578 1.270 . S
O590 Eu571 2.394 . S
O590 C579 1.251 . S
O591 Eu561 2.374 . S
O591 C579 1.251 . S
H592 C563 0.931 . S
H593 C564 0.931 . S
H594 C566 0.931 . S
H595 C567 0.931 . S
H596 C573 0.931 . S
H597 C574 0.931 . S
H598 C576 0.931 . S
H599 C577 0.931 . S
C600 Eu601 2.835 . S
C600 C602 1.500 . S
C600 O620 1.257 . S
C600 O621 1.260 . S
Eu601 C600 2.835 . S
Eu601 O620 2.473 . S
Eu601 O621 2.480 . S
Eu601 O622 2.430 . S
Eu601 O623 2.670 . S
Eu601 O624 2.394 . S
Eu601 O629 2.355 . S
Eu601 O631 2.374 . S
C602 C600 1.500 . S
C602 C603 1.377 . S
C602 C607 1.377 . S
C603 C602 1.377 . S
C603 C604 1.395 . S
C603 H632 0.931 . S
C604 C603 1.395 . S
C604 C605 1.383 . S
C604 H633 0.931 . S
C605 C604 1.383 . S
C605 C606 1.394 . S
C606 C605 1.394 . S
C606 C607 1.378 . S
C606 H634 0.931 . S
C607 C602 1.377 . S
C607 C606 1.378 . S
C607 H635 0.931 . S
C608 O622 1.259 . S
C608 O623 1.270 . S
C609 O624 1.251 . S
C609 O625 1.251 . S
C610 Eu611 2.835 . S
C610 C612 1.500 . S
C610 O626 1.257 . S
C610 O627 1.260 . S
Eu611 C610 2.835 . S
Eu611 O623 2.355 . S
Eu611 O625 2.374 . S
Eu611 O626 2.473 . S
Eu611 O627 2.480 . S
Eu611 O628 2.430 . S
Eu611 O629 2.670 . S
Eu611 O630 2.394 . S
C612 C610 1.500 . S
C612 C613 1.377 . S
C612 C617 1.377 . S
C613 C612 1.377 . S
C613 C614 1.395 . S
C613 H636 0.931 . S
C614 C613 1.395 . S
C614 C615 1.383 . S
C614 H637 0.931 . S
C615 C614 1.383 . S
C615 C616 1.394 . S
C616 C615 1.394 . S
C616 C617 1.378 . S
C616 H638 0.931 . S
C617 C612 1.377 . S
C617 C616 1.378 . S
C617 H639 0.931 . S
C618 O628 1.259 . S
C618 O629 1.270 . S
C619 O630 1.251 . S
C619 O631 1.251 . S
O620 C600 1.257 . S
O620 Eu601 2.473 . S
O621 C600 1.260 . S
O621 Eu601 2.480 . S
O622 Eu601 2.430 . S
O622 C608 1.259 . S
O623 Eu601 2.670 . S
O623 C608 1.270 . S
O623 Eu611 2.355 . S
O624 Eu601 2.394 . S
O624 C609 1.251 . S
O625 C609 1.251 . S
O625 Eu611 2.374 . S
O626 C610 1.257 . S
O626 Eu611 2.473 . S
O627 C610 1.260 . S
O627 Eu611 2.480 . S
O628 Eu611 2.430 . S
O628 C618 1.259 . S
O629 Eu601 2.355 . S
O629 Eu611 2.670 . S
O629 C618 1.270 . S
O630 Eu611 2.394 . S
O630 C619 1.251 . S
O631 Eu601 2.374 . S
O631 C619 1.251 . S
H632 C603 0.931 . S
H633 C604 0.931 . S
H634 C606 0.931 . S
H635 C607 0.931 . S
H636 C613 0.931 . S
H637 C614 0.931 . S
H638 C616 0.931 . S
H639 C617 0.931 . S
H640 C648 0.929 . S
H641 C650 0.930 . S
H642 C652 0.930 . S
H643 C655 0.929 . S
H644 C658 0.930 . S
H645 C660 0.960 . S
H646 C660 0.960 . S
H647 C660 0.960 . S
C648 H640 0.929 . S
C648 C649 1.377 . S
C648 C650 1.384 . S
C649 C648 1.377 . S
C649 C655 1.390 . S
C650 H641 0.930 . S
C650 C648 1.384 . S
C650 C651 1.372 . S
C651 C650 1.372 . S
C651 C652 1.400 . S
C651 C656 1.490 . S
C652 H642 0.930 . S
C652 C651 1.400 . S
C652 C655 1.386 . S
H653 C669 0.930 . S
H654 C670 0.931 . S
C655 H643 0.929 . S
C655 C649 1.390 . S
C655 C652 1.386 . S
C656 C651 1.490 . S
C656 C658 1.395 . S
C656 C659 1.403 . S
H657 C663 0.930 . S
C658 H644 0.930 . S
C658 C656 1.395 . S
C658 C661 1.403 . S
C659 C656 1.403 . S
C659 C660 1.524 . S
C659 C663 1.400 . S
C660 H645 0.960 . S
C660 H646 0.960 . S
C660 H647 0.960 . S
C660 C659 1.524 . S
C661 C658 1.403 . S
C661 C662 1.392 . S
C661 C665 1.495 . S
C662 C661 1.392 . S
C662 C663 1.385 . S
C662 C664 1.478 . S
C663 H657 0.930 . S
C663 C659 1.400 . S
C663 C662 1.385 . S
C664 C662 1.478 . S
C664 C666 1.381 . S
C664 C670 1.383 . S
C665 C661 1.495 . S
C665 H671 0.959 . S
C665 H672 0.961 . S
C665 H673 0.960 . S
C666 C664 1.381 . S
C666 C667 1.394 . S
C666 H674 0.930 . S
C667 C666 1.394 . S
C667 C668 1.383 . S
C667 H675 0.929 . S
C668 C667 1.383 . S
C668 C669 1.377 . S
C669 H653 0.930 . S
C669 C668 1.377 . S
C669 C670 1.379 . S
C670 H654 0.931 . S
C670 C664 1.383 . S
C670 C669 1.379 . S
H671 C665 0.959 . S
H672 C665 0.961 . S
H673 C665 0.960 . S
H674 C666 0.930 . S
H675 C667 0.929 . S
H676 C684 0.929 . S
H677 C686 0.930 . S
H678 C688 0.930 . S
H679 C691 0.929 . S
H680 C694 0.930 . S
H681 C696 0.960 . S
H682 C696 0.960 . S
H683 C696 0.960 . S
C684 H676 0.929 . S
C684 C685 1.377 . S
C684 C686 1.384 . S
C685 C684 1.377 . S
C685 C691 1.390 . S
C686 H677 0.930 . S
C686 C684 1.384 . S
C686 C687 1.372 . S
C687 C686 1.372 . S
C687 C688 1.400 . S
C687 C692 1.490 . S
C688 H678 0.930 . S
C688 C687 1.400 . S
C688 C691 1.386 . S
H689 C705 0.930 . S
H690 C706 0.931 . S
C691 H679 0.929 . S
C691 C685 1.390 . S
C691 C688 1.386 . S
C692 C687 1.490 . S
C692 C694 1.395 . S
C692 C695 1.403 . S
H693 C699 0.930 . S
C694 H680 0.930 . S
C694 C692 1.395 . S
C694 C697 1.403 . S
C695 C692 1.403 . S
C695 C696 1.524 . S
C695 C699 1.400 . S
C696 H681 0.960 . S
C696 H682 0.960 . S
C696 H683 0.960 . S
C696 C695 1.524 . S
C697 C694 1.403 . S
C697 C698 1.392 . S
C697 C701 1.495 . S
C698 C697 1.392 . S
C698 C699 1.385 . S
C698 C700 1.478 . S
C699 H693 0.930 . S
C699 C695 1.400 . S
C699 C698 1.385 . S
C700 C698 1.478 . S
C700 C702 1.381 . S
C700 C706 1.383 . S
C701 C697 1.495 . S
C701 H707 0.959 . S
C701 H708 0.961 . S
C701 H709 0.960 . S
C702 C700 1.381 . S
C702 C703 1.394 . S
C702 H710 0.930 . S
C703 C702 1.394 . S
C703 C704 1.383 . S
C703 H711 0.929 . S
C704 C703 1.383 . S
C704 C705 1.377 . S
C705 H689 0.930 . S
C705 C704 1.377 . S
C705 C706 1.379 . S
C706 H690 0.931 . S
C706 C700 1.383 . S
C706 C705 1.379 . S
H707 C701 0.959 . S
H708 C701 0.961 . S
H709 C701 0.960 . S
H710 C702 0.930 . S
H711 C703 0.929 . S
H712 C720 0.929 . S
H713 C722 0.930 . S
H714 C724 0.930 . S
H715 C727 0.929 . S
H716 C730 0.930 . S
H717 C732 0.960 . S
H718 C732 0.960 . S
H719 C732 0.960 . S
C720 H712 0.929 . S
C720 C721 1.377 . S
C720 C722 1.384 . S
C721 C720 1.377 . S
C721 C727 1.390 . S
C722 H713 0.930 . S
C722 C720 1.384 . S
C722 C723 1.372 . S
C723 C722 1.372 . S
C723 C724 1.400 . S
C723 C728 1.490 . S
C724 H714 0.930 . S
C724 C723 1.400 . S
C724 C727 1.386 . S
H725 C741 0.930 . S
H726 C742 0.931 . S
C727 H715 0.929 . S
C727 C721 1.390 . S
C727 C724 1.386 . S
C728 C723 1.490 . S
C728 C730 1.395 1_455 S
C728 C731 1.403 . S
H729 C735 0.930 . S
C730 H716 0.930 . S
C730 C728 1.395 1_655 S
C730 C733 1.403 . S
C731 C728 1.403 . S
C731 C732 1.524 . S
C731 C735 1.400 . S
C732 H717 0.960 . S
C732 H718 0.960 . S
C732 H719 0.960 . S
C732 C731 1.524 . S
C733 C730 1.403 . S
C733 C734 1.392 . S
C733 C737 1.495 . S
C734 C733 1.392 . S
C734 C735 1.385 1_655 S
C734 C736 1.478 . S
C735 H729 0.930 . S
C735 C731 1.400 . S
C735 C734 1.385 1_455 S
C736 C734 1.478 . S
C736 C738 1.381 . S
C736 C742 1.383 . S
C737 C733 1.495 . S
C737 H743 0.959 . S
C737 H744 0.961 . S
C737 H745 0.960 . S
C738 C736 1.381 . S
C738 C739 1.394 . S
C738 H746 0.930 . S
C739 C738 1.394 . S
C739 C740 1.383 . S
C739 H747 0.929 . S
C740 C739 1.383 . S
C740 C741 1.377 . S
C741 H725 0.930 . S
C741 C740 1.377 . S
C741 C742 1.379 . S
C742 H726 0.931 . S
C742 C736 1.383 . S
C742 C741 1.379 . S
H743 C737 0.959 . S
H744 C737 0.961 . S
H745 C737 0.960 . S
H746 C738 0.930 . S
H747 C739 0.929 . S
H748 C756 0.929 . S
H749 C758 0.930 . S
H750 C760 0.930 . S
H751 C763 0.929 . S
H752 C766 0.930 . S
H753 C768 0.960 . S
H754 C768 0.960 . S
H755 C768 0.960 . S
C756 H748 0.929 . S
C756 C757 1.377 . S
C756 C758 1.384 . S
C757 C756 1.377 . S
C757 C763 1.390 . S
C758 H749 0.930 . S
C758 C756 1.384 . S
C758 C759 1.372 . S
C759 C758 1.372 . S
C759 C760 1.400 . S
C759 C764 1.490 . S
C760 H750 0.930 . S
C760 C759 1.400 . S
C760 C763 1.386 . S
H761 C777 0.930 . S
H762 C778 0.931 . S
C763 H751 0.929 . S
C763 C757 1.390 . S
C763 C760 1.386 . S
C764 C759 1.490 . S
C764 C766 1.395 1_655 S
C764 C767 1.403 . S
H765 C771 0.930 . S
C766 H752 0.930 . S
C766 C764 1.395 1_455 S
C766 C769 1.403 . S
C767 C764 1.403 . S
C767 C768 1.524 . S
C767 C771 1.373 1_655 S
C768 H753 0.960 . S
C768 H754 0.960 . S
C768 H755 0.960 . S
C768 C767 1.524 . S
C769 C766 1.403 . S
C769 C770 1.392 . S
C769 C773 1.495 . S
C770 C769 1.392 . S
C770 C771 1.413 . S
C770 C772 1.478 . S
C771 H765 0.930 . S
C771 C767 1.373 1_455 S
C771 C770 1.413 . S
C772 C770 1.478 . S
C772 C774 1.381 . S
C772 C778 1.383 . S
C773 C769 1.495 . S
C773 H779 0.959 . S
C773 H780 0.961 . S
C773 H781 0.960 . S
C774 C772 1.381 . S
C774 C775 1.394 . S
C774 H782 0.930 . S
C775 C774 1.394 . S
C775 C776 1.383 . S
C775 H783 0.929 . S
C776 C775 1.383 . S
C776 C777 1.377 . S
C777 H761 0.930 . S
C777 C776 1.377 . S
C777 C778 1.379 . S
C778 H762 0.931 . S
C778 C772 1.383 . S
C778 C777 1.379 . S
H779 C773 0.959 . S
H780 C773 0.961 . S
H781 C773 0.960 . S
H782 C774 0.930 . S
H783 C775 0.929 . S
H784 C792 0.929 . S
H785 C794 0.930 . S
H786 C796 0.930 . S
H787 C799 0.929 . S
H788 C802 0.930 . S
H789 C804 0.960 . S
H790 C804 0.960 . S
H791 C804 0.960 . S
C792 H784 0.929 . S
C792 C793 1.377 . S
C792 C794 1.384 . S
C793 C792 1.377 . S
C793 C799 1.390 . S
C794 H785 0.930 . S
C794 C792 1.384 . S
C794 C795 1.372 . S
C795 C794 1.372 . S
C795 C796 1.400 . S
C795 C800 1.490 . S
C796 H786 0.930 . S
C796 C795 1.400 . S
C796 C799 1.386 . S
H797 C813 0.930 . S
H798 C814 0.931 . S
C799 H787 0.929 . S
C799 C793 1.390 . S
C799 C796 1.386 . S
C800 C795 1.490 . S
C800 C802 1.395 . S
C800 C803 1.403 . S
H801 C807 0.930 . S
C802 H788 0.930 . S
C802 C800 1.395 . S
C802 C805 1.403 . S
C803 C800 1.403 . S
C803 C804 1.524 . S
C803 C807 1.400 . S
C804 H789 0.960 . S
C804 H790 0.960 . S
C804 H791 0.960 . S
C804 C803 1.524 . S
C805 C802 1.403 . S
C805 C806 1.392 . S
C805 C809 1.495 . S
C806 C805 1.392 . S
C806 C807 1.385 . S
C806 C808 1.478 . S
C807 H801 0.930 . S
C807 C803 1.400 . S
C807 C806 1.385 . S
C808 C806 1.478 . S
C808 C810 1.381 . S
C808 C814 1.383 . S
C809 C805 1.495 . S
C809 H815 0.959 . S
C809 H816 0.961 . S
C809 H817 0.960 . S
C810 C808 1.381 . S
C810 C811 1.394 . S
C810 H818 0.930 . S
C811 C810 1.394 . S
C811 C812 1.383 . S
C811 H819 0.929 . S
C812 C811 1.383 . S
C812 C813 1.377 . S
C813 H797 0.930 . S
C813 C812 1.377 . S
C813 C814 1.379 . S
C814 H798 0.931 . S
C814 C808 1.383 . S
C814 C813 1.379 . S
H815 C809 0.959 . S
H816 C809 0.961 . S
H817 C809 0.960 . S
H818 C810 0.930 . S
H819 C811 0.929 . S
H820 C828 0.929 . S
H821 C830 0.930 . S
H822 C832 0.930 . S
H823 C835 0.929 . S
H824 C838 0.930 . S
H825 C840 0.960 . S
H826 C840 0.960 . S
H827 C840 0.960 . S
C828 H820 0.929 . S
C828 C829 1.377 . S
C828 C830 1.384 . S
C829 C828 1.377 . S
C829 C835 1.390 . S
C830 H821 0.930 . S
C830 C828 1.384 . S
C830 C831 1.372 . S
C831 C830 1.372 . S
C831 C832 1.400 . S
C831 C836 1.490 . S
C832 H822 0.930 . S
C832 C831 1.400 . S
C832 C835 1.386 . S
H833 C849 0.930 . S
H834 C850 0.931 . S
C835 H823 0.929 . S
C835 C829 1.390 . S
C835 C832 1.386 . S
C836 C831 1.490 . S
C836 C838 1.395 . S
C836 C839 1.403 . S
H837 C843 0.930 . S
C838 H824 0.930 . S
C838 C836 1.395 . S
C838 C841 1.403 . S
C839 C836 1.403 . S
C839 C840 1.524 . S
C839 C843 1.400 . S
C840 H825 0.960 . S
C840 H826 0.960 . S
C840 H827 0.960 . S
C840 C839 1.524 . S
C841 C838 1.403 . S
C841 C842 1.392 . S
C841 C845 1.495 . S
C842 C841 1.392 . S
C842 C843 1.385 . S
C842 C844 1.478 . S
C843 H837 0.930 . S
C843 C839 1.400 . S
C843 C842 1.385 . S
C844 C842 1.478 . S
C844 C846 1.381 . S
C844 C850 1.383 . S
C845 C841 1.495 . S
C845 H851 0.959 . S
C845 H852 0.961 . S
C845 H853 0.960 . S
C846 C844 1.381 . S
C846 C847 1.394 . S
C846 H854 0.930 . S
C847 C846 1.394 . S
C847 C848 1.383 . S
C847 H855 0.929 . S
C848 C847 1.383 . S
C848 C849 1.377 . S
C849 H833 0.930 . S
C849 C848 1.377 . S
C849 C850 1.379 . S
C850 H834 0.931 . S
C850 C844 1.383 . S
C850 C849 1.379 . S
H851 C845 0.959 . S
H852 C845 0.961 . S
H853 C845 0.960 . S
H854 C846 0.930 . S
H855 C847 0.929 . S
H856 C864 0.929 . S
H857 C866 0.930 . S
H858 C868 0.930 . S
H859 C871 0.929 . S
H860 C874 0.930 . S
H861 C876 0.960 . S
H862 C876 0.960 . S
H863 C876 0.960 . S
C864 H856 0.929 . S
C864 C865 1.377 . S
C864 C866 1.384 . S
C865 C864 1.377 . S
C865 C871 1.390 . S
C866 H857 0.930 . S
C866 C864 1.384 . S
C866 C867 1.372 . S
C867 C866 1.372 . S
C867 C868 1.400 . S
C867 C872 1.490 . S
C868 H858 0.930 . S
C868 C867 1.400 . S
C868 C871 1.386 . S
H869 C885 0.930 . S
H870 C886 0.931 . S
C871 H859 0.929 . S
C871 C865 1.390 . S
C871 C868 1.386 . S
C872 C867 1.490 . S
C872 C874 1.395 1_655 S
C872 C875 1.403 . S
H873 C879 0.930 . S
C874 H860 0.930 . S
C874 C872 1.395 1_455 S
C874 C877 1.403 . S
C875 C872 1.403 . S
C875 C876 1.524 . S
C875 C879 1.400 . S
C876 H861 0.960 . S
C876 H862 0.960 . S
C876 H863 0.960 . S
C876 C875 1.524 . S
C877 C874 1.403 . S
C877 C878 1.392 . S
C877 C881 1.495 . S
C878 C877 1.392 . S
C878 C879 1.385 1_455 S
C878 C880 1.478 . S
C879 H873 0.930 . S
C879 C875 1.400 . S
C879 C878 1.385 1_655 S
C880 C878 1.478 . S
C880 C882 1.381 . S
C880 C886 1.383 . S
C881 C877 1.495 . S
C881 H887 0.959 . S
C881 H888 0.961 . S
C881 H889 0.960 . S
C882 C880 1.381 . S
C882 C883 1.394 . S
C882 H890 0.930 . S
C883 C882 1.394 . S
C883 C884 1.383 . S
C883 H891 0.929 . S
C884 C883 1.383 . S
C884 C885 1.377 . S
C885 H869 0.930 . S
C885 C884 1.377 . S
C885 C886 1.379 . S
C886 H870 0.931 . S
C886 C880 1.383 . S
C886 C885 1.379 . S
H887 C881 0.959 . S
H888 C881 0.961 . S
H889 C881 0.960 . S
H890 C882 0.930 . S
H891 C883 0.929 . S
H892 C900 0.929 . S
H893 C902 0.930 . S
H894 C904 0.930 . S
H895 C907 0.929 . S
H896 C910 0.930 . S
H897 C912 0.960 . S
H898 C912 0.960 . S
H899 C912 0.960 . S
C900 H892 0.929 . S
C900 C901 1.377 . S
C900 C902 1.384 . S
C901 C900 1.377 . S
C901 C907 1.390 . S
C902 H893 0.930 . S
C902 C900 1.384 . S
C902 C903 1.372 . S
C903 C902 1.372 . S
C903 C904 1.400 . S
C903 C908 1.490 . S
C904 H894 0.930 . S
C904 C903 1.400 . S
C904 C907 1.386 . S
H905 C921 0.930 . S
H906 C922 0.931 . S
C907 H895 0.929 . S
C907 C901 1.390 . S
C907 C904 1.386 . S
C908 C903 1.490 . S
C908 C910 1.395 . S
C908 C911 1.403 1_455 S
H909 C915 0.930 . S
C910 H896 0.930 . S
C910 C908 1.395 . S
C910 C913 1.403 . S
C911 C908 1.403 1_655 S
C911 C912 1.524 . S
C911 C915 1.400 . S
C912 H897 0.960 . S
C912 H898 0.960 . S
C912 H899 0.960 . S
C912 C911 1.524 . S
C913 C910 1.403 . S
C913 C914 1.392 1_455 S
C913 C917 1.495 . S
C914 C913 1.392 1_655 S
C914 C915 1.385 . S
C914 C916 1.478 . S
C915 H909 0.930 . S
C915 C911 1.400 . S
C915 C914 1.385 . S
C916 C914 1.478 . S
C916 C918 1.381 . S
C916 C922 1.383 . S
C917 C913 1.495 . S
C917 H923 0.959 . S
C917 H924 0.961 . S
C917 H925 0.960 . S
C918 C916 1.381 . S
C918 C919 1.394 . S
C918 H926 0.930 . S
C919 C918 1.394 . S
C919 C920 1.383 . S
C919 H927 0.929 . S
C920 C919 1.383 . S
C920 C921 1.377 . S
C921 H905 0.930 . S
C921 C920 1.377 . S
C921 C922 1.379 . S
C922 H906 0.931 . S
C922 C916 1.383 . S
C922 C921 1.379 . S
H923 C917 0.959 . S
H924 C917 0.961 . S
H925 C917 0.960 . S
H926 C918 0.930 . S
H927 C919 0.929 . S
H928 C936 0.929 . S
H929 C938 0.930 . S
H930 C940 0.930 . S
H931 C943 0.929 . S
H932 C946 0.930 . S
H933 C948 0.960 . S
H934 C948 0.960 . S
H935 C948 0.960 . S
C936 H928 0.929 . S
C936 C937 1.377 . S
C936 C938 1.384 . S
C937 C936 1.377 . S
C937 C943 1.390 . S
C938 H929 0.930 . S
C938 C936 1.384 . S
C938 C939 1.372 . S
C939 C938 1.372 . S
C939 C940 1.400 . S
C939 C944 1.490 . S
C940 H930 0.930 . S
C940 C939 1.400 . S
C940 C943 1.386 . S
H941 C957 0.930 . S
H942 C958 0.931 . S
C943 H931 0.929 . S
C943 C937 1.390 . S
C943 C940 1.386 . S
C944 C939 1.490 . S
C944 C946 1.395 . S
C944 C947 1.403 . S
H945 C951 0.930 . S
C946 H932 0.930 . S
C946 C944 1.395 . S
C946 C949 1.403 . S
C947 C944 1.403 . S
C947 C948 1.524 . S
C947 C951 1.400 . S
C948 H933 0.960 . S
C948 H934 0.960 . S
C948 H935 0.960 . S
C948 C947 1.524 . S
C949 C946 1.403 . S
C949 C950 1.392 . S
C949 C953 1.495 . S
C950 C949 1.392 . S
C950 C951 1.385 . S
C950 C952 1.478 . S
C951 H945 0.930 . S
C951 C947 1.400 . S
C951 C950 1.385 . S
C952 C950 1.478 . S
C952 C954 1.381 . S
C952 C958 1.383 . S
C953 C949 1.495 . S
C953 H959 0.959 . S
C953 H960 0.961 . S
C953 H961 0.960 . S
C954 C952 1.381 . S
C954 C955 1.394 . S
C954 H962 0.930 . S
C955 C954 1.394 . S
C955 C956 1.383 . S
C955 H963 0.929 . S
C956 C955 1.383 . S
C956 C957 1.377 . S
C957 H941 0.930 . S
C957 C956 1.377 . S
C957 C958 1.379 . S
C958 H942 0.931 . S
C958 C952 1.383 . S
C958 C957 1.379 . S
H959 C953 0.959 . S
H960 C953 0.961 . S
H961 C953 0.960 . S
H962 C954 0.930 . S
H963 C955 0.929 . S
H964 C972 0.929 . S
H965 C974 0.930 . S
H966 C976 0.930 . S
H967 C979 0.929 . S
H968 C982 0.930 . S
H969 C984 0.960 . S
H970 C984 0.960 . S
H971 C984 0.960 . S
C972 H964 0.929 . S
C972 C973 1.377 . S
C972 C974 1.384 . S
C973 C972 1.377 . S
C973 C979 1.390 . S
C974 H965 0.930 . S
C974 C972 1.384 . S
C974 C975 1.372 . S
C975 C974 1.372 . S
C975 C976 1.400 . S
C975 C980 1.490 . S
C976 H966 0.930 . S
C976 C975 1.400 . S
C976 C979 1.386 . S
H977 C993 0.930 . S
H978 C994 0.931 . S
C979 H967 0.929 . S
C979 C973 1.390 . S
C979 C976 1.386 . S
C980 C975 1.490 . S
C980 C982 1.395 . S
C980 C983 1.403 . S
H981 C987 0.930 . S
C982 H968 0.930 . S
C982 C980 1.395 . S
C982 C985 1.403 . S
C983 C980 1.403 . S
C983 C984 1.524 . S
C983 C987 1.400 . S
C984 H969 0.960 . S
C984 H970 0.960 . S
C984 H971 0.960 . S
C984 C983 1.524 . S
C985 C982 1.403 . S
C985 C986 1.392 . S
C985 C989 1.495 . S
C986 C985 1.392 . S
C986 C987 1.385 . S
C986 C988 1.478 . S
C987 H981 0.930 . S
C987 C983 1.400 . S
C987 C986 1.385 . S
C988 C986 1.478 . S
C988 C990 1.381 . S
C988 C994 1.383 . S
C989 C985 1.495 . S
C989 H995 0.959 . S
C989 H996 0.961 . S
C989 H997 0.960 . S
C990 C988 1.381 . S
C990 C991 1.394 . S
C990 H998 0.930 . S
C991 C990 1.394 . S
C991 C992 1.383 . S
C991 H999 0.929 . S
C992 C991 1.383 . S
C992 C993 1.377 . S
C993 H977 0.930 . S
C993 C992 1.377 . S
C993 C994 1.379 . S
C994 H978 0.931 . S
C994 C988 1.383 . S
C994 C993 1.379 . S
H995 C989 0.959 . S
H996 C989 0.961 . S
H997 C989 0.960 . S
H998 C990 0.930 . S
H999 C991 0.929 . S
H1000 C1008 0.929 . S
H1001 C1010 0.930 . S
H1002 C1012 0.930 . S
H1003 C1015 0.929 . S
H1004 C1018 0.930 . S
H1005 C1020 0.960 . S
H1006 C1020 0.960 . S
H1007 C1020 0.960 . S
C1008 H1000 0.929 . S
C1008 C1009 1.377 . S
C1008 C1010 1.384 . S
C1009 C1008 1.377 . S
C1009 C1015 1.390 . S
C1010 H1001 0.930 . S
C1010 C1008 1.384 . S
C1010 C1011 1.372 . S
C1011 C1010 1.372 . S
C1011 C1012 1.400 . S
C1011 C1016 1.490 . S
C1012 H1002 0.930 . S
C1012 C1011 1.400 . S
C1012 C1015 1.386 . S
H1013 C1029 0.930 . S
H1014 C1030 0.931 . S
C1015 H1003 0.929 . S
C1015 C1009 1.390 . S
C1015 C1012 1.386 . S
C1016 C1011 1.490 . S
C1016 C1018 1.395 . S
C1016 C1019 1.403 . S
H1017 C1023 0.930 . S
C1018 H1004 0.930 . S
C1018 C1016 1.395 . S
C1018 C1021 1.403 . S
C1019 C1016 1.403 . S
C1019 C1020 1.524 . S
C1019 C1023 1.400 . S
C1020 H1005 0.960 . S
C1020 H1006 0.960 . S
C1020 H1007 0.960 . S
C1020 C1019 1.524 . S
C1021 C1018 1.403 . S
C1021 C1022 1.392 . S
C1021 C1025 1.495 . S
C1022 C1021 1.392 . S
C1022 C1023 1.385 . S
C1022 C1024 1.478 . S
C1023 H1017 0.930 . S
C1023 C1019 1.400 . S
C1023 C1022 1.385 . S
C1024 C1022 1.478 . S
C1024 C1026 1.381 . S
C1024 C1030 1.383 . S
C1025 C1021 1.495 . S
C1025 H1031 0.959 . S
C1025 H1032 0.961 . S
C1025 H1033 0.960 . S
C1026 C1024 1.381 . S
C1026 C1027 1.394 . S
C1026 H1034 0.930 . S
C1027 C1026 1.394 . S
C1027 C1028 1.383 . S
C1027 H1035 0.929 . S
C1028 C1027 1.383 . S
C1028 C1029 1.377 . S
C1029 H1013 0.930 . S
C1029 C1028 1.377 . S
C1029 C1030 1.379 . S
C1030 H1014 0.931 . S
C1030 C1024 1.383 . S
C1030 C1029 1.379 . S
H1031 C1025 0.959 . S
H1032 C1025 0.961 . S
H1033 C1025 0.960 . S
H1034 C1026 0.930 . S
H1035 C1027 0.929 . S
H1036 C1044 0.929 . S
H1037 C1046 0.930 . S
H1038 C1048 0.930 . S
H1039 C1051 0.929 . S
H1040 C1054 0.930 . S
H1041 C1056 0.960 . S
H1042 C1056 0.960 . S
H1043 C1056 0.960 . S
C1044 H1036 0.929 . S
C1044 C1045 1.377 . S
C1044 C1046 1.384 . S
C1045 C1044 1.377 . S
C1045 C1051 1.390 . S
C1046 H1037 0.930 . S
C1046 C1044 1.384 . S
C1046 C1047 1.372 . S
C1047 C1046 1.372 . S
C1047 C1048 1.400 . S
C1047 C1052 1.490 . S
C1048 H1038 0.930 . S
C1048 C1047 1.400 . S
C1048 C1051 1.386 . S
H1049 C1065 0.930 . S
H1050 C1066 0.931 . S
C1051 H1039 0.929 . S
C1051 C1045 1.390 . S
C1051 C1048 1.386 . S
C1052 C1047 1.490 . S
C1052 C1054 1.395 . S
C1052 C1055 1.403 . S
H1053 C1059 0.930 . S
C1054 H1040 0.930 . S
C1054 C1052 1.395 . S
C1054 C1057 1.403 . S
C1055 C1052 1.403 . S
C1055 C1056 1.524 . S
C1055 C1059 1.400 . S
C1056 H1041 0.960 . S
C1056 H1042 0.960 . S
C1056 H1043 0.960 . S
C1056 C1055 1.524 . S
C1057 C1054 1.403 . S
C1057 C1058 1.392 . S
C1057 C1061 1.495 . S
C1058 C1057 1.392 . S
C1058 C1059 1.385 . S
C1058 C1060 1.478 . S
C1059 H1053 0.930 . S
C1059 C1055 1.400 . S
C1059 C1058 1.385 . S
C1060 C1058 1.478 . S
C1060 C1062 1.381 . S
C1060 C1066 1.383 . S
C1061 C1057 1.495 . S
C1061 H1067 0.959 . S
C1061 H1068 0.961 . S
C1061 H1069 0.960 . S
C1062 C1060 1.381 . S
C1062 C1063 1.394 . S
C1062 H1070 0.930 . S
C1063 C1062 1.394 . S
C1063 C1064 1.383 . S
C1063 H1071 0.929 . S
C1064 C1063 1.383 . S
C1064 C1065 1.377 . S
C1065 H1049 0.930 . S
C1065 C1064 1.377 . S
C1065 C1066 1.379 . S
C1066 H1050 0.931 . S
C1066 C1060 1.383 . S
C1066 C1065 1.379 . S
H1067 C1061 0.959 . S
H1068 C1061 0.961 . S
H1069 C1061 0.960 . S
H1070 C1062 0.930 . S
H1071 C1063 0.929 . S
H1072 C1080 0.929 . S
H1073 C1082 0.930 . S
H1074 C1084 0.930 . S
H1075 C1087 0.929 . S
H1076 C1090 0.930 . S
H1077 C1092 0.960 . S
H1078 C1092 0.960 . S
H1079 C1092 0.960 . S
C1080 H1072 0.929 . S
C1080 C1081 1.377 1_556 S
C1080 C1082 1.384 1_556 S
C1081 C1080 1.377 1_554 S
C1081 C1087 1.390 . S
C1082 H1073 0.930 . S
C1082 C1080 1.384 1_554 S
C1082 C1083 1.372 . S
C1083 C1082 1.372 . S
C1083 C1084 1.400 . S
C1083 C1088 1.490 . S
C1084 H1074 0.930 . S
C1084 C1083 1.400 . S
C1084 C1087 1.386 . S
H1085 C1101 0.930 . S
H1086 C1102 0.931 . S
C1087 H1075 0.929 . S
C1087 C1081 1.390 . S
C1087 C1084 1.386 . S
C1088 C1083 1.490 . S
C1088 C1090 1.395 . S
C1088 C1091 1.403 . S
H1089 C1095 0.930 . S
C1090 H1076 0.930 . S
C1090 C1088 1.395 . S
C1090 C1093 1.403 . S
C1091 C1088 1.403 . S
C1091 C1092 1.524 . S
C1091 C1095 1.400 . S
C1092 H1077 0.960 . S
C1092 H1078 0.960 . S
C1092 H1079 0.960 . S
C1092 C1091 1.524 . S
C1093 C1090 1.403 . S
C1093 C1094 1.392 . S
C1093 C1097 1.495 . S
C1094 C1093 1.392 . S
C1094 C1095 1.385 . S
C1094 C1096 1.478 . S
C1095 H1089 0.930 . S
C1095 C1091 1.400 . S
C1095 C1094 1.385 . S
C1096 C1094 1.478 . S
C1096 C1098 1.381 . S
C1096 C1102 1.383 . S
C1097 C1093 1.495 . S
C1097 H1103 0.959 . S
C1097 H1104 0.961 . S
C1097 H1105 0.960 . S
C1098 C1096 1.381 . S
C1098 C1099 1.394 . S
C1098 H1106 0.930 . S
C1099 C1098 1.394 . S
C1099 C1100 1.383 . S
C1099 H1107 0.929 . S
C1100 C1099 1.383 . S
C1100 C1101 1.377 . S
C1101 H1085 0.930 . S
C1101 C1100 1.377 . S
C1101 C1102 1.379 . S
C1102 H1086 0.931 . S
C1102 C1096 1.383 . S
C1102 C1101 1.379 . S
H1103 C1097 0.959 . S
H1104 C1097 0.961 . S
H1105 C1097 0.960 . S
H1106 C1098 0.930 . S
H1107 C1099 0.929 . S
H1108 C1116 0.929 . S
H1109 C1118 0.930 . S
H1110 C1120 0.930 . S
H1111 C1123 0.929 . S
H1112 C1126 0.930 . S
H1113 C1128 0.960 . S
H1114 C1128 0.960 . S
H1115 C1128 0.960 . S
C1116 H1108 0.929 . S
C1116 C1117 1.377 . S
C1116 C1118 1.384 . S
C1117 C1116 1.377 . S
C1117 C1123 1.390 . S
C1118 H1109 0.930 . S
C1118 C1116 1.384 . S
C1118 C1119 1.372 . S
C1119 C1118 1.372 . S
C1119 C1120 1.400 . S
C1119 C1124 1.490 . S
C1120 H1110 0.930 . S
C1120 C1119 1.400 . S
C1120 C1123 1.386 . S
H1121 C1137 0.930 . S
H1122 C1138 0.931 . S
C1123 H1111 0.929 . S
C1123 C1117 1.390 . S
C1123 C1120 1.386 . S
C1124 C1119 1.490 . S
C1124 C1126 1.395 . S
C1124 C1127 1.403 . S
H1125 C1131 0.930 . S
C1126 H1112 0.930 . S
C1126 C1124 1.395 . S
C1126 C1129 1.403 . S
C1127 C1124 1.403 . S
C1127 C1128 1.524 . S
C1127 C1131 1.400 . S
C1128 H1113 0.960 . S
C1128 H1114 0.960 . S
C1128 H1115 0.960 . S
C1128 C1127 1.524 . S
C1129 C1126 1.403 . S
C1129 C1130 1.392 . S
C1129 C1133 1.495 . S
C1130 C1129 1.392 . S
C1130 C1131 1.385 . S
C1130 C1132 1.478 . S
C1131 H1125 0.930 . S
C1131 C1127 1.400 . S
C1131 C1130 1.385 . S
C1132 C1130 1.478 . S
C1132 C1134 1.381 . S
C1132 C1138 1.383 . S
C1133 C1129 1.495 . S
C1133 H1139 0.959 . S
C1133 H1140 0.961 . S
C1133 H1141 0.960 . S
C1134 C1132 1.381 . S
C1134 C1135 1.394 . S
C1134 H1142 0.930 . S
C1135 C1134 1.394 . S
C1135 C1136 1.383 . S
C1135 H1143 0.929 . S
C1136 C1135 1.383 . S
C1136 C1137 1.377 . S
C1137 H1121 0.930 . S
C1137 C1136 1.377 . S
C1137 C1138 1.379 . S
C1138 H1122 0.931 . S
C1138 C1132 1.383 . S
C1138 C1137 1.379 . S
H1139 C1133 0.959 . S
H1140 C1133 0.961 . S
H1141 C1133 0.960 . S
H1142 C1134 0.930 . S
H1143 C1135 0.929 . S
H1144 C1152 0.929 . S
H1145 C1154 0.930 . S
H1146 C1156 0.930 . S
H1147 C1159 0.929 . S
H1148 C1162 0.930 . S
H1149 C1164 0.960 . S
H1150 C1164 0.960 . S
H1151 C1164 0.960 . S
C1152 H1144 0.929 . S
C1152 C1153 1.377 . S
C1152 C1154 1.384 . S
C1153 C1152 1.377 . S
C1153 C1159 1.390 . S
C1154 H1145 0.930 . S
C1154 C1152 1.384 . S
C1154 C1155 1.372 . S
C1155 C1154 1.372 . S
C1155 C1156 1.400 . S
C1155 C1160 1.490 . S
C1156 H1146 0.930 . S
C1156 C1155 1.400 . S
C1156 C1159 1.386 . S
H1157 C1173 0.930 . S
H1158 C1174 0.931 . S
C1159 H1147 0.929 . S
C1159 C1153 1.390 . S
C1159 C1156 1.386 . S
C1160 C1155 1.490 . S
C1160 C1162 1.395 . S
C1160 C1163 1.403 . S
H1161 C1167 0.930 . S
C1162 H1148 0.930 . S
C1162 C1160 1.395 . S
C1162 C1165 1.403 . S
C1163 C1160 1.403 . S
C1163 C1164 1.524 . S
C1163 C1167 1.400 . S
C1164 H1149 0.960 . S
C1164 H1150 0.960 . S
C1164 H1151 0.960 . S
C1164 C1163 1.524 . S
C1165 C1162 1.403 . S
C1165 C1166 1.392 . S
C1165 C1169 1.495 . S
C1166 C1165 1.392 . S
C1166 C1167 1.385 . S
C1166 C1168 1.478 . S
C1167 H1161 0.930 . S
C1167 C1163 1.400 . S
C1167 C1166 1.385 . S
C1168 C1166 1.478 . S
C1168 C1170 1.381 . S
C1168 C1174 1.383 . S
C1169 C1165 1.495 . S
C1169 H1175 0.959 . S
C1169 H1176 0.961 . S
C1169 H1177 0.960 . S
C1170 C1168 1.381 . S
C1170 C1171 1.394 . S
C1170 H1178 0.930 . S
C1171 C1170 1.394 . S
C1171 C1172 1.383 . S
C1171 H1179 0.929 . S
C1172 C1171 1.383 . S
C1172 C1173 1.377 . S
C1173 H1157 0.930 . S
C1173 C1172 1.377 . S
C1173 C1174 1.379 . S
C1174 H1158 0.931 . S
C1174 C1168 1.383 . S
C1174 C1173 1.379 . S
H1175 C1169 0.959 . S
H1176 C1169 0.961 . S
H1177 C1169 0.960 . S
H1178 C1170 0.930 . S
H1179 C1171 0.929 . S
H1180 C1188 0.929 . S
H1181 C1190 0.930 . S
H1182 C1192 0.930 . S
H1183 C1195 0.929 . S
H1184 C1198 0.930 . S
H1185 C1200 0.960 . S
H1186 C1200 0.960 . S
H1187 C1200 0.960 . S
C1188 H1180 0.929 . S
C1188 C1189 1.377 . S
C1188 C1190 1.384 . S
C1189 C1188 1.377 . S
C1189 C1195 1.390 . S
C1190 H1181 0.930 . S
C1190 C1188 1.384 . S
C1190 C1191 1.372 . S
C1191 C1190 1.372 . S
C1191 C1192 1.400 . S
C1191 C1196 1.490 . S
C1192 H1182 0.930 . S
C1192 C1191 1.400 . S
C1192 C1195 1.386 . S
H1193 C1209 0.930 . S
H1194 C1210 0.931 . S
C1195 H1183 0.929 . S
C1195 C1189 1.390 . S
C1195 C1192 1.386 . S
C1196 C1191 1.490 . S
C1196 C1198 1.395 . S
C1196 C1199 1.403 . S
H1197 C1203 0.930 . S
C1198 H1184 0.930 . S
C1198 C1196 1.395 . S
C1198 C1201 1.403 . S
C1199 C1196 1.403 . S
C1199 C1200 1.524 . S
C1199 C1203 1.400 . S
C1200 H1185 0.960 . S
C1200 H1186 0.960 . S
C1200 H1187 0.960 . S
C1200 C1199 1.524 . S
C1201 C1198 1.403 . S
C1201 C1202 1.392 . S
C1201 C1205 1.495 . S
C1202 C1201 1.392 . S
C1202 C1203 1.385 . S
C1202 C1204 1.478 . S
C1203 H1197 0.930 . S
C1203 C1199 1.400 . S
C1203 C1202 1.385 . S
C1204 C1202 1.478 . S
C1204 C1206 1.381 . S
C1204 C1210 1.383 . S
C1205 C1201 1.495 . S
C1205 H1211 0.959 . S
C1205 H1212 0.961 . S
C1205 H1213 0.960 . S
C1206 C1204 1.381 . S
C1206 C1207 1.394 . S
C1206 H1214 0.930 . S
C1207 C1206 1.394 . S
C1207 C1208 1.383 . S
C1207 H1215 0.929 . S
C1208 C1207 1.383 . S
C1208 C1209 1.377 . S
C1209 H1193 0.930 . S
C1209 C1208 1.377 . S
C1209 C1210 1.379 . S
C1210 H1194 0.931 . S
C1210 C1204 1.383 . S
C1210 C1209 1.379 . S
H1211 C1205 0.959 . S
H1212 C1205 0.961 . S
H1213 C1205 0.960 . S
H1214 C1206 0.930 . S
H1215 C1207 0.929 . S
H1216 C1224 0.929 . S
H1217 C1226 0.930 . S
H1218 C1228 0.930 . S
H1219 C1231 0.929 . S
H1220 C1234 0.930 . S
H1221 C1236 0.960 . S
H1222 C1236 0.960 . S
H1223 C1236 0.960 . S
C1224 H1216 0.929 . S
C1224 C1225 1.377 . S
C1224 C1226 1.384 . S
C1225 C1224 1.377 . S
C1225 C1231 1.390 . S
C1226 H1217 0.930 . S
C1226 C1224 1.384 . S
C1226 C1227 1.372 . S
C1227 C1226 1.372 . S
C1227 C1228 1.400 . S
C1227 C1232 1.490 . S
C1228 H1218 0.930 . S
C1228 C1227 1.400 . S
C1228 C1231 1.386 . S
H1229 C1245 0.930 . S
H1230 C1246 0.931 . S
C1231 H1219 0.929 . S
C1231 C1225 1.390 . S
C1231 C1228 1.386 . S
C1232 C1227 1.490 . S
C1232 C1234 1.395 . S
C1232 C1235 1.403 . S
H1233 C1239 0.930 . S
C1234 H1220 0.930 . S
C1234 C1232 1.395 . S
C1234 C1237 1.403 . S
C1235 C1232 1.403 . S
C1235 C1236 1.524 . S
C1235 C1239 1.400 . S
C1236 H1221 0.960 . S
C1236 H1222 0.960 . S
C1236 H1223 0.960 . S
C1236 C1235 1.524 . S
C1237 C1234 1.403 . S
C1237 C1238 1.392 . S
C1237 C1241 1.495 . S
C1238 C1237 1.392 . S
C1238 C1239 1.385 . S
C1238 C1240 1.478 . S
C1239 H1233 0.930 . S
C1239 C1235 1.400 . S
C1239 C1238 1.385 . S
C1240 C1238 1.478 . S
C1240 C1242 1.381 . S
C1240 C1246 1.383 . S
C1241 C1237 1.495 . S
C1241 H1247 0.959 . S
C1241 H1248 0.961 . S
C1241 H1249 0.960 . S
C1242 C1240 1.381 . S
C1242 C1243 1.394 . S
C1242 H1250 0.930 . S
C1243 C1242 1.394 . S
C1243 C1244 1.383 . S
C1243 H1251 0.929 . S
C1244 C1243 1.383 . S
C1244 C1245 1.377 . S
C1245 H1229 0.930 . S
C1245 C1244 1.377 . S
C1245 C1246 1.379 . S
C1246 H1230 0.931 . S
C1246 C1240 1.383 . S
C1246 C1245 1.379 . S
H1247 C1241 0.959 . S
H1248 C1241 0.961 . S
H1249 C1241 0.960 . S
H1250 C1242 0.930 . S
H1251 C1243 0.929 . S
H1252 C1260 0.929 . S
H1253 C1262 0.930 . S
H1254 C1264 0.930 . S
H1255 C1267 0.929 . S
H1256 C1270 0.930 . S
H1257 C1272 0.960 . S
H1258 C1272 0.960 1_545 S
H1259 C1272 0.960 . S
C1260 H1252 0.929 . S
C1260 C1261 1.377 . S
C1260 C1262 1.384 . S
C1261 C1260 1.377 . S
C1261 C1267 1.390 . S
C1262 H1253 0.930 . S
C1262 C1260 1.384 . S
C1262 C1263 1.372 . S
C1263 C1262 1.372 . S
C1263 C1264 1.400 . S
C1263 C1268 1.490 1_545 S
C1264 H1254 0.930 . S
C1264 C1263 1.400 . S
C1264 C1267 1.386 . S
H1265 C1281 0.930 . S
H1266 C1282 0.931 . S
C1267 H1255 0.929 . S
C1267 C1261 1.390 . S
C1267 C1264 1.386 . S
C1268 C1263 1.490 1_565 S
C1268 C1270 1.395 . S
C1268 C1271 1.403 . S
H1269 C1275 0.930 . S
C1270 H1256 0.930 . S
C1270 C1268 1.395 . S
C1270 C1273 1.403 . S
C1271 C1268 1.403 . S
C1271 C1272 1.524 . S
C1271 C1275 1.400 . S
C1272 H1257 0.960 . S
C1272 H1258 0.960 1_565 S
C1272 H1259 0.960 . S
C1272 C1271 1.524 . S
C1273 C1270 1.403 . S
C1273 C1274 1.392 . S
C1273 C1277 1.495 . S
C1274 C1273 1.392 . S
C1274 C1275 1.385 . S
C1274 C1276 1.478 . S
C1275 H1269 0.930 . S
C1275 C1271 1.400 . S
C1275 C1274 1.385 . S
C1276 C1274 1.478 . S
C1276 C1278 1.381 . S
C1276 C1282 1.383 . S
C1277 C1273 1.495 . S
C1277 H1283 0.959 . S
C1277 H1284 0.961 . S
C1277 H1285 0.960 . S
C1278 C1276 1.381 . S
C1278 C1279 1.394 . S
C1278 H1286 0.930 . S
C1279 C1278 1.394 . S
C1279 C1280 1.383 . S
C1279 H1287 0.929 . S
C1280 C1279 1.383 . S
C1280 C1281 1.377 . S
C1281 H1265 0.930 . S
C1281 C1280 1.377 . S
C1281 C1282 1.379 . S
C1282 H1266 0.931 . S
C1282 C1276 1.383 . S
C1282 C1281 1.379 . S
H1283 C1277 0.959 . S
H1284 C1277 0.961 . S
H1285 C1277 0.960 . S
H1286 C1278 0.930 . S
H1287 C1279 0.929 . S
H1288 C1296 0.929 . S
H1289 C1298 0.930 . S
H1290 C1300 0.930 . S
H1291 C1303 0.929 . S
H1292 C1306 0.930 . S
H1293 C1308 0.960 . S
H1294 C1308 0.960 . S
H1295 C1308 0.960 . S
C1296 H1288 0.929 . S
C1296 C1297 1.377 . S
C1296 C1298 1.384 . S
C1297 C1296 1.377 . S
C1297 C1303 1.390 . S
C1298 H1289 0.930 . S
C1298 C1296 1.384 . S
C1298 C1299 1.372 . S
C1299 C1298 1.372 . S
C1299 C1300 1.400 . S
C1299 C1304 1.490 . S
C1300 H1290 0.930 . S
C1300 C1299 1.400 . S
C1300 C1303 1.386 . S
H1301 C1317 0.930 . S
H1302 C1318 0.931 . S
C1303 H1291 0.929 . S
C1303 C1297 1.390 . S
C1303 C1300 1.386 . S
C1304 C1299 1.490 . S
C1304 C1306 1.395 . S
C1304 C1307 1.403 . S
H1305 C1311 0.930 . S
C1306 H1292 0.930 . S
C1306 C1304 1.395 . S
C1306 C1309 1.403 . S
C1307 C1304 1.403 . S
C1307 C1308 1.524 . S
C1307 C1311 1.400 . S
C1308 H1293 0.960 . S
C1308 H1294 0.960 . S
C1308 H1295 0.960 . S
C1308 C1307 1.524 . S
C1309 C1306 1.403 . S
C1309 C1310 1.392 . S
C1309 C1313 1.495 . S
C1310 C1309 1.392 . S
C1310 C1311 1.385 . S
C1310 C1312 1.478 . S
C1311 H1305 0.930 . S
C1311 C1307 1.400 . S
C1311 C1310 1.385 . S
C1312 C1310 1.478 . S
C1312 C1314 1.381 . S
C1312 C1318 1.383 . S
C1313 C1309 1.495 . S
C1313 H1319 0.959 . S
C1313 H1320 0.961 . S
C1313 H1321 0.960 . S
C1314 C1312 1.381 . S
C1314 C1315 1.394 . S
C1314 H1322 0.930 . S
C1315 C1314 1.394 . S
C1315 C1316 1.383 . S
C1315 H1323 0.929 . S
C1316 C1315 1.383 . S
C1316 C1317 1.377 . S
C1317 H1301 0.930 . S
C1317 C1316 1.377 . S
C1317 C1318 1.379 . S
C1318 H1302 0.931 . S
C1318 C1312 1.383 . S
C1318 C1317 1.379 . S
H1319 C1313 0.959 . S
H1320 C1313 0.961 . S
H1321 C1313 0.960 . S
H1322 C1314 0.930 . S
H1323 C1315 0.929 . S
H1324 C1332 0.929 . S
H1325 C1334 0.930 . S
H1326 C1336 0.930 . S
H1327 C1339 0.929 . S
H1328 C1342 0.930 . S
H1329 C1344 0.960 1_545 S
H1330 C1344 0.960 . S
H1331 C1344 0.960 . S
C1332 H1324 0.929 . S
C1332 C1333 1.377 . S
C1332 C1334 1.384 . S
C1333 C1332 1.377 . S
C1333 C1339 1.390 . S
C1334 H1325 0.930 . S
C1334 C1332 1.384 . S
C1334 C1335 1.372 . S
C1335 C1334 1.372 . S
C1335 C1336 1.400 . S
C1335 C1340 1.490 1_565 S
C1336 H1326 0.930 . S
C1336 C1335 1.400 . S
C1336 C1339 1.386 . S
H1337 C1353 0.930 . S
H1338 C1354 0.931 . S
C1339 H1327 0.929 . S
C1339 C1333 1.390 . S
C1339 C1336 1.386 . S
C1340 C1335 1.490 1_545 S
C1340 C1342 1.395 . S
C1340 C1343 1.403 . S
H1341 C1347 0.930 . S
C1342 H1328 0.930 . S
C1342 C1340 1.395 . S
C1342 C1345 1.403 . S
C1343 C1340 1.403 . S
C1343 C1344 1.524 1_545 S
C1343 C1347 1.400 . S
C1344 H1329 0.960 1_565 S
C1344 H1330 0.960 . S
C1344 H1331 0.960 . S
C1344 C1343 1.524 1_565 S
C1345 C1342 1.403 . S
C1345 C1346 1.392 . S
C1345 C1349 1.495 . S
C1346 C1345 1.392 . S
C1346 C1347 1.385 . S
C1346 C1348 1.478 . S
C1347 H1341 0.930 . S
C1347 C1343 1.400 . S
C1347 C1346 1.385 . S
C1348 C1346 1.478 . S
C1348 C1350 1.381 . S
C1348 C1354 1.383 . S
C1349 C1345 1.495 . S
C1349 H1355 0.959 . S
C1349 H1356 0.961 . S
C1349 H1357 0.960 . S
C1350 C1348 1.381 . S
C1350 C1351 1.394 . S
C1350 H1358 0.930 . S
C1351 C1350 1.394 . S
C1351 C1352 1.383 . S
C1351 H1359 0.929 . S
C1352 C1351 1.383 . S
C1352 C1353 1.377 . S
C1353 H1337 0.930 . S
C1353 C1352 1.377 . S
C1353 C1354 1.379 . S
C1354 H1338 0.931 . S
C1354 C1348 1.383 . S
C1354 C1353 1.379 . S
H1355 C1349 0.959 . S
H1356 C1349 0.961 . S
H1357 C1349 0.960 . S
H1358 C1350 0.930 . S
H1359 C1351 0.929 . S
H1360 C1368 0.929 . S
H1361 C1370 0.930 . S
H1362 C1372 0.930 . S
H1363 C1375 0.929 . S
H1364 C1378 0.930 . S
H1365 C1380 0.960 . S
H1366 C1380 0.960 . S
H1367 C1380 0.960 . S
C1368 H1360 0.929 . S
C1368 C1369 1.377 . S
C1368 C1370 1.384 . S
C1369 C1368 1.377 . S
C1369 C1375 1.390 . S
C1370 H1361 0.930 . S
C1370 C1368 1.384 . S
C1370 C1371 1.372 . S
C1371 C1370 1.372 . S
C1371 C1372 1.400 . S
C1371 C1376 1.490 . S
C1372 H1362 0.930 . S
C1372 C1371 1.400 . S
C1372 C1375 1.386 . S
H1373 C1389 0.930 . S
H1374 C1390 0.931 . S
C1375 H1363 0.929 . S
C1375 C1369 1.390 . S
C1375 C1372 1.386 . S
C1376 C1371 1.490 . S
C1376 C1378 1.395 . S
C1376 C1379 1.403 . S
H1377 C1383 0.930 . S
C1378 H1364 0.930 . S
C1378 C1376 1.395 . S
C1378 C1381 1.403 . S
C1379 C1376 1.403 . S
C1379 C1380 1.524 . S
C1379 C1383 1.400 . S
C1380 H1365 0.960 . S
C1380 H1366 0.960 . S
C1380 H1367 0.960 . S
C1380 C1379 1.524 . S
C1381 C1378 1.403 . S
C1381 C1382 1.392 . S
C1381 C1385 1.495 . S
C1382 C1381 1.392 . S
C1382 C1383 1.385 . S
C1382 C1384 1.478 . S
C1383 H1377 0.930 . S
C1383 C1379 1.400 . S
C1383 C1382 1.385 . S
C1384 C1382 1.478 . S
C1384 C1386 1.381 . S
C1384 C1390 1.383 . S
C1385 C1381 1.495 . S
C1385 H1391 0.959 . S
C1385 H1392 0.961 . S
C1385 H1393 0.960 . S
C1386 C1384 1.381 . S
C1386 C1387 1.394 . S
C1386 H1394 0.930 . S
C1387 C1386 1.394 . S
C1387 C1388 1.383 . S
C1387 H1395 0.929 . S
C1388 C1387 1.383 . S
C1388 C1389 1.377 . S
C1389 H1373 0.930 . S
C1389 C1388 1.377 . S
C1389 C1390 1.379 . S
C1390 H1374 0.931 . S
C1390 C1384 1.383 . S
C1390 C1389 1.379 . S
H1391 C1385 0.959 . S
H1392 C1385 0.961 . S
H1393 C1385 0.960 . S
H1394 C1386 0.930 . S
H1395 C1387 0.929 . S
H1396 C1404 0.929 . S
H1397 C1406 0.930 . S
H1398 C1408 0.930 . S
H1399 C1411 0.929 . S
H1400 C1414 0.930 . S
H1401 C1416 0.960 . S
H1402 C1416 0.960 . S
H1403 C1416 0.960 . S
C1404 H1396 0.929 . S
C1404 C1405 1.377 . S
C1404 C1406 1.384 . S
C1405 C1404 1.377 . S
C1405 C1411 1.390 . S
C1406 H1397 0.930 . S
C1406 C1404 1.384 . S
C1406 C1407 1.372 . S
C1407 C1406 1.372 . S
C1407 C1408 1.400 . S
C1407 C1412 1.490 . S
C1408 H1398 0.930 . S
C1408 C1407 1.400 . S
C1408 C1411 1.386 . S
H1409 C1425 0.930 . S
H1410 C1426 0.931 . S
C1411 H1399 0.929 . S
C1411 C1405 1.390 . S
C1411 C1408 1.386 . S
C1412 C1407 1.490 . S
C1412 C1414 1.395 . S
C1412 C1415 1.403 . S
H1413 C1419 0.930 . S
C1414 H1400 0.930 . S
C1414 C1412 1.395 . S
C1414 C1417 1.403 . S
C1415 C1412 1.403 . S
C1415 C1416 1.524 . S
C1415 C1419 1.400 . S
C1416 H1401 0.960 . S
C1416 H1402 0.960 . S
C1416 H1403 0.960 . S
C1416 C1415 1.524 . S
C1417 C1414 1.403 . S
C1417 C1418 1.392 . S
C1417 C1421 1.495 1_545 S
C1418 C1417 1.392 . S
C1418 C1419 1.385 . S
C1418 C1420 1.478 1_545 S
C1419 H1413 0.930 . S
C1419 C1415 1.400 . S
C1419 C1418 1.385 . S
C1420 C1418 1.478 1_565 S
C1420 C1422 1.381 . S
C1420 C1426 1.383 . S
C1421 C1417 1.495 1_565 S
C1421 H1427 0.959 1_565 S
C1421 H1428 0.961 . S
C1421 H1429 0.960 . S
C1422 C1420 1.381 . S
C1422 C1423 1.394 . S
C1422 H1430 0.930 . S
C1423 C1422 1.394 . S
C1423 C1424 1.383 . S
C1423 H1431 0.929 . S
C1424 C1423 1.383 . S
C1424 C1425 1.377 . S
C1425 H1409 0.930 . S
C1425 C1424 1.377 . S
C1425 C1426 1.379 . S
C1426 H1410 0.931 . S
C1426 C1420 1.383 . S
C1426 C1425 1.379 . S
H1427 C1421 0.959 1_545 S
H1428 C1421 0.961 . S
H1429 C1421 0.960 . S
H1430 C1422 0.930 . S
H1431 C1423 0.929 . S
H1432 C1440 0.929 . S
H1433 C1442 0.930 . S
H1434 C1444 0.930 . S
H1435 C1447 0.929 . S
H1436 C1450 0.930 . S
H1437 C1452 0.960 . S
H1438 C1452 0.960 . S
H1439 C1452 0.960 . S
C1440 H1432 0.929 . S
C1440 C1441 1.377 . S
C1440 C1442 1.384 . S
C1441 C1440 1.377 . S
C1441 C1447 1.390 . S
C1442 H1433 0.930 . S
C1442 C1440 1.384 . S
C1442 C1443 1.372 . S
C1443 C1442 1.372 . S
C1443 C1444 1.400 . S
C1443 C1448 1.490 . S
C1444 H1434 0.930 . S
C1444 C1443 1.400 . S
C1444 C1447 1.386 . S
H1445 C1461 0.930 1_556 S
H1446 C1462 0.931 . S
C1447 H1435 0.929 . S
C1447 C1441 1.390 . S
C1447 C1444 1.386 . S
C1448 C1443 1.490 . S
C1448 C1450 1.395 . S
C1448 C1451 1.403 . S
H1449 C1455 0.930 . S
C1450 H1436 0.930 . S
C1450 C1448 1.395 . S
C1450 C1453 1.403 . S
C1451 C1448 1.403 . S
C1451 C1452 1.524 . S
C1451 C1455 1.400 . S
C1452 H1437 0.960 . S
C1452 H1438 0.960 . S
C1452 H1439 0.960 . S
C1452 C1451 1.524 . S
C1453 C1450 1.403 . S
C1453 C1454 1.392 . S
C1453 C1457 1.495 . S
C1454 C1453 1.392 . S
C1454 C1455 1.385 . S
C1454 C1456 1.478 . S
C1455 H1449 0.930 . S
C1455 C1451 1.400 . S
C1455 C1454 1.385 . S
C1456 C1454 1.478 . S
C1456 C1458 1.381 . S
C1456 C1462 1.383 . S
C1457 C1453 1.495 . S
C1457 H1463 0.959 . S
C1457 H1464 0.961 . S
C1457 H1465 0.960 . S
C1458 C1456 1.381 . S
C1458 C1459 1.394 . S
C1458 H1466 0.930 . S
C1459 C1458 1.394 . S
C1459 C1460 1.383 . S
C1459 H1467 0.929 . S
C1460 C1459 1.383 . S
C1460 C1461 1.377 . S
C1461 H1445 0.930 1_554 S
C1461 C1460 1.377 . S
C1461 C1462 1.379 . S
C1462 H1446 0.931 . S
C1462 C1456 1.383 . S
C1462 C1461 1.379 . S
H1463 C1457 0.959 . S
H1464 C1457 0.961 . S
H1465 C1457 0.960 . S
H1466 C1458 0.930 . S
H1467 C1459 0.929 . S
H1468 C1476 0.929 . S
H1469 C1478 0.930 . S
H1470 C1480 0.930 . S
H1471 C1483 0.929 . S
H1472 C1486 0.930 1_545 S
H1473 C1488 0.960 . S
H1474 C1488 0.960 . S
H1475 C1488 0.960 . S
C1476 H1468 0.929 . S
C1476 C1477 1.377 . S
C1476 C1478 1.384 . S
C1477 C1476 1.377 . S
C1477 C1483 1.390 . S
C1478 H1469 0.930 . S
C1478 C1476 1.384 . S
C1478 C1479 1.372 . S
C1479 C1478 1.372 . S
C1479 C1480 1.400 . S
C1479 C1484 1.490 1_545 S
C1480 H1470 0.930 . S
C1480 C1479 1.400 . S
C1480 C1483 1.386 . S
H1481 C1497 0.930 . S
H1482 C1498 0.931 . S
C1483 H1471 0.929 . S
C1483 C1477 1.390 . S
C1483 C1480 1.386 . S
C1484 C1479 1.490 1_565 S
C1484 C1486 1.395 . S
C1484 C1487 1.403 . S
H1485 C1491 0.930 . S
C1486 H1472 0.930 1_565 S
C1486 C1484 1.395 . S
C1486 C1489 1.403 . S
C1487 C1484 1.403 . S
C1487 C1488 1.524 . S
C1487 C1491 1.400 . S
C1488 H1473 0.960 . S
C1488 H1474 0.960 . S
C1488 H1475 0.960 . S
C1488 C1487 1.524 . S
C1489 C1486 1.403 . S
C1489 C1490 1.392 . S
C1489 C1493 1.495 . S
C1490 C1489 1.392 . S
C1490 C1491 1.385 . S
C1490 C1492 1.478 . S
C1491 H1485 0.930 . S
C1491 C1487 1.400 . S
C1491 C1490 1.385 . S
C1492 C1490 1.478 . S
C1492 C1494 1.381 . S
C1492 C1498 1.383 . S
C1493 C1489 1.495 . S
C1493 H1499 0.959 . S
C1493 H1500 0.961 . S
C1493 H1501 0.960 . S
C1494 C1492 1.381 . S
C1494 C1495 1.394 . S
C1494 H1502 0.930 . S
C1495 C1494 1.394 . S
C1495 C1496 1.383 . S
C1495 H1503 0.929 . S
C1496 C1495 1.383 . S
C1496 C1497 1.377 . S
C1497 H1481 0.930 . S
C1497 C1496 1.377 . S
C1497 C1498 1.379 . S
C1498 H1482 0.931 . S
C1498 C1492 1.383 . S
C1498 C1497 1.379 . S
H1499 C1493 0.959 . S
H1500 C1493 0.961 . S
H1501 C1493 0.960 . S
H1502 C1494 0.930 . S
H1503 C1495 0.929 . S
H1504 C1512 0.929 . S
H1505 C1514 0.930 . S
H1506 C1516 0.930 . S
H1507 C1519 0.929 . S
H1508 C1522 0.930 . S
H1509 C1524 0.960 . S
H1510 C1524 0.960 . S
H1511 C1524 0.960 . S
C1512 H1504 0.929 . S
C1512 C1513 1.377 . S
C1512 C1514 1.384 . S
C1513 C1512 1.377 . S
C1513 C1519 1.390 . S
C1514 H1505 0.930 . S
C1514 C1512 1.384 . S
C1514 C1515 1.372 . S
C1515 C1514 1.372 . S
C1515 C1516 1.400 . S
C1515 C1520 1.490 . S
C1516 H1506 0.930 . S
C1516 C1515 1.400 . S
C1516 C1519 1.386 . S
H1517 C1533 0.930 . S
H1518 C1534 0.931 . S
C1519 H1507 0.929 . S
C1519 C1513 1.390 . S
C1519 C1516 1.386 . S
C1520 C1515 1.490 . S
C1520 C1522 1.395 . S
C1520 C1523 1.403 . S
H1521 C1527 0.930 . S
C1522 H1508 0.930 . S
C1522 C1520 1.395 . S
C1522 C1525 1.403 . S
C1523 C1520 1.403 . S
C1523 C1524 1.524 . S
C1523 C1527 1.400 . S
C1524 H1509 0.960 . S
C1524 H1510 0.960 . S
C1524 H1511 0.960 . S
C1524 C1523 1.524 . S
C1525 C1522 1.403 . S
C1525 C1526 1.392 . S
C1525 C1529 1.495 . S
C1526 C1525 1.392 . S
C1526 C1527 1.385 . S
C1526 C1528 1.478 . S
C1527 H1521 0.930 . S
C1527 C1523 1.400 . S
C1527 C1526 1.385 . S
C1528 C1526 1.478 . S
C1528 C1530 1.381 . S
C1528 C1534 1.383 . S
C1529 C1525 1.495 . S
C1529 H1535 0.959 . S
C1529 H1536 0.961 . S
C1529 H1537 0.960 . S
C1530 C1528 1.381 . S
C1530 C1531 1.394 . S
C1530 H1538 0.930 . S
C1531 C1530 1.394 . S
C1531 C1532 1.383 . S
C1531 H1539 0.929 . S
C1532 C1531 1.383 . S
C1532 C1533 1.377 . S
C1533 H1517 0.930 . S
C1533 C1532 1.377 . S
C1533 C1534 1.379 . S
C1534 H1518 0.931 . S
C1534 C1528 1.383 . S
C1534 C1533 1.379 . S
H1535 C1529 0.959 . S
H1536 C1529 0.961 . S
H1537 C1529 0.960 . S
H1538 C1530 0.930 . S
H1539 C1531 0.929 . S
H1540 C1548 0.929 . S
H1541 C1550 0.930 . S
H1542 C1552 0.930 . S
H1543 C1555 0.929 . S
H1544 C1558 0.930 . S
H1545 C1560 0.960 . S
H1546 C1560 0.960 . S
H1547 C1560 0.960 . S
C1548 H1540 0.929 . S
C1548 C1549 1.377 . S
C1548 C1550 1.384 . S
C1549 C1548 1.377 . S
C1549 C1555 1.390 . S
C1550 H1541 0.930 . S
C1550 C1548 1.384 . S
C1550 C1551 1.372 . S
C1551 C1550 1.372 . S
C1551 C1552 1.400 . S
C1551 C1556 1.490 . S
C1552 H1542 0.930 . S
C1552 C1551 1.400 . S
C1552 C1555 1.386 . S
H1553 C1569 0.930 . S
H1554 C1570 0.931 . S
C1555 H1543 0.929 . S
C1555 C1549 1.390 . S
C1555 C1552 1.386 . S
C1556 C1551 1.490 . S
C1556 C1558 1.395 . S
C1556 C1559 1.403 . S
H1557 C1563 0.930 . S
C1558 H1544 0.930 . S
C1558 C1556 1.395 . S
C1558 C1561 1.403 . S
C1559 C1556 1.403 . S
C1559 C1560 1.524 . S
C1559 C1563 1.400 . S
C1560 H1545 0.960 . S
C1560 H1546 0.960 . S
C1560 H1547 0.960 . S
C1560 C1559 1.524 . S
C1561 C1558 1.403 . S
C1561 C1562 1.392 . S
C1561 C1565 1.495 . S
C1562 C1561 1.392 . S
C1562 C1563 1.385 . S
C1562 C1564 1.478 . S
C1563 H1557 0.930 . S
C1563 C1559 1.400 . S
C1563 C1562 1.385 . S
C1564 C1562 1.478 . S
C1564 C1566 1.381 . S
C1564 C1570 1.383 . S
C1565 C1561 1.495 . S
C1565 H1571 0.959 . S
C1565 H1572 0.961 . S
C1565 H1573 0.960 . S
C1566 C1564 1.381 . S
C1566 C1567 1.394 . S
C1566 H1574 0.930 . S
C1567 C1566 1.394 . S
C1567 C1568 1.383 1_554 S
C1567 H1575 0.929 . S
C1568 C1567 1.383 1_556 S
C1568 C1569 1.377 . S
C1569 H1553 0.930 . S
C1569 C1568 1.377 . S
C1569 C1570 1.379 1_556 S
C1570 H1554 0.931 . S
C1570 C1564 1.383 . S
C1570 C1569 1.379 1_554 S
H1571 C1565 0.959 . S
H1572 C1565 0.961 . S
H1573 C1565 0.960 . S
H1574 C1566 0.930 . S
H1575 C1567 0.929 . S
H1576 C1584 0.929 . S
H1577 C1586 0.930 . S
H1578 C1588 0.930 . S
H1579 C1591 0.929 . S
H1580 C1594 0.930 . S
H1581 C1596 0.960 . S
H1582 C1596 0.960 . S
H1583 C1596 0.960 . S
C1584 H1576 0.929 . S
C1584 C1585 1.377 . S
C1584 C1586 1.384 . S
C1585 C1584 1.377 . S
C1585 C1591 1.390 . S
C1586 H1577 0.930 . S
C1586 C1584 1.384 . S
C1586 C1587 1.372 . S
C1587 C1586 1.372 . S
C1587 C1588 1.400 . S
C1587 C1592 1.490 . S
C1588 H1578 0.930 . S
C1588 C1587 1.400 . S
C1588 C1591 1.386 . S
H1589 C1605 0.930 . S
H1590 C1606 0.931 . S
C1591 H1579 0.929 . S
C1591 C1585 1.390 . S
C1591 C1588 1.386 . S
C1592 C1587 1.490 . S
C1592 C1594 1.395 . S
C1592 C1595 1.403 . S
H1593 C1599 0.930 . S
C1594 H1580 0.930 . S
C1594 C1592 1.395 . S
C1594 C1597 1.403 . S
C1595 C1592 1.403 . S
C1595 C1596 1.524 . S
C1595 C1599 1.400 . S
C1596 H1581 0.960 . S
C1596 H1582 0.960 . S
C1596 H1583 0.960 . S
C1596 C1595 1.524 . S
C1597 C1594 1.403 . S
C1597 C1598 1.392 . S
C1597 C1601 1.495 1_655 S
C1598 C1597 1.392 . S
C1598 C1599 1.385 . S
C1598 C1600 1.478 1_655 S
C1599 H1593 0.930 . S
C1599 C1595 1.400 . S
C1599 C1598 1.385 . S
C1600 C1598 1.478 1_455 S
C1600 C1602 1.381 . S
C1600 C1606 1.383 . S
C1601 C1597 1.495 1_455 S
C1601 H1607 0.959 . S
C1601 H1608 0.961 . S
C1601 H1609 0.960 . S
C1602 C1600 1.381 . S
C1602 C1603 1.394 . S
C1602 H1610 0.930 1_455 S
C1603 C1602 1.394 . S
C1603 C1604 1.383 . S
C1603 H1611 0.929 . S
C1604 C1603 1.383 . S
C1604 C1605 1.377 . S
C1605 H1589 0.930 . S
C1605 C1604 1.377 . S
C1605 C1606 1.379 . S
C1606 H1590 0.931 . S
C1606 C1600 1.383 . S
C1606 C1605 1.379 . S
H1607 C1601 0.959 . S
H1608 C1601 0.961 . S
H1609 C1601 0.960 . S
H1610 C1602 0.930 1_655 S
H1611 C1603 0.929 . S
H1612 C1620 0.929 . S
H1613 C1622 0.930 . S
H1614 C1624 0.930 . S
H1615 C1627 0.929 . S
H1616 C1630 0.930 . S
H1617 C1632 0.960 . S
H1618 C1632 0.960 . S
H1619 C1632 0.960 . S
C1620 H1612 0.929 . S
C1620 C1621 1.377 . S
C1620 C1622 1.384 . S
C1621 C1620 1.377 . S
C1621 C1627 1.390 . S
C1622 H1613 0.930 . S
C1622 C1620 1.384 . S
C1622 C1623 1.372 . S
C1623 C1622 1.372 . S
C1623 C1624 1.400 . S
C1623 C1628 1.490 . S
C1624 H1614 0.930 . S
C1624 C1623 1.400 . S
C1624 C1627 1.386 . S
H1625 C1641 0.930 . S
H1626 C1642 0.931 . S
C1627 H1615 0.929 . S
C1627 C1621 1.390 . S
C1627 C1624 1.386 . S
C1628 C1623 1.490 . S
C1628 C1630 1.395 . S
C1628 C1631 1.403 . S
H1629 C1635 0.930 . S
C1630 H1616 0.930 . S
C1630 C1628 1.395 . S
C1630 C1633 1.403 . S
C1631 C1628 1.403 . S
C1631 C1632 1.524 . S
C1631 C1635 1.400 . S
C1632 H1617 0.960 . S
C1632 H1618 0.960 . S
C1632 H1619 0.960 . S
C1632 C1631 1.524 . S
C1633 C1630 1.403 . S
C1633 C1634 1.392 . S
C1633 C1637 1.495 . S
C1634 C1633 1.392 . S
C1634 C1635 1.385 . S
C1634 C1636 1.478 . S
C1635 H1629 0.930 . S
C1635 C1631 1.400 . S
C1635 C1634 1.385 . S
C1636 C1634 1.478 . S
C1636 C1638 1.381 . S
C1636 C1642 1.383 . S
C1637 C1633 1.495 . S
C1637 H1643 0.959 . S
C1637 H1644 0.961 . S
C1637 H1645 0.960 . S
C1638 C1636 1.381 . S
C1638 C1639 1.394 . S
C1638 H1646 0.930 . S
C1639 C1638 1.394 . S
C1639 C1640 1.383 . S
C1639 H1647 0.929 . S
C1640 C1639 1.383 . S
C1640 C1641 1.377 . S
C1641 H1625 0.930 . S
C1641 C1640 1.377 . S
C1641 C1642 1.379 . S
C1642 H1626 0.931 . S
C1642 C1636 1.383 . S
C1642 C1641 1.379 . S
H1643 C1637 0.959 . S
H1644 C1637 0.961 . S
H1645 C1637 0.960 . S
H1646 C1638 0.930 . S
H1647 C1639 0.929 . S
H1648 C1656 0.929 . S
H1649 C1658 0.930 . S
H1650 C1660 0.930 . S
H1651 C1663 0.929 . S
H1652 C1666 0.930 . S
H1653 C1668 0.960 . S
H1654 C1668 0.960 . S
H1655 C1668 0.960 . S
C1656 H1648 0.929 . S
C1656 C1657 1.377 . S
C1656 C1658 1.384 . S
C1657 C1656 1.377 . S
C1657 C1663 1.390 . S
C1658 H1649 0.930 . S
C1658 C1656 1.384 . S
C1658 C1659 1.372 . S
C1659 C1658 1.372 . S
C1659 C1660 1.400 . S
C1659 C1664 1.490 . S
C1660 H1650 0.930 . S
C1660 C1659 1.400 . S
C1660 C1663 1.386 . S
H1661 C1677 0.930 . S
H1662 C1678 0.931 . S
C1663 H1651 0.929 . S
C1663 C1657 1.390 . S
C1663 C1660 1.386 . S
C1664 C1659 1.490 . S
C1664 C1666 1.395 . S
C1664 C1667 1.403 . S
H1665 C1671 0.930 . S
C1666 H1652 0.930 . S
C1666 C1664 1.395 . S
C1666 C1669 1.403 . S
C1667 C1664 1.403 . S
C1667 C1668 1.524 . S
C1667 C1671 1.400 . S
C1668 H1653 0.960 . S
C1668 H1654 0.960 . S
C1668 H1655 0.960 . S
C1668 C1667 1.524 . S
C1669 C1666 1.403 . S
C1669 C1670 1.392 . S
C1669 C1673 1.495 . S
C1670 C1669 1.392 . S
C1670 C1671 1.385 . S
C1670 C1672 1.478 . S
C1671 H1665 0.930 . S
C1671 C1667 1.400 . S
C1671 C1670 1.385 . S
C1672 C1670 1.478 . S
C1672 C1674 1.381 . S
C1672 C1678 1.383 . S
C1673 C1669 1.495 . S
C1673 H1679 0.959 . S
C1673 H1680 0.961 . S
C1673 H1681 0.960 . S
C1674 C1672 1.381 . S
C1674 C1675 1.394 . S
C1674 H1682 0.930 . S
C1675 C1674 1.394 . S
C1675 C1676 1.383 . S
C1675 H1683 0.929 . S
C1676 C1675 1.383 . S
C1676 C1677 1.377 . S
C1677 H1661 0.930 . S
C1677 C1676 1.377 . S
C1677 C1678 1.379 . S
C1678 H1662 0.931 . S
C1678 C1672 1.383 . S
C1678 C1677 1.379 . S
H1679 C1673 0.959 . S
H1680 C1673 0.961 . S
H1681 C1673 0.960 . S
H1682 C1674 0.930 . S
H1683 C1675 0.929 . S
H1684 C1692 0.929 . S
H1685 C1694 0.930 . S
H1686 C1696 0.930 . S
H1687 C1699 0.929 . S
H1688 C1702 0.930 . S
H1689 C1704 0.960 . S
H1690 C1704 0.960 . S
H1691 C1704 0.960 . S
C1692 H1684 0.929 . S
C1692 C1693 1.377 . S
C1692 C1694 1.384 . S
C1693 C1692 1.377 . S
C1693 C1699 1.390 . S
C1694 H1685 0.930 . S
C1694 C1692 1.384 . S
C1694 C1695 1.372 . S
C1695 C1694 1.372 . S
C1695 C1696 1.400 . S
C1695 C1700 1.490 . S
C1696 H1686 0.930 . S
C1696 C1695 1.400 . S
C1696 C1699 1.386 . S
H1697 C1713 0.930 . S
H1698 C1714 0.931 . S
C1699 H1687 0.929 . S
C1699 C1693 1.390 . S
C1699 C1696 1.386 . S
C1700 C1695 1.490 . S
C1700 C1702 1.395 . S
C1700 C1703 1.403 . S
H1701 C1707 0.930 . S
C1702 H1688 0.930 . S
C1702 C1700 1.395 . S
C1702 C1705 1.403 . S
C1703 C1700 1.403 . S
C1703 C1704 1.524 . S
C1703 C1707 1.400 . S
C1704 H1689 0.960 . S
C1704 H1690 0.960 . S
C1704 H1691 0.960 . S
C1704 C1703 1.524 . S
C1705 C1702 1.403 . S
C1705 C1706 1.392 . S
C1705 C1709 1.495 . S
C1706 C1705 1.392 . S
C1706 C1707 1.385 . S
C1706 C1708 1.478 . S
C1707 H1701 0.930 . S
C1707 C1703 1.400 . S
C1707 C1706 1.385 . S
C1708 C1706 1.478 . S
C1708 C1710 1.381 . S
C1708 C1714 1.383 . S
C1709 C1705 1.495 . S
C1709 H1715 0.959 . S
C1709 H1716 0.961 . S
C1709 H1717 0.960 . S
C1710 C1708 1.381 . S
C1710 C1711 1.394 . S
C1710 H1718 0.930 . S
C1711 C1710 1.394 . S
C1711 C1712 1.383 1_556 S
C1711 H1719 0.929 . S
C1712 C1711 1.383 1_554 S
C1712 C1713 1.377 . S
C1713 H1697 0.930 . S
C1713 C1712 1.377 . S
C1713 C1714 1.379 1_554 S
C1714 H1698 0.931 . S
C1714 C1708 1.383 . S
C1714 C1713 1.379 1_556 S
H1715 C1709 0.959 . S
H1716 C1709 0.961 . S
H1717 C1709 0.960 . S
H1718 C1710 0.930 . S
H1719 C1711 0.929 . S
H1720 C1728 0.929 . S
H1721 C1730 0.930 . S
H1722 C1732 0.930 . S
H1723 C1735 0.929 . S
H1724 C1738 0.930 . S
H1725 C1740 0.960 . S
H1726 C1740 0.960 . S
H1727 C1740 0.960 . S
C1728 H1720 0.929 . S
C1728 C1729 1.377 . S
C1728 C1730 1.384 . S
C1729 C1728 1.377 . S
C1729 C1735 1.390 . S
C1730 H1721 0.930 . S
C1730 C1728 1.384 . S
C1730 C1731 1.372 . S
C1731 C1730 1.372 . S
C1731 C1732 1.400 . S
C1731 C1736 1.490 . S
C1732 H1722 0.930 . S
C1732 C1731 1.400 . S
C1732 C1735 1.386 . S
H1733 C1749 0.930 . S
H1734 C1750 0.931 . S
C1735 H1723 0.929 . S
C1735 C1729 1.390 . S
C1735 C1732 1.386 . S
C1736 C1731 1.490 . S
C1736 C1738 1.395 . S
C1736 C1739 1.403 . S
H1737 C1743 0.930 . S
C1738 H1724 0.930 . S
C1738 C1736 1.395 . S
C1738 C1741 1.403 1_455 S
C1739 C1736 1.403 . S
C1739 C1740 1.524 . S
C1739 C1743 1.400 . S
C1740 H1725 0.960 . S
C1740 H1726 0.960 . S
C1740 H1727 0.960 . S
C1740 C1739 1.524 . S
C1741 C1738 1.403 1_655 S
C1741 C1742 1.392 1_655 S
C1741 C1745 1.495 . S
C1742 C1741 1.392 1_455 S
C1742 C1743 1.385 . S
C1742 C1744 1.478 1_455 S
C1743 H1737 0.930 . S
C1743 C1739 1.400 . S
C1743 C1742 1.385 . S
C1744 C1742 1.478 1_655 S
C1744 C1746 1.381 . S
C1744 C1750 1.383 . S
C1745 C1741 1.495 . S
C1745 H1751 0.959 . S
C1745 H1752 0.961 . S
C1745 H1753 0.960 . S
C1746 C1744 1.381 . S
C1746 C1747 1.394 . S
C1746 H1754 0.930 . S
C1747 C1746 1.394 . S
C1747 C1748 1.383 . S
C1747 H1755 0.929 . S
C1748 C1747 1.383 . S
C1748 C1749 1.377 . S
C1749 H1733 0.930 . S
C1749 C1748 1.377 . S
C1749 C1750 1.379 . S
C1750 H1734 0.931 . S
C1750 C1744 1.383 . S
C1750 C1749 1.379 . S
H1751 C1745 0.959 . S
H1752 C1745 0.961 . S
H1753 C1745 0.960 . S
H1754 C1746 0.930 . S
H1755 C1747 0.929 . S
H1756 C1764 0.929 . S
H1757 C1766 0.930 . S
H1758 C1768 0.930 . S
H1759 C1771 0.929 . S
H1760 C1774 0.930 . S
H1761 C1776 0.960 . S
H1762 C1776 0.960 . S
H1763 C1776 0.960 . S
C1764 H1756 0.929 . S
C1764 C1765 1.377 . S
C1764 C1766 1.384 . S
C1765 C1764 1.377 . S
C1765 C1771 1.390 . S
C1766 H1757 0.930 . S
C1766 C1764 1.384 . S
C1766 C1767 1.372 . S
C1767 C1766 1.372 . S
C1767 C1768 1.400 . S
C1767 C1772 1.490 . S
C1768 H1758 0.930 . S
C1768 C1767 1.400 . S
C1768 C1771 1.386 . S
H1769 C1785 0.930 . S
H1770 C1786 0.931 . S
C1771 H1759 0.929 . S
C1771 C1765 1.390 . S
C1771 C1768 1.386 . S
C1772 C1767 1.490 . S
C1772 C1774 1.395 . S
C1772 C1775 1.403 . S
H1773 C1779 0.930 . S
C1774 H1760 0.930 . S
C1774 C1772 1.395 . S
C1774 C1777 1.403 . S
C1775 C1772 1.403 . S
C1775 C1776 1.524 . S
C1775 C1779 1.400 . S
C1776 H1761 0.960 . S
C1776 H1762 0.960 . S
C1776 H1763 0.960 . S
C1776 C1775 1.524 . S
C1777 C1774 1.403 . S
C1777 C1778 1.392 . S
C1777 C1781 1.495 . S
C1778 C1777 1.392 . S
C1778 C1779 1.385 . S
C1778 C1780 1.478 . S
C1779 H1773 0.930 . S
C1779 C1775 1.400 . S
C1779 C1778 1.385 . S
C1780 C1778 1.478 . S
C1780 C1782 1.381 . S
C1780 C1786 1.383 . S
C1781 C1777 1.495 . S
C1781 H1787 0.959 . S
C1781 H1788 0.961 . S
C1781 H1789 0.960 . S
C1782 C1780 1.381 . S
C1782 C1783 1.394 . S
C1782 H1790 0.930 . S
C1783 C1782 1.394 . S
C1783 C1784 1.383 . S
C1783 H1791 0.929 . S
C1784 C1783 1.383 . S
C1784 C1785 1.377 . S
C1785 H1769 0.930 . S
C1785 C1784 1.377 . S
C1785 C1786 1.379 . S
C1786 H1770 0.931 . S
C1786 C1780 1.383 . S
C1786 C1785 1.379 . S
H1787 C1781 0.959 . S
H1788 C1781 0.961 . S
H1789 C1781 0.960 . S
H1790 C1782 0.930 . S
H1791 C1783 0.929 . S
H1792 C1800 0.929 . S
H1793 C1802 0.930 . S
H1794 C1804 0.930 . S
H1795 C1807 0.929 . S
H1796 C1810 0.930 . S
H1797 C1812 0.960 . S
H1798 C1812 0.960 . S
H1799 C1812 0.960 . S
C1800 H1792 0.929 . S
C1800 C1801 1.377 . S
C1800 C1802 1.384 . S
C1801 C1800 1.377 . S
C1801 C1807 1.390 . S
C1802 H1793 0.930 . S
C1802 C1800 1.384 . S
C1802 C1803 1.372 . S
C1803 C1802 1.372 . S
C1803 C1804 1.400 . S
C1803 C1808 1.490 1_655 S
C1804 H1794 0.930 . S
C1804 C1803 1.400 . S
C1804 C1807 1.386 . S
H1805 C1821 0.930 . S
H1806 C1822 0.931 . S
C1807 H1795 0.929 . S
C1807 C1801 1.390 . S
C1807 C1804 1.386 . S
C1808 C1803 1.490 1_455 S
C1808 C1810 1.395 . S
C1808 C1811 1.390 1_455 S
H1809 C1815 0.930 . S
C1810 H1796 0.930 . S
C1810 C1808 1.395 . S
C1810 C1813 1.403 . S
C1811 C1808 1.390 1_655 S
C1811 C1812 1.561 . S
C1811 C1815 1.374 1_655 S
C1812 H1797 0.960 . S
C1812 H1798 0.960 . S
C1812 H1799 0.960 . S
C1812 C1811 1.561 . S
C1813 C1810 1.403 . S
C1813 C1814 1.392 . S
C1813 C1817 1.495 . S
C1814 C1813 1.392 . S
C1814 C1815 1.385 . S
C1814 C1816 1.478 . S
C1815 H1809 0.930 . S
C1815 C1811 1.374 1_455 S
C1815 C1814 1.385 . S
C1816 C1814 1.478 . S
C1816 C1818 1.381 . S
C1816 C1822 1.383 . S
C1817 C1813 1.495 . S
C1817 H1823 0.959 . S
C1817 H1824 0.961 . S
C1817 H1825 0.960 . S
C1818 C1816 1.381 . S
C1818 C1819 1.394 . S
C1818 H1826 0.930 . S
C1819 C1818 1.394 . S
C1819 C1820 1.383 . S
C1819 H1827 0.929 . S
C1820 C1819 1.383 . S
C1820 C1821 1.377 . S
C1821 H1805 0.930 . S
C1821 C1820 1.377 . S
C1821 C1822 1.379 . S
C1822 H1806 0.931 . S
C1822 C1816 1.383 . S
C1822 C1821 1.379 . S
H1823 C1817 0.959 . S
H1824 C1817 0.961 . S
H1825 C1817 0.960 . S
H1826 C1818 0.930 . S
H1827 C1819 0.929 . S
H1828 C1836 0.929 . S
H1829 C1838 0.930 . S
H1830 C1840 0.930 . S
H1831 C1843 0.929 . S
H1832 C1846 0.930 . S
H1833 C1848 0.960 . S
H1834 C1848 0.960 . S
H1835 C1848 0.960 . S
C1836 H1828 0.929 . S
C1836 C1837 1.377 . S
C1836 C1838 1.384 . S
C1837 C1836 1.377 . S
C1837 C1843 1.390 . S
C1838 H1829 0.930 . S
C1838 C1836 1.384 . S
C1838 C1839 1.372 . S
C1839 C1838 1.372 . S
C1839 C1840 1.400 . S
C1839 C1844 1.490 . S
C1840 H1830 0.930 . S
C1840 C1839 1.400 . S
C1840 C1843 1.386 . S
H1841 C1857 0.930 . S
H1842 C1858 0.931 . S
C1843 H1831 0.929 . S
C1843 C1837 1.390 . S
C1843 C1840 1.386 . S
C1844 C1839 1.490 . S
C1844 C1846 1.395 . S
C1844 C1847 1.403 . S
H1845 C1851 0.930 . S
C1846 H1832 0.930 . S
C1846 C1844 1.395 . S
C1846 C1849 1.403 . S
C1847 C1844 1.403 . S
C1847 C1848 1.524 . S
C1847 C1851 1.400 . S
C1848 H1833 0.960 . S
C1848 H1834 0.960 . S
C1848 H1835 0.960 . S
C1848 C1847 1.524 . S
C1849 C1846 1.403 . S
C1849 C1850 1.392 . S
C1849 C1853 1.495 . S
C1850 C1849 1.392 . S
C1850 C1851 1.385 . S
C1850 C1852 1.478 . S
C1851 H1845 0.930 . S
C1851 C1847 1.400 . S
C1851 C1850 1.385 . S
C1852 C1850 1.478 . S
C1852 C1854 1.381 . S
C1852 C1858 1.383 . S
C1853 C1849 1.495 . S
C1853 H1859 0.959 . S
C1853 H1860 0.961 . S
C1853 H1861 0.960 . S
C1854 C1852 1.381 . S
C1854 C1855 1.394 . S
C1854 H1862 0.930 . S
C1855 C1854 1.394 . S
C1855 C1856 1.383 . S
C1855 H1863 0.929 . S
C1856 C1855 1.383 . S
C1856 C1857 1.377 . S
C1857 H1841 0.930 . S
C1857 C1856 1.377 . S
C1857 C1858 1.379 . S
C1858 H1842 0.931 . S
C1858 C1852 1.383 . S
C1858 C1857 1.379 . S
H1859 C1853 0.959 . S
H1860 C1853 0.961 . S
H1861 C1853 0.960 . S
H1862 C1854 0.930 . S
H1863 C1855 0.929 . S
H1864 C1872 0.929 . S
H1865 C1874 0.930 . S
H1866 C1876 0.930 . S
H1867 C1879 0.929 . S
H1868 C1882 0.930 . S
H1869 C1884 0.960 . S
H1870 C1884 0.960 . S
H1871 C1884 0.960 . S
C1872 H1864 0.929 . S
C1872 C1873 1.377 . S
C1872 C1874 1.384 . S
C1873 C1872 1.377 . S
C1873 C1879 1.390 . S
C1874 H1865 0.930 . S
C1874 C1872 1.384 . S
C1874 C1875 1.372 . S
C1875 C1874 1.372 . S
C1875 C1876 1.400 . S
C1875 C1880 1.490 . S
C1876 H1866 0.930 . S
C1876 C1875 1.400 . S
C1876 C1879 1.386 . S
H1877 C1893 0.930 . S
H1878 C1894 0.931 . S
C1879 H1867 0.929 . S
C1879 C1873 1.390 . S
C1879 C1876 1.386 . S
C1880 C1875 1.490 . S
C1880 C1882 1.395 . S
C1880 C1883 1.403 . S
H1881 C1887 0.930 . S
C1882 H1868 0.930 . S
C1882 C1880 1.395 . S
C1882 C1885 1.403 . S
C1883 C1880 1.403 . S
C1883 C1884 1.524 . S
C1883 C1887 1.400 . S
C1884 H1869 0.960 . S
C1884 H1870 0.960 . S
C1884 H1871 0.960 . S
C1884 C1883 1.524 . S
C1885 C1882 1.403 . S
C1885 C1886 1.392 . S
C1885 C1889 1.495 . S
C1886 C1885 1.392 . S
C1886 C1887 1.385 . S
C1886 C1888 1.478 . S
C1887 H1881 0.930 . S
C1887 C1883 1.400 . S
C1887 C1886 1.385 . S
C1888 C1886 1.478 . S
C1888 C1890 1.381 . S
C1888 C1894 1.383 . S
C1889 C1885 1.495 . S
C1889 H1895 0.959 . S
C1889 H1896 0.961 . S
C1889 H1897 0.960 . S
C1890 C1888 1.381 . S
C1890 C1891 1.394 . S
C1890 H1898 0.930 . S
C1891 C1890 1.394 . S
C1891 C1892 1.383 . S
C1891 H1899 0.929 . S
C1892 C1891 1.383 . S
C1892 C1893 1.377 . S
C1893 H1877 0.930 . S
C1893 C1892 1.377 . S
C1893 C1894 1.379 . S
C1894 H1878 0.931 . S
C1894 C1888 1.383 . S
C1894 C1893 1.379 . S
H1895 C1889 0.959 . S
H1896 C1889 0.961 . S
H1897 C1889 0.960 . S
H1898 C1890 0.930 . S
H1899 C1891 0.929 . S
H1900 C1908 0.929 . S
H1901 C1910 0.930 . S
H1902 C1912 0.930 . S
H1903 C1915 0.929 . S
H1904 C1918 0.930 . S
H1905 C1920 0.960 . S
H1906 C1920 0.960 . S
H1907 C1920 0.960 . S
C1908 H1900 0.929 . S
C1908 C1909 1.377 . S
C1908 C1910 1.384 1_556 S
C1909 C1908 1.377 . S
C1909 C1915 1.390 1_556 S
C1910 H1901 0.930 . S
C1910 C1908 1.384 1_554 S
C1910 C1911 1.372 . S
C1911 C1910 1.372 . S
C1911 C1912 1.400 . S
C1911 C1916 1.490 . S
C1912 H1902 0.930 . S
C1912 C1911 1.400 . S
C1912 C1915 1.386 . S
H1913 C1929 0.930 . S
H1914 C1930 0.931 . S
C1915 H1903 0.929 . S
C1915 C1909 1.390 1_554 S
C1915 C1912 1.386 . S
C1916 C1911 1.490 . S
C1916 C1918 1.395 . S
C1916 C1919 1.403 . S
H1917 C1923 0.930 . S
C1918 H1904 0.930 . S
C1918 C1916 1.395 . S
C1918 C1921 1.403 . S
C1919 C1916 1.403 . S
C1919 C1920 1.524 . S
C1919 C1923 1.400 . S
C1920 H1905 0.960 . S
C1920 H1906 0.960 . S
C1920 H1907 0.960 . S
C1920 C1919 1.524 . S
C1921 C1918 1.403 . S
C1921 C1922 1.392 . S
C1921 C1925 1.495 . S
C1922 C1921 1.392 . S
C1922 C1923 1.385 . S
C1922 C1924 1.478 . S
C1923 H1917 0.930 . S
C1923 C1919 1.400 . S
C1923 C1922 1.385 . S
C1924 C1922 1.478 . S
C1924 C1926 1.381 . S
C1924 C1930 1.383 . S
C1925 C1921 1.495 . S
C1925 H1931 0.959 . S
C1925 H1932 0.961 . S
C1925 H1933 0.960 . S
C1926 C1924 1.381 . S
C1926 C1927 1.394 . S
C1926 H1934 0.930 . S
C1927 C1926 1.394 . S
C1927 C1928 1.383 . S
C1927 H1935 0.929 . S
C1928 C1927 1.383 . S
C1928 C1929 1.377 . S
C1929 H1913 0.930 . S
C1929 C1928 1.377 . S
C1929 C1930 1.379 . S
C1930 H1914 0.931 . S
C1930 C1924 1.383 . S
C1930 C1929 1.379 . S
H1931 C1925 0.959 . S
H1932 C1925 0.961 . S
H1933 C1925 0.960 . S
H1934 C1926 0.930 . S
H1935 C1927 0.929 . S
H1936 C1944 0.929 . S
H1937 C1946 0.930 . S
H1938 C1948 0.930 1_655 S
H1939 C1951 0.929 . S
H1940 C1954 0.930 . S
H1941 C1956 0.960 1_655 S
H1942 C1956 0.960 . S
H1943 C1956 0.957 1_655 S
C1944 H1936 0.929 . S
C1944 C1945 1.377 . S
C1944 C1946 1.384 . S
C1945 C1944 1.377 . S
C1945 C1951 1.390 . S
C1946 H1937 0.930 . S
C1946 C1944 1.384 . S
C1946 C1947 1.372 . S
C1947 C1946 1.372 . S
C1947 C1948 1.400 . S
C1947 C1952 1.490 1_455 S
C1948 H1938 0.930 1_455 S
C1948 C1947 1.400 . S
C1948 C1951 1.386 . S
H1949 C1965 0.930 . S
H1950 C1966 0.931 . S
C1951 H1939 0.929 . S
C1951 C1945 1.390 . S
C1951 C1948 1.386 . S
C1952 C1947 1.490 1_655 S
C1952 C1954 1.395 . S
C1952 C1955 1.403 . S
H1953 C1959 0.930 . S
C1954 H1940 0.930 . S
C1954 C1952 1.395 . S
C1954 C1957 1.403 . S
C1955 C1952 1.403 . S
C1955 C1956 1.524 1_655 S
C1955 C1959 1.400 . S
C1956 H1941 0.960 1_455 S
C1956 H1942 0.960 . S
C1956 H1943 0.957 1_455 S
C1956 C1955 1.524 1_455 S
C1957 C1954 1.403 . S
C1957 C1958 1.392 . S
C1957 C1961 1.495 . S
C1958 C1957 1.392 . S
C1958 C1959 1.385 . S
C1958 C1960 1.478 . S
C1959 H1953 0.930 . S
C1959 C1955 1.400 . S
C1959 C1958 1.385 . S
C1960 C1958 1.478 . S
C1960 C1962 1.381 . S
C1960 C1966 1.383 . S
C1961 C1957 1.495 . S
C1961 H1967 0.959 . S
C1961 H1968 0.961 . S
C1961 H1969 0.960 . S
C1962 C1960 1.381 . S
C1962 C1963 1.394 . S
C1962 H1970 0.930 . S
C1963 C1962 1.394 . S
C1963 C1964 1.383 . S
C1963 H1971 0.929 . S
C1964 C1963 1.383 . S
C1964 C1965 1.377 . S
C1965 H1949 0.930 . S
C1965 C1964 1.377 . S
C1965 C1966 1.379 . S
C1966 H1950 0.931 . S
C1966 C1960 1.383 . S
C1966 C1965 1.379 . S
H1967 C1961 0.959 . S
H1968 C1961 0.961 . S
H1969 C1961 0.960 . S
H1970 C1962 0.930 . S
H1971 C1963 0.929 . S
H1972 C1980 0.929 . S
H1973 C1982 0.930 . S
H1974 C1984 0.930 . S
H1975 C1987 0.929 . S
H1976 C1990 0.930 . S
H1977 C1992 0.960 . S
H1978 C1992 0.960 . S
H1979 C1992 0.960 . S
C1980 H1972 0.929 . S
C1980 C1981 1.377 . S
C1980 C1982 1.384 . S
C1981 C1980 1.377 . S
C1981 C1987 1.390 . S
C1982 H1973 0.930 . S
C1982 C1980 1.384 . S
C1982 C1983 1.372 . S
C1983 C1982 1.372 . S
C1983 C1984 1.400 . S
C1983 C1988 1.490 . S
C1984 H1974 0.930 . S
C1984 C1983 1.400 . S
C1984 C1987 1.386 . S
H1985 C2001 0.930 . S
H1986 C2002 0.931 . S
C1987 H1975 0.929 . S
C1987 C1981 1.390 . S
C1987 C1984 1.386 . S
C1988 C1983 1.490 . S
C1988 C1990 1.395 . S
C1988 C1991 1.403 . S
H1989 C1995 0.930 . S
C1990 H1976 0.930 . S
C1990 C1988 1.395 . S
C1990 C1993 1.403 . S
C1991 C1988 1.403 . S
C1991 C1992 1.524 . S
C1991 C1995 1.400 . S
C1992 H1977 0.960 . S
C1992 H1978 0.960 . S
C1992 H1979 0.960 . S
C1992 C1991 1.524 . S
C1993 C1990 1.403 . S
C1993 C1994 1.392 . S
C1993 C1997 1.495 . S
C1994 C1993 1.392 . S
C1994 C1995 1.385 . S
C1994 C1996 1.478 . S
C1995 H1989 0.930 . S
C1995 C1991 1.400 . S
C1995 C1994 1.385 . S
C1996 C1994 1.478 . S
C1996 C1998 1.381 . S
C1996 C2002 1.383 . S
C1997 C1993 1.495 . S
C1997 H2003 0.959 . S
C1997 H2004 0.961 . S
C1997 H2005 0.960 . S
C1998 C1996 1.381 . S
C1998 C1999 1.394 . S
C1998 H2006 0.930 . S
C1999 C1998 1.394 . S
C1999 C2000 1.383 . S
C1999 H2007 0.929 . S
C2000 C1999 1.383 . S
C2000 C2001 1.377 . S
C2001 H1985 0.930 . S
C2001 C2000 1.377 . S
C2001 C2002 1.379 . S
C2002 H1986 0.931 . S
C2002 C1996 1.383 . S
C2002 C2001 1.379 . S
H2003 C1997 0.959 . S
H2004 C1997 0.961 . S
H2005 C1997 0.960 . S
H2006 C1998 0.930 . S
H2007 C1999 0.929 . S
H2008 C2016 0.929 . S
H2009 C2018 0.930 . S
H2010 C2020 0.930 . S
H2011 C2023 0.929 . S
H2012 C2026 0.930 . S
H2013 C2028 0.960 . S
H2014 C2028 0.960 . S
H2015 C2028 0.960 . S
C2016 H2008 0.929 . S
C2016 C2017 1.377 . S
C2016 C2018 1.384 . S
C2017 C2016 1.377 . S
C2017 C2023 1.390 . S
C2018 H2009 0.930 . S
C2018 C2016 1.384 . S
C2018 C2019 1.372 . S
C2019 C2018 1.372 . S
C2019 C2020 1.400 . S
C2019 C2024 1.490 . S
C2020 H2010 0.930 . S
C2020 C2019 1.400 . S
C2020 C2023 1.386 . S
H2021 C2037 0.930 . S
H2022 C2038 0.931 . S
C2023 H2011 0.929 . S
C2023 C2017 1.390 . S
C2023 C2020 1.386 . S
C2024 C2019 1.490 . S
C2024 C2026 1.395 . S
C2024 C2027 1.403 . S
H2025 C2031 0.930 . S
C2026 H2012 0.930 . S
C2026 C2024 1.395 . S
C2026 C2029 1.403 . S
C2027 C2024 1.403 . S
C2027 C2028 1.524 . S
C2027 C2031 1.400 . S
C2028 H2013 0.960 . S
C2028 H2014 0.960 . S
C2028 H2015 0.960 . S
C2028 C2027 1.524 . S
C2029 C2026 1.403 . S
C2029 C2030 1.392 . S
C2029 C2033 1.495 . S
C2030 C2029 1.392 . S
C2030 C2031 1.385 . S
C2030 C2032 1.478 . S
C2031 H2025 0.930 . S
C2031 C2027 1.400 . S
C2031 C2030 1.385 . S
C2032 C2030 1.478 . S
C2032 C2034 1.381 . S
C2032 C2038 1.383 . S
C2033 C2029 1.495 . S
C2033 H2039 0.959 . S
C2033 H2040 0.961 . S
C2033 H2041 0.960 . S
C2034 C2032 1.381 . S
C2034 C2035 1.394 . S
C2034 H2042 0.930 . S
C2035 C2034 1.394 . S
C2035 C2036 1.383 . S
C2035 H2043 0.929 . S
C2036 C2035 1.383 . S
C2036 C2037 1.377 . S
C2037 H2021 0.930 . S
C2037 C2036 1.377 . S
C2037 C2038 1.379 . S
C2038 H2022 0.931 . S
C2038 C2032 1.383 . S
C2038 C2037 1.379 . S
H2039 C2033 0.959 . S
H2040 C2033 0.961 . S
H2041 C2033 0.960 . S
H2042 C2034 0.930 . S
H2043 C2035 0.929 . S
H2044 C2052 0.929 1_554 S
H2045 C2054 0.930 . S
H2046 C2056 0.930 . S
H2047 C2059 0.929 . S
H2048 C2062 0.930 . S
H2049 C2064 0.960 . S
H2050 C2064 0.960 . S
H2051 C2064 0.960 . S
C2052 H2044 0.929 1_556 S
C2052 C2053 1.377 1_556 S
C2052 C2054 1.384 . S
C2053 C2052 1.377 1_554 S
C2053 C2059 1.390 . S
C2054 H2045 0.930 . S
C2054 C2052 1.384 . S
C2054 C2055 1.372 . S
C2055 C2054 1.372 . S
C2055 C2056 1.400 . S
C2055 C2060 1.490 . S
C2056 H2046 0.930 . S
C2056 C2055 1.400 . S
C2056 C2059 1.386 1_556 S
H2057 C2073 0.930 . S
H2058 C2074 0.931 . S
C2059 H2047 0.929 . S
C2059 C2053 1.390 . S
C2059 C2056 1.386 1_554 S
C2060 C2055 1.490 . S
C2060 C2062 1.395 . S
C2060 C2063 1.403 . S
H2061 C2067 0.930 . S
C2062 H2048 0.930 . S
C2062 C2060 1.395 . S
C2062 C2065 1.403 . S
C2063 C2060 1.403 . S
C2063 C2064 1.524 . S
C2063 C2067 1.400 . S
C2064 H2049 0.960 . S
C2064 H2050 0.960 . S
C2064 H2051 0.960 . S
C2064 C2063 1.524 . S
C2065 C2062 1.403 . S
C2065 C2066 1.392 . S
C2065 C2069 1.495 . S
C2066 C2065 1.392 . S
C2066 C2067 1.385 . S
C2066 C2068 1.478 . S
C2067 H2061 0.930 . S
C2067 C2063 1.400 . S
C2067 C2066 1.385 . S
C2068 C2066 1.478 . S
C2068 C2070 1.381 . S
C2068 C2074 1.383 . S
C2069 C2065 1.495 . S
C2069 H2075 0.959 . S
C2069 H2076 0.961 . S
C2069 H2077 0.960 . S
C2070 C2068 1.381 . S
C2070 C2071 1.394 . S
C2070 H2078 0.930 . S
C2071 C2070 1.394 . S
C2071 C2072 1.383 . S
C2071 H2079 0.929 . S
C2072 C2071 1.383 . S
C2072 C2073 1.377 . S
C2073 H2057 0.930 . S
C2073 C2072 1.377 . S
C2073 C2074 1.379 . S
C2074 H2058 0.931 . S
C2074 C2068 1.383 . S
C2074 C2073 1.379 . S
H2075 C2069 0.959 . S
H2076 C2069 0.961 . S
H2077 C2069 0.960 . S
H2078 C2070 0.930 . S
H2079 C2071 0.929 . S
H2080 C2088 0.929 . S
H2081 C2090 0.930 . S
H2082 C2092 0.930 . S
H2083 C2095 0.929 . S
H2084 C2098 0.930 . S
H2085 C2100 0.960 . S
H2086 C2100 0.960 . S
H2087 C2100 0.960 . S
C2088 H2080 0.929 . S
C2088 C2089 1.377 . S
C2088 C2090 1.384 . S
C2089 C2088 1.377 . S
C2089 C2095 1.390 . S
C2090 H2081 0.930 . S
C2090 C2088 1.384 . S
C2090 C2091 1.372 . S
C2091 C2090 1.372 . S
C2091 C2092 1.400 . S
C2091 C2096 1.490 . S
C2092 H2082 0.930 . S
C2092 C2091 1.400 . S
C2092 C2095 1.386 . S
H2093 C2109 0.930 . S
H2094 C2110 0.931 . S
C2095 H2083 0.929 . S
C2095 C2089 1.390 . S
C2095 C2092 1.386 . S
C2096 C2091 1.490 . S
C2096 C2098 1.395 . S
C2096 C2099 1.403 . S
H2097 C2103 0.930 . S
C2098 H2084 0.930 . S
C2098 C2096 1.395 . S
C2098 C2101 1.403 . S
C2099 C2096 1.403 . S
C2099 C2100 1.524 . S
C2099 C2103 1.400 . S
C2100 H2085 0.960 . S
C2100 H2086 0.960 . S
C2100 H2087 0.960 . S
C2100 C2099 1.524 . S
C2101 C2098 1.403 . S
C2101 C2102 1.392 . S
C2101 C2105 1.495 . S
C2102 C2101 1.392 . S
C2102 C2103 1.385 . S
C2102 C2104 1.478 . S
C2103 H2097 0.930 . S
C2103 C2099 1.400 . S
C2103 C2102 1.385 . S
C2104 C2102 1.478 . S
C2104 C2106 1.381 . S
C2104 C2110 1.383 . S
C2105 C2101 1.495 . S
C2105 H2111 0.959 . S
C2105 H2112 0.961 . S
C2105 H2113 0.960 . S
C2106 C2104 1.381 . S
C2106 C2107 1.394 . S
C2106 H2114 0.930 . S
C2107 C2106 1.394 . S
C2107 C2108 1.383 . S
C2107 H2115 0.929 . S
C2108 C2107 1.383 . S
C2108 C2109 1.377 . S
C2109 H2093 0.930 . S
C2109 C2108 1.377 . S
C2109 C2110 1.379 . S
C2110 H2094 0.931 . S
C2110 C2104 1.383 . S
C2110 C2109 1.379 . S
H2111 C2105 0.959 . S
H2112 C2105 0.961 . S
H2113 C2105 0.960 . S
H2114 C2106 0.930 . S
H2115 C2107 0.929 . S
H2116 C2124 0.929 . S
H2117 C2126 0.930 . S
H2118 C2128 0.930 . S
H2119 C2131 0.929 . S
H2120 C2134 0.930 . S
H2121 C2136 0.960 . S
H2122 C2136 0.960 . S
H2123 C2136 0.960 . S
C2124 H2116 0.929 . S
C2124 C2125 1.377 . S
C2124 C2126 1.384 . S
C2125 C2124 1.377 . S
C2125 C2131 1.390 . S
C2126 H2117 0.930 . S
C2126 C2124 1.384 . S
C2126 C2127 1.372 . S
C2127 C2126 1.372 . S
C2127 C2128 1.400 . S
C2127 C2132 1.490 . S
C2128 H2118 0.930 . S
C2128 C2127 1.400 . S
C2128 C2131 1.386 . S
H2129 C2145 0.930 . S
H2130 C2146 0.931 . S
C2131 H2119 0.929 . S
C2131 C2125 1.390 . S
C2131 C2128 1.386 . S
C2132 C2127 1.490 . S
C2132 C2134 1.395 . S
C2132 C2135 1.403 . S
H2133 C2139 0.930 . S
C2134 H2120 0.930 . S
C2134 C2132 1.395 . S
C2134 C2137 1.403 . S
C2135 C2132 1.403 . S
C2135 C2136 1.524 . S
C2135 C2139 1.400 . S
C2136 H2121 0.960 . S
C2136 H2122 0.960 . S
C2136 H2123 0.960 . S
C2136 C2135 1.524 . S
C2137 C2134 1.403 . S
C2137 C2138 1.392 . S
C2137 C2141 1.495 . S
C2138 C2137 1.392 . S
C2138 C2139 1.385 . S
C2138 C2140 1.478 . S
C2139 H2133 0.930 . S
C2139 C2135 1.400 . S
C2139 C2138 1.385 . S
C2140 C2138 1.478 . S
C2140 C2142 1.381 . S
C2140 C2146 1.383 . S
C2141 C2137 1.495 . S
C2141 H2147 0.959 . S
C2141 H2148 0.961 . S
C2141 H2149 0.960 . S
C2142 C2140 1.381 . S
C2142 C2143 1.394 . S
C2142 H2150 0.930 . S
C2143 C2142 1.394 . S
C2143 C2144 1.383 . S
C2143 H2151 0.929 . S
C2144 C2143 1.383 . S
C2144 C2145 1.377 . S
C2145 H2129 0.930 . S
C2145 C2144 1.377 . S
C2145 C2146 1.379 . S
C2146 H2130 0.931 . S
C2146 C2140 1.383 . S
C2146 C2145 1.379 . S
H2147 C2141 0.959 . S
H2148 C2141 0.961 . S
H2149 C2141 0.960 . S
H2150 C2142 0.930 . S
H2151 C2143 0.929 . S
H2152 C2160 0.929 . S
H2153 C2162 0.930 . S
H2154 C2164 0.930 . S
H2155 C2167 0.929 . S
H2156 C2170 0.930 . S
H2157 C2172 0.960 . S
H2158 C2172 0.960 . S
H2159 C2172 0.960 . S
C2160 H2152 0.929 . S
C2160 C2161 1.377 . S
C2160 C2162 1.384 . S
C2161 C2160 1.377 . S
C2161 C2167 1.390 . S
C2162 H2153 0.930 . S
C2162 C2160 1.384 . S
C2162 C2163 1.372 . S
C2163 C2162 1.372 . S
C2163 C2164 1.400 . S
C2163 C2168 1.490 . S
C2164 H2154 0.930 . S
C2164 C2163 1.400 . S
C2164 C2167 1.386 . S
H2165 C2181 0.930 . S
H2166 C2182 0.931 . S
C2167 H2155 0.929 . S
C2167 C2161 1.390 . S
C2167 C2164 1.386 . S
C2168 C2163 1.490 . S
C2168 C2170 1.395 . S
C2168 C2171 1.403 . S
H2169 C2175 0.930 . S
C2170 H2156 0.930 . S
C2170 C2168 1.395 . S
C2170 C2173 1.403 . S
C2171 C2168 1.403 . S
C2171 C2172 1.524 . S
C2171 C2175 1.400 . S
C2172 H2157 0.960 . S
C2172 H2158 0.960 . S
C2172 H2159 0.960 . S
C2172 C2171 1.524 . S
C2173 C2170 1.403 . S
C2173 C2174 1.392 . S
C2173 C2177 1.495 . S
C2174 C2173 1.392 . S
C2174 C2175 1.385 . S
C2174 C2176 1.478 . S
C2175 H2169 0.930 . S
C2175 C2171 1.400 . S
C2175 C2174 1.385 . S
C2176 C2174 1.478 . S
C2176 C2178 1.381 . S
C2176 C2182 1.383 . S
C2177 C2173 1.495 . S
C2177 H2183 0.959 . S
C2177 H2184 0.961 . S
C2177 H2185 0.960 . S
C2178 C2176 1.381 . S
C2178 C2179 1.394 . S
C2178 H2186 0.930 . S
C2179 C2178 1.394 . S
C2179 C2180 1.383 . S
C2179 H2187 0.929 . S
C2180 C2179 1.383 . S
C2180 C2181 1.377 . S
C2181 H2165 0.930 . S
C2181 C2180 1.377 . S
C2181 C2182 1.379 . S
C2182 H2166 0.931 . S
C2182 C2176 1.383 . S
C2182 C2181 1.379 . S
H2183 C2177 0.959 . S
H2184 C2177 0.961 . S
H2185 C2177 0.960 . S
H2186 C2178 0.930 . S
H2187 C2179 0.929 . S
H2188 C2196 0.929 . S
H2189 C2198 0.930 . S
H2190 C2200 0.930 . S
H2191 C2203 0.929 . S
H2192 C2206 0.930 1_554 S
H2193 C2208 0.960 . S
H2194 C2208 0.960 . S
H2195 C2208 0.960 . S
C2196 H2188 0.929 . S
C2196 C2197 1.377 . S
C2196 C2198 1.384 . S
C2197 C2196 1.377 . S
C2197 C2203 1.390 . S
C2198 H2189 0.930 . S
C2198 C2196 1.384 . S
C2198 C2199 1.372 . S
C2199 C2198 1.372 . S
C2199 C2200 1.400 . S
C2199 C2204 1.490 . S
C2200 H2190 0.930 . S
C2200 C2199 1.400 . S
C2200 C2203 1.386 . S
H2201 C2217 0.930 . S
H2202 C2218 0.931 . S
C2203 H2191 0.929 . S
C2203 C2197 1.390 . S
C2203 C2200 1.386 . S
C2204 C2199 1.490 . S
C2204 C2206 1.380 1_554 S
C2204 C2207 1.403 . S
H2205 C2211 0.930 . S
C2206 H2192 0.930 1_556 S
C2206 C2204 1.380 1_556 S
C2206 C2209 1.419 1_455 S
C2207 C2204 1.403 . S
C2207 C2208 1.524 . S
C2207 C2211 1.400 1_454 S
C2208 H2193 0.960 . S
C2208 H2194 0.960 . S
C2208 H2195 0.960 . S
C2208 C2207 1.524 . S
C2209 C2206 1.419 1_655 S
C2209 C2210 1.392 . S
C2209 C2213 1.495 . S
C2210 C2209 1.392 . S
C2210 C2211 1.385 . S
C2210 C2212 1.478 . S
C2211 H2205 0.930 . S
C2211 C2207 1.400 1_656 S
C2211 C2210 1.385 . S
C2212 C2210 1.478 . S
C2212 C2214 1.381 . S
C2212 C2218 1.383 . S
C2213 C2209 1.495 . S
C2213 H2219 0.959 . S
C2213 H2220 0.961 . S
C2213 H2221 0.960 . S
C2214 C2212 1.381 . S
C2214 C2215 1.394 . S
C2214 H2222 0.930 . S
C2215 C2214 1.394 . S
C2215 C2216 1.383 . S
C2215 H2223 0.929 . S
C2216 C2215 1.383 . S
C2216 C2217 1.377 . S
C2217 H2201 0.930 . S
C2217 C2216 1.377 . S
C2217 C2218 1.379 . S
C2218 H2202 0.931 . S
C2218 C2212 1.383 . S
C2218 C2217 1.379 . S
H2219 C2213 0.959 . S
H2220 C2213 0.961 . S
H2221 C2213 0.960 . S
H2222 C2214 0.930 . S
H2223 C2215 0.929 . S
H2224 C2232 0.929 . S
H2225 C2234 0.930 . S
H2226 C2236 0.930 . S
H2227 C2239 0.929 . S
H2228 C2242 0.930 . S
H2229 C2244 0.960 . S
H2230 C2244 0.960 . S
H2231 C2244 0.960 . S
C2232 H2224 0.929 . S
C2232 C2233 1.377 . S
C2232 C2234 1.384 . S
C2233 C2232 1.377 . S
C2233 C2239 1.390 . S
C2234 H2225 0.930 . S
C2234 C2232 1.384 . S
C2234 C2235 1.372 . S
C2235 C2234 1.372 . S
C2235 C2236 1.400 . S
C2235 C2240 1.490 . S
C2236 H2226 0.930 . S
C2236 C2235 1.400 . S
C2236 C2239 1.386 . S
H2237 C2253 0.930 . S
H2238 C2254 0.931 . S
C2239 H2227 0.929 . S
C2239 C2233 1.390 . S
C2239 C2236 1.386 . S
C2240 C2235 1.490 . S
C2240 C2242 1.395 . S
C2240 C2243 1.403 . S
H2241 C2247 0.930 . S
C2242 H2228 0.930 . S
C2242 C2240 1.395 . S
C2242 C2245 1.403 . S
C2243 C2240 1.403 . S
C2243 C2244 1.524 . S
C2243 C2247 1.400 . S
C2244 H2229 0.960 . S
C2244 H2230 0.960 . S
C2244 H2231 0.960 . S
C2244 C2243 1.524 . S
C2245 C2242 1.403 . S
C2245 C2246 1.392 . S
C2245 C2249 1.495 . S
C2246 C2245 1.392 . S
C2246 C2247 1.385 . S
C2246 C2248 1.478 . S
C2247 H2241 0.930 . S
C2247 C2243 1.400 . S
C2247 C2246 1.385 . S
C2248 C2246 1.478 . S
C2248 C2250 1.381 . S
C2248 C2254 1.383 . S
C2249 C2245 1.495 . S
C2249 H2255 0.959 . S
C2249 H2256 0.961 . S
C2249 H2257 0.960 . S
C2250 C2248 1.381 . S
C2250 C2251 1.394 . S
C2250 H2258 0.930 . S
C2251 C2250 1.394 . S
C2251 C2252 1.383 . S
C2251 H2259 0.929 . S
C2252 C2251 1.383 . S
C2252 C2253 1.377 . S
C2253 H2237 0.930 . S
C2253 C2252 1.377 . S
C2253 C2254 1.379 . S
C2254 H2238 0.931 . S
C2254 C2248 1.383 . S
C2254 C2253 1.379 . S
H2255 C2249 0.959 . S
H2256 C2249 0.961 . S
H2257 C2249 0.960 . S
H2258 C2250 0.930 . S
H2259 C2251 0.929 . S
H2260 C2268 0.929 . S
H2261 C2270 0.930 . S
H2262 C2272 0.930 . S
H2263 C2275 0.929 . S
H2264 C2278 0.930 . S
H2265 C2280 0.960 . S
H2266 C2280 0.960 . S
H2267 C2280 0.960 . S
C2268 H2260 0.929 . S
C2268 C2269 1.377 . S
C2268 C2270 1.384 . S
C2269 C2268 1.377 . S
C2269 C2275 1.390 . S
C2270 H2261 0.930 . S
C2270 C2268 1.384 . S
C2270 C2271 1.372 . S
C2271 C2270 1.372 . S
C2271 C2272 1.400 . S
C2271 C2276 1.490 . S
C2272 H2262 0.930 . S
C2272 C2271 1.400 . S
C2272 C2275 1.386 . S
H2273 C2289 0.930 . S
H2274 C2290 0.931 . S
C2275 H2263 0.929 . S
C2275 C2269 1.390 . S
C2275 C2272 1.386 . S
C2276 C2271 1.490 . S
C2276 C2278 1.395 . S
C2276 C2279 1.403 . S
H2277 C2283 0.930 . S
C2278 H2264 0.930 . S
C2278 C2276 1.395 . S
C2278 C2281 1.403 . S
C2279 C2276 1.403 . S
C2279 C2280 1.524 . S
C2279 C2283 1.400 . S
C2280 H2265 0.960 . S
C2280 H2266 0.960 . S
C2280 H2267 0.960 . S
C2280 C2279 1.524 . S
C2281 C2278 1.403 . S
C2281 C2282 1.392 . S
C2281 C2285 1.495 . S
C2282 C2281 1.392 . S
C2282 C2283 1.385 . S
C2282 C2284 1.478 . S
C2283 H2277 0.930 . S
C2283 C2279 1.400 . S
C2283 C2282 1.385 . S
C2284 C2282 1.478 . S
C2284 C2286 1.381 . S
C2284 C2290 1.383 . S
C2285 C2281 1.495 . S
C2285 H2291 0.959 . S
C2285 H2292 0.961 . S
C2285 H2293 0.960 . S
C2286 C2284 1.381 . S
C2286 C2287 1.394 . S
C2286 H2294 0.930 . S
C2287 C2286 1.394 . S
C2287 C2288 1.383 . S
C2287 H2295 0.929 . S
C2288 C2287 1.383 . S
C2288 C2289 1.377 . S
C2289 H2273 0.930 . S
C2289 C2288 1.377 . S
C2289 C2290 1.379 . S
C2290 H2274 0.931 . S
C2290 C2284 1.383 . S
C2290 C2289 1.379 . S
H2291 C2285 0.959 . S
H2292 C2285 0.961 . S
H2293 C2285 0.960 . S
H2294 C2286 0.930 . S
H2295 C2287 0.929 . S
H2296 C2304 0.929 . S
H2297 C2306 0.930 . S
H2298 C2308 0.879 1_565 S
H2299 C2311 0.929 1_565 S
H2300 C2314 0.930 . S
H2301 C2316 0.960 1_554 S
H2302 C2316 0.960 1_554 S
H2303 C2316 0.960 . S
C2304 H2296 0.929 . S
C2304 C2305 1.377 . S
C2304 C2306 1.384 . S
C2305 C2304 1.377 . S
C2305 C2311 1.390 . S
C2306 H2297 0.930 . S
C2306 C2304 1.384 . S
C2306 C2307 1.372 . S
C2307 C2306 1.372 . S
C2307 C2308 1.435 . S
C2307 C2312 1.490 . S
C2308 H2298 0.879 1_545 S
C2308 C2307 1.435 . S
C2308 C2311 1.402 . S
H2309 C2325 0.930 . S
H2310 C2326 0.931 . S
C2311 H2299 0.929 1_545 S
C2311 C2305 1.390 . S
C2311 C2308 1.402 . S
C2312 C2307 1.490 . S
C2312 C2314 1.395 1_455 S
C2312 C2315 1.403 1_545 S
H2313 C2319 0.930 . S
C2314 H2300 0.930 . S
C2314 C2312 1.395 1_655 S
C2314 C2317 1.403 1_556 S
C2315 C2312 1.403 1_565 S
C2315 C2316 1.524 . S
C2315 C2319 1.400 1_556 S
C2316 H2301 0.960 1_556 S
C2316 H2302 0.960 1_556 S
C2316 H2303 0.960 . S
C2316 C2315 1.524 . S
C2317 C2314 1.403 1_554 S
C2317 C2318 1.392 1_545 S
C2317 C2321 1.495 . S
C2318 C2317 1.392 1_565 S
C2318 C2319 1.385 1_655 S
C2318 C2320 1.478 . S
C2319 H2313 0.930 . S
C2319 C2315 1.400 1_554 S
C2319 C2318 1.385 1_455 S
C2320 C2318 1.478 . S
C2320 C2322 1.349 1_565 S
C2320 C2326 1.383 . S
C2321 C2317 1.495 . S
C2321 H2327 0.959 1_554 S
C2321 H2328 0.961 1_554 S
C2321 H2329 0.960 . S
C2322 C2320 1.349 1_545 S
C2322 C2323 1.374 1_545 S
C2322 H2330 0.987 . S
C2323 C2322 1.374 1_565 S
C2323 C2324 1.383 . S
C2323 H2331 0.929 1_565 S
C2324 C2323 1.383 . S
C2324 C2325 1.377 . S
C2325 H2309 0.930 . S
C2325 C2324 1.377 . S
C2325 C2326 1.379 . S
C2326 H2310 0.931 . S
C2326 C2320 1.383 . S
C2326 C2325 1.379 . S
H2327 C2321 0.959 1_556 S
H2328 C2321 0.961 1_556 S
H2329 C2321 0.960 . S
H2330 C2322 0.987 . S
H2331 C2323 0.929 1_545 S
H2332 C2340 0.929 . S
H2333 C2342 0.930 . S
H2334 C2344 0.930 1_565 S
H2335 C2347 0.929 . S
H2336 C2350 0.930 . S
H2337 C2352 0.960 . S
H2338 C2352 0.960 . S
H2339 C2352 0.960 . S
C2340 H2332 0.929 . S
C2340 C2341 1.377 . S
C2340 C2342 1.384 . S
C2341 C2340 1.377 . S
C2341 C2347 1.390 . S
C2342 H2333 0.930 . S
C2342 C2340 1.384 . S
C2342 C2343 1.372 . S
C2343 C2342 1.372 . S
C2343 C2344 1.400 . S
C2343 C2348 1.490 . S
C2344 H2334 0.930 1_545 S
C2344 C2343 1.400 . S
C2344 C2347 1.386 . S
H2345 C2361 0.930 . S
H2346 C2362 0.931 . S
C2347 H2335 0.929 . S
C2347 C2341 1.390 . S
C2347 C2344 1.386 . S
C2348 C2343 1.490 . S
C2348 C2350 1.395 . S
C2348 C2351 1.403 1_545 S
H2349 C2355 0.930 . S
C2350 H2336 0.930 . S
C2350 C2348 1.395 . S
C2350 C2353 1.403 . S
C2351 C2348 1.403 1_565 S
C2351 C2352 1.524 . S
C2351 C2355 1.400 . S
C2352 H2337 0.960 . S
C2352 H2338 0.960 . S
C2352 H2339 0.960 . S
C2352 C2351 1.524 . S
C2353 C2350 1.403 . S
C2353 C2354 1.392 1_545 S
C2353 C2357 1.495 . S
C2354 C2353 1.392 1_565 S
C2354 C2355 1.385 . S
C2354 C2356 1.478 . S
C2355 H2349 0.930 . S
C2355 C2351 1.400 . S
C2355 C2354 1.385 . S
C2356 C2354 1.478 . S
C2356 C2358 1.381 . S
C2356 C2362 1.383 . S
C2357 C2353 1.495 . S
C2357 H2363 0.959 . S
C2357 H2364 0.961 . S
C2357 H2365 0.960 . S
C2358 C2356 1.381 . S
C2358 C2359 1.394 . S
C2358 H2366 0.930 1_565 S
C2359 C2358 1.394 . S
C2359 C2360 1.383 . S
C2359 H2367 0.929 . S
C2360 C2359 1.383 . S
C2360 C2361 1.377 . S
C2361 H2345 0.930 . S
C2361 C2360 1.377 . S
C2361 C2362 1.379 . S
C2362 H2346 0.931 . S
C2362 C2356 1.383 . S
C2362 C2361 1.379 . S
H2363 C2357 0.959 . S
H2364 C2357 0.961 . S
H2365 C2357 0.960 . S
H2366 C2358 0.930 1_545 S
H2367 C2359 0.929 . S
C649 C19 2.941 . S
C668 C419 2.927 . S
C685 C59 2.944 . S
C704 C459 2.948 . S
C721 C99 2.942 . S
C740 C339 2.928 . S
C757 C139 2.945 . S
C776 C379 2.946 . S
C793 C169 2.942 . S
C812 C569 2.927 . S
C829 C209 2.941 . S
C848 C609 2.940 . S
C865 C249 2.942 . S
C884 C489 2.927 . S
C901 C289 2.941 . S
C920 C529 2.928 . S
C937 C378 3.706 . S
C956 C9 3.705 1_556 S
C973 C418 3.706 . S
C992 C49 3.724 . S
C1009 C458 3.706 . S
C1028 C89 3.724 . S
C1045 C338 3.704 . S
C1064 C129 3.725 . S
C1081 C179 3.719 1_554 S
C1100 C528 3.711 . S
C1117 C568 3.707 . S
C1136 C219 3.703 . S
C1153 C608 3.706 . S
C1172 C259 3.716 . S
C1189 C488 3.706 . S
C1208 C299 3.717 . S
C1225 C58 3.703 . S
C1244 C329 3.724 . S
C1261 C369 3.718 . S
C1280 C98 3.705 . S
C1297 C409 3.721 1_556 S
C1316 C138 3.688 . S
C1333 C449 3.718 . S
C1352 C18 3.709 . S
C1369 C499 3.718 . S
C1388 C208 3.708 . S
C1405 C248 3.707 . S
C1424 C539 3.704 . S
C1441 C288 3.704 . S
C1460 C579 3.711 1_554 S
C1477 C619 3.722 . S
C1496 C168 3.688 . S
C1513 C15 0.253 . S
C1532 C618 0.309 . S
C1549 C55 0.281 . S
C1568 C178 0.254 . S
C1585 C538 0.242 . S
C1604 C95 0.204 . S
C1621 C258 0.215 . S
C1640 C135 0.361 . S
C1657 C165 0.253 . S
C1676 C448 0.237 . S
C1693 C205 0.285 . S
C1712 C8 0.199 . S
C1729 C368 0.238 . S
C1748 C245 0.220 . S
C1765 C88 0.241 . S
C1784 C285 0.322 . S
C1801 C335 0.253 . S
C1820 C298 0.311 . S
C1837 C375 0.253 . S
C1856 C498 0.288 . S
C1873 C218 0.224 . S
C1892 C415 0.247 . S
C1909 C578 0.210 . S
C1928 C455 0.359 . S
C1945 C485 0.254 . S
C1964 C128 0.286 . S
C1981 C525 0.282 . S
C2000 C328 0.181 . S
C2017 C565 0.262 . S
C2036 C48 0.179 . S
C2053 C408 0.214 . S
C2072 C605 0.348 . S
C2089 C5 1.314 . S
C2108 C495 1.331 . S
C2125 C45 1.318 . S
C2144 C215 1.346 . S
C2161 C85 1.311 . S
C2180 C575 1.292 . S
C2197 C295 1.315 . S
C2216 C125 1.337 . S
C2233 C175 1.326 . S
C2252 C325 1.335 . S
C2269 C405 1.324 . S
C2288 C255 1.311 . S
C2305 C365 1.320 . S
C2324 C535 1.350 . S
C2341 C615 1.317 . S
C2360 C445 1.345 . S
