# Generated by pormake.
# Topology sxg, (6)-cn, num edge types: 1
# Building blocks:
#     Node 0, Type 0, BuildingBlock: OJICUG_clean_sbu_0, # of connection points: 6
#     Node 1, Type 0, BuildingBlock: OJICUG_clean_sbu_0, # of connection points: 6
#     Node 2, Type 0, BuildingBlock: OJICUG_clean_sbu_0, # of connection points: 6
#     Node 3, Type 0, BuildingBlock: OJICUG_clean_sbu_0, # of connection points: 6
#     Node 4, Type 0, BuildingBlock: OJICUG_clean_sbu_0, # of connection points: 6
#     Node 5, Type 0, BuildingBlock: OJICUG_clean_sbu_0, # of connection points: 6
#     Node 6, Type 0, BuildingBlock: OJICUG_clean_sbu_0, # of connection points: 6
#     Node 7, Type 0, BuildingBlock: OJICUG_clean_sbu_0, # of connection points: 6
#     Node 8, Type 0, BuildingBlock: OJICUG_clean_sbu_0, # of connection points: 6
#     Node 9, Type 0, BuildingBlock: OJICUG_clean_sbu_0, # of connection points: 6
#     Node 10, Type 0, BuildingBlock: OJICUG_clean_sbu_0, # of connection points: 6
#     Node 11, Type 0, BuildingBlock: OJICUG_clean_sbu_0, # of connection points: 6
#     Node 12, Type 0, BuildingBlock: OJICUG_clean_sbu_0, # of connection points: 6
#     Node 13, Type 0, BuildingBlock: OJICUG_clean_sbu_0, # of connection points: 6
#     Node 14, Type 0, BuildingBlock: OJICUG_clean_sbu_0, # of connection points: 6
#     Node 15, Type 0, BuildingBlock: OJICUG_clean_sbu_0, # of connection points: 6
#     Node 16, Type 0, BuildingBlock: OJICUG_clean_sbu_0, # of connection points: 6
#     Node 17, Type 0, BuildingBlock: OJICUG_clean_sbu_0, # of connection points: 6
#     Node 18, Type 0, BuildingBlock: OJICUG_clean_sbu_0, # of connection points: 6
#     Node 19, Type 0, BuildingBlock: OJICUG_clean_sbu_0, # of connection points: 6
#     Node 20, Type 0, BuildingBlock: OJICUG_clean_sbu_0, # of connection points: 6
#     Node 21, Type 0, BuildingBlock: OJICUG_clean_sbu_0, # of connection points: 6
#     Node 22, Type 0, BuildingBlock: OJICUG_clean_sbu_0, # of connection points: 6
#     Node 23, Type 0, BuildingBlock: OJICUG_clean_sbu_0, # of connection points: 6
#     Edge 24, Type (0, 0), BuildingBlock: OJICUG_clean_linker_0, # of connection points: 2
#     Edge 25, Type (0, 0), BuildingBlock: OJICUG_clean_linker_0, # of connection points: 2
#     Edge 26, Type (0, 0), BuildingBlock: OJICUG_clean_linker_0, # of connection points: 2
#     Edge 27, Type (0, 0), BuildingBlock: OJICUG_clean_linker_0, # of connection points: 2
#     Edge 28, Type (0, 0), BuildingBlock: OJICUG_clean_linker_0, # of connection points: 2
#     Edge 29, Type (0, 0), BuildingBlock: OJICUG_clean_linker_0, # of connection points: 2
#     Edge 30, Type (0, 0), BuildingBlock: OJICUG_clean_linker_0, # of connection points: 2
#     Edge 31, Type (0, 0), BuildingBlock: OJICUG_clean_linker_0, # of connection points: 2
#     Edge 32, Type (0, 0), BuildingBlock: OJICUG_clean_linker_0, # of connection points: 2
#     Edge 33, Type (0, 0), BuildingBlock: OJICUG_clean_linker_0, # of connection points: 2
#     Edge 34, Type (0, 0), BuildingBlock: OJICUG_clean_linker_0, # of connection points: 2
#     Edge 35, Type (0, 0), BuildingBlock: OJICUG_clean_linker_0, # of connection points: 2
#     Edge 36, Type (0, 0), BuildingBlock: OJICUG_clean_linker_0, # of connection points: 2
#     Edge 37, Type (0, 0), BuildingBlock: OJICUG_clean_linker_0, # of connection points: 2
#     Edge 38, Type (0, 0), BuildingBlock: OJICUG_clean_linker_0, # of connection points: 2
#     Edge 39, Type (0, 0), BuildingBlock: OJICUG_clean_linker_0, # of connection points: 2
#     Edge 40, Type (0, 0), BuildingBlock: OJICUG_clean_linker_0, # of connection points: 2
#     Edge 41, Type (0, 0), BuildingBlock: OJICUG_clean_linker_0, # of connection points: 2
#     Edge 42, Type (0, 0), BuildingBlock: OJICUG_clean_linker_0, # of connection points: 2
#     Edge 43, Type (0, 0), BuildingBlock: OJICUG_clean_linker_0, # of connection points: 2
#     Edge 44, Type (0, 0), BuildingBlock: OJICUG_clean_linker_0, # of connection points: 2
#     Edge 45, Type (0, 0), BuildingBlock: OJICUG_clean_linker_0, # of connection points: 2
#     Edge 46, Type (0, 0), BuildingBlock: OJICUG_clean_linker_0, # of connection points: 2
#     Edge 47, Type (0, 0), BuildingBlock: OJICUG_clean_linker_0, # of connection points: 2
#     Edge 48, Type (0, 0), BuildingBlock: OJICUG_clean_linker_0, # of connection points: 2
#     Edge 49, Type (0, 0), BuildingBlock: OJICUG_clean_linker_0, # of connection points: 2
#     Edge 50, Type (0, 0), BuildingBlock: OJICUG_clean_linker_0, # of connection points: 2
#     Edge 51, Type (0, 0), BuildingBlock: OJICUG_clean_linker_0, # of connection points: 2
#     Edge 52, Type (0, 0), BuildingBlock: OJICUG_clean_linker_0, # of connection points: 2
#     Edge 53, Type (0, 0), BuildingBlock: OJICUG_clean_linker_0, # of connection points: 2
#     Edge 54, Type (0, 0), BuildingBlock: OJICUG_clean_linker_0, # of connection points: 2
#     Edge 55, Type (0, 0), BuildingBlock: OJICUG_clean_linker_0, # of connection points: 2
#     Edge 56, Type (0, 0), BuildingBlock: OJICUG_clean_linker_0, # of connection points: 2
#     Edge 57, Type (0, 0), BuildingBlock: OJICUG_clean_linker_0, # of connection points: 2
#     Edge 58, Type (0, 0), BuildingBlock: OJICUG_clean_linker_0, # of connection points: 2
#     Edge 59, Type (0, 0), BuildingBlock: OJICUG_clean_linker_0, # of connection points: 2
#     Edge 60, Type (0, 0), BuildingBlock: OJICUG_clean_linker_0, # of connection points: 2
#     Edge 61, Type (0, 0), BuildingBlock: OJICUG_clean_linker_0, # of connection points: 2
#     Edge 62, Type (0, 0), BuildingBlock: OJICUG_clean_linker_0, # of connection points: 2
#     Edge 63, Type (0, 0), BuildingBlock: OJICUG_clean_linker_0, # of connection points: 2
#     Edge 64, Type (0, 0), BuildingBlock: OJICUG_clean_linker_0, # of connection points: 2
#     Edge 65, Type (0, 0), BuildingBlock: OJICUG_clean_linker_0, # of connection points: 2
#     Edge 66, Type (0, 0), BuildingBlock: OJICUG_clean_linker_0, # of connection points: 2
#     Edge 67, Type (0, 0), BuildingBlock: OJICUG_clean_linker_0, # of connection points: 2
#     Edge 68, Type (0, 0), BuildingBlock: OJICUG_clean_linker_0, # of connection points: 2
#     Edge 69, Type (0, 0), BuildingBlock: OJICUG_clean_linker_0, # of connection points: 2
#     Edge 70, Type (0, 0), BuildingBlock: OJICUG_clean_linker_0, # of connection points: 2
#     Edge 71, Type (0, 0), BuildingBlock: OJICUG_clean_linker_0, # of connection points: 2
#     Edge 72, Type (0, 0), BuildingBlock: OJICUG_clean_linker_0, # of connection points: 2
#     Edge 73, Type (0, 0), BuildingBlock: OJICUG_clean_linker_0, # of connection points: 2
#     Edge 74, Type (0, 0), BuildingBlock: OJICUG_clean_linker_0, # of connection points: 2
#     Edge 75, Type (0, 0), BuildingBlock: OJICUG_clean_linker_0, # of connection points: 2
#     Edge 76, Type (0, 0), BuildingBlock: OJICUG_clean_linker_0, # of connection points: 2
#     Edge 77, Type (0, 0), BuildingBlock: OJICUG_clean_linker_0, # of connection points: 2
#     Edge 78, Type (0, 0), BuildingBlock: OJICUG_clean_linker_0, # of connection points: 2
#     Edge 79, Type (0, 0), BuildingBlock: OJICUG_clean_linker_0, # of connection points: 2
#     Edge 80, Type (0, 0), BuildingBlock: OJICUG_clean_linker_0, # of connection points: 2
#     Edge 81, Type (0, 0), BuildingBlock: OJICUG_clean_linker_0, # of connection points: 2
#     Edge 82, Type (0, 0), BuildingBlock: OJICUG_clean_linker_0, # of connection points: 2
#     Edge 83, Type (0, 0), BuildingBlock: OJICUG_clean_linker_0, # of connection points: 2
#     Edge 84, Type (0, 0), BuildingBlock: OJICUG_clean_linker_0, # of connection points: 2
#     Edge 85, Type (0, 0), BuildingBlock: OJICUG_clean_linker_0, # of connection points: 2
#     Edge 86, Type (0, 0), BuildingBlock: OJICUG_clean_linker_0, # of connection points: 2
#     Edge 87, Type (0, 0), BuildingBlock: OJICUG_clean_linker_0, # of connection points: 2
#     Edge 88, Type (0, 0), BuildingBlock: OJICUG_clean_linker_0, # of connection points: 2
#     Edge 89, Type (0, 0), BuildingBlock: OJICUG_clean_linker_0, # of connection points: 2
#     Edge 90, Type (0, 0), BuildingBlock: OJICUG_clean_linker_0, # of connection points: 2
#     Edge 91, Type (0, 0), BuildingBlock: OJICUG_clean_linker_0, # of connection points: 2
#     Edge 92, Type (0, 0), BuildingBlock: OJICUG_clean_linker_0, # of connection points: 2
#     Edge 93, Type (0, 0), BuildingBlock: OJICUG_clean_linker_0, # of connection points: 2
#     Edge 94, Type (0, 0), BuildingBlock: OJICUG_clean_linker_0, # of connection points: 2
#     Edge 95, Type (0, 0), BuildingBlock: OJICUG_clean_linker_0, # of connection points: 2
# Relax obj value: 0.142
# Max RMSD: 0.235
# Mean RMSD: 0.235
data_MOF--net-sxg--node1-OJICUG_clean_sbu_0--edge1-OJICUG_clean_linker_0
_symmetry_space_group_name_H-M    P1
_symmetry_Int_Tables_number       1
_symmetry_cell_setting            triclinic
loop_
_symmetry_equiv_pos_as_xyz
'x, y, z'
_cell_length_a     34.865071
_cell_length_b     34.86262
_cell_length_c     34.864123
_cell_angle_alpha  90.000928
_cell_angle_beta   90.000514
_cell_angle_gamma 90.000739
loop_
_atom_site_label
_atom_site_type_symbol
_atom_site_fract_x
_atom_site_fract_y
_atom_site_fract_z
_atom_type_partial_charge
Sc0 Sc 0.09152 0.39437 0.15649 0.0
Sc1 Sc 0.05984 0.37219 0.24939 0.0
Sc2 Sc 0.07615 0.30002 0.18391 0.0
O3 O 0.07505 0.35601 0.19625 0.0
C4 C 0.03811 0.33292 0.11068 0.0
C5 C 0.02259 0.4376 0.19537 0.0
C6 C 0.00553 0.30474 0.24384 0.0
C7 C 0.13291 0.42383 0.23344 0.0
C8 C 0.14999 0.32935 0.13994 0.0
C9 C 0.11005 0.29626 0.26365 0.0
O10 O 0.05934 0.36304 0.112 0.0
O11 O 0.02882 0.42263 0.22828 0.0
O12 O 0.02987 0.28578 0.22415 0.0
O13 O 0.1255 0.4275 0.19768 0.0
O14 O 0.12449 0.30385 0.14525 0.0
O15 O 0.08678 0.32165 0.27629 0.0
O16 O 0.14378 0.36462 0.14528 0.0
O17 O 0.11268 0.40312 0.25569 0.0
O18 O 0.11669 0.2922 0.22822 0.0
O19 O 0.04137 0.42819 0.16565 0.0
O20 O 0.03679 0.30839 0.13775 0.0
O21 O 0.00711 0.34104 0.24607 0.0
Sc22 Sc 0.41142 0.60865 0.65647 0.0
Sc23 Sc 0.44311 0.63084 0.74936 0.0
Sc24 Sc 0.42678 0.703 0.68389 0.0
O25 O 0.42789 0.64701 0.69623 0.0
C26 C 0.46482 0.6701 0.61066 0.0
C27 C 0.48035 0.56543 0.69535 0.0
C28 C 0.49741 0.6983 0.74381 0.0
C29 C 0.37004 0.5792 0.73343 0.0
C30 C 0.35294 0.67366 0.63992 0.0
C31 C 0.39289 0.70677 0.76363 0.0
O32 O 0.44359 0.63998 0.61197 0.0
O33 O 0.47413 0.58041 0.72826 0.0
O34 O 0.47305 0.71726 0.72412 0.0
O35 O 0.37744 0.57552 0.69767 0.0
O36 O 0.37844 0.69916 0.64523 0.0
O37 O 0.41617 0.68138 0.77627 0.0
O38 O 0.35915 0.6384 0.64527 0.0
O39 O 0.39028 0.5999 0.75568 0.0
O40 O 0.38624 0.71081 0.72819 0.0
O41 O 0.46157 0.57483 0.66563 0.0
O42 O 0.46614 0.69464 0.63772 0.0
O43 O 0.49583 0.66199 0.74602 0.0
Sc44 Sc 0.57616 0.20298 0.81908 0.0
Sc45 Sc 0.55986 0.13081 0.75361 0.0
Sc46 Sc 0.59153 0.10864 0.8465 0.0
O47 O 0.57506 0.147 0.80674 0.0
C48 C 0.65 0.17366 0.86305 0.0
C49 C 0.61007 0.20675 0.73935 0.0
C50 C 0.63292 0.07918 0.76955 0.0
C51 C 0.50555 0.19828 0.75914 0.0
C52 C 0.53811 0.17008 0.89231 0.0
C53 C 0.5226 0.06541 0.80762 0.0
O54 O 0.62449 0.19915 0.85775 0.0
O55 O 0.5868 0.18136 0.7267 0.0
O56 O 0.62552 0.0755 0.80531 0.0
O57 O 0.5299 0.21723 0.77884 0.0
O58 O 0.55935 0.13997 0.89099 0.0
O59 O 0.52883 0.08038 0.77471 0.0
O60 O 0.53679 0.19462 0.86523 0.0
O61 O 0.50713 0.16197 0.75692 0.0
O62 O 0.54138 0.07481 0.83734 0.0
O63 O 0.61671 0.2108 0.77478 0.0
O64 O 0.6438 0.13839 0.8577 0.0
O65 O 0.61269 0.09988 0.7473 0.0
Sc66 Sc 0.92679 0.80006 0.31905 0.0
Sc67 Sc 0.9431 0.87223 0.25359 0.0
Sc68 Sc 0.91142 0.8944 0.34649 0.0
O69 O 0.9279 0.85604 0.30672 0.0
C70 C 0.85295 0.82938 0.36303 0.0
C71 C 0.89289 0.7963 0.23932 0.0
C72 C 0.87003 0.92386 0.26955 0.0
C73 C 0.99741 0.80477 0.25912 0.0
C74 C 0.96484 0.83295 0.39229 0.0
C75 C 0.98035 0.93763 0.30761 0.0
O76 O 0.87846 0.80388 0.35772 0.0
O77 O 0.91616 0.82169 0.22668 0.0
O78 O 0.87744 0.92754 0.30531 0.0
O79 O 0.97306 0.78581 0.27882 0.0
O80 O 0.9436 0.86306 0.39098 0.0
O81 O 0.97412 0.92266 0.2747 0.0
O82 O 0.96616 0.80841 0.36522 0.0
O83 O 0.99583 0.84107 0.2569 0.0
O84 O 0.96157 0.92822 0.33734 0.0
O85 O 0.88625 0.79224 0.27475 0.0
O86 O 0.85916 0.86464 0.35769 0.0
O87 O 0.89027 0.90316 0.24729 0.0
Sc88 Sc 0.15651 0.09154 0.39438 0.0
Sc89 Sc 0.2494 0.05985 0.37221 0.0
Sc90 Sc 0.18393 0.07615 0.30004 0.0
O91 O 0.19627 0.07506 0.35602 0.0
C92 C 0.1107 0.03811 0.33294 0.0
C93 C 0.19539 0.0226 0.43761 0.0
C94 C 0.24387 0.00554 0.30475 0.0
C95 C 0.23346 0.13292 0.42384 0.0
C96 C 0.13995 0.15 0.32936 0.0
C97 C 0.26366 0.11006 0.29628 0.0
O98 O 0.11202 0.05935 0.36305 0.0
O99 O 0.2283 0.02882 0.42263 0.0
O100 O 0.22417 0.02988 0.28579 0.0
O101 O 0.1977 0.12553 0.42751 0.0
O102 O 0.14526 0.12448 0.30387 0.0
O103 O 0.27631 0.08679 0.32167 0.0
O104 O 0.14531 0.14381 0.36462 0.0
O105 O 0.25571 0.11268 0.40314 0.0
O106 O 0.22823 0.1167 0.29222 0.0
O107 O 0.16567 0.04139 0.42821 0.0
O108 O 0.13778 0.03678 0.30841 0.0
O109 O 0.24609 0.00712 0.34105 0.0
Sc110 Sc 0.31903 0.92688 0.80003 0.0
Sc111 Sc 0.25355 0.94316 0.87219 0.0
Sc112 Sc 0.34645 0.91149 0.89437 0.0
O113 O 0.30669 0.92797 0.85601 0.0
C114 C 0.36301 0.85304 0.82933 0.0
C115 C 0.2393 0.89295 0.79626 0.0
C116 C 0.26951 0.87009 0.92382 0.0
C117 C 0.25908 0.99749 0.80474 0.0
C118 C 0.39225 0.96493 0.83294 0.0
C119 C 0.30757 0.98041 0.9376 0.0
O120 O 0.35771 0.87855 0.80385 0.0
O121 O 0.22666 0.91622 0.82166 0.0
O122 O 0.30527 0.87749 0.92749 0.0
O123 O 0.27879 0.97315 0.78578 0.0
O124 O 0.39094 0.94368 0.86304 0.0
O125 O 0.27466 0.97419 0.92262 0.0
O126 O 0.36518 0.96626 0.80841 0.0
O127 O 0.25686 0.9959 0.84105 0.0
O128 O 0.33729 0.96163 0.9282 0.0
O129 O 0.27474 0.88633 0.79219 0.0
O130 O 0.35766 0.85922 0.86459 0.0
O131 O 0.24726 0.89032 0.90312 0.0
Sc132 Sc 0.6839 0.42687 0.70295 0.0
Sc133 Sc 0.74938 0.44316 0.63079 0.0
Sc134 Sc 0.65648 0.41147 0.60861 0.0
O135 O 0.69625 0.42796 0.64697 0.0
C136 C 0.63992 0.35303 0.67365 0.0
C137 C 0.76363 0.39295 0.70673 0.0
C138 C 0.73343 0.37008 0.57916 0.0
C139 C 0.74385 0.49748 0.69824 0.0
C140 C 0.61068 0.46492 0.67004 0.0
C141 C 0.69537 0.4804 0.56538 0.0
O142 O 0.64522 0.37855 0.69913 0.0
O143 O 0.77628 0.41621 0.68133 0.0
O144 O 0.69767 0.37748 0.57549 0.0
O145 O 0.72415 0.47314 0.7172 0.0
O146 O 0.612 0.44367 0.63994 0.0
O147 O 0.72828 0.47418 0.58036 0.0
O148 O 0.63776 0.46625 0.69457 0.0
O149 O 0.74607 0.49589 0.66194 0.0
O150 O 0.66565 0.46161 0.57478 0.0
O151 O 0.72819 0.38632 0.71078 0.0
O152 O 0.64528 0.35921 0.63838 0.0
O153 O 0.75568 0.39032 0.59986 0.0
Sc154 Sc 0.84647 0.59154 0.10861 0.0
Sc155 Sc 0.75358 0.55984 0.1308 0.0
Sc156 Sc 0.81905 0.57617 0.20296 0.0
O157 O 0.80671 0.57506 0.14698 0.0
C158 C 0.89228 0.53812 0.17006 0.0
C159 C 0.8076 0.5226 0.06539 0.0
C160 C 0.75912 0.50555 0.19826 0.0
C161 C 0.76951 0.63292 0.07916 0.0
C162 C 0.86302 0.65002 0.17363 0.0
C163 C 0.73932 0.61007 0.20672 0.0
O164 O 0.89096 0.55936 0.13995 0.0
O165 O 0.77468 0.52882 0.08037 0.0
O166 O 0.77882 0.5299 0.21722 0.0
O167 O 0.80527 0.62553 0.07549 0.0
O168 O 0.85772 0.62451 0.19913 0.0
O169 O 0.72668 0.58679 0.18134 0.0
O170 O 0.85767 0.64382 0.13837 0.0
O171 O 0.74726 0.61267 0.09986 0.0
O172 O 0.77475 0.61672 0.21077 0.0
O173 O 0.83731 0.5414 0.07479 0.0
O174 O 0.86521 0.5368 0.19459 0.0
O175 O 0.75691 0.50712 0.16196 0.0
Sc176 Sc 0.39436 0.15653 0.09154 0.0
Sc177 Sc 0.3722 0.24943 0.05987 0.0
Sc178 Sc 0.30002 0.18397 0.07617 0.0
O179 O 0.35601 0.1963 0.07507 0.0
C180 C 0.33291 0.11073 0.03812 0.0
C181 C 0.43759 0.19541 0.02262 0.0
C182 C 0.30474 0.24391 0.00556 0.0
C183 C 0.42382 0.23348 0.13294 0.0
C184 C 0.32934 0.13998 0.15001 0.0
C185 C 0.29627 0.26371 0.11008 0.0
O186 O 0.36302 0.11204 0.05936 0.0
O187 O 0.42262 0.22833 0.02885 0.0
O188 O 0.28578 0.22421 0.02991 0.0
O189 O 0.42749 0.19771 0.12554 0.0
O190 O 0.30384 0.1453 0.12451 0.0
O191 O 0.32166 0.27635 0.08681 0.0
O192 O 0.3646 0.14532 0.14381 0.0
O193 O 0.40313 0.25573 0.1127 0.0
O194 O 0.29222 0.22827 0.11672 0.0
O195 O 0.42818 0.16569 0.0414 0.0
O196 O 0.30837 0.13781 0.0368 0.0
O197 O 0.34104 0.24613 0.00714 0.0
Sc198 Sc 0.80005 0.31904 0.92682 0.0
Sc199 Sc 0.87223 0.25358 0.94308 0.0
Sc200 Sc 0.89438 0.3465 0.91143 0.0
O201 O 0.85603 0.30672 0.9279 0.0
C202 C 0.82934 0.36305 0.85299 0.0
C203 C 0.79629 0.23932 0.89288 0.0
C204 C 0.92384 0.26957 0.87 0.0
C205 C 0.80478 0.25908 0.99741 0.0
C206 C 0.83294 0.39227 0.96489 0.0
C207 C 0.93762 0.3076 0.98034 0.0
O208 O 0.80386 0.35774 0.87851 0.0
O209 O 0.82169 0.22667 0.91614 0.0
O210 O 0.92751 0.30533 0.87742 0.0
O211 O 0.78582 0.27879 0.97308 0.0
O212 O 0.86304 0.39097 0.94363 0.0
O213 O 0.92266 0.27468 0.9741 0.0
O214 O 0.80841 0.36519 0.96621 0.0
O215 O 0.84108 0.25685 0.99582 0.0
O216 O 0.92821 0.33732 0.96157 0.0
O217 O 0.79223 0.27476 0.88626 0.0
O218 O 0.8646 0.3577 0.85917 0.0
O219 O 0.90314 0.2473 0.89023 0.0
Sc220 Sc 0.70293 0.68396 0.42683 0.0
Sc221 Sc 0.63075 0.74943 0.4431 0.0
Sc222 Sc 0.6086 0.65652 0.41144 0.0
O223 O 0.64694 0.69629 0.42791 0.0
C224 C 0.67363 0.63996 0.35299 0.0
C225 C 0.70669 0.76369 0.3929 0.0
C226 C 0.57914 0.73345 0.37002 0.0
C227 C 0.6982 0.74392 0.49743 0.0
C228 C 0.67003 0.61073 0.46488 0.0
C229 C 0.56535 0.69541 0.48035 0.0
O230 O 0.69911 0.64528 0.3785 0.0
O231 O 0.68129 0.77634 0.41616 0.0
O232 O 0.57546 0.69769 0.37743 0.0
O233 O 0.71716 0.72421 0.47309 0.0
O234 O 0.63993 0.61204 0.44363 0.0
O235 O 0.58032 0.72833 0.47412 0.0
O236 O 0.69456 0.63781 0.4662 0.0
O237 O 0.6619 0.74614 0.49583 0.0
O238 O 0.57476 0.66568 0.46157 0.0
O239 O 0.71075 0.72825 0.38627 0.0
O240 O 0.63837 0.64531 0.35918 0.0
O241 O 0.59983 0.75571 0.39025 0.0
Sc242 Sc 0.10858 0.84649 0.59154 0.0
Sc243 Sc 0.13072 0.75357 0.55987 0.0
Sc244 Sc 0.2029 0.81903 0.57616 0.0
O245 O 0.14692 0.80671 0.57507 0.0
C246 C 0.17003 0.89227 0.53811 0.0
C247 C 0.06533 0.8076 0.52262 0.0
C248 C 0.19818 0.75908 0.50556 0.0
C249 C 0.0791 0.76955 0.63295 0.0
C250 C 0.17361 0.86303 0.65 0.0
C251 C 0.20665 0.7393 0.61008 0.0
O252 O 0.13992 0.89097 0.55935 0.0
O253 O 0.0803 0.77469 0.52885 0.0
O254 O 0.21714 0.77878 0.5299 0.0
O255 O 0.07544 0.80532 0.62554 0.0
O256 O 0.19909 0.85771 0.62449 0.0
O257 O 0.18125 0.72666 0.58681 0.0
O258 O 0.13834 0.85769 0.6438 0.0
O259 O 0.0998 0.74729 0.61272 0.0
O260 O 0.21071 0.77474 0.61672 0.0
O261 O 0.07475 0.83733 0.5414 0.0
O262 O 0.19455 0.86519 0.53679 0.0
O263 O 0.16187 0.75686 0.50714 0.0
Sc264 Sc 0.92678 0.70299 0.81907 0.0
Sc265 Sc 0.9431 0.63082 0.75361 0.0
Sc266 Sc 0.91142 0.60864 0.8465 0.0
O267 O 0.92789 0.647 0.80674 0.0
C268 C 0.96483 0.67009 0.89231 0.0
C269 C 0.9974 0.69828 0.75915 0.0
C270 C 0.98035 0.56542 0.80763 0.0
C271 C 0.89287 0.70674 0.73934 0.0
C272 C 0.85295 0.67366 0.86305 0.0
C273 C 0.87003 0.57918 0.76955 0.0
O274 O 0.96615 0.69463 0.86523 0.0
O275 O 0.99582 0.66198 0.75693 0.0
O276 O 0.96157 0.57482 0.83735 0.0
O277 O 0.88623 0.71079 0.77478 0.0
O278 O 0.85915 0.6384 0.8577 0.0
O279 O 0.89027 0.59988 0.7473 0.0
O280 O 0.87845 0.69915 0.85775 0.0
O281 O 0.91616 0.68136 0.7267 0.0
O282 O 0.87744 0.5755 0.80531 0.0
O283 O 0.97305 0.71724 0.77884 0.0
O284 O 0.94359 0.63998 0.89099 0.0
O285 O 0.97412 0.58039 0.77471 0.0
Sc286 Sc 0.57614 0.30006 0.31906 0.0
Sc287 Sc 0.55986 0.37223 0.25359 0.0
Sc288 Sc 0.59153 0.3944 0.3465 0.0
O289 O 0.57505 0.35604 0.30673 0.0
C290 C 0.5381 0.33296 0.39229 0.0
C291 C 0.50554 0.30477 0.25912 0.0
C292 C 0.52261 0.43763 0.30761 0.0
C293 C 0.61007 0.2963 0.23933 0.0
C294 C 0.64998 0.32937 0.36304 0.0
C295 C 0.63293 0.42385 0.26956 0.0
O296 O 0.53677 0.30842 0.36522 0.0
O297 O 0.50713 0.34108 0.25689 0.0
O298 O 0.54139 0.42823 0.33733 0.0
O299 O 0.61669 0.29223 0.27477 0.0
O300 O 0.64379 0.36463 0.35769 0.0
O301 O 0.6127 0.40315 0.2473 0.0
O302 O 0.62447 0.30388 0.35774 0.0
O303 O 0.5868 0.32169 0.22669 0.0
O304 O 0.62552 0.42753 0.30531 0.0
O305 O 0.52988 0.28581 0.27882 0.0
O306 O 0.55935 0.36306 0.39098 0.0
O307 O 0.52884 0.42266 0.27469 0.0
Sc308 Sc 0.4268 0.80003 0.18391 0.0
Sc309 Sc 0.44312 0.8722 0.24938 0.0
Sc310 Sc 0.41143 0.89438 0.15648 0.0
O311 O 0.42791 0.85602 0.19625 0.0
C312 C 0.46484 0.83293 0.11068 0.0
C313 C 0.49742 0.80474 0.24384 0.0
C314 C 0.48036 0.93761 0.19536 0.0
C315 C 0.39289 0.79628 0.26365 0.0
C316 C 0.35296 0.82936 0.13994 0.0
C317 C 0.37005 0.92384 0.23344 0.0
O318 O 0.46616 0.80839 0.13775 0.0
O319 O 0.49584 0.84104 0.24606 0.0
O320 O 0.46158 0.9282 0.16564 0.0
O321 O 0.38626 0.79221 0.22822 0.0
O322 O 0.35916 0.86462 0.14528 0.0
O323 O 0.39028 0.90313 0.25569 0.0
O324 O 0.37846 0.80386 0.14525 0.0
O325 O 0.41618 0.82166 0.27629 0.0
O326 O 0.37745 0.92751 0.19767 0.0
O327 O 0.47307 0.78578 0.22414 0.0
O328 O 0.44361 0.86304 0.11199 0.0
O329 O 0.47414 0.92263 0.22828 0.0
Sc330 Sc 0.07617 0.203 0.68389 0.0
Sc331 Sc 0.05985 0.13084 0.74936 0.0
Sc332 Sc 0.09154 0.10865 0.65646 0.0
O333 O 0.07506 0.14702 0.69622 0.0
C334 C 0.03812 0.1701 0.61066 0.0
C335 C 0.00555 0.1983 0.74381 0.0
C336 C 0.0226 0.06543 0.69534 0.0
C337 C 0.11008 0.20676 0.76362 0.0
C338 C 0.15001 0.17367 0.63992 0.0
C339 C 0.13292 0.0792 0.73342 0.0
O340 O 0.03681 0.19464 0.63773 0.0
O341 O 0.00713 0.16199 0.74603 0.0
O342 O 0.04139 0.07483 0.66562 0.0
O343 O 0.11671 0.21082 0.72819 0.0
O344 O 0.14381 0.13841 0.64526 0.0
O345 O 0.11269 0.09991 0.75567 0.0
O346 O 0.12451 0.19917 0.64522 0.0
O347 O 0.08679 0.18138 0.77626 0.0
O348 O 0.12552 0.07552 0.69766 0.0
O349 O 0.0299 0.21726 0.72412 0.0
O350 O 0.05936 0.13999 0.61197 0.0
O351 O 0.02883 0.08041 0.72825 0.0
Sc352 Sc 0.84647 0.91147 0.60862 0.0
Sc353 Sc 0.75357 0.94315 0.6308 0.0
Sc354 Sc 0.81905 0.92687 0.70296 0.0
O355 O 0.80671 0.92796 0.64698 0.0
C356 C 0.86304 0.85303 0.67365 0.0
C357 C 0.76952 0.87007 0.57917 0.0
C358 C 0.73933 0.89293 0.70673 0.0
C359 C 0.80758 0.9804 0.56539 0.0
C360 C 0.89227 0.96493 0.67004 0.0
C361 C 0.7591 0.99748 0.69825 0.0
O362 O 0.85767 0.85921 0.63839 0.0
O363 O 0.74727 0.89031 0.59987 0.0
O364 O 0.77477 0.88632 0.7108 0.0
O365 O 0.8373 0.96161 0.57478 0.0
O366 O 0.8652 0.96625 0.69458 0.0
O367 O 0.75688 0.99589 0.66195 0.0
O368 O 0.89096 0.94367 0.63994 0.0
O369 O 0.77467 0.97418 0.58037 0.0
O370 O 0.77881 0.97313 0.71721 0.0
O371 O 0.80528 0.87747 0.5755 0.0
O372 O 0.85774 0.87855 0.69914 0.0
O373 O 0.72668 0.91621 0.68134 0.0
Sc374 Sc 0.68391 0.07617 0.20295 0.0
Sc375 Sc 0.74938 0.05985 0.13079 0.0
Sc376 Sc 0.65649 0.09155 0.10861 0.0
O377 O 0.69625 0.07507 0.14697 0.0
C378 C 0.61069 0.03812 0.17005 0.0
C379 C 0.74384 0.00555 0.19825 0.0
C380 C 0.69536 0.02261 0.06539 0.0
C381 C 0.76364 0.11009 0.2067 0.0
C382 C 0.63994 0.15002 0.17363 0.0
C383 C 0.73345 0.13293 0.07915 0.0
O384 O 0.63776 0.0368 0.19458 0.0
O385 O 0.74606 0.00713 0.16195 0.0
O386 O 0.66564 0.0414 0.07478 0.0
O387 O 0.72821 0.11673 0.21076 0.0
O388 O 0.6453 0.14382 0.13837 0.0
O389 O 0.75569 0.11269 0.09985 0.0
O390 O 0.64523 0.1245 0.19912 0.0
O391 O 0.77628 0.0868 0.18133 0.0
O392 O 0.69768 0.12554 0.07548 0.0
O393 O 0.72415 0.02991 0.2172 0.0
O394 O 0.612 0.05937 0.13994 0.0
O395 O 0.72827 0.02883 0.08036 0.0
Sc396 Sc 0.31903 0.57615 0.30003 0.0
Sc397 Sc 0.25356 0.55984 0.37219 0.0
Sc398 Sc 0.34645 0.59154 0.39437 0.0
O399 O 0.30669 0.57505 0.35601 0.0
C400 C 0.39226 0.53811 0.33293 0.0
C401 C 0.2591 0.50553 0.30473 0.0
C402 C 0.30758 0.5226 0.4376 0.0
C403 C 0.23929 0.61007 0.29627 0.0
C404 C 0.363 0.65 0.32934 0.0
C405 C 0.2695 0.63292 0.42383 0.0
O406 O 0.36519 0.53678 0.3084 0.0
O407 O 0.25687 0.50711 0.34104 0.0
O408 O 0.3373 0.5414 0.4282 0.0
O409 O 0.27473 0.61669 0.2922 0.0
O410 O 0.35765 0.64381 0.3646 0.0
O411 O 0.24725 0.61268 0.40313 0.0
O412 O 0.3577 0.62449 0.30385 0.0
O413 O 0.22666 0.58679 0.32166 0.0
O414 O 0.30526 0.62553 0.42749 0.0
O415 O 0.27879 0.52988 0.28578 0.0
O416 O 0.39094 0.55936 0.36304 0.0
O417 O 0.27467 0.52882 0.42262 0.0
Sc418 Sc 0.15649 0.41149 0.89437 0.0
Sc419 Sc 0.2494 0.44316 0.87221 0.0
Sc420 Sc 0.18392 0.42689 0.80004 0.0
O421 O 0.19626 0.42797 0.85602 0.0
C422 C 0.13993 0.35304 0.82933 0.0
C423 C 0.23343 0.37008 0.92383 0.0
C424 C 0.26365 0.39294 0.79627 0.0
C425 C 0.19538 0.48041 0.93761 0.0
C426 C 0.1107 0.46494 0.83295 0.0
C427 C 0.24388 0.49749 0.80476 0.0
O428 O 0.14529 0.35923 0.86459 0.0
O429 O 0.25569 0.39032 0.90314 0.0
O430 O 0.22821 0.38634 0.79219 0.0
O431 O 0.16566 0.46162 0.92821 0.0
O432 O 0.13777 0.46627 0.80842 0.0
O433 O 0.2461 0.4959 0.84106 0.0
O434 O 0.11201 0.44368 0.86305 0.0
O435 O 0.22829 0.47418 0.92264 0.0
O436 O 0.22417 0.47315 0.7858 0.0
O437 O 0.19767 0.37748 0.9275 0.0
O438 O 0.14523 0.37857 0.80385 0.0
O439 O 0.27629 0.41621 0.82167 0.0
Sc440 Sc 0.60858 0.84649 0.91143 0.0
Sc441 Sc 0.63072 0.75357 0.94308 0.0
Sc442 Sc 0.70291 0.81904 0.92684 0.0
O443 O 0.64692 0.80671 0.92791 0.0
C444 C 0.67363 0.86305 0.853 0.0
C445 C 0.57911 0.76957 0.87 0.0
C446 C 0.70666 0.73931 0.89288 0.0
C447 C 0.56533 0.80759 0.98034 0.0
C448 C 0.67002 0.89227 0.9649 0.0
C449 C 0.69817 0.75907 0.99742 0.0
O450 O 0.63836 0.8577 0.85918 0.0
O451 O 0.59981 0.7473 0.89024 0.0
O452 O 0.71073 0.77475 0.88627 0.0
O453 O 0.57474 0.83732 0.96157 0.0
O454 O 0.69454 0.86518 0.96622 0.0
O455 O 0.66187 0.75684 0.99582 0.0
O456 O 0.63992 0.89097 0.94364 0.0
O457 O 0.5803 0.77468 0.9741 0.0
O458 O 0.71713 0.77878 0.97309 0.0
O459 O 0.57545 0.80533 0.87742 0.0
O460 O 0.6991 0.85774 0.87852 0.0
O461 O 0.68126 0.72667 0.91614 0.0
Sc462 Sc 0.20292 0.68398 0.07617 0.0
Sc463 Sc 0.13075 0.74944 0.05987 0.0
Sc464 Sc 0.10859 0.65653 0.09154 0.0
O465 O 0.14694 0.69631 0.07507 0.0
C466 C 0.17004 0.61074 0.03811 0.0
C467 C 0.1982 0.74392 0.00556 0.0
C468 C 0.06535 0.69542 0.02262 0.0
C469 C 0.20667 0.76371 0.11009 0.0
C470 C 0.17362 0.63998 0.15 0.0
C471 C 0.07913 0.73347 0.13295 0.0
O472 O 0.19457 0.63782 0.0368 0.0
O473 O 0.1619 0.74614 0.00714 0.0
O474 O 0.07476 0.66569 0.0414 0.0
O475 O 0.21073 0.72828 0.11672 0.0
O476 O 0.13835 0.64533 0.14381 0.0
O477 O 0.09982 0.75573 0.11271 0.0
O478 O 0.19911 0.6453 0.1245 0.0
O479 O 0.18128 0.77635 0.08681 0.0
O480 O 0.07546 0.69771 0.12554 0.0
O481 O 0.21716 0.72422 0.0299 0.0
O482 O 0.13993 0.61205 0.05935 0.0
O483 O 0.08032 0.72833 0.02885 0.0
Sc484 Sc 0.30005 0.31905 0.57617 0.0
Sc485 Sc 0.37223 0.25359 0.55988 0.0
Sc486 Sc 0.39437 0.34651 0.59155 0.0
O487 O 0.35603 0.30673 0.57508 0.0
C488 C 0.33293 0.39228 0.53811 0.0
C489 C 0.30477 0.2591 0.50556 0.0
C490 C 0.43762 0.30762 0.52263 0.0
C491 C 0.29631 0.23932 0.6101 0.0
C492 C 0.32934 0.36305 0.65001 0.0
C493 C 0.42385 0.26957 0.63296 0.0
O494 O 0.3084 0.3652 0.53679 0.0
O495 O 0.34107 0.25688 0.50715 0.0
O496 O 0.42821 0.33735 0.54141 0.0
O497 O 0.29224 0.27476 0.61673 0.0
O498 O 0.36461 0.3577 0.64382 0.0
O499 O 0.40315 0.24731 0.61272 0.0
O500 O 0.30386 0.35774 0.62449 0.0
O501 O 0.32169 0.22668 0.58682 0.0
O502 O 0.42751 0.30533 0.62555 0.0
O503 O 0.28581 0.2788 0.52991 0.0
O504 O 0.36303 0.39098 0.55936 0.0
O505 O 0.42265 0.2747 0.52886 0.0
Sc506 Sc 0.89435 0.15651 0.41144 0.0
Sc507 Sc 0.87219 0.24943 0.4431 0.0
Sc508 Sc 0.80002 0.18396 0.42683 0.0
O509 O 0.856 0.19629 0.42791 0.0
C510 C 0.82931 0.13995 0.35299 0.0
C511 C 0.92381 0.23345 0.37002 0.0
C512 C 0.79626 0.26368 0.39288 0.0
C513 C 0.9376 0.19541 0.48034 0.0
C514 C 0.83291 0.11073 0.46488 0.0
C515 C 0.80474 0.24391 0.49743 0.0
O516 O 0.86458 0.1453 0.35918 0.0
O517 O 0.90311 0.25571 0.39025 0.0
O518 O 0.7922 0.22825 0.38627 0.0
O519 O 0.92818 0.16568 0.46157 0.0
O520 O 0.80838 0.13781 0.4662 0.0
O521 O 0.84105 0.24614 0.49583 0.0
O522 O 0.86301 0.11203 0.44363 0.0
O523 O 0.92262 0.22833 0.47411 0.0
O524 O 0.78578 0.22421 0.47309 0.0
O525 O 0.92748 0.19769 0.37743 0.0
O526 O 0.80383 0.14527 0.3785 0.0
O527 O 0.82165 0.27633 0.41616 0.0
C528 C 0.1892 0.46959 0.22902 0.0
C529 C 0.16719 0.44319 0.25019 0.0
H530 H 0.23596 0.50959 0.22931 0.0
C531 C 0.17867 0.43459 0.28797 0.0
H532 H 0.18151 0.47668 0.19977 0.0
C533 C 0.21012 0.45295 0.30467 0.0
C534 C 0.23114 0.48059 0.28421 0.0
H535 H 0.16299 0.41394 0.30509 0.0
H536 H 0.21713 0.44637 0.33422 0.0
C537 C 0.22078 0.48812 0.24585 0.0
C538 C 0.28217 0.51491 0.74586 0.0
C539 C 0.27183 0.52243 0.78423 0.0
H540 H 0.32142 0.52636 0.69976 0.0
C541 C 0.29287 0.55005 0.8047 0.0
H542 H 0.26697 0.49345 0.72932 0.0
C543 C 0.32432 0.56842 0.78798 0.0
C544 C 0.33577 0.55983 0.75019 0.0
H545 H 0.28588 0.55663 0.83425 0.0
H546 H 0.34 0.58905 0.80511 0.0
C547 C 0.31374 0.53344 0.72902 0.0
C548 C 0.67867 0.06841 0.71502 0.0
C549 C 0.6672 0.05982 0.7528 0.0
H550 H 0.71713 0.05663 0.66877 0.0
C551 C 0.68921 0.03341 0.77397 0.0
H552 H 0.663 0.08906 0.6979 0.0
C553 C 0.72079 0.01488 0.75714 0.0
C554 C 0.73114 0.02241 0.71877 0.0
H555 H 0.68152 0.02633 0.80322 0.0
H556 H 0.73598 0.99341 0.77368 0.0
C557 C 0.71012 0.05005 0.69832 0.0
C558 C 0.82427 0.93461 0.21502 0.0
C559 C 0.83575 0.94322 0.2528 0.0
H560 H 0.7858 0.94638 0.16877 0.0
C561 C 0.81375 0.96963 0.27396 0.0
H562 H 0.83994 0.91396 0.1979 0.0
C563 C 0.78217 0.98816 0.25713 0.0
C564 C 0.77181 0.98062 0.21877 0.0
H565 H 0.82145 0.97673 0.30321 0.0
H566 H 0.76699 0.00964 0.27367 0.0
C567 C 0.79282 0.95297 0.19832 0.0
C568 C 0.24588 0.22079 0.48814 0.0
C569 C 0.28425 0.23114 0.48063 0.0
H570 H 0.19979 0.18154 0.47668 0.0
C571 C 0.30471 0.2101 0.453 0.0
H572 H 0.22934 0.23599 0.5096 0.0
C573 C 0.28801 0.17866 0.43463 0.0
C574 C 0.25022 0.1672 0.44321 0.0
H575 H 0.33427 0.21711 0.44642 0.0
H576 H 0.30513 0.16298 0.41399 0.0
C577 C 0.22905 0.18922 0.46961 0.0
C578 C 0.21497 0.82434 0.9346 0.0
C579 C 0.25275 0.83581 0.94319 0.0
H580 H 0.16871 0.78589 0.9464 0.0
C581 C 0.27393 0.8138 0.96959 0.0
H582 H 0.19785 0.84002 0.91396 0.0
C583 C 0.25709 0.78223 0.98813 0.0
C584 C 0.21872 0.77188 0.98061 0.0
H585 H 0.30318 0.82149 0.97667 0.0
H586 H 0.27363 0.76704 0.0096 0.0
C587 C 0.19826 0.7929 0.95297 0.0
C588 C 0.80469 0.2929 0.55 0.0
C589 C 0.78422 0.27187 0.52237 0.0
H590 H 0.8051 0.34003 0.58901 0.0
C591 C 0.74585 0.28221 0.51486 0.0
H592 H 0.83424 0.2859 0.55656 0.0
C593 C 0.72901 0.31378 0.5334 0.0
C594 C 0.75019 0.3358 0.55979 0.0
H595 H 0.72931 0.26701 0.4934 0.0
H596 H 0.69976 0.32146 0.52633 0.0
C597 C 0.78798 0.32434 0.56837 0.0
C598 C 0.71494 0.67862 0.06834 0.0
C599 C 0.75274 0.66719 0.05978 0.0
H600 H 0.66866 0.71704 0.05653 0.0
C601 C 0.77391 0.68922 0.0334 0.0
H602 H 0.69781 0.66292 0.08897 0.0
C603 C 0.75707 0.72079 0.01487 0.0
C604 C 0.71869 0.73111 0.02236 0.0
H605 H 0.80318 0.68156 0.02635 0.0
H606 H 0.77361 0.736 0.99342 0.0
C607 C 0.69822 0.71006 0.04997 0.0
C608 C 0.4346 0.28801 0.17869 0.0
C609 C 0.44319 0.25023 0.16722 0.0
H610 H 0.44639 0.33427 0.21715 0.0
C611 C 0.46959 0.22905 0.18923 0.0
H612 H 0.41395 0.30514 0.16301 0.0
C613 C 0.48812 0.24589 0.22081 0.0
C614 C 0.4806 0.28425 0.23116 0.0
H615 H 0.47667 0.1998 0.18154 0.0
H616 H 0.50959 0.22934 0.23599 0.0
C617 C 0.45296 0.30472 0.21014 0.0
C618 C 0.96962 0.274 0.81373 0.0
C619 C 0.9432 0.25283 0.83571 0.0
H620 H 0.00964 0.27372 0.76698 0.0
C621 C 0.93458 0.21506 0.82421 0.0
H622 H 0.97672 0.30324 0.82144 0.0
C623 C 0.95295 0.19836 0.79276 0.0
C624 C 0.98061 0.21882 0.77176 0.0
H625 H 0.91392 0.19794 0.83987 0.0
H626 H 0.94636 0.16882 0.78573 0.0
C627 C 0.98815 0.25718 0.78215 0.0
C628 C 0.51483 0.74586 0.28216 0.0
C629 C 0.52237 0.78422 0.27179 0.0
H630 H 0.52627 0.69978 0.32145 0.0
C631 C 0.55002 0.80467 0.2928 0.0
H632 H 0.49335 0.72932 0.26699 0.0
C633 C 0.56838 0.78797 0.32425 0.0
C634 C 0.55978 0.7502 0.33573 0.0
H635 H 0.55661 0.83422 0.28578 0.0
H636 H 0.58904 0.80509 0.33991 0.0
C637 C 0.53336 0.72903 0.31374 0.0
C638 C 0.06835 0.71504 0.67873 0.0
C639 C 0.05974 0.75281 0.66724 0.0
H640 H 0.05658 0.6688 0.71721 0.0
C641 C 0.03333 0.77399 0.68923 0.0
H642 H 0.08901 0.69792 0.66307 0.0
C643 C 0.0148 0.75716 0.72081 0.0
C644 C 0.02234 0.7188 0.73119 0.0
H645 H 0.02623 0.80323 0.68152 0.0
H646 H 0.99331 0.7737 0.73598 0.0
C647 C 0.04999 0.69834 0.71018 0.0
C648 C 0.82428 0.56841 0.71502 0.0
C649 C 0.83575 0.55982 0.7528 0.0
H650 H 0.78583 0.55663 0.66876 0.0
C651 C 0.81374 0.53341 0.77397 0.0
H652 H 0.83996 0.58906 0.6979 0.0
C653 C 0.78216 0.51488 0.75713 0.0
C654 C 0.77181 0.52241 0.71877 0.0
H655 H 0.82143 0.52633 0.80322 0.0
H656 H 0.76698 0.49341 0.77367 0.0
C657 C 0.79284 0.55005 0.69831 0.0
C658 C 0.67871 0.43459 0.21504 0.0
C659 C 0.66722 0.44321 0.25281 0.0
H660 H 0.71719 0.44636 0.1688 0.0
C661 C 0.68921 0.46963 0.27398 0.0
H662 H 0.66305 0.41393 0.19792 0.0
C663 C 0.72079 0.48816 0.25714 0.0
C664 C 0.73117 0.48061 0.21879 0.0
H665 H 0.68151 0.47673 0.30322 0.0
H666 H 0.73597 0.50965 0.27368 0.0
C667 C 0.71016 0.45295 0.19834 0.0
C668 C 0.3243 0.9346 0.28797 0.0
C669 C 0.33576 0.9432 0.25019 0.0
H670 H 0.28584 0.94637 0.33423 0.0
C671 C 0.31376 0.9696 0.22902 0.0
H672 H 0.33997 0.91395 0.30509 0.0
C673 C 0.28218 0.98813 0.24586 0.0
C674 C 0.27183 0.9806 0.28422 0.0
H675 H 0.32145 0.97669 0.19977 0.0
H676 H 0.267 0.0096 0.22932 0.0
C677 C 0.29285 0.95296 0.30468 0.0
C678 C 0.22078 0.0149 0.74585 0.0
C679 C 0.23113 0.02243 0.78421 0.0
H680 H 0.18153 0.02636 0.69975 0.0
C681 C 0.2101 0.05006 0.80467 0.0
H682 H 0.23598 0.99344 0.72931 0.0
C683 C 0.17866 0.06843 0.78796 0.0
C684 C 0.1672 0.05984 0.75018 0.0
H685 H 0.2171 0.05664 0.83422 0.0
H686 H 0.16298 0.08907 0.80508 0.0
C687 C 0.18921 0.03344 0.72901 0.0
C688 C 0.77393 0.81378 0.53341 0.0
C689 C 0.75276 0.83579 0.5598 0.0
H690 H 0.77364 0.76702 0.4934 0.0
C691 C 0.71497 0.82434 0.56838 0.0
H692 H 0.80319 0.82146 0.52634 0.0
C693 C 0.69826 0.7929 0.55 0.0
C694 C 0.71872 0.77187 0.52238 0.0
H695 H 0.69785 0.84002 0.58902 0.0
H696 H 0.66871 0.7859 0.55657 0.0
C697 C 0.75709 0.78221 0.51487 0.0
C698 C 0.74588 0.22079 0.01485 0.0
C699 C 0.78426 0.23112 0.02235 0.0
H700 H 0.69978 0.18155 0.02632 0.0
C701 C 0.80472 0.21008 0.04997 0.0
H702 H 0.72934 0.236 0.99339 0.0
C703 C 0.788 0.17864 0.06835 0.0
C704 C 0.75021 0.1672 0.05978 0.0
H705 H 0.83428 0.21707 0.05654 0.0
H706 H 0.80513 0.16295 0.08898 0.0
C707 C 0.72904 0.18922 0.03339 0.0
C708 C 0.25707 0.72079 0.48813 0.0
C709 C 0.2187 0.73113 0.48061 0.0
H710 H 0.30317 0.68154 0.47666 0.0
C711 C 0.19824 0.71009 0.45299 0.0
H712 H 0.27361 0.73599 0.50959 0.0
C713 C 0.21495 0.67865 0.43462 0.0
C714 C 0.25274 0.6672 0.44319 0.0
H715 H 0.16868 0.71709 0.44642 0.0
H716 H 0.19783 0.66297 0.41398 0.0
C717 C 0.27391 0.68922 0.46959 0.0
C718 C 0.24585 0.28222 0.98814 0.0
C719 C 0.28421 0.27186 0.98061 0.0
H720 H 0.19977 0.32149 0.97669 0.0
C721 C 0.30467 0.29288 0.95297 0.0
H722 H 0.22931 0.26704 0.00962 0.0
C723 C 0.28796 0.32433 0.9346 0.0
C724 C 0.25019 0.3358 0.94319 0.0
H725 H 0.33422 0.28587 0.94639 0.0
H726 H 0.30508 0.34 0.91395 0.0
C727 C 0.22902 0.3138 0.9696 0.0
C728 C 0.51479 0.75718 0.78215 0.0
C729 C 0.52235 0.71883 0.77176 0.0
H730 H 0.52622 0.80324 0.82145 0.0
C731 C 0.55001 0.69837 0.79275 0.0
H732 H 0.4933 0.77371 0.76699 0.0
C733 C 0.56838 0.71507 0.8242 0.0
C734 C 0.55976 0.75283 0.83571 0.0
H735 H 0.55662 0.66883 0.78571 0.0
H736 H 0.58905 0.69795 0.83985 0.0
C737 C 0.53333 0.774 0.81373 0.0
C738 C 0.04999 0.8047 0.21016 0.0
C739 C 0.02235 0.78424 0.23117 0.0
H740 H 0.08901 0.80512 0.16304 0.0
C741 C 0.01482 0.74588 0.2208 0.0
H742 H 0.05658 0.83425 0.21717 0.0
C743 C 0.03335 0.72905 0.18923 0.0
C744 C 0.05976 0.75022 0.16723 0.0
H745 H 0.99335 0.72934 0.23598 0.0
H746 H 0.02627 0.6998 0.18153 0.0
C747 C 0.06836 0.788 0.17871 0.0
C748 C 0.45297 0.19834 0.71017 0.0
C749 C 0.48061 0.2188 0.73119 0.0
H750 H 0.41395 0.19792 0.66306 0.0
C751 C 0.48815 0.25716 0.72082 0.0
H752 H 0.44638 0.1688 0.7172 0.0
C753 C 0.46962 0.27399 0.68924 0.0
C754 C 0.4432 0.25282 0.66724 0.0
H755 H 0.50963 0.2737 0.736 0.0
H756 H 0.47671 0.30324 0.68154 0.0
C757 C 0.4346 0.21505 0.67873 0.0
C758 C 0.93456 0.28796 0.32424 0.0
C759 C 0.94317 0.25019 0.33573 0.0
H760 H 0.94634 0.33421 0.28578 0.0
C761 C 0.96958 0.22902 0.31374 0.0
H762 H 0.91391 0.30509 0.33991 0.0
C763 C 0.98812 0.24585 0.28216 0.0
C764 C 0.98058 0.28421 0.27179 0.0
H765 H 0.97668 0.19977 0.32144 0.0
H766 H 0.0096 0.22931 0.26699 0.0
C767 C 0.95293 0.30467 0.2928 0.0
C768 C 0.15869 0.20449 0.28862 0.0
C769 C 0.13411 0.18969 0.31669 0.0
H770 H 0.17205 0.25142 0.25194 0.0
C771 C 0.10582 0.21341 0.33283 0.0
H772 H 0.18156 0.1871 0.27674 0.0
C773 C 0.09992 0.25047 0.31823 0.0
C774 C 0.12295 0.26422 0.28806 0.0
H775 H 0.08711 0.20261 0.35516 0.0
H776 H 0.07581 0.2671 0.32859 0.0
C777 C 0.15359 0.24153 0.27491 0.0
C778 C 0.34428 0.79855 0.78859 0.0
C779 C 0.36886 0.81335 0.81666 0.0
H780 H 0.3309 0.75162 0.75191 0.0
C781 C 0.39715 0.78962 0.8328 0.0
H782 H 0.32141 0.81594 0.77671 0.0
C783 C 0.40304 0.75257 0.8182 0.0
C784 C 0.38 0.73881 0.78803 0.0
H785 H 0.41586 0.80042 0.85513 0.0
H786 H 0.42715 0.73592 0.82856 0.0
C787 C 0.34937 0.76151 0.77488 0.0
C788 C 0.60581 0.2896 0.67016 0.0
C789 C 0.63408 0.31333 0.68632 0.0
H790 H 0.57583 0.23589 0.67439 0.0
C791 C 0.65866 0.29855 0.7144 0.0
H792 H 0.58711 0.30039 0.64782 0.0
C793 C 0.65357 0.26151 0.72811 0.0
C794 C 0.62296 0.2388 0.71494 0.0
H795 H 0.68151 0.31595 0.72629 0.0
H796 H 0.67203 0.25162 0.75109 0.0
C797 C 0.59993 0.25254 0.68477 0.0
C798 C 0.84427 0.70452 0.21435 0.0
C799 C 0.86886 0.68972 0.18629 0.0
H800 H 0.83089 0.75146 0.25102 0.0
C801 C 0.89715 0.71344 0.17015 0.0
H802 H 0.8214 0.68712 0.22622 0.0
C803 C 0.90304 0.75049 0.18475 0.0
C804 C 0.87999 0.76425 0.21491 0.0
H805 H 0.91587 0.70264 0.14783 0.0
H806 H 0.92715 0.76713 0.1744 0.0
C807 C 0.84936 0.74156 0.22806 0.0
C808 C 0.31822 0.09993 0.25047 0.0
C809 C 0.28807 0.12297 0.26424 0.0
H810 H 0.35514 0.08711 0.20261 0.0
C811 C 0.27492 0.15361 0.24156 0.0
H812 H 0.32858 0.07581 0.26711 0.0
C813 C 0.28863 0.15872 0.20452 0.0
C814 C 0.31668 0.13413 0.18971 0.0
H815 H 0.25196 0.17209 0.25147 0.0
H816 H 0.27675 0.1816 0.18713 0.0
C817 C 0.33282 0.10583 0.21342 0.0
C818 C 0.22806 0.84942 0.74153 0.0
C819 C 0.21489 0.88004 0.76422 0.0
H820 H 0.22623 0.82144 0.6871 0.0
C821 C 0.18472 0.90307 0.75047 0.0
H822 H 0.25103 0.83096 0.75143 0.0
C823 C 0.17012 0.89717 0.71341 0.0
C824 C 0.18627 0.86888 0.68969 0.0
H825 H 0.17435 0.92718 0.76711 0.0
H826 H 0.14778 0.91587 0.70261 0.0
C827 C 0.21435 0.84431 0.70449 0.0
C828 C 0.81821 0.40307 0.75252 0.0
C829 C 0.78803 0.38004 0.73877 0.0
H830 H 0.85516 0.41588 0.80035 0.0
C831 C 0.77486 0.34943 0.76148 0.0
H832 H 0.82858 0.42717 0.73586 0.0
C833 C 0.78858 0.34433 0.79851 0.0
C834 C 0.81666 0.3689 0.8133 0.0
H835 H 0.75188 0.33097 0.75159 0.0
H836 H 0.77669 0.32147 0.81591 0.0
C837 C 0.83282 0.39717 0.78957 0.0
C838 C 0.68476 0.59992 0.25252 0.0
C839 C 0.71491 0.62297 0.23877 0.0
H840 H 0.64783 0.5871 0.30038 0.0
C841 C 0.72806 0.6536 0.26145 0.0
H842 H 0.6744 0.57581 0.23588 0.0
C843 C 0.71435 0.6587 0.29849 0.0
C844 C 0.68629 0.63411 0.3133 0.0
H845 H 0.75103 0.67208 0.25155 0.0
H846 H 0.72623 0.68157 0.31588 0.0
C847 C 0.67015 0.60582 0.28958 0.0
C848 C 0.24154 0.27496 0.15361 0.0
C849 C 0.26423 0.28812 0.12297 0.0
H850 H 0.18711 0.27678 0.18157 0.0
C851 C 0.25046 0.31826 0.09991 0.0
H852 H 0.25145 0.25201 0.17209 0.0
C853 C 0.2134 0.33285 0.1058 0.0
C854 C 0.18969 0.3167 0.1341 0.0
H855 H 0.26709 0.32862 0.0758 0.0
H856 H 0.20259 0.35516 0.08708 0.0
C857 C 0.2045 0.28866 0.1587 0.0
C858 C 0.74153 0.22809 0.84938 0.0
C859 C 0.76424 0.21491 0.87999 0.0
H860 H 0.68709 0.22628 0.82144 0.0
C861 C 0.75049 0.18475 0.90303 0.0
H862 H 0.75143 0.25106 0.83091 0.0
C863 C 0.71343 0.17016 0.89715 0.0
C864 C 0.6897 0.18631 0.86888 0.0
H865 H 0.76714 0.17437 0.92713 0.0
H866 H 0.70264 0.14782 0.91586 0.0
C867 C 0.70449 0.21439 0.8443 0.0
C868 C 0.75248 0.81826 0.40304 0.0
C869 C 0.73873 0.7881 0.38 0.0
H870 H 0.80033 0.85519 0.41587 0.0
C871 C 0.76142 0.77494 0.34937 0.0
H872 H 0.73584 0.82863 0.42715 0.0
C873 C 0.79846 0.78865 0.34428 0.0
C874 C 0.81326 0.81672 0.36887 0.0
H875 H 0.75152 0.75198 0.3309 0.0
H876 H 0.81585 0.77677 0.32141 0.0
C877 C 0.78954 0.83286 0.39715 0.0
C878 C 0.28952 0.67016 0.6058 0.0
C879 C 0.31324 0.6863 0.63409 0.0
H880 H 0.23583 0.67439 0.5758 0.0
C881 C 0.29843 0.71435 0.65869 0.0
H882 H 0.30033 0.64784 0.58707 0.0
C883 C 0.26138 0.72804 0.65361 0.0
C884 C 0.23869 0.71489 0.62297 0.0
H885 H 0.31582 0.72623 0.68156 0.0
H886 H 0.25148 0.751 0.67208 0.0
C887 C 0.25246 0.68474 0.59991 0.0
C888 C 0.84429 0.79855 0.7144 0.0
C889 C 0.86887 0.81334 0.68632 0.0
H890 H 0.83091 0.75162 0.75108 0.0
C891 C 0.89715 0.7896 0.67018 0.0
H892 H 0.82143 0.81595 0.72628 0.0
C893 C 0.90303 0.75255 0.68478 0.0
C894 C 0.87999 0.7388 0.71494 0.0
H895 H 0.91586 0.80039 0.64784 0.0
H896 H 0.92713 0.73589 0.67441 0.0
C897 C 0.84937 0.7615 0.72811 0.0
C898 C 0.65868 0.2045 0.21438 0.0
C899 C 0.6341 0.18971 0.1863 0.0
H900 H 0.67205 0.25143 0.25107 0.0
C901 C 0.60582 0.21344 0.17015 0.0
H902 H 0.68154 0.1871 0.22626 0.0
C903 C 0.59993 0.2505 0.18476 0.0
C904 C 0.62297 0.26425 0.21493 0.0
H905 H 0.58712 0.20265 0.14781 0.0
H906 H 0.57583 0.26715 0.17439 0.0
C907 C 0.65359 0.24154 0.22809 0.0
C908 C 0.34937 0.74154 0.2749 0.0
C909 C 0.38 0.76423 0.28806 0.0
H910 H 0.3214 0.6871 0.27673 0.0
C911 C 0.40304 0.75047 0.31822 0.0
H912 H 0.3309 0.75144 0.25193 0.0
C913 C 0.39714 0.71341 0.33282 0.0
C914 C 0.36885 0.68969 0.31668 0.0
H915 H 0.42715 0.76711 0.32858 0.0
H916 H 0.41585 0.70261 0.35515 0.0
C917 C 0.34427 0.7045 0.28861 0.0
C918 C 0.15357 0.26153 0.77486 0.0
C919 C 0.12296 0.23882 0.78803 0.0
H920 H 0.18152 0.31597 0.77669 0.0
C921 C 0.09993 0.25256 0.8182 0.0
H922 H 0.17204 0.25164 0.75188 0.0
C923 C 0.10582 0.28962 0.8328 0.0
C924 C 0.13409 0.31335 0.81666 0.0
H925 H 0.07583 0.23591 0.82857 0.0
H926 H 0.08711 0.30041 0.85514 0.0
C927 C 0.15867 0.29857 0.78857 0.0
C928 C 0.71439 0.84433 0.79853 0.0
C929 C 0.6863 0.86889 0.81331 0.0
H930 H 0.7511 0.83097 0.75161 0.0
C931 C 0.67014 0.89716 0.78958 0.0
H932 H 0.72629 0.82148 0.81593 0.0
C933 C 0.68475 0.90306 0.75252 0.0
C934 C 0.71494 0.88003 0.73878 0.0
H935 H 0.64779 0.91586 0.80036 0.0
H936 H 0.67437 0.92715 0.73587 0.0
C937 C 0.72811 0.84942 0.76149 0.0
C938 C 0.81819 0.09993 0.25252 0.0
C939 C 0.78804 0.12298 0.23876 0.0
H940 H 0.85512 0.0871 0.30037 0.0
C941 C 0.77488 0.15361 0.26145 0.0
H942 H 0.82856 0.07583 0.23587 0.0
C943 C 0.78859 0.1587 0.2985 0.0
C944 C 0.81665 0.13411 0.3133 0.0
H945 H 0.75192 0.17208 0.25155 0.0
H946 H 0.77671 0.18157 0.31589 0.0
C947 C 0.83279 0.10582 0.28958 0.0
C948 C 0.21433 0.65872 0.20451 0.0
C949 C 0.18627 0.63413 0.1897 0.0
H950 H 0.251 0.67209 0.25145 0.0
C951 C 0.17014 0.60583 0.21341 0.0
H952 H 0.22621 0.6816 0.18712 0.0
C953 C 0.18474 0.59993 0.25046 0.0
C954 C 0.21489 0.62297 0.26423 0.0
H955 H 0.14781 0.58711 0.2026 0.0
H956 H 0.17438 0.57581 0.26709 0.0
C957 C 0.22804 0.65362 0.24155 0.0
C958 C 0.27488 0.34942 0.74153 0.0
C959 C 0.28805 0.38004 0.76423 0.0
H960 H 0.2767 0.32147 0.68709 0.0
C961 C 0.31823 0.40307 0.75048 0.0
H962 H 0.2519 0.33097 0.75142 0.0
C963 C 0.33283 0.39717 0.71343 0.0
C964 C 0.31668 0.36889 0.6897 0.0
H965 H 0.3286 0.42717 0.76713 0.0
H966 H 0.35518 0.41587 0.70264 0.0
C967 C 0.28859 0.34432 0.70449 0.0
C968 C 0.78952 0.67016 0.89715 0.0
C969 C 0.81325 0.68631 0.86887 0.0
H970 H 0.73581 0.67437 0.92713 0.0
C971 C 0.79845 0.71438 0.84429 0.0
H972 H 0.80031 0.64782 0.91586 0.0
C973 C 0.76141 0.72808 0.84937 0.0
C974 C 0.7387 0.71491 0.87999 0.0
H975 H 0.81585 0.72627 0.82144 0.0
H976 H 0.75152 0.75105 0.83091 0.0
C977 C 0.75246 0.68475 0.90303 0.0
C978 C 0.25249 0.81826 0.09992 0.0
C979 C 0.23872 0.78811 0.12298 0.0
H980 H 0.30035 0.85516 0.08708 0.0
C981 C 0.26141 0.77496 0.15362 0.0
H982 H 0.23585 0.82861 0.07581 0.0
C983 C 0.29845 0.78866 0.15871 0.0
C984 C 0.31326 0.81671 0.1341 0.0
H985 H 0.2515 0.75201 0.1721 0.0
H986 H 0.31584 0.77679 0.18158 0.0
C987 C 0.28955 0.83285 0.10581 0.0
C988 C 0.25049 0.18477 0.59992 0.0
C989 C 0.26425 0.21492 0.62298 0.0
H990 H 0.20263 0.14787 0.58707 0.0
C991 C 0.24156 0.22807 0.65361 0.0
H992 H 0.26713 0.17441 0.57581 0.0
C993 C 0.20451 0.21437 0.65869 0.0
C994 C 0.18971 0.18632 0.63409 0.0
H995 H 0.25146 0.25102 0.6721 0.0
H996 H 0.18712 0.22625 0.68156 0.0
C997 C 0.21343 0.17018 0.6058 0.0
C998 C 0.70447 0.28863 0.34429 0.0
C999 C 0.68968 0.3167 0.36888 0.0
H1000 H 0.75139 0.25194 0.33091 0.0
C1001 C 0.71341 0.33285 0.39715 0.0
H1002 H 0.68706 0.27674 0.32144 0.0
C1003 C 0.75047 0.31825 0.40303 0.0
C1004 C 0.76421 0.28808 0.38 0.0
H1005 H 0.70262 0.35519 0.41586 0.0
H1006 H 0.76712 0.32863 0.42713 0.0
C1007 C 0.74151 0.27492 0.34938 0.0
C1008 C 0.99433 0.29063 0.07186 0.0
C1009 C 0.01398 0.32572 0.07622 0.0
H1010 H 0.95532 0.2571 0.03817 0.0
C1011 C 0.00994 0.35374 0.04758 0.0
H1012 H 0.99694 0.26818 0.09317 0.0
C1013 C 0.98603 0.3473 0.016 0.0
C1014 C 0.96568 0.31256 0.01208 0.0
H1015 H 0.02468 0.38099 0.04982 0.0
H1016 H 0.9831 0.36991 0.99491 0.0
C1017 C 0.97059 0.28409 0.04013 0.0
C1018 C 0.53236 0.71893 0.54013 0.0
C1019 C 0.53728 0.69044 0.51208 0.0
H1020 H 0.50598 0.73484 0.59315 0.0
C1021 C 0.51694 0.65571 0.51601 0.0
H1022 H 0.54762 0.74592 0.53816 0.0
C1023 C 0.49302 0.64927 0.54757 0.0
C1024 C 0.48896 0.6773 0.5762 0.0
H1025 H 0.51988 0.63309 0.49491 0.0
H1026 H 0.47828 0.62201 0.54981 0.0
C1027 C 0.5086 0.71239 0.57184 0.0
C1028 C 0.47057 0.21892 0.96283 0.0
C1029 C 0.46565 0.19044 0.99088 0.0
H1030 H 0.49694 0.23483 0.9098 0.0
C1031 C 0.486 0.1557 0.98696 0.0
H1032 H 0.45531 0.24591 0.96479 0.0
C1033 C 0.50992 0.14926 0.9554 0.0
C1034 C 0.51398 0.17728 0.92676 0.0
H1035 H 0.48306 0.13308 0.00805 0.0
H1036 H 0.52465 0.122 0.95315 0.0
C1037 C 0.49432 0.21238 0.93112 0.0
C1038 C 0.03236 0.7841 0.46283 0.0
C1039 C 0.03728 0.81258 0.49088 0.0
H1040 H 0.006 0.7682 0.40979 0.0
C1041 C 0.01693 0.84731 0.48696 0.0
H1042 H 0.04762 0.75711 0.46479 0.0
C1043 C 0.99302 0.85376 0.45539 0.0
C1044 C 0.98897 0.82574 0.42674 0.0
H1045 H 0.01986 0.86993 0.50806 0.0
H1046 H 0.97828 0.88102 0.45315 0.0
C1047 C 0.00862 0.79065 0.43111 0.0
C1048 C 0.07188 0.99432 0.29065 0.0
C1049 C 0.07625 0.01398 0.32574 0.0
H1050 H 0.03819 0.95532 0.25712 0.0
C1051 C 0.0476 0.00993 0.35376 0.0
H1052 H 0.0932 0.99693 0.26821 0.0
C1053 C 0.01603 0.98603 0.34732 0.0
C1054 C 0.0121 0.96568 0.31259 0.0
H1055 H 0.04985 0.02467 0.38102 0.0
H1056 H 0.99493 0.9831 0.36994 0.0
C1057 C 0.04016 0.97059 0.28411 0.0
C1058 C 0.4628 0.03246 0.78412 0.0
C1059 C 0.49085 0.03736 0.81259 0.0
H1060 H 0.40975 0.00612 0.76821 0.0
C1061 C 0.48693 0.01701 0.84732 0.0
H1062 H 0.46476 0.04773 0.75713 0.0
C1063 C 0.45536 0.9931 0.85376 0.0
C1064 C 0.42671 0.98906 0.82574 0.0
H1065 H 0.50803 0.01993 0.86993 0.0
H1066 H 0.45311 0.97835 0.88101 0.0
C1067 C 0.43107 0.00872 0.79065 0.0
C1068 C 0.54759 0.49311 0.64921 0.0
C1069 C 0.57623 0.48906 0.67723 0.0
H1070 H 0.49493 0.51994 0.63303 0.0
C1071 C 0.57187 0.50872 0.71232 0.0
H1072 H 0.54983 0.47836 0.62196 0.0
C1073 C 0.54015 0.53247 0.71885 0.0
C1074 C 0.5121 0.53737 0.69038 0.0
H1075 H 0.59319 0.50611 0.73477 0.0
H1076 H 0.53819 0.54773 0.74584 0.0
C1077 C 0.51602 0.51702 0.65565 0.0
C1078 C 0.96281 0.47058 0.21888 0.0
C1079 C 0.99085 0.46566 0.1904 0.0
H1080 H 0.90978 0.49695 0.23479 0.0
C1081 C 0.98693 0.48601 0.15567 0.0
H1082 H 0.96477 0.45532 0.24587 0.0
C1083 C 0.95537 0.50993 0.14923 0.0
C1084 C 0.92673 0.51399 0.17725 0.0
H1085 H 0.00802 0.48308 0.13305 0.0
H1086 H 0.95312 0.52467 0.12198 0.0
C1087 C 0.93109 0.49433 0.21235 0.0
C1088 C 0.29061 0.07193 0.99432 0.0
C1089 C 0.3257 0.07628 0.01398 0.0
H1090 H 0.25708 0.03826 0.9553 0.0
C1091 C 0.35371 0.04763 0.00994 0.0
H1092 H 0.26817 0.09325 0.99693 0.0
C1093 C 0.34727 0.01607 0.98602 0.0
C1094 C 0.31254 0.01215 0.96567 0.0
H1095 H 0.38096 0.04987 0.02468 0.0
H1096 H 0.36988 0.99496 0.9831 0.0
C1097 C 0.28407 0.04021 0.97057 0.0
C1098 C 0.79065 0.43107 0.00869 0.0
C1099 C 0.82574 0.42672 0.98903 0.0
H1100 H 0.75713 0.46474 0.04771 0.0
C1101 C 0.85375 0.45538 0.99307 0.0
H1102 H 0.76822 0.40974 0.00609 0.0
C1103 C 0.8473 0.48694 0.01698 0.0
C1104 C 0.81257 0.49085 0.03734 0.0
H1105 H 0.88099 0.45315 0.97832 0.0
H1106 H 0.86991 0.50805 0.0199 0.0
C1107 C 0.78411 0.46279 0.03244 0.0
C1108 C 0.64923 0.54762 0.49305 0.0
C1109 C 0.67724 0.57628 0.48901 0.0
H1110 H 0.63307 0.49495 0.51988 0.0
C1111 C 0.71232 0.57193 0.50868 0.0
H1112 H 0.62198 0.54985 0.4783 0.0
C1113 C 0.71887 0.54021 0.53242 0.0
C1114 C 0.6904 0.51214 0.53732 0.0
H1115 H 0.73476 0.59326 0.50608 0.0
H1116 H 0.74585 0.53826 0.5477 0.0
C1117 C 0.65568 0.51605 0.51696 0.0
C1118 C 0.21232 0.93107 0.49431 0.0
C1119 C 0.17724 0.92672 0.51397 0.0
H1120 H 0.24585 0.96474 0.45529 0.0
C1121 C 0.14923 0.95538 0.50993 0.0
H1122 H 0.23476 0.90974 0.49691 0.0
C1123 C 0.15568 0.98695 0.48602 0.0
C1124 C 0.19041 0.99086 0.46567 0.0
H1125 H 0.12198 0.95315 0.52468 0.0
H1126 H 0.13308 0.00806 0.4831 0.0
C1127 C 0.21887 0.96279 0.47057 0.0
C1128 C 0.00862 0.71239 0.93112 0.0
C1129 C 0.98897 0.67729 0.92676 0.0
H1130 H 0.04763 0.74592 0.9648 0.0
C1131 C 0.99303 0.64927 0.9554 0.0
H1132 H 0.006 0.73484 0.90981 0.0
C1133 C 0.01694 0.65571 0.98696 0.0
C1134 C 0.03729 0.69045 0.99089 0.0
H1135 H 0.97829 0.62201 0.95315 0.0
H1136 H 0.01988 0.63309 0.00806 0.0
C1137 C 0.03237 0.71893 0.96284 0.0
C1138 C 0.49432 0.29066 0.43111 0.0
C1139 C 0.51397 0.32575 0.42675 0.0
H1140 H 0.45532 0.25713 0.46479 0.0
C1141 C 0.50992 0.35377 0.45539 0.0
H1142 H 0.49693 0.26822 0.40979 0.0
C1143 C 0.48602 0.34733 0.48696 0.0
C1144 C 0.46567 0.3126 0.49089 0.0
H1145 H 0.52466 0.38103 0.45315 0.0
H1146 H 0.48309 0.36995 0.50806 0.0
C1147 C 0.47058 0.28412 0.46283 0.0
C1148 C 0.51693 0.8473 0.01601 0.0
C1149 C 0.53727 0.81257 0.01208 0.0
H1150 H 0.47828 0.881 0.04982 0.0
C1151 C 0.53236 0.78409 0.04013 0.0
H1152 H 0.51985 0.86992 0.99491 0.0
C1153 C 0.50862 0.79063 0.07186 0.0
C1154 C 0.48897 0.82572 0.07622 0.0
H1155 H 0.54762 0.7571 0.03817 0.0
H1156 H 0.50601 0.76818 0.09317 0.0
C1157 C 0.49302 0.85374 0.04758 0.0
C1158 C 0.98601 0.15571 0.516 0.0
C1159 C 0.96566 0.19044 0.51208 0.0
H1160 H 0.02467 0.12202 0.54981 0.0
C1161 C 0.97058 0.21893 0.54013 0.0
H1162 H 0.98307 0.13309 0.49491 0.0
C1163 C 0.99434 0.21239 0.57184 0.0
C1164 C 0.01399 0.1773 0.5762 0.0
H1165 H 0.95532 0.24592 0.53816 0.0
H1166 H 0.99695 0.23484 0.59315 0.0
C1167 C 0.00993 0.14928 0.54757 0.0
C1168 C 0.95536 0.99311 0.64921 0.0
C1169 C 0.92672 0.98906 0.67723 0.0
H1170 H 0.00802 0.01995 0.63302 0.0
C1171 C 0.93109 0.00872 0.71232 0.0
H1172 H 0.95311 0.97837 0.62196 0.0
C1173 C 0.96281 0.03247 0.71885 0.0
C1174 C 0.99086 0.03738 0.69037 0.0
H1175 H 0.90977 0.00611 0.73477 0.0
H1176 H 0.96478 0.04773 0.74584 0.0
C1177 C 0.98693 0.01702 0.65564 0.0
C1178 C 0.54759 0.00993 0.14922 0.0
C1179 C 0.57624 0.01398 0.17725 0.0
H1180 H 0.49493 0.98308 0.13304 0.0
C1181 C 0.57187 0.99433 0.21234 0.0
H1182 H 0.54984 0.02467 0.12197 0.0
C1183 C 0.54016 0.97058 0.21887 0.0
C1184 C 0.5121 0.96567 0.19039 0.0
H1185 H 0.59319 0.99694 0.23478 0.0
H1186 H 0.53819 0.95532 0.24586 0.0
C1187 C 0.51603 0.98602 0.15566 0.0
C1188 C 0.48693 0.48604 0.34731 0.0
C1189 C 0.49086 0.46569 0.31258 0.0
H1190 H 0.45312 0.52468 0.381 0.0
C1191 C 0.46281 0.47059 0.2841 0.0
H1192 H 0.50803 0.48311 0.36993 0.0
C1193 C 0.43108 0.49433 0.29064 0.0
C1194 C 0.42672 0.51398 0.32573 0.0
H1195 H 0.46477 0.45532 0.25712 0.0
H1196 H 0.40976 0.49693 0.2682 0.0
C1197 C 0.45536 0.50994 0.35375 0.0
C1198 C 0.07188 0.50873 0.79066 0.0
C1199 C 0.07625 0.48907 0.82575 0.0
H1200 H 0.03819 0.54774 0.75714 0.0
C1201 C 0.0476 0.49311 0.85377 0.0
H1202 H 0.0932 0.50613 0.76822 0.0
C1203 C 0.01603 0.51701 0.84733 0.0
C1204 C 0.0121 0.53737 0.8126 0.0
H1205 H 0.04984 0.47836 0.88102 0.0
H1206 H 0.99493 0.51993 0.86994 0.0
C1207 C 0.04016 0.53247 0.78412 0.0
C1208 C 0.64921 0.95538 0.99307 0.0
C1209 C 0.67722 0.92672 0.98903 0.0
H1210 H 0.63305 0.00806 0.01989 0.0
C1211 C 0.7123 0.93107 0.0087 0.0
H1212 H 0.62196 0.95314 0.97831 0.0
C1213 C 0.71885 0.96279 0.03244 0.0
C1214 C 0.69038 0.99086 0.03733 0.0
H1215 H 0.73474 0.90974 0.0061 0.0
H1216 H 0.74583 0.96474 0.04771 0.0
C1217 C 0.65566 0.98695 0.01697 0.0
C1218 C 0.21888 0.54022 0.97057 0.0
C1219 C 0.19041 0.51215 0.96567 0.0
H1220 H 0.23477 0.59326 0.99692 0.0
C1221 C 0.15568 0.51606 0.98603 0.0
H1222 H 0.24586 0.53826 0.9553 0.0
C1223 C 0.14924 0.54763 0.00994 0.0
C1224 C 0.17725 0.57629 0.01398 0.0
H1225 H 0.13307 0.49496 0.98311 0.0
H1226 H 0.12199 0.54987 0.02469 0.0
C1227 C 0.21233 0.57194 0.99432 0.0
C1228 C 0.29063 0.43108 0.49431 0.0
C1229 C 0.32572 0.42673 0.51398 0.0
H1230 H 0.2571 0.46475 0.45529 0.0
C1231 C 0.35373 0.45539 0.50993 0.0
H1232 H 0.2682 0.40975 0.49692 0.0
C1233 C 0.34728 0.48695 0.48602 0.0
C1234 C 0.31256 0.49086 0.46566 0.0
H1235 H 0.38098 0.45316 0.52468 0.0
H1236 H 0.36989 0.50806 0.48309 0.0
C1237 C 0.28409 0.4628 0.47056 0.0
C1238 C 0.79062 0.07193 0.50869 0.0
C1239 C 0.82571 0.07628 0.48902 0.0
H1240 H 0.7571 0.03826 0.54771 0.0
C1241 C 0.85371 0.04762 0.49305 0.0
H1242 H 0.76819 0.09326 0.50609 0.0
C1243 C 0.84727 0.01605 0.51696 0.0
C1244 C 0.81255 0.01214 0.53733 0.0
H1245 H 0.88096 0.04985 0.4783 0.0
H1246 H 0.86988 0.99494 0.51988 0.0
C1247 C 0.78408 0.04021 0.53243 0.0
loop_
_geom_bond_atom_site_label_1
_geom_bond_atom_site_label_2
_geom_bond_distance
_geom_bond_site_symmetry_2
_ccdc_geom_bond_type
Sc0 O3 2.025 . S
Sc0 O10 2.105 . S
Sc0 O13 2.105 . S
Sc0 O16 2.105 . S
Sc0 O19 2.105 . S
Sc1 O3 2.025 . S
Sc1 O11 2.105 . S
Sc1 O15 2.105 . S
Sc1 O17 2.105 . S
Sc1 O21 2.105 1_455 S
Sc2 O3 2.025 . S
Sc2 O12 2.105 1_455 S
Sc2 O14 2.105 . S
Sc2 O18 2.105 . S
Sc2 O20 2.105 1_455 S
O3 Sc0 2.025 . S
O3 Sc1 2.025 . S
O3 Sc2 2.025 . S
C4 O10 1.268 1_655 S
C4 O20 1.268 . S
C5 O11 1.268 1_655 S
C5 O19 1.268 1_655 S
C6 O12 1.268 . S
C6 O21 1.268 . S
C7 O13 1.268 . S
C7 O17 1.268 . S
C8 O14 1.268 . S
C8 O16 1.268 . S
C9 O15 1.268 . S
C9 O18 1.268 . S
O10 Sc0 2.105 . S
O10 C4 1.268 1_455 S
O11 Sc1 2.105 . S
O11 C5 1.268 1_455 S
O12 Sc2 2.105 1_655 S
O12 C6 1.268 . S
O13 Sc0 2.105 . S
O13 C7 1.268 . S
O14 Sc2 2.105 . S
O14 C8 1.268 . S
O15 Sc1 2.105 . S
O15 C9 1.268 . S
O16 Sc0 2.105 . S
O16 C8 1.268 . S
O17 Sc1 2.105 . S
O17 C7 1.268 . S
O18 Sc2 2.105 . S
O18 C9 1.268 . S
O19 Sc0 2.105 . S
O19 C5 1.268 1_455 S
O20 Sc2 2.105 1_655 S
O20 C4 1.268 . S
O21 Sc1 2.105 1_655 S
O21 C6 1.268 . S
Sc22 O25 2.025 . S
Sc22 O32 2.105 . S
Sc22 O35 2.105 . S
Sc22 O38 2.105 . S
Sc22 O41 2.105 . S
Sc23 O25 2.025 . S
Sc23 O33 2.105 . S
Sc23 O37 2.105 . S
Sc23 O39 2.105 . S
Sc23 O43 2.105 . S
Sc24 O25 2.025 . S
Sc24 O34 2.105 . S
Sc24 O36 2.105 . S
Sc24 O40 2.105 . S
Sc24 O42 2.105 . S
O25 Sc22 2.025 . S
O25 Sc23 2.025 . S
O25 Sc24 2.025 . S
C26 O32 1.268 . S
C26 O42 1.268 . S
C27 O33 1.268 . S
C27 O41 1.268 . S
C28 O34 1.268 . S
C28 O43 1.268 . S
C29 O35 1.268 . S
C29 O39 1.268 . S
C30 O36 1.268 . S
C30 O38 1.268 . S
C31 O37 1.268 . S
C31 O40 1.268 . S
O32 Sc22 2.105 . S
O32 C26 1.268 . S
O33 Sc23 2.105 . S
O33 C27 1.268 . S
O34 Sc24 2.105 . S
O34 C28 1.268 . S
O35 Sc22 2.105 . S
O35 C29 1.268 . S
O36 Sc24 2.105 . S
O36 C30 1.268 . S
O37 Sc23 2.105 . S
O37 C31 1.268 . S
O38 Sc22 2.105 . S
O38 C30 1.268 . S
O39 Sc23 2.105 . S
O39 C29 1.268 . S
O40 Sc24 2.105 . S
O40 C31 1.268 . S
O41 Sc22 2.105 . S
O41 C27 1.268 . S
O42 Sc24 2.105 . S
O42 C26 1.268 . S
O43 Sc23 2.105 . S
O43 C28 1.268 . S
Sc44 O47 2.025 . S
Sc44 O54 2.105 . S
Sc44 O57 2.105 . S
Sc44 O60 2.105 . S
Sc44 O63 2.105 . S
Sc45 O47 2.025 . S
Sc45 O55 2.105 . S
Sc45 O59 2.105 . S
Sc45 O61 2.105 . S
Sc45 O65 2.105 . S
Sc46 O47 2.025 . S
Sc46 O56 2.105 . S
Sc46 O58 2.105 . S
Sc46 O62 2.105 . S
Sc46 O64 2.105 . S
O47 Sc44 2.025 . S
O47 Sc45 2.025 . S
O47 Sc46 2.025 . S
C48 O54 1.268 . S
C48 O64 1.268 . S
C49 O55 1.268 . S
C49 O63 1.268 . S
C50 O56 1.268 . S
C50 O65 1.268 . S
C51 O57 1.268 . S
C51 O61 1.268 . S
C52 O58 1.268 . S
C52 O60 1.268 . S
C53 O59 1.268 . S
C53 O62 1.268 . S
O54 Sc44 2.105 . S
O54 C48 1.268 . S
O55 Sc45 2.105 . S
O55 C49 1.268 . S
O56 Sc46 2.105 . S
O56 C50 1.268 . S
O57 Sc44 2.105 . S
O57 C51 1.268 . S
O58 Sc46 2.105 . S
O58 C52 1.268 . S
O59 Sc45 2.105 . S
O59 C53 1.268 . S
O60 Sc44 2.105 . S
O60 C52 1.268 . S
O61 Sc45 2.105 . S
O61 C51 1.268 . S
O62 Sc46 2.105 . S
O62 C53 1.268 . S
O63 Sc44 2.105 . S
O63 C49 1.268 . S
O64 Sc46 2.105 . S
O64 C48 1.268 . S
O65 Sc45 2.105 . S
O65 C50 1.268 . S
Sc66 O69 2.025 . S
Sc66 O76 2.105 . S
Sc66 O79 2.105 1_655 S
Sc66 O82 2.105 1_655 S
Sc66 O85 2.105 . S
Sc67 O69 2.025 . S
Sc67 O77 2.105 . S
Sc67 O81 2.105 . S
Sc67 O83 2.105 1_655 S
Sc67 O87 2.105 . S
Sc68 O69 2.025 . S
Sc68 O78 2.105 . S
Sc68 O80 2.105 . S
Sc68 O84 2.105 . S
Sc68 O86 2.105 . S
O69 Sc66 2.025 . S
O69 Sc67 2.025 . S
O69 Sc68 2.025 . S
C70 O76 1.268 . S
C70 O86 1.268 . S
C71 O77 1.268 . S
C71 O85 1.268 . S
C72 O78 1.268 . S
C72 O87 1.268 . S
C73 O79 1.268 . S
C73 O83 1.268 . S
C74 O80 1.268 1_455 S
C74 O82 1.268 . S
C75 O81 1.268 1_455 S
C75 O84 1.268 1_455 S
O76 Sc66 2.105 . S
O76 C70 1.268 . S
O77 Sc67 2.105 . S
O77 C71 1.268 . S
O78 Sc68 2.105 . S
O78 C72 1.268 . S
O79 Sc66 2.105 1_455 S
O79 C73 1.268 . S
O80 Sc68 2.105 . S
O80 C74 1.268 1_655 S
O81 Sc67 2.105 . S
O81 C75 1.268 1_655 S
O82 Sc66 2.105 1_455 S
O82 C74 1.268 . S
O83 Sc67 2.105 1_455 S
O83 C73 1.268 . S
O84 Sc68 2.105 . S
O84 C75 1.268 1_655 S
O85 Sc66 2.105 . S
O85 C71 1.268 . S
O86 Sc68 2.105 . S
O86 C70 1.268 . S
O87 Sc67 2.105 . S
O87 C72 1.268 . S
Sc88 O91 2.025 . S
Sc88 O98 2.105 . S
Sc88 O101 2.105 . S
Sc88 O104 2.105 . S
Sc88 O107 2.105 . S
Sc89 O91 2.025 . S
Sc89 O99 2.105 . S
Sc89 O103 2.105 . S
Sc89 O105 2.105 . S
Sc89 O109 2.105 1_545 S
Sc90 O91 2.025 . S
Sc90 O100 2.105 1_545 S
Sc90 O102 2.105 . S
Sc90 O106 2.105 . S
Sc90 O108 2.105 1_545 S
O91 Sc88 2.025 . S
O91 Sc89 2.025 . S
O91 Sc90 2.025 . S
C92 O98 1.268 1_565 S
C92 O108 1.268 . S
C93 O99 1.268 1_565 S
C93 O107 1.268 1_565 S
C94 O100 1.268 . S
C94 O109 1.268 . S
C95 O101 1.268 . S
C95 O105 1.268 . S
C96 O102 1.268 . S
C96 O104 1.268 . S
C97 O103 1.268 . S
C97 O106 1.268 . S
O98 Sc88 2.105 . S
O98 C92 1.268 1_545 S
O99 Sc89 2.105 . S
O99 C93 1.268 1_545 S
O100 Sc90 2.105 1_565 S
O100 C94 1.268 . S
O101 Sc88 2.105 . S
O101 C95 1.268 . S
O102 Sc90 2.105 . S
O102 C96 1.268 . S
O103 Sc89 2.105 . S
O103 C97 1.268 . S
O104 Sc88 2.105 . S
O104 C96 1.268 . S
O105 Sc89 2.105 . S
O105 C95 1.268 . S
O106 Sc90 2.105 . S
O106 C97 1.268 . S
O107 Sc88 2.105 . S
O107 C93 1.268 1_545 S
O108 Sc90 2.105 1_565 S
O108 C92 1.268 . S
O109 Sc89 2.105 1_565 S
O109 C94 1.268 . S
Sc110 O113 2.025 . S
Sc110 O120 2.105 . S
Sc110 O123 2.105 1_565 S
Sc110 O126 2.105 1_565 S
Sc110 O129 2.105 . S
Sc111 O113 2.025 . S
Sc111 O121 2.105 . S
Sc111 O125 2.105 . S
Sc111 O127 2.105 1_565 S
Sc111 O131 2.105 . S
Sc112 O113 2.025 . S
Sc112 O122 2.105 . S
Sc112 O124 2.105 . S
Sc112 O128 2.105 . S
Sc112 O130 2.105 . S
O113 Sc110 2.025 . S
O113 Sc111 2.025 . S
O113 Sc112 2.025 . S
C114 O120 1.268 . S
C114 O130 1.268 . S
C115 O121 1.268 . S
C115 O129 1.268 . S
C116 O122 1.268 . S
C116 O131 1.268 . S
C117 O123 1.268 . S
C117 O127 1.268 . S
C118 O124 1.268 1_545 S
C118 O126 1.268 . S
C119 O125 1.268 1_545 S
C119 O128 1.268 1_545 S
O120 Sc110 2.105 . S
O120 C114 1.268 . S
O121 Sc111 2.105 . S
O121 C115 1.268 . S
O122 Sc112 2.105 . S
O122 C116 1.268 . S
O123 Sc110 2.105 1_545 S
O123 C117 1.268 . S
O124 Sc112 2.105 . S
O124 C118 1.268 1_565 S
O125 Sc111 2.105 . S
O125 C119 1.268 1_565 S
O126 Sc110 2.105 1_545 S
O126 C118 1.268 . S
O127 Sc111 2.105 1_545 S
O127 C117 1.268 . S
O128 Sc112 2.105 . S
O128 C119 1.268 1_565 S
O129 Sc110 2.105 . S
O129 C115 1.268 . S
O130 Sc112 2.105 . S
O130 C114 1.268 . S
O131 Sc111 2.105 . S
O131 C116 1.268 . S
Sc132 O135 2.025 . S
Sc132 O142 2.105 . S
Sc132 O145 2.105 . S
Sc132 O148 2.105 . S
Sc132 O151 2.105 . S
Sc133 O135 2.025 . S
Sc133 O143 2.105 . S
Sc133 O147 2.105 . S
Sc133 O149 2.105 . S
Sc133 O153 2.105 . S
Sc134 O135 2.025 . S
Sc134 O144 2.105 . S
Sc134 O146 2.105 . S
Sc134 O150 2.105 . S
Sc134 O152 2.105 . S
O135 Sc132 2.025 . S
O135 Sc133 2.025 . S
O135 Sc134 2.025 . S
C136 O142 1.268 . S
C136 O152 1.268 . S
C137 O143 1.268 . S
C137 O151 1.268 . S
C138 O144 1.268 . S
C138 O153 1.268 . S
C139 O145 1.268 . S
C139 O149 1.268 . S
C140 O146 1.268 . S
C140 O148 1.268 . S
C141 O147 1.268 . S
C141 O150 1.268 . S
O142 Sc132 2.105 . S
O142 C136 1.268 . S
O143 Sc133 2.105 . S
O143 C137 1.268 . S
O144 Sc134 2.105 . S
O144 C138 1.268 . S
O145 Sc132 2.105 . S
O145 C139 1.268 . S
O146 Sc134 2.105 . S
O146 C140 1.268 . S
O147 Sc133 2.105 . S
O147 C141 1.268 . S
O148 Sc132 2.105 . S
O148 C140 1.268 . S
O149 Sc133 2.105 . S
O149 C139 1.268 . S
O150 Sc134 2.105 . S
O150 C141 1.268 . S
O151 Sc132 2.105 . S
O151 C137 1.268 . S
O152 Sc134 2.105 . S
O152 C136 1.268 . S
O153 Sc133 2.105 . S
O153 C138 1.268 . S
Sc154 O157 2.025 . S
Sc154 O164 2.105 . S
Sc154 O167 2.105 . S
Sc154 O170 2.105 . S
Sc154 O173 2.105 . S
Sc155 O157 2.025 . S
Sc155 O165 2.105 . S
Sc155 O169 2.105 . S
Sc155 O171 2.105 . S
Sc155 O175 2.105 . S
Sc156 O157 2.025 . S
Sc156 O166 2.105 . S
Sc156 O168 2.105 . S
Sc156 O172 2.105 . S
Sc156 O174 2.105 . S
O157 Sc154 2.025 . S
O157 Sc155 2.025 . S
O157 Sc156 2.025 . S
C158 O164 1.268 . S
C158 O174 1.268 . S
C159 O165 1.268 . S
C159 O173 1.268 . S
C160 O166 1.268 . S
C160 O175 1.268 . S
C161 O167 1.268 . S
C161 O171 1.268 . S
C162 O168 1.268 . S
C162 O170 1.268 . S
C163 O169 1.268 . S
C163 O172 1.268 . S
O164 Sc154 2.105 . S
O164 C158 1.268 . S
O165 Sc155 2.105 . S
O165 C159 1.268 . S
O166 Sc156 2.105 . S
O166 C160 1.268 . S
O167 Sc154 2.105 . S
O167 C161 1.268 . S
O168 Sc156 2.105 . S
O168 C162 1.268 . S
O169 Sc155 2.105 . S
O169 C163 1.268 . S
O170 Sc154 2.105 . S
O170 C162 1.268 . S
O171 Sc155 2.105 . S
O171 C161 1.268 . S
O172 Sc156 2.105 . S
O172 C163 1.268 . S
O173 Sc154 2.105 . S
O173 C159 1.268 . S
O174 Sc156 2.105 . S
O174 C158 1.268 . S
O175 Sc155 2.105 . S
O175 C160 1.268 . S
Sc176 O179 2.025 . S
Sc176 O186 2.105 . S
Sc176 O189 2.105 . S
Sc176 O192 2.105 . S
Sc176 O195 2.105 . S
Sc177 O179 2.025 . S
Sc177 O187 2.105 . S
Sc177 O191 2.105 . S
Sc177 O193 2.105 . S
Sc177 O197 2.105 1_554 S
Sc178 O179 2.025 . S
Sc178 O188 2.105 1_554 S
Sc178 O190 2.105 . S
Sc178 O194 2.105 . S
Sc178 O196 2.105 1_554 S
O179 Sc176 2.025 . S
O179 Sc177 2.025 . S
O179 Sc178 2.025 . S
C180 O186 1.268 1_556 S
C180 O196 1.268 . S
C181 O187 1.268 1_556 S
C181 O195 1.268 1_556 S
C182 O188 1.268 . S
C182 O197 1.268 . S
C183 O189 1.268 . S
C183 O193 1.268 . S
C184 O190 1.268 . S
C184 O192 1.268 . S
C185 O191 1.268 . S
C185 O194 1.268 . S
O186 Sc176 2.105 . S
O186 C180 1.268 1_554 S
O187 Sc177 2.105 . S
O187 C181 1.268 1_554 S
O188 Sc178 2.105 1_556 S
O188 C182 1.268 . S
O189 Sc176 2.105 . S
O189 C183 1.268 . S
O190 Sc178 2.105 . S
O190 C184 1.268 . S
O191 Sc177 2.105 . S
O191 C185 1.268 . S
O192 Sc176 2.105 . S
O192 C184 1.268 . S
O193 Sc177 2.105 . S
O193 C183 1.268 . S
O194 Sc178 2.105 . S
O194 C185 1.268 . S
O195 Sc176 2.105 . S
O195 C181 1.268 1_554 S
O196 Sc178 2.105 1_556 S
O196 C180 1.268 . S
O197 Sc177 2.105 1_556 S
O197 C182 1.268 . S
Sc198 O201 2.025 . S
Sc198 O208 2.105 . S
Sc198 O211 2.105 1_556 S
Sc198 O214 2.105 1_556 S
Sc198 O217 2.105 . S
Sc199 O201 2.025 . S
Sc199 O209 2.105 . S
Sc199 O213 2.105 . S
Sc199 O215 2.105 1_556 S
Sc199 O219 2.105 . S
Sc200 O201 2.025 . S
Sc200 O210 2.105 . S
Sc200 O212 2.105 . S
Sc200 O216 2.105 . S
Sc200 O218 2.105 . S
O201 Sc198 2.025 . S
O201 Sc199 2.025 . S
O201 Sc200 2.025 . S
C202 O208 1.268 . S
C202 O218 1.268 . S
C203 O209 1.268 . S
C203 O217 1.268 . S
C204 O210 1.268 . S
C204 O219 1.268 . S
C205 O211 1.268 . S
C205 O215 1.268 . S
C206 O212 1.268 1_554 S
C206 O214 1.268 . S
C207 O213 1.268 1_554 S
C207 O216 1.268 1_554 S
O208 Sc198 2.105 . S
O208 C202 1.268 . S
O209 Sc199 2.105 . S
O209 C203 1.268 . S
O210 Sc200 2.105 . S
O210 C204 1.268 . S
O211 Sc198 2.105 1_554 S
O211 C205 1.268 . S
O212 Sc200 2.105 . S
O212 C206 1.268 1_556 S
O213 Sc199 2.105 . S
O213 C207 1.268 1_556 S
O214 Sc198 2.105 1_554 S
O214 C206 1.268 . S
O215 Sc199 2.105 1_554 S
O215 C205 1.268 . S
O216 Sc200 2.105 . S
O216 C207 1.268 1_556 S
O217 Sc198 2.105 . S
O217 C203 1.268 . S
O218 Sc200 2.105 . S
O218 C202 1.268 . S
O219 Sc199 2.105 . S
O219 C204 1.268 . S
Sc220 O223 2.025 . S
Sc220 O230 2.105 . S
Sc220 O233 2.105 . S
Sc220 O236 2.105 . S
Sc220 O239 2.105 . S
Sc221 O223 2.025 . S
Sc221 O231 2.105 . S
Sc221 O235 2.105 . S
Sc221 O237 2.105 . S
Sc221 O241 2.105 . S
Sc222 O223 2.025 . S
Sc222 O232 2.105 . S
Sc222 O234 2.105 . S
Sc222 O238 2.105 . S
Sc222 O240 2.105 . S
O223 Sc220 2.025 . S
O223 Sc221 2.025 . S
O223 Sc222 2.025 . S
C224 O230 1.268 . S
C224 O240 1.268 . S
C225 O231 1.268 . S
C225 O239 1.268 . S
C226 O232 1.268 . S
C226 O241 1.268 . S
C227 O233 1.268 . S
C227 O237 1.268 . S
C228 O234 1.268 . S
C228 O236 1.268 . S
C229 O235 1.268 . S
C229 O238 1.268 . S
O230 Sc220 2.105 . S
O230 C224 1.268 . S
O231 Sc221 2.105 . S
O231 C225 1.268 . S
O232 Sc222 2.105 . S
O232 C226 1.268 . S
O233 Sc220 2.105 . S
O233 C227 1.268 . S
O234 Sc222 2.105 . S
O234 C228 1.268 . S
O235 Sc221 2.105 . S
O235 C229 1.268 . S
O236 Sc220 2.105 . S
O236 C228 1.268 . S
O237 Sc221 2.105 . S
O237 C227 1.268 . S
O238 Sc222 2.105 . S
O238 C229 1.268 . S
O239 Sc220 2.105 . S
O239 C225 1.268 . S
O240 Sc222 2.105 . S
O240 C224 1.268 . S
O241 Sc221 2.105 . S
O241 C226 1.268 . S
Sc242 O245 2.025 . S
Sc242 O252 2.105 . S
Sc242 O255 2.105 . S
Sc242 O258 2.105 . S
Sc242 O261 2.105 . S
Sc243 O245 2.025 . S
Sc243 O253 2.105 . S
Sc243 O257 2.105 . S
Sc243 O259 2.105 . S
Sc243 O263 2.105 . S
Sc244 O245 2.025 . S
Sc244 O254 2.105 . S
Sc244 O256 2.105 . S
Sc244 O260 2.105 . S
Sc244 O262 2.105 . S
O245 Sc242 2.025 . S
O245 Sc243 2.025 . S
O245 Sc244 2.025 . S
C246 O252 1.268 . S
C246 O262 1.268 . S
C247 O253 1.268 . S
C247 O261 1.268 . S
C248 O254 1.268 . S
C248 O263 1.268 . S
C249 O255 1.268 . S
C249 O259 1.268 . S
C250 O256 1.268 . S
C250 O258 1.268 . S
C251 O257 1.268 . S
C251 O260 1.268 . S
O252 Sc242 2.105 . S
O252 C246 1.268 . S
O253 Sc243 2.105 . S
O253 C247 1.268 . S
O254 Sc244 2.105 . S
O254 C248 1.268 . S
O255 Sc242 2.105 . S
O255 C249 1.268 . S
O256 Sc244 2.105 . S
O256 C250 1.268 . S
O257 Sc243 2.105 . S
O257 C251 1.268 . S
O258 Sc242 2.105 . S
O258 C250 1.268 . S
O259 Sc243 2.105 . S
O259 C249 1.268 . S
O260 Sc244 2.105 . S
O260 C251 1.268 . S
O261 Sc242 2.105 . S
O261 C247 1.268 . S
O262 Sc244 2.105 . S
O262 C246 1.268 . S
O263 Sc243 2.105 . S
O263 C248 1.268 . S
Sc264 O267 2.025 . S
Sc264 O274 2.105 1_655 S
Sc264 O277 2.105 . S
Sc264 O280 2.105 . S
Sc264 O283 2.105 1_655 S
Sc265 O267 2.025 . S
Sc265 O275 2.105 1_655 S
Sc265 O279 2.105 . S
Sc265 O281 2.105 . S
Sc265 O285 2.105 . S
Sc266 O267 2.025 . S
Sc266 O276 2.105 . S
Sc266 O278 2.105 . S
Sc266 O282 2.105 . S
Sc266 O284 2.105 . S
O267 Sc264 2.025 . S
O267 Sc265 2.025 . S
O267 Sc266 2.025 . S
C268 O274 1.268 . S
C268 O284 1.268 1_455 S
C269 O275 1.268 . S
C269 O283 1.268 . S
C270 O276 1.268 1_455 S
C270 O285 1.268 1_455 S
C271 O277 1.268 . S
C271 O281 1.268 . S
C272 O278 1.268 . S
C272 O280 1.268 . S
C273 O279 1.268 . S
C273 O282 1.268 . S
O274 Sc264 2.105 1_455 S
O274 C268 1.268 . S
O275 Sc265 2.105 1_455 S
O275 C269 1.268 . S
O276 Sc266 2.105 . S
O276 C270 1.268 1_655 S
O277 Sc264 2.105 . S
O277 C271 1.268 . S
O278 Sc266 2.105 . S
O278 C272 1.268 . S
O279 Sc265 2.105 . S
O279 C273 1.268 . S
O280 Sc264 2.105 . S
O280 C272 1.268 . S
O281 Sc265 2.105 . S
O281 C271 1.268 . S
O282 Sc266 2.105 . S
O282 C273 1.268 . S
O283 Sc264 2.105 1_455 S
O283 C269 1.268 . S
O284 Sc266 2.105 . S
O284 C268 1.268 1_655 S
O285 Sc265 2.105 . S
O285 C270 1.268 1_655 S
Sc286 O289 2.025 . S
Sc286 O296 2.105 . S
Sc286 O299 2.105 . S
Sc286 O302 2.105 . S
Sc286 O305 2.105 . S
Sc287 O289 2.025 . S
Sc287 O297 2.105 . S
Sc287 O301 2.105 . S
Sc287 O303 2.105 . S
Sc287 O307 2.105 . S
Sc288 O289 2.025 . S
Sc288 O298 2.105 . S
Sc288 O300 2.105 . S
Sc288 O304 2.105 . S
Sc288 O306 2.105 . S
O289 Sc286 2.025 . S
O289 Sc287 2.025 . S
O289 Sc288 2.025 . S
C290 O296 1.268 . S
C290 O306 1.268 . S
C291 O297 1.268 . S
C291 O305 1.268 . S
C292 O298 1.268 . S
C292 O307 1.268 . S
C293 O299 1.268 . S
C293 O303 1.268 . S
C294 O300 1.268 . S
C294 O302 1.268 . S
C295 O301 1.268 . S
C295 O304 1.268 . S
O296 Sc286 2.105 . S
O296 C290 1.268 . S
O297 Sc287 2.105 . S
O297 C291 1.268 . S
O298 Sc288 2.105 . S
O298 C292 1.268 . S
O299 Sc286 2.105 . S
O299 C293 1.268 . S
O300 Sc288 2.105 . S
O300 C294 1.268 . S
O301 Sc287 2.105 . S
O301 C295 1.268 . S
O302 Sc286 2.105 . S
O302 C294 1.268 . S
O303 Sc287 2.105 . S
O303 C293 1.268 . S
O304 Sc288 2.105 . S
O304 C295 1.268 . S
O305 Sc286 2.105 . S
O305 C291 1.268 . S
O306 Sc288 2.105 . S
O306 C290 1.268 . S
O307 Sc287 2.105 . S
O307 C292 1.268 . S
Sc308 O311 2.025 . S
Sc308 O318 2.105 . S
Sc308 O321 2.105 . S
Sc308 O324 2.105 . S
Sc308 O327 2.105 . S
Sc309 O311 2.025 . S
Sc309 O319 2.105 . S
Sc309 O323 2.105 . S
Sc309 O325 2.105 . S
Sc309 O329 2.105 . S
Sc310 O311 2.025 . S
Sc310 O320 2.105 . S
Sc310 O322 2.105 . S
Sc310 O326 2.105 . S
Sc310 O328 2.105 . S
O311 Sc308 2.025 . S
O311 Sc309 2.025 . S
O311 Sc310 2.025 . S
C312 O318 1.268 . S
C312 O328 1.268 . S
C313 O319 1.268 . S
C313 O327 1.268 . S
C314 O320 1.268 . S
C314 O329 1.268 . S
C315 O321 1.268 . S
C315 O325 1.268 . S
C316 O322 1.268 . S
C316 O324 1.268 . S
C317 O323 1.268 . S
C317 O326 1.268 . S
O318 Sc308 2.105 . S
O318 C312 1.268 . S
O319 Sc309 2.105 . S
O319 C313 1.268 . S
O320 Sc310 2.105 . S
O320 C314 1.268 . S
O321 Sc308 2.105 . S
O321 C315 1.268 . S
O322 Sc310 2.105 . S
O322 C316 1.268 . S
O323 Sc309 2.105 . S
O323 C317 1.268 . S
O324 Sc308 2.105 . S
O324 C316 1.268 . S
O325 Sc309 2.105 . S
O325 C315 1.268 . S
O326 Sc310 2.105 . S
O326 C317 1.268 . S
O327 Sc308 2.105 . S
O327 C313 1.268 . S
O328 Sc310 2.105 . S
O328 C312 1.268 . S
O329 Sc309 2.105 . S
O329 C314 1.268 . S
Sc330 O333 2.025 . S
Sc330 O340 2.105 1_455 S
Sc330 O343 2.105 . S
Sc330 O346 2.105 . S
Sc330 O349 2.105 1_455 S
Sc331 O333 2.025 . S
Sc331 O341 2.105 1_455 S
Sc331 O345 2.105 . S
Sc331 O347 2.105 . S
Sc331 O351 2.105 . S
Sc332 O333 2.025 . S
Sc332 O342 2.105 . S
Sc332 O344 2.105 . S
Sc332 O348 2.105 . S
Sc332 O350 2.105 . S
O333 Sc330 2.025 . S
O333 Sc331 2.025 . S
O333 Sc332 2.025 . S
C334 O340 1.268 . S
C334 O350 1.268 1_655 S
C335 O341 1.268 . S
C335 O349 1.268 . S
C336 O342 1.268 1_655 S
C336 O351 1.268 1_655 S
C337 O343 1.268 . S
C337 O347 1.268 . S
C338 O344 1.268 . S
C338 O346 1.268 . S
C339 O345 1.268 . S
C339 O348 1.268 . S
O340 Sc330 2.105 1_655 S
O340 C334 1.268 . S
O341 Sc331 2.105 1_655 S
O341 C335 1.268 . S
O342 Sc332 2.105 . S
O342 C336 1.268 1_455 S
O343 Sc330 2.105 . S
O343 C337 1.268 . S
O344 Sc332 2.105 . S
O344 C338 1.268 . S
O345 Sc331 2.105 . S
O345 C339 1.268 . S
O346 Sc330 2.105 . S
O346 C338 1.268 . S
O347 Sc331 2.105 . S
O347 C337 1.268 . S
O348 Sc332 2.105 . S
O348 C339 1.268 . S
O349 Sc330 2.105 1_655 S
O349 C335 1.268 . S
O350 Sc332 2.105 . S
O350 C334 1.268 1_455 S
O351 Sc331 2.105 . S
O351 C336 1.268 1_455 S
Sc352 O355 2.025 . S
Sc352 O362 2.105 . S
Sc352 O365 2.105 . S
Sc352 O368 2.105 . S
Sc352 O371 2.105 . S
Sc353 O355 2.025 . S
Sc353 O363 2.105 . S
Sc353 O367 2.105 1_565 S
Sc353 O369 2.105 . S
Sc353 O373 2.105 . S
Sc354 O355 2.025 . S
Sc354 O364 2.105 . S
Sc354 O366 2.105 1_565 S
Sc354 O370 2.105 1_565 S
Sc354 O372 2.105 . S
O355 Sc352 2.025 . S
O355 Sc353 2.025 . S
O355 Sc354 2.025 . S
C356 O362 1.268 . S
C356 O372 1.268 . S
C357 O363 1.268 . S
C357 O371 1.268 . S
C358 O364 1.268 . S
C358 O373 1.268 . S
C359 O365 1.268 1_545 S
C359 O369 1.268 1_545 S
C360 O366 1.268 . S
C360 O368 1.268 1_545 S
C361 O367 1.268 . S
C361 O370 1.268 . S
O362 Sc352 2.105 . S
O362 C356 1.268 . S
O363 Sc353 2.105 . S
O363 C357 1.268 . S
O364 Sc354 2.105 . S
O364 C358 1.268 . S
O365 Sc352 2.105 . S
O365 C359 1.268 1_565 S
O366 Sc354 2.105 1_545 S
O366 C360 1.268 . S
O367 Sc353 2.105 1_545 S
O367 C361 1.268 . S
O368 Sc352 2.105 . S
O368 C360 1.268 1_565 S
O369 Sc353 2.105 . S
O369 C359 1.268 1_565 S
O370 Sc354 2.105 1_545 S
O370 C361 1.268 . S
O371 Sc352 2.105 . S
O371 C357 1.268 . S
O372 Sc354 2.105 . S
O372 C356 1.268 . S
O373 Sc353 2.105 . S
O373 C358 1.268 . S
Sc374 O377 2.025 . S
Sc374 O384 2.105 1_545 S
Sc374 O387 2.105 . S
Sc374 O390 2.105 . S
Sc374 O393 2.105 1_545 S
Sc375 O377 2.025 . S
Sc375 O385 2.105 1_545 S
Sc375 O389 2.105 . S
Sc375 O391 2.105 . S
Sc375 O395 2.105 . S
Sc376 O377 2.025 . S
Sc376 O386 2.105 . S
Sc376 O388 2.105 . S
Sc376 O392 2.105 . S
Sc376 O394 2.105 . S
O377 Sc374 2.025 . S
O377 Sc375 2.025 . S
O377 Sc376 2.025 . S
C378 O384 1.268 . S
C378 O394 1.268 1_565 S
C379 O385 1.268 . S
C379 O393 1.268 . S
C380 O386 1.268 1_565 S
C380 O395 1.268 1_565 S
C381 O387 1.268 . S
C381 O391 1.268 . S
C382 O388 1.268 . S
C382 O390 1.268 . S
C383 O389 1.268 . S
C383 O392 1.268 . S
O384 Sc374 2.105 1_565 S
O384 C378 1.268 . S
O385 Sc375 2.105 1_565 S
O385 C379 1.268 . S
O386 Sc376 2.105 . S
O386 C380 1.268 1_545 S
O387 Sc374 2.105 . S
O387 C381 1.268 . S
O388 Sc376 2.105 . S
O388 C382 1.268 . S
O389 Sc375 2.105 . S
O389 C383 1.268 . S
O390 Sc374 2.105 . S
O390 C382 1.268 . S
O391 Sc375 2.105 . S
O391 C381 1.268 . S
O392 Sc376 2.105 . S
O392 C383 1.268 . S
O393 Sc374 2.105 1_565 S
O393 C379 1.268 . S
O394 Sc376 2.105 . S
O394 C378 1.268 1_545 S
O395 Sc375 2.105 . S
O395 C380 1.268 1_545 S
Sc396 O399 2.025 . S
Sc396 O406 2.105 . S
Sc396 O409 2.105 . S
Sc396 O412 2.105 . S
Sc396 O415 2.105 . S
Sc397 O399 2.025 . S
Sc397 O407 2.105 . S
Sc397 O411 2.105 . S
Sc397 O413 2.105 . S
Sc397 O417 2.105 . S
Sc398 O399 2.025 . S
Sc398 O408 2.105 . S
Sc398 O410 2.105 . S
Sc398 O414 2.105 . S
Sc398 O416 2.105 . S
O399 Sc396 2.025 . S
O399 Sc397 2.025 . S
O399 Sc398 2.025 . S
C400 O406 1.268 . S
C400 O416 1.268 . S
C401 O407 1.268 . S
C401 O415 1.268 . S
C402 O408 1.268 . S
C402 O417 1.268 . S
C403 O409 1.268 . S
C403 O413 1.268 . S
C404 O410 1.268 . S
C404 O412 1.268 . S
C405 O411 1.268 . S
C405 O414 1.268 . S
O406 Sc396 2.105 . S
O406 C400 1.268 . S
O407 Sc397 2.105 . S
O407 C401 1.268 . S
O408 Sc398 2.105 . S
O408 C402 1.268 . S
O409 Sc396 2.105 . S
O409 C403 1.268 . S
O410 Sc398 2.105 . S
O410 C404 1.268 . S
O411 Sc397 2.105 . S
O411 C405 1.268 . S
O412 Sc396 2.105 . S
O412 C404 1.268 . S
O413 Sc397 2.105 . S
O413 C403 1.268 . S
O414 Sc398 2.105 . S
O414 C405 1.268 . S
O415 Sc396 2.105 . S
O415 C401 1.268 . S
O416 Sc398 2.105 . S
O416 C400 1.268 . S
O417 Sc397 2.105 . S
O417 C402 1.268 . S
Sc418 O421 2.025 . S
Sc418 O428 2.105 . S
Sc418 O431 2.105 . S
Sc418 O434 2.105 . S
Sc418 O437 2.105 . S
Sc419 O421 2.025 . S
Sc419 O429 2.105 . S
Sc419 O433 2.105 . S
Sc419 O435 2.105 . S
Sc419 O439 2.105 . S
Sc420 O421 2.025 . S
Sc420 O430 2.105 . S
Sc420 O432 2.105 . S
Sc420 O436 2.105 . S
Sc420 O438 2.105 . S
O421 Sc418 2.025 . S
O421 Sc419 2.025 . S
O421 Sc420 2.025 . S
C422 O428 1.268 . S
C422 O438 1.268 . S
C423 O429 1.268 . S
C423 O437 1.268 . S
C424 O430 1.268 . S
C424 O439 1.268 . S
C425 O431 1.268 . S
C425 O435 1.268 . S
C426 O432 1.268 . S
C426 O434 1.268 . S
C427 O433 1.268 . S
C427 O436 1.268 . S
O428 Sc418 2.105 . S
O428 C422 1.268 . S
O429 Sc419 2.105 . S
O429 C423 1.268 . S
O430 Sc420 2.105 . S
O430 C424 1.268 . S
O431 Sc418 2.105 . S
O431 C425 1.268 . S
O432 Sc420 2.105 . S
O432 C426 1.268 . S
O433 Sc419 2.105 . S
O433 C427 1.268 . S
O434 Sc418 2.105 . S
O434 C426 1.268 . S
O435 Sc419 2.105 . S
O435 C425 1.268 . S
O436 Sc420 2.105 . S
O436 C427 1.268 . S
O437 Sc418 2.105 . S
O437 C423 1.268 . S
O438 Sc420 2.105 . S
O438 C422 1.268 . S
O439 Sc419 2.105 . S
O439 C424 1.268 . S
Sc440 O443 2.025 . S
Sc440 O450 2.105 . S
Sc440 O453 2.105 . S
Sc440 O456 2.105 . S
Sc440 O459 2.105 . S
Sc441 O443 2.025 . S
Sc441 O451 2.105 . S
Sc441 O455 2.105 1_556 S
Sc441 O457 2.105 . S
Sc441 O461 2.105 . S
Sc442 O443 2.025 . S
Sc442 O452 2.105 . S
Sc442 O454 2.105 1_556 S
Sc442 O458 2.105 1_556 S
Sc442 O460 2.105 . S
O443 Sc440 2.025 . S
O443 Sc441 2.025 . S
O443 Sc442 2.025 . S
C444 O450 1.268 . S
C444 O460 1.268 . S
C445 O451 1.268 . S
C445 O459 1.268 . S
C446 O452 1.268 . S
C446 O461 1.268 . S
C447 O453 1.268 1_554 S
C447 O457 1.268 1_554 S
C448 O454 1.268 . S
C448 O456 1.268 1_554 S
C449 O455 1.268 . S
C449 O458 1.268 . S
O450 Sc440 2.105 . S
O450 C444 1.268 . S
O451 Sc441 2.105 . S
O451 C445 1.268 . S
O452 Sc442 2.105 . S
O452 C446 1.268 . S
O453 Sc440 2.105 . S
O453 C447 1.268 1_556 S
O454 Sc442 2.105 1_554 S
O454 C448 1.268 . S
O455 Sc441 2.105 1_554 S
O455 C449 1.268 . S
O456 Sc440 2.105 . S
O456 C448 1.268 1_556 S
O457 Sc441 2.105 . S
O457 C447 1.268 1_556 S
O458 Sc442 2.105 1_554 S
O458 C449 1.268 . S
O459 Sc440 2.105 . S
O459 C445 1.268 . S
O460 Sc442 2.105 . S
O460 C444 1.268 . S
O461 Sc441 2.105 . S
O461 C446 1.268 . S
Sc462 O465 2.025 . S
Sc462 O472 2.105 1_554 S
Sc462 O475 2.105 . S
Sc462 O478 2.105 . S
Sc462 O481 2.105 1_554 S
Sc463 O465 2.025 . S
Sc463 O473 2.105 1_554 S
Sc463 O477 2.105 . S
Sc463 O479 2.105 . S
Sc463 O483 2.105 . S
Sc464 O465 2.025 . S
Sc464 O474 2.105 . S
Sc464 O476 2.105 . S
Sc464 O480 2.105 . S
Sc464 O482 2.105 . S
O465 Sc462 2.025 . S
O465 Sc463 2.025 . S
O465 Sc464 2.025 . S
C466 O472 1.268 . S
C466 O482 1.268 1_556 S
C467 O473 1.268 . S
C467 O481 1.268 . S
C468 O474 1.268 1_556 S
C468 O483 1.268 1_556 S
C469 O475 1.268 . S
C469 O479 1.268 . S
C470 O476 1.268 . S
C470 O478 1.268 . S
C471 O477 1.268 . S
C471 O480 1.268 . S
O472 Sc462 2.105 1_556 S
O472 C466 1.268 . S
O473 Sc463 2.105 1_556 S
O473 C467 1.268 . S
O474 Sc464 2.105 . S
O474 C468 1.268 1_554 S
O475 Sc462 2.105 . S
O475 C469 1.268 . S
O476 Sc464 2.105 . S
O476 C470 1.268 . S
O477 Sc463 2.105 . S
O477 C471 1.268 . S
O478 Sc462 2.105 . S
O478 C470 1.268 . S
O479 Sc463 2.105 . S
O479 C469 1.268 . S
O480 Sc464 2.105 . S
O480 C471 1.268 . S
O481 Sc462 2.105 1_556 S
O481 C467 1.268 . S
O482 Sc464 2.105 . S
O482 C466 1.268 1_554 S
O483 Sc463 2.105 . S
O483 C468 1.268 1_554 S
Sc484 O487 2.025 . S
Sc484 O494 2.105 . S
Sc484 O497 2.105 . S
Sc484 O500 2.105 . S
Sc484 O503 2.105 . S
Sc485 O487 2.025 . S
Sc485 O495 2.105 . S
Sc485 O499 2.105 . S
Sc485 O501 2.105 . S
Sc485 O505 2.105 . S
Sc486 O487 2.025 . S
Sc486 O496 2.105 . S
Sc486 O498 2.105 . S
Sc486 O502 2.105 . S
Sc486 O504 2.105 . S
O487 Sc484 2.025 . S
O487 Sc485 2.025 . S
O487 Sc486 2.025 . S
C488 O494 1.268 . S
C488 O504 1.268 . S
C489 O495 1.268 . S
C489 O503 1.268 . S
C490 O496 1.268 . S
C490 O505 1.268 . S
C491 O497 1.268 . S
C491 O501 1.268 . S
C492 O498 1.268 . S
C492 O500 1.268 . S
C493 O499 1.268 . S
C493 O502 1.268 . S
O494 Sc484 2.105 . S
O494 C488 1.268 . S
O495 Sc485 2.105 . S
O495 C489 1.268 . S
O496 Sc486 2.105 . S
O496 C490 1.268 . S
O497 Sc484 2.105 . S
O497 C491 1.268 . S
O498 Sc486 2.105 . S
O498 C492 1.268 . S
O499 Sc485 2.105 . S
O499 C493 1.268 . S
O500 Sc484 2.105 . S
O500 C492 1.268 . S
O501 Sc485 2.105 . S
O501 C491 1.268 . S
O502 Sc486 2.105 . S
O502 C493 1.268 . S
O503 Sc484 2.105 . S
O503 C489 1.268 . S
O504 Sc486 2.105 . S
O504 C488 1.268 . S
O505 Sc485 2.105 . S
O505 C490 1.268 . S
Sc506 O509 2.025 . S
Sc506 O516 2.105 . S
Sc506 O519 2.105 . S
Sc506 O522 2.105 . S
Sc506 O525 2.105 . S
Sc507 O509 2.025 . S
Sc507 O517 2.105 . S
Sc507 O521 2.105 . S
Sc507 O523 2.105 . S
Sc507 O527 2.105 . S
Sc508 O509 2.025 . S
Sc508 O518 2.105 . S
Sc508 O520 2.105 . S
Sc508 O524 2.105 . S
Sc508 O526 2.105 . S
O509 Sc506 2.025 . S
O509 Sc507 2.025 . S
O509 Sc508 2.025 . S
C510 O516 1.268 . S
C510 O526 1.268 . S
C511 O517 1.268 . S
C511 O525 1.268 . S
C512 O518 1.268 . S
C512 O527 1.268 . S
C513 O519 1.268 . S
C513 O523 1.268 . S
C514 O520 1.268 . S
C514 O522 1.268 . S
C515 O521 1.268 . S
C515 O524 1.268 . S
O516 Sc506 2.105 . S
O516 C510 1.268 . S
O517 Sc507 2.105 . S
O517 C511 1.268 . S
O518 Sc508 2.105 . S
O518 C512 1.268 . S
O519 Sc506 2.105 . S
O519 C513 1.268 . S
O520 Sc508 2.105 . S
O520 C514 1.268 . S
O521 Sc507 2.105 . S
O521 C515 1.268 . S
O522 Sc506 2.105 . S
O522 C514 1.268 . S
O523 Sc507 2.105 . S
O523 C513 1.268 . S
O524 Sc508 2.105 . S
O524 C515 1.268 . S
O525 Sc506 2.105 . S
O525 C511 1.268 . S
O526 Sc508 2.105 . S
O526 C510 1.268 . S
O527 Sc507 2.105 . S
O527 C512 1.268 . S
C528 C529 1.387 . S
C528 H532 0.950 . S
C528 C537 1.390 . S
C529 C528 1.387 . S
C529 C531 1.387 . S
H530 C537 0.950 . S
C531 C529 1.387 . S
C531 C533 1.390 . S
C531 H535 0.950 . S
H532 C528 0.950 . S
C533 C531 1.390 . S
C533 C534 1.387 . S
C533 H536 0.950 . S
C534 C533 1.387 . S
C534 C537 1.387 . S
H535 C531 0.950 . S
H536 C533 0.950 . S
C537 C528 1.390 . S
C537 H530 0.950 . S
C537 C534 1.387 . S
C538 C539 1.387 . S
C538 H542 0.950 . S
C538 C547 1.390 . S
C539 C538 1.387 . S
C539 C541 1.387 . S
H540 C547 0.950 . S
C541 C539 1.387 . S
C541 C543 1.390 . S
C541 H545 0.950 . S
H542 C538 0.950 . S
C543 C541 1.390 . S
C543 C544 1.387 . S
C543 H546 0.950 . S
C544 C543 1.387 . S
C544 C547 1.387 . S
H545 C541 0.950 . S
H546 C543 0.950 . S
C547 C538 1.390 . S
C547 H540 0.950 . S
C547 C544 1.387 . S
C548 C549 1.387 . S
C548 H552 0.950 . S
C548 C557 1.390 . S
C549 C548 1.387 . S
C549 C551 1.387 . S
H550 C557 0.950 . S
C551 C549 1.387 . S
C551 C553 1.390 . S
C551 H555 0.950 . S
H552 C548 0.950 . S
C553 C551 1.390 . S
C553 C554 1.387 . S
C553 H556 0.950 . S
C554 C553 1.387 . S
C554 C557 1.387 . S
H555 C551 0.950 . S
H556 C553 0.950 . S
C557 C548 1.390 . S
C557 H550 0.950 . S
C557 C554 1.387 . S
C558 C559 1.387 . S
C558 H562 0.950 . S
C558 C567 1.390 . S
C559 C558 1.387 . S
C559 C561 1.387 . S
H560 C567 0.950 . S
C561 C559 1.387 . S
C561 C563 1.390 . S
C561 H565 0.950 . S
H562 C558 0.950 . S
C563 C561 1.390 . S
C563 C564 1.387 . S
C563 H566 0.950 . S
C564 C563 1.387 . S
C564 C567 1.387 . S
H565 C561 0.950 . S
H566 C563 0.950 . S
C567 C558 1.390 . S
C567 H560 0.950 . S
C567 C564 1.387 . S
C568 C569 1.387 . S
C568 H572 0.950 . S
C568 C577 1.390 . S
C569 C568 1.387 . S
C569 C571 1.387 . S
H570 C577 0.950 . S
C571 C569 1.387 . S
C571 C573 1.390 . S
C571 H575 0.950 . S
H572 C568 0.950 . S
C573 C571 1.390 . S
C573 C574 1.387 . S
C573 H576 0.950 . S
C574 C573 1.387 . S
C574 C577 1.387 . S
H575 C571 0.950 . S
H576 C573 0.950 . S
C577 C568 1.390 . S
C577 H570 0.950 . S
C577 C574 1.387 . S
C578 C579 1.387 . S
C578 H582 0.950 . S
C578 C587 1.390 . S
C579 C578 1.387 . S
C579 C581 1.387 . S
H580 C587 0.950 . S
C581 C579 1.387 . S
C581 C583 1.390 . S
C581 H585 0.950 . S
H582 C578 0.950 . S
C583 C581 1.390 . S
C583 C584 1.387 . S
C583 H586 0.950 . S
C584 C583 1.387 . S
C584 C587 1.387 . S
H585 C581 0.950 . S
H586 C583 0.950 . S
C587 C578 1.390 . S
C587 H580 0.950 . S
C587 C584 1.387 . S
C588 C589 1.387 . S
C588 H592 0.950 . S
C588 C597 1.390 . S
C589 C588 1.387 . S
C589 C591 1.387 . S
H590 C597 0.950 . S
C591 C589 1.387 . S
C591 C593 1.390 . S
C591 H595 0.950 . S
H592 C588 0.950 . S
C593 C591 1.390 . S
C593 C594 1.387 . S
C593 H596 0.950 . S
C594 C593 1.387 . S
C594 C597 1.387 . S
H595 C591 0.950 . S
H596 C593 0.950 . S
C597 C588 1.390 . S
C597 H590 0.950 . S
C597 C594 1.387 . S
C598 C599 1.387 . S
C598 H602 0.950 . S
C598 C607 1.390 . S
C599 C598 1.387 . S
C599 C601 1.387 . S
H600 C607 0.950 . S
C601 C599 1.387 . S
C601 C603 1.390 . S
C601 H605 0.950 . S
H602 C598 0.950 . S
C603 C601 1.390 . S
C603 C604 1.387 . S
C603 H606 0.950 . S
C604 C603 1.387 . S
C604 C607 1.387 . S
H605 C601 0.950 . S
H606 C603 0.950 . S
C607 C598 1.390 . S
C607 H600 0.950 . S
C607 C604 1.387 . S
C608 C609 1.387 . S
C608 H612 0.950 . S
C608 C617 1.390 . S
C609 C608 1.387 . S
C609 C611 1.387 . S
H610 C617 0.950 . S
C611 C609 1.387 . S
C611 C613 1.390 . S
C611 H615 0.950 . S
H612 C608 0.950 . S
C613 C611 1.390 . S
C613 C614 1.387 . S
C613 H616 0.950 . S
C614 C613 1.387 . S
C614 C617 1.387 . S
H615 C611 0.950 . S
H616 C613 0.950 . S
C617 C608 1.390 . S
C617 H610 0.950 . S
C617 C614 1.387 . S
C618 C619 1.387 . S
C618 H622 0.950 . S
C618 C627 1.390 . S
C619 C618 1.387 . S
C619 C621 1.387 . S
H620 C627 0.950 . S
C621 C619 1.387 . S
C621 C623 1.390 . S
C621 H625 0.950 . S
H622 C618 0.950 . S
C623 C621 1.390 . S
C623 C624 1.387 . S
C623 H626 0.950 . S
C624 C623 1.387 . S
C624 C627 1.387 . S
H625 C621 0.950 . S
H626 C623 0.950 . S
C627 C618 1.390 . S
C627 H620 0.950 . S
C627 C624 1.387 . S
C628 C629 1.387 . S
C628 H632 0.950 . S
C628 C637 1.390 . S
C629 C628 1.387 . S
C629 C631 1.387 . S
H630 C637 0.950 . S
C631 C629 1.387 . S
C631 C633 1.390 . S
C631 H635 0.950 . S
H632 C628 0.950 . S
C633 C631 1.390 . S
C633 C634 1.387 . S
C633 H636 0.950 . S
C634 C633 1.387 . S
C634 C637 1.387 . S
H635 C631 0.950 . S
H636 C633 0.950 . S
C637 C628 1.390 . S
C637 H630 0.950 . S
C637 C634 1.387 . S
C638 C639 1.387 . S
C638 H642 0.950 . S
C638 C647 1.390 . S
C639 C638 1.387 . S
C639 C641 1.387 . S
H640 C647 0.950 . S
C641 C639 1.387 . S
C641 C643 1.390 . S
C641 H645 0.950 . S
H642 C638 0.950 . S
C643 C641 1.390 . S
C643 C644 1.387 . S
C643 H646 0.950 . S
C644 C643 1.387 . S
C644 C647 1.387 . S
H645 C641 0.950 . S
H646 C643 0.950 . S
C647 C638 1.390 . S
C647 H640 0.950 . S
C647 C644 1.387 . S
C648 C649 1.387 . S
C648 H652 0.950 . S
C648 C657 1.390 . S
C649 C648 1.387 . S
C649 C651 1.387 . S
H650 C657 0.950 . S
C651 C649 1.387 . S
C651 C653 1.390 . S
C651 H655 0.950 . S
H652 C648 0.950 . S
C653 C651 1.390 . S
C653 C654 1.387 . S
C653 H656 0.950 . S
C654 C653 1.387 . S
C654 C657 1.387 . S
H655 C651 0.950 . S
H656 C653 0.950 . S
C657 C648 1.390 . S
C657 H650 0.950 . S
C657 C654 1.387 . S
C658 C659 1.387 . S
C658 H662 0.950 . S
C658 C667 1.390 . S
C659 C658 1.387 . S
C659 C661 1.387 . S
H660 C667 0.950 . S
C661 C659 1.387 . S
C661 C663 1.390 . S
C661 H665 0.950 . S
H662 C658 0.950 . S
C663 C661 1.390 . S
C663 C664 1.387 . S
C663 H666 0.950 . S
C664 C663 1.387 . S
C664 C667 1.387 . S
H665 C661 0.950 . S
H666 C663 0.950 . S
C667 C658 1.390 . S
C667 H660 0.950 . S
C667 C664 1.387 . S
C668 C669 1.387 . S
C668 H672 0.950 . S
C668 C677 1.390 . S
C669 C668 1.387 . S
C669 C671 1.387 . S
H670 C677 0.950 . S
C671 C669 1.387 . S
C671 C673 1.390 . S
C671 H675 0.950 . S
H672 C668 0.950 . S
C673 C671 1.390 . S
C673 C674 1.387 . S
C673 H676 0.950 . S
C674 C673 1.387 . S
C674 C677 1.387 . S
H675 C671 0.950 . S
H676 C673 0.950 . S
C677 C668 1.390 . S
C677 H670 0.950 . S
C677 C674 1.387 . S
C678 C679 1.387 . S
C678 H682 0.950 . S
C678 C687 1.390 . S
C679 C678 1.387 . S
C679 C681 1.387 . S
H680 C687 0.950 . S
C681 C679 1.387 . S
C681 C683 1.390 . S
C681 H685 0.950 . S
H682 C678 0.950 . S
C683 C681 1.390 . S
C683 C684 1.387 . S
C683 H686 0.950 . S
C684 C683 1.387 . S
C684 C687 1.387 . S
H685 C681 0.950 . S
H686 C683 0.950 . S
C687 C678 1.390 . S
C687 H680 0.950 . S
C687 C684 1.387 . S
C688 C689 1.387 . S
C688 H692 0.950 . S
C688 C697 1.390 . S
C689 C688 1.387 . S
C689 C691 1.387 . S
H690 C697 0.950 . S
C691 C689 1.387 . S
C691 C693 1.390 . S
C691 H695 0.950 . S
H692 C688 0.950 . S
C693 C691 1.390 . S
C693 C694 1.387 . S
C693 H696 0.950 . S
C694 C693 1.387 . S
C694 C697 1.387 . S
H695 C691 0.950 . S
H696 C693 0.950 . S
C697 C688 1.390 . S
C697 H690 0.950 . S
C697 C694 1.387 . S
C698 C699 1.387 . S
C698 H702 0.950 . S
C698 C707 1.390 . S
C699 C698 1.387 . S
C699 C701 1.387 . S
H700 C707 0.950 . S
C701 C699 1.387 . S
C701 C703 1.390 . S
C701 H705 0.950 . S
H702 C698 0.950 . S
C703 C701 1.390 . S
C703 C704 1.387 . S
C703 H706 0.950 . S
C704 C703 1.387 . S
C704 C707 1.387 . S
H705 C701 0.950 . S
H706 C703 0.950 . S
C707 C698 1.390 . S
C707 H700 0.950 . S
C707 C704 1.387 . S
C708 C709 1.387 . S
C708 H712 0.950 . S
C708 C717 1.390 . S
C709 C708 1.387 . S
C709 C711 1.387 . S
H710 C717 0.950 . S
C711 C709 1.387 . S
C711 C713 1.390 . S
C711 H715 0.950 . S
H712 C708 0.950 . S
C713 C711 1.390 . S
C713 C714 1.387 . S
C713 H716 0.950 . S
C714 C713 1.387 . S
C714 C717 1.387 . S
H715 C711 0.950 . S
H716 C713 0.950 . S
C717 C708 1.390 . S
C717 H710 0.950 . S
C717 C714 1.387 . S
C718 C719 1.387 . S
C718 H722 0.950 . S
C718 C727 1.390 . S
C719 C718 1.387 . S
C719 C721 1.387 . S
H720 C727 0.950 . S
C721 C719 1.387 . S
C721 C723 1.390 . S
C721 H725 0.950 . S
H722 C718 0.950 . S
C723 C721 1.390 . S
C723 C724 1.387 . S
C723 H726 0.950 . S
C724 C723 1.387 . S
C724 C727 1.387 . S
H725 C721 0.950 . S
H726 C723 0.950 . S
C727 C718 1.390 . S
C727 H720 0.950 . S
C727 C724 1.387 . S
C728 C729 1.387 . S
C728 H732 0.950 . S
C728 C737 1.390 . S
C729 C728 1.387 . S
C729 C731 1.387 . S
H730 C737 0.950 . S
C731 C729 1.387 . S
C731 C733 1.390 . S
C731 H735 0.950 . S
H732 C728 0.950 . S
C733 C731 1.390 . S
C733 C734 1.387 . S
C733 H736 0.950 . S
C734 C733 1.387 . S
C734 C737 1.387 . S
H735 C731 0.950 . S
H736 C733 0.950 . S
C737 C728 1.390 . S
C737 H730 0.950 . S
C737 C734 1.387 . S
C738 C739 1.387 . S
C738 H742 0.950 . S
C738 C747 1.390 . S
C739 C738 1.387 . S
C739 C741 1.387 . S
H740 C747 0.950 . S
C741 C739 1.387 . S
C741 C743 1.390 . S
C741 H745 0.950 . S
H742 C738 0.950 . S
C743 C741 1.390 . S
C743 C744 1.387 . S
C743 H746 0.950 . S
C744 C743 1.387 . S
C744 C747 1.387 . S
H745 C741 0.950 . S
H746 C743 0.950 . S
C747 C738 1.390 . S
C747 H740 0.950 . S
C747 C744 1.387 . S
C748 C749 1.387 . S
C748 H752 0.950 . S
C748 C757 1.390 . S
C749 C748 1.387 . S
C749 C751 1.387 . S
H750 C757 0.950 . S
C751 C749 1.387 . S
C751 C753 1.390 . S
C751 H755 0.950 . S
H752 C748 0.950 . S
C753 C751 1.390 . S
C753 C754 1.387 . S
C753 H756 0.950 . S
C754 C753 1.387 . S
C754 C757 1.387 . S
H755 C751 0.950 . S
H756 C753 0.950 . S
C757 C748 1.390 . S
C757 H750 0.950 . S
C757 C754 1.387 . S
C758 C759 1.387 . S
C758 H762 0.950 . S
C758 C767 1.390 . S
C759 C758 1.387 . S
C759 C761 1.387 . S
H760 C767 0.950 . S
C761 C759 1.387 . S
C761 C763 1.390 . S
C761 H765 0.950 . S
H762 C758 0.950 . S
C763 C761 1.390 . S
C763 C764 1.387 . S
C763 H766 0.950 . S
C764 C763 1.387 . S
C764 C767 1.387 . S
H765 C761 0.950 . S
H766 C763 0.950 . S
C767 C758 1.390 . S
C767 H760 0.950 . S
C767 C764 1.387 . S
C768 C769 1.387 . S
C768 H772 0.950 . S
C768 C777 1.390 . S
C769 C768 1.387 . S
C769 C771 1.387 . S
H770 C777 0.950 . S
C771 C769 1.387 . S
C771 C773 1.390 . S
C771 H775 0.950 . S
H772 C768 0.950 . S
C773 C771 1.390 . S
C773 C774 1.387 . S
C773 H776 0.950 . S
C774 C773 1.387 . S
C774 C777 1.387 . S
H775 C771 0.950 . S
H776 C773 0.950 . S
C777 C768 1.390 . S
C777 H770 0.950 . S
C777 C774 1.387 . S
C778 C779 1.387 . S
C778 H782 0.950 . S
C778 C787 1.390 . S
C779 C778 1.387 . S
C779 C781 1.387 . S
H780 C787 0.950 . S
C781 C779 1.387 . S
C781 C783 1.390 . S
C781 H785 0.950 . S
H782 C778 0.950 . S
C783 C781 1.390 . S
C783 C784 1.387 . S
C783 H786 0.950 . S
C784 C783 1.387 . S
C784 C787 1.387 . S
H785 C781 0.950 . S
H786 C783 0.950 . S
C787 C778 1.390 . S
C787 H780 0.950 . S
C787 C784 1.387 . S
C788 C789 1.387 . S
C788 H792 0.950 . S
C788 C797 1.390 . S
C789 C788 1.387 . S
C789 C791 1.387 . S
H790 C797 0.950 . S
C791 C789 1.387 . S
C791 C793 1.390 . S
C791 H795 0.950 . S
H792 C788 0.950 . S
C793 C791 1.390 . S
C793 C794 1.387 . S
C793 H796 0.950 . S
C794 C793 1.387 . S
C794 C797 1.387 . S
H795 C791 0.950 . S
H796 C793 0.950 . S
C797 C788 1.390 . S
C797 H790 0.950 . S
C797 C794 1.387 . S
C798 C799 1.387 . S
C798 H802 0.950 . S
C798 C807 1.390 . S
C799 C798 1.387 . S
C799 C801 1.387 . S
H800 C807 0.950 . S
C801 C799 1.387 . S
C801 C803 1.390 . S
C801 H805 0.950 . S
H802 C798 0.950 . S
C803 C801 1.390 . S
C803 C804 1.387 . S
C803 H806 0.950 . S
C804 C803 1.387 . S
C804 C807 1.387 . S
H805 C801 0.950 . S
H806 C803 0.950 . S
C807 C798 1.390 . S
C807 H800 0.950 . S
C807 C804 1.387 . S
C808 C809 1.387 . S
C808 H812 0.950 . S
C808 C817 1.390 . S
C809 C808 1.387 . S
C809 C811 1.387 . S
H810 C817 0.950 . S
C811 C809 1.387 . S
C811 C813 1.390 . S
C811 H815 0.950 . S
H812 C808 0.950 . S
C813 C811 1.390 . S
C813 C814 1.387 . S
C813 H816 0.950 . S
C814 C813 1.387 . S
C814 C817 1.387 . S
H815 C811 0.950 . S
H816 C813 0.950 . S
C817 C808 1.390 . S
C817 H810 0.950 . S
C817 C814 1.387 . S
C818 C819 1.387 . S
C818 H822 0.950 . S
C818 C827 1.390 . S
C819 C818 1.387 . S
C819 C821 1.387 . S
H820 C827 0.950 . S
C821 C819 1.387 . S
C821 C823 1.390 . S
C821 H825 0.950 . S
H822 C818 0.950 . S
C823 C821 1.390 . S
C823 C824 1.387 . S
C823 H826 0.950 . S
C824 C823 1.387 . S
C824 C827 1.387 . S
H825 C821 0.950 . S
H826 C823 0.950 . S
C827 C818 1.390 . S
C827 H820 0.950 . S
C827 C824 1.387 . S
C828 C829 1.387 . S
C828 H832 0.950 . S
C828 C837 1.390 . S
C829 C828 1.387 . S
C829 C831 1.387 . S
H830 C837 0.950 . S
C831 C829 1.387 . S
C831 C833 1.390 . S
C831 H835 0.950 . S
H832 C828 0.950 . S
C833 C831 1.390 . S
C833 C834 1.387 . S
C833 H836 0.950 . S
C834 C833 1.387 . S
C834 C837 1.387 . S
H835 C831 0.950 . S
H836 C833 0.950 . S
C837 C828 1.390 . S
C837 H830 0.950 . S
C837 C834 1.387 . S
C838 C839 1.387 . S
C838 H842 0.950 . S
C838 C847 1.390 . S
C839 C838 1.387 . S
C839 C841 1.387 . S
H840 C847 0.950 . S
C841 C839 1.387 . S
C841 C843 1.390 . S
C841 H845 0.950 . S
H842 C838 0.950 . S
C843 C841 1.390 . S
C843 C844 1.387 . S
C843 H846 0.950 . S
C844 C843 1.387 . S
C844 C847 1.387 . S
H845 C841 0.950 . S
H846 C843 0.950 . S
C847 C838 1.390 . S
C847 H840 0.950 . S
C847 C844 1.387 . S
C848 C849 1.387 . S
C848 H852 0.950 . S
C848 C857 1.390 . S
C849 C848 1.387 . S
C849 C851 1.387 . S
H850 C857 0.950 . S
C851 C849 1.387 . S
C851 C853 1.390 . S
C851 H855 0.950 . S
H852 C848 0.950 . S
C853 C851 1.390 . S
C853 C854 1.387 . S
C853 H856 0.950 . S
C854 C853 1.387 . S
C854 C857 1.387 . S
H855 C851 0.950 . S
H856 C853 0.950 . S
C857 C848 1.390 . S
C857 H850 0.950 . S
C857 C854 1.387 . S
C858 C859 1.387 . S
C858 H862 0.950 . S
C858 C867 1.390 . S
C859 C858 1.387 . S
C859 C861 1.387 . S
H860 C867 0.950 . S
C861 C859 1.387 . S
C861 C863 1.390 . S
C861 H865 0.950 . S
H862 C858 0.950 . S
C863 C861 1.390 . S
C863 C864 1.387 . S
C863 H866 0.950 . S
C864 C863 1.387 . S
C864 C867 1.387 . S
H865 C861 0.950 . S
H866 C863 0.950 . S
C867 C858 1.390 . S
C867 H860 0.950 . S
C867 C864 1.387 . S
C868 C869 1.387 . S
C868 H872 0.950 . S
C868 C877 1.390 . S
C869 C868 1.387 . S
C869 C871 1.387 . S
H870 C877 0.950 . S
C871 C869 1.387 . S
C871 C873 1.390 . S
C871 H875 0.950 . S
H872 C868 0.950 . S
C873 C871 1.390 . S
C873 C874 1.387 . S
C873 H876 0.950 . S
C874 C873 1.387 . S
C874 C877 1.387 . S
H875 C871 0.950 . S
H876 C873 0.950 . S
C877 C868 1.390 . S
C877 H870 0.950 . S
C877 C874 1.387 . S
C878 C879 1.387 . S
C878 H882 0.950 . S
C878 C887 1.390 . S
C879 C878 1.387 . S
C879 C881 1.387 . S
H880 C887 0.950 . S
C881 C879 1.387 . S
C881 C883 1.390 . S
C881 H885 0.950 . S
H882 C878 0.950 . S
C883 C881 1.390 . S
C883 C884 1.387 . S
C883 H886 0.950 . S
C884 C883 1.387 . S
C884 C887 1.387 . S
H885 C881 0.950 . S
H886 C883 0.950 . S
C887 C878 1.390 . S
C887 H880 0.950 . S
C887 C884 1.387 . S
C888 C889 1.387 . S
C888 H892 0.950 . S
C888 C897 1.390 . S
C889 C888 1.387 . S
C889 C891 1.387 . S
H890 C897 0.950 . S
C891 C889 1.387 . S
C891 C893 1.390 . S
C891 H895 0.950 . S
H892 C888 0.950 . S
C893 C891 1.390 . S
C893 C894 1.387 . S
C893 H896 0.950 . S
C894 C893 1.387 . S
C894 C897 1.387 . S
H895 C891 0.950 . S
H896 C893 0.950 . S
C897 C888 1.390 . S
C897 H890 0.950 . S
C897 C894 1.387 . S
C898 C899 1.387 . S
C898 H902 0.950 . S
C898 C907 1.390 . S
C899 C898 1.387 . S
C899 C901 1.387 . S
H900 C907 0.950 . S
C901 C899 1.387 . S
C901 C903 1.390 . S
C901 H905 0.950 . S
H902 C898 0.950 . S
C903 C901 1.390 . S
C903 C904 1.387 . S
C903 H906 0.950 . S
C904 C903 1.387 . S
C904 C907 1.387 . S
H905 C901 0.950 . S
H906 C903 0.950 . S
C907 C898 1.390 . S
C907 H900 0.950 . S
C907 C904 1.387 . S
C908 C909 1.387 . S
C908 H912 0.950 . S
C908 C917 1.390 . S
C909 C908 1.387 . S
C909 C911 1.387 . S
H910 C917 0.950 . S
C911 C909 1.387 . S
C911 C913 1.390 . S
C911 H915 0.950 . S
H912 C908 0.950 . S
C913 C911 1.390 . S
C913 C914 1.387 . S
C913 H916 0.950 . S
C914 C913 1.387 . S
C914 C917 1.387 . S
H915 C911 0.950 . S
H916 C913 0.950 . S
C917 C908 1.390 . S
C917 H910 0.950 . S
C917 C914 1.387 . S
C918 C919 1.387 . S
C918 H922 0.950 . S
C918 C927 1.390 . S
C919 C918 1.387 . S
C919 C921 1.387 . S
H920 C927 0.950 . S
C921 C919 1.387 . S
C921 C923 1.390 . S
C921 H925 0.950 . S
H922 C918 0.950 . S
C923 C921 1.390 . S
C923 C924 1.387 . S
C923 H926 0.950 . S
C924 C923 1.387 . S
C924 C927 1.387 . S
H925 C921 0.950 . S
H926 C923 0.950 . S
C927 C918 1.390 . S
C927 H920 0.950 . S
C927 C924 1.387 . S
C928 C929 1.387 . S
C928 H932 0.950 . S
C928 C937 1.390 . S
C929 C928 1.387 . S
C929 C931 1.387 . S
H930 C937 0.950 . S
C931 C929 1.387 . S
C931 C933 1.390 . S
C931 H935 0.950 . S
H932 C928 0.950 . S
C933 C931 1.390 . S
C933 C934 1.387 . S
C933 H936 0.950 . S
C934 C933 1.387 . S
C934 C937 1.387 . S
H935 C931 0.950 . S
H936 C933 0.950 . S
C937 C928 1.390 . S
C937 H930 0.950 . S
C937 C934 1.387 . S
C938 C939 1.387 . S
C938 H942 0.950 . S
C938 C947 1.390 . S
C939 C938 1.387 . S
C939 C941 1.387 . S
H940 C947 0.950 . S
C941 C939 1.387 . S
C941 C943 1.390 . S
C941 H945 0.950 . S
H942 C938 0.950 . S
C943 C941 1.390 . S
C943 C944 1.387 . S
C943 H946 0.950 . S
C944 C943 1.387 . S
C944 C947 1.387 . S
H945 C941 0.950 . S
H946 C943 0.950 . S
C947 C938 1.390 . S
C947 H940 0.950 . S
C947 C944 1.387 . S
C948 C949 1.387 . S
C948 H952 0.950 . S
C948 C957 1.390 . S
C949 C948 1.387 . S
C949 C951 1.387 . S
H950 C957 0.950 . S
C951 C949 1.387 . S
C951 C953 1.390 . S
C951 H955 0.950 . S
H952 C948 0.950 . S
C953 C951 1.390 . S
C953 C954 1.387 . S
C953 H956 0.950 . S
C954 C953 1.387 . S
C954 C957 1.387 . S
H955 C951 0.950 . S
H956 C953 0.950 . S
C957 C948 1.390 . S
C957 H950 0.950 . S
C957 C954 1.387 . S
C958 C959 1.387 . S
C958 H962 0.950 . S
C958 C967 1.390 . S
C959 C958 1.387 . S
C959 C961 1.387 . S
H960 C967 0.950 . S
C961 C959 1.387 . S
C961 C963 1.390 . S
C961 H965 0.950 . S
H962 C958 0.950 . S
C963 C961 1.390 . S
C963 C964 1.387 . S
C963 H966 0.950 . S
C964 C963 1.387 . S
C964 C967 1.387 . S
H965 C961 0.950 . S
H966 C963 0.950 . S
C967 C958 1.390 . S
C967 H960 0.950 . S
C967 C964 1.387 . S
C968 C969 1.387 . S
C968 H972 0.950 . S
C968 C977 1.390 . S
C969 C968 1.387 . S
C969 C971 1.387 . S
H970 C977 0.950 . S
C971 C969 1.387 . S
C971 C973 1.390 . S
C971 H975 0.950 . S
H972 C968 0.950 . S
C973 C971 1.390 . S
C973 C974 1.387 . S
C973 H976 0.950 . S
C974 C973 1.387 . S
C974 C977 1.387 . S
H975 C971 0.950 . S
H976 C973 0.950 . S
C977 C968 1.390 . S
C977 H970 0.950 . S
C977 C974 1.387 . S
C978 C979 1.387 . S
C978 H982 0.950 . S
C978 C987 1.390 . S
C979 C978 1.387 . S
C979 C981 1.387 . S
H980 C987 0.950 . S
C981 C979 1.387 . S
C981 C983 1.390 . S
C981 H985 0.950 . S
H982 C978 0.950 . S
C983 C981 1.390 . S
C983 C984 1.387 . S
C983 H986 0.950 . S
C984 C983 1.387 . S
C984 C987 1.387 . S
H985 C981 0.950 . S
H986 C983 0.950 . S
C987 C978 1.390 . S
C987 H980 0.950 . S
C987 C984 1.387 . S
C988 C989 1.387 . S
C988 H992 0.950 . S
C988 C997 1.390 . S
C989 C988 1.387 . S
C989 C991 1.387 . S
H990 C997 0.950 . S
C991 C989 1.387 . S
C991 C993 1.390 . S
C991 H995 0.950 . S
H992 C988 0.950 . S
C993 C991 1.390 . S
C993 C994 1.387 . S
C993 H996 0.950 . S
C994 C993 1.387 . S
C994 C997 1.387 . S
H995 C991 0.950 . S
H996 C993 0.950 . S
C997 C988 1.390 . S
C997 H990 0.950 . S
C997 C994 1.387 . S
C998 C999 1.387 . S
C998 H1002 0.950 . S
C998 C1007 1.390 . S
C999 C998 1.387 . S
C999 C1001 1.387 . S
H1000 C1007 0.950 . S
C1001 C999 1.387 . S
C1001 C1003 1.390 . S
C1001 H1005 0.950 . S
H1002 C998 0.950 . S
C1003 C1001 1.390 . S
C1003 C1004 1.387 . S
C1003 H1006 0.950 . S
C1004 C1003 1.387 . S
C1004 C1007 1.387 . S
H1005 C1001 0.950 . S
H1006 C1003 0.950 . S
C1007 C998 1.390 . S
C1007 H1000 0.950 . S
C1007 C1004 1.387 . S
C1008 C1009 1.387 . S
C1008 H1012 0.950 . S
C1008 C1017 1.390 . S
C1009 C1008 1.387 . S
C1009 C1011 1.387 . S
H1010 C1017 0.950 . S
C1011 C1009 1.387 . S
C1011 C1013 1.390 . S
C1011 H1015 0.950 . S
H1012 C1008 0.950 . S
C1013 C1011 1.390 . S
C1013 C1014 1.387 . S
C1013 H1016 0.950 . S
C1014 C1013 1.387 . S
C1014 C1017 1.387 . S
H1015 C1011 0.950 . S
H1016 C1013 0.950 . S
C1017 C1008 1.390 . S
C1017 H1010 0.950 . S
C1017 C1014 1.387 . S
C1018 C1019 1.387 . S
C1018 H1022 0.950 . S
C1018 C1027 1.390 . S
C1019 C1018 1.387 . S
C1019 C1021 1.387 . S
H1020 C1027 0.950 . S
C1021 C1019 1.387 . S
C1021 C1023 1.390 . S
C1021 H1025 0.950 . S
H1022 C1018 0.950 . S
C1023 C1021 1.390 . S
C1023 C1024 1.387 . S
C1023 H1026 0.950 . S
C1024 C1023 1.387 . S
C1024 C1027 1.387 . S
H1025 C1021 0.950 . S
H1026 C1023 0.950 . S
C1027 C1018 1.390 . S
C1027 H1020 0.950 . S
C1027 C1024 1.387 . S
C1028 C1029 1.387 . S
C1028 H1032 0.950 . S
C1028 C1037 1.390 . S
C1029 C1028 1.387 . S
C1029 C1031 1.387 . S
H1030 C1037 0.950 . S
C1031 C1029 1.387 . S
C1031 C1033 1.390 . S
C1031 H1035 0.950 . S
H1032 C1028 0.950 . S
C1033 C1031 1.390 . S
C1033 C1034 1.387 . S
C1033 H1036 0.950 . S
C1034 C1033 1.387 . S
C1034 C1037 1.387 . S
H1035 C1031 0.950 . S
H1036 C1033 0.950 . S
C1037 C1028 1.390 . S
C1037 H1030 0.950 . S
C1037 C1034 1.387 . S
C1038 C1039 1.387 . S
C1038 H1042 0.950 . S
C1038 C1047 1.390 . S
C1039 C1038 1.387 . S
C1039 C1041 1.387 . S
H1040 C1047 0.950 . S
C1041 C1039 1.387 . S
C1041 C1043 1.390 . S
C1041 H1045 0.950 . S
H1042 C1038 0.950 . S
C1043 C1041 1.390 . S
C1043 C1044 1.387 . S
C1043 H1046 0.950 . S
C1044 C1043 1.387 . S
C1044 C1047 1.387 . S
H1045 C1041 0.950 . S
H1046 C1043 0.950 . S
C1047 C1038 1.390 . S
C1047 H1040 0.950 . S
C1047 C1044 1.387 . S
C1048 C1049 1.387 . S
C1048 H1052 0.950 . S
C1048 C1057 1.390 . S
C1049 C1048 1.387 . S
C1049 C1051 1.387 . S
H1050 C1057 0.950 . S
C1051 C1049 1.387 . S
C1051 C1053 1.390 . S
C1051 H1055 0.950 . S
H1052 C1048 0.950 . S
C1053 C1051 1.390 . S
C1053 C1054 1.387 . S
C1053 H1056 0.950 . S
C1054 C1053 1.387 . S
C1054 C1057 1.387 . S
H1055 C1051 0.950 . S
H1056 C1053 0.950 . S
C1057 C1048 1.390 . S
C1057 H1050 0.950 . S
C1057 C1054 1.387 . S
C1058 C1059 1.387 . S
C1058 H1062 0.950 . S
C1058 C1067 1.390 . S
C1059 C1058 1.387 . S
C1059 C1061 1.387 . S
H1060 C1067 0.950 . S
C1061 C1059 1.387 . S
C1061 C1063 1.390 . S
C1061 H1065 0.950 . S
H1062 C1058 0.950 . S
C1063 C1061 1.390 . S
C1063 C1064 1.387 . S
C1063 H1066 0.950 . S
C1064 C1063 1.387 . S
C1064 C1067 1.387 . S
H1065 C1061 0.950 . S
H1066 C1063 0.950 . S
C1067 C1058 1.390 . S
C1067 H1060 0.950 . S
C1067 C1064 1.387 . S
C1068 C1069 1.387 . S
C1068 H1072 0.950 . S
C1068 C1077 1.390 . S
C1069 C1068 1.387 . S
C1069 C1071 1.387 . S
H1070 C1077 0.950 . S
C1071 C1069 1.387 . S
C1071 C1073 1.390 . S
C1071 H1075 0.950 . S
H1072 C1068 0.950 . S
C1073 C1071 1.390 . S
C1073 C1074 1.387 . S
C1073 H1076 0.950 . S
C1074 C1073 1.387 . S
C1074 C1077 1.387 . S
H1075 C1071 0.950 . S
H1076 C1073 0.950 . S
C1077 C1068 1.390 . S
C1077 H1070 0.950 . S
C1077 C1074 1.387 . S
C1078 C1079 1.387 . S
C1078 H1082 0.950 . S
C1078 C1087 1.390 . S
C1079 C1078 1.387 . S
C1079 C1081 1.387 . S
H1080 C1087 0.950 . S
C1081 C1079 1.387 . S
C1081 C1083 1.390 . S
C1081 H1085 0.950 . S
H1082 C1078 0.950 . S
C1083 C1081 1.390 . S
C1083 C1084 1.387 . S
C1083 H1086 0.950 . S
C1084 C1083 1.387 . S
C1084 C1087 1.387 . S
H1085 C1081 0.950 . S
H1086 C1083 0.950 . S
C1087 C1078 1.390 . S
C1087 H1080 0.950 . S
C1087 C1084 1.387 . S
C1088 C1089 1.387 . S
C1088 H1092 0.950 . S
C1088 C1097 1.390 . S
C1089 C1088 1.387 . S
C1089 C1091 1.387 . S
H1090 C1097 0.950 . S
C1091 C1089 1.387 . S
C1091 C1093 1.390 . S
C1091 H1095 0.950 . S
H1092 C1088 0.950 . S
C1093 C1091 1.390 . S
C1093 C1094 1.387 . S
C1093 H1096 0.950 . S
C1094 C1093 1.387 . S
C1094 C1097 1.387 . S
H1095 C1091 0.950 . S
H1096 C1093 0.950 . S
C1097 C1088 1.390 . S
C1097 H1090 0.950 . S
C1097 C1094 1.387 . S
C1098 C1099 1.387 . S
C1098 H1102 0.950 . S
C1098 C1107 1.390 . S
C1099 C1098 1.387 . S
C1099 C1101 1.387 . S
H1100 C1107 0.950 . S
C1101 C1099 1.387 . S
C1101 C1103 1.390 . S
C1101 H1105 0.950 . S
H1102 C1098 0.950 . S
C1103 C1101 1.390 . S
C1103 C1104 1.387 . S
C1103 H1106 0.950 . S
C1104 C1103 1.387 . S
C1104 C1107 1.387 . S
H1105 C1101 0.950 . S
H1106 C1103 0.950 . S
C1107 C1098 1.390 . S
C1107 H1100 0.950 . S
C1107 C1104 1.387 . S
C1108 C1109 1.387 . S
C1108 H1112 0.950 . S
C1108 C1117 1.390 . S
C1109 C1108 1.387 . S
C1109 C1111 1.387 . S
H1110 C1117 0.950 . S
C1111 C1109 1.387 . S
C1111 C1113 1.390 . S
C1111 H1115 0.950 . S
H1112 C1108 0.950 . S
C1113 C1111 1.390 . S
C1113 C1114 1.387 . S
C1113 H1116 0.950 . S
C1114 C1113 1.387 . S
C1114 C1117 1.387 . S
H1115 C1111 0.950 . S
H1116 C1113 0.950 . S
C1117 C1108 1.390 . S
C1117 H1110 0.950 . S
C1117 C1114 1.387 . S
C1118 C1119 1.387 . S
C1118 H1122 0.950 . S
C1118 C1127 1.390 . S
C1119 C1118 1.387 . S
C1119 C1121 1.387 . S
H1120 C1127 0.950 . S
C1121 C1119 1.387 . S
C1121 C1123 1.390 . S
C1121 H1125 0.950 . S
H1122 C1118 0.950 . S
C1123 C1121 1.390 . S
C1123 C1124 1.387 . S
C1123 H1126 0.950 . S
C1124 C1123 1.387 . S
C1124 C1127 1.387 . S
H1125 C1121 0.950 . S
H1126 C1123 0.950 . S
C1127 C1118 1.390 . S
C1127 H1120 0.950 . S
C1127 C1124 1.387 . S
C1128 C1129 1.387 . S
C1128 H1132 0.950 . S
C1128 C1137 1.390 . S
C1129 C1128 1.387 . S
C1129 C1131 1.387 . S
H1130 C1137 0.950 . S
C1131 C1129 1.387 . S
C1131 C1133 1.390 . S
C1131 H1135 0.950 . S
H1132 C1128 0.950 . S
C1133 C1131 1.390 . S
C1133 C1134 1.387 . S
C1133 H1136 0.950 . S
C1134 C1133 1.387 . S
C1134 C1137 1.387 . S
H1135 C1131 0.950 . S
H1136 C1133 0.950 . S
C1137 C1128 1.390 . S
C1137 H1130 0.950 . S
C1137 C1134 1.387 . S
C1138 C1139 1.387 . S
C1138 H1142 0.950 . S
C1138 C1147 1.390 . S
C1139 C1138 1.387 . S
C1139 C1141 1.387 . S
H1140 C1147 0.950 . S
C1141 C1139 1.387 . S
C1141 C1143 1.390 . S
C1141 H1145 0.950 . S
H1142 C1138 0.950 . S
C1143 C1141 1.390 . S
C1143 C1144 1.387 . S
C1143 H1146 0.950 . S
C1144 C1143 1.387 . S
C1144 C1147 1.387 . S
H1145 C1141 0.950 . S
H1146 C1143 0.950 . S
C1147 C1138 1.390 . S
C1147 H1140 0.950 . S
C1147 C1144 1.387 . S
C1148 C1149 1.387 . S
C1148 H1152 0.950 . S
C1148 C1157 1.390 . S
C1149 C1148 1.387 . S
C1149 C1151 1.387 . S
H1150 C1157 0.950 . S
C1151 C1149 1.387 . S
C1151 C1153 1.390 . S
C1151 H1155 0.950 . S
H1152 C1148 0.950 . S
C1153 C1151 1.390 . S
C1153 C1154 1.387 . S
C1153 H1156 0.950 . S
C1154 C1153 1.387 . S
C1154 C1157 1.387 . S
H1155 C1151 0.950 . S
H1156 C1153 0.950 . S
C1157 C1148 1.390 . S
C1157 H1150 0.950 . S
C1157 C1154 1.387 . S
C1158 C1159 1.387 . S
C1158 H1162 0.950 . S
C1158 C1167 1.390 . S
C1159 C1158 1.387 . S
C1159 C1161 1.387 . S
H1160 C1167 0.950 . S
C1161 C1159 1.387 . S
C1161 C1163 1.390 . S
C1161 H1165 0.950 . S
H1162 C1158 0.950 . S
C1163 C1161 1.390 . S
C1163 C1164 1.387 . S
C1163 H1166 0.950 . S
C1164 C1163 1.387 . S
C1164 C1167 1.387 . S
H1165 C1161 0.950 . S
H1166 C1163 0.950 . S
C1167 C1158 1.390 . S
C1167 H1160 0.950 . S
C1167 C1164 1.387 . S
C1168 C1169 1.387 . S
C1168 H1172 0.950 . S
C1168 C1177 1.390 . S
C1169 C1168 1.387 . S
C1169 C1171 1.387 . S
H1170 C1177 0.950 . S
C1171 C1169 1.387 . S
C1171 C1173 1.390 . S
C1171 H1175 0.950 . S
H1172 C1168 0.950 . S
C1173 C1171 1.390 . S
C1173 C1174 1.387 . S
C1173 H1176 0.950 . S
C1174 C1173 1.387 . S
C1174 C1177 1.387 . S
H1175 C1171 0.950 . S
H1176 C1173 0.950 . S
C1177 C1168 1.390 . S
C1177 H1170 0.950 . S
C1177 C1174 1.387 . S
C1178 C1179 1.387 . S
C1178 H1182 0.950 . S
C1178 C1187 1.390 . S
C1179 C1178 1.387 . S
C1179 C1181 1.387 . S
H1180 C1187 0.950 . S
C1181 C1179 1.387 . S
C1181 C1183 1.390 . S
C1181 H1185 0.950 . S
H1182 C1178 0.950 . S
C1183 C1181 1.390 . S
C1183 C1184 1.387 . S
C1183 H1186 0.950 . S
C1184 C1183 1.387 . S
C1184 C1187 1.387 . S
H1185 C1181 0.950 . S
H1186 C1183 0.950 . S
C1187 C1178 1.390 . S
C1187 H1180 0.950 . S
C1187 C1184 1.387 . S
C1188 C1189 1.387 . S
C1188 H1192 0.950 . S
C1188 C1197 1.390 . S
C1189 C1188 1.387 . S
C1189 C1191 1.387 . S
H1190 C1197 0.950 . S
C1191 C1189 1.387 . S
C1191 C1193 1.390 . S
C1191 H1195 0.950 . S
H1192 C1188 0.950 . S
C1193 C1191 1.390 . S
C1193 C1194 1.387 . S
C1193 H1196 0.950 . S
C1194 C1193 1.387 . S
C1194 C1197 1.387 . S
H1195 C1191 0.950 . S
H1196 C1193 0.950 . S
C1197 C1188 1.390 . S
C1197 H1190 0.950 . S
C1197 C1194 1.387 . S
C1198 C1199 1.387 . S
C1198 H1202 0.950 . S
C1198 C1207 1.390 . S
C1199 C1198 1.387 . S
C1199 C1201 1.387 . S
H1200 C1207 0.950 . S
C1201 C1199 1.387 . S
C1201 C1203 1.390 . S
C1201 H1205 0.950 . S
H1202 C1198 0.950 . S
C1203 C1201 1.390 . S
C1203 C1204 1.387 . S
C1203 H1206 0.950 . S
C1204 C1203 1.387 . S
C1204 C1207 1.387 . S
H1205 C1201 0.950 . S
H1206 C1203 0.950 . S
C1207 C1198 1.390 . S
C1207 H1200 0.950 . S
C1207 C1204 1.387 . S
C1208 C1209 1.387 . S
C1208 H1212 0.950 . S
C1208 C1217 1.390 . S
C1209 C1208 1.387 . S
C1209 C1211 1.387 . S
H1210 C1217 0.950 . S
C1211 C1209 1.387 . S
C1211 C1213 1.390 . S
C1211 H1215 0.950 . S
H1212 C1208 0.950 . S
C1213 C1211 1.390 . S
C1213 C1214 1.387 . S
C1213 H1216 0.950 . S
C1214 C1213 1.387 . S
C1214 C1217 1.387 . S
H1215 C1211 0.950 . S
H1216 C1213 0.950 . S
C1217 C1208 1.390 . S
C1217 H1210 0.950 . S
C1217 C1214 1.387 . S
C1218 C1219 1.387 . S
C1218 H1222 0.950 . S
C1218 C1227 1.390 . S
C1219 C1218 1.387 . S
C1219 C1221 1.387 . S
H1220 C1227 0.950 . S
C1221 C1219 1.387 . S
C1221 C1223 1.390 . S
C1221 H1225 0.950 . S
H1222 C1218 0.950 . S
C1223 C1221 1.390 . S
C1223 C1224 1.387 . S
C1223 H1226 0.950 . S
C1224 C1223 1.387 . S
C1224 C1227 1.387 . S
H1225 C1221 0.950 . S
H1226 C1223 0.950 . S
C1227 C1218 1.390 . S
C1227 H1220 0.950 . S
C1227 C1224 1.387 . S
C1228 C1229 1.387 . S
C1228 H1232 0.950 . S
C1228 C1237 1.390 . S
C1229 C1228 1.387 . S
C1229 C1231 1.387 . S
H1230 C1237 0.950 . S
C1231 C1229 1.387 . S
C1231 C1233 1.390 . S
C1231 H1235 0.950 . S
H1232 C1228 0.950 . S
C1233 C1231 1.390 . S
C1233 C1234 1.387 . S
C1233 H1236 0.950 . S
C1234 C1233 1.387 . S
C1234 C1237 1.387 . S
H1235 C1231 0.950 . S
H1236 C1233 0.950 . S
C1237 C1228 1.390 . S
C1237 H1230 0.950 . S
C1237 C1234 1.387 . S
C1238 C1239 1.387 . S
C1238 H1242 0.950 . S
C1238 C1247 1.390 . S
C1239 C1238 1.387 . S
C1239 C1241 1.387 . S
H1240 C1247 0.950 . S
C1241 C1239 1.387 . S
C1241 C1243 1.390 . S
C1241 H1245 0.950 . S
H1242 C1238 0.950 . S
C1243 C1241 1.390 . S
C1243 C1244 1.387 . S
C1243 H1246 0.950 . S
C1244 C1243 1.387 . S
C1244 C1247 1.387 . S
H1245 C1241 0.950 . S
H1246 C1243 0.950 . S
C1247 C1238 1.390 . S
C1247 H1240 0.950 . S
C1247 C1244 1.387 . S
C529 C7 1.757 . S
C534 C401 1.678 . S
C539 C427 1.679 . S
C544 C29 1.756 . S
C549 C50 1.755 . S
C554 C361 1.681 . S
C559 C72 1.755 . S
C564 C379 1.681 . S
C569 C489 1.678 . S
C574 C95 1.756 . S
C579 C116 1.756 . S
C584 C467 1.680 . S
C589 C515 1.680 . S
C594 C138 1.756 . S
C599 C161 1.756 . S
C604 C449 1.680 . S
C609 C183 1.755 . S
C614 C291 1.681 . S
C619 C204 1.757 . S
C624 C335 1.678 . S
C629 C313 1.678 . S
C634 C226 1.757 . S
C639 C249 1.755 . S
C644 C269 1.681 . S
C649 C273 1.757 . S
C654 C139 1.678 . S
C659 C295 1.757 . S
C664 C160 1.678 . S
C669 C317 1.757 . S
C674 C94 1.678 . S
C679 C117 1.681 . S
C684 C339 1.755 . S
C689 C357 1.755 . S
C694 C227 1.681 . S
C699 C205 1.681 . S
C704 C383 1.756 . S
C709 C248 1.681 . S
C714 C405 1.755 . S
C719 C182 1.681 . S
C724 C423 1.756 . S
C729 C28 1.681 . S
C734 C445 1.755 . S
C739 C73 1.678 . S
C744 C471 1.757 . S
C749 C51 1.678 . S
C754 C493 1.757 . S
C759 C511 1.757 . S
C764 C6 1.678 . S
C769 C96 1.440 . S
C774 C9 1.311 . S
C779 C114 1.440 . S
C784 C31 1.311 . S
C789 C136 1.442 . S
C794 C49 1.316 . S
C799 C162 1.440 . S
C804 C71 1.311 . S
C809 C97 1.316 . S
C814 C184 1.442 . S
C819 C115 1.311 . S
C824 C250 1.440 . S
C829 C137 1.316 . S
C834 C202 1.442 . S
C839 C163 1.316 . S
C844 C224 1.442 . S
C849 C185 1.311 . S
C854 C8 1.440 . S
C859 C203 1.311 . S
C864 C48 1.440 . S
C869 C225 1.316 . S
C874 C70 1.442 . S
C879 C30 1.442 . S
C884 C251 1.316 . S
C889 C356 1.442 . S
C894 C271 1.316 . S
C899 C382 1.442 . S
C904 C293 1.316 . S
C909 C315 1.316 . S
C914 C404 1.442 . S
C919 C337 1.316 . S
C924 C422 1.442 . S
C929 C444 1.442 . S
C934 C358 1.316 . S
C939 C381 1.311 . S
C944 C510 1.440 . S
C949 C470 1.442 . S
C954 C403 1.316 . S
C959 C424 1.316 . S
C964 C492 1.442 . S
C969 C272 1.440 . S
C974 C446 1.311 . S
C979 C469 1.311 . S
C984 C316 1.440 . S
C989 C491 1.311 . S
C994 C338 1.440 . S
C999 C294 1.442 . S
C1004 C512 1.316 . S
C1009 C4 1.365 . S
C1014 C207 1.387 . S
C1019 C229 1.388 . S
C1024 C26 1.365 . S
C1029 C181 1.388 . S
C1034 C52 1.366 . S
C1039 C247 1.387 . S
C1044 C74 1.365 . S
C1049 C92 1.365 . S
C1054 C75 1.387 . S
C1059 C53 1.387 . S
C1064 C118 1.365 . S
C1069 C140 1.367 . S
C1074 C27 1.387 . S
C1079 C5 1.387 . S
C1084 C158 1.365 . S
C1089 C180 1.366 . S
C1094 C119 1.388 . S
C1099 C206 1.366 . S
C1104 C159 1.388 . S
C1109 C228 1.367 . S
C1114 C141 1.387 . S
C1119 C246 1.366 . S
C1124 C93 1.388 . S
C1129 C268 1.367 . S
C1134 C468 1.387 . S
C1139 C290 1.368 . S
C1144 C490 1.387 . S
C1149 C447 1.387 . S
C1154 C312 1.365 . S
C1159 C513 1.387 . S
C1164 C334 1.365 . S
C1169 C360 1.365 . S
C1174 C336 1.387 . S
C1179 C378 1.365 . S
C1184 C314 1.387 . S
C1189 C292 1.388 . S
C1194 C400 1.366 . S
C1199 C426 1.367 . S
C1204 C270 1.387 . S
C1209 C448 1.366 . S
C1214 C380 1.388 . S
C1219 C425 1.388 . S
C1224 C466 1.368 . S
C1229 C488 1.367 . S
C1234 C402 1.387 . S
C1239 C514 1.367 . S
C1244 C359 1.388 . S
