# Generated by pormake.
# Topology lcy-a, (4)-cn, num edge types: 1
# Building blocks:
#     Node 0, Type 0, BuildingBlock: CEKHIL_clean_sbu_0, # of connection points: 4
#     Node 1, Type 0, BuildingBlock: CEKHIL_clean_sbu_0, # of connection points: 4
#     Node 2, Type 0, BuildingBlock: CEKHIL_clean_sbu_0, # of connection points: 4
#     Node 3, Type 0, BuildingBlock: CEKHIL_clean_sbu_0, # of connection points: 4
#     Node 4, Type 0, BuildingBlock: CEKHIL_clean_sbu_0, # of connection points: 4
#     Node 5, Type 0, BuildingBlock: CEKHIL_clean_sbu_0, # of connection points: 4
#     Node 6, Type 0, BuildingBlock: CEKHIL_clean_sbu_0, # of connection points: 4
#     Node 7, Type 0, BuildingBlock: CEKHIL_clean_sbu_0, # of connection points: 4
#     Node 8, Type 0, BuildingBlock: CEKHIL_clean_sbu_0, # of connection points: 4
#     Node 9, Type 0, BuildingBlock: CEKHIL_clean_sbu_0, # of connection points: 4
#     Node 10, Type 0, BuildingBlock: CEKHIL_clean_sbu_0, # of connection points: 4
#     Node 11, Type 0, BuildingBlock: CEKHIL_clean_sbu_0, # of connection points: 4
#     Node 12, Type 0, BuildingBlock: CEKHIL_clean_sbu_0, # of connection points: 4
#     Node 13, Type 0, BuildingBlock: CEKHIL_clean_sbu_0, # of connection points: 4
#     Node 14, Type 0, BuildingBlock: CEKHIL_clean_sbu_0, # of connection points: 4
#     Node 15, Type 0, BuildingBlock: CEKHIL_clean_sbu_0, # of connection points: 4
#     Node 16, Type 0, BuildingBlock: CEKHIL_clean_sbu_0, # of connection points: 4
#     Node 17, Type 0, BuildingBlock: CEKHIL_clean_sbu_0, # of connection points: 4
#     Node 18, Type 0, BuildingBlock: CEKHIL_clean_sbu_0, # of connection points: 4
#     Node 19, Type 0, BuildingBlock: CEKHIL_clean_sbu_0, # of connection points: 4
#     Node 20, Type 0, BuildingBlock: CEKHIL_clean_sbu_0, # of connection points: 4
#     Node 21, Type 0, BuildingBlock: CEKHIL_clean_sbu_0, # of connection points: 4
#     Node 22, Type 0, BuildingBlock: CEKHIL_clean_sbu_0, # of connection points: 4
#     Node 23, Type 0, BuildingBlock: CEKHIL_clean_sbu_0, # of connection points: 4
#     Edge 24, Type (0, 0), BuildingBlock: OJICUG_clean_linker_0, # of connection points: 2
#     Edge 25, Type (0, 0), BuildingBlock: OJICUG_clean_linker_0, # of connection points: 2
#     Edge 26, Type (0, 0), BuildingBlock: OJICUG_clean_linker_0, # of connection points: 2
#     Edge 27, Type (0, 0), BuildingBlock: OJICUG_clean_linker_0, # of connection points: 2
#     Edge 28, Type (0, 0), BuildingBlock: OJICUG_clean_linker_0, # of connection points: 2
#     Edge 29, Type (0, 0), BuildingBlock: OJICUG_clean_linker_0, # of connection points: 2
#     Edge 30, Type (0, 0), BuildingBlock: OJICUG_clean_linker_0, # of connection points: 2
#     Edge 31, Type (0, 0), BuildingBlock: OJICUG_clean_linker_0, # of connection points: 2
#     Edge 32, Type (0, 0), BuildingBlock: OJICUG_clean_linker_0, # of connection points: 2
#     Edge 33, Type (0, 0), BuildingBlock: OJICUG_clean_linker_0, # of connection points: 2
#     Edge 34, Type (0, 0), BuildingBlock: OJICUG_clean_linker_0, # of connection points: 2
#     Edge 35, Type (0, 0), BuildingBlock: OJICUG_clean_linker_0, # of connection points: 2
#     Edge 36, Type (0, 0), BuildingBlock: OJICUG_clean_linker_0, # of connection points: 2
#     Edge 37, Type (0, 0), BuildingBlock: OJICUG_clean_linker_0, # of connection points: 2
#     Edge 38, Type (0, 0), BuildingBlock: OJICUG_clean_linker_0, # of connection points: 2
#     Edge 39, Type (0, 0), BuildingBlock: OJICUG_clean_linker_0, # of connection points: 2
#     Edge 40, Type (0, 0), BuildingBlock: OJICUG_clean_linker_0, # of connection points: 2
#     Edge 41, Type (0, 0), BuildingBlock: OJICUG_clean_linker_0, # of connection points: 2
#     Edge 42, Type (0, 0), BuildingBlock: OJICUG_clean_linker_0, # of connection points: 2
#     Edge 43, Type (0, 0), BuildingBlock: OJICUG_clean_linker_0, # of connection points: 2
#     Edge 44, Type (0, 0), BuildingBlock: OJICUG_clean_linker_0, # of connection points: 2
#     Edge 45, Type (0, 0), BuildingBlock: OJICUG_clean_linker_0, # of connection points: 2
#     Edge 46, Type (0, 0), BuildingBlock: OJICUG_clean_linker_0, # of connection points: 2
#     Edge 47, Type (0, 0), BuildingBlock: OJICUG_clean_linker_0, # of connection points: 2
#     Edge 48, Type (0, 0), BuildingBlock: OJICUG_clean_linker_0, # of connection points: 2
#     Edge 49, Type (0, 0), BuildingBlock: OJICUG_clean_linker_0, # of connection points: 2
#     Edge 50, Type (0, 0), BuildingBlock: OJICUG_clean_linker_0, # of connection points: 2
#     Edge 51, Type (0, 0), BuildingBlock: OJICUG_clean_linker_0, # of connection points: 2
#     Edge 52, Type (0, 0), BuildingBlock: OJICUG_clean_linker_0, # of connection points: 2
#     Edge 53, Type (0, 0), BuildingBlock: OJICUG_clean_linker_0, # of connection points: 2
#     Edge 54, Type (0, 0), BuildingBlock: OJICUG_clean_linker_0, # of connection points: 2
#     Edge 55, Type (0, 0), BuildingBlock: OJICUG_clean_linker_0, # of connection points: 2
#     Edge 56, Type (0, 0), BuildingBlock: OJICUG_clean_linker_0, # of connection points: 2
#     Edge 57, Type (0, 0), BuildingBlock: OJICUG_clean_linker_0, # of connection points: 2
#     Edge 58, Type (0, 0), BuildingBlock: OJICUG_clean_linker_0, # of connection points: 2
#     Edge 59, Type (0, 0), BuildingBlock: OJICUG_clean_linker_0, # of connection points: 2
#     Edge 60, Type (0, 0), BuildingBlock: OJICUG_clean_linker_0, # of connection points: 2
#     Edge 61, Type (0, 0), BuildingBlock: OJICUG_clean_linker_0, # of connection points: 2
#     Edge 62, Type (0, 0), BuildingBlock: OJICUG_clean_linker_0, # of connection points: 2
#     Edge 63, Type (0, 0), BuildingBlock: OJICUG_clean_linker_0, # of connection points: 2
#     Edge 64, Type (0, 0), BuildingBlock: OJICUG_clean_linker_0, # of connection points: 2
#     Edge 65, Type (0, 0), BuildingBlock: OJICUG_clean_linker_0, # of connection points: 2
#     Edge 66, Type (0, 0), BuildingBlock: OJICUG_clean_linker_0, # of connection points: 2
#     Edge 67, Type (0, 0), BuildingBlock: OJICUG_clean_linker_0, # of connection points: 2
#     Edge 68, Type (0, 0), BuildingBlock: OJICUG_clean_linker_0, # of connection points: 2
#     Edge 69, Type (0, 0), BuildingBlock: OJICUG_clean_linker_0, # of connection points: 2
#     Edge 70, Type (0, 0), BuildingBlock: OJICUG_clean_linker_0, # of connection points: 2
#     Edge 71, Type (0, 0), BuildingBlock: OJICUG_clean_linker_0, # of connection points: 2
# Relax obj value: 0.419
# Max RMSD: 0.181
# Mean RMSD: 0.181
data_MOF--net-lcy-a--node1-CEKHIL_clean_sbu_0--edge1-OJICUG_clean_linker_0
_symmetry_space_group_name_H-M    P1
_symmetry_Int_Tables_number       1
_symmetry_cell_setting            triclinic
loop_
_symmetry_equiv_pos_as_xyz
'x, y, z'
_cell_length_a     41.530768
_cell_length_b     41.519921
_cell_length_c     41.54772
_cell_angle_alpha  89.920388
_cell_angle_beta   89.983484
_cell_angle_gamma 89.979079
loop_
_atom_site_label
_atom_site_type_symbol
_atom_site_fract_x
_atom_site_fract_y
_atom_site_fract_z
_atom_type_partial_charge
Co0 Co 0.20484 0.25768 0.39839 0.0
O1 O 0.19393 0.23369 0.43615 0.0
O2 O 0.16024 0.26405 0.40756 0.0
C3 C 0.23327 0.2185 0.37405 0.0
O4 O 0.20614 0.28469 0.35793 0.0
Co5 Co 0.27561 0.27249 0.37978 0.0
O6 O 0.25628 0.28517 0.33767 0.0
C7 C 0.24466 0.30624 0.43407 0.0
C8 C 0.165 0.24485 0.43182 0.0
C9 C 0.22619 0.2908 0.33532 0.0
O10 O 0.2168 0.296 0.4254 0.0
O11 O 0.27107 0.2969 0.42121 0.0
O12 O 0.20204 0.21889 0.37157 0.0
O13 O 0.24542 0.23972 0.39302 0.0
Co14 Co 0.96855 0.95504 0.64759 0.0
O15 O -0.00731 0.94479 0.68543 0.0
O16 O 0.96307 0.91038 0.65701 0.0
C17 C 0.00711 0.98422 0.62311 0.0
O18 O 0.94158 0.95557 0.60713 0.0
Co19 Co 0.95222 0.0254 0.62849 0.0
O20 O 0.93991 0.00557 0.58655 0.0
C21 C 0.91922 -0.00595 0.68309 0.0
C22 C 0.98204 0.91564 0.68131 0.0
C23 C 0.935 0.97535 0.58441 0.0
O24 O 0.92996 0.96633 0.67454 0.0
O25 O 0.92802 0.02057 0.67004 0.0
O26 O 0.00744 0.95298 0.62077 0.0
O27 O 0.98559 -0.00402 0.642 0.0
Co28 Co 0.27109 0.71809 0.89823 0.0
O29 O 0.28169 0.74237 0.93583 0.0
O30 O 0.31575 0.71223 0.90751 0.0
C31 C 0.24234 0.7569 0.8736 0.0
O32 O 0.27011 0.69088 0.85794 0.0
Co33 Co 0.20047 0.70259 0.87964 0.0
O34 O 0.21999 0.68985 0.83766 0.0
C35 C 0.23165 0.6693 0.93417 0.0
C36 C 0.31074 0.73152 0.93161 0.0
C37 C 0.25013 0.68447 0.83538 0.0
O38 O 0.25944 0.67977 0.92549 0.0
O39 O 0.20518 0.67838 0.92122 0.0
O40 O 0.27356 0.7568 0.87114 0.0
O41 O 0.23036 0.73564 0.8927 0.0
Co42 Co 0.50812 0.02129 0.14822 0.0
O43 O 0.48471 0.03086 0.18672 0.0
O44 O 0.51338 0.06587 0.15797 0.0
C45 C 0.46924 -0.00795 0.12436 0.0
O46 O 0.53417 0.02159 0.10715 0.0
Co47 Co 0.52461 0.95138 0.1278 0.0
O48 O 0.53569 0.97196 0.08583 0.0
C49 C 0.55897 0.98233 0.18173 0.0
C50 C 0.49495 0.06017 0.1826 0.0
C51 C 0.54036 0.00225 0.08399 0.0
O52 O 0.54744 0.01003 0.17412 0.0
O53 O 0.55029 0.95593 0.16843 0.0
O54 O 0.4686 0.02332 0.12233 0.0
O55 O 0.49133 0.98024 0.14257 0.0
Co56 Co 0.70357 0.21816 0.57851 0.0
O57 O 0.69319 0.24186 0.54045 0.0
O58 O 0.65905 0.21188 0.5689 0.0
C59 C 0.73185 0.25748 0.60273 0.0
O60 O 0.70443 0.19147 0.61922 0.0
Co61 Co 0.77417 0.20332 0.5978 0.0
O62 O 0.75444 0.19083 0.63977 0.0
C63 C 0.74366 0.16941 0.54342 0.0
C64 C 0.66419 0.23082 0.54451 0.0
C65 C 0.72431 0.18537 0.64197 0.0
O66 O 0.71573 0.17962 0.55191 0.0
O67 O 0.76997 0.17883 0.55639 0.0
O68 O 0.7006 0.2572 0.605 0.0
O69 O 0.74412 0.23603 0.58409 0.0
Co70 Co 0.00483 0.45557 0.82761 0.0
O71 O 0.98066 0.44525 0.78986 0.0
O72 O 0.01127 0.41114 0.81771 0.0
C73 C 0.96576 0.48354 0.85264 0.0
O74 O 0.03208 0.4563 0.86789 0.0
Co75 Co 0.01966 0.5261 0.84698 0.0
O76 O 0.03288 0.5062 0.88867 0.0
C77 C 0.053 0.49605 0.79197 0.0
C78 C -0.00801 0.41629 0.79361 0.0
C79 C 0.03848 0.47606 0.89063 0.0
O80 O 0.04293 0.46805 0.80047 0.0
O81 O 0.04365 0.52227 0.8052 0.0
O82 O 0.96621 0.45227 0.8547 0.0
O83 O 0.98684 0.49602 0.83368 0.0
Co84 Co 0.77255 0.75823 0.07867 0.0
O85 O 0.78246 0.73526 0.04007 0.0
O86 O 0.81707 0.76425 0.06887 0.0
C87 C 0.744 0.71864 0.1023 0.0
O88 O 0.77234 0.78399 0.11988 0.0
Co89 Co 0.70231 0.77335 0.0991 0.0
O90 O 0.72261 0.78465 0.14109 0.0
C91 C 0.7327 0.80842 0.04522 0.0
C92 C 0.81162 0.74586 0.04419 0.0
C93 C 0.75281 0.78976 0.14301 0.0
O94 O 0.7606 0.79752 0.05296 0.0
O95 O 0.70643 0.79909 0.05839 0.0
O96 O 0.77525 0.71855 0.10435 0.0
O97 O 0.73183 0.74068 0.08424 0.0
Co98 Co 0.46984 0.52094 0.32769 0.0
O99 O 0.49409 0.53124 0.28995 0.0
O100 O 0.46363 0.56544 0.31775 0.0
C101 C 0.5088 0.49275 0.35271 0.0
O102 O 0.44256 0.52026 0.36799 0.0
Co103 Co 0.45473 0.45045 0.34719 0.0
O104 O 0.44175 0.47036 0.3889 0.0
C105 C 0.42173 0.48067 0.29197 0.0
C106 C 0.48291 0.56024 0.29367 0.0
C107 C 0.43622 0.50051 0.39082 0.0
O108 O 0.43174 0.50865 0.30052 0.0
O109 O 0.43099 0.45442 0.30528 0.0
O110 O 0.50847 0.52401 0.35478 0.0
O111 O 0.48765 0.4804 0.33378 0.0
Co112 Co 0.39859 0.20395 0.25752 0.0
O113 O 0.43663 0.19351 0.23385 0.0
O114 O 0.40825 0.15939 0.26392 0.0
C115 C 0.37427 0.23216 0.21812 0.0
O116 O 0.35791 0.20484 0.28421 0.0
Co117 Co 0.37921 0.2746 0.27206 0.0
O118 O 0.33728 0.25486 0.2847 0.0
C119 C 0.43361 0.24416 0.30619 0.0
C120 C 0.4326 0.1645 0.24494 0.0
C121 C 0.33514 0.22474 0.29028 0.0
O122 O 0.42522 0.21619 0.29601 0.0
O123 O 0.42059 0.27045 0.29666 0.0
O124 O 0.37203 0.20091 0.21852 0.0
O125 O 0.39294 0.24448 0.23951 0.0
Co126 Co 0.01977 0.14917 0.50551 0.0
O127 O 0.03036 0.18689 0.48125 0.0
O128 O 0.06428 0.15871 0.51175 0.0
C129 C -0.00856 0.12432 0.46664 0.0
O130 O 0.01887 0.10887 0.53279 0.0
Co131 Co 0.94922 0.13013 0.5207 0.0
O132 O 0.9689 0.08825 0.53377 0.0
C133 C 0.97975 0.18503 0.55378 0.0
C134 C 0.05931 0.18287 0.49246 0.0
C135 C -0.00097 0.08617 0.53923 0.0
O136 O 0.00766 0.17639 0.54362 0.0
O137 O 0.95343 0.17192 0.54458 0.0
O138 O 0.02268 0.12206 0.46692 0.0
O139 O 0.9792 0.14338 0.48774 0.0
Co140 Co 0.07745 0.77102 0.75635 0.0
O141 O 0.03967 0.78165 0.73234 0.0
O142 O 0.06786 0.81555 0.76274 0.0
C143 C 0.10213 0.74293 0.71717 0.0
O144 O 0.11786 0.76995 0.7834 0.0
Co145 Co 0.09652 0.7003 0.77104 0.0
O146 O 0.1384 0.7199 0.78402 0.0
C147 C 0.04186 0.73073 0.8047 0.0
C148 C 0.04369 0.81059 0.7435 0.0
C149 C 0.14054 0.75 0.78964 0.0
O150 O 0.05041 0.7587 0.79457 0.0
O151 O 0.05491 0.70444 0.79529 0.0
O152 O 0.10439 0.77418 0.71762 0.0
O153 O 0.0832 0.73056 0.73835 0.0
Co154 Co 0.45526 0.82808 0.00579 0.0
O155 O 0.4448 0.79059 0.98126 0.0
O156 O 0.41071 0.81843 0.01181 0.0
C157 C 0.48372 0.85327 0.96714 0.0
O158 O 0.4561 0.86817 0.03335 0.0
Co159 Co 0.52582 0.84693 0.02122 0.0
O160 O 0.50612 0.88867 0.03456 0.0
C161 C 0.49518 0.79171 0.05383 0.0
C162 C 0.4158 0.79445 -0.00761 0.0
C163 C 0.47598 0.89076 0.03999 0.0
O164 O 0.46728 0.80051 0.04376 0.0
O165 O 0.52152 0.80486 0.0447 0.0
O166 O 0.45247 0.85555 0.96736 0.0
O167 O 0.49588 0.83403 -0.01185 0.0
Co168 Co 0.89794 0.27172 0.71751 0.0
O169 O 0.93603 0.28218 0.74111 0.0
O170 O 0.907 0.31644 0.71182 0.0
C171 C 0.87417 0.24253 0.75652 0.0
O172 O 0.85709 0.27096 0.69113 0.0
Co173 Co 0.87901 0.20124 0.70175 0.0
O174 O 0.83672 0.22088 0.69015 0.0
C175 C 0.93285 0.2328 0.66768 0.0
C176 C 0.93152 0.31132 0.73056 0.0
C177 C 0.83434 0.25108 0.68508 0.0
O178 O 0.92442 0.26049 0.67859 0.0
O179 O 0.92004 0.20624 0.67671 0.0
O180 O 0.87164 0.27376 0.75674 0.0
O181 O 0.89283 0.23079 0.73478 0.0
Co182 Co 0.95456 0.6489 0.96854 0.0
O183 O 0.94485 0.68721 -0.00786 0.0
O184 O 0.91003 0.65886 0.96295 0.0
C185 C 0.98337 0.62456 0.00749 0.0
O186 O 0.9545 0.60805 0.94218 0.0
Co187 Co 0.02462 0.62863 0.95254 0.0
O188 O 0.00419 0.58676 0.94089 0.0
C189 C -0.00597 0.68312 0.91859 0.0
C190 C 0.91564 0.68332 0.9816 0.0
C191 C 0.97395 0.58495 0.93597 0.0
O192 O 0.96622 0.6752 0.92958 0.0
O193 O 0.02036 0.66979 0.92751 0.0
O194 O 0.95211 0.62261 0.00781 0.0
O195 O -0.0046 0.64298 0.98568 0.0
Co196 Co 0.57775 0.70433 0.21695 0.0
O197 O 0.53967 0.69411 0.24073 0.0
O198 O 0.56846 0.65964 0.21153 0.0
C199 C 0.60173 0.73352 0.25575 0.0
O200 O 0.61856 0.70484 0.19044 0.0
Co201 Co 0.597 0.77467 0.20076 0.0
O202 O 0.63923 0.75479 0.18938 0.0
C203 C 0.54283 0.74332 0.16712 0.0
C204 C 0.54401 0.66492 0.23032 0.0
C205 C 0.64145 0.72458 0.18438 0.0
O206 O 0.55119 0.7156 0.17807 0.0
O207 O 0.55583 0.76983 0.17595 0.0
O208 O 0.60413 0.70228 0.25612 0.0
O209 O 0.58309 0.74529 0.23399 0.0
Co210 Co 0.52074 0.32728 0.46907 0.0
O211 O 0.53064 0.28911 0.4929 0.0
O212 O 0.56523 0.31733 0.4632 0.0
C213 C 0.49223 0.3518 0.50805 0.0
O214 O 0.52053 0.368 0.44238 0.0
Co215 Co 0.45053 0.3473 0.45347 0.0
O216 O 0.47077 0.38917 0.44139 0.0
C217 C 0.48093 0.29262 0.41982 0.0
C218 C 0.55977 0.29297 0.48211 0.0
C219 C 0.50097 0.39104 0.4362 0.0
O220 O 0.5088 0.30075 0.43044 0.0
O221 O 0.45463 0.30592 0.42888 0.0
O222 O 0.5235 0.35378 0.50809 0.0
O223 O 0.48004 0.33323 0.48651 0.0
Co224 Co 0.25896 0.39818 0.20387 0.0
O225 O 0.23514 0.43623 0.19357 0.0
O226 O 0.26451 0.40752 0.15919 0.0
C227 C 0.22002 0.37416 0.23295 0.0
O228 O 0.28554 0.3574 0.20451 0.0
Co229 Co 0.2748 0.37893 0.27427 0.0
O230 O 0.2865 0.33676 0.2545 0.0
C231 C 0.3086 0.43312 0.24297 0.0
C232 C 0.2456 0.43191 0.16441 0.0
C233 C 0.29162 0.33454 0.22432 0.0
O234 O 0.29778 0.42479 0.21523 0.0
O235 O 0.29961 0.42012 0.26944 0.0
O236 O 0.21982 0.37173 0.20174 0.0
O237 O 0.24173 0.3928 0.24475 0.0
Co238 Co 0.75763 0.07715 0.77184 0.0
O239 O 0.7338 0.03929 0.78269 0.0
O240 O 0.76432 0.06767 0.81632 0.0
C241 C 0.71824 0.10167 0.74382 0.0
O242 O 0.78457 0.11764 0.77052 0.0
Co243 Co 0.77194 0.09611 0.70106 0.0
O244 O 0.78488 0.13809 0.72045 0.0
C245 C 0.80578 0.0415 0.73151 0.0
C246 C 0.74519 0.04339 0.81153 0.0
C247 C 0.79064 0.1403 0.75051 0.0
O248 O 0.79586 0.05018 0.75947 0.0
O249 O 0.79619 0.05447 0.70523 0.0
O250 O 0.71882 0.10399 0.77503 0.0
O251 O 0.7394 0.08276 0.73144 0.0
Co252 Co 0.14786 0.5066 0.02076 0.0
O253 O 0.18564 0.48226 0.03085 0.0
O254 O 0.15754 0.51211 0.06534 0.0
C255 C 0.12304 0.46808 -0.00811 0.0
O256 O 0.1075 0.53381 0.0203 0.0
Co257 Co 0.12874 0.52283 0.95043 0.0
O258 O 0.08687 0.5354 0.97036 0.0
C259 C 0.18354 0.55567 0.98143 0.0
C260 C 0.18174 0.493 0.05997 0.0
C261 C 0.08478 0.54045 0.00055 0.0
O262 O 0.17498 0.54502 0.00919 0.0
O263 O 0.17041 0.54686 0.955 0.0
O264 O 0.12083 0.46786 0.02312 0.0
O265 O 0.14203 0.48945 0.97994 0.0
Co266 Co 0.71965 0.89803 0.2712 0.0
O267 O 0.74359 0.93578 0.28197 0.0
O268 O 0.71216 0.90807 0.31543 0.0
C269 C 0.75941 0.87288 0.24434 0.0
O270 O 0.69238 0.85775 0.26983 0.0
Co271 Co 0.70666 0.87863 0.20035 0.0
O272 O 0.69282 0.83698 0.21994 0.0
C273 C 0.67263 0.93375 0.22946 0.0
C274 C 0.73161 0.93213 0.31065 0.0
C275 C 0.68645 0.83502 0.2499 0.0
O276 O 0.68194 0.92522 0.2577 0.0
O277 O 0.68267 0.92051 0.20351 0.0
O278 O 0.75815 0.87088 0.27557 0.0
O279 O 0.73868 0.89185 0.23128 0.0
Co280 Co 0.32756 0.46913 0.52111 0.0
O281 O 0.28961 0.49312 0.53135 0.0
O282 O 0.31796 0.46325 0.56568 0.0
C283 C 0.35209 0.508 0.49233 0.0
O284 O 0.36809 0.44222 0.52057 0.0
Co285 Co 0.3469 0.45346 0.45076 0.0
O286 O 0.38881 0.44098 0.47066 0.0
C287 C 0.29232 0.42 0.48162 0.0
C288 C 0.29364 0.48223 0.56043 0.0
C289 C 0.39087 0.4358 0.50084 0.0
O290 O 0.30073 0.43058 0.50942 0.0
O291 O 0.30542 0.42906 0.45523 0.0
O292 O 0.35431 0.50805 0.52357 0.0
O293 O 0.33327 0.48656 0.48034 0.0
Co294 Co 0.21728 0.57692 0.7045 0.0
O295 O 0.24082 0.53867 0.69432 0.0
O296 O 0.21169 0.56762 0.65987 0.0
C297 C 0.25632 0.60073 0.73356 0.0
O298 O 0.191 0.61786 0.70492 0.0
Co299 Co 0.20139 0.59646 0.77476 0.0
O300 O 0.18991 0.63863 0.75477 0.0
C301 C 0.16707 0.54261 0.7436 0.0
C302 C 0.23038 0.54308 0.66515 0.0
C303 C 0.18492 0.64078 0.72457 0.0
O304 O 0.17821 0.55066 0.71588 0.0
O305 O 0.17601 0.55562 0.77004 0.0
O306 O 0.25662 0.60307 0.70233 0.0
O307 O 0.23447 0.58224 0.7454 0.0
Co308 Co 0.64884 0.97006 0.95588 0.0
O309 O 0.68693 -0.00618 0.94565 0.0
O310 O 0.65921 0.96306 0.91169 0.0
C311 C 0.62381 0.00969 0.98304 0.0
O312 O 0.6083 0.94319 0.95643 0.0
Co313 Co 0.62826 0.95613 0.02624 0.0
O314 O 0.58668 0.94321 0.00597 0.0
C315 C 0.6835 0.92205 -0.00263 0.0
C316 C 0.68338 0.98225 0.91681 0.0
C317 C 0.58513 0.93731 0.9759 0.0
O318 O 0.67551 0.93188 0.96915 0.0
O319 O 0.66991 0.93175 0.02327 0.0
O320 O 0.62212 0.0089 0.95179 0.0
O321 O 0.64239 -0.01146 -0.004 0.0
Co322 Co 0.82658 0.00717 0.45484 0.0
O323 O 0.78855 0.9833 0.44469 0.0
O324 O 0.81669 0.01344 0.41042 0.0
C325 C 0.85125 0.96799 0.48305 0.0
O326 O 0.86714 0.03401 0.45528 0.0
Co327 Co 0.84649 0.02221 0.52514 0.0
O328 O 0.88825 0.03485 0.50502 0.0
C329 C 0.79167 0.05597 0.49502 0.0
C330 C 0.79243 -0.00562 0.41567 0.0
C331 C 0.89008 0.04026 0.47486 0.0
O332 O 0.79986 0.04563 0.46707 0.0
O333 O 0.80497 0.04667 0.52123 0.0
O334 O 0.85327 0.96823 0.45181 0.0
O335 O 0.83256 -0.01062 0.4954 0.0
C336 C 0.1176 0.19604 0.4912 0.0
C337 C 0.08602 0.2031 0.48149 0.0
H338 H 0.1677 0.20416 0.48308 0.0
C339 C 0.08057 0.22746 0.45871 0.0
H340 H 0.12242 0.1776 0.50903 0.0
C341 C 0.10648 0.2427 0.4439 0.0
C342 C 0.1381 0.23369 0.45169 0.0
H343 H 0.05639 0.23363 0.4511 0.0
H344 H 0.10169 0.26025 0.42518 0.0
C345 C 0.1435 0.21124 0.47636 0.0
C346 C 0.01602 0.89478 0.72589 0.0
C347 C -0.0067 0.88907 0.70158 0.0
H348 H 0.04974 0.87402 0.75869 0.0
C349 C 0.9839 0.85738 0.69464 0.0
H350 H 0.02339 0.91904 0.73196 0.0
C351 C -0.00103 0.83164 0.7099 0.0
C352 C 0.02359 0.83731 0.7323 0.0
H353 H 0.96612 0.85236 0.67625 0.0
H354 H -0.00752 0.80736 0.70292 0.0
C355 C 0.03107 0.86902 0.7412 0.0
C356 C 0.3692 0.73428 0.94384 0.0
C357 C 0.33748 0.7431 0.95142 0.0
H358 H 0.41919 0.74367 0.95125 0.0
C359 C 0.33181 0.76569 0.97586 0.0
H360 H 0.37421 0.71665 0.92531 0.0
C361 C 0.35754 0.78112 -0.00929 0.0
C362 C 0.38922 0.77417 0.98126 0.0
H363 H 0.30753 0.77263 0.98241 0.0
H364 H 0.35251 0.79962 0.00838 0.0
C365 C 0.39493 0.74975 0.95866 0.0
C366 C 0.49308 0.11824 0.19653 0.0
C367 C 0.48365 0.08647 0.20315 0.0
H368 H 0.48433 0.16816 0.20504 0.0
C369 C 0.46072 0.08051 0.22723 0.0
H370 H 0.51104 0.12347 0.17834 0.0
C371 C 0.44544 0.1061 0.24254 0.0
C372 C 0.45294 0.13791 0.23389 0.0
H373 H 0.4533 0.05617 0.23304 0.0
H374 H 0.42658 0.10093 0.2598 0.0
C375 C 0.47781 0.14382 0.21181 0.0
C376 C 0.64351 0.26401 0.49929 0.0
C377 C 0.63764 0.24184 0.52412 0.0
H378 H 0.62307 0.29752 0.46608 0.0
C379 C 0.60587 0.23303 0.53151 0.0
H380 H 0.66783 0.27089 0.49285 0.0
C381 C 0.58026 0.24829 0.51621 0.0
C382 C 0.58616 0.27248 0.49335 0.0
H383 H 0.60073 0.21569 0.55032 0.0
H384 H 0.55594 0.24235 0.52356 0.0
C385 C 0.6179 0.27924 0.48397 0.0
C386 C 0.97601 0.33237 0.76444 0.0
C387 C 0.95144 0.33805 0.74197 0.0
H388 H 0.00853 0.35308 0.79838 0.0
C389 C 0.94373 0.36978 0.73322 0.0
H390 H 0.98266 0.30809 0.77131 0.0
C391 C 0.95849 0.39551 0.74873 0.0
C392 C 0.98114 0.38978 0.77313 0.0
H393 H 0.92511 0.37479 0.71567 0.0
H394 H 0.95093 0.41977 0.74276 0.0
C395 C -0.0092 0.35811 0.77992 0.0
C396 C 0.86986 0.74353 0.03086 0.0
C397 C 0.83804 0.73482 0.02364 0.0
H398 H 0.91974 0.73404 0.02278 0.0
C399 C 0.83202 0.71262 -0.00107 0.0
H400 H 0.87513 0.7609 0.04957 0.0
C401 C 0.85754 0.69727 0.98361 0.0
C402 C 0.88934 0.70394 -0.00716 0.0
H403 H 0.80765 0.70579 -0.00737 0.0
H404 H 0.85225 0.67896 0.96583 0.0
C405 C 0.89538 0.72816 0.01554 0.0
C406 C 0.49953 0.64413 0.26447 0.0
C407 C 0.52397 0.63832 0.24189 0.0
H408 H 0.46696 0.62359 0.29855 0.0
C409 C 0.53138 0.60655 0.23312 0.0
H410 H 0.4931 0.66845 0.27136 0.0
C411 C 0.51647 0.58089 0.2487 0.0
C412 C 0.49395 0.58674 0.27317 0.0
H413 H 0.5499 0.60143 0.21548 0.0
H414 H 0.5238 0.55659 0.24269 0.0
C415 C 0.48458 0.61847 0.28001 0.0
C416 C 0.21133 0.47634 0.14366 0.0
C417 C 0.23387 0.45186 0.13779 0.0
H418 H 0.17717 0.50893 0.12327 0.0
C419 C 0.24239 0.44431 0.106 0.0
H420 H 0.20461 0.48287 0.16799 0.0
C421 C 0.22666 0.45918 0.08042 0.0
C422 C 0.20227 0.48179 0.08635 0.0
H423 H 0.25997 0.42574 0.10084 0.0
H424 H 0.23251 0.45178 0.05612 0.0
C425 C 0.19563 0.49124 0.11808 0.0
C426 C 0.72811 0.01592 0.89581 0.0
C427 C 0.70391 -0.00697 0.89027 0.0
H428 H 0.76062 0.04978 0.87482 0.0
C429 C 0.69709 0.98328 0.85868 0.0
H430 H 0.7341 0.02355 0.92 0.0
C431 C 0.7122 -0.00169 0.83284 0.0
C432 C 0.73435 0.02321 0.83833 0.0
H433 H 0.67879 0.96535 0.85379 0.0
H434 H 0.70524 -0.00838 0.80863 0.0
C435 C 0.74328 0.03091 0.86996 0.0
C436 C 0.73304 0.94506 0.36897 0.0
C437 C 0.74217 0.95255 0.33732 0.0
H438 H 0.74185 0.95288 0.41899 0.0
C439 C 0.76428 0.97746 0.33171 0.0
H440 H 0.71573 0.92617 0.37391 0.0
C441 C 0.77916 -0.00724 0.35747 0.0
C442 C 0.77214 0.98326 0.38912 0.0
H443 H 0.77139 0.98399 0.30747 0.0
H444 H 0.79743 0.01071 0.3525 0.0
C445 C 0.74798 0.96033 0.39475 0.0
C446 C 0.23304 0.53051 0.6068 0.0
C447 C 0.24189 0.52305 0.63854 0.0
H448 H 0.24253 0.52305 0.55686 0.0
C449 C 0.26455 0.49865 0.6443 0.0
H450 H 0.21534 0.549 0.60172 0.0
C451 C 0.2801 0.4838 0.61863 0.0
C452 C 0.27316 0.49321 0.58693 0.0
H453 H 0.27152 0.4922 0.66859 0.0
H454 H 0.29869 0.46621 0.62372 0.0
C455 C 0.24861 0.51568 0.58113 0.0
C456 C 0.24573 0.39233 0.45701 0.0
C457 C 0.2709 0.39214 0.47951 0.0
H458 H 0.21619 0.36394 0.42579 0.0
C459 C 0.28116 0.36287 0.4929 0.0
H460 H 0.23781 0.41475 0.44621 0.0
C461 C 0.26956 0.33388 0.48053 0.0
C462 C 0.2469 0.33407 0.4555 0.0
H463 H 0.3009 0.36229 0.50995 0.0
H464 H 0.28047 0.31147 0.48833 0.0
C465 C 0.23336 0.36334 0.44541 0.0
C466 C 0.89175 0.01806 0.73008 0.0
C467 C 0.89145 -0.00409 0.70463 0.0
H468 H 0.86352 0.04906 0.76003 0.0
C469 C 0.86214 0.98282 0.69424 0.0
H470 H 0.91421 0.02863 0.73809 0.0
C471 C 0.83321 -0.0048 0.70602 0.0
C472 C 0.83352 0.01995 0.72896 0.0
H473 H 0.86148 0.96604 0.67429 0.0
H474 H 0.81078 0.98767 0.69504 0.0
C475 C 0.86282 0.02966 0.74261 0.0
C476 C 0.20704 0.6416 0.98081 0.0
C477 C 0.22957 0.64144 0.95565 0.0
H478 H 0.1756 0.6132 0.0102 0.0
C479 C 0.24285 0.61216 0.94534 0.0
H480 H 0.19632 0.66402 -0.01124 0.0
C481 C 0.2303 0.58316 0.95683 0.0
C482 C 0.20521 0.58336 0.97943 0.0
H483 H 0.25991 0.61159 0.9256 0.0
H484 H 0.23799 0.56079 0.94585 0.0
C485 C 0.19527 0.61259 -0.00693 0.0
C486 C 0.58708 0.95943 0.22891 0.0
C487 C 0.58729 0.98047 0.20248 0.0
H488 H 0.61525 0.92896 0.25954 0.0
C489 C 0.61666 -0.00798 0.19052 0.0
H490 H 0.56455 0.94998 0.23809 0.0
C491 C 0.64554 0.97927 0.20202 0.0
C492 C 0.64519 0.95564 0.2262 0.0
H493 H 0.61721 0.00785 0.16976 0.0
H494 H 0.66785 0.98564 0.19008 0.0
C495 C 0.61602 0.94747 0.24114 0.0
C496 C 0.76865 0.14204 0.49685 0.0
C497 C 0.74608 0.14163 0.52197 0.0
H498 H 0.79996 0.11392 0.46711 0.0
C499 C 0.73275 0.11226 0.532 0.0
H500 H 0.7794 0.16453 0.48909 0.0
C501 C 0.74519 0.08338 0.52019 0.0
C502 C 0.77023 0.08378 0.49753 0.0
H503 H 0.71565 0.11151 0.5517 0.0
H504 H 0.73741 0.06087 0.5309 0.0
C505 C 0.78031 0.11316 0.48427 0.0
C506 C 0.10951 0.53345 0.73331 0.0
C507 C 0.13875 0.52181 0.74552 0.0
H508 H 0.05824 0.53405 0.73912 0.0
C509 C 0.13871 0.49583 0.76713 0.0
H510 H 0.10913 0.55386 0.71702 0.0
C511 C 0.10964 0.48387 0.77902 0.0
C512 C 0.08057 0.49862 0.77017 0.0
H513 H 0.16112 0.48689 0.77707 0.0
H514 H 0.11018 0.46591 0.79797 0.0
C515 C 0.08048 0.52224 0.74599 0.0
C516 C 0.69673 0.86527 0.98612 0.0
C517 C 0.70528 0.89453 0.00059 0.0
H518 H 0.69915 0.81381 -0.01043 0.0
C519 C 0.72926 0.89499 0.02436 0.0
H520 H 0.67793 0.86445 0.96806 0.0
C521 C 0.74213 0.86615 0.03589 0.0
C522 C 0.73031 0.83672 0.02441 0.0
H523 H 0.7359 0.91739 0.03596 0.0
H524 H 0.75833 0.86682 0.05633 0.0
C525 C 0.7088 0.83638 -0.00161 0.0
C526 C 0.33621 0.48017 0.26669 0.0
C527 C 0.3366 0.45434 0.24496 0.0
H528 H 0.3642 0.51018 0.29783 0.0
C529 C 0.36604 0.44322 0.23277 0.0
H530 H 0.31364 0.48872 0.27661 0.0
C531 C 0.39486 0.45472 0.24562 0.0
C532 C 0.39436 0.47811 0.26996 0.0
H533 H 0.36677 0.42295 0.21637 0.0
H534 H 0.41728 0.44325 0.23878 0.0
C535 C 0.36507 0.49241 0.27876 0.0
C536 C 0.49216 0.28117 0.36279 0.0
C537 C 0.47865 0.27115 0.39206 0.0
H538 H 0.48784 0.28004 0.3114 0.0
C539 C 0.45607 0.24603 0.39235 0.0
H540 H 0.50926 0.30087 0.36212 0.0
C541 C 0.4446 0.23342 0.36343 0.0
C542 C 0.45488 0.24667 0.33411 0.0
H543 H 0.44518 0.23829 0.41477 0.0
H544 H 0.42495 0.21626 0.36408 0.0
C545 C 0.47992 0.26934 0.33385 0.0
C546 C -0.00821 0.19748 0.61048 0.0
C547 C 0.9774 0.20676 0.58138 0.0
H548 H -0.0117 0.1989 0.66192 0.0
C549 C 0.95406 0.2312 0.58129 0.0
H550 H 0.00952 0.17832 0.61101 0.0
C551 C 0.9427 0.24368 0.61032 0.0
C552 C 0.95389 0.23101 0.63954 0.0
H553 H 0.94252 0.2384 0.55903 0.0
H554 H 0.92247 0.26018 0.6099 0.0
C555 C 0.97967 0.20918 0.63954 0.0
C556 C 0.98322 0.69358 0.8613 0.0
C557 C -0.00385 0.70431 0.89055 0.0
H558 H -0.0118 0.69396 0.80997 0.0
C559 C 0.0183 0.7298 0.89066 0.0
H560 H 0.96647 0.67358 0.8608 0.0
C561 C 0.02996 0.74213 0.86164 0.0
C562 C 0.02032 0.72823 0.83245 0.0
H563 H 0.02877 0.73806 0.91306 0.0
H564 H 0.04931 0.75963 0.86222 0.0
C565 C -0.00434 0.70515 0.83231 0.0
C566 C 0.49577 0.76707 0.13946 0.0
C567 C 0.52152 0.7452 0.13918 0.0
H568 H 0.46576 0.79812 0.11127 0.0
C569 C 0.53241 0.7326 0.10985 0.0
H570 H 0.48738 0.77728 0.16194 0.0
C571 C 0.5208 0.74522 0.08094 0.0
C572 C 0.49754 0.76973 0.08129 0.0
H573 H 0.5526 0.71607 0.10921 0.0
H574 H 0.53214 0.73811 0.05856 0.0
C575 C 0.48342 0.77891 0.11053 0.0
C576 C 0.22072 0.29703 0.27589 0.0
C577 C 0.21447 0.30835 0.30705 0.0
H578 H 0.22406 0.30927 0.22588 0.0
C579 C 0.20007 0.33856 0.3112 0.0
H580 H 0.23113 0.27344 0.27227 0.0
C581 C 0.19653 0.35915 0.28491 0.0
C582 C 0.20675 0.34939 0.25423 0.0
H583 H 0.19469 0.3475 0.3351 0.0
H584 H 0.18943 0.3839 0.28917 0.0
C585 C 0.21604 0.31727 0.24936 0.0
C586 C 0.90832 0.96468 0.49866 0.0
C587 C 0.87645 0.95472 0.5038 0.0
H588 H 0.95195 0.98065 0.52124 0.0
C589 C 0.8672 0.94404 0.5345 0.0
H590 H 0.91594 0.97302 0.47515 0.0
C591 C 0.88788 0.94792 0.56063 0.0
C592 C 0.91768 0.96309 0.55626 0.0
H593 H 0.84265 0.93638 0.53897 0.0
H594 H 0.87923 0.94226 0.58459 0.0
C595 C 0.92864 0.96968 0.52502 0.0
C596 C 0.27971 0.61584 0.78549 0.0
C597 C 0.26963 0.62553 0.75472 0.0
H598 H 0.28147 0.62768 0.83561 0.0
C599 C 0.2605 0.65767 0.74962 0.0
H600 H 0.28669 0.59108 0.78993 0.0
C601 C 0.25585 0.67804 0.776 0.0
C602 C 0.26198 0.66683 0.80726 0.0
H603 H 0.25256 0.66561 0.72607 0.0
H604 H 0.24553 0.70166 0.7722 0.0
C605 C 0.27622 0.63656 0.81164 0.0
C606 C 0.54632 0.00815 0.02458 0.0
C607 C 0.55721 0.01503 0.05576 0.0
H608 H 0.55914 0.00445 0.97478 0.0
C609 C 0.58679 0.03066 0.05996 0.0
H610 H 0.52314 -0.00315 0.02094 0.0
C611 C 0.60746 0.03457 0.03381 0.0
C612 C 0.59842 0.02337 0.00327 0.0
H613 H 0.59538 0.03657 0.08386 0.0
H614 H 0.63192 0.04249 0.03823 0.0
C615 C 0.56663 0.01315 -0.00182 0.0
C616 C 0.71921 0.17905 0.70142 0.0
C617 C 0.71239 0.16801 0.67029 0.0
H618 H 0.72317 0.16644 0.75129 0.0
C619 C 0.69745 0.13806 0.66618 0.0
H620 H 0.73004 0.20245 0.70501 0.0
C621 C 0.694 0.11737 0.69241 0.0
C622 C 0.70486 0.12677 0.72297 0.0
H623 H 0.69163 0.12933 0.64231 0.0
H624 H 0.68648 0.09275 0.6881 0.0
C625 C 0.71465 0.15871 0.7279 0.0
C626 C 0.10706 0.44524 0.93997 0.0
C627 C 0.09783 0.45539 0.97083 0.0
H628 H 0.09478 0.44382 0.88994 0.0
C629 C 0.06592 0.46511 0.97618 0.0
H630 H 0.13165 0.4378 0.93533 0.0
C631 C 0.04541 0.47018 0.94996 0.0
C632 C 0.05624 0.46395 0.91861 0.0
H633 H 0.05833 0.4731 -0.00019 0.0
H634 H 0.022 0.48085 0.95396 0.0
C635 C 0.0862 0.44918 0.91398 0.0
C636 C 0.76254 0.81575 0.22899 0.0
C637 C 0.77305 0.84749 0.2241 0.0
H638 H 0.74637 0.77242 0.20597 0.0
C639 C 0.78471 0.85658 0.19371 0.0
H640 H 0.75349 0.80824 0.25228 0.0
C641 C 0.78107 0.83601 0.16748 0.0
C642 C 0.76523 0.8065 0.17143 0.0
H643 H 0.79285 0.88102 0.18945 0.0
H644 H 0.78737 0.84466 0.14367 0.0
C645 C 0.75783 0.79555 0.2025 0.0
C646 C 0.36788 0.53128 0.44048 0.0
C647 C 0.37722 0.52097 0.47128 0.0
H648 H 0.37997 0.53287 0.39039 0.0
C649 C 0.40916 0.51128 0.47649 0.0
H650 H 0.34327 0.5387 0.43595 0.0
C651 C 0.42957 0.5063 0.45018 0.0
C652 C 0.41862 0.51263 0.41887 0.0
H653 H 0.41685 0.50318 0.50007 0.0
H654 H 0.45299 0.49559 0.45406 0.0
C655 C 0.38865 0.52743 0.41439 0.0
C656 C 0.24928 0.21489 0.31708 0.0
C657 C 0.25431 0.2053 0.34908 0.0
H658 H 0.27201 0.2301 0.27323 0.0
C659 C 0.28497 0.19469 0.35855 0.0
H660 H 0.22581 0.22321 0.3093 0.0
C661 C 0.31115 0.19814 0.33783 0.0
C662 C 0.30691 0.21284 0.30777 0.0
H663 H 0.28935 0.18734 0.38321 0.0
H664 H 0.33508 0.19251 0.34659 0.0
C665 C 0.2757 0.21945 0.2967 0.0
C666 C 0.02987 0.03636 0.60752 0.0
C667 C 0.01986 0.00551 0.59807 0.0
H668 H 0.03107 0.08654 0.59559 0.0
C669 C 0.01022 0.00037 0.56612 0.0
H670 H 0.03724 0.04082 0.63214 0.0
C671 C 0.00505 0.02676 0.54581 0.0
C672 C 0.01111 0.05807 0.55686 0.0
H673 H 0.00235 0.97676 0.55836 0.0
H674 H -0.00555 0.0229 0.52237 0.0
C675 C 0.02581 0.06253 0.58685 0.0
C676 C 0.19045 0.78022 0.85795 0.0
C677 C 0.2212 0.76981 0.84854 0.0
H678 H 0.14035 0.78211 0.84593 0.0
C679 C 0.22633 0.76015 0.8166 0.0
H680 H 0.186 0.78762 0.88256 0.0
C681 C 0.19996 0.75537 0.79624 0.0
C682 C 0.1687 0.76185 0.80723 0.0
H683 H 0.24986 0.75197 0.80888 0.0
H684 H 0.20376 0.74472 0.77281 0.0
C685 C 0.16432 0.77657 0.83722 0.0
C686 C 0.44619 0.94002 0.10898 0.0
C687 C 0.45599 0.97096 0.09948 0.0
H688 H 0.44483 0.88992 0.09685 0.0
C689 C 0.46501 0.97633 0.06737 0.0
H690 H 0.43931 0.93537 0.13372 0.0
C691 C 0.46984 0.9501 0.04685 0.0
C692 C 0.464 0.9187 0.05786 0.0
H693 H 0.47273 1e-05 0.05957 0.0
H694 H 0.48007 0.95415 0.02325 0.0
C695 C 0.44986 0.91401 0.08811 0.0
C696 C 0.78324 0.28192 0.61791 0.0
C697 C 0.75276 0.27101 0.6276 0.0
H698 H 0.83348 0.28412 0.62926 0.0
C699 C 0.74813 0.26109 0.65956 0.0
H700 H 0.78731 0.28955 0.59328 0.0
C701 C 0.77481 0.25633 0.67954 0.0
C702 C 0.80585 0.26314 0.66814 0.0
H703 H 0.72479 0.25257 0.66751 0.0
H704 H 0.77144 0.24535 0.70291 0.0
C705 C 0.80968 0.2783 0.63825 0.0
C706 C 0.96296 0.49911 0.90971 0.0
C707 C 0.95265 0.50421 0.87796 0.0
H708 H 0.97938 0.5218 0.9531 0.0
C709 C 0.94172 0.53487 0.8688 0.0
H710 H 0.97147 0.47562 0.91726 0.0
C711 C 0.94577 0.56104 0.88939 0.0
C712 C 0.96134 0.55675 0.91899 0.0
H713 H 0.93377 0.5393 0.84435 0.0
H714 H 0.93997 0.58498 0.88075 0.0
C715 C 0.96811 0.52551 0.92993 0.0
C716 C 0.70096 0.71883 0.17901 0.0
C717 C 0.6699 0.71239 0.16747 0.0
H718 H 0.75103 0.72238 0.16716 0.0
C719 C 0.66606 0.69763 0.13743 0.0
H720 H 0.70433 0.72954 0.20248 0.0
C721 C 0.69254 0.69407 0.11711 0.0
C722 C 0.72307 0.70468 0.12697 0.0
H723 H 0.64225 0.6921 0.12832 0.0
H724 H 0.68848 0.68682 0.0924 0.0
C725 C 0.72767 0.71411 0.15906 0.0
C726 C 0.5327 0.44126 0.36871 0.0
C727 C 0.52192 0.47193 0.37795 0.0
H728 H 0.53448 0.39111 0.38065 0.0
C729 C 0.51179 0.47695 0.40976 0.0
H730 H 0.5405 0.43689 0.3442 0.0
C731 C 0.50672 0.45049 0.43001 0.0
C732 C 0.5134 0.41927 0.41904 0.0
H733 H 0.50337 0.50043 0.41737 0.0
H734 H 0.49562 0.45418 0.45326 0.0
C735 C 0.52875 0.41504 0.38933 0.0
C736 C 0.31738 0.24836 0.21449 0.0
C737 C 0.34932 0.25305 0.20457 0.0
H738 H 0.27396 0.27159 0.23017 0.0
C739 C 0.35891 0.28356 0.19357 0.0
H740 H 0.3095 0.22501 0.22308 0.0
C741 C 0.33848 0.30996 0.1971 0.0
C742 C 0.3086 0.30608 0.21224 0.0
H743 H 0.38353 0.28767 0.18593 0.0
H744 H 0.3474 0.33378 0.19121 0.0
C745 C 0.29731 0.27501 0.21916 0.0
C746 C 0.79699 0.19974 0.7561 0.0
C747 C 0.80829 0.1685 0.7622 0.0
H748 H 0.80928 0.24975 0.7528 0.0
C749 C 0.83858 0.16419 0.77636 0.0
H750 H 0.77334 0.20347 0.74587 0.0
C751 C 0.85922 0.19042 0.77983 0.0
C752 C 0.84945 0.22119 0.76979 0.0
H753 H 0.84752 0.14022 0.78161 0.0
H754 H 0.884 0.18605 0.78677 0.0
C755 C 0.8173 0.2262 0.76071 0.0
C756 C 0.03511 0.60887 0.03101 0.0
C757 C 0.00431 0.59949 0.02078 0.0
H758 H 0.08521 0.59676 0.03264 0.0
C759 C -0.00092 0.56748 0.01136 0.0
H760 H 0.03964 0.63354 0.03822 0.0
C761 C 0.0254 0.54703 0.00651 0.0
C762 C 0.05671 0.55801 0.01273 0.0
H763 H 0.9755 0.55977 0.00333 0.0
H764 H 0.02152 0.52357 -0.00407 0.0
C765 C 0.0612 0.58806 0.02731 0.0
C766 C 0.67936 0.77566 0.25562 0.0
C767 C 0.66835 0.80704 0.2615 0.0
H768 H 0.66658 0.72578 0.25239 0.0
C769 C 0.63794 0.81169 0.27531 0.0
H770 H 0.70307 0.77164 0.24567 0.0
C771 C 0.61698 0.78568 0.27867 0.0
C772 C 0.62655 0.75477 0.26889 0.0
H773 H 0.6292 0.83575 0.28037 0.0
H774 H 0.59218 0.79031 0.28536 0.0
C775 C 0.65872 0.74942 0.26011 0.0
C776 C 0.45026 0.4293 0.50671 0.0
C777 C 0.41897 0.41832 0.51306 0.0
H778 H 0.50015 0.41657 0.50349 0.0
C779 C 0.41453 0.38836 0.52792 0.0
H780 H 0.45409 0.45273 0.49596 0.0
C781 C 0.44063 0.36759 0.53174 0.0
C782 C 0.47139 0.37692 0.52131 0.0
H783 H 0.39053 0.37968 0.53339 0.0
H784 H 0.43612 0.34296 0.53916 0.0
C785 C 0.4766 0.40889 0.51165 0.0
C786 C 0.17918 0.70029 0.71902 0.0
C787 C 0.16799 0.66918 0.71224 0.0
H788 H 0.16688 0.75028 0.72255 0.0
C789 C 0.13825 0.6652 0.69688 0.0
H790 H 0.20246 0.70377 0.73014 0.0
C791 C 0.1178 0.69155 0.69301 0.0
C792 C 0.12724 0.72209 0.70391 0.0
H793 H 0.12942 0.64134 0.69107 0.0
H794 H 0.09326 0.68735 0.68521 0.0
C795 C 0.15911 0.72689 0.71404 0.0
C796 C 0.5355 0.86947 0.94405 0.0
C797 C 0.50469 0.87862 0.95448 0.0
H798 H 0.5856 0.88157 0.94273 0.0
C799 C 0.49944 0.9104 0.96463 0.0
H800 H 0.54005 0.84498 0.93625 0.0
C801 C 0.52575 0.93073 0.96994 0.0
C802 C 0.55708 0.91987 0.96355 0.0
H803 H 0.47584 0.91795 0.97279 0.0
H804 H 0.52184 0.95399 0.98093 0.0
C805 C 0.56158 0.89016 0.94827 0.0
C806 C 0.91366 0.08753 0.44737 0.0
C807 C 0.91815 0.05771 0.46251 0.0
H808 H 0.93519 0.13281 0.43562 0.0
C809 C 0.94946 0.04681 0.46891 0.0
H810 H 0.88965 0.09614 0.44183 0.0
C811 C 0.97577 0.06719 0.46376 0.0
C812 C 0.97053 0.09906 0.45377 0.0
H813 H 0.95334 0.02347 0.47983 0.0
H814 H -0.00065 0.0596 0.47196 0.0
C815 C 0.93974 0.10827 0.4433 0.0
loop_
_geom_bond_atom_site_label_1
_geom_bond_atom_site_label_2
_geom_bond_distance
_geom_bond_site_symmetry_2
_ccdc_geom_bond_type
Co0 O1 2.216 . S
Co0 O2 2.091 . S
Co0 O4 2.004 . S
Co0 O10 2.021 . S
Co0 O12 2.137 . S
Co0 O13 2.244 . S
O1 Co0 2.216 . S
O1 C8 1.247 . S
O2 Co0 2.091 . S
O2 C8 1.261 . S
C3 O12 1.247 . S
C3 O13 1.272 . S
O4 Co0 2.004 . S
O4 C9 1.259 . S
Co5 O6 2.061 . S
Co5 O11 2.052 . S
Co5 O13 2.135 . S
O6 Co5 2.061 . S
O6 C9 1.235 . S
C7 O10 1.238 . S
C7 O11 1.241 . S
C8 O1 1.247 . S
C8 O2 1.261 . S
C9 O4 1.259 . S
C9 O6 1.235 . S
O10 Co0 2.021 . S
O10 C7 1.238 . S
O11 Co5 2.052 . S
O11 C7 1.241 . S
O12 Co0 2.137 . S
O12 C3 1.247 . S
O13 Co0 2.244 . S
O13 C3 1.272 . S
O13 Co5 2.135 . S
Co14 O15 2.216 . S
Co14 O16 2.091 . S
Co14 O18 2.004 . S
Co14 O24 2.021 . S
Co14 O26 2.137 . S
Co14 O27 2.244 . S
O15 Co14 2.216 . S
O15 C22 1.247 . S
O16 Co14 2.091 . S
O16 C22 1.261 . S
C17 O26 1.247 . S
C17 O27 1.272 . S
O18 Co14 2.004 . S
O18 C23 1.259 . S
Co19 O20 2.061 1_545 S
Co19 O25 2.052 1_545 S
Co19 O27 2.135 1_545 S
O20 Co19 2.061 1_565 S
O20 C23 1.235 . S
C21 O24 1.238 . S
C21 O25 1.241 . S
C22 O15 1.247 . S
C22 O16 1.261 . S
C23 O18 1.259 . S
C23 O20 1.235 . S
O24 Co14 2.021 . S
O24 C21 1.238 . S
O25 Co19 2.052 1_565 S
O25 C21 1.241 . S
O26 Co14 2.137 . S
O26 C17 1.247 . S
O27 Co14 2.244 . S
O27 C17 1.272 . S
O27 Co19 2.135 1_565 S
Co28 O29 2.216 . S
Co28 O30 2.091 . S
Co28 O32 2.004 . S
Co28 O38 2.021 . S
Co28 O40 2.137 . S
Co28 O41 2.244 . S
O29 Co28 2.216 . S
O29 C36 1.247 . S
O30 Co28 2.091 . S
O30 C36 1.261 . S
C31 O40 1.247 . S
C31 O41 1.272 . S
O32 Co28 2.004 . S
O32 C37 1.259 . S
Co33 O34 2.061 . S
Co33 O39 2.052 . S
Co33 O41 2.135 . S
O34 Co33 2.061 . S
O34 C37 1.235 . S
C35 O38 1.238 . S
C35 O39 1.241 . S
C36 O29 1.247 . S
C36 O30 1.261 . S
C37 O32 1.259 . S
C37 O34 1.235 . S
O38 Co28 2.021 . S
O38 C35 1.238 . S
O39 Co33 2.052 . S
O39 C35 1.241 . S
O40 Co28 2.137 . S
O40 C31 1.247 . S
O41 Co28 2.244 . S
O41 C31 1.272 . S
O41 Co33 2.135 . S
Co42 O43 2.216 . S
Co42 O44 2.091 . S
Co42 O46 2.004 . S
Co42 O52 2.021 . S
Co42 O54 2.137 . S
Co42 O55 2.244 . S
O43 Co42 2.216 . S
O43 C50 1.247 . S
O44 Co42 2.091 . S
O44 C50 1.261 . S
C45 O54 1.247 . S
C45 O55 1.272 . S
O46 Co42 2.004 . S
O46 C51 1.259 . S
Co47 O48 2.061 1_565 S
Co47 O53 2.052 1_565 S
Co47 O55 2.135 1_565 S
O48 Co47 2.061 1_545 S
O48 C51 1.235 . S
C49 O52 1.238 . S
C49 O53 1.241 . S
C50 O43 1.247 . S
C50 O44 1.261 . S
C51 O46 1.259 . S
C51 O48 1.235 . S
O52 Co42 2.021 . S
O52 C49 1.238 . S
O53 Co47 2.052 1_545 S
O53 C49 1.241 . S
O54 Co42 2.137 . S
O54 C45 1.247 . S
O55 Co42 2.244 . S
O55 C45 1.272 . S
O55 Co47 2.135 1_545 S
Co56 O57 2.216 . S
Co56 O58 2.091 . S
Co56 O60 2.004 . S
Co56 O66 2.021 . S
Co56 O68 2.137 . S
Co56 O69 2.244 . S
O57 Co56 2.216 . S
O57 C64 1.247 . S
O58 Co56 2.091 . S
O58 C64 1.261 . S
C59 O68 1.247 . S
C59 O69 1.272 . S
O60 Co56 2.004 . S
O60 C65 1.259 . S
Co61 O62 2.061 . S
Co61 O67 2.052 . S
Co61 O69 2.135 . S
O62 Co61 2.061 . S
O62 C65 1.235 . S
C63 O66 1.238 . S
C63 O67 1.241 . S
C64 O57 1.247 . S
C64 O58 1.261 . S
C65 O60 1.259 . S
C65 O62 1.235 . S
O66 Co56 2.021 . S
O66 C63 1.238 . S
O67 Co61 2.052 . S
O67 C63 1.241 . S
O68 Co56 2.137 . S
O68 C59 1.247 . S
O69 Co56 2.244 . S
O69 C59 1.272 . S
O69 Co61 2.135 . S
Co70 O71 2.216 . S
Co70 O72 2.091 . S
Co70 O74 2.004 . S
Co70 O80 2.021 . S
Co70 O82 2.137 . S
Co70 O83 2.244 . S
O71 Co70 2.216 . S
O71 C78 1.247 . S
O72 Co70 2.091 . S
O72 C78 1.261 . S
C73 O82 1.247 . S
C73 O83 1.272 . S
O74 Co70 2.004 . S
O74 C79 1.259 . S
Co75 O76 2.061 . S
Co75 O81 2.052 . S
Co75 O83 2.135 . S
O76 Co75 2.061 . S
O76 C79 1.235 . S
C77 O80 1.238 . S
C77 O81 1.241 . S
C78 O71 1.247 . S
C78 O72 1.261 . S
C79 O74 1.259 . S
C79 O76 1.235 . S
O80 Co70 2.021 . S
O80 C77 1.238 . S
O81 Co75 2.052 . S
O81 C77 1.241 . S
O82 Co70 2.137 . S
O82 C73 1.247 . S
O83 Co70 2.244 . S
O83 C73 1.272 . S
O83 Co75 2.135 . S
Co84 O85 2.216 . S
Co84 O86 2.091 . S
Co84 O88 2.004 . S
Co84 O94 2.021 . S
Co84 O96 2.137 . S
Co84 O97 2.244 . S
O85 Co84 2.216 . S
O85 C92 1.247 . S
O86 Co84 2.091 . S
O86 C92 1.261 . S
C87 O96 1.247 . S
C87 O97 1.272 . S
O88 Co84 2.004 . S
O88 C93 1.259 . S
Co89 O90 2.061 . S
Co89 O95 2.052 . S
Co89 O97 2.135 . S
O90 Co89 2.061 . S
O90 C93 1.235 . S
C91 O94 1.238 . S
C91 O95 1.241 . S
C92 O85 1.247 . S
C92 O86 1.261 . S
C93 O88 1.259 . S
C93 O90 1.235 . S
O94 Co84 2.021 . S
O94 C91 1.238 . S
O95 Co89 2.052 . S
O95 C91 1.241 . S
O96 Co84 2.137 . S
O96 C87 1.247 . S
O97 Co84 2.244 . S
O97 C87 1.272 . S
O97 Co89 2.135 . S
Co98 O99 2.216 . S
Co98 O100 2.091 . S
Co98 O102 2.004 . S
Co98 O108 2.021 . S
Co98 O110 2.137 . S
Co98 O111 2.244 . S
O99 Co98 2.216 . S
O99 C106 1.247 . S
O100 Co98 2.091 . S
O100 C106 1.261 . S
C101 O110 1.247 . S
C101 O111 1.272 . S
O102 Co98 2.004 . S
O102 C107 1.259 . S
Co103 O104 2.061 . S
Co103 O109 2.052 . S
Co103 O111 2.135 . S
O104 Co103 2.061 . S
O104 C107 1.235 . S
C105 O108 1.238 . S
C105 O109 1.241 . S
C106 O99 1.247 . S
C106 O100 1.261 . S
C107 O102 1.259 . S
C107 O104 1.235 . S
O108 Co98 2.021 . S
O108 C105 1.238 . S
O109 Co103 2.052 . S
O109 C105 1.241 . S
O110 Co98 2.137 . S
O110 C101 1.247 . S
O111 Co98 2.244 . S
O111 C101 1.272 . S
O111 Co103 2.135 . S
Co112 O113 2.216 . S
Co112 O114 2.091 . S
Co112 O116 2.004 . S
Co112 O122 2.021 . S
Co112 O124 2.137 . S
Co112 O125 2.244 . S
O113 Co112 2.216 . S
O113 C120 1.247 . S
O114 Co112 2.091 . S
O114 C120 1.261 . S
C115 O124 1.247 . S
C115 O125 1.272 . S
O116 Co112 2.004 . S
O116 C121 1.259 . S
Co117 O118 2.061 . S
Co117 O123 2.052 . S
Co117 O125 2.135 . S
O118 Co117 2.061 . S
O118 C121 1.235 . S
C119 O122 1.238 . S
C119 O123 1.241 . S
C120 O113 1.247 . S
C120 O114 1.261 . S
C121 O116 1.259 . S
C121 O118 1.235 . S
O122 Co112 2.021 . S
O122 C119 1.238 . S
O123 Co117 2.052 . S
O123 C119 1.241 . S
O124 Co112 2.137 . S
O124 C115 1.247 . S
O125 Co112 2.244 . S
O125 C115 1.272 . S
O125 Co117 2.135 . S
Co126 O127 2.216 . S
Co126 O128 2.091 . S
Co126 O130 2.004 . S
Co126 O136 2.021 . S
Co126 O138 2.137 . S
Co126 O139 2.244 . S
O127 Co126 2.216 . S
O127 C134 1.247 . S
O128 Co126 2.091 . S
O128 C134 1.261 . S
C129 O138 1.247 . S
C129 O139 1.272 . S
O130 Co126 2.004 . S
O130 C135 1.259 . S
Co131 O132 2.061 1_655 S
Co131 O137 2.052 1_655 S
Co131 O139 2.135 1_655 S
O132 Co131 2.061 1_455 S
O132 C135 1.235 . S
C133 O136 1.238 . S
C133 O137 1.241 . S
C134 O127 1.247 . S
C134 O128 1.261 . S
C135 O130 1.259 . S
C135 O132 1.235 . S
O136 Co126 2.021 . S
O136 C133 1.238 . S
O137 Co131 2.052 1_455 S
O137 C133 1.241 . S
O138 Co126 2.137 . S
O138 C129 1.247 . S
O139 Co126 2.244 . S
O139 C129 1.272 . S
O139 Co131 2.135 1_455 S
Co140 O141 2.216 . S
Co140 O142 2.091 . S
Co140 O144 2.004 . S
Co140 O150 2.021 . S
Co140 O152 2.137 . S
Co140 O153 2.244 . S
O141 Co140 2.216 . S
O141 C148 1.247 . S
O142 Co140 2.091 . S
O142 C148 1.261 . S
C143 O152 1.247 . S
C143 O153 1.272 . S
O144 Co140 2.004 . S
O144 C149 1.259 . S
Co145 O146 2.061 . S
Co145 O151 2.052 . S
Co145 O153 2.135 . S
O146 Co145 2.061 . S
O146 C149 1.235 . S
C147 O150 1.238 . S
C147 O151 1.241 . S
C148 O141 1.247 . S
C148 O142 1.261 . S
C149 O144 1.259 . S
C149 O146 1.235 . S
O150 Co140 2.021 . S
O150 C147 1.238 . S
O151 Co145 2.052 . S
O151 C147 1.241 . S
O152 Co140 2.137 . S
O152 C143 1.247 . S
O153 Co140 2.244 . S
O153 C143 1.272 . S
O153 Co145 2.135 . S
Co154 O155 2.216 . S
Co154 O156 2.091 . S
Co154 O158 2.004 . S
Co154 O164 2.021 . S
Co154 O166 2.137 . S
Co154 O167 2.244 . S
O155 Co154 2.216 . S
O155 C162 1.247 . S
O156 Co154 2.091 . S
O156 C162 1.261 . S
C157 O166 1.247 . S
C157 O167 1.272 . S
O158 Co154 2.004 . S
O158 C163 1.259 . S
Co159 O160 2.061 . S
Co159 O165 2.052 . S
Co159 O167 2.135 . S
O160 Co159 2.061 . S
O160 C163 1.235 . S
C161 O164 1.238 . S
C161 O165 1.241 . S
C162 O155 1.247 . S
C162 O156 1.261 . S
C163 O158 1.259 . S
C163 O160 1.235 . S
O164 Co154 2.021 . S
O164 C161 1.238 . S
O165 Co159 2.052 . S
O165 C161 1.241 . S
O166 Co154 2.137 . S
O166 C157 1.247 . S
O167 Co154 2.244 . S
O167 C157 1.272 . S
O167 Co159 2.135 . S
Co168 O169 2.216 . S
Co168 O170 2.091 . S
Co168 O172 2.004 . S
Co168 O178 2.021 . S
Co168 O180 2.137 . S
Co168 O181 2.244 . S
O169 Co168 2.216 . S
O169 C176 1.247 . S
O170 Co168 2.091 . S
O170 C176 1.261 . S
C171 O180 1.247 . S
C171 O181 1.272 . S
O172 Co168 2.004 . S
O172 C177 1.259 . S
Co173 O174 2.061 . S
Co173 O179 2.052 . S
Co173 O181 2.135 . S
O174 Co173 2.061 . S
O174 C177 1.235 . S
C175 O178 1.238 . S
C175 O179 1.241 . S
C176 O169 1.247 . S
C176 O170 1.261 . S
C177 O172 1.259 . S
C177 O174 1.235 . S
O178 Co168 2.021 . S
O178 C175 1.238 . S
O179 Co173 2.052 . S
O179 C175 1.241 . S
O180 Co168 2.137 . S
O180 C171 1.247 . S
O181 Co168 2.244 . S
O181 C171 1.272 . S
O181 Co173 2.135 . S
Co182 O183 2.216 . S
Co182 O184 2.091 . S
Co182 O186 2.004 . S
Co182 O192 2.021 . S
Co182 O194 2.137 . S
Co182 O195 2.244 . S
O183 Co182 2.216 . S
O183 C190 1.247 . S
O184 Co182 2.091 . S
O184 C190 1.261 . S
C185 O194 1.247 . S
C185 O195 1.272 . S
O186 Co182 2.004 . S
O186 C191 1.259 . S
Co187 O188 2.061 1_455 S
Co187 O193 2.052 1_455 S
Co187 O195 2.135 1_455 S
O188 Co187 2.061 1_655 S
O188 C191 1.235 . S
C189 O192 1.238 . S
C189 O193 1.241 . S
C190 O183 1.247 . S
C190 O184 1.261 . S
C191 O186 1.259 . S
C191 O188 1.235 . S
O192 Co182 2.021 . S
O192 C189 1.238 . S
O193 Co187 2.052 1_655 S
O193 C189 1.241 . S
O194 Co182 2.137 . S
O194 C185 1.247 . S
O195 Co182 2.244 . S
O195 C185 1.272 . S
O195 Co187 2.135 1_655 S
Co196 O197 2.216 . S
Co196 O198 2.091 . S
Co196 O200 2.004 . S
Co196 O206 2.021 . S
Co196 O208 2.137 . S
Co196 O209 2.244 . S
O197 Co196 2.216 . S
O197 C204 1.247 . S
O198 Co196 2.091 . S
O198 C204 1.261 . S
C199 O208 1.247 . S
C199 O209 1.272 . S
O200 Co196 2.004 . S
O200 C205 1.259 . S
Co201 O202 2.061 . S
Co201 O207 2.052 . S
Co201 O209 2.135 . S
O202 Co201 2.061 . S
O202 C205 1.235 . S
C203 O206 1.238 . S
C203 O207 1.241 . S
C204 O197 1.247 . S
C204 O198 1.261 . S
C205 O200 1.259 . S
C205 O202 1.235 . S
O206 Co196 2.021 . S
O206 C203 1.238 . S
O207 Co201 2.052 . S
O207 C203 1.241 . S
O208 Co196 2.137 . S
O208 C199 1.247 . S
O209 Co196 2.244 . S
O209 C199 1.272 . S
O209 Co201 2.135 . S
Co210 O211 2.216 . S
Co210 O212 2.091 . S
Co210 O214 2.004 . S
Co210 O220 2.021 . S
Co210 O222 2.137 . S
Co210 O223 2.244 . S
O211 Co210 2.216 . S
O211 C218 1.247 . S
O212 Co210 2.091 . S
O212 C218 1.261 . S
C213 O222 1.247 . S
C213 O223 1.272 . S
O214 Co210 2.004 . S
O214 C219 1.259 . S
Co215 O216 2.061 . S
Co215 O221 2.052 . S
Co215 O223 2.135 . S
O216 Co215 2.061 . S
O216 C219 1.235 . S
C217 O220 1.238 . S
C217 O221 1.241 . S
C218 O211 1.247 . S
C218 O212 1.261 . S
C219 O214 1.259 . S
C219 O216 1.235 . S
O220 Co210 2.021 . S
O220 C217 1.238 . S
O221 Co215 2.052 . S
O221 C217 1.241 . S
O222 Co210 2.137 . S
O222 C213 1.247 . S
O223 Co210 2.244 . S
O223 C213 1.272 . S
O223 Co215 2.135 . S
Co224 O225 2.216 . S
Co224 O226 2.091 . S
Co224 O228 2.004 . S
Co224 O234 2.021 . S
Co224 O236 2.137 . S
Co224 O237 2.244 . S
O225 Co224 2.216 . S
O225 C232 1.247 . S
O226 Co224 2.091 . S
O226 C232 1.261 . S
C227 O236 1.247 . S
C227 O237 1.272 . S
O228 Co224 2.004 . S
O228 C233 1.259 . S
Co229 O230 2.061 . S
Co229 O235 2.052 . S
Co229 O237 2.135 . S
O230 Co229 2.061 . S
O230 C233 1.235 . S
C231 O234 1.238 . S
C231 O235 1.241 . S
C232 O225 1.247 . S
C232 O226 1.261 . S
C233 O228 1.259 . S
C233 O230 1.235 . S
O234 Co224 2.021 . S
O234 C231 1.238 . S
O235 Co229 2.052 . S
O235 C231 1.241 . S
O236 Co224 2.137 . S
O236 C227 1.247 . S
O237 Co224 2.244 . S
O237 C227 1.272 . S
O237 Co229 2.135 . S
Co238 O239 2.216 . S
Co238 O240 2.091 . S
Co238 O242 2.004 . S
Co238 O248 2.021 . S
Co238 O250 2.137 . S
Co238 O251 2.244 . S
O239 Co238 2.216 . S
O239 C246 1.247 . S
O240 Co238 2.091 . S
O240 C246 1.261 . S
C241 O250 1.247 . S
C241 O251 1.272 . S
O242 Co238 2.004 . S
O242 C247 1.259 . S
Co243 O244 2.061 . S
Co243 O249 2.052 . S
Co243 O251 2.135 . S
O244 Co243 2.061 . S
O244 C247 1.235 . S
C245 O248 1.238 . S
C245 O249 1.241 . S
C246 O239 1.247 . S
C246 O240 1.261 . S
C247 O242 1.259 . S
C247 O244 1.235 . S
O248 Co238 2.021 . S
O248 C245 1.238 . S
O249 Co243 2.052 . S
O249 C245 1.241 . S
O250 Co238 2.137 . S
O250 C241 1.247 . S
O251 Co238 2.244 . S
O251 C241 1.272 . S
O251 Co243 2.135 . S
Co252 O253 2.216 . S
Co252 O254 2.091 . S
Co252 O256 2.004 . S
Co252 O262 2.021 . S
Co252 O264 2.137 . S
Co252 O265 2.244 . S
O253 Co252 2.216 . S
O253 C260 1.247 . S
O254 Co252 2.091 . S
O254 C260 1.261 . S
C255 O264 1.247 . S
C255 O265 1.272 . S
O256 Co252 2.004 . S
O256 C261 1.259 . S
Co257 O258 2.061 1_556 S
Co257 O263 2.052 1_556 S
Co257 O265 2.135 1_556 S
O258 Co257 2.061 1_554 S
O258 C261 1.235 . S
C259 O262 1.238 . S
C259 O263 1.241 . S
C260 O253 1.247 . S
C260 O254 1.261 . S
C261 O256 1.259 . S
C261 O258 1.235 . S
O262 Co252 2.021 . S
O262 C259 1.238 . S
O263 Co257 2.052 1_554 S
O263 C259 1.241 . S
O264 Co252 2.137 . S
O264 C255 1.247 . S
O265 Co252 2.244 . S
O265 C255 1.272 . S
O265 Co257 2.135 1_554 S
Co266 O267 2.216 . S
Co266 O268 2.091 . S
Co266 O270 2.004 . S
Co266 O276 2.021 . S
Co266 O278 2.137 . S
Co266 O279 2.244 . S
O267 Co266 2.216 . S
O267 C274 1.247 . S
O268 Co266 2.091 . S
O268 C274 1.261 . S
C269 O278 1.247 . S
C269 O279 1.272 . S
O270 Co266 2.004 . S
O270 C275 1.259 . S
Co271 O272 2.061 . S
Co271 O277 2.052 . S
Co271 O279 2.135 . S
O272 Co271 2.061 . S
O272 C275 1.235 . S
C273 O276 1.238 . S
C273 O277 1.241 . S
C274 O267 1.247 . S
C274 O268 1.261 . S
C275 O270 1.259 . S
C275 O272 1.235 . S
O276 Co266 2.021 . S
O276 C273 1.238 . S
O277 Co271 2.052 . S
O277 C273 1.241 . S
O278 Co266 2.137 . S
O278 C269 1.247 . S
O279 Co266 2.244 . S
O279 C269 1.272 . S
O279 Co271 2.135 . S
Co280 O281 2.216 . S
Co280 O282 2.091 . S
Co280 O284 2.004 . S
Co280 O290 2.021 . S
Co280 O292 2.137 . S
Co280 O293 2.244 . S
O281 Co280 2.216 . S
O281 C288 1.247 . S
O282 Co280 2.091 . S
O282 C288 1.261 . S
C283 O292 1.247 . S
C283 O293 1.272 . S
O284 Co280 2.004 . S
O284 C289 1.259 . S
Co285 O286 2.061 . S
Co285 O291 2.052 . S
Co285 O293 2.135 . S
O286 Co285 2.061 . S
O286 C289 1.235 . S
C287 O290 1.238 . S
C287 O291 1.241 . S
C288 O281 1.247 . S
C288 O282 1.261 . S
C289 O284 1.259 . S
C289 O286 1.235 . S
O290 Co280 2.021 . S
O290 C287 1.238 . S
O291 Co285 2.052 . S
O291 C287 1.241 . S
O292 Co280 2.137 . S
O292 C283 1.247 . S
O293 Co280 2.244 . S
O293 C283 1.272 . S
O293 Co285 2.135 . S
Co294 O295 2.216 . S
Co294 O296 2.091 . S
Co294 O298 2.004 . S
Co294 O304 2.021 . S
Co294 O306 2.137 . S
Co294 O307 2.244 . S
O295 Co294 2.216 . S
O295 C302 1.247 . S
O296 Co294 2.091 . S
O296 C302 1.261 . S
C297 O306 1.247 . S
C297 O307 1.272 . S
O298 Co294 2.004 . S
O298 C303 1.259 . S
Co299 O300 2.061 . S
Co299 O305 2.052 . S
Co299 O307 2.135 . S
O300 Co299 2.061 . S
O300 C303 1.235 . S
C301 O304 1.238 . S
C301 O305 1.241 . S
C302 O295 1.247 . S
C302 O296 1.261 . S
C303 O298 1.259 . S
C303 O300 1.235 . S
O304 Co294 2.021 . S
O304 C301 1.238 . S
O305 Co299 2.052 . S
O305 C301 1.241 . S
O306 Co294 2.137 . S
O306 C297 1.247 . S
O307 Co294 2.244 . S
O307 C297 1.272 . S
O307 Co299 2.135 . S
Co308 O309 2.216 . S
Co308 O310 2.091 . S
Co308 O312 2.004 . S
Co308 O318 2.021 . S
Co308 O320 2.137 . S
Co308 O321 2.244 . S
O309 Co308 2.216 . S
O309 C316 1.247 . S
O310 Co308 2.091 . S
O310 C316 1.261 . S
C311 O320 1.247 . S
C311 O321 1.272 . S
O312 Co308 2.004 . S
O312 C317 1.259 . S
Co313 O314 2.061 1_554 S
Co313 O319 2.052 1_554 S
Co313 O321 2.135 1_554 S
O314 Co313 2.061 1_556 S
O314 C317 1.235 . S
C315 O318 1.238 . S
C315 O319 1.241 . S
C316 O309 1.247 . S
C316 O310 1.261 . S
C317 O312 1.259 . S
C317 O314 1.235 . S
O318 Co308 2.021 . S
O318 C315 1.238 . S
O319 Co313 2.052 1_556 S
O319 C315 1.241 . S
O320 Co308 2.137 . S
O320 C311 1.247 . S
O321 Co308 2.244 . S
O321 C311 1.272 . S
O321 Co313 2.135 1_556 S
Co322 O323 2.216 . S
Co322 O324 2.091 . S
Co322 O326 2.004 . S
Co322 O332 2.021 . S
Co322 O334 2.137 . S
Co322 O335 2.244 . S
O323 Co322 2.216 . S
O323 C330 1.247 . S
O324 Co322 2.091 . S
O324 C330 1.261 . S
C325 O334 1.247 . S
C325 O335 1.272 . S
O326 Co322 2.004 . S
O326 C331 1.259 . S
Co327 O328 2.061 . S
Co327 O333 2.052 . S
Co327 O335 2.135 . S
O328 Co327 2.061 . S
O328 C331 1.235 . S
C329 O332 1.238 . S
C329 O333 1.241 . S
C330 O323 1.247 . S
C330 O324 1.261 . S
C331 O326 1.259 . S
C331 O328 1.235 . S
O332 Co322 2.021 . S
O332 C329 1.238 . S
O333 Co327 2.052 . S
O333 C329 1.241 . S
O334 Co322 2.137 . S
O334 C325 1.247 . S
O335 Co322 2.244 . S
O335 C325 1.272 . S
O335 Co327 2.135 . S
C336 C337 1.387 . S
C336 H340 0.950 . S
C336 C345 1.390 . S
C337 C336 1.387 . S
C337 C339 1.387 . S
H338 C345 0.950 . S
C339 C337 1.387 . S
C339 C341 1.390 . S
C339 H343 0.950 . S
H340 C336 0.950 . S
C341 C339 1.390 . S
C341 C342 1.387 . S
C341 H344 0.950 . S
C342 C341 1.387 . S
C342 C345 1.387 . S
H343 C339 0.950 . S
H344 C341 0.950 . S
C345 C336 1.390 . S
C345 H338 0.950 . S
C345 C342 1.387 . S
C346 C347 1.387 . S
C346 H350 0.950 . S
C346 C355 1.390 . S
C347 C346 1.387 . S
C347 C349 1.387 . S
H348 C355 0.950 . S
C349 C347 1.387 . S
C349 C351 1.390 . S
C349 H353 0.950 . S
H350 C346 0.950 . S
C351 C349 1.390 . S
C351 C352 1.387 . S
C351 H354 0.950 . S
C352 C351 1.387 . S
C352 C355 1.387 . S
H353 C349 0.950 . S
H354 C351 0.950 . S
C355 C346 1.390 . S
C355 H348 0.950 . S
C355 C352 1.387 . S
C356 C357 1.387 . S
C356 H360 0.950 . S
C356 C365 1.390 . S
C357 C356 1.387 . S
C357 C359 1.387 . S
H358 C365 0.952 . S
C359 C357 1.387 . S
C359 C361 1.390 . S
C359 H363 0.950 . S
H360 C356 0.950 . S
C361 C359 1.390 . S
C361 C362 1.387 . S
C361 H364 0.950 . S
C362 C361 1.387 . S
C362 C365 1.387 . S
H363 C359 0.950 . S
H364 C361 0.950 . S
C365 C356 1.390 . S
C365 H358 0.952 . S
C365 C362 1.387 . S
C366 C367 1.387 . S
C366 H370 0.950 . S
C366 C375 1.390 . S
C367 C366 1.387 . S
C367 C369 1.387 . S
H368 C375 0.950 . S
C369 C367 1.387 . S
C369 C371 1.390 . S
C369 H373 0.950 . S
H370 C366 0.950 . S
C371 C369 1.390 . S
C371 C372 1.387 . S
C371 H374 0.950 . S
C372 C371 1.387 . S
C372 C375 1.387 . S
H373 C369 0.950 . S
H374 C371 0.950 . S
C375 C366 1.390 . S
C375 H368 0.950 . S
C375 C372 1.387 . S
C376 C377 1.387 . S
C376 H380 0.950 . S
C376 C385 1.390 . S
C377 C376 1.387 . S
C377 C379 1.387 . S
H378 C385 0.950 . S
C379 C377 1.387 . S
C379 C381 1.390 . S
C379 H383 0.950 . S
H380 C376 0.950 . S
C381 C379 1.390 . S
C381 C382 1.387 . S
C381 H384 0.950 . S
C382 C381 1.387 . S
C382 C385 1.387 . S
H383 C379 0.950 . S
H384 C381 0.950 . S
C385 C376 1.390 . S
C385 H378 0.950 . S
C385 C382 1.387 . S
C386 C387 1.387 . S
C386 H390 0.950 . S
C386 C395 1.390 1_655 S
C387 C386 1.387 . S
C387 C389 1.387 . S
H388 C395 0.950 . S
C389 C387 1.387 . S
C389 C391 1.390 . S
C389 H393 0.950 . S
H390 C386 0.950 . S
C391 C389 1.390 . S
C391 C392 1.387 . S
C391 H394 0.950 . S
C392 C391 1.387 . S
C392 C395 1.387 1_655 S
H393 C389 0.950 . S
H394 C391 0.950 . S
C395 C386 1.390 1_455 S
C395 H388 0.950 . S
C395 C392 1.387 1_455 S
C396 C397 1.387 . S
C396 H400 0.950 . S
C396 C405 1.390 . S
C397 C396 1.387 . S
C397 C399 1.387 . S
H398 C405 0.950 . S
C399 C397 1.387 . S
C399 C401 1.390 1_554 S
C399 H403 0.950 . S
H400 C396 0.950 . S
C401 C399 1.390 1_556 S
C401 C402 1.387 1_556 S
C401 H404 0.950 . S
C402 C401 1.387 1_554 S
C402 C405 1.387 . S
H403 C399 0.950 . S
H404 C401 0.950 . S
C405 C396 1.390 . S
C405 H398 0.950 . S
C405 C402 1.387 . S
C406 C407 1.387 . S
C406 H410 0.950 . S
C406 C415 1.390 . S
C407 C406 1.387 . S
C407 C409 1.387 . S
H408 C415 0.950 . S
C409 C407 1.387 . S
C409 C411 1.390 . S
C409 H413 0.950 . S
H410 C406 0.950 . S
C411 C409 1.390 . S
C411 C412 1.387 . S
C411 H414 0.950 . S
C412 C411 1.387 . S
C412 C415 1.387 . S
H413 C409 0.950 . S
H414 C411 0.950 . S
C415 C406 1.390 . S
C415 H408 0.950 . S
C415 C412 1.387 . S
C416 C417 1.387 . S
C416 H420 0.950 . S
C416 C425 1.390 . S
C417 C416 1.387 . S
C417 C419 1.387 . S
H418 C425 0.950 . S
C419 C417 1.387 . S
C419 C421 1.390 . S
C419 H423 0.950 . S
H420 C416 0.950 . S
C421 C419 1.390 . S
C421 C422 1.387 . S
C421 H424 0.950 . S
C422 C421 1.387 . S
C422 C425 1.387 . S
H423 C419 0.950 . S
H424 C421 0.950 . S
C425 C416 1.390 . S
C425 H418 0.950 . S
C425 C422 1.387 . S
C426 C427 1.387 . S
C426 H430 0.950 . S
C426 C435 1.390 . S
C427 C426 1.387 . S
C427 C429 1.387 . S
H428 C435 0.950 . S
C429 C427 1.387 . S
C429 C431 1.390 . S
C429 H433 0.950 1_545 S
H430 C426 0.950 . S
C431 C429 1.390 . S
C431 C432 1.387 . S
C431 H434 0.950 . S
C432 C431 1.387 . S
C432 C435 1.387 . S
H433 C429 0.950 1_565 S
H434 C431 0.950 . S
C435 C426 1.390 . S
C435 H428 0.950 . S
C435 C432 1.387 . S
C436 C437 1.387 . S
C436 H440 0.950 . S
C436 C445 1.390 . S
C437 C436 1.387 . S
C437 C439 1.387 . S
H438 C445 0.950 . S
C439 C437 1.387 . S
C439 C441 1.390 . S
C439 H443 0.950 . S
H440 C436 0.950 . S
C441 C439 1.390 . S
C441 C442 1.387 . S
C441 H444 0.950 1_565 S
C442 C441 1.387 . S
C442 C445 1.387 . S
H443 C439 0.950 . S
H444 C441 0.950 1_545 S
C445 C436 1.390 . S
C445 H438 0.950 . S
C445 C442 1.387 . S
C446 C447 1.387 . S
C446 H450 0.950 . S
C446 C455 1.390 . S
C447 C446 1.387 . S
C447 C449 1.387 . S
H448 C455 0.950 . S
C449 C447 1.387 . S
C449 C451 1.390 . S
C449 H453 0.950 . S
H450 C446 0.950 . S
C451 C449 1.390 . S
C451 C452 1.387 . S
C451 H454 0.950 . S
C452 C451 1.387 . S
C452 C455 1.387 . S
H453 C449 0.950 . S
H454 C451 0.950 . S
C455 C446 1.390 . S
C455 H448 0.950 . S
C455 C452 1.387 . S
C456 C457 1.387 . S
C456 H460 0.950 . S
C456 C465 1.390 . S
C457 C456 1.387 . S
C457 C459 1.387 . S
H458 C465 0.950 . S
C459 C457 1.387 . S
C459 C461 1.390 . S
C459 H463 0.950 . S
H460 C456 0.950 . S
C461 C459 1.390 . S
C461 C462 1.387 . S
C461 H464 0.950 . S
C462 C461 1.387 . S
C462 C465 1.387 . S
H463 C459 0.950 . S
H464 C461 0.950 . S
C465 C456 1.390 . S
C465 H458 0.950 . S
C465 C462 1.387 . S
C466 C467 1.387 . S
C466 H470 0.950 . S
C466 C475 1.390 1_565 S
C467 C466 1.387 . S
C467 C469 1.380 1_565 S
H468 C475 0.950 . S
C469 C467 1.380 1_545 S
C469 C471 1.401 . S
C469 H473 0.947 1_545 S
H470 C466 0.950 . S
C471 C469 1.401 . S
C471 C472 1.387 . S
C471 H474 0.950 . S
C472 C471 1.387 . S
C472 C475 1.387 . S
H473 C469 0.947 1_565 S
H474 C471 0.950 . S
C475 C466 1.390 1_545 S
C475 H468 0.950 . S
C475 C472 1.387 . S
C476 C477 1.387 . S
C476 H480 0.950 . S
C476 C485 1.390 1_556 S
C477 C476 1.387 . S
C477 C479 1.387 . S
H478 C485 0.950 . S
C479 C477 1.387 . S
C479 C481 1.390 1_556 S
C479 H483 0.950 . S
H480 C476 0.950 . S
C481 C479 1.390 1_554 S
C481 C482 1.387 . S
C481 H484 0.950 . S
C482 C481 1.387 . S
C482 C485 1.387 . S
H483 C479 0.950 . S
H484 C481 0.950 . S
C485 C476 1.390 1_554 S
C485 H478 0.950 . S
C485 C482 1.387 . S
C486 C487 1.387 . S
C486 H490 0.950 . S
C486 C495 1.390 1_545 S
C487 C486 1.387 . S
C487 C489 1.387 1_545 S
H488 C495 0.950 1_545 S
C489 C487 1.387 1_565 S
C489 C491 1.390 . S
C489 H493 0.950 . S
H490 C486 0.950 . S
C491 C489 1.390 . S
C491 C492 1.387 . S
C491 H494 0.950 . S
C492 C491 1.387 . S
C492 C495 1.387 . S
H493 C489 0.950 . S
H494 C491 0.950 . S
C495 C486 1.390 1_565 S
C495 H488 0.950 1_565 S
C495 C492 1.387 . S
C496 C497 1.387 . S
C496 H500 0.950 . S
C496 C505 1.390 . S
C497 C496 1.387 . S
C497 C499 1.387 . S
H498 C505 0.950 . S
C499 C497 1.387 . S
C499 C501 1.390 . S
C499 H503 0.950 . S
H500 C496 0.950 . S
C501 C499 1.390 . S
C501 C502 1.387 . S
C501 H504 0.950 . S
C502 C501 1.387 . S
C502 C505 1.387 . S
H503 C499 0.950 . S
H504 C501 0.950 . S
C505 C496 1.390 . S
C505 H498 0.950 . S
C505 C502 1.387 . S
C506 C507 1.387 . S
C506 H510 0.950 . S
C506 C515 1.390 . S
C507 C506 1.387 . S
C507 C509 1.387 . S
H508 C515 0.950 . S
C509 C507 1.387 . S
C509 C511 1.390 . S
C509 H513 0.950 . S
H510 C506 0.950 . S
C511 C509 1.390 . S
C511 C512 1.387 . S
C511 H514 0.950 . S
C512 C511 1.387 . S
C512 C515 1.387 . S
H513 C509 0.950 . S
H514 C511 0.950 . S
C515 C506 1.390 . S
C515 H508 0.950 . S
C515 C512 1.387 . S
C516 C517 1.387 . S
C516 H520 0.950 . S
C516 C525 1.390 1_556 S
C517 C516 1.387 . S
C517 C519 1.387 . S
H518 C525 0.950 . S
C519 C517 1.387 . S
C519 C521 1.390 1_556 S
C519 H523 0.950 . S
H520 C516 0.950 . S
C521 C519 1.390 1_554 S
C521 C522 1.387 . S
C521 H524 0.950 . S
C522 C521 1.387 . S
C522 C525 1.387 . S
H523 C519 0.950 . S
H524 C521 0.950 . S
C525 C516 1.390 1_554 S
C525 H518 0.950 . S
C525 C522 1.387 . S
C526 C527 1.387 . S
C526 H530 0.950 . S
C526 C535 1.390 . S
C527 C526 1.387 . S
C527 C529 1.387 . S
H528 C535 0.950 . S
C529 C527 1.387 . S
C529 C531 1.390 . S
C529 H533 0.950 . S
H530 C526 0.950 . S
C531 C529 1.390 . S
C531 C532 1.387 . S
C531 H534 0.950 . S
C532 C531 1.387 . S
C532 C535 1.387 . S
H533 C529 0.950 . S
H534 C531 0.950 . S
C535 C526 1.390 . S
C535 H528 0.950 . S
C535 C532 1.387 . S
C536 C537 1.387 . S
C536 H540 0.950 . S
C536 C545 1.390 . S
C537 C536 1.387 . S
C537 C539 1.387 . S
H538 C545 0.950 . S
C539 C537 1.387 . S
C539 C541 1.390 . S
C539 H543 0.950 . S
H540 C536 0.950 . S
C541 C539 1.390 . S
C541 C542 1.387 . S
C541 H544 0.950 . S
C542 C541 1.387 . S
C542 C545 1.387 . S
H543 C539 0.950 . S
H544 C541 0.950 . S
C545 C536 1.390 . S
C545 H538 0.950 . S
C545 C542 1.387 . S
C546 C547 1.387 . S
C546 H550 0.950 . S
C546 C555 1.390 1_455 S
C547 C546 1.387 . S
C547 C549 1.387 1_455 S
H548 C555 0.950 . S
C549 C547 1.387 1_655 S
C549 C551 1.390 . S
C549 H553 0.950 . S
H550 C546 0.950 . S
C551 C549 1.390 . S
C551 C552 1.387 . S
C551 H554 0.950 . S
C552 C551 1.387 . S
C552 C555 1.387 . S
H553 C549 0.950 . S
H554 C551 0.950 . S
C555 C546 1.390 1_655 S
C555 H548 0.950 . S
C555 C552 1.387 . S
C556 C557 1.387 . S
C556 H560 0.950 . S
C556 C565 1.390 1_655 S
C557 C556 1.387 . S
C557 C559 1.387 . S
H558 C565 0.950 . S
C559 C557 1.387 . S
C559 C561 1.390 1_655 S
C559 H563 0.950 . S
H560 C556 0.950 . S
C561 C559 1.390 1_455 S
C561 C562 1.387 . S
C561 H564 0.950 . S
C562 C561 1.387 . S
C562 C565 1.387 . S
H563 C559 0.950 . S
H564 C561 0.950 . S
C565 C556 1.390 1_455 S
C565 H558 0.950 . S
C565 C562 1.387 . S
C566 C567 1.387 . S
C566 H570 0.950 . S
C566 C575 1.390 . S
C567 C566 1.387 . S
C567 C569 1.387 . S
H568 C575 0.950 . S
C569 C567 1.387 . S
C569 C571 1.390 . S
C569 H573 0.950 . S
H570 C566 0.950 . S
C571 C569 1.390 . S
C571 C572 1.387 . S
C571 H574 0.950 . S
C572 C571 1.387 . S
C572 C575 1.387 . S
H573 C569 0.950 . S
H574 C571 0.950 . S
C575 C566 1.390 . S
C575 H568 0.950 . S
C575 C572 1.387 . S
C576 C577 1.387 . S
C576 H580 0.950 . S
C576 C585 1.390 . S
C577 C576 1.387 . S
C577 C579 1.387 . S
H578 C585 0.950 . S
C579 C577 1.387 . S
C579 C581 1.390 . S
C579 H583 0.950 . S
H580 C576 0.950 . S
C581 C579 1.390 . S
C581 C582 1.387 . S
C581 H584 0.950 . S
C582 C581 1.387 . S
C582 C585 1.387 . S
H583 C579 0.950 . S
H584 C581 0.950 . S
C585 C576 1.390 . S
C585 H578 0.950 . S
C585 C582 1.387 . S
C586 C587 1.387 1_545 S
C586 H590 0.950 . S
C586 C595 1.390 1_545 S
C587 C586 1.387 1_565 S
C587 C589 1.387 . S
H588 C595 0.950 . S
C589 C587 1.387 . S
C589 C591 1.390 . S
C589 H593 0.950 . S
H590 C586 0.950 . S
C591 C589 1.390 . S
C591 C592 1.387 . S
C591 H594 0.950 . S
C592 C591 1.387 . S
C592 C595 1.387 . S
H593 C589 0.950 . S
H594 C591 0.950 . S
C595 C586 1.390 1_565 S
C595 H588 0.950 . S
C595 C592 1.387 . S
C596 C597 1.387 . S
C596 H600 0.950 . S
C596 C605 1.390 . S
C597 C596 1.387 . S
C597 C599 1.387 . S
H598 C605 0.950 . S
C599 C597 1.387 . S
C599 C601 1.390 . S
C599 H603 0.950 . S
H600 C596 0.950 . S
C601 C599 1.390 . S
C601 C602 1.387 . S
C601 H604 0.950 . S
C602 C601 1.387 . S
C602 C605 1.387 . S
H603 C599 0.950 . S
H604 C601 0.950 . S
C605 C596 1.390 . S
C605 H598 0.950 . S
C605 C602 1.387 . S
C606 C607 1.387 . S
C606 H610 0.950 . S
C606 C615 1.390 . S
C607 C606 1.387 . S
C607 C609 1.387 . S
H608 C615 0.950 1_565 S
C609 C607 1.387 . S
C609 C611 1.390 . S
C609 H613 0.950 . S
H610 C606 0.950 . S
C611 C609 1.390 . S
C611 C612 1.387 . S
C611 H614 0.950 . S
C612 C611 1.387 . S
C612 C615 1.387 . S
H613 C609 0.950 . S
H614 C611 0.950 . S
C615 C606 1.390 . S
C615 H608 0.950 1_545 S
C615 C612 1.387 . S
C616 C617 1.387 . S
C616 H620 0.950 . S
C616 C625 1.390 . S
C617 C616 1.387 . S
C617 C619 1.387 . S
H618 C625 0.950 . S
C619 C617 1.387 . S
C619 C621 1.390 . S
C619 H623 0.950 . S
H620 C616 0.950 . S
C621 C619 1.390 . S
C621 C622 1.387 . S
C621 H624 0.950 . S
C622 C621 1.387 . S
C622 C625 1.387 . S
H623 C619 0.950 . S
H624 C621 0.950 . S
C625 C616 1.390 . S
C625 H618 0.950 . S
C625 C622 1.387 . S
C626 C627 1.387 . S
C626 H630 0.950 . S
C626 C635 1.390 . S
C627 C626 1.387 . S
C627 C629 1.387 . S
H628 C635 0.950 . S
C629 C627 1.387 . S
C629 C631 1.390 . S
C629 H633 0.950 . S
H630 C626 0.950 . S
C631 C629 1.390 . S
C631 C632 1.387 . S
C631 H634 0.950 . S
C632 C631 1.387 . S
C632 C635 1.387 . S
H633 C629 0.950 . S
H634 C631 0.950 . S
C635 C626 1.390 . S
C635 H628 0.950 . S
C635 C632 1.387 . S
C636 C637 1.387 . S
C636 H640 0.950 . S
C636 C645 1.390 . S
C637 C636 1.387 . S
C637 C639 1.387 . S
H638 C645 0.950 . S
C639 C637 1.387 . S
C639 C641 1.390 . S
C639 H643 0.950 . S
H640 C636 0.950 . S
C641 C639 1.390 . S
C641 C642 1.387 . S
C641 H644 0.950 . S
C642 C641 1.387 . S
C642 C645 1.387 . S
H643 C639 0.950 . S
H644 C641 0.950 . S
C645 C636 1.390 . S
C645 H638 0.950 . S
C645 C642 1.387 . S
C646 C647 1.387 . S
C646 H650 0.950 . S
C646 C655 1.390 . S
C647 C646 1.387 . S
C647 C649 1.387 . S
H648 C655 0.950 . S
C649 C647 1.387 . S
C649 C651 1.390 . S
C649 H653 0.950 . S
H650 C646 0.950 . S
C651 C649 1.390 . S
C651 C652 1.387 . S
C651 H654 0.950 . S
C652 C651 1.387 . S
C652 C655 1.387 . S
H653 C649 0.950 . S
H654 C651 0.950 . S
C655 C646 1.390 . S
C655 H648 0.950 . S
C655 C652 1.387 . S
C656 C657 1.387 . S
C656 H660 0.950 . S
C656 C665 1.390 . S
C657 C656 1.387 . S
C657 C659 1.387 . S
H658 C665 0.950 . S
C659 C657 1.387 . S
C659 C661 1.390 . S
C659 H663 0.950 . S
H660 C656 0.950 . S
C661 C659 1.390 . S
C661 C662 1.387 . S
C661 H664 0.950 . S
C662 C661 1.387 . S
C662 C665 1.387 . S
H663 C659 0.950 . S
H664 C661 0.950 . S
C665 C656 1.390 . S
C665 H658 0.950 . S
C665 C662 1.387 . S
C666 C667 1.387 . S
C666 H670 0.950 . S
C666 C675 1.390 . S
C667 C666 1.387 . S
C667 C669 1.387 . S
H668 C675 0.950 . S
C669 C667 1.387 . S
C669 C671 1.390 . S
C669 H673 0.950 . S
H670 C666 0.950 . S
C671 C669 1.390 . S
C671 C672 1.387 . S
C671 H674 0.950 . S
C672 C671 1.387 . S
C672 C675 1.387 . S
H673 C669 0.950 . S
H674 C671 0.950 . S
C675 C666 1.390 . S
C675 H668 0.950 . S
C675 C672 1.387 . S
C676 C677 1.387 . S
C676 H680 0.950 . S
C676 C685 1.390 . S
C677 C676 1.387 . S
C677 C679 1.387 . S
H678 C685 0.950 . S
C679 C677 1.387 . S
C679 C681 1.390 . S
C679 H683 0.950 . S
H680 C676 0.950 . S
C681 C679 1.390 . S
C681 C682 1.387 . S
C681 H684 0.950 . S
C682 C681 1.387 . S
C682 C685 1.387 . S
H683 C679 0.950 . S
H684 C681 0.950 . S
C685 C676 1.390 . S
C685 H678 0.950 . S
C685 C682 1.387 . S
C686 C687 1.387 . S
C686 H690 0.950 1_565 S
C686 C695 1.390 . S
C687 C686 1.387 . S
C687 C689 1.387 . S
H688 C695 0.950 . S
C689 C687 1.387 . S
C689 C691 1.390 . S
C689 H693 0.950 . S
H690 C686 0.950 1_545 S
C691 C689 1.390 . S
C691 C692 1.387 . S
C691 H694 0.950 . S
C692 C691 1.387 . S
C692 C695 1.387 . S
H693 C689 0.950 . S
H694 C691 0.950 . S
C695 C686 1.390 . S
C695 H688 0.950 . S
C695 C692 1.387 . S
C696 C697 1.387 . S
C696 H700 0.950 . S
C696 C705 1.390 . S
C697 C696 1.387 . S
C697 C699 1.387 . S
H698 C705 0.950 . S
C699 C697 1.387 . S
C699 C701 1.390 . S
C699 H703 0.950 . S
H700 C696 0.950 . S
C701 C699 1.390 . S
C701 C702 1.387 . S
C701 H704 0.950 . S
C702 C701 1.387 . S
C702 C705 1.387 . S
H703 C699 0.950 . S
H704 C701 0.950 . S
C705 C696 1.390 . S
C705 H698 0.950 . S
C705 C702 1.387 . S
C706 C707 1.387 . S
C706 H710 0.950 . S
C706 C715 1.390 . S
C707 C706 1.387 . S
C707 C709 1.387 . S
H708 C715 0.950 . S
C709 C707 1.387 . S
C709 C711 1.390 . S
C709 H713 0.950 . S
H710 C706 0.950 . S
C711 C709 1.390 . S
C711 C712 1.387 . S
C711 H714 0.950 . S
C712 C711 1.387 . S
C712 C715 1.387 . S
H713 C709 0.950 . S
H714 C711 0.950 . S
C715 C706 1.390 . S
C715 H708 0.950 . S
C715 C712 1.387 . S
C716 C717 1.387 . S
C716 H720 0.950 . S
C716 C725 1.390 . S
C717 C716 1.387 . S
C717 C719 1.387 . S
H718 C725 0.950 . S
C719 C717 1.387 . S
C719 C721 1.390 . S
C719 H723 0.950 . S
H720 C716 0.950 . S
C721 C719 1.390 . S
C721 C722 1.387 . S
C721 H724 0.950 . S
C722 C721 1.387 . S
C722 C725 1.387 . S
H723 C719 0.950 . S
H724 C721 0.950 . S
C725 C716 1.390 . S
C725 H718 0.950 . S
C725 C722 1.387 . S
C726 C727 1.387 . S
C726 H730 0.950 . S
C726 C735 1.390 . S
C727 C726 1.387 . S
C727 C729 1.387 . S
H728 C735 0.950 . S
C729 C727 1.387 . S
C729 C731 1.390 . S
C729 H733 0.950 . S
H730 C726 0.950 . S
C731 C729 1.390 . S
C731 C732 1.387 . S
C731 H734 0.950 . S
C732 C731 1.387 . S
C732 C735 1.387 . S
H733 C729 0.950 . S
H734 C731 0.950 . S
C735 C726 1.390 . S
C735 H728 0.950 . S
C735 C732 1.387 . S
C736 C737 1.387 . S
C736 H740 0.950 . S
C736 C745 1.390 . S
C737 C736 1.387 . S
C737 C739 1.387 . S
H738 C745 0.950 . S
C739 C737 1.387 . S
C739 C741 1.390 . S
C739 H743 0.950 . S
H740 C736 0.950 . S
C741 C739 1.390 . S
C741 C742 1.387 . S
C741 H744 0.950 . S
C742 C741 1.387 . S
C742 C745 1.387 . S
H743 C739 0.950 . S
H744 C741 0.950 . S
C745 C736 1.390 . S
C745 H738 0.950 . S
C745 C742 1.387 . S
C746 C747 1.387 . S
C746 H750 0.950 . S
C746 C755 1.390 . S
C747 C746 1.387 . S
C747 C749 1.387 . S
H748 C755 0.950 . S
C749 C747 1.387 . S
C749 C751 1.390 . S
C749 H753 0.950 . S
H750 C746 0.950 . S
C751 C749 1.390 . S
C751 C752 1.387 . S
C751 H754 0.950 . S
C752 C751 1.387 . S
C752 C755 1.387 . S
H753 C749 0.950 . S
H754 C751 0.950 . S
C755 C746 1.390 . S
C755 H748 0.950 . S
C755 C752 1.387 . S
C756 C757 1.387 . S
C756 H760 0.950 . S
C756 C765 1.390 . S
C757 C756 1.387 . S
C757 C759 1.387 . S
H758 C765 0.950 . S
C759 C757 1.387 . S
C759 C761 1.390 . S
C759 H763 0.932 1_554 S
H760 C756 0.950 . S
C761 C759 1.390 . S
C761 C762 1.387 . S
C761 H764 0.950 . S
C762 C761 1.387 . S
C762 C765 1.387 . S
H763 C759 0.932 1_556 S
H764 C761 0.950 . S
C765 C756 1.390 . S
C765 H758 0.950 . S
C765 C762 1.387 . S
C766 C767 1.387 . S
C766 H770 0.950 . S
C766 C775 1.390 . S
C767 C766 1.387 . S
C767 C769 1.387 . S
H768 C775 0.950 . S
C769 C767 1.387 . S
C769 C771 1.390 . S
C769 H773 0.950 . S
H770 C766 0.950 . S
C771 C769 1.390 . S
C771 C772 1.387 . S
C771 H774 0.950 . S
C772 C771 1.387 . S
C772 C775 1.387 . S
H773 C769 0.950 . S
H774 C771 0.950 . S
C775 C766 1.390 . S
C775 H768 0.950 . S
C775 C772 1.387 . S
C776 C777 1.387 . S
C776 H780 0.950 . S
C776 C785 1.390 . S
C777 C776 1.387 . S
C777 C779 1.387 . S
H778 C785 0.950 . S
C779 C777 1.387 . S
C779 C781 1.390 . S
C779 H783 0.950 . S
H780 C776 0.950 . S
C781 C779 1.390 . S
C781 C782 1.387 . S
C781 H784 0.950 . S
C782 C781 1.387 . S
C782 C785 1.387 . S
H783 C779 0.950 . S
H784 C781 0.950 . S
C785 C776 1.390 . S
C785 H778 0.950 . S
C785 C782 1.387 . S
C786 C787 1.387 . S
C786 H790 0.950 . S
C786 C795 1.390 . S
C787 C786 1.387 . S
C787 C789 1.387 . S
H788 C795 0.950 . S
C789 C787 1.387 . S
C789 C791 1.390 . S
C789 H793 0.950 . S
H790 C786 0.950 . S
C791 C789 1.390 . S
C791 C792 1.387 . S
C791 H794 0.950 . S
C792 C791 1.387 . S
C792 C795 1.387 . S
H793 C789 0.950 . S
H794 C791 0.950 . S
C795 C786 1.390 . S
C795 H788 0.950 . S
C795 C792 1.387 . S
C796 C797 1.387 . S
C796 H800 0.950 . S
C796 C805 1.390 . S
C797 C796 1.387 . S
C797 C799 1.387 . S
H798 C805 0.950 . S
C799 C797 1.387 . S
C799 C801 1.390 . S
C799 H803 0.945 1_556 S
H800 C796 0.950 . S
C801 C799 1.390 . S
C801 C802 1.387 . S
C801 H804 0.950 . S
C802 C801 1.387 . S
C802 C805 1.387 . S
H803 C799 0.945 1_554 S
H804 C801 0.950 . S
C805 C796 1.390 . S
C805 H798 0.950 . S
C805 C802 1.387 . S
C806 C807 1.387 . S
C806 H810 0.950 . S
C806 C815 1.390 . S
C807 C806 1.387 . S
C807 C809 1.387 . S
H808 C815 0.950 1_455 S
C809 C807 1.387 . S
C809 C811 1.390 . S
C809 H813 0.950 . S
H810 C806 0.950 . S
C811 C809 1.390 . S
C811 C812 1.387 . S
C811 H814 0.950 . S
C812 C811 1.387 . S
C812 C815 1.387 . S
H813 C809 0.950 . S
H814 C811 0.950 . S
C815 C806 1.390 . S
C815 H808 0.950 1_655 S
C815 C812 1.387 . S
C337 C134 1.359 . S
C342 C8 1.359 . S
C347 C22 1.360 1_455 S
C352 C148 1.361 . S
C357 C36 1.361 . S
C362 C162 1.360 1_556 S
C367 C50 1.361 . S
C372 C120 1.361 . S
C377 C64 1.361 . S
C382 C218 1.361 . S
C387 C176 1.360 . S
C392 C78 1.360 1_655 S
C397 C92 1.362 . S
C402 C190 1.362 1_554 S
C407 C204 1.361 . S
C412 C106 1.361 . S
C417 C232 1.360 . S
C422 C260 1.361 . S
C427 C316 1.361 1_545 S
C432 C246 1.362 . S
C437 C274 1.362 . S
C442 C330 1.361 1_565 S
C447 C302 1.361 . S
C452 C288 1.361 . S
C457 C287 1.717 . S
C462 C7 1.714 . S
C467 C21 1.718 . S
C472 C245 1.715 . S
C477 C35 1.717 . S
C482 C259 1.714 . S
C487 C49 1.717 . S
C492 C273 1.716 . S
C497 C63 1.718 . S
C502 C329 1.714 . S
C507 C301 1.715 . S
C512 C77 1.715 . S
C517 C315 1.714 . S
C522 C91 1.717 . S
C527 C231 1.717 . S
C532 C105 1.716 . S
C537 C217 1.714 . S
C542 C119 1.717 . S
C547 C133 1.715 . S
C552 C175 1.718 . S
C557 C189 1.714 . S
C562 C147 1.717 . S
C567 C203 1.718 . S
C572 C161 1.714 . S
C577 C9 1.228 . S
C582 C227 1.373 . S
C587 C325 1.373 1_565 S
C592 C23 1.232 . S
C597 C297 1.371 . S
C602 C37 1.233 . S
C607 C51 1.229 . S
C612 C311 1.373 1_544 S
C617 C65 1.228 . S
C622 C241 1.373 . S
C627 C255 1.371 1_556 S
C632 C79 1.233 . S
C637 C269 1.373 . S
C642 C93 1.228 . S
C647 C283 1.371 . S
C652 C107 1.232 . S
C657 C3 1.373 . S
C662 C121 1.228 . S
C667 C17 1.371 1_445 S
C672 C135 1.233 . S
C677 C31 1.371 . S
C682 C149 1.233 . S
C687 C45 1.371 1_565 S
C692 C163 1.231 . S
C697 C59 1.371 . S
C702 C177 1.233 . S
C707 C73 1.373 1_655 S
C712 C191 1.228 . S
C717 C205 1.230 . S
C722 C87 1.373 . S
C727 C101 1.371 . S
C732 C219 1.233 . S
C737 C115 1.373 . S
C742 C233 1.232 . S
C747 C247 1.229 . S
C752 C171 1.373 . S
C757 C185 1.371 1_454 S
C762 C261 1.232 . S
C767 C275 1.228 . S
C772 C199 1.372 . S
C777 C289 1.229 . S
C782 C213 1.373 . S
C787 C303 1.228 . S
C792 C143 1.373 . S
C797 C157 1.371 1_556 S
C802 C317 1.232 . S
C807 C331 1.232 . S
C812 C129 1.371 1_655 S
