# Generated by pormake.
# Topology vbc, (5)-cn, num edge types: 1
# Building blocks:
#     Node 0, Type 0, BuildingBlock: BEQFEK_clean_sbu_0, # of connection points: 5
#     Node 1, Type 0, BuildingBlock: BEQFEK_clean_sbu_0, # of connection points: 5
#     Node 2, Type 0, BuildingBlock: BEQFEK_clean_sbu_0, # of connection points: 5
#     Node 3, Type 0, BuildingBlock: BEQFEK_clean_sbu_0, # of connection points: 5
#     Node 4, Type 0, BuildingBlock: BEQFEK_clean_sbu_0, # of connection points: 5
#     Node 5, Type 0, BuildingBlock: BEQFEK_clean_sbu_0, # of connection points: 5
#     Node 6, Type 0, BuildingBlock: BEQFEK_clean_sbu_0, # of connection points: 5
#     Node 7, Type 0, BuildingBlock: BEQFEK_clean_sbu_0, # of connection points: 5
#     Node 8, Type 0, BuildingBlock: BEQFEK_clean_sbu_0, # of connection points: 5
#     Node 9, Type 0, BuildingBlock: BEQFEK_clean_sbu_0, # of connection points: 5
#     Node 10, Type 0, BuildingBlock: BEQFEK_clean_sbu_0, # of connection points: 5
#     Node 11, Type 0, BuildingBlock: BEQFEK_clean_sbu_0, # of connection points: 5
#     Node 12, Type 0, BuildingBlock: BEQFEK_clean_sbu_0, # of connection points: 5
#     Node 13, Type 0, BuildingBlock: BEQFEK_clean_sbu_0, # of connection points: 5
#     Node 14, Type 0, BuildingBlock: BEQFEK_clean_sbu_0, # of connection points: 5
#     Node 15, Type 0, BuildingBlock: BEQFEK_clean_sbu_0, # of connection points: 5
#     Node 16, Type 0, BuildingBlock: BEQFEK_clean_sbu_0, # of connection points: 5
#     Node 17, Type 0, BuildingBlock: BEQFEK_clean_sbu_0, # of connection points: 5
#     Node 18, Type 0, BuildingBlock: BEQFEK_clean_sbu_0, # of connection points: 5
#     Node 19, Type 0, BuildingBlock: BEQFEK_clean_sbu_0, # of connection points: 5
#     Node 20, Type 0, BuildingBlock: BEQFEK_clean_sbu_0, # of connection points: 5
#     Node 21, Type 0, BuildingBlock: BEQFEK_clean_sbu_0, # of connection points: 5
#     Node 22, Type 0, BuildingBlock: BEQFEK_clean_sbu_0, # of connection points: 5
#     Node 23, Type 0, BuildingBlock: BEQFEK_clean_sbu_0, # of connection points: 5
#     Node 24, Type 0, BuildingBlock: BEQFEK_clean_sbu_0, # of connection points: 5
#     Node 25, Type 0, BuildingBlock: BEQFEK_clean_sbu_0, # of connection points: 5
#     Node 26, Type 0, BuildingBlock: BEQFEK_clean_sbu_0, # of connection points: 5
#     Node 27, Type 0, BuildingBlock: BEQFEK_clean_sbu_0, # of connection points: 5
#     Node 28, Type 0, BuildingBlock: BEQFEK_clean_sbu_0, # of connection points: 5
#     Node 29, Type 0, BuildingBlock: BEQFEK_clean_sbu_0, # of connection points: 5
#     Node 30, Type 0, BuildingBlock: BEQFEK_clean_sbu_0, # of connection points: 5
#     Node 31, Type 0, BuildingBlock: BEQFEK_clean_sbu_0, # of connection points: 5
#     Edge 32, Type (0, 0), BuildingBlock: OJICUG_clean_linker_0, # of connection points: 2
#     Edge 33, Type (0, 0), BuildingBlock: OJICUG_clean_linker_0, # of connection points: 2
#     Edge 34, Type (0, 0), BuildingBlock: OJICUG_clean_linker_0, # of connection points: 2
#     Edge 35, Type (0, 0), BuildingBlock: OJICUG_clean_linker_0, # of connection points: 2
#     Edge 36, Type (0, 0), BuildingBlock: OJICUG_clean_linker_0, # of connection points: 2
#     Edge 37, Type (0, 0), BuildingBlock: OJICUG_clean_linker_0, # of connection points: 2
#     Edge 38, Type (0, 0), BuildingBlock: OJICUG_clean_linker_0, # of connection points: 2
#     Edge 39, Type (0, 0), BuildingBlock: OJICUG_clean_linker_0, # of connection points: 2
#     Edge 40, Type (0, 0), BuildingBlock: OJICUG_clean_linker_0, # of connection points: 2
#     Edge 41, Type (0, 0), BuildingBlock: OJICUG_clean_linker_0, # of connection points: 2
#     Edge 42, Type (0, 0), BuildingBlock: OJICUG_clean_linker_0, # of connection points: 2
#     Edge 43, Type (0, 0), BuildingBlock: OJICUG_clean_linker_0, # of connection points: 2
#     Edge 44, Type (0, 0), BuildingBlock: OJICUG_clean_linker_0, # of connection points: 2
#     Edge 45, Type (0, 0), BuildingBlock: OJICUG_clean_linker_0, # of connection points: 2
#     Edge 46, Type (0, 0), BuildingBlock: OJICUG_clean_linker_0, # of connection points: 2
#     Edge 47, Type (0, 0), BuildingBlock: OJICUG_clean_linker_0, # of connection points: 2
#     Edge 48, Type (0, 0), BuildingBlock: OJICUG_clean_linker_0, # of connection points: 2
#     Edge 49, Type (0, 0), BuildingBlock: OJICUG_clean_linker_0, # of connection points: 2
#     Edge 50, Type (0, 0), BuildingBlock: OJICUG_clean_linker_0, # of connection points: 2
#     Edge 51, Type (0, 0), BuildingBlock: OJICUG_clean_linker_0, # of connection points: 2
#     Edge 52, Type (0, 0), BuildingBlock: OJICUG_clean_linker_0, # of connection points: 2
#     Edge 53, Type (0, 0), BuildingBlock: OJICUG_clean_linker_0, # of connection points: 2
#     Edge 54, Type (0, 0), BuildingBlock: OJICUG_clean_linker_0, # of connection points: 2
#     Edge 55, Type (0, 0), BuildingBlock: OJICUG_clean_linker_0, # of connection points: 2
#     Edge 56, Type (0, 0), BuildingBlock: OJICUG_clean_linker_0, # of connection points: 2
#     Edge 57, Type (0, 0), BuildingBlock: OJICUG_clean_linker_0, # of connection points: 2
#     Edge 58, Type (0, 0), BuildingBlock: OJICUG_clean_linker_0, # of connection points: 2
#     Edge 59, Type (0, 0), BuildingBlock: OJICUG_clean_linker_0, # of connection points: 2
#     Edge 60, Type (0, 0), BuildingBlock: OJICUG_clean_linker_0, # of connection points: 2
#     Edge 61, Type (0, 0), BuildingBlock: OJICUG_clean_linker_0, # of connection points: 2
#     Edge 62, Type (0, 0), BuildingBlock: OJICUG_clean_linker_0, # of connection points: 2
#     Edge 63, Type (0, 0), BuildingBlock: OJICUG_clean_linker_0, # of connection points: 2
#     Edge 64, Type (0, 0), BuildingBlock: OJICUG_clean_linker_0, # of connection points: 2
#     Edge 65, Type (0, 0), BuildingBlock: OJICUG_clean_linker_0, # of connection points: 2
#     Edge 66, Type (0, 0), BuildingBlock: OJICUG_clean_linker_0, # of connection points: 2
#     Edge 67, Type (0, 0), BuildingBlock: OJICUG_clean_linker_0, # of connection points: 2
#     Edge 68, Type (0, 0), BuildingBlock: OJICUG_clean_linker_0, # of connection points: 2
#     Edge 69, Type (0, 0), BuildingBlock: OJICUG_clean_linker_0, # of connection points: 2
#     Edge 70, Type (0, 0), BuildingBlock: OJICUG_clean_linker_0, # of connection points: 2
#     Edge 71, Type (0, 0), BuildingBlock: OJICUG_clean_linker_0, # of connection points: 2
#     Edge 72, Type (0, 0), BuildingBlock: OJICUG_clean_linker_0, # of connection points: 2
#     Edge 73, Type (0, 0), BuildingBlock: OJICUG_clean_linker_0, # of connection points: 2
#     Edge 74, Type (0, 0), BuildingBlock: OJICUG_clean_linker_0, # of connection points: 2
#     Edge 75, Type (0, 0), BuildingBlock: OJICUG_clean_linker_0, # of connection points: 2
#     Edge 76, Type (0, 0), BuildingBlock: OJICUG_clean_linker_0, # of connection points: 2
#     Edge 77, Type (0, 0), BuildingBlock: OJICUG_clean_linker_0, # of connection points: 2
#     Edge 78, Type (0, 0), BuildingBlock: OJICUG_clean_linker_0, # of connection points: 2
#     Edge 79, Type (0, 0), BuildingBlock: OJICUG_clean_linker_0, # of connection points: 2
#     Edge 80, Type (0, 0), BuildingBlock: OJICUG_clean_linker_0, # of connection points: 2
#     Edge 81, Type (0, 0), BuildingBlock: OJICUG_clean_linker_0, # of connection points: 2
#     Edge 82, Type (0, 0), BuildingBlock: OJICUG_clean_linker_0, # of connection points: 2
#     Edge 83, Type (0, 0), BuildingBlock: OJICUG_clean_linker_0, # of connection points: 2
#     Edge 84, Type (0, 0), BuildingBlock: OJICUG_clean_linker_0, # of connection points: 2
#     Edge 85, Type (0, 0), BuildingBlock: OJICUG_clean_linker_0, # of connection points: 2
#     Edge 86, Type (0, 0), BuildingBlock: OJICUG_clean_linker_0, # of connection points: 2
#     Edge 87, Type (0, 0), BuildingBlock: OJICUG_clean_linker_0, # of connection points: 2
#     Edge 88, Type (0, 0), BuildingBlock: OJICUG_clean_linker_0, # of connection points: 2
#     Edge 89, Type (0, 0), BuildingBlock: OJICUG_clean_linker_0, # of connection points: 2
#     Edge 90, Type (0, 0), BuildingBlock: OJICUG_clean_linker_0, # of connection points: 2
#     Edge 91, Type (0, 0), BuildingBlock: OJICUG_clean_linker_0, # of connection points: 2
#     Edge 92, Type (0, 0), BuildingBlock: OJICUG_clean_linker_0, # of connection points: 2
#     Edge 93, Type (0, 0), BuildingBlock: OJICUG_clean_linker_0, # of connection points: 2
#     Edge 94, Type (0, 0), BuildingBlock: OJICUG_clean_linker_0, # of connection points: 2
#     Edge 95, Type (0, 0), BuildingBlock: OJICUG_clean_linker_0, # of connection points: 2
#     Edge 96, Type (0, 0), BuildingBlock: OJICUG_clean_linker_0, # of connection points: 2
#     Edge 97, Type (0, 0), BuildingBlock: OJICUG_clean_linker_0, # of connection points: 2
#     Edge 98, Type (0, 0), BuildingBlock: OJICUG_clean_linker_0, # of connection points: 2
#     Edge 99, Type (0, 0), BuildingBlock: OJICUG_clean_linker_0, # of connection points: 2
#     Edge 100, Type (0, 0), BuildingBlock: OJICUG_clean_linker_0, # of connection points: 2
#     Edge 101, Type (0, 0), BuildingBlock: OJICUG_clean_linker_0, # of connection points: 2
#     Edge 102, Type (0, 0), BuildingBlock: OJICUG_clean_linker_0, # of connection points: 2
#     Edge 103, Type (0, 0), BuildingBlock: OJICUG_clean_linker_0, # of connection points: 2
#     Edge 104, Type (0, 0), BuildingBlock: OJICUG_clean_linker_0, # of connection points: 2
#     Edge 105, Type (0, 0), BuildingBlock: OJICUG_clean_linker_0, # of connection points: 2
#     Edge 106, Type (0, 0), BuildingBlock: OJICUG_clean_linker_0, # of connection points: 2
#     Edge 107, Type (0, 0), BuildingBlock: OJICUG_clean_linker_0, # of connection points: 2
#     Edge 108, Type (0, 0), BuildingBlock: OJICUG_clean_linker_0, # of connection points: 2
#     Edge 109, Type (0, 0), BuildingBlock: OJICUG_clean_linker_0, # of connection points: 2
#     Edge 110, Type (0, 0), BuildingBlock: OJICUG_clean_linker_0, # of connection points: 2
#     Edge 111, Type (0, 0), BuildingBlock: OJICUG_clean_linker_0, # of connection points: 2
# Relax obj value: 0.316
# Max RMSD: 0.122
# Mean RMSD: 0.122
data_MOF--net-vbc--node1-BEQFEK_clean_sbu_0--edge1-OJICUG_clean_linker_0
_symmetry_space_group_name_H-M    P1
_symmetry_Int_Tables_number       1
_symmetry_cell_setting            triclinic
loop_
_symmetry_equiv_pos_as_xyz
'x, y, z'
_cell_length_a     31.484595
_cell_length_b     54.394567
_cell_length_c     35.151567
_cell_angle_alpha  90.17258
_cell_angle_beta   89.789474
_cell_angle_gamma 90.134207
loop_
_atom_site_label
_atom_site_type_symbol
_atom_site_fract_x
_atom_site_fract_y
_atom_site_fract_z
_atom_type_partial_charge
Co0 Co 0.14153 0.08019 0.61304 0.0
Co1 Co 0.21699 0.09402 0.55889 0.0
C2 C 0.13538 0.07388 0.52679 0.0
O3 O 0.12029 0.07261 0.56037 0.0
O4 O 0.17358 0.0809 0.52119 0.0
C5 C 0.0646 0.05414 0.64915 0.0
O6 O 0.04542 0.04904 0.68137 0.0
C7 C 0.2926 0.08821 0.50963 0.0
C8 C 0.32373 0.12427 0.51803 0.0
C9 C 0.32878 0.10167 0.50029 0.0
N10 N 0.26807 0.10211 0.53254 0.0
N11 N 0.28672 0.12369 0.53711 0.0
C12 C 0.28059 0.06296 0.49647 0.0
H13 H 0.24585 0.06007 0.49925 0.0
H14 H 0.29676 0.0491 0.51435 0.0
H15 H 0.29058 0.06011 0.46646 0.0
C16 C 0.21559 0.06163 0.65925 0.0
N17 N 0.19864 0.06888 0.62568 0.0
N18 N 0.22994 0.07347 0.60177 0.0
C19 C 0.26748 0.06862 0.61913 0.0
C20 C 0.25998 0.0608 0.65631 0.0
C21 C 0.19002 0.05888 0.69479 0.0
H22 H 0.18022 0.07735 0.70503 0.0
H23 H 0.16088 0.04823 0.68857 0.0
H24 H 0.20856 0.04971 0.71729 0.0
O25 O 0.14177 0.1166 0.61805 0.0
O26 O 0.19597 0.12591 0.57991 0.0
H27 H 0.30991 0.09592 0.59727 0.0
H28 H 0.33619 0.07217 0.62331 0.0
C29 C 0.30989 0.07596 0.60335 0.0
H30 H 0.3159 0.06578 0.57657 0.0
H31 H 0.27459 0.13789 0.55392 0.0
O32 O 0.09856 0.06706 0.65027 0.0
C33 C 0.1666 0.13237 0.60289 0.0
Co34 Co 0.153 0.28921 0.61708 0.0
Co35 Co 0.07998 0.27068 0.56412 0.0
C36 C 0.15673 0.29426 0.52952 0.0
O37 O 0.171 0.297 0.56322 0.0
O38 O 0.12003 0.28473 0.52407 0.0
C39 C 0.23376 0.3093 0.64457 0.0
O40 O 0.25622 0.32348 0.66718 0.0
C41 C 1.00732 0.25713 0.51253 0.0
C42 C 0.97825 0.22874 0.54939 0.0
C43 C 0.97417 0.24013 0.51451 0.0
N44 N 0.02968 0.2557 0.54503 0.0
N45 N 1.01198 0.2387 0.56674 0.0
C46 C 1.01918 0.27327 0.4798 0.0
H47 H 0.0534 0.27803 0.48083 0.0
H48 H 1.00063 0.29056 0.48163 0.0
H49 H 1.01177 0.26408 0.45238 0.0
C50 C 0.07743 0.30865 0.66079 0.0
N51 N 0.09543 0.29898 0.62903 0.0
N52 N 0.06513 0.29222 0.60555 0.0
C53 C 0.02702 0.29763 0.62144 0.0
C54 C 0.03306 0.30776 0.65761 0.0
C55 C 0.10247 0.31664 0.69476 0.0
H56 H 0.13283 0.30655 0.69605 0.0
H57 H 0.10973 0.33653 0.69216 0.0
H58 H 0.0846 0.31374 0.72155 0.0
O59 O 0.15845 0.25296 0.62534 0.0
O60 O 0.10783 0.24154 0.58549 0.0
H61 H 0.97422 0.27438 0.60812 0.0
H62 H 0.961 0.30642 0.61287 0.0
C63 C 0.98533 0.29334 0.60218 0.0
H64 H 0.98888 0.29559 0.57099 0.0
H65 H 0.02316 0.2338 0.59356 0.0
O66 O 0.19397 0.30713 0.65038 0.0
C67 C 0.13684 0.23625 0.60898 0.0
Co68 Co 0.14294 0.24071 0.80382 0.0
Co69 Co 0.21827 0.22652 0.85732 0.0
C70 C 0.13688 0.24708 0.88991 0.0
O71 O 0.12184 0.24859 0.85645 0.0
O72 O 0.17482 0.23969 0.89521 0.0
C73 C 0.06609 0.26665 0.76815 0.0
O74 O 0.04695 0.27166 0.73601 0.0
C75 C 0.29375 0.23293 0.90606 0.0
C76 C 0.32429 0.19662 0.8994 0.0
C77 C 0.32954 0.21952 0.91616 0.0
N78 N 0.26922 0.2187 0.88371 0.0
N79 N 0.28755 0.19699 0.88011 0.0
C80 C 0.28204 0.25844 0.91815 0.0
H81 H 0.24744 0.26147 0.91478 0.0
H82 H 0.29903 0.27193 0.90002 0.0
H83 H 0.29137 0.26168 0.94818 0.0
C84 C 0.2172 0.2597 0.75734 0.0
N85 N 0.20022 0.25198 0.79079 0.0
N86 N 0.2315 0.24702 0.81429 0.0
C87 C 0.26908 0.2519 0.79672 0.0
C88 C 0.26163 0.26031 0.75989 0.0
C89 C 0.19151 0.26341 0.72227 0.0
H90 H 0.18105 0.24525 0.71122 0.0
H91 H 0.16275 0.27415 0.72941 0.0
H92 H 0.2102 0.27293 0.70003 0.0
O93 O 0.14258 0.20418 0.79924 0.0
O94 O 0.19697 0.19459 0.83659 0.0
H95 H 0.31038 0.22425 0.81868 0.0
H96 H 0.33746 0.24714 0.79118 0.0
C97 C 0.31135 0.2441 0.81185 0.0
H98 H 0.31846 0.25456 0.83811 0.0
H99 H 0.27531 0.18251 0.86394 0.0
O100 O 0.10004 0.25379 0.76685 0.0
C101 C 0.16719 0.18828 0.81406 0.0
Co102 Co 0.15237 1.03137 0.79972 0.0
Co103 Co 0.07994 0.04923 0.85417 0.0
C104 C 0.15823 1.02635 0.88738 0.0
O105 O 0.17182 1.02356 0.85335 0.0
O106 O 0.12139 1.03558 0.89353 0.0
C107 C 0.23245 1.01245 0.76976 0.0
O108 O 0.25516 0.99866 0.74673 0.0
C109 C 1.00568 0.06135 0.90573 0.0
C110 C 0.97767 0.09039 0.8698 0.0
C111 C 0.97227 0.07812 0.90385 0.0
N112 N 0.02941 0.06378 0.87397 0.0
N113 N 1.01228 0.08116 0.85283 0.0
C114 C 1.01615 0.04423 0.9375 0.0
H115 H 0.05028 0.03925 0.93664 0.0
H116 H 0.99714 1.02715 0.93425 0.0
H117 H 1.00817 0.05273 0.96537 0.0
C118 C 0.07663 1.01191 0.75681 0.0
N119 N 0.0948 1.02133 0.7886 0.0
N120 N 0.06467 1.02778 0.81258 0.0
C121 C 0.02646 1.02239 0.79694 0.0
C122 C 0.03227 1.01259 0.76046 0.0
C123 C 0.10152 1.0045 0.7223 0.0
H124 H 0.13118 1.01529 0.72042 0.0
H125 H 0.11008 0.98479 0.72473 0.0
H126 H 0.08311 1.00702 0.69585 0.0
O127 O 0.15725 0.06774 0.79176 0.0
O128 O 0.10713 0.07875 0.83261 0.0
H129 H 0.97394 0.04551 0.81138 0.0
H130 H 0.96037 1.01354 0.8058 0.0
C131 C 0.98485 1.02647 0.81665 0.0
H132 H 0.98845 1.02382 0.84773 0.0
H133 H 0.02424 0.0867 0.82649 0.0
O134 O 0.1925 1.01391 0.76489 0.0
C135 C 0.13578 0.08431 0.80865 0.0
Co136 Co 0.90386 0.99119 0.55067 0.0
Co137 Co 0.82835 0.97762 0.60496 0.0
C138 C 0.90991 0.99799 0.63691 0.0
O139 O 0.92503 0.99906 0.60331 0.0
O140 O 0.87167 0.99105 0.64256 0.0
C141 C 0.98067 1.01725 0.5143 0.0
O142 O 0.99961 1.02246 0.482 0.0
C143 C 0.75259 0.9834 0.65423 0.0
C144 C 0.72162 0.94731 0.64575 0.0
C145 C 0.71644 0.96987 0.66356 0.0
N146 N 0.7772 0.96955 0.63131 0.0
N147 N 0.75864 0.94795 0.62669 0.0
C148 C 0.7645 1.00867 0.66742 0.0
H149 H 0.79921 1.01162 0.66454 0.0
H150 H 0.74819 1.0225 0.64959 0.0
H151 H 0.75461 1.01147 0.69746 0.0
C152 C 0.8297 1.0098 0.50423 0.0
N153 N 0.84666 1.00242 0.53776 0.0
N154 N 0.81536 0.99785 0.56166 0.0
C155 C 0.77781 1.00272 0.54432 0.0
C156 C 0.78529 1.01061 0.50715 0.0
C157 C 0.8553 1.013 0.46878 0.0
H158 H 0.86473 0.99465 0.45778 0.0
H159 H 0.88464 1.02338 0.47536 0.0
H160 H 0.83689 1.02268 0.44669 0.0
O161 O 0.90396 0.95467 0.54638 0.0
O162 O 0.84974 0.94562 0.58465 0.0
H163 H 0.73536 0.97553 0.56642 0.0
H164 H 0.70909 0.99922 0.54025 0.0
C165 C 0.73541 0.99547 0.5602 0.0
H166 H 0.72949 1.00572 0.58693 0.0
H167 H 0.77083 0.93378 0.60985 0.0
O168 O 0.94676 1.00428 0.5133 0.0
C169 C 0.87926 0.93899 0.56194 0.0
Co170 Co 0.89127 0.78217 0.54828 0.0
Co171 Co 0.9646 0.79917 0.60183 0.0
C172 C 0.88645 0.77658 0.63607 0.0
O173 O 0.87245 0.77403 0.60221 0.0
O174 O 0.92352 0.78562 0.64177 0.0
C175 C 0.81123 0.76217 0.51905 0.0
O176 O 0.78923 0.74831 0.49564 0.0
C177 C 0.03861 0.81182 0.65281 0.0
C178 C 0.06877 0.83911 0.61468 0.0
C179 C 0.07282 0.82807 0.64983 0.0
N180 N 1.01574 0.81335 0.62059 0.0
N181 N 0.03412 0.82969 0.59814 0.0
C182 C 0.02637 0.7963 0.68613 0.0
H183 H 0.992 0.79185 0.6853 0.0
H184 H 0.04445 0.77883 0.68494 0.0
H185 H 0.03413 0.80586 0.71318 0.0
C186 C 0.96639 0.76408 0.50307 0.0
N187 N 0.9486 0.77243 0.53578 0.0
N188 N 0.97896 0.77772 0.56 0.0
C189 C 1.01694 0.77215 0.54386 0.0
C190 C 1.01075 0.76374 0.50657 0.0
C191 C 0.94152 0.7597 0.46755 0.0
H192 H 0.91212 0.77069 0.46804 0.0
H193 H 0.93274 0.73997 0.46578 0.0
H194 H 0.96033 0.76464 0.442 0.0
O195 O 0.88644 0.81846 0.54097 0.0
O196 O 0.93772 0.82896 0.58079 0.0
H197 H 0.07197 0.7931 0.55902 0.0
H198 H 0.08149 0.76069 0.55332 0.0
C199 C 0.05851 0.77454 0.56405 0.0
H200 H 0.05394 0.772 0.5951 0.0
H201 H 0.02281 0.83447 0.5713 0.0
O202 O 0.85105 0.7646 0.51383 0.0
C203 C 0.90869 0.8348 0.55758 0.0
Co204 Co 0.89826 0.83227 0.36269 0.0
Co205 Co 0.8233 0.84698 0.31041 0.0
C206 C 0.90294 0.82816 0.2755 0.0
O207 O 0.91757 0.82773 0.309 0.0
O208 O 0.86416 0.83367 0.27003 0.0
C209 C 0.94964 0.79215 0.37567 0.0
O210 O 0.91443 0.7801 0.36813 0.0
C211 C 0.74688 0.84243 0.26307 0.0
C212 C 0.71655 0.87853 0.27266 0.0
C213 C 0.71088 0.85609 0.25457 0.0
N214 N 0.77191 0.85603 0.28586 0.0
N215 N 0.75376 0.87764 0.29122 0.0
C216 C 0.75825 0.81725 0.24915 0.0
H217 H 0.79289 0.81411 0.25142 0.0
H218 H 0.74191 0.80328 0.26689 0.0
H219 H 0.74803 0.81474 0.21919 0.0
C220 C 0.82506 0.81202 0.40908 0.0
N221 N 0.84166 0.82031 0.37586 0.0
N222 N 0.81014 0.82585 0.35293 0.0
C223 C 0.77274 0.82085 0.37078 0.0
C224 C 0.78064 0.81174 0.40712 0.0
C225 C 0.85113 0.80604 0.44307 0.0
H226 H 0.84197 0.8178 0.46751 0.0
H227 H 0.88541 0.80862 0.43705 0.0
H228 H 0.84474 0.78669 0.4508 0.0
O229 O 0.89999 0.86827 0.37159 0.0
O230 O 0.84727 0.87819 0.33231 0.0
H231 H 0.7044 0.82522 0.37714 0.0
H232 H 0.72301 0.81921 0.32961 0.0
C233 C 0.73028 0.82895 0.3565 0.0
H234 H 0.73102 0.84898 0.35101 0.0
H235 H 0.76644 0.89165 0.30809 0.0
O236 O 0.94644 0.81445 0.38652 0.0
C237 C 0.8762 0.8843 0.35596 0.0
Co238 Co 0.89267 0.04108 0.36472 0.0
Co239 Co 0.96482 1.02224 0.31049 0.0
C240 C 0.88649 0.04503 0.27697 0.0
O241 O 0.87314 0.04831 0.31096 0.0
O242 O 0.92314 1.03553 0.27093 0.0
C243 C 0.81282 0.06086 0.39414 0.0
O244 O 0.7904 0.07501 0.41687 0.0
C245 C 0.03915 1.00986 0.259 0.0
C246 C 0.06676 0.98066 0.29484 0.0
C247 C 0.07244 0.99299 0.26088 0.0
N248 N 1.01524 1.00742 0.29067 0.0
N249 N 0.03215 0.98994 0.31175 0.0
C250 C 0.02904 1.02715 0.22735 0.0
H251 H 0.99501 1.03235 0.22825 0.0
H252 H 0.0484 0.04408 0.23072 0.0
H253 H 0.03686 1.01867 0.19943 0.0
C254 C 0.96868 0.06038 0.40704 0.0
N255 N 0.95036 0.05097 0.37533 0.0
N256 N 0.98035 0.04418 0.35142 0.0
C257 C 1.01866 0.04944 0.36698 0.0
C258 C 1.01301 0.05945 0.40335 0.0
C259 C 0.94395 0.0677 0.44169 0.0
H260 H 0.91432 0.05685 0.44364 0.0
H261 H 0.93531 0.0874 0.43939 0.0
H262 H 0.9625 0.06511 0.46805 0.0
O263 O 0.88776 1.0049 0.37389 0.0
O264 O 0.93757 0.99305 0.33327 0.0
H265 H 0.0706 1.02582 0.35284 0.0
H266 H 0.08498 0.0577 0.35812 0.0
C267 C 0.06018 0.04493 0.34737 0.0
H268 H 0.05669 0.04749 0.31626 0.0
H269 H 1.02007 0.98438 0.33804 0.0
O270 O 0.85273 0.05907 0.39917 0.0
C271 C 0.90902 0.98801 0.35761 0.0
Co272 Co 0.1427 0.58264 0.11639 0.0
Co273 Co 0.21621 0.59576 1.06052 0.0
C274 C 0.13388 0.57448 1.03095 0.0
O275 O 0.1194 0.57398 1.06482 0.0
O276 O 0.17202 0.58136 1.02441 0.0
C277 C 0.06706 0.5587 0.15279 0.0
O278 O 0.04681 0.55282 0.18419 0.0
C279 C 0.29105 0.58933 1.01059 0.0
C280 C 0.32141 0.62582 1.01649 0.0
C281 C 0.32672 0.60286 0.99996 0.0
N282 N 0.26656 0.60358 1.03298 0.0
N283 N 0.28475 0.6254 1.0361 0.0
C284 C 0.27943 0.56369 0.99909 0.0
H285 H 0.2448 0.5606 1.00257 0.0
H286 H 0.29626 0.55041 1.01754 0.0
H287 H 0.28892 0.56018 0.96913 0.0
C288 C 0.21697 0.56372 0.16131 0.0
N289 N 0.19972 0.57135 0.12812 0.0
N290 N 0.23066 0.57615 0.104 0.0
C291 C 0.26843 0.5714 0.12101 0.0
C292 C 0.2613 0.5632 0.15808 0.0
C293 C 0.19151 0.55963 0.19663 0.0
H294 H 0.1794 0.57754 0.20722 0.0
H295 H 0.16381 0.54786 0.18991 0.0
H296 H 0.21079 0.55088 0.21903 0.0
O297 O 0.14235 0.61899 0.11997 0.0
O298 O 0.19511 0.62801 1.08016 0.0
H299 H 0.30974 0.59873 0.09755 0.0
H300 H 0.33688 0.57608 0.12529 0.0
C301 C 0.31058 0.57897 0.10496 0.0
H302 H 0.31718 0.56821 1.07883 0.0
H303 H 0.27257 0.63989 1.05227 0.0
O304 O 0.10218 0.57025 0.15539 0.0
C305 C 0.16619 0.63465 0.10346 0.0
Co306 Co 0.15016 0.79116 0.11538 0.0
Co307 Co 0.0771 0.77316 1.06216 0.0
C308 C 0.15412 0.79639 1.02768 0.0
O309 O 0.16832 0.79905 1.06143 0.0
O310 O 0.11731 0.78703 1.02215 0.0
C311 C 0.23168 0.81024 0.14294 0.0
O312 O 0.25459 0.82405 0.16571 0.0
C313 C 1.00452 0.75962 1.01036 0.0
C314 C 0.97434 0.73199 1.0479 0.0
C315 C 0.97093 0.74292 1.0126 0.0
N316 N 0.02648 0.75846 1.04312 0.0
N317 N 1.00809 0.74194 1.06524 0.0
C318 C 1.01715 0.77516 0.97717 0.0
H319 H 0.05147 0.77967 0.97836 0.0
H320 H 0.99899 0.79261 0.97819 0.0
H321 H 1.00984 0.76561 0.95002 0.0
C322 C 0.07408 0.81026 0.15953 0.0
N323 N 0.09246 0.80092 0.12768 0.0
N324 N 0.06242 0.79482 0.10354 0.0
C325 C 0.02418 0.80065 0.11879 0.0
C326 C 0.02965 0.81015 0.15552 0.0
C327 C 0.09871 0.81705 0.19434 0.0
H328 H 0.12945 0.80728 0.19475 0.0
H329 H 0.10523 0.83711 0.19392 0.0
H330 H 0.08068 0.81274 0.22062 0.0
O331 O 0.15552 0.75504 0.12317 0.0
O332 O 0.10467 0.74376 1.08346 0.0
H333 H 0.9596 0.8116 0.10784 0.0
H334 H 0.98828 0.79997 1.06695 0.0
C335 C 0.98307 0.79776 0.09797 0.0
H336 H 0.96989 0.77917 0.10326 0.0
H337 H 1.0189 0.7373 0.0923 0.0
O338 O 0.19178 0.8085 0.14875 0.0
C339 C 0.13382 0.73839 0.10681 0.0
Co340 Co 0.1424 0.73892 0.29741 0.0
Co341 Co 0.21598 0.72626 0.35293 0.0
C342 C 0.13354 0.74726 0.38288 0.0
O343 O 0.11915 0.74764 0.34907 0.0
O344 O 0.17169 0.74053 0.38928 0.0
C345 C 0.06674 0.76277 0.26175 0.0
O346 O 0.04641 0.76868 0.23057 0.0
C347 C 0.29067 0.73279 0.40289 0.0
C348 C 0.32164 0.69663 0.39577 0.0
C349 C 0.32648 0.71939 0.41305 0.0
N350 N 0.26652 0.71865 0.38007 0.0
N351 N 0.28511 0.69704 0.3762 0.0
C352 C 0.27864 0.75818 0.41531 0.0
H353 H 0.24404 0.76111 0.41186 0.0
H354 H 0.29559 0.77183 0.39744 0.0
H355 H 0.28778 0.76126 0.44542 0.0
C356 C 0.21673 0.75834 0.25207 0.0
N357 N 0.19941 0.75044 0.28524 0.0
N358 N 0.23027 0.74597 0.30935 0.0
C359 C 0.26803 0.75128 0.29241 0.0
C360 C 0.26103 0.75945 0.25535 0.0
C361 C 0.19146 0.76221 0.21675 0.0
H362 H 0.17958 0.7442 0.20629 0.0
H363 H 0.16356 0.77381 0.22344 0.0
H364 H 0.21078 0.77102 0.19425 0.0
O365 O 0.14187 0.70252 0.29424 0.0
O366 O 0.19479 0.69382 0.33364 0.0
H367 H 0.31035 0.7246 0.31565 0.0
H368 H 0.33679 0.74803 0.28862 0.0
C369 C 0.31027 0.74444 0.30866 0.0
H370 H 0.3158 0.75509 0.33506 0.0
H371 H 0.27326 0.68268 0.35958 0.0
O372 O 0.10178 0.75124 0.25878 0.0
C373 C 0.16573 0.68699 0.31074 0.0
Co374 Co 0.15018 0.53023 0.29984 0.0
Co375 Co 0.07802 0.54744 0.355 0.0
C376 C 0.15687 0.52487 0.38759 0.0
O377 O 0.17012 0.52224 0.35341 0.0
O378 O 0.11997 0.53392 0.3941 0.0
C379 C 0.23068 0.51208 0.26962 0.0
O380 O 0.25368 0.49861 0.24637 0.0
C381 C 1.00397 0.55951 0.40705 0.0
C382 C 0.9747 0.58773 0.37037 0.0
C383 C 0.97008 0.57596 0.40493 0.0
N384 N 0.02722 0.56166 0.37495 0.0
N385 N 1.00932 0.57853 0.35336 0.0
C386 C 1.01532 0.54302 0.43937 0.0
H387 H 0.04955 0.53829 0.43828 0.0
H388 H 0.99664 0.52576 0.43705 0.0
H389 H 1.00756 0.55193 0.46697 0.0
C390 C 0.07382 0.51114 0.25683 0.0
N391 N 0.09247 0.52018 0.28868 0.0
N392 N 0.06271 0.5259 0.31344 0.0
C393 C 0.02431 0.52009 0.29851 0.0
C394 C 0.02944 0.511 0.26143 0.0
C395 C 0.09817 0.50508 0.2214 0.0
H396 H 0.12805 0.51576 0.22034 0.0
H397 H 0.10632 0.48525 0.22164 0.0
H398 H 0.0794 0.50892 0.19551 0.0
O399 O 0.15476 0.56649 0.2923 0.0
O400 O 0.10475 0.57726 0.33342 0.0
H401 H 0.97026 0.54136 0.31522 0.0
H402 H 0.95974 0.50897 0.30989 0.0
C403 C 0.98335 0.52271 0.31986 0.0
H404 H 0.98873 0.52015 0.35075 0.0
H405 H 1.02082 0.58379 0.32672 0.0
O406 O 0.19067 0.5133 0.26473 0.0
C407 C 0.1333 0.58295 0.3094 0.0
Co408 Co 0.89745 0.48914 1.05463 0.0
Co409 Co 0.82251 0.47449 0.1074 0.0
C410 C 0.90252 0.49341 0.14182 0.0
O411 O 0.91714 0.49384 0.1082 0.0
O412 O 0.86368 0.48785 0.14749 0.0
C413 C 0.94922 0.52912 1.04029 0.0
O414 O 0.91422 0.54132 1.04791 0.0
C415 C 0.74615 0.47972 0.15491 0.0
C416 C 0.71534 0.44355 0.14669 0.0
C417 C 0.70995 0.46626 0.16403 0.0
N418 N 0.77105 0.46575 0.13249 0.0
N419 N 0.75263 0.4441 0.12795 0.0
C420 C 0.75781 0.50508 0.16791 0.0
H421 H 0.79252 0.50809 0.16549 0.0
H422 H 0.74183 0.51882 0.14967 0.0
H423 H 0.74741 0.50806 0.19777 0.0
C424 C 0.82449 0.50944 1.00859 0.0
N425 N 0.84097 0.50114 1.04173 0.0
N426 N 0.80937 0.49549 1.06476 0.0
C427 C 0.77203 0.50036 1.04699 0.0
C428 C 0.78006 0.50956 1.01065 0.0
C429 C 0.85076 0.51585 0.9747 0.0
H430 H 0.88457 0.51115 0.97934 0.0
H431 H 0.84768 0.53587 0.96988 0.0
H432 H 0.8391 0.5062 0.94899 0.0
O433 O 0.89866 0.45306 1.04588 0.0
O434 O 0.84596 0.44312 0.08555 0.0
H435 H 0.73034 0.47216 1.06725 0.0
H436 H 0.70384 0.4956 1.04056 0.0
C437 C 0.7295 0.49214 1.06135 0.0
H438 H 0.72184 0.50207 0.08801 0.0
H439 H 0.76515 0.42984 0.11149 0.0
O440 O 0.94566 0.50674 1.02994 0.0
C441 C 0.87481 0.437 1.06168 0.0
Co442 Co 0.89338 0.2801 1.05263 0.0
Co443 Co 0.96531 0.29996 0.10565 0.0
C444 C 0.88809 0.27654 0.14056 0.0
O445 O 0.87444 0.27288 0.10681 0.0
O446 O 0.92452 0.28649 0.14588 0.0
C447 C 0.8141 0.25873 1.02416 0.0
O448 O 0.79242 0.24423 1.00143 0.0
C449 C 0.03929 0.31291 0.15626 0.0
C450 C 0.06684 0.34212 0.12004 0.0
C451 C 0.07255 0.32986 0.15402 0.0
N452 N 1.01541 0.31521 0.12476 0.0
N453 N 0.03221 0.33271 0.10345 0.0
C454 C 0.02915 0.29567 0.18808 0.0
H455 H 0.99508 0.29049 0.18756 0.0
H456 H 0.0483 0.27871 0.18456 0.0
H457 H 0.03714 0.30418 0.2159 0.0
C458 C 0.96972 0.26098 1.00996 0.0
N459 N 0.95124 0.27067 1.04149 0.0
N460 N 0.98114 0.27789 1.06504 0.0
C461 C 1.01952 0.27266 1.04945 0.0
C462 C 1.01404 0.26218 1.01342 0.0
C463 C 0.94515 0.25298 0.97571 0.0
H464 H 0.91533 0.26354 0.97356 0.0
H465 H 0.93689 0.23324 0.97867 0.0
H466 H 0.96373 0.25537 0.94918 0.0
O467 O 0.88747 0.31625 1.04318 0.0
O468 O 0.93739 0.32879 1.08295 0.0
H469 H 0.07119 0.29669 1.06292 0.0
H470 H 0.08592 0.26487 1.05812 0.0
C471 C 0.06097 0.27756 1.06877 0.0
H472 H 0.05745 0.2752 0.09994 0.0
H473 H 1.02008 0.33817 1.07722 0.0
O474 O 0.85382 0.26149 1.01867 0.0
C475 C 0.90848 0.33344 1.059 0.0
Co476 Co 0.90548 0.32974 0.86775 0.0
Co477 Co 0.82996 0.34333 0.81399 0.0
C478 C 0.91099 0.32265 0.78163 0.0
O479 O 0.92618 0.32163 0.81509 0.0
O480 O 0.87288 0.32969 0.77619 0.0
C481 C 0.98214 0.30359 0.90344 0.0
O482 O 1.00102 0.2984 0.93562 0.0
C483 C 0.75403 0.33789 0.76524 0.0
C484 C 0.72381 0.37409 0.77411 0.0
C485 C 0.71817 0.35159 0.75619 0.0
N486 N 0.7789 0.35158 0.78809 0.0
N487 N 0.76078 0.37325 0.79295 0.0
C488 C 0.76545 0.3126 0.75187 0.0
H489 H 0.80007 0.30945 0.75474 0.0
H490 H 0.74864 0.2988 0.76957 0.0
H491 H 0.75578 0.30996 0.72179 0.0
C492 C 0.83113 0.31126 0.91478 0.0
N493 N 0.84815 0.31868 0.88118 0.0
N494 N 0.81688 0.32329 0.85749 0.0
C495 C 0.77929 0.31848 0.87508 0.0
C496 C 0.78671 0.31054 0.91217 0.0
C497 C 0.85675 0.30786 0.94999 0.0
H498 H 0.86636 0.32614 0.96115 0.0
H499 H 0.88599 0.2975 0.94307 0.0
H500 H 0.83828 0.29806 0.97212 0.0
O501 O 0.90634 0.36629 0.8716 0.0
O502 O 0.85204 0.37523 0.83377 0.0
H503 H 0.73737 0.3458 0.85319 0.0
H504 H 0.71061 0.32234 0.87966 0.0
C505 C 0.73701 0.32588 0.8595 0.0
H506 H 0.73083 0.3156 0.83287 0.0
H507 H 0.77325 0.38733 0.80978 0.0
O508 O 0.94835 0.31659 0.90468 0.0
C509 C 0.88178 0.38191 0.85604 0.0
Co510 Co 0.89221 0.53858 0.86739 0.0
Co511 Co 0.96534 0.52259 0.81231 0.0
C512 C 0.88584 0.54455 0.77981 0.0
O513 O 0.87235 0.54677 0.81397 0.0
O514 O 0.92305 0.53592 0.77327 0.0
C515 C 0.81185 0.55673 0.89834 0.0
O516 O 0.78927 0.57011 0.92205 0.0
C517 C 0.03968 0.51078 0.76026 0.0
C518 C 0.0699 0.48333 0.79772 0.0
C519 C 0.07395 0.49462 0.76272 0.0
N520 N 1.01672 0.50892 0.79258 0.0
N521 N 0.03522 0.49252 0.81464 0.0
C522 C 0.02757 0.52656 0.72733 0.0
H523 H 0.99326 0.5311 0.72858 0.0
H524 H 0.04596 0.54397 0.72864 0.0
H525 H 0.03514 0.51717 0.70006 0.0
C526 C 0.96726 0.55705 0.91163 0.0
N527 N 0.94941 0.54887 0.87895 0.0
N528 N 0.97968 0.54401 0.85426 0.0
C529 C 1.01767 0.54976 0.8701 0.0
C530 C 1.01156 0.55784 0.90762 0.0
C531 C 0.94259 0.56048 0.94764 0.0
H532 H 0.91396 0.54878 0.94722 0.0
H533 H 0.93255 0.57996 0.95005 0.0
H534 H 0.96191 0.55568 0.9728 0.0
O535 O 0.88855 0.50231 0.87446 0.0
O536 O 0.93942 0.49239 0.83363 0.0
H537 H 0.0728 0.5292 0.85415 0.0
H538 H 0.08208 0.56162 0.86019 0.0
C539 C 0.05918 0.54771 0.84949 0.0
H540 H 0.05448 0.55039 0.81852 0.0
H541 H 0.02397 0.4875 0.84148 0.0
O542 O 0.85187 0.55531 0.90283 0.0
C543 C 0.9109 0.48623 0.8574 0.0
Co544 Co 0.64185 0.07866 0.11216 0.0
Co545 Co 0.71714 0.09361 1.05848 0.0
C546 C 0.63639 0.0722 1.02612 0.0
O547 O 0.62125 0.07032 1.05961 0.0
O548 O 0.67406 0.08018 1.02077 0.0
C549 C 0.56533 0.05264 0.14897 0.0
O550 O 0.54677 0.0473 0.18139 0.0
C551 C 0.79287 0.08808 1.00955 0.0
C552 C 0.82303 0.1245 1.01689 0.0
C553 C 0.82867 0.10175 0.99978 0.0
N554 N 0.768 0.10202 1.03207 0.0
N555 N 0.78606 0.12381 1.03604 0.0
C556 C 0.7815 0.06257 0.99711 0.0
H557 H 0.74684 0.05941 1.00004 0.0
H558 H 0.79805 0.04907 1.01536 0.0
H559 H 0.79149 0.05945 0.96717 0.0
C560 C 0.71628 0.06081 0.15861 0.0
N561 N 0.69933 0.06817 0.12511 0.0
N562 N 0.73063 0.07329 0.10147 0.0
C563 C 0.76821 0.0688 0.119 0.0
C564 C 0.76071 0.06056 0.15596 0.0
C565 C 0.69043 0.05709 0.19376 0.0
H566 H 0.67855 0.07514 0.20397 0.0
H567 H 0.66256 0.04549 0.18694 0.0
H568 H 0.70942 0.04844 0.21646 0.0
O569 O 0.64025 0.11515 0.11625 0.0
O570 O 0.69498 0.12523 1.07915 0.0
H571 H 0.83659 0.07367 0.12405 0.0
H572 H 0.81749 0.06651 1.07716 0.0
C573 C 0.81045 0.0768 0.10364 0.0
H574 H 0.80948 0.09669 0.0971 0.0
H575 H 0.77354 0.13809 1.05246 0.0
O576 O 0.5995 0.06538 0.14981 0.0
C577 C 0.66467 0.13125 0.10142 0.0
Co578 Co 0.65142 0.28734 0.11955 0.0
Co579 Co 0.57896 0.27188 1.06371 0.0
C580 C 0.65894 0.29407 1.03211 0.0
O581 O 0.67204 0.29604 1.06637 0.0
O582 O 0.62175 0.2855 1.02522 0.0
C583 C 0.73119 0.30505 0.15149 0.0
O584 O 0.75375 0.31812 0.17556 0.0
C585 C 0.50496 0.26045 1.01152 0.0
C586 C 0.47414 0.23283 1.04864 0.0
C587 C 0.47048 0.24433 1.01381 0.0
N588 N 0.52767 0.25836 1.04378 0.0
N589 N 0.50882 0.24186 1.06564 0.0
C590 C 0.51743 0.27644 0.97882 0.0
H591 H 0.55181 0.28089 0.98005 0.0
H592 H 0.49929 0.29387 0.98049 0.0
H593 H 0.50983 0.26726 0.95142 0.0
C594 C 0.57589 0.30568 0.16343 0.0
N595 N 0.59419 0.29753 0.13087 0.0
N596 N 0.56434 0.29305 0.10578 0.0
C597 C 0.52621 0.29911 0.12117 0.0
C598 C 0.53175 0.30698 0.15883 0.0
C599 C 0.59981 0.30842 0.19984 0.0
H600 H 0.62772 0.29618 0.19953 0.0
H601 H 0.611 0.32769 0.20273 0.0
H602 H 0.57958 0.30376 0.22465 0.0
O603 O 0.65496 0.25105 0.1256 0.0
O604 O 0.60464 0.24152 0.08428 0.0
H605 H 0.47075 0.27915 0.10426 0.0
H606 H 0.46251 0.31165 0.11049 0.0
C607 C 0.48516 0.29755 0.09998 0.0
H608 H 0.49075 0.30031 1.06911 0.0
H609 H 0.51982 0.23669 0.0924 0.0
O610 O 0.69112 0.30368 0.15585 0.0
C611 C 0.6329 0.23513 0.10792 0.0
Co612 Co 0.64816 0.24083 0.31063 0.0
Co613 Co 0.7232 0.22248 0.35971 0.0
C614 C 0.64535 0.24414 0.39716 0.0
O615 O 0.63093 0.24853 0.36425 0.0
O616 O 0.68138 0.2338 0.40083 0.0
C617 C 0.59501 0.28013 0.29499 0.0
O618 O 0.62889 0.29311 0.30367 0.0
C619 C 0.79921 0.22746 0.40665 0.0
C620 C 0.82978 0.19127 0.39856 0.0
C621 C 0.83515 0.214 0.41589 0.0
N622 N 0.77446 0.21349 0.38422 0.0
N623 N 0.79273 0.19183 0.3797 0.0
C624 C 0.78756 0.25283 0.41951 0.0
H625 H 0.75287 0.25578 0.417 0.0
H626 H 0.8038 0.26653 0.40121 0.0
H627 H 0.79767 0.25589 0.44938 0.0
C628 C 0.72107 0.2606 0.26342 0.0
N629 N 0.70478 0.25167 0.29635 0.0
N630 N 0.7364 0.24468 0.3182 0.0
C631 C 0.77364 0.24928 0.29984 0.0
C632 C 0.76548 0.2597 0.26442 0.0
C633 C 0.69446 0.26829 0.23057 0.0
H634 H 0.70807 0.26164 0.20334 0.0
H635 H 0.66156 0.26129 0.23374 0.0
H636 H 0.69393 0.28866 0.22985 0.0
O637 O 0.64443 0.20422 0.30277 0.0
O638 O 0.70038 0.19203 0.33635 0.0
H639 H 0.81351 0.21969 0.31761 0.0
H640 H 0.84113 0.24299 0.29106 0.0
C641 C 0.81585 0.23973 0.3125 0.0
H642 H 0.8251 0.24896 0.33933 0.0
H643 H 0.7802 0.17756 0.36328 0.0
O644 O 0.60031 0.25783 0.28492 0.0
C645 C 0.66907 0.18725 0.31465 0.0
Co646 Co 0.65143 1.03078 0.29924 0.0
Co647 Co 0.57957 0.04906 0.35401 0.0
C648 C 0.65847 1.02643 0.38691 0.0
O649 O 0.67159 1.02337 0.3528 0.0
O650 O 0.62172 0.03573 0.39324 0.0
C651 C 0.73117 1.01133 0.26932 0.0
O652 O 0.75364 0.99733 0.24641 0.0
C653 C 0.50552 0.06115 0.40588 0.0
C654 C 0.47778 0.09053 0.37042 0.0
C655 C 0.47229 0.07805 0.40427 0.0
N656 N 0.52927 0.06372 0.37415 0.0
N657 N 0.51228 0.08129 0.35329 0.0
C658 C 0.5157 0.04372 0.43731 0.0
H659 H 0.54976 0.03857 0.43634 0.0
H660 H 0.49643 1.02678 0.43373 0.0
H661 H 0.50783 0.05203 0.46534 0.0
C662 C 0.57547 1.0109 0.25735 0.0
N663 N 0.59381 1.02055 0.2889 0.0
N664 N 0.56384 1.02735 0.31281 0.0
C665 C 0.52552 1.02205 0.29727 0.0
C666 C 0.53114 1.01186 0.26102 0.0
C667 C 0.60024 1.00312 0.22298 0.0
H668 H 0.6104 0.98376 0.22666 0.0
H669 H 0.5813 1.00443 0.19661 0.0
H670 H 0.62904 1.01459 0.22003 0.0
O671 O 0.65582 0.06715 0.29041 0.0
O672 O 0.60633 0.07846 0.33165 0.0
H673 H 0.45903 1.01412 0.30585 0.0
H674 H 0.48724 1.0242 0.34783 0.0
C675 C 0.48395 1.02676 0.3167 0.0
H676 H 0.47385 0.04592 0.31115 0.0
H677 H 0.52421 0.08693 0.327 0.0
O678 O 0.69124 1.01304 0.26441 0.0
C679 C 0.63451 0.08385 0.30717 0.0
Co680 Co 0.40238 0.99142 1.05141 0.0
Co681 Co 0.32727 0.97644 0.10536 0.0
C682 C 0.40871 0.99728 0.13759 0.0
O683 O 0.42369 0.99916 0.10403 0.0
O684 O 0.37087 0.98958 0.14302 0.0
C685 C 0.47869 1.01764 1.0143 0.0
O686 O 0.49679 1.02314 0.98173 0.0
C687 C 0.25175 0.98245 0.15458 0.0
C688 C 0.22139 0.94602 0.14803 0.0
C689 C 0.21595 0.9689 0.16481 0.0
N690 N 0.27642 0.96831 0.13215 0.0
N691 N 0.25823 0.94652 0.12865 0.0
C692 C 0.26334 1.00802 0.16649 0.0
H693 H 0.29798 1.01112 0.16318 0.0
H694 H 0.2466 1.02141 0.14818 0.0
H695 H 0.25371 1.01135 0.19647 0.0
C696 C 0.32806 1.0103 1.0059 0.0
N697 N 0.34505 1.00248 1.03914 0.0
N698 N 0.31378 0.99704 1.06265 0.0
C699 C 0.27617 1.00161 1.04522 0.0
C700 C 0.28363 1.01034 1.00851 0.0
C701 C 0.35387 1.01487 0.97095 0.0
H702 H 0.36544 0.99706 0.95949 0.0
H703 H 0.38192 1.02616 0.97846 0.0
H704 H 0.33495 1.02429 0.94891 0.0
O705 O 0.40279 0.9549 1.04628 0.0
O706 O 0.34861 0.94476 0.08398 0.0
H707 H 0.23551 0.97336 1.06692 0.0
H708 H 0.208 0.99606 1.03962 0.0
C709 C 0.23402 0.99322 1.06027 0.0
H710 H 0.22641 1.0035 0.08664 0.0
H711 H 0.27057 0.9321 0.11241 0.0
O712 O 0.44461 1.00482 1.01369 0.0
C713 C 0.37832 0.93877 1.06102 0.0
Co714 Co 0.39623 0.78193 1.04817 0.0
Co715 Co 0.46643 0.80171 0.10307 0.0
C716 C 0.38791 0.77789 0.13553 0.0
O717 O 0.37537 0.77447 0.10142 0.0
O718 O 0.42412 0.78786 0.14196 0.0
C719 C 0.317 0.7617 1.01819 0.0
O720 O 0.2953 0.74744 0.99512 0.0
C721 C 0.53779 0.81486 0.1565 0.0
C722 C 0.56569 0.84497 0.1223 0.0
C723 C 0.57025 0.83237 0.15612 0.0
N724 N 0.5154 0.81718 0.12413 0.0
N725 N 0.53241 0.83521 0.10403 0.0
C726 C 0.52687 0.79712 0.18743 0.0
H727 H 0.49299 0.79164 0.18565 0.0
H728 H 0.54659 0.78037 0.184 0.0
H729 H 0.53351 0.80531 0.21576 0.0
C730 C 0.47377 0.76144 1.00842 0.0
N731 N 0.45447 0.77203 1.03886 0.0
N732 N 0.48385 0.77983 1.06259 0.0
C733 C 0.52261 0.77442 1.04782 0.0
C734 C 0.51786 0.76265 1.01285 0.0
C735 C 0.45034 0.75222 0.9743 0.0
H736 H 0.42756 0.76641 0.96466 0.0
H737 H 0.43156 0.73576 0.98244 0.0
H738 H 0.47236 0.74731 0.95075 0.0
O739 O 0.39074 0.81816 1.03883 0.0
O740 O 0.43925 0.8305 1.08006 0.0
H741 H 0.59041 0.77068 1.05394 0.0
H742 H 0.56235 0.78034 0.09646 0.0
C743 C 0.56391 0.78208 1.06507 0.0
H744 H 0.57043 0.80153 1.05765 0.0
H745 H 0.52127 0.84087 1.07756 0.0
O746 O 0.35699 0.76394 1.01331 0.0
C747 C 0.41121 0.83527 1.05541 0.0
Co748 Co 0.3954 0.8324 0.86267 0.0
Co749 Co 0.32298 0.84717 0.80773 0.0
C750 C 0.40484 0.82508 0.77757 0.0
O751 O 0.41906 0.82389 0.81136 0.0
O752 O 0.3672 0.83275 0.77132 0.0
C753 C 0.46777 0.80619 0.89949 0.0
O754 O 0.48475 0.7985 0.93125 0.0
C755 C 0.24848 0.84061 0.75849 0.0
C756 C 0.21949 0.87753 0.76192 0.0
C757 C 0.21351 0.8542 0.74685 0.0
N758 N 0.27324 0.85519 0.78002 0.0
N759 N 0.25587 0.87725 0.78173 0.0
C760 C 0.25929 0.81458 0.74868 0.0
H761 H 0.29374 0.81125 0.75253 0.0
H762 H 0.24172 0.80198 0.76789 0.0
H763 H 0.25007 0.81036 0.71891 0.0
C764 C 0.32106 0.8128 0.9067 0.0
N765 N 0.33831 0.82121 0.87386 0.0
N766 N 0.30747 0.82725 0.85061 0.0
C767 C 0.26963 0.82291 0.86805 0.0
C768 C 0.27672 0.81345 0.90434 0.0
C769 C 0.34679 0.80642 0.9409 0.0
H770 H 0.36296 0.82319 0.95167 0.0
H771 H 0.37157 0.79292 0.93276 0.0
H772 H 0.32672 0.79855 0.96371 0.0
O773 O 0.39688 0.8688 0.86751 0.0
O774 O 0.34453 0.87901 0.82835 0.0
H775 H 0.231 0.85165 0.84536 0.0
H776 H 0.20225 0.83047 0.87498 0.0
C777 C 0.22793 0.83206 0.85347 0.0
H778 H 0.21879 0.82131 0.82798 0.0
H779 H 0.26848 0.89202 0.797 0.0
O780 O 0.43381 0.81876 0.90148 0.0
C781 C 0.37356 0.88497 0.85183 0.0
Co782 Co 0.39354 0.04149 0.86416 0.0
Co783 Co 0.46495 1.02218 0.80946 0.0
C784 C 0.38664 0.04548 0.77656 0.0
O785 O 0.37357 0.04889 0.81061 0.0
O786 O 0.42311 0.03579 0.77034 0.0
C787 C 0.31457 0.0616 0.8946 0.0
O788 O 0.29259 0.07584 0.91754 0.0
C789 C 0.53912 1.00999 0.75781 0.0
C790 C 0.56528 0.97955 0.79205 0.0
C791 C 0.5718 0.9927 0.75894 0.0
N792 N 0.51475 1.00701 0.78908 0.0
N793 N 0.53079 0.98879 0.8092 0.0
C794 C 0.53011 1.02831 0.72731 0.0
H795 H 0.49627 1.03393 0.72824 0.0
H796 H 0.55003 0.04488 0.73207 0.0
H797 H 0.538 1.02056 0.69891 0.0
C798 C 0.46998 0.06031 0.90597 0.0
N799 N 0.45147 0.05099 0.87431 0.0
N800 N 0.48128 0.04379 0.85051 0.0
C801 C 0.51971 0.04854 0.86623 0.0
C802 C 0.51425 0.05878 0.90245 0.0
C803 C 0.4453 0.06799 0.94045 0.0
H804 H 0.41707 0.05608 0.94382 0.0
H805 H 0.43413 0.08714 0.9365 0.0
H806 H 0.46455 0.06715 0.96669 0.0
O807 O 0.3879 1.0053 0.8731 0.0
O808 O 0.43714 0.99323 0.83207 0.0
H809 H 0.58677 0.05508 0.85843 0.0
H810 H 0.55845 0.04589 0.81605 0.0
C811 C 0.56118 0.04306 0.84716 0.0
H812 H 0.56993 1.02365 0.8525 0.0
H813 H 0.51829 0.98273 0.83506 0.0
O814 O 0.35451 0.05964 0.89923 0.0
C815 C 0.40864 0.98832 0.85649 0.0
Co816 Co 0.64062 0.57887 0.615 0.0
Co817 Co 0.71615 0.59313 0.56107 0.0
C818 C 0.63505 0.57209 0.52898 0.0
O819 O 0.6199 0.57064 0.56251 0.0
O820 O 0.67303 0.57953 0.52348 0.0
C821 C 0.56364 0.55286 0.65118 0.0
O822 O 0.54465 0.54766 0.68346 0.0
C823 C 0.79199 0.58688 0.51234 0.0
C824 C 0.82204 0.62344 0.51824 0.0
C825 C 0.82769 0.60044 0.50191 0.0
N826 N 0.76715 0.60112 0.53444 0.0
N827 N 0.78517 0.62299 0.53758 0.0
C828 C 0.78063 0.56119 0.50082 0.0
H829 H 0.74604 0.55798 0.50429 0.0
H830 H 0.79761 0.54797 0.51925 0.0
H831 H 0.79019 0.55773 0.47086 0.0
C832 C 0.71492 0.56088 0.66182 0.0
N833 N 0.69803 0.56819 0.62824 0.0
N834 N 0.7294 0.57317 0.60459 0.0
C835 C 0.76694 0.56876 0.62224 0.0
C836 C 0.7594 0.56062 0.65927 0.0
C837 C 0.68903 0.55718 0.69697 0.0
H838 H 0.67877 0.57535 0.70809 0.0
H839 H 0.6602 0.54647 0.68993 0.0
H840 H 0.70753 0.54762 0.71912 0.0
O841 O 0.6395 0.61541 0.6186 0.0
O842 O 0.69404 0.62501 0.58095 0.0
H843 H 0.83518 0.57429 0.62761 0.0
H844 H 0.81669 0.56613 0.58088 0.0
C845 C 0.80916 0.57681 0.60688 0.0
H846 H 0.80781 0.59657 0.59951 0.0
H847 H 0.77265 0.6375 0.55349 0.0
O848 O 0.5977 0.56571 0.65227 0.0
C849 C 0.66388 0.63132 0.6032 0.0
Co850 Co 0.6483 0.7877 0.61603 0.0
Co851 Co 0.57592 0.77106 0.56088 0.0
C852 C 0.65507 0.79374 0.52842 0.0
O853 O 0.66835 0.79617 0.56255 0.0
O854 O 0.61813 0.78472 0.52194 0.0
C855 C 0.72768 0.80691 0.64734 0.0
O856 O 0.7496 0.8204 0.67132 0.0
C857 C 0.50178 0.75966 0.50904 0.0
C858 C 0.47178 0.73135 0.54543 0.0
C859 C 0.46756 0.74335 0.51106 0.0
N860 N 0.52488 0.75721 0.54101 0.0
N861 N 0.50652 0.7403 0.56245 0.0
C862 C 0.51359 0.77627 0.47689 0.0
H863 H 0.5479 0.78087 0.47792 0.0
H864 H 0.49522 0.79358 0.47947 0.0
H865 H 0.50576 0.76753 0.4492 0.0
C866 C 0.57259 0.80583 0.65985 0.0
N867 N 0.59088 0.7975 0.62739 0.0
N868 N 0.56098 0.79247 0.6026 0.0
C869 C 0.52278 0.79832 0.61807 0.0
C870 C 0.52839 0.80666 0.65547 0.0
C871 C 0.5967 0.80922 0.69604 0.0
H872 H 0.62471 0.79705 0.69611 0.0
H873 H 0.60779 0.82855 0.6981 0.0
H874 H 0.57667 0.80494 0.72114 0.0
O875 O 0.65265 0.75148 0.62284 0.0
O876 O 0.60226 0.74105 0.58207 0.0
H877 H 0.46809 0.77747 0.60179 0.0
H878 H 0.45843 0.80987 0.60775 0.0
C879 C 0.48161 0.79607 0.59722 0.0
H880 H 0.48679 0.79878 0.56629 0.0
H881 H 0.51785 0.73482 0.58895 0.0
O882 O 0.68773 0.80472 0.65194 0.0
C883 C 0.63086 0.73517 0.60573 0.0
Co884 Co 0.6461 0.74063 0.80647 0.0
Co885 Co 0.72158 0.72318 0.85592 0.0
C886 C 0.6434 0.74481 0.89292 0.0
O887 O 0.62882 0.74873 0.85993 0.0
O888 O 0.67966 0.73478 0.8968 0.0
C889 C 0.59211 0.7795 0.79027 0.0
O890 O 0.62582 0.79279 0.79834 0.0
C891 C 0.79762 0.72909 0.90274 0.0
C892 C 0.82826 0.6928 0.89623 0.0
C893 C 0.83348 0.71578 0.91276 0.0
N894 N 0.77303 0.71476 0.88069 0.0
N895 N 0.79138 0.69306 0.87708 0.0
C896 C 0.78581 0.75463 0.91463 0.0
H897 H 0.75119 0.75759 0.91143 0.0
H898 H 0.80252 0.76806 0.89619 0.0
H899 H 0.79532 0.75805 0.94456 0.0
C900 C 0.71872 0.76038 0.75863 0.0
N901 N 0.70258 0.75161 0.79175 0.0
N902 N 0.73433 0.74487 0.81365 0.0
C903 C 0.77148 0.74938 0.79511 0.0
C904 C 0.76318 0.75955 0.75951 0.0
C905 C 0.69191 0.76818 0.72595 0.0
H906 H 0.65903 0.76115 0.72919 0.0
H907 H 0.69127 0.78856 0.72546 0.0
H908 H 0.70535 0.76172 0.69856 0.0
O909 O 0.64294 0.70387 0.7997 0.0
O910 O 0.69906 0.69233 0.83363 0.0
H911 H 0.81132 0.72004 0.81386 0.0
H912 H 0.83889 0.74277 0.78619 0.0
C913 C 0.81374 0.73998 0.8079 0.0
H914 H 0.82323 0.74965 0.83429 0.0
H915 H 0.77896 0.67851 0.86118 0.0
O916 O 0.59777 0.75714 0.78061 0.0
C917 C 0.66777 0.68714 0.81213 0.0
Co918 Co 0.64973 0.53038 0.80095 0.0
Co919 Co 0.57756 0.54926 0.85487 0.0
C920 C 0.65565 0.52648 0.88881 0.0
O921 O 0.66909 0.52314 0.85485 0.0
O922 O 0.619 0.53602 0.89469 0.0
C923 C 0.72924 0.50955 0.77192 0.0
O924 O 0.75109 0.49522 0.74901 0.0
C925 C 0.50329 0.56175 0.9061 0.0
C926 C 0.47555 0.59073 0.86987 0.0
C927 C 0.46993 0.57855 0.90397 0.0
N928 N 0.52718 0.56409 0.87442 0.0
N929 N 0.51022 0.58143 0.8531 0.0
C930 C 0.5135 0.54466 0.93798 0.0
H931 H 0.54758 0.53957 0.93721 0.0
H932 H 0.49433 0.52764 0.93477 0.0
H933 H 0.50555 0.55325 0.96578 0.0
C934 C 0.57387 0.51077 0.75861 0.0
N935 N 0.59208 0.52039 0.79023 0.0
N936 N 0.562 0.52731 0.81396 0.0
C937 C 0.52374 0.52201 0.79829 0.0
C938 C 0.52952 0.51178 0.7621 0.0
C939 C 0.59878 0.50301 0.7243 0.0
H940 H 0.60831 0.48352 0.72768 0.0
H941 H 0.58009 0.50471 0.69783 0.0
H942 H 0.62793 0.51423 0.72173 0.0
O943 O 0.65468 0.56668 0.79162 0.0
O944 O 0.60478 0.57845 0.83218 0.0
H945 H 0.45732 0.51393 0.80685 0.0
H946 H 0.48534 0.52429 0.84877 0.0
C947 C 0.4821 0.5267 0.8176 0.0
H948 H 0.47183 0.54579 0.81181 0.0
H949 H 0.52228 0.58687 0.82675 0.0
O950 O 0.6895 0.51212 0.76662 0.0
C951 C 0.63331 0.58357 0.80787 0.0
Co952 Co 0.40211 0.49059 0.55219 0.0
Co953 Co 0.32669 0.47579 0.60577 0.0
C954 C 0.40769 0.49702 0.63825 0.0
O955 O 0.42288 0.49877 0.60477 0.0
O956 O 0.36986 0.48925 0.64354 0.0
C957 C 0.47894 0.51681 0.51609 0.0
O958 O 0.49782 0.52213 0.48381 0.0
C959 C 0.25101 0.48237 0.65448 0.0
C960 C 0.22067 0.44585 0.64917 0.0
C961 C 0.21523 0.46896 0.66518 0.0
N962 N 0.27569 0.46793 0.63253 0.0
N963 N 0.25749 0.4461 0.62973 0.0
C964 C 0.26256 0.5081 0.66562 0.0
H965 H 0.29715 0.51122 0.66202 0.0
H966 H 0.24559 0.52124 0.64707 0.0
H967 H 0.25311 0.51175 0.69556 0.0
C968 C 0.32781 0.50891 0.50563 0.0
N969 N 0.34472 0.50134 0.53907 0.0
N970 N 0.31336 0.49603 0.56256 0.0
C971 C 0.27581 0.50046 0.54495 0.0
C972 C 0.28334 0.50897 0.50813 0.0
C973 C 0.35369 0.51312 0.47059 0.0
H974 H 0.36436 0.49513 0.45909 0.0
H975 H 0.3823 0.52398 0.47789 0.0
H976 H 0.33502 0.52275 0.44861 0.0
O977 O 0.40311 0.45402 0.54798 0.0
O978 O 0.34853 0.44393 0.58529 0.0
H979 H 0.23521 0.47239 0.56731 0.0
H980 H 0.20772 0.49461 0.53913 0.0
C981 C 0.23361 0.49215 0.56002 0.0
H982 H 0.2257 0.50275 0.586 0.0
H983 H 0.26987 0.43146 0.614 0.0
O984 O 0.44494 0.50391 0.51497 0.0
C985 C 0.37872 0.43789 0.56286 0.0
Co986 Co 0.3986 0.28106 0.55232 0.0
Co987 Co 0.46854 0.30065 0.60775 0.0
C988 C 0.38925 0.27717 0.63975 0.0
O989 O 0.37696 0.27369 0.60555 0.0
O990 O 0.4256 0.28697 0.64634 0.0
C991 C 0.32017 0.26087 0.52064 0.0
O992 O 0.29898 0.24664 0.49716 0.0
C993 C 0.54152 0.31253 0.66044 0.0
C994 C 0.5683 0.34348 0.62738 0.0
C995 C 0.5742 0.32992 0.66013 0.0
N996 N 0.51776 0.31585 0.62906 0.0
N997 N 0.53414 0.33438 0.60965 0.0
C998 C 0.53199 0.29375 0.69023 0.0
H999 H 0.49817 0.28806 0.68886 0.0
H1000 H 0.55199 0.2773 0.68504 0.0
H1001 H 0.53939 0.30111 0.71894 0.0
C1002 C 0.47623 0.26076 0.51282 0.0
N1003 N 0.45683 0.27116 0.54336 0.0
N1004 N 0.4861 0.27875 0.56734 0.0
C1005 C 0.52491 0.27329 0.5527 0.0
C1006 C 0.52028 0.26175 0.51753 0.0
C1007 C 0.45298 0.25203 0.4783 0.0
H1008 H 0.43053 0.26644 0.46885 0.0
H1009 H 0.43388 0.23558 0.48586 0.0
H1010 H 0.47514 0.24727 0.45478 0.0
O1011 O 0.39329 0.31729 0.54311 0.0
O1012 O 0.44159 0.3296 0.58459 0.0
H1013 H 0.5723 0.30046 0.56374 0.0
H1014 H 0.59283 0.26981 0.55843 0.0
C1015 C 0.56616 0.28083 0.57017 0.0
H1016 H 0.56471 0.27842 0.60145 0.0
H1017 H 0.52218 0.34073 0.58386 0.0
O1018 O 0.36025 0.26308 0.5166 0.0
C1019 C 0.41365 0.33439 0.55983 0.0
Co1020 Co 0.39753 0.33249 0.36579 0.0
Co1021 Co 0.3252 0.34655 0.3103 0.0
C1022 C 0.40768 0.32508 0.28068 0.0
O1023 O 0.42174 0.32417 0.31456 0.0
O1024 O 0.36983 0.33231 0.27415 0.0
C1025 C 0.46981 0.30677 0.40335 0.0
O1026 O 0.4865 0.29909 0.43523 0.0
C1027 C 0.2508 0.34038 0.2605 0.0
C1028 C 0.2213 0.37707 0.2658 0.0
C1029 C 0.21559 0.35404 0.24959 0.0
N1030 N 0.27542 0.35463 0.28268 0.0
N1031 N 0.25775 0.37657 0.28547 0.0
C1032 C 0.26195 0.31459 0.24947 0.0
H1033 H 0.29647 0.31138 0.25303 0.0
H1034 H 0.24468 0.30155 0.26818 0.0
H1035 H 0.25264 0.3109 0.21956 0.0
C1036 C 0.32343 0.31215 0.40922 0.0
N1037 N 0.34068 0.3208 0.37654 0.0
N1038 N 0.30986 0.32652 0.35307 0.0
C1039 C 0.27202 0.32173 0.37021 0.0
C1040 C 0.27911 0.31232 0.40653 0.0
C1041 C 0.34904 0.30593 0.44357 0.0
H1042 H 0.36462 0.32282 0.45458 0.0
H1043 H 0.37428 0.29268 0.43553 0.0
H1044 H 0.32902 0.29778 0.46618 0.0
O1045 O 0.39822 0.36886 0.37073 0.0
O1046 O 0.34617 0.37849 0.33096 0.0
H1047 H 0.20415 0.328 0.37628 0.0
H1048 H 0.22208 0.31975 0.32929 0.0
C1049 C 0.23014 0.33032 0.35525 0.0
H1050 H 0.23234 0.35005 0.34778 0.0
H1051 H 0.27014 0.39108 0.30145 0.0
O1052 O 0.43567 0.31916 0.40503 0.0
C1053 C 0.37472 0.38478 0.35468 0.0
Co1054 Co 0.39164 0.54142 0.3666 0.0
Co1055 Co 0.46357 0.52258 0.31233 0.0
C1056 C 0.38617 0.54609 0.27895 0.0
O1057 O 0.37261 0.54913 0.31292 0.0
O1058 O 0.42266 0.53644 0.27289 0.0
C1059 C 0.31153 0.56098 0.39564 0.0
O1060 O 0.28887 0.575 0.41837 0.0
C1061 C 0.53625 0.50913 0.26004 0.0
C1062 C 0.5642 0.48014 0.29613 0.0
C1063 C 0.569 0.49192 0.2616 0.0
N1064 N 0.51344 0.50741 0.29242 0.0
N1065 N 0.53051 0.49005 0.31366 0.0
C1066 C 0.52534 0.52588 0.22791 0.0
H1067 H 0.49133 0.53106 0.22922 0.0
H1068 H 0.54468 0.54289 0.23027 0.0
H1069 H 0.5325 0.51697 0.20017 0.0
C1070 C 0.46793 0.56018 0.40931 0.0
N1071 N 0.44947 0.55099 0.37752 0.0
N1072 N 0.47939 0.54413 0.35357 0.0
C1073 C 0.51776 0.54907 0.3692 0.0
C1074 C 0.51225 0.55896 0.40564 0.0
C1075 C 0.44328 0.56767 0.44391 0.0
H1076 H 0.41337 0.55706 0.44576 0.0
H1077 H 0.43511 0.58744 0.4416 0.0
H1078 H 0.46173 0.56496 0.4703 0.0
O1079 O 0.38615 0.50525 0.37526 0.0
O1080 O 0.43577 0.4935 0.33443 0.0
H1081 H 0.58414 0.55709 0.36028 0.0
H1082 H 0.55576 0.54686 0.31845 0.0
C1083 C 0.55923 0.54438 0.34959 0.0
H1084 H 0.56949 0.52526 0.35518 0.0
H1085 H 0.51902 0.48493 0.34037 0.0
O1086 O 0.35141 0.55922 0.40096 0.0
C1087 C 0.40717 0.4884 0.35865 0.0
C1088 C 0.11899 0.168 0.61676 0.0
C1089 C 0.16007 0.15888 0.61039 0.0
H1090 H 0.07958 0.19996 0.62108 0.0
C1091 C 0.19434 0.17552 0.60862 0.0
H1092 H 0.09201 0.15564 0.61822 0.0
C1093 C 0.18736 0.2009 0.61153 0.0
C1094 C 0.14588 0.20999 0.6151 0.0
H1095 H 0.22641 0.16894 0.60402 0.0
H1096 H 0.21397 0.2134 0.60853 0.0
C1097 C 0.1119 0.19333 0.61848 0.0
C1098 C 0.18646 0.11972 0.80386 0.0
C1099 C 0.14472 0.11067 0.80265 0.0
H1100 H 0.22633 0.15162 0.80936 0.0
C1101 C 0.11081 0.12741 0.80137 0.0
H1102 H 0.21308 0.1072 0.80507 0.0
C1103 C 0.11834 0.15274 0.80279 0.0
C1104 C 0.15986 0.16179 0.80681 0.0
H1105 H 0.0783 0.12086 0.80052 0.0
H1106 H 0.09148 0.16516 0.80294 0.0
C1107 C 0.19395 0.14509 0.80657 0.0
C1108 C 0.85867 0.87041 0.55394 0.0
C1109 C 0.90022 0.86121 0.55197 0.0
H1110 H 0.81948 0.90248 0.55948 0.0
C1111 C 0.93442 0.87781 0.54975 0.0
H1112 H 0.83184 0.85797 0.55601 0.0
C1113 C 0.92737 0.90317 0.55077 0.0
C1114 C 0.88607 0.91241 0.5553 0.0
H1115 H 0.96678 0.87112 0.54834 0.0
H1116 H 0.95444 0.9155 0.55009 0.0
C1117 C 0.85169 0.89581 0.5562 0.0
C1118 C 0.93345 0.94495 0.36689 0.0
C1119 C 0.89978 0.96182 0.36483 0.0
H1120 H 0.95219 0.9071 0.36688 0.0
C1121 C 0.85789 0.95297 0.36417 0.0
H1122 H 0.96605 0.95137 0.36737 0.0
C1123 C 0.85003 0.92762 0.3626 0.0
C1124 C 0.88387 0.91076 0.36301 0.0
H1125 H 0.83146 0.9656 0.36238 0.0
H1126 H 0.81756 0.9212 0.36 0.0
C1127 C 0.92553 0.91965 0.36664 0.0
C1128 C 0.18498 0.70339 0.11028 0.0
C1129 C 0.14318 0.71216 0.1128 0.0
H1130 H 0.22502 0.6717 0.10439 0.0
C1131 C 0.10953 0.69527 0.11576 0.0
H1132 H 0.21136 0.71608 0.10769 0.0
C1133 C 0.11733 0.67 0.11489 0.0
C1134 C 0.15882 0.66118 0.10973 0.0
H1135 H 0.077 0.70164 0.11761 0.0
H1136 H 0.09066 0.6574 0.11617 0.0
C1137 C 0.19269 0.67807 0.10811 0.0
C1138 C 0.10843 0.62613 0.3025 0.0
C1139 C 0.14222 0.60931 0.30335 0.0
H1140 H 0.08955 0.66397 0.30304 0.0
C1141 C 0.18409 0.61824 0.30321 0.0
H1142 H 0.07584 0.61968 0.30264 0.0
C1143 C 0.19191 0.64361 0.30484 0.0
C1144 C 0.158 0.6604 0.30518 0.0
H1145 H 0.21063 0.60566 0.30402 0.0
H1146 H 0.22442 0.65009 0.30649 0.0
C1147 C 0.11626 0.65144 0.30273 0.0
C1148 C 0.92377 0.40183 1.04864 0.0
C1149 C 0.88231 0.41052 1.05445 0.0
H1150 H 0.96446 0.37032 1.04584 0.0
C1151 C 0.84869 0.39345 1.05666 0.0
H1152 H 0.95029 0.41451 1.04695 0.0
C1153 C 0.85668 0.36812 1.05476 0.0
C1154 C 0.89854 0.35951 1.05184 0.0
H1155 H 0.81636 0.39968 1.06095 0.0
H1156 H 0.83053 0.35533 1.0581 0.0
C1157 C 0.93188 0.37656 1.04797 0.0
C1158 C 0.86152 0.45037 0.86414 0.0
C1159 C 0.90306 0.45975 0.86332 0.0
H1160 H 0.8222 0.41812 0.86165 0.0
C1161 C 0.93745 0.44331 0.86375 0.0
H1162 H 0.83452 0.46266 0.86359 0.0
C1163 C 0.93047 0.41791 0.86374 0.0
C1164 C 0.88899 0.40851 0.86199 0.0
H1165 H 0.96981 0.45013 0.86311 0.0
H1166 H 0.95756 0.40566 0.86297 0.0
C1167 C 0.85453 0.42494 0.86283 0.0
C1168 C 0.61489 0.16651 0.11004 0.0
C1169 C 0.65666 0.15762 0.10841 0.0
H1170 H 0.57473 0.19828 0.11068 0.0
C1171 C 0.69065 0.17438 0.11072 0.0
H1172 H 0.58816 0.15399 0.10818 0.0
C1173 C 0.68296 0.19968 0.11345 0.0
C1174 C 0.6412 0.20862 0.11254 0.0
H1175 H 0.72317 0.16794 0.10969 0.0
H1176 H 0.70964 0.21225 0.11409 0.0
C1177 C 0.60724 0.19181 0.11144 0.0
C1178 C 0.69379 0.14417 0.30243 0.0
C1179 C 0.66025 0.16116 0.30541 0.0
H1180 H 0.71187 0.10617 0.29894 0.0
C1181 C 0.61829 0.15253 0.30348 0.0
H1182 H 0.72649 0.15036 0.30362 0.0
C1183 C 0.61004 0.12727 0.30178 0.0
C1184 C 0.64355 0.1102 0.30078 0.0
H1185 H 0.59186 0.16518 0.30581 0.0
H1186 H 0.57736 0.121 0.30276 0.0
C1187 C 0.6855 0.1189 0.29952 0.0
C1188 C 0.35973 0.87008 1.05142 0.0
C1189 C 0.40153 0.86139 1.04852 0.0
H1190 H 0.31961 0.90163 1.05852 0.0
C1191 C 0.43505 0.87839 1.04561 0.0
H1192 H 0.33344 0.85733 1.05403 0.0
C1193 C 0.42718 0.90365 1.04728 0.0
C1194 C 0.38574 0.91237 1.05316 0.0
H1195 H 0.4676 0.87209 1.04354 0.0
H1196 H 0.45382 0.91628 1.04629 0.0
C1197 C 0.35194 0.89538 1.05431 0.0
C1198 C 0.34824 0.92841 0.859 0.0
C1199 C 0.38172 0.91132 0.8592 0.0
H1200 H 0.33053 0.96651 0.86003 0.0
C1201 C 0.4235 0.91983 0.86371 0.0
H1202 H 0.31568 0.92227 0.85586 0.0
C1203 C 0.43195 0.94505 0.86502 0.0
C1204 C 0.39869 0.96218 0.86316 0.0
H1205 H 0.44987 0.90707 0.86393 0.0
H1206 H 0.46468 0.95121 0.86612 0.0
C1207 C 0.35664 0.95367 0.86165 0.0
C1208 C 0.68957 0.67475 0.60989 0.0
C1209 C 0.65576 0.6578 0.60924 0.0
H1210 H 0.70812 0.71278 0.61086 0.0
C1211 C 0.61392 0.66655 0.61144 0.0
H1212 H 0.72215 0.66844 0.60835 0.0
C1213 C 0.60596 0.69183 0.61179 0.0
C1214 C 0.63969 0.7088 0.61126 0.0
H1215 H 0.5873 0.6539 0.61081 0.0
H1216 H 0.57335 0.69815 0.61151 0.0
C1217 C 0.6816 0.70006 0.61154 0.0
C1218 C 0.61722 0.65219 0.80157 0.0
C1219 C 0.65913 0.66088 0.80385 0.0
H1220 H 0.57631 0.62065 0.80131 0.0
C1221 C 0.69273 0.64383 0.80216 0.0
H1222 H 0.59075 0.66485 0.80293 0.0
C1223 C 0.6845 0.61852 0.80013 0.0
C1224 C 0.64252 0.60984 0.80091 0.0
H1225 H 0.7254 0.65005 0.80369 0.0
H1226 H 0.71087 0.60577 0.80057 0.0
C1227 C 0.609 0.6269 0.8007 0.0
C1228 C 0.35345 0.39427 0.55617 0.0
C1229 C 0.38695 0.41146 0.55595 0.0
H1230 H 0.33564 0.35611 0.55568 0.0
C1231 C 0.42879 0.40295 0.55197 0.0
H1232 H 0.32084 0.40036 0.55897 0.0
C1233 C 0.4372 0.37773 0.55108 0.0
C1234 C 0.40387 0.36053 0.55288 0.0
H1235 H 0.45522 0.41575 0.55178 0.0
H1236 H 0.46992 0.37163 0.55032 0.0
C1237 C 0.36182 0.36899 0.55401 0.0
C1238 C 0.34821 0.42803 0.36095 0.0
C1239 C 0.3821 0.41122 0.36187 0.0
H1240 H 0.32954 0.46599 0.36115 0.0
C1241 C 0.42359 0.4201 0.36681 0.0
H1242 H 0.31586 0.42159 0.35744 0.0
C1243 C 0.43139 0.44539 0.36788 0.0
C1244 C 0.39774 0.46222 0.36534 0.0
H1245 H 0.45027 0.40757 0.36755 0.0
H1246 H 0.46394 0.45184 0.36934 0.0
C1247 C 0.35593 0.45336 0.36334 0.0
C1248 C 0.3817 0.07067 0.47513 0.0
C1249 C 0.36587 0.09484 0.47656 0.0
H1250 H 0.42775 0.04614 0.45092 0.0
C1251 C 0.38701 0.11329 0.45609 0.0
H1252 H 0.36714 0.05616 0.49161 0.0
C1253 C 0.42226 0.10769 0.43376 0.0
C1254 C 0.43761 0.0835 0.43147 0.0
H1255 H 0.37592 0.13213 0.45682 0.0
H1256 H 0.43732 0.1224 0.4179 0.0
C1257 C 0.41721 0.06502 0.45258 0.0
C1258 C 0.89174 0.20319 0.46188 0.0
C1259 C 0.87179 0.22112 0.43967 0.0
H1260 H 0.93989 0.19523 0.50253 0.0
C1261 C 0.88774 0.24529 0.44009 0.0
H1262 H 0.88045 0.18436 0.4619 0.0
C1263 C 0.92189 0.2516 0.46357 0.0
C1264 C 0.94096 0.23374 0.48659 0.0
H1265 H 0.87414 0.25935 0.42224 0.0
H1266 H 0.93233 0.27055 0.46448 0.0
C1267 C 0.92575 0.20945 0.4852 0.0
C1268 C 0.42046 0.21439 0.98503 0.0
C1269 C 0.4366 0.23848 0.98618 0.0
H1270 H 0.37411 0.18978 0.96236 0.0
C1271 C 0.41768 0.25657 0.96346 0.0
H1272 H 0.4344 0.19999 1.00213 0.0
C1273 C 0.38276 0.25065 0.94049 0.0
C1274 C 0.36613 0.22661 0.94016 0.0
H1275 H 0.42893 0.27537 0.96418 0.0
H1276 H 0.36924 0.26485 0.92286 0.0
C1277 C 0.38587 0.20852 0.96221 0.0
C1278 C 0.91765 0.06524 0.95267 0.0
C1279 C 0.93755 0.08363 0.93098 0.0
H1280 H 0.86806 0.05647 0.9922 0.0
C1281 C 0.92169 0.10773 0.9327 0.0
H1282 H 0.92856 0.04642 0.95146 0.0
C1283 C 0.88646 0.11332 0.95506 0.0
C1284 C 0.86584 0.09495 0.97612 0.0
H1285 H 0.93635 0.12236 0.91639 0.0
H1286 H 0.87495 0.13208 0.95534 0.0
C1287 C 0.88219 0.07089 0.97526 0.0
C1288 C 0.6222 0.96335 0.72919 0.0
C1289 C 0.60696 0.98754 0.73205 0.0
H1290 H 0.66863 0.93908 0.70589 0.0
C1291 C 0.62784 1.00624 0.71173 0.0
H1292 H 0.60682 0.94848 0.74441 0.0
C1293 C 0.66356 1.00076 0.68933 0.0
C1294 C 0.67922 0.97658 0.68728 0.0
H1295 H 0.61748 1.02513 0.71386 0.0
H1296 H 0.67837 1.01544 0.67341 0.0
C1297 C 0.6577 0.95794 0.70706 0.0
C1298 C 0.15981 0.82294 0.72399 0.0
C1299 C 0.177 0.84683 0.723 0.0
H1300 H 0.11355 0.79796 0.70133 0.0
C1301 C 0.15798 0.8645 0.69966 0.0
H1302 H 0.17271 0.80911 0.74265 0.0
C1303 C 0.12348 0.85832 0.67693 0.0
C1304 C 0.10681 0.83434 0.67711 0.0
H1305 H 0.17019 0.88312 0.69847 0.0
H1306 H 0.11003 0.87239 0.65888 0.0
C1307 C 0.12512 0.81669 0.70103 0.0
C1308 C 0.6187 0.86229 0.1872 0.0
C1309 C 0.60369 0.83801 0.18426 0.0
H1310 H 0.66427 0.88682 0.21141 0.0
C1311 C 0.62341 0.81956 0.20567 0.0
H1312 H 0.6041 0.87698 0.17115 0.0
C1313 C 0.65801 0.82528 0.22902 0.0
C1314 C 0.67381 0.84947 0.23087 0.0
H1315 H 0.61318 0.80061 0.20356 0.0
H1316 H 0.67204 0.81075 0.24563 0.0
C1317 C 0.65318 0.86796 0.21031 0.0
C1318 C 0.15825 0.95759 0.20984 0.0
C1319 C 0.17894 0.97587 0.18862 0.0
H1320 H 0.10834 0.94871 0.24857 0.0
C1321 C 0.16273 0.99997 0.18945 0.0
H1322 H 0.16963 0.93881 0.20963 0.0
C1323 C 0.1273 1.00573 0.21205 0.0
C1324 C 0.10728 0.98741 0.23383 0.0
H1325 H 0.17691 1.01434 0.17244 0.0
H1326 H 0.1165 1.02457 0.21318 0.0
C1327 C 0.12306 0.96329 0.23221 0.0
C1328 C 0.38409 0.61403 0.95462 0.0
C1329 C 0.36357 0.59581 0.97609 0.0
H1330 H 0.43389 0.62281 0.91575 0.0
C1331 C 0.37985 0.57174 0.97552 0.0
H1332 H 0.37263 0.63279 0.95464 0.0
C1333 C 0.41523 0.56593 0.95292 0.0
C1334 C 0.43511 0.58418 0.93094 0.0
H1335 H 0.36578 0.55743 0.99274 0.0
H1336 H 0.42611 0.54709 0.95198 0.0
C1337 C 0.41925 0.60828 0.93228 0.0
C1338 C 0.88575 0.74734 0.93686 0.0
C1339 C 0.86972 0.72317 0.93687 0.0
H1340 H 0.93009 0.77281 0.96115 0.0
C1341 C 0.88918 0.7055 0.9599 0.0
H1342 H 0.8725 0.7612 0.91844 0.0
C1343 C 0.92279 0.71199 0.98354 0.0
C1344 C 0.93811 0.73627 0.98444 0.0
H1345 H 0.87783 0.68668 0.9603 0.0
H1346 H 0.93655 0.69797 1.00148 0.0
C1347 C 0.91953 0.75388 0.96064 0.0
C1348 C 0.37924 0.75044 0.43845 0.0
C1349 C 0.36287 0.72635 0.43739 0.0
H1350 H 0.42527 0.77498 0.46278 0.0
C1351 C 0.38281 0.70804 0.45885 0.0
H1352 H 0.36556 0.76482 0.42129 0.0
C1353 C 0.41745 0.71371 0.48173 0.0
C1354 C 0.43341 0.73781 0.48355 0.0
H1355 H 0.37125 0.68926 0.45845 0.0
H1356 H 0.4316 0.69912 0.4983 0.0
C1357 C 0.41419 0.75616 0.4615 0.0
C1358 C 0.88473 0.61156 0.45614 0.0
C1359 C 0.8646 0.59342 0.47805 0.0
H1360 H 0.93392 0.62023 0.41654 0.0
C1361 C 0.88116 0.56941 0.47772 0.0
H1362 H 0.87306 0.63029 0.45596 0.0
C1363 C 0.91636 0.56356 0.45489 0.0
C1364 C 0.93573 0.58171 0.43234 0.0
H1365 H 0.86739 0.55517 0.49527 0.0
H1366 H 0.92747 0.54476 0.45415 0.0
C1367 C 0.91966 0.60577 0.4335 0.0
C1368 C 0.6572 0.49754 0.1882 0.0
C1369 C 0.67289 0.47335 0.18756 0.0
H1370 H 0.61228 0.52268 0.21245 0.0
C1371 C 0.65214 0.4553 0.20917 0.0
H1372 H 0.67138 0.51171 0.17078 0.0
C1373 C 0.6176 0.46143 0.23211 0.0
C1374 C 0.60264 0.48572 0.23378 0.0
H1375 H 0.66315 0.43644 0.209 0.0
H1376 H 0.60287 0.44709 0.24898 0.0
C1377 C 0.6225 0.50373 0.21133 0.0
C1378 C 0.12696 0.31721 0.20276 0.0
C1379 C 0.10743 0.33547 0.18075 0.0
H1380 H 0.17591 0.3087 0.24261 0.0
C1381 C 0.12362 0.35954 0.18196 0.0
H1382 H 0.11589 0.29839 0.20189 0.0
C1383 C 0.15872 0.36526 0.20423 0.0
C1384 C 0.17881 0.34704 0.22579 0.0
H1385 H 0.10928 0.37407 0.1654 0.0
H1386 H 0.17044 0.384 0.20415 0.0
C1387 C 0.16221 0.323 0.22533 0.0
C1388 C 0.62443 0.35891 0.69088 0.0
C1389 C 0.609 0.33476 0.68735 0.0
H1390 H 0.67091 0.38288 0.71479 0.0
C1391 C 0.62946 0.31584 0.70722 0.0
H1392 H 0.60937 0.37396 0.67603 0.0
C1393 C 0.665 0.32103 0.72982 0.0
C1394 C 0.68094 0.34518 0.73245 0.0
H1395 H 0.61895 0.29697 0.70457 0.0
H1396 H 0.67949 0.30617 0.74536 0.0
C1397 C 0.65978 0.36405 0.71316 0.0
C1398 C 0.127 0.50639 0.71183 0.0
C1399 C 0.10794 0.48852 0.73512 0.0
H1400 H 0.17555 0.51428 0.67079 0.0
C1401 C 0.12399 0.46445 0.7345 0.0
H1402 H 0.11584 0.52518 0.71211 0.0
C1403 C 0.15864 0.45837 0.71169 0.0
C1404 C 0.17851 0.47625 0.68909 0.0
H1405 H 0.10995 0.45021 0.75203 0.0
H1406 H 0.17033 0.43966 0.71229 0.0
C1407 C 0.16195 0.50026 0.68886 0.0
C1408 C 1.01051 0.05178 0.55294 0.0
C1409 C 0.99973 1.02672 0.54994 0.0
H1410 H 0.03949 0.08023 0.58675 0.0
C1411 C 1.01255 1.01067 0.57882 0.0
H1412 H 1.00131 0.0645 0.53086 0.0
C1413 C 0.03495 1.01962 0.61043 0.0
C1414 C 0.04567 0.04467 0.61346 0.0
H1415 H 1.00589 0.99117 0.57666 0.0
H1416 H 0.04418 1.0069 0.6325 0.0
C1417 C 0.03286 0.06073 0.58457 0.0
C1418 C 0.30104 0.29881 0.55693 0.0
C1419 C 0.29751 0.27332 0.55192 0.0
H1420 H 0.28366 0.33022 0.59066 0.0
C1421 C 0.27151 0.2598 0.57669 0.0
H1422 H 0.3184 0.30977 0.5366 0.0
C1423 C 0.25071 0.27154 0.60691 0.0
C1424 C 0.25473 0.29698 0.61224 0.0
H1425 H 0.26844 0.24007 0.57343 0.0
H1426 H 0.23342 0.26056 0.62725 0.0
C1427 C 0.28041 0.31052 0.58724 0.0
C1428 C 1.01212 0.26908 0.86479 0.0
C1429 C 1.00116 0.29409 0.86768 0.0
H1430 H 0.0412 0.24065 0.83098 0.0
C1431 C 1.01379 0.3101 0.83854 0.0
H1432 H 1.00309 0.25639 0.88706 0.0
C1433 C 0.03619 0.30115 0.80682 0.0
C1434 C 0.04711 0.27614 0.80392 0.0
H1435 H 1.00702 0.32958 0.8406 0.0
H1436 H 0.04528 0.31384 0.78457 0.0
C1437 C 0.03446 0.26013 0.83305 0.0
C1438 C 0.27772 1.01165 0.82751 0.0
C1439 C 0.25311 1.02503 0.80179 0.0
H1440 H 0.31349 1.01273 0.87915 0.0
C1441 C 0.24894 0.05049 0.80666 0.0
H1442 H 0.28091 0.99193 0.82445 0.0
C1443 C 0.26844 0.0624 0.83729 0.0
C1444 C 0.29318 0.04902 0.86293 0.0
H1445 H 0.23237 0.06131 0.7858 0.0
H1446 H 0.26532 0.08214 0.84029 0.0
C1447 C 0.29707 1.02355 0.85821 0.0
C1448 C 0.76464 0.7594 0.57617 0.0
C1449 C 0.79002 0.77363 0.55188 0.0
H1450 H 0.72775 0.75873 0.62739 0.0
C1451 C 0.79439 0.79888 0.5589 0.0
H1452 H 0.76112 0.73982 0.57141 0.0
C1453 C 0.77456 0.80972 0.59035 0.0
C1454 C 0.74916 0.79549 0.61463 0.0
H1455 H 0.81151 0.81038 0.53914 0.0
H1456 H 0.77805 0.82931 0.59509 0.0
C1457 C 0.74485 0.77024 0.60763 0.0
C1458 C 0.99482 0.75893 0.34712 0.0
C1459 C 0.98883 0.784 0.35558 0.0
H1460 H 0.02568 0.73238 0.31105 0.0
C1461 C 1.01527 0.80139 0.33763 0.0
H1462 H 0.97487 0.74511 0.36036 0.0
C1463 C 0.04374 0.7941 0.30905 0.0
C1464 C 0.04733 0.76925 0.2987 0.0
H1465 H 1.01119 0.82086 0.34299 0.0
H1466 H 0.06085 0.80806 0.29326 0.0
C1467 C 0.02394 0.75161 0.31899 0.0
C1468 C 0.74743 0.04943 0.30614 0.0
C1469 C 0.75208 1.02401 0.30116 0.0
H1470 H 0.76301 0.08112 0.33992 0.0
C1471 C 0.77723 1.01077 0.32667 0.0
H1472 H 0.73057 0.06015 0.28537 0.0
C1473 C 0.79649 1.02277 0.35732 0.0
C1474 C 0.7919 0.0482 0.36228 0.0
H1475 H 0.78089 0.99108 0.32353 0.0
H1476 H 0.81325 1.01204 0.37812 0.0
C1477 C 0.76671 0.06143 0.33678 0.0
C1478 C 0.02419 0.56977 0.09591 0.0
C1479 C 0.04749 0.55216 0.11606 0.0
H1480 H 0.97498 0.57619 1.05503 0.0
C1481 C 0.04366 0.5273 0.10586 0.0
H1482 H 0.02614 0.58902 0.10374 0.0
C1483 C 1.01499 0.51995 1.07763 0.0
C1484 C 0.9886 0.53731 1.05988 0.0
H1485 H 0.06073 0.51336 0.12156 0.0
H1486 H 1.01073 0.50047 1.07242 0.0
C1487 C 0.99487 0.5624 1.06813 0.0
C1488 C 0.29855 0.79964 1.05495 0.0
C1489 C 0.29492 0.77416 1.04988 0.0
H1490 H 0.2814 0.83106 0.08878 0.0
C1491 C 0.26899 0.76067 1.07478 0.0
H1492 H 0.31579 0.81061 1.03456 0.0
C1493 C 0.24833 0.77242 0.10509 0.0
C1494 C 0.25236 0.79787 0.11042 0.0
H1495 H 0.26582 0.74095 1.07148 0.0
H1496 H 0.23106 0.76144 0.12544 0.0
C1497 C 0.27806 0.81136 0.08536 0.0
C1498 C 0.26599 0.56187 0.33789 0.0
C1499 C 0.29088 0.54848 0.36343 0.0
H1500 H 0.2301 0.5609 0.28631 0.0
C1501 C 0.29521 0.52306 0.35828 0.0
H1502 H 0.26249 0.58156 0.34119 0.0
C1503 C 0.27605 0.51123 0.32741 0.0
C1504 C 0.25118 0.52461 0.30186 0.0
H1505 H 0.31167 0.51219 0.37911 0.0
H1506 H 0.27956 0.49154 0.3241 0.0
C1507 C 0.24676 0.55004 0.30703 0.0
C1508 C 0.76742 0.25666 1.0814 0.0
C1509 C 0.79266 0.27059 1.05657 0.0
H1510 H 0.73066 0.25663 0.13278 0.0
C1511 C 0.79683 0.29593 1.06275 0.0
H1512 H 0.76399 0.23701 1.07728 0.0
C1513 C 0.77728 0.30715 0.09401 0.0
C1514 C 0.75217 0.29321 0.11889 0.0
H1515 H 0.81359 0.30721 1.04249 0.0
H1516 H 0.78078 0.32679 0.09815 0.0
C1517 C 0.74771 0.26789 0.1126 0.0
C1518 C 0.77616 0.50793 0.82873 0.0
C1519 C 0.75057 0.52161 0.80412 0.0
H1520 H 0.81305 0.50828 0.87976 0.0
C1521 C 0.74594 0.54692 0.81028 0.0
H1522 H 0.77994 0.48831 0.82464 0.0
C1523 C 0.76545 0.55835 0.8413 0.0
C1524 C 0.79097 0.54467 0.86594 0.0
H1525 H 0.72883 0.55802 0.79018 0.0
H1526 H 0.76158 0.57797 0.84541 0.0
C1527 C 0.79579 0.51937 0.85971 0.0
C1528 C 0.51034 1.01036 1.07873 0.0
C1529 C 0.49878 1.02665 1.04976 0.0
H1530 H 0.54131 1.00593 0.1326 0.0
C1531 C 0.51134 0.05144 1.05266 0.0
H1532 H 0.50239 0.99101 1.0766 0.0
C1533 C 0.53408 0.05991 0.08436 0.0
C1534 C 0.54556 0.04362 0.11338 0.0
H1535 H 0.50322 0.06433 1.03045 0.0
H1536 H 0.54207 0.07925 0.08649 0.0
C1537 C 0.53311 1.01883 0.11042 0.0
C1538 C 0.49776 0.276 0.35746 0.0
C1539 C 0.49162 0.30075 0.36731 0.0
H1540 H 0.5341 0.25002 0.3253 0.0
C1541 C 0.51456 0.31894 0.34777 0.0
H1542 H 0.48095 0.26165 0.37269 0.0
C1543 C 0.5458 0.31231 0.3211 0.0
C1544 C 0.55425 0.28739 0.31327 0.0
H1545 H 0.51082 0.33813 0.35537 0.0
H1546 H 0.56534 0.32659 0.30856 0.0
C1547 C 0.52825 0.26938 0.33024 0.0
C1548 C 0.51155 0.81823 0.84317 0.0
C1549 C 0.48919 0.80006 0.86329 0.0
H1550 H 0.56169 0.82588 0.80329 0.0
C1551 C 0.49569 0.77527 0.85381 0.0
H1552 H 0.50757 0.83745 0.85047 0.0
C1553 C 0.52597 0.76862 0.82641 0.0
C1554 C 0.55142 0.78665 0.80884 0.0
H1555 H 0.47934 0.76093 0.86946 0.0
H1556 H 0.53212 0.74926 0.82176 0.0
C1557 C 0.54259 0.81157 0.81629 0.0
C1558 C 0.50971 0.55101 0.55484 0.0
C1559 C 0.49818 0.52607 0.5518 0.0
H1560 H 0.53947 0.57918 0.58869 0.0
C1561 C 0.51035 0.50991 0.58077 0.0
H1562 H 0.501 0.56382 0.53272 0.0
C1563 C 0.53282 0.51864 0.61248 0.0
C1564 C 0.54439 0.54358 0.61549 0.0
H1565 H 0.50312 0.49047 0.57859 0.0
H1566 H 0.54147 0.50584 0.63463 0.0
C1567 C 0.53222 0.55974 0.58652 0.0
C1568 C 0.32343 0.06801 0.74887 0.0
C1569 C 0.35652 0.05079 0.74434 0.0
H1570 H 0.26729 0.08457 0.72538 0.0
C1571 C 0.35775 0.03718 0.71018 0.0
H1572 H 0.32161 0.0791 0.77445 0.0
C1573 C 0.3263 0.04025 0.68206 0.0
C1574 C 0.29269 0.05707 0.68707 0.0
H1575 H 0.38238 1.02361 0.70559 0.0
H1576 H 0.32806 1.02927 0.65635 0.0
C1577 C 0.29201 0.07107 0.72078 0.0
C1578 C 0.9745 0.33562 0.74331 0.0
C1579 C 0.94042 0.31919 0.74869 0.0
H1580 H 0.02909 0.34562 0.70991 0.0
C1581 C 0.93593 0.29951 0.7231 0.0
H1582 H 0.97869 0.35103 0.76254 0.0
C1583 C 0.96562 0.29597 0.69349 0.0
C1584 C 1.00006 0.31233 0.6881 0.0
H1585 H 0.91021 0.28645 0.72667 0.0
H1586 H 0.9622 0.2799 0.67558 0.0
C1587 C 1.00359 0.33241 0.71325 0.0
C1588 C 0.32472 0.25491 0.66639 0.0
C1589 C 0.35855 0.27163 0.67172 0.0
H1590 H 0.2679 0.23836 0.68923 0.0
C1591 C 0.36024 0.28437 0.70666 0.0
H1592 H 0.32257 0.2444 0.64027 0.0
C1593 C 0.32866 0.28091 0.7348 0.0
C1594 C 0.29439 0.26458 0.72903 0.0
H1595 H 0.38544 0.29752 0.71194 0.0
H1596 H 0.33089 0.29119 0.76116 0.0
C1597 C 0.29313 0.2515 0.69446 0.0
C1598 C 1.00277 0.98823 0.70454 0.0
C1599 C 0.99913 1.00807 0.73016 0.0
H1600 H 0.97804 0.96991 0.655 0.0
C1601 C 0.96448 1.02425 0.72536 0.0
H1602 H 0.02837 0.97513 0.70742 0.0
C1603 C 0.93478 1.02078 0.69585 0.0
C1604 C 0.93945 1.00139 0.66974 0.0
H1605 H 0.96088 0.04012 0.74366 0.0
H1606 H 0.9089 1.0337 0.69278 0.0
C1607 C 0.9737 0.98513 0.67457 0.0
C1608 C 0.75348 1.00084 0.44234 0.0
C1609 C 0.75255 1.01451 0.47638 0.0
H1610 H 0.72408 0.99316 0.38846 0.0
C1611 C 0.71871 1.03116 0.48165 0.0
H1612 H 0.77838 0.98748 0.43748 0.0
C1613 C 0.68726 1.03435 0.45352 0.0
C1614 C 0.68871 1.02105 0.41906 0.0
H1615 H 0.71675 0.04191 0.50757 0.0
H1616 H 0.66245 0.04776 0.45836 0.0
C1617 C 0.72207 1.00402 0.41425 0.0
C1618 C 0.06565 0.73758 0.41748 0.0
C1619 C 0.10333 0.75147 0.41519 0.0
H1620 H 1.00883 0.72931 0.44869 0.0
C1621 C 0.11119 0.76898 0.44378 0.0
H1622 H 0.05885 0.72373 0.39613 0.0
C1623 C 0.08139 0.773 0.47322 0.0
C1624 C 0.04357 0.759 0.47578 0.0
H1625 H 0.1398 0.78006 0.44274 0.0
H1626 H 0.08772 0.78757 0.49338 0.0
C1627 C 0.0367 0.74096 0.44759 0.0
C1628 C 0.74975 0.82024 0.47285 0.0
C1629 C 0.74844 0.80712 0.43829 0.0
H1630 H 0.72107 0.82689 0.52751 0.0
C1631 C 0.71443 0.79058 0.43278 0.0
H1632 H 0.77433 0.8338 0.47774 0.0
C1633 C 0.68327 0.78689 0.46122 0.0
C1634 C 0.68522 0.79956 0.49621 0.0
H1635 H 0.71207 0.78036 0.40638 0.0
H1636 H 0.65823 0.77361 0.45614 0.0
C1637 C 0.71876 0.81647 0.50131 0.0
C1638 C 0.04281 0.08387 0.45902 0.0
C1639 C 0.04618 0.06391 0.43361 0.0
H1640 H 0.06778 0.10228 0.50839 0.0
C1641 C 0.08055 0.04756 0.4386 0.0
H1642 H 1.0174 0.09708 0.45599 0.0
C1643 C 0.11027 0.05099 0.46809 0.0
C1644 C 0.10589 0.07054 0.49396 0.0
H1645 H 0.0839 1.03158 0.42048 0.0
H1646 H 0.13592 0.03795 0.47133 0.0
C1647 C 0.0719 0.08696 0.48896 0.0
C1648 C 0.32804 0.54277 0.1832 0.0
C1649 C 0.29403 0.55924 0.18869 0.0
H1650 H 0.38388 0.52587 0.20672 0.0
C1651 C 0.29249 0.57249 0.22309 0.0
H1652 H 0.33042 0.53237 0.15695 0.0
C1653 C 0.32334 0.56894 0.25147 0.0
C1654 C 0.35672 0.55196 0.24654 0.0
H1655 H 0.26743 0.58574 0.22807 0.0
H1656 H 0.32084 0.57944 0.27759 0.0
C1657 C 0.35895 0.5392 0.21164 0.0
C1658 C 0.92709 0.8059 0.21568 0.0
C1659 C 0.93328 0.82435 0.24312 0.0
H1660 H 0.95313 0.78596 0.16847 0.0
C1661 C 0.97085 0.8384 0.24114 0.0
H1662 H 0.89897 0.79441 0.21684 0.0
C1663 C 1.00118 0.83437 0.21229 0.0
C1664 C 0.99583 0.81549 0.18521 0.0
H1665 H 0.97668 0.85274 0.26195 0.0
H1666 H 0.02889 0.84614 0.21134 0.0
C1667 C 0.95822 0.80126 0.1876 0.0
C1668 C 0.32748 0.78083 0.23062 0.0
C1669 C 0.294 0.76396 0.22486 0.0
H1670 H 0.38344 0.79828 0.20764 0.0
C1671 C 0.29335 0.75078 0.19037 0.0
H1672 H 0.32912 0.79123 0.25689 0.0
C1673 C 0.32467 0.75467 0.16228 0.0
C1674 C 0.35767 0.77191 0.16757 0.0
H1675 H 0.2687 0.73728 0.18516 0.0
H1676 H 0.32289 0.74416 0.13613 0.0
C1677 C 0.35888 0.78472 0.20246 0.0
C1678 C 0.95761 0.51971 0.23024 0.0
C1679 C 0.99543 0.50573 0.23196 0.0
H1680 H 0.89822 0.52648 0.20159 0.0
C1681 C 1.0009 0.48718 0.20432 0.0
H1682 H 0.95231 0.53471 0.24989 0.0
C1683 C 0.97064 0.48331 0.1755 0.0
C1684 C 0.93291 0.49715 0.1741 0.0
H1685 H 0.02871 0.47555 0.20478 0.0
H1686 H 0.97664 0.46925 0.15428 0.0
C1687 C 0.92651 0.5152 0.20219 0.0
C1688 C 0.74904 0.50017 0.94547 0.0
C1689 C 0.74801 0.51388 0.97946 0.0
H1690 H 0.72044 0.49279 0.89117 0.0
C1691 C 0.71441 0.53072 0.98442 0.0
H1692 H 0.7733 0.48637 0.94107 0.0
C1693 C 0.68354 0.53421 0.95585 0.0
C1694 C 0.68531 0.52097 0.92133 0.0
H1695 H 0.7122 0.54136 1.01045 0.0
H1696 H 0.65889 0.54776 0.96043 0.0
C1697 C 0.71831 0.50368 0.91693 0.0
C1698 C 0.07372 0.23389 0.92861 0.0
C1699 C 0.10744 0.25052 0.92291 0.0
H1700 H 1.01918 0.22384 0.96209 0.0
C1701 C 0.11135 0.27049 0.94804 0.0
H1702 H 0.06991 0.21827 0.90971 0.0
C1703 C 0.0815 0.27409 0.97753 0.0
C1704 C 0.04737 0.25754 0.9832 0.0
H1705 H 0.13674 0.28373 0.94419 0.0
H1706 H 0.08449 0.29036 0.99508 0.0
C1707 C 0.04443 0.23718 0.95853 0.0
C1708 C 0.6878 0.28694 0.96531 0.0
C1709 C 0.68964 0.29966 1.00024 0.0
H1710 H 0.71723 0.27987 0.91096 0.0
C1711 C 0.7237 0.31619 1.00569 0.0
H1712 H 0.66246 0.27388 0.96003 0.0
C1713 C 0.7553 0.31951 0.9776 0.0
C1714 C 0.7539 0.30644 0.94302 0.0
H1715 H 0.72606 0.32656 1.03193 0.0
H1716 H 0.78069 0.33254 0.98287 0.0
C1717 C 0.7195 0.2902 0.93726 0.0
C1718 C 0.03707 0.5804 0.96681 0.0
C1719 C 0.04437 0.56267 0.93821 0.0
H1720 H 0.0587 0.59736 1.01855 0.0
C1721 C 0.08249 0.54904 0.94025 0.0
H1722 H 1.00895 0.59177 0.96609 0.0
C1723 C 0.11214 0.55309 0.96967 0.0
C1724 C 0.1038 0.57023 0.99871 0.0
H1725 H 0.08919 0.53473 0.91973 0.0
H1726 H 0.14099 0.5423 0.97031 0.0
C1727 C 0.06585 0.58377 0.99688 0.0
C1728 C 0.82294 0.06724 0.24928 0.0
C1729 C 0.85659 0.0504 0.24458 0.0
H1730 H 0.76658 0.08353 0.22576 0.0
C1731 C 0.85869 0.03728 0.20999 0.0
H1732 H 0.8205 0.078 0.27514 0.0
C1733 C 0.82752 0.04043 0.18162 0.0
C1734 C 0.79329 0.05681 0.18685 0.0
H1735 H 0.8838 1.02404 0.20521 0.0
H1736 H 0.82995 1.02983 0.15557 0.0
C1737 C 0.79178 0.07034 0.22099 0.0
C1738 C 0.42943 0.30369 0.21937 0.0
C1739 C 0.438 0.32066 0.24857 0.0
H1740 H 0.45263 0.28504 0.1697 0.0
C1741 C 0.47669 0.33362 0.24732 0.0
H1742 H 0.40003 0.29331 0.21965 0.0
C1743 C 0.506 0.32984 0.21764 0.0
C1744 C 0.49845 0.31226 0.18892 0.0
H1745 H 0.48408 0.34703 0.26918 0.0
H1746 H 0.53477 0.34076 0.21736 0.0
C1747 C 0.45957 0.29922 0.19036 0.0
C1748 C 0.86155 0.28408 0.20816 0.0
C1749 C 0.85888 0.271 0.17356 0.0
H1750 H 0.83403 0.29107 0.26342 0.0
C1751 C 0.82552 0.25384 0.16963 0.0
H1752 H 0.88658 0.29749 0.2124 0.0
C1753 C 0.79514 0.2504 0.19869 0.0
C1754 C 0.79705 0.264 0.23274 0.0
H1755 H 0.8228 0.24302 0.14386 0.0
H1756 H 0.77036 0.23682 0.19463 0.0
C1757 C 0.83112 0.2806 0.2373 0.0
C1758 C 0.46422 1.02409 0.22514 0.0
C1759 C 0.49794 1.00738 0.23079 0.0
H1760 H 0.40942 1.03398 0.19184 0.0
C1761 C 0.50062 0.98702 0.20608 0.0
H1762 H 0.46143 0.04033 0.24278 0.0
C1763 C 0.47145 0.98386 0.17618 0.0
C1764 C 0.43814 1.00064 0.17049 0.0
H1765 H 0.52556 0.97356 0.20962 0.0
H1766 H 0.47504 0.96822 0.15729 0.0
C1767 C 0.43451 1.02064 0.19564 0.0
C1768 C 0.21644 1.03022 0.98316 0.0
C1769 C 0.25111 1.01421 0.97761 0.0
H1770 H 0.15991 0.04643 0.95977 0.0
C1771 C 0.25319 1.00111 0.94309 0.0
H1772 H 0.21358 0.04046 1.00951 0.0
C1773 C 0.22212 1.0043 0.91474 0.0
C1774 C 0.18803 1.0208 0.91975 0.0
H1775 H 0.27875 0.9882 0.93805 0.0
H1776 H 0.22498 0.99387 0.88859 0.0
C1777 C 0.18538 1.03346 0.95473 0.0
C1778 C 0.59832 0.77345 0.93267 0.0
C1779 C 0.61518 0.74984 0.92645 0.0
H1780 H 0.55654 0.79617 0.96622 0.0
C1781 C 0.60047 0.73049 0.94963 0.0
H1782 H 0.60854 0.78869 0.91508 0.0
C1783 C 0.56881 0.73453 0.9775 0.0
C1784 C 0.55185 0.75814 0.98351 0.0
H1785 H 0.61222 0.712 0.94514 0.0
H1786 H 0.55739 0.71917 0.99422 0.0
C1787 C 0.568 0.77765 0.96153 0.0
C1788 C 0.20862 0.79445 0.92985 0.0
C1789 C 0.24442 0.80961 0.9355 0.0
H1790 H 0.15193 0.77852 0.95395 0.0
C1791 C 0.24841 0.82165 0.97078 0.0
H1792 H 0.20435 0.78505 0.90293 0.0
C1793 C 0.21823 0.81809 0.99988 0.0
C1794 C 0.18308 0.80234 0.9948 0.0
H1795 H 0.2749 0.83395 0.97589 0.0
H1796 H 0.2226 0.82766 1.02663 0.0
C1797 C 0.17836 0.79086 0.95905 0.0
C1798 C 0.54562 0.08345 0.95703 0.0
C1799 C 0.54738 0.06284 0.93279 0.0
H1800 H 0.57191 0.10223 1.0055 0.0
C1801 C 0.58008 0.04555 0.93895 0.0
H1802 H 0.52142 0.09731 0.95305 0.0
C1803 C 0.60973 0.0487 0.96856 0.0
C1804 C 0.60705 0.06901 0.99319 0.0
H1805 H 0.58209 1.02913 0.92162 0.0
H1806 H 0.63404 1.03493 0.97281 0.0
C1807 C 0.57474 0.08635 0.98697 0.0
C1808 C 0.85826 0.53768 0.71252 0.0
C1809 C 0.85557 0.55006 0.74772 0.0
H1810 H 0.82989 0.53083 0.65778 0.0
C1811 C 0.82107 0.56622 0.75321 0.0
H1812 H 0.88398 0.52493 0.70713 0.0
C1813 C 0.78982 0.56946 0.72499 0.0
C1814 C 0.79202 0.55669 0.69016 0.0
H1815 H 0.81809 0.57639 0.77959 0.0
H1816 H 0.76408 0.58219 0.73037 0.0
C1817 C 0.82695 0.5409 0.68429 0.0
C1818 C 0.50233 0.83011 0.7136 0.0
C1819 C 0.49516 0.812 0.68559 0.0
H1820 H 0.48022 0.8478 0.76467 0.0
C1821 C 0.45674 0.79855 0.68774 0.0
H1822 H 0.53073 0.84133 0.71274 0.0
C1823 C 0.42669 0.8031 0.7168 0.0
C1824 C 0.4349 0.82062 0.7453 0.0
H1825 H 0.45014 0.78399 0.66763 0.0
H1826 H 0.39768 0.79237 0.71768 0.0
C1827 C 0.47311 0.834 0.74332 0.0
C1828 C 0.82956 0.78 0.73292 0.0
C1829 C 0.7948 0.76394 0.72783 0.0
H1830 H 0.88577 0.79643 0.70864 0.0
C1831 C 0.79231 0.75092 0.69326 0.0
H1832 H 0.83292 0.79004 0.7594 0.0
C1833 C 0.82279 0.7544 0.66429 0.0
C1834 C 0.85696 0.77095 0.66885 0.0
H1835 H 0.76706 0.73769 0.68874 0.0
H1836 H 0.81958 0.74405 0.6381 0.0
C1837 C 0.86017 0.78346 0.70392 0.0
C1838 C 0.43301 0.52037 0.69649 0.0
C1839 C 0.43694 0.50044 0.67126 0.0
H1840 H 0.45957 0.54007 0.74376 0.0
C1841 C 0.47039 0.48375 0.67697 0.0
H1842 H 0.4078 0.53364 0.69268 0.0
C1843 C 0.4994 0.48695 0.70697 0.0
C1844 C 0.49645 0.50725 0.73176 0.0
H1845 H 0.47421 0.46816 0.65802 0.0
H1846 H 0.52445 0.47356 0.71052 0.0
C1847 C 0.46258 0.52386 0.72609 0.0
C1848 C 0.25257 0.49978 0.44269 0.0
C1849 C 0.25074 0.51287 0.47724 0.0
H1850 H 0.22391 0.49249 0.38836 0.0
C1851 C 0.21607 0.52887 0.48294 0.0
H1852 H 0.27811 0.48688 0.43751 0.0
C1853 C 0.18475 0.53207 0.4547 0.0
C1854 C 0.18711 0.51939 0.41973 0.0
H1855 H 0.21336 0.53912 0.5093 0.0
H1856 H 0.15929 0.54501 0.45991 0.0
C1857 C 0.22124 0.50293 0.41452 0.0
C1858 C 0.56933 0.27678 0.46543 0.0
C1859 C 0.55434 0.25736 0.48822 0.0
H1860 H 0.60878 0.28775 0.41822 0.0
C1861 C 0.57235 0.23395 0.48291 0.0
H1862 H 0.55721 0.29518 0.46969 0.0
C1863 C 0.60385 0.22997 0.45487 0.0
C1864 C 0.6173 0.24918 0.4308 0.0
H1865 H 0.56183 0.21868 0.50028 0.0
H1866 H 0.6164 0.21161 0.45092 0.0
C1867 C 0.59946 0.27261 0.43641 0.0
C1868 C 0.18127 0.2888 0.46099 0.0
C1869 C 0.18551 0.30042 0.49666 0.0
H1870 H 0.20769 0.2831 0.40499 0.0
C1871 C 0.22011 0.31658 0.50176 0.0
H1872 H 0.15528 0.27615 0.45592 0.0
C1873 C 0.25024 0.3204 0.47273 0.0
C1874 C 0.24677 0.30822 0.43753 0.0
H1875 H 0.22409 0.32625 0.52847 0.0
H1876 H 0.27631 0.33299 0.47784 0.0
C1877 C 0.21151 0.29264 0.43186 0.0
C1878 C 0.60916 0.54939 0.47037 0.0
C1879 C 0.6055 0.56902 0.49616 0.0
H1880 H 0.58209 0.53027 0.42279 0.0
C1881 C 0.57209 0.58583 0.49114 0.0
H1882 H 0.63435 0.53604 0.47364 0.0
C1883 C 0.54282 0.58304 0.46128 0.0
C1884 C 0.54551 0.56303 0.43592 0.0
H1885 H 0.56852 0.60122 0.51054 0.0
H1886 H 0.51782 0.59651 0.45827 0.0
C1887 C 0.57932 0.54629 0.4409 0.0
loop_
_geom_bond_atom_site_label_1
_geom_bond_atom_site_label_2
_geom_bond_distance
_geom_bond_site_symmetry_2
_ccdc_geom_bond_type
Co0 O3 1.970 . S
Co0 N17 1.989 . S
Co0 O25 1.967 . S
Co0 O32 1.920 . S
Co1 O4 1.966 . S
Co1 N10 2.022 . S
Co1 N18 1.993 . S
Co1 O26 1.941 . S
C2 O3 1.258 . S
C2 O4 1.263 . S
O3 Co0 1.970 . S
O3 C2 1.258 . S
O4 Co1 1.966 . S
O4 C2 1.263 . S
C5 O6 1.235 1_545 S
C5 O32 1.289 . S
O6 C5 1.235 1_565 S
C7 C9 1.400 . S
C7 N10 1.351 . S
C7 C12 1.501 . S
C8 C9 1.387 . S
C8 N11 1.341 . S
C9 C7 1.400 . S
C9 C8 1.387 . S
N10 Co1 2.022 . S
N10 C7 1.351 . S
N10 N11 1.365 . S
N11 C8 1.341 . S
N11 N10 1.365 . S
N11 H31 0.862 . S
C12 C7 1.501 . S
C12 H13 0.961 . S
C12 H14 0.961 . S
C12 H15 0.960 . S
H13 C12 0.961 . S
H14 C12 0.961 . S
H15 C12 0.960 . S
C16 N17 1.342 . S
C16 C20 1.401 . S
C16 C21 1.499 . S
N17 Co0 1.989 . S
N17 C16 1.342 . S
N17 N18 1.388 . S
N18 Co1 1.993 . S
N18 N17 1.388 . S
N18 C19 1.346 . S
C19 N18 1.346 . S
C19 C20 1.396 . S
C19 C29 1.510 . S
C20 C16 1.401 . S
C20 C19 1.396 . S
C21 C16 1.499 . S
C21 H22 0.959 . S
C21 H23 0.960 1_545 S
C21 H24 0.961 . S
H22 C21 0.959 . S
H23 C21 0.960 1_565 S
H24 C21 0.961 . S
O25 Co0 1.967 . S
O25 C33 1.258 . S
O26 Co1 1.941 . S
O26 C33 1.266 . S
H27 C29 0.959 . S
H28 C29 0.961 . S
C29 C19 1.510 . S
C29 H27 0.959 . S
C29 H28 0.961 . S
C29 H30 0.960 . S
H30 C29 0.960 . S
H31 N11 0.862 . S
O32 Co0 1.920 . S
O32 C5 1.289 . S
C33 O25 1.258 . S
C33 O26 1.266 . S
Co34 O37 1.970 . S
Co34 N51 1.989 . S
Co34 O59 1.967 . S
Co34 O66 1.920 . S
Co35 O38 1.966 . S
Co35 N44 2.022 1_455 S
Co35 N52 1.993 . S
Co35 O60 1.941 . S
C36 O37 1.258 . S
C36 O38 1.263 . S
O37 Co34 1.970 . S
O37 C36 1.258 . S
O38 Co35 1.966 . S
O38 C36 1.263 . S
C39 O40 1.235 . S
C39 O66 1.289 . S
O40 C39 1.235 . S
C41 C43 1.400 . S
C41 N44 1.351 . S
C41 C46 1.501 . S
C42 C43 1.387 . S
C42 N45 1.341 . S
C43 C41 1.400 . S
C43 C42 1.387 . S
N44 Co35 2.022 1_655 S
N44 C41 1.351 . S
N44 N45 1.365 . S
N45 C42 1.341 . S
N45 N44 1.365 . S
N45 H65 0.862 . S
C46 C41 1.501 . S
C46 H47 0.961 1_655 S
C46 H48 0.961 . S
C46 H49 0.960 . S
H47 C46 0.961 1_455 S
H48 C46 0.961 . S
H49 C46 0.960 . S
C50 N51 1.342 . S
C50 C54 1.401 . S
C50 C55 1.499 . S
N51 Co34 1.989 . S
N51 C50 1.342 . S
N51 N52 1.388 . S
N52 Co35 1.993 . S
N52 N51 1.388 . S
N52 C53 1.346 . S
C53 N52 1.346 . S
C53 C54 1.396 . S
C53 C63 1.510 1_455 S
C54 C50 1.401 . S
C54 C53 1.396 . S
C55 C50 1.499 . S
C55 H56 0.959 . S
C55 H57 0.960 . S
C55 H58 0.961 . S
H56 C55 0.959 . S
H57 C55 0.960 . S
H58 C55 0.961 . S
O59 Co34 1.967 . S
O59 C67 1.258 . S
O60 Co35 1.941 . S
O60 C67 1.266 . S
H61 C63 0.959 . S
H62 C63 0.961 . S
C63 C53 1.510 1_655 S
C63 H61 0.959 . S
C63 H62 0.961 . S
C63 H64 0.960 . S
H64 C63 0.960 . S
H65 N45 0.862 . S
O66 Co34 1.920 . S
O66 C39 1.289 . S
C67 O59 1.258 . S
C67 O60 1.266 . S
Co68 O71 1.970 . S
Co68 N85 1.989 . S
Co68 O93 1.967 . S
Co68 O100 1.920 . S
Co69 O72 1.966 . S
Co69 N78 2.022 . S
Co69 N86 1.993 . S
Co69 O94 1.941 . S
C70 O71 1.258 . S
C70 O72 1.263 . S
O71 Co68 1.970 . S
O71 C70 1.258 . S
O72 Co69 1.966 . S
O72 C70 1.263 . S
C73 O74 1.235 . S
C73 O100 1.289 . S
O74 C73 1.235 . S
C75 C77 1.400 . S
C75 N78 1.351 . S
C75 C80 1.501 . S
C76 C77 1.387 . S
C76 N79 1.341 . S
C77 C75 1.400 . S
C77 C76 1.387 . S
N78 Co69 2.022 . S
N78 C75 1.351 . S
N78 N79 1.365 . S
N79 C76 1.341 . S
N79 N78 1.365 . S
N79 H99 0.862 . S
C80 C75 1.501 . S
C80 H81 0.961 . S
C80 H82 0.961 . S
C80 H83 0.960 . S
H81 C80 0.961 . S
H82 C80 0.961 . S
H83 C80 0.960 . S
C84 N85 1.342 . S
C84 C88 1.401 . S
C84 C89 1.499 . S
N85 Co68 1.989 . S
N85 C84 1.342 . S
N85 N86 1.388 . S
N86 Co69 1.993 . S
N86 N85 1.388 . S
N86 C87 1.346 . S
C87 N86 1.346 . S
C87 C88 1.396 . S
C87 C97 1.510 . S
C88 C84 1.401 . S
C88 C87 1.396 . S
C89 C84 1.499 . S
C89 H90 0.959 . S
C89 H91 0.960 . S
C89 H92 0.961 . S
H90 C89 0.959 . S
H91 C89 0.960 . S
H92 C89 0.961 . S
O93 Co68 1.967 . S
O93 C101 1.258 . S
O94 Co69 1.941 . S
O94 C101 1.266 . S
H95 C97 0.959 . S
H96 C97 0.961 . S
C97 C87 1.510 . S
C97 H95 0.959 . S
C97 H96 0.961 . S
C97 H98 0.960 . S
H98 C97 0.960 . S
H99 N79 0.862 . S
O100 Co68 1.920 . S
O100 C73 1.289 . S
C101 O93 1.258 . S
C101 O94 1.266 . S
Co102 O105 1.970 . S
Co102 N119 1.989 . S
Co102 O127 1.967 . S
Co102 O134 1.920 . S
Co103 O106 1.966 . S
Co103 N112 2.022 1_455 S
Co103 N120 1.993 . S
Co103 O128 1.941 . S
C104 O105 1.258 . S
C104 O106 1.263 . S
O105 Co102 1.970 . S
O105 C104 1.258 . S
O106 Co103 1.966 . S
O106 C104 1.263 . S
C107 O108 1.235 1_545 S
C107 O134 1.289 . S
O108 C107 1.235 1_565 S
C109 C111 1.400 . S
C109 N112 1.351 . S
C109 C114 1.501 . S
C110 C111 1.387 . S
C110 N113 1.341 . S
C111 C109 1.400 . S
C111 C110 1.387 . S
N112 Co103 2.022 1_655 S
N112 C109 1.351 . S
N112 N113 1.365 . S
N113 C110 1.341 . S
N113 N112 1.365 . S
N113 H133 0.862 . S
C114 C109 1.501 . S
C114 H115 0.961 1_655 S
C114 H116 0.961 . S
C114 H117 0.960 . S
H115 C114 0.961 1_455 S
H116 C114 0.961 . S
H117 C114 0.960 . S
C118 N119 1.342 . S
C118 C122 1.401 . S
C118 C123 1.499 . S
N119 Co102 1.989 . S
N119 C118 1.342 . S
N119 N120 1.388 . S
N120 Co103 1.993 . S
N120 N119 1.388 . S
N120 C121 1.346 . S
C121 N120 1.346 . S
C121 C122 1.396 . S
C121 C131 1.510 1_455 S
C122 C118 1.401 . S
C122 C121 1.396 . S
C123 C118 1.499 . S
C123 H124 0.959 . S
C123 H125 0.960 1_545 S
C123 H126 0.961 . S
H124 C123 0.959 . S
H125 C123 0.960 1_565 S
H126 C123 0.961 . S
O127 Co102 1.967 . S
O127 C135 1.258 . S
O128 Co103 1.941 . S
O128 C135 1.266 . S
H129 C131 0.959 . S
H130 C131 0.961 . S
C131 C121 1.510 1_655 S
C131 H129 0.959 . S
C131 H130 0.961 . S
C131 H132 0.960 . S
H132 C131 0.960 . S
H133 N113 0.862 . S
O134 Co102 1.920 . S
O134 C107 1.289 . S
C135 O127 1.258 . S
C135 O128 1.266 . S
Co136 O139 1.970 . S
Co136 N153 1.989 . S
Co136 O161 1.967 . S
Co136 O168 1.920 . S
Co137 O140 1.966 . S
Co137 N146 2.022 . S
Co137 N154 1.993 . S
Co137 O162 1.941 . S
C138 O139 1.258 . S
C138 O140 1.263 . S
O139 Co136 1.970 . S
O139 C138 1.258 . S
O140 Co137 1.966 . S
O140 C138 1.263 . S
C141 O142 1.235 1_565 S
C141 O168 1.289 . S
O142 C141 1.235 1_545 S
C143 C145 1.400 . S
C143 N146 1.351 . S
C143 C148 1.501 . S
C144 C145 1.387 . S
C144 N147 1.341 . S
C145 C143 1.400 . S
C145 C144 1.387 . S
N146 Co137 2.022 . S
N146 C143 1.351 . S
N146 N147 1.365 . S
N147 C144 1.341 . S
N147 N146 1.365 . S
N147 H167 0.862 . S
C148 C143 1.501 . S
C148 H149 0.961 . S
C148 H150 0.961 . S
C148 H151 0.960 . S
H149 C148 0.961 . S
H150 C148 0.961 . S
H151 C148 0.960 . S
C152 N153 1.342 . S
C152 C156 1.401 . S
C152 C157 1.499 . S
N153 Co136 1.989 . S
N153 C152 1.342 . S
N153 N154 1.388 . S
N154 Co137 1.993 . S
N154 N153 1.388 . S
N154 C155 1.346 . S
C155 N154 1.346 . S
C155 C156 1.396 . S
C155 C165 1.510 . S
C156 C152 1.401 . S
C156 C155 1.396 . S
C157 C152 1.499 . S
C157 H158 0.959 . S
C157 H159 0.960 1_565 S
C157 H160 0.961 . S
H158 C157 0.959 . S
H159 C157 0.960 1_545 S
H160 C157 0.961 . S
O161 Co136 1.967 . S
O161 C169 1.258 . S
O162 Co137 1.941 . S
O162 C169 1.266 . S
H163 C165 0.959 . S
H164 C165 0.961 . S
C165 C155 1.510 . S
C165 H163 0.959 . S
C165 H164 0.961 . S
C165 H166 0.960 . S
H166 C165 0.960 . S
H167 N147 0.862 . S
O168 Co136 1.920 . S
O168 C141 1.289 . S
C169 O161 1.258 . S
C169 O162 1.266 . S
Co170 O173 1.970 . S
Co170 N187 1.989 . S
Co170 O195 1.967 . S
Co170 O202 1.920 . S
Co171 O174 1.966 . S
Co171 N180 2.022 1_655 S
Co171 N188 1.993 . S
Co171 O196 1.941 . S
C172 O173 1.258 . S
C172 O174 1.263 . S
O173 Co170 1.970 . S
O173 C172 1.258 . S
O174 Co171 1.966 . S
O174 C172 1.263 . S
C175 O176 1.235 . S
C175 O202 1.289 . S
O176 C175 1.235 . S
C177 C179 1.400 . S
C177 N180 1.351 . S
C177 C182 1.501 . S
C178 C179 1.387 . S
C178 N181 1.341 . S
C179 C177 1.400 . S
C179 C178 1.387 . S
N180 Co171 2.022 1_455 S
N180 C177 1.351 . S
N180 N181 1.365 . S
N181 C178 1.341 . S
N181 N180 1.365 . S
N181 H201 0.862 . S
C182 C177 1.501 . S
C182 H183 0.961 1_455 S
C182 H184 0.961 . S
C182 H185 0.960 . S
H183 C182 0.961 1_655 S
H184 C182 0.961 . S
H185 C182 0.960 . S
C186 N187 1.342 . S
C186 C190 1.401 . S
C186 C191 1.499 . S
N187 Co170 1.989 . S
N187 C186 1.342 . S
N187 N188 1.388 . S
N188 Co171 1.993 . S
N188 N187 1.388 . S
N188 C189 1.346 . S
C189 N188 1.346 . S
C189 C190 1.396 . S
C189 C199 1.510 1_655 S
C190 C186 1.401 . S
C190 C189 1.396 . S
C191 C186 1.499 . S
C191 H192 0.959 . S
C191 H193 0.960 . S
C191 H194 0.961 . S
H192 C191 0.959 . S
H193 C191 0.960 . S
H194 C191 0.961 . S
O195 Co170 1.967 . S
O195 C203 1.258 . S
O196 Co171 1.941 . S
O196 C203 1.266 . S
H197 C199 0.959 . S
H198 C199 0.961 . S
C199 C189 1.510 1_455 S
C199 H197 0.959 . S
C199 H198 0.961 . S
C199 H200 0.960 . S
H200 C199 0.960 . S
H201 N181 0.862 . S
O202 Co170 1.920 . S
O202 C175 1.289 . S
C203 O195 1.258 . S
C203 O196 1.266 . S
Co204 O207 1.970 . S
Co204 N221 1.989 . S
Co204 O229 1.967 . S
Co204 O236 1.920 . S
Co205 O208 1.966 . S
Co205 N214 2.022 . S
Co205 N222 1.993 . S
Co205 O230 1.941 . S
C206 O207 1.258 . S
C206 O208 1.263 . S
O207 Co204 1.970 . S
O207 C206 1.258 . S
O208 Co205 1.966 . S
O208 C206 1.263 . S
C209 O210 1.235 . S
C209 O236 1.289 . S
O210 C209 1.235 . S
C211 C213 1.400 . S
C211 N214 1.351 . S
C211 C216 1.501 . S
C212 C213 1.387 . S
C212 N215 1.341 . S
C213 C211 1.400 . S
C213 C212 1.387 . S
N214 Co205 2.022 . S
N214 C211 1.351 . S
N214 N215 1.365 . S
N215 C212 1.341 . S
N215 N214 1.365 . S
N215 H235 0.862 . S
C216 C211 1.501 . S
C216 H217 0.961 . S
C216 H218 0.961 . S
C216 H219 0.960 . S
H217 C216 0.961 . S
H218 C216 0.961 . S
H219 C216 0.960 . S
C220 N221 1.342 . S
C220 C224 1.401 . S
C220 C225 1.499 . S
N221 Co204 1.989 . S
N221 C220 1.342 . S
N221 N222 1.388 . S
N222 Co205 1.993 . S
N222 N221 1.388 . S
N222 C223 1.346 . S
C223 N222 1.346 . S
C223 C224 1.396 . S
C223 C233 1.510 . S
C224 C220 1.401 . S
C224 C223 1.396 . S
C225 C220 1.499 . S
C225 H226 0.959 . S
C225 H227 0.960 . S
C225 H228 0.961 . S
H226 C225 0.959 . S
H227 C225 0.960 . S
H228 C225 0.961 . S
O229 Co204 1.967 . S
O229 C237 1.258 . S
O230 Co205 1.941 . S
O230 C237 1.266 . S
H231 C233 0.959 . S
H232 C233 0.961 . S
C233 C223 1.510 . S
C233 H231 0.959 . S
C233 H232 0.961 . S
C233 H234 0.960 . S
H234 C233 0.960 . S
H235 N215 0.862 . S
O236 Co204 1.920 . S
O236 C209 1.289 . S
C237 O229 1.258 . S
C237 O230 1.266 . S
Co238 O241 1.970 . S
Co238 N255 1.989 . S
Co238 O263 1.967 . S
Co238 O270 1.920 . S
Co239 O242 1.966 . S
Co239 N248 2.022 1_655 S
Co239 N256 1.993 . S
Co239 O264 1.941 . S
C240 O241 1.258 . S
C240 O242 1.263 . S
O241 Co238 1.970 . S
O241 C240 1.258 . S
O242 Co239 1.966 . S
O242 C240 1.263 . S
C243 O244 1.235 1_565 S
C243 O270 1.289 . S
O244 C243 1.235 1_545 S
C245 C247 1.400 . S
C245 N248 1.351 . S
C245 C250 1.501 . S
C246 C247 1.387 . S
C246 N249 1.341 . S
C247 C245 1.400 . S
C247 C246 1.387 . S
N248 Co239 2.022 1_455 S
N248 C245 1.351 . S
N248 N249 1.365 . S
N249 C246 1.341 . S
N249 N248 1.365 . S
N249 H269 0.862 . S
C250 C245 1.501 . S
C250 H251 0.961 1_455 S
C250 H252 0.961 . S
C250 H253 0.960 . S
H251 C250 0.961 1_655 S
H252 C250 0.961 . S
H253 C250 0.960 . S
C254 N255 1.342 . S
C254 C258 1.401 . S
C254 C259 1.499 . S
N255 Co238 1.989 . S
N255 C254 1.342 . S
N255 N256 1.388 . S
N256 Co239 1.993 . S
N256 N255 1.388 . S
N256 C257 1.346 . S
C257 N256 1.346 . S
C257 C258 1.396 . S
C257 C267 1.510 1_655 S
C258 C254 1.401 . S
C258 C257 1.396 . S
C259 C254 1.499 . S
C259 H260 0.959 . S
C259 H261 0.960 1_565 S
C259 H262 0.961 . S
H260 C259 0.959 . S
H261 C259 0.960 1_545 S
H262 C259 0.961 . S
O263 Co238 1.967 . S
O263 C271 1.258 . S
O264 Co239 1.941 . S
O264 C271 1.266 . S
H265 C267 0.959 . S
H266 C267 0.961 . S
C267 C257 1.510 1_455 S
C267 H265 0.959 . S
C267 H266 0.961 . S
C267 H268 0.960 . S
H268 C267 0.960 . S
H269 N249 0.862 . S
O270 Co238 1.920 . S
O270 C243 1.289 . S
C271 O263 1.258 . S
C271 O264 1.266 . S
Co272 O275 1.970 . S
Co272 N289 1.989 . S
Co272 O297 1.967 . S
Co272 O304 1.920 . S
Co273 O276 1.966 . S
Co273 N282 2.022 . S
Co273 N290 1.993 . S
Co273 O298 1.941 . S
C274 O275 1.258 . S
C274 O276 1.263 . S
O275 Co272 1.970 . S
O275 C274 1.258 . S
O276 Co273 1.966 . S
O276 C274 1.263 . S
C277 O278 1.239 . S
C277 O304 1.291 . S
O278 C277 1.239 . S
C279 C281 1.400 . S
C279 N282 1.351 . S
C279 C284 1.501 . S
C280 C281 1.387 . S
C280 N283 1.341 . S
C281 C279 1.400 . S
C281 C280 1.387 . S
N282 Co273 2.022 . S
N282 C279 1.351 . S
N282 N283 1.365 . S
N283 C280 1.341 . S
N283 N282 1.365 . S
N283 H303 0.862 . S
C284 C279 1.501 . S
C284 H285 0.961 . S
C284 H286 0.961 . S
C284 H287 0.960 . S
H285 C284 0.961 . S
H286 C284 0.961 . S
H287 C284 0.960 . S
C288 N289 1.342 1_554 S
C288 C292 1.401 . S
C288 C293 1.499 . S
N289 Co272 1.989 . S
N289 C288 1.342 1_556 S
N289 N290 1.388 . S
N290 Co273 1.993 . S
N290 N289 1.388 . S
N290 C291 1.346 . S
C291 N290 1.346 . S
C291 C292 1.396 1_556 S
C291 C301 1.510 . S
C292 C288 1.401 . S
C292 C291 1.396 1_554 S
C293 C288 1.499 . S
C293 H294 0.959 . S
C293 H295 0.960 . S
C293 H296 0.961 . S
H294 C293 0.959 . S
H295 C293 0.960 . S
H296 C293 0.961 . S
O297 Co272 1.967 . S
O297 C305 1.258 . S
O298 Co273 1.941 . S
O298 C305 1.266 . S
H299 C301 0.959 . S
H300 C301 0.961 . S
C301 C291 1.510 . S
C301 H299 0.959 . S
C301 H300 0.961 . S
C301 H302 0.960 . S
H302 C301 0.960 . S
H303 N283 0.862 . S
O304 Co272 1.920 . S
O304 C277 1.291 . S
C305 O297 1.258 . S
C305 O298 1.266 . S
Co306 O309 1.970 . S
Co306 N323 1.989 . S
Co306 O331 1.967 . S
Co306 O338 1.920 . S
Co307 O310 1.966 . S
Co307 N316 2.022 1_455 S
Co307 N324 1.993 . S
Co307 O332 1.941 . S
C308 O309 1.258 . S
C308 O310 1.263 . S
O309 Co306 1.970 . S
O309 C308 1.258 . S
O310 Co307 1.966 . S
O310 C308 1.263 . S
C311 O312 1.239 . S
C311 O338 1.291 . S
O312 C311 1.239 . S
C313 C315 1.400 . S
C313 N316 1.351 . S
C313 C318 1.501 . S
C314 C315 1.387 . S
C314 N317 1.341 . S
C315 C313 1.400 . S
C315 C314 1.387 . S
N316 Co307 2.022 1_655 S
N316 C313 1.351 . S
N316 N317 1.365 . S
N317 C314 1.341 . S
N317 N316 1.365 . S
N317 H337 0.862 . S
C318 C313 1.501 . S
C318 H319 0.961 1_655 S
C318 H320 0.961 . S
C318 H321 0.960 . S
H319 C318 0.961 1_455 S
H320 C318 0.961 . S
H321 C318 0.960 . S
C322 N323 1.342 1_554 S
C322 C326 1.401 . S
C322 C327 1.499 . S
N323 Co306 1.989 . S
N323 C322 1.342 1_556 S
N323 N324 1.388 . S
N324 Co307 1.993 . S
N324 N323 1.388 . S
N324 C325 1.346 . S
C325 N324 1.346 . S
C325 C326 1.396 1_556 S
C325 C335 1.510 1_455 S
C326 C322 1.401 . S
C326 C325 1.396 1_554 S
C327 C322 1.499 . S
C327 H328 0.959 . S
C327 H329 0.960 . S
C327 H330 0.961 . S
H328 C327 0.959 . S
H329 C327 0.960 . S
H330 C327 0.961 . S
O331 Co306 1.967 . S
O331 C339 1.258 . S
O332 Co307 1.941 . S
O332 C339 1.266 . S
H333 C335 0.959 . S
H334 C335 0.961 . S
C335 C325 1.510 1_655 S
C335 H333 0.959 . S
C335 H334 0.961 . S
C335 H336 0.960 . S
H336 C335 0.960 . S
H337 N317 0.862 . S
O338 Co306 1.920 . S
O338 C311 1.291 . S
C339 O331 1.258 . S
C339 O332 1.266 . S
Co340 O343 1.970 . S
Co340 N357 1.989 . S
Co340 O365 1.967 . S
Co340 O372 1.920 . S
Co341 O344 1.966 . S
Co341 N350 2.022 . S
Co341 N358 1.993 . S
Co341 O366 1.941 . S
C342 O343 1.258 . S
C342 O344 1.263 . S
O343 Co340 1.970 . S
O343 C342 1.258 . S
O344 Co341 1.966 . S
O344 C342 1.263 . S
C345 O346 1.235 . S
C345 O372 1.289 . S
O346 C345 1.235 . S
C347 C349 1.400 . S
C347 N350 1.351 . S
C347 C352 1.501 . S
C348 C349 1.387 . S
C348 N351 1.341 . S
C349 C347 1.400 . S
C349 C348 1.387 . S
N350 Co341 2.022 . S
N350 C347 1.351 . S
N350 N351 1.365 . S
N351 C348 1.341 . S
N351 N350 1.365 . S
N351 H371 0.862 . S
C352 C347 1.501 . S
C352 H353 0.961 . S
C352 H354 0.961 . S
C352 H355 0.960 . S
H353 C352 0.961 . S
H354 C352 0.961 . S
H355 C352 0.960 . S
C356 N357 1.342 . S
C356 C360 1.401 . S
C356 C361 1.499 . S
N357 Co340 1.989 . S
N357 C356 1.342 . S
N357 N358 1.388 . S
N358 Co341 1.993 . S
N358 N357 1.388 . S
N358 C359 1.346 . S
C359 N358 1.346 . S
C359 C360 1.396 . S
C359 C369 1.510 . S
C360 C356 1.401 . S
C360 C359 1.396 . S
C361 C356 1.499 . S
C361 H362 0.959 . S
C361 H363 0.960 . S
C361 H364 0.961 . S
H362 C361 0.959 . S
H363 C361 0.960 . S
H364 C361 0.961 . S
O365 Co340 1.967 . S
O365 C373 1.258 . S
O366 Co341 1.941 . S
O366 C373 1.266 . S
H367 C369 0.959 . S
H368 C369 0.961 . S
C369 C359 1.510 . S
C369 H367 0.959 . S
C369 H368 0.961 . S
C369 H370 0.960 . S
H370 C369 0.960 . S
H371 N351 0.862 . S
O372 Co340 1.920 . S
O372 C345 1.289 . S
C373 O365 1.258 . S
C373 O366 1.266 . S
Co374 O377 1.970 . S
Co374 N391 1.989 . S
Co374 O399 1.967 . S
Co374 O406 1.920 . S
Co375 O378 1.966 . S
Co375 N384 2.022 1_455 S
Co375 N392 1.993 . S
Co375 O400 1.941 . S
C376 O377 1.258 . S
C376 O378 1.263 . S
O377 Co374 1.970 . S
O377 C376 1.258 . S
O378 Co375 1.966 . S
O378 C376 1.263 . S
C379 O380 1.235 . S
C379 O406 1.289 . S
O380 C379 1.235 . S
C381 C383 1.400 . S
C381 N384 1.351 . S
C381 C386 1.501 . S
C382 C383 1.387 . S
C382 N385 1.341 . S
C383 C381 1.400 . S
C383 C382 1.387 . S
N384 Co375 2.022 1_655 S
N384 C381 1.351 . S
N384 N385 1.365 . S
N385 C382 1.341 . S
N385 N384 1.365 . S
N385 H405 0.862 . S
C386 C381 1.501 . S
C386 H387 0.961 1_655 S
C386 H388 0.961 . S
C386 H389 0.960 . S
H387 C386 0.961 1_455 S
H388 C386 0.961 . S
H389 C386 0.960 . S
C390 N391 1.342 . S
C390 C394 1.401 . S
C390 C395 1.499 . S
N391 Co374 1.989 . S
N391 C390 1.342 . S
N391 N392 1.388 . S
N392 Co375 1.993 . S
N392 N391 1.388 . S
N392 C393 1.346 . S
C393 N392 1.346 . S
C393 C394 1.396 . S
C393 C403 1.510 1_455 S
C394 C390 1.401 . S
C394 C393 1.396 . S
C395 C390 1.499 . S
C395 H396 0.959 . S
C395 H397 0.960 . S
C395 H398 0.961 . S
H396 C395 0.959 . S
H397 C395 0.960 . S
H398 C395 0.961 . S
O399 Co374 1.967 . S
O399 C407 1.258 . S
O400 Co375 1.941 . S
O400 C407 1.266 . S
H401 C403 0.959 . S
H402 C403 0.961 . S
C403 C393 1.510 1_655 S
C403 H401 0.959 . S
C403 H402 0.961 . S
C403 H404 0.960 . S
H404 C403 0.960 . S
H405 N385 0.862 . S
O406 Co374 1.920 . S
O406 C379 1.289 . S
C407 O399 1.258 . S
C407 O400 1.266 . S
Co408 O411 1.970 . S
Co408 N425 1.989 . S
Co408 O433 1.967 . S
Co408 O440 1.920 . S
Co409 O412 1.966 . S
Co409 N418 2.022 . S
Co409 N426 1.993 . S
Co409 O434 1.941 . S
C410 O411 1.258 . S
C410 O412 1.263 . S
O411 Co408 1.970 . S
O411 C410 1.258 . S
O412 Co409 1.966 . S
O412 C410 1.263 . S
C413 O414 1.239 . S
C413 O440 1.291 . S
O414 C413 1.239 . S
C415 C417 1.400 . S
C415 N418 1.351 . S
C415 C420 1.501 . S
C416 C417 1.387 . S
C416 N419 1.341 . S
C417 C415 1.400 . S
C417 C416 1.387 . S
N418 Co409 2.022 . S
N418 C415 1.351 . S
N418 N419 1.365 . S
N419 C416 1.341 . S
N419 N418 1.365 . S
N419 H439 0.862 . S
C420 C415 1.501 . S
C420 H421 0.961 . S
C420 H422 0.961 . S
C420 H423 0.960 . S
H421 C420 0.961 . S
H422 C420 0.961 . S
H423 C420 0.960 . S
C424 N425 1.342 1_556 S
C424 C428 1.401 . S
C424 C429 1.499 . S
N425 Co408 1.989 . S
N425 C424 1.342 1_554 S
N425 N426 1.388 . S
N426 Co409 1.993 . S
N426 N425 1.388 . S
N426 C427 1.346 . S
C427 N426 1.346 . S
C427 C428 1.396 1_554 S
C427 C437 1.510 . S
C428 C424 1.401 . S
C428 C427 1.396 1_556 S
C429 C424 1.499 . S
C429 H430 0.959 . S
C429 H431 0.960 . S
C429 H432 0.961 . S
H430 C429 0.959 . S
H431 C429 0.960 . S
H432 C429 0.961 . S
O433 Co408 1.967 . S
O433 C441 1.258 . S
O434 Co409 1.941 . S
O434 C441 1.266 . S
H435 C437 0.959 . S
H436 C437 0.961 . S
C437 C427 1.510 . S
C437 H435 0.959 . S
C437 H436 0.961 . S
C437 H438 0.960 . S
H438 C437 0.960 . S
H439 N419 0.862 . S
O440 Co408 1.920 . S
O440 C413 1.291 . S
C441 O433 1.258 . S
C441 O434 1.266 . S
Co442 O445 1.970 . S
Co442 N459 1.989 . S
Co442 O467 1.967 . S
Co442 O474 1.920 . S
Co443 O446 1.966 . S
Co443 N452 2.022 1_655 S
Co443 N460 1.993 . S
Co443 O468 1.941 . S
C444 O445 1.258 . S
C444 O446 1.263 . S
O445 Co442 1.970 . S
O445 C444 1.258 . S
O446 Co443 1.966 . S
O446 C444 1.263 . S
C447 O448 1.239 . S
C447 O474 1.291 . S
O448 C447 1.239 . S
C449 C451 1.400 . S
C449 N452 1.351 . S
C449 C454 1.501 . S
C450 C451 1.387 . S
C450 N453 1.341 . S
C451 C449 1.400 . S
C451 C450 1.387 . S
N452 Co443 2.022 1_455 S
N452 C449 1.351 . S
N452 N453 1.365 . S
N453 C450 1.341 . S
N453 N452 1.365 . S
N453 H473 0.862 . S
C454 C449 1.501 . S
C454 H455 0.961 1_455 S
C454 H456 0.961 . S
C454 H457 0.960 . S
H455 C454 0.961 1_655 S
H456 C454 0.961 . S
H457 C454 0.960 . S
C458 N459 1.342 1_556 S
C458 C462 1.401 . S
C458 C463 1.499 . S
N459 Co442 1.989 . S
N459 C458 1.342 1_554 S
N459 N460 1.388 . S
N460 Co443 1.993 . S
N460 N459 1.388 . S
N460 C461 1.346 . S
C461 N460 1.346 . S
C461 C462 1.396 1_554 S
C461 C471 1.510 1_655 S
C462 C458 1.401 . S
C462 C461 1.396 1_556 S
C463 C458 1.499 . S
C463 H464 0.959 . S
C463 H465 0.960 . S
C463 H466 0.961 . S
H464 C463 0.959 . S
H465 C463 0.960 . S
H466 C463 0.961 . S
O467 Co442 1.967 . S
O467 C475 1.258 . S
O468 Co443 1.941 . S
O468 C475 1.266 . S
H469 C471 0.959 . S
H470 C471 0.961 . S
C471 C461 1.510 1_455 S
C471 H469 0.959 . S
C471 H470 0.961 . S
C471 H472 0.960 . S
H472 C471 0.960 . S
H473 N453 0.862 . S
O474 Co442 1.920 . S
O474 C447 1.291 . S
C475 O467 1.258 . S
C475 O468 1.266 . S
Co476 O479 1.970 . S
Co476 N493 1.989 . S
Co476 O501 1.967 . S
Co476 O508 1.920 . S
Co477 O480 1.966 . S
Co477 N486 2.022 . S
Co477 N494 1.993 . S
Co477 O502 1.941 . S
C478 O479 1.258 . S
C478 O480 1.263 . S
O479 Co476 1.970 . S
O479 C478 1.258 . S
O480 Co477 1.966 . S
O480 C478 1.263 . S
C481 O482 1.235 . S
C481 O508 1.289 . S
O482 C481 1.235 . S
C483 C485 1.400 . S
C483 N486 1.351 . S
C483 C488 1.501 . S
C484 C485 1.387 . S
C484 N487 1.341 . S
C485 C483 1.400 . S
C485 C484 1.387 . S
N486 Co477 2.022 . S
N486 C483 1.351 . S
N486 N487 1.365 . S
N487 C484 1.341 . S
N487 N486 1.365 . S
N487 H507 0.862 . S
C488 C483 1.501 . S
C488 H489 0.961 . S
C488 H490 0.961 . S
C488 H491 0.960 . S
H489 C488 0.961 . S
H490 C488 0.961 . S
H491 C488 0.960 . S
C492 N493 1.342 . S
C492 C496 1.401 . S
C492 C497 1.499 . S
N493 Co476 1.989 . S
N493 C492 1.342 . S
N493 N494 1.388 . S
N494 Co477 1.993 . S
N494 N493 1.388 . S
N494 C495 1.346 . S
C495 N494 1.346 . S
C495 C496 1.396 . S
C495 C505 1.510 . S
C496 C492 1.401 . S
C496 C495 1.396 . S
C497 C492 1.499 . S
C497 H498 0.959 . S
C497 H499 0.960 . S
C497 H500 0.961 . S
H498 C497 0.959 . S
H499 C497 0.960 . S
H500 C497 0.961 . S
O501 Co476 1.967 . S
O501 C509 1.258 . S
O502 Co477 1.941 . S
O502 C509 1.266 . S
H503 C505 0.959 . S
H504 C505 0.961 . S
C505 C495 1.510 . S
C505 H503 0.959 . S
C505 H504 0.961 . S
C505 H506 0.960 . S
H506 C505 0.960 . S
H507 N487 0.862 . S
O508 Co476 1.920 . S
O508 C481 1.289 . S
C509 O501 1.258 . S
C509 O502 1.266 . S
Co510 O513 1.970 . S
Co510 N527 1.989 . S
Co510 O535 1.967 . S
Co510 O542 1.920 . S
Co511 O514 1.966 . S
Co511 N520 2.022 1_655 S
Co511 N528 1.993 . S
Co511 O536 1.941 . S
C512 O513 1.258 . S
C512 O514 1.263 . S
O513 Co510 1.970 . S
O513 C512 1.258 . S
O514 Co511 1.966 . S
O514 C512 1.263 . S
C515 O516 1.235 . S
C515 O542 1.289 . S
O516 C515 1.235 . S
C517 C519 1.400 . S
C517 N520 1.351 . S
C517 C522 1.501 . S
C518 C519 1.387 . S
C518 N521 1.341 . S
C519 C517 1.400 . S
C519 C518 1.387 . S
N520 Co511 2.022 1_455 S
N520 C517 1.351 . S
N520 N521 1.365 . S
N521 C518 1.341 . S
N521 N520 1.365 . S
N521 H541 0.862 . S
C522 C517 1.501 . S
C522 H523 0.961 1_455 S
C522 H524 0.961 . S
C522 H525 0.960 . S
H523 C522 0.961 1_655 S
H524 C522 0.961 . S
H525 C522 0.960 . S
C526 N527 1.342 . S
C526 C530 1.401 . S
C526 C531 1.499 . S
N527 Co510 1.989 . S
N527 C526 1.342 . S
N527 N528 1.388 . S
N528 Co511 1.993 . S
N528 N527 1.388 . S
N528 C529 1.346 . S
C529 N528 1.346 . S
C529 C530 1.396 . S
C529 C539 1.510 1_655 S
C530 C526 1.401 . S
C530 C529 1.396 . S
C531 C526 1.499 . S
C531 H532 0.959 . S
C531 H533 0.960 . S
C531 H534 0.961 . S
H532 C531 0.959 . S
H533 C531 0.960 . S
H534 C531 0.961 . S
O535 Co510 1.967 . S
O535 C543 1.258 . S
O536 Co511 1.941 . S
O536 C543 1.266 . S
H537 C539 0.959 . S
H538 C539 0.961 . S
C539 C529 1.510 1_455 S
C539 H537 0.959 . S
C539 H538 0.961 . S
C539 H540 0.960 . S
H540 C539 0.960 . S
H541 N521 0.862 . S
O542 Co510 1.920 . S
O542 C515 1.289 . S
C543 O535 1.258 . S
C543 O536 1.266 . S
Co544 O547 1.970 . S
Co544 N561 1.989 . S
Co544 O569 1.967 . S
Co544 O576 1.920 . S
Co545 O548 1.966 . S
Co545 N554 2.022 . S
Co545 N562 1.993 . S
Co545 O570 1.941 . S
C546 O547 1.258 . S
C546 O548 1.263 . S
O547 Co544 1.970 . S
O547 C546 1.258 . S
O548 Co545 1.966 . S
O548 C546 1.263 . S
C549 O550 1.239 1_545 S
C549 O576 1.291 . S
O550 C549 1.239 1_565 S
C551 C553 1.400 . S
C551 N554 1.351 . S
C551 C556 1.501 . S
C552 C553 1.387 . S
C552 N555 1.341 . S
C553 C551 1.400 . S
C553 C552 1.387 . S
N554 Co545 2.022 . S
N554 C551 1.351 . S
N554 N555 1.365 . S
N555 C552 1.341 . S
N555 N554 1.365 . S
N555 H575 0.862 . S
C556 C551 1.501 . S
C556 H557 0.961 . S
C556 H558 0.961 . S
C556 H559 0.960 . S
H557 C556 0.961 . S
H558 C556 0.961 . S
H559 C556 0.960 . S
C560 N561 1.342 1_554 S
C560 C564 1.401 . S
C560 C565 1.499 . S
N561 Co544 1.989 . S
N561 C560 1.342 1_556 S
N561 N562 1.388 . S
N562 Co545 1.993 . S
N562 N561 1.388 . S
N562 C563 1.346 . S
C563 N562 1.346 . S
C563 C564 1.396 1_556 S
C563 C573 1.510 . S
C564 C560 1.401 . S
C564 C563 1.396 1_554 S
C565 C560 1.499 . S
C565 H566 0.959 . S
C565 H567 0.960 1_545 S
C565 H568 0.961 . S
H566 C565 0.959 . S
H567 C565 0.960 1_565 S
H568 C565 0.961 . S
O569 Co544 1.967 . S
O569 C577 1.258 . S
O570 Co545 1.941 . S
O570 C577 1.266 . S
H571 C573 0.959 . S
H572 C573 0.961 . S
C573 C563 1.510 . S
C573 H571 0.959 . S
C573 H572 0.961 . S
C573 H574 0.960 . S
H574 C573 0.960 . S
H575 N555 0.862 . S
O576 Co544 1.920 . S
O576 C549 1.291 . S
C577 O569 1.258 . S
C577 O570 1.266 . S
Co578 O581 1.970 . S
Co578 N595 1.989 . S
Co578 O603 1.967 . S
Co578 O610 1.920 . S
Co579 O582 1.966 . S
Co579 N588 2.022 . S
Co579 N596 1.993 . S
Co579 O604 1.941 . S
C580 O581 1.258 . S
C580 O582 1.263 . S
O581 Co578 1.970 . S
O581 C580 1.258 . S
O582 Co579 1.966 . S
O582 C580 1.263 . S
C583 O584 1.239 . S
C583 O610 1.291 . S
O584 C583 1.239 . S
C585 C587 1.400 . S
C585 N588 1.351 . S
C585 C590 1.501 . S
C586 C587 1.387 . S
C586 N589 1.341 . S
C587 C585 1.400 . S
C587 C586 1.387 . S
N588 Co579 2.022 . S
N588 C585 1.351 . S
N588 N589 1.365 . S
N589 C586 1.341 . S
N589 N588 1.365 . S
N589 H609 0.862 . S
C590 C585 1.501 . S
C590 H591 0.961 . S
C590 H592 0.961 . S
C590 H593 0.960 . S
H591 C590 0.961 . S
H592 C590 0.961 . S
H593 C590 0.960 . S
C594 N595 1.342 1_554 S
C594 C598 1.401 . S
C594 C599 1.499 . S
N595 Co578 1.989 . S
N595 C594 1.342 1_556 S
N595 N596 1.388 . S
N596 Co579 1.993 . S
N596 N595 1.388 . S
N596 C597 1.346 . S
C597 N596 1.346 . S
C597 C598 1.396 1_556 S
C597 C607 1.510 . S
C598 C594 1.401 . S
C598 C597 1.396 1_554 S
C599 C594 1.499 . S
C599 H600 0.959 . S
C599 H601 0.960 . S
C599 H602 0.961 . S
H600 C599 0.959 . S
H601 C599 0.960 . S
H602 C599 0.961 . S
O603 Co578 1.967 . S
O603 C611 1.258 . S
O604 Co579 1.941 . S
O604 C611 1.266 . S
H605 C607 0.959 . S
H606 C607 0.961 . S
C607 C597 1.510 . S
C607 H605 0.959 . S
C607 H606 0.961 . S
C607 H608 0.960 . S
H608 C607 0.960 . S
H609 N589 0.862 . S
O610 Co578 1.920 . S
O610 C583 1.291 . S
C611 O603 1.258 . S
C611 O604 1.266 . S
Co612 O615 1.970 . S
Co612 N629 1.989 . S
Co612 O637 1.967 . S
Co612 O644 1.920 . S
Co613 O616 1.966 . S
Co613 N622 2.022 . S
Co613 N630 1.993 . S
Co613 O638 1.941 . S
C614 O615 1.258 . S
C614 O616 1.263 . S
O615 Co612 1.970 . S
O615 C614 1.258 . S
O616 Co613 1.966 . S
O616 C614 1.263 . S
C617 O618 1.235 . S
C617 O644 1.289 . S
O618 C617 1.235 . S
C619 C621 1.400 . S
C619 N622 1.351 . S
C619 C624 1.501 . S
C620 C621 1.387 . S
C620 N623 1.341 . S
C621 C619 1.400 . S
C621 C620 1.387 . S
N622 Co613 2.022 . S
N622 C619 1.351 . S
N622 N623 1.365 . S
N623 C620 1.341 . S
N623 N622 1.365 . S
N623 H643 0.862 . S
C624 C619 1.501 . S
C624 H625 0.961 . S
C624 H626 0.961 . S
C624 H627 0.960 . S
H625 C624 0.961 . S
H626 C624 0.961 . S
H627 C624 0.960 . S
C628 N629 1.342 . S
C628 C632 1.401 . S
C628 C633 1.499 . S
N629 Co612 1.989 . S
N629 C628 1.342 . S
N629 N630 1.388 . S
N630 Co613 1.993 . S
N630 N629 1.388 . S
N630 C631 1.346 . S
C631 N630 1.346 . S
C631 C632 1.396 . S
C631 C641 1.510 . S
C632 C628 1.401 . S
C632 C631 1.396 . S
C633 C628 1.499 . S
C633 H634 0.959 . S
C633 H635 0.960 . S
C633 H636 0.961 . S
H634 C633 0.959 . S
H635 C633 0.960 . S
H636 C633 0.961 . S
O637 Co612 1.967 . S
O637 C645 1.258 . S
O638 Co613 1.941 . S
O638 C645 1.266 . S
H639 C641 0.959 . S
H640 C641 0.961 . S
C641 C631 1.510 . S
C641 H639 0.959 . S
C641 H640 0.961 . S
C641 H642 0.960 . S
H642 C641 0.960 . S
H643 N623 0.862 . S
O644 Co612 1.920 . S
O644 C617 1.289 . S
C645 O637 1.258 . S
C645 O638 1.266 . S
Co646 O649 1.970 . S
Co646 N663 1.989 . S
Co646 O671 1.967 . S
Co646 O678 1.920 . S
Co647 O650 1.966 . S
Co647 N656 2.022 . S
Co647 N664 1.993 . S
Co647 O672 1.941 . S
C648 O649 1.258 . S
C648 O650 1.263 . S
O649 Co646 1.970 . S
O649 C648 1.258 . S
O650 Co647 1.966 . S
O650 C648 1.263 . S
C651 O652 1.235 1_545 S
C651 O678 1.289 . S
O652 C651 1.235 1_565 S
C653 C655 1.400 . S
C653 N656 1.351 . S
C653 C658 1.501 . S
C654 C655 1.387 . S
C654 N657 1.341 . S
C655 C653 1.400 . S
C655 C654 1.387 . S
N656 Co647 2.022 . S
N656 C653 1.351 . S
N656 N657 1.365 . S
N657 C654 1.341 . S
N657 N656 1.365 . S
N657 H677 0.862 . S
C658 C653 1.501 . S
C658 H659 0.961 . S
C658 H660 0.961 . S
C658 H661 0.960 . S
H659 C658 0.961 . S
H660 C658 0.961 . S
H661 C658 0.960 . S
C662 N663 1.342 . S
C662 C666 1.401 . S
C662 C667 1.499 . S
N663 Co646 1.989 . S
N663 C662 1.342 . S
N663 N664 1.388 . S
N664 Co647 1.993 . S
N664 N663 1.388 . S
N664 C665 1.346 . S
C665 N664 1.346 . S
C665 C666 1.396 . S
C665 C675 1.510 . S
C666 C662 1.401 . S
C666 C665 1.396 . S
C667 C662 1.499 . S
C667 H668 0.959 . S
C667 H669 0.960 1_545 S
C667 H670 0.961 . S
H668 C667 0.959 . S
H669 C667 0.960 1_565 S
H670 C667 0.961 . S
O671 Co646 1.967 . S
O671 C679 1.258 . S
O672 Co647 1.941 . S
O672 C679 1.266 . S
H673 C675 0.959 . S
H674 C675 0.961 . S
C675 C665 1.510 . S
C675 H673 0.959 . S
C675 H674 0.961 . S
C675 H676 0.960 . S
H676 C675 0.960 . S
H677 N657 0.862 . S
O678 Co646 1.920 . S
O678 C651 1.289 . S
C679 O671 1.258 . S
C679 O672 1.266 . S
Co680 O683 1.970 . S
Co680 N697 1.989 . S
Co680 O705 1.967 . S
Co680 O712 1.920 . S
Co681 O684 1.966 . S
Co681 N690 2.022 . S
Co681 N698 1.993 . S
Co681 O706 1.941 . S
C682 O683 1.258 . S
C682 O684 1.263 . S
O683 Co680 1.970 . S
O683 C682 1.258 . S
O684 Co681 1.966 . S
O684 C682 1.263 . S
C685 O686 1.239 1_565 S
C685 O712 1.291 . S
O686 C685 1.239 1_545 S
C687 C689 1.400 . S
C687 N690 1.351 . S
C687 C692 1.501 . S
C688 C689 1.387 . S
C688 N691 1.341 . S
C689 C687 1.400 . S
C689 C688 1.387 . S
N690 Co681 2.022 . S
N690 C687 1.351 . S
N690 N691 1.365 . S
N691 C688 1.341 . S
N691 N690 1.365 . S
N691 H711 0.862 . S
C692 C687 1.501 . S
C692 H693 0.961 . S
C692 H694 0.961 . S
C692 H695 0.960 . S
H693 C692 0.961 . S
H694 C692 0.961 . S
H695 C692 0.960 . S
C696 N697 1.342 1_556 S
C696 C700 1.401 . S
C696 C701 1.499 . S
N697 Co680 1.989 . S
N697 C696 1.342 1_554 S
N697 N698 1.388 . S
N698 Co681 1.993 . S
N698 N697 1.388 . S
N698 C699 1.346 . S
C699 N698 1.346 . S
C699 C700 1.396 1_554 S
C699 C709 1.510 . S
C700 C696 1.401 . S
C700 C699 1.396 1_556 S
C701 C696 1.499 . S
C701 H702 0.959 . S
C701 H703 0.960 1_565 S
C701 H704 0.961 . S
H702 C701 0.959 . S
H703 C701 0.960 1_545 S
H704 C701 0.961 . S
O705 Co680 1.967 . S
O705 C713 1.258 . S
O706 Co681 1.941 . S
O706 C713 1.266 . S
H707 C709 0.959 . S
H708 C709 0.961 . S
C709 C699 1.510 . S
C709 H707 0.959 . S
C709 H708 0.961 . S
C709 H710 0.960 . S
H710 C709 0.960 . S
H711 N691 0.862 . S
O712 Co680 1.920 . S
O712 C685 1.291 . S
C713 O705 1.258 . S
C713 O706 1.266 . S
Co714 O717 1.970 . S
Co714 N731 1.989 . S
Co714 O739 1.967 . S
Co714 O746 1.920 . S
Co715 O718 1.966 . S
Co715 N724 2.022 . S
Co715 N732 1.993 . S
Co715 O740 1.941 . S
C716 O717 1.258 . S
C716 O718 1.263 . S
O717 Co714 1.970 . S
O717 C716 1.258 . S
O718 Co715 1.966 . S
O718 C716 1.263 . S
C719 O720 1.239 . S
C719 O746 1.291 . S
O720 C719 1.239 . S
C721 C723 1.400 . S
C721 N724 1.351 . S
C721 C726 1.501 . S
C722 C723 1.387 . S
C722 N725 1.341 . S
C723 C721 1.400 . S
C723 C722 1.387 . S
N724 Co715 2.022 . S
N724 C721 1.351 . S
N724 N725 1.365 . S
N725 C722 1.341 . S
N725 N724 1.365 . S
N725 H745 0.862 . S
C726 C721 1.501 . S
C726 H727 0.961 . S
C726 H728 0.961 . S
C726 H729 0.960 . S
H727 C726 0.961 . S
H728 C726 0.961 . S
H729 C726 0.960 . S
C730 N731 1.342 1_556 S
C730 C734 1.401 . S
C730 C735 1.499 . S
N731 Co714 1.989 . S
N731 C730 1.342 1_554 S
N731 N732 1.388 . S
N732 Co715 1.993 . S
N732 N731 1.388 . S
N732 C733 1.346 . S
C733 N732 1.346 . S
C733 C734 1.396 1_554 S
C733 C743 1.510 . S
C734 C730 1.401 . S
C734 C733 1.396 1_556 S
C735 C730 1.499 . S
C735 H736 0.959 . S
C735 H737 0.960 . S
C735 H738 0.961 . S
H736 C735 0.959 . S
H737 C735 0.960 . S
H738 C735 0.961 . S
O739 Co714 1.967 . S
O739 C747 1.258 . S
O740 Co715 1.941 . S
O740 C747 1.266 . S
H741 C743 0.959 . S
H742 C743 0.961 . S
C743 C733 1.510 . S
C743 H741 0.959 . S
C743 H742 0.961 . S
C743 H744 0.960 . S
H744 C743 0.960 . S
H745 N725 0.862 . S
O746 Co714 1.920 . S
O746 C719 1.291 . S
C747 O739 1.258 . S
C747 O740 1.266 . S
Co748 O751 1.970 . S
Co748 N765 1.989 . S
Co748 O773 1.967 . S
Co748 O780 1.920 . S
Co749 O752 1.966 . S
Co749 N758 2.022 . S
Co749 N766 1.993 . S
Co749 O774 1.941 . S
C750 O751 1.258 . S
C750 O752 1.263 . S
O751 Co748 1.970 . S
O751 C750 1.258 . S
O752 Co749 1.966 . S
O752 C750 1.263 . S
C753 O754 1.235 . S
C753 O780 1.289 . S
O754 C753 1.235 . S
C755 C757 1.400 . S
C755 N758 1.351 . S
C755 C760 1.501 . S
C756 C757 1.387 . S
C756 N759 1.341 . S
C757 C755 1.400 . S
C757 C756 1.387 . S
N758 Co749 2.022 . S
N758 C755 1.351 . S
N758 N759 1.365 . S
N759 C756 1.341 . S
N759 N758 1.365 . S
N759 H779 0.862 . S
C760 C755 1.501 . S
C760 H761 0.961 . S
C760 H762 0.961 . S
C760 H763 0.960 . S
H761 C760 0.961 . S
H762 C760 0.961 . S
H763 C760 0.960 . S
C764 N765 1.342 . S
C764 C768 1.401 . S
C764 C769 1.499 . S
N765 Co748 1.989 . S
N765 C764 1.342 . S
N765 N766 1.388 . S
N766 Co749 1.993 . S
N766 N765 1.388 . S
N766 C767 1.346 . S
C767 N766 1.346 . S
C767 C768 1.396 . S
C767 C777 1.510 . S
C768 C764 1.401 . S
C768 C767 1.396 . S
C769 C764 1.499 . S
C769 H770 0.959 . S
C769 H771 0.960 . S
C769 H772 0.961 . S
H770 C769 0.959 . S
H771 C769 0.960 . S
H772 C769 0.961 . S
O773 Co748 1.967 . S
O773 C781 1.258 . S
O774 Co749 1.941 . S
O774 C781 1.266 . S
H775 C777 0.959 . S
H776 C777 0.961 . S
C777 C767 1.510 . S
C777 H775 0.959 . S
C777 H776 0.961 . S
C777 H778 0.960 . S
H778 C777 0.960 . S
H779 N759 0.862 . S
O780 Co748 1.920 . S
O780 C753 1.289 . S
C781 O773 1.258 . S
C781 O774 1.266 . S
Co782 O785 1.970 . S
Co782 N799 1.989 . S
Co782 O807 1.967 . S
Co782 O814 1.920 . S
Co783 O786 1.966 . S
Co783 N792 2.022 . S
Co783 N800 1.993 . S
Co783 O808 1.941 . S
C784 O785 1.258 . S
C784 O786 1.263 . S
O785 Co782 1.970 . S
O785 C784 1.258 . S
O786 Co783 1.966 . S
O786 C784 1.263 . S
C787 O788 1.235 1_565 S
C787 O814 1.289 . S
O788 C787 1.235 1_545 S
C789 C791 1.400 . S
C789 N792 1.351 . S
C789 C794 1.501 . S
C790 C791 1.387 . S
C790 N793 1.341 . S
C791 C789 1.400 . S
C791 C790 1.387 . S
N792 Co783 2.022 . S
N792 C789 1.351 . S
N792 N793 1.365 . S
N793 C790 1.341 . S
N793 N792 1.365 . S
N793 H813 0.862 . S
C794 C789 1.501 . S
C794 H795 0.961 . S
C794 H796 0.961 . S
C794 H797 0.960 . S
H795 C794 0.961 . S
H796 C794 0.961 . S
H797 C794 0.960 . S
C798 N799 1.342 . S
C798 C802 1.401 . S
C798 C803 1.499 . S
N799 Co782 1.989 . S
N799 C798 1.342 . S
N799 N800 1.388 . S
N800 Co783 1.993 . S
N800 N799 1.388 . S
N800 C801 1.346 . S
C801 N800 1.346 . S
C801 C802 1.396 . S
C801 C811 1.510 . S
C802 C798 1.401 . S
C802 C801 1.396 . S
C803 C798 1.499 . S
C803 H804 0.959 . S
C803 H805 0.960 1_565 S
C803 H806 0.961 . S
H804 C803 0.959 . S
H805 C803 0.960 1_545 S
H806 C803 0.961 . S
O807 Co782 1.967 . S
O807 C815 1.258 . S
O808 Co783 1.941 . S
O808 C815 1.266 . S
H809 C811 0.959 . S
H810 C811 0.961 . S
C811 C801 1.510 . S
C811 H809 0.959 . S
C811 H810 0.961 . S
C811 H812 0.960 . S
H812 C811 0.960 . S
H813 N793 0.862 . S
O814 Co782 1.920 . S
O814 C787 1.289 . S
C815 O807 1.258 . S
C815 O808 1.266 . S
Co816 O819 1.970 . S
Co816 N833 1.989 . S
Co816 O841 1.967 . S
Co816 O848 1.920 . S
Co817 O820 1.966 . S
Co817 N826 2.022 . S
Co817 N834 1.993 . S
Co817 O842 1.941 . S
C818 O819 1.258 . S
C818 O820 1.263 . S
O819 Co816 1.970 . S
O819 C818 1.258 . S
O820 Co817 1.966 . S
O820 C818 1.263 . S
C821 O822 1.235 . S
C821 O848 1.289 . S
O822 C821 1.235 . S
C823 C825 1.400 . S
C823 N826 1.351 . S
C823 C828 1.501 . S
C824 C825 1.387 . S
C824 N827 1.341 . S
C825 C823 1.400 . S
C825 C824 1.387 . S
N826 Co817 2.022 . S
N826 C823 1.351 . S
N826 N827 1.365 . S
N827 C824 1.341 . S
N827 N826 1.365 . S
N827 H847 0.862 . S
C828 C823 1.501 . S
C828 H829 0.961 . S
C828 H830 0.961 . S
C828 H831 0.960 . S
H829 C828 0.961 . S
H830 C828 0.961 . S
H831 C828 0.960 . S
C832 N833 1.342 . S
C832 C836 1.401 . S
C832 C837 1.499 . S
N833 Co816 1.989 . S
N833 C832 1.342 . S
N833 N834 1.388 . S
N834 Co817 1.993 . S
N834 N833 1.388 . S
N834 C835 1.346 . S
C835 N834 1.346 . S
C835 C836 1.396 . S
C835 C845 1.510 . S
C836 C832 1.401 . S
C836 C835 1.396 . S
C837 C832 1.499 . S
C837 H838 0.959 . S
C837 H839 0.960 . S
C837 H840 0.961 . S
H838 C837 0.959 . S
H839 C837 0.960 . S
H840 C837 0.961 . S
O841 Co816 1.967 . S
O841 C849 1.258 . S
O842 Co817 1.941 . S
O842 C849 1.266 . S
H843 C845 0.959 . S
H844 C845 0.961 . S
C845 C835 1.510 . S
C845 H843 0.959 . S
C845 H844 0.961 . S
C845 H846 0.960 . S
H846 C845 0.960 . S
H847 N827 0.862 . S
O848 Co816 1.920 . S
O848 C821 1.289 . S
C849 O841 1.258 . S
C849 O842 1.266 . S
Co850 O853 1.970 . S
Co850 N867 1.989 . S
Co850 O875 1.967 . S
Co850 O882 1.920 . S
Co851 O854 1.966 . S
Co851 N860 2.022 . S
Co851 N868 1.993 . S
Co851 O876 1.941 . S
C852 O853 1.258 . S
C852 O854 1.263 . S
O853 Co850 1.970 . S
O853 C852 1.258 . S
O854 Co851 1.966 . S
O854 C852 1.263 . S
C855 O856 1.235 . S
C855 O882 1.289 . S
O856 C855 1.235 . S
C857 C859 1.400 . S
C857 N860 1.351 . S
C857 C862 1.501 . S
C858 C859 1.387 . S
C858 N861 1.341 . S
C859 C857 1.400 . S
C859 C858 1.387 . S
N860 Co851 2.022 . S
N860 C857 1.351 . S
N860 N861 1.365 . S
N861 C858 1.341 . S
N861 N860 1.365 . S
N861 H881 0.862 . S
C862 C857 1.501 . S
C862 H863 0.961 . S
C862 H864 0.961 . S
C862 H865 0.960 . S
H863 C862 0.961 . S
H864 C862 0.961 . S
H865 C862 0.960 . S
C866 N867 1.342 . S
C866 C870 1.401 . S
C866 C871 1.499 . S
N867 Co850 1.989 . S
N867 C866 1.342 . S
N867 N868 1.388 . S
N868 Co851 1.993 . S
N868 N867 1.388 . S
N868 C869 1.346 . S
C869 N868 1.346 . S
C869 C870 1.396 . S
C869 C879 1.510 . S
C870 C866 1.401 . S
C870 C869 1.396 . S
C871 C866 1.499 . S
C871 H872 0.959 . S
C871 H873 0.960 . S
C871 H874 0.961 . S
H872 C871 0.959 . S
H873 C871 0.960 . S
H874 C871 0.961 . S
O875 Co850 1.967 . S
O875 C883 1.258 . S
O876 Co851 1.941 . S
O876 C883 1.266 . S
H877 C879 0.959 . S
H878 C879 0.961 . S
C879 C869 1.510 . S
C879 H877 0.959 . S
C879 H878 0.961 . S
C879 H880 0.960 . S
H880 C879 0.960 . S
H881 N861 0.862 . S
O882 Co850 1.920 . S
O882 C855 1.289 . S
C883 O875 1.258 . S
C883 O876 1.266 . S
Co884 O887 1.970 . S
Co884 N901 1.989 . S
Co884 O909 1.967 . S
Co884 O916 1.920 . S
Co885 O888 1.966 . S
Co885 N894 2.022 . S
Co885 N902 1.993 . S
Co885 O910 1.941 . S
C886 O887 1.258 . S
C886 O888 1.263 . S
O887 Co884 1.970 . S
O887 C886 1.258 . S
O888 Co885 1.966 . S
O888 C886 1.263 . S
C889 O890 1.235 . S
C889 O916 1.289 . S
O890 C889 1.235 . S
C891 C893 1.400 . S
C891 N894 1.351 . S
C891 C896 1.501 . S
C892 C893 1.387 . S
C892 N895 1.341 . S
C893 C891 1.400 . S
C893 C892 1.387 . S
N894 Co885 2.022 . S
N894 C891 1.351 . S
N894 N895 1.365 . S
N895 C892 1.341 . S
N895 N894 1.365 . S
N895 H915 0.862 . S
C896 C891 1.501 . S
C896 H897 0.961 . S
C896 H898 0.961 . S
C896 H899 0.960 . S
H897 C896 0.961 . S
H898 C896 0.961 . S
H899 C896 0.960 . S
C900 N901 1.342 . S
C900 C904 1.401 . S
C900 C905 1.499 . S
N901 Co884 1.989 . S
N901 C900 1.342 . S
N901 N902 1.388 . S
N902 Co885 1.993 . S
N902 N901 1.388 . S
N902 C903 1.346 . S
C903 N902 1.346 . S
C903 C904 1.396 . S
C903 C913 1.510 . S
C904 C900 1.401 . S
C904 C903 1.396 . S
C905 C900 1.499 . S
C905 H906 0.959 . S
C905 H907 0.960 . S
C905 H908 0.961 . S
H906 C905 0.959 . S
H907 C905 0.960 . S
H908 C905 0.961 . S
O909 Co884 1.967 . S
O909 C917 1.258 . S
O910 Co885 1.941 . S
O910 C917 1.266 . S
H911 C913 0.959 . S
H912 C913 0.961 . S
C913 C903 1.510 . S
C913 H911 0.959 . S
C913 H912 0.961 . S
C913 H914 0.960 . S
H914 C913 0.960 . S
H915 N895 0.862 . S
O916 Co884 1.920 . S
O916 C889 1.289 . S
C917 O909 1.258 . S
C917 O910 1.266 . S
Co918 O921 1.970 . S
Co918 N935 1.989 . S
Co918 O943 1.967 . S
Co918 O950 1.920 . S
Co919 O922 1.966 . S
Co919 N928 2.022 . S
Co919 N936 1.993 . S
Co919 O944 1.941 . S
C920 O921 1.258 . S
C920 O922 1.263 . S
O921 Co918 1.970 . S
O921 C920 1.258 . S
O922 Co919 1.966 . S
O922 C920 1.263 . S
C923 O924 1.235 . S
C923 O950 1.289 . S
O924 C923 1.235 . S
C925 C927 1.400 . S
C925 N928 1.351 . S
C925 C930 1.501 . S
C926 C927 1.387 . S
C926 N929 1.341 . S
C927 C925 1.400 . S
C927 C926 1.387 . S
N928 Co919 2.022 . S
N928 C925 1.351 . S
N928 N929 1.365 . S
N929 C926 1.341 . S
N929 N928 1.365 . S
N929 H949 0.862 . S
C930 C925 1.501 . S
C930 H931 0.961 . S
C930 H932 0.961 . S
C930 H933 0.960 . S
H931 C930 0.961 . S
H932 C930 0.961 . S
H933 C930 0.960 . S
C934 N935 1.342 . S
C934 C938 1.401 . S
C934 C939 1.499 . S
N935 Co918 1.989 . S
N935 C934 1.342 . S
N935 N936 1.388 . S
N936 Co919 1.993 . S
N936 N935 1.388 . S
N936 C937 1.346 . S
C937 N936 1.346 . S
C937 C938 1.396 . S
C937 C947 1.510 . S
C938 C934 1.401 . S
C938 C937 1.396 . S
C939 C934 1.499 . S
C939 H940 0.959 . S
C939 H941 0.960 . S
C939 H942 0.961 . S
H940 C939 0.959 . S
H941 C939 0.960 . S
H942 C939 0.961 . S
O943 Co918 1.967 . S
O943 C951 1.258 . S
O944 Co919 1.941 . S
O944 C951 1.266 . S
H945 C947 0.959 . S
H946 C947 0.961 . S
C947 C937 1.510 . S
C947 H945 0.959 . S
C947 H946 0.961 . S
C947 H948 0.960 . S
H948 C947 0.960 . S
H949 N929 0.862 . S
O950 Co918 1.920 . S
O950 C923 1.289 . S
C951 O943 1.258 . S
C951 O944 1.266 . S
Co952 O955 1.970 . S
Co952 N969 1.989 . S
Co952 O977 1.967 . S
Co952 O984 1.920 . S
Co953 O956 1.966 . S
Co953 N962 2.022 . S
Co953 N970 1.993 . S
Co953 O978 1.941 . S
C954 O955 1.258 . S
C954 O956 1.263 . S
O955 Co952 1.970 . S
O955 C954 1.258 . S
O956 Co953 1.966 . S
O956 C954 1.263 . S
C957 O958 1.235 . S
C957 O984 1.289 . S
O958 C957 1.235 . S
C959 C961 1.400 . S
C959 N962 1.351 . S
C959 C964 1.501 . S
C960 C961 1.387 . S
C960 N963 1.341 . S
C961 C959 1.400 . S
C961 C960 1.387 . S
N962 Co953 2.022 . S
N962 C959 1.351 . S
N962 N963 1.365 . S
N963 C960 1.341 . S
N963 N962 1.365 . S
N963 H983 0.862 . S
C964 C959 1.501 . S
C964 H965 0.961 . S
C964 H966 0.961 . S
C964 H967 0.960 . S
H965 C964 0.961 . S
H966 C964 0.961 . S
H967 C964 0.960 . S
C968 N969 1.342 . S
C968 C972 1.401 . S
C968 C973 1.499 . S
N969 Co952 1.989 . S
N969 C968 1.342 . S
N969 N970 1.388 . S
N970 Co953 1.993 . S
N970 N969 1.388 . S
N970 C971 1.346 . S
C971 N970 1.346 . S
C971 C972 1.396 . S
C971 C981 1.510 . S
C972 C968 1.401 . S
C972 C971 1.396 . S
C973 C968 1.499 . S
C973 H974 0.959 . S
C973 H975 0.960 . S
C973 H976 0.961 . S
H974 C973 0.959 . S
H975 C973 0.960 . S
H976 C973 0.961 . S
O977 Co952 1.967 . S
O977 C985 1.258 . S
O978 Co953 1.941 . S
O978 C985 1.266 . S
H979 C981 0.959 . S
H980 C981 0.961 . S
C981 C971 1.510 . S
C981 H979 0.959 . S
C981 H980 0.961 . S
C981 H982 0.960 . S
H982 C981 0.960 . S
H983 N963 0.862 . S
O984 Co952 1.920 . S
O984 C957 1.289 . S
C985 O977 1.258 . S
C985 O978 1.266 . S
Co986 O989 1.970 . S
Co986 N1003 1.989 . S
Co986 O1011 1.967 . S
Co986 O1018 1.920 . S
Co987 O990 1.966 . S
Co987 N996 2.022 . S
Co987 N1004 1.993 . S
Co987 O1012 1.941 . S
C988 O989 1.258 . S
C988 O990 1.263 . S
O989 Co986 1.970 . S
O989 C988 1.258 . S
O990 Co987 1.966 . S
O990 C988 1.263 . S
C991 O992 1.235 . S
C991 O1018 1.289 . S
O992 C991 1.235 . S
C993 C995 1.400 . S
C993 N996 1.351 . S
C993 C998 1.501 . S
C994 C995 1.387 . S
C994 N997 1.341 . S
C995 C993 1.400 . S
C995 C994 1.387 . S
N996 Co987 2.022 . S
N996 C993 1.351 . S
N996 N997 1.365 . S
N997 C994 1.341 . S
N997 N996 1.365 . S
N997 H1017 0.862 . S
C998 C993 1.501 . S
C998 H999 0.961 . S
C998 H1000 0.961 . S
C998 H1001 0.960 . S
H999 C998 0.961 . S
H1000 C998 0.961 . S
H1001 C998 0.960 . S
C1002 N1003 1.342 . S
C1002 C1006 1.401 . S
C1002 C1007 1.499 . S
N1003 Co986 1.989 . S
N1003 C1002 1.342 . S
N1003 N1004 1.388 . S
N1004 Co987 1.993 . S
N1004 N1003 1.388 . S
N1004 C1005 1.346 . S
C1005 N1004 1.346 . S
C1005 C1006 1.396 . S
C1005 C1015 1.510 . S
C1006 C1002 1.401 . S
C1006 C1005 1.396 . S
C1007 C1002 1.499 . S
C1007 H1008 0.959 . S
C1007 H1009 0.960 . S
C1007 H1010 0.961 . S
H1008 C1007 0.959 . S
H1009 C1007 0.960 . S
H1010 C1007 0.961 . S
O1011 Co986 1.967 . S
O1011 C1019 1.258 . S
O1012 Co987 1.941 . S
O1012 C1019 1.266 . S
H1013 C1015 0.959 . S
H1014 C1015 0.961 . S
C1015 C1005 1.510 . S
C1015 H1013 0.959 . S
C1015 H1014 0.961 . S
C1015 H1016 0.960 . S
H1016 C1015 0.960 . S
H1017 N997 0.862 . S
O1018 Co986 1.920 . S
O1018 C991 1.289 . S
C1019 O1011 1.258 . S
C1019 O1012 1.266 . S
Co1020 O1023 1.970 . S
Co1020 N1037 1.989 . S
Co1020 O1045 1.967 . S
Co1020 O1052 1.920 . S
Co1021 O1024 1.966 . S
Co1021 N1030 2.022 . S
Co1021 N1038 1.993 . S
Co1021 O1046 1.941 . S
C1022 O1023 1.258 . S
C1022 O1024 1.263 . S
O1023 Co1020 1.970 . S
O1023 C1022 1.258 . S
O1024 Co1021 1.966 . S
O1024 C1022 1.263 . S
C1025 O1026 1.235 . S
C1025 O1052 1.289 . S
O1026 C1025 1.235 . S
C1027 C1029 1.400 . S
C1027 N1030 1.351 . S
C1027 C1032 1.501 . S
C1028 C1029 1.387 . S
C1028 N1031 1.341 . S
C1029 C1027 1.400 . S
C1029 C1028 1.387 . S
N1030 Co1021 2.022 . S
N1030 C1027 1.351 . S
N1030 N1031 1.365 . S
N1031 C1028 1.341 . S
N1031 N1030 1.365 . S
N1031 H1051 0.862 . S
C1032 C1027 1.501 . S
C1032 H1033 0.961 . S
C1032 H1034 0.961 . S
C1032 H1035 0.960 . S
H1033 C1032 0.961 . S
H1034 C1032 0.961 . S
H1035 C1032 0.960 . S
C1036 N1037 1.342 . S
C1036 C1040 1.401 . S
C1036 C1041 1.499 . S
N1037 Co1020 1.989 . S
N1037 C1036 1.342 . S
N1037 N1038 1.388 . S
N1038 Co1021 1.993 . S
N1038 N1037 1.388 . S
N1038 C1039 1.346 . S
C1039 N1038 1.346 . S
C1039 C1040 1.396 . S
C1039 C1049 1.510 . S
C1040 C1036 1.401 . S
C1040 C1039 1.396 . S
C1041 C1036 1.499 . S
C1041 H1042 0.959 . S
C1041 H1043 0.960 . S
C1041 H1044 0.961 . S
H1042 C1041 0.959 . S
H1043 C1041 0.960 . S
H1044 C1041 0.961 . S
O1045 Co1020 1.967 . S
O1045 C1053 1.258 . S
O1046 Co1021 1.941 . S
O1046 C1053 1.266 . S
H1047 C1049 0.959 . S
H1048 C1049 0.961 . S
C1049 C1039 1.510 . S
C1049 H1047 0.959 . S
C1049 H1048 0.961 . S
C1049 H1050 0.960 . S
H1050 C1049 0.960 . S
H1051 N1031 0.862 . S
O1052 Co1020 1.920 . S
O1052 C1025 1.289 . S
C1053 O1045 1.258 . S
C1053 O1046 1.266 . S
Co1054 O1057 1.970 . S
Co1054 N1071 1.989 . S
Co1054 O1079 1.967 . S
Co1054 O1086 1.920 . S
Co1055 O1058 1.966 . S
Co1055 N1064 2.022 . S
Co1055 N1072 1.993 . S
Co1055 O1080 1.941 . S
C1056 O1057 1.258 . S
C1056 O1058 1.263 . S
O1057 Co1054 1.970 . S
O1057 C1056 1.258 . S
O1058 Co1055 1.966 . S
O1058 C1056 1.263 . S
C1059 O1060 1.235 . S
C1059 O1086 1.289 . S
O1060 C1059 1.235 . S
C1061 C1063 1.400 . S
C1061 N1064 1.351 . S
C1061 C1066 1.501 . S
C1062 C1063 1.387 . S
C1062 N1065 1.341 . S
C1063 C1061 1.400 . S
C1063 C1062 1.387 . S
N1064 Co1055 2.022 . S
N1064 C1061 1.351 . S
N1064 N1065 1.365 . S
N1065 C1062 1.341 . S
N1065 N1064 1.365 . S
N1065 H1085 0.862 . S
C1066 C1061 1.501 . S
C1066 H1067 0.961 . S
C1066 H1068 0.961 . S
C1066 H1069 0.960 . S
H1067 C1066 0.961 . S
H1068 C1066 0.961 . S
H1069 C1066 0.960 . S
C1070 N1071 1.342 . S
C1070 C1074 1.401 . S
C1070 C1075 1.499 . S
N1071 Co1054 1.989 . S
N1071 C1070 1.342 . S
N1071 N1072 1.388 . S
N1072 Co1055 1.993 . S
N1072 N1071 1.388 . S
N1072 C1073 1.346 . S
C1073 N1072 1.346 . S
C1073 C1074 1.396 . S
C1073 C1083 1.510 . S
C1074 C1070 1.401 . S
C1074 C1073 1.396 . S
C1075 C1070 1.499 . S
C1075 H1076 0.959 . S
C1075 H1077 0.960 . S
C1075 H1078 0.961 . S
H1076 C1075 0.959 . S
H1077 C1075 0.960 . S
H1078 C1075 0.961 . S
O1079 Co1054 1.967 . S
O1079 C1087 1.258 . S
O1080 Co1055 1.941 . S
O1080 C1087 1.266 . S
H1081 C1083 0.959 . S
H1082 C1083 0.961 . S
C1083 C1073 1.510 . S
C1083 H1081 0.959 . S
C1083 H1082 0.961 . S
C1083 H1084 0.960 . S
H1084 C1083 0.960 . S
H1085 N1065 0.862 . S
O1086 Co1054 1.920 . S
O1086 C1059 1.289 . S
C1087 O1079 1.258 . S
C1087 O1080 1.266 . S
C1088 C1089 1.387 . S
C1088 H1092 0.950 . S
C1088 C1097 1.390 . S
C1089 C1088 1.387 . S
C1089 C1091 1.387 . S
H1090 C1097 0.950 . S
C1091 C1089 1.387 . S
C1091 C1093 1.390 . S
C1091 H1095 0.950 . S
H1092 C1088 0.950 . S
C1093 C1091 1.390 . S
C1093 C1094 1.387 . S
C1093 H1096 0.950 . S
C1094 C1093 1.387 . S
C1094 C1097 1.387 . S
H1095 C1091 0.950 . S
H1096 C1093 0.950 . S
C1097 C1088 1.390 . S
C1097 H1090 0.950 . S
C1097 C1094 1.387 . S
C1098 C1099 1.387 . S
C1098 H1102 0.950 . S
C1098 C1107 1.390 . S
C1099 C1098 1.387 . S
C1099 C1101 1.387 . S
H1100 C1107 0.950 . S
C1101 C1099 1.387 . S
C1101 C1103 1.390 . S
C1101 H1105 0.950 . S
H1102 C1098 0.950 . S
C1103 C1101 1.390 . S
C1103 C1104 1.387 . S
C1103 H1106 0.950 . S
C1104 C1103 1.387 . S
C1104 C1107 1.387 . S
H1105 C1101 0.950 . S
H1106 C1103 0.950 . S
C1107 C1098 1.390 . S
C1107 H1100 0.950 . S
C1107 C1104 1.387 . S
C1108 C1109 1.387 . S
C1108 H1112 0.950 . S
C1108 C1117 1.390 . S
C1109 C1108 1.387 . S
C1109 C1111 1.387 . S
H1110 C1117 0.950 . S
C1111 C1109 1.387 . S
C1111 C1113 1.390 . S
C1111 H1115 0.950 . S
H1112 C1108 0.950 . S
C1113 C1111 1.390 . S
C1113 C1114 1.387 . S
C1113 H1116 0.950 . S
C1114 C1113 1.387 . S
C1114 C1117 1.387 . S
H1115 C1111 0.950 . S
H1116 C1113 0.950 . S
C1117 C1108 1.390 . S
C1117 H1110 0.950 . S
C1117 C1114 1.387 . S
C1118 C1119 1.387 . S
C1118 H1122 0.950 . S
C1118 C1127 1.390 . S
C1119 C1118 1.387 . S
C1119 C1121 1.387 . S
H1120 C1127 0.950 . S
C1121 C1119 1.387 . S
C1121 C1123 1.390 . S
C1121 H1125 0.950 . S
H1122 C1118 0.950 . S
C1123 C1121 1.390 . S
C1123 C1124 1.387 . S
C1123 H1126 0.950 . S
C1124 C1123 1.387 . S
C1124 C1127 1.387 . S
H1125 C1121 0.950 . S
H1126 C1123 0.950 . S
C1127 C1118 1.390 . S
C1127 H1120 0.950 . S
C1127 C1124 1.387 . S
C1128 C1129 1.387 . S
C1128 H1132 0.950 . S
C1128 C1137 1.390 . S
C1129 C1128 1.387 . S
C1129 C1131 1.387 . S
H1130 C1137 0.950 . S
C1131 C1129 1.387 . S
C1131 C1133 1.390 . S
C1131 H1135 0.950 . S
H1132 C1128 0.950 . S
C1133 C1131 1.390 . S
C1133 C1134 1.387 . S
C1133 H1136 0.950 . S
C1134 C1133 1.387 . S
C1134 C1137 1.387 . S
H1135 C1131 0.950 . S
H1136 C1133 0.950 . S
C1137 C1128 1.390 . S
C1137 H1130 0.950 . S
C1137 C1134 1.387 . S
C1138 C1139 1.387 . S
C1138 H1142 0.950 . S
C1138 C1147 1.390 . S
C1139 C1138 1.387 . S
C1139 C1141 1.387 . S
H1140 C1147 0.950 . S
C1141 C1139 1.387 . S
C1141 C1143 1.390 . S
C1141 H1145 0.950 . S
H1142 C1138 0.950 . S
C1143 C1141 1.390 . S
C1143 C1144 1.387 . S
C1143 H1146 0.950 . S
C1144 C1143 1.387 . S
C1144 C1147 1.387 . S
H1145 C1141 0.950 . S
H1146 C1143 0.950 . S
C1147 C1138 1.390 . S
C1147 H1140 0.950 . S
C1147 C1144 1.387 . S
C1148 C1149 1.387 . S
C1148 H1152 0.950 . S
C1148 C1157 1.390 . S
C1149 C1148 1.387 . S
C1149 C1151 1.387 . S
H1150 C1157 0.950 . S
C1151 C1149 1.387 . S
C1151 C1153 1.390 . S
C1151 H1155 0.950 . S
H1152 C1148 0.950 . S
C1153 C1151 1.390 . S
C1153 C1154 1.387 . S
C1153 H1156 0.950 . S
C1154 C1153 1.387 . S
C1154 C1157 1.387 . S
H1155 C1151 0.950 . S
H1156 C1153 0.950 . S
C1157 C1148 1.390 . S
C1157 H1150 0.950 . S
C1157 C1154 1.387 . S
C1158 C1159 1.387 . S
C1158 H1162 0.950 . S
C1158 C1167 1.390 . S
C1159 C1158 1.387 . S
C1159 C1161 1.387 . S
H1160 C1167 0.950 . S
C1161 C1159 1.387 . S
C1161 C1163 1.390 . S
C1161 H1165 0.950 . S
H1162 C1158 0.950 . S
C1163 C1161 1.390 . S
C1163 C1164 1.387 . S
C1163 H1166 0.950 . S
C1164 C1163 1.387 . S
C1164 C1167 1.387 . S
H1165 C1161 0.950 . S
H1166 C1163 0.950 . S
C1167 C1158 1.390 . S
C1167 H1160 0.950 . S
C1167 C1164 1.387 . S
C1168 C1169 1.387 . S
C1168 H1172 0.950 . S
C1168 C1177 1.390 . S
C1169 C1168 1.387 . S
C1169 C1171 1.387 . S
H1170 C1177 0.950 . S
C1171 C1169 1.387 . S
C1171 C1173 1.390 . S
C1171 H1175 0.950 . S
H1172 C1168 0.950 . S
C1173 C1171 1.390 . S
C1173 C1174 1.387 . S
C1173 H1176 0.950 . S
C1174 C1173 1.387 . S
C1174 C1177 1.387 . S
H1175 C1171 0.950 . S
H1176 C1173 0.950 . S
C1177 C1168 1.390 . S
C1177 H1170 0.950 . S
C1177 C1174 1.387 . S
C1178 C1179 1.387 . S
C1178 H1182 0.950 . S
C1178 C1187 1.390 . S
C1179 C1178 1.387 . S
C1179 C1181 1.387 . S
H1180 C1187 0.950 . S
C1181 C1179 1.387 . S
C1181 C1183 1.390 . S
C1181 H1185 0.950 . S
H1182 C1178 0.950 . S
C1183 C1181 1.390 . S
C1183 C1184 1.387 . S
C1183 H1186 0.950 . S
C1184 C1183 1.387 . S
C1184 C1187 1.387 . S
H1185 C1181 0.950 . S
H1186 C1183 0.950 . S
C1187 C1178 1.390 . S
C1187 H1180 0.950 . S
C1187 C1184 1.387 . S
C1188 C1189 1.387 . S
C1188 H1192 0.950 . S
C1188 C1197 1.390 . S
C1189 C1188 1.387 . S
C1189 C1191 1.387 . S
H1190 C1197 0.950 . S
C1191 C1189 1.387 . S
C1191 C1193 1.390 . S
C1191 H1195 0.950 . S
H1192 C1188 0.950 . S
C1193 C1191 1.390 . S
C1193 C1194 1.387 . S
C1193 H1196 0.950 . S
C1194 C1193 1.387 . S
C1194 C1197 1.387 . S
H1195 C1191 0.950 . S
H1196 C1193 0.950 . S
C1197 C1188 1.390 . S
C1197 H1190 0.950 . S
C1197 C1194 1.387 . S
C1198 C1199 1.387 . S
C1198 H1202 0.950 . S
C1198 C1207 1.390 . S
C1199 C1198 1.387 . S
C1199 C1201 1.387 . S
H1200 C1207 0.950 . S
C1201 C1199 1.387 . S
C1201 C1203 1.390 . S
C1201 H1205 0.950 . S
H1202 C1198 0.950 . S
C1203 C1201 1.390 . S
C1203 C1204 1.387 . S
C1203 H1206 0.950 . S
C1204 C1203 1.387 . S
C1204 C1207 1.387 . S
H1205 C1201 0.950 . S
H1206 C1203 0.950 . S
C1207 C1198 1.390 . S
C1207 H1200 0.950 . S
C1207 C1204 1.387 . S
C1208 C1209 1.387 . S
C1208 H1212 0.950 . S
C1208 C1217 1.390 . S
C1209 C1208 1.387 . S
C1209 C1211 1.387 . S
H1210 C1217 0.950 . S
C1211 C1209 1.387 . S
C1211 C1213 1.390 . S
C1211 H1215 0.950 . S
H1212 C1208 0.950 . S
C1213 C1211 1.390 . S
C1213 C1214 1.387 . S
C1213 H1216 0.950 . S
C1214 C1213 1.387 . S
C1214 C1217 1.387 . S
H1215 C1211 0.950 . S
H1216 C1213 0.950 . S
C1217 C1208 1.390 . S
C1217 H1210 0.950 . S
C1217 C1214 1.387 . S
C1218 C1219 1.387 . S
C1218 H1222 0.950 . S
C1218 C1227 1.390 . S
C1219 C1218 1.387 . S
C1219 C1221 1.387 . S
H1220 C1227 0.950 . S
C1221 C1219 1.387 . S
C1221 C1223 1.390 . S
C1221 H1225 0.950 . S
H1222 C1218 0.950 . S
C1223 C1221 1.390 . S
C1223 C1224 1.387 . S
C1223 H1226 0.950 . S
C1224 C1223 1.387 . S
C1224 C1227 1.387 . S
H1225 C1221 0.950 . S
H1226 C1223 0.950 . S
C1227 C1218 1.390 . S
C1227 H1220 0.950 . S
C1227 C1224 1.387 . S
C1228 C1229 1.387 . S
C1228 H1232 0.950 . S
C1228 C1237 1.390 . S
C1229 C1228 1.387 . S
C1229 C1231 1.387 . S
H1230 C1237 0.950 . S
C1231 C1229 1.387 . S
C1231 C1233 1.390 . S
C1231 H1235 0.950 . S
H1232 C1228 0.950 . S
C1233 C1231 1.390 . S
C1233 C1234 1.387 . S
C1233 H1236 0.950 . S
C1234 C1233 1.387 . S
C1234 C1237 1.387 . S
H1235 C1231 0.950 . S
H1236 C1233 0.950 . S
C1237 C1228 1.390 . S
C1237 H1230 0.950 . S
C1237 C1234 1.387 . S
C1238 C1239 1.387 . S
C1238 H1242 0.950 . S
C1238 C1247 1.390 . S
C1239 C1238 1.387 . S
C1239 C1241 1.387 . S
H1240 C1247 0.950 . S
C1241 C1239 1.387 . S
C1241 C1243 1.390 . S
C1241 H1245 0.950 . S
H1242 C1238 0.950 . S
C1243 C1241 1.390 . S
C1243 C1244 1.387 . S
C1243 H1246 0.950 . S
C1244 C1243 1.387 . S
C1244 C1247 1.387 . S
H1245 C1241 0.950 . S
H1246 C1243 0.950 . S
C1247 C1238 1.390 . S
C1247 H1240 0.950 . S
C1247 C1244 1.387 . S
C1248 C1249 1.387 . S
C1248 H1252 0.950 1_545 S
C1248 C1257 1.390 . S
C1249 C1248 1.387 . S
C1249 C1251 1.387 . S
H1250 C1257 0.950 1_565 S
C1251 C1249 1.387 . S
C1251 C1253 1.390 . S
C1251 H1255 0.950 . S
H1252 C1248 0.950 1_565 S
C1253 C1251 1.390 . S
C1253 C1254 1.387 . S
C1253 H1256 0.950 . S
C1254 C1253 1.387 . S
C1254 C1257 1.387 . S
H1255 C1251 0.950 . S
H1256 C1253 0.950 . S
C1257 C1248 1.390 . S
C1257 H1250 0.950 1_545 S
C1257 C1254 1.387 . S
C1258 C1259 1.387 . S
C1258 H1262 0.950 . S
C1258 C1267 1.390 . S
C1259 C1258 1.387 . S
C1259 C1261 1.387 . S
H1260 C1267 0.950 . S
C1261 C1259 1.387 . S
C1261 C1263 1.390 . S
C1261 H1265 0.950 . S
H1262 C1258 0.950 . S
C1263 C1261 1.390 . S
C1263 C1264 1.387 . S
C1263 H1266 0.950 . S
C1264 C1263 1.387 . S
C1264 C1267 1.387 . S
H1265 C1261 0.950 . S
H1266 C1263 0.950 . S
C1267 C1258 1.390 . S
C1267 H1260 0.950 . S
C1267 C1264 1.387 . S
C1268 C1269 1.387 . S
C1268 H1272 0.950 . S
C1268 C1277 1.390 . S
C1269 C1268 1.387 . S
C1269 C1271 1.387 . S
H1270 C1277 0.950 . S
C1271 C1269 1.387 . S
C1271 C1273 1.390 . S
C1271 H1275 0.950 . S
H1272 C1268 0.950 . S
C1273 C1271 1.390 . S
C1273 C1274 1.387 . S
C1273 H1276 0.950 . S
C1274 C1273 1.387 . S
C1274 C1277 1.387 . S
H1275 C1271 0.950 . S
H1276 C1273 0.950 . S
C1277 C1268 1.390 . S
C1277 H1270 0.950 . S
C1277 C1274 1.387 . S
C1278 C1279 1.387 . S
C1278 H1282 0.950 1_545 S
C1278 C1287 1.390 . S
C1279 C1278 1.387 . S
C1279 C1281 1.387 . S
H1280 C1287 0.950 1_565 S
C1281 C1279 1.387 . S
C1281 C1283 1.390 . S
C1281 H1285 0.950 . S
H1282 C1278 0.950 1_565 S
C1283 C1281 1.390 . S
C1283 C1284 1.387 . S
C1283 H1286 0.950 . S
C1284 C1283 1.387 . S
C1284 C1287 1.387 . S
H1285 C1281 0.950 . S
H1286 C1283 0.950 . S
C1287 C1278 1.390 . S
C1287 H1280 0.950 1_545 S
C1287 C1284 1.387 . S
C1288 C1289 1.387 . S
C1288 H1292 0.950 . S
C1288 C1297 1.390 . S
C1289 C1288 1.387 . S
C1289 C1291 1.387 . S
H1290 C1297 0.950 . S
C1291 C1289 1.387 . S
C1291 C1293 1.390 . S
C1291 H1295 0.950 1_565 S
H1292 C1288 0.950 . S
C1293 C1291 1.390 . S
C1293 C1294 1.387 . S
C1293 H1296 0.950 1_565 S
C1294 C1293 1.387 . S
C1294 C1297 1.387 . S
H1295 C1291 0.950 1_545 S
H1296 C1293 0.950 1_545 S
C1297 C1288 1.390 . S
C1297 H1290 0.950 . S
C1297 C1294 1.387 . S
C1298 C1299 1.387 . S
C1298 H1302 0.950 . S
C1298 C1307 1.390 . S
C1299 C1298 1.387 . S
C1299 C1301 1.387 . S
H1300 C1307 0.950 . S
C1301 C1299 1.387 . S
C1301 C1303 1.390 . S
C1301 H1305 0.950 . S
H1302 C1298 0.950 . S
C1303 C1301 1.390 . S
C1303 C1304 1.387 . S
C1303 H1306 0.950 . S
C1304 C1303 1.387 . S
C1304 C1307 1.387 . S
H1305 C1301 0.950 . S
H1306 C1303 0.950 . S
C1307 C1298 1.390 . S
C1307 H1300 0.950 . S
C1307 C1304 1.387 . S
C1308 C1309 1.387 . S
C1308 H1312 0.950 . S
C1308 C1317 1.390 . S
C1309 C1308 1.387 . S
C1309 C1311 1.387 . S
H1310 C1317 0.950 . S
C1311 C1309 1.387 . S
C1311 C1313 1.390 . S
C1311 H1315 0.950 . S
H1312 C1308 0.950 . S
C1313 C1311 1.390 . S
C1313 C1314 1.387 . S
C1313 H1316 0.950 . S
C1314 C1313 1.387 . S
C1314 C1317 1.387 . S
H1315 C1311 0.950 . S
H1316 C1313 0.950 . S
C1317 C1308 1.390 . S
C1317 H1310 0.950 . S
C1317 C1314 1.387 . S
C1318 C1319 1.387 . S
C1318 H1322 0.950 . S
C1318 C1327 1.390 . S
C1319 C1318 1.387 . S
C1319 C1321 1.387 . S
H1320 C1327 0.950 . S
C1321 C1319 1.387 . S
C1321 C1323 1.390 . S
C1321 H1325 0.950 1_565 S
H1322 C1318 0.950 . S
C1323 C1321 1.390 . S
C1323 C1324 1.387 . S
C1323 H1326 0.950 1_565 S
C1324 C1323 1.387 . S
C1324 C1327 1.387 . S
H1325 C1321 0.950 1_545 S
H1326 C1323 0.950 1_545 S
C1327 C1318 1.390 . S
C1327 H1320 0.950 . S
C1327 C1324 1.387 . S
C1328 C1329 1.387 . S
C1328 H1332 0.950 . S
C1328 C1337 1.390 . S
C1329 C1328 1.387 . S
C1329 C1331 1.387 . S
H1330 C1337 0.950 . S
C1331 C1329 1.387 . S
C1331 C1333 1.390 . S
C1331 H1335 0.950 . S
H1332 C1328 0.950 . S
C1333 C1331 1.390 . S
C1333 C1334 1.387 . S
C1333 H1336 0.950 . S
C1334 C1333 1.387 . S
C1334 C1337 1.387 . S
H1335 C1331 0.950 . S
H1336 C1333 0.950 . S
C1337 C1328 1.390 . S
C1337 H1330 0.950 . S
C1337 C1334 1.387 . S
C1338 C1339 1.387 . S
C1338 H1342 0.950 . S
C1338 C1347 1.390 . S
C1339 C1338 1.387 . S
C1339 C1341 1.387 . S
H1340 C1347 0.950 . S
C1341 C1339 1.387 . S
C1341 C1343 1.390 . S
C1341 H1345 0.950 . S
H1342 C1338 0.950 . S
C1343 C1341 1.390 . S
C1343 C1344 1.387 . S
C1343 H1346 0.950 . S
C1344 C1343 1.387 . S
C1344 C1347 1.387 . S
H1345 C1341 0.950 . S
H1346 C1343 0.950 . S
C1347 C1338 1.390 . S
C1347 H1340 0.950 . S
C1347 C1344 1.387 . S
C1348 C1349 1.387 . S
C1348 H1352 0.950 . S
C1348 C1357 1.390 . S
C1349 C1348 1.387 . S
C1349 C1351 1.387 . S
H1350 C1357 0.950 . S
C1351 C1349 1.387 . S
C1351 C1353 1.390 . S
C1351 H1355 0.950 . S
H1352 C1348 0.950 . S
C1353 C1351 1.390 . S
C1353 C1354 1.387 . S
C1353 H1356 0.950 . S
C1354 C1353 1.387 . S
C1354 C1357 1.387 . S
H1355 C1351 0.950 . S
H1356 C1353 0.950 . S
C1357 C1348 1.390 . S
C1357 H1350 0.950 . S
C1357 C1354 1.387 . S
C1358 C1359 1.387 . S
C1358 H1362 0.950 . S
C1358 C1367 1.390 . S
C1359 C1358 1.387 . S
C1359 C1361 1.387 . S
H1360 C1367 0.950 . S
C1361 C1359 1.387 . S
C1361 C1363 1.390 . S
C1361 H1365 0.950 . S
H1362 C1358 0.950 . S
C1363 C1361 1.390 . S
C1363 C1364 1.387 . S
C1363 H1366 0.950 . S
C1364 C1363 1.387 . S
C1364 C1367 1.387 . S
H1365 C1361 0.950 . S
H1366 C1363 0.950 . S
C1367 C1358 1.390 . S
C1367 H1360 0.950 . S
C1367 C1364 1.387 . S
C1368 C1369 1.387 . S
C1368 H1372 0.950 . S
C1368 C1377 1.390 . S
C1369 C1368 1.387 . S
C1369 C1371 1.387 . S
H1370 C1377 0.950 . S
C1371 C1369 1.387 . S
C1371 C1373 1.390 . S
C1371 H1375 0.950 . S
H1372 C1368 0.950 . S
C1373 C1371 1.390 . S
C1373 C1374 1.387 . S
C1373 H1376 0.950 . S
C1374 C1373 1.387 . S
C1374 C1377 1.387 . S
H1375 C1371 0.950 . S
H1376 C1373 0.950 . S
C1377 C1368 1.390 . S
C1377 H1370 0.950 . S
C1377 C1374 1.387 . S
C1378 C1379 1.387 . S
C1378 H1382 0.950 . S
C1378 C1387 1.390 . S
C1379 C1378 1.387 . S
C1379 C1381 1.387 . S
H1380 C1387 0.950 . S
C1381 C1379 1.387 . S
C1381 C1383 1.390 . S
C1381 H1385 0.950 . S
H1382 C1378 0.950 . S
C1383 C1381 1.390 . S
C1383 C1384 1.387 . S
C1383 H1386 0.950 . S
C1384 C1383 1.387 . S
C1384 C1387 1.387 . S
H1385 C1381 0.950 . S
H1386 C1383 0.950 . S
C1387 C1378 1.390 . S
C1387 H1380 0.950 . S
C1387 C1384 1.387 . S
C1388 C1389 1.387 . S
C1388 H1392 0.950 . S
C1388 C1397 1.390 . S
C1389 C1388 1.387 . S
C1389 C1391 1.387 . S
H1390 C1397 0.950 . S
C1391 C1389 1.387 . S
C1391 C1393 1.390 . S
C1391 H1395 0.950 . S
H1392 C1388 0.950 . S
C1393 C1391 1.390 . S
C1393 C1394 1.387 . S
C1393 H1396 0.950 . S
C1394 C1393 1.387 . S
C1394 C1397 1.387 . S
H1395 C1391 0.950 . S
H1396 C1393 0.950 . S
C1397 C1388 1.390 . S
C1397 H1390 0.950 . S
C1397 C1394 1.387 . S
C1398 C1399 1.387 . S
C1398 H1402 0.950 . S
C1398 C1407 1.390 . S
C1399 C1398 1.387 . S
C1399 C1401 1.387 . S
H1400 C1407 0.950 . S
C1401 C1399 1.387 . S
C1401 C1403 1.390 . S
C1401 H1405 0.950 . S
H1402 C1398 0.950 . S
C1403 C1401 1.390 . S
C1403 C1404 1.387 . S
C1403 H1406 0.950 . S
C1404 C1403 1.387 . S
C1404 C1407 1.387 . S
H1405 C1401 0.950 . S
H1406 C1403 0.950 . S
C1407 C1398 1.390 . S
C1407 H1400 0.950 . S
C1407 C1404 1.387 . S
C1408 C1409 1.387 1_545 S
C1408 H1412 0.950 . S
C1408 C1417 1.390 1_655 S
C1409 C1408 1.387 1_565 S
C1409 C1411 1.387 . S
H1410 C1417 0.950 . S
C1411 C1409 1.387 . S
C1411 C1413 1.390 1_655 S
C1411 H1415 0.950 . S
H1412 C1408 0.950 . S
C1413 C1411 1.390 1_455 S
C1413 C1414 1.387 1_565 S
C1413 H1416 0.950 . S
C1414 C1413 1.387 1_545 S
C1414 C1417 1.387 . S
H1415 C1411 0.950 . S
H1416 C1413 0.950 . S
C1417 C1408 1.390 1_455 S
C1417 H1410 0.950 . S
C1417 C1414 1.387 . S
C1418 C1419 1.387 . S
C1418 H1422 0.950 . S
C1418 C1427 1.390 . S
C1419 C1418 1.387 . S
C1419 C1421 1.387 . S
H1420 C1427 0.950 . S
C1421 C1419 1.387 . S
C1421 C1423 1.390 . S
C1421 H1425 0.950 . S
H1422 C1418 0.950 . S
C1423 C1421 1.390 . S
C1423 C1424 1.387 . S
C1423 H1426 0.950 . S
C1424 C1423 1.387 . S
C1424 C1427 1.387 . S
H1425 C1421 0.950 . S
H1426 C1423 0.950 . S
C1427 C1418 1.390 . S
C1427 H1420 0.950 . S
C1427 C1424 1.387 . S
C1428 C1429 1.387 . S
C1428 H1432 0.950 . S
C1428 C1437 1.390 1_655 S
C1429 C1428 1.387 . S
C1429 C1431 1.387 . S
H1430 C1437 0.950 . S
C1431 C1429 1.387 . S
C1431 C1433 1.390 1_655 S
C1431 H1435 0.950 . S
H1432 C1428 0.950 . S
C1433 C1431 1.390 1_455 S
C1433 C1434 1.387 . S
C1433 H1436 0.950 . S
C1434 C1433 1.387 . S
C1434 C1437 1.387 . S
H1435 C1431 0.950 . S
H1436 C1433 0.950 . S
C1437 C1428 1.390 1_455 S
C1437 H1430 0.950 . S
C1437 C1434 1.387 . S
C1438 C1439 1.387 1_565 S
C1438 H1442 0.950 . S
C1438 C1447 1.390 . S
C1439 C1438 1.387 1_545 S
C1439 C1441 1.387 . S
H1440 C1447 0.950 . S
C1441 C1439 1.387 . S
C1441 C1443 1.390 . S
C1441 H1445 0.950 . S
H1442 C1438 0.950 . S
C1443 C1441 1.390 . S
C1443 C1444 1.387 1_545 S
C1443 H1446 0.950 . S
C1444 C1443 1.387 1_565 S
C1444 C1447 1.387 . S
H1445 C1441 0.950 . S
H1446 C1443 0.950 . S
C1447 C1438 1.390 . S
C1447 H1440 0.950 . S
C1447 C1444 1.387 . S
C1448 C1449 1.387 . S
C1448 H1452 0.950 . S
C1448 C1457 1.390 . S
C1449 C1448 1.387 . S
C1449 C1451 1.387 . S
H1450 C1457 0.950 . S
C1451 C1449 1.387 . S
C1451 C1453 1.390 . S
C1451 H1455 0.950 . S
H1452 C1448 0.950 . S
C1453 C1451 1.390 . S
C1453 C1454 1.387 . S
C1453 H1456 0.950 . S
C1454 C1453 1.387 . S
C1454 C1457 1.387 . S
H1455 C1451 0.950 . S
H1456 C1453 0.950 . S
C1457 C1448 1.390 . S
C1457 H1450 0.950 . S
C1457 C1454 1.387 . S
C1458 C1459 1.387 . S
C1458 H1462 0.950 . S
C1458 C1467 1.390 1_655 S
C1459 C1458 1.387 . S
C1459 C1461 1.387 . S
H1460 C1467 0.950 . S
C1461 C1459 1.387 . S
C1461 C1463 1.390 1_655 S
C1461 H1465 0.950 . S
H1462 C1458 0.950 . S
C1463 C1461 1.390 1_455 S
C1463 C1464 1.387 . S
C1463 H1466 0.950 . S
C1464 C1463 1.387 . S
C1464 C1467 1.387 . S
H1465 C1461 0.950 . S
H1466 C1463 0.950 . S
C1467 C1458 1.390 1_455 S
C1467 H1460 0.950 . S
C1467 C1464 1.387 . S
C1468 C1469 1.387 . S
C1468 H1472 0.950 . S
C1468 C1477 1.390 . S
C1469 C1468 1.387 . S
C1469 C1471 1.387 1_545 S
H1470 C1477 0.950 . S
C1471 C1469 1.387 1_565 S
C1471 C1473 1.390 . S
C1471 H1475 0.950 . S
H1472 C1468 0.950 . S
C1473 C1471 1.390 . S
C1473 C1474 1.387 . S
C1473 H1476 0.950 . S
C1474 C1473 1.387 . S
C1474 C1477 1.387 1_565 S
H1475 C1471 0.950 . S
H1476 C1473 0.950 . S
C1477 C1468 1.390 . S
C1477 H1470 0.950 . S
C1477 C1474 1.387 1_545 S
C1478 C1479 1.387 . S
C1478 H1482 0.950 . S
C1478 C1487 1.390 1_454 S
C1479 C1478 1.387 . S
C1479 C1481 1.387 . S
H1480 C1487 0.950 . S
C1481 C1479 1.387 . S
C1481 C1483 1.390 1_454 S
C1481 H1485 0.950 . S
H1482 C1478 0.950 . S
C1483 C1481 1.390 1_656 S
C1483 C1484 1.387 . S
C1483 H1486 0.950 . S
C1484 C1483 1.387 . S
C1484 C1487 1.387 . S
H1485 C1481 0.950 . S
H1486 C1483 0.950 . S
C1487 C1478 1.390 1_656 S
C1487 H1480 0.950 . S
C1487 C1484 1.387 . S
C1488 C1489 1.387 1_554 S
C1488 H1492 0.950 . S
C1488 C1497 1.390 . S
C1489 C1488 1.387 1_556 S
C1489 C1491 1.387 . S
H1490 C1497 0.950 . S
C1491 C1489 1.387 . S
C1491 C1493 1.390 . S
C1491 H1495 0.950 . S
H1492 C1488 0.950 . S
C1493 C1491 1.390 . S
C1493 C1494 1.387 1_556 S
C1493 H1496 0.950 . S
C1494 C1493 1.387 1_554 S
C1494 C1497 1.387 . S
H1495 C1491 0.950 . S
H1496 C1493 0.950 . S
C1497 C1488 1.390 . S
C1497 H1490 0.950 . S
C1497 C1494 1.387 . S
C1498 C1499 1.387 . S
C1498 H1502 0.950 . S
C1498 C1507 1.390 . S
C1499 C1498 1.387 . S
C1499 C1501 1.387 . S
H1500 C1507 0.950 . S
C1501 C1499 1.387 . S
C1501 C1503 1.390 . S
C1501 H1505 0.950 . S
H1502 C1498 0.950 . S
C1503 C1501 1.390 . S
C1503 C1504 1.387 . S
C1503 H1506 0.950 . S
C1504 C1503 1.387 . S
C1504 C1507 1.387 . S
H1505 C1501 0.950 . S
H1506 C1503 0.950 . S
C1507 C1498 1.390 . S
C1507 H1500 0.950 . S
C1507 C1504 1.387 . S
C1508 C1509 1.387 . S
C1508 H1512 0.950 . S
C1508 C1517 1.390 . S
C1509 C1508 1.387 . S
C1509 C1511 1.387 1_556 S
H1510 C1517 0.950 . S
C1511 C1509 1.387 1_554 S
C1511 C1513 1.390 . S
C1511 H1515 0.950 . S
H1512 C1508 0.950 . S
C1513 C1511 1.390 . S
C1513 C1514 1.387 . S
C1513 H1516 0.950 . S
C1514 C1513 1.387 . S
C1514 C1517 1.387 1_554 S
H1515 C1511 0.950 . S
H1516 C1513 0.950 . S
C1517 C1508 1.390 . S
C1517 H1510 0.950 . S
C1517 C1514 1.387 1_556 S
C1518 C1519 1.387 . S
C1518 H1522 0.950 . S
C1518 C1527 1.390 . S
C1519 C1518 1.387 . S
C1519 C1521 1.387 . S
H1520 C1527 0.950 . S
C1521 C1519 1.387 . S
C1521 C1523 1.390 . S
C1521 H1525 0.950 . S
H1522 C1518 0.950 . S
C1523 C1521 1.390 . S
C1523 C1524 1.387 . S
C1523 H1526 0.950 . S
C1524 C1523 1.387 . S
C1524 C1527 1.387 . S
H1525 C1521 0.950 . S
H1526 C1523 0.950 . S
C1527 C1518 1.390 . S
C1527 H1520 0.950 . S
C1527 C1524 1.387 . S
C1528 C1529 1.387 1_554 S
C1528 H1532 0.950 . S
C1528 C1537 1.390 . S
C1529 C1528 1.387 1_556 S
C1529 C1531 1.387 1_565 S
H1530 C1537 0.950 . S
C1531 C1529 1.387 1_545 S
C1531 C1533 1.390 . S
C1531 H1535 0.950 . S
H1532 C1528 0.950 . S
C1533 C1531 1.390 . S
C1533 C1534 1.387 1_556 S
C1533 H1536 0.950 . S
C1534 C1533 1.387 1_554 S
C1534 C1537 1.387 1_545 S
H1535 C1531 0.950 . S
H1536 C1533 0.950 . S
C1537 C1528 1.390 . S
C1537 H1530 0.950 . S
C1537 C1534 1.387 1_565 S
C1538 C1539 1.387 . S
C1538 H1542 0.950 . S
C1538 C1547 1.390 . S
C1539 C1538 1.387 . S
C1539 C1541 1.387 . S
H1540 C1547 0.950 . S
C1541 C1539 1.387 . S
C1541 C1543 1.390 . S
C1541 H1545 0.950 . S
H1542 C1538 0.950 . S
C1543 C1541 1.390 . S
C1543 C1544 1.387 . S
C1543 H1546 0.950 . S
C1544 C1543 1.387 . S
C1544 C1547 1.387 . S
H1545 C1541 0.950 . S
H1546 C1543 0.950 . S
C1547 C1538 1.390 . S
C1547 H1540 0.950 . S
C1547 C1544 1.387 . S
C1548 C1549 1.387 . S
C1548 H1552 0.950 . S
C1548 C1557 1.390 . S
C1549 C1548 1.387 . S
C1549 C1551 1.387 . S
H1550 C1557 0.950 . S
C1551 C1549 1.387 . S
C1551 C1553 1.390 . S
C1551 H1555 0.950 . S
H1552 C1548 0.950 . S
C1553 C1551 1.390 . S
C1553 C1554 1.387 . S
C1553 H1556 0.950 . S
C1554 C1553 1.387 . S
C1554 C1557 1.387 . S
H1555 C1551 0.950 . S
H1556 C1553 0.950 . S
C1557 C1548 1.390 . S
C1557 H1550 0.950 . S
C1557 C1554 1.387 . S
C1558 C1559 1.387 . S
C1558 H1562 0.950 . S
C1558 C1567 1.390 . S
C1559 C1558 1.387 . S
C1559 C1561 1.387 . S
H1560 C1567 0.950 . S
C1561 C1559 1.387 . S
C1561 C1563 1.390 . S
C1561 H1565 0.950 . S
H1562 C1558 0.950 . S
C1563 C1561 1.390 . S
C1563 C1564 1.387 . S
C1563 H1566 0.950 . S
C1564 C1563 1.387 . S
C1564 C1567 1.387 . S
H1565 C1561 0.950 . S
H1566 C1563 0.950 . S
C1567 C1558 1.390 . S
C1567 H1560 0.950 . S
C1567 C1564 1.387 . S
C1568 C1569 1.387 1_545 S
C1568 H1572 0.950 . S
C1568 C1577 1.390 . S
C1569 C1568 1.387 1_565 S
C1569 C1571 1.387 . S
H1570 C1577 0.950 . S
C1571 C1569 1.387 . S
C1571 C1573 1.390 . S
C1571 H1575 0.950 . S
H1572 C1568 0.950 . S
C1573 C1571 1.390 . S
C1573 C1574 1.382 . S
C1573 H1576 0.950 . S
C1574 C1573 1.382 . S
C1574 C1577 1.392 1_565 S
H1575 C1571 0.950 . S
H1576 C1573 0.950 . S
C1577 C1568 1.390 . S
C1577 H1570 0.950 . S
C1577 C1574 1.392 1_545 S
C1578 C1579 1.387 . S
C1578 H1582 0.950 . S
C1578 C1587 1.390 . S
C1579 C1578 1.387 . S
C1579 C1581 1.387 . S
H1580 C1587 0.950 . S
C1581 C1579 1.387 . S
C1581 C1583 1.390 . S
C1581 H1585 0.950 . S
H1582 C1578 0.950 . S
C1583 C1581 1.390 . S
C1583 C1584 1.387 . S
C1583 H1586 0.950 . S
C1584 C1583 1.387 . S
C1584 C1587 1.387 . S
H1585 C1581 0.950 . S
H1586 C1583 0.950 . S
C1587 C1578 1.390 . S
C1587 H1580 0.950 . S
C1587 C1584 1.387 . S
C1588 C1589 1.387 . S
C1588 H1592 0.950 . S
C1588 C1597 1.390 . S
C1589 C1588 1.387 . S
C1589 C1591 1.387 . S
H1590 C1597 0.950 . S
C1591 C1589 1.387 . S
C1591 C1593 1.390 . S
C1591 H1595 0.950 . S
H1592 C1588 0.950 . S
C1593 C1591 1.390 . S
C1593 C1594 1.387 . S
C1593 H1596 0.950 . S
C1594 C1593 1.387 . S
C1594 C1597 1.387 . S
H1595 C1591 0.950 . S
H1596 C1593 0.950 . S
C1597 C1588 1.390 . S
C1597 H1590 0.950 . S
C1597 C1594 1.387 . S
C1598 C1599 1.384 . S
C1598 H1602 0.950 . S
C1598 C1607 1.390 . S
C1599 C1598 1.384 . S
C1599 C1601 1.390 1_565 S
H1600 C1607 0.950 . S
C1601 C1599 1.390 1_545 S
C1601 C1603 1.390 . S
C1601 H1605 0.950 . S
H1602 C1598 0.950 . S
C1603 C1601 1.390 . S
C1603 C1604 1.387 1_545 S
C1603 H1606 0.950 . S
C1604 C1603 1.387 1_565 S
C1604 C1607 1.387 . S
H1605 C1601 0.950 . S
H1606 C1603 0.950 . S
C1607 C1598 1.390 . S
C1607 H1600 0.950 . S
C1607 C1604 1.387 . S
C1608 C1609 1.384 . S
C1608 H1612 0.950 . S
C1608 C1617 1.390 . S
C1609 C1608 1.384 . S
C1609 C1611 1.392 1_565 S
H1610 C1617 0.950 . S
C1611 C1609 1.392 1_545 S
C1611 C1613 1.390 . S
C1611 H1615 0.950 . S
H1612 C1608 0.950 . S
C1613 C1611 1.390 . S
C1613 C1614 1.387 . S
C1613 H1616 0.950 . S
C1614 C1613 1.387 . S
C1614 C1617 1.387 1_545 S
H1615 C1611 0.950 . S
H1616 C1613 0.950 . S
C1617 C1608 1.390 . S
C1617 H1610 0.950 . S
C1617 C1614 1.387 1_565 S
C1618 C1619 1.387 . S
C1618 H1622 0.950 . S
C1618 C1627 1.390 . S
C1619 C1618 1.387 . S
C1619 C1621 1.387 . S
H1620 C1627 0.950 . S
C1621 C1619 1.387 . S
C1621 C1623 1.390 . S
C1621 H1625 0.950 . S
H1622 C1618 0.950 . S
C1623 C1621 1.390 . S
C1623 C1624 1.387 . S
C1623 H1626 0.950 . S
C1624 C1623 1.387 . S
C1624 C1627 1.387 . S
H1625 C1621 0.950 . S
H1626 C1623 0.950 . S
C1627 C1618 1.390 . S
C1627 H1620 0.950 . S
C1627 C1624 1.387 . S
C1628 C1629 1.387 . S
C1628 H1632 0.950 . S
C1628 C1637 1.390 . S
C1629 C1628 1.387 . S
C1629 C1631 1.387 . S
H1630 C1637 0.950 . S
C1631 C1629 1.387 . S
C1631 C1633 1.390 . S
C1631 H1635 0.950 . S
H1632 C1628 0.950 . S
C1633 C1631 1.390 . S
C1633 C1634 1.387 . S
C1633 H1636 0.950 . S
C1634 C1633 1.387 . S
C1634 C1637 1.387 . S
H1635 C1631 0.950 . S
H1636 C1633 0.950 . S
C1637 C1628 1.390 . S
C1637 H1630 0.950 . S
C1637 C1634 1.387 . S
C1638 C1639 1.393 1_545 S
C1638 H1642 0.950 . S
C1638 C1647 1.390 . S
C1639 C1638 1.393 1_565 S
C1639 C1641 1.383 . S
H1640 C1647 0.950 . S
C1641 C1639 1.383 . S
C1641 C1643 1.390 . S
C1641 H1645 0.950 . S
H1642 C1638 0.950 . S
C1643 C1641 1.390 . S
C1643 C1644 1.387 1_565 S
C1643 H1646 0.950 . S
C1644 C1643 1.387 1_545 S
C1644 C1647 1.387 . S
H1645 C1641 0.950 . S
H1646 C1643 0.950 . S
C1647 C1638 1.390 . S
C1647 H1640 0.950 . S
C1647 C1644 1.387 . S
C1648 C1649 1.387 . S
C1648 H1652 0.950 . S
C1648 C1657 1.390 . S
C1649 C1648 1.387 . S
C1649 C1651 1.387 . S
H1650 C1657 0.950 . S
C1651 C1649 1.387 . S
C1651 C1653 1.390 . S
C1651 H1655 0.950 . S
H1652 C1648 0.950 . S
C1653 C1651 1.390 . S
C1653 C1654 1.387 . S
C1653 H1656 0.950 . S
C1654 C1653 1.387 . S
C1654 C1657 1.387 . S
H1655 C1651 0.950 . S
H1656 C1653 0.950 . S
C1657 C1648 1.390 . S
C1657 H1650 0.950 . S
C1657 C1654 1.387 . S
C1658 C1659 1.387 . S
C1658 H1662 0.950 . S
C1658 C1667 1.390 . S
C1659 C1658 1.387 . S
C1659 C1661 1.387 . S
H1660 C1667 0.950 . S
C1661 C1659 1.387 . S
C1661 C1663 1.390 . S
C1661 H1665 0.950 . S
H1662 C1658 0.950 . S
C1663 C1661 1.390 . S
C1663 C1664 1.387 . S
C1663 H1666 0.950 . S
C1664 C1663 1.387 . S
C1664 C1667 1.387 . S
H1665 C1661 0.950 . S
H1666 C1663 0.950 . S
C1667 C1658 1.390 . S
C1667 H1660 0.950 . S
C1667 C1664 1.387 . S
C1668 C1669 1.387 . S
C1668 H1672 0.950 . S
C1668 C1677 1.390 . S
C1669 C1668 1.387 . S
C1669 C1671 1.387 . S
H1670 C1677 0.950 . S
C1671 C1669 1.387 . S
C1671 C1673 1.390 . S
C1671 H1675 0.950 . S
H1672 C1668 0.950 . S
C1673 C1671 1.390 . S
C1673 C1674 1.387 . S
C1673 H1676 0.950 . S
C1674 C1673 1.387 . S
C1674 C1677 1.387 . S
H1675 C1671 0.950 . S
H1676 C1673 0.950 . S
C1677 C1668 1.390 . S
C1677 H1670 0.950 . S
C1677 C1674 1.387 . S
C1678 C1679 1.387 . S
C1678 H1682 0.950 . S
C1678 C1687 1.390 . S
C1679 C1678 1.387 . S
C1679 C1681 1.387 . S
H1680 C1687 0.950 . S
C1681 C1679 1.387 . S
C1681 C1683 1.390 . S
C1681 H1685 0.950 . S
H1682 C1678 0.950 . S
C1683 C1681 1.390 . S
C1683 C1684 1.387 . S
C1683 H1686 0.950 . S
C1684 C1683 1.387 . S
C1684 C1687 1.387 . S
H1685 C1681 0.950 . S
H1686 C1683 0.950 . S
C1687 C1678 1.390 . S
C1687 H1680 0.950 . S
C1687 C1684 1.387 . S
C1688 C1689 1.387 . S
C1688 H1692 0.950 . S
C1688 C1697 1.390 . S
C1689 C1688 1.387 . S
C1689 C1691 1.387 . S
H1690 C1697 0.950 . S
C1691 C1689 1.387 . S
C1691 C1693 1.390 . S
C1691 H1695 0.950 . S
H1692 C1688 0.950 . S
C1693 C1691 1.390 . S
C1693 C1694 1.387 . S
C1693 H1696 0.950 . S
C1694 C1693 1.387 . S
C1694 C1697 1.387 . S
H1695 C1691 0.950 . S
H1696 C1693 0.950 . S
C1697 C1688 1.390 . S
C1697 H1690 0.950 . S
C1697 C1694 1.387 . S
C1698 C1699 1.387 . S
C1698 H1702 0.950 . S
C1698 C1707 1.390 . S
C1699 C1698 1.387 . S
C1699 C1701 1.387 . S
H1700 C1707 0.950 . S
C1701 C1699 1.387 . S
C1701 C1703 1.390 . S
C1701 H1705 0.950 . S
H1702 C1698 0.950 . S
C1703 C1701 1.390 . S
C1703 C1704 1.387 . S
C1703 H1706 0.950 . S
C1704 C1703 1.387 . S
C1704 C1707 1.387 . S
H1705 C1701 0.950 . S
H1706 C1703 0.950 . S
C1707 C1698 1.390 . S
C1707 H1700 0.950 . S
C1707 C1704 1.387 . S
C1708 C1709 1.387 . S
C1708 H1712 0.950 . S
C1708 C1717 1.390 . S
C1709 C1708 1.387 . S
C1709 C1711 1.387 . S
H1710 C1717 0.950 . S
C1711 C1709 1.387 . S
C1711 C1713 1.390 . S
C1711 H1715 0.950 . S
H1712 C1708 0.950 . S
C1713 C1711 1.390 . S
C1713 C1714 1.387 . S
C1713 H1716 0.950 . S
C1714 C1713 1.387 . S
C1714 C1717 1.387 . S
H1715 C1711 0.950 . S
H1716 C1713 0.950 . S
C1717 C1708 1.390 . S
C1717 H1710 0.950 . S
C1717 C1714 1.387 . S
C1718 C1719 1.387 . S
C1718 H1722 0.950 . S
C1718 C1727 1.390 . S
C1719 C1718 1.387 . S
C1719 C1721 1.387 . S
H1720 C1727 0.950 . S
C1721 C1719 1.387 . S
C1721 C1723 1.390 . S
C1721 H1725 0.950 . S
H1722 C1718 0.950 . S
C1723 C1721 1.390 . S
C1723 C1724 1.387 . S
C1723 H1726 0.950 . S
C1724 C1723 1.387 . S
C1724 C1727 1.387 . S
H1725 C1721 0.950 . S
H1726 C1723 0.950 . S
C1727 C1718 1.390 . S
C1727 H1720 0.950 . S
C1727 C1724 1.387 . S
C1728 C1729 1.387 1_545 S
C1728 H1732 0.950 . S
C1728 C1737 1.390 . S
C1729 C1728 1.387 1_565 S
C1729 C1731 1.387 . S
H1730 C1737 0.950 . S
C1731 C1729 1.387 . S
C1731 C1733 1.390 . S
C1731 H1735 0.950 . S
H1732 C1728 0.950 . S
C1733 C1731 1.390 . S
C1733 C1734 1.389 1_565 S
C1733 H1736 0.950 . S
C1734 C1733 1.389 1_545 S
C1734 C1737 1.386 . S
H1735 C1731 0.950 . S
H1736 C1733 0.950 . S
C1737 C1728 1.390 . S
C1737 H1730 0.950 . S
C1737 C1734 1.386 . S
C1738 C1739 1.387 . S
C1738 H1742 0.950 . S
C1738 C1747 1.390 . S
C1739 C1738 1.387 . S
C1739 C1741 1.387 . S
H1740 C1747 0.950 . S
C1741 C1739 1.387 . S
C1741 C1743 1.390 . S
C1741 H1745 0.950 . S
H1742 C1738 0.950 . S
C1743 C1741 1.390 . S
C1743 C1744 1.387 . S
C1743 H1746 0.950 . S
C1744 C1743 1.387 . S
C1744 C1747 1.387 . S
H1745 C1741 0.950 . S
H1746 C1743 0.950 . S
C1747 C1738 1.390 . S
C1747 H1740 0.950 . S
C1747 C1744 1.387 . S
C1748 C1749 1.387 . S
C1748 H1752 0.950 . S
C1748 C1757 1.390 . S
C1749 C1748 1.387 . S
C1749 C1751 1.387 . S
H1750 C1757 0.950 . S
C1751 C1749 1.387 . S
C1751 C1753 1.390 . S
C1751 H1755 0.950 . S
H1752 C1748 0.950 . S
C1753 C1751 1.390 . S
C1753 C1754 1.387 . S
C1753 H1756 0.950 . S
C1754 C1753 1.387 . S
C1754 C1757 1.387 . S
H1755 C1751 0.950 . S
H1756 C1753 0.950 . S
C1757 C1748 1.390 . S
C1757 H1750 0.950 . S
C1757 C1754 1.387 . S
C1758 C1759 1.387 . S
C1758 H1762 0.950 . S
C1758 C1767 1.390 . S
C1759 C1758 1.387 . S
C1759 C1761 1.389 1_545 S
H1760 C1767 0.950 . S
C1761 C1759 1.389 1_565 S
C1761 C1763 1.390 . S
C1761 H1765 0.950 . S
H1762 C1758 0.950 . S
C1763 C1761 1.390 . S
C1763 C1764 1.387 . S
C1763 H1766 0.950 . S
C1764 C1763 1.387 . S
C1764 C1767 1.387 1_565 S
H1765 C1761 0.950 . S
H1766 C1763 0.950 . S
C1767 C1758 1.390 . S
C1767 H1760 0.950 . S
C1767 C1764 1.387 1_545 S
C1768 C1769 1.393 1_545 S
C1768 H1772 0.950 . S
C1768 C1777 1.390 . S
C1769 C1768 1.393 1_565 S
C1769 C1771 1.384 . S
H1770 C1777 0.950 . S
C1771 C1769 1.384 . S
C1771 C1773 1.390 . S
C1771 H1775 0.950 . S
H1772 C1768 0.950 . S
C1773 C1771 1.390 . S
C1773 C1774 1.387 1_565 S
C1773 H1776 0.950 . S
C1774 C1773 1.387 1_545 S
C1774 C1777 1.387 . S
H1775 C1771 0.950 . S
H1776 C1773 0.950 . S
C1777 C1768 1.390 . S
C1777 H1770 0.950 . S
C1777 C1774 1.387 . S
C1778 C1779 1.387 . S
C1778 H1782 0.950 . S
C1778 C1787 1.390 . S
C1779 C1778 1.387 . S
C1779 C1781 1.387 . S
H1780 C1787 0.950 . S
C1781 C1779 1.387 . S
C1781 C1783 1.390 . S
C1781 H1785 0.950 . S
H1782 C1778 0.950 . S
C1783 C1781 1.390 . S
C1783 C1784 1.387 . S
C1783 H1786 0.950 . S
C1784 C1783 1.387 . S
C1784 C1787 1.387 . S
H1785 C1781 0.950 . S
H1786 C1783 0.950 . S
C1787 C1778 1.390 . S
C1787 H1780 0.950 . S
C1787 C1784 1.387 . S
C1788 C1789 1.387 . S
C1788 H1792 0.950 . S
C1788 C1797 1.390 . S
C1789 C1788 1.387 . S
C1789 C1791 1.387 . S
H1790 C1797 0.950 . S
C1791 C1789 1.387 . S
C1791 C1793 1.390 . S
C1791 H1795 0.950 . S
H1792 C1788 0.950 . S
C1793 C1791 1.390 . S
C1793 C1794 1.387 . S
C1793 H1796 0.950 . S
C1794 C1793 1.387 . S
C1794 C1797 1.387 . S
H1795 C1791 0.950 . S
H1796 C1793 0.950 . S
C1797 C1788 1.390 . S
C1797 H1790 0.950 . S
C1797 C1794 1.387 . S
C1798 C1799 1.389 1_545 S
C1798 H1802 0.950 . S
C1798 C1807 1.390 . S
C1799 C1798 1.389 1_565 S
C1799 C1801 1.387 . S
H1800 C1807 0.950 . S
C1801 C1799 1.387 . S
C1801 C1803 1.390 . S
C1801 H1805 0.950 . S
H1802 C1798 0.950 . S
C1803 C1801 1.390 . S
C1803 C1804 1.387 1_565 S
C1803 H1806 0.950 . S
C1804 C1803 1.387 1_545 S
C1804 C1807 1.387 . S
H1805 C1801 0.950 . S
H1806 C1803 0.950 . S
C1807 C1798 1.390 . S
C1807 H1800 0.950 . S
C1807 C1804 1.387 . S
C1808 C1809 1.387 . S
C1808 H1812 0.950 . S
C1808 C1817 1.390 . S
C1809 C1808 1.387 . S
C1809 C1811 1.387 . S
H1810 C1817 0.950 . S
C1811 C1809 1.387 . S
C1811 C1813 1.390 . S
C1811 H1815 0.950 . S
H1812 C1808 0.950 . S
C1813 C1811 1.390 . S
C1813 C1814 1.387 . S
C1813 H1816 0.950 . S
C1814 C1813 1.387 . S
C1814 C1817 1.387 . S
H1815 C1811 0.950 . S
H1816 C1813 0.950 . S
C1817 C1808 1.390 . S
C1817 H1810 0.950 . S
C1817 C1814 1.387 . S
C1818 C1819 1.387 . S
C1818 H1822 0.950 . S
C1818 C1827 1.390 . S
C1819 C1818 1.387 . S
C1819 C1821 1.387 . S
H1820 C1827 0.950 . S
C1821 C1819 1.387 . S
C1821 C1823 1.390 . S
C1821 H1825 0.950 . S
H1822 C1818 0.950 . S
C1823 C1821 1.390 . S
C1823 C1824 1.387 . S
C1823 H1826 0.950 . S
C1824 C1823 1.387 . S
C1824 C1827 1.387 . S
H1825 C1821 0.950 . S
H1826 C1823 0.950 . S
C1827 C1818 1.390 . S
C1827 H1820 0.950 . S
C1827 C1824 1.387 . S
C1828 C1829 1.387 . S
C1828 H1832 0.950 . S
C1828 C1837 1.390 . S
C1829 C1828 1.387 . S
C1829 C1831 1.387 . S
H1830 C1837 0.950 . S
C1831 C1829 1.387 . S
C1831 C1833 1.390 . S
C1831 H1835 0.950 . S
H1832 C1828 0.950 . S
C1833 C1831 1.390 . S
C1833 C1834 1.387 . S
C1833 H1836 0.950 . S
C1834 C1833 1.387 . S
C1834 C1837 1.387 . S
H1835 C1831 0.950 . S
H1836 C1833 0.950 . S
C1837 C1828 1.390 . S
C1837 H1830 0.950 . S
C1837 C1834 1.387 . S
C1838 C1839 1.387 . S
C1838 H1842 0.950 . S
C1838 C1847 1.390 . S
C1839 C1838 1.387 . S
C1839 C1841 1.387 . S
H1840 C1847 0.950 . S
C1841 C1839 1.387 . S
C1841 C1843 1.390 . S
C1841 H1845 0.950 . S
H1842 C1838 0.950 . S
C1843 C1841 1.390 . S
C1843 C1844 1.387 . S
C1843 H1846 0.950 . S
C1844 C1843 1.387 . S
C1844 C1847 1.387 . S
H1845 C1841 0.950 . S
H1846 C1843 0.950 . S
C1847 C1838 1.390 . S
C1847 H1840 0.950 . S
C1847 C1844 1.387 . S
C1848 C1849 1.387 . S
C1848 H1852 0.950 . S
C1848 C1857 1.390 . S
C1849 C1848 1.387 . S
C1849 C1851 1.387 . S
H1850 C1857 0.950 . S
C1851 C1849 1.387 . S
C1851 C1853 1.390 . S
C1851 H1855 0.950 . S
H1852 C1848 0.950 . S
C1853 C1851 1.390 . S
C1853 C1854 1.387 . S
C1853 H1856 0.950 . S
C1854 C1853 1.387 . S
C1854 C1857 1.387 . S
H1855 C1851 0.950 . S
H1856 C1853 0.950 . S
C1857 C1848 1.390 . S
C1857 H1850 0.950 . S
C1857 C1854 1.387 . S
C1858 C1859 1.387 . S
C1858 H1862 0.950 . S
C1858 C1867 1.390 . S
C1859 C1858 1.387 . S
C1859 C1861 1.387 . S
H1860 C1867 0.950 . S
C1861 C1859 1.387 . S
C1861 C1863 1.390 . S
C1861 H1865 0.950 . S
H1862 C1858 0.950 . S
C1863 C1861 1.390 . S
C1863 C1864 1.387 . S
C1863 H1866 0.950 . S
C1864 C1863 1.387 . S
C1864 C1867 1.387 . S
H1865 C1861 0.950 . S
H1866 C1863 0.950 . S
C1867 C1858 1.390 . S
C1867 H1860 0.950 . S
C1867 C1864 1.387 . S
C1868 C1869 1.387 . S
C1868 H1872 0.950 . S
C1868 C1877 1.390 . S
C1869 C1868 1.387 . S
C1869 C1871 1.387 . S
H1870 C1877 0.950 . S
C1871 C1869 1.387 . S
C1871 C1873 1.390 . S
C1871 H1875 0.950 . S
H1872 C1868 0.950 . S
C1873 C1871 1.390 . S
C1873 C1874 1.387 . S
C1873 H1876 0.950 . S
C1874 C1873 1.387 . S
C1874 C1877 1.387 . S
H1875 C1871 0.950 . S
H1876 C1873 0.950 . S
C1877 C1868 1.390 . S
C1877 H1870 0.950 . S
C1877 C1874 1.387 . S
C1878 C1879 1.387 . S
C1878 H1882 0.950 . S
C1878 C1887 1.390 . S
C1879 C1878 1.387 . S
C1879 C1881 1.387 . S
H1880 C1887 0.950 . S
C1881 C1879 1.387 . S
C1881 C1883 1.390 . S
C1881 H1885 0.950 . S
H1882 C1878 0.950 . S
C1883 C1881 1.390 . S
C1883 C1884 1.387 . S
C1883 H1886 0.950 . S
C1884 C1883 1.387 . S
C1884 C1887 1.387 . S
H1885 C1881 0.950 . S
H1886 C1883 0.950 . S
C1887 C1878 1.390 . S
C1887 H1880 0.950 . S
C1887 C1884 1.387 . S
C1089 C33 1.483 . S
C1094 C67 1.483 . S
C1099 C135 1.482 . S
C1104 C101 1.482 . S
C1109 C203 1.482 . S
C1114 C169 1.482 . S
C1119 C271 1.482 . S
C1124 C237 1.482 . S
C1129 C339 1.482 . S
C1134 C305 1.482 . S
C1139 C407 1.483 . S
C1144 C373 1.483 . S
C1149 C441 1.482 . S
C1154 C475 1.482 . S
C1159 C543 1.482 . S
C1164 C509 1.482 . S
C1169 C577 1.482 . S
C1174 C611 1.482 . S
C1179 C645 1.482 . S
C1184 C679 1.482 . S
C1189 C747 1.482 . S
C1194 C713 1.482 . S
C1199 C781 1.483 . S
C1204 C815 1.483 . S
C1209 C849 1.483 . S
C1214 C883 1.483 . S
C1219 C917 1.483 . S
C1224 C951 1.483 . S
C1229 C985 1.483 . S
C1234 C1019 1.483 . S
C1239 C1053 1.483 . S
C1244 C1087 1.483 . S
C1249 C9 0.734 . S
C1254 C655 0.734 . S
C1259 C621 0.741 . S
C1264 C43 0.741 . S
C1269 C587 0.741 . S
C1274 C77 0.741 . S
C1279 C111 0.734 . S
C1284 C553 0.734 . S
C1289 C791 0.734 . S
C1294 C145 0.734 . S
C1299 C757 0.741 . S
C1304 C179 0.741 . S
C1309 C723 0.734 . S
C1314 C213 0.734 . S
C1319 C689 0.734 . S
C1324 C247 0.734 . S
C1329 C281 0.741 . S
C1334 C927 0.741 . S
C1339 C893 0.734 . S
C1344 C315 0.734 . S
C1349 C349 0.734 . S
C1354 C859 0.734 . S
C1359 C825 0.741 . S
C1364 C383 0.741 . S
C1369 C417 0.741 . S
C1374 C1063 0.741 . S
C1379 C451 0.741 . S
C1384 C1029 0.741 . S
C1389 C995 0.734 . S
C1394 C485 0.734 . S
C1399 C519 0.741 . S
C1404 C961 0.741 . S
C1409 C141 0.780 . S
C1414 C5 0.780 . S
C1419 C991 0.772 . S
C1424 C39 0.772 . S
C1429 C481 0.780 . S
C1434 C73 0.780 . S
C1439 C107 0.772 . S
C1444 C787 0.772 . S
C1449 C175 0.774 . S
C1454 C855 0.774 . S
C1459 C209 0.781 . S
C1464 C345 0.781 . S
C1469 C651 0.780 . S
C1474 C243 0.780 . S
C1479 C277 0.774 1_554 S
C1484 C413 0.774 1_556 S
C1489 C719 0.766 1_556 S
C1494 C311 0.766 1_554 S
C1499 C1059 0.780 . S
C1504 C379 0.780 . S
C1509 C447 0.774 1_556 S
C1514 C583 0.774 1_554 S
C1519 C923 0.772 . S
C1524 C515 0.772 . S
C1529 C685 0.766 1_556 S
C1534 C549 0.766 1_554 S
C1539 C1025 0.781 . S
C1544 C617 0.781 . S
C1549 C753 0.772 . S
C1554 C889 0.772 . S
C1559 C957 0.779 . S
C1564 C821 0.779 . S
C1569 C784 2.394 . S
C1574 C20 2.426 1_565 S
C1579 C478 2.396 . S
C1584 C54 2.425 1_655 S
C1589 C988 2.394 . S
C1594 C88 2.424 . S
C1599 C122 2.426 1_665 S
C1604 C138 2.396 . S
C1609 C156 2.424 . S
C1614 C648 2.396 . S
C1619 C342 2.394 . S
C1624 C190 2.424 1_455 S
C1629 C224 2.425 . S
C1634 C852 2.395 . S
C1639 C258 2.423 1_455 S
C1644 C2 2.394 . S
C1649 C292 2.425 . S
C1654 C1056 2.396 . S
C1659 C206 2.394 . S
C1664 C326 2.424 1_655 S
C1669 C360 2.425 . S
C1674 C716 2.395 . S
C1679 C394 2.424 1_655 S
C1684 C410 2.394 . S
C1689 C428 2.425 . S
C1694 C920 2.396 . S
C1699 C70 2.394 . S
C1704 C462 2.424 1_455 S
C1709 C580 2.394 . S
C1714 C496 2.424 . S
C1719 C530 2.425 1_455 S
C1724 C274 2.394 . S
C1729 C240 2.394 . S
C1734 C564 2.424 . S
C1739 C1022 2.394 . S
C1744 C598 2.424 . S
C1749 C444 2.396 . S
C1754 C632 2.425 . S
C1759 C666 2.424 . S
C1764 C682 2.395 . S
C1769 C700 2.423 . S
C1774 C104 2.394 . S
C1779 C886 2.396 . S
C1784 C734 2.425 . S
C1789 C768 2.424 . S
C1794 C308 2.394 . S
C1799 C802 2.424 . S
C1804 C546 2.395 . S
C1809 C512 2.396 . S
C1814 C836 2.425 . S
C1819 C870 2.425 . S
C1824 C750 2.396 . S
C1829 C904 2.425 . S
C1834 C172 2.396 . S
C1839 C954 2.394 . S
C1844 C938 2.425 . S
C1849 C972 2.425 . S
C1854 C376 2.396 . S
C1859 C1006 2.425 . S
C1864 C614 2.396 . S
C1869 C36 2.394 . S
C1874 C1040 2.424 . S
C1879 C818 2.396 . S
C1884 C1074 2.425 . S
