# Generated by pormake.
# Topology smm, (6)-cn, num edge types: 1
# Building blocks:
#     Node 0, Type 0, BuildingBlock: BETFAJ_clean_sbu_0, # of connection points: 6
#     Node 1, Type 0, BuildingBlock: BETFAJ_clean_sbu_0, # of connection points: 6
#     Node 2, Type 0, BuildingBlock: BETFAJ_clean_sbu_0, # of connection points: 6
#     Node 3, Type 0, BuildingBlock: BETFAJ_clean_sbu_0, # of connection points: 6
#     Node 4, Type 0, BuildingBlock: BETFAJ_clean_sbu_0, # of connection points: 6
#     Node 5, Type 0, BuildingBlock: BETFAJ_clean_sbu_0, # of connection points: 6
#     Node 6, Type 0, BuildingBlock: BETFAJ_clean_sbu_0, # of connection points: 6
#     Node 7, Type 0, BuildingBlock: BETFAJ_clean_sbu_0, # of connection points: 6
#     Node 8, Type 0, BuildingBlock: BETFAJ_clean_sbu_0, # of connection points: 6
#     Edge 9, Type (0, 0), BuildingBlock: MIFKUJ_clean_linker_0, # of connection points: 2
#     Edge 10, Type (0, 0), BuildingBlock: MIFKUJ_clean_linker_0, # of connection points: 2
#     Edge 11, Type (0, 0), BuildingBlock: MIFKUJ_clean_linker_0, # of connection points: 2
#     Edge 12, Type (0, 0), BuildingBlock: MIFKUJ_clean_linker_0, # of connection points: 2
#     Edge 13, Type (0, 0), BuildingBlock: MIFKUJ_clean_linker_0, # of connection points: 2
#     Edge 14, Type (0, 0), BuildingBlock: MIFKUJ_clean_linker_0, # of connection points: 2
#     Edge 15, Type (0, 0), BuildingBlock: MIFKUJ_clean_linker_0, # of connection points: 2
#     Edge 16, Type (0, 0), BuildingBlock: MIFKUJ_clean_linker_0, # of connection points: 2
#     Edge 17, Type (0, 0), BuildingBlock: MIFKUJ_clean_linker_0, # of connection points: 2
#     Edge 18, Type (0, 0), BuildingBlock: MIFKUJ_clean_linker_0, # of connection points: 2
#     Edge 19, Type (0, 0), BuildingBlock: MIFKUJ_clean_linker_0, # of connection points: 2
#     Edge 20, Type (0, 0), BuildingBlock: MIFKUJ_clean_linker_0, # of connection points: 2
#     Edge 21, Type (0, 0), BuildingBlock: MIFKUJ_clean_linker_0, # of connection points: 2
#     Edge 22, Type (0, 0), BuildingBlock: MIFKUJ_clean_linker_0, # of connection points: 2
#     Edge 23, Type (0, 0), BuildingBlock: MIFKUJ_clean_linker_0, # of connection points: 2
#     Edge 24, Type (0, 0), BuildingBlock: MIFKUJ_clean_linker_0, # of connection points: 2
#     Edge 25, Type (0, 0), BuildingBlock: MIFKUJ_clean_linker_0, # of connection points: 2
#     Edge 26, Type (0, 0), BuildingBlock: MIFKUJ_clean_linker_0, # of connection points: 2
#     Edge 27, Type (0, 0), BuildingBlock: MIFKUJ_clean_linker_0, # of connection points: 2
#     Edge 28, Type (0, 0), BuildingBlock: MIFKUJ_clean_linker_0, # of connection points: 2
#     Edge 29, Type (0, 0), BuildingBlock: MIFKUJ_clean_linker_0, # of connection points: 2
#     Edge 30, Type (0, 0), BuildingBlock: MIFKUJ_clean_linker_0, # of connection points: 2
#     Edge 31, Type (0, 0), BuildingBlock: MIFKUJ_clean_linker_0, # of connection points: 2
#     Edge 32, Type (0, 0), BuildingBlock: MIFKUJ_clean_linker_0, # of connection points: 2
#     Edge 33, Type (0, 0), BuildingBlock: MIFKUJ_clean_linker_0, # of connection points: 2
#     Edge 34, Type (0, 0), BuildingBlock: MIFKUJ_clean_linker_0, # of connection points: 2
#     Edge 35, Type (0, 0), BuildingBlock: MIFKUJ_clean_linker_0, # of connection points: 2
# Relax obj value: 0.053
# Max RMSD: 0.130
# Mean RMSD: 0.130
data_MOF--net-smm--node1-BETFAJ_clean_sbu_0--edge1-MIFKUJ_clean_linker_0
_symmetry_space_group_name_H-M    P1
_symmetry_Int_Tables_number       1
_symmetry_cell_setting            triclinic
loop_
_symmetry_equiv_pos_as_xyz
'x, y, z'
_cell_length_a     86.708427
_cell_length_b     86.773616
_cell_length_c     18.561507
_cell_angle_alpha  90.087043
_cell_angle_beta   89.901104
_cell_angle_gamma 120.0712
loop_
_atom_site_label
_atom_site_type_symbol
_atom_site_fract_x
_atom_site_fract_y
_atom_site_fract_z
_atom_type_partial_charge
Sm0 Sm 0.05314 0.21495 0.97982 0.0
Sm1 Sm 1.02001 0.17907 0.03212 0.0
C2 C 0.07528 0.24373 0.90441 0.0
C3 C 0.08215 0.26299 0.8915 0.0
C4 C 0.07085 0.27007 0.88079 0.0
C5 C 0.07801 0.28824 0.86484 0.0
C6 C 0.0966 0.29974 0.85947 0.0
C7 C 0.10777 0.29251 0.87046 0.0
C8 C 0.10063 0.27442 0.88616 0.0
C9 C 0.05055 0.20992 0.12564 0.0
C10 C 1.01527 0.21404 0.0244 0.0
C11 C 0.99676 0.1485 0.09456 0.0
C12 C 0.98974 0.12912 0.08712 0.0
C13 C 0.9775 0.11742 0.13794 0.0
C14 C 0.96969 0.09894 0.12949 0.0
C15 C 0.97391 0.09168 0.06979 0.0
C16 C 0.98654 0.10353 0.0197 0.0
C17 C 0.99434 0.12205 0.02822 0.0
C18 C 1.02373 0.18431 0.88598 0.0
C19 C 0.05896 0.18103 0.0049 0.0
O20 O 0.05908 0.23221 0.88319 0.0
O21 O 0.07975 0.23919 0.96474 0.0
O22 O 0.03772 0.20568 0.08344 0.0
O23 O 0.06575 0.21889 0.09257 0.0
O24 O 0.03033 0.2219 -0.01341 0.0
O25 O 1.00974 0.19845 0.05619 0.0
O26 O 1.01325 0.15833 0.11649 0.0
O27 O 0.99259 0.15606 0.04321 0.0
O28 O 0.03604 0.18813 0.93009 0.0
O29 O 1.00833 0.17607 0.91752 0.0
O30 O 0.04331 0.17316 0.03811 0.0
O31 O 0.06476 0.19619 0.96928 0.0
H32 H 0.05653 0.26156 0.88423 0.0
H33 H 0.06898 0.29332 0.85729 0.0
H34 H 0.12209 0.30077 0.86555 0.0
H35 H 0.10963 0.26928 0.89325 0.0
H36 H 0.97378 0.12258 0.18386 0.0
H37 H 0.96032 0.09034 0.1699 0.0
H38 H 0.99004 0.0985 0.97276 0.0
H39 H 1.00372 0.13084 -0.01182 0.0
Sm40 Sm 0.8519 0.85842 0.97356 0.0
Sm41 Sm 0.88974 0.86464 0.02185 0.0
C42 C 0.82309 0.85404 0.90426 0.0
C43 C 0.80375 0.84142 0.89205 0.0
C44 C 0.79818 0.83124 0.82842 0.0
C45 C 0.78005 0.82045 0.81255 0.0
C46 C 0.76689 0.8196 0.85957 0.0
C47 C 0.77244 0.82954 0.92396 0.0
C48 C 0.79064 0.84037 0.93987 0.0
C49 C 0.85629 0.8573 0.11917 0.0
C50 C 0.85457 0.82379 0.02031 0.0
C51 C 0.9196 0.86798 0.07595 0.0
C52 C 0.93915 0.87966 0.06695 0.0
C53 C 0.94724 0.89833 0.06552 0.0
C54 C 0.96578 0.90904 0.05811 0.0
C55 C 0.97668 0.90134 0.05142 0.0
C56 C 0.96848 0.88263 0.0524 0.0
C57 C 0.94997 0.87196 0.06023 0.0
C58 C 0.88564 0.86767 0.87741 0.0
C59 C 0.88641 0.89975 -0.00817 0.0
O60 O 0.83428 0.84956 0.87769 0.0
O61 O 0.82831 0.86225 0.96641 0.0
O62 O 0.86813 0.86771 0.07574 0.0
O63 O 0.841 0.84801 0.08716 0.0
O64 O 0.84601 0.82954 0.97952 0.0
O65 O 0.87025 0.83487 0.04975 0.0
O66 O 0.91081 0.87497 0.10581 0.0
O67 O 0.91094 0.85726 0.02239 0.0
O68 O 0.87389 0.8564 0.91884 0.0
O69 O 0.90084 0.8764 0.90975 0.0
O70 O 0.8956 0.8934 0.02443 0.0
O71 O 0.87042 0.88929 0.96294 0.0
H72 H 0.80788 0.83184 0.78996 0.0
H73 H 0.77635 0.81281 0.76303 0.0
H74 H 0.76274 0.8294 0.96116 0.0
H75 H 0.79441 0.84817 -0.01106 0.0
H76 H 0.93925 0.90469 0.07008 0.0
H77 H 0.97157 0.92337 0.05674 0.0
H78 H 0.97641 0.87621 0.04833 0.0
H79 H 0.94409 0.85761 0.06138 0.0
Sm80 Sm 0.20903 1.01489 0.98261 0.0
Sm81 Sm 0.20617 0.04818 0.03208 0.0
C82 C 0.21588 0.99233 0.91171 0.0
C83 C 0.2283 0.98534 0.90226 0.0
C84 C 0.24661 0.99651 0.88888 0.0
C85 C 0.25761 0.98922 0.87499 0.0
C86 C 0.25057 0.97062 0.8742 0.0
C87 C 0.23226 0.95957 0.88852 0.0
C88 C 0.22132 0.96683 0.90226 0.0
C89 C 0.20539 1.01757 0.12742 0.0
C90 C 0.24584 0.0527 0.02833 0.0
C91 C 0.19863 0.07164 0.09077 0.0
C92 C 0.18687 0.07929 0.08027 0.0
C93 C 0.1931 0.09707 0.09984 0.0
C94 C 0.18247 0.10484 0.09006 0.0
C95 C 0.16526 0.09503 0.06034 0.0
C96 C 0.15899 0.07712 0.041 0.0
C97 C 0.1697 0.06935 0.05065 0.0
C98 C 0.20836 0.04421 0.88641 0.0
C99 C 0.16933 1.00928 0.00414 0.0
O100 O 0.22082 1.00844 0.88882 0.0
O101 O 0.20641 0.98813 0.97097 0.0
O102 O 0.2145 0.03037 0.08574 0.0
O103 O 0.19937 1.00236 0.09481 0.0
O104 O 0.23876 0.0377 -0.00968 0.0
O105 O 0.23568 0.05825 0.05925 0.0
O106 O 0.19128 0.05501 0.11167 0.0
O107 O 0.21123 0.07589 0.04297 0.0
O108 O 0.19968 0.03199 0.93062 0.0
O109 O 0.21521 0.05965 0.91734 0.0
O110 O 0.17704 0.0247 0.03905 0.0
O111 O 0.17882 1.00378 0.96749 0.0
H112 H 0.2524 1.01084 0.88847 0.0
H113 H 0.27166 0.99819 0.86508 0.0
H114 H 0.22623 0.94522 0.88728 0.0
H115 H 0.20723 0.95791 0.9116 0.0
H116 H 0.20627 0.10499 0.12292 0.0
H117 H 0.18769 0.11854 0.10673 0.0
H118 H 0.14591 0.06918 0.01732 0.0
H119 H 0.16461 0.05562 0.03468 0.0
Sm120 Sm 0.72128 0.54996 0.31141 0.0
Sm121 Sm 0.6879 0.51386 0.36089 0.0
C122 C 0.74361 0.57923 0.239 0.0
C123 C 0.75044 0.59862 0.22907 0.0
C124 C 0.73973 0.60523 0.20193 0.0
C125 C 0.74709 0.6235 0.18757 0.0
C126 C 0.7653 0.6356 0.20009 0.0
C127 C 0.77587 0.6289 0.22802 0.0
C128 C 0.76855 0.6107 0.24209 0.0
C129 C 0.7188 0.54391 0.45617 0.0
C130 C 0.68343 0.54901 0.35752 0.0
C131 C 0.6648 0.48272 0.41963 0.0
C132 C 0.65792 0.46336 0.40926 0.0
C133 C 0.65504 0.45244 0.4694 0.0
C134 C 0.64754 0.43396 0.46142 0.0
C135 C 0.6426 0.4259 0.39297 0.0
C136 C 0.64576 0.43694 0.33262 0.0
C137 C 0.65338 0.45543 0.34061 0.0
C138 C 0.69209 0.51973 0.21503 0.0
C139 C 0.72691 0.51594 0.33423 0.0
O140 O 0.72752 0.56778 0.21632 0.0
O141 O 0.74793 0.57419 0.29845 0.0
O142 O 0.70586 0.54005 0.4149 0.0
O143 O 0.73396 0.55313 0.4231 0.0
O144 O 0.69873 0.55717 0.3214 0.0
O145 O 0.67748 0.53305 0.38646 0.0
O146 O 0.68121 0.49248 0.44254 0.0
O147 O 0.66049 0.49081 0.371 0.0
O148 O 0.70424 0.52339 0.25973 0.0
O149 O 0.67659 0.51126 0.24571 0.0
O150 O 0.71124 0.50809 0.36727 0.0
O151 O 0.73277 0.53114 0.29885 0.0
H152 H 0.72575 0.59629 0.19073 0.0
H153 H 0.73848 0.62814 0.16664 0.0
H154 H 0.78998 0.63766 0.23724 0.0
H155 H 0.77721 0.606 0.26191 0.0
H156 H 0.65831 0.45819 0.52291 0.0
H157 H 0.64517 0.42593 0.50923 0.0
H158 H 0.64239 0.43129 0.279 0.0
H159 H 0.65552 0.4635 0.29309 0.0
Sm160 Sm 0.51988 0.19338 0.31809 0.0
Sm161 Sm 0.55583 0.19611 0.36811 0.0
C162 C 0.49052 0.1861 0.24576 0.0
C163 C 0.47138 0.17273 0.23319 0.0
C164 C 0.46608 0.16338 0.16756 0.0
C165 C 0.44798 0.15235 0.15112 0.0
C166 C 0.43461 0.15041 0.19966 0.0
C167 C 0.43994 0.15942 0.26615 0.0
C168 C 0.45806 0.17046 0.28261 0.0
C169 C 0.5256 0.19628 0.4632 0.0
C170 C 0.52088 0.15643 0.3617 0.0
C171 C 0.58683 0.20394 0.42708 0.0
C172 C 0.60621 0.21617 0.41564 0.0
C173 C 0.61711 0.22557 0.47428 0.0
C174 C 0.6356 0.23636 0.46561 0.0
C175 C 0.64366 0.23792 0.39802 0.0
C176 C 0.63266 0.22872 0.33905 0.0
C177 C 0.61417 0.21802 0.34767 0.0
C178 C 0.55027 0.19457 0.22231 0.0
C179 C 0.55386 0.23309 0.34285 0.0
O180 O 0.50266 0.18271 0.22066 0.0
O181 O 0.495 0.19461 0.30744 0.0
O182 O 0.52946 0.1874 0.42092 0.0
O183 O 0.51669 0.20263 0.43079 0.0
O184 O 0.51296 0.16363 0.32455 0.0
O185 O 0.53654 0.16649 0.39301 0.0
O186 O 0.57732 0.21093 0.44925 0.0
O187 O 0.57848 0.19125 0.3796 0.0
O188 O 0.54656 0.20306 0.2669 0.0
O189 O 0.55864 0.1875 0.25307 0.0
O190 O 0.56151 0.22519 0.37646 0.0
O191 O 0.53877 0.22378 0.30647 0.0
H192 H 0.47596 0.16494 0.12797 0.0
H193 H 0.44447 0.14544 0.09989 0.0
H194 H 0.43011 0.15848 0.30467 0.0
H195 H 0.46158 0.17759 0.33334 0.0
H196 H 0.61134 0.22434 0.52727 0.0
H197 H 0.64363 0.24311 0.51236 0.0
H198 H 0.63835 0.22981 0.28602 0.0
H199 H 0.60613 0.21105 0.3012 0.0
Sm200 Sm 0.87586 0.34856 0.31473 0.0
Sm201 Sm 0.87319 0.38194 0.36473 0.0
C202 C 0.88319 0.32656 0.24187 0.0
C203 C 0.89642 0.32062 0.23013 0.0
C204 C 0.90473 0.32318 0.16259 0.0
C205 C 0.91567 0.31593 0.14745 0.0
C206 C 0.91851 0.30578 0.19934 0.0
C207 C 0.91053 0.3036 0.26759 0.0
C208 C 0.89963 0.31089 0.28278 0.0
C209 C 0.87276 0.35138 0.45971 0.0
C210 C 0.91283 0.38648 0.35967 0.0
C211 C 0.86536 0.40518 0.42334 0.0
C212 C 0.85331 0.41256 0.412 0.0
C213 C 0.84192 0.41171 0.46774 0.0
C214 C 0.8313 0.41959 0.45987 0.0
C215 C 0.83189 0.42867 0.39612 0.0
C216 C 0.84311 0.42926 0.33992 0.0
C217 C 0.85365 0.42129 0.34766 0.0
C218 C 0.87493 0.37784 0.21907 0.0
C219 C 0.83618 0.34289 0.33902 0.0
O220 O 0.88699 0.34229 0.21776 0.0
O221 O 0.87429 0.32235 0.3027 0.0
O222 O 0.88168 0.36416 0.41762 0.0
O223 O 0.86659 0.33612 0.42724 0.0
O224 O 0.90564 0.37127 0.323 0.0
O225 O 0.9028 0.39227 0.38994 0.0
O226 O 0.85822 0.38864 0.44518 0.0
O227 O 0.87819 0.40951 0.37649 0.0
O228 O 0.86638 0.36565 0.26359 0.0
O229 O 0.88191 0.39331 0.24976 0.0
O230 O 0.84406 0.35852 0.37229 0.0
O231 O 0.84549 0.33704 0.30309 0.0
H232 H 0.90237 0.3304 0.12054 0.0
H233 H 0.92138 0.31776 0.09406 0.0
H234 H 0.9126 0.29613 0.30937 0.0
H235 H 0.89342 0.30858 0.33536 0.0
H236 H 0.84146 0.40518 0.51807 0.0
H237 H 0.82297 0.41899 0.50457 0.0
H238 H 0.84373 0.43588 0.28967 0.0
H239 H 0.86221 0.42217 0.3034 0.0
Sm240 Sm 0.38681 0.88202 0.6505 0.0
Sm241 Sm 0.35339 0.84582 0.6977 0.0
C242 C 0.40944 0.91206 0.58314 0.0
C243 C 0.41537 0.93133 0.57377 0.0
C244 C 0.40865 0.93705 0.51733 0.0
C245 C 0.41598 0.95524 0.50206 0.0
C246 C 0.43023 0.9683 0.54309 0.0
C247 C 0.43645 0.96253 0.60143 0.0
C248 C 0.42923 0.94435 0.61617 0.0
C249 C 0.38403 0.87501 0.79446 0.0
C250 C 0.34901 0.88093 0.69699 0.0
C251 C 0.32983 0.81462 0.75471 0.0
C252 C 0.32226 0.79513 0.74453 0.0
C253 C 0.33294 0.78714 0.74495 0.0
C254 C 0.32522 0.76861 0.73699 0.0
C255 C 0.30665 0.75763 0.72823 0.0
C256 C 0.29607 0.76572 0.72781 0.0
C257 C 0.30376 0.78419 0.73599 0.0
C258 C 0.35752 0.85252 0.55242 0.0
C259 C 0.39236 0.84785 0.66932 0.0
O260 O 0.3941 0.90013 0.55567 0.0
O261 O 0.41301 0.90699 0.64427 0.0
O262 O 0.37126 0.87171 0.75325 0.0
O263 O 0.39929 0.88401 0.76191 0.0
O264 O 0.36396 0.88887 0.65853 0.0
O265 O 0.34349 0.8652 0.7274 0.0
O266 O 0.34629 0.82413 0.7776 0.0
O267 O 0.32572 0.82292 0.70633 0.0
O268 O 0.3697 0.85576 0.59648 0.0
O269 O 0.34205 0.84409 0.58331 0.0
O270 O 0.37664 0.83982 0.70205 0.0
O271 O 0.3983 0.86327 0.63546 0.0
H272 H 0.39805 0.92742 0.48341 0.0
H273 H 0.41086 0.95898 0.45624 0.0
H274 H 0.44708 0.97206 0.63558 0.0
H275 H 0.43484 0.9405 0.65993 0.0
H276 H 0.34725 0.79518 0.75144 0.0
H277 H 0.33384 0.76292 0.73693 0.0
H278 H 0.28173 0.75775 0.72246 0.0
H279 H 0.29518 0.78993 0.73616 0.0
Sm280 Sm 0.18614 0.52554 0.64917 0.0
Sm281 Sm 0.2218 0.5279 0.70063 0.0
C282 C 0.15758 0.51974 0.57439 0.0
C283 C 0.13835 0.50778 0.56057 0.0
C284 C 0.12896 0.51462 0.52396 0.0
C285 C 0.11076 0.50389 0.50952 0.0
C286 C 0.10139 0.48595 0.53153 0.0
C287 C 0.1109 0.47905 0.56794 0.0
C288 C 0.12922 0.48987 0.58243 0.0
C289 C 0.19128 0.52786 0.79488 0.0
C290 C 0.18655 0.48837 0.69201 0.0
C291 C 0.25257 0.53492 0.75974 0.0
C292 C 0.2721 0.54665 0.74924 0.0
C293 C 0.2803 0.56535 0.74959 0.0
C294 C 0.29884 0.576 0.74097 0.0
C295 C 0.3096 0.56822 0.73141 0.0
C296 C 0.30129 0.54951 0.73086 0.0
C297 C 0.28282 0.53891 0.73987 0.0
C298 C 0.21669 0.5268 0.55446 0.0
C299 C 0.22018 0.56501 0.67706 0.0
O300 O 0.16873 0.51466 0.55263 0.0
O301 O 0.16214 0.52831 0.63583 0.0
O302 O 0.1953 0.51916 0.75231 0.0
O303 O 0.1824 0.53422 0.76239 0.0
O304 O 0.17897 0.4957 0.65348 0.0
O305 O 0.202 0.49834 0.72505 0.0
O306 O 0.24325 0.54214 0.78192 0.0
O307 O 0.24416 0.52243 0.71161 0.0
O308 O 0.21295 0.53526 0.59909 0.0
O309 O 0.22478 0.51947 0.58547 0.0
O310 O 0.22758 0.55698 0.71151 0.0
O311 O 0.20542 0.55585 0.63869 0.0
H312 H 0.13577 0.52837 0.50618 0.0
H313 H 0.10409 0.50964 0.4802 0.0
H314 H 0.10415 0.46536 0.58625 0.0
H315 H 0.1362 0.48431 0.61083 0.0
H316 H 0.27243 0.57177 0.75651 0.0
H317 H 0.30473 0.59034 0.74097 0.0
H318 H 0.30912 0.54302 0.72475 0.0
H319 H 0.2769 0.52455 0.7399 0.0
Sm320 Sm 0.54167 0.68085 0.64369 0.0
Sm321 Sm 0.53868 0.71378 0.69453 0.0
C322 C 0.548 0.65833 0.56946 0.0
C323 C 0.56028 0.65148 0.55493 0.0
C324 C 0.55389 0.63566 0.51545 0.0
C325 C 0.56483 0.62843 0.50117 0.0
C326 C 0.58253 0.63683 0.52617 0.0
C327 C 0.58901 0.65289 0.56519 0.0
C328 C 0.57797 0.66013 0.57957 0.0
C329 C 0.539 0.68364 0.7892 0.0
C330 C 0.5785 0.71889 0.68737 0.0
C331 C 0.53078 0.73701 0.75276 0.0
C332 C 0.51884 0.74448 0.74059 0.0
C333 C 0.50717 0.74347 0.7954 0.0
C334 C 0.4966 0.75139 0.78674 0.0
C335 C 0.49752 0.76066 0.72312 0.0
C336 C 0.50904 0.76143 0.66788 0.0
C337 C 0.51954 0.75344 0.67641 0.0
C338 C 0.53988 0.70965 0.54841 0.0
C339 C 0.50198 0.67457 0.67172 0.0
O340 O 0.55252 0.67435 0.54671 0.0
O341 O 0.53976 0.65442 0.63165 0.0
O342 O 0.54776 0.6964 0.74691 0.0
O343 O 0.53261 0.66839 0.75651 0.0
O344 O 0.57142 0.70387 0.64935 0.0
O345 O 0.5683 0.72421 0.71956 0.0
O346 O 0.52348 0.72042 0.77404 0.0
O347 O 0.5438 0.74138 0.70682 0.0
O348 O 0.53152 0.69747 0.59311 0.0
O349 O 0.54712 0.7251 0.57932 0.0
O350 O 0.50985 0.69 0.70635 0.0
O351 O 0.51129 0.66923 0.63287 0.0
H352 H 0.54031 0.62881 0.49555 0.0
H353 H 0.55941 0.61629 0.46981 0.0
H354 H 0.60251 0.65968 0.58578 0.0
H355 H 0.58319 0.67236 0.61023 0.0
H356 H 0.50642 0.73677 0.8456 0.0
H357 H 0.48804 0.75065 0.83075 0.0
H358 H 0.50993 0.7682 0.61774 0.0
H359 H 0.52832 0.75444 0.63287 0.0
H360 H 0.12668 0.32812 0.91635 0.0
H361 H 0.14038 0.35954 0.88471 0.0
H362 H 0.09812 0.34722 0.73313 0.0
H363 H 0.08458 0.31552 0.76288 0.0
H364 H 0.12945 0.37058 0.67486 0.0
H365 H 0.10011 0.3671 0.89655 0.0
H366 H 0.09168 0.35939 0.0239 0.0
H367 H 0.14633 0.39222 0.08735 0.0
H368 H 0.15513 0.39993 0.96021 0.0
H369 H 0.15481 0.46284 0.6323 0.0
H370 H 0.13832 0.43081 0.65782 0.0
H371 H 0.17937 0.43733 0.80624 0.0
H372 H 0.19585 0.46924 0.78137 0.0
H373 H 0.14658 0.41678 0.86396 0.0
H374 H 0.17571 0.41911 0.63956 0.0
H375 H 0.18352 0.42729 0.51206 0.0
H376 H 0.12825 0.39694 0.45375 0.0
H377 H 0.12009 0.38877 0.58115 0.0
C378 C 0.12029 0.33201 0.87591 0.0
C379 C 0.10447 0.31915 0.84221 0.0
C380 C 0.12809 0.35009 0.85833 0.0
C381 C 0.12024 0.35592 0.80699 0.0
C382 C 0.10445 0.34314 0.77307 0.0
C383 C 0.09662 0.325 0.79069 0.0
C384 C 0.12869 0.37529 0.78847 0.0
C385 C 0.13292 0.38064 0.71619 0.0
C386 C 0.13352 0.38858 0.84216 0.0
C387 C 0.1283 0.38396 0.91873 0.0
C388 C 0.11035 0.37256 0.93759 0.0
C389 C 0.1055 0.36821 0.00976 0.0
C390 C 0.11847 0.37527 0.06367 0.0
C391 C 0.13631 0.38674 0.04552 0.0
C392 C 0.14123 0.39112 0.97341 0.0
C393 C 0.1604 0.45746 0.67008 0.0
C394 C 0.17674 0.46872 0.70455 0.0
C395 C 0.15095 0.4391 0.68453 0.0
C396 C 0.1576 0.43155 0.73379 0.0
C397 C 0.1739 0.44277 0.76813 0.0
C398 C 0.18338 0.46107 0.75349 0.0
C399 C 0.14757 0.41205 0.75065 0.0
C400 C 0.14303 0.4067 0.82266 0.0
C401 C 0.14237 0.39879 0.69669 0.0
C402 C 0.14727 0.40348 0.61998 0.0
C403 C 0.16521 0.41428 0.59961 0.0
C404 C 0.16971 0.4189 0.52736 0.0
C405 C 0.15639 0.41269 0.47486 0.0
C406 C 0.13855 0.40177 0.49449 0.0
C407 C 0.13398 0.39713 0.56671 0.0
H408 H 0.15989 0.4163 0.41896 0.0
H409 H 0.11469 0.3719 0.11952 0.0
H410 H 0.7383 0.79903 0.94839 0.0
H411 H 0.70672 0.78176 0.91604 0.0
H412 H 0.71997 0.79806 0.69458 0.0
H413 H 0.75143 0.8158 0.72684 0.0
H414 H 0.69174 0.80009 0.73221 0.0
H415 H 0.70922 0.75593 0.75183 0.0
H416 H 0.72229 0.73978 0.8117 0.0
H417 H 0.6833 0.72359 0.98052 0.0
H418 H 0.67016 0.73987 0.92218 0.0
H419 H 0.60399 0.71075 0.64375 0.0
H420 H 0.63606 0.72736 0.66885 0.0
H421 H 0.6295 0.76657 0.78656 0.0
H422 H 0.59761 0.75024 0.76126 0.0
H423 H 0.65482 0.73599 0.79295 0.0
H424 H 0.66605 0.80735 0.76461 0.0
H425 H 0.65375 0.82317 0.69667 0.0
H426 H 0.63655 0.7839 0.5288 0.0
H427 H 0.64895 0.76798 0.59523 0.0
C428 C 0.73451 0.79906 0.89287 0.0
C429 C 0.74753 0.8088 0.84027 0.0
C430 C 0.71641 0.78901 0.87427 0.0
C431 C 0.71088 0.78838 0.80257 0.0
C432 C 0.72383 0.79823 0.75019 0.0
C433 C 0.74189 0.80826 0.76869 0.0
C434 C 0.69164 0.77764 0.78205 0.0
C435 C 0.6837 0.78608 0.74568 0.0
C436 C 0.68109 0.75925 0.79824 0.0
C437 C 0.68881 0.74926 0.83296 0.0
C438 C 0.70351 0.74902 0.80196 0.0
C439 C 0.71092 0.73983 0.8356 0.0
C440 C 0.70366 0.73071 0.89997 0.0
C441 C 0.68893 0.73069 0.9307 0.0
C442 C 0.68148 0.73988 0.89734 0.0
C443 C 0.60937 0.72297 0.6746 0.0
C444 C 0.59813 0.72915 0.70009 0.0
C445 C 0.62773 0.73241 0.68927 0.0
C446 C 0.63531 0.74833 0.72919 0.0
C447 C 0.6241 0.75448 0.75481 0.0
C448 C 0.60578 0.74506 0.74034 0.0
C449 C 0.65489 0.75854 0.7443 0.0
C450 C 0.66288 0.75001 0.77964 0.0
C451 C 0.66557 0.77679 0.72616 0.0
C452 C 0.65828 0.78639 0.68528 0.0
C453 C 0.65971 0.80214 0.71306 0.0
C454 C 0.65271 0.81111 0.67484 0.0
C455 C 0.64433 0.80451 0.60857 0.0
C456 C 0.64299 0.78896 0.58026 0.0
C457 C 0.64998 0.77994 0.61822 0.0
H458 H 0.63891 0.81147 0.57911 0.0
H459 H 0.70943 0.72362 0.92597 0.0
H460 H 0.24947 0.94121 0.93524 0.0
H461 H 0.26693 0.92723 0.9033 0.0
H462 H 0.29554 0.96797 0.74422 0.0
H463 H 0.2776 0.9817 0.77406 0.0
H464 H 0.28697 0.93646 0.68965 0.0
H465 H 0.31479 0.96712 0.90701 0.0
H466 H 0.31647 0.97621 0.03399 0.0
H467 H 0.29504 0.92195 0.10154 0.0
H468 H 0.29299 0.91249 0.97483 0.0
H469 H 0.35441 0.91238 0.63808 0.0
H470 H 0.33864 0.92848 0.66639 0.0
H471 H 0.30553 0.88759 0.81836 0.0
H472 H 0.32117 0.87144 0.79055 0.0
H473 H 0.31783 0.92066 0.87504 0.0
H474 H 0.28932 0.89023 0.65547 0.0
H475 H 0.28826 0.88165 0.52808 0.0
H476 H 0.31206 0.93646 0.46456 0.0
H477 H 0.31349 0.94539 0.59176 0.0
C478 C 0.25939 0.9472 0.89313 0.0
C479 C 0.26203 0.96264 0.85729 0.0
C480 C 0.26954 0.93925 0.87539 0.0
C481 C 0.28277 0.9466 0.82177 0.0
C482 C 0.28549 0.96203 0.78592 0.0
C483 C 0.27531 0.96999 0.80361 0.0
C484 C 0.29345 0.93794 0.80237 0.0
C485 C 0.29395 0.93329 0.73014 0.0
C486 C 0.30237 0.93344 0.85503 0.0
C487 C 0.30358 0.93907 0.93134 0.0
C488 C 0.3103 0.9571 0.94889 0.0
C489 C 0.31134 0.96233 0.02083 0.0
C490 C 0.30583 0.94966 0.07578 0.0
C491 C 0.29929 0.93174 0.05891 0.0
C492 C 0.2982 0.92644 -0.01297 0.0
C493 C 0.34372 0.90674 0.6773 0.0
C494 C 0.33907 0.89054 0.71179 0.0
C495 C 0.33467 0.91597 0.69333 0.0
C496 C 0.32079 0.90924 0.74435 0.0
C497 C 0.31617 0.8931 0.77889 0.0
C498 C 0.32511 0.88382 0.76257 0.0
C499 C 0.31119 0.91905 0.76258 0.0
C500 C 0.31091 0.92392 0.83459 0.0
C501 C 0.30258 0.92384 0.70968 0.0
C502 C 0.30169 0.91849 0.6332 0.0
C503 C 0.29447 0.90047 0.61439 0.0
C504 C 0.29377 0.89554 0.54221 0.0
C505 C 0.30014 0.9085 0.48827 0.0
C506 C 0.30716 0.92643 0.50641 0.0
C507 C 0.30791 0.93143 0.57853 0.0
H508 H 0.29958 0.90466 0.43242 0.0
H509 H 0.30665 0.95373 0.13145 0.0
H510 H 0.40608 0.12858 0.2867 0.0
H511 H 0.37447 0.11188 0.2548 0.0
H512 H 0.3875 0.13062 0.03592 0.0
H513 H 0.41901 0.14786 0.06794 0.0
H514 H 0.35961 0.1326 0.07774 0.0
H515 H 0.3759 0.08742 0.08468 0.0
H516 H 0.38836 0.06998 0.13795 0.0
H517 H 0.34989 0.05294 0.30909 0.0
H518 H 0.33735 0.07049 0.25735 0.0
H519 H 0.27113 0.04451 0.98286 0.0
H520 H 0.30316 0.06068 0.00808 0.0
H521 H 0.29707 0.09949 0.13112 0.0
H522 H 0.26516 0.08358 0.10553 0.0
H523 H 0.32185 0.06813 0.13003 0.0
H524 H 0.33433 0.14014 0.11545 0.0
H525 H 0.32242 0.15698 0.0525 0.0
H526 H 0.30444 0.11926 0.8786 0.0
H527 H 0.31645 0.10233 0.94002 0.0
C528 C 0.40225 0.12926 0.23182 0.0
C529 C 0.41525 0.13959 0.17997 0.0
C530 C 0.38412 0.11952 0.21343 0.0
C531 C 0.37849 0.11977 0.14262 0.0
C532 C 0.39141 0.13012 0.09087 0.0
C533 C 0.40952 0.13985 0.10919 0.0
C534 C 0.35916 0.1095 0.12258 0.0
C535 C 0.35138 0.11851 0.08937 0.0
C536 C 0.34834 0.09101 0.13641 0.0
C537 C 0.3558 0.0804 0.16749 0.0
C538 C 0.37018 0.08006 0.13396 0.0
C539 C 0.37725 0.07014 0.16383 0.0
C540 C 0.36995 0.06039 0.22696 0.0
C541 C 0.35554 0.06051 0.26024 0.0
C542 C 0.34844 0.07043 0.23063 0.0
C543 C 0.27659 0.05655 0.01496 0.0
C544 C 0.26547 0.06274 0.04177 0.0
C545 C 0.29495 0.06574 0.02967 0.0
C546 C 0.30267 0.08143 0.07108 0.0
C547 C 0.29157 0.08759 0.09814 0.0
C548 C 0.27324 0.07841 0.08353 0.0
C549 C 0.32227 0.09131 0.0863 0.0
C550 C 0.33008 0.08223 0.11862 0.0
C551 C 0.3332 0.10968 0.07057 0.0
C552 C 0.32614 0.11988 0.03273 0.0
C553 C 0.3279 0.13548 0.06365 0.0
C554 C 0.32112 0.14504 0.02826 0.0
C555 C 0.31263 0.13916 0.96171 0.0
C556 C 0.31096 0.12376 0.93028 0.0
C557 C 0.31773 0.11417 0.9654 0.0
H558 H 0.30738 0.14657 0.93443 0.0
H559 H 0.37544 0.05272 0.25 0.0
H560 H 0.91178 0.27242 0.23816 0.0
H561 H 0.92876 0.25782 0.20746 0.0
H562 H 0.96631 0.30429 0.0884 0.0
H563 H 0.94936 0.31902 0.11899 0.0
H564 H 0.95859 0.2752 0.01382 0.0
H565 H 0.97641 0.29408 0.25681 0.0
H566 H 0.97219 0.29712 0.38639 0.0
H567 H 0.94518 0.24028 0.4107 0.0
H568 H 0.94903 0.23689 0.28099 0.0
H569 H 1.02356 0.24755 0.97889 0.0
H570 H 1.00785 0.2637 0.00673 0.0
H571 H 0.96862 0.21859 0.12775 0.0
H572 H 0.98436 0.2025 0.10122 0.0
H573 H 0.97832 0.24816 0.20119 0.0
H574 H 0.95996 0.2294 0.95693 0.0
H575 H 0.9645 0.22657 0.82747 0.0
H576 H 0.99301 0.2835 0.80598 0.0
H577 H 0.98884 0.28668 0.93559 0.0
C578 C 0.92378 0.27968 0.20625 0.0
C579 C 0.9292 0.29701 0.18158 0.0
C580 C 0.9335 0.27126 0.18854 0.0
C581 C 0.94903 0.27997 0.14623 0.0
C582 C 0.95441 0.29722 0.12104 0.0
C583 C 0.94465 0.30564 0.13855 0.0
C584 C 0.95947 0.271 0.12772 0.0
C585 C 0.96312 0.26953 0.05498 0.0
C586 C 0.96517 0.26324 0.18096 0.0
C587 C 0.96286 0.26523 0.25902 0.0
C588 C 0.96945 0.28222 0.28967 0.0
C589 C 0.96714 0.28401 0.36316 0.0
C590 C 0.95838 0.2689 0.40671 0.0
C591 C 0.95195 0.25197 0.37688 0.0
C592 C 0.9542 0.25011 0.30339 0.0
C593 C 1.01152 0.24099 0.01104 0.0
C594 C 1.00526 0.22365 0.0376 0.0
C595 C 1.00249 0.25026 0.0268 0.0
C596 C 0.9869 0.24237 0.06901 0.0
C597 C 0.9806 0.22504 0.09521 0.0
C598 C 0.98962 0.2158 0.07964 0.0
C599 C 0.97729 0.25221 0.08728 0.0
C600 C 0.97381 0.25386 0.16003 0.0
C601 C 0.9718 0.26016 0.03407 0.0
C602 C 0.97424 0.25828 0.9561 0.0
C603 C 0.96731 0.24132 0.9247 0.0
C604 C 0.9698 0.23965 0.85128 0.0
C605 C 0.97908 0.25485 0.80857 0.0
C606 C 0.98585 0.27174 0.83915 0.0
C607 C 0.98341 0.27349 0.91257 0.0
H608 H 0.98099 0.25353 0.75173 0.0
H609 H 0.95662 0.27031 0.46361 0.0
H610 H 0.82718 0.79623 0.94709 0.0
H611 H 0.81202 0.76449 0.97553 0.0
H612 H 0.84625 0.77547 0.15986 0.0
H613 H 0.86196 0.8072 0.12981 0.0
H614 H 0.84202 0.74698 0.09949 0.0
H615 H 0.80072 0.76599 0.16928 0.0
H616 H 0.78213 0.7798 0.15161 0.0
H617 H 0.75293 0.74204 0.98459 0.0
H618 H 0.77151 0.72815 0.0006 0.0
H619 H 0.79046 0.66427 0.27727 0.0
H620 H 0.80512 0.6958 0.2456 0.0
H621 H 0.77348 0.68282 0.05236 0.0
H622 H 0.75877 0.65115 0.08357 0.0
H623 H 0.77607 0.71198 0.11549 0.0
H624 H 0.81732 0.6929 0.04733 0.0
H625 H 0.83586 0.67907 0.06606 0.0
H626 H 0.86504 0.7171 0.23228 0.0
H627 H 0.8465 0.73101 0.21522 0.0
C628 C 0.83154 0.7919 -0.00637 0.0
C629 C 0.84579 0.80434 0.03627 0.0
C630 C 0.82273 0.77369 0.01022 0.0
C631 C 0.82763 0.76744 0.07098 0.0
C632 C 0.84209 0.77983 0.11284 0.0
C633 C 0.8511 0.79803 0.09559 0.0
C634 C 0.81781 0.74805 0.09066 0.0
C635 C 0.82761 0.73945 0.10397 0.0
C636 C 0.79892 0.73789 0.09493 0.0
C637 C 0.78762 0.74613 0.08569 0.0
C638 C 0.79041 0.7607 0.12848 0.0
C639 C 0.77986 0.76854 0.11879 0.0
C640 C 0.76639 0.76184 0.06688 0.0
C641 C 0.76339 0.74724 0.02471 0.0
C642 C 0.77391 0.73937 0.03411 0.0
C643 C 0.78665 0.66805 0.22776 0.0
C644 C 0.77348 0.65503 0.18276 0.0
C645 C 0.79507 0.68616 0.20971 0.0
C646 C 0.79068 0.69178 0.14586 0.0
C647 C 0.77717 0.67889 0.10184 0.0
C648 C 0.76871 0.66074 0.11995 0.0
C649 C 0.80032 0.71104 0.12478 0.0
C650 C 0.79048 0.71957 0.11109 0.0
C651 C 0.81918 0.72116 0.12043 0.0
C652 C 0.83042 0.71289 0.13044 0.0
C653 C 0.82761 0.69824 0.08822 0.0
C654 C 0.83813 0.69039 0.09849 0.0
C655 C 0.85159 0.69717 0.15045 0.0
C656 C 0.85459 0.71184 0.19211 0.0
C657 C 0.84409 0.71973 0.18212 0.0
H658 H 0.85971 0.69108 0.15832 0.0
H659 H 0.75825 0.76793 0.05942 0.0
H660 H 0.07579 0.49571 0.53848 0.0
H661 H 0.04424 0.47803 0.50846 0.0
H662 H 0.0506 0.43283 0.46208 0.0
H663 H 0.08247 0.4507 0.48968 0.0
H664 H 0.03044 0.43632 0.36038 0.0
H665 H 0.03031 0.43526 0.61871 0.0
H666 H 0.0377 0.44814 0.74088 0.0
H667 H 1.01072 0.47733 0.69926 0.0
H668 H 1.00336 0.46481 0.57646 0.0
H669 H 0.93681 0.37488 0.34092 0.0
H670 H 0.96855 0.39061 0.37046 0.0
H671 H 0.96511 0.43644 0.43736 0.0
H672 H 0.93325 0.42051 0.41056 0.0
H673 H 0.98395 0.43133 0.53032 0.0
H674 H 0.98501 0.43361 0.27123 0.0
H675 H 0.97745 0.42096 0.14867 0.0
H676 H 1.00264 0.39006 0.19033 0.0
H677 H 1.01014 0.40235 0.3135 0.0
C678 C 0.07058 0.48204 0.52143 0.0
C679 C 0.08182 0.47471 0.51641 0.0
C680 C 0.05241 0.47186 0.50494 0.0
C681 C 0.04487 0.45397 0.48364 0.0
C682 C 0.05602 0.44656 0.47854 0.0
C683 C 0.07425 0.45677 0.49504 0.0
C684 C 1.02544 0.44317 0.466 0.0
C685 C 1.02026 0.43501 0.39799 0.0
C686 C 1.01208 0.44172 0.51419 0.0
C687 C 1.01641 0.4492 0.58816 0.0
C688 C 1.02606 0.44452 0.63543 0.0
C689 C 0.03023 0.45174 0.70482 0.0
C690 C 1.02472 0.46358 0.72776 0.0
C691 C 1.01499 0.46817 0.6814 0.0
C692 C 1.0108 0.461 0.61193 0.0
C693 C 0.94283 0.38836 0.3614 0.0
C694 C 0.93242 0.39642 0.37312 0.0
C695 C 0.96107 0.39741 0.37808 0.0
C696 C 0.96946 0.4149 0.40541 0.0
C697 C 0.95907 0.42299 0.41652 0.0
C698 C 0.9408 0.41386 0.40085 0.0
C699 C 0.9889 0.42466 0.42421 0.0
C700 C 0.9941 0.4326 0.4926 0.0
C701 C 1.00227 0.42598 0.37618 0.0
C702 C 0.99799 0.41878 0.3018 0.0
C703 C 0.98885 0.42404 0.25438 0.0
C704 C 0.98458 0.41695 0.1848 0.0
C705 C 0.98952 0.40469 0.16179 0.0
C706 C 0.9988 0.39955 0.20825 0.0
C707 C 1.00308 0.40658 0.27792 0.0
H708 H 0.98618 0.39919 0.10794 0.0
H709 H 0.02796 0.46915 0.7815 0.0
H710 H 0.57273 0.60143 0.5288 0.0
H711 H 0.59072 0.58785 0.50001 0.0
H712 H 0.63639 0.63984 0.46357 0.0
H713 H 0.61823 0.65357 0.49012 0.0
H714 H 0.63391 0.61699 0.35951 0.0
H715 H 0.63247 0.61589 0.61764 0.0
H716 H 0.6184 0.60947 0.73774 0.0
H717 H 0.58957 0.5536 0.6884 0.0
H718 H 0.60329 0.55972 0.56759 0.0
H719 H 0.69523 0.58474 0.34235 0.0
H720 H 0.67937 0.60059 0.37197 0.0
H721 H 0.63302 0.55093 0.43215 0.0
H722 H 0.64908 0.53514 0.40551 0.0
H723 H 0.63719 0.57416 0.52642 0.0
H724 H 0.63729 0.57502 0.26698 0.0
H725 H 0.65096 0.58112 0.14611 0.0
H726 H 0.68173 0.63685 0.1964 0.0
H727 H 0.66839 0.63105 0.31792 0.0
C728 C 0.58657 0.61004 0.51421 0.0
C729 C 0.59394 0.62866 0.51167 0.0
C730 C 0.59693 0.60222 0.49843 0.0
C731 C 0.61503 0.61277 0.48025 0.0
C732 C 0.62248 0.63137 0.4776 0.0
C733 C 0.6121 0.63923 0.49348 0.0
C734 C 0.62602 0.6043 0.46323 0.0
C735 C 0.63484 0.60783 0.39651 0.0
C736 C 0.62699 0.59201 0.51054 0.0
C737 C 0.6188 0.58829 0.58333 0.0
C738 C 0.62303 0.60225 0.63221 0.0
C739 C 0.61514 0.59866 0.70045 0.0
C740 C 0.60307 0.58114 0.72063 0.0
C741 C 0.59891 0.56717 0.67267 0.0
C742 C 0.60676 0.57069 0.60434 0.0
C743 C 0.68162 0.57716 0.36143 0.0
C744 C 0.67345 0.55861 0.3713 0.0
C745 C 0.67249 0.58626 0.37811 0.0
C746 C 0.6548 0.57702 0.40351 0.0
C747 C 0.64662 0.55847 0.41283 0.0
C748 C 0.65583 0.54941 0.39725 0.0
C749 C 0.64491 0.5866 0.42208 0.0
C750 C 0.63631 0.58332 0.48929 0.0
C751 C 0.64407 0.59904 0.37501 0.0
C752 C 0.65197 0.60257 0.30175 0.0
C753 C 0.64705 0.58856 0.25239 0.0
C754 C 0.65473 0.59197 0.18376 0.0
C755 C 0.66724 0.60935 0.16366 0.0
C756 C 0.67205 0.62338 0.21207 0.0
C757 C 0.66442 0.62005 0.2808 0.0
H758 H 0.67318 0.61196 0.11052 0.0
H759 H 0.59697 0.57839 0.77348 0.0
H760 H 0.48628 0.13156 0.32683 0.0
H761 H 0.47036 0.09962 0.35361 0.0
H762 H 0.51769 0.10478 0.45235 0.0
H763 H 0.5337 0.13665 0.42574 0.0
H764 H 0.50141 0.07529 0.36676 0.0
H765 H 0.48379 0.1017 0.55499 0.0
H766 H 0.47142 0.11977 0.60309 0.0
H767 H 0.42166 0.08576 0.49719 0.0
H768 H 0.43382 0.06761 0.44766 0.0
H769 H 0.4657 0.994 0.55474 0.0
H770 H 0.48006 0.02535 0.52242 0.0
H771 H 0.42967 0.01824 0.45002 0.0
H772 H 0.41492 0.98701 0.48664 0.0
H773 H 0.44664 0.04855 0.51668 0.0
H774 H 0.46327 0.02156 0.33071 0.0
H775 H 0.47527 1.0035 0.27912 0.0
H776 H 0.52624 0.03837 0.37461 0.0
H777 H 0.51447 0.05651 0.42761 0.0
C778 C 0.49336 0.12591 0.35391 0.0
C779 C 0.51131 0.13679 0.37428 0.0
C780 C 0.48419 0.10762 0.36954 0.0
C781 C 0.49273 0.09974 0.40577 0.0
C782 C 0.51076 0.11049 0.4245 0.0
C783 C 0.5199 0.12877 0.40934 0.0
C784 C 0.48294 0.08038 0.42494 0.0
C785 C 0.48954 0.06949 0.40019 0.0
C786 C 0.46714 0.0726 0.46686 0.0
C787 C 0.45977 0.08341 0.49703 0.0
C788 C 0.47025 0.09815 0.54153 0.0
C789 C 0.46327 0.10839 0.56912 0.0
C790 C 0.44578 0.10394 0.55305 0.0
C791 C 0.43521 0.0892 0.50952 0.0
C792 C 0.44214 0.07893 0.48172 0.0
C793 C 0.45751 0.99905 0.53314 0.0
C794 C 0.43902 0.98772 0.52356 0.0
C795 C 0.46586 1.01705 0.51346 0.0
C796 C 0.4561 0.02425 0.48217 0.0
C797 C 0.43761 1.01309 0.47349 0.0
C798 C 0.42919 0.9951 0.49388 0.0
C799 C 0.46518 0.04339 0.45896 0.0
C800 C 0.45845 0.05427 0.48292 0.0
C801 C 0.48079 0.05113 0.41571 0.0
C802 C 0.48794 0.0403 0.38365 0.0
C803 C 0.477 0.02531 0.34111 0.0
C804 C 0.48377 1.01506 0.31156 0.0
C805 C 0.50149 0.01976 0.32372 0.0
C806 C 0.5125 0.03473 0.3653 0.0
C807 C 0.5058 0.04501 0.39505 0.0
H808 H 0.5067 1.01181 0.3008 0.0
H809 H 0.4404 0.11189 0.57445 0.0
H810 H 0.17579 0.12891 0.0134 0.0
H811 H 0.15784 0.14323 0.00103 0.0
H812 H 0.11124 0.09492 0.07066 0.0
H813 H 0.12917 0.08046 0.08311 0.0
H814 H 0.10268 0.10909 0.96231 0.0
H815 H 0.13393 0.13121 0.18458 0.0
H816 H 0.16008 0.14525 0.26482 0.0
H817 H 0.18209 0.19335 0.14029 0.0
H818 H 0.15618 0.1795 0.05863 0.0
H819 H 0.04906 0.14736 0.05159 0.0
H820 H 0.06705 0.13294 0.05641 0.0
H821 H 0.11186 0.18006 0.96805 0.0
H822 H 0.09388 0.19465 0.96286 0.0
H823 H 0.12137 0.1667 0.08445 0.0
H824 H 0.08906 0.14407 0.86361 0.0
H825 H 0.06223 0.1297 0.78718 0.0
H826 H 0.04139 0.08207 0.91422 0.0
H827 H 0.068 0.09625 -0.00792 0.0
C828 C 0.16175 0.12132 0.02663 0.0
C829 C 0.15402 0.10352 0.04996 0.0
C830 C 0.15146 0.12956 0.01944 0.0
C831 C 0.13317 0.12031 0.03603 0.0
C832 C 0.12531 0.1024 0.05759 0.0
C833 C 0.13559 0.09412 0.06454 0.0
C834 C 0.12234 0.12936 0.03138 0.0
C835 C 0.10668 0.12157 -0.01016 0.0
C836 C 0.12762 0.14586 0.06603 0.0
C837 C 0.14321 0.15425 0.11505 0.0
C838 C 0.14442 0.14473 0.17396 0.0
C839 C 0.15918 0.15266 0.21975 0.0
C840 C 0.17276 0.17016 0.20754 0.0
C841 C 0.17158 0.17978 0.14961 0.0
C842 C 0.15685 0.1719 0.10358 0.0
C843 C 0.06273 0.15471 0.03298 0.0
C844 C 0.06997 0.17222 0.00666 0.0
C845 C 0.073 0.14638 0.03553 0.0
C846 C 0.09081 0.15532 0.01209 0.0
C847 C 0.09815 0.17285 -0.01365 0.0
C848 C 0.08782 0.18116 0.98315 0.0
C849 C 0.10177 0.14643 0.01538 0.0
C850 C 0.11743 0.15425 0.05679 0.0
C851 C 0.09641 0.1299 0.98111 0.0
C852 C 0.08045 0.12129 0.93409 0.0
C853 C 0.07869 0.13058 0.8756 0.0
C854 C 0.06353 0.12246 0.83195 0.0
C855 C 0.05009 0.105 0.84595 0.0
C856 C 0.0518 0.0956 0.9035 0.0
C857 C 0.06693 0.10367 0.94736 0.0
H858 H 0.03836 0.09874 0.8121 0.0
H859 H 0.18418 0.17629 0.24308 0.0
H860 H 0.92106 0.92403 0.96561 0.0
H861 H 0.93558 0.95645 0.97134 0.0
H862 H 0.88516 0.95241 0.02388 0.0
H863 H 0.87039 0.91985 0.01279 0.0
H864 H 0.90231 0.97982 0.94515 0.0
H865 H 0.92015 0.9593 0.15338 0.0
H866 H 0.93291 0.94298 0.21448 0.0
H867 H 0.98301 0.97567 0.10864 0.0
H868 H 0.97048 0.99191 0.0455 0.0
H869 H 0.93886 0.06665 0.09529 0.0
H870 H 0.9241 0.03443 0.07886 0.0
H871 H 0.97333 0.03937 0.00193 0.0
H872 H 0.98836 0.07165 0.0203 0.0
H873 H 0.95701 1.01179 0.09346 0.0
H874 H 0.93936 0.032 0.8856 0.0
H875 H 0.92675 0.04793 0.8208 0.0
H876 H 0.8765 1.01597 0.92699 0.0
H877 H 0.88889 1.0 -0.00681 0.0
C878 C 0.91304 0.93009 0.97752 0.0
C879 C 0.89461 0.91941 -0.01091 0.0
C880 C 0.92139 0.94867 0.98162 0.0
C881 C 0.91168 0.95707 0.00069 0.0
C882 C 0.89308 0.94639 0.00973 0.0
C883 C 0.88461 0.92775 0.00335 0.0
C884 C 0.92092 0.97686 0.01216 0.0
C885 C 0.9141 0.98671 0.97857 0.0
C886 C 0.93664 0.98615 0.05437 0.0
C887 C 0.94433 0.97674 0.09428 0.0
C888 C 0.93388 0.96298 0.14297 0.0
C889 C 0.94106 0.95374 0.17794 0.0
C890 C 0.95874 0.9583 0.16551 0.0
C891 C 0.96931 0.97215 0.11822 0.0
C892 C 0.96218 0.98137 0.0828 0.0
C893 C 0.94665 0.06093 0.07552 0.0
C894 C 0.96488 0.07189 0.05923 0.0
C895 C 0.9381 0.04244 0.0654 0.0
C896 C 0.94749 0.03437 0.03828 0.0
C897 C 0.96573 0.04522 0.02265 0.0
C898 C 0.97429 0.06374 0.03265 0.0
C899 C 0.93833 1.01464 0.0267 0.0
C900 C 0.94516 1.00483 0.06034 0.0
C901 C 0.92261 1.00539 -0.01516 0.0
C902 C 0.91511 1.01492 0.94486 0.0
C903 C 0.92566 0.02846 0.89554 0.0
C904 C 0.91855 0.03748 0.85849 0.0
C905 C 0.90085 0.033 0.86991 0.0
C906 C 0.89021 0.01945 0.91827 0.0
C907 C 0.89727 1.01039 0.95552 0.0
H908 H 0.89536 0.04 0.84117 0.0
H909 H 0.96425 0.9511 0.19253 0.0
H910 H 0.99929 0.93235 0.12291 0.0
H911 H 0.03168 0.95056 0.11183 0.0
H912 H 0.03144 0.91435 0.95182 0.0
H913 H 0.99906 0.89601 0.96309 0.0
H914 H 0.05782 0.92289 0.04272 0.0
H915 H 0.03714 0.95622 0.90785 0.0
H916 H 1.02006 0.97159 0.88847 0.0
H917 H 0.04853 1.00782 0.06089 0.0
H918 H 0.06562 0.99251 0.08194 0.0
H919 H 0.14767 0.97864 0.928 0.0
H920 H 0.11513 0.96053 0.93204 0.0
H921 H 0.11347 0.99637 0.08903 0.0
H922 H 0.14586 1.01476 0.08379 0.0
H923 H 0.08795 0.98786 -0.00361 0.0
H924 H 0.10798 0.9543 0.13395 0.0
H925 H 0.12484 0.93881 0.15578 0.0
H926 H 0.09751 0.90302 0.98072 0.0
H927 H 0.08064 0.91845 0.95725 0.0
C928 C 1.00609 0.92834 0.08479 0.0
C929 C 0.99648 0.91269 0.04379 0.0
C930 C 1.02467 0.93879 0.07848 0.0
C931 C 0.03412 0.93402 0.03026 0.0
C932 C 1.02455 0.91836 -0.01051 0.0
C933 C 1.00599 0.90785 -0.00389 0.0
C934 C 0.05395 0.94517 0.02298 0.0
C935 C 0.06436 0.93705 0.03152 0.0
C936 C 0.06266 0.96376 0.01001 0.0
C937 C 0.05255 0.97312 -0.00313 0.0
C938 C 0.03968 0.9674 0.94192 0.0
C939 C 0.03001 0.97611 0.9306 0.0
C940 C 0.03318 0.99064 0.97354 0.0
C941 C 0.04607 0.99655 0.02772 0.0
C942 C 0.05577 0.98787 0.03932 0.0
C943 C 0.1404 0.98268 0.9634 0.0
C944 C 0.14949 0.99816 0.00575 0.0
C945 C 0.12174 0.97224 0.96594 0.0
C946 C 0.11172 0.97687 0.01169 0.0
C947 C 0.12079 0.99244 0.05329 0.0
C948 C 0.13939 1.00295 0.05036 0.0
C949 C 0.09184 0.96559 0.01639 0.0
C950 C 0.08141 0.97369 0.00738 0.0
C951 C 0.08312 0.94699 0.02915 0.0
C952 C 0.09318 0.93764 0.0434 0.0
C953 C 0.10566 0.9432 0.09979 0.0
C954 C 0.1152 0.93442 0.11251 0.0
C955 C 0.11228 0.91997 0.06955 0.0
C956 C 0.09977 0.91424 0.01389 0.0
C957 C 0.09021 0.92298 0.00089 0.0
H958 H 0.11969 0.91319 0.07947 0.0
H959 H 1.02566 0.99736 0.96475 0.0
H960 H 0.71725 0.48285 0.3867 0.0
H961 H 0.7352 0.46852 0.3946 0.0
H962 H 0.77955 0.5145 0.29722 0.0
H963 H 0.76143 0.52886 0.28748 0.0
H964 H 0.77682 0.48462 0.24347 0.0
H965 H 0.77741 0.50656 0.48179 0.0
H966 H 0.7635 0.51038 0.59125 0.0
H967 H 0.73562 0.45388 0.62635 0.0
H968 H 0.74917 0.44969 0.51648 0.0
H969 H 0.8421 0.46136 0.33658 0.0
H970 H 0.82468 0.47629 0.32493 0.0
H971 H 0.77992 0.43168 0.42729 0.0
H972 H 0.79736 0.41673 0.43966 0.0
H973 H 0.78331 0.46148 0.47891 0.0
H974 H 0.78195 0.43924 0.24085 0.0
H975 H 0.79464 0.43486 0.1289 0.0
H976 H 0.82312 0.4913 0.09199 0.0
H977 H 0.81077 0.49604 0.20428 0.0
C978 C 0.73081 0.48998 0.36678 0.0
C979 C 0.73789 0.50712 0.33683 0.0
C980 C 0.74113 0.48175 0.37168 0.0
C981 C 0.7589 0.49051 0.34782 0.0
C982 C 0.76591 0.50746 0.31637 0.0
C983 C 0.75553 0.51569 0.31095 0.0
C984 C 0.77012 0.48198 0.35621 0.0
C985 C 0.77846 0.47981 0.29519 0.0
C986 C 0.77197 0.47527 0.42331 0.0
C987 C 0.76421 0.4778 0.49058 0.0
C988 C 0.76826 0.49494 0.5127 0.0
C989 C 0.76044 0.49718 0.57481 0.0
C990 C 0.74865 0.48238 0.61564 0.0
C991 C 0.74474 0.46533 0.59464 0.0
C992 C 0.75251 0.46301 0.5325 0.0
C993 C 0.82849 0.45462 0.35601 0.0
C994 C 0.82114 0.43775 0.3887 0.0
C995 C 0.81851 0.4632 0.34933 0.0
C996 C 0.80082 0.45507 0.37425 0.0
C997 C 0.79351 0.4383 0.40758 0.0
C998 C 0.80353 0.42975 0.41472 0.0
C999 C 0.79001 0.46406 0.36605 0.0
C1000 C 0.78174 0.46632 0.42718 0.0
C1001 C 0.78818 0.47081 0.29899 0.0
C1002 C 0.79558 0.468 0.23135 0.0
C1003 C 0.79102 0.45073 0.20914 0.0
C1004 C 0.79814 0.44818 0.14558 0.0
C1005 C 0.80972 0.4628 0.10346 0.0
C1006 C 0.81417 0.47999 0.12472 0.0
C1007 C 0.8071 0.48262 0.18828 0.0
H1008 H 0.81521 0.4608 0.05427 0.0
H1009 H 0.74258 0.48414 0.6636 0.0
H1010 H 0.61447 0.40394 0.30558 0.0
H1011 H 0.59979 0.37155 0.29376 0.0
H1012 H 0.63576 0.37032 0.45067 0.0
H1013 H 0.65074 0.4028 0.4618 0.0
H1014 H 0.63112 0.3484 0.33765 0.0
H1015 H 0.59331 0.35834 0.49671 0.0
H1016 H 0.57493 0.37127 0.53473 0.0
H1017 H 0.54033 0.34695 0.3535 0.0
H1018 H 0.55866 0.33408 0.3138 0.0
H1019 H 0.58375 0.25612 0.41871 0.0
H1020 H 0.59875 0.28853 0.42304 0.0
H1021 H 0.55993 0.28788 0.27629 0.0
H1022 H 0.54456 0.25526 0.27272 0.0
H1023 H 0.56611 0.31092 0.38047 0.0
H1024 H 0.6034 0.30001 0.22343 0.0
H1025 H 0.622 0.28738 0.18489 0.0
H1026 H 0.65786 0.31365 0.36076 0.0
H1027 H 0.6393 0.3262 0.40118 0.0
C1028 C 0.6194 0.39683 0.33713 0.0
C1029 C 0.63382 0.40608 0.38479 0.0
C1030 C 0.61087 0.37824 0.33075 0.0
C1031 C 0.6165 0.36837 0.37186 0.0
C1032 C 0.63109 0.37757 0.41849 0.0
C1033 C 0.63957 0.39616 0.42522 0.0
C1034 C 0.60712 0.34847 0.36659 0.0
C1035 C 0.61694 0.34019 0.3479 0.0
C1036 C 0.58852 0.3377 0.37811 0.0
C1037 C 0.57747 0.34541 0.40186 0.0
C1038 C 0.58187 0.35588 0.46462 0.0
C1039 C 0.57144 0.36317 0.48653 0.0
C1040 C 0.5565 0.35998 0.44644 0.0
C1041 C 0.55193 0.34944 0.38443 0.0
C1042 C 0.56232 0.34213 0.36222 0.0
C1043 C 0.57836 0.2628 0.38705 0.0
C1044 C 0.56291 0.25295 0.34504 0.0
C1045 C 0.58707 0.28144 0.38932 0.0
C1046 C 0.58073 0.29082 0.34906 0.0
C1047 C 0.56519 0.28103 0.30767 0.0
C1048 C 0.5564 0.26234 0.30557 0.0
C1049 C 0.5901 0.31077 0.35157 0.0
C1050 C 0.58027 0.31909 0.36988 0.0
C1051 C 0.60871 0.32156 0.33961 0.0
C1052 C 0.61983 0.3139 0.31578 0.0
C1053 C 0.61515 0.30296 0.25434 0.0
C1054 C 0.62571 0.29583 0.23209 0.0
C1055 C 0.64108 0.29967 0.27048 0.0
C1056 C 0.64593 0.31066 0.33117 0.0
C1057 C 0.6354 0.31779 0.35376 0.0
H1058 H 0.64925 0.29417 0.25309 0.0
H1059 H 0.54844 0.36563 0.46351 0.0
H1060 H 0.6667 0.2707 0.45644 0.0
H1061 H 0.69914 0.28816 0.44366 0.0
H1062 H 0.69802 0.24741 0.30691 0.0
H1063 H 0.66561 0.2297 0.32063 0.0
H1064 H 0.72483 0.25909 0.40614 0.0
H1065 H 0.70348 0.28566 0.2356 0.0
H1066 H 0.68567 0.29925 0.19837 0.0
H1067 H 0.71451 0.34237 0.34655 0.0
H1068 H 0.7323 0.32888 0.38561 0.0
H1069 H 0.81423 0.30993 0.27859 0.0
H1070 H 0.78166 0.29216 0.28486 0.0
H1071 H 0.78052 0.33321 0.41204 0.0
H1072 H 0.81293 0.35109 0.40531 0.0
H1073 H 0.75467 0.32112 0.3145 0.0
H1074 H 0.77492 0.29478 0.48947 0.0
H1075 H 0.79199 0.28107 0.53445 0.0
H1076 H 0.76499 0.23785 0.3849 0.0
H1077 H 0.74791 0.25145 0.33833 0.0
C1078 C 0.67334 0.26539 0.42396 0.0
C1079 C 0.66347 0.24879 0.38939 0.0
C1080 C 0.69191 0.27546 0.41625 0.0
C1081 C 0.70108 0.26921 0.37374 0.0
C1082 C 0.69129 0.25257 0.33981 0.0
C1083 C 0.67271 0.24252 0.3472 0.0
C1084 C 0.72085 0.28 0.36473 0.0
C1085 C 0.73132 0.27255 0.38503 0.0
C1086 C 0.72944 0.29775 0.3389 0.0
C1087 C 0.71912 0.30617 0.314 0.0
C1088 C 0.70597 0.29799 0.26053 0.0
C1089 C 0.69587 0.30568 0.2391 0.0
C1090 C 0.69892 0.32163 0.27023 0.0
C1091 C 0.71215 0.32999 0.32257 0.0
C1092 C 0.72225 0.32234 0.34434 0.0
C1093 C 0.80707 0.3152 0.30782 0.0
C1094 C 0.81632 0.33196 0.3416 0.0
C1095 C 0.7884 0.30498 0.31159 0.0
C1096 C 0.77854 0.31122 0.34955 0.0
C1097 C 0.78774 0.32805 0.38236 0.0
C1098 C 0.80636 0.33826 0.37864 0.0
C1099 C 0.75868 0.3002 0.35591 0.0
C1100 C 0.74819 0.30762 0.33521 0.0
C1101 C 0.75007 0.28246 0.38194 0.0
C1102 C 0.76028 0.27423 0.40987 0.0
C1103 C 0.77272 0.28243 0.46577 0.0
C1104 C 0.78239 0.27466 0.49163 0.0
C1105 C 0.77962 0.25862 0.4624 0.0
C1106 C 0.76714 0.25029 0.40739 0.0
C1107 C 0.75746 0.25801 0.38127 0.0
H1108 H 0.78711 0.25263 0.4825 0.0
H1109 H 0.69106 0.32753 0.25371 0.0
H1110 H 0.4628 0.74855 0.76426 0.0
H1111 H 0.44545 0.76359 0.7519 0.0
H1112 H 0.49029 0.80822 0.65015 0.0
H1113 H 0.50786 0.79343 0.66382 0.0
H1114 H 0.47507 0.81954 0.74762 0.0
H1115 H 0.45467 0.77822 0.55118 0.0
H1116 H 0.4425 0.74888 0.49266 0.0
H1117 H 0.39474 0.72883 0.61902 0.0
H1118 H 0.40673 0.758 0.67909 0.0
H1119 H 0.42664 0.86074 0.61958 0.0
H1120 H 0.44468 0.84627 0.62519 0.0
H1121 H 0.40118 0.80058 0.72791 0.0
H1122 H 0.38307 0.81483 0.72214 0.0
H1123 H 0.41621 0.79022 0.62626 0.0
H1124 H 0.43686 0.8312 0.82478 0.0
H1125 H 0.44893 0.86048 0.88369 0.0
H1126 H 0.49617 0.88112 0.75369 0.0
H1127 H 0.48426 0.852 0.69321 0.0
C1128 C 0.46903 0.76161 0.73963 0.0
C1129 C 0.48676 0.76971 0.71484 0.0
C1130 C 0.45902 0.77015 0.73201 0.0
C1131 C 0.46645 0.78701 0.69934 0.0
C1132 C 0.4842 0.79521 0.67529 0.0
C1133 C 0.49419 0.78665 0.6826 0.0
C1134 C 0.45577 0.79611 0.69076 0.0
C1135 C 0.46233 0.81322 0.72011 0.0
C1136 C 0.43894 0.7878 0.6562 0.0
C1137 C 0.43168 0.77025 0.62015 0.0
C1138 C 0.44163 0.76751 0.56693 0.0
C1139 C 0.43476 0.75092 0.5334 0.0
C1140 C 0.41788 0.73698 0.55225 0.0
C1141 C 0.40782 0.73963 0.60456 0.0
C1142 C 0.41465 0.75619 0.63832 0.0
C1143 C 0.42087 0.84759 0.64318 0.0
C1144 C 0.40337 0.83903 0.67057 0.0
C1145 C 0.43126 0.83935 0.64666 0.0
C1146 C 0.4244 0.82235 0.67763 0.0
C1147 C 0.40683 0.81367 0.70378 0.0
C1148 C 0.39648 0.82191 0.70062 0.0
C1149 C 0.43547 0.81361 0.68338 0.0
C1150 C 0.42899 0.79657 0.65353 0.0
C1151 C 0.45236 0.82198 0.71753 0.0
C1152 C 0.45958 0.83948 0.75392 0.0
C1153 C 0.44976 0.84202 0.80832 0.0
C1154 C 0.45658 0.85858 0.84207 0.0
C1155 C 0.47329 0.87267 0.8223 0.0
C1156 C 0.48322 0.87021 0.76885 0.0
C1157 C 0.47644 0.85367 0.73485 0.0
H1158 H 0.47855 0.88548 0.84851 0.0
H1159 H 0.41258 0.72415 0.52621 0.0
H1160 H 0.21155 0.58725 0.60385 0.0
H1161 H 0.22629 0.61978 0.61082 0.0
H1162 H 0.26358 0.62029 0.7655 0.0
H1163 H 0.24891 0.58785 0.75924 0.0
H1164 H 0.25178 0.64231 0.80708 0.0
H1165 H 0.2757 0.63228 0.59018 0.0
H1166 H 0.27432 0.61949 0.47001 0.0
H1167 H 0.24656 0.64506 0.38748 0.0
H1168 H 0.24756 0.65781 0.5075 0.0
H1169 H 0.31505 0.73496 0.79928 0.0
H1170 H 0.30069 0.70255 0.78846 0.0
H1171 H 0.26453 0.70282 0.63002 0.0
H1172 H 0.27915 0.73525 0.63896 0.0
H1173 H 0.27551 0.68036 0.58979 0.0
H1174 H 0.25152 0.69042 0.80559 0.0
H1175 H 0.25242 0.70298 0.92578 0.0
H1176 H 0.27972 0.67715 0.01043 0.0
H1177 H 0.27922 0.66464 0.89042 0.0
C1178 C 0.22289 0.59426 0.63935 0.0
C1179 C 0.22903 0.58484 0.68076 0.0
C1180 C 0.23137 0.61291 0.64307 0.0
C1181 C 0.2462 0.6226 0.68823 0.0
C1182 C 0.2522 0.61319 0.73019 0.0
C1183 C 0.2438 0.59458 0.72629 0.0
C1184 C 0.2554 0.64249 0.69226 0.0
C1185 C 0.25718 0.65062 0.75964 0.0
C1186 C 0.2621 0.65342 0.63029 0.0
C1187 C 0.26154 0.64584 0.55802 0.0
C1188 C 0.26918 0.63506 0.54656 0.0
C1189 C 0.26848 0.62784 0.47844 0.0
C1190 C 0.26031 0.63142 0.4212 0.0
C1191 C 0.25286 0.64228 0.43191 0.0
C1192 C 0.2535 0.64951 0.49995 0.0
C1193 C 0.30418 0.72818 0.76149 0.0
C1194 C 0.29825 0.73782 0.72031 0.0
C1195 C 0.29584 0.70957 0.75587 0.0
C1196 C 0.2813 0.7001 0.70913 0.0
C1197 C 0.27562 0.70973 0.66676 0.0
C1198 C 0.28393 0.72832 0.67243 0.0
C1199 C 0.27195 0.68019 0.7047 0.0
C1200 C 0.27013 0.67205 0.63726 0.0
C1201 C 0.26516 0.66923 0.76661 0.0
C1202 C 0.2655 0.67675 0.83882 0.0
C1203 C 0.25785 0.68754 0.84968 0.0
C1204 C 0.25827 0.69463 0.9178 0.0
C1205 C 0.26617 0.69091 0.97565 0.0
C1206 C 0.27364 0.68005 0.96553 0.0
C1207 C 0.27328 0.67295 0.89748 0.0
H1208 H 0.26647 0.6964 0.02836 0.0
H1209 H 0.25979 0.62582 0.3685 0.0
H1210 H 0.47916 0.67923 0.7591 0.0
H1211 H 0.44679 0.66087 0.76713 0.0
H1212 H 0.44729 0.62589 0.60312 0.0
H1213 H 0.47982 0.64429 0.59448 0.0
H1214 H 0.42066 0.63335 0.57986 0.0
H1215 H 0.44132 0.61338 0.77606 0.0
H1216 H 0.45842 0.61592 0.88573 0.0
H1217 H 0.43093 0.63798 0.00055 0.0
H1218 H 0.41393 0.63596 0.89102 0.0
H1219 H 0.33142 0.56305 0.63909 0.0
H1220 H 0.36384 0.58081 0.62774 0.0
H1221 H 0.3652 0.61674 0.79157 0.0
H1222 H 0.33276 0.59881 0.80433 0.0
H1223 H 0.39096 0.60817 0.8138 0.0
H1224 H 0.37071 0.62849 0.61404 0.0
H1225 H 0.35357 0.62522 0.50358 0.0
H1226 H 0.38019 0.60133 0.3952 0.0
H1227 H 0.39733 0.60424 0.50539 0.0
C1228 C 0.47245 0.66764 0.72455 0.0
C1229 C 0.4822 0.66326 0.67615 0.0
C1230 C 0.45388 0.65709 0.72949 0.0
C1231 C 0.44453 0.64186 0.68623 0.0
C1232 C 0.45417 0.63755 0.63717 0.0
C1233 C 0.4728 0.64805 0.63249 0.0
C1234 C 0.42473 0.63053 0.69235 0.0
C1235 C 0.41419 0.62764 0.63084 0.0
C1236 C 0.41618 0.62331 0.75908 0.0
C1237 C 0.42647 0.62469 0.82502 0.0
C1238 C 0.43905 0.61897 0.82444 0.0
C1239 C 0.44872 0.6203 0.88661 0.0
C1240 C 0.44579 0.62715 0.95 0.0
C1241 C 0.4332 0.6327 0.95134 0.0
C1242 C 0.42355 0.63149 0.8892 0.0
C1243 C 0.33859 0.57468 0.67302 0.0
C1244 C 0.32939 0.57946 0.72268 0.0
C1245 C 0.35717 0.58493 0.666 0.0
C1246 C 0.36705 0.60025 0.70834 0.0
C1247 C 0.35792 0.60503 0.75813 0.0
C1248 C 0.33933 0.59483 0.76493 0.0
C1249 C 0.38688 0.61111 0.70145 0.0
C1250 C 0.39743 0.6139 0.76284 0.0
C1251 C 0.39544 0.61815 0.63455 0.0
C1252 C 0.38517 0.61642 0.56821 0.0
C1253 C 0.37281 0.6224 0.56684 0.0
C1254 C 0.36311 0.62064 0.50424 0.0
C1255 C 0.36575 0.61302 0.44247 0.0
C1256 C 0.37814 0.6072 0.44312 0.0
C1257 C 0.38786 0.60892 0.50561 0.0
H1258 H 0.35823 0.61167 0.39405 0.0
H1259 H 0.45325 0.62809 -0.00189 0.0
H1260 H 0.0552 0.19835 0.8146 0.0
H1261 H 0.06009 0.20284 0.68493 0.0
H1262 H 1.00371 0.18154 0.65239 0.0
H1263 H 0.99868 0.1767 0.78251 0.0
H1264 H 1.01767 0.16789 0.55755 0.0
H1265 H 0.03247 0.22588 0.6467 0.0
H1266 H 0.04822 0.25221 0.72531 0.0
H1267 H 0.09847 0.26227 0.64003 0.0
H1268 H 0.08307 0.2358 0.56185 0.0
H1269 H 1.01968 0.19572 0.20127 0.0
H1270 H 1.01591 0.19193 0.33142 0.0
H1271 H 0.07267 0.21438 0.35673 0.0
H1272 H 0.07659 0.21865 0.22591 0.0
H1273 H 0.05924 0.22747 0.4555 0.0
H1274 H 0.04514 0.17 0.36745 0.0
H1275 H 0.02998 0.14379 0.2879 0.0
H1276 H 0.9792 0.13267 0.37117 0.0
H1277 H 0.99404 0.159 0.45045 0.0
C1278 C 0.04385 0.19465 0.77978 0.0
C1279 C 1.02656 0.18722 0.80817 0.0
C1280 C 0.04668 0.19727 0.70587 0.0
C1281 C 0.03228 0.1927 0.65941 0.0
C1282 C 1.01497 0.18516 0.68762 0.0
C1283 C 1.01212 0.18247 0.76168 0.0
C1284 C 0.03531 0.19565 0.5812 0.0
C1285 C 1.02657 0.18094 0.53506 0.0
C1286 C 0.04735 0.21263 0.55252 0.0
C1287 C 0.05661 0.22875 0.59875 0.0
C1288 C 0.04689 0.23363 0.64502 0.0
C1289 C 0.05575 0.24859 0.6895 0.0
C1290 C 0.07433 0.25889 0.68768 0.0
C1291 C 0.08408 0.25427 0.64137 0.0
C1292 C 0.07529 0.23929 0.59694 0.0
C1293 C 0.03136 0.19985 0.23454 0.0
C1294 C 0.04843 0.20743 0.20387 0.0
C1295 C 0.02918 0.19763 0.30879 0.0
C1296 C 0.044 0.20267 0.35342 0.0
C1297 C 0.0611 0.2104 0.32298 0.0
C1298 C 0.0633 0.21276 0.24851 0.0
C1299 C 0.0415 0.19973 0.43186 0.0
C1300 C 0.05036 0.21442 0.47803 0.0
C1301 C 0.02965 0.18271 0.46069 0.0
C1302 C 1.0207 0.16656 0.41454 0.0
C1303 C 0.03073 0.16202 0.36857 0.0
C1304 C 1.0222 0.14714 0.32352 0.0
C1305 C 1.00364 0.13659 0.32439 0.0
C1306 C 0.99358 0.14087 0.37054 0.0
C1307 C 1.00204 0.15575 0.41562 0.0
H1308 H 0.99706 0.12509 0.28944 0.0
H1309 H 0.08118 0.2705 0.72193 0.0
H1310 H 0.8598 0.87178 0.81448 0.0
H1311 H 0.85373 0.87125 0.68521 0.0
H1312 H 0.90165 0.86966 0.63822 0.0
H1313 H 0.90697 0.86893 0.76797 0.0
H1314 H 0.89237 0.89579 0.55416 0.0
H1315 H 0.86952 0.83281 0.62725 0.0
H1316 H 0.85085 0.80801 0.70951 0.0
H1317 H 0.80509 0.81225 0.65332 0.0
H1318 H 0.82356 0.83717 0.57116 0.0
H1319 H 0.88734 0.87248 0.19339 0.0
H1320 H 0.8914 0.87541 0.32342 0.0
H1321 H 0.83433 0.84934 0.35225 0.0
H1322 H 0.83029 0.84521 0.22176 0.0
H1323 H 0.84584 0.83841 0.45023 0.0
H1324 H 0.86298 0.89611 0.3716 0.0
H1325 H 0.87786 0.92374 0.30013 0.0
H1326 H 0.92891 0.93359 0.37401 0.0
H1327 H 0.91435 0.90588 0.44533 0.0
C1328 C 0.86853 0.87057 0.77647 0.0
C1329 C 0.88313 0.86925 0.80041 0.0
C1330 C 0.8654 0.87079 0.70297 0.0
C1331 C 0.87715 0.87018 0.65279 0.0
C1332 C 0.89243 0.87006 0.6766 0.0
C1333 C 0.89541 0.86959 0.75027 0.0
C1334 C 0.87289 0.86847 0.57555 0.0
C1335 C 0.88239 0.88325 0.53077 0.0
C1336 C 0.85912 0.85238 0.54677 0.0
C1337 C 0.84792 0.83686 0.5934 0.0
C1338 C 0.85548 0.82845 0.63254 0.0
C1339 C 0.84494 0.81438 0.67913 0.0
C1340 C 0.8268 0.80857 0.68669 0.0
C1341 C 0.81914 0.81675 0.64733 0.0
C1342 C 0.82963 0.83081 0.60065 0.0
C1343 C 0.8757 0.8672 0.22753 0.0
C1344 C 0.85855 0.8586 0.19776 0.0
C1345 C 0.878 0.86909 0.30189 0.0
C1346 C 0.86319 0.86303 0.34783 0.0
C1347 C 0.84598 0.8542 0.31804 0.0
C1348 C 0.84368 0.85187 0.24355 0.0
C1349 C 0.86578 0.86566 0.42683 0.0
C1350 C 0.85586 0.85106 0.47258 0.0
C1351 C 0.87864 0.88223 0.4569 0.0
C1352 C 0.88757 0.89883 0.41345 0.0
C1353 C 0.87739 0.90408 0.37217 0.0
C1354 C 0.88576 0.91978 0.33179 0.0
C1355 C 0.90431 0.93041 0.33258 0.0
C1356 C 0.91453 0.92534 0.37356 0.0
C1357 C 0.90623 0.90965 0.41406 0.0
H1358 H 0.91073 0.94261 0.30164 0.0
H1359 H 0.81867 0.79773 0.72299 0.0
H1360 H 0.22292 0.0693 0.78098 0.0
H1361 H 0.22117 0.06405 0.65065 0.0
H1362 H 0.19143 1.00732 0.6874 0.0
H1363 H 0.19317 1.01246 0.81728 0.0
H1364 H 0.2178 1.01685 0.58728 0.0
H1365 H 0.16984 0.02783 0.63684 0.0
H1366 H 0.15601 0.04452 0.68534 0.0
H1367 H 0.18925 0.08883 0.54855 0.0
H1368 H 0.20348 0.0725 0.49997 0.0
H1369 H 0.18896 0.99142 0.22766 0.0
H1370 H 0.18791 0.99531 0.35805 0.0
H1371 H 0.21728 0.05239 0.33093 0.0
H1372 H 0.21818 0.0486 0.20088 0.0
H1373 H 0.18996 0.04175 0.42679 0.0
H1374 H 0.23866 0.03119 0.38091 0.0
H1375 H 0.25259 1.01456 0.33268 0.0
H1376 H 0.21789 0.96944 0.4631 0.0
H1377 H 0.20358 0.98573 0.51136 0.0
C1378 C 0.21608 0.05574 0.76105 0.0
C1379 C 0.20812 0.04128 0.80867 0.0
C1380 C 0.21503 0.05277 0.68691 0.0
C1381 C 0.206 0.03531 0.65987 0.0
C1382 C 0.19841 0.02087 0.70752 0.0
C1383 C 0.1994 0.02383 0.78148 0.0
C1384 C 0.2044 0.03207 0.58171 0.0
C1385 C 0.2115 0.02208 0.5522 0.0
C1386 C 0.19643 0.03917 0.53635 0.0
C1387 C 0.18785 0.04901 0.56531 0.0
C1388 C 0.17431 0.04119 0.61754 0.0
C1389 C 0.16638 0.05058 0.64497 0.0
C1390 C 0.17178 0.06774 0.62018 0.0
C1391 C 0.1851 0.07554 0.56778 0.0
C1392 C 0.19309 0.06623 0.54024 0.0
C1393 C 0.19507 1.00476 0.24968 0.0
C1394 C 0.20382 0.01971 0.20481 0.0
C1395 C 0.1945 1.00696 0.32386 0.0
C1396 C 0.20272 0.02413 0.35376 0.0
C1397 C 0.2109 0.03905 0.30863 0.0
C1398 C 0.21148 0.03686 0.23459 0.0
C1399 C 0.20344 0.02662 0.43235 0.0
C1400 C 0.19618 0.03646 0.46194 0.0
C1401 C 0.21128 0.01939 0.47784 0.0
C1402 C 0.21992 1.00961 0.44914 0.0
C1403 C 0.2339 1.01767 0.39886 0.0
C1404 C 0.24188 1.00832 0.37159 0.0
C1405 C 0.23609 0.99093 0.39465 0.0
C1406 C 0.22234 0.98289 0.44519 0.0
C1407 C 0.2143 0.99218 0.47255 0.0
H1408 H 0.24229 0.98371 0.37349 0.0
H1409 H 0.16562 0.07498 0.64147 0.0
H1410 H 0.74536 0.55391 0.5545 0.0
H1411 H 0.74208 0.5487 0.68479 0.0
H1412 H 0.68485 0.52079 0.66198 0.0
H1413 H 0.68803 0.52581 0.53201 0.0
H1414 H 0.72639 0.55998 0.78143 0.0
H1415 H 0.66658 0.48722 0.78215 0.0
H1416 H 0.65528 0.46005 0.708 0.0
H1417 H 0.70814 0.47774 0.62921 0.0
H1418 H 0.7198 0.50487 0.70352 0.0
H1419 H 0.6672 0.50961 0.10877 0.0
H1420 H 0.6727 0.51309 0.97847 0.0
H1421 H 0.72929 0.53812 0.01661 0.0
H1422 H 0.72393 0.53487 0.14631 0.0
H1423 H 0.68973 0.5001 0.89028 0.0
H1424 H 0.75048 0.57095 0.8902 0.0
H1425 H 0.76358 0.59815 0.96478 0.0
H1426 H 0.71159 0.58431 0.04303 0.0
H1427 H 0.69813 0.55718 0.96795 0.0
C1428 C 0.7321 0.54659 0.57743 0.0
C1429 C 0.71694 0.5403 0.5337 0.0
C1430 C 0.73026 0.54366 0.65159 0.0
C1431 C 0.71324 0.53428 0.68261 0.0
C1432 C 0.69809 0.52786 0.63876 0.0
C1433 C 0.69992 0.5308 0.56474 0.0
C1434 C 0.7112 0.53174 0.76122 0.0
C1435 C 0.71863 0.54688 0.80545 0.0
C1436 C 0.7009 0.51464 0.79195 0.0
C1437 C 0.69402 0.49816 0.74803 0.0
C1438 C 0.6758 0.48527 0.7493 0.0
C1439 C 0.66933 0.46988 0.70716 0.0
C1440 C 0.68098 0.46719 0.66384 0.0
C1441 C 0.69912 0.47986 0.66262 0.0
C1442 C 0.70566 0.49526 0.70466 0.0
C1443 C 0.68079 0.5159 0.08913 0.0
C1444 C 0.69515 0.52205 0.13716 0.0
C1445 C 0.6839 0.51779 0.015 0.0
C1446 C 0.70139 0.52595 -0.01164 0.0
C1447 C 0.71572 0.53197 0.03637 0.0
C1448 C 0.71263 0.5301 0.11028 0.0
C1449 C 0.70471 0.52836 0.91024 0.0
C1450 C 0.69755 0.51318 0.86618 0.0
C1451 C 0.7155 0.54543 0.87978 0.0
C1452 C 0.72333 0.56194 0.92389 0.0
C1453 C 0.74183 0.57376 0.923 0.0
C1454 C 0.74932 0.58915 0.9654 0.0
C1455 C 0.73843 0.59293 0.00871 0.0
C1456 C 0.72001 0.58134 0.00957 0.0
C1457 C 0.71245 0.56594 0.96712 0.0
H1458 H 0.74427 0.60487 0.04135 0.0
H1459 H 0.67594 0.45527 0.63133 0.0
H1460 H 0.51633 0.21295 0.56439 0.0
H1461 H 0.52085 0.21336 0.69491 0.0
H1462 H 0.54669 0.18227 0.66646 0.0
H1463 H 0.54216 0.18173 0.53649 0.0
H1464 H 0.52099 0.169 0.77196 0.0
H1465 H 0.57108 0.22529 0.7013 0.0
H1466 H 0.58567 0.25475 0.64277 0.0
H1467 H 0.55673 0.27137 0.7798 0.0
H1468 H 0.54174 0.24189 0.83839 0.0
H1469 H 0.55915 0.17845 0.11751 0.0
H1470 H 0.55485 0.1793 -0.01252 0.0
H1471 H 0.53069 0.21172 0.02297 0.0
H1472 H 0.53518 0.21114 0.15265 0.0
H1473 H 0.55496 0.22451 0.91431 0.0
H1474 H 0.50493 0.1687 -0.01468 0.0
H1475 H 0.48983 0.13924 0.04376 0.0
H1476 H 0.51793 0.12171 0.90627 0.0
H1477 H 0.53341 0.15118 0.84767 0.0
C1478 C 0.52303 0.20629 0.58617 0.0
C1479 C 0.52883 0.19725 0.54088 0.0
C1480 C 0.52563 0.20657 0.6604 0.0
C1481 C 0.53413 0.19787 0.68982 0.0
C1482 C 0.54006 0.18899 0.64448 0.0
C1483 C 0.53749 0.18873 0.57044 0.0
C1484 C 0.5365 0.19765 0.76819 0.0
C1485 C 0.5286 0.18111 0.80309 0.0
C1486 C 0.54603 0.21352 0.80846 0.0
C1487 C 0.55515 0.23131 0.77374 0.0
C1488 C 0.56772 0.23517 0.71856 0.0
C1489 C 0.57607 0.25189 0.68544 0.0
C1490 C 0.57209 0.26491 0.70743 0.0
C1491 C 0.55978 0.26126 0.76275 0.0
C1492 C 0.55136 0.24456 0.79597 0.0
C1493 C 0.5529 0.18571 0.09739 0.0
C1494 C 0.54744 0.19469 0.14464 0.0
C1495 C 0.55042 0.18616 0.02341 0.0
C1496 C 0.54235 0.19547 -0.00393 0.0
C1497 C 0.53696 0.20449 0.04327 0.0
C1498 C 0.53946 0.20408 0.11714 0.0
C1499 C 0.53956 0.19585 0.91803 0.0
C1500 C 0.54734 0.2124 0.88321 0.0
C1501 C 0.52985 0.18 0.8778 0.0
C1502 C 0.52046 0.16221 0.91257 0.0
C1503 C 0.508 0.15861 0.96791 0.0
C1504 C 0.49935 0.1419 0.00101 0.0
C1505 C 0.50295 0.12862 0.97886 0.0
C1506 C 0.51517 0.13202 0.92342 0.0
C1507 C 0.52387 0.14872 0.8902 0.0
H1508 H 0.49624 0.11569 0.00455 0.0
H1509 H 0.57857 0.27784 0.68171 0.0
H1510 H 0.8568 0.32533 0.56076 0.0
H1511 H 0.85671 0.32935 0.69147 0.0
H1512 H 0.88664 0.3864 0.66363 0.0
H1513 H 0.88688 0.38248 0.53339 0.0
H1514 H 0.90066 0.37455 0.76803 0.0
H1515 H 0.84344 0.36658 0.69996 0.0
H1516 H 0.81393 0.35079 0.64182 0.0
H1517 H 0.79893 0.30539 0.77753 0.0
H1518 H 0.82847 0.32082 0.83576 0.0
H1519 H 0.89087 0.4028 0.11419 0.0
H1520 H 0.89011 0.39755 0.98423 0.0
H1521 H 0.85841 0.34089 0.02014 0.0
H1522 H 0.85884 0.34607 0.14973 0.0
H1523 H 0.84519 0.35164 0.91212 0.0
H1524 H 0.90166 0.35907 0.9814 0.0
H1525 H 0.9312 0.37411 0.03939 0.0
H1526 H 0.94769 0.41948 0.90184 0.0
H1527 H 0.91814 0.40481 0.84371 0.0
C1528 C 0.86327 0.3387 0.5827 0.0
C1529 C 0.87191 0.3536 0.53751 0.0
C1530 C 0.86319 0.34098 0.65705 0.0
C1531 C 0.87164 0.35817 0.6867 0.0
C1532 C 0.88012 0.37304 0.64147 0.0
C1533 C 0.8802 0.37078 0.56729 0.0
C1534 C 0.87196 0.36072 0.76514 0.0
C1535 C 0.88856 0.36974 0.79957 0.0
C1536 C 0.85611 0.35397 0.80592 0.0
C1537 C 0.83823 0.34479 0.77174 0.0
C1538 C 0.8339 0.35318 0.71707 0.0
C1539 C 0.81716 0.3443 0.68414 0.0
C1540 C 0.80458 0.32708 0.70583 0.0
C1541 C 0.80869 0.31872 0.76071 0.0
C1542 C 0.82543 0.32754 0.79374 0.0
C1543 C 0.88379 0.38925 0.09418 0.0
C1544 C 0.87496 0.37483 0.1415 0.0
C1545 C 0.8834 0.38627 0.02023 0.0
C1546 C 0.87432 0.36883 -0.00697 0.0
C1547 C 0.86547 0.35442 0.04034 0.0
C1548 C 0.8658 0.3574 0.11415 0.0
C1549 C 0.87391 0.36561 0.915 0.0
C1550 C 0.85729 0.35643 0.88065 0.0
C1551 C 0.88975 0.37211 0.87431 0.0
C1552 C 0.90762 0.3809 0.90864 0.0
C1553 C 0.91154 0.37231 0.96386 0.0
C1554 C 0.92829 0.38076 -0.00329 0.0
C1555 C 0.9413 0.39776 0.97444 0.0
C1556 C 0.9376 0.40632 0.9191 0.0
C1557 C 0.92085 0.39794 0.88613 0.0
H1558 H 0.95427 0.40428 -2e-05 0.0
H1559 H 0.79164 0.32022 0.68022 0.0
H1560 H 0.38911 0.86633 0.48239 0.0
H1561 H 0.39413 0.86918 0.35258 0.0
H1562 H 0.33778 0.84749 0.31715 0.0
H1563 H 0.33262 0.84426 0.44761 0.0
H1564 H 0.35121 0.83221 0.23014 0.0
H1565 H 0.367 0.89223 0.29518 0.0
H1566 H 0.38278 0.92095 0.35945 0.0
H1567 H 0.43307 0.9278 0.28945 0.0
H1568 H 0.41757 0.89911 0.22479 0.0
H1569 H 0.35312 0.85904 0.8699 0.0
H1570 H 0.34953 0.85352 -0.00072 0.0
H1571 H 0.40629 0.87526 0.02104 0.0
H1572 H 0.41001 0.8812 0.89129 0.0
H1573 H 0.39381 0.88969 0.11511 0.0
H1574 H 0.37764 0.83089 0.03956 0.0
H1575 H 0.36147 0.80374 0.96579 0.0
H1576 H 0.31168 0.79478 0.05222 0.0
H1577 H 0.32752 0.82206 0.12562 0.0
C1578 C 0.3778 0.86226 0.44692 0.0
C1579 C 0.36047 0.85507 0.47459 0.0
C1580 C 0.3807 0.86395 0.3729 0.0
C1581 C 0.36634 0.85868 0.32553 0.0
C1582 C 0.34901 0.85161 0.35309 0.0
C1583 C 0.34609 0.84984 0.42731 0.0
C1584 C 0.36942 0.86021 0.24713 0.0
C1585 C 0.36036 0.8448 0.20472 0.0
C1586 C 0.38179 0.87654 0.21468 0.0
C1587 C 0.39113 0.89346 0.25573 0.0
C1588 C 0.38142 0.89978 0.29414 0.0
C1589 C 0.39032 0.91608 0.33038 0.0
C1590 C 0.40892 0.92618 0.3286 0.0
C1591 C 0.41867 0.91997 0.29077 0.0
C1592 C 0.40984 0.90371 0.25419 0.0
C1593 C 0.36481 0.86252 0.90222 0.0
C1594 C 0.38186 0.87067 0.87121 0.0
C1595 C 0.36272 0.85923 0.97591 0.0
C1596 C 0.37763 0.86383 0.01932 0.0
C1597 C 0.39464 0.8716 -0.01189 0.0
C1598 C 0.39675 0.87499 0.91433 0.0
C1599 C 0.37553 0.86175 0.098 0.0
C1600 C 0.38478 0.87705 0.14054 0.0
C1601 C 0.36334 0.84533 0.13034 0.0
C1602 C 0.35378 0.82861 0.08779 0.0
C1603 C 0.36324 0.82319 0.0426 0.0
C1604 C 0.35413 0.80777 0.00082 0.0
C1605 C 0.33556 0.79756 0.00419 0.0
C1606 C 0.32607 0.8027 0.04963 0.0
C1607 C 0.33511 0.81814 0.09141 0.0
H1608 H 0.32853 0.78565 0.97167 0.0
H1609 H 0.4158 0.93885 0.35623 0.0
H1610 H 0.1815 0.54398 0.89669 0.0
H1611 H 0.18607 0.54436 0.02717 0.0
H1612 H 0.21272 0.51406 -0.00223 0.0
H1613 H 0.2081 0.51353 0.86787 0.0
H1614 H 0.18768 0.50053 0.1043 0.0
H1615 H 0.23641 0.5574 0.03191 0.0
H1616 H 0.25022 0.5868 0.97308 0.0
H1617 H 0.22076 0.60248 0.11161 0.0
H1618 H 0.20653 0.57303 0.17049 0.0
H1619 H 0.22612 0.51112 0.4498 0.0
H1620 H 0.22183 0.51184 0.31975 0.0
H1621 H 0.19665 0.54335 0.35467 0.0
H1622 H 0.20123 0.54298 0.48442 0.0
H1623 H 0.22047 0.55637 0.24566 0.0
H1624 H 0.17181 0.49964 0.31845 0.0
H1625 H 0.15799 0.47027 0.37765 0.0
H1626 H 0.18715 0.45434 0.23857 0.0
H1627 H 0.20137 0.48373 0.17924 0.0
C1628 C 0.18837 0.53746 0.91826 0.0
C1629 C 0.1944 0.52867 0.87268 0.0
C1630 C 0.191 0.53772 -0.00751 0.0
C1631 C 0.19977 0.52928 0.02168 0.0
C1632 C 0.20588 0.52059 0.97605 0.0
C1633 C 0.20327 0.52034 0.90202 0.0
C1634 C 0.20236 0.5292 0.10004 0.0
C1635 C 0.19502 0.51272 0.1352 0.0
C1636 C 0.21159 0.54516 0.14007 0.0
C1637 C 0.22025 0.56293 0.1051 0.0
C1638 C 0.23276 0.56705 0.04943 0.0
C1639 C 0.24068 0.58374 0.01614 0.0
C1640 C 0.23634 0.59648 0.03847 0.0
C1641 C 0.22409 0.59258 0.09429 0.0
C1642 C 0.2161 0.5759 0.12767 0.0
C1643 C 0.21967 0.51817 0.42956 0.0
C1644 C 0.21394 0.52693 0.4767 0.0
C1645 C 0.21719 0.51854 0.35553 0.0
C1646 C 0.20878 0.52751 0.32798 0.0
C1647 C 0.20317 0.53637 0.37509 0.0
C1648 C 0.20571 0.53607 0.449 0.0
C1649 C 0.20585 0.52768 0.24989 0.0
C1650 C 0.2131 0.54418 0.21479 0.0
C1651 C 0.1965 0.51174 0.20988 0.0
C1652 C 0.18778 0.49395 0.24483 0.0
C1653 C 0.17537 0.48992 0.3008 0.0
C1654 C 0.16745 0.47326 0.33435 0.0
C1655 C 0.17172 0.46046 0.31202 0.0
C1656 C 0.18387 0.46428 0.25589 0.0
C1657 C 0.19185 0.48093 0.22223 0.0
H1658 H 0.16559 0.44758 0.33811 0.0
H1659 H 0.24249 0.60939 0.01262 0.0
H1660 H 0.52053 0.67837 0.4774 0.0
H1661 H 0.51959 0.67335 0.34737 0.0
H1662 H 0.55732 0.7291 0.31449 0.0
H1663 H 0.55824 0.73426 0.44473 0.0
H1664 H 0.51034 0.68946 0.23522 0.0
H1665 H 0.58613 0.73053 0.18225 0.0
H1666 H 0.6143 0.73971 0.24673 0.0
H1667 H 0.58802 0.69326 0.38086 0.0
H1668 H 0.55979 0.68367 0.31645 0.0
H1669 H 0.55717 0.71428 0.86506 0.0
H1670 H 0.55648 0.71821 -0.00493 0.0
H1671 H 0.51819 0.66228 0.01865 0.0
H1672 H 0.51894 0.65819 0.88803 0.0
H1673 H 0.56502 0.70124 0.10322 0.0
H1674 H 0.48876 0.6608 0.15737 0.0
H1675 H 0.46061 0.65244 0.09436 0.0
H1676 H 0.48784 0.69816 0.95701 0.0
H1677 H 0.51601 0.7071 0.02061 0.0
C1678 C 0.5286 0.68955 0.44237 0.0
C1679 C 0.53948 0.7067 0.47061 0.0
C1680 C 0.52798 0.68667 0.36835 0.0
C1681 C 0.53841 0.70085 0.32192 0.0
C1682 C 0.54926 0.71801 0.34995 0.0
C1683 C 0.54978 0.72093 0.42399 0.0
C1684 C 0.53818 0.69764 0.24403 0.0
C1685 C 0.5222 0.69177 0.20627 0.0
C1686 C 0.5538 0.70105 0.20684 0.0
C1687 C 0.57081 0.7065 0.24498 0.0
C1688 C 0.58639 0.72224 0.22528 0.0
C1689 C 0.60236 0.72752 0.26184 0.0
C1690 C 0.60293 0.71711 0.31801 0.0
C1691 C 0.58755 0.70135 0.33753 0.0
C1692 C 0.57155 0.69601 0.30106 0.0
C1693 C 0.54859 0.70282 0.89793 0.0
C1694 C 0.53815 0.68591 0.86699 0.0
C1695 C 0.54826 0.70508 0.97199 0.0
C1696 C 0.53729 0.69053 0.01591 0.0
C1697 C 0.52667 0.67364 -0.01484 0.0
C1698 C 0.52714 0.67133 0.91094 0.0
C1699 C 0.53719 0.69309 0.09418 0.0
C1700 C 0.55313 0.69884 0.13207 0.0
C1701 C 0.52153 0.68961 0.13134 0.0
C1702 C 0.50458 0.68445 0.0931 0.0
C1703 C 0.48873 0.66909 0.11386 0.0
C1704 C 0.47276 0.66427 0.07808 0.0
C1705 C 0.47246 0.67468 0.02135 0.0
C1706 C 0.48811 0.69003 0.00066 0.0
C1707 C 0.50409 0.69499 0.0366 0.0
H1708 H 0.4601 0.67092 -0.00636 0.0
H1709 H 0.61531 0.72124 0.34631 0.0
loop_
_geom_bond_atom_site_label_1
_geom_bond_atom_site_label_2
_geom_bond_distance
_geom_bond_site_symmetry_2
_ccdc_geom_bond_type
Sm0 C2 2.846 1_554 S
Sm0 O20 2.543 1_554 S
Sm0 O21 2.450 . S
Sm0 O22 2.681 . S
Sm0 O23 2.464 . S
Sm0 O24 2.396 . S
Sm0 O28 2.386 1_554 S
Sm0 O31 2.408 . S
Sm1 C11 2.846 . S
Sm1 O22 2.386 1_655 S
Sm1 O25 2.408 . S
Sm1 O26 2.543 . S
Sm1 O27 2.450 1_554 S
Sm1 O28 2.681 1_654 S
Sm1 O29 2.464 1_554 S
Sm1 O30 2.396 1_654 S
C2 Sm0 2.846 1_556 S
C2 C3 1.506 . S
C2 O20 1.261 . S
C2 O21 1.242 1_556 S
C3 C2 1.506 . S
C3 C4 1.358 . S
C3 C8 1.382 1_556 S
C4 C3 1.358 . S
C4 C5 1.385 . S
C4 H32 0.930 . S
C5 C4 1.385 . S
C5 C6 1.395 . S
C5 H33 0.929 . S
C6 C5 1.395 . S
C6 C7 1.335 1_556 S
C7 C6 1.335 1_554 S
C7 C8 1.398 . S
C7 H34 0.930 . S
C8 C3 1.382 1_554 S
C8 C7 1.398 . S
C8 H35 0.929 . S
C9 O22 1.271 . S
C9 O23 1.251 . S
C10 O24 1.252 1_655 S
C10 O25 1.272 . S
C11 Sm1 2.846 . S
C11 C12 1.506 . S
C11 O26 1.261 . S
C11 O27 1.242 1_554 S
C12 C11 1.506 . S
C12 C13 1.358 . S
C12 C17 1.382 1_554 S
C13 C12 1.358 . S
C13 C14 1.385 . S
C13 H36 0.930 . S
C14 C13 1.385 . S
C14 C15 1.395 . S
C14 H37 0.929 . S
C15 C14 1.395 . S
C15 C16 1.335 1_554 S
C16 C15 1.335 1_556 S
C16 C17 1.398 . S
C16 H38 0.930 . S
C17 C12 1.382 1_556 S
C17 C16 1.398 . S
C17 H39 0.929 . S
C18 O28 1.271 . S
C18 O29 1.251 1_455 S
C19 O30 1.252 . S
C19 O31 1.272 1_556 S
O20 Sm0 2.543 1_556 S
O20 C2 1.261 . S
O21 Sm0 2.450 . S
O21 C2 1.242 1_554 S
O22 Sm0 2.681 . S
O22 Sm1 2.386 1_455 S
O22 C9 1.271 . S
O23 Sm0 2.464 . S
O23 C9 1.251 . S
O24 Sm0 2.396 . S
O24 C10 1.252 1_455 S
O25 Sm1 2.408 . S
O25 C10 1.272 . S
O26 Sm1 2.543 . S
O26 C11 1.261 . S
O27 Sm1 2.450 1_556 S
O27 C11 1.242 1_556 S
O28 Sm0 2.386 1_556 S
O28 Sm1 2.681 1_456 S
O28 C18 1.271 . S
O29 Sm1 2.464 1_556 S
O29 C18 1.251 1_655 S
O30 Sm1 2.396 1_456 S
O30 C19 1.252 . S
O31 Sm0 2.408 . S
O31 C19 1.272 1_554 S
H32 C4 0.930 . S
H33 C5 0.929 . S
H34 C7 0.930 . S
H35 C8 0.929 . S
H36 C13 0.930 . S
H37 C14 0.929 . S
H38 C16 0.930 . S
H39 C17 0.929 . S
Sm40 C42 2.846 1_554 S
Sm40 O60 2.543 1_554 S
Sm40 O61 2.450 . S
Sm40 O62 2.681 . S
Sm40 O63 2.464 . S
Sm40 O64 2.396 . S
Sm40 O68 2.386 1_554 S
Sm40 O71 2.408 . S
Sm41 C51 2.846 . S
Sm41 O62 2.386 . S
Sm41 O65 2.408 . S
Sm41 O66 2.543 . S
Sm41 O67 2.450 1_554 S
Sm41 O68 2.681 1_554 S
Sm41 O69 2.464 1_554 S
Sm41 O70 2.396 1_554 S
C42 Sm40 2.846 1_556 S
C42 C43 1.506 . S
C42 O60 1.261 . S
C42 O61 1.242 1_556 S
C43 C42 1.506 . S
C43 C44 1.358 . S
C43 C48 1.382 1_556 S
C44 C43 1.358 . S
C44 C45 1.385 . S
C44 H72 0.930 . S
C45 C44 1.385 . S
C45 C46 1.395 . S
C45 H73 0.929 . S
C46 C45 1.395 . S
C46 C47 1.335 1_556 S
C47 C46 1.335 1_554 S
C47 C48 1.398 . S
C47 H74 0.930 . S
C48 C43 1.382 1_554 S
C48 C47 1.398 . S
C48 H75 0.929 . S
C49 O62 1.271 . S
C49 O63 1.251 . S
C50 O64 1.252 . S
C50 O65 1.272 . S
C51 Sm41 2.846 . S
C51 C52 1.506 . S
C51 O66 1.261 . S
C51 O67 1.242 1_554 S
C52 C51 1.506 . S
C52 C53 1.358 . S
C52 C57 1.382 1_554 S
C53 C52 1.358 . S
C53 C54 1.385 . S
C53 H76 0.930 . S
C54 C53 1.385 . S
C54 C55 1.395 . S
C54 H77 0.929 . S
C55 C54 1.395 . S
C55 C56 1.335 1_554 S
C56 C55 1.335 1_556 S
C56 C57 1.398 . S
C56 H78 0.930 . S
C57 C52 1.382 1_556 S
C57 C56 1.398 . S
C57 H79 0.929 . S
C58 O68 1.271 . S
C58 O69 1.251 . S
C59 O70 1.252 . S
C59 O71 1.272 1_556 S
O60 Sm40 2.543 1_556 S
O60 C42 1.261 . S
O61 Sm40 2.450 . S
O61 C42 1.242 1_554 S
O62 Sm40 2.681 . S
O62 Sm41 2.386 . S
O62 C49 1.271 . S
O63 Sm40 2.464 . S
O63 C49 1.251 . S
O64 Sm40 2.396 . S
O64 C50 1.252 . S
O65 Sm41 2.408 . S
O65 C50 1.272 . S
O66 Sm41 2.543 . S
O66 C51 1.261 . S
O67 Sm41 2.450 1_556 S
O67 C51 1.242 1_556 S
O68 Sm40 2.386 1_556 S
O68 Sm41 2.681 1_556 S
O68 C58 1.271 . S
O69 Sm41 2.464 1_556 S
O69 C58 1.251 . S
O70 Sm41 2.396 1_556 S
O70 C59 1.252 . S
O71 Sm40 2.408 . S
O71 C59 1.272 1_554 S
H72 C44 0.930 . S
H73 C45 0.929 . S
H74 C47 0.930 . S
H75 C48 0.929 . S
H76 C53 0.930 . S
H77 C54 0.929 . S
H78 C56 0.930 . S
H79 C57 0.929 . S
Sm80 C82 2.846 1_554 S
Sm80 O100 2.543 1_554 S
Sm80 O101 2.450 . S
Sm80 O102 2.681 1_565 S
Sm80 O103 2.464 . S
Sm80 O104 2.396 1_565 S
Sm80 O108 2.386 1_564 S
Sm80 O111 2.408 . S
Sm81 C91 2.846 . S
Sm81 O102 2.386 . S
Sm81 O105 2.408 . S
Sm81 O106 2.543 . S
Sm81 O107 2.450 1_554 S
Sm81 O108 2.681 1_554 S
Sm81 O109 2.464 1_554 S
Sm81 O110 2.396 1_554 S
C82 Sm80 2.846 1_556 S
C82 C83 1.506 . S
C82 O100 1.261 . S
C82 O101 1.242 1_556 S
C83 C82 1.506 . S
C83 C84 1.358 . S
C83 C88 1.382 1_556 S
C84 C83 1.358 . S
C84 C85 1.385 . S
C84 H112 0.930 . S
C85 C84 1.385 . S
C85 C86 1.395 . S
C85 H113 0.929 . S
C86 C85 1.395 . S
C86 C87 1.335 1_556 S
C87 C86 1.335 1_554 S
C87 C88 1.398 . S
C87 H114 0.930 . S
C88 C83 1.382 1_554 S
C88 C87 1.398 . S
C88 H115 0.929 . S
C89 O102 1.271 . S
C89 O103 1.251 1_545 S
C90 O104 1.252 . S
C90 O105 1.272 . S
C91 Sm81 2.846 . S
C91 C92 1.506 . S
C91 O106 1.261 . S
C91 O107 1.242 1_554 S
C92 C91 1.506 . S
C92 C93 1.358 . S
C92 C97 1.382 1_554 S
C93 C92 1.358 . S
C93 C94 1.385 . S
C93 H116 0.930 . S
C94 C93 1.385 . S
C94 C95 1.395 . S
C94 H117 0.929 . S
C95 C94 1.395 . S
C95 C96 1.335 1_554 S
C96 C95 1.335 1_556 S
C96 C97 1.398 . S
C96 H118 0.930 . S
C97 C92 1.382 1_556 S
C97 C96 1.398 . S
C97 H119 0.929 . S
C98 O108 1.271 . S
C98 O109 1.251 . S
C99 O110 1.252 1_565 S
C99 O111 1.272 1_556 S
O100 Sm80 2.543 1_556 S
O100 C82 1.261 . S
O101 Sm80 2.450 . S
O101 C82 1.242 1_554 S
O102 Sm80 2.681 1_545 S
O102 Sm81 2.386 . S
O102 C89 1.271 . S
O103 Sm80 2.464 . S
O103 C89 1.251 1_565 S
O104 Sm80 2.396 1_545 S
O104 C90 1.252 . S
O105 Sm81 2.408 . S
O105 C90 1.272 . S
O106 Sm81 2.543 . S
O106 C91 1.261 . S
O107 Sm81 2.450 1_556 S
O107 C91 1.242 1_556 S
O108 Sm80 2.386 1_546 S
O108 Sm81 2.681 1_556 S
O108 C98 1.271 . S
O109 Sm81 2.464 1_556 S
O109 C98 1.251 . S
O110 Sm81 2.396 1_556 S
O110 C99 1.252 1_545 S
O111 Sm80 2.408 . S
O111 C99 1.272 1_554 S
H112 C84 0.930 . S
H113 C85 0.929 . S
H114 C87 0.930 . S
H115 C88 0.929 . S
H116 C93 0.930 . S
H117 C94 0.929 . S
H118 C96 0.930 . S
H119 C97 0.929 . S
Sm120 C122 2.846 . S
Sm120 O140 2.543 . S
Sm120 O141 2.450 . S
Sm120 O142 2.681 . S
Sm120 O143 2.464 . S
Sm120 O144 2.396 . S
Sm120 O148 2.386 . S
Sm120 O151 2.408 . S
Sm121 C131 2.846 . S
Sm121 O142 2.386 . S
Sm121 O145 2.408 . S
Sm121 O146 2.543 . S
Sm121 O147 2.450 . S
Sm121 O148 2.681 . S
Sm121 O149 2.464 . S
Sm121 O150 2.396 . S
C122 Sm120 2.846 . S
C122 C123 1.506 . S
C122 O140 1.261 . S
C122 O141 1.242 . S
C123 C122 1.506 . S
C123 C124 1.358 . S
C123 C128 1.382 . S
C124 C123 1.358 . S
C124 C125 1.385 . S
C124 H152 0.930 . S
C125 C124 1.385 . S
C125 C126 1.395 . S
C125 H153 0.929 . S
C126 C125 1.395 . S
C126 C127 1.335 . S
C127 C126 1.335 . S
C127 C128 1.398 . S
C127 H154 0.930 . S
C128 C123 1.382 . S
C128 C127 1.398 . S
C128 H155 0.929 . S
C129 O142 1.271 . S
C129 O143 1.251 . S
C130 O144 1.252 . S
C130 O145 1.272 . S
C131 Sm121 2.846 . S
C131 C132 1.506 . S
C131 O146 1.261 . S
C131 O147 1.242 . S
C132 C131 1.506 . S
C132 C133 1.358 . S
C132 C137 1.382 . S
C133 C132 1.358 . S
C133 C134 1.385 . S
C133 H156 0.930 . S
C134 C133 1.385 . S
C134 C135 1.395 . S
C134 H157 0.929 . S
C135 C134 1.395 . S
C135 C136 1.335 . S
C136 C135 1.335 . S
C136 C137 1.398 . S
C136 H158 0.930 . S
C137 C132 1.382 . S
C137 C136 1.398 . S
C137 H159 0.929 . S
C138 O148 1.271 . S
C138 O149 1.251 . S
C139 O150 1.252 . S
C139 O151 1.272 . S
O140 Sm120 2.543 . S
O140 C122 1.261 . S
O141 Sm120 2.450 . S
O141 C122 1.242 . S
O142 Sm120 2.681 . S
O142 Sm121 2.386 . S
O142 C129 1.271 . S
O143 Sm120 2.464 . S
O143 C129 1.251 . S
O144 Sm120 2.396 . S
O144 C130 1.252 . S
O145 Sm121 2.408 . S
O145 C130 1.272 . S
O146 Sm121 2.543 . S
O146 C131 1.261 . S
O147 Sm121 2.450 . S
O147 C131 1.242 . S
O148 Sm120 2.386 . S
O148 Sm121 2.681 . S
O148 C138 1.271 . S
O149 Sm121 2.464 . S
O149 C138 1.251 . S
O150 Sm121 2.396 . S
O150 C139 1.252 . S
O151 Sm120 2.408 . S
O151 C139 1.272 . S
H152 C124 0.930 . S
H153 C125 0.929 . S
H154 C127 0.930 . S
H155 C128 0.929 . S
H156 C133 0.930 . S
H157 C134 0.929 . S
H158 C136 0.930 . S
H159 C137 0.929 . S
Sm160 C162 2.846 . S
Sm160 O180 2.543 . S
Sm160 O181 2.450 . S
Sm160 O182 2.681 . S
Sm160 O183 2.464 . S
Sm160 O184 2.396 . S
Sm160 O188 2.386 . S
Sm160 O191 2.408 . S
Sm161 C171 2.846 . S
Sm161 O182 2.386 . S
Sm161 O185 2.408 . S
Sm161 O186 2.543 . S
Sm161 O187 2.450 . S
Sm161 O188 2.681 . S
Sm161 O189 2.464 . S
Sm161 O190 2.396 . S
C162 Sm160 2.846 . S
C162 C163 1.506 . S
C162 O180 1.261 . S
C162 O181 1.242 . S
C163 C162 1.506 . S
C163 C164 1.358 . S
C163 C168 1.382 . S
C164 C163 1.358 . S
C164 C165 1.385 . S
C164 H192 0.930 . S
C165 C164 1.385 . S
C165 C166 1.395 . S
C165 H193 0.929 . S
C166 C165 1.395 . S
C166 C167 1.335 . S
C167 C166 1.335 . S
C167 C168 1.398 . S
C167 H194 0.930 . S
C168 C163 1.382 . S
C168 C167 1.398 . S
C168 H195 0.929 . S
C169 O182 1.271 . S
C169 O183 1.251 . S
C170 O184 1.252 . S
C170 O185 1.272 . S
C171 Sm161 2.846 . S
C171 C172 1.506 . S
C171 O186 1.261 . S
C171 O187 1.242 . S
C172 C171 1.506 . S
C172 C173 1.358 . S
C172 C177 1.382 . S
C173 C172 1.358 . S
C173 C174 1.385 . S
C173 H196 0.930 . S
C174 C173 1.385 . S
C174 C175 1.395 . S
C174 H197 0.929 . S
C175 C174 1.395 . S
C175 C176 1.335 . S
C176 C175 1.335 . S
C176 C177 1.398 . S
C176 H198 0.930 . S
C177 C172 1.382 . S
C177 C176 1.398 . S
C177 H199 0.929 . S
C178 O188 1.271 . S
C178 O189 1.251 . S
C179 O190 1.252 . S
C179 O191 1.272 . S
O180 Sm160 2.543 . S
O180 C162 1.261 . S
O181 Sm160 2.450 . S
O181 C162 1.242 . S
O182 Sm160 2.681 . S
O182 Sm161 2.386 . S
O182 C169 1.271 . S
O183 Sm160 2.464 . S
O183 C169 1.251 . S
O184 Sm160 2.396 . S
O184 C170 1.252 . S
O185 Sm161 2.408 . S
O185 C170 1.272 . S
O186 Sm161 2.543 . S
O186 C171 1.261 . S
O187 Sm161 2.450 . S
O187 C171 1.242 . S
O188 Sm160 2.386 . S
O188 Sm161 2.681 . S
O188 C178 1.271 . S
O189 Sm161 2.464 . S
O189 C178 1.251 . S
O190 Sm161 2.396 . S
O190 C179 1.252 . S
O191 Sm160 2.408 . S
O191 C179 1.272 . S
H192 C164 0.930 . S
H193 C165 0.929 . S
H194 C167 0.930 . S
H195 C168 0.929 . S
H196 C173 0.930 . S
H197 C174 0.929 . S
H198 C176 0.930 . S
H199 C177 0.929 . S
Sm200 C202 2.846 . S
Sm200 O220 2.543 . S
Sm200 O221 2.450 . S
Sm200 O222 2.681 . S
Sm200 O223 2.464 . S
Sm200 O224 2.396 . S
Sm200 O228 2.386 . S
Sm200 O231 2.408 . S
Sm201 C211 2.846 . S
Sm201 O222 2.386 . S
Sm201 O225 2.408 . S
Sm201 O226 2.543 . S
Sm201 O227 2.450 . S
Sm201 O228 2.681 . S
Sm201 O229 2.464 . S
Sm201 O230 2.396 . S
C202 Sm200 2.846 . S
C202 C203 1.506 . S
C202 O220 1.261 . S
C202 O221 1.242 . S
C203 C202 1.506 . S
C203 C204 1.358 . S
C203 C208 1.382 . S
C204 C203 1.358 . S
C204 C205 1.385 . S
C204 H232 0.930 . S
C205 C204 1.385 . S
C205 C206 1.395 . S
C205 H233 0.929 . S
C206 C205 1.395 . S
C206 C207 1.335 . S
C207 C206 1.335 . S
C207 C208 1.398 . S
C207 H234 0.930 . S
C208 C203 1.382 . S
C208 C207 1.398 . S
C208 H235 0.929 . S
C209 O222 1.271 . S
C209 O223 1.251 . S
C210 O224 1.252 . S
C210 O225 1.272 . S
C211 Sm201 2.846 . S
C211 C212 1.506 . S
C211 O226 1.261 . S
C211 O227 1.242 . S
C212 C211 1.506 . S
C212 C213 1.358 . S
C212 C217 1.382 . S
C213 C212 1.358 . S
C213 C214 1.385 . S
C213 H236 0.930 . S
C214 C213 1.385 . S
C214 C215 1.395 . S
C214 H237 0.929 . S
C215 C214 1.395 . S
C215 C216 1.335 . S
C216 C215 1.335 . S
C216 C217 1.398 . S
C216 H238 0.930 . S
C217 C212 1.382 . S
C217 C216 1.398 . S
C217 H239 0.929 . S
C218 O228 1.271 . S
C218 O229 1.251 . S
C219 O230 1.252 . S
C219 O231 1.272 . S
O220 Sm200 2.543 . S
O220 C202 1.261 . S
O221 Sm200 2.450 . S
O221 C202 1.242 . S
O222 Sm200 2.681 . S
O222 Sm201 2.386 . S
O222 C209 1.271 . S
O223 Sm200 2.464 . S
O223 C209 1.251 . S
O224 Sm200 2.396 . S
O224 C210 1.252 . S
O225 Sm201 2.408 . S
O225 C210 1.272 . S
O226 Sm201 2.543 . S
O226 C211 1.261 . S
O227 Sm201 2.450 . S
O227 C211 1.242 . S
O228 Sm200 2.386 . S
O228 Sm201 2.681 . S
O228 C218 1.271 . S
O229 Sm201 2.464 . S
O229 C218 1.251 . S
O230 Sm201 2.396 . S
O230 C219 1.252 . S
O231 Sm200 2.408 . S
O231 C219 1.272 . S
H232 C204 0.930 . S
H233 C205 0.929 . S
H234 C207 0.930 . S
H235 C208 0.929 . S
H236 C213 0.930 . S
H237 C214 0.929 . S
H238 C216 0.930 . S
H239 C217 0.929 . S
Sm240 C242 2.846 . S
Sm240 O260 2.543 . S
Sm240 O261 2.450 . S
Sm240 O262 2.681 . S
Sm240 O263 2.464 . S
Sm240 O264 2.396 . S
Sm240 O268 2.386 . S
Sm240 O271 2.408 . S
Sm241 C251 2.846 . S
Sm241 O262 2.386 . S
Sm241 O265 2.408 . S
Sm241 O266 2.543 . S
Sm241 O267 2.450 . S
Sm241 O268 2.681 . S
Sm241 O269 2.464 . S
Sm241 O270 2.396 . S
C242 Sm240 2.846 . S
C242 C243 1.506 . S
C242 O260 1.261 . S
C242 O261 1.242 . S
C243 C242 1.506 . S
C243 C244 1.358 . S
C243 C248 1.382 . S
C244 C243 1.358 . S
C244 C245 1.385 . S
C244 H272 0.930 . S
C245 C244 1.385 . S
C245 C246 1.395 . S
C245 H273 0.929 . S
C246 C245 1.395 . S
C246 C247 1.335 . S
C247 C246 1.335 . S
C247 C248 1.398 . S
C247 H274 0.930 . S
C248 C243 1.382 . S
C248 C247 1.398 . S
C248 H275 0.929 . S
C249 O262 1.271 . S
C249 O263 1.251 . S
C250 O264 1.252 . S
C250 O265 1.272 . S
C251 Sm241 2.846 . S
C251 C252 1.506 . S
C251 O266 1.261 . S
C251 O267 1.242 . S
C252 C251 1.506 . S
C252 C253 1.358 . S
C252 C257 1.382 . S
C253 C252 1.358 . S
C253 C254 1.385 . S
C253 H276 0.930 . S
C254 C253 1.385 . S
C254 C255 1.395 . S
C254 H277 0.929 . S
C255 C254 1.395 . S
C255 C256 1.335 . S
C256 C255 1.335 . S
C256 C257 1.398 . S
C256 H278 0.930 . S
C257 C252 1.382 . S
C257 C256 1.398 . S
C257 H279 0.929 . S
C258 O268 1.271 . S
C258 O269 1.251 . S
C259 O270 1.252 . S
C259 O271 1.272 . S
O260 Sm240 2.543 . S
O260 C242 1.261 . S
O261 Sm240 2.450 . S
O261 C242 1.242 . S
O262 Sm240 2.681 . S
O262 Sm241 2.386 . S
O262 C249 1.271 . S
O263 Sm240 2.464 . S
O263 C249 1.251 . S
O264 Sm240 2.396 . S
O264 C250 1.252 . S
O265 Sm241 2.408 . S
O265 C250 1.272 . S
O266 Sm241 2.543 . S
O266 C251 1.261 . S
O267 Sm241 2.450 . S
O267 C251 1.242 . S
O268 Sm240 2.386 . S
O268 Sm241 2.681 . S
O268 C258 1.271 . S
O269 Sm241 2.464 . S
O269 C258 1.251 . S
O270 Sm241 2.396 . S
O270 C259 1.252 . S
O271 Sm240 2.408 . S
O271 C259 1.272 . S
H272 C244 0.930 . S
H273 C245 0.929 . S
H274 C247 0.930 . S
H275 C248 0.929 . S
H276 C253 0.930 . S
H277 C254 0.929 . S
H278 C256 0.930 . S
H279 C257 0.929 . S
Sm280 C282 2.846 . S
Sm280 O300 2.543 . S
Sm280 O301 2.450 . S
Sm280 O302 2.681 . S
Sm280 O303 2.464 . S
Sm280 O304 2.396 . S
Sm280 O308 2.386 . S
Sm280 O311 2.408 . S
Sm281 C291 2.846 . S
Sm281 O302 2.386 . S
Sm281 O305 2.408 . S
Sm281 O306 2.543 . S
Sm281 O307 2.450 . S
Sm281 O308 2.681 . S
Sm281 O309 2.464 . S
Sm281 O310 2.396 . S
C282 Sm280 2.846 . S
C282 C283 1.506 . S
C282 O300 1.261 . S
C282 O301 1.242 . S
C283 C282 1.506 . S
C283 C284 1.358 . S
C283 C288 1.382 . S
C284 C283 1.358 . S
C284 C285 1.385 . S
C284 H312 0.930 . S
C285 C284 1.385 . S
C285 C286 1.395 . S
C285 H313 0.929 . S
C286 C285 1.395 . S
C286 C287 1.335 . S
C287 C286 1.335 . S
C287 C288 1.398 . S
C287 H314 0.930 . S
C288 C283 1.382 . S
C288 C287 1.398 . S
C288 H315 0.929 . S
C289 O302 1.271 . S
C289 O303 1.251 . S
C290 O304 1.252 . S
C290 O305 1.272 . S
C291 Sm281 2.846 . S
C291 C292 1.506 . S
C291 O306 1.261 . S
C291 O307 1.242 . S
C292 C291 1.506 . S
C292 C293 1.358 . S
C292 C297 1.382 . S
C293 C292 1.358 . S
C293 C294 1.385 . S
C293 H316 0.930 . S
C294 C293 1.385 . S
C294 C295 1.395 . S
C294 H317 0.929 . S
C295 C294 1.395 . S
C295 C296 1.335 . S
C296 C295 1.335 . S
C296 C297 1.398 . S
C296 H318 0.930 . S
C297 C292 1.382 . S
C297 C296 1.398 . S
C297 H319 0.929 . S
C298 O308 1.271 . S
C298 O309 1.251 . S
C299 O310 1.252 . S
C299 O311 1.272 . S
O300 Sm280 2.543 . S
O300 C282 1.261 . S
O301 Sm280 2.450 . S
O301 C282 1.242 . S
O302 Sm280 2.681 . S
O302 Sm281 2.386 . S
O302 C289 1.271 . S
O303 Sm280 2.464 . S
O303 C289 1.251 . S
O304 Sm280 2.396 . S
O304 C290 1.252 . S
O305 Sm281 2.408 . S
O305 C290 1.272 . S
O306 Sm281 2.543 . S
O306 C291 1.261 . S
O307 Sm281 2.450 . S
O307 C291 1.242 . S
O308 Sm280 2.386 . S
O308 Sm281 2.681 . S
O308 C298 1.271 . S
O309 Sm281 2.464 . S
O309 C298 1.251 . S
O310 Sm281 2.396 . S
O310 C299 1.252 . S
O311 Sm280 2.408 . S
O311 C299 1.272 . S
H312 C284 0.930 . S
H313 C285 0.929 . S
H314 C287 0.930 . S
H315 C288 0.929 . S
H316 C293 0.930 . S
H317 C294 0.929 . S
H318 C296 0.930 . S
H319 C297 0.929 . S
Sm320 C322 2.846 . S
Sm320 O340 2.543 . S
Sm320 O341 2.450 . S
Sm320 O342 2.681 . S
Sm320 O343 2.464 . S
Sm320 O344 2.396 . S
Sm320 O348 2.386 . S
Sm320 O351 2.408 . S
Sm321 C331 2.846 . S
Sm321 O342 2.386 . S
Sm321 O345 2.408 . S
Sm321 O346 2.543 . S
Sm321 O347 2.450 . S
Sm321 O348 2.681 . S
Sm321 O349 2.464 . S
Sm321 O350 2.396 . S
C322 Sm320 2.846 . S
C322 C323 1.506 . S
C322 O340 1.261 . S
C322 O341 1.242 . S
C323 C322 1.506 . S
C323 C324 1.358 . S
C323 C328 1.382 . S
C324 C323 1.358 . S
C324 C325 1.385 . S
C324 H352 0.930 . S
C325 C324 1.385 . S
C325 C326 1.395 . S
C325 H353 0.929 . S
C326 C325 1.395 . S
C326 C327 1.335 . S
C327 C326 1.335 . S
C327 C328 1.398 . S
C327 H354 0.930 . S
C328 C323 1.382 . S
C328 C327 1.398 . S
C328 H355 0.929 . S
C329 O342 1.271 . S
C329 O343 1.251 . S
C330 O344 1.252 . S
C330 O345 1.272 . S
C331 Sm321 2.846 . S
C331 C332 1.506 . S
C331 O346 1.261 . S
C331 O347 1.242 . S
C332 C331 1.506 . S
C332 C333 1.358 . S
C332 C337 1.382 . S
C333 C332 1.358 . S
C333 C334 1.385 . S
C333 H356 0.930 . S
C334 C333 1.385 . S
C334 C335 1.395 . S
C334 H357 0.929 . S
C335 C334 1.395 . S
C335 C336 1.335 . S
C336 C335 1.335 . S
C336 C337 1.398 . S
C336 H358 0.930 . S
C337 C332 1.382 . S
C337 C336 1.398 . S
C337 H359 0.929 . S
C338 O348 1.271 . S
C338 O349 1.251 . S
C339 O350 1.252 . S
C339 O351 1.272 . S
O340 Sm320 2.543 . S
O340 C322 1.261 . S
O341 Sm320 2.450 . S
O341 C322 1.242 . S
O342 Sm320 2.681 . S
O342 Sm321 2.386 . S
O342 C329 1.271 . S
O343 Sm320 2.464 . S
O343 C329 1.251 . S
O344 Sm320 2.396 . S
O344 C330 1.252 . S
O345 Sm321 2.408 . S
O345 C330 1.272 . S
O346 Sm321 2.543 . S
O346 C331 1.261 . S
O347 Sm321 2.450 . S
O347 C331 1.242 . S
O348 Sm320 2.386 . S
O348 Sm321 2.681 . S
O348 C338 1.271 . S
O349 Sm321 2.464 . S
O349 C338 1.251 . S
O350 Sm321 2.396 . S
O350 C339 1.252 . S
O351 Sm320 2.408 . S
O351 C339 1.272 . S
H352 C324 0.930 . S
H353 C325 0.929 . S
H354 C327 0.930 . S
H355 C328 0.929 . S
H356 C333 0.930 . S
H357 C334 0.929 . S
H358 C336 0.930 . S
H359 C337 0.929 . S
H360 C378 0.951 1_554 S
H361 C380 0.951 . S
H362 C382 0.950 . S
H363 C383 0.950 . S
H364 C385 0.950 . S
H365 C388 0.950 . S
H366 C389 0.950 . S
H367 C391 0.950 . S
H368 C392 0.950 1_554 S
H369 C393 0.951 . S
H370 C395 0.951 . S
H371 C397 0.950 . S
H372 C398 0.950 . S
H373 C400 0.950 . S
H374 C403 0.950 . S
H375 C404 0.950 . S
H376 C406 0.950 . S
H377 C407 0.950 . S
C378 H360 0.951 1_556 S
C378 C379 1.366 . S
C378 C380 1.388 . S
C379 C378 1.366 . S
C379 C383 1.385 . S
C380 H361 0.951 . S
C380 C378 1.388 . S
C380 C381 1.366 . S
C381 C380 1.366 . S
C381 C382 1.414 . S
C381 C384 1.499 . S
C382 H362 0.950 . S
C382 C381 1.414 . S
C382 C383 1.374 . S
C383 H363 0.950 . S
C383 C379 1.385 . S
C383 C382 1.374 . S
C384 C381 1.499 . S
C384 C385 1.373 . S
C384 C386 1.389 . S
C385 H364 0.950 . S
C385 C384 1.373 . S
C385 C401 1.377 . S
C386 C384 1.389 . S
C386 C387 1.524 . S
C386 C400 1.377 . S
C387 C386 1.524 . S
C387 C388 1.397 . S
C387 C392 1.363 . S
C388 H365 0.950 . S
C388 C387 1.397 . S
C388 C389 1.334 . S
C389 H366 0.950 . S
C389 C388 1.334 . S
C389 C390 1.287 1_556 S
C390 C389 1.287 1_554 S
C390 C391 1.524 . S
C390 H409 0.913 . S
C391 H367 0.950 . S
C391 C390 1.524 . S
C391 C392 1.415 1_554 S
C392 H368 0.950 1_556 S
C392 C387 1.363 . S
C392 C391 1.415 1_556 S
C393 H369 0.951 . S
C393 C394 1.366 . S
C393 C395 1.388 . S
C394 C393 1.366 . S
C394 C398 1.385 . S
C395 H370 0.951 . S
C395 C393 1.388 . S
C395 C396 1.366 . S
C396 C395 1.366 . S
C396 C397 1.414 . S
C396 C399 1.499 . S
C397 H371 0.950 . S
C397 C396 1.414 . S
C397 C398 1.374 . S
C398 H372 0.950 . S
C398 C394 1.385 . S
C398 C397 1.374 . S
C399 C396 1.499 . S
C399 C400 1.373 . S
C399 C401 1.389 . S
C400 H373 0.950 . S
C400 C386 1.377 . S
C400 C399 1.373 . S
C401 C385 1.377 . S
C401 C399 1.389 . S
C401 C402 1.524 . S
C402 C401 1.524 . S
C402 C403 1.397 . S
C402 C407 1.363 . S
C403 H374 0.950 . S
C403 C402 1.397 . S
C403 C404 1.334 . S
C404 H375 0.950 . S
C404 C403 1.334 . S
C404 C405 1.287 . S
C405 C404 1.287 . S
C405 C406 1.524 . S
C405 H408 0.999 . S
C406 H376 0.950 . S
C406 C405 1.524 . S
C406 C407 1.415 . S
C407 H377 0.950 . S
C407 C402 1.363 . S
C407 C406 1.415 . S
H408 C405 0.999 . S
H409 C390 0.913 . S
H410 C428 0.951 1_554 S
H411 C430 0.951 . S
H412 C432 0.950 . S
H413 C433 0.950 . S
H414 C435 0.950 . S
H415 C438 0.950 . S
H416 C439 0.950 . S
H417 C441 0.950 1_554 S
H418 C442 0.950 . S
H419 C443 0.951 . S
H420 C445 0.951 . S
H421 C447 0.950 . S
H422 C448 0.950 . S
H423 C450 0.950 . S
H424 C453 0.950 . S
H425 C454 0.950 . S
H426 C456 0.950 . S
H427 C457 0.950 . S
C428 H410 0.951 1_556 S
C428 C429 1.366 . S
C428 C430 1.388 . S
C429 C428 1.366 . S
C429 C433 1.385 . S
C430 H411 0.951 . S
C430 C428 1.388 . S
C430 C431 1.366 . S
C431 C430 1.366 . S
C431 C432 1.414 . S
C431 C434 1.499 . S
C432 H412 0.950 . S
C432 C431 1.414 . S
C432 C433 1.374 . S
C433 H413 0.950 . S
C433 C429 1.385 . S
C433 C432 1.374 . S
C434 C431 1.499 . S
C434 C435 1.373 . S
C434 C436 1.389 . S
C435 H414 0.950 . S
C435 C434 1.373 . S
C435 C451 1.377 . S
C436 C434 1.389 . S
C436 C437 1.524 . S
C436 C450 1.377 . S
C437 C436 1.524 . S
C437 C438 1.397 . S
C437 C442 1.363 . S
C438 H415 0.950 . S
C438 C437 1.397 . S
C438 C439 1.334 . S
C439 H416 0.950 . S
C439 C438 1.334 . S
C439 C440 1.287 . S
C440 C439 1.287 . S
C440 C441 1.524 . S
C440 H459 0.913 . S
C441 H417 0.950 1_556 S
C441 C440 1.524 . S
C441 C442 1.415 . S
C442 H418 0.950 . S
C442 C437 1.363 . S
C442 C441 1.415 . S
C443 H419 0.951 . S
C443 C444 1.366 . S
C443 C445 1.388 . S
C444 C443 1.366 . S
C444 C448 1.385 . S
C445 H420 0.951 . S
C445 C443 1.388 . S
C445 C446 1.366 . S
C446 C445 1.366 . S
C446 C447 1.414 . S
C446 C449 1.499 . S
C447 H421 0.950 . S
C447 C446 1.414 . S
C447 C448 1.374 . S
C448 H422 0.950 . S
C448 C444 1.385 . S
C448 C447 1.374 . S
C449 C446 1.499 . S
C449 C450 1.373 . S
C449 C451 1.389 . S
C450 H423 0.950 . S
C450 C436 1.377 . S
C450 C449 1.373 . S
C451 C435 1.377 . S
C451 C449 1.389 . S
C451 C452 1.524 . S
C452 C451 1.524 . S
C452 C453 1.397 . S
C452 C457 1.363 . S
C453 H424 0.950 . S
C453 C452 1.397 . S
C453 C454 1.334 . S
C454 H425 0.950 . S
C454 C453 1.334 . S
C454 C455 1.287 . S
C455 C454 1.287 . S
C455 C456 1.524 . S
C455 H458 0.999 . S
C456 H426 0.950 . S
C456 C455 1.524 . S
C456 C457 1.415 . S
C457 H427 0.950 . S
C457 C452 1.363 . S
C457 C456 1.415 . S
H458 C455 0.999 . S
H459 C440 0.913 . S
H460 C478 0.951 1_554 S
H461 C480 0.951 . S
H462 C482 0.950 . S
H463 C483 0.950 . S
H464 C485 0.950 . S
H465 C488 0.950 . S
H466 C489 0.950 . S
H467 C491 0.950 . S
H468 C492 0.950 . S
H469 C493 0.951 . S
H470 C495 0.951 . S
H471 C497 0.950 . S
H472 C498 0.950 . S
H473 C500 0.950 . S
H474 C503 0.950 . S
H475 C504 0.950 . S
H476 C506 0.950 . S
H477 C507 0.950 . S
C478 H460 0.951 1_556 S
C478 C479 1.366 . S
C478 C480 1.388 . S
C479 C478 1.366 . S
C479 C483 1.385 . S
C480 H461 0.951 . S
C480 C478 1.388 . S
C480 C481 1.366 . S
C481 C480 1.366 . S
C481 C482 1.414 . S
C481 C484 1.499 . S
C482 H462 0.950 . S
C482 C481 1.414 . S
C482 C483 1.374 . S
C483 H463 0.950 . S
C483 C479 1.385 . S
C483 C482 1.374 . S
C484 C481 1.499 . S
C484 C485 1.373 . S
C484 C486 1.389 . S
C485 H464 0.950 . S
C485 C484 1.373 . S
C485 C501 1.377 . S
C486 C484 1.389 . S
C486 C487 1.524 . S
C486 C500 1.377 . S
C487 C486 1.524 . S
C487 C488 1.397 . S
C487 C492 1.363 . S
C488 H465 0.950 . S
C488 C487 1.397 . S
C488 C489 1.334 . S
C489 H466 0.950 . S
C489 C488 1.334 . S
C489 C490 1.287 . S
C490 C489 1.287 . S
C490 C491 1.524 1_556 S
C490 H509 0.913 1_556 S
C491 H467 0.950 . S
C491 C490 1.524 1_554 S
C491 C492 1.415 1_554 S
C492 H468 0.950 . S
C492 C487 1.363 . S
C492 C491 1.415 1_556 S
C493 H469 0.951 . S
C493 C494 1.366 . S
C493 C495 1.388 . S
C494 C493 1.366 . S
C494 C498 1.385 . S
C495 H470 0.951 . S
C495 C493 1.388 . S
C495 C496 1.366 . S
C496 C495 1.366 . S
C496 C497 1.414 . S
C496 C499 1.499 . S
C497 H471 0.950 . S
C497 C496 1.414 . S
C497 C498 1.374 . S
C498 H472 0.950 . S
C498 C494 1.385 . S
C498 C497 1.374 . S
C499 C496 1.499 . S
C499 C500 1.373 . S
C499 C501 1.389 . S
C500 H473 0.950 . S
C500 C486 1.377 . S
C500 C499 1.373 . S
C501 C485 1.377 . S
C501 C499 1.389 . S
C501 C502 1.524 . S
C502 C501 1.524 . S
C502 C503 1.397 . S
C502 C507 1.363 . S
C503 H474 0.950 . S
C503 C502 1.397 . S
C503 C504 1.334 . S
C504 H475 0.950 . S
C504 C503 1.334 . S
C504 C505 1.287 . S
C505 C504 1.287 . S
C505 C506 1.524 . S
C505 H508 0.999 . S
C506 H476 0.950 . S
C506 C505 1.524 . S
C506 C507 1.415 . S
C507 H477 0.950 . S
C507 C502 1.363 . S
C507 C506 1.415 . S
H508 C505 0.999 . S
H509 C490 0.913 1_554 S
H510 C528 0.951 . S
H511 C530 0.951 . S
H512 C532 0.950 . S
H513 C533 0.950 . S
H514 C535 0.950 . S
H515 C538 0.950 . S
H516 C539 0.950 . S
H517 C541 0.950 . S
H518 C542 0.950 . S
H519 C543 0.951 . S
H520 C545 0.951 1_556 S
H521 C547 0.950 . S
H522 C548 0.950 . S
H523 C550 0.950 . S
H524 C553 0.950 . S
H525 C554 0.950 . S
H526 C556 0.950 . S
H527 C557 0.950 . S
C528 H510 0.951 . S
C528 C529 1.366 . S
C528 C530 1.388 . S
C529 C528 1.366 . S
C529 C533 1.385 . S
C530 H511 0.951 . S
C530 C528 1.388 . S
C530 C531 1.366 . S
C531 C530 1.366 . S
C531 C532 1.414 . S
C531 C534 1.499 . S
C532 H512 0.950 . S
C532 C531 1.414 . S
C532 C533 1.374 . S
C533 H513 0.950 . S
C533 C529 1.385 . S
C533 C532 1.374 . S
C534 C531 1.499 . S
C534 C535 1.373 . S
C534 C536 1.389 . S
C535 H514 0.950 . S
C535 C534 1.373 . S
C535 C551 1.377 . S
C536 C534 1.389 . S
C536 C537 1.524 . S
C536 C550 1.377 . S
C537 C536 1.524 . S
C537 C538 1.397 . S
C537 C542 1.363 . S
C538 H515 0.950 . S
C538 C537 1.397 . S
C538 C539 1.334 . S
C539 H516 0.950 . S
C539 C538 1.334 . S
C539 C540 1.287 . S
C540 C539 1.287 . S
C540 C541 1.524 . S
C540 H559 0.913 . S
C541 H517 0.950 . S
C541 C540 1.524 . S
C541 C542 1.415 . S
C542 H518 0.950 . S
C542 C537 1.363 . S
C542 C541 1.415 . S
C543 H519 0.951 . S
C543 C544 1.366 1_556 S
C543 C545 1.388 1_556 S
C544 C543 1.366 1_554 S
C544 C548 1.385 . S
C545 H520 0.951 1_554 S
C545 C543 1.388 1_554 S
C545 C546 1.366 . S
C546 C545 1.366 . S
C546 C547 1.414 . S
C546 C549 1.499 . S
C547 H521 0.950 . S
C547 C546 1.414 . S
C547 C548 1.374 . S
C548 H522 0.950 . S
C548 C544 1.385 . S
C548 C547 1.374 . S
C549 C546 1.499 . S
C549 C550 1.373 . S
C549 C551 1.389 . S
C550 H523 0.950 . S
C550 C536 1.377 . S
C550 C549 1.373 . S
C551 C535 1.377 . S
C551 C549 1.389 . S
C551 C552 1.524 . S
C552 C551 1.524 . S
C552 C553 1.397 . S
C552 C557 1.363 . S
C553 H524 0.950 . S
C553 C552 1.397 . S
C553 C554 1.334 . S
C554 H525 0.950 . S
C554 C553 1.334 . S
C554 C555 1.287 . S
C555 C554 1.287 . S
C555 C556 1.524 1_554 S
C555 H558 0.999 . S
C556 H526 0.950 . S
C556 C555 1.524 1_556 S
C556 C557 1.415 1_556 S
C557 H527 0.950 . S
C557 C552 1.363 . S
C557 C556 1.415 1_554 S
H558 C555 0.999 . S
H559 C540 0.913 . S
H560 C578 0.951 . S
H561 C580 0.951 . S
H562 C582 0.950 . S
H563 C583 0.950 . S
H564 C585 0.950 . S
H565 C588 0.950 . S
H566 C589 0.950 . S
H567 C591 0.950 . S
H568 C592 0.950 . S
H569 C593 0.964 . S
H570 C595 0.951 . S
H571 C597 0.950 . S
H572 C598 0.950 . S
H573 C600 0.950 . S
H574 C603 0.950 1_554 S
H575 C604 0.950 . S
H576 C606 0.950 . S
H577 C607 0.950 . S
C578 H560 0.951 . S
C578 C579 1.366 . S
C578 C580 1.388 . S
C579 C578 1.366 . S
C579 C583 1.385 . S
C580 H561 0.951 . S
C580 C578 1.388 . S
C580 C581 1.366 . S
C581 C580 1.366 . S
C581 C582 1.414 . S
C581 C584 1.499 . S
C582 H562 0.950 . S
C582 C581 1.414 . S
C582 C583 1.374 . S
C583 H563 0.950 . S
C583 C579 1.385 . S
C583 C582 1.374 . S
C584 C581 1.499 . S
C584 C585 1.373 . S
C584 C586 1.389 . S
C585 H564 0.950 . S
C585 C584 1.373 . S
C585 C601 1.377 . S
C586 C584 1.389 . S
C586 C587 1.524 . S
C586 C600 1.377 . S
C587 C586 1.524 . S
C587 C588 1.397 . S
C587 C592 1.363 . S
C588 H565 0.950 . S
C588 C587 1.397 . S
C588 C589 1.334 . S
C589 H566 0.950 . S
C589 C588 1.334 . S
C589 C590 1.287 . S
C590 C589 1.287 . S
C590 C591 1.524 . S
C590 H609 0.913 . S
C591 H567 0.950 . S
C591 C590 1.524 . S
C591 C592 1.415 . S
C592 H568 0.950 . S
C592 C587 1.363 . S
C592 C591 1.415 . S
C593 H569 0.964 . S
C593 C594 1.358 1_556 S
C593 C595 1.382 1_556 S
C594 C593 1.358 1_554 S
C594 C598 1.385 . S
C595 H570 0.951 . S
C595 C593 1.382 1_554 S
C595 C596 1.366 . S
C596 C595 1.366 . S
C596 C597 1.414 . S
C596 C599 1.499 . S
C597 H571 0.950 . S
C597 C596 1.414 . S
C597 C598 1.374 . S
C598 H572 0.950 . S
C598 C594 1.385 . S
C598 C597 1.374 . S
C599 C596 1.499 . S
C599 C600 1.373 . S
C599 C601 1.389 . S
C600 H573 0.950 . S
C600 C586 1.377 . S
C600 C599 1.373 . S
C601 C585 1.377 . S
C601 C599 1.389 . S
C601 C602 1.524 . S
C602 C601 1.524 . S
C602 C603 1.397 1_554 S
C602 C607 1.363 1_554 S
C603 H574 0.950 1_556 S
C603 C602 1.397 1_556 S
C603 C604 1.334 . S
C604 H575 0.950 . S
C604 C603 1.334 . S
C604 C605 1.287 . S
C605 C604 1.287 . S
C605 C606 1.524 . S
C605 H608 0.999 . S
C606 H576 0.950 . S
C606 C605 1.524 . S
C606 C607 1.415 . S
C607 H577 0.950 . S
C607 C602 1.363 1_556 S
C607 C606 1.415 . S
H608 C605 0.999 . S
H609 C590 0.913 . S
H610 C628 0.951 . S
H611 C630 0.951 1_556 S
H612 C632 0.950 . S
H613 C633 0.950 . S
H614 C635 0.950 . S
H615 C638 0.950 . S
H616 C639 0.950 . S
H617 C641 0.950 . S
H618 C642 0.950 . S
H619 C643 0.951 . S
H620 C645 0.951 . S
H621 C647 0.950 . S
H622 C648 0.950 . S
H623 C650 0.950 . S
H624 C653 0.950 . S
H625 C654 0.950 . S
H626 C656 0.950 . S
H627 C657 0.950 . S
C628 H610 0.951 . S
C628 C629 1.366 1_556 S
C628 C630 1.388 1_556 S
C629 C628 1.366 1_554 S
C629 C633 1.385 . S
C630 H611 0.951 1_554 S
C630 C628 1.388 1_554 S
C630 C631 1.366 . S
C631 C630 1.366 . S
C631 C632 1.414 . S
C631 C634 1.499 . S
C632 H612 0.950 . S
C632 C631 1.414 . S
C632 C633 1.374 . S
C633 H613 0.950 . S
C633 C629 1.385 . S
C633 C632 1.374 . S
C634 C631 1.499 . S
C634 C635 1.373 . S
C634 C636 1.389 . S
C635 H614 0.950 . S
C635 C634 1.373 . S
C635 C651 1.377 . S
C636 C634 1.389 . S
C636 C637 1.524 . S
C636 C650 1.377 . S
C637 C636 1.524 . S
C637 C638 1.397 . S
C637 C642 1.363 1_554 S
C638 H615 0.950 . S
C638 C637 1.397 . S
C638 C639 1.334 1_554 S
C639 H616 0.950 . S
C639 C638 1.334 1_556 S
C639 C640 1.287 . S
C640 C639 1.287 . S
C640 C641 1.524 . S
C640 H659 0.913 . S
C641 H617 0.950 . S
C641 C640 1.524 . S
C641 C642 1.415 . S
C642 H618 0.950 . S
C642 C637 1.363 1_556 S
C642 C641 1.415 . S
C643 H619 0.951 . S
C643 C644 1.366 . S
C643 C645 1.388 . S
C644 C643 1.366 . S
C644 C648 1.385 . S
C645 H620 0.951 . S
C645 C643 1.388 . S
C645 C646 1.366 . S
C646 C645 1.366 . S
C646 C647 1.414 . S
C646 C649 1.499 . S
C647 H621 0.950 . S
C647 C646 1.414 . S
C647 C648 1.374 . S
C648 H622 0.950 . S
C648 C644 1.385 . S
C648 C647 1.374 . S
C649 C646 1.499 . S
C649 C650 1.373 . S
C649 C651 1.389 . S
C650 H623 0.950 . S
C650 C636 1.377 . S
C650 C649 1.373 . S
C651 C635 1.377 . S
C651 C649 1.389 . S
C651 C652 1.524 . S
C652 C651 1.524 . S
C652 C653 1.397 . S
C652 C657 1.363 . S
C653 H624 0.950 . S
C653 C652 1.397 . S
C653 C654 1.334 . S
C654 H625 0.950 . S
C654 C653 1.334 . S
C654 C655 1.287 . S
C655 C654 1.287 . S
C655 C656 1.524 . S
C655 H658 0.999 . S
C656 H626 0.950 . S
C656 C655 1.524 . S
C656 C657 1.415 . S
C657 H627 0.950 . S
C657 C652 1.363 . S
C657 C656 1.415 . S
H658 C655 0.999 . S
H659 C640 0.913 . S
H660 C678 0.951 . S
H661 C680 0.951 . S
H662 C682 0.950 . S
H663 C683 0.950 . S
H664 C685 0.950 . S
H665 C688 0.950 . S
H666 C689 0.950 1_455 S
H667 C691 0.950 . S
H668 C692 0.950 . S
H669 C693 0.951 . S
H670 C695 0.951 . S
H671 C697 0.950 . S
H672 C698 0.950 . S
H673 C700 0.950 . S
H674 C703 0.950 . S
H675 C704 0.950 . S
H676 C706 0.950 . S
H677 C707 0.950 . S
C678 H660 0.951 . S
C678 C679 1.366 . S
C678 C680 1.388 . S
C679 C678 1.366 . S
C679 C683 1.385 . S
C680 H661 0.951 . S
C680 C678 1.388 . S
C680 C681 1.366 . S
C681 C680 1.366 . S
C681 C682 1.414 . S
C681 C684 1.499 1_455 S
C682 H662 0.950 . S
C682 C681 1.414 . S
C682 C683 1.374 . S
C683 H663 0.950 . S
C683 C679 1.385 . S
C683 C682 1.374 . S
C684 C681 1.499 1_655 S
C684 C685 1.373 . S
C684 C686 1.389 . S
C685 H664 0.950 . S
C685 C684 1.373 . S
C685 C701 1.377 . S
C686 C684 1.389 . S
C686 C687 1.524 . S
C686 C700 1.377 . S
C687 C686 1.524 . S
C687 C688 1.397 . S
C687 C692 1.363 . S
C688 H665 0.950 . S
C688 C687 1.397 . S
C688 C689 1.334 . S
C689 H666 0.950 1_655 S
C689 C688 1.334 . S
C689 C690 1.287 . S
C690 C689 1.287 . S
C690 C691 1.524 . S
C690 H709 0.913 1_655 S
C691 H667 0.950 . S
C691 C690 1.524 . S
C691 C692 1.415 . S
C692 H668 0.950 . S
C692 C687 1.363 . S
C692 C691 1.415 . S
C693 H669 0.951 . S
C693 C694 1.366 . S
C693 C695 1.388 . S
C694 C693 1.366 . S
C694 C698 1.385 . S
C695 H670 0.951 . S
C695 C693 1.388 . S
C695 C696 1.366 . S
C696 C695 1.366 . S
C696 C697 1.414 . S
C696 C699 1.499 . S
C697 H671 0.950 . S
C697 C696 1.414 . S
C697 C698 1.374 . S
C698 H672 0.950 . S
C698 C694 1.385 . S
C698 C697 1.374 . S
C699 C696 1.499 . S
C699 C700 1.373 . S
C699 C701 1.389 . S
C700 H673 0.950 . S
C700 C686 1.377 . S
C700 C699 1.373 . S
C701 C685 1.377 . S
C701 C699 1.389 . S
C701 C702 1.524 . S
C702 C701 1.524 . S
C702 C703 1.397 . S
C702 C707 1.363 . S
C703 H674 0.950 . S
C703 C702 1.397 . S
C703 C704 1.334 . S
C704 H675 0.950 . S
C704 C703 1.334 . S
C704 C705 1.287 . S
C705 C704 1.287 . S
C705 C706 1.524 . S
C705 H708 0.999 . S
C706 H676 0.950 . S
C706 C705 1.524 . S
C706 C707 1.415 . S
C707 H677 0.950 . S
C707 C702 1.363 . S
C707 C706 1.415 . S
H708 C705 0.999 . S
H709 C690 0.913 1_455 S
H710 C728 0.951 . S
H711 C730 0.951 . S
H712 C732 0.950 . S
H713 C733 0.950 . S
H714 C735 0.950 . S
H715 C738 0.950 . S
H716 C739 0.950 . S
H717 C741 0.950 . S
H718 C742 0.950 . S
H719 C743 0.951 . S
H720 C745 0.951 . S
H721 C747 0.950 . S
H722 C748 0.950 . S
H723 C750 0.950 . S
H724 C753 0.950 . S
H725 C754 0.950 . S
H726 C756 0.950 . S
H727 C757 0.950 . S
C728 H710 0.951 . S
C728 C729 1.366 . S
C728 C730 1.388 . S
C729 C728 1.366 . S
C729 C733 1.385 . S
C730 H711 0.951 . S
C730 C728 1.388 . S
C730 C731 1.366 . S
C731 C730 1.366 . S
C731 C732 1.414 . S
C731 C734 1.499 . S
C732 H712 0.950 . S
C732 C731 1.414 . S
C732 C733 1.374 . S
C733 H713 0.950 . S
C733 C729 1.385 . S
C733 C732 1.374 . S
C734 C731 1.499 . S
C734 C735 1.373 . S
C734 C736 1.389 . S
C735 H714 0.950 . S
C735 C734 1.373 . S
C735 C751 1.377 . S
C736 C734 1.389 . S
C736 C737 1.524 . S
C736 C750 1.377 . S
C737 C736 1.524 . S
C737 C738 1.397 . S
C737 C742 1.363 . S
C738 H715 0.950 . S
C738 C737 1.397 . S
C738 C739 1.334 . S
C739 H716 0.950 . S
C739 C738 1.334 . S
C739 C740 1.287 . S
C740 C739 1.287 . S
C740 C741 1.524 . S
C740 H759 0.913 . S
C741 H717 0.950 . S
C741 C740 1.524 . S
C741 C742 1.415 . S
C742 H718 0.950 . S
C742 C737 1.363 . S
C742 C741 1.415 . S
C743 H719 0.951 . S
C743 C744 1.366 . S
C743 C745 1.388 . S
C744 C743 1.366 . S
C744 C748 1.385 . S
C745 H720 0.951 . S
C745 C743 1.388 . S
C745 C746 1.366 . S
C746 C745 1.366 . S
C746 C747 1.414 . S
C746 C749 1.499 . S
C747 H721 0.950 . S
C747 C746 1.414 . S
C747 C748 1.374 . S
C748 H722 0.950 . S
C748 C744 1.385 . S
C748 C747 1.374 . S
C749 C746 1.499 . S
C749 C750 1.373 . S
C749 C751 1.389 . S
C750 H723 0.950 . S
C750 C736 1.377 . S
C750 C749 1.373 . S
C751 C735 1.377 . S
C751 C749 1.389 . S
C751 C752 1.524 . S
C752 C751 1.524 . S
C752 C753 1.397 . S
C752 C757 1.363 . S
C753 H724 0.950 . S
C753 C752 1.397 . S
C753 C754 1.334 . S
C754 H725 0.950 . S
C754 C753 1.334 . S
C754 C755 1.287 . S
C755 C754 1.287 . S
C755 C756 1.524 . S
C755 H758 0.999 . S
C756 H726 0.950 . S
C756 C755 1.524 . S
C756 C757 1.415 . S
C757 H727 0.950 . S
C757 C752 1.363 . S
C757 C756 1.415 . S
H758 C755 0.999 . S
H759 C740 0.913 . S
H760 C778 0.951 . S
H761 C780 0.951 . S
H762 C782 0.950 . S
H763 C783 0.950 . S
H764 C785 0.950 . S
H765 C788 0.950 . S
H766 C789 0.950 . S
H767 C791 0.950 . S
H768 C792 0.950 . S
H769 C793 0.951 . S
H770 C795 0.951 . S
H771 C797 0.950 . S
H772 C798 0.950 . S
H773 C800 0.950 . S
H774 C803 0.950 . S
H775 C804 0.950 . S
H776 C806 0.950 . S
H777 C807 0.950 . S
C778 H760 0.951 . S
C778 C779 1.366 . S
C778 C780 1.388 . S
C779 C778 1.366 . S
C779 C783 1.385 . S
C780 H761 0.951 . S
C780 C778 1.388 . S
C780 C781 1.366 . S
C781 C780 1.366 . S
C781 C782 1.414 . S
C781 C784 1.499 . S
C782 H762 0.950 . S
C782 C781 1.414 . S
C782 C783 1.374 . S
C783 H763 0.950 . S
C783 C779 1.385 . S
C783 C782 1.374 . S
C784 C781 1.499 . S
C784 C785 1.373 . S
C784 C786 1.389 . S
C785 H764 0.950 . S
C785 C784 1.373 . S
C785 C801 1.377 . S
C786 C784 1.389 . S
C786 C787 1.524 . S
C786 C800 1.377 . S
C787 C786 1.524 . S
C787 C788 1.397 . S
C787 C792 1.363 . S
C788 H765 0.950 . S
C788 C787 1.397 . S
C788 C789 1.334 . S
C789 H766 0.950 . S
C789 C788 1.334 . S
C789 C790 1.287 . S
C790 C789 1.287 . S
C790 C791 1.524 . S
C790 H809 0.913 . S
C791 H767 0.950 . S
C791 C790 1.524 . S
C791 C792 1.415 . S
C792 H768 0.950 . S
C792 C787 1.363 . S
C792 C791 1.415 . S
C793 H769 0.951 . S
C793 C794 1.366 . S
C793 C795 1.388 1_565 S
C794 C793 1.366 . S
C794 C798 1.385 . S
C795 H770 0.951 . S
C795 C793 1.388 1_545 S
C795 C796 1.366 . S
C796 C795 1.366 . S
C796 C797 1.414 . S
C796 C799 1.499 . S
C797 H771 0.950 . S
C797 C796 1.414 . S
C797 C798 1.374 1_545 S
C798 H772 0.950 . S
C798 C794 1.385 . S
C798 C797 1.374 1_565 S
C799 C796 1.499 . S
C799 C800 1.373 . S
C799 C801 1.389 . S
C800 H773 0.950 . S
C800 C786 1.377 . S
C800 C799 1.373 . S
C801 C785 1.377 . S
C801 C799 1.389 . S
C801 C802 1.524 . S
C802 C801 1.524 . S
C802 C803 1.397 . S
C802 C807 1.363 . S
C803 H774 0.950 . S
C803 C802 1.397 . S
C803 C804 1.334 1_545 S
C804 H775 0.950 . S
C804 C803 1.334 1_565 S
C804 C805 1.287 . S
C805 C804 1.287 . S
C805 C806 1.524 1_565 S
C805 H808 0.999 . S
C806 H776 0.950 . S
C806 C805 1.524 1_545 S
C806 C807 1.415 . S
C807 H777 0.950 . S
C807 C802 1.363 . S
C807 C806 1.415 . S
H808 C805 0.999 . S
H809 C790 0.913 . S
H810 C828 0.951 . S
H811 C830 0.951 . S
H812 C832 0.950 1_556 S
H813 C833 0.950 1_556 S
H814 C835 0.950 . S
H815 C838 0.950 . S
H816 C839 0.950 . S
H817 C841 0.950 . S
H818 C842 0.950 . S
H819 C843 0.951 . S
H820 C845 0.951 . S
H821 C847 0.950 . S
H822 C848 0.950 . S
H823 C850 0.950 . S
H824 C853 0.950 . S
H825 C854 0.950 . S
H826 C856 0.950 . S
H827 C857 0.950 . S
C828 H810 0.951 . S
C828 C829 1.366 . S
C828 C830 1.388 . S
C829 C828 1.366 . S
C829 C833 1.385 . S
C830 H811 0.951 . S
C830 C828 1.388 . S
C830 C831 1.366 . S
C831 C830 1.366 . S
C831 C832 1.414 . S
C831 C834 1.499 . S
C832 H812 0.950 1_554 S
C832 C831 1.414 . S
C832 C833 1.374 . S
C833 H813 0.950 1_554 S
C833 C829 1.385 . S
C833 C832 1.374 . S
C834 C831 1.499 . S
C834 C835 1.373 1_554 S
C834 C836 1.389 . S
C835 H814 0.950 . S
C835 C834 1.373 1_556 S
C835 C851 1.377 . S
C836 C834 1.389 . S
C836 C837 1.524 . S
C836 C850 1.377 . S
C837 C836 1.524 . S
C837 C838 1.397 . S
C837 C842 1.363 . S
C838 H815 0.950 . S
C838 C837 1.397 . S
C838 C839 1.334 . S
C839 H816 0.950 . S
C839 C838 1.334 . S
C839 C840 1.287 . S
C840 C839 1.287 . S
C840 C841 1.524 . S
C840 H859 0.913 . S
C841 H817 0.950 . S
C841 C840 1.524 . S
C841 C842 1.415 . S
C842 H818 0.950 . S
C842 C837 1.363 . S
C842 C841 1.415 . S
C843 H819 0.951 . S
C843 C844 1.366 1_556 S
C843 C845 1.388 . S
C844 C843 1.366 1_554 S
C844 C848 1.385 . S
C845 H820 0.951 . S
C845 C843 1.388 . S
C845 C846 1.366 1_556 S
C846 C845 1.366 1_554 S
C846 C847 1.414 . S
C846 C849 1.499 . S
C847 H821 0.950 . S
C847 C846 1.414 . S
C847 C848 1.374 . S
C848 H822 0.950 . S
C848 C844 1.385 . S
C848 C847 1.374 . S
C849 C846 1.499 . S
C849 C850 1.373 . S
C849 C851 1.389 1_554 S
C850 H823 0.950 . S
C850 C836 1.377 . S
C850 C849 1.373 . S
C851 C835 1.377 . S
C851 C849 1.389 1_556 S
C851 C852 1.524 . S
C852 C851 1.524 . S
C852 C853 1.397 . S
C852 C857 1.363 . S
C853 H824 0.950 . S
C853 C852 1.397 . S
C853 C854 1.334 . S
C854 H825 0.950 . S
C854 C853 1.334 . S
C854 C855 1.287 . S
C855 C854 1.287 . S
C855 C856 1.524 . S
C855 H858 0.999 . S
C856 H826 0.950 . S
C856 C855 1.524 . S
C856 C857 1.415 . S
C857 H827 0.950 . S
C857 C852 1.363 . S
C857 C856 1.415 . S
H858 C855 0.999 . S
H859 C840 0.913 . S
H860 C878 0.951 . S
H861 C880 0.951 . S
H862 C882 0.950 . S
H863 C883 0.950 . S
H864 C885 0.950 . S
H865 C888 0.950 . S
H866 C889 0.950 . S
H867 C891 0.950 . S
H868 C892 0.950 . S
H869 C893 0.951 . S
H870 C895 0.951 . S
H871 C897 0.950 . S
H872 C898 0.950 . S
H873 C900 0.950 . S
H874 C903 0.950 . S
H875 C904 0.950 . S
H876 C906 0.950 . S
H877 C907 0.950 . S
C878 H860 0.951 . S
C878 C879 1.366 1_556 S
C878 C880 1.388 . S
C879 C878 1.366 1_554 S
C879 C883 1.385 . S
C880 H861 0.951 . S
C880 C878 1.388 . S
C880 C881 1.366 1_556 S
C881 C880 1.366 1_554 S
C881 C882 1.414 . S
C881 C884 1.499 . S
C882 H862 0.950 . S
C882 C881 1.414 . S
C882 C883 1.374 . S
C883 H863 0.950 . S
C883 C879 1.385 . S
C883 C882 1.374 . S
C884 C881 1.499 . S
C884 C885 1.373 . S
C884 C886 1.389 . S
C885 H864 0.950 . S
C885 C884 1.373 . S
C885 C901 1.377 . S
C886 C884 1.389 . S
C886 C887 1.524 . S
C886 C900 1.377 . S
C887 C886 1.524 . S
C887 C888 1.397 . S
C887 C892 1.363 1_554 S
C888 H865 0.950 . S
C888 C887 1.397 . S
C888 C889 1.334 . S
C889 H866 0.950 . S
C889 C888 1.334 . S
C889 C890 1.287 . S
C890 C889 1.287 . S
C890 C891 1.524 1_554 S
C890 H909 0.913 . S
C891 H867 0.950 . S
C891 C890 1.524 1_556 S
C891 C892 1.415 . S
C892 H868 0.950 . S
C892 C887 1.363 1_556 S
C892 C891 1.415 . S
C893 H869 0.951 . S
C893 C894 1.366 . S
C893 C895 1.388 . S
C894 C893 1.366 . S
C894 C898 1.385 1_554 S
C895 H870 0.951 . S
C895 C893 1.388 . S
C895 C896 1.366 . S
C896 C895 1.366 . S
C896 C897 1.414 1_554 S
C896 C899 1.499 1_545 S
C897 H871 0.950 . S
C897 C896 1.414 1_556 S
C897 C898 1.374 . S
C898 H872 0.950 . S
C898 C894 1.385 1_556 S
C898 C897 1.374 . S
C899 C896 1.499 1_565 S
C899 C900 1.373 . S
C899 C901 1.389 . S
C900 H873 0.950 . S
C900 C886 1.377 . S
C900 C899 1.373 . S
C901 C885 1.377 . S
C901 C899 1.389 . S
C901 C902 1.524 . S
C902 C901 1.524 . S
C902 C903 1.397 1_564 S
C902 C907 1.363 . S
C903 H874 0.950 . S
C903 C902 1.397 1_546 S
C903 C904 1.334 . S
C904 H875 0.950 . S
C904 C903 1.334 . S
C904 C905 1.287 1_556 S
C905 C904 1.287 1_554 S
C905 C906 1.524 1_545 S
C905 H908 0.999 . S
C906 H876 0.950 . S
C906 C905 1.524 1_565 S
C906 C907 1.415 . S
C907 H877 0.950 . S
C907 C902 1.363 . S
C907 C906 1.415 . S
H908 C905 0.999 . S
H909 C890 0.913 . S
H910 C928 0.951 . S
H911 C930 0.951 . S
H912 C932 0.950 . S
H913 C933 0.950 . S
H914 C935 0.950 . S
H915 C938 0.950 . S
H916 C939 0.950 . S
H917 C941 0.950 . S
H918 C942 0.950 . S
H919 C943 0.951 . S
H920 C945 0.951 . S
H921 C947 0.950 . S
H922 C948 0.950 . S
H923 C950 0.950 . S
H924 C953 0.950 . S
H925 C954 0.950 . S
H926 C956 0.950 . S
H927 C957 0.950 . S
C928 H910 0.951 . S
C928 C929 1.366 . S
C928 C930 1.388 1_655 S
C929 C928 1.366 . S
C929 C933 1.385 1_554 S
C930 H911 0.951 . S
C930 C928 1.388 1_455 S
C930 C931 1.366 . S
C931 C930 1.366 . S
C931 C932 1.414 1_554 S
C931 C934 1.499 . S
C932 H912 0.950 . S
C932 C931 1.414 1_556 S
C932 C933 1.374 1_455 S
C933 H913 0.950 . S
C933 C929 1.385 1_556 S
C933 C932 1.374 1_655 S
C934 C931 1.499 . S
C934 C935 1.373 1_554 S
C934 C936 1.389 . S
C935 H914 0.950 . S
C935 C934 1.373 1_556 S
C935 C951 1.377 . S
C936 C934 1.389 . S
C936 C937 1.524 . S
C936 C950 1.377 . S
C937 C936 1.524 . S
C937 C938 1.397 . S
C937 C942 1.363 . S
C938 H915 0.950 . S
C938 C937 1.397 . S
C938 C939 1.334 . S
C939 H916 0.950 . S
C939 C938 1.334 . S
C939 C940 1.287 . S
C940 C939 1.287 . S
C940 C941 1.524 . S
C940 H959 0.913 . S
C941 H917 0.950 . S
C941 C940 1.524 . S
C941 C942 1.415 . S
C942 H918 0.950 . S
C942 C937 1.363 . S
C942 C941 1.415 . S
C943 H919 0.951 . S
C943 C944 1.366 1_556 S
C943 C945 1.388 . S
C944 C943 1.366 1_554 S
C944 C948 1.385 . S
C945 H920 0.951 . S
C945 C943 1.388 . S
C945 C946 1.366 1_556 S
C946 C945 1.366 1_554 S
C946 C947 1.414 . S
C946 C949 1.499 . S
C947 H921 0.950 . S
C947 C946 1.414 . S
C947 C948 1.374 . S
C948 H922 0.950 . S
C948 C944 1.385 . S
C948 C947 1.374 . S
C949 C946 1.499 . S
C949 C950 1.373 . S
C949 C951 1.389 1_554 S
C950 H923 0.950 . S
C950 C936 1.377 . S
C950 C949 1.373 . S
C951 C935 1.377 . S
C951 C949 1.389 1_556 S
C951 C952 1.524 . S
C952 C951 1.524 . S
C952 C953 1.397 . S
C952 C957 1.363 . S
C953 H924 0.950 . S
C953 C952 1.397 . S
C953 C954 1.334 . S
C954 H925 0.950 . S
C954 C953 1.334 . S
C954 C955 1.287 . S
C955 C954 1.287 . S
C955 C956 1.524 . S
C955 H958 0.999 . S
C956 H926 0.950 . S
C956 C955 1.524 . S
C956 C957 1.415 . S
C957 H927 0.950 . S
C957 C952 1.363 . S
C957 C956 1.415 . S
H958 C955 0.999 . S
H959 C940 0.913 . S
H960 C978 0.951 . S
H961 C980 0.951 . S
H962 C982 0.950 . S
H963 C983 0.950 . S
H964 C985 0.950 . S
H965 C988 0.950 . S
H966 C989 0.950 . S
H967 C991 0.950 . S
H968 C992 0.950 . S
H969 C993 0.951 . S
H970 C995 0.951 . S
H971 C997 0.950 . S
H972 C998 0.950 . S
H973 C1000 0.950 . S
H974 C1003 0.950 . S
H975 C1004 0.950 . S
H976 C1006 0.950 . S
H977 C1007 0.950 . S
C978 H960 0.951 . S
C978 C979 1.366 . S
C978 C980 1.388 . S
C979 C978 1.366 . S
C979 C983 1.385 . S
C980 H961 0.951 . S
C980 C978 1.388 . S
C980 C981 1.366 . S
C981 C980 1.366 . S
C981 C982 1.414 . S
C981 C984 1.499 . S
C982 H962 0.950 . S
C982 C981 1.414 . S
C982 C983 1.374 . S
C983 H963 0.950 . S
C983 C979 1.385 . S
C983 C982 1.374 . S
C984 C981 1.499 . S
C984 C985 1.373 . S
C984 C986 1.389 . S
C985 H964 0.950 . S
C985 C984 1.373 . S
C985 C1001 1.377 . S
C986 C984 1.389 . S
C986 C987 1.524 . S
C986 C1000 1.377 . S
C987 C986 1.524 . S
C987 C988 1.397 . S
C987 C992 1.363 . S
C988 H965 0.950 . S
C988 C987 1.397 . S
C988 C989 1.334 . S
C989 H966 0.950 . S
C989 C988 1.334 . S
C989 C990 1.287 . S
C990 C989 1.287 . S
C990 C991 1.524 . S
C990 H1009 0.913 . S
C991 H967 0.950 . S
C991 C990 1.524 . S
C991 C992 1.415 . S
C992 H968 0.950 . S
C992 C987 1.363 . S
C992 C991 1.415 . S
C993 H969 0.951 . S
C993 C994 1.366 . S
C993 C995 1.388 . S
C994 C993 1.366 . S
C994 C998 1.385 . S
C995 H970 0.951 . S
C995 C993 1.388 . S
C995 C996 1.366 . S
C996 C995 1.366 . S
C996 C997 1.414 . S
C996 C999 1.499 . S
C997 H971 0.950 . S
C997 C996 1.414 . S
C997 C998 1.374 . S
C998 H972 0.950 . S
C998 C994 1.385 . S
C998 C997 1.374 . S
C999 C996 1.499 . S
C999 C1000 1.373 . S
C999 C1001 1.389 . S
C1000 H973 0.950 . S
C1000 C986 1.377 . S
C1000 C999 1.373 . S
C1001 C985 1.377 . S
C1001 C999 1.389 . S
C1001 C1002 1.524 . S
C1002 C1001 1.524 . S
C1002 C1003 1.397 . S
C1002 C1007 1.363 . S
C1003 H974 0.950 . S
C1003 C1002 1.397 . S
C1003 C1004 1.334 . S
C1004 H975 0.950 . S
C1004 C1003 1.334 . S
C1004 C1005 1.287 . S
C1005 C1004 1.287 . S
C1005 C1006 1.524 . S
C1005 H1008 0.999 . S
C1006 H976 0.950 . S
C1006 C1005 1.524 . S
C1006 C1007 1.415 . S
C1007 H977 0.950 . S
C1007 C1002 1.363 . S
C1007 C1006 1.415 . S
H1008 C1005 0.999 . S
H1009 C990 0.913 . S
H1010 C1028 0.951 . S
H1011 C1030 0.951 . S
H1012 C1032 0.950 . S
H1013 C1033 0.950 . S
H1014 C1035 0.950 . S
H1015 C1038 0.950 . S
H1016 C1039 0.950 . S
H1017 C1041 0.950 . S
H1018 C1042 0.950 . S
H1019 C1043 0.951 . S
H1020 C1045 0.951 . S
H1021 C1047 0.950 . S
H1022 C1048 0.950 . S
H1023 C1050 0.950 . S
H1024 C1053 0.950 . S
H1025 C1054 0.950 . S
H1026 C1056 0.950 . S
H1027 C1057 0.950 . S
C1028 H1010 0.951 . S
C1028 C1029 1.366 . S
C1028 C1030 1.388 . S
C1029 C1028 1.366 . S
C1029 C1033 1.385 . S
C1030 H1011 0.951 . S
C1030 C1028 1.388 . S
C1030 C1031 1.366 . S
C1031 C1030 1.366 . S
C1031 C1032 1.414 . S
C1031 C1034 1.499 . S
C1032 H1012 0.950 . S
C1032 C1031 1.414 . S
C1032 C1033 1.374 . S
C1033 H1013 0.950 . S
C1033 C1029 1.385 . S
C1033 C1032 1.374 . S
C1034 C1031 1.499 . S
C1034 C1035 1.373 . S
C1034 C1036 1.389 . S
C1035 H1014 0.950 . S
C1035 C1034 1.373 . S
C1035 C1051 1.377 . S
C1036 C1034 1.389 . S
C1036 C1037 1.524 . S
C1036 C1050 1.377 . S
C1037 C1036 1.524 . S
C1037 C1038 1.397 . S
C1037 C1042 1.363 . S
C1038 H1015 0.950 . S
C1038 C1037 1.397 . S
C1038 C1039 1.334 . S
C1039 H1016 0.950 . S
C1039 C1038 1.334 . S
C1039 C1040 1.287 . S
C1040 C1039 1.287 . S
C1040 C1041 1.524 . S
C1040 H1059 0.913 . S
C1041 H1017 0.950 . S
C1041 C1040 1.524 . S
C1041 C1042 1.415 . S
C1042 H1018 0.950 . S
C1042 C1037 1.363 . S
C1042 C1041 1.415 . S
C1043 H1019 0.951 . S
C1043 C1044 1.366 . S
C1043 C1045 1.388 . S
C1044 C1043 1.366 . S
C1044 C1048 1.385 . S
C1045 H1020 0.951 . S
C1045 C1043 1.388 . S
C1045 C1046 1.366 . S
C1046 C1045 1.366 . S
C1046 C1047 1.414 . S
C1046 C1049 1.499 . S
C1047 H1021 0.950 . S
C1047 C1046 1.414 . S
C1047 C1048 1.374 . S
C1048 H1022 0.950 . S
C1048 C1044 1.385 . S
C1048 C1047 1.374 . S
C1049 C1046 1.499 . S
C1049 C1050 1.373 . S
C1049 C1051 1.389 . S
C1050 H1023 0.950 . S
C1050 C1036 1.377 . S
C1050 C1049 1.373 . S
C1051 C1035 1.377 . S
C1051 C1049 1.389 . S
C1051 C1052 1.524 . S
C1052 C1051 1.524 . S
C1052 C1053 1.397 . S
C1052 C1057 1.363 . S
C1053 H1024 0.950 . S
C1053 C1052 1.397 . S
C1053 C1054 1.334 . S
C1054 H1025 0.950 . S
C1054 C1053 1.334 . S
C1054 C1055 1.287 . S
C1055 C1054 1.287 . S
C1055 C1056 1.524 . S
C1055 H1058 0.999 . S
C1056 H1026 0.950 . S
C1056 C1055 1.524 . S
C1056 C1057 1.415 . S
C1057 H1027 0.950 . S
C1057 C1052 1.363 . S
C1057 C1056 1.415 . S
H1058 C1055 0.999 . S
H1059 C1040 0.913 . S
H1060 C1078 0.951 . S
H1061 C1080 0.951 . S
H1062 C1082 0.950 . S
H1063 C1083 0.950 . S
H1064 C1085 0.950 . S
H1065 C1088 0.950 . S
H1066 C1089 0.950 . S
H1067 C1091 0.950 . S
H1068 C1092 0.950 . S
H1069 C1093 0.951 . S
H1070 C1095 0.951 . S
H1071 C1097 0.950 . S
H1072 C1098 0.950 . S
H1073 C1100 0.950 . S
H1074 C1103 0.950 . S
H1075 C1104 0.950 . S
H1076 C1106 0.950 . S
H1077 C1107 0.950 . S
C1078 H1060 0.951 . S
C1078 C1079 1.366 . S
C1078 C1080 1.388 . S
C1079 C1078 1.366 . S
C1079 C1083 1.385 . S
C1080 H1061 0.951 . S
C1080 C1078 1.388 . S
C1080 C1081 1.366 . S
C1081 C1080 1.366 . S
C1081 C1082 1.414 . S
C1081 C1084 1.499 . S
C1082 H1062 0.950 . S
C1082 C1081 1.414 . S
C1082 C1083 1.374 . S
C1083 H1063 0.950 . S
C1083 C1079 1.385 . S
C1083 C1082 1.374 . S
C1084 C1081 1.499 . S
C1084 C1085 1.373 . S
C1084 C1086 1.389 . S
C1085 H1064 0.950 . S
C1085 C1084 1.373 . S
C1085 C1101 1.377 . S
C1086 C1084 1.389 . S
C1086 C1087 1.524 . S
C1086 C1100 1.377 . S
C1087 C1086 1.524 . S
C1087 C1088 1.397 . S
C1087 C1092 1.363 . S
C1088 H1065 0.950 . S
C1088 C1087 1.397 . S
C1088 C1089 1.334 . S
C1089 H1066 0.950 . S
C1089 C1088 1.334 . S
C1089 C1090 1.287 . S
C1090 C1089 1.287 . S
C1090 C1091 1.524 . S
C1090 H1109 0.913 . S
C1091 H1067 0.950 . S
C1091 C1090 1.524 . S
C1091 C1092 1.415 . S
C1092 H1068 0.950 . S
C1092 C1087 1.363 . S
C1092 C1091 1.415 . S
C1093 H1069 0.951 . S
C1093 C1094 1.366 . S
C1093 C1095 1.388 . S
C1094 C1093 1.366 . S
C1094 C1098 1.385 . S
C1095 H1070 0.951 . S
C1095 C1093 1.388 . S
C1095 C1096 1.366 . S
C1096 C1095 1.366 . S
C1096 C1097 1.414 . S
C1096 C1099 1.499 . S
C1097 H1071 0.950 . S
C1097 C1096 1.414 . S
C1097 C1098 1.374 . S
C1098 H1072 0.950 . S
C1098 C1094 1.385 . S
C1098 C1097 1.374 . S
C1099 C1096 1.499 . S
C1099 C1100 1.373 . S
C1099 C1101 1.389 . S
C1100 H1073 0.950 . S
C1100 C1086 1.377 . S
C1100 C1099 1.373 . S
C1101 C1085 1.377 . S
C1101 C1099 1.389 . S
C1101 C1102 1.524 . S
C1102 C1101 1.524 . S
C1102 C1103 1.397 . S
C1102 C1107 1.363 . S
C1103 H1074 0.950 . S
C1103 C1102 1.397 . S
C1103 C1104 1.334 . S
C1104 H1075 0.950 . S
C1104 C1103 1.334 . S
C1104 C1105 1.287 . S
C1105 C1104 1.287 . S
C1105 C1106 1.524 . S
C1105 H1108 0.999 . S
C1106 H1076 0.950 . S
C1106 C1105 1.524 . S
C1106 C1107 1.415 . S
C1107 H1077 0.950 . S
C1107 C1102 1.363 . S
C1107 C1106 1.415 . S
H1108 C1105 0.999 . S
H1109 C1090 0.913 . S
H1110 C1128 0.951 . S
H1111 C1130 0.951 . S
H1112 C1132 0.950 . S
H1113 C1133 0.950 . S
H1114 C1135 0.950 . S
H1115 C1138 0.950 . S
H1116 C1139 0.950 . S
H1117 C1141 0.950 . S
H1118 C1142 0.950 . S
H1119 C1143 0.951 . S
H1120 C1145 0.951 . S
H1121 C1147 0.950 . S
H1122 C1148 0.950 . S
H1123 C1150 0.950 . S
H1124 C1153 0.950 . S
H1125 C1154 0.950 . S
H1126 C1156 0.950 . S
H1127 C1157 0.950 . S
C1128 H1110 0.951 . S
C1128 C1129 1.366 . S
C1128 C1130 1.388 . S
C1129 C1128 1.366 . S
C1129 C1133 1.385 . S
C1130 H1111 0.951 . S
C1130 C1128 1.388 . S
C1130 C1131 1.366 . S
C1131 C1130 1.366 . S
C1131 C1132 1.414 . S
C1131 C1134 1.499 . S
C1132 H1112 0.950 . S
C1132 C1131 1.414 . S
C1132 C1133 1.374 . S
C1133 H1113 0.950 . S
C1133 C1129 1.385 . S
C1133 C1132 1.374 . S
C1134 C1131 1.499 . S
C1134 C1135 1.373 . S
C1134 C1136 1.389 . S
C1135 H1114 0.950 . S
C1135 C1134 1.373 . S
C1135 C1151 1.377 . S
C1136 C1134 1.389 . S
C1136 C1137 1.524 . S
C1136 C1150 1.377 . S
C1137 C1136 1.524 . S
C1137 C1138 1.397 . S
C1137 C1142 1.363 . S
C1138 H1115 0.950 . S
C1138 C1137 1.397 . S
C1138 C1139 1.334 . S
C1139 H1116 0.950 . S
C1139 C1138 1.334 . S
C1139 C1140 1.287 . S
C1140 C1139 1.287 . S
C1140 C1141 1.524 . S
C1140 H1159 0.913 . S
C1141 H1117 0.950 . S
C1141 C1140 1.524 . S
C1141 C1142 1.415 . S
C1142 H1118 0.950 . S
C1142 C1137 1.363 . S
C1142 C1141 1.415 . S
C1143 H1119 0.951 . S
C1143 C1144 1.366 . S
C1143 C1145 1.388 . S
C1144 C1143 1.366 . S
C1144 C1148 1.385 . S
C1145 H1120 0.951 . S
C1145 C1143 1.388 . S
C1145 C1146 1.366 . S
C1146 C1145 1.366 . S
C1146 C1147 1.414 . S
C1146 C1149 1.499 . S
C1147 H1121 0.950 . S
C1147 C1146 1.414 . S
C1147 C1148 1.374 . S
C1148 H1122 0.950 . S
C1148 C1144 1.385 . S
C1148 C1147 1.374 . S
C1149 C1146 1.499 . S
C1149 C1150 1.373 . S
C1149 C1151 1.389 . S
C1150 H1123 0.950 . S
C1150 C1136 1.377 . S
C1150 C1149 1.373 . S
C1151 C1135 1.377 . S
C1151 C1149 1.389 . S
C1151 C1152 1.524 . S
C1152 C1151 1.524 . S
C1152 C1153 1.397 . S
C1152 C1157 1.363 . S
C1153 H1124 0.950 . S
C1153 C1152 1.397 . S
C1153 C1154 1.334 . S
C1154 H1125 0.950 . S
C1154 C1153 1.334 . S
C1154 C1155 1.287 . S
C1155 C1154 1.287 . S
C1155 C1156 1.524 . S
C1155 H1158 0.999 . S
C1156 H1126 0.950 . S
C1156 C1155 1.524 . S
C1156 C1157 1.415 . S
C1157 H1127 0.950 . S
C1157 C1152 1.363 . S
C1157 C1156 1.415 . S
H1158 C1155 0.999 . S
H1159 C1140 0.913 . S
H1160 C1178 0.951 . S
H1161 C1180 0.951 . S
H1162 C1182 0.950 . S
H1163 C1183 0.950 . S
H1164 C1185 0.950 . S
H1165 C1188 0.950 . S
H1166 C1189 0.950 . S
H1167 C1191 0.950 . S
H1168 C1192 0.950 . S
H1169 C1193 0.951 . S
H1170 C1195 0.951 . S
H1171 C1197 0.950 . S
H1172 C1198 0.950 . S
H1173 C1200 0.950 . S
H1174 C1203 0.950 . S
H1175 C1204 0.950 . S
H1176 C1206 0.950 . S
H1177 C1207 0.950 . S
C1178 H1160 0.951 . S
C1178 C1179 1.366 . S
C1178 C1180 1.388 . S
C1179 C1178 1.366 . S
C1179 C1183 1.385 . S
C1180 H1161 0.951 . S
C1180 C1178 1.388 . S
C1180 C1181 1.366 . S
C1181 C1180 1.366 . S
C1181 C1182 1.414 . S
C1181 C1184 1.499 . S
C1182 H1162 0.950 . S
C1182 C1181 1.414 . S
C1182 C1183 1.374 . S
C1183 H1163 0.950 . S
C1183 C1179 1.385 . S
C1183 C1182 1.374 . S
C1184 C1181 1.499 . S
C1184 C1185 1.373 . S
C1184 C1186 1.389 . S
C1185 H1164 0.950 . S
C1185 C1184 1.373 . S
C1185 C1201 1.377 . S
C1186 C1184 1.389 . S
C1186 C1187 1.524 . S
C1186 C1200 1.377 . S
C1187 C1186 1.524 . S
C1187 C1188 1.397 . S
C1187 C1192 1.363 . S
C1188 H1165 0.950 . S
C1188 C1187 1.397 . S
C1188 C1189 1.334 . S
C1189 H1166 0.950 . S
C1189 C1188 1.334 . S
C1189 C1190 1.287 . S
C1190 C1189 1.287 . S
C1190 C1191 1.524 . S
C1190 H1209 0.913 . S
C1191 H1167 0.950 . S
C1191 C1190 1.524 . S
C1191 C1192 1.415 . S
C1192 H1168 0.950 . S
C1192 C1187 1.363 . S
C1192 C1191 1.415 . S
C1193 H1169 0.951 . S
C1193 C1194 1.366 . S
C1193 C1195 1.388 . S
C1194 C1193 1.366 . S
C1194 C1198 1.385 . S
C1195 H1170 0.951 . S
C1195 C1193 1.388 . S
C1195 C1196 1.366 . S
C1196 C1195 1.366 . S
C1196 C1197 1.414 . S
C1196 C1199 1.499 . S
C1197 H1171 0.950 . S
C1197 C1196 1.414 . S
C1197 C1198 1.374 . S
C1198 H1172 0.950 . S
C1198 C1194 1.385 . S
C1198 C1197 1.374 . S
C1199 C1196 1.499 . S
C1199 C1200 1.373 . S
C1199 C1201 1.389 . S
C1200 H1173 0.950 . S
C1200 C1186 1.377 . S
C1200 C1199 1.373 . S
C1201 C1185 1.377 . S
C1201 C1199 1.389 . S
C1201 C1202 1.524 . S
C1202 C1201 1.524 . S
C1202 C1203 1.397 . S
C1202 C1207 1.363 . S
C1203 H1174 0.950 . S
C1203 C1202 1.397 . S
C1203 C1204 1.334 . S
C1204 H1175 0.950 . S
C1204 C1203 1.334 . S
C1204 C1205 1.287 . S
C1205 C1204 1.287 . S
C1205 C1206 1.524 . S
C1205 H1208 0.999 . S
C1206 H1176 0.950 . S
C1206 C1205 1.524 . S
C1206 C1207 1.415 . S
C1207 H1177 0.950 . S
C1207 C1202 1.363 . S
C1207 C1206 1.415 . S
H1208 C1205 0.999 . S
H1209 C1190 0.913 . S
H1210 C1228 0.951 . S
H1211 C1230 0.951 . S
H1212 C1232 0.950 . S
H1213 C1233 0.950 . S
H1214 C1235 0.950 . S
H1215 C1238 0.950 . S
H1216 C1239 0.950 . S
H1217 C1241 0.950 . S
H1218 C1242 0.950 . S
H1219 C1243 0.951 . S
H1220 C1245 0.951 . S
H1221 C1247 0.950 . S
H1222 C1248 0.950 . S
H1223 C1250 0.950 . S
H1224 C1253 0.950 . S
H1225 C1254 0.950 . S
H1226 C1256 0.950 . S
H1227 C1257 0.950 . S
C1228 H1210 0.951 . S
C1228 C1229 1.366 . S
C1228 C1230 1.388 . S
C1229 C1228 1.366 . S
C1229 C1233 1.385 . S
C1230 H1211 0.951 . S
C1230 C1228 1.388 . S
C1230 C1231 1.366 . S
C1231 C1230 1.366 . S
C1231 C1232 1.414 . S
C1231 C1234 1.499 . S
C1232 H1212 0.950 . S
C1232 C1231 1.414 . S
C1232 C1233 1.374 . S
C1233 H1213 0.950 . S
C1233 C1229 1.385 . S
C1233 C1232 1.374 . S
C1234 C1231 1.499 . S
C1234 C1235 1.373 . S
C1234 C1236 1.389 . S
C1235 H1214 0.950 . S
C1235 C1234 1.373 . S
C1235 C1251 1.377 . S
C1236 C1234 1.389 . S
C1236 C1237 1.524 . S
C1236 C1250 1.377 . S
C1237 C1236 1.524 . S
C1237 C1238 1.397 . S
C1237 C1242 1.363 . S
C1238 H1215 0.950 . S
C1238 C1237 1.397 . S
C1238 C1239 1.334 . S
C1239 H1216 0.950 . S
C1239 C1238 1.334 . S
C1239 C1240 1.287 . S
C1240 C1239 1.287 . S
C1240 C1241 1.524 . S
C1240 H1259 0.913 . S
C1241 H1217 0.950 . S
C1241 C1240 1.524 . S
C1241 C1242 1.415 . S
C1242 H1218 0.950 . S
C1242 C1237 1.363 . S
C1242 C1241 1.415 . S
C1243 H1219 0.951 . S
C1243 C1244 1.366 . S
C1243 C1245 1.388 . S
C1244 C1243 1.366 . S
C1244 C1248 1.385 . S
C1245 H1220 0.951 . S
C1245 C1243 1.388 . S
C1245 C1246 1.366 . S
C1246 C1245 1.366 . S
C1246 C1247 1.414 . S
C1246 C1249 1.499 . S
C1247 H1221 0.950 . S
C1247 C1246 1.414 . S
C1247 C1248 1.374 . S
C1248 H1222 0.950 . S
C1248 C1244 1.385 . S
C1248 C1247 1.374 . S
C1249 C1246 1.499 . S
C1249 C1250 1.373 . S
C1249 C1251 1.389 . S
C1250 H1223 0.950 . S
C1250 C1236 1.377 . S
C1250 C1249 1.373 . S
C1251 C1235 1.377 . S
C1251 C1249 1.389 . S
C1251 C1252 1.524 . S
C1252 C1251 1.524 . S
C1252 C1253 1.397 . S
C1252 C1257 1.363 . S
C1253 H1224 0.950 . S
C1253 C1252 1.397 . S
C1253 C1254 1.334 . S
C1254 H1225 0.950 . S
C1254 C1253 1.334 . S
C1254 C1255 1.287 . S
C1255 C1254 1.287 . S
C1255 C1256 1.524 . S
C1255 H1258 0.999 . S
C1256 H1226 0.950 . S
C1256 C1255 1.524 . S
C1256 C1257 1.415 . S
C1257 H1227 0.950 . S
C1257 C1252 1.363 . S
C1257 C1256 1.415 . S
H1258 C1255 0.999 . S
H1259 C1240 0.913 . S
H1260 C1278 0.951 . S
H1261 C1280 0.951 . S
H1262 C1282 0.950 . S
H1263 C1283 0.950 . S
H1264 C1285 0.950 . S
H1265 C1288 0.950 . S
H1266 C1289 0.950 . S
H1267 C1291 0.950 . S
H1268 C1292 0.950 . S
H1269 C1293 0.951 1_655 S
H1270 C1295 0.951 1_655 S
H1271 C1297 0.950 . S
H1272 C1298 0.950 . S
H1273 C1300 0.950 . S
H1274 C1303 0.950 . S
H1275 C1304 0.950 . S
H1276 C1306 0.950 . S
H1277 C1307 0.950 . S
C1278 H1260 0.951 . S
C1278 C1279 1.366 . S
C1278 C1280 1.388 . S
C1279 C1278 1.366 . S
C1279 C1283 1.385 1_455 S
C1280 H1261 0.951 . S
C1280 C1278 1.388 . S
C1280 C1281 1.366 . S
C1281 C1280 1.366 . S
C1281 C1282 1.414 1_455 S
C1281 C1284 1.499 . S
C1282 H1262 0.950 . S
C1282 C1281 1.414 1_655 S
C1282 C1283 1.374 . S
C1283 H1263 0.950 . S
C1283 C1279 1.385 1_655 S
C1283 C1282 1.374 . S
C1284 C1281 1.499 . S
C1284 C1285 1.373 1_455 S
C1284 C1286 1.389 . S
C1285 H1264 0.950 . S
C1285 C1284 1.373 1_655 S
C1285 C1301 1.377 . S
C1286 C1284 1.389 . S
C1286 C1287 1.524 . S
C1286 C1300 1.377 . S
C1287 C1286 1.524 . S
C1287 C1288 1.397 . S
C1287 C1292 1.363 . S
C1288 H1265 0.950 . S
C1288 C1287 1.397 . S
C1288 C1289 1.334 . S
C1289 H1266 0.950 . S
C1289 C1288 1.334 . S
C1289 C1290 1.287 . S
C1290 C1289 1.287 . S
C1290 C1291 1.524 . S
C1290 H1309 0.913 . S
C1291 H1267 0.950 . S
C1291 C1290 1.524 . S
C1291 C1292 1.415 . S
C1292 H1268 0.950 . S
C1292 C1287 1.363 . S
C1292 C1291 1.415 . S
C1293 H1269 0.951 1_455 S
C1293 C1294 1.366 . S
C1293 C1295 1.388 . S
C1294 C1293 1.366 . S
C1294 C1298 1.385 . S
C1295 H1270 0.951 1_455 S
C1295 C1293 1.388 . S
C1295 C1296 1.366 . S
C1296 C1295 1.366 . S
C1296 C1297 1.414 . S
C1296 C1299 1.499 . S
C1297 H1271 0.950 . S
C1297 C1296 1.414 . S
C1297 C1298 1.374 . S
C1298 H1272 0.950 . S
C1298 C1294 1.385 . S
C1298 C1297 1.374 . S
C1299 C1296 1.499 . S
C1299 C1300 1.373 . S
C1299 C1301 1.389 1_455 S
C1300 H1273 0.950 . S
C1300 C1286 1.377 . S
C1300 C1299 1.373 . S
C1301 C1285 1.377 . S
C1301 C1299 1.389 1_655 S
C1301 C1302 1.524 . S
C1302 C1301 1.524 . S
C1302 C1303 1.397 . S
C1302 C1307 1.363 . S
C1303 H1274 0.950 . S
C1303 C1302 1.397 . S
C1303 C1304 1.334 . S
C1304 H1275 0.950 . S
C1304 C1303 1.334 . S
C1304 C1305 1.287 . S
C1305 C1304 1.287 . S
C1305 C1306 1.524 . S
C1305 H1308 0.999 . S
C1306 H1276 0.950 . S
C1306 C1305 1.524 . S
C1306 C1307 1.415 . S
C1307 H1277 0.950 . S
C1307 C1302 1.363 . S
C1307 C1306 1.415 . S
H1308 C1305 0.999 . S
H1309 C1290 0.913 . S
H1310 C1328 0.951 . S
H1311 C1330 0.951 . S
H1312 C1332 0.950 . S
H1313 C1333 0.950 . S
H1314 C1335 0.950 . S
H1315 C1338 0.950 . S
H1316 C1339 0.950 . S
H1317 C1341 0.950 . S
H1318 C1342 0.950 . S
H1319 C1343 0.951 . S
H1320 C1345 0.951 . S
H1321 C1347 0.950 . S
H1322 C1348 0.950 . S
H1323 C1350 0.950 . S
H1324 C1353 0.950 . S
H1325 C1354 0.950 . S
H1326 C1356 0.950 . S
H1327 C1357 0.950 . S
C1328 H1310 0.951 . S
C1328 C1329 1.366 . S
C1328 C1330 1.388 . S
C1329 C1328 1.366 . S
C1329 C1333 1.385 . S
C1330 H1311 0.951 . S
C1330 C1328 1.388 . S
C1330 C1331 1.366 . S
C1331 C1330 1.366 . S
C1331 C1332 1.414 . S
C1331 C1334 1.499 . S
C1332 H1312 0.950 . S
C1332 C1331 1.414 . S
C1332 C1333 1.374 . S
C1333 H1313 0.950 . S
C1333 C1329 1.385 . S
C1333 C1332 1.374 . S
C1334 C1331 1.499 . S
C1334 C1335 1.373 . S
C1334 C1336 1.389 . S
C1335 H1314 0.950 . S
C1335 C1334 1.373 . S
C1335 C1351 1.377 . S
C1336 C1334 1.389 . S
C1336 C1337 1.524 . S
C1336 C1350 1.377 . S
C1337 C1336 1.524 . S
C1337 C1338 1.397 . S
C1337 C1342 1.363 . S
C1338 H1315 0.950 . S
C1338 C1337 1.397 . S
C1338 C1339 1.334 . S
C1339 H1316 0.950 . S
C1339 C1338 1.334 . S
C1339 C1340 1.287 . S
C1340 C1339 1.287 . S
C1340 C1341 1.524 . S
C1340 H1359 0.913 . S
C1341 H1317 0.950 . S
C1341 C1340 1.524 . S
C1341 C1342 1.415 . S
C1342 H1318 0.950 . S
C1342 C1337 1.363 . S
C1342 C1341 1.415 . S
C1343 H1319 0.951 . S
C1343 C1344 1.366 . S
C1343 C1345 1.388 . S
C1344 C1343 1.366 . S
C1344 C1348 1.385 . S
C1345 H1320 0.951 . S
C1345 C1343 1.388 . S
C1345 C1346 1.366 . S
C1346 C1345 1.366 . S
C1346 C1347 1.414 . S
C1346 C1349 1.499 . S
C1347 H1321 0.950 . S
C1347 C1346 1.414 . S
C1347 C1348 1.374 . S
C1348 H1322 0.950 . S
C1348 C1344 1.385 . S
C1348 C1347 1.374 . S
C1349 C1346 1.499 . S
C1349 C1350 1.373 . S
C1349 C1351 1.389 . S
C1350 H1323 0.950 . S
C1350 C1336 1.377 . S
C1350 C1349 1.373 . S
C1351 C1335 1.377 . S
C1351 C1349 1.389 . S
C1351 C1352 1.524 . S
C1352 C1351 1.524 . S
C1352 C1353 1.397 . S
C1352 C1357 1.363 . S
C1353 H1324 0.950 . S
C1353 C1352 1.397 . S
C1353 C1354 1.334 . S
C1354 H1325 0.950 . S
C1354 C1353 1.334 . S
C1354 C1355 1.287 . S
C1355 C1354 1.287 . S
C1355 C1356 1.524 . S
C1355 H1358 0.999 . S
C1356 H1326 0.950 . S
C1356 C1355 1.524 . S
C1356 C1357 1.415 . S
C1357 H1327 0.950 . S
C1357 C1352 1.363 . S
C1357 C1356 1.415 . S
H1358 C1355 0.999 . S
H1359 C1340 0.913 . S
H1360 C1378 0.951 . S
H1361 C1380 0.951 . S
H1362 C1382 0.950 . S
H1363 C1383 0.950 . S
H1364 C1385 0.950 . S
H1365 C1388 0.950 . S
H1366 C1389 0.950 . S
H1367 C1391 0.950 . S
H1368 C1392 0.950 . S
H1369 C1393 0.951 1_565 S
H1370 C1395 0.951 1_565 S
H1371 C1397 0.950 . S
H1372 C1398 0.950 . S
H1373 C1400 0.950 . S
H1374 C1403 0.950 . S
H1375 C1404 0.950 . S
H1376 C1406 0.950 . S
H1377 C1407 0.950 . S
C1378 H1360 0.951 . S
C1378 C1379 1.366 . S
C1378 C1380 1.388 . S
C1379 C1378 1.366 . S
C1379 C1383 1.385 . S
C1380 H1361 0.951 . S
C1380 C1378 1.388 . S
C1380 C1381 1.366 . S
C1381 C1380 1.366 . S
C1381 C1382 1.414 . S
C1381 C1384 1.499 . S
C1382 H1362 0.950 . S
C1382 C1381 1.414 . S
C1382 C1383 1.374 . S
C1383 H1363 0.950 . S
C1383 C1379 1.385 . S
C1383 C1382 1.374 . S
C1384 C1381 1.499 . S
C1384 C1385 1.373 1_545 S
C1384 C1386 1.389 . S
C1385 H1364 0.950 . S
C1385 C1384 1.373 1_565 S
C1385 C1401 1.377 . S
C1386 C1384 1.389 . S
C1386 C1387 1.524 . S
C1386 C1400 1.377 . S
C1387 C1386 1.524 . S
C1387 C1388 1.397 . S
C1387 C1392 1.363 . S
C1388 H1365 0.950 . S
C1388 C1387 1.397 . S
C1388 C1389 1.334 . S
C1389 H1366 0.950 . S
C1389 C1388 1.334 . S
C1389 C1390 1.287 . S
C1390 C1389 1.287 . S
C1390 C1391 1.524 . S
C1390 H1409 0.913 . S
C1391 H1367 0.950 . S
C1391 C1390 1.524 . S
C1391 C1392 1.415 . S
C1392 H1368 0.950 . S
C1392 C1387 1.363 . S
C1392 C1391 1.415 . S
C1393 H1369 0.951 1_545 S
C1393 C1394 1.366 . S
C1393 C1395 1.388 . S
C1394 C1393 1.366 . S
C1394 C1398 1.385 . S
C1395 H1370 0.951 1_545 S
C1395 C1393 1.388 . S
C1395 C1396 1.366 . S
C1396 C1395 1.366 . S
C1396 C1397 1.414 . S
C1396 C1399 1.499 . S
C1397 H1371 0.950 . S
C1397 C1396 1.414 . S
C1397 C1398 1.374 . S
C1398 H1372 0.950 . S
C1398 C1394 1.385 . S
C1398 C1397 1.374 . S
C1399 C1396 1.499 . S
C1399 C1400 1.373 . S
C1399 C1401 1.389 1_545 S
C1400 H1373 0.950 . S
C1400 C1386 1.377 . S
C1400 C1399 1.373 . S
C1401 C1385 1.377 . S
C1401 C1399 1.389 1_565 S
C1401 C1402 1.524 . S
C1402 C1401 1.524 . S
C1402 C1403 1.397 . S
C1402 C1407 1.363 . S
C1403 H1374 0.950 . S
C1403 C1402 1.397 . S
C1403 C1404 1.334 . S
C1404 H1375 0.950 . S
C1404 C1403 1.334 . S
C1404 C1405 1.287 . S
C1405 C1404 1.287 . S
C1405 C1406 1.524 . S
C1405 H1408 0.999 . S
C1406 H1376 0.950 . S
C1406 C1405 1.524 . S
C1406 C1407 1.415 . S
C1407 H1377 0.950 . S
C1407 C1402 1.363 . S
C1407 C1406 1.415 . S
H1408 C1405 0.999 . S
H1409 C1390 0.913 . S
H1410 C1428 0.951 . S
H1411 C1430 0.951 . S
H1412 C1432 0.950 . S
H1413 C1433 0.950 . S
H1414 C1435 0.950 . S
H1415 C1438 0.950 . S
H1416 C1439 0.950 . S
H1417 C1441 0.950 . S
H1418 C1442 0.950 . S
H1419 C1443 0.951 . S
H1420 C1445 0.951 . S
H1421 C1447 0.950 . S
H1422 C1448 0.950 . S
H1423 C1450 0.950 . S
H1424 C1453 0.950 . S
H1425 C1454 0.950 1_554 S
H1426 C1456 0.950 . S
H1427 C1457 0.950 . S
C1428 H1410 0.951 . S
C1428 C1429 1.366 . S
C1428 C1430 1.388 . S
C1429 C1428 1.366 . S
C1429 C1433 1.385 . S
C1430 H1411 0.951 . S
C1430 C1428 1.388 . S
C1430 C1431 1.366 . S
C1431 C1430 1.366 . S
C1431 C1432 1.414 . S
C1431 C1434 1.499 . S
C1432 H1412 0.950 . S
C1432 C1431 1.414 . S
C1432 C1433 1.374 . S
C1433 H1413 0.950 . S
C1433 C1429 1.385 . S
C1433 C1432 1.374 . S
C1434 C1431 1.499 . S
C1434 C1435 1.373 . S
C1434 C1436 1.389 . S
C1435 H1414 0.950 . S
C1435 C1434 1.373 . S
C1435 C1451 1.377 . S
C1436 C1434 1.389 . S
C1436 C1437 1.524 . S
C1436 C1450 1.377 . S
C1437 C1436 1.524 . S
C1437 C1438 1.397 . S
C1437 C1442 1.363 . S
C1438 H1415 0.950 . S
C1438 C1437 1.397 . S
C1438 C1439 1.334 . S
C1439 H1416 0.950 . S
C1439 C1438 1.334 . S
C1439 C1440 1.287 . S
C1440 C1439 1.287 . S
C1440 C1441 1.524 . S
C1440 H1459 0.913 . S
C1441 H1417 0.950 . S
C1441 C1440 1.524 . S
C1441 C1442 1.415 . S
C1442 H1418 0.950 . S
C1442 C1437 1.363 . S
C1442 C1441 1.415 . S
C1443 H1419 0.951 . S
C1443 C1444 1.366 . S
C1443 C1445 1.388 . S
C1444 C1443 1.366 . S
C1444 C1448 1.385 . S
C1445 H1420 0.951 . S
C1445 C1443 1.388 . S
C1445 C1446 1.366 1_554 S
C1446 C1445 1.366 1_556 S
C1446 C1447 1.415 1_556 S
C1446 C1449 1.497 . S
C1447 H1421 0.950 . S
C1447 C1446 1.415 1_554 S
C1447 C1448 1.374 . S
C1448 H1422 0.950 . S
C1448 C1444 1.385 . S
C1448 C1447 1.374 . S
C1449 C1446 1.497 . S
C1449 C1450 1.373 . S
C1449 C1451 1.389 . S
C1450 H1423 0.950 . S
C1450 C1436 1.377 . S
C1450 C1449 1.373 . S
C1451 C1435 1.377 . S
C1451 C1449 1.389 . S
C1451 C1452 1.524 . S
C1452 C1451 1.524 . S
C1452 C1453 1.397 . S
C1452 C1457 1.363 . S
C1453 H1424 0.950 . S
C1453 C1452 1.397 . S
C1453 C1454 1.334 . S
C1454 H1425 0.950 1_556 S
C1454 C1453 1.334 . S
C1454 C1455 1.287 . S
C1455 C1454 1.287 . S
C1455 C1456 1.524 . S
C1455 H1458 0.999 . S
C1456 H1426 0.950 . S
C1456 C1455 1.524 . S
C1456 C1457 1.415 . S
C1457 H1427 0.950 . S
C1457 C1452 1.363 . S
C1457 C1456 1.415 . S
H1458 C1455 0.999 . S
H1459 C1440 0.913 . S
H1460 C1478 0.951 . S
H1461 C1480 0.951 . S
H1462 C1482 0.950 . S
H1463 C1483 0.950 . S
H1464 C1485 0.950 . S
H1465 C1488 0.950 . S
H1466 C1489 0.950 . S
H1467 C1491 0.950 . S
H1468 C1492 0.950 . S
H1469 C1493 0.951 . S
H1470 C1495 0.951 . S
H1471 C1497 0.950 . S
H1472 C1498 0.950 . S
H1473 C1500 0.950 . S
H1474 C1503 0.950 . S
H1475 C1504 0.950 1_554 S
H1476 C1506 0.950 . S
H1477 C1507 0.950 . S
C1478 H1460 0.951 . S
C1478 C1479 1.366 . S
C1478 C1480 1.388 . S
C1479 C1478 1.366 . S
C1479 C1483 1.385 . S
C1480 H1461 0.951 . S
C1480 C1478 1.388 . S
C1480 C1481 1.366 . S
C1481 C1480 1.366 . S
C1481 C1482 1.414 . S
C1481 C1484 1.499 . S
C1482 H1462 0.950 . S
C1482 C1481 1.414 . S
C1482 C1483 1.374 . S
C1483 H1463 0.950 . S
C1483 C1479 1.385 . S
C1483 C1482 1.374 . S
C1484 C1481 1.499 . S
C1484 C1485 1.373 . S
C1484 C1486 1.389 . S
C1485 H1464 0.950 . S
C1485 C1484 1.373 . S
C1485 C1501 1.377 . S
C1486 C1484 1.389 . S
C1486 C1487 1.524 . S
C1486 C1500 1.377 . S
C1487 C1486 1.524 . S
C1487 C1488 1.397 . S
C1487 C1492 1.363 . S
C1488 H1465 0.950 . S
C1488 C1487 1.397 . S
C1488 C1489 1.334 . S
C1489 H1466 0.950 . S
C1489 C1488 1.334 . S
C1489 C1490 1.287 . S
C1490 C1489 1.287 . S
C1490 C1491 1.524 . S
C1490 H1509 0.913 . S
C1491 H1467 0.950 . S
C1491 C1490 1.524 . S
C1491 C1492 1.415 . S
C1492 H1468 0.950 . S
C1492 C1487 1.363 . S
C1492 C1491 1.415 . S
C1493 H1469 0.951 . S
C1493 C1494 1.366 . S
C1493 C1495 1.388 . S
C1494 C1493 1.366 . S
C1494 C1498 1.385 . S
C1495 H1470 0.951 . S
C1495 C1493 1.388 . S
C1495 C1496 1.364 1_554 S
C1496 C1495 1.364 1_556 S
C1496 C1497 1.412 1_556 S
C1496 C1499 1.502 . S
C1497 H1471 0.950 . S
C1497 C1496 1.412 1_554 S
C1497 C1498 1.374 . S
C1498 H1472 0.950 . S
C1498 C1494 1.385 . S
C1498 C1497 1.374 . S
C1499 C1496 1.502 . S
C1499 C1500 1.373 . S
C1499 C1501 1.389 . S
C1500 H1473 0.950 . S
C1500 C1486 1.377 . S
C1500 C1499 1.373 . S
C1501 C1485 1.377 . S
C1501 C1499 1.389 . S
C1501 C1502 1.524 . S
C1502 C1501 1.524 . S
C1502 C1503 1.397 . S
C1502 C1507 1.363 . S
C1503 H1474 0.950 . S
C1503 C1502 1.397 . S
C1503 C1504 1.334 . S
C1504 H1475 0.950 1_556 S
C1504 C1503 1.334 . S
C1504 C1505 1.287 . S
C1505 C1504 1.287 . S
C1505 C1506 1.524 . S
C1505 H1508 0.999 . S
C1506 H1476 0.950 . S
C1506 C1505 1.524 . S
C1506 C1507 1.415 . S
C1507 H1477 0.950 . S
C1507 C1502 1.363 . S
C1507 C1506 1.415 . S
H1508 C1505 0.999 . S
H1509 C1490 0.913 . S
H1510 C1528 0.951 . S
H1511 C1530 0.951 . S
H1512 C1532 0.950 . S
H1513 C1533 0.950 . S
H1514 C1535 0.950 . S
H1515 C1538 0.950 . S
H1516 C1539 0.950 . S
H1517 C1541 0.950 . S
H1518 C1542 0.950 . S
H1519 C1543 0.951 . S
H1520 C1545 0.951 . S
H1521 C1547 0.950 . S
H1522 C1548 0.950 . S
H1523 C1550 0.950 . S
H1524 C1553 0.950 . S
H1525 C1554 0.950 1_554 S
H1526 C1556 0.950 . S
H1527 C1557 0.950 . S
C1528 H1510 0.951 . S
C1528 C1529 1.366 . S
C1528 C1530 1.388 . S
C1529 C1528 1.366 . S
C1529 C1533 1.385 . S
C1530 H1511 0.951 . S
C1530 C1528 1.388 . S
C1530 C1531 1.366 . S
C1531 C1530 1.366 . S
C1531 C1532 1.414 . S
C1531 C1534 1.499 . S
C1532 H1512 0.950 . S
C1532 C1531 1.414 . S
C1532 C1533 1.374 . S
C1533 H1513 0.950 . S
C1533 C1529 1.385 . S
C1533 C1532 1.374 . S
C1534 C1531 1.499 . S
C1534 C1535 1.373 . S
C1534 C1536 1.389 . S
C1535 H1514 0.950 . S
C1535 C1534 1.373 . S
C1535 C1551 1.377 . S
C1536 C1534 1.389 . S
C1536 C1537 1.524 . S
C1536 C1550 1.377 . S
C1537 C1536 1.524 . S
C1537 C1538 1.397 . S
C1537 C1542 1.363 . S
C1538 H1515 0.950 . S
C1538 C1537 1.397 . S
C1538 C1539 1.334 . S
C1539 H1516 0.950 . S
C1539 C1538 1.334 . S
C1539 C1540 1.287 . S
C1540 C1539 1.287 . S
C1540 C1541 1.524 . S
C1540 H1559 0.913 . S
C1541 H1517 0.950 . S
C1541 C1540 1.524 . S
C1541 C1542 1.415 . S
C1542 H1518 0.950 . S
C1542 C1537 1.363 . S
C1542 C1541 1.415 . S
C1543 H1519 0.951 . S
C1543 C1544 1.366 . S
C1543 C1545 1.388 . S
C1544 C1543 1.366 . S
C1544 C1548 1.385 . S
C1545 H1520 0.951 . S
C1545 C1543 1.388 . S
C1545 C1546 1.365 1_554 S
C1546 C1545 1.365 1_556 S
C1546 C1547 1.413 1_556 S
C1546 C1549 1.500 . S
C1547 H1521 0.950 . S
C1547 C1546 1.413 1_554 S
C1547 C1548 1.374 . S
C1548 H1522 0.950 . S
C1548 C1544 1.385 . S
C1548 C1547 1.374 . S
C1549 C1546 1.500 . S
C1549 C1550 1.373 . S
C1549 C1551 1.389 . S
C1550 H1523 0.950 . S
C1550 C1536 1.377 . S
C1550 C1549 1.373 . S
C1551 C1535 1.377 . S
C1551 C1549 1.389 . S
C1551 C1552 1.524 . S
C1552 C1551 1.524 . S
C1552 C1553 1.397 . S
C1552 C1557 1.363 . S
C1553 H1524 0.950 . S
C1553 C1552 1.397 . S
C1553 C1554 1.334 . S
C1554 H1525 0.950 1_556 S
C1554 C1553 1.334 . S
C1554 C1555 1.287 . S
C1555 C1554 1.287 . S
C1555 C1556 1.524 . S
C1555 H1558 0.999 . S
C1556 H1526 0.950 . S
C1556 C1555 1.524 . S
C1556 C1557 1.415 . S
C1557 H1527 0.950 . S
C1557 C1552 1.363 . S
C1557 C1556 1.415 . S
H1558 C1555 0.999 . S
H1559 C1540 0.913 . S
H1560 C1578 0.951 . S
H1561 C1580 0.951 . S
H1562 C1582 0.950 . S
H1563 C1583 0.950 . S
H1564 C1585 0.950 . S
H1565 C1588 0.950 . S
H1566 C1589 0.950 . S
H1567 C1591 0.950 . S
H1568 C1592 0.950 . S
H1569 C1593 0.951 . S
H1570 C1595 0.951 . S
H1571 C1597 0.950 1_554 S
H1572 C1598 0.950 . S
H1573 C1600 0.950 . S
H1574 C1603 0.950 . S
H1575 C1604 0.950 1_556 S
H1576 C1606 0.950 . S
H1577 C1607 0.950 . S
C1578 H1560 0.951 . S
C1578 C1579 1.366 . S
C1578 C1580 1.388 . S
C1579 C1578 1.366 . S
C1579 C1583 1.385 . S
C1580 H1561 0.951 . S
C1580 C1578 1.388 . S
C1580 C1581 1.366 . S
C1581 C1580 1.366 . S
C1581 C1582 1.414 . S
C1581 C1584 1.499 . S
C1582 H1562 0.950 . S
C1582 C1581 1.414 . S
C1582 C1583 1.374 . S
C1583 H1563 0.950 . S
C1583 C1579 1.385 . S
C1583 C1582 1.374 . S
C1584 C1581 1.499 . S
C1584 C1585 1.373 . S
C1584 C1586 1.389 . S
C1585 H1564 0.950 . S
C1585 C1584 1.373 . S
C1585 C1601 1.377 . S
C1586 C1584 1.389 . S
C1586 C1587 1.524 . S
C1586 C1600 1.377 . S
C1587 C1586 1.524 . S
C1587 C1588 1.397 . S
C1587 C1592 1.363 . S
C1588 H1565 0.950 . S
C1588 C1587 1.397 . S
C1588 C1589 1.334 . S
C1589 H1566 0.950 . S
C1589 C1588 1.334 . S
C1589 C1590 1.287 . S
C1590 C1589 1.287 . S
C1590 C1591 1.524 . S
C1590 H1609 0.913 . S
C1591 H1567 0.950 . S
C1591 C1590 1.524 . S
C1591 C1592 1.415 . S
C1592 H1568 0.950 . S
C1592 C1587 1.363 . S
C1592 C1591 1.415 . S
C1593 H1569 0.951 . S
C1593 C1594 1.366 . S
C1593 C1595 1.388 . S
C1594 C1593 1.366 . S
C1594 C1598 1.385 . S
C1595 H1570 0.951 . S
C1595 C1593 1.388 . S
C1595 C1596 1.366 1_556 S
C1596 C1595 1.366 1_554 S
C1596 C1597 1.414 1_554 S
C1596 C1599 1.499 . S
C1597 H1571 0.950 1_556 S
C1597 C1596 1.414 1_556 S
C1597 C1598 1.374 . S
C1598 H1572 0.950 . S
C1598 C1594 1.385 . S
C1598 C1597 1.374 . S
C1599 C1596 1.499 . S
C1599 C1600 1.373 . S
C1599 C1601 1.389 . S
C1600 H1573 0.950 . S
C1600 C1586 1.377 . S
C1600 C1599 1.373 . S
C1601 C1585 1.377 . S
C1601 C1599 1.389 . S
C1601 C1602 1.524 . S
C1602 C1601 1.524 . S
C1602 C1603 1.397 . S
C1602 C1607 1.363 . S
C1603 H1574 0.950 . S
C1603 C1602 1.397 . S
C1603 C1604 1.334 . S
C1604 H1575 0.950 1_554 S
C1604 C1603 1.334 . S
C1604 C1605 1.287 . S
C1605 C1604 1.287 . S
C1605 C1606 1.524 . S
C1605 H1608 0.999 . S
C1606 H1576 0.950 . S
C1606 C1605 1.524 . S
C1606 C1607 1.415 . S
C1607 H1577 0.950 . S
C1607 C1602 1.363 . S
C1607 C1606 1.415 . S
H1608 C1605 0.999 . S
H1609 C1590 0.913 . S
H1610 C1628 0.951 . S
H1611 C1630 0.954 . S
H1612 C1632 0.950 . S
H1613 C1633 0.950 . S
H1614 C1635 0.950 . S
H1615 C1638 0.950 . S
H1616 C1639 0.950 . S
H1617 C1641 0.950 . S
H1618 C1642 0.950 . S
H1619 C1643 0.951 . S
H1620 C1645 0.951 . S
H1621 C1647 0.950 . S
H1622 C1648 0.950 . S
H1623 C1650 0.950 . S
H1624 C1653 0.950 . S
H1625 C1654 0.950 . S
H1626 C1656 0.950 . S
H1627 C1657 0.950 . S
C1628 H1610 0.951 . S
C1628 C1629 1.366 . S
C1628 C1630 1.388 . S
C1629 C1628 1.366 . S
C1629 C1633 1.385 . S
C1630 H1611 0.954 . S
C1630 C1628 1.388 . S
C1630 C1631 1.366 1_556 S
C1631 C1630 1.366 1_554 S
C1631 C1632 1.414 1_554 S
C1631 C1634 1.499 . S
C1632 H1612 0.950 . S
C1632 C1631 1.414 1_556 S
C1632 C1633 1.374 . S
C1633 H1613 0.950 . S
C1633 C1629 1.385 . S
C1633 C1632 1.374 . S
C1634 C1631 1.499 . S
C1634 C1635 1.373 . S
C1634 C1636 1.389 . S
C1635 H1614 0.950 . S
C1635 C1634 1.373 . S
C1635 C1651 1.377 . S
C1636 C1634 1.389 . S
C1636 C1637 1.524 . S
C1636 C1650 1.377 . S
C1637 C1636 1.524 . S
C1637 C1638 1.397 . S
C1637 C1642 1.363 . S
C1638 H1615 0.950 . S
C1638 C1637 1.397 . S
C1638 C1639 1.334 . S
C1639 H1616 0.950 . S
C1639 C1638 1.334 . S
C1639 C1640 1.287 . S
C1640 C1639 1.287 . S
C1640 C1641 1.524 . S
C1640 H1659 0.913 . S
C1641 H1617 0.950 . S
C1641 C1640 1.524 . S
C1641 C1642 1.415 . S
C1642 H1618 0.950 . S
C1642 C1637 1.363 . S
C1642 C1641 1.415 . S
C1643 H1619 0.951 . S
C1643 C1644 1.366 . S
C1643 C1645 1.388 . S
C1644 C1643 1.366 . S
C1644 C1648 1.385 . S
C1645 H1620 0.951 . S
C1645 C1643 1.388 . S
C1645 C1646 1.366 . S
C1646 C1645 1.366 . S
C1646 C1647 1.414 . S
C1646 C1649 1.499 . S
C1647 H1621 0.950 . S
C1647 C1646 1.414 . S
C1647 C1648 1.374 . S
C1648 H1622 0.950 . S
C1648 C1644 1.385 . S
C1648 C1647 1.374 . S
C1649 C1646 1.499 . S
C1649 C1650 1.373 . S
C1649 C1651 1.389 . S
C1650 H1623 0.950 . S
C1650 C1636 1.377 . S
C1650 C1649 1.373 . S
C1651 C1635 1.377 . S
C1651 C1649 1.389 . S
C1651 C1652 1.524 . S
C1652 C1651 1.524 . S
C1652 C1653 1.397 . S
C1652 C1657 1.363 . S
C1653 H1624 0.950 . S
C1653 C1652 1.397 . S
C1653 C1654 1.334 . S
C1654 H1625 0.950 . S
C1654 C1653 1.334 . S
C1654 C1655 1.287 . S
C1655 C1654 1.287 . S
C1655 C1656 1.524 . S
C1655 H1658 0.999 . S
C1656 H1626 0.950 . S
C1656 C1655 1.524 . S
C1656 C1657 1.415 . S
C1657 H1627 0.950 . S
C1657 C1652 1.363 . S
C1657 C1656 1.415 . S
H1658 C1655 0.999 . S
H1659 C1640 0.913 . S
H1660 C1678 0.951 . S
H1661 C1680 0.951 . S
H1662 C1682 0.950 . S
H1663 C1683 0.950 . S
H1664 C1685 0.950 . S
H1665 C1688 0.950 . S
H1666 C1689 0.950 . S
H1667 C1691 0.950 . S
H1668 C1692 0.950 . S
H1669 C1693 0.951 . S
H1670 C1695 0.951 1_554 S
H1671 C1697 0.950 . S
H1672 C1698 0.950 . S
H1673 C1700 0.950 . S
H1674 C1703 0.950 . S
H1675 C1704 0.950 . S
H1676 C1706 0.950 . S
H1677 C1707 0.950 . S
C1678 H1660 0.951 . S
C1678 C1679 1.366 . S
C1678 C1680 1.388 . S
C1679 C1678 1.366 . S
C1679 C1683 1.385 . S
C1680 H1661 0.951 . S
C1680 C1678 1.388 . S
C1680 C1681 1.366 . S
C1681 C1680 1.366 . S
C1681 C1682 1.414 . S
C1681 C1684 1.499 . S
C1682 H1662 0.950 . S
C1682 C1681 1.414 . S
C1682 C1683 1.374 . S
C1683 H1663 0.950 . S
C1683 C1679 1.385 . S
C1683 C1682 1.374 . S
C1684 C1681 1.499 . S
C1684 C1685 1.373 . S
C1684 C1686 1.389 . S
C1685 H1664 0.950 . S
C1685 C1684 1.373 . S
C1685 C1701 1.377 . S
C1686 C1684 1.389 . S
C1686 C1687 1.524 . S
C1686 C1700 1.377 . S
C1687 C1686 1.524 . S
C1687 C1688 1.397 . S
C1687 C1692 1.363 . S
C1688 H1665 0.950 . S
C1688 C1687 1.397 . S
C1688 C1689 1.334 . S
C1689 H1666 0.950 . S
C1689 C1688 1.334 . S
C1689 C1690 1.287 . S
C1690 C1689 1.287 . S
C1690 C1691 1.524 . S
C1690 H1709 0.913 . S
C1691 H1667 0.950 . S
C1691 C1690 1.524 . S
C1691 C1692 1.415 . S
C1692 H1668 0.950 . S
C1692 C1687 1.363 . S
C1692 C1691 1.415 . S
C1693 H1669 0.951 . S
C1693 C1694 1.366 . S
C1693 C1695 1.388 . S
C1694 C1693 1.366 . S
C1694 C1698 1.385 . S
C1695 H1670 0.951 1_556 S
C1695 C1693 1.388 . S
C1695 C1696 1.366 1_556 S
C1696 C1695 1.366 1_554 S
C1696 C1697 1.414 1_554 S
C1696 C1699 1.499 . S
C1697 H1671 0.950 . S
C1697 C1696 1.414 1_556 S
C1697 C1698 1.374 . S
C1698 H1672 0.950 . S
C1698 C1694 1.385 . S
C1698 C1697 1.374 . S
C1699 C1696 1.499 . S
C1699 C1700 1.373 . S
C1699 C1701 1.389 . S
C1700 H1673 0.950 . S
C1700 C1686 1.377 . S
C1700 C1699 1.373 . S
C1701 C1685 1.377 . S
C1701 C1699 1.389 . S
C1701 C1702 1.524 . S
C1702 C1701 1.524 . S
C1702 C1703 1.397 . S
C1702 C1707 1.363 . S
C1703 H1674 0.950 . S
C1703 C1702 1.397 . S
C1703 C1704 1.334 . S
C1704 H1675 0.950 . S
C1704 C1703 1.334 . S
C1704 C1705 1.287 . S
C1705 C1704 1.287 . S
C1705 C1706 1.524 . S
C1705 H1708 0.999 . S
C1706 H1676 0.950 . S
C1706 C1705 1.524 . S
C1706 C1707 1.415 . S
C1707 H1677 0.950 . S
C1707 C1702 1.363 . S
C1707 C1706 1.415 . S
H1708 C1705 0.999 . S
H1709 C1690 0.913 . S
C379 C6 1.994 . S
C394 C290 1.932 . S
C429 C46 1.994 . S
C444 C330 1.932 . S
C479 C86 1.994 . S
C494 C250 1.932 . S
C529 C166 1.994 . S
C544 C90 1.932 . S
C579 C206 1.994 . S
C594 C10 1.932 . S
C629 C50 1.932 . S
C644 C126 1.994 . S
C679 C286 1.994 . S
C694 C210 1.932 . S
C729 C326 1.994 . S
C744 C130 1.932 . S
C779 C170 1.933 . S
C794 C246 1.994 . S
C829 C95 1.728 . S
C844 C19 1.731 1_554 S
C879 C59 1.730 1_554 S
C894 C15 1.728 . S
C929 C55 1.728 . S
C944 C99 1.731 1_554 S
C979 C139 1.730 . S
C994 C215 1.728 . S
C1029 C135 1.728 . S
C1044 C179 1.731 . S
C1079 C175 1.728 . S
C1094 C219 1.731 . S
C1129 C335 1.728 . S
C1144 C259 1.730 . S
C1179 C299 1.730 . S
C1194 C255 1.728 . S
C1229 C339 1.731 . S
C1244 C295 1.728 . S
C1279 C18 0.829 . S
C1294 C9 0.829 . S
C1329 C58 0.829 . S
C1344 C49 0.829 . S
C1379 C98 0.831 . S
C1394 C89 0.831 . S
C1429 C129 0.829 . S
C1444 C138 0.829 . S
C1479 C169 0.830 . S
C1494 C178 0.830 . S
C1529 C209 0.830 . S
C1544 C218 0.830 . S
C1579 C258 0.829 . S
C1594 C249 0.829 . S
C1629 C289 0.830 . S
C1644 C298 0.830 . S
C1679 C338 0.830 . S
C1694 C329 0.830 . S
