# Generated by pormake.
# Topology noy, (5)-cn, num edge types: 1
# Building blocks:
#     Node 0, Type 0, BuildingBlock: BEQFEK_clean_sbu_0, # of connection points: 5
#     Node 1, Type 0, BuildingBlock: BEQFEK_clean_sbu_0, # of connection points: 5
#     Node 2, Type 0, BuildingBlock: BEQFEK_clean_sbu_0, # of connection points: 5
#     Node 3, Type 0, BuildingBlock: BEQFEK_clean_sbu_0, # of connection points: 5
#     Node 4, Type 0, BuildingBlock: BEQFEK_clean_sbu_0, # of connection points: 5
#     Node 5, Type 0, BuildingBlock: BEQFEK_clean_sbu_0, # of connection points: 5
#     Node 6, Type 0, BuildingBlock: BEQFEK_clean_sbu_0, # of connection points: 5
#     Node 7, Type 0, BuildingBlock: BEQFEK_clean_sbu_0, # of connection points: 5
#     Edge 8, Type (0, 0), BuildingBlock: AJUNOK_clean_linker_0, # of connection points: 2
#     Edge 9, Type (0, 0), BuildingBlock: AJUNOK_clean_linker_0, # of connection points: 2
#     Edge 10, Type (0, 0), BuildingBlock: AJUNOK_clean_linker_0, # of connection points: 2
#     Edge 11, Type (0, 0), BuildingBlock: AJUNOK_clean_linker_0, # of connection points: 2
#     Edge 12, Type (0, 0), BuildingBlock: AJUNOK_clean_linker_0, # of connection points: 2
#     Edge 13, Type (0, 0), BuildingBlock: AJUNOK_clean_linker_0, # of connection points: 2
#     Edge 14, Type (0, 0), BuildingBlock: AJUNOK_clean_linker_0, # of connection points: 2
#     Edge 15, Type (0, 0), BuildingBlock: AJUNOK_clean_linker_0, # of connection points: 2
#     Edge 16, Type (0, 0), BuildingBlock: AJUNOK_clean_linker_0, # of connection points: 2
#     Edge 17, Type (0, 0), BuildingBlock: AJUNOK_clean_linker_0, # of connection points: 2
#     Edge 18, Type (0, 0), BuildingBlock: AJUNOK_clean_linker_0, # of connection points: 2
#     Edge 19, Type (0, 0), BuildingBlock: AJUNOK_clean_linker_0, # of connection points: 2
#     Edge 20, Type (0, 0), BuildingBlock: AJUNOK_clean_linker_0, # of connection points: 2
#     Edge 21, Type (0, 0), BuildingBlock: AJUNOK_clean_linker_0, # of connection points: 2
#     Edge 22, Type (0, 0), BuildingBlock: AJUNOK_clean_linker_0, # of connection points: 2
#     Edge 23, Type (0, 0), BuildingBlock: AJUNOK_clean_linker_0, # of connection points: 2
#     Edge 24, Type (0, 0), BuildingBlock: AJUNOK_clean_linker_0, # of connection points: 2
#     Edge 25, Type (0, 0), BuildingBlock: AJUNOK_clean_linker_0, # of connection points: 2
#     Edge 26, Type (0, 0), BuildingBlock: AJUNOK_clean_linker_0, # of connection points: 2
#     Edge 27, Type (0, 0), BuildingBlock: AJUNOK_clean_linker_0, # of connection points: 2
# Relax obj value: 0.071
# Max RMSD: 0.090
# Mean RMSD: 0.090
data_MOF--net-noy--node1-BEQFEK_clean_sbu_0--edge1-AJUNOK_clean_linker_0
_symmetry_space_group_name_H-M    P1
_symmetry_Int_Tables_number       1
_symmetry_cell_setting            triclinic
loop_
_symmetry_equiv_pos_as_xyz
'x, y, z'
_cell_length_a     33.771101
_cell_length_b     35.859661
_cell_length_c     18.491728
_cell_angle_alpha  90.061259
_cell_angle_beta   89.936631
_cell_angle_gamma 90.117704
loop_
_atom_site_label
_atom_site_type_symbol
_atom_site_fract_x
_atom_site_fract_y
_atom_site_fract_z
_atom_type_partial_charge
Co0 Co 0.34833 0.42612 0.26453 0.0
Co1 Co 0.36101 0.37048 0.13671 0.0
C2 C 0.33765 0.45263 0.11554 0.0
O3 O 0.33565 0.45948 0.18304 0.0
O4 O 0.34709 0.42021 0.09269 0.0
C5 C 0.34331 0.48546 0.37016 0.0
O6 O 0.35072 0.50794 0.31571 0.0
C7 C 0.32788 0.32521 0.01974 0.0
C8 C 0.37853 0.28979 0.98855 0.0
C9 C 0.33896 0.29648 0.97309 0.0
N10 N 0.35939 0.33471 0.06022 0.0
N11 N 0.3897 0.31378 0.04072 0.0
C12 C 0.2876 0.34169 0.03083 0.0
H13 H 0.28493 0.35382 0.08573 0.0
H14 H 0.26415 0.3204 0.0225 0.0
H15 H 0.28328 0.36482 0.99187 0.0
C16 C 0.29203 0.36769 0.31031 0.0
N17 N 0.31807 0.38172 0.26228 0.0
N18 N 0.32531 0.35659 0.21212 0.0
C19 C 0.30527 0.32505 0.22872 0.0
C20 C 0.28306 0.33139 0.29067 0.0
C21 C 0.27851 0.3877 0.37691 0.0
H22 H 0.27047 0.41683 0.36316 0.0
H23 H 0.25278 0.37356 0.40235 0.0
H24 H 0.30318 0.38852 0.41641 0.0
O25 O 0.4058 0.41496 0.26244 0.0
O26 O 0.41571 0.37266 0.17641 0.0
H27 H 0.33854 0.28653 0.16343 0.0
H28 H 0.30427 0.26494 0.22616 0.0
C29 C 0.30896 0.28884 0.18903 0.0
H30 H 0.28592 0.28737 0.14647 0.0
H31 H 0.41772 0.31522 0.06431 0.0
O32 O 0.3398 0.45077 0.35848 0.0
C33 C 0.42865 0.3934 0.22715 0.0
Co34 Co 0.67096 0.60739 0.76597 0.0
Co35 Co 0.66144 0.66164 0.63531 0.0
C36 C 0.68209 0.5793 0.61676 0.0
O37 O 0.68198 0.57289 0.68451 0.0
O38 O 0.67484 0.61186 0.59242 0.0
C39 C 0.67934 0.54808 0.87153 0.0
O40 O 0.67767 0.52494 0.81647 0.0
C41 C 0.69614 0.70703 0.51993 0.0
C42 C 0.64585 0.74231 0.48655 0.0
C43 C 0.68559 0.73558 0.47326 0.0
N44 N 0.66423 0.69757 0.55942 0.0
N45 N 0.63417 0.71855 0.53881 0.0
C46 C 0.73535 0.68781 0.52479 0.0
H47 H 0.73228 0.66063 0.55286 0.0
H48 H 0.75646 0.7053 0.55571 0.0
H49 H 0.74783 0.68359 0.46982 0.0
C50 C 0.72684 0.66519 0.81348 0.0
N51 N 0.70275 0.65061 0.7629 0.0
N52 N 0.69701 0.67528 0.71137 0.0
C53 C 0.71657 0.70697 0.729 0.0
C54 C 0.73622 0.70144 0.79407 0.0
C55 C 0.739 0.64532 0.88101 0.0
H56 H 0.74696 0.61607 0.86805 0.0
H57 H 0.76459 0.6593 0.90725 0.0
H58 H 0.71374 0.64493 0.91941 0.0
O59 O 0.61461 0.622 0.76636 0.0
O60 O 0.60612 0.66009 0.67305 0.0
H61 H 0.68284 0.74508 0.66378 0.0
H62 H 0.71539 0.7671 0.72879 0.0
C63 C 0.71213 0.74342 0.69052 0.0
H64 H 0.73566 0.74607 0.64905 0.0
H65 H 0.60583 0.71706 0.56119 0.0
O66 O 0.6783 0.5829 0.86008 0.0
C67 C 0.59258 0.64276 0.72793 0.0
Co68 Co 0.34723 0.60644 0.76339 0.0
Co69 Co 0.35641 0.66005 0.89551 0.0
C70 C 0.33645 0.57791 0.9136 0.0
O71 O 0.33711 0.57235 0.84561 0.0
O72 O 0.34264 0.61042 0.93951 0.0
C73 C 0.34763 0.54665 0.66141 0.0
O74 O 0.36408 0.5282 0.71479 0.0
C75 C 0.32446 0.70862 1.00971 0.0
C76 C 0.37705 0.74192 0.03928 0.0
C77 C 0.33688 0.73809 0.05362 0.0
N78 N 0.35563 0.69654 0.97089 0.0
N79 N 0.38707 0.71622 0.98959 0.0
C80 C 0.28351 0.69326 1.00074 0.0
H81 H 0.28127 0.67658 0.95036 0.0
H82 H 0.26141 0.71611 0.99992 0.0
H83 H 0.27668 0.67455 0.04685 0.0
C84 C 0.29155 0.66415 0.71656 0.0
N85 N 0.31547 0.64953 0.76717 0.0
N86 N 0.32107 0.67404 0.81916 0.0
C87 C 0.30172 0.70579 0.80157 0.0
C88 C 0.28222 0.70036 0.73628 0.0
C89 C 0.2794 0.64427 0.64888 0.0
H90 H 0.30506 0.64284 0.61144 0.0
H91 H 0.27024 0.61534 0.66212 0.0
H92 H 0.25458 0.65873 0.62148 0.0
O93 O 0.40381 0.62107 0.76088 0.0
O94 O 0.41141 0.65769 0.85686 0.0
H95 H 0.33537 0.74384 0.86749 0.0
H96 H 0.30328 0.76592 0.80211 0.0
C97 C 0.3062 0.74222 0.8403 0.0
H98 H 0.28243 0.74487 0.88133 0.0
H99 H 0.41517 0.71276 0.96702 0.0
O100 O 0.33744 0.58029 0.67141 0.0
C101 C 0.42552 0.64119 0.8015 0.0
Co102 Co 0.67535 0.42764 0.26423 0.0
Co103 Co 0.6636 0.37206 0.39223 0.0
C104 C 0.68532 0.45428 0.41412 0.0
O105 O 0.68755 0.46037 0.34651 0.0
O106 O 0.67627 0.42193 0.43795 0.0
C107 C 0.67286 0.48708 0.16257 0.0
O108 O 0.65421 0.50441 0.21511 0.0
C109 C 0.69744 0.32674 0.50786 0.0
C110 C 0.64929 0.28687 0.53208 0.0
C111 C 0.68803 0.29583 0.54973 0.0
N112 N 0.66602 0.3351 0.46641 0.0
N113 N 0.63716 0.31144 0.4817 0.0
C114 C 0.735 0.349 0.5085 0.0
H115 H 0.72795 0.37919 0.50822 0.0
H116 H 0.75219 0.34304 0.4587 0.0
H117 H 0.7533 0.34243 0.55662 0.0
C118 C 0.72916 0.36876 0.21399 0.0
N119 N 0.70546 0.38353 0.26502 0.0
N120 N 0.69951 0.35887 0.31649 0.0
C121 C 0.71851 0.32702 0.29843 0.0
C122 C 0.73812 0.33244 0.23323 0.0
C123 C 0.74134 0.38857 0.14631 0.0
H124 H 0.71547 0.39062 0.1096 0.0
H125 H 0.75126 0.41727 0.1597 0.0
H126 H 0.76561 0.37364 0.11804 0.0
O127 O 0.61807 0.41599 0.26546 0.0
O128 O 0.60881 0.37376 0.35197 0.0
H129 H 0.68319 0.28807 0.35883 0.0
H130 H 0.7197 0.26678 0.30023 0.0
C131 C 0.71362 0.29063 0.33689 0.0
H132 H 0.73491 0.2894 0.38222 0.0
H133 H 0.60953 0.31148 0.45649 0.0
O134 O 0.68519 0.45416 0.17301 0.0
C135 C 0.59555 0.3942 0.30109 0.0
Co136 Co 0.84894 0.92852 0.26876 0.0
Co137 Co 0.85706 0.87209 0.13963 0.0
C138 C 0.83945 0.95421 0.1165 0.0
O139 O 0.83945 0.96147 0.18397 0.0
O140 O 0.84575 0.92119 0.09386 0.0
C141 C 0.81336 0.97953 0.3733 0.0
O142 O 0.78481 0.98395 0.32589 0.0
C143 C 0.82093 0.82763 0.02379 0.0
C144 C 0.86861 0.78814 0.99548 0.0
C145 C 0.82983 0.79751 0.97944 0.0
N146 N 0.85276 0.83524 0.065 0.0
N147 N 0.88129 0.81175 0.0473 0.0
C148 C 0.78351 0.84997 0.02516 0.0
H149 H 0.79058 0.88001 0.03082 0.0
H150 H 0.7655 0.84193 0.07282 0.0
H151 H 0.76585 0.84537 0.97535 0.0
C152 C 0.79191 0.87099 0.31917 0.0
N153 N 0.81611 0.88545 0.26834 0.0
N154 N 0.82101 0.86076 0.21628 0.0
C155 C 0.8007 0.82949 0.23337 0.0
C156 C 0.7812 0.83519 0.29846 0.0
C157 C 0.78056 0.89057 0.38761 0.0
H158 H 0.80763 0.89797 0.4184 0.0
H159 H 0.76473 0.91663 0.37394 0.0
H160 H 0.76084 0.87334 0.42202 0.0
O161 O 0.90492 0.91197 0.27052 0.0
O162 O 0.91213 0.87263 0.17831 0.0
H163 H 0.79869 0.76926 0.23175 0.0
H164 H 0.78293 0.79167 0.15019 0.0
C165 C 0.80471 0.79297 0.19477 0.0
H166 H 0.8349 0.79002 0.17204 0.0
H167 H 0.90923 0.81146 0.07139 0.0
O168 O 0.84198 0.9578 0.35894 0.0
C169 C 0.92618 0.89 0.23281 0.0
Co170 Co 0.16831 0.10651 0.77096 0.0
Co171 Co 0.16581 0.16092 0.63778 0.0
C172 C 0.18153 0.07946 0.61769 0.0
O173 O 0.1792 0.07384 0.68565 0.0
O174 O 0.17717 0.11208 0.59162 0.0
C175 C 0.20457 0.05836 0.88003 0.0
O176 O 0.2368 0.05948 0.84025 0.0
C177 C 0.19337 0.20427 0.51017 0.0
C178 C 0.15858 0.2559 0.52336 0.0
C179 C 0.18784 0.2397 0.48123 0.0
N180 N 0.16908 0.20021 0.56752 0.0
N181 N 0.14796 0.23099 0.5742 0.0
C182 C 0.22078 0.1745 0.48347 0.0
H183 H 0.2054 0.14721 0.48389 0.0
H184 H 0.24667 0.17244 0.52008 0.0
H185 H 0.23115 0.18035 0.42767 0.0
C186 C 0.22292 0.16494 0.82572 0.0
N187 N 0.20081 0.14953 0.77292 0.0
N188 N 0.20182 0.17119 0.71552 0.0
C189 C 0.22628 0.20023 0.72901 0.0
C190 C 0.24 0.19757 0.79977 0.0
C191 C 0.22395 0.15099 0.90201 0.0
H192 H 0.19502 0.13846 0.91671 0.0
H193 H 0.24724 0.12939 0.90689 0.0
H194 H 0.23073 0.17386 0.94055 0.0
O195 O 0.11292 0.12251 0.76987 0.0
O196 O 0.10966 0.16023 0.67478 0.0
H197 H 0.21295 0.248 0.66434 0.0
H198 H 0.26434 0.24491 0.69138 0.0
C199 C 0.23802 0.22871 0.67388 0.0
H200 H 0.24527 0.21462 0.62235 0.0
H201 H 0.12719 0.2355 0.61513 0.0
O202 O 0.17414 0.07635 0.85998 0.0
C203 C 0.09337 0.14388 0.72844 0.0
Co204 Co 0.84895 0.10416 0.75779 0.0
Co205 Co 0.85615 0.15966 0.88861 0.0
C206 C 0.83928 0.07735 0.90972 0.0
O207 O 0.8398 0.07102 0.84196 0.0
O208 O 0.84489 0.1102 0.93416 0.0
C209 C 0.81373 0.05263 0.65396 0.0
O210 O 0.78568 0.04757 0.70224 0.0
C211 C 0.82089 0.20421 1.00545 0.0
C212 C 0.86859 0.24437 0.03072 0.0
C213 C 0.83008 0.23474 0.04864 0.0
N214 N 0.85229 0.19663 0.96312 0.0
N215 N 0.88085 0.22051 0.97905 0.0
C216 C 0.78369 0.18142 1.00621 0.0
H217 H 0.79128 0.15135 1.00673 0.0
H218 H 0.7666 0.1867 0.95611 0.0
H219 H 0.76505 0.18808 0.05396 0.0
C220 C 0.79169 0.161 0.70839 0.0
N221 N 0.81565 0.14659 0.75937 0.0
N222 N 0.82007 0.17106 0.81197 0.0
C223 C 0.79969 0.20224 0.7949 0.0
C224 C 0.7808 0.19666 0.72923 0.0
C225 C 0.78109 0.1417 0.63923 0.0
H226 H 0.76564 0.11523 0.65191 0.0
H227 H 0.76125 0.15885 0.60507 0.0
H228 H 0.80846 0.13508 0.60863 0.0
O229 O 0.90472 0.12133 0.75579 0.0
O230 O 0.91129 0.15963 0.84971 0.0
H231 H 0.83318 0.24209 0.85667 0.0
H232 H 0.79618 0.26241 0.79826 0.0
C233 C 0.80297 0.23856 0.83438 0.0
H234 H 0.7814 0.23888 0.87943 0.0
H235 H 0.90848 0.22096 0.95371 0.0
O236 O 0.842 0.07499 0.66751 0.0
C237 C 0.92567 0.1431 0.79453 0.0
Co238 Co 0.16885 0.92889 0.26193 0.0
Co239 Co 0.16519 0.8726 0.39187 0.0
C240 C 0.18152 0.95418 0.41553 0.0
O241 O 0.17957 0.96106 0.34797 0.0
O242 O 0.17673 0.92115 0.43924 0.0
C243 C 0.20425 0.97915 0.15506 0.0
O244 O 0.23579 0.9797 0.19658 0.0
C245 C 0.19812 0.82882 0.5123 0.0
C246 C 0.15463 0.78306 0.52252 0.0
C247 C 0.19002 0.79633 0.55021 0.0
N248 N 0.16903 0.83433 0.46382 0.0
N249 N 0.14288 0.80709 0.47089 0.0
C250 C 0.23234 0.85482 0.52313 0.0
H251 H 0.23588 0.87352 0.47578 0.0
H252 H 0.26013 0.83922 0.53262 0.0
H253 H 0.2267 0.872 0.57196 0.0
C254 C 0.22461 0.872 0.20563 0.0
N255 N 0.20164 0.8861 0.25861 0.0
N256 N 0.201 0.86272 0.31348 0.0
C257 C 0.22447 0.83335 0.29755 0.0
C258 C 0.24037 0.83835 0.22886 0.0
C259 C 0.22715 0.88788 0.13089 0.0
H260 H 0.19786 0.89876 0.11419 0.0
H261 H 0.24875 0.91121 0.13055 0.0
H262 H 0.23689 0.86661 0.09109 0.0
O263 O 0.11332 0.91238 0.26249 0.0
O264 O 0.10922 0.87323 0.35537 0.0
H265 H 0.20351 0.78834 0.36342 0.0
H266 H 0.25177 0.78017 0.32371 0.0
C267 C 0.232 0.80146 0.34769 0.0
H268 H 0.24655 0.81236 0.39689 0.0
H269 H 0.11745 0.80441 0.43926 0.0
O270 O 0.17453 0.95954 0.17344 0.0
C271 C 0.09339 0.89039 0.30237 0.0
C272 C 0.49212 0.36003 0.25405 0.0
C273 C 0.47124 0.39361 0.24492 0.0
C274 C 0.53226 0.36021 0.27435 0.0
C275 C 0.55291 0.39397 0.28378 0.0
H276 H 0.47716 0.33354 0.24679 0.0
H277 H 0.54742 0.33385 0.28126 0.0
S278 S 0.51177 0.48924 0.2648 0.0
N279 N 0.47405 0.4613 0.24717 0.0
N280 N 0.54965 0.46164 0.28221 0.0
C281 C 0.53241 0.42761 0.27387 0.0
C282 C 0.4915 0.42743 0.25524 0.0
C283 C 0.52108 0.64547 0.69338 0.0
C284 C 0.55027 0.64583 0.74745 0.0
C285 C 0.48071 0.64438 0.71141 0.0
C286 C 0.46814 0.64468 0.78408 0.0
H287 H 0.5295 0.64461 0.63684 0.0
H288 H 0.45917 0.64308 0.6681 0.0
S289 S 0.53305 0.64807 0.94563 0.0
N290 N 0.56401 0.64778 0.87645 0.0
N291 N 0.48818 0.64699 0.91024 0.0
C292 C 0.49706 0.64655 0.83853 0.0
C293 C 0.53812 0.64676 0.82023 0.0
C294 C 0.03776 0.88544 0.2142 0.0
C295 C 0.05076 0.88577 0.28654 0.0
C296 C 0.99731 0.88494 0.19714 0.0
C297 C 0.96844 0.88588 0.25186 0.0
H298 H 0.05907 0.88612 0.17035 0.0
H299 H 0.98861 0.88547 0.14077 0.0
S300 S 0.9869 0.88518 0.44964 0.0
N301 N 0.03158 0.885 0.41317 0.0
N302 N 0.95547 0.8854 0.38124 0.0
C303 C 0.98101 0.88529 0.32439 0.0
C304 C 0.0222 0.88483 0.34173 0.0
C305 C 0.03706 0.14895 0.81527 0.0
C306 C 0.05061 0.14856 0.7432 0.0
C307 C 0.99649 0.1491 0.83149 0.0
C308 C 0.96802 0.14779 0.77622 0.0
H309 H 0.05802 0.14849 0.85958 0.0
H310 H 0.98741 0.14853 0.8877 0.0
S311 S 0.98794 0.14854 0.57881 0.0
N312 N 0.03234 0.14909 0.61618 0.0
N313 N 0.95601 0.14813 0.64656 0.0
C314 C 0.98113 0.14848 0.70393 0.0
C315 C 0.02245 0.14925 0.68743 0.0
C316 C 0.33306 0.55115 0.03914 0.0
C317 C 0.33176 0.54551 0.96377 0.0
C318 C 0.33327 0.52105 0.08761 0.0
C319 C 0.3324 0.48383 0.06305 0.0
H320 H 0.33508 0.57909 0.06121 0.0
H321 H 0.33558 0.52715 0.14484 0.0
S322 S 0.32436 0.4535 0.87145 0.0
N323 N 0.32617 0.49944 0.86725 0.0
N324 N 0.3268 0.44311 0.95825 0.0
C325 C 0.3292 0.47772 0.98802 0.0
C326 C 0.32879 0.50842 0.93854 0.0
C327 C 0.68455 0.48056 0.5404 0.0
C328 C 0.68969 0.48619 0.46557 0.0
C329 C 0.68374 0.51065 0.5891 0.0
C330 C 0.68781 0.54776 0.56516 0.0
H331 H 0.67992 0.45274 0.56161 0.0
H332 H 0.67844 0.50472 0.64572 0.0
S333 S 0.7065 0.57775 0.37591 0.0
N334 N 0.70234 0.53197 0.37086 0.0
N335 N 0.7006 0.58819 0.46215 0.0
C336 C 0.69486 0.55373 0.49099 0.0
C337 C 0.69589 0.52309 0.44138 0.0
C338 C 0.68766 0.49603 0.95996 0.0
C339 C 0.67974 0.53387 0.94675 0.0
C340 C 0.68636 0.48147 0.03013 0.0
C341 C 0.67663 0.50407 0.08991 0.0
H342 H 0.69467 0.47734 0.91572 0.0
H343 H 0.69218 0.452 0.03716 0.0
S344 S 0.65473 0.60542 0.08511 0.0
N345 N 0.66292 0.59405 0.99992 0.0
N346 N 0.66033 0.56653 0.13161 0.0
C347 C 0.66934 0.54212 0.07777 0.0
C348 C 0.67096 0.55706 1.0063 0.0
C349 C 0.33784 0.53841 0.45763 0.0
C350 C 0.34198 0.49994 0.44523 0.0
C351 C 0.33859 0.55307 0.52786 0.0
C352 C 0.34406 0.52989 0.58847 0.0
H353 H 0.33427 0.55749 0.41274 0.0
H354 H 0.33583 0.58298 0.53436 0.0
S355 S 0.35484 0.42693 0.58586 0.0
N356 N 0.3505 0.43868 0.49998 0.0
N357 N 0.35214 0.46635 0.63173 0.0
C358 C 0.34748 0.49128 0.57706 0.0
C359 C 0.34635 0.47627 0.50556 0.0
C360 C 0.83788 0.05206 0.03649 0.0
C361 C 0.83489 0.04566 0.96146 0.0
C362 C 0.83785 0.0225 0.0862 0.0
C363 C 0.83496 0.98513 0.06322 0.0
H364 H 0.84134 0.08013 0.05724 0.0
H365 H 0.8414 0.02908 0.14301 0.0
S366 S 0.82202 0.95315 0.87339 0.0
N367 N 0.82563 0.99893 0.86722 0.0
N368 N 0.82575 0.94358 0.96036 0.0
C369 C 0.83015 0.97836 0.98861 0.0
C370 C 0.83005 1.0085 0.93793 0.0
C371 C 0.18335 0.05279 0.49204 0.0
C372 C 0.18626 0.04722 0.5673 0.0
C373 C 0.18341 0.02272 0.44344 0.0
C374 C 0.18627 0.98562 0.46776 0.0
H375 H 0.17974 0.08057 0.47018 0.0
H376 H 0.17986 0.02871 0.38642 0.0
S377 S 0.19901 0.95579 0.65881 0.0
N378 N 0.19545 1.00162 0.66328 0.0
N379 N 0.19536 0.94525 0.5722 0.0
C380 C 0.19106 0.97969 0.54263 0.0
C381 C 0.19111 1.01037 0.59221 0.0
C382 C 0.23951 0.02893 0.98509 0.0
C383 C 0.20391 0.03779 0.94957 0.0
C384 C 0.23941 1.01045 0.052 0.0
C385 C 0.20372 0.99962 0.0854 0.0
H386 H 0.26771 0.03673 0.96153 0.0
H387 H 0.26755 1.00422 0.07726 0.0
S388 S 0.10235 1.0158 1.01435 0.0
N389 N 0.13195 0.03408 0.95277 0.0
N390 N 0.13177 0.99921 0.07775 0.0
C391 C 0.16792 1.00812 0.0502 0.0
C392 C 0.16801 0.02724 0.98256 0.0
C393 C 0.8479 0.02556 0.5466 0.0
C394 C 0.81233 0.03361 0.58299 0.0
C395 C 0.84781 1.00795 0.47899 0.0
C396 C 0.81213 0.99855 0.44426 0.0
H397 H 0.87614 0.03253 0.57093 0.0
H398 H 0.87598 1.00204 0.45335 0.0
S399 S 0.71088 1.01409 0.51598 0.0
N400 N 0.74041 0.03083 0.57939 0.0
N401 N 0.74023 0.99851 0.4512 0.0
C402 C 0.7763 1.00676 0.47959 0.0
C403 C 0.7764 0.02402 0.5493 0.0
C404 C 0.32106 0.2341 0.92296 0.0
C405 C 0.31404 0.27278 0.9252 0.0
C406 C 0.29741 0.21024 0.88127 0.0
C407 C 0.26556 0.22399 0.84052 0.0
H408 H 0.34466 0.22195 0.95475 0.0
H409 H 0.30398 0.18068 0.88136 0.0
S410 S 0.23634 0.32322 0.82278 0.0
N411 N 0.27539 0.32409 0.87637 0.0
N412 N 0.22837 0.27882 0.80414 0.0
C413 C 0.25847 0.26262 0.84125 0.0
C414 C 0.28332 0.28711 0.8821 0.0
C415 C 0.74706 0.77291 0.45196 0.0
C416 C 0.71136 0.75801 0.42537 0.0
C417 C 0.76993 0.79737 0.41003 0.0
C418 C 0.75786 0.80773 0.34022 0.0
H419 H 0.75664 0.76687 0.50652 0.0
H420 H 0.79693 0.80876 0.43277 0.0
S421 S 0.668 0.77512 0.24436 0.0
N422 N 0.66576 0.75439 0.32404 0.0
N423 N 0.70904 0.80028 0.24507 0.0
C424 C 0.72292 0.79225 0.31219 0.0
C425 C 0.69946 0.76757 0.35502 0.0
C426 C 0.25534 0.77513 0.17764 0.0
C427 C 0.26611 0.81268 0.18709 0.0
C428 C 0.27868 0.75089 0.13603 0.0
C429 C 0.31305 0.76354 0.10033 0.0
H430 H 0.22848 0.76444 0.20213 0.0
H431 H 0.26966 0.72204 0.13277 0.0
S432 S 0.35455 0.85955 0.11063 0.0
N433 N 0.31432 0.86108 0.16125 0.0
N434 N 0.35703 0.81645 0.07954 0.0
C435 C 0.32429 0.80111 0.11041 0.0
C436 C 0.30097 0.82548 0.1541 0.0
C437 C 0.69997 0.26194 0.6656 0.0
C438 C 0.71393 0.27352 0.59747 0.0
C439 C 0.72247 0.23808 0.70941 0.0
C440 C 0.75921 0.22447 0.68567 0.0
H441 H 0.67126 0.27109 0.68478 0.0
H442 H 0.71057 0.2293 0.76111 0.0
S443 S 0.80903 0.24601 0.51215 0.0
N444 N 0.7669 0.26921 0.50862 0.0
N445 N 0.80923 0.22486 0.59142 0.0
C446 C 0.77385 0.2363 0.61851 0.0
C447 C 0.75113 0.26067 0.57413 0.0
C448 C 0.79368 0.74415 0.81477 0.0
C449 C 0.75749 0.72923 0.83866 0.0
C450 C 0.81655 0.76707 0.86019 0.0
C451 C 0.80347 0.77641 0.93019 0.0
H452 H 0.80503 0.73692 0.76177 0.0
H453 H 0.8449 0.77714 0.84082 0.0
S454 S 0.71004 0.74503 0.0168 0.0
N455 N 0.70895 0.72609 0.93538 0.0
N456 N 0.75186 0.76888 0.0208 0.0
C457 C 0.76675 0.76242 0.9537 0.0
C458 C 0.74373 0.73891 0.90779 0.0
C459 C 0.25288 0.25602 0.42295 0.0
C460 C 0.21134 0.25963 0.42537 0.0
C461 C 0.27592 0.27815 0.37648 0.0
C462 C 0.25823 0.30485 0.33154 0.0
H463 H 0.26797 0.23734 0.4596 0.0
H464 H 0.30786 0.27547 0.37785 0.0
S465 S 0.15117 0.32493 0.31563 0.0
N466 N 0.15369 0.29147 0.37678 0.0
N467 N 0.19728 0.33339 0.29058 0.0
C468 C 0.21694 0.30837 0.33229 0.0
C469 C 0.19343 0.28574 0.3791 0.0
C470 C 0.81769 0.26618 0.16722 0.0
C471 C 0.80411 0.2562 0.09791 0.0
C472 C 0.7953 0.28962 0.21233 0.0
C473 C 0.75912 0.30447 0.18874 0.0
H474 H 0.84608 0.25619 0.18626 0.0
H475 H 0.80698 0.29724 0.26487 0.0
S476 S 0.71045 0.28713 1.01244 0.0
N477 N 0.75199 0.263 1.00833 0.0
N478 N 0.71007 0.30696 0.09307 0.0
C479 C 0.74487 0.29422 0.12029 0.0
C480 C 0.76738 0.27012 0.07476 0.0
C481 C 0.203 0.76697 0.6704 0.0
C482 C 0.21601 0.77561 0.6001 0.0
C483 C 0.22557 0.74393 0.71589 0.0
C484 C 0.26133 0.72829 0.6917 0.0
H485 H 0.17489 0.77755 0.68976 0.0
H486 H 0.21428 0.73715 0.76915 0.0
S487 S 0.30826 0.74239 0.51258 0.0
N488 N 0.26684 0.76668 0.5087 0.0
N489 N 0.30944 0.72402 0.5944 0.0
C490 C 0.27503 0.73742 0.62224 0.0
C491 C 0.25223 0.76087 0.57623 0.0
loop_
_geom_bond_atom_site_label_1
_geom_bond_atom_site_label_2
_geom_bond_distance
_geom_bond_site_symmetry_2
_ccdc_geom_bond_type
Co0 O3 1.970 . S
Co0 N17 1.989 . S
Co0 O25 1.967 . S
Co0 O32 1.920 . S
Co1 O4 1.966 . S
Co1 N10 2.022 . S
Co1 N18 1.993 . S
Co1 O26 1.941 . S
C2 O3 1.258 . S
C2 O4 1.263 . S
O3 Co0 1.970 . S
O3 C2 1.258 . S
O4 Co1 1.966 . S
O4 C2 1.263 . S
C5 O6 1.235 . S
C5 O32 1.289 . S
O6 C5 1.235 . S
C7 C9 1.400 . S
C7 N10 1.351 . S
C7 C12 1.501 1_554 S
C8 C9 1.387 . S
C8 N11 1.341 . S
C9 C7 1.400 . S
C9 C8 1.387 . S
N10 Co1 2.022 . S
N10 C7 1.351 . S
N10 N11 1.365 . S
N11 C8 1.341 . S
N11 N10 1.365 . S
N11 H31 0.862 . S
C12 C7 1.501 1_556 S
C12 H13 0.961 1_556 S
C12 H14 0.961 1_556 S
C12 H15 0.960 . S
H13 C12 0.961 1_554 S
H14 C12 0.961 1_554 S
H15 C12 0.960 . S
C16 N17 1.342 . S
C16 C20 1.401 . S
C16 C21 1.499 . S
N17 Co0 1.989 . S
N17 C16 1.342 . S
N17 N18 1.388 . S
N18 Co1 1.993 . S
N18 N17 1.388 . S
N18 C19 1.346 . S
C19 N18 1.346 . S
C19 C20 1.396 . S
C19 C29 1.510 . S
C20 C16 1.401 . S
C20 C19 1.396 . S
C21 C16 1.499 . S
C21 H22 0.959 . S
C21 H23 0.960 . S
C21 H24 0.961 . S
H22 C21 0.959 . S
H23 C21 0.960 . S
H24 C21 0.961 . S
O25 Co0 1.967 . S
O25 C33 1.258 . S
O26 Co1 1.941 . S
O26 C33 1.266 . S
H27 C29 0.959 . S
H28 C29 0.961 . S
C29 C19 1.510 . S
C29 H27 0.959 . S
C29 H28 0.961 . S
C29 H30 0.960 . S
H30 C29 0.960 . S
H31 N11 0.862 . S
O32 Co0 1.920 . S
O32 C5 1.289 . S
C33 O25 1.258 . S
C33 O26 1.266 . S
Co34 O37 1.970 . S
Co34 N51 1.989 . S
Co34 O59 1.967 . S
Co34 O66 1.920 . S
Co35 O38 1.966 . S
Co35 N44 2.022 . S
Co35 N52 1.993 . S
Co35 O60 1.941 . S
C36 O37 1.258 . S
C36 O38 1.263 . S
O37 Co34 1.970 . S
O37 C36 1.258 . S
O38 Co35 1.966 . S
O38 C36 1.263 . S
C39 O40 1.235 . S
C39 O66 1.289 . S
O40 C39 1.235 . S
C41 C43 1.400 . S
C41 N44 1.351 . S
C41 C46 1.501 . S
C42 C43 1.387 . S
C42 N45 1.341 . S
C43 C41 1.400 . S
C43 C42 1.387 . S
N44 Co35 2.022 . S
N44 C41 1.351 . S
N44 N45 1.365 . S
N45 C42 1.341 . S
N45 N44 1.365 . S
N45 H65 0.862 . S
C46 C41 1.501 . S
C46 H47 0.961 . S
C46 H48 0.961 . S
C46 H49 0.960 . S
H47 C46 0.961 . S
H48 C46 0.961 . S
H49 C46 0.960 . S
C50 N51 1.342 . S
C50 C54 1.401 . S
C50 C55 1.499 . S
N51 Co34 1.989 . S
N51 C50 1.342 . S
N51 N52 1.388 . S
N52 Co35 1.993 . S
N52 N51 1.388 . S
N52 C53 1.346 . S
C53 N52 1.346 . S
C53 C54 1.396 . S
C53 C63 1.510 . S
C54 C50 1.401 . S
C54 C53 1.396 . S
C55 C50 1.499 . S
C55 H56 0.959 . S
C55 H57 0.960 . S
C55 H58 0.961 . S
H56 C55 0.959 . S
H57 C55 0.960 . S
H58 C55 0.961 . S
O59 Co34 1.967 . S
O59 C67 1.258 . S
O60 Co35 1.941 . S
O60 C67 1.266 . S
H61 C63 0.959 . S
H62 C63 0.961 . S
C63 C53 1.510 . S
C63 H61 0.959 . S
C63 H62 0.961 . S
C63 H64 0.960 . S
H64 C63 0.960 . S
H65 N45 0.862 . S
O66 Co34 1.920 . S
O66 C39 1.289 . S
C67 O59 1.258 . S
C67 O60 1.266 . S
Co68 O71 1.970 . S
Co68 N85 1.989 . S
Co68 O93 1.967 . S
Co68 O100 1.920 . S
Co69 O72 1.966 . S
Co69 N78 2.022 . S
Co69 N86 1.993 . S
Co69 O94 1.941 . S
C70 O71 1.258 . S
C70 O72 1.263 . S
O71 Co68 1.970 . S
O71 C70 1.258 . S
O72 Co69 1.966 . S
O72 C70 1.263 . S
C73 O74 1.235 . S
C73 O100 1.289 . S
O74 C73 1.235 . S
C75 C77 1.400 . S
C75 N78 1.351 . S
C75 C80 1.501 1_556 S
C76 C77 1.387 . S
C76 N79 1.341 . S
C77 C75 1.400 . S
C77 C76 1.387 . S
N78 Co69 2.022 . S
N78 C75 1.351 . S
N78 N79 1.365 . S
N79 C76 1.341 . S
N79 N78 1.365 . S
N79 H99 0.862 . S
C80 C75 1.501 1_554 S
C80 H81 0.961 1_554 S
C80 H82 0.961 1_554 S
C80 H83 0.960 . S
H81 C80 0.961 1_556 S
H82 C80 0.961 1_556 S
H83 C80 0.960 . S
C84 N85 1.342 . S
C84 C88 1.401 . S
C84 C89 1.499 . S
N85 Co68 1.989 . S
N85 C84 1.342 . S
N85 N86 1.388 . S
N86 Co69 1.993 . S
N86 N85 1.388 . S
N86 C87 1.346 . S
C87 N86 1.346 . S
C87 C88 1.396 . S
C87 C97 1.510 . S
C88 C84 1.401 . S
C88 C87 1.396 . S
C89 C84 1.499 . S
C89 H90 0.959 . S
C89 H91 0.960 . S
C89 H92 0.961 . S
H90 C89 0.959 . S
H91 C89 0.960 . S
H92 C89 0.961 . S
O93 Co68 1.967 . S
O93 C101 1.258 . S
O94 Co69 1.941 . S
O94 C101 1.266 . S
H95 C97 0.959 . S
H96 C97 0.961 . S
C97 C87 1.510 . S
C97 H95 0.959 . S
C97 H96 0.961 . S
C97 H98 0.960 . S
H98 C97 0.960 . S
H99 N79 0.862 . S
O100 Co68 1.920 . S
O100 C73 1.289 . S
C101 O93 1.258 . S
C101 O94 1.266 . S
Co102 O105 1.970 . S
Co102 N119 1.989 . S
Co102 O127 1.967 . S
Co102 O134 1.920 . S
Co103 O106 1.966 . S
Co103 N112 2.022 . S
Co103 N120 1.993 . S
Co103 O128 1.941 . S
C104 O105 1.258 . S
C104 O106 1.263 . S
O105 Co102 1.970 . S
O105 C104 1.258 . S
O106 Co103 1.966 . S
O106 C104 1.263 . S
C107 O108 1.235 . S
C107 O134 1.289 . S
O108 C107 1.235 . S
C109 C111 1.400 . S
C109 N112 1.351 . S
C109 C114 1.501 . S
C110 C111 1.387 . S
C110 N113 1.341 . S
C111 C109 1.400 . S
C111 C110 1.387 . S
N112 Co103 2.022 . S
N112 C109 1.351 . S
N112 N113 1.365 . S
N113 C110 1.341 . S
N113 N112 1.365 . S
N113 H133 0.862 . S
C114 C109 1.501 . S
C114 H115 0.961 . S
C114 H116 0.961 . S
C114 H117 0.960 . S
H115 C114 0.961 . S
H116 C114 0.961 . S
H117 C114 0.960 . S
C118 N119 1.342 . S
C118 C122 1.401 . S
C118 C123 1.499 . S
N119 Co102 1.989 . S
N119 C118 1.342 . S
N119 N120 1.388 . S
N120 Co103 1.993 . S
N120 N119 1.388 . S
N120 C121 1.346 . S
C121 N120 1.346 . S
C121 C122 1.396 . S
C121 C131 1.510 . S
C122 C118 1.401 . S
C122 C121 1.396 . S
C123 C118 1.499 . S
C123 H124 0.959 . S
C123 H125 0.960 . S
C123 H126 0.961 . S
H124 C123 0.959 . S
H125 C123 0.960 . S
H126 C123 0.961 . S
O127 Co102 1.967 . S
O127 C135 1.258 . S
O128 Co103 1.941 . S
O128 C135 1.266 . S
H129 C131 0.959 . S
H130 C131 0.961 . S
C131 C121 1.510 . S
C131 H129 0.959 . S
C131 H130 0.961 . S
C131 H132 0.960 . S
H132 C131 0.960 . S
H133 N113 0.862 . S
O134 Co102 1.920 . S
O134 C107 1.289 . S
C135 O127 1.258 . S
C135 O128 1.266 . S
Co136 O139 1.970 . S
Co136 N153 1.989 . S
Co136 O161 1.967 . S
Co136 O168 1.920 . S
Co137 O140 1.966 . S
Co137 N146 2.022 . S
Co137 N154 1.993 . S
Co137 O162 1.941 . S
C138 O139 1.258 . S
C138 O140 1.263 . S
O139 Co136 1.970 . S
O139 C138 1.258 . S
O140 Co137 1.966 . S
O140 C138 1.263 . S
C141 O142 1.235 . S
C141 O168 1.289 . S
O142 C141 1.235 . S
C143 C145 1.400 . S
C143 N146 1.351 . S
C143 C148 1.501 1_554 S
C144 C145 1.387 . S
C144 N147 1.341 . S
C145 C143 1.400 . S
C145 C144 1.387 . S
N146 Co137 2.022 . S
N146 C143 1.351 . S
N146 N147 1.365 . S
N147 C144 1.341 . S
N147 N146 1.365 . S
N147 H167 0.862 . S
C148 C143 1.501 1_556 S
C148 H149 0.961 1_556 S
C148 H150 0.961 1_556 S
C148 H151 0.960 . S
H149 C148 0.961 1_554 S
H150 C148 0.961 1_554 S
H151 C148 0.960 . S
C152 N153 1.342 . S
C152 C156 1.401 . S
C152 C157 1.499 . S
N153 Co136 1.989 . S
N153 C152 1.342 . S
N153 N154 1.388 . S
N154 Co137 1.993 . S
N154 N153 1.388 . S
N154 C155 1.346 . S
C155 N154 1.346 . S
C155 C156 1.396 . S
C155 C165 1.510 . S
C156 C152 1.401 . S
C156 C155 1.396 . S
C157 C152 1.499 . S
C157 H158 0.959 . S
C157 H159 0.960 . S
C157 H160 0.961 . S
H158 C157 0.959 . S
H159 C157 0.960 . S
H160 C157 0.961 . S
O161 Co136 1.967 . S
O161 C169 1.258 . S
O162 Co137 1.941 . S
O162 C169 1.266 . S
H163 C165 0.959 . S
H164 C165 0.961 . S
C165 C155 1.510 . S
C165 H163 0.959 . S
C165 H164 0.961 . S
C165 H166 0.960 . S
H166 C165 0.960 . S
H167 N147 0.862 . S
O168 Co136 1.920 . S
O168 C141 1.289 . S
C169 O161 1.258 . S
C169 O162 1.266 . S
Co170 O173 1.970 . S
Co170 N187 1.989 . S
Co170 O195 1.967 . S
Co170 O202 1.920 . S
Co171 O174 1.966 . S
Co171 N180 2.022 . S
Co171 N188 1.993 . S
Co171 O196 1.941 . S
C172 O173 1.258 . S
C172 O174 1.263 . S
O173 Co170 1.970 . S
O173 C172 1.258 . S
O174 Co171 1.966 . S
O174 C172 1.263 . S
C175 O176 1.235 . S
C175 O202 1.289 . S
O176 C175 1.235 . S
C177 C179 1.400 . S
C177 N180 1.351 . S
C177 C182 1.501 . S
C178 C179 1.387 . S
C178 N181 1.341 . S
C179 C177 1.400 . S
C179 C178 1.387 . S
N180 Co171 2.022 . S
N180 C177 1.351 . S
N180 N181 1.365 . S
N181 C178 1.341 . S
N181 N180 1.365 . S
N181 H201 0.862 . S
C182 C177 1.501 . S
C182 H183 0.961 . S
C182 H184 0.961 . S
C182 H185 0.960 . S
H183 C182 0.961 . S
H184 C182 0.961 . S
H185 C182 0.960 . S
C186 N187 1.342 . S
C186 C190 1.401 . S
C186 C191 1.499 . S
N187 Co170 1.989 . S
N187 C186 1.342 . S
N187 N188 1.388 . S
N188 Co171 1.993 . S
N188 N187 1.388 . S
N188 C189 1.346 . S
C189 N188 1.346 . S
C189 C190 1.396 . S
C189 C199 1.510 . S
C190 C186 1.401 . S
C190 C189 1.396 . S
C191 C186 1.499 . S
C191 H192 0.959 . S
C191 H193 0.960 . S
C191 H194 0.961 . S
H192 C191 0.959 . S
H193 C191 0.960 . S
H194 C191 0.961 . S
O195 Co170 1.967 . S
O195 C203 1.258 . S
O196 Co171 1.941 . S
O196 C203 1.266 . S
H197 C199 0.959 . S
H198 C199 0.961 . S
C199 C189 1.510 . S
C199 H197 0.959 . S
C199 H198 0.961 . S
C199 H200 0.960 . S
H200 C199 0.960 . S
H201 N181 0.862 . S
O202 Co170 1.920 . S
O202 C175 1.289 . S
C203 O195 1.258 . S
C203 O196 1.266 . S
Co204 O207 1.970 . S
Co204 N221 1.989 . S
Co204 O229 1.967 . S
Co204 O236 1.920 . S
Co205 O208 1.966 . S
Co205 N214 2.022 . S
Co205 N222 1.993 . S
Co205 O230 1.941 . S
C206 O207 1.258 . S
C206 O208 1.263 . S
O207 Co204 1.970 . S
O207 C206 1.258 . S
O208 Co205 1.966 . S
O208 C206 1.263 . S
C209 O210 1.235 . S
C209 O236 1.289 . S
O210 C209 1.235 . S
C211 C213 1.400 . S
C211 N214 1.351 . S
C211 C216 1.501 1_556 S
C212 C213 1.387 . S
C212 N215 1.341 . S
C213 C211 1.400 . S
C213 C212 1.387 . S
N214 Co205 2.022 . S
N214 C211 1.351 . S
N214 N215 1.365 . S
N215 C212 1.341 . S
N215 N214 1.365 . S
N215 H235 0.862 . S
C216 C211 1.501 1_554 S
C216 H217 0.961 1_554 S
C216 H218 0.961 1_554 S
C216 H219 0.960 . S
H217 C216 0.961 1_556 S
H218 C216 0.961 1_556 S
H219 C216 0.960 . S
C220 N221 1.342 . S
C220 C224 1.401 . S
C220 C225 1.499 . S
N221 Co204 1.989 . S
N221 C220 1.342 . S
N221 N222 1.388 . S
N222 Co205 1.993 . S
N222 N221 1.388 . S
N222 C223 1.346 . S
C223 N222 1.346 . S
C223 C224 1.396 . S
C223 C233 1.510 . S
C224 C220 1.401 . S
C224 C223 1.396 . S
C225 C220 1.499 . S
C225 H226 0.959 . S
C225 H227 0.960 . S
C225 H228 0.961 . S
H226 C225 0.959 . S
H227 C225 0.960 . S
H228 C225 0.961 . S
O229 Co204 1.967 . S
O229 C237 1.258 . S
O230 Co205 1.941 . S
O230 C237 1.266 . S
H231 C233 0.959 . S
H232 C233 0.961 . S
C233 C223 1.510 . S
C233 H231 0.959 . S
C233 H232 0.961 . S
C233 H234 0.960 . S
H234 C233 0.960 . S
H235 N215 0.862 . S
O236 Co204 1.920 . S
O236 C209 1.289 . S
C237 O229 1.258 . S
C237 O230 1.266 . S
Co238 O241 1.970 . S
Co238 N255 1.989 . S
Co238 O263 1.967 . S
Co238 O270 1.920 . S
Co239 O242 1.966 . S
Co239 N248 2.022 . S
Co239 N256 1.993 . S
Co239 O264 1.941 . S
C240 O241 1.258 . S
C240 O242 1.263 . S
O241 Co238 1.970 . S
O241 C240 1.258 . S
O242 Co239 1.966 . S
O242 C240 1.263 . S
C243 O244 1.235 . S
C243 O270 1.289 . S
O244 C243 1.235 . S
C245 C247 1.400 . S
C245 N248 1.351 . S
C245 C250 1.501 . S
C246 C247 1.387 . S
C246 N249 1.341 . S
C247 C245 1.400 . S
C247 C246 1.387 . S
N248 Co239 2.022 . S
N248 C245 1.351 . S
N248 N249 1.365 . S
N249 C246 1.341 . S
N249 N248 1.365 . S
N249 H269 0.862 . S
C250 C245 1.501 . S
C250 H251 0.961 . S
C250 H252 0.961 . S
C250 H253 0.960 . S
H251 C250 0.961 . S
H252 C250 0.961 . S
H253 C250 0.960 . S
C254 N255 1.342 . S
C254 C258 1.401 . S
C254 C259 1.499 . S
N255 Co238 1.989 . S
N255 C254 1.342 . S
N255 N256 1.388 . S
N256 Co239 1.993 . S
N256 N255 1.388 . S
N256 C257 1.346 . S
C257 N256 1.346 . S
C257 C258 1.396 . S
C257 C267 1.510 . S
C258 C254 1.401 . S
C258 C257 1.396 . S
C259 C254 1.499 . S
C259 H260 0.959 . S
C259 H261 0.960 . S
C259 H262 0.961 . S
H260 C259 0.959 . S
H261 C259 0.960 . S
H262 C259 0.961 . S
O263 Co238 1.967 . S
O263 C271 1.258 . S
O264 Co239 1.941 . S
O264 C271 1.266 . S
H265 C267 0.959 . S
H266 C267 0.961 . S
C267 C257 1.510 . S
C267 H265 0.959 . S
C267 H266 0.961 . S
C267 H268 0.960 . S
H268 C267 0.960 . S
H269 N249 0.862 . S
O270 Co238 1.920 . S
O270 C243 1.289 . S
C271 O263 1.258 . S
C271 O264 1.266 . S
C272 C273 1.369 . S
C272 C274 1.419 . S
C272 H276 0.930 . S
C273 C272 1.369 . S
C273 C282 1.429 . S
C274 C272 1.419 . S
C274 C275 1.363 . S
C274 H277 0.929 . S
C275 C274 1.363 . S
C275 C281 1.428 . S
H276 C272 0.930 . S
H277 C274 0.929 . S
S278 N279 1.613 . S
S278 N280 1.610 . S
N279 S278 1.613 . S
N279 C282 1.350 . S
N280 S278 1.610 . S
N280 C281 1.351 . S
C281 C275 1.428 . S
C281 N280 1.351 . S
C281 C282 1.434 . S
C282 C273 1.429 . S
C282 N279 1.350 . S
C282 C281 1.434 . S
C283 C284 1.369 . S
C283 C285 1.419 . S
C283 H287 0.930 . S
C284 C283 1.369 . S
C284 C293 1.429 . S
C285 C283 1.419 . S
C285 C286 1.363 . S
C285 H288 0.929 . S
C286 C285 1.363 . S
C286 C292 1.428 . S
H287 C283 0.930 . S
H288 C285 0.929 . S
S289 N290 1.613 . S
S289 N291 1.610 . S
N290 S289 1.613 . S
N290 C293 1.350 . S
N291 S289 1.610 . S
N291 C292 1.351 . S
C292 C286 1.428 . S
C292 N291 1.351 . S
C292 C293 1.434 . S
C293 C284 1.429 . S
C293 N290 1.350 . S
C293 C292 1.434 . S
C294 C295 1.369 . S
C294 C296 1.419 1_455 S
C294 H298 0.930 . S
C295 C294 1.369 . S
C295 C304 1.429 . S
C296 C294 1.419 1_655 S
C296 C297 1.363 . S
C296 H299 0.929 . S
C297 C296 1.363 . S
C297 C303 1.428 . S
H298 C294 0.930 . S
H299 C296 0.929 . S
S300 N301 1.613 1_655 S
S300 N302 1.610 . S
N301 S300 1.613 1_455 S
N301 C304 1.350 . S
N302 S300 1.610 . S
N302 C303 1.351 . S
C303 C297 1.428 . S
C303 N302 1.351 . S
C303 C304 1.434 1_655 S
C304 C295 1.429 . S
C304 N301 1.350 . S
C304 C303 1.434 1_455 S
C305 C306 1.369 . S
C305 C307 1.419 1_455 S
C305 H309 0.930 . S
C306 C305 1.369 . S
C306 C315 1.429 . S
C307 C305 1.419 1_655 S
C307 C308 1.363 . S
C307 H310 0.929 . S
C308 C307 1.363 . S
C308 C314 1.428 . S
H309 C305 0.930 . S
H310 C307 0.929 . S
S311 N312 1.613 1_655 S
S311 N313 1.610 . S
N312 S311 1.613 1_455 S
N312 C315 1.350 . S
N313 S311 1.610 . S
N313 C314 1.351 . S
C314 C308 1.428 . S
C314 N313 1.351 . S
C314 C315 1.434 1_655 S
C315 C306 1.429 . S
C315 N312 1.350 . S
C315 C314 1.434 1_455 S
C316 C317 1.369 1_554 S
C316 C318 1.419 . S
C316 H320 0.930 . S
C317 C316 1.369 1_556 S
C317 C326 1.429 . S
C318 C316 1.419 . S
C318 C319 1.363 . S
C318 H321 0.929 . S
C319 C318 1.363 . S
C319 C325 1.428 1_554 S
H320 C316 0.930 . S
H321 C318 0.929 . S
S322 N323 1.613 . S
S322 N324 1.610 . S
N323 S322 1.613 . S
N323 C326 1.350 . S
N324 S322 1.610 . S
N324 C325 1.351 . S
C325 C319 1.428 1_556 S
C325 N324 1.351 . S
C325 C326 1.434 . S
C326 C317 1.429 . S
C326 N323 1.350 . S
C326 C325 1.434 . S
C327 C328 1.369 . S
C327 C329 1.419 . S
C327 H331 0.930 . S
C328 C327 1.369 . S
C328 C337 1.429 . S
C329 C327 1.419 . S
C329 C330 1.363 . S
C329 H332 0.929 . S
C330 C329 1.363 . S
C330 C336 1.428 . S
H331 C327 0.930 . S
H332 C329 0.929 . S
S333 N334 1.613 . S
S333 N335 1.610 . S
N334 S333 1.613 . S
N334 C337 1.350 . S
N335 S333 1.610 . S
N335 C336 1.351 . S
C336 C330 1.428 . S
C336 N335 1.351 . S
C336 C337 1.434 . S
C337 C328 1.429 . S
C337 N334 1.350 . S
C337 C336 1.434 . S
C338 C339 1.369 . S
C338 C340 1.419 1_556 S
C338 H342 0.930 . S
C339 C338 1.369 . S
C339 C348 1.429 . S
C340 C338 1.419 1_554 S
C340 C341 1.363 . S
C340 H343 0.929 . S
C341 C340 1.363 . S
C341 C347 1.428 . S
H342 C338 0.930 . S
H343 C340 0.929 . S
S344 N345 1.613 . S
S344 N346 1.610 . S
N345 S344 1.613 . S
N345 C348 1.350 1_554 S
N346 S344 1.610 . S
N346 C347 1.351 . S
C347 C341 1.428 . S
C347 N346 1.351 . S
C347 C348 1.434 1_554 S
C348 C339 1.429 . S
C348 N345 1.350 1_556 S
C348 C347 1.434 1_556 S
C349 C350 1.369 . S
C349 C351 1.419 . S
C349 H353 0.930 . S
C350 C349 1.369 . S
C350 C359 1.429 . S
C351 C349 1.419 . S
C351 C352 1.363 . S
C351 H354 0.929 . S
C352 C351 1.363 . S
C352 C358 1.428 . S
H353 C349 0.930 . S
H354 C351 0.929 . S
S355 N356 1.613 . S
S355 N357 1.610 . S
N356 S355 1.613 . S
N356 C359 1.350 . S
N357 S355 1.610 . S
N357 C358 1.351 . S
C358 C352 1.428 . S
C358 N357 1.351 . S
C358 C359 1.434 . S
C359 C350 1.429 . S
C359 N356 1.350 . S
C359 C358 1.434 . S
C360 C361 1.369 1_554 S
C360 C362 1.419 . S
C360 H364 0.930 . S
C361 C360 1.369 1_556 S
C361 C370 1.429 1_545 S
C362 C360 1.419 . S
C362 C363 1.363 1_545 S
C362 H365 0.929 . S
C363 C362 1.363 1_565 S
C363 C369 1.428 1_554 S
H364 C360 0.930 . S
H365 C362 0.929 . S
S366 N367 1.613 . S
S366 N368 1.610 . S
N367 S366 1.613 . S
N367 C370 1.350 . S
N368 S366 1.610 . S
N368 C369 1.351 . S
C369 C363 1.428 1_556 S
C369 N368 1.351 . S
C369 C370 1.434 . S
C370 C361 1.429 1_565 S
C370 N367 1.350 . S
C370 C369 1.434 . S
C371 C372 1.369 . S
C371 C373 1.419 . S
C371 H375 0.930 . S
C372 C371 1.369 . S
C372 C381 1.429 1_545 S
C373 C371 1.419 . S
C373 C374 1.363 1_545 S
C373 H376 0.929 . S
C374 C373 1.363 1_565 S
C374 C380 1.428 . S
H375 C371 0.930 . S
H376 C373 0.929 . S
S377 N378 1.613 . S
S377 N379 1.610 . S
N378 S377 1.613 . S
N378 C381 1.350 . S
N379 S377 1.610 . S
N379 C380 1.351 . S
C380 C374 1.428 . S
C380 N379 1.351 . S
C380 C381 1.434 . S
C381 C372 1.429 1_565 S
C381 N378 1.350 . S
C381 C380 1.434 . S
C382 C383 1.369 1_565 S
C382 C384 1.419 1_556 S
C382 H386 0.930 . S
C383 C382 1.369 1_545 S
C383 C392 1.429 . S
C384 C382 1.419 1_554 S
C384 C385 1.363 . S
C384 H387 0.929 . S
C385 C384 1.363 . S
C385 C391 1.428 1_565 S
H386 C382 0.930 . S
H387 C384 0.929 . S
S388 N389 1.613 1_554 S
S388 N390 1.610 . S
N389 S388 1.613 1_556 S
N389 C392 1.350 . S
N390 S388 1.610 . S
N390 C391 1.351 . S
C391 C385 1.428 1_545 S
C391 N390 1.351 . S
C391 C392 1.434 1_554 S
C392 C383 1.429 . S
C392 N389 1.350 . S
C392 C391 1.434 1_556 S
C393 C394 1.369 . S
C393 C395 1.419 . S
C393 H397 0.930 . S
C394 C393 1.369 . S
C394 C403 1.429 1_545 S
C395 C393 1.419 . S
C395 C396 1.363 1_545 S
C395 H398 0.929 . S
C396 C395 1.363 1_565 S
C396 C402 1.428 . S
H397 C393 0.930 . S
H398 C395 0.929 . S
S399 N400 1.613 . S
S399 N401 1.610 . S
N400 S399 1.613 . S
N400 C403 1.350 . S
N401 S399 1.610 . S
N401 C402 1.351 . S
C402 C396 1.428 . S
C402 N401 1.351 . S
C402 C403 1.434 . S
C403 C394 1.429 1_565 S
C403 N400 1.350 . S
C403 C402 1.434 . S
C404 C405 1.369 . S
C404 C406 1.419 . S
C404 H408 0.930 1_556 S
C405 C404 1.369 . S
C405 C414 1.429 . S
C406 C404 1.419 . S
C406 C407 1.363 . S
C406 H409 0.929 . S
C407 C406 1.363 . S
C407 C413 1.428 . S
H408 C404 0.930 1_554 S
H409 C406 0.929 . S
S410 N411 1.613 . S
S410 N412 1.610 . S
N411 S410 1.613 . S
N411 C414 1.350 . S
N412 S410 1.610 . S
N412 C413 1.351 . S
C413 C407 1.428 . S
C413 N412 1.351 . S
C413 C414 1.434 . S
C414 C405 1.429 . S
C414 N411 1.350 . S
C414 C413 1.434 . S
C415 C416 1.369 . S
C415 C417 1.419 . S
C415 H419 0.930 . S
C416 C415 1.369 . S
C416 C425 1.429 . S
C417 C415 1.419 . S
C417 C418 1.363 . S
C417 H420 0.929 . S
C418 C417 1.363 . S
C418 C424 1.428 . S
H419 C415 0.930 . S
H420 C417 0.929 . S
S421 N422 1.613 . S
S421 N423 1.610 . S
N422 S421 1.613 . S
N422 C425 1.350 . S
N423 S421 1.610 . S
N423 C424 1.351 . S
C424 C418 1.428 . S
C424 N423 1.351 . S
C424 C425 1.434 . S
C425 C416 1.429 . S
C425 N422 1.350 . S
C425 C424 1.434 . S
C426 C427 1.369 . S
C426 C428 1.419 . S
C426 H430 0.930 . S
C427 C426 1.369 . S
C427 C436 1.429 . S
C428 C426 1.419 . S
C428 C429 1.363 . S
C428 H431 0.929 . S
C429 C428 1.363 . S
C429 C435 1.428 . S
H430 C426 0.930 . S
H431 C428 0.929 . S
S432 N433 1.613 1_556 S
S432 N434 1.610 . S
N433 S432 1.613 1_554 S
N433 C436 1.350 . S
N434 S432 1.610 . S
N434 C435 1.351 1_556 S
C435 C429 1.428 . S
C435 N434 1.351 1_554 S
C435 C436 1.434 . S
C436 C427 1.429 . S
C436 N433 1.350 . S
C436 C435 1.434 . S
C437 C438 1.369 . S
C437 C439 1.419 . S
C437 H441 0.930 . S
C438 C437 1.369 . S
C438 C447 1.429 . S
C439 C437 1.419 . S
C439 C440 1.363 . S
C439 H442 0.929 . S
C440 C439 1.363 . S
C440 C446 1.428 . S
H441 C437 0.930 . S
H442 C439 0.929 . S
S443 N444 1.613 . S
S443 N445 1.610 . S
N444 S443 1.613 . S
N444 C447 1.350 . S
N445 S443 1.610 . S
N445 C446 1.351 . S
C446 C440 1.428 . S
C446 N445 1.351 . S
C446 C447 1.434 . S
C447 C438 1.429 . S
C447 N444 1.350 . S
C447 C446 1.434 . S
C448 C449 1.369 . S
C448 C450 1.419 . S
C448 H452 0.930 . S
C449 C448 1.369 . S
C449 C458 1.429 . S
C450 C448 1.419 . S
C450 C451 1.363 . S
C450 H453 0.929 . S
C451 C450 1.363 . S
C451 C457 1.428 . S
H452 C448 0.930 . S
H453 C450 0.929 . S
S454 N455 1.613 1_554 S
S454 N456 1.610 . S
N455 S454 1.613 1_556 S
N455 C458 1.350 . S
N456 S454 1.610 . S
N456 C457 1.351 1_554 S
C457 C451 1.428 . S
C457 N456 1.351 1_556 S
C457 C458 1.434 . S
C458 C449 1.429 . S
C458 N455 1.350 . S
C458 C457 1.434 . S
C459 C460 1.369 . S
C459 C461 1.419 . S
C459 H463 0.930 . S
C460 C459 1.369 . S
C460 C469 1.429 . S
C461 C459 1.419 . S
C461 C462 1.363 . S
C461 H464 0.929 . S
C462 C461 1.363 . S
C462 C468 1.428 . S
H463 C459 0.930 . S
H464 C461 0.929 . S
S465 N466 1.613 . S
S465 N467 1.610 . S
N466 S465 1.613 . S
N466 C469 1.350 . S
N467 S465 1.610 . S
N467 C468 1.351 . S
C468 C462 1.428 . S
C468 N467 1.351 . S
C468 C469 1.434 . S
C469 C460 1.429 . S
C469 N466 1.350 . S
C469 C468 1.434 . S
C470 C471 1.369 . S
C470 C472 1.419 . S
C470 H474 0.930 . S
C471 C470 1.369 . S
C471 C480 1.429 . S
C472 C470 1.419 . S
C472 C473 1.363 . S
C472 H475 0.929 . S
C473 C472 1.363 . S
C473 C479 1.428 . S
H474 C470 0.930 . S
H475 C472 0.929 . S
S476 N477 1.613 . S
S476 N478 1.610 . S
N477 S476 1.613 . S
N477 C480 1.350 . S
N478 S476 1.610 . S
N478 C479 1.351 . S
C479 C473 1.428 . S
C479 N478 1.351 . S
C479 C480 1.434 . S
C480 C471 1.429 . S
C480 N477 1.350 . S
C480 C479 1.434 . S
C481 C482 1.369 . S
C481 C483 1.419 . S
C481 H485 0.930 . S
C482 C481 1.369 . S
C482 C491 1.429 . S
C483 C481 1.419 . S
C483 C484 1.363 . S
C483 H486 0.929 . S
C484 C483 1.363 . S
C484 C490 1.428 . S
H485 C481 0.930 . S
H486 C483 0.929 . S
S487 N488 1.613 . S
S487 N489 1.610 . S
N488 S487 1.613 . S
N488 C491 1.350 . S
N489 S487 1.610 . S
N489 C490 1.351 . S
C490 C484 1.428 . S
C490 N489 1.351 . S
C490 C491 1.434 . S
C491 C482 1.429 . S
C491 N488 1.350 . S
C491 C490 1.434 . S
C273 C33 1.587 . S
C275 C135 1.586 . S
C284 C67 1.584 . S
C286 C101 1.588 . S
C295 C271 1.588 . S
C297 C169 1.585 . S
C306 C203 1.588 . S
C308 C237 1.586 . S
C317 C70 2.063 . S
C319 C2 2.063 . S
C328 C104 2.063 . S
C330 C36 2.063 . S
C339 C39 1.365 . S
C341 C107 1.368 . S
C350 C5 1.366 . S
C352 C73 1.369 . S
C361 C206 2.063 . S
C363 C138 2.063 . S
C372 C172 2.063 . S
C374 C240 2.064 . S
C383 C175 1.368 . S
C385 C243 1.370 . S
C394 C209 1.367 . S
C396 C141 1.366 . S
C405 C9 1.348 1_556 S
C407 C190 1.388 . S
C416 C43 1.346 . S
C418 C156 1.388 . S
C427 C258 1.389 . S
C429 C77 1.342 1_554 S
C438 C111 1.341 . S
C440 C224 1.389 . S
C449 C54 1.389 . S
C451 C145 1.345 1_556 S
C460 C179 1.343 . S
C462 C20 1.388 . S
C471 C213 1.346 1_554 S
C473 C122 1.389 . S
C482 C247 1.343 . S
C484 C88 1.389 . S
