# Generated by pormake.
# Topology umc, (4)-cn, num edge types: 1
# Building blocks:
#     Node 0, Type 0, BuildingBlock: ICAMEG_clean_sbu_1, # of connection points: 4
#     Node 1, Type 0, BuildingBlock: ICAMEG_clean_sbu_1, # of connection points: 4
#     Node 2, Type 0, BuildingBlock: ICAMEG_clean_sbu_1, # of connection points: 4
#     Node 3, Type 0, BuildingBlock: ICAMEG_clean_sbu_1, # of connection points: 4
#     Node 4, Type 0, BuildingBlock: ICAMEG_clean_sbu_1, # of connection points: 4
#     Node 5, Type 0, BuildingBlock: ICAMEG_clean_sbu_1, # of connection points: 4
#     Node 6, Type 0, BuildingBlock: ICAMEG_clean_sbu_1, # of connection points: 4
#     Node 7, Type 0, BuildingBlock: ICAMEG_clean_sbu_1, # of connection points: 4
#     Node 8, Type 0, BuildingBlock: ICAMEG_clean_sbu_1, # of connection points: 4
#     Node 9, Type 0, BuildingBlock: ICAMEG_clean_sbu_1, # of connection points: 4
#     Node 10, Type 0, BuildingBlock: ICAMEG_clean_sbu_1, # of connection points: 4
#     Node 11, Type 0, BuildingBlock: ICAMEG_clean_sbu_1, # of connection points: 4
#     Node 12, Type 0, BuildingBlock: ICAMEG_clean_sbu_1, # of connection points: 4
#     Node 13, Type 0, BuildingBlock: ICAMEG_clean_sbu_1, # of connection points: 4
#     Node 14, Type 0, BuildingBlock: ICAMEG_clean_sbu_1, # of connection points: 4
#     Node 15, Type 0, BuildingBlock: ICAMEG_clean_sbu_1, # of connection points: 4
#     Edge 16, Type (0, 0), BuildingBlock: AJUNOK_clean_linker_0, # of connection points: 2
#     Edge 17, Type (0, 0), BuildingBlock: AJUNOK_clean_linker_0, # of connection points: 2
#     Edge 18, Type (0, 0), BuildingBlock: AJUNOK_clean_linker_0, # of connection points: 2
#     Edge 19, Type (0, 0), BuildingBlock: AJUNOK_clean_linker_0, # of connection points: 2
#     Edge 20, Type (0, 0), BuildingBlock: AJUNOK_clean_linker_0, # of connection points: 2
#     Edge 21, Type (0, 0), BuildingBlock: AJUNOK_clean_linker_0, # of connection points: 2
#     Edge 22, Type (0, 0), BuildingBlock: AJUNOK_clean_linker_0, # of connection points: 2
#     Edge 23, Type (0, 0), BuildingBlock: AJUNOK_clean_linker_0, # of connection points: 2
#     Edge 24, Type (0, 0), BuildingBlock: AJUNOK_clean_linker_0, # of connection points: 2
#     Edge 25, Type (0, 0), BuildingBlock: AJUNOK_clean_linker_0, # of connection points: 2
#     Edge 26, Type (0, 0), BuildingBlock: AJUNOK_clean_linker_0, # of connection points: 2
#     Edge 27, Type (0, 0), BuildingBlock: AJUNOK_clean_linker_0, # of connection points: 2
#     Edge 28, Type (0, 0), BuildingBlock: AJUNOK_clean_linker_0, # of connection points: 2
#     Edge 29, Type (0, 0), BuildingBlock: AJUNOK_clean_linker_0, # of connection points: 2
#     Edge 30, Type (0, 0), BuildingBlock: AJUNOK_clean_linker_0, # of connection points: 2
#     Edge 31, Type (0, 0), BuildingBlock: AJUNOK_clean_linker_0, # of connection points: 2
#     Edge 32, Type (0, 0), BuildingBlock: AJUNOK_clean_linker_0, # of connection points: 2
#     Edge 33, Type (0, 0), BuildingBlock: AJUNOK_clean_linker_0, # of connection points: 2
#     Edge 34, Type (0, 0), BuildingBlock: AJUNOK_clean_linker_0, # of connection points: 2
#     Edge 35, Type (0, 0), BuildingBlock: AJUNOK_clean_linker_0, # of connection points: 2
#     Edge 36, Type (0, 0), BuildingBlock: AJUNOK_clean_linker_0, # of connection points: 2
#     Edge 37, Type (0, 0), BuildingBlock: AJUNOK_clean_linker_0, # of connection points: 2
#     Edge 38, Type (0, 0), BuildingBlock: AJUNOK_clean_linker_0, # of connection points: 2
#     Edge 39, Type (0, 0), BuildingBlock: AJUNOK_clean_linker_0, # of connection points: 2
#     Edge 40, Type (0, 0), BuildingBlock: AJUNOK_clean_linker_0, # of connection points: 2
#     Edge 41, Type (0, 0), BuildingBlock: AJUNOK_clean_linker_0, # of connection points: 2
#     Edge 42, Type (0, 0), BuildingBlock: AJUNOK_clean_linker_0, # of connection points: 2
#     Edge 43, Type (0, 0), BuildingBlock: AJUNOK_clean_linker_0, # of connection points: 2
#     Edge 44, Type (0, 0), BuildingBlock: AJUNOK_clean_linker_0, # of connection points: 2
#     Edge 45, Type (0, 0), BuildingBlock: AJUNOK_clean_linker_0, # of connection points: 2
#     Edge 46, Type (0, 0), BuildingBlock: AJUNOK_clean_linker_0, # of connection points: 2
#     Edge 47, Type (0, 0), BuildingBlock: AJUNOK_clean_linker_0, # of connection points: 2
# Relax obj value: 0.055
# Max RMSD: 0.126
# Mean RMSD: 0.126
data_MOF--net-umc--node1-ICAMEG_clean_sbu_1--edge1-AJUNOK_clean_linker_0
_symmetry_space_group_name_H-M    P1
_symmetry_Int_Tables_number       1
_symmetry_cell_setting            triclinic
loop_
_symmetry_equiv_pos_as_xyz
'x, y, z'
_cell_length_a     37.420416
_cell_length_b     25.660218
_cell_length_c     45.16888
_cell_angle_alpha  89.995302
_cell_angle_beta   90.019396
_cell_angle_gamma 89.940527
loop_
_atom_site_label
_atom_site_type_symbol
_atom_site_fract_x
_atom_site_fract_y
_atom_site_fract_z
_atom_type_partial_charge
Co0 Co 0.35173 0.01206 0.3862 0.0
Co1 Co 0.38159 0.12751 0.35572 0.0
O2 O 0.35355 0.08791 0.38426 0.0
C3 C 0.37583 0.04425 0.44543 0.0
O4 O 0.39898 0.07403 0.43165 0.0
C5 C 0.30735 0.16411 0.34769 0.0
O6 O 0.29875 0.1146 0.34641 0.0
O7 O 0.36349 0.08428 0.32236 0.0
O8 O 0.34941 0.00658 0.34206 0.0
H9 H 0.46508 0.15023 0.26957 0.0
H10 H 0.3005 0.07478 0.42144 0.0
O11 O 0.35434 0.01615 0.43048 0.0
H12 H 0.22622 0.96812 0.3547 0.0
H13 H 0.31055 0.84113 0.42889 0.0
H14 H 0.38725 0.92541 0.35422 0.0
H15 H 0.29191 0.96016 0.35399 0.0
H16 H 0.31254 0.93693 0.42462 0.0
O17 O 0.34011 0.17695 0.35066 0.0
H18 H 0.42987 0.10036 0.30603 0.0
H19 H 0.39151 0.24099 0.34412 0.0
H20 H 0.38587 0.82949 0.3575 0.0
H21 H 0.23488 0.08361 0.42308 0.0
H22 H 0.3473 0.78672 0.39507 0.0
H23 H 0.1973 0.03016 0.38946 0.0
O24 O 0.40474 0.00702 0.38434 0.0
H25 H 0.37007 0.23242 0.44917 0.0
H26 H 0.45391 0.16311 0.37471 0.0
H27 H 0.47723 0.21364 0.41693 0.0
H28 H 0.43517 0.24868 0.45455 0.0
H29 H 0.34793 0.18132 0.40672 0.0
H30 H 0.42609 0.29243 0.30793 0.0
H31 H 0.46337 0.24697 0.27043 0.0
O32 O 0.42335 0.07886 0.36052 0.0
C33 C 0.35347 0.03693 0.31992 0.0
C34 C 0.44905 0.17048 0.28588 0.0
C35 C 0.42713 0.25029 0.30739 0.0
N36 N 0.40893 0.16777 0.32733 0.0
C37 C 0.42914 0.14246 0.30663 0.0
C38 C 0.40755 0.22098 0.32778 0.0
C39 C 0.44804 0.22476 0.28635 0.0
C40 C 0.2843 0.05096 0.40698 0.0
N41 N 0.30001 0.01679 0.38776 0.0
C42 C 0.24717 0.05628 0.40793 0.0
C43 C 0.2261 0.02633 0.38903 0.0
C44 C 0.24232 0.99156 0.36949 0.0
C45 C 0.27953 0.98732 0.36913 0.0
C46 C 0.32739 0.85928 0.41237 0.0
C47 C 0.37019 0.90705 0.37046 0.0
C48 C 0.32867 0.9135 0.40989 0.0
N49 N 0.34972 0.93669 0.38899 0.0
C50 C 0.36962 0.85274 0.37228 0.0
C51 C 0.34801 0.82878 0.39339 0.0
C52 C 0.42926 0.03453 0.37253 0.0
C53 C 0.38865 0.21749 0.43289 0.0
C54 C 0.43545 0.17818 0.39099 0.0
C55 C 0.4488 0.20685 0.41483 0.0
C56 C 0.42519 0.22653 0.43591 0.0
N57 N 0.39958 0.16947 0.38818 0.0
C58 C 0.37626 0.18873 0.40873 0.0
Co59 Co 0.65351 0.98488 0.38286 0.0
Co60 Co 0.62587 0.86757 0.35273 0.0
O61 O 0.65345 0.90891 0.38083 0.0
C62 C 0.63024 0.95097 0.4423 0.0
O63 O 0.60818 0.91947 0.42852 0.0
C64 C 0.70119 0.83635 0.34284 0.0
O65 O 0.70871 0.88627 0.34224 0.0
O66 O 0.64058 0.91321 0.31909 0.0
O67 O 0.65601 0.9904 0.3387 0.0
H68 H 0.539 0.84044 0.26931 0.0
H69 H 0.70569 0.92421 0.41834 0.0
O70 O 0.65068 0.98068 0.42729 0.0
H71 H 0.77835 0.03451 0.35232 0.0
H72 H 0.69079 0.15759 0.42571 0.0
H73 H 0.61708 0.06996 0.35018 0.0
H74 H 0.71254 0.0396 0.35119 0.0
H75 H 0.6905 0.06171 0.42169 0.0
O76 O 0.66883 0.82178 0.34596 0.0
H77 H 0.57376 0.892 0.30531 0.0
H78 H 0.62064 0.75376 0.33957 0.0
H79 H 0.61679 0.16592 0.35318 0.0
H80 H 0.77143 0.9182 0.4204 0.0
H81 H 0.65387 0.21038 0.39117 0.0
H82 H 0.80821 0.9735 0.38716 0.0
O83 O 0.60036 0.98777 0.38054 0.0
H84 H 0.64589 0.76448 0.4459 0.0
H85 H 0.55698 0.81993 0.37173 0.0
H86 H 0.53774 0.76625 0.41413 0.0
H87 H 0.5824 0.73819 0.45162 0.0
H88 H 0.66381 0.81866 0.40332 0.0
H89 H 0.5867 0.70075 0.30371 0.0
H90 H 0.54535 0.74411 0.26838 0.0
O91 O 0.58248 0.91231 0.35965 0.0
C92 C 0.65068 0.96054 0.31653 0.0
C93 C 0.55683 0.82109 0.28467 0.0
C94 C 0.58365 0.7427 0.30394 0.0
N95 N 0.59894 0.82587 0.32469 0.0
C96 C 0.57648 0.85005 0.30517 0.0
C97 C 0.60289 0.77292 0.32413 0.0
C98 C 0.56044 0.76704 0.28413 0.0
C99 C 0.72152 0.94881 0.40403 0.0
N100 N 0.70529 0.98241 0.38477 0.0
C101 C 0.75873 0.94509 0.40522 0.0
C102 C 0.77935 0.97608 0.38653 0.0
C103 C 0.76261 0.01026 0.36695 0.0
C104 C 0.72533 0.01288 0.36635 0.0
C105 C 0.67456 0.13869 0.40904 0.0
C106 C 0.63335 0.08903 0.3667 0.0
C107 C 0.67421 0.08442 0.40672 0.0
N108 N 0.65395 0.06031 0.38561 0.0
C109 C 0.63304 0.14338 0.36833 0.0
C110 C 0.65384 0.16829 0.38965 0.0
C111 C 0.57619 0.95745 0.37054 0.0
C112 C 0.62617 0.77655 0.42976 0.0
C113 C 0.57645 0.80825 0.3881 0.0
C114 C 0.56546 0.77762 0.41197 0.0
C115 C 0.59054 0.76185 0.43296 0.0
N116 N 0.61135 0.82292 0.38524 0.0
C117 C 0.63616 0.80716 0.40557 0.0
Co118 Co 0.34788 0.98609 0.13405 0.0
Co119 Co 0.38147 0.87 0.16145 0.0
O120 O 0.3519 0.91025 0.13436 0.0
C121 C 0.37366 0.95804 0.0746 0.0
O122 O 0.39732 0.92881 0.0882 0.0
C123 C 0.30814 0.83015 0.17081 0.0
O124 O 0.29799 0.87905 0.17239 0.0
O125 O 0.36418 0.91122 0.19592 0.0
O126 O 0.34467 0.98814 0.17821 0.0
H127 H 0.4677 0.8459 0.24564 0.0
H128 H 0.29942 0.92238 0.0967 0.0
O129 O 0.35152 0.98483 0.08972 0.0
H130 H 0.22054 0.01995 0.16438 0.0
H131 H 0.30323 0.15644 0.09286 0.0
H132 H 0.37634 0.07309 0.17027 0.0
H133 H 0.28591 0.03186 0.16634 0.0
H134 H 0.30867 0.06075 0.09531 0.0
O135 O 0.34109 0.81929 0.167 0.0
H136 H 0.43071 0.89631 0.21059 0.0
H137 H 0.39441 0.75637 0.17052 0.0
H138 H 0.37161 0.16891 0.16888 0.0
H139 H 0.2342 0.90956 0.09385 0.0
H140 H 0.33481 0.21124 0.12988 0.0
H141 H 0.1943 0.95843 0.12793 0.0
O142 O 0.40082 0.99485 0.13709 0.0
H143 H 0.36728 0.76958 0.06669 0.0
H144 H 0.45334 0.83653 0.14008 0.0
H145 H 0.47547 0.78873 0.09639 0.0
H146 H 0.43229 0.75489 0.05932 0.0
H147 H 0.34635 0.81803 0.11055 0.0
H148 H 0.43069 0.70436 0.20531 0.0
H149 H 0.46784 0.74921 0.24312 0.0
O150 O 0.42216 0.91971 0.15608 0.0
C151 C 0.35146 0.95697 0.19952 0.0
C152 C 0.45169 0.82591 0.22923 0.0
C153 C 0.43088 0.74647 0.20663 0.0
N154 N 0.41054 0.82928 0.18848 0.0
C155 C 0.43077 0.85424 0.20928 0.0
C156 C 0.41028 0.77609 0.18706 0.0
C157 C 0.45173 0.77166 0.22782 0.0
C158 C 0.28221 0.94418 0.1114 0.0
N159 N 0.29644 0.97805 0.13155 0.0
C160 C 0.24531 0.9366 0.10977 0.0
C161 C 0.22294 0.96397 0.12893 0.0
C162 C 0.23765 0.99847 0.1494 0.0
C163 C 0.27468 0.005 0.15043 0.0
C164 C 0.31945 0.1385 0.10989 0.0
C165 C 0.36043 0.09123 0.15327 0.0
C166 C 0.32278 0.08433 0.11129 0.0
N167 N 0.34314 0.06138 0.13278 0.0
C168 C 0.35778 0.14551 0.15258 0.0
C169 C 0.33714 0.16922 0.13069 0.0
C170 C 0.42631 0.96621 0.14663 0.0
C171 C 0.38635 0.78403 0.08271 0.0
C172 C 0.4344 0.82203 0.12401 0.0
C173 C 0.44708 0.79488 0.09935 0.0
C174 C 0.42284 0.77587 0.07857 0.0
N175 N 0.39859 0.82996 0.12789 0.0
C176 C 0.37465 0.8113 0.10766 0.0
Co177 Co 0.64893 0.02023 0.13039 0.0
Co178 Co 0.62186 0.13718 0.16101 0.0
O179 O 0.64894 0.09623 0.13245 0.0
C180 C 0.62425 0.05473 0.07182 0.0
O181 O 0.60208 0.0845 0.08665 0.0
C182 C 0.69658 0.1732 0.16852 0.0
O183 O 0.7058 0.12386 0.16971 0.0
O184 O 0.63986 0.09353 0.19423 0.0
O185 O 0.65177 0.0147 0.17469 0.0
H186 H 0.54092 0.16299 0.24853 0.0
H187 H 0.70095 0.08069 0.09472 0.0
O188 O 0.64561 0.02489 0.08592 0.0
H189 H 0.77379 0.9697 0.1604 0.0
H190 H 0.68488 0.84769 0.08653 0.0
H191 H 0.61327 0.93516 0.16356 0.0
H192 H 0.70797 0.96518 0.16183 0.0
H193 H 0.68465 0.94359 0.09065 0.0
O194 O 0.66375 0.18548 0.16561 0.0
H195 H 0.57514 0.11188 0.21196 0.0
H196 H 0.61213 0.25115 0.17157 0.0
H197 H 0.61293 0.83919 0.16041 0.0
H198 H 0.76671 0.08621 0.09242 0.0
H199 H 0.64894 0.79483 0.12167 0.0
H200 H 0.80357 0.03054 0.12549 0.0
O201 O 0.59585 0.01735 0.13294 0.0
H202 H 0.63447 0.24074 0.06718 0.0
H203 H 0.55 0.17623 0.14239 0.0
H204 H 0.5273 0.22738 0.10018 0.0
H205 H 0.56971 0.26015 0.06222 0.0
H206 H 0.65591 0.18883 0.10957 0.0
H207 H 0.57873 0.30384 0.20794 0.0
H208 H 0.54257 0.25969 0.24665 0.0
O209 O 0.5794 0.09014 0.15687 0.0
C210 C 0.64885 0.04572 0.19672 0.0
C211 C 0.55652 0.18268 0.23174 0.0
C212 C 0.57776 0.26172 0.20897 0.0
N213 N 0.59542 0.17853 0.18954 0.0
C214 C 0.57588 0.15396 0.21093 0.0
C215 C 0.59673 0.23171 0.1885 0.0
C216 C 0.55747 0.23693 0.23068 0.0
C217 C 0.71683 0.05598 0.10897 0.0
N218 N 0.70066 0.02244 0.12826 0.0
C219 C 0.75404 0.05943 0.10766 0.0
C220 C 0.77471 0.02824 0.12625 0.0
C221 C 0.75802 0.99411 0.14586 0.0
C222 C 0.72074 0.99179 0.1466 0.0
C223 C 0.66917 0.86655 0.10356 0.0
C224 C 0.62925 0.9161 0.14681 0.0
C225 C 0.66891 0.92082 0.10598 0.0
N226 N 0.6493 0.94485 0.12755 0.0
C227 C 0.62884 0.86177 0.14506 0.0
C228 C 0.64901 0.83692 0.12329 0.0
C229 C 0.57225 0.04606 0.14518 0.0
C230 C 0.61574 0.22683 0.08363 0.0
C231 C 0.56856 0.19002 0.1259 0.0
C232 C 0.55559 0.21919 0.10209 0.0
C233 C 0.5794 0.23765 0.08083 0.0
N234 N 0.60423 0.17953 0.12849 0.0
C235 C 0.62774 0.19756 0.10774 0.0
Co236 Co 0.65123 0.98526 0.63143 0.0
Co237 Co 0.62554 0.86798 0.66228 0.0
O238 O 0.65235 0.90942 0.63374 0.0
C239 C 0.62938 0.95076 0.57179 0.0
O240 O 0.60708 0.91933 0.58535 0.0
C241 C 0.70079 0.8357 0.67064 0.0
O242 O 0.70845 0.88556 0.67171 0.0
O243 O 0.64197 0.91272 0.69571 0.0
O244 O 0.65265 0.99131 0.67568 0.0
H245 H 0.54215 0.83978 0.74794 0.0
H246 H 0.70524 0.92631 0.59698 0.0
O247 O 0.64951 0.98058 0.58701 0.0
H248 H 0.77444 0.03947 0.66401 0.0
H249 H 0.68668 0.15898 0.58885 0.0
H250 H 0.61187 0.0691 0.66274 0.0
H251 H 0.70856 0.04232 0.66396 0.0
H252 H 0.68812 0.06317 0.59324 0.0
O253 O 0.66836 0.8214 0.66761 0.0
H254 H 0.57635 0.89192 0.71188 0.0
H255 H 0.6191 0.75392 0.67388 0.0
H256 H 0.60982 0.16499 0.65934 0.0
H257 H 0.7711 0.92255 0.59609 0.0
H258 H 0.64744 0.21057 0.62218 0.0
H259 H 0.80614 0.97926 0.62987 0.0
O260 O 0.59806 0.98612 0.63281 0.0
H261 H 0.64164 0.76469 0.56871 0.0
H262 H 0.55492 0.82545 0.64322 0.0
H263 H 0.53385 0.77329 0.60086 0.0
H264 H 0.57739 0.74251 0.56321 0.0
H265 H 0.66144 0.81744 0.61129 0.0
H266 H 0.5857 0.70026 0.70978 0.0
H267 H 0.54669 0.74322 0.74701 0.0
O268 O 0.58228 0.91356 0.65731 0.0
C269 C 0.64978 0.96101 0.698 0.0
C270 C 0.55897 0.8206 0.73177 0.0
C271 C 0.58344 0.7423 0.71036 0.0
N272 N 0.59938 0.82595 0.69061 0.0
C273 C 0.57831 0.8499 0.71124 0.0
C274 C 0.60235 0.77287 0.69014 0.0
C275 C 0.56155 0.76642 0.73124 0.0
C276 C 0.72031 0.95153 0.6115 0.0
N277 N 0.70307 0.98467 0.6304 0.0
C278 C 0.75759 0.94909 0.61098 0.0
C279 C 0.77724 0.98086 0.62997 0.0
C280 C 0.75946 0.0146 0.64916 0.0
C281 C 0.72215 0.01594 0.6491 0.0
C282 C 0.67024 0.1396 0.60518 0.0
C283 C 0.62846 0.08869 0.64664 0.0
C284 C 0.6709 0.08536 0.60773 0.0
N285 N 0.65038 0.06064 0.62843 0.0
C286 C 0.62712 0.14298 0.64475 0.0
C287 C 0.64821 0.16852 0.62389 0.0
C288 C 0.57467 0.95708 0.64505 0.0
C289 C 0.62241 0.77782 0.58498 0.0
C290 C 0.57395 0.81248 0.62688 0.0
C291 C 0.56191 0.78276 0.60298 0.0
C292 C 0.58636 0.76545 0.58189 0.0
N293 N 0.60933 0.82459 0.62974 0.0
C294 C 0.63348 0.80754 0.60921 0.0
Co295 Co 0.34994 0.01667 0.63399 0.0
Co296 Co 0.3833 0.13277 0.66143 0.0
O297 O 0.35396 0.09252 0.6342 0.0
C298 C 0.37616 0.04428 0.57461 0.0
O299 O 0.39968 0.07363 0.58825 0.0
C300 C 0.30988 0.17305 0.6703 0.0
O301 O 0.29971 0.12419 0.67189 0.0
O302 O 0.36566 0.09177 0.69587 0.0
O303 O 0.34633 0.01488 0.67811 0.0
H304 H 0.46878 0.15675 0.74612 0.0
H305 H 0.30177 0.08032 0.59627 0.0
O306 O 0.35392 0.01764 0.58969 0.0
H307 H 0.22235 0.98334 0.66368 0.0
H308 H 0.30558 0.84615 0.59301 0.0
H309 H 0.37817 0.92987 0.67056 0.0
H310 H 0.2877 0.97125 0.66603 0.0
H311 H 0.311 0.94185 0.59524 0.0
O312 O 0.34288 0.18374 0.66667 0.0
H313 H 0.43213 0.1064 0.71085 0.0
H314 H 0.39614 0.2464 0.67052 0.0
H315 H 0.37343 0.83406 0.66939 0.0
H316 H 0.23658 0.0933 0.59303 0.0
H317 H 0.3369 0.79154 0.63032 0.0
H318 H 0.1964 0.04474 0.62697 0.0
O319 O 0.40287 0.00775 0.63728 0.0
H320 H 0.36997 0.23268 0.56638 0.0
H321 H 0.45534 0.16617 0.64053 0.0
H322 H 0.47787 0.21368 0.5969 0.0
H323 H 0.43503 0.2473 0.55944 0.0
H324 H 0.34864 0.18451 0.6102 0.0
H325 H 0.43212 0.29835 0.70549 0.0
H326 H 0.46894 0.25343 0.74355 0.0
O327 O 0.42407 0.08285 0.65632 0.0
C328 C 0.35286 0.0461 0.69943 0.0
C329 C 0.45293 0.17676 0.72959 0.0
C330 C 0.43231 0.25624 0.70682 0.0
N331 N 0.41215 0.17346 0.68859 0.0
C332 C 0.4322 0.14847 0.70952 0.0
C333 C 0.41189 0.22665 0.68714 0.0
C334 C 0.45297 0.23102 0.72816 0.0
C335 C 0.28445 0.05865 0.61091 0.0
N336 N 0.29851 0.02485 0.6312 0.0
C337 C 0.24756 0.06633 0.60906 0.0
C338 C 0.22504 0.03912 0.62814 0.0
C339 C 0.23958 0.00469 0.64876 0.0
C340 C 0.2766 0.99807 0.65001 0.0
C341 C 0.32168 0.86417 0.61007 0.0
C342 C 0.36237 0.91165 0.65352 0.0
C343 C 0.32501 0.91834 0.61134 0.0
N344 N 0.34522 0.94139 0.63287 0.0
C345 C 0.35971 0.85738 0.65296 0.0
C346 C 0.33923 0.83356 0.63103 0.0
C347 C 0.42831 0.03632 0.64688 0.0
C348 C 0.38889 0.21831 0.58257 0.0
C349 C 0.43656 0.18055 0.62429 0.0
C350 C 0.44946 0.20755 0.59967 0.0
C351 C 0.42541 0.22643 0.57867 0.0
N352 N 0.40072 0.17264 0.62792 0.0
C353 C 0.37696 0.1912 0.60749 0.0
Co354 Co 0.65066 0.02098 0.88393 0.0
Co355 Co 0.62129 0.13773 0.854 0.0
O356 O 0.64946 0.09707 0.88201 0.0
C357 C 0.62507 0.05493 0.94235 0.0
O358 O 0.60306 0.08477 0.92739 0.0
C359 C 0.69605 0.17292 0.84446 0.0
O360 O 0.70518 0.12351 0.84387 0.0
O361 O 0.63738 0.09303 0.82053 0.0
O362 O 0.65413 0.01584 0.83972 0.0
H363 H 0.53637 0.16162 0.76891 0.0
H364 H 0.70114 0.08319 0.92018 0.0
O365 O 0.64665 0.02526 0.92838 0.0
H366 H 0.77675 0.97542 0.85497 0.0
H367 H 0.68906 0.84964 0.92791 0.0
H368 H 0.61725 0.9347 0.85012 0.0
H369 H 0.71105 0.96835 0.85297 0.0
H370 H 0.68707 0.94553 0.92398 0.0
O371 O 0.66328 0.18542 0.84762 0.0
H372 H 0.5713 0.11139 0.80545 0.0
H373 H 0.61244 0.2515 0.84194 0.0
H374 H 0.61869 0.83874 0.85307 0.0
H375 H 0.76673 0.09127 0.92305 0.0
H376 H 0.65482 0.79559 0.8922 0.0
H377 H 0.80499 0.03724 0.89021 0.0
O378 O 0.59765 0.01604 0.8808 0.0
H379 H 0.63853 0.24103 0.94743 0.0
H380 H 0.5512 0.18199 0.87293 0.0
H381 H 0.5306 0.23454 0.91539 0.0
H382 H 0.57446 0.26444 0.95301 0.0
H383 H 0.65782 0.18788 0.90483 0.0
H384 H 0.57831 0.30328 0.80559 0.0
H385 H 0.53975 0.25827 0.76883 0.0
O386 O 0.57873 0.09136 0.8604 0.0
C387 C 0.64859 0.04628 0.81778 0.0
C388 C 0.55299 0.18168 0.78486 0.0
C389 C 0.57659 0.26118 0.80541 0.0
N390 N 0.59378 0.17852 0.82587 0.0
C391 C 0.57275 0.15347 0.80565 0.0
C392 C 0.596 0.23167 0.82585 0.0
C393 C 0.55494 0.23591 0.7848 0.0
C394 C 0.71763 0.05916 0.90604 0.0
N395 N 0.70231 0.02511 0.88657 0.0
C396 C 0.75474 0.06407 0.90767 0.0
C397 C 0.77619 0.0338 0.88921 0.0
C398 C 0.76036 0.99912 0.86942 0.0
C399 C 0.72315 0.99534 0.86835 0.0
C400 C 0.67331 0.86797 0.91072 0.0
C401 C 0.63323 0.91619 0.86706 0.0
C402 C 0.67203 0.92223 0.90842 0.0
N403 N 0.65235 0.94561 0.88665 0.0
C404 C 0.63385 0.86185 0.86869 0.0
C405 C 0.65409 0.83767 0.89067 0.0
C406 C 0.57311 0.04575 0.87081 0.0
C407 C 0.61916 0.22822 0.9312 0.0
C408 C 0.57033 0.1945 0.88936 0.0
C409 C 0.55858 0.22449 0.91325 0.0
C410 C 0.58321 0.24132 0.93432 0.0
N411 N 0.60557 0.18145 0.88656 0.0
C412 C 0.62993 0.19817 0.907 0.0
Co413 Co 0.34927 0.99024 0.88616 0.0
Co414 Co 0.37906 0.87473 0.85564 0.0
O415 O 0.35084 0.91441 0.88405 0.0
C416 C 0.37278 0.9574 0.94542 0.0
O417 O 0.39591 0.9275 0.93167 0.0
C418 C 0.30478 0.83899 0.84705 0.0
O419 O 0.29638 0.88859 0.84572 0.0
O420 O 0.36145 0.91833 0.82225 0.0
O421 O 0.3475 0.99612 0.84198 0.0
H422 H 0.46322 0.85155 0.76996 0.0
H423 H 0.2974 0.92792 0.92089 0.0
O424 O 0.35142 0.98577 0.93045 0.0
H425 H 0.22432 0.03599 0.85385 0.0
H426 H 0.3084 0.16132 0.929 0.0
H427 H 0.38579 0.0767 0.85486 0.0
H428 H 0.29005 0.04307 0.8536 0.0
H429 H 0.30991 0.06553 0.92441 0.0
O430 O 0.33746 0.82577 0.85024 0.0
H431 H 0.42788 0.90163 0.80628 0.0
H432 H 0.38871 0.76122 0.84395 0.0
H433 H 0.38492 0.17259 0.85848 0.0
H434 H 0.23173 0.91996 0.92206 0.0
H435 H 0.34599 0.21554 0.89577 0.0
H436 H 0.19474 0.97414 0.8883 0.0
O437 O 0.40225 0.99465 0.88469 0.0
H438 H 0.36637 0.76918 0.94875 0.0
H439 H 0.45112 0.83857 0.87508 0.0
H440 H 0.4739 0.78751 0.91734 0.0
H441 H 0.43138 0.75244 0.95455 0.0
H442 H 0.34477 0.82079 0.90628 0.0
H443 H 0.4234 0.70959 0.80789 0.0
H444 H 0.46114 0.75482 0.77066 0.0
O445 O 0.42095 0.92295 0.86075 0.0
C446 C 0.35173 0.96585 0.81982 0.0
C447 C 0.44698 0.8314 0.78614 0.0
C448 C 0.4246 0.75172 0.80741 0.0
N449 N 0.40653 0.83434 0.82736 0.0
C450 C 0.427 0.85953 0.80682 0.0
C451 C 0.40496 0.78114 0.82773 0.0
C452 C 0.44577 0.77712 0.78653 0.0
C453 C 0.28147 0.95204 0.90636 0.0
N454 N 0.29753 0.98612 0.88732 0.0
C455 C 0.2443 0.94722 0.90704 0.0
C456 C 0.22357 0.97758 0.88806 0.0
C457 C 0.24015 0.01224 0.8687 0.0
C458 C 0.27738 0.01597 0.8686 0.0
C459 C 0.32537 0.14309 0.91259 0.0
C460 C 0.36855 0.09513 0.87096 0.0
C461 C 0.32636 0.08888 0.90991 0.0
N462 N 0.34758 0.06561 0.88913 0.0
C463 C 0.36828 0.14943 0.87299 0.0
C464 C 0.34647 0.17349 0.89394 0.0
C465 C 0.42683 0.96711 0.87294 0.0
C466 C 0.38514 0.78413 0.93264 0.0
C467 C 0.43245 0.82346 0.89118 0.0
C468 C 0.4455 0.79451 0.91504 0.0
C469 C 0.42163 0.77481 0.9359 0.0
N470 N 0.39663 0.83242 0.88814 0.0
C471 C 0.37305 0.81317 0.90847 0.0
Co472 Co 0.85651 0.52267 0.38353 0.0
Co473 Co 0.88574 0.63496 0.34939 0.0
O474 O 0.85784 0.59828 0.37931 0.0
C475 C 0.87851 0.56083 0.44222 0.0
O476 O 0.90139 0.58957 0.4275 0.0
C477 C 0.81215 0.67528 0.34204 0.0
O478 O 0.80205 0.62631 0.34124 0.0
O479 O 0.8654 0.5908 0.31749 0.0
O480 O 0.856 0.51315 0.33914 0.0
H481 H 0.96561 0.64921 0.26033 0.0
H482 H 0.80336 0.58746 0.41534 0.0
O483 O 0.85743 0.5308 0.42799 0.0
H484 H 0.73283 0.47284 0.35007 0.0
H485 H 0.8154 0.35488 0.43007 0.0
H486 H 0.89379 0.43415 0.35481 0.0
H487 H 0.79858 0.46636 0.35139 0.0
H488 H 0.81711 0.45033 0.42347 0.0
O489 O 0.84528 0.68615 0.3446 0.0
H490 H 0.93079 0.60294 0.29852 0.0
H491 H 0.8985 0.74721 0.33606 0.0
H492 H 0.8927 0.33853 0.36043 0.0
H493 H 0.73762 0.59502 0.41489 0.0
H494 H 0.85325 0.2983 0.39828 0.0
H495 H 0.70193 0.53753 0.38201 0.0
O496 O 0.90954 0.51878 0.38341 0.0
H497 H 0.88025 0.74655 0.44072 0.0
H498 H 0.95969 0.66663 0.36635 0.0
H499 H 0.98577 0.71794 0.40713 0.0
H500 H 0.94594 0.75835 0.44467 0.0
H501 H 0.85531 0.69433 0.39982 0.0
H502 H 0.93271 0.7951 0.29812 0.0
H503 H 0.96675 0.74598 0.26 0.0
O504 O 0.92666 0.58459 0.35366 0.0
C505 C 0.85785 0.54236 0.31619 0.0
C506 C 0.95098 0.67104 0.27688 0.0
C507 C 0.93247 0.75292 0.29806 0.0
N508 N 0.91282 0.67237 0.3196 0.0
C509 C 0.93128 0.64506 0.2986 0.0
C510 C 0.91306 0.72562 0.31944 0.0
C511 C 0.95157 0.72534 0.27669 0.0
C512 C 0.78797 0.56197 0.4012 0.0
N513 N 0.80475 0.52636 0.38352 0.0
C514 C 0.75077 0.56657 0.40095 0.0
C515 C 0.73076 0.53436 0.38245 0.0
C516 C 0.74809 0.49808 0.36451 0.0
C517 C 0.78533 0.49467 0.3653 0.0
C518 C 0.83258 0.37193 0.41341 0.0
C519 C 0.87636 0.41687 0.37116 0.0
C520 C 0.83368 0.42592 0.40959 0.0
N521 N 0.85512 0.44765 0.38846 0.0
C522 C 0.87595 0.36274 0.37432 0.0
C523 C 0.85383 0.3402 0.39558 0.0
C524 C 0.93313 0.54359 0.36878 0.0
C525 C 0.89787 0.72932 0.42443 0.0
C526 C 0.94218 0.68401 0.38262 0.0
C527 C 0.9571 0.71314 0.40562 0.0
C528 C 0.93474 0.73586 0.42665 0.0
N529 N 0.90599 0.67769 0.38061 0.0
C530 C 0.88389 0.69993 0.40112 0.0
Co531 Co 0.15449 0.48492 0.38489 0.0
Co532 Co 0.12535 0.37063 0.35308 0.0
O533 O 0.15298 0.409 0.3825 0.0
C534 C 0.13246 0.45154 0.44438 0.0
O535 O 0.10908 0.42183 0.43083 0.0
C536 C 0.19878 0.32869 0.34724 0.0
O537 O 0.2094 0.37738 0.34581 0.0
O538 O 0.14665 0.41219 0.32062 0.0
O539 O 0.1551 0.49148 0.34061 0.0
H540 H 0.04757 0.35176 0.263 0.0
H541 H 0.20748 0.42247 0.41843 0.0
O542 O 0.15356 0.47992 0.42921 0.0
H543 H 0.27838 0.53189 0.35063 0.0
H544 H 0.19564 0.65574 0.42772 0.0
H545 H 0.1177 0.57149 0.35385 0.0
H546 H 0.21262 0.53846 0.35148 0.0
H547 H 0.1941 0.55997 0.42306 0.0
O548 O 0.16553 0.31863 0.34981 0.0
H549 H 0.08175 0.39995 0.30084 0.0
H550 H 0.11178 0.25777 0.34206 0.0
H551 H 0.11866 0.66741 0.3575 0.0
H552 H 0.27321 0.41496 0.41849 0.0
H553 H 0.15783 0.71014 0.39468 0.0
H554 H 0.30909 0.46982 0.38434 0.0
O555 O 0.1015 0.48894 0.3846 0.0
H556 H 0.12851 0.26514 0.44676 0.0
H557 H 0.05091 0.34081 0.36963 0.0
H558 H 0.0238 0.29226 0.41103 0.0
H559 H 0.0627 0.25399 0.44996 0.0
H560 H 0.15448 0.3145 0.40516 0.0
H561 H 0.0782 0.20796 0.30453 0.0
H562 H 0.04561 0.25507 0.26473 0.0
O563 O 0.08464 0.42177 0.35576 0.0
C564 C 0.15419 0.46047 0.31849 0.0
C565 C 0.06157 0.3308 0.28028 0.0
C566 C 0.0788 0.25009 0.30356 0.0
N567 N 0.09856 0.33168 0.32373 0.0
C568 C 0.08089 0.35787 0.30181 0.0
C569 C 0.09786 0.27847 0.32471 0.0
C570 C 0.06052 0.27654 0.28124 0.0
C571 C 0.22294 0.44684 0.40372 0.0
N572 N 0.20625 0.48102 0.38508 0.0
C573 C 0.26014 0.44226 0.40376 0.0
C574 C 0.28025 0.47299 0.38456 0.0
C575 C 0.26303 0.5078 0.36563 0.0
C576 C 0.22579 0.51126 0.36616 0.0
C577 C 0.17852 0.6376 0.41139 0.0
C578 C 0.13501 0.58984 0.36992 0.0
C579 C 0.17748 0.58339 0.40871 0.0
N580 N 0.15605 0.56023 0.38805 0.0
C581 C 0.13535 0.64415 0.37196 0.0
C582 C 0.15731 0.66809 0.39284 0.0
C583 C 0.07802 0.46349 0.3702 0.0
C584 C 0.11129 0.28149 0.42989 0.0
C585 C 0.06802 0.32437 0.38651 0.0
C586 C 0.05252 0.29682 0.40987 0.0
C587 C 0.07436 0.27532 0.43169 0.0
N588 N 0.10427 0.33028 0.38491 0.0
C589 C 0.12586 0.30924 0.40619 0.0
Co590 Co 0.85702 0.48138 0.13046 0.0
Co591 Co 0.88403 0.36352 0.16013 0.0
O592 O 0.85691 0.40547 0.13204 0.0
C593 C 0.88177 0.44769 0.07166 0.0
O594 O 0.9037 0.41742 0.08644 0.0
C595 C 0.809 0.33154 0.16852 0.0
O596 O 0.80169 0.3815 0.1699 0.0
O597 O 0.86771 0.4074 0.19388 0.0
O598 O 0.85393 0.48591 0.17483 0.0
H599 H 0.96787 0.3338 0.2454 0.0
H600 H 0.80512 0.42182 0.09415 0.0
O601 O 0.86057 0.47762 0.08588 0.0
H602 H 0.73201 0.53139 0.16033 0.0
H603 H 0.82164 0.65499 0.08762 0.0
H604 H 0.89238 0.5656 0.16454 0.0
H605 H 0.79784 0.53584 0.16204 0.0
H606 H 0.82176 0.55899 0.09102 0.0
O607 O 0.84132 0.31678 0.1653 0.0
H608 H 0.93346 0.38658 0.20971 0.0
H609 H 0.89081 0.24926 0.17096 0.0
H610 H 0.89282 0.66164 0.16211 0.0
H611 H 0.73937 0.41643 0.09155 0.0
H612 H 0.85724 0.70695 0.12342 0.0
H613 H 0.70238 0.47139 0.12486 0.0
O614 O 0.91008 0.48401 0.13332 0.0
H615 H 0.86766 0.26204 0.06595 0.0
H616 H 0.95466 0.32174 0.14049 0.0
H617 H 0.97563 0.27047 0.09772 0.0
H618 H 0.93193 0.24014 0.06008 0.0
H619 H 0.84797 0.31393 0.10892 0.0
H620 H 0.92443 0.19496 0.20648 0.0
H621 H 0.96349 0.23727 0.2439 0.0
O622 O 0.92703 0.40947 0.15534 0.0
C623 C 0.85803 0.45485 0.19675 0.0
C624 C 0.95104 0.31491 0.22913 0.0
C625 C 0.92663 0.23699 0.2073 0.0
N626 N 0.91048 0.32099 0.18807 0.0
C627 C 0.93159 0.34457 0.2088 0.0
C628 C 0.9076 0.26792 0.1873 0.0
C629 C 0.94854 0.26075 0.2283 0.0
C630 C 0.78919 0.44628 0.10848 0.0
N631 N 0.80528 0.47937 0.12807 0.0
C632 C 0.75198 0.44291 0.10699 0.0
C633 C 0.73124 0.47371 0.12572 0.0
C634 C 0.74785 0.50734 0.14565 0.0
C635 C 0.78513 0.50962 0.14655 0.0
C636 C 0.83716 0.6357 0.10462 0.0
C637 C 0.87661 0.58507 0.1478 0.0
C638 C 0.83737 0.58138 0.10663 0.0
N639 N 0.85675 0.55681 0.12816 0.0
C640 C 0.87707 0.63944 0.14646 0.0
C641 C 0.85714 0.66483 0.12473 0.0
C642 C 0.93393 0.45441 0.14455 0.0
C643 C 0.88694 0.27489 0.08225 0.0
C644 C 0.93556 0.30898 0.12415 0.0
C645 C 0.94754 0.27974 0.10003 0.0
C646 C 0.92301 0.26267 0.07895 0.0
N647 N 0.90016 0.32087 0.12723 0.0
C648 C 0.87593 0.30415 0.10668 0.0
Co649 Co 0.15809 0.51574 0.13294 0.0
Co650 Co 0.12495 0.63129 0.16135 0.0
O651 O 0.15402 0.59143 0.13372 0.0
C652 C 0.13115 0.54489 0.07388 0.0
O653 O 0.1079 0.57427 0.08784 0.0
C654 C 0.19875 0.66755 0.17089 0.0
O655 O 0.2072 0.61798 0.17213 0.0
O656 O 0.14162 0.5885 0.19553 0.0
O657 O 0.16249 0.51312 0.17701 0.0
H658 H 0.03753 0.65504 0.24471 0.0
H659 H 0.20546 0.58049 0.09526 0.0
O660 O 0.15336 0.51759 0.08866 0.0
H661 H 0.28635 0.48096 0.16039 0.0
H662 H 0.20157 0.34574 0.09045 0.0
H663 H 0.13085 0.42841 0.1696 0.0
H664 H 0.22108 0.46899 0.16354 0.0
H665 H 0.19606 0.4414 0.09317 0.0
O666 O 0.16612 0.68071 0.16739 0.0
H667 H 0.0744 0.60471 0.20956 0.0
H668 H 0.11459 0.74488 0.17234 0.0
H669 H 0.1357 0.33265 0.16791 0.0
H670 H 0.27058 0.59335 0.09119 0.0
H671 H 0.1713 0.29064 0.12807 0.0
H672 H 0.3115 0.54346 0.12396 0.0
O673 O 0.10522 0.50701 0.13682 0.0
H674 H 0.14008 0.73435 0.06758 0.0
H675 H 0.05349 0.66713 0.14042 0.0
H676 H 0.03176 0.71684 0.09726 0.0
H677 H 0.07522 0.7508 0.06046 0.0
H678 H 0.16059 0.68408 0.11094 0.0
H679 H 0.0784 0.79676 0.20726 0.0
H680 H 0.03937 0.75177 0.24366 0.0
O681 O 0.08379 0.58243 0.15542 0.0
C682 C 0.15498 0.54301 0.19873 0.0
C683 C 0.05433 0.67509 0.22887 0.0
C684 C 0.07731 0.75463 0.20788 0.0
N685 N 0.09636 0.67186 0.18877 0.0
C686 C 0.07518 0.64681 0.20886 0.0
C687 C 0.0978 0.72507 0.18822 0.0
C688 C 0.05541 0.72937 0.2283 0.0
C689 C 0.2231 0.55826 0.10941 0.0
N690 N 0.20947 0.52383 0.12953 0.0
C691 C 0.25995 0.56585 0.10707 0.0
C692 C 0.28289 0.53788 0.12548 0.0
C693 C 0.26879 0.50286 0.14596 0.0
C694 C 0.2318 0.49634 0.1477 0.0
C695 C 0.18584 0.36353 0.10784 0.0
C696 C 0.14613 0.41042 0.15212 0.0
C697 C 0.18246 0.41768 0.10938 0.0
N698 N 0.16275 0.44045 0.13133 0.0
C699 C 0.1489 0.35617 0.15131 0.0
C700 C 0.16889 0.33265 0.12896 0.0
C701 C 0.07967 0.53571 0.14621 0.0
C702 C 0.12089 0.71986 0.0835 0.0
C703 C 0.07254 0.68173 0.12448 0.0
C704 C 0.06009 0.70994 0.10012 0.0
C705 C 0.08449 0.72901 0.07949 0.0
N706 N 0.10827 0.67285 0.12823 0.0
C707 C 0.13236 0.69156 0.10816 0.0
Co708 Co 0.15404 0.48759 0.63291 0.0
Co709 Co 0.12583 0.37144 0.66355 0.0
O710 O 0.15342 0.41168 0.63498 0.0
C711 C 0.13219 0.45349 0.57354 0.0
O712 O 0.10955 0.42285 0.58727 0.0
C713 C 0.20018 0.33573 0.67124 0.0
O714 O 0.20839 0.38534 0.67294 0.0
O715 O 0.14418 0.41437 0.69677 0.0
O716 O 0.15498 0.49341 0.67718 0.0
H717 H 0.04403 0.34658 0.75061 0.0
H718 H 0.20735 0.42676 0.59874 0.0
O719 O 0.15271 0.48302 0.58856 0.0
H720 H 0.27777 0.53644 0.66676 0.0
H721 H 0.19305 0.6598 0.59053 0.0
H722 H 0.11682 0.57298 0.66463 0.0
H723 H 0.21195 0.54177 0.66625 0.0
H724 H 0.19238 0.56393 0.59471 0.0
O725 O 0.16756 0.3224 0.66804 0.0
H726 H 0.0784 0.39739 0.71403 0.0
H727 H 0.11637 0.25774 0.67452 0.0
H728 H 0.11692 0.66897 0.66145 0.0
H729 H 0.27314 0.42056 0.59832 0.0
H730 H 0.15524 0.71299 0.62417 0.0
H731 H 0.30878 0.47554 0.63258 0.0
O732 O 0.10099 0.49064 0.63362 0.0
H733 H 0.13634 0.26744 0.56969 0.0
H734 H 0.05325 0.33673 0.64475 0.0
H735 H 0.02943 0.28728 0.60231 0.0
H736 H 0.07111 0.25223 0.56441 0.0
H737 H 0.15898 0.31765 0.6123 0.0
H738 H 0.08263 0.20538 0.71082 0.0
H739 H 0.04597 0.24987 0.74911 0.0
O740 O 0.08386 0.41981 0.6595 0.0
C741 C 0.15248 0.46238 0.6992 0.0
C742 C 0.05979 0.32676 0.73396 0.0
C743 C 0.08149 0.2475 0.71165 0.0
N744 N 0.09907 0.33052 0.69201 0.0
C745 C 0.07921 0.35531 0.71314 0.0
C746 C 0.10058 0.27733 0.69119 0.0
C747 C 0.06092 0.27249 0.73313 0.0
C748 C 0.2227 0.45124 0.61348 0.0
N749 N 0.20584 0.48479 0.63237 0.0
C750 C 0.25993 0.44741 0.61322 0.0
C751 C 0.27992 0.47822 0.63249 0.0
C752 C 0.26253 0.51234 0.6517 0.0
C753 C 0.22525 0.5151 0.65136 0.0
C754 C 0.17631 0.64109 0.60691 0.0
C755 C 0.13377 0.5919 0.64852 0.0
C756 C 0.17576 0.58683 0.60933 0.0
N757 N 0.15483 0.56297 0.63007 0.0
C758 C 0.13362 0.64624 0.64675 0.0
C759 C 0.15509 0.67091 0.6258 0.0
C760 C 0.07739 0.46292 0.64643 0.0
C761 C 0.11793 0.28234 0.58612 0.0
C762 C 0.07156 0.32163 0.62835 0.0
C763 C 0.05792 0.29358 0.60439 0.0
C764 C 0.08132 0.2739 0.58314 0.0
N765 N 0.1075 0.32983 0.63108 0.0
C766 C 0.13061 0.31055 0.61038 0.0
Co767 Co 0.85558 0.52149 0.63035 0.0
Co768 Co 0.88485 0.63368 0.66459 0.0
O769 O 0.85706 0.59709 0.63458 0.0
C770 C 0.87856 0.55947 0.57186 0.0
O771 O 0.90178 0.58736 0.58675 0.0
C772 C 0.81126 0.67404 0.67165 0.0
O773 O 0.80107 0.6251 0.67236 0.0
O774 O 0.86444 0.58935 0.69641 0.0
O775 O 0.85458 0.51185 0.6747 0.0
H776 H 0.96425 0.64762 0.75399 0.0
H777 H 0.80295 0.58664 0.5981 0.0
O778 O 0.85703 0.52984 0.58591 0.0
H779 H 0.73142 0.47235 0.66278 0.0
H780 H 0.81456 0.35418 0.58321 0.0
H781 H 0.89254 0.43263 0.65906 0.0
H782 H 0.79717 0.46552 0.662 0.0
H783 H 0.8163 0.44957 0.59008 0.0
O784 O 0.84441 0.68482 0.66932 0.0
H785 H 0.92957 0.60151 0.71564 0.0
H786 H 0.89762 0.74591 0.67805 0.0
H787 H 0.89142 0.33707 0.65315 0.0
H788 H 0.73723 0.59454 0.59802 0.0
H789 H 0.85217 0.29725 0.615 0.0
H790 H 0.70103 0.53722 0.6306 0.0
O791 O 0.90855 0.51719 0.63102 0.0
H792 H 0.87957 0.7455 0.57333 0.0
H793 H 0.9588 0.66583 0.64799 0.0
H794 H 0.98496 0.71764 0.60745 0.0
H795 H 0.94523 0.75793 0.56977 0.0
H796 H 0.85455 0.69289 0.61403 0.0
H797 H 0.93165 0.79365 0.71617 0.0
H798 H 0.96545 0.74439 0.7544 0.0
O799 O 0.92578 0.58344 0.66032 0.0
C800 C 0.85662 0.54099 0.69767 0.0
C801 C 0.94973 0.66952 0.73739 0.0
C802 C 0.93139 0.75148 0.71619 0.0
N803 N 0.91183 0.67101 0.6945 0.0
C804 C 0.93013 0.64363 0.71557 0.0
C805 C 0.91209 0.72426 0.69471 0.0
C806 C 0.95036 0.72382 0.73763 0.0
C807 C 0.78734 0.56121 0.61211 0.0
N808 N 0.80384 0.5255 0.62992 0.0
C809 C 0.75016 0.56601 0.61206 0.0
C810 C 0.72986 0.5339 0.63039 0.0
C811 C 0.7469 0.49752 0.64847 0.0
C812 C 0.78414 0.4939 0.64798 0.0
C813 C 0.83163 0.37105 0.6 0.0
C814 C 0.87517 0.41553 0.6426 0.0
C815 C 0.83273 0.425 0.60399 0.0
N816 N 0.85404 0.44651 0.6253 0.0
C817 C 0.87476 0.36143 0.63927 0.0
C818 C 0.85275 0.33913 0.61784 0.0
C819 C 0.93227 0.54214 0.64546 0.0
C820 C 0.89714 0.72833 0.58969 0.0
C821 C 0.94133 0.68316 0.63166 0.0
C822 C 0.9563 0.71256 0.60879 0.0
C823 C 0.93399 0.73522 0.58768 0.0
N824 N 0.90516 0.67656 0.63347 0.0
C825 C 0.88312 0.69869 0.61287 0.0
Co826 Co 0.156 0.51976 0.88503 0.0
Co827 Co 0.12256 0.63407 0.85559 0.0
O828 O 0.15202 0.59548 0.88365 0.0
C829 C 0.13126 0.54892 0.94463 0.0
O830 O 0.10732 0.57789 0.93118 0.0
C831 C 0.19564 0.6756 0.84715 0.0
O832 O 0.20612 0.62683 0.84565 0.0
O833 O 0.14133 0.59263 0.82171 0.0
O834 O 0.1582 0.51566 0.84085 0.0
H835 H 0.03748 0.65402 0.77022 0.0
H836 H 0.2054 0.58485 0.92056 0.0
O837 O 0.15347 0.52249 0.92937 0.0
H838 H 0.28262 0.48375 0.85324 0.0
H839 H 0.20194 0.35016 0.92628 0.0
H840 H 0.12352 0.43204 0.85183 0.0
H841 H 0.21724 0.4719 0.85255 0.0
H842 H 0.19712 0.44588 0.92294 0.0
O843 O 0.16251 0.68592 0.85051 0.0
H844 H 0.07465 0.60535 0.80592 0.0
H845 H 0.10866 0.7471 0.84534 0.0
H846 H 0.12777 0.33622 0.85416 0.0
H847 H 0.2707 0.59764 0.92217 0.0
H848 H 0.1672 0.29465 0.89162 0.0
H849 H 0.30976 0.54701 0.88825 0.0
O850 O 0.10316 0.51153 0.88323 0.0
H851 H 0.13266 0.73806 0.94948 0.0
H852 H 0.04957 0.66492 0.87565 0.0
H853 H 0.02557 0.71336 0.91841 0.0
H854 H 0.06725 0.75034 0.9557 0.0
H855 H 0.1555 0.68893 0.90654 0.0
H856 H 0.07221 0.79738 0.80986 0.0
H857 H 0.03612 0.75073 0.77205 0.0
O858 O 0.08229 0.58306 0.86035 0.0
C859 C 0.15275 0.54598 0.8189 0.0
C860 C 0.05303 0.67477 0.78662 0.0
C861 C 0.07256 0.75524 0.80884 0.0
N862 N 0.09367 0.67338 0.82776 0.0
C863 C 0.07405 0.64744 0.80694 0.0
C864 C 0.09326 0.7266 0.8288 0.0
C865 C 0.0523 0.72905 0.78765 0.0
C866 C 0.22226 0.5623 0.90594 0.0
N867 N 0.20753 0.52753 0.88655 0.0
C868 C 0.2592 0.56987 0.90686 0.0
C869 C 0.28109 0.54151 0.8878 0.0
C870 C 0.26588 0.50604 0.86813 0.0
C871 C 0.22883 0.49958 0.86778 0.0
C872 C 0.18471 0.3678 0.90983 0.0
C873 C 0.14091 0.41424 0.86806 0.0
C874 C 0.1818 0.42196 0.9079 0.0
N875 N 0.16023 0.4445 0.8871 0.0
C876 C 0.14313 0.35996 0.86933 0.0
C877 C 0.16522 0.33667 0.89037 0.0
C878 C 0.07776 0.53801 0.87185 0.0
C879 C 0.11424 0.72225 0.93335 0.0
C880 C 0.06787 0.68079 0.89181 0.0
C881 C 0.05413 0.70829 0.91594 0.0
C882 C 0.07753 0.72906 0.93684 0.0
N883 N 0.10391 0.67427 0.88853 0.0
C884 C 0.12702 0.69459 0.90891 0.0
Co885 Co 0.85513 0.47997 0.88329 0.0
Co886 Co 0.88393 0.36248 0.85399 0.0
O887 O 0.8561 0.404 0.88179 0.0
C888 C 0.88081 0.44683 0.942 0.0
O889 O 0.90262 0.41651 0.92716 0.0
C890 C 0.80891 0.33086 0.84414 0.0
O891 O 0.80163 0.38085 0.84309 0.0
O892 O 0.86874 0.4072 0.82014 0.0
O893 O 0.85141 0.4843 0.83902 0.0
H894 H 0.97034 0.33469 0.77034 0.0
H895 H 0.80463 0.41871 0.92003 0.0
O896 O 0.85934 0.47648 0.92785 0.0
H897 H 0.72903 0.52575 0.85438 0.0
H898 H 0.81783 0.65244 0.92646 0.0
H899 H 0.88836 0.56533 0.84865 0.0
H900 H 0.79474 0.53254 0.85224 0.0
H901 H 0.81942 0.55647 0.92311 0.0
O902 O 0.8412 0.31605 0.84761 0.0
H903 H 0.93552 0.38657 0.80618 0.0
H904 H 0.88999 0.24851 0.84167 0.0
H905 H 0.88734 0.66135 0.85102 0.0
H906 H 0.73902 0.41094 0.92303 0.0
H907 H 0.85186 0.70553 0.89016 0.0
H908 H 0.70077 0.46461 0.88998 0.0
O909 O 0.90812 0.48425 0.8799 0.0
H910 H 0.86513 0.26151 0.94805 0.0
H911 H 0.95328 0.31642 0.87325 0.0
H912 H 0.97319 0.26447 0.91619 0.0
H913 H 0.9289 0.23666 0.95397 0.0
H914 H 0.84656 0.31407 0.90497 0.0
H915 H 0.92402 0.19515 0.80601 0.0
H916 H 0.96471 0.23827 0.77013 0.0
O917 O 0.92699 0.4081 0.86042 0.0
C918 C 0.85735 0.45383 0.81716 0.0
C919 C 0.95281 0.31545 0.78594 0.0
C920 C 0.92676 0.23713 0.80593 0.0
N921 N 0.91104 0.32055 0.82618 0.0
C922 C 0.93313 0.34459 0.80636 0.0
C923 C 0.90749 0.26754 0.82601 0.0
C924 C 0.9496 0.26134 0.78581 0.0
C925 C 0.78815 0.44262 0.90581 0.0
N926 N 0.80348 0.47631 0.88614 0.0
C927 C 0.75102 0.4379 0.90752 0.0
C928 C 0.72957 0.46798 0.88894 0.0
C929 C 0.74541 0.50225 0.86894 0.0
C930 C 0.78263 0.50588 0.86781 0.0
C931 C 0.83333 0.63365 0.90927 0.0
C932 C 0.8727 0.58429 0.86562 0.0
C933 C 0.83438 0.57934 0.90731 0.0
N934 N 0.85373 0.55539 0.88555 0.0
C935 C 0.8723 0.63866 0.86691 0.0
C936 C 0.85242 0.66342 0.88889 0.0
C937 C 0.93268 0.4541 0.87034 0.0
C938 C 0.88468 0.27343 0.93176 0.0
C939 C 0.93399 0.30487 0.88976 0.0
C940 C 0.94534 0.27518 0.91392 0.0
C941 C 0.92047 0.25952 0.93507 0.0
N942 N 0.89893 0.31877 0.88679 0.0
C943 C 0.87432 0.30313 0.90729 0.0
C944 C 0.3987 0.07499 0.49448 0.0
C945 C 0.37493 0.04342 0.47831 0.0
C946 C 0.39884 0.07487 0.52549 0.0
C947 C 0.37521 0.04321 0.54173 0.0
H948 H 0.41749 0.10015 0.48316 0.0
H949 H 0.4177 0.10002 0.53674 0.0
S950 S 0.30712 0.95373 0.51012 0.0
N951 N 0.32674 0.9799 0.481 0.0
N952 N 0.32701 0.97969 0.53918 0.0
C953 C 0.35111 0.01161 0.52587 0.0
C954 C 0.35097 0.01172 0.49424 0.0
C955 C 0.60868 0.91773 0.52245 0.0
C956 C 0.63078 0.9515 0.53883 0.0
C957 C 0.60887 0.91782 0.4914 0.0
C958 C 0.63117 0.95166 0.47527 0.0
H959 H 0.5909 0.89089 0.53363 0.0
H960 H 0.59122 0.89102 0.48003 0.0
S961 S 0.69488 0.04724 0.50741 0.0
N962 N 0.67614 0.01932 0.53641 0.0
N963 N 0.67649 0.01947 0.4782 0.0
C964 C 0.6537 0.98537 0.49134 0.0
C965 C 0.65351 0.98529 0.52302 0.0
C966 C 0.39631 0.92747 0.02546 0.0
C967 C 0.37248 0.95886 0.04172 0.0
C968 C 0.39602 0.92717 0.99446 0.0
C969 C 0.3719 0.95826 0.9783 0.0
H970 H 0.41547 0.90273 0.0367 0.0
H971 H 0.41501 0.90229 0.98313 0.0
S972 S 0.30332 0.04684 0.01015 0.0
N973 N 0.32362 0.02144 0.0392 0.0
N974 N 0.32307 0.02088 0.98102 0.0
C975 C 0.34769 0.98961 0.99424 0.0
C976 C 0.34798 0.98991 0.02588 0.0
C977 C 0.64562 0.02036 0.99161 0.0
C978 C 0.62478 0.056 0.97531 0.0
C979 C 0.64543 0.02032 0.02272 0.0
C980 C 0.62437 0.05591 0.03886 0.0
H981 H 0.66213 0.99195 0.9803 0.0
H982 H 0.66179 0.99187 0.03415 0.0
S983 S 0.56608 0.15898 1.00685 0.0
N984 N 0.58323 0.12898 0.97785 0.0
N985 N 0.58286 0.1289 0.03599 0.0
C986 C 0.6037 0.09217 0.02282 0.0
C987 C 0.6039 0.09221 0.99118 0.0
C988 C 0.85662 0.52688 0.5225 0.0
C989 C 0.87805 0.56164 0.53886 0.0
C990 C 0.85661 0.52721 0.49136 0.0
C991 C 0.878 0.56233 0.47523 0.0
H992 H 0.83997 0.49866 0.53378 0.0
H993 H 0.83993 0.49924 0.4799 0.0
S994 S 0.9376 0.66347 0.50739 0.0
N995 N 0.92031 0.6336 0.53636 0.0
N996 N 0.92029 0.63422 0.47821 0.0
C997 C 0.8991 0.59792 0.49134 0.0
C998 C 0.89912 0.59758 0.523 0.0
C999 C 0.1096 0.4221 0.52458 0.0
C1000 C 0.13349 0.45359 0.54067 0.0
C1001 C 0.10969 0.42157 0.49358 0.0
C1002 C 0.1337 0.45249 0.47725 0.0
H1003 H 0.09042 0.39763 0.53594 0.0
H1004 H 0.09058 0.39674 0.48239 0.0
S1005 S 0.20243 0.54116 0.50866 0.0
N1006 N 0.18233 0.51601 0.53786 0.0
N1007 N 0.18253 0.51502 0.47965 0.0
C1008 C 0.158 0.48389 0.49304 0.0
C1009 C 0.15789 0.48445 0.52468 0.0
C1010 C 0.86042 0.48198 0.99128 0.0
C1011 C 0.88115 0.44614 0.97501 0.0
C1012 C 0.86066 0.48219 0.02242 0.0
C1013 C 0.88165 0.44658 0.03865 0.0
H1014 H 0.84395 0.51037 0.97991 0.0
H1015 H 0.84436 0.51074 0.03383 0.0
S1016 S 0.93971 0.34312 1.00676 0.0
N1017 N 0.92257 0.37302 0.97772 0.0
N1018 N 0.92304 0.37344 0.03584 0.0
C1019 C 0.90223 0.41018 0.02263 0.0
C1020 C 0.90198 0.40996 0.99098 0.0
C1021 C 0.10791 0.57631 0.02504 0.0
C1022 C 0.13197 0.54474 0.04097 0.0
C1023 C 0.10802 0.57742 0.99403 0.0
C1024 C 0.13219 0.54702 0.97752 0.0
H1025 H 0.08874 0.60062 0.03656 0.0
H1026 H 0.08889 0.60248 0.98297 0.0
S1027 S 0.2012 0.45803 1.00842 0.0
N1028 N 0.18101 0.48255 0.03774 0.0
N1029 N 0.1812 0.48462 0.97957 0.0
C1030 C 0.15657 0.5154 0.99313 0.0
C1031 C 0.15646 0.51426 0.02477 0.0
C1032 C 0.53039 0.02696 0.36224 0.0
C1033 C 0.53876 0.97613 0.37156 0.0
C1034 C 0.49505 0.04539 0.36255 0.0
C1035 C 0.46664 0.01402 0.37274 0.0
H1036 H 0.55125 0.05248 0.35414 0.0
H1037 H 0.49009 0.08462 0.35472 0.0
S1038 S 0.4754 0.87883 0.40176 0.0
N1039 N 0.51646 0.89554 0.39251 0.0
N1040 N 0.45022 0.92971 0.39367 0.0
C1041 C 0.47501 0.96329 0.38276 0.0
C1042 C 0.51096 0.94448 0.382 0.0
C1043 C 0.49132 0.95755 0.13511 0.0
C1044 C 0.46297 0.98758 0.14627 0.0
C1045 C 0.52636 0.97695 0.13464 0.0
C1046 C 0.53459 0.02695 0.14575 0.0
H1047 H 0.48634 0.91898 0.12631 0.0
H1048 H 0.54714 0.95224 0.12558 0.0
S1049 S 0.46959 0.11917 0.17964 0.0
N1050 N 0.44526 0.06846 0.16981 0.0
N1051 N 0.51085 0.10489 0.16965 0.0
C1052 C 0.50629 0.0569 0.15752 0.0
C1053 C 0.47058 0.03727 0.15756 0.0
C1054 C 0.52852 0.02624 0.63513 0.0
C1055 C 0.53684 0.9757 0.64542 0.0
C1056 C 0.49343 0.04556 0.63583 0.0
C1057 C 0.46506 0.01495 0.64638 0.0
H1058 H 0.54927 0.05153 0.62663 0.0
H1059 H 0.48844 0.08458 0.62767 0.0
S1060 S 0.47182 0.88135 0.67712 0.0
N1061 N 0.51313 0.89633 0.66764 0.0
N1062 N 0.44741 0.93258 0.66819 0.0
C1063 C 0.47274 0.96459 0.65671 0.0
C1064 C 0.50853 0.94503 0.65647 0.0
C1065 C 0.52768 0.97639 0.86123 0.0
C1066 C 0.53595 0.02637 0.87193 0.0
C1067 C 0.49245 0.95756 0.86166 0.0
C1068 C 0.46415 0.98765 0.8733 0.0
H1069 H 0.5485 0.95199 0.85197 0.0
H1070 H 0.48746 0.9191 0.8527 0.0
S1071 S 0.47307 0.11964 0.90672 0.0
N1072 N 0.51392 0.10432 0.89608 0.0
N1073 N 0.44791 0.06949 0.89738 0.0
C1074 C 0.47252 0.03736 0.88483 0.0
C1075 C 0.50833 0.05656 0.884 0.0
C1076 C 0.98767 0.51068 0.34304 0.0
C1077 C 0.97006 0.52376 0.36951 0.0
C1078 C 0.02246 0.49005 0.34344 0.0
C1079 C 0.04107 0.48355 0.37026 0.0
H1080 H 0.97422 0.51561 0.32197 0.0
H1081 H 0.03513 0.47999 0.32264 0.0
S1082 S 0.00683 0.51291 0.44544 0.0
N1083 N 0.97347 0.5284 0.42313 0.0
N1084 N 0.03945 0.49206 0.42382 0.0
C1085 C 0.02388 0.49722 0.39679 0.0
C1086 C 0.98817 0.5167 0.39643 0.0
C1087 C 0.0141 0.54513 0.13681 0.0
C1088 C 0.04301 0.51403 0.14591 0.0
C1089 C 0.97917 0.52534 0.13618 0.0
C1090 C 0.97154 0.47378 0.1451 0.0
H1091 H 0.01855 0.5849 0.12971 0.0
H1092 H 0.95798 0.55101 0.12878 0.0
S1093 S 0.03807 0.37779 0.17302 0.0
N1094 N 0.06182 0.43009 0.16512 0.0
N1095 N 0.99642 0.39297 0.16467 0.0
C1096 C 1.00036 0.44266 0.15481 0.0
C1097 C 0.03597 0.46271 0.15499 0.0
C1098 C 0.99097 0.52648 0.67053 0.0
C1099 C 0.96929 0.52181 0.64517 0.0
C1100 C 0.02587 0.50636 0.67098 0.0
C1101 C 0.04037 0.48188 0.64592 0.0
H1102 H 0.98074 0.54512 0.69031 0.0
H1103 H 0.04176 0.51044 0.69091 0.0
S1104 S 0.99569 0.46156 0.57372 0.0
N1105 N 0.96538 0.49143 0.59421 0.0
N1106 N 0.03128 0.45488 0.59503 0.0
C1107 C 0.01935 0.47749 0.62038 0.0
C1108 C 0.98367 0.49711 0.62001 0.0
C1109 C 0.01167 0.54587 0.86256 0.0
C1110 C 0.04098 0.51547 0.87198 0.0
C1111 C 0.97681 0.52575 0.8623 0.0
C1112 C 0.9698 0.4741 0.8709 0.0
H1113 H 0.01551 0.58572 0.85535 0.0
H1114 H 0.95522 0.5507 0.85489 0.0
S1115 S 0.03609 0.37843 0.89866 0.0
N1116 N 0.05985 0.43094 0.89119 0.0
N1117 N 0.99448 0.39355 0.89015 0.0
C1118 C 0.99856 0.44327 0.88045 0.0
C1119 C 0.03406 0.46383 0.88116 0.0
C1120 C 0.26243 0.29752 0.34569 0.0
C1121 C 0.22568 0.28572 0.34673 0.0
C1122 C 0.28849 0.2581 0.34579 0.0
C1123 C 0.27902 0.20502 0.34683 0.0
H1124 H 0.27134 0.33765 0.345 0.0
H1125 H 0.31634 0.26952 0.34513 0.0
S1126 S 0.18646 0.1528 0.34994 0.0
N1127 N 0.18123 0.21662 0.34894 0.0
N1128 N 0.23 0.14281 0.34897 0.0
C1129 C 0.24235 0.19257 0.34773 0.0
C1130 C 0.21579 0.23276 0.34774 0.0
C1131 C 0.72162 0.7433 0.33944 0.0
C1132 C 0.73026 0.79661 0.34146 0.0
C1133 C 0.74823 0.70472 0.33928 0.0
C1134 C 0.78476 0.71756 0.34122 0.0
H1135 H 0.69398 0.73101 0.33814 0.0
H1136 H 0.73991 0.66437 0.3379 0.0
S1137 S 0.82189 0.85149 0.34711 0.0
N1138 N 0.77824 0.86021 0.34542 0.0
N1139 N 0.82811 0.7879 0.34525 0.0
C1140 C 0.79385 0.77078 0.34308 0.0
C1141 C 0.7667 0.81016 0.34315 0.0
C1142 C 0.21801 0.76127 0.17229 0.0
C1143 C 0.22721 0.70804 0.17204 0.0
C1144 C 0.24429 0.80026 0.17231 0.0
C1145 C 0.28097 0.78779 0.17197 0.0
H1146 H 0.19022 0.77313 0.17226 0.0
H1147 H 0.23564 0.84056 0.17222 0.0
S1148 S 0.3195 0.65421 0.17157 0.0
N1149 N 0.27588 0.64495 0.1718 0.0
N1150 N 0.32506 0.71797 0.17174 0.0
C1151 C 0.29058 0.73468 0.17197 0.0
C1152 C 0.26381 0.69494 0.17205 0.0
C1153 C 0.76091 0.20077 0.17115 0.0
C1154 C 0.72452 0.21457 0.16937 0.0
C1155 C 0.7879 0.23875 0.17112 0.0
C1156 C 0.77973 0.29228 0.16944 0.0
H1157 H 0.76879 0.16019 0.17231 0.0
H1158 H 0.81543 0.22586 0.17234 0.0
S1159 S 0.68866 0.34949 0.16425 0.0
N1160 N 0.68186 0.28604 0.16578 0.0
N1161 N 0.73238 0.35709 0.1659 0.0
C1162 C 0.74344 0.30673 0.16786 0.0
C1163 C 0.71595 0.26803 0.16776 0.0
C1164 C 0.72092 0.74254 0.67397 0.0
C1165 C 0.72971 0.79577 0.67181 0.0
C1166 C 0.74742 0.7038 0.67424 0.0
C1167 C 0.78397 0.71644 0.67228 0.0
H1168 H 0.69325 0.73043 0.67536 0.0
H1169 H 0.739 0.66351 0.67576 0.0
S1170 S 0.82146 0.85009 0.66583 0.0
N1171 N 0.77784 0.85907 0.66755 0.0
N1172 N 0.82751 0.78648 0.66793 0.0
C1173 C 0.79321 0.76958 0.6702 0.0
C1174 C 0.76617 0.8091 0.67002 0.0
C1175 C 0.2197 0.24208 0.67276 0.0
C1176 C 0.22878 0.29531 0.67189 0.0
C1177 C 0.24605 0.20309 0.6726 0.0
C1178 C 0.28269 0.21552 0.67142 0.0
H1179 H 0.19194 0.23021 0.67347 0.0
H1180 H 0.23745 0.1628 0.67309 0.0
S1181 S 0.3209 0.34911 0.66876 0.0
N1182 N 0.27729 0.35837 0.66991 0.0
N1183 N 0.32661 0.28536 0.66945 0.0
C1184 C 0.29219 0.26865 0.67067 0.0
C1185 C 0.26534 0.30839 0.67096 0.0
C1186 C 0.76054 0.20013 0.84238 0.0
C1187 C 0.72412 0.21414 0.84307 0.0
C1188 C 0.78763 0.23799 0.84235 0.0
C1189 C 0.77957 0.29163 0.84291 0.0
H1190 H 0.76836 0.15947 0.84225 0.0
H1191 H 0.81516 0.22491 0.84211 0.0
S1192 S 0.68846 0.34944 0.84446 0.0
N1193 N 0.68157 0.28596 0.84403 0.0
N1194 N 0.73224 0.35677 0.84386 0.0
C1195 C 0.74326 0.30628 0.84323 0.0
C1196 C 0.71566 0.26771 0.84335 0.0
C1197 C 0.25937 0.7061 0.84521 0.0
C1198 C 0.22265 0.7183 0.84624 0.0
C1199 C 0.28557 0.74522 0.84522 0.0
C1200 C 0.27629 0.79841 0.84614 0.0
H1201 H 0.26813 0.66586 0.84469 0.0
H1202 H 0.31338 0.73349 0.84462 0.0
S1203 S 0.18392 0.85166 0.84901 0.0
N1204 N 0.17846 0.78788 0.84818 0.0
N1205 N 0.2275 0.86117 0.84805 0.0
C1206 C 0.23966 0.81127 0.84696 0.0
C1207 C 0.21295 0.77137 0.84706 0.0
C1208 C 0.34956 0.04939 0.26499 0.0
C1209 C 0.34812 0.01565 0.28956 0.0
C1210 C 0.34871 0.03021 0.23598 0.0
C1211 C 0.34694 0.97639 0.23022 0.0
H1212 H 0.3523 0.09107 0.26805 0.0
H1213 H 0.35097 0.05789 0.21802 0.0
S1214 S 0.33778 0.87156 0.28631 0.0
N1215 N 0.3408 0.92569 0.30585 0.0
N1216 N 0.34017 0.88982 0.25134 0.0
C1217 C 0.34359 0.94229 0.25443 0.0
C1218 C 0.34391 0.96186 0.28405 0.0
C1219 C 0.64883 0.97067 0.23233 0.0
C1220 C 0.65376 0.02426 0.22706 0.0
C1221 C 0.64902 0.95032 0.26116 0.0
C1222 C 0.65454 0.98251 0.28605 0.0
H1223 H 0.64341 0.94432 0.21416 0.0
H1224 H 0.64388 0.90906 0.26389 0.0
S1225 S 0.6733 0.12487 0.28388 0.0
N1226 N 0.66734 0.10856 0.2489 0.0
N1227 N 0.66834 0.07048 0.30291 0.0
C1228 C 0.66146 0.03583 0.2809 0.0
C1229 C 0.66088 0.05661 0.25152 0.0
C1230 C 0.65108 0.97126 0.7822 0.0
C1231 C 0.65326 0.02528 0.78732 0.0
C1232 C 0.65111 0.95086 0.75338 0.0
C1233 C 0.65372 0.98348 0.72834 0.0
H1234 H 0.64798 0.94444 0.80051 0.0
H1235 H 0.64816 0.90911 0.7508 0.0
S1236 S 0.6646 0.12761 0.72995 0.0
N1237 N 0.66115 0.11081 0.76508 0.0
N1238 N 0.66181 0.07272 0.71108 0.0
C1239 C 0.65789 0.03747 0.73329 0.0
C1240 C 0.65748 0.05826 0.76266 0.0
C1241 C 0.3486 0.95369 0.76485 0.0
C1242 C 0.34713 0.9874 0.78943 0.0
C1243 C 0.34862 0.97295 0.73585 0.0
C1244 C 0.34771 0.02683 0.7301 0.0
H1245 H 0.35069 0.91192 0.76791 0.0
H1246 H 0.35081 0.94522 0.71791 0.0
S1247 S 0.33891 0.13179 0.78618 0.0
N1248 N 0.34077 0.07752 0.80571 0.0
N1249 N 0.34174 0.11356 0.75123 0.0
C1250 C 0.34436 0.06098 0.75431 0.0
C1251 C 0.3438 0.04133 0.78391 0.0
C1252 C 0.85426 0.5301 0.23214 0.0
C1253 C 0.85353 0.47591 0.22731 0.0
C1254 C 0.85435 0.55099 0.26083 0.0
C1255 C 0.85338 0.51878 0.28614 0.0
H1256 H 0.85608 0.55683 0.21366 0.0
H1257 H 0.85612 0.59294 0.26306 0.0
S1258 S 0.84681 0.37419 0.28564 0.0
N1259 N 0.84875 0.39041 0.25033 0.0
N1260 N 0.84846 0.4296 0.30412 0.0
C1261 C 0.85066 0.46454 0.2816 0.0
C1262 C 0.85088 0.44319 0.2523 0.0
C1263 C 0.15011 0.5345 0.28268 0.0
C1264 C 0.15939 0.48237 0.28847 0.0
C1265 C 0.15017 0.55427 0.25377 0.0
C1266 C 0.15989 0.52291 0.22942 0.0
H1267 H 0.14115 0.55972 0.30042 0.0
H1268 H 0.14138 0.59409 0.25051 0.0
S1269 S 0.19172 0.38566 0.23359 0.0
N1270 N 0.18201 0.40113 0.26811 0.0
N1271 N 0.183 0.4383 0.21389 0.0
C1272 C 0.17151 0.47156 0.23527 0.0
C1273 C 0.17099 0.4513 0.26471 0.0
C1274 C 0.15035 0.55701 0.76371 0.0
C1275 C 0.15753 0.52499 0.78838 0.0
C1276 C 0.15038 0.53696 0.73485 0.0
C1277 C 0.15724 0.48391 0.7294 0.0
H1278 H 0.14356 0.59773 0.76664 0.0
H1279 H 0.1435 0.56293 0.71683 0.0
S1280 S 0.18213 0.38451 0.78546 0.0
N1281 N 0.17533 0.43819 0.80476 0.0
N1282 N 0.17475 0.40066 0.75064 0.0
C1283 C 0.16622 0.45193 0.75358 0.0
C1284 C 0.16657 0.47241 0.78298 0.0
C1285 C 0.85239 0.54967 0.75298 0.0
C1286 C 0.85216 0.51736 0.72771 0.0
C1287 C 0.85248 0.52884 0.78169 0.0
C1288 C 0.85274 0.47465 0.78657 0.0
H1289 H 0.85344 0.59166 0.75071 0.0
H1290 H 0.85368 0.55566 0.80016 0.0
S1291 S 0.8481 0.37257 0.72833 0.0
N1292 N 0.84885 0.42797 0.7098 0.0
N1293 N 0.84961 0.38894 0.76364 0.0
C1294 C 0.85081 0.44178 0.76161 0.0
C1295 C 0.85033 0.46305 0.73229 0.0
loop_
_geom_bond_atom_site_label_1
_geom_bond_atom_site_label_2
_geom_bond_distance
_geom_bond_site_symmetry_2
_ccdc_geom_bond_type
Co0 O2 2.143 1_565 S
Co0 O8 2.074 . S
Co0 O11 2.093 . S
Co0 O24 2.097 . S
Co0 N41 2.151 . S
Co0 N49 2.214 . S
Co1 O2 2.160 . S
Co1 O7 2.058 . S
Co1 O17 2.057 . S
Co1 O32 2.037 . S
Co1 N36 2.145 . S
Co1 N57 2.257 . S
O2 Co0 2.143 1_545 S
O2 Co1 2.160 . S
C3 O4 1.278 . S
C3 O11 1.224 1_545 S
O4 C3 1.278 . S
C5 O6 1.245 . S
C5 O17 1.232 . S
O6 C5 1.245 . S
O7 Co1 2.058 . S
O7 C33 1.269 . S
O8 Co0 2.074 . S
O8 C33 1.257 1_565 S
H9 C34 0.930 . S
H10 C40 0.930 . S
O11 Co0 2.093 . S
O11 C3 1.224 1_565 S
H12 C44 0.929 . S
H13 C46 0.930 . S
H14 C47 0.930 . S
H15 C45 0.929 . S
H16 C48 0.928 . S
O17 Co1 2.057 . S
O17 C5 1.232 . S
H18 C37 0.929 . S
H19 C38 0.929 . S
H20 C50 0.931 . S
H21 C42 0.929 . S
H22 C51 0.930 . S
H23 C43 0.931 . S
O24 Co0 2.097 . S
O24 C52 1.215 1_565 S
H25 C53 0.929 . S
H26 C54 0.929 . S
H27 C55 0.930 . S
H28 C56 0.929 . S
H29 C58 0.930 . S
H30 C35 0.930 . S
H31 C39 0.930 . S
O32 Co1 2.037 . S
O32 C52 1.234 . S
C33 O7 1.269 . S
C33 O8 1.257 1_545 S
C34 H9 0.930 . S
C34 C37 1.388 . S
C34 C39 1.418 . S
C35 H30 0.930 . S
C35 C38 1.404 . S
C35 C39 1.353 . S
N36 Co1 2.145 . S
N36 C37 1.397 . S
N36 C38 1.334 . S
C37 H18 0.929 . S
C37 C34 1.388 . S
C37 N36 1.397 . S
C38 H19 0.929 . S
C38 C35 1.404 . S
C38 N36 1.334 . S
C39 H31 0.930 . S
C39 C34 1.418 . S
C39 C35 1.353 . S
C40 H10 0.930 . S
C40 N41 1.330 . S
C40 C42 1.446 . S
N41 Co0 2.151 . S
N41 C40 1.330 . S
N41 C45 1.418 . S
C42 H21 0.929 . S
C42 C40 1.446 . S
C42 C43 1.332 . S
C43 H23 0.931 . S
C43 C42 1.332 . S
C43 C44 1.267 . S
C44 H12 0.929 . S
C44 C43 1.267 . S
C44 C45 1.251 . S
C45 H15 0.929 . S
C45 N41 1.418 . S
C45 C44 1.251 . S
C46 H13 0.930 . S
C46 C48 1.406 . S
C46 C51 1.261 . S
C47 H14 0.930 . S
C47 N49 1.325 . S
C47 C50 1.357 . S
C48 H16 0.928 . S
C48 C46 1.406 . S
C48 N49 1.261 . S
N49 Co0 2.214 . S
N49 C47 1.325 . S
N49 C48 1.261 . S
C50 H20 0.931 . S
C50 C47 1.357 . S
C50 C51 1.312 . S
C51 H22 0.930 . S
C51 C46 1.261 . S
C51 C50 1.312 . S
C52 O24 1.215 1_545 S
C52 O32 1.234 . S
C53 H25 0.929 . S
C53 C56 1.391 . S
C53 C58 1.391 . S
C54 H26 0.929 . S
C54 C55 1.390 . S
C54 N57 1.391 . S
C55 H27 0.930 . S
C55 C54 1.390 . S
C55 C56 1.392 . S
C56 H28 0.929 . S
C56 C53 1.391 . S
C56 C55 1.392 . S
N57 Co1 2.257 . S
N57 C54 1.391 . S
N57 C58 1.388 . S
C58 H29 0.930 . S
C58 C53 1.391 . S
C58 N57 1.388 . S
Co59 O61 2.143 1_545 S
Co59 O67 2.074 . S
Co59 O70 2.093 . S
Co59 O83 2.097 . S
Co59 N100 2.151 . S
Co59 N108 2.214 . S
Co60 O61 2.160 . S
Co60 O66 2.058 . S
Co60 O76 2.057 . S
Co60 O91 2.037 . S
Co60 N95 2.145 . S
Co60 N116 2.257 . S
O61 Co59 2.143 1_565 S
O61 Co60 2.160 . S
C62 O63 1.278 . S
C62 O70 1.224 1_565 S
O63 C62 1.278 . S
C64 O65 1.245 . S
C64 O76 1.232 . S
O65 C64 1.245 . S
O66 Co60 2.058 . S
O66 C92 1.269 . S
O67 Co59 2.074 . S
O67 C92 1.257 1_545 S
H68 C93 0.930 . S
H69 C99 0.930 . S
O70 Co59 2.093 . S
O70 C62 1.224 1_545 S
H71 C103 0.929 . S
H72 C105 0.930 . S
H73 C106 0.930 . S
H74 C104 0.929 . S
H75 C107 0.928 . S
O76 Co60 2.057 . S
O76 C64 1.232 . S
H77 C96 0.929 . S
H78 C97 0.929 . S
H79 C109 0.931 . S
H80 C101 0.929 . S
H81 C110 0.930 . S
H82 C102 0.931 . S
O83 Co59 2.097 . S
O83 C111 1.214 1_545 S
H84 C112 0.929 . S
H85 C113 0.929 . S
H86 C114 0.930 . S
H87 C115 0.929 . S
H88 C117 0.930 . S
H89 C94 0.930 . S
H90 C98 0.930 . S
O91 Co60 2.037 . S
O91 C111 1.234 . S
C92 O66 1.269 . S
C92 O67 1.257 1_565 S
C93 H68 0.930 . S
C93 C96 1.388 . S
C93 C98 1.418 . S
C94 H89 0.930 . S
C94 C97 1.404 . S
C94 C98 1.353 . S
N95 Co60 2.145 . S
N95 C96 1.397 . S
N95 C97 1.334 . S
C96 H77 0.929 . S
C96 C93 1.388 . S
C96 N95 1.397 . S
C97 H78 0.929 . S
C97 C94 1.404 . S
C97 N95 1.334 . S
C98 H90 0.930 . S
C98 C93 1.418 . S
C98 C94 1.353 . S
C99 H69 0.930 . S
C99 N100 1.330 . S
C99 C101 1.446 . S
N100 Co59 2.151 . S
N100 C99 1.330 . S
N100 C104 1.418 . S
C101 H80 0.929 . S
C101 C99 1.446 . S
C101 C102 1.332 . S
C102 H82 0.931 . S
C102 C101 1.332 . S
C102 C103 1.267 . S
C103 H71 0.929 . S
C103 C102 1.267 . S
C103 C104 1.251 . S
C104 H74 0.929 . S
C104 N100 1.418 . S
C104 C103 1.251 . S
C105 H72 0.930 . S
C105 C107 1.406 . S
C105 C110 1.261 . S
C106 H73 0.930 . S
C106 N108 1.325 . S
C106 C109 1.357 . S
C107 H75 0.928 . S
C107 C105 1.406 . S
C107 N108 1.261 . S
N108 Co59 2.214 . S
N108 C106 1.325 . S
N108 C107 1.261 . S
C109 H79 0.931 . S
C109 C106 1.357 . S
C109 C110 1.312 . S
C110 H81 0.930 . S
C110 C105 1.261 . S
C110 C109 1.312 . S
C111 O83 1.214 1_565 S
C111 O91 1.234 . S
C112 H84 0.929 . S
C112 C115 1.391 . S
C112 C117 1.391 . S
C113 H85 0.929 . S
C113 C114 1.390 . S
C113 N116 1.391 . S
C114 H86 0.930 . S
C114 C113 1.390 . S
C114 C115 1.392 . S
C115 H87 0.929 . S
C115 C112 1.391 . S
C115 C114 1.392 . S
N116 Co60 2.257 . S
N116 C113 1.391 . S
N116 C117 1.388 . S
C117 H88 0.930 . S
C117 C112 1.391 . S
C117 N116 1.388 . S
Co118 O120 2.143 1_545 S
Co118 O126 2.074 . S
Co118 O129 2.093 . S
Co118 O142 2.097 . S
Co118 N159 2.151 . S
Co118 N167 2.214 . S
Co119 O120 2.160 . S
Co119 O125 2.058 . S
Co119 O135 2.057 . S
Co119 O150 2.037 . S
Co119 N154 2.145 . S
Co119 N175 2.257 . S
O120 Co118 2.143 1_565 S
O120 Co119 2.160 . S
C121 O122 1.278 . S
C121 O129 1.224 1_565 S
O122 C121 1.278 . S
C123 O124 1.245 . S
C123 O135 1.232 . S
O124 C123 1.245 . S
O125 Co119 2.058 . S
O125 C151 1.269 . S
O126 Co118 2.074 . S
O126 C151 1.257 1_545 S
H127 C152 0.930 . S
H128 C158 0.930 . S
O129 Co118 2.093 . S
O129 C121 1.224 1_545 S
H130 C162 0.929 . S
H131 C164 0.930 . S
H132 C165 0.930 . S
H133 C163 0.929 . S
H134 C166 0.928 . S
O135 Co119 2.057 . S
O135 C123 1.232 . S
H136 C155 0.929 . S
H137 C156 0.929 . S
H138 C168 0.931 . S
H139 C160 0.929 . S
H140 C169 0.930 . S
H141 C161 0.931 . S
O142 Co118 2.097 . S
O142 C170 1.215 1_545 S
H143 C171 0.929 . S
H144 C172 0.929 . S
H145 C173 0.930 . S
H146 C174 0.929 . S
H147 C176 0.930 . S
H148 C153 0.930 . S
H149 C157 0.930 . S
O150 Co119 2.037 . S
O150 C170 1.234 . S
C151 O125 1.269 . S
C151 O126 1.257 1_565 S
C152 H127 0.930 . S
C152 C155 1.388 . S
C152 C157 1.418 . S
C153 H148 0.930 . S
C153 C156 1.404 . S
C153 C157 1.353 . S
N154 Co119 2.145 . S
N154 C155 1.397 . S
N154 C156 1.334 . S
C155 H136 0.929 . S
C155 C152 1.388 . S
C155 N154 1.397 . S
C156 H137 0.929 . S
C156 C153 1.404 . S
C156 N154 1.334 . S
C157 H149 0.930 . S
C157 C152 1.418 . S
C157 C153 1.353 . S
C158 H128 0.930 . S
C158 N159 1.330 . S
C158 C160 1.446 . S
N159 Co118 2.151 . S
N159 C158 1.330 . S
N159 C163 1.418 . S
C160 H139 0.929 . S
C160 C158 1.446 . S
C160 C161 1.332 . S
C161 H141 0.931 . S
C161 C160 1.332 . S
C161 C162 1.267 . S
C162 H130 0.929 . S
C162 C161 1.267 . S
C162 C163 1.251 . S
C163 H133 0.929 . S
C163 N159 1.418 . S
C163 C162 1.251 . S
C164 H131 0.930 . S
C164 C166 1.406 . S
C164 C169 1.261 . S
C165 H132 0.930 . S
C165 N167 1.325 . S
C165 C168 1.357 . S
C166 H134 0.928 . S
C166 C164 1.406 . S
C166 N167 1.261 . S
N167 Co118 2.214 . S
N167 C165 1.325 . S
N167 C166 1.261 . S
C168 H138 0.931 . S
C168 C165 1.357 . S
C168 C169 1.312 . S
C169 H140 0.930 . S
C169 C164 1.261 . S
C169 C168 1.312 . S
C170 O142 1.215 1_565 S
C170 O150 1.234 . S
C171 H143 0.929 . S
C171 C174 1.391 . S
C171 C176 1.391 . S
C172 H144 0.929 . S
C172 C173 1.390 . S
C172 N175 1.391 . S
C173 H145 0.930 . S
C173 C172 1.390 . S
C173 C174 1.392 . S
C174 H146 0.929 . S
C174 C171 1.391 . S
C174 C173 1.392 . S
N175 Co119 2.257 . S
N175 C172 1.391 . S
N175 C176 1.388 . S
C176 H147 0.930 . S
C176 C171 1.391 . S
C176 N175 1.388 . S
Co177 O179 2.143 1_565 S
Co177 O185 2.074 . S
Co177 O188 2.093 . S
Co177 O201 2.097 . S
Co177 N218 2.151 . S
Co177 N226 2.214 . S
Co178 O179 2.160 . S
Co178 O184 2.058 . S
Co178 O194 2.057 . S
Co178 O209 2.037 . S
Co178 N213 2.145 . S
Co178 N234 2.257 . S
O179 Co177 2.143 1_545 S
O179 Co178 2.160 . S
C180 O181 1.278 . S
C180 O188 1.224 1_545 S
O181 C180 1.278 . S
C182 O183 1.245 . S
C182 O194 1.232 . S
O183 C182 1.245 . S
O184 Co178 2.058 . S
O184 C210 1.269 . S
O185 Co177 2.074 . S
O185 C210 1.257 1_565 S
H186 C211 0.930 . S
H187 C217 0.930 . S
O188 Co177 2.093 . S
O188 C180 1.224 1_565 S
H189 C221 0.929 . S
H190 C223 0.930 . S
H191 C224 0.930 . S
H192 C222 0.929 . S
H193 C225 0.928 . S
O194 Co178 2.057 . S
O194 C182 1.232 . S
H195 C214 0.929 . S
H196 C215 0.929 . S
H197 C227 0.931 . S
H198 C219 0.929 . S
H199 C228 0.930 . S
H200 C220 0.931 . S
O201 Co177 2.097 . S
O201 C229 1.214 1_565 S
H202 C230 0.929 . S
H203 C231 0.929 . S
H204 C232 0.930 . S
H205 C233 0.929 . S
H206 C235 0.930 . S
H207 C212 0.930 . S
H208 C216 0.930 . S
O209 Co178 2.037 . S
O209 C229 1.234 . S
C210 O184 1.269 . S
C210 O185 1.257 1_545 S
C211 H186 0.930 . S
C211 C214 1.388 . S
C211 C216 1.418 . S
C212 H207 0.930 . S
C212 C215 1.404 . S
C212 C216 1.353 . S
N213 Co178 2.145 . S
N213 C214 1.397 . S
N213 C215 1.334 . S
C214 H195 0.929 . S
C214 C211 1.388 . S
C214 N213 1.397 . S
C215 H196 0.929 . S
C215 C212 1.404 . S
C215 N213 1.334 . S
C216 H208 0.930 . S
C216 C211 1.418 . S
C216 C212 1.353 . S
C217 H187 0.930 . S
C217 N218 1.330 . S
C217 C219 1.446 . S
N218 Co177 2.151 . S
N218 C217 1.330 . S
N218 C222 1.418 . S
C219 H198 0.929 . S
C219 C217 1.446 . S
C219 C220 1.332 . S
C220 H200 0.931 . S
C220 C219 1.332 . S
C220 C221 1.267 . S
C221 H189 0.929 . S
C221 C220 1.267 . S
C221 C222 1.251 . S
C222 H192 0.929 . S
C222 N218 1.418 . S
C222 C221 1.251 . S
C223 H190 0.930 . S
C223 C225 1.406 . S
C223 C228 1.261 . S
C224 H191 0.930 . S
C224 N226 1.325 . S
C224 C227 1.357 . S
C225 H193 0.928 . S
C225 C223 1.406 . S
C225 N226 1.261 . S
N226 Co177 2.214 . S
N226 C224 1.325 . S
N226 C225 1.261 . S
C227 H197 0.931 . S
C227 C224 1.357 . S
C227 C228 1.312 . S
C228 H199 0.930 . S
C228 C223 1.261 . S
C228 C227 1.312 . S
C229 O201 1.214 1_545 S
C229 O209 1.234 . S
C230 H202 0.929 . S
C230 C233 1.391 . S
C230 C235 1.391 . S
C231 H203 0.929 . S
C231 C232 1.390 . S
C231 N234 1.391 . S
C232 H204 0.930 . S
C232 C231 1.390 . S
C232 C233 1.392 . S
C233 H205 0.929 . S
C233 C230 1.391 . S
C233 C232 1.392 . S
N234 Co178 2.257 . S
N234 C231 1.391 . S
N234 C235 1.388 . S
C235 H206 0.930 . S
C235 C230 1.391 . S
C235 N234 1.388 . S
Co236 O238 2.143 1_545 S
Co236 O244 2.074 . S
Co236 O247 2.093 . S
Co236 O260 2.097 . S
Co236 N277 2.151 . S
Co236 N285 2.214 . S
Co237 O238 2.160 . S
Co237 O243 2.058 . S
Co237 O253 2.057 . S
Co237 O268 2.037 . S
Co237 N272 2.145 . S
Co237 N293 2.257 . S
O238 Co236 2.143 1_565 S
O238 Co237 2.160 . S
C239 O240 1.278 . S
C239 O247 1.224 1_565 S
O240 C239 1.278 . S
C241 O242 1.245 . S
C241 O253 1.232 . S
O242 C241 1.245 . S
O243 Co237 2.058 . S
O243 C269 1.269 . S
O244 Co236 2.074 . S
O244 C269 1.257 1_545 S
H245 C270 0.930 . S
H246 C276 0.930 . S
O247 Co236 2.093 . S
O247 C239 1.224 1_545 S
H248 C280 0.929 . S
H249 C282 0.930 . S
H250 C283 0.930 . S
H251 C281 0.929 . S
H252 C284 0.928 . S
O253 Co237 2.057 . S
O253 C241 1.232 . S
H254 C273 0.929 . S
H255 C274 0.929 . S
H256 C286 0.931 . S
H257 C278 0.929 . S
H258 C287 0.930 . S
H259 C279 0.931 . S
O260 Co236 2.097 . S
O260 C288 1.215 1_545 S
H261 C289 0.929 . S
H262 C290 0.929 . S
H263 C291 0.930 . S
H264 C292 0.929 . S
H265 C294 0.930 . S
H266 C271 0.930 . S
H267 C275 0.930 . S
O268 Co237 2.037 . S
O268 C288 1.234 . S
C269 O243 1.269 . S
C269 O244 1.257 1_565 S
C270 H245 0.930 . S
C270 C273 1.388 . S
C270 C275 1.418 . S
C271 H266 0.930 . S
C271 C274 1.404 . S
C271 C275 1.353 . S
N272 Co237 2.145 . S
N272 C273 1.397 . S
N272 C274 1.334 . S
C273 H254 0.929 . S
C273 C270 1.388 . S
C273 N272 1.397 . S
C274 H255 0.929 . S
C274 C271 1.404 . S
C274 N272 1.334 . S
C275 H267 0.930 . S
C275 C270 1.418 . S
C275 C271 1.353 . S
C276 H246 0.930 . S
C276 N277 1.330 . S
C276 C278 1.446 . S
N277 Co236 2.151 . S
N277 C276 1.330 . S
N277 C281 1.418 . S
C278 H257 0.929 . S
C278 C276 1.446 . S
C278 C279 1.332 . S
C279 H259 0.931 . S
C279 C278 1.332 . S
C279 C280 1.267 . S
C280 H248 0.929 . S
C280 C279 1.267 . S
C280 C281 1.251 . S
C281 H251 0.929 . S
C281 N277 1.418 . S
C281 C280 1.251 . S
C282 H249 0.930 . S
C282 C284 1.406 . S
C282 C287 1.261 . S
C283 H250 0.930 . S
C283 N285 1.325 . S
C283 C286 1.357 . S
C284 H252 0.928 . S
C284 C282 1.406 . S
C284 N285 1.261 . S
N285 Co236 2.214 . S
N285 C283 1.325 . S
N285 C284 1.261 . S
C286 H256 0.931 . S
C286 C283 1.357 . S
C286 C287 1.312 . S
C287 H258 0.930 . S
C287 C282 1.261 . S
C287 C286 1.312 . S
C288 O260 1.215 1_565 S
C288 O268 1.234 . S
C289 H261 0.929 . S
C289 C292 1.391 . S
C289 C294 1.391 . S
C290 H262 0.929 . S
C290 C291 1.390 . S
C290 N293 1.391 . S
C291 H263 0.930 . S
C291 C290 1.390 . S
C291 C292 1.392 . S
C292 H264 0.929 . S
C292 C289 1.391 . S
C292 C291 1.392 . S
N293 Co237 2.257 . S
N293 C290 1.391 . S
N293 C294 1.388 . S
C294 H265 0.930 . S
C294 C289 1.391 . S
C294 N293 1.388 . S
Co295 O297 2.143 1_565 S
Co295 O303 2.074 . S
Co295 O306 2.093 . S
Co295 O319 2.097 . S
Co295 N336 2.151 . S
Co295 N344 2.214 . S
Co296 O297 2.160 . S
Co296 O302 2.058 . S
Co296 O312 2.057 . S
Co296 O327 2.037 . S
Co296 N331 2.145 . S
Co296 N352 2.257 . S
O297 Co295 2.143 1_545 S
O297 Co296 2.160 . S
C298 O299 1.278 . S
C298 O306 1.224 1_545 S
O299 C298 1.278 . S
C300 O301 1.245 . S
C300 O312 1.232 . S
O301 C300 1.245 . S
O302 Co296 2.058 . S
O302 C328 1.269 . S
O303 Co295 2.074 . S
O303 C328 1.257 1_565 S
H304 C329 0.930 . S
H305 C335 0.930 . S
O306 Co295 2.093 . S
O306 C298 1.224 1_565 S
H307 C339 0.929 . S
H308 C341 0.930 . S
H309 C342 0.930 . S
H310 C340 0.929 . S
H311 C343 0.928 . S
O312 Co296 2.057 . S
O312 C300 1.232 . S
H313 C332 0.929 . S
H314 C333 0.929 . S
H315 C345 0.931 . S
H316 C337 0.929 . S
H317 C346 0.930 . S
H318 C338 0.931 . S
O319 Co295 2.097 . S
O319 C347 1.214 1_565 S
H320 C348 0.929 . S
H321 C349 0.929 . S
H322 C350 0.930 . S
H323 C351 0.929 . S
H324 C353 0.930 . S
H325 C330 0.930 . S
H326 C334 0.930 . S
O327 Co296 2.037 . S
O327 C347 1.234 . S
C328 O302 1.269 . S
C328 O303 1.257 1_545 S
C329 H304 0.930 . S
C329 C332 1.388 . S
C329 C334 1.418 . S
C330 H325 0.930 . S
C330 C333 1.404 . S
C330 C334 1.353 . S
N331 Co296 2.145 . S
N331 C332 1.397 . S
N331 C333 1.334 . S
C332 H313 0.929 . S
C332 C329 1.388 . S
C332 N331 1.397 . S
C333 H314 0.929 . S
C333 C330 1.404 . S
C333 N331 1.334 . S
C334 H326 0.930 . S
C334 C329 1.418 . S
C334 C330 1.353 . S
C335 H305 0.930 . S
C335 N336 1.330 . S
C335 C337 1.446 . S
N336 Co295 2.151 . S
N336 C335 1.330 . S
N336 C340 1.418 . S
C337 H316 0.929 . S
C337 C335 1.446 . S
C337 C338 1.332 . S
C338 H318 0.931 . S
C338 C337 1.332 . S
C338 C339 1.267 . S
C339 H307 0.929 . S
C339 C338 1.267 . S
C339 C340 1.251 . S
C340 H310 0.929 . S
C340 N336 1.418 . S
C340 C339 1.251 . S
C341 H308 0.930 . S
C341 C343 1.406 . S
C341 C346 1.261 . S
C342 H309 0.930 . S
C342 N344 1.325 . S
C342 C345 1.357 . S
C343 H311 0.928 . S
C343 C341 1.406 . S
C343 N344 1.261 . S
N344 Co295 2.214 . S
N344 C342 1.325 . S
N344 C343 1.261 . S
C345 H315 0.931 . S
C345 C342 1.357 . S
C345 C346 1.312 . S
C346 H317 0.930 . S
C346 C341 1.261 . S
C346 C345 1.312 . S
C347 O319 1.214 1_545 S
C347 O327 1.234 . S
C348 H320 0.929 . S
C348 C351 1.391 . S
C348 C353 1.391 . S
C349 H321 0.929 . S
C349 C350 1.390 . S
C349 N352 1.391 . S
C350 H322 0.930 . S
C350 C349 1.390 . S
C350 C351 1.392 . S
C351 H323 0.929 . S
C351 C348 1.391 . S
C351 C350 1.392 . S
N352 Co296 2.257 . S
N352 C349 1.391 . S
N352 C353 1.388 . S
C353 H324 0.930 . S
C353 C348 1.391 . S
C353 N352 1.388 . S
Co354 O356 2.143 1_565 S
Co354 O362 2.074 . S
Co354 O365 2.093 . S
Co354 O378 2.097 . S
Co354 N395 2.151 . S
Co354 N403 2.214 . S
Co355 O356 2.160 . S
Co355 O361 2.058 . S
Co355 O371 2.057 . S
Co355 O386 2.037 . S
Co355 N390 2.145 . S
Co355 N411 2.257 . S
O356 Co354 2.143 1_545 S
O356 Co355 2.160 . S
C357 O358 1.278 . S
C357 O365 1.224 1_545 S
O358 C357 1.278 . S
C359 O360 1.245 . S
C359 O371 1.232 . S
O360 C359 1.245 . S
O361 Co355 2.058 . S
O361 C387 1.269 . S
O362 Co354 2.074 . S
O362 C387 1.257 1_565 S
H363 C388 0.930 . S
H364 C394 0.930 . S
O365 Co354 2.093 . S
O365 C357 1.224 1_565 S
H366 C398 0.929 . S
H367 C400 0.930 . S
H368 C401 0.930 . S
H369 C399 0.929 . S
H370 C402 0.928 . S
O371 Co355 2.057 . S
O371 C359 1.232 . S
H372 C391 0.929 . S
H373 C392 0.929 . S
H374 C404 0.931 . S
H375 C396 0.929 . S
H376 C405 0.930 . S
H377 C397 0.931 . S
O378 Co354 2.097 . S
O378 C406 1.215 1_565 S
H379 C407 0.929 . S
H380 C408 0.929 . S
H381 C409 0.930 . S
H382 C410 0.929 . S
H383 C412 0.930 . S
H384 C389 0.930 . S
H385 C393 0.930 . S
O386 Co355 2.037 . S
O386 C406 1.234 . S
C387 O361 1.269 . S
C387 O362 1.257 1_545 S
C388 H363 0.930 . S
C388 C391 1.388 . S
C388 C393 1.418 . S
C389 H384 0.930 . S
C389 C392 1.404 . S
C389 C393 1.353 . S
N390 Co355 2.145 . S
N390 C391 1.397 . S
N390 C392 1.334 . S
C391 H372 0.929 . S
C391 C388 1.388 . S
C391 N390 1.397 . S
C392 H373 0.929 . S
C392 C389 1.404 . S
C392 N390 1.334 . S
C393 H385 0.930 . S
C393 C388 1.418 . S
C393 C389 1.353 . S
C394 H364 0.930 . S
C394 N395 1.330 . S
C394 C396 1.446 . S
N395 Co354 2.151 . S
N395 C394 1.330 . S
N395 C399 1.418 . S
C396 H375 0.929 . S
C396 C394 1.446 . S
C396 C397 1.332 . S
C397 H377 0.931 . S
C397 C396 1.332 . S
C397 C398 1.267 . S
C398 H366 0.929 . S
C398 C397 1.267 . S
C398 C399 1.251 . S
C399 H369 0.929 . S
C399 N395 1.418 . S
C399 C398 1.251 . S
C400 H367 0.930 . S
C400 C402 1.406 . S
C400 C405 1.261 . S
C401 H368 0.930 . S
C401 N403 1.325 . S
C401 C404 1.357 . S
C402 H370 0.928 . S
C402 C400 1.406 . S
C402 N403 1.261 . S
N403 Co354 2.214 . S
N403 C401 1.325 . S
N403 C402 1.261 . S
C404 H374 0.931 . S
C404 C401 1.357 . S
C404 C405 1.312 . S
C405 H376 0.930 . S
C405 C400 1.261 . S
C405 C404 1.312 . S
C406 O378 1.215 1_545 S
C406 O386 1.234 . S
C407 H379 0.929 . S
C407 C410 1.391 . S
C407 C412 1.391 . S
C408 H380 0.929 . S
C408 C409 1.390 . S
C408 N411 1.391 . S
C409 H381 0.930 . S
C409 C408 1.390 . S
C409 C410 1.392 . S
C410 H382 0.929 . S
C410 C407 1.391 . S
C410 C409 1.392 . S
N411 Co355 2.257 . S
N411 C408 1.391 . S
N411 C412 1.388 . S
C412 H383 0.930 . S
C412 C407 1.391 . S
C412 N411 1.388 . S
Co413 O415 2.143 1_545 S
Co413 O421 2.074 . S
Co413 O424 2.093 . S
Co413 O437 2.097 . S
Co413 N454 2.151 . S
Co413 N462 2.214 . S
Co414 O415 2.160 . S
Co414 O420 2.058 . S
Co414 O430 2.057 . S
Co414 O445 2.037 . S
Co414 N449 2.145 . S
Co414 N470 2.257 . S
O415 Co413 2.143 1_565 S
O415 Co414 2.160 . S
C416 O417 1.278 . S
C416 O424 1.224 1_565 S
O417 C416 1.278 . S
C418 O419 1.245 . S
C418 O430 1.232 . S
O419 C418 1.245 . S
O420 Co414 2.058 . S
O420 C446 1.269 . S
O421 Co413 2.074 . S
O421 C446 1.257 1_545 S
H422 C447 0.930 . S
H423 C453 0.930 . S
O424 Co413 2.093 . S
O424 C416 1.224 1_545 S
H425 C457 0.929 . S
H426 C459 0.930 . S
H427 C460 0.930 . S
H428 C458 0.929 . S
H429 C461 0.928 . S
O430 Co414 2.057 . S
O430 C418 1.232 . S
H431 C450 0.929 . S
H432 C451 0.929 . S
H433 C463 0.931 . S
H434 C455 0.929 . S
H435 C464 0.930 . S
H436 C456 0.931 . S
O437 Co413 2.097 . S
O437 C465 1.214 1_545 S
H438 C466 0.929 . S
H439 C467 0.929 . S
H440 C468 0.930 . S
H441 C469 0.929 . S
H442 C471 0.930 . S
H443 C448 0.930 . S
H444 C452 0.930 . S
O445 Co414 2.037 . S
O445 C465 1.234 . S
C446 O420 1.269 . S
C446 O421 1.257 1_565 S
C447 H422 0.930 . S
C447 C450 1.388 . S
C447 C452 1.418 . S
C448 H443 0.930 . S
C448 C451 1.404 . S
C448 C452 1.353 . S
N449 Co414 2.145 . S
N449 C450 1.397 . S
N449 C451 1.334 . S
C450 H431 0.929 . S
C450 C447 1.388 . S
C450 N449 1.397 . S
C451 H432 0.929 . S
C451 C448 1.404 . S
C451 N449 1.334 . S
C452 H444 0.930 . S
C452 C447 1.418 . S
C452 C448 1.353 . S
C453 H423 0.930 . S
C453 N454 1.330 . S
C453 C455 1.446 . S
N454 Co413 2.151 . S
N454 C453 1.330 . S
N454 C458 1.418 . S
C455 H434 0.929 . S
C455 C453 1.446 . S
C455 C456 1.332 . S
C456 H436 0.931 . S
C456 C455 1.332 . S
C456 C457 1.267 . S
C457 H425 0.929 . S
C457 C456 1.267 . S
C457 C458 1.251 . S
C458 H428 0.929 . S
C458 N454 1.418 . S
C458 C457 1.251 . S
C459 H426 0.930 . S
C459 C461 1.406 . S
C459 C464 1.261 . S
C460 H427 0.930 . S
C460 N462 1.325 . S
C460 C463 1.357 . S
C461 H429 0.928 . S
C461 C459 1.406 . S
C461 N462 1.261 . S
N462 Co413 2.214 . S
N462 C460 1.325 . S
N462 C461 1.261 . S
C463 H433 0.931 . S
C463 C460 1.357 . S
C463 C464 1.312 . S
C464 H435 0.930 . S
C464 C459 1.261 . S
C464 C463 1.312 . S
C465 O437 1.214 1_565 S
C465 O445 1.234 . S
C466 H438 0.929 . S
C466 C469 1.391 . S
C466 C471 1.391 . S
C467 H439 0.929 . S
C467 C468 1.390 . S
C467 N470 1.391 . S
C468 H440 0.930 . S
C468 C467 1.390 . S
C468 C469 1.392 . S
C469 H441 0.929 . S
C469 C466 1.391 . S
C469 C468 1.392 . S
N470 Co414 2.257 . S
N470 C467 1.391 . S
N470 C471 1.388 . S
C471 H442 0.930 . S
C471 C466 1.391 . S
C471 N470 1.388 . S
Co472 O474 2.143 . S
Co472 O480 2.074 . S
Co472 O483 2.093 . S
Co472 O496 2.097 . S
Co472 N513 2.151 . S
Co472 N521 2.214 . S
Co473 O474 2.160 . S
Co473 O479 2.058 . S
Co473 O489 2.057 . S
Co473 O504 2.037 . S
Co473 N508 2.145 . S
Co473 N529 2.257 . S
O474 Co472 2.143 . S
O474 Co473 2.160 . S
C475 O476 1.278 . S
C475 O483 1.224 . S
O476 C475 1.278 . S
C477 O478 1.245 . S
C477 O489 1.232 . S
O478 C477 1.245 . S
O479 Co473 2.058 . S
O479 C505 1.269 . S
O480 Co472 2.074 . S
O480 C505 1.257 . S
H481 C506 0.930 . S
H482 C512 0.930 . S
O483 Co472 2.093 . S
O483 C475 1.224 . S
H484 C516 0.929 . S
H485 C518 0.930 . S
H486 C519 0.930 . S
H487 C517 0.929 . S
H488 C520 0.928 . S
O489 Co473 2.057 . S
O489 C477 1.232 . S
H490 C509 0.929 . S
H491 C510 0.929 . S
H492 C522 0.931 . S
H493 C514 0.929 . S
H494 C523 0.930 . S
H495 C515 0.931 . S
O496 Co472 2.097 . S
O496 C524 1.214 . S
H497 C525 0.929 . S
H498 C526 0.929 . S
H499 C527 0.930 . S
H500 C528 0.929 . S
H501 C530 0.930 . S
H502 C507 0.930 . S
H503 C511 0.930 . S
O504 Co473 2.037 . S
O504 C524 1.234 . S
C505 O479 1.269 . S
C505 O480 1.257 . S
C506 H481 0.930 . S
C506 C509 1.388 . S
C506 C511 1.418 . S
C507 H502 0.930 . S
C507 C510 1.404 . S
C507 C511 1.353 . S
N508 Co473 2.145 . S
N508 C509 1.397 . S
N508 C510 1.334 . S
C509 H490 0.929 . S
C509 C506 1.388 . S
C509 N508 1.397 . S
C510 H491 0.929 . S
C510 C507 1.404 . S
C510 N508 1.334 . S
C511 H503 0.930 . S
C511 C506 1.418 . S
C511 C507 1.353 . S
C512 H482 0.930 . S
C512 N513 1.330 . S
C512 C514 1.446 . S
N513 Co472 2.151 . S
N513 C512 1.330 . S
N513 C517 1.418 . S
C514 H493 0.929 . S
C514 C512 1.446 . S
C514 C515 1.332 . S
C515 H495 0.931 . S
C515 C514 1.332 . S
C515 C516 1.267 . S
C516 H484 0.929 . S
C516 C515 1.267 . S
C516 C517 1.251 . S
C517 H487 0.929 . S
C517 N513 1.418 . S
C517 C516 1.251 . S
C518 H485 0.930 . S
C518 C520 1.406 . S
C518 C523 1.261 . S
C519 H486 0.930 . S
C519 N521 1.325 . S
C519 C522 1.357 . S
C520 H488 0.928 . S
C520 C518 1.406 . S
C520 N521 1.261 . S
N521 Co472 2.214 . S
N521 C519 1.325 . S
N521 C520 1.261 . S
C522 H492 0.931 . S
C522 C519 1.357 . S
C522 C523 1.312 . S
C523 H494 0.930 . S
C523 C518 1.261 . S
C523 C522 1.312 . S
C524 O496 1.214 . S
C524 O504 1.234 . S
C525 H497 0.929 . S
C525 C528 1.391 . S
C525 C530 1.391 . S
C526 H498 0.929 . S
C526 C527 1.390 . S
C526 N529 1.391 . S
C527 H499 0.930 . S
C527 C526 1.390 . S
C527 C528 1.392 . S
C528 H500 0.929 . S
C528 C525 1.391 . S
C528 C527 1.392 . S
N529 Co473 2.257 . S
N529 C526 1.391 . S
N529 C530 1.388 . S
C530 H501 0.930 . S
C530 C525 1.391 . S
C530 N529 1.388 . S
Co531 O533 2.143 . S
Co531 O539 2.074 . S
Co531 O542 2.093 . S
Co531 O555 2.097 . S
Co531 N572 2.151 . S
Co531 N580 2.214 . S
Co532 O533 2.160 . S
Co532 O538 2.058 . S
Co532 O548 2.057 . S
Co532 O563 2.037 . S
Co532 N567 2.145 . S
Co532 N588 2.257 . S
O533 Co531 2.143 . S
O533 Co532 2.160 . S
C534 O535 1.278 . S
C534 O542 1.224 . S
O535 C534 1.278 . S
C536 O537 1.245 . S
C536 O548 1.232 . S
O537 C536 1.245 . S
O538 Co532 2.058 . S
O538 C564 1.269 . S
O539 Co531 2.074 . S
O539 C564 1.257 . S
H540 C565 0.930 . S
H541 C571 0.930 . S
O542 Co531 2.093 . S
O542 C534 1.224 . S
H543 C575 0.929 . S
H544 C577 0.930 . S
H545 C578 0.930 . S
H546 C576 0.929 . S
H547 C579 0.928 . S
O548 Co532 2.057 . S
O548 C536 1.232 . S
H549 C568 0.929 . S
H550 C569 0.929 . S
H551 C581 0.931 . S
H552 C573 0.929 . S
H553 C582 0.930 . S
H554 C574 0.931 . S
O555 Co531 2.097 . S
O555 C583 1.214 . S
H556 C584 0.929 . S
H557 C585 0.929 . S
H558 C586 0.930 . S
H559 C587 0.929 . S
H560 C589 0.930 . S
H561 C566 0.930 . S
H562 C570 0.930 . S
O563 Co532 2.037 . S
O563 C583 1.234 . S
C564 O538 1.269 . S
C564 O539 1.257 . S
C565 H540 0.930 . S
C565 C568 1.388 . S
C565 C570 1.418 . S
C566 H561 0.930 . S
C566 C569 1.404 . S
C566 C570 1.353 . S
N567 Co532 2.145 . S
N567 C568 1.397 . S
N567 C569 1.334 . S
C568 H549 0.929 . S
C568 C565 1.388 . S
C568 N567 1.397 . S
C569 H550 0.929 . S
C569 C566 1.404 . S
C569 N567 1.334 . S
C570 H562 0.930 . S
C570 C565 1.418 . S
C570 C566 1.353 . S
C571 H541 0.930 . S
C571 N572 1.330 . S
C571 C573 1.446 . S
N572 Co531 2.151 . S
N572 C571 1.330 . S
N572 C576 1.418 . S
C573 H552 0.929 . S
C573 C571 1.446 . S
C573 C574 1.332 . S
C574 H554 0.931 . S
C574 C573 1.332 . S
C574 C575 1.267 . S
C575 H543 0.929 . S
C575 C574 1.267 . S
C575 C576 1.251 . S
C576 H546 0.929 . S
C576 N572 1.418 . S
C576 C575 1.251 . S
C577 H544 0.930 . S
C577 C579 1.406 . S
C577 C582 1.261 . S
C578 H545 0.930 . S
C578 N580 1.325 . S
C578 C581 1.357 . S
C579 H547 0.928 . S
C579 C577 1.406 . S
C579 N580 1.261 . S
N580 Co531 2.214 . S
N580 C578 1.325 . S
N580 C579 1.261 . S
C581 H551 0.931 . S
C581 C578 1.357 . S
C581 C582 1.312 . S
C582 H553 0.930 . S
C582 C577 1.261 . S
C582 C581 1.312 . S
C583 O555 1.214 . S
C583 O563 1.234 . S
C584 H556 0.929 . S
C584 C587 1.391 . S
C584 C589 1.391 . S
C585 H557 0.929 . S
C585 C586 1.390 . S
C585 N588 1.391 . S
C586 H558 0.930 . S
C586 C585 1.390 . S
C586 C587 1.392 . S
C587 H559 0.929 . S
C587 C584 1.391 . S
C587 C586 1.392 . S
N588 Co532 2.257 . S
N588 C585 1.391 . S
N588 C589 1.388 . S
C589 H560 0.930 . S
C589 C584 1.391 . S
C589 N588 1.388 . S
Co590 O592 2.143 . S
Co590 O598 2.074 . S
Co590 O601 2.093 . S
Co590 O614 2.097 . S
Co590 N631 2.151 . S
Co590 N639 2.214 . S
Co591 O592 2.160 . S
Co591 O597 2.058 . S
Co591 O607 2.057 . S
Co591 O622 2.037 . S
Co591 N626 2.145 . S
Co591 N647 2.257 . S
O592 Co590 2.143 . S
O592 Co591 2.160 . S
C593 O594 1.278 . S
C593 O601 1.224 . S
O594 C593 1.278 . S
C595 O596 1.245 . S
C595 O607 1.232 . S
O596 C595 1.245 . S
O597 Co591 2.058 . S
O597 C623 1.269 . S
O598 Co590 2.074 . S
O598 C623 1.257 . S
H599 C624 0.930 . S
H600 C630 0.930 . S
O601 Co590 2.093 . S
O601 C593 1.224 . S
H602 C634 0.929 . S
H603 C636 0.930 . S
H604 C637 0.930 . S
H605 C635 0.929 . S
H606 C638 0.928 . S
O607 Co591 2.057 . S
O607 C595 1.232 . S
H608 C627 0.929 . S
H609 C628 0.929 . S
H610 C640 0.931 . S
H611 C632 0.929 . S
H612 C641 0.930 . S
H613 C633 0.931 . S
O614 Co590 2.097 . S
O614 C642 1.214 . S
H615 C643 0.929 . S
H616 C644 0.929 . S
H617 C645 0.930 . S
H618 C646 0.929 . S
H619 C648 0.930 . S
H620 C625 0.930 . S
H621 C629 0.930 . S
O622 Co591 2.037 . S
O622 C642 1.234 . S
C623 O597 1.269 . S
C623 O598 1.257 . S
C624 H599 0.930 . S
C624 C627 1.388 . S
C624 C629 1.418 . S
C625 H620 0.930 . S
C625 C628 1.404 . S
C625 C629 1.353 . S
N626 Co591 2.145 . S
N626 C627 1.397 . S
N626 C628 1.334 . S
C627 H608 0.929 . S
C627 C624 1.388 . S
C627 N626 1.397 . S
C628 H609 0.929 . S
C628 C625 1.404 . S
C628 N626 1.334 . S
C629 H621 0.930 . S
C629 C624 1.418 . S
C629 C625 1.353 . S
C630 H600 0.930 . S
C630 N631 1.330 . S
C630 C632 1.446 . S
N631 Co590 2.151 . S
N631 C630 1.330 . S
N631 C635 1.418 . S
C632 H611 0.929 . S
C632 C630 1.446 . S
C632 C633 1.332 . S
C633 H613 0.931 . S
C633 C632 1.332 . S
C633 C634 1.267 . S
C634 H602 0.929 . S
C634 C633 1.267 . S
C634 C635 1.251 . S
C635 H605 0.929 . S
C635 N631 1.418 . S
C635 C634 1.251 . S
C636 H603 0.930 . S
C636 C638 1.406 . S
C636 C641 1.261 . S
C637 H604 0.930 . S
C637 N639 1.325 . S
C637 C640 1.357 . S
C638 H606 0.928 . S
C638 C636 1.406 . S
C638 N639 1.261 . S
N639 Co590 2.214 . S
N639 C637 1.325 . S
N639 C638 1.261 . S
C640 H610 0.931 . S
C640 C637 1.357 . S
C640 C641 1.312 . S
C641 H612 0.930 . S
C641 C636 1.261 . S
C641 C640 1.312 . S
C642 O614 1.214 . S
C642 O622 1.234 . S
C643 H615 0.929 . S
C643 C646 1.391 . S
C643 C648 1.391 . S
C644 H616 0.929 . S
C644 C645 1.390 . S
C644 N647 1.391 . S
C645 H617 0.930 . S
C645 C644 1.390 . S
C645 C646 1.392 . S
C646 H618 0.929 . S
C646 C643 1.391 . S
C646 C645 1.392 . S
N647 Co591 2.257 . S
N647 C644 1.391 . S
N647 C648 1.388 . S
C648 H619 0.930 . S
C648 C643 1.391 . S
C648 N647 1.388 . S
Co649 O651 2.143 . S
Co649 O657 2.074 . S
Co649 O660 2.093 . S
Co649 O673 2.097 . S
Co649 N690 2.151 . S
Co649 N698 2.214 . S
Co650 O651 2.160 . S
Co650 O656 2.058 . S
Co650 O666 2.057 . S
Co650 O681 2.037 . S
Co650 N685 2.145 . S
Co650 N706 2.257 . S
O651 Co649 2.143 . S
O651 Co650 2.160 . S
C652 O653 1.278 . S
C652 O660 1.224 . S
O653 C652 1.278 . S
C654 O655 1.245 . S
C654 O666 1.232 . S
O655 C654 1.245 . S
O656 Co650 2.058 . S
O656 C682 1.269 . S
O657 Co649 2.074 . S
O657 C682 1.257 . S
H658 C683 0.930 . S
H659 C689 0.930 . S
O660 Co649 2.093 . S
O660 C652 1.224 . S
H661 C693 0.929 . S
H662 C695 0.930 . S
H663 C696 0.930 . S
H664 C694 0.929 . S
H665 C697 0.928 . S
O666 Co650 2.057 . S
O666 C654 1.232 . S
H667 C686 0.929 . S
H668 C687 0.929 . S
H669 C699 0.931 . S
H670 C691 0.929 . S
H671 C700 0.930 . S
H672 C692 0.931 . S
O673 Co649 2.097 . S
O673 C701 1.214 . S
H674 C702 0.929 . S
H675 C703 0.929 . S
H676 C704 0.930 . S
H677 C705 0.929 . S
H678 C707 0.930 . S
H679 C684 0.930 . S
H680 C688 0.930 . S
O681 Co650 2.037 . S
O681 C701 1.234 . S
C682 O656 1.269 . S
C682 O657 1.257 . S
C683 H658 0.930 . S
C683 C686 1.388 . S
C683 C688 1.418 . S
C684 H679 0.930 . S
C684 C687 1.404 . S
C684 C688 1.353 . S
N685 Co650 2.145 . S
N685 C686 1.397 . S
N685 C687 1.334 . S
C686 H667 0.929 . S
C686 C683 1.388 . S
C686 N685 1.397 . S
C687 H668 0.929 . S
C687 C684 1.404 . S
C687 N685 1.334 . S
C688 H680 0.930 . S
C688 C683 1.418 . S
C688 C684 1.353 . S
C689 H659 0.930 . S
C689 N690 1.330 . S
C689 C691 1.446 . S
N690 Co649 2.151 . S
N690 C689 1.330 . S
N690 C694 1.418 . S
C691 H670 0.929 . S
C691 C689 1.446 . S
C691 C692 1.332 . S
C692 H672 0.931 . S
C692 C691 1.332 . S
C692 C693 1.267 . S
C693 H661 0.929 . S
C693 C692 1.267 . S
C693 C694 1.251 . S
C694 H664 0.929 . S
C694 N690 1.418 . S
C694 C693 1.251 . S
C695 H662 0.930 . S
C695 C697 1.406 . S
C695 C700 1.261 . S
C696 H663 0.930 . S
C696 N698 1.325 . S
C696 C699 1.357 . S
C697 H665 0.928 . S
C697 C695 1.406 . S
C697 N698 1.261 . S
N698 Co649 2.214 . S
N698 C696 1.325 . S
N698 C697 1.261 . S
C699 H669 0.931 . S
C699 C696 1.357 . S
C699 C700 1.312 . S
C700 H671 0.930 . S
C700 C695 1.261 . S
C700 C699 1.312 . S
C701 O673 1.214 . S
C701 O681 1.234 . S
C702 H674 0.929 . S
C702 C705 1.391 . S
C702 C707 1.391 . S
C703 H675 0.929 . S
C703 C704 1.390 . S
C703 N706 1.391 . S
C704 H676 0.930 . S
C704 C703 1.390 . S
C704 C705 1.392 . S
C705 H677 0.929 . S
C705 C702 1.391 . S
C705 C704 1.392 . S
N706 Co650 2.257 . S
N706 C703 1.391 . S
N706 C707 1.388 . S
C707 H678 0.930 . S
C707 C702 1.391 . S
C707 N706 1.388 . S
Co708 O710 2.143 . S
Co708 O716 2.074 . S
Co708 O719 2.093 . S
Co708 O732 2.097 . S
Co708 N749 2.151 . S
Co708 N757 2.214 . S
Co709 O710 2.160 . S
Co709 O715 2.058 . S
Co709 O725 2.057 . S
Co709 O740 2.037 . S
Co709 N744 2.145 . S
Co709 N765 2.257 . S
O710 Co708 2.143 . S
O710 Co709 2.160 . S
C711 O712 1.278 . S
C711 O719 1.224 . S
O712 C711 1.278 . S
C713 O714 1.245 . S
C713 O725 1.232 . S
O714 C713 1.245 . S
O715 Co709 2.058 . S
O715 C741 1.269 . S
O716 Co708 2.074 . S
O716 C741 1.257 . S
H717 C742 0.930 . S
H718 C748 0.930 . S
O719 Co708 2.093 . S
O719 C711 1.224 . S
H720 C752 0.929 . S
H721 C754 0.930 . S
H722 C755 0.930 . S
H723 C753 0.929 . S
H724 C756 0.928 . S
O725 Co709 2.057 . S
O725 C713 1.232 . S
H726 C745 0.929 . S
H727 C746 0.929 . S
H728 C758 0.931 . S
H729 C750 0.929 . S
H730 C759 0.930 . S
H731 C751 0.931 . S
O732 Co708 2.097 . S
O732 C760 1.214 . S
H733 C761 0.929 . S
H734 C762 0.929 . S
H735 C763 0.930 . S
H736 C764 0.929 . S
H737 C766 0.930 . S
H738 C743 0.930 . S
H739 C747 0.930 . S
O740 Co709 2.037 . S
O740 C760 1.234 . S
C741 O715 1.269 . S
C741 O716 1.257 . S
C742 H717 0.930 . S
C742 C745 1.388 . S
C742 C747 1.418 . S
C743 H738 0.930 . S
C743 C746 1.404 . S
C743 C747 1.353 . S
N744 Co709 2.145 . S
N744 C745 1.397 . S
N744 C746 1.334 . S
C745 H726 0.929 . S
C745 C742 1.388 . S
C745 N744 1.397 . S
C746 H727 0.929 . S
C746 C743 1.404 . S
C746 N744 1.334 . S
C747 H739 0.930 . S
C747 C742 1.418 . S
C747 C743 1.353 . S
C748 H718 0.930 . S
C748 N749 1.330 . S
C748 C750 1.446 . S
N749 Co708 2.151 . S
N749 C748 1.330 . S
N749 C753 1.418 . S
C750 H729 0.929 . S
C750 C748 1.446 . S
C750 C751 1.332 . S
C751 H731 0.931 . S
C751 C750 1.332 . S
C751 C752 1.267 . S
C752 H720 0.929 . S
C752 C751 1.267 . S
C752 C753 1.251 . S
C753 H723 0.929 . S
C753 N749 1.418 . S
C753 C752 1.251 . S
C754 H721 0.930 . S
C754 C756 1.406 . S
C754 C759 1.261 . S
C755 H722 0.930 . S
C755 N757 1.325 . S
C755 C758 1.357 . S
C756 H724 0.928 . S
C756 C754 1.406 . S
C756 N757 1.261 . S
N757 Co708 2.214 . S
N757 C755 1.325 . S
N757 C756 1.261 . S
C758 H728 0.931 . S
C758 C755 1.357 . S
C758 C759 1.312 . S
C759 H730 0.930 . S
C759 C754 1.261 . S
C759 C758 1.312 . S
C760 O732 1.214 . S
C760 O740 1.234 . S
C761 H733 0.929 . S
C761 C764 1.391 . S
C761 C766 1.391 . S
C762 H734 0.929 . S
C762 C763 1.390 . S
C762 N765 1.391 . S
C763 H735 0.930 . S
C763 C762 1.390 . S
C763 C764 1.392 . S
C764 H736 0.929 . S
C764 C761 1.391 . S
C764 C763 1.392 . S
N765 Co709 2.257 . S
N765 C762 1.391 . S
N765 C766 1.388 . S
C766 H737 0.930 . S
C766 C761 1.391 . S
C766 N765 1.388 . S
Co767 O769 2.143 . S
Co767 O775 2.074 . S
Co767 O778 2.093 . S
Co767 O791 2.097 . S
Co767 N808 2.151 . S
Co767 N816 2.214 . S
Co768 O769 2.160 . S
Co768 O774 2.058 . S
Co768 O784 2.057 . S
Co768 O799 2.037 . S
Co768 N803 2.145 . S
Co768 N824 2.257 . S
O769 Co767 2.143 . S
O769 Co768 2.160 . S
C770 O771 1.278 . S
C770 O778 1.224 . S
O771 C770 1.278 . S
C772 O773 1.245 . S
C772 O784 1.232 . S
O773 C772 1.245 . S
O774 Co768 2.058 . S
O774 C800 1.269 . S
O775 Co767 2.074 . S
O775 C800 1.257 . S
H776 C801 0.930 . S
H777 C807 0.930 . S
O778 Co767 2.093 . S
O778 C770 1.224 . S
H779 C811 0.929 . S
H780 C813 0.930 . S
H781 C814 0.930 . S
H782 C812 0.929 . S
H783 C815 0.928 . S
O784 Co768 2.057 . S
O784 C772 1.232 . S
H785 C804 0.929 . S
H786 C805 0.929 . S
H787 C817 0.931 . S
H788 C809 0.929 . S
H789 C818 0.930 . S
H790 C810 0.931 . S
O791 Co767 2.097 . S
O791 C819 1.214 . S
H792 C820 0.929 . S
H793 C821 0.929 . S
H794 C822 0.930 . S
H795 C823 0.929 . S
H796 C825 0.930 . S
H797 C802 0.930 . S
H798 C806 0.930 . S
O799 Co768 2.037 . S
O799 C819 1.234 . S
C800 O774 1.269 . S
C800 O775 1.257 . S
C801 H776 0.930 . S
C801 C804 1.388 . S
C801 C806 1.418 . S
C802 H797 0.930 . S
C802 C805 1.404 . S
C802 C806 1.353 . S
N803 Co768 2.145 . S
N803 C804 1.397 . S
N803 C805 1.334 . S
C804 H785 0.929 . S
C804 C801 1.388 . S
C804 N803 1.397 . S
C805 H786 0.929 . S
C805 C802 1.404 . S
C805 N803 1.334 . S
C806 H798 0.930 . S
C806 C801 1.418 . S
C806 C802 1.353 . S
C807 H777 0.930 . S
C807 N808 1.330 . S
C807 C809 1.446 . S
N808 Co767 2.151 . S
N808 C807 1.330 . S
N808 C812 1.418 . S
C809 H788 0.929 . S
C809 C807 1.446 . S
C809 C810 1.332 . S
C810 H790 0.931 . S
C810 C809 1.332 . S
C810 C811 1.267 . S
C811 H779 0.929 . S
C811 C810 1.267 . S
C811 C812 1.251 . S
C812 H782 0.929 . S
C812 N808 1.418 . S
C812 C811 1.251 . S
C813 H780 0.930 . S
C813 C815 1.406 . S
C813 C818 1.261 . S
C814 H781 0.930 . S
C814 N816 1.325 . S
C814 C817 1.357 . S
C815 H783 0.928 . S
C815 C813 1.406 . S
C815 N816 1.261 . S
N816 Co767 2.214 . S
N816 C814 1.325 . S
N816 C815 1.261 . S
C817 H787 0.931 . S
C817 C814 1.357 . S
C817 C818 1.312 . S
C818 H789 0.930 . S
C818 C813 1.261 . S
C818 C817 1.312 . S
C819 O791 1.214 . S
C819 O799 1.234 . S
C820 H792 0.929 . S
C820 C823 1.391 . S
C820 C825 1.391 . S
C821 H793 0.929 . S
C821 C822 1.390 . S
C821 N824 1.391 . S
C822 H794 0.930 . S
C822 C821 1.390 . S
C822 C823 1.392 . S
C823 H795 0.929 . S
C823 C820 1.391 . S
C823 C822 1.392 . S
N824 Co768 2.257 . S
N824 C821 1.391 . S
N824 C825 1.388 . S
C825 H796 0.930 . S
C825 C820 1.391 . S
C825 N824 1.388 . S
Co826 O828 2.143 . S
Co826 O834 2.074 . S
Co826 O837 2.093 . S
Co826 O850 2.097 . S
Co826 N867 2.151 . S
Co826 N875 2.214 . S
Co827 O828 2.160 . S
Co827 O833 2.058 . S
Co827 O843 2.057 . S
Co827 O858 2.037 . S
Co827 N862 2.145 . S
Co827 N883 2.257 . S
O828 Co826 2.143 . S
O828 Co827 2.160 . S
C829 O830 1.278 . S
C829 O837 1.224 . S
O830 C829 1.278 . S
C831 O832 1.245 . S
C831 O843 1.232 . S
O832 C831 1.245 . S
O833 Co827 2.058 . S
O833 C859 1.269 . S
O834 Co826 2.074 . S
O834 C859 1.257 . S
H835 C860 0.930 . S
H836 C866 0.930 . S
O837 Co826 2.093 . S
O837 C829 1.224 . S
H838 C870 0.929 . S
H839 C872 0.930 . S
H840 C873 0.930 . S
H841 C871 0.929 . S
H842 C874 0.928 . S
O843 Co827 2.057 . S
O843 C831 1.232 . S
H844 C863 0.929 . S
H845 C864 0.929 . S
H846 C876 0.931 . S
H847 C868 0.929 . S
H848 C877 0.930 . S
H849 C869 0.931 . S
O850 Co826 2.097 . S
O850 C878 1.214 . S
H851 C879 0.929 . S
H852 C880 0.929 . S
H853 C881 0.930 . S
H854 C882 0.929 . S
H855 C884 0.930 . S
H856 C861 0.930 . S
H857 C865 0.930 . S
O858 Co827 2.037 . S
O858 C878 1.234 . S
C859 O833 1.269 . S
C859 O834 1.257 . S
C860 H835 0.930 . S
C860 C863 1.388 . S
C860 C865 1.418 . S
C861 H856 0.930 . S
C861 C864 1.404 . S
C861 C865 1.353 . S
N862 Co827 2.145 . S
N862 C863 1.397 . S
N862 C864 1.334 . S
C863 H844 0.929 . S
C863 C860 1.388 . S
C863 N862 1.397 . S
C864 H845 0.929 . S
C864 C861 1.404 . S
C864 N862 1.334 . S
C865 H857 0.930 . S
C865 C860 1.418 . S
C865 C861 1.353 . S
C866 H836 0.930 . S
C866 N867 1.330 . S
C866 C868 1.446 . S
N867 Co826 2.151 . S
N867 C866 1.330 . S
N867 C871 1.418 . S
C868 H847 0.929 . S
C868 C866 1.446 . S
C868 C869 1.332 . S
C869 H849 0.931 . S
C869 C868 1.332 . S
C869 C870 1.267 . S
C870 H838 0.929 . S
C870 C869 1.267 . S
C870 C871 1.251 . S
C871 H841 0.929 . S
C871 N867 1.418 . S
C871 C870 1.251 . S
C872 H839 0.930 . S
C872 C874 1.406 . S
C872 C877 1.261 . S
C873 H840 0.930 . S
C873 N875 1.325 . S
C873 C876 1.357 . S
C874 H842 0.928 . S
C874 C872 1.406 . S
C874 N875 1.261 . S
N875 Co826 2.214 . S
N875 C873 1.325 . S
N875 C874 1.261 . S
C876 H846 0.931 . S
C876 C873 1.357 . S
C876 C877 1.312 . S
C877 H848 0.930 . S
C877 C872 1.261 . S
C877 C876 1.312 . S
C878 O850 1.214 . S
C878 O858 1.234 . S
C879 H851 0.929 . S
C879 C882 1.391 . S
C879 C884 1.391 . S
C880 H852 0.929 . S
C880 C881 1.390 . S
C880 N883 1.391 . S
C881 H853 0.930 . S
C881 C880 1.390 . S
C881 C882 1.392 . S
C882 H854 0.929 . S
C882 C879 1.391 . S
C882 C881 1.392 . S
N883 Co827 2.257 . S
N883 C880 1.391 . S
N883 C884 1.388 . S
C884 H855 0.930 . S
C884 C879 1.391 . S
C884 N883 1.388 . S
Co885 O887 2.143 . S
Co885 O893 2.074 . S
Co885 O896 2.093 . S
Co885 O909 2.097 . S
Co885 N926 2.151 . S
Co885 N934 2.214 . S
Co886 O887 2.160 . S
Co886 O892 2.058 . S
Co886 O902 2.057 . S
Co886 O917 2.037 . S
Co886 N921 2.145 . S
Co886 N942 2.257 . S
O887 Co885 2.143 . S
O887 Co886 2.160 . S
C888 O889 1.278 . S
C888 O896 1.224 . S
O889 C888 1.278 . S
C890 O891 1.245 . S
C890 O902 1.232 . S
O891 C890 1.245 . S
O892 Co886 2.058 . S
O892 C918 1.269 . S
O893 Co885 2.074 . S
O893 C918 1.257 . S
H894 C919 0.930 . S
H895 C925 0.930 . S
O896 Co885 2.093 . S
O896 C888 1.224 . S
H897 C929 0.929 . S
H898 C931 0.930 . S
H899 C932 0.930 . S
H900 C930 0.929 . S
H901 C933 0.928 . S
O902 Co886 2.057 . S
O902 C890 1.232 . S
H903 C922 0.929 . S
H904 C923 0.929 . S
H905 C935 0.931 . S
H906 C927 0.929 . S
H907 C936 0.930 . S
H908 C928 0.931 . S
O909 Co885 2.097 . S
O909 C937 1.214 . S
H910 C938 0.929 . S
H911 C939 0.929 . S
H912 C940 0.930 . S
H913 C941 0.929 . S
H914 C943 0.930 . S
H915 C920 0.930 . S
H916 C924 0.930 . S
O917 Co886 2.037 . S
O917 C937 1.234 . S
C918 O892 1.269 . S
C918 O893 1.257 . S
C919 H894 0.930 . S
C919 C922 1.388 . S
C919 C924 1.418 . S
C920 H915 0.930 . S
C920 C923 1.404 . S
C920 C924 1.353 . S
N921 Co886 2.145 . S
N921 C922 1.397 . S
N921 C923 1.334 . S
C922 H903 0.929 . S
C922 C919 1.388 . S
C922 N921 1.397 . S
C923 H904 0.929 . S
C923 C920 1.404 . S
C923 N921 1.334 . S
C924 H916 0.930 . S
C924 C919 1.418 . S
C924 C920 1.353 . S
C925 H895 0.930 . S
C925 N926 1.330 . S
C925 C927 1.446 . S
N926 Co885 2.151 . S
N926 C925 1.330 . S
N926 C930 1.418 . S
C927 H906 0.929 . S
C927 C925 1.446 . S
C927 C928 1.332 . S
C928 H908 0.931 . S
C928 C927 1.332 . S
C928 C929 1.267 . S
C929 H897 0.929 . S
C929 C928 1.267 . S
C929 C930 1.251 . S
C930 H900 0.929 . S
C930 N926 1.418 . S
C930 C929 1.251 . S
C931 H898 0.930 . S
C931 C933 1.406 . S
C931 C936 1.261 . S
C932 H899 0.930 . S
C932 N934 1.325 . S
C932 C935 1.357 . S
C933 H901 0.928 . S
C933 C931 1.406 . S
C933 N934 1.261 . S
N934 Co885 2.214 . S
N934 C932 1.325 . S
N934 C933 1.261 . S
C935 H905 0.931 . S
C935 C932 1.357 . S
C935 C936 1.312 . S
C936 H907 0.930 . S
C936 C931 1.261 . S
C936 C935 1.312 . S
C937 O909 1.214 . S
C937 O917 1.234 . S
C938 H910 0.929 . S
C938 C941 1.391 . S
C938 C943 1.391 . S
C939 H911 0.929 . S
C939 C940 1.390 . S
C939 N942 1.391 . S
C940 H912 0.930 . S
C940 C939 1.390 . S
C940 C941 1.392 . S
C941 H913 0.929 . S
C941 C938 1.391 . S
C941 C940 1.392 . S
N942 Co886 2.257 . S
N942 C939 1.391 . S
N942 C943 1.388 . S
C943 H914 0.930 . S
C943 C938 1.391 . S
C943 N942 1.388 . S
C944 C945 1.369 . S
C944 C946 1.419 . S
C944 H948 0.930 . S
C945 C944 1.369 . S
C945 C954 1.429 1_545 S
C946 C944 1.419 . S
C946 C947 1.363 . S
C946 H949 0.929 . S
C947 C946 1.363 . S
C947 C953 1.428 1_545 S
H948 C944 0.930 . S
H949 C946 0.929 . S
S950 N951 1.613 . S
S950 N952 1.610 . S
N951 S950 1.613 . S
N951 C954 1.350 . S
N952 S950 1.610 . S
N952 C953 1.351 . S
C953 C947 1.428 1_565 S
C953 N952 1.351 . S
C953 C954 1.434 . S
C954 C945 1.429 1_565 S
C954 N951 1.350 . S
C954 C953 1.434 . S
C955 C956 1.369 . S
C955 C957 1.419 . S
C955 H959 0.930 . S
C956 C955 1.369 . S
C956 C965 1.429 1_565 S
C957 C955 1.419 . S
C957 C958 1.363 . S
C957 H960 0.929 . S
C958 C957 1.363 . S
C958 C964 1.428 1_565 S
H959 C955 0.930 . S
H960 C957 0.929 . S
S961 N962 1.613 . S
S961 N963 1.610 . S
N962 S961 1.613 . S
N962 C965 1.350 . S
N963 S961 1.610 . S
N963 C964 1.351 . S
C964 C958 1.428 1_545 S
C964 N963 1.351 . S
C964 C965 1.434 . S
C965 C956 1.429 1_545 S
C965 N962 1.350 . S
C965 C964 1.434 . S
C966 C967 1.369 . S
C966 C968 1.419 1_554 S
C966 H970 0.930 . S
C967 C966 1.369 . S
C967 C976 1.429 . S
C968 C966 1.419 1_556 S
C968 C969 1.363 . S
C968 H971 0.929 . S
C969 C968 1.363 . S
C969 C975 1.428 . S
H970 C966 0.930 . S
H971 C968 0.929 . S
S972 N973 1.616 1_556 S
S972 N974 1.607 . S
N973 S972 1.616 1_554 S
N973 C976 1.350 . S
N974 S972 1.607 . S
N974 C975 1.351 . S
C975 C969 1.428 . S
C975 N974 1.351 . S
C975 C976 1.434 1_556 S
C976 C967 1.429 . S
C976 N973 1.350 . S
C976 C975 1.434 1_554 S
C977 C978 1.369 1_565 S
C977 C979 1.419 1_556 S
C977 H981 0.930 . S
C978 C977 1.369 1_545 S
C978 C987 1.429 . S
C979 C977 1.419 1_554 S
C979 C980 1.363 1_565 S
C979 H982 0.929 . S
C980 C979 1.363 1_545 S
C980 C986 1.428 . S
H981 C977 0.930 . S
H982 C979 0.929 . S
S983 N984 1.616 1_554 S
S983 N985 1.608 . S
N984 S983 1.616 1_556 S
N984 C987 1.350 . S
N985 S983 1.608 . S
N985 C986 1.351 . S
C986 C980 1.428 . S
C986 N985 1.351 . S
C986 C987 1.434 1_554 S
C987 C978 1.429 . S
C987 N984 1.350 . S
C987 C986 1.434 1_556 S
C988 C989 1.369 . S
C988 C990 1.419 . S
C988 H992 0.930 . S
C989 C988 1.369 . S
C989 C998 1.429 . S
C990 C988 1.419 . S
C990 C991 1.363 . S
C990 H993 0.929 . S
C991 C990 1.363 . S
C991 C997 1.428 . S
H992 C988 0.930 . S
H993 C990 0.929 . S
S994 N995 1.613 . S
S994 N996 1.610 . S
N995 S994 1.613 . S
N995 C998 1.350 . S
N996 S994 1.610 . S
N996 C997 1.351 . S
C997 C991 1.428 . S
C997 N996 1.351 . S
C997 C998 1.434 . S
C998 C989 1.429 . S
C998 N995 1.350 . S
C998 C997 1.434 . S
C999 C1000 1.369 . S
C999 C1001 1.419 . S
C999 H1003 0.930 . S
C1000 C999 1.369 . S
C1000 C1009 1.429 . S
C1001 C999 1.419 . S
C1001 C1002 1.363 . S
C1001 H1004 0.929 . S
C1002 C1001 1.363 . S
C1002 C1008 1.428 . S
H1003 C999 0.930 . S
H1004 C1001 0.929 . S
S1005 N1006 1.613 . S
S1005 N1007 1.610 . S
N1006 S1005 1.613 . S
N1006 C1009 1.350 . S
N1007 S1005 1.610 . S
N1007 C1008 1.351 . S
C1008 C1002 1.428 . S
C1008 N1007 1.351 . S
C1008 C1009 1.434 . S
C1009 C1000 1.429 . S
C1009 N1006 1.350 . S
C1009 C1008 1.434 . S
C1010 C1011 1.369 . S
C1010 C1012 1.419 1_556 S
C1010 H1014 0.930 . S
C1011 C1010 1.369 . S
C1011 C1020 1.429 . S
C1012 C1010 1.419 1_554 S
C1012 C1013 1.363 . S
C1012 H1015 0.929 . S
C1013 C1012 1.363 . S
C1013 C1019 1.428 . S
H1014 C1010 0.930 . S
H1015 C1012 0.929 . S
S1016 N1017 1.616 1_554 S
S1016 N1018 1.607 . S
N1017 S1016 1.616 1_556 S
N1017 C1020 1.350 . S
N1018 S1016 1.607 . S
N1018 C1019 1.351 . S
C1019 C1013 1.428 . S
C1019 N1018 1.351 . S
C1019 C1020 1.434 1_554 S
C1020 C1011 1.429 . S
C1020 N1017 1.350 . S
C1020 C1019 1.434 1_556 S
C1021 C1022 1.369 . S
C1021 C1023 1.419 1_554 S
C1021 H1025 0.930 . S
C1022 C1021 1.369 . S
C1022 C1031 1.429 . S
C1023 C1021 1.419 1_556 S
C1023 C1024 1.363 . S
C1023 H1026 0.929 . S
C1024 C1023 1.363 . S
C1024 C1030 1.428 . S
H1025 C1021 0.930 . S
H1026 C1023 0.929 . S
S1027 N1028 1.616 1_556 S
S1027 N1029 1.608 . S
N1028 S1027 1.616 1_554 S
N1028 C1031 1.350 . S
N1029 S1027 1.608 . S
N1029 C1030 1.351 . S
C1030 C1024 1.428 . S
C1030 N1029 1.351 . S
C1030 C1031 1.434 1_556 S
C1031 C1022 1.429 . S
C1031 N1028 1.350 . S
C1031 C1030 1.434 1_554 S
C1032 C1033 1.369 1_545 S
C1032 C1034 1.419 . S
C1032 H1036 0.930 . S
C1033 C1032 1.369 1_565 S
C1033 C1042 1.429 . S
C1034 C1032 1.419 . S
C1034 C1035 1.363 . S
C1034 H1037 0.929 . S
C1035 C1034 1.363 . S
C1035 C1041 1.428 1_545 S
H1036 C1032 0.930 . S
H1037 C1034 0.929 . S
S1038 N1039 1.613 . S
S1038 N1040 1.610 . S
N1039 S1038 1.613 . S
N1039 C1042 1.350 . S
N1040 S1038 1.610 . S
N1040 C1041 1.351 . S
C1041 C1035 1.428 1_565 S
C1041 N1040 1.351 . S
C1041 C1042 1.434 . S
C1042 C1033 1.429 . S
C1042 N1039 1.350 . S
C1042 C1041 1.434 . S
C1043 C1044 1.369 . S
C1043 C1045 1.419 . S
C1043 H1047 0.930 . S
C1044 C1043 1.369 . S
C1044 C1053 1.429 1_565 S
C1045 C1043 1.419 . S
C1045 C1046 1.363 1_565 S
C1045 H1048 0.929 . S
C1046 C1045 1.363 1_545 S
C1046 C1052 1.428 . S
H1047 C1043 0.930 . S
H1048 C1045 0.929 . S
S1049 N1050 1.613 . S
S1049 N1051 1.610 . S
N1050 S1049 1.613 . S
N1050 C1053 1.350 . S
N1051 S1049 1.610 . S
N1051 C1052 1.351 . S
C1052 C1046 1.428 . S
C1052 N1051 1.351 . S
C1052 C1053 1.434 . S
C1053 C1044 1.429 1_545 S
C1053 N1050 1.350 . S
C1053 C1052 1.434 . S
C1054 C1055 1.369 1_545 S
C1054 C1056 1.419 . S
C1054 H1058 0.930 . S
C1055 C1054 1.369 1_565 S
C1055 C1064 1.429 . S
C1056 C1054 1.419 . S
C1056 C1057 1.363 . S
C1056 H1059 0.929 . S
C1057 C1056 1.363 . S
C1057 C1063 1.428 1_545 S
H1058 C1054 0.930 . S
H1059 C1056 0.929 . S
S1060 N1061 1.613 . S
S1060 N1062 1.610 . S
N1061 S1060 1.613 . S
N1061 C1064 1.350 . S
N1062 S1060 1.610 . S
N1062 C1063 1.351 . S
C1063 C1057 1.428 1_565 S
C1063 N1062 1.351 . S
C1063 C1064 1.434 . S
C1064 C1055 1.429 . S
C1064 N1061 1.350 . S
C1064 C1063 1.434 . S
C1065 C1066 1.369 1_565 S
C1065 C1067 1.419 . S
C1065 H1069 0.930 . S
C1066 C1065 1.369 1_545 S
C1066 C1075 1.429 . S
C1067 C1065 1.419 . S
C1067 C1068 1.363 . S
C1067 H1070 0.929 . S
C1068 C1067 1.363 . S
C1068 C1074 1.428 1_565 S
H1069 C1065 0.930 . S
H1070 C1067 0.929 . S
S1071 N1072 1.613 . S
S1071 N1073 1.610 . S
N1072 S1071 1.613 . S
N1072 C1075 1.350 . S
N1073 S1071 1.610 . S
N1073 C1074 1.351 . S
C1074 C1068 1.428 1_545 S
C1074 N1073 1.351 . S
C1074 C1075 1.434 . S
C1075 C1066 1.429 . S
C1075 N1072 1.350 . S
C1075 C1074 1.434 . S
C1076 C1077 1.369 . S
C1076 C1078 1.419 1_655 S
C1076 H1080 0.930 . S
C1077 C1076 1.369 . S
C1077 C1086 1.429 . S
C1078 C1076 1.419 1_455 S
C1078 C1079 1.363 . S
C1078 H1081 0.929 . S
C1079 C1078 1.363 . S
C1079 C1085 1.428 . S
H1080 C1076 0.930 . S
H1081 C1078 0.929 . S
S1082 N1083 1.613 1_455 S
S1082 N1084 1.610 . S
N1083 S1082 1.613 1_655 S
N1083 C1086 1.350 . S
N1084 S1082 1.610 . S
N1084 C1085 1.351 . S
C1085 C1079 1.428 . S
C1085 N1084 1.351 . S
C1085 C1086 1.434 1_455 S
C1086 C1077 1.429 . S
C1086 N1083 1.350 . S
C1086 C1085 1.434 1_655 S
C1087 C1088 1.369 . S
C1087 C1089 1.419 1_455 S
C1087 H1091 0.930 . S
C1088 C1087 1.369 . S
C1088 C1097 1.429 . S
C1089 C1087 1.419 1_655 S
C1089 C1090 1.363 . S
C1089 H1092 0.929 . S
C1090 C1089 1.363 . S
C1090 C1096 1.428 . S
H1091 C1087 0.930 . S
H1092 C1089 0.929 . S
S1093 N1094 1.613 . S
S1093 N1095 1.610 1_455 S
N1094 S1093 1.613 . S
N1094 C1097 1.350 . S
N1095 S1093 1.610 1_655 S
N1095 C1096 1.351 . S
C1096 C1090 1.428 . S
C1096 N1095 1.351 . S
C1096 C1097 1.434 1_655 S
C1097 C1088 1.429 . S
C1097 N1094 1.350 . S
C1097 C1096 1.434 1_455 S
C1098 C1099 1.369 . S
C1098 C1100 1.419 1_655 S
C1098 H1102 0.930 . S
C1099 C1098 1.369 . S
C1099 C1108 1.429 . S
C1100 C1098 1.419 1_455 S
C1100 C1101 1.363 . S
C1100 H1103 0.929 . S
C1101 C1100 1.363 . S
C1101 C1107 1.428 . S
H1102 C1098 0.930 . S
H1103 C1100 0.929 . S
S1104 N1105 1.613 . S
S1104 N1106 1.610 1_655 S
N1105 S1104 1.613 . S
N1105 C1108 1.350 . S
N1106 S1104 1.610 1_455 S
N1106 C1107 1.351 . S
C1107 C1101 1.428 . S
C1107 N1106 1.351 . S
C1107 C1108 1.434 1_455 S
C1108 C1099 1.429 . S
C1108 N1105 1.350 . S
C1108 C1107 1.434 1_655 S
C1109 C1110 1.369 . S
C1109 C1111 1.419 1_455 S
C1109 H1113 0.930 . S
C1110 C1109 1.369 . S
C1110 C1119 1.429 . S
C1111 C1109 1.419 1_655 S
C1111 C1112 1.363 . S
C1111 H1114 0.929 . S
C1112 C1111 1.363 . S
C1112 C1118 1.428 . S
H1113 C1109 0.930 . S
H1114 C1111 0.929 . S
S1115 N1116 1.613 . S
S1115 N1117 1.610 1_455 S
N1116 S1115 1.613 . S
N1116 C1119 1.350 . S
N1117 S1115 1.610 1_655 S
N1117 C1118 1.351 . S
C1118 C1112 1.428 . S
C1118 N1117 1.351 . S
C1118 C1119 1.434 1_655 S
C1119 C1110 1.429 . S
C1119 N1116 1.350 . S
C1119 C1118 1.434 1_455 S
C1120 C1121 1.369 . S
C1120 C1122 1.419 . S
C1120 H1124 0.930 . S
C1121 C1120 1.369 . S
C1121 C1130 1.429 . S
C1122 C1120 1.419 . S
C1122 C1123 1.363 . S
C1122 H1125 0.929 . S
C1123 C1122 1.363 . S
C1123 C1129 1.428 . S
H1124 C1120 0.930 . S
H1125 C1122 0.929 . S
S1126 N1127 1.613 . S
S1126 N1128 1.610 . S
N1127 S1126 1.613 . S
N1127 C1130 1.350 . S
N1128 S1126 1.610 . S
N1128 C1129 1.351 . S
C1129 C1123 1.428 . S
C1129 N1128 1.351 . S
C1129 C1130 1.434 . S
C1130 C1121 1.429 . S
C1130 N1127 1.350 . S
C1130 C1129 1.434 . S
C1131 C1132 1.369 . S
C1131 C1133 1.419 . S
C1131 H1135 0.930 . S
C1132 C1131 1.369 . S
C1132 C1141 1.429 . S
C1133 C1131 1.419 . S
C1133 C1134 1.363 . S
C1133 H1136 0.929 . S
C1134 C1133 1.363 . S
C1134 C1140 1.428 . S
H1135 C1131 0.930 . S
H1136 C1133 0.929 . S
S1137 N1138 1.613 . S
S1137 N1139 1.610 . S
N1138 S1137 1.613 . S
N1138 C1141 1.350 . S
N1139 S1137 1.610 . S
N1139 C1140 1.351 . S
C1140 C1134 1.428 . S
C1140 N1139 1.351 . S
C1140 C1141 1.434 . S
C1141 C1132 1.429 . S
C1141 N1138 1.350 . S
C1141 C1140 1.434 . S
C1142 C1143 1.369 . S
C1142 C1144 1.419 . S
C1142 H1146 0.930 . S
C1143 C1142 1.369 . S
C1143 C1152 1.429 . S
C1144 C1142 1.419 . S
C1144 C1145 1.363 . S
C1144 H1147 0.929 . S
C1145 C1144 1.363 . S
C1145 C1151 1.428 . S
H1146 C1142 0.930 . S
H1147 C1144 0.929 . S
S1148 N1149 1.613 . S
S1148 N1150 1.610 . S
N1149 S1148 1.613 . S
N1149 C1152 1.350 . S
N1150 S1148 1.610 . S
N1150 C1151 1.351 . S
C1151 C1145 1.428 . S
C1151 N1150 1.351 . S
C1151 C1152 1.434 . S
C1152 C1143 1.429 . S
C1152 N1149 1.350 . S
C1152 C1151 1.434 . S
C1153 C1154 1.369 . S
C1153 C1155 1.419 . S
C1153 H1157 0.930 . S
C1154 C1153 1.369 . S
C1154 C1163 1.429 . S
C1155 C1153 1.419 . S
C1155 C1156 1.363 . S
C1155 H1158 0.929 . S
C1156 C1155 1.363 . S
C1156 C1162 1.428 . S
H1157 C1153 0.930 . S
H1158 C1155 0.929 . S
S1159 N1160 1.613 . S
S1159 N1161 1.610 . S
N1160 S1159 1.613 . S
N1160 C1163 1.350 . S
N1161 S1159 1.610 . S
N1161 C1162 1.351 . S
C1162 C1156 1.428 . S
C1162 N1161 1.351 . S
C1162 C1163 1.434 . S
C1163 C1154 1.429 . S
C1163 N1160 1.350 . S
C1163 C1162 1.434 . S
C1164 C1165 1.369 . S
C1164 C1166 1.419 . S
C1164 H1168 0.930 . S
C1165 C1164 1.369 . S
C1165 C1174 1.429 . S
C1166 C1164 1.419 . S
C1166 C1167 1.363 . S
C1166 H1169 0.929 . S
C1167 C1166 1.363 . S
C1167 C1173 1.428 . S
H1168 C1164 0.930 . S
H1169 C1166 0.929 . S
S1170 N1171 1.613 . S
S1170 N1172 1.610 . S
N1171 S1170 1.613 . S
N1171 C1174 1.350 . S
N1172 S1170 1.610 . S
N1172 C1173 1.351 . S
C1173 C1167 1.428 . S
C1173 N1172 1.351 . S
C1173 C1174 1.434 . S
C1174 C1165 1.429 . S
C1174 N1171 1.350 . S
C1174 C1173 1.434 . S
C1175 C1176 1.369 . S
C1175 C1177 1.419 . S
C1175 H1179 0.930 . S
C1176 C1175 1.369 . S
C1176 C1185 1.429 . S
C1177 C1175 1.419 . S
C1177 C1178 1.363 . S
C1177 H1180 0.929 . S
C1178 C1177 1.363 . S
C1178 C1184 1.428 . S
H1179 C1175 0.930 . S
H1180 C1177 0.929 . S
S1181 N1182 1.613 . S
S1181 N1183 1.610 . S
N1182 S1181 1.613 . S
N1182 C1185 1.350 . S
N1183 S1181 1.610 . S
N1183 C1184 1.351 . S
C1184 C1178 1.428 . S
C1184 N1183 1.351 . S
C1184 C1185 1.434 . S
C1185 C1176 1.429 . S
C1185 N1182 1.350 . S
C1185 C1184 1.434 . S
C1186 C1187 1.369 . S
C1186 C1188 1.419 . S
C1186 H1190 0.930 . S
C1187 C1186 1.369 . S
C1187 C1196 1.429 . S
C1188 C1186 1.419 . S
C1188 C1189 1.363 . S
C1188 H1191 0.929 . S
C1189 C1188 1.363 . S
C1189 C1195 1.428 . S
H1190 C1186 0.930 . S
H1191 C1188 0.929 . S
S1192 N1193 1.613 . S
S1192 N1194 1.610 . S
N1193 S1192 1.613 . S
N1193 C1196 1.350 . S
N1194 S1192 1.610 . S
N1194 C1195 1.351 . S
C1195 C1189 1.428 . S
C1195 N1194 1.351 . S
C1195 C1196 1.434 . S
C1196 C1187 1.429 . S
C1196 N1193 1.350 . S
C1196 C1195 1.434 . S
C1197 C1198 1.369 . S
C1197 C1199 1.419 . S
C1197 H1201 0.930 . S
C1198 C1197 1.369 . S
C1198 C1207 1.429 . S
C1199 C1197 1.419 . S
C1199 C1200 1.363 . S
C1199 H1202 0.929 . S
C1200 C1199 1.363 . S
C1200 C1206 1.428 . S
H1201 C1197 0.930 . S
H1202 C1199 0.929 . S
S1203 N1204 1.613 . S
S1203 N1205 1.610 . S
N1204 S1203 1.613 . S
N1204 C1207 1.350 . S
N1205 S1203 1.610 . S
N1205 C1206 1.351 . S
C1206 C1200 1.428 . S
C1206 N1205 1.351 . S
C1206 C1207 1.434 . S
C1207 C1198 1.429 . S
C1207 N1204 1.350 . S
C1207 C1206 1.434 . S
C1208 C1209 1.369 1_545 S
C1208 C1210 1.419 . S
C1208 H1212 0.930 . S
C1209 C1208 1.369 1_565 S
C1209 C1218 1.429 . S
C1210 C1208 1.419 . S
C1210 C1211 1.363 . S
C1210 H1213 0.929 . S
C1211 C1210 1.363 . S
C1211 C1217 1.428 1_545 S
H1212 C1208 0.930 . S
H1213 C1210 0.929 . S
S1214 N1215 1.613 . S
S1214 N1216 1.610 . S
N1215 S1214 1.613 . S
N1215 C1218 1.350 . S
N1216 S1214 1.610 . S
N1216 C1217 1.351 . S
C1217 C1211 1.428 1_565 S
C1217 N1216 1.351 . S
C1217 C1218 1.434 . S
C1218 C1209 1.429 . S
C1218 N1215 1.350 . S
C1218 C1217 1.434 . S
C1219 C1220 1.369 . S
C1219 C1221 1.419 . S
C1219 H1223 0.930 . S
C1220 C1219 1.369 . S
C1220 C1229 1.429 1_565 S
C1221 C1219 1.419 . S
C1221 C1222 1.363 1_565 S
C1221 H1224 0.929 . S
C1222 C1221 1.363 1_545 S
C1222 C1228 1.428 . S
H1223 C1219 0.930 . S
H1224 C1221 0.929 . S
S1225 N1226 1.613 . S
S1225 N1227 1.610 . S
N1226 S1225 1.613 . S
N1226 C1229 1.350 . S
N1227 S1225 1.610 . S
N1227 C1228 1.351 . S
C1228 C1222 1.428 . S
C1228 N1227 1.351 . S
C1228 C1229 1.434 . S
C1229 C1220 1.429 1_545 S
C1229 N1226 1.350 . S
C1229 C1228 1.434 . S
C1230 C1231 1.369 . S
C1230 C1232 1.419 . S
C1230 H1234 0.930 . S
C1231 C1230 1.369 . S
C1231 C1240 1.429 1_565 S
C1232 C1230 1.419 . S
C1232 C1233 1.363 1_565 S
C1232 H1235 0.929 . S
C1233 C1232 1.363 1_545 S
C1233 C1239 1.428 . S
H1234 C1230 0.930 . S
H1235 C1232 0.929 . S
S1236 N1237 1.613 . S
S1236 N1238 1.610 . S
N1237 S1236 1.613 . S
N1237 C1240 1.350 . S
N1238 S1236 1.610 . S
N1238 C1239 1.351 . S
C1239 C1233 1.428 . S
C1239 N1238 1.351 . S
C1239 C1240 1.434 . S
C1240 C1231 1.429 1_545 S
C1240 N1237 1.350 . S
C1240 C1239 1.434 . S
C1241 C1242 1.369 1_565 S
C1241 C1243 1.419 . S
C1241 H1245 0.930 . S
C1242 C1241 1.369 1_545 S
C1242 C1251 1.429 . S
C1243 C1241 1.419 . S
C1243 C1244 1.363 . S
C1243 H1246 0.929 . S
C1244 C1243 1.363 . S
C1244 C1250 1.428 1_565 S
H1245 C1241 0.930 . S
H1246 C1243 0.929 . S
S1247 N1248 1.613 . S
S1247 N1249 1.610 . S
N1248 S1247 1.613 . S
N1248 C1251 1.350 . S
N1249 S1247 1.610 . S
N1249 C1250 1.351 . S
C1250 C1244 1.428 1_545 S
C1250 N1249 1.351 . S
C1250 C1251 1.434 . S
C1251 C1242 1.429 . S
C1251 N1248 1.350 . S
C1251 C1250 1.434 . S
C1252 C1253 1.369 . S
C1252 C1254 1.419 . S
C1252 H1256 0.930 . S
C1253 C1252 1.369 . S
C1253 C1262 1.429 . S
C1254 C1252 1.419 . S
C1254 C1255 1.363 . S
C1254 H1257 0.929 . S
C1255 C1254 1.363 . S
C1255 C1261 1.428 . S
H1256 C1252 0.930 . S
H1257 C1254 0.929 . S
S1258 N1259 1.613 . S
S1258 N1260 1.610 . S
N1259 S1258 1.613 . S
N1259 C1262 1.350 . S
N1260 S1258 1.610 . S
N1260 C1261 1.351 . S
C1261 C1255 1.428 . S
C1261 N1260 1.351 . S
C1261 C1262 1.434 . S
C1262 C1253 1.429 . S
C1262 N1259 1.350 . S
C1262 C1261 1.434 . S
C1263 C1264 1.369 . S
C1263 C1265 1.419 . S
C1263 H1267 0.930 . S
C1264 C1263 1.369 . S
C1264 C1273 1.429 . S
C1265 C1263 1.419 . S
C1265 C1266 1.363 . S
C1265 H1268 0.929 . S
C1266 C1265 1.363 . S
C1266 C1272 1.428 . S
H1267 C1263 0.930 . S
H1268 C1265 0.929 . S
S1269 N1270 1.613 . S
S1269 N1271 1.610 . S
N1270 S1269 1.613 . S
N1270 C1273 1.350 . S
N1271 S1269 1.610 . S
N1271 C1272 1.351 . S
C1272 C1266 1.428 . S
C1272 N1271 1.351 . S
C1272 C1273 1.434 . S
C1273 C1264 1.429 . S
C1273 N1270 1.350 . S
C1273 C1272 1.434 . S
C1274 C1275 1.369 . S
C1274 C1276 1.419 . S
C1274 H1278 0.930 . S
C1275 C1274 1.369 . S
C1275 C1284 1.429 . S
C1276 C1274 1.419 . S
C1276 C1277 1.363 . S
C1276 H1279 0.929 . S
C1277 C1276 1.363 . S
C1277 C1283 1.428 . S
H1278 C1274 0.930 . S
H1279 C1276 0.929 . S
S1280 N1281 1.613 . S
S1280 N1282 1.610 . S
N1281 S1280 1.613 . S
N1281 C1284 1.350 . S
N1282 S1280 1.610 . S
N1282 C1283 1.351 . S
C1283 C1277 1.428 . S
C1283 N1282 1.351 . S
C1283 C1284 1.434 . S
C1284 C1275 1.429 . S
C1284 N1281 1.350 . S
C1284 C1283 1.434 . S
C1285 C1286 1.369 . S
C1285 C1287 1.419 . S
C1285 H1289 0.930 . S
C1286 C1285 1.369 . S
C1286 C1295 1.429 . S
C1287 C1285 1.419 . S
C1287 C1288 1.363 . S
C1287 H1290 0.929 . S
C1288 C1287 1.363 . S
C1288 C1294 1.428 . S
H1289 C1285 0.930 . S
H1290 C1287 0.929 . S
S1291 N1292 1.613 . S
S1291 N1293 1.610 . S
N1292 S1291 1.613 . S
N1292 C1295 1.350 . S
N1293 S1291 1.610 . S
N1293 C1294 1.351 . S
C1294 C1288 1.428 . S
C1294 N1293 1.351 . S
C1294 C1295 1.434 . S
C1295 C1286 1.429 . S
C1295 N1292 1.350 . S
C1295 C1294 1.434 . S
C945 C3 1.446 . S
C947 C298 1.445 . S
C956 C239 1.440 . S
C958 C62 1.441 . S
C967 C121 1.445 . S
C969 C416 1.445 . S
C978 C357 1.442 . S
C980 C180 1.442 . S
C989 C770 1.444 . S
C991 C475 1.443 . S
C1000 C711 1.443 . S
C1002 C534 1.443 . S
C1011 C888 1.442 . S
C1013 C593 1.442 . S
C1022 C652 1.444 . S
C1024 C829 1.444 . S
C1033 C111 1.501 . S
C1035 C52 1.502 . S
C1044 C170 1.502 . S
C1046 C229 1.501 . S
C1055 C288 1.501 . S
C1057 C347 1.502 . S
C1066 C406 1.501 . S
C1068 C465 1.501 . S
C1077 C524 1.500 . S
C1079 C583 1.501 . S
C1088 C701 1.501 . S
C1090 C642 1.501 . S
C1099 C819 1.501 . S
C1101 C760 1.501 . S
C1110 C878 1.502 . S
C1112 C937 1.501 . S
C1121 C536 1.510 . S
C1123 C5 1.510 . S
C1132 C64 1.509 . S
C1134 C477 1.510 . S
C1143 C654 1.509 . S
C1145 C123 1.510 . S
C1154 C182 1.510 . S
C1156 C595 1.509 . S
C1165 C241 1.509 . S
C1167 C772 1.510 . S
C1176 C713 1.509 . S
C1178 C300 1.510 . S
C1187 C359 1.510 . S
C1189 C890 1.510 . S
C1198 C831 1.510 . S
C1200 C418 1.510 . S
C1209 C33 1.368 1_565 S
C1211 C151 1.362 1_545 S
C1220 C210 1.366 1_565 S
C1222 C92 1.367 1_545 S
C1231 C387 1.360 1_565 S
C1233 C269 1.369 1_545 S
C1242 C446 1.370 1_545 S
C1244 C328 1.362 1_565 S
C1253 C623 1.360 . S
C1255 C505 1.368 . S
C1264 C564 1.362 . S
C1266 C682 1.369 . S
C1275 C859 1.367 . S
C1277 C741 1.366 . S
C1286 C800 1.365 . S
C1288 C918 1.363 . S
