# Generated by pormake.
# Topology umj, (4)-cn, num edge types: 1
# Building blocks:
#     Node 0, Type 0, BuildingBlock: ESEHIV_clean_sbu_0, # of connection points: 4
#     Node 1, Type 0, BuildingBlock: ESEHIV_clean_sbu_0, # of connection points: 4
#     Node 2, Type 0, BuildingBlock: ESEHIV_clean_sbu_0, # of connection points: 4
#     Node 3, Type 0, BuildingBlock: ESEHIV_clean_sbu_0, # of connection points: 4
#     Node 4, Type 0, BuildingBlock: ESEHIV_clean_sbu_0, # of connection points: 4
#     Node 5, Type 0, BuildingBlock: ESEHIV_clean_sbu_0, # of connection points: 4
#     Node 6, Type 0, BuildingBlock: ESEHIV_clean_sbu_0, # of connection points: 4
#     Node 7, Type 0, BuildingBlock: ESEHIV_clean_sbu_0, # of connection points: 4
#     Node 8, Type 0, BuildingBlock: ESEHIV_clean_sbu_0, # of connection points: 4
#     Node 9, Type 0, BuildingBlock: ESEHIV_clean_sbu_0, # of connection points: 4
#     Node 10, Type 0, BuildingBlock: ESEHIV_clean_sbu_0, # of connection points: 4
#     Node 11, Type 0, BuildingBlock: ESEHIV_clean_sbu_0, # of connection points: 4
#     Edge 12, Type (0, 0), BuildingBlock: OJICUG_clean_linker_0, # of connection points: 2
#     Edge 13, Type (0, 0), BuildingBlock: OJICUG_clean_linker_0, # of connection points: 2
#     Edge 14, Type (0, 0), BuildingBlock: OJICUG_clean_linker_0, # of connection points: 2
#     Edge 15, Type (0, 0), BuildingBlock: OJICUG_clean_linker_0, # of connection points: 2
#     Edge 16, Type (0, 0), BuildingBlock: OJICUG_clean_linker_0, # of connection points: 2
#     Edge 17, Type (0, 0), BuildingBlock: OJICUG_clean_linker_0, # of connection points: 2
#     Edge 18, Type (0, 0), BuildingBlock: OJICUG_clean_linker_0, # of connection points: 2
#     Edge 19, Type (0, 0), BuildingBlock: OJICUG_clean_linker_0, # of connection points: 2
#     Edge 20, Type (0, 0), BuildingBlock: OJICUG_clean_linker_0, # of connection points: 2
#     Edge 21, Type (0, 0), BuildingBlock: OJICUG_clean_linker_0, # of connection points: 2
#     Edge 22, Type (0, 0), BuildingBlock: OJICUG_clean_linker_0, # of connection points: 2
#     Edge 23, Type (0, 0), BuildingBlock: OJICUG_clean_linker_0, # of connection points: 2
#     Edge 24, Type (0, 0), BuildingBlock: OJICUG_clean_linker_0, # of connection points: 2
#     Edge 25, Type (0, 0), BuildingBlock: OJICUG_clean_linker_0, # of connection points: 2
#     Edge 26, Type (0, 0), BuildingBlock: OJICUG_clean_linker_0, # of connection points: 2
#     Edge 27, Type (0, 0), BuildingBlock: OJICUG_clean_linker_0, # of connection points: 2
#     Edge 28, Type (0, 0), BuildingBlock: OJICUG_clean_linker_0, # of connection points: 2
#     Edge 29, Type (0, 0), BuildingBlock: OJICUG_clean_linker_0, # of connection points: 2
#     Edge 30, Type (0, 0), BuildingBlock: OJICUG_clean_linker_0, # of connection points: 2
#     Edge 31, Type (0, 0), BuildingBlock: OJICUG_clean_linker_0, # of connection points: 2
#     Edge 32, Type (0, 0), BuildingBlock: OJICUG_clean_linker_0, # of connection points: 2
#     Edge 33, Type (0, 0), BuildingBlock: OJICUG_clean_linker_0, # of connection points: 2
#     Edge 34, Type (0, 0), BuildingBlock: OJICUG_clean_linker_0, # of connection points: 2
#     Edge 35, Type (0, 0), BuildingBlock: OJICUG_clean_linker_0, # of connection points: 2
# Relax obj value: 0.040
# Max RMSD: 0.104
# Mean RMSD: 0.087
data_MOF--net-umj--node1-ESEHIV_clean_sbu_0--edge1-OJICUG_clean_linker_0
_symmetry_space_group_name_H-M    P1
_symmetry_Int_Tables_number       1
_symmetry_cell_setting            triclinic
loop_
_symmetry_equiv_pos_as_xyz
'x, y, z'
_cell_length_a     21.723014
_cell_length_b     26.813136
_cell_length_c     66.983977
_cell_angle_alpha  89.99982
_cell_angle_beta   90.036344
_cell_angle_gamma 114.02753
loop_
_atom_site_label
_atom_site_type_symbol
_atom_site_fract_x
_atom_site_fract_y
_atom_site_fract_z
_atom_type_partial_charge
Cu0 Cu 1.0114 0.2696 0.0806 0.0
N1 N 0.96445 0.1928 0.0771 0.0
N2 N 0.94851 0.10419 0.07421 0.0
C3 C 0.99385 0.15681 0.07633 0.0
C4 C 0.8881 0.10769 0.07359 0.0
C5 C 0.89803 0.16193 0.07536 0.0
O6 O 0.08422 0.28822 0.06047 0.0
C7 C 0.98331 0.26503 0.12155 0.0
O8 O 0.9223 0.24508 0.11391 0.0
H9 H 0.04771 0.1692 0.07765 0.0
H10 H 0.85939 0.17764 0.07547 0.0
N11 N 0.96263 0.31254 0.07399 0.0
N12 N 0.94523 0.38893 0.06822 0.0
C13 C 0.97885 0.36544 0.07921 0.0
C14 C 0.91617 0.30212 0.05949 0.0
C15 C 0.90534 0.3487 0.05596 0.0
C16 C 0.10857 0.33268 0.05048 0.0
O17 O 0.09724 0.37471 0.05652 0.0
H18 H 1.01895 0.38763 0.08958 0.0
H19 H 0.89504 0.26443 0.0511 0.0
O20 O 0.03355 0.28033 0.10948 0.0
H21 H 0.83978 0.07361 0.0718 0.0
H22 H 0.87261 0.35319 0.04456 0.0
Cu23 Cu 0.80111 0.06724 0.41437 0.0
N24 N 0.80597 0.08534 0.44188 0.0
N25 N 0.7973 0.0712 0.47524 0.0
C26 C 0.78887 0.04809 0.45684 0.0
C27 C 0.82082 0.12544 0.47155 0.0
C28 C 0.8262 0.13398 0.45109 0.0
O29 O 0.70203 0.0261 0.41003 0.0
C30 C 0.8847 1.01062 0.39805 0.0
O31 O 0.84561 0.99497 0.38226 0.0
H32 H 0.76999 1.00461 0.45416 0.0
H33 H 0.84413 0.17297 0.44354 0.0
N34 N 0.82924 0.12694 0.39619 0.0
N35 N 0.85019 0.16709 0.3658 0.0
C36 C 0.84927 0.12489 0.37717 0.0
C37 C 0.81816 0.17278 0.39699 0.0
C38 C 0.83148 0.19771 0.37842 0.0
C39 C 0.67115 0.03097 0.39432 0.0
O40 O 0.70657 0.05255 0.37827 0.0
H41 H 0.85871 0.09106 0.37144 0.0
H42 H 0.79705 0.18513 0.40971 0.0
O43 O 0.8691 0.03523 0.41221 0.0
H44 H 0.83443 0.15711 0.48278 0.0
H45 H 0.82337 0.23356 0.37424 0.0
Cu46 Cu 0.76448 0.78183 0.77691 0.0
N47 N 0.85646 0.82784 0.77208 0.0
N48 N 0.94905 0.90706 0.77001 0.0
C49 C 0.88684 0.8807 0.778 0.0
C50 C 0.95897 0.8687 0.75903 0.0
C51 C 0.90187 0.82017 0.76024 0.0
O52 O 0.71345 0.80389 0.75655 0.0
C53 C 0.72786 0.74443 0.81767 0.0
O54 O 0.68966 0.69805 0.80917 0.0
H55 H 0.86231 0.9002 0.78728 0.0
H56 H 0.89291 0.7828 0.75224 0.0
N57 N 0.73746 0.70652 0.77083 0.0
N58 N 0.66448 0.61813 0.76739 0.0
C59 C 0.67277 0.67115 0.76732 0.0
C60 C 0.77177 0.67486 0.77277 0.0
C61 C 0.72724 0.62071 0.77062 0.0
C62 C 0.73433 0.8506 0.74798 0.0
O63 O 0.78061 0.89284 0.75686 0.0
H64 H 0.63172 0.68407 0.76637 0.0
H65 H 0.82464 0.68978 0.77658 0.0
O66 O 0.75506 0.78696 0.80662 0.0
H67 H 1.00277 0.87598 0.74984 0.0
H68 H 0.74015 0.58593 0.77201 0.0
Cu69 Cu 0.95149 0.74693 0.08074 0.0
N70 N 0.98809 0.82078 0.07198 0.0
N71 N 0.99848 0.90785 0.06844 0.0
C72 C 0.96201 0.85769 0.07632 0.0
C73 C 0.04957 0.90175 0.0587 0.0
C74 C 0.04307 0.84844 0.06089 0.0
O75 O 0.85632 0.71769 0.0737 0.0
C76 C 1.01755 0.76907 0.11947 0.0
O77 O 0.07285 0.79402 0.10903 0.0
H78 H 0.9174 0.84782 0.08539 0.0
H79 H 0.07626 0.83119 0.05485 0.0
N80 N 0.98475 0.69772 0.0695 0.0
N81 N 0.99002 0.61659 0.06343 0.0
C82 C 0.97305 0.64723 0.07667 0.0
C83 C 1.0101 0.69897 0.0511 0.0
C84 C 1.01355 0.64942 0.04736 0.0
C85 C 0.82346 0.70306 0.05729 0.0
O86 O 0.75736 0.6821 0.05827 0.0
H87 H 0.94819 0.63196 0.09077 0.0
H88 H 0.02141 0.73227 0.04065 0.0
O89 O 0.96125 0.74655 0.1102 0.0
H90 H 0.08882 0.93332 0.05034 0.0
H91 H 0.03012 0.6379 0.03356 0.0
Cu92 Cu 0.25422 0.96664 0.40958 0.0
N93 N 0.24243 0.95048 0.43724 0.0
N94 N 0.24863 0.96592 0.47053 0.0
C95 C 0.26697 0.98788 0.45206 0.0
C96 C 0.21095 0.91231 0.46701 0.0
C97 C 0.20713 0.90303 0.44662 0.0
O98 O 0.35441 1.00535 0.40688 0.0
C99 C 0.12809 0.96875 0.40331 0.0
O100 O 0.11228 0.91643 0.40593 0.0
H101 H 0.29653 0.03076 0.4492 0.0
H102 H 0.17978 0.86448 0.43918 0.0
N103 N 0.22834 0.90527 0.39224 0.0
N104 N 0.20721 0.85774 0.36331 0.0
C105 C 0.21407 0.90488 0.37249 0.0
C106 C 0.22957 0.85638 0.39578 0.0
C107 C 0.21629 0.82708 0.37815 0.0
C108 C 0.38767 0.99982 0.39186 0.0
O109 O 0.35492 0.97845 0.37538 0.0
H110 H 0.2126 0.93995 0.36487 0.0
H111 H 0.24182 0.84365 0.41 0.0
O112 O 0.19074 1.00175 0.40382 0.0
H113 H 0.18767 0.88154 0.4783 0.0
H114 H 0.21478 0.78649 0.37651 0.0
Cu115 Cu 0.30534 0.26133 0.77284 0.0
N116 N 0.21195 0.2167 0.76952 0.0
N117 N 0.11864 0.13773 0.76887 0.0
C118 C 0.18209 0.16432 0.77598 0.0
C119 C 0.10744 0.17547 0.75787 0.0
C120 C 0.16501 0.22383 0.75818 0.0
O121 O 0.35121 0.23916 0.75105 0.0
C122 C 0.28742 0.2733 0.81295 0.0
O123 O 0.24632 0.29142 0.80424 0.0
H124 H 0.20801 0.14517 0.78489 0.0
H125 H 0.1732 0.26045 0.74979 0.0
N126 N 0.33618 0.33773 0.76848 0.0
N127 N 0.41222 0.4255 0.76604 0.0
C128 C 0.40213 0.37266 0.76915 0.0
C129 C 0.30292 0.36948 0.76482 0.0
C130 C 0.34938 0.42328 0.7633 0.0
C131 C 0.32738 0.1926 0.74234 0.0
O132 O 0.28078 0.15103 0.75143 0.0
H133 H 0.44196 0.35909 0.77182 0.0
H134 H 0.24875 0.35482 0.7636 0.0
O135 O 0.32231 0.25574 0.80171 0.0
H136 H 0.06245 0.16772 0.74917 0.0
H137 H 0.3372 0.45806 0.76075 0.0
Cu138 Cu 0.74863 0.96977 0.61326 0.0
N139 N 0.74128 0.9507 0.58583 0.0
N140 N 0.7486 0.96412 0.55242 0.0
C141 C 0.75635 0.9875 0.57076 0.0
C142 C 0.72768 0.91013 0.55629 0.0
C143 C 0.72326 0.90204 0.57677 0.0
O144 O 0.68709 1.00832 0.61578 0.0
C145 C 0.87766 0.97349 0.61812 0.0
O146 O 0.84092 0.92115 0.61551 0.0
H147 H 0.77387 0.03094 0.57334 0.0
H148 H 0.70827 0.86344 0.58448 0.0
N149 N 0.71717 0.91167 0.63212 0.0
N150 N 0.70046 0.87334 0.66281 0.0
C151 C 0.73842 0.91667 0.65133 0.0
C152 C 0.6642 0.86293 0.63129 0.0
C153 C 0.65409 0.83915 0.65007 0.0
C154 C 0.6481 1.00282 0.63076 0.0
O155 O 0.65916 0.98145 0.64727 0.0
H156 H 0.77938 0.95288 0.65691 0.0
H157 H 0.6329 0.84705 0.61825 0.0
O158 O 0.8479 1.00631 0.61794 0.0
H159 H 0.71573 0.87832 0.54516 0.0
H160 H 0.61341 0.80091 0.65419 0.0
Cu161 Cu 0.80631 0.76996 0.94315 0.0
N162 N 0.83668 0.84562 0.94857 0.0
N163 N 0.91273 0.93327 0.95122 0.0
C164 C 0.90159 0.88138 0.94598 0.0
C165 C 0.85161 0.92958 0.95735 0.0
C166 C 0.80511 0.87579 0.95573 0.0
O167 O 0.86315 0.75132 0.96242 0.0
C168 C 0.79924 0.72968 0.90145 0.0
O169 O 0.78893 0.68135 0.90863 0.0
H170 H 0.93981 0.86912 0.94022 0.0
H171 H 0.75228 0.85992 0.95965 0.0
N172 N 0.71526 0.72463 0.9503 0.0
N173 N 0.62362 0.64561 0.95532 0.0
C174 C 0.6774 0.67336 0.94348 0.0
C175 C 0.68325 0.72939 0.96692 0.0
C176 C 0.62721 0.68119 0.97002 0.0
C177 C 0.84184 0.70736 0.97274 0.0
O178 O 0.79155 0.66421 0.96571 0.0
H179 H 0.69224 0.6546 0.93123 0.0
H180 H 0.70231 0.76384 0.97701 0.0
O181 O 0.81392 0.76978 0.9135 0.0
H182 H 0.84094 0.96305 0.96296 0.0
H183 H 0.59364 0.67212 0.98272 0.0
Cu184 Cu 0.06005 0.78556 0.24681 0.0
N185 N 1.01201 0.83047 0.24961 0.0
N186 N 0.99778 0.90941 0.25086 0.0
C187 C 0.0421 0.88576 0.24904 0.0
C188 C 0.93708 0.86676 0.25267 0.0
C189 C 0.94598 0.8184 0.25192 0.0
O190 O 0.13128 0.81835 0.26738 0.0
C191 C 0.02689 0.76684 0.20697 0.0
O192 O 0.9686 0.74444 0.21618 0.0
H193 H 0.09581 0.90809 0.24697 0.0
H194 H 0.90701 0.77745 0.25291 0.0
N195 N 1.01337 0.71011 0.25335 0.0
N196 N 0.9984 0.62231 0.25778 0.0
C197 C 0.0296 0.66877 0.24702 0.0
C198 C 0.96964 0.68858 0.26842 0.0
C199 C 0.96053 0.63488 0.2712 0.0
C200 C 0.14658 0.79057 0.28051 0.0
O201 O 0.12978 0.73837 0.27731 0.0
H202 H 0.068 0.67409 0.23593 0.0
H203 H 0.94952 0.71142 0.27769 0.0
O204 O 0.08007 0.78871 0.21777 0.0
H205 H 0.88941 0.87 0.25463 0.0
H206 H 0.93063 0.60786 0.28284 0.0
Cu207 Cu 0.30372 0.07149 0.608 0.0
N208 N 0.31754 0.0898 0.58055 0.0
N209 N 0.31156 0.0753 0.54722 0.0
C210 C 0.29527 0.05255 0.56563 0.0
C211 C 0.34562 0.12932 0.55085 0.0
C212 C 0.3491 0.1381 0.5713 0.0
O213 O 0.36095 0.02996 0.61233 0.0
C214 C 0.1628 1.01494 0.62398 0.0
O215 O 0.18563 0.99893 0.6398 0.0
H216 H 0.26819 1.00927 0.56835 0.0
H217 H 0.37278 0.177 0.57882 0.0
N218 N 0.3355 0.13084 0.62631 0.0
N219 N 0.35452 0.16994 0.65688 0.0
C220 C 0.31296 0.12834 0.6453 0.0
C221 C 0.39302 0.17641 0.62576 0.0
C222 C 0.40453 0.20073 0.64445 0.0
C223 C 0.39626 0.03435 0.6281 0.0
O224 O 0.38217 0.05556 0.64419 0.0
H225 H 0.26918 0.09449 0.65086 0.0
H226 H 0.42698 0.18888 0.61315 0.0
O227 O 0.20356 0.03973 0.60994 0.0
H228 H 0.36592 0.16066 0.53957 0.0
H229 H 0.44886 0.23617 0.64884 0.0
Cu230 Cu 0.26891 0.28981 0.94052 0.0
N231 N 0.23969 0.21381 0.94514 0.0
N232 N 0.16474 0.12603 0.94847 0.0
C233 C 0.174 0.17831 0.94461 0.0
C234 C 0.22785 0.12918 0.95155 0.0
C235 C 0.27367 0.18304 0.94952 0.0
O236 O 0.20947 0.30662 0.9593 0.0
C237 C 0.2976 0.27981 0.90045 0.0
O238 O 0.33843 0.26214 0.90959 0.0
H239 H 0.1338 0.19095 0.94122 0.0
H240 H 0.32781 0.19855 0.95117 0.0
N241 N 0.35937 0.3358 0.94766 0.0
N242 N 0.44963 0.41524 0.95316 0.0
C243 C 0.39421 0.38843 0.94174 0.0
C244 C 0.39491 0.32902 0.96308 0.0
C245 C 0.45016 0.37755 0.96648 0.0
C246 C 0.22967 0.3462 0.97179 0.0
O247 O 0.28815 0.38719 0.96898 0.0
H248 H 0.37577 0.40808 0.93055 0.0
H249 H 0.37909 0.29261 0.97218 0.0
O250 O 0.26056 0.29619 0.91124 0.0
H251 H 0.24045 0.09521 0.95528 0.0
H252 H 0.48625 0.38519 0.97848 0.0
Cu253 Cu 0.98962 0.26289 0.24956 0.0
N254 N 0.03915 0.21862 0.2524 0.0
N255 N 0.05418 0.13989 0.2533 0.0
C256 C 1.0181 0.16655 0.24562 0.0
C257 C 0.10099 0.17749 0.26499 0.0
C258 C 0.09144 0.22545 0.2645 0.0
O259 O 0.9233 0.2401 0.27185 0.0
C260 C 1.01168 0.27325 0.20874 0.0
O261 O 0.07303 0.29346 0.21615 0.0
H262 H 0.97426 0.14763 0.23617 0.0
H263 H 0.11817 0.26137 0.27341 0.0
N264 N 0.03665 0.33938 0.25427 0.0
N265 N 0.04913 0.42691 0.2579 0.0
C266 C 1.01641 0.37878 0.24819 0.0
C267 C 0.08385 0.36385 0.26827 0.0
C268 C 0.09163 0.41735 0.27049 0.0
C269 C 0.90148 0.19336 0.28041 0.0
O270 O 0.90704 0.1524 0.27107 0.0
H271 H 0.97463 0.37103 0.23807 0.0
H272 H 0.1074 0.34336 0.27739 0.0
O273 O 0.9621 0.25592 0.22107 0.0
H274 H 0.13694 0.16999 0.27435 0.0
H275 H 0.12387 0.44632 0.28128 0.0
C276 C 0.93959 0.25061 0.17731 0.0
C277 C 1.00329 0.2712 0.18645 0.0
H278 H 0.88349 0.23269 0.14995 0.0
C279 C 0.06072 0.29023 0.17394 0.0
H280 H 0.89429 0.23563 0.18632 0.0
C281 C 0.05476 0.28858 0.15301 0.0
C282 C 0.9911 0.26789 0.14386 0.0
H283 H 0.1109 0.30647 0.18031 0.0
H284 H 0.1001 0.30343 0.14402 0.0
C285 C 0.93361 0.24902 0.15635 0.0
C286 C 0.78099 0.99058 0.49685 0.0
C287 C 0.7846 0.04402 0.49467 0.0
H288 H 0.76801 0.92395 0.51649 0.0
C289 C 0.77583 0.0704 0.51198 0.0
H290 H 0.78827 0.96882 0.48411 0.0
C291 C 0.76404 0.04443 0.53073 0.0
C292 C 0.76061 0.99104 0.53294 0.0
H293 H 0.77715 0.1111 0.51108 0.0
H294 H 0.75676 0.06625 0.54345 0.0
C295 C 0.76927 0.96462 0.51561 0.0
C296 C 0.78286 0.79064 0.85054 0.0
C297 C 0.74636 0.74325 0.8393 0.0
H298 H 0.828 0.82401 0.87893 0.0
C299 C 0.72964 0.69229 0.84869 0.0
H300 H 0.79716 0.83059 0.84387 0.0
C301 C 0.74858 0.68849 0.86844 0.0
C302 C 0.78422 0.73548 0.87984 0.0
H303 H 0.70223 0.65459 0.84069 0.0
H304 H 0.73404 0.64823 0.87487 0.0
C305 C 0.80089 0.7868 0.87063 0.0
C306 C 0.96271 0.74089 0.15324 0.0
C307 C 0.02115 0.76788 0.14185 0.0
H308 H 0.91898 0.71921 0.18221 0.0
C309 C 0.08296 0.79401 0.15214 0.0
H310 H 0.91429 0.72021 0.14601 0.0
C311 C 0.08591 0.79353 0.17319 0.0
C312 C 0.0271 0.76687 0.18453 0.0
H313 H 0.12924 0.81525 0.14392 0.0
H314 H 0.13404 0.81441 0.18056 0.0
C315 C 0.96565 0.74038 0.17415 0.0
C316 C 0.33295 0.07234 0.51061 0.0
C317 C 0.29576 0.04781 0.52787 0.0
H318 H 0.34841 0.06602 0.47927 0.0
C319 C 0.24264 0.99577 0.52576 0.0
H320 H 0.37475 0.11193 0.51149 0.0
C321 C 0.22729 0.96926 0.50713 0.0
C322 C 0.26455 0.99367 0.48985 0.0
H323 H 0.21192 0.97556 0.53847 0.0
H324 H 0.18537 0.92976 0.50632 0.0
C325 C 0.31769 0.04577 0.49197 0.0
C326 C 0.33446 0.25721 0.846 0.0
C327 C 0.29108 0.27458 0.83535 0.0
H328 H 0.37063 0.2454 0.87463 0.0
C329 C 0.24995 0.29411 0.84641 0.0
H330 H 0.36686 0.24203 0.83812 0.0
C331 C 0.25195 0.29614 0.86738 0.0
C332 C 0.29522 0.27874 0.87805 0.0
H333 H 0.21569 0.30797 0.83886 0.0
H334 H 0.21943 0.31126 0.87522 0.0
C335 C 0.33651 0.25929 0.86702 0.0
C336 C 0.12836 0.28777 0.01928 0.0
C337 C 0.14102 0.33528 0.03059 0.0
H338 H 0.14428 0.25384 0.99164 0.0
C339 C 0.18034 0.38615 0.0219 0.0
H340 H 0.09746 0.24793 0.02534 0.0
C341 C 0.20724 0.38952 1.00266 0.0
C342 C 0.19446 0.3422 0.99128 0.0
H343 H 0.19072 0.42363 0.03004 0.0
H344 H 0.23844 0.42942 0.9967 0.0
C345 C 0.15427 0.29121 0.99981 0.0
C346 C 0.87938 0.22544 0.33509 0.0
C347 C 0.86008 0.17386 0.34427 0.0
H348 H 0.90703 0.27234 0.30794 0.0
C349 C 0.84992 0.12875 0.33187 0.0
H350 H 0.88787 0.26125 0.34404 0.0
C351 C 0.86046 0.13508 0.31118 0.0
C352 C 0.88163 0.18674 0.30205 0.0
H353 H 0.83358 0.08816 0.33807 0.0
H354 H 0.8532 0.09923 0.30237 0.0
C355 C 0.89015 0.23181 0.3143 0.0
C356 C 0.74334 0.90772 0.71732 0.0
C357 C 0.71776 0.85597 0.72652 0.0
H358 H 0.75769 0.95398 0.69039 0.0
C359 C 0.68363 0.80996 0.71439 0.0
H360 H 0.76991 0.94427 0.72603 0.0
C361 C 0.67718 0.81556 0.69363 0.0
C362 C 0.70484 0.86733 0.68436 0.0
H363 H 0.6638 0.76936 0.7208 0.0
H364 H 0.65216 0.77906 0.68479 0.0
C365 C 0.73701 0.9133 0.69666 0.0
C366 C 0.8806 0.75649 0.02673 0.0
C367 C 0.85408 0.70659 0.03715 0.0
H368 H 0.89884 0.79633 0.99808 0.0
C369 C 0.8361 0.65809 0.0261 0.0
H370 H 0.89312 0.7945 0.03472 0.0
C371 C 0.83865 0.65893 1.00516 0.0
C372 C 0.8589 0.70837 0.99454 0.0
H373 H 0.8143 0.61896 0.03362 0.0
H374 H 0.81972 0.62033 0.99726 0.0
C375 C 0.88331 0.75741 1.00564 0.0
C376 C 0.16261 0.85919 0.3084 0.0
C377 C 0.17066 0.81305 0.30095 0.0
H378 H 0.1663 0.90897 0.33385 0.0
C379 C 0.19419 0.78394 0.31417 0.0
H380 H 0.14378 0.88231 0.29877 0.0
C381 C 0.20729 0.7992 0.33429 0.0
C382 C 0.19676 0.84398 0.34209 0.0
H383 H 0.20119 0.74826 0.30908 0.0
H384 H 0.22515 0.77515 0.3437 0.0
C385 C 0.17529 0.87434 0.32867 0.0
C386 C 0.31601 0.13013 0.69059 0.0
C387 C 0.3511 0.17582 0.67845 0.0
H388 H 0.2826 0.09932 0.7199 0.0
C389 C 0.38316 0.22705 0.68789 0.0
H390 H 0.29197 0.08977 0.68415 0.0
C391 C 0.37827 0.23255 0.70871 0.0
C392 C 0.34146 0.1869 0.72071 0.0
H393 H 0.41062 0.26324 0.67914 0.0
H394 H 0.40168 0.27284 0.7153 0.0
C395 C 0.31134 0.13557 0.7113 0.0
C396 C 0.98354 0.53537 0.08331 0.0
C397 C 0.97845 0.55918 0.06493 0.0
H398 H 0.9782 0.46305 0.09875 0.0
C399 C 0.96216 0.52564 0.04785 0.0
H400 H 0.99629 0.55988 0.09676 0.0
C401 C 0.95099 0.47029 0.04903 0.0
C402 C 0.95664 0.44641 0.0673 0.0
H403 H 0.9571 0.54203 0.03348 0.0
H404 H 0.93887 0.44631 0.03546 0.0
C405 C 0.97357 0.47993 0.08443 0.0
C406 C 0.56409 0.01731 0.37614 0.0
C407 C 0.59749 0.02001 0.3944 0.0
H408 H 0.47382 1.00977 0.36109 0.0
C409 C 0.5615 0.0178 0.41216 0.0
H410 H 0.5898 0.01927 0.36212 0.0
C411 C 0.49426 1.01328 0.41156 0.0
C412 C 0.4611 1.01036 0.39318 0.0
H413 H 0.58565 0.0206 0.42651 0.0
H414 H 0.46795 1.01116 0.42547 0.0
C415 C 0.49728 1.01227 0.37555 0.0
C416 C 0.53516 0.47238 0.77426 0.0
C417 C 0.47609 0.4739 0.76606 0.0
H418 H 0.63978 0.5158 0.78132 0.0
C419 C 0.48103 0.52409 0.75802 0.0
H420 H 0.53421 0.4353 0.78087 0.0
C421 C 0.54236 0.57087 0.75831 0.0
C422 C 0.60125 0.56932 0.7666 0.0
H423 H 0.4376 0.52744 0.75131 0.0
H424 H 0.54359 0.60824 0.75185 0.0
C425 C 0.59645 0.51908 0.7745 0.0
C426 C 0.49281 0.02123 0.61033 0.0
C427 C 0.45884 0.02332 0.62807 0.0
H428 H 0.57977 1.01457 0.59709 0.0
C429 C 0.48923 0.02038 0.64635 0.0
H430 H 0.47167 0.02419 0.59597 0.0
C431 C 0.55092 1.01527 0.64699 0.0
C432 C 0.58537 1.01346 0.62938 0.0
H433 H 0.46534 0.02225 0.66035 0.0
H434 H 0.57164 1.01261 0.66146 0.0
C435 C 0.55542 0.0166 0.61099 0.0
C436 C 0.51589 0.50096 0.97168 0.0
C437 C 0.49281 0.47349 0.95344 0.0
H438 H 0.57434 0.57633 0.9866 0.0
C439 C 0.51323 0.50411 0.93569 0.0
H440 H 0.50088 0.47911 0.98566 0.0
C441 C 0.55654 0.56027 0.93622 0.0
C442 C 0.57907 0.58768 0.95453 0.0
H443 H 0.49665 0.48435 0.92139 0.0
H444 H 0.57181 0.58247 0.92231 0.0
C445 C 0.55768 0.55707 0.97223 0.0
C446 C 1.01574 0.54762 0.23946 0.0
C447 C 1.01102 0.57295 0.2575 0.0
H448 H 0.02959 0.48033 0.22542 0.0
C449 C 1.01835 0.54878 0.2755 0.0
H450 H 1.01011 0.56503 0.22535 0.0
C451 C 0.03092 0.50134 0.27552 0.0
C452 C 0.03489 0.4755 0.25756 0.0
H453 H 1.01551 0.56723 0.28965 0.0
H454 H 0.03683 0.48436 0.28969 0.0
C455 C 0.02647 0.49899 0.2395 0.0
C456 C 0.02548 0.05722 0.06778 0.0
C457 C 0.96138 0.05478 0.07294 0.0
H458 H 0.08772 1.01378 0.06245 0.0
C459 C 0.90991 1.00267 0.07672 0.0
H460 H 0.06656 0.09604 0.06458 0.0
C461 C 0.922 0.95496 0.07534 0.0
C462 C 0.986 0.95737 0.07007 0.0
H463 H 0.85999 0.99845 0.08093 0.0
H464 H 0.8806 0.91607 0.0782 0.0
C465 C 0.03752 1.0095 0.06635 0.0
C466 C 1.00348 0.03473 0.41129 0.0
C467 C 0.94919 1.00243 0.39887 0.0
H468 H 0.10383 0.05123 0.42193 0.0
C469 C 0.95788 0.96295 0.38676 0.0
H470 H 0.99908 0.06596 0.42069 0.0
C471 C 1.01748 0.95438 0.38762 0.0
C472 C 0.07137 0.98602 0.40016 0.0
H473 H 0.91775 0.93747 0.37694 0.0
H474 H 0.02096 0.92196 0.37867 0.0
C475 C 0.06406 0.02697 0.41178 0.0
C476 C 1.00519 0.06059 0.77059 0.0
C477 C 0.07591 0.07962 0.77017 0.0
H478 H 0.90965 0.99126 0.7712 0.0
C479 C 0.10399 0.04058 0.77025 0.0
H480 H 0.98185 0.08938 0.77055 0.0
C481 C 0.06258 0.98427 0.77031 0.0
C482 C 0.99186 0.96523 0.77075 0.0
H483 H 0.1581 0.05356 0.76968 0.0
H484 H 0.08592 0.95548 0.77004 0.0
C485 C 0.96381 1.00428 0.7711 0.0
C486 C 0.97341 0.95936 0.63413 0.0
C487 C 0.95166 0.99077 0.62138 0.0
H488 H 0.05578 0.94248 0.64511 0.0
C489 C 1.00035 0.03137 0.60971 0.0
H490 H 0.93713 0.92721 0.64312 0.0
C491 C 0.06868 0.03902 0.61038 0.0
C492 C 0.09018 1.00693 0.623 0.0
H493 H 0.9852 0.05543 0.59941 0.0
H494 H 0.10468 0.06999 0.60093 0.0
C495 C 0.04154 0.9678 0.63514 0.0
C496 C 0.97763 0.03488 0.95179 0.0
C497 C 0.97628 0.9819 0.95055 0.0
H498 H 0.03688 0.12122 0.95234 0.0
C499 C 0.03872 0.9777 0.94864 0.0
H500 H 0.93132 0.04057 0.95313 0.0
C501 C 0.09987 0.0245 0.94797 0.0
C502 C 0.1012 0.07746 0.94918 0.0
H503 H 0.04086 0.93818 0.94781 0.0
H504 H 0.14614 0.01887 0.9463 0.0
C505 C 0.03881 0.08168 0.95113 0.0
C506 C 0.96185 0.98646 0.24657 0.0
C507 C 1.01231 0.96763 0.25092 0.0
H508 H 0.93497 0.05481 0.24384 0.0
C509 C 0.07729 1.00714 0.25548 0.0
H510 H 0.91137 0.95786 0.24278 0.0
C511 C 0.09104 0.06317 0.25593 0.0
C512 C 0.04047 0.08197 0.25177 0.0
H513 H 0.11765 0.99487 0.25908 0.0
H514 H 0.14166 0.09183 0.25956 0.0
C515 C 0.97569 0.04257 0.24694 0.0
loop_
_geom_bond_atom_site_label_1
_geom_bond_atom_site_label_2
_geom_bond_distance
_geom_bond_site_symmetry_2
_ccdc_geom_bond_type
Cu0 N1 1.999 . S
Cu0 O6 1.974 . S
Cu0 N11 1.985 . S
Cu0 O20 1.959 . S
N1 Cu0 1.999 . S
N1 C3 1.263 . S
N1 C5 1.389 . S
N2 C3 1.358 . S
N2 C4 1.400 . S
C3 N1 1.263 . S
C3 N2 1.358 . S
C3 H9 0.930 1_655 S
C4 N2 1.400 . S
C4 C5 1.351 . S
C4 H21 0.930 . S
C5 N1 1.389 . S
C5 C4 1.351 . S
C5 H10 0.930 . S
O6 Cu0 1.974 . S
O6 C16 1.282 1_655 S
C7 O8 1.261 1_655 S
C7 O20 1.251 . S
O8 C7 1.261 1_455 S
H9 C3 0.930 1_455 S
H10 C5 0.930 . S
N11 Cu0 1.985 . S
N11 C13 1.335 . S
N11 C14 1.390 1_655 S
N12 C13 1.345 . S
N12 C15 1.336 1_655 S
C13 N11 1.335 . S
C13 N12 1.345 . S
C13 H18 0.930 . S
C14 N11 1.390 1_455 S
C14 C15 1.346 . S
C14 H19 0.930 . S
C15 N12 1.336 1_455 S
C15 C14 1.346 . S
C15 H22 0.929 . S
C16 O6 1.282 1_455 S
C16 O17 1.216 . S
O17 C16 1.216 . S
H18 C13 0.930 . S
H19 C14 0.930 . S
O20 Cu0 1.959 . S
O20 C7 1.251 . S
H21 C4 0.930 . S
H22 C15 0.929 . S
Cu23 N24 1.999 . S
Cu23 O29 1.974 . S
Cu23 N34 1.985 . S
Cu23 O43 1.959 . S
N24 Cu23 1.999 . S
N24 C26 1.263 . S
N24 C28 1.389 . S
N25 C26 1.358 . S
N25 C27 1.400 . S
C26 N24 1.263 . S
C26 N25 1.358 . S
C26 H32 0.931 . S
C27 N25 1.400 . S
C27 C28 1.351 . S
C27 H44 0.930 . S
C28 N24 1.389 . S
C28 C27 1.351 . S
C28 H33 0.930 . S
O29 Cu23 1.974 . S
O29 C39 1.282 . S
C30 O31 1.261 1_545 S
C30 O43 1.251 . S
O31 C30 1.261 1_565 S
H32 C26 0.931 . S
H33 C28 0.930 . S
N34 Cu23 1.985 . S
N34 C36 1.335 . S
N34 C37 1.390 . S
N35 C36 1.345 . S
N35 C38 1.336 . S
C36 N34 1.335 . S
C36 N35 1.345 . S
C36 H41 0.930 . S
C37 N34 1.390 . S
C37 C38 1.346 . S
C37 H42 0.930 . S
C38 N35 1.336 . S
C38 C37 1.346 . S
C38 H45 0.929 . S
C39 O29 1.282 . S
C39 O40 1.216 1_545 S
O40 C39 1.216 1_565 S
H41 C36 0.930 . S
H42 C37 0.930 . S
O43 Cu23 1.959 . S
O43 C30 1.251 . S
H44 C27 0.930 . S
H45 C38 0.929 . S
Cu46 N47 1.999 . S
Cu46 O52 1.974 . S
Cu46 N57 1.985 . S
Cu46 O66 1.959 . S
N47 Cu46 1.999 . S
N47 C49 1.263 . S
N47 C51 1.389 . S
N48 C49 1.358 . S
N48 C50 1.400 . S
C49 N47 1.263 . S
C49 N48 1.358 . S
C49 H55 0.930 . S
C50 N48 1.400 . S
C50 C51 1.351 . S
C50 H67 0.930 . S
C51 N47 1.389 . S
C51 C50 1.351 . S
C51 H56 0.930 . S
O52 Cu46 1.974 . S
O52 C62 1.282 . S
C53 O54 1.261 . S
C53 O66 1.251 . S
O54 C53 1.261 . S
H55 C49 0.930 . S
H56 C51 0.930 . S
N57 Cu46 1.985 . S
N57 C59 1.335 . S
N57 C60 1.390 . S
N58 C59 1.345 . S
N58 C61 1.336 . S
C59 N57 1.335 . S
C59 N58 1.345 . S
C59 H64 0.930 . S
C60 N57 1.390 . S
C60 C61 1.346 . S
C60 H65 0.930 . S
C61 N58 1.336 . S
C61 C60 1.346 . S
C61 H68 0.929 . S
C62 O52 1.282 . S
C62 O63 1.216 . S
O63 C62 1.216 . S
H64 C59 0.930 . S
H65 C60 0.930 . S
O66 Cu46 1.959 . S
O66 C53 1.251 . S
H67 C50 0.930 . S
H68 C61 0.929 . S
Cu69 N70 1.999 . S
Cu69 O75 1.974 . S
Cu69 N80 1.985 . S
Cu69 O89 1.959 . S
N70 Cu69 1.999 . S
N70 C72 1.263 . S
N70 C74 1.389 . S
N71 C72 1.358 . S
N71 C73 1.400 . S
C72 N70 1.263 . S
C72 N71 1.358 . S
C72 H78 0.930 1_455 S
C73 N71 1.400 . S
C73 C74 1.351 . S
C73 H90 0.930 . S
C74 N70 1.389 . S
C74 C73 1.351 . S
C74 H79 0.930 . S
O75 Cu69 1.974 . S
O75 C85 1.282 1_455 S
C76 O77 1.261 1_455 S
C76 O89 1.251 . S
O77 C76 1.261 1_655 S
H78 C72 0.930 1_655 S
H79 C74 0.930 . S
N80 Cu69 1.985 . S
N80 C82 1.335 . S
N80 C83 1.390 1_455 S
N81 C82 1.345 . S
N81 C84 1.336 1_455 S
C82 N80 1.335 . S
C82 N81 1.345 . S
C82 H87 0.930 . S
C83 N80 1.390 1_655 S
C83 C84 1.346 . S
C83 H88 0.930 . S
C84 N81 1.336 1_655 S
C84 C83 1.346 . S
C84 H91 0.929 . S
C85 O75 1.282 1_655 S
C85 O86 1.216 . S
O86 C85 1.216 . S
H87 C82 0.930 . S
H88 C83 0.930 . S
O89 Cu69 1.959 . S
O89 C76 1.251 . S
H90 C73 0.930 . S
H91 C84 0.929 . S
Cu92 N93 1.999 . S
Cu92 O98 1.974 . S
Cu92 N103 1.985 . S
Cu92 O112 1.959 . S
N93 Cu92 1.999 . S
N93 C95 1.263 . S
N93 C97 1.389 . S
N94 C95 1.358 . S
N94 C96 1.400 . S
C95 N93 1.263 . S
C95 N94 1.358 . S
C95 H101 0.931 . S
C96 N94 1.400 . S
C96 C97 1.351 . S
C96 H113 0.930 . S
C97 N93 1.389 . S
C97 C96 1.351 . S
C97 H102 0.930 . S
O98 Cu92 1.974 . S
O98 C108 1.282 . S
C99 O100 1.261 1_565 S
C99 O112 1.251 . S
O100 C99 1.261 1_545 S
H101 C95 0.931 . S
H102 C97 0.930 . S
N103 Cu92 1.985 . S
N103 C105 1.335 . S
N103 C106 1.390 . S
N104 C105 1.345 . S
N104 C107 1.336 . S
C105 N103 1.335 . S
C105 N104 1.345 . S
C105 H110 0.930 . S
C106 N103 1.390 . S
C106 C107 1.346 . S
C106 H111 0.930 . S
C107 N104 1.336 . S
C107 C106 1.346 . S
C107 H114 0.929 . S
C108 O98 1.282 . S
C108 O109 1.216 1_565 S
O109 C108 1.216 1_545 S
H110 C105 0.930 . S
H111 C106 0.930 . S
O112 Cu92 1.959 . S
O112 C99 1.251 . S
H113 C96 0.930 . S
H114 C107 0.929 . S
Cu115 N116 1.999 . S
Cu115 O121 1.974 . S
Cu115 N126 1.985 . S
Cu115 O135 1.959 . S
N116 Cu115 1.999 . S
N116 C118 1.263 . S
N116 C120 1.389 . S
N117 C118 1.358 . S
N117 C119 1.400 . S
C118 N116 1.263 . S
C118 N117 1.358 . S
C118 H124 0.930 . S
C119 N117 1.400 . S
C119 C120 1.351 . S
C119 H136 0.930 . S
C120 N116 1.389 . S
C120 C119 1.351 . S
C120 H125 0.930 . S
O121 Cu115 1.974 . S
O121 C131 1.282 . S
C122 O123 1.261 . S
C122 O135 1.251 . S
O123 C122 1.261 . S
H124 C118 0.930 . S
H125 C120 0.930 . S
N126 Cu115 1.985 . S
N126 C128 1.335 . S
N126 C129 1.390 . S
N127 C128 1.345 . S
N127 C130 1.336 . S
C128 N126 1.335 . S
C128 N127 1.345 . S
C128 H133 0.930 . S
C129 N126 1.390 . S
C129 C130 1.346 . S
C129 H134 0.930 . S
C130 N127 1.336 . S
C130 C129 1.346 . S
C130 H137 0.929 . S
C131 O121 1.282 . S
C131 O132 1.216 . S
O132 C131 1.216 . S
H133 C128 0.930 . S
H134 C129 0.930 . S
O135 Cu115 1.959 . S
O135 C122 1.251 . S
H136 C119 0.930 . S
H137 C130 0.929 . S
Cu138 N139 1.999 . S
Cu138 O144 1.974 . S
Cu138 N149 1.985 . S
Cu138 O158 1.959 . S
N139 Cu138 1.999 . S
N139 C141 1.263 . S
N139 C143 1.389 . S
N140 C141 1.358 . S
N140 C142 1.400 . S
C141 N139 1.263 . S
C141 N140 1.358 . S
C141 H147 0.938 . S
C142 N140 1.400 . S
C142 C143 1.351 . S
C142 H159 0.930 . S
C143 N139 1.389 . S
C143 C142 1.351 . S
C143 H148 0.930 . S
O144 Cu138 1.974 . S
O144 C154 1.282 . S
C145 O146 1.261 1_565 S
C145 O158 1.251 . S
O146 C145 1.261 1_545 S
H147 C141 0.938 . S
H148 C143 0.930 . S
N149 Cu138 1.985 . S
N149 C151 1.335 . S
N149 C152 1.390 . S
N150 C151 1.345 . S
N150 C153 1.336 . S
C151 N149 1.335 . S
C151 N150 1.345 . S
C151 H156 0.930 . S
C152 N149 1.390 . S
C152 C153 1.346 . S
C152 H157 0.930 . S
C153 N150 1.336 . S
C153 C152 1.346 . S
C153 H160 0.929 . S
C154 O144 1.282 . S
C154 O155 1.216 1_565 S
O155 C154 1.216 1_545 S
H156 C151 0.930 . S
H157 C152 0.930 . S
O158 Cu138 1.959 . S
O158 C145 1.251 . S
H159 C142 0.930 . S
H160 C153 0.929 . S
Cu161 N162 1.999 . S
Cu161 O167 1.974 . S
Cu161 N172 1.985 . S
Cu161 O181 1.959 . S
N162 Cu161 1.999 . S
N162 C164 1.263 . S
N162 C166 1.389 . S
N163 C164 1.358 . S
N163 C165 1.400 . S
C164 N162 1.263 . S
C164 N163 1.358 . S
C164 H170 0.930 . S
C165 N163 1.400 . S
C165 C166 1.351 . S
C165 H182 0.930 . S
C166 N162 1.389 . S
C166 C165 1.351 . S
C166 H171 0.930 . S
O167 Cu161 1.974 . S
O167 C177 1.282 . S
C168 O169 1.261 . S
C168 O181 1.251 . S
O169 C168 1.261 . S
H170 C164 0.930 . S
H171 C166 0.930 . S
N172 Cu161 1.985 . S
N172 C174 1.335 . S
N172 C175 1.390 . S
N173 C174 1.345 . S
N173 C176 1.336 . S
C174 N172 1.335 . S
C174 N173 1.345 . S
C174 H179 0.930 . S
C175 N172 1.390 . S
C175 C176 1.346 . S
C175 H180 0.930 . S
C176 N173 1.336 . S
C176 C175 1.346 . S
C176 H183 0.929 . S
C177 O167 1.282 . S
C177 O178 1.216 . S
O178 C177 1.216 . S
H179 C174 0.930 . S
H180 C175 0.930 . S
O181 Cu161 1.959 . S
O181 C168 1.251 . S
H182 C165 0.930 . S
H183 C176 0.929 . S
Cu184 N185 1.999 . S
Cu184 O190 1.974 1_655 S
Cu184 N195 1.985 1_655 S
Cu184 O204 1.959 . S
N185 Cu184 1.999 . S
N185 C187 1.263 1_655 S
N185 C189 1.389 . S
N186 C187 1.358 1_655 S
N186 C188 1.400 . S
C187 N185 1.263 1_455 S
C187 N186 1.358 1_455 S
C187 H193 0.930 . S
C188 N186 1.400 . S
C188 C189 1.351 . S
C188 H205 0.930 . S
C189 N185 1.389 . S
C189 C188 1.351 . S
C189 H194 0.930 . S
O190 Cu184 1.974 1_455 S
O190 C200 1.282 . S
C191 O192 1.261 . S
C191 O204 1.251 1_455 S
O192 C191 1.261 . S
H193 C187 0.930 . S
H194 C189 0.930 . S
N195 Cu184 1.985 1_455 S
N195 C197 1.335 1_455 S
N195 C198 1.390 . S
N196 C197 1.345 1_455 S
N196 C199 1.336 . S
C197 N195 1.335 1_655 S
C197 N196 1.345 1_655 S
C197 H202 0.930 . S
C198 N195 1.390 . S
C198 C199 1.346 . S
C198 H203 0.930 . S
C199 N196 1.336 . S
C199 C198 1.346 . S
C199 H206 0.929 . S
C200 O190 1.282 . S
C200 O201 1.216 . S
O201 C200 1.216 . S
H202 C197 0.930 . S
H203 C198 0.930 . S
O204 Cu184 1.959 . S
O204 C191 1.251 1_655 S
H205 C188 0.930 . S
H206 C199 0.929 . S
Cu207 N208 1.999 . S
Cu207 O213 1.974 . S
Cu207 N218 1.985 . S
Cu207 O227 1.959 . S
N208 Cu207 1.999 . S
N208 C210 1.263 . S
N208 C212 1.389 . S
N209 C210 1.358 . S
N209 C211 1.400 . S
C210 N208 1.263 . S
C210 N209 1.358 . S
C210 H216 0.937 . S
C211 N209 1.400 . S
C211 C212 1.351 . S
C211 H228 0.930 . S
C212 N208 1.389 . S
C212 C211 1.351 . S
C212 H217 0.930 . S
O213 Cu207 1.974 . S
O213 C223 1.282 . S
C214 O215 1.261 1_545 S
C214 O227 1.251 . S
O215 C214 1.261 1_565 S
H216 C210 0.937 . S
H217 C212 0.930 . S
N218 Cu207 1.985 . S
N218 C220 1.335 . S
N218 C221 1.390 . S
N219 C220 1.345 . S
N219 C222 1.336 . S
C220 N218 1.335 . S
C220 N219 1.345 . S
C220 H225 0.930 . S
C221 N218 1.390 . S
C221 C222 1.346 . S
C221 H226 0.930 . S
C222 N219 1.336 . S
C222 C221 1.346 . S
C222 H229 0.929 . S
C223 O213 1.282 . S
C223 O224 1.216 1_545 S
O224 C223 1.216 1_565 S
H225 C220 0.930 . S
H226 C221 0.930 . S
O227 Cu207 1.959 . S
O227 C214 1.251 . S
H228 C211 0.930 . S
H229 C222 0.929 . S
Cu230 N231 1.999 . S
Cu230 O236 1.974 . S
Cu230 N241 1.985 . S
Cu230 O250 1.959 . S
N231 Cu230 1.999 . S
N231 C233 1.263 . S
N231 C235 1.389 . S
N232 C233 1.358 . S
N232 C234 1.400 . S
C233 N231 1.263 . S
C233 N232 1.358 . S
C233 H239 0.930 . S
C234 N232 1.400 . S
C234 C235 1.351 . S
C234 H251 0.930 . S
C235 N231 1.389 . S
C235 C234 1.351 . S
C235 H240 0.930 . S
O236 Cu230 1.974 . S
O236 C246 1.282 . S
C237 O238 1.261 . S
C237 O250 1.251 . S
O238 C237 1.261 . S
H239 C233 0.930 . S
H240 C235 0.930 . S
N241 Cu230 1.985 . S
N241 C243 1.335 . S
N241 C244 1.390 . S
N242 C243 1.345 . S
N242 C245 1.336 . S
C243 N241 1.335 . S
C243 N242 1.345 . S
C243 H248 0.930 . S
C244 N241 1.390 . S
C244 C245 1.346 . S
C244 H249 0.930 . S
C245 N242 1.336 . S
C245 C244 1.346 . S
C245 H252 0.929 . S
C246 O236 1.282 . S
C246 O247 1.216 . S
O247 C246 1.216 . S
H248 C243 0.930 . S
H249 C244 0.930 . S
O250 Cu230 1.959 . S
O250 C237 1.251 . S
H251 C234 0.930 . S
H252 C245 0.929 . S
Cu253 N254 1.999 . S
Cu253 O259 1.974 1_455 S
Cu253 N264 1.985 1_455 S
Cu253 O273 1.959 . S
N254 Cu253 1.999 . S
N254 C256 1.263 1_455 S
N254 C258 1.389 . S
N255 C256 1.358 1_455 S
N255 C257 1.400 . S
C256 N254 1.263 1_655 S
C256 N255 1.358 1_655 S
C256 H262 0.930 . S
C257 N255 1.400 . S
C257 C258 1.351 . S
C257 H274 0.930 . S
C258 N254 1.389 . S
C258 C257 1.351 . S
C258 H263 0.930 . S
O259 Cu253 1.974 1_655 S
O259 C269 1.282 . S
C260 O261 1.261 . S
C260 O273 1.251 1_655 S
O261 C260 1.261 . S
H262 C256 0.930 . S
H263 C258 0.930 . S
N264 Cu253 1.985 1_655 S
N264 C266 1.335 1_655 S
N264 C267 1.390 . S
N265 C266 1.345 1_655 S
N265 C268 1.336 . S
C266 N264 1.335 1_455 S
C266 N265 1.345 1_455 S
C266 H271 0.930 . S
C267 N264 1.390 . S
C267 C268 1.346 . S
C267 H272 0.930 . S
C268 N265 1.336 . S
C268 C267 1.346 . S
C268 H275 0.929 . S
C269 O259 1.282 . S
C269 O270 1.216 . S
O270 C269 1.216 . S
H271 C266 0.930 . S
H272 C267 0.930 . S
O273 Cu253 1.959 . S
O273 C260 1.251 1_455 S
H274 C257 0.930 . S
H275 C268 0.929 . S
C276 C277 1.387 1_455 S
C276 H280 0.950 . S
C276 C285 1.390 . S
C277 C276 1.387 1_655 S
C277 C279 1.387 . S
H278 C285 0.950 . S
C279 C277 1.387 . S
C279 C281 1.390 . S
C279 H283 0.950 . S
H280 C276 0.950 . S
C281 C279 1.390 . S
C281 C282 1.387 . S
C281 H284 0.950 . S
C282 C281 1.387 . S
C282 C285 1.387 1_655 S
H283 C279 0.950 . S
H284 C281 0.950 . S
C285 C276 1.390 . S
C285 H278 0.950 . S
C285 C282 1.387 1_455 S
C286 C287 1.388 . S
C286 H290 0.951 . S
C286 C295 1.390 . S
C287 C286 1.388 . S
C287 C289 1.391 1_545 S
H288 C295 0.952 . S
C289 C287 1.391 1_565 S
C289 C291 1.390 . S
C289 H293 0.952 . S
H290 C286 0.951 . S
C291 C289 1.390 . S
C291 C292 1.388 . S
C291 H294 0.951 . S
C292 C291 1.388 . S
C292 C295 1.391 1_565 S
H293 C289 0.952 . S
H294 C291 0.951 . S
C295 C286 1.390 . S
C295 H288 0.952 . S
C295 C292 1.391 1_545 S
C296 C297 1.387 . S
C296 H300 0.950 . S
C296 C305 1.390 . S
C297 C296 1.387 . S
C297 C299 1.387 . S
H298 C305 0.950 . S
C299 C297 1.387 . S
C299 C301 1.390 . S
C299 H303 0.950 . S
H300 C296 0.950 . S
C301 C299 1.390 . S
C301 C302 1.387 . S
C301 H304 0.950 . S
C302 C301 1.387 . S
C302 C305 1.387 . S
H303 C299 0.950 . S
H304 C301 0.950 . S
C305 C296 1.390 . S
C305 H298 0.950 . S
C305 C302 1.387 . S
C306 C307 1.387 . S
C306 H310 0.950 . S
C306 C315 1.390 . S
C307 C306 1.387 . S
C307 C309 1.387 1_455 S
H308 C315 0.950 . S
C309 C307 1.387 1_655 S
C309 C311 1.390 . S
C309 H313 0.950 . S
H310 C306 0.950 . S
C311 C309 1.390 . S
C311 C312 1.387 1_655 S
C311 H314 0.950 . S
C312 C311 1.387 1_455 S
C312 C315 1.387 . S
H313 C309 0.950 . S
H314 C311 0.950 . S
C315 C306 1.390 . S
C315 H308 0.950 . S
C315 C312 1.387 . S
C316 C317 1.387 . S
C316 H320 0.950 . S
C316 C325 1.390 . S
C317 C316 1.387 . S
C317 C319 1.388 1_545 S
H318 C325 0.950 . S
C319 C317 1.388 1_565 S
C319 C321 1.390 . S
C319 H323 0.950 . S
H320 C316 0.950 . S
C321 C319 1.390 . S
C321 C322 1.387 . S
C321 H324 0.950 . S
C322 C321 1.387 . S
C322 C325 1.388 1_565 S
H323 C319 0.950 . S
H324 C321 0.950 . S
C325 C316 1.390 . S
C325 H318 0.950 . S
C325 C322 1.388 1_545 S
C326 C327 1.387 . S
C326 H330 0.950 . S
C326 C335 1.390 . S
C327 C326 1.387 . S
C327 C329 1.387 . S
H328 C335 0.950 . S
C329 C327 1.387 . S
C329 C331 1.390 . S
C329 H333 0.950 . S
H330 C326 0.950 . S
C331 C329 1.390 . S
C331 C332 1.387 . S
C331 H334 0.950 . S
C332 C331 1.387 . S
C332 C335 1.387 . S
H333 C329 0.950 . S
H334 C331 0.950 . S
C335 C326 1.390 . S
C335 H328 0.950 . S
C335 C332 1.387 . S
C336 C337 1.387 . S
C336 H340 0.950 . S
C336 C345 1.390 1_554 S
C337 C336 1.387 . S
C337 C339 1.387 . S
H338 C345 0.950 . S
C339 C337 1.387 . S
C339 C341 1.390 1_554 S
C339 H343 0.950 . S
H340 C336 0.950 . S
C341 C339 1.390 1_556 S
C341 C342 1.387 . S
C341 H344 0.950 . S
C342 C341 1.387 . S
C342 C345 1.387 . S
H343 C339 0.950 . S
H344 C341 0.950 . S
C345 C336 1.390 1_556 S
C345 H338 0.950 . S
C345 C342 1.387 . S
C346 C347 1.387 . S
C346 H350 0.950 . S
C346 C355 1.390 . S
C347 C346 1.387 . S
C347 C349 1.387 . S
H348 C355 0.950 . S
C349 C347 1.387 . S
C349 C351 1.390 . S
C349 H353 0.950 . S
H350 C346 0.950 . S
C351 C349 1.390 . S
C351 C352 1.387 . S
C351 H354 0.950 . S
C352 C351 1.387 . S
C352 C355 1.387 . S
H353 C349 0.950 . S
H354 C351 0.950 . S
C355 C346 1.390 . S
C355 H348 0.950 . S
C355 C352 1.387 . S
C356 C357 1.387 . S
C356 H360 0.950 . S
C356 C365 1.390 . S
C357 C356 1.387 . S
C357 C359 1.387 . S
H358 C365 0.950 . S
C359 C357 1.387 . S
C359 C361 1.390 . S
C359 H363 0.950 . S
H360 C356 0.950 . S
C361 C359 1.390 . S
C361 C362 1.387 . S
C361 H364 0.950 . S
C362 C361 1.387 . S
C362 C365 1.387 . S
H363 C359 0.950 . S
H364 C361 0.950 . S
C365 C356 1.390 . S
C365 H358 0.950 . S
C365 C362 1.387 . S
C366 C367 1.387 . S
C366 H370 0.950 . S
C366 C375 1.390 1_554 S
C367 C366 1.387 . S
C367 C369 1.387 . S
H368 C375 0.950 . S
C369 C367 1.387 . S
C369 C371 1.390 1_554 S
C369 H373 0.950 . S
H370 C366 0.950 . S
C371 C369 1.390 1_556 S
C371 C372 1.387 . S
C371 H374 0.950 . S
C372 C371 1.387 . S
C372 C375 1.387 . S
H373 C369 0.950 . S
H374 C371 0.950 . S
C375 C366 1.390 1_556 S
C375 H368 0.950 . S
C375 C372 1.387 . S
C376 C377 1.387 . S
C376 H380 0.950 1_455 S
C376 C385 1.390 . S
C377 C376 1.387 . S
C377 C379 1.387 . S
H378 C385 0.950 . S
C379 C377 1.387 . S
C379 C381 1.390 . S
C379 H383 0.950 . S
H380 C376 0.950 1_655 S
C381 C379 1.390 . S
C381 C382 1.387 . S
C381 H384 0.950 . S
C382 C381 1.387 . S
C382 C385 1.387 . S
H383 C379 0.950 . S
H384 C381 0.950 . S
C385 C376 1.390 . S
C385 H378 0.950 . S
C385 C382 1.387 . S
C386 C387 1.387 . S
C386 H390 0.950 . S
C386 C395 1.390 . S
C387 C386 1.387 . S
C387 C389 1.387 . S
H388 C395 0.950 . S
C389 C387 1.387 . S
C389 C391 1.390 . S
C389 H393 0.950 . S
H390 C386 0.950 . S
C391 C389 1.390 . S
C391 C392 1.387 . S
C391 H394 0.950 . S
C392 C391 1.387 . S
C392 C395 1.387 . S
H393 C389 0.950 . S
H394 C391 0.950 . S
C395 C386 1.390 . S
C395 H388 0.950 . S
C395 C392 1.387 . S
C396 C397 1.387 . S
C396 H400 0.950 . S
C396 C405 1.390 1_455 S
C397 C396 1.387 . S
C397 C399 1.387 . S
H398 C405 0.950 . S
C399 C397 1.387 . S
C399 C401 1.390 1_455 S
C399 H403 0.950 . S
H400 C396 0.950 . S
C401 C399 1.390 1_655 S
C401 C402 1.387 . S
C401 H404 0.950 . S
C402 C401 1.387 . S
C402 C405 1.387 . S
H403 C399 0.950 . S
H404 C401 0.950 . S
C405 C396 1.390 1_655 S
C405 H398 0.950 . S
C405 C402 1.387 . S
C406 C407 1.387 . S
C406 H410 0.950 . S
C406 C415 1.390 1_545 S
C407 C406 1.387 . S
C407 C409 1.387 . S
H408 C415 0.950 . S
C409 C407 1.387 . S
C409 C411 1.390 1_545 S
C409 H413 0.950 . S
H410 C406 0.950 . S
C411 C409 1.390 1_565 S
C411 C412 1.387 . S
C411 H414 0.950 . S
C412 C411 1.387 . S
C412 C415 1.387 . S
H413 C409 0.950 . S
H414 C411 0.950 . S
C415 C406 1.390 1_565 S
C415 H408 0.950 . S
C415 C412 1.387 . S
C416 C417 1.387 . S
C416 H420 0.950 . S
C416 C425 1.390 . S
C417 C416 1.387 . S
C417 C419 1.387 . S
H418 C425 0.950 . S
C419 C417 1.387 . S
C419 C421 1.390 . S
C419 H423 0.950 . S
H420 C416 0.950 . S
C421 C419 1.390 . S
C421 C422 1.387 . S
C421 H424 0.950 . S
C422 C421 1.387 . S
C422 C425 1.387 . S
H423 C419 0.950 . S
H424 C421 0.950 . S
C425 C416 1.390 . S
C425 H418 0.950 . S
C425 C422 1.387 . S
C426 C427 1.387 . S
C426 H430 0.950 . S
C426 C435 1.390 1_545 S
C427 C426 1.387 . S
C427 C429 1.387 . S
H428 C435 0.950 . S
C429 C427 1.387 . S
C429 C431 1.390 1_545 S
C429 H433 0.950 . S
H430 C426 0.950 . S
C431 C429 1.390 1_565 S
C431 C432 1.387 . S
C431 H434 0.950 . S
C432 C431 1.387 . S
C432 C435 1.387 . S
H433 C429 0.950 . S
H434 C431 0.950 . S
C435 C426 1.390 1_565 S
C435 H428 0.950 . S
C435 C432 1.387 . S
C436 C437 1.387 . S
C436 H440 0.950 . S
C436 C445 1.390 . S
C437 C436 1.387 . S
C437 C439 1.387 . S
H438 C445 0.950 . S
C439 C437 1.387 . S
C439 C441 1.390 . S
C439 H443 0.950 . S
H440 C436 0.950 . S
C441 C439 1.390 . S
C441 C442 1.387 . S
C441 H444 0.950 . S
C442 C441 1.387 . S
C442 C445 1.387 . S
H443 C439 0.950 . S
H444 C441 0.950 . S
C445 C436 1.390 . S
C445 H438 0.950 . S
C445 C442 1.387 . S
C446 C447 1.387 . S
C446 H450 0.950 . S
C446 C455 1.390 1_655 S
C447 C446 1.387 . S
C447 C449 1.387 . S
H448 C455 0.950 . S
C449 C447 1.387 . S
C449 C451 1.390 1_655 S
C449 H453 0.950 . S
H450 C446 0.950 . S
C451 C449 1.390 1_455 S
C451 C452 1.387 . S
C451 H454 0.950 . S
C452 C451 1.387 . S
C452 C455 1.387 . S
H453 C449 0.950 . S
H454 C451 0.950 . S
C455 C446 1.390 1_455 S
C455 H448 0.950 . S
C455 C452 1.387 . S
C456 C457 1.387 . S
C456 H460 0.950 . S
C456 C465 1.390 1_645 S
C457 C456 1.387 . S
C457 C459 1.387 . S
H458 C465 0.950 . S
C459 C457 1.387 . S
C459 C461 1.390 1_645 S
C459 H463 0.950 . S
H460 C456 0.950 . S
C461 C459 1.390 1_465 S
C461 C462 1.387 . S
C461 H464 0.950 . S
C462 C461 1.387 . S
C462 C465 1.387 . S
H463 C459 0.950 . S
H464 C461 0.950 . S
C465 C456 1.390 1_465 S
C465 H458 0.950 . S
C465 C462 1.387 . S
C466 C467 1.387 . S
C466 H470 0.950 . S
C466 C475 1.390 1_645 S
C467 C466 1.387 . S
C467 C469 1.387 . S
H468 C475 0.950 . S
C469 C467 1.387 . S
C469 C471 1.390 1_645 S
C469 H473 0.950 . S
H470 C466 0.950 . S
C471 C469 1.390 1_465 S
C471 C472 1.387 . S
C471 H474 0.950 . S
C472 C471 1.387 . S
C472 C475 1.387 . S
H473 C469 0.950 . S
H474 C471 0.950 . S
C475 C466 1.390 1_465 S
C475 H468 0.950 . S
C475 C472 1.387 . S
C476 C477 1.387 . S
C476 H480 0.950 . S
C476 C485 1.390 1_445 S
C477 C476 1.387 . S
C477 C479 1.387 . S
H478 C485 0.950 . S
C479 C477 1.387 . S
C479 C481 1.390 1_445 S
C479 H483 0.950 . S
H480 C476 0.950 . S
C481 C479 1.390 1_665 S
C481 C482 1.387 . S
C481 H484 0.950 . S
C482 C481 1.387 . S
C482 C485 1.387 . S
H483 C479 0.950 . S
H484 C481 0.950 . S
C485 C476 1.390 1_665 S
C485 H478 0.950 . S
C485 C482 1.387 . S
C486 C487 1.387 . S
C486 H490 0.950 . S
C486 C495 1.390 1_665 S
C487 C486 1.387 . S
C487 C489 1.387 . S
H488 C495 0.950 . S
C489 C487 1.387 . S
C489 C491 1.390 1_665 S
C489 H493 0.950 . S
H490 C486 0.950 . S
C491 C489 1.390 1_445 S
C491 C492 1.387 . S
C491 H494 0.950 . S
C492 C491 1.387 . S
C492 C495 1.387 . S
H493 C489 0.950 . S
H494 C491 0.950 . S
C495 C486 1.390 1_445 S
C495 H488 0.950 . S
C495 C492 1.387 . S
C496 C497 1.387 . S
C496 H500 0.950 . S
C496 C505 1.390 1_665 S
C497 C496 1.387 . S
C497 C499 1.387 . S
H498 C505 0.950 . S
C499 C497 1.387 . S
C499 C501 1.390 1_665 S
C499 H503 0.950 . S
H500 C496 0.950 . S
C501 C499 1.390 1_445 S
C501 C502 1.387 . S
C501 H504 0.950 . S
C502 C501 1.387 . S
C502 C505 1.387 . S
H503 C499 0.950 . S
H504 C501 0.950 . S
C505 C496 1.390 1_445 S
C505 H498 0.950 . S
C505 C502 1.387 . S
C506 C507 1.387 . S
C506 H510 0.950 . S
C506 C515 1.390 1_665 S
C507 C506 1.387 . S
C507 C509 1.387 . S
H508 C515 0.950 . S
C509 C507 1.387 . S
C509 C511 1.390 1_665 S
C509 H513 0.950 . S
H510 C506 0.950 . S
C511 C509 1.390 1_445 S
C511 C512 1.387 . S
C511 H514 0.950 . S
C512 C511 1.387 . S
C512 C515 1.387 . S
H513 C509 0.950 . S
H514 C511 0.950 . S
C515 C506 1.390 1_445 S
C515 H508 0.950 . S
C515 C512 1.387 . S
C277 C260 1.633 . S
C282 C7 1.633 . S
C287 N25 1.523 . S
C292 N140 1.525 . S
C297 C53 1.634 . S
C302 C168 1.635 . S
C307 C76 1.634 . S
C312 C191 1.633 . S
C317 N209 1.525 . S
C322 N94 1.522 . S
C327 C122 1.633 . S
C332 C237 1.633 . S
C337 C16 1.582 . S
C342 C246 1.582 . S
C347 N35 1.583 . S
C352 C269 1.572 . S
C357 C62 1.571 . S
C362 N150 1.585 . S
C367 C85 1.582 . S
C372 C177 1.582 . S
C377 C200 1.571 . S
C382 N104 1.583 . S
C387 N219 1.585 . S
C392 C131 1.571 . S
C397 N81 1.459 . S
C402 N12 1.459 . S
C407 C39 1.523 . S
C412 C108 1.523 . S
C417 N127 1.482 . S
C422 N58 1.482 . S
C427 C223 1.521 . S
C432 C154 1.521 . S
C437 N242 1.456 . S
C442 N173 1.456 . S
C447 N196 1.483 1_655 S
C452 N265 1.483 1_455 S
C457 N2 1.482 . S
C462 N71 1.482 . S
C467 C30 1.694 . S
C472 C99 1.694 . S
C477 N117 1.413 . S
C482 N48 1.413 . S
C487 C145 1.693 . S
C492 C214 1.693 . S
C497 N163 1.482 . S
C502 N232 1.482 . S
C507 N186 1.415 . S
C512 N255 1.415 . S
