# Generated by pormake.
# Topology wmi, (6)-cn, num edge types: 1
# Building blocks:
#     Node 0, Type 0, BuildingBlock: MIFKUJ_clean_sbu_0, # of connection points: 6
#     Node 1, Type 0, BuildingBlock: MIFKUJ_clean_sbu_0, # of connection points: 6
#     Node 2, Type 0, BuildingBlock: MIFKUJ_clean_sbu_0, # of connection points: 6
#     Node 3, Type 0, BuildingBlock: MIFKUJ_clean_sbu_0, # of connection points: 6
#     Node 4, Type 0, BuildingBlock: MIFKUJ_clean_sbu_0, # of connection points: 6
#     Node 5, Type 0, BuildingBlock: MIFKUJ_clean_sbu_0, # of connection points: 6
#     Node 6, Type 0, BuildingBlock: MIFKUJ_clean_sbu_0, # of connection points: 6
#     Node 7, Type 0, BuildingBlock: MIFKUJ_clean_sbu_0, # of connection points: 6
#     Node 8, Type 0, BuildingBlock: MIFKUJ_clean_sbu_0, # of connection points: 6
#     Node 9, Type 0, BuildingBlock: MIFKUJ_clean_sbu_0, # of connection points: 6
#     Node 10, Type 0, BuildingBlock: MIFKUJ_clean_sbu_0, # of connection points: 6
#     Node 11, Type 0, BuildingBlock: MIFKUJ_clean_sbu_0, # of connection points: 6
#     Node 12, Type 0, BuildingBlock: MIFKUJ_clean_sbu_0, # of connection points: 6
#     Node 13, Type 0, BuildingBlock: MIFKUJ_clean_sbu_0, # of connection points: 6
#     Node 14, Type 0, BuildingBlock: MIFKUJ_clean_sbu_0, # of connection points: 6
#     Node 15, Type 0, BuildingBlock: MIFKUJ_clean_sbu_0, # of connection points: 6
#     Node 16, Type 0, BuildingBlock: MIFKUJ_clean_sbu_0, # of connection points: 6
#     Node 17, Type 0, BuildingBlock: MIFKUJ_clean_sbu_0, # of connection points: 6
#     Edge 18, Type (0, 0), BuildingBlock: XUDNAN_clean_linker_2, # of connection points: 2
#     Edge 19, Type (0, 0), BuildingBlock: XUDNAN_clean_linker_2, # of connection points: 2
#     Edge 20, Type (0, 0), BuildingBlock: XUDNAN_clean_linker_2, # of connection points: 2
#     Edge 21, Type (0, 0), BuildingBlock: XUDNAN_clean_linker_2, # of connection points: 2
#     Edge 22, Type (0, 0), BuildingBlock: XUDNAN_clean_linker_2, # of connection points: 2
#     Edge 23, Type (0, 0), BuildingBlock: XUDNAN_clean_linker_2, # of connection points: 2
#     Edge 24, Type (0, 0), BuildingBlock: XUDNAN_clean_linker_2, # of connection points: 2
#     Edge 25, Type (0, 0), BuildingBlock: XUDNAN_clean_linker_2, # of connection points: 2
#     Edge 26, Type (0, 0), BuildingBlock: XUDNAN_clean_linker_2, # of connection points: 2
#     Edge 27, Type (0, 0), BuildingBlock: XUDNAN_clean_linker_2, # of connection points: 2
#     Edge 28, Type (0, 0), BuildingBlock: XUDNAN_clean_linker_2, # of connection points: 2
#     Edge 29, Type (0, 0), BuildingBlock: XUDNAN_clean_linker_2, # of connection points: 2
#     Edge 30, Type (0, 0), BuildingBlock: XUDNAN_clean_linker_2, # of connection points: 2
#     Edge 31, Type (0, 0), BuildingBlock: XUDNAN_clean_linker_2, # of connection points: 2
#     Edge 32, Type (0, 0), BuildingBlock: XUDNAN_clean_linker_2, # of connection points: 2
#     Edge 33, Type (0, 0), BuildingBlock: XUDNAN_clean_linker_2, # of connection points: 2
#     Edge 34, Type (0, 0), BuildingBlock: XUDNAN_clean_linker_2, # of connection points: 2
#     Edge 35, Type (0, 0), BuildingBlock: XUDNAN_clean_linker_2, # of connection points: 2
#     Edge 36, Type (0, 0), BuildingBlock: XUDNAN_clean_linker_2, # of connection points: 2
#     Edge 37, Type (0, 0), BuildingBlock: XUDNAN_clean_linker_2, # of connection points: 2
#     Edge 38, Type (0, 0), BuildingBlock: XUDNAN_clean_linker_2, # of connection points: 2
#     Edge 39, Type (0, 0), BuildingBlock: XUDNAN_clean_linker_2, # of connection points: 2
#     Edge 40, Type (0, 0), BuildingBlock: XUDNAN_clean_linker_2, # of connection points: 2
#     Edge 41, Type (0, 0), BuildingBlock: XUDNAN_clean_linker_2, # of connection points: 2
#     Edge 42, Type (0, 0), BuildingBlock: XUDNAN_clean_linker_2, # of connection points: 2
#     Edge 43, Type (0, 0), BuildingBlock: XUDNAN_clean_linker_2, # of connection points: 2
#     Edge 44, Type (0, 0), BuildingBlock: XUDNAN_clean_linker_2, # of connection points: 2
#     Edge 45, Type (0, 0), BuildingBlock: XUDNAN_clean_linker_2, # of connection points: 2
#     Edge 46, Type (0, 0), BuildingBlock: XUDNAN_clean_linker_2, # of connection points: 2
#     Edge 47, Type (0, 0), BuildingBlock: XUDNAN_clean_linker_2, # of connection points: 2
#     Edge 48, Type (0, 0), BuildingBlock: XUDNAN_clean_linker_2, # of connection points: 2
#     Edge 49, Type (0, 0), BuildingBlock: XUDNAN_clean_linker_2, # of connection points: 2
#     Edge 50, Type (0, 0), BuildingBlock: XUDNAN_clean_linker_2, # of connection points: 2
#     Edge 51, Type (0, 0), BuildingBlock: XUDNAN_clean_linker_2, # of connection points: 2
#     Edge 52, Type (0, 0), BuildingBlock: XUDNAN_clean_linker_2, # of connection points: 2
#     Edge 53, Type (0, 0), BuildingBlock: XUDNAN_clean_linker_2, # of connection points: 2
#     Edge 54, Type (0, 0), BuildingBlock: XUDNAN_clean_linker_2, # of connection points: 2
#     Edge 55, Type (0, 0), BuildingBlock: XUDNAN_clean_linker_2, # of connection points: 2
#     Edge 56, Type (0, 0), BuildingBlock: XUDNAN_clean_linker_2, # of connection points: 2
#     Edge 57, Type (0, 0), BuildingBlock: XUDNAN_clean_linker_2, # of connection points: 2
#     Edge 58, Type (0, 0), BuildingBlock: XUDNAN_clean_linker_2, # of connection points: 2
#     Edge 59, Type (0, 0), BuildingBlock: XUDNAN_clean_linker_2, # of connection points: 2
#     Edge 60, Type (0, 0), BuildingBlock: XUDNAN_clean_linker_2, # of connection points: 2
#     Edge 61, Type (0, 0), BuildingBlock: XUDNAN_clean_linker_2, # of connection points: 2
#     Edge 62, Type (0, 0), BuildingBlock: XUDNAN_clean_linker_2, # of connection points: 2
#     Edge 63, Type (0, 0), BuildingBlock: XUDNAN_clean_linker_2, # of connection points: 2
#     Edge 64, Type (0, 0), BuildingBlock: XUDNAN_clean_linker_2, # of connection points: 2
#     Edge 65, Type (0, 0), BuildingBlock: XUDNAN_clean_linker_2, # of connection points: 2
#     Edge 66, Type (0, 0), BuildingBlock: XUDNAN_clean_linker_2, # of connection points: 2
#     Edge 67, Type (0, 0), BuildingBlock: XUDNAN_clean_linker_2, # of connection points: 2
#     Edge 68, Type (0, 0), BuildingBlock: XUDNAN_clean_linker_2, # of connection points: 2
#     Edge 69, Type (0, 0), BuildingBlock: XUDNAN_clean_linker_2, # of connection points: 2
#     Edge 70, Type (0, 0), BuildingBlock: XUDNAN_clean_linker_2, # of connection points: 2
#     Edge 71, Type (0, 0), BuildingBlock: XUDNAN_clean_linker_2, # of connection points: 2
# Relax obj value: 0.080
# Max RMSD: 0.183
# Mean RMSD: 0.183
data_MOF--net-wmi--node1-MIFKUJ_clean_sbu_0--edge1-XUDNAN_clean_linker_2
_symmetry_space_group_name_H-M    P1
_symmetry_Int_Tables_number       1
_symmetry_cell_setting            triclinic
loop_
_symmetry_equiv_pos_as_xyz
'x, y, z'
_cell_length_a     34.818788
_cell_length_b     34.7575
_cell_length_c     78.29972
_cell_angle_alpha  90.017822
_cell_angle_beta   89.976119
_cell_angle_gamma 119.82393
loop_
_atom_site_label
_atom_site_type_symbol
_atom_site_fract_x
_atom_site_fract_y
_atom_site_fract_z
_atom_type_partial_charge
Zn0 Zn 0.43333 0.97582 0.08218 0.0
Zn1 Zn 0.51401 0.0982 0.08778 0.0
C2 C 0.49359 0.95028 0.07038 0.0
O3 O 0.47302 0.94905 0.05616 0.0
C4 C 0.51854 0.18117 0.09362 0.0
O5 O 0.53803 0.17844 0.10757 0.0
O6 O 0.37888 0.91513 0.08063 0.0
O7 O 0.42314 0.99986 0.10344 0.0
O8 O 0.47242 0.07028 0.10795 0.0
C9 C 0.36874 0.89348 0.09459 0.0
O10 O 0.39422 0.91122 0.108 0.0
O11 O 0.48377 0.96328 0.08403 0.0
C12 C 0.60754 0.15313 0.08584 0.0
O13 O 0.59578 0.16127 0.07092 0.0
O14 O 0.57767 0.12494 0.09567 0.0
O15 O 0.50773 0.06704 0.06484 0.0
O16 O 0.4393 0.011 0.06103 0.0
O17 O 0.50552 0.15036 0.08257 0.0
C18 C 0.43873 0.03429 0.11261 0.0
C19 C 0.47715 0.0389 0.05519 0.0
Zn20 Zn 0.0995 0.4892 0.08505 0.0
Zn21 Zn 0.98327 0.46921 0.09482 0.0
C22 C 0.14704 0.58054 0.08383 0.0
O23 O 0.15368 0.56833 0.06874 0.0
C24 C 0.91424 0.38359 0.10775 0.0
O25 O 0.93336 0.39929 0.12257 0.0
O26 O 0.15428 0.48252 0.08369 0.0
O27 O 0.05217 0.44231 0.0996 0.0
O28 O 0.0239 0.4755 0.11445 0.0
C29 C 0.17761 0.49231 0.09722 0.0
O30 O 0.16362 0.50311 0.11099 0.0
O31 O 0.12192 0.55073 0.09438 0.0
C32 C 0.92295 0.50043 0.08951 0.0
O33 O 0.91076 0.47036 0.07742 0.0
O34 O 0.95577 0.50786 0.09891 0.0
O35 O 0.01107 0.48257 0.07111 0.0
O36 O 0.07475 0.48933 0.06216 0.0
O37 O 0.93099 0.40665 0.09436 0.0
C38 C 0.04751 0.4571 0.11375 0.0
C39 C 0.03877 0.48927 0.05922 0.0
Zn40 Zn 0.58392 0.64799 0.07603 0.0
Zn41 Zn 0.60331 0.55945 0.08869 0.0
C42 C 0.49133 0.59886 0.07727 0.0
O43 O 0.49929 0.61257 0.06134 0.0
C44 C 0.69134 0.5812 0.10106 0.0
O45 O 0.67939 0.59363 0.11497 0.0
O46 O 0.58918 0.70722 0.07139 0.0
O47 O 0.63591 0.65804 0.08961 0.0
O48 O 0.60313 0.60187 0.10702 0.0
C49 C 0.57884 0.72618 0.08293 0.0
O50 O 0.56533 0.70674 0.09785 0.0
O51 O 0.52407 0.60926 0.08718 0.0
C52 C 0.53146 0.46834 0.0878 0.0
O53 O 0.51518 0.48351 0.07618 0.0
O54 O 0.56612 0.49556 0.09588 0.0
O55 O 0.58778 0.56242 0.06348 0.0
O56 O 0.58421 0.62109 0.05426 0.0
O57 O 0.66514 0.56735 0.08833 0.0
C58 C 0.62554 0.64354 0.10465 0.0
C59 C 0.58273 0.58445 0.05153 0.0
Zn60 Zn 0.95153 0.43404 0.9103 0.0
Zn61 Zn 0.06286 0.52593 0.9032 0.0
C62 C 0.8912 0.4636 0.9079 0.0
O63 O 0.88307 0.44425 0.92293 0.0
C64 C 0.13444 0.51105 0.89431 0.0
O65 O 0.13815 0.53718 0.88153 0.0
O66 O 0.90459 0.37246 0.9166 0.0
O67 O 0.99598 0.42962 0.89575 0.0
O68 O 0.02224 0.4939 0.88306 0.0
C69 C 0.87759 0.34524 0.90578 0.0
O70 O 0.88133 0.35694 0.88964 0.0
O71 O 0.92143 0.46386 0.89868 0.0
C72 C 0.13307 0.61512 0.90656 0.0
O73 O 0.1394 0.59817 0.92055 0.0
O74 O 0.10097 0.5903 0.89681 0.0
O75 O 0.04 0.52489 0.92724 0.0
O76 O 0.97453 0.46518 0.93204 0.0
O77 O 0.10394 0.50094 0.90527 0.0
C78 C 1.00456 0.45198 0.88215 0.0
C79 C 0.00776 0.5008 0.93706 0.0
Zn80 Zn 0.58957 0.54275 0.90163 0.0
Zn81 Zn 0.49411 0.53604 0.89532 0.0
C82 C 0.5528 0.45632 0.91569 0.0
O83 O 0.57477 0.48095 0.92883 0.0
C84 C 0.52127 0.62435 0.88128 0.0
O85 O 0.5142 0.60388 0.86653 0.0
O86 O 0.65181 0.55287 0.90329 0.0
O87 O 0.58415 0.56926 0.88011 0.0
O88 O 0.51669 0.51607 0.87489 0.0
C89 C 0.68147 0.57142 0.89187 0.0
O90 O 0.67428 0.59082 0.87886 0.0
O91 O 0.5523 0.47522 0.90181 0.0
C92 C 0.39895 0.48161 0.9019 0.0
O93 O 0.41076 0.4627 0.91372 0.0
O94 O 0.42843 0.51115 0.89237 0.0
O95 O 0.50356 0.51927 0.91941 0.0
O96 O 0.57503 0.56717 0.92192 0.0
O97 O 0.51731 0.60289 0.89497 0.0
C98 C 0.55614 0.54133 0.86989 0.0
C99 C 0.5372 0.54355 0.92863 0.0
Zn100 Zn 0.49293 0.06869 0.91147 0.0
Zn101 Zn 0.48196 0.96483 0.89729 0.0
C102 C 0.5788 0.10858 0.92754 0.0
O103 O 0.55659 0.10815 0.94118 0.0
C104 C 0.39086 0.90806 0.88706 0.0
O105 O 0.40588 0.92729 0.87221 0.0
O106 O 0.48326 0.11954 0.91877 0.0
O107 O 0.48071 0.06101 0.88693 0.0
O108 O 0.48782 0.00503 0.87683 0.0
C109 C 0.50222 0.15394 0.90934 0.0
O110 O 0.52595 0.15382 0.89632 0.0
O111 O 0.55805 0.09152 0.91377 0.0
C112 C 0.50023 0.89291 0.90023 0.0
O113 O 0.47727 0.88685 0.91428 0.0
O114 O 0.50858 0.92602 0.89075 0.0
O115 O 0.50453 0.99026 0.92128 0.0
O116 O 0.4573 0.01385 0.92533 0.0
O117 O 0.41692 0.92015 0.8998 0.0
C118 C 0.48326 0.03892 0.87455 0.0
C119 C 0.48137 0.99929 0.93137 0.0
Zn120 Zn 0.08961 0.27838 0.41377 0.0
Zn121 Zn 0.17666 0.38878 0.42702 0.0
C122 C 0.13083 0.22885 0.41467 0.0
O123 O 0.11184 0.22093 0.39958 0.0
C124 C 0.1525 0.45032 0.44089 0.0
O125 O 0.15253 0.43077 0.45524 0.0
O126 O 0.03023 0.22515 0.4084 0.0
O127 O 0.07845 0.31841 0.42841 0.0
O128 O 0.13634 0.34522 0.44528 0.0
C129 C 0.01036 0.19477 0.41947 0.0
O130 O 0.02883 0.1988 0.43448 0.0
O131 O 0.12688 0.25559 0.42463 0.0
C132 C 0.26649 0.45319 0.42431 0.0
O133 O 0.24891 0.46126 0.4109 0.0
O134 O 0.24151 0.4207 0.43395 0.0
O135 O 0.1731 0.37015 0.40205 0.0
O136 O 0.11832 0.30668 0.39216 0.0
O137 O 0.16114 0.43739 0.42696 0.0
C138 C 0.09454 0.32521 0.4433 0.0
C139 C 0.15365 0.34322 0.3898 0.0
Zn140 Zn 0.71624 0.80629 0.41812 0.0
Zn141 Zn 0.61725 0.80242 0.42793 0.0
C142 C 0.76214 0.89411 0.40676 0.0
O143 O 0.75899 0.87192 0.39276 0.0
C144 C 0.55995 0.71286 0.43948 0.0
O145 O 0.57408 0.7321 0.45439 0.0
O146 O 0.76926 0.79755 0.41336 0.0
O147 O 0.68873 0.77494 0.43972 0.0
O148 O 0.65807 0.81405 0.44854 0.0
C149 C 0.8014 0.81374 0.42394 0.0
O150 O 0.79803 0.83323 0.43779 0.0
O151 O 0.74425 0.8728 0.42041 0.0
C152 C 0.57172 0.85483 0.42485 0.0
O153 O 0.60165 0.87655 0.41306 0.0
O154 O 0.57366 0.82441 0.43322 0.0
O155 O 0.6445 0.82715 0.40451 0.0
O156 O 0.67472 0.786 0.39826 0.0
O157 O 0.57558 0.73582 0.42595 0.0
C158 C 0.67618 0.79071 0.45169 0.0
C159 C 0.6587 0.8101 0.39354 0.0
Zn160 Zn 0.19964 0.92203 0.42447 0.0
Zn161 Zn 0.19625 0.82944 0.43317 0.0
C162 C 0.10956 0.88013 0.41361 0.0
O163 O 0.13075 0.89709 0.39924 0.0
C164 C 0.28192 0.83584 0.44056 0.0
O165 O 0.25798 0.8036 0.45127 0.0
O166 O 0.21035 0.98428 0.42162 0.0
O167 O 0.23383 0.92225 0.44474 0.0
O168 O 0.18182 0.8575 0.45347 0.0
C169 C 0.2329 0.01597 0.43192 0.0
O170 O 0.25474 0.01016 0.44437 0.0
O171 O 0.13198 0.88475 0.42711 0.0
C172 C 0.17476 0.74026 0.42765 0.0
O173 O 0.19619 0.75825 0.41341 0.0
O174 O 0.16921 0.76446 0.4384 0.0
O175 O 0.17578 0.83253 0.40886 0.0
O176 O 0.21883 0.90402 0.40362 0.0
O177 O 0.26329 0.85326 0.432 0.0
C178 C 0.21047 0.89741 0.45673 0.0
C179 C 0.1975 0.86422 0.39842 0.0
Zn180 Zn 0.65989 0.79241 0.24312 0.0
Zn181 Zn 0.74578 0.88426 0.2366 0.0
C182 C 0.59996 0.82624 0.24799 0.0
O183 O 0.58995 0.80032 0.26142 0.0
C184 C 0.82666 0.87994 0.2313 0.0
O185 O 0.8314 0.90624 0.21845 0.0
O186 O 0.6093 0.73125 0.24671 0.0
O187 O 0.69214 0.78706 0.22341 0.0
O188 O 0.7117 0.85422 0.21472 0.0
C189 C 0.5828 0.71285 0.23433 0.0
O190 O 0.59038 0.73421 0.21976 0.0
O191 O 0.63094 0.83021 0.23814 0.0
C192 C 0.80901 0.97506 0.24179 0.0
O193 O 0.81426 0.95858 0.25613 0.0
O194 O 0.78026 0.94919 0.23113 0.0
O195 O 0.71469 0.88025 0.25946 0.0
O196 O 0.69464 0.81061 0.26444 0.0
O197 O 0.79217 0.86536 0.24065 0.0
C198 C 0.69997 0.81407 0.21133 0.0
C199 C 0.7051 0.84879 0.26997 0.0
Zn200 Zn 0.29039 0.90781 0.24736 0.0
Zn201 Zn 0.19764 0.91316 0.24194 0.0
C202 C 0.24475 0.81638 0.24816 0.0
O203 O 0.26939 0.82813 0.26199 0.0
C204 C 0.21074 0.99934 0.23816 0.0
O205 O 0.19334 0.98129 0.22335 0.0
O206 O 0.34934 0.90781 0.24878 0.0
O207 O 0.29814 0.9564 0.23185 0.0
O208 O 0.23222 0.91814 0.21993 0.0
C209 C 0.37251 0.91463 0.23533 0.0
O210 O 0.35914 0.924 0.22103 0.0
O211 O 0.24644 0.8467 0.23854 0.0
C212 C 0.10433 0.87559 0.24902 0.0
O213 O 0.11869 0.87358 0.26431 0.0
O214 O 0.13175 0.88969 0.23662 0.0
O215 O 0.20013 0.87905 0.26299 0.0
O216 O 0.27082 0.91385 0.27051 0.0
O217 O 0.21802 0.97647 0.24902 0.0
C218 C 0.2728 0.94831 0.21912 0.0
C219 C 0.2301 0.89086 0.27437 0.0
Zn220 Zn 0.18386 0.44828 0.23908 0.0
Zn221 Zn 0.15518 0.32099 0.23529 0.0
C222 C 0.27278 0.50121 0.24438 0.0
O223 O 0.2546 0.50719 0.25807 0.0
C224 C 0.06265 0.26991 0.22415 0.0
O225 O 0.07649 0.29315 0.21 0.0
O226 O 0.16687 0.496 0.23978 0.0
O227 O 0.14629 0.39491 0.22571 0.0
O228 O 0.16917 0.35489 0.21272 0.0
C229 C 0.13873 0.50157 0.23139 0.0
O230 O 0.11235 0.47124 0.22046 0.0
O231 O 0.24808 0.47688 0.23237 0.0
C232 C 0.19515 0.27207 0.24958 0.0
O233 O 0.19231 0.29048 0.26382 0.0
O234 O 0.18317 0.28176 0.23562 0.0
O235 O 0.17195 0.35795 0.25755 0.0
O236 O 0.18326 0.42625 0.26228 0.0
O237 O 0.08984 0.27764 0.23627 0.0
C238 C 0.1632 0.38799 0.21262 0.0
C239 C 0.18107 0.39059 0.2675 0.0
Zn240 Zn 0.73041 0.58067 0.74852 0.0
Zn241 Zn 0.81873 0.71377 0.75644 0.0
C242 C 0.80629 0.57426 0.76143 0.0
O243 O 0.83058 0.61197 0.75341 0.0
C244 C 0.82587 0.79822 0.76233 0.0
O245 O 0.84719 0.79546 0.7757 0.0
O246 O 0.66766 0.5289 0.74605 0.0
O247 O 0.73635 0.63521 0.75922 0.0
O248 O 0.78396 0.68101 0.77759 0.0
C249 C 0.64748 0.50762 0.75943 0.0
O250 O 0.66611 0.52239 0.77436 0.0
O251 O 0.76441 0.55704 0.76146 0.0
C252 C 0.91119 0.77188 0.75158 0.0
O253 O 0.89549 0.78371 0.7386 0.0
O254 O 0.88426 0.74046 0.76118 0.0
O255 O 0.80114 0.67148 0.73566 0.0
O256 O 0.75947 0.60311 0.72577 0.0
O257 O 0.80864 0.7658 0.7519 0.0
C258 C 0.74875 0.64489 0.77453 0.0
C259 C 0.78881 0.64361 0.72336 0.0
Zn260 Zn 0.39663 0.09779 0.74268 0.0
Zn261 Zn 0.28946 0.0864 0.7511 0.0
C262 C 0.44444 0.19176 0.7405 0.0
O263 O 0.45599 0.18069 0.72614 0.0
C264 C 0.22157 1.00167 0.76642 0.0
O265 O 0.24704 0.0134 0.78 0.0
O266 O 0.44916 0.08868 0.74319 0.0
O267 O 0.35149 0.05249 0.75832 0.0
O268 O 0.33074 0.09516 0.77066 0.0
C269 C 0.47537 0.10598 0.75574 0.0
O270 O 0.46732 0.12915 0.76696 0.0
O271 O 0.41719 0.16106 0.7503 0.0
C272 C 0.27297 0.15862 0.7422 0.0
O273 O 0.29483 0.16188 0.7281 0.0
O274 O 0.26885 0.13061 0.75352 0.0
O275 O 0.31083 0.08885 0.72676 0.0
O276 O 0.37338 0.09136 0.71918 0.0
O277 O 0.23383 0.02682 0.75338 0.0
C278 C 0.34886 0.07141 0.77167 0.0
C279 C 0.33733 0.09001 0.71528 0.0
Zn280 Zn 0.86148 0.25481 0.76684 0.0
Zn281 Zn 0.94116 0.19589 0.76184 0.0
C282 C 0.7789 0.17406 0.76602 0.0
O283 O 0.8022 0.16083 0.75712 0.0
C284 C 0.02439 0.20314 0.76329 0.0
O285 O 0.00796 0.18651 0.77837 0.0
O286 O 0.87814 0.31827 0.77198 0.0
O287 O 0.89997 0.23446 0.77559 0.0
O288 O 0.95357 0.22755 0.78519 0.0
C289 C 0.85369 0.32687 0.78145 0.0
O290 O 0.81892 0.294 0.78879 0.0
O291 O 0.7981 0.21283 0.77237 0.0
C292 C 0.88285 0.10425 0.75229 0.0
O293 O 0.87735 0.12331 0.73876 0.0
O294 O 0.90733 0.12856 0.7644 0.0
O295 O 0.91052 0.21585 0.74349 0.0
O296 O 0.86864 0.24817 0.74216 0.0
O297 O 1.001 0.21093 0.75295 0.0
C298 C 0.92944 0.2449 0.78671 0.0
C299 C 0.88938 0.23091 0.73495 0.0
Zn300 Zn 0.28682 0.12574 0.55733 0.0
Zn301 Zn 0.413 0.15393 0.56792 0.0
C302 C 0.27289 0.20022 0.5624 0.0
O303 O 0.28994 0.20254 0.57759 0.0
C304 C 0.4858 0.14373 0.56614 0.0
O305 O 0.48713 0.16435 0.5519 0.0
O306 O 0.24007 0.06682 0.54806 0.0
O307 O 0.34676 0.14525 0.54999 0.0
O308 O 0.39495 0.1262 0.54423 0.0
C309 C 0.23377 0.02984 0.55368 0.0
O310 O 0.25991 0.02931 0.56566 0.0
O311 O 0.26982 0.17105 0.55188 0.0
C312 C 0.45661 0.2404 0.58193 0.0
O313 O 0.44026 0.2161 0.59573 0.0
O314 O 0.44823 0.22113 0.56747 0.0
O315 O 0.36059 0.13413 0.58483 0.0
O316 O 0.29043 0.11895 0.58239 0.0
O317 O 0.45445 0.13429 0.57659 0.0
C318 C 0.35899 0.12436 0.54035 0.0
C319 C 0.32262 0.1225 0.59137 0.0
Zn320 Zn 0.95673 0.24854 0.58146 0.0
Zn321 Zn 0.86197 0.2512 0.57542 0.0
C322 C 0.90207 0.15516 0.58831 0.0
O323 O 0.91414 0.16971 0.60396 0.0
C324 C 0.86791 0.33001 0.55959 0.0
O325 O 0.86506 0.30872 0.54536 0.0
O326 O 0.01696 0.2554 0.58008 0.0
O327 O 0.95847 0.2903 0.56336 0.0
O328 O 0.89187 0.2423 0.55488 0.0
C329 C 0.02417 0.24412 0.56553 0.0
O330 O 0.99229 0.22827 0.55413 0.0
O331 O 0.91471 0.18295 0.57607 0.0
C332 C 0.7742 0.1753 0.58173 0.0
O333 O 0.79322 0.16441 0.5938 0.0
O334 O 0.7974 0.2093 0.57257 0.0
O335 O 0.87678 0.24441 0.59988 0.0
O336 O 0.94593 0.26156 0.60511 0.0
O337 O 0.86828 0.31241 0.5738 0.0
C338 C 0.93166 0.27044 0.55131 0.0
C339 C 0.90748 0.25116 0.61033 0.0
Zn340 Zn 0.84608 0.77415 0.57313 0.0
Zn341 Zn 0.77306 0.63155 0.57414 0.0
C342 C 0.93633 0.79468 0.56558 0.0
O343 O 0.93203 0.77211 0.57959 0.0
C344 C 0.69649 0.54936 0.57301 0.0
O345 O 0.71186 0.55546 0.55732 0.0
O346 O 0.83027 0.82298 0.57578 0.0
O347 O 0.8006 0.71808 0.56325 0.0
O348 O 0.7522 0.65377 0.55391 0.0
C349 C 0.84542 0.85617 0.56571 0.0
O350 O 0.86942 0.85743 0.55255 0.0
O351 O 0.90378 0.79838 0.56032 0.0
C352 C 0.81414 0.57889 0.57657 0.0
O353 O 0.80019 0.57676 0.59233 0.0
O354 O 0.80865 0.60339 0.5659 0.0
O355 O 0.80955 0.68009 0.59239 0.0
O356 O 0.85121 0.75325 0.59631 0.0
O357 O 0.71739 0.57987 0.58397 0.0
C358 C 0.77014 0.69549 0.55278 0.0
C359 C 0.83314 0.71357 0.60201 0.0
H360 H 0.505 0.9061 0.09697 0.0
H361 H 0.54232 0.94507 0.04428 0.0
H362 H 0.57779 0.89877 0.04311 0.0
H363 H 0.60322 0.89397 0.10928 0.0
H364 H 0.56907 0.8457 0.12207 0.0
H365 H 0.55496 0.88883 0.11991 0.0
H366 H 0.47684 0.83076 0.10922 0.0
H367 H 0.49078 0.78763 0.11115 0.0
H368 H 0.4717 0.79682 0.09098 0.0
H369 H 0.59925 0.84067 0.04624 0.0
H370 H 0.6052 0.77475 0.0534 0.0
H371 H 0.55198 0.77159 0.10387 0.0
C372 C 0.52226 0.90626 0.08544 0.0
C373 C 0.52163 0.92959 0.07078 0.0
C374 C 0.5429 0.92769 0.05567 0.0
C375 C 0.5632 0.9016 0.05491 0.0
C376 C 0.5618 0.87756 0.06937 0.0
C377 C 0.5421 0.87982 0.0844 0.0
C378 C 0.54016 0.84653 0.09736 0.0
C379 C 0.56856 0.87018 0.11309 0.0
C380 C 0.49202 0.81349 0.10246 0.0
C381 C 0.56034 0.82414 0.08705 0.0
C382 C 0.57331 0.84306 0.07106 0.0
C383 C 0.58995 0.82606 0.05883 0.0
C384 C 0.59304 0.78848 0.063 0.0
C385 C 0.57915 0.76804 0.07921 0.0
C386 C 0.56329 0.78669 0.09144 0.0
H387 H 0.325 0.83399 0.06882 0.0
H388 H 0.32482 0.85188 0.12364 0.0
H389 H 0.26237 0.77553 0.12661 0.0
H390 H 0.20433 0.7613 0.06348 0.0
H391 H 0.2111 0.72726 0.04775 0.0
H392 H 0.25214 0.78509 0.04969 0.0
H393 H 0.31315 0.7639 0.05396 0.0
H394 H 0.27236 0.70613 0.05203 0.0
H395 H 0.30706 0.72573 0.07073 0.0
H396 H 0.20353 0.69548 0.12389 0.0
H397 H 0.15536 0.61691 0.11572 0.0
H398 H 0.19556 0.65098 0.06285 0.0
C399 C 0.31115 0.8221 0.08139 0.0
C400 C 0.32945 0.84887 0.09599 0.0
C401 C 0.3112 0.83187 0.11228 0.0
C402 C 0.27559 0.78863 0.1141 0.0
C403 C 0.25872 0.76274 0.09949 0.0
C404 C 0.27595 0.77877 0.08345 0.0
C405 C 0.2544 0.74297 0.07001 0.0
C406 C 0.22898 0.75488 0.05697 0.0
C407 C 0.28879 0.73417 0.06117 0.0
C408 C 0.22308 0.70418 0.08105 0.0
C409 C 0.22554 0.71634 0.09798 0.0
C410 C 0.20098 0.68562 0.11065 0.0
C411 C 0.1737 0.64111 0.1059 0.0
C412 C 0.17171 0.62786 0.08867 0.0
C413 C 0.19624 0.66007 0.07613 0.0
H414 H 0.232 0.5061 0.06972 0.0
H415 H 0.22513 0.49227 0.12485 0.0
H416 H 0.30335 0.51072 0.12556 0.0
H417 H 0.31077 0.46468 0.06207 0.0
H418 H 0.3393 0.50497 0.0455 0.0
H419 H 0.28111 0.48414 0.04911 0.0
H420 H 0.29631 0.5646 0.0529 0.0
H421 H 0.35445 0.58564 0.04943 0.0
H422 H 0.33594 0.59996 0.06866 0.0
H423 H 0.38456 0.53821 0.12056 0.0
H424 H 0.46187 0.57308 0.11018 0.0
H425 H 0.41583 0.57059 0.05847 0.0
C426 C 0.24659 0.50562 0.08187 0.0
C427 C 0.22234 0.4972 0.09721 0.0
C428 C 0.24301 0.49826 0.11293 0.0
C429 C 0.28743 0.50866 0.11346 0.0
C430 C 0.31086 0.51806 0.09817 0.0
C431 C 0.2911 0.51647 0.08265 0.0
C432 C 0.32457 0.53193 0.06825 0.0
C433 C 0.31326 0.49417 0.05548 0.0
C434 C 0.32801 0.57297 0.05929 0.0
C435 C 0.36634 0.54347 0.07813 0.0
C436 C 0.35774 0.53471 0.09534 0.0
C437 C 0.39161 0.5447 0.10708 0.0
C438 C 0.43543 0.56454 0.10108 0.0
C439 C 0.44499 0.57454 0.08352 0.0
C440 C 0.40973 0.56321 0.07196 0.0
H441 H 0.82318 0.46452 0.92476 0.0
H442 H 0.90154 0.51119 0.87841 0.0
H443 H 0.8588 0.54752 0.86971 0.0
H444 H 0.72008 0.4398 0.90603 0.0
H445 H 0.70179 0.45719 0.92452 0.0
H446 H 0.73935 0.4361 0.92701 0.0
H447 H 0.7947 0.50821 0.94284 0.0
H448 H 0.75741 0.52965 0.94029 0.0
H449 H 0.81353 0.5611 0.93263 0.0
H450 H 0.80575 0.5777 0.86608 0.0
H451 H 0.74592 0.5964 0.86728 0.0
H452 H 0.70387 0.52969 0.91625 0.0
C453 C 0.83159 0.48245 0.91278 0.0
C454 C 0.86582 0.48512 0.90228 0.0
C455 C 0.87546 0.50874 0.88666 0.0
C456 C 0.85144 0.52956 0.88165 0.0
C457 C 0.818 0.5264 0.8924 0.0
C458 C 0.80805 0.50325 0.90761 0.0
C459 C 0.77002 0.5037 0.91675 0.0
C460 C 0.73048 0.4564 0.91868 0.0
C461 C 0.78482 0.52707 0.93416 0.0
C462 C 0.75989 0.53068 0.90432 0.0
C463 C 0.78791 0.54366 0.89036 0.0
C464 C 0.78385 0.56792 0.877 0.0
C465 C 0.74986 0.57854 0.87784 0.0
C466 C 0.72035 0.56481 0.89192 0.0
C467 C 0.72603 0.54107 0.90538 0.0
H468 H 0.52235 0.22316 0.88773 0.0
H469 H 0.47616 0.17632 0.93913 0.0
H470 H 0.47729 0.24667 0.94552 0.0
H471 H 0.59693 0.33342 0.89809 0.0
H472 H 0.5857 0.35685 0.87952 0.0
H473 H 0.57764 0.3016 0.87866 0.0
H474 H 0.49634 0.27139 0.86913 0.0
H475 H 0.50417 0.32667 0.86998 0.0
H476 H 0.46008 0.2826 0.882 0.0
H477 H 0.49199 0.32543 0.94721 0.0
H478 H 0.51577 0.4049 0.94373 0.0
H479 H 0.54814 0.3988 0.89071 0.0
C480 C 0.51192 0.22741 0.90028 0.0
C481 C 0.49924 0.19426 0.91297 0.0
C482 C 0.4858 0.20114 0.9292 0.0
C483 C 0.48634 0.241 0.93294 0.0
C484 C 0.49967 0.27326 0.9202 0.0
C485 C 0.51171 0.26664 0.90413 0.0
C486 C 0.52627 0.30708 0.89288 0.0
C487 C 0.57449 0.32584 0.88695 0.0
C488 C 0.49483 0.29627 0.87759 0.0
C489 C 0.52192 0.33816 0.90528 0.0
C490 C 0.50642 0.31797 0.92097 0.0
C491 C 0.50325 0.34123 0.93489 0.0
C492 C 0.51687 0.38633 0.93281 0.0
C493 C 0.533 0.40765 0.91688 0.0
C494 C 0.53471 0.38296 0.90288 0.0
H495 H 0.63227 0.14434 0.89978 0.0
H496 H 0.63493 0.13427 0.95494 0.0
H497 H 0.71555 0.18696 0.95478 0.0
H498 H 0.74496 0.16077 0.89081 0.0
H499 H 0.75467 0.2005 0.8742 0.0
H500 H 0.69927 0.156 0.87834 0.0
H501 H 0.673 0.21326 0.88251 0.0
H502 H 0.72818 0.25783 0.87849 0.0
H503 H 0.7004 0.25691 0.89804 0.0
H504 H 0.79305 0.24718 0.94899 0.0
H505 H 0.86101 0.31199 0.93829 0.0
H506 H 0.80714 0.28427 0.88689 0.0
C507 C 0.65007 0.15204 0.91178 0.0
C508 C 0.62757 0.13489 0.92738 0.0
C509 C 0.65169 0.14689 0.94286 0.0
C510 C 0.69746 0.1766 0.94287 0.0
C511 C 0.71844 0.19397 0.92729 0.0
C512 C 0.69552 0.18206 0.91202 0.0
C513 C 0.72451 0.20935 0.8973 0.0
C514 C 0.73125 0.17989 0.8844 0.0
C515 C 0.70538 0.23591 0.88859 0.0
C516 C 0.76694 0.23949 0.90675 0.0
C517 C 0.763 0.22956 0.92398 0.0
C518 C 0.79676 0.25483 0.93549 0.0
C519 C 0.83521 0.29168 0.92928 0.0
C520 C 0.83944 0.30319 0.91174 0.0
C521 C 0.80515 0.27608 0.90032 0.0
H522 H 0.19554 0.04081 0.4067 0.0
H523 H 0.25997 0.0816 0.4561 0.0
H524 H 0.24495 0.14404 0.45653 0.0
H525 H 0.2325 0.15265 0.38994 0.0
H526 H 0.18065 0.13509 0.37917 0.0
H527 H 0.20049 0.09657 0.38218 0.0
H528 H 0.12686 0.04197 0.39725 0.0
H529 H 0.10695 0.0804 0.39443 0.0
H530 H 0.10893 0.06059 0.4155 0.0
H531 H 0.2161 0.19795 0.45262 0.0
H532 H 0.17914 0.24019 0.444 0.0
H533 H 0.13507 0.16343 0.39718 0.0
C534 C 0.20729 0.06333 0.41747 0.0
C535 C 0.22911 0.05646 0.43131 0.0
C536 C 0.24357 0.08648 0.44525 0.0
C537 C 0.23507 0.12197 0.44564 0.0
C538 C 0.21248 0.12714 0.43194 0.0
C539 C 0.19925 0.09885 0.41804 0.0
C540 C 0.1737 0.11002 0.4053 0.0
C541 C 0.19832 0.12445 0.38813 0.0
C542 C 0.12632 0.07093 0.40299 0.0
C543 C 0.1738 0.14849 0.41433 0.0
C544 C 0.19638 0.1581 0.42965 0.0
C545 C 0.19884 0.19107 0.44053 0.0
C546 C 0.17767 0.21479 0.43557 0.0
C547 C 0.15445 0.20529 0.41989 0.0
C548 C 0.1529 0.17188 0.40917 0.0
H549 H 0.96069 0.12255 0.43993 0.0
H550 H 0.9645 0.17549 0.38934 0.0
H551 H 0.89623 0.10656 0.3817 0.0
H552 H 0.92669 0.01381 0.42692 0.0
H553 H 0.89118 0.98746 0.44501 0.0
H554 H 0.93785 0.04252 0.44707 0.0
H555 H 0.88586 0.07101 0.4576 0.0
H556 H 0.83892 0.01594 0.45552 0.0
H557 H 0.8392 0.0618 0.44467 0.0
H558 H 0.83247 0.02967 0.37853 0.0
H559 H 0.77714 0.94989 0.38015 0.0
H560 H 0.81281 0.94724 0.43302 0.0
C561 C 0.94683 0.11996 0.42733 0.0
C562 C 0.96794 0.15452 0.41524 0.0
C563 C 0.94891 0.14957 0.39883 0.0
C564 C 0.91004 0.11057 0.39438 0.0
C565 C 0.89038 0.07697 0.40652 0.0
C566 C 0.90797 0.0813 0.42269 0.0
C567 C 0.8818 0.03918 0.433 0.0
C568 C 0.91113 0.0196 0.4383 0.0
C569 C 0.86016 0.04749 0.44862 0.0
C570 C 0.84739 0.01011 0.41996 0.0
C571 C 0.85281 0.03269 0.4048 0.0
C572 C 0.82736 0.01187 0.39041 0.0
C573 C 0.79611 0.9666 0.39144 0.0
C574 C 0.79039 0.94275 0.40676 0.0
C575 C 0.81572 0.96504 0.4213 0.0
H576 H 0.0554 0.88219 0.43896 0.0
H577 H 0.05355 0.83188 0.38812 0.0
H578 H 0.97317 0.80396 0.38616 0.0
H579 H 0.94359 0.79388 0.45253 0.0
H580 H 0.93195 0.83245 0.46357 0.0
H581 H 0.98813 0.84334 0.46193 0.0
H582 H 0.01151 0.91978 0.44831 0.0
H583 H 0.95544 0.90904 0.4498 0.0
H584 H 0.98331 0.92256 0.42945 0.0
H585 H 0.89415 0.78651 0.3887 0.0
H586 H 0.82271 0.78213 0.39541 0.0
H587 H 0.87571 0.84599 0.44419 0.0
C588 C 0.03772 0.86413 0.42765 0.0
C589 C 0.06055 0.85856 0.41378 0.0
C590 C 0.03662 0.83616 0.39893 0.0
C591 C 0.99093 0.82013 0.39771 0.0
C592 C 0.96948 0.82706 0.4114 0.0
C593 C 0.99202 0.84851 0.4261 0.0
C594 C 0.96176 0.85494 0.43831 0.0
C595 C 0.95602 0.82963 0.45508 0.0
C596 C 0.97904 0.90452 0.44166 0.0
C597 C 0.91903 0.83432 0.42808 0.0
C598 C 0.92408 0.81801 0.41267 0.0
C599 C 0.88969 0.79882 0.4008 0.0
C600 C 0.84917 0.79649 0.40472 0.0
C601 C 0.84332 0.81354 0.42034 0.0
C602 C 0.87883 0.83235 0.43218 0.0
H603 H 0.39844 0.87382 0.25938 0.0
H604 H 0.43685 0.94325 0.21087 0.0
H605 H 0.50114 0.93161 0.20949 0.0
H606 H 0.51028 0.91319 0.27585 0.0
H607 H 0.49604 0.86072 0.28554 0.0
H608 H 0.45464 0.87706 0.28331 0.0
H609 H 0.40414 0.80429 0.26691 0.0
H610 H 0.44539 0.78778 0.26908 0.0
H611 H 0.42524 0.79074 0.2482 0.0
H612 H 0.56009 0.90987 0.21277 0.0
H613 H 0.60778 0.8783 0.22026 0.0
H614 H 0.53055 0.8219 0.26634 0.0
C615 C 0.42077 0.88718 0.24861 0.0
C616 C 0.41267 0.90979 0.23529 0.0
C617 C 0.4423 0.92595 0.22125 0.0
C618 C 0.47904 0.91956 0.22036 0.0
C619 C 0.48581 0.89673 0.23357 0.0
C620 C 0.45748 0.88073 0.24742 0.0
C621 C 0.47108 0.85543 0.25949 0.0
C622 C 0.48377 0.87796 0.27709 0.0
C623 C 0.43428 0.80667 0.261 0.0
C624 C 0.51126 0.85952 0.2502 0.0
C625 C 0.51937 0.88369 0.23533 0.0
C626 C 0.55415 0.89107 0.22444 0.0
C627 C 0.58113 0.87302 0.22881 0.0
C628 C 0.57315 0.84767 0.24391 0.0
C629 C 0.53782 0.84127 0.25475 0.0
H630 H 0.24085 0.74683 0.26554 0.0
H631 H 0.18911 0.77834 0.22054 0.0
H632 H 0.14898 0.69867 0.21263 0.0
H633 H 0.26251 0.66984 0.24599 0.0
H634 H 0.24796 0.6339 0.26433 0.0
H635 H 0.26793 0.69214 0.26721 0.0
H636 H 0.1972 0.67398 0.28441 0.0
H637 H 0.17695 0.61555 0.28155 0.0
H638 H 0.14353 0.63924 0.27499 0.0
H639 H 0.1191 0.61528 0.20877 0.0
H640 H 0.10547 0.53816 0.20868 0.0
H641 H 0.17842 0.56402 0.25617 0.0
C642 C 0.22054 0.7371 0.25415 0.0
C643 C 0.21797 0.76881 0.24369 0.0
C644 C 0.19142 0.75455 0.22878 0.0
C645 C 0.16843 0.70938 0.22423 0.0
C646 C 0.17229 0.67905 0.23476 0.0
C647 C 0.19774 0.69252 0.24942 0.0
C648 C 0.19943 0.65445 0.25799 0.0
C649 C 0.24728 0.66311 0.25892 0.0
C650 C 0.17799 0.64527 0.27579 0.0
C651 C 0.17176 0.61743 0.24569 0.0
C652 C 0.15578 0.63187 0.23246 0.0
C653 C 0.13106 0.60359 0.21917 0.0
C654 C 0.12334 0.5598 0.21925 0.0
C655 C 0.14077 0.54506 0.23244 0.0
C656 C 0.16446 0.57418 0.24594 0.0
H657 H 0.51302 0.67115 0.21221 0.0
H658 H 0.55858 0.65981 0.26258 0.0
H659 H 0.48551 0.59514 0.26862 0.0
H660 H 0.41169 0.65221 0.22451 0.0
H661 H 0.38124 0.62034 0.20615 0.0
H662 H 0.43926 0.65981 0.20426 0.0
H663 H 0.45404 0.59833 0.19292 0.0
H664 H 0.3958 0.55856 0.19463 0.0
H665 H 0.43585 0.54834 0.20519 0.0
H666 H 0.40592 0.54259 0.27138 0.0
H667 H 0.32435 0.50249 0.27024 0.0
H668 H 0.32908 0.54474 0.21784 0.0
C669 C 0.50804 0.6542 0.2243 0.0
C670 C 0.54146 0.67046 0.23693 0.0
C671 C 0.53347 0.64789 0.25271 0.0
C672 C 0.49213 0.61098 0.25623 0.0
C673 C 0.45936 0.59677 0.24376 0.0
C674 C 0.4669 0.61727 0.22802 0.0
C675 C 0.42465 0.59847 0.21762 0.0
C676 C 0.41358 0.63487 0.21287 0.0
C677 C 0.42778 0.57449 0.20164 0.0
C678 C 0.39179 0.56595 0.23035 0.0
C679 C 0.41276 0.56511 0.24525 0.0
C680 C 0.38919 0.54189 0.25965 0.0
C681 C 0.34298 0.5195 0.25892 0.0
C682 C 0.32093 0.52025 0.24388 0.0
C683 C 0.3455 0.54278 0.22928 0.0
H684 H 0.76538 0.4962 0.77923 0.0
H685 H 0.89229 0.59287 0.75791 0.0
H686 H 0.9222 0.54344 0.76467 0.0
H687 H 0.81052 0.454 0.81362 0.0
H688 H 0.76547 0.3981 0.81093 0.0
H689 H 0.75673 0.44436 0.80719 0.0
H690 H 0.7277 0.41459 0.77679 0.0
H691 H 0.73659 0.36856 0.78037 0.0
H692 H 0.76209 0.4046 0.76232 0.0
H693 H 0.93413 0.4784 0.76923 0.0
H694 H 0.92765 0.40455 0.77218 0.0
H695 H 0.79365 0.3514 0.79118 0.0
C696 C 0.79985 0.50759 0.77642 0.0
C697 C 0.82648 0.54843 0.76803 0.0
C698 C 0.87128 0.56185 0.76441 0.0
C699 C 0.8886 0.53398 0.76822 0.0
C700 C 0.86092 0.49315 0.77591 0.0
C701 C 0.81765 0.4803 0.7802 0.0
C702 C 0.7935 0.43325 0.78694 0.0
C703 C 0.78082 0.4324 0.80579 0.0
C704 C 0.75259 0.40353 0.77594 0.0
C705 C 0.82918 0.4208 0.78495 0.0
C706 C 0.86806 0.45594 0.7788 0.0
C707 C 0.9042 0.45097 0.77441 0.0
C708 C 0.90018 0.40888 0.77606 0.0
C709 C 0.86028 0.37232 0.78203 0.0
C710 C 0.82489 0.37885 0.78692 0.0
H711 H 0.62115 0.44908 0.73266 0.0
H712 H 0.58506 0.46511 0.7841 0.0
H713 H 0.52415 0.38726 0.78394 0.0
H714 H 0.50836 0.37065 0.71681 0.0
H715 H 0.52742 0.3389 0.70493 0.0
H716 H 0.56373 0.39747 0.70821 0.0
H717 H 0.62237 0.38132 0.72154 0.0
H718 H 0.58617 0.32278 0.71846 0.0
H719 H 0.60725 0.34398 0.73946 0.0
H720 H 0.47161 0.30549 0.77915 0.0
H721 H 0.43247 0.22678 0.77021 0.0
H722 H 0.50474 0.26399 0.72229 0.0
C723 C 0.59953 0.43661 0.74367 0.0
C724 C 0.60733 0.46333 0.75829 0.0
C725 C 0.57932 0.44533 0.77269 0.0
C726 C 0.54465 0.40115 0.77272 0.0
C727 C 0.53858 0.37525 0.75827 0.0
C728 C 0.56522 0.39237 0.744 0.0
C729 C 0.55457 0.35659 0.73079 0.0
C730 C 0.53749 0.3665 0.7142 0.0
C731 C 0.59499 0.35084 0.72737 0.0
C732 C 0.5182 0.31662 0.73992 0.0
C733 C 0.50912 0.32806 0.75569 0.0
C734 C 0.47812 0.29625 0.76674 0.0
C735 C 0.45607 0.2516 0.76156 0.0
C736 C 0.46535 0.23913 0.74553 0.0
C737 C 0.49656 0.27234 0.73457 0.0
H738 H 0.54441 0.15204 0.77744 0.0
H739 H 0.49734 0.05215 0.73755 0.0
H740 H 0.5673 0.05025 0.73924 0.0
H741 H 0.6506 0.21307 0.76216 0.0
H742 H 0.67699 0.22827 0.78278 0.0
H743 H 0.62071 0.21608 0.78045 0.0
H744 H 0.59604 0.15606 0.80407 0.0
H745 H 0.65244 0.16807 0.80646 0.0
H746 H 0.60919 0.11224 0.80198 0.0
H747 H 0.64516 0.06534 0.74308 0.0
H748 H 0.7259 0.09974 0.7472 0.0
H749 H 0.72185 0.19086 0.78411 0.0
C750 C 0.54834 0.129 0.76932 0.0
C751 C 0.51545 0.10209 0.75741 0.0
C752 C 0.52218 0.07301 0.74678 0.0
C753 C 0.56163 0.07149 0.74774 0.0
C754 C 0.5938 0.09914 0.75942 0.0
C755 C 0.58753 0.1274 0.77 0.0
C756 C 0.62888 0.15737 0.78004 0.0
C757 C 0.64525 0.20658 0.77611 0.0
C758 C 0.62117 0.14785 0.79928 0.0
C759 C 0.66001 0.14277 0.77298 0.0
C760 C 0.63895 0.10847 0.7614 0.0
C761 C 0.66186 0.09172 0.75231 0.0
C762 C 0.70771 0.11145 0.75475 0.0
C763 C 0.73011 0.14795 0.76598 0.0
C764 C 0.70559 0.16277 0.77555 0.0
H765 H 0.09274 0.26165 0.58725 0.0
H766 H 0.0518 0.23428 0.53427 0.0
H767 H 0.12258 0.2389 0.52682 0.0
H768 H 0.21595 0.33297 0.57973 0.0
H769 H 0.22845 0.30788 0.59742 0.0
H770 H 0.17988 0.31383 0.59807 0.0
H771 H 0.13071 0.22939 0.60346 0.0
H772 H 0.17899 0.22337 0.60299 0.0
H773 H 0.13341 0.19082 0.58878 0.0
H774 H 0.19064 0.23491 0.52561 0.0
H775 H 0.24657 0.21292 0.53122 0.0
H776 H 0.24291 0.23879 0.58524 0.0
C777 C 0.09936 0.25798 0.57402 0.0
C778 C 0.06743 0.24885 0.56123 0.0
C779 C 0.07636 0.24246 0.54417 0.0
C780 C 0.11657 0.24525 0.5398 0.0
C781 C 0.1473 0.25389 0.5527 0.0
C782 C 0.13904 0.25968 0.56951 0.0
C783 C 0.17395 0.2607 0.58133 0.0
C784 C 0.20117 0.30659 0.58962 0.0
C785 C 0.153 0.22387 0.59492 0.0
C786 C 0.20155 0.25193 0.56864 0.0
C787 C 0.18647 0.24974 0.55213 0.0
C788 C 0.20337 0.23735 0.53841 0.0
C789 C 0.23503 0.2248 0.54173 0.0
C790 C 0.24895 0.22418 0.55866 0.0
C791 C 0.23347 0.23982 0.57215 0.0
H792 H 0.87975 0.93521 0.54831 0.0
H793 H 0.80006 0.86565 0.59251 0.0
H794 H 0.79811 0.93303 0.601 0.0
H795 H 0.94671 0.03523 0.56854 0.0
H796 H 0.95039 0.07015 0.55087 0.0
H797 H 0.94051 0.01498 0.54694 0.0
H798 H 0.86943 0.99656 0.53004 0.0
H799 H 0.87915 0.05184 0.53392 0.0
H800 H 0.82718 0.00447 0.54001 0.0
H801 H 0.81314 0.00995 0.60683 0.0
H802 H 0.84302 0.09073 0.6093 0.0
H803 H 0.91108 0.11074 0.56094 0.0
C804 C 0.861 0.93377 0.55956 0.0
C805 C 0.83993 0.89496 0.56972 0.0
C806 C 0.81632 0.89481 0.58448 0.0
C807 C 0.81493 0.93295 0.58939 0.0
C808 C 0.83691 0.97092 0.57932 0.0
C809 C 0.85919 0.97155 0.56462 0.0
C810 C 0.88284 0.01759 0.55678 0.0
C811 C 0.93308 0.03553 0.55573 0.0
C812 C 0.86348 0.0176 0.53914 0.0
C813 C 0.87178 0.04313 0.56971 0.0
C814 C 0.84485 0.01541 0.58252 0.0
C815 C 0.8334 0.0318 0.5967 0.0
C816 C 0.85058 0.07772 0.59801 0.0
C817 C 0.87871 0.1068 0.58519 0.0
C818 C 0.88857 0.08911 0.57067 0.0
H819 H 0.19359 0.95104 0.57085 0.0
H820 H 0.18107 0.01685 0.52591 0.0
H821 H 0.10647 0.95365 0.52076 0.0
H822 H 0.12117 0.83185 0.55507 0.0
H823 H 0.09816 0.81415 0.57613 0.0
H824 H 0.15461 0.85824 0.57364 0.0
H825 H 0.13755 0.9094 0.59235 0.0
H826 H 0.08122 0.8659 0.59476 0.0
H827 H 0.09296 0.9189 0.58631 0.0
H828 H 0.02898 0.89276 0.52395 0.0
H829 H 0.95522 0.83869 0.53503 0.0
H830 H 0.01673 0.81224 0.57821 0.0
C831 C 0.17587 0.95126 0.55952 0.0
C832 C 0.19327 0.98865 0.5487 0.0
C833 C 0.16856 0.98838 0.5343 0.0
C834 C 0.12614 0.9525 0.53123 0.0
C835 C 0.1089 0.9171 0.54267 0.0
C836 C 0.13318 0.91594 0.55645 0.0
C837 C 0.10487 0.87759 0.56825 0.0
C838 C 0.12064 0.84342 0.56826 0.0
C839 C 0.10411 0.89396 0.58648 0.0
C840 C 0.06027 0.85922 0.55959 0.0
C841 C 0.06353 0.88174 0.54461 0.0
C842 C 0.02614 0.87411 0.5354 0.0
C843 C 0.98434 0.84347 0.54185 0.0
C844 C 0.98023 0.82108 0.55744 0.0
C845 C 0.01881 0.82818 0.56609 0.0
H846 H 0.41975 0.01273 0.02821 0.0
H847 H 0.55669 0.05791 0.04129 0.0
H848 H 0.5722 0.04843 0.0112 0.0
H849 H 0.40603 0.93123 -0.00303 0.0
H850 H 0.37278 0.94374 0.98288 0.0
H851 H 0.37218 0.9525 0.00553 0.0
H852 H 0.3947 0.03472 0.00023 0.0
H853 H 0.39488 0.02607 0.97757 0.0
H854 H 0.44357 0.06942 0.98783 0.0
H855 H 0.57167 0.03129 0.97956 0.0
H856 H 0.55751 0.01752 0.94851 0.0
H857 H 0.42252 0.98908 0.95618 0.0
C858 C 0.45299 0.02064 0.02472 0.0
C859 C 0.48701 0.03595 0.03703 0.0
C860 C 0.53023 0.04643 0.03199 0.0
C861 C 0.53925 0.04081 0.01497 0.0
C862 C 0.50484 0.02533 0.00314 0.0
C863 C 0.46276 0.01615 0.00776 0.0
C864 C 0.43216 1.00227 0.99248 0.0
C865 C 0.39351 0.9546 0.9946 0.0
C866 C 0.41536 0.03509 0.98935 0.0
C867 C 0.46352 0.00503 0.97854 0.0
C868 C 0.5051 0.01763 0.98493 0.0
C869 C 0.53928 0.02163 0.9744 0.0
C870 C 0.5309 0.01347 0.95683 0.0
C871 C 0.48903 1.00251 0.94999 0.0
C872 C 0.45494 0.99775 0.96107 0.0
H873 H 0.0769 0.52654 0.95906 0.0
H874 H 0.9406 0.49674 0.95579 0.0
H875 H 0.93712 0.50009 0.9872 0.0
H876 H 0.06049 0.45693 0.99207 0.0
H877 H 0.11229 0.49067 0.00294 0.0
H878 H 0.10843 0.49681 0.98032 0.0
H879 H 0.13613 0.58062 0.98415 0.0
H880 H 0.14091 0.57498 0.00683 0.0
H881 H 0.10817 0.5982 -0.00107 0.0
H882 H 0.94426 0.49516 0.0184 0.0
H883 H 0.96187 0.48346 0.04771 0.0
H884 H 0.09278 0.513 0.03101 0.0
C885 C 0.04712 0.52277 0.965 0.0
C886 C 0.00926 0.51225 0.95517 0.0
C887 C 0.97004 0.50544 0.96324 0.0
C888 C 0.96781 0.50734 0.98103 0.0
C889 C 0.00504 0.51581 0.9905 0.0
C890 C 0.04412 0.52374 0.98281 0.0
C891 C 0.07715 0.52607 0.99595 0.0
C892 C 0.09032 0.4905 0.99261 0.0
C893 C 0.11801 0.57275 0.9965 0.0
C894 C 0.04981 0.51629 0.01207 0.0
C895 C 0.00869 0.51139 0.00866 0.0
C896 C 0.97663 0.49966 0.0213 0.0
C897 C 0.98689 0.49283 0.0379 0.0
C898 C 0.02868 0.49721 0.04168 0.0
C899 C 0.06057 0.50944 0.02856 0.0
H900 H 0.58264 0.60963 0.95119 0.0
H901 H 0.48707 0.46929 0.94794 0.0
H902 H 0.49096 0.46274 0.97939 0.0
H903 H 0.65019 0.60413 0.9837 0.0
H904 H 0.65978 0.65434 0.99417 0.0
H905 H 0.64906 0.64763 0.97156 0.0
H906 H 0.5832 0.66199 0.97533 0.0
H907 H 0.59425 0.66959 -0.0021 0.0
H908 H 0.54 0.62911 0.9904 0.0
H909 H 0.50982 0.47191 0.01128 0.0
H910 H 0.5327 0.49796 0.04104 0.0
H911 H 0.61209 0.63274 0.02258 0.0
C912 C 0.56223 0.57761 0.95714 0.0
C913 C 0.53463 0.53995 0.94731 0.0
C914 C 0.50811 0.49858 0.95541 0.0
C915 C 0.51046 0.49452 0.97319 0.0
C916 C 0.53891 0.53232 0.98252 0.0
C917 C 0.56356 0.57322 0.97477 0.0
C918 C 0.5904 0.60917 0.98754 0.0
C919 C 0.64031 0.63002 0.98403 0.0
C920 C 0.57609 0.64453 0.98781 0.0
C921 C 0.57734 0.58221 0.00376 0.0
C922 C 0.54818 0.53783 0.00067 0.0
C923 C 0.53236 0.50664 0.01385 0.0
C924 C 0.54575 0.5216 0.03064 0.0
C925 C 0.57391 0.56728 0.03398 0.0
C926 C 0.59031 0.59764 0.02033 0.0
H927 H 0.12353 0.2921 0.36095 0.0
H928 H 0.22263 0.42255 0.37888 0.0
H929 H 0.2469 0.44526 0.34922 0.0
H930 H 0.19018 0.28582 0.32464 0.0
H931 H 0.14204 0.2579 0.31116 0.0
H932 H 0.13673 0.24957 0.33396 0.0
H933 H 0.07736 0.2738 0.33457 0.0
H934 H 0.08254 0.2823 0.31186 0.0
H935 H 0.09043 0.32692 0.32581 0.0
H936 H 0.25287 0.45735 0.31802 0.0
H937 H 0.24175 0.45761 0.28697 0.0
H938 H 0.14049 0.3188 0.28888 0.0
C939 C 0.15094 0.32518 0.35869 0.0
C940 C 0.17113 0.35561 0.37226 0.0
C941 C 0.2067 0.39864 0.36873 0.0
C942 C 0.22085 0.41179 0.35193 0.0
C943 C 0.19951 0.38132 0.33884 0.0
C944 C 0.16563 0.33875 0.34202 0.0
C945 C 0.14584 0.31367 0.32556 0.0
C946 C 0.15422 0.27441 0.32373 0.0
C947 C 0.09612 0.2983 0.32439 0.0
C948 C 0.17245 0.34956 0.31264 0.0
C949 C 0.20361 0.38811 0.32061 0.0
C950 C 0.2293 0.42716 0.31159 0.0
C951 C 0.22253 0.42705 0.294 0.0
C952 C 0.19043 0.38815 0.28563 0.0
C953 C 0.16583 0.34865 0.29498 0.0
H954 H 0.67458 0.77066 0.36649 0.0
H955 H 0.65275 0.87963 0.37959 0.0
H956 H 0.66522 0.90409 0.3494 0.0
H957 H 0.76099 0.82901 0.33624 0.0
H958 H 0.74261 0.78212 0.32212 0.0
H959 H 0.73173 0.77344 0.34469 0.0
H960 H 0.64772 0.72415 0.33868 0.0
H961 H 0.65837 0.73227 0.3161 0.0
H962 H 0.61976 0.74584 0.32589 0.0
H963 H 0.68213 0.91718 0.31739 0.0
H964 H 0.69574 0.9138 0.28645 0.0
H965 H 0.70512 0.7955 0.29527 0.0
C966 C 0.67221 0.79959 0.36304 0.0
C967 C 0.66268 0.82322 0.37538 0.0
C968 C 0.65972 0.86081 0.37031 0.0
C969 C 0.66704 0.87512 0.35322 0.0
C970 C 0.677 0.8513 0.34141 0.0
C971 C 0.67912 0.81408 0.34613 0.0
C972 C 0.68956 0.79363 0.3311 0.0
C973 C 0.73385 0.79463 0.3337 0.0
C974 C 0.65158 0.74617 0.32775 0.0
C975 C 0.69288 0.82501 0.31712 0.0
C976 C 0.68597 0.85837 0.32324 0.0
C977 C 0.68751 0.89114 0.31247 0.0
C978 C 0.69548 0.88912 0.29496 0.0
C979 C 0.70132 0.85433 0.28848 0.0
C980 C 0.70054 0.8224 0.29981 0.0
H981 H 0.27944 0.92875 0.30288 0.0
H982 H 0.1522 0.82129 0.28621 0.0
H983 H 0.13145 0.7987 0.31632 0.0
H984 H 0.29587 0.87206 0.3387 0.0
H985 H 0.32019 0.92102 0.35191 0.0
H986 H 0.32602 0.92618 0.32903 0.0
H987 H 0.29192 0.97769 0.32899 0.0
H988 H 0.28612 0.97279 0.35183 0.0
H989 H 0.23848 0.95872 0.33866 0.0
H990 H 0.12463 0.78898 0.34864 0.0
H991 H 0.12992 0.79724 0.38017 0.0
H992 H 0.26011 0.91336 0.37494 0.0
C993 C 0.24742 0.9001 0.30553 0.0
C994 C 0.21756 0.87654 0.29224 0.0
C995 C 0.17559 0.83979 0.29624 0.0
C996 C 0.16363 0.82658 0.31327 0.0
C997 C 0.19389 0.85072 0.3261 0.0
C998 C 0.23476 0.88694 0.3224 0.0
C999 C 0.26019 0.90927 0.33844 0.0
C1000 C 0.3031 0.90697 0.33958 0.0
C1001 C 0.26971 0.95745 0.33954 0.0
C1002 C 0.22711 0.88031 0.3518 0.0
C1003 C 0.18932 0.84623 0.34451 0.0
C1004 C 0.15411 0.81551 0.35447 0.0
C1005 C 0.15743 0.82032 0.37233 0.0
C1006 C 0.19533 0.856 0.37989 0.0
C1007 C 0.23064 0.8859 0.36946 0.0
H1008 H 0.7573 0.59935 0.69305 0.0
H1009 H 0.86178 0.72205 0.71458 0.0
H1010 H 0.88957 0.74961 0.6856 0.0
H1011 H 0.82224 0.59312 0.65648 0.0
H1012 H 0.77537 0.57184 0.64227 0.0
H1013 H 0.76702 0.55931 0.66476 0.0
H1014 H 0.71388 0.59129 0.66617 0.0
H1015 H 0.72207 0.60389 0.64374 0.0
H1016 H 0.73292 0.64715 0.65891 0.0
H1017 H 0.90135 0.76681 0.65464 0.0
H1018 H 0.89581 0.77353 0.62357 0.0
H1019 H 0.78361 0.63959 0.62179 0.0
C1020 C 0.7866 0.63164 0.69169 0.0
C1021 C 0.80747 0.65861 0.70609 0.0
C1022 C 0.84522 0.70095 0.70375 0.0
C1023 C 0.86141 0.71674 0.68734 0.0
C1024 C 0.83958 0.68968 0.67341 0.0
C1025 C 0.80307 0.64797 0.67539 0.0
C1026 C 0.78354 0.6271 0.65825 0.0
C1027 C 0.78728 0.58537 0.65527 0.0
C1028 C 0.73526 0.61678 0.65668 0.0
C1029 C 0.81386 0.66426 0.64636 0.0
C1030 C 0.84633 0.69974 0.65539 0.0
C1031 C 0.87648 0.73906 0.6474 0.0
C1032 C 0.87291 0.74258 0.62974 0.0
C1033 C 0.83928 0.70705 0.62025 0.0
C1034 C 0.81001 0.66706 0.62866 0.0
H1035 H 0.38286 0.1271 0.61515 0.0
H1036 H 0.24714 0.09917 0.60965 0.0
H1037 H 0.23594 0.08631 0.64063 0.0
H1038 H 0.3611 0.04507 0.64762 0.0
H1039 H 0.41181 0.07964 0.65903 0.0
H1040 H 0.4092 0.08619 0.63631 0.0
H1041 H 0.435 0.16952 0.64057 0.0
H1042 H 0.43778 0.16327 0.66329 0.0
H1043 H 0.40458 0.18536 0.65482 0.0
H1044 H 0.23973 0.07836 0.67213 0.0
H1045 H 0.25816 0.07499 0.70228 0.0
H1046 H 0.39101 0.10704 0.6873 0.0
C1047 C 0.35072 0.11814 0.62043 0.0
C1048 C 0.3159 0.11415 0.60994 0.0
C1049 C 0.27437 0.10243 0.6174 0.0
C1050 C 0.26762 0.09502 0.63499 0.0
C1051 C 0.30264 0.09934 0.64494 0.0
C1052 C 0.34334 0.11055 0.63796 0.0
C1053 C 0.37558 0.11349 0.65156 0.0
C1054 C 0.39027 0.07903 0.64844 0.0
C1055 C 0.41559 0.16072 0.65262 0.0
C1056 C 0.3466 0.10225 0.66727 0.0
C1057 C 0.30469 0.09428 0.66316 0.0
C1058 C 0.27235 0.08428 0.67553 0.0
C1059 C 0.28318 0.08248 0.69262 0.0
C1060 C 0.32595 0.09049 0.69715 0.0
C1061 C 0.3579 0.1003 0.68424 0.0
H1062 H 0.96504 0.27052 0.63738 0.0
H1063 H 0.82558 0.2136 0.62489 0.0
H1064 H 0.80646 0.19711 0.65523 0.0
H1065 H 0.95186 0.19386 0.67134 0.0
H1066 H 0.99434 0.23582 0.68462 0.0
H1067 H 0.9977 0.24189 0.66172 0.0
H1068 H 1.00257 0.31848 0.66447 0.0
H1069 H 0.99961 0.31282 0.68736 0.0
H1070 H 0.96028 0.3229 0.67613 0.0
H1071 H 0.80188 0.18961 0.6865 0.0
H1072 H 0.81253 0.19417 0.71773 0.0
H1073 H 0.95441 0.25433 0.71069 0.0
C1074 C 0.9305 0.25451 0.64103 0.0
C1075 C 0.89684 0.24337 0.62872 0.0
C1076 C 0.85203 0.22267 0.63405 0.0
C1077 C 0.84074 0.21288 0.65125 0.0
C1078 C 0.87459 0.22408 0.66302 0.0
C1079 C 0.91857 0.24467 0.65823 0.0
C1080 C 0.94845 0.25496 0.67367 0.0
C1081 C 0.97462 0.23013 0.67278 0.0
C1082 C 0.97955 0.30527 0.67551 0.0
C1083 C 0.91427 0.23699 0.68785 0.0
C1084 C 0.8719 0.21926 0.68132 0.0
C1085 C 0.83478 0.20298 0.69179 0.0
C1086 C 0.84113 0.20575 0.70946 0.0
C1087 C 0.88416 0.22422 0.71643 0.0
C1088 C 0.92117 0.23927 0.70555 0.0
H1089 H 0.26452 0.91209 0.18741 0.0
H1090 H 0.32963 0.03599 0.21536 0.0
H1091 H 0.37572 0.07369 0.19012 0.0
H1092 H 0.35994 0.92504 0.16889 0.0
H1093 H 0.33621 0.90022 0.14859 0.0
H1094 H 0.30205 0.88398 0.16741 0.0
H1095 H 0.24774 0.90465 0.15312 0.0
H1096 H 0.28078 0.9196 0.13397 0.0
H1097 H 0.26867 0.95908 0.14399 0.0
H1098 H 0.42056 0.09581 0.16314 0.0
H1099 H 0.45928 0.10103 0.136 0.0
H1100 H 0.36632 0.96194 0.12614 0.0
C1101 C 0.2872 0.9475 0.1879 0.0
C1102 C 0.29308 0.97152 0.20309 0.0
C1103 C 0.32442 0.01737 0.20366 0.0
C1104 C 0.35071 0.03899 0.18942 0.0
C1105 C 0.34543 0.01413 0.17477 0.0
C1106 C 0.31426 0.96944 0.17386 0.0
C1107 C 0.31858 0.94935 0.15732 0.0
C1108 C 0.32986 0.91248 0.16077 0.0
C1109 C 0.27644 0.93217 0.14646 0.0
C1110 C 0.35722 0.98952 0.14923 0.0
C1111 C 0.37211 0.02663 0.15941 0.0
C1112 C 0.40884 0.06709 0.15493 0.0
C1113 C 0.43077 0.0697 0.13954 0.0
C1114 C 0.41597 0.03198 0.1289 0.0
C1115 C 0.37857 0.99153 0.13389 0.0
H1116 H 0.06926 0.39498 0.12258 0.0
H1117 H 0.08635 0.52245 0.13785 0.0
H1118 H 0.13285 0.52462 0.16218 0.0
H1119 H 0.05263 0.35192 0.16348 0.0
H1120 H 0.08006 0.32018 0.16004 0.0
H1121 H 0.05539 0.33281 0.14234 0.0
H1122 H 0.13086 0.36911 0.1264 0.0
H1123 H 0.15559 0.35665 0.14425 0.0
H1124 H 0.17929 0.41283 0.13665 0.0
H1125 H 0.17233 0.51049 0.18572 0.0
H1126 H 0.1897 0.47564 0.20961 0.0
H1127 H 0.1422 0.35484 0.18025 0.0
C1128 C 0.08354 0.42368 0.1309 0.0
C1129 C 0.07482 0.45878 0.12835 0.0
C1130 C 0.09281 0.49529 0.13967 0.0
C1131 C 0.11971 0.49705 0.15333 0.0
C1132 C 0.12781 0.46185 0.1555 0.0
C1133 C 0.10963 0.42549 0.14475 0.0
C1134 C 0.11785 0.38919 0.15127 0.0
C1135 C 0.07388 0.34601 0.15448 0.0
C1136 C 0.14767 0.38151 0.1389 0.0
C1137 C 0.14184 0.40998 0.16778 0.0
C1138 C 0.14866 0.45254 0.16963 0.0
C1139 C 0.16738 0.47734 0.18435 0.0
C1140 C 0.17692 0.4572 0.1979 0.0
C1141 C 0.16667 0.41249 0.19682 0.0
C1142 C 0.15103 0.38935 0.18127 0.0
H1143 H 0.66123 0.72758 0.20117 0.0
H1144 H 0.71926 0.86191 0.1815 0.0
H1145 H 0.70427 0.83225 0.15202 0.0
H1146 H 0.70266 0.68495 0.16936 0.0
H1147 H 0.65324 0.63133 0.16851 0.0
H1148 H 0.66782 0.66316 0.18795 0.0
H1149 H 0.59115 0.65851 0.18832 0.0
H1150 H 0.57628 0.62658 0.16887 0.0
H1151 H 0.57354 0.67696 0.16995 0.0
H1152 H 0.68518 0.78815 0.12494 0.0
H1153 H 0.663 0.73324 0.10187 0.0
H1154 H 0.6155 0.62711 0.13933 0.0
C1155 C 0.67089 0.75093 0.1907 0.0
C1156 C 0.69161 0.79717 0.19362 0.0
C1157 C 0.7034 0.82641 0.17954 0.0
C1158 C 0.69496 0.80986 0.16279 0.0
C1159 C 0.67444 0.76406 0.16041 0.0
C1160 C 0.66241 0.73502 0.17398 0.0
C1161 C 0.64091 0.68729 0.168 0.0
C1162 C 0.66778 0.66542 0.1738 0.0
C1163 C 0.59261 0.66078 0.17415 0.0
C1164 C 0.64344 0.69399 0.14886 0.0
C1165 C 0.66276 0.73853 0.14479 0.0
C1166 C 0.66982 0.75321 0.12797 0.0
C1167 C 0.65711 0.72162 0.11496 0.0
C1168 C 0.63731 0.67572 0.11878 0.0
C1169 C 0.6302 0.66183 0.136 0.0
H1170 H 0.96922 0.36321 0.87686 0.0
H1171 H 0.01514 0.48774 0.84992 0.0
H1172 H 0.99823 0.44755 0.82236 0.0
H1173 H 0.01435 0.31716 0.84873 0.0
H1174 H 0.96857 0.26133 0.85051 0.0
H1175 H 0.9816 0.29954 0.86797 0.0
H1176 H 0.90151 0.28648 0.86753 0.0
H1177 H 0.88809 0.24796 0.85012 0.0
H1178 H 0.87936 0.29468 0.84794 0.0
H1179 H 0.97864 0.39365 0.79781 0.0
H1180 H 0.95882 0.33048 0.77821 0.0
H1181 H 0.9271 0.2422 0.82149 0.0
C1182 C 0.97551 0.38218 0.8652 0.0
C1183 C 0.99349 0.42867 0.86554 0.0
C1184 C 1.00134 0.45211 0.84996 0.0
C1185 C 0.99178 0.42957 0.83427 0.0
C1186 C 0.97444 0.38372 0.83445 0.0
C1187 C 0.96635 0.36034 0.84953 0.0
C1188 C 0.94894 0.31149 0.84634 0.0
C1189 C 0.98025 0.29653 0.85383 0.0
C1190 C 0.90167 0.28351 0.8534 0.0
C1191 C 0.94932 0.311 0.82704 0.0
C1192 C 0.96362 0.35289 0.82041 0.0
C1193 C 0.96714 0.36073 0.80287 0.0
C1194 C 0.9557 0.32479 0.79187 0.0
C1195 C 0.94102 0.28185 0.79847 0.0
C1196 C 0.93809 0.27488 0.81623 0.0
H1197 H 0.54808 0.56493 0.83768 0.0
H1198 H 0.60693 0.50326 0.86772 0.0
H1199 H 0.65915 0.51506 0.8443 0.0
H1200 H 0.56682 0.52553 0.79367 0.0
H1201 H 0.5782 0.57734 0.78414 0.0
H1202 H 0.53868 0.55387 0.80132 0.0
H1203 H 0.58238 0.62729 0.81815 0.0
H1204 H 0.62276 0.65067 0.80138 0.0
H1205 H 0.64011 0.64808 0.82283 0.0
H1206 H 0.71653 0.55181 0.82166 0.0
H1207 H 0.76651 0.5983 0.79833 0.0
H1208 H 0.66749 0.63094 0.78182 0.0
C1209 C 0.57006 0.55138 0.83877 0.0
C1210 C 0.57332 0.53259 0.85421 0.0
C1211 C 0.60369 0.51698 0.85574 0.0
C1212 C 0.63355 0.52373 0.84255 0.0
C1213 C 0.63171 0.54519 0.82782 0.0
C1214 C 0.59968 0.55735 0.82557 0.0
C1215 C 0.60786 0.58415 0.80939 0.0
C1216 C 0.57068 0.55869 0.79635 0.0
C1217 C 0.61363 0.63025 0.81318 0.0
C1218 C 0.65083 0.58754 0.80354 0.0
C1219 C 0.66412 0.56483 0.81429 0.0
C1220 C 0.70574 0.56831 0.81276 0.0
C1221 C 0.73406 0.59505 0.79968 0.0
C1222 C 0.72012 0.61721 0.78833 0.0
C1223 C 0.67808 0.61319 0.7902 0.0
H1224 H 0.36523 0.00858 0.78504 0.0
H1225 H 0.39644 0.14515 0.7912 0.0
H1226 H 0.44607 0.15401 0.81523 0.0
H1227 H 0.3554 0.98492 0.82872 0.0
H1228 H 0.37816 0.94836 0.82787 0.0
H1229 H 0.35126 0.95486 0.8094 0.0
H1230 H 0.42194 0.97735 0.79146 0.0
H1231 H 0.44937 0.9715 0.80999 0.0
H1232 H 0.47414 0.02309 0.79836 0.0
H1233 H 0.48816 0.14748 0.83909 0.0
H1234 H 0.50968 0.1231 0.86493 0.0
H1235 H 0.44711 0.98852 0.84539 0.0
C1236 C 0.38313 0.04047 0.79134 0.0
C1237 C 0.37757 0.07637 0.78624 0.0
C1238 C 0.40033 0.1173 0.79498 0.0
C1239 C 0.42901 0.12278 0.80846 0.0
C1240 C 0.43391 0.08679 0.81318 0.0
C1241 C 0.41098 0.04614 0.80515 0.0
C1242 C 0.41748 0.0113 0.8143 0.0
C1243 C 0.37294 0.9726 0.82044 0.0
C1244 C 0.44221 0.99485 0.80284 0.0
C1245 C 0.44616 0.03835 0.82915 0.0
C1246 C 0.45645 0.08216 0.8278 0.0
C1247 C 0.48046 0.11335 0.84028 0.0
C1248 C 0.49237 0.09907 0.85496 0.0
C1249 C 0.47958 0.0538 0.85727 0.0
C1250 C 0.45773 0.02335 0.84389 0.0
H1251 H 0.0163 0.32506 0.53943 0.0
H1252 H 0.8844 0.22564 0.52311 0.0
H1253 H 0.91225 0.22953 0.49386 0.0
H1254 H 0.0442 0.39014 0.50028 0.0
H1255 H 0.1014 0.40397 0.50049 0.0
H1256 H 0.07163 0.39442 0.5203 0.0
H1257 H 0.08916 0.33128 0.52876 0.0
H1258 H 0.12178 0.34567 0.50952 0.0
H1259 H 0.07904 0.28934 0.51296 0.0
H1260 H 0.95387 0.24224 0.46681 0.0
H1261 H 0.0068 0.26457 0.44302 0.0
H1262 H 0.11262 0.35513 0.47661 0.0
C1263 C 0.99322 0.30428 0.52968 0.0
C1264 C 0.94813 0.27492 0.53358 0.0
C1265 C 0.91903 0.24835 0.52045 0.0
C1266 C 0.93453 0.25026 0.5038 0.0
C1267 C 0.97917 0.27904 0.50046 0.0
C1268 C 0.00815 0.30576 0.51296 0.0
C1269 C 0.05451 0.33405 0.50582 0.0
C1270 C 0.06876 0.38358 0.50678 0.0
C1271 C 0.08806 0.3245 0.51485 0.0
C1272 C 0.04722 0.31788 0.48751 0.0
C1273 C 1.0034 0.28651 0.4847 0.0
C1274 C 0.98828 0.26675 0.46884 0.0
C1275 C 0.0187 0.27957 0.45543 0.0
C1276 C 0.06393 0.31137 0.45799 0.0
C1277 C 0.07836 0.33053 0.4743 0.0
H1278 H 0.68087 0.71935 0.46262 0.0
H1279 H 0.69001 0.84184 0.48038 0.0
H1280 H 0.71295 0.82973 0.50898 0.0
H1281 H 0.63881 0.65722 0.50257 0.0
H1282 H 0.66982 0.62883 0.49969 0.0
H1283 H 0.6509 0.64601 0.48135 0.0
H1284 H 0.73146 0.68923 0.46999 0.0
H1285 H 0.75077 0.67277 0.48838 0.0
H1286 H 0.77426 0.73075 0.4833 0.0
H1287 H 0.74197 0.80702 0.53469 0.0
H1288 H 0.76758 0.77227 0.55606 0.0
H1289 H 0.73777 0.6646 0.52103 0.0
C1290 C 0.68709 0.74338 0.47259 0.0
C1291 C 0.68392 0.78163 0.46935 0.0
C1292 C 0.69204 0.81219 0.4827 0.0
C1293 C 0.70524 0.80565 0.49891 0.0
C1294 C 0.70935 0.76809 0.50149 0.0
C1295 C 0.69973 0.73713 0.48875 0.0
C1296 C 0.70765 0.70013 0.49446 0.0
C1297 C 0.66421 0.65541 0.49453 0.0
C1298 C 0.74314 0.69814 0.48337 0.0
C1299 C 0.72422 0.71545 0.51237 0.0
C1300 C 0.72512 0.75476 0.51622 0.0
C1301 C 0.74111 0.77615 0.53181 0.0
C1302 C 0.75621 0.75662 0.54377 0.0
C1303 C 0.75524 0.71633 0.54004 0.0
C1304 C 0.73871 0.6954 0.5242 0.0
H1305 H 0.25598 0.9033 0.48556 0.0
H1306 H 0.1701 0.94518 0.46232 0.0
H1307 H 0.19494 0.00612 0.48326 0.0
H1308 H 0.24532 0.93888 0.53169 0.0
H1309 H 0.30225 0.95499 0.53589 0.0
H1310 H 0.26939 0.90873 0.52198 0.0
H1311 H 0.32898 0.94638 0.49842 0.0
H1312 H 0.36115 0.99353 0.51189 0.0
H1313 H 0.34341 1.0012 0.49117 0.0
H1314 H 0.24258 0.072 0.50139 0.0
H1315 H 0.29798 0.13 0.52042 0.0
H1316 H 0.35109 0.04397 0.53274 0.0
C1317 C 0.24036 0.92356 0.48569 0.0
C1318 C 0.21047 0.91923 0.47271 0.0
C1319 C 0.19208 0.94746 0.47256 0.0
C1320 C 0.20635 0.98239 0.48428 0.0
C1321 C 0.23832 0.98785 0.49623 0.0
C1322 C 0.25384 0.9582 0.4975 0.0
C1323 C 0.29081 0.97373 0.51051 0.0
C1324 C 0.27605 0.94221 0.52593 0.0
C1325 C 0.33359 0.97902 0.50251 0.0
C1326 C 0.29588 0.01815 0.51536 0.0
C1327 C 0.26512 0.02557 0.50708 0.0
C1328 C 0.26586 0.06595 0.50839 0.0
C1329 C 0.2976 0.0988 0.51906 0.0
C1330 C 0.32808 0.09098 0.5282 0.0
C1331 C 0.32768 0.05048 0.52606 0.0
H1332 H 0.56295 0.4265 0.10847 0.0
H1333 H 0.46616 0.40159 0.06881 0.0
H1334 H 0.44941 0.32387 0.06695 0.0
H1335 H 0.60662 0.36559 0.09035 0.0
H1336 H 0.6147 0.34409 0.11014 0.0
H1337 H 0.61538 0.39618 0.10993 0.0
H1338 H 0.55314 0.36696 0.13271 0.0
H1339 H 0.5527 0.3149 0.1332 0.0
H1340 H 0.50231 0.31583 0.12892 0.0
H1341 H 0.4499 0.25154 0.06695 0.0
H1342 H 0.46268 0.18815 0.07075 0.0
H1343 H 0.558 0.2602 0.11076 0.0
C1344 C 0.5374 0.40448 0.09969 0.0
C1345 C 0.51582 0.42021 0.08881 0.0
C1346 C 0.48299 0.39033 0.07736 0.0
C1347 C 0.47333 0.34611 0.07616 0.0
C1348 C 0.49644 0.33217 0.08662 0.0
C1349 C 0.52729 0.36029 0.09836 0.0
C1350 C 0.54914 0.33783 0.10751 0.0
C1351 C 0.59942 0.36239 0.10428 0.0
C1352 C 0.53868 0.33362 0.12673 0.0
C1353 C 0.52646 0.293 0.09883 0.0
C1354 C 0.49618 0.29034 0.08681 0.0
C1355 C 0.47301 0.25299 0.07651 0.0
C1356 C 0.48068 0.21727 0.07869 0.0
C1357 C 0.5111 0.21913 0.09112 0.0
C1358 C 0.53412 0.25754 0.1013 0.0
H1359 H 0.67738 0.21909 0.06834 0.0
H1360 H 0.64318 0.14752 0.11644 0.0
H1361 H 0.71987 0.19548 0.12661 0.0
H1362 H 0.79052 0.2382 0.06532 0.0
H1363 H 0.81163 0.29285 0.05638 0.0
H1364 H 0.7551 0.25065 0.05248 0.0
H1365 H 0.72793 0.30243 0.06457 0.0
H1366 H 0.78428 0.34469 0.06854 0.0
H1367 H 0.74461 0.32516 0.08573 0.0
H1368 H 0.79899 0.25526 0.13229 0.0
H1369 H 0.87391 0.32119 0.13289 0.0
H1370 H 0.85601 0.35264 0.0809 0.0
C1371 C 0.68607 0.21297 0.08093 0.0
C1372 C 0.65422 0.17936 0.09157 0.0
C1373 C 0.667 0.17289 0.10802 0.0
C1374 C 0.71051 0.19997 0.11391 0.0
C1375 C 0.74089 0.23321 0.10316 0.0
C1376 C 0.72924 0.23963 0.08698 0.0
C1377 C 0.76737 0.27894 0.07823 0.0
C1378 C 0.78202 0.26427 0.06215 0.0
C1379 C 0.75532 0.31492 0.07403 0.0
C1380 C 0.80217 0.29413 0.0921 0.0
C1381 C 0.78637 0.26726 0.10637 0.0
C1382 C 0.81186 0.27618 0.12112 0.0
C1383 C 0.85436 0.31375 0.12134 0.0
C1384 C 0.87102 0.34192 0.10691 0.0
C1385 C 0.8446 0.33145 0.09205 0.0
H1386 H 0.71526 0.53623 0.07857 0.0
H1387 H 0.76101 0.62108 0.12331 0.0
H1388 H 0.82803 0.61371 0.12419 0.0
H1389 H 0.74856 0.46105 0.09274 0.0
H1390 H 0.7646 0.45187 0.07192 0.0
H1391 H 0.72241 0.46714 0.07387 0.0
H1392 H 0.76701 0.53438 0.05385 0.0
H1393 H 0.80934 0.51923 0.05179 0.0
H1394 H 0.8237 0.57406 0.05897 0.0
H1395 H 0.88826 0.59362 0.12107 0.0
H1396 H 0.93579 0.56124 0.11453 0.0
H1397 H 0.84955 0.48861 0.07218 0.0
C1398 C 0.73974 0.55395 0.08837 0.0
C1399 C 0.73306 0.57954 0.1008 0.0
C1400 C 0.76549 0.60141 0.11362 0.0
C1401 C 0.80371 0.59749 0.1142 0.0
C1402 C 0.80897 0.57146 0.10191 0.0
C1403 C 0.77783 0.55005 0.08923 0.0
C1404 C 0.78994 0.5219 0.07817 0.0
C1405 C 0.75426 0.47258 0.07925 0.0
C1406 C 0.79798 0.5384 0.0596 0.0
C1407 C 0.83255 0.53052 0.08668 0.0
C1408 C 0.84319 0.55943 0.10027 0.0
C1409 C 0.88041 0.5712 0.11037 0.0
C1410 C 0.90722 0.55264 0.10657 0.0
C1411 C 0.89654 0.52247 0.09282 0.0
C1412 C 0.85888 0.51176 0.08271 0.0
H1413 H 0.36608 0.52196 0.88119 0.0
H1414 H 0.3281 0.42362 0.9214 0.0
H1415 H 0.25389 0.41642 0.92245 0.0
H1416 H 0.31436 0.57698 0.89834 0.0
H1417 H 0.2971 0.58821 0.87815 0.0
H1418 H 0.34537 0.58204 0.87921 0.0
H1419 H 0.31171 0.51979 0.85641 0.0
H1420 H 0.26338 0.52598 0.85517 0.0
H1421 H 0.25748 0.47251 0.85982 0.0
H1422 H 0.18645 0.42549 0.92105 0.0
H1423 H 0.13024 0.44816 0.91657 0.0
H1424 H 0.21253 0.54001 0.87712 0.0
C1425 C 0.34193 0.49819 0.88998 0.0
C1426 C 0.35291 0.47323 0.90118 0.0
C1427 C 0.32043 0.44297 0.91264 0.0
C1428 C 0.27817 0.43865 0.91334 0.0
C1429 C 0.26885 0.46461 0.90241 0.0
C1430 C 0.29971 0.49351 0.89085 0.0
C1431 C 0.28241 0.5195 0.8812 0.0
C1432 C 0.31154 0.56964 0.88443 0.0
C1433 C 0.2785 0.50879 0.86201 0.0
C1434 C 0.23729 0.50136 0.88937 0.0
C1435 C 0.22997 0.4696 0.90153 0.0
C1436 C 0.19157 0.44988 0.9114 0.0
C1437 C 0.15991 0.46307 0.9088 0.0
C1438 C 0.16686 0.49565 0.89642 0.0
C1439 C 0.20594 0.51461 0.88652 0.0
H1440 H 0.48871 0.82021 0.91832 0.0
H1441 H 0.53945 0.88917 0.87022 0.0
H1442 H 0.5551 0.83035 0.86087 0.0
H1443 H 0.56753 0.78 0.92288 0.0
H1444 H 0.52668 0.72772 0.93187 0.0
H1445 H 0.52211 0.77661 0.93514 0.0
H1446 H 0.44293 0.73607 0.92241 0.0
H1447 H 0.44726 0.68713 0.91911 0.0
H1448 H 0.43426 0.71182 0.90142 0.0
H1449 H 0.55924 0.76044 0.85585 0.0
H1450 H 0.55384 0.68674 0.85595 0.0
H1451 H 0.50296 0.66481 0.90773 0.0
C1452 C 0.50366 0.82335 0.90589 0.0
C1453 C 0.51293 0.85952 0.89502 0.0
C1454 C 0.53222 0.86201 0.87882 0.0
C1455 C 0.54121 0.82869 0.8734 0.0
C1456 C 0.5311 0.79323 0.88436 0.0
C1457 C 0.51306 0.79056 0.90033 0.0
C1458 C 0.50383 0.74828 0.90944 0.0
C1459 C 0.53171 0.7588 0.9258 0.0
C1460 C 0.45413 0.71911 0.91331 0.0
C1461 C 0.51891 0.72719 0.89603 0.0
C1462 C 0.5345 0.75362 0.88163 0.0
C1463 C 0.5477 0.73983 0.86715 0.0
C1464 C 0.54447 0.69788 0.86731 0.0
C1465 C 0.52854 0.67023 0.88191 0.0
C1466 C 0.5162 0.68553 0.89651 0.0
H1467 H 0.35725 0.84647 0.91276 0.0
H1468 H 0.32332 0.88102 0.86398 0.0
H1469 H 0.25084 0.81203 0.8647 0.0
H1470 H 0.31251 0.73365 0.904 0.0
H1471 H 0.29259 0.71496 0.92534 0.0
H1472 H 0.33948 0.76934 0.92201 0.0
H1473 H 0.29965 0.80448 0.93826 0.0
H1474 H 0.25264 0.75011 0.94175 0.0
H1475 H 0.24529 0.79245 0.93151 0.0
H1476 H 0.18469 0.73658 0.86963 0.0
H1477 H 0.12988 0.66036 0.87838 0.0
H1478 H 0.20774 0.67488 0.92373 0.0
C1479 C 0.33419 0.84006 0.90242 0.0
C1480 C 0.34578 0.86928 0.88837 0.0
C1481 C 0.31505 0.85918 0.8749 0.0
C1482 C 0.27378 0.82012 0.87521 0.0
C1483 C 0.26378 0.79154 0.88907 0.0
C1484 C 0.29304 0.80109 0.90245 0.0
C1485 C 0.27563 0.76345 0.91524 0.0
C1486 C 0.30691 0.74422 0.91672 0.0
C1487 C 0.26783 0.77853 0.93272 0.0
C1488 C 0.23233 0.73091 0.90681 0.0
C1489 C 0.22591 0.74786 0.89181 0.0
C1490 C 0.18913 0.72313 0.88145 0.0
C1491 C 0.15822 0.67983 0.88651 0.0
C1492 C 0.1644 0.66165 0.90177 0.0
C1493 C 0.20182 0.68786 0.91207 0.0
H1494 H 0.18661 0.68159 0.40816 0.0
H1495 H 0.13347 0.69409 0.45671 0.0
H1496 H 0.11676 0.61849 0.46455 0.0
H1497 H 0.10814 0.56318 0.40144 0.0
H1498 H 0.14985 0.55317 0.39225 0.0
H1499 H 0.154 0.60669 0.3899 0.0
H1500 H 0.23252 0.64417 0.40323 0.0
H1501 H 0.22858 0.59086 0.40568 0.0
H1502 H 0.24024 0.62651 0.42397 0.0
H1503 H 0.11203 0.54437 0.46811 0.0
H1504 H 0.11809 0.47654 0.46684 0.0
H1505 H 0.17316 0.51231 0.41576 0.0
C1506 C 0.17078 0.66823 0.42033 0.0
C1507 C 0.16122 0.69372 0.4318 0.0
C1508 C 0.14094 0.67511 0.44768 0.0
C1509 C 0.13129 0.63219 0.45224 0.0
C1510 C 0.14185 0.60826 0.44074 0.0
C1511 C 0.16089 0.62551 0.42506 0.0
C1512 C 0.1711 0.59395 0.41539 0.0
C1513 C 0.14415 0.57832 0.39876 0.0
C1514 C 0.22107 0.61514 0.41187 0.0
C1515 C 0.15557 0.55657 0.4282 0.0
C1516 C 0.13866 0.56536 0.44272 0.0
C1517 C 0.12465 0.53684 0.45672 0.0
C1518 C 0.12834 0.4985 0.4559 0.0
C1519 C 0.14579 0.48904 0.44116 0.0
C1520 C 0.15902 0.51828 0.42709 0.0
H1521 H 0.4992 0.67412 0.4137 0.0
H1522 H 0.53376 0.6489 0.46404 0.0
H1523 H 0.46522 0.57592 0.4646 0.0
H1524 H 0.38719 0.6312 0.42238 0.0
H1525 H 0.36778 0.60757 0.40151 0.0
H1526 H 0.42234 0.65473 0.40396 0.0
H1527 H 0.45643 0.61156 0.38946 0.0
H1528 H 0.40185 0.56426 0.38686 0.0
H1529 H 0.44411 0.55828 0.3978 0.0
H1530 H 0.38943 0.50842 0.46073 0.0
H1531 H 0.31251 0.45301 0.45289 0.0
H1532 H 0.32704 0.52365 0.40546 0.0
C1533 C 0.49298 0.65268 0.42462 0.0
C1534 C 0.52208 0.66694 0.43874 0.0
C1535 C 0.51206 0.6385 0.45303 0.0
C1536 C 0.47324 0.59695 0.45345 0.0
C1537 C 0.44462 0.58433 0.43951 0.0
C1538 C 0.45408 0.61135 0.42534 0.0
C1539 C 0.41609 0.59189 0.41271 0.0
C1540 C 0.39725 0.6232 0.40999 0.0
C1541 C 0.43049 0.58083 0.3957 0.0
C1542 C 0.38353 0.55015 0.42211 0.0
C1543 C 0.4007 0.54605 0.43745 0.0
C1544 C 0.37583 0.51106 0.44865 0.0
C1545 C 0.33215 0.47973 0.4441 0.0
C1546 C 0.31368 0.48383 0.42855 0.0
C1547 C 0.34014 0.51931 0.4174 0.0
H1548 H 0.49557 0.80618 0.44382 0.0
H1549 H 0.56107 0.92069 0.41044 0.0
H1550 H 0.49573 0.9306 0.41194 0.0
H1551 H 0.38875 0.76301 0.42587 0.0
H1552 H 0.35954 0.74413 0.44585 0.0
H1553 H 0.41265 0.74787 0.44322 0.0
H1554 H 0.44234 0.79883 0.46979 0.0
H1555 H 0.38922 0.79512 0.47255 0.0
H1556 H 0.43848 0.84863 0.47068 0.0
H1557 H 0.42106 0.9253 0.41555 0.0
H1558 H 0.34368 0.9058 0.4215 0.0
H1559 H 0.32697 0.79522 0.45266 0.0
C1560 C 0.49652 0.8338 0.43705 0.0
C1561 C 0.53374 0.86279 0.42707 0.0
C1562 C 0.53315 0.89808 0.41821 0.0
C1563 C 0.49612 0.90402 0.41898 0.0
C1564 C 0.45975 0.87447 0.42869 0.0
C1565 C 0.45972 0.84016 0.43764 0.0
C1566 C 0.41572 0.81199 0.44657 0.0
C1567 C 0.39283 0.76391 0.43998 0.0
C1568 C 0.42182 0.81377 0.46605 0.0
C1569 C 0.39089 0.83552 0.4411 0.0
C1570 C 0.41688 0.87154 0.43082 0.0
C1571 C 0.40055 0.89739 0.42372 0.0
C1572 C 0.3565 0.88604 0.42716 0.0
C1573 C 0.32918 0.84918 0.43764 0.0
C1574 C 0.34699 0.82392 0.44476 0.0
H1575 H 0.9075 0.91185 0.21542 0.0
H1576 H 0.82709 0.82514 0.25646 0.0
H1577 H 0.88763 0.81061 0.26396 0.0
H1578 H 0.96082 0.84803 0.20304 0.0
H1579 H 0.01346 0.89678 0.19882 0.0
H1580 H 0.96292 0.89842 0.196 0.0
H1581 H 0.99185 0.96542 0.21662 0.0
H1582 H 0.04245 0.96404 0.21948 0.0
H1583 H 0.00956 0.96084 0.23778 0.0
H1584 H 0.95839 0.80924 0.26821 0.0
H1585 H 0.03436 0.82115 0.26905 0.0
H1586 H 0.0692 0.90767 0.22493 0.0
C1587 C 0.90234 0.88937 0.22587 0.0
C1588 C 0.86228 0.86949 0.23532 0.0
C1589 C 0.85727 0.84068 0.249 0.0
C1590 C 0.8915 0.83216 0.25333 0.0
C1591 C 0.9306 0.85255 0.24385 0.0
C1592 C 0.9362 0.8805 0.23038 0.0
C1593 C 0.98222 0.89961 0.2227 0.0
C1594 C 0.97969 0.88481 0.20403 0.0
C1595 C 0.00803 0.95049 0.22425 0.0
C1596 C 1.00184 0.87845 0.2341 0.0
C1597 C 0.97137 0.85133 0.24617 0.0
C1598 C 0.98232 0.82998 0.2587 0.0
C1599 C 0.02562 0.83699 0.25907 0.0
C1600 C 0.05763 0.86493 0.24695 0.0
C1601 C 0.04524 0.88537 0.23414 0.0
H1602 H 0.19235 0.05277 0.21821 0.0
H1603 H 0.24469 0.04673 0.26782 0.0
H1604 H 0.2516 0.11904 0.27539 0.0
H1605 H 0.26035 0.17261 0.21193 0.0
H1606 H 0.21597 0.17676 0.2019 0.0
H1607 H 0.2185 0.12641 0.19998 0.0
H1608 H 0.13903 0.08144 0.21225 0.0
H1609 H 0.13625 0.13158 0.21421 0.0
H1610 H 0.12662 0.09683 0.23263 0.0
H1611 H 0.24743 0.18932 0.27825 0.0
H1612 H 0.23296 0.25189 0.27619 0.0
H1613 H 0.184 0.21194 0.22453 0.0
C1614 C 0.20591 0.06687 0.23059 0.0
C1615 C 0.21816 0.04411 0.24241 0.0
C1616 C 0.23526 0.0636 0.25853 0.0
C1617 C 0.23934 0.10468 0.26293 0.0
C1618 C 0.22635 0.1259 0.25104 0.0
C1619 C 0.21014 0.10769 0.23517 0.0
C1620 C 0.19638 0.13594 0.22501 0.0
C1621 C 0.22449 0.154 0.20874 0.0
C1622 C 0.14662 0.10989 0.22079 0.0
C1623 C 0.2068 0.17268 0.23773 0.0
C1624 C 0.22422 0.1664 0.25264 0.0
C1625 C 0.2343 0.19482 0.26656 0.0
C1626 C 0.22591 0.23027 0.26527 0.0
C1627 C 0.20767 0.23708 0.25016 0.0
C1628 C 0.19861 0.20811 0.23616 0.0
H1629 H 0.88082 0.03609 0.25985 0.0
H1630 H 0.80473 0.02041 0.21387 0.0
H1631 H 0.85782 0.09768 0.2057 0.0
H1632 H 0.91529 0.15342 0.26799 0.0
H1633 H 0.96951 0.16595 0.27513 0.0
H1634 H 0.92278 0.1112 0.27827 0.0
H1635 H 0.96411 0.07722 0.26226 0.0
H1636 H 0.01084 0.13174 0.25907 0.0
H1637 H 0.98465 0.0961 0.24099 0.0
H1638 H 0.923 0.17422 0.20127 0.0
H1639 H 0.99541 0.24338 0.20078 0.0
H1640 H 0.02812 0.20838 0.24974 0.0
C1641 C 0.87477 0.04911 0.24823 0.0
C1642 C 0.83853 0.02229 0.23754 0.0
C1643 C 0.83222 0.04042 0.22229 0.0
C1644 C 0.86211 0.08431 0.21757 0.0
C1645 C 0.89795 0.10963 0.22827 0.0
C1646 C 0.90428 0.09271 0.24331 0.0
C1647 C 0.94709 0.12553 0.25193 0.0
C1648 C 0.93811 0.13987 0.26936 0.0
C1649 C 0.97851 0.10651 0.25365 0.0
C1650 C 0.96441 0.16316 0.23919 0.0
C1651 C 0.93545 0.15362 0.22571 0.0
C1652 C 0.94567 0.18233 0.21187 0.0
C1653 C 0.9869 0.2215 0.2117 0.0
C1654 C 0.01737 0.2314 0.22525 0.0
C1655 C 0.00541 0.2021 0.23928 0.0
H1656 H 0.86959 0.8767 0.77992 0.0
H1657 H 0.78066 0.81425 0.73712 0.0
H1658 H 0.78192 0.8847 0.73106 0.0
H1659 H 0.82497 0.94689 0.79365 0.0
H1660 H 0.87865 0.99282 0.799 0.0
H1661 H 0.86857 0.93683 0.80058 0.0
H1662 H 0.93502 0.95665 0.78049 0.0
H1663 H 0.94534 0.01266 0.77885 0.0
H1664 H 0.93683 0.98026 0.7598 0.0
H1665 H 0.7958 0.96306 0.72886 0.0
H1666 H 0.82216 0.04331 0.73027 0.0
H1667 H 0.90228 0.05473 0.77451 0.0
C1668 C 0.84989 0.87757 0.76938 0.0
C1669 C 0.82477 0.83975 0.75905 0.0
C1670 C 0.80001 0.84265 0.74526 0.0
C1671 C 0.80047 0.88254 0.74174 0.0
C1672 C 0.82585 0.91924 0.75211 0.0
C1673 C 0.85013 0.9171 0.76566 0.0
C1674 C 0.87626 0.96178 0.77439 0.0
C1675 C 0.8612 0.95942 0.79301 0.0
C1676 C 0.92632 0.97884 0.77331 0.0
C1677 C 0.86324 0.98959 0.76355 0.0
C1678 C 0.83397 0.96435 0.75082 0.0
C1679 C 0.81847 0.98303 0.73885 0.0
C1680 C 0.83369 0.02871 0.73976 0.0
C1681 C 0.86417 0.05541 0.75254 0.0
C1682 C 0.8786 0.03525 0.76471 0.0
H1683 H 0.1559 0.9755 0.74252 0.0
H1684 H 0.18748 0.93595 0.79071 0.0
H1685 H 0.11269 0.86972 0.79136 0.0
H1686 H 0.04599 0.94542 0.75315 0.0
H1687 H 0.02448 0.92652 0.73199 0.0
H1688 H 0.08142 0.96873 0.73479 0.0
H1689 H 0.10663 0.92085 0.71798 0.0
H1690 H 0.0497 0.87842 0.71514 0.0
H1691 H 0.08841 0.86485 0.72483 0.0
H1692 H 0.03274 0.80938 0.78724 0.0
H1693 H 0.95423 0.76154 0.77913 0.0
H1694 H 0.97593 0.84193 0.73386 0.0
C1695 C 0.1474 0.95267 0.75312 0.0
C1696 C 0.17767 0.96081 0.76653 0.0
C1697 C 0.16489 0.93036 0.78027 0.0
C1698 C 0.12252 0.8926 0.78073 0.0
C1699 C 0.09336 0.88583 0.76736 0.0
C1700 C 0.10531 0.9151 0.75383 0.0
C1701 C 0.0673 0.90166 0.74149 0.0
C1702 C 0.05402 0.93772 0.7403 0.0
C1703 C 0.0787 0.89079 0.72381 0.0
C1704 C 0.03188 0.86044 0.75025 0.0
C1705 C 0.04753 0.85158 0.7651 0.0
C1706 C 0.02024 0.81586 0.77558 0.0
C1707 C 0.97571 0.78884 0.77086 0.0
C1708 C 0.9589 0.79788 0.75584 0.0
C1709 C 0.9877 0.8339 0.74537 0.0
H1710 H 0.2244 0.15775 0.76967 0.0
H1711 H 0.26102 0.20923 0.71814 0.0
H1712 H 0.2068 0.23539 0.71928 0.0
H1713 H 0.11364 0.1132 0.76472 0.0
H1714 H 0.10237 0.12597 0.78581 0.0
H1715 H 0.14967 0.11922 0.7823 0.0
H1716 H 0.20137 0.19744 0.79479 0.0
H1717 H 0.15404 0.2043 0.79856 0.0
H1718 H 0.19993 0.24473 0.78608 0.0
H1719 H 0.14035 0.24467 0.72435 0.0
H1720 H 0.06973 0.23915 0.73344 0.0
H1721 H 0.07757 0.18156 0.78158 0.0
C1722 C 0.22204 0.1757 0.75879 0.0
C1723 C 0.24694 0.18146 0.74381 0.0
C1724 C 0.24246 0.20465 0.72979 0.0
C1725 C 0.21175 0.21965 0.73032 0.0
C1726 C 0.18631 0.21166 0.74504 0.0
C1727 C 0.19166 0.19076 0.75911 0.0
C1728 C 0.15748 0.18212 0.77272 0.0
C1729 C 0.12913 0.13218 0.7766 0.0
C1730 C 0.17953 0.20875 0.789 0.0
C1731 C 0.13081 0.19963 0.76383 0.0
C1732 C 0.1482 0.21711 0.74797 0.0
C1733 C 0.12696 0.23191 0.73689 0.0
C1734 C 0.08678 0.22845 0.74212 0.0
C1735 C 0.06826 0.21008 0.75824 0.0
C1736 C 0.09109 0.19624 0.76926 0.0
H1737 H 0.55881 0.16558 0.54698 0.0
H1738 H 0.49405 0.10106 0.59434 0.0
H1739 H 0.55765 0.09086 0.60151 0.0
H1740 H 0.61455 0.10008 0.53845 0.0
H1741 H 0.66332 0.14816 0.53041 0.0
H1742 H 0.60971 0.14348 0.52782 0.0
H1743 H 0.63818 0.21939 0.54288 0.0
H1744 H 0.69169 0.22434 0.54545 0.0
H1745 H 0.66241 0.22774 0.56385 0.0
H1746 H 0.63238 0.09618 0.60495 0.0
H1747 H 0.71232 0.12049 0.60515 0.0
H1748 H 0.72669 0.18183 0.55555 0.0
C1749 C 0.55741 0.14837 0.55869 0.0
C1750 C 0.52147 0.13394 0.57007 0.0
C1751 C 0.52127 0.11222 0.5854 0.0
C1752 C 0.5571 0.10606 0.58952 0.0
C1753 C 0.5925 0.12153 0.57812 0.0
C1754 C 0.59276 0.14218 0.56299 0.0
C1755 C 0.63644 0.1603 0.55377 0.0
C1756 C 0.63064 0.13657 0.5366 0.0
C1757 C 0.65846 0.21091 0.55137 0.0
C1758 C 0.6615 0.14823 0.56637 0.0
C1759 C 0.63549 0.12507 0.58018 0.0
C1760 C 0.65284 0.11363 0.59408 0.0
C1761 C 0.69823 0.1275 0.59407 0.0
C1762 C 0.72559 0.15305 0.58037 0.0
C1763 C 0.70653 0.16213 0.56616 0.0
H1764 H 0.85447 0.37344 0.58625 0.0
H1765 H 0.87953 0.3822 0.53169 0.0
H1766 H 0.87429 0.45045 0.53042 0.0
H1767 H 0.77348 0.40587 0.58463 0.0
H1768 H 0.78993 0.43678 0.60433 0.0
H1769 H 0.79973 0.39109 0.6012 0.0
H1770 H 0.88321 0.44276 0.6074 0.0
H1771 H 0.87364 0.48867 0.61056 0.0
H1772 H 0.91399 0.49288 0.59513 0.0
H1773 H 0.86174 0.51541 0.53483 0.0
H1774 H 0.84107 0.57046 0.54445 0.0
H1775 H 0.82355 0.51857 0.59604 0.0
C1776 C 0.85961 0.3901 0.57408 0.0
C1777 C 0.86769 0.37257 0.55908 0.0
C1778 C 0.87341 0.39501 0.54336 0.0
C1779 C 0.87061 0.4339 0.54252 0.0
C1780 C 0.86203 0.44997 0.5575 0.0
C1781 C 0.85661 0.42876 0.57299 0.0
C1782 C 0.845 0.45125 0.58702 0.0
C1783 C 0.79932 0.41935 0.59474 0.0
C1784 C 0.88112 0.47001 0.60084 0.0
C1785 C 0.84414 0.48806 0.57697 0.0
C1786 C 0.85441 0.48703 0.56 0.0
C1787 C 0.85402 0.51676 0.54813 0.0
C1788 C 0.84227 0.54796 0.55371 0.0
C1789 C 0.83085 0.54905 0.57101 0.0
C1790 C 0.83245 0.51896 0.58276 0.0
H1791 H 0.5081 0.29909 0.55691 0.0
H1792 H 0.47502 0.29112 0.61074 0.0
H1793 H 0.53001 0.37045 0.61415 0.0
H1794 H 0.62309 0.36897 0.56188 0.0
H1795 H 0.63025 0.40039 0.54266 0.0
H1796 H 0.58579 0.34394 0.54414 0.0
H1797 H 0.52902 0.36923 0.537 0.0
H1798 H 0.57339 0.4258 0.53544 0.0
H1799 H 0.52776 0.41177 0.54976 0.0
H1800 H 0.59229 0.45002 0.61209 0.0
H1801 H 0.65613 0.52312 0.60446 0.0
H1802 H 0.64799 0.47844 0.55211 0.0
C1803 C 0.51187 0.31417 0.56936 0.0
C1804 C 0.48708 0.28885 0.58353 0.0
C1805 C 0.49354 0.30979 0.59966 0.0
C1806 C 0.52469 0.3549 0.60174 0.0
C1807 C 0.54913 0.37874 0.58757 0.0
C1808 C 0.54293 0.35913 0.57168 0.0
C1809 C 0.57481 0.39154 0.55869 0.0
C1810 C 0.60529 0.37523 0.55142 0.0
C1811 C 0.54974 0.40009 0.54438 0.0
C1812 C 0.60027 0.4322 0.5698 0.0
C1813 C 0.58489 0.42433 0.58641 0.0
C1814 C 0.60436 0.45668 0.59907 0.0
C1815 C 0.64061 0.49808 0.59464 0.0
C1816 C 0.65701 0.50665 0.57769 0.0
C1817 C 0.63618 0.47318 0.56517 0.0
loop_
_geom_bond_atom_site_label_1
_geom_bond_atom_site_label_2
_geom_bond_distance
_geom_bond_site_symmetry_2
_ccdc_geom_bond_type
Zn0 O6 1.969 . S
Zn0 O7 1.965 . S
Zn0 O11 2.024 . S
Zn0 O16 1.969 . S
Zn1 O8 1.969 . S
Zn1 O14 1.969 . S
Zn1 O15 1.965 . S
Zn1 O17 2.024 . S
C2 O3 1.229 . S
C2 O11 1.058 . S
O3 C2 1.229 . S
C4 O5 1.229 . S
C4 O17 1.058 . S
O5 C4 1.229 . S
O6 Zn0 1.969 . S
O6 C9 1.267 . S
O7 Zn0 1.965 . S
O7 C18 1.260 1_565 S
O8 Zn1 1.969 . S
O8 C18 1.258 . S
C9 O6 1.267 . S
C9 O10 1.228 . S
O10 C9 1.228 . S
O11 Zn0 2.024 . S
O11 C2 1.058 . S
C12 O13 1.228 . S
C12 O14 1.267 . S
O13 C12 1.228 . S
O14 Zn1 1.969 . S
O14 C12 1.267 . S
O15 Zn1 1.965 . S
O15 C19 1.260 . S
O16 Zn0 1.969 . S
O16 C19 1.258 1_565 S
O17 Zn1 2.024 . S
O17 C4 1.058 . S
C18 O7 1.260 1_545 S
C18 O8 1.258 . S
C19 O15 1.260 . S
C19 O16 1.258 1_545 S
Zn20 O26 1.969 . S
Zn20 O27 1.965 . S
Zn20 O31 2.024 . S
Zn20 O36 1.969 . S
Zn21 O28 1.969 . S
Zn21 O34 1.969 . S
Zn21 O35 1.965 . S
Zn21 O37 2.024 . S
C22 O23 1.229 . S
C22 O31 1.058 . S
O23 C22 1.229 . S
C24 O25 1.229 . S
C24 O37 1.058 . S
O25 C24 1.229 . S
O26 Zn20 1.969 . S
O26 C29 1.267 . S
O27 Zn20 1.965 . S
O27 C38 1.260 . S
O28 Zn21 1.969 . S
O28 C38 1.258 1_655 S
C29 O26 1.267 . S
C29 O30 1.228 . S
O30 C29 1.228 . S
O31 Zn20 2.024 . S
O31 C22 1.058 . S
C32 O33 1.228 . S
C32 O34 1.267 . S
O33 C32 1.228 . S
O34 Zn21 1.969 . S
O34 C32 1.267 . S
O35 Zn21 1.965 . S
O35 C39 1.260 1_655 S
O36 Zn20 1.969 . S
O36 C39 1.258 . S
O37 Zn21 2.024 . S
O37 C24 1.058 . S
C38 O27 1.260 . S
C38 O28 1.258 1_455 S
C39 O35 1.260 1_455 S
C39 O36 1.258 . S
Zn40 O46 1.969 . S
Zn40 O47 1.965 . S
Zn40 O51 2.024 . S
Zn40 O56 1.969 . S
Zn41 O48 1.969 . S
Zn41 O54 1.969 . S
Zn41 O55 1.965 . S
Zn41 O57 2.024 . S
C42 O43 1.229 . S
C42 O51 1.058 . S
O43 C42 1.229 . S
C44 O45 1.229 . S
C44 O57 1.058 . S
O45 C44 1.229 . S
O46 Zn40 1.969 . S
O46 C49 1.267 . S
O47 Zn40 1.965 . S
O47 C58 1.260 . S
O48 Zn41 1.969 . S
O48 C58 1.258 . S
C49 O46 1.267 . S
C49 O50 1.228 . S
O50 C49 1.228 . S
O51 Zn40 2.024 . S
O51 C42 1.058 . S
C52 O53 1.228 . S
C52 O54 1.267 . S
O53 C52 1.228 . S
O54 Zn41 1.969 . S
O54 C52 1.267 . S
O55 Zn41 1.965 . S
O55 C59 1.260 . S
O56 Zn40 1.969 . S
O56 C59 1.258 . S
O57 Zn41 2.024 . S
O57 C44 1.058 . S
C58 O47 1.260 . S
C58 O48 1.258 . S
C59 O55 1.260 . S
C59 O56 1.258 . S
Zn60 O66 1.969 . S
Zn60 O67 1.965 . S
Zn60 O71 2.024 . S
Zn60 O76 1.969 . S
Zn61 O68 1.969 . S
Zn61 O74 1.969 . S
Zn61 O75 1.965 . S
Zn61 O77 2.024 . S
C62 O63 1.229 . S
C62 O71 1.058 . S
O63 C62 1.229 . S
C64 O65 1.229 . S
C64 O77 1.058 . S
O65 C64 1.229 . S
O66 Zn60 1.969 . S
O66 C69 1.267 . S
O67 Zn60 1.965 . S
O67 C78 1.260 1_655 S
O68 Zn61 1.969 . S
O68 C78 1.258 . S
C69 O66 1.267 . S
C69 O70 1.228 . S
O70 C69 1.228 . S
O71 Zn60 2.024 . S
O71 C62 1.058 . S
C72 O73 1.228 . S
C72 O74 1.267 . S
O73 C72 1.228 . S
O74 Zn61 1.969 . S
O74 C72 1.267 . S
O75 Zn61 1.965 . S
O75 C79 1.260 . S
O76 Zn60 1.969 . S
O76 C79 1.258 1_655 S
O77 Zn61 2.024 . S
O77 C64 1.058 . S
C78 O67 1.260 1_455 S
C78 O68 1.258 . S
C79 O75 1.260 . S
C79 O76 1.258 1_455 S
Zn80 O86 1.969 . S
Zn80 O87 1.965 . S
Zn80 O91 2.024 . S
Zn80 O96 1.969 . S
Zn81 O88 1.969 . S
Zn81 O94 1.969 . S
Zn81 O95 1.965 . S
Zn81 O97 2.024 . S
C82 O83 1.229 . S
C82 O91 1.058 . S
O83 C82 1.229 . S
C84 O85 1.229 . S
C84 O97 1.058 . S
O85 C84 1.229 . S
O86 Zn80 1.969 . S
O86 C89 1.267 . S
O87 Zn80 1.965 . S
O87 C98 1.260 . S
O88 Zn81 1.969 . S
O88 C98 1.258 . S
C89 O86 1.267 . S
C89 O90 1.228 . S
O90 C89 1.228 . S
O91 Zn80 2.024 . S
O91 C82 1.058 . S
C92 O93 1.228 . S
C92 O94 1.267 . S
O93 C92 1.228 . S
O94 Zn81 1.969 . S
O94 C92 1.267 . S
O95 Zn81 1.965 . S
O95 C99 1.260 . S
O96 Zn80 1.969 . S
O96 C99 1.258 . S
O97 Zn81 2.024 . S
O97 C84 1.058 . S
C98 O87 1.260 . S
C98 O88 1.258 . S
C99 O95 1.260 . S
C99 O96 1.258 . S
Zn100 O106 1.969 . S
Zn100 O107 1.965 . S
Zn100 O111 2.024 . S
Zn100 O116 1.969 . S
Zn101 O108 1.969 . S
Zn101 O114 1.969 . S
Zn101 O115 1.965 . S
Zn101 O117 2.024 . S
C102 O103 1.229 . S
C102 O111 1.058 . S
O103 C102 1.229 . S
C104 O105 1.229 . S
C104 O117 1.058 . S
O105 C104 1.229 . S
O106 Zn100 1.969 . S
O106 C109 1.267 . S
O107 Zn100 1.965 . S
O107 C118 1.260 . S
O108 Zn101 1.969 . S
O108 C118 1.258 1_565 S
C109 O106 1.267 . S
C109 O110 1.228 . S
O110 C109 1.228 . S
O111 Zn100 2.024 . S
O111 C102 1.058 . S
C112 O113 1.228 . S
C112 O114 1.267 . S
O113 C112 1.228 . S
O114 Zn101 1.969 . S
O114 C112 1.267 . S
O115 Zn101 1.965 . S
O115 C119 1.260 1_565 S
O116 Zn100 1.969 . S
O116 C119 1.258 . S
O117 Zn101 2.024 . S
O117 C104 1.058 . S
C118 O107 1.260 . S
C118 O108 1.258 1_545 S
C119 O115 1.260 1_545 S
C119 O116 1.258 . S
Zn120 O126 1.969 . S
Zn120 O127 1.965 . S
Zn120 O131 2.024 . S
Zn120 O136 1.969 . S
Zn121 O128 1.969 . S
Zn121 O134 1.969 . S
Zn121 O135 1.965 . S
Zn121 O137 2.024 . S
C122 O123 1.229 . S
C122 O131 1.058 . S
O123 C122 1.229 . S
C124 O125 1.229 . S
C124 O137 1.058 . S
O125 C124 1.229 . S
O126 Zn120 1.969 . S
O126 C129 1.267 . S
O127 Zn120 1.965 . S
O127 C138 1.260 . S
O128 Zn121 1.969 . S
O128 C138 1.258 . S
C129 O126 1.267 . S
C129 O130 1.228 . S
O130 C129 1.228 . S
O131 Zn120 2.024 . S
O131 C122 1.058 . S
C132 O133 1.228 . S
C132 O134 1.267 . S
O133 C132 1.228 . S
O134 Zn121 1.969 . S
O134 C132 1.267 . S
O135 Zn121 1.965 . S
O135 C139 1.260 . S
O136 Zn120 1.969 . S
O136 C139 1.258 . S
O137 Zn121 2.024 . S
O137 C124 1.058 . S
C138 O127 1.260 . S
C138 O128 1.258 . S
C139 O135 1.260 . S
C139 O136 1.258 . S
Zn140 O146 1.969 . S
Zn140 O147 1.965 . S
Zn140 O151 2.024 . S
Zn140 O156 1.969 . S
Zn141 O148 1.969 . S
Zn141 O154 1.969 . S
Zn141 O155 1.965 . S
Zn141 O157 2.024 . S
C142 O143 1.229 . S
C142 O151 1.058 . S
O143 C142 1.229 . S
C144 O145 1.229 . S
C144 O157 1.058 . S
O145 C144 1.229 . S
O146 Zn140 1.969 . S
O146 C149 1.267 . S
O147 Zn140 1.965 . S
O147 C158 1.260 . S
O148 Zn141 1.969 . S
O148 C158 1.258 . S
C149 O146 1.267 . S
C149 O150 1.228 . S
O150 C149 1.228 . S
O151 Zn140 2.024 . S
O151 C142 1.058 . S
C152 O153 1.228 . S
C152 O154 1.267 . S
O153 C152 1.228 . S
O154 Zn141 1.969 . S
O154 C152 1.267 . S
O155 Zn141 1.965 . S
O155 C159 1.260 . S
O156 Zn140 1.969 . S
O156 C159 1.258 . S
O157 Zn141 2.024 . S
O157 C144 1.058 . S
C158 O147 1.260 . S
C158 O148 1.258 . S
C159 O155 1.260 . S
C159 O156 1.258 . S
Zn160 O166 1.969 . S
Zn160 O167 1.965 . S
Zn160 O171 2.024 . S
Zn160 O176 1.969 . S
Zn161 O168 1.969 . S
Zn161 O174 1.969 . S
Zn161 O175 1.965 . S
Zn161 O177 2.024 . S
C162 O163 1.229 . S
C162 O171 1.058 . S
O163 C162 1.229 . S
C164 O165 1.229 . S
C164 O177 1.058 . S
O165 C164 1.229 . S
O166 Zn160 1.969 . S
O166 C169 1.267 1_565 S
O167 Zn160 1.965 . S
O167 C178 1.260 . S
O168 Zn161 1.969 . S
O168 C178 1.258 . S
C169 O166 1.267 1_545 S
C169 O170 1.228 1_545 S
O170 C169 1.228 1_565 S
O171 Zn160 2.024 . S
O171 C162 1.058 . S
C172 O173 1.228 . S
C172 O174 1.267 . S
O173 C172 1.228 . S
O174 Zn161 1.969 . S
O174 C172 1.267 . S
O175 Zn161 1.965 . S
O175 C179 1.260 . S
O176 Zn160 1.969 . S
O176 C179 1.258 . S
O177 Zn161 2.024 . S
O177 C164 1.058 . S
C178 O167 1.260 . S
C178 O168 1.258 . S
C179 O175 1.260 . S
C179 O176 1.258 . S
Zn180 O186 1.969 . S
Zn180 O187 1.965 . S
Zn180 O191 2.024 . S
Zn180 O196 1.969 . S
Zn181 O188 1.969 . S
Zn181 O194 1.969 . S
Zn181 O195 1.965 . S
Zn181 O197 2.024 . S
C182 O183 1.229 . S
C182 O191 1.058 . S
O183 C182 1.229 . S
C184 O185 1.229 . S
C184 O197 1.058 . S
O185 C184 1.229 . S
O186 Zn180 1.969 . S
O186 C189 1.267 . S
O187 Zn180 1.965 . S
O187 C198 1.260 . S
O188 Zn181 1.969 . S
O188 C198 1.258 . S
C189 O186 1.267 . S
C189 O190 1.228 . S
O190 C189 1.228 . S
O191 Zn180 2.024 . S
O191 C182 1.058 . S
C192 O193 1.228 . S
C192 O194 1.267 . S
O193 C192 1.228 . S
O194 Zn181 1.969 . S
O194 C192 1.267 . S
O195 Zn181 1.965 . S
O195 C199 1.260 . S
O196 Zn180 1.969 . S
O196 C199 1.258 . S
O197 Zn181 2.024 . S
O197 C184 1.058 . S
C198 O187 1.260 . S
C198 O188 1.258 . S
C199 O195 1.260 . S
C199 O196 1.258 . S
Zn200 O206 1.969 . S
Zn200 O207 1.965 . S
Zn200 O211 2.024 . S
Zn200 O216 1.969 . S
Zn201 O208 1.969 . S
Zn201 O214 1.969 . S
Zn201 O215 1.965 . S
Zn201 O217 2.024 . S
C202 O203 1.229 . S
C202 O211 1.058 . S
O203 C202 1.229 . S
C204 O205 1.229 . S
C204 O217 1.058 . S
O205 C204 1.229 . S
O206 Zn200 1.969 . S
O206 C209 1.267 . S
O207 Zn200 1.965 . S
O207 C218 1.260 . S
O208 Zn201 1.969 . S
O208 C218 1.258 . S
C209 O206 1.267 . S
C209 O210 1.228 . S
O210 C209 1.228 . S
O211 Zn200 2.024 . S
O211 C202 1.058 . S
C212 O213 1.228 . S
C212 O214 1.267 . S
O213 C212 1.228 . S
O214 Zn201 1.969 . S
O214 C212 1.267 . S
O215 Zn201 1.965 . S
O215 C219 1.260 . S
O216 Zn200 1.969 . S
O216 C219 1.258 . S
O217 Zn201 2.024 . S
O217 C204 1.058 . S
C218 O207 1.260 . S
C218 O208 1.258 . S
C219 O215 1.260 . S
C219 O216 1.258 . S
Zn220 O226 1.969 . S
Zn220 O227 1.965 . S
Zn220 O231 2.024 . S
Zn220 O236 1.969 . S
Zn221 O228 1.969 . S
Zn221 O234 1.969 . S
Zn221 O235 1.965 . S
Zn221 O237 2.024 . S
C222 O223 1.229 . S
C222 O231 1.058 . S
O223 C222 1.229 . S
C224 O225 1.229 . S
C224 O237 1.058 . S
O225 C224 1.229 . S
O226 Zn220 1.969 . S
O226 C229 1.267 . S
O227 Zn220 1.965 . S
O227 C238 1.260 . S
O228 Zn221 1.969 . S
O228 C238 1.258 . S
C229 O226 1.267 . S
C229 O230 1.228 . S
O230 C229 1.228 . S
O231 Zn220 2.024 . S
O231 C222 1.058 . S
C232 O233 1.228 . S
C232 O234 1.267 . S
O233 C232 1.228 . S
O234 Zn221 1.969 . S
O234 C232 1.267 . S
O235 Zn221 1.965 . S
O235 C239 1.260 . S
O236 Zn220 1.969 . S
O236 C239 1.258 . S
O237 Zn221 2.024 . S
O237 C224 1.058 . S
C238 O227 1.260 . S
C238 O228 1.258 . S
C239 O235 1.260 . S
C239 O236 1.258 . S
Zn240 O246 1.969 . S
Zn240 O247 1.965 . S
Zn240 O251 2.024 . S
Zn240 O256 1.969 . S
Zn241 O248 1.969 . S
Zn241 O254 1.969 . S
Zn241 O255 1.965 . S
Zn241 O257 2.024 . S
C242 O243 1.229 . S
C242 O251 1.058 . S
O243 C242 1.229 . S
C244 O245 1.229 . S
C244 O257 1.058 . S
O245 C244 1.229 . S
O246 Zn240 1.969 . S
O246 C249 1.267 . S
O247 Zn240 1.965 . S
O247 C258 1.260 . S
O248 Zn241 1.969 . S
O248 C258 1.258 . S
C249 O246 1.267 . S
C249 O250 1.228 . S
O250 C249 1.228 . S
O251 Zn240 2.024 . S
O251 C242 1.058 . S
C252 O253 1.228 . S
C252 O254 1.267 . S
O253 C252 1.228 . S
O254 Zn241 1.969 . S
O254 C252 1.267 . S
O255 Zn241 1.965 . S
O255 C259 1.260 . S
O256 Zn240 1.969 . S
O256 C259 1.258 . S
O257 Zn241 2.024 . S
O257 C244 1.058 . S
C258 O247 1.260 . S
C258 O248 1.258 . S
C259 O255 1.260 . S
C259 O256 1.258 . S
Zn260 O266 1.969 . S
Zn260 O267 1.965 . S
Zn260 O271 2.024 . S
Zn260 O276 1.969 . S
Zn261 O268 1.969 . S
Zn261 O274 1.969 . S
Zn261 O275 1.965 . S
Zn261 O277 2.024 . S
C262 O263 1.229 . S
C262 O271 1.058 . S
O263 C262 1.229 . S
C264 O265 1.229 . S
C264 O277 1.058 . S
O265 C264 1.229 . S
O266 Zn260 1.969 . S
O266 C269 1.267 . S
O267 Zn260 1.965 . S
O267 C278 1.260 . S
O268 Zn261 1.969 . S
O268 C278 1.258 . S
C269 O266 1.267 . S
C269 O270 1.228 . S
O270 C269 1.228 . S
O271 Zn260 2.024 . S
O271 C262 1.058 . S
C272 O273 1.228 . S
C272 O274 1.267 . S
O273 C272 1.228 . S
O274 Zn261 1.969 . S
O274 C272 1.267 . S
O275 Zn261 1.965 . S
O275 C279 1.260 . S
O276 Zn260 1.969 . S
O276 C279 1.258 . S
O277 Zn261 2.024 . S
O277 C264 1.058 . S
C278 O267 1.260 . S
C278 O268 1.258 . S
C279 O275 1.260 . S
C279 O276 1.258 . S
Zn280 O286 1.969 . S
Zn280 O287 1.965 . S
Zn280 O291 2.024 . S
Zn280 O296 1.969 . S
Zn281 O288 1.969 . S
Zn281 O294 1.969 . S
Zn281 O295 1.965 . S
Zn281 O297 2.024 . S
C282 O283 1.229 . S
C282 O291 1.058 . S
O283 C282 1.229 . S
C284 O285 1.229 . S
C284 O297 1.058 . S
O285 C284 1.229 . S
O286 Zn280 1.969 . S
O286 C289 1.267 . S
O287 Zn280 1.965 . S
O287 C298 1.260 . S
O288 Zn281 1.969 . S
O288 C298 1.258 . S
C289 O286 1.267 . S
C289 O290 1.228 . S
O290 C289 1.228 . S
O291 Zn280 2.024 . S
O291 C282 1.058 . S
C292 O293 1.228 . S
C292 O294 1.267 . S
O293 C292 1.228 . S
O294 Zn281 1.969 . S
O294 C292 1.267 . S
O295 Zn281 1.965 . S
O295 C299 1.260 . S
O296 Zn280 1.969 . S
O296 C299 1.258 . S
O297 Zn281 2.024 . S
O297 C284 1.058 . S
C298 O287 1.260 . S
C298 O288 1.258 . S
C299 O295 1.260 . S
C299 O296 1.258 . S
Zn300 O306 1.969 . S
Zn300 O307 1.965 . S
Zn300 O311 2.024 . S
Zn300 O316 1.969 . S
Zn301 O308 1.969 . S
Zn301 O314 1.969 . S
Zn301 O315 1.965 . S
Zn301 O317 2.024 . S
C302 O303 1.229 . S
C302 O311 1.058 . S
O303 C302 1.229 . S
C304 O305 1.229 . S
C304 O317 1.058 . S
O305 C304 1.229 . S
O306 Zn300 1.969 . S
O306 C309 1.267 . S
O307 Zn300 1.965 . S
O307 C318 1.260 . S
O308 Zn301 1.969 . S
O308 C318 1.258 . S
C309 O306 1.267 . S
C309 O310 1.228 . S
O310 C309 1.228 . S
O311 Zn300 2.024 . S
O311 C302 1.058 . S
C312 O313 1.228 . S
C312 O314 1.267 . S
O313 C312 1.228 . S
O314 Zn301 1.969 . S
O314 C312 1.267 . S
O315 Zn301 1.965 . S
O315 C319 1.260 . S
O316 Zn300 1.969 . S
O316 C319 1.258 . S
O317 Zn301 2.024 . S
O317 C304 1.058 . S
C318 O307 1.260 . S
C318 O308 1.258 . S
C319 O315 1.260 . S
C319 O316 1.258 . S
Zn320 O326 1.969 . S
Zn320 O327 1.965 . S
Zn320 O331 2.024 . S
Zn320 O336 1.969 . S
Zn321 O328 1.969 . S
Zn321 O334 1.969 . S
Zn321 O335 1.965 . S
Zn321 O337 2.024 . S
C322 O323 1.229 . S
C322 O331 1.058 . S
O323 C322 1.229 . S
C324 O325 1.229 . S
C324 O337 1.058 . S
O325 C324 1.229 . S
O326 Zn320 1.969 . S
O326 C329 1.267 1_655 S
O327 Zn320 1.965 . S
O327 C338 1.260 . S
O328 Zn321 1.969 . S
O328 C338 1.258 . S
C329 O326 1.267 1_455 S
C329 O330 1.228 1_455 S
O330 C329 1.228 1_655 S
O331 Zn320 2.024 . S
O331 C322 1.058 . S
C332 O333 1.228 . S
C332 O334 1.267 . S
O333 C332 1.228 . S
O334 Zn321 1.969 . S
O334 C332 1.267 . S
O335 Zn321 1.965 . S
O335 C339 1.260 . S
O336 Zn320 1.969 . S
O336 C339 1.258 . S
O337 Zn321 2.024 . S
O337 C324 1.058 . S
C338 O327 1.260 . S
C338 O328 1.258 . S
C339 O335 1.260 . S
C339 O336 1.258 . S
Zn340 O346 1.969 . S
Zn340 O347 1.965 . S
Zn340 O351 2.024 . S
Zn340 O356 1.969 . S
Zn341 O348 1.969 . S
Zn341 O354 1.969 . S
Zn341 O355 1.965 . S
Zn341 O357 2.024 . S
C342 O343 1.229 . S
C342 O351 1.058 . S
O343 C342 1.229 . S
C344 O345 1.229 . S
C344 O357 1.058 . S
O345 C344 1.229 . S
O346 Zn340 1.969 . S
O346 C349 1.267 . S
O347 Zn340 1.965 . S
O347 C358 1.260 . S
O348 Zn341 1.969 . S
O348 C358 1.258 . S
C349 O346 1.267 . S
C349 O350 1.228 . S
O350 C349 1.228 . S
O351 Zn340 2.024 . S
O351 C342 1.058 . S
C352 O353 1.228 . S
C352 O354 1.267 . S
O353 C352 1.228 . S
O354 Zn341 1.969 . S
O354 C352 1.267 . S
O355 Zn341 1.965 . S
O355 C359 1.260 . S
O356 Zn340 1.969 . S
O356 C359 1.258 . S
O357 Zn341 2.024 . S
O357 C344 1.058 . S
C358 O347 1.260 . S
C358 O348 1.258 . S
C359 O355 1.260 . S
C359 O356 1.258 . S
H360 C372 0.930 . S
H361 C374 0.930 . S
H362 C375 0.930 . S
H363 C379 0.959 . S
H364 C379 0.959 . S
H365 C379 0.961 . S
H366 C380 0.960 . S
H367 C380 0.961 . S
H368 C380 0.959 . S
H369 C383 0.929 . S
H370 C384 0.931 . S
H371 C386 0.930 . S
C372 H360 0.930 . S
C372 C373 1.399 . S
C372 C377 1.399 . S
C373 C372 1.399 . S
C373 C374 1.376 . S
C374 H361 0.930 . S
C374 C373 1.376 . S
C374 C375 1.388 . S
C375 H362 0.930 . S
C375 C374 1.388 . S
C375 C376 1.390 . S
C376 C375 1.390 . S
C376 C377 1.394 . S
C376 C382 1.465 . S
C377 C372 1.399 . S
C377 C376 1.394 . S
C377 C378 1.516 . S
C378 C377 1.516 . S
C378 C379 1.502 . S
C378 C380 1.561 . S
C378 C381 1.526 . S
C379 H363 0.959 . S
C379 H364 0.959 . S
C379 H365 0.961 . S
C379 C378 1.502 . S
C380 H366 0.960 . S
C380 H367 0.961 . S
C380 H368 0.959 . S
C380 C378 1.561 . S
C381 C378 1.526 . S
C381 C382 1.396 . S
C381 C386 1.390 . S
C382 C376 1.465 . S
C382 C381 1.396 . S
C382 C383 1.399 . S
C383 H369 0.929 . S
C383 C382 1.399 . S
C383 C384 1.385 . S
C384 H370 0.931 . S
C384 C383 1.385 . S
C384 C385 1.389 . S
C385 C384 1.389 . S
C385 C386 1.387 . S
C386 H371 0.930 . S
C386 C381 1.390 . S
C386 C385 1.387 . S
H387 C399 0.930 . S
H388 C401 0.930 . S
H389 C402 0.930 . S
H390 C406 0.959 . S
H391 C406 0.959 . S
H392 C406 0.961 . S
H393 C407 0.960 . S
H394 C407 0.961 . S
H395 C407 0.959 . S
H396 C410 0.929 . S
H397 C411 0.931 . S
H398 C413 0.930 . S
C399 H387 0.930 . S
C399 C400 1.399 . S
C399 C404 1.399 . S
C400 C399 1.399 . S
C400 C401 1.376 . S
C401 H388 0.930 . S
C401 C400 1.376 . S
C401 C402 1.388 . S
C402 H389 0.930 . S
C402 C401 1.388 . S
C402 C403 1.390 . S
C403 C402 1.390 . S
C403 C404 1.394 . S
C403 C409 1.465 . S
C404 C399 1.399 . S
C404 C403 1.394 . S
C404 C405 1.516 . S
C405 C404 1.516 . S
C405 C406 1.502 . S
C405 C407 1.561 . S
C405 C408 1.526 . S
C406 H390 0.959 . S
C406 H391 0.959 . S
C406 H392 0.961 . S
C406 C405 1.502 . S
C407 H393 0.960 . S
C407 H394 0.961 . S
C407 H395 0.959 . S
C407 C405 1.561 . S
C408 C405 1.526 . S
C408 C409 1.396 . S
C408 C413 1.390 . S
C409 C403 1.465 . S
C409 C408 1.396 . S
C409 C410 1.399 . S
C410 H396 0.929 . S
C410 C409 1.399 . S
C410 C411 1.385 . S
C411 H397 0.931 . S
C411 C410 1.385 . S
C411 C412 1.389 . S
C412 C411 1.389 . S
C412 C413 1.387 . S
C413 H398 0.930 . S
C413 C408 1.390 . S
C413 C412 1.387 . S
H414 C426 0.930 . S
H415 C428 0.930 . S
H416 C429 0.930 . S
H417 C433 0.959 . S
H418 C433 0.959 . S
H419 C433 0.961 . S
H420 C434 0.960 . S
H421 C434 0.961 . S
H422 C434 0.959 . S
H423 C437 0.929 . S
H424 C438 0.931 . S
H425 C440 0.930 . S
C426 H414 0.930 . S
C426 C427 1.399 . S
C426 C431 1.399 . S
C427 C426 1.399 . S
C427 C428 1.376 . S
C428 H415 0.930 . S
C428 C427 1.376 . S
C428 C429 1.388 . S
C429 H416 0.930 . S
C429 C428 1.388 . S
C429 C430 1.390 . S
C430 C429 1.390 . S
C430 C431 1.394 . S
C430 C436 1.465 . S
C431 C426 1.399 . S
C431 C430 1.394 . S
C431 C432 1.516 . S
C432 C431 1.516 . S
C432 C433 1.502 . S
C432 C434 1.561 . S
C432 C435 1.526 . S
C433 H417 0.959 . S
C433 H418 0.959 . S
C433 H419 0.961 . S
C433 C432 1.502 . S
C434 H420 0.960 . S
C434 H421 0.961 . S
C434 H422 0.959 . S
C434 C432 1.561 . S
C435 C432 1.526 . S
C435 C436 1.396 . S
C435 C440 1.390 . S
C436 C430 1.465 . S
C436 C435 1.396 . S
C436 C437 1.399 . S
C437 H423 0.929 . S
C437 C436 1.399 . S
C437 C438 1.385 . S
C438 H424 0.931 . S
C438 C437 1.385 . S
C438 C439 1.389 . S
C439 C438 1.389 . S
C439 C440 1.387 . S
C440 H425 0.930 . S
C440 C435 1.390 . S
C440 C439 1.387 . S
H441 C453 0.930 . S
H442 C455 0.930 . S
H443 C456 0.930 . S
H444 C460 0.959 . S
H445 C460 0.959 . S
H446 C460 0.961 . S
H447 C461 0.960 . S
H448 C461 0.961 . S
H449 C461 0.959 . S
H450 C464 0.929 . S
H451 C465 0.931 . S
H452 C467 0.930 . S
C453 H441 0.930 . S
C453 C454 1.399 . S
C453 C458 1.399 . S
C454 C453 1.399 . S
C454 C455 1.376 . S
C455 H442 0.930 . S
C455 C454 1.376 . S
C455 C456 1.388 . S
C456 H443 0.930 . S
C456 C455 1.388 . S
C456 C457 1.390 . S
C457 C456 1.390 . S
C457 C458 1.394 . S
C457 C463 1.465 . S
C458 C453 1.399 . S
C458 C457 1.394 . S
C458 C459 1.516 . S
C459 C458 1.516 . S
C459 C460 1.502 . S
C459 C461 1.561 . S
C459 C462 1.526 . S
C460 H444 0.959 . S
C460 H445 0.959 . S
C460 H446 0.961 . S
C460 C459 1.502 . S
C461 H447 0.960 . S
C461 H448 0.961 . S
C461 H449 0.959 . S
C461 C459 1.561 . S
C462 C459 1.526 . S
C462 C463 1.396 . S
C462 C467 1.390 . S
C463 C457 1.465 . S
C463 C462 1.396 . S
C463 C464 1.399 . S
C464 H450 0.929 . S
C464 C463 1.399 . S
C464 C465 1.385 . S
C465 H451 0.931 . S
C465 C464 1.385 . S
C465 C466 1.389 . S
C466 C465 1.389 . S
C466 C467 1.387 . S
C467 H452 0.930 . S
C467 C462 1.390 . S
C467 C466 1.387 . S
H468 C480 0.930 . S
H469 C482 0.930 . S
H470 C483 0.930 . S
H471 C487 0.959 . S
H472 C487 0.959 . S
H473 C487 0.961 . S
H474 C488 0.960 . S
H475 C488 0.961 . S
H476 C488 0.959 . S
H477 C491 0.929 . S
H478 C492 0.931 . S
H479 C494 0.930 . S
C480 H468 0.930 . S
C480 C481 1.399 . S
C480 C485 1.399 . S
C481 C480 1.399 . S
C481 C482 1.376 . S
C482 H469 0.930 . S
C482 C481 1.376 . S
C482 C483 1.388 . S
C483 H470 0.930 . S
C483 C482 1.388 . S
C483 C484 1.390 . S
C484 C483 1.390 . S
C484 C485 1.394 . S
C484 C490 1.465 . S
C485 C480 1.399 . S
C485 C484 1.394 . S
C485 C486 1.516 . S
C486 C485 1.516 . S
C486 C487 1.502 . S
C486 C488 1.561 . S
C486 C489 1.526 . S
C487 H471 0.959 . S
C487 H472 0.959 . S
C487 H473 0.961 . S
C487 C486 1.502 . S
C488 H474 0.960 . S
C488 H475 0.961 . S
C488 H476 0.959 . S
C488 C486 1.561 . S
C489 C486 1.526 . S
C489 C490 1.396 . S
C489 C494 1.390 . S
C490 C484 1.465 . S
C490 C489 1.396 . S
C490 C491 1.399 . S
C491 H477 0.929 . S
C491 C490 1.399 . S
C491 C492 1.385 . S
C492 H478 0.931 . S
C492 C491 1.385 . S
C492 C493 1.389 . S
C493 C492 1.389 . S
C493 C494 1.387 . S
C494 H479 0.930 . S
C494 C489 1.390 . S
C494 C493 1.387 . S
H495 C507 0.930 . S
H496 C509 0.930 . S
H497 C510 0.930 . S
H498 C514 0.959 . S
H499 C514 0.959 . S
H500 C514 0.961 . S
H501 C515 0.960 . S
H502 C515 0.961 . S
H503 C515 0.959 . S
H504 C518 0.929 . S
H505 C519 0.931 . S
H506 C521 0.930 . S
C507 H495 0.930 . S
C507 C508 1.399 . S
C507 C512 1.399 . S
C508 C507 1.399 . S
C508 C509 1.376 . S
C509 H496 0.930 . S
C509 C508 1.376 . S
C509 C510 1.388 . S
C510 H497 0.930 . S
C510 C509 1.388 . S
C510 C511 1.390 . S
C511 C510 1.390 . S
C511 C512 1.394 . S
C511 C517 1.465 . S
C512 C507 1.399 . S
C512 C511 1.394 . S
C512 C513 1.516 . S
C513 C512 1.516 . S
C513 C514 1.502 . S
C513 C515 1.561 . S
C513 C516 1.526 . S
C514 H498 0.959 . S
C514 H499 0.959 . S
C514 H500 0.961 . S
C514 C513 1.502 . S
C515 H501 0.960 . S
C515 H502 0.961 . S
C515 H503 0.959 . S
C515 C513 1.561 . S
C516 C513 1.526 . S
C516 C517 1.396 . S
C516 C521 1.390 . S
C517 C511 1.465 . S
C517 C516 1.396 . S
C517 C518 1.399 . S
C518 H504 0.929 . S
C518 C517 1.399 . S
C518 C519 1.385 . S
C519 H505 0.931 . S
C519 C518 1.385 . S
C519 C520 1.389 . S
C520 C519 1.389 . S
C520 C521 1.387 . S
C521 H506 0.930 . S
C521 C516 1.390 . S
C521 C520 1.387 . S
H522 C534 0.930 . S
H523 C536 0.930 1_565 S
H524 C537 0.930 . S
H525 C541 0.959 . S
H526 C541 0.959 . S
H527 C541 0.961 . S
H528 C542 0.960 . S
H529 C542 0.961 . S
H530 C542 0.959 . S
H531 C545 0.929 . S
H532 C546 0.931 . S
H533 C548 0.930 . S
C534 H522 0.930 . S
C534 C535 1.399 . S
C534 C539 1.399 . S
C535 C534 1.399 . S
C535 C536 1.376 . S
C536 H523 0.930 1_545 S
C536 C535 1.376 . S
C536 C537 1.388 . S
C537 H524 0.930 . S
C537 C536 1.388 . S
C537 C538 1.390 . S
C538 C537 1.390 . S
C538 C539 1.394 . S
C538 C544 1.465 . S
C539 C534 1.399 . S
C539 C538 1.394 . S
C539 C540 1.516 . S
C540 C539 1.516 . S
C540 C541 1.502 . S
C540 C542 1.561 . S
C540 C543 1.526 . S
C541 H525 0.959 . S
C541 H526 0.959 . S
C541 H527 0.961 . S
C541 C540 1.502 . S
C542 H528 0.960 . S
C542 H529 0.961 . S
C542 H530 0.959 . S
C542 C540 1.561 . S
C543 C540 1.526 . S
C543 C544 1.396 . S
C543 C548 1.390 . S
C544 C538 1.465 . S
C544 C543 1.396 . S
C544 C545 1.399 . S
C545 H531 0.929 . S
C545 C544 1.399 . S
C545 C546 1.385 . S
C546 H532 0.931 . S
C546 C545 1.385 . S
C546 C547 1.389 . S
C547 C546 1.389 . S
C547 C548 1.387 . S
C548 H533 0.930 . S
C548 C543 1.390 . S
C548 C547 1.387 . S
H549 C561 0.939 . S
H550 C563 0.930 . S
H551 C564 0.930 . S
H552 C568 0.959 . S
H553 C568 0.959 . S
H554 C568 0.961 . S
H555 C569 0.960 . S
H556 C569 0.961 . S
H557 C569 0.959 . S
H558 C572 0.929 . S
H559 C573 0.931 . S
H560 C575 0.930 1_565 S
C561 H549 0.939 . S
C561 C562 1.399 . S
C561 C566 1.399 . S
C562 C561 1.399 . S
C562 C563 1.376 . S
C563 H550 0.930 . S
C563 C562 1.376 . S
C563 C564 1.388 . S
C564 H551 0.930 . S
C564 C563 1.388 . S
C564 C565 1.390 . S
C565 C564 1.390 . S
C565 C566 1.394 . S
C565 C571 1.465 . S
C566 C561 1.399 . S
C566 C565 1.394 . S
C566 C567 1.516 . S
C567 C566 1.516 . S
C567 C568 1.502 . S
C567 C569 1.561 . S
C567 C570 1.526 . S
C568 H552 0.959 . S
C568 H553 0.959 . S
C568 H554 0.961 . S
C568 C567 1.502 . S
C569 H555 0.960 . S
C569 H556 0.961 . S
C569 H557 0.959 . S
C569 C567 1.561 . S
C570 C567 1.526 . S
C570 C571 1.396 . S
C570 C575 1.389 . S
C571 C565 1.465 . S
C571 C570 1.396 . S
C571 C572 1.399 . S
C572 H558 0.929 . S
C572 C571 1.399 . S
C572 C573 1.385 1_545 S
C573 H559 0.931 . S
C573 C572 1.385 1_565 S
C573 C574 1.389 . S
C574 C573 1.389 . S
C574 C575 1.387 1_565 S
C575 H560 0.930 1_545 S
C575 C570 1.389 . S
C575 C574 1.387 1_545 S
H576 C588 0.930 . S
H577 C590 0.930 . S
H578 C591 0.930 . S
H579 C595 0.959 . S
H580 C595 0.959 . S
H581 C595 0.961 . S
H582 C596 0.960 . S
H583 C596 0.961 . S
H584 C596 0.959 . S
H585 C599 0.929 . S
H586 C600 0.931 . S
H587 C602 0.930 . S
C588 H576 0.930 . S
C588 C589 1.399 . S
C588 C593 1.399 1_455 S
C589 C588 1.399 . S
C589 C590 1.376 . S
C590 H577 0.930 . S
C590 C589 1.376 . S
C590 C591 1.388 . S
C591 H578 0.930 . S
C591 C590 1.388 . S
C591 C592 1.390 1_455 S
C592 C591 1.390 1_655 S
C592 C593 1.394 . S
C592 C598 1.465 . S
C593 C588 1.399 1_655 S
C593 C592 1.394 . S
C593 C594 1.516 . S
C594 C593 1.516 . S
C594 C595 1.502 . S
C594 C596 1.561 . S
C594 C597 1.526 . S
C595 H579 0.959 . S
C595 H580 0.959 . S
C595 H581 0.961 . S
C595 C594 1.502 . S
C596 H582 0.960 . S
C596 H583 0.961 . S
C596 H584 0.959 . S
C596 C594 1.561 . S
C597 C594 1.526 . S
C597 C598 1.396 . S
C597 C602 1.390 . S
C598 C592 1.465 . S
C598 C597 1.396 . S
C598 C599 1.399 . S
C599 H585 0.929 . S
C599 C598 1.399 . S
C599 C600 1.385 . S
C600 H586 0.931 . S
C600 C599 1.385 . S
C600 C601 1.389 . S
C601 C600 1.389 . S
C601 C602 1.387 . S
C602 H587 0.930 . S
C602 C597 1.390 . S
C602 C601 1.387 . S
H603 C615 0.930 . S
H604 C617 0.930 . S
H605 C618 0.930 . S
H606 C622 0.959 . S
H607 C622 0.959 . S
H608 C622 0.961 . S
H609 C623 0.960 . S
H610 C623 0.961 . S
H611 C623 0.959 . S
H612 C626 0.929 . S
H613 C627 0.931 . S
H614 C629 0.930 . S
C615 H603 0.930 . S
C615 C616 1.399 . S
C615 C620 1.399 . S
C616 C615 1.399 . S
C616 C617 1.376 . S
C617 H604 0.930 . S
C617 C616 1.376 . S
C617 C618 1.388 . S
C618 H605 0.930 . S
C618 C617 1.388 . S
C618 C619 1.390 . S
C619 C618 1.390 . S
C619 C620 1.394 . S
C619 C625 1.465 . S
C620 C615 1.399 . S
C620 C619 1.394 . S
C620 C621 1.516 . S
C621 C620 1.516 . S
C621 C622 1.502 . S
C621 C623 1.561 . S
C621 C624 1.526 . S
C622 H606 0.959 . S
C622 H607 0.959 . S
C622 H608 0.961 . S
C622 C621 1.502 . S
C623 H609 0.960 . S
C623 H610 0.961 . S
C623 H611 0.959 . S
C623 C621 1.561 . S
C624 C621 1.526 . S
C624 C625 1.396 . S
C624 C629 1.390 . S
C625 C619 1.465 . S
C625 C624 1.396 . S
C625 C626 1.399 . S
C626 H612 0.929 . S
C626 C625 1.399 . S
C626 C627 1.385 . S
C627 H613 0.931 . S
C627 C626 1.385 . S
C627 C628 1.389 . S
C628 C627 1.389 . S
C628 C629 1.387 . S
C629 H614 0.930 . S
C629 C624 1.390 . S
C629 C628 1.387 . S
H630 C642 0.930 . S
H631 C644 0.930 . S
H632 C645 0.930 . S
H633 C649 0.959 . S
H634 C649 0.959 . S
H635 C649 0.961 . S
H636 C650 0.960 . S
H637 C650 0.961 . S
H638 C650 0.959 . S
H639 C653 0.929 . S
H640 C654 0.931 . S
H641 C656 0.930 . S
C642 H630 0.930 . S
C642 C643 1.399 . S
C642 C647 1.399 . S
C643 C642 1.399 . S
C643 C644 1.376 . S
C644 H631 0.930 . S
C644 C643 1.376 . S
C644 C645 1.388 . S
C645 H632 0.930 . S
C645 C644 1.388 . S
C645 C646 1.390 . S
C646 C645 1.390 . S
C646 C647 1.394 . S
C646 C652 1.465 . S
C647 C642 1.399 . S
C647 C646 1.394 . S
C647 C648 1.516 . S
C648 C647 1.516 . S
C648 C649 1.502 . S
C648 C650 1.561 . S
C648 C651 1.526 . S
C649 H633 0.959 . S
C649 H634 0.959 . S
C649 H635 0.961 . S
C649 C648 1.502 . S
C650 H636 0.960 . S
C650 H637 0.961 . S
C650 H638 0.959 . S
C650 C648 1.561 . S
C651 C648 1.526 . S
C651 C652 1.396 . S
C651 C656 1.390 . S
C652 C646 1.465 . S
C652 C651 1.396 . S
C652 C653 1.399 . S
C653 H639 0.929 . S
C653 C652 1.399 . S
C653 C654 1.385 . S
C654 H640 0.931 . S
C654 C653 1.385 . S
C654 C655 1.389 . S
C655 C654 1.389 . S
C655 C656 1.387 . S
C656 H641 0.930 . S
C656 C651 1.390 . S
C656 C655 1.387 . S
H657 C669 0.930 . S
H658 C671 0.930 . S
H659 C672 0.930 . S
H660 C676 0.959 . S
H661 C676 0.959 . S
H662 C676 0.961 . S
H663 C677 0.960 . S
H664 C677 0.961 . S
H665 C677 0.959 . S
H666 C680 0.929 . S
H667 C681 0.931 . S
H668 C683 0.930 . S
C669 H657 0.930 . S
C669 C670 1.399 . S
C669 C674 1.399 . S
C670 C669 1.399 . S
C670 C671 1.376 . S
C671 H658 0.930 . S
C671 C670 1.376 . S
C671 C672 1.388 . S
C672 H659 0.930 . S
C672 C671 1.388 . S
C672 C673 1.390 . S
C673 C672 1.390 . S
C673 C674 1.394 . S
C673 C679 1.465 . S
C674 C669 1.399 . S
C674 C673 1.394 . S
C674 C675 1.516 . S
C675 C674 1.516 . S
C675 C676 1.502 . S
C675 C677 1.561 . S
C675 C678 1.526 . S
C676 H660 0.959 . S
C676 H661 0.959 . S
C676 H662 0.961 . S
C676 C675 1.502 . S
C677 H663 0.960 . S
C677 H664 0.961 . S
C677 H665 0.959 . S
C677 C675 1.561 . S
C678 C675 1.526 . S
C678 C679 1.396 . S
C678 C683 1.390 . S
C679 C673 1.465 . S
C679 C678 1.396 . S
C679 C680 1.399 . S
C680 H666 0.929 . S
C680 C679 1.399 . S
C680 C681 1.385 . S
C681 H667 0.931 . S
C681 C680 1.385 . S
C681 C682 1.389 . S
C682 C681 1.389 . S
C682 C683 1.387 . S
C683 H668 0.930 . S
C683 C678 1.390 . S
C683 C682 1.387 . S
H684 C696 0.930 . S
H685 C698 0.930 . S
H686 C699 0.930 . S
H687 C703 0.959 . S
H688 C703 0.959 . S
H689 C703 0.961 . S
H690 C704 0.960 . S
H691 C704 0.961 . S
H692 C704 0.959 . S
H693 C707 0.929 . S
H694 C708 0.931 . S
H695 C710 0.930 . S
C696 H684 0.930 . S
C696 C697 1.399 . S
C696 C701 1.399 . S
C697 C696 1.399 . S
C697 C698 1.376 . S
C698 H685 0.930 . S
C698 C697 1.376 . S
C698 C699 1.388 . S
C699 H686 0.930 . S
C699 C698 1.388 . S
C699 C700 1.390 . S
C700 C699 1.390 . S
C700 C701 1.394 . S
C700 C706 1.465 . S
C701 C696 1.399 . S
C701 C700 1.394 . S
C701 C702 1.516 . S
C702 C701 1.516 . S
C702 C703 1.502 . S
C702 C704 1.561 . S
C702 C705 1.526 . S
C703 H687 0.959 . S
C703 H688 0.959 . S
C703 H689 0.961 . S
C703 C702 1.502 . S
C704 H690 0.960 . S
C704 H691 0.961 . S
C704 H692 0.959 . S
C704 C702 1.561 . S
C705 C702 1.526 . S
C705 C706 1.396 . S
C705 C710 1.390 . S
C706 C700 1.465 . S
C706 C705 1.396 . S
C706 C707 1.399 . S
C707 H693 0.929 . S
C707 C706 1.399 . S
C707 C708 1.385 . S
C708 H694 0.931 . S
C708 C707 1.385 . S
C708 C709 1.389 . S
C709 C708 1.389 . S
C709 C710 1.387 . S
C710 H695 0.930 . S
C710 C705 1.390 . S
C710 C709 1.387 . S
H711 C723 0.930 . S
H712 C725 0.930 . S
H713 C726 0.930 . S
H714 C730 0.959 . S
H715 C730 0.959 . S
H716 C730 0.961 . S
H717 C731 0.960 . S
H718 C731 0.961 . S
H719 C731 0.959 . S
H720 C734 0.929 . S
H721 C735 0.931 . S
H722 C737 0.930 . S
C723 H711 0.930 . S
C723 C724 1.399 . S
C723 C728 1.399 . S
C724 C723 1.399 . S
C724 C725 1.376 . S
C725 H712 0.930 . S
C725 C724 1.376 . S
C725 C726 1.388 . S
C726 H713 0.930 . S
C726 C725 1.388 . S
C726 C727 1.390 . S
C727 C726 1.390 . S
C727 C728 1.394 . S
C727 C733 1.465 . S
C728 C723 1.399 . S
C728 C727 1.394 . S
C728 C729 1.516 . S
C729 C728 1.516 . S
C729 C730 1.502 . S
C729 C731 1.561 . S
C729 C732 1.526 . S
C730 H714 0.959 . S
C730 H715 0.959 . S
C730 H716 0.961 . S
C730 C729 1.502 . S
C731 H717 0.960 . S
C731 H718 0.961 . S
C731 H719 0.959 . S
C731 C729 1.561 . S
C732 C729 1.526 . S
C732 C733 1.396 . S
C732 C737 1.390 . S
C733 C727 1.465 . S
C733 C732 1.396 . S
C733 C734 1.399 . S
C734 H720 0.929 . S
C734 C733 1.399 . S
C734 C735 1.385 . S
C735 H721 0.931 . S
C735 C734 1.385 . S
C735 C736 1.389 . S
C736 C735 1.389 . S
C736 C737 1.387 . S
C737 H722 0.930 . S
C737 C732 1.390 . S
C737 C736 1.387 . S
H738 C750 0.930 . S
H739 C752 0.930 . S
H740 C753 0.930 . S
H741 C757 0.959 . S
H742 C757 0.959 . S
H743 C757 0.961 . S
H744 C758 0.960 . S
H745 C758 0.961 . S
H746 C758 0.959 . S
H747 C761 0.929 . S
H748 C762 0.931 . S
H749 C764 0.930 . S
C750 H738 0.930 . S
C750 C751 1.399 . S
C750 C755 1.399 . S
C751 C750 1.399 . S
C751 C752 1.376 . S
C752 H739 0.930 . S
C752 C751 1.376 . S
C752 C753 1.388 . S
C753 H740 0.930 . S
C753 C752 1.388 . S
C753 C754 1.390 . S
C754 C753 1.390 . S
C754 C755 1.394 . S
C754 C760 1.465 . S
C755 C750 1.399 . S
C755 C754 1.394 . S
C755 C756 1.516 . S
C756 C755 1.516 . S
C756 C757 1.502 . S
C756 C758 1.561 . S
C756 C759 1.526 . S
C757 H741 0.959 . S
C757 H742 0.959 . S
C757 H743 0.961 . S
C757 C756 1.502 . S
C758 H744 0.960 . S
C758 H745 0.961 . S
C758 H746 0.959 . S
C758 C756 1.561 . S
C759 C756 1.526 . S
C759 C760 1.396 . S
C759 C764 1.390 . S
C760 C754 1.465 . S
C760 C759 1.396 . S
C760 C761 1.399 . S
C761 H747 0.929 . S
C761 C760 1.399 . S
C761 C762 1.385 . S
C762 H748 0.931 . S
C762 C761 1.385 . S
C762 C763 1.389 . S
C763 C762 1.389 . S
C763 C764 1.387 . S
C764 H749 0.930 . S
C764 C759 1.390 . S
C764 C763 1.387 . S
H765 C777 0.930 . S
H766 C779 0.930 . S
H767 C780 0.930 . S
H768 C784 0.959 . S
H769 C784 0.959 . S
H770 C784 0.961 . S
H771 C785 0.960 . S
H772 C785 0.961 . S
H773 C785 0.959 . S
H774 C788 0.929 . S
H775 C789 0.931 . S
H776 C791 0.930 . S
C777 H765 0.930 . S
C777 C778 1.399 . S
C777 C782 1.399 . S
C778 C777 1.399 . S
C778 C779 1.376 . S
C779 H766 0.930 . S
C779 C778 1.376 . S
C779 C780 1.388 . S
C780 H767 0.930 . S
C780 C779 1.388 . S
C780 C781 1.390 . S
C781 C780 1.390 . S
C781 C782 1.394 . S
C781 C787 1.465 . S
C782 C777 1.399 . S
C782 C781 1.394 . S
C782 C783 1.516 . S
C783 C782 1.516 . S
C783 C784 1.502 . S
C783 C785 1.561 . S
C783 C786 1.526 . S
C784 H768 0.959 . S
C784 H769 0.959 . S
C784 H770 0.961 . S
C784 C783 1.502 . S
C785 H771 0.960 . S
C785 H772 0.961 . S
C785 H773 0.959 . S
C785 C783 1.561 . S
C786 C783 1.526 . S
C786 C787 1.396 . S
C786 C791 1.390 . S
C787 C781 1.465 . S
C787 C786 1.396 . S
C787 C788 1.399 . S
C788 H774 0.929 . S
C788 C787 1.399 . S
C788 C789 1.385 . S
C789 H775 0.931 . S
C789 C788 1.385 . S
C789 C790 1.389 . S
C790 C789 1.389 . S
C790 C791 1.387 . S
C791 H776 0.930 . S
C791 C786 1.390 . S
C791 C790 1.387 . S
H792 C804 0.930 . S
H793 C806 0.930 . S
H794 C807 0.930 . S
H795 C811 0.959 . S
H796 C811 0.959 . S
H797 C811 0.961 . S
H798 C812 0.960 . S
H799 C812 0.961 . S
H800 C812 0.959 . S
H801 C815 0.929 . S
H802 C816 0.931 . S
H803 C818 0.930 . S
C804 H792 0.930 . S
C804 C805 1.399 . S
C804 C809 1.399 . S
C805 C804 1.399 . S
C805 C806 1.376 . S
C806 H793 0.930 . S
C806 C805 1.376 . S
C806 C807 1.388 . S
C807 H794 0.930 . S
C807 C806 1.388 . S
C807 C808 1.390 . S
C808 C807 1.390 . S
C808 C809 1.394 . S
C808 C814 1.465 . S
C809 C804 1.399 . S
C809 C808 1.394 . S
C809 C810 1.516 . S
C810 C809 1.516 . S
C810 C811 1.502 . S
C810 C812 1.561 . S
C810 C813 1.526 . S
C811 H795 0.959 . S
C811 H796 0.959 . S
C811 H797 0.961 . S
C811 C810 1.502 . S
C812 H798 0.960 . S
C812 H799 0.961 . S
C812 H800 0.959 . S
C812 C810 1.561 . S
C813 C810 1.526 . S
C813 C814 1.396 . S
C813 C818 1.390 1_565 S
C814 C808 1.465 . S
C814 C813 1.396 . S
C814 C815 1.399 . S
C815 H801 0.929 . S
C815 C814 1.399 . S
C815 C816 1.385 1_565 S
C816 H802 0.931 . S
C816 C815 1.385 1_545 S
C816 C817 1.389 . S
C817 C816 1.389 . S
C817 C818 1.387 . S
C818 H803 0.930 . S
C818 C813 1.390 1_545 S
C818 C817 1.387 . S
H819 C831 0.930 . S
H820 C833 0.930 . S
H821 C834 0.930 . S
H822 C838 0.959 . S
H823 C838 0.959 . S
H824 C838 0.961 . S
H825 C839 0.960 . S
H826 C839 0.961 . S
H827 C839 0.959 . S
H828 C842 0.929 . S
H829 C843 0.931 . S
H830 C845 0.930 . S
C831 H819 0.930 . S
C831 C832 1.399 1_565 S
C831 C836 1.399 . S
C832 C831 1.399 1_545 S
C832 C833 1.376 . S
C833 H820 0.930 . S
C833 C832 1.376 . S
C833 C834 1.388 1_545 S
C834 H821 0.930 . S
C834 C833 1.388 1_565 S
C834 C835 1.390 . S
C835 C834 1.390 . S
C835 C836 1.394 . S
C835 C841 1.465 . S
C836 C831 1.399 . S
C836 C835 1.394 . S
C836 C837 1.516 . S
C837 C836 1.516 . S
C837 C838 1.502 . S
C837 C839 1.561 . S
C837 C840 1.526 . S
C838 H822 0.959 . S
C838 H823 0.959 . S
C838 H824 0.961 . S
C838 C837 1.502 . S
C839 H825 0.960 . S
C839 H826 0.961 . S
C839 H827 0.959 . S
C839 C837 1.561 . S
C840 C837 1.526 . S
C840 C841 1.396 . S
C840 C845 1.390 . S
C841 C835 1.465 . S
C841 C840 1.396 . S
C841 C842 1.399 . S
C842 H828 0.929 . S
C842 C841 1.399 . S
C842 C843 1.385 1_455 S
C843 H829 0.931 . S
C843 C842 1.385 1_655 S
C843 C844 1.389 . S
C844 C843 1.389 . S
C844 C845 1.387 1_655 S
C845 H830 0.930 . S
C845 C840 1.390 . S
C845 C844 1.387 1_455 S
H846 C858 0.930 . S
H847 C860 0.930 . S
H848 C861 0.930 . S
H849 C865 0.966 . S
H850 C865 1.012 . S
H851 C865 0.907 1_554 S
H852 C866 0.913 1_554 S
H853 C866 1.006 . S
H854 C866 0.965 . S
H855 C869 0.929 . S
H856 C870 0.931 . S
H857 C872 0.930 . S
C858 H846 0.930 . S
C858 C859 1.399 . S
C858 C863 1.399 . S
C859 C858 1.399 . S
C859 C860 1.376 1_545 S
C860 H847 0.930 . S
C860 C859 1.376 1_565 S
C860 C861 1.388 . S
C861 H848 0.930 . S
C861 C860 1.388 . S
C861 C862 1.390 . S
C862 C861 1.390 . S
C862 C863 1.394 1_565 S
C862 C868 1.465 1_554 S
C863 C858 1.399 . S
C863 C862 1.394 1_545 S
C863 C864 1.494 1_554 S
C864 C863 1.494 1_556 S
C864 C865 1.501 . S
C864 C866 1.561 . S
C864 C867 1.547 . S
C865 H849 0.966 . S
C865 H850 1.012 . S
C865 H851 0.907 1_556 S
C865 C864 1.501 . S
C866 H852 0.913 1_556 S
C866 H853 1.006 . S
C866 H854 0.965 . S
C866 C864 1.561 . S
C867 C864 1.547 . S
C867 C868 1.396 1_545 S
C867 C872 1.390 . S
C868 C862 1.465 1_556 S
C868 C867 1.396 1_565 S
C868 C869 1.399 . S
C869 H855 0.929 . S
C869 C868 1.399 . S
C869 C870 1.385 . S
C870 H856 0.931 . S
C870 C869 1.385 . S
C870 C871 1.389 1_565 S
C871 C870 1.389 1_545 S
C871 C872 1.387 . S
C872 H857 0.930 . S
C872 C867 1.390 . S
C872 C871 1.387 . S
H873 C885 0.930 . S
H874 C887 0.930 . S
H875 C888 0.930 . S
H876 C892 0.959 . S
H877 C892 0.959 . S
H878 C892 0.961 1_556 S
H879 C893 0.950 1_556 S
H880 C893 0.970 . S
H881 C893 0.960 . S
H882 C896 0.929 . S
H883 C897 0.931 . S
H884 C899 0.930 . S
C885 H873 0.930 . S
C885 C886 1.399 . S
C885 C890 1.399 . S
C886 C885 1.399 . S
C886 C887 1.376 1_455 S
C887 H874 0.930 . S
C887 C886 1.376 1_655 S
C887 C888 1.388 . S
C888 H875 0.930 . S
C888 C887 1.388 . S
C888 C889 1.390 . S
C889 C888 1.390 . S
C889 C890 1.394 1_655 S
C889 C895 1.465 1_556 S
C890 C885 1.399 . S
C890 C889 1.394 1_455 S
C890 C891 1.503 1_556 S
C891 C890 1.503 1_554 S
C891 C892 1.502 . S
C891 C893 1.561 . S
C891 C894 1.539 . S
C892 H876 0.959 . S
C892 H877 0.959 . S
C892 H878 0.961 1_554 S
C892 C891 1.502 . S
C893 H879 0.950 1_554 S
C893 H880 0.970 . S
C893 H881 0.960 . S
C893 C891 1.561 . S
C894 C891 1.539 . S
C894 C895 1.396 1_455 S
C894 C899 1.390 . S
C895 C889 1.465 1_554 S
C895 C894 1.396 1_655 S
C895 C896 1.399 . S
C896 H882 0.929 . S
C896 C895 1.399 . S
C896 C897 1.385 . S
C897 H883 0.931 . S
C897 C896 1.385 . S
C897 C898 1.389 1_655 S
C898 C897 1.389 1_455 S
C898 C899 1.387 . S
C899 H884 0.930 . S
C899 C894 1.390 . S
C899 C898 1.387 . S
H900 C912 0.930 . S
H901 C914 0.930 . S
H902 C915 0.930 . S
H903 C919 0.960 . S
H904 C919 0.966 . S
H905 C919 0.953 1_556 S
H906 C920 0.930 1_556 S
H907 C920 0.989 . S
H908 C920 0.963 . S
H909 C923 0.929 . S
H910 C924 0.931 . S
H911 C926 0.930 . S
C912 H900 0.930 . S
C912 C913 1.399 . S
C912 C917 1.399 . S
C913 C912 1.399 . S
C913 C914 1.376 . S
C914 H901 0.930 . S
C914 C913 1.376 . S
C914 C915 1.388 . S
C915 H902 0.930 . S
C915 C914 1.388 . S
C915 C916 1.390 . S
C916 C915 1.390 . S
C916 C917 1.394 . S
C916 C922 1.465 1_556 S
C917 C912 1.399 . S
C917 C916 1.394 . S
C917 C918 1.514 1_556 S
C918 C917 1.514 1_554 S
C918 C919 1.502 . S
C918 C920 1.561 . S
C918 C921 1.528 . S
C919 H903 0.960 . S
C919 H904 0.966 . S
C919 H905 0.953 1_554 S
C919 C918 1.502 . S
C920 H906 0.930 1_554 S
C920 H907 0.989 . S
C920 H908 0.963 . S
C920 C918 1.561 . S
C921 C918 1.528 . S
C921 C922 1.396 . S
C921 C926 1.390 . S
C922 C916 1.465 1_554 S
C922 C921 1.396 . S
C922 C923 1.399 . S
C923 H909 0.929 . S
C923 C922 1.399 . S
C923 C924 1.385 . S
C924 H910 0.931 . S
C924 C923 1.385 . S
C924 C925 1.389 . S
C925 C924 1.389 . S
C925 C926 1.387 . S
C926 H911 0.930 . S
C926 C921 1.390 . S
C926 C925 1.387 . S
H927 C939 0.930 . S
H928 C941 0.930 . S
H929 C942 0.930 . S
H930 C946 0.959 . S
H931 C946 0.959 . S
H932 C946 0.961 . S
H933 C947 0.960 . S
H934 C947 0.961 . S
H935 C947 0.959 . S
H936 C950 0.929 . S
H937 C951 0.931 . S
H938 C953 0.930 . S
C939 H927 0.930 . S
C939 C940 1.399 . S
C939 C944 1.399 . S
C940 C939 1.399 . S
C940 C941 1.376 . S
C941 H928 0.930 . S
C941 C940 1.376 . S
C941 C942 1.388 . S
C942 H929 0.930 . S
C942 C941 1.388 . S
C942 C943 1.390 . S
C943 C942 1.390 . S
C943 C944 1.394 . S
C943 C949 1.465 . S
C944 C939 1.399 . S
C944 C943 1.394 . S
C944 C945 1.516 . S
C945 C944 1.516 . S
C945 C946 1.502 . S
C945 C947 1.561 . S
C945 C948 1.526 . S
C946 H930 0.959 . S
C946 H931 0.959 . S
C946 H932 0.961 . S
C946 C945 1.502 . S
C947 H933 0.960 . S
C947 H934 0.961 . S
C947 H935 0.959 . S
C947 C945 1.561 . S
C948 C945 1.526 . S
C948 C949 1.396 . S
C948 C953 1.390 . S
C949 C943 1.465 . S
C949 C948 1.396 . S
C949 C950 1.399 . S
C950 H936 0.929 . S
C950 C949 1.399 . S
C950 C951 1.385 . S
C951 H937 0.931 . S
C951 C950 1.385 . S
C951 C952 1.389 . S
C952 C951 1.389 . S
C952 C953 1.387 . S
C953 H938 0.930 . S
C953 C948 1.390 . S
C953 C952 1.387 . S
H954 C966 0.930 . S
H955 C968 0.930 . S
H956 C969 0.930 . S
H957 C973 0.959 . S
H958 C973 0.959 . S
H959 C973 0.961 . S
H960 C974 0.960 . S
H961 C974 0.961 . S
H962 C974 0.959 . S
H963 C977 0.929 . S
H964 C978 0.931 . S
H965 C980 0.930 . S
C966 H954 0.930 . S
C966 C967 1.399 . S
C966 C971 1.399 . S
C967 C966 1.399 . S
C967 C968 1.376 . S
C968 H955 0.930 . S
C968 C967 1.376 . S
C968 C969 1.388 . S
C969 H956 0.930 . S
C969 C968 1.388 . S
C969 C970 1.390 . S
C970 C969 1.390 . S
C970 C971 1.394 . S
C970 C976 1.465 . S
C971 C966 1.399 . S
C971 C970 1.394 . S
C971 C972 1.516 . S
C972 C971 1.516 . S
C972 C973 1.502 . S
C972 C974 1.561 . S
C972 C975 1.526 . S
C973 H957 0.959 . S
C973 H958 0.959 . S
C973 H959 0.961 . S
C973 C972 1.502 . S
C974 H960 0.960 . S
C974 H961 0.961 . S
C974 H962 0.959 . S
C974 C972 1.561 . S
C975 C972 1.526 . S
C975 C976 1.396 . S
C975 C980 1.390 . S
C976 C970 1.465 . S
C976 C975 1.396 . S
C976 C977 1.399 . S
C977 H963 0.929 . S
C977 C976 1.399 . S
C977 C978 1.385 . S
C978 H964 0.931 . S
C978 C977 1.385 . S
C978 C979 1.389 . S
C979 C978 1.389 . S
C979 C980 1.387 . S
C980 H965 0.930 . S
C980 C975 1.390 . S
C980 C979 1.387 . S
H981 C993 0.930 . S
H982 C995 0.930 . S
H983 C996 0.930 . S
H984 C1000 0.959 . S
H985 C1000 0.959 . S
H986 C1000 0.961 . S
H987 C1001 0.960 . S
H988 C1001 0.961 . S
H989 C1001 0.959 . S
H990 C1004 0.929 . S
H991 C1005 0.931 . S
H992 C1007 0.930 . S
C993 H981 0.930 . S
C993 C994 1.399 . S
C993 C998 1.399 . S
C994 C993 1.399 . S
C994 C995 1.376 . S
C995 H982 0.930 . S
C995 C994 1.376 . S
C995 C996 1.388 . S
C996 H983 0.930 . S
C996 C995 1.388 . S
C996 C997 1.390 . S
C997 C996 1.390 . S
C997 C998 1.394 . S
C997 C1003 1.465 . S
C998 C993 1.399 . S
C998 C997 1.394 . S
C998 C999 1.516 . S
C999 C998 1.516 . S
C999 C1000 1.502 . S
C999 C1001 1.561 . S
C999 C1002 1.526 . S
C1000 H984 0.959 . S
C1000 H985 0.959 . S
C1000 H986 0.961 . S
C1000 C999 1.502 . S
C1001 H987 0.960 . S
C1001 H988 0.961 . S
C1001 H989 0.959 . S
C1001 C999 1.561 . S
C1002 C999 1.526 . S
C1002 C1003 1.396 . S
C1002 C1007 1.390 . S
C1003 C997 1.465 . S
C1003 C1002 1.396 . S
C1003 C1004 1.399 . S
C1004 H990 0.929 . S
C1004 C1003 1.399 . S
C1004 C1005 1.385 . S
C1005 H991 0.931 . S
C1005 C1004 1.385 . S
C1005 C1006 1.389 . S
C1006 C1005 1.389 . S
C1006 C1007 1.387 . S
C1007 H992 0.930 . S
C1007 C1002 1.390 . S
C1007 C1006 1.387 . S
H1008 C1020 0.930 . S
H1009 C1022 0.930 . S
H1010 C1023 0.930 . S
H1011 C1027 0.959 . S
H1012 C1027 0.959 . S
H1013 C1027 0.961 . S
H1014 C1028 0.960 . S
H1015 C1028 0.961 . S
H1016 C1028 0.959 . S
H1017 C1031 0.929 . S
H1018 C1032 0.931 . S
H1019 C1034 0.930 . S
C1020 H1008 0.930 . S
C1020 C1021 1.399 . S
C1020 C1025 1.399 . S
C1021 C1020 1.399 . S
C1021 C1022 1.376 . S
C1022 H1009 0.930 . S
C1022 C1021 1.376 . S
C1022 C1023 1.388 . S
C1023 H1010 0.930 . S
C1023 C1022 1.388 . S
C1023 C1024 1.390 . S
C1024 C1023 1.390 . S
C1024 C1025 1.394 . S
C1024 C1030 1.465 . S
C1025 C1020 1.399 . S
C1025 C1024 1.394 . S
C1025 C1026 1.516 . S
C1026 C1025 1.516 . S
C1026 C1027 1.502 . S
C1026 C1028 1.561 . S
C1026 C1029 1.526 . S
C1027 H1011 0.959 . S
C1027 H1012 0.959 . S
C1027 H1013 0.961 . S
C1027 C1026 1.502 . S
C1028 H1014 0.960 . S
C1028 H1015 0.961 . S
C1028 H1016 0.959 . S
C1028 C1026 1.561 . S
C1029 C1026 1.526 . S
C1029 C1030 1.396 . S
C1029 C1034 1.390 . S
C1030 C1024 1.465 . S
C1030 C1029 1.396 . S
C1030 C1031 1.399 . S
C1031 H1017 0.929 . S
C1031 C1030 1.399 . S
C1031 C1032 1.385 . S
C1032 H1018 0.931 . S
C1032 C1031 1.385 . S
C1032 C1033 1.389 . S
C1033 C1032 1.389 . S
C1033 C1034 1.387 . S
C1034 H1019 0.930 . S
C1034 C1029 1.390 . S
C1034 C1033 1.387 . S
H1035 C1047 0.930 . S
H1036 C1049 0.930 . S
H1037 C1050 0.930 . S
H1038 C1054 0.959 . S
H1039 C1054 0.959 . S
H1040 C1054 0.961 . S
H1041 C1055 0.960 . S
H1042 C1055 0.961 . S
H1043 C1055 0.959 . S
H1044 C1058 0.929 . S
H1045 C1059 0.931 . S
H1046 C1061 0.930 . S
C1047 H1035 0.930 . S
C1047 C1048 1.399 . S
C1047 C1052 1.399 . S
C1048 C1047 1.399 . S
C1048 C1049 1.376 . S
C1049 H1036 0.930 . S
C1049 C1048 1.376 . S
C1049 C1050 1.388 . S
C1050 H1037 0.930 . S
C1050 C1049 1.388 . S
C1050 C1051 1.390 . S
C1051 C1050 1.390 . S
C1051 C1052 1.394 . S
C1051 C1057 1.465 . S
C1052 C1047 1.399 . S
C1052 C1051 1.394 . S
C1052 C1053 1.516 . S
C1053 C1052 1.516 . S
C1053 C1054 1.502 . S
C1053 C1055 1.561 . S
C1053 C1056 1.526 . S
C1054 H1038 0.959 . S
C1054 H1039 0.959 . S
C1054 H1040 0.961 . S
C1054 C1053 1.502 . S
C1055 H1041 0.960 . S
C1055 H1042 0.961 . S
C1055 H1043 0.959 . S
C1055 C1053 1.561 . S
C1056 C1053 1.526 . S
C1056 C1057 1.396 . S
C1056 C1061 1.390 . S
C1057 C1051 1.465 . S
C1057 C1056 1.396 . S
C1057 C1058 1.399 . S
C1058 H1044 0.929 . S
C1058 C1057 1.399 . S
C1058 C1059 1.385 . S
C1059 H1045 0.931 . S
C1059 C1058 1.385 . S
C1059 C1060 1.389 . S
C1060 C1059 1.389 . S
C1060 C1061 1.387 . S
C1061 H1046 0.930 . S
C1061 C1056 1.390 . S
C1061 C1060 1.387 . S
H1062 C1074 0.930 . S
H1063 C1076 0.930 . S
H1064 C1077 0.930 . S
H1065 C1081 0.959 . S
H1066 C1081 0.959 . S
H1067 C1081 0.961 . S
H1068 C1082 0.960 . S
H1069 C1082 0.961 . S
H1070 C1082 0.959 . S
H1071 C1085 0.929 . S
H1072 C1086 0.931 . S
H1073 C1088 0.930 . S
C1074 H1062 0.930 . S
C1074 C1075 1.399 . S
C1074 C1079 1.399 . S
C1075 C1074 1.399 . S
C1075 C1076 1.376 . S
C1076 H1063 0.930 . S
C1076 C1075 1.376 . S
C1076 C1077 1.388 . S
C1077 H1064 0.930 . S
C1077 C1076 1.388 . S
C1077 C1078 1.390 . S
C1078 C1077 1.390 . S
C1078 C1079 1.394 . S
C1078 C1084 1.465 . S
C1079 C1074 1.399 . S
C1079 C1078 1.394 . S
C1079 C1080 1.516 . S
C1080 C1079 1.516 . S
C1080 C1081 1.502 . S
C1080 C1082 1.561 . S
C1080 C1083 1.526 . S
C1081 H1065 0.959 . S
C1081 H1066 0.959 . S
C1081 H1067 0.961 . S
C1081 C1080 1.502 . S
C1082 H1068 0.960 . S
C1082 H1069 0.961 . S
C1082 H1070 0.959 . S
C1082 C1080 1.561 . S
C1083 C1080 1.526 . S
C1083 C1084 1.396 . S
C1083 C1088 1.390 . S
C1084 C1078 1.465 . S
C1084 C1083 1.396 . S
C1084 C1085 1.399 . S
C1085 H1071 0.929 . S
C1085 C1084 1.399 . S
C1085 C1086 1.385 . S
C1086 H1072 0.931 . S
C1086 C1085 1.385 . S
C1086 C1087 1.389 . S
C1087 C1086 1.389 . S
C1087 C1088 1.387 . S
C1088 H1073 0.930 . S
C1088 C1083 1.390 . S
C1088 C1087 1.387 . S
H1089 C1101 0.930 . S
H1090 C1103 0.930 . S
H1091 C1104 0.930 . S
H1092 C1108 0.959 . S
H1093 C1108 0.959 . S
H1094 C1108 0.961 . S
H1095 C1109 0.960 . S
H1096 C1109 0.961 . S
H1097 C1109 0.959 . S
H1098 C1112 0.929 . S
H1099 C1113 0.931 . S
H1100 C1115 0.930 . S
C1101 H1089 0.930 . S
C1101 C1102 1.399 . S
C1101 C1106 1.399 . S
C1102 C1101 1.399 . S
C1102 C1103 1.376 . S
C1103 H1090 0.930 . S
C1103 C1102 1.376 . S
C1103 C1104 1.388 . S
C1104 H1091 0.930 . S
C1104 C1103 1.388 . S
C1104 C1105 1.390 . S
C1105 C1104 1.390 . S
C1105 C1106 1.394 . S
C1105 C1111 1.465 . S
C1106 C1101 1.399 . S
C1106 C1105 1.394 . S
C1106 C1107 1.516 . S
C1107 C1106 1.516 . S
C1107 C1108 1.502 . S
C1107 C1109 1.561 . S
C1107 C1110 1.526 . S
C1108 H1092 0.959 . S
C1108 H1093 0.959 . S
C1108 H1094 0.961 . S
C1108 C1107 1.502 . S
C1109 H1095 0.960 . S
C1109 H1096 0.961 . S
C1109 H1097 0.959 . S
C1109 C1107 1.561 . S
C1110 C1107 1.526 . S
C1110 C1111 1.396 . S
C1110 C1115 1.390 . S
C1111 C1105 1.465 . S
C1111 C1110 1.396 . S
C1111 C1112 1.399 1_565 S
C1112 H1098 0.929 . S
C1112 C1111 1.399 1_545 S
C1112 C1113 1.385 . S
C1113 H1099 0.931 . S
C1113 C1112 1.385 . S
C1113 C1114 1.389 1_545 S
C1114 C1113 1.389 1_565 S
C1114 C1115 1.387 . S
C1115 H1100 0.930 . S
C1115 C1110 1.390 . S
C1115 C1114 1.387 . S
H1116 C1128 0.930 . S
H1117 C1130 0.930 . S
H1118 C1131 0.930 . S
H1119 C1135 0.959 . S
H1120 C1135 0.959 . S
H1121 C1135 0.961 1_655 S
H1122 C1136 0.960 . S
H1123 C1136 0.961 . S
H1124 C1136 0.959 . S
H1125 C1139 0.929 . S
H1126 C1140 0.931 . S
H1127 C1142 0.930 . S
C1128 H1116 0.930 . S
C1128 C1129 1.399 . S
C1128 C1133 1.399 . S
C1129 C1128 1.399 . S
C1129 C1130 1.376 . S
C1130 H1117 0.930 . S
C1130 C1129 1.376 . S
C1130 C1131 1.388 . S
C1131 H1118 0.930 . S
C1131 C1130 1.388 . S
C1131 C1132 1.390 . S
C1132 C1131 1.390 . S
C1132 C1133 1.394 . S
C1132 C1138 1.465 . S
C1133 C1128 1.399 . S
C1133 C1132 1.394 . S
C1133 C1134 1.516 . S
C1134 C1133 1.516 . S
C1134 C1135 1.502 . S
C1134 C1136 1.561 . S
C1134 C1137 1.526 . S
C1135 H1119 0.959 . S
C1135 H1120 0.959 . S
C1135 H1121 0.961 1_455 S
C1135 C1134 1.502 . S
C1136 H1122 0.960 . S
C1136 H1123 0.961 . S
C1136 H1124 0.959 . S
C1136 C1134 1.561 . S
C1137 C1134 1.526 . S
C1137 C1138 1.396 . S
C1137 C1142 1.390 . S
C1138 C1132 1.465 . S
C1138 C1137 1.396 . S
C1138 C1139 1.399 . S
C1139 H1125 0.929 . S
C1139 C1138 1.399 . S
C1139 C1140 1.385 . S
C1140 H1126 0.931 . S
C1140 C1139 1.385 . S
C1140 C1141 1.389 . S
C1141 C1140 1.389 . S
C1141 C1142 1.387 . S
C1142 H1127 0.930 . S
C1142 C1137 1.390 . S
C1142 C1141 1.387 . S
H1143 C1155 0.930 . S
H1144 C1157 0.930 . S
H1145 C1158 0.930 . S
H1146 C1162 0.959 . S
H1147 C1162 0.959 . S
H1148 C1162 0.961 . S
H1149 C1163 0.960 . S
H1150 C1163 0.961 . S
H1151 C1163 0.959 . S
H1152 C1166 0.929 . S
H1153 C1167 0.931 . S
H1154 C1169 0.930 . S
C1155 H1143 0.930 . S
C1155 C1156 1.399 . S
C1155 C1160 1.399 . S
C1156 C1155 1.399 . S
C1156 C1157 1.376 . S
C1157 H1144 0.930 . S
C1157 C1156 1.376 . S
C1157 C1158 1.388 . S
C1158 H1145 0.930 . S
C1158 C1157 1.388 . S
C1158 C1159 1.390 . S
C1159 C1158 1.390 . S
C1159 C1160 1.394 . S
C1159 C1165 1.465 . S
C1160 C1155 1.399 . S
C1160 C1159 1.394 . S
C1160 C1161 1.516 . S
C1161 C1160 1.516 . S
C1161 C1162 1.502 . S
C1161 C1163 1.561 . S
C1161 C1164 1.526 . S
C1162 H1146 0.959 . S
C1162 H1147 0.959 . S
C1162 H1148 0.961 . S
C1162 C1161 1.502 . S
C1163 H1149 0.960 . S
C1163 H1150 0.961 . S
C1163 H1151 0.959 . S
C1163 C1161 1.561 . S
C1164 C1161 1.526 . S
C1164 C1165 1.396 . S
C1164 C1169 1.390 . S
C1165 C1159 1.465 . S
C1165 C1164 1.396 . S
C1165 C1166 1.399 . S
C1166 H1152 0.929 . S
C1166 C1165 1.399 . S
C1166 C1167 1.385 . S
C1167 H1153 0.931 . S
C1167 C1166 1.385 . S
C1167 C1168 1.389 . S
C1168 C1167 1.389 . S
C1168 C1169 1.387 . S
C1169 H1154 0.930 . S
C1169 C1164 1.390 . S
C1169 C1168 1.387 . S
H1170 C1182 0.930 . S
H1171 C1184 0.930 . S
H1172 C1185 0.930 . S
H1173 C1189 0.959 1_455 S
H1174 C1189 0.959 . S
H1175 C1189 0.961 . S
H1176 C1190 0.960 . S
H1177 C1190 0.961 . S
H1178 C1190 0.959 . S
H1179 C1193 0.929 . S
H1180 C1194 0.931 . S
H1181 C1196 0.930 . S
C1182 H1170 0.930 . S
C1182 C1183 1.399 . S
C1182 C1187 1.399 . S
C1183 C1182 1.399 . S
C1183 C1184 1.376 . S
C1184 H1171 0.930 . S
C1184 C1183 1.376 . S
C1184 C1185 1.388 . S
C1185 H1172 0.930 . S
C1185 C1184 1.388 . S
C1185 C1186 1.390 . S
C1186 C1185 1.390 . S
C1186 C1187 1.394 . S
C1186 C1192 1.465 . S
C1187 C1182 1.399 . S
C1187 C1186 1.394 . S
C1187 C1188 1.516 . S
C1188 C1187 1.516 . S
C1188 C1189 1.502 . S
C1188 C1190 1.561 . S
C1188 C1191 1.526 . S
C1189 H1173 0.959 1_655 S
C1189 H1174 0.959 . S
C1189 H1175 0.961 . S
C1189 C1188 1.502 . S
C1190 H1176 0.960 . S
C1190 H1177 0.961 . S
C1190 H1178 0.959 . S
C1190 C1188 1.561 . S
C1191 C1188 1.526 . S
C1191 C1192 1.396 . S
C1191 C1196 1.390 . S
C1192 C1186 1.465 . S
C1192 C1191 1.396 . S
C1192 C1193 1.399 . S
C1193 H1179 0.929 . S
C1193 C1192 1.399 . S
C1193 C1194 1.385 . S
C1194 H1180 0.931 . S
C1194 C1193 1.385 . S
C1194 C1195 1.389 . S
C1195 C1194 1.389 . S
C1195 C1196 1.387 . S
C1196 H1181 0.930 . S
C1196 C1191 1.390 . S
C1196 C1195 1.387 . S
H1197 C1209 0.930 . S
H1198 C1211 0.930 . S
H1199 C1212 0.930 . S
H1200 C1216 0.959 . S
H1201 C1216 0.959 . S
H1202 C1216 0.961 . S
H1203 C1217 0.960 . S
H1204 C1217 0.961 . S
H1205 C1217 0.959 . S
H1206 C1220 0.929 . S
H1207 C1221 0.931 . S
H1208 C1223 0.930 . S
C1209 H1197 0.930 . S
C1209 C1210 1.399 . S
C1209 C1214 1.399 . S
C1210 C1209 1.399 . S
C1210 C1211 1.376 . S
C1211 H1198 0.930 . S
C1211 C1210 1.376 . S
C1211 C1212 1.388 . S
C1212 H1199 0.930 . S
C1212 C1211 1.388 . S
C1212 C1213 1.390 . S
C1213 C1212 1.390 . S
C1213 C1214 1.394 . S
C1213 C1219 1.465 . S
C1214 C1209 1.399 . S
C1214 C1213 1.394 . S
C1214 C1215 1.516 . S
C1215 C1214 1.516 . S
C1215 C1216 1.502 . S
C1215 C1217 1.561 . S
C1215 C1218 1.526 . S
C1216 H1200 0.959 . S
C1216 H1201 0.959 . S
C1216 H1202 0.961 . S
C1216 C1215 1.502 . S
C1217 H1203 0.960 . S
C1217 H1204 0.961 . S
C1217 H1205 0.959 . S
C1217 C1215 1.561 . S
C1218 C1215 1.526 . S
C1218 C1219 1.396 . S
C1218 C1223 1.390 . S
C1219 C1213 1.465 . S
C1219 C1218 1.396 . S
C1219 C1220 1.399 . S
C1220 H1206 0.929 . S
C1220 C1219 1.399 . S
C1220 C1221 1.385 . S
C1221 H1207 0.931 . S
C1221 C1220 1.385 . S
C1221 C1222 1.389 . S
C1222 C1221 1.389 . S
C1222 C1223 1.387 . S
C1223 H1208 0.930 . S
C1223 C1218 1.390 . S
C1223 C1222 1.387 . S
H1224 C1236 0.930 . S
H1225 C1238 0.930 . S
H1226 C1239 0.930 . S
H1227 C1243 0.959 . S
H1228 C1243 0.959 1_565 S
H1229 C1243 0.961 . S
H1230 C1244 0.960 . S
H1231 C1244 0.961 1_565 S
H1232 C1244 0.959 . S
H1233 C1247 0.929 . S
H1234 C1248 0.931 . S
H1235 C1250 0.930 . S
C1236 H1224 0.930 . S
C1236 C1237 1.399 . S
C1236 C1241 1.399 . S
C1237 C1236 1.399 . S
C1237 C1238 1.376 . S
C1238 H1225 0.930 . S
C1238 C1237 1.376 . S
C1238 C1239 1.388 . S
C1239 H1226 0.930 . S
C1239 C1238 1.388 . S
C1239 C1240 1.390 . S
C1240 C1239 1.390 . S
C1240 C1241 1.394 . S
C1240 C1246 1.465 . S
C1241 C1236 1.399 . S
C1241 C1240 1.394 . S
C1241 C1242 1.516 . S
C1242 C1241 1.516 . S
C1242 C1243 1.502 . S
C1242 C1244 1.561 . S
C1242 C1245 1.526 . S
C1243 H1227 0.959 . S
C1243 H1228 0.959 1_545 S
C1243 H1229 0.961 . S
C1243 C1242 1.502 . S
C1244 H1230 0.960 . S
C1244 H1231 0.961 1_545 S
C1244 H1232 0.959 . S
C1244 C1242 1.561 . S
C1245 C1242 1.526 . S
C1245 C1246 1.396 . S
C1245 C1250 1.390 . S
C1246 C1240 1.465 . S
C1246 C1245 1.396 . S
C1246 C1247 1.399 . S
C1247 H1233 0.929 . S
C1247 C1246 1.399 . S
C1247 C1248 1.385 . S
C1248 H1234 0.931 . S
C1248 C1247 1.385 . S
C1248 C1249 1.389 . S
C1249 C1248 1.389 . S
C1249 C1250 1.387 . S
C1250 H1235 0.930 . S
C1250 C1245 1.390 . S
C1250 C1249 1.387 . S
H1251 C1263 0.930 . S
H1252 C1265 0.930 . S
H1253 C1266 0.930 . S
H1254 C1270 0.959 1_655 S
H1255 C1270 0.959 . S
H1256 C1270 0.961 1_655 S
H1257 C1271 0.960 . S
H1258 C1271 0.961 . S
H1259 C1271 0.959 . S
H1260 C1274 0.929 . S
H1261 C1275 0.931 . S
H1262 C1277 0.930 . S
C1263 H1251 0.930 . S
C1263 C1264 1.399 . S
C1263 C1268 1.399 . S
C1264 C1263 1.399 . S
C1264 C1265 1.376 . S
C1265 H1252 0.930 . S
C1265 C1264 1.376 . S
C1265 C1266 1.388 . S
C1266 H1253 0.930 . S
C1266 C1265 1.388 . S
C1266 C1267 1.390 . S
C1267 C1266 1.390 . S
C1267 C1268 1.394 . S
C1267 C1273 1.465 1_655 S
C1268 C1263 1.399 . S
C1268 C1267 1.394 . S
C1268 C1269 1.516 1_655 S
C1269 C1268 1.516 1_455 S
C1269 C1270 1.502 . S
C1269 C1271 1.561 . S
C1269 C1272 1.526 . S
C1270 H1254 0.959 1_455 S
C1270 H1255 0.959 . S
C1270 H1256 0.961 1_455 S
C1270 C1269 1.502 . S
C1271 H1257 0.960 . S
C1271 H1258 0.961 . S
C1271 H1259 0.959 . S
C1271 C1269 1.561 . S
C1272 C1269 1.526 . S
C1272 C1273 1.396 . S
C1272 C1277 1.390 . S
C1273 C1267 1.465 1_455 S
C1273 C1272 1.396 . S
C1273 C1274 1.399 . S
C1274 H1260 0.929 . S
C1274 C1273 1.399 . S
C1274 C1275 1.385 . S
C1275 H1261 0.931 . S
C1275 C1274 1.385 . S
C1275 C1276 1.389 . S
C1276 C1275 1.389 . S
C1276 C1277 1.387 . S
C1277 H1262 0.930 . S
C1277 C1272 1.390 . S
C1277 C1276 1.387 . S
H1278 C1290 0.930 . S
H1279 C1292 0.930 . S
H1280 C1293 0.930 . S
H1281 C1297 0.959 . S
H1282 C1297 0.959 . S
H1283 C1297 0.961 . S
H1284 C1298 0.960 . S
H1285 C1298 0.961 . S
H1286 C1298 0.959 . S
H1287 C1301 0.929 . S
H1288 C1302 0.931 . S
H1289 C1304 0.930 . S
C1290 H1278 0.930 . S
C1290 C1291 1.399 . S
C1290 C1295 1.399 . S
C1291 C1290 1.399 . S
C1291 C1292 1.376 . S
C1292 H1279 0.930 . S
C1292 C1291 1.376 . S
C1292 C1293 1.388 . S
C1293 H1280 0.930 . S
C1293 C1292 1.388 . S
C1293 C1294 1.390 . S
C1294 C1293 1.390 . S
C1294 C1295 1.394 . S
C1294 C1300 1.465 . S
C1295 C1290 1.399 . S
C1295 C1294 1.394 . S
C1295 C1296 1.516 . S
C1296 C1295 1.516 . S
C1296 C1297 1.502 . S
C1296 C1298 1.561 . S
C1296 C1299 1.526 . S
C1297 H1281 0.959 . S
C1297 H1282 0.959 . S
C1297 H1283 0.961 . S
C1297 C1296 1.502 . S
C1298 H1284 0.960 . S
C1298 H1285 0.961 . S
C1298 H1286 0.959 . S
C1298 C1296 1.561 . S
C1299 C1296 1.526 . S
C1299 C1300 1.396 . S
C1299 C1304 1.390 . S
C1300 C1294 1.465 . S
C1300 C1299 1.396 . S
C1300 C1301 1.399 . S
C1301 H1287 0.929 . S
C1301 C1300 1.399 . S
C1301 C1302 1.385 . S
C1302 H1288 0.931 . S
C1302 C1301 1.385 . S
C1302 C1303 1.389 . S
C1303 C1302 1.389 . S
C1303 C1304 1.387 . S
C1304 H1289 0.930 . S
C1304 C1299 1.390 . S
C1304 C1303 1.387 . S
H1305 C1317 0.930 . S
H1306 C1319 0.930 . S
H1307 C1320 0.930 . S
H1308 C1324 0.959 . S
H1309 C1324 0.959 . S
H1310 C1324 0.961 . S
H1311 C1325 0.960 . S
H1312 C1325 0.961 . S
H1313 C1325 0.959 . S
H1314 C1328 0.929 . S
H1315 C1329 0.931 . S
H1316 C1331 0.930 . S
C1317 H1305 0.930 . S
C1317 C1318 1.399 . S
C1317 C1322 1.398 . S
C1318 C1317 1.399 . S
C1318 C1319 1.376 . S
C1319 H1306 0.930 . S
C1319 C1318 1.376 . S
C1319 C1320 1.388 . S
C1320 H1307 0.930 . S
C1320 C1319 1.388 . S
C1320 C1321 1.390 . S
C1321 C1320 1.390 . S
C1321 C1322 1.394 . S
C1321 C1327 1.465 1_565 S
C1322 C1317 1.398 . S
C1322 C1321 1.394 . S
C1322 C1323 1.518 1_565 S
C1323 C1322 1.518 1_545 S
C1323 C1324 1.502 . S
C1323 C1325 1.561 . S
C1323 C1326 1.526 . S
C1324 H1308 0.959 . S
C1324 H1309 0.959 . S
C1324 H1310 0.961 . S
C1324 C1323 1.502 . S
C1325 H1311 0.960 . S
C1325 H1312 0.961 . S
C1325 H1313 0.959 . S
C1325 C1323 1.561 . S
C1326 C1323 1.526 . S
C1326 C1327 1.396 . S
C1326 C1331 1.390 . S
C1327 C1321 1.465 1_545 S
C1327 C1326 1.396 . S
C1327 C1328 1.399 . S
C1328 H1314 0.929 . S
C1328 C1327 1.399 . S
C1328 C1329 1.385 . S
C1329 H1315 0.931 . S
C1329 C1328 1.385 . S
C1329 C1330 1.389 . S
C1330 C1329 1.389 . S
C1330 C1331 1.387 . S
C1331 H1316 0.930 . S
C1331 C1326 1.390 . S
C1331 C1330 1.387 . S
H1332 C1344 0.930 . S
H1333 C1346 0.930 . S
H1334 C1347 0.930 . S
H1335 C1351 0.959 . S
H1336 C1351 0.959 . S
H1337 C1351 0.961 . S
H1338 C1352 0.960 . S
H1339 C1352 0.961 . S
H1340 C1352 0.959 . S
H1341 C1355 0.929 . S
H1342 C1356 0.931 . S
H1343 C1358 0.930 . S
C1344 H1332 0.930 . S
C1344 C1345 1.399 . S
C1344 C1349 1.399 . S
C1345 C1344 1.399 . S
C1345 C1346 1.376 . S
C1346 H1333 0.930 . S
C1346 C1345 1.376 . S
C1346 C1347 1.388 . S
C1347 H1334 0.930 . S
C1347 C1346 1.388 . S
C1347 C1348 1.390 . S
C1348 C1347 1.390 . S
C1348 C1349 1.394 . S
C1348 C1354 1.465 . S
C1349 C1344 1.399 . S
C1349 C1348 1.394 . S
C1349 C1350 1.516 . S
C1350 C1349 1.516 . S
C1350 C1351 1.502 . S
C1350 C1352 1.561 . S
C1350 C1353 1.526 . S
C1351 H1335 0.959 . S
C1351 H1336 0.959 . S
C1351 H1337 0.961 . S
C1351 C1350 1.502 . S
C1352 H1338 0.960 . S
C1352 H1339 0.961 . S
C1352 H1340 0.959 . S
C1352 C1350 1.561 . S
C1353 C1350 1.526 . S
C1353 C1354 1.396 . S
C1353 C1358 1.390 . S
C1354 C1348 1.465 . S
C1354 C1353 1.396 . S
C1354 C1355 1.399 . S
C1355 H1341 0.929 . S
C1355 C1354 1.399 . S
C1355 C1356 1.385 . S
C1356 H1342 0.931 . S
C1356 C1355 1.385 . S
C1356 C1357 1.389 . S
C1357 C1356 1.389 . S
C1357 C1358 1.387 . S
C1358 H1343 0.930 . S
C1358 C1353 1.390 . S
C1358 C1357 1.387 . S
H1359 C1371 0.930 . S
H1360 C1373 0.930 . S
H1361 C1374 0.930 . S
H1362 C1378 0.959 . S
H1363 C1378 0.959 . S
H1364 C1378 0.961 . S
H1365 C1379 0.960 . S
H1366 C1379 0.961 . S
H1367 C1379 0.959 . S
H1368 C1382 0.929 . S
H1369 C1383 0.931 . S
H1370 C1385 0.930 . S
C1371 H1359 0.930 . S
C1371 C1372 1.399 . S
C1371 C1376 1.399 . S
C1372 C1371 1.399 . S
C1372 C1373 1.376 . S
C1373 H1360 0.930 . S
C1373 C1372 1.376 . S
C1373 C1374 1.388 . S
C1374 H1361 0.930 . S
C1374 C1373 1.388 . S
C1374 C1375 1.390 . S
C1375 C1374 1.390 . S
C1375 C1376 1.394 . S
C1375 C1381 1.465 . S
C1376 C1371 1.399 . S
C1376 C1375 1.394 . S
C1376 C1377 1.516 . S
C1377 C1376 1.516 . S
C1377 C1378 1.502 . S
C1377 C1379 1.561 . S
C1377 C1380 1.526 . S
C1378 H1362 0.959 . S
C1378 H1363 0.959 . S
C1378 H1364 0.961 . S
C1378 C1377 1.502 . S
C1379 H1365 0.960 . S
C1379 H1366 0.961 . S
C1379 H1367 0.959 . S
C1379 C1377 1.561 . S
C1380 C1377 1.526 . S
C1380 C1381 1.396 . S
C1380 C1385 1.390 . S
C1381 C1375 1.465 . S
C1381 C1380 1.396 . S
C1381 C1382 1.399 . S
C1382 H1368 0.929 . S
C1382 C1381 1.399 . S
C1382 C1383 1.385 . S
C1383 H1369 0.931 . S
C1383 C1382 1.385 . S
C1383 C1384 1.389 . S
C1384 C1383 1.389 . S
C1384 C1385 1.387 . S
C1385 H1370 0.930 . S
C1385 C1380 1.390 . S
C1385 C1384 1.387 . S
H1386 C1398 0.930 . S
H1387 C1400 0.930 . S
H1388 C1401 0.930 . S
H1389 C1405 0.959 . S
H1390 C1405 0.959 . S
H1391 C1405 0.961 . S
H1392 C1406 0.960 . S
H1393 C1406 0.961 . S
H1394 C1406 0.959 . S
H1395 C1409 0.929 . S
H1396 C1410 0.931 . S
H1397 C1412 0.930 . S
C1398 H1386 0.930 . S
C1398 C1399 1.399 . S
C1398 C1403 1.399 . S
C1399 C1398 1.399 . S
C1399 C1400 1.376 . S
C1400 H1387 0.930 . S
C1400 C1399 1.376 . S
C1400 C1401 1.388 . S
C1401 H1388 0.930 . S
C1401 C1400 1.388 . S
C1401 C1402 1.390 . S
C1402 C1401 1.390 . S
C1402 C1403 1.394 . S
C1402 C1408 1.465 . S
C1403 C1398 1.399 . S
C1403 C1402 1.394 . S
C1403 C1404 1.516 . S
C1404 C1403 1.516 . S
C1404 C1405 1.502 . S
C1404 C1406 1.561 . S
C1404 C1407 1.526 . S
C1405 H1389 0.959 . S
C1405 H1390 0.959 . S
C1405 H1391 0.961 . S
C1405 C1404 1.502 . S
C1406 H1392 0.960 . S
C1406 H1393 0.961 . S
C1406 H1394 0.959 . S
C1406 C1404 1.561 . S
C1407 C1404 1.526 . S
C1407 C1408 1.396 . S
C1407 C1412 1.390 . S
C1408 C1402 1.465 . S
C1408 C1407 1.396 . S
C1408 C1409 1.399 . S
C1409 H1395 0.929 . S
C1409 C1408 1.399 . S
C1409 C1410 1.385 . S
C1410 H1396 0.931 . S
C1410 C1409 1.385 . S
C1410 C1411 1.389 . S
C1411 C1410 1.389 . S
C1411 C1412 1.387 . S
C1412 H1397 0.930 . S
C1412 C1407 1.390 . S
C1412 C1411 1.387 . S
H1413 C1425 0.930 . S
H1414 C1427 0.930 . S
H1415 C1428 0.930 . S
H1416 C1432 0.959 . S
H1417 C1432 0.959 . S
H1418 C1432 0.961 . S
H1419 C1433 0.960 . S
H1420 C1433 0.961 . S
H1421 C1433 0.959 . S
H1422 C1436 0.929 . S
H1423 C1437 0.931 . S
H1424 C1439 0.930 . S
C1425 H1413 0.930 . S
C1425 C1426 1.399 . S
C1425 C1430 1.399 . S
C1426 C1425 1.399 . S
C1426 C1427 1.376 . S
C1427 H1414 0.930 . S
C1427 C1426 1.376 . S
C1427 C1428 1.388 . S
C1428 H1415 0.930 . S
C1428 C1427 1.388 . S
C1428 C1429 1.390 . S
C1429 C1428 1.390 . S
C1429 C1430 1.394 . S
C1429 C1435 1.465 . S
C1430 C1425 1.399 . S
C1430 C1429 1.394 . S
C1430 C1431 1.516 . S
C1431 C1430 1.516 . S
C1431 C1432 1.502 . S
C1431 C1433 1.561 . S
C1431 C1434 1.526 . S
C1432 H1416 0.959 . S
C1432 H1417 0.959 . S
C1432 H1418 0.961 . S
C1432 C1431 1.502 . S
C1433 H1419 0.960 . S
C1433 H1420 0.961 . S
C1433 H1421 0.959 . S
C1433 C1431 1.561 . S
C1434 C1431 1.526 . S
C1434 C1435 1.396 . S
C1434 C1439 1.390 . S
C1435 C1429 1.465 . S
C1435 C1434 1.396 . S
C1435 C1436 1.399 . S
C1436 H1422 0.929 . S
C1436 C1435 1.399 . S
C1436 C1437 1.385 . S
C1437 H1423 0.931 . S
C1437 C1436 1.385 . S
C1437 C1438 1.389 . S
C1438 C1437 1.389 . S
C1438 C1439 1.387 . S
C1439 H1424 0.930 . S
C1439 C1434 1.390 . S
C1439 C1438 1.387 . S
H1440 C1452 0.930 . S
H1441 C1454 0.930 . S
H1442 C1455 0.930 . S
H1443 C1459 0.959 . S
H1444 C1459 0.959 . S
H1445 C1459 0.961 . S
H1446 C1460 0.960 . S
H1447 C1460 0.961 . S
H1448 C1460 0.959 . S
H1449 C1463 0.929 . S
H1450 C1464 0.931 . S
H1451 C1466 0.930 . S
C1452 H1440 0.930 . S
C1452 C1453 1.399 . S
C1452 C1457 1.399 . S
C1453 C1452 1.399 . S
C1453 C1454 1.376 . S
C1454 H1441 0.930 . S
C1454 C1453 1.376 . S
C1454 C1455 1.388 . S
C1455 H1442 0.930 . S
C1455 C1454 1.388 . S
C1455 C1456 1.390 . S
C1456 C1455 1.390 . S
C1456 C1457 1.394 . S
C1456 C1462 1.465 . S
C1457 C1452 1.399 . S
C1457 C1456 1.394 . S
C1457 C1458 1.516 . S
C1458 C1457 1.516 . S
C1458 C1459 1.502 . S
C1458 C1460 1.561 . S
C1458 C1461 1.526 . S
C1459 H1443 0.959 . S
C1459 H1444 0.959 . S
C1459 H1445 0.961 . S
C1459 C1458 1.502 . S
C1460 H1446 0.960 . S
C1460 H1447 0.961 . S
C1460 H1448 0.959 . S
C1460 C1458 1.561 . S
C1461 C1458 1.526 . S
C1461 C1462 1.396 . S
C1461 C1466 1.390 . S
C1462 C1456 1.465 . S
C1462 C1461 1.396 . S
C1462 C1463 1.399 . S
C1463 H1449 0.929 . S
C1463 C1462 1.399 . S
C1463 C1464 1.385 . S
C1464 H1450 0.931 . S
C1464 C1463 1.385 . S
C1464 C1465 1.389 . S
C1465 C1464 1.389 . S
C1465 C1466 1.387 . S
C1466 H1451 0.930 . S
C1466 C1461 1.390 . S
C1466 C1465 1.387 . S
H1467 C1479 0.930 . S
H1468 C1481 0.930 . S
H1469 C1482 0.930 . S
H1470 C1486 0.959 . S
H1471 C1486 0.959 . S
H1472 C1486 0.961 . S
H1473 C1487 0.960 . S
H1474 C1487 0.961 . S
H1475 C1487 0.959 . S
H1476 C1490 0.929 . S
H1477 C1491 0.931 . S
H1478 C1493 0.930 . S
C1479 H1467 0.930 . S
C1479 C1480 1.399 . S
C1479 C1484 1.399 . S
C1480 C1479 1.399 . S
C1480 C1481 1.376 . S
C1481 H1468 0.930 . S
C1481 C1480 1.376 . S
C1481 C1482 1.388 . S
C1482 H1469 0.930 . S
C1482 C1481 1.388 . S
C1482 C1483 1.390 . S
C1483 C1482 1.390 . S
C1483 C1484 1.394 . S
C1483 C1489 1.465 . S
C1484 C1479 1.399 . S
C1484 C1483 1.394 . S
C1484 C1485 1.516 . S
C1485 C1484 1.516 . S
C1485 C1486 1.502 . S
C1485 C1487 1.561 . S
C1485 C1488 1.526 . S
C1486 H1470 0.959 . S
C1486 H1471 0.959 . S
C1486 H1472 0.961 . S
C1486 C1485 1.502 . S
C1487 H1473 0.960 . S
C1487 H1474 0.961 . S
C1487 H1475 0.959 . S
C1487 C1485 1.561 . S
C1488 C1485 1.526 . S
C1488 C1489 1.396 . S
C1488 C1493 1.390 . S
C1489 C1483 1.465 . S
C1489 C1488 1.396 . S
C1489 C1490 1.399 . S
C1490 H1476 0.929 . S
C1490 C1489 1.399 . S
C1490 C1491 1.385 . S
C1491 H1477 0.931 . S
C1491 C1490 1.385 . S
C1491 C1492 1.389 . S
C1492 C1491 1.389 . S
C1492 C1493 1.387 . S
C1493 H1478 0.930 . S
C1493 C1488 1.390 . S
C1493 C1492 1.387 . S
H1494 C1506 0.930 . S
H1495 C1508 0.930 . S
H1496 C1509 0.930 . S
H1497 C1513 0.959 . S
H1498 C1513 0.959 . S
H1499 C1513 0.961 . S
H1500 C1514 0.960 . S
H1501 C1514 0.961 . S
H1502 C1514 0.959 . S
H1503 C1517 0.929 . S
H1504 C1518 0.931 . S
H1505 C1520 0.930 . S
C1506 H1494 0.930 . S
C1506 C1507 1.399 . S
C1506 C1511 1.399 . S
C1507 C1506 1.399 . S
C1507 C1508 1.376 . S
C1508 H1495 0.930 . S
C1508 C1507 1.376 . S
C1508 C1509 1.388 . S
C1509 H1496 0.930 . S
C1509 C1508 1.388 . S
C1509 C1510 1.390 . S
C1510 C1509 1.390 . S
C1510 C1511 1.394 . S
C1510 C1516 1.465 . S
C1511 C1506 1.399 . S
C1511 C1510 1.394 . S
C1511 C1512 1.516 . S
C1512 C1511 1.516 . S
C1512 C1513 1.502 . S
C1512 C1514 1.561 . S
C1512 C1515 1.526 . S
C1513 H1497 0.959 . S
C1513 H1498 0.959 . S
C1513 H1499 0.961 . S
C1513 C1512 1.502 . S
C1514 H1500 0.960 . S
C1514 H1501 0.961 . S
C1514 H1502 0.959 . S
C1514 C1512 1.561 . S
C1515 C1512 1.526 . S
C1515 C1516 1.396 . S
C1515 C1520 1.390 . S
C1516 C1510 1.465 . S
C1516 C1515 1.396 . S
C1516 C1517 1.399 . S
C1517 H1503 0.929 . S
C1517 C1516 1.399 . S
C1517 C1518 1.385 . S
C1518 H1504 0.931 . S
C1518 C1517 1.385 . S
C1518 C1519 1.389 . S
C1519 C1518 1.389 . S
C1519 C1520 1.387 . S
C1520 H1505 0.930 . S
C1520 C1515 1.390 . S
C1520 C1519 1.387 . S
H1521 C1533 0.930 . S
H1522 C1535 0.930 . S
H1523 C1536 0.930 . S
H1524 C1540 0.959 . S
H1525 C1540 0.959 . S
H1526 C1540 0.961 . S
H1527 C1541 0.960 . S
H1528 C1541 0.961 . S
H1529 C1541 0.959 . S
H1530 C1544 0.929 . S
H1531 C1545 0.931 . S
H1532 C1547 0.930 . S
C1533 H1521 0.930 . S
C1533 C1534 1.399 . S
C1533 C1538 1.399 . S
C1534 C1533 1.399 . S
C1534 C1535 1.376 . S
C1535 H1522 0.930 . S
C1535 C1534 1.376 . S
C1535 C1536 1.388 . S
C1536 H1523 0.930 . S
C1536 C1535 1.388 . S
C1536 C1537 1.390 . S
C1537 C1536 1.390 . S
C1537 C1538 1.394 . S
C1537 C1543 1.465 . S
C1538 C1533 1.399 . S
C1538 C1537 1.394 . S
C1538 C1539 1.516 . S
C1539 C1538 1.516 . S
C1539 C1540 1.502 . S
C1539 C1541 1.561 . S
C1539 C1542 1.526 . S
C1540 H1524 0.959 . S
C1540 H1525 0.959 . S
C1540 H1526 0.961 . S
C1540 C1539 1.502 . S
C1541 H1527 0.960 . S
C1541 H1528 0.961 . S
C1541 H1529 0.959 . S
C1541 C1539 1.561 . S
C1542 C1539 1.526 . S
C1542 C1543 1.396 . S
C1542 C1547 1.390 . S
C1543 C1537 1.465 . S
C1543 C1542 1.396 . S
C1543 C1544 1.399 . S
C1544 H1530 0.929 . S
C1544 C1543 1.399 . S
C1544 C1545 1.385 . S
C1545 H1531 0.931 . S
C1545 C1544 1.385 . S
C1545 C1546 1.389 . S
C1546 C1545 1.389 . S
C1546 C1547 1.387 . S
C1547 H1532 0.930 . S
C1547 C1542 1.390 . S
C1547 C1546 1.387 . S
H1548 C1560 0.930 . S
H1549 C1562 0.930 . S
H1550 C1563 0.930 . S
H1551 C1567 0.959 . S
H1552 C1567 0.959 . S
H1553 C1567 0.961 . S
H1554 C1568 0.960 . S
H1555 C1568 0.961 . S
H1556 C1568 0.959 . S
H1557 C1571 0.929 . S
H1558 C1572 0.931 . S
H1559 C1574 0.930 . S
C1560 H1548 0.930 . S
C1560 C1561 1.399 . S
C1560 C1565 1.399 . S
C1561 C1560 1.399 . S
C1561 C1562 1.376 . S
C1562 H1549 0.930 . S
C1562 C1561 1.376 . S
C1562 C1563 1.388 . S
C1563 H1550 0.930 . S
C1563 C1562 1.388 . S
C1563 C1564 1.390 . S
C1564 C1563 1.390 . S
C1564 C1565 1.394 . S
C1564 C1570 1.465 . S
C1565 C1560 1.399 . S
C1565 C1564 1.394 . S
C1565 C1566 1.516 . S
C1566 C1565 1.516 . S
C1566 C1567 1.502 . S
C1566 C1568 1.561 . S
C1566 C1569 1.526 . S
C1567 H1551 0.959 . S
C1567 H1552 0.959 . S
C1567 H1553 0.961 . S
C1567 C1566 1.502 . S
C1568 H1554 0.960 . S
C1568 H1555 0.961 . S
C1568 H1556 0.959 . S
C1568 C1566 1.561 . S
C1569 C1566 1.526 . S
C1569 C1570 1.396 . S
C1569 C1574 1.390 . S
C1570 C1564 1.465 . S
C1570 C1569 1.396 . S
C1570 C1571 1.399 . S
C1571 H1557 0.929 . S
C1571 C1570 1.399 . S
C1571 C1572 1.385 . S
C1572 H1558 0.931 . S
C1572 C1571 1.385 . S
C1572 C1573 1.389 . S
C1573 C1572 1.389 . S
C1573 C1574 1.387 . S
C1574 H1559 0.930 . S
C1574 C1569 1.390 . S
C1574 C1573 1.387 . S
H1575 C1587 0.930 . S
H1576 C1589 0.930 . S
H1577 C1590 0.930 . S
H1578 C1594 0.959 . S
H1579 C1594 0.959 . S
H1580 C1594 0.961 . S
H1581 C1595 0.960 . S
H1582 C1595 0.961 . S
H1583 C1595 0.959 . S
H1584 C1598 0.929 . S
H1585 C1599 0.931 . S
H1586 C1601 0.935 . S
C1587 H1575 0.930 . S
C1587 C1588 1.399 . S
C1587 C1592 1.399 . S
C1588 C1587 1.399 . S
C1588 C1589 1.376 . S
C1589 H1576 0.930 . S
C1589 C1588 1.376 . S
C1589 C1590 1.388 . S
C1590 H1577 0.930 . S
C1590 C1589 1.388 . S
C1590 C1591 1.390 . S
C1591 C1590 1.390 . S
C1591 C1592 1.394 . S
C1591 C1597 1.465 . S
C1592 C1587 1.399 . S
C1592 C1591 1.394 . S
C1592 C1593 1.516 . S
C1593 C1592 1.516 . S
C1593 C1594 1.502 . S
C1593 C1595 1.561 . S
C1593 C1596 1.526 . S
C1594 H1578 0.959 . S
C1594 H1579 0.959 . S
C1594 H1580 0.961 . S
C1594 C1593 1.502 . S
C1595 H1581 0.960 . S
C1595 H1582 0.961 . S
C1595 H1583 0.959 . S
C1595 C1593 1.561 . S
C1596 C1593 1.526 . S
C1596 C1597 1.396 . S
C1596 C1601 1.388 . S
C1597 C1591 1.465 . S
C1597 C1596 1.396 . S
C1597 C1598 1.399 1_655 S
C1598 H1584 0.929 . S
C1598 C1597 1.399 1_455 S
C1598 C1599 1.385 . S
C1599 H1585 0.931 . S
C1599 C1598 1.385 . S
C1599 C1600 1.389 . S
C1600 C1599 1.389 . S
C1600 C1601 1.387 1_455 S
C1601 H1586 0.935 . S
C1601 C1596 1.388 . S
C1601 C1600 1.387 1_655 S
H1602 C1614 0.930 . S
H1603 C1616 0.930 . S
H1604 C1617 0.930 . S
H1605 C1621 0.959 . S
H1606 C1621 0.959 . S
H1607 C1621 0.961 . S
H1608 C1622 0.960 . S
H1609 C1622 0.961 . S
H1610 C1622 0.959 . S
H1611 C1625 0.929 . S
H1612 C1626 0.931 . S
H1613 C1628 0.930 . S
C1614 H1602 0.930 . S
C1614 C1615 1.399 . S
C1614 C1619 1.399 . S
C1615 C1614 1.399 . S
C1615 C1616 1.376 . S
C1616 H1603 0.930 . S
C1616 C1615 1.376 . S
C1616 C1617 1.388 . S
C1617 H1604 0.930 . S
C1617 C1616 1.388 . S
C1617 C1618 1.390 . S
C1618 C1617 1.390 . S
C1618 C1619 1.394 . S
C1618 C1624 1.465 . S
C1619 C1614 1.399 . S
C1619 C1618 1.394 . S
C1619 C1620 1.516 . S
C1620 C1619 1.516 . S
C1620 C1621 1.502 . S
C1620 C1622 1.561 . S
C1620 C1623 1.526 . S
C1621 H1605 0.959 . S
C1621 H1606 0.959 . S
C1621 H1607 0.961 . S
C1621 C1620 1.502 . S
C1622 H1608 0.960 . S
C1622 H1609 0.961 . S
C1622 H1610 0.959 . S
C1622 C1620 1.561 . S
C1623 C1620 1.526 . S
C1623 C1624 1.396 . S
C1623 C1628 1.390 . S
C1624 C1618 1.465 . S
C1624 C1623 1.396 . S
C1624 C1625 1.399 . S
C1625 H1611 0.929 . S
C1625 C1624 1.399 . S
C1625 C1626 1.385 . S
C1626 H1612 0.931 . S
C1626 C1625 1.385 . S
C1626 C1627 1.389 . S
C1627 C1626 1.389 . S
C1627 C1628 1.387 . S
C1628 H1613 0.930 . S
C1628 C1623 1.390 . S
C1628 C1627 1.387 . S
H1629 C1641 0.930 . S
H1630 C1643 0.926 1_565 S
H1631 C1644 0.930 . S
H1632 C1648 0.959 . S
H1633 C1648 0.959 . S
H1634 C1648 0.961 . S
H1635 C1649 0.960 . S
H1636 C1649 0.961 . S
H1637 C1649 0.959 . S
H1638 C1652 0.929 . S
H1639 C1653 0.931 . S
H1640 C1655 0.930 1_455 S
C1641 H1629 0.930 . S
C1641 C1642 1.399 1_545 S
C1641 C1646 1.399 . S
C1642 C1641 1.399 1_565 S
C1642 C1643 1.376 1_565 S
C1643 H1630 0.926 1_545 S
C1643 C1642 1.376 1_545 S
C1643 C1644 1.388 . S
C1644 H1631 0.930 . S
C1644 C1643 1.388 . S
C1644 C1645 1.390 . S
C1645 C1644 1.390 . S
C1645 C1646 1.394 . S
C1645 C1651 1.465 . S
C1646 C1641 1.399 . S
C1646 C1645 1.394 . S
C1646 C1647 1.516 . S
C1647 C1646 1.516 . S
C1647 C1648 1.502 . S
C1647 C1649 1.561 . S
C1647 C1650 1.526 . S
C1648 H1632 0.959 . S
C1648 H1633 0.959 . S
C1648 H1634 0.961 . S
C1648 C1647 1.502 . S
C1649 H1635 0.960 . S
C1649 H1636 0.961 . S
C1649 H1637 0.959 . S
C1649 C1647 1.561 . S
C1650 C1647 1.526 . S
C1650 C1651 1.396 . S
C1650 C1655 1.390 . S
C1651 C1645 1.465 . S
C1651 C1650 1.396 . S
C1651 C1652 1.399 . S
C1652 H1638 0.929 . S
C1652 C1651 1.399 . S
C1652 C1653 1.385 . S
C1653 H1639 0.931 . S
C1653 C1652 1.385 . S
C1653 C1654 1.389 1_655 S
C1654 C1653 1.389 1_455 S
C1654 C1655 1.387 1_455 S
C1655 H1640 0.930 1_655 S
C1655 C1650 1.390 . S
C1655 C1654 1.387 1_655 S
H1656 C1668 0.930 . S
H1657 C1670 0.930 . S
H1658 C1671 0.930 . S
H1659 C1675 0.959 . S
H1660 C1675 0.959 . S
H1661 C1675 0.961 . S
H1662 C1676 0.960 . S
H1663 C1676 0.961 . S
H1664 C1676 0.959 . S
H1665 C1679 0.929 . S
H1666 C1680 0.931 . S
H1667 C1682 0.930 . S
C1668 H1656 0.930 . S
C1668 C1669 1.399 . S
C1668 C1673 1.399 . S
C1669 C1668 1.399 . S
C1669 C1670 1.376 . S
C1670 H1657 0.930 . S
C1670 C1669 1.376 . S
C1670 C1671 1.388 . S
C1671 H1658 0.930 . S
C1671 C1670 1.388 . S
C1671 C1672 1.390 . S
C1672 C1671 1.390 . S
C1672 C1673 1.394 . S
C1672 C1678 1.465 . S
C1673 C1668 1.399 . S
C1673 C1672 1.394 . S
C1673 C1674 1.516 . S
C1674 C1673 1.516 . S
C1674 C1675 1.502 . S
C1674 C1676 1.561 . S
C1674 C1677 1.526 . S
C1675 H1659 0.959 . S
C1675 H1660 0.959 . S
C1675 H1661 0.961 . S
C1675 C1674 1.502 . S
C1676 H1662 0.960 . S
C1676 H1663 0.961 . S
C1676 H1664 0.959 . S
C1676 C1674 1.561 . S
C1677 C1674 1.526 . S
C1677 C1678 1.396 . S
C1677 C1682 1.390 1_565 S
C1678 C1672 1.465 . S
C1678 C1677 1.396 . S
C1678 C1679 1.399 . S
C1679 H1665 0.929 . S
C1679 C1678 1.399 . S
C1679 C1680 1.385 1_565 S
C1680 H1666 0.931 . S
C1680 C1679 1.385 1_545 S
C1680 C1681 1.389 . S
C1681 C1680 1.389 . S
C1681 C1682 1.387 . S
C1682 H1667 0.930 . S
C1682 C1677 1.390 1_545 S
C1682 C1681 1.387 . S
H1683 C1695 0.930 1_545 S
H1684 C1697 0.930 . S
H1685 C1698 0.930 . S
H1686 C1702 0.959 . S
H1687 C1702 0.959 . S
H1688 C1702 0.961 . S
H1689 C1703 0.960 . S
H1690 C1703 0.961 . S
H1691 C1703 0.959 . S
H1692 C1706 0.929 . S
H1693 C1707 0.931 1_655 S
H1694 C1709 0.930 . S
C1695 H1683 0.930 1_565 S
C1695 C1696 1.399 1_565 S
C1695 C1700 1.399 . S
C1696 C1695 1.399 1_545 S
C1696 C1697 1.376 1_545 S
C1697 H1684 0.930 . S
C1697 C1696 1.376 1_565 S
C1697 C1698 1.388 . S
C1698 H1685 0.930 . S
C1698 C1697 1.388 . S
C1698 C1699 1.390 . S
C1699 C1698 1.390 . S
C1699 C1700 1.394 . S
C1699 C1705 1.465 . S
C1700 C1695 1.399 . S
C1700 C1699 1.394 . S
C1700 C1701 1.516 . S
C1701 C1700 1.516 . S
C1701 C1702 1.502 . S
C1701 C1703 1.561 . S
C1701 C1704 1.526 . S
C1702 H1686 0.959 . S
C1702 H1687 0.959 . S
C1702 H1688 0.961 . S
C1702 C1701 1.502 . S
C1703 H1689 0.960 . S
C1703 H1690 0.961 . S
C1703 H1691 0.959 . S
C1703 C1701 1.561 . S
C1704 C1701 1.526 . S
C1704 C1705 1.396 . S
C1704 C1709 1.390 . S
C1705 C1699 1.465 . S
C1705 C1704 1.396 . S
C1705 C1706 1.399 . S
C1706 H1692 0.929 . S
C1706 C1705 1.399 . S
C1706 C1707 1.385 . S
C1707 H1693 0.931 1_455 S
C1707 C1706 1.385 . S
C1707 C1708 1.389 1_455 S
C1708 C1707 1.389 1_655 S
C1708 C1709 1.387 1_655 S
C1709 H1694 0.930 . S
C1709 C1704 1.390 . S
C1709 C1708 1.387 1_455 S
H1710 C1722 0.930 . S
H1711 C1724 0.930 . S
H1712 C1725 0.930 . S
H1713 C1729 0.959 . S
H1714 C1729 0.959 . S
H1715 C1729 0.961 . S
H1716 C1730 0.960 . S
H1717 C1730 0.961 . S
H1718 C1730 0.959 . S
H1719 C1733 0.929 . S
H1720 C1734 0.931 1_655 S
H1721 C1736 0.930 . S
C1722 H1710 0.930 . S
C1722 C1723 1.399 . S
C1722 C1727 1.399 . S
C1723 C1722 1.399 . S
C1723 C1724 1.376 . S
C1724 H1711 0.930 . S
C1724 C1723 1.376 . S
C1724 C1725 1.388 . S
C1725 H1712 0.930 . S
C1725 C1724 1.388 . S
C1725 C1726 1.390 . S
C1726 C1725 1.390 . S
C1726 C1727 1.394 . S
C1726 C1732 1.465 . S
C1727 C1722 1.399 . S
C1727 C1726 1.394 . S
C1727 C1728 1.516 . S
C1728 C1727 1.516 . S
C1728 C1729 1.502 . S
C1728 C1730 1.561 . S
C1728 C1731 1.526 . S
C1729 H1713 0.959 . S
C1729 H1714 0.959 . S
C1729 H1715 0.961 . S
C1729 C1728 1.502 . S
C1730 H1716 0.960 . S
C1730 H1717 0.961 . S
C1730 H1718 0.959 . S
C1730 C1728 1.561 . S
C1731 C1728 1.526 . S
C1731 C1732 1.396 . S
C1731 C1736 1.390 . S
C1732 C1726 1.465 . S
C1732 C1731 1.396 . S
C1732 C1733 1.399 . S
C1733 H1719 0.929 . S
C1733 C1732 1.399 . S
C1733 C1734 1.385 . S
C1734 H1720 0.931 1_455 S
C1734 C1733 1.385 . S
C1734 C1735 1.389 . S
C1735 C1734 1.389 . S
C1735 C1736 1.387 . S
C1736 H1721 0.930 . S
C1736 C1731 1.390 . S
C1736 C1735 1.387 . S
H1737 C1749 0.930 . S
H1738 C1751 0.930 . S
H1739 C1752 0.930 . S
H1740 C1756 0.959 . S
H1741 C1756 0.959 . S
H1742 C1756 0.961 . S
H1743 C1757 0.960 . S
H1744 C1757 0.961 . S
H1745 C1757 0.959 . S
H1746 C1760 0.929 . S
H1747 C1761 0.931 . S
H1748 C1763 0.930 . S
C1749 H1737 0.930 . S
C1749 C1750 1.399 . S
C1749 C1754 1.399 . S
C1750 C1749 1.399 . S
C1750 C1751 1.376 . S
C1751 H1738 0.930 . S
C1751 C1750 1.376 . S
C1751 C1752 1.388 . S
C1752 H1739 0.930 . S
C1752 C1751 1.388 . S
C1752 C1753 1.390 . S
C1753 C1752 1.390 . S
C1753 C1754 1.394 . S
C1753 C1759 1.465 . S
C1754 C1749 1.399 . S
C1754 C1753 1.394 . S
C1754 C1755 1.516 . S
C1755 C1754 1.516 . S
C1755 C1756 1.502 . S
C1755 C1757 1.561 . S
C1755 C1758 1.526 . S
C1756 H1740 0.959 . S
C1756 H1741 0.959 . S
C1756 H1742 0.961 . S
C1756 C1755 1.502 . S
C1757 H1743 0.960 . S
C1757 H1744 0.961 . S
C1757 H1745 0.959 . S
C1757 C1755 1.561 . S
C1758 C1755 1.526 . S
C1758 C1759 1.396 . S
C1758 C1763 1.390 . S
C1759 C1753 1.465 . S
C1759 C1758 1.396 . S
C1759 C1760 1.399 . S
C1760 H1746 0.929 . S
C1760 C1759 1.399 . S
C1760 C1761 1.385 . S
C1761 H1747 0.931 . S
C1761 C1760 1.385 . S
C1761 C1762 1.389 . S
C1762 C1761 1.389 . S
C1762 C1763 1.387 . S
C1763 H1748 0.930 . S
C1763 C1758 1.390 . S
C1763 C1762 1.387 . S
H1764 C1776 0.930 . S
H1765 C1778 0.930 . S
H1766 C1779 0.930 . S
H1767 C1783 0.959 . S
H1768 C1783 0.959 . S
H1769 C1783 0.961 . S
H1770 C1784 0.960 . S
H1771 C1784 0.961 . S
H1772 C1784 0.959 . S
H1773 C1787 0.929 . S
H1774 C1788 0.931 . S
H1775 C1790 0.930 . S
C1776 H1764 0.930 . S
C1776 C1777 1.399 . S
C1776 C1781 1.399 . S
C1777 C1776 1.399 . S
C1777 C1778 1.376 . S
C1778 H1765 0.930 . S
C1778 C1777 1.376 . S
C1778 C1779 1.388 . S
C1779 H1766 0.930 . S
C1779 C1778 1.388 . S
C1779 C1780 1.390 . S
C1780 C1779 1.390 . S
C1780 C1781 1.394 . S
C1780 C1786 1.465 . S
C1781 C1776 1.399 . S
C1781 C1780 1.394 . S
C1781 C1782 1.516 . S
C1782 C1781 1.516 . S
C1782 C1783 1.502 . S
C1782 C1784 1.561 . S
C1782 C1785 1.526 . S
C1783 H1767 0.959 . S
C1783 H1768 0.959 . S
C1783 H1769 0.961 . S
C1783 C1782 1.502 . S
C1784 H1770 0.960 . S
C1784 H1771 0.961 . S
C1784 H1772 0.959 . S
C1784 C1782 1.561 . S
C1785 C1782 1.526 . S
C1785 C1786 1.396 . S
C1785 C1790 1.390 . S
C1786 C1780 1.465 . S
C1786 C1785 1.396 . S
C1786 C1787 1.399 . S
C1787 H1773 0.929 . S
C1787 C1786 1.399 . S
C1787 C1788 1.385 . S
C1788 H1774 0.931 . S
C1788 C1787 1.385 . S
C1788 C1789 1.389 . S
C1789 C1788 1.389 . S
C1789 C1790 1.387 . S
C1790 H1775 0.930 . S
C1790 C1785 1.390 . S
C1790 C1789 1.387 . S
H1791 C1803 0.930 . S
H1792 C1805 0.930 . S
H1793 C1806 0.930 . S
H1794 C1810 0.959 . S
H1795 C1810 0.959 . S
H1796 C1810 0.961 . S
H1797 C1811 0.960 . S
H1798 C1811 0.961 . S
H1799 C1811 0.959 . S
H1800 C1814 0.929 . S
H1801 C1815 0.931 . S
H1802 C1817 0.930 . S
C1803 H1791 0.930 . S
C1803 C1804 1.399 . S
C1803 C1808 1.399 . S
C1804 C1803 1.399 . S
C1804 C1805 1.376 . S
C1805 H1792 0.930 . S
C1805 C1804 1.376 . S
C1805 C1806 1.388 . S
C1806 H1793 0.930 . S
C1806 C1805 1.388 . S
C1806 C1807 1.390 . S
C1807 C1806 1.390 . S
C1807 C1808 1.394 . S
C1807 C1813 1.465 . S
C1808 C1803 1.399 . S
C1808 C1807 1.394 . S
C1808 C1809 1.516 . S
C1809 C1808 1.516 . S
C1809 C1810 1.502 . S
C1809 C1811 1.561 . S
C1809 C1812 1.526 . S
C1810 H1794 0.959 . S
C1810 H1795 0.959 . S
C1810 H1796 0.961 . S
C1810 C1809 1.502 . S
C1811 H1797 0.960 . S
C1811 H1798 0.961 . S
C1811 H1799 0.959 . S
C1811 C1809 1.561 . S
C1812 C1809 1.526 . S
C1812 C1813 1.396 . S
C1812 C1817 1.390 . S
C1813 C1807 1.465 . S
C1813 C1812 1.396 . S
C1813 C1814 1.399 . S
C1814 H1800 0.929 . S
C1814 C1813 1.399 . S
C1814 C1815 1.385 . S
C1815 H1801 0.931 . S
C1815 C1814 1.385 . S
C1815 C1816 1.389 . S
C1816 C1815 1.389 . S
C1816 C1817 1.387 . S
C1817 H1802 0.930 . S
C1817 C1812 1.390 . S
C1817 C1816 1.387 . S
C373 C2 0.974 . S
C385 C49 0.932 . S
C400 C9 0.946 . S
C412 C22 1.044 . S
C427 C29 0.934 . S
C439 C42 0.971 . S
C454 C62 1.073 . S
C466 C89 1.029 . S
C481 C109 0.958 . S
C493 C82 0.958 . S
C508 C102 0.955 . S
C520 C69 0.968 . S
C535 C169 0.925 . S
C547 C122 0.986 . S
C562 C129 1.065 1_655 S
C574 C142 1.016 . S
C589 C162 0.954 . S
C601 C149 0.979 . S
C616 C209 0.977 . S
C628 C182 1.063 . S
C643 C202 1.051 . S
C655 C229 0.955 . S
C670 C189 1.068 . S
C682 C222 1.030 . S
C697 C242 0.955 . S
C709 C289 0.974 . S
C724 C249 0.926 . S
C736 C262 1.017 . S
C751 C269 1.057 . S
C763 C282 1.059 . S
C778 C329 0.937 . S
C790 C302 1.035 . S
C805 C349 1.065 . S
C817 C322 1.017 . S
C832 C309 0.925 . S
C844 C342 0.983 . S
C859 C19 1.708 . S
C871 C119 1.747 . S
C886 C79 1.699 . S
C898 C39 1.743 . S
C913 C99 1.735 . S
C925 C59 1.725 . S
C940 C139 1.741 . S
C952 C239 1.701 . S
C967 C159 1.730 . S
C979 C199 1.730 . S
C994 C219 1.735 . S
C1006 C179 1.725 . S
C1021 C259 1.739 . S
C1033 C359 1.702 . S
C1048 C319 1.699 . S
C1060 C279 1.743 . S
C1075 C339 1.749 . S
C1087 C299 1.705 . S
C1102 C218 1.897 . S
C1114 C18 1.923 1_565 S
C1129 C38 1.926 . S
C1141 C238 1.944 . S
C1156 C198 1.957 . S
C1168 C58 1.895 . S
C1183 C78 1.953 1_655 S
C1195 C298 1.912 . S
C1210 C98 1.937 . S
C1222 C258 1.934 . S
C1237 C278 1.939 . S
C1249 C118 1.932 . S
C1264 C338 1.933 . S
C1276 C138 1.938 . S
C1291 C158 1.948 . S
C1303 C358 1.887 . S
C1318 C178 1.952 . S
C1330 C318 1.915 . S
C1345 C52 1.484 . S
C1357 C4 1.410 . S
C1372 C12 1.478 . S
C1384 C24 1.310 . S
C1399 C44 1.385 . S
C1411 C32 1.510 . S
C1426 C92 1.480 . S
C1438 C64 1.404 . S
C1453 C112 1.488 . S
C1465 C84 1.325 . S
C1480 C104 1.384 . S
C1492 C72 1.509 . S
C1507 C172 1.512 . S
C1519 C124 1.406 . S
C1534 C144 1.393 . S
C1546 C132 1.511 . S
C1561 C152 1.452 . S
C1573 C164 1.322 . S
C1588 C184 1.300 . S
C1600 C212 1.457 . S
C1615 C204 1.336 1_545 S
C1627 C232 1.454 . S
C1642 C192 1.503 . S
C1654 C224 1.361 . S
C1669 C244 1.331 . S
C1681 C292 1.453 . S
C1696 C264 1.387 . S
C1708 C252 1.510 . S
C1723 C272 1.452 . S
C1735 C284 1.327 1_455 S
C1750 C304 1.411 . S
C1762 C332 1.484 . S
C1777 C324 1.380 . S
C1789 C352 1.508 . S
C1804 C312 1.482 . S
C1816 C344 1.408 . S
