# Generated by pormake.
# Topology umb, (4)-cn, num edge types: 1
# Building blocks:
#     Node 0, Type 0, BuildingBlock: NAWXER_clean_sbu_0, # of connection points: 4
#     Node 1, Type 0, BuildingBlock: NAWXER_clean_sbu_0, # of connection points: 4
#     Node 2, Type 0, BuildingBlock: NAWXER_clean_sbu_0, # of connection points: 4
#     Node 3, Type 0, BuildingBlock: NAWXER_clean_sbu_0, # of connection points: 4
#     Node 4, Type 0, BuildingBlock: NAWXER_clean_sbu_0, # of connection points: 4
#     Node 5, Type 0, BuildingBlock: NAWXER_clean_sbu_0, # of connection points: 4
#     Node 6, Type 0, BuildingBlock: NAWXER_clean_sbu_0, # of connection points: 4
#     Node 7, Type 0, BuildingBlock: NAWXER_clean_sbu_0, # of connection points: 4
#     Node 8, Type 0, BuildingBlock: NAWXER_clean_sbu_0, # of connection points: 4
#     Node 9, Type 0, BuildingBlock: NAWXER_clean_sbu_0, # of connection points: 4
#     Node 10, Type 0, BuildingBlock: NAWXER_clean_sbu_0, # of connection points: 4
#     Node 11, Type 0, BuildingBlock: NAWXER_clean_sbu_0, # of connection points: 4
#     Edge 12, Type (0, 0), BuildingBlock: XIVTED_clean_linker_0, # of connection points: 2
#     Edge 13, Type (0, 0), BuildingBlock: XIVTED_clean_linker_0, # of connection points: 2
#     Edge 14, Type (0, 0), BuildingBlock: XIVTED_clean_linker_0, # of connection points: 2
#     Edge 15, Type (0, 0), BuildingBlock: XIVTED_clean_linker_0, # of connection points: 2
#     Edge 16, Type (0, 0), BuildingBlock: XIVTED_clean_linker_0, # of connection points: 2
#     Edge 17, Type (0, 0), BuildingBlock: XIVTED_clean_linker_0, # of connection points: 2
#     Edge 18, Type (0, 0), BuildingBlock: XIVTED_clean_linker_0, # of connection points: 2
#     Edge 19, Type (0, 0), BuildingBlock: XIVTED_clean_linker_0, # of connection points: 2
#     Edge 20, Type (0, 0), BuildingBlock: XIVTED_clean_linker_0, # of connection points: 2
#     Edge 21, Type (0, 0), BuildingBlock: XIVTED_clean_linker_0, # of connection points: 2
#     Edge 22, Type (0, 0), BuildingBlock: XIVTED_clean_linker_0, # of connection points: 2
#     Edge 23, Type (0, 0), BuildingBlock: XIVTED_clean_linker_0, # of connection points: 2
#     Edge 24, Type (0, 0), BuildingBlock: XIVTED_clean_linker_0, # of connection points: 2
#     Edge 25, Type (0, 0), BuildingBlock: XIVTED_clean_linker_0, # of connection points: 2
#     Edge 26, Type (0, 0), BuildingBlock: XIVTED_clean_linker_0, # of connection points: 2
#     Edge 27, Type (0, 0), BuildingBlock: XIVTED_clean_linker_0, # of connection points: 2
#     Edge 28, Type (0, 0), BuildingBlock: XIVTED_clean_linker_0, # of connection points: 2
#     Edge 29, Type (0, 0), BuildingBlock: XIVTED_clean_linker_0, # of connection points: 2
#     Edge 30, Type (0, 0), BuildingBlock: XIVTED_clean_linker_0, # of connection points: 2
#     Edge 31, Type (0, 0), BuildingBlock: XIVTED_clean_linker_0, # of connection points: 2
#     Edge 32, Type (0, 0), BuildingBlock: XIVTED_clean_linker_0, # of connection points: 2
#     Edge 33, Type (0, 0), BuildingBlock: XIVTED_clean_linker_0, # of connection points: 2
#     Edge 34, Type (0, 0), BuildingBlock: XIVTED_clean_linker_0, # of connection points: 2
#     Edge 35, Type (0, 0), BuildingBlock: XIVTED_clean_linker_0, # of connection points: 2
# Relax obj value: 0.192
# Max RMSD: 0.212
# Mean RMSD: 0.211
data_MOF--net-umb--node1-NAWXER_clean_sbu_0--edge1-XIVTED_clean_linker_0
_symmetry_space_group_name_H-M    P1
_symmetry_Int_Tables_number       1
_symmetry_cell_setting            triclinic
loop_
_symmetry_equiv_pos_as_xyz
'x, y, z'
_cell_length_a     48.219965
_cell_length_b     47.73948
_cell_length_c     36.540024
_cell_angle_alpha  90.127571
_cell_angle_beta   90.09208
_cell_angle_gamma 120.04471
loop_
_atom_site_label
_atom_site_type_symbol
_atom_site_fract_x
_atom_site_fract_y
_atom_site_fract_z
_atom_type_partial_charge
C0 C 0.54412 0.21095 0.36068 0.0
C1 C 0.49156 0.09597 0.33972 0.0
O2 O 0.55277 0.19496 0.34068 0.0
Zn3 Zn 0.51631 0.15366 0.34902 0.0
O4 O 0.51709 0.19645 0.37728 0.0
Zn5 Zn 0.47721 0.14735 0.38033 0.0
O6 O 0.47542 0.14035 0.43268 0.0
O7 O 0.51965 0.14665 0.40725 0.0
O8 O 0.47371 0.10309 0.35912 0.0
O9 O 0.518 0.11839 0.32758 0.0
O10 O 0.48067 0.15772 0.3184 0.0
O11 O 0.44295 0.15126 0.35709 0.0
C12 C 0.50246 0.14195 0.43589 0.0
C13 C 0.45419 0.15694 0.32484 0.0
C14 C 0.3163 0.55784 0.69793 0.0
C15 C 0.37611 0.50405 0.67282 0.0
O16 O 0.34038 0.56659 0.6773 0.0
Zn17 Zn 0.34412 0.52924 0.68396 0.0
O18 O 0.30347 0.53022 0.71384 0.0
Zn19 Zn 0.31153 0.48938 0.71482 0.0
O20 O 0.31707 0.48659 0.76693 0.0
O21 O 0.35499 0.53162 0.74206 0.0
O22 O 0.35147 0.48584 0.69246 0.0
O23 O 0.38018 0.53084 0.66129 0.0
O24 O 0.30351 0.49441 0.65341 0.0
O25 O 0.27281 0.45548 0.69147 0.0
C26 C 0.34259 0.51384 0.77043 0.0
C27 C 0.27773 0.46769 0.65966 0.0
C28 C 0.81063 0.35915 0.10405 0.0
C29 C 0.79345 0.29601 0.99173 0.0
O30 O 0.81185 0.33331 0.10003 0.0
Zn31 Zn 0.80412 0.32864 1.0478 0.0
O32 O 0.8058 0.37224 0.0759 0.0
Zn33 Zn 0.79796 0.36231 1.01752 0.0
O34 O 0.75727 0.3585 1.01003 0.0
O35 O 0.75567 0.32048 1.04585 0.0
O36 O 0.79294 0.3222 0.9859 0.0
O37 O 0.79941 0.29007 1.02373 0.0
O38 O 0.84793 0.36923 1.02651 0.0
O39 O 0.83278 0.39925 0.99615 0.0
C40 C 0.74146 0.33374 1.02989 0.0
C41 C 0.85497 0.3946 1.00756 0.0
C42 C 0.43385 0.82228 0.43914 0.0
C43 C 0.48067 0.80639 0.3275 0.0
O44 O 0.46092 0.82404 0.43556 0.0
Zn45 Zn 0.45829 0.81636 0.38327 0.0
O46 O 0.41619 0.81717 0.41073 0.0
Zn47 Zn 0.41871 0.80953 0.35244 0.0
O48 O 0.38226 0.76811 0.34451 0.0
O49 O 0.41841 0.76714 0.38091 0.0
O50 O 0.45405 0.80542 0.32135 0.0
O51 O 0.4923 0.81233 0.35965 0.0
O52 O 0.46132 0.8603 0.3618 0.0
O53 O 0.41644 0.84436 0.33097 0.0
C54 C 0.39117 0.75241 0.36458 0.0
C55 C 0.44306 0.86703 0.34259 0.0
C56 C 0.65396 0.49509 0.65796 0.0
C57 C 0.59041 0.44869 0.76906 0.0
O58 O 0.65945 0.50722 0.68992 0.0
Zn59 Zn 0.62111 0.47322 0.71349 0.0
O60 O 0.62823 0.46823 0.65178 0.0
Zn61 Zn 0.58845 0.43295 0.68257 0.0
O62 O 0.55181 0.4306 0.66037 0.0
O63 O 0.58064 0.47599 0.6913 0.0
O64 O 0.57802 0.43082 0.74061 0.0
O65 O 0.61579 0.47606 0.76571 0.0
O66 O 0.62979 0.43293 0.71232 0.0
O67 O 0.593 0.39597 0.67582 0.0
C68 C 0.55579 0.45743 0.6719 0.0
C69 C 0.61726 0.40523 0.69645 0.0
C70 C 0.12636 0.60663 0.10551 0.0
C71 C 0.14524 0.67126 0.99452 0.0
O72 O 0.12557 0.63273 0.10203 0.0
Zn73 Zn 0.1337 0.63791 1.04993 0.0
O74 O 0.13116 0.5937 0.07712 0.0
Zn75 Zn 0.13958 0.60429 1.01899 0.0
O76 O 0.18008 0.60759 1.01196 0.0
O77 O 0.18186 0.64532 1.04866 0.0
O78 O 0.14538 0.64494 0.98821 0.0
O79 O 0.13919 0.67699 1.02657 0.0
O80 O 0.08977 0.59782 1.0277 0.0
O81 O 0.10465 0.56786 0.99666 0.0
C82 C 0.19592 0.63195 1.03257 0.0
C83 C 0.08258 0.57262 1.00818 0.0
C84 C 0.74026 0.40633 0.42511 0.0
C85 C 0.85335 0.458 0.45051 0.0
O86 O 0.75537 0.39677 0.44518 0.0
Zn87 Zn 0.7965 0.43371 0.43894 0.0
O88 O 0.75523 0.43412 0.40963 0.0
Zn89 Zn 0.80413 0.47425 0.40892 0.0
O90 O 0.81252 0.47758 0.35686 0.0
O91 O 0.80502 0.43192 0.38078 0.0
O92 O 0.84716 0.47676 0.4313 0.0
O93 O 0.83057 0.43113 0.46144 0.0
O94 O 0.79113 0.46865 0.47022 0.0
O95 O 0.79976 0.50831 0.43288 0.0
C96 C 0.81063 0.4502 0.35278 0.0
C97 C 0.79237 0.49571 0.46449 0.0
C98 C 0.31733 0.756 0.76221 0.0
C99 C 0.37601 0.87147 0.78043 0.0
O100 O 0.3416 0.77274 0.78242 0.0
Zn101 Zn 0.34447 0.81337 0.77346 0.0
O102 O 0.30398 0.76965 0.74519 0.0
Zn103 Zn 0.31108 0.818 0.74105 0.0
O104 O 0.31535 0.82355 0.68874 0.0
O105 O 0.35475 0.8198 0.71475 0.0
O106 O 0.35164 0.86329 0.75957 0.0
O107 O 0.3799 0.84985 0.79561 0.0
O108 O 0.30404 0.80761 0.80326 0.0
O109 O 0.27258 0.81348 0.7642 0.0
C110 C 0.34144 0.82314 0.68583 0.0
C111 C 0.27805 0.80771 0.79649 0.0
C112 C 0.50133 0.35582 1.01679 0.0
C113 C 0.45302 0.29027 0.12632 0.0
O114 O 0.47485 0.32935 1.01922 0.0
Zn115 Zn 0.47612 0.32414 0.07139 0.0
O116 O 0.51796 0.36878 1.0459 0.0
Zn117 Zn 0.51419 0.35748 0.10427 0.0
O118 O 0.55158 0.35437 0.11259 0.0
O119 O 0.51683 0.3169 0.07496 0.0
O120 O 0.47919 0.31639 0.13345 0.0
O121 O 0.44198 0.28502 0.09392 0.0
O122 O 0.4719 0.36476 0.09099 0.0
O123 O 0.51362 0.39304 0.12715 0.0
C124 C 0.54381 0.33016 0.09186 0.0
C125 C 0.48821 0.38916 0.11217 0.0
C126 C 0.12398 0.51681 0.35518 0.0
C127 C 0.14001 0.46961 0.46666 0.0
O128 O 0.12187 0.4893 0.35878 0.0
Zn129 Zn 0.12969 0.49199 0.41104 0.0
O130 O 0.12944 0.53481 0.38353 0.0
Zn131 Zn 0.1373 0.53243 0.44171 0.0
O132 O 0.17869 0.56898 0.44905 0.0
O133 O 0.17866 0.53169 0.41306 0.0
O134 O 0.14133 0.49669 0.47275 0.0
O135 O 0.13349 0.45753 0.43467 0.0
O136 O 0.08664 0.48973 0.43284 0.0
O137 O 0.10318 0.53527 0.46353 0.0
C138 C 0.19377 0.55932 0.42908 0.0
C139 C 0.08041 0.50851 0.45206 0.0
C140 C 0.66249 0.15905 0.79161 0.0
C141 C 0.59769 0.14174 0.68128 0.0
O142 O 0.66786 0.15319 0.7593 0.0
Zn143 Zn 0.62887 0.14782 0.73627 0.0
O144 O 0.63638 0.15884 0.79845 0.0
Zn145 Zn 0.59555 0.1524 0.76887 0.0
O146 O 0.56055 0.11595 0.79126 0.0
O147 O 0.58887 0.10255 0.75532 0.0
O148 O 0.58465 0.14524 0.71031 0.0
O149 O 0.62394 0.1416 0.68397 0.0
O150 O 0.63539 0.19594 0.74001 0.0
O151 O 0.59812 0.19298 0.77756 0.0
C152 C 0.56464 0.09434 0.77628 0.0
C153 C 0.62201 0.20958 0.75699 0.0
C154 C 0.43646 0.60982 1.01662 0.0
C155 C 0.48451 0.67513 0.12691 0.0
O156 O 0.46255 0.63666 1.01934 0.0
Zn157 Zn 0.46163 0.64134 0.07163 0.0
O158 O 0.42025 0.59627 1.04567 0.0
Zn159 Zn 0.42442 0.60707 0.10432 0.0
O160 O 0.38648 0.60878 0.11379 0.0
O161 O 0.42001 0.64702 0.07632 0.0
O162 O 0.4589 0.6485 0.13389 0.0
O163 O 0.49523 0.68085 0.09446 0.0
O164 O 0.46762 0.60154 0.09017 0.0
O165 O 0.42647 0.57207 0.12627 0.0
C166 C 0.39332 0.63299 0.09361 0.0
C167 C 0.45207 0.57689 0.11105 0.0
H168 H 0.47511 0.1364 0.50351 0.0
H169 H 0.62023 0.13804 0.61346 0.0
H170 H 0.55805 0.14196 0.45154 0.0
H171 H 0.54099 0.13975 0.66603 0.0
H172 H 0.59615 0.1362 0.5539 0.0
H173 H 0.49719 0.13439 0.56321 0.0
C174 C 0.49788 0.13706 0.50459 0.0
C175 C 0.51474 0.13943 0.47235 0.0
C176 C 0.58396 0.13688 0.57847 0.0
C177 C 0.54022 0.13717 0.54074 0.0
C178 C 0.5977 0.13787 0.61254 0.0
C179 C 0.5827 0.13913 0.64491 0.0
C180 C 0.55494 0.13709 0.57661 0.0
C181 C 0.5535 0.13887 0.64187 0.0
C182 C 0.51051 0.13596 0.53873 0.0
C183 C 0.54418 0.14022 0.47558 0.0
N184 N 0.54064 0.13794 0.6084 0.0
N185 N 0.55595 0.13914 0.50907 0.0
H186 H 0.32067 0.48564 0.83776 0.0
H187 H 0.46273 0.63291 0.94904 0.0
H188 H 0.3982 0.56986 0.78665 0.0
H189 H 0.38211 0.55214 1.001 0.0
H190 H 0.441 0.60845 0.88936 0.0
H191 H 0.34436 0.50781 0.89774 0.0
C192 C 0.34275 0.50868 0.83908 0.0
C193 C 0.35738 0.52591 0.80701 0.0
C194 C 0.42809 0.59601 0.91381 0.0
C195 C 0.38462 0.55151 0.87571 0.0
C196 C 0.44053 0.60996 0.94796 0.0
C197 C 0.42422 0.59464 0.9802 0.0
C198 C 0.3991 0.56643 0.91171 0.0
C199 C 0.39551 0.5649 0.97694 0.0
C200 C 0.35624 0.52137 0.87338 0.0
C201 C 0.38597 0.5557 0.81055 0.0
N202 N 0.38386 0.55183 0.94337 0.0
N203 N 0.39857 0.56754 0.84418 0.0
H204 H 0.81708 0.47956 0.28616 0.0
H205 H 0.81571 0.33553 0.17078 0.0
H206 H 0.81074 0.39439 0.33526 0.0
H207 H 0.81197 0.41569 0.12156 0.0
H208 H 0.81796 0.35873 0.23126 0.0
H209 H 0.8193 0.45858 0.22572 0.0
C210 C 0.81633 0.45654 0.2843 0.0
C211 C 0.81362 0.43871 0.31594 0.0
C212 C 0.81675 0.3713 0.20722 0.0
C213 C 0.81611 0.41447 0.24666 0.0
C214 C 0.81553 0.35808 0.17263 0.0
C215 C 0.81355 0.37359 0.14094 0.0
C216 C 0.81608 0.40033 0.21025 0.0
C217 C 0.81338 0.40278 0.14516 0.0
C218 C 0.81753 0.44453 0.24973 0.0
C219 C 0.81272 0.40898 0.3117 0.0
N220 N 0.81457 0.41513 0.17909 0.0
N221 N 0.81391 0.39781 0.27778 0.0
H222 H 0.4621 0.82821 0.50641 0.0
H223 H 0.31822 0.82669 0.61834 0.0
H224 H 0.37841 0.82221 0.4556 0.0
H225 H 0.39782 0.8247 0.66989 0.0
H226 H 0.34163 0.82838 0.55852 0.0
H227 H 0.4407 0.83027 0.56646 0.0
C228 C 0.43932 0.82748 0.50782 0.0
C229 C 0.42204 0.82496 0.4758 0.0
C230 C 0.35404 0.82766 0.58291 0.0
C231 C 0.39733 0.82727 0.5446 0.0
C232 C 0.34068 0.82674 0.61714 0.0
C233 C 0.35599 0.82547 0.64931 0.0
C234 C 0.38299 0.82736 0.58067 0.0
C235 C 0.38509 0.82559 0.6459 0.0
C236 C 0.42707 0.8286 0.54216 0.0
C237 C 0.39259 0.82407 0.47945 0.0
N238 N 0.39759 0.82646 0.61226 0.0
N239 N 0.38119 0.82518 0.51313 0.0
H240 H 0.55605 0.41323 1.0021 0.0
H241 H 0.53441 0.39313 0.7845 0.0
H242 H 0.47465 0.33364 0.94887 0.0
H243 H 0.61294 0.47619 0.83688 0.0
H244 H 0.51181 0.37171 0.84453 0.0
H245 H 0.57682 0.43721 0.94218 0.0
C246 C 0.54244 0.40081 0.97785 0.0
C247 C 0.51353 0.37127 0.98063 0.0
C248 C 0.53391 0.39469 0.84297 0.0
C249 C 0.53735 0.39867 0.91174 0.0
C250 C 0.54688 0.407 0.80862 0.0
C251 C 0.57572 0.43654 0.80552 0.0
C252 C 0.54989 0.4119 0.8747 0.0
C253 C 0.59067 0.45335 0.83787 0.0
C254 C 0.55436 0.41457 0.9436 0.0
C255 C 0.49702 0.3564 0.94815 0.0
N256 N 0.57767 0.44072 0.87108 0.0
N257 N 0.50921 0.37018 0.91514 0.0
H258 H 0.12401 0.5728 0.33884 0.0
H259 H 0.12395 0.54942 0.12172 0.0
H260 H 0.11835 0.48844 0.28784 0.0
H261 H 0.1215 0.62977 0.1728 0.0
H262 H 0.12112 0.52638 0.18214 0.0
H263 H 0.12233 0.59358 0.27838 0.0
C264 C 0.12228 0.55853 0.31494 0.0
C265 C 0.1214 0.52879 0.31854 0.0
C266 C 0.12106 0.54897 0.18017 0.0
C267 C 0.11961 0.55267 0.24893 0.0
C268 C 0.12268 0.5622 0.14561 0.0
C269 C 0.12305 0.59169 0.14206 0.0
C270 C 0.11994 0.56536 0.21161 0.0
C271 C 0.1213 0.60702 0.17413 0.0
C272 C 0.12131 0.57046 0.28036 0.0
C273 C 0.1191 0.51145 0.28648 0.0
N274 N 0.11997 0.59377 0.2075 0.0
N275 N 0.11844 0.5237 0.25307 0.0
H276 H 0.69584 0.36133 0.47064 0.0
H277 H 0.58981 0.25419 0.31469 0.0
H278 H 0.70764 0.40131 0.36224 0.0
H279 H 0.54937 0.24569 0.42212 0.0
H280 H 0.6327 0.30874 0.33049 0.0
H281 H 0.64153 0.31916 0.45414 0.0
C282 C 0.68672 0.36146 0.44356 0.0
C283 C 0.70614 0.38442 0.41756 0.0
C284 C 0.614 0.29521 0.35027 0.0
C285 C 0.64467 0.33623 0.3984 0.0
C286 C 0.58971 0.2641 0.34136 0.0
C287 C 0.56641 0.24546 0.36736 0.0
C288 C 0.6154 0.30719 0.38572 0.0
C289 C 0.56706 0.25936 0.40142 0.0
C290 C 0.65574 0.33761 0.43425 0.0
C291 C 0.69329 0.38387 0.38295 0.0
N292 N 0.59173 0.28919 0.41002 0.0
N293 N 0.66351 0.35955 0.37399 0.0
H294 H 0.32323 0.7141 0.80779 0.0
H295 H 0.31631 0.60273 0.65229 0.0
H296 H 0.28702 0.72017 0.70178 0.0
H297 H 0.29163 0.56498 0.76191 0.0
H298 H 0.30589 0.64624 0.66921 0.0
H299 H 0.31214 0.65947 0.79246 0.0
C300 C 0.3125 0.70369 0.78153 0.0
C301 C 0.30634 0.72163 0.7558 0.0
C302 C 0.30207 0.62801 0.6893 0.0
C303 C 0.29419 0.65981 0.73802 0.0
C304 C 0.30817 0.60337 0.67974 0.0
C305 C 0.30505 0.5806 0.7059 0.0
C306 C 0.29383 0.63033 0.72553 0.0
C307 C 0.29431 0.58222 0.74104 0.0
C308 C 0.306 0.67254 0.77292 0.0
C309 C 0.2922 0.70708 0.72228 0.0
N310 N 0.2898 0.60724 0.75018 0.0
N311 N 0.28727 0.6772 0.71396 0.0
H312 H 0.5452 0.29551 1.03312 0.0
H313 H 0.69806 0.33422 0.98276 0.0
H314 H 0.59509 0.34037 0.13365 0.0
H315 H 0.70816 0.30764 0.09266 0.0
H316 H 0.64385 0.32252 0.99751 0.0
H317 H 0.58884 0.28576 1.01639 0.0
C318 C 0.56504 0.30278 1.05196 0.0
C319 C 0.56697 0.31936 0.08447 0.0
C320 C 0.65757 0.31833 1.01806 0.0
C321 C 0.61658 0.30839 0.06547 0.0
C322 C 0.68853 0.32528 1.00976 0.0
C323 C 0.70741 0.32195 1.03663 0.0
C324 C 0.64588 0.3088 1.05371 0.0
C325 C 0.69414 0.31035 0.07123 0.0
C326 C 0.58992 0.29738 1.04226 0.0
C327 C 0.59306 0.32807 0.108 0.0
N328 N 0.66436 0.30497 0.07914 0.0
N329 N 0.61704 0.32265 0.09791 0.0
H330 H 0.34595 0.70821 0.31855 0.0
H331 H 0.23794 0.60528 0.47458 0.0
H332 H 0.38533 0.71908 0.42718 0.0
H333 H 0.22699 0.56277 0.36742 0.0
H334 H 0.29256 0.64678 0.4586 0.0
H335 H 0.30266 0.65419 0.33494 0.0
C336 C 0.34574 0.6989 0.34563 0.0
C337 C 0.36886 0.71806 0.37175 0.0
C338 C 0.27844 0.62793 0.43891 0.0
C339 C 0.31938 0.65697 0.3908 0.0
C340 C 0.24729 0.60445 0.44791 0.0
C341 C 0.22801 0.58097 0.42206 0.0
C342 C 0.28986 0.62838 0.4035 0.0
C343 C 0.24118 0.58064 0.388 0.0
C344 C 0.32122 0.66809 0.35489 0.0
C345 C 0.36781 0.70497 0.40636 0.0
N346 N 0.27114 0.60457 0.3793 0.0
N347 N 0.3429 0.67544 0.41527 0.0
H348 H 0.64368 0.40007 0.76014 0.0
H349 H 0.65031 0.24412 0.69549 0.0
H350 H 0.61715 0.35971 0.65139 0.0
H351 H 0.61687 0.25223 0.80233 0.0
H352 H 0.65929 0.29805 0.68041 0.0
H353 H 0.65489 0.35681 0.77636 0.0
C354 C 0.641 0.38257 0.73947 0.0
C355 C 0.62912 0.38301 0.70456 0.0
C356 C 0.65063 0.28818 0.70738 0.0
C357 C 0.6423 0.33434 0.72267 0.0
C358 C 0.6456 0.25758 0.71605 0.0
C359 C 0.63242 0.2437 0.75 0.0
C360 C 0.64304 0.30506 0.73315 0.0
C361 C 0.62663 0.26202 0.77567 0.0
C362 C 0.64727 0.35798 0.74878 0.0
C363 C 0.62588 0.35981 0.67875 0.0
N364 N 0.63183 0.29182 0.76664 0.0
N365 N 0.63231 0.33622 0.68838 0.0
H366 H 0.23975 0.63148 0.98626 0.0
H367 H 0.34577 0.62577 0.13976 0.0
H368 H 0.22827 0.65651 0.09651 0.0
H369 H 0.3866 0.66273 1.03355 0.0
H370 H 0.30187 0.63579 0.12532 0.0
H371 H 0.29339 0.64187 1.00241 0.0
C372 C 0.24881 0.63966 1.0137 0.0
C373 C 0.22971 0.64296 1.04023 0.0
C374 C 0.32083 0.64231 0.10554 0.0
C375 C 0.29031 0.65412 1.05897 0.0
C376 C 0.34569 0.63642 0.11364 0.0
C377 C 0.36952 0.64315 0.08762 0.0
C378 C 0.31945 0.65409 0.07084 0.0
C379 C 0.36855 0.65714 1.05428 0.0
C380 C 0.27937 0.64574 1.02282 0.0
C381 C 0.24242 0.65374 0.07535 0.0
N382 N 0.34345 0.66149 1.04646 0.0
N383 N 0.27177 0.65822 0.08403 0.0
H384 H 0.43293 0.04126 0.34814 0.0
H385 H 0.50181 0.92198 0.34964 0.0
H386 H 0.53131 0.07336 0.3201 0.0
H387 H 0.40292 0.88913 0.32288 0.0
H388 H 0.51346 0.97807 0.34443 0.0
H389 H 0.4212 -0.01495 0.34445 0.0
C390 C 0.45195 0.03647 0.34092 0.0
C391 C 0.4831 0.06195 0.33441 0.0
C392 C 0.48931 0.9585 0.33936 0.0
C393 C 0.47005 -0.00193 0.33084 0.0
C394 C 0.48265 0.92657 0.34241 0.0
C395 C 0.45138 0.90092 0.33668 0.0
C396 C 0.46437 0.96468 0.33134 0.0
C397 C 0.4274 0.90819 0.32738 0.0
C398 C 0.44526 0.00448 0.33875 0.0
C399 C 0.50691 0.05443 0.32517 0.0
N400 N 0.43431 0.93941 0.32544 0.0
N401 N 0.49998 0.02316 0.32412 0.0
H402 H 0.37231 0.44504 0.68076 0.0
H403 H 0.55959 0.51649 0.67884 0.0
H404 H 0.43777 0.54446 0.65178 0.0
H405 H 0.49367 0.41634 0.65249 0.0
H406 H 0.51522 0.52756 0.67435 0.0
H407 H 0.41651 0.43372 0.67581 0.0
C408 C 0.39586 0.46437 0.67305 0.0
C409 C 0.40138 0.4957 0.66667 0.0
C410 C 0.51064 0.50326 0.66919 0.0
C411 C 0.45192 0.48313 0.66168 0.0
C412 C 0.53588 0.49694 0.6718 0.0
C413 C 0.5303 0.46548 0.66601 0.0
C414 C 0.47956 0.4778 0.66155 0.0
C415 C 0.49909 0.44099 0.65701 0.0
C416 C 0.42101 0.45791 0.67017 0.0
C417 C 0.4324 0.51991 0.6568 0.0
N418 N 0.47479 0.44757 0.65552 0.0
N419 N 0.4566 0.51322 0.65507 0.0
H420 H 0.90886 0.38936 1.01439 0.0
H421 H 0.02882 0.57795 1.01599 0.0
H422 H 0.8777 0.45753 0.98851 0.0
H423 H 0.05958 0.50995 0.98737 0.0
H424 H -0.02704 0.53413 1.01117 0.0
H425 H 0.96464 0.43329 1.0098 0.0
C426 C 0.91375 0.41347 1.00746 0.0
C427 C 0.88866 0.41983 1.00183 0.0
C428 C -0.00798 0.52899 1.00558 0.0
C429 C 0.9521 0.47004 0.99721 0.0
C430 C 0.02382 0.55392 1.00839 0.0
C431 C 0.04883 0.54757 1.00209 0.0
C432 C -0.01468 0.49746 0.99723 0.0
C433 C 0.04103 0.51596 0.99234 0.0
C434 C 0.94551 0.43845 1.00477 0.0
C435 C 0.89632 0.45152 0.99293 0.0
N436 N 0.00996 0.49198 0.99067 0.0
N437 N 0.92737 0.47555 0.99135 0.0
H438 H 0.05948 0.54981 0.47213 0.0
H439 H 0.87427 0.41683 0.47101 0.0
H440 H 0.02534 0.44968 0.44491 0.0
H441 H 0.90841 0.51689 0.44412 0.0
H442 H 0.92969 0.4288 0.47585 0.0
H443 H 0.00404 0.53791 0.47624 0.0
C444 C 0.04033 0.52521 0.46749 0.0
C445 C 0.04701 0.50067 0.45802 0.0
C446 C 0.92499 0.44813 0.46916 0.0
C447 C -0.01632 0.48703 0.46289 0.0
C448 C 0.89342 0.44143 0.4666 0.0
C449 C 0.88673 0.46593 0.457 0.0
C450 C 0.95006 0.47964 0.4627 0.0
C451 C 0.91251 0.49729 0.4514 0.0
C452 C 0.00875 0.51855 0.46964 0.0
C453 C 0.02124 0.46931 0.45211 0.0
N454 N 0.94313 0.50329 0.45438 0.0
N455 N -0.00938 0.46335 0.45469 0.0
H456 H 0.5453 0.04731 0.72429 0.0
H457 H 0.41463 0.90216 0.8391 0.0
H458 H 0.5258 0.0645 0.83474 0.0
H459 H 0.39657 0.91722 0.72724 0.0
H460 H 0.46199 0.95678 0.83989 0.0
H461 H 0.49783 -0.00698 0.72659 0.0
C462 C 0.53141 0.03937 0.74926 0.0
C463 C 0.53937 0.06023 0.77941 0.0
C464 C 0.44739 0.9481 0.81538 0.0
C465 C 0.4855 -0.00139 0.78214 0.0
C466 C 0.42046 0.91715 0.81492 0.0
C467 C 0.40165 0.90547 0.78316 0.0
C468 C 0.45603 0.96681 0.78347 0.0
C469 C 0.41026 0.92559 0.7524 0.0
C470 C 0.50423 0.00867 0.75036 0.0
C471 C 0.52034 0.04903 0.81094 0.0
N472 N 0.43719 0.95517 0.7531 0.0
N473 N 0.49428 0.01879 0.81161 0.0
H474 H 0.47998 0.55876 1.05866 0.0
H475 H 0.49699 0.42796 0.17123 0.0
H476 H 0.44401 0.53767 0.16916 0.0
H477 H 0.46248 0.40968 1.05982 0.0
H478 H 0.4895 0.47529 0.17289 0.0
H479 H 0.48765 0.51168 1.06036 0.0
C480 C 0.47437 0.54462 0.08352 0.0
C481 C 0.4614 0.55198 0.11385 0.0
C482 C 0.48336 0.46065 0.14829 0.0
C483 C 0.47013 0.49858 0.1159 0.0
C484 C 0.48751 0.43374 0.14733 0.0
C485 C 0.48004 0.41488 0.11544 0.0
C486 C 0.47278 0.4692 0.11674 0.0
C487 C 0.4681 0.42342 0.08506 0.0
C488 C 0.47839 0.51767 0.08429 0.0
C489 C 0.45404 0.53265 0.14523 0.0
N490 N 0.46529 0.45032 0.08624 0.0
N491 N 0.45867 0.50682 0.14556 0.0
H492 H 0.42373 0.19191 0.33238 0.0
H493 H 0.42519 0.22477 0.1176 0.0
H494 H 0.45392 0.14708 0.25124 0.0
H495 H 0.45065 0.2987 0.1998 0.0
H496 H 0.41454 0.18524 0.16637 0.0
H497 H 0.41241 0.21983 0.28319 0.0
C498 C 0.42696 0.18711 0.30418 0.0
C499 C 0.43998 0.16736 0.29579 0.0
C500 C 0.42164 0.20996 0.17363 0.0
C501 C 0.42693 0.19892 0.23972 0.0
C502 C 0.42747 0.23242 0.14591 0.0
C503 C 0.43898 0.26503 0.15478 0.0
C504 C 0.42671 0.22013 0.21034 0.0
C505 C 0.44199 0.2738 0.19188 0.0
C506 C 0.42072 0.20321 0.27623 0.0
C507 C 0.4441 0.1623 0.25882 0.0
N508 N 0.43608 0.25152 0.21833 0.0
N509 N 0.43779 0.17814 0.23212 0.0
H510 H 0.13013 0.46925 0.5401 0.0
H511 H 0.21268 0.43303 0.66933 0.0
H512 H 0.17615 0.44051 0.45928 0.0
H513 H 0.28506 0.47323 0.58549 0.0
H514 H 0.17172 0.42257 0.62284 0.0
H515 H 0.1581 0.45756 0.58839 0.0
C516 C 0.14544 0.45957 0.53263 0.0
C517 C 0.15074 0.45567 0.49572 0.0
C518 C 0.19653 0.43322 0.61463 0.0
C519 C 0.18333 0.4429 0.55068 0.0
C520 C 0.21985 0.43886 0.64102 0.0
C521 C 0.25234 0.45438 0.63128 0.0
C522 C 0.20581 0.4428 0.57827 0.0
C523 C 0.26031 0.46157 0.59421 0.0
C524 C 0.16129 0.45278 0.56018 0.0
C525 C 0.17115 0.44349 0.48745 0.0
N526 N 0.23723 0.45589 0.56907 0.0
N527 N 0.18741 0.43837 0.51469 0.0
H528 H 0.7599 0.2301 0.99841 0.0
H529 H 0.72709 0.19853 0.78339 0.0
H530 H 0.80163 0.30613 0.91806 0.0
H531 H 0.65446 0.14798 0.86501 0.0
H532 H 0.76577 0.2285 0.83247 0.0
H533 H 0.73264 0.1907 0.94888 0.0
C534 C 0.7641 0.23836 0.9703 0.0
C535 C 0.78285 0.27143 0.96227 0.0
C536 C 0.74156 0.21022 0.83954 0.0
C537 C 0.75207 0.22661 0.90578 0.0
C538 C 0.71959 0.19294 0.81164 0.0
C539 C 0.68755 0.17087 0.82025 0.0
C540 C 0.7315 0.20481 0.87618 0.0
C541 C 0.67893 0.16491 0.85729 0.0
C542 C 0.74839 0.21593 0.94216 0.0
C543 C 0.78718 0.28087 0.9254 0.0
N544 N 0.70073 0.1819 0.88392 0.0
N545 N 0.77178 0.2586 0.8985 0.0
H546 H 0.51054 0.74047 0.11904 0.0
H547 H 0.51222 0.77241 0.33428 0.0
H548 H 0.48759 0.6667 0.20026 0.0
H549 H 0.4798 0.81579 0.25399 0.0
H550 H 0.52406 0.74518 0.28463 0.0
H551 H 0.52023 0.7795 0.16834 0.0
C552 C 0.50861 0.73278 0.14724 0.0
C553 C 0.49809 0.70032 0.15568 0.0
C554 C 0.51511 0.76132 0.27796 0.0
C555 C 0.50924 0.74467 0.21185 0.0
C556 C 0.50857 0.77702 0.30617 0.0
C557 C 0.49481 0.79617 0.29816 0.0
C558 C 0.50847 0.76542 0.24156 0.0
C559 C 0.49018 0.80102 0.26129 0.0
C560 C 0.51388 0.75495 0.17526 0.0
C561 C 0.4955 0.69149 0.19267 0.0
N562 N 0.49682 0.78559 0.23433 0.0
N563 N 0.50085 0.71349 0.21942 0.0
H564 H 0.64462 0.49614 0.58455 0.0
H565 H 0.76281 0.53155 0.45557 0.0
H566 H 0.71883 0.52282 0.66556 0.0
H567 H 0.79375 0.48897 0.53855 0.0
H568 H 0.73267 0.54221 0.50233 0.0
H569 H 0.684 0.50736 0.53633 0.0
C570 C 0.66944 0.50527 0.59208 0.0
C571 C 0.67857 0.50876 0.62902 0.0
C572 C 0.74649 0.53099 0.51029 0.0
C573 C 0.72359 0.52096 0.57413 0.0
C574 C 0.76396 0.52523 0.48376 0.0
C575 C 0.78049 0.50901 0.49316 0.0
C576 C 0.74596 0.52083 0.54648 0.0
C577 C 0.78101 0.50119 0.53009 0.0
C578 C 0.69193 0.5118 0.56457 0.0
C579 C 0.71093 0.52021 0.63737 0.0
N580 N 0.76384 0.50702 0.55538 0.0
N581 N 0.73214 0.52506 0.61015 0.0
H582 H 0.18039 0.73703 1.00251 0.0
H583 H 0.21322 0.7699 0.788 0.0
H584 H 0.13667 0.66193 0.92072 0.0
H585 H 0.28657 0.81798 0.87012 0.0
H586 H 0.17434 0.7404 0.83672 0.0
H587 H 0.20846 0.7766 0.9537 0.0
C588 C 0.17593 0.72905 0.97425 0.0
C589 C 0.15637 0.69616 0.96558 0.0
C590 C 0.19878 0.75805 0.84399 0.0
C591 C 0.18806 0.74116 0.90992 0.0
C592 C 0.22088 0.77506 0.81631 0.0
C593 C 0.25314 0.79626 0.82513 0.0
C594 C 0.20895 0.76287 0.88066 0.0
C595 C 0.26192 0.8017 0.86222 0.0
C596 C 0.1921 0.75157 0.94651 0.0
C597 C 0.15173 0.68705 0.92853 0.0
N598 N 0.24 0.78498 0.88866 0.0
N599 N 0.16758 0.7094 0.90204 0.0
loop_
_geom_bond_atom_site_label_1
_geom_bond_atom_site_label_2
_geom_bond_distance
_geom_bond_site_symmetry_2
_ccdc_geom_bond_type
C0 O2 1.247 . S
C0 O4 1.258 . S
C1 O8 1.247 . S
C1 O9 1.258 . S
O2 C0 1.247 . S
O2 Zn3 2.028 . S
Zn3 O2 2.028 . S
Zn3 O7 2.035 . S
Zn3 O9 2.035 . S
Zn3 O10 2.028 . S
O4 C0 1.258 . S
O4 Zn5 2.035 . S
Zn5 O4 2.035 . S
Zn5 O6 2.028 . S
Zn5 O8 2.028 . S
Zn5 O11 2.035 . S
O6 Zn5 2.028 . S
O6 C12 1.247 . S
O7 Zn3 2.035 . S
O7 C12 1.258 . S
O8 C1 1.247 . S
O8 Zn5 2.028 . S
O9 C1 1.258 . S
O9 Zn3 2.035 . S
O10 Zn3 2.028 . S
O10 C13 1.247 . S
O11 Zn5 2.035 . S
O11 C13 1.258 . S
C12 O6 1.247 . S
C12 O7 1.258 . S
C13 O10 1.247 . S
C13 O11 1.258 . S
C14 O16 1.247 . S
C14 O18 1.258 . S
C15 O22 1.247 . S
C15 O23 1.258 . S
O16 C14 1.247 . S
O16 Zn17 2.028 . S
Zn17 O16 2.028 . S
Zn17 O21 2.035 . S
Zn17 O23 2.035 . S
Zn17 O24 2.028 . S
O18 C14 1.258 . S
O18 Zn19 2.035 . S
Zn19 O18 2.035 . S
Zn19 O20 2.028 . S
Zn19 O22 2.028 . S
Zn19 O25 2.035 . S
O20 Zn19 2.028 . S
O20 C26 1.247 . S
O21 Zn17 2.035 . S
O21 C26 1.258 . S
O22 C15 1.247 . S
O22 Zn19 2.028 . S
O23 C15 1.258 . S
O23 Zn17 2.035 . S
O24 Zn17 2.028 . S
O24 C27 1.247 . S
O25 Zn19 2.035 . S
O25 C27 1.258 . S
C26 O20 1.247 . S
C26 O21 1.258 . S
C27 O24 1.247 . S
C27 O25 1.258 . S
C28 O30 1.247 . S
C28 O32 1.258 . S
C29 O36 1.247 . S
C29 O37 1.258 . S
O30 C28 1.247 . S
O30 Zn31 2.028 . S
Zn31 O30 2.028 . S
Zn31 O35 2.035 . S
Zn31 O37 2.035 1_554 S
Zn31 O38 2.028 . S
O32 C28 1.258 . S
O32 Zn33 2.035 1_554 S
Zn33 O32 2.035 1_556 S
Zn33 O34 2.028 . S
Zn33 O36 2.028 . S
Zn33 O39 2.035 . S
O34 Zn33 2.028 . S
O34 C40 1.247 1_556 S
O35 Zn31 2.035 . S
O35 C40 1.258 . S
O36 C29 1.247 . S
O36 Zn33 2.028 . S
O37 C29 1.258 . S
O37 Zn31 2.035 1_556 S
O38 Zn31 2.028 . S
O38 C41 1.247 1_554 S
O39 Zn33 2.035 . S
O39 C41 1.258 . S
C40 O34 1.247 1_554 S
C40 O35 1.258 . S
C41 O38 1.247 1_556 S
C41 O39 1.258 . S
C42 O44 1.247 . S
C42 O46 1.258 . S
C43 O50 1.247 . S
C43 O51 1.258 . S
O44 C42 1.247 . S
O44 Zn45 2.028 . S
Zn45 O44 2.028 . S
Zn45 O49 2.035 . S
Zn45 O51 2.035 . S
Zn45 O52 2.028 . S
O46 C42 1.258 . S
O46 Zn47 2.035 . S
Zn47 O46 2.035 . S
Zn47 O48 2.028 . S
Zn47 O50 2.028 . S
Zn47 O53 2.035 . S
O48 Zn47 2.028 . S
O48 C54 1.247 . S
O49 Zn45 2.035 . S
O49 C54 1.258 . S
O50 C43 1.247 . S
O50 Zn47 2.028 . S
O51 C43 1.258 . S
O51 Zn45 2.035 . S
O52 Zn45 2.028 . S
O52 C55 1.247 . S
O53 Zn47 2.035 . S
O53 C55 1.258 . S
C54 O48 1.247 . S
C54 O49 1.258 . S
C55 O52 1.247 . S
C55 O53 1.258 . S
C56 O58 1.247 . S
C56 O60 1.258 . S
C57 O64 1.247 . S
C57 O65 1.258 . S
O58 C56 1.247 . S
O58 Zn59 2.028 . S
Zn59 O58 2.028 . S
Zn59 O63 2.035 . S
Zn59 O65 2.035 . S
Zn59 O66 2.028 . S
O60 C56 1.258 . S
O60 Zn61 2.035 . S
Zn61 O60 2.035 . S
Zn61 O62 2.028 . S
Zn61 O64 2.028 . S
Zn61 O67 2.035 . S
O62 Zn61 2.028 . S
O62 C68 1.247 . S
O63 Zn59 2.035 . S
O63 C68 1.258 . S
O64 C57 1.247 . S
O64 Zn61 2.028 . S
O65 C57 1.258 . S
O65 Zn59 2.035 . S
O66 Zn59 2.028 . S
O66 C69 1.247 . S
O67 Zn61 2.035 . S
O67 C69 1.258 . S
C68 O62 1.247 . S
C68 O63 1.258 . S
C69 O66 1.247 . S
C69 O67 1.258 . S
C70 O72 1.247 . S
C70 O74 1.258 . S
C71 O78 1.247 . S
C71 O79 1.258 . S
O72 C70 1.247 . S
O72 Zn73 2.028 . S
Zn73 O72 2.028 . S
Zn73 O77 2.035 . S
Zn73 O79 2.035 1_554 S
Zn73 O80 2.028 . S
O74 C70 1.258 . S
O74 Zn75 2.035 1_554 S
Zn75 O74 2.035 1_556 S
Zn75 O76 2.028 . S
Zn75 O78 2.028 . S
Zn75 O81 2.035 . S
O76 Zn75 2.028 . S
O76 C82 1.247 1_556 S
O77 Zn73 2.035 . S
O77 C82 1.258 . S
O78 C71 1.247 . S
O78 Zn75 2.028 . S
O79 C71 1.258 . S
O79 Zn73 2.035 1_556 S
O80 Zn73 2.028 . S
O80 C83 1.247 1_554 S
O81 Zn75 2.035 . S
O81 C83 1.258 . S
C82 O76 1.247 1_554 S
C82 O77 1.258 . S
C83 O80 1.247 1_556 S
C83 O81 1.258 . S
C84 O86 1.247 . S
C84 O88 1.258 . S
C85 O92 1.247 . S
C85 O93 1.258 . S
O86 C84 1.247 . S
O86 Zn87 2.028 . S
Zn87 O86 2.028 . S
Zn87 O91 2.035 . S
Zn87 O93 2.035 . S
Zn87 O94 2.028 . S
O88 C84 1.258 . S
O88 Zn89 2.035 . S
Zn89 O88 2.035 . S
Zn89 O90 2.028 . S
Zn89 O92 2.028 . S
Zn89 O95 2.035 . S
O90 Zn89 2.028 . S
O90 C96 1.247 . S
O91 Zn87 2.035 . S
O91 C96 1.258 . S
O92 C85 1.247 . S
O92 Zn89 2.028 . S
O93 C85 1.258 . S
O93 Zn87 2.035 . S
O94 Zn87 2.028 . S
O94 C97 1.247 . S
O95 Zn89 2.035 . S
O95 C97 1.258 . S
C96 O90 1.247 . S
C96 O91 1.258 . S
C97 O94 1.247 . S
C97 O95 1.258 . S
C98 O100 1.247 . S
C98 O102 1.258 . S
C99 O106 1.247 . S
C99 O107 1.258 . S
O100 C98 1.247 . S
O100 Zn101 2.028 . S
Zn101 O100 2.028 . S
Zn101 O105 2.035 . S
Zn101 O107 2.035 . S
Zn101 O108 2.028 . S
O102 C98 1.258 . S
O102 Zn103 2.035 . S
Zn103 O102 2.035 . S
Zn103 O104 2.028 . S
Zn103 O106 2.028 . S
Zn103 O109 2.035 . S
O104 Zn103 2.028 . S
O104 C110 1.247 . S
O105 Zn101 2.035 . S
O105 C110 1.258 . S
O106 C99 1.247 . S
O106 Zn103 2.028 . S
O107 C99 1.258 . S
O107 Zn101 2.035 . S
O108 Zn101 2.028 . S
O108 C111 1.247 . S
O109 Zn103 2.035 . S
O109 C111 1.258 . S
C110 O104 1.247 . S
C110 O105 1.258 . S
C111 O108 1.247 . S
C111 O109 1.258 . S
C112 O114 1.247 . S
C112 O116 1.258 . S
C113 O120 1.247 . S
C113 O121 1.258 . S
O114 C112 1.247 . S
O114 Zn115 2.028 . S
Zn115 O114 2.028 . S
Zn115 O119 2.035 . S
Zn115 O121 2.035 1_556 S
Zn115 O122 2.028 . S
O116 C112 1.258 . S
O116 Zn117 2.035 1_556 S
Zn117 O116 2.035 1_554 S
Zn117 O118 2.028 . S
Zn117 O120 2.028 . S
Zn117 O123 2.035 . S
O118 Zn117 2.028 . S
O118 C124 1.247 1_554 S
O119 Zn115 2.035 . S
O119 C124 1.258 . S
O120 C113 1.247 . S
O120 Zn117 2.028 . S
O121 C113 1.258 . S
O121 Zn115 2.035 1_554 S
O122 Zn115 2.028 . S
O122 C125 1.247 1_556 S
O123 Zn117 2.035 . S
O123 C125 1.258 . S
C124 O118 1.247 1_556 S
C124 O119 1.258 . S
C125 O122 1.247 1_554 S
C125 O123 1.258 . S
C126 O128 1.247 . S
C126 O130 1.258 . S
C127 O134 1.247 . S
C127 O135 1.258 . S
O128 C126 1.247 . S
O128 Zn129 2.028 . S
Zn129 O128 2.028 . S
Zn129 O133 2.035 . S
Zn129 O135 2.035 . S
Zn129 O136 2.028 . S
O130 C126 1.258 . S
O130 Zn131 2.035 . S
Zn131 O130 2.035 . S
Zn131 O132 2.028 . S
Zn131 O134 2.028 . S
Zn131 O137 2.035 . S
O132 Zn131 2.028 . S
O132 C138 1.247 . S
O133 Zn129 2.035 . S
O133 C138 1.258 . S
O134 C127 1.247 . S
O134 Zn131 2.028 . S
O135 C127 1.258 . S
O135 Zn129 2.035 . S
O136 Zn129 2.028 . S
O136 C139 1.247 . S
O137 Zn131 2.035 . S
O137 C139 1.258 . S
C138 O132 1.247 . S
C138 O133 1.258 . S
C139 O136 1.247 . S
C139 O137 1.258 . S
C140 O142 1.247 . S
C140 O144 1.258 . S
C141 O148 1.247 . S
C141 O149 1.258 . S
O142 C140 1.247 . S
O142 Zn143 2.028 . S
Zn143 O142 2.028 . S
Zn143 O147 2.035 . S
Zn143 O149 2.035 . S
Zn143 O150 2.028 . S
O144 C140 1.258 . S
O144 Zn145 2.035 . S
Zn145 O144 2.035 . S
Zn145 O146 2.028 . S
Zn145 O148 2.028 . S
Zn145 O151 2.035 . S
O146 Zn145 2.028 . S
O146 C152 1.247 . S
O147 Zn143 2.035 . S
O147 C152 1.258 . S
O148 C141 1.247 . S
O148 Zn145 2.028 . S
O149 C141 1.258 . S
O149 Zn143 2.035 . S
O150 Zn143 2.028 . S
O150 C153 1.247 . S
O151 Zn145 2.035 . S
O151 C153 1.258 . S
C152 O146 1.247 . S
C152 O147 1.258 . S
C153 O150 1.247 . S
C153 O151 1.258 . S
C154 O156 1.247 . S
C154 O158 1.258 . S
C155 O162 1.247 . S
C155 O163 1.258 . S
O156 C154 1.247 . S
O156 Zn157 2.028 . S
Zn157 O156 2.028 . S
Zn157 O161 2.035 . S
Zn157 O163 2.035 1_556 S
Zn157 O164 2.028 . S
O158 C154 1.258 . S
O158 Zn159 2.035 1_556 S
Zn159 O158 2.035 1_554 S
Zn159 O160 2.028 . S
Zn159 O162 2.028 . S
Zn159 O165 2.035 . S
O160 Zn159 2.028 . S
O160 C166 1.247 1_554 S
O161 Zn157 2.035 . S
O161 C166 1.258 . S
O162 C155 1.247 . S
O162 Zn159 2.028 . S
O163 C155 1.258 . S
O163 Zn157 2.035 1_554 S
O164 Zn157 2.028 . S
O164 C167 1.247 1_556 S
O165 Zn159 2.035 . S
O165 C167 1.258 . S
C166 O160 1.247 1_556 S
C166 O161 1.258 . S
C167 O164 1.247 1_554 S
C167 O165 1.258 . S
H168 C174 0.930 . S
H169 C178 0.930 . S
H170 C183 0.929 . S
H171 C181 0.929 . S
H172 C176 0.929 . S
H173 C182 0.929 . S
C174 H168 0.930 . S
C174 C175 1.367 . S
C174 C182 1.378 . S
C175 C174 1.367 . S
C175 C183 1.433 . S
C176 H172 0.929 . S
C176 C178 1.378 . S
C176 C180 1.350 . S
C177 C180 1.463 . S
C177 C182 1.350 . S
C177 N185 1.427 . S
C178 H169 0.930 . S
C178 C176 1.378 . S
C178 C179 1.367 . S
C179 C178 1.367 . S
C179 C181 1.433 . S
C180 C176 1.350 . S
C180 C177 1.463 . S
C180 N184 1.427 . S
C181 H171 0.929 . S
C181 C179 1.433 . S
C181 N184 1.384 . S
C182 H173 0.929 . S
C182 C174 1.378 . S
C182 C177 1.350 . S
C183 H170 0.929 . S
C183 C175 1.433 . S
C183 N185 1.384 . S
N184 C180 1.427 . S
N184 C181 1.384 . S
N185 C177 1.427 . S
N185 C183 1.384 . S
H186 C192 0.930 . S
H187 C196 0.930 . S
H188 C201 0.929 . S
H189 C199 0.929 . S
H190 C194 0.929 . S
H191 C200 0.929 . S
C192 H186 0.930 . S
C192 C193 1.367 . S
C192 C200 1.378 . S
C193 C192 1.367 . S
C193 C201 1.433 . S
C194 H190 0.929 . S
C194 C196 1.378 . S
C194 C198 1.350 . S
C195 C198 1.463 . S
C195 C200 1.350 . S
C195 N203 1.427 . S
C196 H187 0.930 . S
C196 C194 1.378 . S
C196 C197 1.367 . S
C197 C196 1.367 . S
C197 C199 1.433 . S
C198 C194 1.350 . S
C198 C195 1.463 . S
C198 N202 1.427 . S
C199 H189 0.929 . S
C199 C197 1.433 . S
C199 N202 1.384 . S
C200 H191 0.929 . S
C200 C192 1.378 . S
C200 C195 1.350 . S
C201 H188 0.929 . S
C201 C193 1.433 . S
C201 N203 1.384 . S
N202 C198 1.427 . S
N202 C199 1.384 . S
N203 C195 1.427 . S
N203 C201 1.384 . S
H204 C210 0.930 . S
H205 C214 0.930 . S
H206 C219 0.929 . S
H207 C217 0.929 . S
H208 C212 0.929 . S
H209 C218 0.929 . S
C210 H204 0.930 . S
C210 C211 1.367 . S
C210 C218 1.378 . S
C211 C210 1.367 . S
C211 C219 1.433 . S
C212 H208 0.929 . S
C212 C214 1.378 . S
C212 C216 1.350 . S
C213 C216 1.463 . S
C213 C218 1.350 . S
C213 N221 1.427 . S
C214 H205 0.930 . S
C214 C212 1.378 . S
C214 C215 1.367 . S
C215 C214 1.367 . S
C215 C217 1.433 . S
C216 C212 1.350 . S
C216 C213 1.463 . S
C216 N220 1.427 . S
C217 H207 0.929 . S
C217 C215 1.433 . S
C217 N220 1.384 . S
C218 H209 0.929 . S
C218 C210 1.378 . S
C218 C213 1.350 . S
C219 H206 0.929 . S
C219 C211 1.433 . S
C219 N221 1.384 . S
N220 C216 1.427 . S
N220 C217 1.384 . S
N221 C213 1.427 . S
N221 C219 1.384 . S
H222 C228 0.930 . S
H223 C232 0.930 . S
H224 C237 0.929 . S
H225 C235 0.929 . S
H226 C230 0.929 . S
H227 C236 0.929 . S
C228 H222 0.930 . S
C228 C229 1.367 . S
C228 C236 1.378 . S
C229 C228 1.367 . S
C229 C237 1.433 . S
C230 H226 0.929 . S
C230 C232 1.378 . S
C230 C234 1.350 . S
C231 C234 1.463 . S
C231 C236 1.350 . S
C231 N239 1.427 . S
C232 H223 0.930 . S
C232 C230 1.378 . S
C232 C233 1.367 . S
C233 C232 1.367 . S
C233 C235 1.433 . S
C234 C230 1.350 . S
C234 C231 1.463 . S
C234 N238 1.427 . S
C235 H225 0.929 . S
C235 C233 1.433 . S
C235 N238 1.384 . S
C236 H227 0.929 . S
C236 C228 1.378 . S
C236 C231 1.350 . S
C237 H224 0.929 . S
C237 C229 1.433 . S
C237 N239 1.384 . S
N238 C234 1.427 . S
N238 C235 1.384 . S
N239 C231 1.427 . S
N239 C237 1.384 . S
H240 C246 0.930 . S
H241 C250 0.930 . S
H242 C255 0.929 . S
H243 C253 0.929 . S
H244 C248 0.929 . S
H245 C254 0.929 . S
C246 H240 0.930 . S
C246 C247 1.367 . S
C246 C254 1.378 . S
C247 C246 1.367 . S
C247 C255 1.433 . S
C248 H244 0.929 . S
C248 C250 1.378 . S
C248 C252 1.350 . S
C249 C252 1.463 . S
C249 C254 1.350 . S
C249 N257 1.427 . S
C250 H241 0.930 . S
C250 C248 1.378 . S
C250 C251 1.367 . S
C251 C250 1.367 . S
C251 C253 1.433 . S
C252 C248 1.350 . S
C252 C249 1.463 . S
C252 N256 1.427 . S
C253 H243 0.929 . S
C253 C251 1.433 . S
C253 N256 1.384 . S
C254 H245 0.929 . S
C254 C246 1.378 . S
C254 C249 1.350 . S
C255 H242 0.929 . S
C255 C247 1.433 . S
C255 N257 1.384 . S
N256 C252 1.427 . S
N256 C253 1.384 . S
N257 C249 1.427 . S
N257 C255 1.384 . S
H258 C264 0.930 . S
H259 C268 0.930 . S
H260 C273 0.929 . S
H261 C271 0.929 . S
H262 C266 0.929 . S
H263 C272 0.929 . S
C264 H258 0.930 . S
C264 C265 1.367 . S
C264 C272 1.378 . S
C265 C264 1.367 . S
C265 C273 1.433 . S
C266 H262 0.929 . S
C266 C268 1.378 . S
C266 C270 1.350 . S
C267 C270 1.463 . S
C267 C272 1.350 . S
C267 N275 1.427 . S
C268 H259 0.930 . S
C268 C266 1.378 . S
C268 C269 1.367 . S
C269 C268 1.367 . S
C269 C271 1.433 . S
C270 C266 1.350 . S
C270 C267 1.463 . S
C270 N274 1.427 . S
C271 H261 0.929 . S
C271 C269 1.433 . S
C271 N274 1.384 . S
C272 H263 0.929 . S
C272 C264 1.378 . S
C272 C267 1.350 . S
C273 H260 0.929 . S
C273 C265 1.433 . S
C273 N275 1.384 . S
N274 C270 1.427 . S
N274 C271 1.384 . S
N275 C267 1.427 . S
N275 C273 1.384 . S
H276 C282 0.930 . S
H277 C286 0.930 . S
H278 C291 0.929 . S
H279 C289 0.929 . S
H280 C284 0.929 . S
H281 C290 0.929 . S
C282 H276 0.930 . S
C282 C283 1.367 . S
C282 C290 1.378 . S
C283 C282 1.367 . S
C283 C291 1.433 . S
C284 H280 0.929 . S
C284 C286 1.378 . S
C284 C288 1.350 . S
C285 C288 1.463 . S
C285 C290 1.350 . S
C285 N293 1.427 . S
C286 H277 0.930 . S
C286 C284 1.378 . S
C286 C287 1.367 . S
C287 C286 1.367 . S
C287 C289 1.433 . S
C288 C284 1.350 . S
C288 C285 1.463 . S
C288 N292 1.427 . S
C289 H279 0.929 . S
C289 C287 1.433 . S
C289 N292 1.384 . S
C290 H281 0.929 . S
C290 C282 1.378 . S
C290 C285 1.350 . S
C291 H278 0.929 . S
C291 C283 1.433 . S
C291 N293 1.384 . S
N292 C288 1.427 . S
N292 C289 1.384 . S
N293 C285 1.427 . S
N293 C291 1.384 . S
H294 C300 0.930 . S
H295 C304 0.930 . S
H296 C309 0.929 . S
H297 C307 0.929 . S
H298 C302 0.929 . S
H299 C308 0.929 . S
C300 H294 0.930 . S
C300 C301 1.367 . S
C300 C308 1.378 . S
C301 C300 1.367 . S
C301 C309 1.433 . S
C302 H298 0.929 . S
C302 C304 1.378 . S
C302 C306 1.350 . S
C303 C306 1.463 . S
C303 C308 1.350 . S
C303 N311 1.427 . S
C304 H295 0.930 . S
C304 C302 1.378 . S
C304 C305 1.367 . S
C305 C304 1.367 . S
C305 C307 1.433 . S
C306 C302 1.350 . S
C306 C303 1.463 . S
C306 N310 1.427 . S
C307 H297 0.929 . S
C307 C305 1.433 . S
C307 N310 1.384 . S
C308 H299 0.929 . S
C308 C300 1.378 . S
C308 C303 1.350 . S
C309 H296 0.929 . S
C309 C301 1.433 . S
C309 N311 1.384 . S
N310 C306 1.427 . S
N310 C307 1.384 . S
N311 C303 1.427 . S
N311 C309 1.384 . S
H312 C318 0.930 . S
H313 C322 0.930 . S
H314 C327 0.929 . S
H315 C325 0.929 . S
H316 C320 0.929 . S
H317 C326 0.929 . S
C318 H312 0.930 . S
C318 C319 1.367 . S
C318 C326 1.378 . S
C319 C318 1.367 . S
C319 C327 1.433 1_556 S
C320 H316 0.929 . S
C320 C322 1.378 . S
C320 C324 1.353 . S
C321 C324 1.462 1_556 S
C321 C326 1.351 . S
C321 N329 1.426 1_556 S
C322 H313 0.930 . S
C322 C320 1.378 . S
C322 C323 1.367 . S
C323 C322 1.367 . S
C323 C325 1.433 1_554 S
C324 C320 1.353 . S
C324 C321 1.462 1_554 S
C324 N328 1.425 1_554 S
C325 H315 0.929 . S
C325 C323 1.433 1_556 S
C325 N328 1.384 . S
C326 H317 0.929 . S
C326 C318 1.378 . S
C326 C321 1.351 . S
C327 H314 0.929 . S
C327 C319 1.433 1_554 S
C327 N329 1.384 . S
N328 C324 1.425 1_556 S
N328 C325 1.384 . S
N329 C321 1.426 1_554 S
N329 C327 1.384 . S
H330 C336 0.930 . S
H331 C340 0.930 . S
H332 C345 0.929 . S
H333 C343 0.929 . S
H334 C338 0.929 . S
H335 C344 0.929 . S
C336 H330 0.930 . S
C336 C337 1.367 . S
C336 C344 1.378 . S
C337 C336 1.367 . S
C337 C345 1.433 . S
C338 H334 0.929 . S
C338 C340 1.378 . S
C338 C342 1.350 . S
C339 C342 1.463 . S
C339 C344 1.350 . S
C339 N347 1.427 . S
C340 H331 0.930 . S
C340 C338 1.378 . S
C340 C341 1.367 . S
C341 C340 1.367 . S
C341 C343 1.433 . S
C342 C338 1.350 . S
C342 C339 1.463 . S
C342 N346 1.427 . S
C343 H333 0.929 . S
C343 C341 1.433 . S
C343 N346 1.384 . S
C344 H335 0.929 . S
C344 C336 1.378 . S
C344 C339 1.350 . S
C345 H332 0.929 . S
C345 C337 1.433 . S
C345 N347 1.384 . S
N346 C342 1.427 . S
N346 C343 1.384 . S
N347 C339 1.427 . S
N347 C345 1.384 . S
H348 C354 0.930 . S
H349 C358 0.930 . S
H350 C363 0.929 . S
H351 C361 0.929 . S
H352 C356 0.929 . S
H353 C362 0.929 . S
C354 H348 0.930 . S
C354 C355 1.367 . S
C354 C362 1.378 . S
C355 C354 1.367 . S
C355 C363 1.433 . S
C356 H352 0.929 . S
C356 C358 1.378 . S
C356 C360 1.350 . S
C357 C360 1.463 . S
C357 C362 1.350 . S
C357 N365 1.427 . S
C358 H349 0.930 . S
C358 C356 1.378 . S
C358 C359 1.367 . S
C359 C358 1.367 . S
C359 C361 1.433 . S
C360 C356 1.350 . S
C360 C357 1.463 . S
C360 N364 1.427 . S
C361 H351 0.929 . S
C361 C359 1.433 . S
C361 N364 1.384 . S
C362 H353 0.929 . S
C362 C354 1.378 . S
C362 C357 1.350 . S
C363 H350 0.929 . S
C363 C355 1.433 . S
C363 N365 1.384 . S
N364 C360 1.427 . S
N364 C361 1.384 . S
N365 C357 1.427 . S
N365 C363 1.384 . S
H366 C372 0.930 . S
H367 C376 0.930 . S
H368 C381 0.929 . S
H369 C379 0.929 . S
H370 C374 0.929 . S
H371 C380 0.929 . S
C372 H366 0.930 . S
C372 C373 1.367 1_556 S
C372 C380 1.378 . S
C373 C372 1.367 1_554 S
C373 C381 1.433 . S
C374 H370 0.929 . S
C374 C376 1.378 . S
C374 C378 1.354 . S
C375 C378 1.462 1_556 S
C375 C380 1.359 . S
C375 N383 1.418 1_556 S
C376 H367 0.930 . S
C376 C374 1.378 . S
C376 C377 1.367 1_554 S
C377 C376 1.367 1_556 S
C377 C379 1.433 . S
C378 C374 1.354 . S
C378 C375 1.462 1_554 S
C378 N382 1.423 1_554 S
C379 H369 0.929 . S
C379 C377 1.433 . S
C379 N382 1.384 . S
C380 H371 0.929 . S
C380 C372 1.378 . S
C380 C375 1.359 . S
C381 H368 0.929 . S
C381 C373 1.433 . S
C381 N383 1.384 . S
N382 C378 1.423 1_556 S
N382 C379 1.384 . S
N383 C375 1.418 1_554 S
N383 C381 1.384 . S
H384 C390 0.930 . S
H385 C394 0.930 . S
H386 C399 0.929 . S
H387 C397 0.929 . S
H388 C392 0.929 1_545 S
H389 C398 0.929 1_565 S
C390 H384 0.930 . S
C390 C391 1.367 . S
C390 C398 1.378 . S
C391 C390 1.367 . S
C391 C399 1.433 . S
C392 H388 0.929 1_565 S
C392 C394 1.378 . S
C392 C396 1.350 . S
C393 C396 1.463 1_545 S
C393 C398 1.350 . S
C393 N401 1.427 . S
C394 H385 0.930 . S
C394 C392 1.378 . S
C394 C395 1.367 . S
C395 C394 1.367 . S
C395 C397 1.433 . S
C396 C392 1.350 . S
C396 C393 1.463 1_565 S
C396 N400 1.427 . S
C397 H387 0.929 . S
C397 C395 1.433 . S
C397 N400 1.384 . S
C398 H389 0.929 1_545 S
C398 C390 1.378 . S
C398 C393 1.350 . S
C399 H386 0.929 . S
C399 C391 1.433 . S
C399 N401 1.384 . S
N400 C396 1.427 . S
N400 C397 1.384 . S
N401 C393 1.427 . S
N401 C399 1.384 . S
H402 C408 0.930 . S
H403 C412 0.930 . S
H404 C417 0.929 . S
H405 C415 0.929 . S
H406 C410 0.929 . S
H407 C416 0.929 . S
C408 H402 0.930 . S
C408 C409 1.367 . S
C408 C416 1.378 . S
C409 C408 1.367 . S
C409 C417 1.433 . S
C410 H406 0.929 . S
C410 C412 1.378 . S
C410 C414 1.350 . S
C411 C414 1.463 . S
C411 C416 1.350 . S
C411 N419 1.427 . S
C412 H403 0.930 . S
C412 C410 1.378 . S
C412 C413 1.367 . S
C413 C412 1.367 . S
C413 C415 1.433 . S
C414 C410 1.350 . S
C414 C411 1.463 . S
C414 N418 1.427 . S
C415 H405 0.929 . S
C415 C413 1.433 . S
C415 N418 1.384 . S
C416 H407 0.929 . S
C416 C408 1.378 . S
C416 C411 1.350 . S
C417 H404 0.929 . S
C417 C409 1.433 . S
C417 N419 1.384 . S
N418 C414 1.427 . S
N418 C415 1.384 . S
N419 C411 1.427 . S
N419 C417 1.384 . S
H420 C426 0.930 . S
H421 C430 0.930 . S
H422 C435 0.929 . S
H423 C433 0.929 . S
H424 C428 0.929 1_655 S
H425 C434 0.929 1_455 S
C426 H420 0.930 . S
C426 C427 1.367 . S
C426 C434 1.378 . S
C427 C426 1.367 . S
C427 C435 1.433 1_556 S
C428 H424 0.929 1_455 S
C428 C430 1.378 . S
C428 C432 1.350 1_554 S
C429 C432 1.463 1_655 S
C429 C434 1.350 . S
C429 N437 1.427 1_556 S
C430 H421 0.930 . S
C430 C428 1.378 . S
C430 C431 1.367 1_554 S
C431 C430 1.367 1_556 S
C431 C433 1.433 . S
C432 C428 1.350 1_556 S
C432 C429 1.463 1_455 S
C432 N436 1.427 . S
C433 H423 0.929 . S
C433 C431 1.433 . S
C433 N436 1.384 . S
C434 H425 0.929 1_655 S
C434 C426 1.378 . S
C434 C429 1.350 . S
C435 H422 0.929 . S
C435 C427 1.433 1_554 S
C435 N437 1.384 . S
N436 C432 1.427 . S
N436 C433 1.384 . S
N437 C429 1.427 1_554 S
N437 C435 1.384 . S
H438 C444 0.930 . S
H439 C448 0.930 . S
H440 C453 0.929 . S
H441 C451 0.929 . S
H442 C446 0.929 . S
H443 C452 0.929 . S
C444 H438 0.930 . S
C444 C445 1.367 . S
C444 C452 1.378 . S
C445 C444 1.367 . S
C445 C453 1.433 . S
C446 H442 0.929 . S
C446 C448 1.378 . S
C446 C450 1.350 . S
C447 C450 1.463 1_455 S
C447 C452 1.350 . S
C447 N455 1.427 . S
C448 H439 0.930 . S
C448 C446 1.378 . S
C448 C449 1.367 . S
C449 C448 1.367 . S
C449 C451 1.433 . S
C450 C446 1.350 . S
C450 C447 1.463 1_655 S
C450 N454 1.427 . S
C451 H441 0.929 . S
C451 C449 1.433 . S
C451 N454 1.384 . S
C452 H443 0.929 . S
C452 C444 1.378 . S
C452 C447 1.350 . S
C453 H440 0.929 . S
C453 C445 1.433 . S
C453 N455 1.384 . S
N454 C450 1.427 . S
N454 C451 1.384 . S
N455 C447 1.427 . S
N455 C453 1.384 . S
H456 C462 0.930 . S
H457 C466 0.930 . S
H458 C471 0.929 . S
H459 C469 0.929 . S
H460 C464 0.929 . S
H461 C470 0.929 . S
C462 H456 0.930 . S
C462 C463 1.367 . S
C462 C470 1.378 . S
C463 C462 1.367 . S
C463 C471 1.433 . S
C464 H460 0.929 . S
C464 C466 1.378 . S
C464 C468 1.350 . S
C465 C468 1.463 1_545 S
C465 C470 1.350 . S
C465 N473 1.427 . S
C466 H457 0.930 . S
C466 C464 1.378 . S
C466 C467 1.367 . S
C467 C466 1.367 . S
C467 C469 1.433 . S
C468 C464 1.350 . S
C468 C465 1.463 1_565 S
C468 N472 1.427 . S
C469 H459 0.929 . S
C469 C467 1.433 . S
C469 N472 1.384 . S
C470 H461 0.929 . S
C470 C462 1.378 . S
C470 C465 1.350 . S
C471 H458 0.929 . S
C471 C463 1.433 . S
C471 N473 1.384 . S
N472 C468 1.427 . S
N472 C469 1.384 . S
N473 C465 1.427 . S
N473 C471 1.384 . S
H474 C480 0.930 . S
H475 C484 0.930 . S
H476 C489 0.929 . S
H477 C487 0.929 . S
H478 C482 0.929 . S
H479 C488 0.929 . S
C480 H474 0.930 . S
C480 C481 1.367 1_556 S
C480 C488 1.378 . S
C481 C480 1.367 1_554 S
C481 C489 1.433 . S
C482 H478 0.929 . S
C482 C484 1.378 . S
C482 C486 1.350 . S
C483 C486 1.463 . S
C483 C488 1.350 1_554 S
C483 N491 1.427 . S
C484 H475 0.930 . S
C484 C482 1.378 . S
C484 C485 1.367 . S
C485 C484 1.367 . S
C485 C487 1.433 1_554 S
C486 C482 1.350 . S
C486 C483 1.463 . S
C486 N490 1.427 1_554 S
C487 H477 0.929 . S
C487 C485 1.433 1_556 S
C487 N490 1.384 . S
C488 H479 0.929 . S
C488 C480 1.378 . S
C488 C483 1.350 1_556 S
C489 H476 0.929 . S
C489 C481 1.433 . S
C489 N491 1.384 . S
N490 C486 1.427 1_556 S
N490 C487 1.384 . S
N491 C483 1.427 . S
N491 C489 1.384 . S
H492 C498 0.930 . S
H493 C502 0.930 . S
H494 C507 0.929 . S
H495 C505 0.929 . S
H496 C500 0.929 . S
H497 C506 0.929 . S
C498 H492 0.930 . S
C498 C499 1.367 . S
C498 C506 1.378 . S
C499 C498 1.367 . S
C499 C507 1.433 . S
C500 H496 0.929 . S
C500 C502 1.378 . S
C500 C504 1.350 . S
C501 C504 1.463 . S
C501 C506 1.350 . S
C501 N509 1.427 . S
C502 H493 0.930 . S
C502 C500 1.378 . S
C502 C503 1.367 . S
C503 C502 1.367 . S
C503 C505 1.433 . S
C504 C500 1.350 . S
C504 C501 1.463 . S
C504 N508 1.427 . S
C505 H495 0.929 . S
C505 C503 1.433 . S
C505 N508 1.384 . S
C506 H497 0.929 . S
C506 C498 1.378 . S
C506 C501 1.350 . S
C507 H494 0.929 . S
C507 C499 1.433 . S
C507 N509 1.384 . S
N508 C504 1.427 . S
N508 C505 1.384 . S
N509 C501 1.427 . S
N509 C507 1.384 . S
H510 C516 0.930 . S
H511 C520 0.930 . S
H512 C525 0.929 . S
H513 C523 0.929 . S
H514 C518 0.929 . S
H515 C524 0.929 . S
C516 H510 0.930 . S
C516 C517 1.367 . S
C516 C524 1.378 . S
C517 C516 1.367 . S
C517 C525 1.433 . S
C518 H514 0.929 . S
C518 C520 1.378 . S
C518 C522 1.350 . S
C519 C522 1.463 . S
C519 C524 1.350 . S
C519 N527 1.427 . S
C520 H511 0.930 . S
C520 C518 1.378 . S
C520 C521 1.367 . S
C521 C520 1.367 . S
C521 C523 1.433 . S
C522 C518 1.350 . S
C522 C519 1.463 . S
C522 N526 1.427 . S
C523 H513 0.929 . S
C523 C521 1.433 . S
C523 N526 1.384 . S
C524 H515 0.929 . S
C524 C516 1.378 . S
C524 C519 1.350 . S
C525 H512 0.929 . S
C525 C517 1.433 . S
C525 N527 1.384 . S
N526 C522 1.427 . S
N526 C523 1.384 . S
N527 C519 1.427 . S
N527 C525 1.384 . S
H528 C534 0.930 . S
H529 C538 0.930 . S
H530 C543 0.929 . S
H531 C541 0.929 . S
H532 C536 0.929 . S
H533 C542 0.929 . S
C534 H528 0.930 . S
C534 C535 1.367 . S
C534 C542 1.378 . S
C535 C534 1.367 . S
C535 C543 1.433 . S
C536 H532 0.929 . S
C536 C538 1.378 . S
C536 C540 1.350 . S
C537 C540 1.463 . S
C537 C542 1.350 . S
C537 N545 1.427 . S
C538 H529 0.930 . S
C538 C536 1.378 . S
C538 C539 1.367 . S
C539 C538 1.367 . S
C539 C541 1.433 . S
C540 C536 1.350 . S
C540 C537 1.463 . S
C540 N544 1.427 . S
C541 H531 0.929 . S
C541 C539 1.433 . S
C541 N544 1.384 . S
C542 H533 0.929 . S
C542 C534 1.378 . S
C542 C537 1.350 . S
C543 H530 0.929 . S
C543 C535 1.433 . S
C543 N545 1.384 . S
N544 C540 1.427 . S
N544 C541 1.384 . S
N545 C537 1.427 . S
N545 C543 1.384 . S
H546 C552 0.930 . S
H547 C556 0.930 . S
H548 C561 0.929 . S
H549 C559 0.929 . S
H550 C554 0.929 . S
H551 C560 0.929 . S
C552 H546 0.930 . S
C552 C553 1.367 . S
C552 C560 1.378 . S
C553 C552 1.367 . S
C553 C561 1.433 . S
C554 H550 0.929 . S
C554 C556 1.378 . S
C554 C558 1.350 . S
C555 C558 1.463 . S
C555 C560 1.350 . S
C555 N563 1.427 . S
C556 H547 0.930 . S
C556 C554 1.378 . S
C556 C557 1.367 . S
C557 C556 1.367 . S
C557 C559 1.433 . S
C558 C554 1.350 . S
C558 C555 1.463 . S
C558 N562 1.427 . S
C559 H549 0.929 . S
C559 C557 1.433 . S
C559 N562 1.384 . S
C560 H551 0.929 . S
C560 C552 1.378 . S
C560 C555 1.350 . S
C561 H548 0.929 . S
C561 C553 1.433 . S
C561 N563 1.384 . S
N562 C558 1.427 . S
N562 C559 1.384 . S
N563 C555 1.427 . S
N563 C561 1.384 . S
H564 C570 0.930 . S
H565 C574 0.930 . S
H566 C579 0.929 . S
H567 C577 0.929 . S
H568 C572 0.929 . S
H569 C578 0.929 . S
C570 H564 0.930 . S
C570 C571 1.367 . S
C570 C578 1.378 . S
C571 C570 1.367 . S
C571 C579 1.433 . S
C572 H568 0.929 . S
C572 C574 1.378 . S
C572 C576 1.350 . S
C573 C576 1.463 . S
C573 C578 1.350 . S
C573 N581 1.427 . S
C574 H565 0.930 . S
C574 C572 1.378 . S
C574 C575 1.367 . S
C575 C574 1.367 . S
C575 C577 1.433 . S
C576 C572 1.350 . S
C576 C573 1.463 . S
C576 N580 1.427 . S
C577 H567 0.929 . S
C577 C575 1.433 . S
C577 N580 1.384 . S
C578 H569 0.929 . S
C578 C570 1.378 . S
C578 C573 1.350 . S
C579 H566 0.929 . S
C579 C571 1.433 . S
C579 N581 1.384 . S
N580 C576 1.427 . S
N580 C577 1.384 . S
N581 C573 1.427 . S
N581 C579 1.384 . S
H582 C588 0.930 . S
H583 C592 0.930 . S
H584 C597 0.929 . S
H585 C595 0.929 . S
H586 C590 0.929 . S
H587 C596 0.929 . S
C588 H582 0.930 . S
C588 C589 1.367 . S
C588 C596 1.378 . S
C589 C588 1.367 . S
C589 C597 1.433 . S
C590 H586 0.929 . S
C590 C592 1.378 . S
C590 C594 1.350 . S
C591 C594 1.463 . S
C591 C596 1.350 . S
C591 N599 1.427 . S
C592 H583 0.930 . S
C592 C590 1.378 . S
C592 C593 1.367 . S
C593 C592 1.367 . S
C593 C595 1.433 . S
C594 C590 1.350 . S
C594 C591 1.463 . S
C594 N598 1.427 . S
C595 H585 0.929 . S
C595 C593 1.433 . S
C595 N598 1.384 . S
C596 H587 0.929 . S
C596 C588 1.378 . S
C596 C591 1.350 . S
C597 H584 0.929 . S
C597 C589 1.433 . S
C597 N599 1.384 . S
N598 C594 1.427 . S
N598 C595 1.384 . S
N599 C591 1.427 . S
N599 C597 1.384 . S
C175 C12 1.485 . S
C179 C141 1.487 . S
C193 C26 1.518 . S
C197 C154 1.515 . S
C211 C96 1.518 . S
C215 C28 1.514 . S
C229 C42 1.487 . S
C233 C110 1.486 . S
C247 C112 1.509 . S
C251 C57 1.520 . S
C265 C126 1.510 . S
C269 C70 1.519 . S
C283 C84 1.110 . S
C287 C0 1.100 . S
C301 C98 1.110 . S
C305 C14 1.100 . S
C319 C124 1.093 . S
C323 C40 1.111 . S
C337 C54 1.110 . S
C341 C138 1.101 . S
C355 C69 1.105 . S
C359 C153 1.107 . S
C373 C82 1.109 . S
C377 C166 1.096 . S
C391 C1 2.292 . S
C395 C55 2.291 . S
C409 C15 2.295 . S
C413 C68 2.290 . S
C427 C41 2.290 . S
C431 C83 2.291 . S
C445 C139 2.283 . S
C449 C85 2.283 . S
C463 C152 2.284 . S
C467 C99 2.288 . S
C481 C167 2.287 . S
C485 C125 2.286 . S
C499 C13 1.925 . S
C503 C113 1.922 . S
C517 C127 1.954 . S
C521 C27 1.956 . S
C535 C29 1.925 . S
C539 C140 1.922 . S
C553 C155 1.926 . S
C557 C43 1.921 . S
C571 C56 1.952 . S
C575 C97 1.955 . S
C589 C71 1.925 . S
C593 C111 1.922 . S
