# Generated by pormake.
# Topology wiv, (6)-cn, num edge types: 1
# Building blocks:
#     Node 0, Type 0, BuildingBlock: KUMBOL_clean_sbu_1, # of connection points: 6
#     Node 1, Type 0, BuildingBlock: KUMBOL_clean_sbu_1, # of connection points: 6
#     Node 2, Type 0, BuildingBlock: KUMBOL_clean_sbu_1, # of connection points: 6
#     Node 3, Type 0, BuildingBlock: KUMBOL_clean_sbu_1, # of connection points: 6
#     Node 4, Type 0, BuildingBlock: KUMBOL_clean_sbu_1, # of connection points: 6
#     Node 5, Type 0, BuildingBlock: KUMBOL_clean_sbu_1, # of connection points: 6
#     Node 6, Type 0, BuildingBlock: KUMBOL_clean_sbu_1, # of connection points: 6
#     Node 7, Type 0, BuildingBlock: KUMBOL_clean_sbu_1, # of connection points: 6
#     Node 8, Type 0, BuildingBlock: KUMBOL_clean_sbu_1, # of connection points: 6
#     Node 9, Type 0, BuildingBlock: KUMBOL_clean_sbu_1, # of connection points: 6
#     Node 10, Type 0, BuildingBlock: KUMBOL_clean_sbu_1, # of connection points: 6
#     Node 11, Type 0, BuildingBlock: KUMBOL_clean_sbu_1, # of connection points: 6
#     Node 12, Type 0, BuildingBlock: KUMBOL_clean_sbu_1, # of connection points: 6
#     Node 13, Type 0, BuildingBlock: KUMBOL_clean_sbu_1, # of connection points: 6
#     Node 14, Type 0, BuildingBlock: KUMBOL_clean_sbu_1, # of connection points: 6
#     Node 15, Type 0, BuildingBlock: KUMBOL_clean_sbu_1, # of connection points: 6
#     Edge 16, Type (0, 0), BuildingBlock: AJUNOK_clean_linker_0, # of connection points: 2
#     Edge 17, Type (0, 0), BuildingBlock: AJUNOK_clean_linker_0, # of connection points: 2
#     Edge 18, Type (0, 0), BuildingBlock: AJUNOK_clean_linker_0, # of connection points: 2
#     Edge 19, Type (0, 0), BuildingBlock: AJUNOK_clean_linker_0, # of connection points: 2
#     Edge 20, Type (0, 0), BuildingBlock: AJUNOK_clean_linker_0, # of connection points: 2
#     Edge 21, Type (0, 0), BuildingBlock: AJUNOK_clean_linker_0, # of connection points: 2
#     Edge 22, Type (0, 0), BuildingBlock: AJUNOK_clean_linker_0, # of connection points: 2
#     Edge 23, Type (0, 0), BuildingBlock: AJUNOK_clean_linker_0, # of connection points: 2
#     Edge 24, Type (0, 0), BuildingBlock: AJUNOK_clean_linker_0, # of connection points: 2
#     Edge 25, Type (0, 0), BuildingBlock: AJUNOK_clean_linker_0, # of connection points: 2
#     Edge 26, Type (0, 0), BuildingBlock: AJUNOK_clean_linker_0, # of connection points: 2
#     Edge 27, Type (0, 0), BuildingBlock: AJUNOK_clean_linker_0, # of connection points: 2
#     Edge 28, Type (0, 0), BuildingBlock: AJUNOK_clean_linker_0, # of connection points: 2
#     Edge 29, Type (0, 0), BuildingBlock: AJUNOK_clean_linker_0, # of connection points: 2
#     Edge 30, Type (0, 0), BuildingBlock: AJUNOK_clean_linker_0, # of connection points: 2
#     Edge 31, Type (0, 0), BuildingBlock: AJUNOK_clean_linker_0, # of connection points: 2
#     Edge 32, Type (0, 0), BuildingBlock: AJUNOK_clean_linker_0, # of connection points: 2
#     Edge 33, Type (0, 0), BuildingBlock: AJUNOK_clean_linker_0, # of connection points: 2
#     Edge 34, Type (0, 0), BuildingBlock: AJUNOK_clean_linker_0, # of connection points: 2
#     Edge 35, Type (0, 0), BuildingBlock: AJUNOK_clean_linker_0, # of connection points: 2
#     Edge 36, Type (0, 0), BuildingBlock: AJUNOK_clean_linker_0, # of connection points: 2
#     Edge 37, Type (0, 0), BuildingBlock: AJUNOK_clean_linker_0, # of connection points: 2
#     Edge 38, Type (0, 0), BuildingBlock: AJUNOK_clean_linker_0, # of connection points: 2
#     Edge 39, Type (0, 0), BuildingBlock: AJUNOK_clean_linker_0, # of connection points: 2
#     Edge 40, Type (0, 0), BuildingBlock: AJUNOK_clean_linker_0, # of connection points: 2
#     Edge 41, Type (0, 0), BuildingBlock: AJUNOK_clean_linker_0, # of connection points: 2
#     Edge 42, Type (0, 0), BuildingBlock: AJUNOK_clean_linker_0, # of connection points: 2
#     Edge 43, Type (0, 0), BuildingBlock: AJUNOK_clean_linker_0, # of connection points: 2
#     Edge 44, Type (0, 0), BuildingBlock: AJUNOK_clean_linker_0, # of connection points: 2
#     Edge 45, Type (0, 0), BuildingBlock: AJUNOK_clean_linker_0, # of connection points: 2
#     Edge 46, Type (0, 0), BuildingBlock: AJUNOK_clean_linker_0, # of connection points: 2
#     Edge 47, Type (0, 0), BuildingBlock: AJUNOK_clean_linker_0, # of connection points: 2
#     Edge 48, Type (0, 0), BuildingBlock: AJUNOK_clean_linker_0, # of connection points: 2
#     Edge 49, Type (0, 0), BuildingBlock: AJUNOK_clean_linker_0, # of connection points: 2
#     Edge 50, Type (0, 0), BuildingBlock: AJUNOK_clean_linker_0, # of connection points: 2
#     Edge 51, Type (0, 0), BuildingBlock: AJUNOK_clean_linker_0, # of connection points: 2
#     Edge 52, Type (0, 0), BuildingBlock: AJUNOK_clean_linker_0, # of connection points: 2
#     Edge 53, Type (0, 0), BuildingBlock: AJUNOK_clean_linker_0, # of connection points: 2
#     Edge 54, Type (0, 0), BuildingBlock: AJUNOK_clean_linker_0, # of connection points: 2
#     Edge 55, Type (0, 0), BuildingBlock: AJUNOK_clean_linker_0, # of connection points: 2
#     Edge 56, Type (0, 0), BuildingBlock: AJUNOK_clean_linker_0, # of connection points: 2
#     Edge 57, Type (0, 0), BuildingBlock: AJUNOK_clean_linker_0, # of connection points: 2
#     Edge 58, Type (0, 0), BuildingBlock: AJUNOK_clean_linker_0, # of connection points: 2
#     Edge 59, Type (0, 0), BuildingBlock: AJUNOK_clean_linker_0, # of connection points: 2
#     Edge 60, Type (0, 0), BuildingBlock: AJUNOK_clean_linker_0, # of connection points: 2
#     Edge 61, Type (0, 0), BuildingBlock: AJUNOK_clean_linker_0, # of connection points: 2
#     Edge 62, Type (0, 0), BuildingBlock: AJUNOK_clean_linker_0, # of connection points: 2
#     Edge 63, Type (0, 0), BuildingBlock: AJUNOK_clean_linker_0, # of connection points: 2
# Relax obj value: 0.183
# Max RMSD: 0.233
# Mean RMSD: 0.233
data_MOF--net-wiv--node1-KUMBOL_clean_sbu_1--edge1-AJUNOK_clean_linker_0
_symmetry_space_group_name_H-M    P1
_symmetry_Int_Tables_number       1
_symmetry_cell_setting            triclinic
loop_
_symmetry_equiv_pos_as_xyz
'x, y, z'
_cell_length_a     36.740895
_cell_length_b     36.793385
_cell_length_c     20.314671
_cell_angle_alpha  89.926035
_cell_angle_beta   90.375023
_cell_angle_gamma 89.903589
loop_
_atom_site_label
_atom_site_type_symbol
_atom_site_fract_x
_atom_site_fract_y
_atom_site_fract_z
_atom_type_partial_charge
C0 C 0.22747 0.15386 0.17902 0.0
C1 C 0.17609 0.09068 0.20806 0.0
C2 C 0.21941 0.10741 0.18725 0.0
C3 C 0.13988 0.12212 0.22847 0.0
C4 C 0.1929 0.18659 0.19463 0.0
C5 C 0.14836 0.17073 0.22399 0.0
N6 N 0.26233 0.16407 0.17737 0.0
C7 C 0.26949 0.20017 0.18677 0.0
C8 C 0.20539 0.22169 0.20013 0.0
C9 C 0.24299 0.22766 0.1973 0.0
Gd10 Gd 0.37798 0.09661 0.06865 0.0
Gd11 Gd 0.3038 0.11255 0.18678 0.0
N12 N 0.24674 0.08414 0.1756 0.0
C13 C 0.17312 0.0535 0.19929 0.0
C14 C 0.23989 0.04776 0.17449 0.0
C15 C 0.20432 0.03306 0.18212 0.0
H16 H 0.26226 0.02917 0.16688 0.0
H17 H 0.20115 0.00403 0.17616 0.0
H18 H 0.40418 0.17764 1.0074 0.0
H19 H 0.29632 0.20888 0.19104 0.0
H20 H 0.45392 0.22 0.02628 0.0
H21 H 0.14696 0.04044 0.20335 0.0
H22 H 0.11336 0.11208 0.24227 0.0
H23 H 0.41066 0.01244 0.10249 0.0
H24 H 0.18716 0.24326 0.21474 0.0
H25 H 0.25263 0.25499 0.20655 0.0
H26 H 0.53606 0.15432 0.16879 0.0
H27 H 0.12769 0.18995 0.23893 0.0
H28 H 0.50309 0.03227 0.22182 0.0
H29 H 0.457 0.99043 0.18121 0.0
N30 N 0.42965 0.06705 0.10713 0.0
C31 C 0.45825 0.08922 0.12067 0.0
C32 C 0.43132 0.03075 0.12022 0.0
C33 C 0.48585 0.04098 0.18239 0.0
C34 C 0.45827 0.01774 0.16222 0.0
C35 C 0.48803 0.07618 0.15668 0.0
H36 H 0.53919 0.09121 0.20135 0.0
N37 N 0.42482 0.13848 0.07525 0.0
C38 C 0.45555 0.12591 0.10474 0.0
C39 C 0.48157 0.18561 0.09672 0.0
C40 C 0.48425 0.14967 0.11914 0.0
C41 C 0.42543 0.17062 0.04212 0.0
C42 C 0.45368 0.19484 0.05294 0.0
O43 O 0.28322 0.11244 0.07228 0.0
O44 O 0.32538 0.07783 0.01921 0.0
O45 O 0.37981 0.11151 0.96548 0.0
O46 O 0.41673 0.07104 1.00517 0.0
O47 O 0.32825 0.05518 0.19568 0.0
O48 O 0.35261 0.04128 0.09589 0.0
O49 O 0.39462 0.09087 0.17812 0.0
O50 O 0.36073 0.1328 0.22938 0.0
O51 O 0.3075 0.08151 0.27981 0.0
O52 O 0.27174 0.1269 0.26825 0.0
O53 O 0.3561 0.15669 0.0769 0.0
O54 O 0.33926 0.16145 0.18353 0.0
C55 C 0.29411 0.09533 0.01661 0.0
C56 C 0.34202 0.03098 0.15523 0.0
C57 C 0.39849 0.06403 0.89699 0.0
C58 C 0.38286 0.05994 0.78297 0.0
C59 C 0.39336 0.00489 0.84544 0.0
C60 C 0.39964 0.02585 0.90141 0.0
C61 C 0.38503 0.02189 0.78592 0.0
C62 C 0.39103 0.08084 0.83759 0.0
C63 C 0.4048 0.08728 0.95307 0.0
C64 C 0.51445 0.13653 0.15413 0.0
C65 C 0.5164 0.1 0.17246 0.0
H66 H 0.50136 0.20597 0.10968 0.0
C67 C 0.39303 0.11671 0.22245 0.0
C68 C 0.35204 0.17682 0.13073 0.0
C69 C 0.29372 0.11852 0.3723 0.0
C70 C 0.32626 0.11594 0.53765 0.0
C71 C 0.30467 0.1808 0.43545 0.0
C72 C 0.29375 0.15928 0.37611 0.0
C73 C 0.32583 0.15718 0.5375 0.0
C74 C 0.3043 0.0936 0.43011 0.0
C75 C 0.28431 0.10305 0.30854 0.0
H76 H 0.39396 0.97556 0.84867 0.0
H77 H 0.40528 0.01225 0.94767 0.0
H78 H 0.37901 0.00546 0.743 0.0
H79 H 0.39086 0.11031 0.83423 0.0
H80 H 0.3007 0.20911 0.41897 0.0
H81 H 0.28654 0.17549 0.33342 0.0
H82 H 0.33618 0.17036 0.58245 0.0
H83 H 0.29968 0.06568 0.41253 0.0
C84 C 0.0913 0.54534 0.90756 0.0
C85 C 0.1489 0.51464 0.92352 0.0
C86 C 0.12718 0.54568 0.92874 0.0
C87 C 0.13547 0.48467 0.88818 0.0
C88 C 0.07709 0.51441 0.87799 0.0
C89 C 0.09965 0.48464 0.86479 0.0
N90 N 0.06994 0.57497 0.91762 0.0
C91 C 0.03282 0.57192 0.91554 0.0
C92 C 0.04055 0.5146 0.86206 0.0
C93 C 0.01738 0.54127 0.88733 0.0
Gd94 Gd 0.1072 0.70312 0.81837 0.0
Gd95 Gd 0.10339 0.62672 0.94309 0.0
N96 N 0.14136 0.57713 0.95213 0.0
C97 C 0.18317 0.51534 0.95388 0.0
C98 C 0.17323 0.57735 0.98639 0.0
C99 C 0.19335 0.54545 0.99155 0.0
H100 H 0.18249 0.60169 0.01101 0.0
H101 H 0.21687 0.54444 0.0235 0.0
H102 H 0.03003 0.77215 0.82719 0.0
H103 H 0.01564 0.59428 0.93074 0.0
H104 H 0.01353 0.8436 0.79115 0.0
H105 H 0.20157 0.49287 0.94996 0.0
H106 H 0.15197 0.46141 0.8782 0.0
H107 H 0.20882 0.69768 0.78086 0.0
H108 H 0.03141 0.49551 0.827 0.0
H109 H 0.98839 0.54055 0.87878 0.0
H110 H 0.15915 0.90386 0.72098 0.0
H111 H 0.08927 0.46095 0.83922 0.0
H112 H 0.25842 0.80184 0.79352 0.0
H113 H 0.26119 0.73522 0.78806 0.0
N114 N 0.16821 0.73685 0.80196 0.0
C115 C 0.16488 0.77084 0.78004 0.0
C116 C 0.20359 0.72503 0.79445 0.0
C117 C 0.23358 0.78623 0.79408 0.0
C118 C 0.23478 0.74801 0.79245 0.0
C119 C 0.20075 0.80333 0.78445 0.0
H120 H 0.22262 0.86764 0.76664 0.0
N121 N 0.08929 0.76492 0.78678 0.0
C122 C 0.12367 0.78012 0.74991 0.0
C123 C 0.07 0.8642 0.73361 0.0
C124 C 0.1154 0.8508 0.71197 0.0
C125 C 0.05092 0.7867 0.80083 0.0
C126 C 0.03987 0.83323 0.77695 0.0
O127 O 0.13767 0.6044 0.86059 0.0
O128 O 0.12317 0.64243 0.77408 0.0
O129 O 0.07636 0.72788 0.73852 0.0
O130 O 0.08709 0.67114 0.73454 0.0
O131 O 0.15696 0.65765 0.94092 0.0
O132 O 0.16007 0.67357 0.83288 0.0
O133 O 0.10477 0.72415 0.93429 0.0
O134 O 0.07905 0.67739 0.99187 0.0
O135 O 0.12105 0.62897 0.0439 0.0
O136 O 0.07587 0.59417 0.01358 0.0
O137 O 0.05056 0.69007 0.85902 0.0
O138 O 0.06037 0.63057 0.862 0.0
C139 C 0.13506 0.60933 0.79694 0.0
C140 C 0.17616 0.66289 0.88744 0.0
C141 C 0.09722 0.70578 0.63992 0.0
C142 C 0.11978 0.67738 0.4766 0.0
C143 C 0.166 0.69846 0.60868 0.0
C144 C 0.13641 0.70793 0.65468 0.0
C145 C 0.16002 0.67901 0.49756 0.0
C146 C 0.0818 0.69712 0.57133 0.0
C147 C 0.07701 0.69985 0.7009 0.0
C148 C 0.15807 0.8747 0.7264 0.0
C149 C 0.19813 0.85166 0.76103 0.0
H150 H 0.06036 0.89147 0.72704 0.0
C151 C 0.0926 0.71061 0.99318 0.0
C152 C 0.03807 0.65712 0.8477 0.0
C153 C 0.07753 0.61318 0.12062 0.0
C154 C 0.08437 0.61929 0.23554 0.0
C155 C 0.02381 0.61705 0.1876 0.0
C156 C 0.0394 0.61412 0.12572 0.0
C157 C 0.04617 0.62014 0.24269 0.0
C158 C 0.0997 0.61537 0.17503 0.0
C159 C 0.09602 0.60572 0.06125 0.0
H160 H 0.19033 0.70191 0.64017 0.0
H161 H 0.14454 0.71193 0.70456 0.0
H162 H 0.18011 0.66978 0.46142 0.0
H163 H 0.05237 0.6999 0.57593 0.0
H164 H 0.99469 0.61647 0.19313 0.0
H165 H 0.02195 0.61159 0.0828 0.0
H166 H 0.03371 0.62319 0.29055 0.0
H167 H 0.12908 0.61301 0.17033 0.0
C168 C 0.77605 0.82605 0.23969 0.0
C169 C 0.85258 0.87725 0.31622 0.0
C170 C 0.78191 0.86655 0.27804 0.0
C171 C 0.87954 0.83815 0.29395 0.0
C172 C 0.81198 0.79371 0.22809 0.0
C173 C 0.85985 0.79902 0.25213 0.0
N174 N 0.74594 0.82407 0.20313 0.0
C175 C 0.73928 0.79012 0.17767 0.0
C176 C 0.79903 0.76156 0.20387 0.0
C177 C 0.76226 0.75938 0.18691 0.0
Gd178 Gd 0.63634 0.9139 0.06302 0.0
Gd179 Gd 0.70932 0.88139 0.19413 0.0
N180 N 0.76452 0.90253 0.24706 0.0
C181 C 0.86348 0.92372 0.30061 0.0
C182 C 0.78371 0.94278 0.24096 0.0
C183 C 0.83032 0.95448 0.26447 0.0
H184 H 0.76846 0.96417 0.21692 0.0
H185 H 0.8396 0.98125 0.25093 0.0
H186 H 0.59817 0.8301 0.00853 0.0
H187 H 0.71614 0.7848 0.14863 0.0
H188 H 0.54809 0.79391 0.05613 0.0
H189 H 0.89157 0.93203 0.304 0.0
H190 H 0.90878 0.83952 0.29957 0.0
H191 H 0.61156 1.0024 0.04796 0.0
H192 H 0.81643 0.73784 0.20144 0.0
H193 H 0.7517 0.73283 0.17543 0.0
H194 H 0.4665 0.88523 0.13514 0.0
H195 H 0.87808 0.77687 0.24053 0.0
H196 H 0.49535 0.00575 0.05542 0.0
H197 H 0.55394 0.03708 0.03958 0.0
N198 N 0.58505 0.95185 0.06475 0.0
C199 C 0.55307 0.93467 0.07574 0.0
C200 C 0.58592 0.9886 0.0551 0.0
C201 C 0.52037 0.9907 0.06126 0.0
C202 C 0.55346 0.00834 0.05078 0.0
C203 C 0.52014 0.95391 0.07854 0.0
H204 H 0.46254 0.94931 0.10053 0.0
N205 N 0.58202 0.87898 0.0571 0.0
C206 C 0.55265 0.89726 0.0787 0.0
C207 C 0.52224 0.84074 0.09983 0.0
C208 C 0.52151 0.87871 0.09968 0.0
C209 C 0.57758 0.84355 0.03735 0.0
C210 C 0.54921 0.823 0.06377 0.0
O211 O 0.73085 0.88117 0.08115 0.0
O212 O 0.69616 0.92664 0.04129 0.0
O213 O 0.64369 0.89094 0.96618 0.0
O214 O 0.63084 0.94868 0.97863 0.0
O215 O 0.70403 0.94579 0.19272 0.0
O216 O 0.65368 0.96093 0.12749 0.0
O217 O 0.61406 0.91307 0.16744 0.0
O218 O 0.64712 0.86625 0.21169 0.0
O219 O 0.68033 0.904 0.27764 0.0
O220 O 0.70082 0.84762 0.27851 0.0
O221 O 0.63806 0.8546 0.08989 0.0
O222 O 0.6961 0.84197 0.11357 0.0
C223 C 0.72176 0.90243 0.02925 0.0
C224 C 0.67795 0.96942 0.17341 0.0
C225 C 0.6037 0.9183 0.89035 0.0
C226 C 0.58566 0.89531 0.78404 0.0
C227 C 0.54412 0.93326 0.84633 0.0
C228 C 0.5702 0.93643 0.89614 0.0
C229 C 0.55164 0.91253 0.79057 0.0
C230 C 0.61113 0.89811 0.83493 0.0
C231 C 0.63292 0.92137 0.93848 0.0
C232 C 0.49038 0.89866 0.11577 0.0
C233 C 0.48844 0.93549 0.09796 0.0
H234 H 0.50052 0.8254 0.12187 0.0
C235 C 0.61574 0.88473 0.20717 0.0
C236 C 0.6633 0.83082 0.10065 0.0
C237 C 0.69714 0.8776 0.38072 0.0
C238 C 0.68656 0.87397 0.50862 0.0
C239 C 0.70376 0.85556 0.49109 0.0
C240 C 0.71291 0.84977 0.41429 0.0
C241 C 0.67619 0.87637 0.57183 0.0
C242 C 0.68222 0.90012 0.42733 0.0
C243 C 0.68563 0.87412 0.31185 0.0
H244 H 0.5185 0.94765 0.85008 0.0
H245 H 0.56431 0.95346 0.93791 0.0
H246 H 0.53188 0.91178 0.75077 0.0
H247 H 0.63851 0.888 0.83015 0.0
H248 H 0.72638 0.8326 0.48572 0.0
H249 H 0.72805 0.82807 0.38917 0.0
H250 H 0.6953 0.88695 0.63967 0.0
H251 H 0.66533 0.92293 0.41265 0.0
C252 C 0.92226 0.45706 0.90611 0.0
C253 C 0.86843 0.49027 0.93681 0.0
C254 C 0.89067 0.45929 0.94132 0.0
C255 C 0.87876 0.51921 0.89574 0.0
C256 C 0.93204 0.48492 0.86279 0.0
C257 C 0.91042 0.51632 0.85795 0.0
N258 N 0.943 0.42683 0.91247 0.0
C259 C 0.97731 0.42678 0.8882 0.0
C260 C 0.96224 0.47903 0.82325 0.0
C261 C 0.98514 0.44935 0.83608 0.0
Gd262 Gd 0.89653 0.29963 0.82298 0.0
Gd263 Gd 0.91252 0.37604 0.95418 0.0
N264 N 0.88032 0.42965 0.97593 0.0
C265 C 0.83549 0.49 0.97043 0.0
C266 C 0.85078 0.43104 0.0157 0.0
C267 C 0.82759 0.46121 0.01296 0.0
H268 H 0.84417 0.40809 0.04663 0.0
H269 H 0.80319 0.46187 0.04223 0.0
H270 H 0.9739 0.22956 0.82023 0.0
H271 H 0.99667 0.40643 0.90255 0.0
H272 H 0.98755 0.1584 0.77755 0.0
H273 H 0.81606 0.51181 0.96369 0.0
H274 H 0.86187 0.54325 0.89113 0.0
H275 H 0.79879 0.31394 0.77305 0.0
H276 H 0.96855 0.49806 0.78503 0.0
H277 H 0.00911 0.44384 0.80726 0.0
H278 H 0.84253 0.10546 0.70499 0.0
H279 H 0.91768 0.53816 0.82475 0.0
H280 H 0.74414 0.21024 0.76772 0.0
H281 H 0.7453 0.27638 0.7549 0.0
N282 N 0.83613 0.27083 0.79161 0.0
C283 C 0.83895 0.23677 0.7714 0.0
C284 C 0.80249 0.28483 0.77598 0.0
C285 C 0.76964 0.22457 0.77359 0.0
C286 C 0.77056 0.26282 0.76704 0.0
C287 C 0.80198 0.20554 0.77181 0.0
H288 H 0.7783 0.1423 0.74782 0.0
N289 N 0.91477 0.24006 0.78017 0.0
C290 C 0.87977 0.2272 0.74114 0.0
C291 C 0.9298 0.14181 0.71705 0.0
C292 C 0.88559 0.15786 0.69612 0.0
C293 C 0.95252 0.21674 0.79181 0.0
C294 C 0.96176 0.17035 0.7633 0.0
O295 O 0.87041 0.39662 0.88126 0.0
O296 O 0.88489 0.36129 0.79241 0.0
O297 O 0.91794 0.28594 0.72644 0.0
O298 O 0.91294 0.34216 0.75444 0.0
O299 O 0.85186 0.35771 0.95544 0.0
O300 O 0.84297 0.31814 0.86689 0.0
O301 O 0.89472 0.27882 0.9377 0.0
O302 O 0.93175 0.31989 0.98544 0.0
O303 O 0.90755 0.36497 0.05759 0.0
O304 O 0.95034 0.40095 0.02246 0.0
O305 O 0.956 0.30094 0.8606 0.0
O306 O 0.95596 0.36153 0.8751 0.0
C307 C 0.87212 0.39258 0.81738 0.0
C308 C 0.83032 0.33815 0.91601 0.0
C309 C 0.89099 0.32423 0.64954 0.0
C310 C 0.86923 0.3155 0.52707 0.0
C311 C 0.83093 0.3023 0.6288 0.0
C312 C 0.85475 0.32155 0.66713 0.0
C313 C 0.83832 0.29536 0.56445 0.0
C314 C 0.90077 0.32355 0.58211 0.0
C315 C 0.91636 0.31931 0.70544 0.0
C316 C 0.84266 0.13469 0.70821 0.0
C317 C 0.80321 0.15776 0.74425 0.0
H318 H 0.93484 0.11318 0.71132 0.0
C319 C 0.91068 0.29151 0.99362 0.0
C320 C 0.97463 0.33176 0.86149 0.0
C321 C 0.9284 0.41101 0.12998 0.0
C322 C 0.90422 0.41374 0.23966 0.0
C323 C 0.95513 0.45184 0.21065 0.0
C324 C 0.95485 0.43688 0.14743 0.0
C325 C 0.93049 0.43944 0.25759 0.0
C326 C 0.90137 0.402 0.17482 0.0
C327 C 0.93391 0.38724 0.07326 0.0
H328 H 0.80592 0.29181 0.64862 0.0
H329 H 0.84698 0.32753 0.71656 0.0
H330 H 0.85445 0.30695 0.53571 0.0
H331 H 0.92914 0.32669 0.57153 0.0
H332 H 0.97626 0.4708 0.22465 0.0
H333 H 0.97644 0.44393 0.11373 0.0
H334 H 0.9336 0.44773 0.30848 0.0
H335 H 0.88178 0.38085 0.16312 0.0
C336 C 0.23837 0.33307 0.08959 0.0
C337 C 0.16925 0.35776 0.08761 0.0
C338 C 0.21767 0.36312 0.08779 0.0
C339 C 0.15707 0.32359 0.10566 0.0
C340 C 0.22052 0.29873 0.09335 0.0
C341 C 0.18265 0.2949 0.10891 0.0
N342 N 0.27275 0.33721 0.06629 0.0
C343 C 0.288 0.30815 0.03459 0.0
C344 C 0.2392 0.26874 0.0681 0.0
C345 C 0.27246 0.27361 0.03722 0.0
Gd346 Gd 0.37571 0.41592 0.19253 0.0
Gd347 Gd 0.29925 0.3982 0.06956 0.0
N348 N 0.23588 0.40104 0.06601 0.0
C349 C 0.14192 0.39493 0.06078 0.0
C350 C 0.21414 0.43726 0.04042 0.0
C351 C 0.16403 0.43594 0.03584 0.0
H352 H 0.2293 0.46145 0.02814 0.0
H353 H 0.14821 0.4594 0.02147 0.0
H354 H 0.40239 0.33483 0.2559 0.0
H355 H 0.31245 0.31125 1.00654 0.0
H356 H 0.45663 0.29638 0.25007 0.0
H357 H 0.11264 0.39332 0.06259 0.0
H358 H 0.12824 0.31817 0.10955 0.0
H359 H 0.41321 0.49987 0.1934 0.0
H360 H 0.22653 0.24219 0.06601 0.0
H361 H 0.28566 0.25089 0.01336 0.0
H362 H 0.54006 0.36355 0.11581 0.0
H363 H 0.17126 0.26796 0.11267 0.0
H364 H 0.51205 0.49029 0.08397 0.0
H365 H 0.46139 0.52808 0.12674 0.0
N366 N 0.42963 0.44671 0.16898 0.0
C367 C 0.45852 0.42584 0.15424 0.0
C368 C 0.43309 0.48328 0.16869 0.0
C369 C 0.48948 0.47774 0.10934 0.0
C370 C 0.4612 0.49926 0.13321 0.0
C371 C 0.48919 0.44051 0.12304 0.0
H372 H 0.54083 0.42774 0.07897 0.0
N373 N 0.42549 0.37651 0.197 0.0
C374 C 0.45672 0.38972 0.17047 0.0
C375 C 0.48562 0.33276 0.18736 0.0
C376 C 0.487 0.36757 0.16122 0.0
C377 C 0.42542 0.3436 0.22753 0.0
C378 C 0.45606 0.32173 0.22466 0.0
O379 O 0.27672 0.39877 0.18193 0.0
O380 O 0.32152 0.42458 0.24631 0.0
O381 O 0.40055 0.40573 0.28739 0.0
O382 O 0.37696 0.45962 0.26325 0.0
O383 O 0.3066 0.46003 0.09234 0.0
O384 O 0.36645 0.46319 0.12088 0.0
O385 O 0.39853 0.40913 0.08854 0.0
O386 O 0.35592 0.37711 0.02898 0.0
O387 O 0.31574 0.43104 0.98445 0.0
O388 O 0.26732 0.39884 0.981 0.0
O389 O 0.35063 0.35846 0.19442 0.0
O390 O 0.3372 0.35127 0.08642 0.0
C391 C 0.28866 0.41045 0.24173 0.0
C392 C 0.33775 0.47847 0.09348 0.0
C393 C 0.40736 0.45308 0.3672 0.0
C394 C 0.40796 0.44463 0.48432 0.0
C395 C 0.42753 0.50212 0.4369 0.0
C396 C 0.41938 0.48892 0.37438 0.0
C397 C 0.42116 0.4804 0.49189 0.0
C398 C 0.40433 0.4303 0.42139 0.0
C399 C 0.3959 0.43957 0.30403 0.0
C400 C 0.51714 0.38093 0.12637 0.0
C401 C 0.51791 0.41742 0.10626 0.0
H402 H 0.50604 0.31353 0.17639 0.0
C403 C 0.39049 0.38762 0.0391 0.0
C404 C 0.34765 0.33723 0.14233 0.0
C405 C 0.29959 0.40275 0.8842 0.0
C406 C 0.33412 0.40024 0.72039 0.0
C407 C 0.32024 0.33961 0.83415 0.0
C408 C 0.30503 0.36278 0.88777 0.0
C409 C 0.3393 0.35965 0.72844 0.0
C410 C 0.30745 0.42547 0.82198 0.0
C411 C 0.28926 0.41908 0.94727 0.0
H412 H 0.43693 0.52977 0.44304 0.0
H413 H 0.4223 0.50654 0.33196 0.0
H414 H 0.42453 0.49248 0.5401 0.0
H415 H 0.3967 0.40215 0.41431 0.0
H416 H 0.32006 0.31222 0.85622 0.0
H417 H 0.29765 0.34898 0.9319 0.0
H418 H 0.35107 0.34535 0.68593 0.0
H419 H 0.29726 0.45256 0.8322 0.0
C420 C 0.42913 0.54771 0.88275 0.0
C421 C 0.3717 0.51586 0.88324 0.0
C422 C 0.39277 0.54553 0.86355 0.0
C423 C 0.38666 0.4894 0.92518 0.0
C424 C 0.44499 0.51983 0.92076 0.0
C425 C 0.42323 0.49152 0.94412 0.0
N426 N 0.44896 0.57711 0.86427 0.0
C427 C 0.4859 0.57715 0.87248 0.0
C428 C 0.48225 0.52127 0.93439 0.0
C429 C 0.5029 0.54974 0.90911 0.0
Gd430 Gd 0.39313 0.70818 0.93373 0.0
Gd431 Gd 0.41456 0.62357 0.81464 0.0
N432 N 0.37791 0.57229 0.8258 0.0
C433 C 0.33571 0.51435 0.86195 0.0
C434 C 0.34534 0.56687 0.79424 0.0
C435 C 0.32291 0.53858 0.81411 0.0
H436 H 0.33542 0.58603 0.75783 0.0
H437 H 0.29554 0.53621 0.79455 0.0
H438 H 0.47533 0.76609 0.93844 0.0
H439 H 0.50246 0.59808 0.85082 0.0
H440 H 0.49624 0.83734 0.96992 0.0
H441 H 0.31761 0.49519 0.88409 0.0
H442 H 0.37042 0.46688 0.94227 0.0
H443 H 0.29499 0.72055 0.88717 0.0
H444 H 0.49549 0.50012 0.9629 0.0
H445 H 0.53193 0.55061 0.91795 0.0
H446 H 0.3572 0.91027 0.03191 0.0
H447 H 0.43455 0.47125 0.977 0.0
H448 H 0.24983 0.81839 0.95215 0.0
H449 H 0.24421 0.75525 0.91743 0.0
N450 N 0.33567 0.7467 0.9461 0.0
C451 C 0.33894 0.77689 0.98289 0.0
C452 C 0.30131 0.74197 0.91968 0.0
C453 C 0.2734 0.80073 0.95293 0.0
C454 C 0.27089 0.76491 0.93126 0.0
C455 C 0.30624 0.81303 0.97556 0.0
H456 H 0.29066 0.87952 0.98722 0.0
N457 N 0.41519 0.76453 0.97711 0.0
C458 C 0.38139 0.78303 0.01296 0.0
C459 C 0.44054 0.86349 0.01912 0.0
C460 C 0.39543 0.85376 0.04384 0.0
C461 C 0.45544 0.78262 0.96357 0.0
C462 C 0.46902 0.82917 0.98314 0.0
O463 O 0.41039 0.61484 0.92514 0.0
O464 O 0.36706 0.65211 0.96422 0.0
O465 O 0.42374 0.72281 0.02244 0.0
O466 O 0.38554 0.67803 0.02253 0.0
O467 O 0.35414 0.63279 0.83533 0.0
O468 O 0.34712 0.69238 0.86534 0.0
O469 O 0.41045 0.72814 0.82336 0.0
O470 O 0.40819 0.67711 0.75447 0.0
O471 O 0.39892 0.61183 0.71449 0.0
O472 O 0.4468 0.5869 0.75721 0.0
O473 O 0.45102 0.68402 0.93391 0.0
O474 O 0.46764 0.65338 0.84093 0.0
C475 C 0.37981 0.61842 0.95734 0.0
C476 C 0.33331 0.66019 0.85211 0.0
C477 C 0.39192 0.7095 0.12007 0.0
C478 C 0.38774 0.68831 0.23942 0.0
C479 C 0.33477 0.69515 0.16175 0.0
C480 C 0.35468 0.71628 0.12005 0.0
C481 C 0.35364 0.67486 0.20838 0.0
C482 C 0.40854 0.69713 0.17917 0.0
C483 C 0.4073 0.69832 0.05754 0.0
C484 C 0.35521 0.88102 0.02834 0.0
C485 C 0.31322 0.8612 0.99602 0.0
H486 H 0.4485 0.89153 0.01424 0.0
C487 C 0.40945 0.71311 0.76152 0.0
C488 C 0.47604 0.66684 0.89948 0.0
C489 C 0.44598 0.59371 0.64379 0.0
C490 C 0.44603 0.61763 0.53324 0.0
C491 C 0.49999 0.58861 0.57906 0.0
C492 C 0.48273 0.58457 0.63883 0.0
C493 C 0.48202 0.60475 0.52595 0.0
C494 C 0.42729 0.60707 0.58955 0.0
C495 C 0.42659 0.59014 0.70528 0.0
H496 H 0.30633 0.6901 0.15197 0.0
H497 H 0.34092 0.72717 0.07735 0.0
H498 H 0.34024 0.64994 0.22235 0.0
H499 H 0.43748 0.69414 0.17645 0.0
H500 H 0.52794 0.58124 0.57588 0.0
H501 H 0.49795 0.57389 0.68044 0.0
H502 H 0.49711 0.60893 0.481 0.0
H503 H 0.39866 0.61056 0.59521 0.0
C504 C 0.77616 0.66603 0.0781 0.0
C505 C 0.82805 0.60533 0.03672 0.0
C506 C 0.78683 0.61996 0.07043 0.0
C507 C 0.85965 0.63852 1.00202 0.0
C508 C 0.80702 0.70059 0.05136 0.0
C509 C 0.84786 0.68734 1.00823 0.0
N510 N 0.7406 0.67335 0.08074 0.0
C511 C 0.72962 0.70744 0.06192 0.0
C512 C 0.79151 0.73451 0.045 0.0
C513 C 0.75334 0.73701 0.04738 0.0
Gd514 Gd 0.62841 0.59628 0.2082 0.0
Gd515 Gd 0.70181 0.6199 0.08816 0.0
N516 N 0.76149 0.59544 0.08613 0.0
C517 C 0.83423 0.56867 0.04643 0.0
C518 C 0.77135 0.55985 0.09156 0.0
C519 C 0.80707 0.54742 0.07727 0.0
H520 H 0.75168 0.54024 0.10857 0.0
H521 H 0.81338 0.51956 0.08909 0.0
H522 H 0.60297 0.68214 0.26477 0.0
H523 H 0.70165 0.71199 0.05364 0.0
H524 H 0.54923 0.7208 0.24395 0.0
H525 H 0.86019 0.55686 0.03356 0.0
H526 H 0.88466 0.62979 0.97899 0.0
H527 H 0.60035 0.5122 0.24659 0.0
H528 H 0.80745 0.75719 0.0275 0.0
H529 H 0.74106 0.76277 0.03413 0.0
H530 H 0.45613 0.63448 0.18133 0.0
H531 H 0.86439 0.70765 0.98411 0.0
H532 H 0.48456 0.51325 0.2552 0.0
H533 H 0.54264 0.47968 0.26447 0.0
N534 N 0.5754 0.56205 0.22246 0.0
C535 C 0.5439 0.5807 0.21762 0.0
C536 C 0.57519 0.52604 0.23754 0.0
C537 C 0.50978 0.52685 0.24357 0.0
C538 C 0.5425 0.50791 0.24943 0.0
C539 C 0.51013 0.56328 0.22404 0.0
H540 H 0.45174 0.57027 0.21346 0.0
N541 N 0.5777 0.63419 0.22668 0.0
C542 C 0.54551 0.61796 0.21401 0.0
C543 C 0.51627 0.67628 0.20916 0.0
C544 C 0.5138 0.6384 0.20404 0.0
C545 C 0.57826 0.66988 0.24598 0.0
C546 C 0.54798 0.69189 0.23437 0.0
O547 O 0.72476 0.62444 0.19593 0.0
O548 O 0.68799 0.58088 0.23085 0.0
O549 O 0.63203 0.61888 0.30622 0.0
O550 O 0.64017 0.56056 0.28892 0.0
O551 O 0.68732 0.55795 0.08577 0.0
O552 O 0.63364 0.54737 0.14143 0.0
O553 O 0.60196 0.59357 0.10696 0.0
O554 O 0.64126 0.63114 0.05211 0.0
O555 O 0.72097 0.60015 0.99248 0.0
O556 O 0.68366 0.64723 1.00159 0.0
O557 O 0.63091 0.65439 0.16907 0.0
O558 O 0.68984 0.66752 0.15294 0.0
C559 C 0.7141 0.60401 0.24575 0.0
C560 C 0.659 0.53677 0.09987 0.0
C561 C 0.60852 0.57731 0.3838 0.0
C562 C 0.59193 0.59047 0.49473 0.0
C563 C 0.57637 0.53209 0.44819 0.0
C564 C 0.59404 0.54208 0.39084 0.0
C565 C 0.57728 0.55546 0.50149 0.0
C566 C 0.60425 0.60244 0.43398 0.0
C567 C 0.63406 0.58617 0.33173 0.0
C568 C 0.48065 0.62004 0.19475 0.0
C569 C 0.47819 0.58318 0.21176 0.0
H570 H 0.4935 0.69365 0.19913 0.0
C571 C 0.6083 0.616 0.05758 0.0
C572 C 0.65674 0.67834 0.16331 0.0
C573 C 0.69963 0.63036 0.89376 0.0
C574 C 0.69013 0.63829 0.76701 0.0
C575 C 0.70431 0.6583 0.78978 0.0
C576 C 0.70459 0.66355 0.86811 0.0
C577 C 0.67757 0.64224 0.70384 0.0
C578 C 0.6904 0.60748 0.84321 0.0
C579 C 0.69933 0.6235 0.96338 0.0
H580 H 0.56648 0.50461 0.45421 0.0
H581 H 0.59921 0.52097 0.35568 0.0
H582 H 0.57131 0.54434 0.54958 0.0
H583 H 0.61768 0.62869 0.43061 0.0
H584 H 0.72652 0.68101 0.80043 0.0
H585 H 0.70982 0.688 0.89664 0.0
H586 H 0.6879 0.66322 0.63761 0.0
H587 H 0.68072 0.58071 0.85429 0.0
C588 C 0.58602 0.455 0.81394 0.0
C589 C 0.64555 0.48238 0.8229 0.0
C590 C 0.62366 0.45167 0.81337 0.0
C591 C 0.62876 0.51562 0.83761 0.0
C592 C 0.56969 0.48953 0.81583 0.0
C593 C 0.59122 0.51989 0.82976 0.0
N594 N 0.56545 0.42463 0.81014 0.0
C595 C 0.52882 0.42695 0.80003 0.0
C596 C 0.53232 0.49227 0.80368 0.0
C597 C 0.51169 0.4608 0.79595 0.0
Gd598 Gd 0.60633 0.29833 0.95836 0.0
Gd599 Gd 0.59757 0.37003 0.81612 0.0
N600 N 0.63876 0.41823 0.80584 0.0
C601 C 0.68348 0.4784 0.81915 0.0
C602 C 0.67529 0.4146 0.79571 0.0
C603 C 0.69828 0.44463 0.80266 0.0
H604 H 0.68694 0.38869 0.78278 0.0
H605 H 0.72739 0.44152 0.79695 0.0
H606 H 0.53209 0.22444 0.9596 0.0
H607 H 0.51296 0.40259 0.79269 0.0
H608 H 0.524 0.15019 0.98676 0.0
H609 H 0.70143 0.50122 0.828 0.0
H610 H 0.64455 0.5386 0.85149 0.0
H611 H 0.70521 0.31388 1.00349 0.0
H612 H 0.51935 0.51845 0.79819 0.0
H613 H 0.48272 0.46259 0.78647 0.0
H614 H 0.67505 0.10232 0.04662 0.0
H615 H 0.57922 0.54663 0.83502 0.0
H616 H 0.7642 0.21395 0.98195 0.0
H617 H 0.76102 0.2795 1.00102 0.0
N618 N 0.66898 0.27074 0.97828 0.0
C619 C 0.66847 0.23662 0.99973 0.0
C620 C 0.70275 0.28571 0.99 0.0
C621 C 0.73799 0.22739 0.98273 0.0
C622 C 0.73588 0.26524 0.99112 0.0
C623 C 0.70678 0.20739 0.99121 0.0
H624 H 0.73427 0.14496 1.00205 0.0
N625 N 0.59189 0.23605 0.99618 0.0
C626 C 0.62844 0.22311 0.03075 0.0
C627 C 0.58371 0.13343 0.03877 0.0
C628 C 0.62763 0.15091 0.06137 0.0
C629 C 0.55517 0.2111 0.98255 0.0
C630 C 0.54949 0.16263 1.00098 0.0
O631 O 0.60979 0.4016 0.90873 0.0
O632 O 0.62039 0.3596 0.99275 0.0
O633 O 0.5783 0.27252 0.03994 0.0
O634 O 0.58978 0.32917 0.04487 0.0
O635 O 0.65174 0.3406 0.83383 0.0
O636 O 0.65527 0.3338 0.94464 0.0
O637 O 0.61192 0.27338 0.84549 0.0
O638 O 0.57619 0.31355 0.79319 0.0
O639 O 0.61779 0.37645 0.7177 0.0
O640 O 0.56006 0.36478 0.73516 0.0
O641 O 0.54869 0.31153 0.91714 0.0
O642 O 0.55022 0.37132 0.88804 0.0
C643 C 0.61924 0.3943 0.96974 0.0
C644 C 0.67035 0.34367 0.88929 0.0
C645 C 0.60127 0.29423 0.1394 0.0
C646 C 0.61551 0.32295 0.30494 0.0
C647 C 0.66886 0.306 0.18199 0.0
C648 C 0.64141 0.29509 0.13035 0.0
C649 C 0.65577 0.32424 0.29125 0.0
C650 C 0.58301 0.30127 0.20573 0.0
C651 C 0.58069 0.30022 0.07809 0.0
C652 C 0.67163 0.13146 0.04342 0.0
C653 C 0.70861 0.15866 0.00992 0.0
H654 H 0.57885 0.10449 0.04127 0.0
C655 C 0.59674 0.28457 0.78738 0.0
C656 C 0.53299 0.34423 0.91624 0.0
C657 C 0.57477 0.40197 0.64456 0.0
C658 C 0.58532 0.41179 0.53083 0.0
C659 C 0.52761 0.42986 0.57757 0.0
C660 C 0.53886 0.41488 0.63741 0.0
C661 C 0.55026 0.42677 0.52307 0.0
C662 C 0.59919 0.40649 0.59358 0.0
C663 C 0.58484 0.37466 0.69318 0.0
H664 H 0.69502 0.30364 0.15607 0.0
H665 H 0.65148 0.29229 0.08187 0.0
H666 H 0.67308 0.33373 0.33234 0.0
H667 H 0.55486 0.29454 0.19818 0.0
H668 H 0.50001 0.43959 0.57142 0.0
H669 H 0.51878 0.41099 0.6752 0.0
H670 H 0.539 0.43234 0.47469 0.0
H671 H 0.62718 0.39763 0.59968 0.0
C672 C 0.73506 0.6593 0.68995 0.0
C673 C 0.67715 0.58135 0.73742 0.0
C674 C 0.72552 0.60401 0.70064 0.0
C675 C 0.63319 0.6202 0.77729 0.0
C676 C 0.69287 0.70014 0.71282 0.0
C677 C 0.64354 0.68006 0.76239 0.0
N678 N 0.76844 0.67002 0.68224 0.0
C679 C 0.7735 0.70723 0.68723 0.0
C680 C 0.70915 0.73301 0.71646 0.0
C681 C 0.74722 0.73523 0.70414 0.0
Gd682 Gd 0.87709 0.59056 0.55336 0.0
Gd683 Gd 0.80772 0.61557 0.67391 0.0
N684 N 0.75191 0.58166 0.6833 0.0
C685 C 0.67764 0.54461 0.72103 0.0
C686 C 0.74414 0.54515 0.67986 0.0
C687 C 0.70955 0.52864 0.69402 0.0
H688 H 0.76458 0.52667 0.66197 0.0
H689 H 0.70755 0.49994 0.68292 0.0
H690 H 0.89634 0.6753 0.47441 0.0
H691 H 0.79997 0.71747 0.68195 0.0
H692 H 0.94183 0.7223 0.50474 0.0
H693 H 0.65289 0.52909 0.72267 0.0
H694 H 0.64406 0.59391 0.76413 0.0
H695 H 0.91893 0.50779 0.53268 0.0
H696 H 0.69395 0.75536 0.73552 0.0
H697 H 0.75853 0.76221 0.70991 0.0
H698 H 0.03049 0.6536 0.63393 0.0
H699 H 0.62526 0.69958 0.78451 0.0
H700 H 0.03203 0.52799 0.56805 0.0
H701 H 0.98207 0.48483 0.54063 0.0
N702 N 0.93412 0.56297 0.54834 0.0
C703 C 0.96144 0.58635 0.5611 0.0
C704 C 0.94076 0.52655 0.54272 0.0
C705 C 0.00431 0.53742 0.56518 0.0
C706 C 0.97636 0.5134 0.54808 0.0
C707 C 0.9962 0.57393 0.57655 0.0
H708 H 0.04562 0.58845 0.62742 0.0
N709 N 0.92289 0.63382 0.53053 0.0
C710 C 0.95469 0.62307 0.55701 0.0
C711 C 0.97467 0.6851 0.56221 0.0
C712 C 0.9808 0.64836 0.57701 0.0
C713 C 0.92046 0.6676 0.50194 0.0
C714 C 0.94566 0.6944 0.5203 0.0
O715 O 0.78341 0.62075 0.56694 0.0
O716 O 0.81752 0.57518 0.53165 0.0
O717 O 0.86262 0.60782 0.45615 0.0
O718 O 0.88095 0.55188 0.47495 0.0
O719 O 0.82077 0.55412 0.67663 0.0
O720 O 0.87209 0.5404 0.61833 0.0
O721 O 0.9036 0.5876 0.65452 0.0
O722 O 0.86864 0.63074 0.7032 0.0
O723 O 0.78592 0.60459 0.77008 0.0
O724 O 0.83945 0.6288 0.75909 0.0
O725 O 0.87446 0.65035 0.58647 0.0
O726 O 0.81659 0.66453 0.6118 0.0
C727 C 0.79158 0.59882 0.51768 0.0
C728 C 0.84742 0.53137 0.66207 0.0
C729 C 0.89564 0.57802 0.37376 0.0
C730 C 0.89686 0.60009 0.26353 0.0
C731 C 0.93473 0.54885 0.29418 0.0
C732 C 0.92064 0.55049 0.35777 0.0
C733 C 0.92209 0.57308 0.24622 0.0
C734 C 0.88636 0.60419 0.32806 0.0
C735 C 0.87305 0.57657 0.43144 0.0
C736 C 0.01198 0.63541 0.60943 0.0
C737 C 0.02059 0.59827 0.60581 0.0
H738 H 0.99293 0.7061 0.57917 0.0
C739 C 0.90075 0.61384 0.69804 0.0
C740 C 0.84912 0.67483 0.59603 0.0
C741 C 0.80805 0.6394 0.85327 0.0
C742 C 0.80024 0.65174 0.97579 0.0
C743 C 0.77958 0.6949 0.88598 0.0
C744 C 0.79878 0.67534 0.84093 0.0
C745 C 0.77364 0.68077 0.94753 0.0
C746 C 0.8093 0.62472 0.916 0.0
C747 C 0.81505 0.61654 0.79932 0.0
H748 H 0.9537 0.52759 0.28119 0.0
H749 H 0.92811 0.52967 0.39307 0.0
H750 H 0.93072 0.56986 0.1957 0.0
H751 H 0.86746 0.62576 0.34091 0.0
H752 H 0.76559 0.71945 0.8708 0.0
H753 H 0.80183 0.68652 0.79278 0.0
H754 H 0.78895 0.66567 0.97197 0.0
H755 H 0.82029 0.59745 0.9206 0.0
C756 C 0.59766 0.04414 0.42741 0.0
C757 C 0.65845 0.02203 0.40704 0.0
C758 C 0.63473 0.04857 0.43167 0.0
C759 C 0.64384 0.99188 0.37388 0.0
C760 C 0.58282 0.01495 0.39318 0.0
C761 C 0.60595 0.98826 0.36694 0.0
N762 N 0.57609 0.07136 0.44882 0.0
C763 C 0.53946 0.0687 0.44861 0.0
C764 C 0.54563 0.01652 0.37973 0.0
C765 C 0.52347 0.04153 0.41277 0.0
Gd766 Gd 0.61326 0.20275 0.32881 0.0
Gd767 Gd 0.60325 0.12655 0.45763 0.0
N768 N 0.64738 0.08007 0.45693 0.0
C769 C 0.69591 0.02717 0.41579 0.0
C770 C 0.68301 0.08293 0.47414 0.0
C771 C 0.70819 0.0572 0.45188 0.0
H772 H 0.69174 0.10481 0.50482 0.0
H773 H 0.73685 0.06035 0.46299 0.0
H774 H 0.54339 0.27373 0.34454 0.0
H775 H 0.52274 0.09078 0.4664 0.0
H776 H 0.5278 0.34466 0.30693 0.0
H777 H 0.71529 0.00738 0.39783 0.0
H778 H 0.66161 0.97231 0.35083 0.0
H779 H 0.70339 0.21993 0.39883 0.0
H780 H 0.53463 1.00027 0.34069 0.0
H781 H 0.49469 0.0441 0.40522 0.0
H782 H 0.67073 0.39645 0.20364 0.0
H783 H 0.59494 0.96556 0.33944 0.0
H784 H 0.76735 0.29524 0.29483 0.0
H785 H 0.76203 0.23867 0.35779 0.0
N786 N 0.67291 0.23717 0.31567 0.0
C787 C 0.67381 0.26407 0.27061 0.0
C788 C 0.70391 0.23412 0.35305 0.0
C789 C 0.74154 0.28118 0.29727 0.0
C790 C 0.73785 0.24981 0.33578 0.0
C791 C 0.7111 0.29542 0.2675 0.0
H792 H 0.73425 0.35875 0.24394 0.0
N793 N 0.59887 0.26291 0.29254 0.0
C794 C 0.63165 0.27502 0.24722 0.0
C795 C 0.5807 0.36142 0.23709 0.0
C796 C 0.62444 0.34558 0.20629 0.0
C797 C 0.56299 0.28669 0.31279 0.0
C798 C 0.55263 0.33288 0.28823 0.0
O799 O 0.60512 0.105 0.35209 0.0
O800 O 0.63963 0.1455 0.29497 0.0
O801 O 0.58509 0.22398 0.24139 0.0
O802 O 0.60052 0.16828 0.24432 0.0
O803 O 0.65646 0.1572 0.45464 0.0
O804 O 0.66371 0.17162 0.34637 0.0
O805 O 0.61289 0.22465 0.44361 0.0
O806 O 0.58333 0.18031 0.50012 0.0
O807 O 0.61646 0.1053 0.55394 0.0
O808 O 0.56309 0.13113 0.53382 0.0
O809 O 0.55377 0.18874 0.36023 0.0
O810 O 0.557 0.12835 0.38042 0.0
C811 C 0.63096 0.11064 0.30867 0.0
C812 C 0.6767 0.15881 0.40177 0.0
C813 C 0.60747 0.19849 0.14191 0.0
C814 C 0.60935 0.1776 0.9697 0.0
C815 C 0.67154 0.1913 0.08269 0.0
C816 C 0.64797 0.19883 0.14211 0.0
C817 C 0.65081 0.17744 0.97368 0.0
C818 C 0.58474 0.19257 0.0793 0.0
C819 C 0.58961 0.19493 0.20717 0.0
C820 C 0.66873 0.36747 0.21101 0.0
C821 C 0.70942 0.34321 0.23999 0.0
H822 H 0.57038 0.38827 0.23185 0.0
C823 C 0.60004 0.21175 0.5022 0.0
C824 C 0.53878 0.15585 0.35501 0.0
C825 C 0.56857 0.0943 0.62927 0.0
C826 C 0.56164 0.09349 0.74636 0.0
C827 C 0.52063 0.05838 0.67861 0.0
C828 C 0.53834 0.07128 0.62239 0.0
C829 C 0.53183 0.07009 0.74098 0.0
C830 C 0.58104 0.1037 0.69114 0.0
C831 C 0.58457 0.11494 0.57625 0.0
H832 H 0.69933 0.19356 0.10294 0.0
H833 H 0.66176 0.20254 0.18888 0.0
H834 H 0.66505 0.17108 0.92755 0.0
H835 H 0.55686 0.19466 0.09597 0.0
H836 H 0.4971 0.04095 0.67366 0.0
H837 H 0.52772 0.0641 0.5747 0.0
H838 H 0.51646 0.06241 0.78411 0.0
H839 H 0.60367 0.1226 0.69625 0.0
C840 C 0.28076 0.33555 0.74181 0.0
C841 C 0.35556 0.38835 0.81946 0.0
C842 C 0.28701 0.3769 0.77116 0.0
C843 C 0.38199 0.34693 0.81031 0.0
C844 C 0.31516 0.301 0.74309 0.0
C845 C 0.36235 0.30577 0.77367 0.0
N846 N 0.24824 0.33147 0.7134 0.0
C847 C 0.23877 0.29547 0.7104 0.0
C848 C 0.30027 0.26764 0.73111 0.0
C849 C 0.26249 0.26535 0.72324 0.0
Gd850 Gd 0.12841 0.40228 0.57259 0.0
Gd851 Gd 0.21142 0.39031 0.69345 0.0
N852 N 0.27198 0.41025 0.73035 0.0
C853 C 0.36843 0.43369 0.79696 0.0
C854 C 0.29286 0.44914 0.71734 0.0
C855 C 0.3382 0.46209 0.74732 0.0
H856 H 0.2787 0.46917 0.68776 0.0
H857 H 0.34871 0.48798 0.7311 0.0
H858 H 0.10063 0.32204 0.51209 0.0
H859 H 0.21211 0.28781 0.70004 0.0
H860 H 0.04556 0.28348 0.51703 0.0
H861 H 0.39579 0.44293 0.80739 0.0
H862 H 0.41088 0.34761 0.82065 0.0
H863 H 0.09693 0.4869 0.60759 0.0
H864 H 0.31661 0.24329 0.73616 0.0
H865 H 0.25069 0.23846 0.72463 0.0
H866 H 0.96157 0.35555 0.64244 0.0
H867 H 0.37972 0.28208 0.77098 0.0
H868 H 0.99494 0.47594 0.69817 0.0
H869 H 0.05049 0.5127 0.67451 0.0
N870 N 0.0784 0.43326 0.61591 0.0
C871 C 0.04794 0.41294 0.62369 0.0
C872 C 0.07691 0.46951 0.62717 0.0
C873 C 0.01838 0.4635 0.67623 0.0
C874 C 0.0488 0.48445 0.66251 0.0
C875 C 0.01739 0.42743 0.6554 0.0
H876 H 0.96446 0.41553 0.69366 0.0
N877 N 0.07749 0.36432 0.56925 0.0
C878 C 0.0467 0.3783 0.59642 0.0
C879 C 0.01469 0.32277 0.57234 0.0
C880 C 0.01484 0.35758 0.60018 0.0
C881 C 0.07696 0.33155 0.53813 0.0
C882 C 0.04571 0.30998 0.54011 0.0
O883 O 0.22682 0.39148 0.57609 0.0
O884 O 0.18083 0.42303 0.52365 0.0
O885 O 0.13042 0.39334 0.46633 0.0
O886 O 0.08817 0.4262 0.50994 0.0
O887 O 0.20596 0.44825 0.65401 0.0
O888 O 0.1448 0.45067 0.64053 0.0
O889 O 0.10875 0.36809 0.65692 0.0
O890 O 0.15178 0.37402 0.73931 0.0
O891 O 0.2301 0.41746 0.78191 0.0
O892 O 0.17254 0.41115 0.7648 0.0
O893 O 0.15519 0.34587 0.57308 0.0
O894 O 0.18118 0.33898 0.67572 0.0
C895 C 0.21267 0.40625 0.51967 0.0
C896 C 0.17518 0.46631 0.66139 0.0
C897 C 0.10274 0.43981 0.40343 0.0
C898 C 0.11474 0.45041 0.28949 0.0
C899 C 0.1049 0.50122 0.36333 0.0
C900 C 0.10406 0.47722 0.41588 0.0
C901 C 0.10953 0.48807 0.29973 0.0
C902 C 0.10289 0.42715 0.33925 0.0
C903 C 0.10168 0.41361 0.45627 0.0
C904 C 0.98529 0.37142 0.63544 0.0
C905 C 0.98685 0.40577 0.66439 0.0
H906 H 0.99092 0.30554 0.57553 0.0
C907 C 0.11711 0.36617 0.7193 0.0
C908 C 0.16368 0.32559 0.62475 0.0
C909 C 0.19674 0.39328 0.86652 0.0
C910 C 0.19159 0.38517 0.99345 0.0
C911 C 0.19821 0.33352 0.90662 0.0
C912 C 0.20076 0.35668 0.85552 0.0
C913 C 0.19154 0.34659 0.96914 0.0
C914 C 0.19391 0.40686 0.93085 0.0
C915 C 0.19824 0.41655 0.80848 0.0
H916 H 0.10474 0.52992 0.37269 0.0
H917 H 0.10358 0.48786 0.46555 0.0
H918 H 0.11187 0.50796 0.26099 0.0
H919 H 0.0978 0.39863 0.33024 0.0
H920 H 0.19979 0.30453 0.89736 0.0
H921 H 0.20454 0.34578 0.80681 0.0
H922 H 0.18668 0.32278 0.99663 0.0
H923 H 0.19511 0.43585 0.9297 0.0
C924 C 0.41346 0.95376 0.42678 0.0
C925 C 0.35203 0.97634 0.4173 0.0
C926 C 0.37663 0.94832 0.43252 0.0
C927 C 0.36509 0.00818 0.38738 0.0
C928 C 0.42685 0.98542 0.39784 0.0
C929 C 0.40257 0.01293 0.37843 0.0
N930 N 0.43603 0.92577 0.44097 0.0
C931 C 0.47262 0.9292 0.43693 0.0
C932 C 0.46335 0.98541 0.37994 0.0
C933 C 0.48684 0.95847 0.40467 0.0
Gd934 Gd 0.39738 0.79931 0.30968 0.0
Gd935 Gd 0.41011 0.86918 0.44314 0.0
N936 N 0.36498 0.91501 0.45105 0.0
C937 C 0.31538 0.97133 0.433 0.0
C938 C 0.33009 0.91084 0.47245 0.0
C939 C 0.30475 0.9391 0.46402 0.0
H940 H 0.32139 0.88575 0.49496 0.0
H941 H 0.2768 0.93545 0.47911 0.0
H942 H 0.46239 0.72835 0.28117 0.0
H943 H 0.49059 0.90678 0.44878 0.0
H944 H 0.46132 0.64909 0.29712 0.0
H945 H 0.29549 0.9925 0.42361 0.0
H946 H 0.34656 0.02917 0.37084 0.0
H947 H 0.31225 0.81964 0.24085 0.0
H948 H 0.47245 0.00445 0.34311 0.0
H949 H 0.51517 0.95627 0.39329 0.0
H950 H 0.31367 0.63058 0.34357 0.0
H951 H 0.41231 0.03734 0.35478 0.0
H952 H 0.24584 0.72551 0.2458 0.0
H953 H 0.25559 0.78908 0.21416 0.0
N954 N 0.33705 0.77367 0.28846 0.0
C955 C 0.33134 0.7384 0.3065 0.0
C956 C 0.3095 0.79163 0.25585 0.0
C957 C 0.27122 0.73846 0.25871 0.0
C958 C 0.27677 0.7744 0.24023 0.0
C959 C 0.29833 0.71959 0.29326 0.0
H960 H 0.26493 0.6716 0.3084 0.0
N961 N 0.39982 0.73625 0.30616 0.0
C962 C 0.3607 0.71889 0.32336 0.0
C963 C 0.39422 0.64259 0.31661 0.0
C964 C 0.35524 0.6709 0.33124 0.0
C965 C 0.43735 0.71383 0.29059 0.0
C966 C 0.43644 0.66425 0.29542 0.0
O967 O 0.4074 0.89725 0.34212 0.0
O968 O 0.37735 0.85717 0.27389 0.0
O969 O 0.43078 0.8199 0.22808 0.0
O970 O 0.40252 0.76935 0.2199 0.0
O971 O 0.35658 0.83841 0.43888 0.0
O972 O 0.35019 0.83598 0.32924 0.0
O973 O 0.39622 0.77588 0.4236 0.0
O974 O 0.43524 0.81488 0.46996 0.0
O975 O 0.39164 0.8692 0.54169 0.0
O976 O 0.44995 0.87569 0.52167 0.0
O977 O 0.45821 0.80804 0.33742 0.0
O978 O 0.4569 0.867 0.36955 0.0
C979 C 0.3884 0.89101 0.288 0.0
C980 C 0.33566 0.83932 0.38681 0.0
C981 C 0.40705 0.80287 0.12375 0.0
C982 C 0.40729 0.82447 0.95122 0.0
C983 C 0.3452 0.82178 0.06599 0.0
C984 C 0.36758 0.8103 0.12409 0.0
C985 C 0.36622 0.83256 0.95744 0.0
C986 C 0.43033 0.80501 0.0612 0.0
C987 C 0.42205 0.79313 0.18896 0.0
C988 C 0.31955 0.65906 0.33585 0.0
C989 C 0.29195 0.68294 0.31415 0.0
H990 H 0.39242 0.61334 0.3204 0.0
C991 C 0.41478 0.78619 0.4786 0.0
C992 C 0.47414 0.84035 0.34006 0.0
C993 C 0.42451 0.90394 0.61575 0.0
C994 C 0.41263 0.90796 0.73083 0.0
C995 C 0.45165 0.95268 0.67806 0.0
C996 C 0.44797 0.93387 0.61857 0.0
C997 C 0.4347 0.93929 0.7347 0.0
C998 C 0.40428 0.89406 0.66956 0.0
C999 C 0.42398 0.87684 0.56464 0.0
H1000 H 0.31779 0.82441 0.08732 0.0
H1001 H 0.35402 0.80845 0.16996 0.0
H1002 H 0.35225 0.84386 0.91432 0.0
H1003 H 0.45696 0.79414 0.07611 0.0
H1004 H 0.47008 0.9755 0.68163 0.0
H1005 H 0.46411 0.94173 0.57656 0.0
H1006 H 0.44226 0.95056 0.78203 0.0
H1007 H 0.38819 0.86962 0.66494 0.0
C1008 C 0.73136 0.85395 0.59257 0.0
C1009 C 0.67689 0.9328 0.53212 0.0
C1010 C 0.72621 0.91019 0.56705 0.0
C1011 C 0.63045 0.89525 0.49834 0.0
C1012 C 0.68732 0.81694 0.57267 0.0
C1013 C 0.63898 0.83568 0.51672 0.0
N1014 N 0.76492 0.84136 0.59373 0.0
C1015 C 0.76853 0.80454 0.58095 0.0
C1016 C 0.70141 0.78245 0.57109 0.0
C1017 C 0.73987 0.7778 0.5742 0.0
Gd1018 Gd 0.88509 0.90869 0.70203 0.0
Gd1019 Gd 0.80659 0.89395 0.58261 0.0
N1020 N 0.75373 0.93162 0.58041 0.0
C1021 C 0.68035 0.96996 0.53506 0.0
C1022 C 0.74867 0.96818 0.57214 0.0
C1023 C 0.7143 0.98566 0.55607 0.0
H1024 H 0.77196 0.98551 0.57932 0.0
H1025 H 0.71469 0.01496 0.55864 0.0
H1026 H 0.9149 0.82681 0.77003 0.0
H1027 H 0.79505 0.79407 0.57159 0.0
H1028 H 0.95622 0.77985 0.72435 0.0
H1029 H 0.65715 0.98698 0.52399 0.0
H1030 H 0.60575 0.90567 0.47586 0.0
H1031 H 0.91585 0.99199 0.66225 0.0
H1032 H 0.68407 0.75977 0.55829 0.0
H1033 H 0.74913 0.75028 0.56551 0.0
H1034 H 0.0346 0.8489 0.58354 0.0
H1035 H 0.61917 0.81619 0.49922 0.0
H1036 H 0.02122 0.97745 0.57964 0.0
H1037 H 0.96635 0.01533 0.59635 0.0
N1038 N 0.93702 0.93835 0.66605 0.0
C1039 C 0.9658 0.91628 0.65432 0.0
C1040 C 0.93794 0.97417 0.64957 0.0
C1041 C 0.99795 0.96629 0.60512 0.0
C1042 C 0.96742 0.98794 0.61516 0.0
C1043 C 0.99639 0.92942 0.6211 0.0
H1044 H 0.04289 0.91372 0.56415 0.0
N1045 N 0.93426 0.86793 0.70537 0.0
C1046 C 0.96302 0.87965 0.67006 0.0
C1047 C 0.98299 0.81783 0.65967 0.0
C1048 C 0.98835 0.85476 0.64598 0.0
C1049 C 0.9356 0.83449 0.73513 0.0
C1050 C 0.95852 0.80791 0.70891 0.0
O1051 O 0.78527 0.91121 0.69112 0.0
O1052 O 0.83259 0.89057 0.75558 0.0
O1053 O 0.88511 0.89818 0.80701 0.0
O1054 O 0.91806 0.94132 0.7668 0.0
O1055 O 0.8411 0.94514 0.56517 0.0
O1056 O 0.85617 0.9619 0.66883 0.0
O1057 O 0.9008 0.90939 0.59271 0.0
O1058 O 0.86225 0.86987 0.54262 0.0
O1059 O 0.80784 0.92236 0.48725 0.0
O1060 O 0.77918 0.87224 0.49887 0.0
O1061 O 0.88096 0.85044 0.66692 0.0
O1062 O 0.82231 0.84228 0.63392 0.0
C1063 C 0.79832 0.90156 0.75155 0.0
C1064 C 0.85121 0.97084 0.60609 0.0
C1065 C 0.89276 0.95102 0.87017 0.0
C1066 C 0.86882 0.95925 0.97891 0.0
C1067 C 0.88137 0.0118 0.91182 0.0
C1068 C 0.89323 0.98901 0.86147 0.0
C1069 C 0.86927 0.99697 0.97084 0.0
C1070 C 0.88042 0.93632 0.92898 0.0
C1071 C 0.90558 0.92626 0.8195 0.0
C1072 C 0.01685 0.86747 0.60713 0.0
C1073 C 0.02171 0.90465 0.59677 0.0
H1074 H 0.99827 0.79702 0.63441 0.0
C1075 C 0.89588 0.88307 0.54961 0.0
C1076 C 0.85421 0.82932 0.64937 0.0
C1077 C 0.79989 0.88507 0.39309 0.0
C1078 C 0.82527 0.89477 0.22458 0.0
C1079 C 0.81952 0.82658 0.3259 0.0
C1080 C 0.80696 0.84521 0.38724 0.0
C1081 C 0.83209 0.85428 0.22276 0.0
C1082 C 0.80421 0.91218 0.33541 0.0
C1083 C 0.78833 0.89763 0.45815 0.0
H1084 H 0.88154 0.04092 0.90512 0.0
H1085 H 0.90273 1.00114 0.81615 0.0
H1086 H 0.86062 0.01476 0.01022 0.0
H1087 H 0.88023 0.90706 0.93638 0.0
H1088 H 0.82128 0.79791 0.34149 0.0
H1089 H 0.80334 0.82772 0.42968 0.0
H1090 H 0.84147 0.84352 0.17521 0.0
H1091 H 0.79649 0.93894 0.35523 0.0
C1092 C 0.91478 0.05283 0.33119 0.0
C1093 C 0.85495 0.02809 0.35202 0.0
C1094 C 0.87739 0.0567 0.33169 0.0
C1095 C 0.87108 0.99641 0.3771 0.0
C1096 C 0.93101 0.02054 0.35188 0.0
C1097 C 0.90901 0.99211 0.3747 0.0
N1098 N 0.9354 0.08208 0.31618 0.0
C1099 C 0.97229 0.08048 0.31525 0.0
C1100 C 0.96887 0.01962 0.35539 0.0
C1101 C 0.98955 0.04974 0.33806 0.0
Gd1102 Gd 0.90107 0.20725 0.44306 0.0
Gd1103 Gd 0.90548 0.13664 0.31812 0.0
N1104 N 0.86314 0.089 0.31339 0.0
C1105 C 0.8172 0.03217 0.34502 0.0
C1106 C 0.82734 0.09126 0.29653 0.0
C1107 C 0.80346 0.06316 0.31347 0.0
H1108 H 0.81763 0.11432 0.26938 0.0
H1109 H 0.77467 0.06552 0.30272 0.0
H1110 H 0.98197 0.25405 0.4194 0.0
H1111 H 0.98822 0.1045 0.30491 0.0
H1112 H 1.00333 0.31629 0.42576 0.0
H1113 H 0.79879 0.01071 0.3597 0.0
H1114 H 0.85447 0.97478 0.3969 0.0
H1115 H 0.80738 0.2126 0.47867 0.0
H1116 H 0.98282 0.99636 0.37243 0.0
H1117 H 0.01863 0.04992 0.34517 0.0
H1118 H 0.89129 0.39845 0.48688 0.0
H1119 H 0.92085 0.96697 0.39152 0.0
H1120 H 0.76359 0.31841 0.46925 0.0
H1121 H 0.7571 0.25258 0.4813 0.0
N1122 N 0.84706 0.24601 0.43961 0.0
C1123 C 0.85513 0.28115 0.43386 0.0
C1124 C 0.8125 0.23808 0.45956 0.0
C1125 C 0.78624 0.30071 0.45798 0.0
C1126 C 0.78317 0.26311 0.46567 0.0
C1127 C 0.82064 0.31448 0.45003 0.0
H1128 H 0.81469 0.37974 0.49216 0.0
N1129 N 0.92598 0.26589 0.43075 0.0
C1130 C 0.90124 0.29201 0.44001 0.0
C1131 C 0.95273 0.34138 0.451 0.0
C1132 C 0.91574 0.33633 0.45891 0.0
C1133 C 0.96192 0.27504 0.42713 0.0
C1134 C 0.97462 0.31144 0.433 0.0
O1135 O 0.90976 0.10804 0.41806 0.0
O1136 O 0.88257 0.14882 0.48704 0.0
O1137 O 0.93325 0.19379 0.53112 0.0
O1138 O 0.90003 0.2414 0.52868 0.0
O1139 O 0.85047 0.16364 0.3332 0.0
O1140 O 0.8517 0.17197 0.44295 0.0
O1141 O 0.89238 0.23035 0.33226 0.0
O1142 O 0.92869 0.19075 0.28175 0.0
O1143 O 0.88704 0.12248 0.22119 0.0
O1144 O 0.94214 0.14462 0.23744 0.0
O1145 O 0.96006 0.19166 0.41567 0.0
O1146 O 0.95145 0.13269 0.39449 0.0
C1147 C 0.89205 0.11414 0.47299 0.0
C1148 C 0.83368 0.16297 0.39004 0.0
C1149 C 0.90312 0.21183 0.62783 0.0
C1150 C 0.90079 0.1792 0.79368 0.0
C1151 C 0.83932 0.19642 0.68062 0.0
C1152 C 0.86269 0.209 0.62518 0.0
C1153 C 0.85924 0.17707 0.78711 0.0
C1154 C 0.92612 0.2029 0.68926 0.0
C1155 C 0.92006 0.22072 0.56506 0.0
C1156 C 0.88268 0.37087 0.47894 0.0
C1157 C 0.8347 0.35977 0.47749 0.0
H1158 H 0.96459 0.36801 0.45765 0.0
C1159 C 0.90917 0.22047 0.27649 0.0
C1160 C 0.97244 0.1581 0.41859 0.0
C1161 C 0.9325 0.10516 0.14776 0.0
C1162 C 0.92894 0.09646 0.03176 0.0
C1163 C 0.98315 0.07751 0.09224 0.0
C1164 C 0.96835 0.09211 0.14897 0.0
C1165 C 0.96435 0.08109 0.03299 0.0
C1166 C 0.91153 0.10209 0.09119 0.0
C1167 C 0.91879 0.13019 0.19625 0.0
H1168 H 0.81181 0.19803 0.65897 0.0
H1169 H 0.84851 0.21497 0.57954 0.0
H1170 H 0.8444 0.16615 0.82958 0.0
H1171 H 0.95437 0.20859 0.67522 0.0
H1172 H 0.01063 0.06718 0.09297 0.0
H1173 H 0.98564 0.09498 0.19159 0.0
H1174 H 0.97932 0.07502 0.98873 0.0
H1175 H 0.88314 0.10978 0.09264 0.0
C1176 C 0.2645 0.17405 0.5256 0.0
C1177 C 0.34651 0.13665 0.44288 0.0
C1178 C 0.27664 0.1357 0.48806 0.0
C1179 C 0.36674 0.1805 0.46139 0.0
C1180 C 0.29409 0.21258 0.53352 0.0
C1181 C 0.34141 0.21619 0.50444 0.0
N1182 N 0.23737 0.16854 0.56862 0.0
C1183 C 0.23151 0.19719 0.60973 0.0
C1184 C 0.27663 0.24047 0.56481 0.0
C1185 C 0.24338 0.23289 0.59512 0.0
Gd1186 Gd 0.13228 0.09158 0.70533 0.0
Gd1187 Gd 0.20649 0.10719 0.56992 0.0
N1188 N 0.26657 0.09809 0.52176 0.0
C1189 C 0.36574 0.09258 0.45808 0.0
C1190 C 0.29264 0.06179 0.52811 0.0
C1191 C 0.33941 0.05717 0.49898 0.0
H1192 H 0.2815 0.03855 0.55359 0.0
H1193 H 0.35318 0.03201 0.51081 0.0
H1194 H 0.11075 0.17563 0.77127 0.0
H1195 H 0.21716 0.19344 0.65479 0.0
H1196 H 0.06849 0.22553 0.73691 0.0
H1197 H 0.39439 0.08819 0.44915 0.0
H1198 H 0.39552 0.1843 0.45305 0.0
H1199 H 0.08389 0.01349 0.73211 0.0
H1200 H 0.28809 0.26753 0.56576 0.0
H1201 H 0.22768 0.25506 0.61338 0.0
H1202 H 0.97856 0.16059 0.60806 0.0
H1203 H 0.3557 0.24122 0.5148 0.0
H1204 H 0.97228 0.04111 0.69691 0.0
H1205 H 0.01916 0.99638 0.73463 0.0
N1206 N 0.07311 0.06792 0.70119 0.0
C1207 C 0.04751 0.09168 0.67993 0.0
C1208 C 0.06371 0.03305 0.71665 0.0
C1209 C 1.0009 0.04748 0.69348 0.0
C1210 C 0.02709 0.02295 0.7169 0.0
C1211 C 0.01181 0.08083 0.66805 0.0
H1212 H 0.96196 0.09556 0.61727 0.0
N1213 N 0.08788 0.13773 0.70547 0.0
C1214 C 0.05615 0.12785 0.6778 0.0
C1215 C 0.03664 0.19021 0.67425 0.0
C1216 C 0.03028 0.15377 0.65806 0.0
C1217 C 0.09011 0.17084 0.7348 0.0
C1218 C 0.06545 0.19839 0.71718 0.0
O1219 O 0.22903 0.10766 0.68262 0.0
O1220 O 0.18854 0.07148 0.73397 0.0
O1221 O 0.13302 0.10969 0.80517 0.0
O1222 O 0.12714 0.05192 0.78406 0.0
O1223 O 0.19989 0.04837 0.60558 0.0
O1224 O 0.14009 0.04343 0.63525 0.0
O1225 O 0.10906 0.08809 0.60148 0.0
O1226 O 0.14593 0.12573 0.54129 0.0
O1227 O 0.22699 0.08584 0.47724 0.0
O1228 O 0.16989 0.08785 0.49185 0.0
O1229 O 0.15814 0.14823 0.69382 0.0
O1230 O 0.17067 0.15601 0.58497 0.0
C1231 C 0.21731 0.09227 0.73924 0.0
C1232 C 0.16872 0.03015 0.60408 0.0
C1233 C 0.10038 0.07522 0.882 0.0
C1234 C 0.09392 0.0946 0.9941 0.0
C1235 C 0.06625 0.03828 0.95866 0.0
C1236 C 0.08051 0.04354 0.89569 0.0
C1237 C 0.07466 0.06286 0.00884 0.0
C1238 C 0.10321 0.10227 0.92949 0.0
C1239 C 0.12653 0.07732 0.82843 0.0
C1240 C 0.99782 0.1416 0.62896 0.0
C1241 C 0.98825 0.10477 0.63494 0.0
H1242 H 0.0176 0.21132 0.66013 0.0
C1243 C 0.11256 0.11287 0.5552 0.0
C1244 C 0.15694 0.16855 0.6401 0.0
C1245 C 0.19324 0.11443 0.39607 0.0
C1246 C 0.19498 0.13932 0.27391 0.0
C1247 C 0.20732 0.17762 0.37855 0.0
C1248 C 0.19636 0.15001 0.41847 0.0
C1249 C 0.20923 0.17355 0.31176 0.0
C1250 C 0.19278 0.10641 0.32816 0.0
C1251 C 0.19558 0.08685 0.44833 0.0
H1252 H 0.05183 0.01352 0.97007 0.0
H1253 H 0.07802 0.02204 0.85966 0.0
H1254 H 0.06919 0.05565 0.05946 0.0
H1255 H 0.11995 0.12604 0.91996 0.0
H1256 H 0.21545 0.20329 0.40002 0.0
H1257 H 0.19525 0.15592 0.47022 0.0
H1258 H 0.20067 0.15533 0.28331 0.0
H1259 H 0.19161 0.07777 0.31764 0.0
C1260 C 0.08801 0.95249 0.31956 0.0
C1261 C 0.14558 0.98438 0.31856 0.0
C1262 C 0.12548 0.95184 0.31749 0.0
C1263 C 0.12699 0.01756 0.32272 0.0
C1264 C 0.06999 0.98547 0.30789 0.0
C1265 C 0.08937 0.01827 0.31219 0.0
N1266 N 0.06953 0.92058 0.32045 0.0
C1267 C 0.03291 0.91989 0.30897 0.0
C1268 C 0.03414 0.98386 0.28561 0.0
C1269 C 0.01473 0.95147 0.29001 0.0
Gd1270 Gd 0.11106 0.79703 0.45386 0.0
Gd1271 Gd 0.10494 0.86798 0.3175 0.0
N1272 N 0.14196 0.91955 0.30704 0.0
C1273 C 0.18324 0.98261 0.30946 0.0
C1274 C 0.17729 0.91848 0.28686 0.0
C1275 C 0.19891 0.94972 0.2902 0.0
H1276 H 0.18907 0.89321 0.27033 0.0
H1277 H 0.2275 0.94841 0.27781 0.0
H1278 H 0.04547 0.72174 0.42731 0.0
H1279 H 0.01844 0.89432 0.30751 0.0
H1280 H 0.03378 0.65008 0.46349 0.0
H1281 H 0.19989 0.00682 0.31217 0.0
H1282 H 0.14152 0.04293 0.32625 0.0
H1283 H 0.20519 0.82143 0.51557 0.0
H1284 H 0.02172 0.00699 0.26188 0.0
H1285 H 0.98647 0.95033 0.27476 0.0
H1286 H 0.17684 0.6087 0.58918 0.0
H1287 H 0.07596 0.04421 0.30541 0.0
H1288 H 0.26511 0.72459 0.56809 0.0
H1289 H 0.25816 0.79096 0.56012 0.0
N1290 N 0.17311 0.77401 0.49626 0.0
C1291 C 0.17192 0.74025 0.52 0.0
C1292 C 0.20423 0.79204 0.51716 0.0
C1293 C 0.23999 0.7359 0.54893 0.0
C1294 C 0.23557 0.77417 0.54447 0.0
C1295 C 0.21129 0.71304 0.53339 0.0
H1296 H 0.23878 0.65243 0.56595 0.0
N1297 N 0.09822 0.73613 0.48603 0.0
C1298 C 0.12988 0.72626 0.53567 0.0
C1299 C 0.08555 0.63708 0.54006 0.0
C1300 C 0.12633 0.65579 0.5768 0.0
C1301 C 0.06494 0.71009 0.46147 0.0
C1302 C 0.05717 0.6635 0.48499 0.0
O1303 O 0.1394 0.89239 0.3985 0.0
O1304 O 0.12278 0.85814 0.4883 0.0
O1305 O 0.09417 0.83082 0.53578 0.0
O1306 O 0.07959 0.77439 0.53546 0.0
O1307 O 0.15756 0.8351 0.31744 0.0
O1308 O 0.16456 0.81953 0.4255 0.0
O1309 O 0.10957 0.77147 0.33923 0.0
O1310 O 0.07745 0.81509 0.28765 0.0
O1311 O 0.12691 0.87362 0.21938 0.0
O1312 O 0.06867 0.86646 0.23524 0.0
O1313 O 0.05326 0.80879 0.41408 0.0
O1314 O 0.06034 0.86884 0.39756 0.0
C1315 C 0.1364 0.88895 0.46235 0.0
C1316 C 0.17833 0.82821 0.36887 0.0
C1317 C 0.09913 0.79953 0.63711 0.0
C1318 C 0.10138 0.82573 0.80682 0.0
C1319 C 0.16278 0.81403 0.69333 0.0
C1320 C 0.13918 0.80289 0.63645 0.0
C1321 C 0.14277 0.82938 0.801 0.0
C1322 C 0.0765 0.80463 0.69981 0.0
C1323 C 0.08242 0.80338 0.57085 0.0
C1324 C 0.17248 0.63726 0.5804 0.0
C1325 C 0.21235 0.66487 0.55909 0.0
H1326 H 0.07759 0.6098 0.5429 0.0
C1327 C 0.09385 0.78366 0.28159 0.0
C1328 C 0.03932 0.84188 0.41774 0.0
C1329 C 0.08625 0.90487 0.14978 0.0
C1330 C 0.0929 0.91739 0.03646 0.0
C1331 C 0.04143 0.94268 0.09552 0.0
C1332 C 0.05203 0.92197 0.14913 0.0
C1333 C 0.06114 0.93951 0.0379 0.0
C1334 C 0.10906 0.90863 0.09623 0.0
C1335 C 0.09425 0.87519 0.19433 0.0
H1336 H 0.19026 0.814 0.67181 0.0
H1337 H 0.15179 0.80283 0.59014 0.0
H1338 H 0.15747 0.83911 0.8449 0.0
H1339 H 0.04884 0.79849 0.6851 0.0
H1340 H 0.01528 0.9563 0.09525 0.0
H1341 H 0.03189 0.91637 0.18544 0.0
H1342 H 0.04787 0.9498 0.99423 0.0
H1343 H 0.13598 0.89672 0.09789 0.0
C1344 C 0.39588 0.95759 0.25363 0.0
C1345 C 0.37665 0.92459 0.24691 0.0
C1346 C 0.38349 0.9911 0.22649 0.0
C1347 C 0.35317 0.99365 0.18386 0.0
H1348 H 0.42112 0.95756 0.28071 0.0
H1349 H 0.39836 0.01556 0.23855 0.0
S1350 S 0.29235 0.9157 0.14601 0.0
N1351 N 0.32373 0.89748 0.19456 0.0
N1352 N 0.3034 0.95896 0.13669 0.0
C1353 C 0.3341 0.96062 0.17393 0.0
C1354 C 0.34539 0.92664 0.20572 0.0
C1355 C 0.93902 0.65973 0.77092 0.0
C1356 C 0.9348 0.62556 0.73887 0.0
C1357 C 0.97191 0.67077 0.80403 0.0
C1358 C 1.00306 0.64817 0.80757 0.0
H1359 H 0.91683 0.67832 0.77149 0.0
H1360 H 0.97255 0.69703 0.82798 0.0
S1361 S 0.00666 0.55584 0.73556 0.0
N1362 N 0.96483 0.56862 0.71937 0.0
N1363 N 0.02693 0.59014 0.77209 0.0
C1364 C 0.99918 0.61429 0.77505 0.0
C1365 C 0.9654 0.60281 0.74384 0.0
C1366 C 0.69498 0.03297 0.2325 0.0
C1367 C 0.66978 0.00639 0.20899 0.0
C1368 C 0.68333 0.06727 0.26147 0.0
C1369 C 0.64584 0.07696 0.26972 0.0
H1370 H 0.72382 0.02756 0.22818 0.0
H1371 H 0.704 0.08568 0.27937 0.0
S1372 S 0.57031 0.01693 0.22055 0.0
N1373 N 0.60601 0.99327 0.20011 0.0
N1374 N 0.5852 0.05486 0.25336 0.0
C1375 C 0.62147 0.05022 0.24751 0.0
C1376 C 0.63302 0.01624 0.21783 0.0
C1377 C 0.02134 0.32485 0.76525 0.0
C1378 C 0.01373 0.33541 0.83069 0.0
C1379 C 0.05557 0.3321 0.73388 0.0
C1380 C 0.08476 0.35207 0.76323 0.0
H1381 H 1.00033 0.31122 0.73703 0.0
H1382 H 0.05919 0.32174 0.68478 0.0
S1383 S 0.08379 0.37771 0.93937 0.0
N1384 N 0.04306 0.35974 0.92848 0.0
N1385 N 0.10461 0.37635 0.86771 0.0
C1386 C 0.07862 0.36038 0.83019 0.0
C1387 C 0.04412 0.3517 0.86348 0.0
C1388 C 0.37559 0.53678 0.07644 0.0
C1389 C 0.34318 0.51723 0.06291 0.0
C1390 C 0.38625 0.56929 0.04476 0.0
C1391 C 0.36457 0.58636 0.99723 0.0
H1392 H 0.39379 0.52724 0.11223 0.0
H1393 H 0.41204 0.58126 0.05805 0.0
S1394 S 0.27394 0.55256 0.94474 0.0
N1395 N 0.2873 0.52139 0.99863 0.0
N1396 N 0.30645 0.58322 0.94136 0.0
C1397 C 0.33045 0.5695 0.9855 0.0
C1398 C 0.31991 0.53523 0.01727 0.0
C1399 C 0.57822 0.65337 0.96 0.0
C1400 C 0.5756 0.62795 0.01281 0.0
C1401 C 0.54701 0.66604 0.9229 0.0
C1402 C 0.51097 0.65449 0.93689 0.0
H1403 H 0.60476 0.66316 0.94606 0.0
H1404 H 0.55124 0.68527 0.88334 0.0
S1405 S 0.48906 0.58248 0.0564 0.0
N1406 N 0.53335 0.58683 0.06515 0.0
N1407 N 0.47592 0.61359 1.00337 0.0
C1408 C 0.50833 0.62881 0.98812 0.0
C1409 C 0.53995 0.61466 0.02322 0.0
C1410 C 0.66444 0.48921 1.00426 0.0
C1411 C 0.65445 0.49853 0.06903 0.0
C1412 C 0.65463 0.45489 0.97585 0.0
C1413 C 0.63375 0.42784 1.00834 0.0
H1414 H 0.67926 0.50863 0.97469 0.0
H1415 H 0.66454 0.44853 0.92805 0.0
S1416 S 0.60579 0.43797 0.18094 0.0
N1417 N 0.6278 0.47548 0.16688 0.0
N1418 N 0.60679 0.4135 0.11293 0.0
C1419 C 0.62562 0.43635 0.0739 0.0
C1420 C 0.63643 0.4708 0.10341 0.0
C1421 C 0.43944 0.39229 0.9497 0.0
C1422 C 0.42282 0.37203 0.99996 0.0
C1423 C 0.47413 0.38304 0.9235 0.0
C1424 C 0.49417 0.35162 0.94264 0.0
H1425 H 0.42589 0.41625 0.93122 0.0
H1426 H 0.48535 0.40163 0.88863 0.0
S1427 S 0.46195 0.28686 0.06878 0.0
N1428 N 0.42982 0.31819 0.06739 0.0
N1429 N 0.4924 0.29902 0.01383 0.0
C1430 C 0.47691 0.32993 0.99039 0.0
C1431 C 0.44221 0.34038 0.0195 0.0
C1432 C 0.84064 0.45502 0.79704 0.0
C1433 C 0.86235 0.42586 0.77337 0.0
C1434 C 0.83496 0.4881 0.76098 0.0
C1435 C 0.85044 0.49435 0.69818 0.0
H1436 H 0.82791 0.45238 0.84462 0.0
H1437 H 0.81897 0.50938 0.78362 0.0
S1438 S 0.90417 0.42564 0.60763 0.0
N1439 N 0.89558 0.40526 0.67808 0.0
N1440 N 0.88493 0.46596 0.61159 0.0
C1441 C 0.87032 0.46474 0.67255 0.0
C1442 C 0.87604 0.43114 0.70919 0.0
C1443 C 0.48757 0.11153 0.31575 0.0
C1444 C 0.50042 0.14779 0.32319 0.0
C1445 C 0.45292 0.10208 0.28745 0.0
C1446 C 0.42832 0.12808 0.26131 0.0
H1447 H 0.5056 0.08965 0.32827 0.0
H1448 H 0.44609 0.07362 0.2834 0.0
S1449 S 0.4497 0.2263 0.2548 0.0
N1450 N 0.48517 0.20976 0.29497 0.0
N1451 N 0.42264 0.19196 0.23794 0.0
C1452 C 0.44129 0.1643 0.26571 0.0
C1453 C 0.4763 0.17407 0.29653 0.0
C1454 C 0.17428 0.55003 0.78509 0.0
C1455 C 0.15006 0.57604 0.75525 0.0
C1456 C 0.18409 0.51556 0.75588 0.0
C1457 C 0.17266 0.50538 0.69172 0.0
H1458 H 0.1854 0.55596 0.8332 0.0
H1459 H 0.20016 0.4966 0.78468 0.0
S1460 S 0.11682 0.56165 0.58476 0.0
N1461 N 0.11618 0.58557 0.65388 0.0
N1462 N 0.14431 0.52752 0.59496 0.0
C1463 C 0.15307 0.53251 0.65876 0.0
C1464 C 0.13955 0.56571 0.69052 0.0
C1465 C 0.574 0.83643 0.26638 0.0
C1466 C 0.58041 0.87244 0.24317 0.0
C1467 C 0.5401 0.82538 0.2959 0.0
C1468 C 0.51041 0.84972 0.30469 0.0
H1469 H 0.59522 0.81629 0.26122 0.0
H1470 H 0.53742 0.7976 0.31275 0.0
S1471 S 0.51119 0.94606 0.24995 0.0
N1472 N 0.55237 0.93166 0.2319 0.0
N1473 N 0.48999 0.91103 0.28215 0.0
C1474 C 0.51645 0.88529 0.28051 0.0
C1475 C 0.55072 0.89651 0.25157 0.0
C1476 C 0.8921 0.01265 0.53486 0.0
C1477 C 0.8622 0.00848 0.57776 0.0
C1478 C 0.9023 0.04682 0.50664 0.0
C1479 C 0.88226 0.07955 0.51522 0.0
H1480 H 0.9081 0.98902 0.5227 0.0
H1481 H 0.92617 0.04722 0.47611 0.0
S1482 S 0.7959 0.08164 0.61081 0.0
N1483 N 0.81019 0.03966 0.62151 0.0
N1484 N 0.82757 0.10228 0.56699 0.0
C1485 C 0.85144 0.07516 0.55669 0.0
C1486 C 0.84174 0.04039 0.5873 0.0
C1487 C 0.07201 0.16036 0.49274 0.0
C1488 C 0.07831 0.12437 0.51566 0.0
C1489 C 0.03831 0.17147 0.46243 0.0
C1490 C 0.00884 0.14715 0.45233 0.0
H1491 H 0.09298 0.18054 0.49961 0.0
H1492 H 0.03545 0.19944 0.44661 0.0
S1493 S 0.0109 0.04969 0.50237 0.0
N1494 N 0.05154 0.06453 0.52379 0.0
N1495 N 0.98926 0.08498 0.47074 0.0
C1496 C 0.01511 0.11114 0.475 0.0
C1497 C 0.04922 0.09996 0.50535 0.0
C1498 C 0.17335 0.94866 0.47872 0.0
C1499 C 0.14837 0.92247 0.50389 0.0
C1500 C 0.18157 0.98231 0.51146 0.0
C1501 C 0.16488 0.99236 0.57145 0.0
H1502 H 0.18663 0.94331 0.43244 0.0
H1503 H 0.20011 1.00111 0.48812 0.0
S1504 S 0.0978 0.93646 0.65856 0.0
N1505 N 0.10826 0.9106 0.59505 0.0
N1506 N 0.12252 0.97318 0.65347 0.0
C1507 C 0.14065 0.96649 0.59712 0.0
C1508 C 0.13283 0.93204 0.56478 0.0
C1509 C 0.97554 0.82396 0.47064 0.0
C1510 C 1.001 0.85038 0.44791 0.0
C1511 C 0.94099 0.83366 0.50009 0.0
C1512 C 0.9294 0.87042 0.50844 0.0
H1513 H 0.98258 0.79546 0.46709 0.0
H1514 H 0.92403 0.81207 0.51874 0.0
S1515 S 0.98533 0.94931 0.46164 0.0
N1516 N 0.01117 0.9149 0.44155 0.0
N1517 N 0.94741 0.93225 0.49064 0.0
C1518 C 0.95433 0.89629 0.48506 0.0
C1519 C 0.9893 0.88664 0.45663 0.0
C1520 C 0.36244 0.23951 0.07906 0.0
C1521 C 0.35844 0.21775 0.13522 0.0
C1522 C 0.36193 0.27784 0.08325 0.0
C1523 C 0.35523 0.29675 0.14295 0.0
H1524 H 0.36459 0.22708 0.03103 0.0
H1525 H 0.36582 0.2928 0.03806 0.0
S1526 S 0.34679 0.25345 0.30646 0.0
N1527 N 0.35312 0.2192 0.25555 0.0
N1528 N 0.34733 0.29027 0.26021 0.0
C1529 C 0.35338 0.2756 0.19993 0.0
C1530 C 0.35629 0.23664 0.19675 0.0
C1531 C 0.26985 0.64131 0.81584 0.0
C1532 C 0.29355 0.65305 0.86596 0.0
C1533 C 0.2318 0.64028 0.82563 0.0
C1534 C 0.21582 0.65285 0.88474 0.0
H1535 H 0.28052 0.6347 0.76774 0.0
H1536 H 0.21459 0.63289 0.7843 0.0
S1537 S 0.26572 0.67277 0.03844 0.0
N1538 N 0.29797 0.66641 0.9835 0.0
N1539 N 0.22688 0.66738 0.99882 0.0
C1540 C 0.23922 0.65934 0.93771 0.0
C1541 C 0.27793 0.659 0.92889 0.0
C1542 C 0.65201 0.78073 0.18378 0.0
C1543 C 0.65192 0.79294 0.1177 0.0
C1544 C 0.65114 0.74339 0.19923 0.0
C1545 C 0.64719 0.71716 0.14969 0.0
H1546 H 0.65713 0.79955 0.22341 0.0
H1547 H 0.6557 0.73497 0.24972 0.0
S1548 S 0.63572 0.7356 0.97125 0.0
N1549 N 0.64333 0.77596 1.00375 0.0
N1550 N 0.63437 0.70688 0.03379 0.0
C1551 C 0.64017 0.72967 0.08516 0.0
C1552 C 0.64452 0.76729 0.06871 0.0
C1553 C 0.76822 0.31401 0.88856 0.0
C1554 C 0.78881 0.3413 0.91864 0.0
C1555 C 0.73171 0.3184 0.8686 0.0
C1556 C 0.71104 0.34756 0.89086 0.0
H1557 H 0.78 0.28725 0.88658 0.0
H1558 H 0.71776 0.29569 0.8461 0.0
S1559 S 0.74416 0.41505 0.01269 0.0
N1560 N 0.78154 0.3933 0.99055 0.0
N1561 N 0.71074 0.39718 0.96907 0.0
C1562 C 0.72907 0.37214 0.93349 0.0
C1563 C 0.76796 0.36977 0.94575 0.0
C1564 C 0.85925 0.73925 0.55732 0.0
C1565 C 0.85962 0.71364 0.60867 0.0
C1566 C 0.86098 0.77688 0.57051 0.0
C1567 C 0.86156 0.79029 0.63562 0.0
H1568 H 0.85559 0.73032 0.50695 0.0
H1569 H 0.85867 0.79565 0.52959 0.0
S1570 S 0.86458 0.73532 0.78719 0.0
N1571 N 0.86359 0.70517 0.72701 0.0
N1572 N 0.8648 0.77537 0.75096 0.0
C1573 C 0.86467 0.7652 0.68673 0.0
C1574 C 0.86447 0.72699 0.67338 0.0
C1575 C 0.77224 0.15508 0.33844 0.0
C1576 C 0.79381 0.15571 0.39548 0.0
C1577 C 0.73466 0.1511 0.34186 0.0
C1578 C 0.71637 0.1529 0.40255 0.0
H1579 H 0.78389 0.15983 0.29054 0.0
H1580 H 0.71968 0.1504 0.29579 0.0
S1581 S 0.75869 0.16308 0.56657 0.0
N1582 N 0.79293 0.15649 0.51588 0.0
N1583 N 0.72206 0.16225 0.51985 0.0
C1584 C 0.73701 0.15573 0.45993 0.0
C1585 C 0.77563 0.15398 0.45697 0.0
C1586 C 0.1474 0.26514 0.57419 0.0
C1587 C 0.15111 0.28687 0.63032 0.0
C1588 C 0.1457 0.22708 0.57933 0.0
C1589 C 0.14976 0.20886 0.64043 0.0
H1590 H 0.14844 0.27726 0.52567 0.0
H1591 H 0.14454 0.2118 0.53395 0.0
S1592 S 0.15743 0.25422 0.80305 0.0
N1593 N 0.15029 0.2877 0.75047 0.0
N1594 N 0.15899 0.217 0.75809 0.0
C1595 C 0.15203 0.23059 0.69714 0.0
C1596 C 0.14898 0.2693 0.69242 0.0
C1597 C 0.27432 0.86784 0.3719 0.0
C1598 C 0.29553 0.83775 0.39045 0.0
C1599 C 0.2363 0.86498 0.3664 0.0
C1600 C 0.21874 0.831 0.36673 0.0
H1601 H 0.28696 0.89389 0.36296 0.0
H1602 H 0.22093 0.88968 0.36528 0.0
S1603 S 0.26235 0.74434 0.41236 0.0
N1604 N 0.2956 0.77416 0.41905 0.0
N1605 N 0.22621 0.76665 0.38591 0.0
C1606 C 0.24018 0.80064 0.38223 0.0
C1607 C 0.2779 0.80451 0.39877 0.0
C1608 C 0.23119 0.12161 0.85802 0.0
C1609 C 0.23782 0.09416 0.80918 0.0
C1610 C 0.24771 0.12187 0.92376 0.0
C1611 C 0.27238 0.09452 0.94741 0.0
H1612 H 0.21272 0.14352 0.84537 0.0
H1613 H 0.24129 0.14432 0.95608 0.0
S1614 S 0.29696 0.01414 0.84406 0.0
N1615 N 0.26971 0.0374 0.79465 0.0
N1616 N 0.30013 0.03777 0.91288 0.0
C1617 C 0.27842 0.06671 0.89921 0.0
C1618 C 0.26145 0.0664 0.83292 0.0
C1619 C 0.11158 0.7161 0.12221 0.0
C1620 C 0.09367 0.73116 0.06493 0.0
C1621 C 0.1108 0.73178 0.18882 0.0
C1622 C 0.09255 0.76431 0.2079 0.0
H1623 H 0.12661 0.69106 0.11599 0.0
H1624 H 0.1237 0.71744 0.22745 0.0
S1625 S 0.03431 0.81304 0.08288 0.0
N1626 N 0.05231 0.78026 0.03815 0.0
N1627 N 0.05071 0.80787 0.15815 0.0
C1628 C 0.07285 0.77867 0.15148 0.0
C1629 C 0.07345 0.76289 0.08326 0.0
C1630 C 0.75965 0.87141 0.92996 0.0
C1631 C 0.74141 0.90207 0.9581 0.0
C1632 C 0.77605 0.87127 0.86452 0.0
C1633 C 0.7755 0.90141 0.81931 0.0
H1634 H 0.76136 0.84673 0.95887 0.0
H1635 H 0.78969 0.84664 0.84914 0.0
S1636 S 0.7348 0.9904 0.86726 0.0
N1637 N 0.72655 0.96481 0.93231 0.0
N1638 N 0.75609 0.96422 0.81382 0.0
C1639 C 0.7576 0.93224 0.847 0.0
C1640 C 0.74113 0.93254 0.91377 0.0
C1641 C 0.87819 0.25656 0.09579 0.0
C1642 C 0.90936 0.27326 0.06628 0.0
C1643 C 0.87777 0.24051 0.16175 0.0
C1644 C 0.90773 0.24187 0.20729 0.0
H1645 H 0.85291 0.25683 0.06836 0.0
H1646 H 0.85315 0.22695 0.17729 0.0
S1647 S 0.99267 0.29235 0.16725 0.0
N1648 N 0.9691 0.2955 0.098 0.0
N1649 N 0.96769 0.26815 0.2184 0.0
C1650 C 0.93779 0.26141 0.18086 0.0
C1651 C 0.93853 0.2767 0.11318 0.0
C1652 C 0.25486 0.43971 0.34569 0.0
C1653 C 0.26593 0.40826 0.30931 0.0
C1654 C 0.23851 0.43872 0.41103 0.0
C1655 C 0.2326 0.40627 0.44869 0.0
H1656 H 0.25903 0.46608 0.32335 0.0
H1657 H 0.23081 0.46438 0.43291 0.0
S1658 S 0.25751 0.31505 0.38097 0.0
N1659 N 0.2706 0.34287 0.3217 0.0
N1660 N 0.23916 0.34078 0.43869 0.0
C1661 C 0.24321 0.37448 0.41253 0.0
C1662 C 0.26027 0.37558 0.3462 0.0
C1663 C 0.38151 0.73257 0.64394 0.0
C1664 C 0.40971 0.73591 0.69306 0.0
C1665 C 0.38266 0.74868 0.57799 0.0
C1666 C 0.41306 0.76794 0.55163 0.0
H1667 H 0.35742 0.71733 0.65689 0.0
H1668 H 0.35856 0.74683 0.54767 0.0
S1669 S 0.49437 0.78819 0.65761 0.0
N1670 N 0.46877 0.76394 0.70773 0.0
N1671 N 0.47173 0.79136 0.5873 0.0
C1672 C 0.44105 0.77241 0.60093 0.0
C1673 C 0.4394 0.75708 0.66894 0.0
C1674 C 0.7304 0.62995 0.36357 0.0
C1675 C 0.73481 0.60277 0.31419 0.0
C1676 C 0.74773 0.62835 0.42782 0.0
C1677 C 0.77132 0.59954 0.44834 0.0
H1678 H 0.71283 0.65288 0.35281 0.0
H1679 H 0.74265 0.65041 0.46178 0.0
S1680 S 0.79321 0.52104 0.33901 0.0
N1681 N 0.76553 0.54582 0.2928 0.0
N1682 N 0.79729 0.54271 0.40982 0.0
C1683 C 0.77592 0.57227 0.39909 0.0
C1684 C 0.7581 0.57384 0.33398 0.0
C1685 C 0.62696 0.22471 0.62501 0.0
C1686 C 0.60089 0.23231 0.57325 0.0
C1687 C 0.62599 0.24021 0.69186 0.0
C1688 C 0.59844 0.26482 0.71507 0.0
H1689 H 0.64888 0.20605 0.61391 0.0
H1690 H 0.64757 0.23269 0.72573 0.0
S1691 S 0.52104 0.29247 0.60445 0.0
N1692 N 0.54502 0.26574 0.55597 0.0
N1693 N 0.5429 0.29366 0.67564 0.0
C1694 C 0.57198 0.27193 0.66385 0.0
C1695 C 0.57302 0.25614 0.59626 0.0
C1696 C 0.37624 0.08485 0.60679 0.0
C1697 C 0.34164 0.10189 0.60259 0.0
C1698 C 0.38907 0.07073 0.6654 0.0
C1699 C 0.37067 0.07782 0.72338 0.0
H1700 H 0.39403 0.0813 0.56556 0.0
H1701 H 0.41401 0.05492 0.66566 0.0
S1702 S 0.29672 0.14508 0.74515 0.0
N1703 N 0.29841 0.13789 0.66521 0.0
N1704 N 0.32722 0.11743 0.778 0.0
C1705 C 0.34119 0.10204 0.72287 0.0
C1706 C 0.32583 0.11315 0.66205 0.0
C1707 C 0.10451 0.62107 0.40717 0.0
C1708 C 0.11636 0.65788 0.41127 0.0
C1709 C 0.09734 0.60533 0.34781 0.0
C1710 C 0.10816 0.62278 0.29153 0.0
H1711 H 0.0996 0.60305 0.4471 0.0
H1712 H 0.08011 0.58154 0.34558 0.0
S1713 S 0.18018 0.69281 0.28734 0.0
N1714 N 0.16001 0.69821 0.35896 0.0
N1715 N 0.15772 0.6599 0.24935 0.0
C1716 C 0.13314 0.65132 0.29649 0.0
C1717 C 0.13514 0.67096 0.35611 0.0
C1718 C 0.62389 0.90983 0.62146 0.0
C1719 C 0.6486 0.87727 0.60079 0.0
C1720 C 0.59756 0.90962 0.67026 0.0
C1721 C 0.59811 0.88341 0.71902 0.0
H1722 H 0.62302 0.93545 0.59571 0.0
H1723 H 0.58119 0.93398 0.67596 0.0
S1724 S 0.69038 0.82607 0.73334 0.0
N1725 N 0.64822 0.84219 0.7158 0.0
N1726 N 0.64851 0.84236 0.75323 0.0
C1727 C 0.62529 0.85417 0.70925 0.0
C1728 C 0.63683 0.84621 0.64896 0.0
C1729 C 0.90779 0.35592 0.29582 0.0
C1730 C 0.89001 0.38897 0.28877 0.0
C1731 C 0.89289 0.32897 0.33477 0.0
C1732 C 0.86682 0.33731 0.3881 0.0
H1733 H 0.93184 0.34977 0.26712 0.0
H1734 H 0.90644 0.30319 0.32776 0.0
S1735 S 0.79225 0.40008 0.31815 0.0
N1736 N 0.83027 0.41544 0.28624 0.0
N1737 N 0.80424 0.36388 0.3607 0.0
C1738 C 0.84116 0.3628 0.35274 0.0
C1739 C 0.85448 0.39064 0.31006 0.0
C1740 C 0.40889 0.43013 0.60246 0.0
C1741 C 0.39236 0.42558 0.54124 0.0
C1742 C 0.39016 0.42221 0.65941 0.0
C1743 C 0.35293 0.41229 0.65803 0.0
H1744 H 0.43645 0.44031 0.60653 0.0
H1745 H 0.40637 0.42292 0.70345 0.0
S1746 S 0.30761 0.37338 0.51308 0.0
N1747 N 0.34375 0.39361 0.48287 0.0
N1748 N 0.30736 0.38218 0.59234 0.0
C1749 C 0.3385 0.40172 0.59746 0.0
C1750 C 0.3584 0.40773 0.53863 0.0
C1751 C 0.44423 0.69477 0.41157 0.0
C1752 C 0.40755 0.69214 0.38123 0.0
C1753 C 0.45628 0.66883 0.45634 0.0
C1754 C 0.4314 0.64652 0.48877 0.0
H1755 H 0.4664 0.71111 0.39301 0.0
H1756 H 0.48519 0.66773 0.46689 0.0
S1757 S 0.33555 0.67749 0.51108 0.0
N1758 N 0.35139 0.70149 0.44936 0.0
N1759 N 0.36894 0.64974 0.53055 0.0
C1760 C 0.39508 0.6592 0.48696 0.0
C1761 C 0.38503 0.6865 0.44035 0.0
C1762 C 0.66608 0.60218 0.61268 0.0
C1763 C 0.6548 0.62783 0.67217 0.0
C1764 C 0.64571 0.59227 0.55989 0.0
C1765 C 0.6113 0.60507 0.5507 0.0
H1766 H 0.69258 0.59053 0.60695 0.0
H1767 H 0.65762 0.57369 0.52436 0.0
S1768 S 0.55463 0.66534 0.64973 0.0
N1769 N 0.59206 0.6595 0.69256 0.0
N1770 N 0.56238 0.64284 0.58203 0.0
C1771 C 0.59632 0.62928 0.59368 0.0
C1772 C 0.61455 0.63927 0.65383 0.0
C1773 C 0.60091 0.40612 0.41412 0.0
C1774 C 0.60118 0.39098 0.47664 0.0
C1775 C 0.60749 0.38439 0.36015 0.0
C1776 C 0.60886 0.34592 0.3655 0.0
H1777 H 0.59603 0.43494 0.40703 0.0
H1778 H 0.61269 0.39874 0.31501 0.0
S1779 S 0.63927 0.29999 0.51659 0.0
N1780 N 0.62357 0.33947 0.54195 0.0
N1781 N 0.63168 0.29868 0.43667 0.0
C1782 C 0.61654 0.33195 0.42757 0.0
C1783 C 0.61277 0.35441 0.48392 0.0
C1784 C 0.82219 0.64647 0.16971 0.0
C1785 C 0.83736 0.65441 0.10335 0.0
C1786 C 0.84054 0.62677 0.21766 0.0
C1787 C 0.8778 0.62172 0.2143 0.0
H1788 H 0.79391 0.64886 0.18355 0.0
H1789 H 0.82495 0.61532 0.25782 0.0
S1790 S 0.94167 0.67393 0.11465 0.0
N1791 N 0.90139 0.68121 0.08217 0.0
N1792 N 0.93338 0.6459 0.17512 0.0
C1793 C 0.89668 0.64169 0.16969 0.0
C1794 C 0.87789 0.66033 0.11821 0.0
C1795 C 0.59314 0.09913 0.85226 0.0
C1796 C 0.56936 0.11377 0.80575 0.0
C1797 C 0.60702 0.12095 0.90202 0.0
C1798 C 0.59726 0.15802 0.90734 0.0
H1799 H 0.60175 0.071 0.8491 0.0
H1800 H 0.62509 0.10836 0.93764 0.0
S1801 S 0.54139 0.20975 0.78657 0.0
N1802 N 0.53955 0.16729 0.76118 0.0
N1803 N 0.56825 0.20945 0.85194 0.0
C1804 C 0.57596 0.1735 0.85692 0.0
C1805 C 0.56094 0.15091 0.80735 0.0
C1806 C 0.15751 0.4614 0.1965 0.0
C1807 C 0.1411 0.43682 0.2392 0.0
C1808 C 0.18453 0.45046 0.15375 0.0
C1809 C 0.18796 0.41225 0.1315 0.0
H1810 H 0.15155 0.49005 0.19669 0.0
H1811 H 0.19571 0.47376 0.12826 0.0
S1812 S 0.18409 0.34752 0.27887 0.0
N1813 N 0.15469 0.37962 0.2953 0.0
N1814 N 0.20294 0.36084 0.21018 0.0
C1815 C 0.18457 0.39209 0.1949 0.0
C1816 C 0.15854 0.40268 0.24344 0.0
C1817 C 0.45014 0.84564 0.85757 0.0
C1818 C 0.41985 0.82519 0.87801 0.0
C1819 C 0.44596 0.87452 0.81503 0.0
C1820 C 0.41237 0.88107 0.78438 0.0
H1821 H 0.47781 0.83783 0.86808 0.0
H1822 H 0.47008 0.88982 0.80235 0.0
S1823 S 0.33648 0.81387 0.77899 0.0
N1824 N 0.36651 0.79629 0.83071 0.0
N1825 N 0.35327 0.85356 0.75647 0.0
C1826 C 0.38556 0.85346 0.78956 0.0
C1827 C 0.39237 0.8227 0.83014 0.0
C1828 C 0.81067 0.92185 0.11273 0.0
C1829 C 0.83664 0.91222 0.16069 0.0
C1830 C 0.82122 0.93785 0.05383 0.0
C1831 C 0.85807 0.94338 0.04084 0.0
H1832 H 0.78211 0.91753 0.12106 0.0
H1833 H 0.80064 0.94578 0.01819 0.0
S1834 S 0.93708 0.91493 0.14192 0.0
N1835 N 0.90111 0.90332 0.1853 0.0
N1836 N 0.92084 0.93399 0.07423 0.0
C1837 C 0.88449 0.93144 0.08549 0.0
C1838 C 0.87379 0.91533 0.14543 0.0
C1839 C 0.92862 0.10302 0.91221 0.0
C1840 C 0.9156 0.11528 0.97191 0.0
C1841 C 0.92766 0.1247 0.85739 0.0
C1842 C 0.91277 0.16039 0.85745 0.0
H1843 H 0.94044 0.07616 0.90738 0.0
H1844 H 0.93876 0.11077 0.81637 0.0
S1845 S 0.85734 0.19737 0.99173 0.0
N1846 N 0.87529 0.16012 0.02293 0.0
N1847 N 0.87567 0.20233 0.91886 0.0
C1848 C 0.89653 0.17185 0.916 0.0
C1849 C 0.89661 0.14891 0.9726 0.0
C1850 C 0.152 0.09391 0.04952 0.0
C1851 C 0.11815 0.11041 0.04301 0.0
C1852 C 0.17958 0.11136 0.08379 0.0
C1853 C 0.17141 0.13832 0.13573 0.0
H1854 H 0.15837 0.06932 0.02245 0.0
H1855 H 0.20585 0.09893 0.07579 0.0
S1856 S 0.10618 0.20909 0.06123 0.0
N1857 N 0.09086 0.16977 0.03433 0.0
N1858 N 0.14306 0.19916 0.10403 0.0
C1859 C 0.14464 0.16214 0.09974 0.0
C1860 C 0.11627 0.1468 0.06009 0.0
C1861 C 0.07644 0.87987 0.87102 0.0
C1862 C 0.08952 0.84357 0.87139 0.0
C1863 C 0.0842 0.9042 0.91985 0.0
C1864 C 0.09892 0.89298 0.97931 0.0
H1865 H 0.06057 0.89255 0.83356 0.0
H1866 H 0.07665 0.93223 0.91097 0.0
S1867 S 0.1419 0.80212 0.00839 0.0
N1868 N 0.1231 0.79895 0.93482 0.0
N1869 N 0.1306 0.84273 0.03568 0.0
C1870 C 0.11132 0.85629 0.9839 0.0
C1871 C 0.10669 0.83198 0.92965 0.0
loop_
_geom_bond_atom_site_label_1
_geom_bond_atom_site_label_2
_geom_bond_distance
_geom_bond_site_symmetry_2
_ccdc_geom_bond_type
C0 C2 1.422 . S
C0 C4 1.415 . S
C0 N6 1.369 . S
C1 C2 1.421 . S
C1 C3 1.417 . S
C1 C13 1.422 . S
C2 C0 1.422 . S
C2 C1 1.421 . S
C2 N12 1.359 . S
C3 C1 1.417 . S
C3 C5 1.329 . S
C3 H22 0.930 . S
C4 C0 1.415 . S
C4 C5 1.437 . S
C4 C8 1.413 . S
C5 C3 1.329 . S
C5 C4 1.437 . S
C5 H27 0.929 . S
N6 C0 1.369 . S
N6 C7 1.338 . S
N6 Gd11 2.622 . S
C7 N6 1.338 . S
C7 C9 1.378 . S
C7 H19 0.929 . S
C8 C4 1.413 . S
C8 C9 1.348 . S
C8 H24 0.931 . S
C9 C7 1.378 . S
C9 C8 1.348 . S
C9 H25 0.930 . S
Gd10 N30 2.622 . S
Gd10 N37 2.570 . S
Gd10 O44 2.353 . S
Gd10 O45 2.468 1_554 S
Gd10 O46 2.427 1_554 S
Gd10 O48 2.388 . S
Gd10 O49 2.386 . S
Gd10 O53 2.307 . S
Gd10 C63 2.805 1_554 S
Gd11 N6 2.622 . S
Gd11 N12 2.570 . S
Gd11 O43 2.386 . S
Gd11 O47 2.307 . S
Gd11 O50 2.353 . S
Gd11 O51 2.468 . S
Gd11 O52 2.427 . S
Gd11 O54 2.388 . S
Gd11 C75 2.805 . S
N12 C2 1.359 . S
N12 Gd11 2.570 . S
N12 C14 1.343 . S
C13 C1 1.422 . S
C13 C15 1.321 . S
C13 H21 0.931 . S
C14 N12 1.343 . S
C14 C15 1.390 . S
C14 H16 0.931 . S
C15 C13 1.321 . S
C15 C14 1.390 . S
C15 H17 0.930 . S
H16 C14 0.931 . S
H17 C15 0.930 . S
H18 C41 0.931 . S
H19 C7 0.929 . S
H20 C42 0.930 . S
H21 C13 0.931 . S
H22 C3 0.930 . S
H23 C32 0.929 . S
H24 C8 0.931 . S
H25 C9 0.930 . S
H26 C64 0.930 . S
H27 C5 0.929 . S
H28 C33 0.931 1_565 S
H29 C34 0.930 . S
N30 Gd10 2.622 . S
N30 C31 1.369 . S
N30 C32 1.338 . S
C31 N30 1.369 . S
C31 C35 1.415 . S
C31 C38 1.422 . S
C32 H23 0.929 . S
C32 N30 1.338 . S
C32 C34 1.378 1_545 S
C33 H28 0.931 1_545 S
C33 C34 1.348 1_545 S
C33 C35 1.413 . S
C34 H29 0.930 . S
C34 C32 1.378 1_565 S
C34 C33 1.348 1_565 S
C35 C31 1.415 . S
C35 C33 1.413 . S
C35 C65 1.437 . S
H36 C65 0.929 . S
N37 Gd10 2.570 . S
N37 C38 1.359 . S
N37 C41 1.343 . S
C38 C31 1.422 . S
C38 N37 1.359 . S
C38 C40 1.421 . S
C39 C40 1.422 . S
C39 C42 1.321 . S
C39 H66 0.931 . S
C40 C38 1.421 . S
C40 C39 1.422 . S
C40 C64 1.417 . S
C41 H18 0.931 . S
C41 N37 1.343 . S
C41 C42 1.390 . S
C42 H20 0.930 . S
C42 C39 1.321 . S
C42 C41 1.390 . S
O43 Gd11 2.386 . S
O43 C55 1.265 . S
O44 Gd10 2.353 . S
O44 C55 1.242 . S
O45 Gd10 2.468 1_556 S
O45 C63 1.263 . S
O46 Gd10 2.427 1_556 S
O46 C63 1.252 . S
O47 Gd11 2.307 . S
O47 C56 1.261 . S
O48 Gd10 2.388 . S
O48 C56 1.252 . S
O49 Gd10 2.386 . S
O49 C67 1.265 . S
O50 Gd11 2.353 . S
O50 C67 1.242 . S
O51 Gd11 2.468 . S
O51 C75 1.263 . S
O52 Gd11 2.427 . S
O52 C75 1.252 . S
O53 Gd10 2.307 . S
O53 C68 1.261 . S
O54 Gd11 2.388 . S
O54 C68 1.252 . S
C55 O43 1.265 . S
C55 O44 1.242 . S
C56 O47 1.261 . S
C56 O48 1.252 . S
C57 C60 1.394 . S
C57 C62 1.370 . S
C57 C63 1.500 . S
C58 C61 1.383 . S
C58 C62 1.395 . S
C59 C60 1.396 . S
C59 C61 1.365 . S
C59 H76 0.929 . S
C60 C57 1.394 . S
C60 C59 1.396 . S
C60 H77 0.930 . S
C61 C58 1.383 . S
C61 C59 1.365 . S
C61 H78 0.931 . S
C62 C57 1.370 . S
C62 C58 1.395 . S
C62 H79 0.930 . S
C63 Gd10 2.805 1_556 S
C63 O45 1.263 . S
C63 O46 1.252 . S
C63 C57 1.500 . S
C64 H26 0.930 . S
C64 C40 1.417 . S
C64 C65 1.329 . S
C65 C35 1.437 . S
C65 H36 0.929 . S
C65 C64 1.329 . S
H66 C39 0.931 . S
C67 O49 1.265 . S
C67 O50 1.242 . S
C68 O53 1.261 . S
C68 O54 1.252 . S
C69 C72 1.394 . S
C69 C74 1.370 . S
C69 C75 1.500 . S
C70 C73 1.383 . S
C70 C74 1.395 . S
C71 C72 1.396 . S
C71 C73 1.365 . S
C71 H80 0.929 . S
C72 C69 1.394 . S
C72 C71 1.396 . S
C72 H81 0.930 . S
C73 C70 1.383 . S
C73 C71 1.365 . S
C73 H82 0.931 . S
C74 C69 1.370 . S
C74 C70 1.395 . S
C74 H83 0.930 . S
C75 Gd11 2.805 . S
C75 O51 1.263 . S
C75 O52 1.252 . S
C75 C69 1.500 . S
H76 C59 0.929 . S
H77 C60 0.930 . S
H78 C61 0.931 . S
H79 C62 0.930 . S
H80 C71 0.929 . S
H81 C72 0.930 . S
H82 C73 0.931 . S
H83 C74 0.930 . S
C84 C86 1.422 . S
C84 C88 1.415 . S
C84 N90 1.369 . S
C85 C86 1.421 . S
C85 C87 1.417 . S
C85 C97 1.422 . S
C86 C84 1.422 . S
C86 C85 1.421 . S
C86 N96 1.359 . S
C87 C85 1.417 . S
C87 C89 1.329 . S
C87 H106 0.930 . S
C88 C84 1.415 . S
C88 C89 1.437 . S
C88 C92 1.413 . S
C89 C87 1.329 . S
C89 C88 1.437 . S
C89 H111 0.929 . S
N90 C84 1.369 . S
N90 C91 1.338 . S
N90 Gd95 2.622 . S
C91 N90 1.338 . S
C91 C93 1.378 1_455 S
C91 H103 0.929 . S
C92 C88 1.413 . S
C92 C93 1.348 1_455 S
C92 H108 0.931 1_455 S
C93 C91 1.378 1_655 S
C93 C92 1.348 1_655 S
C93 H109 0.930 . S
Gd94 N114 2.622 . S
Gd94 N121 2.570 . S
Gd94 O128 2.353 . S
Gd94 O129 2.468 . S
Gd94 O130 2.427 . S
Gd94 O132 2.388 . S
Gd94 O133 2.386 . S
Gd94 O137 2.307 . S
Gd94 C147 2.805 . S
Gd95 N90 2.622 . S
Gd95 N96 2.570 . S
Gd95 O127 2.386 . S
Gd95 O131 2.307 . S
Gd95 O134 2.353 . S
Gd95 O135 2.468 1_556 S
Gd95 O136 2.427 1_556 S
Gd95 O138 2.388 . S
Gd95 C159 2.805 1_556 S
N96 C86 1.359 . S
N96 Gd95 2.570 . S
N96 C98 1.343 . S
C97 C85 1.422 . S
C97 C99 1.321 . S
C97 H105 0.931 . S
C98 N96 1.343 . S
C98 C99 1.390 . S
C98 H100 0.931 . S
C99 C97 1.321 . S
C99 C98 1.390 . S
C99 H101 0.930 . S
H100 C98 0.931 . S
H101 C99 0.930 . S
H102 C125 0.931 . S
H103 C91 0.929 . S
H104 C126 0.930 . S
H105 C97 0.931 . S
H106 C87 0.930 . S
H107 C116 0.929 . S
H108 C92 0.931 1_655 S
H109 C93 0.930 . S
H110 C148 0.930 . S
H111 C89 0.929 . S
H112 C117 0.931 . S
H113 C118 0.930 . S
N114 Gd94 2.622 . S
N114 C115 1.369 . S
N114 C116 1.338 . S
C115 N114 1.369 . S
C115 C119 1.415 . S
C115 C122 1.422 . S
C116 H107 0.929 . S
C116 N114 1.338 . S
C116 C118 1.378 . S
C117 H112 0.931 . S
C117 C118 1.348 . S
C117 C119 1.413 . S
C118 H113 0.930 . S
C118 C116 1.378 . S
C118 C117 1.348 . S
C119 C115 1.415 . S
C119 C117 1.413 . S
C119 C149 1.437 . S
H120 C149 0.929 . S
N121 Gd94 2.570 . S
N121 C122 1.359 . S
N121 C125 1.343 . S
C122 C115 1.422 . S
C122 N121 1.359 . S
C122 C124 1.421 . S
C123 C124 1.422 . S
C123 C126 1.321 . S
C123 H150 0.931 . S
C124 C122 1.421 . S
C124 C123 1.422 . S
C124 C148 1.417 . S
C125 H102 0.931 . S
C125 N121 1.343 . S
C125 C126 1.390 . S
C126 H104 0.930 . S
C126 C123 1.321 . S
C126 C125 1.390 . S
O127 Gd95 2.386 . S
O127 C139 1.265 . S
O128 Gd94 2.353 . S
O128 C139 1.242 . S
O129 Gd94 2.468 . S
O129 C147 1.263 . S
O130 Gd94 2.427 . S
O130 C147 1.252 . S
O131 Gd95 2.307 . S
O131 C140 1.261 . S
O132 Gd94 2.388 . S
O132 C140 1.252 . S
O133 Gd94 2.386 . S
O133 C151 1.265 . S
O134 Gd95 2.353 . S
O134 C151 1.242 . S
O135 Gd95 2.468 1_554 S
O135 C159 1.263 . S
O136 Gd95 2.427 1_554 S
O136 C159 1.252 . S
O137 Gd94 2.307 . S
O137 C152 1.261 . S
O138 Gd95 2.388 . S
O138 C152 1.252 . S
C139 O127 1.265 . S
C139 O128 1.242 . S
C140 O131 1.261 . S
C140 O132 1.252 . S
C141 C144 1.394 . S
C141 C146 1.370 . S
C141 C147 1.500 . S
C142 C145 1.383 . S
C142 C146 1.395 . S
C143 C144 1.396 . S
C143 C145 1.365 . S
C143 H160 0.929 . S
C144 C141 1.394 . S
C144 C143 1.396 . S
C144 H161 0.930 . S
C145 C142 1.383 . S
C145 C143 1.365 . S
C145 H162 0.931 . S
C146 C141 1.370 . S
C146 C142 1.395 . S
C146 H163 0.930 . S
C147 Gd94 2.805 . S
C147 O129 1.263 . S
C147 O130 1.252 . S
C147 C141 1.500 . S
C148 H110 0.930 . S
C148 C124 1.417 . S
C148 C149 1.329 . S
C149 C119 1.437 . S
C149 H120 0.929 . S
C149 C148 1.329 . S
H150 C123 0.931 . S
C151 O133 1.265 . S
C151 O134 1.242 . S
C152 O137 1.261 . S
C152 O138 1.252 . S
C153 C156 1.394 . S
C153 C158 1.370 . S
C153 C159 1.500 . S
C154 C157 1.383 . S
C154 C158 1.395 . S
C155 C156 1.396 . S
C155 C157 1.365 . S
C155 H164 0.929 . S
C156 C153 1.394 . S
C156 C155 1.396 . S
C156 H165 0.930 . S
C157 C154 1.383 . S
C157 C155 1.365 . S
C157 H166 0.931 . S
C158 C153 1.370 . S
C158 C154 1.395 . S
C158 H167 0.930 . S
C159 Gd95 2.805 1_554 S
C159 O135 1.263 . S
C159 O136 1.252 . S
C159 C153 1.500 . S
H160 C143 0.929 . S
H161 C144 0.930 . S
H162 C145 0.931 . S
H163 C146 0.930 . S
H164 C155 0.929 . S
H165 C156 0.930 . S
H166 C157 0.931 . S
H167 C158 0.930 . S
C168 C170 1.422 . S
C168 C172 1.415 . S
C168 N174 1.369 . S
C169 C170 1.421 . S
C169 C171 1.417 . S
C169 C181 1.422 . S
C170 C168 1.422 . S
C170 C169 1.421 . S
C170 N180 1.359 . S
C171 C169 1.417 . S
C171 C173 1.329 . S
C171 H190 0.930 . S
C172 C168 1.415 . S
C172 C173 1.437 . S
C172 C176 1.413 . S
C173 C171 1.329 . S
C173 C172 1.437 . S
C173 H195 0.929 . S
N174 C168 1.369 . S
N174 C175 1.338 . S
N174 Gd179 2.622 . S
C175 N174 1.338 . S
C175 C177 1.378 . S
C175 H187 0.929 . S
C176 C172 1.413 . S
C176 C177 1.348 . S
C176 H192 0.931 . S
C177 C175 1.378 . S
C177 C176 1.348 . S
C177 H193 0.930 . S
Gd178 N198 2.622 . S
Gd178 N205 2.570 . S
Gd178 O212 2.353 . S
Gd178 O213 2.468 1_554 S
Gd178 O214 2.427 1_554 S
Gd178 O216 2.388 . S
Gd178 O217 2.386 . S
Gd178 O221 2.307 . S
Gd178 C231 2.805 1_554 S
Gd179 N174 2.622 . S
Gd179 N180 2.570 . S
Gd179 O211 2.386 . S
Gd179 O215 2.307 . S
Gd179 O218 2.353 . S
Gd179 O219 2.468 . S
Gd179 O220 2.427 . S
Gd179 O222 2.388 . S
Gd179 C243 2.805 . S
N180 C170 1.359 . S
N180 Gd179 2.570 . S
N180 C182 1.343 . S
C181 C169 1.422 . S
C181 C183 1.321 . S
C181 H189 0.931 . S
C182 N180 1.343 . S
C182 C183 1.390 . S
C182 H184 0.931 . S
C183 C181 1.321 . S
C183 C182 1.390 . S
C183 H185 0.930 . S
H184 C182 0.931 . S
H185 C183 0.930 . S
H186 C209 0.931 . S
H187 C175 0.929 . S
H188 C210 0.930 . S
H189 C181 0.931 . S
H190 C171 0.930 . S
H191 C200 0.929 . S
H192 C176 0.931 . S
H193 C177 0.930 . S
H194 C232 0.930 . S
H195 C173 0.929 . S
H196 C201 0.931 1_545 S
H197 C202 0.930 . S
N198 Gd178 2.622 . S
N198 C199 1.369 . S
N198 C200 1.338 . S
C199 N198 1.369 . S
C199 C203 1.415 . S
C199 C206 1.422 . S
C200 H191 0.929 . S
C200 N198 1.338 . S
C200 C202 1.378 1_565 S
C201 H196 0.931 1_565 S
C201 C202 1.348 1_565 S
C201 C203 1.413 . S
C202 H197 0.930 . S
C202 C200 1.378 1_545 S
C202 C201 1.348 1_545 S
C203 C199 1.415 . S
C203 C201 1.413 . S
C203 C233 1.437 . S
H204 C233 0.929 . S
N205 Gd178 2.570 . S
N205 C206 1.359 . S
N205 C209 1.343 . S
C206 C199 1.422 . S
C206 N205 1.359 . S
C206 C208 1.421 . S
C207 C208 1.422 . S
C207 C210 1.321 . S
C207 H234 0.931 . S
C208 C206 1.421 . S
C208 C207 1.422 . S
C208 C232 1.417 . S
C209 H186 0.931 . S
C209 N205 1.343 . S
C209 C210 1.390 . S
C210 H188 0.930 . S
C210 C207 1.321 . S
C210 C209 1.390 . S
O211 Gd179 2.386 . S
O211 C223 1.265 . S
O212 Gd178 2.353 . S
O212 C223 1.242 . S
O213 Gd178 2.468 1_556 S
O213 C231 1.263 . S
O214 Gd178 2.427 1_556 S
O214 C231 1.252 . S
O215 Gd179 2.307 . S
O215 C224 1.261 . S
O216 Gd178 2.388 . S
O216 C224 1.252 . S
O217 Gd178 2.386 . S
O217 C235 1.265 . S
O218 Gd179 2.353 . S
O218 C235 1.242 . S
O219 Gd179 2.468 . S
O219 C243 1.263 . S
O220 Gd179 2.427 . S
O220 C243 1.252 . S
O221 Gd178 2.307 . S
O221 C236 1.261 . S
O222 Gd179 2.388 . S
O222 C236 1.252 . S
C223 O211 1.265 . S
C223 O212 1.242 . S
C224 O215 1.261 . S
C224 O216 1.252 . S
C225 C228 1.394 . S
C225 C230 1.370 . S
C225 C231 1.500 . S
C226 C229 1.383 . S
C226 C230 1.395 . S
C227 C228 1.396 . S
C227 C229 1.365 . S
C227 H244 0.929 . S
C228 C225 1.394 . S
C228 C227 1.396 . S
C228 H245 0.930 . S
C229 C226 1.383 . S
C229 C227 1.365 . S
C229 H246 0.931 . S
C230 C225 1.370 . S
C230 C226 1.395 . S
C230 H247 0.930 . S
C231 Gd178 2.805 1_556 S
C231 O213 1.263 . S
C231 O214 1.252 . S
C231 C225 1.500 . S
C232 H194 0.930 . S
C232 C208 1.417 . S
C232 C233 1.329 . S
C233 C203 1.437 . S
C233 H204 0.929 . S
C233 C232 1.329 . S
H234 C207 0.931 . S
C235 O217 1.265 . S
C235 O218 1.242 . S
C236 O221 1.261 . S
C236 O222 1.252 . S
C237 C240 1.394 . S
C237 C242 1.370 . S
C237 C243 1.500 . S
C238 C241 1.383 . S
C238 C242 1.395 . S
C239 C240 1.396 . S
C239 C241 1.365 . S
C239 H248 0.929 . S
C240 C237 1.394 . S
C240 C239 1.396 . S
C240 H249 0.930 . S
C241 C238 1.383 . S
C241 C239 1.365 . S
C241 H250 0.931 . S
C242 C237 1.370 . S
C242 C238 1.395 . S
C242 H251 0.930 . S
C243 Gd179 2.805 . S
C243 O219 1.263 . S
C243 O220 1.252 . S
C243 C237 1.500 . S
H244 C227 0.929 . S
H245 C228 0.930 . S
H246 C229 0.931 . S
H247 C230 0.930 . S
H248 C239 0.929 . S
H249 C240 0.930 . S
H250 C241 0.931 . S
H251 C242 0.930 . S
C252 C254 1.422 . S
C252 C256 1.415 . S
C252 N258 1.369 . S
C253 C254 1.421 . S
C253 C255 1.417 . S
C253 C265 1.422 . S
C254 C252 1.422 . S
C254 C253 1.421 . S
C254 N264 1.359 . S
C255 C253 1.417 . S
C255 C257 1.329 . S
C255 H274 0.930 . S
C256 C252 1.415 . S
C256 C257 1.437 . S
C256 C260 1.413 . S
C257 C255 1.329 . S
C257 C256 1.437 . S
C257 H279 0.929 . S
N258 C252 1.369 . S
N258 C259 1.338 . S
N258 Gd263 2.622 . S
C259 N258 1.338 . S
C259 C261 1.378 1_655 S
C259 H271 0.929 . S
C260 C256 1.413 . S
C260 C261 1.348 1_655 S
C260 H276 0.931 1_655 S
C261 C259 1.378 1_455 S
C261 C260 1.348 1_455 S
C261 H277 0.930 . S
Gd262 N282 2.622 . S
Gd262 N289 2.570 . S
Gd262 O296 2.353 . S
Gd262 O297 2.468 . S
Gd262 O298 2.427 . S
Gd262 O300 2.388 . S
Gd262 O301 2.386 . S
Gd262 O305 2.307 . S
Gd262 C315 2.805 . S
Gd263 N258 2.622 . S
Gd263 N264 2.570 . S
Gd263 O295 2.386 . S
Gd263 O299 2.307 . S
Gd263 O302 2.353 . S
Gd263 O303 2.468 1_556 S
Gd263 O304 2.427 1_556 S
Gd263 O306 2.388 . S
Gd263 C327 2.805 1_556 S
N264 C254 1.359 . S
N264 Gd263 2.570 . S
N264 C266 1.343 . S
C265 C253 1.422 . S
C265 C267 1.321 . S
C265 H273 0.931 . S
C266 N264 1.343 . S
C266 C267 1.390 . S
C266 H268 0.931 . S
C267 C265 1.321 . S
C267 C266 1.390 . S
C267 H269 0.930 . S
H268 C266 0.931 . S
H269 C267 0.930 . S
H270 C293 0.931 . S
H271 C259 0.929 . S
H272 C294 0.930 . S
H273 C265 0.931 . S
H274 C255 0.930 . S
H275 C284 0.929 . S
H276 C260 0.931 1_455 S
H277 C261 0.930 . S
H278 C316 0.930 . S
H279 C257 0.929 . S
H280 C285 0.931 . S
H281 C286 0.930 . S
N282 Gd262 2.622 . S
N282 C283 1.369 . S
N282 C284 1.338 . S
C283 N282 1.369 . S
C283 C287 1.415 . S
C283 C290 1.422 . S
C284 H275 0.929 . S
C284 N282 1.338 . S
C284 C286 1.378 . S
C285 H280 0.931 . S
C285 C286 1.348 . S
C285 C287 1.413 . S
C286 H281 0.930 . S
C286 C284 1.378 . S
C286 C285 1.348 . S
C287 C283 1.415 . S
C287 C285 1.413 . S
C287 C317 1.437 . S
H288 C317 0.929 . S
N289 Gd262 2.570 . S
N289 C290 1.359 . S
N289 C293 1.343 . S
C290 C283 1.422 . S
C290 N289 1.359 . S
C290 C292 1.421 . S
C291 C292 1.422 . S
C291 C294 1.321 . S
C291 H318 0.931 . S
C292 C290 1.421 . S
C292 C291 1.422 . S
C292 C316 1.417 . S
C293 H270 0.931 . S
C293 N289 1.343 . S
C293 C294 1.390 . S
C294 H272 0.930 . S
C294 C291 1.321 . S
C294 C293 1.390 . S
O295 Gd263 2.386 . S
O295 C307 1.265 . S
O296 Gd262 2.353 . S
O296 C307 1.242 . S
O297 Gd262 2.468 . S
O297 C315 1.263 . S
O298 Gd262 2.427 . S
O298 C315 1.252 . S
O299 Gd263 2.307 . S
O299 C308 1.261 . S
O300 Gd262 2.388 . S
O300 C308 1.252 . S
O301 Gd262 2.386 . S
O301 C319 1.265 . S
O302 Gd263 2.353 . S
O302 C319 1.242 . S
O303 Gd263 2.468 1_554 S
O303 C327 1.263 . S
O304 Gd263 2.427 1_554 S
O304 C327 1.252 . S
O305 Gd262 2.307 . S
O305 C320 1.261 . S
O306 Gd263 2.388 . S
O306 C320 1.252 . S
C307 O295 1.265 . S
C307 O296 1.242 . S
C308 O299 1.261 . S
C308 O300 1.252 . S
C309 C312 1.394 . S
C309 C314 1.370 . S
C309 C315 1.500 . S
C310 C313 1.383 . S
C310 C314 1.395 . S
C311 C312 1.396 . S
C311 C313 1.365 . S
C311 H328 0.929 . S
C312 C309 1.394 . S
C312 C311 1.396 . S
C312 H329 0.930 . S
C313 C310 1.383 . S
C313 C311 1.365 . S
C313 H330 0.931 . S
C314 C309 1.370 . S
C314 C310 1.395 . S
C314 H331 0.930 . S
C315 Gd262 2.805 . S
C315 O297 1.263 . S
C315 O298 1.252 . S
C315 C309 1.500 . S
C316 H278 0.930 . S
C316 C292 1.417 . S
C316 C317 1.329 . S
C317 C287 1.437 . S
C317 H288 0.929 . S
C317 C316 1.329 . S
H318 C291 0.931 . S
C319 O301 1.265 . S
C319 O302 1.242 . S
C320 O305 1.261 . S
C320 O306 1.252 . S
C321 C324 1.394 . S
C321 C326 1.370 . S
C321 C327 1.500 . S
C322 C325 1.383 . S
C322 C326 1.395 . S
C323 C324 1.396 . S
C323 C325 1.365 . S
C323 H332 0.929 . S
C324 C321 1.394 . S
C324 C323 1.396 . S
C324 H333 0.930 . S
C325 C322 1.383 . S
C325 C323 1.365 . S
C325 H334 0.931 . S
C326 C321 1.370 . S
C326 C322 1.395 . S
C326 H335 0.930 . S
C327 Gd263 2.805 1_554 S
C327 O303 1.263 . S
C327 O304 1.252 . S
C327 C321 1.500 . S
H328 C311 0.929 . S
H329 C312 0.930 . S
H330 C313 0.931 . S
H331 C314 0.930 . S
H332 C323 0.929 . S
H333 C324 0.930 . S
H334 C325 0.931 . S
H335 C326 0.930 . S
C336 C338 1.422 . S
C336 C340 1.415 . S
C336 N342 1.369 . S
C337 C338 1.421 . S
C337 C339 1.417 . S
C337 C349 1.422 . S
C338 C336 1.422 . S
C338 C337 1.421 . S
C338 N348 1.359 . S
C339 C337 1.417 . S
C339 C341 1.329 . S
C339 H358 0.930 . S
C340 C336 1.415 . S
C340 C341 1.437 . S
C340 C344 1.413 . S
C341 C339 1.329 . S
C341 C340 1.437 . S
C341 H363 0.929 . S
N342 C336 1.369 . S
N342 C343 1.338 . S
N342 Gd347 2.622 . S
C343 N342 1.338 . S
C343 C345 1.378 . S
C343 H355 0.929 . S
C344 C340 1.413 . S
C344 C345 1.348 . S
C344 H360 0.931 . S
C345 C343 1.378 . S
C345 C344 1.348 . S
C345 H361 0.930 . S
Gd346 N366 2.622 . S
Gd346 N373 2.570 . S
Gd346 O380 2.353 . S
Gd346 O381 2.468 . S
Gd346 O382 2.427 . S
Gd346 O384 2.388 . S
Gd346 O385 2.386 . S
Gd346 O389 2.307 . S
Gd346 C399 2.805 . S
Gd347 N342 2.622 . S
Gd347 N348 2.570 . S
Gd347 O379 2.386 . S
Gd347 O383 2.307 . S
Gd347 O386 2.353 . S
Gd347 O387 2.468 1_554 S
Gd347 O388 2.427 1_554 S
Gd347 O390 2.388 . S
Gd347 C411 2.805 1_554 S
N348 C338 1.359 . S
N348 Gd347 2.570 . S
N348 C350 1.343 . S
C349 C337 1.422 . S
C349 C351 1.321 . S
C349 H357 0.931 . S
C350 N348 1.343 . S
C350 C351 1.390 . S
C350 H352 0.931 . S
C351 C349 1.321 . S
C351 C350 1.390 . S
C351 H353 0.930 . S
H352 C350 0.931 . S
H353 C351 0.930 . S
H354 C377 0.931 . S
H355 C343 0.929 . S
H356 C378 0.930 . S
H357 C349 0.931 . S
H358 C339 0.930 . S
H359 C368 0.929 . S
H360 C344 0.931 . S
H361 C345 0.930 . S
H362 C400 0.930 . S
H363 C341 0.929 . S
H364 C369 0.931 . S
H365 C370 0.930 . S
N366 Gd346 2.622 . S
N366 C367 1.369 . S
N366 C368 1.338 . S
C367 N366 1.369 . S
C367 C371 1.415 . S
C367 C374 1.422 . S
C368 H359 0.929 . S
C368 N366 1.338 . S
C368 C370 1.378 . S
C369 H364 0.931 . S
C369 C370 1.348 . S
C369 C371 1.413 . S
C370 H365 0.930 . S
C370 C368 1.378 . S
C370 C369 1.348 . S
C371 C367 1.415 . S
C371 C369 1.413 . S
C371 C401 1.437 . S
H372 C401 0.929 . S
N373 Gd346 2.570 . S
N373 C374 1.359 . S
N373 C377 1.343 . S
C374 C367 1.422 . S
C374 N373 1.359 . S
C374 C376 1.421 . S
C375 C376 1.422 . S
C375 C378 1.321 . S
C375 H402 0.931 . S
C376 C374 1.421 . S
C376 C375 1.422 . S
C376 C400 1.417 . S
C377 H354 0.931 . S
C377 N373 1.343 . S
C377 C378 1.390 . S
C378 H356 0.930 . S
C378 C375 1.321 . S
C378 C377 1.390 . S
O379 Gd347 2.386 . S
O379 C391 1.265 . S
O380 Gd346 2.353 . S
O380 C391 1.242 . S
O381 Gd346 2.468 . S
O381 C399 1.263 . S
O382 Gd346 2.427 . S
O382 C399 1.252 . S
O383 Gd347 2.307 . S
O383 C392 1.261 . S
O384 Gd346 2.388 . S
O384 C392 1.252 . S
O385 Gd346 2.386 . S
O385 C403 1.265 . S
O386 Gd347 2.353 . S
O386 C403 1.242 . S
O387 Gd347 2.468 1_556 S
O387 C411 1.263 . S
O388 Gd347 2.427 1_556 S
O388 C411 1.252 . S
O389 Gd346 2.307 . S
O389 C404 1.261 . S
O390 Gd347 2.388 . S
O390 C404 1.252 . S
C391 O379 1.265 . S
C391 O380 1.242 . S
C392 O383 1.261 . S
C392 O384 1.252 . S
C393 C396 1.394 . S
C393 C398 1.370 . S
C393 C399 1.500 . S
C394 C397 1.383 . S
C394 C398 1.395 . S
C395 C396 1.396 . S
C395 C397 1.365 . S
C395 H412 0.929 . S
C396 C393 1.394 . S
C396 C395 1.396 . S
C396 H413 0.930 . S
C397 C394 1.383 . S
C397 C395 1.365 . S
C397 H414 0.931 . S
C398 C393 1.370 . S
C398 C394 1.395 . S
C398 H415 0.930 . S
C399 Gd346 2.805 . S
C399 O381 1.263 . S
C399 O382 1.252 . S
C399 C393 1.500 . S
C400 H362 0.930 . S
C400 C376 1.417 . S
C400 C401 1.329 . S
C401 C371 1.437 . S
C401 H372 0.929 . S
C401 C400 1.329 . S
H402 C375 0.931 . S
C403 O385 1.265 . S
C403 O386 1.242 . S
C404 O389 1.261 . S
C404 O390 1.252 . S
C405 C408 1.394 . S
C405 C410 1.370 . S
C405 C411 1.500 . S
C406 C409 1.383 . S
C406 C410 1.395 . S
C407 C408 1.396 . S
C407 C409 1.365 . S
C407 H416 0.929 . S
C408 C405 1.394 . S
C408 C407 1.396 . S
C408 H417 0.930 . S
C409 C406 1.383 . S
C409 C407 1.365 . S
C409 H418 0.931 . S
C410 C405 1.370 . S
C410 C406 1.395 . S
C410 H419 0.930 . S
C411 Gd347 2.805 1_556 S
C411 O387 1.263 . S
C411 O388 1.252 . S
C411 C405 1.500 . S
H412 C395 0.929 . S
H413 C396 0.930 . S
H414 C397 0.931 . S
H415 C398 0.930 . S
H416 C407 0.929 . S
H417 C408 0.930 . S
H418 C409 0.931 . S
H419 C410 0.930 . S
C420 C422 1.422 . S
C420 C424 1.415 . S
C420 N426 1.369 . S
C421 C422 1.421 . S
C421 C423 1.417 . S
C421 C433 1.422 . S
C422 C420 1.422 . S
C422 C421 1.421 . S
C422 N432 1.359 . S
C423 C421 1.417 . S
C423 C425 1.329 . S
C423 H442 0.930 . S
C424 C420 1.415 . S
C424 C425 1.437 . S
C424 C428 1.413 . S
C425 C423 1.329 . S
C425 C424 1.437 . S
C425 H447 0.929 . S
N426 C420 1.369 . S
N426 C427 1.338 . S
N426 Gd431 2.622 . S
C427 N426 1.338 . S
C427 C429 1.378 . S
C427 H439 0.929 . S
C428 C424 1.413 . S
C428 C429 1.348 . S
C428 H444 0.931 . S
C429 C427 1.378 . S
C429 C428 1.348 . S
C429 H445 0.930 . S
Gd430 N450 2.622 . S
Gd430 N457 2.570 . S
Gd430 O464 2.353 . S
Gd430 O465 2.468 1_556 S
Gd430 O466 2.427 1_556 S
Gd430 O468 2.388 . S
Gd430 O469 2.386 . S
Gd430 O473 2.307 . S
Gd430 C483 2.805 1_556 S
Gd431 N426 2.622 . S
Gd431 N432 2.570 . S
Gd431 O463 2.386 . S
Gd431 O467 2.307 . S
Gd431 O470 2.353 . S
Gd431 O471 2.468 . S
Gd431 O472 2.427 . S
Gd431 O474 2.388 . S
Gd431 C495 2.805 . S
N432 C422 1.359 . S
N432 Gd431 2.570 . S
N432 C434 1.343 . S
C433 C421 1.422 . S
C433 C435 1.321 . S
C433 H441 0.931 . S
C434 N432 1.343 . S
C434 C435 1.390 . S
C434 H436 0.931 . S
C435 C433 1.321 . S
C435 C434 1.390 . S
C435 H437 0.930 . S
H436 C434 0.931 . S
H437 C435 0.930 . S
H438 C461 0.931 . S
H439 C427 0.929 . S
H440 C462 0.930 . S
H441 C433 0.931 . S
H442 C423 0.930 . S
H443 C452 0.929 . S
H444 C428 0.931 . S
H445 C429 0.930 . S
H446 C484 0.930 . S
H447 C425 0.929 . S
H448 C453 0.931 . S
H449 C454 0.930 . S
N450 Gd430 2.622 . S
N450 C451 1.369 . S
N450 C452 1.338 . S
C451 N450 1.369 . S
C451 C455 1.415 . S
C451 C458 1.422 . S
C452 H443 0.929 . S
C452 N450 1.338 . S
C452 C454 1.378 . S
C453 H448 0.931 . S
C453 C454 1.348 . S
C453 C455 1.413 . S
C454 H449 0.930 . S
C454 C452 1.378 . S
C454 C453 1.348 . S
C455 C451 1.415 . S
C455 C453 1.413 . S
C455 C485 1.437 . S
H456 C485 0.929 . S
N457 Gd430 2.570 . S
N457 C458 1.359 . S
N457 C461 1.343 . S
C458 C451 1.422 . S
C458 N457 1.359 . S
C458 C460 1.421 . S
C459 C460 1.422 . S
C459 C462 1.321 . S
C459 H486 0.931 . S
C460 C458 1.421 . S
C460 C459 1.422 . S
C460 C484 1.417 . S
C461 H438 0.931 . S
C461 N457 1.343 . S
C461 C462 1.390 . S
C462 H440 0.930 . S
C462 C459 1.321 . S
C462 C461 1.390 . S
O463 Gd431 2.386 . S
O463 C475 1.265 . S
O464 Gd430 2.353 . S
O464 C475 1.242 . S
O465 Gd430 2.468 1_554 S
O465 C483 1.263 . S
O466 Gd430 2.427 1_554 S
O466 C483 1.252 . S
O467 Gd431 2.307 . S
O467 C476 1.261 . S
O468 Gd430 2.388 . S
O468 C476 1.252 . S
O469 Gd430 2.386 . S
O469 C487 1.265 . S
O470 Gd431 2.353 . S
O470 C487 1.242 . S
O471 Gd431 2.468 . S
O471 C495 1.263 . S
O472 Gd431 2.427 . S
O472 C495 1.252 . S
O473 Gd430 2.307 . S
O473 C488 1.261 . S
O474 Gd431 2.388 . S
O474 C488 1.252 . S
C475 O463 1.265 . S
C475 O464 1.242 . S
C476 O467 1.261 . S
C476 O468 1.252 . S
C477 C480 1.394 . S
C477 C482 1.370 . S
C477 C483 1.500 . S
C478 C481 1.383 . S
C478 C482 1.395 . S
C479 C480 1.396 . S
C479 C481 1.365 . S
C479 H496 0.929 . S
C480 C477 1.394 . S
C480 C479 1.396 . S
C480 H497 0.930 . S
C481 C478 1.383 . S
C481 C479 1.365 . S
C481 H498 0.931 . S
C482 C477 1.370 . S
C482 C478 1.395 . S
C482 H499 0.930 . S
C483 Gd430 2.805 1_554 S
C483 O465 1.263 . S
C483 O466 1.252 . S
C483 C477 1.500 . S
C484 H446 0.930 . S
C484 C460 1.417 . S
C484 C485 1.329 . S
C485 C455 1.437 . S
C485 H456 0.929 . S
C485 C484 1.329 . S
H486 C459 0.931 . S
C487 O469 1.265 . S
C487 O470 1.242 . S
C488 O473 1.261 . S
C488 O474 1.252 . S
C489 C492 1.394 . S
C489 C494 1.370 . S
C489 C495 1.500 . S
C490 C493 1.383 . S
C490 C494 1.395 . S
C491 C492 1.396 . S
C491 C493 1.365 . S
C491 H500 0.929 . S
C492 C489 1.394 . S
C492 C491 1.396 . S
C492 H501 0.930 . S
C493 C490 1.383 . S
C493 C491 1.365 . S
C493 H502 0.931 . S
C494 C489 1.370 . S
C494 C490 1.395 . S
C494 H503 0.930 . S
C495 Gd431 2.805 . S
C495 O471 1.263 . S
C495 O472 1.252 . S
C495 C489 1.500 . S
H496 C479 0.929 . S
H497 C480 0.930 . S
H498 C481 0.931 . S
H499 C482 0.930 . S
H500 C491 0.929 . S
H501 C492 0.930 . S
H502 C493 0.931 . S
H503 C494 0.930 . S
C504 C506 1.422 . S
C504 C508 1.415 . S
C504 N510 1.369 . S
C505 C506 1.421 . S
C505 C507 1.417 . S
C505 C517 1.422 . S
C506 C504 1.422 . S
C506 C505 1.421 . S
C506 N516 1.359 . S
C507 C505 1.417 . S
C507 C509 1.329 . S
C507 H526 0.930 . S
C508 C504 1.415 . S
C508 C509 1.437 . S
C508 C512 1.413 . S
C509 C507 1.329 . S
C509 C508 1.437 . S
C509 H531 0.929 . S
N510 C504 1.369 . S
N510 C511 1.338 . S
N510 Gd515 2.622 . S
C511 N510 1.338 . S
C511 C513 1.378 . S
C511 H523 0.929 . S
C512 C508 1.413 . S
C512 C513 1.348 . S
C512 H528 0.931 . S
C513 C511 1.378 . S
C513 C512 1.348 . S
C513 H529 0.930 . S
Gd514 N534 2.622 . S
Gd514 N541 2.570 . S
Gd514 O548 2.353 . S
Gd514 O549 2.468 . S
Gd514 O550 2.427 . S
Gd514 O552 2.388 . S
Gd514 O553 2.386 . S
Gd514 O557 2.307 . S
Gd514 C567 2.805 . S
Gd515 N510 2.622 . S
Gd515 N516 2.570 . S
Gd515 O547 2.386 . S
Gd515 O551 2.307 . S
Gd515 O554 2.353 . S
Gd515 O555 2.468 1_554 S
Gd515 O556 2.427 1_554 S
Gd515 O558 2.388 . S
Gd515 C579 2.805 1_554 S
N516 C506 1.359 . S
N516 Gd515 2.570 . S
N516 C518 1.343 . S
C517 C505 1.422 . S
C517 C519 1.321 . S
C517 H525 0.931 . S
C518 N516 1.343 . S
C518 C519 1.390 . S
C518 H520 0.931 . S
C519 C517 1.321 . S
C519 C518 1.390 . S
C519 H521 0.930 . S
H520 C518 0.931 . S
H521 C519 0.930 . S
H522 C545 0.931 . S
H523 C511 0.929 . S
H524 C546 0.930 . S
H525 C517 0.931 . S
H526 C507 0.930 . S
H527 C536 0.929 . S
H528 C512 0.931 . S
H529 C513 0.930 . S
H530 C568 0.930 . S
H531 C509 0.929 . S
H532 C537 0.931 . S
H533 C538 0.930 . S
N534 Gd514 2.622 . S
N534 C535 1.369 . S
N534 C536 1.338 . S
C535 N534 1.369 . S
C535 C539 1.415 . S
C535 C542 1.422 . S
C536 H527 0.929 . S
C536 N534 1.338 . S
C536 C538 1.378 . S
C537 H532 0.931 . S
C537 C538 1.348 . S
C537 C539 1.413 . S
C538 H533 0.930 . S
C538 C536 1.378 . S
C538 C537 1.348 . S
C539 C535 1.415 . S
C539 C537 1.413 . S
C539 C569 1.437 . S
H540 C569 0.929 . S
N541 Gd514 2.570 . S
N541 C542 1.359 . S
N541 C545 1.343 . S
C542 C535 1.422 . S
C542 N541 1.359 . S
C542 C544 1.421 . S
C543 C544 1.422 . S
C543 C546 1.321 . S
C543 H570 0.931 . S
C544 C542 1.421 . S
C544 C543 1.422 . S
C544 C568 1.417 . S
C545 H522 0.931 . S
C545 N541 1.343 . S
C545 C546 1.390 . S
C546 H524 0.930 . S
C546 C543 1.321 . S
C546 C545 1.390 . S
O547 Gd515 2.386 . S
O547 C559 1.265 . S
O548 Gd514 2.353 . S
O548 C559 1.242 . S
O549 Gd514 2.468 . S
O549 C567 1.263 . S
O550 Gd514 2.427 . S
O550 C567 1.252 . S
O551 Gd515 2.307 . S
O551 C560 1.261 . S
O552 Gd514 2.388 . S
O552 C560 1.252 . S
O553 Gd514 2.386 . S
O553 C571 1.265 . S
O554 Gd515 2.353 . S
O554 C571 1.242 . S
O555 Gd515 2.468 1_556 S
O555 C579 1.263 . S
O556 Gd515 2.427 1_556 S
O556 C579 1.252 . S
O557 Gd514 2.307 . S
O557 C572 1.261 . S
O558 Gd515 2.388 . S
O558 C572 1.252 . S
C559 O547 1.265 . S
C559 O548 1.242 . S
C560 O551 1.261 . S
C560 O552 1.252 . S
C561 C564 1.394 . S
C561 C566 1.370 . S
C561 C567 1.500 . S
C562 C565 1.383 . S
C562 C566 1.395 . S
C563 C564 1.396 . S
C563 C565 1.365 . S
C563 H580 0.929 . S
C564 C561 1.394 . S
C564 C563 1.396 . S
C564 H581 0.930 . S
C565 C562 1.383 . S
C565 C563 1.365 . S
C565 H582 0.931 . S
C566 C561 1.370 . S
C566 C562 1.395 . S
C566 H583 0.930 . S
C567 Gd514 2.805 . S
C567 O549 1.263 . S
C567 O550 1.252 . S
C567 C561 1.500 . S
C568 H530 0.930 . S
C568 C544 1.417 . S
C568 C569 1.329 . S
C569 C539 1.437 . S
C569 H540 0.929 . S
C569 C568 1.329 . S
H570 C543 0.931 . S
C571 O553 1.265 . S
C571 O554 1.242 . S
C572 O557 1.261 . S
C572 O558 1.252 . S
C573 C576 1.394 . S
C573 C578 1.370 . S
C573 C579 1.500 . S
C574 C577 1.383 . S
C574 C578 1.395 . S
C575 C576 1.396 . S
C575 C577 1.365 . S
C575 H584 0.929 . S
C576 C573 1.394 . S
C576 C575 1.396 . S
C576 H585 0.930 . S
C577 C574 1.383 . S
C577 C575 1.365 . S
C577 H586 0.931 . S
C578 C573 1.370 . S
C578 C574 1.395 . S
C578 H587 0.930 . S
C579 Gd515 2.805 1_556 S
C579 O555 1.263 . S
C579 O556 1.252 . S
C579 C573 1.500 . S
H580 C563 0.929 . S
H581 C564 0.930 . S
H582 C565 0.931 . S
H583 C566 0.930 . S
H584 C575 0.929 . S
H585 C576 0.930 . S
H586 C577 0.931 . S
H587 C578 0.930 . S
C588 C590 1.422 . S
C588 C592 1.415 . S
C588 N594 1.369 . S
C589 C590 1.421 . S
C589 C591 1.417 . S
C589 C601 1.422 . S
C590 C588 1.422 . S
C590 C589 1.421 . S
C590 N600 1.359 . S
C591 C589 1.417 . S
C591 C593 1.329 . S
C591 H610 0.930 . S
C592 C588 1.415 . S
C592 C593 1.437 . S
C592 C596 1.413 . S
C593 C591 1.329 . S
C593 C592 1.437 . S
C593 H615 0.929 . S
N594 C588 1.369 . S
N594 C595 1.338 . S
N594 Gd599 2.622 . S
C595 N594 1.338 . S
C595 C597 1.378 . S
C595 H607 0.929 . S
C596 C592 1.413 . S
C596 C597 1.348 . S
C596 H612 0.931 . S
C597 C595 1.378 . S
C597 C596 1.348 . S
C597 H613 0.930 . S
Gd598 N618 2.622 . S
Gd598 N625 2.570 . S
Gd598 O632 2.353 . S
Gd598 O633 2.468 1_556 S
Gd598 O634 2.427 1_556 S
Gd598 O636 2.388 . S
Gd598 O637 2.386 . S
Gd598 O641 2.307 . S
Gd598 C651 2.805 1_556 S
Gd599 N594 2.622 . S
Gd599 N600 2.570 . S
Gd599 O631 2.386 . S
Gd599 O635 2.307 . S
Gd599 O638 2.353 . S
Gd599 O639 2.468 . S
Gd599 O640 2.427 . S
Gd599 O642 2.388 . S
Gd599 C663 2.805 . S
N600 C590 1.359 . S
N600 Gd599 2.570 . S
N600 C602 1.343 . S
C601 C589 1.422 . S
C601 C603 1.321 . S
C601 H609 0.931 . S
C602 N600 1.343 . S
C602 C603 1.390 . S
C602 H604 0.931 . S
C603 C601 1.321 . S
C603 C602 1.390 . S
C603 H605 0.930 . S
H604 C602 0.931 . S
H605 C603 0.930 . S
H606 C629 0.931 . S
H607 C595 0.929 . S
H608 C630 0.930 . S
H609 C601 0.931 . S
H610 C591 0.930 . S
H611 C620 0.929 . S
H612 C596 0.931 . S
H613 C597 0.930 . S
H614 C652 0.930 . S
H615 C593 0.929 . S
H616 C621 0.931 . S
H617 C622 0.930 . S
N618 Gd598 2.622 . S
N618 C619 1.369 . S
N618 C620 1.338 . S
C619 N618 1.369 . S
C619 C623 1.415 . S
C619 C626 1.422 . S
C620 H611 0.929 . S
C620 N618 1.338 . S
C620 C622 1.378 . S
C621 H616 0.931 . S
C621 C622 1.348 . S
C621 C623 1.413 . S
C622 H617 0.930 . S
C622 C620 1.378 . S
C622 C621 1.348 . S
C623 C619 1.415 . S
C623 C621 1.413 . S
C623 C653 1.437 . S
H624 C653 0.929 . S
N625 Gd598 2.570 . S
N625 C626 1.359 . S
N625 C629 1.343 . S
C626 C619 1.422 . S
C626 N625 1.359 . S
C626 C628 1.421 . S
C627 C628 1.422 . S
C627 C630 1.321 . S
C627 H654 0.931 . S
C628 C626 1.421 . S
C628 C627 1.422 . S
C628 C652 1.417 . S
C629 H606 0.931 . S
C629 N625 1.343 . S
C629 C630 1.390 . S
C630 H608 0.930 . S
C630 C627 1.321 . S
C630 C629 1.390 . S
O631 Gd599 2.386 . S
O631 C643 1.265 . S
O632 Gd598 2.353 . S
O632 C643 1.242 . S
O633 Gd598 2.468 1_554 S
O633 C651 1.263 . S
O634 Gd598 2.427 1_554 S
O634 C651 1.252 . S
O635 Gd599 2.307 . S
O635 C644 1.261 . S
O636 Gd598 2.388 . S
O636 C644 1.252 . S
O637 Gd598 2.386 . S
O637 C655 1.265 . S
O638 Gd599 2.353 . S
O638 C655 1.242 . S
O639 Gd599 2.468 . S
O639 C663 1.263 . S
O640 Gd599 2.427 . S
O640 C663 1.252 . S
O641 Gd598 2.307 . S
O641 C656 1.261 . S
O642 Gd599 2.388 . S
O642 C656 1.252 . S
C643 O631 1.265 . S
C643 O632 1.242 . S
C644 O635 1.261 . S
C644 O636 1.252 . S
C645 C648 1.394 . S
C645 C650 1.370 . S
C645 C651 1.500 . S
C646 C649 1.383 . S
C646 C650 1.395 . S
C647 C648 1.396 . S
C647 C649 1.365 . S
C647 H664 0.929 . S
C648 C645 1.394 . S
C648 C647 1.396 . S
C648 H665 0.930 . S
C649 C646 1.383 . S
C649 C647 1.365 . S
C649 H666 0.931 . S
C650 C645 1.370 . S
C650 C646 1.395 . S
C650 H667 0.930 . S
C651 Gd598 2.805 1_554 S
C651 O633 1.263 . S
C651 O634 1.252 . S
C651 C645 1.500 . S
C652 H614 0.930 . S
C652 C628 1.417 . S
C652 C653 1.329 . S
C653 C623 1.437 . S
C653 H624 0.929 . S
C653 C652 1.329 . S
H654 C627 0.931 . S
C655 O637 1.265 . S
C655 O638 1.242 . S
C656 O641 1.261 . S
C656 O642 1.252 . S
C657 C660 1.394 . S
C657 C662 1.370 . S
C657 C663 1.500 . S
C658 C661 1.383 . S
C658 C662 1.395 . S
C659 C660 1.396 . S
C659 C661 1.365 . S
C659 H668 0.929 . S
C660 C657 1.394 . S
C660 C659 1.396 . S
C660 H669 0.930 . S
C661 C658 1.383 . S
C661 C659 1.365 . S
C661 H670 0.931 . S
C662 C657 1.370 . S
C662 C658 1.395 . S
C662 H671 0.930 . S
C663 Gd599 2.805 . S
C663 O639 1.263 . S
C663 O640 1.252 . S
C663 C657 1.500 . S
H664 C647 0.929 . S
H665 C648 0.930 . S
H666 C649 0.931 . S
H667 C650 0.930 . S
H668 C659 0.929 . S
H669 C660 0.930 . S
H670 C661 0.931 . S
H671 C662 0.930 . S
C672 C674 1.422 . S
C672 C676 1.415 . S
C672 N678 1.369 . S
C673 C674 1.421 . S
C673 C675 1.417 . S
C673 C685 1.422 . S
C674 C672 1.422 . S
C674 C673 1.421 . S
C674 N684 1.359 . S
C675 C673 1.417 . S
C675 C677 1.329 . S
C675 H694 0.930 . S
C676 C672 1.415 . S
C676 C677 1.437 . S
C676 C680 1.413 . S
C677 C675 1.329 . S
C677 C676 1.437 . S
C677 H699 0.929 . S
N678 C672 1.369 . S
N678 C679 1.338 . S
N678 Gd683 2.622 . S
C679 N678 1.338 . S
C679 C681 1.378 . S
C679 H691 0.929 . S
C680 C676 1.413 . S
C680 C681 1.348 . S
C680 H696 0.931 . S
C681 C679 1.378 . S
C681 C680 1.348 . S
C681 H697 0.930 . S
Gd682 N702 2.622 . S
Gd682 N709 2.570 . S
Gd682 O716 2.353 . S
Gd682 O717 2.468 . S
Gd682 O718 2.427 . S
Gd682 O720 2.388 . S
Gd682 O721 2.386 . S
Gd682 O725 2.307 . S
Gd682 C735 2.805 . S
Gd683 N678 2.622 . S
Gd683 N684 2.570 . S
Gd683 O715 2.386 . S
Gd683 O719 2.307 . S
Gd683 O722 2.353 . S
Gd683 O723 2.468 . S
Gd683 O724 2.427 . S
Gd683 O726 2.388 . S
Gd683 C747 2.805 . S
N684 C674 1.359 . S
N684 Gd683 2.570 . S
N684 C686 1.343 . S
C685 C673 1.422 . S
C685 C687 1.321 . S
C685 H693 0.931 . S
C686 N684 1.343 . S
C686 C687 1.390 . S
C686 H688 0.931 . S
C687 C685 1.321 . S
C687 C686 1.390 . S
C687 H689 0.930 . S
H688 C686 0.931 . S
H689 C687 0.930 . S
H690 C713 0.931 . S
H691 C679 0.929 . S
H692 C714 0.930 . S
H693 C685 0.931 . S
H694 C675 0.930 . S
H695 C704 0.929 . S
H696 C680 0.931 . S
H697 C681 0.930 . S
H698 C736 0.930 . S
H699 C677 0.929 . S
H700 C705 0.931 1_455 S
H701 C706 0.930 . S
N702 Gd682 2.622 . S
N702 C703 1.369 . S
N702 C704 1.338 . S
C703 N702 1.369 . S
C703 C707 1.415 . S
C703 C710 1.422 . S
C704 H695 0.929 . S
C704 N702 1.338 . S
C704 C706 1.378 . S
C705 H700 0.931 1_655 S
C705 C706 1.348 . S
C705 C707 1.413 . S
C706 H701 0.930 . S
C706 C704 1.378 . S
C706 C705 1.348 . S
C707 C703 1.415 . S
C707 C705 1.413 . S
C707 C737 1.437 1_655 S
H708 C737 0.929 . S
N709 Gd682 2.570 . S
N709 C710 1.359 . S
N709 C713 1.343 . S
C710 C703 1.422 . S
C710 N709 1.359 . S
C710 C712 1.421 . S
C711 C712 1.422 . S
C711 C714 1.321 . S
C711 H738 0.931 1_655 S
C712 C710 1.421 . S
C712 C711 1.422 . S
C712 C736 1.417 1_655 S
C713 H690 0.931 . S
C713 N709 1.343 . S
C713 C714 1.390 . S
C714 H692 0.930 . S
C714 C711 1.321 . S
C714 C713 1.390 . S
O715 Gd683 2.386 . S
O715 C727 1.265 . S
O716 Gd682 2.353 . S
O716 C727 1.242 . S
O717 Gd682 2.468 . S
O717 C735 1.263 . S
O718 Gd682 2.427 . S
O718 C735 1.252 . S
O719 Gd683 2.307 . S
O719 C728 1.261 . S
O720 Gd682 2.388 . S
O720 C728 1.252 . S
O721 Gd682 2.386 . S
O721 C739 1.265 . S
O722 Gd683 2.353 . S
O722 C739 1.242 . S
O723 Gd683 2.468 . S
O723 C747 1.263 . S
O724 Gd683 2.427 . S
O724 C747 1.252 . S
O725 Gd682 2.307 . S
O725 C740 1.261 . S
O726 Gd683 2.388 . S
O726 C740 1.252 . S
C727 O715 1.265 . S
C727 O716 1.242 . S
C728 O719 1.261 . S
C728 O720 1.252 . S
C729 C732 1.394 . S
C729 C734 1.370 . S
C729 C735 1.500 . S
C730 C733 1.383 . S
C730 C734 1.395 . S
C731 C732 1.396 . S
C731 C733 1.365 . S
C731 H748 0.929 . S
C732 C729 1.394 . S
C732 C731 1.396 . S
C732 H749 0.930 . S
C733 C730 1.383 . S
C733 C731 1.365 . S
C733 H750 0.931 . S
C734 C729 1.370 . S
C734 C730 1.395 . S
C734 H751 0.930 . S
C735 Gd682 2.805 . S
C735 O717 1.263 . S
C735 O718 1.252 . S
C735 C729 1.500 . S
C736 H698 0.930 . S
C736 C712 1.417 1_455 S
C736 C737 1.329 . S
C737 C707 1.437 1_455 S
C737 H708 0.929 . S
C737 C736 1.329 . S
H738 C711 0.931 1_455 S
C739 O721 1.265 . S
C739 O722 1.242 . S
C740 O725 1.261 . S
C740 O726 1.252 . S
C741 C744 1.394 . S
C741 C746 1.370 . S
C741 C747 1.500 . S
C742 C745 1.383 . S
C742 C746 1.395 1_554 S
C743 C744 1.396 1_554 S
C743 C745 1.365 . S
C743 H752 0.929 . S
C744 C741 1.394 . S
C744 C743 1.396 1_556 S
C744 H753 0.930 . S
C745 C742 1.383 . S
C745 C743 1.365 . S
C745 H754 0.931 . S
C746 C741 1.370 . S
C746 C742 1.395 1_556 S
C746 H755 0.930 . S
C747 Gd683 2.805 . S
C747 O723 1.263 . S
C747 O724 1.252 . S
C747 C741 1.500 . S
H748 C731 0.929 . S
H749 C732 0.930 . S
H750 C733 0.931 . S
H751 C734 0.930 . S
H752 C743 0.929 . S
H753 C744 0.930 . S
H754 C745 0.931 . S
H755 C746 0.930 . S
C756 C758 1.422 . S
C756 C760 1.415 . S
C756 N762 1.369 . S
C757 C758 1.421 . S
C757 C759 1.417 1_545 S
C757 C769 1.422 . S
C758 C756 1.422 . S
C758 C757 1.421 . S
C758 N768 1.359 . S
C759 C757 1.417 1_565 S
C759 C761 1.329 . S
C759 H778 0.930 . S
C760 C756 1.415 . S
C760 C761 1.437 1_545 S
C760 C764 1.413 . S
C761 C759 1.329 . S
C761 C760 1.437 1_565 S
C761 H783 0.929 . S
N762 C756 1.369 . S
N762 C763 1.338 . S
N762 Gd767 2.622 . S
C763 N762 1.338 . S
C763 C765 1.378 . S
C763 H775 0.929 . S
C764 C760 1.413 . S
C764 C765 1.348 . S
C764 H780 0.931 1_545 S
C765 C763 1.378 . S
C765 C764 1.348 . S
C765 H781 0.930 . S
Gd766 N786 2.622 . S
Gd766 N793 2.570 . S
Gd766 O800 2.353 . S
Gd766 O801 2.468 . S
Gd766 O802 2.427 . S
Gd766 O804 2.388 . S
Gd766 O805 2.386 . S
Gd766 O809 2.307 . S
Gd766 C819 2.805 . S
Gd767 N762 2.622 . S
Gd767 N768 2.570 . S
Gd767 O799 2.386 . S
Gd767 O803 2.307 . S
Gd767 O806 2.353 . S
Gd767 O807 2.468 . S
Gd767 O808 2.427 . S
Gd767 O810 2.388 . S
Gd767 C831 2.805 . S
N768 C758 1.359 . S
N768 Gd767 2.570 . S
N768 C770 1.343 . S
C769 C757 1.422 . S
C769 C771 1.321 . S
C769 H777 0.931 1_545 S
C770 N768 1.343 . S
C770 C771 1.390 . S
C770 H772 0.931 . S
C771 C769 1.321 . S
C771 C770 1.390 . S
C771 H773 0.930 . S
H772 C770 0.931 . S
H773 C771 0.930 . S
H774 C797 0.931 . S
H775 C763 0.929 . S
H776 C798 0.930 . S
H777 C769 0.931 1_565 S
H778 C759 0.930 . S
H779 C788 0.929 . S
H780 C764 0.931 1_565 S
H781 C765 0.930 . S
H782 C820 0.930 . S
H783 C761 0.929 . S
H784 C789 0.931 . S
H785 C790 0.930 . S
N786 Gd766 2.622 . S
N786 C787 1.369 . S
N786 C788 1.338 . S
C787 N786 1.369 . S
C787 C791 1.415 . S
C787 C794 1.422 . S
C788 H779 0.929 . S
C788 N786 1.338 . S
C788 C790 1.378 . S
C789 H784 0.931 . S
C789 C790 1.348 . S
C789 C791 1.413 . S
C790 H785 0.930 . S
C790 C788 1.378 . S
C790 C789 1.348 . S
C791 C787 1.415 . S
C791 C789 1.413 . S
C791 C821 1.437 . S
H792 C821 0.929 . S
N793 Gd766 2.570 . S
N793 C794 1.359 . S
N793 C797 1.343 . S
C794 C787 1.422 . S
C794 N793 1.359 . S
C794 C796 1.421 . S
C795 C796 1.422 . S
C795 C798 1.321 . S
C795 H822 0.931 . S
C796 C794 1.421 . S
C796 C795 1.422 . S
C796 C820 1.417 . S
C797 H774 0.931 . S
C797 N793 1.343 . S
C797 C798 1.390 . S
C798 H776 0.930 . S
C798 C795 1.321 . S
C798 C797 1.390 . S
O799 Gd767 2.386 . S
O799 C811 1.265 . S
O800 Gd766 2.353 . S
O800 C811 1.242 . S
O801 Gd766 2.468 . S
O801 C819 1.263 . S
O802 Gd766 2.427 . S
O802 C819 1.252 . S
O803 Gd767 2.307 . S
O803 C812 1.261 . S
O804 Gd766 2.388 . S
O804 C812 1.252 . S
O805 Gd766 2.386 . S
O805 C823 1.265 . S
O806 Gd767 2.353 . S
O806 C823 1.242 . S
O807 Gd767 2.468 . S
O807 C831 1.263 . S
O808 Gd767 2.427 . S
O808 C831 1.252 . S
O809 Gd766 2.307 . S
O809 C824 1.261 . S
O810 Gd767 2.388 . S
O810 C824 1.252 . S
C811 O799 1.265 . S
C811 O800 1.242 . S
C812 O803 1.261 . S
C812 O804 1.252 . S
C813 C816 1.394 . S
C813 C818 1.370 . S
C813 C819 1.500 . S
C814 C817 1.383 . S
C814 C818 1.395 1_556 S
C815 C816 1.396 1_556 S
C815 C817 1.365 . S
C815 H832 0.929 . S
C816 C813 1.394 . S
C816 C815 1.396 1_554 S
C816 H833 0.930 . S
C817 C814 1.383 . S
C817 C815 1.365 . S
C817 H834 0.931 . S
C818 C813 1.370 . S
C818 C814 1.395 1_554 S
C818 H835 0.930 . S
C819 Gd766 2.805 . S
C819 O801 1.263 . S
C819 O802 1.252 . S
C819 C813 1.500 . S
C820 H782 0.930 . S
C820 C796 1.417 . S
C820 C821 1.329 . S
C821 C791 1.437 . S
C821 H792 0.929 . S
C821 C820 1.329 . S
H822 C795 0.931 . S
C823 O805 1.265 . S
C823 O806 1.242 . S
C824 O809 1.261 . S
C824 O810 1.252 . S
C825 C828 1.394 . S
C825 C830 1.370 . S
C825 C831 1.500 . S
C826 C829 1.383 . S
C826 C830 1.395 . S
C827 C828 1.396 . S
C827 C829 1.365 . S
C827 H836 0.929 . S
C828 C825 1.394 . S
C828 C827 1.396 . S
C828 H837 0.930 . S
C829 C826 1.383 . S
C829 C827 1.365 . S
C829 H838 0.931 . S
C830 C825 1.370 . S
C830 C826 1.395 . S
C830 H839 0.930 . S
C831 Gd767 2.805 . S
C831 O807 1.263 . S
C831 O808 1.252 . S
C831 C825 1.500 . S
H832 C815 0.929 . S
H833 C816 0.930 . S
H834 C817 0.931 . S
H835 C818 0.930 . S
H836 C827 0.929 . S
H837 C828 0.930 . S
H838 C829 0.931 . S
H839 C830 0.930 . S
C840 C842 1.422 . S
C840 C844 1.415 . S
C840 N846 1.369 . S
C841 C842 1.421 . S
C841 C843 1.417 . S
C841 C853 1.422 . S
C842 C840 1.422 . S
C842 C841 1.421 . S
C842 N852 1.359 . S
C843 C841 1.417 . S
C843 C845 1.329 . S
C843 H862 0.930 . S
C844 C840 1.415 . S
C844 C845 1.437 . S
C844 C848 1.413 . S
C845 C843 1.329 . S
C845 C844 1.437 . S
C845 H867 0.929 . S
N846 C840 1.369 . S
N846 C847 1.338 . S
N846 Gd851 2.622 . S
C847 N846 1.338 . S
C847 C849 1.378 . S
C847 H859 0.929 . S
C848 C844 1.413 . S
C848 C849 1.348 . S
C848 H864 0.931 . S
C849 C847 1.378 . S
C849 C848 1.348 . S
C849 H865 0.930 . S
Gd850 N870 2.622 . S
Gd850 N877 2.570 . S
Gd850 O884 2.353 . S
Gd850 O885 2.468 . S
Gd850 O886 2.427 . S
Gd850 O888 2.388 . S
Gd850 O889 2.386 . S
Gd850 O893 2.307 . S
Gd850 C903 2.805 . S
Gd851 N846 2.622 . S
Gd851 N852 2.570 . S
Gd851 O883 2.386 . S
Gd851 O887 2.307 . S
Gd851 O890 2.353 . S
Gd851 O891 2.468 . S
Gd851 O892 2.427 . S
Gd851 O894 2.388 . S
Gd851 C915 2.805 . S
N852 C842 1.359 . S
N852 Gd851 2.570 . S
N852 C854 1.343 . S
C853 C841 1.422 . S
C853 C855 1.321 . S
C853 H861 0.931 . S
C854 N852 1.343 . S
C854 C855 1.390 . S
C854 H856 0.931 . S
C855 C853 1.321 . S
C855 C854 1.390 . S
C855 H857 0.930 . S
H856 C854 0.931 . S
H857 C855 0.930 . S
H858 C881 0.931 . S
H859 C847 0.929 . S
H860 C882 0.930 . S
H861 C853 0.931 . S
H862 C843 0.930 . S
H863 C872 0.929 . S
H864 C848 0.931 . S
H865 C849 0.930 . S
H866 C904 0.930 . S
H867 C845 0.929 . S
H868 C873 0.931 1_655 S
H869 C874 0.930 . S
N870 Gd850 2.622 . S
N870 C871 1.369 . S
N870 C872 1.338 . S
C871 N870 1.369 . S
C871 C875 1.415 . S
C871 C878 1.422 . S
C872 H863 0.929 . S
C872 N870 1.338 . S
C872 C874 1.378 . S
C873 H868 0.931 1_455 S
C873 C874 1.348 . S
C873 C875 1.413 . S
C874 H869 0.930 . S
C874 C872 1.378 . S
C874 C873 1.348 . S
C875 C871 1.415 . S
C875 C873 1.413 . S
C875 C905 1.437 1_455 S
H876 C905 0.929 . S
N877 Gd850 2.570 . S
N877 C878 1.359 . S
N877 C881 1.343 . S
C878 C871 1.422 . S
C878 N877 1.359 . S
C878 C880 1.421 . S
C879 C880 1.422 . S
C879 C882 1.321 . S
C879 H906 0.931 1_455 S
C880 C878 1.421 . S
C880 C879 1.422 . S
C880 C904 1.417 1_455 S
C881 H858 0.931 . S
C881 N877 1.343 . S
C881 C882 1.390 . S
C882 H860 0.930 . S
C882 C879 1.321 . S
C882 C881 1.390 . S
O883 Gd851 2.386 . S
O883 C895 1.265 . S
O884 Gd850 2.353 . S
O884 C895 1.242 . S
O885 Gd850 2.468 . S
O885 C903 1.263 . S
O886 Gd850 2.427 . S
O886 C903 1.252 . S
O887 Gd851 2.307 . S
O887 C896 1.261 . S
O888 Gd850 2.388 . S
O888 C896 1.252 . S
O889 Gd850 2.386 . S
O889 C907 1.265 . S
O890 Gd851 2.353 . S
O890 C907 1.242 . S
O891 Gd851 2.468 . S
O891 C915 1.263 . S
O892 Gd851 2.427 . S
O892 C915 1.252 . S
O893 Gd850 2.307 . S
O893 C908 1.261 . S
O894 Gd851 2.388 . S
O894 C908 1.252 . S
C895 O883 1.265 . S
C895 O884 1.242 . S
C896 O887 1.261 . S
C896 O888 1.252 . S
C897 C900 1.394 . S
C897 C902 1.370 . S
C897 C903 1.500 . S
C898 C901 1.383 . S
C898 C902 1.395 . S
C899 C900 1.396 . S
C899 C901 1.365 . S
C899 H916 0.929 . S
C900 C897 1.394 . S
C900 C899 1.396 . S
C900 H917 0.930 . S
C901 C898 1.383 . S
C901 C899 1.365 . S
C901 H918 0.931 . S
C902 C897 1.370 . S
C902 C898 1.395 . S
C902 H919 0.930 . S
C903 Gd850 2.805 . S
C903 O885 1.263 . S
C903 O886 1.252 . S
C903 C897 1.500 . S
C904 H866 0.930 . S
C904 C880 1.417 1_655 S
C904 C905 1.329 . S
C905 C875 1.437 1_655 S
C905 H876 0.929 . S
C905 C904 1.329 . S
H906 C879 0.931 1_655 S
C907 O889 1.265 . S
C907 O890 1.242 . S
C908 O893 1.261 . S
C908 O894 1.252 . S
C909 C912 1.394 . S
C909 C914 1.370 . S
C909 C915 1.500 . S
C910 C913 1.383 . S
C910 C914 1.395 1_554 S
C911 C912 1.396 1_554 S
C911 C913 1.365 . S
C911 H920 0.929 . S
C912 C909 1.394 . S
C912 C911 1.396 1_556 S
C912 H921 0.930 . S
C913 C910 1.383 . S
C913 C911 1.365 . S
C913 H922 0.931 . S
C914 C909 1.370 . S
C914 C910 1.395 1_556 S
C914 H923 0.930 . S
C915 Gd851 2.805 . S
C915 O891 1.263 . S
C915 O892 1.252 . S
C915 C909 1.500 . S
H916 C899 0.929 . S
H917 C900 0.930 . S
H918 C901 0.931 . S
H919 C902 0.930 . S
H920 C911 0.929 . S
H921 C912 0.930 . S
H922 C913 0.931 . S
H923 C914 0.930 . S
C924 C926 1.422 . S
C924 C928 1.415 . S
C924 N930 1.369 . S
C925 C926 1.421 . S
C925 C927 1.417 1_565 S
C925 C937 1.422 . S
C926 C924 1.422 . S
C926 C925 1.421 . S
C926 N936 1.359 . S
C927 C925 1.417 1_545 S
C927 C929 1.329 . S
C927 H946 0.930 . S
C928 C924 1.415 . S
C928 C929 1.437 1_565 S
C928 C932 1.413 . S
C929 C927 1.329 . S
C929 C928 1.437 1_545 S
C929 H951 0.929 . S
N930 C924 1.369 . S
N930 C931 1.338 . S
N930 Gd935 2.622 . S
C931 N930 1.338 . S
C931 C933 1.378 . S
C931 H943 0.929 . S
C932 C928 1.413 . S
C932 C933 1.348 . S
C932 H948 0.931 1_565 S
C933 C931 1.378 . S
C933 C932 1.348 . S
C933 H949 0.930 . S
Gd934 N954 2.622 . S
Gd934 N961 2.570 . S
Gd934 O968 2.353 . S
Gd934 O969 2.468 . S
Gd934 O970 2.427 . S
Gd934 O972 2.388 . S
Gd934 O973 2.386 . S
Gd934 O977 2.307 . S
Gd934 C987 2.805 . S
Gd935 N930 2.622 . S
Gd935 N936 2.570 . S
Gd935 O967 2.386 . S
Gd935 O971 2.307 . S
Gd935 O974 2.353 . S
Gd935 O975 2.468 . S
Gd935 O976 2.427 . S
Gd935 O978 2.388 . S
Gd935 C999 2.805 . S
N936 C926 1.359 . S
N936 Gd935 2.570 . S
N936 C938 1.343 . S
C937 C925 1.422 . S
C937 C939 1.321 . S
C937 H945 0.931 1_565 S
C938 N936 1.343 . S
C938 C939 1.390 . S
C938 H940 0.931 . S
C939 C937 1.321 . S
C939 C938 1.390 . S
C939 H941 0.930 . S
H940 C938 0.931 . S
H941 C939 0.930 . S
H942 C965 0.931 . S
H943 C931 0.929 . S
H944 C966 0.930 . S
H945 C937 0.931 1_545 S
H946 C927 0.930 . S
H947 C956 0.929 . S
H948 C932 0.931 1_545 S
H949 C933 0.930 . S
H950 C988 0.930 . S
H951 C929 0.929 . S
H952 C957 0.931 . S
H953 C958 0.930 . S
N954 Gd934 2.622 . S
N954 C955 1.369 . S
N954 C956 1.338 . S
C955 N954 1.369 . S
C955 C959 1.415 . S
C955 C962 1.422 . S
C956 H947 0.929 . S
C956 N954 1.338 . S
C956 C958 1.378 . S
C957 H952 0.931 . S
C957 C958 1.348 . S
C957 C959 1.413 . S
C958 H953 0.930 . S
C958 C956 1.378 . S
C958 C957 1.348 . S
C959 C955 1.415 . S
C959 C957 1.413 . S
C959 C989 1.437 . S
H960 C989 0.929 . S
N961 Gd934 2.570 . S
N961 C962 1.359 . S
N961 C965 1.343 . S
C962 C955 1.422 . S
C962 N961 1.359 . S
C962 C964 1.421 . S
C963 C964 1.422 . S
C963 C966 1.321 . S
C963 H990 0.931 . S
C964 C962 1.421 . S
C964 C963 1.422 . S
C964 C988 1.417 . S
C965 H942 0.931 . S
C965 N961 1.343 . S
C965 C966 1.390 . S
C966 H944 0.930 . S
C966 C963 1.321 . S
C966 C965 1.390 . S
O967 Gd935 2.386 . S
O967 C979 1.265 . S
O968 Gd934 2.353 . S
O968 C979 1.242 . S
O969 Gd934 2.468 . S
O969 C987 1.263 . S
O970 Gd934 2.427 . S
O970 C987 1.252 . S
O971 Gd935 2.307 . S
O971 C980 1.261 . S
O972 Gd934 2.388 . S
O972 C980 1.252 . S
O973 Gd934 2.386 . S
O973 C991 1.265 . S
O974 Gd935 2.353 . S
O974 C991 1.242 . S
O975 Gd935 2.468 . S
O975 C999 1.263 . S
O976 Gd935 2.427 . S
O976 C999 1.252 . S
O977 Gd934 2.307 . S
O977 C992 1.261 . S
O978 Gd935 2.388 . S
O978 C992 1.252 . S
C979 O967 1.265 . S
C979 O968 1.242 . S
C980 O971 1.261 . S
C980 O972 1.252 . S
C981 C984 1.394 . S
C981 C986 1.370 . S
C981 C987 1.500 . S
C982 C985 1.383 . S
C982 C986 1.395 1_556 S
C983 C984 1.396 1_556 S
C983 C985 1.365 . S
C983 H1000 0.929 . S
C984 C981 1.394 . S
C984 C983 1.396 1_554 S
C984 H1001 0.930 . S
C985 C982 1.383 . S
C985 C983 1.365 . S
C985 H1002 0.931 . S
C986 C981 1.370 . S
C986 C982 1.395 1_554 S
C986 H1003 0.930 . S
C987 Gd934 2.805 . S
C987 O969 1.263 . S
C987 O970 1.252 . S
C987 C981 1.500 . S
C988 H950 0.930 . S
C988 C964 1.417 . S
C988 C989 1.329 . S
C989 C959 1.437 . S
C989 H960 0.929 . S
C989 C988 1.329 . S
H990 C963 0.931 . S
C991 O973 1.265 . S
C991 O974 1.242 . S
C992 O977 1.261 . S
C992 O978 1.252 . S
C993 C996 1.394 . S
C993 C998 1.370 . S
C993 C999 1.500 . S
C994 C997 1.383 . S
C994 C998 1.395 . S
C995 C996 1.396 . S
C995 C997 1.365 . S
C995 H1004 0.929 . S
C996 C993 1.394 . S
C996 C995 1.396 . S
C996 H1005 0.930 . S
C997 C994 1.383 . S
C997 C995 1.365 . S
C997 H1006 0.931 . S
C998 C993 1.370 . S
C998 C994 1.395 . S
C998 H1007 0.930 . S
C999 Gd935 2.805 . S
C999 O975 1.263 . S
C999 O976 1.252 . S
C999 C993 1.500 . S
H1000 C983 0.929 . S
H1001 C984 0.930 . S
H1002 C985 0.931 . S
H1003 C986 0.930 . S
H1004 C995 0.929 . S
H1005 C996 0.930 . S
H1006 C997 0.931 . S
H1007 C998 0.930 . S
C1008 C1010 1.422 . S
C1008 C1012 1.415 . S
C1008 N1014 1.369 . S
C1009 C1010 1.421 . S
C1009 C1011 1.417 . S
C1009 C1021 1.422 . S
C1010 C1008 1.422 . S
C1010 C1009 1.421 . S
C1010 N1020 1.359 . S
C1011 C1009 1.417 . S
C1011 C1013 1.329 . S
C1011 H1030 0.930 . S
C1012 C1008 1.415 . S
C1012 C1013 1.437 . S
C1012 C1016 1.413 . S
C1013 C1011 1.329 . S
C1013 C1012 1.437 . S
C1013 H1035 0.929 . S
N1014 C1008 1.369 . S
N1014 C1015 1.338 . S
N1014 Gd1019 2.622 . S
C1015 N1014 1.338 . S
C1015 C1017 1.378 . S
C1015 H1027 0.929 . S
C1016 C1012 1.413 . S
C1016 C1017 1.348 . S
C1016 H1032 0.931 . S
C1017 C1015 1.378 . S
C1017 C1016 1.348 . S
C1017 H1033 0.930 . S
Gd1018 N1038 2.622 . S
Gd1018 N1045 2.570 . S
Gd1018 O1052 2.353 . S
Gd1018 O1053 2.468 . S
Gd1018 O1054 2.427 . S
Gd1018 O1056 2.388 . S
Gd1018 O1057 2.386 . S
Gd1018 O1061 2.307 . S
Gd1018 C1071 2.805 . S
Gd1019 N1014 2.622 . S
Gd1019 N1020 2.570 . S
Gd1019 O1051 2.386 . S
Gd1019 O1055 2.307 . S
Gd1019 O1058 2.353 . S
Gd1019 O1059 2.468 . S
Gd1019 O1060 2.427 . S
Gd1019 O1062 2.388 . S
Gd1019 C1083 2.805 . S
N1020 C1010 1.359 . S
N1020 Gd1019 2.570 . S
N1020 C1022 1.343 . S
C1021 C1009 1.422 . S
C1021 C1023 1.321 . S
C1021 H1029 0.931 . S
C1022 N1020 1.343 . S
C1022 C1023 1.390 . S
C1022 H1024 0.931 . S
C1023 C1021 1.321 . S
C1023 C1022 1.390 . S
C1023 H1025 0.930 . S
H1024 C1022 0.931 . S
H1025 C1023 0.930 . S
H1026 C1049 0.931 . S
H1027 C1015 0.929 . S
H1028 C1050 0.930 . S
H1029 C1021 0.931 . S
H1030 C1011 0.930 . S
H1031 C1040 0.929 . S
H1032 C1016 0.931 . S
H1033 C1017 0.930 . S
H1034 C1072 0.930 . S
H1035 C1013 0.929 . S
H1036 C1041 0.931 1_445 S
H1037 C1042 0.930 . S
N1038 Gd1018 2.622 . S
N1038 C1039 1.369 . S
N1038 C1040 1.338 . S
C1039 N1038 1.369 . S
C1039 C1043 1.415 . S
C1039 C1046 1.422 . S
C1040 H1031 0.929 . S
C1040 N1038 1.338 . S
C1040 C1042 1.378 1_565 S
C1041 H1036 0.931 1_665 S
C1041 C1042 1.348 1_565 S
C1041 C1043 1.413 . S
C1042 H1037 0.930 . S
C1042 C1040 1.378 1_545 S
C1042 C1041 1.348 1_545 S
C1043 C1039 1.415 . S
C1043 C1041 1.413 . S
C1043 C1073 1.437 1_655 S
H1044 C1073 0.929 . S
N1045 Gd1018 2.570 . S
N1045 C1046 1.359 . S
N1045 C1049 1.343 . S
C1046 C1039 1.422 . S
C1046 N1045 1.359 . S
C1046 C1048 1.421 . S
C1047 C1048 1.422 . S
C1047 C1050 1.321 . S
C1047 H1074 0.931 1_655 S
C1048 C1046 1.421 . S
C1048 C1047 1.422 . S
C1048 C1072 1.417 1_655 S
C1049 H1026 0.931 . S
C1049 N1045 1.343 . S
C1049 C1050 1.390 . S
C1050 H1028 0.930 . S
C1050 C1047 1.321 . S
C1050 C1049 1.390 . S
O1051 Gd1019 2.386 . S
O1051 C1063 1.265 . S
O1052 Gd1018 2.353 . S
O1052 C1063 1.242 . S
O1053 Gd1018 2.468 . S
O1053 C1071 1.263 . S
O1054 Gd1018 2.427 . S
O1054 C1071 1.252 . S
O1055 Gd1019 2.307 . S
O1055 C1064 1.261 . S
O1056 Gd1018 2.388 . S
O1056 C1064 1.252 . S
O1057 Gd1018 2.386 . S
O1057 C1075 1.265 . S
O1058 Gd1019 2.353 . S
O1058 C1075 1.242 . S
O1059 Gd1019 2.468 . S
O1059 C1083 1.263 . S
O1060 Gd1019 2.427 . S
O1060 C1083 1.252 . S
O1061 Gd1018 2.307 . S
O1061 C1076 1.261 . S
O1062 Gd1019 2.388 . S
O1062 C1076 1.252 . S
C1063 O1051 1.265 . S
C1063 O1052 1.242 . S
C1064 O1055 1.261 . S
C1064 O1056 1.252 . S
C1065 C1068 1.394 . S
C1065 C1070 1.370 . S
C1065 C1071 1.500 . S
C1066 C1069 1.383 . S
C1066 C1070 1.395 1_554 S
C1067 C1068 1.396 1_554 S
C1067 C1069 1.365 . S
C1067 H1084 0.929 . S
C1068 C1065 1.394 . S
C1068 C1067 1.396 1_556 S
C1068 H1085 0.930 . S
C1069 C1066 1.383 . S
C1069 C1067 1.365 . S
C1069 H1086 0.931 . S
C1070 C1065 1.370 . S
C1070 C1066 1.395 1_556 S
C1070 H1087 0.930 . S
C1071 Gd1018 2.805 . S
C1071 O1053 1.263 . S
C1071 O1054 1.252 . S
C1071 C1065 1.500 . S
C1072 H1034 0.930 . S
C1072 C1048 1.417 1_455 S
C1072 C1073 1.329 . S
C1073 C1043 1.437 1_455 S
C1073 H1044 0.929 . S
C1073 C1072 1.329 . S
H1074 C1047 0.931 1_455 S
C1075 O1057 1.265 . S
C1075 O1058 1.242 . S
C1076 O1061 1.261 . S
C1076 O1062 1.252 . S
C1077 C1080 1.394 . S
C1077 C1082 1.370 . S
C1077 C1083 1.500 . S
C1078 C1081 1.383 . S
C1078 C1082 1.395 . S
C1079 C1080 1.396 . S
C1079 C1081 1.365 . S
C1079 H1088 0.929 . S
C1080 C1077 1.394 . S
C1080 C1079 1.396 . S
C1080 H1089 0.930 . S
C1081 C1078 1.383 . S
C1081 C1079 1.365 . S
C1081 H1090 0.931 . S
C1082 C1077 1.370 . S
C1082 C1078 1.395 . S
C1082 H1091 0.930 . S
C1083 Gd1019 2.805 . S
C1083 O1059 1.263 . S
C1083 O1060 1.252 . S
C1083 C1077 1.500 . S
H1084 C1067 0.929 . S
H1085 C1068 0.930 . S
H1086 C1069 0.931 . S
H1087 C1070 0.930 . S
H1088 C1079 0.929 . S
H1089 C1080 0.930 . S
H1090 C1081 0.931 . S
H1091 C1082 0.930 . S
C1092 C1094 1.422 . S
C1092 C1096 1.415 . S
C1092 N1098 1.369 . S
C1093 C1094 1.421 . S
C1093 C1095 1.417 1_545 S
C1093 C1105 1.422 . S
C1094 C1092 1.422 . S
C1094 C1093 1.421 . S
C1094 N1104 1.359 . S
C1095 C1093 1.417 1_565 S
C1095 C1097 1.329 . S
C1095 H1114 0.930 . S
C1096 C1092 1.415 . S
C1096 C1097 1.437 1_545 S
C1096 C1100 1.413 . S
C1097 C1095 1.329 . S
C1097 C1096 1.437 1_565 S
C1097 H1119 0.929 . S
N1098 C1092 1.369 . S
N1098 C1099 1.338 . S
N1098 Gd1103 2.622 . S
C1099 N1098 1.338 . S
C1099 C1101 1.378 1_655 S
C1099 H1111 0.929 . S
C1100 C1096 1.413 . S
C1100 C1101 1.348 1_655 S
C1100 H1116 0.931 1_645 S
C1101 C1099 1.378 1_455 S
C1101 C1100 1.348 1_455 S
C1101 H1117 0.930 . S
Gd1102 N1122 2.622 . S
Gd1102 N1129 2.570 . S
Gd1102 O1136 2.353 . S
Gd1102 O1137 2.468 . S
Gd1102 O1138 2.427 . S
Gd1102 O1140 2.388 . S
Gd1102 O1141 2.386 . S
Gd1102 O1145 2.307 . S
Gd1102 C1155 2.805 . S
Gd1103 N1098 2.622 . S
Gd1103 N1104 2.570 . S
Gd1103 O1135 2.386 . S
Gd1103 O1139 2.307 . S
Gd1103 O1142 2.353 . S
Gd1103 O1143 2.468 . S
Gd1103 O1144 2.427 . S
Gd1103 O1146 2.388 . S
Gd1103 C1167 2.805 . S
N1104 C1094 1.359 . S
N1104 Gd1103 2.570 . S
N1104 C1106 1.343 . S
C1105 C1093 1.422 . S
C1105 C1107 1.321 . S
C1105 H1113 0.931 1_545 S
C1106 N1104 1.343 . S
C1106 C1107 1.390 . S
C1106 H1108 0.931 . S
C1107 C1105 1.321 . S
C1107 C1106 1.390 . S
C1107 H1109 0.930 . S
H1108 C1106 0.931 . S
H1109 C1107 0.930 . S
H1110 C1133 0.931 . S
H1111 C1099 0.929 . S
H1112 C1134 0.930 . S
H1113 C1105 0.931 1_565 S
H1114 C1095 0.930 . S
H1115 C1124 0.929 . S
H1116 C1100 0.931 1_465 S
H1117 C1101 0.930 . S
H1118 C1156 0.930 . S
H1119 C1097 0.929 . S
H1120 C1125 0.931 . S
H1121 C1126 0.930 . S
N1122 Gd1102 2.622 . S
N1122 C1123 1.369 . S
N1122 C1124 1.338 . S
C1123 N1122 1.369 . S
C1123 C1127 1.415 . S
C1123 C1130 1.422 . S
C1124 H1115 0.929 . S
C1124 N1122 1.338 . S
C1124 C1126 1.378 . S
C1125 H1120 0.931 . S
C1125 C1126 1.348 . S
C1125 C1127 1.413 . S
C1126 H1121 0.930 . S
C1126 C1124 1.378 . S
C1126 C1125 1.348 . S
C1127 C1123 1.415 . S
C1127 C1125 1.413 . S
C1127 C1157 1.437 . S
H1128 C1157 0.929 . S
N1129 Gd1102 2.570 . S
N1129 C1130 1.359 . S
N1129 C1133 1.343 . S
C1130 C1123 1.422 . S
C1130 N1129 1.359 . S
C1130 C1132 1.421 . S
C1131 C1132 1.422 . S
C1131 C1134 1.321 . S
C1131 H1158 0.931 . S
C1132 C1130 1.421 . S
C1132 C1131 1.422 . S
C1132 C1156 1.417 . S
C1133 H1110 0.931 . S
C1133 N1129 1.343 . S
C1133 C1134 1.390 . S
C1134 H1112 0.930 . S
C1134 C1131 1.321 . S
C1134 C1133 1.390 . S
O1135 Gd1103 2.386 . S
O1135 C1147 1.265 . S
O1136 Gd1102 2.353 . S
O1136 C1147 1.242 . S
O1137 Gd1102 2.468 . S
O1137 C1155 1.263 . S
O1138 Gd1102 2.427 . S
O1138 C1155 1.252 . S
O1139 Gd1103 2.307 . S
O1139 C1148 1.261 . S
O1140 Gd1102 2.388 . S
O1140 C1148 1.252 . S
O1141 Gd1102 2.386 . S
O1141 C1159 1.265 . S
O1142 Gd1103 2.353 . S
O1142 C1159 1.242 . S
O1143 Gd1103 2.468 . S
O1143 C1167 1.263 . S
O1144 Gd1103 2.427 . S
O1144 C1167 1.252 . S
O1145 Gd1102 2.307 . S
O1145 C1160 1.261 . S
O1146 Gd1103 2.388 . S
O1146 C1160 1.252 . S
C1147 O1135 1.265 . S
C1147 O1136 1.242 . S
C1148 O1139 1.261 . S
C1148 O1140 1.252 . S
C1149 C1152 1.394 . S
C1149 C1154 1.370 . S
C1149 C1155 1.500 . S
C1150 C1153 1.383 . S
C1150 C1154 1.395 . S
C1151 C1152 1.396 . S
C1151 C1153 1.365 . S
C1151 H1168 0.929 . S
C1152 C1149 1.394 . S
C1152 C1151 1.396 . S
C1152 H1169 0.930 . S
C1153 C1150 1.383 . S
C1153 C1151 1.365 . S
C1153 H1170 0.931 . S
C1154 C1149 1.370 . S
C1154 C1150 1.395 . S
C1154 H1171 0.930 . S
C1155 Gd1102 2.805 . S
C1155 O1137 1.263 . S
C1155 O1138 1.252 . S
C1155 C1149 1.500 . S
C1156 H1118 0.930 . S
C1156 C1132 1.417 . S
C1156 C1157 1.329 . S
C1157 C1127 1.437 . S
C1157 H1128 0.929 . S
C1157 C1156 1.329 . S
H1158 C1131 0.931 . S
C1159 O1141 1.265 . S
C1159 O1142 1.242 . S
C1160 O1145 1.261 . S
C1160 O1146 1.252 . S
C1161 C1164 1.394 . S
C1161 C1166 1.370 . S
C1161 C1167 1.500 . S
C1162 C1165 1.383 . S
C1162 C1166 1.395 1_556 S
C1163 C1164 1.396 1_556 S
C1163 C1165 1.365 . S
C1163 H1172 0.929 . S
C1164 C1161 1.394 . S
C1164 C1163 1.396 1_554 S
C1164 H1173 0.930 . S
C1165 C1162 1.383 . S
C1165 C1163 1.365 . S
C1165 H1174 0.931 . S
C1166 C1161 1.370 . S
C1166 C1162 1.395 1_554 S
C1166 H1175 0.930 . S
C1167 Gd1103 2.805 . S
C1167 O1143 1.263 . S
C1167 O1144 1.252 . S
C1167 C1161 1.500 . S
H1168 C1151 0.929 . S
H1169 C1152 0.930 . S
H1170 C1153 0.931 . S
H1171 C1154 0.930 . S
H1172 C1163 0.929 . S
H1173 C1164 0.930 . S
H1174 C1165 0.931 . S
H1175 C1166 0.930 . S
C1176 C1178 1.422 . S
C1176 C1180 1.415 . S
C1176 N1182 1.369 . S
C1177 C1178 1.421 . S
C1177 C1179 1.417 . S
C1177 C1189 1.422 . S
C1178 C1176 1.422 . S
C1178 C1177 1.421 . S
C1178 N1188 1.359 . S
C1179 C1177 1.417 . S
C1179 C1181 1.329 . S
C1179 H1198 0.930 . S
C1180 C1176 1.415 . S
C1180 C1181 1.437 . S
C1180 C1184 1.413 . S
C1181 C1179 1.329 . S
C1181 C1180 1.437 . S
C1181 H1203 0.929 . S
N1182 C1176 1.369 . S
N1182 C1183 1.338 . S
N1182 Gd1187 2.622 . S
C1183 N1182 1.338 . S
C1183 C1185 1.378 . S
C1183 H1195 0.929 . S
C1184 C1180 1.413 . S
C1184 C1185 1.348 . S
C1184 H1200 0.931 . S
C1185 C1183 1.378 . S
C1185 C1184 1.348 . S
C1185 H1201 0.930 . S
Gd1186 N1206 2.622 . S
Gd1186 N1213 2.570 . S
Gd1186 O1220 2.353 . S
Gd1186 O1221 2.468 . S
Gd1186 O1222 2.427 . S
Gd1186 O1224 2.388 . S
Gd1186 O1225 2.386 . S
Gd1186 O1229 2.307 . S
Gd1186 C1239 2.805 . S
Gd1187 N1182 2.622 . S
Gd1187 N1188 2.570 . S
Gd1187 O1219 2.386 . S
Gd1187 O1223 2.307 . S
Gd1187 O1226 2.353 . S
Gd1187 O1227 2.468 . S
Gd1187 O1228 2.427 . S
Gd1187 O1230 2.388 . S
Gd1187 C1251 2.805 . S
N1188 C1178 1.359 . S
N1188 Gd1187 2.570 . S
N1188 C1190 1.343 . S
C1189 C1177 1.422 . S
C1189 C1191 1.321 . S
C1189 H1197 0.931 . S
C1190 N1188 1.343 . S
C1190 C1191 1.390 . S
C1190 H1192 0.931 . S
C1191 C1189 1.321 . S
C1191 C1190 1.390 . S
C1191 H1193 0.930 . S
H1192 C1190 0.931 . S
H1193 C1191 0.930 . S
H1194 C1217 0.931 . S
H1195 C1183 0.929 . S
H1196 C1218 0.930 . S
H1197 C1189 0.931 . S
H1198 C1179 0.930 . S
H1199 C1208 0.929 . S
H1200 C1184 0.931 . S
H1201 C1185 0.930 . S
H1202 C1240 0.930 . S
H1203 C1181 0.929 . S
H1204 C1209 0.931 1_665 S
H1205 C1210 0.930 . S
N1206 Gd1186 2.622 . S
N1206 C1207 1.369 . S
N1206 C1208 1.338 . S
C1207 N1206 1.369 . S
C1207 C1211 1.415 . S
C1207 C1214 1.422 . S
C1208 H1199 0.929 . S
C1208 N1206 1.338 . S
C1208 C1210 1.378 1_545 S
C1209 H1204 0.931 1_445 S
C1209 C1210 1.348 1_545 S
C1209 C1211 1.413 . S
C1210 H1205 0.930 . S
C1210 C1208 1.378 1_565 S
C1210 C1209 1.348 1_565 S
C1211 C1207 1.415 . S
C1211 C1209 1.413 . S
C1211 C1241 1.437 1_455 S
H1212 C1241 0.929 . S
N1213 Gd1186 2.570 . S
N1213 C1214 1.359 . S
N1213 C1217 1.343 . S
C1214 C1207 1.422 . S
C1214 N1213 1.359 . S
C1214 C1216 1.421 . S
C1215 C1216 1.422 . S
C1215 C1218 1.321 . S
C1215 H1242 0.931 1_455 S
C1216 C1214 1.421 . S
C1216 C1215 1.422 . S
C1216 C1240 1.417 1_455 S
C1217 H1194 0.931 . S
C1217 N1213 1.343 . S
C1217 C1218 1.390 . S
C1218 H1196 0.930 . S
C1218 C1215 1.321 . S
C1218 C1217 1.390 . S
O1219 Gd1187 2.386 . S
O1219 C1231 1.265 . S
O1220 Gd1186 2.353 . S
O1220 C1231 1.242 . S
O1221 Gd1186 2.468 . S
O1221 C1239 1.263 . S
O1222 Gd1186 2.427 . S
O1222 C1239 1.252 . S
O1223 Gd1187 2.307 . S
O1223 C1232 1.261 . S
O1224 Gd1186 2.388 . S
O1224 C1232 1.252 . S
O1225 Gd1186 2.386 . S
O1225 C1243 1.265 . S
O1226 Gd1187 2.353 . S
O1226 C1243 1.242 . S
O1227 Gd1187 2.468 . S
O1227 C1251 1.263 . S
O1228 Gd1187 2.427 . S
O1228 C1251 1.252 . S
O1229 Gd1186 2.307 . S
O1229 C1244 1.261 . S
O1230 Gd1187 2.388 . S
O1230 C1244 1.252 . S
C1231 O1219 1.265 . S
C1231 O1220 1.242 . S
C1232 O1223 1.261 . S
C1232 O1224 1.252 . S
C1233 C1236 1.394 . S
C1233 C1238 1.370 . S
C1233 C1239 1.500 . S
C1234 C1237 1.383 . S
C1234 C1238 1.395 1_554 S
C1235 C1236 1.396 1_554 S
C1235 C1237 1.365 . S
C1235 H1252 0.929 . S
C1236 C1233 1.394 . S
C1236 C1235 1.396 1_556 S
C1236 H1253 0.930 . S
C1237 C1234 1.383 . S
C1237 C1235 1.365 . S
C1237 H1254 0.931 . S
C1238 C1233 1.370 . S
C1238 C1234 1.395 1_556 S
C1238 H1255 0.930 . S
C1239 Gd1186 2.805 . S
C1239 O1221 1.263 . S
C1239 O1222 1.252 . S
C1239 C1233 1.500 . S
C1240 H1202 0.930 . S
C1240 C1216 1.417 1_655 S
C1240 C1241 1.329 . S
C1241 C1211 1.437 1_655 S
C1241 H1212 0.929 . S
C1241 C1240 1.329 . S
H1242 C1215 0.931 1_655 S
C1243 O1225 1.265 . S
C1243 O1226 1.242 . S
C1244 O1229 1.261 . S
C1244 O1230 1.252 . S
C1245 C1248 1.394 . S
C1245 C1250 1.370 . S
C1245 C1251 1.500 . S
C1246 C1249 1.383 . S
C1246 C1250 1.395 . S
C1247 C1248 1.396 . S
C1247 C1249 1.365 . S
C1247 H1256 0.929 . S
C1248 C1245 1.394 . S
C1248 C1247 1.396 . S
C1248 H1257 0.930 . S
C1249 C1246 1.383 . S
C1249 C1247 1.365 . S
C1249 H1258 0.931 . S
C1250 C1245 1.370 . S
C1250 C1246 1.395 . S
C1250 H1259 0.930 . S
C1251 Gd1187 2.805 . S
C1251 O1227 1.263 . S
C1251 O1228 1.252 . S
C1251 C1245 1.500 . S
H1252 C1235 0.929 . S
H1253 C1236 0.930 . S
H1254 C1237 0.931 . S
H1255 C1238 0.930 . S
H1256 C1247 0.929 . S
H1257 C1248 0.930 . S
H1258 C1249 0.931 . S
H1259 C1250 0.930 . S
C1260 C1262 1.422 . S
C1260 C1264 1.415 . S
C1260 N1266 1.369 . S
C1261 C1262 1.421 . S
C1261 C1263 1.417 1_565 S
C1261 C1273 1.422 . S
C1262 C1260 1.422 . S
C1262 C1261 1.421 . S
C1262 N1272 1.359 . S
C1263 C1261 1.417 1_545 S
C1263 C1265 1.329 . S
C1263 H1282 0.930 . S
C1264 C1260 1.415 . S
C1264 C1265 1.437 1_565 S
C1264 C1268 1.413 . S
C1265 C1263 1.329 . S
C1265 C1264 1.437 1_545 S
C1265 H1287 0.929 . S
N1266 C1260 1.369 . S
N1266 C1267 1.338 . S
N1266 Gd1271 2.622 . S
C1267 N1266 1.338 . S
C1267 C1269 1.378 1_455 S
C1267 H1279 0.929 . S
C1268 C1264 1.413 . S
C1268 C1269 1.348 1_455 S
C1268 H1284 0.931 1_465 S
C1269 C1267 1.378 1_655 S
C1269 C1268 1.348 1_655 S
C1269 H1285 0.930 . S
Gd1270 N1290 2.622 . S
Gd1270 N1297 2.570 . S
Gd1270 O1304 2.353 . S
Gd1270 O1305 2.468 . S
Gd1270 O1306 2.427 . S
Gd1270 O1308 2.388 . S
Gd1270 O1309 2.386 . S
Gd1270 O1313 2.307 . S
Gd1270 C1323 2.805 . S
Gd1271 N1266 2.622 . S
Gd1271 N1272 2.570 . S
Gd1271 O1303 2.386 . S
Gd1271 O1307 2.307 . S
Gd1271 O1310 2.353 . S
Gd1271 O1311 2.468 . S
Gd1271 O1312 2.427 . S
Gd1271 O1314 2.388 . S
Gd1271 C1335 2.805 . S
N1272 C1262 1.359 . S
N1272 Gd1271 2.570 . S
N1272 C1274 1.343 . S
C1273 C1261 1.422 . S
C1273 C1275 1.321 . S
C1273 H1281 0.931 1_565 S
C1274 N1272 1.343 . S
C1274 C1275 1.390 . S
C1274 H1276 0.931 . S
C1275 C1273 1.321 . S
C1275 C1274 1.390 . S
C1275 H1277 0.930 . S
H1276 C1274 0.931 . S
H1277 C1275 0.930 . S
H1278 C1301 0.931 . S
H1279 C1267 0.929 . S
H1280 C1302 0.930 . S
H1281 C1273 0.931 1_545 S
H1282 C1263 0.930 . S
H1283 C1292 0.929 . S
H1284 C1268 0.931 1_645 S
H1285 C1269 0.930 . S
H1286 C1324 0.930 . S
H1287 C1265 0.929 . S
H1288 C1293 0.931 . S
H1289 C1294 0.930 . S
N1290 Gd1270 2.622 . S
N1290 C1291 1.369 . S
N1290 C1292 1.338 . S
C1291 N1290 1.369 . S
C1291 C1295 1.415 . S
C1291 C1298 1.422 . S
C1292 H1283 0.929 . S
C1292 N1290 1.338 . S
C1292 C1294 1.378 . S
C1293 H1288 0.931 . S
C1293 C1294 1.348 . S
C1293 C1295 1.413 . S
C1294 H1289 0.930 . S
C1294 C1292 1.378 . S
C1294 C1293 1.348 . S
C1295 C1291 1.415 . S
C1295 C1293 1.413 . S
C1295 C1325 1.437 . S
H1296 C1325 0.929 . S
N1297 Gd1270 2.570 . S
N1297 C1298 1.359 . S
N1297 C1301 1.343 . S
C1298 C1291 1.422 . S
C1298 N1297 1.359 . S
C1298 C1300 1.421 . S
C1299 C1300 1.422 . S
C1299 C1302 1.321 . S
C1299 H1326 0.931 . S
C1300 C1298 1.421 . S
C1300 C1299 1.422 . S
C1300 C1324 1.417 . S
C1301 H1278 0.931 . S
C1301 N1297 1.343 . S
C1301 C1302 1.390 . S
C1302 H1280 0.930 . S
C1302 C1299 1.321 . S
C1302 C1301 1.390 . S
O1303 Gd1271 2.386 . S
O1303 C1315 1.265 . S
O1304 Gd1270 2.353 . S
O1304 C1315 1.242 . S
O1305 Gd1270 2.468 . S
O1305 C1323 1.263 . S
O1306 Gd1270 2.427 . S
O1306 C1323 1.252 . S
O1307 Gd1271 2.307 . S
O1307 C1316 1.261 . S
O1308 Gd1270 2.388 . S
O1308 C1316 1.252 . S
O1309 Gd1270 2.386 . S
O1309 C1327 1.265 . S
O1310 Gd1271 2.353 . S
O1310 C1327 1.242 . S
O1311 Gd1271 2.468 . S
O1311 C1335 1.263 . S
O1312 Gd1271 2.427 . S
O1312 C1335 1.252 . S
O1313 Gd1270 2.307 . S
O1313 C1328 1.261 . S
O1314 Gd1271 2.388 . S
O1314 C1328 1.252 . S
C1315 O1303 1.265 . S
C1315 O1304 1.242 . S
C1316 O1307 1.261 . S
C1316 O1308 1.252 . S
C1317 C1320 1.394 . S
C1317 C1322 1.370 . S
C1317 C1323 1.500 . S
C1318 C1321 1.383 . S
C1318 C1322 1.395 . S
C1319 C1320 1.396 . S
C1319 C1321 1.365 . S
C1319 H1336 0.929 . S
C1320 C1317 1.394 . S
C1320 C1319 1.396 . S
C1320 H1337 0.930 . S
C1321 C1318 1.383 . S
C1321 C1319 1.365 . S
C1321 H1338 0.931 . S
C1322 C1317 1.370 . S
C1322 C1318 1.395 . S
C1322 H1339 0.930 . S
C1323 Gd1270 2.805 . S
C1323 O1305 1.263 . S
C1323 O1306 1.252 . S
C1323 C1317 1.500 . S
C1324 H1286 0.930 . S
C1324 C1300 1.417 . S
C1324 C1325 1.329 . S
C1325 C1295 1.437 . S
C1325 H1296 0.929 . S
C1325 C1324 1.329 . S
H1326 C1299 0.931 . S
C1327 O1309 1.265 . S
C1327 O1310 1.242 . S
C1328 O1313 1.261 . S
C1328 O1314 1.252 . S
C1329 C1332 1.394 . S
C1329 C1334 1.370 . S
C1329 C1335 1.500 . S
C1330 C1333 1.383 . S
C1330 C1334 1.395 1_556 S
C1331 C1332 1.396 1_556 S
C1331 C1333 1.365 . S
C1331 H1340 0.929 . S
C1332 C1329 1.394 . S
C1332 C1331 1.396 1_554 S
C1332 H1341 0.930 . S
C1333 C1330 1.383 . S
C1333 C1331 1.365 . S
C1333 H1342 0.931 . S
C1334 C1329 1.370 . S
C1334 C1330 1.395 1_554 S
C1334 H1343 0.930 . S
C1335 Gd1271 2.805 . S
C1335 O1311 1.263 . S
C1335 O1312 1.252 . S
C1335 C1329 1.500 . S
H1336 C1319 0.929 . S
H1337 C1320 0.930 . S
H1338 C1321 0.931 . S
H1339 C1322 0.930 . S
H1340 C1331 0.929 . S
H1341 C1332 0.930 . S
H1342 C1333 0.931 . S
H1343 C1334 0.930 . S
C1344 C1345 1.369 . S
C1344 C1346 1.419 . S
C1344 H1348 0.930 . S
C1345 C1344 1.369 . S
C1345 C1354 1.429 . S
C1346 C1344 1.419 . S
C1346 C1347 1.363 1_565 S
C1346 H1349 0.929 1_565 S
C1347 C1346 1.363 1_545 S
C1347 C1353 1.428 1_545 S
H1348 C1344 0.930 . S
H1349 C1346 0.929 1_545 S
S1350 N1351 1.613 . S
S1350 N1352 1.610 . S
N1351 S1350 1.613 . S
N1351 C1354 1.350 . S
N1352 S1350 1.610 . S
N1352 C1353 1.351 . S
C1353 C1347 1.428 1_565 S
C1353 N1352 1.351 . S
C1353 C1354 1.434 . S
C1354 C1345 1.429 . S
C1354 N1351 1.350 . S
C1354 C1353 1.434 . S
C1355 C1356 1.369 . S
C1355 C1357 1.419 . S
C1355 H1359 0.930 . S
C1356 C1355 1.369 . S
C1356 C1365 1.429 . S
C1357 C1355 1.419 . S
C1357 C1358 1.353 1_655 S
C1357 H1360 0.929 . S
C1358 C1357 1.353 1_455 S
C1358 C1364 1.428 1_455 S
H1359 C1355 0.930 . S
H1360 C1357 0.929 . S
S1361 N1362 1.613 1_455 S
S1361 N1363 1.610 . S
N1362 S1361 1.613 1_655 S
N1362 C1365 1.350 . S
N1363 S1361 1.610 . S
N1363 C1364 1.333 1_455 S
C1364 C1358 1.428 1_655 S
C1364 N1363 1.333 1_655 S
C1364 C1365 1.454 . S
C1365 C1356 1.429 . S
C1365 N1362 1.350 . S
C1365 C1364 1.454 . S
C1366 C1367 1.367 1_545 S
C1366 C1368 1.419 . S
C1366 H1370 0.930 . S
C1367 C1366 1.367 1_565 S
C1367 C1376 1.427 1_565 S
C1368 C1366 1.419 . S
C1368 C1369 1.363 . S
C1368 H1371 0.929 . S
C1369 C1368 1.363 . S
C1369 C1375 1.428 . S
H1370 C1366 0.930 . S
H1371 C1368 0.929 . S
S1372 N1373 1.613 . S
S1372 N1374 1.610 . S
N1373 S1372 1.613 . S
N1373 C1376 1.350 . S
N1374 S1372 1.610 . S
N1374 C1375 1.351 . S
C1375 C1369 1.428 . S
C1375 N1374 1.351 . S
C1375 C1376 1.434 . S
C1376 C1367 1.427 1_545 S
C1376 N1373 1.350 . S
C1376 C1375 1.434 . S
C1377 C1378 1.369 1_455 S
C1377 C1379 1.419 . S
C1377 H1381 0.930 1_455 S
C1378 C1377 1.369 1_655 S
C1378 C1387 1.428 1_655 S
C1379 C1377 1.419 . S
C1379 C1380 1.363 . S
C1379 H1382 0.929 . S
C1380 C1379 1.363 . S
C1380 C1386 1.428 . S
H1381 C1377 0.930 1_655 S
H1382 C1379 0.929 . S
S1383 N1384 1.613 . S
S1383 N1385 1.610 . S
N1384 S1383 1.613 . S
N1384 C1387 1.350 . S
N1385 S1383 1.610 . S
N1385 C1386 1.351 . S
C1386 C1380 1.428 . S
C1386 N1385 1.351 . S
C1386 C1387 1.434 . S
C1387 C1378 1.428 1_455 S
C1387 N1384 1.350 . S
C1387 C1386 1.434 . S
C1388 C1389 1.369 . S
C1388 C1390 1.419 . S
C1388 H1392 0.930 . S
C1389 C1388 1.369 . S
C1389 C1398 1.429 1_554 S
C1390 C1388 1.419 . S
C1390 C1391 1.363 1_554 S
C1390 H1393 0.929 . S
C1391 C1390 1.363 1_556 S
C1391 C1397 1.428 . S
H1392 C1388 0.930 . S
H1393 C1390 0.929 . S
S1394 N1395 1.613 . S
S1394 N1396 1.610 . S
N1395 S1394 1.613 . S
N1395 C1398 1.350 . S
N1396 S1394 1.610 . S
N1396 C1397 1.351 . S
C1397 C1391 1.428 . S
C1397 N1396 1.351 . S
C1397 C1398 1.434 . S
C1398 C1389 1.429 1_556 S
C1398 N1395 1.350 . S
C1398 C1397 1.434 . S
C1399 C1400 1.369 1_556 S
C1399 C1401 1.419 . S
C1399 H1403 0.930 . S
C1400 C1399 1.369 1_554 S
C1400 C1409 1.429 . S
C1401 C1399 1.419 . S
C1401 C1402 1.363 . S
C1401 H1404 0.929 . S
C1402 C1401 1.363 . S
C1402 C1408 1.428 1_556 S
H1403 C1399 0.930 . S
H1404 C1401 0.929 . S
S1405 N1406 1.613 . S
S1405 N1407 1.610 . S
N1406 S1405 1.613 . S
N1406 C1409 1.350 . S
N1407 S1405 1.610 . S
N1407 C1408 1.351 . S
C1408 C1402 1.428 1_554 S
C1408 N1407 1.351 . S
C1408 C1409 1.434 . S
C1409 C1400 1.429 . S
C1409 N1406 1.350 . S
C1409 C1408 1.434 . S
C1410 C1411 1.369 1_556 S
C1410 C1412 1.419 . S
C1410 H1414 0.930 . S
C1411 C1410 1.369 1_554 S
C1411 C1420 1.429 . S
C1412 C1410 1.419 . S
C1412 C1413 1.363 . S
C1412 H1415 0.929 . S
C1413 C1412 1.363 . S
C1413 C1419 1.428 1_556 S
H1414 C1410 0.930 . S
H1415 C1412 0.929 . S
S1416 N1417 1.613 . S
S1416 N1418 1.610 . S
N1417 S1416 1.613 . S
N1417 C1420 1.350 . S
N1418 S1416 1.610 . S
N1418 C1419 1.351 . S
C1419 C1413 1.428 1_554 S
C1419 N1418 1.351 . S
C1419 C1420 1.434 . S
C1420 C1411 1.429 . S
C1420 N1417 1.350 . S
C1420 C1419 1.434 . S
C1421 C1422 1.369 1_556 S
C1421 C1423 1.419 . S
C1421 H1425 0.930 . S
C1422 C1421 1.369 1_554 S
C1422 C1431 1.429 . S
C1423 C1421 1.419 . S
C1423 C1424 1.363 . S
C1423 H1426 0.929 . S
C1424 C1423 1.363 . S
C1424 C1430 1.428 1_556 S
H1425 C1421 0.930 . S
H1426 C1423 0.929 . S
S1427 N1428 1.613 . S
S1427 N1429 1.610 . S
N1428 S1427 1.613 . S
N1428 C1431 1.350 . S
N1429 S1427 1.610 . S
N1429 C1430 1.351 . S
C1430 C1424 1.428 1_554 S
C1430 N1429 1.351 . S
C1430 C1431 1.434 . S
C1431 C1422 1.429 . S
C1431 N1428 1.350 . S
C1431 C1430 1.434 . S
C1432 C1433 1.369 . S
C1432 C1434 1.419 . S
C1432 H1436 0.930 . S
C1433 C1432 1.369 . S
C1433 C1442 1.429 . S
C1434 C1432 1.419 . S
C1434 C1435 1.363 . S
C1434 H1437 0.929 . S
C1435 C1434 1.363 . S
C1435 C1441 1.428 . S
H1436 C1432 0.930 . S
H1437 C1434 0.929 . S
S1438 N1439 1.613 . S
S1438 N1440 1.610 . S
N1439 S1438 1.613 . S
N1439 C1442 1.350 . S
N1440 S1438 1.610 . S
N1440 C1441 1.351 . S
C1441 C1435 1.428 . S
C1441 N1440 1.351 . S
C1441 C1442 1.434 . S
C1442 C1433 1.429 . S
C1442 N1439 1.350 . S
C1442 C1441 1.434 . S
C1443 C1444 1.369 . S
C1443 C1445 1.419 . S
C1443 H1447 0.930 . S
C1444 C1443 1.369 . S
C1444 C1453 1.429 . S
C1445 C1443 1.419 . S
C1445 C1446 1.363 . S
C1445 H1448 0.929 . S
C1446 C1445 1.363 . S
C1446 C1452 1.428 . S
H1447 C1443 0.930 . S
H1448 C1445 0.929 . S
S1449 N1450 1.613 . S
S1449 N1451 1.610 . S
N1450 S1449 1.613 . S
N1450 C1453 1.350 . S
N1451 S1449 1.610 . S
N1451 C1452 1.351 . S
C1452 C1446 1.428 . S
C1452 N1451 1.351 . S
C1452 C1453 1.434 . S
C1453 C1444 1.429 . S
C1453 N1450 1.350 . S
C1453 C1452 1.434 . S
C1454 C1455 1.369 . S
C1454 C1456 1.419 . S
C1454 H1458 0.930 . S
C1455 C1454 1.369 . S
C1455 C1464 1.429 . S
C1456 C1454 1.419 . S
C1456 C1457 1.363 . S
C1456 H1459 0.929 . S
C1457 C1456 1.363 . S
C1457 C1463 1.428 . S
H1458 C1454 0.930 . S
H1459 C1456 0.929 . S
S1460 N1461 1.613 . S
S1460 N1462 1.610 . S
N1461 S1460 1.613 . S
N1461 C1464 1.350 . S
N1462 S1460 1.610 . S
N1462 C1463 1.351 . S
C1463 C1457 1.428 . S
C1463 N1462 1.351 . S
C1463 C1464 1.434 . S
C1464 C1455 1.429 . S
C1464 N1461 1.350 . S
C1464 C1463 1.434 . S
C1465 C1466 1.369 . S
C1465 C1467 1.419 . S
C1465 H1469 0.930 . S
C1466 C1465 1.369 . S
C1466 C1475 1.429 . S
C1467 C1465 1.419 . S
C1467 C1468 1.363 . S
C1467 H1470 0.929 . S
C1468 C1467 1.363 . S
C1468 C1474 1.428 . S
H1469 C1465 0.930 . S
H1470 C1467 0.929 . S
S1471 N1472 1.613 . S
S1471 N1473 1.610 . S
N1472 S1471 1.613 . S
N1472 C1475 1.350 . S
N1473 S1471 1.610 . S
N1473 C1474 1.351 . S
C1474 C1468 1.428 . S
C1474 N1473 1.351 . S
C1474 C1475 1.434 . S
C1475 C1466 1.429 . S
C1475 N1472 1.350 . S
C1475 C1474 1.434 . S
C1476 C1477 1.369 1_545 S
C1476 C1478 1.419 . S
C1476 H1480 0.930 1_545 S
C1477 C1476 1.369 1_565 S
C1477 C1486 1.429 1_565 S
C1478 C1476 1.419 . S
C1478 C1479 1.363 . S
C1478 H1481 0.929 . S
C1479 C1478 1.363 . S
C1479 C1485 1.428 . S
H1480 C1476 0.930 1_565 S
H1481 C1478 0.929 . S
S1482 N1483 1.613 . S
S1482 N1484 1.610 . S
N1483 S1482 1.613 . S
N1483 C1486 1.350 . S
N1484 S1482 1.610 . S
N1484 C1485 1.351 . S
C1485 C1479 1.428 . S
C1485 N1484 1.351 . S
C1485 C1486 1.434 . S
C1486 C1477 1.429 1_545 S
C1486 N1483 1.350 . S
C1486 C1485 1.434 . S
C1487 C1488 1.369 . S
C1487 C1489 1.419 . S
C1487 H1491 0.930 . S
C1488 C1487 1.369 . S
C1488 C1497 1.429 . S
C1489 C1487 1.419 . S
C1489 C1490 1.359 1_455 S
C1489 H1492 0.929 . S
C1490 C1489 1.359 1_655 S
C1490 C1496 1.427 1_655 S
H1491 C1487 0.930 . S
H1492 C1489 0.929 . S
S1493 N1494 1.613 . S
S1493 N1495 1.610 1_455 S
N1494 S1493 1.613 . S
N1494 C1497 1.350 . S
N1495 S1493 1.610 1_655 S
N1495 C1496 1.351 1_655 S
C1496 C1490 1.427 1_455 S
C1496 N1495 1.351 1_455 S
C1496 C1497 1.434 . S
C1497 C1488 1.429 . S
C1497 N1494 1.350 . S
C1497 C1496 1.434 . S
C1498 C1499 1.369 . S
C1498 C1500 1.419 . S
C1498 H1502 0.930 . S
C1499 C1498 1.369 . S
C1499 C1508 1.429 . S
C1500 C1498 1.419 . S
C1500 C1501 1.361 1_565 S
C1500 H1503 0.929 1_565 S
C1501 C1500 1.361 1_545 S
C1501 C1507 1.425 1_545 S
H1502 C1498 0.930 . S
H1503 C1500 0.929 1_545 S
S1504 N1505 1.613 . S
S1504 N1506 1.610 . S
N1505 S1504 1.613 . S
N1505 C1508 1.350 . S
N1506 S1504 1.610 . S
N1506 C1507 1.351 . S
C1507 C1501 1.425 1_565 S
C1507 N1506 1.351 . S
C1507 C1508 1.434 . S
C1508 C1499 1.429 . S
C1508 N1505 1.350 . S
C1508 C1507 1.434 . S
C1509 C1510 1.363 1_655 S
C1509 C1511 1.419 . S
C1509 H1513 0.930 . S
C1510 C1509 1.363 1_455 S
C1510 C1519 1.425 1_455 S
C1511 C1509 1.419 . S
C1511 C1512 1.363 . S
C1511 H1514 0.929 . S
C1512 C1511 1.363 . S
C1512 C1518 1.428 . S
H1513 C1509 0.930 . S
H1514 C1511 0.929 . S
S1515 N1516 1.613 1_655 S
S1515 N1517 1.610 . S
N1516 S1515 1.613 1_455 S
N1516 C1519 1.350 1_455 S
N1517 S1515 1.610 . S
N1517 C1518 1.351 . S
C1518 C1512 1.428 . S
C1518 N1517 1.351 . S
C1518 C1519 1.434 . S
C1519 C1510 1.425 1_655 S
C1519 N1516 1.350 1_655 S
C1519 C1518 1.434 . S
C1520 C1521 1.369 . S
C1520 C1522 1.419 . S
C1520 H1524 0.930 . S
C1521 C1520 1.369 . S
C1521 C1530 1.429 . S
C1522 C1520 1.419 . S
C1522 C1523 1.363 . S
C1522 H1525 0.929 . S
C1523 C1522 1.363 . S
C1523 C1529 1.428 . S
H1524 C1520 0.930 . S
H1525 C1522 0.929 . S
S1526 N1527 1.613 . S
S1526 N1528 1.610 . S
N1527 S1526 1.613 . S
N1527 C1530 1.350 . S
N1528 S1526 1.610 . S
N1528 C1529 1.351 . S
C1529 C1523 1.428 . S
C1529 N1528 1.351 . S
C1529 C1530 1.434 . S
C1530 C1521 1.429 . S
C1530 N1527 1.350 . S
C1530 C1529 1.434 . S
C1531 C1532 1.369 . S
C1531 C1533 1.419 . S
C1531 H1535 0.930 . S
C1532 C1531 1.369 . S
C1532 C1541 1.429 . S
C1533 C1531 1.419 . S
C1533 C1534 1.363 . S
C1533 H1536 0.929 . S
C1534 C1533 1.363 . S
C1534 C1540 1.428 . S
H1535 C1531 0.930 . S
H1536 C1533 0.929 . S
S1537 N1538 1.613 1_554 S
S1537 N1539 1.610 . S
N1538 S1537 1.613 1_556 S
N1538 C1541 1.350 . S
N1539 S1537 1.610 . S
N1539 C1540 1.351 1_554 S
C1540 C1534 1.428 . S
C1540 N1539 1.351 1_556 S
C1540 C1541 1.434 . S
C1541 C1532 1.429 . S
C1541 N1538 1.350 . S
C1541 C1540 1.434 . S
C1542 C1543 1.369 . S
C1542 C1544 1.419 . S
C1542 H1546 0.930 . S
C1543 C1542 1.369 . S
C1543 C1552 1.429 . S
C1544 C1542 1.419 . S
C1544 C1545 1.363 . S
C1544 H1547 0.929 . S
C1545 C1544 1.363 . S
C1545 C1551 1.428 . S
H1546 C1542 0.930 . S
H1547 C1544 0.929 . S
S1548 N1549 1.613 1_556 S
S1548 N1550 1.610 1_556 S
N1549 S1548 1.613 1_554 S
N1549 C1552 1.350 . S
N1550 S1548 1.610 1_554 S
N1550 C1551 1.351 . S
C1551 C1545 1.428 . S
C1551 N1550 1.351 . S
C1551 C1552 1.434 . S
C1552 C1543 1.429 . S
C1552 N1549 1.350 . S
C1552 C1551 1.434 . S
C1553 C1554 1.369 . S
C1553 C1555 1.419 . S
C1553 H1557 0.930 . S
C1554 C1553 1.369 . S
C1554 C1563 1.429 . S
C1555 C1553 1.419 . S
C1555 C1556 1.363 . S
C1555 H1558 0.929 . S
C1556 C1555 1.363 . S
C1556 C1562 1.428 . S
H1557 C1553 0.930 . S
H1558 C1555 0.929 . S
S1559 N1560 1.613 . S
S1559 N1561 1.610 . S
N1560 S1559 1.613 . S
N1560 C1563 1.350 . S
N1561 S1559 1.610 . S
N1561 C1562 1.351 . S
C1562 C1556 1.428 . S
C1562 N1561 1.351 . S
C1562 C1563 1.434 . S
C1563 C1554 1.429 . S
C1563 N1560 1.350 . S
C1563 C1562 1.434 . S
C1564 C1565 1.369 . S
C1564 C1566 1.419 . S
C1564 H1568 0.930 . S
C1565 C1564 1.369 . S
C1565 C1574 1.429 . S
C1566 C1564 1.419 . S
C1566 C1567 1.363 . S
C1566 H1569 0.929 . S
C1567 C1566 1.363 . S
C1567 C1573 1.428 . S
H1568 C1564 0.930 . S
H1569 C1566 0.929 . S
S1570 N1571 1.613 . S
S1570 N1572 1.610 . S
N1571 S1570 1.613 . S
N1571 C1574 1.350 . S
N1572 S1570 1.610 . S
N1572 C1573 1.351 . S
C1573 C1567 1.428 . S
C1573 N1572 1.351 . S
C1573 C1574 1.434 . S
C1574 C1565 1.429 . S
C1574 N1571 1.350 . S
C1574 C1573 1.434 . S
C1575 C1576 1.369 . S
C1575 C1577 1.419 . S
C1575 H1579 0.930 . S
C1576 C1575 1.369 . S
C1576 C1585 1.429 . S
C1577 C1575 1.419 . S
C1577 C1578 1.363 . S
C1577 H1580 0.929 . S
C1578 C1577 1.363 . S
C1578 C1584 1.428 . S
H1579 C1575 0.930 . S
H1580 C1577 0.929 . S
S1581 N1582 1.613 . S
S1581 N1583 1.610 . S
N1582 S1581 1.613 . S
N1582 C1585 1.350 . S
N1583 S1581 1.610 . S
N1583 C1584 1.351 . S
C1584 C1578 1.428 . S
C1584 N1583 1.351 . S
C1584 C1585 1.434 . S
C1585 C1576 1.429 . S
C1585 N1582 1.350 . S
C1585 C1584 1.434 . S
C1586 C1587 1.369 . S
C1586 C1588 1.419 . S
C1586 H1590 0.930 . S
C1587 C1586 1.369 . S
C1587 C1596 1.429 . S
C1588 C1586 1.419 . S
C1588 C1589 1.363 . S
C1588 H1591 0.929 . S
C1589 C1588 1.363 . S
C1589 C1595 1.428 . S
H1590 C1586 0.930 . S
H1591 C1588 0.929 . S
S1592 N1593 1.613 . S
S1592 N1594 1.610 . S
N1593 S1592 1.613 . S
N1593 C1596 1.350 . S
N1594 S1592 1.610 . S
N1594 C1595 1.351 . S
C1595 C1589 1.428 . S
C1595 N1594 1.351 . S
C1595 C1596 1.434 . S
C1596 C1587 1.429 . S
C1596 N1593 1.350 . S
C1596 C1595 1.434 . S
C1597 C1598 1.369 . S
C1597 C1599 1.419 . S
C1597 H1601 0.930 . S
C1598 C1597 1.369 . S
C1598 C1607 1.429 . S
C1599 C1597 1.419 . S
C1599 C1600 1.363 . S
C1599 H1602 0.929 . S
C1600 C1599 1.363 . S
C1600 C1606 1.428 . S
H1601 C1597 0.930 . S
H1602 C1599 0.929 . S
S1603 N1604 1.613 . S
S1603 N1605 1.610 . S
N1604 S1603 1.613 . S
N1604 C1607 1.350 . S
N1605 S1603 1.610 . S
N1605 C1606 1.351 . S
C1606 C1600 1.428 . S
C1606 N1605 1.351 . S
C1606 C1607 1.434 . S
C1607 C1598 1.429 . S
C1607 N1604 1.350 . S
C1607 C1606 1.434 . S
C1608 C1609 1.369 . S
C1608 C1610 1.419 . S
C1608 H1612 0.930 . S
C1609 C1608 1.369 . S
C1609 C1618 1.429 . S
C1610 C1608 1.419 . S
C1610 C1611 1.363 . S
C1610 H1613 0.929 . S
C1611 C1610 1.363 . S
C1611 C1617 1.428 . S
H1612 C1608 0.930 . S
H1613 C1610 0.929 . S
S1614 N1615 1.613 . S
S1614 N1616 1.610 . S
N1615 S1614 1.613 . S
N1615 C1618 1.350 . S
N1616 S1614 1.610 . S
N1616 C1617 1.351 . S
C1617 C1611 1.428 . S
C1617 N1616 1.351 . S
C1617 C1618 1.434 . S
C1618 C1609 1.429 . S
C1618 N1615 1.350 . S
C1618 C1617 1.434 . S
C1619 C1620 1.369 . S
C1619 C1621 1.419 . S
C1619 H1623 0.930 . S
C1620 C1619 1.369 . S
C1620 C1629 1.429 . S
C1621 C1619 1.419 . S
C1621 C1622 1.363 . S
C1621 H1624 0.929 . S
C1622 C1621 1.363 . S
C1622 C1628 1.428 . S
H1623 C1619 0.930 . S
H1624 C1621 0.929 . S
S1625 N1626 1.613 . S
S1625 N1627 1.610 . S
N1626 S1625 1.613 . S
N1626 C1629 1.350 . S
N1627 S1625 1.610 . S
N1627 C1628 1.351 . S
C1628 C1622 1.428 . S
C1628 N1627 1.351 . S
C1628 C1629 1.434 . S
C1629 C1620 1.429 . S
C1629 N1626 1.350 . S
C1629 C1628 1.434 . S
C1630 C1631 1.369 . S
C1630 C1632 1.419 . S
C1630 H1634 0.930 . S
C1631 C1630 1.369 . S
C1631 C1640 1.429 . S
C1632 C1630 1.419 . S
C1632 C1633 1.363 . S
C1632 H1635 0.929 . S
C1633 C1632 1.363 . S
C1633 C1639 1.428 . S
H1634 C1630 0.930 . S
H1635 C1632 0.929 . S
S1636 N1637 1.613 1_545 S
S1636 N1638 1.610 1_545 S
N1637 S1636 1.613 1_565 S
N1637 C1640 1.350 . S
N1638 S1636 1.610 1_565 S
N1638 C1639 1.351 . S
C1639 C1633 1.428 . S
C1639 N1638 1.351 . S
C1639 C1640 1.434 . S
C1640 C1631 1.429 . S
C1640 N1637 1.350 . S
C1640 C1639 1.434 . S
C1641 C1642 1.369 . S
C1641 C1643 1.419 . S
C1641 H1645 0.930 . S
C1642 C1641 1.369 . S
C1642 C1651 1.429 . S
C1643 C1641 1.419 . S
C1643 C1644 1.363 . S
C1643 H1646 0.929 . S
C1644 C1643 1.363 . S
C1644 C1650 1.428 . S
H1645 C1641 0.930 . S
H1646 C1643 0.929 . S
S1647 N1648 1.613 . S
S1647 N1649 1.610 . S
N1648 S1647 1.613 . S
N1648 C1651 1.350 . S
N1649 S1647 1.610 . S
N1649 C1650 1.351 . S
C1650 C1644 1.428 . S
C1650 N1649 1.351 . S
C1650 C1651 1.434 . S
C1651 C1642 1.429 . S
C1651 N1648 1.350 . S
C1651 C1650 1.434 . S
C1652 C1653 1.369 . S
C1652 C1654 1.419 . S
C1652 H1656 0.930 . S
C1653 C1652 1.369 . S
C1653 C1662 1.429 . S
C1654 C1652 1.419 . S
C1654 C1655 1.363 . S
C1654 H1657 0.929 . S
C1655 C1654 1.363 . S
C1655 C1661 1.428 . S
H1656 C1652 0.930 . S
H1657 C1654 0.929 . S
S1658 N1659 1.613 . S
S1658 N1660 1.610 . S
N1659 S1658 1.613 . S
N1659 C1662 1.350 . S
N1660 S1658 1.610 . S
N1660 C1661 1.351 . S
C1661 C1655 1.428 . S
C1661 N1660 1.351 . S
C1661 C1662 1.434 . S
C1662 C1653 1.429 . S
C1662 N1659 1.350 . S
C1662 C1661 1.434 . S
C1663 C1664 1.369 . S
C1663 C1665 1.419 . S
C1663 H1667 0.930 . S
C1664 C1663 1.369 . S
C1664 C1673 1.429 . S
C1665 C1663 1.419 . S
C1665 C1666 1.363 . S
C1665 H1668 0.929 . S
C1666 C1665 1.363 . S
C1666 C1672 1.428 . S
H1667 C1663 0.930 . S
H1668 C1665 0.929 . S
S1669 N1670 1.613 . S
S1669 N1671 1.610 . S
N1670 S1669 1.613 . S
N1670 C1673 1.350 . S
N1671 S1669 1.610 . S
N1671 C1672 1.351 . S
C1672 C1666 1.428 . S
C1672 N1671 1.351 . S
C1672 C1673 1.434 . S
C1673 C1664 1.429 . S
C1673 N1670 1.350 . S
C1673 C1672 1.434 . S
C1674 C1675 1.369 . S
C1674 C1676 1.419 . S
C1674 H1678 0.930 . S
C1675 C1674 1.369 . S
C1675 C1684 1.429 . S
C1676 C1674 1.419 . S
C1676 C1677 1.363 . S
C1676 H1679 0.929 . S
C1677 C1676 1.363 . S
C1677 C1683 1.428 . S
H1678 C1674 0.930 . S
H1679 C1676 0.929 . S
S1680 N1681 1.613 . S
S1680 N1682 1.610 . S
N1681 S1680 1.613 . S
N1681 C1684 1.350 . S
N1682 S1680 1.610 . S
N1682 C1683 1.351 . S
C1683 C1677 1.428 . S
C1683 N1682 1.351 . S
C1683 C1684 1.434 . S
C1684 C1675 1.429 . S
C1684 N1681 1.350 . S
C1684 C1683 1.434 . S
C1685 C1686 1.369 . S
C1685 C1687 1.419 . S
C1685 H1689 0.930 . S
C1686 C1685 1.369 . S
C1686 C1695 1.429 . S
C1687 C1685 1.419 . S
C1687 C1688 1.363 . S
C1687 H1690 0.929 . S
C1688 C1687 1.363 . S
C1688 C1694 1.428 . S
H1689 C1685 0.930 . S
H1690 C1687 0.929 . S
S1691 N1692 1.613 . S
S1691 N1693 1.610 . S
N1692 S1691 1.613 . S
N1692 C1695 1.350 . S
N1693 S1691 1.610 . S
N1693 C1694 1.351 . S
C1694 C1688 1.428 . S
C1694 N1693 1.351 . S
C1694 C1695 1.434 . S
C1695 C1686 1.429 . S
C1695 N1692 1.350 . S
C1695 C1694 1.434 . S
C1696 C1697 1.369 . S
C1696 C1698 1.419 . S
C1696 H1700 0.930 . S
C1697 C1696 1.369 . S
C1697 C1706 1.429 . S
C1698 C1696 1.419 . S
C1698 C1699 1.363 . S
C1698 H1701 0.929 . S
C1699 C1698 1.363 . S
C1699 C1705 1.428 . S
H1700 C1696 0.930 . S
H1701 C1698 0.929 . S
S1702 N1703 1.613 . S
S1702 N1704 1.610 . S
N1703 S1702 1.613 . S
N1703 C1706 1.350 . S
N1704 S1702 1.610 . S
N1704 C1705 1.351 . S
C1705 C1699 1.428 . S
C1705 N1704 1.351 . S
C1705 C1706 1.434 . S
C1706 C1697 1.429 . S
C1706 N1703 1.350 . S
C1706 C1705 1.434 . S
C1707 C1708 1.369 . S
C1707 C1709 1.419 . S
C1707 H1711 0.930 . S
C1708 C1707 1.369 . S
C1708 C1717 1.429 . S
C1709 C1707 1.419 . S
C1709 C1710 1.363 . S
C1709 H1712 0.929 . S
C1710 C1709 1.363 . S
C1710 C1716 1.428 . S
H1711 C1707 0.930 . S
H1712 C1709 0.929 . S
S1713 N1714 1.613 . S
S1713 N1715 1.610 . S
N1714 S1713 1.613 . S
N1714 C1717 1.350 . S
N1715 S1713 1.610 . S
N1715 C1716 1.351 . S
C1716 C1710 1.428 . S
C1716 N1715 1.351 . S
C1716 C1717 1.434 . S
C1717 C1708 1.429 . S
C1717 N1714 1.350 . S
C1717 C1716 1.434 . S
C1718 C1719 1.369 . S
C1718 C1720 1.419 . S
C1718 H1722 0.930 . S
C1719 C1718 1.369 . S
C1719 C1728 1.429 . S
C1720 C1718 1.419 . S
C1720 C1721 1.363 . S
C1720 H1723 0.929 . S
C1721 C1720 1.363 . S
C1721 C1727 1.428 . S
H1722 C1718 0.930 . S
H1723 C1720 0.929 . S
S1724 N1725 1.613 . S
S1724 N1726 1.610 . S
N1725 S1724 1.613 . S
N1725 C1728 1.350 . S
N1726 S1724 1.610 . S
N1726 C1727 1.351 . S
C1727 C1721 1.428 . S
C1727 N1726 1.351 . S
C1727 C1728 1.434 . S
C1728 C1719 1.429 . S
C1728 N1725 1.350 . S
C1728 C1727 1.434 . S
C1729 C1730 1.369 . S
C1729 C1731 1.419 . S
C1729 H1733 0.930 . S
C1730 C1729 1.369 . S
C1730 C1739 1.429 . S
C1731 C1729 1.419 . S
C1731 C1732 1.363 . S
C1731 H1734 0.929 . S
C1732 C1731 1.363 . S
C1732 C1738 1.428 . S
H1733 C1729 0.930 . S
H1734 C1731 0.929 . S
S1735 N1736 1.613 . S
S1735 N1737 1.610 . S
N1736 S1735 1.613 . S
N1736 C1739 1.350 . S
N1737 S1735 1.610 . S
N1737 C1738 1.351 . S
C1738 C1732 1.428 . S
C1738 N1737 1.351 . S
C1738 C1739 1.434 . S
C1739 C1730 1.429 . S
C1739 N1736 1.350 . S
C1739 C1738 1.434 . S
C1740 C1741 1.369 . S
C1740 C1742 1.419 . S
C1740 H1744 0.930 . S
C1741 C1740 1.369 . S
C1741 C1750 1.429 . S
C1742 C1740 1.419 . S
C1742 C1743 1.363 . S
C1742 H1745 0.929 . S
C1743 C1742 1.363 . S
C1743 C1749 1.428 . S
H1744 C1740 0.930 . S
H1745 C1742 0.929 . S
S1746 N1747 1.613 . S
S1746 N1748 1.610 . S
N1747 S1746 1.613 . S
N1747 C1750 1.350 . S
N1748 S1746 1.610 . S
N1748 C1749 1.351 . S
C1749 C1743 1.428 . S
C1749 N1748 1.351 . S
C1749 C1750 1.434 . S
C1750 C1741 1.429 . S
C1750 N1747 1.350 . S
C1750 C1749 1.434 . S
C1751 C1752 1.369 . S
C1751 C1753 1.419 . S
C1751 H1755 0.930 . S
C1752 C1751 1.369 . S
C1752 C1761 1.429 . S
C1753 C1751 1.419 . S
C1753 C1754 1.363 . S
C1753 H1756 0.929 . S
C1754 C1753 1.363 . S
C1754 C1760 1.428 . S
H1755 C1751 0.930 . S
H1756 C1753 0.929 . S
S1757 N1758 1.613 . S
S1757 N1759 1.610 . S
N1758 S1757 1.613 . S
N1758 C1761 1.350 . S
N1759 S1757 1.610 . S
N1759 C1760 1.351 . S
C1760 C1754 1.428 . S
C1760 N1759 1.351 . S
C1760 C1761 1.434 . S
C1761 C1752 1.429 . S
C1761 N1758 1.350 . S
C1761 C1760 1.434 . S
C1762 C1763 1.369 . S
C1762 C1764 1.419 . S
C1762 H1766 0.930 . S
C1763 C1762 1.369 . S
C1763 C1772 1.429 . S
C1764 C1762 1.419 . S
C1764 C1765 1.363 . S
C1764 H1767 0.929 . S
C1765 C1764 1.363 . S
C1765 C1771 1.428 . S
H1766 C1762 0.930 . S
H1767 C1764 0.929 . S
S1768 N1769 1.613 . S
S1768 N1770 1.610 . S
N1769 S1768 1.613 . S
N1769 C1772 1.350 . S
N1770 S1768 1.610 . S
N1770 C1771 1.351 . S
C1771 C1765 1.428 . S
C1771 N1770 1.351 . S
C1771 C1772 1.434 . S
C1772 C1763 1.429 . S
C1772 N1769 1.350 . S
C1772 C1771 1.434 . S
C1773 C1774 1.369 . S
C1773 C1775 1.419 . S
C1773 H1777 0.930 . S
C1774 C1773 1.369 . S
C1774 C1783 1.429 . S
C1775 C1773 1.419 . S
C1775 C1776 1.363 . S
C1775 H1778 0.929 . S
C1776 C1775 1.363 . S
C1776 C1782 1.428 . S
H1777 C1773 0.930 . S
H1778 C1775 0.929 . S
S1779 N1780 1.613 . S
S1779 N1781 1.610 . S
N1780 S1779 1.613 . S
N1780 C1783 1.350 . S
N1781 S1779 1.610 . S
N1781 C1782 1.351 . S
C1782 C1776 1.428 . S
C1782 N1781 1.351 . S
C1782 C1783 1.434 . S
C1783 C1774 1.429 . S
C1783 N1780 1.350 . S
C1783 C1782 1.434 . S
C1784 C1785 1.369 . S
C1784 C1786 1.419 . S
C1784 H1788 0.930 . S
C1785 C1784 1.369 . S
C1785 C1794 1.429 . S
C1786 C1784 1.419 . S
C1786 C1787 1.363 . S
C1786 H1789 0.929 . S
C1787 C1786 1.363 . S
C1787 C1793 1.428 . S
H1788 C1784 0.930 . S
H1789 C1786 0.929 . S
S1790 N1791 1.613 . S
S1790 N1792 1.610 . S
N1791 S1790 1.613 . S
N1791 C1794 1.350 . S
N1792 S1790 1.610 . S
N1792 C1793 1.351 . S
C1793 C1787 1.428 . S
C1793 N1792 1.351 . S
C1793 C1794 1.434 . S
C1794 C1785 1.429 . S
C1794 N1791 1.350 . S
C1794 C1793 1.434 . S
C1795 C1796 1.369 . S
C1795 C1797 1.419 . S
C1795 H1799 0.930 . S
C1796 C1795 1.369 . S
C1796 C1805 1.429 . S
C1797 C1795 1.419 . S
C1797 C1798 1.363 . S
C1797 H1800 0.929 . S
C1798 C1797 1.363 . S
C1798 C1804 1.428 . S
H1799 C1795 0.930 . S
H1800 C1797 0.929 . S
S1801 N1802 1.613 . S
S1801 N1803 1.610 . S
N1802 S1801 1.613 . S
N1802 C1805 1.350 . S
N1803 S1801 1.610 . S
N1803 C1804 1.351 . S
C1804 C1798 1.428 . S
C1804 N1803 1.351 . S
C1804 C1805 1.434 . S
C1805 C1796 1.429 . S
C1805 N1802 1.350 . S
C1805 C1804 1.434 . S
C1806 C1807 1.369 . S
C1806 C1808 1.419 . S
C1806 H1810 0.930 . S
C1807 C1806 1.369 . S
C1807 C1816 1.429 . S
C1808 C1806 1.419 . S
C1808 C1809 1.363 . S
C1808 H1811 0.929 . S
C1809 C1808 1.363 . S
C1809 C1815 1.428 . S
H1810 C1806 0.930 . S
H1811 C1808 0.929 . S
S1812 N1813 1.613 . S
S1812 N1814 1.610 . S
N1813 S1812 1.613 . S
N1813 C1816 1.350 . S
N1814 S1812 1.610 . S
N1814 C1815 1.351 . S
C1815 C1809 1.428 . S
C1815 N1814 1.351 . S
C1815 C1816 1.434 . S
C1816 C1807 1.429 . S
C1816 N1813 1.350 . S
C1816 C1815 1.434 . S
C1817 C1818 1.369 . S
C1817 C1819 1.419 . S
C1817 H1821 0.930 . S
C1818 C1817 1.369 . S
C1818 C1827 1.429 . S
C1819 C1817 1.419 . S
C1819 C1820 1.363 . S
C1819 H1822 0.929 . S
C1820 C1819 1.363 . S
C1820 C1826 1.428 . S
H1821 C1817 0.930 . S
H1822 C1819 0.929 . S
S1823 N1824 1.613 . S
S1823 N1825 1.610 . S
N1824 S1823 1.613 . S
N1824 C1827 1.350 . S
N1825 S1823 1.610 . S
N1825 C1826 1.351 . S
C1826 C1820 1.428 . S
C1826 N1825 1.351 . S
C1826 C1827 1.434 . S
C1827 C1818 1.429 . S
C1827 N1824 1.350 . S
C1827 C1826 1.434 . S
C1828 C1829 1.369 . S
C1828 C1830 1.419 . S
C1828 H1832 0.930 . S
C1829 C1828 1.369 . S
C1829 C1838 1.429 . S
C1830 C1828 1.419 . S
C1830 C1831 1.363 . S
C1830 H1833 0.929 . S
C1831 C1830 1.363 . S
C1831 C1837 1.428 . S
H1832 C1828 0.930 . S
H1833 C1830 0.929 . S
S1834 N1835 1.613 . S
S1834 N1836 1.610 . S
N1835 S1834 1.613 . S
N1835 C1838 1.350 . S
N1836 S1834 1.610 . S
N1836 C1837 1.351 . S
C1837 C1831 1.428 . S
C1837 N1836 1.351 . S
C1837 C1838 1.434 . S
C1838 C1829 1.429 . S
C1838 N1835 1.350 . S
C1838 C1837 1.434 . S
C1839 C1840 1.369 . S
C1839 C1841 1.419 . S
C1839 H1843 0.930 . S
C1840 C1839 1.369 . S
C1840 C1849 1.429 . S
C1841 C1839 1.419 . S
C1841 C1842 1.363 . S
C1841 H1844 0.929 . S
C1842 C1841 1.363 . S
C1842 C1848 1.428 . S
H1843 C1839 0.930 . S
H1844 C1841 0.929 . S
S1845 N1846 1.613 . S
S1845 N1847 1.610 . S
N1846 S1845 1.613 . S
N1846 C1849 1.350 . S
N1847 S1845 1.610 . S
N1847 C1848 1.351 . S
C1848 C1842 1.428 . S
C1848 N1847 1.351 . S
C1848 C1849 1.434 . S
C1849 C1840 1.429 . S
C1849 N1846 1.350 . S
C1849 C1848 1.434 . S
C1850 C1851 1.369 . S
C1850 C1852 1.419 . S
C1850 H1854 0.930 . S
C1851 C1850 1.369 . S
C1851 C1860 1.429 . S
C1852 C1850 1.419 . S
C1852 C1853 1.363 . S
C1852 H1855 0.929 . S
C1853 C1852 1.363 . S
C1853 C1859 1.428 . S
H1854 C1850 0.930 . S
H1855 C1852 0.929 . S
S1856 N1857 1.613 . S
S1856 N1858 1.610 . S
N1857 S1856 1.613 . S
N1857 C1860 1.350 . S
N1858 S1856 1.610 . S
N1858 C1859 1.351 . S
C1859 C1853 1.428 . S
C1859 N1858 1.351 . S
C1859 C1860 1.434 . S
C1860 C1851 1.429 . S
C1860 N1857 1.350 . S
C1860 C1859 1.434 . S
C1861 C1862 1.369 . S
C1861 C1863 1.419 . S
C1861 H1865 0.930 . S
C1862 C1861 1.369 . S
C1862 C1871 1.429 . S
C1863 C1861 1.419 . S
C1863 C1864 1.363 . S
C1863 H1866 0.929 . S
C1864 C1863 1.363 . S
C1864 C1870 1.428 . S
H1865 C1861 0.930 . S
H1866 C1863 0.929 . S
S1867 N1868 1.613 . S
S1867 N1869 1.610 . S
N1868 S1867 1.613 . S
N1868 C1871 1.350 . S
N1869 S1867 1.610 . S
N1869 C1870 1.351 . S
C1870 C1864 1.428 . S
C1870 N1869 1.351 . S
C1870 C1871 1.434 . S
C1871 C1862 1.429 . S
C1871 N1868 1.350 . S
C1871 C1870 1.434 . S
C1345 C979 1.694 . S
C1347 C56 1.684 . S
C1356 C739 1.693 . S
C1358 C152 1.693 . S
C1367 C224 1.686 . S
C1369 C811 1.694 . S
C1378 C320 1.683 . S
C1380 C907 1.694 . S
C1389 C392 1.685 . S
C1391 C475 1.693 . S
C1400 C571 1.693 . S
C1402 C488 1.685 . S
C1411 C560 1.683 . S
C1413 C643 1.694 . S
C1422 C403 1.693 . S
C1424 C656 1.686 . S
C1433 C307 1.693 . S
C1435 C728 1.683 . S
C1444 C824 1.686 . S
C1446 C67 1.694 . S
C1455 C139 1.694 . S
C1457 C896 1.683 . S
C1466 C235 1.694 . S
C1468 C992 1.683 . S
C1477 C1064 1.686 . S
C1479 C1147 1.694 . S
C1488 C1243 1.693 . S
C1490 C1160 1.689 . S
C1499 C1315 1.693 . S
C1501 C1232 1.688 . S
C1510 C1328 1.692 . S
C1512 C1075 1.693 . S
C1521 C68 1.379 . S
C1523 C404 1.390 . S
C1532 C476 1.377 . S
C1534 C140 1.390 . S
C1543 C236 1.389 . S
C1545 C572 1.379 . S
C1554 C308 1.391 . S
C1556 C644 1.379 . S
C1565 C740 1.377 . S
C1567 C1076 1.391 . S
C1576 C1148 1.376 . S
C1578 C812 1.391 . S
C1587 C908 1.383 . S
C1589 C1244 1.387 . S
C1598 C980 1.386 . S
C1600 C1316 1.384 . S
C1609 C1231 2.408 . S
C1611 C55 2.406 1_556 S
C1620 C151 2.409 1_554 S
C1622 C1327 2.403 . S
C1631 C223 2.405 1_556 S
C1633 C1063 2.408 . S
C1642 C319 2.404 1_554 S
C1644 C1159 2.409 . S
C1653 C391 2.404 . S
C1655 C895 2.405 . S
C1664 C487 2.410 . S
C1666 C991 2.403 . S
C1675 C559 2.410 . S
C1677 C727 2.405 . S
C1686 C823 2.409 . S
C1688 C655 2.403 . S
C1697 C70 1.194 . S
C1699 C58 1.208 . S
C1708 C142 1.207 . S
C1710 C154 1.199 . S
C1719 C238 1.191 . S
C1721 C226 1.210 . S
C1730 C322 1.210 . S
C1732 C310 1.196 . S
C1741 C394 1.197 . S
C1743 C406 1.205 . S
C1752 C478 1.200 . S
C1754 C490 1.204 . S
C1763 C574 1.201 . S
C1765 C562 1.204 . S
C1774 C658 1.203 . S
C1776 C646 1.202 . S
C1785 C742 1.197 . S
C1787 C730 1.207 . S
C1796 C826 1.194 . S
C1798 C814 1.209 . S
C1807 C898 1.207 . S
C1809 C910 1.198 . S
C1818 C982 1.192 . S
C1820 C994 1.210 . S
C1829 C1078 1.208 . S
C1831 C1066 1.198 . S
C1840 C1162 1.207 . S
C1842 C1150 1.199 . S
C1851 C1234 1.213 . S
C1853 C1246 1.194 . S
C1862 C1318 1.205 . S
C1864 C1330 1.201 . S
