# Generated by pormake.
# Topology uoq, (4)-cn, num edge types: 1
# Building blocks:
#     Node 0, Type 0, BuildingBlock: NAHDIM_clean_sbu_0, # of connection points: 4
#     Node 1, Type 0, BuildingBlock: NAHDIM_clean_sbu_0, # of connection points: 4
#     Node 2, Type 0, BuildingBlock: NAHDIM_clean_sbu_0, # of connection points: 4
#     Node 3, Type 0, BuildingBlock: NAHDIM_clean_sbu_0, # of connection points: 4
#     Node 4, Type 0, BuildingBlock: NAHDIM_clean_sbu_0, # of connection points: 4
#     Node 5, Type 0, BuildingBlock: NAHDIM_clean_sbu_0, # of connection points: 4
#     Node 6, Type 0, BuildingBlock: NAHDIM_clean_sbu_0, # of connection points: 4
#     Node 7, Type 0, BuildingBlock: NAHDIM_clean_sbu_0, # of connection points: 4
#     Node 8, Type 0, BuildingBlock: NAHDIM_clean_sbu_0, # of connection points: 4
#     Node 9, Type 0, BuildingBlock: NAHDIM_clean_sbu_0, # of connection points: 4
#     Node 10, Type 0, BuildingBlock: NAHDIM_clean_sbu_0, # of connection points: 4
#     Node 11, Type 0, BuildingBlock: NAHDIM_clean_sbu_0, # of connection points: 4
#     Edge 12, Type (0, 0), BuildingBlock: CIFDUS_clean_linker_0, # of connection points: 2
#     Edge 13, Type (0, 0), BuildingBlock: CIFDUS_clean_linker_0, # of connection points: 2
#     Edge 14, Type (0, 0), BuildingBlock: CIFDUS_clean_linker_0, # of connection points: 2
#     Edge 15, Type (0, 0), BuildingBlock: CIFDUS_clean_linker_0, # of connection points: 2
#     Edge 16, Type (0, 0), BuildingBlock: CIFDUS_clean_linker_0, # of connection points: 2
#     Edge 17, Type (0, 0), BuildingBlock: CIFDUS_clean_linker_0, # of connection points: 2
#     Edge 18, Type (0, 0), BuildingBlock: CIFDUS_clean_linker_0, # of connection points: 2
#     Edge 19, Type (0, 0), BuildingBlock: CIFDUS_clean_linker_0, # of connection points: 2
#     Edge 20, Type (0, 0), BuildingBlock: CIFDUS_clean_linker_0, # of connection points: 2
#     Edge 21, Type (0, 0), BuildingBlock: CIFDUS_clean_linker_0, # of connection points: 2
#     Edge 22, Type (0, 0), BuildingBlock: CIFDUS_clean_linker_0, # of connection points: 2
#     Edge 23, Type (0, 0), BuildingBlock: CIFDUS_clean_linker_0, # of connection points: 2
#     Edge 24, Type (0, 0), BuildingBlock: CIFDUS_clean_linker_0, # of connection points: 2
#     Edge 25, Type (0, 0), BuildingBlock: CIFDUS_clean_linker_0, # of connection points: 2
#     Edge 26, Type (0, 0), BuildingBlock: CIFDUS_clean_linker_0, # of connection points: 2
#     Edge 27, Type (0, 0), BuildingBlock: CIFDUS_clean_linker_0, # of connection points: 2
#     Edge 28, Type (0, 0), BuildingBlock: CIFDUS_clean_linker_0, # of connection points: 2
#     Edge 29, Type (0, 0), BuildingBlock: CIFDUS_clean_linker_0, # of connection points: 2
#     Edge 30, Type (0, 0), BuildingBlock: CIFDUS_clean_linker_0, # of connection points: 2
#     Edge 31, Type (0, 0), BuildingBlock: CIFDUS_clean_linker_0, # of connection points: 2
#     Edge 32, Type (0, 0), BuildingBlock: CIFDUS_clean_linker_0, # of connection points: 2
#     Edge 33, Type (0, 0), BuildingBlock: CIFDUS_clean_linker_0, # of connection points: 2
#     Edge 34, Type (0, 0), BuildingBlock: CIFDUS_clean_linker_0, # of connection points: 2
#     Edge 35, Type (0, 0), BuildingBlock: CIFDUS_clean_linker_0, # of connection points: 2
# Relax obj value: 0.068
# Max RMSD: 0.071
# Mean RMSD: 0.071
data_MOF--net-uoq--node1-NAHDIM_clean_sbu_0--edge1-CIFDUS_clean_linker_0
_symmetry_space_group_name_H-M    P1
_symmetry_Int_Tables_number       1
_symmetry_cell_setting            triclinic
loop_
_symmetry_equiv_pos_as_xyz
'x, y, z'
_cell_length_a     51.413723
_cell_length_b     51.332761
_cell_length_c     20.995364
_cell_angle_alpha  90.165619
_cell_angle_beta   89.867622
_cell_angle_gamma 120.06828
loop_
_atom_site_label
_atom_site_type_symbol
_atom_site_fract_x
_atom_site_fract_y
_atom_site_fract_z
_atom_type_partial_charge
C0 C 0.25756 0.44667 0.15384 0.0
O1 O 0.23881 0.42919 0.19796 0.0
O2 O 0.33863 0.50117 0.27008 0.0
Zn3 Zn 0.30219 0.46088 0.25244 0.0
O4 O 0.2716 0.45255 0.3216 0.0
C5 C 0.31952 0.42067 0.30733 0.0
O6 O 0.31403 0.43077 0.3602 0.0
O7 O 0.28547 0.46183 0.1664 0.0
C8 C 0.28051 0.46573 0.37512 0.0
O9 O 0.30933 0.48436 0.38401 0.0
C10 C 0.34119 0.52612 0.25335 0.0
O11 O 0.31977 0.52626 0.21962 0.0
O12 O 0.31526 0.42977 0.2542 0.0
C13 C 0.82134 0.27967 0.43924 0.0
O14 O 0.82686 0.30754 0.43606 0.0
O15 O 0.84072 0.33332 0.56956 0.0
Zn16 Zn 0.84652 0.29714 0.56733 0.0
O17 O 0.82597 0.27116 0.64365 0.0
C18 C 0.90219 0.32988 0.62579 0.0
O19 O 0.88452 0.33542 0.66157 0.0
O20 O 0.82888 0.27105 0.48901 0.0
C21 C 0.81747 0.28043 0.69116 0.0
O22 O 0.82185 0.30791 0.69108 0.0
C23 C 0.81595 0.33313 0.56589 0.0
O24 O 0.79107 0.30769 0.55437 0.0
O25 O 0.89099 0.31281 0.5775 0.0
C26 C 0.58104 0.81575 0.84198 0.0
O27 O 0.59572 0.81524 0.89265 0.0
O28 O 0.51622 0.83656 0.93448 0.0
Zn29 Zn 0.55844 0.84313 0.93029 0.0
O30 O 0.56273 0.81919 0.00055 0.0
C31 C 0.58786 0.90782 0.91427 0.0
O32 O 0.56814 0.90059 0.86818 0.0
O33 O 0.56455 0.82768 0.84604 0.0
C34 C 0.57159 0.83039 0.05567 0.0
O35 O 0.57789 0.85814 0.06693 0.0
C36 C 0.5093 0.85049 0.97519 0.0
O37 O 0.53018 0.86985 0.01377 0.0
O38 O 0.58858 0.88699 0.94521 0.0
C39 C 0.70598 0.53029 0.12051 0.0
O40 O 0.67664 0.51351 0.12555 0.0
O41 O 0.66679 0.50331 0.27204 0.0
Zn42 Zn 0.70215 0.54451 0.25341 0.0
O43 O 0.73264 0.55302 0.32104 0.0
C44 C 0.66042 0.5658 0.25905 0.0
O45 O 0.64221 0.53793 0.24088 0.0
O46 O 0.72102 0.5459 0.16807 0.0
C47 C 0.72545 0.55418 0.37844 0.0
O48 O 0.69871 0.5504 0.39079 0.0
C49 C 0.66878 0.48064 0.28912 0.0
O50 O 0.69534 0.48283 0.29144 0.0
O51 O 0.68838 0.57504 0.26328 0.0
C52 C 0.18856 0.74058 0.48667 0.0
O53 O 0.20412 0.73737 0.53243 0.0
O54 O 0.14819 0.66764 0.57197 0.0
Zn55 Zn 0.14422 0.70486 0.57515 0.0
O56 O 0.16965 0.73168 0.64702 0.0
C57 C 0.08978 0.67429 0.64203 0.0
O58 O 0.1081 0.66965 0.67741 0.0
O59 O 0.16015 0.72792 0.49277 0.0
C60 C 0.1607 0.74333 0.68893 0.0
O61 O 0.13313 0.73855 0.68646 0.0
C62 C 0.15911 0.66013 0.61797 0.0
O63 O 0.1698 0.67796 0.66777 0.0
O64 O 0.10014 0.69031 0.5921 0.0
C65 C 0.43293 0.17653 0.84057 0.0
O66 O 0.42839 0.1888 0.89121 0.0
O67 O 0.4866 0.14771 0.93928 0.0
Zn68 Zn 0.4465 0.14523 0.93669 0.0
O69 O 0.44931 0.1762 -0.0008 0.0
C70 C 0.42311 0.09682 0.02016 0.0
O71 O 0.44688 0.11761 0.05038 0.0
O72 O 0.43935 0.15577 0.84783 0.0
C73 C 0.42946 0.17246 0.03998 0.0
O74 O 0.40441 0.14642 0.04342 0.0
C75 C 0.5104 0.16936 0.91587 0.0
O76 O 0.50896 0.1909 0.88529 0.0
O77 O 0.41642 0.10334 0.96645 0.0
C78 C 0.55572 0.7292 0.51035 0.0
O79 O 0.53948 0.72893 0.46187 0.0
O80 O 0.51343 0.659 0.42254 0.0
Zn81 Zn 0.55815 0.68856 0.42584 0.0
O82 O 0.56841 0.71714 0.35294 0.0
C83 C 0.56537 0.63791 0.39644 0.0
O84 O 0.53597 0.62499 0.39508 0.0
O85 O 0.56763 0.71264 0.5077 0.0
C86 C 0.56667 0.70823 0.2958 0.0
O87 O 0.55913 0.6801 0.2848 0.0
C88 C 0.49472 0.66133 0.38696 0.0
O89 O 0.5036 0.686 0.3537 0.0
O90 O 0.58073 0.66557 0.41225 0.0
C91 C 0.81222 0.53737 0.83384 0.0
O92 O 0.79634 0.52397 0.78278 0.0
O93 O 0.85546 0.5081 0.72962 0.0
Zn94 Zn 0.85931 0.54868 0.74656 0.0
O95 O 0.83794 0.55687 0.67696 0.0
C96 C 0.92231 0.57703 0.77443 0.0
O97 O 0.91261 0.55502 0.81603 0.0
O98 O 0.84071 0.54967 0.83104 0.0
C99 C 0.84734 0.55993 0.61998 0.0
O100 O 0.87176 0.55864 0.60789 0.0
C101 C 0.83377 0.48741 0.69819 0.0
O102 O 0.81177 0.49154 0.67922 0.0
O103 O 0.90329 0.57977 0.74097 0.0
C104 C 0.29817 0.83856 0.20357 0.0
O105 O 0.32759 0.85144 0.20108 0.0
O106 O 0.34597 0.85883 0.06824 0.0
Zn107 Zn 0.30583 0.85732 0.07169 0.0
O108 O 0.27959 0.83343 0.99847 0.0
C109 C 0.33373 0.92113 0.09442 0.0
O110 O 0.34726 0.91497 0.14006 0.0
O111 O 0.284 0.8388 0.15424 0.0
C112 C 0.28972 0.838 0.94188 0.0
O113 O 0.31807 0.85796 0.93147 0.0
C114 C 0.35073 0.83922 0.04207 0.0
O115 O 0.32819 0.8152 0.0162 0.0
O116 O 0.31408 0.89971 0.06084 0.0
C117 C 0.44586 0.27136 0.52904 0.0
O118 O 0.45046 0.25958 0.47761 0.0
O119 O 0.48573 0.34887 0.41956 0.0
Zn120 Zn 0.44488 0.3129 0.4378 0.0
O121 O 0.43383 0.28107 0.37036 0.0
C122 C 0.40759 0.33334 0.382 0.0
O123 O 0.41914 0.32924 0.3297 0.0
O124 O 0.4435 0.29479 0.52389 0.0
C125 C 0.44649 0.28677 0.31613 0.0
O126 O 0.46727 0.31448 0.30251 0.0
C127 C 0.51007 0.34833 0.41335 0.0
O128 O 0.50983 0.32285 0.4216 0.0
O129 O 0.41494 0.32733 0.43543 0.0
C130 C 0.17266 0.44952 0.83785 0.0
O131 O 0.19168 0.46848 0.79588 0.0
O132 O 0.14195 0.48744 0.73909 0.0
Zn133 Zn 0.13261 0.44444 0.74016 0.0
O134 O 0.15707 0.44014 0.67088 0.0
C135 C 0.07009 0.42098 0.75808 0.0
O136 O 0.08052 0.44086 0.80451 0.0
O137 O 0.14477 0.4356 0.82479 0.0
C138 C 0.14658 0.42688 0.61806 0.0
O139 O 0.11752 0.4136 0.60753 0.0
C140 C 0.13868 0.49816 0.68718 0.0
O141 O 0.12894 0.48068 0.63669 0.0
O142 O 0.08853 0.41757 0.72375 0.0
C143 C 0.72164 0.18266 0.14331 0.0
O144 O 0.71368 0.1931 0.09459 0.0
O145 O 0.65586 0.13943 0.05231 0.0
Zn146 Zn 0.69317 0.13571 0.05985 0.0
O147 O 0.72149 0.16029 0.99032 0.0
C148 C 0.66693 0.08392 0.98932 0.0
O149 O 0.66553 0.10436 0.9543 0.0
O150 O 0.7145 0.15503 0.14279 0.0
C151 C 0.73818 0.15406 0.95662 0.0
O152 O 0.7382 0.12879 0.9662 0.0
C153 C 0.65359 0.15631 0.01108 0.0
O154 O 0.67654 0.17297 0.97381 0.0
O155 O 0.67965 0.09176 0.04359 0.0
H156 H 0.3325 0.39901 0.41304 0.0
H157 H 0.33715 0.39859 0.20768 0.0
H158 H 0.36342 0.37006 0.21285 0.0
H159 H 0.38762 0.3479 0.27571 0.0
H160 H 0.38354 0.349 0.4811 0.0
H161 H 0.35433 0.37452 0.47571 0.0
C162 C 0.33904 0.39251 0.36932 0.0
C163 C 0.33305 0.40115 0.31007 0.0
C164 C 0.35437 0.37636 0.37263 0.0
C165 C 0.34157 0.39236 0.25395 0.0
C166 C 0.35665 0.37609 0.25685 0.0
C167 C 0.3802 0.35355 0.31935 0.0
C168 C 0.38799 0.34675 0.37873 0.0
C169 C 0.36359 0.3684 0.31595 0.0
C170 C 0.37799 0.35406 0.43475 0.0
C171 C 0.36131 0.3687 0.43173 0.0
H172 H 0.93034 0.36493 0.72782 0.0
H173 H 0.94642 0.32576 0.56079 0.0
H174 H -0.0002 0.34971 0.58824 0.0
H175 H 0.04198 0.38281 0.65858 0.0
H176 H 0.0251 0.42195 0.8248 0.0
H177 H 0.97179 0.39676 0.79868 0.0
C178 C 0.94544 0.36153 0.6973 0.0
C179 C 0.9344 0.34366 0.64217 0.0
C180 C 0.97594 0.37535 0.71326 0.0
C181 C 0.95434 0.33946 0.60343 0.0
C182 C 0.98485 0.35314 0.61912 0.0
C183 C 0.02661 0.38569 0.6893 0.0
C184 C 0.03757 0.40431 0.74355 0.0
C185 C 0.99592 0.37127 0.67378 0.0
C186 C 0.01734 0.40782 0.78273 0.0
C187 C 0.98682 0.39345 0.76782 0.0
H188 H 0.59408 0.95748 0.85482 0.0
H189 H 0.62402 0.92963 0.01946 0.0
H190 H 0.65193 0.98171 0.05694 0.0
H191 H 0.66601 0.03515 0.04525 0.0
H192 H 0.63575 0.06205 0.87938 0.0
H193 H 0.60997 0.01055 0.84049 0.0
C194 C 0.60684 0.96277 0.89872 0.0
C195 C 0.60679 0.93964 0.93432 0.0
C196 C 0.62274 0.9927 0.92013 0.0
C197 C 0.62364 0.947 0.99097 0.0
C198 C 0.63955 0.97679 0.01262 0.0
C199 C 0.65388 0.02973 0.00051 0.0
C200 C 0.65271 0.0525 0.96568 0.0
C201 C 0.63897 0.99982 0.97799 0.0
C202 C 0.63701 0.04507 0.90752 0.0
C203 C 0.62218 0.01554 0.88505 0.0
H204 H 0.6021 0.54735 0.28283 0.0
H205 H 0.69059 0.62598 0.29007 0.0
H206 H 0.66936 0.6554 0.33517 0.0
H207 H 0.62522 0.65849 0.37306 0.0
H208 H 0.53744 0.5785 0.36724 0.0
H209 H 0.55897 0.54999 0.32181 0.0
C210 C 0.61682 0.57099 0.29374 0.0
C211 C 0.64786 0.58447 0.2826 0.0
C212 C 0.60459 0.58752 0.3206 0.0
C213 C 0.66656 0.61506 0.29788 0.0
C214 C 0.65445 0.63187 0.3239 0.0
C215 C 0.61089 0.63478 0.36232 0.0
C216 C 0.57972 0.62075 0.3736 0.0
C217 C 0.62345 0.61828 0.3358 0.0
C218 C 0.56147 0.59 0.35909 0.0
C219 C 0.57373 0.5736 0.33285 0.0
H220 H 0.94941 0.61685 0.67709 0.0
H221 H 0.96857 0.57988 0.84314 0.0
H222 H 0.02206 0.60779 0.81794 0.0
H223 H 0.06296 0.64043 0.74635 0.0
H224 H 0.0444 0.6768 0.57865 0.0
H225 H 0.99104 0.65141 0.60714 0.0
C226 C 0.96531 0.61514 0.70815 0.0
C227 C 0.95493 0.59619 0.76188 0.0
C228 C 0.9961 0.63096 0.69289 0.0
C229 C 0.97587 0.59418 0.80141 0.0
C230 C 0.00649 0.61011 0.78699 0.0
C231 C 0.04733 0.64298 0.71602 0.0
C232 C 0.05768 0.66038 0.6602 0.0
C233 C 0.01678 0.62818 0.7324 0.0
C234 C 0.03705 0.66348 0.62176 0.0
C235 C 0.00653 0.64895 0.63803 0.0
H236 H 0.37466 0.97174 0.15624 0.0
H237 H 0.31593 0.94162 0.99272 0.0
H238 H 0.33702 0.99359 0.95713 0.0
H239 H 0.37489 0.04733 0.96817 0.0
H240 H 0.43367 0.07691 0.13172 0.0
H241 H 0.40969 0.02553 0.17145 0.0
C242 C 0.36623 0.97652 0.11314 0.0
C243 C 0.34396 0.95276 0.07698 0.0
C244 C 0.37862 0.00642 0.0926 0.0
C245 C 0.33316 0.95945 0.02146 0.0
C246 C 0.34527 0.98918 0.00089 0.0
C247 C 0.38225 0.04257 0.01279 0.0
C248 C 0.40627 0.06595 0.04646 0.0
C249 C 0.36845 0.01281 0.0354 0.0
C250 C 0.41539 0.05938 0.10445 0.0
C251 C 0.40171 0.02995 0.12731 0.0
H252 H 0.23052 0.47529 0.87785 0.0
H253 H 0.13945 0.41333 0.93668 0.0
H254 H 0.15771 0.40655 0.03913 0.0
H255 H 0.19951 0.41885 0.11264 0.0
H256 H 0.29047 0.48105 0.05324 0.0
H257 H 0.27219 0.48698 0.95036 0.0
C258 C 0.21462 0.46026 0.91298 0.0
C259 C 0.18365 0.44491 0.89957 0.0
C260 C 0.22524 0.4565 0.97176 0.0
C261 C 0.16341 0.42547 0.94571 0.0
C262 C 0.17383 0.42158 0.00436 0.0
C263 C 0.21536 0.43365 0.07716 0.0
C264 C 0.24632 0.4495 0.09082 0.0
C265 C 0.2047 0.43707 0.01799 0.0
C266 C 0.26651 0.46857 0.04416 0.0
C267 C 0.25609 0.47202 0.98524 0.0
H268 H 0.79569 0.289 0.33569 0.0
H269 H 0.80838 0.22111 0.4276 0.0
H270 H 0.77835 0.18471 0.34501 0.0
H271 H 0.7479 0.17204 0.24645 0.0
H272 H 0.73548 0.24073 0.15706 0.0
H273 H 0.76573 0.27662 0.23889 0.0
C274 C 0.79207 0.2663 0.33762 0.0
C275 C 0.80437 0.25789 0.38774 0.0
C276 C 0.77459 0.24545 0.29044 0.0
C277 C 0.79922 0.22826 0.3895 0.0
C278 C 0.78198 0.20738 0.34233 0.0
C279 C 0.75175 0.19482 0.24511 0.0
C280 C 0.73937 0.20355 0.19551 0.0
C281 C 0.76939 0.21567 0.29263 0.0
C282 C 0.74469 0.23325 0.19444 0.0
C283 C 0.76206 0.25393 0.24128 0.0
H284 H 0.55244 0.81154 0.73029 0.0
H285 H 0.61068 0.78471 0.82057 0.0
H286 H 0.60862 0.75603 0.72581 0.0
H287 H 0.58867 0.73692 0.61837 0.0
H288 H 0.53038 0.76408 0.52928 0.0
H289 H 0.53414 0.79413 0.62228 0.0
C290 C 0.56485 0.79959 0.7292 0.0
C291 C 0.58157 0.80023 0.78268 0.0
C292 C 0.56345 0.78299 0.67472 0.0
C293 C 0.59757 0.78463 0.78018 0.0
C294 C 0.59636 0.76813 0.726 0.0
C295 C 0.57687 0.74947 0.61928 0.0
C296 C 0.55915 0.74804 0.5669 0.0
C297 C 0.57909 0.76686 0.6732 0.0
C298 C 0.54412 0.76462 0.56885 0.0
C299 C 0.54624 0.78187 0.6221 0.0
H300 H 0.76633 0.55581 0.10073 0.0
H301 H 0.6806 0.5032 0.00736 0.0
H302 H 0.70592 0.50074 0.91097 0.0
H303 H 0.75221 0.51304 0.85346 0.0
H304 H 0.83801 0.5651 0.94678 0.0
H305 H 0.81278 0.56812 0.04298 0.0
C306 C 0.75316 0.54391 0.05923 0.0
C307 C 0.72156 0.52975 0.06137 0.0
C308 C 0.76786 0.54235 0.00401 0.0
C309 C 0.70491 0.5143 0.00717 0.0
C310 C 0.71937 0.51285 0.95197 0.0
C311 C 0.76545 0.52504 0.8948 0.0
C312 C 0.797 0.53881 0.89277 0.0
C313 C 0.75081 0.52668 0.94995 0.0
C314 C 0.81372 0.55425 0.94694 0.0
C315 C 0.7993 0.55603 0.00199 0.0
H316 H 0.24865 0.77322 0.46683 0.0
H317 H 0.16372 0.74832 0.37774 0.0
H318 H 0.19012 0.77705 0.28273 0.0
H319 H 0.23745 0.80838 0.22419 0.0
H320 H 0.32203 0.83294 0.3149 0.0
H321 H 0.29553 0.80525 0.41008 0.0
C322 C 0.23582 0.77404 0.42672 0.0
C323 C 0.20421 0.75849 0.42938 0.0
C324 C 0.2511 0.79057 0.37246 0.0
C325 C 0.18805 0.76002 0.37699 0.0
C326 C 0.20314 0.77644 0.32262 0.0
C327 C 0.2501 0.80778 0.26486 0.0
C328 C 0.28174 0.82269 0.26215 0.0
C329 C 0.23468 0.79169 0.3197 0.0
C330 C 0.29771 0.82168 0.31543 0.0
C331 C 0.28257 0.8058 0.36998 0.0
H332 H 0.42791 0.2254 0.81283 0.0
H333 H 0.44057 0.15643 0.72477 0.0
H334 H 0.44559 0.17968 0.62058 0.0
H335 H 0.4477 0.22035 0.55508 0.0
H336 H 0.43584 0.28963 0.64426 0.0
H337 H 0.42938 0.26549 0.74757 0.0
C338 C 0.43155 0.21526 0.77087 0.0
C339 C 0.43383 0.18916 0.7767 0.0
C340 C 0.4348 0.22894 0.71136 0.0
C341 C 0.43869 0.17648 0.72171 0.0
C342 C 0.44165 0.18982 0.66212 0.0
C343 C 0.44373 0.23021 0.59709 0.0
C344 C 0.44235 0.25684 0.59182 0.0
C345 C 0.44002 0.21621 0.65648 0.0
C346 C 0.43709 0.26921 0.64683 0.0
C347 C 0.43333 0.25539 0.70598 0.0
H348 H 0.20737 0.45732 0.62232 0.0
H349 H 0.13267 0.40142 0.49907 0.0
H350 H 0.16758 0.40787 0.41308 0.0
H351 H 0.21938 0.43094 0.37201 0.0
H352 H 0.29351 0.48766 0.49602 0.0
H353 H 0.25862 0.47931 0.58255 0.0
C354 C 0.19863 0.44635 0.57682 0.0
C355 C 0.16745 0.42897 0.56713 0.0
C356 C 0.21873 0.45044 0.52757 0.0
C357 C 0.15659 0.41497 0.5078 0.0
C358 C 0.17653 0.41869 0.45856 0.0
C359 C 0.22788 0.4414 0.41802 0.0
C360 C 0.25901 0.45998 0.42738 0.0
C361 C 0.20765 0.43665 0.46773 0.0
C362 C 0.26967 0.47335 0.48732 0.0
C363 C 0.24974 0.46857 0.53696 0.0
H364 H 0.81161 0.22556 0.71415 0.0
H365 H 0.79032 0.29071 0.79169 0.0
H366 H 0.76492 0.25765 0.88157 0.0
H367 H 0.74768 0.21007 0.93649 0.0
H368 H 0.7688 0.14455 0.86072 0.0
H369 H 0.79567 0.1782 0.77181 0.0
C370 C 0.80141 0.23251 0.75073 0.0
C371 C 0.80269 0.26048 0.74602 0.0
C372 C 0.78691 0.21343 0.80252 0.0
C373 C 0.78962 0.2693 0.79407 0.0
C374 C 0.77507 0.25041 0.8455 0.0
C375 C 0.7582 0.20309 0.90066 0.0
C376 C 0.75608 0.17477 0.90493 0.0
C377 C 0.77344 0.2224 0.84993 0.0
C378 C 0.7701 0.16625 0.85846 0.0
C379 C 0.78537 0.18542 0.80755 0.0
H380 H 0.5643 0.77434 0.0455 0.0
H381 H 0.58443 0.84542 0.18106 0.0
H382 H 0.58632 0.81439 0.26671 0.0
H383 H 0.58011 0.76644 0.30376 0.0
H384 H 0.55959 0.69514 0.16857 0.0
H385 H 0.56027 0.72711 0.08195 0.0
C386 C 0.56918 0.78309 0.09375 0.0
C387 C 0.57399 0.81206 0.10693 0.0
C388 C 0.57019 0.76514 0.14279 0.0
C389 C 0.58054 0.82315 0.16961 0.0
C390 C 0.58161 0.80543 0.21866 0.0
C391 C 0.576 0.75792 0.2553 0.0
C392 C 0.56965 0.72838 0.24272 0.0
C393 C 0.57617 0.7763 0.20587 0.0
C394 C 0.56448 0.71777 0.17962 0.0
C395 C 0.56478 0.736 0.13006 0.0
H396 H 0.78112 0.5607 0.36859 0.0
H397 H 0.71625 0.55591 0.50607 0.0
H398 H 0.74911 0.55893 0.5929 0.0
H399 H 0.79495 0.56041 0.62969 0.0
H400 H 0.85954 0.5644 0.49245 0.0
H401 H 0.82807 0.56441 0.40553 0.0
C402 C 0.77422 0.56049 0.41753 0.0
C403 C 0.74619 0.55789 0.4308 0.0
C404 C 0.79311 0.56202 0.46725 0.0
C405 C 0.73766 0.55777 0.49449 0.0
C406 C 0.75642 0.55947 0.54421 0.0
C407 C 0.80229 0.5615 0.5808 0.0
C408 C 0.82948 0.56223 0.56759 0.0
C409 C 0.784 0.56122 0.53111 0.0
C410 C 0.83867 0.56373 0.50396 0.0
C411 C 0.82067 0.56368 0.45421 0.0
H412 H 0.22149 0.77023 0.69167 0.0
H413 H 0.14514 0.75615 0.8041 0.0
H414 H 0.17836 0.7837 0.89289 0.0
H415 H 0.22901 0.81127 0.93889 0.0
H416 H 0.3056 0.82766 0.82463 0.0
H417 H 0.27234 0.79965 0.7361 0.0
C418 C 0.21214 0.77321 0.73562 0.0
C419 C 0.18092 0.76106 0.74149 0.0
C420 C 0.23138 0.7894 0.78609 0.0
C421 C 0.16912 0.76538 0.79838 0.0
C422 C 0.18808 0.78103 0.84922 0.0
C423 C 0.23839 0.80861 0.89466 0.0
C424 C 0.26965 0.82127 0.88836 0.0
C425 C 0.21921 0.79301 0.84368 0.0
C426 C 0.28158 0.81809 0.83054 0.0
C427 C 0.26259 0.80207 0.77998 0.0
H428 H 0.39875 0.1695 0.14804 0.0
H429 H 0.47329 0.23119 0.03049 0.0
H430 H 0.48444 0.2721 0.10453 0.0
H431 H 0.47407 0.29013 0.20386 0.0
H432 H 0.40058 0.22847 0.32366 0.0
H433 H 0.38797 0.18783 0.24742 0.0
C434 C 0.4173 0.19194 0.13847 0.0
C435 C 0.43518 0.19726 0.08395 0.0
C436 C 0.42386 0.21536 0.18169 0.0
C437 C 0.45926 0.22643 0.07233 0.0
C438 C 0.46566 0.24988 0.11459 0.0
C439 C 0.4552 0.26784 0.21322 0.0
C440 C 0.43832 0.26235 0.26933 0.0
C441 C 0.44827 0.24454 0.16963 0.0
C442 C 0.41401 0.2333 0.28084 0.0
C443 C 0.40676 0.21003 0.23727 0.0
H444 H 0.38065 0.5336 0.34659 0.0
H445 H 0.3609 0.58273 0.20684 0.0
H446 H 0.40565 0.62955 0.23919 0.0
H447 H 0.45169 0.65593 0.30361 0.0
H448 H 0.47076 0.60629 0.44367 0.0
H449 H 0.42468 0.56034 0.41522 0.0
C450 C 0.38612 0.55454 0.32312 0.0
C451 C 0.3677 0.55464 0.27383 0.0
C452 C 0.41167 0.5813 0.34221 0.0
C453 C 0.37481 0.58203 0.2447 0.0
C454 C 0.40038 0.6088 0.26319 0.0
C455 C 0.44561 0.63515 0.32846 0.0
C456 C 0.46483 0.63458 0.37538 0.0
C457 C 0.41914 0.60864 0.31148 0.0
C458 C 0.4565 0.60742 0.40719 0.0
C459 C 0.43018 0.58106 0.3908 0.0
H460 H 0.79065 0.4384 0.63445 0.0
H461 H 0.87888 0.47495 0.71792 0.0
H462 H 0.88148 0.43112 0.6819 0.0
H463 H 0.85897 0.3826 0.6269 0.0
H464 H 0.77019 0.34485 0.54602 0.0
H465 H 0.76769 0.38916 0.58043 0.0
C466 C 0.81042 0.43676 0.64494 0.0
C467 C 0.83453 0.46 0.67887 0.0
C468 C 0.81178 0.4114 0.62418 0.0
C469 C 0.85994 0.45742 0.6921 0.0
C470 C 0.86152 0.43239 0.67131 0.0
C471 C 0.83914 0.38413 0.61624 0.0
C472 C 0.81488 0.36054 0.58346 0.0
C473 C 0.83765 0.40933 0.63714 0.0
C474 C 0.78921 0.36273 0.57098 0.0
C475 C 0.78774 0.38803 0.59077 0.0
H476 H 0.48855 0.87929 0.05067 0.0
H477 H 0.45962 0.80823 0.91099 0.0
H478 H 0.40796 0.79792 0.92068 0.0
H479 H 0.37096 0.80922 0.96847 0.0
H480 H 0.40032 0.8811 0.10626 0.0
H481 H 0.45177 0.89079 0.09777 0.0
C482 C 0.47098 0.86152 0.0223 0.0
C483 C 0.47802 0.84456 0.98022 0.0
C484 C 0.44133 0.85579 0.02788 0.0
C485 C 0.4549 0.8217 0.94371 0.0
C486 C 0.42531 0.81574 0.94929 0.0
C487 C 0.38858 0.8269 0.99691 0.0
C488 C 0.38173 0.84433 0.03807 0.0
C489 C 0.41825 0.83262 0.99126 0.0
C490 C 0.40492 0.86734 0.07414 0.0
C491 C 0.43438 0.87292 0.06932 0.0
H492 H 0.6135 0.47325 0.31179 0.0
H493 H 0.66307 0.42589 0.31672 0.0
H494 H 0.61852 0.38085 0.35648 0.0
H495 H 0.56543 0.355 0.39027 0.0
H496 H 0.51668 0.40329 0.38665 0.0
H497 H 0.56107 0.44787 0.34639 0.0
C498 C 0.61459 0.45305 0.32119 0.0
C499 C 0.64159 0.45294 0.31098 0.0
C500 C 0.58906 0.42741 0.34471 0.0
C501 C 0.64258 0.4266 0.32405 0.0
C502 C 0.61712 0.40084 0.34689 0.0
C503 C 0.56454 0.3753 0.3809 0.0
C504 C 0.53768 0.37569 0.39155 0.0
C505 C 0.59024 0.40101 0.35761 0.0
C506 C 0.53699 0.40225 0.37905 0.0
C507 C 0.56237 0.42781 0.35583 0.0
H508 H 0.1703 0.63326 0.71708 0.0
H509 H 0.14169 0.61932 0.52064 0.0
H510 H 0.13363 0.56826 0.52439 0.0
H511 H 0.13273 0.52693 0.5846 0.0
H512 H 0.16024 0.54053 0.78177 0.0
H513 H 0.17065 0.59238 0.77646 0.0
C514 C 0.16256 0.61918 0.67487 0.0
C515 C 0.15656 0.63011 0.6187 0.0
C516 C 0.15755 0.58969 0.6776 0.0
C517 C 0.14642 0.61147 0.56455 0.0
C518 C 0.14174 0.58223 0.56668 0.0
C519 C 0.14107 0.54123 0.62642 0.0
C520 C 0.14556 0.52978 0.68357 0.0
C521 C 0.14688 0.57099 0.62317 0.0
C522 C 0.15646 0.54869 0.73722 0.0
C523 C 0.16246 0.57838 0.73423 0.0
H524 H 0.64252 0.19157 0.93233 0.0
H525 H 0.59993 0.11978 0.06982 0.0
H526 H 0.5519 0.11734 0.05161 0.0
H527 H 0.52193 0.13503 0.99587 0.0
H528 H 0.56442 0.20737 0.85969 0.0
H529 H 0.61265 0.21004 0.8781 0.0
C530 C 0.62277 0.17543 0.95848 0.0
C531 C 0.62483 0.15585 0.00229 0.0
C532 C 0.59521 0.17414 0.94781 0.0
C533 C 0.59901 0.13516 0.03591 0.0
C534 C 0.5715 0.13368 0.0254 0.0
C535 C 0.5417 0.15133 0.96997 0.0
C536 C 0.53955 0.17086 0.92617 0.0
C537 C 0.56933 0.15294 0.98124 0.0
C538 C 0.56546 0.19205 0.89358 0.0
C539 C 0.59303 0.1936 0.90411 0.0
loop_
_geom_bond_atom_site_label_1
_geom_bond_atom_site_label_2
_geom_bond_distance
_geom_bond_site_symmetry_2
_ccdc_geom_bond_type
C0 O1 1.160 . S
C0 O7 1.185 . S
O1 C0 1.160 . S
O2 Zn3 1.899 . S
O2 C10 1.284 . S
Zn3 O2 1.899 . S
Zn3 O4 2.032 . S
Zn3 O7 2.086 . S
Zn3 O12 1.977 . S
O4 Zn3 2.032 . S
O4 C8 1.278 . S
C5 O6 1.203 . S
C5 O12 1.267 . S
O6 C5 1.203 . S
O7 C0 1.185 . S
O7 Zn3 2.086 . S
C8 O4 1.278 . S
C8 O9 1.211 . S
O9 C8 1.211 . S
C10 O2 1.284 . S
C10 O11 1.273 . S
O11 C10 1.273 . S
O12 Zn3 1.977 . S
O12 C5 1.267 . S
C13 O14 1.160 . S
C13 O20 1.185 . S
O14 C13 1.160 . S
O15 Zn16 1.899 . S
O15 C23 1.284 . S
Zn16 O15 1.899 . S
Zn16 O17 2.032 . S
Zn16 O20 2.086 . S
Zn16 O25 1.977 . S
O17 Zn16 2.032 . S
O17 C21 1.278 . S
C18 O19 1.203 . S
C18 O25 1.267 . S
O19 C18 1.203 . S
O20 C13 1.185 . S
O20 Zn16 2.086 . S
C21 O17 1.278 . S
C21 O22 1.211 . S
O22 C21 1.211 . S
C23 O15 1.284 . S
C23 O24 1.273 . S
O24 C23 1.273 . S
O25 Zn16 1.977 . S
O25 C18 1.267 . S
C26 O27 1.160 . S
C26 O33 1.185 . S
O27 C26 1.160 . S
O28 Zn29 1.899 . S
O28 C36 1.284 . S
Zn29 O28 1.899 . S
Zn29 O30 2.032 . S
Zn29 O33 2.086 . S
Zn29 O38 1.977 . S
O30 Zn29 2.032 . S
O30 C34 1.278 1_556 S
C31 O32 1.203 1_556 S
C31 O38 1.267 . S
O32 C31 1.203 1_554 S
O33 C26 1.185 . S
O33 Zn29 2.086 . S
C34 O30 1.278 1_554 S
C34 O35 1.211 . S
O35 C34 1.211 . S
C36 O28 1.284 . S
C36 O37 1.273 1_556 S
O37 C36 1.273 1_554 S
O38 Zn29 1.977 . S
O38 C31 1.267 . S
C39 O40 1.160 . S
C39 O46 1.185 . S
O40 C39 1.160 . S
O41 Zn42 1.899 . S
O41 C49 1.284 . S
Zn42 O41 1.899 . S
Zn42 O43 2.032 . S
Zn42 O46 2.086 . S
Zn42 O51 1.977 . S
O43 Zn42 2.032 . S
O43 C47 1.278 . S
C44 O45 1.203 . S
C44 O51 1.267 . S
O45 C44 1.203 . S
O46 C39 1.185 . S
O46 Zn42 2.086 . S
C47 O43 1.278 . S
C47 O48 1.211 . S
O48 C47 1.211 . S
C49 O41 1.284 . S
C49 O50 1.273 . S
O50 C49 1.273 . S
O51 Zn42 1.977 . S
O51 C44 1.267 . S
C52 O53 1.160 . S
C52 O59 1.185 . S
O53 C52 1.160 . S
O54 Zn55 1.899 . S
O54 C62 1.284 . S
Zn55 O54 1.899 . S
Zn55 O56 2.032 . S
Zn55 O59 2.086 . S
Zn55 O64 1.977 . S
O56 Zn55 2.032 . S
O56 C60 1.278 . S
C57 O58 1.203 . S
C57 O64 1.267 . S
O58 C57 1.203 . S
O59 C52 1.185 . S
O59 Zn55 2.086 . S
C60 O56 1.278 . S
C60 O61 1.211 . S
O61 C60 1.211 . S
C62 O54 1.284 . S
C62 O63 1.273 . S
O63 C62 1.273 . S
O64 Zn55 1.977 . S
O64 C57 1.267 . S
C65 O66 1.160 . S
C65 O72 1.185 . S
O66 C65 1.160 . S
O67 Zn68 1.899 . S
O67 C75 1.284 . S
Zn68 O67 1.899 . S
Zn68 O69 2.032 . S
Zn68 O72 2.086 . S
Zn68 O77 1.977 . S
O69 Zn68 2.032 . S
O69 C73 1.278 1_556 S
C70 O71 1.203 1_556 S
C70 O77 1.267 . S
O71 C70 1.203 1_554 S
O72 C65 1.185 . S
O72 Zn68 2.086 . S
C73 O69 1.278 1_554 S
C73 O74 1.211 . S
O74 C73 1.211 . S
C75 O67 1.284 . S
C75 O76 1.273 1_556 S
O76 C75 1.273 1_554 S
O77 Zn68 1.977 . S
O77 C70 1.267 . S
C78 O79 1.160 . S
C78 O85 1.185 . S
O79 C78 1.160 . S
O80 Zn81 1.899 . S
O80 C88 1.284 . S
Zn81 O80 1.899 . S
Zn81 O82 2.032 . S
Zn81 O85 2.086 . S
Zn81 O90 1.977 . S
O82 Zn81 2.032 . S
O82 C86 1.278 . S
C83 O84 1.203 . S
C83 O90 1.267 . S
O84 C83 1.203 . S
O85 C78 1.185 . S
O85 Zn81 2.086 . S
C86 O82 1.278 . S
C86 O87 1.211 . S
O87 C86 1.211 . S
C88 O80 1.284 . S
C88 O89 1.273 . S
O89 C88 1.273 . S
O90 Zn81 1.977 . S
O90 C83 1.267 . S
C91 O92 1.160 . S
C91 O98 1.185 . S
O92 C91 1.160 . S
O93 Zn94 1.899 . S
O93 C101 1.284 . S
Zn94 O93 1.899 . S
Zn94 O95 2.032 . S
Zn94 O98 2.086 . S
Zn94 O103 1.977 . S
O95 Zn94 2.032 . S
O95 C99 1.278 . S
C96 O97 1.203 . S
C96 O103 1.267 . S
O97 C96 1.203 . S
O98 C91 1.185 . S
O98 Zn94 2.086 . S
C99 O95 1.278 . S
C99 O100 1.211 . S
O100 C99 1.211 . S
C101 O93 1.284 . S
C101 O102 1.273 . S
O102 C101 1.273 . S
O103 Zn94 1.977 . S
O103 C96 1.267 . S
C104 O105 1.160 . S
C104 O111 1.185 . S
O105 C104 1.160 . S
O106 Zn107 1.899 . S
O106 C114 1.284 . S
Zn107 O106 1.899 . S
Zn107 O108 2.032 . S
Zn107 O111 2.086 . S
Zn107 O116 1.977 . S
O108 Zn107 2.032 . S
O108 C112 1.278 1_554 S
C109 O110 1.203 1_554 S
C109 O116 1.267 . S
O110 C109 1.203 1_556 S
O111 C104 1.185 . S
O111 Zn107 2.086 . S
C112 O108 1.278 1_556 S
C112 O113 1.211 . S
O113 C112 1.211 . S
C114 O106 1.284 . S
C114 O115 1.273 1_554 S
O115 C114 1.273 1_556 S
O116 Zn107 1.977 . S
O116 C109 1.267 . S
C117 O118 1.160 . S
C117 O124 1.185 . S
O118 C117 1.160 . S
O119 Zn120 1.899 . S
O119 C127 1.284 . S
Zn120 O119 1.899 . S
Zn120 O121 2.032 . S
Zn120 O124 2.086 . S
Zn120 O129 1.977 . S
O121 Zn120 2.032 . S
O121 C125 1.278 . S
C122 O123 1.203 . S
C122 O129 1.267 . S
O123 C122 1.203 . S
O124 C117 1.185 . S
O124 Zn120 2.086 . S
C125 O121 1.278 . S
C125 O126 1.211 . S
O126 C125 1.211 . S
C127 O119 1.284 . S
C127 O128 1.273 . S
O128 C127 1.273 . S
O129 Zn120 1.977 . S
O129 C122 1.267 . S
C130 O131 1.160 . S
C130 O137 1.185 . S
O131 C130 1.160 . S
O132 Zn133 1.899 . S
O132 C140 1.284 . S
Zn133 O132 1.899 . S
Zn133 O134 2.032 . S
Zn133 O137 2.086 . S
Zn133 O142 1.977 . S
O134 Zn133 2.032 . S
O134 C138 1.278 . S
C135 O136 1.203 . S
C135 O142 1.267 . S
O136 C135 1.203 . S
O137 C130 1.185 . S
O137 Zn133 2.086 . S
C138 O134 1.278 . S
C138 O139 1.211 . S
O139 C138 1.211 . S
C140 O132 1.284 . S
C140 O141 1.273 . S
O141 C140 1.273 . S
O142 Zn133 1.977 . S
O142 C135 1.267 . S
C143 O144 1.160 . S
C143 O150 1.185 . S
O144 C143 1.160 . S
O145 Zn146 1.899 . S
O145 C153 1.284 . S
Zn146 O145 1.899 . S
Zn146 O147 2.032 . S
Zn146 O150 2.086 . S
Zn146 O155 1.977 . S
O147 Zn146 2.032 . S
O147 C151 1.278 1_554 S
C148 O149 1.203 1_554 S
C148 O155 1.267 . S
O149 C148 1.203 1_556 S
O150 C143 1.185 . S
O150 Zn146 2.086 . S
C151 O147 1.278 1_556 S
C151 O152 1.211 . S
O152 C151 1.211 . S
C153 O145 1.284 . S
C153 O154 1.273 1_554 S
O154 C153 1.273 1_556 S
O155 Zn146 1.977 . S
O155 C148 1.267 . S
H156 C162 0.930 . S
H157 C165 0.930 . S
H158 C166 0.930 . S
H159 C167 0.930 . S
H160 C170 0.930 . S
H161 C171 0.930 . S
C162 H156 0.930 . S
C162 C163 1.355 . S
C162 C164 1.415 . S
C163 C162 1.355 . S
C163 C165 1.419 . S
C164 C162 1.415 . S
C164 C169 1.425 . S
C164 C171 1.409 . S
C165 H157 0.930 . S
C165 C163 1.419 . S
C165 C166 1.362 . S
C166 H158 0.930 . S
C166 C165 1.362 . S
C166 C169 1.409 . S
C167 H159 0.930 . S
C167 C168 1.355 . S
C167 C169 1.415 . S
C168 C167 1.355 . S
C168 C170 1.419 . S
C169 C164 1.425 . S
C169 C166 1.409 . S
C169 C167 1.415 . S
C170 H160 0.930 . S
C170 C168 1.419 . S
C170 C171 1.362 . S
C171 H161 0.930 . S
C171 C164 1.409 . S
C171 C170 1.362 . S
H172 C178 0.930 . S
H173 C181 0.930 . S
H174 C182 0.930 . S
H175 C183 0.930 . S
H176 C186 0.930 . S
H177 C187 0.930 . S
C178 H172 0.930 . S
C178 C179 1.355 . S
C178 C180 1.415 . S
C179 C178 1.355 . S
C179 C181 1.419 . S
C180 C178 1.415 . S
C180 C185 1.425 1_655 S
C180 C187 1.409 1_655 S
C181 H173 0.930 . S
C181 C179 1.419 . S
C181 C182 1.362 . S
C182 H174 0.930 . S
C182 C181 1.362 . S
C182 C185 1.409 1_655 S
C183 H175 0.930 . S
C183 C184 1.355 . S
C183 C185 1.415 . S
C184 C183 1.355 . S
C184 C186 1.419 . S
C185 C180 1.425 1_455 S
C185 C182 1.409 1_455 S
C185 C183 1.415 . S
C186 H176 0.930 . S
C186 C184 1.419 . S
C186 C187 1.362 . S
C187 H177 0.930 . S
C187 C180 1.409 1_455 S
C187 C186 1.362 . S
H188 C194 0.930 . S
H189 C197 0.930 . S
H190 C198 0.930 . S
H191 C199 0.930 . S
H192 C202 0.930 . S
H193 C203 0.930 . S
C194 H188 0.930 . S
C194 C195 1.355 . S
C194 C196 1.415 . S
C195 C194 1.355 . S
C195 C197 1.419 1_556 S
C196 C194 1.415 . S
C196 C201 1.425 1_566 S
C196 C203 1.409 1_565 S
C197 H189 0.930 . S
C197 C195 1.419 1_554 S
C197 C198 1.362 . S
C198 H190 0.930 . S
C198 C197 1.362 . S
C198 C201 1.409 1_565 S
C199 H191 0.930 . S
C199 C200 1.355 . S
C199 C201 1.415 . S
C200 C199 1.355 . S
C200 C202 1.419 1_554 S
C201 C196 1.425 1_544 S
C201 C198 1.409 1_545 S
C201 C199 1.415 . S
C202 H192 0.930 . S
C202 C200 1.419 1_556 S
C202 C203 1.362 . S
C203 H193 0.930 . S
C203 C196 1.409 1_545 S
C203 C202 1.362 . S
H204 C210 0.930 . S
H205 C213 0.930 . S
H206 C214 0.930 . S
H207 C215 0.930 . S
H208 C218 0.930 . S
H209 C219 0.930 . S
C210 H204 0.930 . S
C210 C211 1.355 . S
C210 C212 1.415 . S
C211 C210 1.355 . S
C211 C213 1.419 . S
C212 C210 1.415 . S
C212 C217 1.425 . S
C212 C219 1.409 . S
C213 H205 0.930 . S
C213 C211 1.419 . S
C213 C214 1.362 . S
C214 H206 0.930 . S
C214 C213 1.362 . S
C214 C217 1.409 . S
C215 H207 0.930 . S
C215 C216 1.355 . S
C215 C217 1.415 . S
C216 C215 1.355 . S
C216 C218 1.419 . S
C217 C212 1.425 . S
C217 C214 1.409 . S
C217 C215 1.415 . S
C218 H208 0.930 . S
C218 C216 1.419 . S
C218 C219 1.362 . S
C219 H209 0.930 . S
C219 C212 1.409 . S
C219 C218 1.362 . S
H220 C226 0.930 . S
H221 C229 0.930 . S
H222 C230 0.930 . S
H223 C231 0.930 . S
H224 C234 0.930 . S
H225 C235 0.930 . S
C226 H220 0.930 . S
C226 C227 1.355 . S
C226 C228 1.415 . S
C227 C226 1.355 . S
C227 C229 1.419 . S
C228 C226 1.415 . S
C228 C233 1.425 1_655 S
C228 C235 1.409 1_655 S
C229 H221 0.930 . S
C229 C227 1.419 . S
C229 C230 1.362 . S
C230 H222 0.930 . S
C230 C229 1.362 . S
C230 C233 1.409 1_655 S
C231 H223 0.930 . S
C231 C232 1.355 . S
C231 C233 1.415 . S
C232 C231 1.355 . S
C232 C234 1.419 . S
C233 C228 1.425 1_455 S
C233 C230 1.409 1_455 S
C233 C231 1.415 . S
C234 H224 0.930 . S
C234 C232 1.419 . S
C234 C235 1.362 . S
C235 H225 0.930 . S
C235 C228 1.409 1_455 S
C235 C234 1.362 . S
H236 C242 0.930 . S
H237 C245 0.930 . S
H238 C246 0.930 . S
H239 C247 0.930 . S
H240 C250 0.930 . S
H241 C251 0.930 . S
C242 H236 0.930 . S
C242 C243 1.355 . S
C242 C244 1.415 . S
C243 C242 1.355 . S
C243 C245 1.419 1_554 S
C244 C242 1.415 . S
C244 C249 1.425 1_564 S
C244 C251 1.409 1_565 S
C245 H237 0.930 . S
C245 C243 1.419 1_556 S
C245 C246 1.362 . S
C246 H238 0.930 . S
C246 C245 1.362 . S
C246 C249 1.409 1_565 S
C247 H239 0.930 . S
C247 C248 1.355 . S
C247 C249 1.415 . S
C248 C247 1.355 . S
C248 C250 1.419 1_556 S
C249 C244 1.425 1_546 S
C249 C246 1.409 1_545 S
C249 C247 1.415 . S
C250 H240 0.930 . S
C250 C248 1.419 1_554 S
C250 C251 1.362 . S
C251 H241 0.930 . S
C251 C244 1.409 1_545 S
C251 C250 1.362 . S
H252 C258 0.930 . S
H253 C261 0.930 . S
H254 C262 0.930 . S
H255 C263 0.930 . S
H256 C266 0.930 . S
H257 C267 0.930 . S
C258 H252 0.930 . S
C258 C259 1.355 . S
C258 C260 1.415 . S
C259 C258 1.355 . S
C259 C261 1.419 . S
C260 C258 1.415 . S
C260 C265 1.425 1_556 S
C260 C267 1.409 . S
C261 H253 0.930 . S
C261 C259 1.419 . S
C261 C262 1.362 1_556 S
C262 H254 0.930 . S
C262 C261 1.362 1_554 S
C262 C265 1.409 . S
C263 H255 0.930 . S
C263 C264 1.355 . S
C263 C265 1.415 . S
C264 C263 1.355 . S
C264 C266 1.419 . S
C265 C260 1.425 1_554 S
C265 C262 1.409 . S
C265 C263 1.415 . S
C266 H256 0.930 . S
C266 C264 1.419 . S
C266 C267 1.362 1_554 S
C267 H257 0.930 . S
C267 C260 1.409 . S
C267 C266 1.362 1_556 S
H268 C274 0.930 . S
H269 C277 0.930 . S
H270 C278 0.930 . S
H271 C279 0.930 . S
H272 C282 0.930 . S
H273 C283 0.930 . S
C274 H268 0.930 . S
C274 C275 1.355 . S
C274 C276 1.415 . S
C275 C274 1.355 . S
C275 C277 1.419 . S
C276 C274 1.415 . S
C276 C281 1.425 . S
C276 C283 1.409 . S
C277 H269 0.930 . S
C277 C275 1.419 . S
C277 C278 1.362 . S
C278 H270 0.930 . S
C278 C277 1.362 . S
C278 C281 1.409 . S
C279 H271 0.930 . S
C279 C280 1.355 . S
C279 C281 1.415 . S
C280 C279 1.355 . S
C280 C282 1.419 . S
C281 C276 1.425 . S
C281 C278 1.409 . S
C281 C279 1.415 . S
C282 H272 0.930 . S
C282 C280 1.419 . S
C282 C283 1.362 . S
C283 H273 0.930 . S
C283 C276 1.409 . S
C283 C282 1.362 . S
H284 C290 0.930 . S
H285 C293 0.930 . S
H286 C294 0.930 . S
H287 C295 0.930 . S
H288 C298 0.930 . S
H289 C299 0.930 . S
C290 H284 0.930 . S
C290 C291 1.355 . S
C290 C292 1.415 . S
C291 C290 1.355 . S
C291 C293 1.419 . S
C292 C290 1.415 . S
C292 C297 1.425 . S
C292 C299 1.409 . S
C293 H285 0.930 . S
C293 C291 1.419 . S
C293 C294 1.362 . S
C294 H286 0.930 . S
C294 C293 1.362 . S
C294 C297 1.409 . S
C295 H287 0.930 . S
C295 C296 1.355 . S
C295 C297 1.415 . S
C296 C295 1.355 . S
C296 C298 1.419 . S
C297 C292 1.425 . S
C297 C294 1.409 . S
C297 C295 1.415 . S
C298 H288 0.930 . S
C298 C296 1.419 . S
C298 C299 1.362 . S
C299 H289 0.930 . S
C299 C292 1.409 . S
C299 C298 1.362 . S
H300 C306 0.930 . S
H301 C309 0.930 . S
H302 C310 0.930 . S
H303 C311 0.930 . S
H304 C314 0.930 . S
H305 C315 0.930 . S
C306 H300 0.930 . S
C306 C307 1.355 . S
C306 C308 1.410 1_554 S
C307 C306 1.355 . S
C307 C309 1.419 . S
C308 C306 1.410 1_556 S
C308 C313 1.425 1_556 S
C308 C315 1.414 . S
C309 H301 0.930 . S
C309 C307 1.419 . S
C309 C310 1.362 . S
C310 H302 0.930 . S
C310 C309 1.362 . S
C310 C313 1.414 . S
C311 H303 0.930 . S
C311 C312 1.355 . S
C311 C313 1.410 1_556 S
C312 C311 1.355 . S
C312 C314 1.419 . S
C313 C308 1.425 1_554 S
C313 C310 1.414 . S
C313 C311 1.410 1_554 S
C314 H304 0.930 . S
C314 C312 1.419 . S
C314 C315 1.362 . S
C315 H305 0.930 . S
C315 C308 1.414 . S
C315 C314 1.362 . S
H316 C322 0.930 . S
H317 C325 0.930 . S
H318 C326 0.930 . S
H319 C327 0.930 . S
H320 C330 0.930 . S
H321 C331 0.930 . S
C322 H316 0.930 . S
C322 C323 1.355 . S
C322 C324 1.415 . S
C323 C322 1.355 . S
C323 C325 1.419 . S
C324 C322 1.415 . S
C324 C329 1.425 . S
C324 C331 1.409 . S
C325 H317 0.930 . S
C325 C323 1.419 . S
C325 C326 1.362 . S
C326 H318 0.930 . S
C326 C325 1.362 . S
C326 C329 1.409 . S
C327 H319 0.930 . S
C327 C328 1.355 . S
C327 C329 1.415 . S
C328 C327 1.355 . S
C328 C330 1.419 . S
C329 C324 1.425 . S
C329 C326 1.409 . S
C329 C327 1.415 . S
C330 H320 0.930 . S
C330 C328 1.419 . S
C330 C331 1.362 . S
C331 H321 0.930 . S
C331 C324 1.409 . S
C331 C330 1.362 . S
H332 C338 0.930 . S
H333 C341 0.930 . S
H334 C342 0.930 . S
H335 C343 0.930 . S
H336 C346 0.930 . S
H337 C347 0.930 . S
C338 H332 0.930 . S
C338 C339 1.355 . S
C338 C340 1.415 . S
C339 C338 1.355 . S
C339 C341 1.419 . S
C340 C338 1.415 . S
C340 C345 1.425 . S
C340 C347 1.409 . S
C341 H333 0.930 . S
C341 C339 1.419 . S
C341 C342 1.362 . S
C342 H334 0.930 . S
C342 C341 1.362 . S
C342 C345 1.409 . S
C343 H335 0.930 . S
C343 C344 1.355 . S
C343 C345 1.415 . S
C344 C343 1.355 . S
C344 C346 1.419 . S
C345 C340 1.425 . S
C345 C342 1.409 . S
C345 C343 1.415 . S
C346 H336 0.930 . S
C346 C344 1.419 . S
C346 C347 1.362 . S
C347 H337 0.930 . S
C347 C340 1.409 . S
C347 C346 1.362 . S
H348 C354 0.930 . S
H349 C357 0.930 . S
H350 C358 0.930 . S
H351 C359 0.930 . S
H352 C362 0.930 . S
H353 C363 0.930 . S
C354 H348 0.930 . S
C354 C355 1.355 . S
C354 C356 1.415 . S
C355 C354 1.355 . S
C355 C357 1.419 . S
C356 C354 1.415 . S
C356 C361 1.425 . S
C356 C363 1.409 . S
C357 H349 0.930 . S
C357 C355 1.419 . S
C357 C358 1.362 . S
C358 H350 0.930 . S
C358 C357 1.362 . S
C358 C361 1.409 . S
C359 H351 0.930 . S
C359 C360 1.355 . S
C359 C361 1.415 . S
C360 C359 1.355 . S
C360 C362 1.419 . S
C361 C356 1.425 . S
C361 C358 1.409 . S
C361 C359 1.415 . S
C362 H352 0.930 . S
C362 C360 1.419 . S
C362 C363 1.362 . S
C363 H353 0.930 . S
C363 C356 1.409 . S
C363 C362 1.362 . S
H364 C370 0.930 . S
H365 C373 0.930 . S
H366 C374 0.930 . S
H367 C375 0.930 . S
H368 C378 0.930 . S
H369 C379 0.930 . S
C370 H364 0.930 . S
C370 C371 1.355 . S
C370 C372 1.415 . S
C371 C370 1.355 . S
C371 C373 1.419 . S
C372 C370 1.415 . S
C372 C377 1.425 . S
C372 C379 1.409 . S
C373 H365 0.930 . S
C373 C371 1.419 . S
C373 C374 1.362 . S
C374 H366 0.930 . S
C374 C373 1.362 . S
C374 C377 1.409 . S
C375 H367 0.930 . S
C375 C376 1.355 . S
C375 C377 1.415 . S
C376 C375 1.355 . S
C376 C378 1.419 . S
C377 C372 1.425 . S
C377 C374 1.409 . S
C377 C375 1.415 . S
C378 H368 0.930 . S
C378 C376 1.419 . S
C378 C379 1.362 . S
C379 H369 0.930 . S
C379 C372 1.409 . S
C379 C378 1.362 . S
H380 C386 0.930 . S
H381 C389 0.930 . S
H382 C390 0.930 . S
H383 C391 0.930 . S
H384 C394 0.930 . S
H385 C395 0.930 . S
C386 H380 0.930 . S
C386 C387 1.355 . S
C386 C388 1.415 . S
C387 C386 1.355 . S
C387 C389 1.419 . S
C388 C386 1.415 . S
C388 C393 1.425 . S
C388 C395 1.409 . S
C389 H381 0.930 . S
C389 C387 1.419 . S
C389 C390 1.362 . S
C390 H382 0.930 . S
C390 C389 1.362 . S
C390 C393 1.409 . S
C391 H383 0.930 . S
C391 C392 1.355 . S
C391 C393 1.415 . S
C392 C391 1.355 . S
C392 C394 1.419 . S
C393 C388 1.425 . S
C393 C390 1.409 . S
C393 C391 1.415 . S
C394 H384 0.930 . S
C394 C392 1.419 . S
C394 C395 1.362 . S
C395 H385 0.930 . S
C395 C388 1.409 . S
C395 C394 1.362 . S
H396 C402 0.930 . S
H397 C405 0.930 . S
H398 C406 0.930 . S
H399 C407 0.930 . S
H400 C410 0.930 . S
H401 C411 0.930 . S
C402 H396 0.930 . S
C402 C403 1.355 . S
C402 C404 1.415 . S
C403 C402 1.355 . S
C403 C405 1.419 . S
C404 C402 1.415 . S
C404 C409 1.425 . S
C404 C411 1.409 . S
C405 H397 0.930 . S
C405 C403 1.419 . S
C405 C406 1.362 . S
C406 H398 0.930 . S
C406 C405 1.362 . S
C406 C409 1.409 . S
C407 H399 0.930 . S
C407 C408 1.355 . S
C407 C409 1.415 . S
C408 C407 1.355 . S
C408 C410 1.419 . S
C409 C404 1.425 . S
C409 C406 1.409 . S
C409 C407 1.415 . S
C410 H400 0.930 . S
C410 C408 1.419 . S
C410 C411 1.362 . S
C411 H401 0.930 . S
C411 C404 1.409 . S
C411 C410 1.362 . S
H412 C418 0.930 . S
H413 C421 0.930 . S
H414 C422 0.930 . S
H415 C423 0.930 . S
H416 C426 0.930 . S
H417 C427 0.930 . S
C418 H412 0.930 . S
C418 C419 1.355 . S
C418 C420 1.415 . S
C419 C418 1.355 . S
C419 C421 1.419 . S
C420 C418 1.415 . S
C420 C425 1.425 . S
C420 C427 1.409 . S
C421 H413 0.930 . S
C421 C419 1.419 . S
C421 C422 1.362 . S
C422 H414 0.930 . S
C422 C421 1.362 . S
C422 C425 1.409 . S
C423 H415 0.930 . S
C423 C424 1.355 . S
C423 C425 1.415 . S
C424 C423 1.355 . S
C424 C426 1.419 . S
C425 C420 1.425 . S
C425 C422 1.409 . S
C425 C423 1.415 . S
C426 H416 0.930 . S
C426 C424 1.419 . S
C426 C427 1.362 . S
C427 H417 0.930 . S
C427 C420 1.409 . S
C427 C426 1.362 . S
H428 C434 0.930 . S
H429 C437 0.930 . S
H430 C438 0.930 . S
H431 C439 0.930 . S
H432 C442 0.930 . S
H433 C443 0.930 . S
C434 H428 0.930 . S
C434 C435 1.355 . S
C434 C436 1.415 . S
C435 C434 1.355 . S
C435 C437 1.419 . S
C436 C434 1.415 . S
C436 C441 1.425 . S
C436 C443 1.409 . S
C437 H429 0.930 . S
C437 C435 1.419 . S
C437 C438 1.362 . S
C438 H430 0.930 . S
C438 C437 1.362 . S
C438 C441 1.409 . S
C439 H431 0.930 . S
C439 C440 1.355 . S
C439 C441 1.415 . S
C440 C439 1.355 . S
C440 C442 1.419 . S
C441 C436 1.425 . S
C441 C438 1.409 . S
C441 C439 1.415 . S
C442 H432 0.930 . S
C442 C440 1.419 . S
C442 C443 1.362 . S
C443 H433 0.930 . S
C443 C436 1.409 . S
C443 C442 1.362 . S
H444 C450 0.930 . S
H445 C453 0.930 . S
H446 C454 0.930 . S
H447 C455 0.930 . S
H448 C458 0.930 . S
H449 C459 0.930 . S
C450 H444 0.930 . S
C450 C451 1.355 . S
C450 C452 1.415 . S
C451 C450 1.355 . S
C451 C453 1.419 . S
C452 C450 1.415 . S
C452 C457 1.425 . S
C452 C459 1.409 . S
C453 H445 0.930 . S
C453 C451 1.419 . S
C453 C454 1.362 . S
C454 H446 0.930 . S
C454 C453 1.362 . S
C454 C457 1.409 . S
C455 H447 0.930 . S
C455 C456 1.355 . S
C455 C457 1.415 . S
C456 C455 1.355 . S
C456 C458 1.419 . S
C457 C452 1.425 . S
C457 C454 1.409 . S
C457 C455 1.415 . S
C458 H448 0.930 . S
C458 C456 1.419 . S
C458 C459 1.362 . S
C459 H449 0.930 . S
C459 C452 1.409 . S
C459 C458 1.362 . S
H460 C466 0.930 . S
H461 C469 0.930 . S
H462 C470 0.930 . S
H463 C471 0.930 . S
H464 C474 0.930 . S
H465 C475 0.930 . S
C466 H460 0.930 . S
C466 C467 1.355 . S
C466 C468 1.415 . S
C467 C466 1.355 . S
C467 C469 1.419 . S
C468 C466 1.415 . S
C468 C473 1.425 . S
C468 C475 1.409 . S
C469 H461 0.930 . S
C469 C467 1.419 . S
C469 C470 1.362 . S
C470 H462 0.930 . S
C470 C469 1.362 . S
C470 C473 1.409 . S
C471 H463 0.930 . S
C471 C472 1.355 . S
C471 C473 1.415 . S
C472 C471 1.355 . S
C472 C474 1.419 . S
C473 C468 1.425 . S
C473 C470 1.409 . S
C473 C471 1.415 . S
C474 H464 0.930 . S
C474 C472 1.419 . S
C474 C475 1.362 . S
C475 H465 0.930 . S
C475 C468 1.409 . S
C475 C474 1.362 . S
H476 C482 0.930 . S
H477 C485 0.930 . S
H478 C486 0.930 . S
H479 C487 0.930 . S
H480 C490 0.930 . S
H481 C491 0.930 . S
C482 H476 0.930 . S
C482 C483 1.355 1_554 S
C482 C484 1.415 . S
C483 C482 1.355 1_556 S
C483 C485 1.419 . S
C484 C482 1.415 . S
C484 C489 1.425 1_554 S
C484 C491 1.409 . S
C485 H477 0.930 . S
C485 C483 1.419 . S
C485 C486 1.362 . S
C486 H478 0.930 . S
C486 C485 1.362 . S
C486 C489 1.409 . S
C487 H479 0.930 . S
C487 C488 1.355 1_556 S
C487 C489 1.415 . S
C488 C487 1.355 1_554 S
C488 C490 1.419 . S
C489 C484 1.425 1_556 S
C489 C486 1.409 . S
C489 C487 1.415 . S
C490 H480 0.930 . S
C490 C488 1.419 . S
C490 C491 1.362 . S
C491 H481 0.930 . S
C491 C484 1.409 . S
C491 C490 1.362 . S
H492 C498 0.930 . S
H493 C501 0.930 . S
H494 C502 0.930 . S
H495 C503 0.930 . S
H496 C506 0.930 . S
H497 C507 0.930 . S
C498 H492 0.930 . S
C498 C499 1.355 . S
C498 C500 1.415 . S
C499 C498 1.355 . S
C499 C501 1.419 . S
C500 C498 1.415 . S
C500 C505 1.425 . S
C500 C507 1.409 . S
C501 H493 0.930 . S
C501 C499 1.419 . S
C501 C502 1.362 . S
C502 H494 0.930 . S
C502 C501 1.362 . S
C502 C505 1.409 . S
C503 H495 0.930 . S
C503 C504 1.355 . S
C503 C505 1.415 . S
C504 C503 1.355 . S
C504 C506 1.419 . S
C505 C500 1.425 . S
C505 C502 1.409 . S
C505 C503 1.415 . S
C506 H496 0.930 . S
C506 C504 1.419 . S
C506 C507 1.362 . S
C507 H497 0.930 . S
C507 C500 1.409 . S
C507 C506 1.362 . S
H508 C514 0.930 . S
H509 C517 0.930 . S
H510 C518 0.930 . S
H511 C519 0.930 . S
H512 C522 0.930 . S
H513 C523 0.930 . S
C514 H508 0.930 . S
C514 C515 1.355 . S
C514 C516 1.415 . S
C515 C514 1.355 . S
C515 C517 1.419 . S
C516 C514 1.415 . S
C516 C521 1.425 . S
C516 C523 1.409 . S
C517 H509 0.930 . S
C517 C515 1.419 . S
C517 C518 1.362 . S
C518 H510 0.930 . S
C518 C517 1.362 . S
C518 C521 1.409 . S
C519 H511 0.930 . S
C519 C520 1.355 . S
C519 C521 1.415 . S
C520 C519 1.355 . S
C520 C522 1.419 . S
C521 C516 1.425 . S
C521 C518 1.409 . S
C521 C519 1.415 . S
C522 H512 0.930 . S
C522 C520 1.419 . S
C522 C523 1.362 . S
C523 H513 0.930 . S
C523 C516 1.409 . S
C523 C522 1.362 . S
H524 C530 0.930 . S
H525 C533 0.930 . S
H526 C534 0.932 . S
H527 C535 0.930 . S
H528 C538 0.930 . S
H529 C539 0.932 . S
C530 H524 0.930 . S
C530 C531 1.355 . S
C530 C532 1.415 . S
C531 C530 1.355 . S
C531 C533 1.419 . S
C532 C530 1.415 . S
C532 C537 1.425 1_554 S
C532 C539 1.410 . S
C533 H525 0.930 . S
C533 C531 1.419 . S
C533 C534 1.360 1_554 S
C534 H526 0.932 . S
C534 C533 1.360 1_556 S
C534 C537 1.410 . S
C535 H527 0.930 . S
C535 C536 1.355 . S
C535 C537 1.415 . S
C536 C535 1.355 . S
C536 C538 1.419 . S
C537 C532 1.425 1_556 S
C537 C534 1.410 . S
C537 C535 1.415 . S
C538 H528 0.930 . S
C538 C536 1.419 . S
C538 C539 1.360 1_556 S
C539 H529 0.932 . S
C539 C532 1.410 . S
C539 C538 1.360 1_554 S
C163 C5 1.311 . S
C168 C122 1.366 . S
C179 C18 1.362 . S
C184 C135 1.322 . S
C195 C31 1.354 . S
C200 C148 1.287 . S
C211 C44 1.364 . S
C216 C83 1.294 . S
C227 C96 1.298 . S
C232 C57 1.366 . S
C243 C109 1.355 . S
C248 C70 1.287 . S
C259 C130 1.566 . S
C264 C0 1.584 . S
C275 C13 1.603 . S
C280 C143 1.568 . S
C291 C26 1.588 . S
C296 C78 1.587 . S
C307 C39 1.557 . S
C312 C91 1.607 . S
C323 C52 1.607 . S
C328 C104 1.555 . S
C339 C65 1.562 . S
C344 C117 1.589 . S
C355 C138 0.979 . S
C360 C8 0.970 . S
C371 C21 0.979 . S
C376 C151 0.970 . S
C387 C34 0.973 . S
C392 C86 0.971 . S
C403 C47 0.975 . S
C408 C99 0.970 . S
C419 C60 0.987 . S
C424 C112 0.974 . S
C435 C73 1.041 . S
C440 C125 1.042 . S
C451 C10 1.527 . S
C456 C88 1.535 . S
C467 C101 1.552 . S
C472 C23 1.542 . S
C483 C36 1.562 . S
C488 C114 1.567 . S
C499 C49 1.527 . S
C504 C127 1.536 . S
C515 C62 1.558 . S
C520 C140 1.564 . S
C531 C153 1.553 . S
C536 C75 1.544 . S
