# Generated by pormake.
# Topology wjg, (4)-cn, num edge types: 1
# Building blocks:
#     Node 0, Type 0, BuildingBlock: KUFVIS_clean_sbu_0, # of connection points: 4
#     Node 1, Type 0, BuildingBlock: KUFVIS_clean_sbu_0, # of connection points: 4
#     Node 2, Type 0, BuildingBlock: KUFVIS_clean_sbu_0, # of connection points: 4
#     Node 3, Type 0, BuildingBlock: KUFVIS_clean_sbu_0, # of connection points: 4
#     Node 4, Type 0, BuildingBlock: KUFVIS_clean_sbu_0, # of connection points: 4
#     Node 5, Type 0, BuildingBlock: KUFVIS_clean_sbu_0, # of connection points: 4
#     Node 6, Type 0, BuildingBlock: KUFVIS_clean_sbu_0, # of connection points: 4
#     Node 7, Type 0, BuildingBlock: KUFVIS_clean_sbu_0, # of connection points: 4
#     Node 8, Type 0, BuildingBlock: KUFVIS_clean_sbu_0, # of connection points: 4
#     Node 9, Type 0, BuildingBlock: KUFVIS_clean_sbu_0, # of connection points: 4
#     Node 10, Type 0, BuildingBlock: KUFVIS_clean_sbu_0, # of connection points: 4
#     Node 11, Type 0, BuildingBlock: KUFVIS_clean_sbu_0, # of connection points: 4
#     Edge 12, Type (0, 0), BuildingBlock: AJUNOK_clean_linker_0, # of connection points: 2
#     Edge 13, Type (0, 0), BuildingBlock: AJUNOK_clean_linker_0, # of connection points: 2
#     Edge 14, Type (0, 0), BuildingBlock: AJUNOK_clean_linker_0, # of connection points: 2
#     Edge 15, Type (0, 0), BuildingBlock: AJUNOK_clean_linker_0, # of connection points: 2
#     Edge 16, Type (0, 0), BuildingBlock: AJUNOK_clean_linker_0, # of connection points: 2
#     Edge 17, Type (0, 0), BuildingBlock: AJUNOK_clean_linker_0, # of connection points: 2
#     Edge 18, Type (0, 0), BuildingBlock: AJUNOK_clean_linker_0, # of connection points: 2
#     Edge 19, Type (0, 0), BuildingBlock: AJUNOK_clean_linker_0, # of connection points: 2
#     Edge 20, Type (0, 0), BuildingBlock: AJUNOK_clean_linker_0, # of connection points: 2
#     Edge 21, Type (0, 0), BuildingBlock: AJUNOK_clean_linker_0, # of connection points: 2
#     Edge 22, Type (0, 0), BuildingBlock: AJUNOK_clean_linker_0, # of connection points: 2
#     Edge 23, Type (0, 0), BuildingBlock: AJUNOK_clean_linker_0, # of connection points: 2
#     Edge 24, Type (0, 0), BuildingBlock: AJUNOK_clean_linker_0, # of connection points: 2
#     Edge 25, Type (0, 0), BuildingBlock: AJUNOK_clean_linker_0, # of connection points: 2
#     Edge 26, Type (0, 0), BuildingBlock: AJUNOK_clean_linker_0, # of connection points: 2
#     Edge 27, Type (0, 0), BuildingBlock: AJUNOK_clean_linker_0, # of connection points: 2
#     Edge 28, Type (0, 0), BuildingBlock: AJUNOK_clean_linker_0, # of connection points: 2
#     Edge 29, Type (0, 0), BuildingBlock: AJUNOK_clean_linker_0, # of connection points: 2
#     Edge 30, Type (0, 0), BuildingBlock: AJUNOK_clean_linker_0, # of connection points: 2
#     Edge 31, Type (0, 0), BuildingBlock: AJUNOK_clean_linker_0, # of connection points: 2
#     Edge 32, Type (0, 0), BuildingBlock: AJUNOK_clean_linker_0, # of connection points: 2
#     Edge 33, Type (0, 0), BuildingBlock: AJUNOK_clean_linker_0, # of connection points: 2
#     Edge 34, Type (0, 0), BuildingBlock: AJUNOK_clean_linker_0, # of connection points: 2
#     Edge 35, Type (0, 0), BuildingBlock: AJUNOK_clean_linker_0, # of connection points: 2
# Relax obj value: 0.309
# Max RMSD: 0.127
# Mean RMSD: 0.119
data_MOF--net-wjg--node1-KUFVIS_clean_sbu_0--edge1-AJUNOK_clean_linker_0
_symmetry_space_group_name_H-M    P1
_symmetry_Int_Tables_number       1
_symmetry_cell_setting            triclinic
loop_
_symmetry_equiv_pos_as_xyz
'x, y, z'
_cell_length_a     23.069294
_cell_length_b     23.039196
_cell_length_c     30.641649
_cell_angle_alpha  89.562595
_cell_angle_beta   90.275644
_cell_angle_gamma 120.45572
loop_
_atom_site_label
_atom_site_type_symbol
_atom_site_fract_x
_atom_site_fract_y
_atom_site_fract_z
_atom_type_partial_charge
Mn0 Mn 0.11859 0.37329 0.32594 0.0
Mn1 Mn 0.25439 0.38675 0.38496 0.0
C2 C 0.11605 0.27304 0.34974 0.0
C3 C 0.07052 0.36578 0.25197 0.0
C4 C 0.15103 0.41477 0.42212 0.0
O5 O 0.19335 0.47393 0.31872 0.0
O6 O 0.27994 0.46806 0.34863 0.0
C7 C 0.33231 0.37708 0.30923 0.0
N8 N 0.31362 0.36808 0.35754 0.0
C9 C 0.43927 0.39049 0.3978 0.0
C10 C 0.49188 0.41004 0.35363 0.0
C11 C 0.46014 0.41021 0.29906 0.0
C12 C 0.35728 0.37147 0.39727 0.0
H13 H 0.29549 0.37755 0.28691 0.0
C14 C 0.25548 0.50076 0.32981 0.0
O15 O 0.05066 0.38371 0.28633 0.0
O16 O 0.11888 0.35441 0.26012 0.0
N17 N 0.25087 0.31873 0.42473 0.0
C18 C 0.20293 0.2543 0.43367 0.0
C19 C 0.21822 0.21352 0.46006 0.0
C20 C 0.28441 0.23846 0.47479 0.0
C21 C 0.33594 0.30045 0.45864 0.0
C22 C 0.31654 0.33676 0.43135 0.0
H23 H 0.154 0.23416 0.42049 0.0
O24 O 0.06212 0.27241 0.33716 0.0
O25 O 0.17056 0.33293 0.34882 0.0
O26 O 0.10691 0.39502 0.39101 0.0
O27 O 0.20424 0.41201 0.42009 0.0
C28 C 0.40479 0.32048 0.46361 0.0
C29 C 0.45584 0.36777 0.4356 0.0
H30 H 0.48585 0.41346 0.32257 0.0
H31 H 0.48795 0.42035 0.26436 0.0
H32 H 0.17932 0.1627 0.46831 0.0
H33 H 0.296 0.20635 0.49448 0.0
H34 H 0.41871 0.29435 0.48718 0.0
H35 H 0.50629 0.37635 0.43922 0.0
Mn36 Mn 0.75582 0.11808 0.65917 0.0
Mn37 Mn 0.86314 0.25214 0.72139 0.0
C38 C 0.86554 0.13232 0.67296 0.0
C39 C 0.70906 0.06965 0.58564 0.0
C40 C 0.74231 0.13578 0.75677 0.0
O41 O 0.71675 0.18524 0.66255 0.0
O42 O 0.815 0.27737 0.67809 0.0
C43 C 0.95665 0.32508 0.64732 0.0
N44 N 0.94443 0.30885 0.69686 0.0
C45 C 0.05761 0.43085 0.73521 0.0
C46 C 0.09495 0.48076 0.68979 0.0
C47 C 0.06102 0.44826 0.63574 0.0
C48 C 0.9882 0.35228 0.73662 0.0
H49 H 0.93358 0.29932 0.67636 0.0
C50 C 0.75209 0.2494 0.67035 0.0
O51 O 0.67671 0.04494 0.62195 0.0
O52 O 0.76564 0.12516 0.59158 0.0
N53 N 0.91993 0.24816 0.7678 0.0
C54 C 0.92662 0.19608 0.78296 0.0
C55 C 0.97942 0.20875 0.81179 0.0
C56 C 0.02574 0.27512 0.82422 0.0
C57 C 0.02531 0.32903 0.80284 0.0
C58 C 0.97343 0.31258 0.77285 0.0
H59 H 0.89561 0.14628 0.76992 0.0
O60 O 0.81593 0.07655 0.65836 0.0
O61 O 0.84884 0.17759 0.68103 0.0
O62 O 0.73176 0.09314 0.72618 0.0
O63 O 0.77792 0.19847 0.75087 0.0
C64 C 0.08061 0.39605 0.80574 0.0
C65 C 0.09428 0.44662 0.77404 0.0
H66 H 0.08542 0.47422 0.6588 0.0
H67 H 0.08169 0.47386 0.60054 0.0
H68 H 0.98455 0.16739 0.82408 0.0
H69 H 0.06614 0.28414 0.84639 0.0
H70 H 0.1177 0.40811 0.8312 0.0
H71 H 0.14002 0.495 0.77693 0.0
Mn72 Mn 0.634 0.76828 0.98009 0.0
Mn73 Mn 0.65029 0.87226 0.0516 0.0
C74 C 0.73988 0.87687 0.99091 0.0
C75 C 0.63518 0.71692 0.91147 0.0
C76 C 0.6305 0.76252 0.0798 0.0
O77 O 0.53695 0.75067 0.97388 0.0
O78 O 0.54773 0.80332 0.03785 0.0
C79 C 0.61251 0.9378 0.98667 0.0
N80 N 0.62201 0.92795 0.03537 0.0
C81 C 0.58187 0.01647 0.07637 0.0
C82 C 0.56024 0.04665 0.03159 0.0
C83 C 0.56564 0.02171 0.97897 0.0
C84 C 0.6114 0.96188 0.07576 0.0
H85 H 0.62271 0.90989 0.96239 0.0
C86 C 0.51071 0.76759 0.0048 0.0
O87 O 0.61452 0.68262 0.94751 0.0
O88 O 0.65289 0.77968 0.91482 0.0
N89 N 0.68958 0.9349 0.09948 0.0
C90 C 0.75163 0.95603 0.11763 0.0
C91 C 0.7755 0.00461 0.15048 0.0
C92 C 0.73731 0.03396 0.1623 0.0
C93 C 0.67805 0.01822 0.13931 0.0
C94 C 0.65518 0.96723 0.10799 0.0
H95 H 0.78174 0.93489 0.10694 0.0
O96 O 0.73938 0.82045 0.98659 0.0
O97 O 0.68018 0.86708 0.99516 0.0
O98 O 0.5984 0.72882 0.04653 0.0
O99 O 0.68305 0.81365 0.06893 0.0
C100 C 0.64714 0.05737 0.144 0.0
C101 C 0.59948 0.05556 0.11413 0.0
H102 H 0.56332 0.09426 0.03506 0.0
H103 H 0.55932 0.04573 0.95013 0.0
H104 H 0.82327 0.01993 0.16613 0.0
H105 H 0.75625 0.07192 0.18734 0.0
H106 H 0.66482 0.09508 0.16939 0.0
H107 H 0.58395 0.09246 0.11747 0.0
Mn108 Mn 0.87476 0.62667 0.33053 0.0
Mn109 Mn 0.74389 0.60487 0.3888 0.0
C110 C 0.86862 0.72533 0.35071 0.0
C111 C 0.92373 0.6318 0.25742 0.0
C112 C 0.84685 0.58679 0.42531 0.0
O113 O 0.79795 0.5205 0.32707 0.0
O114 O 0.7106 0.53256 0.34462 0.0
C115 C 0.67986 0.63102 0.31846 0.0
N116 N 0.69702 0.63809 0.36693 0.0
C117 C 0.573 0.61606 0.40703 0.0
C118 C 0.52132 0.59918 0.36309 0.0
C119 C 0.55288 0.6007 0.30884 0.0
C120 C 0.65327 0.63244 0.40656 0.0
H121 H 0.71794 0.63483 0.29552 0.0
C122 C 0.73335 0.49546 0.33189 0.0
O123 O 0.94501 0.61772 0.29303 0.0
O124 O 0.87262 0.63943 0.26378 0.0
N125 N 0.75554 0.66881 0.43477 0.0
C126 C 0.80747 0.7298 0.44679 0.0
C127 C 0.79611 0.76925 0.47702 0.0
C128 C 0.73041 0.74852 0.49107 0.0
C129 C 0.67613 0.69249 0.47153 0.0
C130 C 0.69211 0.65694 0.44189 0.0
H131 H 0.85745 0.74478 0.43639 0.0
O132 O 0.92398 0.73021 0.3368 0.0
O133 O 0.81957 0.66355 0.35073 0.0
O134 O 0.89481 0.61917 0.39782 0.0
O135 O 0.78734 0.56062 0.41327 0.0
C136 C 0.60869 0.67809 0.47571 0.0
C137 C 0.55722 0.63691 0.44571 0.0
H138 H 0.52765 0.59692 0.33219 0.0
H139 H 0.5252 0.59289 0.27408 0.0
H140 H 0.83808 0.81353 0.49117 0.0
H141 H 0.72219 0.77927 0.51394 0.0
H142 H 0.59669 0.70345 0.50063 0.0
H143 H 0.50797 0.63133 0.44928 0.0
Mn144 Mn 0.23664 0.85583 0.66192 0.0
Mn145 Mn 0.12491 0.72245 0.72795 0.0
C146 C 0.13252 0.84748 0.68285 0.0
C147 C 0.27767 0.91024 0.58932 0.0
C148 C 0.25707 0.82849 0.75949 0.0
O149 O 0.26482 0.78273 0.65384 0.0
O150 O 0.18093 0.69894 0.6928 0.0
C151 C 0.03697 0.65195 0.65381 0.0
N152 N 0.05092 0.6617 0.70297 0.0
C153 C 0.9419 0.53462 0.73896 0.0
C154 C 0.90208 0.49051 0.69256 0.0
C155 C 0.93207 0.53003 0.63943 0.0
C156 C 0.0105 0.61446 0.74185 0.0
H157 H 0.07319 0.69174 0.63209 0.0
C158 C 0.23335 0.72189 0.66916 0.0
O159 O 0.31466 0.92873 0.62425 0.0
O160 O 0.21848 0.85818 0.5958 0.0
N161 N 0.05862 0.72147 0.76815 0.0
C162 C 0.03536 0.76438 0.77487 0.0
C163 C 0.98091 0.74683 0.8028 0.0
C164 C 0.94453 0.68127 0.81932 0.0
C165 C 0.95768 0.63229 0.8031 0.0
C166 C 0.01439 0.65448 0.77596 0.0
H167 H 0.05623 0.81107 0.75822 0.0
O168 O 0.18402 0.90475 0.67158 0.0
O169 O 0.14423 0.79765 0.68507 0.0
O170 O 0.27517 0.87095 0.72714 0.0
O171 O 0.20098 0.77538 0.76063 0.0
C172 C 0.90887 0.56315 0.80703 0.0
C173 C 0.90322 0.51476 0.77682 0.0
H174 H 0.90976 0.50144 0.66188 0.0
H175 H 0.90995 0.50727 0.60381 0.0
H176 H 0.96522 0.78286 0.80977 0.0
H177 H 0.90069 0.66725 0.83933 0.0
H178 H 0.86868 0.54745 0.83062 0.0
H179 H 0.85976 0.46468 0.77874 0.0
Mn180 Mn 0.37454 0.25298 0.99435 0.0
Mn181 Mn 0.38186 0.12868 0.05118 0.0
C182 C 0.2708 0.15005 0.00999 0.0
C183 C 0.37342 0.30042 0.92038 0.0
C184 C 0.40121 0.25085 0.09123 0.0
O185 O 0.47925 0.2788 0.99532 0.0
O186 O 0.45714 0.17406 0.00878 0.0
C187 C 0.35943 0.04213 0.97791 0.0
N188 N 0.34713 0.04705 0.0258 0.0
C189 C 0.37778 0.94957 0.06395 0.0
C190 C 0.40238 0.92384 0.01854 0.0
C191 C 0.40307 0.95688 0.96677 0.0
C192 C 0.35365 0.00776 0.06449 0.0
H193 H 0.3654 0.08458 0.95974 0.0
C194 C 0.49994 0.23617 0.00193 0.0
O195 O 0.38741 0.33516 0.95605 0.0
O196 O 0.36666 0.24203 0.92728 0.0
N197 N 0.31572 0.07058 0.09478 0.0
C198 C 0.24974 0.05124 0.09736 0.0
C199 C 0.2049 0.9928 0.12132 0.0
C200 C 0.22785 0.95169 0.13943 0.0
C201 C 0.29132 0.96314 0.12703 0.0
C202 C 0.32985 0.02007 0.10104 0.0
H203 H 0.23192 0.08017 0.08115 0.0
O204 O 0.27131 0.20372 0.9967 0.0
O205 O 0.33086 0.15873 0.01396 0.0
O206 O 0.37755 0.27372 0.06178 0.0
O207 O 0.42472 0.21383 0.08158 0.0
C208 C 0.30889 0.91214 0.13046 0.0
C209 C 0.35539 0.90878 0.10156 0.0
H210 H 0.40267 0.87813 0.02048 0.0
H211 H 0.41786 0.94107 0.93748 0.0
H212 H 0.15282 0.97907 0.12512 0.0
H213 H 0.19304 0.9065 0.15722 0.0
H214 H 0.28157 0.87067 0.15308 0.0
H215 H 0.36459 0.86737 0.10488 0.0
Mn216 Mn 0.63453 0.88415 0.33454 0.0
Mn217 Mn 0.60956 0.75099 0.2769 0.0
C218 C 0.73252 0.87275 0.31824 0.0
C219 C 0.63961 0.93239 0.40865 0.0
C220 C 0.57978 0.84874 0.24092 0.0
O221 O 0.52942 0.81261 0.33647 0.0
O222 O 0.54752 0.72786 0.32669 0.0
C223 C 0.63253 0.6826 0.34529 0.0
N224 N 0.64571 0.70482 0.2976 0.0
C225 C 0.61737 0.58068 0.25384 0.0
C226 C 0.59287 0.52459 0.2959 0.0
C227 C 0.59147 0.55216 0.35089 0.0
C228 C 0.6397 0.66266 0.25677 0.0
H229 H 0.6382 0.72002 0.3694 0.0
C230 C 0.50662 0.74885 0.33223 0.0
O231 O 0.62827 0.95561 0.37289 0.0
O232 O 0.64456 0.87975 0.40196 0.0
N233 N 0.66863 0.76267 0.22748 0.0
C234 C 0.72737 0.81586 0.21317 0.0
C235 C 0.76817 0.80546 0.18332 0.0
C236 C 0.7482 0.73998 0.16914 0.0
C237 C 0.69335 0.68507 0.18946 0.0
C238 C 0.65941 0.7004 0.22075 0.0
H239 H 0.74409 0.86588 0.22513 0.0
O240 O 0.73901 0.92892 0.3316 0.0
O241 O 0.67007 0.82821 0.31246 0.0
O242 O 0.62124 0.89825 0.266 0.0
O243 O 0.55963 0.78968 0.25237 0.0
C244 C 0.67903 0.61761 0.18478 0.0
C245 C 0.63747 0.56545 0.21457 0.0
H246 H 0.58833 0.52882 0.32686 0.0
H247 H 0.57758 0.52072 0.38466 0.0
H248 H 0.81404 0.84804 0.17095 0.0
H249 H 0.77922 0.7324 0.14611 0.0
H250 H 0.70347 0.60583 0.15908 0.0
H251 H 0.62988 0.5155 0.20995 0.0
Mn252 Mn 0.73689 0.62951 0.67122 0.0
Mn253 Mn 0.84618 0.60414 0.62092 0.0
C254 C 0.84756 0.72424 0.66401 0.0
C255 C 0.68957 0.63135 0.74177 0.0
C256 C 0.73366 0.59185 0.57935 0.0
O257 O 0.70151 0.52167 0.67382 0.0
O258 O 0.80224 0.53046 0.66457 0.0
C259 C 0.93936 0.60557 0.68446 0.0
N260 N 0.92886 0.62811 0.63925 0.0
C261 C 0.01599 0.59957 0.58458 0.0
C262 C 0.04556 0.56438 0.6217 0.0
C263 C 0.02026 0.55687 0.67889 0.0
C264 C 0.96126 0.62639 0.5945 0.0
H265 H 0.91998 0.62296 0.66001 0.0
C266 C 0.73987 0.49491 0.67401 0.0
O267 O 0.65655 0.6231 0.7056 0.0
O268 O 0.74585 0.63341 0.73688 0.0
N269 N 0.90135 0.67582 0.57795 0.0
C270 C 0.91487 0.7407 0.57261 0.0
C271 C 0.96851 0.7858 0.54551 0.0
C272 C 0.01088 0.76567 0.5262 0.0
C273 C 0.00251 0.70242 0.53675 0.0
C274 C 0.94966 0.66197 0.5649 0.0
H275 H 0.8823 0.75684 0.58594 0.0
O276 O 0.79764 0.7336 0.67121 0.0
O277 O 0.83011 0.66137 0.66016 0.0
O278 O 0.72081 0.63143 0.60098 0.0
O279 O 0.75599 0.5633 0.60096 0.0
C280 C 0.05023 0.68306 0.52534 0.0
C281 C 0.05315 0.6292 0.54648 0.0
H282 H 0.03877 0.55526 0.65286 0.0
H283 H 0.03988 0.5411 0.71031 0.0
H284 H 0.97704 0.83591 0.53947 0.0
H285 H 0.05239 0.80094 0.50589 0.0
H286 H 0.08882 0.71294 0.50159 0.0
H287 H 0.09272 0.6194 0.53753 0.0
Mn288 Mn 0.12118 0.75501 0.01055 0.0
Mn289 Mn 0.21416 0.85983 0.93383 0.0
C290 C 0.13182 0.86688 0.99732 0.0
C291 C 0.06721 0.7089 0.08312 0.0
C292 C 0.1213 0.74903 0.9102 0.0
O293 O 0.19933 0.73572 0.01826 0.0
O294 O 0.24766 0.7951 0.95707 0.0
C295 C 0.31389 0.93983 0.00043 0.0
N296 N 0.29655 0.93058 0.95123 0.0
C297 C 0.41996 0.04586 0.91498 0.0
C298 C 0.47087 0.07453 0.96051 0.0
C299 C 0.44014 0.03962 0.01142 0.0
C300 C 0.33783 0.97815 0.91352 0.0
H301 H 0.2769 0.9062 0.02418 0.0
C302 C 0.24541 0.75576 0.98879 0.0
O303 O 0.05204 0.67232 0.04824 0.0
O304 O 0.11491 0.77014 0.07634 0.0
N305 N 0.20139 0.92534 0.90273 0.0
C306 C 0.12895 0.93908 0.90644 0.0
C307 C 0.14756 0.03843 0.90412 0.0
C308 C 0.24802 0.11568 0.89528 0.0
C309 C 0.32049 0.08732 0.89001 0.0
C310 C 0.29037 0.9885 0.89409 0.0
H311 H 0.07917 0.89769 0.91399 0.0
O312 O 0.0734 0.81334 0.00363 0.0
O313 O 0.17715 0.85242 0.99103 0.0
O314 O 0.11902 0.71472 0.94376 0.0
O315 O 0.12037 0.7981 0.92217 0.0
C316 C 0.38943 0.12769 0.88201 0.0
C317 C 0.4344 0.10233 0.88769 0.0
H318 H 0.51827 0.12156 0.95874 0.0
H319 H 0.4655 0.06623 0.04106 0.0
H320 H 0.10739 0.04933 0.90732 0.0
H321 H 0.26131 0.16668 0.89178 0.0
H322 H 0.40954 0.17976 0.87258 0.0
H323 H 0.48703 0.13969 0.88327 0.0
Mn324 Mn 0.34755 0.11513 0.34767 0.0
Mn325 Mn 0.33778 0.21808 0.27407 0.0
C326 C 0.25262 0.1305 0.34337 0.0
C327 C 0.3455 0.06011 0.41755 0.0
C328 C 0.3267 0.10716 0.24869 0.0
O329 O 0.44842 0.18924 0.34844 0.0
O330 O 0.43377 0.23734 0.28851 0.0
C331 C 0.38197 0.3266 0.3354 0.0
N332 N 0.37158 0.30553 0.2874 0.0
C333 C 0.39444 0.42943 0.24479 0.0
C334 C 0.41901 0.48481 0.28743 0.0
C335 C 0.42 0.45519 0.34231 0.0
C336 C 0.36983 0.34549 0.24724 0.0
H337 H 0.37479 0.28865 0.35972 0.0
C338 C 0.47235 0.23586 0.31891 0.0
O339 O 0.35646 0.04078 0.38033 0.0
O340 O 0.34029 0.11334 0.41462 0.0
N341 N 0.27811 0.23571 0.23888 0.0
C342 C 0.21114 0.19491 0.2316 0.0
C343 C 0.17585 0.21919 0.20772 0.0
C344 C 0.21018 0.28413 0.18974 0.0
C345 C 0.27872 0.3274 0.19885 0.0
C346 C 0.31184 0.30163 0.22414 0.0
H347 H 0.18468 0.14441 0.24505 0.0
O348 O 0.24431 0.07063 0.34808 0.0
O349 O 0.31346 0.17781 0.33406 0.0
O350 O 0.36302 0.10199 0.27848 0.0
O351 O 0.28757 0.12276 0.26308 0.0
C352 C 0.31021 0.39659 0.18788 0.0
C353 C 0.3681 0.44639 0.20923 0.0
H354 H 0.42341 0.48019 0.31848 0.0
H355 H 0.43041 0.48409 0.37653 0.0
H356 H 0.12232 0.1872 0.20245 0.0
H357 H 0.18191 0.30202 0.17146 0.0
H358 H 0.28466 0.41361 0.16605 0.0
H359 H 0.38286 0.49861 0.20381 0.0
Mn360 Mn 0.24072 0.35013 0.66916 0.0
Mn361 Mn 0.12274 0.332 0.60265 0.0
C362 C 0.13957 0.24362 0.65959 0.0
C363 C 0.2915 0.34975 0.74148 0.0
C364 C 0.22716 0.34404 0.56801 0.0
O365 O 0.25549 0.44534 0.67649 0.0
O366 O 0.19595 0.43103 0.61586 0.0
C367 C 0.05607 0.36705 0.67492 0.0
N368 N 0.06401 0.35246 0.62611 0.0
C369 C 0.97142 0.38599 0.58208 0.0
C370 C 0.94669 0.41702 0.62383 0.0
C371 C 0.97606 0.41707 0.6789 0.0
C372 C 0.02455 0.35515 0.58499 0.0
H373 H 0.0737 0.35349 0.64743 0.0
C374 C 0.23339 0.4691 0.64718 0.0
O375 O 0.32695 0.37066 0.70586 0.0
O376 O 0.2299 0.33293 0.73499 0.0
N377 N 0.04065 0.26432 0.57618 0.0
C378 C 0.01813 0.19997 0.56477 0.0
C379 C 0.95705 0.16418 0.54185 0.0
C380 C 0.92319 0.19726 0.52771 0.0
C381 C 0.94808 0.265 0.53837 0.0
C382 C 0.00734 0.29697 0.56289 0.0
H383 H 0.05061 0.17977 0.56868 0.0
O384 O 0.19769 0.24789 0.66323 0.0
O385 O 0.14132 0.30064 0.65673 0.0
O386 O 0.2679 0.37817 0.59925 0.0
O387 O 0.17609 0.2952 0.58144 0.0
C388 C 0.91249 0.29848 0.52777 0.0
C389 C 0.92567 0.35906 0.54772 0.0
H390 H 0.95629 0.42174 0.65477 0.0
H391 H 0.95971 0.43064 0.7127 0.0
H392 H 0.93906 0.11299 0.53164 0.0
H393 H 0.87757 0.16969 0.5088 0.0
H394 H 0.86908 0.27384 0.50648 0.0
H395 H 0.89055 0.37649 0.5422 0.0
Mn396 Mn 0.90496 0.25811 0.99449 0.0
Mn397 Mn 0.75722 0.11319 0.95954 0.0
C398 C 0.91334 0.15463 0.9766 0.0
C399 C 0.94766 0.29932 0.07096 0.0
C400 C 0.85372 0.23359 0.91598 0.0
O401 O 0.82394 0.27996 0.9982 0.0
O402 O 0.74297 0.17311 0.00143 0.0
C403 C 0.65228 0.03598 0.01487 0.0
N404 N 0.67417 0.05065 0.96731 0.0
C405 C 0.5571 0.94432 0.92287 0.0
C406 C 0.50251 0.90551 0.96596 0.0
C407 C 0.52801 0.93312 0.01941 0.0
C408 C 0.63787 0.01122 0.92617 0.0
H409 H 0.68483 0.07058 0.03949 0.0
C410 C 0.7603 0.23561 0.99873 0.0
O411 O 0.96814 0.33798 0.03665 0.0
O412 O 0.90194 0.23911 0.06124 0.0
N413 N 0.75262 0.05306 0.91329 0.0
C414 C 0.80159 0.04238 0.89822 0.0
C415 C 0.78633 0.99125 0.86797 0.0
C416 C 0.72013 0.95071 0.8532 0.0
C417 C 0.66845 0.95944 0.86986 0.0
C418 C 0.6866 0.01194 0.89977 0.0
H419 H 0.8528 0.07674 0.90637 0.0
O420 O 0.96398 0.21191 0.98836 0.0
O421 O 0.85954 0.1612 0.97199 0.0
O422 O 0.90914 0.2863 0.92597 0.0
O423 O 0.83922 0.18921 0.94473 0.0
C424 C 0.60003 0.91239 0.86047 0.0
C425 C 0.54575 0.90586 0.8855 0.0
H426 H 0.45463 0.86089 0.95987 0.0
H427 H 0.49735 0.90598 0.04769 0.0
H428 H 0.82597 0.98404 0.85535 0.0
H429 H 0.70905 0.91068 0.83038 0.0
H430 H 0.58844 0.87468 0.83571 0.0
H431 H 0.49617 0.86286 0.87978 0.0
C432 C 0.35648 0.58747 0.29048 0.0
C433 C 0.30543 0.57322 0.32065 0.0
C434 C 0.41903 0.64748 0.29242 0.0
C435 C 0.43381 0.69709 0.32444 0.0
H436 H 0.34978 0.54947 0.2672 0.0
H437 H 0.45782 0.65312 0.27006 0.0
S438 S 0.31168 0.69192 0.40463 0.0
N439 N 0.26989 0.61858 0.37947 0.0
N440 N 0.38698 0.7328 0.38183 0.0
C441 C 0.3805 0.68732 0.35146 0.0
C442 C 0.31657 0.62508 0.34998 0.0
C443 C 0.7192 0.32872 0.63334 0.0
C444 C 0.72335 0.29638 0.67151 0.0
C445 C 0.71491 0.38829 0.63494 0.0
C446 C 0.71447 0.41956 0.6745 0.0
H447 H 0.72486 0.31115 0.60185 0.0
H448 H 0.7181 0.41381 0.60469 0.0
S449 S 0.71962 0.35352 0.78418 0.0
N450 N 0.72262 0.2992 0.75069 0.0
N451 N 0.71527 0.41009 0.75305 0.0
C452 C 0.71488 0.38569 0.71282 0.0
C453 C 0.71914 0.32492 0.71141 0.0
C454 C 0.40467 0.76224 0.03714 0.0
C455 C 0.43572 0.74829 0.00222 0.0
C456 C 0.3397 0.75546 0.03394 0.0
C457 C 0.30389 0.74109 0.99418 0.0
H458 H 0.43262 0.78299 0.06684 0.0
H459 H 0.32102 0.76943 0.06183 0.0
S460 S 0.34771 0.67401 0.89725 0.0
N461 N 0.413 0.69794 0.92997 0.0
N462 N 0.29598 0.69195 0.92295 0.0
C463 C 0.33019 0.71906 0.96039 0.0
C464 C 0.39461 0.72164 0.96451 0.0
C465 C 0.57788 0.33751 0.28393 0.0
C466 C 0.54635 0.29454 0.32049 0.0
C467 C 0.64175 0.3985 0.28656 0.0
C468 C 0.679 0.42099 0.32584 0.0
H469 H 0.55156 0.32546 0.25301 0.0
H470 H 0.6602 0.43053 0.2579 0.0
S471 S 0.61924 0.32997 0.43186 0.0
N472 N 0.55933 0.2809 0.39757 0.0
N473 N 0.67622 0.39435 0.40285 0.0
C474 C 0.64846 0.37796 0.36243 0.0
C475 C 0.58384 0.31551 0.35965 0.0
C476 C 0.26163 0.6357 0.69652 0.0
C477 C 0.25474 0.67124 0.66091 0.0
C478 C 0.25996 0.57371 0.69123 0.0
C479 C 0.24836 0.54202 0.65019 0.0
H480 H 0.26461 0.6542 0.72935 0.0
H481 H 0.26283 0.54807 0.72021 0.0
S482 S 0.23193 0.61783 0.54617 0.0
N483 N 0.24155 0.67343 0.58322 0.0
N484 N 0.2345 0.55652 0.57278 0.0
C485 C 0.24425 0.57921 0.61421 0.0
C486 C 0.24837 0.64351 0.61965 0.0
C487 C 0.65585 0.22432 0.03733 0.0
C488 C 0.704 0.25415 0.00361 0.0
C489 C 0.59402 0.22458 0.03773 0.0
C490 C 0.57435 0.2539 0.00412 0.0
H491 H 0.66455 0.1972 0.06311 0.0
H492 H 0.5591 0.19776 0.06403 0.0
S493 S 0.68518 0.35093 0.91147 0.0
N494 N 0.73069 0.32585 0.93893 0.0
N495 N 0.61326 0.32072 0.93799 0.0
C496 C 0.62371 0.2886 0.97171 0.0
C497 C 0.68822 0.29017 0.97193 0.0
C498 C 0.18017 0.23598 0.31465 0.0
C499 C 0.12398 0.21501 0.33907 0.0
C500 C 0.22019 0.21073 0.32393 0.0
C501 C 0.19845 0.14777 0.34118 0.0
H502 H 0.20056 0.28107 0.29474 0.0
H503 H 0.2688 0.24135 0.31472 0.0
S504 S 0.02795 0.04317 0.38705 0.0
N505 N 0.03207 0.11548 0.37502 0.0
N506 N 0.10024 0.04996 0.37261 0.0
C507 C 0.13147 0.1134 0.35631 0.0
C508 C 0.09425 0.14895 0.35723 0.0
C509 C 0.98388 0.19495 0.70038 0.0
C510 C 0.93586 0.14336 0.67521 0.0
C511 C 0.0479 0.20664 0.70728 0.0
C512 C 0.07613 0.18571 0.67575 0.0
H513 H 0.97555 0.23184 0.71168 0.0
H514 H 0.0801 0.24833 0.72858 0.0
S515 S 0.97774 0.04657 0.59799 0.0
N516 N 0.92048 0.05833 0.62212 0.0
N517 N 0.0511 0.10071 0.62042 0.0
C518 C 0.03099 0.13124 0.64938 0.0
C519 C 0.95973 0.10823 0.65031 0.0
C520 C 0.90785 0.03989 0.95934 0.0
C521 C 0.90813 0.08763 0.98878 0.0
C522 C 0.85869 0.96934 0.96378 0.0
C523 C 0.80338 0.94784 0.99275 0.0
H524 H 0.93977 0.05716 0.93075 0.0
H525 H 0.85852 0.93415 0.94049 0.0
S526 S 0.79355 0.07648 0.06018 0.0
N527 N 0.87362 0.10547 0.0559 0.0
N528 N 0.756 0.00481 0.03267 0.0
C529 C 0.80881 0.00042 0.01956 0.0
C530 C 0.8716 0.06096 0.02631 0.0
C531 C 0.80404 0.82437 0.2917 0.0
C532 C 0.78663 0.85444 0.32457 0.0
C533 C 0.82996 0.78245 0.30052 0.0
C534 C 0.85422 0.78094 0.34193 0.0
H535 H 0.81685 0.84784 0.26067 0.0
H536 H 0.83555 0.75482 0.27398 0.0
S537 S 0.88732 0.91091 0.4255 0.0
N538 N 0.82967 0.91119 0.39349 0.0
N539 N 0.90425 0.85466 0.40522 0.0
C540 C 0.8611 0.83192 0.37096 0.0
C541 C 0.82279 0.86501 0.3636 0.0
C542 C 0.01577 0.76555 0.68002 0.0
C543 C 0.06154 0.83291 0.67987 0.0
C544 C 0.95127 0.74327 0.6935 0.0
C545 C 0.91891 0.77361 0.67547 0.0
H546 H 0.01956 0.74589 0.64942 0.0
H547 H 0.92333 0.69629 0.71091 0.0
S548 S 0.00901 0.95935 0.66536 0.0
N549 N 0.07043 0.94307 0.67286 0.0
N550 N 0.93709 0.88668 0.66226 0.0
C551 C 0.96069 0.84427 0.66882 0.0
C552 C 0.0336 0.87511 0.67419 0.0
C553 C 0.15142 0.04335 0.01502 0.0
C554 C 0.216 0.08349 0.996 0.0
C555 C 0.11841 0.97147 0.01307 0.0
C556 C 0.15134 0.94044 0.99367 0.0
H557 H 0.13013 0.06666 0.03476 0.0
H558 H 0.07115 0.94109 0.02991 0.0
S559 S 0.21443 0.01399 0.85865 0.0
N560 N 0.22847 0.02202 0.93148 0.0
N561 N 0.22881 0.02239 0.93279 0.0
C562 C 0.21489 0.98393 0.97267 0.0
C563 C 0.24355 0.05193 0.97164 0.0
C564 C 0.0414 0.37573 0.12639 0.0
C565 C 0.97645 0.31972 0.11798 0.0
C566 C 0.07095 0.39103 0.16915 0.0
C567 C 0.03668 0.35279 0.20672 0.0
H568 H 0.07097 0.40712 0.09934 0.0
H569 H 0.12159 0.4333 0.17272 0.0
S570 S 0.8646 0.20335 0.20521 0.0
N571 N 0.87883 0.22665 0.15337 0.0
N572 N 0.93274 0.25732 0.23217 0.0
C573 C 0.97116 0.29825 0.19919 0.0
C574 C 0.94169 0.2814 0.15565 0.0
C575 C 0.71938 0.06779 0.50129 0.0
C576 C 0.68627 0.03432 0.54049 0.0
C577 C 0.70277 0.03565 0.45951 0.0
C578 C 0.6526 0.96712 0.45377 0.0
H579 H 0.75903 0.11996 0.50276 0.0
H580 H 0.73112 0.06474 0.43138 0.0
S581 S 0.54624 0.85545 0.54413 0.0
N582 N 0.59655 0.92744 0.56893 0.0
N583 N 0.56778 0.86771 0.49205 0.0
C584 C 0.61833 0.93301 0.49246 0.0
C585 C 0.63423 0.96615 0.53495 0.0
C586 C 0.71127 0.70997 0.85534 0.0
C587 C 0.64556 0.68887 0.86969 0.0
C588 C 0.7238 0.6892 0.81491 0.0
C589 C 0.67145 0.64769 0.78576 0.0
H590 H 0.75377 0.74349 0.87551 0.0
H591 H 0.77568 0.70779 0.80587 0.0
S592 S 0.48944 0.5737 0.80911 0.0
N593 N 0.52681 0.61946 0.85278 0.0
N594 N 0.55022 0.58303 0.77616 0.0
C595 C 0.6052 0.62498 0.80011 0.0
C596 C 0.59236 0.64477 0.84208 0.0
C597 C 0.0387 0.73362 0.15935 0.0
C598 C 0.03042 0.68538 0.12764 0.0
C599 C 0.00476 0.7157 0.20038 0.0
C600 C 0.96086 0.64809 0.21328 0.0
H601 H 0.07133 0.78665 0.15218 0.0
H602 H 0.01311 0.75578 0.22239 0.0
S603 S 0.92074 0.49997 0.14435 0.0
N604 N 0.97319 0.56481 0.11363 0.0
N605 N 0.91168 0.53192 0.1902 0.0
C606 C 0.95231 0.59884 0.18238 0.0
C607 C 0.98622 0.61711 0.14007 0.0
C608 C 0.28621 0.95141 0.46431 0.0
C609 C 0.33373 0.0212 0.46068 0.0
C610 C 0.26899 0.91641 0.50528 0.0
C611 C 0.29976 0.94832 0.54517 0.0
H612 H 0.25997 0.92383 0.43533 0.0
H613 H 0.23071 0.86354 0.50564 0.0
S614 S 0.43087 0.12997 0.55362 0.0
N615 N 0.41225 0.12018 0.5011 0.0
N616 N 0.38327 0.05531 0.57662 0.0
C617 C 0.3492 0.01772 0.5415 0.0
C618 C 0.36512 0.05363 0.49999 0.0
C619 C 0.4023 0.36137 0.84405 0.0
C620 C 0.35425 0.31962 0.87602 0.0
C621 C 0.38345 0.37195 0.80106 0.0
C622 C 0.31528 0.34011 0.787 0.0
H623 H 0.45524 0.38566 0.85208 0.0
H624 H 0.42277 0.40511 0.77868 0.0
S625 S 0.16902 0.22661 0.85705 0.0
N626 N 0.23421 0.25219 0.89003 0.0
N627 N 0.20049 0.26262 0.80956 0.0
C628 C 0.2674 0.2982 0.81865 0.0
C629 C 0.2862 0.2905 0.86266 0.0
C630 C 0.18788 0.45826 0.49504 0.0
C631 C 0.13424 0.41021 0.46863 0.0
C632 C 0.22422 0.4393 0.52394 0.0
C633 C 0.2053 0.37138 0.52978 0.0
H634 H 0.20974 0.51102 0.48689 0.0
H635 H 0.26795 0.47758 0.54094 0.0
S636 S 0.06196 0.22808 0.4705 0.0
N637 N 0.05474 0.29344 0.45794 0.0
N638 N 0.12742 0.25723 0.50373 0.0
C639 C 0.14767 0.32381 0.50531 0.0
C640 C 0.10728 0.34308 0.48055 0.0
C641 C 0.83438 0.16516 0.85167 0.0
C642 C 0.81898 0.20864 0.87337 0.0
C643 C 0.79147 0.11843 0.82012 0.0
C644 C 0.73606 0.12024 0.80389 0.0
H645 H 0.87804 0.1633 0.86222 0.0
H646 H 0.8052 0.08489 0.80503 0.0
S647 S 0.65009 0.19113 0.86673 0.0
N648 N 0.72411 0.22228 0.89093 0.0
N649 N 0.651 0.14616 0.8253 0.0
C650 C 0.71298 0.15398 0.83043 0.0
C651 C 0.7536 0.19688 0.86552 0.0
C652 C 0.64193 0.86436 0.17782 0.0
C653 C 0.57994 0.84831 0.19241 0.0
C654 C 0.6506 0.82488 0.14715 0.0
C655 C 0.60079 0.77642 0.12064 0.0
H656 H 0.68527 0.90288 0.19483 0.0
H657 H 0.70121 0.83884 0.1404 0.0
S658 S 0.4203 0.71187 0.14421 0.0
N659 N 0.46008 0.77286 0.18012 0.0
N660 N 0.47873 0.71067 0.11358 0.0
C661 C 0.53507 0.76118 0.13207 0.0
C662 C 0.52483 0.79618 0.16839 0.0
C663 C 0.85554 0.65032 0.489 0.0
C664 C 0.85001 0.59115 0.47321 0.0
C665 C 0.80597 0.64992 0.51679 0.0
C666 C 0.75214 0.59138 0.53302 0.0
H667 H 0.89678 0.69746 0.47736 0.0
H668 H 0.81216 0.69614 0.52904 0.0
S669 S 0.72541 0.42068 0.51244 0.0
N670 N 0.79502 0.47109 0.48546 0.0
N671 N 0.69951 0.46942 0.53342 0.0
C672 C 0.74828 0.53088 0.51904 0.0
C673 C 0.80091 0.53168 0.49372 0.0
C674 C 0.22303 0.7593 0.86492 0.0
C675 C 0.16967 0.7714 0.87105 0.0
C676 C 0.27455 0.79655 0.83321 0.0
C677 C 0.27391 0.84703 0.80591 0.0
H678 H 0.22289 0.71933 0.88316 0.0
H679 H 0.30899 0.77915 0.82554 0.0
S680 S 0.14803 0.89544 0.80457 0.0
N681 N 0.11985 0.83411 0.84099 0.0
N682 N 0.22537 0.91529 0.79403 0.0
C683 C 0.23058 0.86889 0.81888 0.0
C684 C 0.17247 0.82368 0.84422 0.0
C685 C 0.41679 0.1945 0.19861 0.0
C686 C 0.35012 0.14242 0.20541 0.0
C687 C 0.43262 0.24469 0.16646 0.0
C688 C 0.38327 0.24289 0.13775 0.0
H689 H 0.45692 0.19744 0.21864 0.0
H690 H 0.48525 0.28045 0.16028 0.0
S691 S 0.19948 0.12756 0.14741 0.0
N692 N 0.23296 0.09905 0.18354 0.0
N693 N 0.26419 0.1939 0.12472 0.0
C694 C 0.31637 0.19571 0.1469 0.0
C695 C 0.29994 0.1438 0.17859 0.0
loop_
_geom_bond_atom_site_label_1
_geom_bond_atom_site_label_2
_geom_bond_distance
_geom_bond_site_symmetry_2
_ccdc_geom_bond_type
Mn0 O5 2.095 . S
Mn0 O15 2.162 . S
Mn0 O16 2.297 . S
Mn0 O24 2.385 . S
Mn0 O25 2.209 . S
Mn0 O26 2.094 . S
Mn1 O6 2.121 . S
Mn1 N8 2.257 . S
Mn1 N17 2.282 . S
Mn1 O25 2.215 . S
Mn1 O27 2.117 . S
C2 O24 1.234 . S
C2 O25 1.283 . S
C3 O15 1.281 . S
C3 O16 1.236 . S
C4 O26 1.240 . S
C4 O27 1.264 . S
O5 Mn0 2.095 . S
O5 C14 1.250 . S
O6 Mn1 2.121 . S
O6 C14 1.258 . S
C7 N8 1.326 . S
C7 C11 1.460 . S
C7 H13 0.929 . S
N8 Mn1 2.257 . S
N8 C7 1.326 . S
N8 C12 1.362 . S
C9 C10 1.258 . S
C9 C12 1.431 . S
C9 C29 1.449 . S
C10 C9 1.258 . S
C10 C11 1.477 . S
C10 H30 0.931 . S
C11 C7 1.460 . S
C11 C10 1.477 . S
C11 H31 0.930 . S
C12 N8 1.362 . S
C12 C9 1.431 . S
C12 C22 1.476 . S
H13 C7 0.929 . S
C14 O5 1.250 . S
C14 O6 1.258 . S
O15 Mn0 2.162 . S
O15 C3 1.281 . S
O16 Mn0 2.297 . S
O16 C3 1.236 . S
N17 Mn1 2.282 . S
N17 C18 1.328 . S
N17 C22 1.318 . S
C18 N17 1.328 . S
C18 C19 1.457 . S
C18 H23 0.929 . S
C19 C18 1.457 . S
C19 C20 1.291 . S
C19 H32 0.931 . S
C20 C19 1.291 . S
C20 C21 1.373 . S
C20 H33 0.929 . S
C21 C20 1.373 . S
C21 C22 1.396 . S
C21 C28 1.403 . S
C22 C12 1.476 . S
C22 N17 1.318 . S
C22 C21 1.396 . S
H23 C18 0.929 . S
O24 Mn0 2.385 . S
O24 C2 1.234 . S
O25 Mn0 2.209 . S
O25 Mn1 2.215 . S
O25 C2 1.283 . S
O26 Mn0 2.094 . S
O26 C4 1.240 . S
O27 Mn1 2.117 . S
O27 C4 1.264 . S
C28 C21 1.403 . S
C28 C29 1.399 . S
C28 H34 0.929 . S
C29 C9 1.449 . S
C29 C28 1.399 . S
C29 H35 0.930 . S
H30 C10 0.931 . S
H31 C11 0.930 . S
H32 C19 0.931 . S
H33 C20 0.929 . S
H34 C28 0.929 . S
H35 C29 0.930 . S
Mn36 O41 2.095 . S
Mn36 O51 2.162 . S
Mn36 O52 2.297 . S
Mn36 O60 2.385 . S
Mn36 O61 2.209 . S
Mn36 O62 2.094 . S
Mn37 O42 2.121 . S
Mn37 N44 2.257 . S
Mn37 N53 2.282 . S
Mn37 O61 2.215 . S
Mn37 O63 2.117 . S
C38 O60 1.234 . S
C38 O61 1.283 . S
C39 O51 1.281 . S
C39 O52 1.236 . S
C40 O62 1.240 . S
C40 O63 1.264 . S
O41 Mn36 2.095 . S
O41 C50 1.250 . S
O42 Mn37 2.121 . S
O42 C50 1.258 . S
C43 N44 1.326 . S
C43 C47 1.460 . S
C43 H49 0.929 . S
N44 Mn37 2.257 . S
N44 C43 1.326 . S
N44 C48 1.348 1_655 S
C45 C46 1.258 . S
C45 C48 1.439 . S
C45 C65 1.449 . S
C46 C45 1.258 . S
C46 C47 1.477 1_455 S
C46 H66 0.931 . S
C47 C43 1.460 . S
C47 C46 1.477 1_655 S
C47 H67 0.930 . S
C48 N44 1.348 1_455 S
C48 C45 1.439 . S
C48 C58 1.483 . S
H49 C43 0.929 . S
C50 O41 1.250 . S
C50 O42 1.258 . S
O51 Mn36 2.162 . S
O51 C39 1.281 . S
O52 Mn36 2.297 . S
O52 C39 1.236 . S
N53 Mn37 2.282 . S
N53 C54 1.328 . S
N53 C58 1.318 1_655 S
C54 N53 1.328 . S
C54 C55 1.457 1_655 S
C54 H59 0.929 . S
C55 C54 1.457 1_455 S
C55 C56 1.291 . S
C55 H68 0.931 . S
C56 C55 1.291 . S
C56 C57 1.373 . S
C56 H69 0.929 . S
C57 C56 1.373 . S
C57 C58 1.396 . S
C57 C64 1.403 . S
C58 C48 1.483 . S
C58 N53 1.318 1_455 S
C58 C57 1.396 . S
H59 C54 0.929 . S
O60 Mn36 2.385 . S
O60 C38 1.234 . S
O61 Mn36 2.209 . S
O61 Mn37 2.215 . S
O61 C38 1.283 . S
O62 Mn36 2.094 . S
O62 C40 1.240 . S
O63 Mn37 2.117 . S
O63 C40 1.264 . S
C64 C57 1.403 . S
C64 C65 1.399 . S
C64 H70 0.929 . S
C65 C45 1.449 . S
C65 C64 1.399 . S
C65 H71 0.930 . S
H66 C46 0.931 . S
H67 C47 0.930 . S
H68 C55 0.931 . S
H69 C56 0.929 . S
H70 C64 0.929 . S
H71 C65 0.930 . S
Mn72 O77 2.095 1_556 S
Mn72 O87 2.162 . S
Mn72 O88 2.297 . S
Mn72 O96 2.385 . S
Mn72 O97 2.209 . S
Mn72 O98 2.094 1_556 S
Mn73 O78 2.121 . S
Mn73 N80 2.257 . S
Mn73 N89 2.282 . S
Mn73 O97 2.215 1_554 S
Mn73 O99 2.117 . S
C74 O96 1.234 . S
C74 O97 1.283 . S
C75 O87 1.281 . S
C75 O88 1.236 . S
C76 O98 1.240 . S
C76 O99 1.264 . S
O77 Mn72 2.095 1_554 S
O77 C86 1.250 1_554 S
O78 Mn73 2.121 . S
O78 C86 1.258 1_554 S
C79 N80 1.326 1_556 S
C79 C83 1.460 . S
C79 H85 0.929 . S
N80 Mn73 2.257 . S
N80 C79 1.326 1_554 S
N80 C84 1.372 . S
C81 C82 1.258 . S
C81 C84 1.415 1_545 S
C81 C101 1.449 . S
C82 C81 1.258 . S
C82 C83 1.477 1_544 S
C82 H102 0.931 1_554 S
C83 C79 1.460 . S
C83 C82 1.477 1_566 S
C83 H103 0.930 . S
C84 N80 1.372 . S
C84 C81 1.415 1_565 S
C84 C94 1.486 1_565 S
H85 C79 0.929 . S
C86 O77 1.250 1_556 S
C86 O78 1.258 1_556 S
O87 Mn72 2.162 . S
O87 C75 1.281 . S
O88 Mn72 2.297 . S
O88 C75 1.236 . S
N89 Mn73 2.282 . S
N89 C90 1.328 . S
N89 C94 1.309 1_565 S
C90 N89 1.328 . S
C90 C91 1.457 1_565 S
C90 H95 0.929 . S
C91 C90 1.457 1_545 S
C91 C92 1.291 . S
C91 H104 0.931 . S
C92 C91 1.291 . S
C92 C93 1.373 . S
C92 H105 0.929 . S
C93 C92 1.373 . S
C93 C94 1.401 . S
C93 C100 1.403 . S
C94 C84 1.486 1_545 S
C94 N89 1.309 1_545 S
C94 C93 1.401 . S
H95 C90 0.929 . S
O96 Mn72 2.385 . S
O96 C74 1.234 . S
O97 Mn72 2.209 . S
O97 Mn73 2.215 1_556 S
O97 C74 1.283 . S
O98 Mn72 2.094 1_554 S
O98 C76 1.240 . S
O99 Mn73 2.117 . S
O99 C76 1.264 . S
C100 C93 1.403 . S
C100 C101 1.399 . S
C100 H106 0.929 . S
C101 C81 1.449 . S
C101 C100 1.399 . S
C101 H107 0.930 . S
H102 C82 0.931 1_556 S
H103 C83 0.930 . S
H104 C91 0.931 . S
H105 C92 0.929 . S
H106 C100 0.929 . S
H107 C101 0.930 . S
Mn108 O113 2.095 . S
Mn108 O123 2.162 . S
Mn108 O124 2.297 . S
Mn108 O132 2.385 . S
Mn108 O133 2.209 . S
Mn108 O134 2.094 . S
Mn109 O114 2.121 . S
Mn109 N116 2.257 . S
Mn109 N125 2.282 . S
Mn109 O133 2.215 . S
Mn109 O135 2.117 . S
C110 O132 1.234 . S
C110 O133 1.283 . S
C111 O123 1.281 . S
C111 O124 1.236 . S
C112 O134 1.240 . S
C112 O135 1.264 . S
O113 Mn108 2.095 . S
O113 C122 1.250 . S
O114 Mn109 2.121 . S
O114 C122 1.258 . S
C115 N116 1.326 . S
C115 C119 1.460 . S
C115 H121 0.929 . S
N116 Mn109 2.257 . S
N116 C115 1.326 . S
N116 C120 1.362 . S
C117 C118 1.258 . S
C117 C120 1.431 . S
C117 C137 1.449 . S
C118 C117 1.258 . S
C118 C119 1.477 . S
C118 H138 0.931 . S
C119 C115 1.460 . S
C119 C118 1.477 . S
C119 H139 0.930 . S
C120 N116 1.362 . S
C120 C117 1.431 . S
C120 C130 1.476 . S
H121 C115 0.929 . S
C122 O113 1.250 . S
C122 O114 1.258 . S
O123 Mn108 2.162 . S
O123 C111 1.281 . S
O124 Mn108 2.297 . S
O124 C111 1.236 . S
N125 Mn109 2.282 . S
N125 C126 1.328 . S
N125 C130 1.318 . S
C126 N125 1.328 . S
C126 C127 1.457 . S
C126 H131 0.929 . S
C127 C126 1.457 . S
C127 C128 1.291 . S
C127 H140 0.931 . S
C128 C127 1.291 . S
C128 C129 1.373 . S
C128 H141 0.929 . S
C129 C128 1.373 . S
C129 C130 1.396 . S
C129 C136 1.403 . S
C130 C120 1.476 . S
C130 N125 1.318 . S
C130 C129 1.396 . S
H131 C126 0.929 . S
O132 Mn108 2.385 . S
O132 C110 1.234 . S
O133 Mn108 2.209 . S
O133 Mn109 2.215 . S
O133 C110 1.283 . S
O134 Mn108 2.094 . S
O134 C112 1.240 . S
O135 Mn109 2.117 . S
O135 C112 1.264 . S
C136 C129 1.403 . S
C136 C137 1.399 . S
C136 H142 0.929 . S
C137 C117 1.449 . S
C137 C136 1.399 . S
C137 H143 0.930 . S
H138 C118 0.931 . S
H139 C119 0.930 . S
H140 C127 0.931 . S
H141 C128 0.929 . S
H142 C136 0.929 . S
H143 C137 0.930 . S
Mn144 O149 2.095 . S
Mn144 O159 2.162 . S
Mn144 O160 2.297 . S
Mn144 O168 2.385 . S
Mn144 O169 2.209 . S
Mn144 O170 2.094 . S
Mn145 O150 2.121 . S
Mn145 N152 2.257 . S
Mn145 N161 2.282 . S
Mn145 O169 2.215 . S
Mn145 O171 2.117 . S
C146 O168 1.234 . S
C146 O169 1.283 . S
C147 O159 1.281 . S
C147 O160 1.236 . S
C148 O170 1.240 . S
C148 O171 1.264 . S
O149 Mn144 2.095 . S
O149 C158 1.250 . S
O150 Mn145 2.121 . S
O150 C158 1.258 . S
C151 N152 1.326 . S
C151 C155 1.460 . S
C151 H157 0.929 . S
N152 Mn145 2.257 . S
N152 C151 1.326 . S
N152 C156 1.348 1_455 S
C153 C154 1.258 . S
C153 C156 1.439 . S
C153 C173 1.449 . S
C154 C153 1.258 . S
C154 C155 1.477 1_655 S
C154 H174 0.931 . S
C155 C151 1.460 . S
C155 C154 1.477 1_455 S
C155 H175 0.930 . S
C156 N152 1.348 1_655 S
C156 C153 1.439 . S
C156 C166 1.483 . S
H157 C151 0.929 . S
C158 O149 1.250 . S
C158 O150 1.258 . S
O159 Mn144 2.162 . S
O159 C147 1.281 . S
O160 Mn144 2.297 . S
O160 C147 1.236 . S
N161 Mn145 2.282 . S
N161 C162 1.328 . S
N161 C166 1.318 1_455 S
C162 N161 1.328 . S
C162 C163 1.457 1_455 S
C162 H167 0.929 . S
C163 C162 1.457 1_655 S
C163 C164 1.291 . S
C163 H176 0.931 . S
C164 C163 1.291 . S
C164 C165 1.373 . S
C164 H177 0.929 . S
C165 C164 1.373 . S
C165 C166 1.396 . S
C165 C172 1.403 . S
C166 C156 1.483 . S
C166 N161 1.318 1_655 S
C166 C165 1.396 . S
H167 C162 0.929 . S
O168 Mn144 2.385 . S
O168 C146 1.234 . S
O169 Mn144 2.209 . S
O169 Mn145 2.215 . S
O169 C146 1.283 . S
O170 Mn144 2.094 . S
O170 C148 1.240 . S
O171 Mn145 2.117 . S
O171 C148 1.264 . S
C172 C165 1.403 . S
C172 C173 1.399 . S
C172 H178 0.929 . S
C173 C153 1.449 . S
C173 C172 1.399 . S
C173 H179 0.930 . S
H174 C154 0.931 . S
H175 C155 0.930 . S
H176 C163 0.931 . S
H177 C164 0.929 . S
H178 C172 0.929 . S
H179 C173 0.930 . S
Mn180 O185 2.095 1_556 S
Mn180 O195 2.162 . S
Mn180 O196 2.297 . S
Mn180 O204 2.385 . S
Mn180 O205 2.209 . S
Mn180 O206 2.094 1_556 S
Mn181 O186 2.121 . S
Mn181 N188 2.257 . S
Mn181 N197 2.282 . S
Mn181 O205 2.215 1_554 S
Mn181 O207 2.117 . S
C182 O204 1.234 . S
C182 O205 1.283 . S
C183 O195 1.281 . S
C183 O196 1.236 . S
C184 O206 1.240 . S
C184 O207 1.264 . S
O185 Mn180 2.095 1_554 S
O185 C194 1.250 1_554 S
O186 Mn181 2.121 . S
O186 C194 1.258 1_554 S
C187 N188 1.326 1_556 S
C187 C191 1.460 . S
C187 H193 0.929 . S
N188 Mn181 2.257 . S
N188 C187 1.326 1_554 S
N188 C192 1.372 . S
C189 C190 1.258 . S
C189 C192 1.415 1_565 S
C189 C209 1.449 . S
C190 C189 1.258 . S
C190 C191 1.477 1_564 S
C190 H210 0.931 1_554 S
C191 C187 1.460 . S
C191 C190 1.477 1_546 S
C191 H211 0.930 . S
C192 N188 1.372 . S
C192 C189 1.415 1_545 S
C192 C202 1.486 1_545 S
H193 C187 0.929 . S
C194 O185 1.250 1_556 S
C194 O186 1.258 1_556 S
O195 Mn180 2.162 . S
O195 C183 1.281 . S
O196 Mn180 2.297 . S
O196 C183 1.236 . S
N197 Mn181 2.282 . S
N197 C198 1.328 . S
N197 C202 1.309 1_545 S
C198 N197 1.328 . S
C198 C199 1.457 1_545 S
C198 H203 0.929 . S
C199 C198 1.457 1_565 S
C199 C200 1.291 . S
C199 H212 0.931 . S
C200 C199 1.291 . S
C200 C201 1.373 . S
C200 H213 0.929 . S
C201 C200 1.373 . S
C201 C202 1.401 . S
C201 C208 1.403 . S
C202 C192 1.486 1_565 S
C202 N197 1.309 1_565 S
C202 C201 1.401 . S
H203 C198 0.929 . S
O204 Mn180 2.385 . S
O204 C182 1.234 . S
O205 Mn180 2.209 . S
O205 Mn181 2.215 1_556 S
O205 C182 1.283 . S
O206 Mn180 2.094 1_554 S
O206 C184 1.240 . S
O207 Mn181 2.117 . S
O207 C184 1.264 . S
C208 C201 1.403 . S
C208 C209 1.399 . S
C208 H214 0.929 . S
C209 C189 1.449 . S
C209 C208 1.399 . S
C209 H215 0.930 . S
H210 C190 0.931 1_556 S
H211 C191 0.930 . S
H212 C199 0.931 . S
H213 C200 0.929 . S
H214 C208 0.929 . S
H215 C209 0.930 . S
Mn216 O221 2.095 . S
Mn216 O231 2.162 . S
Mn216 O232 2.297 . S
Mn216 O240 2.385 . S
Mn216 O241 2.209 . S
Mn216 O242 2.094 . S
Mn217 O222 2.121 . S
Mn217 N224 2.257 . S
Mn217 N233 2.282 . S
Mn217 O241 2.215 . S
Mn217 O243 2.117 . S
C218 O240 1.234 . S
C218 O241 1.283 . S
C219 O231 1.281 . S
C219 O232 1.236 . S
C220 O242 1.240 . S
C220 O243 1.264 . S
O221 Mn216 2.095 . S
O221 C230 1.250 . S
O222 Mn217 2.121 . S
O222 C230 1.258 . S
C223 N224 1.326 . S
C223 C227 1.460 . S
C223 H229 0.929 . S
N224 Mn217 2.257 . S
N224 C223 1.326 . S
N224 C228 1.362 . S
C225 C226 1.258 . S
C225 C228 1.431 . S
C225 C245 1.449 . S
C226 C225 1.258 . S
C226 C227 1.477 . S
C226 H246 0.931 . S
C227 C223 1.460 . S
C227 C226 1.477 . S
C227 H247 0.930 . S
C228 N224 1.362 . S
C228 C225 1.431 . S
C228 C238 1.476 . S
H229 C223 0.929 . S
C230 O221 1.250 . S
C230 O222 1.258 . S
O231 Mn216 2.162 . S
O231 C219 1.281 . S
O232 Mn216 2.297 . S
O232 C219 1.236 . S
N233 Mn217 2.282 . S
N233 C234 1.328 . S
N233 C238 1.318 . S
C234 N233 1.328 . S
C234 C235 1.457 . S
C234 H239 0.929 . S
C235 C234 1.457 . S
C235 C236 1.291 . S
C235 H248 0.931 . S
C236 C235 1.291 . S
C236 C237 1.373 . S
C236 H249 0.929 . S
C237 C236 1.373 . S
C237 C238 1.396 . S
C237 C244 1.403 . S
C238 C228 1.476 . S
C238 N233 1.318 . S
C238 C237 1.396 . S
H239 C234 0.929 . S
O240 Mn216 2.385 . S
O240 C218 1.234 . S
O241 Mn216 2.209 . S
O241 Mn217 2.215 . S
O241 C218 1.283 . S
O242 Mn216 2.094 . S
O242 C220 1.240 . S
O243 Mn217 2.117 . S
O243 C220 1.264 . S
C244 C237 1.403 . S
C244 C245 1.399 . S
C244 H250 0.929 . S
C245 C225 1.449 . S
C245 C244 1.399 . S
C245 H251 0.930 . S
H246 C226 0.931 . S
H247 C227 0.930 . S
H248 C235 0.931 . S
H249 C236 0.929 . S
H250 C244 0.929 . S
H251 C245 0.930 . S
Mn252 O257 2.095 . S
Mn252 O267 2.162 . S
Mn252 O268 2.297 . S
Mn252 O276 2.385 . S
Mn252 O277 2.209 . S
Mn252 O278 2.094 . S
Mn253 O258 2.121 . S
Mn253 N260 2.257 . S
Mn253 N269 2.282 . S
Mn253 O277 2.215 . S
Mn253 O279 2.117 . S
C254 O276 1.234 . S
C254 O277 1.283 . S
C255 O267 1.281 . S
C255 O268 1.236 . S
C256 O278 1.240 . S
C256 O279 1.264 . S
O257 Mn252 2.095 . S
O257 C266 1.250 . S
O258 Mn253 2.121 . S
O258 C266 1.258 . S
C259 N260 1.326 . S
C259 C263 1.460 . S
C259 H265 0.929 . S
N260 Mn253 2.257 . S
N260 C259 1.326 . S
N260 C264 1.362 . S
C261 C262 1.258 . S
C261 C264 1.431 1_455 S
C261 C281 1.449 . S
C262 C261 1.258 . S
C262 C263 1.477 1_455 S
C262 H282 0.931 . S
C263 C259 1.460 . S
C263 C262 1.477 1_655 S
C263 H283 0.930 . S
C264 N260 1.362 . S
C264 C261 1.431 1_655 S
C264 C274 1.476 . S
H265 C259 0.929 . S
C266 O257 1.250 . S
C266 O258 1.258 . S
O267 Mn252 2.162 . S
O267 C255 1.281 . S
O268 Mn252 2.297 . S
O268 C255 1.236 . S
N269 Mn253 2.282 . S
N269 C270 1.328 . S
N269 C274 1.318 . S
C270 N269 1.328 . S
C270 C271 1.457 1_655 S
C270 H275 0.929 . S
C271 C270 1.457 1_455 S
C271 C272 1.290 . S
C271 H284 0.928 1_455 S
C272 C271 1.290 . S
C272 C273 1.373 . S
C272 H285 0.929 . S
C273 C272 1.373 . S
C273 C274 1.396 1_455 S
C273 C280 1.403 . S
C274 C264 1.476 . S
C274 N269 1.318 . S
C274 C273 1.396 1_655 S
H275 C270 0.929 . S
O276 Mn252 2.385 . S
O276 C254 1.234 . S
O277 Mn252 2.209 . S
O277 Mn253 2.215 . S
O277 C254 1.283 . S
O278 Mn252 2.094 . S
O278 C256 1.240 . S
O279 Mn253 2.117 . S
O279 C256 1.264 . S
C280 C273 1.403 . S
C280 C281 1.399 . S
C280 H286 0.929 . S
C281 C261 1.449 . S
C281 C280 1.399 . S
C281 H287 0.930 . S
H282 C262 0.931 . S
H283 C263 0.930 . S
H284 C271 0.928 1_655 S
H285 C272 0.929 . S
H286 C280 0.929 . S
H287 C281 0.930 . S
Mn288 O293 2.095 1_554 S
Mn288 O303 2.162 . S
Mn288 O304 2.297 . S
Mn288 O312 2.385 . S
Mn288 O313 2.209 . S
Mn288 O314 2.094 1_554 S
Mn289 O294 2.121 . S
Mn289 N296 2.257 . S
Mn289 N305 2.282 . S
Mn289 O313 2.215 1_556 S
Mn289 O315 2.117 . S
C290 O312 1.234 . S
C290 O313 1.283 . S
C291 O303 1.281 . S
C291 O304 1.236 . S
C292 O314 1.240 . S
C292 O315 1.264 . S
O293 Mn288 2.095 1_556 S
O293 C302 1.250 1_556 S
O294 Mn289 2.121 . S
O294 C302 1.258 1_556 S
C295 N296 1.326 1_554 S
C295 C299 1.460 . S
C295 H301 0.929 . S
N296 Mn289 2.257 . S
N296 C295 1.326 1_556 S
N296 C300 1.378 . S
C297 C298 1.258 . S
C297 C300 1.423 1_545 S
C297 C317 1.449 . S
C298 C297 1.258 . S
C298 C299 1.477 1_546 S
C298 H318 0.931 1_556 S
C299 C295 1.460 . S
C299 C298 1.477 1_564 S
C299 H319 0.930 . S
C300 N296 1.378 . S
C300 C297 1.423 1_565 S
C300 C310 1.466 1_565 S
H301 C295 0.929 . S
C302 O293 1.250 1_554 S
C302 O294 1.258 1_554 S
O303 Mn288 2.162 . S
O303 C291 1.281 . S
O304 Mn288 2.297 . S
O304 C291 1.236 . S
N305 Mn289 2.282 . S
N305 C306 1.328 . S
N305 C310 1.313 1_565 S
C306 N305 1.328 . S
C306 C307 1.457 1_565 S
C306 H311 0.929 . S
C307 C306 1.457 1_545 S
C307 C308 1.291 . S
C307 H320 0.931 . S
C308 C307 1.291 . S
C308 C309 1.373 . S
C308 H321 0.929 . S
C309 C308 1.373 . S
C309 C310 1.404 . S
C309 C316 1.403 . S
C310 C300 1.466 1_545 S
C310 N305 1.313 1_545 S
C310 C309 1.404 . S
H311 C306 0.929 . S
O312 Mn288 2.385 . S
O312 C290 1.234 . S
O313 Mn288 2.209 . S
O313 Mn289 2.215 1_554 S
O313 C290 1.283 . S
O314 Mn288 2.094 1_556 S
O314 C292 1.240 . S
O315 Mn289 2.117 . S
O315 C292 1.264 . S
C316 C309 1.403 . S
C316 C317 1.399 . S
C316 H322 0.929 . S
C317 C297 1.449 . S
C317 C316 1.399 . S
C317 H323 0.930 . S
H318 C298 0.931 1_554 S
H319 C299 0.930 . S
H320 C307 0.931 . S
H321 C308 0.929 . S
H322 C316 0.929 . S
H323 C317 0.930 . S
Mn324 O329 2.095 . S
Mn324 O339 2.162 . S
Mn324 O340 2.297 . S
Mn324 O348 2.385 . S
Mn324 O349 2.209 . S
Mn324 O350 2.094 . S
Mn325 O330 2.121 . S
Mn325 N332 2.257 . S
Mn325 N341 2.282 . S
Mn325 O349 2.215 . S
Mn325 O351 2.117 . S
C326 O348 1.234 . S
C326 O349 1.283 . S
C327 O339 1.281 . S
C327 O340 1.236 . S
C328 O350 1.240 . S
C328 O351 1.264 . S
O329 Mn324 2.095 . S
O329 C338 1.250 . S
O330 Mn325 2.121 . S
O330 C338 1.258 . S
C331 N332 1.326 . S
C331 C335 1.460 . S
C331 H337 0.929 . S
N332 Mn325 2.257 . S
N332 C331 1.326 . S
N332 C336 1.362 . S
C333 C334 1.258 . S
C333 C336 1.431 . S
C333 C353 1.449 . S
C334 C333 1.258 . S
C334 C335 1.477 . S
C334 H354 0.931 . S
C335 C331 1.460 . S
C335 C334 1.477 . S
C335 H355 0.930 . S
C336 N332 1.362 . S
C336 C333 1.431 . S
C336 C346 1.476 . S
H337 C331 0.929 . S
C338 O329 1.250 . S
C338 O330 1.258 . S
O339 Mn324 2.162 . S
O339 C327 1.281 . S
O340 Mn324 2.297 . S
O340 C327 1.236 . S
N341 Mn325 2.282 . S
N341 C342 1.328 . S
N341 C346 1.318 . S
C342 N341 1.328 . S
C342 C343 1.457 . S
C342 H347 0.929 . S
C343 C342 1.457 . S
C343 C344 1.291 . S
C343 H356 0.931 . S
C344 C343 1.291 . S
C344 C345 1.373 . S
C344 H357 0.929 . S
C345 C344 1.373 . S
C345 C346 1.396 . S
C345 C352 1.403 . S
C346 C336 1.476 . S
C346 N341 1.318 . S
C346 C345 1.396 . S
H347 C342 0.929 . S
O348 Mn324 2.385 . S
O348 C326 1.234 . S
O349 Mn324 2.209 . S
O349 Mn325 2.215 . S
O349 C326 1.283 . S
O350 Mn324 2.094 . S
O350 C328 1.240 . S
O351 Mn325 2.117 . S
O351 C328 1.264 . S
C352 C345 1.403 . S
C352 C353 1.399 . S
C352 H358 0.929 . S
C353 C333 1.449 . S
C353 C352 1.399 . S
C353 H359 0.930 . S
H354 C334 0.931 . S
H355 C335 0.930 . S
H356 C343 0.931 . S
H357 C344 0.929 . S
H358 C352 0.929 . S
H359 C353 0.930 . S
Mn360 O365 2.095 . S
Mn360 O375 2.162 . S
Mn360 O376 2.297 . S
Mn360 O384 2.385 . S
Mn360 O385 2.209 . S
Mn360 O386 2.094 . S
Mn361 O366 2.121 . S
Mn361 N368 2.257 . S
Mn361 N377 2.282 . S
Mn361 O385 2.215 . S
Mn361 O387 2.117 . S
C362 O384 1.234 . S
C362 O385 1.283 . S
C363 O375 1.281 . S
C363 O376 1.236 . S
C364 O386 1.240 . S
C364 O387 1.264 . S
O365 Mn360 2.095 . S
O365 C374 1.250 . S
O366 Mn361 2.121 . S
O366 C374 1.258 . S
C367 N368 1.326 . S
C367 C371 1.460 . S
C367 H373 0.929 . S
N368 Mn361 2.257 . S
N368 C367 1.326 . S
N368 C372 1.362 . S
C369 C370 1.258 . S
C369 C372 1.431 1_655 S
C369 C389 1.449 . S
C370 C369 1.258 . S
C370 C371 1.477 1_655 S
C370 H390 0.931 . S
C371 C367 1.460 . S
C371 C370 1.477 1_455 S
C371 H391 0.930 . S
C372 N368 1.362 . S
C372 C369 1.431 1_455 S
C372 C382 1.476 . S
H373 C367 0.929 . S
C374 O365 1.250 . S
C374 O366 1.258 . S
O375 Mn360 2.162 . S
O375 C363 1.281 . S
O376 Mn360 2.297 . S
O376 C363 1.236 . S
N377 Mn361 2.282 . S
N377 C378 1.328 . S
N377 C382 1.318 . S
C378 N377 1.328 . S
C378 C379 1.457 1_455 S
C378 H383 0.929 . S
C379 C378 1.457 1_655 S
C379 C380 1.290 . S
C379 H392 0.928 1_655 S
C380 C379 1.290 . S
C380 C381 1.373 . S
C380 H393 0.929 . S
C381 C380 1.373 . S
C381 C382 1.396 1_655 S
C381 C388 1.403 . S
C382 C372 1.476 . S
C382 N377 1.318 . S
C382 C381 1.396 1_455 S
H383 C378 0.929 . S
O384 Mn360 2.385 . S
O384 C362 1.234 . S
O385 Mn360 2.209 . S
O385 Mn361 2.215 . S
O385 C362 1.283 . S
O386 Mn360 2.094 . S
O386 C364 1.240 . S
O387 Mn361 2.117 . S
O387 C364 1.264 . S
C388 C381 1.403 . S
C388 C389 1.399 . S
C388 H394 0.929 . S
C389 C369 1.449 . S
C389 C388 1.399 . S
C389 H395 0.930 . S
H390 C370 0.931 . S
H391 C371 0.930 . S
H392 C379 0.928 1_455 S
H393 C380 0.929 . S
H394 C388 0.929 . S
H395 C389 0.930 . S
Mn396 O401 2.095 1_554 S
Mn396 O411 2.162 . S
Mn396 O412 2.297 . S
Mn396 O420 2.385 . S
Mn396 O421 2.209 . S
Mn396 O422 2.094 1_554 S
Mn397 O402 2.121 . S
Mn397 N404 2.257 . S
Mn397 N413 2.282 . S
Mn397 O421 2.215 1_556 S
Mn397 O423 2.117 . S
C398 O420 1.234 . S
C398 O421 1.283 . S
C399 O411 1.281 . S
C399 O412 1.236 . S
C400 O422 1.240 . S
C400 O423 1.264 . S
O401 Mn396 2.095 1_556 S
O401 C410 1.250 1_556 S
O402 Mn397 2.121 . S
O402 C410 1.258 1_556 S
C403 N404 1.326 1_554 S
C403 C407 1.460 . S
C403 H409 0.929 . S
N404 Mn397 2.257 . S
N404 C403 1.326 1_556 S
N404 C408 1.378 . S
C405 C406 1.258 . S
C405 C408 1.423 1_565 S
C405 C425 1.449 . S
C406 C405 1.258 . S
C406 C407 1.477 1_566 S
C406 H426 0.931 1_556 S
C407 C403 1.460 . S
C407 C406 1.477 1_544 S
C407 H427 0.930 . S
C408 N404 1.378 . S
C408 C405 1.423 1_545 S
C408 C418 1.466 1_545 S
H409 C403 0.929 . S
C410 O401 1.250 1_554 S
C410 O402 1.258 1_554 S
O411 Mn396 2.162 . S
O411 C399 1.281 . S
O412 Mn396 2.297 . S
O412 C399 1.236 . S
N413 Mn397 2.282 . S
N413 C414 1.328 . S
N413 C418 1.313 1_545 S
C414 N413 1.328 . S
C414 C415 1.457 1_545 S
C414 H419 0.929 . S
C415 C414 1.457 1_565 S
C415 C416 1.291 . S
C415 H428 0.931 . S
C416 C415 1.291 . S
C416 C417 1.373 . S
C416 H429 0.929 . S
C417 C416 1.373 . S
C417 C418 1.404 . S
C417 C424 1.403 . S
C418 C408 1.466 1_565 S
C418 N413 1.313 1_565 S
C418 C417 1.404 . S
H419 C414 0.929 . S
O420 Mn396 2.385 . S
O420 C398 1.234 . S
O421 Mn396 2.209 . S
O421 Mn397 2.215 1_554 S
O421 C398 1.283 . S
O422 Mn396 2.094 1_556 S
O422 C400 1.240 . S
O423 Mn397 2.117 . S
O423 C400 1.264 . S
C424 C417 1.403 . S
C424 C425 1.399 . S
C424 H430 0.929 . S
C425 C405 1.449 . S
C425 C424 1.399 . S
C425 H431 0.930 . S
H426 C406 0.931 1_554 S
H427 C407 0.930 . S
H428 C415 0.931 . S
H429 C416 0.929 . S
H430 C424 0.929 . S
H431 C425 0.930 . S
C432 C433 1.369 . S
C432 C434 1.419 . S
C432 H436 0.930 . S
C433 C432 1.369 . S
C433 C442 1.429 . S
C434 C432 1.419 . S
C434 C435 1.363 . S
C434 H437 0.929 . S
C435 C434 1.363 . S
C435 C441 1.428 . S
H436 C432 0.930 . S
H437 C434 0.929 . S
S438 N439 1.613 . S
S438 N440 1.610 . S
N439 S438 1.613 . S
N439 C442 1.350 . S
N440 S438 1.610 . S
N440 C441 1.351 . S
C441 C435 1.428 . S
C441 N440 1.351 . S
C441 C442 1.434 . S
C442 C433 1.429 . S
C442 N439 1.350 . S
C442 C441 1.434 . S
C443 C444 1.369 . S
C443 C445 1.419 . S
C443 H447 0.930 . S
C444 C443 1.369 . S
C444 C453 1.429 . S
C445 C443 1.419 . S
C445 C446 1.363 . S
C445 H448 0.929 . S
C446 C445 1.363 . S
C446 C452 1.428 . S
H447 C443 0.930 . S
H448 C445 0.929 . S
S449 N450 1.613 . S
S449 N451 1.610 . S
N450 S449 1.613 . S
N450 C453 1.350 . S
N451 S449 1.610 . S
N451 C452 1.351 . S
C452 C446 1.428 . S
C452 N451 1.351 . S
C452 C453 1.434 . S
C453 C444 1.429 . S
C453 N450 1.350 . S
C453 C452 1.434 . S
C454 C455 1.369 1_554 S
C454 C456 1.419 . S
C454 H458 0.930 . S
C455 C454 1.369 1_556 S
C455 C464 1.429 . S
C456 C454 1.419 . S
C456 C457 1.363 . S
C456 H459 0.929 . S
C457 C456 1.363 . S
C457 C463 1.428 1_554 S
H458 C454 0.930 . S
H459 C456 0.929 . S
S460 N461 1.613 . S
S460 N462 1.610 . S
N461 S460 1.613 . S
N461 C464 1.350 . S
N462 S460 1.610 . S
N462 C463 1.351 . S
C463 C457 1.428 1_556 S
C463 N462 1.351 . S
C463 C464 1.434 . S
C464 C455 1.429 . S
C464 N461 1.350 . S
C464 C463 1.434 . S
C465 C466 1.369 . S
C465 C467 1.419 . S
C465 H469 0.930 . S
C466 C465 1.369 . S
C466 C475 1.429 . S
C467 C465 1.419 . S
C467 C468 1.363 . S
C467 H470 0.929 . S
C468 C467 1.363 . S
C468 C474 1.428 . S
H469 C465 0.930 . S
H470 C467 0.929 . S
S471 N472 1.613 . S
S471 N473 1.610 . S
N472 S471 1.613 . S
N472 C475 1.350 . S
N473 S471 1.610 . S
N473 C474 1.351 . S
C474 C468 1.428 . S
C474 N473 1.351 . S
C474 C475 1.434 . S
C475 C466 1.429 . S
C475 N472 1.350 . S
C475 C474 1.434 . S
C476 C477 1.369 . S
C476 C478 1.419 . S
C476 H480 0.930 . S
C477 C476 1.369 . S
C477 C486 1.429 . S
C478 C476 1.419 . S
C478 C479 1.363 . S
C478 H481 0.929 . S
C479 C478 1.363 . S
C479 C485 1.428 . S
H480 C476 0.930 . S
H481 C478 0.929 . S
S482 N483 1.613 . S
S482 N484 1.610 . S
N483 S482 1.613 . S
N483 C486 1.350 . S
N484 S482 1.610 . S
N484 C485 1.351 . S
C485 C479 1.428 . S
C485 N484 1.351 . S
C485 C486 1.434 . S
C486 C477 1.429 . S
C486 N483 1.350 . S
C486 C485 1.434 . S
C487 C488 1.369 . S
C487 C489 1.419 . S
C487 H491 0.930 . S
C488 C487 1.369 . S
C488 C497 1.429 1_554 S
C489 C487 1.419 . S
C489 C490 1.363 1_554 S
C489 H492 0.929 . S
C490 C489 1.363 1_556 S
C490 C496 1.428 . S
H491 C487 0.930 . S
H492 C489 0.929 . S
S493 N494 1.613 . S
S493 N495 1.610 . S
N494 S493 1.613 . S
N494 C497 1.350 . S
N495 S493 1.610 . S
N495 C496 1.351 . S
C496 C490 1.428 . S
C496 N495 1.351 . S
C496 C497 1.434 . S
C497 C488 1.429 1_556 S
C497 N494 1.350 . S
C497 C496 1.434 . S
C498 C499 1.369 . S
C498 C500 1.419 . S
C498 H502 0.930 . S
C499 C498 1.369 . S
C499 C508 1.429 . S
C500 C498 1.419 . S
C500 C501 1.363 . S
C500 H503 0.929 . S
C501 C500 1.363 . S
C501 C507 1.428 . S
H502 C498 0.930 . S
H503 C500 0.929 . S
S504 N505 1.613 . S
S504 N506 1.610 . S
N505 S504 1.613 . S
N505 C508 1.350 . S
N506 S504 1.610 . S
N506 C507 1.351 . S
C507 C501 1.428 . S
C507 N506 1.351 . S
C507 C508 1.434 . S
C508 C499 1.429 . S
C508 N505 1.350 . S
C508 C507 1.434 . S
C509 C510 1.369 . S
C509 C511 1.419 1_655 S
C509 H513 0.930 . S
C510 C509 1.369 . S
C510 C519 1.429 . S
C511 C509 1.419 1_455 S
C511 C512 1.363 . S
C511 H514 0.929 . S
C512 C511 1.363 . S
C512 C518 1.428 . S
H513 C509 0.930 . S
H514 C511 0.929 . S
S515 N516 1.613 1_455 S
S515 N517 1.610 . S
N516 S515 1.613 1_655 S
N516 C519 1.350 . S
N517 S515 1.610 . S
N517 C518 1.351 . S
C518 C512 1.428 . S
C518 N517 1.351 . S
C518 C519 1.434 1_455 S
C519 C510 1.429 . S
C519 N516 1.350 . S
C519 C518 1.434 1_655 S
C520 C521 1.369 . S
C520 C522 1.419 1_544 S
C520 H524 0.930 . S
C521 C520 1.369 . S
C521 C530 1.429 . S
C522 C520 1.419 1_566 S
C522 C523 1.363 . S
C522 H525 0.929 . S
C523 C522 1.363 . S
C523 C529 1.428 . S
H524 C520 0.930 . S
H525 C522 0.929 . S
S526 N527 1.613 1_565 S
S526 N528 1.610 1_554 S
N527 S526 1.613 1_545 S
N527 C530 1.350 . S
N528 S526 1.610 1_556 S
N528 C529 1.351 . S
C529 C523 1.428 . S
C529 N528 1.351 . S
C529 C530 1.434 1_566 S
C530 C521 1.429 . S
C530 N527 1.350 . S
C530 C529 1.434 1_544 S
C531 C532 1.369 . S
C531 C533 1.419 . S
C531 H535 0.930 . S
C532 C531 1.369 . S
C532 C541 1.429 . S
C533 C531 1.419 . S
C533 C534 1.363 . S
C533 H536 0.929 . S
C534 C533 1.363 . S
C534 C540 1.428 . S
H535 C531 0.930 . S
H536 C533 0.929 . S
S537 N538 1.613 . S
S537 N539 1.610 . S
N538 S537 1.613 . S
N538 C541 1.350 . S
N539 S537 1.610 . S
N539 C540 1.351 . S
C540 C534 1.428 . S
C540 N539 1.351 . S
C540 C541 1.434 . S
C541 C532 1.429 . S
C541 N538 1.350 . S
C541 C540 1.434 . S
C542 C543 1.369 . S
C542 C544 1.419 1_455 S
C542 H546 0.930 . S
C543 C542 1.369 . S
C543 C552 1.429 . S
C544 C542 1.419 1_655 S
C544 C545 1.363 . S
C544 H547 0.929 . S
C545 C544 1.363 . S
C545 C551 1.428 . S
H546 C542 0.930 . S
H547 C544 0.929 . S
S548 N549 1.613 1_655 S
S548 N550 1.610 . S
N549 S548 1.613 1_455 S
N549 C552 1.350 . S
N550 S548 1.610 . S
N550 C551 1.351 . S
C551 C545 1.428 . S
C551 N550 1.351 . S
C551 C552 1.434 1_655 S
C552 C543 1.429 . S
C552 N549 1.350 . S
C552 C551 1.434 1_455 S
C553 C554 1.369 1_554 S
C553 C555 1.419 1_545 S
C553 H557 0.930 . S
C554 C553 1.369 1_556 S
C554 C563 1.429 . S
C555 C553 1.419 1_565 S
C555 C556 1.363 . S
C555 H558 0.929 . S
C556 C555 1.363 . S
C556 C562 1.428 1_554 S
H557 C553 0.930 . S
H558 C555 0.929 . S
S559 N560 1.613 1_565 S
S559 N561 1.610 . S
N560 S559 1.613 1_545 S
N560 C563 1.350 . S
N561 S559 1.610 . S
N561 C562 1.351 . S
C562 C556 1.428 1_556 S
C562 N561 1.351 . S
C562 C563 1.434 1_565 S
C563 C554 1.429 . S
C563 N560 1.350 . S
C563 C562 1.434 1_545 S
C564 C565 1.369 1_455 S
C564 C566 1.419 . S
C564 H568 0.930 . S
C565 C564 1.369 1_655 S
C565 C574 1.429 . S
C566 C564 1.419 . S
C566 C567 1.363 . S
C566 H569 0.929 . S
C567 C566 1.363 . S
C567 C573 1.428 1_455 S
H568 C564 0.930 . S
H569 C566 0.929 . S
S570 N571 1.613 . S
S570 N572 1.610 . S
N571 S570 1.613 . S
N571 C574 1.350 . S
N572 S570 1.610 . S
N572 C573 1.351 . S
C573 C567 1.428 1_655 S
C573 N572 1.351 . S
C573 C574 1.434 . S
C574 C565 1.429 . S
C574 N571 1.350 . S
C574 C573 1.434 . S
C575 C576 1.369 . S
C575 C577 1.419 . S
C575 H579 0.930 . S
C576 C575 1.369 . S
C576 C585 1.429 1_545 S
C577 C575 1.419 . S
C577 C578 1.363 1_545 S
C577 H580 0.929 . S
C578 C577 1.363 1_565 S
C578 C584 1.428 . S
H579 C575 0.930 . S
H580 C577 0.929 . S
S581 N582 1.613 . S
S581 N583 1.610 . S
N582 S581 1.613 . S
N582 C585 1.350 . S
N583 S581 1.610 . S
N583 C584 1.351 . S
C584 C578 1.428 . S
C584 N583 1.351 . S
C584 C585 1.434 . S
C585 C576 1.429 1_565 S
C585 N582 1.350 . S
C585 C584 1.434 . S
C586 C587 1.369 . S
C586 C588 1.419 . S
C586 H590 0.930 . S
C587 C586 1.369 . S
C587 C596 1.429 . S
C588 C586 1.419 . S
C588 C589 1.363 . S
C588 H591 0.929 . S
C589 C588 1.363 . S
C589 C595 1.428 . S
H590 C586 0.930 . S
H591 C588 0.929 . S
S592 N593 1.613 . S
S592 N594 1.610 . S
N593 S592 1.613 . S
N593 C596 1.350 . S
N594 S592 1.610 . S
N594 C595 1.351 . S
C595 C589 1.428 . S
C595 N594 1.351 . S
C595 C596 1.434 . S
C596 C587 1.429 . S
C596 N593 1.350 . S
C596 C595 1.434 . S
C597 C598 1.369 . S
C597 C599 1.419 . S
C597 H601 0.930 . S
C598 C597 1.369 . S
C598 C607 1.429 1_455 S
C599 C597 1.419 . S
C599 C600 1.363 1_455 S
C599 H602 0.929 . S
C600 C599 1.363 1_655 S
C600 C606 1.428 . S
H601 C597 0.930 . S
H602 C599 0.929 . S
S603 N604 1.613 . S
S603 N605 1.610 . S
N604 S603 1.613 . S
N604 C607 1.350 . S
N605 S603 1.610 . S
N605 C606 1.351 . S
C606 C600 1.428 . S
C606 N605 1.351 . S
C606 C607 1.434 . S
C607 C598 1.429 1_655 S
C607 N604 1.350 . S
C607 C606 1.434 . S
C608 C609 1.369 1_565 S
C608 C610 1.419 . S
C608 H612 0.930 . S
C609 C608 1.369 1_545 S
C609 C618 1.429 . S
C610 C608 1.419 . S
C610 C611 1.363 . S
C610 H613 0.929 . S
C611 C610 1.363 . S
C611 C617 1.428 1_565 S
H612 C608 0.930 . S
H613 C610 0.929 . S
S614 N615 1.613 . S
S614 N616 1.610 . S
N615 S614 1.613 . S
N615 C618 1.350 . S
N616 S614 1.610 . S
N616 C617 1.351 . S
C617 C611 1.428 1_545 S
C617 N616 1.351 . S
C617 C618 1.434 . S
C618 C609 1.429 . S
C618 N615 1.350 . S
C618 C617 1.434 . S
C619 C620 1.369 . S
C619 C621 1.419 . S
C619 H623 0.930 . S
C620 C619 1.369 . S
C620 C629 1.429 . S
C621 C619 1.419 . S
C621 C622 1.363 . S
C621 H624 0.929 . S
C622 C621 1.363 . S
C622 C628 1.428 . S
H623 C619 0.930 . S
H624 C621 0.929 . S
S625 N626 1.613 . S
S625 N627 1.610 . S
N626 S625 1.613 . S
N626 C629 1.350 . S
N627 S625 1.610 . S
N627 C628 1.351 . S
C628 C622 1.428 . S
C628 N627 1.351 . S
C628 C629 1.434 . S
C629 C620 1.429 . S
C629 N626 1.350 . S
C629 C628 1.434 . S
C630 C631 1.369 . S
C630 C632 1.419 . S
C630 H634 0.930 . S
C631 C630 1.369 . S
C631 C640 1.429 . S
C632 C630 1.419 . S
C632 C633 1.363 . S
C632 H635 0.929 . S
C633 C632 1.363 . S
C633 C639 1.428 . S
H634 C630 0.930 . S
H635 C632 0.929 . S
S636 N637 1.613 . S
S636 N638 1.610 . S
N637 S636 1.613 . S
N637 C640 1.350 . S
N638 S636 1.610 . S
N638 C639 1.351 . S
C639 C633 1.428 . S
C639 N638 1.351 . S
C639 C640 1.434 . S
C640 C631 1.429 . S
C640 N637 1.350 . S
C640 C639 1.434 . S
C641 C642 1.369 . S
C641 C643 1.419 . S
C641 H645 0.930 . S
C642 C641 1.369 . S
C642 C651 1.429 . S
C643 C641 1.419 . S
C643 C644 1.363 . S
C643 H646 0.929 . S
C644 C643 1.363 . S
C644 C650 1.428 . S
H645 C641 0.930 . S
H646 C643 0.929 . S
S647 N648 1.613 . S
S647 N649 1.610 . S
N648 S647 1.613 . S
N648 C651 1.350 . S
N649 S647 1.610 . S
N649 C650 1.351 . S
C650 C644 1.428 . S
C650 N649 1.351 . S
C650 C651 1.434 . S
C651 C642 1.429 . S
C651 N648 1.350 . S
C651 C650 1.434 . S
C652 C653 1.369 . S
C652 C654 1.419 . S
C652 H656 0.930 . S
C653 C652 1.369 . S
C653 C662 1.429 . S
C654 C652 1.419 . S
C654 C655 1.363 . S
C654 H657 0.929 . S
C655 C654 1.363 . S
C655 C661 1.428 . S
H656 C652 0.930 . S
H657 C654 0.929 . S
S658 N659 1.613 . S
S658 N660 1.610 . S
N659 S658 1.613 . S
N659 C662 1.350 . S
N660 S658 1.610 . S
N660 C661 1.351 . S
C661 C655 1.428 . S
C661 N660 1.351 . S
C661 C662 1.434 . S
C662 C653 1.429 . S
C662 N659 1.350 . S
C662 C661 1.434 . S
C663 C664 1.369 . S
C663 C665 1.419 . S
C663 H667 0.930 . S
C664 C663 1.369 . S
C664 C673 1.429 . S
C665 C663 1.419 . S
C665 C666 1.363 . S
C665 H668 0.929 . S
C666 C665 1.363 . S
C666 C672 1.428 . S
H667 C663 0.930 . S
H668 C665 0.929 . S
S669 N670 1.613 . S
S669 N671 1.610 . S
N670 S669 1.613 . S
N670 C673 1.350 . S
N671 S669 1.610 . S
N671 C672 1.351 . S
C672 C666 1.428 . S
C672 N671 1.351 . S
C672 C673 1.434 . S
C673 C664 1.429 . S
C673 N670 1.350 . S
C673 C672 1.434 . S
C674 C675 1.369 . S
C674 C676 1.419 . S
C674 H678 0.930 . S
C675 C674 1.369 . S
C675 C684 1.429 . S
C676 C674 1.419 . S
C676 C677 1.363 . S
C676 H679 0.929 . S
C677 C676 1.363 . S
C677 C683 1.428 . S
H678 C674 0.930 . S
H679 C676 0.929 . S
S680 N681 1.613 . S
S680 N682 1.610 . S
N681 S680 1.613 . S
N681 C684 1.350 . S
N682 S680 1.610 . S
N682 C683 1.351 . S
C683 C677 1.428 . S
C683 N682 1.351 . S
C683 C684 1.434 . S
C684 C675 1.429 . S
C684 N681 1.350 . S
C684 C683 1.434 . S
C685 C686 1.369 . S
C685 C687 1.419 . S
C685 H689 0.930 . S
C686 C685 1.369 . S
C686 C695 1.429 . S
C687 C685 1.419 . S
C687 C688 1.363 . S
C687 H690 0.929 . S
C688 C687 1.363 . S
C688 C694 1.428 . S
H689 C685 0.930 . S
H690 C687 0.929 . S
S691 N692 1.613 . S
S691 N693 1.610 . S
N692 S691 1.613 . S
N692 C695 1.350 . S
N693 S691 1.610 . S
N693 C694 1.351 . S
C694 C688 1.428 . S
C694 N693 1.351 . S
C694 C695 1.434 . S
C695 C686 1.429 . S
C695 N692 1.350 . S
C695 C694 1.434 . S
C433 C14 1.435 . S
C435 C230 1.446 . S
C444 C50 1.436 . S
C446 C266 1.432 . S
C455 C86 1.390 . S
C457 C302 1.379 . S
C466 C338 1.444 . S
C468 C122 1.425 . S
C477 C158 1.440 . S
C479 C374 1.425 . S
C488 C410 1.384 . S
C490 C194 1.389 . S
C499 C2 1.157 . S
C501 C326 1.160 . S
C510 C38 1.159 . S
C512 C362 1.158 . S
C521 C398 1.139 . S
C523 C74 1.136 . S
C532 C218 1.161 . S
C534 C110 1.156 . S
C543 C146 1.158 . S
C545 C254 1.158 . S
C554 C182 1.142 . S
C556 C290 1.134 . S
C565 C399 1.745 . S
C567 C3 1.743 . S
C576 C39 1.860 . S
C578 C219 1.855 . S
C587 C75 1.749 . S
C589 C255 1.741 . S
C598 C291 1.751 . S
C600 C111 1.739 . S
C609 C327 1.855 . S
C611 C147 1.859 . S
C620 C183 1.747 . S
C622 C363 1.741 . S
C631 C4 1.194 . S
C633 C364 1.210 . S
C642 C400 1.263 . S
C644 C40 1.288 . S
C653 C220 1.274 . S
C655 C76 1.277 . S
C664 C112 1.196 . S
C666 C256 1.207 . S
C675 C292 1.283 . S
C677 C148 1.273 . S
C686 C328 1.286 . S
C688 C184 1.270 . S
