# Generated by pormake.
# Topology uke, (4)-cn, num edge types: 1
# Building blocks:
#     Node 0, Type 0, BuildingBlock: AZAVOO_clean_sbu_0, # of connection points: 4
#     Node 1, Type 0, BuildingBlock: AZAVOO_clean_sbu_0, # of connection points: 4
#     Node 2, Type 0, BuildingBlock: AZAVOO_clean_sbu_0, # of connection points: 4
#     Node 3, Type 0, BuildingBlock: AZAVOO_clean_sbu_0, # of connection points: 4
#     Node 4, Type 0, BuildingBlock: AZAVOO_clean_sbu_0, # of connection points: 4
#     Node 5, Type 0, BuildingBlock: AZAVOO_clean_sbu_0, # of connection points: 4
#     Node 6, Type 0, BuildingBlock: AZAVOO_clean_sbu_0, # of connection points: 4
#     Node 7, Type 0, BuildingBlock: AZAVOO_clean_sbu_0, # of connection points: 4
#     Node 8, Type 0, BuildingBlock: AZAVOO_clean_sbu_0, # of connection points: 4
#     Node 9, Type 0, BuildingBlock: AZAVOO_clean_sbu_0, # of connection points: 4
#     Node 10, Type 0, BuildingBlock: AZAVOO_clean_sbu_0, # of connection points: 4
#     Node 11, Type 0, BuildingBlock: AZAVOO_clean_sbu_0, # of connection points: 4
#     Node 12, Type 0, BuildingBlock: AZAVOO_clean_sbu_0, # of connection points: 4
#     Node 13, Type 0, BuildingBlock: AZAVOO_clean_sbu_0, # of connection points: 4
#     Node 14, Type 0, BuildingBlock: AZAVOO_clean_sbu_0, # of connection points: 4
#     Node 15, Type 0, BuildingBlock: AZAVOO_clean_sbu_0, # of connection points: 4
#     Node 16, Type 0, BuildingBlock: AZAVOO_clean_sbu_0, # of connection points: 4
#     Node 17, Type 0, BuildingBlock: AZAVOO_clean_sbu_0, # of connection points: 4
#     Node 18, Type 0, BuildingBlock: AZAVOO_clean_sbu_0, # of connection points: 4
#     Node 19, Type 0, BuildingBlock: AZAVOO_clean_sbu_0, # of connection points: 4
#     Node 20, Type 0, BuildingBlock: AZAVOO_clean_sbu_0, # of connection points: 4
#     Node 21, Type 0, BuildingBlock: AZAVOO_clean_sbu_0, # of connection points: 4
#     Node 22, Type 0, BuildingBlock: AZAVOO_clean_sbu_0, # of connection points: 4
#     Node 23, Type 0, BuildingBlock: AZAVOO_clean_sbu_0, # of connection points: 4
#     Node 24, Type 0, BuildingBlock: AZAVOO_clean_sbu_0, # of connection points: 4
#     Node 25, Type 0, BuildingBlock: AZAVOO_clean_sbu_0, # of connection points: 4
#     Node 26, Type 0, BuildingBlock: AZAVOO_clean_sbu_0, # of connection points: 4
#     Node 27, Type 0, BuildingBlock: AZAVOO_clean_sbu_0, # of connection points: 4
#     Node 28, Type 0, BuildingBlock: AZAVOO_clean_sbu_0, # of connection points: 4
#     Node 29, Type 0, BuildingBlock: AZAVOO_clean_sbu_0, # of connection points: 4
#     Node 30, Type 0, BuildingBlock: AZAVOO_clean_sbu_0, # of connection points: 4
#     Node 31, Type 0, BuildingBlock: AZAVOO_clean_sbu_0, # of connection points: 4
#     Edge 32, Type (0, 0), BuildingBlock: CIFDUS_clean_linker_0, # of connection points: 2
#     Edge 33, Type (0, 0), BuildingBlock: CIFDUS_clean_linker_0, # of connection points: 2
#     Edge 34, Type (0, 0), BuildingBlock: CIFDUS_clean_linker_0, # of connection points: 2
#     Edge 35, Type (0, 0), BuildingBlock: CIFDUS_clean_linker_0, # of connection points: 2
#     Edge 36, Type (0, 0), BuildingBlock: CIFDUS_clean_linker_0, # of connection points: 2
#     Edge 37, Type (0, 0), BuildingBlock: CIFDUS_clean_linker_0, # of connection points: 2
#     Edge 38, Type (0, 0), BuildingBlock: CIFDUS_clean_linker_0, # of connection points: 2
#     Edge 39, Type (0, 0), BuildingBlock: CIFDUS_clean_linker_0, # of connection points: 2
#     Edge 40, Type (0, 0), BuildingBlock: CIFDUS_clean_linker_0, # of connection points: 2
#     Edge 41, Type (0, 0), BuildingBlock: CIFDUS_clean_linker_0, # of connection points: 2
#     Edge 42, Type (0, 0), BuildingBlock: CIFDUS_clean_linker_0, # of connection points: 2
#     Edge 43, Type (0, 0), BuildingBlock: CIFDUS_clean_linker_0, # of connection points: 2
#     Edge 44, Type (0, 0), BuildingBlock: CIFDUS_clean_linker_0, # of connection points: 2
#     Edge 45, Type (0, 0), BuildingBlock: CIFDUS_clean_linker_0, # of connection points: 2
#     Edge 46, Type (0, 0), BuildingBlock: CIFDUS_clean_linker_0, # of connection points: 2
#     Edge 47, Type (0, 0), BuildingBlock: CIFDUS_clean_linker_0, # of connection points: 2
#     Edge 48, Type (0, 0), BuildingBlock: CIFDUS_clean_linker_0, # of connection points: 2
#     Edge 49, Type (0, 0), BuildingBlock: CIFDUS_clean_linker_0, # of connection points: 2
#     Edge 50, Type (0, 0), BuildingBlock: CIFDUS_clean_linker_0, # of connection points: 2
#     Edge 51, Type (0, 0), BuildingBlock: CIFDUS_clean_linker_0, # of connection points: 2
#     Edge 52, Type (0, 0), BuildingBlock: CIFDUS_clean_linker_0, # of connection points: 2
#     Edge 53, Type (0, 0), BuildingBlock: CIFDUS_clean_linker_0, # of connection points: 2
#     Edge 54, Type (0, 0), BuildingBlock: CIFDUS_clean_linker_0, # of connection points: 2
#     Edge 55, Type (0, 0), BuildingBlock: CIFDUS_clean_linker_0, # of connection points: 2
#     Edge 56, Type (0, 0), BuildingBlock: CIFDUS_clean_linker_0, # of connection points: 2
#     Edge 57, Type (0, 0), BuildingBlock: CIFDUS_clean_linker_0, # of connection points: 2
#     Edge 58, Type (0, 0), BuildingBlock: CIFDUS_clean_linker_0, # of connection points: 2
#     Edge 59, Type (0, 0), BuildingBlock: CIFDUS_clean_linker_0, # of connection points: 2
#     Edge 60, Type (0, 0), BuildingBlock: CIFDUS_clean_linker_0, # of connection points: 2
#     Edge 61, Type (0, 0), BuildingBlock: CIFDUS_clean_linker_0, # of connection points: 2
#     Edge 62, Type (0, 0), BuildingBlock: CIFDUS_clean_linker_0, # of connection points: 2
#     Edge 63, Type (0, 0), BuildingBlock: CIFDUS_clean_linker_0, # of connection points: 2
#     Edge 64, Type (0, 0), BuildingBlock: CIFDUS_clean_linker_0, # of connection points: 2
#     Edge 65, Type (0, 0), BuildingBlock: CIFDUS_clean_linker_0, # of connection points: 2
#     Edge 66, Type (0, 0), BuildingBlock: CIFDUS_clean_linker_0, # of connection points: 2
#     Edge 67, Type (0, 0), BuildingBlock: CIFDUS_clean_linker_0, # of connection points: 2
#     Edge 68, Type (0, 0), BuildingBlock: CIFDUS_clean_linker_0, # of connection points: 2
#     Edge 69, Type (0, 0), BuildingBlock: CIFDUS_clean_linker_0, # of connection points: 2
#     Edge 70, Type (0, 0), BuildingBlock: CIFDUS_clean_linker_0, # of connection points: 2
#     Edge 71, Type (0, 0), BuildingBlock: CIFDUS_clean_linker_0, # of connection points: 2
#     Edge 72, Type (0, 0), BuildingBlock: CIFDUS_clean_linker_0, # of connection points: 2
#     Edge 73, Type (0, 0), BuildingBlock: CIFDUS_clean_linker_0, # of connection points: 2
#     Edge 74, Type (0, 0), BuildingBlock: CIFDUS_clean_linker_0, # of connection points: 2
#     Edge 75, Type (0, 0), BuildingBlock: CIFDUS_clean_linker_0, # of connection points: 2
#     Edge 76, Type (0, 0), BuildingBlock: CIFDUS_clean_linker_0, # of connection points: 2
#     Edge 77, Type (0, 0), BuildingBlock: CIFDUS_clean_linker_0, # of connection points: 2
#     Edge 78, Type (0, 0), BuildingBlock: CIFDUS_clean_linker_0, # of connection points: 2
#     Edge 79, Type (0, 0), BuildingBlock: CIFDUS_clean_linker_0, # of connection points: 2
#     Edge 80, Type (0, 0), BuildingBlock: CIFDUS_clean_linker_0, # of connection points: 2
#     Edge 81, Type (0, 0), BuildingBlock: CIFDUS_clean_linker_0, # of connection points: 2
#     Edge 82, Type (0, 0), BuildingBlock: CIFDUS_clean_linker_0, # of connection points: 2
#     Edge 83, Type (0, 0), BuildingBlock: CIFDUS_clean_linker_0, # of connection points: 2
#     Edge 84, Type (0, 0), BuildingBlock: CIFDUS_clean_linker_0, # of connection points: 2
#     Edge 85, Type (0, 0), BuildingBlock: CIFDUS_clean_linker_0, # of connection points: 2
#     Edge 86, Type (0, 0), BuildingBlock: CIFDUS_clean_linker_0, # of connection points: 2
#     Edge 87, Type (0, 0), BuildingBlock: CIFDUS_clean_linker_0, # of connection points: 2
#     Edge 88, Type (0, 0), BuildingBlock: CIFDUS_clean_linker_0, # of connection points: 2
#     Edge 89, Type (0, 0), BuildingBlock: CIFDUS_clean_linker_0, # of connection points: 2
#     Edge 90, Type (0, 0), BuildingBlock: CIFDUS_clean_linker_0, # of connection points: 2
#     Edge 91, Type (0, 0), BuildingBlock: CIFDUS_clean_linker_0, # of connection points: 2
#     Edge 92, Type (0, 0), BuildingBlock: CIFDUS_clean_linker_0, # of connection points: 2
#     Edge 93, Type (0, 0), BuildingBlock: CIFDUS_clean_linker_0, # of connection points: 2
#     Edge 94, Type (0, 0), BuildingBlock: CIFDUS_clean_linker_0, # of connection points: 2
#     Edge 95, Type (0, 0), BuildingBlock: CIFDUS_clean_linker_0, # of connection points: 2
# Relax obj value: 0.243
# Max RMSD: 0.250
# Mean RMSD: 0.250
data_MOF--net-uke--node1-AZAVOO_clean_sbu_0--edge1-CIFDUS_clean_linker_0
_symmetry_space_group_name_H-M    P1
_symmetry_Int_Tables_number       1
_symmetry_cell_setting            triclinic
loop_
_symmetry_equiv_pos_as_xyz
'x, y, z'
_cell_length_a     25.919905
_cell_length_b     93.653423
_cell_length_c     35.858681
_cell_angle_alpha  89.957924
_cell_angle_beta   90.216092
_cell_angle_gamma 89.899016
loop_
_atom_site_label
_atom_site_type_symbol
_atom_site_fract_x
_atom_site_fract_y
_atom_site_fract_z
_atom_type_partial_charge
Mg0 Mg 0.14002 0.0445 0.34182 0.0
O1 O 0.12455 0.04357 0.27903 0.0
O2 O 0.05647 0.05687 0.26335 0.0
Mg3 Mg 0.02789 0.06656 0.31781 0.0
C4 C 0.0935 0.04857 0.25467 0.0
C5 C 0.21945 0.0241 0.30641 0.0
O6 O 0.22877 0.03579 0.28737 0.0
O7 O 0.07174 0.03013 0.35488 0.0
O8 O 0.00598 0.04449 0.33983 0.0
O9 O 0.18963 0.06369 0.33269 0.0
O10 O 0.10585 0.06471 0.3436 0.0
C11 C 0.02358 0.03258 0.3517 0.0
C12 C 0.148 0.07128 0.33567 0.0
O13 O 0.18971 0.02476 0.33442 0.0
Mg14 Mg 0.10466 0.18215 0.32483 0.0
O15 O 0.12096 0.18184 0.26275 0.0
O16 O 0.19166 0.1693 0.24981 0.0
Mg17 Mg 0.21977 0.16067 0.30606 0.0
C18 C 0.15336 0.17691 0.23954 0.0
C19 C 0.05606 0.21332 0.31998 0.0
O20 O 0.09036 0.21658 0.34563 0.0
O21 O 0.17129 0.19735 0.3368 0.0
O22 O 0.23935 0.18323 0.32647 0.0
O23 O 0.05803 0.16243 0.31813 0.0
O24 O 0.14151 0.16236 0.33117 0.0
C25 C 0.21986 0.19521 0.33606 0.0
C26 C 0.10021 0.15527 0.32363 0.0
O27 O 0.05053 0.20039 0.31018 0.0
Mg28 Mg 0.10036 0.18533 0.94522 0.0
O29 O 0.08422 0.18579 0.00759 0.0
O30 O 0.01441 0.17286 0.02071 0.0
Mg31 Mg 0.98669 0.16348 0.96539 0.0
C32 C 0.05194 0.18076 0.0308 0.0
C33 C 0.15215 0.21649 0.94418 0.0
O34 O 0.11546 0.21998 0.92049 0.0
O35 O 0.0327 0.2001 0.9311 0.0
O36 O 0.96605 0.18562 0.94237 0.0
O37 O 0.14855 0.1661 0.95485 0.0
O38 O 0.06522 0.16525 0.94144 0.0
C39 C 0.98433 0.19759 0.93161 0.0
C40 C 0.10695 0.15862 0.9507 0.0
O41 O 0.15526 0.20375 0.95609 0.0
Mg42 Mg 0.17005 0.04877 0.96103 0.0
O43 O 0.17678 0.04645 0.02437 0.0
O44 O 0.24432 0.05903 0.04467 0.0
Mg45 Mg 0.27816 0.07043 0.9942 0.0
C46 C 0.20626 0.05074 0.05055 0.0
C47 C 0.08211 0.02835 0.98405 0.0
O48 O 0.07259 0.03917 0.00629 0.0
O49 O 0.2401 0.03471 0.95115 0.0
O50 O 0.30419 0.04903 0.96955 0.0
O51 O 0.11856 0.06757 0.96825 0.0
O52 O 0.20351 0.06894 0.96403 0.0
C53 C 0.28795 0.03726 0.9559 0.0
C54 C 0.15995 0.07531 0.96883 0.0
O55 O 0.11841 0.02934 0.96052 0.0
Mg56 Mg 0.91953 0.93942 0.68845 0.0
O57 O 0.9231 0.93943 0.75229 0.0
O58 O 0.98499 0.92457 0.77167 0.0
Mg59 Mg 0.01855 0.91417 0.71946 0.0
C60 C 0.94913 0.93354 0.7783 0.0
C61 C 0.83657 0.96088 0.71402 0.0
O62 O 0.82328 0.94952 0.73321 0.0
O63 O -0.00576 0.95191 0.68314 0.0
O64 O 0.05266 0.93553 0.70007 0.0
O65 O 0.86231 0.92175 0.69034 0.0
O66 O 0.94673 0.91851 0.68751 0.0
C67 C 0.04085 0.94801 0.68841 0.0
C68 C 0.90129 0.91306 0.68996 0.0
O69 O 0.87375 0.95999 0.69118 0.0
Mg70 Mg 0.89364 0.80221 0.66123 0.0
O71 O 0.88904 0.80151 0.72472 0.0
O72 O 0.82679 0.81591 0.7453 0.0
Mg73 Mg 0.79245 0.82646 0.69333 0.0
C74 C 0.86314 0.807 0.75119 0.0
C75 C 0.9798 0.78214 0.68695 0.0
O76 O -0.00372 0.79452 0.69935 0.0
O77 O 0.81984 0.78939 0.65384 0.0
O78 O 0.76015 0.80501 0.67274 0.0
O79 O 0.94972 0.81997 0.66651 0.0
O80 O 0.86532 0.82313 0.66181 0.0
C81 C 0.77297 0.79281 0.65983 0.0
C82 C 0.91047 0.82855 0.66707 0.0
O83 O 0.94009 0.78182 0.66608 0.0
Mg84 Mg 0.88508 0.7989 0.05959 0.0
O85 O 0.88658 0.79904 0.99575 0.0
O86 O 0.94767 0.81398 0.97596 0.0
Mg87 Mg 0.98336 0.82404 0.02794 0.0
C88 C 0.91161 0.80506 0.96959 0.0
C89 C 0.80248 0.77728 0.03427 0.0
O90 O 0.78818 0.7886 0.01515 0.0
O91 O 0.95969 0.78632 0.0636 0.0
O92 O 0.01806 0.80246 0.0459 0.0
O93 O 0.82748 0.81642 0.05788 0.0
O94 O 0.91192 0.81983 0.06011 0.0
C95 C 0.0062 0.78999 0.05749 0.0
C96 C 0.86618 0.82517 0.05729 0.0
O97 O 0.83984 0.7783 0.05709 0.0
Mg98 Mg 0.8492 0.93626 0.06807 0.0
O99 O 0.84502 0.93768 0.00429 0.0
O100 O 0.7842 0.92292 0.98297 0.0
Mg101 Mg 0.75124 0.91142 0.03369 0.0
C102 C 0.81935 0.93219 0.97755 0.0
C103 C 0.93138 0.95818 0.04551 0.0
O104 O 0.94463 0.94714 0.02509 0.0
O105 O 0.77393 0.9484 0.07556 0.0
O106 O 0.71645 0.93229 0.05583 0.0
O107 O 0.90744 0.91893 0.06279 0.0
O108 O 0.82327 0.91526 0.0657 0.0
C109 C 0.72756 0.94452 0.06941 0.0
C110 C 0.86902 0.9101 0.0616 0.0
O111 O 0.89412 0.95697 0.06817 0.0
Mg112 Mg 0.0604 0.54991 0.81509 0.0
O113 O 0.06285 0.55441 0.75225 0.0
O114 O 0.00993 0.57251 0.7386 0.0
Mg115 Mg 0.96744 0.57809 0.79207 0.0
C116 C 0.04347 0.56325 0.72906 0.0
C117 C 0.14149 0.52885 0.78152 0.0
O118 O 0.15687 0.54069 0.76541 0.0
O119 O 0.98471 0.53801 0.80984 0.0
O120 O 0.93043 0.55583 0.79615 0.0
O121 O 0.11907 0.56694 0.82437 0.0
O122 O 0.03491 0.57076 0.82493 0.0
C123 C 0.93957 0.54263 0.80242 0.0
C124 C 0.08095 0.57587 0.82654 0.0
O125 O 0.1045 0.52932 0.80465 0.0
Mg126 Mg 0.10563 0.6871 0.82569 0.0
O127 O 0.12108 0.68336 0.76382 0.0
O128 O 0.17433 0.6649 0.75558 0.0
Mg129 Mg 0.20146 0.65874 0.81393 0.0
C130 C 0.14538 0.67476 0.74275 0.0
C131 C 0.03124 0.70674 0.78271 0.0
O132 O 0.01499 0.69411 0.77197 0.0
O133 O 0.18142 0.69888 0.83194 0.0
O134 O 0.2371 0.68094 0.823 0.0
O135 O 0.04543 0.67012 0.82465 0.0
O136 O 0.12749 0.66609 0.83796 0.0
C137 C 0.22727 0.69411 0.82895 0.0
C138 C 0.08198 0.66108 0.83202 0.0
O139 O 0.06612 0.70754 0.80762 0.0
Mg140 Mg 0.12835 0.68218 0.44552 0.0
O141 O 0.11264 0.67685 0.50685 0.0
O142 O 0.0559 0.65898 0.51027 0.0
Mg143 Mg 0.02821 0.65477 0.45107 0.0
C144 C 0.08665 0.66783 0.52562 0.0
C145 C 0.20528 0.70114 0.49051 0.0
O146 O 0.21852 0.68857 0.50376 0.0
O147 O 0.05407 0.69495 0.44072 0.0
O148 O -0.00431 0.6775 0.44528 0.0
O149 O 0.18637 0.66455 0.44395 0.0
O150 O 0.10392 0.66181 0.42978 0.0
C151 C 0.00747 0.69068 0.44186 0.0
C152 C 0.14859 0.65613 0.43527 0.0
O153 O 0.17095 0.70192 0.46519 0.0
Mg154 Mg 0.14688 0.54446 0.43996 0.0
O155 O 0.14758 0.54673 0.50345 0.0
O156 O 0.20417 0.56338 0.5209 0.0
Mg157 Mg 0.24661 0.56999 0.46808 0.0
C158 C 0.16934 0.55426 0.52845 0.0
C159 C 0.05656 0.52686 0.46888 0.0
O160 O 0.04616 0.53972 0.48147 0.0
O161 O 0.21942 0.53087 0.44133 0.0
O162 O 0.27766 0.5473 0.45776 0.0
O163 O 0.09274 0.56284 0.4351 0.0
O164 O 0.1776 0.56504 0.43398 0.0
C165 C 0.26572 0.53452 0.44873 0.0
C166 C 0.13285 0.57104 0.43385 0.0
O167 O 0.09575 0.52509 0.44817 0.0
Mg168 Mg 0.86909 0.43524 0.17934 0.0
O169 O 0.88033 0.43455 0.24253 0.0
O170 O 0.94865 0.42104 0.25669 0.0
Mg171 Mg 0.9786 0.41204 0.20167 0.0
C172 C 0.91111 0.42902 0.26629 0.0
C173 C 0.82211 0.46609 0.17001 0.0
O174 O 0.85353 0.46658 0.14137 0.0
O175 O 0.93921 0.44946 0.17037 0.0
O176 O 0.00381 0.43427 0.18216 0.0
O177 O 0.81784 0.41623 0.18338 0.0
O178 O 0.90211 0.415 0.17455 0.0
C179 C 0.9872 0.44656 0.17237 0.0
C180 C 0.85902 0.40849 0.17982 0.0
O181 O 0.81835 0.45461 0.18867 0.0
Mg182 Mg 0.88606 0.29728 0.16613 0.0
O183 O 0.8766 0.29779 0.22897 0.0
O184 O 0.80909 0.31096 0.2459 0.0
Mg185 Mg 0.77604 0.31975 0.1911 0.0
C186 C 0.84771 0.30309 0.25399 0.0
C187 C 0.9298 0.26543 0.16924 0.0
O188 O 0.8926 0.26238 0.14559 0.0
O189 O 0.81635 0.28291 0.15696 0.0
O190 O 0.75099 0.29757 0.17043 0.0
O191 O 0.93629 0.31632 0.17119 0.0
O192 O 0.85184 0.31753 0.16223 0.0
C193 C 0.76819 0.2855 0.15943 0.0
C194 C 0.89485 0.32402 0.16846 0.0
O195 O 0.93834 0.27835 0.17795 0.0
Mg196 Mg 0.87375 0.298 0.56265 0.0
O197 O 0.87245 0.29937 0.49905 0.0
O198 O 0.93211 0.31473 0.4793 0.0
Mg199 Mg 0.96947 0.3241 0.53158 0.0
C200 C 0.89602 0.30582 0.47294 0.0
C201 C 0.78511 0.27896 0.53766 0.0
O202 O 0.77002 0.29174 0.52707 0.0
O203 O 0.94953 0.28546 0.56368 0.0
O204 O 0.00517 0.30243 0.54643 0.0
O205 O 0.81627 0.31565 0.56479 0.0
O206 O 0.90066 0.31898 0.5657 0.0
C207 C -0.00468 0.28968 0.55683 0.0
C208 C 0.85494 0.32438 0.56464 0.0
O209 O 0.82682 0.27773 0.55616 0.0
Mg210 Mg 0.84182 0.43583 0.56104 0.0
O211 O 0.83341 0.43429 0.49764 0.0
O212 O 0.77047 0.41897 0.48342 0.0
Mg213 Mg 0.74092 0.40994 0.53847 0.0
C214 C 0.80549 0.42776 0.47383 0.0
C215 C 0.88074 0.46793 0.56596 0.0
O216 O 0.84412 0.46937 0.59091 0.0
O217 O 0.7673 0.44862 0.56682 0.0
O218 O 0.70827 0.43187 0.55439 0.0
O219 O 0.89888 0.41817 0.5593 0.0
O220 O 0.81497 0.41496 0.56667 0.0
C221 C 0.72053 0.44463 0.56329 0.0
C222 C 0.86023 0.40949 0.56234 0.0
O223 O 0.88874 0.45581 0.55126 0.0
Mg224 Mg 0.6085 0.05168 0.81361 0.0
O225 O 0.60204 0.05155 0.74997 0.0
O226 O 0.53709 0.06569 0.73201 0.0
Mg227 Mg 0.50399 0.0756 0.78484 0.0
C228 C 0.57392 0.05712 0.7246 0.0
C229 C 0.69307 0.0308 0.78634 0.0
O230 O 0.70422 0.04205 0.76603 0.0
O231 O 0.53647 0.0382 0.81973 0.0
O232 O 0.47443 0.05365 0.80376 0.0
O233 O 0.66287 0.06993 0.81036 0.0
O234 O 0.57816 0.07226 0.81478 0.0
C235 C 0.48906 0.04132 0.81487 0.0
C236 C 0.6227 0.07818 0.81105 0.0
O237 O 0.65709 0.03163 0.81016 0.0
Mg238 Mg 0.61654 0.18964 0.8204 0.0
O239 O 0.62987 0.18918 0.75771 0.0
O240 O 0.69549 0.17484 0.74331 0.0
Mg241 Mg 0.72316 0.16539 0.7987 0.0
C242 C 0.65945 0.18339 0.73384 0.0
C243 C 0.5307 0.2081 0.78681 0.0
O244 O 0.51857 0.19528 0.77484 0.0
O245 O 0.68838 0.20304 0.83189 0.0
O246 O 0.75074 0.1872 0.81992 0.0
O247 O 0.56278 0.17133 0.81386 0.0
O248 O 0.64637 0.1689 0.82473 0.0
C249 C 0.73596 0.19957 0.83043 0.0
C250 C 0.6025 0.16304 0.81747 0.0
O251 O 0.56829 0.20947 0.80941 0.0
Mg252 Mg 0.58347 0.18647 0.44071 0.0
O253 O 0.57419 0.18682 0.50385 0.0
O254 O 0.50582 0.17399 0.52076 0.0
Mg255 Mg 0.47324 0.16436 0.46709 0.0
C256 C 0.54424 0.1819 0.52876 0.0
C257 C 0.67543 0.20391 0.46949 0.0
O258 O 0.68615 0.1912 0.48299 0.0
O259 O 0.51434 0.20111 0.43101 0.0
O260 O 0.44939 0.18644 0.44527 0.0
O261 O 0.63331 0.16725 0.44605 0.0
O262 O 0.54868 0.16637 0.43837 0.0
C263 C 0.46624 0.19848 0.43386 0.0
C264 C 0.59157 0.15971 0.4438 0.0
O265 O 0.63657 0.20541 0.44812 0.0
Mg266 Mg 0.65271 0.0494 0.43312 0.0
O267 O 0.66196 0.04977 0.49646 0.0
O268 O 0.73001 0.06298 0.51262 0.0
Mg269 Mg 0.76378 0.07143 0.45831 0.0
C270 C 0.69168 0.05513 0.52109 0.0
C271 C 0.56191 0.03166 0.46319 0.0
O272 O 0.55125 0.04416 0.47793 0.0
O273 O 0.72068 0.03435 0.42616 0.0
O274 O 0.78647 0.04866 0.44107 0.0
O275 O 0.60332 0.06865 0.43701 0.0
O276 O 0.68804 0.06935 0.42974 0.0
C277 C 0.76875 0.03656 0.43078 0.0
C278 C 0.6453 0.0761 0.43508 0.0
O279 O 0.59964 0.03057 0.44087 0.0
Mg280 Mg 0.34297 0.93221 0.15589 0.0
O281 O 0.35358 0.93388 0.2191 0.0
O282 O 0.41762 0.91985 0.23885 0.0
Mg283 Mg 0.44845 0.90891 0.18658 0.0
C284 C 0.38151 0.92877 0.24517 0.0
C285 C 0.26507 0.9539 0.18611 0.0
O286 O 0.25209 0.94234 0.20456 0.0
O287 O 0.41517 0.94512 0.14382 0.0
O288 O 0.47725 0.93017 0.16275 0.0
O289 O 0.28869 0.91416 0.16568 0.0
O290 O 0.37272 0.91146 0.15776 0.0
C291 C 0.4626 0.94205 0.14876 0.0
C292 C 0.32871 0.90584 0.16546 0.0
O293 O 0.29713 0.95283 0.15957 0.0
Mg294 Mg 0.33977 0.79524 0.19595 0.0
O295 O 0.33277 0.79532 0.25954 0.0
O296 O 0.26767 0.80948 0.27653 0.0
Mg297 Mg 0.2354 0.81947 0.22321 0.0
C298 C 0.30442 0.80094 0.28452 0.0
C299 C 0.4244 0.77434 0.22483 0.0
O300 O 0.43504 0.78557 0.24536 0.0
O301 O 0.26722 0.78188 0.18837 0.0
O302 O 0.206 0.79775 0.20297 0.0
O303 O 0.39371 0.81376 0.19892 0.0
O304 O 0.30911 0.81581 0.19354 0.0
C305 C 0.21993 0.78536 0.19201 0.0
C306 C 0.35332 0.82191 0.19691 0.0
O307 O 0.38867 0.77516 0.20057 0.0
Mg308 Mg 0.38535 0.7986 0.57722 0.0
O309 O 0.39429 0.7974 0.51386 0.0
O310 O 0.45789 0.81173 0.49532 0.0
Mg311 Mg 0.48833 0.8228 0.54759 0.0
C312 C 0.42228 0.80275 0.48831 0.0
C313 C 0.29854 0.77878 0.55155 0.0
O314 O 0.28532 0.79101 0.53631 0.0
O315 O 0.459 0.78578 0.58811 0.0
O316 O 0.51873 0.80163 0.57079 0.0
O317 O 0.32986 0.81661 0.56957 0.0
O318 O 0.41394 0.81944 0.57668 0.0
C319 C 0.50598 0.78945 0.58377 0.0
C320 C 0.36937 0.82505 0.57027 0.0
O321 O 0.33777 0.77835 0.57289 0.0
Mg322 Mg 0.3738 0.9362 0.55363 0.0
O323 O 0.36977 0.93566 0.49006 0.0
O324 O 0.30529 0.92161 0.47148 0.0
Mg325 Mg 0.27048 0.91212 0.52446 0.0
C326 C 0.3427 0.92998 0.4644 0.0
C327 C 0.4624 0.95505 0.52673 0.0
O328 O 0.47569 0.94253 0.51333 0.0
O329 O 0.30138 0.94978 0.55854 0.0
O330 O 0.24023 0.93407 0.5428 0.0
O331 O 0.42793 0.91783 0.55232 0.0
O332 O 0.34315 0.91564 0.55618 0.0
C333 C 0.25414 0.94647 0.55369 0.0
C334 C 0.38772 0.90964 0.55331 0.0
O335 O 0.42294 0.95595 0.54749 0.0
Mg336 Mg 0.59544 0.54828 0.31167 0.0
O337 O 0.57938 0.54881 0.24902 0.0
O338 O 0.51055 0.56233 0.23642 0.0
Mg339 Mg 0.483 0.57091 0.29249 0.0
C340 C 0.54756 0.55432 0.226 0.0
C341 C 0.67972 0.53001 0.27455 0.0
O342 O 0.68524 0.54218 0.25681 0.0
O343 O 0.52743 0.53352 0.32255 0.0
O344 O 0.46129 0.54827 0.31119 0.0
O345 O 0.64484 0.56748 0.3053 0.0
O346 O 0.56121 0.56841 0.31705 0.0
C347 C 0.47918 0.53607 0.32057 0.0
C348 C 0.60345 0.57506 0.30975 0.0
O349 O 0.64755 0.52923 0.30112 0.0
Mg350 Mg 0.67041 0.68529 0.31472 0.0
O351 O 0.67289 0.68669 0.25105 0.0
O352 O 0.73785 0.6735 0.22921 0.0
Mg353 Mg 0.77582 0.66296 0.27971 0.0
C354 C 0.69957 0.68184 0.22409 0.0
C355 C 0.58106 0.70552 0.29201 0.0
O356 O 0.57014 0.69429 0.27157 0.0
O357 O 0.74147 0.69927 0.32172 0.0
O358 O 0.80356 0.6846 0.30176 0.0
O359 O 0.61851 0.66641 0.31009 0.0
O360 O 0.70359 0.66498 0.31235 0.0
C361 C 0.7888 0.69652 0.31534 0.0
C362 C 0.65983 0.65862 0.30878 0.0
O363 O 0.61884 0.70492 0.31463 0.0
Mg364 Mg 0.58014 0.68565 0.93748 0.0
O365 O 0.582 0.68592 0.00135 0.0
O366 O 0.52082 0.67154 0.02356 0.0
Mg367 Mg 0.48161 0.66133 0.97323 0.0
C368 C 0.55776 0.68031 0.02849 0.0
C369 C 0.66646 0.70665 0.95968 0.0
O370 O 0.6807 0.69529 0.97865 0.0
O371 O 0.50666 0.69884 0.9356 0.0
O372 O 0.44851 0.68309 0.95601 0.0
O373 O 0.63563 0.66752 0.93743 0.0
O374 O 0.55082 0.66499 0.93835 0.0
C375 C 0.46048 0.69546 0.94379 0.0
C376 C 0.59587 0.65918 0.93918 0.0
O377 O 0.62781 0.70584 0.93795 0.0
Mg378 Mg 0.59323 0.54779 0.93122 0.0
O379 O 0.61129 0.54892 0.99336 0.0
O380 O 0.67617 0.5639 0.00483 0.0
Mg381 Mg 0.69907 0.57283 0.94798 0.0
C382 C 0.64191 0.55514 0.01589 0.0
C383 C 0.51459 0.52858 0.97016 0.0
O384 O 0.50202 0.54119 0.98337 0.0
O385 O 0.66496 0.53454 0.91902 0.0
O386 O 0.72659 0.55079 0.92889 0.0
O387 O 0.53853 0.56591 0.93842 0.0
O388 O 0.62105 0.56856 0.92462 0.0
C389 C 0.71224 0.53822 0.91996 0.0
C390 C 0.57744 0.57431 0.93303 0.0
O391 O 0.54855 0.52774 0.94478 0.0
Mg392 Mg 0.37119 0.43941 0.67824 0.0
O393 O 0.36767 0.4394 0.742 0.0
O394 O 0.42702 0.42452 0.76509 0.0
Mg395 Mg 0.46655 0.41414 0.71512 0.0
C396 C 0.39052 0.4335 0.76948 0.0
C397 C 0.28469 0.46038 0.69946 0.0
O398 O 0.26921 0.4486 0.71586 0.0
O399 O 0.44663 0.45189 0.67708 0.0
O400 O 0.50257 0.43545 0.69766 0.0
O401 O 0.31423 0.42157 0.67714 0.0
O402 O 0.39875 0.41849 0.67887 0.0
C403 C 0.49244 0.44793 0.68517 0.0
C404 C 0.35332 0.41296 0.67911 0.0
O405 O 0.32481 0.46 0.67924 0.0
Mg406 Mg 0.35032 0.30137 0.67272 0.0
O407 O 0.34489 0.30223 0.73606 0.0
O408 O 0.28291 0.31721 0.75408 0.0
Mg409 Mg 0.24897 0.32648 0.70033 0.0
C410 C 0.31896 0.30837 0.7615 0.0
C411 C 0.43803 0.28268 0.70236 0.0
O412 O 0.45182 0.2955 0.71334 0.0
O413 O 0.27645 0.28824 0.66753 0.0
O414 O 0.21737 0.30451 0.68374 0.0
O415 O 0.40571 0.31947 0.6747 0.0
O416 O 0.3213 0.32221 0.66925 0.0
C417 C 0.22972 0.29195 0.67313 0.0
C418 C 0.36616 0.32792 0.67328 0.0
O419 O 0.39851 0.28137 0.68153 0.0
Mg420 Mg 0.40671 0.29701 0.05041 0.0
O421 O 0.4157 0.29754 0.98738 0.0
O422 O 0.48567 0.30986 0.97131 0.0
Mg423 Mg 0.51999 0.3183 0.02587 0.0
C424 C 0.44595 0.30254 0.96276 0.0
C425 C 0.35216 0.26636 0.05246 0.0
O426 O 0.38942 0.26277 0.07558 0.0
O427 O 0.47408 0.28158 0.05919 0.0
O428 O 0.5408 0.29587 0.04672 0.0
O429 O 0.35991 0.31682 0.04654 0.0
O430 O 0.44453 0.31666 0.05474 0.0
C431 C 0.52252 0.28388 0.05728 0.0
C432 C 0.4027 0.32385 0.04967 0.0
O433 O 0.34937 0.2791 0.04047 0.0
Mg434 Mg 0.35439 0.43421 0.07641 0.0
O435 O 0.35197 0.43651 0.01316 0.0
O436 O 0.28461 0.42493 0.9892 0.0
Mg437 Mg 0.24445 0.41444 0.0389 0.0
C438 C 0.32485 0.43259 0.98536 0.0
C439 C 0.44803 0.45223 0.05451 0.0
O440 O 0.46021 0.43984 0.03974 0.0
O441 O 0.28656 0.44921 0.08528 0.0
O442 O 0.22096 0.43607 0.06397 0.0
O443 O 0.40221 0.41472 0.06923 0.0
O444 O 0.31697 0.41455 0.07235 0.0
C445 C 0.23854 0.44741 0.07915 0.0
C446 C 0.35937 0.40764 0.06728 0.0
O447 O 0.40892 0.453 0.07565 0.0
H448 H 0.11088 0.0479 0.07983 0.0
H449 H 0.27257 0.04587 0.10818 0.0
H450 H 0.25092 0.04283 0.17407 0.0
H451 H 0.18667 0.04363 0.22372 0.0
H452 H 0.02542 0.04836 0.19626 0.0
H453 H 0.04603 0.04739 0.12972 0.0
C454 C 0.14127 0.04652 0.10041 0.0
C455 C 0.1932 0.0471 0.08936 0.0
C456 C 0.12855 0.04543 0.13831 0.0
C457 C 0.23234 0.04552 0.11621 0.0
C458 C 0.21997 0.04381 0.15381 0.0
C459 C 0.15591 0.04413 0.20324 0.0
C460 C 0.10461 0.04604 0.21485 0.0
C461 C 0.16829 0.04417 0.16524 0.0
C462 C 0.06524 0.04694 0.18793 0.0
C463 C 0.07702 0.04642 0.14995 0.0
H464 H 0.14509 0.18157 0.06434 0.0
H465 H 0.98195 0.18346 0.08703 0.0
H466 H -0.00025 0.18388 0.15418 0.0
H467 H 0.06133 0.18176 0.20601 0.0
H468 H 0.22388 0.17725 0.18309 0.0
H469 H 0.2068 0.17981 0.11624 0.0
C470 C 0.11352 0.18231 0.08403 0.0
C471 C 0.06231 0.18259 0.07094 0.0
C472 C 0.12399 0.18191 0.12241 0.0
C473 C 0.02164 0.18326 0.09661 0.0
C474 C 0.03182 0.18346 0.1349 0.0
C475 C 0.0931 0.1815 0.18641 0.0
C476 C 0.14383 0.17933 0.1994 0.0
C477 C 0.08279 0.18249 0.14808 0.0
C478 C 0.18451 0.17884 0.17369 0.0
C479 C 0.17476 0.18032 0.13553 0.0
H480 H 0.91618 0.93588 0.95193 0.0
H481 H 0.75706 0.935 0.9166 0.0
H482 H 0.78367 0.93733 0.8514 0.0
H483 H 0.8524 0.93717 0.80441 0.0
H484 H 0.01146 0.93494 0.83957 0.0
H485 H 0.98495 0.93639 0.90495 0.0
C486 C 0.88738 0.93648 0.92995 0.0
C487 C 0.83477 0.93537 0.93889 0.0
C488 C 0.90309 0.93713 0.89256 0.0
C489 C 0.79777 0.93585 0.91023 0.0
C490 C 0.81298 0.93715 0.87304 0.0
C491 C 0.88124 0.93727 0.82641 0.0
C492 C 0.93378 0.93603 0.81734 0.0
C493 C 0.86556 0.93744 0.86384 0.0
C494 C 0.9708 0.93588 0.84602 0.0
C495 C 0.95564 0.93668 0.88333 0.0
H496 H 0.97145 0.80289 0.908 0.0
H497 H 0.81319 0.80258 0.94453 0.0
H498 H 0.78344 0.80254 0.87974 0.0
H499 H 0.80274 0.8047 0.81266 0.0
H500 H 0.96098 0.80305 0.77615 0.0
H501 H 0.99051 0.8016 0.84081 0.0
C502 C 0.93051 0.80262 0.90164 0.0
C503 C 0.89453 0.80289 0.93078 0.0
C504 C 0.91372 0.80233 0.86437 0.0
C505 C 0.84157 0.80234 0.92243 0.0
C506 C 0.82453 0.80241 0.88543 0.0
C507 C 0.8436 0.80385 0.81897 0.0
C508 C 0.87967 0.80417 0.78988 0.0
C509 C 0.86027 0.80273 0.85618 0.0
C510 C 0.9325 0.80284 0.79818 0.0
C511 C 0.94944 0.80208 0.83513 0.0
H512 H 0.08073 0.54105 0.68829 0.0
H513 H 0.05323 0.58648 0.68446 0.0
H514 H 0.09329 0.5878 0.62307 0.0
H515 H 0.13644 0.57609 0.5705 0.0
H516 H 0.1558 0.53041 0.57068 0.0
H517 H 0.11911 0.52906 0.63363 0.0
C518 C 0.08333 0.5512 0.67385 0.0
C519 C 0.06412 0.56365 0.69079 0.0
C520 C 0.10537 0.55183 0.63814 0.0
C521 C 0.06733 0.57674 0.67178 0.0
C522 C 0.09053 0.57752 0.63682 0.0
C523 C 0.133 0.56589 0.58461 0.0
C524 C 0.14958 0.5534 0.5667 0.0
C525 C 0.10988 0.56516 0.61983 0.0
C526 C 0.14372 0.54015 0.58444 0.0
C527 C 0.12263 0.53939 0.62023 0.0
H528 H 0.1276 0.65321 0.69472 0.0
H529 H 0.14345 0.69894 0.7009 0.0
H530 H 0.12783 0.70091 0.63363 0.0
H531 H 0.10894 0.6895 0.57316 0.0
H532 H 0.08423 0.644 0.56866 0.0
H533 H 0.10358 0.64201 0.6352 0.0
C534 C 0.128 0.66357 0.68114 0.0
C535 C 0.13744 0.67589 0.70226 0.0
C536 C 0.11695 0.66464 0.64293 0.0
C537 C 0.13662 0.68932 0.68486 0.0
C538 C 0.12761 0.69044 0.64653 0.0
C539 C 0.10767 0.67918 0.58688 0.0
C540 C 0.09531 0.66692 0.56619 0.0
C541 C 0.11757 0.67817 0.62531 0.0
C542 C 0.09328 0.6536 0.58418 0.0
C543 C 0.10461 0.65244 0.62213 0.0
H544 H 0.89871 0.43144 0.44167 0.0
H545 H 0.73637 0.4281 0.41653 0.0
H546 H 0.75475 0.42974 0.34975 0.0
H547 H 0.8174 0.43054 0.2986 0.0
H548 H 0.98024 0.43112 0.32354 0.0
H549 H 0.96149 0.43224 0.39038 0.0
C550 C 0.86739 0.43126 0.42151 0.0
C551 C 0.81627 0.42974 0.43382 0.0
C552 C 0.87845 0.43164 0.38322 0.0
C553 C 0.77601 0.42924 0.40756 0.0
C554 C 0.78652 0.43019 0.36946 0.0
C555 C 0.84871 0.43112 0.31871 0.0
C556 C 0.90009 0.43086 0.30632 0.0
C557 C 0.83763 0.43117 0.35697 0.0
C558 C 0.9404 0.43131 0.33255 0.0
C559 C 0.92968 0.43194 0.37069 0.0
H560 H 0.78678 0.30281 0.31589 0.0
H561 H 0.94528 0.3 0.28016 0.0
H562 H 0.97449 0.30032 0.34483 0.0
H563 H 0.95543 0.30304 0.41155 0.0
H564 H 0.79727 0.30373 0.44812 0.0
H565 H 0.7674 0.30253 0.38333 0.0
C566 C 0.82762 0.30213 0.32239 0.0
C567 C 0.86379 0.30154 0.29334 0.0
C568 C 0.84423 0.30203 0.35976 0.0
C569 C 0.91661 0.30045 0.30205 0.0
C570 C 0.93344 0.30071 0.33902 0.0
C571 C 0.91448 0.30281 0.4052 0.0
C572 C 0.87855 0.30365 0.43425 0.0
C573 C 0.89767 0.30176 0.36806 0.0
C574 C 0.82556 0.30311 0.42601 0.0
C575 C 0.80849 0.30248 0.38902 0.0
H576 H 0.66916 0.05359 0.69572 0.0
H577 H 0.50808 0.05525 0.66546 0.0
H578 H 0.53062 0.05308 0.59946 0.0
H579 H 0.59634 0.05268 0.55043 0.0
H580 H 0.75758 0.05374 0.58045 0.0
H581 H 0.73495 0.05276 0.64664 0.0
C582 C 0.63903 0.05325 0.67466 0.0
C583 C 0.58708 0.05451 0.68526 0.0
C584 C 0.65239 0.05259 0.63684 0.0
C585 C 0.54834 0.05432 0.6578 0.0
C586 C 0.56121 0.05309 0.62015 0.0
C587 C 0.6265 0.05248 0.57148 0.0
C588 C 0.67852 0.05322 0.56074 0.0
C589 C 0.61314 0.0525 0.60934 0.0
C590 C 0.71727 0.0532 0.5882 0.0
C591 C 0.70434 0.05266 0.62596 0.0
H592 H 0.56522 0.18697 0.7031 0.0
H593 H 0.72651 0.1836 0.67525 0.0
H594 H 0.70485 0.18447 0.6087 0.0
H595 H 0.63956 0.18426 0.55881 0.0
H596 H 0.47799 0.18478 0.58716 0.0
H597 H 0.50011 0.18705 0.65334 0.0
C598 C 0.59568 0.18666 0.68244 0.0
C599 C 0.64741 0.18532 0.69392 0.0
C600 C 0.58276 0.18654 0.64444 0.0
C601 C 0.68645 0.18464 0.66695 0.0
C602 C 0.67405 0.18511 0.62899 0.0
C603 C 0.60924 0.18507 0.57949 0.0
C604 C 0.55724 0.18442 0.56828 0.0
C605 C 0.62228 0.18578 0.61745 0.0
C606 C 0.51827 0.18523 0.59527 0.0
C607 C 0.5309 0.18652 0.63302 0.0
H608 H 0.2805 0.93291 0.40387 0.0
H609 H 0.44024 0.93169 0.43768 0.0
H610 H 0.46724 0.93203 0.37242 0.0
H611 H 0.44488 0.93055 0.30562 0.0
H612 H 0.28527 0.9335 0.27206 0.0
H613 H 0.25877 0.93487 0.33713 0.0
C614 C 0.32118 0.93289 0.39683 0.0
C615 C 0.35833 0.93208 0.42531 0.0
C616 C 0.33642 0.93337 0.35931 0.0
C617 C 0.41097 0.93229 0.41608 0.0
C618 C 0.42642 0.93242 0.37881 0.0
C619 C 0.40441 0.93169 0.31264 0.0
C620 C 0.36708 0.93179 0.28416 0.0
C621 C 0.38944 0.93264 0.35018 0.0
C622 C 0.31478 0.93346 0.29349 0.0
C623 C 0.29953 0.93414 0.33072 0.0
H624 H 0.32732 0.79863 0.45912 0.0
H625 H 0.48828 0.80055 0.4296 0.0
H626 H 0.46571 0.79824 0.3635 0.0
H627 H 0.39983 0.79804 0.3141 0.0
H628 H 0.23871 0.7991 0.34347 0.0
H629 H 0.26148 0.79779 0.40973 0.0
C630 C 0.35744 0.79828 0.43821 0.0
C631 C 0.40937 0.79968 0.44905 0.0
C632 C 0.34402 0.79762 0.4003 0.0
C633 C 0.44805 0.79949 0.42176 0.0
C634 C 0.43515 0.79821 0.38405 0.0
C635 C 0.36975 0.79772 0.33503 0.0
C636 C 0.3177 0.79859 0.32408 0.0
C637 C 0.38321 0.7976 0.37297 0.0
C638 C 0.27903 0.79846 0.35138 0.0
C639 C 0.29204 0.79773 0.38919 0.0
H640 H 0.55115 0.5511 0.0508 0.0
H641 H 0.71454 0.55517 0.07121 0.0
H642 H 0.69974 0.55369 0.13855 0.0
H643 H 0.63967 0.55301 0.19136 0.0
H644 H 0.47574 0.55169 0.17076 0.0
H645 H 0.49122 0.55024 0.10352 0.0
C646 C 0.58356 0.55146 0.07001 0.0
C647 C 0.63389 0.55316 0.05623 0.0
C648 C 0.57451 0.55119 0.10852 0.0
C649 C 0.67549 0.55389 0.08132 0.0
C650 C 0.66702 0.55305 0.11972 0.0
C651 C 0.60742 0.55219 0.17213 0.0
C652 C 0.55667 0.55235 0.1858 0.0
C653 C 0.61661 0.55195 0.13362 0.0
C654 C 0.5151 0.55159 0.1607 0.0
C655 C 0.52396 0.55077 0.12236 0.0
H656 H 0.60109 0.68466 0.20062 0.0
H657 H 0.75813 0.68443 0.16136 0.0
H658 H 0.72746 0.6858 0.09675 0.0
H659 H 0.65595 0.68461 0.05161 0.0
H660 H 0.49936 0.682 0.09124 0.0
H661 H 0.5297 0.6843 0.15566 0.0
C662 C 0.62858 0.6852 0.17794 0.0
C663 C 0.68174 0.68453 0.18561 0.0
C664 C 0.61065 0.68532 0.14099 0.0
C665 C 0.717 0.68494 0.156 0.0
C666 C 0.69948 0.68568 0.11913 0.0
C667 C 0.62849 0.68479 0.07436 0.0
C668 C 0.57555 0.68317 0.06685 0.0
C669 C 0.64639 0.68552 0.1113 0.0
C670 C 0.54032 0.68318 0.09649 0.0
C671 C 0.55765 0.68449 0.13325 0.0
H672 H 0.44553 0.4353 0.83378 0.0
H673 H 0.29058 0.43714 0.7899 0.0
H674 H 0.25583 0.43784 0.85317 0.0
H675 H 0.26954 0.43573 0.92109 0.0
H676 H 0.42489 0.43565 0.96473 0.0
H677 H 0.45942 0.43666 0.90164 0.0
C678 C 0.40422 0.43604 0.83819 0.0
C679 C 0.37061 0.43599 0.80741 0.0
C680 C 0.38458 0.43669 0.87459 0.0
C681 C 0.31719 0.43717 0.81327 0.0
C682 C 0.29729 0.43749 0.84941 0.0
C683 C 0.3109 0.43612 0.91671 0.0
C684 C 0.34457 0.43542 0.94746 0.0
C685 C 0.33058 0.43693 0.8803 0.0
C686 C 0.3981 0.43617 0.94151 0.0
C687 C 0.41795 0.43666 0.90542 0.0
H688 H 0.41456 0.30287 0.78846 0.0
H689 H 0.25629 0.30846 0.82234 0.0
H690 H 0.28156 0.30553 0.88773 0.0
H691 H 0.3492 0.30293 0.93521 0.0
H692 H 0.50857 0.30005 0.90192 0.0
H693 H 0.48243 0.30023 0.83613 0.0
C694 C 0.38557 0.30329 0.81018 0.0
C695 C 0.33362 0.30582 0.80073 0.0
C696 C 0.40067 0.30211 0.84768 0.0
C697 C 0.29651 0.30657 0.82906 0.0
C698 C 0.31093 0.30488 0.86637 0.0
C699 C 0.37814 0.30212 0.91352 0.0
C700 C 0.43067 0.30135 0.92323 0.0
C701 C 0.36297 0.30285 0.876 0.0
C702 C 0.46791 0.30062 0.89497 0.0
C703 C 0.45297 0.30076 0.85746 0.0
H704 H 0.23939 0.95988 0.2574 0.0
H705 H 0.26884 0.97978 0.15102 0.0
H706 H 0.26082 0.0034 0.1796 0.0
H707 H 0.24626 0.01829 0.23491 0.0
H708 H 0.21784 -0.00176 0.34133 0.0
H709 H 0.22607 0.97469 0.31268 0.0
C710 C 0.2433 0.96937 0.24031 0.0
C711 C 0.25407 0.9681 0.20205 0.0
C712 C 0.24 0.98286 0.25708 0.0
C713 C 0.26013 0.98051 0.18048 0.0
C714 C 0.25594 -0.006 0.19685 0.0
C715 C 0.24268 0.00878 0.25199 0.0
C716 C 0.23177 0.01001 0.29027 0.0
C717 C 0.24643 -0.00471 0.2352 0.0
C718 C 0.22646 -0.00243 0.31184 0.0
C719 C 0.23076 0.98411 0.29544 0.0
H720 H 0.98074 0.26841 0.2349 0.0
H721 H 0.93135 0.23674 0.15497 0.0
H722 H 0.96384 0.21774 0.19571 0.0
H723 H 0.00506 0.21024 0.25416 0.0
H724 H 0.05368 0.24198 0.3342 0.0
H725 H 0.0214 0.26091 0.29337 0.0
C726 C 0.97757 0.25736 0.22609 0.0
C727 C 0.95401 0.25399 0.19176 0.0
C728 C -0.00473 0.24654 0.24993 0.0
C729 C 0.94955 0.23961 0.18114 0.0
C730 C 0.96782 0.22876 0.20451 0.0
C731 C 0.00814 0.22128 0.26295 0.0
C732 C 0.03158 0.22468 0.29732 0.0
C733 C 0.99027 0.23211 0.23911 0.0
C734 C 0.03568 0.23907 0.30798 0.0
C735 C 0.01751 0.2499 0.28456 0.0
H736 H 0.22254 0.21312 0.99978 0.0
H737 H 0.15995 0.24459 0.92392 0.0
H738 H 0.21534 0.26285 0.95163 0.0
H739 H 0.28111 0.26983 0.99731 0.0
H740 H 0.34377 0.23833 0.07307 0.0
H741 H 0.2881 0.22011 0.04555 0.0
C742 C 0.22109 0.22395 0.98911 0.0
C743 C 0.18719 0.22746 0.9597 0.0
C744 C 0.25269 0.2344 0.00533 0.0
C745 C 0.18571 0.24158 0.94646 0.0
C746 C 0.21727 0.25203 0.96235 0.0
C747 C 0.28246 0.259 0.00802 0.0
C748 C 0.31654 0.25546 0.03731 0.0
C749 C 0.25074 0.24856 0.99187 0.0
C750 C 0.31789 0.24135 0.05062 0.0
C751 C 0.28617 0.23092 0.03483 0.0
H752 H 0.01523 0.02126 0.03913 0.0
H753 H 0.08934 0.0045 0.94073 0.0
H754 H 0.05007 0.98123 0.95169 0.0
H755 H -0.00389 0.96557 0.98967 0.0
H756 H 0.92158 0.98225 0.08794 0.0
H757 H 0.96008 0.00564 0.07668 0.0
C758 C 0.02247 0.01256 0.0199 0.0
C759 C 0.05514 0.01462 0.98916 0.0
C760 C 0.00016 -0.00083 0.02653 0.0
C761 C 0.06434 0.0032 0.96462 0.0
C762 C 0.04204 0.98988 0.97092 0.0
C763 C 0.98851 0.97429 0.00877 0.0
C764 C 0.95629 0.97216 0.0397 0.0
C765 C 0.01029 0.98772 0.00195 0.0
C766 C 0.94637 0.98361 0.06396 0.0
C767 C 0.96825 -0.00301 0.0575 0.0
H768 H 0.75794 0.02429 0.72956 0.0
H769 H 0.6833 0.00606 0.82593 0.0
H770 H 0.71989 0.98273 0.81127 0.0
H771 H 0.77227 0.96747 0.7709 0.0
H772 H 0.84727 0.98566 0.67466 0.0
H773 H 0.81081 0.00904 0.68934 0.0
C774 C 0.74997 0.01524 0.74753 0.0
C775 C 0.71804 0.01692 0.77882 0.0
C776 C 0.77074 0.00183 0.73879 0.0
C777 C 0.70781 0.00506 0.80167 0.0
C778 C 0.72857 0.9917 0.79327 0.0
C779 C 0.78036 0.97652 0.75296 0.0
C780 C 0.81224 0.97482 0.72166 0.0
C781 C 0.75978 0.98995 0.76177 0.0
C782 C 0.82276 0.98669 0.69891 0.0
C783 C 0.80206 6e-05 0.70733 0.0
H784 H 0.07627 0.73286 0.784 0.0
H785 H 0.94978 0.70947 0.73485 0.0
H786 H 0.92524 0.73047 0.69838 0.0
H787 H 0.93871 0.75554 0.68149 0.0
H788 H 0.06512 0.77892 0.73086 0.0
H789 H 0.09135 0.75769 0.76565 0.0
C790 C 0.04308 0.73237 0.76553 0.0
C791 C 0.01456 0.71967 0.76242 0.0
C792 C 0.02962 0.7444 0.74432 0.0
C793 C 0.97218 0.71916 0.73792 0.0
C794 C 0.95826 0.73113 0.71693 0.0
C795 C 0.97244 0.75596 0.69945 0.0
C796 C -0.0001 0.7688 0.70358 0.0
C797 C 0.98674 0.7438 0.7199 0.0
C798 C 0.04332 0.76916 0.72715 0.0
C799 C 0.05816 0.75706 0.74725 0.0
H800 H 0.73215 0.71332 0.01602 0.0
H801 H 0.65325 0.73145 0.92083 0.0
H802 H 0.68712 0.75502 0.93634 0.0
H803 H 0.73802 0.77049 0.97732 0.0
H804 H 0.8168 0.75238 0.0726 0.0
H805 H 0.78348 0.72877 0.05683 0.0
C806 C 0.72276 0.72239 0.99844 0.0
C807 C 0.69039 0.72063 0.96727 0.0
C808 C 0.74179 0.73593 0.00777 0.0
C809 C 0.67817 0.73253 0.94498 0.0
C810 C 0.69735 0.74601 0.95389 0.0
C811 C 0.7476 0.76141 0.99482 0.0
C812 C 0.77964 0.7632 0.02616 0.0
C813 C 0.72881 0.74785 0.98539 0.0
C814 C 0.7921 0.75129 0.04834 0.0
C815 C 0.77323 0.73778 0.03929 0.0
H816 H 0.20984 0.52367 0.7258 0.0
H817 H 0.12326 0.50277 0.81278 0.0
H818 H 0.15803 0.4797 0.79373 0.0
H819 H 0.21351 0.4655 0.75298 0.0
H820 H 0.30108 0.4863 0.66643 0.0
H821 H 0.26486 0.50938 0.68452 0.0
C822 C 0.19876 0.51408 0.74073 0.0
C823 C 0.16418 0.51496 0.77078 0.0
C824 C 0.2187 0.50083 0.72953 0.0
C825 C 0.1499 0.50241 0.7896 0.0
C826 C 0.16966 0.4892 0.77868 0.0
C827 C 0.22436 0.47505 0.73781 0.0
C828 C 0.25985 0.47417 0.70835 0.0
C829 C 0.20401 0.48828 0.74868 0.0
C830 C 0.27379 0.48668 0.68921 0.0
C831 C 0.25324 0.49989 0.69961 0.0
H832 H 0.32468 0.75144 0.56966 0.0
H833 H 0.21392 0.77627 0.50676 0.0
H834 H 0.17544 0.75444 0.48246 0.0
H835 H 0.17518 0.72842 0.47711 0.0
H836 H 0.28567 0.70343 0.53972 0.0
H837 H 0.32246 0.72525 0.56594 0.0
C838 C 0.29181 0.75208 0.55093 0.0
C839 C 0.27233 0.76548 0.53999 0.0
C840 C 0.27014 0.73948 0.53669 0.0
C841 C 0.22977 0.76611 0.51562 0.0
C842 C 0.20781 0.75362 0.50158 0.0
C843 C 0.2074 0.72772 0.49643 0.0
C844 C 0.22792 0.71432 0.5062 0.0
C845 C 0.22812 0.74027 0.51153 0.0
C846 C 0.26929 0.71362 0.53159 0.0
C847 C 0.29029 0.72609 0.54665 0.0
H848 H 0.95238 0.46842 0.51112 0.0
H849 H 0.87481 0.49555 0.59061 0.0
H850 H 0.92136 0.51626 0.5666 0.0
H851 H 0.9839 0.52659 0.52311 0.0
H852 H 0.06165 0.49934 0.44404 0.0
H853 H 0.01456 0.4787 0.46774 0.0
C854 C 0.94569 0.47885 0.52336 0.0
C855 C 0.9102 0.48042 0.55269 0.0
C856 C 0.97228 0.49068 0.50934 0.0
C857 C 0.90197 0.49403 0.56807 0.0
C858 C 0.92846 0.50588 0.5543 0.0
C859 C 0.99032 0.51616 0.51086 0.0
C860 C 0.02612 0.51451 0.48176 0.0
C861 C 0.96356 0.50433 0.52486 0.0
C862 C 0.03428 0.5009 0.46643 0.0
C863 C 0.00747 0.48909 0.48001 0.0
H864 H 0.73293 0.52687 0.20997 0.0
H865 H 0.68385 0.50384 0.30797 0.0
H866 H 0.72197 0.48195 0.28344 0.0
H867 H 0.76856 0.46937 0.23426 0.0
H868 H 0.81804 0.49227 0.13618 0.0
H869 H 0.77972 0.51421 0.16057 0.0
C870 C 0.73094 0.51709 0.22613 0.0
C871 C 0.70579 0.517 0.26084 0.0
C872 C 0.75246 0.50451 0.2117 0.0
C873 C 0.70308 0.50421 0.28122 0.0
C874 C 0.72472 0.49168 0.26717 0.0
C875 C 0.77073 0.47912 0.21803 0.0
C876 C 0.79604 0.47916 0.18338 0.0
C877 C 0.74921 0.4917 0.23237 0.0
C878 C 0.79871 0.49194 0.1629 0.0
C879 C 0.77698 0.5045 0.17688 0.0
H880 H 0.81334 0.2511 0.54553 0.0
H881 H 0.69479 0.27825 0.49869 0.0
H882 H 0.65184 0.25748 0.47205 0.0
H883 H 0.64814 0.23171 0.46158 0.0
H884 H 0.76565 0.2044 0.50896 0.0
H885 H 0.80915 0.22519 0.53547 0.0
C886 C 0.7779 0.25246 0.52974 0.0
C887 C 0.7573 0.26621 0.52418 0.0
C888 C 0.75352 0.24048 0.51422 0.0
C889 C 0.71148 0.26779 0.50347 0.0
C890 C 0.68695 0.25593 0.48807 0.0
C891 C 0.68353 0.2303 0.47741 0.0
C892 C 0.7038 0.21654 0.48309 0.0
C893 C 0.70783 0.24225 0.49305 0.0
C894 C 0.74934 0.21489 0.50407 0.0
C895 C 0.77413 0.22676 0.51936 0.0
H896 H 0.40766 0.25497 0.69673 0.0
H897 H 0.5246 0.28194 0.74572 0.0
H898 H 0.56219 0.26135 0.77755 0.0
H899 H 0.56136 0.23577 0.79207 0.0
H900 H 0.44463 0.20878 0.74295 0.0
H901 H 0.4071 0.22936 0.711 0.0
C902 C 0.44166 0.25633 0.71407 0.0
C903 C 0.46336 0.26997 0.7187 0.0
C904 C 0.46275 0.24448 0.73268 0.0
C905 C 0.50718 0.27155 0.74155 0.0
C906 C 0.5286 0.2598 0.75993 0.0
C907 C 0.52742 0.23441 0.77466 0.0
C908 C 0.50569 0.22078 0.77008 0.0
C909 C 0.50644 0.24624 0.75595 0.0
C910 C 0.46205 0.21917 0.74707 0.0
C911 C 0.44066 0.23092 0.72864 0.0
H912 H 0.58911 0.00417 0.45018 0.0
H913 H 0.47615 0.03009 0.507 0.0
H914 H 0.43654 0.00863 0.53295 0.0
H915 H 0.4346 0.98258 0.53985 0.0
H916 H 0.54827 0.95678 0.48332 0.0
H917 H 0.58751 0.97822 0.45732 0.0
C918 C 0.55555 0.00514 0.46798 0.0
C919 C 0.53543 0.0187 0.4765 0.0
C920 C 0.53352 -0.00719 0.48322 0.0
C921 C 0.49226 0.01977 0.49991 0.0
C922 C 0.46974 0.00751 0.51489 0.0
C923 C 0.46822 0.98164 0.52209 0.0
C924 C 0.48855 0.9681 0.51362 0.0
C925 C 0.49029 -0.006 0.50693 0.0
C926 C 0.53192 0.96708 0.49037 0.0
C927 C 0.55426 0.97932 0.47534 0.0
H928 H 0.51303 0.71175 0.23661 0.0
H929 H 0.58827 0.73004 0.33295 0.0
H930 H 0.5472 0.75303 0.32016 0.0
H931 H 0.49093 0.76799 0.2812 0.0
H932 H 0.41615 0.74968 0.18467 0.0
H933 H 0.4565 0.72665 0.19787 0.0
C934 C 0.52015 0.72072 0.25502 0.0
C935 C 0.55355 0.71916 0.28575 0.0
C936 C 0.49691 0.73394 0.24728 0.0
C937 C 0.56268 0.73095 0.30911 0.0
C938 C 0.53933 0.74411 0.30177 0.0
C939 C 0.48364 0.75899 0.26292 0.0
C940 C 0.4507 0.76057 0.23193 0.0
C941 C 0.50668 0.74575 0.27079 0.0
C942 C 0.44141 0.74876 0.20869 0.0
C943 C 0.46436 0.73557 0.21625 0.0
H944 H 0.41581 0.47946 0.06613 0.0
H945 H 0.5311 0.45464 0.00839 0.0
H946 H 0.56089 0.47607 0.97629 0.0
H947 H 0.55168 0.5016 0.96264 0.0
H948 H 0.43603 0.52637 0.02014 0.0
H949 H 0.40831 0.50509 0.0539 0.0
C950 C 0.44795 0.47875 0.04693 0.0
C951 C 0.47117 0.46546 0.03967 0.0
C952 C 0.46416 0.49104 0.02801 0.0
C953 C 0.51258 0.46474 0.01454 0.0
C954 C 0.52941 0.47697 0.99597 0.0
C955 C 0.52012 0.50233 0.98232 0.0
C956 C 0.49558 0.51552 0.98857 0.0
C957 C 0.50485 0.49012 0.00199 0.0
C958 C 0.4553 0.51632 0.01461 0.0
C959 C 0.43961 0.50418 0.03408 0.0
H960 H 0.18414 0.13766 0.32336 0.0
H961 H 0.01761 0.13739 0.32033 0.0
H962 H 0.01793 0.11135 0.32285 0.0
H963 H 0.06516 0.08897 0.32954 0.0
H964 H 0.23161 0.08888 0.32929 0.0
H965 H 0.23168 0.11494 0.32435 0.0
C966 C 0.14791 0.13194 0.32275 0.0
C967 C 0.10091 0.1395 0.32178 0.0
C968 C 0.14837 0.11696 0.32383 0.0
C969 C 0.05434 0.13186 0.32106 0.0
C970 C 0.05447 0.11697 0.32261 0.0
C971 C 0.10153 0.09454 0.32783 0.0
C972 C 0.14829 0.08692 0.3298 0.0
C973 C 0.10123 0.10944 0.32451 0.0
C974 C 0.19503 0.09446 0.3278 0.0
C975 C 0.19509 0.10936 0.32505 0.0
H976 H 0.18863 0.14199 0.96999 0.0
H977 H 0.02548 0.14019 0.94579 0.0
H978 H 0.0266 0.11434 0.95345 0.0
H979 H 0.07503 0.09208 0.96249 0.0
H980 H 0.23918 0.09383 0.98253 0.0
H981 H 0.23638 0.11982 0.98141 0.0
C982 C 0.15321 0.13596 0.96666 0.0
C983 C 0.10706 0.14304 0.95737 0.0
C984 C 0.15431 0.12105 0.9703 0.0
C985 C 0.06154 0.13506 0.95312 0.0
C986 C 0.06214 0.12024 0.95738 0.0
C987 C 0.11007 0.09815 0.96716 0.0
C988 C 0.15723 0.091 0.97259 0.0
C989 C 0.10845 0.11311 0.96541 0.0
C990 C 0.20235 0.09902 0.97828 0.0
C991 C 0.20084 0.11391 0.97751 0.0
H992 H 0.97573 0.89262 0.6908 0.0
H993 H 0.81042 0.89834 0.68972 0.0
H994 H 0.79863 0.87258 0.68361 0.0
H995 H 0.83544 0.84872 0.67448 0.0
H996 H 0.00074 0.843 0.67683 0.0
H997 H 0.01232 0.86859 0.68645 0.0
C998 C 0.93707 0.88826 0.68977 0.0
C999 C 0.89404 0.89742 0.69059 0.0
C1000 C 0.93059 0.87346 0.68612 0.0
C1001 C 0.84424 0.89153 0.68912 0.0
C1002 C 0.83745 0.87681 0.68548 0.0
C1003 C 0.87399 0.853 0.67755 0.0
C1004 C 0.91713 0.84393 0.67485 0.0
C1005 C 0.88038 0.86771 0.68331 0.0
C1006 C 0.96683 0.84973 0.6787 0.0
C1007 C 0.97352 0.86437 0.68421 0.0
H1008 H 0.79589 0.88947 0.05632 0.0
H1009 H 0.96075 0.89593 0.05534 0.0
H1010 H 0.97441 0.87015 0.05205 0.0
H1011 H 0.93953 0.84585 0.05346 0.0
H1012 H 0.77459 0.83947 0.05353 0.0
H1013 H 0.76099 0.86526 0.05289 0.0
C1014 C 0.83482 0.88529 0.05486 0.0
C1015 C 0.87721 0.89463 0.05618 0.0
C1016 C 0.84238 0.87049 0.05301 0.0
C1017 C 0.92741 0.88898 0.05443 0.0
C1018 C 0.93527 0.87424 0.05262 0.0
C1019 C 0.90059 0.85006 0.05284 0.0
C1020 C 0.85816 0.84073 0.05369 0.0
C1021 C 0.89304 0.8649 0.05248 0.0
C1022 C 0.80796 0.84641 0.05299 0.0
C1023 C 0.80012 0.86116 0.05269 0.0
H1024 H 0.00897 0.59705 0.82347 0.0
H1025 H 0.17268 0.58977 0.83549 0.0
H1026 H 0.18702 0.61549 0.83981 0.0
H1027 H 0.15296 0.63985 0.84017 0.0
H1028 H 0.99025 0.6472 0.82238 0.0
H1029 H 0.97548 0.62145 0.82041 0.0
C1030 C 0.04789 0.60102 0.82648 0.0
C1031 C 0.08971 0.59145 0.82874 0.0
C1032 C 0.05596 0.6158 0.82803 0.0
C1033 C 0.1398 0.59688 0.83345 0.0
C1034 C 0.14803 0.61159 0.83596 0.0
C1035 C 0.11435 0.6359 0.83526 0.0
C1036 C 0.0729 0.6455 0.83096 0.0
C1037 C 0.10638 0.62113 0.83316 0.0
C1038 C 0.02293 0.64007 0.82557 0.0
C1039 C 0.01445 0.62535 0.82443 0.0
H1040 H 0.07486 0.63614 0.42232 0.0
H1041 H 0.23712 0.64076 0.44686 0.0
H1042 H 0.24681 0.61478 0.44776 0.0
H1043 H 0.20874 0.59093 0.44219 0.0
H1044 H 0.04495 0.58653 0.42331 0.0
H1045 H 0.03608 0.61245 0.42023 0.0
C1046 C 0.11222 0.63155 0.42853 0.0
C1047 C 0.15501 0.64044 0.43506 0.0
C1048 C 0.11715 0.61667 0.43012 0.0
C1049 C 0.20345 0.63419 0.44192 0.0
C1050 C 0.209 0.61934 0.4425 0.0
C1051 C 0.171 0.59558 0.43783 0.0
C1052 C 0.12754 0.58676 0.43325 0.0
C1053 C 0.16601 0.61049 0.43685 0.0
C1054 C 0.079 0.59306 0.42716 0.0
C1055 C 0.07391 0.60788 0.42528 0.0
H1056 H 0.81378 0.34248 0.17331 0.0
H1057 H 0.98024 0.34083 0.1742 0.0
H1058 H 0.98376 0.36681 0.17901 0.0
H1059 H 0.93969 0.3899 0.1802 0.0
H1060 H 0.7733 0.39159 0.18204 0.0
H1061 H 0.76966 0.36554 0.17927 0.0
C1062 C 0.85085 0.34774 0.17499 0.0
C1063 C 0.89666 0.33969 0.17336 0.0
C1064 C 0.85261 0.36267 0.17818 0.0
C1065 C 0.94436 0.34676 0.1754 0.0
C1066 C 0.94644 0.36162 0.17811 0.0
C1067 C 0.90259 0.38462 0.18051 0.0
C1068 C 0.85685 0.39272 0.1813 0.0
C1069 C 0.9008 0.36967 0.17917 0.0
C1070 C 0.80912 0.38563 0.18149 0.0
C1071 C 0.807 0.37073 0.17979 0.0
H1072 H 0.92846 0.34496 0.56014 0.0
H1073 H 0.76352 0.3389 0.56454 0.0
H1074 H 0.75057 0.36473 0.56362 0.0
H1075 H 0.78629 0.38892 0.56364 0.0
H1076 H 0.95109 0.39493 0.55675 0.0
H1077 H 0.96387 0.3691 0.55635 0.0
C1078 C 0.88963 0.34924 0.56042 0.0
C1079 C 0.84705 0.33998 0.56231 0.0
C1080 C 0.88245 0.36407 0.55955 0.0
C1081 C 0.79701 0.34577 0.56305 0.0
C1082 C 0.78955 0.36054 0.56256 0.0
C1083 C 0.82498 0.38463 0.56159 0.0
C1084 C 0.86763 0.39387 0.56016 0.0
C1085 C 0.83203 0.36978 0.56107 0.0
C1086 C 0.91754 0.38806 0.55785 0.0
C1087 C 0.92492 0.3733 0.55767 0.0
H1088 H 0.54564 0.09785 0.80577 0.0
H1089 H 0.71142 0.09378 0.81117 0.0
H1090 H 0.71986 0.11973 0.81271 0.0
H1091 H 0.67995 0.14339 0.81609 0.0
H1092 H 0.51436 0.14753 0.80841 0.0
H1093 H 0.50608 0.12162 0.80418 0.0
C1094 C 0.58366 0.1026 0.8068 0.0
C1095 C 0.6278 0.09386 0.80847 0.0
C1096 C 0.58825 0.11752 0.80753 0.0
C1097 C 0.67678 0.10025 0.80986 0.0
C1098 C 0.68166 0.11509 0.81086 0.0
C1099 C 0.64207 0.13869 0.81301 0.0
C1100 C 0.59788 0.14742 0.81263 0.0
C1101 C 0.63762 0.12381 0.81024 0.0
C1102 C 0.54906 0.14107 0.80881 0.0
C1103 C 0.54426 0.12625 0.80643 0.0
H1104 H 0.67639 0.14273 0.44467 0.0
H1105 H 0.51002 0.14132 0.44821 0.0
H1106 H 0.51234 0.11533 0.4483 0.0
H1107 H 0.56124 0.09301 0.44386 0.0
H1108 H 0.72732 0.09443 0.43606 0.0
H1109 H 0.72541 0.12036 0.44126 0.0
C1110 C 0.64065 0.13674 0.44586 0.0
C1111 C 0.59314 0.14398 0.44664 0.0
C1112 C 0.64218 0.12177 0.44492 0.0
C1113 C 0.54717 0.13606 0.44782 0.0
C1114 C 0.54842 0.12117 0.44772 0.0
C1115 C 0.59707 0.09898 0.44355 0.0
C1116 C 0.64434 0.09176 0.43978 0.0
C1117 C 0.59566 0.11392 0.44574 0.0
C1118 C 0.69038 0.09967 0.43922 0.0
C1119 C 0.68935 0.11453 0.44207 0.0
H1120 H 0.40693 0.88667 0.17363 0.0
H1121 H 0.2411 0.89044 0.17843 0.0
H1122 H 0.23424 0.86486 0.19092 0.0
H1123 H 0.27523 0.84135 0.19703 0.0
H1124 H 0.44128 0.83784 0.19436 0.0
H1125 H 0.4482 0.86361 0.18526 0.0
C1126 C 0.36928 0.88202 0.17798 0.0
C1127 C 0.32462 0.89051 0.17509 0.0
C1128 C 0.36569 0.86737 0.18557 0.0
C1129 C 0.27613 0.88416 0.18045 0.0
C1130 C 0.27217 0.86953 0.1876 0.0
C1131 C 0.313 0.84621 0.19505 0.0
C1132 C 0.35767 0.83765 0.19624 0.0
C1133 C 0.31669 0.86102 0.18979 0.0
C1134 C 0.40627 0.84417 0.19355 0.0
C1135 C 0.41026 0.8589 0.18817 0.0
H1136 H 0.31065 0.88995 0.55089 0.0
H1137 H 0.47654 0.89405 0.55374 0.0
H1138 H 0.48535 0.86816 0.55807 0.0
H1139 H 0.44598 0.84468 0.56509 0.0
H1140 H 0.28036 0.84029 0.56021 0.0
H1141 H 0.2714 0.86612 0.5527 0.0
C1142 C 0.34876 0.8852 0.55196 0.0
C1143 C 0.39285 0.89394 0.55216 0.0
C1144 C 0.35358 0.8703 0.55438 0.0
C1145 C 0.44194 0.88757 0.5536 0.0
C1146 C 0.44704 0.87277 0.55619 0.0
C1147 C 0.40792 0.84928 0.5618 0.0
C1148 C 0.36394 0.84053 0.56321 0.0
C1149 C 0.40311 0.86407 0.55719 0.0
C1150 C 0.31489 0.84677 0.55926 0.0
C1151 C 0.30972 0.86154 0.55499 0.0
H1152 H 0.57413 0.64194 0.30918 0.0
H1153 H 0.73984 0.64001 0.29851 0.0
H1154 H 0.7364 0.6141 0.29503 0.0
H1155 H 0.68716 0.59187 0.29882 0.0
H1156 H 0.5221 0.59365 0.31375 0.0
H1157 H 0.52454 0.61965 0.31158 0.0
C1158 C 0.60944 0.63586 0.3057 0.0
C1159 C 0.65712 0.64296 0.3039 0.0
C1160 C 0.60738 0.62088 0.30468 0.0
C1161 C 0.70254 0.6349 0.2997 0.0
C1162 C 0.70068 0.62003 0.29787 0.0
C1163 C 0.65163 0.59793 0.30129 0.0
C1164 C 0.60453 0.59079 0.30627 0.0
C1165 C 0.65341 0.6129 0.30089 0.0
C1166 C 0.55891 0.59883 0.30963 0.0
C1167 C 0.56025 0.61373 0.30854 0.0
H1168 H 0.52024 0.63941 0.94839 0.0
H1169 H 0.68472 0.64369 0.9336 0.0
H1170 H 0.69352 0.61775 0.93095 0.0
H1171 H 0.65388 0.5941 0.92938 0.0
H1172 H 0.48998 0.5897 0.94681 0.0
H1173 H 0.48152 0.61561 0.95173 0.0
C1174 C 0.55813 0.63471 0.94511 0.0
C1175 C 0.60173 0.6435 0.94115 0.0
C1176 C 0.56293 0.61981 0.94377 0.0
C1177 C 0.65051 0.63718 0.93675 0.0
C1178 C 0.65557 0.62235 0.9351 0.0
C1179 C 0.61639 0.59873 0.93482 0.0
C1180 C 0.57267 0.58993 0.93779 0.0
C1181 C 0.61194 0.61359 0.93809 0.0
C1182 C 0.52429 0.59621 0.94441 0.0
C1183 C 0.51941 0.61103 0.94722 0.0
H1184 H 0.42826 0.39275 0.68433 0.0
H1185 H 0.26296 0.39796 0.67774 0.0
H1186 H 0.25229 0.37204 0.67618 0.0
H1187 H 0.29026 0.34805 0.67368 0.0
H1188 H 0.45551 0.34294 0.6818 0.0
H1189 H 0.46581 0.36879 0.6858 0.0
C1190 C 0.38981 0.38826 0.68307 0.0
C1191 C 0.34648 0.39731 0.68118 0.0
C1192 C 0.38398 0.37339 0.68221 0.0
C1193 C 0.29698 0.39125 0.67925 0.0
C1194 C 0.29086 0.37643 0.67826 0.0
C1195 C 0.3285 0.35255 0.67678 0.0
C1196 C 0.37203 0.34354 0.67746 0.0
C1197 C 0.33414 0.36741 0.67929 0.0
C1198 C 0.42133 0.34961 0.68117 0.0
C1199 C 0.42728 0.3644 0.68345 0.0
H1200 H 0.44202 0.39009 0.05906 0.0
H1201 H 0.27545 0.39035 0.05848 0.0
H1202 H 0.27441 0.36458 0.04958 0.0
H1203 H 0.32053 0.34178 0.04618 0.0
H1204 H 0.48698 0.34136 0.05074 0.0
H1205 H 0.48824 0.36734 0.05356 0.0
C1206 C 0.40549 0.38453 0.05665 0.0
C1207 C 0.35894 0.39217 0.05935 0.0
C1208 C 0.4051 0.36964 0.05237 0.0
C1209 C 0.31192 0.38478 0.05631 0.0
C1210 C 0.31123 0.37001 0.05136 0.0
C1211 C 0.35711 0.34737 0.04739 0.0
C1212 C 0.40355 0.33961 0.04816 0.0
C1213 C 0.35757 0.36231 0.04993 0.0
C1214 C 0.45062 0.34703 0.04993 0.0
C1215 C 0.45141 0.36191 0.0517 0.0
H1216 H 0.93612 0.0213 0.32311 0.0
H1217 H 0.02705 0.02417 0.42353 0.0
H1218 H 0.94958 0.02163 0.46133 0.0
H1219 H 0.85641 0.02698 0.46356 0.0
H1220 H 0.76547 0.02402 0.36309 0.0
H1221 H 0.84218 0.01769 0.3275 0.0
C1222 C 0.93911 0.02048 0.35323 0.0
C1223 C 0.98653 0.02329 0.37069 0.0
C1224 C 0.8942 0.01938 0.37471 0.0
C1225 C 0.99063 0.02211 0.40962 0.0
C1226 C 0.94618 0.02089 0.43125 0.0
C1227 C 0.85314 0.02417 0.43429 0.0
C1228 C 0.8061 0.02632 0.41561 0.0
C1229 C 0.89759 0.02078 0.41393 0.0
C1230 C 0.80162 0.02252 0.37788 0.0
C1231 C 0.84562 0.01908 0.35741 0.0
H1232 H 0.3104 0.20618 0.31179 0.0
H1233 H 0.20743 0.20536 0.40573 0.0
H1234 H 0.27903 0.21054 0.44791 0.0
H1235 H 0.37262 0.20744 0.45807 0.0
H1236 H 0.47543 0.20891 0.36405 0.0
H1237 H 0.40234 0.21194 0.32178 0.0
C1238 C 0.30335 0.20795 0.34123 0.0
C1239 C 0.25433 0.20508 0.3559 0.0
C1240 C 0.34488 0.21077 0.36536 0.0
C1241 C 0.2451 0.20748 0.39395 0.0
C1242 C 0.28619 0.21024 0.41816 0.0
C1243 C 0.37905 0.20925 0.42856 0.0
C1244 C 0.42889 0.20758 0.41397 0.0
C1245 C 0.3367 0.21077 0.40435 0.0
C1246 C 0.43721 0.21008 0.37583 0.0
C1247 C 0.39531 0.21159 0.35154 0.0
H1248 H 0.83127 0.20735 0.80695 0.0
H1249 H 0.72727 0.21012 0.90008 0.0
H1250 H 0.79991 0.21347 0.94262 0.0
H1251 H 0.89216 0.20828 0.9538 0.0
H1252 H -0.00368 0.20642 0.86065 0.0
H1253 H 0.9248 0.21053 0.81748 0.0
C1254 C 0.82452 0.20946 0.83628 0.0
C1255 C 0.77436 0.20821 0.85058 0.0
C1256 C 0.8666 0.21126 0.86063 0.0
C1257 C 0.76569 0.21103 0.88851 0.0
C1258 C 0.80732 0.21274 0.91295 0.0
C1259 C 0.89943 0.20958 0.92422 0.0
C1260 C 0.94897 0.2068 0.91024 0.0
C1261 C 0.85796 0.21181 0.89954 0.0
C1262 C 0.95835 0.20852 0.87195 0.0
C1263 C 0.9173 0.21067 0.8472 0.0
H1264 H 0.28168 0.02852 0.88514 0.0
H1265 H 0.38063 0.02764 0.98185 0.0
H1266 H 0.45572 0.02353 0.94222 0.0
H1267 H 0.49375 0.02815 0.88114 0.0
H1268 H 0.39491 0.03465 0.78576 0.0
H1269 H 0.31952 0.02821 0.82287 0.0
C1270 C 0.31939 0.02669 0.89754 0.0
C1271 C 0.32605 0.02849 0.93613 0.0
C1272 C 0.36269 0.02574 0.87436 0.0
C1273 C 0.37493 0.02631 0.9521 0.0
C1274 C 0.41787 0.02416 0.92938 0.0
C1275 C 0.45595 0.02747 0.86814 0.0
C1276 C 0.44946 0.032 0.83106 0.0
C1277 C 0.41256 0.02504 0.89048 0.0
C1278 C 0.40047 0.03127 0.81441 0.0
C1279 C 0.35739 0.02774 0.83575 0.0
H1280 H 0.25456 0.95698 0.62291 0.0
H1281 H 0.16267 0.95475 0.5228 0.0
H1282 H 0.08495 0.9603 0.55848 0.0
H1283 H 0.04226 0.95841 0.61899 0.0
H1284 H 0.13371 0.95501 0.71912 0.0
H1285 H 0.21225 0.95947 0.6834 0.0
C1286 C 0.21782 0.95843 0.60877 0.0
C1287 C 0.21397 0.95547 0.57046 0.0
C1288 C 0.17295 0.96028 0.62997 0.0
C1289 C 0.16626 0.95704 0.55231 0.0
C1290 C 0.12183 0.96004 0.57282 0.0
C1291 C 0.0792 0.95935 0.63312 0.0
C1292 C 0.08258 0.95637 0.67146 0.0
C1293 C 0.12433 0.9606 0.61191 0.0
C1294 C 0.1305 0.95731 0.68959 0.0
C1295 C 0.17536 0.95969 0.66906 0.0
H1296 H 0.68356 0.78476 0.69264 0.0
H1297 H 0.76898 0.78208 0.59006 0.0
H1298 H 0.68973 0.77691 0.55567 0.0
H1299 H 0.59523 0.78004 0.5536 0.0
H1300 H 0.50986 0.78194 0.65626 0.0
H1301 H 0.58985 0.78 0.69209 0.0
C1302 C 0.68496 0.78236 0.66307 0.0
C1303 C 0.7315 0.78406 0.64368 0.0
C1304 C 0.63917 0.77945 0.64348 0.0
C1305 C 0.73337 0.78085 0.60546 0.0
C1306 C 0.68797 0.77805 0.58572 0.0
C1307 C 0.59412 0.77922 0.58378 0.0
C1308 C 0.5472 0.78134 0.6024 0.0
C1309 C 0.64036 0.7783 0.60414 0.0
C1310 C 0.54573 0.78028 0.64143 0.0
C1311 C 0.59156 0.7794 0.66194 0.0
H1312 H 0.22038 0.77737 0.12076 0.0
H1313 H 0.12925 0.77578 0.22078 0.0
H1314 H 0.05102 0.77217 0.18366 0.0
H1315 H 0.00809 0.77699 0.12409 0.0
H1316 H 0.09918 0.78419 0.02564 0.0
H1317 H 0.17762 0.77777 0.05991 0.0
C1318 C 0.18366 0.77547 0.13435 0.0
C1319 C 0.18018 0.77682 0.17326 0.0
C1320 C 0.13856 0.77483 0.11269 0.0
C1321 C 0.13255 0.77469 0.1908 0.0
C1322 C 0.08782 0.77284 0.16951 0.0
C1323 C 0.04489 0.7765 0.10981 0.0
C1324 C 0.04824 0.78112 0.0726 0.0
C1325 C 0.09004 0.77402 0.13052 0.0
C1326 C 0.096 0.7807 0.05435 0.0
C1327 C 0.1408 0.77716 0.07406 0.0
H1328 H 0.63576 0.95158 0.0381 0.0
H1329 H 0.7238 0.95447 0.13994 0.0
H1330 H 0.64459 0.95741 0.17572 0.0
H1331 H 0.55138 0.95219 0.17849 0.0
H1332 H 0.46317 0.95012 0.07661 0.0
H1333 H 0.5411 0.95428 0.04016 0.0
C1334 C 0.63754 0.95358 0.06788 0.0
C1335 C 0.68506 0.95252 0.08657 0.0
C1336 C 0.59179 0.95514 0.08827 0.0
C1337 C 0.68742 0.95521 0.12506 0.0
C1338 C 0.64208 0.95671 0.1456 0.0
C1339 C 0.54903 0.95338 0.14843 0.0
C1340 C 0.50223 0.95061 0.13008 0.0
C1341 C 0.59407 0.95566 0.12769 0.0
C1342 C 0.49906 0.95221 0.09121 0.0
C1343 C 0.54371 0.95441 0.07034 0.0
H1344 H 0.92753 0.52676 0.86378 0.0
H1345 H 0.85077 0.53952 0.76235 0.0
H1346 H 0.76711 0.53371 0.78967 0.0
H1347 H 0.71743 0.53258 0.84747 0.0
H1348 H 0.79569 0.52546 0.95187 0.0
H1349 H 0.8766 0.52097 0.91895 0.0
C1350 C 0.89259 0.52757 0.84712 0.0
C1351 C 0.89488 0.53363 0.81132 0.0
C1352 C 0.84463 0.52549 0.86425 0.0
C1353 C 0.84959 0.53488 0.79002 0.0
C1354 C 0.8018 0.53172 0.80584 0.0
C1355 C 0.75174 0.52928 0.86268 0.0
C1356 C 0.75108 0.52927 0.9018 0.0
C1357 C 0.79881 0.52811 0.84377 0.0
C1358 C 0.79561 0.52537 0.92166 0.0
C1359 C 0.84193 0.52303 0.90282 0.0
H1360 H 0.23918 0.70576 0.89616 0.0
H1361 H 0.31312 0.70097 0.78963 0.0
H1362 H 0.3968 0.70657 0.81775 0.0
H1363 H 0.44923 0.70523 0.87439 0.0
H1364 H 0.3753 0.7042 0.98167 0.0
H1365 H 0.29173 0.70901 0.95233 0.0
C1366 C 0.27339 0.70667 0.87896 0.0
C1367 C 0.27057 0.70301 0.84109 0.0
C1368 C 0.32166 0.70857 0.89599 0.0
C1369 C 0.31484 0.70385 0.81887 0.0
C1370 C 0.36263 0.70688 0.83507 0.0
C1371 C 0.4151 0.7068 0.89137 0.0
C1372 C 0.4179 0.70434 0.92994 0.0
C1373 C 0.36684 0.70816 0.87396 0.0
C1374 C 0.37366 0.7061 0.95187 0.0
C1375 C 0.32589 0.70865 0.93502 0.0
H1376 H 0.00327 0.705 0.37758 0.0
H1377 H 0.91776 0.69655 0.47783 0.0
H1378 H 0.83748 0.70341 0.44652 0.0
H1379 H 0.79149 0.70415 0.38696 0.0
H1380 H 0.8771 0.70686 0.28457 0.0
H1381 H 0.95705 0.7105 0.31967 0.0
C1382 C 0.96729 0.70539 0.39294 0.0
C1383 C 0.96595 0.7003 0.42975 0.0
C1384 C 0.92101 0.70805 0.37374 0.0
C1385 C 0.91933 0.7005 0.44946 0.0
C1386 C 0.87346 0.70425 0.43138 0.0
C1387 C 0.82733 0.7063 0.37246 0.0
C1388 C 0.82883 0.70519 0.33342 0.0
C1389 C 0.87352 0.70695 0.39287 0.0
C1390 C 0.87534 0.70772 0.31467 0.0
C1391 C 0.92107 0.70958 0.33479 0.0
H1392 H 0.48158 0.52686 0.391 0.0
H1393 H 0.39332 0.52445 0.2893 0.0
H1394 H 0.31636 0.51785 0.32448 0.0
H1395 H 0.27087 0.52084 0.38342 0.0
H1396 H 0.35694 0.52898 0.48411 0.0
H1397 H 0.43781 0.52468 0.45112 0.0
C1398 C 0.44606 0.52413 0.37657 0.0
C1399 C 0.44264 0.52615 0.33784 0.0
C1400 C 0.40111 0.52169 0.39729 0.0
C1401 C 0.39651 0.5229 0.31917 0.0
C1402 C 0.35243 0.51931 0.33937 0.0
C1403 C 0.30726 0.52091 0.3985 0.0
C1404 C 0.30831 0.52538 0.4359 0.0
C1405 C 0.35349 0.51984 0.37849 0.0
C1406 C 0.35548 0.52561 0.45523 0.0
C1407 C 0.4017 0.52336 0.43619 0.0
H1408 H 0.07923 0.45585 0.19891 0.0
H1409 H 0.97915 0.45727 0.10283 0.0
H1410 H 0.05297 0.46159 0.06238 0.0
H1411 H 0.14622 0.45732 0.05397 0.0
H1412 H 0.24622 0.45671 0.15024 0.0
H1413 H 0.17242 0.46028 0.1911 0.0
C1414 C 0.07346 0.45791 0.1694 0.0
C1415 C 0.02437 0.45593 0.15361 0.0
C1416 C 0.1162 0.46024 0.14628 0.0
C1417 C 0.01683 0.4587 0.11548 0.0
C1418 C 0.05915 0.46097 0.09225 0.0
C1419 C 0.15201 0.45874 0.08372 0.0
C1420 C 0.2011 0.45636 0.09924 0.0
C1421 C 0.10924 0.46064 0.10713 0.0
C1422 C 0.20859 0.4584 0.1377 0.0
C1423 C 0.16626 0.46025 0.16118 0.0
H1424 H 0.67396 0.27641 0.18247 0.0
H1425 H 0.77984 0.27475 0.09025 0.0
H1426 H 0.70877 0.26999 0.04732 0.0
H1427 H 0.6159 0.27384 0.03528 0.0
H1428 H 0.51006 0.27434 0.12757 0.0
H1429 H 0.58151 0.27143 0.17134 0.0
C1430 C 0.68162 0.27425 0.15329 0.0
C1431 C 0.73161 0.27626 0.1393 0.0
C1432 C 0.64045 0.27155 0.1287 0.0
C1433 C 0.74149 0.27332 0.10158 0.0
C1434 C 0.70074 0.27077 0.0769 0.0
C1435 C 0.60836 0.27245 0.0648 0.0
C1436 C 0.5582 0.27464 0.07834 0.0
C1437 C 0.64979 0.27095 0.08987 0.0
C1438 C 0.54852 0.27274 0.11655 0.0
C1439 C 0.58951 0.27132 0.14169 0.0
H1440 H 0.00878 0.2792 0.62554 0.0
H1441 H 0.08208 0.28272 0.51842 0.0
H1442 H 0.16655 0.2788 0.54728 0.0
H1443 H 0.21889 0.28174 0.60384 0.0
H1444 H 0.14468 0.28333 0.71095 0.0
H1445 H 0.06177 0.2775 0.68202 0.0
C1446 C 0.04309 0.27835 0.60842 0.0
C1447 C 0.03958 0.28123 0.57004 0.0
C1448 C 0.09169 0.27737 0.62567 0.0
C1449 C 0.08414 0.28045 0.54803 0.0
C1450 C 0.13244 0.27841 0.56464 0.0
C1451 C 0.18493 0.28009 0.62092 0.0
C1452 C 0.18749 0.28292 0.65933 0.0
C1453 C 0.13685 0.27794 0.60365 0.0
C1454 C 0.14332 0.28111 0.68131 0.0
C1455 C 0.09589 0.27795 0.66468 0.0
H1456 H 0.50245 0.45799 0.61579 0.0
H1457 H 0.58178 0.45473 0.72118 0.0
H1458 H 0.66459 0.45834 0.69012 0.0
H1459 H 0.7136 0.45511 0.63239 0.0
H1460 H 0.63321 0.45303 0.52728 0.0
H1461 H 0.55208 0.45918 0.55803 0.0
C1462 C 0.53772 0.4588 0.63206 0.0
C1463 C 0.53637 0.45609 0.67058 0.0
C1464 C 0.58527 0.45957 0.61359 0.0
C1465 C 0.58217 0.45685 0.69147 0.0
C1466 C 0.6295 0.45872 0.67361 0.0
C1467 C 0.67865 0.45672 0.61613 0.0
C1468 C 0.67895 0.45369 0.57779 0.0
C1469 C 0.63165 0.45902 0.63451 0.0
C1470 C 0.63356 0.45542 0.55685 0.0
C1471 C 0.58717 0.45876 0.57453 0.0
loop_
_geom_bond_atom_site_label_1
_geom_bond_atom_site_label_2
_geom_bond_distance
_geom_bond_site_symmetry_2
_ccdc_geom_bond_type
Mg0 O1 2.028 . S
Mg0 O7 1.986 . S
Mg0 O9 2.114 . S
Mg0 O10 2.251 . S
Mg0 O13 2.010 . S
O1 Mg0 2.028 . S
O1 C4 1.250 . S
O2 Mg3 2.028 . S
O2 C4 1.248 . S
Mg3 O2 2.028 . S
Mg3 O8 2.032 1_455 S
Mg3 O10 2.079 . S
C4 O1 1.250 . S
C4 O2 1.248 . S
C5 O6 1.264 . S
C5 O13 1.249 . S
O6 C5 1.264 . S
O7 Mg0 1.986 . S
O7 C11 1.246 1_455 S
O8 Mg3 2.032 1_655 S
O8 C11 1.259 . S
O9 Mg0 2.114 . S
O9 C12 1.252 . S
O10 Mg0 2.251 . S
O10 Mg3 2.079 . S
O10 C12 1.273 . S
C11 O7 1.246 1_655 S
C11 O8 1.259 . S
C12 O9 1.252 . S
C12 O10 1.273 . S
O13 Mg0 2.010 . S
O13 C5 1.249 . S
Mg14 O15 2.028 . S
Mg14 O21 1.986 . S
Mg14 O23 2.114 . S
Mg14 O24 2.251 . S
Mg14 O27 2.010 . S
O15 Mg14 2.028 . S
O15 C18 1.250 . S
O16 Mg17 2.028 . S
O16 C18 1.248 . S
Mg17 O16 2.028 . S
Mg17 O22 2.032 . S
Mg17 O24 2.079 . S
C18 O15 1.250 . S
C18 O16 1.248 . S
C19 O20 1.264 . S
C19 O27 1.249 . S
O20 C19 1.264 . S
O21 Mg14 1.986 . S
O21 C25 1.246 . S
O22 Mg17 2.032 . S
O22 C25 1.259 . S
O23 Mg14 2.114 . S
O23 C26 1.252 . S
O24 Mg14 2.251 . S
O24 Mg17 2.079 . S
O24 C26 1.273 . S
C25 O21 1.246 . S
C25 O22 1.259 . S
C26 O23 1.252 . S
C26 O24 1.273 . S
O27 Mg14 2.010 . S
O27 C19 1.249 . S
Mg28 O29 2.028 1_556 S
Mg28 O35 1.986 . S
Mg28 O37 2.114 . S
Mg28 O38 2.251 . S
Mg28 O41 2.010 . S
O29 Mg28 2.028 1_554 S
O29 C32 1.250 . S
O30 Mg31 2.028 1_554 S
O30 C32 1.248 . S
Mg31 O30 2.028 1_556 S
Mg31 O36 2.032 1_455 S
Mg31 O38 2.079 . S
C32 O29 1.250 . S
C32 O30 1.248 . S
C33 O34 1.264 . S
C33 O41 1.249 . S
O34 C33 1.264 . S
O35 Mg28 1.986 . S
O35 C39 1.246 1_455 S
O36 Mg31 2.032 1_655 S
O36 C39 1.259 . S
O37 Mg28 2.114 . S
O37 C40 1.252 . S
O38 Mg28 2.251 . S
O38 Mg31 2.079 . S
O38 C40 1.273 . S
C39 O35 1.246 1_655 S
C39 O36 1.259 . S
C40 O37 1.252 . S
C40 O38 1.273 . S
O41 Mg28 2.010 . S
O41 C33 1.249 . S
Mg42 O43 2.028 1_556 S
Mg42 O49 1.986 . S
Mg42 O51 2.114 . S
Mg42 O52 2.251 . S
Mg42 O55 2.010 . S
O43 Mg42 2.028 1_554 S
O43 C46 1.250 . S
O44 Mg45 2.028 1_554 S
O44 C46 1.248 . S
Mg45 O44 2.028 1_556 S
Mg45 O50 2.032 . S
Mg45 O52 2.079 . S
C46 O43 1.250 . S
C46 O44 1.248 . S
C47 O48 1.264 . S
C47 O55 1.249 . S
O48 C47 1.264 . S
O49 Mg42 1.986 . S
O49 C53 1.246 . S
O50 Mg45 2.032 . S
O50 C53 1.259 . S
O51 Mg42 2.114 . S
O51 C54 1.252 . S
O52 Mg42 2.251 . S
O52 Mg45 2.079 . S
O52 C54 1.273 . S
C53 O49 1.246 . S
C53 O50 1.259 . S
C54 O51 1.252 . S
C54 O52 1.273 . S
O55 Mg42 2.010 . S
O55 C47 1.249 . S
Mg56 O57 2.028 . S
Mg56 O63 1.986 . S
Mg56 O65 2.114 . S
Mg56 O66 2.251 . S
Mg56 O69 2.010 . S
O57 Mg56 2.028 . S
O57 C60 1.250 . S
O58 Mg59 2.028 . S
O58 C60 1.248 . S
Mg59 O58 2.028 . S
Mg59 O64 2.032 1_655 S
Mg59 O66 2.079 . S
C60 O57 1.250 . S
C60 O58 1.248 . S
C61 O62 1.264 . S
C61 O69 1.249 . S
O62 C61 1.264 . S
O63 Mg56 1.986 . S
O63 C67 1.246 1_655 S
O64 Mg59 2.032 1_455 S
O64 C67 1.259 . S
O65 Mg56 2.114 . S
O65 C68 1.252 . S
O66 Mg56 2.251 . S
O66 Mg59 2.079 . S
O66 C68 1.273 . S
C67 O63 1.246 1_455 S
C67 O64 1.259 . S
C68 O65 1.252 . S
C68 O66 1.273 . S
O69 Mg56 2.010 . S
O69 C61 1.249 . S
Mg70 O71 2.028 . S
Mg70 O77 1.986 . S
Mg70 O79 2.114 . S
Mg70 O80 2.251 . S
Mg70 O83 2.010 . S
O71 Mg70 2.028 . S
O71 C74 1.250 . S
O72 Mg73 2.028 . S
O72 C74 1.248 . S
Mg73 O72 2.028 . S
Mg73 O78 2.032 . S
Mg73 O80 2.079 . S
C74 O71 1.250 . S
C74 O72 1.248 . S
C75 O76 1.264 . S
C75 O83 1.249 . S
O76 C75 1.264 . S
O77 Mg70 1.986 . S
O77 C81 1.246 . S
O78 Mg73 2.032 . S
O78 C81 1.259 . S
O79 Mg70 2.114 . S
O79 C82 1.252 . S
O80 Mg70 2.251 . S
O80 Mg73 2.079 . S
O80 C82 1.273 . S
C81 O77 1.246 . S
C81 O78 1.259 . S
C82 O79 1.252 . S
C82 O80 1.273 . S
O83 Mg70 2.010 . S
O83 C75 1.249 . S
Mg84 O85 2.028 1_554 S
Mg84 O91 1.986 . S
Mg84 O93 2.114 . S
Mg84 O94 2.251 . S
Mg84 O97 2.010 . S
O85 Mg84 2.028 1_556 S
O85 C88 1.250 . S
O86 Mg87 2.028 1_556 S
O86 C88 1.248 . S
Mg87 O86 2.028 1_554 S
Mg87 O92 2.032 1_655 S
Mg87 O94 2.079 . S
C88 O85 1.250 . S
C88 O86 1.248 . S
C89 O90 1.264 . S
C89 O97 1.249 . S
O90 C89 1.264 . S
O91 Mg84 1.986 . S
O91 C95 1.246 1_655 S
O92 Mg87 2.032 1_455 S
O92 C95 1.259 . S
O93 Mg84 2.114 . S
O93 C96 1.252 . S
O94 Mg84 2.251 . S
O94 Mg87 2.079 . S
O94 C96 1.273 . S
C95 O91 1.246 1_455 S
C95 O92 1.259 . S
C96 O93 1.252 . S
C96 O94 1.273 . S
O97 Mg84 2.010 . S
O97 C89 1.249 . S
Mg98 O99 2.028 1_554 S
Mg98 O105 1.986 . S
Mg98 O107 2.114 . S
Mg98 O108 2.251 . S
Mg98 O111 2.010 . S
O99 Mg98 2.028 1_556 S
O99 C102 1.250 . S
O100 Mg101 2.028 1_556 S
O100 C102 1.248 . S
Mg101 O100 2.028 1_554 S
Mg101 O106 2.032 . S
Mg101 O108 2.079 . S
C102 O99 1.250 . S
C102 O100 1.248 . S
C103 O104 1.264 . S
C103 O111 1.249 . S
O104 C103 1.264 . S
O105 Mg98 1.986 . S
O105 C109 1.246 . S
O106 Mg101 2.032 . S
O106 C109 1.259 . S
O107 Mg98 2.114 . S
O107 C110 1.252 . S
O108 Mg98 2.251 . S
O108 Mg101 2.079 . S
O108 C110 1.273 . S
C109 O105 1.246 . S
C109 O106 1.259 . S
C110 O107 1.252 . S
C110 O108 1.273 . S
O111 Mg98 2.010 . S
O111 C103 1.249 . S
Mg112 O113 2.028 . S
Mg112 O119 1.986 . S
Mg112 O121 2.114 . S
Mg112 O122 2.251 . S
Mg112 O125 2.010 . S
O113 Mg112 2.028 . S
O113 C116 1.250 . S
O114 Mg115 2.028 . S
O114 C116 1.248 . S
Mg115 O114 2.028 . S
Mg115 O120 2.032 1_455 S
Mg115 O122 2.079 . S
C116 O113 1.250 . S
C116 O114 1.248 . S
C117 O118 1.264 . S
C117 O125 1.249 . S
O118 C117 1.264 . S
O119 Mg112 1.986 . S
O119 C123 1.246 1_455 S
O120 Mg115 2.032 1_655 S
O120 C123 1.259 . S
O121 Mg112 2.114 . S
O121 C124 1.252 . S
O122 Mg112 2.251 . S
O122 Mg115 2.079 . S
O122 C124 1.273 . S
C123 O119 1.246 1_655 S
C123 O120 1.259 . S
C124 O121 1.252 . S
C124 O122 1.273 . S
O125 Mg112 2.010 . S
O125 C117 1.249 . S
Mg126 O127 2.028 . S
Mg126 O133 1.986 . S
Mg126 O135 2.114 . S
Mg126 O136 2.251 . S
Mg126 O139 2.010 . S
O127 Mg126 2.028 . S
O127 C130 1.250 . S
O128 Mg129 2.028 . S
O128 C130 1.248 . S
Mg129 O128 2.028 . S
Mg129 O134 2.032 . S
Mg129 O136 2.079 . S
C130 O127 1.250 . S
C130 O128 1.248 . S
C131 O132 1.264 . S
C131 O139 1.249 . S
O132 C131 1.264 . S
O133 Mg126 1.986 . S
O133 C137 1.246 . S
O134 Mg129 2.032 . S
O134 C137 1.259 . S
O135 Mg126 2.114 . S
O135 C138 1.252 . S
O136 Mg126 2.251 . S
O136 Mg129 2.079 . S
O136 C138 1.273 . S
C137 O133 1.246 . S
C137 O134 1.259 . S
C138 O135 1.252 . S
C138 O136 1.273 . S
O139 Mg126 2.010 . S
O139 C131 1.249 . S
Mg140 O141 2.028 . S
Mg140 O147 1.986 . S
Mg140 O149 2.114 . S
Mg140 O150 2.251 . S
Mg140 O153 2.010 . S
O141 Mg140 2.028 . S
O141 C144 1.250 . S
O142 Mg143 2.028 . S
O142 C144 1.248 . S
Mg143 O142 2.028 . S
Mg143 O148 2.032 1_455 S
Mg143 O150 2.079 . S
C144 O141 1.250 . S
C144 O142 1.248 . S
C145 O146 1.264 . S
C145 O153 1.249 . S
O146 C145 1.264 . S
O147 Mg140 1.986 . S
O147 C151 1.246 1_455 S
O148 Mg143 2.032 1_655 S
O148 C151 1.259 . S
O149 Mg140 2.114 . S
O149 C152 1.252 . S
O150 Mg140 2.251 . S
O150 Mg143 2.079 . S
O150 C152 1.273 . S
C151 O147 1.246 1_655 S
C151 O148 1.259 . S
C152 O149 1.252 . S
C152 O150 1.273 . S
O153 Mg140 2.010 . S
O153 C145 1.249 . S
Mg154 O155 2.028 . S
Mg154 O161 1.986 . S
Mg154 O163 2.114 . S
Mg154 O164 2.251 . S
Mg154 O167 2.010 . S
O155 Mg154 2.028 . S
O155 C158 1.250 . S
O156 Mg157 2.028 . S
O156 C158 1.248 . S
Mg157 O156 2.028 . S
Mg157 O162 2.032 . S
Mg157 O164 2.079 . S
C158 O155 1.250 . S
C158 O156 1.248 . S
C159 O160 1.264 . S
C159 O167 1.249 . S
O160 C159 1.264 . S
O161 Mg154 1.986 . S
O161 C165 1.246 . S
O162 Mg157 2.032 . S
O162 C165 1.259 . S
O163 Mg154 2.114 . S
O163 C166 1.252 . S
O164 Mg154 2.251 . S
O164 Mg157 2.079 . S
O164 C166 1.273 . S
C165 O161 1.246 . S
C165 O162 1.259 . S
C166 O163 1.252 . S
C166 O164 1.273 . S
O167 Mg154 2.010 . S
O167 C159 1.249 . S
Mg168 O169 2.028 . S
Mg168 O175 1.986 . S
Mg168 O177 2.114 . S
Mg168 O178 2.251 . S
Mg168 O181 2.010 . S
O169 Mg168 2.028 . S
O169 C172 1.250 . S
O170 Mg171 2.028 . S
O170 C172 1.248 . S
Mg171 O170 2.028 . S
Mg171 O176 2.032 1_655 S
Mg171 O178 2.079 . S
C172 O169 1.250 . S
C172 O170 1.248 . S
C173 O174 1.264 . S
C173 O181 1.249 . S
O174 C173 1.264 . S
O175 Mg168 1.986 . S
O175 C179 1.246 1_655 S
O176 Mg171 2.032 1_455 S
O176 C179 1.259 . S
O177 Mg168 2.114 . S
O177 C180 1.252 . S
O178 Mg168 2.251 . S
O178 Mg171 2.079 . S
O178 C180 1.273 . S
C179 O175 1.246 1_455 S
C179 O176 1.259 . S
C180 O177 1.252 . S
C180 O178 1.273 . S
O181 Mg168 2.010 . S
O181 C173 1.249 . S
Mg182 O183 2.028 . S
Mg182 O189 1.986 . S
Mg182 O191 2.114 . S
Mg182 O192 2.251 . S
Mg182 O195 2.010 . S
O183 Mg182 2.028 . S
O183 C186 1.250 . S
O184 Mg185 2.028 . S
O184 C186 1.248 . S
Mg185 O184 2.028 . S
Mg185 O190 2.032 . S
Mg185 O192 2.079 . S
C186 O183 1.250 . S
C186 O184 1.248 . S
C187 O188 1.264 . S
C187 O195 1.249 . S
O188 C187 1.264 . S
O189 Mg182 1.986 . S
O189 C193 1.246 . S
O190 Mg185 2.032 . S
O190 C193 1.259 . S
O191 Mg182 2.114 . S
O191 C194 1.252 . S
O192 Mg182 2.251 . S
O192 Mg185 2.079 . S
O192 C194 1.273 . S
C193 O189 1.246 . S
C193 O190 1.259 . S
C194 O191 1.252 . S
C194 O192 1.273 . S
O195 Mg182 2.010 . S
O195 C187 1.249 . S
Mg196 O197 2.028 . S
Mg196 O203 1.986 . S
Mg196 O205 2.114 . S
Mg196 O206 2.251 . S
Mg196 O209 2.010 . S
O197 Mg196 2.028 . S
O197 C200 1.250 . S
O198 Mg199 2.028 . S
O198 C200 1.248 . S
Mg199 O198 2.028 . S
Mg199 O204 2.032 1_655 S
Mg199 O206 2.079 . S
C200 O197 1.250 . S
C200 O198 1.248 . S
C201 O202 1.264 . S
C201 O209 1.249 . S
O202 C201 1.264 . S
O203 Mg196 1.986 . S
O203 C207 1.246 1_655 S
O204 Mg199 2.032 1_455 S
O204 C207 1.259 . S
O205 Mg196 2.114 . S
O205 C208 1.252 . S
O206 Mg196 2.251 . S
O206 Mg199 2.079 . S
O206 C208 1.273 . S
C207 O203 1.246 1_455 S
C207 O204 1.259 . S
C208 O205 1.252 . S
C208 O206 1.273 . S
O209 Mg196 2.010 . S
O209 C201 1.249 . S
Mg210 O211 2.028 . S
Mg210 O217 1.986 . S
Mg210 O219 2.114 . S
Mg210 O220 2.251 . S
Mg210 O223 2.010 . S
O211 Mg210 2.028 . S
O211 C214 1.250 . S
O212 Mg213 2.028 . S
O212 C214 1.248 . S
Mg213 O212 2.028 . S
Mg213 O218 2.032 . S
Mg213 O220 2.079 . S
C214 O211 1.250 . S
C214 O212 1.248 . S
C215 O216 1.264 . S
C215 O223 1.249 . S
O216 C215 1.264 . S
O217 Mg210 1.986 . S
O217 C221 1.246 . S
O218 Mg213 2.032 . S
O218 C221 1.259 . S
O219 Mg210 2.114 . S
O219 C222 1.252 . S
O220 Mg210 2.251 . S
O220 Mg213 2.079 . S
O220 C222 1.273 . S
C221 O217 1.246 . S
C221 O218 1.259 . S
C222 O219 1.252 . S
C222 O220 1.273 . S
O223 Mg210 2.010 . S
O223 C215 1.249 . S
Mg224 O225 2.028 . S
Mg224 O231 1.986 . S
Mg224 O233 2.114 . S
Mg224 O234 2.251 . S
Mg224 O237 2.010 . S
O225 Mg224 2.028 . S
O225 C228 1.250 . S
O226 Mg227 2.028 . S
O226 C228 1.248 . S
Mg227 O226 2.028 . S
Mg227 O232 2.032 . S
Mg227 O234 2.079 . S
C228 O225 1.250 . S
C228 O226 1.248 . S
C229 O230 1.264 . S
C229 O237 1.249 . S
O230 C229 1.264 . S
O231 Mg224 1.986 . S
O231 C235 1.246 . S
O232 Mg227 2.032 . S
O232 C235 1.259 . S
O233 Mg224 2.114 . S
O233 C236 1.252 . S
O234 Mg224 2.251 . S
O234 Mg227 2.079 . S
O234 C236 1.273 . S
C235 O231 1.246 . S
C235 O232 1.259 . S
C236 O233 1.252 . S
C236 O234 1.273 . S
O237 Mg224 2.010 . S
O237 C229 1.249 . S
Mg238 O239 2.028 . S
Mg238 O245 1.986 . S
Mg238 O247 2.114 . S
Mg238 O248 2.251 . S
Mg238 O251 2.010 . S
O239 Mg238 2.028 . S
O239 C242 1.250 . S
O240 Mg241 2.028 . S
O240 C242 1.248 . S
Mg241 O240 2.028 . S
Mg241 O246 2.032 . S
Mg241 O248 2.079 . S
C242 O239 1.250 . S
C242 O240 1.248 . S
C243 O244 1.264 . S
C243 O251 1.249 . S
O244 C243 1.264 . S
O245 Mg238 1.986 . S
O245 C249 1.246 . S
O246 Mg241 2.032 . S
O246 C249 1.259 . S
O247 Mg238 2.114 . S
O247 C250 1.252 . S
O248 Mg238 2.251 . S
O248 Mg241 2.079 . S
O248 C250 1.273 . S
C249 O245 1.246 . S
C249 O246 1.259 . S
C250 O247 1.252 . S
C250 O248 1.273 . S
O251 Mg238 2.010 . S
O251 C243 1.249 . S
Mg252 O253 2.028 . S
Mg252 O259 1.986 . S
Mg252 O261 2.114 . S
Mg252 O262 2.251 . S
Mg252 O265 2.010 . S
O253 Mg252 2.028 . S
O253 C256 1.250 . S
O254 Mg255 2.028 . S
O254 C256 1.248 . S
Mg255 O254 2.028 . S
Mg255 O260 2.032 . S
Mg255 O262 2.079 . S
C256 O253 1.250 . S
C256 O254 1.248 . S
C257 O258 1.264 . S
C257 O265 1.249 . S
O258 C257 1.264 . S
O259 Mg252 1.986 . S
O259 C263 1.246 . S
O260 Mg255 2.032 . S
O260 C263 1.259 . S
O261 Mg252 2.114 . S
O261 C264 1.252 . S
O262 Mg252 2.251 . S
O262 Mg255 2.079 . S
O262 C264 1.273 . S
C263 O259 1.246 . S
C263 O260 1.259 . S
C264 O261 1.252 . S
C264 O262 1.273 . S
O265 Mg252 2.010 . S
O265 C257 1.249 . S
Mg266 O267 2.028 . S
Mg266 O273 1.986 . S
Mg266 O275 2.114 . S
Mg266 O276 2.251 . S
Mg266 O279 2.010 . S
O267 Mg266 2.028 . S
O267 C270 1.250 . S
O268 Mg269 2.028 . S
O268 C270 1.248 . S
Mg269 O268 2.028 . S
Mg269 O274 2.032 . S
Mg269 O276 2.079 . S
C270 O267 1.250 . S
C270 O268 1.248 . S
C271 O272 1.264 . S
C271 O279 1.249 . S
O272 C271 1.264 . S
O273 Mg266 1.986 . S
O273 C277 1.246 . S
O274 Mg269 2.032 . S
O274 C277 1.259 . S
O275 Mg266 2.114 . S
O275 C278 1.252 . S
O276 Mg266 2.251 . S
O276 Mg269 2.079 . S
O276 C278 1.273 . S
C277 O273 1.246 . S
C277 O274 1.259 . S
C278 O275 1.252 . S
C278 O276 1.273 . S
O279 Mg266 2.010 . S
O279 C271 1.249 . S
Mg280 O281 2.028 . S
Mg280 O287 1.986 . S
Mg280 O289 2.114 . S
Mg280 O290 2.251 . S
Mg280 O293 2.010 . S
O281 Mg280 2.028 . S
O281 C284 1.250 . S
O282 Mg283 2.028 . S
O282 C284 1.248 . S
Mg283 O282 2.028 . S
Mg283 O288 2.032 . S
Mg283 O290 2.079 . S
C284 O281 1.250 . S
C284 O282 1.248 . S
C285 O286 1.264 . S
C285 O293 1.249 . S
O286 C285 1.264 . S
O287 Mg280 1.986 . S
O287 C291 1.246 . S
O288 Mg283 2.032 . S
O288 C291 1.259 . S
O289 Mg280 2.114 . S
O289 C292 1.252 . S
O290 Mg280 2.251 . S
O290 Mg283 2.079 . S
O290 C292 1.273 . S
C291 O287 1.246 . S
C291 O288 1.259 . S
C292 O289 1.252 . S
C292 O290 1.273 . S
O293 Mg280 2.010 . S
O293 C285 1.249 . S
Mg294 O295 2.028 . S
Mg294 O301 1.986 . S
Mg294 O303 2.114 . S
Mg294 O304 2.251 . S
Mg294 O307 2.010 . S
O295 Mg294 2.028 . S
O295 C298 1.250 . S
O296 Mg297 2.028 . S
O296 C298 1.248 . S
Mg297 O296 2.028 . S
Mg297 O302 2.032 . S
Mg297 O304 2.079 . S
C298 O295 1.250 . S
C298 O296 1.248 . S
C299 O300 1.264 . S
C299 O307 1.249 . S
O300 C299 1.264 . S
O301 Mg294 1.986 . S
O301 C305 1.246 . S
O302 Mg297 2.032 . S
O302 C305 1.259 . S
O303 Mg294 2.114 . S
O303 C306 1.252 . S
O304 Mg294 2.251 . S
O304 Mg297 2.079 . S
O304 C306 1.273 . S
C305 O301 1.246 . S
C305 O302 1.259 . S
C306 O303 1.252 . S
C306 O304 1.273 . S
O307 Mg294 2.010 . S
O307 C299 1.249 . S
Mg308 O309 2.028 . S
Mg308 O315 1.986 . S
Mg308 O317 2.114 . S
Mg308 O318 2.251 . S
Mg308 O321 2.010 . S
O309 Mg308 2.028 . S
O309 C312 1.250 . S
O310 Mg311 2.028 . S
O310 C312 1.248 . S
Mg311 O310 2.028 . S
Mg311 O316 2.032 . S
Mg311 O318 2.079 . S
C312 O309 1.250 . S
C312 O310 1.248 . S
C313 O314 1.264 . S
C313 O321 1.249 . S
O314 C313 1.264 . S
O315 Mg308 1.986 . S
O315 C319 1.246 . S
O316 Mg311 2.032 . S
O316 C319 1.259 . S
O317 Mg308 2.114 . S
O317 C320 1.252 . S
O318 Mg308 2.251 . S
O318 Mg311 2.079 . S
O318 C320 1.273 . S
C319 O315 1.246 . S
C319 O316 1.259 . S
C320 O317 1.252 . S
C320 O318 1.273 . S
O321 Mg308 2.010 . S
O321 C313 1.249 . S
Mg322 O323 2.028 . S
Mg322 O329 1.986 . S
Mg322 O331 2.114 . S
Mg322 O332 2.251 . S
Mg322 O335 2.010 . S
O323 Mg322 2.028 . S
O323 C326 1.250 . S
O324 Mg325 2.028 . S
O324 C326 1.248 . S
Mg325 O324 2.028 . S
Mg325 O330 2.032 . S
Mg325 O332 2.079 . S
C326 O323 1.250 . S
C326 O324 1.248 . S
C327 O328 1.264 . S
C327 O335 1.249 . S
O328 C327 1.264 . S
O329 Mg322 1.986 . S
O329 C333 1.246 . S
O330 Mg325 2.032 . S
O330 C333 1.259 . S
O331 Mg322 2.114 . S
O331 C334 1.252 . S
O332 Mg322 2.251 . S
O332 Mg325 2.079 . S
O332 C334 1.273 . S
C333 O329 1.246 . S
C333 O330 1.259 . S
C334 O331 1.252 . S
C334 O332 1.273 . S
O335 Mg322 2.010 . S
O335 C327 1.249 . S
Mg336 O337 2.028 . S
Mg336 O343 1.986 . S
Mg336 O345 2.114 . S
Mg336 O346 2.251 . S
Mg336 O349 2.010 . S
O337 Mg336 2.028 . S
O337 C340 1.250 . S
O338 Mg339 2.028 . S
O338 C340 1.248 . S
Mg339 O338 2.028 . S
Mg339 O344 2.032 . S
Mg339 O346 2.079 . S
C340 O337 1.250 . S
C340 O338 1.248 . S
C341 O342 1.264 . S
C341 O349 1.249 . S
O342 C341 1.264 . S
O343 Mg336 1.986 . S
O343 C347 1.246 . S
O344 Mg339 2.032 . S
O344 C347 1.259 . S
O345 Mg336 2.114 . S
O345 C348 1.252 . S
O346 Mg336 2.251 . S
O346 Mg339 2.079 . S
O346 C348 1.273 . S
C347 O343 1.246 . S
C347 O344 1.259 . S
C348 O345 1.252 . S
C348 O346 1.273 . S
O349 Mg336 2.010 . S
O349 C341 1.249 . S
Mg350 O351 2.028 . S
Mg350 O357 1.986 . S
Mg350 O359 2.114 . S
Mg350 O360 2.251 . S
Mg350 O363 2.010 . S
O351 Mg350 2.028 . S
O351 C354 1.250 . S
O352 Mg353 2.028 . S
O352 C354 1.248 . S
Mg353 O352 2.028 . S
Mg353 O358 2.032 . S
Mg353 O360 2.079 . S
C354 O351 1.250 . S
C354 O352 1.248 . S
C355 O356 1.264 . S
C355 O363 1.249 . S
O356 C355 1.264 . S
O357 Mg350 1.986 . S
O357 C361 1.246 . S
O358 Mg353 2.032 . S
O358 C361 1.259 . S
O359 Mg350 2.114 . S
O359 C362 1.252 . S
O360 Mg350 2.251 . S
O360 Mg353 2.079 . S
O360 C362 1.273 . S
C361 O357 1.246 . S
C361 O358 1.259 . S
C362 O359 1.252 . S
C362 O360 1.273 . S
O363 Mg350 2.010 . S
O363 C355 1.249 . S
Mg364 O365 2.028 1_556 S
Mg364 O371 1.986 . S
Mg364 O373 2.114 . S
Mg364 O374 2.251 . S
Mg364 O377 2.010 . S
O365 Mg364 2.028 1_554 S
O365 C368 1.250 . S
O366 Mg367 2.028 1_554 S
O366 C368 1.248 . S
Mg367 O366 2.028 1_556 S
Mg367 O372 2.032 . S
Mg367 O374 2.079 . S
C368 O365 1.250 . S
C368 O366 1.248 . S
C369 O370 1.264 . S
C369 O377 1.249 . S
O370 C369 1.264 . S
O371 Mg364 1.986 . S
O371 C375 1.246 . S
O372 Mg367 2.032 . S
O372 C375 1.259 . S
O373 Mg364 2.114 . S
O373 C376 1.252 . S
O374 Mg364 2.251 . S
O374 Mg367 2.079 . S
O374 C376 1.273 . S
C375 O371 1.246 . S
C375 O372 1.259 . S
C376 O373 1.252 . S
C376 O374 1.273 . S
O377 Mg364 2.010 . S
O377 C369 1.249 . S
Mg378 O379 2.028 1_556 S
Mg378 O385 1.986 . S
Mg378 O387 2.114 . S
Mg378 O388 2.251 . S
Mg378 O391 2.010 . S
O379 Mg378 2.028 1_554 S
O379 C382 1.250 . S
O380 Mg381 2.028 1_554 S
O380 C382 1.248 . S
Mg381 O380 2.028 1_556 S
Mg381 O386 2.032 . S
Mg381 O388 2.079 . S
C382 O379 1.250 . S
C382 O380 1.248 . S
C383 O384 1.264 . S
C383 O391 1.249 . S
O384 C383 1.264 . S
O385 Mg378 1.986 . S
O385 C389 1.246 . S
O386 Mg381 2.032 . S
O386 C389 1.259 . S
O387 Mg378 2.114 . S
O387 C390 1.252 . S
O388 Mg378 2.251 . S
O388 Mg381 2.079 . S
O388 C390 1.273 . S
C389 O385 1.246 . S
C389 O386 1.259 . S
C390 O387 1.252 . S
C390 O388 1.273 . S
O391 Mg378 2.010 . S
O391 C383 1.249 . S
Mg392 O393 2.028 . S
Mg392 O399 1.986 . S
Mg392 O401 2.114 . S
Mg392 O402 2.251 . S
Mg392 O405 2.010 . S
O393 Mg392 2.028 . S
O393 C396 1.250 . S
O394 Mg395 2.028 . S
O394 C396 1.248 . S
Mg395 O394 2.028 . S
Mg395 O400 2.032 . S
Mg395 O402 2.079 . S
C396 O393 1.250 . S
C396 O394 1.248 . S
C397 O398 1.264 . S
C397 O405 1.249 . S
O398 C397 1.264 . S
O399 Mg392 1.986 . S
O399 C403 1.246 . S
O400 Mg395 2.032 . S
O400 C403 1.259 . S
O401 Mg392 2.114 . S
O401 C404 1.252 . S
O402 Mg392 2.251 . S
O402 Mg395 2.079 . S
O402 C404 1.273 . S
C403 O399 1.246 . S
C403 O400 1.259 . S
C404 O401 1.252 . S
C404 O402 1.273 . S
O405 Mg392 2.010 . S
O405 C397 1.249 . S
Mg406 O407 2.028 . S
Mg406 O413 1.986 . S
Mg406 O415 2.114 . S
Mg406 O416 2.251 . S
Mg406 O419 2.010 . S
O407 Mg406 2.028 . S
O407 C410 1.250 . S
O408 Mg409 2.028 . S
O408 C410 1.248 . S
Mg409 O408 2.028 . S
Mg409 O414 2.032 . S
Mg409 O416 2.079 . S
C410 O407 1.250 . S
C410 O408 1.248 . S
C411 O412 1.264 . S
C411 O419 1.249 . S
O412 C411 1.264 . S
O413 Mg406 1.986 . S
O413 C417 1.246 . S
O414 Mg409 2.032 . S
O414 C417 1.259 . S
O415 Mg406 2.114 . S
O415 C418 1.252 . S
O416 Mg406 2.251 . S
O416 Mg409 2.079 . S
O416 C418 1.273 . S
C417 O413 1.246 . S
C417 O414 1.259 . S
C418 O415 1.252 . S
C418 O416 1.273 . S
O419 Mg406 2.010 . S
O419 C411 1.249 . S
Mg420 O421 2.028 1_554 S
Mg420 O427 1.986 . S
Mg420 O429 2.114 . S
Mg420 O430 2.251 . S
Mg420 O433 2.010 . S
O421 Mg420 2.028 1_556 S
O421 C424 1.250 . S
O422 Mg423 2.028 1_556 S
O422 C424 1.248 . S
Mg423 O422 2.028 1_554 S
Mg423 O428 2.032 . S
Mg423 O430 2.079 . S
C424 O421 1.250 . S
C424 O422 1.248 . S
C425 O426 1.264 . S
C425 O433 1.249 . S
O426 C425 1.264 . S
O427 Mg420 1.986 . S
O427 C431 1.246 . S
O428 Mg423 2.032 . S
O428 C431 1.259 . S
O429 Mg420 2.114 . S
O429 C432 1.252 . S
O430 Mg420 2.251 . S
O430 Mg423 2.079 . S
O430 C432 1.273 . S
C431 O427 1.246 . S
C431 O428 1.259 . S
C432 O429 1.252 . S
C432 O430 1.273 . S
O433 Mg420 2.010 . S
O433 C425 1.249 . S
Mg434 O435 2.028 1_554 S
Mg434 O441 1.986 . S
Mg434 O443 2.114 . S
Mg434 O444 2.251 . S
Mg434 O447 2.010 . S
O435 Mg434 2.028 1_556 S
O435 C438 1.250 . S
O436 Mg437 2.028 1_556 S
O436 C438 1.248 . S
Mg437 O436 2.028 1_554 S
Mg437 O442 2.032 . S
Mg437 O444 2.079 . S
C438 O435 1.250 . S
C438 O436 1.248 . S
C439 O440 1.264 . S
C439 O447 1.249 . S
O440 C439 1.264 . S
O441 Mg434 1.986 . S
O441 C445 1.246 . S
O442 Mg437 2.032 . S
O442 C445 1.259 . S
O443 Mg434 2.114 . S
O443 C446 1.252 . S
O444 Mg434 2.251 . S
O444 Mg437 2.079 . S
O444 C446 1.273 . S
C445 O441 1.246 . S
C445 O442 1.259 . S
C446 O443 1.252 . S
C446 O444 1.273 . S
O447 Mg434 2.010 . S
O447 C439 1.249 . S
H448 C454 0.930 . S
H449 C457 0.930 . S
H450 C458 0.930 . S
H451 C459 0.930 . S
H452 C462 0.930 . S
H453 C463 0.930 . S
C454 H448 0.930 . S
C454 C455 1.355 . S
C454 C456 1.415 . S
C455 C454 1.355 . S
C455 C457 1.419 . S
C456 C454 1.415 . S
C456 C461 1.425 . S
C456 C463 1.409 . S
C457 H449 0.930 . S
C457 C455 1.419 . S
C457 C458 1.362 . S
C458 H450 0.930 . S
C458 C457 1.362 . S
C458 C461 1.409 . S
C459 H451 0.930 . S
C459 C460 1.355 . S
C459 C461 1.415 . S
C460 C459 1.355 . S
C460 C462 1.419 . S
C461 C456 1.425 . S
C461 C458 1.409 . S
C461 C459 1.415 . S
C462 H452 0.930 . S
C462 C460 1.419 . S
C462 C463 1.362 . S
C463 H453 0.930 . S
C463 C456 1.409 . S
C463 C462 1.362 . S
H464 C470 0.930 . S
H465 C473 0.930 . S
H466 C474 0.930 . S
H467 C475 0.930 . S
H468 C478 0.930 . S
H469 C479 0.930 . S
C470 H464 0.930 . S
C470 C471 1.355 . S
C470 C472 1.415 . S
C471 C470 1.355 . S
C471 C473 1.419 . S
C472 C470 1.415 . S
C472 C477 1.425 . S
C472 C479 1.409 . S
C473 H465 0.930 . S
C473 C471 1.419 . S
C473 C474 1.362 . S
C474 H466 0.930 . S
C474 C473 1.362 . S
C474 C477 1.409 . S
C475 H467 0.930 . S
C475 C476 1.355 . S
C475 C477 1.415 . S
C476 C475 1.355 . S
C476 C478 1.419 . S
C477 C472 1.425 . S
C477 C474 1.409 . S
C477 C475 1.415 . S
C478 H468 0.930 . S
C478 C476 1.419 . S
C478 C479 1.362 . S
C479 H469 0.930 . S
C479 C472 1.409 . S
C479 C478 1.362 . S
H480 C486 0.930 . S
H481 C489 0.930 . S
H482 C490 0.930 . S
H483 C491 0.930 . S
H484 C494 0.930 . S
H485 C495 0.930 . S
C486 H480 0.930 . S
C486 C487 1.355 . S
C486 C488 1.415 . S
C487 C486 1.355 . S
C487 C489 1.419 . S
C488 C486 1.415 . S
C488 C493 1.425 . S
C488 C495 1.409 . S
C489 H481 0.930 . S
C489 C487 1.419 . S
C489 C490 1.362 . S
C490 H482 0.930 . S
C490 C489 1.362 . S
C490 C493 1.409 . S
C491 H483 0.930 . S
C491 C492 1.355 . S
C491 C493 1.415 . S
C492 C491 1.355 . S
C492 C494 1.419 . S
C493 C488 1.425 . S
C493 C490 1.409 . S
C493 C491 1.415 . S
C494 H484 0.930 . S
C494 C492 1.419 . S
C494 C495 1.362 . S
C495 H485 0.930 . S
C495 C488 1.409 . S
C495 C494 1.362 . S
H496 C502 0.930 . S
H497 C505 0.930 . S
H498 C506 0.930 . S
H499 C507 0.930 . S
H500 C510 0.930 . S
H501 C511 0.930 . S
C502 H496 0.930 . S
C502 C503 1.355 . S
C502 C504 1.415 . S
C503 C502 1.355 . S
C503 C505 1.419 . S
C504 C502 1.415 . S
C504 C509 1.425 . S
C504 C511 1.409 . S
C505 H497 0.930 . S
C505 C503 1.419 . S
C505 C506 1.362 . S
C506 H498 0.930 . S
C506 C505 1.362 . S
C506 C509 1.409 . S
C507 H499 0.930 . S
C507 C508 1.355 . S
C507 C509 1.415 . S
C508 C507 1.355 . S
C508 C510 1.419 . S
C509 C504 1.425 . S
C509 C506 1.409 . S
C509 C507 1.415 . S
C510 H500 0.930 . S
C510 C508 1.419 . S
C510 C511 1.362 . S
C511 H501 0.930 . S
C511 C504 1.409 . S
C511 C510 1.362 . S
H512 C518 0.930 . S
H513 C521 0.930 . S
H514 C522 0.930 . S
H515 C523 0.930 . S
H516 C526 0.930 . S
H517 C527 0.930 . S
C518 H512 0.930 . S
C518 C519 1.355 . S
C518 C520 1.415 . S
C519 C518 1.355 . S
C519 C521 1.419 . S
C520 C518 1.415 . S
C520 C525 1.425 . S
C520 C527 1.409 . S
C521 H513 0.930 . S
C521 C519 1.419 . S
C521 C522 1.362 . S
C522 H514 0.930 . S
C522 C521 1.362 . S
C522 C525 1.409 . S
C523 H515 0.930 . S
C523 C524 1.355 . S
C523 C525 1.415 . S
C524 C523 1.355 . S
C524 C526 1.419 . S
C525 C520 1.425 . S
C525 C522 1.409 . S
C525 C523 1.415 . S
C526 H516 0.930 . S
C526 C524 1.419 . S
C526 C527 1.362 . S
C527 H517 0.930 . S
C527 C520 1.409 . S
C527 C526 1.362 . S
H528 C534 0.930 . S
H529 C537 0.930 . S
H530 C538 0.930 . S
H531 C539 0.930 . S
H532 C542 0.930 . S
H533 C543 0.930 . S
C534 H528 0.930 . S
C534 C535 1.355 . S
C534 C536 1.415 . S
C535 C534 1.355 . S
C535 C537 1.419 . S
C536 C534 1.415 . S
C536 C541 1.425 . S
C536 C543 1.409 . S
C537 H529 0.930 . S
C537 C535 1.419 . S
C537 C538 1.362 . S
C538 H530 0.930 . S
C538 C537 1.362 . S
C538 C541 1.409 . S
C539 H531 0.930 . S
C539 C540 1.355 . S
C539 C541 1.415 . S
C540 C539 1.355 . S
C540 C542 1.419 . S
C541 C536 1.425 . S
C541 C538 1.409 . S
C541 C539 1.415 . S
C542 H532 0.930 . S
C542 C540 1.419 . S
C542 C543 1.362 . S
C543 H533 0.930 . S
C543 C536 1.409 . S
C543 C542 1.362 . S
H544 C550 0.930 . S
H545 C553 0.930 . S
H546 C554 0.930 . S
H547 C555 0.930 . S
H548 C558 0.930 . S
H549 C559 0.930 . S
C550 H544 0.930 . S
C550 C551 1.355 . S
C550 C552 1.415 . S
C551 C550 1.355 . S
C551 C553 1.419 . S
C552 C550 1.415 . S
C552 C557 1.425 . S
C552 C559 1.409 . S
C553 H545 0.930 . S
C553 C551 1.419 . S
C553 C554 1.362 . S
C554 H546 0.930 . S
C554 C553 1.362 . S
C554 C557 1.409 . S
C555 H547 0.930 . S
C555 C556 1.355 . S
C555 C557 1.415 . S
C556 C555 1.355 . S
C556 C558 1.419 . S
C557 C552 1.425 . S
C557 C554 1.409 . S
C557 C555 1.415 . S
C558 H548 0.930 . S
C558 C556 1.419 . S
C558 C559 1.362 . S
C559 H549 0.930 . S
C559 C552 1.409 . S
C559 C558 1.362 . S
H560 C566 0.930 . S
H561 C569 0.930 . S
H562 C570 0.930 . S
H563 C571 0.930 . S
H564 C574 0.930 . S
H565 C575 0.930 . S
C566 H560 0.930 . S
C566 C567 1.355 . S
C566 C568 1.415 . S
C567 C566 1.355 . S
C567 C569 1.419 . S
C568 C566 1.415 . S
C568 C573 1.425 . S
C568 C575 1.409 . S
C569 H561 0.930 . S
C569 C567 1.419 . S
C569 C570 1.362 . S
C570 H562 0.930 . S
C570 C569 1.362 . S
C570 C573 1.409 . S
C571 H563 0.930 . S
C571 C572 1.355 . S
C571 C573 1.415 . S
C572 C571 1.355 . S
C572 C574 1.419 . S
C573 C568 1.425 . S
C573 C570 1.409 . S
C573 C571 1.415 . S
C574 H564 0.930 . S
C574 C572 1.419 . S
C574 C575 1.362 . S
C575 H565 0.930 . S
C575 C568 1.409 . S
C575 C574 1.362 . S
H576 C582 0.930 . S
H577 C585 0.930 . S
H578 C586 0.930 . S
H579 C587 0.930 . S
H580 C590 0.930 . S
H581 C591 0.930 . S
C582 H576 0.930 . S
C582 C583 1.355 . S
C582 C584 1.415 . S
C583 C582 1.355 . S
C583 C585 1.419 . S
C584 C582 1.415 . S
C584 C589 1.425 . S
C584 C591 1.409 . S
C585 H577 0.930 . S
C585 C583 1.419 . S
C585 C586 1.362 . S
C586 H578 0.930 . S
C586 C585 1.362 . S
C586 C589 1.409 . S
C587 H579 0.930 . S
C587 C588 1.355 . S
C587 C589 1.415 . S
C588 C587 1.355 . S
C588 C590 1.419 . S
C589 C584 1.425 . S
C589 C586 1.409 . S
C589 C587 1.415 . S
C590 H580 0.930 . S
C590 C588 1.419 . S
C590 C591 1.362 . S
C591 H581 0.930 . S
C591 C584 1.409 . S
C591 C590 1.362 . S
H592 C598 0.930 . S
H593 C601 0.930 . S
H594 C602 0.930 . S
H595 C603 0.930 . S
H596 C606 0.930 . S
H597 C607 0.930 . S
C598 H592 0.930 . S
C598 C599 1.355 . S
C598 C600 1.415 . S
C599 C598 1.355 . S
C599 C601 1.419 . S
C600 C598 1.415 . S
C600 C605 1.425 . S
C600 C607 1.409 . S
C601 H593 0.930 . S
C601 C599 1.419 . S
C601 C602 1.362 . S
C602 H594 0.930 . S
C602 C601 1.362 . S
C602 C605 1.409 . S
C603 H595 0.930 . S
C603 C604 1.355 . S
C603 C605 1.415 . S
C604 C603 1.355 . S
C604 C606 1.419 . S
C605 C600 1.425 . S
C605 C602 1.409 . S
C605 C603 1.415 . S
C606 H596 0.930 . S
C606 C604 1.419 . S
C606 C607 1.362 . S
C607 H597 0.930 . S
C607 C600 1.409 . S
C607 C606 1.362 . S
H608 C614 0.930 . S
H609 C617 0.930 . S
H610 C618 0.930 . S
H611 C619 0.930 . S
H612 C622 0.930 . S
H613 C623 0.930 . S
C614 H608 0.930 . S
C614 C615 1.355 . S
C614 C616 1.415 . S
C615 C614 1.355 . S
C615 C617 1.419 . S
C616 C614 1.415 . S
C616 C621 1.425 . S
C616 C623 1.409 . S
C617 H609 0.930 . S
C617 C615 1.419 . S
C617 C618 1.362 . S
C618 H610 0.930 . S
C618 C617 1.362 . S
C618 C621 1.409 . S
C619 H611 0.930 . S
C619 C620 1.355 . S
C619 C621 1.415 . S
C620 C619 1.355 . S
C620 C622 1.419 . S
C621 C616 1.425 . S
C621 C618 1.409 . S
C621 C619 1.415 . S
C622 H612 0.930 . S
C622 C620 1.419 . S
C622 C623 1.362 . S
C623 H613 0.930 . S
C623 C616 1.409 . S
C623 C622 1.362 . S
H624 C630 0.930 . S
H625 C633 0.930 . S
H626 C634 0.930 . S
H627 C635 0.930 . S
H628 C638 0.930 . S
H629 C639 0.930 . S
C630 H624 0.930 . S
C630 C631 1.355 . S
C630 C632 1.415 . S
C631 C630 1.355 . S
C631 C633 1.419 . S
C632 C630 1.415 . S
C632 C637 1.425 . S
C632 C639 1.409 . S
C633 H625 0.930 . S
C633 C631 1.419 . S
C633 C634 1.362 . S
C634 H626 0.930 . S
C634 C633 1.362 . S
C634 C637 1.409 . S
C635 H627 0.930 . S
C635 C636 1.355 . S
C635 C637 1.415 . S
C636 C635 1.355 . S
C636 C638 1.419 . S
C637 C632 1.425 . S
C637 C634 1.409 . S
C637 C635 1.415 . S
C638 H628 0.930 . S
C638 C636 1.419 . S
C638 C639 1.362 . S
C639 H629 0.930 . S
C639 C632 1.409 . S
C639 C638 1.362 . S
H640 C646 0.930 . S
H641 C649 0.930 . S
H642 C650 0.930 . S
H643 C651 0.930 . S
H644 C654 0.930 . S
H645 C655 0.930 . S
C646 H640 0.930 . S
C646 C647 1.355 . S
C646 C648 1.415 . S
C647 C646 1.355 . S
C647 C649 1.419 . S
C648 C646 1.415 . S
C648 C653 1.425 . S
C648 C655 1.409 . S
C649 H641 0.930 . S
C649 C647 1.419 . S
C649 C650 1.362 . S
C650 H642 0.930 . S
C650 C649 1.362 . S
C650 C653 1.409 . S
C651 H643 0.930 . S
C651 C652 1.355 . S
C651 C653 1.415 . S
C652 C651 1.355 . S
C652 C654 1.419 . S
C653 C648 1.425 . S
C653 C650 1.409 . S
C653 C651 1.415 . S
C654 H644 0.930 . S
C654 C652 1.419 . S
C654 C655 1.362 . S
C655 H645 0.930 . S
C655 C648 1.409 . S
C655 C654 1.362 . S
H656 C662 0.930 . S
H657 C665 0.930 . S
H658 C666 0.930 . S
H659 C667 0.930 . S
H660 C670 0.930 . S
H661 C671 0.930 . S
C662 H656 0.930 . S
C662 C663 1.355 . S
C662 C664 1.415 . S
C663 C662 1.355 . S
C663 C665 1.419 . S
C664 C662 1.415 . S
C664 C669 1.425 . S
C664 C671 1.409 . S
C665 H657 0.930 . S
C665 C663 1.419 . S
C665 C666 1.362 . S
C666 H658 0.930 . S
C666 C665 1.362 . S
C666 C669 1.409 . S
C667 H659 0.930 . S
C667 C668 1.355 . S
C667 C669 1.415 . S
C668 C667 1.355 . S
C668 C670 1.419 . S
C669 C664 1.425 . S
C669 C666 1.409 . S
C669 C667 1.415 . S
C670 H660 0.930 . S
C670 C668 1.419 . S
C670 C671 1.362 . S
C671 H661 0.930 . S
C671 C664 1.409 . S
C671 C670 1.362 . S
H672 C678 0.930 . S
H673 C681 0.930 . S
H674 C682 0.930 . S
H675 C683 0.930 . S
H676 C686 0.930 . S
H677 C687 0.930 . S
C678 H672 0.930 . S
C678 C679 1.355 . S
C678 C680 1.415 . S
C679 C678 1.355 . S
C679 C681 1.419 . S
C680 C678 1.415 . S
C680 C685 1.425 . S
C680 C687 1.409 . S
C681 H673 0.930 . S
C681 C679 1.419 . S
C681 C682 1.362 . S
C682 H674 0.930 . S
C682 C681 1.362 . S
C682 C685 1.409 . S
C683 H675 0.930 . S
C683 C684 1.355 . S
C683 C685 1.415 . S
C684 C683 1.355 . S
C684 C686 1.419 . S
C685 C680 1.425 . S
C685 C682 1.409 . S
C685 C683 1.415 . S
C686 H676 0.930 . S
C686 C684 1.419 . S
C686 C687 1.362 . S
C687 H677 0.930 . S
C687 C680 1.409 . S
C687 C686 1.362 . S
H688 C694 0.930 . S
H689 C697 0.930 . S
H690 C698 0.930 . S
H691 C699 0.930 . S
H692 C702 0.930 . S
H693 C703 0.930 . S
C694 H688 0.930 . S
C694 C695 1.355 . S
C694 C696 1.415 . S
C695 C694 1.355 . S
C695 C697 1.419 . S
C696 C694 1.415 . S
C696 C701 1.425 . S
C696 C703 1.409 . S
C697 H689 0.930 . S
C697 C695 1.419 . S
C697 C698 1.362 . S
C698 H690 0.930 . S
C698 C697 1.362 . S
C698 C701 1.409 . S
C699 H691 0.930 . S
C699 C700 1.355 . S
C699 C701 1.415 . S
C700 C699 1.355 . S
C700 C702 1.419 . S
C701 C696 1.425 . S
C701 C698 1.409 . S
C701 C699 1.415 . S
C702 H692 0.930 . S
C702 C700 1.419 . S
C702 C703 1.362 . S
C703 H693 0.930 . S
C703 C696 1.409 . S
C703 C702 1.362 . S
H704 C710 0.930 . S
H705 C713 0.930 . S
H706 C714 0.930 . S
H707 C715 0.930 . S
H708 C718 0.930 . S
H709 C719 0.930 . S
C710 H704 0.930 . S
C710 C711 1.355 . S
C710 C712 1.415 . S
C711 C710 1.355 . S
C711 C713 1.419 . S
C712 C710 1.415 . S
C712 C717 1.425 1_565 S
C712 C719 1.409 1_565 S
C713 H705 0.930 . S
C713 C711 1.419 . S
C713 C714 1.362 . S
C714 H706 0.930 . S
C714 C713 1.362 . S
C714 C717 1.409 1_565 S
C715 H707 0.930 . S
C715 C716 1.355 . S
C715 C717 1.415 . S
C716 C715 1.355 . S
C716 C718 1.419 . S
C717 C712 1.425 1_545 S
C717 C714 1.409 1_545 S
C717 C715 1.415 . S
C718 H708 0.930 . S
C718 C716 1.419 . S
C718 C719 1.362 . S
C719 H709 0.930 . S
C719 C712 1.409 1_545 S
C719 C718 1.362 . S
H720 C726 0.930 . S
H721 C729 0.930 . S
H722 C730 0.930 1_455 S
H723 C731 0.930 . S
H724 C734 0.930 . S
H725 C735 0.930 1_655 S
C726 H720 0.930 . S
C726 C727 1.355 . S
C726 C728 1.415 . S
C727 C726 1.355 . S
C727 C729 1.419 . S
C728 C726 1.415 . S
C728 C733 1.425 1_655 S
C728 C735 1.409 1_655 S
C729 H721 0.930 . S
C729 C727 1.419 . S
C729 C730 1.362 . S
C730 H722 0.930 1_655 S
C730 C729 1.362 . S
C730 C733 1.409 1_655 S
C731 H723 0.930 . S
C731 C732 1.355 . S
C731 C733 1.415 . S
C732 C731 1.355 . S
C732 C734 1.419 . S
C733 C728 1.425 1_455 S
C733 C730 1.409 1_455 S
C733 C731 1.415 . S
C734 H724 0.930 . S
C734 C732 1.419 . S
C734 C735 1.362 . S
C735 H725 0.930 1_455 S
C735 C728 1.409 1_455 S
C735 C734 1.362 . S
H736 C742 0.929 1_554 S
H737 C745 0.930 . S
H738 C746 0.930 . S
H739 C747 0.929 1_556 S
H740 C750 0.930 . S
H741 C751 0.930 . S
C742 H736 0.929 1_556 S
C742 C743 1.355 . S
C742 C744 1.414 1_556 S
C743 C742 1.355 . S
C743 C745 1.419 . S
C744 C742 1.414 1_554 S
C744 C749 1.425 1_554 S
C744 C751 1.409 . S
C745 H737 0.930 . S
C745 C743 1.419 . S
C745 C746 1.362 . S
C746 H738 0.930 . S
C746 C745 1.362 . S
C746 C749 1.409 . S
C747 H739 0.929 1_554 S
C747 C748 1.355 . S
C747 C749 1.414 1_554 S
C748 C747 1.355 . S
C748 C750 1.419 . S
C749 C744 1.425 1_556 S
C749 C746 1.409 . S
C749 C747 1.414 1_556 S
C750 H740 0.930 . S
C750 C748 1.419 . S
C750 C751 1.362 . S
C751 H741 0.930 . S
C751 C744 1.409 . S
C751 C750 1.362 . S
H752 C758 0.930 . S
H753 C761 0.927 1_554 S
H754 C762 0.930 . S
H755 C763 0.930 . S
H756 C766 0.927 1_556 S
H757 C767 0.930 . S
C758 H752 0.930 . S
C758 C759 1.355 1_655 S
C758 C760 1.415 . S
C759 C758 1.355 1_455 S
C759 C761 1.419 . S
C760 C758 1.415 . S
C760 C765 1.425 1_646 S
C760 C767 1.409 1_545 S
C761 H753 0.927 1_556 S
C761 C759 1.419 . S
C761 C762 1.362 1_556 S
C762 H754 0.930 . S
C762 C761 1.362 1_554 S
C762 C765 1.409 1_545 S
C763 H755 0.930 . S
C763 C764 1.355 1_455 S
C763 C765 1.415 . S
C764 C763 1.355 1_655 S
C764 C766 1.419 . S
C765 C760 1.425 1_464 S
C765 C762 1.409 1_565 S
C765 C763 1.415 . S
C766 H756 0.927 1_554 S
C766 C764 1.419 . S
C766 C767 1.362 1_554 S
C767 H757 0.930 . S
C767 C760 1.409 1_565 S
C767 C766 1.362 1_556 S
H768 C774 0.930 . S
H769 C777 0.930 . S
H770 C778 0.930 . S
H771 C779 0.930 . S
H772 C782 0.930 . S
H773 C783 0.930 . S
C774 H768 0.930 . S
C774 C775 1.355 . S
C774 C776 1.452 . S
C775 C774 1.355 . S
C775 C777 1.419 . S
C776 C774 1.452 . S
C776 C781 1.421 1_545 S
C776 C783 1.376 1_545 S
C777 H769 0.930 . S
C777 C775 1.419 . S
C777 C778 1.362 . S
C778 H770 0.930 . S
C778 C777 1.362 . S
C778 C781 1.376 1_545 S
C779 H771 0.930 . S
C779 C780 1.355 . S
C779 C781 1.453 . S
C780 C779 1.355 . S
C780 C782 1.419 . S
C781 C776 1.421 1_565 S
C781 C778 1.376 1_565 S
C781 C779 1.453 . S
C782 H772 0.930 . S
C782 C780 1.419 . S
C782 C783 1.362 . S
C783 H773 0.930 . S
C783 C776 1.376 1_565 S
C783 C782 1.362 . S
H784 C790 0.930 . S
H785 C793 0.930 . S
H786 C794 0.930 . S
H787 C795 0.930 . S
H788 C798 0.930 . S
H789 C799 0.930 . S
C790 H784 0.930 . S
C790 C791 1.355 . S
C790 C792 1.415 . S
C791 C790 1.355 . S
C791 C793 1.419 . S
C792 C790 1.415 . S
C792 C797 1.425 1_455 S
C792 C799 1.409 . S
C793 H785 0.930 . S
C793 C791 1.419 . S
C793 C794 1.362 1_455 S
C794 H786 0.930 . S
C794 C793 1.362 1_655 S
C794 C797 1.409 . S
C795 H787 0.930 . S
C795 C796 1.355 . S
C795 C797 1.415 . S
C796 C795 1.355 . S
C796 C798 1.419 . S
C797 C792 1.425 1_655 S
C797 C794 1.409 . S
C797 C795 1.415 . S
C798 H788 0.930 . S
C798 C796 1.419 . S
C798 C799 1.362 1_655 S
C799 H789 0.930 . S
C799 C792 1.409 . S
C799 C798 1.362 1_455 S
H800 C806 0.930 . S
H801 C809 0.930 . S
H802 C810 0.930 . S
H803 C811 0.930 . S
H804 C814 0.930 . S
H805 C815 0.930 . S
C806 H800 0.930 . S
C806 C807 1.355 . S
C806 C808 1.415 . S
C807 C806 1.355 . S
C807 C809 1.419 1_556 S
C808 C806 1.415 . S
C808 C813 1.425 1_556 S
C808 C815 1.409 . S
C809 H801 0.930 . S
C809 C807 1.419 1_554 S
C809 C810 1.362 . S
C810 H802 0.930 . S
C810 C809 1.362 . S
C810 C813 1.409 . S
C811 H803 0.930 . S
C811 C812 1.355 . S
C811 C813 1.415 . S
C812 C811 1.355 . S
C812 C814 1.419 1_554 S
C813 C808 1.425 1_554 S
C813 C810 1.409 . S
C813 C811 1.415 . S
C814 H804 0.930 . S
C814 C812 1.419 1_556 S
C814 C815 1.362 . S
C815 H805 0.930 . S
C815 C808 1.409 . S
C815 C814 1.362 . S
H816 C822 0.930 . S
H817 C825 0.930 . S
H818 C826 0.930 . S
H819 C827 0.930 . S
H820 C830 0.930 . S
H821 C831 0.930 . S
C822 H816 0.930 . S
C822 C823 1.355 . S
C822 C824 1.415 . S
C823 C822 1.355 . S
C823 C825 1.419 . S
C824 C822 1.415 . S
C824 C829 1.425 . S
C824 C831 1.409 . S
C825 H817 0.930 . S
C825 C823 1.419 . S
C825 C826 1.362 . S
C826 H818 0.930 . S
C826 C825 1.362 . S
C826 C829 1.409 . S
C827 H819 0.930 . S
C827 C828 1.355 . S
C827 C829 1.415 . S
C828 C827 1.355 . S
C828 C830 1.419 . S
C829 C824 1.425 . S
C829 C826 1.409 . S
C829 C827 1.415 . S
C830 H820 0.930 . S
C830 C828 1.419 . S
C830 C831 1.362 . S
C831 H821 0.930 . S
C831 C824 1.409 . S
C831 C830 1.362 . S
H832 C838 0.930 . S
H833 C841 0.930 . S
H834 C842 0.930 . S
H835 C843 0.930 . S
H836 C846 0.930 . S
H837 C847 0.930 . S
C838 H832 0.930 . S
C838 C839 1.355 . S
C838 C840 1.415 . S
C839 C838 1.355 . S
C839 C841 1.419 . S
C840 C838 1.415 . S
C840 C845 1.425 . S
C840 C847 1.409 . S
C841 H833 0.930 . S
C841 C839 1.419 . S
C841 C842 1.362 . S
C842 H834 0.930 . S
C842 C841 1.362 . S
C842 C845 1.409 . S
C843 H835 0.930 . S
C843 C844 1.355 . S
C843 C845 1.415 . S
C844 C843 1.355 . S
C844 C846 1.419 . S
C845 C840 1.425 . S
C845 C842 1.409 . S
C845 C843 1.415 . S
C846 H836 0.930 . S
C846 C844 1.419 . S
C846 C847 1.362 . S
C847 H837 0.930 . S
C847 C840 1.409 . S
C847 C846 1.362 . S
H848 C854 0.930 . S
H849 C857 0.930 . S
H850 C858 0.930 . S
H851 C859 0.930 . S
H852 C862 0.930 . S
H853 C863 0.930 . S
C854 H848 0.930 . S
C854 C855 1.355 . S
C854 C856 1.415 . S
C855 C854 1.355 . S
C855 C857 1.419 . S
C856 C854 1.415 . S
C856 C861 1.425 1_655 S
C856 C863 1.409 1_655 S
C857 H849 0.930 . S
C857 C855 1.419 . S
C857 C858 1.362 . S
C858 H850 0.930 . S
C858 C857 1.362 . S
C858 C861 1.409 1_655 S
C859 H851 0.930 . S
C859 C860 1.355 . S
C859 C861 1.415 . S
C860 C859 1.355 . S
C860 C862 1.419 . S
C861 C856 1.425 1_455 S
C861 C858 1.409 1_455 S
C861 C859 1.415 . S
C862 H852 0.930 . S
C862 C860 1.419 . S
C862 C863 1.362 . S
C863 H853 0.930 . S
C863 C856 1.409 1_455 S
C863 C862 1.362 . S
H864 C870 0.930 . S
H865 C873 0.930 . S
H866 C874 0.930 . S
H867 C875 0.930 . S
H868 C878 0.930 . S
H869 C879 0.930 . S
C870 H864 0.930 . S
C870 C871 1.355 . S
C870 C872 1.415 . S
C871 C870 1.355 . S
C871 C873 1.419 . S
C872 C870 1.415 . S
C872 C877 1.425 . S
C872 C879 1.409 . S
C873 H865 0.930 . S
C873 C871 1.419 . S
C873 C874 1.362 . S
C874 H866 0.930 . S
C874 C873 1.362 . S
C874 C877 1.409 . S
C875 H867 0.930 . S
C875 C876 1.355 . S
C875 C877 1.415 . S
C876 C875 1.355 . S
C876 C878 1.419 . S
C877 C872 1.425 . S
C877 C874 1.409 . S
C877 C875 1.415 . S
C878 H868 0.930 . S
C878 C876 1.419 . S
C878 C879 1.362 . S
C879 H869 0.930 . S
C879 C872 1.409 . S
C879 C878 1.362 . S
H880 C886 0.930 . S
H881 C889 0.930 . S
H882 C890 0.930 . S
H883 C891 0.930 . S
H884 C894 0.930 . S
H885 C895 0.930 . S
C886 H880 0.930 . S
C886 C887 1.355 . S
C886 C888 1.415 . S
C887 C886 1.355 . S
C887 C889 1.419 . S
C888 C886 1.415 . S
C888 C893 1.425 . S
C888 C895 1.409 . S
C889 H881 0.930 . S
C889 C887 1.419 . S
C889 C890 1.362 . S
C890 H882 0.930 . S
C890 C889 1.362 . S
C890 C893 1.409 . S
C891 H883 0.930 . S
C891 C892 1.355 . S
C891 C893 1.415 . S
C892 C891 1.355 . S
C892 C894 1.419 . S
C893 C888 1.425 . S
C893 C890 1.409 . S
C893 C891 1.415 . S
C894 H884 0.930 . S
C894 C892 1.419 . S
C894 C895 1.362 . S
C895 H885 0.930 . S
C895 C888 1.409 . S
C895 C894 1.362 . S
H896 C902 0.930 . S
H897 C905 0.930 . S
H898 C906 0.930 . S
H899 C907 0.930 . S
H900 C910 0.930 . S
H901 C911 0.930 . S
C902 H896 0.930 . S
C902 C903 1.355 . S
C902 C904 1.415 . S
C903 C902 1.355 . S
C903 C905 1.419 . S
C904 C902 1.415 . S
C904 C909 1.425 . S
C904 C911 1.409 . S
C905 H897 0.930 . S
C905 C903 1.419 . S
C905 C906 1.362 . S
C906 H898 0.930 . S
C906 C905 1.362 . S
C906 C909 1.409 . S
C907 H899 0.930 . S
C907 C908 1.355 . S
C907 C909 1.415 . S
C908 C907 1.355 . S
C908 C910 1.419 . S
C909 C904 1.425 . S
C909 C906 1.409 . S
C909 C907 1.415 . S
C910 H900 0.930 . S
C910 C908 1.419 . S
C910 C911 1.362 . S
C911 H901 0.930 . S
C911 C904 1.409 . S
C911 C910 1.362 . S
H912 C918 0.930 . S
H913 C921 0.930 . S
H914 C922 0.930 . S
H915 C923 0.930 . S
H916 C926 0.930 . S
H917 C927 0.930 . S
C918 H912 0.930 . S
C918 C919 1.355 . S
C918 C920 1.415 . S
C919 C918 1.355 . S
C919 C921 1.419 . S
C920 C918 1.415 . S
C920 C925 1.425 1_545 S
C920 C927 1.409 1_545 S
C921 H913 0.930 . S
C921 C919 1.419 . S
C921 C922 1.362 . S
C922 H914 0.930 . S
C922 C921 1.362 . S
C922 C925 1.409 1_545 S
C923 H915 0.930 . S
C923 C924 1.355 . S
C923 C925 1.415 . S
C924 C923 1.355 . S
C924 C926 1.419 . S
C925 C920 1.425 1_565 S
C925 C922 1.409 1_565 S
C925 C923 1.415 . S
C926 H916 0.930 . S
C926 C924 1.419 . S
C926 C927 1.362 . S
C927 H917 0.930 . S
C927 C920 1.409 1_565 S
C927 C926 1.362 . S
H928 C934 0.930 . S
H929 C937 0.930 . S
H930 C938 0.930 . S
H931 C939 0.930 . S
H932 C942 0.930 . S
H933 C943 0.930 . S
C934 H928 0.930 . S
C934 C935 1.355 . S
C934 C936 1.415 . S
C935 C934 1.355 . S
C935 C937 1.419 . S
C936 C934 1.415 . S
C936 C941 1.425 . S
C936 C943 1.409 . S
C937 H929 0.930 . S
C937 C935 1.419 . S
C937 C938 1.362 . S
C938 H930 0.930 . S
C938 C937 1.362 . S
C938 C941 1.409 . S
C939 H931 0.930 . S
C939 C940 1.355 . S
C939 C941 1.415 . S
C940 C939 1.355 . S
C940 C942 1.419 . S
C941 C936 1.425 . S
C941 C938 1.409 . S
C941 C939 1.415 . S
C942 H932 0.930 . S
C942 C940 1.419 . S
C942 C943 1.362 . S
C943 H933 0.930 . S
C943 C936 1.409 . S
C943 C942 1.362 . S
H944 C950 0.930 . S
H945 C953 0.930 . S
H946 C954 0.930 . S
H947 C955 0.930 . S
H948 C958 0.930 . S
H949 C959 0.930 . S
C950 H944 0.930 . S
C950 C951 1.355 . S
C950 C952 1.406 1_554 S
C951 C950 1.355 . S
C951 C953 1.419 . S
C952 C950 1.406 1_556 S
C952 C957 1.424 1_556 S
C952 C959 1.418 . S
C953 H945 0.930 . S
C953 C951 1.419 . S
C953 C954 1.362 . S
C954 H946 0.930 . S
C954 C953 1.362 . S
C954 C957 1.418 . S
C955 H947 0.930 . S
C955 C956 1.355 . S
C955 C957 1.406 1_556 S
C956 C955 1.355 . S
C956 C958 1.419 . S
C957 C952 1.424 1_554 S
C957 C954 1.418 . S
C957 C955 1.406 1_554 S
C958 H948 0.930 . S
C958 C956 1.419 . S
C958 C959 1.362 . S
C959 H949 0.930 . S
C959 C952 1.418 . S
C959 C958 1.362 . S
H960 C966 0.930 . S
H961 C969 0.930 . S
H962 C970 0.930 . S
H963 C971 0.930 . S
H964 C974 0.930 . S
H965 C975 0.930 . S
C966 H960 0.930 . S
C966 C967 1.355 . S
C966 C968 1.415 . S
C967 C966 1.355 . S
C967 C969 1.419 . S
C968 C966 1.415 . S
C968 C973 1.425 . S
C968 C975 1.409 . S
C969 H961 0.930 . S
C969 C967 1.419 . S
C969 C970 1.362 . S
C970 H962 0.930 . S
C970 C969 1.362 . S
C970 C973 1.409 . S
C971 H963 0.930 . S
C971 C972 1.355 . S
C971 C973 1.415 . S
C972 C971 1.355 . S
C972 C974 1.419 . S
C973 C968 1.425 . S
C973 C970 1.409 . S
C973 C971 1.415 . S
C974 H964 0.930 . S
C974 C972 1.419 . S
C974 C975 1.362 . S
C975 H965 0.930 . S
C975 C968 1.409 . S
C975 C974 1.362 . S
H976 C982 0.930 . S
H977 C985 0.930 . S
H978 C986 0.930 . S
H979 C987 0.930 . S
H980 C990 0.930 1_554 S
H981 C991 0.930 1_554 S
C982 H976 0.930 . S
C982 C983 1.355 . S
C982 C984 1.415 . S
C983 C982 1.355 . S
C983 C985 1.419 . S
C984 C982 1.415 . S
C984 C989 1.425 . S
C984 C991 1.409 . S
C985 H977 0.930 . S
C985 C983 1.419 . S
C985 C986 1.362 . S
C986 H978 0.930 . S
C986 C985 1.362 . S
C986 C989 1.409 . S
C987 H979 0.930 . S
C987 C988 1.355 . S
C987 C989 1.415 . S
C988 C987 1.355 . S
C988 C990 1.419 . S
C989 C984 1.425 . S
C989 C986 1.409 . S
C989 C987 1.415 . S
C990 H980 0.930 1_556 S
C990 C988 1.419 . S
C990 C991 1.362 . S
C991 H981 0.930 1_556 S
C991 C984 1.409 . S
C991 C990 1.362 . S
H992 C998 0.930 . S
H993 C1001 0.930 . S
H994 C1002 0.930 . S
H995 C1003 0.930 . S
H996 C1006 0.930 . S
H997 C1007 0.930 . S
C998 H992 0.930 . S
C998 C999 1.355 . S
C998 C1000 1.415 . S
C999 C998 1.355 . S
C999 C1001 1.419 . S
C1000 C998 1.415 . S
C1000 C1005 1.425 . S
C1000 C1007 1.409 . S
C1001 H993 0.930 . S
C1001 C999 1.419 . S
C1001 C1002 1.362 . S
C1002 H994 0.930 . S
C1002 C1001 1.362 . S
C1002 C1005 1.409 . S
C1003 H995 0.930 . S
C1003 C1004 1.355 . S
C1003 C1005 1.415 . S
C1004 C1003 1.355 . S
C1004 C1006 1.419 . S
C1005 C1000 1.425 . S
C1005 C1002 1.409 . S
C1005 C1003 1.415 . S
C1006 H996 0.930 . S
C1006 C1004 1.419 . S
C1006 C1007 1.362 . S
C1007 H997 0.930 . S
C1007 C1000 1.409 . S
C1007 C1006 1.362 . S
H1008 C1014 0.930 . S
H1009 C1017 0.930 1_556 S
H1010 C1018 0.911 1_556 S
H1011 C1019 0.930 1_556 S
H1012 C1022 0.930 . S
H1013 C1023 0.930 . S
C1014 H1008 0.930 . S
C1014 C1015 1.355 . S
C1014 C1016 1.415 . S
C1015 C1014 1.355 . S
C1015 C1017 1.419 . S
C1016 C1014 1.415 . S
C1016 C1021 1.425 . S
C1016 C1023 1.409 . S
C1017 H1009 0.930 1_554 S
C1017 C1015 1.419 . S
C1017 C1018 1.366 . S
C1018 H1010 0.911 1_554 S
C1018 C1017 1.366 . S
C1018 C1021 1.424 . S
C1019 H1011 0.930 1_554 S
C1019 C1020 1.355 . S
C1019 C1021 1.415 . S
C1020 C1019 1.355 . S
C1020 C1022 1.419 . S
C1021 C1016 1.425 . S
C1021 C1018 1.424 . S
C1021 C1019 1.415 . S
C1022 H1012 0.930 . S
C1022 C1020 1.419 . S
C1022 C1023 1.362 . S
C1023 H1013 0.930 . S
C1023 C1016 1.409 . S
C1023 C1022 1.362 . S
H1024 C1030 0.930 . S
H1025 C1033 0.930 . S
H1026 C1034 0.930 . S
H1027 C1035 0.930 . S
H1028 C1038 0.930 . S
H1029 C1039 0.930 . S
C1030 H1024 0.930 . S
C1030 C1031 1.355 . S
C1030 C1032 1.415 . S
C1031 C1030 1.355 . S
C1031 C1033 1.419 . S
C1032 C1030 1.415 . S
C1032 C1037 1.425 . S
C1032 C1039 1.409 . S
C1033 H1025 0.930 . S
C1033 C1031 1.419 . S
C1033 C1034 1.362 . S
C1034 H1026 0.930 . S
C1034 C1033 1.362 . S
C1034 C1037 1.409 . S
C1035 H1027 0.930 . S
C1035 C1036 1.355 . S
C1035 C1037 1.415 . S
C1036 C1035 1.355 . S
C1036 C1038 1.419 . S
C1037 C1032 1.425 . S
C1037 C1034 1.409 . S
C1037 C1035 1.415 . S
C1038 H1028 0.930 . S
C1038 C1036 1.419 . S
C1038 C1039 1.362 . S
C1039 H1029 0.930 . S
C1039 C1032 1.409 . S
C1039 C1038 1.362 . S
H1040 C1046 0.930 . S
H1041 C1049 0.930 . S
H1042 C1050 0.930 . S
H1043 C1051 0.930 . S
H1044 C1054 0.930 . S
H1045 C1055 0.930 . S
C1046 H1040 0.930 . S
C1046 C1047 1.355 . S
C1046 C1048 1.415 . S
C1047 C1046 1.355 . S
C1047 C1049 1.419 . S
C1048 C1046 1.415 . S
C1048 C1053 1.425 . S
C1048 C1055 1.409 . S
C1049 H1041 0.930 . S
C1049 C1047 1.419 . S
C1049 C1050 1.362 . S
C1050 H1042 0.930 . S
C1050 C1049 1.362 . S
C1050 C1053 1.409 . S
C1051 H1043 0.930 . S
C1051 C1052 1.355 . S
C1051 C1053 1.415 . S
C1052 C1051 1.355 . S
C1052 C1054 1.419 . S
C1053 C1048 1.425 . S
C1053 C1050 1.409 . S
C1053 C1051 1.415 . S
C1054 H1044 0.930 . S
C1054 C1052 1.419 . S
C1054 C1055 1.362 . S
C1055 H1045 0.930 . S
C1055 C1048 1.409 . S
C1055 C1054 1.362 . S
H1056 C1062 0.930 . S
H1057 C1065 0.930 . S
H1058 C1066 0.930 . S
H1059 C1067 0.930 . S
H1060 C1070 0.930 . S
H1061 C1071 0.930 . S
C1062 H1056 0.930 . S
C1062 C1063 1.355 . S
C1062 C1064 1.415 . S
C1063 C1062 1.355 . S
C1063 C1065 1.419 . S
C1064 C1062 1.415 . S
C1064 C1069 1.425 . S
C1064 C1071 1.409 . S
C1065 H1057 0.930 . S
C1065 C1063 1.419 . S
C1065 C1066 1.362 . S
C1066 H1058 0.930 . S
C1066 C1065 1.362 . S
C1066 C1069 1.409 . S
C1067 H1059 0.930 . S
C1067 C1068 1.355 . S
C1067 C1069 1.415 . S
C1068 C1067 1.355 . S
C1068 C1070 1.419 . S
C1069 C1064 1.425 . S
C1069 C1066 1.409 . S
C1069 C1067 1.415 . S
C1070 H1060 0.930 . S
C1070 C1068 1.419 . S
C1070 C1071 1.362 . S
C1071 H1061 0.930 . S
C1071 C1064 1.409 . S
C1071 C1070 1.362 . S
H1072 C1078 0.930 . S
H1073 C1081 0.930 . S
H1074 C1082 0.930 . S
H1075 C1083 0.930 . S
H1076 C1086 0.930 . S
H1077 C1087 0.930 . S
C1078 H1072 0.930 . S
C1078 C1079 1.355 . S
C1078 C1080 1.415 . S
C1079 C1078 1.355 . S
C1079 C1081 1.419 . S
C1080 C1078 1.415 . S
C1080 C1085 1.425 . S
C1080 C1087 1.409 . S
C1081 H1073 0.930 . S
C1081 C1079 1.419 . S
C1081 C1082 1.362 . S
C1082 H1074 0.930 . S
C1082 C1081 1.362 . S
C1082 C1085 1.409 . S
C1083 H1075 0.930 . S
C1083 C1084 1.355 . S
C1083 C1085 1.415 . S
C1084 C1083 1.355 . S
C1084 C1086 1.419 . S
C1085 C1080 1.425 . S
C1085 C1082 1.409 . S
C1085 C1083 1.415 . S
C1086 H1076 0.930 . S
C1086 C1084 1.419 . S
C1086 C1087 1.362 . S
C1087 H1077 0.930 . S
C1087 C1080 1.409 . S
C1087 C1086 1.362 . S
H1088 C1094 0.930 . S
H1089 C1097 0.930 . S
H1090 C1098 0.930 . S
H1091 C1099 0.930 . S
H1092 C1102 0.930 . S
H1093 C1103 0.930 . S
C1094 H1088 0.930 . S
C1094 C1095 1.355 . S
C1094 C1096 1.415 . S
C1095 C1094 1.355 . S
C1095 C1097 1.419 . S
C1096 C1094 1.415 . S
C1096 C1101 1.425 . S
C1096 C1103 1.409 . S
C1097 H1089 0.930 . S
C1097 C1095 1.419 . S
C1097 C1098 1.362 . S
C1098 H1090 0.930 . S
C1098 C1097 1.362 . S
C1098 C1101 1.409 . S
C1099 H1091 0.930 . S
C1099 C1100 1.355 . S
C1099 C1101 1.415 . S
C1100 C1099 1.355 . S
C1100 C1102 1.419 . S
C1101 C1096 1.425 . S
C1101 C1098 1.409 . S
C1101 C1099 1.415 . S
C1102 H1092 0.930 . S
C1102 C1100 1.419 . S
C1102 C1103 1.362 . S
C1103 H1093 0.930 . S
C1103 C1096 1.409 . S
C1103 C1102 1.362 . S
H1104 C1110 0.930 . S
H1105 C1113 0.930 . S
H1106 C1114 0.930 . S
H1107 C1115 0.930 . S
H1108 C1118 0.930 . S
H1109 C1119 0.930 . S
C1110 H1104 0.930 . S
C1110 C1111 1.355 . S
C1110 C1112 1.415 . S
C1111 C1110 1.355 . S
C1111 C1113 1.419 . S
C1112 C1110 1.415 . S
C1112 C1117 1.425 . S
C1112 C1119 1.409 . S
C1113 H1105 0.930 . S
C1113 C1111 1.419 . S
C1113 C1114 1.362 . S
C1114 H1106 0.930 . S
C1114 C1113 1.362 . S
C1114 C1117 1.409 . S
C1115 H1107 0.930 . S
C1115 C1116 1.355 . S
C1115 C1117 1.415 . S
C1116 C1115 1.355 . S
C1116 C1118 1.419 . S
C1117 C1112 1.425 . S
C1117 C1114 1.409 . S
C1117 C1115 1.415 . S
C1118 H1108 0.930 . S
C1118 C1116 1.419 . S
C1118 C1119 1.362 . S
C1119 H1109 0.930 . S
C1119 C1112 1.409 . S
C1119 C1118 1.362 . S
H1120 C1126 0.930 . S
H1121 C1129 0.930 . S
H1122 C1130 0.930 . S
H1123 C1131 0.930 . S
H1124 C1134 0.930 . S
H1125 C1135 0.930 . S
C1126 H1120 0.930 . S
C1126 C1127 1.355 . S
C1126 C1128 1.415 . S
C1127 C1126 1.355 . S
C1127 C1129 1.419 . S
C1128 C1126 1.415 . S
C1128 C1133 1.425 . S
C1128 C1135 1.409 . S
C1129 H1121 0.930 . S
C1129 C1127 1.419 . S
C1129 C1130 1.362 . S
C1130 H1122 0.930 . S
C1130 C1129 1.362 . S
C1130 C1133 1.409 . S
C1131 H1123 0.930 . S
C1131 C1132 1.355 . S
C1131 C1133 1.415 . S
C1132 C1131 1.355 . S
C1132 C1134 1.419 . S
C1133 C1128 1.425 . S
C1133 C1130 1.409 . S
C1133 C1131 1.415 . S
C1134 H1124 0.930 . S
C1134 C1132 1.419 . S
C1134 C1135 1.362 . S
C1135 H1125 0.930 . S
C1135 C1128 1.409 . S
C1135 C1134 1.362 . S
H1136 C1142 0.930 . S
H1137 C1145 0.930 . S
H1138 C1146 0.930 . S
H1139 C1147 0.930 . S
H1140 C1150 0.930 . S
H1141 C1151 0.930 . S
C1142 H1136 0.930 . S
C1142 C1143 1.355 . S
C1142 C1144 1.415 . S
C1143 C1142 1.355 . S
C1143 C1145 1.419 . S
C1144 C1142 1.415 . S
C1144 C1149 1.425 . S
C1144 C1151 1.409 . S
C1145 H1137 0.930 . S
C1145 C1143 1.419 . S
C1145 C1146 1.362 . S
C1146 H1138 0.930 . S
C1146 C1145 1.362 . S
C1146 C1149 1.409 . S
C1147 H1139 0.930 . S
C1147 C1148 1.355 . S
C1147 C1149 1.415 . S
C1148 C1147 1.355 . S
C1148 C1150 1.419 . S
C1149 C1144 1.425 . S
C1149 C1146 1.409 . S
C1149 C1147 1.415 . S
C1150 H1140 0.930 . S
C1150 C1148 1.419 . S
C1150 C1151 1.362 . S
C1151 H1141 0.930 . S
C1151 C1144 1.409 . S
C1151 C1150 1.362 . S
H1152 C1158 0.930 . S
H1153 C1161 0.930 . S
H1154 C1162 0.930 . S
H1155 C1163 0.930 . S
H1156 C1166 0.930 . S
H1157 C1167 0.930 . S
C1158 H1152 0.930 . S
C1158 C1159 1.355 . S
C1158 C1160 1.415 . S
C1159 C1158 1.355 . S
C1159 C1161 1.419 . S
C1160 C1158 1.415 . S
C1160 C1165 1.425 . S
C1160 C1167 1.409 . S
C1161 H1153 0.930 . S
C1161 C1159 1.419 . S
C1161 C1162 1.362 . S
C1162 H1154 0.930 . S
C1162 C1161 1.362 . S
C1162 C1165 1.409 . S
C1163 H1155 0.930 . S
C1163 C1164 1.355 . S
C1163 C1165 1.415 . S
C1164 C1163 1.355 . S
C1164 C1166 1.419 . S
C1165 C1160 1.425 . S
C1165 C1162 1.409 . S
C1165 C1163 1.415 . S
C1166 H1156 0.930 . S
C1166 C1164 1.419 . S
C1166 C1167 1.362 . S
C1167 H1157 0.930 . S
C1167 C1160 1.409 . S
C1167 C1166 1.362 . S
H1168 C1174 0.930 1_554 S
H1169 C1177 0.930 . S
H1170 C1178 0.930 . S
H1171 C1179 0.930 . S
H1172 C1182 0.930 . S
H1173 C1183 0.930 . S
C1174 H1168 0.930 1_556 S
C1174 C1175 1.355 . S
C1174 C1176 1.415 . S
C1175 C1174 1.355 . S
C1175 C1177 1.419 . S
C1176 C1174 1.415 . S
C1176 C1181 1.425 . S
C1176 C1183 1.409 1_556 S
C1177 H1169 0.930 . S
C1177 C1175 1.419 . S
C1177 C1178 1.362 . S
C1178 H1170 0.930 . S
C1178 C1177 1.362 . S
C1178 C1181 1.409 . S
C1179 H1171 0.930 . S
C1179 C1180 1.355 . S
C1179 C1181 1.415 . S
C1180 C1179 1.355 . S
C1180 C1182 1.419 1_556 S
C1181 C1176 1.425 . S
C1181 C1178 1.409 . S
C1181 C1179 1.415 . S
C1182 H1172 0.930 . S
C1182 C1180 1.419 1_554 S
C1182 C1183 1.362 . S
C1183 H1173 0.930 . S
C1183 C1176 1.409 1_554 S
C1183 C1182 1.362 . S
H1184 C1190 0.930 . S
H1185 C1193 0.930 . S
H1186 C1194 0.930 . S
H1187 C1195 0.930 . S
H1188 C1198 0.930 . S
H1189 C1199 0.930 . S
C1190 H1184 0.930 . S
C1190 C1191 1.355 . S
C1190 C1192 1.415 . S
C1191 C1190 1.355 . S
C1191 C1193 1.419 . S
C1192 C1190 1.415 . S
C1192 C1197 1.425 . S
C1192 C1199 1.409 . S
C1193 H1185 0.930 . S
C1193 C1191 1.419 . S
C1193 C1194 1.362 . S
C1194 H1186 0.930 . S
C1194 C1193 1.362 . S
C1194 C1197 1.409 . S
C1195 H1187 0.930 . S
C1195 C1196 1.355 . S
C1195 C1197 1.415 . S
C1196 C1195 1.355 . S
C1196 C1198 1.419 . S
C1197 C1192 1.425 . S
C1197 C1194 1.409 . S
C1197 C1195 1.415 . S
C1198 H1188 0.930 . S
C1198 C1196 1.419 . S
C1198 C1199 1.362 . S
C1199 H1189 0.930 . S
C1199 C1192 1.409 . S
C1199 C1198 1.362 . S
H1200 C1206 0.905 1_556 S
H1201 C1209 0.930 . S
H1202 C1210 0.930 . S
H1203 C1211 0.930 . S
H1204 C1214 0.930 1_556 S
H1205 C1215 0.930 1_556 S
C1206 H1200 0.905 1_554 S
C1206 C1207 1.355 . S
C1206 C1208 1.415 . S
C1207 C1206 1.355 . S
C1207 C1209 1.419 . S
C1208 C1206 1.415 . S
C1208 C1213 1.425 . S
C1208 C1215 1.409 . S
C1209 H1201 0.930 . S
C1209 C1207 1.419 . S
C1209 C1210 1.362 . S
C1210 H1202 0.930 . S
C1210 C1209 1.362 . S
C1210 C1213 1.409 . S
C1211 H1203 0.930 . S
C1211 C1212 1.355 . S
C1211 C1213 1.415 . S
C1212 C1211 1.355 . S
C1212 C1214 1.419 . S
C1213 C1208 1.425 . S
C1213 C1210 1.409 . S
C1213 C1211 1.415 . S
C1214 H1204 0.930 1_554 S
C1214 C1212 1.419 . S
C1214 C1215 1.362 . S
C1215 H1205 0.930 1_554 S
C1215 C1208 1.409 . S
C1215 C1214 1.362 . S
H1216 C1222 0.930 . S
H1217 C1225 0.930 . S
H1218 C1226 0.930 . S
H1219 C1227 0.930 . S
H1220 C1230 0.930 . S
H1221 C1231 0.930 . S
C1222 H1216 0.930 . S
C1222 C1223 1.355 . S
C1222 C1224 1.415 . S
C1223 C1222 1.355 . S
C1223 C1225 1.419 . S
C1224 C1222 1.415 . S
C1224 C1229 1.425 . S
C1224 C1231 1.409 . S
C1225 H1217 0.930 . S
C1225 C1223 1.419 . S
C1225 C1226 1.362 . S
C1226 H1218 0.930 . S
C1226 C1225 1.362 . S
C1226 C1229 1.409 . S
C1227 H1219 0.930 . S
C1227 C1228 1.355 . S
C1227 C1229 1.415 . S
C1228 C1227 1.355 . S
C1228 C1230 1.419 . S
C1229 C1224 1.425 . S
C1229 C1226 1.409 . S
C1229 C1227 1.415 . S
C1230 H1220 0.930 . S
C1230 C1228 1.419 . S
C1230 C1231 1.362 . S
C1231 H1221 0.930 . S
C1231 C1224 1.409 . S
C1231 C1230 1.362 . S
H1232 C1238 0.930 . S
H1233 C1241 0.930 . S
H1234 C1242 0.930 . S
H1235 C1243 0.930 . S
H1236 C1246 0.930 . S
H1237 C1247 0.930 . S
C1238 H1232 0.930 . S
C1238 C1239 1.355 . S
C1238 C1240 1.415 . S
C1239 C1238 1.355 . S
C1239 C1241 1.419 . S
C1240 C1238 1.415 . S
C1240 C1245 1.425 . S
C1240 C1247 1.409 . S
C1241 H1233 0.930 . S
C1241 C1239 1.419 . S
C1241 C1242 1.362 . S
C1242 H1234 0.930 . S
C1242 C1241 1.362 . S
C1242 C1245 1.409 . S
C1243 H1235 0.930 . S
C1243 C1244 1.355 . S
C1243 C1245 1.415 . S
C1244 C1243 1.355 . S
C1244 C1246 1.419 . S
C1245 C1240 1.425 . S
C1245 C1242 1.409 . S
C1245 C1243 1.415 . S
C1246 H1236 0.930 . S
C1246 C1244 1.419 . S
C1246 C1247 1.362 . S
C1247 H1237 0.930 . S
C1247 C1240 1.409 . S
C1247 C1246 1.362 . S
H1248 C1254 0.930 . S
H1249 C1257 0.930 . S
H1250 C1258 0.930 . S
H1251 C1259 0.930 . S
H1252 C1262 0.930 1_455 S
H1253 C1263 0.930 . S
C1254 H1248 0.930 . S
C1254 C1255 1.355 . S
C1254 C1256 1.415 . S
C1255 C1254 1.355 . S
C1255 C1257 1.419 . S
C1256 C1254 1.415 . S
C1256 C1261 1.425 . S
C1256 C1263 1.409 . S
C1257 H1249 0.930 . S
C1257 C1255 1.419 . S
C1257 C1258 1.362 . S
C1258 H1250 0.930 . S
C1258 C1257 1.362 . S
C1258 C1261 1.409 . S
C1259 H1251 0.930 . S
C1259 C1260 1.355 . S
C1259 C1261 1.415 . S
C1260 C1259 1.355 . S
C1260 C1262 1.419 . S
C1261 C1256 1.425 . S
C1261 C1258 1.409 . S
C1261 C1259 1.415 . S
C1262 H1252 0.930 1_655 S
C1262 C1260 1.419 . S
C1262 C1263 1.362 . S
C1263 H1253 0.930 . S
C1263 C1256 1.409 . S
C1263 C1262 1.362 . S
H1264 C1270 0.930 . S
H1265 C1273 0.930 . S
H1266 C1274 0.930 . S
H1267 C1275 0.930 . S
H1268 C1278 0.930 . S
H1269 C1279 0.930 . S
C1270 H1264 0.930 . S
C1270 C1271 1.355 . S
C1270 C1272 1.415 . S
C1271 C1270 1.355 . S
C1271 C1273 1.419 . S
C1272 C1270 1.415 . S
C1272 C1277 1.425 . S
C1272 C1279 1.409 . S
C1273 H1265 0.930 . S
C1273 C1271 1.419 . S
C1273 C1274 1.362 . S
C1274 H1266 0.930 . S
C1274 C1273 1.362 . S
C1274 C1277 1.409 . S
C1275 H1267 0.930 . S
C1275 C1276 1.355 . S
C1275 C1277 1.415 . S
C1276 C1275 1.355 . S
C1276 C1278 1.419 . S
C1277 C1272 1.425 . S
C1277 C1274 1.409 . S
C1277 C1275 1.415 . S
C1278 H1268 0.930 . S
C1278 C1276 1.419 . S
C1278 C1279 1.362 . S
C1279 H1269 0.930 . S
C1279 C1272 1.409 . S
C1279 C1278 1.362 . S
H1280 C1286 0.930 . S
H1281 C1289 0.930 . S
H1282 C1290 0.930 . S
H1283 C1291 0.930 . S
H1284 C1294 0.930 . S
H1285 C1295 0.930 . S
C1286 H1280 0.930 . S
C1286 C1287 1.355 . S
C1286 C1288 1.415 . S
C1287 C1286 1.355 . S
C1287 C1289 1.419 . S
C1288 C1286 1.415 . S
C1288 C1293 1.425 . S
C1288 C1295 1.409 . S
C1289 H1281 0.930 . S
C1289 C1287 1.419 . S
C1289 C1290 1.362 . S
C1290 H1282 0.930 . S
C1290 C1289 1.362 . S
C1290 C1293 1.409 . S
C1291 H1283 0.930 . S
C1291 C1292 1.355 . S
C1291 C1293 1.415 . S
C1292 C1291 1.355 . S
C1292 C1294 1.419 . S
C1293 C1288 1.425 . S
C1293 C1290 1.409 . S
C1293 C1291 1.415 . S
C1294 H1284 0.930 . S
C1294 C1292 1.419 . S
C1294 C1295 1.362 . S
C1295 H1285 0.930 . S
C1295 C1288 1.409 . S
C1295 C1294 1.362 . S
H1296 C1302 0.930 . S
H1297 C1305 0.930 . S
H1298 C1306 0.930 . S
H1299 C1307 0.930 . S
H1300 C1310 0.930 . S
H1301 C1311 0.930 . S
C1302 H1296 0.930 . S
C1302 C1303 1.355 . S
C1302 C1304 1.415 . S
C1303 C1302 1.355 . S
C1303 C1305 1.419 . S
C1304 C1302 1.415 . S
C1304 C1309 1.425 . S
C1304 C1311 1.409 . S
C1305 H1297 0.930 . S
C1305 C1303 1.419 . S
C1305 C1306 1.362 . S
C1306 H1298 0.930 . S
C1306 C1305 1.362 . S
C1306 C1309 1.409 . S
C1307 H1299 0.930 . S
C1307 C1308 1.355 . S
C1307 C1309 1.415 . S
C1308 C1307 1.355 . S
C1308 C1310 1.419 . S
C1309 C1304 1.425 . S
C1309 C1306 1.409 . S
C1309 C1307 1.415 . S
C1310 H1300 0.930 . S
C1310 C1308 1.419 . S
C1310 C1311 1.362 . S
C1311 H1301 0.930 . S
C1311 C1304 1.409 . S
C1311 C1310 1.362 . S
H1312 C1318 0.930 . S
H1313 C1321 0.930 . S
H1314 C1322 0.930 . S
H1315 C1323 0.930 . S
H1316 C1326 0.930 . S
H1317 C1327 0.930 . S
C1318 H1312 0.930 . S
C1318 C1319 1.355 . S
C1318 C1320 1.415 . S
C1319 C1318 1.355 . S
C1319 C1321 1.419 . S
C1320 C1318 1.415 . S
C1320 C1325 1.425 . S
C1320 C1327 1.409 . S
C1321 H1313 0.930 . S
C1321 C1319 1.419 . S
C1321 C1322 1.362 . S
C1322 H1314 0.930 . S
C1322 C1321 1.362 . S
C1322 C1325 1.409 . S
C1323 H1315 0.930 . S
C1323 C1324 1.355 . S
C1323 C1325 1.415 . S
C1324 C1323 1.355 . S
C1324 C1326 1.419 . S
C1325 C1320 1.425 . S
C1325 C1322 1.409 . S
C1325 C1323 1.415 . S
C1326 H1316 0.930 . S
C1326 C1324 1.419 . S
C1326 C1327 1.362 . S
C1327 H1317 0.930 . S
C1327 C1320 1.409 . S
C1327 C1326 1.362 . S
H1328 C1334 0.930 . S
H1329 C1337 0.930 . S
H1330 C1338 0.930 . S
H1331 C1339 0.930 . S
H1332 C1342 0.930 . S
H1333 C1343 0.930 . S
C1334 H1328 0.930 . S
C1334 C1335 1.355 . S
C1334 C1336 1.415 . S
C1335 C1334 1.355 . S
C1335 C1337 1.419 . S
C1336 C1334 1.415 . S
C1336 C1341 1.425 . S
C1336 C1343 1.409 . S
C1337 H1329 0.930 . S
C1337 C1335 1.419 . S
C1337 C1338 1.362 . S
C1338 H1330 0.930 . S
C1338 C1337 1.362 . S
C1338 C1341 1.409 . S
C1339 H1331 0.930 . S
C1339 C1340 1.355 . S
C1339 C1341 1.415 . S
C1340 C1339 1.355 . S
C1340 C1342 1.419 . S
C1341 C1336 1.425 . S
C1341 C1338 1.409 . S
C1341 C1339 1.415 . S
C1342 H1332 0.930 . S
C1342 C1340 1.419 . S
C1342 C1343 1.362 . S
C1343 H1333 0.930 . S
C1343 C1336 1.409 . S
C1343 C1342 1.362 . S
H1344 C1350 0.930 . S
H1345 C1353 0.930 . S
H1346 C1354 0.930 . S
H1347 C1355 0.930 . S
H1348 C1358 0.930 . S
H1349 C1359 0.930 . S
C1350 H1344 0.930 . S
C1350 C1351 1.355 . S
C1350 C1352 1.415 . S
C1351 C1350 1.355 . S
C1351 C1353 1.419 . S
C1352 C1350 1.415 . S
C1352 C1357 1.425 . S
C1352 C1359 1.409 . S
C1353 H1345 0.930 . S
C1353 C1351 1.419 . S
C1353 C1354 1.362 . S
C1354 H1346 0.930 . S
C1354 C1353 1.362 . S
C1354 C1357 1.409 . S
C1355 H1347 0.930 . S
C1355 C1356 1.355 . S
C1355 C1357 1.415 . S
C1356 C1355 1.355 . S
C1356 C1358 1.419 . S
C1357 C1352 1.425 . S
C1357 C1354 1.409 . S
C1357 C1355 1.415 . S
C1358 H1348 0.930 . S
C1358 C1356 1.419 . S
C1358 C1359 1.362 . S
C1359 H1349 0.930 . S
C1359 C1352 1.409 . S
C1359 C1358 1.362 . S
H1360 C1366 0.930 . S
H1361 C1369 0.930 . S
H1362 C1370 0.930 . S
H1363 C1371 0.930 . S
H1364 C1374 0.930 . S
H1365 C1375 0.930 . S
C1366 H1360 0.930 . S
C1366 C1367 1.355 . S
C1366 C1368 1.415 . S
C1367 C1366 1.355 . S
C1367 C1369 1.419 . S
C1368 C1366 1.415 . S
C1368 C1373 1.425 . S
C1368 C1375 1.409 . S
C1369 H1361 0.930 . S
C1369 C1367 1.419 . S
C1369 C1370 1.362 . S
C1370 H1362 0.930 . S
C1370 C1369 1.362 . S
C1370 C1373 1.409 . S
C1371 H1363 0.930 . S
C1371 C1372 1.355 . S
C1371 C1373 1.415 . S
C1372 C1371 1.355 . S
C1372 C1374 1.419 . S
C1373 C1368 1.425 . S
C1373 C1370 1.409 . S
C1373 C1371 1.415 . S
C1374 H1364 0.930 . S
C1374 C1372 1.419 . S
C1374 C1375 1.362 . S
C1375 H1365 0.930 . S
C1375 C1368 1.409 . S
C1375 C1374 1.362 . S
H1376 C1382 0.930 . S
H1377 C1385 0.930 . S
H1378 C1386 0.930 . S
H1379 C1387 0.930 . S
H1380 C1390 0.930 . S
H1381 C1391 0.930 . S
C1382 H1376 0.930 . S
C1382 C1383 1.355 . S
C1382 C1384 1.415 . S
C1383 C1382 1.355 . S
C1383 C1385 1.419 . S
C1384 C1382 1.415 . S
C1384 C1389 1.425 . S
C1384 C1391 1.409 . S
C1385 H1377 0.930 . S
C1385 C1383 1.419 . S
C1385 C1386 1.362 . S
C1386 H1378 0.930 . S
C1386 C1385 1.362 . S
C1386 C1389 1.409 . S
C1387 H1379 0.930 . S
C1387 C1388 1.355 . S
C1387 C1389 1.415 . S
C1388 C1387 1.355 . S
C1388 C1390 1.419 . S
C1389 C1384 1.425 . S
C1389 C1386 1.409 . S
C1389 C1387 1.415 . S
C1390 H1380 0.930 . S
C1390 C1388 1.419 . S
C1390 C1391 1.362 . S
C1391 H1381 0.930 . S
C1391 C1384 1.409 . S
C1391 C1390 1.362 . S
H1392 C1398 0.930 . S
H1393 C1401 0.930 . S
H1394 C1402 0.930 . S
H1395 C1403 0.930 . S
H1396 C1406 0.930 . S
H1397 C1407 0.930 . S
C1398 H1392 0.930 . S
C1398 C1399 1.355 . S
C1398 C1400 1.415 . S
C1399 C1398 1.355 . S
C1399 C1401 1.419 . S
C1400 C1398 1.415 . S
C1400 C1405 1.425 . S
C1400 C1407 1.409 . S
C1401 H1393 0.930 . S
C1401 C1399 1.419 . S
C1401 C1402 1.362 . S
C1402 H1394 0.930 . S
C1402 C1401 1.362 . S
C1402 C1405 1.409 . S
C1403 H1395 0.930 . S
C1403 C1404 1.355 . S
C1403 C1405 1.415 . S
C1404 C1403 1.355 . S
C1404 C1406 1.419 . S
C1405 C1400 1.425 . S
C1405 C1402 1.409 . S
C1405 C1403 1.415 . S
C1406 H1396 0.930 . S
C1406 C1404 1.419 . S
C1406 C1407 1.362 . S
C1407 H1397 0.930 . S
C1407 C1400 1.409 . S
C1407 C1406 1.362 . S
H1408 C1414 0.930 . S
H1409 C1417 0.930 1_655 S
H1410 C1418 0.930 . S
H1411 C1419 0.930 . S
H1412 C1422 0.930 . S
H1413 C1423 0.930 . S
C1414 H1408 0.930 . S
C1414 C1415 1.355 . S
C1414 C1416 1.415 . S
C1415 C1414 1.355 . S
C1415 C1417 1.419 . S
C1416 C1414 1.415 . S
C1416 C1421 1.425 . S
C1416 C1423 1.409 . S
C1417 H1409 0.930 1_455 S
C1417 C1415 1.419 . S
C1417 C1418 1.362 . S
C1418 H1410 0.930 . S
C1418 C1417 1.362 . S
C1418 C1421 1.409 . S
C1419 H1411 0.930 . S
C1419 C1420 1.355 . S
C1419 C1421 1.415 . S
C1420 C1419 1.355 . S
C1420 C1422 1.419 . S
C1421 C1416 1.425 . S
C1421 C1418 1.409 . S
C1421 C1419 1.415 . S
C1422 H1412 0.930 . S
C1422 C1420 1.419 . S
C1422 C1423 1.362 . S
C1423 H1413 0.930 . S
C1423 C1416 1.409 . S
C1423 C1422 1.362 . S
H1424 C1430 0.930 . S
H1425 C1433 0.930 . S
H1426 C1434 0.930 . S
H1427 C1435 0.930 . S
H1428 C1438 0.930 . S
H1429 C1439 0.930 . S
C1430 H1424 0.930 . S
C1430 C1431 1.355 . S
C1430 C1432 1.415 . S
C1431 C1430 1.355 . S
C1431 C1433 1.419 . S
C1432 C1430 1.415 . S
C1432 C1437 1.425 . S
C1432 C1439 1.409 . S
C1433 H1425 0.930 . S
C1433 C1431 1.419 . S
C1433 C1434 1.362 . S
C1434 H1426 0.930 . S
C1434 C1433 1.362 . S
C1434 C1437 1.409 . S
C1435 H1427 0.930 . S
C1435 C1436 1.355 . S
C1435 C1437 1.415 . S
C1436 C1435 1.355 . S
C1436 C1438 1.419 . S
C1437 C1432 1.425 . S
C1437 C1434 1.409 . S
C1437 C1435 1.415 . S
C1438 H1428 0.930 . S
C1438 C1436 1.419 . S
C1438 C1439 1.362 . S
C1439 H1429 0.930 . S
C1439 C1432 1.409 . S
C1439 C1438 1.362 . S
H1440 C1446 0.930 . S
H1441 C1449 0.930 . S
H1442 C1450 0.930 . S
H1443 C1451 0.930 . S
H1444 C1454 0.930 . S
H1445 C1455 0.930 . S
C1446 H1440 0.930 . S
C1446 C1447 1.355 . S
C1446 C1448 1.415 . S
C1447 C1446 1.355 . S
C1447 C1449 1.419 . S
C1448 C1446 1.415 . S
C1448 C1453 1.425 . S
C1448 C1455 1.409 . S
C1449 H1441 0.930 . S
C1449 C1447 1.419 . S
C1449 C1450 1.362 . S
C1450 H1442 0.930 . S
C1450 C1449 1.362 . S
C1450 C1453 1.409 . S
C1451 H1443 0.930 . S
C1451 C1452 1.355 . S
C1451 C1453 1.415 . S
C1452 C1451 1.355 . S
C1452 C1454 1.419 . S
C1453 C1448 1.425 . S
C1453 C1450 1.409 . S
C1453 C1451 1.415 . S
C1454 H1444 0.930 . S
C1454 C1452 1.419 . S
C1454 C1455 1.362 . S
C1455 H1445 0.930 . S
C1455 C1448 1.409 . S
C1455 C1454 1.362 . S
H1456 C1462 0.930 . S
H1457 C1465 0.930 . S
H1458 C1466 0.930 . S
H1459 C1467 0.930 . S
H1460 C1470 0.930 . S
H1461 C1471 0.930 . S
C1462 H1456 0.930 . S
C1462 C1463 1.355 . S
C1462 C1464 1.415 . S
C1463 C1462 1.355 . S
C1463 C1465 1.419 . S
C1464 C1462 1.415 . S
C1464 C1469 1.425 . S
C1464 C1471 1.409 . S
C1465 H1457 0.930 . S
C1465 C1463 1.419 . S
C1465 C1466 1.362 . S
C1466 H1458 0.930 . S
C1466 C1465 1.362 . S
C1466 C1469 1.409 . S
C1467 H1459 0.930 . S
C1467 C1468 1.355 . S
C1467 C1469 1.415 . S
C1468 C1467 1.355 . S
C1468 C1470 1.419 . S
C1469 C1464 1.425 . S
C1469 C1466 1.409 . S
C1469 C1467 1.415 . S
C1470 H1460 0.930 . S
C1470 C1468 1.419 . S
C1470 C1471 1.362 . S
C1471 H1461 0.930 . S
C1471 C1464 1.409 . S
C1471 C1470 1.362 . S
C455 C46 0.876 . S
C460 C4 0.904 . S
C471 C32 0.862 . S
C476 C18 0.910 . S
C487 C102 0.912 . S
C492 C60 0.831 . S
C503 C88 0.837 . S
C508 C74 0.823 . S
C519 C116 0.807 . S
C524 C158 0.868 . S
C535 C130 0.909 . S
C540 C144 0.825 . S
C551 C214 0.913 . S
C556 C172 0.842 . S
C567 C186 0.842 . S
C572 C200 0.819 . S
C583 C228 0.911 . S
C588 C270 0.857 . S
C599 C242 0.912 . S
C604 C256 0.831 . S
C615 C326 0.809 . S
C620 C284 0.860 . S
C631 C312 0.895 . S
C636 C298 0.888 . S
C647 C382 0.885 . S
C652 C340 0.898 . S
C663 C354 0.811 . S
C668 C368 0.898 . S
C679 C396 0.817 . S
C684 C438 0.845 . S
C695 C410 0.911 . S
C700 C424 0.859 . S
C711 C285 1.460 . S
C716 C5 1.460 . S
C727 C187 1.414 . S
C732 C19 1.414 . S
C743 C33 1.414 . S
C748 C425 1.414 . S
C759 C47 1.469 . S
C764 C103 1.469 . S
C775 C229 1.472 . S
C780 C61 1.472 . S
C791 C131 1.463 . S
C796 C75 1.463 . S
C807 C369 1.472 . S
C812 C89 1.472 . S
C823 C117 1.451 . S
C828 C397 1.451 . S
C839 C313 1.439 . S
C844 C145 1.439 . S
C855 C215 1.414 . S
C860 C159 1.414 . S
C871 C341 1.427 . S
C876 C173 1.427 . S
C887 C201 1.470 . S
C892 C257 1.470 . S
C903 C411 1.427 . S
C908 C243 1.427 . S
C919 C271 1.417 . S
C924 C327 1.417 . S
C935 C355 1.437 . S
C940 C299 1.437 . S
C951 C439 1.446 . S
C956 C383 1.446 . S
C967 C26 1.338 . S
C972 C12 1.361 . S
C983 C40 1.343 . S
C988 C54 1.320 . S
C999 C68 1.343 . S
C1004 C82 1.320 . S
C1015 C110 1.361 . S
C1020 C96 1.374 . S
C1031 C124 1.375 . S
C1036 C138 1.363 . S
C1047 C152 1.348 . S
C1052 C166 1.368 . S
C1063 C194 1.370 . S
C1068 C180 1.375 . S
C1079 C208 1.338 . S
C1084 C222 1.361 . S
C1095 C236 1.373 . S
C1100 C250 1.357 . S
C1111 C264 1.321 . S
C1116 C278 1.309 . S
C1127 C292 1.375 . S
C1132 C306 1.370 . S
C1143 C334 1.355 . S
C1148 C320 1.331 . S
C1159 C362 1.329 . S
C1164 C348 1.312 . S
C1175 C376 1.363 . S
C1180 C390 1.340 . S
C1191 C404 1.351 . S
C1196 C418 1.327 . S
C1207 C446 1.323 . S
C1212 C432 1.310 . S
C1223 C11 1.446 . S
C1228 C277 1.497 . S
C1239 C25 1.451 . S
C1244 C263 1.491 . S
C1255 C249 1.470 . S
C1260 C39 1.473 . S
C1271 C53 1.479 . S
C1276 C235 1.463 . S
C1287 C333 1.479 . S
C1292 C67 1.463 . S
C1303 C81 1.495 . S
C1308 C319 1.448 . S
C1319 C305 1.488 . S
C1324 C95 1.454 . S
C1335 C109 1.485 . S
C1340 C291 1.457 . S
C1351 C123 1.472 . S
C1356 C389 1.469 . S
C1367 C137 1.484 . S
C1372 C375 1.457 . S
C1383 C151 1.453 . S
C1388 C361 1.489 . S
C1399 C347 1.471 . S
C1404 C165 1.471 . S
C1415 C179 1.490 . S
C1420 C445 1.452 . S
C1431 C193 1.481 . S
C1436 C431 1.461 . S
C1447 C207 1.445 . S
C1452 C417 1.497 . S
C1463 C403 1.492 . S
C1468 C221 1.450 . S
