# Generated by pormake.
# Topology wio, (6)-cn, num edge types: 1
# Building blocks:
#     Node 0, Type 0, BuildingBlock: CUWYAW_clean_sbu_0, # of connection points: 6
#     Node 1, Type 0, BuildingBlock: CUWYAW_clean_sbu_0, # of connection points: 6
#     Node 2, Type 0, BuildingBlock: CUWYAW_clean_sbu_0, # of connection points: 6
#     Node 3, Type 0, BuildingBlock: CUWYAW_clean_sbu_0, # of connection points: 6
#     Node 4, Type 0, BuildingBlock: CUWYAW_clean_sbu_0, # of connection points: 6
#     Node 5, Type 0, BuildingBlock: CUWYAW_clean_sbu_0, # of connection points: 6
#     Node 6, Type 0, BuildingBlock: CUWYAW_clean_sbu_0, # of connection points: 6
#     Node 7, Type 0, BuildingBlock: CUWYAW_clean_sbu_0, # of connection points: 6
#     Node 8, Type 0, BuildingBlock: CUWYAW_clean_sbu_0, # of connection points: 6
#     Node 9, Type 0, BuildingBlock: CUWYAW_clean_sbu_0, # of connection points: 6
#     Node 10, Type 0, BuildingBlock: CUWYAW_clean_sbu_0, # of connection points: 6
#     Node 11, Type 0, BuildingBlock: CUWYAW_clean_sbu_0, # of connection points: 6
#     Node 12, Type 0, BuildingBlock: CUWYAW_clean_sbu_0, # of connection points: 6
#     Node 13, Type 0, BuildingBlock: CUWYAW_clean_sbu_0, # of connection points: 6
#     Node 14, Type 0, BuildingBlock: CUWYAW_clean_sbu_0, # of connection points: 6
#     Node 15, Type 0, BuildingBlock: CUWYAW_clean_sbu_0, # of connection points: 6
#     Node 16, Type 0, BuildingBlock: CUWYAW_clean_sbu_0, # of connection points: 6
#     Node 17, Type 0, BuildingBlock: CUWYAW_clean_sbu_0, # of connection points: 6
#     Node 18, Type 0, BuildingBlock: CUWYAW_clean_sbu_0, # of connection points: 6
#     Node 19, Type 0, BuildingBlock: CUWYAW_clean_sbu_0, # of connection points: 6
#     Node 20, Type 0, BuildingBlock: CUWYAW_clean_sbu_0, # of connection points: 6
#     Node 21, Type 0, BuildingBlock: CUWYAW_clean_sbu_0, # of connection points: 6
#     Node 22, Type 0, BuildingBlock: CUWYAW_clean_sbu_0, # of connection points: 6
#     Node 23, Type 0, BuildingBlock: CUWYAW_clean_sbu_0, # of connection points: 6
#     Node 24, Type 0, BuildingBlock: CUWYAW_clean_sbu_0, # of connection points: 6
#     Node 25, Type 0, BuildingBlock: CUWYAW_clean_sbu_0, # of connection points: 6
#     Node 26, Type 0, BuildingBlock: CUWYAW_clean_sbu_0, # of connection points: 6
#     Node 27, Type 0, BuildingBlock: CUWYAW_clean_sbu_0, # of connection points: 6
#     Node 28, Type 0, BuildingBlock: CUWYAW_clean_sbu_0, # of connection points: 6
#     Node 29, Type 0, BuildingBlock: CUWYAW_clean_sbu_0, # of connection points: 6
#     Node 30, Type 0, BuildingBlock: CUWYAW_clean_sbu_0, # of connection points: 6
#     Node 31, Type 0, BuildingBlock: CUWYAW_clean_sbu_0, # of connection points: 6
#     Edge 32, Type (0, 0), BuildingBlock: KIFKEQ_clean_linker_1, # of connection points: 2
#     Edge 33, Type (0, 0), BuildingBlock: KIFKEQ_clean_linker_1, # of connection points: 2
#     Edge 34, Type (0, 0), BuildingBlock: KIFKEQ_clean_linker_1, # of connection points: 2
#     Edge 35, Type (0, 0), BuildingBlock: KIFKEQ_clean_linker_1, # of connection points: 2
#     Edge 36, Type (0, 0), BuildingBlock: KIFKEQ_clean_linker_1, # of connection points: 2
#     Edge 37, Type (0, 0), BuildingBlock: KIFKEQ_clean_linker_1, # of connection points: 2
#     Edge 38, Type (0, 0), BuildingBlock: KIFKEQ_clean_linker_1, # of connection points: 2
#     Edge 39, Type (0, 0), BuildingBlock: KIFKEQ_clean_linker_1, # of connection points: 2
#     Edge 40, Type (0, 0), BuildingBlock: KIFKEQ_clean_linker_1, # of connection points: 2
#     Edge 41, Type (0, 0), BuildingBlock: KIFKEQ_clean_linker_1, # of connection points: 2
#     Edge 42, Type (0, 0), BuildingBlock: KIFKEQ_clean_linker_1, # of connection points: 2
#     Edge 43, Type (0, 0), BuildingBlock: KIFKEQ_clean_linker_1, # of connection points: 2
#     Edge 44, Type (0, 0), BuildingBlock: KIFKEQ_clean_linker_1, # of connection points: 2
#     Edge 45, Type (0, 0), BuildingBlock: KIFKEQ_clean_linker_1, # of connection points: 2
#     Edge 46, Type (0, 0), BuildingBlock: KIFKEQ_clean_linker_1, # of connection points: 2
#     Edge 47, Type (0, 0), BuildingBlock: KIFKEQ_clean_linker_1, # of connection points: 2
#     Edge 48, Type (0, 0), BuildingBlock: KIFKEQ_clean_linker_1, # of connection points: 2
#     Edge 49, Type (0, 0), BuildingBlock: KIFKEQ_clean_linker_1, # of connection points: 2
#     Edge 50, Type (0, 0), BuildingBlock: KIFKEQ_clean_linker_1, # of connection points: 2
#     Edge 51, Type (0, 0), BuildingBlock: KIFKEQ_clean_linker_1, # of connection points: 2
#     Edge 52, Type (0, 0), BuildingBlock: KIFKEQ_clean_linker_1, # of connection points: 2
#     Edge 53, Type (0, 0), BuildingBlock: KIFKEQ_clean_linker_1, # of connection points: 2
#     Edge 54, Type (0, 0), BuildingBlock: KIFKEQ_clean_linker_1, # of connection points: 2
#     Edge 55, Type (0, 0), BuildingBlock: KIFKEQ_clean_linker_1, # of connection points: 2
#     Edge 56, Type (0, 0), BuildingBlock: KIFKEQ_clean_linker_1, # of connection points: 2
#     Edge 57, Type (0, 0), BuildingBlock: KIFKEQ_clean_linker_1, # of connection points: 2
#     Edge 58, Type (0, 0), BuildingBlock: KIFKEQ_clean_linker_1, # of connection points: 2
#     Edge 59, Type (0, 0), BuildingBlock: KIFKEQ_clean_linker_1, # of connection points: 2
#     Edge 60, Type (0, 0), BuildingBlock: KIFKEQ_clean_linker_1, # of connection points: 2
#     Edge 61, Type (0, 0), BuildingBlock: KIFKEQ_clean_linker_1, # of connection points: 2
#     Edge 62, Type (0, 0), BuildingBlock: KIFKEQ_clean_linker_1, # of connection points: 2
#     Edge 63, Type (0, 0), BuildingBlock: KIFKEQ_clean_linker_1, # of connection points: 2
#     Edge 64, Type (0, 0), BuildingBlock: KIFKEQ_clean_linker_1, # of connection points: 2
#     Edge 65, Type (0, 0), BuildingBlock: KIFKEQ_clean_linker_1, # of connection points: 2
#     Edge 66, Type (0, 0), BuildingBlock: KIFKEQ_clean_linker_1, # of connection points: 2
#     Edge 67, Type (0, 0), BuildingBlock: KIFKEQ_clean_linker_1, # of connection points: 2
#     Edge 68, Type (0, 0), BuildingBlock: KIFKEQ_clean_linker_1, # of connection points: 2
#     Edge 69, Type (0, 0), BuildingBlock: KIFKEQ_clean_linker_1, # of connection points: 2
#     Edge 70, Type (0, 0), BuildingBlock: KIFKEQ_clean_linker_1, # of connection points: 2
#     Edge 71, Type (0, 0), BuildingBlock: KIFKEQ_clean_linker_1, # of connection points: 2
#     Edge 72, Type (0, 0), BuildingBlock: KIFKEQ_clean_linker_1, # of connection points: 2
#     Edge 73, Type (0, 0), BuildingBlock: KIFKEQ_clean_linker_1, # of connection points: 2
#     Edge 74, Type (0, 0), BuildingBlock: KIFKEQ_clean_linker_1, # of connection points: 2
#     Edge 75, Type (0, 0), BuildingBlock: KIFKEQ_clean_linker_1, # of connection points: 2
#     Edge 76, Type (0, 0), BuildingBlock: KIFKEQ_clean_linker_1, # of connection points: 2
#     Edge 77, Type (0, 0), BuildingBlock: KIFKEQ_clean_linker_1, # of connection points: 2
#     Edge 78, Type (0, 0), BuildingBlock: KIFKEQ_clean_linker_1, # of connection points: 2
#     Edge 79, Type (0, 0), BuildingBlock: KIFKEQ_clean_linker_1, # of connection points: 2
#     Edge 80, Type (0, 0), BuildingBlock: KIFKEQ_clean_linker_1, # of connection points: 2
#     Edge 81, Type (0, 0), BuildingBlock: KIFKEQ_clean_linker_1, # of connection points: 2
#     Edge 82, Type (0, 0), BuildingBlock: KIFKEQ_clean_linker_1, # of connection points: 2
#     Edge 83, Type (0, 0), BuildingBlock: KIFKEQ_clean_linker_1, # of connection points: 2
#     Edge 84, Type (0, 0), BuildingBlock: KIFKEQ_clean_linker_1, # of connection points: 2
#     Edge 85, Type (0, 0), BuildingBlock: KIFKEQ_clean_linker_1, # of connection points: 2
#     Edge 86, Type (0, 0), BuildingBlock: KIFKEQ_clean_linker_1, # of connection points: 2
#     Edge 87, Type (0, 0), BuildingBlock: KIFKEQ_clean_linker_1, # of connection points: 2
#     Edge 88, Type (0, 0), BuildingBlock: KIFKEQ_clean_linker_1, # of connection points: 2
#     Edge 89, Type (0, 0), BuildingBlock: KIFKEQ_clean_linker_1, # of connection points: 2
#     Edge 90, Type (0, 0), BuildingBlock: KIFKEQ_clean_linker_1, # of connection points: 2
#     Edge 91, Type (0, 0), BuildingBlock: KIFKEQ_clean_linker_1, # of connection points: 2
#     Edge 92, Type (0, 0), BuildingBlock: KIFKEQ_clean_linker_1, # of connection points: 2
#     Edge 93, Type (0, 0), BuildingBlock: KIFKEQ_clean_linker_1, # of connection points: 2
#     Edge 94, Type (0, 0), BuildingBlock: KIFKEQ_clean_linker_1, # of connection points: 2
#     Edge 95, Type (0, 0), BuildingBlock: KIFKEQ_clean_linker_1, # of connection points: 2
#     Edge 96, Type (0, 0), BuildingBlock: KIFKEQ_clean_linker_1, # of connection points: 2
#     Edge 97, Type (0, 0), BuildingBlock: KIFKEQ_clean_linker_1, # of connection points: 2
#     Edge 98, Type (0, 0), BuildingBlock: KIFKEQ_clean_linker_1, # of connection points: 2
#     Edge 99, Type (0, 0), BuildingBlock: KIFKEQ_clean_linker_1, # of connection points: 2
#     Edge 100, Type (0, 0), BuildingBlock: KIFKEQ_clean_linker_1, # of connection points: 2
#     Edge 101, Type (0, 0), BuildingBlock: KIFKEQ_clean_linker_1, # of connection points: 2
#     Edge 102, Type (0, 0), BuildingBlock: KIFKEQ_clean_linker_1, # of connection points: 2
#     Edge 103, Type (0, 0), BuildingBlock: KIFKEQ_clean_linker_1, # of connection points: 2
#     Edge 104, Type (0, 0), BuildingBlock: KIFKEQ_clean_linker_1, # of connection points: 2
#     Edge 105, Type (0, 0), BuildingBlock: KIFKEQ_clean_linker_1, # of connection points: 2
#     Edge 106, Type (0, 0), BuildingBlock: KIFKEQ_clean_linker_1, # of connection points: 2
#     Edge 107, Type (0, 0), BuildingBlock: KIFKEQ_clean_linker_1, # of connection points: 2
#     Edge 108, Type (0, 0), BuildingBlock: KIFKEQ_clean_linker_1, # of connection points: 2
#     Edge 109, Type (0, 0), BuildingBlock: KIFKEQ_clean_linker_1, # of connection points: 2
#     Edge 110, Type (0, 0), BuildingBlock: KIFKEQ_clean_linker_1, # of connection points: 2
#     Edge 111, Type (0, 0), BuildingBlock: KIFKEQ_clean_linker_1, # of connection points: 2
#     Edge 112, Type (0, 0), BuildingBlock: KIFKEQ_clean_linker_1, # of connection points: 2
#     Edge 113, Type (0, 0), BuildingBlock: KIFKEQ_clean_linker_1, # of connection points: 2
#     Edge 114, Type (0, 0), BuildingBlock: KIFKEQ_clean_linker_1, # of connection points: 2
#     Edge 115, Type (0, 0), BuildingBlock: KIFKEQ_clean_linker_1, # of connection points: 2
#     Edge 116, Type (0, 0), BuildingBlock: KIFKEQ_clean_linker_1, # of connection points: 2
#     Edge 117, Type (0, 0), BuildingBlock: KIFKEQ_clean_linker_1, # of connection points: 2
#     Edge 118, Type (0, 0), BuildingBlock: KIFKEQ_clean_linker_1, # of connection points: 2
#     Edge 119, Type (0, 0), BuildingBlock: KIFKEQ_clean_linker_1, # of connection points: 2
#     Edge 120, Type (0, 0), BuildingBlock: KIFKEQ_clean_linker_1, # of connection points: 2
#     Edge 121, Type (0, 0), BuildingBlock: KIFKEQ_clean_linker_1, # of connection points: 2
#     Edge 122, Type (0, 0), BuildingBlock: KIFKEQ_clean_linker_1, # of connection points: 2
#     Edge 123, Type (0, 0), BuildingBlock: KIFKEQ_clean_linker_1, # of connection points: 2
#     Edge 124, Type (0, 0), BuildingBlock: KIFKEQ_clean_linker_1, # of connection points: 2
#     Edge 125, Type (0, 0), BuildingBlock: KIFKEQ_clean_linker_1, # of connection points: 2
#     Edge 126, Type (0, 0), BuildingBlock: KIFKEQ_clean_linker_1, # of connection points: 2
#     Edge 127, Type (0, 0), BuildingBlock: KIFKEQ_clean_linker_1, # of connection points: 2
# Relax obj value: 0.183
# Max RMSD: 0.229
# Mean RMSD: 0.229
data_MOF--net-wio--node1-CUWYAW_clean_sbu_0--edge1-KIFKEQ_clean_linker_1
_symmetry_space_group_name_H-M    P1
_symmetry_Int_Tables_number       1
_symmetry_cell_setting            triclinic
loop_
_symmetry_equiv_pos_as_xyz
'x, y, z'
_cell_length_a     63.893797
_cell_length_b     63.895789
_cell_length_c     54.389138
_cell_angle_alpha  90.043546
_cell_angle_beta   90.000286
_cell_angle_gamma 90.02659
loop_
_atom_site_label
_atom_site_type_symbol
_atom_site_fract_x
_atom_site_fract_y
_atom_site_fract_z
_atom_type_partial_charge
C0 C 0.07204 0.14105 0.31522 0.0
Eu1 Eu 0.1067 0.12527 0.29732 0.0
C2 C 0.05554 0.13866 0.33417 0.0
C3 C 0.03538 0.14609 0.32897 0.0
C4 C 0.01946 0.14496 0.34659 0.0
C5 C 0.02322 0.13628 0.36997 0.0
C6 C 0.04354 0.12888 0.37522 0.0
C7 C 0.05955 0.13003 0.35748 0.0
C8 C 0.11372 0.08625 0.27858 0.0
C9 C 0.13345 0.09979 0.33995 0.0
C10 C 0.18918 0.10305 0.27311 0.0
Eu11 Eu 0.15267 0.11561 0.2889 0.0
C12 C 0.20512 0.10743 0.25405 0.0
C13 C 0.21252 0.12779 0.24953 0.0
C14 C 0.2289 0.13117 0.23284 0.0
C15 C 0.23821 0.11426 0.22032 0.0
C16 C 0.2303 0.09399 0.22445 0.0
C17 C 0.214 0.09063 0.24115 0.0
C18 C 0.1454 0.15241 0.31225 0.0
C19 C 0.1251 0.13461 0.2432 0.0
O20 O 0.09077 0.14654 0.32253 0.0
O21 O 0.07248 0.12748 0.29721 0.0
O22 O 0.09709 0.09728 0.27395 0.0
O23 O 0.12479 0.09576 0.29411 0.0
O24 O 0.1164 0.11081 0.33451 0.0
O25 O 0.14863 0.09725 0.32373 0.0
O26 O 0.1715 0.09471 0.2659 0.0
O27 O 0.18666 0.11701 0.29045 0.0
O28 O 0.16108 0.14017 0.3167 0.0
O29 O 0.13482 0.14549 0.29424 0.0
O30 O 0.14223 0.12512 0.25088 0.0
O31 O 0.10946 0.13876 0.2585 0.0
H32 H 0.03197 0.15301 0.31124 0.0
H33 H 1.0042 0.15116 0.34192 0.0
H34 H 0.04701 0.12191 0.39289 0.0
H35 H 0.075 0.12422 0.36197 0.0
H36 H 0.20594 0.14107 0.25922 0.0
H37 H 0.23464 0.14696 0.23026 0.0
H38 H 0.23673 0.08064 0.21478 0.0
H39 H 0.20854 0.0748 0.24429 0.0
C40 C 0.12394 0.82064 0.56482 0.0
Eu41 Eu 0.13909 0.85532 0.54629 0.0
C42 C 0.12633 0.80449 0.58413 0.0
C43 C 0.11901 0.78422 0.57926 0.0
C44 C 0.1202 0.76856 0.59716 0.0
C45 C 0.12881 0.77271 0.6205 0.0
C46 C 0.13606 0.79316 0.62543 0.0
C47 C 0.13485 0.8089 0.6074 0.0
C48 C 0.17772 0.86277 0.52664 0.0
C49 C 0.16456 0.88306 0.58784 0.0
C50 C 0.15968 0.93772 0.52004 0.0
Eu51 Eu 0.14768 0.9013 0.53657 0.0
C52 C 0.15476 0.95342 0.50097 0.0
C53 C 0.13411 0.95979 0.49603 0.0
C54 C 0.13016 0.97574 0.47895 0.0
C55 C 0.14677 0.9855 0.46638 0.0
C56 C 0.16735 0.97883 0.4712 0.0
C57 C 0.17128 0.963 0.4883 0.0
C58 C 0.11149 0.89377 0.56102 0.0
C59 C 0.12817 0.8727 0.49202 0.0
O60 O 0.11795 0.83936 0.57159 0.0
O61 O 0.13778 0.82108 0.54711 0.0
O62 O 0.16694 0.84584 0.52268 0.0
O63 O 0.16818 0.87395 0.54203 0.0
O64 O 0.15356 0.86587 0.58304 0.0
O65 O 0.16673 0.89796 0.57116 0.0
O66 O 0.1679 0.92002 0.51271 0.0
O67 O 0.14612 0.93528 0.53783 0.0
O68 O 0.12352 0.90976 0.56479 0.0
O69 O 0.11825 0.88298 0.54308 0.0
O70 O 0.13667 0.89058 0.49901 0.0
O71 O 0.12556 0.85694 0.50755 0.0
H72 H 0.11217 0.78051 0.56156 0.0
H73 H 0.11411 0.75319 0.59274 0.0
H74 H 0.14296 0.79691 0.64307 0.0
H75 H 0.14055 0.82446 0.61162 0.0
H76 H 0.12106 0.9526 0.50553 0.0
H77 H 0.11413 0.98035 0.47548 0.0
H78 H 0.18054 0.98617 0.46213 0.0
H79 H 0.18732 0.95846 0.49194 0.0
C80 C 0.44218 0.87398 0.81435 0.0
Eu81 Eu 0.40715 0.88882 0.79629 0.0
C82 C 0.45659 0.87529 0.83557 0.0
C83 C 0.45442 0.89065 0.85386 0.0
C84 C 0.46889 0.89183 0.87328 0.0
C85 C 0.48582 0.87769 0.87479 0.0
C86 C 0.4876 0.86215 0.85652 0.0
C87 C 0.47315 0.86098 0.83721 0.0
C88 C 0.39945 0.92738 0.7767 0.0
C89 C 0.37938 0.91358 0.83806 0.0
C90 C 0.32459 0.9095 0.77064 0.0
Eu91 Eu 0.36116 0.89731 0.78656 0.0
C92 C 0.30764 0.90392 0.75341 0.0
C93 C 0.28689 0.90767 0.76052 0.0
C94 C 0.27038 0.90357 0.74439 0.0
C95 C 0.27422 0.89566 0.72067 0.0
C96 C 0.29506 0.89141 0.71377 0.0
C97 C 0.31164 0.89551 0.73 0.0
C98 C 0.36866 0.86084 0.8104 0.0
C99 C 0.39002 0.8785 0.74177 0.0
O100 O 0.42385 0.86546 0.81813 0.0
O101 O 0.44119 0.89019 0.79975 0.0
O102 O 0.41624 0.91652 0.77227 0.0
O103 O 0.38842 0.91788 0.79226 0.0
O104 O 0.39627 0.90212 0.83346 0.0
O105 O 0.3649 0.91648 0.82102 0.0
O106 O 0.34236 0.91604 0.76137 0.0
O107 O 0.32712 0.8973 0.78967 0.0
O108 O 0.35252 0.87266 0.81408 0.0
O109 O 0.37953 0.86789 0.79272 0.0
O110 O 0.37193 0.88644 0.74894 0.0
O111 O 0.40592 0.87615 0.75718 0.0
H112 H 0.44169 0.9018 0.853 0.0
H113 H 0.46679 0.90385 0.8871 0.0
H114 H 0.50052 0.8512 0.85669 0.0
H115 H 0.47513 0.84903 0.82326 0.0
H116 H 0.28346 0.91404 0.77855 0.0
H117 H 0.25455 0.90668 0.75051 0.0
H118 H 0.29862 0.88546 0.69559 0.0
H119 H 0.32755 0.89241 0.72414 0.0
C120 C 0.38842 0.19091 0.06542 0.0
Eu121 Eu 0.37347 0.156 0.04712 0.0
C122 C 0.38725 0.20527 0.0867 0.0
C123 C 0.37307 0.20214 0.10605 0.0
C124 C 0.37209 0.21647 0.12565 0.0
C125 C 0.38529 0.2342 0.12626 0.0
C126 C 0.39964 0.23698 0.10687 0.0
C127 C 0.40059 0.22268 0.08739 0.0
C128 C 0.335 0.14845 0.02722 0.0
C129 C 0.34848 0.12803 0.08867 0.0
C130 C 0.35265 0.07374 1.02047 0.0
Eu131 Eu 0.36492 0.11005 0.03713 0.0
C132 C 0.35749 0.05763 1.00181 0.0
C133 C 0.378 0.0504 0.99781 0.0
C134 C 0.38175 0.03379 0.98152 0.0
C135 C 0.36509 0.0241 0.96894 0.0
C136 C 0.3447 0.03186 0.97252 0.0
C137 C 0.34096 0.04838 0.9888 0.0
C138 C 0.40115 0.1175 0.06152 0.0
C139 C 0.38403 0.13902 0.99258 0.0
O140 O 0.39687 0.17254 0.06909 0.0
O141 O 0.37217 0.19003 0.05086 0.0
O142 O 0.34596 0.16519 1.02289 0.0
O143 O 0.34439 0.13735 0.04282 0.0
O144 O 0.35977 0.14506 0.08409 0.0
O145 O 0.34587 0.11342 0.07171 0.0
O146 O 0.34496 0.09153 1.01269 0.0
O147 O 0.3659 0.07606 0.0386 0.0
O148 O 0.38919 0.10143 0.06516 0.0
O149 O 0.39432 0.12835 0.0437 0.0
O150 O 0.37606 0.12091 0.99965 0.0
O151 O 0.38627 0.1549 1.00806 0.0
H152 H 0.36268 0.18874 0.10592 0.0
H153 H 0.361 0.21362 0.14032 0.0
H154 H 0.4098 0.25053 0.10634 0.0
H155 H 0.41164 0.22539 0.07261 0.0
H156 H 0.39106 0.05728 1.00761 0.0
H157 H 0.39763 0.02818 0.97931 0.0
H158 H 0.33154 0.02512 0.96277 0.0
H159 H 0.32504 0.05372 0.99155 0.0
C160 C 0.07027 0.87502 0.23399 0.0
Eu161 Eu 0.10524 0.88963 0.25256 0.0
C162 C 0.05588 0.87639 0.21276 0.0
C163 C 0.05834 0.89147 0.19424 0.0
C164 C 0.04391 0.89264 0.17477 0.0
C165 C 0.02673 0.87876 0.17345 0.0
C166 C 0.02464 0.86353 0.19199 0.0
C167 C 0.03904 0.86237 0.21135 0.0
C168 C 0.11289 0.92799 0.27276 0.0
C169 C 0.13353 0.91466 0.21132 0.0
C170 C 0.18739 0.9101 0.28005 0.0
Eu171 Eu 0.15119 0.898 0.2629 0.0
C172 C 0.20298 0.90519 0.29928 0.0
C173 C 0.21055 0.88476 0.30297 0.0
C174 C 0.22642 0.88095 0.3202 0.0
C175 C 0.23492 0.89746 0.33415 0.0
C176 C 0.22702 0.91779 0.33061 0.0
C177 C 0.21128 0.9216 0.31336 0.0
C178 C 0.14391 0.86201 0.23799 0.0
C179 C 0.122 0.8787 0.3071 0.0
O180 O 0.08861 0.86653 0.23022 0.0
O181 O 0.07123 0.89114 0.24876 0.0
O182 O 0.09606 0.91711 0.27693 0.0
O183 O 0.12399 0.91861 0.25716 0.0
O184 O 0.11642 0.90344 0.21575 0.0
O185 O 0.1481 0.91712 0.22835 0.0
O186 O 0.16957 0.91817 0.28722 0.0
O187 O 0.1852 0.89667 0.26206 0.0
O188 O 0.16004 0.87397 0.23476 0.0
O189 O 0.13286 0.86868 0.25577 0.0
O190 O 0.14015 0.88665 0.30018 0.0
O191 O 0.10616 0.87661 0.29154 0.0
H192 H 0.07128 0.9024 0.19493 0.0
H193 H 0.04624 0.90443 0.16074 0.0
H194 H 0.01152 0.8528 0.19199 0.0
H195 H 0.03683 0.85063 0.22548 0.0
H196 H 0.20439 0.87179 0.29239 0.0
H197 H 0.23199 0.86508 0.32266 0.0
H198 H 0.23338 0.93092 0.34078 0.0
H199 H 0.20581 0.93749 0.31071 0.0
C200 C 0.3906 0.82232 0.48367 0.0
Eu201 Eu 0.37484 0.85667 0.5023 0.0
C202 C 0.38845 0.80602 0.46448 0.0
C203 C 0.39547 0.78574 0.46978 0.0
C204 C 0.39455 0.76995 0.452 0.0
C205 C 0.38651 0.77398 0.42837 0.0
C206 C 0.37956 0.79443 0.42301 0.0
C207 C 0.3805 0.81031 0.44092 0.0
C208 C 0.33604 0.86356 0.52175 0.0
C209 C 0.34924 0.88434 0.46095 0.0
C210 C 0.35295 0.93862 0.52927 0.0
Eu211 Eu 0.36576 0.90254 0.51253 0.0
C212 C 0.35761 0.95477 0.54794 0.0
C213 C 0.3781 0.96192 0.55228 0.0
C214 C 0.38173 0.97854 0.56858 0.0
C215 C 0.36495 0.98832 0.58085 0.0
C216 C 0.34457 0.98063 0.57693 0.0
C217 C 0.34096 0.9641 0.56063 0.0
C218 C 0.40225 0.89553 0.48845 0.0
C219 C 0.3853 0.87383 0.55684 0.0
O220 O 0.39611 0.84115 0.47676 0.0
O221 O 0.37691 0.82247 0.50154 0.0
O222 O 0.34691 0.84666 0.52548 0.0
O223 O 0.34558 0.87498 0.50661 0.0
O224 O 0.3603 0.86717 0.46559 0.0
O225 O 0.34696 0.89911 0.47779 0.0
O226 O 0.34556 0.92069 0.53705 0.0
O227 O 0.3662 0.93654 0.5111 0.0
O228 O 0.39025 0.91157 0.4849 0.0
O229 O 0.39535 0.88452 0.50609 0.0
O230 O 0.37676 0.89172 0.55 0.0
O231 O 0.38808 0.85819 0.54116 0.0
H232 H 0.40188 0.78212 0.48773 0.0
H233 H 0.40038 0.75456 0.45676 0.0
H234 H 0.37309 0.79809 0.40512 0.0
H235 H 0.37504 0.82588 0.43636 0.0
H236 H 0.39125 0.95496 0.54272 0.0
H237 H 0.39761 0.98409 0.57105 0.0
H238 H 0.33132 0.98744 0.58643 0.0
H239 H 0.32505 0.95881 0.55761 0.0
C240 C 0.44233 0.13868 0.73477 0.0
Eu241 Eu 0.40722 0.12408 0.75295 0.0
C242 C 0.45681 0.13729 0.71362 0.0
C243 C 0.45399 0.12266 0.69464 0.0
C244 C 0.46842 0.12151 0.67517 0.0
C245 C 0.48595 0.13497 0.6743 0.0
C246 C 0.48842 0.14974 0.69331 0.0
C247 C 0.47402 0.15087 0.71267 0.0
C248 C 0.39936 0.08559 0.77262 0.0
C249 C 0.37916 0.09941 0.71116 0.0
C250 C 0.32477 0.10391 0.77928 0.0
Eu251 Eu 0.36122 0.1158 0.7627 0.0
C252 C 0.30912 0.1088 0.79845 0.0
C253 C 0.30234 0.12938 0.80301 0.0
C254 C 0.28643 0.13326 0.82019 0.0
C255 C 0.27712 0.11666 0.83322 0.0
C256 C 0.28421 0.09615 0.82878 0.0
C257 C 0.29999 0.09229 0.81158 0.0
C258 C 0.36883 0.15195 0.73832 0.0
C259 C 0.39017 0.13457 0.80746 0.0
O260 O 0.42403 0.14721 0.7309 0.0
O261 O 0.44126 0.12254 0.74948 0.0
O262 O 0.41615 0.09644 0.77712 0.0
O263 O 0.38838 0.0951 0.75701 0.0
O264 O 0.39629 0.11051 0.71591 0.0
O265 O 0.36444 0.09691 0.72798 0.0
O266 O 0.34245 0.09556 0.78648 0.0
O267 O 0.32724 0.11752 0.76157 0.0
O268 O 0.35276 0.14 0.73464 0.0
O269 O 0.37968 0.14514 0.75618 0.0
O270 O 0.37207 0.12669 0.80027 0.0
O271 O 0.4061 0.13682 0.79206 0.0
H272 H 0.44075 0.11208 0.69496 0.0
H273 H 0.46581 0.11009 0.66078 0.0
H274 H 0.50181 0.16013 0.69365 0.0
H275 H 0.4765 0.16226 0.72716 0.0
H276 H 0.30916 0.14244 0.79316 0.0
H277 H 0.2815 0.14925 0.82336 0.0
H278 H 0.27722 0.08296 0.83821 0.0
H279 H 0.30485 0.07629 0.80823 0.0
C280 C 0.12266 0.19148 0.98497 0.0
Eu281 Eu 0.13799 0.1566 1.0029 0.0
C282 C 0.12444 0.20636 0.96424 0.0
C283 C 0.14018 0.20459 0.94636 0.0
C284 C 0.14159 0.21929 0.9272 0.0
C285 C 0.12727 0.23607 0.92552 0.0
C286 C 0.1114 0.2375 0.94343 0.0
C287 C 0.11002 0.22283 0.96249 0.0
C288 C 0.17676 0.14909 1.02199 0.0
C289 C 0.16321 0.12956 0.96034 0.0
C290 C 0.15945 0.07394 0.0272 0.0
Eu291 Eu 0.14724 0.11053 1.01137 0.0
C292 C 0.15491 0.05802 0.04622 0.0
C293 C 0.13458 0.05025 0.05013 0.0
C294 C 0.13112 0.03387 0.06678 0.0
C295 C 0.1479 0.02492 0.07986 0.0
C296 C 0.16811 0.0332 0.07636 0.0
C297 C 0.17156 0.0495 0.0597 0.0
C298 C 0.11073 0.11804 0.98764 0.0
C299 C 0.12854 0.13849 0.05711 0.0
O300 O 0.11505 0.17293 0.9801 0.0
O301 O 0.13815 0.19076 1.00067 0.0
O302 O 0.16577 0.16572 0.02687 0.0
O303 O 0.16729 0.13822 1.00623 0.0
O304 O 0.15204 0.14654 0.96562 0.0
O305 O 0.16586 0.11453 0.97672 0.0
O306 O 0.1679 0.09156 0.03445 0.0
O307 O 0.14558 0.07656 1.00979 0.0
O308 O 0.12291 0.10229 0.9833 0.0
O309 O 0.11754 0.12859 1.00575 0.0
O310 O 0.13749 0.12109 0.04931 0.0
O311 O 0.12489 0.15433 0.04194 0.0
H312 H 0.15142 0.19193 0.94729 0.0
H313 H 0.15388 0.21745 0.91367 0.0
H314 H 0.1003 0.25029 0.94313 0.0
H315 H 0.09775 0.2245 0.9761 0.0
H316 H 0.12142 0.05653 0.03998 0.0
H317 H 0.11538 0.02784 0.06889 0.0
H318 H 0.18135 0.02705 0.08646 0.0
H319 H 0.18736 0.05524 0.05703 0.0
C320 C 0.82321 0.90711 0.77382 0.0
Eu321 Eu 0.86036 0.8959 0.75866 0.0
C322 C 0.80791 0.90266 0.7936 0.0
C323 C 0.80109 0.8822 0.79881 0.0
C324 C 0.78552 0.87867 0.81651 0.0
C325 C 0.77655 0.8955 0.82946 0.0
C326 C 0.78367 0.9159 0.8244 0.0
C327 C 0.79912 0.91942 0.80666 0.0
C328 C 0.86883 0.85951 0.73529 0.0
C329 C 0.8879 0.87834 0.80546 0.0
C330 C 0.94246 0.87343 0.73509 0.0
Eu331 Eu 0.90658 0.88759 0.75167 0.0
C332 C 0.95726 0.87482 0.71422 0.0
C333 C 0.95475 0.88946 0.69521 0.0
C334 C 0.9694 0.89056 0.67596 0.0
C335 C 0.98687 0.87702 0.6753 0.0
C336 C 0.98906 0.86225 0.69435 0.0
C337 C 0.97444 0.86118 0.7135 0.0
C338 C 0.89757 0.92638 0.76999 0.0
C339 C 0.87977 0.91141 0.70775 0.0
O340 O 0.84038 0.917 0.77999 0.0
O341 O 0.82649 0.89243 0.75751 0.0
O342 O 0.85306 0.87151 0.73045 0.0
O343 O 0.87902 0.86644 0.75366 0.0
O344 O 0.87054 0.887 0.7971 0.0
O345 O 0.90401 0.8747 0.79069 0.0
O346 O 0.92446 0.86433 0.73096 0.0
O347 O 0.94068 0.88981 0.74936 0.0
O348 O 0.91384 0.91549 0.77652 0.0
O349 O 0.88767 0.91655 0.7537 0.0
O350 O 0.89687 0.90072 0.71381 0.0
O351 O 0.86429 0.91395 0.72359 0.0
H352 H 0.80762 0.86893 0.78907 0.0
H353 H 0.78058 0.86275 0.82014 0.0
H354 H 0.77694 0.92927 0.83376 0.0
H355 H 0.80397 0.93534 0.80284 0.0
H356 H 0.94155 0.90008 0.69533 0.0
H357 H 0.96698 0.90198 0.66154 0.0
H358 H 1.00239 0.85181 0.69485 0.0
H359 H 0.9767 0.84978 0.72799 0.0
C360 C 0.85276 0.07432 0.52971 0.0
Eu361 Eu 0.86517 0.11049 0.51277 0.0
C362 C 0.8578 0.05794 0.54791 0.0
C363 C 0.87853 0.05228 0.5534 0.0
C364 C 0.88266 0.03539 0.56914 0.0
C365 C 0.86613 0.02384 0.57963 0.0
C366 C 0.84543 0.03004 0.57458 0.0
C367 C 0.84134 0.04686 0.55888 0.0
C368 C 0.90131 0.1178 0.48823 0.0
C369 C 0.8843 0.13984 0.55693 0.0
C370 C 0.88803 0.19161 0.48365 0.0
Eu371 Eu 0.87347 0.15663 0.50227 0.0
C372 C 0.88652 0.20623 0.46264 0.0
C373 C 0.87146 0.20386 0.44404 0.0
C374 C 0.87021 0.21847 0.42476 0.0
C375 C 0.88398 0.23576 0.42369 0.0
C376 C 0.89917 0.23778 0.44232 0.0
C377 C 0.9004 0.2232 0.46149 0.0
C378 C 0.83514 0.14878 0.52248 0.0
C379 C 0.84831 0.12821 0.46121 0.0
O380 O 0.84571 0.09222 0.53801 0.0
O381 O 0.86558 0.0765 0.51113 0.0
O382 O 0.8896 0.10145 0.48523 0.0
O383 O 0.89439 0.12903 0.50572 0.0
O384 O 0.87649 0.12162 0.55001 0.0
O385 O 0.88637 0.15569 0.54138 0.0
O386 O 0.89631 0.17322 0.47953 0.0
O387 O 0.87214 0.19069 0.49876 0.0
O388 O 0.84588 0.16573 0.52653 0.0
O389 O 0.84465 0.13776 0.50692 0.0
O390 O 0.85947 0.14538 0.46553 0.0
O391 O 0.84596 0.11369 0.47831 0.0
H392 H 0.89151 0.06063 0.54515 0.0
H393 H 0.89878 0.03103 0.57255 0.0
H394 H 0.83232 0.02185 0.58272 0.0
H395 H 0.82524 0.05099 0.55495 0.0
H396 H 0.86063 0.19083 0.44451 0.0
H397 H 0.85846 0.21618 0.41067 0.0
H398 H 0.90981 0.25096 0.44253 0.0
H399 H 0.91211 0.22536 0.47568 0.0
C400 C 0.68878 0.10224 0.27674 0.0
Eu401 Eu 0.65225 0.11439 0.26061 0.0
C402 C 0.70427 0.10688 0.29625 0.0
C403 C 0.71213 0.12719 0.30009 0.0
C404 C 0.72783 0.13079 0.31761 0.0
C405 C 0.73588 0.1142 0.33173 0.0
C406 C 0.72772 0.09397 0.32803 0.0
C407 C 0.71215 0.09037 0.31047 0.0
C408 C 0.64501 0.15104 0.23715 0.0
C409 C 0.62431 0.1331 0.30634 0.0
C410 C 0.57135 0.13941 0.23415 0.0
Eu411 Eu 0.60622 0.124 0.25203 0.0
C412 C 0.55628 0.13762 0.21358 0.0
C413 C 0.55816 0.12218 0.19535 0.0
C414 C 0.5433 0.12078 0.17634 0.0
C415 C 0.52625 0.13481 0.17518 0.0
C416 C 0.52468 0.15036 0.19346 0.0
C417 C 0.53951 0.15173 0.21237 0.0
C418 C 0.61356 0.08527 0.27127 0.0
C419 C 0.63331 0.09858 0.2095 0.0
O420 O 0.67115 0.09353 0.28351 0.0
O421 O 0.68624 0.11622 0.25945 0.0
O422 O 0.66066 0.13876 0.2327 0.0
O423 O 0.63434 0.14422 0.25513 0.0
O424 O 0.64154 0.12379 0.2986 0.0
O425 O 0.60867 0.13724 0.29103 0.0
O426 O 0.58992 0.14685 0.22908 0.0
O427 O 0.57205 0.12402 0.24997 0.0
O428 O 0.597 0.09635 0.27614 0.0
O429 O 0.62436 0.09462 0.25539 0.0
O430 O 0.61645 0.11 0.21471 0.0
O431 O 0.64823 0.09572 0.22599 0.0
H432 H 0.70633 0.14027 0.28942 0.0
H433 H 0.73359 0.14659 0.32018 0.0
H434 H 0.73373 0.08077 0.33833 0.0
H435 H 0.70646 0.07456 0.30772 0.0
H436 H 0.57104 0.11117 0.19588 0.0
H437 H 0.54524 0.10875 0.16251 0.0
H438 H 0.51168 0.16122 0.19357 0.0
H439 H 0.53773 0.16375 0.22627 0.0
C440 C 0.66029 0.94018 0.02494 0.0
Eu441 Eu 0.64817 0.90316 1.01015 0.0
C442 C 0.65468 0.95729 0.04196 0.0
C443 C 0.65943 0.97793 0.03528 0.0
C444 C 0.65512 0.99452 0.05126 0.0
C445 C 0.64602 0.99085 0.07443 0.0
C446 C 0.6408 0.97012 0.08085 0.0
C447 C 0.64506 0.9535 0.06474 0.0
C448 C 0.6114 0.89556 0.98696 0.0
C449 C 0.6298 0.8754 0.05623 0.0
C450 C 0.62341 0.82197 0.98449 0.0
Eu451 Eu 0.6388 0.85701 1.00201 0.0
C452 C 0.62502 0.80693 0.96386 0.0
C453 C 0.63984 0.80926 0.945 0.0
C454 C 0.64102 0.79449 0.92586 0.0
C455 C 0.62739 0.77708 0.92519 0.0
C456 C 0.61248 0.77504 0.94412 0.0
C457 C 0.61133 0.78978 0.96315 0.0
C458 C 0.67745 0.86466 1.02141 0.0
C459 C 0.66446 0.8836 0.95948 0.0
O460 O 0.66713 0.92265 0.03447 0.0
O461 O 0.64783 0.93716 1.00624 0.0
O462 O 0.62347 0.91135 0.98253 0.0
O463 O 0.61841 0.88502 1.00491 0.0
O464 O 0.63882 0.89274 0.04831 0.0
O465 O 0.62575 0.85961 0.04107 0.0
O466 O 0.61573 0.84047 0.97957 0.0
O467 O 0.63903 0.82282 0.99999 0.0
O468 O 0.66638 0.8481 0.02635 0.0
O469 O 0.66812 0.87534 1.00539 0.0
O470 O 0.65288 0.86685 0.96463 0.0
O471 O 0.66736 0.8985 0.976 0.0
H472 H 0.6667 0.98122 1.01769 0.0
H473 H 0.65899 0.01026 0.04544 0.0
H474 H 0.63394 0.96665 0.09859 0.0
H475 H 0.6411 0.93771 0.07019 0.0
H476 H 0.6505 0.82244 0.94511 0.0
H477 H 0.65256 0.79679 0.91154 0.0
H478 H 0.60196 0.76176 0.9446 0.0
H479 H 0.59978 0.78766 0.97753 0.0
C480 C 0.82325 0.10372 0.77194 0.0
Eu481 Eu 0.86013 0.11538 0.78751 0.0
C482 C 0.80632 0.10942 0.75472 0.0
C483 C 0.78552 0.10646 0.76215 0.0
C484 C 0.76901 0.11064 0.74605 0.0
C485 C 0.7729 0.11784 0.72204 0.0
C486 C 0.7938 0.12133 0.71482 0.0
C487 C 0.81038 0.11715 0.73102 0.0
C488 C 0.86833 0.15175 0.81117 0.0
C489 C 0.8889 0.13347 0.74213 0.0
C490 C 0.94222 0.13617 0.81359 0.0
Eu491 Eu 0.90624 0.12283 0.79638 0.0
C492 C 0.95628 0.13547 0.83521 0.0
C493 C 0.95415 0.12031 0.8537 0.0
C494 C 0.96846 0.11954 0.87332 0.0
C495 C 0.98523 0.13391 0.87482 0.0
C496 C 0.98692 0.1493 0.8564 0.0
C497 C 0.97262 0.15005 0.83689 0.0
C498 C 0.89707 0.08437 0.77715 0.0
C499 C 0.87827 0.0994 0.83902 0.0
O500 O 0.84084 0.09673 0.76268 0.0
O501 O 0.82609 0.11606 0.79081 0.0
O502 O 0.85197 0.14024 0.81486 0.0
O503 O 0.87913 0.14452 0.79348 0.0
O504 O 0.87069 0.12602 0.74967 0.0
O505 O 0.90505 0.13536 0.75724 0.0
O506 O 0.92466 0.14646 0.81592 0.0
O507 O 0.94 0.11898 0.8008 0.0
O508 O 0.91358 0.09517 0.77127 0.0
O509 O 0.8869 0.09416 0.79323 0.0
O510 O 0.89533 0.11051 0.83402 0.0
O511 O 0.86362 0.09655 0.8222 0.0
H512 H 0.78204 0.10063 0.7804 0.0
H513 H 0.75314 0.10813 0.75242 0.0
H514 H 0.79739 0.12671 0.69642 0.0
H515 H 0.82632 0.11964 0.72489 0.0
H516 H 0.9416 0.10894 0.85283 0.0
H517 H 0.96641 0.10763 0.88726 0.0
H518 H 0.9997 0.16043 0.85656 0.0
H519 H 0.97459 0.16187 0.82279 0.0
C520 C 0.65987 0.07336 0.52203 0.0
Eu521 Eu 0.64758 0.11004 0.53764 0.0
C522 C 0.65418 0.05636 0.50482 0.0
C523 C 0.65544 0.03558 0.51296 0.0
C524 C 0.65116 0.01899 0.49694 0.0
C525 C 0.64552 0.02281 0.47235 0.0
C526 C 0.64384 0.04371 0.46435 0.0
C527 C 0.64818 0.06033 0.48042 0.0
C528 C 0.61091 0.1174 0.56115 0.0
C529 C 0.62811 0.13798 0.49228 0.0
C530 C 0.62358 0.1909 0.56525 0.0
Eu531 Eu 0.63831 0.15615 0.54633 0.0
C532 C 0.62606 0.20557 0.58637 0.0
C533 C 0.64418 0.21781 0.58941 0.0
C534 C 0.64541 0.23277 0.60826 0.0
C535 C 0.62857 0.23595 0.62462 0.0
C536 C 0.61059 0.22343 0.62173 0.0
C537 C 0.60936 0.2085 0.60285 0.0
C538 C 0.67698 0.14858 0.52685 0.0
C539 C 0.66388 0.12915 0.58853 0.0
O540 O 0.66653 0.09108 0.51277 0.0
O541 O 0.64767 0.076 0.54107 0.0
O542 O 0.62293 0.10149 0.56522 0.0
O543 O 0.61789 0.12815 0.54333 0.0
O544 O 0.63717 0.12054 0.49985 0.0
O545 O 0.62476 0.15388 0.50752 0.0
O546 O 0.61576 0.17239 0.56985 0.0
O547 O 0.63833 0.1903 0.54856 0.0
O548 O 0.66599 0.16524 0.52216 0.0
O549 O 0.66756 0.1378 0.5427 0.0
O550 O 0.65231 0.14591 0.58352 0.0
O551 O 0.66678 0.11435 0.57189 0.0
H552 H 0.65999 0.03215 0.53172 0.0
H553 H 0.65233 1.00314 0.50384 0.0
H554 H 0.63975 0.04722 0.44547 0.0
H555 H 0.64716 0.07622 0.47366 0.0
H556 H 0.6573 0.21614 0.57696 0.0
H557 H 0.65941 0.24226 0.60955 0.0
H558 H 0.5974 0.22514 0.63407 0.0
H559 H 0.59513 0.19941 0.6009 0.0
C560 C 0.68871 0.91082 0.27169 0.0
Eu561 Eu 0.65239 0.8982 0.288 0.0
C562 C 0.70437 0.906 0.25248 0.0
C563 C 0.71061 0.88536 0.24727 0.0
C564 C 0.72642 0.88145 0.22996 0.0
C565 C 0.73615 0.89808 0.21742 0.0
C566 C 0.72961 0.91867 0.22252 0.0
C567 C 0.71393 0.92255 0.23986 0.0
C568 C 0.64534 0.86139 0.31115 0.0
C569 C 0.62465 0.87882 0.24243 0.0
C570 C 0.57146 0.873 0.31451 0.0
Eu571 Eu 0.6063 0.88844 0.29652 0.0
C572 C 0.55626 0.87505 0.33491 0.0
C573 C 0.5589 0.88969 0.35392 0.0
C574 C 0.5441 0.89114 0.37298 0.0
C575 C 0.52635 0.87795 0.37344 0.0
C576 C 0.52397 0.86325 0.35433 0.0
C577 C 0.53873 0.86184 0.33536 0.0
C578 C 0.61362 0.92725 0.27745 0.0
C579 C 0.6333 0.91375 0.33919 0.0
O580 O 0.67092 0.9189 0.26447 0.0
O581 O 0.6864 0.8972 0.28942 0.0
O582 O 0.66112 0.87358 0.31542 0.0
O583 O 0.6345 0.86833 0.29337 0.0
O584 O 0.64191 0.88814 0.25013 0.0
O585 O 0.60882 0.87507 0.2576 0.0
O586 O 0.5901 0.86595 0.32001 0.0
O587 O 0.57208 0.88801 0.2982 0.0
O588 O 0.59704 0.91618 0.27258 0.0
O589 O 0.62443 0.91784 0.29327 0.0
O590 O 0.6164 0.90246 0.33379 0.0
O591 O 0.64836 0.9166 0.32288 0.0
H592 H 0.70343 0.87227 0.2567 0.0
H593 H 0.73092 0.86541 0.22628 0.0
H594 H 0.73692 0.93187 0.21348 0.0
H595 H 0.70947 0.93859 0.24369 0.0
H596 H 0.57237 0.89999 0.354 0.0
H597 H 0.54665 0.90251 0.38745 0.0
H598 H 0.51043 0.85308 0.35368 0.0
H599 H 0.53638 0.85043 0.32087 0.0
C600 C 0.85179 0.93939 1.02163 0.0
Eu601 Eu 0.86459 0.90304 0.03759 0.0
C602 C 0.85642 0.95552 1.00293 0.0
C603 C 0.87696 0.96226 0.9981 0.0
C604 C 0.88064 0.97882 0.98174 0.0
C605 C 0.86386 0.98894 0.96989 0.0
C606 C 0.84339 0.98168 0.97432 0.0
C607 C 0.83974 0.96521 0.99068 0.0
C608 C 0.90141 0.89594 0.06076 0.0
C609 C 0.88346 0.87516 0.99187 0.0
C610 C 0.88992 0.82221 0.06414 0.0
Eu611 Eu 0.87429 0.85694 0.04618 0.0
C612 C 0.88807 0.80712 0.08467 0.0
C613 C 0.90186 0.79007 0.0856 0.0
C614 C 0.9005 0.7753 0.10456 0.0
C615 C 0.88529 0.7772 0.12317 0.0
C616 C 0.87157 0.79452 0.12227 0.0
C617 C 0.87296 0.80933 0.10322 0.0
C618 C 0.83549 0.86425 0.02712 0.0
C619 C 0.84889 0.88394 0.08874 0.0
O620 O 0.84403 0.9216 1.01392 0.0
O621 O 0.86531 0.93704 0.03946 0.0
O622 O 0.88929 0.91175 0.06501 0.0
O623 O 0.89442 0.88513 0.04297 0.0
O624 O 0.87434 0.89249 0.99966 0.0
O625 O 0.88733 0.85938 1.00708 0.0
O626 O 0.89711 0.84086 0.06938 0.0
O627 O 0.8747 0.82275 0.04808 0.0
O628 O 0.8465 0.84762 1.0223 0.0
O629 O 0.84494 0.8751 0.04289 0.0
O630 O 0.86011 0.86698 0.08345 0.0
O631 O 0.84614 0.89894 0.07235 0.0
H632 H 0.89013 0.95503 1.0073 0.0
H633 H 0.89658 0.98404 0.97889 0.0
H634 H 0.83012 0.98874 0.96515 0.0
H635 H 0.82378 0.96023 0.99407 0.0
H636 H 0.91363 0.78805 0.07146 0.0
H637 H 0.9111 0.76209 0.10425 0.0
H638 H 0.85979 0.79671 0.13635 0.0
H639 H 0.86222 0.82244 0.10293 0.0
C640 C 0.57128 0.63849 0.81555 0.0
Eu641 Eu 0.60609 0.6243 0.7962 0.0
C642 C 0.55683 0.63595 0.83683 0.0
C643 C 0.54406 0.61815 0.83937 0.0
C644 C 0.52916 0.61694 0.85826 0.0
C645 C 0.52658 0.6335 0.87515 0.0
C646 C 0.53963 0.65115 0.87279 0.0
C647 C 0.5545 0.65236 0.85386 0.0
C648 C 0.61382 0.58588 0.77618 0.0
C649 C 0.63391 0.59893 0.83752 0.0
C650 C 0.68877 0.60456 0.77044 0.0
Eu651 Eu 0.65204 0.61617 0.78648 0.0
C652 C 0.70584 0.61057 0.75356 0.0
C653 C 0.72657 0.60836 0.7616 0.0
C654 C 0.74327 0.61266 0.74581 0.0
C655 C 0.73964 0.61921 0.72149 0.0
C656 C 0.7188 0.62199 0.71364 0.0
C657 C 0.70203 0.6177 0.72954 0.0
C658 C 0.64431 0.65237 0.81091 0.0
C659 C 0.62319 0.63523 0.74186 0.0
O660 O 0.5897 0.6467 0.8198 0.0
O661 O 0.572 0.62361 0.79902 0.0
O662 O 0.59697 0.59672 0.77199 0.0
O663 O 0.62489 0.59532 0.79178 0.0
O664 O 0.61692 0.61028 0.83304 0.0
O665 O 0.64848 0.59644 0.82051 0.0
O666 O 0.6711 0.59807 0.76087 0.0
O667 O 0.68606 0.61632 0.78985 0.0
O668 O 0.66044 0.64055 0.8145 0.0
O669 O 0.63354 0.64548 0.79305 0.0
O670 O 0.64126 0.62721 0.74896 0.0
O671 O 0.60729 0.63749 0.75731 0.0
H672 H 0.54522 0.60529 0.82646 0.0
H673 H 0.51924 0.60323 0.85914 0.0
H674 H 0.53835 0.6641 0.88555 0.0
H675 H 0.56398 0.66636 0.85229 0.0
H676 H 0.72987 0.60298 0.78009 0.0
H677 H 0.75907 0.61071 0.75264 0.0
H678 H 0.71541 0.62686 0.695 0.0
H679 H 0.68616 0.61961 0.72292 0.0
C680 C 0.62395 0.32111 0.06545 0.0
Eu681 Eu 0.63889 0.35586 0.04673 0.0
C682 C 0.62548 0.30651 0.08645 0.0
C683 C 0.64118 0.30833 0.10437 0.0
C684 C 0.64247 0.29371 0.12362 0.0
C685 C 0.62808 0.27697 0.12531 0.0
C686 C 0.61224 0.27553 0.10739 0.0
C687 C 0.61097 0.29013 0.08825 0.0
C688 C 0.6774 0.36321 0.02678 0.0
C689 C 0.66399 0.38418 0.08789 0.0
C690 C 0.6602 0.43778 1.01889 0.0
Eu691 Eu 0.64757 0.4018 0.03613 0.0
C692 C 0.65543 0.45381 1.00014 0.0
C693 C 0.63495 0.46105 0.99602 0.0
C694 C 0.63127 0.47762 0.97968 0.0
C695 C 0.64799 0.48727 0.96718 0.0
C696 C 0.66836 0.47948 0.97086 0.0
C697 C 0.67201 0.463 0.98718 0.0
C698 C 0.61138 0.39482 0.06076 0.0
C699 C 0.62803 0.37255 0.99211 0.0
O700 O 0.616 0.33962 0.06972 0.0
O701 O 0.6397 0.32179 0.05013 0.0
O702 O 0.66651 0.34635 1.02277 0.0
O703 O 0.66795 0.37447 0.04216 0.0
O704 O 0.65273 0.36708 0.0835 0.0
O705 O 0.66656 0.39867 0.0708 0.0
O706 O 0.66755 0.4198 1.0112 0.0
O707 O 0.64709 0.43582 0.03722 0.0
O708 O 0.62329 0.41101 0.06383 0.0
O709 O 0.61816 0.38361 0.04318 0.0
O710 O 0.63613 0.39067 0.99892 0.0
O711 O 0.62582 0.35679 1.00775 0.0
H712 H 0.6525 0.32092 0.10338 0.0
H713 H 0.65474 0.29554 0.13718 0.0
H714 H 0.60109 0.26277 0.10769 0.0
H715 H 0.59875 0.28842 0.07458 0.0
H716 H 0.62185 0.45421 1.00578 0.0
H717 H 0.6154 0.48324 0.97739 0.0
H718 H 0.68156 0.48618 0.96116 0.0
H719 H 0.68793 0.45765 0.99002 0.0
C720 C 0.94034 0.37269 0.31444 0.0
Eu721 Eu 0.90569 0.38841 0.29646 0.0
C722 C 0.95675 0.37515 0.33349 0.0
C723 C 0.97684 0.3674 0.32858 0.0
C724 C 0.9927 0.36869 0.34626 0.0
C725 C 0.98894 0.37785 0.3694 0.0
C726 C 0.96867 0.38554 0.37437 0.0
C727 C 0.95273 0.38422 0.35657 0.0
C728 C 0.89881 0.42738 0.27759 0.0
C729 C 0.87883 0.41396 0.33896 0.0
C730 C 0.82338 0.41079 0.27183 0.0
Eu731 Eu 0.85981 0.39819 0.28782 0.0
C732 C 0.80741 0.40619 0.25289 0.0
C733 C 0.8 0.38577 0.24867 0.0
C734 C 0.78361 0.38221 0.23204 0.0
C735 C 0.77429 0.39898 0.21931 0.0
C736 C 0.78222 0.41929 0.22313 0.0
C737 C 0.79853 0.42284 0.23976 0.0
C738 C 0.86689 0.36136 0.31116 0.0
C739 C 0.88745 0.37899 0.24227 0.0
O740 O 0.9216 0.36712 0.32163 0.0
O741 O 0.93991 0.38631 0.29651 0.0
O742 O 0.91544 0.41632 0.27308 0.0
O743 O 0.8877 0.41797 0.29314 0.0
O744 O 0.89568 0.40257 0.33372 0.0
O745 O 0.86391 0.41683 0.32248 0.0
O746 O 0.84113 0.41883 0.26439 0.0
O747 O 0.82581 0.39712 0.28949 0.0
O748 O 0.85124 0.37367 0.31557 0.0
O749 O 0.87754 0.36824 0.2932 0.0
O750 O 0.87034 0.38858 0.24985 0.0
O751 O 0.90301 0.37479 0.25766 0.0
H752 H 0.98026 0.36014 0.31102 0.0
H753 H 0.00792 0.36226 0.34182 0.0
H754 H 0.96521 0.39287 0.39185 0.0
H755 H 0.93732 0.39028 0.36083 0.0
H756 H 0.80659 0.37262 0.25854 0.0
H757 H 0.77786 0.36639 0.22969 0.0
H758 H 0.77579 0.43254 0.21328 0.0
H759 H 0.80401 0.4387 0.24266 0.0
C760 C 0.8903 0.69009 0.56288 0.0
Eu761 Eu 0.87504 0.65478 0.54602 0.0
C762 C 0.88898 0.70473 0.5839 0.0
C763 C 0.8741 0.70226 0.60265 0.0
C764 C 0.87301 0.71674 0.62206 0.0
C765 C 0.88679 0.73401 0.62311 0.0
C766 C 0.90183 0.73614 0.60435 0.0
C767 C 0.9029 0.72168 0.58503 0.0
C768 C 0.83632 0.64701 0.5269 0.0
C769 C 0.84965 0.62884 0.58918 0.0
C770 C 0.85392 0.57135 0.52513 0.0
Eu771 Eu 0.86579 0.60875 0.53886 0.0
C772 C 0.85906 0.55436 0.50779 0.0
C773 C 0.85388 0.53376 0.51413 0.0
C774 C 0.85789 0.51728 0.4979 0.0
C775 C 0.86711 0.52105 0.47481 0.0
C776 C 0.87273 0.54175 0.46872 0.0
C777 C 0.86877 0.55826 0.4851 0.0
C778 C 0.90231 0.61677 0.56252 0.0
C779 C 0.88379 0.63594 0.49208 0.0
O780 O 0.89871 0.67179 0.56706 0.0
O781 O 0.87407 0.68892 0.5483 0.0
O782 O 0.84755 0.66334 0.52142 0.0
O783 O 0.84558 0.63645 0.54311 0.0
O784 O 0.86133 0.64542 0.58369 0.0
O785 O 0.84659 0.61376 0.57294 0.0
O786 O 0.84613 0.58864 0.51605 0.0
O787 O 0.86733 0.5748 0.5428 0.0
O788 O 0.88997 0.60128 0.5674 0.0
O789 O 0.8956 0.62683 0.54401 0.0
O790 O 0.87494 0.61864 0.50038 0.0
O791 O 0.88782 0.65191 0.50694 0.0
H792 H 0.86327 0.68923 0.60219 0.0
H793 H 0.86138 0.71438 0.63626 0.0
H794 H 0.91248 0.74933 0.60417 0.0
H795 H 0.9145 0.72389 0.57073 0.0
H796 H 0.84655 0.53041 0.53166 0.0
H797 H 0.85372 0.50156 0.50346 0.0
H798 H 0.87969 0.54529 0.45106 0.0
H799 H 0.87306 0.57404 0.47994 0.0
C800 C 0.57057 0.37499 0.73336 0.0
Eu801 Eu 0.60539 0.38901 0.75284 0.0
C802 C 0.5561 0.37779 0.71216 0.0
C803 C 0.5438 0.3959 0.70952 0.0
C804 C 0.52891 0.39737 0.69064 0.0
C805 C 0.52588 0.38079 0.67388 0.0
C806 C 0.53849 0.36285 0.67633 0.0
C807 C 0.55335 0.36137 0.69524 0.0
C808 C 0.61317 0.42759 0.77249 0.0
C809 C 0.6335 0.41386 0.71141 0.0
C810 C 0.68791 0.40905 0.77902 0.0
Eu811 Eu 0.65132 0.39716 0.7628 0.0
C812 C 0.70503 0.40304 0.79581 0.0
C813 C 0.72573 0.40543 0.78776 0.0
C814 C 0.74247 0.40108 0.80346 0.0
C815 C 0.7389 0.39428 0.8277 0.0
C816 C 0.71808 0.39134 0.83556 0.0
C817 C 0.70128 0.39568 0.81976 0.0
C818 C 0.64376 0.36071 0.7388 0.0
C819 C 0.62231 0.37809 0.80726 0.0
O820 O 0.58899 0.36691 0.72888 0.0
O821 O 0.57129 0.38963 0.75018 0.0
O822 O 0.59626 0.41684 0.77667 0.0
O823 O 0.62426 0.41799 0.75706 0.0
O824 O 0.61649 0.40256 0.7159 0.0
O825 O 0.64795 0.41656 0.72852 0.0
O826 O 0.67016 0.41523 0.78868 0.0
O827 O 0.68534 0.39746 0.75944 0.0
O828 O 0.66002 0.37242 0.73539 0.0
O829 O 0.63279 0.36781 0.75639 0.0
O830 O 0.64037 0.38623 0.80029 0.0
O831 O 0.6065 0.37574 0.7917 0.0
H832 H 0.54533 0.40879 0.72232 0.0
H833 H 0.51934 0.41132 0.68967 0.0
H834 H 0.53688 0.34987 0.66367 0.0
H835 H 0.56249 0.34715 0.69689 0.0
H836 H 0.72898 0.41098 0.76933 0.0
H837 H 0.75825 0.40316 0.79662 0.0
H838 H 0.71475 0.38629 0.85415 0.0
H839 H 0.68542 0.39362 0.82638 0.0
C840 C 0.88959 0.322 0.98336 0.0
Eu841 Eu 0.87455 0.35665 1.00216 0.0
C842 C 0.88705 0.30732 0.9623 0.0
C843 C 0.86893 0.29507 0.95937 0.0
C844 C 0.86762 0.28014 0.9405 0.0
C845 C 0.88438 0.27703 0.92402 0.0
C846 C 0.90237 0.28956 0.92679 0.0
C847 C 0.90368 0.30445 0.9457 0.0
C848 C 0.8357 0.36388 1.0212 0.0
C849 C 0.84909 0.38341 0.95958 0.0
C850 C 0.85269 0.43918 0.02618 0.0
Eu851 Eu 0.86507 0.40258 1.01047 0.0
C852 C 0.85748 0.45533 0.04479 0.0
C853 C 0.87815 0.46104 0.05058 0.0
C854 C 0.88209 0.47764 0.06683 0.0
C855 C 0.86545 0.48882 0.07759 0.0
C856 C 0.84481 0.48257 0.07223 0.0
C857 C 0.8409 0.46606 0.05598 0.0
C858 C 0.90168 0.39522 0.98678 0.0
C859 C 0.8841 0.37488 0.05622 0.0
O860 O 0.89719 0.34058 0.97861 0.0
O861 O 0.87494 0.32251 1.00019 0.0
O862 O 0.84683 0.34736 0.02609 0.0
O863 O 0.84509 0.3748 1.00543 0.0
O864 O 0.86047 0.36659 0.96489 0.0
O865 O 0.84627 0.39843 0.97595 0.0
O866 O 0.8447 0.42152 0.03397 0.0
O867 O 0.86626 0.43655 1.00846 0.0
O868 O 0.8894 0.41088 0.98239 0.0
O869 O 0.89491 0.38471 1.00492 0.0
O870 O 0.87494 0.39217 0.04844 0.0
O871 O 0.88788 0.35906 0.04105 0.0
H872 H 0.85587 0.29671 0.97191 0.0
H873 H 0.85363 0.27063 0.93929 0.0
H874 H 0.91549 0.28788 0.91435 0.0
H875 H 0.9179 0.31356 0.94756 0.0
H876 H 0.89124 0.45296 0.0422 0.0
H877 H 0.89817 0.48205 0.07044 0.0
H878 H 0.8316 0.49047 0.08057 0.0
H879 H 0.82484 0.46187 0.05185 0.0
C880 C 0.94115 0.63948 0.23409 0.0
Eu881 Eu 0.90601 0.62429 0.2515 0.0
C882 C 0.95612 0.63772 0.21345 0.0
C883 C 0.9536 0.6229 0.19462 0.0
C884 C 0.96833 0.62153 0.17547 0.0
C885 C 0.98588 0.63498 0.17478 0.0
C886 C 0.98809 0.6499 0.19367 0.0
C887 C 0.9734 0.65124 0.21271 0.0
C888 C 0.89836 0.58556 0.27052 0.0
C889 C 0.87928 0.59929 0.20841 0.0
C890 C 0.82317 0.60325 0.2749 0.0
Eu891 Eu 0.85998 0.61509 0.25929 0.0
C892 C 0.80781 0.60762 0.29463 0.0
C893 C 0.80001 0.62788 0.29893 0.0
C894 C 0.78442 0.63126 0.31663 0.0
C895 C 0.77642 0.61448 0.3305 0.0
C896 C 0.78452 0.5943 0.32637 0.0
C897 C 0.79998 0.59093 0.30862 0.0
C898 C 0.86774 0.65157 0.23559 0.0
C899 C 0.88755 0.63357 0.3055 0.0
O900 O 0.92271 0.64729 0.22917 0.0
O901 O 0.94019 0.62386 0.24956 0.0
O902 O 0.91482 0.59668 0.27576 0.0
O903 O 0.88765 0.5949 0.25452 0.0
O904 O 0.89624 0.61038 0.21405 0.0
O905 O 0.86401 0.59663 0.22449 0.0
O906 O 0.84059 0.59392 0.28123 0.0
O907 O 0.82604 0.6177 0.25822 0.0
O908 O 0.85217 0.63924 0.23088 0.0
O909 O 0.87806 0.64485 0.25392 0.0
O910 O 0.87024 0.62459 0.29746 0.0
O911 O 0.90349 0.63733 0.29052 0.0
H912 H 0.94032 0.61236 0.19477 0.0
H913 H 0.9659 0.60999 0.16117 0.0
H914 H 1.00148 0.66029 0.19413 0.0
H915 H 0.97565 0.66279 0.22707 0.0
H916 H 0.80576 0.6411 0.28846 0.0
H917 H 0.7787 0.64702 0.31954 0.0
H918 H 0.77855 0.58098 0.33648 0.0
H919 H 0.80561 0.57515 0.30552 0.0
C920 C 0.62501 0.69072 0.48224 0.0
Eu921 Eu 0.63956 0.65635 0.50214 0.0
C922 C 0.62774 0.70518 0.46104 0.0
C923 C 0.64559 0.71789 0.45866 0.0
C924 C 0.64695 0.73279 0.4398 0.0
C925 C 0.6305 0.73541 0.42279 0.0
C926 C 0.61281 0.72239 0.42498 0.0
C927 C 0.61145 0.70752 0.44387 0.0
C928 C 0.67812 0.64896 0.52185 0.0
C929 C 0.66475 0.62789 0.46104 0.0
C930 C 0.66033 0.57436 0.52979 0.0
Eu931 Eu 0.64797 0.61046 0.51272 0.0
C932 C 0.65551 0.5583 0.54847 0.0
C933 C 0.63503 0.55099 0.55241 0.0
C934 C 0.63131 0.53439 0.56868 0.0
C935 C 0.64799 0.5248 0.58129 0.0
C936 C 0.66836 0.53265 0.57778 0.0
C937 C 0.67205 0.54917 0.56152 0.0
C938 C 0.61165 0.61774 0.48845 0.0
C939 C 0.62879 0.63986 0.55683 0.0
O940 O 0.61739 0.67209 0.47771 0.0
O941 O 0.63947 0.69042 0.49928 0.0
O942 O 0.66741 0.66596 0.52568 0.0
O943 O 0.66853 0.63765 0.50663 0.0
O944 O 0.65373 0.64512 0.46548 0.0
O945 O 0.667 0.61332 0.47809 0.0
O946 O 0.66782 0.59226 0.53755 0.0
O947 O 0.64717 0.57646 0.51153 0.0
O948 O 0.62348 0.60155 0.48505 0.0
O949 O 0.61863 0.6288 0.50604 0.0
O950 O 0.63689 0.62173 0.55005 0.0
O951 O 0.62646 0.65555 0.54111 0.0
H952 H 0.65837 0.71668 0.47166 0.0
H953 H 0.66069 0.74268 0.43903 0.0
H954 H 0.59994 0.7237 0.41212 0.0
H955 H 0.59742 0.69806 0.44532 0.0
H956 H 0.62196 0.55779 0.54257 0.0
H957 H 0.61545 0.5287 0.57085 0.0
H958 H 0.68153 0.52599 0.58756 0.0
H959 H 0.68796 0.55458 0.55881 0.0
C960 C 0.32364 0.40939 0.27588 0.0
Eu961 Eu 0.36032 0.397 0.26038 0.0
C962 C 0.30766 0.40494 0.29488 0.0
C963 C 0.30137 0.3844 0.30051 0.0
C964 C 0.28491 0.38082 0.31706 0.0
C965 C 0.27442 0.39769 0.32831 0.0
C966 C 0.28126 0.41817 0.32311 0.0
C967 C 0.29763 0.42172 0.30655 0.0
C968 C 0.36781 0.35992 0.23795 0.0
C969 C 0.38787 0.37888 0.30666 0.0
C970 C 0.4415 0.37246 0.23531 0.0
Eu971 Eu 0.40634 0.38766 0.25259 0.0
C972 C 0.45784 0.37473 0.21614 0.0
C973 C 0.47809 0.36749 0.22122 0.0
C974 C 0.49388 0.36856 0.20343 0.0
C975 C 0.4899 0.37699 0.17997 0.0
C976 C 0.46949 0.3842 0.17484 0.0
C977 C 0.45361 0.3831 0.19275 0.0
C978 C 0.39849 0.42686 0.27048 0.0
C979 C 0.37956 0.41216 0.20909 0.0
O980 O 0.34123 0.4179 0.28312 0.0
O981 O 0.32634 0.39535 0.25868 0.0
O982 O 0.35204 0.37197 0.23326 0.0
O983 O 0.37843 0.36714 0.25578 0.0
O984 O 0.37079 0.38831 0.29871 0.0
O985 O 0.40349 0.37439 0.29148 0.0
O986 O 0.42295 0.36604 0.22841 0.0
O987 O 0.44062 0.38666 0.25262 0.0
O988 O 0.41486 0.41587 0.27637 0.0
O989 O 0.38804 0.41701 0.25471 0.0
O990 O 0.39669 0.40141 0.21497 0.0
O991 O 0.36424 0.41477 0.22513 0.0
H992 H 0.30886 0.37114 0.29178 0.0
H993 H 0.28004 0.36485 0.3205 0.0
H994 H 0.27392 0.43154 0.33179 0.0
H995 H 0.30225 0.43768 0.30255 0.0
H996 H 0.48168 0.36077 0.23902 0.0
H997 H 0.50921 0.36251 0.20804 0.0
H998 H 0.46584 0.39098 0.15711 0.0
H999 H 0.43808 0.38876 0.18834 0.0
C1000 C 0.35346 0.57503 0.03004 0.0
Eu1001 Eu 0.36538 0.61134 1.01305 0.0
C1002 C 0.35847 0.5593 0.04907 0.0
C1003 C 0.37914 0.55295 0.0539 0.0
C1004 C 0.38315 0.53693 0.07089 0.0
C1005 C 0.36659 0.52709 0.08347 0.0
C1006 C 0.34599 0.53377 0.07876 0.0
C1007 C 0.342 0.54966 0.06176 0.0
C1008 C 0.40154 0.61888 0.98871 0.0
C1009 C 0.38436 0.64059 0.05744 0.0
C1010 C 0.38792 0.6926 0.98466 0.0
Eu1011 Eu 0.37354 0.65743 1.00294 0.0
C1012 C 0.38681 0.70695 0.96337 0.0
C1013 C 0.40059 0.724 0.96239 0.0
C1014 C 0.3997 0.73834 0.94295 0.0
C1015 C 0.38496 0.73597 0.92389 0.0
C1016 C 0.37131 0.71859 0.92478 0.0
C1017 C 0.37223 0.70422 0.94433 0.0
C1018 C 0.33525 0.64937 1.02309 0.0
C1019 C 0.34889 0.62902 0.96145 0.0
O1020 O 0.34542 0.5928 0.03743 0.0
O1021 O 0.36682 0.57734 1.01201 0.0
O1022 O 0.38975 0.60265 0.98528 0.0
O1023 O 0.39461 0.62994 1.00634 0.0
O1024 O 0.37653 0.62241 0.05042 0.0
O1025 O 0.38642 0.65649 0.04198 0.0
O1026 O 0.39679 0.6744 0.9812 0.0
O1027 O 0.37151 0.69141 0.99894 0.0
O1028 O 0.34605 0.66623 0.02748 0.0
O1029 O 0.34471 0.6385 1.00733 0.0
O1030 O 0.35998 0.64618 0.96601 0.0
O1031 O 0.34642 0.61439 0.97839 0.0
H1032 H 0.39215 0.56017 0.04438 0.0
H1033 H 0.3992 0.53233 0.07427 0.0
H1034 H 0.33283 0.52637 0.08781 0.0
H1035 H 0.32594 0.5542 0.0582 0.0
H1036 H 0.41195 0.72642 0.97692 0.0
H1037 H 0.41023 0.75161 0.94328 0.0
H1038 H 0.35991 0.71605 0.91036 0.0
H1039 H 0.36149 0.6911 0.94467 0.0
C1040 C 0.1891 0.60054 0.77862 0.0
Eu1041 Eu 0.15328 0.61412 0.76192 0.0
C1042 C 0.20525 0.60533 0.79724 0.0
C1043 C 0.21213 0.6259 0.80166 0.0
C1044 C 0.22864 0.62972 0.81806 0.0
C1045 C 0.23857 0.61307 0.83036 0.0
C1046 C 0.23117 0.59259 0.82633 0.0
C1047 C 0.21475 0.58879 0.80993 0.0
C1048 C 0.14707 0.65116 0.73891 0.0
C1049 C 0.12523 0.63366 0.80712 0.0
C1050 C 0.07281 0.64035 0.73428 0.0
Eu1051 Eu 0.10729 0.6245 0.75265 0.0
C1052 C 0.05778 0.63838 0.71369 0.0
C1053 C 0.05909 0.62212 0.69638 0.0
C1054 C 0.04427 0.62055 0.67735 0.0
C1055 C 0.02783 0.63522 0.67523 0.0
C1056 C 0.02686 0.6516 0.69254 0.0
C1057 C 0.04165 0.65313 0.71148 0.0
C1058 C 0.11405 0.58549 0.77151 0.0
C1059 C 0.13446 0.59917 0.71027 0.0
O1060 O 0.17101 0.59367 0.78656 0.0
O1061 O 0.18727 0.61353 0.76016 0.0
O1062 O 0.16295 0.63899 0.73526 0.0
O1063 O 0.13577 0.64419 0.7563 0.0
O1064 O 0.14248 0.62423 0.79963 0.0
O1065 O 0.10963 0.63767 0.7917 0.0
O1066 O 0.09156 0.64723 0.72901 0.0
O1067 O 0.07313 0.62534 0.75061 0.0
O1068 O 0.09745 0.5966 0.7761 0.0
O1069 O 0.12512 0.59494 0.75598 0.0
O1070 O 0.11768 0.6107 0.7154 0.0
O1071 O 0.14918 0.59591 0.7269 0.0
H1072 H 0.20503 0.63897 0.79213 0.0
H1073 H 0.23396 0.64567 0.82059 0.0
H1074 H 0.23808 0.57942 0.83585 0.0
H1075 H 0.20965 0.57282 0.80687 0.0
H1076 H 0.07148 0.61061 0.69767 0.0
H1077 H 0.04575 0.60786 0.66427 0.0
H1078 H 0.01435 0.66299 0.6919 0.0
H1079 H 0.04034 0.66581 0.72464 0.0
C1080 C 0.16105 0.44006 0.5267 0.0
Eu1081 Eu 0.14794 0.40386 0.51052 0.0
C1082 C 0.15632 0.45622 0.54532 0.0
C1083 C 0.13568 0.46237 0.55065 0.0
C1084 C 0.13183 0.47892 0.567 0.0
C1085 C 0.14853 0.48961 0.57834 0.0
C1086 C 0.16911 0.48293 0.57342 0.0
C1087 C 0.17293 0.46648 0.55707 0.0
C1088 C 0.11121 0.39707 0.48697 0.0
C1089 C 0.12852 0.37616 0.55608 0.0
C1090 C 0.12236 0.32304 0.48384 0.0
Eu1091 Eu 0.13798 0.35779 0.50185 0.0
C1092 C 0.12435 0.30787 0.46339 0.0
C1093 C 0.13923 0.31033 0.44461 0.0
C1094 C 0.14072 0.29549 0.42559 0.0
C1095 C 0.12734 0.27789 0.42494 0.0
C1096 C 0.11239 0.27571 0.4438 0.0
C1097 C 0.11093 0.29052 0.46273 0.0
C1098 C 0.17678 0.36495 0.52106 0.0
C1099 C 0.16368 0.38461 0.45939 0.0
O1100 O 0.16844 0.42217 0.53457 0.0
O1101 O 0.14774 0.43786 0.50862 0.0
O1102 O 0.12343 0.41288 0.48308 0.0
O1103 O 0.118 0.38612 0.50474 0.0
O1104 O 0.13769 0.39347 0.54835 0.0
O1105 O 0.12479 0.36031 0.54088 0.0
O1106 O 0.11533 0.34169 0.47842 0.0
O1107 O 0.13743 0.32359 0.50009 0.0
O1108 O 0.16565 0.34839 0.52584 0.0
O1109 O 0.16742 0.37581 0.50526 0.0
O1110 O 0.15227 0.36776 0.46465 0.0
O1111 O 0.16652 0.39962 0.4758 0.0
H1112 H 0.12257 0.45467 0.54185 0.0
H1113 H 0.1158 0.48367 0.57024 0.0
H1114 H 0.18235 0.49044 0.5822 0.0
H1115 H 0.18896 0.46194 0.5533 0.0
H1116 H 0.14969 0.32367 0.4447 0.0
H1117 H 0.15228 0.29789 0.41131 0.0
H1118 H 0.10206 0.26228 0.4443 0.0
H1119 H 0.09935 0.2883 0.47704 0.0
C1120 C 0.32454 0.60307 0.27118 0.0
Eu1121 Eu 0.36108 0.61526 0.28726 0.0
C1122 C 0.30746 0.60897 0.25423 0.0
C1123 C 0.28672 0.60648 0.26209 0.0
C1124 C 0.27005 0.61085 0.24629 0.0
C1125 C 0.27372 0.61778 0.22212 0.0
C1126 C 0.29458 0.62079 0.21443 0.0
C1127 C 0.31131 0.61643 0.23034 0.0
C1128 C 0.36855 0.65176 0.3109 0.0
C1129 C 0.38984 0.6341 0.24237 0.0
C1130 C 0.44282 0.63734 0.3142 0.0
Eu1131 Eu 0.40716 0.62342 0.29666 0.0
C1132 C 0.45736 0.63622 0.33535 0.0
C1133 C 0.45482 0.62161 0.35438 0.0
C1134 C 0.46939 0.62063 0.37373 0.0
C1135 C 0.48682 0.63424 0.37444 0.0
C1136 C 0.489 0.64901 0.35539 0.0
C1137 C 0.47446 0.64997 0.33615 0.0
C1138 C 0.39862 0.58481 0.27736 0.0
C1139 C 0.37921 0.59944 0.33893 0.0
O1140 O 0.34231 0.59682 0.26166 0.0
O1141 O 0.32706 0.61482 0.29063 0.0
O1142 O 0.3522 0.64015 0.3142 0.0
O1143 O 0.37969 0.64462 0.29346 0.0
O1144 O 0.37177 0.62618 0.24963 0.0
O1145 O 0.40584 0.6363 0.25767 0.0
O1146 O 0.42486 0.64666 0.31768 0.0
O1147 O 0.44113 0.62075 0.30026 0.0
O1148 O 0.41515 0.59571 0.27185 0.0
O1149 O 0.38819 0.59454 0.29326 0.0
O1150 O 0.3962 0.6107 0.33409 0.0
O1151 O 0.36467 0.59646 0.32198 0.0
H1152 H 0.28339 0.60086 0.28048 0.0
H1153 H 0.25424 0.60871 0.25301 0.0
H1154 H 0.29801 0.62594 0.1959 0.0
H1155 H 0.3272 0.61857 0.22386 0.0
H1156 H 0.44169 0.61089 0.35417 0.0
H1157 H 0.46696 0.60921 0.38815 0.0
H1158 H 0.5023 0.65951 0.35492 0.0
H1159 H 0.47676 0.66134 0.32163 0.0
C1160 C 0.16073 0.57359 1.0228 0.0
Eu1161 Eu 0.148 0.61 0.03877 0.0
C1162 C 0.15585 0.55744 1.00419 0.0
C1163 C 0.13514 0.552 0.99821 0.0
C1164 C 0.13107 0.53548 0.98189 0.0
C1165 C 0.14763 0.52408 0.97123 0.0
C1166 C 0.16832 0.53006 0.9768 0.0
C1167 C 0.17235 0.5465 0.99312 0.0
C1168 C 0.11112 0.61707 0.0619 0.0
C1169 C 0.12874 0.63756 0.99313 0.0
C1170 C 0.12233 0.69074 0.0651 0.0
Eu1171 Eu 0.13813 0.65607 0.04724 0.0
C1172 C 0.12459 0.70726 0.08409 0.0
C1173 C 0.1171 0.72738 0.07885 0.0
C1174 C 0.1181 0.74332 0.09647 0.0
C1175 C 0.12669 0.73961 0.11992 0.0
C1176 C 0.13415 0.71932 0.1252 0.0
C1177 C 0.13313 0.7033 0.10745 0.0
C1178 C 0.17711 0.64895 0.02837 0.0
C1179 C 0.16377 0.62939 0.08982 0.0
O1180 O 0.16839 0.59137 1.01494 0.0
O1181 O 0.14735 0.57601 0.04078 0.0
O1182 O 0.1233 0.60132 0.06621 0.0
O1183 O 0.11808 0.62783 0.04408 0.0
O1184 O 0.13828 0.62044 1.0008 0.0
O1185 O 0.12459 0.6532 1.00843 0.0
O1186 O 0.11676 0.67201 0.07232 0.0
O1187 O 0.13601 0.6903 0.04721 0.0
O1188 O 0.16611 0.66561 1.02377 0.0
O1189 O 0.16759 0.63803 0.04399 0.0
O1190 O 0.15247 0.64627 0.08445 0.0
O1191 O 0.16654 0.61429 0.07351 0.0
H1192 H 0.12211 0.56025 1.00649 0.0
H1193 H 0.11496 0.53129 0.97814 0.0
H1194 H 0.18148 0.52201 0.96856 0.0
H1195 H 0.18843 0.55048 0.99738 0.0
H1196 H 0.11024 0.73076 0.06106 0.0
H1197 H 0.11185 0.75855 0.09176 0.0
H1198 H 0.14107 0.71588 0.14292 0.0
H1199 H 0.13898 0.68786 0.11198 0.0
C1200 C 0.19011 0.41017 0.77501 0.0
Eu1201 Eu 0.15295 0.39801 0.78924 0.0
C1202 C 0.207 0.40522 0.75746 0.0
C1203 C 0.22746 0.4115 0.76306 0.0
C1204 C 0.24383 0.40762 0.74664 0.0
C1205 C 0.2401 0.39742 0.7241 0.0
C1206 C 0.21956 0.39073 0.71876 0.0
C1207 C 0.20316 0.39457 0.73533 0.0
C1208 C 0.1452 0.36134 0.81259 0.0
C1209 C 0.12545 0.37996 0.74268 0.0
C1210 C 0.07156 0.37356 0.81399 0.0
Eu1211 Eu 0.10683 0.3887 0.79683 0.0
C1212 C 0.05669 0.37514 0.8348 0.0
C1213 C 0.05868 0.39052 0.8531 0.0
C1214 C 0.04396 0.39181 0.87226 0.0
C1215 C 0.02693 0.37775 0.87352 0.0
C1216 C 0.02527 0.36223 0.8552 0.0
C1217 C 0.03997 0.36096 0.83614 0.0
C1218 C 0.11466 0.42741 0.77775 0.0
C1219 C 0.13324 0.41391 0.83992 0.0
O1220 O 0.17266 0.41779 0.76612 0.0
O1221 O 0.18696 0.39673 0.79269 0.0
O1222 O 0.16087 0.37354 0.8172 0.0
O1223 O 0.1348 0.3682 0.79441 0.0
O1224 O 0.14278 0.38885 0.75087 0.0
O1225 O 0.10956 0.37588 0.75767 0.0
O1226 O 0.08992 0.36541 0.81857 0.0
O1227 O 0.07267 0.38946 0.79893 0.0
O1228 O 0.09822 0.4163 0.7724 0.0
O1229 O 0.12519 0.41806 0.7939 0.0
O1230 O 0.11649 0.40247 0.83442 0.0
O1231 O 0.14831 0.41689 0.82365 0.0
H1232 H 0.23078 0.41957 0.78015 0.0
H1233 H 0.25945 0.41264 0.75164 0.0
H1234 H 0.21604 0.38299 0.70154 0.0
H1235 H 0.18749 0.38942 0.73077 0.0
H1236 H 0.07153 0.40157 0.85249 0.0
H1237 H 0.04598 0.40381 0.88611 0.0
H1238 H 0.01229 0.35134 0.85517 0.0
H1239 H 0.03811 0.34898 0.82219 0.0
C1240 C 0.35136 0.43964 0.52104 0.0
Eu1241 Eu 0.36396 0.40329 0.53726 0.0
C1242 C 0.35711 0.45672 0.50403 0.0
C1243 C 0.35469 0.47749 0.51189 0.0
C1244 C 0.35896 0.49412 0.49598 0.0
C1245 C 0.36576 0.49037 0.47177 0.0
C1246 C 0.36863 0.4695 0.46408 0.0
C1247 C 0.3643 0.45283 0.48005 0.0
C1248 C 0.40074 0.39642 0.56077 0.0
C1249 C 0.38375 0.3749 0.49254 0.0
C1250 C 0.38826 0.32283 0.5663 0.0
Eu1251 Eu 0.37341 0.3573 0.54685 0.0
C1252 C 0.3856 0.30802 0.58722 0.0
C1253 C 0.36816 0.29467 0.58892 0.0
C1254 C 0.3669 0.27957 0.60758 0.0
C1255 C 0.38305 0.27734 0.62507 0.0
C1256 C 0.40034 0.29095 0.62351 0.0
C1257 C 0.4016 0.30603 0.60483 0.0
C1258 C 0.33482 0.36441 0.52701 0.0
C1259 C 0.34746 0.38478 0.58836 0.0
O1260 O 0.34538 0.42175 0.51156 0.0
O1261 O 0.36308 0.43732 0.54054 0.0
O1262 O 0.38876 0.41243 0.56444 0.0
O1263 O 0.3937 0.38533 0.54327 0.0
O1264 O 0.37451 0.39236 0.49973 0.0
O1265 O 0.38715 0.35924 0.50808 0.0
O1266 O 0.39555 0.3415 0.57126 0.0
O1267 O 0.37395 0.32316 0.54907 0.0
O1268 O 0.34582 0.34766 0.52281 0.0
O1269 O 0.34413 0.37548 0.54269 0.0
O1270 O 0.35922 0.36804 0.58382 0.0
O1271 O 0.34452 0.39923 0.57134 0.0
H1272 H 0.34922 0.48086 0.53033 0.0
H1273 H 0.35688 0.50996 0.50265 0.0
H1274 H 0.37364 0.46603 0.4455 0.0
H1275 H 0.36625 0.43695 0.47353 0.0
H1276 H 0.35563 0.29556 0.57556 0.0
H1277 H 0.35347 0.26922 0.60785 0.0
H1278 H 0.41297 0.28996 0.63674 0.0
H1279 H 0.41533 0.31596 0.60391 0.0
H1280 H 0.24457 0.14635 0.18738 0.0
H1281 H 0.27307 0.08972 0.21492 0.0
H1282 H 0.27348 0.15059 0.15839 0.0
H1283 H 0.30173 0.09386 0.18583 0.0
H1284 H 0.33028 0.09318 0.10769 0.0
H1285 H 0.30523 0.09094 0.14119 0.0
H1286 H 0.31187 0.15726 0.15441 0.0
H1287 H 0.337 0.15957 0.12046 0.0
C1288 C 0.25709 0.13494 0.1875 0.0
C1289 C 0.25629 0.11755 0.20334 0.0
C1290 C 0.2737 0.1374 0.17089 0.0
C1291 C 0.28987 0.1225 0.16968 0.0
C1292 C 0.28936 0.10545 0.18599 0.0
C1293 C 0.27284 0.10303 0.20261 0.0
C1294 C 0.32665 0.10727 0.11792 0.0
C1295 C 0.33564 0.12656 0.11134 0.0
C1296 C 0.31233 0.10596 0.13724 0.0
C1297 C 0.30646 0.12393 0.15047 0.0
C1298 C 0.31591 0.14317 0.14442 0.0
C1299 C 0.33046 0.14445 0.12514 0.0
H1300 H 0.16818 0.08423 0.36184 0.0
H1301 H 0.10083 0.08533 0.36847 0.0
H1302 H 0.17014 0.05754 0.39351 0.0
H1303 H 0.10278 0.0581 0.40019 0.0
H1304 H 0.11943 0.01861 0.47049 0.0
H1305 H 0.11517 0.04811 0.44215 0.0
H1306 H 0.16104 0.02063 0.39357 0.0
H1307 H 0.16527 0.99138 0.42168 0.0
C1308 C 0.15377 0.07893 0.3703 0.0
C1309 C 0.13434 0.08675 0.36245 0.0
C1310 C 0.15488 0.06348 0.38834 0.0
C1311 C 0.13659 0.05528 0.39896 0.0
C1312 C 0.11717 0.06404 0.39232 0.0
C1313 C 0.11605 0.07968 0.37421 0.0
C1314 C 0.12841 0.01879 0.4536 0.0
C1315 C 0.14289 1.00274 0.4485 0.0
C1316 C 0.12599 0.0357 0.43741 0.0
C1317 C 0.13803 0.03694 0.41581 0.0
C1318 C 0.15194 0.0205 0.41038 0.0
C1319 C 0.15435 1.00368 0.42648 0.0
H1320 H 0.24059 0.92136 0.71332 0.0
H1321 H 0.26788 0.86341 0.68788 0.0
H1322 H 0.21206 0.91726 0.68412 0.0
H1323 H 0.23955 0.85968 0.65792 0.0
H1324 H 0.1759 0.85145 0.61957 0.0
H1325 H 0.20121 0.85357 0.65337 0.0
H1326 H 0.20867 0.91975 0.6398 0.0
H1327 H 0.18342 0.91772 0.60654 0.0
C1328 C 0.24043 0.90762 0.70165 0.0
C1329 C 0.25659 0.89271 0.70301 0.0
C1330 C 0.22414 0.90538 0.68471 0.0
C1331 C 0.22352 0.88818 0.66859 0.0
C1332 C 0.23943 0.87302 0.67022 0.0
C1333 C 0.25582 0.8753 0.68717 0.0
C1334 C 0.18269 0.8665 0.62412 0.0
C1335 C 0.17765 0.88441 0.61032 0.0
C1336 C 0.19734 0.86767 0.64331 0.0
C1337 C 0.20704 0.88682 0.64925 0.0
C1338 C 0.20137 0.9048 0.63595 0.0
C1339 C 0.18693 0.9036 0.61676 0.0
H1340 H 0.411 0.92496 0.86976 0.0
H1341 H 0.34457 0.93157 0.85733 0.0
H1342 H 0.40877 0.95005 0.90381 0.0
H1343 H 0.34239 0.95654 0.89094 0.0
H1344 H 0.34111 0.98881 0.96434 0.0
H1345 H 0.34554 0.9599 0.93563 0.0
H1346 H 0.40192 0.98854 0.90767 0.0
H1347 H 0.39741 0.01768 0.93632 0.0
C1348 C 0.39589 0.93146 0.87454 0.0
C1349 C 0.37797 0.9263 0.86081 0.0
C1350 C 0.39465 0.94598 0.89388 0.0
C1351 C 0.37541 0.95536 0.90004 0.0
C1352 C 0.35741 0.94948 0.88689 0.0
C1353 C 0.35868 0.93521 0.86751 0.0
C1354 C 0.35442 0.98904 0.95201 0.0
C1355 C 0.36873 1.00579 0.95243 0.0
C1356 C 0.357 0.97239 0.93562 0.0
C1357 C 0.374 0.97196 0.91923 0.0
C1358 C 0.38877 0.98828 0.92022 0.0
C1359 C 0.38615 1.00502 0.93662 0.0
H1360 H 0.33124 0.9192 0.44194 0.0
H1361 H 0.3365 0.85255 0.43009 0.0
H1362 H 0.30451 0.92126 0.41031 0.0
H1363 H 0.30926 0.85459 0.39842 0.0
H1364 H 0.2697 0.8725 0.32882 0.0
H1365 H 0.29905 0.86857 0.35742 0.0
H1366 H 0.26823 0.91006 0.40862 0.0
H1367 H 0.2391 0.91397 0.38021 0.0
C1368 C 0.32684 0.90498 0.43239 0.0
C1369 C 0.33586 0.88568 0.43874 0.0
C1370 C 0.31136 0.90614 0.41436 0.0
C1371 C 0.30437 0.88802 0.40222 0.0
C1372 C 0.31426 0.86884 0.40747 0.0
C1373 C 0.3299 0.86768 0.42557 0.0
C1374 C 0.26911 0.88058 0.34632 0.0
C1375 C 0.25215 0.89375 0.35211 0.0
C1376 C 0.28595 0.87835 0.36268 0.0
C1377 C 0.28617 0.88927 0.38513 0.0
C1378 C 0.26886 0.90187 0.39119 0.0
C1379 C 0.25211 0.90409 0.37491 0.0
H1380 H 0.34106 0.0237 0.58506 0.0
H1381 H 0.39694 0.99465 0.61393 0.0
H1382 H 0.34541 0.05271 0.61366 0.0
H1383 H 0.40138 0.02389 0.64246 0.0
H1384 H 0.41083 0.08751 0.67984 0.0
H1385 H 0.40855 0.06225 0.646 0.0
H1386 H 0.342 0.05656 0.65825 0.0
H1387 H 0.34423 0.08173 0.69165 0.0
C1388 C 0.35426 0.02344 0.59755 0.0
C1389 C 0.36849 0.00664 0.59738 0.0
C1390 C 0.3568 0.04015 0.61389 0.0
C1391 C 0.37367 0.04058 0.63046 0.0
C1392 C 0.38833 0.02416 0.62975 0.0
C1393 C 0.38576 0.00737 0.61342 0.0
C1394 C 0.39568 0.08116 0.67496 0.0
C1395 C 0.37772 0.08661 0.68847 0.0
C1396 C 0.3944 0.06654 0.65574 0.0
C1397 C 0.37511 0.05731 0.64948 0.0
C1398 C 0.35708 0.06349 0.66238 0.0
C1399 C 0.35838 0.07788 0.68164 0.0
H1400 H 0.17701 0.16204 0.93119 0.0
H1401 H 0.17943 0.09483 0.93904 0.0
H1402 H 0.20412 0.16017 0.89931 0.0
H1403 H 0.20603 0.09295 0.90723 0.0
H1404 H 0.27194 0.09876 0.87837 0.0
H1405 H 0.24278 0.10282 0.90669 0.0
H1406 H 0.21403 0.14732 0.85745 0.0
H1407 H 0.24342 0.14323 0.8289 0.0
C1408 C 0.18293 0.14686 0.9257 0.0
C1409 C 0.17625 0.12861 0.93783 0.0
C1410 C 0.1985 0.14579 0.9075 0.0
C1411 C 0.2076 0.12645 0.90114 0.0
C1412 C 0.19981 0.10815 0.91217 0.0
C1413 C 0.18441 0.10922 0.93029 0.0
C1414 C 0.25938 0.10934 0.87347 0.0
C1415 C 0.25992 0.12046 0.8512 0.0
C1416 C 0.24261 0.11165 0.8897 0.0
C1417 C 0.22586 0.12513 0.88415 0.0
C1418 C 0.22669 0.13684 0.86229 0.0
C1419 C 0.24355 0.13452 0.84597 0.0
H1420 H 0.16841 0.93338 0.19303 0.0
H1421 H 0.10232 0.92569 0.1789 0.0
H1422 H 0.17081 0.95842 0.15958 0.0
H1423 H 0.1048 0.9508 0.14497 0.0
H1424 H 0.11525 0.01811 0.11192 0.0
H1425 H 0.11093 0.98921 0.14089 0.0
H1426 H 0.16863 0.96182 0.11499 0.0
H1427 H 0.17288 0.9905 0.08596 0.0
C1428 C 0.15442 0.93679 0.18253 0.0
C1429 C 0.13516 0.92754 0.18871 0.0
C1430 C 0.15582 0.95112 0.16323 0.0
C1431 C 0.13799 0.9567 0.14961 0.0
C1432 C 0.11879 0.94699 0.15527 0.0
C1433 C 0.11741 0.93245 0.17454 0.0
C1434 C 0.12686 1.00577 0.11215 0.0
C1435 C 0.14456 0.00683 0.09678 0.0
C1436 C 0.12435 0.98917 0.12874 0.0
C1437 C 0.1395 0.97325 0.13038 0.0
C1438 C 0.15685 0.974 0.11451 0.0
C1439 C 0.15932 0.99052 0.09792 0.0
H1440 H 0.77226 0.91407 0.87444 0.0
H1441 H 0.74267 0.86898 0.82652 0.0
H1442 H 0.74379 0.91024 0.90376 0.0
H1443 H 0.71394 0.86519 0.856 0.0
H1444 H 0.67775 0.85105 0.92999 0.0
H1445 H 0.7045 0.85275 0.89768 0.0
H1446 H 0.70737 0.91991 0.90615 0.0
H1447 H 0.6812 0.91816 0.93843 0.0
C1448 C 0.7596 0.90341 0.87008 0.0
C1449 C 0.75967 0.89202 0.84798 0.0
C1450 C 0.74321 0.90123 0.88689 0.0
C1451 C 0.72634 0.88765 0.88208 0.0
C1452 C 0.72669 0.87574 0.86033 0.0
C1453 C 0.74318 0.8779 0.84345 0.0
C1454 C 0.68383 0.86618 0.92457 0.0
C1455 C 0.67751 0.88445 0.93695 0.0
C1456 C 0.6992 0.86716 0.9061 0.0
C1457 C 0.70845 0.88643 0.89969 0.0
C1458 C 0.70108 0.90474 0.91109 0.0
C1459 C 0.6859 0.90375 0.92949 0.0
H1460 H 0.89649 0.01883 0.61508 0.0
H1461 H 0.84517 0.98649 0.57996 0.0
H1462 H 0.90136 0.98912 0.64281 0.0
H1463 H 0.84996 0.95697 0.60768 0.0
H1464 H 0.84526 0.92624 0.68455 0.0
H1465 H 0.84364 0.95169 0.65145 0.0
H1466 H 0.9111 0.95137 0.6463 0.0
H1467 H 0.91272 0.9258 0.67988 0.0
C1468 C 0.88645 1.00529 0.61302 0.0
C1469 C 0.87023 1.00523 0.5955 0.0
C1470 C 0.88927 0.98823 0.62888 0.0
C1471 C 0.87594 0.97072 0.6276 0.0
C1472 C 0.86027 0.97035 0.60946 0.0
C1473 C 0.85747 0.98734 0.59363 0.0
C1474 C 0.85976 0.93129 0.6761 0.0
C1475 C 0.87912 0.92399 0.68487 0.0
C1476 C 0.85883 0.94586 0.65702 0.0
C1477 C 0.87724 0.95366 0.64624 0.0
C1478 C 0.89664 0.94581 0.65438 0.0
C1479 C 0.89756 0.93099 0.67341 0.0
H1480 H 0.73919 0.09773 0.37791 0.0
H1481 H 0.77106 0.13873 0.32713 0.0
H1482 H 0.76773 0.10172 0.40712 0.0
H1483 H 0.79984 0.14269 0.35649 0.0
H1484 H 0.83619 0.15946 0.42931 0.0
H1485 H 0.80945 0.15703 0.39712 0.0
H1486 H 0.80369 0.09069 0.4108 0.0
H1487 H 0.8299 0.09318 0.44298 0.0
C1488 C 0.75236 0.10751 0.37291 0.0
C1489 C 0.75289 0.11773 0.35005 0.0
C1490 C 0.76879 0.10977 0.38965 0.0
C1491 C 0.78628 0.12228 0.38403 0.0
C1492 C 0.78658 0.13301 0.36146 0.0
C1493 C 0.77007 0.13075 0.34465 0.0
C1494 C 0.82946 0.14432 0.42511 0.0
C1495 C 0.83502 0.12656 0.4389 0.0
C1496 C 0.81411 0.14292 0.40669 0.0
C1497 C 0.80408 0.12373 0.40171 0.0
C1498 C 0.81062 0.10583 0.41459 0.0
C1499 C 0.82582 0.10723 0.43294 0.0
H1500 H 0.61296 0.99759 0.10606 0.0
H1501 H 0.67196 0.02418 0.08299 0.0
H1502 H 0.60906 0.02559 0.1364 0.0
H1503 H 0.66761 0.05248 0.11239 0.0
H1504 H 0.66772 0.07995 0.19017 0.0
H1505 H 0.6696 0.05539 0.15629 0.0
H1506 H 0.60349 0.06356 0.14274 0.0
H1507 H 0.60151 0.08813 0.17737 0.0
C1508 C 0.62503 0.00944 0.10733 0.0
C1509 C 0.64282 0.0085 0.09208 0.0
C1510 C 0.62265 0.02566 0.12451 0.0
C1511 C 0.63805 0.04129 0.12692 0.0
C1512 C 0.65555 0.0406 0.11126 0.0
C1513 C 0.65793 0.02444 0.09416 0.0
C1514 C 0.65357 0.07675 0.17985 0.0
C1515 C 0.63445 0.08601 0.18657 0.0
C1516 C 0.65469 0.0627 0.16026 0.0
C1517 C 0.6367 0.05743 0.14673 0.0
C1518 C 0.61761 0.06712 0.15294 0.0
C1519 C 0.61651 0.08136 0.1726 0.0
H1520 H 0.73852 0.09288 0.71585 0.0
H1521 H 0.76721 0.14939 0.68821 0.0
H1522 H 0.71003 0.09686 0.68657 0.0
H1523 H 0.73888 0.15299 0.65822 0.0
H1524 H 0.67542 0.16141 0.61933 0.0
H1525 H 0.70051 0.15976 0.65344 0.0
H1526 H 0.7069 0.09315 0.6422 0.0
H1527 H 0.68192 0.09474 0.60861 0.0
C1528 C 0.73867 0.10629 0.70369 0.0
C1529 C 0.75523 0.12081 0.70443 0.0
C1530 C 0.7224 0.10845 0.68672 0.0
C1531 C 0.72219 0.1252 0.66996 0.0
C1532 C 0.73847 0.14001 0.67101 0.0
C1533 C 0.75484 0.1378 0.68799 0.0
C1534 C 0.68192 0.14638 0.62449 0.0
C1535 C 0.67668 0.1282 0.61125 0.0
C1536 C 0.69644 0.14547 0.64385 0.0
C1537 C 0.70578 0.12633 0.65051 0.0
C1538 C 0.69988 0.10811 0.63778 0.0
C1539 C 0.6856 0.10905 0.61841 0.0
H1540 H 0.66867 0.98697 0.46836 0.0
H1541 H 0.61516 0.01836 0.43686 0.0
H1542 H 0.66437 0.95836 0.43918 0.0
H1543 H 0.61119 0.98986 0.40715 0.0
H1544 H 0.60074 0.92665 0.36867 0.0
H1545 H 0.6025 0.95166 0.40286 0.0
H1546 H 0.66967 0.9548 0.39473 0.0
H1547 H 0.66793 0.92993 0.36096 0.0
C1548 C 0.65584 0.98768 0.45537 0.0
C1549 C 0.64228 1.00502 0.45497 0.0
C1550 C 0.65348 0.97133 0.4385 0.0
C1551 C 0.63747 0.97182 0.42078 0.0
C1552 C 0.62357 0.9889 0.4207 0.0
C1553 C 0.626 1.00535 0.43754 0.0
C1554 C 0.61589 0.93238 0.37455 0.0
C1555 C 0.6342 0.92631 0.3621 0.0
C1556 C 0.61688 0.94687 0.39395 0.0
C1557 C 0.63622 0.9553 0.40146 0.0
C1558 C 0.65454 0.9485 0.38961 0.0
C1559 C 0.65353 0.93427 0.37015 0.0
H1560 H 0.83454 0.85153 0.11768 0.0
H1561 H 0.83352 0.91881 0.11053 0.0
H1562 H 0.8077 0.85374 0.14986 0.0
H1563 H 0.80725 0.92105 0.14267 0.0
H1564 H 0.74166 0.91681 0.17277 0.0
H1565 H 0.77044 0.9124 0.14401 0.0
H1566 H 0.79821 0.86612 0.19175 0.0
H1567 H 0.76916 0.87052 0.2207 0.0
C1568 C 0.829 0.86679 0.12339 0.0
C1569 C 0.83599 0.88498 0.11138 0.0
C1570 C 0.81357 0.86806 0.14177 0.0
C1571 C 0.80495 0.88755 0.14845 0.0
C1572 C 0.81306 0.90575 0.1375 0.0
C1573 C 0.82828 0.90447 0.11919 0.0
C1574 C 0.75393 0.90576 0.17725 0.0
C1575 C 0.75318 0.89421 0.19921 0.0
C1576 C 0.77049 0.90325 0.16076 0.0
C1577 C 0.78687 0.88916 0.16574 0.0
C1578 C 0.78584 0.87707 0.18732 0.0
C1579 C 0.76918 0.87958 0.20388 0.0
H1580 H 0.84333 0.08244 0.85924 0.0
H1581 H 0.91013 0.08722 0.86992 0.0
H1582 H 0.8411 0.05742 0.89276 0.0
H1583 H 0.90787 0.06209 0.90388 0.0
H1584 H 0.89551 0.99469 0.93619 0.0
H1585 H 0.90009 0.0238 0.90758 0.0
H1586 H 0.84501 0.05362 0.93733 0.0
H1587 H 0.84053 0.02475 0.96605 0.0
C1588 C 0.85752 0.07841 0.86904 0.0
C1589 C 0.87691 0.08682 0.86187 0.0
C1590 C 0.85623 0.0641 0.88837 0.0
C1591 C 0.87431 0.05767 0.90098 0.0
C1592 C 0.89367 0.06658 0.89437 0.0
C1593 C 0.89494 0.08114 0.8751 0.0
C1594 C 0.88455 0.0076 0.9369 0.0
C1595 C 0.86748 0.00718 0.95326 0.0
C1596 C 0.88721 0.02432 0.92052 0.0
C1597 C 0.87284 0.04099 0.92005 0.0
C1598 C 0.85617 0.04087 0.93692 0.0
C1599 C 0.85355 0.02424 0.95332 0.0
H1600 H 0.74522 0.64997 0.68663 0.0
H1601 H 0.77464 0.59491 0.71704 0.0
H1602 H 0.7739 0.65333 0.65706 0.0
H1603 H 0.80347 0.59869 0.6882 0.0
H1604 H 0.83229 0.59473 0.61067 0.0
H1605 H 0.80712 0.59369 0.64409 0.0
H1606 H 0.81221 0.66071 0.65255 0.0
H1607 H 0.83748 0.66179 0.61859 0.0
C1608 C 0.75783 0.63867 0.68711 0.0
C1609 C 0.75754 0.62213 0.7042 0.0
C1610 C 0.7744 0.64075 0.67038 0.0
C1611 C 0.79098 0.62626 0.67023 0.0
C1612 C 0.79088 0.61002 0.68765 0.0
C1613 C 0.7744 0.60797 0.70437 0.0
C1614 C 0.8283 0.60925 0.61984 0.0
C1615 C 0.83689 0.62835 0.61194 0.0
C1616 C 0.8139 0.60863 0.63912 0.0
C1617 C 0.80758 0.62712 0.65099 0.0
C1618 C 0.81662 0.64622 0.64362 0.0
C1619 C 0.83126 0.64681 0.62437 0.0
H1620 H 0.6687 0.58062 0.85643 0.0
H1621 H 0.60225 0.58702 0.86887 0.0
H1622 H 0.67086 0.55524 0.88957 0.0
H1623 H 0.60446 0.56152 0.90246 0.0
H1624 H 0.61576 0.49379 0.93443 0.0
H1625 H 0.61133 0.52303 0.90594 0.0
H1626 H 0.66771 0.55151 0.93419 0.0
H1627 H 0.67206 0.52251 0.96273 0.0
C1628 C 0.65457 0.57684 0.86651 0.0
C1629 C 0.6353 0.58583 0.85996 0.0
C1630 C 0.65584 0.56233 0.88563 0.0
C1631 C 0.63783 0.55628 0.89866 0.0
C1632 C 0.61859 0.56571 0.89262 0.0
C1633 C 0.61736 0.58046 0.87355 0.0
C1634 C 0.62705 0.50643 0.93482 0.0
C1635 C 0.64444 0.5056 0.95068 0.0
C1636 C 0.62447 0.52323 0.91852 0.0
C1637 C 0.63926 0.53954 0.91766 0.0
C1638 C 0.65624 0.53902 0.93407 0.0
C1639 C 0.65878 0.52232 0.95037 0.0
H1640 H 0.67537 0.3529 0.12002 0.0
H1641 H 0.68232 0.41915 0.1065 0.0
H1642 H 0.70053 0.35544 0.15393 0.0
H1643 H 0.70737 0.42162 0.13998 0.0
H1644 H 0.73943 0.42345 0.21372 0.0
H1645 H 0.71075 0.41906 0.18469 0.0
H1646 H 0.73898 0.36209 0.15782 0.0
H1647 H 0.7679 0.36657 0.18675 0.0
C1648 C 0.68198 0.36804 0.12452 0.0
C1649 C 0.67686 0.38582 0.11052 0.0
C1650 C 0.69653 0.36946 0.14378 0.0
C1651 C 0.70603 0.38872 0.14962 0.0
C1652 C 0.70023 0.40658 0.13619 0.0
C1653 C 0.6859 0.40514 0.11688 0.0
C1654 C 0.73964 0.41003 0.20155 0.0
C1655 C 0.75619 0.39552 0.20241 0.0
C1656 C 0.72312 0.40747 0.18496 0.0
C1657 C 0.72261 0.39029 0.16882 0.0
C1658 C 0.73877 0.37538 0.17018 0.0
C1659 C 0.75538 0.37798 0.18675 0.0
H1660 H 0.8406 0.48832 0.46561 0.0
H1661 H 0.90021 0.51404 0.44335 0.0
H1662 H 0.84463 0.46018 0.43594 0.0
H1663 H 0.9038 0.48622 0.41273 0.0
H1664 H 0.91057 0.42376 0.37142 0.0
H1665 H 0.90876 0.44821 0.40618 0.0
H1666 H 0.84291 0.45763 0.39198 0.0
H1667 H 0.84461 0.43319 0.35798 0.0
C1668 C 0.85469 0.4879 0.45455 0.0
C1669 C 0.87007 0.50354 0.45694 0.0
C1670 C 0.85689 0.47184 0.4373 0.0
C1671 C 0.87448 0.47096 0.4218 0.0
C1672 C 0.89013 0.4863 0.4245 0.0
C1673 C 0.88793 0.50242 0.44184 0.0
C1674 C 0.89566 0.43079 0.37606 0.0
C1675 C 0.87775 0.42653 0.36189 0.0
C1676 C 0.89466 0.44495 0.3958 0.0
C1677 C 0.87569 0.45494 0.40188 0.0
C1678 C 0.85772 0.45007 0.38812 0.0
C1679 C 0.85874 0.43609 0.36845 0.0
H1680 H 0.77385 0.41866 0.83241 0.0
H1681 H 0.7446 0.36319 0.86209 0.0
H1682 H 0.80275 0.41466 0.86112 0.0
H1683 H 0.77334 0.35961 0.89153 0.0
H1684 H 0.83693 0.35082 0.92965 0.0
H1685 H 0.81162 0.35226 0.89576 0.0
H1686 H 0.80652 0.41918 0.90528 0.0
H1687 H 0.83172 0.41778 0.93865 0.0
C1688 C 0.77366 0.40547 0.84489 0.0
C1689 C 0.75684 0.39125 0.8449 0.0
C1690 C 0.79017 0.40329 0.86153 0.0
C1691 C 0.79034 0.38686 0.8787 0.0
C1692 C 0.77379 0.37233 0.87839 0.0
C1693 C 0.75719 0.37454 0.86173 0.0
C1694 C 0.83069 0.36586 0.92413 0.0
C1695 C 0.83632 0.38419 0.93685 0.0
C1696 C 0.81604 0.36666 0.90491 0.0
C1697 C 0.80698 0.38583 0.89787 0.0
C1698 C 0.81331 0.40419 0.91001 0.0
C1699 C 0.82773 0.40337 0.92925 0.0
H1700 H 0.91197 0.58574 0.17954 0.0
H1701 H 0.84464 0.58384 0.18601 0.0
H1702 H 0.91017 0.56062 0.14545 0.0
H1703 H 0.84286 0.55887 0.15236 0.0
H1704 H 0.844 0.52587 0.07943 0.0
H1705 H 0.84869 0.55482 0.10805 0.0
H1706 H 0.90078 0.52258 0.14149 0.0
H1707 H 0.89596 0.49339 0.11296 0.0
C1708 C 0.89679 0.58031 0.17339 0.0
C1709 C 0.87845 0.58676 0.18548 0.0
C1710 C 0.89577 0.56576 0.15406 0.0
C1711 C 0.87637 0.55767 0.14624 0.0
C1712 C 0.85804 0.56491 0.1577 0.0
C1713 C 0.85907 0.57918 0.1771 0.0
C1714 C 0.85641 0.52486 0.09293 0.0
C1715 C 0.86939 0.5071 0.09408 0.0
C1716 C 0.85916 0.54153 0.10927 0.0
C1717 C 0.87502 0.54097 0.12716 0.0
C1718 C 0.88854 0.52361 0.12776 0.0
C1719 C 0.88574 0.50685 0.11142 0.0
H1720 H 0.77336 0.5975 0.37646 0.0
H1721 H 0.74123 0.63902 0.32652 0.0
H1722 H 0.74504 0.60128 0.40601 0.0
H1723 H 0.71267 0.64274 0.35618 0.0
H1724 H 0.67678 0.65917 0.42917 0.0
H1725 H 0.70334 0.65679 0.3968 0.0
H1726 H 0.70916 0.59044 0.41031 0.0
H1727 H 0.68314 0.59288 0.44272 0.0
C1728 C 0.76016 0.60734 0.37171 0.0
C1729 C 0.75951 0.6178 0.34901 0.0
C1730 C 0.74387 0.60948 0.38865 0.0
C1731 C 0.72637 0.62209 0.38336 0.0
C1732 C 0.72593 0.633 0.36091 0.0
C1733 C 0.74232 0.63088 0.34392 0.0
C1734 C 0.68349 0.64403 0.42491 0.0
C1735 C 0.67799 0.62625 0.43871 0.0
C1736 C 0.69874 0.64267 0.40637 0.0
C1737 C 0.70872 0.62349 0.40127 0.0
C1738 C 0.70227 0.60557 0.41419 0.0
C1739 C 0.68718 0.60694 0.43267 0.0
H1740 H 0.66839 0.43206 0.69255 0.0
H1741 H 0.60202 0.4253 0.67963 0.0
H1742 H 0.67067 0.45717 0.65914 0.0
H1743 H 0.60437 0.45052 0.64578 0.0
H1744 H 0.61567 0.51826 0.61384 0.0
H1745 H 0.61117 0.48905 0.64235 0.0
H1746 H 0.66767 0.46063 0.6144 0.0
H1747 H 0.67208 0.48961 0.58582 0.0
C1748 C 0.65431 0.4357 0.68231 0.0
C1749 C 0.63502 0.42671 0.6888 0.0
C1750 C 0.65565 0.45005 0.66304 0.0
C1751 C 0.63769 0.45592 0.64982 0.0
C1752 C 0.61845 0.44646 0.65578 0.0
C1753 C 0.61714 0.43187 0.675 0.0
C1754 C 0.62696 0.50563 0.61351 0.0
C1755 C 0.6444 0.50647 0.59774 0.0
C1756 C 0.62435 0.48886 0.62982 0.0
C1757 C 0.63914 0.47258 0.63076 0.0
C1758 C 0.65618 0.47309 0.61443 0.0
C1759 C 0.65875 0.48978 0.59812 0.0
H1760 H 0.18016 0.41923 0.43799 0.0
H1761 H 0.17666 0.3521 0.42978 0.0
H1762 H 0.2053 0.42102 0.40455 0.0
H1763 H 0.20195 0.35391 0.39588 0.0
H1764 H 0.26921 0.36676 0.36308 0.0
H1765 H 0.24012 0.36231 0.3918 0.0
H1766 H 0.20932 0.41607 0.36022 0.0
H1767 H 0.23816 0.42041 0.33142 0.0
C1768 C 0.18451 0.40485 0.42875 0.0
C1769 C 0.1764 0.38552 0.43659 0.0
C1770 C 0.19889 0.40589 0.40947 0.0
C1771 C 0.20572 0.38761 0.39754 0.0
C1772 C 0.19714 0.36827 0.40483 0.0
C1773 C 0.1825 0.36725 0.42407 0.0
C1774 C 0.25609 0.37745 0.362 0.0
C1775 C 0.25623 0.39413 0.34509 0.0
C1776 C 0.23938 0.37486 0.37845 0.0
C1777 C 0.22244 0.38892 0.37844 0.0
C1778 C 0.22228 0.40517 0.36103 0.0
C1779 C 0.23891 0.40771 0.34457 0.0
H1780 H 0.4124 0.42694 0.18117 0.0
H1781 H 0.34497 0.42731 0.18651 0.0
H1782 H 0.41061 0.45433 0.14961 0.0
H1783 H 0.34318 0.45421 0.15505 0.0
H1784 H 0.34798 0.52079 0.12806 0.0
H1785 H 0.35217 0.49132 0.15584 0.0
H1786 H 0.39844 0.46446 0.10733 0.0
H1787 H 0.39417 0.49415 0.07926 0.0
C1788 C 0.39721 0.43245 0.17516 0.0
C1789 C 0.37884 0.42512 0.18651 0.0
C1790 C 0.39618 0.44819 0.15715 0.0
C1791 C 0.37677 0.45681 0.15024 0.0
C1792 C 0.35842 0.44836 0.16043 0.0
C1793 C 0.35944 0.43278 0.17834 0.0
C1794 C 0.35898 0.50858 0.12318 0.0
C1795 C 0.37052 0.50975 0.10124 0.0
C1796 C 0.36137 0.49163 0.13912 0.0
C1797 C 0.37538 0.47531 0.1336 0.0
C1798 C 0.38754 0.47678 0.11212 0.0
C1799 C 0.38511 0.49381 0.09607 0.0
H1800 H 0.24436 0.64527 0.86336 0.0
H1801 H 0.27416 0.58952 0.83512 0.0
H1802 H 0.27335 0.65014 0.89212 0.0
H1803 H 0.3029 0.5943 0.86398 0.0
H1804 H 0.33148 0.59385 0.94217 0.0
H1805 H 0.30647 0.5912 0.90866 0.0
H1806 H 0.31167 0.6577 0.89591 0.0
H1807 H 0.33679 0.66041 0.92985 0.0
C1808 C 0.25719 0.6342 0.86303 0.0
C1809 C 0.25673 0.61684 0.84709 0.0
C1810 C 0.27384 0.63703 0.87951 0.0
C1811 C 0.29039 0.62253 0.88047 0.0
C1812 C 0.29023 0.60556 0.86401 0.0
C1813 C 0.27368 0.60278 0.84753 0.0
C1814 C 0.32755 0.6079 0.93204 0.0
C1815 C 0.33612 0.62735 0.93875 0.0
C1816 C 0.31325 0.60636 0.91272 0.0
C1817 C 0.30699 0.62424 0.89963 0.0
C1818 C 0.31603 0.64366 0.90579 0.0
C1819 C 0.33057 0.64517 0.92507 0.0
H1820 H 0.10216 0.58677 0.68007 0.0
H1821 H 0.16921 0.58293 0.68894 0.0
H1822 H 0.10414 0.56189 0.64574 0.0
H1823 H 0.17117 0.55823 0.65502 0.0
H1824 H 0.17092 0.52609 0.58147 0.0
H1825 H 0.16632 0.55483 0.61039 0.0
H1826 H 0.11264 0.52359 0.64164 0.0
H1827 H 0.11737 0.49458 0.61284 0.0
C1828 C 0.11733 0.58095 0.6744 0.0
C1829 C 0.13553 0.58679 0.68724 0.0
C1830 C 0.11845 0.56656 0.65493 0.0
C1831 C 0.13781 0.55801 0.6477 0.0
C1832 C 0.15603 0.56463 0.65991 0.0
C1833 C 0.1549 0.57875 0.67945 0.0
C1834 C 0.15817 0.52524 0.59456 0.0
C1835 C 0.14471 0.50781 0.59501 0.0
C1836 C 0.15548 0.5418 0.61107 0.0
C1837 C 0.13919 0.54147 0.62843 0.0
C1838 C 0.12522 0.52444 0.62832 0.0
C1839 C 0.12796 0.50779 0.61183 0.0
H1840 H 0.18093 0.59493 0.11082 0.0
H1841 H 0.17612 0.66193 0.11979 0.0
H1842 H 0.20608 0.59338 0.14421 0.0
H1843 H 0.20139 0.66033 0.15373 0.0
H1844 H 0.26823 0.649 0.18779 0.0
H1845 H 0.23959 0.65279 0.15826 0.0
H1846 H 0.20988 0.59776 0.18831 0.0
H1847 H 0.23868 0.59354 0.2171 0.0
C1848 C 0.185 0.60933 0.12021 0.0
C1849 C 0.17653 0.62856 0.11259 0.0
C1850 C 0.19939 0.60842 0.13948 0.0
C1851 C 0.20583 0.62673 0.15164 0.0
C1852 C 0.1969 0.64596 0.14457 0.0
C1853 C 0.18227 0.64685 0.12532 0.0
C1854 C 0.2556 0.63769 0.18805 0.0
C1855 C 0.25585 0.62092 0.20482 0.0
C1856 C 0.23905 0.64002 0.17133 0.0
C1857 C 0.22243 0.62556 0.17088 0.0
C1858 C 0.2225 0.60908 0.18798 0.0
C1859 C 0.23896 0.60678 0.20468 0.0
H1860 H 0.16788 0.42922 0.86238 0.0
H1861 H 0.10054 0.42764 0.86872 0.0
H1862 H 0.16975 0.45415 0.89607 0.0
H1863 H 0.10242 0.45277 0.90284 0.0
H1864 H 0.11715 0.51989 0.93571 0.0
H1865 H 0.11212 0.49084 0.90703 0.0
H1866 H 0.16384 0.45803 0.94045 0.0
H1867 H 0.16873 0.48681 0.96923 0.0
C1868 C 0.15346 0.43395 0.87127 0.0
C1869 C 0.13406 0.42645 0.86286 0.0
C1870 C 0.15454 0.44821 0.89069 0.0
C1871 C 0.13623 0.45553 0.90214 0.0
C1872 C 0.1168 0.44755 0.89426 0.0
C1873 C 0.11573 0.43301 0.87491 0.0
C1874 C 0.12724 0.50634 0.93722 0.0
C1875 C 0.14355 0.50589 0.95462 0.0
C1876 C 0.12432 0.48966 0.92079 0.0
C1877 C 0.13768 0.47217 0.92132 0.0
C1878 C 0.1535 0.47141 0.93926 0.0
C1879 C 0.15636 0.488 0.9557 0.0
H1880 H 0.3267 0.41886 0.60547 0.0
H1881 H 0.33846 0.35383 0.62218 0.0
H1882 H 0.30206 0.42088 0.63921 0.0
H1883 H 0.31381 0.35601 0.6567 0.0
H1884 H 0.24804 0.36351 0.69412 0.0
H1885 H 0.27571 0.35983 0.66334 0.0
H1886 H 0.29962 0.42078 0.68315 0.0
H1887 H 0.2716 0.42486 0.71294 0.0
C1888 C 0.32426 0.40502 0.61659 0.0
C1889 C 0.33458 0.38616 0.61104 0.0
C1890 C 0.31016 0.40623 0.63611 0.0
C1891 C 0.3059 0.38862 0.65076 0.0
C1892 C 0.31658 0.36982 0.64564 0.0
C1893 C 0.33086 0.36862 0.62603 0.0
C1894 C 0.25914 0.37617 0.69181 0.0
C1895 C 0.25747 0.39452 0.70602 0.0
C1896 C 0.27519 0.37393 0.67439 0.0
C1897 C 0.2899 0.39003 0.67069 0.0
C1898 C 0.28845 0.40815 0.68527 0.0
C1899 C 0.27246 0.4104 0.7026 0.0
H1900 H 0.39732 0.4958 0.43795 0.0
H1901 H 0.3414 0.52522 0.46619 0.0
H1902 H 0.40135 0.52427 0.40827 0.0
H1903 H 0.34576 0.55383 0.43708 0.0
H1904 H 0.34433 0.58204 0.3588 0.0
H1905 H 0.34215 0.55714 0.39246 0.0
H1906 H 0.40877 0.56264 0.40421 0.0
H1907 H 0.411 0.58765 0.37013 0.0
C1908 C 0.38595 0.50837 0.43792 0.0
C1909 C 0.36899 0.50816 0.45442 0.0
C1910 C 0.38841 0.52481 0.42111 0.0
C1911 C 0.37387 0.54133 0.42029 0.0
C1912 C 0.35715 0.54128 0.43709 0.0
C1913 C 0.35476 0.52494 0.45394 0.0
C1914 C 0.3585 0.5782 0.36875 0.0
C1915 C 0.37784 0.58683 0.36175 0.0
C1916 C 0.35723 0.56396 0.38815 0.0
C1917 C 0.37529 0.55782 0.40099 0.0
C1918 C 0.3946 0.56691 0.39451 0.0
C1919 C 0.39584 0.5814 0.37518 0.0
H1920 H 0.16326 0.26274 0.40357 0.0
H1921 H 0.09606 0.25548 0.40174 0.0
H1922 H 0.16686 0.23439 0.37401 0.0
H1923 H 0.09976 0.22639 0.37291 0.0
H1924 H 0.11457 0.18274 0.30642 0.0
H1925 H 0.10974 0.21457 0.33139 0.0
H1926 H 0.16316 0.19727 0.37558 0.0
H1927 H 0.16803 0.1662 0.35082 0.0
C1928 C 0.1492 0.25528 0.39672 0.0
C1929 C 0.12938 0.26143 0.40536 0.0
C1930 C 0.15128 0.23877 0.37992 0.0
C1931 C 0.13362 0.22779 0.37123 0.0
C1932 C 0.11372 0.23444 0.37909 0.0
C1933 C 0.11163 0.25101 0.39592 0.0
C1934 C 0.12525 0.18588 0.32143 0.0
C1935 C 0.14173 0.17196 0.32652 0.0
C1936 C 0.12247 0.20405 0.33581 0.0
C1937 C 0.13621 0.20871 0.35542 0.0
C1938 C 0.15255 0.19462 0.36036 0.0
C1939 C 0.15526 0.17661 0.34618 0.0
H1940 H 0.08117 0.86276 0.55609 0.0
H1941 H 0.09819 0.91665 0.59962 0.0
H1942 H 0.04959 0.85816 0.58154 0.0
H1943 H 0.06737 0.91201 0.62484 0.0
H1944 H 1.00208 0.91263 0.65331 0.0
H1945 H 0.03027 0.9158 0.62352 0.0
H1946 H 0.03795 0.84867 0.6233 0.0
H1947 H 0.009 0.84539 0.65238 0.0
C1948 C 0.0782 0.87358 0.57103 0.0
C1949 C 0.09216 0.89012 0.57571 0.0
C1950 C 0.06016 0.87094 0.58567 0.0
C1951 C 0.05569 0.88488 0.60516 0.0
C1952 C 0.06986 0.90125 0.60973 0.0
C1953 C 0.08773 0.90382 0.59527 0.0
C1954 C 0.00943 0.89847 0.64662 0.0
C1955 C 1.00322 0.87877 0.65556 0.0
C1956 C 0.02585 0.9003 0.62968 0.0
C1957 C 0.0367 0.88251 0.62116 0.0
C1958 C 0.03 0.86273 0.62933 0.0
C1959 C 0.01352 0.86088 0.64631 0.0
H1960 H 0.39935 0.83029 0.80478 0.0
H1961 H 0.34601 0.84748 0.84909 0.0
H1962 H 0.40388 0.79851 0.82987 0.0
H1963 H 0.35055 0.81643 0.8739 0.0
H1964 H 0.34943 0.75112 0.90173 0.0
H1965 H 0.34639 0.7793 0.87193 0.0
H1966 H 0.41355 0.7867 0.87168 0.0
H1967 H 0.41671 0.75775 0.90076 0.0
C1968 C 0.38866 0.82733 0.81983 0.0
C1969 C 0.37229 0.8414 0.82485 0.0
C1970 C 0.39124 0.80916 0.83424 0.0
C1971 C 0.3774 0.80468 0.85381 0.0
C1972 C 0.36121 0.81895 0.85871 0.0
C1973 C 0.3587 0.83694 0.84449 0.0
C1974 C 0.36363 0.75839 0.895 0.0
C1975 C 0.38331 0.75214 0.90397 0.0
C1976 C 0.36187 0.7748 0.87807 0.0
C1977 C 0.3797 0.78559 0.86959 0.0
C1978 C 0.39947 0.77879 0.87771 0.0
C1979 C 0.40124 0.76232 0.89468 0.0
H1980 H 0.41359 0.0957 0.10133 0.0
H1981 H 0.43218 0.14764 0.0556 0.0
H1982 H 0.44442 0.1004 0.12657 0.0
H1983 H 0.46375 0.15228 0.08103 0.0
H1984 H 0.50493 0.16624 0.15091 0.0
H1985 H 0.47574 0.1628 0.12218 0.0
H1986 H 0.48135 0.09553 0.12564 0.0
H1987 H 0.50976 0.09891 0.15511 0.0
C1988 C 0.42439 0.10811 0.09652 0.0
C1989 C 0.4204 0.12125 0.07633 0.0
C1990 C 0.44225 0.11071 0.11098 0.0
C1991 C 0.45687 0.12654 0.10577 0.0
C1992 C 0.45283 0.13995 0.08568 0.0
C1993 C 0.43478 0.13729 0.07105 0.0
C1994 C 0.4999 0.15069 0.14564 0.0
C1995 C 0.50969 0.13285 0.1557 0.0
C1996 C 0.48328 0.14874 0.12886 0.0
C1997 C 0.47593 0.12889 0.12168 0.0
C1998 C 0.48625 0.1111 0.13103 0.0
C1999 C 0.50281 0.11304 0.14777 0.0
H2000 H 0.16716 0.84953 0.1994 0.0
H2001 H 0.11275 0.83155 0.24143 0.0
H2002 H 0.16233 0.81977 0.17253 0.0
H2003 H 0.10749 0.80146 0.21365 0.0
H2004 H 0.12023 0.73834 0.17024 0.0
H2005 H 0.12318 0.76719 0.19985 0.0
H2006 H 0.13867 0.80935 0.14059 0.0
H2007 H 0.13654 0.78069 0.11142 0.0
C2008 C 0.15403 0.83922 0.2029 0.0
C2009 C 0.14022 0.84311 0.22251 0.0
C2010 C 0.15117 0.82214 0.18727 0.0
C2011 C 0.13433 0.80829 0.19056 0.0
C2012 C 0.12066 0.8118 0.21055 0.0
C2013 C 0.12355 0.8291 0.22637 0.0
C2014 C 0.12443 0.75375 0.16358 0.0
C2015 C 0.12819 0.75707 0.13833 0.0
C2016 C 0.12585 0.77035 0.18055 0.0
C2017 C 0.13127 0.79065 0.17271 0.0
C2018 C 0.13474 0.79393 0.14744 0.0
C2019 C 0.1333 0.77745 0.13059 0.0
H2020 H 0.50375 0.84658 0.39615 0.0
H2021 H 0.51162 0.91372 0.39561 0.0
H2022 H 0.47494 0.85014 0.42537 0.0
H2023 H 0.48356 0.91716 0.42554 0.0
H2024 H 0.41575 0.9187 0.45018 0.0
H2025 H 0.44641 0.91392 0.4247 0.0
H2026 H 0.4637 0.85952 0.46719 0.0
H2027 H 0.4323 0.86427 0.49288 0.0
C2028 C 0.49946 0.86211 0.40233 0.0
C2029 C 0.50999 0.87988 0.39316 0.0
C2030 C 0.48306 0.86411 0.41938 0.0
C2031 C 0.47667 0.88395 0.42774 0.0
C2032 C 0.48773 0.90163 0.41926 0.0
C2033 C 0.50408 0.89963 0.40224 0.0
C2034 C 0.42607 0.90573 0.45429 0.0
C2035 C 0.42154 0.8919 0.47368 0.0
C2036 C 0.44385 0.90307 0.43968 0.0
C2037 C 0.45782 0.88648 0.44393 0.0
C2038 C 0.45327 0.87245 0.46328 0.0
C2039 C 0.43533 0.87517 0.47807 0.0
H2040 H 0.41509 0.25291 0.64346 0.0
H2041 H 0.34864 0.26369 0.65078 0.0
H2042 H 0.41272 0.22411 0.67291 0.0
H2043 H 0.34631 0.23485 0.67987 0.0
H2044 H 0.34495 0.16594 0.70097 0.0
H2045 H 0.34925 0.19695 0.67596 0.0
H2046 H 0.40474 0.21351 0.71689 0.0
H2047 H 0.40032 0.18194 0.74244 0.0
C2048 C 0.40002 0.2494 0.65156 0.0
C2049 C 0.382 0.2606 0.64438 0.0
C2050 C 0.39869 0.23284 0.6685 0.0
C2051 C 0.3793 0.22696 0.67861 0.0
C2052 C 0.36145 0.23864 0.6721 0.0
C2053 C 0.36278 0.25518 0.65529 0.0
C2054 C 0.35807 0.17617 0.70487 0.0
C2055 C 0.37229 0.1714 0.7238 0.0
C2056 C 0.36046 0.1941 0.69052 0.0
C2057 C 0.37721 0.20792 0.69448 0.0
C2058 C 0.39168 0.20315 0.71329 0.0
C2059 C 0.38915 0.18511 0.72794 0.0
H2060 H 0.0794 0.1478 0.99441 0.0
H2061 H 0.09816 0.09645 0.94776 0.0
H2062 H 0.0475 0.1522 0.96944 0.0
H2063 H 0.06704 0.10091 0.92305 0.0
H2064 H 1.00178 0.09833 0.89539 0.0
H2065 H 0.03013 0.0954 0.92495 0.0
H2066 H 0.03512 0.16274 0.9281 0.0
H2067 H 1.00594 0.16574 0.89926 0.0
C2068 C 0.07676 0.13752 0.97888 0.0
C2069 C 0.09128 0.12171 0.9732 0.0
C2070 C 0.05853 0.14004 0.96452 0.0
C2071 C 0.05446 0.1267 0.94435 0.0
C2072 C 0.06923 0.11114 0.93873 0.0
C2073 C 0.08726 0.10868 0.95289 0.0
C2074 C 0.00853 0.11258 0.90271 0.0
C2075 C 1.00153 0.13228 0.89462 0.0
C2076 C 0.02506 0.11089 0.91951 0.0
C2077 C 0.03524 0.12883 0.92872 0.0
C2078 C 0.0277 0.14857 0.92148 0.0
C2079 C 0.01109 0.15027 0.90465 0.0
H2080 H 0.84744 0.84624 0.69561 0.0
H2081 H 0.89909 0.8287 0.74242 0.0
H2082 H 0.85243 0.81505 0.67119 0.0
H2083 H 0.90408 0.79673 0.71766 0.0
H2084 H 0.9183 0.75563 0.64693 0.0
H2085 H 0.91482 0.78472 0.67587 0.0
H2086 H 0.84763 0.77789 0.67381 0.0
H2087 H 0.851 0.74957 0.64422 0.0
C2088 C 0.85985 0.8356 0.70085 0.0
C2089 C 0.87281 0.83999 0.72111 0.0
C2090 C 0.86262 0.81753 0.68684 0.0
C2091 C 0.87846 0.8031 0.69256 0.0
C2092 C 0.89172 0.80752 0.7127 0.0
C2093 C 0.88886 0.82578 0.72692 0.0
C2094 C 0.90276 0.76035 0.65261 0.0
C2095 C 0.88492 0.75029 0.64288 0.0
C2096 C 0.9008 0.7769 0.66948 0.0
C2097 C 0.88094 0.78388 0.67703 0.0
C2098 C 0.86318 0.77322 0.66813 0.0
C2099 C 0.86513 0.75673 0.6513 0.0
H2100 H 0.02451 0.1427 0.42029 0.0
H2101 H 0.98222 0.12616 0.36145 0.0
H2102 H 0.99572 0.13947 0.44991 0.0
H2103 H 0.95361 0.12372 0.39064 0.0
H2104 H 0.91394 0.09464 0.44962 0.0
H2105 H 0.94356 0.09983 0.42263 0.0
H2106 H 0.96128 0.15495 0.46365 0.0
H2107 H 0.93133 0.14936 0.4915 0.0
C2108 C 0.00913 0.13839 0.41363 0.0
C2109 C 1.0058 0.13465 0.38838 0.0
C2110 C 0.99256 0.13681 0.4306 0.0
C2111 C 0.9723 0.13124 0.42276 0.0
C2112 C 0.96901 0.12777 0.39749 0.0
C2113 C 0.98545 0.1294 0.38062 0.0
C2114 C 0.92409 0.1079 0.45306 0.0
C2115 C 0.92008 0.1217 0.47266 0.0
C2116 C 0.94109 0.11096 0.43737 0.0
C2117 C 0.95473 0.12798 0.44062 0.0
C2118 C 0.95109 0.14165 0.46059 0.0
C2119 C 0.93388 0.13856 0.47645 0.0
H2120 H 0.59666 0.25637 0.15045 0.0
H2121 H 0.66399 0.25998 0.14459 0.0
H2122 H 0.60003 0.22702 0.17892 0.0
H2123 H 0.66733 0.23145 0.17385 0.0
H2124 H 0.66629 0.1635 0.19698 0.0
H2125 H 0.66171 0.19467 0.17238 0.0
H2126 H 0.61105 0.21442 0.2196 0.0
H2127 H 0.61553 0.18246 0.24436 0.0
C2128 C 0.6122 0.25105 0.15532 0.0
C2129 C 0.63005 0.26051 0.14485 0.0
C2130 C 0.61412 0.23434 0.17195 0.0
C2131 C 0.63394 0.2266 0.17856 0.0
C2132 C 0.65177 0.23666 0.16889 0.0
C2133 C 0.64986 0.25329 0.15227 0.0
C2134 C 0.65418 0.17447 0.2023 0.0
C2135 C 0.64134 0.17049 0.22276 0.0
C2136 C 0.65165 0.19252 0.18821 0.0
C2137 C 0.63621 0.20736 0.1941 0.0
C2138 C 0.62309 0.20333 0.21446 0.0
C2139 C 0.62566 0.18507 0.2287 0.0
H2140 H 0.50215 0.91362 0.89483 0.0
H2141 H 0.50686 0.84629 0.89945 0.0
H2142 H 0.53055 0.91708 0.92426 0.0
H2143 H 0.53608 0.84982 0.92814 0.0
H2144 H 0.58033 0.86564 0.99408 0.0
H2145 H 0.54841 0.8608 0.96926 0.0
H2146 H 0.56748 0.91191 0.92237 0.0
H2147 H 0.59861 0.91681 0.94697 0.0
C2148 C 0.50904 0.89951 0.90229 0.0
C2149 C 0.50218 0.87967 0.89446 0.0
C2150 C 0.52559 0.90149 0.91901 0.0
C2151 C 0.53592 0.88373 0.92838 0.0
C2152 C 0.52853 0.86386 0.92139 0.0
C2153 C 0.5119 0.86185 0.90465 0.0
C2154 C 0.57757 0.87578 0.97847 0.0
C2155 C 0.59196 0.89167 0.97261 0.0
C2156 C 0.55934 0.87301 0.96421 0.0
C2157 C 0.55514 0.88616 0.94393 0.0
C2158 C 0.56977 0.90182 0.93813 0.0
C2159 C 0.58781 0.90453 0.95223 0.0
H2160 H 0.8504 0.26546 0.89616 0.0
H2161 H 0.91574 0.2509 0.90732 0.0
H2162 H 0.84766 0.23676 0.86687 0.0
H2163 H 0.91298 0.22229 0.87759 0.0
H2164 H 0.90087 0.18062 0.80748 0.0
H2165 H 0.90589 0.21228 0.83279 0.0
H2166 H 0.84862 0.19853 0.87169 0.0
H2167 H 0.84381 0.16736 0.84704 0.0
C2168 C 0.86421 0.25617 0.89243 0.0
C2169 C 0.88322 0.26046 0.9045 0.0
C2170 C 0.86266 0.23973 0.8755 0.0
C2171 C 0.88007 0.22706 0.87 0.0
C2172 C 0.89931 0.23182 0.88122 0.0
C2173 C 0.90086 0.24827 0.89831 0.0
C2174 C 0.88946 0.18441 0.8215 0.0
C2175 C 0.87199 0.17139 0.82525 0.0
C2176 C 0.89231 0.20251 0.83599 0.0
C2177 C 0.87754 0.20807 0.85416 0.0
C2178 C 0.86011 0.19502 0.85763 0.0
C2179 C 0.85742 0.17701 0.84349 0.0
H2180 H 0.50807 0.16642 0.6511 0.0
H2181 H 0.50082 0.09921 0.65234 0.0
H2182 H 0.53704 0.16289 0.62208 0.0
H2183 H 0.52902 0.09579 0.6226 0.0
H2184 H 0.59727 0.0948 0.59976 0.0
H2185 H 0.56619 0.0996 0.62451 0.0
H2186 H 0.54876 0.15299 0.58037 0.0
H2187 H 0.58055 0.1482 0.55536 0.0
C2188 C 0.51251 0.15089 0.64509 0.0
C2189 C 0.50215 0.13308 0.65444 0.0
C2190 C 0.52899 0.1489 0.62816 0.0
C2191 C 0.53562 0.12904 0.62013 0.0
C2192 C 0.52465 0.11134 0.62866 0.0
C2193 C 0.50823 0.11331 0.64557 0.0
C2194 C 0.58682 0.10755 0.59513 0.0
C2195 C 0.59142 0.12109 0.57548 0.0
C2196 C 0.56882 0.11022 0.60931 0.0
C2197 C 0.55469 0.12652 0.60436 0.0
C2198 C 0.5593 0.14028 0.58477 0.0
C2199 C 0.57747 0.13754 0.5704 0.0
H2200 H 0.61359 0.83183 0.30671 0.0
H2201 H 0.66982 0.84628 0.34736 0.0
H2202 H 0.60901 0.79995 0.33166 0.0
H2203 H 0.6654 0.8149 0.37174 0.0
H2204 H 0.66472 0.74789 0.39595 0.0
H2205 H 0.66731 0.77678 0.36694 0.0
H2206 H 0.60145 0.78957 0.37599 0.0
H2207 H 0.59883 0.76076 0.4054 0.0
C2208 C 0.62493 0.82823 0.32088 0.0
C2209 C 0.64203 0.84164 0.32506 0.0
C2210 C 0.62232 0.81002 0.33518 0.0
C2211 C 0.63696 0.80475 0.3536 0.0
C2212 C 0.65403 0.81819 0.35749 0.0
C2213 C 0.65649 0.83631 0.34351 0.0
C2214 C 0.65076 0.75685 0.39189 0.0
C2215 C 0.63162 0.75204 0.40339 0.0
C2216 C 0.65223 0.7734 0.37513 0.0
C2217 C 0.63462 0.78566 0.36926 0.0
C2218 C 0.61528 0.78036 0.37992 0.0
C2219 C 0.61381 0.76381 0.39682 0.0
H2220 H 0.9146 0.91808 0.09999 0.0
H2221 H 0.93225 0.86571 0.05432 0.0
H2222 H 0.94574 0.91341 0.12465 0.0
H2223 H 0.96414 0.8611 0.07919 0.0
H2224 H 1.00532 0.84729 0.14932 0.0
H2225 H 0.97624 0.85075 0.12046 0.0
H2226 H 0.98274 0.91798 0.12296 0.0
H2227 H 0.01102 0.91461 0.15258 0.0
C2228 C 0.92527 0.90559 0.09506 0.0
C2229 C 0.92091 0.8923 0.07508 0.0
C2230 C 0.9433 0.903 0.10918 0.0
C2231 C 0.95773 0.88706 0.10383 0.0
C2232 C 0.95336 0.87353 0.08392 0.0
C2233 C 0.93514 0.87618 0.06962 0.0
C2234 C 1.00052 0.86284 0.14379 0.0
C2235 C 0.01048 0.88068 0.15366 0.0
C2236 C 0.98397 0.86479 0.12694 0.0
C2237 C 0.97688 0.88465 0.11952 0.0
C2238 C 0.98745 0.90242 0.12856 0.0
C2239 C 1.00393 0.90047 0.14539 0.0
H2240 H 0.66685 0.66548 0.84985 0.0
H2241 H 0.61342 0.6828 0.8058 0.0
H2242 H 0.66215 0.69627 0.87513 0.0
H2243 H 0.60874 0.71434 0.83133 0.0
H2244 H 0.59577 0.75505 0.90209 0.0
H2245 H 0.59904 0.72604 0.87306 0.0
H2246 H 0.66621 0.73335 0.8738 0.0
H2247 H 0.66304 0.76159 0.90354 0.0
C2248 C 0.65411 0.676 0.84541 0.0
C2249 C 0.64056 0.67165 0.82567 0.0
C2250 C 0.6515 0.69384 0.8599 0.0
C2251 C 0.63525 0.70809 0.85519 0.0
C2252 C 0.62143 0.7037 0.83556 0.0
C2253 C 0.6241 0.68568 0.82088 0.0
C2254 C 0.61126 0.75044 0.89615 0.0
C2255 C 0.62916 0.76065 0.90553 0.0
C2256 C 0.6131 0.73392 0.87921 0.0
C2257 C 0.63289 0.7271 0.87118 0.0
C2258 C 0.6507 0.73786 0.87983 0.0
C2259 C 0.64887 0.75432 0.89674 0.0
H2260 H 0.59887 0.41822 0.09923 0.0
H2261 H 0.58114 0.3634 0.05772 0.0
H2262 H 0.56932 0.41326 0.12637 0.0
H2263 H 0.55127 0.35803 0.08577 0.0
H2264 H 0.48834 0.37027 0.12969 0.0
H2265 H 0.51694 0.37341 0.09979 0.0
H2266 H 0.55935 0.38967 0.15857 0.0
H2267 H 0.53093 0.38735 0.18801 0.0
C2268 C 0.58866 0.40498 0.0959 0.0
C2269 C 0.59257 0.39109 0.07637 0.0
C2270 C 0.5717 0.40205 0.11169 0.0
C2271 C 0.55799 0.38505 0.10863 0.0
C2272 C 0.56151 0.3713 0.0887 0.0
C2273 C 0.57868 0.37427 0.07273 0.0
C2274 C 0.50375 0.37468 0.13618 0.0
C2275 C 0.50721 0.3786 0.16138 0.0
C2276 C 0.52021 0.37621 0.11905 0.0
C2277 C 0.5405 0.3819 0.12666 0.0
C2278 C 0.54393 0.38554 0.15188 0.0
C2279 C 0.52759 0.38397 0.1689 0.0
H2280 H 0.84425 0.34779 0.34981 0.0
H2281 H 0.89746 0.33077 0.30521 0.0
H2282 H 0.84888 0.31667 0.37449 0.0
H2283 H 0.90203 0.29887 0.33006 0.0
H2284 H 0.91544 0.25757 0.40004 0.0
H2285 H 0.91197 0.2867 0.37129 0.0
H2286 H 0.84478 0.27969 0.37302 0.0
H2287 H 0.84815 0.25136 0.40255 0.0
C2288 C 0.85691 0.33726 0.3451 0.0
C2289 C 0.87044 0.34179 0.32541 0.0
C2290 C 0.85948 0.31922 0.35924 0.0
C2291 C 0.87566 0.30496 0.3542 0.0
C2292 C 0.8894 0.3095 0.33456 0.0
C2293 C 0.88678 0.32773 0.32025 0.0
C2294 C 0.89989 0.26227 0.39438 0.0
C2295 C 0.88207 0.25214 0.40401 0.0
C2296 C 0.89794 0.27886 0.37758 0.0
C2297 C 0.87809 0.28582 0.36994 0.0
C2298 C 0.86033 0.2751 0.37878 0.0
C2299 C 0.86228 0.25858 0.39556 0.0
H2300 H 0.93428 0.64567 0.55452 0.0
H2301 H 0.91387 0.59703 0.60406 0.0
H2302 H 0.966 0.65059 0.57972 0.0
H2303 H 0.94478 0.60204 0.629 0.0
H2304 H 0.00996 0.59916 0.65737 0.0
H2305 H 0.98148 0.59555 0.62807 0.0
H2306 H 0.9785 0.66272 0.62032 0.0
H2307 H 0.00779 0.66633 0.64892 0.0
C2308 C 0.93651 0.63611 0.57074 0.0
C2309 C 0.9216 0.62086 0.57714 0.0
C2310 C 0.95463 0.63893 0.58523 0.0
C2311 C 0.95819 0.62648 0.60629 0.0
C2312 C 0.943 0.61154 0.61266 0.0
C2313 C 0.92509 0.60877 0.59834 0.0
C2314 C 1.0036 0.61319 0.64912 0.0
C2315 C 0.01124 0.63305 0.65582 0.0
C2316 C 0.987 0.61114 0.63247 0.0
C2317 C 0.97737 0.62886 0.62199 0.0
C2318 C 0.98548 0.64871 0.62792 0.0
C2319 C 1.00215 0.65077 0.64461 0.0
H2320 H 0.61102 0.33197 0.74139 0.0
H2321 H 0.66882 0.34523 0.70334 0.0
H2322 H 0.60627 0.30055 0.71562 0.0
H2323 H 0.66424 0.3143 0.67819 0.0
H2324 H 0.66243 0.24758 0.65267 0.0
H2325 H 0.66499 0.27618 0.68212 0.0
H2326 H 0.59972 0.29063 0.67097 0.0
H2327 H 0.59714 0.26211 0.64112 0.0
C2328 C 0.62267 0.32822 0.72762 0.0
C2329 C 0.64027 0.34117 0.72443 0.0
C2330 C 0.61996 0.31026 0.71284 0.0
C2331 C 0.63498 0.30476 0.69493 0.0
C2332 C 0.65254 0.31774 0.69203 0.0
C2333 C 0.6551 0.33562 0.70646 0.0
C2334 C 0.6486 0.25685 0.65633 0.0
C2335 C 0.62965 0.25256 0.64413 0.0
C2336 C 0.65005 0.27325 0.67336 0.0
C2337 C 0.6326 0.28588 0.67882 0.0
C2338 C 0.61342 0.28114 0.66739 0.0
C2339 C 0.61198 0.26474 0.65023 0.0
H2340 H 0.93276 0.36517 0.99319 0.0
H2341 H 0.91437 0.41689 0.947 0.0
H2342 H 0.96444 0.36044 0.96794 0.0
H2343 H 0.94529 0.41211 0.92199 0.0
H2344 H 0.01059 0.41364 0.89372 0.0
H2345 H 0.98225 0.41703 0.92325 0.0
H2346 H 0.97648 0.34977 0.92667 0.0
H2347 H 1.00562 0.34631 0.89786 0.0
C2348 C 0.93544 0.37547 0.9777 0.0
C2349 C 0.92107 0.39147 0.97223 0.0
C2350 C 0.95354 0.37275 0.96318 0.0
C2351 C 0.95766 0.38607 0.94302 0.0
C2352 C 0.94307 0.40186 0.93763 0.0
C2353 C 0.92515 0.40451 0.95198 0.0
C2354 C 1.00364 0.39951 0.90106 0.0
C2355 C 0.01045 0.3797 0.89309 0.0
C2356 C 0.98712 0.40146 0.91785 0.0
C2357 C 0.97675 0.38368 0.92718 0.0
C2358 C 0.98405 0.36382 0.91998 0.0
C2359 C 1.00063 0.36186 0.90316 0.0
H2360 H 0.8494 0.76132 0.14385 0.0
H2361 H 0.91669 0.75548 0.14697 0.0
H2362 H 0.84596 0.73291 0.17331 0.0
H2363 H 0.91317 0.72634 0.17576 0.0
H2364 H 0.89785 0.6826 0.24228 0.0
H2365 H 0.90259 0.71444 0.21732 0.0
H2366 H 0.85063 0.69578 0.17148 0.0
H2367 H 0.84588 0.66466 0.19614 0.0
C2368 C 0.86351 0.75417 0.15097 0.0
C2369 C 0.88332 0.76073 0.14272 0.0
C2370 C 0.86153 0.73762 0.16772 0.0
C2371 C 0.87927 0.72703 0.17676 0.0
C2372 C 0.89914 0.7341 0.1693 0.0
C2373 C 0.90113 0.75068 0.1525 0.0
C2374 C 0.88749 0.68542 0.22688 0.0
C2375 C 0.87145 0.6711 0.2213 0.0
C2376 C 0.89021 0.70361 0.21252 0.0
C2377 C 0.87682 0.70789 0.19247 0.0
C2378 C 0.86094 0.6934 0.18703 0.0
C2379 C 0.85831 0.67538 0.20117 0.0
H2380 H 0.5982 0.59469 0.45004 0.0
H2381 H 0.58143 0.64883 0.49324 0.0
H2382 H 0.56733 0.59928 0.42488 0.0
H2383 H 0.54982 0.65338 0.46787 0.0
H2384 H 0.50899 0.66592 0.39727 0.0
H2385 H 0.53802 0.6627 0.42623 0.0
H2386 H 0.53026 0.59558 0.42625 0.0
H2387 H 0.50202 0.59868 0.39654 0.0
C2388 C 0.58779 0.60757 0.45432 0.0
C2389 C 0.59231 0.62136 0.47377 0.0
C2390 C 0.5699 0.61011 0.4399 0.0
C2391 C 0.55579 0.62653 0.44441 0.0
C2392 C 0.56035 0.64057 0.46378 0.0
C2393 C 0.57841 0.63796 0.47838 0.0
C2394 C 0.5135 0.65044 0.40336 0.0
C2395 C 0.50317 0.63254 0.39419 0.0
C2396 C 0.53004 0.64863 0.42027 0.0
C2397 C 0.53675 0.62887 0.42847 0.0
C2398 C 0.52585 0.61106 0.42006 0.0
C2399 C 0.50938 0.61286 0.40317 0.0
H2400 H 0.4168 0.2568 0.14874 0.0
H2401 H 0.34971 0.2484 0.14916 0.0
H2402 H 0.4133 0.28581 0.17773 0.0
H2403 H 0.34636 0.27662 0.17889 0.0
H2404 H 0.34473 0.34522 0.20028 0.0
H2405 H 0.34958 0.31382 0.17615 0.0
H2406 H 0.40385 0.29782 0.21959 0.0
H2407 H 0.39902 0.33 0.24398 0.0
C2408 C 0.40131 0.26098 0.15513 0.0
C2409 C 0.38351 0.25032 0.14622 0.0
C2410 C 0.39935 0.27749 0.17205 0.0
C2411 C 0.37953 0.28381 0.1805 0.0
C2412 C 0.36186 0.27249 0.17248 0.0
C2413 C 0.36381 0.25606 0.15558 0.0
C2414 C 0.35768 0.33503 0.20491 0.0
C2415 C 0.37146 0.34014 0.22416 0.0
C2416 C 0.36037 0.31684 0.1911 0.0
C2417 C 0.37694 0.30302 0.19602 0.0
C2418 C 0.39092 0.30812 0.21524 0.0
C2419 C 0.38815 0.32649 0.22926 0.0
H2420 H 0.51405 0.59941 0.9022 0.0
H2421 H 0.50133 0.6653 0.89258 0.0
H2422 H 0.48529 0.597 0.93141 0.0
H2423 H 0.47265 0.66286 0.92221 0.0
H2424 H 0.43101 0.65083 0.99234 0.0
H2425 H 0.46253 0.65545 0.96674 0.0
H2426 H 0.44713 0.59899 0.92701 0.0
H2427 H 0.4161 0.59455 0.95201 0.0
C2428 C 0.50515 0.61341 0.90625 0.0
C2429 C 0.50998 0.63249 0.89464 0.0
C2430 C 0.48866 0.61204 0.92313 0.0
C2431 C 0.47648 0.6297 0.92903 0.0
C2432 C 0.48179 0.64899 0.91826 0.0
C2433 C 0.49828 0.65036 0.90123 0.0
C2434 C 0.43441 0.63951 0.97807 0.0
C2435 C 0.42099 0.62236 0.97422 0.0
C2436 C 0.45243 0.64213 0.96341 0.0
C2437 C 0.4575 0.62746 0.94493 0.0
C2438 C 0.44401 0.61038 0.9413 0.0
C2439 C 0.42608 0.60791 0.95564 0.0
H2440 H 0.12218 0.77445 0.67076 0.0
H2441 H 0.1395 0.73182 0.61255 0.0
H2442 H 0.12555 0.74595 0.70075 0.0
H2443 H 0.14208 0.70352 0.64208 0.0
H2444 H 0.17096 0.66444 0.70128 0.0
H2445 H 0.16598 0.69418 0.67446 0.0
H2446 H 0.11019 0.7113 0.7145 0.0
H2447 H 0.11559 0.68124 0.74224 0.0
C2448 C 0.12669 0.75906 0.66432 0.0
C2449 C 0.1306 0.75553 0.63914 0.0
C2450 C 0.12836 0.74266 0.68149 0.0
C2451 C 0.13419 0.72241 0.67392 0.0
C2452 C 0.13783 0.71893 0.64872 0.0
C2453 C 0.13613 0.73519 0.63166 0.0
C2454 C 0.15761 0.6745 0.70457 0.0
C2455 C 0.14352 0.67025 0.72379 0.0
C2456 C 0.15467 0.69156 0.68898 0.0
C2457 C 0.13748 0.70501 0.69195 0.0
C2458 C 0.1236 0.70123 0.71166 0.0
C2459 C 0.12659 0.68396 0.72744 0.0
H2460 H 0.03002 0.3875 0.36077 0.0
H2461 H 0.98749 0.3724 0.41987 0.0
H2462 H 0.05859 0.39025 0.38998 0.0
H2463 H 0.01626 0.37593 0.44949 0.0
H2464 H 0.08075 0.36601 0.49116 0.0
H2465 H 0.05061 0.36034 0.46358 0.0
H2466 H 0.06874 0.41467 0.42147 0.0
H2467 H 0.09852 0.41994 0.44819 0.0
C2468 C 0.02673 0.38465 0.38001 0.0
C2469 C 1.00633 0.3797 0.38782 0.0
C2470 C 0.04315 0.38645 0.39687 0.0
C2471 C 0.03978 0.38347 0.42221 0.0
C2472 C 0.01947 0.37822 0.43013 0.0
C2473 C 1.00292 0.37646 0.41316 0.0
C2474 C 0.07823 0.37663 0.47595 0.0
C2475 C 0.09221 0.39327 0.47174 0.0
C2476 C 0.06092 0.37349 0.46024 0.0
C2477 C 0.05736 0.38688 0.44002 0.0
C2478 C 0.07115 0.40373 0.43641 0.0
C2479 C 0.08824 0.40684 0.45194 0.0
H2480 H 0.39438 0.7752 0.37836 0.0
H2481 H 0.37511 0.73333 0.43641 0.0
H2482 H 0.39126 0.74649 0.34855 0.0
H2483 H 0.37277 0.70481 0.4071 0.0
H2484 H 0.34416 0.666 0.34755 0.0
H2485 H 0.34923 0.69589 0.3741 0.0
H2486 H 0.40631 0.71131 0.33565 0.0
H2487 H 0.40083 0.68109 0.3081 0.0
C2488 C 0.3895 0.75992 0.38479 0.0
C2489 C 0.38496 0.75667 0.40987 0.0
C2490 C 0.38797 0.74341 0.36774 0.0
C2491 C 0.38166 0.72333 0.37535 0.0
C2492 C 0.37742 0.7201 0.40045 0.0
C2493 C 0.37897 0.73648 0.41739 0.0
C2494 C 0.35783 0.6757 0.34455 0.0
C2495 C 0.37224 0.67092 0.32583 0.0
C2496 C 0.36081 0.69285 0.35999 0.0
C2497 C 0.37838 0.70586 0.3574 0.0
C2498 C 0.39261 0.70157 0.33819 0.0
C2499 C 0.38958 0.68421 0.32252 0.0
H2500 H 0.0808 0.64792 0.05619 0.0
H2501 H 0.09743 0.59443 0.10048 0.0
H2502 H 0.04902 0.65273 0.0812 0.0
H2503 H 0.06641 0.5993 0.12531 0.0
H2504 H 1.00102 0.5991 0.15331 0.0
H2505 H 0.02931 0.59556 0.12371 0.0
H2506 H 0.03722 0.66267 0.12272 0.0
H2507 H 0.00816 0.66631 0.15158 0.0
C2508 C 0.0777 0.63723 0.0712 0.0
C2509 C 0.09162 0.62075 0.07624 0.0
C2510 C 0.05954 0.64 0.08559 0.0
C2511 C 0.05493 0.62624 0.10519 0.0
C2512 C 0.06903 0.60991 0.1101 0.0
C2513 C 0.08701 0.60721 0.09588 0.0
C2514 C 0.00844 0.61318 0.14647 0.0
C2515 C 1.00227 0.63299 0.15515 0.0
C2516 C 0.02492 0.61113 0.12965 0.0
C2517 C 0.03586 0.62881 0.12099 0.0
C2518 C 0.02919 0.6487 0.12888 0.0
C2519 C 0.01265 0.65075 0.14572 0.0
H2520 H 0.16601 0.34912 0.85316 0.0
H2521 H 0.11558 0.3299 0.8054 0.0
H2522 H 0.16111 0.31819 0.87806 0.0
H2523 H 0.11076 0.29817 0.83054 0.0
H2524 H 0.09594 0.25675 0.90029 0.0
H2525 H 0.09946 0.28591 0.87153 0.0
H2526 H 0.16672 0.28135 0.8768 0.0
H2527 H 0.16325 0.25299 0.90627 0.0
C2528 C 0.1539 0.33816 0.84781 0.0
C2529 C 0.14125 0.342 0.82714 0.0
C2530 C 0.15119 0.32023 0.8621 0.0
C2531 C 0.13575 0.30538 0.85622 0.0
C2532 C 0.1228 0.30928 0.83567 0.0
C2533 C 0.12556 0.3274 0.82121 0.0
C2534 C 0.11151 0.262 0.89539 0.0
C2535 C 0.12931 0.25253 0.90597 0.0
C2536 C 0.11351 0.2786 0.87861 0.0
C2537 C 0.13337 0.28624 0.87196 0.0
C2538 C 0.15114 0.2762 0.88177 0.0
C2539 C 0.14915 0.25967 0.89852 0.0
H2540 H 0.49986 0.34946 0.65688 0.0
H2541 H 0.51408 0.41498 0.64656 0.0
H2542 H 0.47123 0.3523 0.62725 0.0
H2543 H 0.48536 0.41779 0.61732 0.0
H2544 H 0.4161 0.42132 0.59652 0.0
H2545 H 0.44721 0.41675 0.6214 0.0
H2546 H 0.4613 0.35937 0.58285 0.0
H2547 H 0.42974 0.36413 0.5574 0.0
C2548 C 0.49714 0.3644 0.64807 0.0
C2549 C 0.50926 0.38205 0.65445 0.0
C2550 C 0.48068 0.366 0.63104 0.0
C2551 C 0.47582 0.38531 0.62005 0.0
C2552 C 0.48839 0.40275 0.62577 0.0
C2553 C 0.50485 0.40115 0.64266 0.0
C2554 C 0.42583 0.40775 0.59312 0.0
C2555 C 0.42035 0.39305 0.57496 0.0
C2556 C 0.4438 0.40519 0.60738 0.0
C2557 C 0.45691 0.38778 0.60409 0.0
C2558 C 0.45149 0.37293 0.58594 0.0
C2559 C 0.43345 0.37564 0.57136 0.0
H2560 H 0.08341 0.05999 0.26057 0.0
H2561 H 0.14583 0.06029 0.29094 0.0
H2562 H 0.08367 0.02168 0.26037 0.0
H2563 H 0.14609 0.02206 0.29082 0.0
H2564 H 0.14557 0.9537 0.26175 0.0
H2565 H 0.14623 0.99192 0.26227 0.0
H2566 H 0.08327 0.9927 0.2911 0.0
H2567 H 0.0826 0.95439 0.2905 0.0
C2568 C 0.09726 0.05188 0.26695 0.0
C2569 C 0.1146 0.06317 0.27576 0.0
C2570 C 0.09734 0.02993 0.26708 0.0
C2571 C 0.11483 0.01877 0.27579 0.0
C2572 C 0.1324 0.03012 0.28388 0.0
C2573 C 0.13225 0.05204 0.28395 0.0
C2574 C 0.13196 0.96203 0.26849 0.0
C2575 C 0.11403 0.95102 0.27607 0.0
C2576 C 0.13234 0.98394 0.2688 0.0
C2577 C 0.11473 0.99541 0.2765 0.0
C2578 C 0.09698 0.98436 0.28468 0.0
C2579 C 0.09667 0.96241 0.28459 0.0
H2580 H 0.20337 0.89537 0.53827 0.0
H2581 H 0.20424 0.8326 0.50891 0.0
H2582 H 0.24159 0.89603 0.53814 0.0
H2583 H 0.24254 0.83327 0.50865 0.0
H2584 H 0.30973 0.83304 0.53908 0.0
H2585 H 0.27143 0.83334 0.5392 0.0
H2586 H 0.2719 0.89623 0.51018 0.0
H2587 H 0.31013 0.89594 0.5102 0.0
C2588 C 0.21174 0.8818 0.53148 0.0
C2589 C 0.20078 0.86392 0.52362 0.0
C2590 C 0.23366 0.88218 0.5314 0.0
C2591 C 0.24518 0.86463 0.5236 0.0
C2592 C 0.23417 0.84693 0.51515 0.0
C2593 C 0.21222 0.84662 0.51505 0.0
C2594 C 0.30164 0.84701 0.533 0.0
C2595 C 0.31296 0.86446 0.52462 0.0
C2596 C 0.27969 0.84711 0.53282 0.0
C2597 C 0.26855 0.86474 0.52447 0.0
C2598 C 0.27994 0.88243 0.51684 0.0
C2599 C 0.30186 0.88227 0.51684 0.0
H2600 H 0.42978 0.95389 0.75931 0.0
H2601 H 0.36686 0.95301 0.78819 0.0
H2602 H 0.42923 0.99219 0.75936 0.0
H2603 H 0.36632 0.99123 0.78835 0.0
H2604 H 0.36696 0.05987 0.76049 0.0
H2605 H 0.36648 0.02165 0.76032 0.0
H2606 H 0.42899 0.02085 0.7905 0.0
H2607 H 0.42948 0.05915 0.79057 0.0
C2608 C 0.41575 0.96187 0.76539 0.0
C2609 C 0.39837 0.95043 0.77376 0.0
C2610 C 0.41551 0.98381 0.76568 0.0
C2611 C 0.3978 0.99481 0.7741 0.0
C2612 C 0.38017 0.9833 0.78166 0.0
C2613 C 0.38048 0.96139 0.78157 0.0
C2614 C 0.38051 0.05153 0.76737 0.0
C2615 C 0.39826 0.06254 0.77552 0.0
C2616 C 0.38023 0.02962 0.76728 0.0
C2617 C 0.39778 0.01816 0.77516 0.0
C2618 C 0.41535 0.02919 0.78392 0.0
C2619 C 0.41555 0.05114 0.78421 0.0
H2620 H 0.20326 0.17916 0.04013 0.0
H2621 H 0.20241 0.1167 1.00987 0.0
H2622 H 0.24158 0.17853 0.04036 0.0
H2623 H 0.24063 0.11606 1.01003 0.0
H2624 H 0.30907 0.11604 0.03865 0.0
H2625 H 0.27083 0.11573 0.03849 0.0
H2626 H 0.27046 0.17859 1.00939 0.0
H2627 H 0.30877 0.1789 1.00962 0.0
C2628 C 0.21125 0.16521 0.0338 0.0
C2629 C 0.19981 0.14798 0.02499 0.0
C2630 C 0.2332 0.16492 0.03368 0.0
C2631 C 0.2442 0.14731 0.02499 0.0
C2632 C 0.23269 0.12983 1.01695 0.0
C2633 C 0.21078 0.1302 1.01685 0.0
C2634 C 0.30082 0.1297 0.03193 0.0
C2635 C 0.31194 0.1475 1.02415 0.0
C2636 C 0.2789 0.12952 0.03184 0.0
C2637 C 0.26755 0.14721 1.02416 0.0
C2638 C 0.27871 0.16483 1.0158 0.0
C2639 C 0.30066 0.16493 1.01568 0.0
H2640 H 0.87928 0.0571 0.80946 0.0
H2641 H 0.91346 0.05935 0.74101 0.0
H2642 H 0.87988 0.0189 0.80827 0.0
H2643 H 0.91335 0.02084 0.73946 0.0
H2644 H 0.88027 0.95352 0.73723 0.0
H2645 H 0.88059 0.99172 0.73843 0.0
H2646 H 0.91289 0.99003 0.80802 0.0
H2647 H 0.91329 0.95151 0.80647 0.0
C2648 C 0.88671 0.04945 0.79398 0.0
C2649 C 0.89627 0.06124 0.77523 0.0
C2650 C 0.88717 0.02757 0.79346 0.0
C2651 C 0.89674 0.01698 0.77387 0.0
C2652 C 0.9059 0.0287 0.75479 0.0
C2653 C 0.90592 0.05066 0.75564 0.0
C2654 C 0.8874 0.96123 0.75287 0.0
C2655 C 0.89672 0.9495 0.77185 0.0
C2656 C 0.88769 0.98311 0.75341 0.0
C2657 C 0.89683 0.99376 0.77323 0.0
C2658 C 0.90576 0.98212 0.79252 0.0
C2659 C 0.90596 0.96015 0.79166 0.0
H2660 H 0.7034 0.17881 0.50905 0.0
H2661 H 0.70266 0.11614 0.53861 0.0
H2662 H 0.74171 0.17832 0.50902 0.0
H2663 H 0.74088 0.11566 0.5387 0.0
H2664 H 0.80865 0.17896 0.54018 0.0
H2665 H 0.77035 0.17839 0.54015 0.0
H2666 H 0.77128 0.11564 0.51065 0.0
H2667 H 0.80951 0.11619 0.5108 0.0
C2668 C 0.71141 0.16485 0.51526 0.0
C2669 C 0.70002 0.14752 0.52384 0.0
C2670 C 0.73336 0.16464 0.5155 0.0
C2671 C 0.74438 0.14703 0.5241 0.0
C2672 C 0.73292 0.12944 0.53187 0.0
C2673 C 0.71101 0.12972 0.53183 0.0
C2674 C 0.80066 0.16496 0.53399 0.0
C2675 C 0.8121 0.14763 0.52548 0.0
C2676 C 0.77872 0.16471 0.53372 0.0
C2677 C 0.76773 0.14705 0.52515 0.0
C2678 C 0.77922 0.12946 0.51745 0.0
C2679 C 0.80113 0.12977 0.51754 0.0
H2680 H 0.58341 0.05906 0.28962 0.0
H2681 H 0.64589 0.05947 0.25945 0.0
H2682 H 0.58389 0.02075 0.29017 0.0
H2683 H 0.64639 0.02125 0.25997 0.0
H2684 H 0.64593 0.95306 0.28941 0.0
H2685 H 0.6464 0.99129 0.28907 0.0
H2686 H 0.58387 0.99179 0.25897 0.0
H2687 H 0.58341 0.95348 0.25934 0.0
C2688 C 0.59733 0.05098 0.28339 0.0
C2689 C 0.61461 0.06227 0.27449 0.0
C2690 C 0.59753 0.02904 0.28346 0.0
C2691 C 0.6151 0.01793 0.27489 0.0
C2692 C 0.63265 0.0293 0.26679 0.0
C2693 C 0.63236 0.0512 0.26649 0.0
C2694 C 0.63238 0.96134 0.28244 0.0
C2695 C 0.61463 0.95027 0.2744 0.0
C2696 C 0.63265 0.98324 0.28225 0.0
C2697 C 0.6151 0.99461 0.27421 0.0
C2698 C 0.59752 0.9835 0.26563 0.0
C2699 C 0.59733 0.96156 0.26559 0.0
H2700 H 0.70331 0.89693 1.00945 0.0
H2701 H 0.70362 0.83451 0.03976 0.0
H2702 H 0.74154 0.8973 1.00975 0.0
H2703 H 0.74193 0.83488 0.04012 0.0
H2704 H 0.80909 0.83407 1.00915 0.0
H2705 H 0.77078 0.83466 1.00885 0.0
H2706 H 0.77162 0.89731 0.03866 0.0
H2707 H 0.80984 0.89671 0.03892 0.0
C2708 C 0.71156 0.88338 1.01647 0.0
C2709 C 0.70046 0.86568 1.02456 0.0
C2710 C 0.73347 0.8836 1.01665 0.0
C2711 C 0.7448 0.86604 0.02473 0.0
C2712 C 0.73367 0.84853 0.03341 0.0
C2713 C 0.71173 0.84839 0.03345 0.0
C2714 C 0.80108 0.84804 1.01535 0.0
C2715 C 0.81247 0.86534 1.02406 0.0
C2716 C 0.77914 0.84831 1.01543 0.0
C2717 C 0.76813 0.86596 1.02395 0.0
C2718 C 0.77959 0.88351 0.03188 0.0
C2719 C 0.80149 0.88316 0.03203 0.0
H2720 H 0.64622 0.56007 0.7879 0.0
H2721 H 0.58346 0.55949 0.75854 0.0
H2722 H 0.64653 0.52186 0.78815 0.0
H2723 H 0.58379 0.52119 0.75863 0.0
H2724 H 0.64583 0.45313 0.76089 0.0
H2725 H 0.64647 0.49134 0.76053 0.0
H2726 H 0.58356 0.49255 0.7895 0.0
H2727 H 0.5829 0.45425 0.78969 0.0
C2728 C 0.63258 0.55176 0.78119 0.0
C2729 C 0.61481 0.56281 0.77323 0.0
C2730 C 0.63276 0.52985 0.78132 0.0
C2731 C 0.61511 0.51841 0.77364 0.0
C2732 C 0.59752 0.5295 0.76506 0.0
C2733 C 0.59741 0.55144 0.76474 0.0
C2734 C 0.63222 0.46156 0.76745 0.0
C2735 C 0.61431 0.45066 0.7753 0.0
C2736 C 0.63259 0.48347 0.76726 0.0
C2737 C 0.615 0.49506 0.77476 0.0
C2738 C 0.59726 0.48413 0.78321 0.0
C2739 C 0.59695 0.46218 0.78358 0.0
H2740 H 0.8097 0.39594 1.00891 0.0
H2741 H 0.8095 0.3336 0.03943 0.0
H2742 H 0.77149 0.39619 1.0091 0.0
H2743 H 0.77118 0.33386 0.03973 0.0
H2744 H 0.70314 0.39589 0.03773 0.0
H2745 H 0.74136 0.39647 0.03745 0.0
H2746 H 0.74213 0.33332 1.00914 0.0
H2747 H 0.70382 0.33273 1.00952 0.0
C2748 C 0.80148 0.38238 1.01595 0.0
C2749 C 0.81263 0.36475 1.02416 0.0
C2750 C 0.77956 0.38253 1.01607 0.0
C2751 C 0.76822 0.36498 1.02423 0.0
C2752 C 0.77941 0.34751 0.03297 0.0
C2753 C 0.80137 0.34744 0.03305 0.0
C2754 C 0.71147 0.38221 0.03117 0.0
C2755 C 0.70045 0.36426 1.02365 0.0
C2756 C 0.73339 0.38255 0.031 0.0
C2757 C 0.74485 0.36488 1.02349 0.0
C2758 C 0.7338 0.34708 1.01541 0.0
C2759 C 0.71185 0.34681 1.01537 0.0
H2760 H 0.92833 0.55951 0.28955 0.0
H2761 H 0.8664 0.55949 0.25784 0.0
H2762 H 0.92801 0.5212 0.29025 0.0
H2763 H 0.86606 0.52125 0.25854 0.0
H2764 H 0.86623 0.45318 0.28859 0.0
H2765 H 0.86562 0.49141 0.28785 0.0
H2766 H 0.92871 0.49199 0.2594 0.0
H2767 H 0.92929 0.45368 0.26014 0.0
C2768 C 0.91456 0.55133 0.283 0.0
C2769 C 0.89739 0.56252 0.27365 0.0
C2770 C 0.91446 0.52938 0.28316 0.0
C2771 C 0.89709 0.51814 0.27424 0.0
C2772 C 0.87965 0.5294 0.26564 0.0
C2773 C 0.87985 0.55131 0.26524 0.0
C2774 C 0.87988 0.46147 0.2819 0.0
C2775 C 0.89781 0.45042 0.27442 0.0
C2776 C 0.87953 0.48338 0.28147 0.0
C2777 C 0.89718 0.49478 0.27377 0.0
C2778 C 0.91497 0.48369 0.26578 0.0
C2779 C 0.91523 0.46174 0.26597 0.0
H2780 H 0.70342 0.61584 0.51151 0.0
H2781 H 0.70494 0.67946 0.5382 0.0
H2782 H 0.74164 0.61486 0.51156 0.0
H2783 H 0.74324 0.67849 0.53833 0.0
H2784 H 0.81009 0.61538 0.5401 0.0
H2785 H 0.77187 0.61542 0.53996 0.0
H2786 H 0.77208 0.67702 0.50735 0.0
H2787 H 0.81039 0.67698 0.50759 0.0
C2788 C 0.71193 0.62954 0.51769 0.0
C2789 C 0.70116 0.64773 0.52486 0.0
C2790 C 0.73384 0.62898 0.51772 0.0
C2791 C 0.74553 0.64666 0.52473 0.0
C2792 C 0.73472 0.66471 0.53245 0.0
C2793 C 0.71278 0.6652 0.53264 0.0
C2794 C 0.80197 0.62883 0.53264 0.0
C2795 C 0.81326 0.64619 0.52388 0.0
C2796 C 0.78006 0.62885 0.53254 0.0
C2797 C 0.76888 0.64631 0.52387 0.0
C2798 C 0.7802 0.66347 0.51453 0.0
C2799 C 0.80215 0.66336 0.51442 0.0
H2800 H 0.38083 0.55747 0.30955 0.0
H2801 H 0.41527 0.55988 0.24129 0.0
H2802 H 0.38147 0.51929 0.30829 0.0
H2803 H 0.4152 0.52136 0.23966 0.0
H2804 H 0.38118 0.45404 0.23774 0.0
H2805 H 0.38186 0.49225 0.23876 0.0
H2806 H 0.41493 0.49048 0.30785 0.0
H2807 H 0.41497 0.45196 0.30646 0.0
C2808 C 0.38833 0.54986 0.2941 0.0
C2809 C 0.39794 0.56169 0.27542 0.0
C2810 C 0.38881 0.52799 0.29353 0.0
C2811 C 0.39845 0.51745 0.27397 0.0
C2812 C 0.40769 0.52919 0.25496 0.0
C2813 C 0.40769 0.55115 0.25586 0.0
C2814 C 0.38856 0.46174 0.25322 0.0
C2815 C 0.39797 0.45 0.27213 0.0
C2816 C 0.38907 0.48361 0.25366 0.0
C2817 C 0.39851 0.49424 0.2733 0.0
C2818 C 0.40758 0.48258 0.29248 0.0
C2819 C 0.40757 0.46062 0.29172 0.0
H2820 H 0.30959 0.61683 1.01133 0.0
H2821 H 0.30885 0.67939 0.04133 0.0
H2822 H 0.27135 0.6162 1.01163 0.0
H2823 H 0.27055 0.67877 0.04168 0.0
H2824 H 0.20286 0.61658 0.04026 0.0
H2825 H 0.2411 0.61612 0.04019 0.0
H2826 H 0.24179 0.67879 1.01052 0.0
H2827 H 0.20348 0.67923 1.01065 0.0
C2828 C 0.30124 0.63035 1.01829 0.0
C2829 C 0.31223 0.64817 0.02628 0.0
C2830 C 0.27933 0.62999 1.01846 0.0
C2831 C 0.26787 0.64752 0.02644 0.0
C2832 C 0.2789 0.66514 0.03505 0.0
C2833 C 0.30084 0.66542 0.03509 0.0
C2834 C 0.21119 0.63016 0.03345 0.0
C2835 C 0.20016 0.64794 0.02547 0.0
C2836 C 0.2331 0.6299 0.0334 0.0
C2837 C 0.24453 0.64749 0.02557 0.0
C2838 C 0.23346 0.6651 1.01704 0.0
C2839 C 0.21152 0.66529 1.01687 0.0
H2840 H 0.08478 0.45348 0.75861 0.0
H2841 H 0.14659 0.45342 0.79064 0.0
H2842 H 0.08506 0.49179 0.75815 0.0
H2843 H 0.14688 0.49165 0.79021 0.0
H2844 H 0.14672 0.55983 0.76063 0.0
H2845 H 0.14738 0.52161 0.76112 0.0
H2846 H 0.08419 0.5208 0.78924 0.0
H2847 H 0.08354 0.55912 0.78872 0.0
C2848 C 0.09851 0.46164 0.76529 0.0
C2849 C 0.11566 0.45044 0.77467 0.0
C2850 C 0.09859 0.48358 0.76527 0.0
C2851 C 0.11591 0.49479 0.77437 0.0
C2852 C 0.13333 0.48352 0.78299 0.0
C2853 C 0.13316 0.46162 0.78323 0.0
C2854 C 0.13306 0.55149 0.76719 0.0
C2855 C 0.11508 0.56247 0.77464 0.0
C2856 C 0.13344 0.52959 0.76748 0.0
C2857 C 0.11577 0.51813 0.77501 0.0
C2858 C 0.09794 0.52915 0.78299 0.0
C2859 C 0.09764 0.5511 0.78294 0.0
H2860 H 0.20272 0.39701 0.50867 0.0
H2861 H 0.2029 0.33481 0.53959 0.0
H2862 H 0.24093 0.39728 0.50885 0.0
H2863 H 0.24122 0.3351 0.5399 0.0
H2864 H 0.30851 0.33389 0.50965 0.0
H2865 H 0.27019 0.33447 0.50916 0.0
H2866 H 0.27095 0.39768 0.53732 0.0
H2867 H 0.30915 0.39711 0.53767 0.0
C2868 C 0.21094 0.38349 0.5158 0.0
C2869 C 0.19981 0.36588 0.52411 0.0
C2870 C 0.23284 0.38365 0.51591 0.0
C2871 C 0.24415 0.36614 0.52418 0.0
C2872 C 0.23298 0.34871 0.53305 0.0
C2873 C 0.21104 0.34862 0.53312 0.0
C2874 C 0.30047 0.34799 0.51543 0.0
C2875 C 0.31183 0.36545 0.52372 0.0
C2876 C 0.27853 0.34825 0.5154 0.0
C2877 C 0.26749 0.36605 0.52344 0.0
C2878 C 0.27893 0.38375 0.53092 0.0
C2879 C 0.30083 0.38343 0.53114 0.0
H2880 H 0.11468 0.17251 0.08506 0.0
H2881 H 0.13201 0.10733 0.09103 0.0
H2882 H 0.11154 0.17431 0.1303 0.0
H2883 H 0.12923 0.10939 0.13535 0.0
H2884 H 0.15596 0.13008 0.20906 0.0
H2885 H 0.15383 0.13304 0.16476 0.0
H2886 H 0.08959 0.153 0.1703 0.0
H2887 H 0.09146 0.14969 0.21551 0.0
C2888 C 0.11752 0.15854 0.09582 0.0
C2889 C 0.12382 0.13985 0.08414 0.0
C2890 C 0.11568 0.15958 0.12173 0.0
C2891 C 0.12032 0.14202 0.13643 0.0
C2892 C 0.12573 0.12325 0.12463 0.0
C2893 C 0.12733 0.12213 0.09904 0.0
C2894 C 0.1413 0.13529 0.20116 0.0
C2895 C 0.12378 0.1394 0.21619 0.0
C2896 C 0.14015 0.137 0.17558 0.0
C2897 C 0.12153 0.1431 0.16393 0.0
C2898 C 0.1042 0.14831 0.17876 0.0
C2899 C 0.10527 0.14638 0.20465 0.0
H2900 H 0.11286 0.9028 0.46134 0.0
H2901 H 0.13178 0.83802 0.46227 0.0
H2902 H 0.10842 0.9011 0.41667 0.0
H2903 H 0.12803 0.83656 0.41727 0.0
H2904 H 0.15143 0.86204 0.33769 0.0
H2905 H 0.14968 0.85779 0.38238 0.0
H2906 H 0.0861 0.88035 0.38194 0.0
H2907 H 0.0876 0.88392 0.33692 0.0
C2908 C 0.11575 0.88808 0.45205 0.0
C2909 C 0.12254 0.8705 0.46546 0.0
C2910 C 0.11317 0.88711 0.42642 0.0
C2911 C 0.11787 0.86871 0.41335 0.0
C2912 C 0.12425 0.85096 0.42679 0.0
C2913 C 0.12626 0.85176 0.45258 0.0
C2914 C 0.13689 0.86561 0.34703 0.0
C2915 C 0.1196 0.87318 0.33365 0.0
C2916 C 0.13588 0.86315 0.37266 0.0
C2917 C 0.11776 0.86874 0.38577 0.0
C2918 C 0.10028 0.87588 0.37238 0.0
C2919 C 0.10109 0.87778 0.34658 0.0
H2920 H 0.36016 0.86342 0.71054 0.0
H2921 H 0.42482 0.88278 0.71244 0.0
H2922 H 0.36221 0.85944 0.66582 0.0
H2923 H 0.42662 0.87952 0.66741 0.0
H2924 H 0.40072 0.90359 0.58794 0.0
H2925 H 0.40468 0.90158 0.63267 0.0
H2926 H 0.38424 0.83728 0.63116 0.0
H2927 H 0.38102 0.83903 0.58611 0.0
C2928 C 0.37492 0.86652 0.70145 0.0
C2929 C 0.39237 0.87329 0.71514 0.0
C2930 C 0.37609 0.8642 0.67581 0.0
C2931 C 0.39457 0.86916 0.66303 0.0
C2932 C 0.41218 0.87553 0.67673 0.0
C2933 C 0.41118 0.87728 0.70252 0.0
C2934 C 0.39757 0.88885 0.59706 0.0
C2935 C 0.3907 0.87142 0.58339 0.0
C2936 C 0.39986 0.8877 0.6227 0.0
C2937 C 0.39477 0.86928 0.63549 0.0
C2938 C 0.38832 0.85168 0.62182 0.0
C2939 C 0.38661 0.85264 0.59602 0.0
H2940 H 0.42455 0.12936 0.83731 0.0
H2941 H 0.36049 0.15058 0.83823 0.0
H2942 H 0.42592 0.13248 0.88239 0.0
H2943 H 0.36211 0.15439 0.88299 0.0
H2944 H 0.37979 0.17376 0.96313 0.0
H2945 H 0.38343 0.17554 0.91815 0.0
H2946 H 0.40385 0.11125 0.91685 0.0
H2947 H 0.39953 0.10923 0.96151 0.0
C2948 C 0.41097 0.13525 0.84703 0.0
C2949 C 0.39244 0.1398 0.83411 0.0
C2950 C 0.41171 0.1369 0.87286 0.0
C2951 C 0.39413 0.14373 0.88631 0.0
C2952 C 0.37597 0.14926 0.87323 0.0
C2953 C 0.37505 0.14705 0.84756 0.0
C2954 C 0.38544 0.16014 0.95329 0.0
C2955 C 0.38943 0.14138 0.96598 0.0
C2956 C 0.3874 0.16112 0.92751 0.0
C2957 C 0.39398 0.14354 0.91388 0.0
C2958 C 0.39893 0.12512 0.92675 0.0
C2959 C 0.39641 0.12396 0.95237 0.0
H2960 H 0.85685 0.88378 0.83925 0.0
H2961 H 0.92116 0.86336 0.8338 0.0
H2962 H 0.85855 0.88109 0.8836 0.0
H2963 H 0.9226 0.86034 0.87904 0.0
H2964 H 0.89802 0.8414 0.96392 0.0
H2965 H 0.90124 0.83965 0.91868 0.0
H2966 H 0.88206 0.90415 0.91357 0.0
H2967 H 0.87919 0.90615 0.95787 0.0
C2968 C 0.87138 0.87846 0.84738 0.0
C2969 C 0.88897 0.87401 0.8326 0.0
C2970 C 0.87229 0.87692 0.873 0.0
C2971 C 0.89072 0.87065 0.88496 0.0
C2972 C 0.90813 0.86517 0.87037 0.0
C2973 C 0.9073 0.86694 0.84445 0.0
C2974 C 0.89485 0.85528 0.95315 0.0
C2975 C 0.88812 0.87384 0.96481 0.0
C2976 C 0.89672 0.85428 0.92723 0.0
C2977 C 0.89169 0.87172 0.91249 0.0
C2978 C 0.88583 0.89036 0.92429 0.0
C2979 C 0.88419 0.89145 0.94988 0.0
H2980 H 0.92368 0.12998 0.71253 0.0
H2981 H 0.85863 0.14798 0.71098 0.0
H2982 H 0.9254 0.1338 0.66758 0.0
H2983 H 0.86057 0.15243 0.66634 0.0
H2984 H 0.87796 0.17392 0.58697 0.0
H2985 H 0.88097 0.17517 0.63207 0.0
H2986 H 0.90526 0.11223 0.63217 0.0
H2987 H 0.90158 0.11072 0.58741 0.0
C2988 C 0.90991 0.13525 0.70272 0.0
C2989 C 0.89104 0.13872 0.71544 0.0
C2990 C 0.91086 0.13732 0.67694 0.0
C2991 C 0.89313 0.14348 0.66334 0.0
C2992 C 0.87455 0.14785 0.67623 0.0
C2993 C 0.87345 0.14524 0.70184 0.0
C2994 C 0.88437 0.16054 0.59659 0.0
C2995 C 0.88964 0.14227 0.58353 0.0
C2996 C 0.88594 0.16119 0.62243 0.0
C2997 C 0.89338 0.1438 0.63576 0.0
C2998 C 0.89964 0.12595 0.62253 0.0
C2999 C 0.89752 0.12509 0.59684 0.0
H3000 H 0.61762 0.17282 0.46388 0.0
H3001 H 0.62673 0.10597 0.45927 0.0
H3002 H 0.61419 0.17424 0.41866 0.0
H3003 H 0.6238 0.10757 0.41486 0.0
H3004 H 0.65399 0.1254 0.34114 0.0
H3005 H 0.65159 0.12861 0.38538 0.0
H3006 H 0.58951 0.15429 0.37879 0.0
H3007 H 0.59159 0.15071 0.33359 0.0
C3008 C 0.61854 0.15842 0.45342 0.0
C3009 C 0.62278 0.13932 0.46542 0.0
C3010 C 0.61655 0.15925 0.42752 0.0
C3011 C 0.61891 0.14102 0.41316 0.0
C3012 C 0.62208 0.12192 0.42532 0.0
C3013 C 0.62385 0.12106 0.45092 0.0
C3014 C 0.63975 0.13191 0.34877 0.0
C3015 C 0.62288 0.13761 0.33343 0.0
C3016 C 0.63845 0.13375 0.37433 0.0
C3017 C 0.62036 0.1416 0.38567 0.0
C3018 C 0.60371 0.14824 0.37056 0.0
C3019 C 0.60489 0.14615 0.34468 0.0
H3020 H 0.611 0.84331 0.08346 0.0
H3021 H 0.63939 0.90434 0.09122 0.0
H3022 H 0.60755 0.84123 0.12868 0.0
H3023 H 0.63609 0.9021 0.13537 0.0
H3024 H 0.65677 0.87895 0.20957 0.0
H3025 H 0.65545 0.87599 0.1652 0.0
H3026 H 0.58912 0.86403 0.16846 0.0
H3027 H 0.59025 0.86728 0.21371 0.0
C3028 C 0.61627 0.85633 0.0946 0.0
C3029 C 0.62555 0.87397 0.08338 0.0
C3030 C 0.61424 0.85516 0.12049 0.0
C3031 C 0.62171 0.87145 0.13566 0.0
C3032 C 0.63034 0.88919 0.12433 0.0
C3033 C 0.63215 0.89046 0.09878 0.0
C3034 C 0.64181 0.87549 0.20113 0.0
C3035 C 0.62354 0.87366 0.2155 0.0
C3036 C 0.64111 0.87377 0.17552 0.0
C3037 C 0.62218 0.87 0.16319 0.0
C3038 C 0.60399 0.8669 0.17742 0.0
C3039 C 0.60464 0.86879 0.20335 0.0
H3040 H 0.5885 0.63106 0.71224 0.0
H3041 H 0.65314 0.65051 0.7109 0.0
H3042 H 0.58695 0.63439 0.6672 0.0
H3043 H 0.65135 0.65453 0.6662 0.0
H3044 H 0.63372 0.67457 0.58625 0.0
H3045 H 0.63026 0.67641 0.63128 0.0
H3046 H 0.60838 0.61259 0.6325 0.0
H3047 H 0.61254 0.6105 0.58782 0.0
C3048 C 0.60218 0.63661 0.70245 0.0
C3049 C 0.62091 0.6406 0.71524 0.0
C3050 C 0.60133 0.63838 0.67664 0.0
C3051 C 0.61902 0.64478 0.66308 0.0
C3052 C 0.6374 0.64976 0.67604 0.0
C3053 C 0.63842 0.64742 0.70169 0.0
C3054 C 0.62776 0.6611 0.59609 0.0
C3055 C 0.62332 0.64242 0.58338 0.0
C3056 C 0.62592 0.6621 0.62189 0.0
C3057 C 0.61899 0.64465 0.6355 0.0
C3058 C 0.61357 0.62636 0.62261 0.0
C3059 C 0.61598 0.62516 0.59698 0.0
H3060 H 0.65222 0.36269 0.83812 0.0
H3061 H 0.58756 0.38202 0.83682 0.0
H3062 H 0.65038 0.35841 0.88278 0.0
H3063 H 0.58596 0.37841 0.88183 0.0
H3064 H 0.61151 0.40195 0.96139 0.0
H3065 H 0.60725 0.40004 0.91671 0.0
H3066 H 0.62941 0.33632 0.91748 0.0
H3067 H 0.63298 0.33798 0.96249 0.0
C3068 C 0.63749 0.3657 0.84733 0.0
C3069 C 0.61999 0.37257 0.83381 0.0
C3070 C 0.63644 0.3632 0.87295 0.0
C3071 C 0.61804 0.36806 0.88591 0.0
C3072 C 0.60036 0.3745 0.87239 0.0
C3073 C 0.60124 0.37644 0.84659 0.0
C3074 C 0.61499 0.38734 0.95213 0.0
C3075 C 0.62245 0.37006 0.96559 0.0
C3076 C 0.61252 0.38625 0.9265 0.0
C3077 C 0.618 0.36804 0.91349 0.0
C3078 C 0.62502 0.35057 0.92697 0.0
C3079 C 0.62693 0.35147 0.95276 0.0
H3080 H 0.88052 0.40607 0.09015 0.0
H3081 H 0.89819 0.34098 0.08413 0.0
H3082 H 0.88334 0.40405 0.13448 0.0
H3083 H 0.90136 0.33922 0.12936 0.0
H3084 H 0.92127 0.36418 0.21465 0.0
H3085 H 0.92322 0.36084 0.16943 0.0
H3086 H 0.85878 0.38009 0.1638 0.0
H3087 H 0.85656 0.38307 0.2081 0.0
C3088 C 0.88529 0.3913 0.09815 0.0
C3089 C 0.88888 0.37359 0.08324 0.0
C3090 C 0.88691 0.39021 0.12375 0.0
C3091 C 0.89242 0.37147 0.13552 0.0
C3092 C 0.89714 0.35392 0.12081 0.0
C3093 C 0.89529 0.35494 0.0949 0.0
C3094 C 0.90743 0.36731 0.20377 0.0
C3095 C 0.88884 0.37412 0.21527 0.0
C3096 C 0.90855 0.36537 0.17787 0.0
C3097 C 0.89118 0.37039 0.16302 0.0
C3098 C 0.87249 0.37629 0.17464 0.0
C3099 C 0.87129 0.37801 0.20022 0.0
H3100 H 0.92175 0.64569 0.33421 0.0
H3101 H 0.85571 0.63161 0.33872 0.0
H3102 H 0.92308 0.64837 0.37949 0.0
H3103 H 0.85723 0.63402 0.38311 0.0
H3104 H 0.87371 0.60689 0.45734 0.0
H3105 H 0.87653 0.60905 0.41311 0.0
H3106 H 0.90531 0.66986 0.41924 0.0
H3107 H 0.90237 0.66785 0.46447 0.0
C3108 C 0.9075 0.64349 0.34467 0.0
C3109 C 0.88869 0.63818 0.33257 0.0
C3110 C 0.90827 0.64504 0.37062 0.0
C3111 C 0.8903 0.64113 0.38497 0.0
C3112 C 0.87142 0.63683 0.37272 0.0
C3113 C 0.87061 0.63546 0.34709 0.0
C3114 C 0.8809 0.62074 0.44961 0.0
C3115 C 0.88774 0.63723 0.46486 0.0
C3116 C 0.88242 0.62197 0.42402 0.0
C3117 C 0.89097 0.63968 0.41251 0.0
C3118 C 0.89867 0.65596 0.42754 0.0
C3119 C 0.89693 0.65482 0.45345 0.0
H3120 H 0.35869 0.38822 0.34149 0.0
H3121 H 0.41989 0.36014 0.33396 0.0
H3122 H 0.36102 0.38513 0.38575 0.0
H3123 H 0.4219 0.35671 0.37916 0.0
H3124 H 0.39327 0.33965 0.46429 0.0
H3125 H 0.39672 0.33801 0.41908 0.0
H3126 H 0.38947 0.40497 0.41518 0.0
H3127 H 0.38652 0.40677 0.45958 0.0
C3128 C 0.37263 0.38113 0.34913 0.0
C3129 C 0.3892 0.3746 0.3338 0.0
C3130 C 0.37391 0.37937 0.3747 0.0
C3131 C 0.39165 0.37078 0.38604 0.0
C3132 C 0.40797 0.36334 0.37094 0.0
C3133 C 0.40683 0.36537 0.34505 0.0
C3134 C 0.3929 0.35405 0.45381 0.0
C3135 C 0.38928 0.37332 0.46576 0.0
C3136 C 0.39488 0.3531 0.42791 0.0
C3137 C 0.39315 0.37137 0.41353 0.0
C3138 C 0.39067 0.3906 0.42565 0.0
C3139 C 0.38889 0.39158 0.45125 0.0
H3140 H 0.42458 0.63066 0.21272 0.0
H3141 H 0.35961 0.64896 0.21151 0.0
H3142 H 0.42615 0.63451 0.16775 0.0
H3143 H 0.3614 0.65348 0.16688 0.0
H3144 H 0.37872 0.67483 0.08742 0.0
H3145 H 0.38209 0.67616 0.13247 0.0
H3146 H 0.40529 0.61281 0.13261 0.0
H3147 H 0.40124 0.61121 0.08789 0.0
C3148 C 0.41081 0.63604 0.20298 0.0
C3149 C 0.392 0.63956 0.21578 0.0
C3150 C 0.41167 0.63812 0.17721 0.0
C3151 C 0.39391 0.64436 0.16371 0.0
C3152 C 0.37541 0.64884 0.17669 0.0
C3153 C 0.37439 0.6462 0.20229 0.0
C3154 C 0.38495 0.66136 0.09703 0.0
C3155 C 0.38979 0.64295 0.08401 0.0
C3156 C 0.38674 0.66207 0.12284 0.0
C3157 C 0.394 0.6446 0.13615 0.0
C3158 C 0.39983 0.62659 0.12296 0.0
C3159 C 0.39748 0.62568 0.09731 0.0
H3160 H 0.15627 0.63042 0.84122 0.0
H3161 H 0.09111 0.64769 0.8348 0.0
H3162 H 0.15405 0.63334 0.88552 0.0
H3163 H 0.08914 0.65097 0.88002 0.0
H3164 H 0.11394 0.67127 0.9654 0.0
H3165 H 0.11066 0.6731 0.92018 0.0
H3166 H 0.12996 0.60865 0.91475 0.0
H3167 H 0.13287 0.60656 0.95906 0.0
C3168 C 0.14144 0.63511 0.84912 0.0
C3169 C 0.12377 0.63856 0.83411 0.0
C3170 C 0.14023 0.6368 0.87471 0.0
C3171 C 0.12141 0.64223 0.88637 0.0
C3172 C 0.1039 0.64682 0.87155 0.0
C3173 C 0.10504 0.64491 0.84565 0.0
C3174 C 0.11709 0.6574 0.95456 0.0
C3175 C 0.1239 0.63884 0.96613 0.0
C3176 C 0.11518 0.65845 0.92866 0.0
C3177 C 0.12023 0.64105 0.91386 0.0
C3178 C 0.12613 0.62239 0.92555 0.0
C3179 C 0.12781 0.62126 0.95114 0.0
H3180 H 0.09349 0.36133 0.71501 0.0
H3181 H 0.15445 0.38998 0.70791 0.0
H3182 H 0.09152 0.3583 0.66976 0.0
H3183 H 0.15231 0.3871 0.66369 0.0
H3184 H 0.1296 0.40801 0.58935 0.0
H3185 H 0.12691 0.40645 0.63372 0.0
H3186 H 0.11363 0.34039 0.62989 0.0
H3187 H 0.11661 0.34176 0.58463 0.0
C3188 C 0.10653 0.36676 0.70401 0.0
C3189 C 0.12411 0.37597 0.71544 0.0
C3190 C 0.10541 0.36496 0.67807 0.0
C3191 C 0.1217 0.37263 0.66305 0.0
C3192 C 0.13939 0.38122 0.67459 0.0
C3193 C 0.14061 0.38278 0.70018 0.0
C3194 C 0.12591 0.39306 0.59766 0.0
C3195 C 0.1236 0.37494 0.58309 0.0
C3196 C 0.12437 0.39222 0.62329 0.0
C3197 C 0.12029 0.37328 0.63548 0.0
C3198 C 0.11676 0.35526 0.62107 0.0
C3199 C 0.11849 0.35605 0.59512 0.0
loop_
_geom_bond_atom_site_label_1
_geom_bond_atom_site_label_2
_geom_bond_distance
_geom_bond_site_symmetry_2
_ccdc_geom_bond_type
C0 Eu1 2.835 . S
C0 C2 1.500 . S
C0 O20 1.257 . S
C0 O21 1.260 . S
Eu1 C0 2.835 . S
Eu1 O20 2.473 . S
Eu1 O21 2.480 . S
Eu1 O22 2.430 . S
Eu1 O23 2.670 . S
Eu1 O24 2.394 . S
Eu1 O29 2.355 . S
Eu1 O31 2.374 . S
C2 C0 1.500 . S
C2 C3 1.377 . S
C2 C7 1.377 . S
C3 C2 1.377 . S
C3 C4 1.395 . S
C3 H32 0.931 . S
C4 C3 1.395 . S
C4 C5 1.383 . S
C4 H33 0.931 . S
C5 C4 1.383 . S
C5 C6 1.394 . S
C6 C5 1.394 . S
C6 C7 1.378 . S
C6 H34 0.931 . S
C7 C2 1.377 . S
C7 C6 1.378 . S
C7 H35 0.931 . S
C8 O22 1.259 . S
C8 O23 1.270 . S
C9 O24 1.251 . S
C9 O25 1.251 . S
C10 Eu11 2.835 . S
C10 C12 1.500 . S
C10 O26 1.257 . S
C10 O27 1.260 . S
Eu11 C10 2.835 . S
Eu11 O23 2.355 . S
Eu11 O25 2.374 . S
Eu11 O26 2.473 . S
Eu11 O27 2.480 . S
Eu11 O28 2.430 . S
Eu11 O29 2.670 . S
Eu11 O30 2.394 . S
C12 C10 1.500 . S
C12 C13 1.377 . S
C12 C17 1.377 . S
C13 C12 1.377 . S
C13 C14 1.395 . S
C13 H36 0.931 . S
C14 C13 1.395 . S
C14 C15 1.383 . S
C14 H37 0.931 . S
C15 C14 1.383 . S
C15 C16 1.394 . S
C16 C15 1.394 . S
C16 C17 1.378 . S
C16 H38 0.931 . S
C17 C12 1.377 . S
C17 C16 1.378 . S
C17 H39 0.931 . S
C18 O28 1.259 . S
C18 O29 1.270 . S
C19 O30 1.251 . S
C19 O31 1.251 . S
O20 C0 1.257 . S
O20 Eu1 2.473 . S
O21 C0 1.260 . S
O21 Eu1 2.480 . S
O22 Eu1 2.430 . S
O22 C8 1.259 . S
O23 Eu1 2.670 . S
O23 C8 1.270 . S
O23 Eu11 2.355 . S
O24 Eu1 2.394 . S
O24 C9 1.251 . S
O25 C9 1.251 . S
O25 Eu11 2.374 . S
O26 C10 1.257 . S
O26 Eu11 2.473 . S
O27 C10 1.260 . S
O27 Eu11 2.480 . S
O28 Eu11 2.430 . S
O28 C18 1.259 . S
O29 Eu1 2.355 . S
O29 Eu11 2.670 . S
O29 C18 1.270 . S
O30 Eu11 2.394 . S
O30 C19 1.251 . S
O31 Eu1 2.374 . S
O31 C19 1.251 . S
H32 C3 0.931 . S
H33 C4 0.931 . S
H34 C6 0.931 . S
H35 C7 0.931 . S
H36 C13 0.931 . S
H37 C14 0.931 . S
H38 C16 0.931 . S
H39 C17 0.931 . S
C40 Eu41 2.835 . S
C40 C42 1.500 . S
C40 O60 1.257 . S
C40 O61 1.260 . S
Eu41 C40 2.835 . S
Eu41 O60 2.473 . S
Eu41 O61 2.480 . S
Eu41 O62 2.430 . S
Eu41 O63 2.670 . S
Eu41 O64 2.394 . S
Eu41 O69 2.355 . S
Eu41 O71 2.374 . S
C42 C40 1.500 . S
C42 C43 1.377 . S
C42 C47 1.377 . S
C43 C42 1.377 . S
C43 C44 1.395 . S
C43 H72 0.931 . S
C44 C43 1.395 . S
C44 C45 1.383 . S
C44 H73 0.931 . S
C45 C44 1.383 . S
C45 C46 1.394 . S
C46 C45 1.394 . S
C46 C47 1.378 . S
C46 H74 0.931 . S
C47 C42 1.377 . S
C47 C46 1.378 . S
C47 H75 0.931 . S
C48 O62 1.259 . S
C48 O63 1.270 . S
C49 O64 1.251 . S
C49 O65 1.251 . S
C50 Eu51 2.835 . S
C50 C52 1.500 . S
C50 O66 1.257 . S
C50 O67 1.260 . S
Eu51 C50 2.835 . S
Eu51 O63 2.355 . S
Eu51 O65 2.374 . S
Eu51 O66 2.473 . S
Eu51 O67 2.480 . S
Eu51 O68 2.430 . S
Eu51 O69 2.670 . S
Eu51 O70 2.394 . S
C52 C50 1.500 . S
C52 C53 1.377 . S
C52 C57 1.377 . S
C53 C52 1.377 . S
C53 C54 1.395 . S
C53 H76 0.931 . S
C54 C53 1.395 . S
C54 C55 1.383 . S
C54 H77 0.931 . S
C55 C54 1.383 . S
C55 C56 1.394 . S
C56 C55 1.394 . S
C56 C57 1.378 . S
C56 H78 0.931 . S
C57 C52 1.377 . S
C57 C56 1.378 . S
C57 H79 0.931 . S
C58 O68 1.259 . S
C58 O69 1.270 . S
C59 O70 1.251 . S
C59 O71 1.251 . S
O60 C40 1.257 . S
O60 Eu41 2.473 . S
O61 C40 1.260 . S
O61 Eu41 2.480 . S
O62 Eu41 2.430 . S
O62 C48 1.259 . S
O63 Eu41 2.670 . S
O63 C48 1.270 . S
O63 Eu51 2.355 . S
O64 Eu41 2.394 . S
O64 C49 1.251 . S
O65 C49 1.251 . S
O65 Eu51 2.374 . S
O66 C50 1.257 . S
O66 Eu51 2.473 . S
O67 C50 1.260 . S
O67 Eu51 2.480 . S
O68 Eu51 2.430 . S
O68 C58 1.259 . S
O69 Eu41 2.355 . S
O69 Eu51 2.670 . S
O69 C58 1.270 . S
O70 Eu51 2.394 . S
O70 C59 1.251 . S
O71 Eu41 2.374 . S
O71 C59 1.251 . S
H72 C43 0.931 . S
H73 C44 0.931 . S
H74 C46 0.931 . S
H75 C47 0.931 . S
H76 C53 0.931 . S
H77 C54 0.931 . S
H78 C56 0.931 . S
H79 C57 0.931 . S
C80 Eu81 2.835 . S
C80 C82 1.500 . S
C80 O100 1.257 . S
C80 O101 1.260 . S
Eu81 C80 2.835 . S
Eu81 O100 2.473 . S
Eu81 O101 2.480 . S
Eu81 O102 2.430 . S
Eu81 O103 2.670 . S
Eu81 O104 2.394 . S
Eu81 O109 2.355 . S
Eu81 O111 2.374 . S
C82 C80 1.500 . S
C82 C83 1.377 . S
C82 C87 1.377 . S
C83 C82 1.377 . S
C83 C84 1.395 . S
C83 H112 0.931 . S
C84 C83 1.395 . S
C84 C85 1.383 . S
C84 H113 0.931 . S
C85 C84 1.383 . S
C85 C86 1.394 . S
C86 C85 1.394 . S
C86 C87 1.378 . S
C86 H114 0.931 . S
C87 C82 1.377 . S
C87 C86 1.378 . S
C87 H115 0.931 . S
C88 O102 1.259 . S
C88 O103 1.270 . S
C89 O104 1.251 . S
C89 O105 1.251 . S
C90 Eu91 2.835 . S
C90 C92 1.500 . S
C90 O106 1.257 . S
C90 O107 1.260 . S
Eu91 C90 2.835 . S
Eu91 O103 2.355 . S
Eu91 O105 2.374 . S
Eu91 O106 2.473 . S
Eu91 O107 2.480 . S
Eu91 O108 2.430 . S
Eu91 O109 2.670 . S
Eu91 O110 2.394 . S
C92 C90 1.500 . S
C92 C93 1.377 . S
C92 C97 1.377 . S
C93 C92 1.377 . S
C93 C94 1.395 . S
C93 H116 0.931 . S
C94 C93 1.395 . S
C94 C95 1.383 . S
C94 H117 0.931 . S
C95 C94 1.383 . S
C95 C96 1.394 . S
C96 C95 1.394 . S
C96 C97 1.378 . S
C96 H118 0.931 . S
C97 C92 1.377 . S
C97 C96 1.378 . S
C97 H119 0.931 . S
C98 O108 1.259 . S
C98 O109 1.270 . S
C99 O110 1.251 . S
C99 O111 1.251 . S
O100 C80 1.257 . S
O100 Eu81 2.473 . S
O101 C80 1.260 . S
O101 Eu81 2.480 . S
O102 Eu81 2.430 . S
O102 C88 1.259 . S
O103 Eu81 2.670 . S
O103 C88 1.270 . S
O103 Eu91 2.355 . S
O104 Eu81 2.394 . S
O104 C89 1.251 . S
O105 C89 1.251 . S
O105 Eu91 2.374 . S
O106 C90 1.257 . S
O106 Eu91 2.473 . S
O107 C90 1.260 . S
O107 Eu91 2.480 . S
O108 Eu91 2.430 . S
O108 C98 1.259 . S
O109 Eu81 2.355 . S
O109 Eu91 2.670 . S
O109 C98 1.270 . S
O110 Eu91 2.394 . S
O110 C99 1.251 . S
O111 Eu81 2.374 . S
O111 C99 1.251 . S
H112 C83 0.931 . S
H113 C84 0.931 . S
H114 C86 0.931 . S
H115 C87 0.931 . S
H116 C93 0.931 . S
H117 C94 0.931 . S
H118 C96 0.931 . S
H119 C97 0.931 . S
C120 Eu121 2.835 . S
C120 C122 1.500 . S
C120 O140 1.257 . S
C120 O141 1.260 . S
Eu121 C120 2.835 . S
Eu121 O140 2.473 . S
Eu121 O141 2.480 . S
Eu121 O142 2.430 . S
Eu121 O143 2.670 . S
Eu121 O144 2.394 . S
Eu121 O149 2.355 . S
Eu121 O151 2.374 1_554 S
C122 C120 1.500 . S
C122 C123 1.377 . S
C122 C127 1.377 . S
C123 C122 1.377 . S
C123 C124 1.395 . S
C123 H152 0.931 . S
C124 C123 1.395 . S
C124 C125 1.383 . S
C124 H153 0.931 . S
C125 C124 1.383 . S
C125 C126 1.394 . S
C126 C125 1.394 . S
C126 C127 1.378 . S
C126 H154 0.931 . S
C127 C122 1.377 . S
C127 C126 1.378 . S
C127 H155 0.931 . S
C128 O142 1.259 . S
C128 O143 1.270 . S
C129 O144 1.251 . S
C129 O145 1.251 . S
C130 Eu131 2.835 1_556 S
C130 C132 1.500 . S
C130 O146 1.257 . S
C130 O147 1.260 1_556 S
Eu131 C130 2.835 1_554 S
Eu131 O143 2.355 . S
Eu131 O145 2.374 . S
Eu131 O146 2.473 1_554 S
Eu131 O147 2.480 . S
Eu131 O148 2.430 . S
Eu131 O149 2.670 . S
Eu131 O150 2.394 1_554 S
C132 C130 1.500 . S
C132 C133 1.377 . S
C132 C137 1.377 . S
C133 C132 1.377 . S
C133 C134 1.395 . S
C133 H156 0.931 . S
C134 C133 1.395 . S
C134 C135 1.383 . S
C134 H157 0.931 . S
C135 C134 1.383 . S
C135 C136 1.394 . S
C136 C135 1.394 . S
C136 C137 1.378 . S
C136 H158 0.931 . S
C137 C132 1.377 . S
C137 C136 1.378 . S
C137 H159 0.931 . S
C138 O148 1.259 . S
C138 O149 1.270 . S
C139 O150 1.251 . S
C139 O151 1.251 . S
O140 C120 1.257 . S
O140 Eu121 2.473 . S
O141 C120 1.260 . S
O141 Eu121 2.480 . S
O142 Eu121 2.430 . S
O142 C128 1.259 . S
O143 Eu121 2.670 . S
O143 C128 1.270 . S
O143 Eu131 2.355 . S
O144 Eu121 2.394 . S
O144 C129 1.251 . S
O145 C129 1.251 . S
O145 Eu131 2.374 . S
O146 C130 1.257 . S
O146 Eu131 2.473 1_556 S
O147 C130 1.260 1_554 S
O147 Eu131 2.480 . S
O148 Eu131 2.430 . S
O148 C138 1.259 . S
O149 Eu121 2.355 . S
O149 Eu131 2.670 . S
O149 C138 1.270 . S
O150 Eu131 2.394 1_556 S
O150 C139 1.251 . S
O151 Eu121 2.374 1_556 S
O151 C139 1.251 . S
H152 C123 0.931 . S
H153 C124 0.931 . S
H154 C126 0.931 . S
H155 C127 0.931 . S
H156 C133 0.931 . S
H157 C134 0.931 . S
H158 C136 0.931 . S
H159 C137 0.931 . S
C160 Eu161 2.835 . S
C160 C162 1.500 . S
C160 O180 1.257 . S
C160 O181 1.260 . S
Eu161 C160 2.835 . S
Eu161 O180 2.473 . S
Eu161 O181 2.480 . S
Eu161 O182 2.430 . S
Eu161 O183 2.670 . S
Eu161 O184 2.394 . S
Eu161 O189 2.355 . S
Eu161 O191 2.374 . S
C162 C160 1.500 . S
C162 C163 1.377 . S
C162 C167 1.377 . S
C163 C162 1.377 . S
C163 C164 1.395 . S
C163 H192 0.931 . S
C164 C163 1.395 . S
C164 C165 1.383 . S
C164 H193 0.931 . S
C165 C164 1.383 . S
C165 C166 1.394 . S
C166 C165 1.394 . S
C166 C167 1.378 . S
C166 H194 0.931 . S
C167 C162 1.377 . S
C167 C166 1.378 . S
C167 H195 0.931 . S
C168 O182 1.259 . S
C168 O183 1.270 . S
C169 O184 1.251 . S
C169 O185 1.251 . S
C170 Eu171 2.835 . S
C170 C172 1.500 . S
C170 O186 1.257 . S
C170 O187 1.260 . S
Eu171 C170 2.835 . S
Eu171 O183 2.355 . S
Eu171 O185 2.374 . S
Eu171 O186 2.473 . S
Eu171 O187 2.480 . S
Eu171 O188 2.430 . S
Eu171 O189 2.670 . S
Eu171 O190 2.394 . S
C172 C170 1.500 . S
C172 C173 1.377 . S
C172 C177 1.377 . S
C173 C172 1.377 . S
C173 C174 1.395 . S
C173 H196 0.931 . S
C174 C173 1.395 . S
C174 C175 1.383 . S
C174 H197 0.931 . S
C175 C174 1.383 . S
C175 C176 1.394 . S
C176 C175 1.394 . S
C176 C177 1.378 . S
C176 H198 0.931 . S
C177 C172 1.377 . S
C177 C176 1.378 . S
C177 H199 0.931 . S
C178 O188 1.259 . S
C178 O189 1.270 . S
C179 O190 1.251 . S
C179 O191 1.251 . S
O180 C160 1.257 . S
O180 Eu161 2.473 . S
O181 C160 1.260 . S
O181 Eu161 2.480 . S
O182 Eu161 2.430 . S
O182 C168 1.259 . S
O183 Eu161 2.670 . S
O183 C168 1.270 . S
O183 Eu171 2.355 . S
O184 Eu161 2.394 . S
O184 C169 1.251 . S
O185 C169 1.251 . S
O185 Eu171 2.374 . S
O186 C170 1.257 . S
O186 Eu171 2.473 . S
O187 C170 1.260 . S
O187 Eu171 2.480 . S
O188 Eu171 2.430 . S
O188 C178 1.259 . S
O189 Eu161 2.355 . S
O189 Eu171 2.670 . S
O189 C178 1.270 . S
O190 Eu171 2.394 . S
O190 C179 1.251 . S
O191 Eu161 2.374 . S
O191 C179 1.251 . S
H192 C163 0.931 . S
H193 C164 0.931 . S
H194 C166 0.931 . S
H195 C167 0.931 . S
H196 C173 0.931 . S
H197 C174 0.931 . S
H198 C176 0.931 . S
H199 C177 0.931 . S
C200 Eu201 2.835 . S
C200 C202 1.500 . S
C200 O220 1.257 . S
C200 O221 1.260 . S
Eu201 C200 2.835 . S
Eu201 O220 2.473 . S
Eu201 O221 2.480 . S
Eu201 O222 2.430 . S
Eu201 O223 2.670 . S
Eu201 O224 2.394 . S
Eu201 O229 2.355 . S
Eu201 O231 2.374 . S
C202 C200 1.500 . S
C202 C203 1.377 . S
C202 C207 1.377 . S
C203 C202 1.377 . S
C203 C204 1.395 . S
C203 H232 0.931 . S
C204 C203 1.395 . S
C204 C205 1.383 . S
C204 H233 0.931 . S
C205 C204 1.383 . S
C205 C206 1.394 . S
C206 C205 1.394 . S
C206 C207 1.378 . S
C206 H234 0.931 . S
C207 C202 1.377 . S
C207 C206 1.378 . S
C207 H235 0.931 . S
C208 O222 1.259 . S
C208 O223 1.270 . S
C209 O224 1.251 . S
C209 O225 1.251 . S
C210 Eu211 2.835 . S
C210 C212 1.500 . S
C210 O226 1.257 . S
C210 O227 1.260 . S
Eu211 C210 2.835 . S
Eu211 O223 2.355 . S
Eu211 O225 2.374 . S
Eu211 O226 2.473 . S
Eu211 O227 2.480 . S
Eu211 O228 2.430 . S
Eu211 O229 2.670 . S
Eu211 O230 2.394 . S
C212 C210 1.500 . S
C212 C213 1.377 . S
C212 C217 1.377 . S
C213 C212 1.377 . S
C213 C214 1.395 . S
C213 H236 0.931 . S
C214 C213 1.395 . S
C214 C215 1.383 . S
C214 H237 0.931 . S
C215 C214 1.383 . S
C215 C216 1.394 . S
C216 C215 1.394 . S
C216 C217 1.378 . S
C216 H238 0.931 . S
C217 C212 1.377 . S
C217 C216 1.378 . S
C217 H239 0.931 . S
C218 O228 1.259 . S
C218 O229 1.270 . S
C219 O230 1.251 . S
C219 O231 1.251 . S
O220 C200 1.257 . S
O220 Eu201 2.473 . S
O221 C200 1.260 . S
O221 Eu201 2.480 . S
O222 Eu201 2.430 . S
O222 C208 1.259 . S
O223 Eu201 2.670 . S
O223 C208 1.270 . S
O223 Eu211 2.355 . S
O224 Eu201 2.394 . S
O224 C209 1.251 . S
O225 C209 1.251 . S
O225 Eu211 2.374 . S
O226 C210 1.257 . S
O226 Eu211 2.473 . S
O227 C210 1.260 . S
O227 Eu211 2.480 . S
O228 Eu211 2.430 . S
O228 C218 1.259 . S
O229 Eu201 2.355 . S
O229 Eu211 2.670 . S
O229 C218 1.270 . S
O230 Eu211 2.394 . S
O230 C219 1.251 . S
O231 Eu201 2.374 . S
O231 C219 1.251 . S
H232 C203 0.931 . S
H233 C204 0.931 . S
H234 C206 0.931 . S
H235 C207 0.931 . S
H236 C213 0.931 . S
H237 C214 0.931 . S
H238 C216 0.931 . S
H239 C217 0.931 . S
C240 Eu241 2.835 . S
C240 C242 1.500 . S
C240 O260 1.257 . S
C240 O261 1.260 . S
Eu241 C240 2.835 . S
Eu241 O260 2.473 . S
Eu241 O261 2.480 . S
Eu241 O262 2.430 . S
Eu241 O263 2.670 . S
Eu241 O264 2.394 . S
Eu241 O269 2.355 . S
Eu241 O271 2.374 . S
C242 C240 1.500 . S
C242 C243 1.377 . S
C242 C247 1.377 . S
C243 C242 1.377 . S
C243 C244 1.395 . S
C243 H272 0.931 . S
C244 C243 1.395 . S
C244 C245 1.383 . S
C244 H273 0.931 . S
C245 C244 1.383 . S
C245 C246 1.394 . S
C246 C245 1.394 . S
C246 C247 1.378 . S
C246 H274 0.931 . S
C247 C242 1.377 . S
C247 C246 1.378 . S
C247 H275 0.931 . S
C248 O262 1.259 . S
C248 O263 1.270 . S
C249 O264 1.251 . S
C249 O265 1.251 . S
C250 Eu251 2.835 . S
C250 C252 1.500 . S
C250 O266 1.257 . S
C250 O267 1.260 . S
Eu251 C250 2.835 . S
Eu251 O263 2.355 . S
Eu251 O265 2.374 . S
Eu251 O266 2.473 . S
Eu251 O267 2.480 . S
Eu251 O268 2.430 . S
Eu251 O269 2.670 . S
Eu251 O270 2.394 . S
C252 C250 1.500 . S
C252 C253 1.377 . S
C252 C257 1.377 . S
C253 C252 1.377 . S
C253 C254 1.395 . S
C253 H276 0.931 . S
C254 C253 1.395 . S
C254 C255 1.383 . S
C254 H277 0.931 . S
C255 C254 1.383 . S
C255 C256 1.394 . S
C256 C255 1.394 . S
C256 C257 1.378 . S
C256 H278 0.931 . S
C257 C252 1.377 . S
C257 C256 1.378 . S
C257 H279 0.931 . S
C258 O268 1.259 . S
C258 O269 1.270 . S
C259 O270 1.251 . S
C259 O271 1.251 . S
O260 C240 1.257 . S
O260 Eu241 2.473 . S
O261 C240 1.260 . S
O261 Eu241 2.480 . S
O262 Eu241 2.430 . S
O262 C248 1.259 . S
O263 Eu241 2.670 . S
O263 C248 1.270 . S
O263 Eu251 2.355 . S
O264 Eu241 2.394 . S
O264 C249 1.251 . S
O265 C249 1.251 . S
O265 Eu251 2.374 . S
O266 C250 1.257 . S
O266 Eu251 2.473 . S
O267 C250 1.260 . S
O267 Eu251 2.480 . S
O268 Eu251 2.430 . S
O268 C258 1.259 . S
O269 Eu241 2.355 . S
O269 Eu251 2.670 . S
O269 C258 1.270 . S
O270 Eu251 2.394 . S
O270 C259 1.251 . S
O271 Eu241 2.374 . S
O271 C259 1.251 . S
H272 C243 0.931 . S
H273 C244 0.931 . S
H274 C246 0.931 . S
H275 C247 0.931 . S
H276 C253 0.931 . S
H277 C254 0.931 . S
H278 C256 0.931 . S
H279 C257 0.931 . S
C280 Eu281 2.835 . S
C280 C282 1.500 . S
C280 O300 1.257 . S
C280 O301 1.260 . S
Eu281 C280 2.835 . S
Eu281 O300 2.473 . S
Eu281 O301 2.480 . S
Eu281 O302 2.430 . S
Eu281 O303 2.670 . S
Eu281 O304 2.394 . S
Eu281 O309 2.355 . S
Eu281 O311 2.374 1_556 S
C282 C280 1.500 . S
C282 C283 1.377 . S
C282 C287 1.377 . S
C283 C282 1.377 . S
C283 C284 1.395 . S
C283 H312 0.931 . S
C284 C283 1.395 . S
C284 C285 1.383 . S
C284 H313 0.931 . S
C285 C284 1.383 . S
C285 C286 1.394 . S
C286 C285 1.394 . S
C286 C287 1.378 . S
C286 H314 0.931 . S
C287 C282 1.377 . S
C287 C286 1.378 . S
C287 H315 0.931 . S
C288 O302 1.259 . S
C288 O303 1.270 . S
C289 O304 1.251 . S
C289 O305 1.251 . S
C290 Eu291 2.835 1_554 S
C290 C292 1.500 . S
C290 O306 1.257 . S
C290 O307 1.260 1_554 S
Eu291 C290 2.835 1_556 S
Eu291 O303 2.355 . S
Eu291 O305 2.374 . S
Eu291 O306 2.473 1_556 S
Eu291 O307 2.480 . S
Eu291 O308 2.430 . S
Eu291 O309 2.670 . S
Eu291 O310 2.394 1_556 S
C292 C290 1.500 . S
C292 C293 1.377 . S
C292 C297 1.377 . S
C293 C292 1.377 . S
C293 C294 1.395 . S
C293 H316 0.931 . S
C294 C293 1.395 . S
C294 C295 1.383 . S
C294 H317 0.931 . S
C295 C294 1.383 . S
C295 C296 1.394 . S
C296 C295 1.394 . S
C296 C297 1.378 . S
C296 H318 0.931 . S
C297 C292 1.377 . S
C297 C296 1.378 . S
C297 H319 0.931 . S
C298 O308 1.259 . S
C298 O309 1.270 . S
C299 O310 1.251 . S
C299 O311 1.251 . S
O300 C280 1.257 . S
O300 Eu281 2.473 . S
O301 C280 1.260 . S
O301 Eu281 2.480 . S
O302 Eu281 2.430 . S
O302 C288 1.259 . S
O303 Eu281 2.670 . S
O303 C288 1.270 . S
O303 Eu291 2.355 . S
O304 Eu281 2.394 . S
O304 C289 1.251 . S
O305 C289 1.251 . S
O305 Eu291 2.374 . S
O306 C290 1.257 . S
O306 Eu291 2.473 1_554 S
O307 C290 1.260 1_556 S
O307 Eu291 2.480 . S
O308 Eu291 2.430 . S
O308 C298 1.259 . S
O309 Eu281 2.355 . S
O309 Eu291 2.670 . S
O309 C298 1.270 . S
O310 Eu291 2.394 1_554 S
O310 C299 1.251 . S
O311 Eu281 2.374 1_554 S
O311 C299 1.251 . S
H312 C283 0.931 . S
H313 C284 0.931 . S
H314 C286 0.931 . S
H315 C287 0.931 . S
H316 C293 0.931 . S
H317 C294 0.931 . S
H318 C296 0.931 . S
H319 C297 0.931 . S
C320 Eu321 2.835 . S
C320 C322 1.500 . S
C320 O340 1.257 . S
C320 O341 1.260 . S
Eu321 C320 2.835 . S
Eu321 O340 2.473 . S
Eu321 O341 2.480 . S
Eu321 O342 2.430 . S
Eu321 O343 2.670 . S
Eu321 O344 2.394 . S
Eu321 O349 2.355 . S
Eu321 O351 2.374 . S
C322 C320 1.500 . S
C322 C323 1.377 . S
C322 C327 1.377 . S
C323 C322 1.377 . S
C323 C324 1.395 . S
C323 H352 0.931 . S
C324 C323 1.395 . S
C324 C325 1.383 . S
C324 H353 0.931 . S
C325 C324 1.383 . S
C325 C326 1.394 . S
C326 C325 1.394 . S
C326 C327 1.378 . S
C326 H354 0.931 . S
C327 C322 1.377 . S
C327 C326 1.378 . S
C327 H355 0.931 . S
C328 O342 1.259 . S
C328 O343 1.270 . S
C329 O344 1.251 . S
C329 O345 1.251 . S
C330 Eu331 2.835 . S
C330 C332 1.500 . S
C330 O346 1.257 . S
C330 O347 1.260 . S
Eu331 C330 2.835 . S
Eu331 O343 2.355 . S
Eu331 O345 2.374 . S
Eu331 O346 2.473 . S
Eu331 O347 2.480 . S
Eu331 O348 2.430 . S
Eu331 O349 2.670 . S
Eu331 O350 2.394 . S
C332 C330 1.500 . S
C332 C333 1.377 . S
C332 C337 1.377 . S
C333 C332 1.377 . S
C333 C334 1.395 . S
C333 H356 0.931 . S
C334 C333 1.395 . S
C334 C335 1.383 . S
C334 H357 0.931 . S
C335 C334 1.383 . S
C335 C336 1.394 . S
C336 C335 1.394 . S
C336 C337 1.378 . S
C336 H358 0.931 . S
C337 C332 1.377 . S
C337 C336 1.378 . S
C337 H359 0.931 . S
C338 O348 1.259 . S
C338 O349 1.270 . S
C339 O350 1.251 . S
C339 O351 1.251 . S
O340 C320 1.257 . S
O340 Eu321 2.473 . S
O341 C320 1.260 . S
O341 Eu321 2.480 . S
O342 Eu321 2.430 . S
O342 C328 1.259 . S
O343 Eu321 2.670 . S
O343 C328 1.270 . S
O343 Eu331 2.355 . S
O344 Eu321 2.394 . S
O344 C329 1.251 . S
O345 C329 1.251 . S
O345 Eu331 2.374 . S
O346 C330 1.257 . S
O346 Eu331 2.473 . S
O347 C330 1.260 . S
O347 Eu331 2.480 . S
O348 Eu331 2.430 . S
O348 C338 1.259 . S
O349 Eu321 2.355 . S
O349 Eu331 2.670 . S
O349 C338 1.270 . S
O350 Eu331 2.394 . S
O350 C339 1.251 . S
O351 Eu321 2.374 . S
O351 C339 1.251 . S
H352 C323 0.931 . S
H353 C324 0.931 . S
H354 C326 0.931 . S
H355 C327 0.931 . S
H356 C333 0.931 . S
H357 C334 0.931 . S
H358 C336 0.931 . S
H359 C337 0.931 . S
C360 Eu361 2.835 . S
C360 C362 1.500 . S
C360 O380 1.257 . S
C360 O381 1.260 . S
Eu361 C360 2.835 . S
Eu361 O380 2.473 . S
Eu361 O381 2.480 . S
Eu361 O382 2.430 . S
Eu361 O383 2.670 . S
Eu361 O384 2.394 . S
Eu361 O389 2.355 . S
Eu361 O391 2.374 . S
C362 C360 1.500 . S
C362 C363 1.377 . S
C362 C367 1.377 . S
C363 C362 1.377 . S
C363 C364 1.395 . S
C363 H392 0.931 . S
C364 C363 1.395 . S
C364 C365 1.383 . S
C364 H393 0.931 . S
C365 C364 1.383 . S
C365 C366 1.394 . S
C366 C365 1.394 . S
C366 C367 1.378 . S
C366 H394 0.931 . S
C367 C362 1.377 . S
C367 C366 1.378 . S
C367 H395 0.931 . S
C368 O382 1.259 . S
C368 O383 1.270 . S
C369 O384 1.251 . S
C369 O385 1.251 . S
C370 Eu371 2.835 . S
C370 C372 1.500 . S
C370 O386 1.257 . S
C370 O387 1.260 . S
Eu371 C370 2.835 . S
Eu371 O383 2.355 . S
Eu371 O385 2.374 . S
Eu371 O386 2.473 . S
Eu371 O387 2.480 . S
Eu371 O388 2.430 . S
Eu371 O389 2.670 . S
Eu371 O390 2.394 . S
C372 C370 1.500 . S
C372 C373 1.377 . S
C372 C377 1.377 . S
C373 C372 1.377 . S
C373 C374 1.395 . S
C373 H396 0.931 . S
C374 C373 1.395 . S
C374 C375 1.383 . S
C374 H397 0.931 . S
C375 C374 1.383 . S
C375 C376 1.394 . S
C376 C375 1.394 . S
C376 C377 1.378 . S
C376 H398 0.931 . S
C377 C372 1.377 . S
C377 C376 1.378 . S
C377 H399 0.931 . S
C378 O388 1.259 . S
C378 O389 1.270 . S
C379 O390 1.251 . S
C379 O391 1.251 . S
O380 C360 1.257 . S
O380 Eu361 2.473 . S
O381 C360 1.260 . S
O381 Eu361 2.480 . S
O382 Eu361 2.430 . S
O382 C368 1.259 . S
O383 Eu361 2.670 . S
O383 C368 1.270 . S
O383 Eu371 2.355 . S
O384 Eu361 2.394 . S
O384 C369 1.251 . S
O385 C369 1.251 . S
O385 Eu371 2.374 . S
O386 C370 1.257 . S
O386 Eu371 2.473 . S
O387 C370 1.260 . S
O387 Eu371 2.480 . S
O388 Eu371 2.430 . S
O388 C378 1.259 . S
O389 Eu361 2.355 . S
O389 Eu371 2.670 . S
O389 C378 1.270 . S
O390 Eu371 2.394 . S
O390 C379 1.251 . S
O391 Eu361 2.374 . S
O391 C379 1.251 . S
H392 C363 0.931 . S
H393 C364 0.931 . S
H394 C366 0.931 . S
H395 C367 0.931 . S
H396 C373 0.931 . S
H397 C374 0.931 . S
H398 C376 0.931 . S
H399 C377 0.931 . S
C400 Eu401 2.835 . S
C400 C402 1.500 . S
C400 O420 1.257 . S
C400 O421 1.260 . S
Eu401 C400 2.835 . S
Eu401 O420 2.473 . S
Eu401 O421 2.480 . S
Eu401 O422 2.430 . S
Eu401 O423 2.670 . S
Eu401 O424 2.394 . S
Eu401 O429 2.355 . S
Eu401 O431 2.374 . S
C402 C400 1.500 . S
C402 C403 1.377 . S
C402 C407 1.377 . S
C403 C402 1.377 . S
C403 C404 1.395 . S
C403 H432 0.931 . S
C404 C403 1.395 . S
C404 C405 1.383 . S
C404 H433 0.931 . S
C405 C404 1.383 . S
C405 C406 1.394 . S
C406 C405 1.394 . S
C406 C407 1.378 . S
C406 H434 0.931 . S
C407 C402 1.377 . S
C407 C406 1.378 . S
C407 H435 0.931 . S
C408 O422 1.259 . S
C408 O423 1.270 . S
C409 O424 1.251 . S
C409 O425 1.251 . S
C410 Eu411 2.835 . S
C410 C412 1.500 . S
C410 O426 1.257 . S
C410 O427 1.260 . S
Eu411 C410 2.835 . S
Eu411 O423 2.355 . S
Eu411 O425 2.374 . S
Eu411 O426 2.473 . S
Eu411 O427 2.480 . S
Eu411 O428 2.430 . S
Eu411 O429 2.670 . S
Eu411 O430 2.394 . S
C412 C410 1.500 . S
C412 C413 1.377 . S
C412 C417 1.377 . S
C413 C412 1.377 . S
C413 C414 1.395 . S
C413 H436 0.931 . S
C414 C413 1.395 . S
C414 C415 1.383 . S
C414 H437 0.931 . S
C415 C414 1.383 . S
C415 C416 1.394 . S
C416 C415 1.394 . S
C416 C417 1.378 . S
C416 H438 0.931 . S
C417 C412 1.377 . S
C417 C416 1.378 . S
C417 H439 0.931 . S
C418 O428 1.259 . S
C418 O429 1.270 . S
C419 O430 1.251 . S
C419 O431 1.251 . S
O420 C400 1.257 . S
O420 Eu401 2.473 . S
O421 C400 1.260 . S
O421 Eu401 2.480 . S
O422 Eu401 2.430 . S
O422 C408 1.259 . S
O423 Eu401 2.670 . S
O423 C408 1.270 . S
O423 Eu411 2.355 . S
O424 Eu401 2.394 . S
O424 C409 1.251 . S
O425 C409 1.251 . S
O425 Eu411 2.374 . S
O426 C410 1.257 . S
O426 Eu411 2.473 . S
O427 C410 1.260 . S
O427 Eu411 2.480 . S
O428 Eu411 2.430 . S
O428 C418 1.259 . S
O429 Eu401 2.355 . S
O429 Eu411 2.670 . S
O429 C418 1.270 . S
O430 Eu411 2.394 . S
O430 C419 1.251 . S
O431 Eu401 2.374 . S
O431 C419 1.251 . S
H432 C403 0.931 . S
H433 C404 0.931 . S
H434 C406 0.931 . S
H435 C407 0.931 . S
H436 C413 0.931 . S
H437 C414 0.931 . S
H438 C416 0.931 . S
H439 C417 0.931 . S
C440 Eu441 2.835 1_554 S
C440 C442 1.500 . S
C440 O460 1.257 . S
C440 O461 1.260 1_554 S
Eu441 C440 2.835 1_556 S
Eu441 O460 2.473 1_556 S
Eu441 O461 2.480 . S
Eu441 O462 2.430 . S
Eu441 O463 2.670 . S
Eu441 O464 2.394 1_556 S
Eu441 O469 2.355 . S
Eu441 O471 2.374 . S
C442 C440 1.500 . S
C442 C443 1.377 . S
C442 C447 1.377 . S
C443 C442 1.377 . S
C443 C444 1.395 . S
C443 H472 0.931 . S
C444 C443 1.395 . S
C444 C445 1.383 . S
C444 H473 0.931 . S
C445 C444 1.383 . S
C445 C446 1.394 . S
C446 C445 1.394 . S
C446 C447 1.378 . S
C446 H474 0.931 . S
C447 C442 1.377 . S
C447 C446 1.378 . S
C447 H475 0.931 . S
C448 O462 1.259 . S
C448 O463 1.270 . S
C449 O464 1.251 . S
C449 O465 1.251 . S
C450 Eu451 2.835 . S
C450 C452 1.500 . S
C450 O466 1.257 . S
C450 O467 1.260 . S
Eu451 C450 2.835 . S
Eu451 O463 2.355 . S
Eu451 O465 2.374 1_556 S
Eu451 O466 2.473 . S
Eu451 O467 2.480 . S
Eu451 O468 2.430 . S
Eu451 O469 2.670 . S
Eu451 O470 2.394 . S
C452 C450 1.500 . S
C452 C453 1.377 . S
C452 C457 1.377 . S
C453 C452 1.377 . S
C453 C454 1.395 . S
C453 H476 0.931 . S
C454 C453 1.395 . S
C454 C455 1.383 . S
C454 H477 0.931 . S
C455 C454 1.383 . S
C455 C456 1.394 . S
C456 C455 1.394 . S
C456 C457 1.378 . S
C456 H478 0.931 . S
C457 C452 1.377 . S
C457 C456 1.378 . S
C457 H479 0.931 . S
C458 O468 1.259 . S
C458 O469 1.270 . S
C459 O470 1.251 . S
C459 O471 1.251 . S
O460 C440 1.257 . S
O460 Eu441 2.473 1_554 S
O461 C440 1.260 1_556 S
O461 Eu441 2.480 . S
O462 Eu441 2.430 . S
O462 C448 1.259 . S
O463 Eu441 2.670 . S
O463 C448 1.270 . S
O463 Eu451 2.355 . S
O464 Eu441 2.394 1_554 S
O464 C449 1.251 . S
O465 C449 1.251 . S
O465 Eu451 2.374 1_554 S
O466 C450 1.257 . S
O466 Eu451 2.473 . S
O467 C450 1.260 . S
O467 Eu451 2.480 . S
O468 Eu451 2.430 . S
O468 C458 1.259 . S
O469 Eu441 2.355 . S
O469 Eu451 2.670 . S
O469 C458 1.270 . S
O470 Eu451 2.394 . S
O470 C459 1.251 . S
O471 Eu441 2.374 . S
O471 C459 1.251 . S
H472 C443 0.931 . S
H473 C444 0.931 . S
H474 C446 0.931 . S
H475 C447 0.931 . S
H476 C453 0.931 . S
H477 C454 0.931 . S
H478 C456 0.931 . S
H479 C457 0.931 . S
C480 Eu481 2.835 . S
C480 C482 1.500 . S
C480 O500 1.257 . S
C480 O501 1.260 . S
Eu481 C480 2.835 . S
Eu481 O500 2.473 . S
Eu481 O501 2.480 . S
Eu481 O502 2.430 . S
Eu481 O503 2.670 . S
Eu481 O504 2.394 . S
Eu481 O509 2.355 . S
Eu481 O511 2.374 . S
C482 C480 1.500 . S
C482 C483 1.377 . S
C482 C487 1.377 . S
C483 C482 1.377 . S
C483 C484 1.395 . S
C483 H512 0.931 . S
C484 C483 1.395 . S
C484 C485 1.383 . S
C484 H513 0.931 . S
C485 C484 1.383 . S
C485 C486 1.394 . S
C486 C485 1.394 . S
C486 C487 1.378 . S
C486 H514 0.931 . S
C487 C482 1.377 . S
C487 C486 1.378 . S
C487 H515 0.931 . S
C488 O502 1.259 . S
C488 O503 1.270 . S
C489 O504 1.251 . S
C489 O505 1.251 . S
C490 Eu491 2.835 . S
C490 C492 1.500 . S
C490 O506 1.257 . S
C490 O507 1.260 . S
Eu491 C490 2.835 . S
Eu491 O503 2.355 . S
Eu491 O505 2.374 . S
Eu491 O506 2.473 . S
Eu491 O507 2.480 . S
Eu491 O508 2.430 . S
Eu491 O509 2.670 . S
Eu491 O510 2.394 . S
C492 C490 1.500 . S
C492 C493 1.377 . S
C492 C497 1.377 . S
C493 C492 1.377 . S
C493 C494 1.395 . S
C493 H516 0.931 . S
C494 C493 1.395 . S
C494 C495 1.383 . S
C494 H517 0.931 . S
C495 C494 1.383 . S
C495 C496 1.394 . S
C496 C495 1.394 . S
C496 C497 1.378 . S
C496 H518 0.931 . S
C497 C492 1.377 . S
C497 C496 1.378 . S
C497 H519 0.931 . S
C498 O508 1.259 . S
C498 O509 1.270 . S
C499 O510 1.251 . S
C499 O511 1.251 . S
O500 C480 1.257 . S
O500 Eu481 2.473 . S
O501 C480 1.260 . S
O501 Eu481 2.480 . S
O502 Eu481 2.430 . S
O502 C488 1.259 . S
O503 Eu481 2.670 . S
O503 C488 1.270 . S
O503 Eu491 2.355 . S
O504 Eu481 2.394 . S
O504 C489 1.251 . S
O505 C489 1.251 . S
O505 Eu491 2.374 . S
O506 C490 1.257 . S
O506 Eu491 2.473 . S
O507 C490 1.260 . S
O507 Eu491 2.480 . S
O508 Eu491 2.430 . S
O508 C498 1.259 . S
O509 Eu481 2.355 . S
O509 Eu491 2.670 . S
O509 C498 1.270 . S
O510 Eu491 2.394 . S
O510 C499 1.251 . S
O511 Eu481 2.374 . S
O511 C499 1.251 . S
H512 C483 0.931 . S
H513 C484 0.931 . S
H514 C486 0.931 . S
H515 C487 0.931 . S
H516 C493 0.931 . S
H517 C494 0.931 . S
H518 C496 0.931 . S
H519 C497 0.931 . S
C520 Eu521 2.835 . S
C520 C522 1.500 . S
C520 O540 1.257 . S
C520 O541 1.260 . S
Eu521 C520 2.835 . S
Eu521 O540 2.473 . S
Eu521 O541 2.480 . S
Eu521 O542 2.430 . S
Eu521 O543 2.670 . S
Eu521 O544 2.394 . S
Eu521 O549 2.355 . S
Eu521 O551 2.374 . S
C522 C520 1.500 . S
C522 C523 1.377 . S
C522 C527 1.377 . S
C523 C522 1.377 . S
C523 C524 1.395 . S
C523 H552 0.931 . S
C524 C523 1.395 . S
C524 C525 1.383 . S
C524 H553 0.931 . S
C525 C524 1.383 . S
C525 C526 1.394 . S
C526 C525 1.394 . S
C526 C527 1.378 . S
C526 H554 0.931 . S
C527 C522 1.377 . S
C527 C526 1.378 . S
C527 H555 0.931 . S
C528 O542 1.259 . S
C528 O543 1.270 . S
C529 O544 1.251 . S
C529 O545 1.251 . S
C530 Eu531 2.835 . S
C530 C532 1.500 . S
C530 O546 1.257 . S
C530 O547 1.260 . S
Eu531 C530 2.835 . S
Eu531 O543 2.355 . S
Eu531 O545 2.374 . S
Eu531 O546 2.473 . S
Eu531 O547 2.480 . S
Eu531 O548 2.430 . S
Eu531 O549 2.670 . S
Eu531 O550 2.394 . S
C532 C530 1.500 . S
C532 C533 1.377 . S
C532 C537 1.377 . S
C533 C532 1.377 . S
C533 C534 1.395 . S
C533 H556 0.931 . S
C534 C533 1.395 . S
C534 C535 1.383 . S
C534 H557 0.931 . S
C535 C534 1.383 . S
C535 C536 1.394 . S
C536 C535 1.394 . S
C536 C537 1.378 . S
C536 H558 0.931 . S
C537 C532 1.377 . S
C537 C536 1.378 . S
C537 H559 0.931 . S
C538 O548 1.259 . S
C538 O549 1.270 . S
C539 O550 1.251 . S
C539 O551 1.251 . S
O540 C520 1.257 . S
O540 Eu521 2.473 . S
O541 C520 1.260 . S
O541 Eu521 2.480 . S
O542 Eu521 2.430 . S
O542 C528 1.259 . S
O543 Eu521 2.670 . S
O543 C528 1.270 . S
O543 Eu531 2.355 . S
O544 Eu521 2.394 . S
O544 C529 1.251 . S
O545 C529 1.251 . S
O545 Eu531 2.374 . S
O546 C530 1.257 . S
O546 Eu531 2.473 . S
O547 C530 1.260 . S
O547 Eu531 2.480 . S
O548 Eu531 2.430 . S
O548 C538 1.259 . S
O549 Eu521 2.355 . S
O549 Eu531 2.670 . S
O549 C538 1.270 . S
O550 Eu531 2.394 . S
O550 C539 1.251 . S
O551 Eu521 2.374 . S
O551 C539 1.251 . S
H552 C523 0.931 . S
H553 C524 0.931 . S
H554 C526 0.931 . S
H555 C527 0.931 . S
H556 C533 0.931 . S
H557 C534 0.931 . S
H558 C536 0.931 . S
H559 C537 0.931 . S
C560 Eu561 2.835 . S
C560 C562 1.500 . S
C560 O580 1.257 . S
C560 O581 1.260 . S
Eu561 C560 2.835 . S
Eu561 O580 2.473 . S
Eu561 O581 2.480 . S
Eu561 O582 2.430 . S
Eu561 O583 2.670 . S
Eu561 O584 2.394 . S
Eu561 O589 2.355 . S
Eu561 O591 2.374 . S
C562 C560 1.500 . S
C562 C563 1.377 . S
C562 C567 1.377 . S
C563 C562 1.377 . S
C563 C564 1.395 . S
C563 H592 0.931 . S
C564 C563 1.395 . S
C564 C565 1.383 . S
C564 H593 0.931 . S
C565 C564 1.383 . S
C565 C566 1.394 . S
C566 C565 1.394 . S
C566 C567 1.378 . S
C566 H594 0.931 . S
C567 C562 1.377 . S
C567 C566 1.378 . S
C567 H595 0.931 . S
C568 O582 1.259 . S
C568 O583 1.270 . S
C569 O584 1.251 . S
C569 O585 1.251 . S
C570 Eu571 2.835 . S
C570 C572 1.500 . S
C570 O586 1.257 . S
C570 O587 1.260 . S
Eu571 C570 2.835 . S
Eu571 O583 2.355 . S
Eu571 O585 2.374 . S
Eu571 O586 2.473 . S
Eu571 O587 2.480 . S
Eu571 O588 2.430 . S
Eu571 O589 2.670 . S
Eu571 O590 2.394 . S
C572 C570 1.500 . S
C572 C573 1.377 . S
C572 C577 1.377 . S
C573 C572 1.377 . S
C573 C574 1.395 . S
C573 H596 0.931 . S
C574 C573 1.395 . S
C574 C575 1.383 . S
C574 H597 0.931 . S
C575 C574 1.383 . S
C575 C576 1.394 . S
C576 C575 1.394 . S
C576 C577 1.378 . S
C576 H598 0.931 . S
C577 C572 1.377 . S
C577 C576 1.378 . S
C577 H599 0.931 . S
C578 O588 1.259 . S
C578 O589 1.270 . S
C579 O590 1.251 . S
C579 O591 1.251 . S
O580 C560 1.257 . S
O580 Eu561 2.473 . S
O581 C560 1.260 . S
O581 Eu561 2.480 . S
O582 Eu561 2.430 . S
O582 C568 1.259 . S
O583 Eu561 2.670 . S
O583 C568 1.270 . S
O583 Eu571 2.355 . S
O584 Eu561 2.394 . S
O584 C569 1.251 . S
O585 C569 1.251 . S
O585 Eu571 2.374 . S
O586 C570 1.257 . S
O586 Eu571 2.473 . S
O587 C570 1.260 . S
O587 Eu571 2.480 . S
O588 Eu571 2.430 . S
O588 C578 1.259 . S
O589 Eu561 2.355 . S
O589 Eu571 2.670 . S
O589 C578 1.270 . S
O590 Eu571 2.394 . S
O590 C579 1.251 . S
O591 Eu561 2.374 . S
O591 C579 1.251 . S
H592 C563 0.931 . S
H593 C564 0.931 . S
H594 C566 0.931 . S
H595 C567 0.931 . S
H596 C573 0.931 . S
H597 C574 0.931 . S
H598 C576 0.931 . S
H599 C577 0.931 . S
C600 Eu601 2.835 1_556 S
C600 C602 1.500 . S
C600 O620 1.257 . S
C600 O621 1.260 1_556 S
Eu601 C600 2.835 1_554 S
Eu601 O620 2.473 1_554 S
Eu601 O621 2.480 . S
Eu601 O622 2.430 . S
Eu601 O623 2.670 . S
Eu601 O624 2.394 1_554 S
Eu601 O629 2.355 . S
Eu601 O631 2.374 . S
C602 C600 1.500 . S
C602 C603 1.377 . S
C602 C607 1.377 . S
C603 C602 1.377 . S
C603 C604 1.395 . S
C603 H632 0.931 . S
C604 C603 1.395 . S
C604 C605 1.383 . S
C604 H633 0.931 . S
C605 C604 1.383 . S
C605 C606 1.394 . S
C606 C605 1.394 . S
C606 C607 1.378 . S
C606 H634 0.931 . S
C607 C602 1.377 . S
C607 C606 1.378 . S
C607 H635 0.931 . S
C608 O622 1.259 . S
C608 O623 1.270 . S
C609 O624 1.251 . S
C609 O625 1.251 . S
C610 Eu611 2.835 . S
C610 C612 1.500 . S
C610 O626 1.257 . S
C610 O627 1.260 . S
Eu611 C610 2.835 . S
Eu611 O623 2.355 . S
Eu611 O625 2.374 1_554 S
Eu611 O626 2.473 . S
Eu611 O627 2.480 . S
Eu611 O628 2.430 . S
Eu611 O629 2.670 . S
Eu611 O630 2.394 . S
C612 C610 1.500 . S
C612 C613 1.377 . S
C612 C617 1.377 . S
C613 C612 1.377 . S
C613 C614 1.395 . S
C613 H636 0.931 . S
C614 C613 1.395 . S
C614 C615 1.383 . S
C614 H637 0.931 . S
C615 C614 1.383 . S
C615 C616 1.394 . S
C616 C615 1.394 . S
C616 C617 1.378 . S
C616 H638 0.931 . S
C617 C612 1.377 . S
C617 C616 1.378 . S
C617 H639 0.931 . S
C618 O628 1.259 . S
C618 O629 1.270 . S
C619 O630 1.251 . S
C619 O631 1.251 . S
O620 C600 1.257 . S
O620 Eu601 2.473 1_556 S
O621 C600 1.260 1_554 S
O621 Eu601 2.480 . S
O622 Eu601 2.430 . S
O622 C608 1.259 . S
O623 Eu601 2.670 . S
O623 C608 1.270 . S
O623 Eu611 2.355 . S
O624 Eu601 2.394 1_556 S
O624 C609 1.251 . S
O625 C609 1.251 . S
O625 Eu611 2.374 1_556 S
O626 C610 1.257 . S
O626 Eu611 2.473 . S
O627 C610 1.260 . S
O627 Eu611 2.480 . S
O628 Eu611 2.430 . S
O628 C618 1.259 . S
O629 Eu601 2.355 . S
O629 Eu611 2.670 . S
O629 C618 1.270 . S
O630 Eu611 2.394 . S
O630 C619 1.251 . S
O631 Eu601 2.374 . S
O631 C619 1.251 . S
H632 C603 0.931 . S
H633 C604 0.931 . S
H634 C606 0.931 . S
H635 C607 0.931 . S
H636 C613 0.931 . S
H637 C614 0.931 . S
H638 C616 0.931 . S
H639 C617 0.931 . S
C640 Eu641 2.835 . S
C640 C642 1.500 . S
C640 O660 1.257 . S
C640 O661 1.260 . S
Eu641 C640 2.835 . S
Eu641 O660 2.473 . S
Eu641 O661 2.480 . S
Eu641 O662 2.430 . S
Eu641 O663 2.670 . S
Eu641 O664 2.394 . S
Eu641 O669 2.355 . S
Eu641 O671 2.374 . S
C642 C640 1.500 . S
C642 C643 1.377 . S
C642 C647 1.377 . S
C643 C642 1.377 . S
C643 C644 1.395 . S
C643 H672 0.931 . S
C644 C643 1.395 . S
C644 C645 1.383 . S
C644 H673 0.931 . S
C645 C644 1.383 . S
C645 C646 1.394 . S
C646 C645 1.394 . S
C646 C647 1.378 . S
C646 H674 0.931 . S
C647 C642 1.377 . S
C647 C646 1.378 . S
C647 H675 0.931 . S
C648 O662 1.259 . S
C648 O663 1.270 . S
C649 O664 1.251 . S
C649 O665 1.251 . S
C650 Eu651 2.835 . S
C650 C652 1.500 . S
C650 O666 1.257 . S
C650 O667 1.260 . S
Eu651 C650 2.835 . S
Eu651 O663 2.355 . S
Eu651 O665 2.374 . S
Eu651 O666 2.473 . S
Eu651 O667 2.480 . S
Eu651 O668 2.430 . S
Eu651 O669 2.670 . S
Eu651 O670 2.394 . S
C652 C650 1.500 . S
C652 C653 1.377 . S
C652 C657 1.377 . S
C653 C652 1.377 . S
C653 C654 1.395 . S
C653 H676 0.931 . S
C654 C653 1.395 . S
C654 C655 1.383 . S
C654 H677 0.931 . S
C655 C654 1.383 . S
C655 C656 1.394 . S
C656 C655 1.394 . S
C656 C657 1.378 . S
C656 H678 0.931 . S
C657 C652 1.377 . S
C657 C656 1.378 . S
C657 H679 0.931 . S
C658 O668 1.259 . S
C658 O669 1.270 . S
C659 O670 1.251 . S
C659 O671 1.251 . S
O660 C640 1.257 . S
O660 Eu641 2.473 . S
O661 C640 1.260 . S
O661 Eu641 2.480 . S
O662 Eu641 2.430 . S
O662 C648 1.259 . S
O663 Eu641 2.670 . S
O663 C648 1.270 . S
O663 Eu651 2.355 . S
O664 Eu641 2.394 . S
O664 C649 1.251 . S
O665 C649 1.251 . S
O665 Eu651 2.374 . S
O666 C650 1.257 . S
O666 Eu651 2.473 . S
O667 C650 1.260 . S
O667 Eu651 2.480 . S
O668 Eu651 2.430 . S
O668 C658 1.259 . S
O669 Eu641 2.355 . S
O669 Eu651 2.670 . S
O669 C658 1.270 . S
O670 Eu651 2.394 . S
O670 C659 1.251 . S
O671 Eu641 2.374 . S
O671 C659 1.251 . S
H672 C643 0.931 . S
H673 C644 0.931 . S
H674 C646 0.931 . S
H675 C647 0.931 . S
H676 C653 0.931 . S
H677 C654 0.931 . S
H678 C656 0.931 . S
H679 C657 0.931 . S
C680 Eu681 2.835 . S
C680 C682 1.500 . S
C680 O700 1.257 . S
C680 O701 1.260 . S
Eu681 C680 2.835 . S
Eu681 O700 2.473 . S
Eu681 O701 2.480 . S
Eu681 O702 2.430 . S
Eu681 O703 2.670 . S
Eu681 O704 2.394 . S
Eu681 O709 2.355 . S
Eu681 O711 2.374 1_554 S
C682 C680 1.500 . S
C682 C683 1.377 . S
C682 C687 1.377 . S
C683 C682 1.377 . S
C683 C684 1.395 . S
C683 H712 0.931 . S
C684 C683 1.395 . S
C684 C685 1.383 . S
C684 H713 0.931 . S
C685 C684 1.383 . S
C685 C686 1.394 . S
C686 C685 1.394 . S
C686 C687 1.378 . S
C686 H714 0.931 . S
C687 C682 1.377 . S
C687 C686 1.378 . S
C687 H715 0.931 . S
C688 O702 1.259 . S
C688 O703 1.270 . S
C689 O704 1.251 . S
C689 O705 1.251 . S
C690 Eu691 2.835 1_556 S
C690 C692 1.500 . S
C690 O706 1.257 . S
C690 O707 1.260 1_556 S
Eu691 C690 2.835 1_554 S
Eu691 O703 2.355 . S
Eu691 O705 2.374 . S
Eu691 O706 2.473 1_554 S
Eu691 O707 2.480 . S
Eu691 O708 2.430 . S
Eu691 O709 2.670 . S
Eu691 O710 2.394 1_554 S
C692 C690 1.500 . S
C692 C693 1.377 . S
C692 C697 1.377 . S
C693 C692 1.377 . S
C693 C694 1.395 . S
C693 H716 0.931 . S
C694 C693 1.395 . S
C694 C695 1.383 . S
C694 H717 0.931 . S
C695 C694 1.383 . S
C695 C696 1.394 . S
C696 C695 1.394 . S
C696 C697 1.378 . S
C696 H718 0.931 . S
C697 C692 1.377 . S
C697 C696 1.378 . S
C697 H719 0.931 . S
C698 O708 1.259 . S
C698 O709 1.270 . S
C699 O710 1.251 . S
C699 O711 1.251 . S
O700 C680 1.257 . S
O700 Eu681 2.473 . S
O701 C680 1.260 . S
O701 Eu681 2.480 . S
O702 Eu681 2.430 . S
O702 C688 1.259 . S
O703 Eu681 2.670 . S
O703 C688 1.270 . S
O703 Eu691 2.355 . S
O704 Eu681 2.394 . S
O704 C689 1.251 . S
O705 C689 1.251 . S
O705 Eu691 2.374 . S
O706 C690 1.257 . S
O706 Eu691 2.473 1_556 S
O707 C690 1.260 1_554 S
O707 Eu691 2.480 . S
O708 Eu691 2.430 . S
O708 C698 1.259 . S
O709 Eu681 2.355 . S
O709 Eu691 2.670 . S
O709 C698 1.270 . S
O710 Eu691 2.394 1_556 S
O710 C699 1.251 . S
O711 Eu681 2.374 1_556 S
O711 C699 1.251 . S
H712 C683 0.931 . S
H713 C684 0.931 . S
H714 C686 0.931 . S
H715 C687 0.931 . S
H716 C693 0.931 . S
H717 C694 0.931 . S
H718 C696 0.931 . S
H719 C697 0.931 . S
C720 Eu721 2.835 . S
C720 C722 1.500 . S
C720 O740 1.257 . S
C720 O741 1.260 . S
Eu721 C720 2.835 . S
Eu721 O740 2.473 . S
Eu721 O741 2.480 . S
Eu721 O742 2.430 . S
Eu721 O743 2.670 . S
Eu721 O744 2.394 . S
Eu721 O749 2.355 . S
Eu721 O751 2.374 . S
C722 C720 1.500 . S
C722 C723 1.377 . S
C722 C727 1.377 . S
C723 C722 1.377 . S
C723 C724 1.395 . S
C723 H752 0.931 . S
C724 C723 1.395 . S
C724 C725 1.383 . S
C724 H753 0.931 . S
C725 C724 1.383 . S
C725 C726 1.394 . S
C726 C725 1.394 . S
C726 C727 1.378 . S
C726 H754 0.931 . S
C727 C722 1.377 . S
C727 C726 1.378 . S
C727 H755 0.931 . S
C728 O742 1.259 . S
C728 O743 1.270 . S
C729 O744 1.251 . S
C729 O745 1.251 . S
C730 Eu731 2.835 . S
C730 C732 1.500 . S
C730 O746 1.257 . S
C730 O747 1.260 . S
Eu731 C730 2.835 . S
Eu731 O743 2.355 . S
Eu731 O745 2.374 . S
Eu731 O746 2.473 . S
Eu731 O747 2.480 . S
Eu731 O748 2.430 . S
Eu731 O749 2.670 . S
Eu731 O750 2.394 . S
C732 C730 1.500 . S
C732 C733 1.377 . S
C732 C737 1.377 . S
C733 C732 1.377 . S
C733 C734 1.395 . S
C733 H756 0.931 . S
C734 C733 1.395 . S
C734 C735 1.383 . S
C734 H757 0.931 . S
C735 C734 1.383 . S
C735 C736 1.394 . S
C736 C735 1.394 . S
C736 C737 1.378 . S
C736 H758 0.931 . S
C737 C732 1.377 . S
C737 C736 1.378 . S
C737 H759 0.931 . S
C738 O748 1.259 . S
C738 O749 1.270 . S
C739 O750 1.251 . S
C739 O751 1.251 . S
O740 C720 1.257 . S
O740 Eu721 2.473 . S
O741 C720 1.260 . S
O741 Eu721 2.480 . S
O742 Eu721 2.430 . S
O742 C728 1.259 . S
O743 Eu721 2.670 . S
O743 C728 1.270 . S
O743 Eu731 2.355 . S
O744 Eu721 2.394 . S
O744 C729 1.251 . S
O745 C729 1.251 . S
O745 Eu731 2.374 . S
O746 C730 1.257 . S
O746 Eu731 2.473 . S
O747 C730 1.260 . S
O747 Eu731 2.480 . S
O748 Eu731 2.430 . S
O748 C738 1.259 . S
O749 Eu721 2.355 . S
O749 Eu731 2.670 . S
O749 C738 1.270 . S
O750 Eu731 2.394 . S
O750 C739 1.251 . S
O751 Eu721 2.374 . S
O751 C739 1.251 . S
H752 C723 0.931 . S
H753 C724 0.931 . S
H754 C726 0.931 . S
H755 C727 0.931 . S
H756 C733 0.931 . S
H757 C734 0.931 . S
H758 C736 0.931 . S
H759 C737 0.931 . S
C760 Eu761 2.835 . S
C760 C762 1.500 . S
C760 O780 1.257 . S
C760 O781 1.260 . S
Eu761 C760 2.835 . S
Eu761 O780 2.473 . S
Eu761 O781 2.480 . S
Eu761 O782 2.430 . S
Eu761 O783 2.670 . S
Eu761 O784 2.394 . S
Eu761 O789 2.355 . S
Eu761 O791 2.374 . S
C762 C760 1.500 . S
C762 C763 1.377 . S
C762 C767 1.377 . S
C763 C762 1.377 . S
C763 C764 1.395 . S
C763 H792 0.931 . S
C764 C763 1.395 . S
C764 C765 1.383 . S
C764 H793 0.931 . S
C765 C764 1.383 . S
C765 C766 1.394 . S
C766 C765 1.394 . S
C766 C767 1.378 . S
C766 H794 0.931 . S
C767 C762 1.377 . S
C767 C766 1.378 . S
C767 H795 0.931 . S
C768 O782 1.259 . S
C768 O783 1.270 . S
C769 O784 1.251 . S
C769 O785 1.251 . S
C770 Eu771 2.835 . S
C770 C772 1.500 . S
C770 O786 1.257 . S
C770 O787 1.260 . S
Eu771 C770 2.835 . S
Eu771 O783 2.355 . S
Eu771 O785 2.374 . S
Eu771 O786 2.473 . S
Eu771 O787 2.480 . S
Eu771 O788 2.430 . S
Eu771 O789 2.670 . S
Eu771 O790 2.394 . S
C772 C770 1.500 . S
C772 C773 1.377 . S
C772 C777 1.377 . S
C773 C772 1.377 . S
C773 C774 1.395 . S
C773 H796 0.931 . S
C774 C773 1.395 . S
C774 C775 1.383 . S
C774 H797 0.931 . S
C775 C774 1.383 . S
C775 C776 1.394 . S
C776 C775 1.394 . S
C776 C777 1.378 . S
C776 H798 0.931 . S
C777 C772 1.377 . S
C777 C776 1.378 . S
C777 H799 0.931 . S
C778 O788 1.259 . S
C778 O789 1.270 . S
C779 O790 1.251 . S
C779 O791 1.251 . S
O780 C760 1.257 . S
O780 Eu761 2.473 . S
O781 C760 1.260 . S
O781 Eu761 2.480 . S
O782 Eu761 2.430 . S
O782 C768 1.259 . S
O783 Eu761 2.670 . S
O783 C768 1.270 . S
O783 Eu771 2.355 . S
O784 Eu761 2.394 . S
O784 C769 1.251 . S
O785 C769 1.251 . S
O785 Eu771 2.374 . S
O786 C770 1.257 . S
O786 Eu771 2.473 . S
O787 C770 1.260 . S
O787 Eu771 2.480 . S
O788 Eu771 2.430 . S
O788 C778 1.259 . S
O789 Eu761 2.355 . S
O789 Eu771 2.670 . S
O789 C778 1.270 . S
O790 Eu771 2.394 . S
O790 C779 1.251 . S
O791 Eu761 2.374 . S
O791 C779 1.251 . S
H792 C763 0.931 . S
H793 C764 0.931 . S
H794 C766 0.931 . S
H795 C767 0.931 . S
H796 C773 0.931 . S
H797 C774 0.931 . S
H798 C776 0.931 . S
H799 C777 0.931 . S
C800 Eu801 2.835 . S
C800 C802 1.500 . S
C800 O820 1.257 . S
C800 O821 1.260 . S
Eu801 C800 2.835 . S
Eu801 O820 2.473 . S
Eu801 O821 2.480 . S
Eu801 O822 2.430 . S
Eu801 O823 2.670 . S
Eu801 O824 2.394 . S
Eu801 O829 2.355 . S
Eu801 O831 2.374 . S
C802 C800 1.500 . S
C802 C803 1.377 . S
C802 C807 1.377 . S
C803 C802 1.377 . S
C803 C804 1.395 . S
C803 H832 0.931 . S
C804 C803 1.395 . S
C804 C805 1.383 . S
C804 H833 0.931 . S
C805 C804 1.383 . S
C805 C806 1.394 . S
C806 C805 1.394 . S
C806 C807 1.378 . S
C806 H834 0.931 . S
C807 C802 1.377 . S
C807 C806 1.378 . S
C807 H835 0.931 . S
C808 O822 1.259 . S
C808 O823 1.270 . S
C809 O824 1.251 . S
C809 O825 1.251 . S
C810 Eu811 2.835 . S
C810 C812 1.500 . S
C810 O826 1.257 . S
C810 O827 1.260 . S
Eu811 C810 2.835 . S
Eu811 O823 2.355 . S
Eu811 O825 2.374 . S
Eu811 O826 2.473 . S
Eu811 O827 2.480 . S
Eu811 O828 2.430 . S
Eu811 O829 2.670 . S
Eu811 O830 2.394 . S
C812 C810 1.500 . S
C812 C813 1.377 . S
C812 C817 1.377 . S
C813 C812 1.377 . S
C813 C814 1.395 . S
C813 H836 0.931 . S
C814 C813 1.395 . S
C814 C815 1.383 . S
C814 H837 0.931 . S
C815 C814 1.383 . S
C815 C816 1.394 . S
C816 C815 1.394 . S
C816 C817 1.378 . S
C816 H838 0.931 . S
C817 C812 1.377 . S
C817 C816 1.378 . S
C817 H839 0.931 . S
C818 O828 1.259 . S
C818 O829 1.270 . S
C819 O830 1.251 . S
C819 O831 1.251 . S
O820 C800 1.257 . S
O820 Eu801 2.473 . S
O821 C800 1.260 . S
O821 Eu801 2.480 . S
O822 Eu801 2.430 . S
O822 C808 1.259 . S
O823 Eu801 2.670 . S
O823 C808 1.270 . S
O823 Eu811 2.355 . S
O824 Eu801 2.394 . S
O824 C809 1.251 . S
O825 C809 1.251 . S
O825 Eu811 2.374 . S
O826 C810 1.257 . S
O826 Eu811 2.473 . S
O827 C810 1.260 . S
O827 Eu811 2.480 . S
O828 Eu811 2.430 . S
O828 C818 1.259 . S
O829 Eu801 2.355 . S
O829 Eu811 2.670 . S
O829 C818 1.270 . S
O830 Eu811 2.394 . S
O830 C819 1.251 . S
O831 Eu801 2.374 . S
O831 C819 1.251 . S
H832 C803 0.931 . S
H833 C804 0.931 . S
H834 C806 0.931 . S
H835 C807 0.931 . S
H836 C813 0.931 . S
H837 C814 0.931 . S
H838 C816 0.931 . S
H839 C817 0.931 . S
C840 Eu841 2.835 . S
C840 C842 1.500 . S
C840 O860 1.257 . S
C840 O861 1.260 . S
Eu841 C840 2.835 . S
Eu841 O860 2.473 . S
Eu841 O861 2.480 . S
Eu841 O862 2.430 . S
Eu841 O863 2.670 . S
Eu841 O864 2.394 . S
Eu841 O869 2.355 . S
Eu841 O871 2.374 1_556 S
C842 C840 1.500 . S
C842 C843 1.377 . S
C842 C847 1.377 . S
C843 C842 1.377 . S
C843 C844 1.395 . S
C843 H872 0.931 . S
C844 C843 1.395 . S
C844 C845 1.383 . S
C844 H873 0.931 . S
C845 C844 1.383 . S
C845 C846 1.394 . S
C846 C845 1.394 . S
C846 C847 1.378 . S
C846 H874 0.931 . S
C847 C842 1.377 . S
C847 C846 1.378 . S
C847 H875 0.931 . S
C848 O862 1.259 . S
C848 O863 1.270 . S
C849 O864 1.251 . S
C849 O865 1.251 . S
C850 Eu851 2.835 1_554 S
C850 C852 1.500 . S
C850 O866 1.257 . S
C850 O867 1.260 1_554 S
Eu851 C850 2.835 1_556 S
Eu851 O863 2.355 . S
Eu851 O865 2.374 . S
Eu851 O866 2.473 1_556 S
Eu851 O867 2.480 . S
Eu851 O868 2.430 . S
Eu851 O869 2.670 . S
Eu851 O870 2.394 1_556 S
C852 C850 1.500 . S
C852 C853 1.377 . S
C852 C857 1.377 . S
C853 C852 1.377 . S
C853 C854 1.395 . S
C853 H876 0.931 . S
C854 C853 1.395 . S
C854 C855 1.383 . S
C854 H877 0.931 . S
C855 C854 1.383 . S
C855 C856 1.394 . S
C856 C855 1.394 . S
C856 C857 1.378 . S
C856 H878 0.931 . S
C857 C852 1.377 . S
C857 C856 1.378 . S
C857 H879 0.931 . S
C858 O868 1.259 . S
C858 O869 1.270 . S
C859 O870 1.251 . S
C859 O871 1.251 . S
O860 C840 1.257 . S
O860 Eu841 2.473 . S
O861 C840 1.260 . S
O861 Eu841 2.480 . S
O862 Eu841 2.430 . S
O862 C848 1.259 . S
O863 Eu841 2.670 . S
O863 C848 1.270 . S
O863 Eu851 2.355 . S
O864 Eu841 2.394 . S
O864 C849 1.251 . S
O865 C849 1.251 . S
O865 Eu851 2.374 . S
O866 C850 1.257 . S
O866 Eu851 2.473 1_554 S
O867 C850 1.260 1_556 S
O867 Eu851 2.480 . S
O868 Eu851 2.430 . S
O868 C858 1.259 . S
O869 Eu841 2.355 . S
O869 Eu851 2.670 . S
O869 C858 1.270 . S
O870 Eu851 2.394 1_554 S
O870 C859 1.251 . S
O871 Eu841 2.374 1_554 S
O871 C859 1.251 . S
H872 C843 0.931 . S
H873 C844 0.931 . S
H874 C846 0.931 . S
H875 C847 0.931 . S
H876 C853 0.931 . S
H877 C854 0.931 . S
H878 C856 0.931 . S
H879 C857 0.931 . S
C880 Eu881 2.835 . S
C880 C882 1.500 . S
C880 O900 1.257 . S
C880 O901 1.260 . S
Eu881 C880 2.835 . S
Eu881 O900 2.473 . S
Eu881 O901 2.480 . S
Eu881 O902 2.430 . S
Eu881 O903 2.670 . S
Eu881 O904 2.394 . S
Eu881 O909 2.355 . S
Eu881 O911 2.374 . S
C882 C880 1.500 . S
C882 C883 1.377 . S
C882 C887 1.377 . S
C883 C882 1.377 . S
C883 C884 1.395 . S
C883 H912 0.931 . S
C884 C883 1.395 . S
C884 C885 1.383 . S
C884 H913 0.931 . S
C885 C884 1.383 . S
C885 C886 1.394 . S
C886 C885 1.394 . S
C886 C887 1.378 . S
C886 H914 0.931 . S
C887 C882 1.377 . S
C887 C886 1.378 . S
C887 H915 0.931 . S
C888 O902 1.259 . S
C888 O903 1.270 . S
C889 O904 1.251 . S
C889 O905 1.251 . S
C890 Eu891 2.835 . S
C890 C892 1.500 . S
C890 O906 1.257 . S
C890 O907 1.260 . S
Eu891 C890 2.835 . S
Eu891 O903 2.355 . S
Eu891 O905 2.374 . S
Eu891 O906 2.473 . S
Eu891 O907 2.480 . S
Eu891 O908 2.430 . S
Eu891 O909 2.670 . S
Eu891 O910 2.394 . S
C892 C890 1.500 . S
C892 C893 1.377 . S
C892 C897 1.377 . S
C893 C892 1.377 . S
C893 C894 1.395 . S
C893 H916 0.931 . S
C894 C893 1.395 . S
C894 C895 1.383 . S
C894 H917 0.931 . S
C895 C894 1.383 . S
C895 C896 1.394 . S
C896 C895 1.394 . S
C896 C897 1.378 . S
C896 H918 0.931 . S
C897 C892 1.377 . S
C897 C896 1.378 . S
C897 H919 0.931 . S
C898 O908 1.259 . S
C898 O909 1.270 . S
C899 O910 1.251 . S
C899 O911 1.251 . S
O900 C880 1.257 . S
O900 Eu881 2.473 . S
O901 C880 1.260 . S
O901 Eu881 2.480 . S
O902 Eu881 2.430 . S
O902 C888 1.259 . S
O903 Eu881 2.670 . S
O903 C888 1.270 . S
O903 Eu891 2.355 . S
O904 Eu881 2.394 . S
O904 C889 1.251 . S
O905 C889 1.251 . S
O905 Eu891 2.374 . S
O906 C890 1.257 . S
O906 Eu891 2.473 . S
O907 C890 1.260 . S
O907 Eu891 2.480 . S
O908 Eu891 2.430 . S
O908 C898 1.259 . S
O909 Eu881 2.355 . S
O909 Eu891 2.670 . S
O909 C898 1.270 . S
O910 Eu891 2.394 . S
O910 C899 1.251 . S
O911 Eu881 2.374 . S
O911 C899 1.251 . S
H912 C883 0.931 . S
H913 C884 0.931 . S
H914 C886 0.931 . S
H915 C887 0.931 . S
H916 C893 0.931 . S
H917 C894 0.931 . S
H918 C896 0.931 . S
H919 C897 0.931 . S
C920 Eu921 2.835 . S
C920 C922 1.500 . S
C920 O940 1.257 . S
C920 O941 1.260 . S
Eu921 C920 2.835 . S
Eu921 O940 2.473 . S
Eu921 O941 2.480 . S
Eu921 O942 2.430 . S
Eu921 O943 2.670 . S
Eu921 O944 2.394 . S
Eu921 O949 2.355 . S
Eu921 O951 2.374 . S
C922 C920 1.500 . S
C922 C923 1.377 . S
C922 C927 1.377 . S
C923 C922 1.377 . S
C923 C924 1.395 . S
C923 H952 0.931 . S
C924 C923 1.395 . S
C924 C925 1.383 . S
C924 H953 0.931 . S
C925 C924 1.383 . S
C925 C926 1.394 . S
C926 C925 1.394 . S
C926 C927 1.378 . S
C926 H954 0.931 . S
C927 C922 1.377 . S
C927 C926 1.378 . S
C927 H955 0.931 . S
C928 O942 1.259 . S
C928 O943 1.270 . S
C929 O944 1.251 . S
C929 O945 1.251 . S
C930 Eu931 2.835 . S
C930 C932 1.500 . S
C930 O946 1.257 . S
C930 O947 1.260 . S
Eu931 C930 2.835 . S
Eu931 O943 2.355 . S
Eu931 O945 2.374 . S
Eu931 O946 2.473 . S
Eu931 O947 2.480 . S
Eu931 O948 2.430 . S
Eu931 O949 2.670 . S
Eu931 O950 2.394 . S
C932 C930 1.500 . S
C932 C933 1.377 . S
C932 C937 1.377 . S
C933 C932 1.377 . S
C933 C934 1.395 . S
C933 H956 0.931 . S
C934 C933 1.395 . S
C934 C935 1.383 . S
C934 H957 0.931 . S
C935 C934 1.383 . S
C935 C936 1.394 . S
C936 C935 1.394 . S
C936 C937 1.378 . S
C936 H958 0.931 . S
C937 C932 1.377 . S
C937 C936 1.378 . S
C937 H959 0.931 . S
C938 O948 1.259 . S
C938 O949 1.270 . S
C939 O950 1.251 . S
C939 O951 1.251 . S
O940 C920 1.257 . S
O940 Eu921 2.473 . S
O941 C920 1.260 . S
O941 Eu921 2.480 . S
O942 Eu921 2.430 . S
O942 C928 1.259 . S
O943 Eu921 2.670 . S
O943 C928 1.270 . S
O943 Eu931 2.355 . S
O944 Eu921 2.394 . S
O944 C929 1.251 . S
O945 C929 1.251 . S
O945 Eu931 2.374 . S
O946 C930 1.257 . S
O946 Eu931 2.473 . S
O947 C930 1.260 . S
O947 Eu931 2.480 . S
O948 Eu931 2.430 . S
O948 C938 1.259 . S
O949 Eu921 2.355 . S
O949 Eu931 2.670 . S
O949 C938 1.270 . S
O950 Eu931 2.394 . S
O950 C939 1.251 . S
O951 Eu921 2.374 . S
O951 C939 1.251 . S
H952 C923 0.931 . S
H953 C924 0.931 . S
H954 C926 0.931 . S
H955 C927 0.931 . S
H956 C933 0.931 . S
H957 C934 0.931 . S
H958 C936 0.931 . S
H959 C937 0.931 . S
C960 Eu961 2.835 . S
C960 C962 1.500 . S
C960 O980 1.257 . S
C960 O981 1.260 . S
Eu961 C960 2.835 . S
Eu961 O980 2.473 . S
Eu961 O981 2.480 . S
Eu961 O982 2.430 . S
Eu961 O983 2.670 . S
Eu961 O984 2.394 . S
Eu961 O989 2.355 . S
Eu961 O991 2.374 . S
C962 C960 1.500 . S
C962 C963 1.377 . S
C962 C967 1.377 . S
C963 C962 1.377 . S
C963 C964 1.395 . S
C963 H992 0.931 . S
C964 C963 1.395 . S
C964 C965 1.383 . S
C964 H993 0.931 . S
C965 C964 1.383 . S
C965 C966 1.394 . S
C966 C965 1.394 . S
C966 C967 1.378 . S
C966 H994 0.931 . S
C967 C962 1.377 . S
C967 C966 1.378 . S
C967 H995 0.931 . S
C968 O982 1.259 . S
C968 O983 1.270 . S
C969 O984 1.251 . S
C969 O985 1.251 . S
C970 Eu971 2.835 . S
C970 C972 1.500 . S
C970 O986 1.257 . S
C970 O987 1.260 . S
Eu971 C970 2.835 . S
Eu971 O983 2.355 . S
Eu971 O985 2.374 . S
Eu971 O986 2.473 . S
Eu971 O987 2.480 . S
Eu971 O988 2.430 . S
Eu971 O989 2.670 . S
Eu971 O990 2.394 . S
C972 C970 1.500 . S
C972 C973 1.377 . S
C972 C977 1.377 . S
C973 C972 1.377 . S
C973 C974 1.395 . S
C973 H996 0.931 . S
C974 C973 1.395 . S
C974 C975 1.383 . S
C974 H997 0.931 . S
C975 C974 1.383 . S
C975 C976 1.394 . S
C976 C975 1.394 . S
C976 C977 1.378 . S
C976 H998 0.931 . S
C977 C972 1.377 . S
C977 C976 1.378 . S
C977 H999 0.931 . S
C978 O988 1.259 . S
C978 O989 1.270 . S
C979 O990 1.251 . S
C979 O991 1.251 . S
O980 C960 1.257 . S
O980 Eu961 2.473 . S
O981 C960 1.260 . S
O981 Eu961 2.480 . S
O982 Eu961 2.430 . S
O982 C968 1.259 . S
O983 Eu961 2.670 . S
O983 C968 1.270 . S
O983 Eu971 2.355 . S
O984 Eu961 2.394 . S
O984 C969 1.251 . S
O985 C969 1.251 . S
O985 Eu971 2.374 . S
O986 C970 1.257 . S
O986 Eu971 2.473 . S
O987 C970 1.260 . S
O987 Eu971 2.480 . S
O988 Eu971 2.430 . S
O988 C978 1.259 . S
O989 Eu961 2.355 . S
O989 Eu971 2.670 . S
O989 C978 1.270 . S
O990 Eu971 2.394 . S
O990 C979 1.251 . S
O991 Eu961 2.374 . S
O991 C979 1.251 . S
H992 C963 0.931 . S
H993 C964 0.931 . S
H994 C966 0.931 . S
H995 C967 0.931 . S
H996 C973 0.931 . S
H997 C974 0.931 . S
H998 C976 0.931 . S
H999 C977 0.931 . S
C1000 Eu1001 2.835 1_554 S
C1000 C1002 1.500 . S
C1000 O1020 1.257 . S
C1000 O1021 1.260 1_554 S
Eu1001 C1000 2.835 1_556 S
Eu1001 O1020 2.473 1_556 S
Eu1001 O1021 2.480 . S
Eu1001 O1022 2.430 . S
Eu1001 O1023 2.670 . S
Eu1001 O1024 2.394 1_556 S
Eu1001 O1029 2.355 . S
Eu1001 O1031 2.374 . S
C1002 C1000 1.500 . S
C1002 C1003 1.377 . S
C1002 C1007 1.377 . S
C1003 C1002 1.377 . S
C1003 C1004 1.395 . S
C1003 H1032 0.931 . S
C1004 C1003 1.395 . S
C1004 C1005 1.383 . S
C1004 H1033 0.931 . S
C1005 C1004 1.383 . S
C1005 C1006 1.394 . S
C1006 C1005 1.394 . S
C1006 C1007 1.378 . S
C1006 H1034 0.931 . S
C1007 C1002 1.377 . S
C1007 C1006 1.378 . S
C1007 H1035 0.931 . S
C1008 O1022 1.259 . S
C1008 O1023 1.270 . S
C1009 O1024 1.251 . S
C1009 O1025 1.251 . S
C1010 Eu1011 2.835 . S
C1010 C1012 1.500 . S
C1010 O1026 1.257 . S
C1010 O1027 1.260 . S
Eu1011 C1010 2.835 . S
Eu1011 O1023 2.355 . S
Eu1011 O1025 2.374 1_556 S
Eu1011 O1026 2.473 . S
Eu1011 O1027 2.480 . S
Eu1011 O1028 2.430 . S
Eu1011 O1029 2.670 . S
Eu1011 O1030 2.394 . S
C1012 C1010 1.500 . S
C1012 C1013 1.377 . S
C1012 C1017 1.377 . S
C1013 C1012 1.377 . S
C1013 C1014 1.395 . S
C1013 H1036 0.931 . S
C1014 C1013 1.395 . S
C1014 C1015 1.383 . S
C1014 H1037 0.931 . S
C1015 C1014 1.383 . S
C1015 C1016 1.394 . S
C1016 C1015 1.394 . S
C1016 C1017 1.378 . S
C1016 H1038 0.931 . S
C1017 C1012 1.377 . S
C1017 C1016 1.378 . S
C1017 H1039 0.931 . S
C1018 O1028 1.259 . S
C1018 O1029 1.270 . S
C1019 O1030 1.251 . S
C1019 O1031 1.251 . S
O1020 C1000 1.257 . S
O1020 Eu1001 2.473 1_554 S
O1021 C1000 1.260 1_556 S
O1021 Eu1001 2.480 . S
O1022 Eu1001 2.430 . S
O1022 C1008 1.259 . S
O1023 Eu1001 2.670 . S
O1023 C1008 1.270 . S
O1023 Eu1011 2.355 . S
O1024 Eu1001 2.394 1_554 S
O1024 C1009 1.251 . S
O1025 C1009 1.251 . S
O1025 Eu1011 2.374 1_554 S
O1026 C1010 1.257 . S
O1026 Eu1011 2.473 . S
O1027 C1010 1.260 . S
O1027 Eu1011 2.480 . S
O1028 Eu1011 2.430 . S
O1028 C1018 1.259 . S
O1029 Eu1001 2.355 . S
O1029 Eu1011 2.670 . S
O1029 C1018 1.270 . S
O1030 Eu1011 2.394 . S
O1030 C1019 1.251 . S
O1031 Eu1001 2.374 . S
O1031 C1019 1.251 . S
H1032 C1003 0.931 . S
H1033 C1004 0.931 . S
H1034 C1006 0.931 . S
H1035 C1007 0.931 . S
H1036 C1013 0.931 . S
H1037 C1014 0.931 . S
H1038 C1016 0.931 . S
H1039 C1017 0.931 . S
C1040 Eu1041 2.835 . S
C1040 C1042 1.500 . S
C1040 O1060 1.257 . S
C1040 O1061 1.260 . S
Eu1041 C1040 2.835 . S
Eu1041 O1060 2.473 . S
Eu1041 O1061 2.480 . S
Eu1041 O1062 2.430 . S
Eu1041 O1063 2.670 . S
Eu1041 O1064 2.394 . S
Eu1041 O1069 2.355 . S
Eu1041 O1071 2.374 . S
C1042 C1040 1.500 . S
C1042 C1043 1.377 . S
C1042 C1047 1.377 . S
C1043 C1042 1.377 . S
C1043 C1044 1.395 . S
C1043 H1072 0.931 . S
C1044 C1043 1.395 . S
C1044 C1045 1.383 . S
C1044 H1073 0.931 . S
C1045 C1044 1.383 . S
C1045 C1046 1.394 . S
C1046 C1045 1.394 . S
C1046 C1047 1.378 . S
C1046 H1074 0.931 . S
C1047 C1042 1.377 . S
C1047 C1046 1.378 . S
C1047 H1075 0.931 . S
C1048 O1062 1.259 . S
C1048 O1063 1.270 . S
C1049 O1064 1.251 . S
C1049 O1065 1.251 . S
C1050 Eu1051 2.835 . S
C1050 C1052 1.500 . S
C1050 O1066 1.257 . S
C1050 O1067 1.260 . S
Eu1051 C1050 2.835 . S
Eu1051 O1063 2.355 . S
Eu1051 O1065 2.374 . S
Eu1051 O1066 2.473 . S
Eu1051 O1067 2.480 . S
Eu1051 O1068 2.430 . S
Eu1051 O1069 2.670 . S
Eu1051 O1070 2.394 . S
C1052 C1050 1.500 . S
C1052 C1053 1.377 . S
C1052 C1057 1.377 . S
C1053 C1052 1.377 . S
C1053 C1054 1.395 . S
C1053 H1076 0.931 . S
C1054 C1053 1.395 . S
C1054 C1055 1.383 . S
C1054 H1077 0.931 . S
C1055 C1054 1.383 . S
C1055 C1056 1.394 . S
C1056 C1055 1.394 . S
C1056 C1057 1.378 . S
C1056 H1078 0.931 . S
C1057 C1052 1.377 . S
C1057 C1056 1.378 . S
C1057 H1079 0.931 . S
C1058 O1068 1.259 . S
C1058 O1069 1.270 . S
C1059 O1070 1.251 . S
C1059 O1071 1.251 . S
O1060 C1040 1.257 . S
O1060 Eu1041 2.473 . S
O1061 C1040 1.260 . S
O1061 Eu1041 2.480 . S
O1062 Eu1041 2.430 . S
O1062 C1048 1.259 . S
O1063 Eu1041 2.670 . S
O1063 C1048 1.270 . S
O1063 Eu1051 2.355 . S
O1064 Eu1041 2.394 . S
O1064 C1049 1.251 . S
O1065 C1049 1.251 . S
O1065 Eu1051 2.374 . S
O1066 C1050 1.257 . S
O1066 Eu1051 2.473 . S
O1067 C1050 1.260 . S
O1067 Eu1051 2.480 . S
O1068 Eu1051 2.430 . S
O1068 C1058 1.259 . S
O1069 Eu1041 2.355 . S
O1069 Eu1051 2.670 . S
O1069 C1058 1.270 . S
O1070 Eu1051 2.394 . S
O1070 C1059 1.251 . S
O1071 Eu1041 2.374 . S
O1071 C1059 1.251 . S
H1072 C1043 0.931 . S
H1073 C1044 0.931 . S
H1074 C1046 0.931 . S
H1075 C1047 0.931 . S
H1076 C1053 0.931 . S
H1077 C1054 0.931 . S
H1078 C1056 0.931 . S
H1079 C1057 0.931 . S
C1080 Eu1081 2.835 . S
C1080 C1082 1.500 . S
C1080 O1100 1.257 . S
C1080 O1101 1.260 . S
Eu1081 C1080 2.835 . S
Eu1081 O1100 2.473 . S
Eu1081 O1101 2.480 . S
Eu1081 O1102 2.430 . S
Eu1081 O1103 2.670 . S
Eu1081 O1104 2.394 . S
Eu1081 O1109 2.355 . S
Eu1081 O1111 2.374 . S
C1082 C1080 1.500 . S
C1082 C1083 1.377 . S
C1082 C1087 1.377 . S
C1083 C1082 1.377 . S
C1083 C1084 1.395 . S
C1083 H1112 0.931 . S
C1084 C1083 1.395 . S
C1084 C1085 1.383 . S
C1084 H1113 0.931 . S
C1085 C1084 1.383 . S
C1085 C1086 1.394 . S
C1086 C1085 1.394 . S
C1086 C1087 1.378 . S
C1086 H1114 0.931 . S
C1087 C1082 1.377 . S
C1087 C1086 1.378 . S
C1087 H1115 0.931 . S
C1088 O1102 1.259 . S
C1088 O1103 1.270 . S
C1089 O1104 1.251 . S
C1089 O1105 1.251 . S
C1090 Eu1091 2.835 . S
C1090 C1092 1.500 . S
C1090 O1106 1.257 . S
C1090 O1107 1.260 . S
Eu1091 C1090 2.835 . S
Eu1091 O1103 2.355 . S
Eu1091 O1105 2.374 . S
Eu1091 O1106 2.473 . S
Eu1091 O1107 2.480 . S
Eu1091 O1108 2.430 . S
Eu1091 O1109 2.670 . S
Eu1091 O1110 2.394 . S
C1092 C1090 1.500 . S
C1092 C1093 1.377 . S
C1092 C1097 1.377 . S
C1093 C1092 1.377 . S
C1093 C1094 1.395 . S
C1093 H1116 0.931 . S
C1094 C1093 1.395 . S
C1094 C1095 1.383 . S
C1094 H1117 0.931 . S
C1095 C1094 1.383 . S
C1095 C1096 1.394 . S
C1096 C1095 1.394 . S
C1096 C1097 1.378 . S
C1096 H1118 0.931 . S
C1097 C1092 1.377 . S
C1097 C1096 1.378 . S
C1097 H1119 0.931 . S
C1098 O1108 1.259 . S
C1098 O1109 1.270 . S
C1099 O1110 1.251 . S
C1099 O1111 1.251 . S
O1100 C1080 1.257 . S
O1100 Eu1081 2.473 . S
O1101 C1080 1.260 . S
O1101 Eu1081 2.480 . S
O1102 Eu1081 2.430 . S
O1102 C1088 1.259 . S
O1103 Eu1081 2.670 . S
O1103 C1088 1.270 . S
O1103 Eu1091 2.355 . S
O1104 Eu1081 2.394 . S
O1104 C1089 1.251 . S
O1105 C1089 1.251 . S
O1105 Eu1091 2.374 . S
O1106 C1090 1.257 . S
O1106 Eu1091 2.473 . S
O1107 C1090 1.260 . S
O1107 Eu1091 2.480 . S
O1108 Eu1091 2.430 . S
O1108 C1098 1.259 . S
O1109 Eu1081 2.355 . S
O1109 Eu1091 2.670 . S
O1109 C1098 1.270 . S
O1110 Eu1091 2.394 . S
O1110 C1099 1.251 . S
O1111 Eu1081 2.374 . S
O1111 C1099 1.251 . S
H1112 C1083 0.931 . S
H1113 C1084 0.931 . S
H1114 C1086 0.931 . S
H1115 C1087 0.931 . S
H1116 C1093 0.931 . S
H1117 C1094 0.931 . S
H1118 C1096 0.931 . S
H1119 C1097 0.931 . S
C1120 Eu1121 2.835 . S
C1120 C1122 1.500 . S
C1120 O1140 1.257 . S
C1120 O1141 1.260 . S
Eu1121 C1120 2.835 . S
Eu1121 O1140 2.473 . S
Eu1121 O1141 2.480 . S
Eu1121 O1142 2.430 . S
Eu1121 O1143 2.670 . S
Eu1121 O1144 2.394 . S
Eu1121 O1149 2.355 . S
Eu1121 O1151 2.374 . S
C1122 C1120 1.500 . S
C1122 C1123 1.377 . S
C1122 C1127 1.377 . S
C1123 C1122 1.377 . S
C1123 C1124 1.395 . S
C1123 H1152 0.931 . S
C1124 C1123 1.395 . S
C1124 C1125 1.383 . S
C1124 H1153 0.931 . S
C1125 C1124 1.383 . S
C1125 C1126 1.394 . S
C1126 C1125 1.394 . S
C1126 C1127 1.378 . S
C1126 H1154 0.931 . S
C1127 C1122 1.377 . S
C1127 C1126 1.378 . S
C1127 H1155 0.931 . S
C1128 O1142 1.259 . S
C1128 O1143 1.270 . S
C1129 O1144 1.251 . S
C1129 O1145 1.251 . S
C1130 Eu1131 2.835 . S
C1130 C1132 1.500 . S
C1130 O1146 1.257 . S
C1130 O1147 1.260 . S
Eu1131 C1130 2.835 . S
Eu1131 O1143 2.355 . S
Eu1131 O1145 2.374 . S
Eu1131 O1146 2.473 . S
Eu1131 O1147 2.480 . S
Eu1131 O1148 2.430 . S
Eu1131 O1149 2.670 . S
Eu1131 O1150 2.394 . S
C1132 C1130 1.500 . S
C1132 C1133 1.377 . S
C1132 C1137 1.377 . S
C1133 C1132 1.377 . S
C1133 C1134 1.395 . S
C1133 H1156 0.931 . S
C1134 C1133 1.395 . S
C1134 C1135 1.383 . S
C1134 H1157 0.931 . S
C1135 C1134 1.383 . S
C1135 C1136 1.394 . S
C1136 C1135 1.394 . S
C1136 C1137 1.378 . S
C1136 H1158 0.931 . S
C1137 C1132 1.377 . S
C1137 C1136 1.378 . S
C1137 H1159 0.931 . S
C1138 O1148 1.259 . S
C1138 O1149 1.270 . S
C1139 O1150 1.251 . S
C1139 O1151 1.251 . S
O1140 C1120 1.257 . S
O1140 Eu1121 2.473 . S
O1141 C1120 1.260 . S
O1141 Eu1121 2.480 . S
O1142 Eu1121 2.430 . S
O1142 C1128 1.259 . S
O1143 Eu1121 2.670 . S
O1143 C1128 1.270 . S
O1143 Eu1131 2.355 . S
O1144 Eu1121 2.394 . S
O1144 C1129 1.251 . S
O1145 C1129 1.251 . S
O1145 Eu1131 2.374 . S
O1146 C1130 1.257 . S
O1146 Eu1131 2.473 . S
O1147 C1130 1.260 . S
O1147 Eu1131 2.480 . S
O1148 Eu1131 2.430 . S
O1148 C1138 1.259 . S
O1149 Eu1121 2.355 . S
O1149 Eu1131 2.670 . S
O1149 C1138 1.270 . S
O1150 Eu1131 2.394 . S
O1150 C1139 1.251 . S
O1151 Eu1121 2.374 . S
O1151 C1139 1.251 . S
H1152 C1123 0.931 . S
H1153 C1124 0.931 . S
H1154 C1126 0.931 . S
H1155 C1127 0.931 . S
H1156 C1133 0.931 . S
H1157 C1134 0.931 . S
H1158 C1136 0.931 . S
H1159 C1137 0.931 . S
C1160 Eu1161 2.835 1_556 S
C1160 C1162 1.500 . S
C1160 O1180 1.257 . S
C1160 O1181 1.260 1_556 S
Eu1161 C1160 2.835 1_554 S
Eu1161 O1180 2.473 1_554 S
Eu1161 O1181 2.480 . S
Eu1161 O1182 2.430 . S
Eu1161 O1183 2.670 . S
Eu1161 O1184 2.394 1_554 S
Eu1161 O1189 2.355 . S
Eu1161 O1191 2.374 . S
C1162 C1160 1.500 . S
C1162 C1163 1.377 . S
C1162 C1167 1.377 . S
C1163 C1162 1.377 . S
C1163 C1164 1.395 . S
C1163 H1192 0.931 . S
C1164 C1163 1.395 . S
C1164 C1165 1.383 . S
C1164 H1193 0.931 . S
C1165 C1164 1.383 . S
C1165 C1166 1.394 . S
C1166 C1165 1.394 . S
C1166 C1167 1.378 . S
C1166 H1194 0.931 . S
C1167 C1162 1.377 . S
C1167 C1166 1.378 . S
C1167 H1195 0.931 . S
C1168 O1182 1.259 . S
C1168 O1183 1.270 . S
C1169 O1184 1.251 . S
C1169 O1185 1.251 . S
C1170 Eu1171 2.835 . S
C1170 C1172 1.500 . S
C1170 O1186 1.257 . S
C1170 O1187 1.260 . S
Eu1171 C1170 2.835 . S
Eu1171 O1183 2.355 . S
Eu1171 O1185 2.374 1_554 S
Eu1171 O1186 2.473 . S
Eu1171 O1187 2.480 . S
Eu1171 O1188 2.430 . S
Eu1171 O1189 2.670 . S
Eu1171 O1190 2.394 . S
C1172 C1170 1.500 . S
C1172 C1173 1.377 . S
C1172 C1177 1.377 . S
C1173 C1172 1.377 . S
C1173 C1174 1.395 . S
C1173 H1196 0.931 . S
C1174 C1173 1.395 . S
C1174 C1175 1.383 . S
C1174 H1197 0.931 . S
C1175 C1174 1.383 . S
C1175 C1176 1.394 . S
C1176 C1175 1.394 . S
C1176 C1177 1.378 . S
C1176 H1198 0.931 . S
C1177 C1172 1.377 . S
C1177 C1176 1.378 . S
C1177 H1199 0.931 . S
C1178 O1188 1.259 . S
C1178 O1189 1.270 . S
C1179 O1190 1.251 . S
C1179 O1191 1.251 . S
O1180 C1160 1.257 . S
O1180 Eu1161 2.473 1_556 S
O1181 C1160 1.260 1_554 S
O1181 Eu1161 2.480 . S
O1182 Eu1161 2.430 . S
O1182 C1168 1.259 . S
O1183 Eu1161 2.670 . S
O1183 C1168 1.270 . S
O1183 Eu1171 2.355 . S
O1184 Eu1161 2.394 1_556 S
O1184 C1169 1.251 . S
O1185 C1169 1.251 . S
O1185 Eu1171 2.374 1_556 S
O1186 C1170 1.257 . S
O1186 Eu1171 2.473 . S
O1187 C1170 1.260 . S
O1187 Eu1171 2.480 . S
O1188 Eu1171 2.430 . S
O1188 C1178 1.259 . S
O1189 Eu1161 2.355 . S
O1189 Eu1171 2.670 . S
O1189 C1178 1.270 . S
O1190 Eu1171 2.394 . S
O1190 C1179 1.251 . S
O1191 Eu1161 2.374 . S
O1191 C1179 1.251 . S
H1192 C1163 0.931 . S
H1193 C1164 0.931 . S
H1194 C1166 0.931 . S
H1195 C1167 0.931 . S
H1196 C1173 0.931 . S
H1197 C1174 0.931 . S
H1198 C1176 0.931 . S
H1199 C1177 0.931 . S
C1200 Eu1201 2.835 . S
C1200 C1202 1.500 . S
C1200 O1220 1.257 . S
C1200 O1221 1.260 . S
Eu1201 C1200 2.835 . S
Eu1201 O1220 2.473 . S
Eu1201 O1221 2.480 . S
Eu1201 O1222 2.430 . S
Eu1201 O1223 2.670 . S
Eu1201 O1224 2.394 . S
Eu1201 O1229 2.355 . S
Eu1201 O1231 2.374 . S
C1202 C1200 1.500 . S
C1202 C1203 1.377 . S
C1202 C1207 1.377 . S
C1203 C1202 1.377 . S
C1203 C1204 1.395 . S
C1203 H1232 0.931 . S
C1204 C1203 1.395 . S
C1204 C1205 1.383 . S
C1204 H1233 0.931 . S
C1205 C1204 1.383 . S
C1205 C1206 1.394 . S
C1206 C1205 1.394 . S
C1206 C1207 1.378 . S
C1206 H1234 0.931 . S
C1207 C1202 1.377 . S
C1207 C1206 1.378 . S
C1207 H1235 0.931 . S
C1208 O1222 1.259 . S
C1208 O1223 1.270 . S
C1209 O1224 1.251 . S
C1209 O1225 1.251 . S
C1210 Eu1211 2.835 . S
C1210 C1212 1.500 . S
C1210 O1226 1.257 . S
C1210 O1227 1.260 . S
Eu1211 C1210 2.835 . S
Eu1211 O1223 2.355 . S
Eu1211 O1225 2.374 . S
Eu1211 O1226 2.473 . S
Eu1211 O1227 2.480 . S
Eu1211 O1228 2.430 . S
Eu1211 O1229 2.670 . S
Eu1211 O1230 2.394 . S
C1212 C1210 1.500 . S
C1212 C1213 1.377 . S
C1212 C1217 1.377 . S
C1213 C1212 1.377 . S
C1213 C1214 1.395 . S
C1213 H1236 0.931 . S
C1214 C1213 1.395 . S
C1214 C1215 1.383 . S
C1214 H1237 0.931 . S
C1215 C1214 1.383 . S
C1215 C1216 1.394 . S
C1216 C1215 1.394 . S
C1216 C1217 1.378 . S
C1216 H1238 0.931 . S
C1217 C1212 1.377 . S
C1217 C1216 1.378 . S
C1217 H1239 0.931 . S
C1218 O1228 1.259 . S
C1218 O1229 1.270 . S
C1219 O1230 1.251 . S
C1219 O1231 1.251 . S
O1220 C1200 1.257 . S
O1220 Eu1201 2.473 . S
O1221 C1200 1.260 . S
O1221 Eu1201 2.480 . S
O1222 Eu1201 2.430 . S
O1222 C1208 1.259 . S
O1223 Eu1201 2.670 . S
O1223 C1208 1.270 . S
O1223 Eu1211 2.355 . S
O1224 Eu1201 2.394 . S
O1224 C1209 1.251 . S
O1225 C1209 1.251 . S
O1225 Eu1211 2.374 . S
O1226 C1210 1.257 . S
O1226 Eu1211 2.473 . S
O1227 C1210 1.260 . S
O1227 Eu1211 2.480 . S
O1228 Eu1211 2.430 . S
O1228 C1218 1.259 . S
O1229 Eu1201 2.355 . S
O1229 Eu1211 2.670 . S
O1229 C1218 1.270 . S
O1230 Eu1211 2.394 . S
O1230 C1219 1.251 . S
O1231 Eu1201 2.374 . S
O1231 C1219 1.251 . S
H1232 C1203 0.931 . S
H1233 C1204 0.931 . S
H1234 C1206 0.931 . S
H1235 C1207 0.931 . S
H1236 C1213 0.931 . S
H1237 C1214 0.931 . S
H1238 C1216 0.931 . S
H1239 C1217 0.931 . S
C1240 Eu1241 2.835 . S
C1240 C1242 1.500 . S
C1240 O1260 1.257 . S
C1240 O1261 1.260 . S
Eu1241 C1240 2.835 . S
Eu1241 O1260 2.473 . S
Eu1241 O1261 2.480 . S
Eu1241 O1262 2.430 . S
Eu1241 O1263 2.670 . S
Eu1241 O1264 2.394 . S
Eu1241 O1269 2.355 . S
Eu1241 O1271 2.374 . S
C1242 C1240 1.500 . S
C1242 C1243 1.377 . S
C1242 C1247 1.377 . S
C1243 C1242 1.377 . S
C1243 C1244 1.395 . S
C1243 H1272 0.931 . S
C1244 C1243 1.395 . S
C1244 C1245 1.383 . S
C1244 H1273 0.931 . S
C1245 C1244 1.383 . S
C1245 C1246 1.394 . S
C1246 C1245 1.394 . S
C1246 C1247 1.378 . S
C1246 H1274 0.931 . S
C1247 C1242 1.377 . S
C1247 C1246 1.378 . S
C1247 H1275 0.931 . S
C1248 O1262 1.259 . S
C1248 O1263 1.270 . S
C1249 O1264 1.251 . S
C1249 O1265 1.251 . S
C1250 Eu1251 2.835 . S
C1250 C1252 1.500 . S
C1250 O1266 1.257 . S
C1250 O1267 1.260 . S
Eu1251 C1250 2.835 . S
Eu1251 O1263 2.355 . S
Eu1251 O1265 2.374 . S
Eu1251 O1266 2.473 . S
Eu1251 O1267 2.480 . S
Eu1251 O1268 2.430 . S
Eu1251 O1269 2.670 . S
Eu1251 O1270 2.394 . S
C1252 C1250 1.500 . S
C1252 C1253 1.377 . S
C1252 C1257 1.377 . S
C1253 C1252 1.377 . S
C1253 C1254 1.395 . S
C1253 H1276 0.931 . S
C1254 C1253 1.395 . S
C1254 C1255 1.383 . S
C1254 H1277 0.931 . S
C1255 C1254 1.383 . S
C1255 C1256 1.394 . S
C1256 C1255 1.394 . S
C1256 C1257 1.378 . S
C1256 H1278 0.931 . S
C1257 C1252 1.377 . S
C1257 C1256 1.378 . S
C1257 H1279 0.931 . S
C1258 O1268 1.259 . S
C1258 O1269 1.270 . S
C1259 O1270 1.251 . S
C1259 O1271 1.251 . S
O1260 C1240 1.257 . S
O1260 Eu1241 2.473 . S
O1261 C1240 1.260 . S
O1261 Eu1241 2.480 . S
O1262 Eu1241 2.430 . S
O1262 C1248 1.259 . S
O1263 Eu1241 2.670 . S
O1263 C1248 1.270 . S
O1263 Eu1251 2.355 . S
O1264 Eu1241 2.394 . S
O1264 C1249 1.251 . S
O1265 C1249 1.251 . S
O1265 Eu1251 2.374 . S
O1266 C1250 1.257 . S
O1266 Eu1251 2.473 . S
O1267 C1250 1.260 . S
O1267 Eu1251 2.480 . S
O1268 Eu1251 2.430 . S
O1268 C1258 1.259 . S
O1269 Eu1241 2.355 . S
O1269 Eu1251 2.670 . S
O1269 C1258 1.270 . S
O1270 Eu1251 2.394 . S
O1270 C1259 1.251 . S
O1271 Eu1241 2.374 . S
O1271 C1259 1.251 . S
H1272 C1243 0.931 . S
H1273 C1244 0.931 . S
H1274 C1246 0.931 . S
H1275 C1247 0.931 . S
H1276 C1253 0.931 . S
H1277 C1254 0.931 . S
H1278 C1256 0.931 . S
H1279 C1257 0.931 . S
H1280 C1288 0.950 . S
H1281 C1293 0.950 . S
H1282 C1290 0.950 . S
H1283 C1292 0.950 . S
H1284 C1294 0.950 . S
H1285 C1296 0.950 . S
H1286 C1298 0.950 . S
H1287 C1299 0.950 . S
C1288 H1280 0.950 . S
C1288 C1289 1.386 . S
C1288 C1290 1.391 . S
C1289 C1288 1.386 . S
C1289 C1293 1.393 . S
C1290 H1282 0.950 . S
C1290 C1288 1.391 . S
C1290 C1291 1.400 . S
C1291 C1290 1.400 . S
C1291 C1292 1.398 . S
C1291 C1297 1.491 . S
C1292 H1283 0.950 . S
C1292 C1291 1.398 . S
C1292 C1293 1.391 . S
C1293 H1281 0.950 . S
C1293 C1289 1.393 . S
C1293 C1292 1.391 . S
C1294 H1284 0.950 . S
C1294 C1295 1.386 . S
C1294 C1296 1.391 . S
C1295 C1294 1.386 . S
C1295 C1299 1.393 . S
C1296 H1285 0.950 . S
C1296 C1294 1.391 . S
C1296 C1297 1.400 . S
C1297 C1291 1.491 . S
C1297 C1296 1.400 . S
C1297 C1298 1.398 . S
C1298 H1286 0.950 . S
C1298 C1297 1.398 . S
C1298 C1299 1.391 . S
C1299 H1287 0.950 . S
C1299 C1295 1.393 . S
C1299 C1298 1.391 . S
H1300 C1308 0.950 . S
H1301 C1313 0.950 . S
H1302 C1310 0.950 . S
H1303 C1312 0.950 . S
H1304 C1314 0.950 . S
H1305 C1316 0.950 . S
H1306 C1318 0.950 . S
H1307 C1319 0.950 . S
C1308 H1300 0.950 . S
C1308 C1309 1.386 . S
C1308 C1310 1.391 . S
C1309 C1308 1.386 . S
C1309 C1313 1.393 . S
C1310 H1302 0.950 . S
C1310 C1308 1.391 . S
C1310 C1311 1.400 . S
C1311 C1310 1.400 . S
C1311 C1312 1.398 . S
C1311 C1317 1.491 . S
C1312 H1303 0.950 . S
C1312 C1311 1.398 . S
C1312 C1313 1.391 . S
C1313 H1301 0.950 . S
C1313 C1309 1.393 . S
C1313 C1312 1.391 . S
C1314 H1304 0.950 . S
C1314 C1315 1.386 1_545 S
C1314 C1316 1.391 . S
C1315 C1314 1.386 1_565 S
C1315 C1319 1.393 . S
C1316 H1305 0.950 . S
C1316 C1314 1.391 . S
C1316 C1317 1.400 . S
C1317 C1311 1.491 . S
C1317 C1316 1.400 . S
C1317 C1318 1.398 . S
C1318 H1306 0.950 . S
C1318 C1317 1.398 . S
C1318 C1319 1.391 1_545 S
C1319 H1307 0.950 . S
C1319 C1315 1.393 . S
C1319 C1318 1.391 1_565 S
H1320 C1328 0.950 . S
H1321 C1333 0.950 . S
H1322 C1330 0.950 . S
H1323 C1332 0.950 . S
H1324 C1334 0.950 . S
H1325 C1336 0.950 . S
H1326 C1338 0.950 . S
H1327 C1339 0.950 . S
C1328 H1320 0.950 . S
C1328 C1329 1.386 . S
C1328 C1330 1.391 . S
C1329 C1328 1.386 . S
C1329 C1333 1.393 . S
C1330 H1322 0.950 . S
C1330 C1328 1.391 . S
C1330 C1331 1.400 . S
C1331 C1330 1.400 . S
C1331 C1332 1.398 . S
C1331 C1337 1.491 . S
C1332 H1323 0.950 . S
C1332 C1331 1.398 . S
C1332 C1333 1.391 . S
C1333 H1321 0.950 . S
C1333 C1329 1.393 . S
C1333 C1332 1.391 . S
C1334 H1324 0.950 . S
C1334 C1335 1.386 . S
C1334 C1336 1.391 . S
C1335 C1334 1.386 . S
C1335 C1339 1.393 . S
C1336 H1325 0.950 . S
C1336 C1334 1.391 . S
C1336 C1337 1.400 . S
C1337 C1331 1.491 . S
C1337 C1336 1.400 . S
C1337 C1338 1.398 . S
C1338 H1326 0.950 . S
C1338 C1337 1.398 . S
C1338 C1339 1.391 . S
C1339 H1327 0.950 . S
C1339 C1335 1.393 . S
C1339 C1338 1.391 . S
H1340 C1348 0.950 . S
H1341 C1353 0.950 . S
H1342 C1350 0.950 . S
H1343 C1352 0.950 . S
H1344 C1354 0.950 1_545 S
H1345 C1356 0.950 . S
H1346 C1358 0.950 . S
H1347 C1359 0.950 . S
C1348 H1340 0.950 . S
C1348 C1349 1.386 . S
C1348 C1350 1.391 . S
C1349 C1348 1.386 . S
C1349 C1353 1.393 . S
C1350 H1342 0.950 . S
C1350 C1348 1.391 . S
C1350 C1351 1.400 . S
C1351 C1350 1.400 . S
C1351 C1352 1.398 . S
C1351 C1357 1.491 . S
C1352 H1343 0.950 . S
C1352 C1351 1.398 . S
C1352 C1353 1.391 . S
C1353 H1341 0.950 . S
C1353 C1349 1.393 . S
C1353 C1352 1.391 . S
C1354 H1344 0.950 1_565 S
C1354 C1355 1.386 1_565 S
C1354 C1356 1.391 . S
C1355 C1354 1.386 1_545 S
C1355 C1359 1.393 1_545 S
C1356 H1345 0.950 . S
C1356 C1354 1.391 . S
C1356 C1357 1.400 . S
C1357 C1351 1.491 . S
C1357 C1356 1.400 . S
C1357 C1358 1.398 . S
C1358 H1346 0.950 . S
C1358 C1357 1.398 . S
C1358 C1359 1.391 . S
C1359 H1347 0.950 . S
C1359 C1355 1.393 1_565 S
C1359 C1358 1.391 . S
H1360 C1368 0.950 . S
H1361 C1373 0.950 . S
H1362 C1370 0.950 . S
H1363 C1372 0.950 . S
H1364 C1374 0.950 . S
H1365 C1376 0.950 . S
H1366 C1378 0.950 . S
H1367 C1379 0.950 . S
C1368 H1360 0.950 . S
C1368 C1369 1.386 . S
C1368 C1370 1.391 . S
C1369 C1368 1.386 . S
C1369 C1373 1.393 . S
C1370 H1362 0.950 . S
C1370 C1368 1.391 . S
C1370 C1371 1.400 . S
C1371 C1370 1.400 . S
C1371 C1372 1.398 . S
C1371 C1377 1.491 . S
C1372 H1363 0.950 . S
C1372 C1371 1.398 . S
C1372 C1373 1.391 . S
C1373 H1361 0.950 . S
C1373 C1369 1.393 . S
C1373 C1372 1.391 . S
C1374 H1364 0.950 . S
C1374 C1375 1.386 . S
C1374 C1376 1.391 . S
C1375 C1374 1.386 . S
C1375 C1379 1.393 . S
C1376 H1365 0.950 . S
C1376 C1374 1.391 . S
C1376 C1377 1.400 . S
C1377 C1371 1.491 . S
C1377 C1376 1.400 . S
C1377 C1378 1.398 . S
C1378 H1366 0.950 . S
C1378 C1377 1.398 . S
C1378 C1379 1.391 . S
C1379 H1367 0.950 . S
C1379 C1375 1.393 . S
C1379 C1378 1.391 . S
H1380 C1388 0.950 . S
H1381 C1393 0.950 . S
H1382 C1390 0.950 . S
H1383 C1392 0.950 . S
H1384 C1394 0.950 . S
H1385 C1396 0.950 . S
H1386 C1398 0.950 . S
H1387 C1399 0.950 . S
C1388 H1380 0.950 . S
C1388 C1389 1.386 1_545 S
C1388 C1390 1.391 . S
C1389 C1388 1.386 1_565 S
C1389 C1393 1.393 . S
C1390 H1382 0.950 . S
C1390 C1388 1.391 . S
C1390 C1391 1.400 . S
C1391 C1390 1.400 . S
C1391 C1392 1.398 . S
C1391 C1397 1.491 . S
C1392 H1383 0.950 . S
C1392 C1391 1.398 . S
C1392 C1393 1.391 1_545 S
C1393 H1381 0.950 . S
C1393 C1389 1.393 . S
C1393 C1392 1.391 1_565 S
C1394 H1384 0.950 . S
C1394 C1395 1.386 . S
C1394 C1396 1.391 . S
C1395 C1394 1.386 . S
C1395 C1399 1.393 . S
C1396 H1385 0.950 . S
C1396 C1394 1.391 . S
C1396 C1397 1.400 . S
C1397 C1391 1.491 . S
C1397 C1396 1.400 . S
C1397 C1398 1.398 . S
C1398 H1386 0.950 . S
C1398 C1397 1.398 . S
C1398 C1399 1.391 . S
C1399 H1387 0.950 . S
C1399 C1395 1.393 . S
C1399 C1398 1.391 . S
H1400 C1408 0.950 . S
H1401 C1413 0.950 . S
H1402 C1410 0.950 . S
H1403 C1412 0.950 . S
H1404 C1414 0.950 . S
H1405 C1416 0.950 . S
H1406 C1418 0.950 . S
H1407 C1419 0.950 . S
C1408 H1400 0.950 . S
C1408 C1409 1.386 . S
C1408 C1410 1.391 . S
C1409 C1408 1.386 . S
C1409 C1413 1.393 . S
C1410 H1402 0.950 . S
C1410 C1408 1.391 . S
C1410 C1411 1.400 . S
C1411 C1410 1.400 . S
C1411 C1412 1.398 . S
C1411 C1417 1.491 . S
C1412 H1403 0.950 . S
C1412 C1411 1.398 . S
C1412 C1413 1.391 . S
C1413 H1401 0.950 . S
C1413 C1409 1.393 . S
C1413 C1412 1.391 . S
C1414 H1404 0.950 . S
C1414 C1415 1.386 . S
C1414 C1416 1.391 . S
C1415 C1414 1.386 . S
C1415 C1419 1.393 . S
C1416 H1405 0.950 . S
C1416 C1414 1.391 . S
C1416 C1417 1.400 . S
C1417 C1411 1.491 . S
C1417 C1416 1.400 . S
C1417 C1418 1.398 . S
C1418 H1406 0.950 . S
C1418 C1417 1.398 . S
C1418 C1419 1.391 . S
C1419 H1407 0.950 . S
C1419 C1415 1.393 . S
C1419 C1418 1.391 . S
H1420 C1428 0.950 . S
H1421 C1433 0.950 . S
H1422 C1430 0.950 . S
H1423 C1432 0.950 . S
H1424 C1434 0.950 . S
H1425 C1436 0.950 . S
H1426 C1438 0.950 . S
H1427 C1439 0.978 . S
C1428 H1420 0.950 . S
C1428 C1429 1.386 . S
C1428 C1430 1.391 . S
C1429 C1428 1.386 . S
C1429 C1433 1.393 . S
C1430 H1422 0.950 . S
C1430 C1428 1.391 . S
C1430 C1431 1.400 . S
C1431 C1430 1.400 . S
C1431 C1432 1.398 . S
C1431 C1437 1.491 . S
C1432 H1423 0.950 . S
C1432 C1431 1.398 . S
C1432 C1433 1.391 . S
C1433 H1421 0.950 . S
C1433 C1429 1.393 . S
C1433 C1432 1.391 . S
C1434 H1424 0.950 . S
C1434 C1435 1.386 1_565 S
C1434 C1436 1.391 . S
C1435 C1434 1.386 1_545 S
C1435 C1439 1.398 . S
C1436 H1425 0.950 . S
C1436 C1434 1.391 . S
C1436 C1437 1.400 . S
C1437 C1431 1.491 . S
C1437 C1436 1.400 . S
C1437 C1438 1.398 . S
C1438 H1426 0.950 . S
C1438 C1437 1.398 . S
C1438 C1439 1.359 1_565 S
C1439 H1427 0.978 . S
C1439 C1435 1.398 . S
C1439 C1438 1.359 1_545 S
H1440 C1448 0.950 . S
H1441 C1453 0.950 . S
H1442 C1450 0.950 . S
H1443 C1452 0.950 . S
H1444 C1454 0.950 . S
H1445 C1456 0.950 . S
H1446 C1458 0.950 . S
H1447 C1459 0.950 . S
C1448 H1440 0.950 . S
C1448 C1449 1.386 . S
C1448 C1450 1.391 . S
C1449 C1448 1.386 . S
C1449 C1453 1.393 . S
C1450 H1442 0.950 . S
C1450 C1448 1.391 . S
C1450 C1451 1.400 . S
C1451 C1450 1.400 . S
C1451 C1452 1.398 . S
C1451 C1457 1.491 . S
C1452 H1443 0.950 . S
C1452 C1451 1.398 . S
C1452 C1453 1.391 . S
C1453 H1441 0.950 . S
C1453 C1449 1.393 . S
C1453 C1452 1.391 . S
C1454 H1444 0.950 . S
C1454 C1455 1.386 . S
C1454 C1456 1.391 . S
C1455 C1454 1.386 . S
C1455 C1459 1.393 . S
C1456 H1445 0.950 . S
C1456 C1454 1.391 . S
C1456 C1457 1.400 . S
C1457 C1451 1.491 . S
C1457 C1456 1.400 . S
C1457 C1458 1.398 . S
C1458 H1446 0.950 . S
C1458 C1457 1.398 . S
C1458 C1459 1.391 . S
C1459 H1447 0.950 . S
C1459 C1455 1.393 . S
C1459 C1458 1.391 . S
H1460 C1468 0.950 . S
H1461 C1473 0.950 1_545 S
H1462 C1470 0.950 . S
H1463 C1472 0.950 . S
H1464 C1474 0.950 . S
H1465 C1476 0.950 . S
H1466 C1478 0.950 . S
H1467 C1479 0.950 . S
C1468 H1460 0.950 . S
C1468 C1469 1.386 1_565 S
C1468 C1470 1.391 . S
C1469 C1468 1.386 1_545 S
C1469 C1473 1.393 1_545 S
C1470 H1462 0.950 . S
C1470 C1468 1.391 . S
C1470 C1471 1.400 . S
C1471 C1470 1.400 . S
C1471 C1472 1.398 . S
C1471 C1477 1.491 . S
C1472 H1463 0.950 . S
C1472 C1471 1.398 . S
C1472 C1473 1.391 . S
C1473 H1461 0.950 1_565 S
C1473 C1469 1.393 1_565 S
C1473 C1472 1.391 . S
C1474 H1464 0.950 . S
C1474 C1475 1.386 . S
C1474 C1476 1.391 . S
C1475 C1474 1.386 . S
C1475 C1479 1.393 . S
C1476 H1465 0.950 . S
C1476 C1474 1.391 . S
C1476 C1477 1.400 . S
C1477 C1471 1.491 . S
C1477 C1476 1.400 . S
C1477 C1478 1.398 . S
C1478 H1466 0.950 . S
C1478 C1477 1.398 . S
C1478 C1479 1.391 . S
C1479 H1467 0.950 . S
C1479 C1475 1.393 . S
C1479 C1478 1.391 . S
H1480 C1488 0.950 . S
H1481 C1493 0.950 . S
H1482 C1490 0.950 . S
H1483 C1492 0.950 . S
H1484 C1494 0.950 . S
H1485 C1496 0.950 . S
H1486 C1498 0.950 . S
H1487 C1499 0.950 . S
C1488 H1480 0.950 . S
C1488 C1489 1.386 . S
C1488 C1490 1.391 . S
C1489 C1488 1.386 . S
C1489 C1493 1.393 . S
C1490 H1482 0.950 . S
C1490 C1488 1.391 . S
C1490 C1491 1.400 . S
C1491 C1490 1.400 . S
C1491 C1492 1.398 . S
C1491 C1497 1.491 . S
C1492 H1483 0.950 . S
C1492 C1491 1.398 . S
C1492 C1493 1.391 . S
C1493 H1481 0.950 . S
C1493 C1489 1.393 . S
C1493 C1492 1.391 . S
C1494 H1484 0.950 . S
C1494 C1495 1.386 . S
C1494 C1496 1.391 . S
C1495 C1494 1.386 . S
C1495 C1499 1.393 . S
C1496 H1485 0.950 . S
C1496 C1494 1.391 . S
C1496 C1497 1.400 . S
C1497 C1491 1.491 . S
C1497 C1496 1.400 . S
C1497 C1498 1.398 . S
C1498 H1486 0.950 . S
C1498 C1497 1.398 . S
C1498 C1499 1.391 . S
C1499 H1487 0.950 . S
C1499 C1495 1.393 . S
C1499 C1498 1.391 . S
H1500 C1508 0.950 . S
H1501 C1513 0.950 . S
H1502 C1510 0.950 . S
H1503 C1512 0.950 . S
H1504 C1514 0.950 . S
H1505 C1516 0.950 . S
H1506 C1518 0.950 . S
H1507 C1519 0.950 . S
C1508 H1500 0.950 . S
C1508 C1509 1.386 . S
C1508 C1510 1.391 1_565 S
C1509 C1508 1.386 . S
C1509 C1513 1.393 1_565 S
C1510 H1502 0.950 . S
C1510 C1508 1.391 1_545 S
C1510 C1511 1.400 . S
C1511 C1510 1.400 . S
C1511 C1512 1.398 . S
C1511 C1517 1.491 . S
C1512 H1503 0.950 . S
C1512 C1511 1.398 . S
C1512 C1513 1.391 . S
C1513 H1501 0.950 . S
C1513 C1509 1.393 1_545 S
C1513 C1512 1.391 . S
C1514 H1504 0.950 . S
C1514 C1515 1.386 . S
C1514 C1516 1.391 . S
C1515 C1514 1.386 . S
C1515 C1519 1.393 . S
C1516 H1505 0.950 . S
C1516 C1514 1.391 . S
C1516 C1517 1.400 . S
C1517 C1511 1.491 . S
C1517 C1516 1.400 . S
C1517 C1518 1.398 . S
C1518 H1506 0.950 . S
C1518 C1517 1.398 . S
C1518 C1519 1.391 . S
C1519 H1507 0.950 . S
C1519 C1515 1.393 . S
C1519 C1518 1.391 . S
H1520 C1528 0.950 . S
H1521 C1533 0.950 . S
H1522 C1530 0.950 . S
H1523 C1532 0.950 . S
H1524 C1534 0.950 . S
H1525 C1536 0.950 . S
H1526 C1538 0.950 . S
H1527 C1539 0.950 . S
C1528 H1520 0.950 . S
C1528 C1529 1.386 . S
C1528 C1530 1.391 . S
C1529 C1528 1.386 . S
C1529 C1533 1.393 . S
C1530 H1522 0.950 . S
C1530 C1528 1.391 . S
C1530 C1531 1.400 . S
C1531 C1530 1.400 . S
C1531 C1532 1.398 . S
C1531 C1537 1.491 . S
C1532 H1523 0.950 . S
C1532 C1531 1.398 . S
C1532 C1533 1.391 . S
C1533 H1521 0.950 . S
C1533 C1529 1.393 . S
C1533 C1532 1.391 . S
C1534 H1524 0.950 . S
C1534 C1535 1.386 . S
C1534 C1536 1.391 . S
C1535 C1534 1.386 . S
C1535 C1539 1.393 . S
C1536 H1525 0.950 . S
C1536 C1534 1.391 . S
C1536 C1537 1.400 . S
C1537 C1531 1.491 . S
C1537 C1536 1.400 . S
C1537 C1538 1.398 . S
C1538 H1526 0.950 . S
C1538 C1537 1.398 . S
C1538 C1539 1.391 . S
C1539 H1527 0.950 . S
C1539 C1535 1.393 . S
C1539 C1538 1.391 . S
H1540 C1548 0.950 . S
H1541 C1553 0.950 . S
H1542 C1550 0.950 . S
H1543 C1552 0.950 . S
H1544 C1554 0.950 . S
H1545 C1556 0.950 . S
H1546 C1558 0.950 . S
H1547 C1559 0.950 . S
C1548 H1540 0.950 . S
C1548 C1549 1.386 1_565 S
C1548 C1550 1.391 . S
C1549 C1548 1.386 1_545 S
C1549 C1553 1.393 . S
C1550 H1542 0.950 . S
C1550 C1548 1.391 . S
C1550 C1551 1.400 . S
C1551 C1550 1.400 . S
C1551 C1552 1.398 . S
C1551 C1557 1.491 . S
C1552 H1543 0.950 . S
C1552 C1551 1.398 . S
C1552 C1553 1.391 1_565 S
C1553 H1541 0.950 . S
C1553 C1549 1.393 . S
C1553 C1552 1.391 1_545 S
C1554 H1544 0.950 . S
C1554 C1555 1.386 . S
C1554 C1556 1.391 . S
C1555 C1554 1.386 . S
C1555 C1559 1.393 . S
C1556 H1545 0.950 . S
C1556 C1554 1.391 . S
C1556 C1557 1.400 . S
C1557 C1551 1.491 . S
C1557 C1556 1.400 . S
C1557 C1558 1.398 . S
C1558 H1546 0.950 . S
C1558 C1557 1.398 . S
C1558 C1559 1.391 . S
C1559 H1547 0.950 . S
C1559 C1555 1.393 . S
C1559 C1558 1.391 . S
H1560 C1568 0.950 . S
H1561 C1573 0.950 . S
H1562 C1570 0.950 . S
H1563 C1572 0.950 . S
H1564 C1574 0.950 . S
H1565 C1576 0.950 . S
H1566 C1578 0.950 . S
H1567 C1579 0.950 . S
C1568 H1560 0.950 . S
C1568 C1569 1.386 . S
C1568 C1570 1.391 . S
C1569 C1568 1.386 . S
C1569 C1573 1.393 . S
C1570 H1562 0.950 . S
C1570 C1568 1.391 . S
C1570 C1571 1.400 . S
C1571 C1570 1.400 . S
C1571 C1572 1.398 . S
C1571 C1577 1.491 . S
C1572 H1563 0.950 . S
C1572 C1571 1.398 . S
C1572 C1573 1.391 . S
C1573 H1561 0.950 . S
C1573 C1569 1.393 . S
C1573 C1572 1.391 . S
C1574 H1564 0.950 . S
C1574 C1575 1.386 . S
C1574 C1576 1.391 . S
C1575 C1574 1.386 . S
C1575 C1579 1.393 . S
C1576 H1565 0.950 . S
C1576 C1574 1.391 . S
C1576 C1577 1.400 . S
C1577 C1571 1.491 . S
C1577 C1576 1.400 . S
C1577 C1578 1.398 . S
C1578 H1566 0.950 . S
C1578 C1577 1.398 . S
C1578 C1579 1.391 . S
C1579 H1567 0.950 . S
C1579 C1575 1.393 . S
C1579 C1578 1.391 . S
H1580 C1588 0.950 . S
H1581 C1593 0.950 . S
H1582 C1590 0.950 . S
H1583 C1592 0.950 . S
H1584 C1594 0.950 . S
H1585 C1596 0.950 . S
H1586 C1598 0.950 . S
H1587 C1599 0.950 1_565 S
C1588 H1580 0.950 . S
C1588 C1589 1.386 . S
C1588 C1590 1.391 . S
C1589 C1588 1.386 . S
C1589 C1593 1.393 . S
C1590 H1582 0.950 . S
C1590 C1588 1.391 . S
C1590 C1591 1.400 . S
C1591 C1590 1.400 . S
C1591 C1592 1.398 . S
C1591 C1597 1.491 . S
C1592 H1583 0.950 . S
C1592 C1591 1.398 . S
C1592 C1593 1.391 . S
C1593 H1581 0.950 . S
C1593 C1589 1.393 . S
C1593 C1592 1.391 . S
C1594 H1584 0.950 . S
C1594 C1595 1.386 1_545 S
C1594 C1596 1.391 . S
C1595 C1594 1.386 1_565 S
C1595 C1599 1.393 1_565 S
C1596 H1585 0.950 . S
C1596 C1594 1.391 . S
C1596 C1597 1.400 . S
C1597 C1591 1.491 . S
C1597 C1596 1.400 . S
C1597 C1598 1.398 . S
C1598 H1586 0.950 . S
C1598 C1597 1.398 . S
C1598 C1599 1.391 . S
C1599 H1587 0.950 1_545 S
C1599 C1595 1.393 1_545 S
C1599 C1598 1.391 . S
H1600 C1608 0.950 . S
H1601 C1613 0.950 . S
H1602 C1610 0.950 . S
H1603 C1612 0.950 . S
H1604 C1614 0.950 . S
H1605 C1616 0.950 . S
H1606 C1618 0.950 . S
H1607 C1619 0.950 . S
C1608 H1600 0.950 . S
C1608 C1609 1.386 . S
C1608 C1610 1.391 . S
C1609 C1608 1.386 . S
C1609 C1613 1.393 . S
C1610 H1602 0.950 . S
C1610 C1608 1.391 . S
C1610 C1611 1.400 . S
C1611 C1610 1.400 . S
C1611 C1612 1.398 . S
C1611 C1617 1.491 . S
C1612 H1603 0.950 . S
C1612 C1611 1.398 . S
C1612 C1613 1.391 . S
C1613 H1601 0.950 . S
C1613 C1609 1.393 . S
C1613 C1612 1.391 . S
C1614 H1604 0.950 . S
C1614 C1615 1.386 . S
C1614 C1616 1.391 . S
C1615 C1614 1.386 . S
C1615 C1619 1.393 . S
C1616 H1605 0.950 . S
C1616 C1614 1.391 . S
C1616 C1617 1.400 . S
C1617 C1611 1.491 . S
C1617 C1616 1.400 . S
C1617 C1618 1.398 . S
C1618 H1606 0.950 . S
C1618 C1617 1.398 . S
C1618 C1619 1.391 . S
C1619 H1607 0.950 . S
C1619 C1615 1.393 . S
C1619 C1618 1.391 . S
H1620 C1628 0.950 . S
H1621 C1633 0.950 . S
H1622 C1630 0.950 . S
H1623 C1632 0.950 . S
H1624 C1634 0.950 . S
H1625 C1636 0.950 . S
H1626 C1638 0.950 . S
H1627 C1639 0.950 . S
C1628 H1620 0.950 . S
C1628 C1629 1.386 . S
C1628 C1630 1.391 . S
C1629 C1628 1.386 . S
C1629 C1633 1.393 . S
C1630 H1622 0.950 . S
C1630 C1628 1.391 . S
C1630 C1631 1.400 . S
C1631 C1630 1.400 . S
C1631 C1632 1.398 . S
C1631 C1637 1.491 . S
C1632 H1623 0.950 . S
C1632 C1631 1.398 . S
C1632 C1633 1.391 . S
C1633 H1621 0.950 . S
C1633 C1629 1.393 . S
C1633 C1632 1.391 . S
C1634 H1624 0.950 . S
C1634 C1635 1.386 . S
C1634 C1636 1.391 . S
C1635 C1634 1.386 . S
C1635 C1639 1.393 . S
C1636 H1625 0.950 . S
C1636 C1634 1.391 . S
C1636 C1637 1.400 . S
C1637 C1631 1.491 . S
C1637 C1636 1.400 . S
C1637 C1638 1.398 . S
C1638 H1626 0.950 . S
C1638 C1637 1.398 . S
C1638 C1639 1.391 . S
C1639 H1627 0.950 . S
C1639 C1635 1.393 . S
C1639 C1638 1.391 . S
H1640 C1648 0.950 . S
H1641 C1653 0.950 . S
H1642 C1650 0.950 . S
H1643 C1652 0.950 . S
H1644 C1654 0.950 . S
H1645 C1656 0.950 . S
H1646 C1658 0.950 . S
H1647 C1659 0.950 . S
C1648 H1640 0.950 . S
C1648 C1649 1.386 . S
C1648 C1650 1.391 . S
C1649 C1648 1.386 . S
C1649 C1653 1.393 . S
C1650 H1642 0.950 . S
C1650 C1648 1.391 . S
C1650 C1651 1.400 . S
C1651 C1650 1.400 . S
C1651 C1652 1.398 . S
C1651 C1657 1.491 . S
C1652 H1643 0.950 . S
C1652 C1651 1.398 . S
C1652 C1653 1.391 . S
C1653 H1641 0.950 . S
C1653 C1649 1.393 . S
C1653 C1652 1.391 . S
C1654 H1644 0.950 . S
C1654 C1655 1.386 . S
C1654 C1656 1.391 . S
C1655 C1654 1.386 . S
C1655 C1659 1.393 . S
C1656 H1645 0.950 . S
C1656 C1654 1.391 . S
C1656 C1657 1.400 . S
C1657 C1651 1.491 . S
C1657 C1656 1.400 . S
C1657 C1658 1.398 . S
C1658 H1646 0.950 . S
C1658 C1657 1.398 . S
C1658 C1659 1.391 . S
C1659 H1647 0.950 . S
C1659 C1655 1.393 . S
C1659 C1658 1.391 . S
H1660 C1668 0.950 . S
H1661 C1673 0.950 . S
H1662 C1670 0.950 . S
H1663 C1672 0.950 . S
H1664 C1674 0.950 . S
H1665 C1676 0.950 . S
H1666 C1678 0.950 . S
H1667 C1679 0.950 . S
C1668 H1660 0.950 . S
C1668 C1669 1.386 . S
C1668 C1670 1.391 . S
C1669 C1668 1.386 . S
C1669 C1673 1.393 . S
C1670 H1662 0.950 . S
C1670 C1668 1.391 . S
C1670 C1671 1.400 . S
C1671 C1670 1.400 . S
C1671 C1672 1.398 . S
C1671 C1677 1.491 . S
C1672 H1663 0.950 . S
C1672 C1671 1.398 . S
C1672 C1673 1.391 . S
C1673 H1661 0.950 . S
C1673 C1669 1.393 . S
C1673 C1672 1.391 . S
C1674 H1664 0.950 . S
C1674 C1675 1.386 . S
C1674 C1676 1.391 . S
C1675 C1674 1.386 . S
C1675 C1679 1.393 . S
C1676 H1665 0.950 . S
C1676 C1674 1.391 . S
C1676 C1677 1.400 . S
C1677 C1671 1.491 . S
C1677 C1676 1.400 . S
C1677 C1678 1.398 . S
C1678 H1666 0.950 . S
C1678 C1677 1.398 . S
C1678 C1679 1.391 . S
C1679 H1667 0.950 . S
C1679 C1675 1.393 . S
C1679 C1678 1.391 . S
H1680 C1688 0.950 . S
H1681 C1693 0.950 . S
H1682 C1690 0.950 . S
H1683 C1692 0.950 . S
H1684 C1694 0.950 . S
H1685 C1696 0.950 . S
H1686 C1698 0.950 . S
H1687 C1699 0.950 . S
C1688 H1680 0.950 . S
C1688 C1689 1.386 . S
C1688 C1690 1.391 . S
C1689 C1688 1.386 . S
C1689 C1693 1.393 . S
C1690 H1682 0.950 . S
C1690 C1688 1.391 . S
C1690 C1691 1.400 . S
C1691 C1690 1.400 . S
C1691 C1692 1.398 . S
C1691 C1697 1.491 . S
C1692 H1683 0.950 . S
C1692 C1691 1.398 . S
C1692 C1693 1.391 . S
C1693 H1681 0.950 . S
C1693 C1689 1.393 . S
C1693 C1692 1.391 . S
C1694 H1684 0.950 . S
C1694 C1695 1.386 . S
C1694 C1696 1.391 . S
C1695 C1694 1.386 . S
C1695 C1699 1.393 . S
C1696 H1685 0.950 . S
C1696 C1694 1.391 . S
C1696 C1697 1.400 . S
C1697 C1691 1.491 . S
C1697 C1696 1.400 . S
C1697 C1698 1.398 . S
C1698 H1686 0.950 . S
C1698 C1697 1.398 . S
C1698 C1699 1.391 . S
C1699 H1687 0.950 . S
C1699 C1695 1.393 . S
C1699 C1698 1.391 . S
H1700 C1708 0.950 . S
H1701 C1713 0.950 . S
H1702 C1710 0.950 . S
H1703 C1712 0.950 . S
H1704 C1714 0.950 . S
H1705 C1716 0.950 . S
H1706 C1718 0.950 . S
H1707 C1719 0.950 . S
C1708 H1700 0.950 . S
C1708 C1709 1.386 . S
C1708 C1710 1.391 . S
C1709 C1708 1.386 . S
C1709 C1713 1.393 . S
C1710 H1702 0.950 . S
C1710 C1708 1.391 . S
C1710 C1711 1.400 . S
C1711 C1710 1.400 . S
C1711 C1712 1.398 . S
C1711 C1717 1.491 . S
C1712 H1703 0.950 . S
C1712 C1711 1.398 . S
C1712 C1713 1.391 . S
C1713 H1701 0.950 . S
C1713 C1709 1.393 . S
C1713 C1712 1.391 . S
C1714 H1704 0.950 . S
C1714 C1715 1.386 . S
C1714 C1716 1.391 . S
C1715 C1714 1.386 . S
C1715 C1719 1.393 . S
C1716 H1705 0.950 . S
C1716 C1714 1.391 . S
C1716 C1717 1.400 . S
C1717 C1711 1.491 . S
C1717 C1716 1.400 . S
C1717 C1718 1.398 . S
C1718 H1706 0.950 . S
C1718 C1717 1.398 . S
C1718 C1719 1.391 . S
C1719 H1707 0.950 . S
C1719 C1715 1.393 . S
C1719 C1718 1.391 . S
H1720 C1728 0.950 . S
H1721 C1733 0.950 . S
H1722 C1730 0.950 . S
H1723 C1732 0.950 . S
H1724 C1734 0.950 . S
H1725 C1736 0.950 . S
H1726 C1738 0.950 . S
H1727 C1739 0.950 . S
C1728 H1720 0.950 . S
C1728 C1729 1.386 . S
C1728 C1730 1.391 . S
C1729 C1728 1.386 . S
C1729 C1733 1.393 . S
C1730 H1722 0.950 . S
C1730 C1728 1.391 . S
C1730 C1731 1.400 . S
C1731 C1730 1.400 . S
C1731 C1732 1.398 . S
C1731 C1737 1.491 . S
C1732 H1723 0.950 . S
C1732 C1731 1.398 . S
C1732 C1733 1.391 . S
C1733 H1721 0.950 . S
C1733 C1729 1.393 . S
C1733 C1732 1.391 . S
C1734 H1724 0.950 . S
C1734 C1735 1.386 . S
C1734 C1736 1.391 . S
C1735 C1734 1.386 . S
C1735 C1739 1.393 . S
C1736 H1725 0.950 . S
C1736 C1734 1.391 . S
C1736 C1737 1.400 . S
C1737 C1731 1.491 . S
C1737 C1736 1.400 . S
C1737 C1738 1.398 . S
C1738 H1726 0.950 . S
C1738 C1737 1.398 . S
C1738 C1739 1.391 . S
C1739 H1727 0.950 . S
C1739 C1735 1.393 . S
C1739 C1738 1.391 . S
H1740 C1748 0.950 . S
H1741 C1753 0.950 . S
H1742 C1750 0.950 . S
H1743 C1752 0.950 . S
H1744 C1754 0.950 . S
H1745 C1756 0.950 . S
H1746 C1758 0.950 . S
H1747 C1759 0.950 . S
C1748 H1740 0.950 . S
C1748 C1749 1.386 . S
C1748 C1750 1.391 . S
C1749 C1748 1.386 . S
C1749 C1753 1.393 . S
C1750 H1742 0.950 . S
C1750 C1748 1.391 . S
C1750 C1751 1.400 . S
C1751 C1750 1.400 . S
C1751 C1752 1.398 . S
C1751 C1757 1.491 . S
C1752 H1743 0.950 . S
C1752 C1751 1.398 . S
C1752 C1753 1.391 . S
C1753 H1741 0.950 . S
C1753 C1749 1.393 . S
C1753 C1752 1.391 . S
C1754 H1744 0.950 . S
C1754 C1755 1.386 . S
C1754 C1756 1.391 . S
C1755 C1754 1.386 . S
C1755 C1759 1.393 . S
C1756 H1745 0.950 . S
C1756 C1754 1.391 . S
C1756 C1757 1.400 . S
C1757 C1751 1.491 . S
C1757 C1756 1.400 . S
C1757 C1758 1.398 . S
C1758 H1746 0.950 . S
C1758 C1757 1.398 . S
C1758 C1759 1.391 . S
C1759 H1747 0.950 . S
C1759 C1755 1.393 . S
C1759 C1758 1.391 . S
H1760 C1768 0.950 . S
H1761 C1773 0.950 . S
H1762 C1770 0.950 . S
H1763 C1772 0.950 . S
H1764 C1774 0.950 . S
H1765 C1776 0.950 . S
H1766 C1778 0.950 . S
H1767 C1779 0.950 . S
C1768 H1760 0.950 . S
C1768 C1769 1.386 . S
C1768 C1770 1.391 . S
C1769 C1768 1.386 . S
C1769 C1773 1.393 . S
C1770 H1762 0.950 . S
C1770 C1768 1.391 . S
C1770 C1771 1.400 . S
C1771 C1770 1.400 . S
C1771 C1772 1.398 . S
C1771 C1777 1.491 . S
C1772 H1763 0.950 . S
C1772 C1771 1.398 . S
C1772 C1773 1.391 . S
C1773 H1761 0.950 . S
C1773 C1769 1.393 . S
C1773 C1772 1.391 . S
C1774 H1764 0.950 . S
C1774 C1775 1.386 . S
C1774 C1776 1.391 . S
C1775 C1774 1.386 . S
C1775 C1779 1.393 . S
C1776 H1765 0.950 . S
C1776 C1774 1.391 . S
C1776 C1777 1.400 . S
C1777 C1771 1.491 . S
C1777 C1776 1.400 . S
C1777 C1778 1.398 . S
C1778 H1766 0.950 . S
C1778 C1777 1.398 . S
C1778 C1779 1.391 . S
C1779 H1767 0.950 . S
C1779 C1775 1.393 . S
C1779 C1778 1.391 . S
H1780 C1788 0.950 . S
H1781 C1793 0.950 . S
H1782 C1790 0.950 . S
H1783 C1792 0.950 . S
H1784 C1794 0.950 . S
H1785 C1796 0.950 . S
H1786 C1798 0.950 . S
H1787 C1799 0.950 . S
C1788 H1780 0.950 . S
C1788 C1789 1.386 . S
C1788 C1790 1.391 . S
C1789 C1788 1.386 . S
C1789 C1793 1.393 . S
C1790 H1782 0.950 . S
C1790 C1788 1.391 . S
C1790 C1791 1.400 . S
C1791 C1790 1.400 . S
C1791 C1792 1.398 . S
C1791 C1797 1.491 . S
C1792 H1783 0.950 . S
C1792 C1791 1.398 . S
C1792 C1793 1.391 . S
C1793 H1781 0.950 . S
C1793 C1789 1.393 . S
C1793 C1792 1.391 . S
C1794 H1784 0.950 . S
C1794 C1795 1.386 . S
C1794 C1796 1.391 . S
C1795 C1794 1.386 . S
C1795 C1799 1.393 . S
C1796 H1785 0.950 . S
C1796 C1794 1.391 . S
C1796 C1797 1.400 . S
C1797 C1791 1.491 . S
C1797 C1796 1.400 . S
C1797 C1798 1.398 . S
C1798 H1786 0.950 . S
C1798 C1797 1.398 . S
C1798 C1799 1.391 . S
C1799 H1787 0.950 . S
C1799 C1795 1.393 . S
C1799 C1798 1.391 . S
H1800 C1808 0.950 . S
H1801 C1813 0.950 . S
H1802 C1810 0.950 . S
H1803 C1812 0.950 . S
H1804 C1814 0.950 . S
H1805 C1816 0.950 . S
H1806 C1818 0.950 . S
H1807 C1819 0.950 . S
C1808 H1800 0.950 . S
C1808 C1809 1.386 . S
C1808 C1810 1.391 . S
C1809 C1808 1.386 . S
C1809 C1813 1.393 . S
C1810 H1802 0.950 . S
C1810 C1808 1.391 . S
C1810 C1811 1.400 . S
C1811 C1810 1.400 . S
C1811 C1812 1.398 . S
C1811 C1817 1.491 . S
C1812 H1803 0.950 . S
C1812 C1811 1.398 . S
C1812 C1813 1.391 . S
C1813 H1801 0.950 . S
C1813 C1809 1.393 . S
C1813 C1812 1.391 . S
C1814 H1804 0.950 . S
C1814 C1815 1.386 . S
C1814 C1816 1.391 . S
C1815 C1814 1.386 . S
C1815 C1819 1.393 . S
C1816 H1805 0.950 . S
C1816 C1814 1.391 . S
C1816 C1817 1.400 . S
C1817 C1811 1.491 . S
C1817 C1816 1.400 . S
C1817 C1818 1.398 . S
C1818 H1806 0.950 . S
C1818 C1817 1.398 . S
C1818 C1819 1.391 . S
C1819 H1807 0.950 . S
C1819 C1815 1.393 . S
C1819 C1818 1.391 . S
H1820 C1828 0.950 . S
H1821 C1833 0.950 . S
H1822 C1830 0.950 . S
H1823 C1832 0.950 . S
H1824 C1834 0.950 . S
H1825 C1836 0.950 . S
H1826 C1838 0.950 . S
H1827 C1839 0.950 . S
C1828 H1820 0.950 . S
C1828 C1829 1.386 . S
C1828 C1830 1.391 . S
C1829 C1828 1.386 . S
C1829 C1833 1.393 . S
C1830 H1822 0.950 . S
C1830 C1828 1.391 . S
C1830 C1831 1.400 . S
C1831 C1830 1.400 . S
C1831 C1832 1.398 . S
C1831 C1837 1.491 . S
C1832 H1823 0.950 . S
C1832 C1831 1.398 . S
C1832 C1833 1.391 . S
C1833 H1821 0.950 . S
C1833 C1829 1.393 . S
C1833 C1832 1.391 . S
C1834 H1824 0.950 . S
C1834 C1835 1.386 . S
C1834 C1836 1.391 . S
C1835 C1834 1.386 . S
C1835 C1839 1.393 . S
C1836 H1825 0.950 . S
C1836 C1834 1.391 . S
C1836 C1837 1.400 . S
C1837 C1831 1.491 . S
C1837 C1836 1.400 . S
C1837 C1838 1.398 . S
C1838 H1826 0.950 . S
C1838 C1837 1.398 . S
C1838 C1839 1.391 . S
C1839 H1827 0.950 . S
C1839 C1835 1.393 . S
C1839 C1838 1.391 . S
H1840 C1848 0.950 . S
H1841 C1853 0.950 . S
H1842 C1850 0.950 . S
H1843 C1852 0.950 . S
H1844 C1854 0.950 . S
H1845 C1856 0.950 . S
H1846 C1858 0.950 . S
H1847 C1859 0.950 . S
C1848 H1840 0.950 . S
C1848 C1849 1.386 . S
C1848 C1850 1.391 . S
C1849 C1848 1.386 . S
C1849 C1853 1.393 . S
C1850 H1842 0.950 . S
C1850 C1848 1.391 . S
C1850 C1851 1.400 . S
C1851 C1850 1.400 . S
C1851 C1852 1.398 . S
C1851 C1857 1.491 . S
C1852 H1843 0.950 . S
C1852 C1851 1.398 . S
C1852 C1853 1.391 . S
C1853 H1841 0.950 . S
C1853 C1849 1.393 . S
C1853 C1852 1.391 . S
C1854 H1844 0.950 . S
C1854 C1855 1.386 . S
C1854 C1856 1.391 . S
C1855 C1854 1.386 . S
C1855 C1859 1.393 . S
C1856 H1845 0.950 . S
C1856 C1854 1.391 . S
C1856 C1857 1.400 . S
C1857 C1851 1.491 . S
C1857 C1856 1.400 . S
C1857 C1858 1.398 . S
C1858 H1846 0.950 . S
C1858 C1857 1.398 . S
C1858 C1859 1.391 . S
C1859 H1847 0.950 . S
C1859 C1855 1.393 . S
C1859 C1858 1.391 . S
H1860 C1868 0.950 . S
H1861 C1873 0.950 . S
H1862 C1870 0.950 . S
H1863 C1872 0.950 . S
H1864 C1874 0.950 . S
H1865 C1876 0.950 . S
H1866 C1878 0.950 . S
H1867 C1879 0.950 . S
C1868 H1860 0.950 . S
C1868 C1869 1.386 . S
C1868 C1870 1.391 . S
C1869 C1868 1.386 . S
C1869 C1873 1.393 . S
C1870 H1862 0.950 . S
C1870 C1868 1.391 . S
C1870 C1871 1.400 . S
C1871 C1870 1.400 . S
C1871 C1872 1.398 . S
C1871 C1877 1.491 . S
C1872 H1863 0.950 . S
C1872 C1871 1.398 . S
C1872 C1873 1.391 . S
C1873 H1861 0.950 . S
C1873 C1869 1.393 . S
C1873 C1872 1.391 . S
C1874 H1864 0.950 . S
C1874 C1875 1.386 . S
C1874 C1876 1.391 . S
C1875 C1874 1.386 . S
C1875 C1879 1.393 . S
C1876 H1865 0.950 . S
C1876 C1874 1.391 . S
C1876 C1877 1.400 . S
C1877 C1871 1.491 . S
C1877 C1876 1.400 . S
C1877 C1878 1.398 . S
C1878 H1866 0.950 . S
C1878 C1877 1.398 . S
C1878 C1879 1.391 . S
C1879 H1867 0.950 . S
C1879 C1875 1.393 . S
C1879 C1878 1.391 . S
H1880 C1888 0.950 . S
H1881 C1893 0.950 . S
H1882 C1890 0.950 . S
H1883 C1892 0.950 . S
H1884 C1894 0.950 . S
H1885 C1896 0.950 . S
H1886 C1898 0.950 . S
H1887 C1899 0.950 . S
C1888 H1880 0.950 . S
C1888 C1889 1.386 . S
C1888 C1890 1.391 . S
C1889 C1888 1.386 . S
C1889 C1893 1.393 . S
C1890 H1882 0.950 . S
C1890 C1888 1.391 . S
C1890 C1891 1.400 . S
C1891 C1890 1.400 . S
C1891 C1892 1.398 . S
C1891 C1897 1.491 . S
C1892 H1883 0.950 . S
C1892 C1891 1.398 . S
C1892 C1893 1.391 . S
C1893 H1881 0.950 . S
C1893 C1889 1.393 . S
C1893 C1892 1.391 . S
C1894 H1884 0.950 . S
C1894 C1895 1.386 . S
C1894 C1896 1.391 . S
C1895 C1894 1.386 . S
C1895 C1899 1.393 . S
C1896 H1885 0.950 . S
C1896 C1894 1.391 . S
C1896 C1897 1.400 . S
C1897 C1891 1.491 . S
C1897 C1896 1.400 . S
C1897 C1898 1.398 . S
C1898 H1886 0.950 . S
C1898 C1897 1.398 . S
C1898 C1899 1.391 . S
C1899 H1887 0.950 . S
C1899 C1895 1.393 . S
C1899 C1898 1.391 . S
H1900 C1908 0.950 . S
H1901 C1913 0.950 . S
H1902 C1910 0.950 . S
H1903 C1912 0.950 . S
H1904 C1914 0.950 . S
H1905 C1916 0.950 . S
H1906 C1918 0.950 . S
H1907 C1919 0.950 . S
C1908 H1900 0.950 . S
C1908 C1909 1.386 . S
C1908 C1910 1.391 . S
C1909 C1908 1.386 . S
C1909 C1913 1.393 . S
C1910 H1902 0.950 . S
C1910 C1908 1.391 . S
C1910 C1911 1.400 . S
C1911 C1910 1.400 . S
C1911 C1912 1.398 . S
C1911 C1917 1.491 . S
C1912 H1903 0.950 . S
C1912 C1911 1.398 . S
C1912 C1913 1.391 . S
C1913 H1901 0.950 . S
C1913 C1909 1.393 . S
C1913 C1912 1.391 . S
C1914 H1904 0.950 . S
C1914 C1915 1.386 . S
C1914 C1916 1.391 . S
C1915 C1914 1.386 . S
C1915 C1919 1.393 . S
C1916 H1905 0.950 . S
C1916 C1914 1.391 . S
C1916 C1917 1.400 . S
C1917 C1911 1.491 . S
C1917 C1916 1.400 . S
C1917 C1918 1.398 . S
C1918 H1906 0.950 . S
C1918 C1917 1.398 . S
C1918 C1919 1.391 . S
C1919 H1907 0.950 . S
C1919 C1915 1.393 . S
C1919 C1918 1.391 . S
H1920 C1928 0.950 . S
H1921 C1933 0.950 . S
H1922 C1930 0.950 . S
H1923 C1932 0.950 . S
H1924 C1934 0.950 . S
H1925 C1936 0.950 . S
H1926 C1938 0.950 . S
H1927 C1939 0.950 . S
C1928 H1920 0.950 . S
C1928 C1929 1.386 . S
C1928 C1930 1.391 . S
C1929 C1928 1.386 . S
C1929 C1933 1.393 . S
C1930 H1922 0.950 . S
C1930 C1928 1.391 . S
C1930 C1931 1.400 . S
C1931 C1930 1.400 . S
C1931 C1932 1.398 . S
C1931 C1937 1.491 . S
C1932 H1923 0.950 . S
C1932 C1931 1.398 . S
C1932 C1933 1.391 . S
C1933 H1921 0.950 . S
C1933 C1929 1.393 . S
C1933 C1932 1.391 . S
C1934 H1924 0.950 . S
C1934 C1935 1.386 . S
C1934 C1936 1.391 . S
C1935 C1934 1.386 . S
C1935 C1939 1.393 . S
C1936 H1925 0.950 . S
C1936 C1934 1.391 . S
C1936 C1937 1.400 . S
C1937 C1931 1.491 . S
C1937 C1936 1.400 . S
C1937 C1938 1.398 . S
C1938 H1926 0.950 . S
C1938 C1937 1.398 . S
C1938 C1939 1.391 . S
C1939 H1927 0.950 . S
C1939 C1935 1.393 . S
C1939 C1938 1.391 . S
H1940 C1948 0.950 . S
H1941 C1953 0.950 . S
H1942 C1950 0.950 . S
H1943 C1952 0.950 . S
H1944 C1954 0.950 . S
H1945 C1956 0.950 . S
H1946 C1958 0.950 . S
H1947 C1959 0.988 . S
C1948 H1940 0.950 . S
C1948 C1949 1.386 . S
C1948 C1950 1.391 . S
C1949 C1948 1.386 . S
C1949 C1953 1.393 . S
C1950 H1942 0.950 . S
C1950 C1948 1.391 . S
C1950 C1951 1.400 . S
C1951 C1950 1.400 . S
C1951 C1952 1.398 . S
C1951 C1957 1.491 . S
C1952 H1943 0.950 . S
C1952 C1951 1.398 . S
C1952 C1953 1.391 . S
C1953 H1941 0.950 . S
C1953 C1949 1.393 . S
C1953 C1952 1.391 . S
C1954 H1944 0.950 . S
C1954 C1955 1.356 1_455 S
C1954 C1956 1.391 . S
C1955 C1954 1.356 1_655 S
C1955 C1959 1.393 . S
C1956 H1945 0.950 . S
C1956 C1954 1.391 . S
C1956 C1957 1.400 . S
C1957 C1951 1.491 . S
C1957 C1956 1.400 . S
C1957 C1958 1.398 . S
C1958 H1946 0.950 . S
C1958 C1957 1.398 . S
C1958 C1959 1.353 1_455 S
C1959 H1947 0.988 . S
C1959 C1955 1.393 . S
C1959 C1958 1.353 1_655 S
H1960 C1968 0.950 . S
H1961 C1973 0.950 . S
H1962 C1970 0.950 . S
H1963 C1972 0.950 . S
H1964 C1974 0.950 . S
H1965 C1976 0.950 . S
H1966 C1978 0.950 . S
H1967 C1979 0.950 . S
C1968 H1960 0.950 . S
C1968 C1969 1.386 . S
C1968 C1970 1.391 . S
C1969 C1968 1.386 . S
C1969 C1973 1.393 . S
C1970 H1962 0.950 . S
C1970 C1968 1.391 . S
C1970 C1971 1.400 . S
C1971 C1970 1.400 . S
C1971 C1972 1.398 . S
C1971 C1977 1.491 . S
C1972 H1963 0.950 . S
C1972 C1971 1.398 . S
C1972 C1973 1.391 . S
C1973 H1961 0.950 . S
C1973 C1969 1.393 . S
C1973 C1972 1.391 . S
C1974 H1964 0.950 . S
C1974 C1975 1.386 . S
C1974 C1976 1.391 . S
C1975 C1974 1.386 . S
C1975 C1979 1.393 . S
C1976 H1965 0.950 . S
C1976 C1974 1.391 . S
C1976 C1977 1.400 . S
C1977 C1971 1.491 . S
C1977 C1976 1.400 . S
C1977 C1978 1.398 . S
C1978 H1966 0.950 . S
C1978 C1977 1.398 . S
C1978 C1979 1.391 . S
C1979 H1967 0.950 . S
C1979 C1975 1.393 . S
C1979 C1978 1.391 . S
H1980 C1988 0.950 . S
H1981 C1993 0.950 . S
H1982 C1990 0.950 . S
H1983 C1992 0.950 . S
H1984 C1994 0.950 . S
H1985 C1996 0.950 . S
H1986 C1998 0.950 . S
H1987 C1999 0.950 . S
C1988 H1980 0.950 . S
C1988 C1989 1.386 . S
C1988 C1990 1.391 . S
C1989 C1988 1.386 . S
C1989 C1993 1.393 . S
C1990 H1982 0.950 . S
C1990 C1988 1.391 . S
C1990 C1991 1.400 . S
C1991 C1990 1.400 . S
C1991 C1992 1.398 . S
C1991 C1997 1.491 . S
C1992 H1983 0.950 . S
C1992 C1991 1.398 . S
C1992 C1993 1.391 . S
C1993 H1981 0.950 . S
C1993 C1989 1.393 . S
C1993 C1992 1.391 . S
C1994 H1984 0.950 . S
C1994 C1995 1.386 . S
C1994 C1996 1.391 . S
C1995 C1994 1.386 . S
C1995 C1999 1.393 . S
C1996 H1985 0.950 . S
C1996 C1994 1.391 . S
C1996 C1997 1.400 . S
C1997 C1991 1.491 . S
C1997 C1996 1.400 . S
C1997 C1998 1.398 . S
C1998 H1986 0.950 . S
C1998 C1997 1.398 . S
C1998 C1999 1.391 . S
C1999 H1987 0.950 . S
C1999 C1995 1.393 . S
C1999 C1998 1.391 . S
H2000 C2008 0.950 . S
H2001 C2013 0.950 . S
H2002 C2010 0.950 . S
H2003 C2012 0.950 . S
H2004 C2014 0.950 . S
H2005 C2016 0.950 . S
H2006 C2018 0.950 . S
H2007 C2019 0.950 . S
C2008 H2000 0.950 . S
C2008 C2009 1.386 . S
C2008 C2010 1.391 . S
C2009 C2008 1.386 . S
C2009 C2013 1.393 . S
C2010 H2002 0.950 . S
C2010 C2008 1.391 . S
C2010 C2011 1.400 . S
C2011 C2010 1.400 . S
C2011 C2012 1.398 . S
C2011 C2017 1.491 . S
C2012 H2003 0.950 . S
C2012 C2011 1.398 . S
C2012 C2013 1.391 . S
C2013 H2001 0.950 . S
C2013 C2009 1.393 . S
C2013 C2012 1.391 . S
C2014 H2004 0.950 . S
C2014 C2015 1.386 . S
C2014 C2016 1.391 . S
C2015 C2014 1.386 . S
C2015 C2019 1.393 . S
C2016 H2005 0.950 . S
C2016 C2014 1.391 . S
C2016 C2017 1.400 . S
C2017 C2011 1.491 . S
C2017 C2016 1.400 . S
C2017 C2018 1.398 . S
C2018 H2006 0.950 . S
C2018 C2017 1.398 . S
C2018 C2019 1.391 . S
C2019 H2007 0.950 . S
C2019 C2015 1.393 . S
C2019 C2018 1.391 . S
H2020 C2028 0.950 . S
H2021 C2033 0.950 . S
H2022 C2030 0.950 . S
H2023 C2032 0.950 . S
H2024 C2034 0.950 . S
H2025 C2036 0.950 . S
H2026 C2038 0.950 . S
H2027 C2039 0.950 . S
C2028 H2020 0.950 . S
C2028 C2029 1.386 . S
C2028 C2030 1.391 . S
C2029 C2028 1.386 . S
C2029 C2033 1.393 . S
C2030 H2022 0.950 . S
C2030 C2028 1.391 . S
C2030 C2031 1.400 . S
C2031 C2030 1.400 . S
C2031 C2032 1.398 . S
C2031 C2037 1.491 . S
C2032 H2023 0.950 . S
C2032 C2031 1.398 . S
C2032 C2033 1.391 . S
C2033 H2021 0.950 . S
C2033 C2029 1.393 . S
C2033 C2032 1.391 . S
C2034 H2024 0.950 . S
C2034 C2035 1.386 . S
C2034 C2036 1.391 . S
C2035 C2034 1.386 . S
C2035 C2039 1.393 . S
C2036 H2025 0.950 . S
C2036 C2034 1.391 . S
C2036 C2037 1.400 . S
C2037 C2031 1.491 . S
C2037 C2036 1.400 . S
C2037 C2038 1.398 . S
C2038 H2026 0.950 . S
C2038 C2037 1.398 . S
C2038 C2039 1.391 . S
C2039 H2027 0.950 . S
C2039 C2035 1.393 . S
C2039 C2038 1.391 . S
H2040 C2048 0.950 . S
H2041 C2053 0.950 . S
H2042 C2050 0.950 . S
H2043 C2052 0.950 . S
H2044 C2054 0.950 . S
H2045 C2056 0.950 . S
H2046 C2058 0.950 . S
H2047 C2059 0.950 . S
C2048 H2040 0.950 . S
C2048 C2049 1.386 . S
C2048 C2050 1.391 . S
C2049 C2048 1.386 . S
C2049 C2053 1.393 . S
C2050 H2042 0.950 . S
C2050 C2048 1.391 . S
C2050 C2051 1.400 . S
C2051 C2050 1.400 . S
C2051 C2052 1.398 . S
C2051 C2057 1.491 . S
C2052 H2043 0.950 . S
C2052 C2051 1.398 . S
C2052 C2053 1.391 . S
C2053 H2041 0.950 . S
C2053 C2049 1.393 . S
C2053 C2052 1.391 . S
C2054 H2044 0.950 . S
C2054 C2055 1.386 . S
C2054 C2056 1.391 . S
C2055 C2054 1.386 . S
C2055 C2059 1.393 . S
C2056 H2045 0.950 . S
C2056 C2054 1.391 . S
C2056 C2057 1.400 . S
C2057 C2051 1.491 . S
C2057 C2056 1.400 . S
C2057 C2058 1.398 . S
C2058 H2046 0.950 . S
C2058 C2057 1.398 . S
C2058 C2059 1.391 . S
C2059 H2047 0.950 . S
C2059 C2055 1.393 . S
C2059 C2058 1.391 . S
H2060 C2068 0.950 . S
H2061 C2073 0.950 . S
H2062 C2070 0.950 . S
H2063 C2072 0.950 . S
H2064 C2074 0.950 . S
H2065 C2076 0.950 . S
H2066 C2078 0.950 . S
H2067 C2079 0.950 . S
C2068 H2060 0.950 . S
C2068 C2069 1.386 . S
C2068 C2070 1.391 . S
C2069 C2068 1.386 . S
C2069 C2073 1.393 . S
C2070 H2062 0.950 . S
C2070 C2068 1.391 . S
C2070 C2071 1.400 . S
C2071 C2070 1.400 . S
C2071 C2072 1.398 . S
C2071 C2077 1.491 . S
C2072 H2063 0.950 . S
C2072 C2071 1.398 . S
C2072 C2073 1.391 . S
C2073 H2061 0.950 . S
C2073 C2069 1.393 . S
C2073 C2072 1.391 . S
C2074 H2064 0.950 . S
C2074 C2075 1.360 1_455 S
C2074 C2076 1.391 . S
C2075 C2074 1.360 1_655 S
C2075 C2079 1.394 . S
C2076 H2065 0.950 . S
C2076 C2074 1.391 . S
C2076 C2077 1.400 . S
C2077 C2071 1.491 . S
C2077 C2076 1.400 . S
C2077 C2078 1.398 . S
C2078 H2066 0.950 . S
C2078 C2077 1.398 . S
C2078 C2079 1.391 1_455 S
C2079 H2067 0.950 . S
C2079 C2075 1.394 . S
C2079 C2078 1.391 1_655 S
H2080 C2088 0.950 . S
H2081 C2093 0.950 . S
H2082 C2090 0.950 . S
H2083 C2092 0.950 . S
H2084 C2094 0.950 . S
H2085 C2096 0.950 . S
H2086 C2098 0.950 . S
H2087 C2099 0.950 . S
C2088 H2080 0.950 . S
C2088 C2089 1.386 . S
C2088 C2090 1.391 . S
C2089 C2088 1.386 . S
C2089 C2093 1.393 . S
C2090 H2082 0.950 . S
C2090 C2088 1.391 . S
C2090 C2091 1.400 . S
C2091 C2090 1.400 . S
C2091 C2092 1.398 . S
C2091 C2097 1.491 . S
C2092 H2083 0.950 . S
C2092 C2091 1.398 . S
C2092 C2093 1.391 . S
C2093 H2081 0.950 . S
C2093 C2089 1.393 . S
C2093 C2092 1.391 . S
C2094 H2084 0.950 . S
C2094 C2095 1.386 . S
C2094 C2096 1.391 . S
C2095 C2094 1.386 . S
C2095 C2099 1.393 . S
C2096 H2085 0.950 . S
C2096 C2094 1.391 . S
C2096 C2097 1.400 . S
C2097 C2091 1.491 . S
C2097 C2096 1.400 . S
C2097 C2098 1.398 . S
C2098 H2086 0.950 . S
C2098 C2097 1.398 . S
C2098 C2099 1.391 . S
C2099 H2087 0.950 . S
C2099 C2095 1.393 . S
C2099 C2098 1.391 . S
H2100 C2108 0.950 . S
H2101 C2113 0.950 . S
H2102 C2110 0.950 . S
H2103 C2112 0.950 . S
H2104 C2114 0.950 . S
H2105 C2116 0.950 . S
H2106 C2118 0.950 . S
H2107 C2119 0.950 . S
C2108 H2100 0.950 . S
C2108 C2109 1.387 1_655 S
C2108 C2110 1.391 . S
C2109 C2108 1.387 1_455 S
C2109 C2113 1.394 1_455 S
C2110 H2102 0.950 . S
C2110 C2108 1.391 . S
C2110 C2111 1.400 . S
C2111 C2110 1.400 . S
C2111 C2112 1.398 . S
C2111 C2117 1.491 . S
C2112 H2103 0.950 . S
C2112 C2111 1.398 . S
C2112 C2113 1.391 . S
C2113 H2101 0.950 . S
C2113 C2109 1.394 1_655 S
C2113 C2112 1.391 . S
C2114 H2104 0.950 . S
C2114 C2115 1.386 . S
C2114 C2116 1.391 . S
C2115 C2114 1.386 . S
C2115 C2119 1.393 . S
C2116 H2105 0.950 . S
C2116 C2114 1.391 . S
C2116 C2117 1.400 . S
C2117 C2111 1.491 . S
C2117 C2116 1.400 . S
C2117 C2118 1.398 . S
C2118 H2106 0.950 . S
C2118 C2117 1.398 . S
C2118 C2119 1.391 . S
C2119 H2107 0.950 . S
C2119 C2115 1.393 . S
C2119 C2118 1.391 . S
H2120 C2128 0.950 . S
H2121 C2133 0.950 . S
H2122 C2130 0.950 . S
H2123 C2132 0.950 . S
H2124 C2134 0.950 . S
H2125 C2136 0.950 . S
H2126 C2138 0.950 . S
H2127 C2139 0.950 . S
C2128 H2120 0.950 . S
C2128 C2129 1.386 . S
C2128 C2130 1.391 . S
C2129 C2128 1.386 . S
C2129 C2133 1.393 . S
C2130 H2122 0.950 . S
C2130 C2128 1.391 . S
C2130 C2131 1.400 . S
C2131 C2130 1.400 . S
C2131 C2132 1.398 . S
C2131 C2137 1.491 . S
C2132 H2123 0.950 . S
C2132 C2131 1.398 . S
C2132 C2133 1.391 . S
C2133 H2121 0.950 . S
C2133 C2129 1.393 . S
C2133 C2132 1.391 . S
C2134 H2124 0.950 . S
C2134 C2135 1.386 . S
C2134 C2136 1.391 . S
C2135 C2134 1.386 . S
C2135 C2139 1.393 . S
C2136 H2125 0.950 . S
C2136 C2134 1.391 . S
C2136 C2137 1.400 . S
C2137 C2131 1.491 . S
C2137 C2136 1.400 . S
C2137 C2138 1.398 . S
C2138 H2126 0.950 . S
C2138 C2137 1.398 . S
C2138 C2139 1.391 . S
C2139 H2127 0.950 . S
C2139 C2135 1.393 . S
C2139 C2138 1.391 . S
H2140 C2148 0.950 . S
H2141 C2153 0.950 . S
H2142 C2150 0.950 . S
H2143 C2152 0.950 . S
H2144 C2154 0.950 . S
H2145 C2156 0.950 . S
H2146 C2158 0.950 . S
H2147 C2159 0.950 . S
C2148 H2140 0.950 . S
C2148 C2149 1.386 . S
C2148 C2150 1.391 . S
C2149 C2148 1.386 . S
C2149 C2153 1.393 . S
C2150 H2142 0.950 . S
C2150 C2148 1.391 . S
C2150 C2151 1.400 . S
C2151 C2150 1.400 . S
C2151 C2152 1.398 . S
C2151 C2157 1.491 . S
C2152 H2143 0.950 . S
C2152 C2151 1.398 . S
C2152 C2153 1.391 . S
C2153 H2141 0.950 . S
C2153 C2149 1.393 . S
C2153 C2152 1.391 . S
C2154 H2144 0.950 . S
C2154 C2155 1.386 . S
C2154 C2156 1.391 . S
C2155 C2154 1.386 . S
C2155 C2159 1.393 . S
C2156 H2145 0.950 . S
C2156 C2154 1.391 . S
C2156 C2157 1.400 . S
C2157 C2151 1.491 . S
C2157 C2156 1.400 . S
C2157 C2158 1.398 . S
C2158 H2146 0.950 . S
C2158 C2157 1.398 . S
C2158 C2159 1.391 . S
C2159 H2147 0.950 . S
C2159 C2155 1.393 . S
C2159 C2158 1.391 . S
H2160 C2168 0.950 . S
H2161 C2173 0.950 . S
H2162 C2170 0.950 . S
H2163 C2172 0.950 . S
H2164 C2174 0.950 . S
H2165 C2176 0.950 . S
H2166 C2178 0.950 . S
H2167 C2179 0.950 . S
C2168 H2160 0.950 . S
C2168 C2169 1.386 . S
C2168 C2170 1.391 . S
C2169 C2168 1.386 . S
C2169 C2173 1.393 . S
C2170 H2162 0.950 . S
C2170 C2168 1.391 . S
C2170 C2171 1.400 . S
C2171 C2170 1.400 . S
C2171 C2172 1.398 . S
C2171 C2177 1.491 . S
C2172 H2163 0.950 . S
C2172 C2171 1.398 . S
C2172 C2173 1.391 . S
C2173 H2161 0.950 . S
C2173 C2169 1.393 . S
C2173 C2172 1.391 . S
C2174 H2164 0.950 . S
C2174 C2175 1.386 . S
C2174 C2176 1.391 . S
C2175 C2174 1.386 . S
C2175 C2179 1.393 . S
C2176 H2165 0.950 . S
C2176 C2174 1.391 . S
C2176 C2177 1.400 . S
C2177 C2171 1.491 . S
C2177 C2176 1.400 . S
C2177 C2178 1.398 . S
C2178 H2166 0.950 . S
C2178 C2177 1.398 . S
C2178 C2179 1.391 . S
C2179 H2167 0.950 . S
C2179 C2175 1.393 . S
C2179 C2178 1.391 . S
H2180 C2188 0.950 . S
H2181 C2193 0.950 . S
H2182 C2190 0.950 . S
H2183 C2192 0.950 . S
H2184 C2194 0.950 . S
H2185 C2196 0.950 . S
H2186 C2198 0.950 . S
H2187 C2199 0.950 . S
C2188 H2180 0.950 . S
C2188 C2189 1.386 . S
C2188 C2190 1.391 . S
C2189 C2188 1.386 . S
C2189 C2193 1.393 . S
C2190 H2182 0.950 . S
C2190 C2188 1.391 . S
C2190 C2191 1.400 . S
C2191 C2190 1.400 . S
C2191 C2192 1.398 . S
C2191 C2197 1.491 . S
C2192 H2183 0.950 . S
C2192 C2191 1.398 . S
C2192 C2193 1.391 . S
C2193 H2181 0.950 . S
C2193 C2189 1.393 . S
C2193 C2192 1.391 . S
C2194 H2184 0.950 . S
C2194 C2195 1.386 . S
C2194 C2196 1.391 . S
C2195 C2194 1.386 . S
C2195 C2199 1.393 . S
C2196 H2185 0.950 . S
C2196 C2194 1.391 . S
C2196 C2197 1.400 . S
C2197 C2191 1.491 . S
C2197 C2196 1.400 . S
C2197 C2198 1.398 . S
C2198 H2186 0.950 . S
C2198 C2197 1.398 . S
C2198 C2199 1.391 . S
C2199 H2187 0.950 . S
C2199 C2195 1.393 . S
C2199 C2198 1.391 . S
H2200 C2208 0.950 . S
H2201 C2213 0.950 . S
H2202 C2210 0.950 . S
H2203 C2212 0.950 . S
H2204 C2214 0.950 . S
H2205 C2216 0.950 . S
H2206 C2218 0.950 . S
H2207 C2219 0.950 . S
C2208 H2200 0.950 . S
C2208 C2209 1.386 . S
C2208 C2210 1.391 . S
C2209 C2208 1.386 . S
C2209 C2213 1.393 . S
C2210 H2202 0.950 . S
C2210 C2208 1.391 . S
C2210 C2211 1.400 . S
C2211 C2210 1.400 . S
C2211 C2212 1.398 . S
C2211 C2217 1.491 . S
C2212 H2203 0.950 . S
C2212 C2211 1.398 . S
C2212 C2213 1.391 . S
C2213 H2201 0.950 . S
C2213 C2209 1.393 . S
C2213 C2212 1.391 . S
C2214 H2204 0.950 . S
C2214 C2215 1.386 . S
C2214 C2216 1.391 . S
C2215 C2214 1.386 . S
C2215 C2219 1.393 . S
C2216 H2205 0.950 . S
C2216 C2214 1.391 . S
C2216 C2217 1.400 . S
C2217 C2211 1.491 . S
C2217 C2216 1.400 . S
C2217 C2218 1.398 . S
C2218 H2206 0.950 . S
C2218 C2217 1.398 . S
C2218 C2219 1.391 . S
C2219 H2207 0.950 . S
C2219 C2215 1.393 . S
C2219 C2218 1.391 . S
H2220 C2228 0.950 . S
H2221 C2233 0.950 . S
H2222 C2230 0.950 . S
H2223 C2232 0.950 . S
H2224 C2234 0.950 1_455 S
H2225 C2236 0.950 . S
H2226 C2238 0.950 . S
H2227 C2239 0.950 . S
C2228 H2220 0.950 . S
C2228 C2229 1.386 . S
C2228 C2230 1.391 . S
C2229 C2228 1.386 . S
C2229 C2233 1.393 . S
C2230 H2222 0.950 . S
C2230 C2228 1.391 . S
C2230 C2231 1.400 . S
C2231 C2230 1.400 . S
C2231 C2232 1.398 . S
C2231 C2237 1.491 . S
C2232 H2223 0.950 . S
C2232 C2231 1.398 . S
C2232 C2233 1.391 . S
C2233 H2221 0.950 . S
C2233 C2229 1.393 . S
C2233 C2232 1.391 . S
C2234 H2224 0.950 1_655 S
C2234 C2235 1.385 1_655 S
C2234 C2236 1.391 . S
C2235 C2234 1.385 1_455 S
C2235 C2239 1.391 1_455 S
C2236 H2225 0.950 . S
C2236 C2234 1.391 . S
C2236 C2237 1.400 . S
C2237 C2231 1.491 . S
C2237 C2236 1.400 . S
C2237 C2238 1.398 . S
C2238 H2226 0.950 . S
C2238 C2237 1.398 . S
C2238 C2239 1.391 . S
C2239 H2227 0.950 . S
C2239 C2235 1.391 1_655 S
C2239 C2238 1.391 . S
H2240 C2248 0.950 . S
H2241 C2253 0.950 . S
H2242 C2250 0.950 . S
H2243 C2252 0.950 . S
H2244 C2254 0.950 . S
H2245 C2256 0.950 . S
H2246 C2258 0.950 . S
H2247 C2259 0.950 . S
C2248 H2240 0.950 . S
C2248 C2249 1.386 . S
C2248 C2250 1.391 . S
C2249 C2248 1.386 . S
C2249 C2253 1.393 . S
C2250 H2242 0.950 . S
C2250 C2248 1.391 . S
C2250 C2251 1.400 . S
C2251 C2250 1.400 . S
C2251 C2252 1.398 . S
C2251 C2257 1.491 . S
C2252 H2243 0.950 . S
C2252 C2251 1.398 . S
C2252 C2253 1.391 . S
C2253 H2241 0.950 . S
C2253 C2249 1.393 . S
C2253 C2252 1.391 . S
C2254 H2244 0.950 . S
C2254 C2255 1.386 . S
C2254 C2256 1.391 . S
C2255 C2254 1.386 . S
C2255 C2259 1.393 . S
C2256 H2245 0.950 . S
C2256 C2254 1.391 . S
C2256 C2257 1.400 . S
C2257 C2251 1.491 . S
C2257 C2256 1.400 . S
C2257 C2258 1.398 . S
C2258 H2246 0.950 . S
C2258 C2257 1.398 . S
C2258 C2259 1.391 . S
C2259 H2247 0.950 . S
C2259 C2255 1.393 . S
C2259 C2258 1.391 . S
H2260 C2268 0.950 . S
H2261 C2273 0.950 . S
H2262 C2270 0.950 . S
H2263 C2272 0.950 . S
H2264 C2274 0.950 . S
H2265 C2276 0.950 . S
H2266 C2278 0.950 . S
H2267 C2279 0.950 . S
C2268 H2260 0.950 . S
C2268 C2269 1.386 . S
C2268 C2270 1.391 . S
C2269 C2268 1.386 . S
C2269 C2273 1.393 . S
C2270 H2262 0.950 . S
C2270 C2268 1.391 . S
C2270 C2271 1.400 . S
C2271 C2270 1.400 . S
C2271 C2272 1.398 . S
C2271 C2277 1.491 . S
C2272 H2263 0.950 . S
C2272 C2271 1.398 . S
C2272 C2273 1.391 . S
C2273 H2261 0.950 . S
C2273 C2269 1.393 . S
C2273 C2272 1.391 . S
C2274 H2264 0.950 . S
C2274 C2275 1.386 . S
C2274 C2276 1.391 . S
C2275 C2274 1.386 . S
C2275 C2279 1.393 . S
C2276 H2265 0.950 . S
C2276 C2274 1.391 . S
C2276 C2277 1.400 . S
C2277 C2271 1.491 . S
C2277 C2276 1.400 . S
C2277 C2278 1.398 . S
C2278 H2266 0.950 . S
C2278 C2277 1.398 . S
C2278 C2279 1.391 . S
C2279 H2267 0.950 . S
C2279 C2275 1.393 . S
C2279 C2278 1.391 . S
H2280 C2288 0.950 . S
H2281 C2293 0.950 . S
H2282 C2290 0.950 . S
H2283 C2292 0.950 . S
H2284 C2294 0.950 . S
H2285 C2296 0.950 . S
H2286 C2298 0.950 . S
H2287 C2299 0.950 . S
C2288 H2280 0.950 . S
C2288 C2289 1.386 . S
C2288 C2290 1.391 . S
C2289 C2288 1.386 . S
C2289 C2293 1.393 . S
C2290 H2282 0.950 . S
C2290 C2288 1.391 . S
C2290 C2291 1.400 . S
C2291 C2290 1.400 . S
C2291 C2292 1.398 . S
C2291 C2297 1.491 . S
C2292 H2283 0.950 . S
C2292 C2291 1.398 . S
C2292 C2293 1.391 . S
C2293 H2281 0.950 . S
C2293 C2289 1.393 . S
C2293 C2292 1.391 . S
C2294 H2284 0.950 . S
C2294 C2295 1.386 . S
C2294 C2296 1.391 . S
C2295 C2294 1.386 . S
C2295 C2299 1.393 . S
C2296 H2285 0.950 . S
C2296 C2294 1.391 . S
C2296 C2297 1.400 . S
C2297 C2291 1.491 . S
C2297 C2296 1.400 . S
C2297 C2298 1.398 . S
C2298 H2286 0.950 . S
C2298 C2297 1.398 . S
C2298 C2299 1.391 . S
C2299 H2287 0.950 . S
C2299 C2295 1.393 . S
C2299 C2298 1.391 . S
H2300 C2308 0.950 . S
H2301 C2313 0.950 . S
H2302 C2310 0.950 . S
H2303 C2312 0.950 . S
H2304 C2314 0.950 . S
H2305 C2316 0.950 . S
H2306 C2318 0.950 . S
H2307 C2319 0.962 . S
C2308 H2300 0.950 . S
C2308 C2309 1.386 . S
C2308 C2310 1.391 . S
C2309 C2308 1.386 . S
C2309 C2313 1.393 . S
C2310 H2302 0.950 . S
C2310 C2308 1.391 . S
C2310 C2311 1.400 . S
C2311 C2310 1.400 . S
C2311 C2312 1.398 . S
C2311 C2317 1.491 . S
C2312 H2303 0.950 . S
C2312 C2311 1.398 . S
C2312 C2313 1.391 . S
C2313 H2301 0.950 . S
C2313 C2309 1.393 . S
C2313 C2312 1.391 . S
C2314 H2304 0.950 . S
C2314 C2315 1.355 1_655 S
C2314 C2316 1.391 . S
C2315 C2314 1.355 1_455 S
C2315 C2319 1.393 . S
C2316 H2305 0.950 . S
C2316 C2314 1.391 . S
C2316 C2317 1.400 . S
C2317 C2311 1.491 . S
C2317 C2316 1.400 . S
C2317 C2318 1.398 . S
C2318 H2306 0.950 . S
C2318 C2317 1.398 . S
C2318 C2319 1.378 1_655 S
C2319 H2307 0.962 . S
C2319 C2315 1.393 . S
C2319 C2318 1.378 1_455 S
H2320 C2328 0.950 . S
H2321 C2333 0.950 . S
H2322 C2330 0.950 . S
H2323 C2332 0.950 . S
H2324 C2334 0.950 . S
H2325 C2336 0.950 . S
H2326 C2338 0.950 . S
H2327 C2339 0.950 . S
C2328 H2320 0.950 . S
C2328 C2329 1.386 . S
C2328 C2330 1.391 . S
C2329 C2328 1.386 . S
C2329 C2333 1.393 . S
C2330 H2322 0.950 . S
C2330 C2328 1.391 . S
C2330 C2331 1.400 . S
C2331 C2330 1.400 . S
C2331 C2332 1.398 . S
C2331 C2337 1.491 . S
C2332 H2323 0.950 . S
C2332 C2331 1.398 . S
C2332 C2333 1.391 . S
C2333 H2321 0.950 . S
C2333 C2329 1.393 . S
C2333 C2332 1.391 . S
C2334 H2324 0.950 . S
C2334 C2335 1.386 . S
C2334 C2336 1.391 . S
C2335 C2334 1.386 . S
C2335 C2339 1.393 . S
C2336 H2325 0.950 . S
C2336 C2334 1.391 . S
C2336 C2337 1.400 . S
C2337 C2331 1.491 . S
C2337 C2336 1.400 . S
C2337 C2338 1.398 . S
C2338 H2326 0.950 . S
C2338 C2337 1.398 . S
C2338 C2339 1.391 . S
C2339 H2327 0.950 . S
C2339 C2335 1.393 . S
C2339 C2338 1.391 . S
H2340 C2348 0.950 . S
H2341 C2353 0.950 . S
H2342 C2350 0.950 . S
H2343 C2352 0.950 . S
H2344 C2354 0.950 . S
H2345 C2356 0.950 . S
H2346 C2358 0.950 . S
H2347 C2359 0.950 1_455 S
C2348 H2340 0.950 . S
C2348 C2349 1.386 . S
C2348 C2350 1.391 . S
C2349 C2348 1.386 . S
C2349 C2353 1.393 . S
C2350 H2342 0.950 . S
C2350 C2348 1.391 . S
C2350 C2351 1.400 . S
C2351 C2350 1.400 . S
C2351 C2352 1.398 . S
C2351 C2357 1.491 . S
C2352 H2343 0.950 . S
C2352 C2351 1.398 . S
C2352 C2353 1.391 . S
C2353 H2341 0.950 . S
C2353 C2349 1.393 . S
C2353 C2352 1.391 . S
C2354 H2344 0.950 . S
C2354 C2355 1.380 1_655 S
C2354 C2356 1.391 . S
C2355 C2354 1.380 1_455 S
C2355 C2359 1.392 1_455 S
C2356 H2345 0.950 . S
C2356 C2354 1.391 . S
C2356 C2357 1.400 . S
C2357 C2351 1.491 . S
C2357 C2356 1.400 . S
C2357 C2358 1.398 . S
C2358 H2346 0.950 . S
C2358 C2357 1.398 . S
C2358 C2359 1.391 . S
C2359 H2347 0.950 1_655 S
C2359 C2355 1.392 1_655 S
C2359 C2358 1.391 . S
H2360 C2368 0.950 . S
H2361 C2373 0.950 . S
H2362 C2370 0.950 . S
H2363 C2372 0.950 . S
H2364 C2374 0.950 . S
H2365 C2376 0.950 . S
H2366 C2378 0.950 . S
H2367 C2379 0.950 . S
C2368 H2360 0.950 . S
C2368 C2369 1.386 . S
C2368 C2370 1.391 . S
C2369 C2368 1.386 . S
C2369 C2373 1.393 . S
C2370 H2362 0.950 . S
C2370 C2368 1.391 . S
C2370 C2371 1.400 . S
C2371 C2370 1.400 . S
C2371 C2372 1.398 . S
C2371 C2377 1.491 . S
C2372 H2363 0.950 . S
C2372 C2371 1.398 . S
C2372 C2373 1.391 . S
C2373 H2361 0.950 . S
C2373 C2369 1.393 . S
C2373 C2372 1.391 . S
C2374 H2364 0.950 . S
C2374 C2375 1.386 . S
C2374 C2376 1.391 . S
C2375 C2374 1.386 . S
C2375 C2379 1.393 . S
C2376 H2365 0.950 . S
C2376 C2374 1.391 . S
C2376 C2377 1.400 . S
C2377 C2371 1.491 . S
C2377 C2376 1.400 . S
C2377 C2378 1.398 . S
C2378 H2366 0.950 . S
C2378 C2377 1.398 . S
C2378 C2379 1.391 . S
C2379 H2367 0.950 . S
C2379 C2375 1.393 . S
C2379 C2378 1.391 . S
H2380 C2388 0.950 . S
H2381 C2393 0.950 . S
H2382 C2390 0.950 . S
H2383 C2392 0.950 . S
H2384 C2394 0.950 . S
H2385 C2396 0.950 . S
H2386 C2398 0.950 . S
H2387 C2399 0.950 . S
C2388 H2380 0.950 . S
C2388 C2389 1.386 . S
C2388 C2390 1.391 . S
C2389 C2388 1.386 . S
C2389 C2393 1.393 . S
C2390 H2382 0.950 . S
C2390 C2388 1.391 . S
C2390 C2391 1.400 . S
C2391 C2390 1.400 . S
C2391 C2392 1.398 . S
C2391 C2397 1.491 . S
C2392 H2383 0.950 . S
C2392 C2391 1.398 . S
C2392 C2393 1.391 . S
C2393 H2381 0.950 . S
C2393 C2389 1.393 . S
C2393 C2392 1.391 . S
C2394 H2384 0.950 . S
C2394 C2395 1.386 . S
C2394 C2396 1.391 . S
C2395 C2394 1.386 . S
C2395 C2399 1.393 . S
C2396 H2385 0.950 . S
C2396 C2394 1.391 . S
C2396 C2397 1.400 . S
C2397 C2391 1.491 . S
C2397 C2396 1.400 . S
C2397 C2398 1.398 . S
C2398 H2386 0.950 . S
C2398 C2397 1.398 . S
C2398 C2399 1.391 . S
C2399 H2387 0.950 . S
C2399 C2395 1.393 . S
C2399 C2398 1.391 . S
H2400 C2408 0.950 . S
H2401 C2413 0.950 . S
H2402 C2410 0.950 . S
H2403 C2412 0.950 . S
H2404 C2414 0.950 . S
H2405 C2416 0.950 . S
H2406 C2418 0.950 . S
H2407 C2419 0.950 . S
C2408 H2400 0.950 . S
C2408 C2409 1.386 . S
C2408 C2410 1.391 . S
C2409 C2408 1.386 . S
C2409 C2413 1.393 . S
C2410 H2402 0.950 . S
C2410 C2408 1.391 . S
C2410 C2411 1.400 . S
C2411 C2410 1.400 . S
C2411 C2412 1.398 . S
C2411 C2417 1.491 . S
C2412 H2403 0.950 . S
C2412 C2411 1.398 . S
C2412 C2413 1.391 . S
C2413 H2401 0.950 . S
C2413 C2409 1.393 . S
C2413 C2412 1.391 . S
C2414 H2404 0.950 . S
C2414 C2415 1.386 . S
C2414 C2416 1.391 . S
C2415 C2414 1.386 . S
C2415 C2419 1.393 . S
C2416 H2405 0.950 . S
C2416 C2414 1.391 . S
C2416 C2417 1.400 . S
C2417 C2411 1.491 . S
C2417 C2416 1.400 . S
C2417 C2418 1.398 . S
C2418 H2406 0.950 . S
C2418 C2417 1.398 . S
C2418 C2419 1.391 . S
C2419 H2407 0.950 . S
C2419 C2415 1.393 . S
C2419 C2418 1.391 . S
H2420 C2428 0.950 . S
H2421 C2433 0.950 . S
H2422 C2430 0.950 . S
H2423 C2432 0.950 . S
H2424 C2434 0.950 . S
H2425 C2436 0.950 . S
H2426 C2438 0.950 . S
H2427 C2439 0.950 . S
C2428 H2420 0.950 . S
C2428 C2429 1.386 . S
C2428 C2430 1.391 . S
C2429 C2428 1.386 . S
C2429 C2433 1.393 . S
C2430 H2422 0.950 . S
C2430 C2428 1.391 . S
C2430 C2431 1.400 . S
C2431 C2430 1.400 . S
C2431 C2432 1.398 . S
C2431 C2437 1.491 . S
C2432 H2423 0.950 . S
C2432 C2431 1.398 . S
C2432 C2433 1.391 . S
C2433 H2421 0.950 . S
C2433 C2429 1.393 . S
C2433 C2432 1.391 . S
C2434 H2424 0.950 . S
C2434 C2435 1.386 . S
C2434 C2436 1.391 . S
C2435 C2434 1.386 . S
C2435 C2439 1.393 . S
C2436 H2425 0.950 . S
C2436 C2434 1.391 . S
C2436 C2437 1.400 . S
C2437 C2431 1.491 . S
C2437 C2436 1.400 . S
C2437 C2438 1.398 . S
C2438 H2426 0.950 . S
C2438 C2437 1.398 . S
C2438 C2439 1.391 . S
C2439 H2427 0.950 . S
C2439 C2435 1.393 . S
C2439 C2438 1.391 . S
H2440 C2448 0.950 . S
H2441 C2453 0.950 . S
H2442 C2450 0.950 . S
H2443 C2452 0.950 . S
H2444 C2454 0.950 . S
H2445 C2456 0.950 . S
H2446 C2458 0.950 . S
H2447 C2459 0.950 . S
C2448 H2440 0.950 . S
C2448 C2449 1.386 . S
C2448 C2450 1.391 . S
C2449 C2448 1.386 . S
C2449 C2453 1.393 . S
C2450 H2442 0.950 . S
C2450 C2448 1.391 . S
C2450 C2451 1.400 . S
C2451 C2450 1.400 . S
C2451 C2452 1.398 . S
C2451 C2457 1.491 . S
C2452 H2443 0.950 . S
C2452 C2451 1.398 . S
C2452 C2453 1.391 . S
C2453 H2441 0.950 . S
C2453 C2449 1.393 . S
C2453 C2452 1.391 . S
C2454 H2444 0.950 . S
C2454 C2455 1.386 . S
C2454 C2456 1.391 . S
C2455 C2454 1.386 . S
C2455 C2459 1.393 . S
C2456 H2445 0.950 . S
C2456 C2454 1.391 . S
C2456 C2457 1.400 . S
C2457 C2451 1.491 . S
C2457 C2456 1.400 . S
C2457 C2458 1.398 . S
C2458 H2446 0.950 . S
C2458 C2457 1.398 . S
C2458 C2459 1.391 . S
C2459 H2447 0.950 . S
C2459 C2455 1.393 . S
C2459 C2458 1.391 . S
H2460 C2468 0.950 . S
H2461 C2473 0.961 . S
H2462 C2470 0.950 . S
H2463 C2472 0.950 . S
H2464 C2474 0.950 . S
H2465 C2476 0.950 . S
H2466 C2478 0.950 . S
H2467 C2479 0.950 . S
C2468 H2460 0.950 . S
C2468 C2469 1.364 1_455 S
C2468 C2470 1.391 . S
C2469 C2468 1.364 1_655 S
C2469 C2473 1.375 1_655 S
C2470 H2462 0.950 . S
C2470 C2468 1.391 . S
C2470 C2471 1.400 . S
C2471 C2470 1.400 . S
C2471 C2472 1.398 . S
C2471 C2477 1.491 . S
C2472 H2463 0.950 . S
C2472 C2471 1.398 . S
C2472 C2473 1.391 . S
C2473 H2461 0.961 . S
C2473 C2469 1.375 1_455 S
C2473 C2472 1.391 . S
C2474 H2464 0.950 . S
C2474 C2475 1.386 . S
C2474 C2476 1.391 . S
C2475 C2474 1.386 . S
C2475 C2479 1.393 . S
C2476 H2465 0.950 . S
C2476 C2474 1.391 . S
C2476 C2477 1.400 . S
C2477 C2471 1.491 . S
C2477 C2476 1.400 . S
C2477 C2478 1.398 . S
C2478 H2466 0.950 . S
C2478 C2477 1.398 . S
C2478 C2479 1.391 . S
C2479 H2467 0.950 . S
C2479 C2475 1.393 . S
C2479 C2478 1.391 . S
H2480 C2488 0.950 . S
H2481 C2493 0.950 . S
H2482 C2490 0.950 . S
H2483 C2492 0.950 . S
H2484 C2494 0.950 . S
H2485 C2496 0.950 . S
H2486 C2498 0.950 . S
H2487 C2499 0.950 . S
C2488 H2480 0.950 . S
C2488 C2489 1.386 . S
C2488 C2490 1.391 . S
C2489 C2488 1.386 . S
C2489 C2493 1.393 . S
C2490 H2482 0.950 . S
C2490 C2488 1.391 . S
C2490 C2491 1.400 . S
C2491 C2490 1.400 . S
C2491 C2492 1.398 . S
C2491 C2497 1.491 . S
C2492 H2483 0.950 . S
C2492 C2491 1.398 . S
C2492 C2493 1.391 . S
C2493 H2481 0.950 . S
C2493 C2489 1.393 . S
C2493 C2492 1.391 . S
C2494 H2484 0.950 . S
C2494 C2495 1.386 . S
C2494 C2496 1.391 . S
C2495 C2494 1.386 . S
C2495 C2499 1.393 . S
C2496 H2485 0.950 . S
C2496 C2494 1.391 . S
C2496 C2497 1.400 . S
C2497 C2491 1.491 . S
C2497 C2496 1.400 . S
C2497 C2498 1.398 . S
C2498 H2486 0.950 . S
C2498 C2497 1.398 . S
C2498 C2499 1.391 . S
C2499 H2487 0.950 . S
C2499 C2495 1.393 . S
C2499 C2498 1.391 . S
H2500 C2508 0.950 . S
H2501 C2513 0.950 . S
H2502 C2510 0.950 . S
H2503 C2512 0.950 . S
H2504 C2514 0.950 . S
H2505 C2516 0.950 . S
H2506 C2518 0.950 . S
H2507 C2519 0.917 1_655 S
C2508 H2500 0.950 . S
C2508 C2509 1.386 . S
C2508 C2510 1.391 . S
C2509 C2508 1.386 . S
C2509 C2513 1.393 . S
C2510 H2502 0.950 . S
C2510 C2508 1.391 . S
C2510 C2511 1.400 . S
C2511 C2510 1.400 . S
C2511 C2512 1.398 . S
C2511 C2517 1.491 . S
C2512 H2503 0.950 . S
C2512 C2511 1.398 . S
C2512 C2513 1.391 . S
C2513 H2501 0.950 . S
C2513 C2509 1.393 . S
C2513 C2512 1.391 . S
C2514 H2504 0.950 . S
C2514 C2515 1.353 1_455 S
C2514 C2516 1.391 . S
C2515 C2514 1.353 1_655 S
C2515 C2519 1.389 1_655 S
C2516 H2505 0.950 . S
C2516 C2514 1.391 . S
C2516 C2517 1.400 . S
C2517 C2511 1.491 . S
C2517 C2516 1.400 . S
C2517 C2518 1.398 . S
C2518 H2506 0.950 . S
C2518 C2517 1.398 . S
C2518 C2519 1.426 . S
C2519 H2507 0.917 1_455 S
C2519 C2515 1.389 1_455 S
C2519 C2518 1.426 . S
H2520 C2528 0.950 . S
H2521 C2533 0.950 . S
H2522 C2530 0.950 . S
H2523 C2532 0.950 . S
H2524 C2534 0.950 . S
H2525 C2536 0.950 . S
H2526 C2538 0.950 . S
H2527 C2539 0.950 . S
C2528 H2520 0.950 . S
C2528 C2529 1.386 . S
C2528 C2530 1.391 . S
C2529 C2528 1.386 . S
C2529 C2533 1.393 . S
C2530 H2522 0.950 . S
C2530 C2528 1.391 . S
C2530 C2531 1.400 . S
C2531 C2530 1.400 . S
C2531 C2532 1.398 . S
C2531 C2537 1.491 . S
C2532 H2523 0.950 . S
C2532 C2531 1.398 . S
C2532 C2533 1.391 . S
C2533 H2521 0.950 . S
C2533 C2529 1.393 . S
C2533 C2532 1.391 . S
C2534 H2524 0.950 . S
C2534 C2535 1.386 . S
C2534 C2536 1.391 . S
C2535 C2534 1.386 . S
C2535 C2539 1.393 . S
C2536 H2525 0.950 . S
C2536 C2534 1.391 . S
C2536 C2537 1.400 . S
C2537 C2531 1.491 . S
C2537 C2536 1.400 . S
C2537 C2538 1.398 . S
C2538 H2526 0.950 . S
C2538 C2537 1.398 . S
C2538 C2539 1.391 . S
C2539 H2527 0.950 . S
C2539 C2535 1.393 . S
C2539 C2538 1.391 . S
H2540 C2548 0.950 . S
H2541 C2553 0.950 . S
H2542 C2550 0.950 . S
H2543 C2552 0.950 . S
H2544 C2554 0.950 . S
H2545 C2556 0.950 . S
H2546 C2558 0.950 . S
H2547 C2559 0.950 . S
C2548 H2540 0.950 . S
C2548 C2549 1.386 . S
C2548 C2550 1.391 . S
C2549 C2548 1.386 . S
C2549 C2553 1.393 . S
C2550 H2542 0.950 . S
C2550 C2548 1.391 . S
C2550 C2551 1.400 . S
C2551 C2550 1.400 . S
C2551 C2552 1.398 . S
C2551 C2557 1.491 . S
C2552 H2543 0.950 . S
C2552 C2551 1.398 . S
C2552 C2553 1.391 . S
C2553 H2541 0.950 . S
C2553 C2549 1.393 . S
C2553 C2552 1.391 . S
C2554 H2544 0.950 . S
C2554 C2555 1.386 . S
C2554 C2556 1.391 . S
C2555 C2554 1.386 . S
C2555 C2559 1.393 . S
C2556 H2545 0.950 . S
C2556 C2554 1.391 . S
C2556 C2557 1.400 . S
C2557 C2551 1.491 . S
C2557 C2556 1.400 . S
C2557 C2558 1.398 . S
C2558 H2546 0.950 . S
C2558 C2557 1.398 . S
C2558 C2559 1.391 . S
C2559 H2547 0.950 . S
C2559 C2555 1.393 . S
C2559 C2558 1.391 . S
H2560 C2568 0.950 . S
H2561 C2573 0.950 . S
H2562 C2570 0.950 . S
H2563 C2572 0.950 . S
H2564 C2574 0.950 . S
H2565 C2576 0.950 . S
H2566 C2578 0.950 . S
H2567 C2579 0.950 . S
C2568 H2560 0.950 . S
C2568 C2569 1.386 . S
C2568 C2570 1.391 . S
C2569 C2568 1.386 . S
C2569 C2573 1.393 . S
C2570 H2562 0.950 . S
C2570 C2568 1.391 . S
C2570 C2571 1.400 . S
C2571 C2570 1.400 . S
C2571 C2572 1.398 . S
C2571 C2577 1.491 1_545 S
C2572 H2563 0.950 . S
C2572 C2571 1.398 . S
C2572 C2573 1.391 . S
C2573 H2561 0.950 . S
C2573 C2569 1.393 . S
C2573 C2572 1.391 . S
C2574 H2564 0.950 . S
C2574 C2575 1.386 . S
C2574 C2576 1.391 . S
C2575 C2574 1.386 . S
C2575 C2579 1.393 . S
C2576 H2565 0.950 . S
C2576 C2574 1.391 . S
C2576 C2577 1.400 . S
C2577 C2571 1.491 1_565 S
C2577 C2576 1.400 . S
C2577 C2578 1.398 . S
C2578 H2566 0.950 . S
C2578 C2577 1.398 . S
C2578 C2579 1.391 . S
C2579 H2567 0.950 . S
C2579 C2575 1.393 . S
C2579 C2578 1.391 . S
H2580 C2588 0.950 . S
H2581 C2593 0.950 . S
H2582 C2590 0.950 . S
H2583 C2592 0.950 . S
H2584 C2594 0.950 . S
H2585 C2596 0.950 . S
H2586 C2598 0.950 . S
H2587 C2599 0.950 . S
C2588 H2580 0.950 . S
C2588 C2589 1.386 . S
C2588 C2590 1.391 . S
C2589 C2588 1.386 . S
C2589 C2593 1.393 . S
C2590 H2582 0.950 . S
C2590 C2588 1.391 . S
C2590 C2591 1.400 . S
C2591 C2590 1.400 . S
C2591 C2592 1.398 . S
C2591 C2597 1.491 . S
C2592 H2583 0.950 . S
C2592 C2591 1.398 . S
C2592 C2593 1.391 . S
C2593 H2581 0.950 . S
C2593 C2589 1.393 . S
C2593 C2592 1.391 . S
C2594 H2584 0.950 . S
C2594 C2595 1.386 . S
C2594 C2596 1.391 . S
C2595 C2594 1.386 . S
C2595 C2599 1.393 . S
C2596 H2585 0.950 . S
C2596 C2594 1.391 . S
C2596 C2597 1.400 . S
C2597 C2591 1.491 . S
C2597 C2596 1.400 . S
C2597 C2598 1.398 . S
C2598 H2586 0.950 . S
C2598 C2597 1.398 . S
C2598 C2599 1.391 . S
C2599 H2587 0.950 . S
C2599 C2595 1.393 . S
C2599 C2598 1.391 . S
H2600 C2608 0.950 . S
H2601 C2613 0.950 . S
H2602 C2610 0.950 . S
H2603 C2612 0.950 . S
H2604 C2614 0.950 . S
H2605 C2616 0.950 . S
H2606 C2618 0.950 . S
H2607 C2619 0.950 . S
C2608 H2600 0.950 . S
C2608 C2609 1.386 . S
C2608 C2610 1.391 . S
C2609 C2608 1.386 . S
C2609 C2613 1.393 . S
C2610 H2602 0.950 . S
C2610 C2608 1.391 . S
C2610 C2611 1.400 . S
C2611 C2610 1.400 . S
C2611 C2612 1.398 . S
C2611 C2617 1.491 1_565 S
C2612 H2603 0.950 . S
C2612 C2611 1.398 . S
C2612 C2613 1.391 . S
C2613 H2601 0.950 . S
C2613 C2609 1.393 . S
C2613 C2612 1.391 . S
C2614 H2604 0.950 . S
C2614 C2615 1.386 . S
C2614 C2616 1.391 . S
C2615 C2614 1.386 . S
C2615 C2619 1.393 . S
C2616 H2605 0.950 . S
C2616 C2614 1.391 . S
C2616 C2617 1.400 . S
C2617 C2611 1.491 1_545 S
C2617 C2616 1.400 . S
C2617 C2618 1.398 . S
C2618 H2606 0.950 . S
C2618 C2617 1.398 . S
C2618 C2619 1.391 . S
C2619 H2607 0.950 . S
C2619 C2615 1.393 . S
C2619 C2618 1.391 . S
H2620 C2628 0.950 . S
H2621 C2633 0.950 . S
H2622 C2630 0.950 . S
H2623 C2632 0.950 . S
H2624 C2634 0.950 . S
H2625 C2636 0.950 . S
H2626 C2638 0.950 . S
H2627 C2639 0.950 . S
C2628 H2620 0.950 . S
C2628 C2629 1.386 . S
C2628 C2630 1.391 . S
C2629 C2628 1.386 . S
C2629 C2633 1.393 1_556 S
C2630 H2622 0.950 . S
C2630 C2628 1.391 . S
C2630 C2631 1.412 . S
C2631 C2630 1.412 . S
C2631 C2632 1.388 1_556 S
C2631 C2637 1.490 1_556 S
C2632 H2623 0.950 . S
C2632 C2631 1.388 1_554 S
C2632 C2633 1.391 . S
C2633 H2621 0.950 . S
C2633 C2629 1.393 1_554 S
C2633 C2632 1.391 . S
C2634 H2624 0.950 . S
C2634 C2635 1.386 . S
C2634 C2636 1.391 . S
C2635 C2634 1.386 . S
C2635 C2639 1.393 1_554 S
C2636 H2625 0.950 . S
C2636 C2634 1.391 . S
C2636 C2637 1.412 . S
C2637 C2631 1.490 1_554 S
C2637 C2636 1.412 . S
C2637 C2638 1.388 1_554 S
C2638 H2626 0.950 . S
C2638 C2637 1.388 1_556 S
C2638 C2639 1.391 . S
C2639 H2627 0.950 . S
C2639 C2635 1.393 1_556 S
C2639 C2638 1.391 . S
H2640 C2648 0.950 . S
H2641 C2653 0.950 . S
H2642 C2650 0.950 . S
H2643 C2652 0.950 . S
H2644 C2654 0.950 . S
H2645 C2656 0.950 . S
H2646 C2658 0.950 . S
H2647 C2659 0.950 . S
C2648 H2640 0.950 . S
C2648 C2649 1.386 . S
C2648 C2650 1.391 . S
C2649 C2648 1.386 . S
C2649 C2653 1.393 . S
C2650 H2642 0.950 . S
C2650 C2648 1.391 . S
C2650 C2651 1.400 . S
C2651 C2650 1.400 . S
C2651 C2652 1.398 . S
C2651 C2657 1.491 1_545 S
C2652 H2643 0.950 . S
C2652 C2651 1.398 . S
C2652 C2653 1.391 . S
C2653 H2641 0.950 . S
C2653 C2649 1.393 . S
C2653 C2652 1.391 . S
C2654 H2644 0.950 . S
C2654 C2655 1.386 . S
C2654 C2656 1.391 . S
C2655 C2654 1.386 . S
C2655 C2659 1.393 . S
C2656 H2645 0.950 . S
C2656 C2654 1.391 . S
C2656 C2657 1.400 . S
C2657 C2651 1.491 1_565 S
C2657 C2656 1.400 . S
C2657 C2658 1.398 . S
C2658 H2646 0.950 . S
C2658 C2657 1.398 . S
C2658 C2659 1.391 . S
C2659 H2647 0.950 . S
C2659 C2655 1.393 . S
C2659 C2658 1.391 . S
H2660 C2668 0.950 . S
H2661 C2673 0.950 . S
H2662 C2670 0.950 . S
H2663 C2672 0.950 . S
H2664 C2674 0.950 . S
H2665 C2676 0.950 . S
H2666 C2678 0.950 . S
H2667 C2679 0.950 . S
C2668 H2660 0.950 . S
C2668 C2669 1.386 . S
C2668 C2670 1.391 . S
C2669 C2668 1.386 . S
C2669 C2673 1.393 . S
C2670 H2662 0.950 . S
C2670 C2668 1.391 . S
C2670 C2671 1.400 . S
C2671 C2670 1.400 . S
C2671 C2672 1.398 . S
C2671 C2677 1.491 . S
C2672 H2663 0.950 . S
C2672 C2671 1.398 . S
C2672 C2673 1.391 . S
C2673 H2661 0.950 . S
C2673 C2669 1.393 . S
C2673 C2672 1.391 . S
C2674 H2664 0.950 . S
C2674 C2675 1.386 . S
C2674 C2676 1.391 . S
C2675 C2674 1.386 . S
C2675 C2679 1.393 . S
C2676 H2665 0.950 . S
C2676 C2674 1.391 . S
C2676 C2677 1.400 . S
C2677 C2671 1.491 . S
C2677 C2676 1.400 . S
C2677 C2678 1.398 . S
C2678 H2666 0.950 . S
C2678 C2677 1.398 . S
C2678 C2679 1.391 . S
C2679 H2667 0.950 . S
C2679 C2675 1.393 . S
C2679 C2678 1.391 . S
H2680 C2688 0.950 . S
H2681 C2693 0.950 . S
H2682 C2690 0.950 . S
H2683 C2692 0.950 . S
H2684 C2694 0.950 . S
H2685 C2696 0.950 . S
H2686 C2698 0.950 . S
H2687 C2699 0.950 . S
C2688 H2680 0.950 . S
C2688 C2689 1.386 . S
C2688 C2690 1.391 . S
C2689 C2688 1.386 . S
C2689 C2693 1.393 . S
C2690 H2682 0.950 . S
C2690 C2688 1.391 . S
C2690 C2691 1.400 . S
C2691 C2690 1.400 . S
C2691 C2692 1.398 . S
C2691 C2697 1.491 1_545 S
C2692 H2683 0.950 . S
C2692 C2691 1.398 . S
C2692 C2693 1.391 . S
C2693 H2681 0.950 . S
C2693 C2689 1.393 . S
C2693 C2692 1.391 . S
C2694 H2684 0.950 . S
C2694 C2695 1.386 . S
C2694 C2696 1.391 . S
C2695 C2694 1.386 . S
C2695 C2699 1.393 . S
C2696 H2685 0.950 . S
C2696 C2694 1.391 . S
C2696 C2697 1.400 . S
C2697 C2691 1.491 1_565 S
C2697 C2696 1.400 . S
C2697 C2698 1.398 . S
C2698 H2686 0.950 . S
C2698 C2697 1.398 . S
C2698 C2699 1.391 . S
C2699 H2687 0.950 . S
C2699 C2695 1.393 . S
C2699 C2698 1.391 . S
H2700 C2708 0.950 . S
H2701 C2713 0.950 . S
H2702 C2710 0.950 . S
H2703 C2712 0.950 . S
H2704 C2714 0.950 . S
H2705 C2716 0.950 . S
H2706 C2718 0.950 . S
H2707 C2719 0.950 . S
C2708 H2700 0.950 . S
C2708 C2709 1.386 . S
C2708 C2710 1.391 . S
C2709 C2708 1.386 . S
C2709 C2713 1.393 1_556 S
C2710 H2702 0.950 . S
C2710 C2708 1.391 . S
C2710 C2711 1.412 . S
C2711 C2710 1.412 . S
C2711 C2712 1.387 1_556 S
C2711 C2717 1.490 1_556 S
C2712 H2703 0.950 . S
C2712 C2711 1.387 1_554 S
C2712 C2713 1.391 . S
C2713 H2701 0.950 . S
C2713 C2709 1.393 1_554 S
C2713 C2712 1.391 . S
C2714 H2704 0.950 . S
C2714 C2715 1.386 . S
C2714 C2716 1.391 . S
C2715 C2714 1.386 . S
C2715 C2719 1.393 1_554 S
C2716 H2705 0.950 . S
C2716 C2714 1.391 . S
C2716 C2717 1.412 . S
C2717 C2711 1.490 1_554 S
C2717 C2716 1.412 . S
C2717 C2718 1.387 1_554 S
C2718 H2706 0.950 . S
C2718 C2717 1.387 1_556 S
C2718 C2719 1.391 . S
C2719 H2707 0.950 . S
C2719 C2715 1.393 1_556 S
C2719 C2718 1.391 . S
H2720 C2728 0.950 . S
H2721 C2733 0.950 . S
H2722 C2730 0.950 . S
H2723 C2732 0.950 . S
H2724 C2734 0.950 . S
H2725 C2736 0.950 . S
H2726 C2738 0.950 . S
H2727 C2739 0.950 . S
C2728 H2720 0.950 . S
C2728 C2729 1.386 . S
C2728 C2730 1.391 . S
C2729 C2728 1.386 . S
C2729 C2733 1.393 . S
C2730 H2722 0.950 . S
C2730 C2728 1.391 . S
C2730 C2731 1.400 . S
C2731 C2730 1.400 . S
C2731 C2732 1.398 . S
C2731 C2737 1.491 . S
C2732 H2723 0.950 . S
C2732 C2731 1.398 . S
C2732 C2733 1.391 . S
C2733 H2721 0.950 . S
C2733 C2729 1.393 . S
C2733 C2732 1.391 . S
C2734 H2724 0.950 . S
C2734 C2735 1.386 . S
C2734 C2736 1.391 . S
C2735 C2734 1.386 . S
C2735 C2739 1.393 . S
C2736 H2725 0.950 . S
C2736 C2734 1.391 . S
C2736 C2737 1.400 . S
C2737 C2731 1.491 . S
C2737 C2736 1.400 . S
C2737 C2738 1.398 . S
C2738 H2726 0.950 . S
C2738 C2737 1.398 . S
C2738 C2739 1.391 . S
C2739 H2727 0.950 . S
C2739 C2735 1.393 . S
C2739 C2738 1.391 . S
H2740 C2748 0.950 . S
H2741 C2753 0.950 . S
H2742 C2750 0.950 . S
H2743 C2752 0.950 . S
H2744 C2754 0.950 . S
H2745 C2756 0.950 . S
H2746 C2758 0.950 . S
H2747 C2759 0.950 . S
C2748 H2740 0.950 . S
C2748 C2749 1.386 . S
C2748 C2750 1.391 . S
C2749 C2748 1.386 . S
C2749 C2753 1.393 1_556 S
C2750 H2742 0.950 . S
C2750 C2748 1.391 . S
C2750 C2751 1.436 . S
C2751 C2750 1.436 . S
C2751 C2752 1.366 1_556 S
C2751 C2757 1.488 1_556 S
C2752 H2743 0.950 . S
C2752 C2751 1.366 1_554 S
C2752 C2753 1.391 . S
C2753 H2741 0.950 . S
C2753 C2749 1.393 1_554 S
C2753 C2752 1.391 . S
C2754 H2744 0.950 . S
C2754 C2755 1.386 . S
C2754 C2756 1.391 . S
C2755 C2754 1.386 . S
C2755 C2759 1.393 1_554 S
C2756 H2745 0.950 . S
C2756 C2754 1.391 . S
C2756 C2757 1.436 . S
C2757 C2751 1.488 1_554 S
C2757 C2756 1.436 . S
C2757 C2758 1.366 1_554 S
C2758 H2746 0.950 . S
C2758 C2757 1.366 1_556 S
C2758 C2759 1.391 . S
C2759 H2747 0.950 . S
C2759 C2755 1.393 1_556 S
C2759 C2758 1.391 . S
H2760 C2768 0.950 . S
H2761 C2773 0.950 . S
H2762 C2770 0.950 . S
H2763 C2772 0.950 . S
H2764 C2774 0.950 . S
H2765 C2776 0.950 . S
H2766 C2778 0.950 . S
H2767 C2779 0.950 . S
C2768 H2760 0.950 . S
C2768 C2769 1.386 . S
C2768 C2770 1.391 . S
C2769 C2768 1.386 . S
C2769 C2773 1.393 . S
C2770 H2762 0.950 . S
C2770 C2768 1.391 . S
C2770 C2771 1.400 . S
C2771 C2770 1.400 . S
C2771 C2772 1.398 . S
C2771 C2777 1.491 . S
C2772 H2763 0.950 . S
C2772 C2771 1.398 . S
C2772 C2773 1.391 . S
C2773 H2761 0.950 . S
C2773 C2769 1.393 . S
C2773 C2772 1.391 . S
C2774 H2764 0.950 . S
C2774 C2775 1.386 . S
C2774 C2776 1.391 . S
C2775 C2774 1.386 . S
C2775 C2779 1.393 . S
C2776 H2765 0.950 . S
C2776 C2774 1.391 . S
C2776 C2777 1.400 . S
C2777 C2771 1.491 . S
C2777 C2776 1.400 . S
C2777 C2778 1.398 . S
C2778 H2766 0.950 . S
C2778 C2777 1.398 . S
C2778 C2779 1.391 . S
C2779 H2767 0.950 . S
C2779 C2775 1.393 . S
C2779 C2778 1.391 . S
H2780 C2788 0.950 . S
H2781 C2793 0.950 . S
H2782 C2790 0.950 . S
H2783 C2792 0.950 . S
H2784 C2794 0.950 . S
H2785 C2796 0.950 . S
H2786 C2798 0.950 . S
H2787 C2799 0.950 . S
C2788 H2780 0.950 . S
C2788 C2789 1.386 . S
C2788 C2790 1.391 . S
C2789 C2788 1.386 . S
C2789 C2793 1.393 . S
C2790 H2782 0.950 . S
C2790 C2788 1.391 . S
C2790 C2791 1.400 . S
C2791 C2790 1.400 . S
C2791 C2792 1.398 . S
C2791 C2797 1.491 . S
C2792 H2783 0.950 . S
C2792 C2791 1.398 . S
C2792 C2793 1.391 . S
C2793 H2781 0.950 . S
C2793 C2789 1.393 . S
C2793 C2792 1.391 . S
C2794 H2784 0.950 . S
C2794 C2795 1.386 . S
C2794 C2796 1.391 . S
C2795 C2794 1.386 . S
C2795 C2799 1.393 . S
C2796 H2785 0.950 . S
C2796 C2794 1.391 . S
C2796 C2797 1.400 . S
C2797 C2791 1.491 . S
C2797 C2796 1.400 . S
C2797 C2798 1.398 . S
C2798 H2786 0.950 . S
C2798 C2797 1.398 . S
C2798 C2799 1.391 . S
C2799 H2787 0.950 . S
C2799 C2795 1.393 . S
C2799 C2798 1.391 . S
H2800 C2808 0.950 . S
H2801 C2813 0.950 . S
H2802 C2810 0.950 . S
H2803 C2812 0.950 . S
H2804 C2814 0.950 . S
H2805 C2816 0.950 . S
H2806 C2818 0.950 . S
H2807 C2819 0.950 . S
C2808 H2800 0.950 . S
C2808 C2809 1.386 . S
C2808 C2810 1.391 . S
C2809 C2808 1.386 . S
C2809 C2813 1.393 . S
C2810 H2802 0.950 . S
C2810 C2808 1.391 . S
C2810 C2811 1.400 . S
C2811 C2810 1.400 . S
C2811 C2812 1.398 . S
C2811 C2817 1.491 . S
C2812 H2803 0.950 . S
C2812 C2811 1.398 . S
C2812 C2813 1.391 . S
C2813 H2801 0.950 . S
C2813 C2809 1.393 . S
C2813 C2812 1.391 . S
C2814 H2804 0.950 . S
C2814 C2815 1.386 . S
C2814 C2816 1.391 . S
C2815 C2814 1.386 . S
C2815 C2819 1.393 . S
C2816 H2805 0.950 . S
C2816 C2814 1.391 . S
C2816 C2817 1.400 . S
C2817 C2811 1.491 . S
C2817 C2816 1.400 . S
C2817 C2818 1.398 . S
C2818 H2806 0.950 . S
C2818 C2817 1.398 . S
C2818 C2819 1.391 . S
C2819 H2807 0.950 . S
C2819 C2815 1.393 . S
C2819 C2818 1.391 . S
H2820 C2828 0.950 . S
H2821 C2833 0.950 . S
H2822 C2830 0.950 . S
H2823 C2832 0.950 . S
H2824 C2834 0.950 . S
H2825 C2836 0.950 . S
H2826 C2838 0.950 . S
H2827 C2839 0.950 . S
C2828 H2820 0.950 . S
C2828 C2829 1.386 . S
C2828 C2830 1.391 . S
C2829 C2828 1.386 . S
C2829 C2833 1.393 1_556 S
C2830 H2822 0.950 . S
C2830 C2828 1.391 . S
C2830 C2831 1.436 . S
C2831 C2830 1.436 . S
C2831 C2832 1.366 1_556 S
C2831 C2837 1.488 1_556 S
C2832 H2823 0.950 . S
C2832 C2831 1.366 1_554 S
C2832 C2833 1.391 . S
C2833 H2821 0.950 . S
C2833 C2829 1.393 1_554 S
C2833 C2832 1.391 . S
C2834 H2824 0.950 . S
C2834 C2835 1.386 . S
C2834 C2836 1.391 . S
C2835 C2834 1.386 . S
C2835 C2839 1.393 1_554 S
C2836 H2825 0.950 . S
C2836 C2834 1.391 . S
C2836 C2837 1.436 . S
C2837 C2831 1.488 1_554 S
C2837 C2836 1.436 . S
C2837 C2838 1.366 1_554 S
C2838 H2826 0.950 . S
C2838 C2837 1.366 1_556 S
C2838 C2839 1.391 . S
C2839 H2827 0.950 . S
C2839 C2835 1.393 1_556 S
C2839 C2838 1.391 . S
H2840 C2848 0.950 . S
H2841 C2853 0.950 . S
H2842 C2850 0.950 . S
H2843 C2852 0.950 . S
H2844 C2854 0.950 . S
H2845 C2856 0.950 . S
H2846 C2858 0.950 . S
H2847 C2859 0.950 . S
C2848 H2840 0.950 . S
C2848 C2849 1.386 . S
C2848 C2850 1.391 . S
C2849 C2848 1.386 . S
C2849 C2853 1.393 . S
C2850 H2842 0.950 . S
C2850 C2848 1.391 . S
C2850 C2851 1.400 . S
C2851 C2850 1.400 . S
C2851 C2852 1.398 . S
C2851 C2857 1.491 . S
C2852 H2843 0.950 . S
C2852 C2851 1.398 . S
C2852 C2853 1.391 . S
C2853 H2841 0.950 . S
C2853 C2849 1.393 . S
C2853 C2852 1.391 . S
C2854 H2844 0.950 . S
C2854 C2855 1.386 . S
C2854 C2856 1.391 . S
C2855 C2854 1.386 . S
C2855 C2859 1.393 . S
C2856 H2845 0.950 . S
C2856 C2854 1.391 . S
C2856 C2857 1.400 . S
C2857 C2851 1.491 . S
C2857 C2856 1.400 . S
C2857 C2858 1.398 . S
C2858 H2846 0.950 . S
C2858 C2857 1.398 . S
C2858 C2859 1.391 . S
C2859 H2847 0.950 . S
C2859 C2855 1.393 . S
C2859 C2858 1.391 . S
H2860 C2868 0.950 . S
H2861 C2873 0.950 . S
H2862 C2870 0.950 . S
H2863 C2872 0.950 . S
H2864 C2874 0.950 . S
H2865 C2876 0.950 . S
H2866 C2878 0.950 . S
H2867 C2879 0.950 . S
C2868 H2860 0.950 . S
C2868 C2869 1.386 . S
C2868 C2870 1.391 . S
C2869 C2868 1.386 . S
C2869 C2873 1.393 . S
C2870 H2862 0.950 . S
C2870 C2868 1.391 . S
C2870 C2871 1.400 . S
C2871 C2870 1.400 . S
C2871 C2872 1.398 . S
C2871 C2877 1.491 . S
C2872 H2863 0.950 . S
C2872 C2871 1.398 . S
C2872 C2873 1.391 . S
C2873 H2861 0.950 . S
C2873 C2869 1.393 . S
C2873 C2872 1.391 . S
C2874 H2864 0.950 . S
C2874 C2875 1.386 . S
C2874 C2876 1.391 . S
C2875 C2874 1.386 . S
C2875 C2879 1.393 . S
C2876 H2865 0.950 . S
C2876 C2874 1.391 . S
C2876 C2877 1.400 . S
C2877 C2871 1.491 . S
C2877 C2876 1.400 . S
C2877 C2878 1.398 . S
C2878 H2866 0.950 . S
C2878 C2877 1.398 . S
C2878 C2879 1.391 . S
C2879 H2867 0.950 . S
C2879 C2875 1.393 . S
C2879 C2878 1.391 . S
H2880 C2888 0.950 . S
H2881 C2893 0.950 . S
H2882 C2890 0.950 . S
H2883 C2892 0.950 . S
H2884 C2894 0.950 . S
H2885 C2896 0.950 . S
H2886 C2898 0.950 . S
H2887 C2899 0.950 . S
C2888 H2880 0.950 . S
C2888 C2889 1.386 . S
C2888 C2890 1.391 . S
C2889 C2888 1.386 . S
C2889 C2893 1.393 . S
C2890 H2882 0.950 . S
C2890 C2888 1.391 . S
C2890 C2891 1.400 . S
C2891 C2890 1.400 . S
C2891 C2892 1.398 . S
C2891 C2897 1.491 . S
C2892 H2883 0.950 . S
C2892 C2891 1.398 . S
C2892 C2893 1.391 . S
C2893 H2881 0.950 . S
C2893 C2889 1.393 . S
C2893 C2892 1.391 . S
C2894 H2884 0.950 . S
C2894 C2895 1.386 . S
C2894 C2896 1.391 . S
C2895 C2894 1.386 . S
C2895 C2899 1.393 . S
C2896 H2885 0.950 . S
C2896 C2894 1.391 . S
C2896 C2897 1.400 . S
C2897 C2891 1.491 . S
C2897 C2896 1.400 . S
C2897 C2898 1.398 . S
C2898 H2886 0.950 . S
C2898 C2897 1.398 . S
C2898 C2899 1.391 . S
C2899 H2887 0.950 . S
C2899 C2895 1.393 . S
C2899 C2898 1.391 . S
H2900 C2908 0.950 . S
H2901 C2913 0.950 . S
H2902 C2910 0.950 . S
H2903 C2912 0.950 . S
H2904 C2914 0.950 . S
H2905 C2916 0.950 . S
H2906 C2918 0.950 . S
H2907 C2919 0.950 . S
C2908 H2900 0.950 . S
C2908 C2909 1.386 . S
C2908 C2910 1.391 . S
C2909 C2908 1.386 . S
C2909 C2913 1.393 . S
C2910 H2902 0.950 . S
C2910 C2908 1.391 . S
C2910 C2911 1.400 . S
C2911 C2910 1.400 . S
C2911 C2912 1.398 . S
C2911 C2917 1.491 . S
C2912 H2903 0.950 . S
C2912 C2911 1.398 . S
C2912 C2913 1.391 . S
C2913 H2901 0.950 . S
C2913 C2909 1.393 . S
C2913 C2912 1.391 . S
C2914 H2904 0.950 . S
C2914 C2915 1.386 . S
C2914 C2916 1.391 . S
C2915 C2914 1.386 . S
C2915 C2919 1.393 . S
C2916 H2905 0.950 . S
C2916 C2914 1.391 . S
C2916 C2917 1.400 . S
C2917 C2911 1.491 . S
C2917 C2916 1.400 . S
C2917 C2918 1.398 . S
C2918 H2906 0.950 . S
C2918 C2917 1.398 . S
C2918 C2919 1.391 . S
C2919 H2907 0.950 . S
C2919 C2915 1.393 . S
C2919 C2918 1.391 . S
H2920 C2928 0.950 . S
H2921 C2933 0.950 . S
H2922 C2930 0.950 . S
H2923 C2932 0.950 . S
H2924 C2934 0.950 . S
H2925 C2936 0.950 . S
H2926 C2938 0.950 . S
H2927 C2939 0.950 . S
C2928 H2920 0.950 . S
C2928 C2929 1.386 . S
C2928 C2930 1.391 . S
C2929 C2928 1.386 . S
C2929 C2933 1.393 . S
C2930 H2922 0.950 . S
C2930 C2928 1.391 . S
C2930 C2931 1.400 . S
C2931 C2930 1.400 . S
C2931 C2932 1.398 . S
C2931 C2937 1.491 . S
C2932 H2923 0.950 . S
C2932 C2931 1.398 . S
C2932 C2933 1.391 . S
C2933 H2921 0.950 . S
C2933 C2929 1.393 . S
C2933 C2932 1.391 . S
C2934 H2924 0.950 . S
C2934 C2935 1.386 . S
C2934 C2936 1.391 . S
C2935 C2934 1.386 . S
C2935 C2939 1.393 . S
C2936 H2925 0.950 . S
C2936 C2934 1.391 . S
C2936 C2937 1.400 . S
C2937 C2931 1.491 . S
C2937 C2936 1.400 . S
C2937 C2938 1.398 . S
C2938 H2926 0.950 . S
C2938 C2937 1.398 . S
C2938 C2939 1.391 . S
C2939 H2927 0.950 . S
C2939 C2935 1.393 . S
C2939 C2938 1.391 . S
H2940 C2948 0.950 . S
H2941 C2953 0.950 . S
H2942 C2950 0.950 . S
H2943 C2952 0.950 . S
H2944 C2954 0.950 . S
H2945 C2956 0.950 . S
H2946 C2958 0.950 . S
H2947 C2959 0.950 . S
C2948 H2940 0.950 . S
C2948 C2949 1.386 . S
C2948 C2950 1.391 . S
C2949 C2948 1.386 . S
C2949 C2953 1.393 . S
C2950 H2942 0.950 . S
C2950 C2948 1.391 . S
C2950 C2951 1.400 . S
C2951 C2950 1.400 . S
C2951 C2952 1.398 . S
C2951 C2957 1.491 . S
C2952 H2943 0.950 . S
C2952 C2951 1.398 . S
C2952 C2953 1.391 . S
C2953 H2941 0.950 . S
C2953 C2949 1.393 . S
C2953 C2952 1.391 . S
C2954 H2944 0.950 . S
C2954 C2955 1.386 . S
C2954 C2956 1.391 . S
C2955 C2954 1.386 . S
C2955 C2959 1.393 . S
C2956 H2945 0.950 . S
C2956 C2954 1.391 . S
C2956 C2957 1.400 . S
C2957 C2951 1.491 . S
C2957 C2956 1.400 . S
C2957 C2958 1.398 . S
C2958 H2946 0.950 . S
C2958 C2957 1.398 . S
C2958 C2959 1.391 . S
C2959 H2947 0.950 . S
C2959 C2955 1.393 . S
C2959 C2958 1.391 . S
H2960 C2968 0.950 . S
H2961 C2973 0.950 . S
H2962 C2970 0.950 . S
H2963 C2972 0.950 . S
H2964 C2974 0.950 . S
H2965 C2976 0.950 . S
H2966 C2978 0.950 . S
H2967 C2979 0.950 . S
C2968 H2960 0.950 . S
C2968 C2969 1.386 . S
C2968 C2970 1.391 . S
C2969 C2968 1.386 . S
C2969 C2973 1.393 . S
C2970 H2962 0.950 . S
C2970 C2968 1.391 . S
C2970 C2971 1.400 . S
C2971 C2970 1.400 . S
C2971 C2972 1.398 . S
C2971 C2977 1.491 . S
C2972 H2963 0.950 . S
C2972 C2971 1.398 . S
C2972 C2973 1.391 . S
C2973 H2961 0.950 . S
C2973 C2969 1.393 . S
C2973 C2972 1.391 . S
C2974 H2964 0.950 . S
C2974 C2975 1.386 . S
C2974 C2976 1.391 . S
C2975 C2974 1.386 . S
C2975 C2979 1.393 . S
C2976 H2965 0.950 . S
C2976 C2974 1.391 . S
C2976 C2977 1.400 . S
C2977 C2971 1.491 . S
C2977 C2976 1.400 . S
C2977 C2978 1.398 . S
C2978 H2966 0.950 . S
C2978 C2977 1.398 . S
C2978 C2979 1.391 . S
C2979 H2967 0.950 . S
C2979 C2975 1.393 . S
C2979 C2978 1.391 . S
H2980 C2988 0.950 . S
H2981 C2993 0.950 . S
H2982 C2990 0.950 . S
H2983 C2992 0.950 . S
H2984 C2994 0.950 . S
H2985 C2996 0.950 . S
H2986 C2998 0.950 . S
H2987 C2999 0.950 . S
C2988 H2980 0.950 . S
C2988 C2989 1.386 . S
C2988 C2990 1.391 . S
C2989 C2988 1.386 . S
C2989 C2993 1.393 . S
C2990 H2982 0.950 . S
C2990 C2988 1.391 . S
C2990 C2991 1.400 . S
C2991 C2990 1.400 . S
C2991 C2992 1.398 . S
C2991 C2997 1.491 . S
C2992 H2983 0.950 . S
C2992 C2991 1.398 . S
C2992 C2993 1.391 . S
C2993 H2981 0.950 . S
C2993 C2989 1.393 . S
C2993 C2992 1.391 . S
C2994 H2984 0.950 . S
C2994 C2995 1.386 . S
C2994 C2996 1.391 . S
C2995 C2994 1.386 . S
C2995 C2999 1.393 . S
C2996 H2985 0.950 . S
C2996 C2994 1.391 . S
C2996 C2997 1.400 . S
C2997 C2991 1.491 . S
C2997 C2996 1.400 . S
C2997 C2998 1.398 . S
C2998 H2986 0.950 . S
C2998 C2997 1.398 . S
C2998 C2999 1.391 . S
C2999 H2987 0.950 . S
C2999 C2995 1.393 . S
C2999 C2998 1.391 . S
H3000 C3008 0.950 . S
H3001 C3013 0.950 . S
H3002 C3010 0.950 . S
H3003 C3012 0.950 . S
H3004 C3014 0.950 . S
H3005 C3016 0.950 . S
H3006 C3018 0.950 . S
H3007 C3019 0.950 . S
C3008 H3000 0.950 . S
C3008 C3009 1.386 . S
C3008 C3010 1.391 . S
C3009 C3008 1.386 . S
C3009 C3013 1.393 . S
C3010 H3002 0.950 . S
C3010 C3008 1.391 . S
C3010 C3011 1.400 . S
C3011 C3010 1.400 . S
C3011 C3012 1.398 . S
C3011 C3017 1.491 . S
C3012 H3003 0.950 . S
C3012 C3011 1.398 . S
C3012 C3013 1.391 . S
C3013 H3001 0.950 . S
C3013 C3009 1.393 . S
C3013 C3012 1.391 . S
C3014 H3004 0.950 . S
C3014 C3015 1.386 . S
C3014 C3016 1.391 . S
C3015 C3014 1.386 . S
C3015 C3019 1.393 . S
C3016 H3005 0.950 . S
C3016 C3014 1.391 . S
C3016 C3017 1.400 . S
C3017 C3011 1.491 . S
C3017 C3016 1.400 . S
C3017 C3018 1.398 . S
C3018 H3006 0.950 . S
C3018 C3017 1.398 . S
C3018 C3019 1.391 . S
C3019 H3007 0.950 . S
C3019 C3015 1.393 . S
C3019 C3018 1.391 . S
H3020 C3028 0.950 . S
H3021 C3033 0.950 . S
H3022 C3030 0.950 . S
H3023 C3032 0.950 . S
H3024 C3034 0.950 . S
H3025 C3036 0.950 . S
H3026 C3038 0.950 . S
H3027 C3039 0.950 . S
C3028 H3020 0.950 . S
C3028 C3029 1.386 . S
C3028 C3030 1.391 . S
C3029 C3028 1.386 . S
C3029 C3033 1.393 . S
C3030 H3022 0.950 . S
C3030 C3028 1.391 . S
C3030 C3031 1.400 . S
C3031 C3030 1.400 . S
C3031 C3032 1.398 . S
C3031 C3037 1.491 . S
C3032 H3023 0.950 . S
C3032 C3031 1.398 . S
C3032 C3033 1.391 . S
C3033 H3021 0.950 . S
C3033 C3029 1.393 . S
C3033 C3032 1.391 . S
C3034 H3024 0.950 . S
C3034 C3035 1.386 . S
C3034 C3036 1.391 . S
C3035 C3034 1.386 . S
C3035 C3039 1.393 . S
C3036 H3025 0.950 . S
C3036 C3034 1.391 . S
C3036 C3037 1.400 . S
C3037 C3031 1.491 . S
C3037 C3036 1.400 . S
C3037 C3038 1.398 . S
C3038 H3026 0.950 . S
C3038 C3037 1.398 . S
C3038 C3039 1.391 . S
C3039 H3027 0.950 . S
C3039 C3035 1.393 . S
C3039 C3038 1.391 . S
H3040 C3048 0.950 . S
H3041 C3053 0.950 . S
H3042 C3050 0.950 . S
H3043 C3052 0.950 . S
H3044 C3054 0.950 . S
H3045 C3056 0.950 . S
H3046 C3058 0.950 . S
H3047 C3059 0.950 . S
C3048 H3040 0.950 . S
C3048 C3049 1.386 . S
C3048 C3050 1.391 . S
C3049 C3048 1.386 . S
C3049 C3053 1.393 . S
C3050 H3042 0.950 . S
C3050 C3048 1.391 . S
C3050 C3051 1.400 . S
C3051 C3050 1.400 . S
C3051 C3052 1.398 . S
C3051 C3057 1.491 . S
C3052 H3043 0.950 . S
C3052 C3051 1.398 . S
C3052 C3053 1.391 . S
C3053 H3041 0.950 . S
C3053 C3049 1.393 . S
C3053 C3052 1.391 . S
C3054 H3044 0.950 . S
C3054 C3055 1.386 . S
C3054 C3056 1.391 . S
C3055 C3054 1.386 . S
C3055 C3059 1.393 . S
C3056 H3045 0.950 . S
C3056 C3054 1.391 . S
C3056 C3057 1.400 . S
C3057 C3051 1.491 . S
C3057 C3056 1.400 . S
C3057 C3058 1.398 . S
C3058 H3046 0.950 . S
C3058 C3057 1.398 . S
C3058 C3059 1.391 . S
C3059 H3047 0.950 . S
C3059 C3055 1.393 . S
C3059 C3058 1.391 . S
H3060 C3068 0.950 . S
H3061 C3073 0.950 . S
H3062 C3070 0.950 . S
H3063 C3072 0.950 . S
H3064 C3074 0.950 . S
H3065 C3076 0.950 . S
H3066 C3078 0.950 . S
H3067 C3079 0.950 . S
C3068 H3060 0.950 . S
C3068 C3069 1.386 . S
C3068 C3070 1.391 . S
C3069 C3068 1.386 . S
C3069 C3073 1.393 . S
C3070 H3062 0.950 . S
C3070 C3068 1.391 . S
C3070 C3071 1.400 . S
C3071 C3070 1.400 . S
C3071 C3072 1.398 . S
C3071 C3077 1.491 . S
C3072 H3063 0.950 . S
C3072 C3071 1.398 . S
C3072 C3073 1.391 . S
C3073 H3061 0.950 . S
C3073 C3069 1.393 . S
C3073 C3072 1.391 . S
C3074 H3064 0.950 . S
C3074 C3075 1.386 . S
C3074 C3076 1.391 . S
C3075 C3074 1.386 . S
C3075 C3079 1.393 . S
C3076 H3065 0.950 . S
C3076 C3074 1.391 . S
C3076 C3077 1.400 . S
C3077 C3071 1.491 . S
C3077 C3076 1.400 . S
C3077 C3078 1.398 . S
C3078 H3066 0.950 . S
C3078 C3077 1.398 . S
C3078 C3079 1.391 . S
C3079 H3067 0.950 . S
C3079 C3075 1.393 . S
C3079 C3078 1.391 . S
H3080 C3088 0.950 . S
H3081 C3093 0.950 . S
H3082 C3090 0.950 . S
H3083 C3092 0.950 . S
H3084 C3094 0.950 . S
H3085 C3096 0.950 . S
H3086 C3098 0.950 . S
H3087 C3099 0.950 . S
C3088 H3080 0.950 . S
C3088 C3089 1.386 . S
C3088 C3090 1.391 . S
C3089 C3088 1.386 . S
C3089 C3093 1.393 . S
C3090 H3082 0.950 . S
C3090 C3088 1.391 . S
C3090 C3091 1.400 . S
C3091 C3090 1.400 . S
C3091 C3092 1.398 . S
C3091 C3097 1.491 . S
C3092 H3083 0.950 . S
C3092 C3091 1.398 . S
C3092 C3093 1.391 . S
C3093 H3081 0.950 . S
C3093 C3089 1.393 . S
C3093 C3092 1.391 . S
C3094 H3084 0.950 . S
C3094 C3095 1.386 . S
C3094 C3096 1.391 . S
C3095 C3094 1.386 . S
C3095 C3099 1.393 . S
C3096 H3085 0.950 . S
C3096 C3094 1.391 . S
C3096 C3097 1.400 . S
C3097 C3091 1.491 . S
C3097 C3096 1.400 . S
C3097 C3098 1.398 . S
C3098 H3086 0.950 . S
C3098 C3097 1.398 . S
C3098 C3099 1.391 . S
C3099 H3087 0.950 . S
C3099 C3095 1.393 . S
C3099 C3098 1.391 . S
H3100 C3108 0.950 . S
H3101 C3113 0.950 . S
H3102 C3110 0.950 . S
H3103 C3112 0.950 . S
H3104 C3114 0.950 . S
H3105 C3116 0.950 . S
H3106 C3118 0.950 . S
H3107 C3119 0.950 . S
C3108 H3100 0.950 . S
C3108 C3109 1.386 . S
C3108 C3110 1.391 . S
C3109 C3108 1.386 . S
C3109 C3113 1.393 . S
C3110 H3102 0.950 . S
C3110 C3108 1.391 . S
C3110 C3111 1.400 . S
C3111 C3110 1.400 . S
C3111 C3112 1.398 . S
C3111 C3117 1.491 . S
C3112 H3103 0.950 . S
C3112 C3111 1.398 . S
C3112 C3113 1.391 . S
C3113 H3101 0.950 . S
C3113 C3109 1.393 . S
C3113 C3112 1.391 . S
C3114 H3104 0.950 . S
C3114 C3115 1.386 . S
C3114 C3116 1.391 . S
C3115 C3114 1.386 . S
C3115 C3119 1.393 . S
C3116 H3105 0.950 . S
C3116 C3114 1.391 . S
C3116 C3117 1.400 . S
C3117 C3111 1.491 . S
C3117 C3116 1.400 . S
C3117 C3118 1.398 . S
C3118 H3106 0.950 . S
C3118 C3117 1.398 . S
C3118 C3119 1.391 . S
C3119 H3107 0.950 . S
C3119 C3115 1.393 . S
C3119 C3118 1.391 . S
H3120 C3128 0.950 . S
H3121 C3133 0.950 . S
H3122 C3130 0.950 . S
H3123 C3132 0.950 . S
H3124 C3134 0.950 . S
H3125 C3136 0.950 . S
H3126 C3138 0.950 . S
H3127 C3139 0.950 . S
C3128 H3120 0.950 . S
C3128 C3129 1.386 . S
C3128 C3130 1.391 . S
C3129 C3128 1.386 . S
C3129 C3133 1.393 . S
C3130 H3122 0.950 . S
C3130 C3128 1.391 . S
C3130 C3131 1.400 . S
C3131 C3130 1.400 . S
C3131 C3132 1.398 . S
C3131 C3137 1.491 . S
C3132 H3123 0.950 . S
C3132 C3131 1.398 . S
C3132 C3133 1.391 . S
C3133 H3121 0.950 . S
C3133 C3129 1.393 . S
C3133 C3132 1.391 . S
C3134 H3124 0.950 . S
C3134 C3135 1.386 . S
C3134 C3136 1.391 . S
C3135 C3134 1.386 . S
C3135 C3139 1.393 . S
C3136 H3125 0.950 . S
C3136 C3134 1.391 . S
C3136 C3137 1.400 . S
C3137 C3131 1.491 . S
C3137 C3136 1.400 . S
C3137 C3138 1.398 . S
C3138 H3126 0.950 . S
C3138 C3137 1.398 . S
C3138 C3139 1.391 . S
C3139 H3127 0.950 . S
C3139 C3135 1.393 . S
C3139 C3138 1.391 . S
H3140 C3148 0.950 . S
H3141 C3153 0.950 . S
H3142 C3150 0.950 . S
H3143 C3152 0.950 . S
H3144 C3154 0.950 . S
H3145 C3156 0.950 . S
H3146 C3158 0.950 . S
H3147 C3159 0.950 . S
C3148 H3140 0.950 . S
C3148 C3149 1.386 . S
C3148 C3150 1.391 . S
C3149 C3148 1.386 . S
C3149 C3153 1.393 . S
C3150 H3142 0.950 . S
C3150 C3148 1.391 . S
C3150 C3151 1.400 . S
C3151 C3150 1.400 . S
C3151 C3152 1.398 . S
C3151 C3157 1.491 . S
C3152 H3143 0.950 . S
C3152 C3151 1.398 . S
C3152 C3153 1.391 . S
C3153 H3141 0.950 . S
C3153 C3149 1.393 . S
C3153 C3152 1.391 . S
C3154 H3144 0.950 . S
C3154 C3155 1.386 . S
C3154 C3156 1.391 . S
C3155 C3154 1.386 . S
C3155 C3159 1.393 . S
C3156 H3145 0.950 . S
C3156 C3154 1.391 . S
C3156 C3157 1.400 . S
C3157 C3151 1.491 . S
C3157 C3156 1.400 . S
C3157 C3158 1.398 . S
C3158 H3146 0.950 . S
C3158 C3157 1.398 . S
C3158 C3159 1.391 . S
C3159 H3147 0.950 . S
C3159 C3155 1.393 . S
C3159 C3158 1.391 . S
H3160 C3168 0.950 . S
H3161 C3173 0.950 . S
H3162 C3170 0.950 . S
H3163 C3172 0.950 . S
H3164 C3174 0.950 . S
H3165 C3176 0.950 . S
H3166 C3178 0.950 . S
H3167 C3179 0.950 . S
C3168 H3160 0.950 . S
C3168 C3169 1.386 . S
C3168 C3170 1.391 . S
C3169 C3168 1.386 . S
C3169 C3173 1.393 . S
C3170 H3162 0.950 . S
C3170 C3168 1.391 . S
C3170 C3171 1.400 . S
C3171 C3170 1.400 . S
C3171 C3172 1.398 . S
C3171 C3177 1.491 . S
C3172 H3163 0.950 . S
C3172 C3171 1.398 . S
C3172 C3173 1.391 . S
C3173 H3161 0.950 . S
C3173 C3169 1.393 . S
C3173 C3172 1.391 . S
C3174 H3164 0.950 . S
C3174 C3175 1.386 . S
C3174 C3176 1.391 . S
C3175 C3174 1.386 . S
C3175 C3179 1.393 . S
C3176 H3165 0.950 . S
C3176 C3174 1.391 . S
C3176 C3177 1.400 . S
C3177 C3171 1.491 . S
C3177 C3176 1.400 . S
C3177 C3178 1.398 . S
C3178 H3166 0.950 . S
C3178 C3177 1.398 . S
C3178 C3179 1.391 . S
C3179 H3167 0.950 . S
C3179 C3175 1.393 . S
C3179 C3178 1.391 . S
H3180 C3188 0.950 . S
H3181 C3193 0.950 . S
H3182 C3190 0.950 . S
H3183 C3192 0.950 . S
H3184 C3194 0.950 . S
H3185 C3196 0.950 . S
H3186 C3198 0.950 . S
H3187 C3199 0.950 . S
C3188 H3180 0.950 . S
C3188 C3189 1.386 . S
C3188 C3190 1.391 . S
C3189 C3188 1.386 . S
C3189 C3193 1.393 . S
C3190 H3182 0.950 . S
C3190 C3188 1.391 . S
C3190 C3191 1.400 . S
C3191 C3190 1.400 . S
C3191 C3192 1.398 . S
C3191 C3197 1.491 . S
C3192 H3183 0.950 . S
C3192 C3191 1.398 . S
C3192 C3193 1.391 . S
C3193 H3181 0.950 . S
C3193 C3189 1.393 . S
C3193 C3192 1.391 . S
C3194 H3184 0.950 . S
C3194 C3195 1.386 . S
C3194 C3196 1.391 . S
C3195 C3194 1.386 . S
C3195 C3199 1.393 . S
C3196 H3185 0.950 . S
C3196 C3194 1.391 . S
C3196 C3197 1.400 . S
C3197 C3191 1.491 . S
C3197 C3196 1.400 . S
C3197 C3198 1.398 . S
C3198 H3186 0.950 . S
C3198 C3197 1.398 . S
C3198 C3199 1.391 . S
C3199 H3187 0.950 . S
C3199 C3195 1.393 . S
C3199 C3198 1.391 . S
C1289 C15 1.105 . S
C1295 C129 1.038 . S
C1309 C9 1.069 . S
C1315 C55 1.098 . S
C1329 C95 1.105 . S
C1335 C49 1.074 . S
C1349 C89 1.040 . S
C1355 C135 1.107 . S
C1369 C209 1.068 . S
C1375 C175 1.098 . S
C1389 C215 1.100 . S
C1395 C249 1.079 . S
C1409 C289 1.049 . S
C1415 C255 1.109 . S
C1429 C169 1.075 . S
C1435 C295 1.098 . S
C1449 C325 1.109 . S
C1455 C459 1.049 . S
C1469 C365 1.099 . S
C1475 C339 1.077 . S
C1489 C405 1.109 . S
C1495 C379 1.047 . S
C1509 C445 1.105 . S
C1515 C419 1.072 . S
C1529 C485 1.099 . S
C1535 C539 1.057 . S
C1549 C525 1.099 . S
C1555 C579 1.054 . S
C1569 C619 1.048 . S
C1575 C565 1.100 . S
C1589 C499 1.041 . S
C1595 C605 1.108 . S
C1609 C655 1.101 . S
C1615 C769 1.044 . S
C1629 C649 1.079 . S
C1635 C695 1.101 . S
C1649 C689 1.042 . S
C1655 C735 1.108 . S
C1669 C775 1.105 . S
C1675 C729 1.072 . S
C1689 C815 1.106 . S
C1695 C849 1.071 . S
C1709 C889 1.043 . S
C1715 C855 1.108 . S
C1729 C895 1.099 . S
C1735 C929 1.051 . S
C1749 C809 1.079 . S
C1755 C935 1.100 . S
C1769 C1099 1.042 . S
C1775 C965 1.108 . S
C1789 C979 1.060 . S
C1795 C1005 1.098 . S
C1809 C1045 1.104 . S
C1815 C1019 1.076 . S
C1829 C1059 1.078 . S
C1835 C1085 1.102 . S
C1849 C1179 1.050 . S
C1855 C1125 1.100 . S
C1869 C1219 1.039 . S
C1875 C1165 1.107 . S
C1889 C1259 1.040 . S
C1895 C1205 1.103 . S
C1909 C1245 1.108 . S
C1915 C1139 1.061 . S
C1929 C1095 1.586 . S
C1935 C18 1.509 . S
C1949 C58 1.527 . S
C1955 C335 1.624 . S
C1969 C98 1.506 . S
C1975 C1015 1.588 . S
C1989 C138 1.513 . S
C1995 C415 1.586 . S
C2009 C178 1.533 . S
C2015 C1175 1.591 . S
C2029 C575 1.593 . S
C2035 C218 1.535 . S
C2049 C1255 1.595 . S
C2055 C258 1.523 . S
C2069 C298 1.529 . S
C2075 C495 1.620 . S
C2089 C328 1.532 . S
C2095 C765 1.595 . S
C2109 C5 1.587 . S
C2115 C368 1.531 . S
C2129 C685 1.588 . S
C2135 C408 1.505 . S
C2149 C85 1.594 . S
C2155 C448 1.535 . S
C2169 C845 1.595 . S
C2175 C488 1.519 . S
C2189 C245 1.588 . S
C2195 C528 1.506 . S
C2209 C568 1.521 . S
C2215 C925 1.587 . S
C2229 C608 1.534 . S
C2235 C165 1.594 . S
C2249 C658 1.506 . S
C2255 C455 1.587 . S
C2269 C698 1.531 . S
C2275 C975 1.590 . S
C2289 C738 1.516 . S
C2295 C375 1.586 . S
C2309 C778 1.525 . S
C2315 C1055 1.626 . S
C2329 C818 1.523 . S
C2335 C535 1.595 . S
C2349 C858 1.535 . S
C2355 C1215 1.600 . S
C2369 C615 1.592 . S
C2375 C898 1.533 . S
C2389 C938 1.508 . S
C2395 C1135 1.587 . S
C2409 C125 1.586 . S
C2415 C968 1.514 . S
C2429 C645 1.596 . S
C2435 C1008 1.523 . S
C2449 C45 1.591 . S
C2455 C1048 1.533 . S
C2469 C725 1.632 . S
C2475 C1088 1.512 . S
C2489 C205 1.590 . S
C2495 C1128 1.530 . S
C2509 C1168 1.506 . S
C2515 C885 1.623 . S
C2529 C1208 1.534 . S
C2535 C285 1.594 . S
C2549 C805 1.587 . S
C2555 C1248 1.520 . S
C2569 C8 0.798 . S
C2575 C168 0.804 . S
C2589 C48 0.793 . S
C2595 C208 0.771 . S
C2609 C88 0.812 . S
C2615 C248 0.780 . S
C2629 C288 0.788 . S
C2635 C128 0.811 . S
C2649 C498 0.811 . S
C2655 C338 0.774 . S
C2669 C538 0.771 . S
C2675 C378 0.794 . S
C2689 C418 0.792 . S
C2695 C578 0.771 . S
C2709 C458 0.811 . S
C2715 C618 0.788 . S
C2729 C648 0.770 . S
C2735 C808 0.808 . S
C2749 C848 0.771 . S
C2755 C688 0.809 . S
C2769 C888 0.812 . S
C2775 C728 0.776 . S
C2789 C928 0.782 . S
C2795 C768 0.813 . S
C2809 C1138 0.812 . S
C2815 C978 0.782 . S
C2829 C1018 0.809 . S
C2835 C1178 0.771 . S
C2849 C1218 0.790 . S
C2855 C1058 0.772 . S
C2869 C1098 0.812 . S
C2875 C1258 0.784 . S
C2889 C299 2.610 . S
C2895 C19 2.611 . S
C2909 C59 2.606 . S
C2915 C179 2.607 . S
C2929 C99 2.607 . S
C2935 C219 2.609 . S
C2949 C259 2.611 . S
C2955 C139 2.609 . S
C2969 C329 2.609 . S
C2975 C609 2.611 . S
C2989 C489 2.606 . S
C2995 C369 2.609 . S
C3009 C529 2.606 . S
C3015 C409 2.606 . S
C3029 C449 2.606 . S
C3035 C569 2.606 . S
C3049 C659 2.611 . S
C3055 C939 2.608 . S
C3069 C819 2.607 . S
C3075 C699 2.610 . S
C3089 C859 2.606 . S
C3095 C739 2.606 . S
C3109 C899 2.611 . S
C3115 C779 2.609 . S
C3129 C969 2.611 . S
C3135 C1249 2.610 . S
C3149 C1129 2.608 . S
C3155 C1009 2.610 . S
C3169 C1049 2.611 . S
C3175 C1169 2.609 . S
C3189 C1209 2.606 . S
C3195 C1089 2.606 . S
