# Generated by pormake.
# Topology umc, (4)-cn, num edge types: 1
# Building blocks:
#     Node 0, Type 0, BuildingBlock: QUQFOY_clean_sbu_1, # of connection points: 4
#     Node 1, Type 0, BuildingBlock: QUQFOY_clean_sbu_1, # of connection points: 4
#     Node 2, Type 0, BuildingBlock: QUQFOY_clean_sbu_1, # of connection points: 4
#     Node 3, Type 0, BuildingBlock: QUQFOY_clean_sbu_1, # of connection points: 4
#     Node 4, Type 0, BuildingBlock: QUQFOY_clean_sbu_1, # of connection points: 4
#     Node 5, Type 0, BuildingBlock: QUQFOY_clean_sbu_1, # of connection points: 4
#     Node 6, Type 0, BuildingBlock: QUQFOY_clean_sbu_1, # of connection points: 4
#     Node 7, Type 0, BuildingBlock: QUQFOY_clean_sbu_1, # of connection points: 4
#     Node 8, Type 0, BuildingBlock: QUQFOY_clean_sbu_1, # of connection points: 4
#     Node 9, Type 0, BuildingBlock: QUQFOY_clean_sbu_1, # of connection points: 4
#     Node 10, Type 0, BuildingBlock: QUQFOY_clean_sbu_1, # of connection points: 4
#     Node 11, Type 0, BuildingBlock: QUQFOY_clean_sbu_1, # of connection points: 4
#     Node 12, Type 0, BuildingBlock: QUQFOY_clean_sbu_1, # of connection points: 4
#     Node 13, Type 0, BuildingBlock: QUQFOY_clean_sbu_1, # of connection points: 4
#     Node 14, Type 0, BuildingBlock: QUQFOY_clean_sbu_1, # of connection points: 4
#     Node 15, Type 0, BuildingBlock: QUQFOY_clean_sbu_1, # of connection points: 4
#     Edge 16, Type (0, 0), BuildingBlock: TEMPAE_clean_linker_10, # of connection points: 2
#     Edge 17, Type (0, 0), BuildingBlock: TEMPAE_clean_linker_10, # of connection points: 2
#     Edge 18, Type (0, 0), BuildingBlock: TEMPAE_clean_linker_10, # of connection points: 2
#     Edge 19, Type (0, 0), BuildingBlock: TEMPAE_clean_linker_10, # of connection points: 2
#     Edge 20, Type (0, 0), BuildingBlock: TEMPAE_clean_linker_10, # of connection points: 2
#     Edge 21, Type (0, 0), BuildingBlock: TEMPAE_clean_linker_10, # of connection points: 2
#     Edge 22, Type (0, 0), BuildingBlock: TEMPAE_clean_linker_10, # of connection points: 2
#     Edge 23, Type (0, 0), BuildingBlock: TEMPAE_clean_linker_10, # of connection points: 2
#     Edge 24, Type (0, 0), BuildingBlock: TEMPAE_clean_linker_10, # of connection points: 2
#     Edge 25, Type (0, 0), BuildingBlock: TEMPAE_clean_linker_10, # of connection points: 2
#     Edge 26, Type (0, 0), BuildingBlock: TEMPAE_clean_linker_10, # of connection points: 2
#     Edge 27, Type (0, 0), BuildingBlock: TEMPAE_clean_linker_10, # of connection points: 2
#     Edge 28, Type (0, 0), BuildingBlock: TEMPAE_clean_linker_10, # of connection points: 2
#     Edge 29, Type (0, 0), BuildingBlock: TEMPAE_clean_linker_10, # of connection points: 2
#     Edge 30, Type (0, 0), BuildingBlock: TEMPAE_clean_linker_10, # of connection points: 2
#     Edge 31, Type (0, 0), BuildingBlock: TEMPAE_clean_linker_10, # of connection points: 2
#     Edge 32, Type (0, 0), BuildingBlock: TEMPAE_clean_linker_10, # of connection points: 2
#     Edge 33, Type (0, 0), BuildingBlock: TEMPAE_clean_linker_10, # of connection points: 2
#     Edge 34, Type (0, 0), BuildingBlock: TEMPAE_clean_linker_10, # of connection points: 2
#     Edge 35, Type (0, 0), BuildingBlock: TEMPAE_clean_linker_10, # of connection points: 2
#     Edge 36, Type (0, 0), BuildingBlock: TEMPAE_clean_linker_10, # of connection points: 2
#     Edge 37, Type (0, 0), BuildingBlock: TEMPAE_clean_linker_10, # of connection points: 2
#     Edge 38, Type (0, 0), BuildingBlock: TEMPAE_clean_linker_10, # of connection points: 2
#     Edge 39, Type (0, 0), BuildingBlock: TEMPAE_clean_linker_10, # of connection points: 2
#     Edge 40, Type (0, 0), BuildingBlock: TEMPAE_clean_linker_10, # of connection points: 2
#     Edge 41, Type (0, 0), BuildingBlock: TEMPAE_clean_linker_10, # of connection points: 2
#     Edge 42, Type (0, 0), BuildingBlock: TEMPAE_clean_linker_10, # of connection points: 2
#     Edge 43, Type (0, 0), BuildingBlock: TEMPAE_clean_linker_10, # of connection points: 2
#     Edge 44, Type (0, 0), BuildingBlock: TEMPAE_clean_linker_10, # of connection points: 2
#     Edge 45, Type (0, 0), BuildingBlock: TEMPAE_clean_linker_10, # of connection points: 2
#     Edge 46, Type (0, 0), BuildingBlock: TEMPAE_clean_linker_10, # of connection points: 2
#     Edge 47, Type (0, 0), BuildingBlock: TEMPAE_clean_linker_10, # of connection points: 2
# Relax obj value: 0.042
# Max RMSD: 0.114
# Mean RMSD: 0.114
data_MOF--net-umc--node1-QUQFOY_clean_sbu_1--edge1-TEMPAE_clean_linker_10
_symmetry_space_group_name_H-M    P1
_symmetry_Int_Tables_number       1
_symmetry_cell_setting            triclinic
loop_
_symmetry_equiv_pos_as_xyz
'x, y, z'
_cell_length_a     40.732908
_cell_length_b     41.643533
_cell_length_c     58.199459
_cell_angle_alpha  89.973175
_cell_angle_beta   90.057743
_cell_angle_gamma 89.997759
loop_
_atom_site_label
_atom_site_type_symbol
_atom_site_fract_x
_atom_site_fract_y
_atom_site_fract_z
_atom_type_partial_charge
O0 O 0.33339 0.0932 0.42 0.0
Cd1 Cd 0.34864 0.10803 0.38803 0.0
Cd2 Cd 0.32213 0.05136 0.37697 0.0
O3 O 0.3012 0.05305 0.40965 0.0
O4 O 0.35099 0.15604 0.38981 0.0
O5 O 0.31579 0.13036 0.36749 0.0
C6 C 0.32649 0.15723 0.37574 0.0
C7 C 0.29442 0.03792 0.34321 0.0
C8 C 0.31274 0.07149 0.42513 0.0
C9 C 0.39649 0.05839 0.37462 0.0
O10 O 0.37157 0.04002 0.37503 0.0
O11 O 0.3931 0.0885 0.37762 0.0
O12 O 0.30193 0.0164 0.35827 0.0
O13 O 0.30017 0.06763 0.34817 0.0
O14 O 0.69352 0.92232 0.4189 0.0
Cd15 Cd 0.673 0.90723 0.38833 0.0
Cd16 Cd 0.69287 0.96781 0.37616 0.0
O17 O 0.71256 0.9701 0.40908 0.0
O18 O 0.67105 0.85942 0.39177 0.0
O19 O 0.70267 0.88347 0.36622 0.0
C20 C 0.69338 0.85722 0.37614 0.0
C21 C 0.7198 0.98248 0.34247 0.0
C22 C 0.70871 0.94803 0.42399 0.0
C23 C 0.61985 0.95367 0.37533 0.0
O24 O 0.64298 0.97391 0.37334 0.0
O25 O 0.62601 0.92457 0.3806 0.0
O26 O 0.70974 1.00376 0.35694 0.0
O27 O 0.71718 0.95255 0.34808 0.0
O28 O 0.31542 0.92511 0.09997 0.0
Cd29 Cd 0.33667 0.91033 0.13038 0.0
Cd30 Cd 0.31717 0.97122 0.14225 0.0
O31 O 0.29645 0.97297 0.10963 0.0
O32 O 0.33863 0.86249 0.12706 0.0
O33 O 0.30737 0.8866 0.15277 0.0
C34 C 0.31648 0.86033 0.14281 0.0
C35 C 0.2913 0.98633 0.17628 0.0
C36 C 0.30001 0.95068 0.09487 0.0
C37 C 0.3902 0.95709 0.14209 0.0
O38 O 0.36714 0.97739 0.14411 0.0
O39 O 0.38386 0.92783 0.1374 0.0
O40 O 0.30093 1.00742 0.16151 0.0
O41 O 0.29377 0.95633 0.17085 0.0
O42 O 0.69074 0.09125 0.09989 0.0
Cd43 Cd 0.66917 0.10379 0.13066 0.0
Cd44 Cd 0.69076 0.04356 0.14113 0.0
O45 O 0.7115 0.04371 0.10854 0.0
O46 O 0.66563 0.15167 0.12867 0.0
O47 O 0.69795 0.12711 0.15357 0.0
C48 C 0.6879 0.15362 0.14439 0.0
C49 C 0.71786 0.03039 0.1751 0.0
C50 C 0.70713 0.06649 0.09427 0.0
C51 C 0.61735 0.05479 0.14153 0.0
O52 O 0.6411 0.03515 0.14298 0.0
O53 O 0.62271 0.08443 0.13749 0.0
O54 O 0.70938 1.00857 0.16052 0.0
O55 O 0.71336 0.06012 0.16953 0.0
O56 O 0.67443 0.93208 0.60081 0.0
Cd57 Cd 0.66197 0.91991 0.63411 0.0
Cd58 Cd 0.68782 0.9769 0.64032 0.0
O59 O 0.71077 0.96958 0.6089 0.0
O60 O 0.65763 0.87174 0.63387 0.0
O61 O 0.69648 0.89721 0.65304 0.0
C62 C 0.68389 0.87038 0.64629 0.0
C63 C 0.71211 0.98459 0.67612 0.0
C64 C 0.69681 0.95135 0.59432 0.0
C65 C 0.61507 0.97216 0.64401 0.0
O66 O 0.63906 0.99027 0.6387 0.0
O67 O 0.61962 0.94208 0.64672 0.0
O68 O 0.71203 1.00735 0.66102 0.0
O69 O 0.7005 0.95693 0.67021 0.0
O70 O 0.31358 0.09678 0.60081 0.0
Cd71 Cd 0.33133 0.10937 0.63299 0.0
Cd72 Cd 0.31181 0.04913 0.6406 0.0
O73 O 0.28787 0.05173 0.60939 0.0
O74 O 0.33487 0.1574 0.63098 0.0
O75 O 0.29973 0.13292 0.65386 0.0
C76 C 0.31069 0.15938 0.64521 0.0
C77 C 0.28896 0.04174 0.67678 0.0
C78 C 0.29519 0.07349 0.59494 0.0
C79 C 0.38378 0.06019 0.64176 0.0
O80 O 0.36115 0.03965 0.6386 0.0
O81 O 0.37691 0.09006 0.64294 0.0
O82 O 0.29094 0.01813 0.66244 0.0
O83 O 0.29785 0.06995 0.6699 0.0
O84 O 0.67954 0.09665 0.91794 0.0
Cd85 Cd 0.66774 0.11102 0.88494 0.0
Cd86 Cd 0.69264 0.05421 0.87743 0.0
O87 O 0.71569 0.05937 0.90903 0.0
O88 O 0.66422 0.15915 0.88669 0.0
O89 O 0.70277 0.13428 0.86688 0.0
C90 C 0.69057 0.16087 0.87444 0.0
C91 C 0.7164 0.04702 0.84147 0.0
C92 C 0.70163 0.0768 0.92404 0.0
C93 C 0.62004 0.0603 0.87367 0.0
O94 O 0.64369 0.04166 0.87879 0.0
O95 O 0.62509 0.09039 0.87149 0.0
O96 O 0.71585 0.02382 0.85623 0.0
O97 O 0.70575 0.07484 0.84787 0.0
O98 O 0.33145 0.92937 0.91814 0.0
Cd99 Cd 0.34345 0.91648 0.88488 0.0
Cd100 Cd 0.31801 0.97347 0.8783 0.0
O101 O 0.29526 0.96693 0.90986 0.0
O102 O 0.34779 0.86836 0.88566 0.0
O103 O 0.30871 0.8934 0.86641 0.0
C104 C 0.32142 0.86672 0.87339 0.0
C105 C 0.29365 0.98089 0.84253 0.0
C106 C 0.30926 0.94889 0.92455 0.0
C107 C 0.39055 0.96818 0.87413 0.0
O108 O 0.36684 0.98653 0.87959 0.0
O109 O 0.38571 0.93811 0.87167 0.0
O110 O 0.29396 1.00385 0.85747 0.0
O111 O 0.30499 0.95319 0.84862 0.0
O112 O 0.83143 0.58897 0.42097 0.0
Cd113 Cd 0.84426 0.60147 0.38767 0.0
Cd114 Cd 0.81908 0.54409 0.38155 0.0
O115 O 0.79715 0.54938 0.41341 0.0
O116 O 0.8478 0.64956 0.38821 0.0
O117 O 0.80998 0.62379 0.36824 0.0
C118 C 0.82201 0.65073 0.37534 0.0
C119 C 0.79275 0.53149 0.3472 0.0
C120 C 0.8102 0.56863 0.42773 0.0
C121 C 0.89232 0.5509 0.37734 0.0
O122 O 0.8684 0.5325 0.38211 0.0
O123 O 0.88761 0.58103 0.37532 0.0
O124 O 0.79858 0.50968 0.36244 0.0
O125 O 0.79977 0.56094 0.35217 0.0
O126 O 0.19457 0.4262 0.41793 0.0
Cd127 Cd 0.17639 0.41326 0.38585 0.0
Cd128 Cd 0.19518 0.47407 0.3787 0.0
O129 O 0.21846 0.47252 0.41013 0.0
O130 O 0.17348 0.3653 0.38818 0.0
O131 O 0.20767 0.38982 0.36461 0.0
C132 C 0.19717 0.36335 0.37357 0.0
C133 C 0.21869 0.48754 0.34359 0.0
C134 C 0.21199 0.45004 0.42421 0.0
C135 C 0.1229 0.46085 0.37754 0.0
O136 O 0.14543 0.48152 0.38034 0.0
O137 O 0.12998 0.43105 0.37647 0.0
O138 O 0.21158 0.5093 0.35858 0.0
O139 O 0.21465 0.45776 0.34922 0.0
O140 O 0.81323 0.42607 0.10254 0.0
Cd141 Cd 0.83423 0.41088 0.13294 0.0
Cd142 Cd 0.81468 0.47121 0.14527 0.0
O143 O 0.79405 0.47366 0.11263 0.0
O144 O 0.83622 0.36307 0.1296 0.0
O145 O 0.80487 0.38716 0.15527 0.0
C146 C 0.81413 0.36088 0.14539 0.0
C147 C 0.78877 0.48502 0.17949 0.0
C148 C 0.79777 0.45171 0.09763 0.0
C149 C 0.88766 0.45721 0.14538 0.0
O150 O 0.86462 0.47751 0.14744 0.0
O151 O 0.88134 0.42809 0.14032 0.0
O152 O 0.79818 0.50667 0.16507 0.0
O153 O 0.79138 0.45522 0.17356 0.0
O154 O 0.17662 0.59072 0.0989 0.0
Cd155 Cd 0.16195 0.60638 0.13082 0.0
Cd156 Cd 0.18679 0.54901 0.14205 0.0
O157 O 0.20721 0.54934 0.1092 0.0
O158 O 0.16055 0.65442 0.12863 0.0
O159 O 0.19541 0.62845 0.15104 0.0
C160 C 0.18515 0.65538 0.14262 0.0
C161 C 0.21426 0.53569 0.17589 0.0
C162 C 0.19622 0.56811 0.0937 0.0
C163 C 0.11278 0.55819 0.14477 0.0
O164 O 0.13713 0.5391 0.14437 0.0
O165 O 0.11703 0.58815 0.14152 0.0
O166 O 0.20607 0.51398 0.16115 0.0
O167 O 0.20942 0.56542 0.17051 0.0
O168 O 0.17384 0.42907 0.59917 0.0
Cd169 Cd 0.15908 0.41475 0.63129 0.0
Cd170 Cd 0.18616 0.47105 0.64211 0.0
O171 O 0.20806 0.4674 0.60975 0.0
O172 O 0.15571 0.36664 0.62977 0.0
O173 O 0.19215 0.39193 0.65129 0.0
C174 C 0.18073 0.36519 0.64338 0.0
C175 C 0.21293 0.47836 0.67711 0.0
C176 C 0.19561 0.44974 0.59415 0.0
C177 C 0.11233 0.46621 0.64434 0.0
O178 O 0.13725 0.4846 0.64318 0.0
O179 O 0.11564 0.4359 0.64224 0.0
O180 O 0.21099 0.5015 0.6624 0.0
O181 O 0.2019 0.45049 0.67117 0.0
O182 O 0.81349 0.59974 0.60267 0.0
Cd183 Cd 0.83393 0.61435 0.63331 0.0
Cd184 Cd 0.81423 0.55437 0.64567 0.0
O185 O 0.793 0.55287 0.61316 0.0
O186 O 0.83634 0.66223 0.63002 0.0
O187 O 0.80422 0.63824 0.65527 0.0
C188 C 0.81372 0.66446 0.64544 0.0
C189 C 0.78808 0.54636 0.68072 0.0
C190 C 0.79739 0.57445 0.59797 0.0
C191 C 0.8869 0.56663 0.64556 0.0
O192 O 0.86392 0.54613 0.64728 0.0
O193 O 0.88054 0.59597 0.64106 0.0
O194 O 0.79286 0.52273 0.66676 0.0
O195 O 0.79578 0.57495 0.67393 0.0
O196 O 0.19438 0.595 0.91958 0.0
Cd197 Cd 0.17355 0.60962 0.88903 0.0
Cd198 Cd 0.1932 0.54967 0.87669 0.0
O199 O 0.21478 0.54813 0.90906 0.0
O200 O 0.17097 0.65751 0.89228 0.0
O201 O 0.20286 0.63361 0.86686 0.0
C202 C 0.19331 0.65982 0.87666 0.0
C203 C 0.21921 0.54226 0.84155 0.0
C204 C 0.21055 0.56972 0.92425 0.0
C205 C 0.12054 0.56184 0.87696 0.0
O206 O 0.14351 0.54134 0.8752 0.0
O207 O 0.12694 0.59118 0.88144 0.0
O208 O 0.2146 0.51841 0.85536 0.0
O209 O 0.21138 0.57072 0.84853 0.0
O210 O 0.83047 0.43034 0.92274 0.0
Cd211 Cd 0.84479 0.41545 0.89065 0.0
Cd212 Cd 0.81962 0.47273 0.87988 0.0
O213 O 0.79822 0.47042 0.91246 0.0
O214 O 0.84717 0.36731 0.89262 0.0
O215 O 0.81141 0.39288 0.87071 0.0
C216 C 0.82226 0.36607 0.87891 0.0
C217 C 0.79278 0.48057 0.84495 0.0
C218 C 0.80997 0.45212 0.92797 0.0
C219 C 0.89321 0.46544 0.87741 0.0
O220 O 0.86892 0.48462 0.87845 0.0
O221 O 0.88893 0.43528 0.87973 0.0
O222 O 0.79567 0.50378 0.85952 0.0
O223 O 0.80282 0.45239 0.85101 0.0
C224 C 0.27227 0.0609 0.45691 0.0
C225 C 0.30448 0.06683 0.44963 0.0
C226 C 0.2646 0.05969 0.48053 0.0
C227 C 0.28996 0.06361 0.49703 0.0
C228 C 0.32273 0.06802 0.48956 0.0
C229 C 0.32945 0.07005 0.46602 0.0
C230 C 0.22931 0.05565 0.48781 0.0
C231 C 0.35072 0.07147 0.50645 0.0
C232 C 0.28179 0.09774 0.5569 0.0
C233 C 0.28588 0.07022 0.57047 0.0
C234 C 0.27965 0.09554 0.53288 0.0
C235 C 0.28272 0.06518 0.52213 0.0
C236 C 0.28452 0.0371 0.53586 0.0
C237 C 0.28568 0.03995 0.55993 0.0
C238 C 0.27676 0.12602 0.51897 0.0
C239 C 0.28834 1.00432 0.52516 0.0
H240 H 0.25293 0.05858 0.44421 0.0
H241 H 0.35445 0.07427 0.46038 0.0
H242 H 0.22711 0.03652 0.50098 0.0
H243 H 0.22049 0.07829 0.49574 0.0
H244 H 0.21304 0.04967 0.47309 0.0
H245 H 0.37503 0.07195 0.49781 0.0
H246 H 0.34782 0.09406 0.51633 0.0
H247 H 0.35048 0.05132 0.51893 0.0
H248 H 0.28162 0.12117 0.56502 0.0
H249 H 0.28903 0.01862 0.57037 0.0
H250 H 0.25892 0.1229 0.50473 0.0
H251 H 0.30092 0.13184 0.51122 0.0
H252 H 0.26893 0.14672 0.52969 0.0
H253 H 0.27132 1.00128 0.51044 0.0
H254 H 0.28385 0.98477 0.53777 0.0
H255 H 0.31372 1.00175 0.51848 0.0
C256 C 0.67985 0.94578 0.55347 0.0
C257 C 0.70426 0.95389 0.56946 0.0
C258 C 0.68553 0.94796 0.5298 0.0
C259 C 0.71674 0.95775 0.52172 0.0
C260 C 0.74159 0.96608 0.53773 0.0
C261 C 0.73491 0.96445 0.56148 0.0
C262 C 0.65805 0.93947 0.51341 0.0
C263 C 0.77536 0.97592 0.52978 0.0
C264 C 0.72847 0.92636 0.46139 0.0
C265 C 0.71873 0.95285 0.44817 0.0
C266 C 0.73124 0.92859 0.48537 0.0
C267 C 0.72309 0.95777 0.49647 0.0
C268 C 0.71558 0.98525 0.48305 0.0
C269 C 0.71385 0.98253 0.45897 0.0
C270 C 0.74022 0.89893 0.49891 0.0
C271 C 0.70628 0.0167 0.49414 0.0
H272 H 0.65595 0.93804 0.5595 0.0
H273 H 0.75385 0.97071 0.57378 0.0
H274 H 0.65382 0.95946 0.50115 0.0
H275 H 0.66492 0.918 0.50322 0.0
H276 H 0.63464 0.9343 0.52248 0.0
H277 H 0.79148 0.9831 0.54431 0.0
H278 H 0.78709 0.95564 0.52054 0.0
H279 H 0.77362 0.99621 0.5175 0.0
H280 H 0.73253 0.90343 0.45304 0.0
H281 H 0.70611 1.00301 0.4488 0.0
H282 H 0.71781 0.88877 0.50694 0.0
H283 H 0.75764 0.90493 0.51293 0.0
H284 H 0.75141 0.88015 0.48785 0.0
H285 H 0.6812 0.01466 0.50144 0.0
H286 H 0.70646 0.03685 0.48163 0.0
H287 H 0.72319 0.02254 0.50849 0.0
C288 C 0.29502 0.98422 0.05942 0.0
C289 C 0.28939 0.95507 0.07078 0.0
C290 C 0.29295 0.98618 0.03531 0.0
C291 C 0.2843 0.95851 0.02246 0.0
C292 C 0.27538 0.92999 0.03415 0.0
C293 C 0.27854 0.92847 0.05813 0.0
C294 C 0.30313 0.01692 0.02358 0.0
C295 C 0.26516 0.90019 0.02123 0.0
C296 C 0.27189 0.96367 0.95743 0.0
C297 C 0.3021 0.95199 0.94943 0.0
C298 C 0.26553 0.9661 0.98119 0.0
C299 C 0.29028 0.95743 0.99718 0.0
C300 C 0.32104 0.94639 0.98907 0.0
C301 C 0.32638 0.94345 0.9654 0.0
C302 C 0.2322 0.97724 0.98918 0.0
C303 C 0.34842 0.93745 1.00543 0.0
H304 H 0.30365 1.00475 0.06915 0.0
H305 H 0.27395 0.90595 0.06693 0.0
H306 H 0.32801 0.01381 0.01616 0.0
H307 H 0.28621 0.02282 1.00925 0.0
H308 H 0.30382 0.03749 0.03573 0.0
H309 H 0.25344 0.88222 0.03271 0.0
H310 H 0.24779 0.90629 1.0072 0.0
H311 H 0.28709 0.88897 0.01328 0.0
H312 H 0.25303 0.97026 0.94515 0.0
H313 H 0.34996 0.93483 0.95936 0.0
H314 H 0.23478 0.99801 1.00097 0.0
H315 H 0.22005 0.95773 0.99898 0.0
H316 H 0.21605 0.98426 0.97463 0.0
H317 H 0.35354 0.95767 0.01732 0.0
H318 H 0.3715 0.93119 0.99631 0.0
H319 H 0.34092 0.91656 0.01602 0.0
C320 C 0.68333 0.07917 0.96471 0.0
C321 C 0.70831 0.0724 0.94888 0.0
C322 C 0.68819 0.07507 0.98835 0.0
C323 C 0.71915 0.06471 0.99658 0.0
C324 C 0.74458 0.05776 0.98072 0.0
C325 C 0.73871 0.06128 0.95696 0.0
C326 C 0.66009 0.08213 1.00453 0.0
C327 C 0.77812 0.04741 0.98887 0.0
C328 C 0.72828 0.09122 0.05829 0.0
C329 C 0.7182 0.06366 0.07018 0.0
C330 C 0.73209 0.09093 0.03434 0.0
C331 C 0.72459 0.06265 0.02189 0.0
C332 C 0.71672 0.0341 0.03399 0.0
C333 C 0.714 0.03487 0.05809 0.0
C334 C 0.74144 0.12167 0.02225 0.0
C335 C 0.70805 1.00356 0.02143 0.0
H336 H 0.65961 0.08731 0.95857 0.0
H337 H 0.75808 0.05604 0.94477 0.0
H338 H 0.65556 0.06117 0.01588 0.0
H339 H 0.66647 0.10278 0.01571 0.0
H340 H 0.63698 0.0879 0.99526 0.0
H341 H 0.79475 0.04142 0.97438 0.0
H342 H 0.78943 0.06696 0.99912 0.0
H343 H 0.77605 0.02617 1.00028 0.0
H344 H 0.7318 0.11347 0.06766 0.0
H345 H 0.70598 0.01358 0.06725 0.0
H346 H 0.71929 0.13242 0.01423 0.0
H347 H 0.75939 0.11686 1.00834 0.0
H348 H 0.75215 0.13953 0.03429 0.0
H349 H 0.68322 1.00608 0.01376 0.0
H350 H 0.70792 0.98243 0.03309 0.0
H351 H 0.7255 0.99898 1.0072 0.0
C352 C 0.79298 0.53948 0.56326 0.0
C353 C 0.78734 0.56917 0.57386 0.0
C354 C 0.79162 0.53646 0.5392 0.0
C355 C 0.78362 0.5636 0.52557 0.0
C356 C 0.77469 0.59273 0.53646 0.0
C357 C 0.77722 0.59532 0.56044 0.0
C358 C 0.80187 0.50512 0.52835 0.0
C359 C 0.76507 0.62199 0.5227 0.0
C360 C 0.82685 0.57558 0.46854 0.0
C361 C 0.8028 0.56638 0.4526 0.0
C362 C 0.82108 0.57382 0.49223 0.0
C363 C 0.79009 0.56338 0.50034 0.0
C364 C 0.76559 0.55401 0.48437 0.0
C365 C 0.77241 0.55519 0.46063 0.0
C366 C 0.84821 0.5834 0.50858 0.0
C367 C 0.73203 0.54352 0.49233 0.0
H368 H 0.80111 0.51931 0.5736 0.0
H369 H 0.77266 0.61827 0.56864 0.0
H370 H 0.78521 0.49861 0.51401 0.0
H371 H 0.82691 0.50776 0.52108 0.0
H372 H 0.80222 0.48514 0.541 0.0
H373 H 0.75327 0.6406 0.53359 0.0
H374 H 0.78728 0.63263 0.51472 0.0
H375 H 0.74796 0.61538 0.50863 0.0
H376 H 0.85054 0.58384 0.46246 0.0
H377 H 0.75372 0.54814 0.44835 0.0
H378 H 0.85289 0.56381 0.52109 0.0
H379 H 0.84071 0.60492 0.51849 0.0
H380 H 0.87153 0.58894 0.49952 0.0
H381 H 0.73421 0.52343 0.50476 0.0
H382 H 0.71613 0.53578 0.47784 0.0
H383 H 0.71981 0.56366 0.50142 0.0
C384 C 0.23628 0.45942 0.56232 0.0
C385 C 0.20392 0.45444 0.56967 0.0
C386 C 0.24379 0.46092 0.53868 0.0
C387 C 0.21818 0.45825 0.52225 0.0
C388 C 0.18534 0.4548 0.5298 0.0
C389 C 0.17873 0.45248 0.55334 0.0
C390 C 0.27914 0.46394 0.5313 0.0
C391 C 0.1571 0.45266 0.51299 0.0
C392 C 0.22253 0.48282 0.45953 0.0
C393 C 0.22136 0.45274 0.44873 0.0
C394 C 0.22409 0.48523 0.48362 0.0
C395 C 0.22516 0.4569 0.49711 0.0
C396 C 0.22719 0.42664 0.4861 0.0
C397 C 0.22484 0.42491 0.46207 0.0
C398 C 0.22152 0.51794 0.49461 0.0
C399 C 0.22917 0.39585 0.49974 0.0
H400 H 0.25578 0.46081 0.57497 0.0
H401 H 0.15362 0.44904 0.55903 0.0
H402 H 0.28713 0.44118 0.52312 0.0
H403 H 0.28189 0.48324 0.5183 0.0
H404 H 0.29572 0.46911 0.54602 0.0
H405 H 0.13286 0.45275 0.52173 0.0
H406 H 0.15792 0.47311 0.50077 0.0
H407 H 0.15917 0.43025 0.50281 0.0
H408 H 0.21975 0.50441 0.44929 0.0
H409 H 0.22434 0.4016 0.45377 0.0
H410 H 0.23879 0.52015 0.50927 0.0
H411 H 0.19632 0.52125 0.50144 0.0
H412 H 0.22659 0.53753 0.48215 0.0
H413 H 0.24728 0.39814 0.51389 0.0
H414 H 0.23612 0.37507 0.48881 0.0
H415 H 0.20492 0.39074 0.5076 0.0
C416 C 0.77125 0.46691 0.96009 0.0
C417 C 0.80242 0.45725 0.95257 0.0
C418 C 0.76424 0.46938 0.98377 0.0
C419 C 0.78926 0.46282 1.0001 0.0
C420 C 0.82111 0.45451 0.9924 0.0
C421 C 0.82712 0.45146 0.96883 0.0
C422 C 0.72987 0.47771 0.9913 0.0
C423 C 0.84879 0.448 1.00908 0.0
C424 C 0.79042 0.48672 0.063 0.0
C425 C 0.78725 0.4566 0.07352 0.0
C426 C 0.78835 0.48983 0.03895 0.0
C427 C 0.78237 0.46226 0.02528 0.0
C428 C 0.7758 0.4325 0.03612 0.0
C429 C 0.77874 0.42995 0.06007 0.0
C430 C 0.79575 0.52196 0.02813 0.0
C431 C 0.76855 0.40263 0.02233 0.0
H432 H 0.75211 0.47136 0.94753 0.0
H433 H 0.85141 0.44447 0.96307 0.0
H434 H 0.71836 0.45636 0.99938 0.0
H435 H 0.73035 0.49702 1.00442 0.0
H436 H 0.71425 0.48556 0.97668 0.0
H437 H 0.87268 0.44438 1.00025 0.0
H438 H 0.85138 0.46826 0.02132 0.0
H439 H 0.84324 0.42613 0.01926 0.0
H440 H 0.79712 0.50737 0.07333 0.0
H441 H 0.77591 0.40667 0.06819 0.0
H442 H 0.7789 0.52686 0.01357 0.0
H443 H 0.82113 0.52168 0.02122 0.0
H444 H 0.79381 0.54187 0.04076 0.0
H445 H 0.75084 0.40793 1.00833 0.0
H446 H 0.75843 0.38308 0.03321 0.0
H447 H 0.79153 0.39386 0.01425 0.0
C448 C 0.17958 0.56948 0.05274 0.0
C449 C 0.20389 0.56291 0.06913 0.0
C450 C 0.1859 0.56661 0.0292 0.0
C451 C 0.21767 0.55771 0.02168 0.0
C452 C 0.24226 0.55036 0.03815 0.0
C453 C 0.23493 0.55265 0.06178 0.0
C454 C 0.15863 0.57395 0.01235 0.0
C455 C 0.27657 0.54141 0.03082 0.0
C456 C 0.2171 0.53436 0.95869 0.0
C457 C 0.22095 0.56451 0.94832 0.0
C458 C 0.21869 0.53102 0.98274 0.0
C459 C 0.22496 0.55837 0.99656 0.0
C460 C 0.23228 0.5881 0.98589 0.0
C461 C 0.22969 0.59091 0.96194 0.0
C462 C 0.21041 0.49897 0.99335 0.0
C463 C 0.23995 0.61769 0.99987 0.0
H464 H 0.1554 0.57697 0.05838 0.0
H465 H 0.25378 0.54764 0.07445 0.0
H466 H 0.16481 0.59586 1.00241 0.0
H467 H 0.15582 0.55394 0.99993 0.0
H468 H 0.13468 0.5779 0.02103 0.0
H469 H 0.29178 0.53304 0.0455 0.0
H470 H 0.27589 0.52229 0.01756 0.0
H471 H 0.28866 0.56262 0.02298 0.0
H472 H 0.21016 0.51393 0.94822 0.0
H473 H 0.23297 0.61421 0.95392 0.0
H474 H 0.18492 0.49974 1.00005 0.0
H475 H 0.22689 0.49359 1.00803 0.0
H476 H 0.21212 0.47912 0.98066 0.0
H477 H 0.21702 0.62691 1.00777 0.0
H478 H 0.25071 0.6371 0.98916 0.0
H479 H 0.25727 0.61191 0.014 0.0
C480 C 0.56072 0.95513 0.38725 0.0
C481 C 0.58572 0.96528 0.37242 0.0
C482 C 0.52959 0.96989 0.38681 0.0
C483 C 0.5231 0.9947 0.3707 0.0
C484 C 0.54784 1.00379 0.35492 0.0
C485 C 0.57896 0.98937 0.35623 0.0
C486 C 0.50415 0.95994 0.40426 0.0
C487 C 0.54172 0.02931 0.33698 0.0
C488 C 0.43343 0.0155 0.35931 0.0
C489 C 0.42951 0.04384 0.37206 0.0
C490 C 0.4639 0.9997 0.35824 0.0
C491 C 0.49089 0.01192 0.37085 0.0
C492 C 0.48711 0.04067 0.38365 0.0
C493 C 0.45659 0.05654 0.38381 0.0
C494 C 0.46711 0.96981 0.34375 0.0
C495 C 0.51504 0.05418 0.39772 0.0
H496 H 0.56601 0.93683 0.39998 0.0
H497 H 0.59825 0.99721 0.34469 0.0
H498 H 0.49801 0.9807 0.41542 0.0
H499 H 0.4812 0.95251 0.39549 0.0
H500 H 0.51273 0.93984 0.41529 0.0
H501 H 0.56248 0.03158 0.32472 0.0
H502 H 0.51905 0.02374 0.32716 0.0
H503 H 0.53793 0.05287 0.34544 0.0
H504 H 0.41256 1.00565 0.35013 0.0
H505 H 0.45356 0.0782 0.39393 0.0
H506 H 0.47288 0.9489 0.35485 0.0
H507 H 0.48771 0.97254 0.33144 0.0
H508 H 0.44434 0.96447 0.33395 0.0
H509 H 0.52339 0.03604 0.41042 0.0
H510 H 0.50797 0.07639 0.40705 0.0
H511 H 0.53623 0.0597 0.38644 0.0
C512 C 0.43148 0.9943 0.15927 0.0
C513 C 0.42446 0.96876 0.14433 0.0
C514 C 0.46284 1.00829 0.16005 0.0
C515 C 0.48766 0.99715 0.14502 0.0
C516 C 0.48085 0.97104 0.13009 0.0
C517 C 0.44944 0.95684 0.13015 0.0
C518 C 0.46925 0.03531 0.17676 0.0
C519 C 0.50641 0.95881 0.1135 0.0
C520 C 0.55761 0.05489 0.13075 0.0
C521 C 0.58346 0.0421 0.14376 0.0
C522 C 0.52635 0.04039 0.13087 0.0
C523 C 0.5206 0.01301 0.14483 0.0
C524 C 0.54637 1.00079 0.15864 0.0
C525 C 0.57754 0.01517 0.15767 0.0
C526 C 0.49974 0.05382 0.11557 0.0
C527 C 0.54111 0.97236 0.17432 0.0
H528 H 0.41225 1.00353 0.17031 0.0
H529 H 0.44399 0.93739 0.11838 0.0
H530 H 0.49108 0.02973 0.18747 0.0
H531 H 0.4747 0.05774 0.16721 0.0
H532 H 0.44801 0.03978 0.18828 0.0
H533 H 0.49732 0.93834 0.10305 0.0
H534 H 0.51393 0.97847 0.10174 0.0
H535 H 0.52866 0.95102 0.12298 0.0
H536 H 0.56217 0.07545 0.11977 0.0
H537 H 0.59743 1.00527 0.16785 0.0
H538 H 0.47823 0.06102 0.12604 0.0
H539 H 0.49127 0.03504 0.10341 0.0
H540 H 0.5082 0.07497 0.10556 0.0
H541 H 0.52017 0.97705 0.18603 0.0
H542 H 0.56318 0.96684 0.18484 0.0
H543 H 0.5348 0.95082 0.16401 0.0
C544 C 0.5576 0.97265 0.65981 0.0
C545 C 0.58166 0.98619 0.64558 0.0
C546 C 0.5258 0.98585 0.66091 0.0
C547 C 0.51757 0.01252 0.64686 0.0
C548 C 0.54185 0.02623 0.63249 0.0
C549 C 0.57366 0.01323 0.63231 0.0
C550 C 0.5009 0.97107 0.67693 0.0
C551 C 0.53395 0.05395 0.61667 0.0
C552 C 0.42795 0.02236 0.62986 0.0
C553 C 0.41819 0.04879 0.64313 0.0
C554 C 0.4602 1.01057 0.63081 0.0
C555 C 0.48312 0.02483 0.646 0.0
C556 C 0.47328 0.05127 0.65974 0.0
C557 C 0.44104 0.06332 0.65784 0.0
C558 C 0.46984 0.98309 0.61528 0.0
C559 C 0.49668 0.06656 0.67661 0.0
H560 H 0.56374 0.95192 0.67023 0.0
H561 H 0.59207 0.02366 0.62112 0.0
H562 H 0.48968 0.98992 0.68787 0.0
H563 H 0.48083 0.9599 0.66683 0.0
H564 H 0.51193 0.95243 0.6882 0.0
H565 H 0.55573 0.06218 0.60682 0.0
H566 H 0.51455 0.04667 0.60433 0.0
H567 H 0.52423 0.07451 0.62667 0.0
H568 H 0.4104 0.0112 0.61834 0.0
H569 H 0.43346 0.08356 0.66827 0.0
H570 H 0.47793 0.96224 0.6257 0.0
H571 H 0.49088 0.99031 0.60432 0.0
H572 H 0.44935 0.97529 0.60397 0.0
H573 H 0.50631 0.04809 0.68861 0.0
H574 H 0.48485 0.08594 0.68677 0.0
H575 H 0.51803 0.07684 0.66736 0.0
C576 C 0.57793 0.01975 0.8848 0.0
C577 C 0.58647 0.04679 0.87172 0.0
C578 C 0.54608 1.00693 0.88408 0.0
C579 C 0.52232 0.02081 0.86934 0.0
C580 C 0.53105 0.04759 0.85556 0.0
C581 C 0.56289 0.06063 0.85722 0.0
C582 C 0.53763 0.97906 0.89962 0.0
C583 C 0.50672 0.06251 0.83916 0.0
C584 C 0.44737 0.96844 0.85725 0.0
C585 C 0.42398 0.98196 0.87202 0.0
C586 C 0.47912 0.98163 0.85547 0.0
C587 C 0.48797 1.00823 0.86938 0.0
C588 C 0.4644 0.02182 0.88436 0.0
C589 C 0.43261 1.00886 0.88521 0.0
C590 C 0.50324 0.96702 0.83881 0.0
C591 C 0.473 0.04948 0.90004 0.0
H592 H 0.59598 1.00912 0.8962 0.0
H593 H 0.56947 0.08137 0.84694 0.0
H594 H 0.51743 0.98602 0.91138 0.0
H595 H 0.52881 0.95842 0.88929 0.0
H596 H 0.55892 0.97106 0.9101 0.0
H597 H 0.51803 0.08154 0.82838 0.0
H598 H 0.49623 0.0438 0.82773 0.0
H599 H 0.48605 0.0732 0.84891 0.0
H600 H 0.44071 0.94782 0.84689 0.0
H601 H 0.4147 0.01924 0.89681 0.0
H602 H 0.524 0.9561 0.84837 0.0
H603 H 0.51363 0.98594 0.82752 0.0
H604 H 0.49178 0.94822 0.8279 0.0
H605 H 0.49331 0.04234 0.91169 0.0
H606 H 0.45182 0.05735 0.91064 0.0
H607 H 0.48176 0.07025 0.88981 0.0
C608 C 0.94991 0.55071 0.3616 0.0
C609 C 0.92576 0.53692 0.37562 0.0
C610 C 0.98155 0.53715 0.36017 0.0
C611 C 0.98952 0.50986 0.37369 0.0
C612 C 0.96517 0.49599 0.38791 0.0
C613 C 0.93354 0.50937 0.38842 0.0
C614 C 0.00654 0.55215 0.34433 0.0
C615 C 0.97279 0.46765 0.40321 0.0
C616 C 0.06537 0.4584 0.36174 0.0
C617 C 0.08844 0.4722 0.37663 0.0
C618 C 0.03327 0.47093 0.36009 0.0
C619 C 0.02381 0.49708 0.37425 0.0
C620 C 0.04694 0.51051 0.38967 0.0
C621 C 0.07902 0.49828 0.39038 0.0
C622 C 0.00963 0.4565 0.34299 0.0
C623 C 0.03772 0.53761 0.40567 0.0
H624 H 0.94393 0.57183 0.35153 0.0
H625 H 0.91506 0.49874 0.39945 0.0
H626 H 0.02686 0.56266 0.35455 0.0
H627 H 0.01739 0.53355 0.33299 0.0
H628 H 0.9957 0.57136 0.33345 0.0
H629 H 0.95099 0.4594 0.41303 0.0
H630 H 0.98212 0.44729 0.39282 0.0
H631 H 0.99241 0.47424 0.41559 0.0
H632 H 0.07271 0.43847 0.35092 0.0
H633 H 0.09675 0.50889 0.40203 0.0
H634 H 1.00033 0.47547 0.33127 0.0
H635 H 0.9881 0.44632 0.35209 0.0
H636 H 0.02115 0.43723 0.33256 0.0
H637 H 0.02996 0.55891 0.3956 0.0
H638 H 0.05832 0.54474 0.4171 0.0
H639 H 0.01658 0.53035 0.41651 0.0
C640 C 0.05263 0.55758 0.13569 0.0
C641 C 0.07941 0.54457 0.14762 0.0
C642 C 0.02178 0.54236 0.13604 0.0
C643 C 0.01736 0.51401 0.14921 0.0
C644 C 0.04404 0.50157 0.16203 0.0
C645 C 0.07484 0.51668 0.16078 0.0
C646 C 0.99418 0.55607 0.12175 0.0
C647 C 0.04016 0.4721 0.17691 0.0
C648 C 0.92889 0.49311 0.1639 0.0
C649 C 0.92188 0.4687 0.14803 0.0
C650 C 0.96019 0.50717 0.16506 0.0
C651 C 0.98486 0.49735 0.14945 0.0
C652 C 0.97808 0.47226 0.13364 0.0
C653 C 0.94677 0.45789 0.13336 0.0
C654 C 0.96662 0.53302 0.18269 0.0
C655 C 0.00345 0.46153 0.11639 0.0
H656 H 0.05617 0.57888 0.12527 0.0
H657 H 0.09549 0.50661 0.17009 0.0
H658 H 0.98562 0.53786 0.10918 0.0
H659 H 0.97299 0.56212 0.13289 0.0
H660 H 1.00168 0.57801 0.11224 0.0
H661 H 0.06273 0.46666 0.18691 0.0
H662 H 0.01946 0.47546 0.18905 0.0
H663 H 0.0342 0.45101 0.16605 0.0
H664 H 0.90969 0.50144 0.17533 0.0
H665 H 0.94129 0.43931 0.12089 0.0
H666 H 0.97095 0.55629 0.17394 0.0
H667 H 0.98908 0.52727 0.19269 0.0
H668 H 0.94579 0.53596 0.19482 0.0
H669 H 0.01012 0.48197 0.10507 0.0
H670 H 0.99456 0.44142 0.10551 0.0
H671 H 0.02617 0.4538 0.12533 0.0
C672 C 0.94563 0.56609 0.63285 0.0
C673 C 0.9212 0.55534 0.64793 0.0
C674 C 0.97712 0.55214 0.63298 0.0
C675 C 0.98461 0.52762 0.64909 0.0
C676 C 0.96042 0.51789 0.66511 0.0
C677 C 0.92886 0.53142 0.66404 0.0
C678 C 1.00189 0.56262 0.61522 0.0
C679 C 0.96764 0.49269 0.68308 0.0
C680 C 0.05221 0.46724 0.63548 0.0
C681 C 0.07928 0.48065 0.64683 0.0
C682 C 0.02138 0.48245 0.63588 0.0
C683 C 0.01724 0.51121 0.6486 0.0
C684 C 0.04429 0.52423 0.66075 0.0
C685 C 0.07511 0.50912 0.65938 0.0
C686 C 0.99344 0.46818 0.62221 0.0
C687 C 0.04071 0.55416 0.67516 0.0
H688 H 0.93962 0.58429 0.6202 0.0
H689 H 0.91 0.52316 0.67578 0.0
H690 H 0.02479 0.57081 0.6237 0.0
H691 H 0.00842 0.54194 0.6041 0.0
H692 H 0.99248 0.58235 0.60417 0.0
H693 H 0.94724 0.49002 0.69559 0.0
H694 H 0.97185 0.46915 0.67468 0.0
H695 H 0.99038 0.49893 0.6926 0.0
H696 H 0.05544 0.44546 0.62554 0.0
H697 H 0.09598 0.51948 0.66825 0.0
H698 H 0.98414 0.48609 0.60966 0.0
H699 H 0.97278 0.46201 0.63379 0.0
H700 H 1.00088 0.44621 0.61274 0.0
H701 H 0.03401 0.57481 0.66408 0.0
H702 H 0.06363 0.56017 0.68459 0.0
H703 H 0.02058 0.55097 0.6878 0.0
C704 C 0.06162 0.56201 0.88928 0.0
C705 C 0.0862 0.55064 0.87456 0.0
C706 C 0.02996 0.54845 0.88901 0.0
C707 C 0.02245 0.52371 0.87309 0.0
C708 C 0.04684 0.51329 0.85746 0.0
C709 C 0.07855 0.52645 0.85868 0.0
C710 C 0.00496 0.55968 0.90637 0.0
C711 C 0.03962 0.48783 0.83969 0.0
C712 C 0.95324 0.46505 0.88663 0.0
C713 C 0.92671 0.47886 0.87489 0.0
C714 C 0.98444 0.47953 0.88633 0.0
C715 C 0.98949 0.50792 0.87334 0.0
C716 C 0.96301 0.52127 0.86075 0.0
C717 C 0.93182 0.50691 0.86202 0.0
C718 C 0.01175 0.46496 0.90046 0.0
C719 C 0.96758 0.55079 0.84603 0.0
H720 H 0.0676 0.58044 0.90176 0.0
H721 H 0.09751 0.51773 0.84719 0.0
H722 H 0.98249 0.56825 0.89752 0.0
H723 H 0.99765 0.53928 0.91753 0.0
H724 H 0.01451 0.57934 0.9174 0.0
H725 H 0.06032 0.48447 0.82751 0.0
H726 H 0.03466 0.46458 0.8483 0.0
H727 H 0.0173 0.49431 0.82977 0.0
H728 H 0.94927 0.4436 0.89682 0.0
H729 H 0.91136 0.51758 0.85285 0.0
H730 H 0.02103 0.48288 0.913 0.0
H731 H 0.0326 0.45828 0.8892 0.0
H732 H 0.00366 0.44325 0.90999 0.0
H733 H 0.97427 0.57158 0.85697 0.0
H734 H 0.94507 0.55696 0.83618 0.0
H735 H 0.98804 0.54699 0.83376 0.0
C736 C 0.23985 0.32971 0.35349 0.0
C737 C 0.21375 0.33207 0.36915 0.0
C738 C 0.25822 0.30116 0.35145 0.0
C739 C 0.25063 0.27446 0.3656 0.0
C740 C 0.22351 0.27635 0.38077 0.0
C741 C 0.20535 0.30497 0.38225 0.0
C742 C 0.28653 0.30001 0.33477 0.0
C743 C 0.21461 0.24862 0.3963 0.0
C744 C 0.28355 0.18986 0.35504 0.0
C745 C 0.30948 0.18818 0.37091 0.0
C746 C 0.26507 0.21823 0.35232 0.0
C747 C 0.27236 0.24546 0.36602 0.0
C748 C 0.2992 0.24419 0.3815 0.0
C749 C 0.3175 0.21572 0.38364 0.0
C750 C 0.23704 0.21871 0.33534 0.0
C751 C 0.30772 0.27247 0.39661 0.0
H752 H 0.24651 0.35045 0.34325 0.0
H753 H 0.18528 0.30645 0.39441 0.0
H754 H 0.31002 0.29914 0.34441 0.0
H755 H 0.28518 0.27794 0.32414 0.0
H756 H 0.28698 0.32124 0.32321 0.0
H757 H 0.19176 0.25321 0.40618 0.0
H758 H 0.21129 0.22638 0.3861 0.0
H759 H 0.23489 0.24418 0.40864 0.0
H760 H 0.27719 0.16878 0.34507 0.0
H761 H 0.33742 0.21474 0.39598 0.0
H762 H 0.23863 0.2403 0.32422 0.0
H763 H 0.21339 0.22004 0.34472 0.0
H764 H 0.23674 0.19698 0.32428 0.0
H765 H 0.31137 0.29431 0.38601 0.0
H766 H 0.33028 0.26823 0.40692 0.0
H767 H 0.2871 0.27741 0.40854 0.0
C768 C 0.70295 0.79923 0.38541 0.0
C769 C 0.70984 0.82595 0.3715 0.0
C770 C 0.72107 0.77065 0.38348 0.0
C771 C 0.74657 0.76838 0.36703 0.0
C772 C 0.75262 0.79469 0.35215 0.0
C773 C 0.73435 0.82323 0.35467 0.0
C774 C 0.71386 0.74335 0.39982 0.0
C775 C 0.77917 0.79311 0.33413 0.0
C776 C 0.81471 0.70963 0.38252 0.0
C777 C 0.80511 0.68179 0.37071 0.0
C778 C 0.79654 0.73824 0.3808 0.0
C779 C 0.76821 0.73932 0.36668 0.0
C780 C 0.75933 0.71178 0.35378 0.0
C781 C 0.77772 0.6833 0.35607 0.0
C782 C 0.80681 0.76687 0.39502 0.0
C783 C 0.72967 0.71203 0.33823 0.0
H784 H 0.68413 0.801 0.3985 0.0
H785 H 0.73983 0.84367 0.34379 0.0
H786 H 0.70931 0.72088 0.3901 0.0
H787 H 0.73546 0.7391 0.41105 0.0
H788 H 0.69222 0.74828 0.41087 0.0
H789 H 0.77848 0.8141 0.32234 0.0
H790 H 0.80358 0.79239 0.34258 0.0
H791 H 0.7767 0.77082 0.32383 0.0
H792 H 0.83577 0.70878 0.3939 0.0
H793 H 0.77015 0.66198 0.3468 0.0
H794 H 0.78762 0.77217 0.40799 0.0
H795 H 0.80929 0.78844 0.38397 0.0
H796 H 0.83046 0.76281 0.4041 0.0
H797 H 0.70702 0.71363 0.34874 0.0
H798 H 0.72819 0.69009 0.32743 0.0
H799 H 0.73019 0.7334 0.32683 0.0
C800 C 0.19426 0.71393 0.13489 0.0
C801 C 0.20267 0.68613 0.14721 0.0
C802 C 0.21289 0.74222 0.13678 0.0
C803 C 0.24054 0.74303 0.15156 0.0
C804 C 0.24828 0.71554 0.16488 0.0
C805 C 0.2294 0.68737 0.16245 0.0
C806 C 0.2038 0.77084 0.12214 0.0
C807 C 0.27723 0.71548 0.18108 0.0
C808 C 0.30717 0.80217 0.13391 0.0
C809 C 0.29987 0.82911 0.14747 0.0
C810 C 0.28881 0.7737 0.13568 0.0
C811 C 0.26259 0.77182 0.1516 0.0
C812 C 0.25613 0.79833 0.16618 0.0
C813 C 0.27471 0.82672 0.16386 0.0
C814 C 0.29653 0.74616 0.1197 0.0
C815 C 0.22876 0.79719 0.18361 0.0
H816 H 0.1737 0.71331 0.12305 0.0
H817 H 0.23608 0.66609 0.17211 0.0
H818 H 0.20102 0.79254 0.133 0.0
H819 H 0.22375 0.77576 0.10965 0.0
H820 H 0.1806 0.767 0.11246 0.0
H821 H 0.27793 0.69358 0.19197 0.0
H822 H 0.30036 0.71676 0.17108 0.0
H823 H 0.27646 0.73691 0.1924 0.0
H824 H 0.32652 0.80367 0.12118 0.0
H825 H 0.26888 0.84733 0.17447 0.0
H826 H 0.27552 0.74214 0.10789 0.0
H827 H 0.30016 0.7237 0.12963 0.0
H828 H 0.31885 0.75067 0.10924 0.0
H829 H 0.20475 0.79672 0.17462 0.0
H830 H 0.2292 0.81823 0.19534 0.0
H831 H 0.23046 0.77493 0.19403 0.0
C832 C 0.72951 0.18704 0.16573 0.0
C833 C 0.7037 0.18498 0.14978 0.0
C834 C 0.74754 0.21568 0.16846 0.0
C835 C 0.73982 0.24281 0.15477 0.0
C836 C 0.71284 0.24127 0.13943 0.0
C837 C 0.69508 0.21251 0.13721 0.0
C838 C 0.77578 0.21642 0.18526 0.0
C839 C 0.70374 0.26951 0.12442 0.0
C840 C 0.77237 0.32725 0.1664 0.0
C841 C 0.7979 0.32958 0.15029 0.0
C842 C 0.75419 0.29866 0.1689 0.0
C843 C 0.76148 0.27185 0.1548 0.0
C844 C 0.78811 0.27367 0.13922 0.0
C845 C 0.80602 0.30237 0.13724 0.0
C846 C 0.72633 0.2976 0.18595 0.0
C847 C 0.79675 0.24578 0.12378 0.0
H848 H 0.73636 0.16597 0.17556 0.0
H849 H 0.67518 0.21128 0.12486 0.0
H850 H 0.79931 0.21737 0.1757 0.0
H851 H 0.77448 0.23828 0.19611 0.0
H852 H 0.77609 0.19495 0.19659 0.0
H853 H 0.68082 0.26521 0.11453 0.0
H854 H 0.70047 0.29139 0.13503 0.0
H855 H 0.72391 0.2744 0.1121 0.0
H856 H 0.76592 0.34807 0.17661 0.0
H857 H 0.8257 0.30381 0.12475 0.0
H858 H 0.7279 0.27555 0.19661 0.0
H859 H 0.70259 0.29679 0.17661 0.0
H860 H 0.72625 0.31887 0.19747 0.0
H861 H 0.80038 0.22367 0.1341 0.0
H862 H 0.81935 0.25031 0.11361 0.0
H863 H 0.77619 0.24113 0.1117 0.0
C864 C 0.69116 0.81148 0.63888 0.0
C865 C 0.70077 0.83928 0.65075 0.0
C866 C 0.70948 0.78293 0.64043 0.0
C867 C 0.73796 0.78189 0.65442 0.0
C868 C 0.74685 0.80937 0.66735 0.0
C869 C 0.72831 0.83778 0.66524 0.0
C870 C 0.69919 0.75433 0.62619 0.0
C871 C 0.77668 0.80917 0.68276 0.0
C872 C 0.77246 0.69831 0.66669 0.0
C873 C 0.79703 0.69566 0.64989 0.0
C874 C 0.75387 0.72667 0.66903 0.0
C875 C 0.75966 0.75288 0.65402 0.0
C876 C 0.78517 0.75068 0.63757 0.0
C877 C 0.80362 0.72226 0.63581 0.0
C878 C 0.72731 0.72819 0.68706 0.0
C879 C 0.79212 0.77789 0.6211 0.0
H880 H 0.67 0.81236 0.62759 0.0
H881 H 0.7359 0.85906 0.67455 0.0
H882 H 0.71829 0.74916 0.61312 0.0
H883 H 0.6969 0.73271 0.63721 0.0
H884 H 0.67545 0.75835 0.61723 0.0
H885 H 0.77828 0.83114 0.69352 0.0
H886 H 0.77626 0.78784 0.69419 0.0
H887 H 0.79921 0.80752 0.67214 0.0
H888 H 0.76718 0.67794 0.67769 0.0
H889 H 0.82246 0.72052 0.62273 0.0
H890 H 0.7029 0.72897 0.6786 0.0
H891 H 0.7298 0.75045 0.69739 0.0
H892 H 0.72799 0.70717 0.69881 0.0
H893 H 0.7704 0.78198 0.60995 0.0
H894 H 0.81369 0.77298 0.60997 0.0
H895 H 0.79666 0.80044 0.63072 0.0
C896 C 0.22373 0.33238 0.66375 0.0
C897 C 0.19763 0.33415 0.64801 0.0
C898 C 0.24229 0.30405 0.66627 0.0
C899 C 0.23493 0.27694 0.65249 0.0
C900 C 0.20792 0.27827 0.63714 0.0
C901 C 0.18952 0.30672 0.63521 0.0
C902 C 0.27049 0.30351 0.6831 0.0
C903 C 0.19932 0.25008 0.62197 0.0
C904 C 0.30218 0.21765 0.63625 0.0
C905 C 0.29399 0.19061 0.64948 0.0
C906 C 0.28379 0.24615 0.63762 0.0
C907 C 0.25668 0.24796 0.6528 0.0
C908 C 0.24926 0.22131 0.66704 0.0
C909 C 0.26785 0.1929 0.6651 0.0
C910 C 0.2925 0.27383 0.622 0.0
C911 C 0.22096 0.2224 0.68373 0.0
H912 H 0.23015 0.3534 0.67378 0.0
H913 H 0.1695 0.3078 0.62295 0.0
H914 H 0.26897 0.28191 0.69422 0.0
H915 H 0.29405 0.30215 0.67361 0.0
H916 H 0.27095 0.32522 0.69419 0.0
H917 H 0.17666 0.25435 0.61178 0.0
H918 H 0.21984 0.24525 0.60993 0.0
H919 H 0.19581 0.22816 0.63252 0.0
H920 H 0.32225 0.21618 0.62409 0.0
H921 H 0.26134 0.1722 0.67544 0.0
H922 H 0.29588 0.29611 0.63217 0.0
H923 H 0.27208 0.27822 0.60975 0.0
H924 H 0.31526 0.26926 0.61202 0.0
H925 H 0.22236 0.24441 0.69443 0.0
H926 H 0.22049 0.20111 0.69523 0.0
H927 H 0.19746 0.22336 0.67411 0.0
C928 C 0.69893 0.21902 0.88396 0.0
C929 C 0.70789 0.19199 0.87101 0.0
C930 C 0.71752 0.24746 0.8832 0.0
C931 C 0.74558 0.24923 0.86888 0.0
C932 C 0.75389 0.22253 0.85495 0.0
C933 C 0.73512 0.19418 0.85631 0.0
C934 C 0.70789 0.27517 0.89851 0.0
C935 C 0.78322 0.22356 0.83915 0.0
C936 C 0.7795 0.33341 0.85815 0.0
C937 C 0.80495 0.3352 0.87439 0.0
C938 C 0.76078 0.3052 0.85551 0.0
C939 C 0.76726 0.27825 0.86969 0.0
C940 C 0.79351 0.27966 0.88566 0.0
C941 C 0.81213 0.30795 0.88769 0.0
C942 C 0.73344 0.30456 0.83799 0.0
C943 C 0.80114 0.25167 0.90129 0.0
H944 H 0.67805 0.21759 0.89544 0.0
H945 H 0.74221 0.17348 0.84618 0.0
H946 H 0.72761 0.27964 0.91129 0.0
H947 H 0.70504 0.29741 0.88821 0.0
H948 H 0.6846 0.27058 0.90787 0.0
H949 H 0.78457 0.2021 0.82785 0.0
H950 H 0.78233 0.24539 0.82823 0.0
H951 H 0.80609 0.22484 0.84947 0.0
H952 H 0.7738 0.35428 0.84775 0.0
H953 H 0.83162 0.30907 0.90036 0.0
H954 H 0.70942 0.30301 0.84688 0.0
H955 H 0.73568 0.28299 0.82691 0.0
H956 H 0.73342 0.32628 0.8269 0.0
H957 H 0.77985 0.24694 0.91268 0.0
H958 H 0.8231 0.25609 0.91217 0.0
H959 H 0.80537 0.22964 0.89101 0.0
C960 C 0.20299 0.71781 0.88588 0.0
C961 C 0.20963 0.69112 0.87191 0.0
C962 C 0.22109 0.74639 0.88378 0.0
C963 C 0.24631 0.74865 0.86711 0.0
C964 C 0.25213 0.72233 0.85222 0.0
C965 C 0.23389 0.69382 0.85489 0.0
C966 C 0.21413 0.77372 0.90012 0.0
C967 C 0.27838 0.7239 0.83398 0.0
C968 C 0.27683 0.83364 0.85508 0.0
C969 C 0.3046 0.83549 0.86934 0.0
C970 C 0.25845 0.80509 0.85332 0.0
C971 C 0.26775 0.77783 0.86638 0.0
C972 C 0.29643 0.77923 0.88014 0.0
C973 C 0.31458 0.80791 0.88133 0.0
C974 C 0.22838 0.8045 0.83815 0.0
C975 C 0.30716 0.75087 0.89448 0.0
H976 H 0.18439 0.71603 0.89912 0.0
H977 H 0.23919 0.67339 0.84398 0.0
H978 H 0.23596 0.77811 0.9111 0.0
H979 H 0.20927 0.79613 0.89039 0.0
H980 H 0.19276 0.76875 0.91143 0.0
H981 H 0.27772 0.70276 0.82235 0.0
H982 H 0.27552 0.74603 0.82354 0.0
H983 H 0.30292 0.72499 0.84223 0.0
H984 H 0.26896 0.85475 0.84567 0.0
H985 H 0.33592 0.80906 0.89244 0.0
H986 H 0.20603 0.80278 0.84896 0.0
H987 H 0.2288 0.78307 0.82684 0.0
H988 H 0.22642 0.82635 0.82728 0.0
H989 H 0.28827 0.74567 0.9077 0.0
H990 H 0.33097 0.75518 0.90327 0.0
H991 H 0.3095 0.72915 0.88358 0.0
C992 C 0.26367 0.04738 0.30638 0.0
C993 C 0.28472 0.02835 0.31971 0.0
C994 C 0.25808 0.04018 0.28306 0.0
C995 C 0.2754 0.01449 0.27262 0.0
C996 C 0.29604 0.9948 0.28626 0.0
C997 C 0.29982 1.00155 0.30972 0.0
C998 C 0.23462 0.06077 0.26942 0.0
C999 C 0.31606 0.968 0.27579 0.0
C1000 C 0.2602 0.97906 0.21321 0.0
C1001 C 0.28291 0.99622 0.19995 0.0
C1002 C 0.25548 0.98646 0.23659 0.0
C1003 C 0.27526 1.01031 0.24715 0.0
C1004 C 0.2977 0.0281 0.2336 0.0
C1005 C 0.30067 0.02132 0.2101 0.0
C1006 C 0.23014 0.96805 0.25015 0.0
C1007 C 0.32027 0.05282 0.24418 0.0
H1008 H 0.25189 0.06806 0.31412 0.0
H1009 H 0.31646 0.98705 0.31993 0.0
H1010 H 0.24865 0.07744 0.25828 0.0
H1011 H 0.21907 0.04565 0.25808 0.0
H1012 H 0.21847 0.07526 0.28076 0.0
H1013 H 0.33042 0.95452 0.28886 0.0
H1014 H 0.29988 0.95086 0.26662 0.0
H1015 H 0.33338 0.9781 0.26297 0.0
H1016 H 0.24637 0.95972 0.20535 0.0
H1017 H 0.31858 0.03434 0.19994 0.0
H1018 H 0.21603 0.98451 0.26143 0.0
H1019 H 0.2425 0.9502 0.26134 0.0
H1020 H 0.21274 0.95506 0.23875 0.0
H1021 H 0.30581 0.0715 0.2532 0.0
H1022 H 0.3361 0.06477 0.23121 0.0
H1023 H 0.3363 0.04114 0.25716 0.0
C1024 C 0.74898 0.04028 0.21171 0.0
C1025 C 0.72739 0.02136 0.19875 0.0
C1026 C 0.75453 0.03366 0.23513 0.0
C1027 C 0.73666 1.0087 0.24601 0.0
C1028 C 0.71546 0.98909 0.23275 0.0
C1029 C 0.7117 0.99523 0.2092 0.0
C1030 C 0.77855 0.0541 0.24838 0.0
C1031 C 0.69489 0.96306 0.24369 0.0
C1032 C 0.75117 0.97422 0.30578 0.0
C1033 C 0.72876 0.99205 0.31883 0.0
C1034 C 0.75613 0.98112 0.28233 0.0
C1035 C 0.7369 1.0052 0.27153 0.0
C1036 C 0.7149 0.02377 0.28489 0.0
C1037 C 0.71169 0.01742 0.30844 0.0
C1038 C 0.78101 0.96188 0.26898 0.0
C1039 C 0.69293 0.0488 0.27404 0.0
H1040 H 0.76123 0.06043 0.20361 0.0
H1041 H 0.69465 0.98082 0.19927 0.0
H1042 H 0.765 0.07143 0.25928 0.0
H1043 H 0.7938 0.03898 0.25992 0.0
H1044 H 0.79499 0.06787 0.23677 0.0
H1045 H 0.68005 0.9496 0.23089 0.0
H1046 H 0.71074 0.94577 0.25301 0.0
H1047 H 0.67797 0.97389 0.25647 0.0
H1048 H 0.76449 0.95467 0.31381 0.0
H1049 H 0.69402 0.03099 0.31842 0.0
H1050 H 0.7954 0.97775 0.25743 0.0
H1051 H 0.76822 0.94399 0.25808 0.0
H1052 H 0.7982 0.94885 0.28052 0.0
H1053 H 0.7078 0.06681 0.26466 0.0
H1054 H 0.6776 0.06154 0.28691 0.0
H1055 H 0.67642 0.03717 0.26134 0.0
C1056 C 0.74602 0.01598 0.81091 0.0
C1057 C 0.72452 0.04079 0.8171 0.0
C1058 C 0.75002 1.0071 0.78774 0.0
C1059 C 0.73092 0.02242 0.77057 0.0
C1060 C 0.70996 0.04817 0.77674 0.0
C1061 C 0.70753 0.05742 0.79986 0.0
C1062 C 0.7737 0.98052 0.78178 0.0
C1063 C 0.68836 0.06455 0.75917 0.0
C1064 C 0.74368 0.01527 0.70596 0.0
C1065 C 0.72109 0.99113 0.70031 0.0
C1066 C 0.74895 0.02421 0.729 0.0
C1067 C 0.73008 1.00967 0.74661 0.0
C1068 C 0.70792 0.98465 0.74097 0.0
C1069 C 0.70419 0.97529 0.71795 0.0
C1070 C 0.77387 0.04995 0.73439 0.0
C1071 C 0.68653 0.96913 0.75903 0.0
H1072 H 0.7593 1.00316 0.82421 0.0
H1073 H 0.69059 0.07637 0.8046 0.0
H1074 H 0.75985 0.9584 0.77748 0.0
H1075 H 0.78847 0.98713 0.76648 0.0
H1076 H 0.7906 0.975 0.79625 0.0
H1077 H 0.67419 0.0848 0.76664 0.0
H1078 H 0.70336 0.07385 0.74475 0.0
H1079 H 0.67079 0.04689 0.75188 0.0
H1080 H 0.7569 0.02745 0.69235 0.0
H1081 H 0.68644 0.95684 0.71363 0.0
H1082 H 0.78922 0.04275 0.7493 0.0
H1083 H 0.76106 0.07249 0.7391 0.0
H1084 H 0.79015 0.05498 0.71952 0.0
H1085 H 0.70186 0.95912 0.77305 0.0
H1086 H 0.67109 0.94952 0.75189 0.0
H1087 H 0.67015 0.98747 0.76677 0.0
C1088 C 0.26206 0.0112 0.81249 0.0
C1089 C 0.28484 0.98729 0.8183 0.0
C1090 C 0.2569 0.02 0.78941 0.0
C1091 C 0.27608 1.00559 0.77192 0.0
C1092 C 0.29853 0.98087 0.77773 0.0
C1093 C 0.30212 0.97161 0.80078 0.0
C1094 C 0.2317 0.0454 0.78384 0.0
C1095 C 0.32027 0.96554 0.75981 0.0
C1096 C 0.26002 1.01071 0.70761 0.0
C1097 C 0.28107 0.03578 0.7012 0.0
C1098 C 0.25618 1.00213 0.73084 0.0
C1099 C 0.27504 0.01801 0.74787 0.0
C1100 C 0.29557 0.04399 0.74148 0.0
C1101 C 0.2978 0.05295 0.71828 0.0
C1102 C 0.23294 0.97527 0.73704 0.0
C1103 C 0.31694 0.06094 0.75889 0.0
H1104 H 0.24858 0.02327 0.82602 0.0
H1105 H 0.32004 0.95338 0.80523 0.0
H1106 H 0.24424 0.06802 0.77896 0.0
H1107 H 0.21643 0.03784 0.76899 0.0
H1108 H 0.21535 0.05045 0.79868 0.0
H1109 H 0.33607 0.94632 0.7671 0.0
H1110 H 0.30517 0.95508 0.74584 0.0
H1111 H 0.3363 0.98409 0.75195 0.0
H1112 H 0.24695 0.99748 0.69442 0.0
H1113 H 0.3144 0.0721 0.71334 0.0
H1114 H 0.218 0.98194 0.75224 0.0
H1115 H 0.24716 0.95347 0.74161 0.0
H1116 H 0.2162 0.96919 0.7226 0.0
H1117 H 0.30184 0.07016 0.77328 0.0
H1118 H 0.33073 0.08133 0.75126 0.0
H1119 H 0.33485 0.04366 0.76626 0.0
C1120 C 0.79892 0.51844 0.21397 0.0
C1121 C 0.78069 0.49404 0.20338 0.0
C1122 C 0.79623 0.52431 0.23761 0.0
C1123 C 0.77359 0.50632 0.25086 0.0
C1124 C 0.75342 0.48315 0.23991 0.0
C1125 C 0.75786 0.47662 0.21637 0.0
C1126 C 0.81921 0.54831 0.2486 0.0
C1127 C 0.72788 0.4646 0.25318 0.0
C1128 C 0.79782 0.49568 0.31337 0.0
C1129 C 0.78306 0.52245 0.32362 0.0
C1130 C 0.79401 0.48951 0.28982 0.0
C1131 C 0.77368 0.5098 0.27638 0.0
C1132 C 0.75669 0.53546 0.28709 0.0
C1133 C 0.76231 0.54205 0.31049 0.0
C1134 C 0.81371 0.46272 0.27905 0.0
C1135 C 0.73357 0.55669 0.27366 0.0
H1136 H 0.81693 0.53162 0.20401 0.0
H1137 H 0.74371 0.45779 0.20817 0.0
H1138 H 0.80506 0.56699 0.25785 0.0
H1139 H 0.83495 0.53598 0.26145 0.0
H1140 H 0.83534 0.56033 0.23584 0.0
H1141 H 0.71038 0.45207 0.24159 0.0
H1142 H 0.74004 0.44636 0.26415 0.0
H1143 H 0.71389 0.48089 0.26466 0.0
H1144 H 0.81423 0.48077 0.32345 0.0
H1145 H 0.7508 0.56272 0.31845 0.0
H1146 H 0.83133 0.47294 0.26648 0.0
H1147 H 0.79737 0.44613 0.26952 0.0
H1148 H 0.82769 0.44864 0.29199 0.0
H1149 H 0.74786 0.57335 0.26268 0.0
H1150 H 0.71765 0.57121 0.28515 0.0
H1151 H 0.71777 0.54204 0.26217 0.0
C1152 C 0.21022 0.52275 0.3097 0.0
C1153 C 0.22661 0.49666 0.31969 0.0
C1154 C 0.21278 0.5291 0.2861 0.0
C1155 C 0.23344 0.50972 0.27228 0.0
C1156 C 0.25192 0.48473 0.28263 0.0
C1157 C 0.24761 0.47793 0.30614 0.0
C1158 C 0.19159 0.55514 0.27574 0.0
C1159 C 0.27538 0.46452 0.26876 0.0
C1160 C 0.20665 0.50116 0.21013 0.0
C1161 C 0.2235 0.52647 0.19954 0.0
C1162 C 0.21034 0.49494 0.23367 0.0
C1163 C 0.23265 0.51355 0.24678 0.0
C1164 C 0.2515 0.5377 0.23577 0.0
C1165 C 0.24602 0.54451 0.21237 0.0
C1166 C 0.18869 0.46989 0.24477 0.0
C1167 C 0.27668 0.55701 0.24885 0.0
H1168 H 0.19365 0.53702 0.3201 0.0
H1169 H 0.2604 0.45781 0.31388 0.0
H1170 H 0.20692 0.57259 0.26618 0.0
H1171 H 0.17415 0.54435 0.26327 0.0
H1172 H 0.17729 0.56839 0.28892 0.0
H1173 H 0.29211 0.45033 0.27992 0.0
H1174 H 0.26137 0.4476 0.25779 0.0
H1175 H 0.29033 0.4799 0.25722 0.0
H1176 H 0.18886 0.48749 0.20029 0.0
H1177 H 0.2591 0.56406 0.20416 0.0
H1178 H 0.1727 0.48144 0.25781 0.0
H1179 H 0.20385 0.45175 0.25381 0.0
H1180 H 0.17284 0.45732 0.2321 0.0
H1181 H 0.26413 0.57459 0.26013 0.0
H1182 H 0.2933 0.57039 0.23714 0.0
H1183 H 0.29165 0.54109 0.26002 0.0
C1184 C 0.24889 0.51086 0.81132 0.0
C1185 C 0.22813 0.53635 0.81731 0.0
C1186 C 0.25289 0.50176 0.78821 0.0
C1187 C 0.23437 0.51747 0.7709 0.0
C1188 C 0.2143 0.54399 0.77687 0.0
C1189 C 0.212 0.55351 0.79995 0.0
C1190 C 0.27576 0.47443 0.78246 0.0
C1191 C 0.19325 0.56079 0.75919 0.0
C1192 C 0.24613 0.50847 0.70633 0.0
C1193 C 0.22282 0.48481 0.70112 0.0
C1194 C 0.25199 0.51776 0.72923 0.0
C1195 C 0.23289 0.50419 0.74711 0.0
C1196 C 0.20997 0.47964 0.7419 0.0
C1197 C 0.20575 0.4698 0.71903 0.0
C1198 C 0.27778 0.54284 0.73416 0.0
C1199 C 0.18827 0.46522 0.76024 0.0
H1200 H 0.26145 0.49761 0.82474 0.0
H1201 H 0.19559 0.57296 0.80459 0.0
H1202 H 0.26127 0.45251 0.77869 0.0
H1203 H 0.29041 0.48015 0.76692 0.0
H1204 H 0.29278 0.46897 0.79688 0.0
H1205 H 0.1799 0.5817 0.76648 0.0
H1206 H 0.2085 0.56924 0.74463 0.0
H1207 H 0.17497 0.54364 0.75214 0.0
H1208 H 0.25942 0.52004 0.69248 0.0
H1209 H 0.18741 0.45178 0.71501 0.0
H1210 H 0.29284 0.53574 0.74923 0.0
H1211 H 0.26576 0.56599 0.73837 0.0
H1212 H 0.29426 0.54673 0.71922 0.0
H1213 H 0.20342 0.45488 0.77424 0.0
H1214 H 0.17199 0.44607 0.75339 0.0
H1215 H 0.17272 0.48427 0.76795 0.0
C1216 C 0.79545 0.55671 0.72241 0.0
C1217 C 0.77911 0.54005 0.7049 0.0
C1218 C 0.79299 0.54684 0.74541 0.0
C1219 C 0.77254 0.52049 0.75117 0.0
C1220 C 0.7539 0.50526 0.73373 0.0
C1221 C 0.75807 0.51468 0.71068 0.0
C1222 C 0.81421 0.5631 0.76325 0.0
C1223 C 0.73063 0.47815 0.73924 0.0
C1224 C 0.79999 0.47201 0.80304 0.0
C1225 C 0.78305 0.48719 0.82093 0.0
C1226 C 0.79609 0.48205 0.78017 0.0
C1227 C 0.7736 0.50698 0.77493 0.0
C1228 C 0.75458 0.52072 0.79279 0.0
C1229 C 0.76016 0.51124 0.81569 0.0
C1230 C 0.81772 0.46743 0.76188 0.0
C1231 C 0.72922 0.54621 0.78782 0.0
H1232 H 0.8121 0.57604 0.71793 0.0
H1233 H 0.74538 0.50181 0.69714 0.0
H1234 H 0.79899 0.57172 0.77776 0.0
H1235 H 0.83208 0.54556 0.77033 0.0
H1236 H 0.82803 0.58381 0.75609 0.0
H1237 H 0.71364 0.47308 0.72474 0.0
H1238 H 0.7448 0.45601 0.74295 0.0
H1239 H 0.71595 0.48388 0.75477 0.0
H1240 H 0.81802 0.4537 0.80709 0.0
H1241 H 0.74697 0.52295 0.82952 0.0
H1242 H 0.83367 0.4863 0.75433 0.0
H1243 H 0.80254 0.45749 0.74776 0.0
H1244 H 0.83359 0.44796 0.76873 0.0
H1245 H 0.74161 0.56921 0.78372 0.0
H1246 H 0.71268 0.55023 0.80271 0.0
H1247 H 0.71417 0.53942 0.77267 0.0
loop_
_geom_bond_atom_site_label_1
_geom_bond_atom_site_label_2
_geom_bond_distance
_geom_bond_site_symmetry_2
_ccdc_geom_bond_type
O0 Cd1 2.223 . S
O0 C8 1.315 . S
Cd1 O0 2.223 . S
Cd1 O4 2.297 . S
Cd1 O5 2.439 . S
Cd1 O11 2.240 . S
Cd2 O3 2.240 . S
Cd2 O10 2.223 . S
Cd2 O12 2.297 1_545 S
Cd2 O13 2.439 . S
O3 Cd2 2.240 . S
O3 C8 1.279 . S
O4 Cd1 2.297 . S
O4 C6 1.247 . S
O5 Cd1 2.439 . S
O5 C6 1.208 . S
C6 O4 1.247 . S
C6 O5 1.208 . S
C7 O12 1.247 1_545 S
C7 O13 1.208 . S
C8 O0 1.315 . S
C8 O3 1.279 . S
C9 O10 1.315 . S
C9 O11 1.279 . S
O10 Cd2 2.223 . S
O10 C9 1.315 . S
O11 Cd1 2.240 . S
O11 C9 1.279 . S
O12 Cd2 2.297 1_565 S
O12 C7 1.247 1_565 S
O13 Cd2 2.439 . S
O13 C7 1.208 . S
O14 Cd15 2.223 . S
O14 C22 1.315 . S
Cd15 O14 2.223 . S
Cd15 O18 2.297 . S
Cd15 O19 2.439 . S
Cd15 O25 2.240 . S
Cd16 O17 2.240 . S
Cd16 O24 2.223 . S
Cd16 O26 2.297 1_565 S
Cd16 O27 2.439 . S
O17 Cd16 2.240 . S
O17 C22 1.279 . S
O18 Cd15 2.297 . S
O18 C20 1.247 . S
O19 Cd15 2.439 . S
O19 C20 1.208 . S
C20 O18 1.247 . S
C20 O19 1.208 . S
C21 O26 1.247 1_565 S
C21 O27 1.208 . S
C22 O14 1.315 . S
C22 O17 1.279 . S
C23 O24 1.315 . S
C23 O25 1.279 . S
O24 Cd16 2.223 . S
O24 C23 1.315 . S
O25 Cd15 2.240 . S
O25 C23 1.279 . S
O26 Cd16 2.297 1_545 S
O26 C21 1.247 1_545 S
O27 Cd16 2.439 . S
O27 C21 1.208 . S
O28 Cd29 2.223 . S
O28 C36 1.315 . S
Cd29 O28 2.223 . S
Cd29 O32 2.297 . S
Cd29 O33 2.439 . S
Cd29 O39 2.240 . S
Cd30 O31 2.240 . S
Cd30 O38 2.223 . S
Cd30 O40 2.297 1_565 S
Cd30 O41 2.439 . S
O31 Cd30 2.240 . S
O31 C36 1.279 . S
O32 Cd29 2.297 . S
O32 C34 1.247 . S
O33 Cd29 2.439 . S
O33 C34 1.208 . S
C34 O32 1.247 . S
C34 O33 1.208 . S
C35 O40 1.247 1_565 S
C35 O41 1.208 . S
C36 O28 1.315 . S
C36 O31 1.279 . S
C37 O38 1.315 . S
C37 O39 1.279 . S
O38 Cd30 2.223 . S
O38 C37 1.315 . S
O39 Cd29 2.240 . S
O39 C37 1.279 . S
O40 Cd30 2.297 1_545 S
O40 C35 1.247 1_545 S
O41 Cd30 2.439 . S
O41 C35 1.208 . S
O42 Cd43 2.223 . S
O42 C50 1.315 . S
Cd43 O42 2.223 . S
Cd43 O46 2.297 . S
Cd43 O47 2.439 . S
Cd43 O53 2.240 . S
Cd44 O45 2.240 . S
Cd44 O52 2.223 . S
Cd44 O54 2.297 1_545 S
Cd44 O55 2.439 . S
O45 Cd44 2.240 . S
O45 C50 1.279 . S
O46 Cd43 2.297 . S
O46 C48 1.247 . S
O47 Cd43 2.439 . S
O47 C48 1.208 . S
C48 O46 1.247 . S
C48 O47 1.208 . S
C49 O54 1.247 1_545 S
C49 O55 1.208 . S
C50 O42 1.315 . S
C50 O45 1.279 . S
C51 O52 1.315 . S
C51 O53 1.279 . S
O52 Cd44 2.223 . S
O52 C51 1.315 . S
O53 Cd43 2.240 . S
O53 C51 1.279 . S
O54 Cd44 2.297 1_565 S
O54 C49 1.247 1_565 S
O55 Cd44 2.439 . S
O55 C49 1.208 . S
O56 Cd57 2.223 . S
O56 C64 1.315 . S
Cd57 O56 2.223 . S
Cd57 O60 2.297 . S
Cd57 O61 2.439 . S
Cd57 O67 2.240 . S
Cd58 O59 2.240 . S
Cd58 O66 2.223 . S
Cd58 O68 2.297 1_565 S
Cd58 O69 2.439 . S
O59 Cd58 2.240 . S
O59 C64 1.279 . S
O60 Cd57 2.297 . S
O60 C62 1.247 . S
O61 Cd57 2.439 . S
O61 C62 1.208 . S
C62 O60 1.247 . S
C62 O61 1.208 . S
C63 O68 1.247 1_565 S
C63 O69 1.208 . S
C64 O56 1.315 . S
C64 O59 1.279 . S
C65 O66 1.315 . S
C65 O67 1.279 . S
O66 Cd58 2.223 . S
O66 C65 1.315 . S
O67 Cd57 2.240 . S
O67 C65 1.279 . S
O68 Cd58 2.297 1_545 S
O68 C63 1.247 1_545 S
O69 Cd58 2.439 . S
O69 C63 1.208 . S
O70 Cd71 2.223 . S
O70 C78 1.315 . S
Cd71 O70 2.223 . S
Cd71 O74 2.297 . S
Cd71 O75 2.439 . S
Cd71 O81 2.240 . S
Cd72 O73 2.240 . S
Cd72 O80 2.223 . S
Cd72 O82 2.297 1_545 S
Cd72 O83 2.439 . S
O73 Cd72 2.240 . S
O73 C78 1.279 . S
O74 Cd71 2.297 . S
O74 C76 1.247 . S
O75 Cd71 2.439 . S
O75 C76 1.208 . S
C76 O74 1.247 . S
C76 O75 1.208 . S
C77 O82 1.247 1_545 S
C77 O83 1.208 . S
C78 O70 1.315 . S
C78 O73 1.279 . S
C79 O80 1.315 . S
C79 O81 1.279 . S
O80 Cd72 2.223 . S
O80 C79 1.315 . S
O81 Cd71 2.240 . S
O81 C79 1.279 . S
O82 Cd72 2.297 1_565 S
O82 C77 1.247 1_565 S
O83 Cd72 2.439 . S
O83 C77 1.208 . S
O84 Cd85 2.223 . S
O84 C92 1.315 . S
Cd85 O84 2.223 . S
Cd85 O88 2.297 . S
Cd85 O89 2.439 . S
Cd85 O95 2.240 . S
Cd86 O87 2.240 . S
Cd86 O94 2.223 . S
Cd86 O96 2.297 1_545 S
Cd86 O97 2.439 . S
O87 Cd86 2.240 . S
O87 C92 1.279 . S
O88 Cd85 2.297 . S
O88 C90 1.247 . S
O89 Cd85 2.439 . S
O89 C90 1.208 . S
C90 O88 1.247 . S
C90 O89 1.208 . S
C91 O96 1.247 1_545 S
C91 O97 1.208 . S
C92 O84 1.315 . S
C92 O87 1.279 . S
C93 O94 1.315 . S
C93 O95 1.279 . S
O94 Cd86 2.223 . S
O94 C93 1.315 . S
O95 Cd85 2.240 . S
O95 C93 1.279 . S
O96 Cd86 2.297 1_565 S
O96 C91 1.247 1_565 S
O97 Cd86 2.439 . S
O97 C91 1.208 . S
O98 Cd99 2.223 . S
O98 C106 1.315 . S
Cd99 O98 2.223 . S
Cd99 O102 2.297 . S
Cd99 O103 2.439 . S
Cd99 O109 2.240 . S
Cd100 O101 2.240 . S
Cd100 O108 2.223 . S
Cd100 O110 2.297 1_565 S
Cd100 O111 2.439 . S
O101 Cd100 2.240 . S
O101 C106 1.279 . S
O102 Cd99 2.297 . S
O102 C104 1.247 . S
O103 Cd99 2.439 . S
O103 C104 1.208 . S
C104 O102 1.247 . S
C104 O103 1.208 . S
C105 O110 1.247 1_565 S
C105 O111 1.208 . S
C106 O98 1.315 . S
C106 O101 1.279 . S
C107 O108 1.315 . S
C107 O109 1.279 . S
O108 Cd100 2.223 . S
O108 C107 1.315 . S
O109 Cd99 2.240 . S
O109 C107 1.279 . S
O110 Cd100 2.297 1_545 S
O110 C105 1.247 1_545 S
O111 Cd100 2.439 . S
O111 C105 1.208 . S
O112 Cd113 2.223 . S
O112 C120 1.315 . S
Cd113 O112 2.223 . S
Cd113 O116 2.297 . S
Cd113 O117 2.439 . S
Cd113 O123 2.240 . S
Cd114 O115 2.240 . S
Cd114 O122 2.223 . S
Cd114 O124 2.297 . S
Cd114 O125 2.439 . S
O115 Cd114 2.240 . S
O115 C120 1.279 . S
O116 Cd113 2.297 . S
O116 C118 1.247 . S
O117 Cd113 2.439 . S
O117 C118 1.208 . S
C118 O116 1.247 . S
C118 O117 1.208 . S
C119 O124 1.247 . S
C119 O125 1.208 . S
C120 O112 1.315 . S
C120 O115 1.279 . S
C121 O122 1.315 . S
C121 O123 1.279 . S
O122 Cd114 2.223 . S
O122 C121 1.315 . S
O123 Cd113 2.240 . S
O123 C121 1.279 . S
O124 Cd114 2.297 . S
O124 C119 1.247 . S
O125 Cd114 2.439 . S
O125 C119 1.208 . S
O126 Cd127 2.223 . S
O126 C134 1.315 . S
Cd127 O126 2.223 . S
Cd127 O130 2.297 . S
Cd127 O131 2.439 . S
Cd127 O137 2.240 . S
Cd128 O129 2.240 . S
Cd128 O136 2.223 . S
Cd128 O138 2.297 . S
Cd128 O139 2.439 . S
O129 Cd128 2.240 . S
O129 C134 1.279 . S
O130 Cd127 2.297 . S
O130 C132 1.247 . S
O131 Cd127 2.439 . S
O131 C132 1.208 . S
C132 O130 1.247 . S
C132 O131 1.208 . S
C133 O138 1.247 . S
C133 O139 1.208 . S
C134 O126 1.315 . S
C134 O129 1.279 . S
C135 O136 1.315 . S
C135 O137 1.279 . S
O136 Cd128 2.223 . S
O136 C135 1.315 . S
O137 Cd127 2.240 . S
O137 C135 1.279 . S
O138 Cd128 2.297 . S
O138 C133 1.247 . S
O139 Cd128 2.439 . S
O139 C133 1.208 . S
O140 Cd141 2.223 . S
O140 C148 1.315 . S
Cd141 O140 2.223 . S
Cd141 O144 2.297 . S
Cd141 O145 2.439 . S
Cd141 O151 2.240 . S
Cd142 O143 2.240 . S
Cd142 O150 2.223 . S
Cd142 O152 2.297 . S
Cd142 O153 2.439 . S
O143 Cd142 2.240 . S
O143 C148 1.279 . S
O144 Cd141 2.297 . S
O144 C146 1.247 . S
O145 Cd141 2.439 . S
O145 C146 1.208 . S
C146 O144 1.247 . S
C146 O145 1.208 . S
C147 O152 1.247 . S
C147 O153 1.208 . S
C148 O140 1.315 . S
C148 O143 1.279 . S
C149 O150 1.315 . S
C149 O151 1.279 . S
O150 Cd142 2.223 . S
O150 C149 1.315 . S
O151 Cd141 2.240 . S
O151 C149 1.279 . S
O152 Cd142 2.297 . S
O152 C147 1.247 . S
O153 Cd142 2.439 . S
O153 C147 1.208 . S
O154 Cd155 2.223 . S
O154 C162 1.315 . S
Cd155 O154 2.223 . S
Cd155 O158 2.297 . S
Cd155 O159 2.439 . S
Cd155 O165 2.240 . S
Cd156 O157 2.240 . S
Cd156 O164 2.223 . S
Cd156 O166 2.297 . S
Cd156 O167 2.439 . S
O157 Cd156 2.240 . S
O157 C162 1.279 . S
O158 Cd155 2.297 . S
O158 C160 1.247 . S
O159 Cd155 2.439 . S
O159 C160 1.208 . S
C160 O158 1.247 . S
C160 O159 1.208 . S
C161 O166 1.247 . S
C161 O167 1.208 . S
C162 O154 1.315 . S
C162 O157 1.279 . S
C163 O164 1.315 . S
C163 O165 1.279 . S
O164 Cd156 2.223 . S
O164 C163 1.315 . S
O165 Cd155 2.240 . S
O165 C163 1.279 . S
O166 Cd156 2.297 . S
O166 C161 1.247 . S
O167 Cd156 2.439 . S
O167 C161 1.208 . S
O168 Cd169 2.223 . S
O168 C176 1.315 . S
Cd169 O168 2.223 . S
Cd169 O172 2.297 . S
Cd169 O173 2.439 . S
Cd169 O179 2.240 . S
Cd170 O171 2.240 . S
Cd170 O178 2.223 . S
Cd170 O180 2.297 . S
Cd170 O181 2.439 . S
O171 Cd170 2.240 . S
O171 C176 1.279 . S
O172 Cd169 2.297 . S
O172 C174 1.247 . S
O173 Cd169 2.439 . S
O173 C174 1.208 . S
C174 O172 1.247 . S
C174 O173 1.208 . S
C175 O180 1.247 . S
C175 O181 1.208 . S
C176 O168 1.315 . S
C176 O171 1.279 . S
C177 O178 1.315 . S
C177 O179 1.279 . S
O178 Cd170 2.223 . S
O178 C177 1.315 . S
O179 Cd169 2.240 . S
O179 C177 1.279 . S
O180 Cd170 2.297 . S
O180 C175 1.247 . S
O181 Cd170 2.439 . S
O181 C175 1.208 . S
O182 Cd183 2.223 . S
O182 C190 1.315 . S
Cd183 O182 2.223 . S
Cd183 O186 2.297 . S
Cd183 O187 2.439 . S
Cd183 O193 2.240 . S
Cd184 O185 2.240 . S
Cd184 O192 2.223 . S
Cd184 O194 2.297 . S
Cd184 O195 2.439 . S
O185 Cd184 2.240 . S
O185 C190 1.279 . S
O186 Cd183 2.297 . S
O186 C188 1.247 . S
O187 Cd183 2.439 . S
O187 C188 1.208 . S
C188 O186 1.247 . S
C188 O187 1.208 . S
C189 O194 1.247 . S
C189 O195 1.208 . S
C190 O182 1.315 . S
C190 O185 1.279 . S
C191 O192 1.315 . S
C191 O193 1.279 . S
O192 Cd184 2.223 . S
O192 C191 1.315 . S
O193 Cd183 2.240 . S
O193 C191 1.279 . S
O194 Cd184 2.297 . S
O194 C189 1.247 . S
O195 Cd184 2.439 . S
O195 C189 1.208 . S
O196 Cd197 2.223 . S
O196 C204 1.315 . S
Cd197 O196 2.223 . S
Cd197 O200 2.297 . S
Cd197 O201 2.439 . S
Cd197 O207 2.240 . S
Cd198 O199 2.240 . S
Cd198 O206 2.223 . S
Cd198 O208 2.297 . S
Cd198 O209 2.439 . S
O199 Cd198 2.240 . S
O199 C204 1.279 . S
O200 Cd197 2.297 . S
O200 C202 1.247 . S
O201 Cd197 2.439 . S
O201 C202 1.208 . S
C202 O200 1.247 . S
C202 O201 1.208 . S
C203 O208 1.247 . S
C203 O209 1.208 . S
C204 O196 1.315 . S
C204 O199 1.279 . S
C205 O206 1.315 . S
C205 O207 1.279 . S
O206 Cd198 2.223 . S
O206 C205 1.315 . S
O207 Cd197 2.240 . S
O207 C205 1.279 . S
O208 Cd198 2.297 . S
O208 C203 1.247 . S
O209 Cd198 2.439 . S
O209 C203 1.208 . S
O210 Cd211 2.223 . S
O210 C218 1.315 . S
Cd211 O210 2.223 . S
Cd211 O214 2.297 . S
Cd211 O215 2.439 . S
Cd211 O221 2.240 . S
Cd212 O213 2.240 . S
Cd212 O220 2.223 . S
Cd212 O222 2.297 . S
Cd212 O223 2.439 . S
O213 Cd212 2.240 . S
O213 C218 1.279 . S
O214 Cd211 2.297 . S
O214 C216 1.247 . S
O215 Cd211 2.439 . S
O215 C216 1.208 . S
C216 O214 1.247 . S
C216 O215 1.208 . S
C217 O222 1.247 . S
C217 O223 1.208 . S
C218 O210 1.315 . S
C218 O213 1.279 . S
C219 O220 1.315 . S
C219 O221 1.279 . S
O220 Cd212 2.223 . S
O220 C219 1.315 . S
O221 Cd211 2.240 . S
O221 C219 1.279 . S
O222 Cd212 2.297 . S
O222 C217 1.247 . S
O223 Cd212 2.439 . S
O223 C217 1.208 . S
C224 C225 1.391 . S
C224 C226 1.394 . S
C224 H240 0.931 . S
C225 C224 1.391 . S
C225 C229 1.376 . S
C226 C224 1.394 . S
C226 C227 1.369 . S
C226 C230 1.531 . S
C227 C226 1.369 . S
C227 C228 1.410 . S
C227 C235 1.503 . S
C228 C227 1.410 . S
C228 C229 1.392 . S
C228 C231 1.511 . S
C229 C225 1.376 . S
C229 C228 1.392 . S
C229 H241 0.929 . S
C230 C226 1.531 . S
C230 H242 0.960 . S
C230 H243 0.962 . S
C230 H244 0.960 . S
C231 C228 1.511 . S
C231 H245 0.961 . S
C231 H246 0.961 . S
C231 H247 0.961 . S
C232 C233 1.370 . S
C232 C234 1.363 . S
C232 H248 0.931 . S
C233 C232 1.370 . S
C233 C237 1.408 . S
C234 C232 1.363 . S
C234 C235 1.370 . S
C234 C238 1.524 . S
C235 C227 1.503 . S
C235 C234 1.370 . S
C235 C236 1.403 . S
C236 C235 1.403 . S
C236 C237 1.404 . S
C236 C239 1.539 1_545 S
C237 C233 1.408 . S
C237 C236 1.404 . S
C237 H249 0.930 . S
C238 C234 1.524 . S
C238 H250 0.956 . S
C238 H251 0.961 . S
C238 H252 0.961 . S
C239 C236 1.539 1_565 S
C239 H253 0.958 . S
C239 H254 0.961 . S
C239 H255 0.960 . S
H240 C224 0.931 . S
H241 C229 0.929 . S
H242 C230 0.960 . S
H243 C230 0.962 . S
H244 C230 0.960 . S
H245 C231 0.961 . S
H246 C231 0.961 . S
H247 C231 0.961 . S
H248 C232 0.931 . S
H249 C237 0.930 . S
H250 C238 0.956 . S
H251 C238 0.961 . S
H252 C238 0.961 . S
H253 C239 0.958 . S
H254 C239 0.961 . S
H255 C239 0.960 . S
C256 C257 1.391 . S
C256 C258 1.394 . S
C256 H272 0.931 . S
C257 C256 1.391 . S
C257 C261 1.376 . S
C258 C256 1.394 . S
C258 C259 1.369 . S
C258 C262 1.531 . S
C259 C258 1.369 . S
C259 C260 1.410 . S
C259 C267 1.503 . S
C260 C259 1.410 . S
C260 C261 1.392 . S
C260 C263 1.511 . S
C261 C257 1.376 . S
C261 C260 1.392 . S
C261 H273 0.929 . S
C262 C258 1.531 . S
C262 H274 0.960 . S
C262 H275 0.962 . S
C262 H276 0.960 1_565 S
C263 C260 1.511 . S
C263 H277 0.961 . S
C263 H278 0.961 . S
C263 H279 0.961 . S
C264 C265 1.370 . S
C264 C266 1.363 . S
C264 H280 0.931 . S
C265 C264 1.370 . S
C265 C269 1.408 . S
C266 C264 1.363 . S
C266 C267 1.370 . S
C266 C270 1.524 . S
C267 C259 1.503 . S
C267 C266 1.370 . S
C267 C268 1.403 . S
C268 C267 1.403 . S
C268 C269 1.404 . S
C268 C271 1.539 1_565 S
C269 C265 1.408 . S
C269 C268 1.404 . S
C269 H281 0.930 . S
C270 C266 1.524 . S
C270 H282 0.956 . S
C270 H283 0.961 . S
C270 H284 0.961 . S
C271 C268 1.539 1_545 S
C271 H285 0.958 . S
C271 H286 0.961 . S
C271 H287 0.960 1_545 S
H272 C256 0.931 . S
H273 C261 0.929 . S
H274 C262 0.960 . S
H275 C262 0.962 . S
H276 C262 0.960 1_545 S
H277 C263 0.961 . S
H278 C263 0.961 . S
H279 C263 0.961 . S
H280 C264 0.931 . S
H281 C269 0.930 . S
H282 C270 0.956 . S
H283 C270 0.961 . S
H284 C270 0.961 . S
H285 C271 0.958 . S
H286 C271 0.961 . S
H287 C271 0.960 1_565 S
C288 C289 1.391 . S
C288 C290 1.394 . S
C288 H304 0.931 . S
C289 C288 1.391 . S
C289 C293 1.376 . S
C290 C288 1.394 . S
C290 C291 1.369 . S
C290 C294 1.531 1_565 S
C291 C290 1.369 . S
C291 C292 1.410 . S
C291 C299 1.503 1_554 S
C292 C291 1.410 . S
C292 C293 1.392 . S
C292 C295 1.511 . S
C293 C289 1.376 . S
C293 C292 1.392 . S
C293 H305 0.929 . S
C294 C290 1.531 1_545 S
C294 H306 0.960 1_554 S
C294 H307 0.962 . S
C294 H308 0.960 . S
C295 C292 1.511 . S
C295 H309 0.961 . S
C295 H310 0.961 1_554 S
C295 H311 0.961 . S
C296 C297 1.370 . S
C296 C298 1.363 . S
C296 H312 0.931 . S
C297 C296 1.370 . S
C297 C301 1.408 . S
C298 C296 1.363 . S
C298 C299 1.370 . S
C298 C302 1.524 . S
C299 C291 1.503 1_556 S
C299 C298 1.370 . S
C299 C300 1.403 . S
C300 C299 1.403 . S
C300 C301 1.404 . S
C300 C303 1.539 . S
C301 C297 1.408 . S
C301 C300 1.404 . S
C301 H313 0.930 . S
C302 C298 1.524 . S
C302 H314 0.984 . S
C302 H315 0.961 1_556 S
C302 H316 0.961 . S
C303 C300 1.539 . S
C303 H317 0.958 . S
C303 H318 0.961 . S
C303 H319 0.970 . S
H304 C288 0.931 . S
H305 C293 0.929 . S
H306 C294 0.960 1_556 S
H307 C294 0.962 . S
H308 C294 0.960 . S
H309 C295 0.961 . S
H310 C295 0.961 1_556 S
H311 C295 0.961 . S
H312 C296 0.931 . S
H313 C301 0.930 . S
H314 C302 0.984 . S
H315 C302 0.961 1_554 S
H316 C302 0.961 . S
H317 C303 0.958 . S
H318 C303 0.961 . S
H319 C303 0.970 . S
C320 C321 1.391 . S
C320 C322 1.394 . S
C320 H336 0.931 . S
C321 C320 1.391 . S
C321 C325 1.376 . S
C322 C320 1.394 . S
C322 C323 1.369 . S
C322 C326 1.531 . S
C323 C322 1.369 . S
C323 C324 1.410 . S
C323 C331 1.503 1_556 S
C324 C323 1.410 . S
C324 C325 1.392 . S
C324 C327 1.511 . S
C325 C321 1.376 . S
C325 C324 1.392 . S
C325 H337 0.929 . S
C326 C322 1.531 . S
C326 H338 0.960 1_556 S
C326 H339 0.962 . S
C326 H340 0.973 . S
C327 C324 1.511 . S
C327 H341 0.961 . S
C327 H342 0.961 1_556 S
C327 H343 0.961 . S
C328 C329 1.370 . S
C328 C330 1.363 . S
C328 H344 0.931 . S
C329 C328 1.370 . S
C329 C333 1.408 . S
C330 C328 1.363 . S
C330 C331 1.370 . S
C330 C334 1.524 . S
C331 C323 1.503 1_554 S
C331 C330 1.370 . S
C331 C332 1.403 . S
C332 C331 1.403 . S
C332 C333 1.404 . S
C332 C335 1.539 1_545 S
C333 C329 1.408 . S
C333 C332 1.404 . S
C333 H345 0.930 . S
C334 C330 1.524 . S
C334 H346 0.956 . S
C334 H347 0.961 1_554 S
C334 H348 0.961 . S
C335 C332 1.539 1_565 S
C335 H349 0.958 . S
C335 H350 0.961 . S
C335 H351 0.963 1_565 S
H336 C320 0.931 . S
H337 C325 0.929 . S
H338 C326 0.960 1_554 S
H339 C326 0.962 . S
H340 C326 0.973 . S
H341 C327 0.961 . S
H342 C327 0.961 1_554 S
H343 C327 0.961 . S
H344 C328 0.931 . S
H345 C333 0.930 . S
H346 C334 0.956 . S
H347 C334 0.961 1_556 S
H348 C334 0.961 . S
H349 C335 0.958 . S
H350 C335 0.961 . S
H351 C335 0.963 1_545 S
C352 C353 1.391 . S
C352 C354 1.394 . S
C352 H368 0.931 . S
C353 C352 1.391 . S
C353 C357 1.376 . S
C354 C352 1.394 . S
C354 C355 1.369 . S
C354 C358 1.531 . S
C355 C354 1.369 . S
C355 C356 1.410 . S
C355 C363 1.503 . S
C356 C355 1.410 . S
C356 C357 1.392 . S
C356 C359 1.511 . S
C357 C353 1.376 . S
C357 C356 1.392 . S
C357 H369 0.929 . S
C358 C354 1.531 . S
C358 H370 0.960 . S
C358 H371 0.962 . S
C358 H372 0.960 . S
C359 C356 1.511 . S
C359 H373 0.961 . S
C359 H374 0.961 . S
C359 H375 0.961 . S
C360 C361 1.370 . S
C360 C362 1.363 . S
C360 H376 0.931 . S
C361 C360 1.370 . S
C361 C365 1.408 . S
C362 C360 1.363 . S
C362 C363 1.370 . S
C362 C366 1.524 . S
C363 C355 1.503 . S
C363 C362 1.370 . S
C363 C364 1.403 . S
C364 C363 1.403 . S
C364 C365 1.404 . S
C364 C367 1.539 . S
C365 C361 1.408 . S
C365 C364 1.404 . S
C365 H377 0.930 . S
C366 C362 1.524 . S
C366 H378 0.956 . S
C366 H379 0.961 . S
C366 H380 0.961 . S
C367 C364 1.539 . S
C367 H381 0.958 . S
C367 H382 0.961 . S
C367 H383 0.960 . S
H368 C352 0.931 . S
H369 C357 0.929 . S
H370 C358 0.960 . S
H371 C358 0.962 . S
H372 C358 0.960 . S
H373 C359 0.961 . S
H374 C359 0.961 . S
H375 C359 0.961 . S
H376 C360 0.931 . S
H377 C365 0.930 . S
H378 C366 0.956 . S
H379 C366 0.961 . S
H380 C366 0.961 . S
H381 C367 0.958 . S
H382 C367 0.961 . S
H383 C367 0.960 . S
C384 C385 1.391 . S
C384 C386 1.394 . S
C384 H400 0.931 . S
C385 C384 1.391 . S
C385 C389 1.376 . S
C386 C384 1.394 . S
C386 C387 1.369 . S
C386 C390 1.531 . S
C387 C386 1.369 . S
C387 C388 1.410 . S
C387 C395 1.503 . S
C388 C387 1.410 . S
C388 C389 1.392 . S
C388 C391 1.511 . S
C389 C385 1.376 . S
C389 C388 1.392 . S
C389 H401 0.929 . S
C390 C386 1.531 . S
C390 H402 0.960 . S
C390 H403 0.962 . S
C390 H404 0.960 . S
C391 C388 1.511 . S
C391 H405 0.961 . S
C391 H406 0.961 . S
C391 H407 0.961 . S
C392 C393 1.370 . S
C392 C394 1.363 . S
C392 H408 0.931 . S
C393 C392 1.370 . S
C393 C397 1.408 . S
C394 C392 1.363 . S
C394 C395 1.370 . S
C394 C398 1.524 . S
C395 C387 1.503 . S
C395 C394 1.370 . S
C395 C396 1.403 . S
C396 C395 1.403 . S
C396 C397 1.404 . S
C396 C399 1.539 . S
C397 C393 1.408 . S
C397 C396 1.404 . S
C397 H409 0.930 . S
C398 C394 1.524 . S
C398 H410 0.956 . S
C398 H411 0.961 . S
C398 H412 0.961 . S
C399 C396 1.539 . S
C399 H413 0.958 . S
C399 H414 0.961 . S
C399 H415 0.960 . S
H400 C384 0.931 . S
H401 C389 0.929 . S
H402 C390 0.960 . S
H403 C390 0.962 . S
H404 C390 0.960 . S
H405 C391 0.961 . S
H406 C391 0.961 . S
H407 C391 0.961 . S
H408 C392 0.931 . S
H409 C397 0.930 . S
H410 C398 0.956 . S
H411 C398 0.961 . S
H412 C398 0.961 . S
H413 C399 0.958 . S
H414 C399 0.961 . S
H415 C399 0.960 . S
C416 C417 1.391 . S
C416 C418 1.394 . S
C416 H432 0.931 . S
C417 C416 1.391 . S
C417 C421 1.376 . S
C418 C416 1.394 . S
C418 C419 1.369 . S
C418 C422 1.531 . S
C419 C418 1.369 . S
C419 C420 1.410 . S
C419 C427 1.503 1_556 S
C420 C419 1.410 . S
C420 C421 1.392 . S
C420 C423 1.511 . S
C421 C417 1.376 . S
C421 C420 1.392 . S
C421 H433 0.929 . S
C422 C418 1.531 . S
C422 H434 0.960 1_556 S
C422 H435 0.962 . S
C422 H436 0.960 . S
C423 C420 1.511 . S
C423 H437 0.961 . S
C423 H438 0.961 1_556 S
C423 H439 0.961 . S
C424 C425 1.370 . S
C424 C426 1.363 . S
C424 H440 0.931 . S
C425 C424 1.370 . S
C425 C429 1.408 . S
C426 C424 1.363 . S
C426 C427 1.370 . S
C426 C430 1.524 . S
C427 C419 1.503 1_554 S
C427 C426 1.370 . S
C427 C428 1.403 . S
C428 C427 1.403 . S
C428 C429 1.404 . S
C428 C431 1.539 . S
C429 C425 1.408 . S
C429 C428 1.404 . S
C429 H441 0.930 . S
C430 C426 1.524 . S
C430 H442 0.956 . S
C430 H443 0.961 1_554 S
C430 H444 0.961 . S
C431 C428 1.539 . S
C431 H445 0.958 . S
C431 H446 0.961 . S
C431 H447 0.970 . S
H432 C416 0.931 . S
H433 C421 0.929 . S
H434 C422 0.960 1_554 S
H435 C422 0.962 . S
H436 C422 0.960 . S
H437 C423 0.961 . S
H438 C423 0.961 1_554 S
H439 C423 0.961 . S
H440 C424 0.931 . S
H441 C429 0.930 . S
H442 C430 0.956 . S
H443 C430 0.961 1_556 S
H444 C430 0.961 . S
H445 C431 0.958 . S
H446 C431 0.961 . S
H447 C431 0.970 . S
C448 C449 1.391 . S
C448 C450 1.394 . S
C448 H464 0.931 . S
C449 C448 1.391 . S
C449 C453 1.376 . S
C450 C448 1.394 . S
C450 C451 1.369 . S
C450 C454 1.531 . S
C451 C450 1.369 . S
C451 C452 1.410 . S
C451 C459 1.503 1_554 S
C452 C451 1.410 . S
C452 C453 1.392 . S
C452 C455 1.511 . S
C453 C449 1.376 . S
C453 C452 1.392 . S
C453 H465 0.929 . S
C454 C450 1.531 . S
C454 H466 0.960 1_554 S
C454 H467 0.962 . S
C454 H468 0.960 . S
C455 C452 1.511 . S
C455 H469 0.961 . S
C455 H470 0.961 1_554 S
C455 H471 0.961 . S
C456 C457 1.370 . S
C456 C458 1.363 . S
C456 H472 0.931 . S
C457 C456 1.370 . S
C457 C461 1.408 . S
C458 C456 1.363 . S
C458 C459 1.370 . S
C458 C462 1.524 . S
C459 C451 1.503 1_556 S
C459 C458 1.370 . S
C459 C460 1.403 . S
C460 C459 1.403 . S
C460 C461 1.404 . S
C460 C463 1.539 . S
C461 C457 1.408 . S
C461 C460 1.404 . S
C461 H473 0.930 . S
C462 C458 1.524 . S
C462 H474 0.956 . S
C462 H475 0.961 1_556 S
C462 H476 0.961 . S
C463 C460 1.539 . S
C463 H477 0.958 . S
C463 H478 0.961 . S
C463 H479 0.970 . S
H464 C448 0.931 . S
H465 C453 0.929 . S
H466 C454 0.960 1_556 S
H467 C454 0.962 . S
H468 C454 0.960 . S
H469 C455 0.961 . S
H470 C455 0.961 1_556 S
H471 C455 0.961 . S
H472 C456 0.931 . S
H473 C461 0.930 . S
H474 C462 0.956 . S
H475 C462 0.961 1_554 S
H476 C462 0.961 . S
H477 C463 0.958 . S
H478 C463 0.961 . S
H479 C463 0.970 . S
C480 C481 1.391 . S
C480 C482 1.394 . S
C480 H496 0.931 . S
C481 C480 1.391 . S
C481 C485 1.376 1_565 S
C482 C480 1.394 . S
C482 C483 1.369 . S
C482 C486 1.531 . S
C483 C482 1.369 . S
C483 C484 1.410 1_565 S
C483 C491 1.503 1_565 S
C484 C483 1.410 1_545 S
C484 C485 1.392 . S
C484 C487 1.511 . S
C485 C481 1.376 1_545 S
C485 C484 1.392 . S
C485 H497 0.929 . S
C486 C482 1.531 . S
C486 H498 0.960 . S
C486 H499 0.962 . S
C486 H500 0.960 . S
C487 C484 1.511 . S
C487 H501 0.961 . S
C487 H502 0.961 . S
C487 H503 0.961 . S
C488 C489 1.370 . S
C488 C490 1.363 . S
C488 H504 0.931 . S
C489 C488 1.370 . S
C489 C493 1.408 . S
C490 C488 1.363 . S
C490 C491 1.370 . S
C490 C494 1.524 . S
C491 C483 1.503 1_545 S
C491 C490 1.370 . S
C491 C492 1.403 . S
C492 C491 1.403 . S
C492 C493 1.404 . S
C492 C495 1.539 . S
C493 C489 1.408 . S
C493 C492 1.404 . S
C493 H505 0.930 . S
C494 C490 1.524 . S
C494 H506 0.956 1_545 S
C494 H507 0.961 . S
C494 H508 0.961 . S
C495 C492 1.539 . S
C495 H509 0.958 1_545 S
C495 H510 0.961 . S
C495 H511 0.960 . S
H496 C480 0.931 . S
H497 C485 0.929 . S
H498 C486 0.960 . S
H499 C486 0.962 . S
H500 C486 0.960 . S
H501 C487 0.961 . S
H502 C487 0.961 . S
H503 C487 0.961 . S
H504 C488 0.931 . S
H505 C493 0.930 . S
H506 C494 0.956 1_565 S
H507 C494 0.961 . S
H508 C494 0.961 . S
H509 C495 0.958 1_565 S
H510 C495 0.961 . S
H511 C495 0.960 . S
C512 C513 1.391 . S
C512 C514 1.394 1_565 S
C512 H528 0.931 1_565 S
C513 C512 1.391 . S
C513 C517 1.376 . S
C514 C512 1.394 1_545 S
C514 C515 1.369 1_545 S
C514 C518 1.531 . S
C515 C514 1.369 1_565 S
C515 C516 1.410 . S
C515 C523 1.503 1_565 S
C516 C515 1.410 . S
C516 C517 1.392 . S
C516 C519 1.511 . S
C517 C513 1.376 . S
C517 C516 1.392 . S
C517 H529 0.929 . S
C518 C514 1.531 . S
C518 H530 0.960 . S
C518 H531 0.962 . S
C518 H532 0.960 . S
C519 C516 1.511 . S
C519 H533 0.961 . S
C519 H534 0.961 . S
C519 H535 0.961 . S
C520 C521 1.370 . S
C520 C522 1.363 . S
C520 H536 0.931 . S
C521 C520 1.370 . S
C521 C525 1.408 . S
C522 C520 1.363 . S
C522 C523 1.370 . S
C522 C526 1.524 . S
C523 C515 1.503 1_545 S
C523 C522 1.370 . S
C523 C524 1.403 1_545 S
C524 C523 1.403 1_565 S
C524 C525 1.404 1_565 S
C524 C527 1.539 . S
C525 C521 1.408 . S
C525 C524 1.404 1_545 S
C525 H537 0.930 1_545 S
C526 C522 1.524 . S
C526 H538 0.956 . S
C526 H539 0.961 . S
C526 H540 0.961 . S
C527 C524 1.539 . S
C527 H541 0.958 . S
C527 H542 0.961 . S
C527 H543 0.960 . S
H528 C512 0.931 1_545 S
H529 C517 0.929 . S
H530 C518 0.960 . S
H531 C518 0.962 . S
H532 C518 0.960 . S
H533 C519 0.961 . S
H534 C519 0.961 . S
H535 C519 0.961 . S
H536 C520 0.931 . S
H537 C525 0.930 1_565 S
H538 C526 0.956 . S
H539 C526 0.961 . S
H540 C526 0.961 . S
H541 C527 0.958 . S
H542 C527 0.961 . S
H543 C527 0.960 . S
C544 C545 1.391 . S
C544 C546 1.394 . S
C544 H560 0.931 . S
C545 C544 1.391 . S
C545 C549 1.376 . S
C546 C544 1.394 . S
C546 C547 1.369 . S
C546 C550 1.531 . S
C547 C546 1.369 . S
C547 C548 1.410 1_565 S
C547 C555 1.503 1_565 S
C548 C547 1.410 1_545 S
C548 C549 1.392 1_545 S
C548 C551 1.511 . S
C549 C545 1.376 . S
C549 C548 1.392 1_565 S
C549 H561 0.929 1_565 S
C550 C546 1.531 . S
C550 H562 0.960 . S
C550 H563 0.962 . S
C550 H564 0.960 . S
C551 C548 1.511 . S
C551 H565 0.961 . S
C551 H566 0.961 . S
C551 H567 0.961 . S
C552 C553 1.370 . S
C552 C554 1.363 1_545 S
C552 H568 0.919 1_545 S
C553 C552 1.370 . S
C553 C557 1.408 . S
C554 C552 1.363 1_565 S
C554 C555 1.370 1_565 S
C554 C558 1.524 . S
C555 C547 1.503 1_545 S
C555 C554 1.370 1_545 S
C555 C556 1.403 . S
C556 C555 1.403 . S
C556 C557 1.404 . S
C556 C559 1.539 . S
C557 C553 1.408 . S
C557 C556 1.404 . S
C557 H569 0.930 . S
C558 C554 1.524 . S
C558 H570 0.956 . S
C558 H571 0.961 . S
C558 H572 0.961 . S
C559 C556 1.539 . S
C559 H573 0.958 . S
C559 H574 0.961 . S
C559 H575 0.960 . S
H560 C544 0.931 . S
H561 C549 0.929 1_545 S
H562 C550 0.960 . S
H563 C550 0.962 . S
H564 C550 0.960 . S
H565 C551 0.961 . S
H566 C551 0.961 . S
H567 C551 0.961 . S
H568 C552 0.919 1_565 S
H569 C557 0.930 . S
H570 C558 0.956 . S
H571 C558 0.961 . S
H572 C558 0.961 . S
H573 C559 0.958 . S
H574 C559 0.961 . S
H575 C559 0.960 . S
C576 C577 1.391 . S
C576 C578 1.394 1_545 S
C576 H592 0.931 1_545 S
C577 C576 1.391 . S
C577 C581 1.376 . S
C578 C576 1.394 1_565 S
C578 C579 1.369 1_565 S
C578 C582 1.531 . S
C579 C578 1.369 1_545 S
C579 C580 1.410 . S
C579 C587 1.503 1_545 S
C580 C579 1.410 . S
C580 C581 1.392 . S
C580 C583 1.511 . S
C581 C577 1.376 . S
C581 C580 1.392 . S
C581 H593 0.929 . S
C582 C578 1.531 . S
C582 H594 0.960 . S
C582 H595 0.962 . S
C582 H596 0.960 . S
C583 C580 1.511 . S
C583 H597 0.961 . S
C583 H598 0.961 . S
C583 H599 0.961 . S
C584 C585 1.370 . S
C584 C586 1.363 . S
C584 H600 0.931 . S
C585 C584 1.370 . S
C585 C589 1.408 . S
C586 C584 1.363 . S
C586 C587 1.370 . S
C586 C590 1.524 . S
C587 C579 1.503 1_565 S
C587 C586 1.370 . S
C587 C588 1.403 1_565 S
C588 C587 1.403 1_545 S
C588 C589 1.404 1_545 S
C588 C591 1.539 . S
C589 C585 1.408 . S
C589 C588 1.404 1_565 S
C589 H601 0.930 . S
C590 C586 1.524 . S
C590 H602 0.956 . S
C590 H603 0.961 . S
C590 H604 0.961 . S
C591 C588 1.539 . S
C591 H605 0.958 . S
C591 H606 0.961 . S
C591 H607 0.960 . S
H592 C576 0.931 1_565 S
H593 C581 0.929 . S
H594 C582 0.960 . S
H595 C582 0.962 . S
H596 C582 0.960 . S
H597 C583 0.961 . S
H598 C583 0.961 . S
H599 C583 0.961 . S
H600 C584 0.931 . S
H601 C589 0.930 . S
H602 C590 0.956 . S
H603 C590 0.961 . S
H604 C590 0.961 . S
H605 C591 0.958 . S
H606 C591 0.961 . S
H607 C591 0.960 . S
C608 C609 1.391 . S
C608 C610 1.394 . S
C608 H624 0.931 . S
C609 C608 1.391 . S
C609 C613 1.376 . S
C610 C608 1.394 . S
C610 C611 1.369 . S
C610 C614 1.531 1_655 S
C611 C610 1.369 . S
C611 C612 1.410 . S
C611 C619 1.503 1_655 S
C612 C611 1.410 . S
C612 C613 1.392 . S
C612 C615 1.511 . S
C613 C609 1.376 . S
C613 C612 1.392 . S
C613 H625 0.929 . S
C614 C610 1.531 1_455 S
C614 H626 0.960 . S
C614 H627 0.962 . S
C614 H628 0.960 1_455 S
C615 C612 1.511 . S
C615 H629 0.961 . S
C615 H630 0.961 . S
C615 H631 0.961 . S
C616 C617 1.370 . S
C616 C618 1.363 . S
C616 H632 0.931 . S
C617 C616 1.370 . S
C617 C621 1.408 . S
C618 C616 1.363 . S
C618 C619 1.370 . S
C618 C622 1.524 . S
C619 C611 1.503 1_455 S
C619 C618 1.370 . S
C619 C620 1.403 . S
C620 C619 1.403 . S
C620 C621 1.404 . S
C620 C623 1.539 . S
C621 C617 1.408 . S
C621 C620 1.404 . S
C621 H633 0.930 . S
C622 C618 1.524 . S
C622 H634 0.956 1_455 S
C622 H635 0.961 1_455 S
C622 H636 0.961 . S
C623 C620 1.539 . S
C623 H637 0.958 . S
C623 H638 0.961 . S
C623 H639 0.960 . S
H624 C608 0.931 . S
H625 C613 0.929 . S
H626 C614 0.960 . S
H627 C614 0.962 . S
H628 C614 0.960 1_655 S
H629 C615 0.961 . S
H630 C615 0.961 . S
H631 C615 0.961 . S
H632 C616 0.931 . S
H633 C621 0.930 . S
H634 C622 0.956 1_655 S
H635 C622 0.961 1_655 S
H636 C622 0.961 . S
H637 C623 0.958 . S
H638 C623 0.961 . S
H639 C623 0.960 . S
C640 C641 1.391 . S
C640 C642 1.394 . S
C640 H656 0.931 . S
C641 C640 1.391 . S
C641 C645 1.376 . S
C642 C640 1.394 . S
C642 C643 1.369 . S
C642 C646 1.531 1_455 S
C643 C642 1.369 . S
C643 C644 1.410 . S
C643 C651 1.503 1_455 S
C644 C643 1.410 . S
C644 C645 1.392 . S
C644 C647 1.511 . S
C645 C641 1.376 . S
C645 C644 1.392 . S
C645 H657 0.929 . S
C646 C642 1.531 1_655 S
C646 H658 0.960 . S
C646 H659 0.962 . S
C646 H660 0.960 1_655 S
C647 C644 1.511 . S
C647 H661 0.961 . S
C647 H662 0.961 . S
C647 H663 0.961 . S
C648 C649 1.370 . S
C648 C650 1.363 . S
C648 H664 0.931 . S
C649 C648 1.370 . S
C649 C653 1.408 . S
C650 C648 1.363 . S
C650 C651 1.370 . S
C650 C654 1.524 . S
C651 C643 1.503 1_655 S
C651 C650 1.370 . S
C651 C652 1.403 . S
C652 C651 1.403 . S
C652 C653 1.404 . S
C652 C655 1.539 . S
C653 C649 1.408 . S
C653 C652 1.404 . S
C653 H665 0.930 . S
C654 C650 1.524 . S
C654 H666 0.956 . S
C654 H667 0.961 1_655 S
C654 H668 0.961 . S
C655 C652 1.539 . S
C655 H669 0.958 . S
C655 H670 0.961 . S
C655 H671 0.960 1_655 S
H656 C640 0.931 . S
H657 C645 0.929 . S
H658 C646 0.960 . S
H659 C646 0.962 . S
H660 C646 0.960 1_455 S
H661 C647 0.961 . S
H662 C647 0.961 . S
H663 C647 0.961 . S
H664 C648 0.931 . S
H665 C653 0.930 . S
H666 C654 0.956 . S
H667 C654 0.961 1_455 S
H668 C654 0.961 . S
H669 C655 0.958 . S
H670 C655 0.961 . S
H671 C655 0.960 1_455 S
C672 C673 1.391 . S
C672 C674 1.394 . S
C672 H688 0.931 . S
C673 C672 1.391 . S
C673 C677 1.376 . S
C674 C672 1.394 . S
C674 C675 1.369 . S
C674 C678 1.531 1_655 S
C675 C674 1.369 . S
C675 C676 1.410 . S
C675 C683 1.503 1_655 S
C676 C675 1.410 . S
C676 C677 1.392 . S
C676 C679 1.511 . S
C677 C673 1.376 . S
C677 C676 1.392 . S
C677 H689 0.929 . S
C678 C674 1.531 1_455 S
C678 H690 0.960 . S
C678 H691 0.962 . S
C678 H692 0.960 1_455 S
C679 C676 1.511 . S
C679 H693 0.961 . S
C679 H694 0.961 . S
C679 H695 0.961 . S
C680 C681 1.370 . S
C680 C682 1.363 . S
C680 H696 0.931 . S
C681 C680 1.370 . S
C681 C685 1.408 . S
C682 C680 1.363 . S
C682 C683 1.370 . S
C682 C686 1.519 1_455 S
C683 C675 1.503 1_455 S
C683 C682 1.370 . S
C683 C684 1.403 . S
C684 C683 1.403 . S
C684 C685 1.404 . S
C684 C687 1.539 . S
C685 C681 1.408 . S
C685 C684 1.404 . S
C685 H697 0.930 . S
C686 C682 1.519 1_655 S
C686 H698 0.958 . S
C686 H699 0.967 . S
C686 H700 0.958 1_655 S
C687 C684 1.539 . S
C687 H701 0.958 . S
C687 H702 0.961 . S
C687 H703 0.960 . S
H688 C672 0.931 . S
H689 C677 0.929 . S
H690 C678 0.960 . S
H691 C678 0.962 . S
H692 C678 0.960 1_655 S
H693 C679 0.961 . S
H694 C679 0.961 . S
H695 C679 0.961 . S
H696 C680 0.931 . S
H697 C685 0.930 . S
H698 C686 0.958 . S
H699 C686 0.967 . S
H700 C686 0.958 1_455 S
H701 C687 0.958 . S
H702 C687 0.961 . S
H703 C687 0.960 . S
C704 C705 1.391 . S
C704 C706 1.394 . S
C704 H720 0.931 . S
C705 C704 1.391 . S
C705 C709 1.376 . S
C706 C704 1.394 . S
C706 C707 1.369 . S
C706 C710 1.531 1_455 S
C707 C706 1.369 . S
C707 C708 1.410 . S
C707 C715 1.503 1_455 S
C708 C707 1.410 . S
C708 C709 1.392 . S
C708 C711 1.511 . S
C709 C705 1.376 . S
C709 C708 1.392 . S
C709 H721 0.929 . S
C710 C706 1.531 1_655 S
C710 H722 0.960 . S
C710 H723 0.962 . S
C710 H724 0.961 . S
C711 C708 1.511 . S
C711 H725 0.961 . S
C711 H726 0.961 . S
C711 H727 0.961 . S
C712 C713 1.370 . S
C712 C714 1.363 . S
C712 H728 0.931 . S
C713 C712 1.370 . S
C713 C717 1.408 . S
C714 C712 1.363 . S
C714 C715 1.370 . S
C714 C718 1.524 . S
C715 C707 1.503 1_655 S
C715 C714 1.370 . S
C715 C716 1.403 . S
C716 C715 1.403 . S
C716 C717 1.404 . S
C716 C719 1.539 . S
C717 C713 1.408 . S
C717 C716 1.404 . S
C717 H729 0.930 . S
C718 C714 1.524 . S
C718 H730 0.955 1_655 S
C718 H731 0.961 1_655 S
C718 H732 0.961 . S
C719 C716 1.539 . S
C719 H733 0.958 . S
C719 H734 0.961 . S
C719 H735 0.960 . S
H720 C704 0.931 . S
H721 C709 0.929 . S
H722 C710 0.960 . S
H723 C710 0.962 . S
H724 C710 0.961 . S
H725 C711 0.961 . S
H726 C711 0.961 . S
H727 C711 0.961 . S
H728 C712 0.931 . S
H729 C717 0.930 . S
H730 C718 0.955 1_455 S
H731 C718 0.961 1_455 S
H732 C718 0.961 . S
H733 C719 0.958 . S
H734 C719 0.961 . S
H735 C719 0.960 . S
C736 C737 1.391 . S
C736 C738 1.394 . S
C736 H752 0.931 . S
C737 C736 1.391 . S
C737 C741 1.376 . S
C738 C736 1.394 . S
C738 C739 1.369 . S
C738 C742 1.531 . S
C739 C738 1.369 . S
C739 C740 1.410 . S
C739 C747 1.503 . S
C740 C739 1.410 . S
C740 C741 1.392 . S
C740 C743 1.511 . S
C741 C737 1.376 . S
C741 C740 1.392 . S
C741 H753 0.929 . S
C742 C738 1.531 . S
C742 H754 0.960 . S
C742 H755 0.962 . S
C742 H756 0.960 . S
C743 C740 1.511 . S
C743 H757 0.961 . S
C743 H758 0.961 . S
C743 H759 0.961 . S
C744 C745 1.370 . S
C744 C746 1.363 . S
C744 H760 0.931 . S
C745 C744 1.370 . S
C745 C749 1.408 . S
C746 C744 1.363 . S
C746 C747 1.370 . S
C746 C750 1.524 . S
C747 C739 1.503 . S
C747 C746 1.370 . S
C747 C748 1.403 . S
C748 C747 1.403 . S
C748 C749 1.404 . S
C748 C751 1.539 . S
C749 C745 1.408 . S
C749 C748 1.404 . S
C749 H761 0.930 . S
C750 C746 1.524 . S
C750 H762 0.956 . S
C750 H763 0.961 . S
C750 H764 0.961 . S
C751 C748 1.539 . S
C751 H765 0.958 . S
C751 H766 0.961 . S
C751 H767 0.960 . S
H752 C736 0.931 . S
H753 C741 0.929 . S
H754 C742 0.960 . S
H755 C742 0.962 . S
H756 C742 0.960 . S
H757 C743 0.961 . S
H758 C743 0.961 . S
H759 C743 0.961 . S
H760 C744 0.931 . S
H761 C749 0.930 . S
H762 C750 0.956 . S
H763 C750 0.961 . S
H764 C750 0.961 . S
H765 C751 0.958 . S
H766 C751 0.961 . S
H767 C751 0.960 . S
C768 C769 1.391 . S
C768 C770 1.394 . S
C768 H784 0.931 . S
C769 C768 1.391 . S
C769 C773 1.376 . S
C770 C768 1.394 . S
C770 C771 1.369 . S
C770 C774 1.531 . S
C771 C770 1.369 . S
C771 C772 1.410 . S
C771 C779 1.503 . S
C772 C771 1.410 . S
C772 C773 1.392 . S
C772 C775 1.511 . S
C773 C769 1.376 . S
C773 C772 1.392 . S
C773 H785 0.929 . S
C774 C770 1.531 . S
C774 H786 0.960 . S
C774 H787 0.962 . S
C774 H788 0.960 . S
C775 C772 1.511 . S
C775 H789 0.961 . S
C775 H790 0.961 . S
C775 H791 0.961 . S
C776 C777 1.370 . S
C776 C778 1.363 . S
C776 H792 0.931 . S
C777 C776 1.370 . S
C777 C781 1.408 . S
C778 C776 1.363 . S
C778 C779 1.370 . S
C778 C782 1.524 . S
C779 C771 1.503 . S
C779 C778 1.370 . S
C779 C780 1.403 . S
C780 C779 1.403 . S
C780 C781 1.404 . S
C780 C783 1.539 . S
C781 C777 1.408 . S
C781 C780 1.404 . S
C781 H793 0.930 . S
C782 C778 1.524 . S
C782 H794 0.956 . S
C782 H795 0.961 . S
C782 H796 0.961 . S
C783 C780 1.539 . S
C783 H797 0.958 . S
C783 H798 0.961 . S
C783 H799 0.960 . S
H784 C768 0.931 . S
H785 C773 0.929 . S
H786 C774 0.960 . S
H787 C774 0.962 . S
H788 C774 0.960 . S
H789 C775 0.961 . S
H790 C775 0.961 . S
H791 C775 0.961 . S
H792 C776 0.931 . S
H793 C781 0.930 . S
H794 C782 0.956 . S
H795 C782 0.961 . S
H796 C782 0.961 . S
H797 C783 0.958 . S
H798 C783 0.961 . S
H799 C783 0.960 . S
C800 C801 1.391 . S
C800 C802 1.394 . S
C800 H816 0.931 . S
C801 C800 1.391 . S
C801 C805 1.376 . S
C802 C800 1.394 . S
C802 C803 1.369 . S
C802 C806 1.531 . S
C803 C802 1.369 . S
C803 C804 1.410 . S
C803 C811 1.503 . S
C804 C803 1.410 . S
C804 C805 1.392 . S
C804 C807 1.511 . S
C805 C801 1.376 . S
C805 C804 1.392 . S
C805 H817 0.929 . S
C806 C802 1.531 . S
C806 H818 0.960 . S
C806 H819 0.962 . S
C806 H820 0.960 . S
C807 C804 1.511 . S
C807 H821 0.961 . S
C807 H822 0.961 . S
C807 H823 0.961 . S
C808 C809 1.370 . S
C808 C810 1.363 . S
C808 H824 0.931 . S
C809 C808 1.370 . S
C809 C813 1.408 . S
C810 C808 1.363 . S
C810 C811 1.370 . S
C810 C814 1.524 . S
C811 C803 1.503 . S
C811 C810 1.370 . S
C811 C812 1.403 . S
C812 C811 1.403 . S
C812 C813 1.404 . S
C812 C815 1.539 . S
C813 C809 1.408 . S
C813 C812 1.404 . S
C813 H825 0.930 . S
C814 C810 1.524 . S
C814 H826 0.956 . S
C814 H827 0.961 . S
C814 H828 0.961 . S
C815 C812 1.539 . S
C815 H829 0.958 . S
C815 H830 0.961 . S
C815 H831 0.960 . S
H816 C800 0.931 . S
H817 C805 0.929 . S
H818 C806 0.960 . S
H819 C806 0.962 . S
H820 C806 0.960 . S
H821 C807 0.961 . S
H822 C807 0.961 . S
H823 C807 0.961 . S
H824 C808 0.931 . S
H825 C813 0.930 . S
H826 C814 0.956 . S
H827 C814 0.961 . S
H828 C814 0.961 . S
H829 C815 0.958 . S
H830 C815 0.961 . S
H831 C815 0.960 . S
C832 C833 1.391 . S
C832 C834 1.394 . S
C832 H848 0.931 . S
C833 C832 1.391 . S
C833 C837 1.376 . S
C834 C832 1.394 . S
C834 C835 1.369 . S
C834 C838 1.531 . S
C835 C834 1.369 . S
C835 C836 1.410 . S
C835 C843 1.503 . S
C836 C835 1.410 . S
C836 C837 1.392 . S
C836 C839 1.511 . S
C837 C833 1.376 . S
C837 C836 1.392 . S
C837 H849 0.929 . S
C838 C834 1.531 . S
C838 H850 0.960 . S
C838 H851 0.962 . S
C838 H852 0.960 . S
C839 C836 1.511 . S
C839 H853 0.961 . S
C839 H854 0.961 . S
C839 H855 0.961 . S
C840 C841 1.370 . S
C840 C842 1.363 . S
C840 H856 0.931 . S
C841 C840 1.370 . S
C841 C845 1.408 . S
C842 C840 1.363 . S
C842 C843 1.370 . S
C842 C846 1.524 . S
C843 C835 1.503 . S
C843 C842 1.370 . S
C843 C844 1.403 . S
C844 C843 1.403 . S
C844 C845 1.404 . S
C844 C847 1.539 . S
C845 C841 1.408 . S
C845 C844 1.404 . S
C845 H857 0.930 . S
C846 C842 1.524 . S
C846 H858 0.956 . S
C846 H859 0.961 . S
C846 H860 0.961 . S
C847 C844 1.539 . S
C847 H861 0.958 . S
C847 H862 0.961 . S
C847 H863 0.960 . S
H848 C832 0.931 . S
H849 C837 0.929 . S
H850 C838 0.960 . S
H851 C838 0.962 . S
H852 C838 0.960 . S
H853 C839 0.961 . S
H854 C839 0.961 . S
H855 C839 0.961 . S
H856 C840 0.931 . S
H857 C845 0.930 . S
H858 C846 0.956 . S
H859 C846 0.961 . S
H860 C846 0.961 . S
H861 C847 0.958 . S
H862 C847 0.961 . S
H863 C847 0.960 . S
C864 C865 1.391 . S
C864 C866 1.394 . S
C864 H880 0.931 . S
C865 C864 1.391 . S
C865 C869 1.376 . S
C866 C864 1.394 . S
C866 C867 1.369 . S
C866 C870 1.531 . S
C867 C866 1.369 . S
C867 C868 1.410 . S
C867 C875 1.503 . S
C868 C867 1.410 . S
C868 C869 1.392 . S
C868 C871 1.511 . S
C869 C865 1.376 . S
C869 C868 1.392 . S
C869 H881 0.929 . S
C870 C866 1.531 . S
C870 H882 0.960 . S
C870 H883 0.962 . S
C870 H884 0.960 . S
C871 C868 1.511 . S
C871 H885 0.961 . S
C871 H886 0.961 . S
C871 H887 0.961 . S
C872 C873 1.370 . S
C872 C874 1.363 . S
C872 H888 0.931 . S
C873 C872 1.370 . S
C873 C877 1.408 . S
C874 C872 1.363 . S
C874 C875 1.370 . S
C874 C878 1.524 . S
C875 C867 1.503 . S
C875 C874 1.370 . S
C875 C876 1.403 . S
C876 C875 1.403 . S
C876 C877 1.404 . S
C876 C879 1.539 . S
C877 C873 1.408 . S
C877 C876 1.404 . S
C877 H889 0.930 . S
C878 C874 1.524 . S
C878 H890 0.956 . S
C878 H891 0.961 . S
C878 H892 0.961 . S
C879 C876 1.539 . S
C879 H893 0.958 . S
C879 H894 0.961 . S
C879 H895 0.960 . S
H880 C864 0.931 . S
H881 C869 0.929 . S
H882 C870 0.960 . S
H883 C870 0.962 . S
H884 C870 0.960 . S
H885 C871 0.961 . S
H886 C871 0.961 . S
H887 C871 0.961 . S
H888 C872 0.931 . S
H889 C877 0.930 . S
H890 C878 0.956 . S
H891 C878 0.961 . S
H892 C878 0.961 . S
H893 C879 0.958 . S
H894 C879 0.961 . S
H895 C879 0.960 . S
C896 C897 1.391 . S
C896 C898 1.394 . S
C896 H912 0.931 . S
C897 C896 1.391 . S
C897 C901 1.376 . S
C898 C896 1.394 . S
C898 C899 1.369 . S
C898 C902 1.531 . S
C899 C898 1.369 . S
C899 C900 1.410 . S
C899 C907 1.503 . S
C900 C899 1.410 . S
C900 C901 1.392 . S
C900 C903 1.511 . S
C901 C897 1.376 . S
C901 C900 1.392 . S
C901 H913 0.929 . S
C902 C898 1.531 . S
C902 H914 0.960 . S
C902 H915 0.962 . S
C902 H916 0.960 . S
C903 C900 1.511 . S
C903 H917 0.961 . S
C903 H918 0.961 . S
C903 H919 0.961 . S
C904 C905 1.370 . S
C904 C906 1.363 . S
C904 H920 0.931 . S
C905 C904 1.370 . S
C905 C909 1.408 . S
C906 C904 1.363 . S
C906 C907 1.370 . S
C906 C910 1.524 . S
C907 C899 1.503 . S
C907 C906 1.370 . S
C907 C908 1.403 . S
C908 C907 1.403 . S
C908 C909 1.404 . S
C908 C911 1.539 . S
C909 C905 1.408 . S
C909 C908 1.404 . S
C909 H921 0.930 . S
C910 C906 1.524 . S
C910 H922 0.956 . S
C910 H923 0.961 . S
C910 H924 0.961 . S
C911 C908 1.539 . S
C911 H925 0.958 . S
C911 H926 0.961 . S
C911 H927 0.960 . S
H912 C896 0.931 . S
H913 C901 0.929 . S
H914 C902 0.960 . S
H915 C902 0.962 . S
H916 C902 0.960 . S
H917 C903 0.961 . S
H918 C903 0.961 . S
H919 C903 0.961 . S
H920 C904 0.931 . S
H921 C909 0.930 . S
H922 C910 0.956 . S
H923 C910 0.961 . S
H924 C910 0.961 . S
H925 C911 0.958 . S
H926 C911 0.961 . S
H927 C911 0.960 . S
C928 C929 1.391 . S
C928 C930 1.394 . S
C928 H944 0.931 . S
C929 C928 1.391 . S
C929 C933 1.376 . S
C930 C928 1.394 . S
C930 C931 1.369 . S
C930 C934 1.531 . S
C931 C930 1.369 . S
C931 C932 1.410 . S
C931 C939 1.503 . S
C932 C931 1.410 . S
C932 C933 1.392 . S
C932 C935 1.511 . S
C933 C929 1.376 . S
C933 C932 1.392 . S
C933 H945 0.929 . S
C934 C930 1.531 . S
C934 H946 0.960 . S
C934 H947 0.962 . S
C934 H948 0.960 . S
C935 C932 1.511 . S
C935 H949 0.961 . S
C935 H950 0.961 . S
C935 H951 0.961 . S
C936 C937 1.370 . S
C936 C938 1.363 . S
C936 H952 0.931 . S
C937 C936 1.370 . S
C937 C941 1.408 . S
C938 C936 1.363 . S
C938 C939 1.370 . S
C938 C942 1.524 . S
C939 C931 1.503 . S
C939 C938 1.370 . S
C939 C940 1.403 . S
C940 C939 1.403 . S
C940 C941 1.404 . S
C940 C943 1.539 . S
C941 C937 1.408 . S
C941 C940 1.404 . S
C941 H953 0.930 . S
C942 C938 1.524 . S
C942 H954 0.956 . S
C942 H955 0.961 . S
C942 H956 0.961 . S
C943 C940 1.539 . S
C943 H957 0.958 . S
C943 H958 0.961 . S
C943 H959 0.960 . S
H944 C928 0.931 . S
H945 C933 0.929 . S
H946 C934 0.960 . S
H947 C934 0.962 . S
H948 C934 0.960 . S
H949 C935 0.961 . S
H950 C935 0.961 . S
H951 C935 0.961 . S
H952 C936 0.931 . S
H953 C941 0.930 . S
H954 C942 0.956 . S
H955 C942 0.961 . S
H956 C942 0.961 . S
H957 C943 0.958 . S
H958 C943 0.961 . S
H959 C943 0.960 . S
C960 C961 1.391 . S
C960 C962 1.394 . S
C960 H976 0.931 . S
C961 C960 1.391 . S
C961 C965 1.376 . S
C962 C960 1.394 . S
C962 C963 1.369 . S
C962 C966 1.531 . S
C963 C962 1.369 . S
C963 C964 1.410 . S
C963 C971 1.503 . S
C964 C963 1.410 . S
C964 C965 1.392 . S
C964 C967 1.511 . S
C965 C961 1.376 . S
C965 C964 1.392 . S
C965 H977 0.929 . S
C966 C962 1.531 . S
C966 H978 0.960 . S
C966 H979 0.962 . S
C966 H980 0.960 . S
C967 C964 1.511 . S
C967 H981 0.961 . S
C967 H982 0.961 . S
C967 H983 0.961 . S
C968 C969 1.370 . S
C968 C970 1.363 . S
C968 H984 0.931 . S
C969 C968 1.370 . S
C969 C973 1.408 . S
C970 C968 1.363 . S
C970 C971 1.370 . S
C970 C974 1.524 . S
C971 C963 1.503 . S
C971 C970 1.370 . S
C971 C972 1.403 . S
C972 C971 1.403 . S
C972 C973 1.404 . S
C972 C975 1.539 . S
C973 C969 1.408 . S
C973 C972 1.404 . S
C973 H985 0.930 . S
C974 C970 1.524 . S
C974 H986 0.956 . S
C974 H987 0.961 . S
C974 H988 0.961 . S
C975 C972 1.539 . S
C975 H989 0.958 . S
C975 H990 0.961 . S
C975 H991 0.960 . S
H976 C960 0.931 . S
H977 C965 0.929 . S
H978 C966 0.960 . S
H979 C966 0.962 . S
H980 C966 0.960 . S
H981 C967 0.961 . S
H982 C967 0.961 . S
H983 C967 0.961 . S
H984 C968 0.931 . S
H985 C973 0.930 . S
H986 C974 0.956 . S
H987 C974 0.961 . S
H988 C974 0.961 . S
H989 C975 0.958 . S
H990 C975 0.961 . S
H991 C975 0.960 . S
C992 C993 1.391 . S
C992 C994 1.394 . S
C992 H1008 0.931 . S
C993 C992 1.391 . S
C993 C997 1.376 1_545 S
C994 C992 1.394 . S
C994 C995 1.369 . S
C994 C998 1.531 . S
C995 C994 1.369 . S
C995 C996 1.410 1_545 S
C995 C1003 1.498 1_545 S
C996 C995 1.410 1_565 S
C996 C997 1.392 . S
C996 C999 1.511 . S
C997 C993 1.376 1_565 S
C997 C996 1.392 . S
C997 H1009 0.929 . S
C998 C994 1.531 . S
C998 H1010 0.960 . S
C998 H1011 0.962 . S
C998 H1012 0.960 . S
C999 C996 1.511 . S
C999 H1013 0.961 . S
C999 H1014 0.961 . S
C999 H1015 0.961 . S
C1000 C1001 1.370 . S
C1000 C1002 1.363 . S
C1000 H1016 0.931 . S
C1001 C1000 1.370 . S
C1001 C1005 1.408 1_565 S
C1002 C1000 1.363 . S
C1002 C1003 1.384 . S
C1002 C1006 1.524 . S
C1003 C995 1.498 1_565 S
C1003 C1002 1.384 . S
C1003 C1004 1.395 1_565 S
C1004 C1003 1.395 1_545 S
C1004 C1005 1.404 . S
C1004 C1007 1.539 . S
C1005 C1001 1.408 1_545 S
C1005 C1004 1.404 . S
C1005 H1017 0.930 . S
C1006 C1002 1.524 . S
C1006 H1018 0.956 . S
C1006 H1019 0.961 . S
C1006 H1020 0.961 . S
C1007 C1004 1.539 . S
C1007 H1021 0.958 . S
C1007 H1022 0.961 . S
C1007 H1023 0.960 . S
H1008 C992 0.931 . S
H1009 C997 0.929 . S
H1010 C998 0.960 . S
H1011 C998 0.962 . S
H1012 C998 0.960 . S
H1013 C999 0.961 . S
H1014 C999 0.961 . S
H1015 C999 0.961 . S
H1016 C1000 0.931 . S
H1017 C1005 0.930 . S
H1018 C1006 0.956 . S
H1019 C1006 0.961 . S
H1020 C1006 0.961 . S
H1021 C1007 0.958 . S
H1022 C1007 0.961 . S
H1023 C1007 0.960 . S
C1024 C1025 1.391 . S
C1024 C1026 1.394 . S
C1024 H1040 0.931 . S
C1025 C1024 1.391 . S
C1025 C1029 1.376 1_545 S
C1026 C1024 1.394 . S
C1026 C1027 1.369 . S
C1026 C1030 1.531 . S
C1027 C1026 1.369 . S
C1027 C1028 1.410 1_545 S
C1027 C1035 1.496 1_545 S
C1028 C1027 1.410 1_565 S
C1028 C1029 1.392 . S
C1028 C1031 1.511 . S
C1029 C1025 1.376 1_565 S
C1029 C1028 1.392 . S
C1029 H1041 0.929 . S
C1030 C1026 1.531 . S
C1030 H1042 0.960 . S
C1030 H1043 0.962 . S
C1030 H1044 0.960 . S
C1031 C1028 1.511 . S
C1031 H1045 0.961 . S
C1031 H1046 0.961 . S
C1031 H1047 0.961 . S
C1032 C1033 1.370 . S
C1032 C1034 1.363 . S
C1032 H1048 0.931 . S
C1033 C1032 1.370 . S
C1033 C1037 1.402 1_565 S
C1034 C1032 1.363 . S
C1034 C1035 1.388 . S
C1034 C1038 1.524 . S
C1035 C1027 1.496 1_565 S
C1035 C1034 1.388 . S
C1035 C1036 1.393 1_565 S
C1036 C1035 1.393 1_545 S
C1036 C1037 1.407 . S
C1036 C1039 1.539 . S
C1037 C1033 1.402 1_545 S
C1037 C1036 1.407 . S
C1037 H1049 0.933 . S
C1038 C1034 1.524 . S
C1038 H1050 0.956 . S
C1038 H1051 0.961 . S
C1038 H1052 0.961 . S
C1039 C1036 1.539 . S
C1039 H1053 0.958 . S
C1039 H1054 0.961 . S
C1039 H1055 0.960 . S
H1040 C1024 0.931 . S
H1041 C1029 0.929 . S
H1042 C1030 0.960 . S
H1043 C1030 0.962 . S
H1044 C1030 0.960 . S
H1045 C1031 0.961 . S
H1046 C1031 0.961 . S
H1047 C1031 0.961 . S
H1048 C1032 0.931 . S
H1049 C1037 0.933 . S
H1050 C1038 0.956 . S
H1051 C1038 0.961 . S
H1052 C1038 0.961 . S
H1053 C1039 0.958 . S
H1054 C1039 0.961 . S
H1055 C1039 0.960 . S
C1056 C1057 1.391 1_565 S
C1056 C1058 1.394 . S
C1056 H1072 0.931 . S
C1057 C1056 1.391 1_545 S
C1057 C1061 1.376 . S
C1058 C1056 1.394 . S
C1058 C1059 1.369 . S
C1058 C1062 1.531 . S
C1059 C1058 1.369 . S
C1059 C1060 1.410 1_565 S
C1059 C1067 1.503 . S
C1060 C1059 1.410 1_545 S
C1060 C1061 1.392 . S
C1060 C1063 1.511 . S
C1061 C1057 1.376 . S
C1061 C1060 1.392 . S
C1061 H1073 0.929 . S
C1062 C1058 1.531 . S
C1062 H1074 0.960 . S
C1062 H1075 0.962 . S
C1062 H1076 0.960 . S
C1063 C1060 1.511 . S
C1063 H1077 0.961 . S
C1063 H1078 0.961 . S
C1063 H1079 0.961 . S
C1064 C1065 1.370 1_545 S
C1064 C1066 1.363 . S
C1064 H1080 0.931 . S
C1065 C1064 1.370 1_565 S
C1065 C1069 1.408 . S
C1066 C1064 1.363 . S
C1066 C1067 1.370 1_545 S
C1066 C1070 1.524 . S
C1067 C1059 1.503 . S
C1067 C1066 1.370 1_565 S
C1067 C1068 1.403 . S
C1068 C1067 1.403 . S
C1068 C1069 1.404 . S
C1068 C1071 1.539 . S
C1069 C1065 1.408 . S
C1069 C1068 1.404 . S
C1069 H1081 0.930 . S
C1070 C1066 1.524 . S
C1070 H1082 0.956 . S
C1070 H1083 0.961 . S
C1070 H1084 0.961 . S
C1071 C1068 1.539 . S
C1071 H1085 0.958 . S
C1071 H1086 0.961 . S
C1071 H1087 0.960 . S
H1072 C1056 0.931 . S
H1073 C1061 0.929 . S
H1074 C1062 0.960 . S
H1075 C1062 0.962 . S
H1076 C1062 0.960 . S
H1077 C1063 0.961 . S
H1078 C1063 0.961 . S
H1079 C1063 0.961 . S
H1080 C1064 0.931 . S
H1081 C1069 0.930 . S
H1082 C1070 0.956 . S
H1083 C1070 0.961 . S
H1084 C1070 0.961 . S
H1085 C1071 0.958 . S
H1086 C1071 0.961 . S
H1087 C1071 0.960 . S
C1088 C1089 1.391 1_545 S
C1088 C1090 1.394 . S
C1088 H1104 0.931 . S
C1089 C1088 1.391 1_565 S
C1089 C1093 1.376 . S
C1090 C1088 1.394 . S
C1090 C1091 1.369 . S
C1090 C1094 1.531 . S
C1091 C1090 1.369 . S
C1091 C1092 1.410 1_545 S
C1091 C1099 1.503 . S
C1092 C1091 1.410 1_565 S
C1092 C1093 1.392 . S
C1092 C1095 1.511 . S
C1093 C1089 1.376 . S
C1093 C1092 1.392 . S
C1093 H1105 0.929 . S
C1094 C1090 1.531 . S
C1094 H1106 0.960 . S
C1094 H1107 0.962 . S
C1094 H1108 0.960 . S
C1095 C1092 1.511 . S
C1095 H1109 0.961 . S
C1095 H1110 0.961 . S
C1095 H1111 0.961 . S
C1096 C1097 1.370 1_565 S
C1096 C1098 1.363 . S
C1096 H1112 0.931 . S
C1097 C1096 1.370 1_545 S
C1097 C1101 1.408 . S
C1098 C1096 1.363 . S
C1098 C1099 1.370 1_565 S
C1098 C1102 1.524 . S
C1099 C1091 1.503 . S
C1099 C1098 1.370 1_545 S
C1099 C1100 1.403 . S
C1100 C1099 1.403 . S
C1100 C1101 1.404 . S
C1100 C1103 1.539 . S
C1101 C1097 1.408 . S
C1101 C1100 1.404 . S
C1101 H1113 0.930 . S
C1102 C1098 1.524 . S
C1102 H1114 0.956 . S
C1102 H1115 0.961 . S
C1102 H1116 0.961 . S
C1103 C1100 1.539 . S
C1103 H1117 0.958 . S
C1103 H1118 0.961 . S
C1103 H1119 0.960 . S
H1104 C1088 0.931 . S
H1105 C1093 0.929 . S
H1106 C1094 0.960 . S
H1107 C1094 0.962 . S
H1108 C1094 0.960 . S
H1109 C1095 0.961 . S
H1110 C1095 0.961 . S
H1111 C1095 0.961 . S
H1112 C1096 0.931 . S
H1113 C1101 0.930 . S
H1114 C1102 0.956 . S
H1115 C1102 0.961 . S
H1116 C1102 0.961 . S
H1117 C1103 0.958 . S
H1118 C1103 0.961 . S
H1119 C1103 0.960 . S
C1120 C1121 1.391 . S
C1120 C1122 1.394 . S
C1120 H1136 0.931 . S
C1121 C1120 1.391 . S
C1121 C1125 1.376 . S
C1122 C1120 1.394 . S
C1122 C1123 1.369 . S
C1122 C1126 1.531 . S
C1123 C1122 1.369 . S
C1123 C1124 1.410 . S
C1123 C1131 1.503 . S
C1124 C1123 1.410 . S
C1124 C1125 1.392 . S
C1124 C1127 1.511 . S
C1125 C1121 1.376 . S
C1125 C1124 1.392 . S
C1125 H1137 0.929 . S
C1126 C1122 1.531 . S
C1126 H1138 0.960 . S
C1126 H1139 0.962 . S
C1126 H1140 0.960 . S
C1127 C1124 1.511 . S
C1127 H1141 0.961 . S
C1127 H1142 0.961 . S
C1127 H1143 0.961 . S
C1128 C1129 1.370 . S
C1128 C1130 1.363 . S
C1128 H1144 0.931 . S
C1129 C1128 1.370 . S
C1129 C1133 1.408 . S
C1130 C1128 1.363 . S
C1130 C1131 1.370 . S
C1130 C1134 1.524 . S
C1131 C1123 1.503 . S
C1131 C1130 1.370 . S
C1131 C1132 1.403 . S
C1132 C1131 1.403 . S
C1132 C1133 1.404 . S
C1132 C1135 1.539 . S
C1133 C1129 1.408 . S
C1133 C1132 1.404 . S
C1133 H1145 0.930 . S
C1134 C1130 1.524 . S
C1134 H1146 0.956 . S
C1134 H1147 0.961 . S
C1134 H1148 0.961 . S
C1135 C1132 1.539 . S
C1135 H1149 0.958 . S
C1135 H1150 0.961 . S
C1135 H1151 0.960 . S
H1136 C1120 0.931 . S
H1137 C1125 0.929 . S
H1138 C1126 0.960 . S
H1139 C1126 0.962 . S
H1140 C1126 0.960 . S
H1141 C1127 0.961 . S
H1142 C1127 0.961 . S
H1143 C1127 0.961 . S
H1144 C1128 0.931 . S
H1145 C1133 0.930 . S
H1146 C1134 0.956 . S
H1147 C1134 0.961 . S
H1148 C1134 0.961 . S
H1149 C1135 0.958 . S
H1150 C1135 0.961 . S
H1151 C1135 0.960 . S
C1152 C1153 1.391 . S
C1152 C1154 1.394 . S
C1152 H1168 0.931 . S
C1153 C1152 1.391 . S
C1153 C1157 1.376 . S
C1154 C1152 1.394 . S
C1154 C1155 1.369 . S
C1154 C1158 1.531 . S
C1155 C1154 1.369 . S
C1155 C1156 1.410 . S
C1155 C1163 1.503 . S
C1156 C1155 1.410 . S
C1156 C1157 1.392 . S
C1156 C1159 1.511 . S
C1157 C1153 1.376 . S
C1157 C1156 1.392 . S
C1157 H1169 0.929 . S
C1158 C1154 1.531 . S
C1158 H1170 0.960 . S
C1158 H1171 0.962 . S
C1158 H1172 0.960 . S
C1159 C1156 1.511 . S
C1159 H1173 0.961 . S
C1159 H1174 0.961 . S
C1159 H1175 0.961 . S
C1160 C1161 1.370 . S
C1160 C1162 1.363 . S
C1160 H1176 0.931 . S
C1161 C1160 1.370 . S
C1161 C1165 1.408 . S
C1162 C1160 1.363 . S
C1162 C1163 1.370 . S
C1162 C1166 1.524 . S
C1163 C1155 1.503 . S
C1163 C1162 1.370 . S
C1163 C1164 1.403 . S
C1164 C1163 1.403 . S
C1164 C1165 1.404 . S
C1164 C1167 1.539 . S
C1165 C1161 1.408 . S
C1165 C1164 1.404 . S
C1165 H1177 0.930 . S
C1166 C1162 1.524 . S
C1166 H1178 0.956 . S
C1166 H1179 0.961 . S
C1166 H1180 0.961 . S
C1167 C1164 1.539 . S
C1167 H1181 0.958 . S
C1167 H1182 0.961 . S
C1167 H1183 0.960 . S
H1168 C1152 0.931 . S
H1169 C1157 0.929 . S
H1170 C1158 0.960 . S
H1171 C1158 0.962 . S
H1172 C1158 0.960 . S
H1173 C1159 0.961 . S
H1174 C1159 0.961 . S
H1175 C1159 0.961 . S
H1176 C1160 0.931 . S
H1177 C1165 0.930 . S
H1178 C1166 0.956 . S
H1179 C1166 0.961 . S
H1180 C1166 0.961 . S
H1181 C1167 0.958 . S
H1182 C1167 0.961 . S
H1183 C1167 0.960 . S
C1184 C1185 1.391 . S
C1184 C1186 1.394 . S
C1184 H1200 0.931 . S
C1185 C1184 1.391 . S
C1185 C1189 1.376 . S
C1186 C1184 1.394 . S
C1186 C1187 1.369 . S
C1186 C1190 1.531 . S
C1187 C1186 1.369 . S
C1187 C1188 1.410 . S
C1187 C1195 1.503 . S
C1188 C1187 1.410 . S
C1188 C1189 1.392 . S
C1188 C1191 1.511 . S
C1189 C1185 1.376 . S
C1189 C1188 1.392 . S
C1189 H1201 0.929 . S
C1190 C1186 1.531 . S
C1190 H1202 0.960 . S
C1190 H1203 0.962 . S
C1190 H1204 0.960 . S
C1191 C1188 1.511 . S
C1191 H1205 0.961 . S
C1191 H1206 0.961 . S
C1191 H1207 0.961 . S
C1192 C1193 1.370 . S
C1192 C1194 1.363 . S
C1192 H1208 0.931 . S
C1193 C1192 1.370 . S
C1193 C1197 1.408 . S
C1194 C1192 1.363 . S
C1194 C1195 1.370 . S
C1194 C1198 1.524 . S
C1195 C1187 1.503 . S
C1195 C1194 1.370 . S
C1195 C1196 1.403 . S
C1196 C1195 1.403 . S
C1196 C1197 1.404 . S
C1196 C1199 1.539 . S
C1197 C1193 1.408 . S
C1197 C1196 1.404 . S
C1197 H1209 0.930 . S
C1198 C1194 1.524 . S
C1198 H1210 0.956 . S
C1198 H1211 0.961 . S
C1198 H1212 0.961 . S
C1199 C1196 1.539 . S
C1199 H1213 0.958 . S
C1199 H1214 0.961 . S
C1199 H1215 0.960 . S
H1200 C1184 0.931 . S
H1201 C1189 0.929 . S
H1202 C1190 0.960 . S
H1203 C1190 0.962 . S
H1204 C1190 0.960 . S
H1205 C1191 0.961 . S
H1206 C1191 0.961 . S
H1207 C1191 0.961 . S
H1208 C1192 0.931 . S
H1209 C1197 0.930 . S
H1210 C1198 0.956 . S
H1211 C1198 0.961 . S
H1212 C1198 0.961 . S
H1213 C1199 0.958 . S
H1214 C1199 0.961 . S
H1215 C1199 0.960 . S
C1216 C1217 1.391 . S
C1216 C1218 1.394 . S
C1216 H1232 0.931 . S
C1217 C1216 1.391 . S
C1217 C1221 1.376 . S
C1218 C1216 1.394 . S
C1218 C1219 1.369 . S
C1218 C1222 1.531 . S
C1219 C1218 1.369 . S
C1219 C1220 1.410 . S
C1219 C1227 1.503 . S
C1220 C1219 1.410 . S
C1220 C1221 1.392 . S
C1220 C1223 1.511 . S
C1221 C1217 1.376 . S
C1221 C1220 1.392 . S
C1221 H1233 0.929 . S
C1222 C1218 1.531 . S
C1222 H1234 0.960 . S
C1222 H1235 0.962 . S
C1222 H1236 0.960 . S
C1223 C1220 1.511 . S
C1223 H1237 0.961 . S
C1223 H1238 0.961 . S
C1223 H1239 0.961 . S
C1224 C1225 1.370 . S
C1224 C1226 1.363 . S
C1224 H1240 0.931 . S
C1225 C1224 1.370 . S
C1225 C1229 1.408 . S
C1226 C1224 1.363 . S
C1226 C1227 1.370 . S
C1226 C1230 1.524 . S
C1227 C1219 1.503 . S
C1227 C1226 1.370 . S
C1227 C1228 1.403 . S
C1228 C1227 1.403 . S
C1228 C1229 1.404 . S
C1228 C1231 1.539 . S
C1229 C1225 1.408 . S
C1229 C1228 1.404 . S
C1229 H1241 0.930 . S
C1230 C1226 1.524 . S
C1230 H1242 0.956 . S
C1230 H1243 0.961 . S
C1230 H1244 0.961 . S
C1231 C1228 1.539 . S
C1231 H1245 0.958 . S
C1231 H1246 0.961 . S
C1231 H1247 0.960 . S
H1232 C1216 0.931 . S
H1233 C1221 0.929 . S
H1234 C1222 0.960 . S
H1235 C1222 0.962 . S
H1236 C1222 0.960 . S
H1237 C1223 0.961 . S
H1238 C1223 0.961 . S
H1239 C1223 0.961 . S
H1240 C1224 0.931 . S
H1241 C1229 0.930 . S
H1242 C1230 0.956 . S
H1243 C1230 0.961 . S
H1244 C1230 0.961 . S
H1245 C1231 0.958 . S
H1246 C1231 0.961 . S
H1247 C1231 0.960 . S
C225 C8 1.227 . S
C233 C78 1.210 . S
C257 C64 1.238 . S
C265 C22 1.216 . S
C289 C36 1.184 . S
C297 C106 1.192 . S
C321 C92 1.238 . S
C329 C50 1.217 . S
C353 C190 1.238 . S
C361 C120 1.216 . S
C385 C176 1.156 . S
C393 C134 1.183 . S
C417 C218 1.156 . S
C425 C148 1.183 . S
C449 C162 1.168 . S
C457 C204 1.190 . S
C481 C23 1.517 . S
C489 C9 1.515 . S
C513 C37 1.510 . S
C521 C51 1.500 . S
C545 C65 1.485 . S
C553 C79 1.512 . S
C577 C93 1.525 . S
C585 C107 1.508 . S
C609 C121 1.525 . S
C617 C135 1.511 . S
C641 C163 1.513 . S
C649 C149 1.516 . S
C673 C191 1.508 . S
C681 C177 1.501 . S
C705 C205 1.502 . S
C713 C219 1.503 . S
C737 C132 1.516 . S
C745 C6 1.541 . S
C769 C20 1.547 . S
C777 C118 1.539 . S
C801 C160 1.511 . S
C809 C34 1.547 . S
C833 C48 1.556 . S
C841 C146 1.529 . S
C865 C62 1.536 . S
C873 C188 1.530 . S
C897 C174 1.510 . S
C905 C76 1.544 . S
C929 C90 1.545 . S
C937 C216 1.528 . S
C961 C202 1.551 . S
C969 C104 1.528 . S
C993 C7 1.402 . S
C1001 C35 1.407 . S
C1025 C49 1.402 . S
C1033 C21 1.407 . S
C1057 C91 1.397 . S
C1065 C63 1.409 . S
C1089 C105 1.399 . S
C1097 C77 1.411 . S
C1121 C147 1.406 . S
C1129 C119 1.415 . S
C1153 C133 1.415 . S
C1161 C161 1.415 . S
C1185 C203 1.398 . S
C1193 C175 1.410 . S
C1217 C189 1.417 . S
C1225 C217 1.412 . S
