# Generated by pormake.
# Topology uka, (4)-cn, num edge types: 1
# Building blocks:
#     Node 0, Type 0, BuildingBlock: QUQFOY_clean_sbu_1, # of connection points: 4
#     Node 1, Type 0, BuildingBlock: QUQFOY_clean_sbu_1, # of connection points: 4
#     Node 2, Type 0, BuildingBlock: QUQFOY_clean_sbu_1, # of connection points: 4
#     Node 3, Type 0, BuildingBlock: QUQFOY_clean_sbu_1, # of connection points: 4
#     Node 4, Type 0, BuildingBlock: QUQFOY_clean_sbu_1, # of connection points: 4
#     Node 5, Type 0, BuildingBlock: QUQFOY_clean_sbu_1, # of connection points: 4
#     Node 6, Type 0, BuildingBlock: QUQFOY_clean_sbu_1, # of connection points: 4
#     Node 7, Type 0, BuildingBlock: QUQFOY_clean_sbu_1, # of connection points: 4
#     Node 8, Type 0, BuildingBlock: QUQFOY_clean_sbu_1, # of connection points: 4
#     Node 9, Type 0, BuildingBlock: QUQFOY_clean_sbu_1, # of connection points: 4
#     Node 10, Type 0, BuildingBlock: QUQFOY_clean_sbu_1, # of connection points: 4
#     Node 11, Type 0, BuildingBlock: QUQFOY_clean_sbu_1, # of connection points: 4
#     Node 12, Type 0, BuildingBlock: QUQFOY_clean_sbu_1, # of connection points: 4
#     Node 13, Type 0, BuildingBlock: QUQFOY_clean_sbu_1, # of connection points: 4
#     Node 14, Type 0, BuildingBlock: QUQFOY_clean_sbu_1, # of connection points: 4
#     Node 15, Type 0, BuildingBlock: QUQFOY_clean_sbu_1, # of connection points: 4
#     Node 16, Type 0, BuildingBlock: QUQFOY_clean_sbu_1, # of connection points: 4
#     Node 17, Type 0, BuildingBlock: QUQFOY_clean_sbu_1, # of connection points: 4
#     Node 18, Type 0, BuildingBlock: QUQFOY_clean_sbu_1, # of connection points: 4
#     Node 19, Type 0, BuildingBlock: QUQFOY_clean_sbu_1, # of connection points: 4
#     Node 20, Type 0, BuildingBlock: QUQFOY_clean_sbu_1, # of connection points: 4
#     Node 21, Type 0, BuildingBlock: QUQFOY_clean_sbu_1, # of connection points: 4
#     Node 22, Type 0, BuildingBlock: QUQFOY_clean_sbu_1, # of connection points: 4
#     Node 23, Type 0, BuildingBlock: QUQFOY_clean_sbu_1, # of connection points: 4
#     Node 24, Type 0, BuildingBlock: QUQFOY_clean_sbu_1, # of connection points: 4
#     Node 25, Type 0, BuildingBlock: QUQFOY_clean_sbu_1, # of connection points: 4
#     Node 26, Type 0, BuildingBlock: QUQFOY_clean_sbu_1, # of connection points: 4
#     Node 27, Type 0, BuildingBlock: QUQFOY_clean_sbu_1, # of connection points: 4
#     Node 28, Type 0, BuildingBlock: QUQFOY_clean_sbu_1, # of connection points: 4
#     Node 29, Type 0, BuildingBlock: QUQFOY_clean_sbu_1, # of connection points: 4
#     Node 30, Type 0, BuildingBlock: QUQFOY_clean_sbu_1, # of connection points: 4
#     Node 31, Type 0, BuildingBlock: QUQFOY_clean_sbu_1, # of connection points: 4
#     Edge 32, Type (0, 0), BuildingBlock: ZUJKAS_clean_linker_0, # of connection points: 2
#     Edge 33, Type (0, 0), BuildingBlock: ZUJKAS_clean_linker_0, # of connection points: 2
#     Edge 34, Type (0, 0), BuildingBlock: ZUJKAS_clean_linker_0, # of connection points: 2
#     Edge 35, Type (0, 0), BuildingBlock: ZUJKAS_clean_linker_0, # of connection points: 2
#     Edge 36, Type (0, 0), BuildingBlock: ZUJKAS_clean_linker_0, # of connection points: 2
#     Edge 37, Type (0, 0), BuildingBlock: ZUJKAS_clean_linker_0, # of connection points: 2
#     Edge 38, Type (0, 0), BuildingBlock: ZUJKAS_clean_linker_0, # of connection points: 2
#     Edge 39, Type (0, 0), BuildingBlock: ZUJKAS_clean_linker_0, # of connection points: 2
#     Edge 40, Type (0, 0), BuildingBlock: ZUJKAS_clean_linker_0, # of connection points: 2
#     Edge 41, Type (0, 0), BuildingBlock: ZUJKAS_clean_linker_0, # of connection points: 2
#     Edge 42, Type (0, 0), BuildingBlock: ZUJKAS_clean_linker_0, # of connection points: 2
#     Edge 43, Type (0, 0), BuildingBlock: ZUJKAS_clean_linker_0, # of connection points: 2
#     Edge 44, Type (0, 0), BuildingBlock: ZUJKAS_clean_linker_0, # of connection points: 2
#     Edge 45, Type (0, 0), BuildingBlock: ZUJKAS_clean_linker_0, # of connection points: 2
#     Edge 46, Type (0, 0), BuildingBlock: ZUJKAS_clean_linker_0, # of connection points: 2
#     Edge 47, Type (0, 0), BuildingBlock: ZUJKAS_clean_linker_0, # of connection points: 2
#     Edge 48, Type (0, 0), BuildingBlock: ZUJKAS_clean_linker_0, # of connection points: 2
#     Edge 49, Type (0, 0), BuildingBlock: ZUJKAS_clean_linker_0, # of connection points: 2
#     Edge 50, Type (0, 0), BuildingBlock: ZUJKAS_clean_linker_0, # of connection points: 2
#     Edge 51, Type (0, 0), BuildingBlock: ZUJKAS_clean_linker_0, # of connection points: 2
#     Edge 52, Type (0, 0), BuildingBlock: ZUJKAS_clean_linker_0, # of connection points: 2
#     Edge 53, Type (0, 0), BuildingBlock: ZUJKAS_clean_linker_0, # of connection points: 2
#     Edge 54, Type (0, 0), BuildingBlock: ZUJKAS_clean_linker_0, # of connection points: 2
#     Edge 55, Type (0, 0), BuildingBlock: ZUJKAS_clean_linker_0, # of connection points: 2
#     Edge 56, Type (0, 0), BuildingBlock: ZUJKAS_clean_linker_0, # of connection points: 2
#     Edge 57, Type (0, 0), BuildingBlock: ZUJKAS_clean_linker_0, # of connection points: 2
#     Edge 58, Type (0, 0), BuildingBlock: ZUJKAS_clean_linker_0, # of connection points: 2
#     Edge 59, Type (0, 0), BuildingBlock: ZUJKAS_clean_linker_0, # of connection points: 2
#     Edge 60, Type (0, 0), BuildingBlock: ZUJKAS_clean_linker_0, # of connection points: 2
#     Edge 61, Type (0, 0), BuildingBlock: ZUJKAS_clean_linker_0, # of connection points: 2
#     Edge 62, Type (0, 0), BuildingBlock: ZUJKAS_clean_linker_0, # of connection points: 2
#     Edge 63, Type (0, 0), BuildingBlock: ZUJKAS_clean_linker_0, # of connection points: 2
#     Edge 64, Type (0, 0), BuildingBlock: ZUJKAS_clean_linker_0, # of connection points: 2
#     Edge 65, Type (0, 0), BuildingBlock: ZUJKAS_clean_linker_0, # of connection points: 2
#     Edge 66, Type (0, 0), BuildingBlock: ZUJKAS_clean_linker_0, # of connection points: 2
#     Edge 67, Type (0, 0), BuildingBlock: ZUJKAS_clean_linker_0, # of connection points: 2
#     Edge 68, Type (0, 0), BuildingBlock: ZUJKAS_clean_linker_0, # of connection points: 2
#     Edge 69, Type (0, 0), BuildingBlock: ZUJKAS_clean_linker_0, # of connection points: 2
#     Edge 70, Type (0, 0), BuildingBlock: ZUJKAS_clean_linker_0, # of connection points: 2
#     Edge 71, Type (0, 0), BuildingBlock: ZUJKAS_clean_linker_0, # of connection points: 2
#     Edge 72, Type (0, 0), BuildingBlock: ZUJKAS_clean_linker_0, # of connection points: 2
#     Edge 73, Type (0, 0), BuildingBlock: ZUJKAS_clean_linker_0, # of connection points: 2
#     Edge 74, Type (0, 0), BuildingBlock: ZUJKAS_clean_linker_0, # of connection points: 2
#     Edge 75, Type (0, 0), BuildingBlock: ZUJKAS_clean_linker_0, # of connection points: 2
#     Edge 76, Type (0, 0), BuildingBlock: ZUJKAS_clean_linker_0, # of connection points: 2
#     Edge 77, Type (0, 0), BuildingBlock: ZUJKAS_clean_linker_0, # of connection points: 2
#     Edge 78, Type (0, 0), BuildingBlock: ZUJKAS_clean_linker_0, # of connection points: 2
#     Edge 79, Type (0, 0), BuildingBlock: ZUJKAS_clean_linker_0, # of connection points: 2
#     Edge 80, Type (0, 0), BuildingBlock: ZUJKAS_clean_linker_0, # of connection points: 2
#     Edge 81, Type (0, 0), BuildingBlock: ZUJKAS_clean_linker_0, # of connection points: 2
#     Edge 82, Type (0, 0), BuildingBlock: ZUJKAS_clean_linker_0, # of connection points: 2
#     Edge 83, Type (0, 0), BuildingBlock: ZUJKAS_clean_linker_0, # of connection points: 2
#     Edge 84, Type (0, 0), BuildingBlock: ZUJKAS_clean_linker_0, # of connection points: 2
#     Edge 85, Type (0, 0), BuildingBlock: ZUJKAS_clean_linker_0, # of connection points: 2
#     Edge 86, Type (0, 0), BuildingBlock: ZUJKAS_clean_linker_0, # of connection points: 2
#     Edge 87, Type (0, 0), BuildingBlock: ZUJKAS_clean_linker_0, # of connection points: 2
#     Edge 88, Type (0, 0), BuildingBlock: ZUJKAS_clean_linker_0, # of connection points: 2
#     Edge 89, Type (0, 0), BuildingBlock: ZUJKAS_clean_linker_0, # of connection points: 2
#     Edge 90, Type (0, 0), BuildingBlock: ZUJKAS_clean_linker_0, # of connection points: 2
#     Edge 91, Type (0, 0), BuildingBlock: ZUJKAS_clean_linker_0, # of connection points: 2
#     Edge 92, Type (0, 0), BuildingBlock: ZUJKAS_clean_linker_0, # of connection points: 2
#     Edge 93, Type (0, 0), BuildingBlock: ZUJKAS_clean_linker_0, # of connection points: 2
#     Edge 94, Type (0, 0), BuildingBlock: ZUJKAS_clean_linker_0, # of connection points: 2
#     Edge 95, Type (0, 0), BuildingBlock: ZUJKAS_clean_linker_0, # of connection points: 2
# Relax obj value: 0.058
# Max RMSD: 0.095
# Mean RMSD: 0.095
data_MOF--net-uka--node1-QUQFOY_clean_sbu_1--edge1-ZUJKAS_clean_linker_0
_symmetry_space_group_name_H-M    P1
_symmetry_Int_Tables_number       1
_symmetry_cell_setting            triclinic
loop_
_symmetry_equiv_pos_as_xyz
'x, y, z'
_cell_length_a     81.342886
_cell_length_b     81.36543
_cell_length_c     56.861203
_cell_angle_alpha  90.005333
_cell_angle_beta   90.001808
_cell_angle_gamma 90.001037
loop_
_atom_site_label
_atom_site_type_symbol
_atom_site_fract_x
_atom_site_fract_y
_atom_site_fract_z
_atom_type_partial_charge
O0 O 0.13367 0.2525 0.29982 0.0
Cd1 Cd 0.14254 0.27583 0.29479 0.0
Cd2 Cd 0.11562 0.27774 0.26654 0.0
O3 O 0.11453 0.25263 0.27241 0.0
O4 O 0.16565 0.27442 0.30573 0.0
O5 O 0.15878 0.27919 0.26866 0.0
C6 C 0.17009 0.27649 0.28417 0.0
C7 C 0.10951 0.2882 0.22921 0.0
C8 C 0.12266 0.24505 0.28813 0.0
C9 C 0.1168 0.29872 0.31082 0.0
O10 O 0.10853 0.293 0.29371 0.0
O11 O 0.13161 0.29429 0.31393 0.0
O12 O 0.09834 0.28192 0.24249 0.0
O13 O 0.12449 0.28801 0.23677 0.0
O14 O 0.99203 0.882 0.54798 0.0
Cd15 Cd 0.96957 0.89234 0.54085 0.0
Cd16 Cd 0.96641 0.86388 0.51525 0.0
O17 O 0.99113 0.86127 0.52307 0.0
O18 O 0.97256 0.91541 0.55131 0.0
O19 O 0.96808 0.90851 0.51421 0.0
C20 C 0.97125 0.91977 0.52961 0.0
C21 C 0.95673 0.85583 0.4782 0.0
C22 C 0.99888 0.86974 0.53825 0.0
C23 C 0.94452 0.86903 0.55809 0.0
O24 O 0.94997 0.85951 0.54217 0.0
O25 O 0.94996 0.8836 0.55992 0.0
O26 O 0.96174 0.84529 0.49348 0.0
O27 O 0.95774 0.87122 0.4836 0.0
O28 O 0.36548 0.74696 0.79798 0.0
Cd29 Cd 0.35702 0.72333 0.79406 0.0
Cd30 Cd 0.38618 0.72042 0.76973 0.0
O31 O 0.38797 0.74533 0.7764 0.0
O32 O 0.33371 0.72519 0.80396 0.0
O33 O 0.34118 0.71908 0.76759 0.0
C34 C 0.32962 0.72235 0.78246 0.0
C35 C 0.39383 0.71017 0.73288 0.0
C36 C 0.37813 0.75363 0.78906 0.0
C37 C 0.38167 0.70015 0.81403 0.0
O38 O 0.39098 0.70486 0.79739 0.0
O39 O 0.36705 0.70552 0.8156 0.0
O40 O 0.40453 0.71574 0.74755 0.0
O41 O 0.37851 0.71086 0.73883 0.0
O42 O 0.50058 0.11661 0.04793 0.0
Cd43 Cd 0.52387 0.107 0.04536 0.0
Cd44 Cd 0.52875 0.13666 0.02167 0.0
O45 O 0.50401 0.13993 0.02867 0.0
O46 O 0.5206 0.08399 0.05595 0.0
O47 O 0.5281 0.09046 0.01974 0.0
C48 C 0.52397 0.07935 0.03485 0.0
C49 C 0.53918 0.14462 0.98506 0.0
C50 C 0.49487 0.13002 0.03998 0.0
C51 C 0.54838 0.13015 0.06616 0.0
O52 O 0.54479 0.13972 0.04927 0.0
O53 O 0.54165 0.11611 0.06778 0.0
O54 O 0.53484 0.15525 0.00065 0.0
O55 O 0.53714 0.12925 0.98995 0.0
O56 O 0.13371 0.74575 0.19399 0.0
Cd57 Cd 0.14189 0.72278 0.20334 0.0
Cd58 Cd 0.11553 0.72454 0.23166 0.0
O59 O 0.11635 0.74927 0.22329 0.0
O60 O 0.16531 0.72258 0.19366 0.0
O61 O 0.15723 0.72133 0.23084 0.0
C62 C 0.16905 0.72237 0.2157 0.0
C63 C 0.10831 0.71637 0.26973 0.0
C64 C 0.12396 0.7549 0.20551 0.0
C65 C 0.11517 0.70064 0.19041 0.0
O66 O 0.10728 0.70861 0.20597 0.0
O67 O 0.13044 0.70317 0.18752 0.0
O68 O 0.09771 0.72258 0.25546 0.0
O69 O 0.12339 0.71539 0.26275 0.0
O70 O 0.50435 0.88456 0.44824 0.0
Cd71 Cd 0.52745 0.89397 0.45367 0.0
Cd72 Cd 0.53115 0.86444 0.47718 0.0
O73 O 0.50658 0.8616 0.46863 0.0
O74 O 0.52483 0.91729 0.44421 0.0
O75 O 0.53035 0.90964 0.4807 0.0
C76 C 0.527 0.92124 0.46592 0.0
C77 C 0.5404 0.85675 0.51453 0.0
C78 C 0.4981 0.87137 0.45609 0.0
C79 C 0.55266 0.87092 0.43462 0.0
O80 O 0.54809 0.86109 0.45071 0.0
O81 O 0.54631 0.88513 0.43294 0.0
O82 O 0.53596 0.84601 0.49914 0.0
O83 O 0.53911 0.8721 0.50898 0.0
O84 O 0.36558 0.25724 0.70186 0.0
Cd85 Cd 0.35521 0.27998 0.7066 0.0
Cd86 Cd 0.38503 0.28543 0.72912 0.0
O87 O 0.38886 0.26093 0.72107 0.0
O88 O 0.33208 0.27612 0.69709 0.0
O89 O 0.33929 0.28268 0.7334 0.0
C90 C 0.32793 0.27855 0.71866 0.0
C91 C 0.39333 0.2954 0.76584 0.0
C92 C 0.37924 0.25178 0.7093 0.0
C93 C 0.37693 0.3058 0.68596 0.0
O94 O 0.38712 0.30209 0.70205 0.0
O95 O 0.36304 0.2987 0.68485 0.0
O96 O 0.40381 0.29131 0.74991 0.0
O97 O 0.37791 0.29339 0.76119 0.0
O98 O 0.99046 0.1136 0.94555 0.0
Cd99 Cd 0.96709 0.10544 0.95246 0.0
Cd100 Cd 0.96668 0.13301 0.97912 0.0
O101 O 0.99171 0.13295 0.97257 0.0
O102 O 0.96781 0.08213 0.94247 0.0
O103 O 0.9643 0.08985 0.97949 0.0
C104 C 0.96642 0.07819 0.96434 0.0
C105 C 0.95699 0.14048 0.01636 0.0
C106 C 0.9986 0.12441 0.95664 0.0
C107 C 0.94479 0.13134 0.93582 0.0
O108 O 0.95136 0.13996 0.95193 0.0
O109 O 0.94837 0.11622 0.93375 0.0
O110 O 0.96345 0.15106 0.00228 0.0
O111 O 0.95653 0.12532 0.00964 0.0
O112 O 0.86662 0.74589 0.6983 0.0
Cd113 Cd 0.85848 0.72263 0.7062 0.0
Cd114 Cd 0.88587 0.72302 0.73308 0.0
O115 O 0.88596 0.74784 0.72527 0.0
O116 O 0.83512 0.72297 0.69628 0.0
O117 O 0.84294 0.72029 0.73339 0.0
C118 C 0.83122 0.72194 0.7182 0.0
C119 C 0.89291 0.71419 0.77089 0.0
C120 C 0.87744 0.75431 0.70899 0.0
C121 C 0.88457 0.70013 0.69083 0.0
O122 O 0.89303 0.70718 0.70669 0.0
O123 O 0.86941 0.70347 0.68851 0.0
O124 O 0.90372 0.71999 0.7566 0.0
O125 O 0.87777 0.71392 0.76403 0.0
O126 O 0.0055 0.11787 0.4508 0.0
Cd127 Cd 0.02852 0.10788 0.45466 0.0
Cd128 Cd 0.03327 0.13783 0.47773 0.0
O129 O 0.00868 0.14128 0.46989 0.0
O130 O 0.02492 0.08493 0.44403 0.0
O131 O 0.03179 0.0913 0.48053 0.0
C132 C 0.02767 0.08026 0.4653 0.0
C133 C 0.04328 0.14617 0.5144 0.0
C134 C -0.00028 0.13138 0.45827 0.0
C135 C 0.05354 0.13048 0.43404 0.0
O136 O 0.04971 0.14035 0.45047 0.0
O137 O 0.04681 0.11643 0.43269 0.0
O138 O 0.03934 0.15663 0.49838 0.0
O139 O 0.04107 0.13076 0.50993 0.0
O140 O 0.63145 0.2514 0.20137 0.0
Cd141 Cd 0.64128 0.27428 0.2072 0.0
Cd142 Cd 0.61345 0.27709 0.23447 0.0
O143 O 0.61166 0.25212 0.22783 0.0
O144 O 0.66433 0.27196 0.19632 0.0
O145 O 0.65762 0.27665 0.23346 0.0
C146 C 0.66883 0.2737 0.21791 0.0
C147 C 0.60558 0.28716 0.27138 0.0
C148 C 0.61985 0.24434 0.21237 0.0
C149 C 0.61692 0.29859 0.19084 0.0
O150 O 0.60797 0.29302 0.20735 0.0
O151 O 0.63155 0.29348 0.18825 0.0
O152 O 0.59502 0.28144 0.25664 0.0
O153 O 0.62092 0.28661 0.26556 0.0
O154 O 0.49364 0.88185 0.94716 0.0
Cd155 Cd 0.4708 0.89114 0.95499 0.0
Cd156 Cd 0.46941 0.86237 0.98027 0.0
O157 O 0.49419 0.86126 0.97234 0.0
O158 O 0.47265 0.91454 0.94563 0.0
O159 O 0.46901 0.90655 0.98247 0.0
C160 C 0.47149 0.9183 0.96758 0.0
C161 C 0.46023 0.85306 0.01692 0.0
C162 C 0.5013 0.87011 0.95697 0.0
C163 C 0.44664 0.86694 0.9381 0.0
O164 O 0.45302 0.85756 0.95346 0.0
O165 O 0.45112 0.88184 0.93654 0.0
O166 O 0.46544 0.84308 0.00102 0.0
O167 O 0.46085 0.86861 0.01246 0.0
O168 O 0.86533 0.25867 0.80399 0.0
Cd169 Cd 0.85676 0.28197 0.79781 0.0
Cd170 Cd 0.88376 0.28309 0.77003 0.0
O171 O 0.88427 0.25803 0.77634 0.0
O172 O 0.83352 0.28089 0.80814 0.0
O173 O 0.84093 0.28485 0.77108 0.0
C174 C 0.82941 0.28244 0.78636 0.0
C175 C 0.89063 0.29288 0.73258 0.0
C176 C 0.87613 0.25085 0.79241 0.0
C177 C 0.88266 0.30449 0.81391 0.0
O178 O 0.89099 0.29834 0.79716 0.0
O179 O 0.86767 0.30057 0.81663 0.0
O180 O 0.90146 0.28654 0.74638 0.0
O181 O 0.87557 0.29323 0.73975 0.0
O182 O 0.49712 0.11682 0.55447 0.0
Cd183 Cd 0.47381 0.10882 0.54654 0.0
Cd184 Cd 0.47454 0.13655 0.51996 0.0
O185 O 0.49947 0.13581 0.52705 0.0
O186 O 0.47415 0.08539 0.55606 0.0
O187 O 0.47143 0.09351 0.5191 0.0
C188 C 0.47313 0.08168 0.53407 0.0
C189 C 0.46528 0.14518 0.48302 0.0
C190 C 0.50578 0.12728 0.54347 0.0
C191 C 0.4517 0.13495 0.56243 0.0
O192 O 0.45907 0.14347 0.54695 0.0
O193 O 0.45464 0.11968 0.56428 0.0
O194 O 0.47163 0.15529 0.49787 0.0
O195 O 0.46483 0.12981 0.48866 0.0
O196 O 0.63352 0.74625 0.30354 0.0
Cd197 Cd 0.64162 0.72315 0.29459 0.0
Cd198 Cd 0.61503 0.72443 0.2672 0.0
O199 O 0.61607 0.74934 0.27428 0.0
O200 O 0.66505 0.72308 0.30419 0.0
O201 O 0.65693 0.72151 0.26706 0.0
C202 C 0.66877 0.72272 0.28215 0.0
C203 C 0.60832 0.71505 0.22953 0.0
C204 C 0.62377 0.75526 0.29179 0.0
C205 C 0.61493 0.70127 0.30892 0.0
O206 O 0.60669 0.70929 0.29377 0.0
O207 O 0.63031 0.70358 0.31084 0.0
O208 O 0.59762 0.72207 0.24286 0.0
O209 O 0.62323 0.71394 0.23721 0.0
O210 O 0.00678 0.88197 0.04903 0.0
Cd211 Cd 0.02918 0.89281 0.04337 0.0
Cd212 Cd 0.03469 0.86319 0.02021 0.0
O213 O 0.01041 0.85888 0.02933 0.0
O214 O 0.02505 0.91581 0.05326 0.0
O215 O 0.03095 0.90888 0.01661 0.0
C216 C 0.0269 0.92009 0.03162 0.0
C217 C 0.04401 0.85534 0.98294 0.0
C218 C 0.00137 0.86827 0.04167 0.0
C219 C 0.05591 0.87157 0.06246 0.0
O220 O 0.05208 0.86139 0.04643 0.0
O221 O 0.0485 0.88526 0.06415 0.0
O222 O 0.04046 0.84467 0.99887 0.0
O223 O 0.04181 0.87068 0.9879 0.0
O224 O 0.6341 0.75671 0.79898 0.0
Cd225 Cd 0.64357 0.77951 0.79166 0.0
Cd226 Cd 0.61567 0.78139 0.76516 0.0
O227 O 0.61393 0.75663 0.77312 0.0
O228 O 0.66676 0.77766 0.80205 0.0
O229 O 0.65956 0.78141 0.76489 0.0
C230 C 0.67099 0.77888 0.78028 0.0
C231 C 0.60811 0.79047 0.72761 0.0
C232 C 0.62235 0.74932 0.78878 0.0
C233 C 0.61902 0.80364 0.80791 0.0
O234 O 0.61001 0.79772 0.79173 0.0
O235 O 0.63379 0.79886 0.81024 0.0
O236 O 0.59743 0.78507 0.74242 0.0
O237 O 0.62338 0.79026 0.73383 0.0
O238 O 0.49546 0.38437 0.05147 0.0
Cd239 Cd 0.47257 0.39323 0.04286 0.0
Cd240 Cd 0.47266 0.36643 0.01556 0.0
O241 O 0.49746 0.3659 0.02332 0.0
O242 O 0.47329 0.41658 0.05277 0.0
O243 O 0.471 0.40878 0.01559 0.0
C244 C 0.47266 0.42047 0.03081 0.0
C245 C 0.4634 0.36014 0.9777 0.0
C246 C 0.50384 0.37372 0.04037 0.0
C247 C 0.44953 0.36743 0.05733 0.0
O248 O 0.45687 0.35892 0.0418 0.0
O249 O 0.45281 0.38261 0.05961 0.0
O250 O 0.46967 0.34911 0.99123 0.0
O251 O 0.46298 0.3751 0.98531 0.0
O252 O 0.86583 0.24366 0.29895 0.0
Cd253 Cd 0.8576 0.2204 0.29137 0.0
Cd254 Cd 0.88515 0.22033 0.26512 0.0
O255 O 0.88537 0.24525 0.27225 0.0
O256 O 0.83428 0.22094 0.30144 0.0
O257 O 0.84194 0.21787 0.26433 0.0
C258 C 0.83029 0.2197 0.27957 0.0
C259 C 0.89164 0.2106 0.22758 0.0
C260 C 0.87679 0.25192 0.28831 0.0
C261 C 0.88357 0.19792 0.30763 0.0
O262 O 0.89228 0.20483 0.29194 0.0
O263 O 0.86839 0.20133 0.30947 0.0
O264 O 0.90263 0.21695 0.24114 0.0
O265 O 0.87662 0.21037 0.23498 0.0
O266 O 0.00694 0.61823 0.54683 0.0
Cd267 Cd 0.02966 0.60762 0.54302 0.0
Cd268 Cd 0.03562 0.63806 0.52112 0.0
O269 O 0.01117 0.6421 0.52938 0.0
O270 O 0.02527 0.5847 0.55313 0.0
O271 O 0.03267 0.59117 0.51689 0.0
C272 C 0.02812 0.58012 0.53185 0.0
C273 C 0.04574 0.64778 0.48518 0.0
C274 C 0.00175 0.63219 0.54019 0.0
C275 C 0.0554 0.62897 0.56465 0.0
O276 O 0.05222 0.63918 0.54838 0.0
O277 O 0.04795 0.61527 0.56564 0.0
O278 O 0.04219 0.65758 0.50221 0.0
O279 O 0.04309 0.63227 0.48821 0.0
O280 O 0.63406 0.2392 0.69991 0.0
Cd281 Cd 0.64512 0.21699 0.70615 0.0
Cd282 Cd 0.61537 0.21133 0.729 0.0
O283 O 0.61069 0.23529 0.71882 0.0
O284 O 0.66817 0.22133 0.69662 0.0
O285 O 0.66099 0.21556 0.73322 0.0
C286 C 0.67229 0.21967 0.71836 0.0
C287 C 0.6065 0.20285 0.76624 0.0
C288 C 0.62012 0.24439 0.70663 0.0
C289 C 0.62434 0.18991 0.68711 0.0
O290 O 0.61416 0.19358 0.70322 0.0
O291 O 0.6379 0.19754 0.68533 0.0
O292 O 0.59633 0.20546 0.74932 0.0
O293 O 0.62193 0.2054 0.76224 0.0
O294 O 0.01069 0.38423 0.94703 0.0
Cd295 Cd 0.0335 0.39406 0.95276 0.0
Cd296 Cd 0.03689 0.36605 0.97941 0.0
O297 O 0.01201 0.36366 0.97217 0.0
O298 O 0.03089 0.41723 0.94265 0.0
O299 O 0.03599 0.41 0.97947 0.0
C300 C 0.03272 0.42141 0.96435 0.0
C301 C 0.04655 0.35844 0.01666 0.0
C302 C 0.00396 0.37215 0.95733 0.0
C303 C 0.05821 0.3703 0.93573 0.0
O304 O 0.0533 0.36125 0.95254 0.0
O305 O 0.05242 0.38466 0.933 0.0
O306 O 0.04144 0.34773 0.00169 0.0
O307 O 0.04571 0.37376 0.01079 0.0
O308 O 0.86503 0.75105 0.19653 0.0
Cd309 Cd 0.85732 0.77449 0.20415 0.0
Cd310 Cd 0.8841 0.77358 0.23152 0.0
O311 O 0.8829 0.74853 0.22539 0.0
O312 O 0.83396 0.77464 0.19416 0.0
O313 O 0.84179 0.77704 0.23131 0.0
C314 C 0.83006 0.7756 0.2161 0.0
C315 C 0.8905 0.7837 0.2689 0.0
C316 C 0.87486 0.74225 0.20845 0.0
C317 C 0.88426 0.79591 0.18887 0.0
O318 O 0.89247 0.78833 0.20451 0.0
O319 O 0.86891 0.79343 0.18686 0.0
O320 O 0.90133 0.77644 0.25603 0.0
O321 O 0.87564 0.78461 0.26093 0.0
O322 O 0.49348 0.61349 0.45042 0.0
Cd323 Cd 0.47061 0.60406 0.45742 0.0
Cd324 Cd 0.46823 0.63252 0.48343 0.0
O325 O 0.49256 0.63525 0.47354 0.0
O326 O 0.47259 0.58082 0.44728 0.0
O327 O 0.46861 0.58818 0.48433 0.0
C328 C 0.47127 0.5767 0.46908 0.0
C329 C 0.46006 0.64028 0.52131 0.0
C330 C 0.50028 0.62614 0.45912 0.0
C331 C 0.4454 0.62799 0.4416 0.0
O332 O 0.45082 0.63709 0.45803 0.0
O333 O 0.45117 0.61363 0.4386 0.0
O334 O 0.46456 0.65093 0.50587 0.0
O335 O 0.46073 0.62494 0.51556 0.0
O336 O 0.36762 0.24505 0.20168 0.0
Cd337 Cd 0.3584 0.22196 0.20811 0.0
Cd338 Cd 0.38822 0.21946 0.23176 0.0
O339 O 0.39056 0.24386 0.22236 0.0
O340 O 0.3351 0.22418 0.19832 0.0
O341 O 0.3426 0.21944 0.23509 0.0
C342 C 0.33105 0.22238 0.22007 0.0
C343 C 0.39729 0.2108 0.26879 0.0
C344 C 0.38065 0.25178 0.20931 0.0
C345 C 0.38198 0.19712 0.18978 0.0
O346 O 0.39168 0.20242 0.20554 0.0
O347 O 0.36746 0.20278 0.18815 0.0
O348 O 0.40742 0.21495 0.25245 0.0
O349 O 0.38175 0.21212 0.26446 0.0
O350 O 0.50397 0.61831 0.95063 0.0
Cd351 Cd 0.52705 0.6089 0.9562 0.0
Cd352 Cd 0.52963 0.63659 0.98355 0.0
O353 O 0.50464 0.63819 0.97693 0.0
O354 O 0.5251 0.58574 0.94569 0.0
O355 O 0.52991 0.59282 0.98266 0.0
C356 C 0.52705 0.58144 0.96733 0.0
C357 C 0.53958 0.64432 0.02061 0.0
C358 C 0.49686 0.62989 0.9616 0.0
C359 C 0.55088 0.63364 0.93958 0.0
O360 O 0.54544 0.64239 0.95639 0.0
O361 O 0.54587 0.61899 0.93684 0.0
O362 O 0.53379 0.65491 0.00598 0.0
O363 O 0.53923 0.62902 0.01456 0.0
O364 O 0.13292 0.75179 0.69878 0.0
Cd365 Cd 0.14162 0.77512 0.70434 0.0
Cd366 Cd 0.11434 0.7767 0.73198 0.0
O367 O 0.11357 0.7516 0.7259 0.0
O368 O 0.16484 0.77381 0.69387 0.0
O369 O 0.15759 0.77833 0.73085 0.0
C370 C 0.16906 0.77572 0.71555 0.0
C371 C 0.10778 0.7869 0.7693 0.0
C372 C 0.12188 0.74418 0.71022 0.0
C373 C 0.11593 0.79793 0.68795 0.0
O374 O 0.10747 0.79205 0.70477 0.0
O375 O 0.13081 0.79363 0.68519 0.0
O376 O 0.09679 0.7806 0.75573 0.0
O377 O 0.12283 0.78692 0.76202 0.0
O378 O 0.99126 0.38314 0.44676 0.0
Cd379 Cd 0.96874 0.39332 0.45383 0.0
Cd380 Cd 0.96602 0.36585 0.48106 0.0
O381 O 0.99071 0.36322 0.473 0.0
O382 O 0.97131 0.41644 0.44346 0.0
O383 O 0.96717 0.40933 0.48058 0.0
C384 C 0.97011 0.42068 0.46523 0.0
C385 C 0.95683 0.35891 0.5188 0.0
C386 C 0.99829 0.37127 0.4572 0.0
C387 C 0.94373 0.36948 0.43833 0.0
O388 O 0.94933 0.36053 0.4548 0.0
O389 O 0.94909 0.38399 0.43542 0.0
O390 O 0.96179 0.34794 0.50411 0.0
O391 O 0.95758 0.37411 0.51237 0.0
O392 O 0.36614 0.75446 0.30365 0.0
Cd393 Cd 0.35703 0.77722 0.29501 0.0
Cd394 Cd 0.38513 0.77772 0.26854 0.0
O395 O 0.38612 0.75312 0.27753 0.0
O396 O 0.33361 0.77597 0.30452 0.0
O397 O 0.34163 0.77852 0.26749 0.0
C398 C 0.32986 0.77657 0.28251 0.0
C399 C 0.39368 0.78592 0.23104 0.0
C400 C 0.37757 0.74645 0.29363 0.0
C401 C 0.38186 0.80139 0.30989 0.0
O402 O 0.3908 0.79457 0.29438 0.0
O403 O 0.36693 0.79715 0.31228 0.0
O404 O 0.40396 0.78089 0.24667 0.0
O405 O 0.37824 0.7857 0.23631 0.0
O406 O 0.98939 0.61592 0.05185 0.0
Cd407 Cd 0.96702 0.60496 0.04633 0.0
Cd408 Cd 0.96106 0.63534 0.02461 0.0
O409 O 0.98521 0.63975 0.03426 0.0
O410 O 0.9715 0.58187 0.05545 0.0
O411 O 0.96504 0.58921 0.01917 0.0
C412 C 0.96937 0.57784 0.03377 0.0
C413 C 0.95181 0.64514 0.98824 0.0
C414 C 0.9945 0.62999 0.04559 0.0
C415 C 0.94016 0.62543 0.06671 0.0
O416 O 0.94362 0.63587 0.05084 0.0
O417 O 0.9479 0.6119 0.06795 0.0
O418 O 0.9547 0.65488 0.0056 0.0
O419 O 0.95463 0.62966 0.99122 0.0
O420 O 0.13368 0.23775 0.80781 0.0
Cd421 Cd 0.1432 0.21532 0.79868 0.0
Cd422 Cd 0.11554 0.21455 0.77183 0.0
O423 O 0.11438 0.23923 0.7807 0.0
O424 O 0.16659 0.21702 0.80809 0.0
O425 O 0.15852 0.21447 0.77107 0.0
C426 C 0.17028 0.21664 0.78605 0.0
C427 C 0.10751 0.20654 0.73399 0.0
C428 C 0.12248 0.24578 0.79737 0.0
C429 C 0.11883 0.1909 0.81333 0.0
O430 O 0.10988 0.19757 0.79766 0.0
O431 O 0.13369 0.19531 0.81588 0.0
O432 O 0.09699 0.21131 0.74946 0.0
O433 O 0.12288 0.20678 0.73971 0.0
O434 O 0.5013 0.3809 0.55175 0.0
Cd435 Cd 0.52473 0.38831 0.5434 0.0
Cd436 Cd 0.52292 0.36185 0.51605 0.0
O437 O 0.49796 0.36347 0.52253 0.0
O438 O 0.52532 0.41165 0.55334 0.0
O439 O 0.52714 0.40375 0.51615 0.0
C440 C 0.52604 0.41551 0.53137 0.0
C441 C 0.53287 0.35548 0.4786 0.0
C442 C 0.49211 0.37139 0.53988 0.0
C443 C 0.54565 0.36101 0.55818 0.0
O444 O 0.53756 0.35302 0.54286 0.0
O445 O 0.54376 0.37645 0.56009 0.0
O446 O 0.52539 0.34473 0.49133 0.0
O447 O 0.53406 0.37027 0.48671 0.0
H448 H 0.07381 0.15709 0.43506 0.0
H449 H 0.08761 0.16996 0.40172 0.0
H450 H 0.07164 0.13057 0.35649 0.0
H451 H 0.05773 0.11743 0.38991 0.0
H452 H 0.10929 0.14799 0.35405 0.0
H453 H 0.05255 0.18567 0.34487 0.0
H454 H 0.05975 0.18193 0.37434 0.0
H455 H 0.05235 0.16511 0.3569 0.0
C456 C 0.0735 0.15093 0.41817 0.0
C457 C 0.06451 0.13634 0.41507 0.0
C458 C 0.08144 0.15828 0.39918 0.0
C459 C 0.08051 0.15122 0.37676 0.0
C460 C 0.07249 0.13612 0.37377 0.0
H461 H 0.09867 0.22533 0.2691 0.0
H462 H 0.08923 0.19875 0.28412 0.0
C463 C 0.06458 0.12866 0.39286 0.0
C464 C 0.08622 0.16083 0.35636 0.0
H465 H 0.07656 0.19562 0.32613 0.0
C466 C 0.10206 0.15821 0.34747 0.0
C467 C 0.0766 0.17391 0.34761 0.0
C468 C 0.0593 0.17685 0.35623 0.0
C469 C 0.10897 0.16912 0.33106 0.0
C470 C 0.0999 0.18313 0.32396 0.0
C471 C 0.08358 0.18495 0.33158 0.0
C472 C 0.1076 0.19722 0.31159 0.0
C473 C 0.12607 0.16575 0.32202 0.0
C474 C 0.12126 0.20502 0.32169 0.0
C475 C 0.1267 0.22012 0.31312 0.0
C476 C 0.11844 0.22791 0.29447 0.0
C477 C 0.10527 0.2197 0.28355 0.0
C478 C 0.09988 0.20449 0.29208 0.0
H479 H 0.12843 0.15232 0.32101 0.0
H480 H 0.12806 0.17123 0.30437 0.0
H481 H 0.13518 0.17105 0.33442 0.0
H482 H 0.12714 0.19996 0.33716 0.0
H483 H 0.1369 0.22606 0.32195 0.0
H484 H 0.01706 0.8431 0.52385 0.0
H485 H 0.04182 0.83213 0.5427 0.0
H486 H 0.04219 0.87312 0.59079 0.0
H487 H 0.01786 0.88438 0.57179 0.0
H488 H 0.07368 0.86323 0.57806 0.0
H489 H 0.03488 0.81049 0.60662 0.0
H490 H 0.03661 0.81331 0.5754 0.0
H491 H 0.02629 0.82852 0.59293 0.0
C492 C 0.02261 0.84995 0.53811 0.0
C493 C 0.01529 0.86445 0.54661 0.0
C494 C 0.03672 0.84364 0.54891 0.0
C495 C 0.04359 0.85163 0.56848 0.0
C496 C 0.03704 0.86671 0.57579 0.0
H497 H 0.08658 0.81368 0.69242 0.0
H498 H 0.07106 0.82771 0.66172 0.0
C499 C 0.02305 0.87309 0.56495 0.0
C500 C 0.0563 0.84358 0.58313 0.0
H501 H 0.06185 0.81143 0.62081 0.0
C502 C 0.07122 0.8518 0.58722 0.0
C503 C 0.05291 0.82878 0.59529 0.0
C504 C 0.03677 0.81979 0.59256 0.0
C505 C 0.08268 0.84581 0.60362 0.0
C506 C 0.07914 0.83115 0.61596 0.0
C507 C 0.06448 0.82269 0.61129 0.0
C508 C 0.08978 0.8248 0.63501 0.0
C509 C 0.09811 0.85552 0.6084 0.0
C510 C 0.10566 0.81891 0.63031 0.0
C511 C 0.11465 0.81095 0.64795 0.0
C512 C 0.10778 0.8086 0.67042 0.0
C513 C 0.09218 0.81519 0.67527 0.0
C514 C 0.08329 0.82321 0.65775 0.0
H515 H 0.09754 0.86806 0.60069 0.0
H516 H 0.1003 0.8566 0.62762 0.0
H517 H 0.10879 0.84903 0.60059 0.0
H518 H 0.11079 0.81981 0.61279 0.0
H519 H 0.12661 0.80594 0.64364 0.0
H520 H 0.43172 0.88225 0.90057 0.0
H521 H 0.41437 0.86941 0.87039 0.0
H522 H 0.41841 0.82289 0.9063 0.0
H523 H 0.4352 0.83554 0.93655 0.0
H524 H 0.42265 0.84533 0.84049 0.0
H525 H 0.37011 0.82405 0.89319 0.0
H526 H 0.38457 0.83902 0.90419 0.0
H527 H 0.38878 0.81732 0.9068 0.0
C528 C 0.42861 0.86935 0.90225 0.0
C529 C 0.43482 0.85993 0.92102 0.0
C530 C 0.41874 0.86205 0.88498 0.0
C531 C 0.41484 0.84526 0.88631 0.0
C532 C 0.42083 0.83596 0.90524 0.0
H533 H 0.40848 0.76752 0.79269 0.0
H534 H 0.41525 0.79349 0.81172 0.0
C535 C 0.43058 0.84321 0.92247 0.0
C536 C 0.4058 0.83686 0.86715 0.0
H537 H 0.37682 0.80726 0.85882 0.0
C538 C 0.41234 0.8373 0.8443 0.0
C539 C 0.39204 0.82676 0.87184 0.0
C540 C 0.38338 0.82693 0.8953 0.0
C541 C 0.40644 0.82678 0.82663 0.0
C542 C 0.39406 0.81518 0.83224 0.0
C543 C 0.38654 0.81586 0.85448 0.0
C544 C 0.38994 0.80112 0.81664 0.0
C545 C 0.41381 0.82799 0.80236 0.0
C546 C 0.37346 0.79663 0.81295 0.0
C547 C 0.36959 0.78151 0.80273 0.0
C548 C 0.38212 0.77071 0.79565 0.0
C549 C 0.39858 0.77569 0.79776 0.0
C550 C 0.40245 0.79064 0.80848 0.0
H551 H 0.41721 0.8409 0.79825 0.0
H552 H 0.42525 0.82057 0.80168 0.0
H553 H 0.40522 0.82348 0.78863 0.0
H554 H 0.36357 0.80447 0.81908 0.0
H555 H 0.35678 0.778 0.8012 0.0
H556 H 0.36657 0.18546 0.15 0.0
H557 H 0.37887 0.16873 0.11868 0.0
H558 H 0.42423 0.1664 0.15787 0.0
H559 H 0.41205 0.18252 0.18919 0.0
H560 H 0.40437 0.1768 0.09158 0.0
H561 H 0.42007 0.1196 0.13777 0.0
H562 H 0.40589 0.13439 0.15 0.0
H563 H 0.42775 0.13662 0.15441 0.0
C564 C 0.37904 0.18103 0.15216 0.0
C565 C 0.38832 0.18534 0.17212 0.0
C566 C 0.38605 0.17152 0.13422 0.0
C567 C 0.40238 0.16607 0.13609 0.0
C568 C 0.41146 0.17003 0.15628 0.0
H569 H 0.4827 0.16081 0.04698 0.0
H570 H 0.45656 0.16794 0.06527 0.0
C571 C 0.40449 0.17941 0.17415 0.0
C572 C 0.41074 0.15771 0.11625 0.0
H573 H 0.43871 0.12747 0.10582 0.0
C574 C 0.41156 0.16575 0.09443 0.0
C575 C 0.41974 0.14303 0.11961 0.0
C576 C 0.41814 0.13284 0.14166 0.0
C577 C 0.42233 0.16036 0.07673 0.0
C578 C 0.43291 0.14692 0.08133 0.0
C579 C 0.43091 0.138 0.10231 0.0
C580 C 0.44728 0.14295 0.06619 0.0
C581 C 0.42246 0.16938 0.05356 0.0
C582 C 0.45092 0.12654 0.06055 0.0
C583 C 0.46612 0.12241 0.0508 0.0
C584 C 0.47786 0.13464 0.04611 0.0
C585 C 0.4738 0.15116 0.05017 0.0
C586 C 0.45875 0.15525 0.06046 0.0
H587 H 0.40994 0.17385 0.04908 0.0
H588 H 0.43055 0.18032 0.05501 0.0
H589 H 0.42696 0.16148 0.039 0.0
H590 H 0.44232 0.11681 0.06478 0.0
H591 H 0.46893 0.10957 0.04772 0.0
H592 H 0.10827 0.78008 0.22859 0.0
H593 H 0.10064 0.80695 0.21238 0.0
H594 H 0.12389 0.79415 0.14667 0.0
H595 H 0.13214 0.76779 0.16296 0.0
H596 H 0.12889 0.82585 0.15671 0.0
H597 H 0.06257 0.8106 0.16807 0.0
H598 H 0.07442 0.81143 0.19465 0.0
H599 H 0.07856 0.79572 0.17321 0.0
C600 C 0.11191 0.78311 0.21079 0.0
C601 C 0.12061 0.77173 0.19695 0.0
C602 C 0.10748 0.79842 0.20152 0.0
C603 C 0.11135 0.80241 0.17812 0.0
C604 C 0.12072 0.79136 0.16475 0.0
H605 H 0.08026 0.84884 0.05833 0.0
H606 H 0.09618 0.83651 0.09018 0.0
C607 C 0.12538 0.77623 0.17408 0.0
C608 C 0.10475 0.81737 0.16661 0.0
H609 H 0.0689 0.83429 0.1469 0.0
C610 C 0.11577 0.82788 0.15491 0.0
C611 C 0.0876 0.82002 0.16428 0.0
C612 C 0.07507 0.80881 0.17553 0.0
C613 C 0.1101 0.84032 0.13986 0.0
C614 C 0.09303 0.84234 0.13662 0.0
C615 C 0.08201 0.83269 0.1496 0.0
C616 C 0.08626 0.85234 0.11725 0.0
C617 C 0.12236 0.85074 0.12673 0.0
C618 C 0.07569 0.86557 0.12191 0.0
C619 C 0.06667 0.87276 0.10366 0.0
C620 C 0.06783 0.86652 0.08065 0.0
C621 C 0.07909 0.85386 0.0759 0.0
C622 C 0.08827 0.84688 0.09404 0.0
H623 H 0.13453 0.85081 0.1356 0.0
H624 H 0.12402 0.84567 0.10876 0.0
H625 H 0.11789 0.86359 0.12503 0.0
H626 H 0.07386 0.86979 0.13979 0.0
H627 H 0.05801 0.88244 0.10785 0.0
H628 H 0.36779 0.81673 0.34806 0.0
H629 H 0.3817 0.83405 0.37727 0.0
H630 H 0.42706 0.82944 0.33854 0.0
H631 H 0.41334 0.81267 0.30923 0.0
H632 H 0.40657 0.8254 0.40562 0.0
H633 H 0.4269 0.87774 0.3517 0.0
H634 H 0.41148 0.86343 0.34159 0.0
H635 H 0.43305 0.85896 0.33784 0.0
C636 C 0.38065 0.81972 0.34554 0.0
C637 C 0.38944 0.81332 0.32628 0.0
C638 C 0.38857 0.82957 0.36227 0.0
C639 C 0.40536 0.83327 0.35989 0.0
C640 C 0.41401 0.82716 0.34043 0.0
H641 H 0.48517 0.84062 0.45146 0.0
H642 H 0.45938 0.83326 0.43228 0.0
C643 C 0.40614 0.81742 0.32374 0.0
C644 C 0.41443 0.8422 0.37854 0.0
H645 H 0.44429 0.87113 0.38539 0.0
C646 C 0.41454 0.83568 0.4014 0.0
C647 C 0.42449 0.85589 0.3733 0.0
C648 C 0.42381 0.8645 0.34982 0.0
C649 C 0.42548 0.84158 0.41854 0.0
C650 C 0.43692 0.85397 0.41238 0.0
C651 C 0.43579 0.8614 0.39013 0.0
C652 C 0.45111 0.85838 0.42757 0.0
C653 C 0.42483 0.83423 0.44287 0.0
C654 C 0.45519 0.87495 0.43132 0.0
C655 C 0.47018 0.87917 0.44166 0.0
C656 C 0.48128 0.86689 0.44877 0.0
C657 C 0.47677 0.85033 0.44638 0.0
C658 C 0.46193 0.84611 0.43557 0.0
H659 H 0.41208 0.83055 0.44746 0.0
H660 H 0.43254 0.82298 0.44335 0.0
H661 H 0.42938 0.84296 0.4564 0.0
H662 H 0.44709 0.88465 0.4253 0.0
H663 H 0.47331 0.89205 0.44341 0.0
H664 H 0.41058 0.24045 0.70397 0.0
H665 H 0.419 0.21524 0.68394 0.0
H666 H 0.36827 0.20021 0.6786 0.0
H667 H 0.35972 0.22578 0.69767 0.0
H668 H 0.41588 0.18229 0.68886 0.0
H669 H 0.38088 0.20361 0.6105 0.0
H670 H 0.38385 0.21639 0.636 0.0
H671 H 0.36869 0.20028 0.63634 0.0
C672 C 0.40125 0.23163 0.69893 0.0
C673 C 0.38449 0.2352 0.70194 0.0
C674 C 0.40607 0.21721 0.68749 0.0
C675 C 0.39423 0.20607 0.67918 0.0
C676 C 0.37758 0.20888 0.68421 0.0
H677 H 0.43413 0.12138 0.59901 0.0
H678 H 0.41766 0.13607 0.62844 0.0
C679 C 0.37272 0.22344 0.69521 0.0
C680 C 0.3993 0.19255 0.66328 0.0
H681 H 0.39627 0.17954 0.60636 0.0
C682 C 0.41146 0.18152 0.6709 0.0
C683 C 0.39356 0.19167 0.63978 0.0
C684 C 0.38114 0.20368 0.63004 0.0
C685 C 0.41861 0.17014 0.65537 0.0
C686 C 0.41313 0.16957 0.63176 0.0
C687 C 0.40036 0.17998 0.62452 0.0
C688 C 0.422 0.16013 0.61345 0.0
C689 C 0.43262 0.15958 0.66396 0.0
C690 C 0.42933 0.16871 0.59481 0.0
C691 C 0.43849 0.1604 0.5779 0.0
C692 C 0.4406 0.14328 0.57926 0.0
C693 C 0.43281 0.13458 0.59754 0.0
C694 C 0.42351 0.14296 0.61447 0.0
H695 H 0.4372 0.16357 0.68146 0.0
H696 H 0.42838 0.14666 0.6655 0.0
H697 H 0.44301 0.15988 0.6513 0.0
H698 H 0.42829 0.18197 0.59364 0.0
H699 H 0.44425 0.16751 0.56407 0.0
H700 H 0.0889 0.17611 0.80986 0.0
H701 H 0.07389 0.16201 0.84103 0.0
H702 H 0.1159 0.16612 0.88684 0.0
H703 H 0.13118 0.18028 0.85562 0.0
H704 H 0.09533 0.13389 0.88764 0.0
H705 H 0.06118 0.19233 0.90004 0.0
H706 H 0.06258 0.18552 0.87003 0.0
H707 H 0.08092 0.19134 0.88555 0.0
C708 C 0.09511 0.17374 0.82637 0.0
C709 C 0.11115 0.17953 0.83038 0.0
C710 C 0.08651 0.16568 0.84414 0.0
C711 C 0.09375 0.16329 0.86623 0.0
C712 C 0.11014 0.16793 0.86986 0.0
H713 H 0.01988 0.14727 0.97499 0.0
H714 H 0.04654 0.1555 0.95886 0.0
C715 C 0.11883 0.17599 0.852 0.0
C716 C 0.08346 0.15751 0.88593 0.0
H717 H 0.04926 0.16831 0.91678 0.0
C718 C 0.08541 0.14145 0.8944 0.0
C719 C 0.07084 0.16757 0.89507 0.0
C720 C 0.06879 0.18522 0.8874 0.0
C721 C 0.07424 0.1348 0.91068 0.0
C722 C 0.06071 0.14442 0.91822 0.0
C723 C 0.05955 0.16087 0.91096 0.0
C724 C 0.04652 0.13733 0.93105 0.0
C725 C 0.07687 0.11747 0.91925 0.0
C726 C 0.03782 0.12417 0.9211 0.0
C727 C 0.02267 0.11941 0.9303 0.0
C728 C 0.01574 0.12789 0.94945 0.0
C729 C 0.02483 0.14054 0.96017 0.0
C730 C 0.04009 0.14523 0.95101 0.0
H731 H 0.09017 0.11438 0.91971 0.0
H732 H 0.07161 0.1156 0.93707 0.0
H733 H 0.07084 0.10879 0.9069 0.0
H734 H 0.04226 0.11817 0.90532 0.0
H735 H 0.01603 0.10959 0.92161 0.0
H736 H 0.936 0.88263 0.60059 0.0
H737 H 0.92179 0.86877 0.6331 0.0
H738 H 0.91377 0.82641 0.58906 0.0
H739 H 0.92788 0.84001 0.5566 0.0
H740 H 0.88759 0.84904 0.63478 0.0
H741 H 0.94564 0.81429 0.64837 0.0
H742 H 0.945 0.83402 0.63381 0.0
H743 H 0.93875 0.81581 0.61838 0.0
C744 C 0.93085 0.87052 0.59764 0.0
C745 C 0.93326 0.86231 0.57611 0.0
C746 C 0.92275 0.86266 0.61623 0.0
C747 C 0.91694 0.84657 0.61342 0.0
C748 C 0.91828 0.83883 0.5915 0.0
H749 H 0.86273 0.77085 0.67298 0.0
H750 H 0.87148 0.79657 0.65528 0.0
C751 C 0.92637 0.84662 0.573 0.0
C752 C 0.91112 0.83696 0.63376 0.0
H753 H 0.92163 0.80349 0.66638 0.0
C754 C 0.89507 0.83926 0.64209 0.0
C755 C 0.92107 0.82449 0.64352 0.0
C756 C 0.93864 0.82202 0.63575 0.0
C757 C 0.88833 0.82859 0.65897 0.0
C758 C 0.89784 0.8152 0.66723 0.0
C759 C 0.91428 0.8137 0.66003 0.0
C760 C 0.89063 0.80142 0.68082 0.0
C761 C 0.871 0.83156 0.66736 0.0
C762 C 0.89845 0.7955 0.70115 0.0
C763 C 0.89365 0.78054 0.71114 0.0
C764 C 0.88097 0.77123 0.70089 0.0
C765 C 0.87256 0.77768 0.68134 0.0
C766 C 0.87743 0.79254 0.67132 0.0
H767 H 0.868 0.84488 0.66705 0.0
H768 H 0.86228 0.82525 0.65537 0.0
H769 H 0.86909 0.82682 0.68547 0.0
H770 H 0.90876 0.8021 0.70868 0.0
H771 H 0.90034 0.77596 0.72625 0.0
H772 H 0.98736 0.16231 0.45263 0.0
H773 H 0.96174 0.16976 0.43304 0.0
H774 H 0.94836 0.11851 0.42855 0.0
H775 H 0.97435 0.11098 0.4472 0.0
H776 H 0.94686 0.13135 0.38756 0.0
H777 H 0.9141 0.17351 0.44704 0.0
H778 H 0.93479 0.18053 0.4432 0.0
H779 H 0.931 0.16093 0.45701 0.0
C780 C 0.97874 0.15267 0.44808 0.0
C781 C 0.98289 0.13607 0.45125 0.0
C782 C 0.964 0.15694 0.43701 0.0
C783 C 0.95298 0.14471 0.42949 0.0
C784 C 0.95664 0.12817 0.43418 0.0
H785 H 0.86982 0.18291 0.34623 0.0
H786 H 0.88412 0.16692 0.37655 0.0
C787 C 0.9715 0.12389 0.44483 0.0
C788 C 0.93911 0.149 0.41367 0.0
H789 H 0.90887 0.17743 0.40498 0.0
C790 C 0.9383 0.14117 0.39166 0.0
C791 C 0.92768 0.16156 0.41901 0.0
C792 C 0.92683 0.16945 0.44298 0.0
C793 C 0.92725 0.14637 0.37432 0.0
C794 C 0.91706 0.16008 0.37882 0.0
C795 C 0.91692 0.1671 0.40138 0.0
C796 C 0.90792 0.16841 0.3597 0.0
C797 C 0.92693 0.13738 0.35111 0.0
C798 C 0.91656 0.17449 0.34021 0.0
C799 C 0.90847 0.1835 0.32289 0.0
C800 C 0.89157 0.18684 0.32482 0.0
C801 C 0.88284 0.18049 0.34417 0.0
C802 C 0.89098 0.1714 0.36153 0.0
H803 H 0.93042 0.12427 0.35337 0.0
H804 H 0.91459 0.13797 0.34279 0.0
H805 H 0.936 0.14306 0.33901 0.0
H806 H 0.92971 0.1727 0.33872 0.0
H807 H 0.91562 0.18825 0.30833 0.0
H808 H 0.55255 0.11753 0.11058 0.0
H809 H 0.56657 0.1309 0.14373 0.0
H810 H 0.58229 0.17004 0.09789 0.0
H811 H 0.5684 0.15693 0.06482 0.0
H812 H 0.60403 0.14773 0.14584 0.0
H813 H 0.54819 0.18672 0.15465 0.0
H814 H 0.54757 0.16618 0.1426 0.0
H815 H 0.55532 0.18285 0.12518 0.0
C816 C 0.55933 0.12877 0.10745 0.0
C817 C 0.5592 0.13629 0.08514 0.0
C818 C 0.56732 0.13636 0.12639 0.0
C819 C 0.57531 0.15145 0.12314 0.0
C820 C 0.57612 0.15838 0.10064 0.0
H821 H 0.63358 0.22526 0.17819 0.0
H822 H 0.62316 0.19951 0.16257 0.0
C823 C 0.56813 0.15089 0.0818 0.0
C824 C 0.58128 0.16111 0.14335 0.0
H825 H 0.57247 0.1963 0.17316 0.0
C826 C 0.59706 0.15816 0.15229 0.0
C827 C 0.57199 0.17448 0.15192 0.0
C828 C 0.55476 0.17777 0.14328 0.0
C829 C 0.60423 0.169 0.16856 0.0
C830 C 0.59549 0.18326 0.17552 0.0
C831 C 0.57924 0.18544 0.16782 0.0
C832 C 0.60347 0.19715 0.18798 0.0
C833 C 0.62124 0.16528 0.17766 0.0
C834 C 0.59588 0.20452 0.20751 0.0
C835 C 0.60165 0.21952 0.21628 0.0
C836 C 0.61509 0.22742 0.2056 0.0
C837 C 0.62319 0.21954 0.18687 0.0
C838 C 0.61736 0.20465 0.17805 0.0
H839 H 0.62333 0.1518 0.17866 0.0
H840 H 0.63048 0.17041 0.16532 0.0
H841 H 0.6233 0.1707 0.19533 0.0
H842 H 0.58506 0.19901 0.21535 0.0
H843 H 0.59517 0.22522 0.23079 0.0
H844 H 0.52165 0.84561 0.97295 0.0
H845 H 0.54772 0.83676 0.95559 0.0
H846 H 0.54459 0.87609 0.90489 0.0
H847 H 0.51895 0.88525 0.92243 0.0
H848 H 0.54959 0.82539 0.91248 0.0
H849 H 0.59274 0.87742 0.91897 0.0
H850 H 0.57425 0.87629 0.93648 0.0
H851 H 0.57357 0.8842 0.90687 0.0
C852 C 0.52673 0.85262 0.95849 0.0
C853 C 0.51813 0.86605 0.94895 0.0
C854 C 0.54166 0.84757 0.94862 0.0
C855 C 0.54824 0.85588 0.92911 0.0
C856 C 0.54004 0.86974 0.92031 0.0
H857 H 0.58935 0.81905 0.80533 0.0
H858 H 0.5746 0.83259 0.83725 0.0
C859 C 0.52522 0.87485 0.93023 0.0
C860 C 0.56205 0.84868 0.91558 0.0
H861 H 0.59711 0.85876 0.88574 0.0
C862 C 0.56018 0.83258 0.90714 0.0
C863 C 0.57598 0.85797 0.90869 0.0
C864 C 0.57933 0.87487 0.91847 0.0
C865 C 0.57119 0.82595 0.8908 0.0
C866 C 0.58425 0.83576 0.88238 0.0
C867 C 0.58687 0.85142 0.89195 0.0
C868 C 0.5944 0.83019 0.86239 0.0
C869 C 0.56842 0.80867 0.88196 0.0
C870 C 0.61069 0.82511 0.86576 0.0
C871 C 0.61923 0.81737 0.84747 0.0
C872 C 0.61151 0.81461 0.82565 0.0
C873 C 0.59559 0.82081 0.82197 0.0
C874 C 0.58713 0.82855 0.84018 0.0
H875 H 0.56058 0.80145 0.89418 0.0
H876 H 0.56213 0.80919 0.86465 0.0
H877 H 0.58029 0.80213 0.87957 0.0
H878 H 0.61648 0.82636 0.88283 0.0
H879 H 0.6315 0.81276 0.85085 0.0
H880 H 0.89935 0.23032 0.77326 0.0
H881 H 0.9086 0.20389 0.78898 0.0
H882 H 0.87176 0.20682 0.8434 0.0
H883 H 0.86218 0.2328 0.82752 0.0
H884 H 0.92201 0.20142 0.83068 0.0
H885 H 0.86935 0.15888 0.82885 0.0
H886 H 0.86977 0.1775 0.81155 0.0
H887 H 0.86325 0.17797 0.84186 0.0
C888 C 0.89294 0.22511 0.78819 0.0
C889 C 0.88014 0.23376 0.79927 0.0
C890 C 0.89822 0.20998 0.79712 0.0
C891 C 0.89076 0.20325 0.81722 0.0
C892 C 0.87743 0.21148 0.82752 0.0
H893 H 0.9323 0.16237 0.93762 0.0
H894 H 0.91873 0.17743 0.90607 0.0
C895 C 0.87209 0.2265 0.81855 0.0
C896 C 0.89845 0.18926 0.8298 0.0
H897 H 0.88927 0.15443 0.86068 0.0
C898 C 0.91494 0.19093 0.83669 0.0
C899 C 0.88933 0.17545 0.83753 0.0
C900 C 0.872 0.17227 0.82931 0.0
C901 C 0.92214 0.17987 0.85247 0.0
C902 C 0.91254 0.16701 0.86193 0.0
C903 C 0.89647 0.16454 0.85373 0.0
C904 C 0.9187 0.15701 0.88171 0.0
C905 C 0.93983 0.18243 0.85962 0.0
C906 C 0.92244 0.14032 0.87875 0.0
C907 C 0.93019 0.1316 0.89686 0.0
C908 C 0.93426 0.1395 0.91812 0.0
C909 C 0.92952 0.15596 0.92141 0.0
C910 C 0.92179 0.1646 0.90339 0.0
H911 H 0.94668 0.18972 0.8463 0.0
H912 H 0.94022 0.18925 0.87651 0.0
H913 H 0.9462 0.17048 0.86216 0.0
H914 H 0.92003 0.13427 0.86214 0.0
H915 H 0.93364 0.11892 0.89381 0.0
H916 H 0.63615 0.18736 0.64216 0.0
H917 H 0.62291 0.17296 0.60933 0.0
H918 H 0.58741 0.15222 0.65712 0.0
H919 H 0.60038 0.16662 0.68993 0.0
H920 H 0.60227 0.13111 0.61333 0.0
H921 H 0.57298 0.19204 0.59654 0.0
H922 H 0.59479 0.19061 0.60188 0.0
H923 H 0.58062 0.18688 0.62541 0.0
C924 C 0.62585 0.17931 0.6458 0.0
C925 C 0.61916 0.17828 0.66857 0.0
C926 C 0.61832 0.17113 0.62702 0.0
C927 C 0.60418 0.16166 0.6309 0.0
C928 C 0.59836 0.15947 0.65388 0.0
H929 H 0.52144 0.1139 0.58124 0.0
H930 H 0.54827 0.12107 0.5968 0.0
C931 C 0.60574 0.16775 0.67257 0.0
C932 C 0.59386 0.15613 0.61111 0.0
H933 H 0.56144 0.16913 0.57807 0.0
C934 C 0.59356 0.13943 0.60515 0.0
C935 C 0.58268 0.16709 0.60036 0.0
C936 C 0.58265 0.18518 0.60625 0.0
C937 C 0.58172 0.13323 0.5895 0.0
C938 C 0.5696 0.14397 0.58033 0.0
C939 C 0.57068 0.16087 0.58511 0.0
C940 C 0.55448 0.13786 0.56861 0.0
C941 C 0.58213 0.1152 0.58342 0.0
C942 C 0.54881 0.14507 0.54767 0.0
C943 C 0.53318 0.14126 0.53892 0.0
C944 C 0.52297 0.13015 0.551 0.0
C945 C 0.52898 0.12247 0.57141 0.0
C946 C 0.54448 0.1264 0.58023 0.0
H947 H 0.59496 0.11053 0.58328 0.0
H948 H 0.5753 0.10819 0.59702 0.0
H949 H 0.57647 0.11275 0.566 0.0
H950 H 0.55625 0.15407 0.53852 0.0
H951 H 0.52894 0.14735 0.52312 0.0
H952 H 0.60511 0.77897 0.27011 0.0
H953 H 0.5971 0.80571 0.28621 0.0
H954 H 0.62623 0.79617 0.34815 0.0
H955 H 0.6347 0.7699 0.33194 0.0
H956 H 0.57937 0.80934 0.32378 0.0
H957 H 0.63679 0.84338 0.33935 0.0
H958 H 0.63607 0.82546 0.32064 0.0
H959 H 0.63852 0.82332 0.35204 0.0
C960 C 0.61012 0.78276 0.2869 0.0
C961 C 0.62047 0.77225 0.29979 0.0
C962 C 0.60556 0.79807 0.29606 0.0
C963 C 0.61126 0.80311 0.31824 0.0
C964 C 0.62207 0.79286 0.33069 0.0
H965 H 0.57345 0.84481 0.43787 0.0
H966 H 0.58917 0.83212 0.40611 0.0
C967 C 0.62676 0.77769 0.32148 0.0
C968 C 0.60413 0.81773 0.33007 0.0
H969 H 0.61413 0.84944 0.36679 0.0
C970 C 0.58697 0.81843 0.33253 0.0
C971 C 0.61399 0.82967 0.34147 0.0
C972 C 0.63235 0.8305 0.33799 0.0
C973 C 0.57953 0.82985 0.34759 0.0
C974 C 0.58952 0.84078 0.36054 0.0
C975 C 0.60656 0.8409 0.35692 0.0
C976 C 0.58253 0.85035 0.38015 0.0
C977 C 0.56113 0.82947 0.35088 0.0
C978 C 0.57405 0.86507 0.37609 0.0
C979 C 0.56508 0.87244 0.39427 0.0
C980 C 0.56436 0.86501 0.41661 0.0
C981 C 0.57366 0.85075 0.42083 0.0
C982 C 0.58271 0.84353 0.40276 0.0
H983 H 0.55504 0.82053 0.33895 0.0
H984 H 0.55819 0.82612 0.36934 0.0
H985 H 0.55592 0.84186 0.34756 0.0
H986 H 0.57375 0.87042 0.35865 0.0
H987 H 0.55801 0.8834 0.39048 0.0
H988 H 0.91685 0.80362 0.18861 0.0
H989 H 0.93179 0.81963 0.15952 0.0
H990 H 0.88666 0.82905 0.12207 0.0
H991 H 0.87149 0.81267 0.15107 0.0
H992 H 0.91151 0.81875 0.09288 0.0
H993 H 0.93391 0.86884 0.14996 0.0
H994 H 0.93871 0.84917 0.16236 0.0
H995 H 0.91754 0.85519 0.15877 0.0
C996 C 0.91 0.80923 0.17438 0.0
C997 C 0.89294 0.80687 0.17221 0.0
C998 C 0.91858 0.81849 0.15782 0.0
C999 C 0.9103 0.82576 0.13886 0.0
C1000 C 0.89324 0.82363 0.1367 0.0
H1001 H 0.97587 0.88751 0.05598 0.0
H1002 H 0.95047 0.87858 0.07498 0.0
C1003 C 0.88461 0.81431 0.1533 0.0
C1004 C 0.91982 0.8347 0.12072 0.0
H1005 H 0.9499 0.86352 0.11492 0.0
C1006 C 0.91968 0.82878 0.09753 0.0
C1007 C 0.9302 0.848 0.12665 0.0
C1008 C 0.92997 0.85578 0.15075 0.0
C1009 C 0.93049 0.83508 0.08051 0.0
C1010 C 0.94197 0.84732 0.08709 0.0
C1011 C 0.94129 0.85398 0.10987 0.0
C1012 C 0.95563 0.85259 0.07151 0.0
C1013 C 0.92963 0.8284 0.0558 0.0
C1014 C 0.96678 0.84096 0.06256 0.0
C1015 C 0.98121 0.84604 0.05134 0.0
C1016 C 0.98491 0.86285 0.0494 0.0
C1017 C 0.97339 0.87446 0.05738 0.0
C1018 C 0.95886 0.86938 0.06823 0.0
H1019 H 0.91696 0.82429 0.05146 0.0
H1020 H 0.93353 0.8377 0.04265 0.0
H1021 H 0.93782 0.81755 0.05433 0.0
H1022 H 0.96482 0.82795 0.0654 0.0
H1023 H 0.98992 0.83682 0.04555 0.0
H1024 H 0.55855 0.62239 0.89541 0.0
H1025 H 0.57275 0.63764 0.86427 0.0
H1026 H 0.58194 0.6774 0.91266 0.0
H1027 H 0.56766 0.66244 0.94368 0.0
H1028 H 0.56481 0.68623 0.87129 0.0
H1029 H 0.62158 0.65049 0.85182 0.0
H1030 H 0.6025 0.63932 0.85298 0.0
H1031 H 0.61056 0.64846 0.87926 0.0
C1032 C 0.56393 0.63421 0.89955 0.0
C1033 C 0.56184 0.64128 0.92195 0.0
C1034 C 0.57207 0.64288 0.88175 0.0
C1035 C 0.57838 0.65862 0.88621 0.0
C1036 C 0.57711 0.66526 0.90889 0.0
H1037 H 0.63712 0.73095 0.82291 0.0
H1038 H 0.62625 0.70646 0.84197 0.0
C1039 C 0.56894 0.65669 0.92659 0.0
C1040 C 0.5847 0.66906 0.86695 0.0
H1041 H 0.61695 0.67442 0.82932 0.0
C1042 C 0.57612 0.68359 0.86191 0.0
C1043 C 0.59942 0.6655 0.85482 0.0
C1044 C 0.60918 0.65016 0.85998 0.0
C1045 C 0.58221 0.69504 0.84573 0.0
C1046 C 0.59711 0.69166 0.83382 0.0
C1047 C 0.60543 0.67686 0.83829 0.0
C1048 C 0.60512 0.70433 0.81907 0.0
C1049 C 0.57308 0.71106 0.84255 0.0
C1050 C 0.59723 0.71081 0.79917 0.0
C1051 C 0.60332 0.72499 0.78832 0.0
C1052 C 0.61748 0.73279 0.79714 0.0
C1053 C 0.62608 0.72539 0.81582 0.0
C1054 C 0.61993 0.71132 0.8267 0.0
H1055 H 0.56359 0.71296 0.85634 0.0
H1056 H 0.58171 0.72163 0.84297 0.0
H1057 H 0.56681 0.71104 0.82522 0.0
H1058 H 0.58593 0.70539 0.79276 0.0
H1059 H 0.59651 0.73025 0.77379 0.0
H1060 H 0.62929 0.30788 0.1479 0.0
H1061 H 0.61481 0.32317 0.11702 0.0
H1062 H 0.57353 0.33005 0.16355 0.0
H1063 H 0.58772 0.31477 0.19431 0.0
H1064 H 0.56677 0.31404 0.11929 0.0
H1065 H 0.60112 0.37286 0.10915 0.0
H1066 H 0.6127 0.35399 0.11024 0.0
H1067 H 0.60192 0.36088 0.13589 0.0
C1068 C 0.61727 0.31296 0.15171 0.0
C1069 C 0.60958 0.30997 0.17348 0.0
C1070 C 0.60905 0.32172 0.13407 0.0
C1071 C 0.59313 0.32772 0.13808 0.0
C1072 C 0.58582 0.32549 0.16016 0.0
H1073 H 0.52026 0.38699 0.07769 0.0
H1074 H 0.5447 0.37607 0.0969 0.0
C1075 C 0.59395 0.31673 0.17771 0.0
C1076 C 0.58322 0.33473 0.11877 0.0
H1077 H 0.57776 0.36906 0.08518 0.0
C1078 C 0.56926 0.32598 0.11157 0.0
C1079 C 0.58658 0.35029 0.10886 0.0
C1080 C 0.60134 0.36018 0.1164 0.0
C1081 C 0.55812 0.33264 0.09541 0.0
C1082 C 0.56125 0.34838 0.0858 0.0
C1083 C 0.57553 0.35693 0.0924 0.0
C1084 C 0.54874 0.35683 0.07129 0.0
C1085 C 0.54263 0.32316 0.08983 0.0
C1086 C 0.54336 0.35009 0.0499 0.0
C1087 C 0.52923 0.35619 0.03894 0.0
C1088 C 0.52037 0.36922 0.04916 0.0
C1089 C 0.52666 0.37682 0.06948 0.0
C1090 C 0.5407 0.37065 0.08045 0.0
H1091 H 0.54072 0.31268 0.10206 0.0
H1092 H 0.53169 0.3313 0.09073 0.0
H1093 H 0.54347 0.31816 0.07172 0.0
H1094 H 0.5496 0.33958 0.04235 0.0
H1095 H 0.52483 0.35019 0.02316 0.0
H1096 H 0.90102 0.27272 0.2726 0.0
H1097 H 0.91012 0.29826 0.29131 0.0
H1098 H 0.87061 0.29446 0.34157 0.0
H1099 H 0.8612 0.26926 0.32279 0.0
H1100 H 0.87784 0.32723 0.32867 0.0
H1101 H 0.93351 0.29164 0.35453 0.0
H1102 H 0.92981 0.29343 0.32349 0.0
H1103 H 0.91575 0.28199 0.34156 0.0
C1104 C 0.89405 0.27751 0.2873 0.0
C1105 C 0.8806 0.26876 0.29651 0.0
C1106 C 0.89929 0.29209 0.29799 0.0
C1107 C 0.89123 0.29802 0.3181 0.0
C1108 C 0.87703 0.29004 0.32611 0.0
H1109 H 0.92637 0.34105 0.44281 0.0
H1110 H 0.9121 0.32609 0.41179 0.0
C1111 C 0.87174 0.27556 0.31541 0.0
C1112 C 0.89863 0.31109 0.33277 0.0
H1113 H 0.93078 0.31812 0.36995 0.0
C1114 C 0.88953 0.3254 0.33746 0.0
C1115 C 0.91378 0.30849 0.34445 0.0
C1116 C 0.92377 0.29303 0.34098 0.0
C1117 C 0.89503 0.33702 0.354 0.0
C1118 C 0.90997 0.33418 0.36595 0.0
C1119 C 0.9193 0.32018 0.36068 0.0
C1120 C 0.91578 0.34481 0.3853 0.0
C1121 C 0.88456 0.35183 0.3594 0.0
C1122 C 0.92209 0.36054 0.38081 0.0
C1123 C 0.93025 0.3692 0.3986 0.0
C1124 C 0.93235 0.36212 0.42099 0.0
C1125 C 0.92509 0.3468 0.42572 0.0
C1126 C 0.91691 0.33823 0.40803 0.0
H1127 H 0.87239 0.35125 0.35057 0.0
H1128 H 0.88264 0.35293 0.37867 0.0
H1129 H 0.89101 0.3631 0.35341 0.0
H1130 H 0.92148 0.36572 0.36329 0.0
H1131 H 0.93575 0.38096 0.3944 0.0
H1132 H 0.91699 0.69189 0.68995 0.0
H1133 H 0.93163 0.67682 0.65959 0.0
H1134 H 0.88605 0.66811 0.62287 0.0
H1135 H 0.8712 0.6837 0.65307 0.0
H1136 H 0.92936 0.6456 0.64372 0.0
H1137 H 0.91402 0.68991 0.57241 0.0
H1138 H 0.91003 0.69428 0.60298 0.0
H1139 H 0.89692 0.68041 0.58709 0.0
C1140 C 0.90999 0.6867 0.67555 0.0
C1141 C 0.89292 0.68917 0.67383 0.0
C1142 C 0.9184 0.67806 0.65819 0.0
C1143 C 0.90998 0.6716 0.63875 0.0
C1144 C 0.89283 0.67332 0.63746 0.0
H1145 H 0.97537 0.61261 0.54956 0.0
H1146 H 0.94984 0.62067 0.56919 0.0
C1147 C 0.88436 0.68211 0.65483 0.0
C1148 C 0.91955 0.66357 0.6198 0.0
H1149 H 0.93253 0.66875 0.56315 0.0
C1150 C 0.9299 0.65047 0.62598 0.0
C1151 C 0.92027 0.67008 0.59674 0.0
C1152 C 0.90983 0.68452 0.58933 0.0
C1153 C 0.94161 0.6443 0.61021 0.0
C1154 C 0.94258 0.65103 0.58727 0.0
C1155 C 0.93167 0.66357 0.58069 0.0
C1156 C 0.95607 0.6465 0.57098 0.0
C1157 C 0.95352 0.6314 0.61889 0.0
C1158 C 0.9674 0.65853 0.56379 0.0
C1159 C 0.9818 0.65402 0.55204 0.0
C1160 C 0.98515 0.63738 0.54759 0.0
C1161 C 0.97319 0.62551 0.55313 0.0
C1162 C 0.95866 0.63007 0.56446 0.0
H1163 H 0.95341 0.63032 0.63837 0.0
H1164 H 0.95005 0.61927 0.6115 0.0
H1165 H 0.96626 0.63427 0.61321 0.0
H1166 H 0.96558 0.6713 0.5685 0.0
H1167 H 0.99078 0.66342 0.54795 0.0
H1168 H 0.55064 0.32797 0.56028 0.0
H1169 H 0.56638 0.31267 0.58929 0.0
H1170 H 0.58113 0.35802 0.62244 0.0
H1171 H 0.56496 0.37357 0.59362 0.0
H1172 H 0.59901 0.31324 0.59986 0.0
H1173 H 0.5615 0.33212 0.67716 0.0
H1174 H 0.55497 0.33584 0.64731 0.0
H1175 H 0.57061 0.34847 0.66037 0.0
C1176 C 0.55725 0.33477 0.57365 0.0
C1177 C 0.55643 0.35201 0.57472 0.0
C1178 C 0.56627 0.32598 0.59023 0.0
C1179 C 0.57471 0.3342 0.60823 0.0
C1180 C 0.57442 0.35144 0.60898 0.0
H1181 H 0.63888 0.27005 0.69147 0.0
H1182 H 0.62942 0.29471 0.67095 0.0
C1183 C 0.56527 0.36029 0.59239 0.0
C1184 C 0.58359 0.3244 0.62612 0.0
H1185 H 0.58266 0.31301 0.68391 0.0
C1186 C 0.59561 0.31332 0.61831 0.0
C1187 C 0.57898 0.32448 0.65012 0.0
C1188 C 0.56573 0.33576 0.65932 0.0
C1189 C 0.60265 0.30178 0.63358 0.0
C1190 C 0.5979 0.30169 0.65755 0.0
C1191 C 0.58634 0.31321 0.66558 0.0
C1192 C 0.60359 0.28868 0.67383 0.0
C1193 C 0.61436 0.2892 0.62353 0.0
C1194 C 0.59215 0.27775 0.6837 0.0
C1195 C 0.59751 0.26381 0.69585 0.0
C1196 C 0.61439 0.26054 0.69809 0.0
C1197 C 0.62579 0.27213 0.68967 0.0
C1198 C 0.62042 0.28618 0.67786 0.0
H1199 H 0.61375 0.28868 0.60402 0.0
H1200 H 0.62713 0.29248 0.62852 0.0
H1201 H 0.61165 0.27675 0.63054 0.0
H1202 H 0.5791 0.27951 0.68091 0.0
H1203 H 0.58844 0.25512 0.70219 0.0
H1204 H 0.98426 0.38691 0.92483 0.0
H1205 H 0.95856 0.37668 0.90879 0.0
H1206 H 0.9594 0.33629 0.95794 0.0
H1207 H 0.98557 0.34624 0.97376 0.0
H1208 H 0.9563 0.3256 0.91469 0.0
H1209 H 0.91108 0.37532 0.92652 0.0
H1210 H 0.92938 0.38332 0.91326 0.0
H1211 H 0.93026 0.37482 0.94252 0.0
C1212 C 0.97886 0.37603 0.93263 0.0
C1213 C 0.98709 0.36729 0.95043 0.0
C1214 C 0.964 0.3703 0.92358 0.0
C1215 C 0.95688 0.35585 0.93237 0.0
C1216 C 0.96462 0.34755 0.951 0.0
H1217 H 0.87156 0.31367 0.85758 0.0
H1218 H 0.88775 0.32645 0.88907 0.0
C1219 C 0.97959 0.35323 0.96 0.0
C1220 C 0.94294 0.34823 0.91959 0.0
H1221 H 0.90648 0.35725 0.89266 0.0
C1222 C 0.94523 0.3324 0.91038 0.0
C1223 C 0.92838 0.35697 0.91411 0.0
C1224 C 0.92457 0.37348 0.92487 0.0
C1225 C 0.93397 0.32557 0.89455 0.0
C1226 C 0.92023 0.33495 0.88737 0.0
C1227 C 0.91724 0.35026 0.89784 0.0
C1228 C 0.90962 0.32936 0.86786 0.0
C1229 C 0.93715 0.30854 0.88504 0.0
C1230 C 0.91638 0.32748 0.84534 0.0
C1231 C 0.90725 0.3202 0.82742 0.0
C1232 C 0.89112 0.31476 0.83164 0.0
C1233 C 0.88397 0.3177 0.85379 0.0
C1234 C 0.89319 0.32496 0.87181 0.0
H1235 H 0.94521 0.30133 0.89697 0.0
H1236 H 0.92546 0.3017 0.88246 0.0
H1237 H 0.94341 0.30953 0.86776 0.0
H1238 H 0.92897 0.3311 0.84188 0.0
H1239 H 0.91306 0.3183 0.8105 0.0
H1240 H 0.91632 0.64882 0.06437 0.0
H1241 H 0.90136 0.66093 0.09732 0.0
H1242 H 0.92295 0.62551 0.14446 0.0
H1243 H 0.93794 0.61314 0.11145 0.0
H1244 H 0.88009 0.64599 0.1387 0.0
H1245 H 0.94057 0.67447 0.16093 0.0
H1246 H 0.93654 0.66673 0.13175 0.0
H1247 H 0.93922 0.65266 0.15569 0.0
C1248 C 0.91756 0.6433 0.08162 0.0
C1249 C 0.92846 0.63016 0.08538 0.0
C1250 C 0.90895 0.65019 0.10039 0.0
C1251 C 0.91119 0.64415 0.12324 0.0
C1252 C 0.9211 0.63028 0.12688 0.0
H1253 H 0.8936 0.71884 0.23072 0.0
H1254 H 0.9005 0.69136 0.21611 0.0
C1255 C 0.92961 0.62324 0.10801 0.0
C1256 C 0.9051 0.65402 0.14319 0.0
H1257 H 0.91713 0.68583 0.17811 0.0
C1258 C 0.88819 0.65445 0.14782 0.0
C1259 C 0.91575 0.66489 0.15517 0.0
C1260 C 0.93405 0.6648 0.15075 0.0
C1261 C 0.88151 0.66618 0.16321 0.0
C1262 C 0.892 0.67808 0.1735 0.0
C1263 C 0.90906 0.67679 0.17019 0.0
C1264 C 0.8856 0.69327 0.18467 0.0
C1265 C 0.86325 0.66595 0.16775 0.0
C1266 C 0.87479 0.70341 0.17205 0.0
C1267 C 0.87074 0.719 0.18041 0.0
C1268 C 0.87768 0.72497 0.20138 0.0
C1269 C 0.88809 0.71463 0.21446 0.0
C1270 C 0.89201 0.69891 0.20616 0.0
H1271 H 0.85847 0.65316 0.16746 0.0
H1272 H 0.86013 0.67162 0.18495 0.0
H1273 H 0.85688 0.67284 0.15359 0.0
H1274 H 0.8701 0.69965 0.15506 0.0
H1275 H 0.86273 0.72663 0.16982 0.0
H1276 H 0.58189 0.6968 0.31273 0.0
H1277 H 0.56714 0.68043 0.34159 0.0
H1278 H 0.61313 0.66381 0.37095 0.0
H1279 H 0.62814 0.68069 0.34235 0.0
H1280 H 0.56686 0.64798 0.34985 0.0
H1281 H 0.58975 0.68142 0.42869 0.0
H1282 H 0.59294 0.68893 0.39919 0.0
H1283 H 0.60524 0.67232 0.41032 0.0
C1284 C 0.58894 0.68964 0.32523 0.0
C1285 C 0.60621 0.69015 0.32532 0.0
C1286 C 0.58047 0.68027 0.34174 0.0
C1287 C 0.58902 0.6711 0.35866 0.0
C1288 C 0.60628 0.67109 0.35838 0.0
H1289 H 0.52398 0.6065 0.4401 0.0
H1290 H 0.54861 0.61534 0.41889 0.0
C1291 C 0.61483 0.68063 0.34192 0.0
C1292 C 0.57955 0.66179 0.37651 0.0
H1293 H 0.57026 0.66056 0.43507 0.0
C1294 C 0.56772 0.65056 0.36853 0.0
C1295 C 0.58066 0.66532 0.40084 0.0
C1296 C 0.59272 0.67774 0.41036 0.0
C1297 C 0.5564 0.64336 0.38399 0.0
C1298 C 0.55735 0.64702 0.40831 0.0
C1299 C 0.56965 0.6577 0.41645 0.0
C1300 C 0.54458 0.64128 0.42502 0.0
C1301 C 0.54292 0.63275 0.3738 0.0
C1302 C 0.53489 0.65284 0.43705 0.0
C1303 C 0.52105 0.64779 0.44969 0.0
C1304 C 0.51659 0.63112 0.45023 0.0
C1305 C 0.52699 0.61946 0.43965 0.0
C1306 C 0.541 0.62449 0.42741 0.0
H1307 H 0.54172 0.63436 0.35447 0.0
H1308 H 0.54578 0.61963 0.37721 0.0
H1309 H 0.53088 0.63563 0.38202 0.0
H1310 H 0.53749 0.66586 0.43558 0.0
H1311 H 0.51328 0.65704 0.45769 0.0
H1312 H 0.43095 0.38124 0.09265 0.0
H1313 H 0.41443 0.3667 0.12216 0.0
H1314 H 0.42676 0.32045 0.08952 0.0
H1315 H 0.4427 0.33475 0.05979 0.0
H1316 H 0.39498 0.32161 0.10177 0.0
H1317 H 0.43416 0.34158 0.17679 0.0
H1318 H 0.42462 0.35768 0.16003 0.0
H1319 H 0.44003 0.34495 0.14659 0.0
C1320 C 0.42998 0.36799 0.09166 0.0
C1321 C 0.43825 0.35915 0.07396 0.0
C1322 C 0.42064 0.3597 0.10863 0.0
C1323 C 0.41964 0.34247 0.10831 0.0
C1324 C 0.4274 0.33374 0.09017 0.0
H1325 H 0.41128 0.2649 0.20416 0.0
H1326 H 0.41848 0.2898 0.18249 0.0
C1327 C 0.43655 0.34197 0.07316 0.0
C1328 C 0.41097 0.33315 0.12695 0.0
H1329 H 0.41347 0.32232 0.18487 0.0
C1330 C 0.39883 0.32191 0.12003 0.0
C1331 C 0.41613 0.33354 0.15072 0.0
C1332 C 0.42953 0.34498 0.15907 0.0
C1333 C 0.39242 0.31033 0.13581 0.0
C1334 C 0.39784 0.31046 0.1595 0.0
C1335 C 0.4093 0.32232 0.16675 0.0
C1336 C 0.39328 0.29716 0.1761 0.0
C1337 C 0.38081 0.2974 0.12644 0.0
C1338 C 0.37674 0.29344 0.18071 0.0
C1339 C 0.37261 0.27902 0.19264 0.0
C1340 C 0.38496 0.26835 0.20076 0.0
C1341 C 0.40151 0.27288 0.19808 0.0
C1342 C 0.40563 0.28712 0.1857 0.0
H1343 H 0.38091 0.29685 0.10692 0.0
H1344 H 0.38405 0.28504 0.13332 0.0
H1345 H 0.36809 0.30034 0.13208 0.0
H1346 H 0.36702 0.30129 0.17414 0.0
H1347 H 0.35974 0.27593 0.19481 0.0
H1348 H 0.47785 0.6549 0.97931 0.0
H1349 H 0.45179 0.66502 0.9634 0.0
H1350 H 0.452 0.62604 0.91195 0.0
H1351 H 0.47761 0.61563 0.92805 0.0
H1352 H 0.44964 0.67691 0.9207 0.0
H1353 H 0.40413 0.627 0.92751 0.0
H1354 H 0.42293 0.62701 0.94443 0.0
H1355 H 0.42271 0.61931 0.91468 0.0
C1356 C 0.47211 0.64822 0.96503 0.0
C1357 C 0.47991 0.63455 0.9548 0.0
C1358 C 0.45719 0.654 0.95599 0.0
C1359 C 0.4498 0.64619 0.93664 0.0
C1360 C 0.45716 0.63204 0.92726 0.0
H1361 H 0.41069 0.6835 0.81306 0.0
H1362 H 0.42451 0.6701 0.8459 0.0
C1363 C 0.47198 0.62621 0.93635 0.0
C1364 C 0.43613 0.65419 0.92372 0.0
H1365 H 0.40049 0.64588 0.89417 0.0
C1366 C 0.43867 0.67025 0.91547 0.0
C1367 C 0.42173 0.64562 0.91697 0.0
C1368 C 0.41765 0.62885 0.92661 0.0
C1369 C 0.4279 0.67745 0.89929 0.0
C1370 C 0.41438 0.66828 0.89088 0.0
C1371 C 0.41107 0.65274 0.9004 0.0
C1372 C 0.40472 0.67418 0.8706 0.0
C1373 C 0.43148 0.69457 0.89043 0.0
C1374 C 0.38872 0.68026 0.87348 0.0
C1375 C 0.3807 0.68795 0.85465 0.0
C1376 C 0.38865 0.68964 0.83277 0.0
C1377 C 0.40428 0.68257 0.82971 0.0
C1378 C 0.41221 0.6749 0.84844 0.0
H1379 H 0.43968 0.70141 0.90261 0.0
H1380 H 0.43769 0.69374 0.87309 0.0
H1381 H 0.41993 0.70166 0.88807 0.0
H1382 H 0.38277 0.67973 0.8905 0.0
H1383 H 0.36866 0.69325 0.85755 0.0
H1384 H 0.09865 0.72374 0.72965 0.0
H1385 H 0.08995 0.69682 0.71492 0.0
H1386 H 0.12702 0.69938 0.66076 0.0
H1387 H 0.13607 0.72579 0.6757 0.0
H1388 H 0.07679 0.69264 0.67361 0.0
H1389 H 0.13082 0.65206 0.67717 0.0
H1390 H 0.12986 0.67105 0.69358 0.0
H1391 H 0.13648 0.67098 0.66328 0.0
C1392 C 0.10521 0.71835 0.71499 0.0
C1393 C 0.11797 0.72699 0.70375 0.0
C1394 C 0.10026 0.70295 0.70662 0.0
C1395 C 0.10798 0.69591 0.68693 0.0
C1396 C 0.12117 0.70423 0.67639 0.0
H1397 H 0.0782 0.65344 0.56378 0.0
H1398 H 0.09192 0.6659 0.59754 0.0
C1399 C 0.1262 0.71951 0.68482 0.0
C1400 C 0.10078 0.68139 0.67497 0.0
H1401 H 0.11151 0.64679 0.64453 0.0
C1402 C 0.08426 0.68233 0.66794 0.0
C1403 C 0.11045 0.66786 0.66757 0.0
C1404 C 0.12783 0.66536 0.67606 0.0
C1405 C 0.0776 0.67092 0.65216 0.0
C1406 C 0.08773 0.65834 0.64311 0.0
C1407 C 0.10385 0.6566 0.65139 0.0
C1408 C 0.08226 0.64853 0.62276 0.0
C1409 C 0.06008 0.673 0.64392 0.0
C1410 C 0.07282 0.63429 0.62582 0.0
C1411 C 0.065 0.62704 0.60649 0.0
C1412 C 0.06639 0.63413 0.58399 0.0
C1413 C 0.07679 0.64776 0.58089 0.0
C1414 C 0.08469 0.65487 0.60013 0.0
H1415 H 0.05339 0.68251 0.65416 0.0
H1416 H 0.06003 0.67663 0.62509 0.0
H1417 H 0.05337 0.66117 0.64543 0.0
H1418 H 0.07078 0.62934 0.64326 0.0
H1419 H 0.05702 0.61658 0.60943 0.0
H1420 H 0.01712 0.38523 0.42289 0.0
H1421 H 0.04171 0.37386 0.40473 0.0
H1422 H 0.04176 0.33417 0.45498 0.0
H1423 H 0.01676 0.34525 0.47304 0.0
H1424 H 0.07336 0.36483 0.41866 0.0
H1425 H 0.03558 0.31085 0.39198 0.0
H1426 H 0.02659 0.32909 0.40455 0.0
H1427 H 0.03701 0.31452 0.42305 0.0
C1428 C 0.02245 0.3742 0.43037 0.0
C1429 C 0.01476 0.36595 0.44913 0.0
C1430 C 0.03659 0.36778 0.42001 0.0
C1431 C 0.04335 0.35301 0.42821 0.0
C1432 C 0.03651 0.34542 0.44811 0.0
H1433 H 0.1272 0.30688 0.35524 0.0
H1434 H 0.11117 0.32085 0.3858 0.0
C1435 C 0.02226 0.3518 0.45845 0.0
C1436 C 0.0563 0.34483 0.41417 0.0
H1437 H 0.06255 0.31205 0.37784 0.0
C1438 C 0.07114 0.35318 0.40995 0.0
C1439 C 0.05322 0.32973 0.40261 0.0
C1440 C 0.03721 0.32054 0.40555 0.0
C1441 C 0.08279 0.34703 0.39394 0.0
C1442 C 0.07951 0.33211 0.38213 0.0
C1443 C 0.06497 0.3235 0.38698 0.0
C1444 C 0.09027 0.32566 0.36329 0.0
C1445 C 0.09812 0.35685 0.38896 0.0
C1446 C 0.0839 0.32395 0.34051 0.0
C1447 C 0.09291 0.3159 0.32315 0.0
C1448 C 0.10851 0.30938 0.32822 0.0
C1449 C 0.11525 0.31183 0.35076 0.0
C1450 C 0.10613 0.31984 0.36823 0.0
H1451 H 0.09748 0.36941 0.39658 0.0
H1452 H 0.10889 0.35046 0.39669 0.0
H1453 H 0.10018 0.35787 0.36971 0.0
H1454 H 0.07168 0.3284 0.33636 0.0
H1455 H 0.08741 0.31433 0.30594 0.0
H1456 H 0.42666 0.6554 0.44705 0.0
H1457 H 0.41215 0.67048 0.41636 0.0
H1458 H 0.42365 0.63235 0.36635 0.0
H1459 H 0.43821 0.61701 0.39713 0.0
H1460 H 0.43208 0.67927 0.37452 0.0
H1461 H 0.37365 0.64654 0.35385 0.0
H1462 H 0.38323 0.64511 0.38247 0.0
H1463 H 0.39226 0.6348 0.35781 0.0
C1464 C 0.42578 0.64999 0.42969 0.0
C1465 C 0.43376 0.63511 0.42444 0.0
C1466 C 0.41746 0.65861 0.4122 0.0
C1467 C 0.4169 0.65252 0.38916 0.0
C1468 C 0.42385 0.63714 0.38413 0.0
H1469 H 0.40201 0.72585 0.27812 0.0
H1470 H 0.41123 0.7003 0.29669 0.0
C1471 C 0.43216 0.62842 0.40172 0.0
C1472 C 0.41113 0.66344 0.37015 0.0
H1473 H 0.37884 0.67129 0.33354 0.0
C1474 C 0.42055 0.67745 0.36528 0.0
C1475 C 0.39611 0.66093 0.35828 0.0
C1476 C 0.3856 0.64608 0.36328 0.0
C1477 C 0.41503 0.68946 0.34953 0.0
C1478 C 0.3998 0.68719 0.33796 0.0
C1479 C 0.3906 0.67287 0.34225 0.0
C1480 C 0.39248 0.70051 0.32369 0.0
C1481 C 0.42514 0.70489 0.34643 0.0
C1482 C 0.37838 0.70854 0.33197 0.0
C1483 C 0.37303 0.72304 0.32135 0.0
C1484 C 0.38173 0.7298 0.30228 0.0
C1485 C 0.39517 0.72108 0.29296 0.0
C1486 C 0.40046 0.7065 0.30355 0.0
H1487 H 0.43496 0.70598 0.35993 0.0
H1488 H 0.43109 0.7047 0.32888 0.0
H1489 H 0.41722 0.71598 0.34744 0.0
H1490 H 0.37203 0.70409 0.34746 0.0
H1491 H 0.36252 0.72932 0.32884 0.0
H1492 H 0.02065 0.61069 0.05718 0.0
H1493 H 0.04604 0.61927 0.07666 0.0
H1494 H 0.03044 0.66987 0.07267 0.0
H1495 H 0.00532 0.66143 0.05233 0.0
H1496 H 0.06354 0.66686 0.0668 0.0
H1497 H 0.04306 0.63148 0.1452 0.0
H1498 H 0.046 0.61939 0.11915 0.0
H1499 H 0.03001 0.63464 0.12001 0.0
C1500 C 0.02278 0.62368 0.06008 0.0
C1501 C 0.01091 0.63539 0.05358 0.0
C1502 C 0.03725 0.62854 0.07131 0.0
C1503 C 0.03989 0.64515 0.07674 0.0
C1504 C 0.02859 0.65697 0.06879 0.0
H1505 H 0.08248 0.69359 0.19139 0.0
H1506 H 0.06665 0.67815 0.16267 0.0
C1507 C 0.01424 0.65214 0.05718 0.0
C1508 C 0.05355 0.65016 0.09242 0.0
H1509 H 0.0676 0.64634 0.14873 0.0
C1510 C 0.06458 0.66227 0.08464 0.0
C1511 C 0.05476 0.6442 0.11577 0.0
C1512 C 0.04276 0.63182 0.12567 0.0
C1513 C 0.07638 0.66904 0.09984 0.0
C1514 C 0.07739 0.66325 0.12327 0.0
C1515 C 0.06685 0.65065 0.13071 0.0
C1516 C 0.08763 0.67155 0.14124 0.0
C1517 C 0.08701 0.68297 0.0911 0.0
C1518 C 0.1048 0.67263 0.13909 0.0
C1519 C 0.11395 0.68162 0.15552 0.0
C1520 C 0.10607 0.68953 0.17442 0.0
C1521 C 0.08897 0.68774 0.17703 0.0
C1522 C 0.07988 0.67888 0.1606 0.0
H1523 H 0.08257 0.68796 0.07405 0.0
H1524 H 0.08736 0.69312 0.10414 0.0
H1525 H 0.09975 0.67846 0.08854 0.0
H1526 H 0.11106 0.66675 0.12455 0.0
H1527 H 0.12712 0.68269 0.15309 0.0
H1528 H 0.13184 0.25998 0.83852 0.0
H1529 H 0.12328 0.28637 0.85436 0.0
H1530 H 0.09592 0.29631 0.79091 0.0
H1531 H 0.10392 0.26939 0.77524 0.0
H1532 H 0.12688 0.31768 0.84168 0.0
H1533 H 0.06052 0.30081 0.83939 0.0
H1534 H 0.07652 0.28611 0.83331 0.0
H1535 H 0.07066 0.30091 0.81137 0.0
C1536 C 0.12407 0.26778 0.82782 0.0
C1537 C 0.11836 0.26248 0.80574 0.0
C1538 C 0.11923 0.28292 0.83688 0.0
C1539 C 0.10872 0.29322 0.82402 0.0
C1540 C 0.10369 0.28838 0.80141 0.0
H1541 H 0.06114 0.37905 0.88951 0.0
H1542 H 0.0754 0.36358 0.85858 0.0
C1543 C 0.10832 0.27304 0.79244 0.0
C1544 C 0.10244 0.30843 0.83522 0.0
H1545 H 0.06743 0.32578 0.85718 0.0
C1546 C 0.11385 0.31959 0.84474 0.0
C1547 C 0.08543 0.31091 0.83926 0.0
C1548 C 0.07255 0.29901 0.83049 0.0
C1549 C 0.10876 0.33262 0.85917 0.0
C1550 C 0.09188 0.33462 0.86391 0.0
C1551 C 0.08039 0.32417 0.85326 0.0
C1552 C 0.08595 0.3458 0.88246 0.0
C1553 C 0.12143 0.34377 0.8701 0.0
C1554 C 0.08748 0.34101 0.90604 0.0
C1555 C 0.07918 0.34961 0.92363 0.0
C1556 C 0.06935 0.36323 0.91791 0.0
C1557 C 0.06872 0.36866 0.89444 0.0
C1558 C 0.07682 0.35985 0.87676 0.0
H1559 H 0.13358 0.34264 0.86133 0.0
H1560 H 0.11731 0.35678 0.86923 0.0
H1561 H 0.12292 0.3405 0.88893 0.0
H1562 H 0.09435 0.33007 0.91067 0.0
H1563 H 0.07991 0.34518 0.94157 0.0
H1564 H 0.46814 0.3529 0.51842 0.0
H1565 H 0.44104 0.34587 0.53429 0.0
H1566 H 0.45073 0.37598 0.59521 0.0
H1567 H 0.47733 0.38348 0.57922 0.0
H1568 H 0.43664 0.32899 0.57241 0.0
H1569 H 0.40386 0.38738 0.58537 0.0
H1570 H 0.42187 0.38593 0.56692 0.0
H1571 H 0.42387 0.38901 0.59823 0.0
C1572 C 0.4643 0.35834 0.53491 0.0
C1573 C 0.47494 0.36867 0.54761 0.0
C1574 C 0.44879 0.35434 0.54394 0.0
C1575 C 0.44368 0.36061 0.56578 0.0
C1576 C 0.45408 0.3714 0.57799 0.0
H1577 H 0.40183 0.32811 0.68762 0.0
H1578 H 0.41391 0.34296 0.65455 0.0
C1579 C 0.46945 0.37552 0.56891 0.0
C1580 C 0.42883 0.35404 0.57767 0.0
H1581 H 0.39749 0.36553 0.61414 0.0
C1582 C 0.42773 0.33696 0.58086 0.0
C1583 C 0.41712 0.3644 0.58866 0.0
C1584 C 0.41666 0.38268 0.58436 0.0
C1585 C 0.41623 0.33011 0.59635 0.0
C1586 C 0.40559 0.34062 0.60896 0.0
C1587 C 0.4058 0.35756 0.60453 0.0
C1588 C 0.39611 0.33433 0.62915 0.0
C1589 C 0.41631 0.31179 0.60053 0.0
C1590 C 0.38177 0.32506 0.62584 0.0
C1591 C 0.37475 0.3166 0.64477 0.0
C1592 C 0.38215 0.31717 0.66714 0.0
C1593 C 0.39592 0.32733 0.67058 0.0
C1594 C 0.40279 0.33588 0.65175 0.0
H1595 H 0.42549 0.30533 0.5894 0.0
H1596 H 0.41909 0.30921 0.61929 0.0
H1597 H 0.40395 0.30666 0.59669 0.0
H1598 H 0.37652 0.32372 0.60844 0.0
H1599 H 0.36416 0.30885 0.64158 0.0
H1600 H 0.31906 0.22508 0.26495 0.0
H1601 H 0.29136 0.23377 0.27657 0.0
H1602 H 0.27688 0.23549 0.20365 0.0
H1603 H 0.30432 0.22668 0.19192 0.0
H1604 H 0.27705 0.26371 0.26272 0.0
H1605 H 0.23876 0.21087 0.23444 0.0
H1606 H 0.26076 0.20938 0.23812 0.0
H1607 H 0.25227 0.21841 0.21194 0.0
C1608 C 0.30986 0.22695 0.25144 0.0
C1609 C 0.31387 0.22519 0.22752 0.0
C1610 C 0.29408 0.23198 0.25809 0.0
C1611 C 0.28206 0.23515 0.24097 0.0
C1612 C 0.28589 0.23284 0.21716 0.0
H1613 H 0.1829 0.27434 0.23974 0.0
H1614 H 0.21081 0.26584 0.229 0.0
C1615 C 0.30162 0.22787 0.2105 0.0
C1616 C 0.26592 0.2421 0.24771 0.0
H1617 H 0.22457 0.23565 0.24363 0.0
C1618 C 0.26556 0.25753 0.25874 0.0
C1619 C 0.25099 0.23405 0.24229 0.0
C1620 C 0.25065 0.21719 0.23124 0.0
C1621 C 0.25062 0.26529 0.26413 0.0
C1622 C 0.2357 0.25728 0.2586 0.0
C1623 C 0.23606 0.24182 0.24764 0.0
C1624 C 0.21953 0.26434 0.26489 0.0
C1625 C 0.25093 0.28213 0.27524 0.0
C1626 C 0.21532 0.26659 0.28858 0.0
C1627 C 0.19945 0.27145 0.29475 0.0
C1628 C 0.18745 0.27408 0.27734 0.0
C1629 C 0.19188 0.27249 0.25355 0.0
C1630 C 0.20779 0.26756 0.24739 0.0
H1631 H 0.26293 0.28836 0.2725 0.0
H1632 H 0.24102 0.29003 0.26799 0.0
H1633 H 0.24893 0.2809 0.29446 0.0
H1634 H 0.22412 0.26391 0.30236 0.0
H1635 H 0.19642 0.27252 0.31324 0.0
H1636 H 0.97406 0.93233 0.48506 0.0
H1637 H 0.98392 0.95977 0.47414 0.0
H1638 H 0.98658 0.97318 0.5474 0.0
H1639 H 0.97688 0.94587 0.55849 0.0
H1640 H 0.97167 0.99202 0.48536 0.0
H1641 H 0.03381 0.98062 0.52255 0.0
H1642 H 0.01932 0.96428 0.51688 0.0
H1643 H 0.01708 0.977 0.54251 0.0
C1644 C 0.97653 0.9412 0.49882 0.0
C1645 C 0.97484 0.93689 0.52264 0.0
C1646 C 0.98221 0.95683 0.49256 0.0
C1647 C 0.98631 0.96832 0.51001 0.0
C1648 C 0.98382 0.96434 0.53371 0.0
H1649 H 0.02602 0.06732 0.50974 0.0
H1650 H 0.01654 0.03973 0.52062 0.0
C1651 C 0.97817 0.94876 0.53999 0.0
C1652 C 0.99356 0.98435 0.50354 0.0
H1653 H 0.02822 0.00769 0.50939 0.0
C1654 C 0.98405 0.99545 0.49049 0.0
C1655 C 0.00971 0.98873 0.51036 0.0
C1656 C 0.02066 0.97701 0.52368 0.0
C1657 C 0.99017 0.01099 0.48442 0.0
C1658 C 0.00634 0.01537 0.49119 0.0
C1659 C 0.01584 0.00427 0.50425 0.0
C1660 C 0.01357 0.03142 0.48472 0.0
C1661 C 0.97915 0.02274 0.47124 0.0
C1662 C 0.01568 0.03557 0.46099 0.0
C1663 C 0.02106 0.05125 0.45475 0.0
C1664 C 0.02458 0.06302 0.47215 0.0
C1665 C 0.02341 0.05852 0.49595 0.0
C1666 C 0.01794 0.0428 0.50219 0.0
H1667 H 0.966 0.01921 0.47269 0.0
H1668 H 0.98063 0.03549 0.47788 0.0
H1669 H 0.98252 0.02262 0.45233 0.0
H1670 H 0.01275 0.02681 0.44727 0.0
H1671 H 0.02199 0.05428 0.43625 0.0
H1672 H 0.3028 0.72669 0.81042 0.0
H1673 H 0.27529 0.73506 0.79831 0.0
H1674 H 0.28983 0.73197 0.72551 0.0
H1675 H 0.31758 0.7237 0.73751 0.0
H1676 H 0.27575 0.76233 0.73856 0.0
H1677 H 0.23701 0.71012 0.76805 0.0
H1678 H 0.25063 0.71787 0.7903 0.0
H1679 H 0.259 0.70841 0.76435 0.0
C1680 C 0.30008 0.72745 0.7918 0.0
C1681 C 0.31238 0.72456 0.77491 0.0
C1682 C 0.28432 0.73217 0.78492 0.0
C1683 C 0.28051 0.73402 0.76103 0.0
C1684 C 0.29255 0.73054 0.74405 0.0
H1685 H 0.19561 0.77143 0.687 0.0
H1686 H 0.22314 0.76265 0.69844 0.0
C1687 C 0.30835 0.72575 0.75092 0.0
C1688 C 0.26443 0.74097 0.754 0.0
H1689 H 0.22303 0.73482 0.75789 0.0
C1690 C 0.26421 0.75626 0.74259 0.0
C1691 C 0.24943 0.73309 0.75952 0.0
C1692 C 0.24897 0.71639 0.77104 0.0
C1693 C 0.24934 0.76406 0.7369 0.0
C1694 C 0.23434 0.7562 0.74248 0.0
C1695 C 0.23456 0.74088 0.75383 0.0
C1696 C 0.21824 0.76328 0.73583 0.0
C1697 C 0.24981 0.78078 0.72544 0.0
C1698 C 0.20637 0.76665 0.75309 0.0
C1699 C 0.19055 0.77166 0.7466 0.0
C1700 C 0.18634 0.7732 0.72273 0.0
C1701 C 0.19847 0.77041 0.70555 0.0
C1702 C 0.21425 0.76545 0.71205 0.0
H1703 H 0.2618 0.787 0.72834 0.0
H1704 H 0.24805 0.77935 0.7062 0.0
H1705 H 0.23984 0.78879 0.73227 0.0
H1706 H 0.20922 0.76499 0.77155 0.0
H1707 H 0.18146 0.77363 0.76023 0.0
H1708 H 0.51871 0.05323 0.06381 0.0
H1709 H 0.51077 0.02539 0.0526 0.0
H1710 H 0.51506 0.03846 0.97934 0.0
H1711 H 0.52332 0.06634 0.99043 0.0
H1712 H 0.48304 0.01804 0.02713 0.0
H1713 H 0.53866 0.99435 0.98191 0.0
H1714 H 0.53907 0.01235 0.00047 0.0
H1715 H 0.53154 0.01374 0.97081 0.0
C1716 C 0.51829 0.05011 0.0453 0.0
C1717 C 0.52162 0.06199 0.02798 0.0
C1718 C 0.5137 0.0342 0.03894 0.0
C1719 C 0.5124 0.02984 0.01517 0.0
C1720 C 0.51628 0.04149 0.9978 0.0
H1721 H 0.47616 0.94523 0.93994 0.0
H1722 H 0.48499 0.97257 0.95228 0.0
C1723 C 0.52096 0.05743 0.00416 0.0
C1724 C 0.50573 0.01353 0.00865 0.0
H1725 H 0.51422 0.97852 0.97795 0.0
C1726 C 0.4899 0.00934 0.01651 0.0
C1727 C 0.51469 0.00225 0.99476 0.0
C1728 C 0.53199 0.0058 0.98666 0.0
C1729 C 0.48265 0.99427 0.01048 0.0
C1730 C 0.49157 0.98306 0.99645 0.0
C1731 C 0.50741 0.98721 0.98866 0.0
C1732 C 0.48469 0.96696 0.98945 0.0
C1733 C 0.46539 0.99062 0.01869 0.0
C1734 C 0.48132 0.95484 0.00634 0.0
C1735 C 0.47621 0.93916 0.99936 0.0
C1736 C 0.4745 0.93537 0.97536 0.0
C1737 C 0.47736 0.94774 0.95857 0.0
C1738 C 0.48245 0.96337 0.96556 0.0
H1739 H 0.45891 0.0019 0.02463 0.0
H1740 H 0.4581 0.98478 0.00444 0.0
H1741 H 0.46591 0.98193 0.03371 0.0
H1742 H 0.48319 0.95732 0.02486 0.0
H1743 H 0.47421 0.92987 0.01269 0.0
H1744 H 0.18067 0.72742 0.26035 0.0
H1745 H 0.20835 0.73644 0.27145 0.0
H1746 H 0.22387 0.73267 0.19915 0.0
H1747 H 0.1963 0.72382 0.18784 0.0
H1748 H 0.24022 0.72212 0.26462 0.0
H1749 H 0.23289 0.78116 0.21662 0.0
H1750 H 0.21573 0.7679 0.22338 0.0
H1751 H 0.2292 0.76306 0.19931 0.0
C1752 C 0.19004 0.72826 0.24687 0.0
C1753 C 0.18625 0.72507 0.22318 0.0
C1754 C 0.20582 0.73346 0.25323 0.0
C1755 C 0.218 0.73558 0.23601 0.0
C1756 C 0.21452 0.73147 0.2126 0.0
H1757 H 0.31848 0.77159 0.23771 0.0
H1758 H 0.29102 0.76211 0.22627 0.0
C1759 C 0.19878 0.7263 0.20621 0.0
C1760 C 0.23417 0.74262 0.24235 0.0
H1761 H 0.25915 0.7757 0.23282 0.0
C1762 C 0.24436 0.73385 0.25776 0.0
C1763 C 0.23948 0.75793 0.23331 0.0
C1764 C 0.22873 0.76817 0.21739 0.0
C1765 C 0.25991 0.73987 0.26409 0.0
C1766 C 0.26521 0.75521 0.25511 0.0
C1767 C 0.25502 0.76396 0.23965 0.0
C1768 C 0.28128 0.76237 0.26169 0.0
C1769 C 0.27066 0.72961 0.27998 0.0
C1770 C 0.28464 0.76629 0.28521 0.0
C1771 C 0.30025 0.7717 0.29177 0.0
C1772 C 0.31277 0.77341 0.27489 0.0
C1773 C 0.3091 0.77039 0.25112 0.0
C1774 C 0.29345 0.76492 0.24457 0.0
H1775 H 0.26664 0.71657 0.28041 0.0
H1776 H 0.2837 0.73009 0.27422 0.0
H1777 H 0.26997 0.73452 0.29816 0.0
H1778 H 0.27527 0.76478 0.29858 0.0
H1779 H 0.30263 0.77406 0.31021 0.0
H1780 H 0.52462 0.93286 0.51104 0.0
H1781 H 0.51559 0.96032 0.52324 0.0
H1782 H 0.51322 0.97541 0.45063 0.0
H1783 H 0.52234 0.94817 0.43829 0.0
H1784 H 0.52731 0.99909 0.48162 0.0
H1785 H 0.46726 0.97522 0.5136 0.0
H1786 H 0.48519 0.96554 0.52582 0.0
H1787 H 0.48076 0.9633 0.49505 0.0
C1788 C 0.52244 0.94211 0.49771 0.0
C1789 C 0.52406 0.93831 0.4737 0.0
C1790 C 0.51715 0.95773 0.50469 0.0
C1791 C 0.51343 0.96974 0.48778 0.0
C1792 C 0.51591 0.96625 0.46392 0.0
H1793 H 0.47614 0.07007 0.48903 0.0
H1794 H 0.48492 0.0425 0.4771 0.0
C1795 C 0.52113 0.95067 0.45692 0.0
C1796 C 0.50638 0.98577 0.49474 0.0
H1797 H 0.47236 0.00357 0.519 0.0
C1798 C 0.5153 0.0001 0.48977 0.0
C1799 C 0.49067 0.98698 0.50525 0.0
C1800 C 0.48031 0.97198 0.51011 0.0
C1801 C 0.50904 0.01567 0.49544 0.0
C1802 C 0.49329 0.0169 0.50586 0.0
C1803 C 0.48438 0.00256 0.51087 0.0
C1804 C 0.48616 0.03296 0.51259 0.0
C1805 C 0.51949 0.03064 0.49071 0.0
C1806 C 0.48312 0.03641 0.53634 0.0
C1807 C 0.47797 0.05205 0.54317 0.0
C1808 C 0.47572 0.06453 0.52635 0.0
C1809 C 0.47782 0.06075 0.50241 0.0
C1810 C 0.48298 0.04506 0.49558 0.0
H1811 H 0.5326 0.02736 0.48785 0.0
H1812 H 0.51495 0.03689 0.47463 0.0
H1813 H 0.51873 0.03949 0.50554 0.0
H1814 H 0.48537 0.02718 0.54969 0.0
H1815 H 0.47638 0.05453 0.56175 0.0
H1816 H 0.19722 0.22122 0.81375 0.0
H1817 H 0.224 0.23187 0.80186 0.0
H1818 H 0.20861 0.23142 0.72929 0.0
H1819 H 0.18158 0.22096 0.74106 0.0
H1820 H 0.24814 0.22041 0.7711 0.0
H1821 H 0.22146 0.27959 0.74073 0.0
H1822 H 0.20998 0.26501 0.75811 0.0
H1823 H 0.21283 0.26162 0.72714 0.0
C1824 C 0.19957 0.22318 0.79521 0.0
C1825 C 0.18722 0.22041 0.77835 0.0
C1826 C 0.21488 0.22929 0.78847 0.0
C1827 C 0.21812 0.23278 0.76479 0.0
C1828 C 0.20618 0.22914 0.74774 0.0
H1829 H 0.30128 0.27273 0.69092 0.0
H1830 H 0.27439 0.26255 0.70319 0.0
C1831 C 0.19081 0.22303 0.75446 0.0
C1832 C 0.23381 0.24073 0.7582 0.0
H1833 H 0.24997 0.27571 0.73435 0.0
C1834 C 0.24857 0.23251 0.76312 0.0
C1835 C 0.23427 0.25658 0.74796 0.0
C1836 C 0.21881 0.26632 0.74334 0.0
C1837 C 0.26382 0.23958 0.75762 0.0
C1838 C 0.26427 0.25539 0.74728 0.0
C1839 C 0.24953 0.26363 0.74239 0.0
C1840 C 0.27995 0.26319 0.74037 0.0
C1841 C 0.27932 0.22995 0.7624 0.0
C1842 C 0.29173 0.2675 0.75731 0.0
C1843 C 0.30714 0.2734 0.75037 0.0
C1844 C 0.31095 0.27503 0.72637 0.0
C1845 C 0.29877 0.27152 0.70954 0.0
C1846 C 0.28339 0.2657 0.7165 0.0
H1847 H 0.27671 0.21677 0.76592 0.0
H1848 H 0.28792 0.23081 0.74728 0.0
H1849 H 0.28558 0.23515 0.77806 0.0
H1850 H 0.28916 0.2659 0.77586 0.0
H1851 H 0.31626 0.27602 0.76373 0.0
H1852 H 0.97003 0.06637 0.00915 0.0
H1853 H 0.97976 0.03897 0.02045 0.0
H1854 H 0.97912 0.02397 0.94774 0.0
H1855 H 0.96952 0.05124 0.93625 0.0
H1856 H 0.96726 0.00611 0.01143 0.0
H1857 H 0.02766 0.01803 0.96897 0.0
H1858 H 0.01315 0.03421 0.97542 0.0
H1859 H 0.01003 0.02106 0.95043 0.0
C1860 C 0.97165 0.05714 0.99562 0.0
C1861 C 0.96919 0.06102 0.97179 0.0
C1862 C 0.97726 0.04153 0.0021 0.0
C1863 C 0.9805 0.02964 0.98484 0.0
C1864 C 0.97701 0.03313 0.96123 0.0
H1865 H 0.02333 0.9319 0.98679 0.0
H1866 H 0.01243 0.95882 0.97529 0.0
C1867 C 0.97144 0.04869 0.95474 0.0
C1868 C 0.98827 0.01386 0.99132 0.0
H1869 H 0.0233 0.99129 0.98407 0.0
C1870 C 0.97952 0.00286 0.00554 0.0
C1871 C 0.00426 0.00972 0.98353 0.0
C1872 C 0.01443 0.0214 0.9689 0.0
C1873 C 0.98626 0.98762 0.0119 0.0
C1874 C 0.00229 0.9835 0.00419 0.0
C1875 C 0.01102 0.99451 0.98992 0.0
C1876 C 0.01022 0.96785 0.01095 0.0
C1877 C 0.97604 0.97593 0.02642 0.0
C1878 C 0.01321 0.96434 0.0347 0.0
C1879 C 0.01941 0.94904 0.04129 0.0
C1880 C 0.02287 0.93702 0.02423 0.0
C1881 C 0.02078 0.94091 0.00033 0.0
C1882 C 0.0145 0.95624 0.99374 0.0
H1883 H 0.96275 0.97903 0.02564 0.0
H1884 H 0.9777 0.96305 0.02039 0.0
H1885 H 0.97999 0.97668 0.04507 0.0
H1886 H 0.01038 0.97331 0.04818 0.0
H1887 H 0.02103 0.94648 0.05984 0.0
H1888 H 0.81937 0.72606 0.7629 0.0
H1889 H 0.79162 0.73484 0.77404 0.0
H1890 H 0.77671 0.73308 0.7013 0.0
H1891 H 0.80422 0.72414 0.69006 0.0
H1892 H 0.77742 0.764 0.75759 0.0
H1893 H 0.7386 0.71026 0.73473 0.0
H1894 H 0.76062 0.7088 0.7382 0.0
H1895 H 0.75198 0.71673 0.71139 0.0
C1896 C 0.81006 0.72714 0.74936 0.0
C1897 C 0.81399 0.72444 0.7256 0.0
C1898 C 0.79425 0.73223 0.75574 0.0
C1899 C 0.78211 0.73451 0.7385 0.0
C1900 C 0.78581 0.73113 0.71492 0.0
H1901 H 0.68318 0.7746 0.7358 0.0
H1902 H 0.71084 0.76523 0.72513 0.0
C1903 C 0.80158 0.72608 0.70853 0.0
C1904 C 0.76604 0.74183 0.74476 0.0
H1905 H 0.72463 0.73549 0.74197 0.0
C1906 C 0.76586 0.75773 0.75437 0.0
C1907 C 0.75103 0.73367 0.7403 0.0
C1908 C 0.75051 0.71636 0.73079 0.0
C1909 C 0.75102 0.7658 0.75931 0.0
C1910 C 0.73601 0.75765 0.7548 0.0
C1911 C 0.73618 0.74175 0.74522 0.0
C1912 C 0.71996 0.76506 0.76087 0.0
C1913 C 0.75152 0.78309 0.76888 0.0
C1914 C 0.71607 0.7683 0.78443 0.0
C1915 C 0.70035 0.77365 0.79056 0.0
C1916 C 0.68819 0.77579 0.77324 0.0
C1917 C 0.6923 0.77315 0.74953 0.0
C1918 C 0.70805 0.76773 0.74341 0.0
H1919 H 0.76353 0.78912 0.76534 0.0
H1920 H 0.74157 0.79072 0.76116 0.0
H1921 H 0.74972 0.78272 0.78822 0.0
H1922 H 0.725 0.76607 0.7982 0.0
H1923 H 0.69757 0.77554 0.809 0.0
H1924 H 0.68162 0.27052 0.26224 0.0
H1925 H 0.70949 0.26166 0.27266 0.0
H1926 H 0.72271 0.26078 0.19923 0.0
H1927 H 0.69506 0.26972 0.18868 0.0
H1928 H 0.72345 0.2316 0.25677 0.0
H1929 H 0.76132 0.28523 0.2301 0.0
H1930 H 0.73942 0.28664 0.23488 0.0
H1931 H 0.74726 0.27813 0.20796 0.0
C1932 C 0.69057 0.26879 0.24836 0.0
C1933 C 0.68614 0.2708 0.22464 0.0
C1934 C 0.70644 0.26366 0.25433 0.0
C1935 C 0.71816 0.26068 0.23671 0.0
C1936 C 0.71393 0.26327 0.21311 0.0
H1937 H 0.81817 0.22305 0.23487 0.0
H1938 H 0.79028 0.23135 0.22371 0.0
C1939 C 0.69809 0.26832 0.20712 0.0
C1940 C 0.73437 0.25363 0.24275 0.0
H1941 H 0.77565 0.26056 0.23895 0.0
C1942 C 0.73488 0.23796 0.25303 0.0
C1943 C 0.74922 0.2619 0.23759 0.0
C1944 C 0.74935 0.27897 0.22721 0.0
C1945 C 0.74989 0.23022 0.25805 0.0
C1946 C 0.76474 0.23852 0.25298 0.0
C1947 C 0.76423 0.25418 0.24265 0.0
C1948 C 0.78096 0.23159 0.25935 0.0
C1949 C 0.74971 0.21312 0.26832 0.0
C1950 C 0.78484 0.22872 0.28302 0.0
C1951 C 0.80069 0.22394 0.28942 0.0
C1952 C 0.81301 0.22206 0.27227 0.0
C1953 C 0.80894 0.22431 0.24847 0.0
C1954 C 0.79304 0.22913 0.24207 0.0
H1955 H 0.7379 0.20674 0.26476 0.0
H1956 H 0.75992 0.20557 0.26115 0.0
H1957 H 0.75126 0.21393 0.28768 0.0
H1958 H 0.77579 0.23083 0.29666 0.0
H1959 H 0.80343 0.22236 0.30792 0.0
H1960 H 0.68369 0.22352 0.76338 0.0
H1961 H 0.71035 0.23488 0.77528 0.0
H1962 H 0.72537 0.23705 0.70262 0.0
H1963 H 0.69881 0.22593 0.69056 0.0
H1964 H 0.74313 0.22448 0.76688 0.0
H1965 H 0.73009 0.28482 0.72526 0.0
H1966 H 0.71432 0.26962 0.73038 0.0
H1967 H 0.72808 0.26755 0.70581 0.0
C1968 C 0.69276 0.2262 0.74998 0.0
C1969 C 0.68909 0.22399 0.72603 0.0
C1970 C 0.70794 0.23274 0.75679 0.0
C1971 C 0.71961 0.23717 0.73976 0.0
C1972 C 0.71634 0.23409 0.71597 0.0
H1973 H 0.81737 0.27897 0.74164 0.0
H1974 H 0.79005 0.2689 0.73053 0.0
C1975 C 0.70119 0.22762 0.70915 0.0
C1976 C 0.7351 0.24536 0.74673 0.0
H1977 H 0.7572 0.28072 0.73965 0.0
C1978 C 0.74619 0.23681 0.76108 0.0
C1979 C 0.73899 0.26146 0.73907 0.0
C1980 C 0.7272 0.27149 0.72445 0.0
C1981 C 0.76129 0.24378 0.76756 0.0
C1982 C 0.76522 0.25984 0.75979 0.0
C1983 C 0.75411 0.26842 0.74553 0.0
C1984 C 0.78093 0.2678 0.76623 0.0
C1985 C 0.77309 0.23377 0.7822 0.0
C1986 C 0.7845 0.2712 0.78984 0.0
C1987 C 0.80002 0.27695 0.79623 0.0
C1988 C 0.81222 0.27949 0.77908 0.0
C1989 C 0.80824 0.27712 0.75526 0.0
C1990 C 0.79268 0.27132 0.74888 0.0
H1991 H 0.76992 0.22048 0.78204 0.0
H1992 H 0.7859 0.23525 0.77576 0.0
H1993 H 0.77263 0.23811 0.80068 0.0
H1994 H 0.77544 0.26888 0.80341 0.0
H1995 H 0.80265 0.27878 0.81472 0.0
H1996 H 0.81822 0.77119 0.26075 0.0
H1997 H 0.79047 0.76233 0.27177 0.0
H1998 H 0.77528 0.76546 0.19926 0.0
H1999 H 0.80293 0.77412 0.18803 0.0
H2000 H 0.75873 0.7763 0.26481 0.0
H2001 H 0.76616 0.7172 0.21703 0.0
H2002 H 0.78328 0.73057 0.22359 0.0
H2003 H 0.76974 0.73522 0.19951 0.0
C2004 C 0.8089 0.77026 0.24721 0.0
C2005 C 0.81281 0.77318 0.22349 0.0
C2006 C 0.79308 0.76514 0.25352 0.0
C2007 C 0.78099 0.76286 0.23622 0.0
C2008 C 0.78457 0.76677 0.21277 0.0
H2009 H 0.68029 0.72769 0.23743 0.0
H2010 H 0.7079 0.73684 0.22619 0.0
C2011 C 0.80035 0.77183 0.20643 0.0
C2012 C 0.7648 0.75581 0.24253 0.0
H2013 H 0.7398 0.72275 0.23289 0.0
C2014 C 0.75459 0.76458 0.25793 0.0
C2015 C 0.7595 0.74049 0.23348 0.0
C2016 C 0.77028 0.73022 0.21765 0.0
C2017 C 0.73904 0.75856 0.26422 0.0
C2018 C 0.73373 0.74324 0.25517 0.0
C2019 C 0.74393 0.73448 0.23976 0.0
C2020 C 0.7176 0.73614 0.2616 0.0
C2021 C 0.72827 0.76879 0.28011 0.0
C2022 C 0.71419 0.73207 0.28504 0.0
C2023 C 0.69849 0.72682 0.2915 0.0
C2024 C 0.68594 0.72547 0.27459 0.0
C2025 C 0.68968 0.72862 0.25087 0.0
C2026 C 0.70541 0.7339 0.24443 0.0
H2027 H 0.73238 0.78181 0.28079 0.0
H2028 H 0.71527 0.76846 0.27418 0.0
H2029 H 0.7288 0.76375 0.29823 0.0
H2030 H 0.72356 0.73336 0.29845 0.0
H2031 H 0.69606 0.72438 0.3099 0.0
H2032 H 0.47556 0.44738 0.05902 0.0
H2033 H 0.48442 0.47488 0.04769 0.0
H2034 H 0.48533 0.46011 0.97486 0.0
H2035 H 0.47664 0.43236 0.98609 0.0
H2036 H 0.51449 0.47472 0.99026 0.0
H2037 H 0.4606 0.51268 0.01522 0.0
H2038 H 0.46769 0.49942 0.03832 0.0
H2039 H 0.45941 0.49065 0.01182 0.0
C2040 C 0.47733 0.45003 0.04053 0.0
C2041 C 0.47542 0.43767 0.02344 0.0
C2042 C 0.48233 0.4658 0.03408 0.0
C2043 C 0.4854 0.46956 0.01043 0.0
C2044 C 0.48296 0.45743 0.99321 0.0
H2045 H 0.52343 0.5549 0.9386 0.0
H2046 H 0.51474 0.52727 0.94968 0.0
C2047 C 0.47793 0.44162 0.99965 0.0
C2048 C 0.49241 0.48573 0.004 0.0
H2049 H 0.48549 0.52704 0.00713 0.0
C2050 C 0.50811 0.48617 0.99376 0.0
C2051 C 0.4841 0.50062 0.0088 0.0
C2052 C 0.46696 0.50088 0.01895 0.0
C2053 C 0.51585 0.50113 0.98853 0.0
C2054 C 0.50756 0.51601 0.99341 0.0
C2055 C 0.49186 0.51558 0.00362 0.0
C2056 C 0.51459 0.53218 0.98707 0.0
C2057 C 0.53294 0.50092 0.97822 0.0
C2058 C 0.51749 0.54407 0.00447 0.0
C2059 C 0.52248 0.55993 0.99819 0.0
C2060 C 0.52443 0.56416 0.97438 0.0
C2061 C 0.52207 0.55202 0.9571 0.0
C2062 C 0.51716 0.53619 0.96339 0.0
H2063 H 0.53921 0.48899 0.98136 0.0
H2064 H 0.53214 0.50284 0.95893 0.0
H2065 H 0.54059 0.51093 0.98574 0.0
H2066 H 0.5155 0.54119 0.02285 0.0
H2067 H 0.52412 0.56903 0.0119 0.0
H2068 H 0.97562 0.44694 0.43657 0.0
H2069 H 0.98542 0.47417 0.4479 0.0
H2070 H 0.98291 0.4604 0.52103 0.0
H2071 H 0.97295 0.43305 0.50988 0.0
H2072 H 0.97079 0.49287 0.51003 0.0
H2073 H 0.03285 0.48101 0.47279 0.0
H2074 H 0.01603 0.47758 0.45289 0.0
H2075 H 0.01823 0.46478 0.47844 0.0
C2076 C 0.97695 0.44973 0.4551 0.0
C2077 C 0.97365 0.43779 0.47234 0.0
C2078 C 0.98265 0.46527 0.4615 0.0
C2079 C 0.98523 0.46911 0.48524 0.0
C2080 C 0.98113 0.45756 0.50259 0.0
H2081 H 0.02175 0.55404 0.5604 0.0
H2082 H 0.0121 0.52682 0.54883 0.0
C2083 C 0.9754 0.44198 0.4962 0.0
C2084 C 0.99262 0.48505 0.49185 0.0
H2085 H 0.02758 0.508 0.48646 0.0
C2086 C 0.98322 0.49618 0.50499 0.0
C2087 C 0.00883 0.48928 0.48513 0.0
C2088 C 0.01967 0.47751 0.4717 0.0
C2089 C 0.98951 0.51161 0.51129 0.0
C2090 C 0.00575 0.51583 0.50466 0.0
C2091 C 0.01514 0.5047 0.49148 0.0
C2092 C 0.01319 0.53171 0.51148 0.0
C2093 C 0.9786 0.52341 0.52458 0.0
C2094 C 0.01785 0.54315 0.49424 0.0
C2095 C 0.02357 0.55871 0.50079 0.0
C2096 C 0.02469 0.56301 0.52468 0.0
C2097 C 0.02087 0.55117 0.54184 0.0
C2098 C 0.01524 0.53564 0.53529 0.0
H2099 H 0.9654 0.52009 0.52292 0.0
H2100 H 0.98187 0.52306 0.54352 0.0
H2101 H 0.98031 0.53619 0.51819 0.0
H2102 H 0.0165 0.54025 0.47574 0.0
H2103 H 0.02643 0.56757 0.48717 0.0
H2104 H 0.02743 0.44793 0.93612 0.0
H2105 H 0.0175 0.47502 0.94788 0.0
H2106 H 0.01975 0.46053 0.02076 0.0
H2107 H 0.02989 0.43339 0.00918 0.0
H2108 H 0.9881 0.47969 0.97228 0.0
H2109 H 0.04095 0.50627 0.02103 0.0
H2110 H 0.04307 0.48893 0.00142 0.0
H2111 H 0.03498 0.48608 0.03054 0.0
C2112 C 0.02614 0.45059 0.9547 0.0
C2113 C 0.02941 0.4385 0.97174 0.0
C2114 C 0.02042 0.46607 0.96136 0.0
C2115 C 0.01794 0.46978 0.98516 0.0
C2116 C 0.02183 0.45799 0.00231 0.0
H2117 H 0.97582 0.5512 0.06118 0.0
H2118 H 0.98635 0.52453 0.04859 0.0
C2119 C 0.0276 0.44248 0.99566 0.0
C2120 C 0.01004 0.48548 0.99183 0.0
H2121 H 0.01553 0.52049 0.02384 0.0
C2122 C 0.99412 0.48868 0.98344 0.0
C2123 C 0.01792 0.4971 0.00644 0.0
C2124 C 0.03523 0.49454 0.01524 0.0
C2125 C 0.98572 0.5031 0.98964 0.0
C2126 C 0.99358 0.5147 0.00432 0.0
C2127 C 0.00953 0.51152 0.01263 0.0
C2128 C 0.98552 0.53022 0.01146 0.0
C2129 C 0.96838 0.50561 0.98092 0.0
C2130 C 0.98124 0.54213 0.99467 0.0
C2131 C 0.9751 0.5574 0.0018 0.0
C2132 C 0.97332 0.56101 0.02584 0.0
C2133 C 0.97707 0.54881 0.04252 0.0
C2134 C 0.98314 0.53358 0.03538 0.0
H2135 H 0.96273 0.49391 0.97493 0.0
H2136 H 0.96051 0.51104 0.99486 0.0
H2137 H 0.96856 0.51422 0.96578 0.0
H2138 H 0.98323 0.53986 0.97612 0.0
H2139 H 0.97244 0.56659 0.98856 0.0
H2140 H 0.52408 0.44255 0.55952 0.0
H2141 H 0.51514 0.47008 0.54828 0.0
H2142 H 0.51345 0.45519 0.47554 0.0
H2143 H 0.5222 0.42745 0.48665 0.0
H2144 H 0.52743 0.49383 0.51692 0.0
H2145 H 0.46615 0.47044 0.4895 0.0
H2146 H 0.48047 0.45819 0.50625 0.0
H2147 H 0.48334 0.46087 0.47515 0.0
C2148 C 0.52205 0.44517 0.54107 0.0
C2149 C 0.52367 0.43276 0.52399 0.0
C2150 C 0.51693 0.46091 0.5347 0.0
C2151 C 0.51327 0.46453 0.51118 0.0
C2152 C 0.51587 0.4525 0.49387 0.0
H2153 H 0.47483 0.54999 0.44065 0.0
H2154 H 0.48432 0.52262 0.45183 0.0
C2155 C 0.52101 0.43671 0.50023 0.0
C2156 C 0.50604 0.48065 0.50507 0.0
H2157 H 0.47131 0.49872 0.48337 0.0
C2158 C 0.51516 0.49493 0.50962 0.0
C2159 C 0.48997 0.482 0.49572 0.0
C2160 C 0.47931 0.46709 0.49153 0.0
C2161 C 0.50875 0.51056 0.50462 0.0
C2162 C 0.49271 0.51189 0.49522 0.0
C2163 C 0.48358 0.49762 0.49068 0.0
C2164 C 0.48547 0.52799 0.48905 0.0
C2165 C 0.51933 0.52549 0.50894 0.0
C2166 C 0.48238 0.53986 0.50641 0.0
C2167 C 0.47689 0.55554 0.5001 0.0
C2168 C 0.47441 0.55954 0.47631 0.0
C2169 C 0.4767 0.54732 0.45912 0.0
C2170 C 0.48213 0.53168 0.46546 0.0
H2171 H 0.53247 0.52218 0.51142 0.0
H2172 H 0.51836 0.53429 0.49407 0.0
H2173 H 0.51504 0.53183 0.5251 0.0
H2174 H 0.4846 0.53711 0.52478 0.0
H2175 H 0.47521 0.56468 0.51374 0.0
H2176 H 0.06104 0.3774 0.05092 0.0
H2177 H 0.07445 0.36778 0.08709 0.0
H2178 H 0.06165 0.31782 0.06963 0.0
H2179 H 0.04847 0.32721 0.03358 0.0
H2180 H 0.06173 0.35021 0.12495 0.0
H2181 H 0.11109 0.31474 0.08124 0.0
H2182 H 0.09865 0.32964 0.06581 0.0
H2183 H 0.09101 0.30918 0.07086 0.0
C2184 C 0.06106 0.36437 0.05484 0.0
C2185 C 0.05378 0.35306 0.0393 0.0
C2186 C 0.06876 0.3589 0.07546 0.0
C2187 C 0.06938 0.34204 0.08075 0.0
C2188 C 0.06171 0.33083 0.06558 0.0
H2189 H 0.07922 0.28911 0.20888 0.0
H2190 H 0.07098 0.30355 0.17324 0.0
C2191 C 0.05406 0.33625 0.04505 0.0
C2192 C 0.07759 0.33604 0.1024 0.0
H2193 H 0.10607 0.30835 0.12187 0.0
C2194 C 0.07158 0.34123 0.1243 0.0
C2195 C 0.09064 0.32455 0.10155 0.0
C2196 C 0.09835 0.31932 0.0786 0.0
C2197 C 0.07767 0.33455 0.14534 0.0
C2198 C 0.08989 0.32218 0.14439 0.0
C2199 C 0.09654 0.31766 0.12256 0.0
C2200 C 0.09523 0.31314 0.16572 0.0
C2201 C 0.07085 0.3407 0.16838 0.0
C2202 C 0.11177 0.31317 0.17283 0.0
C2203 C 0.11659 0.30475 0.19321 0.0
C2204 C 0.10494 0.2961 0.20667 0.0
C2205 C 0.0885 0.29574 0.19904 0.0
C2206 C 0.08372 0.30411 0.17875 0.0
H2207 H 0.06567 0.35328 0.1666 0.0
H2208 H 0.06078 0.33244 0.17418 0.0
H2209 H 0.08045 0.34085 0.18227 0.0
H2210 H 0.12088 0.31992 0.16285 0.0
H2211 H 0.12935 0.30526 0.19861 0.0
H2212 H 0.87157 0.8024 0.29869 0.0
H2213 H 0.88077 0.81725 0.33392 0.0
H2214 H 0.9296 0.79766 0.3248 0.0
H2215 H 0.92064 0.78297 0.2897 0.0
H2216 H 0.89509 0.80557 0.37575 0.0
H2217 H 0.93746 0.84742 0.32858 0.0
H2218 H 0.9219 0.8355 0.31367 0.0
H2219 H 0.94109 0.82615 0.32195 0.0
C2220 C 0.88424 0.8012 0.30428 0.0
C2221 C 0.8954 0.79159 0.29131 0.0
C2222 C 0.88948 0.80972 0.32436 0.0
C2223 C 0.90596 0.80885 0.33163 0.0
C2224 C 0.91694 0.79883 0.31915 0.0
H2225 H 0.95392 0.82432 0.46261 0.0
H2226 H 0.94033 0.81454 0.42708 0.0
C2227 C 0.91174 0.79034 0.29917 0.0
C2228 C 0.91178 0.81812 0.35248 0.0
H2229 H 0.94116 0.8454 0.37034 0.0
C2230 C 0.90502 0.81444 0.37455 0.0
C2231 C 0.92453 0.82991 0.35084 0.0
C2232 C 0.93156 0.83512 0.32745 0.0
C2233 C 0.91127 0.82159 0.39517 0.0
C2234 C 0.92478 0.83251 0.39366 0.0
C2235 C 0.93095 0.83686 0.37149 0.0
C2236 C 0.93328 0.83874 0.41495 0.0
C2237 C 0.90345 0.81726 0.41842 0.0
C2238 C 0.93439 0.85567 0.4195 0.0
C2239 C 0.94231 0.86136 0.43982 0.0
C2240 C 0.94933 0.85018 0.45581 0.0
C2241 C 0.94856 0.83327 0.45078 0.0
C2242 C 0.94067 0.82763 0.43055 0.0
H2243 H 0.89057 0.81301 0.4161 0.0
H2244 H 0.9105 0.80713 0.42672 0.0
H2245 H 0.90352 0.82794 0.4306 0.0
H2246 H 0.92891 0.86445 0.40752 0.0
H2247 H 0.94271 0.87446 0.44318 0.0
H2248 H 0.42489 0.70924 0.71511 0.0
H2249 H 0.43435 0.6957 0.67934 0.0
H2250 H 0.38481 0.67996 0.66441 0.0
H2251 H 0.37513 0.69378 0.70018 0.0
H2252 H 0.43242 0.66275 0.66784 0.0
H2253 H 0.39913 0.70127 0.60259 0.0
H2254 H 0.4013 0.70721 0.63301 0.0
H2255 H 0.38649 0.69189 0.62475 0.0
C2256 C 0.41594 0.70303 0.70416 0.0
C2257 C 0.39923 0.70265 0.71045 0.0
C2258 C 0.4214 0.69524 0.68374 0.0
C2259 C 0.41029 0.68692 0.66912 0.0
C2260 C 0.39356 0.68654 0.67525 0.0
H2261 H 0.44494 0.62177 0.55546 0.0
H2262 H 0.43215 0.63175 0.59186 0.0
C2263 C 0.38805 0.69441 0.69571 0.0
C2264 C 0.41646 0.6785 0.64772 0.0
H2265 H 0.41486 0.67926 0.58775 0.0
C2266 C 0.42852 0.66627 0.65031 0.0
C2267 C 0.41142 0.68322 0.6249 0.0
C2268 C 0.39898 0.6967 0.621 0.0
C2269 C 0.43591 0.65884 0.63068 0.0
C2270 C 0.4309 0.66359 0.60786 0.0
C2271 C 0.41861 0.67559 0.60528 0.0
C2272 C 0.43902 0.65717 0.58637 0.0
C2273 C 0.44945 0.64645 0.63452 0.0
C2274 C 0.44702 0.66814 0.57117 0.0
C2275 C 0.45421 0.66251 0.5504 0.0
C2276 C 0.45355 0.64577 0.54433 0.0
C2277 C 0.44577 0.63472 0.55975 0.0
C2278 C 0.43849 0.6404 0.58056 0.0
H2279 H 0.45425 0.64681 0.65281 0.0
H2280 H 0.44459 0.63392 0.63118 0.0
H2281 H 0.45981 0.64863 0.62219 0.0
H2282 H 0.44761 0.68112 0.57532 0.0
H2283 H 0.4601 0.67137 0.53894 0.0
H2284 H 0.5757 0.19211 0.77677 0.0
H2285 H 0.56547 0.18198 0.81433 0.0
H2286 H 0.61315 0.18985 0.84557 0.0
H2287 H 0.62369 0.19964 0.80761 0.0
H2288 H 0.59987 0.16046 0.85869 0.0
H2289 H 0.55382 0.20984 0.87047 0.0
H2290 H 0.55125 0.19919 0.84312 0.0
H2291 H 0.5697 0.21086 0.84837 0.0
C2292 C 0.58404 0.19177 0.79162 0.0
C2293 C 0.60048 0.19684 0.78926 0.0
C2294 C 0.57812 0.18604 0.81314 0.0
C2295 C 0.58843 0.18549 0.8329 0.0
C2296 C 0.60495 0.19028 0.83056 0.0
H2297 H 0.55032 0.17524 0.97441 0.0
H2298 H 0.56322 0.18452 0.9381 0.0
C2299 C 0.61094 0.1959 0.80891 0.0
C2300 C 0.58188 0.17977 0.85586 0.0
H2301 H 0.5511 0.18647 0.89548 0.0
C2302 C 0.58929 0.16621 0.86686 0.0
C2303 C 0.56821 0.18742 0.86667 0.0
C2304 C 0.56039 0.20274 0.85668 0.0
C2305 C 0.58316 0.15987 0.88813 0.0
C2306 C 0.569 0.16706 0.89834 0.0
C2307 C 0.56182 0.18081 0.88752 0.0
C2308 C 0.56166 0.16094 0.92062 0.0
C2309 C 0.59213 0.14578 0.89965 0.0
C2310 C 0.55636 0.14457 0.92293 0.0
C2311 C 0.5491 0.13914 0.94389 0.0
C2312 C 0.54674 0.15009 0.96271 0.0
C2313 C 0.55188 0.1665 0.96021 0.0
C2314 C 0.55929 0.17183 0.93945 0.0
H2315 H 0.60508 0.14496 0.89353 0.0
H2316 H 0.5921 0.14701 0.91909 0.0
H2317 H 0.58593 0.13408 0.89498 0.0
H2318 H 0.55764 0.13603 0.90843 0.0
H2319 H 0.54518 0.12646 0.94524 0.0
H2320 H 0.04799 0.6328 0.44201 0.0
H2321 H 0.05982 0.64428 0.40591 0.0
H2322 H 0.07258 0.68863 0.44336 0.0
H2323 H 0.06017 0.67756 0.47899 0.0
H2324 H 0.05931 0.69627 0.40363 0.0
H2325 H 0.10668 0.64896 0.38625 0.0
H2326 H 0.0864 0.64038 0.38776 0.0
H2327 H 0.09532 0.64975 0.41346 0.0
C2328 C 0.05337 0.64497 0.4425 0.0
C2329 C 0.05311 0.65429 0.4633 0.0
C2330 C 0.06028 0.65147 0.42192 0.0
C2331 C 0.06739 0.66723 0.42197 0.0
C2332 C 0.06721 0.67645 0.44283 0.0
H2333 H 0.12748 0.70678 0.3071 0.0
H2334 H 0.11808 0.69549 0.34483 0.0
C2335 C 0.06008 0.6701 0.46321 0.0
C2336 C 0.07432 0.67458 0.40015 0.0
H2337 H 0.10146 0.66809 0.35523 0.0
C2338 C 0.06861 0.69012 0.39317 0.0
C2339 C 0.08669 0.66675 0.38666 0.0
C2340 C 0.09426 0.65062 0.39404 0.0
C2341 C 0.07469 0.69793 0.37297 0.0
C2342 C 0.08638 0.68971 0.35877 0.0
C2343 C 0.09236 0.67431 0.36596 0.0
C2344 C 0.09219 0.69671 0.33611 0.0
C2345 C 0.06869 0.71504 0.36736 0.0
C2346 C 0.08081 0.70097 0.3186 0.0
C2347 C 0.08611 0.70765 0.29733 0.0
C2348 C 0.10296 0.70988 0.29281 0.0
C2349 C 0.11441 0.70531 0.31013 0.0
C2350 C 0.10906 0.69881 0.33164 0.0
H2351 H 0.06447 0.72154 0.38346 0.0
H2352 H 0.07845 0.72253 0.3589 0.0
H2353 H 0.05806 0.71424 0.35518 0.0
H2354 H 0.06778 0.69899 0.32129 0.0
H2355 H 0.07697 0.71078 0.28422 0.0
H2356 H 0.57726 0.78986 0.70913 0.0
H2357 H 0.56765 0.80255 0.67282 0.0
H2358 H 0.61672 0.81988 0.65834 0.0
H2359 H 0.62657 0.8069 0.69467 0.0
H2360 H 0.56848 0.83539 0.66093 0.0
H2361 H 0.60361 0.7978 0.59655 0.0
H2362 H 0.60147 0.79196 0.62702 0.0
H2363 H 0.61576 0.80777 0.61875 0.0
C2364 C 0.58608 0.79623 0.69815 0.0
C2365 C 0.60271 0.79732 0.70476 0.0
C2366 C 0.58054 0.80353 0.67742 0.0
C2367 C 0.59147 0.81208 0.66279 0.0
C2368 C 0.60812 0.81312 0.66918 0.0
H2369 H 0.55498 0.8757 0.54866 0.0
H2370 H 0.56815 0.86614 0.58499 0.0
C2371 C 0.61372 0.80573 0.68996 0.0
C2372 C 0.58515 0.82014 0.6412 0.0
H2373 H 0.58725 0.81922 0.58125 0.0
C2374 C 0.57264 0.83194 0.64349 0.0
C2375 C 0.59053 0.81552 0.6185 0.0
C2376 C 0.60348 0.80248 0.61491 0.0
C2377 C 0.56513 0.83902 0.62369 0.0
C2378 C 0.5705 0.83438 0.60098 0.0
C2379 C 0.58322 0.82281 0.5987 0.0
C2380 C 0.56234 0.84048 0.57933 0.0
C2381 C 0.55111 0.8509 0.62725 0.0
C2382 C 0.55487 0.82923 0.564 0.0
C2383 C 0.54747 0.83462 0.54325 0.0
C2384 C 0.54738 0.8514 0.53734 0.0
C2385 C 0.55472 0.86271 0.55282 0.0
C2386 C 0.56222 0.85727 0.5736 0.0
H2387 H 0.54612 0.85033 0.64542 0.0
H2388 H 0.55554 0.8636 0.62407 0.0
H2389 H 0.54097 0.84836 0.61468 0.0
H2390 H 0.5548 0.81622 0.56808 0.0
H2391 H 0.54194 0.82557 0.53173 0.0
H2392 H 0.37466 0.30832 0.80162 0.0
H2393 H 0.38459 0.32186 0.8375 0.0
H2394 H 0.43465 0.31241 0.81652 0.0
H2395 H 0.42493 0.29916 0.78069 0.0
H2396 H 0.40366 0.30989 0.87371 0.0
H2397 H 0.43551 0.36154 0.82977 0.0
H2398 H 0.42103 0.34846 0.81463 0.0
H2399 H 0.44199 0.34194 0.81868 0.0
C2400 C 0.38778 0.30912 0.80469 0.0
C2401 C 0.39901 0.30276 0.78823 0.0
C2402 C 0.39342 0.3169 0.82515 0.0
C2403 C 0.41036 0.31849 0.82939 0.0
C2404 C 0.42154 0.31174 0.81329 0.0
H2405 H 0.46457 0.33013 0.9566 0.0
H2406 H 0.45058 0.32136 0.92082 0.0
C2407 C 0.41594 0.30404 0.79289 0.0
C2408 C 0.41651 0.32671 0.85096 0.0
H2409 H 0.44304 0.35642 0.86998 0.0
C2410 C 0.41211 0.3202 0.87292 0.0
C2411 C 0.42729 0.34035 0.84994 0.0
C2412 C 0.4316 0.3486 0.82699 0.0
C2413 C 0.41885 0.32644 0.89381 0.0
C2414 C 0.43053 0.33932 0.89266 0.0
C2415 C 0.43428 0.34639 0.87081 0.0
C2416 C 0.43953 0.34504 0.91381 0.0
C2417 C 0.41348 0.31909 0.91694 0.0
C2418 C 0.43858 0.36149 0.92117 0.0
C2419 C 0.44674 0.36663 0.9416 0.0
C2420 C 0.45604 0.35539 0.95487 0.0
C2421 C 0.45741 0.33908 0.94691 0.0
C2422 C 0.44931 0.334 0.92655 0.0
H2423 H 0.40119 0.31322 0.91548 0.0
H2424 H 0.4224 0.30948 0.92229 0.0
H2425 H 0.41301 0.32856 0.93099 0.0
H2426 H 0.43123 0.37026 0.91142 0.0
H2427 H 0.44545 0.37927 0.94726 0.0
H2428 H 0.87215 0.19407 0.19596 0.0
H2429 H 0.88106 0.17971 0.16017 0.0
H2430 H 0.9309 0.19558 0.17246 0.0
H2431 H 0.92221 0.20979 0.2081 0.0
H2432 H 0.89718 0.19188 0.11972 0.0
H2433 H 0.93528 0.14546 0.16564 0.0
H2434 H 0.9202 0.15792 0.18068 0.0
H2435 H 0.94018 0.16618 0.17396 0.0
C2436 C 0.88498 0.19456 0.19095 0.0
C2437 C 0.89648 0.20299 0.20495 0.0
C2438 C 0.89006 0.18632 0.17056 0.0
C2439 C 0.9067 0.18629 0.16398 0.0
C2440 C 0.91807 0.19511 0.17754 0.0
H2441 H 0.95661 0.17149 0.03434 0.0
H2442 H 0.94305 0.18111 0.06999 0.0
C2443 C 0.91304 0.20334 0.19783 0.0
C2444 C 0.91231 0.17732 0.14276 0.0
H2445 H 0.93999 0.14851 0.12424 0.0
C2446 C 0.90638 0.18225 0.1207 0.0
C2447 C 0.92411 0.16456 0.1441 0.0
C2448 C 0.9302 0.15808 0.16739 0.0
C2449 C 0.91257 0.17535 0.09988 0.0
C2450 C 0.92517 0.16338 0.10119 0.0
C2451 C 0.93047 0.15783 0.12327 0.0
C2452 C 0.93364 0.15722 0.07986 0.0
C2453 C 0.9057 0.18106 0.07663 0.0
C2454 C 0.93338 0.14045 0.07402 0.0
C2455 C 0.94126 0.13484 0.05361 0.0
C2456 C 0.94961 0.14593 0.03886 0.0
C2457 C 0.95021 0.16263 0.0452 0.0
C2458 C 0.94235 0.16819 0.0655 0.0
H2459 H 0.89318 0.18633 0.07868 0.0
H2460 H 0.91378 0.1908 0.06933 0.0
H2461 H 0.90515 0.17081 0.06376 0.0
H2462 H 0.92686 0.13176 0.08504 0.0
H2463 H 0.94058 0.12191 0.04923 0.0
H2464 H 0.93791 0.67511 0.98122 0.0
H2465 H 0.92635 0.68618 0.94502 0.0
H2466 H 0.93924 0.64154 0.90844 0.0
H2467 H 0.95028 0.63006 0.94507 0.0
H2468 H 0.94058 0.69336 0.90547 0.0
H2469 H 0.89259 0.64674 0.88747 0.0
H2470 H 0.90352 0.64763 0.91505 0.0
H2471 H 0.91272 0.6379 0.88983 0.0
C2472 C 0.93822 0.66758 0.96551 0.0
C2473 C 0.945 0.65169 0.966 0.0
C2474 C 0.93158 0.67394 0.94481 0.0
C2475 C 0.93167 0.66463 0.92403 0.0
C2476 C 0.9386 0.6488 0.92437 0.0
H2477 H 0.92404 0.7076 0.78548 0.0
H2478 H 0.9328 0.69565 0.82269 0.0
C2479 C 0.94504 0.6423 0.94525 0.0
C2480 C 0.92518 0.67195 0.90192 0.0
H2481 H 0.89837 0.66571 0.85652 0.0
C2482 C 0.93127 0.68733 0.89487 0.0
C2483 C 0.91282 0.66426 0.88825 0.0
C2484 C 0.9049 0.64831 0.89565 0.0
C2485 C 0.92556 0.69512 0.87445 0.0
C2486 C 0.91383 0.68705 0.86013 0.0
C2487 C 0.90749 0.67181 0.86736 0.0
C2488 C 0.90829 0.69409 0.83735 0.0
C2489 C 0.93197 0.71207 0.86871 0.0
C2490 C 0.8915 0.69665 0.83278 0.0
C2491 C 0.8864 0.70326 0.81123 0.0
C2492 C 0.89802 0.70747 0.79395 0.0
C2493 C 0.91478 0.70474 0.79854 0.0
C2494 C 0.91984 0.69797 0.81989 0.0
H2495 H 0.93631 0.71854 0.88477 0.0
H2496 H 0.9426 0.71096 0.85657 0.0
H2497 H 0.92241 0.71973 0.86013 0.0
H2498 H 0.88236 0.69363 0.84594 0.0
H2499 H 0.87339 0.70512 0.80814 0.0
H2500 H 0.12596 0.2002 0.69452 0.0
H2501 H 0.11605 0.19017 0.65633 0.0
H2502 H 0.06659 0.18836 0.68358 0.0
H2503 H 0.07624 0.19886 0.72124 0.0
H2504 H 0.1009 0.16212 0.64377 0.0
H2505 H 0.05961 0.21445 0.62472 0.0
H2506 H 0.07443 0.21495 0.6483 0.0
H2507 H 0.05482 0.20506 0.6524 0.0
C2508 C 0.11296 0.19778 0.69226 0.0
C2509 C 0.10186 0.20053 0.71079 0.0
C2510 C 0.10732 0.19202 0.67047 0.0
C2511 C 0.09052 0.18884 0.66692 0.0
C2512 C 0.07952 0.1912 0.68563 0.0
H2513 H 0.04715 0.12893 0.55556 0.0
H2514 H 0.05911 0.13892 0.59249 0.0
C2515 C 0.08509 0.19713 0.70722 0.0
C2516 C 0.0844 0.18282 0.64386 0.0
H2517 H 0.05563 0.19031 0.60152 0.0
C2518 C 0.0911 0.16835 0.6344 0.0
C2519 C 0.07177 0.19108 0.63144 0.0
C2520 C 0.06487 0.20733 0.63961 0.0
C2521 C 0.08527 0.16172 0.61314 0.0
C2522 C 0.07206 0.16953 0.60137 0.0
C2523 C 0.0656 0.18417 0.61065 0.0
C2524 C 0.065 0.16314 0.57904 0.0
C2525 C 0.09358 0.14663 0.60331 0.0
C2526 C 0.06383 0.17354 0.55942 0.0
C2527 C 0.05666 0.16799 0.53859 0.0
C2528 C 0.05061 0.15186 0.5368 0.0
C2529 C 0.05181 0.14139 0.55638 0.0
C2530 C 0.05878 0.14705 0.57742 0.0
H2531 H 0.10626 0.14523 0.61029 0.0
H2532 H 0.08648 0.13557 0.60851 0.0
H2533 H 0.09419 0.14708 0.58381 0.0
H2534 H 0.06849 0.186 0.56021 0.0
H2535 H 0.056 0.17635 0.52379 0.0
H2536 H 0.53203 0.32532 0.45787 0.0
H2537 H 0.54691 0.3162 0.42302 0.0
H2538 H 0.56675 0.36491 0.41383 0.0
H2539 H 0.55175 0.37427 0.44885 0.0
H2540 H 0.55499 0.35005 0.37178 0.0
H2541 H 0.59701 0.30861 0.4204 0.0
H2542 H 0.57571 0.3051 0.42704 0.0
H2543 H 0.58505 0.32441 0.43475 0.0
C2544 C 0.53948 0.33417 0.44843 0.0
C2545 C 0.54077 0.35052 0.45623 0.0
C2546 C 0.54808 0.32887 0.4286 0.0
C2547 C 0.55822 0.33978 0.41618 0.0
C2548 C 0.55912 0.35627 0.42335 0.0
H2549 H 0.6242 0.30222 0.30553 0.0
H2550 H 0.61418 0.31655 0.34077 0.0
C2551 C 0.55051 0.3616 0.4433 0.0
C2552 C 0.56764 0.33382 0.39557 0.0
H2553 H 0.59524 0.30444 0.37873 0.0
C2554 C 0.56396 0.34023 0.3733 0.0
C2555 C 0.57955 0.32121 0.39765 0.0
C2556 C 0.58471 0.31453 0.42128 0.0
C2557 C 0.5712 0.33374 0.35291 0.0
C2558 C 0.58224 0.32036 0.35487 0.0
C2559 C 0.58662 0.31456 0.37724 0.0
C2560 C 0.5885 0.31155 0.33388 0.0
C2561 C 0.56681 0.34111 0.32939 0.0
C2562 C 0.57743 0.30363 0.31877 0.0
C2563 C 0.58308 0.29542 0.29882 0.0
C2564 C 0.59997 0.29487 0.29357 0.0
C2565 C 0.61112 0.30244 0.30908 0.0
C2566 C 0.60542 0.31066 0.32915 0.0
H2567 H 0.56235 0.35395 0.33126 0.0
H2568 H 0.57753 0.34102 0.31728 0.0
H2569 H 0.55682 0.33377 0.32126 0.0
H2570 H 0.56435 0.30383 0.32241 0.0
H2571 H 0.57414 0.28966 0.28735 0.0
H2572 H 0.44958 0.82198 0.02516 0.0
H2573 H 0.43686 0.81111 0.06066 0.0
H2574 H 0.44238 0.85828 0.09446 0.0
H2575 H 0.45448 0.86949 0.05834 0.0
H2576 H 0.4485 0.80685 0.10227 0.0
H2577 H 0.39541 0.84913 0.10961 0.0
H2578 H 0.40832 0.84845 0.08385 0.0
H2579 H 0.41467 0.85986 0.10943 0.0
C2580 C 0.44805 0.83009 0.04011 0.0
C2581 C 0.45302 0.84661 0.03895 0.0
C2582 C 0.44074 0.82385 0.06042 0.0
C2583 C 0.43838 0.83391 0.08018 0.0
C2584 C 0.4436 0.85038 0.07924 0.0
H2585 H 0.42499 0.79462 0.22009 0.0
H2586 H 0.43519 0.8062 0.18343 0.0
C2587 C 0.45068 0.85674 0.05869 0.0
C2588 C 0.43107 0.82681 0.10191 0.0
H2589 H 0.40073 0.83198 0.14281 0.0
C2590 C 0.43798 0.81232 0.11102 0.0
C2591 C 0.41715 0.83372 0.11315 0.0
C2592 C 0.40834 0.84854 0.10337 0.0
C2593 C 0.43154 0.80468 0.13111 0.0
C2594 C 0.41819 0.81208 0.14308 0.0
C2595 C 0.41107 0.82641 0.13379 0.0
C2596 C 0.41172 0.80532 0.16553 0.0
C2597 C 0.43894 0.78857 0.13895 0.0
C2598 C 0.39494 0.80155 0.1681 0.0
C2599 C 0.38897 0.79519 0.18935 0.0
C2600 C 0.39971 0.7924 0.2083 0.0
C2601 C 0.41644 0.79634 0.2057 0.0
C2602 C 0.42232 0.8029 0.18467 0.0
H2603 H 0.44482 0.78199 0.12403 0.0
H2604 H 0.44862 0.79101 0.15226 0.0
H2605 H 0.42954 0.78038 0.14688 0.0
H2606 H 0.3865 0.80343 0.15362 0.0
H2607 H 0.376 0.79236 0.19089 0.0
H2608 H 0.94197 0.37832 0.55218 0.0
H2609 H 0.92878 0.36926 0.58878 0.0
H2610 H 0.94257 0.31919 0.57362 0.0
H2611 H 0.95552 0.32804 0.5371 0.0
H2612 H 0.90961 0.32266 0.58632 0.0
H2613 H 0.95117 0.35399 0.64981 0.0
H2614 H 0.94196 0.36689 0.62779 0.0
H2615 H 0.95644 0.35135 0.6192 0.0
C2616 C 0.94232 0.36541 0.55678 0.0
C2617 C 0.94983 0.35391 0.54176 0.0
C2618 C 0.9348 0.36026 0.5777 0.0
C2619 C 0.93478 0.34356 0.58397 0.0
C2620 C 0.94242 0.33213 0.5691 0.0
H2621 H 0.92108 0.29214 0.71279 0.0
H2622 H 0.93014 0.30529 0.67652 0.0
C2623 C 0.94987 0.33723 0.54825 0.0
C2624 C 0.92662 0.33772 0.60574 0.0
H2625 H 0.92921 0.33872 0.66564 0.0
C2626 C 0.91378 0.32626 0.60369 0.0
C2627 C 0.93218 0.34238 0.62833 0.0
C2628 C 0.94627 0.35423 0.63157 0.0
C2629 C 0.9066 0.31903 0.62363 0.0
C2630 C 0.91227 0.32357 0.64622 0.0
C2631 C 0.92484 0.33532 0.64828 0.0
C2632 C 0.90628 0.31536 0.66787 0.0
C2633 C 0.89351 0.30609 0.62034 0.0
C2634 C 0.88979 0.31658 0.67501 0.0
C2635 C 0.88451 0.30896 0.69579 0.0
C2636 C 0.89568 0.3001 0.7098 0.0
C2637 C 0.91214 0.29885 0.70243 0.0
C2638 C 0.91737 0.30641 0.68173 0.0
H2639 H 0.8929 0.30166 0.60187 0.0
H2640 H 0.8958 0.2954 0.63204 0.0
H2641 H 0.88136 0.31136 0.62499 0.0
H2642 H 0.88108 0.32363 0.66474 0.0
H2643 H 0.87179 0.31025 0.70108 0.0
H2644 H 0.38047 0.20644 0.31024 0.0
H2645 H 0.39132 0.19544 0.34734 0.0
H2646 H 0.43862 0.18824 0.31462 0.0
H2647 H 0.42812 0.19975 0.27806 0.0
H2648 H 0.40384 0.16621 0.35901 0.0
H2649 H 0.45189 0.21343 0.37175 0.0
H2650 H 0.43599 0.21547 0.34985 0.0
H2651 H 0.45406 0.20334 0.34392 0.0
C2652 C 0.39321 0.20264 0.31108 0.0
C2653 C 0.4035 0.20419 0.29134 0.0
C2654 C 0.39939 0.19631 0.33224 0.0
C2655 C 0.4159 0.19135 0.33394 0.0
C2656 C 0.42601 0.19247 0.31401 0.0
H2657 H 0.45726 0.12779 0.44319 0.0
H2658 H 0.44496 0.13857 0.40694 0.0
C2659 C 0.41994 0.199 0.29305 0.0
C2660 C 0.42262 0.18478 0.35636 0.0
H2661 H 0.45443 0.18912 0.39499 0.0
C2662 C 0.41482 0.1713 0.36702 0.0
C2663 C 0.4368 0.19157 0.36703 0.0
C2664 C 0.44506 0.20686 0.35768 0.0
C2665 C 0.421 0.16423 0.38778 0.0
C2666 C 0.43569 0.17049 0.39774 0.0
C2667 C 0.4433 0.18414 0.38724 0.0
C2668 C 0.4431 0.16364 0.41957 0.0
C2669 C 0.41148 0.1504 0.39907 0.0
C2670 C 0.44673 0.17418 0.43841 0.0
C2671 C 0.45416 0.16814 0.45875 0.0
C2672 C 0.45798 0.15136 0.46089 0.0
C2673 C 0.45437 0.14076 0.44208 0.0
C2674 C 0.44718 0.14689 0.42146 0.0
H2675 H 0.39837 0.15051 0.39358 0.0
H2676 H 0.41684 0.13848 0.39349 0.0
H2677 H 0.41203 0.15114 0.41855 0.0
H2678 H 0.44375 0.18714 0.43742 0.0
H2679 H 0.45668 0.17663 0.47298 0.0
H2680 H 0.55522 0.62573 0.05424 0.0
H2681 H 0.56902 0.63568 0.08993 0.0
H2682 H 0.55474 0.68532 0.07298 0.0
H2683 H 0.54113 0.6756 0.03741 0.0
H2684 H 0.5883 0.68182 0.08477 0.0
H2685 H 0.54705 0.6527 0.15083 0.0
H2686 H 0.55575 0.63929 0.12899 0.0
H2687 H 0.54135 0.65485 0.1203 0.0
C2688 C 0.55491 0.63874 0.05825 0.0
C2689 C 0.54704 0.64986 0.04301 0.0
C2690 C 0.56277 0.64439 0.07865 0.0
C2691 C 0.56282 0.66123 0.08413 0.0
C2692 C 0.55487 0.67229 0.06905 0.0
H2693 H 0.5781 0.71661 0.20907 0.0
H2694 H 0.56876 0.70275 0.17349 0.0
C2695 C 0.54704 0.66668 0.04875 0.0
C2696 C 0.57128 0.66758 0.10537 0.0
H2697 H 0.56908 0.66851 0.16531 0.0
C2698 C 0.58423 0.67881 0.10241 0.0
C2699 C 0.56583 0.66368 0.12831 0.0
C2700 C 0.55166 0.65207 0.13246 0.0
C2701 C 0.59164 0.68655 0.12178 0.0
C2702 C 0.58605 0.68281 0.1447 0.0
C2703 C 0.57337 0.67128 0.14769 0.0
C2704 C 0.59228 0.69162 0.16572 0.0
C2705 C 0.60491 0.69916 0.11754 0.0
C2706 C 0.6087 0.69008 0.17306 0.0
C2707 C 0.61414 0.69809 0.19345 0.0
C2708 C 0.60322 0.70768 0.20685 0.0
C2709 C 0.58686 0.70935 0.19918 0.0
C2710 C 0.58146 0.70138 0.17888 0.0
H2711 H 0.60567 0.70283 0.09875 0.0
H2712 H 0.60271 0.71032 0.12834 0.0
H2713 H 0.61698 0.69395 0.12278 0.0
H2714 H 0.6172 0.68244 0.16329 0.0
H2715 H 0.62678 0.69647 0.19898 0.0
H2716 H 0.07751 0.78658 0.78973 0.0
H2717 H 0.06879 0.80056 0.82552 0.0
H2718 H 0.11802 0.81884 0.83581 0.0
H2719 H 0.12699 0.8046 0.79995 0.0
H2720 H 0.10415 0.807 0.87666 0.0
H2721 H 0.06114 0.84972 0.83259 0.0
H2722 H 0.05703 0.82866 0.82529 0.0
H2723 H 0.07622 0.83786 0.81662 0.0
C2724 C 0.08653 0.79353 0.79958 0.0
C2725 C 0.10294 0.79455 0.7919 0.0
C2726 C 0.08148 0.80164 0.81996 0.0
C2727 C 0.09265 0.81108 0.83301 0.0
C2728 C 0.10916 0.81176 0.82583 0.0
H2729 H 0.05645 0.87449 0.94732 0.0
H2730 H 0.06968 0.86506 0.91093 0.0
C2731 C 0.11427 0.80359 0.80539 0.0
C2732 C 0.08702 0.81986 0.85442 0.0
H2733 H 0.05772 0.84654 0.87431 0.0
C2734 C 0.09414 0.8158 0.87612 0.0
C2735 C 0.07418 0.8316 0.85367 0.0
C2736 C 0.06682 0.83736 0.83075 0.0
C2737 C 0.08819 0.82251 0.89722 0.0
C2738 C 0.07455 0.83333 0.8966 0.0
C2739 C 0.06801 0.83806 0.87481 0.0
C2740 C 0.06642 0.83918 0.91841 0.0
C2741 C 0.09652 0.81788 0.91998 0.0
C2742 C 0.05981 0.82779 0.93433 0.0
C2743 C 0.0523 0.83311 0.95503 0.0
C2744 C 0.05106 0.84998 0.96017 0.0
C2745 C 0.05723 0.86142 0.94388 0.0
C2746 C 0.06482 0.85606 0.92313 0.0
H2747 H 0.10947 0.81404 0.917 0.0
H2748 H 0.09641 0.82826 0.93267 0.0
H2749 H 0.08992 0.80735 0.92802 0.0
H2750 H 0.06047 0.81473 0.93074 0.0
H2751 H 0.04755 0.82396 0.96709 0.0
loop_
_geom_bond_atom_site_label_1
_geom_bond_atom_site_label_2
_geom_bond_distance
_geom_bond_site_symmetry_2
_ccdc_geom_bond_type
O0 Cd1 2.223 . S
O0 C8 1.315 . S
Cd1 O0 2.223 . S
Cd1 O4 2.297 . S
Cd1 O5 2.439 . S
Cd1 O11 2.240 . S
Cd2 O3 2.240 . S
Cd2 O10 2.223 . S
Cd2 O12 2.297 . S
Cd2 O13 2.439 . S
O3 Cd2 2.240 . S
O3 C8 1.279 . S
O4 Cd1 2.297 . S
O4 C6 1.247 . S
O5 Cd1 2.439 . S
O5 C6 1.208 . S
C6 O4 1.247 . S
C6 O5 1.208 . S
C7 O12 1.247 . S
C7 O13 1.208 . S
C8 O0 1.315 . S
C8 O3 1.279 . S
C9 O10 1.315 . S
C9 O11 1.279 . S
O10 Cd2 2.223 . S
O10 C9 1.315 . S
O11 Cd1 2.240 . S
O11 C9 1.279 . S
O12 Cd2 2.297 . S
O12 C7 1.247 . S
O13 Cd2 2.439 . S
O13 C7 1.208 . S
O14 Cd15 2.223 . S
O14 C22 1.315 . S
Cd15 O14 2.223 . S
Cd15 O18 2.297 . S
Cd15 O19 2.439 . S
Cd15 O25 2.240 . S
Cd16 O17 2.240 . S
Cd16 O24 2.223 . S
Cd16 O26 2.297 . S
Cd16 O27 2.439 . S
O17 Cd16 2.240 . S
O17 C22 1.279 . S
O18 Cd15 2.297 . S
O18 C20 1.247 . S
O19 Cd15 2.439 . S
O19 C20 1.208 . S
C20 O18 1.247 . S
C20 O19 1.208 . S
C21 O26 1.247 . S
C21 O27 1.208 . S
C22 O14 1.315 . S
C22 O17 1.279 . S
C23 O24 1.315 . S
C23 O25 1.279 . S
O24 Cd16 2.223 . S
O24 C23 1.315 . S
O25 Cd15 2.240 . S
O25 C23 1.279 . S
O26 Cd16 2.297 . S
O26 C21 1.247 . S
O27 Cd16 2.439 . S
O27 C21 1.208 . S
O28 Cd29 2.223 . S
O28 C36 1.315 . S
Cd29 O28 2.223 . S
Cd29 O32 2.297 . S
Cd29 O33 2.439 . S
Cd29 O39 2.240 . S
Cd30 O31 2.240 . S
Cd30 O38 2.223 . S
Cd30 O40 2.297 . S
Cd30 O41 2.439 . S
O31 Cd30 2.240 . S
O31 C36 1.279 . S
O32 Cd29 2.297 . S
O32 C34 1.247 . S
O33 Cd29 2.439 . S
O33 C34 1.208 . S
C34 O32 1.247 . S
C34 O33 1.208 . S
C35 O40 1.247 . S
C35 O41 1.208 . S
C36 O28 1.315 . S
C36 O31 1.279 . S
C37 O38 1.315 . S
C37 O39 1.279 . S
O38 Cd30 2.223 . S
O38 C37 1.315 . S
O39 Cd29 2.240 . S
O39 C37 1.279 . S
O40 Cd30 2.297 . S
O40 C35 1.247 . S
O41 Cd30 2.439 . S
O41 C35 1.208 . S
O42 Cd43 2.223 . S
O42 C50 1.315 . S
Cd43 O42 2.223 . S
Cd43 O46 2.297 . S
Cd43 O47 2.439 . S
Cd43 O53 2.240 . S
Cd44 O45 2.240 . S
Cd44 O52 2.223 . S
Cd44 O54 2.297 1_554 S
Cd44 O55 2.439 1_554 S
O45 Cd44 2.240 . S
O45 C50 1.279 . S
O46 Cd43 2.297 . S
O46 C48 1.247 . S
O47 Cd43 2.439 . S
O47 C48 1.208 . S
C48 O46 1.247 . S
C48 O47 1.208 . S
C49 O54 1.247 . S
C49 O55 1.208 . S
C50 O42 1.315 . S
C50 O45 1.279 . S
C51 O52 1.315 . S
C51 O53 1.279 . S
O52 Cd44 2.223 . S
O52 C51 1.315 . S
O53 Cd43 2.240 . S
O53 C51 1.279 . S
O54 Cd44 2.297 1_556 S
O54 C49 1.247 . S
O55 Cd44 2.439 1_556 S
O55 C49 1.208 . S
O56 Cd57 2.223 . S
O56 C64 1.315 . S
Cd57 O56 2.223 . S
Cd57 O60 2.297 . S
Cd57 O61 2.439 . S
Cd57 O67 2.240 . S
Cd58 O59 2.240 . S
Cd58 O66 2.223 . S
Cd58 O68 2.297 . S
Cd58 O69 2.439 . S
O59 Cd58 2.240 . S
O59 C64 1.279 . S
O60 Cd57 2.297 . S
O60 C62 1.247 . S
O61 Cd57 2.439 . S
O61 C62 1.208 . S
C62 O60 1.247 . S
C62 O61 1.208 . S
C63 O68 1.247 . S
C63 O69 1.208 . S
C64 O56 1.315 . S
C64 O59 1.279 . S
C65 O66 1.315 . S
C65 O67 1.279 . S
O66 Cd58 2.223 . S
O66 C65 1.315 . S
O67 Cd57 2.240 . S
O67 C65 1.279 . S
O68 Cd58 2.297 . S
O68 C63 1.247 . S
O69 Cd58 2.439 . S
O69 C63 1.208 . S
O70 Cd71 2.223 . S
O70 C78 1.315 . S
Cd71 O70 2.223 . S
Cd71 O74 2.297 . S
Cd71 O75 2.439 . S
Cd71 O81 2.240 . S
Cd72 O73 2.240 . S
Cd72 O80 2.223 . S
Cd72 O82 2.297 . S
Cd72 O83 2.439 . S
O73 Cd72 2.240 . S
O73 C78 1.279 . S
O74 Cd71 2.297 . S
O74 C76 1.247 . S
O75 Cd71 2.439 . S
O75 C76 1.208 . S
C76 O74 1.247 . S
C76 O75 1.208 . S
C77 O82 1.247 . S
C77 O83 1.208 . S
C78 O70 1.315 . S
C78 O73 1.279 . S
C79 O80 1.315 . S
C79 O81 1.279 . S
O80 Cd72 2.223 . S
O80 C79 1.315 . S
O81 Cd71 2.240 . S
O81 C79 1.279 . S
O82 Cd72 2.297 . S
O82 C77 1.247 . S
O83 Cd72 2.439 . S
O83 C77 1.208 . S
O84 Cd85 2.223 . S
O84 C92 1.315 . S
Cd85 O84 2.223 . S
Cd85 O88 2.297 . S
Cd85 O89 2.439 . S
Cd85 O95 2.240 . S
Cd86 O87 2.240 . S
Cd86 O94 2.223 . S
Cd86 O96 2.297 . S
Cd86 O97 2.439 . S
O87 Cd86 2.240 . S
O87 C92 1.279 . S
O88 Cd85 2.297 . S
O88 C90 1.247 . S
O89 Cd85 2.439 . S
O89 C90 1.208 . S
C90 O88 1.247 . S
C90 O89 1.208 . S
C91 O96 1.247 . S
C91 O97 1.208 . S
C92 O84 1.315 . S
C92 O87 1.279 . S
C93 O94 1.315 . S
C93 O95 1.279 . S
O94 Cd86 2.223 . S
O94 C93 1.315 . S
O95 Cd85 2.240 . S
O95 C93 1.279 . S
O96 Cd86 2.297 . S
O96 C91 1.247 . S
O97 Cd86 2.439 . S
O97 C91 1.208 . S
O98 Cd99 2.223 . S
O98 C106 1.315 . S
Cd99 O98 2.223 . S
Cd99 O102 2.297 . S
Cd99 O103 2.439 . S
Cd99 O109 2.240 . S
Cd100 O101 2.240 . S
Cd100 O108 2.223 . S
Cd100 O110 2.297 1_556 S
Cd100 O111 2.439 1_556 S
O101 Cd100 2.240 . S
O101 C106 1.279 . S
O102 Cd99 2.297 . S
O102 C104 1.247 . S
O103 Cd99 2.439 . S
O103 C104 1.208 . S
C104 O102 1.247 . S
C104 O103 1.208 . S
C105 O110 1.247 . S
C105 O111 1.208 . S
C106 O98 1.315 . S
C106 O101 1.279 . S
C107 O108 1.315 . S
C107 O109 1.279 . S
O108 Cd100 2.223 . S
O108 C107 1.315 . S
O109 Cd99 2.240 . S
O109 C107 1.279 . S
O110 Cd100 2.297 1_554 S
O110 C105 1.247 . S
O111 Cd100 2.439 1_554 S
O111 C105 1.208 . S
O112 Cd113 2.223 . S
O112 C120 1.315 . S
Cd113 O112 2.223 . S
Cd113 O116 2.297 . S
Cd113 O117 2.439 . S
Cd113 O123 2.240 . S
Cd114 O115 2.240 . S
Cd114 O122 2.223 . S
Cd114 O124 2.297 . S
Cd114 O125 2.439 . S
O115 Cd114 2.240 . S
O115 C120 1.279 . S
O116 Cd113 2.297 . S
O116 C118 1.247 . S
O117 Cd113 2.439 . S
O117 C118 1.208 . S
C118 O116 1.247 . S
C118 O117 1.208 . S
C119 O124 1.247 . S
C119 O125 1.208 . S
C120 O112 1.315 . S
C120 O115 1.279 . S
C121 O122 1.315 . S
C121 O123 1.279 . S
O122 Cd114 2.223 . S
O122 C121 1.315 . S
O123 Cd113 2.240 . S
O123 C121 1.279 . S
O124 Cd114 2.297 . S
O124 C119 1.247 . S
O125 Cd114 2.439 . S
O125 C119 1.208 . S
O126 Cd127 2.223 . S
O126 C134 1.315 . S
Cd127 O126 2.223 . S
Cd127 O130 2.297 . S
Cd127 O131 2.439 . S
Cd127 O137 2.240 . S
Cd128 O129 2.240 . S
Cd128 O136 2.223 . S
Cd128 O138 2.297 . S
Cd128 O139 2.439 . S
O129 Cd128 2.240 . S
O129 C134 1.279 . S
O130 Cd127 2.297 . S
O130 C132 1.247 . S
O131 Cd127 2.439 . S
O131 C132 1.208 . S
C132 O130 1.247 . S
C132 O131 1.208 . S
C133 O138 1.247 . S
C133 O139 1.208 . S
C134 O126 1.315 . S
C134 O129 1.279 . S
C135 O136 1.315 . S
C135 O137 1.279 . S
O136 Cd128 2.223 . S
O136 C135 1.315 . S
O137 Cd127 2.240 . S
O137 C135 1.279 . S
O138 Cd128 2.297 . S
O138 C133 1.247 . S
O139 Cd128 2.439 . S
O139 C133 1.208 . S
O140 Cd141 2.223 . S
O140 C148 1.315 . S
Cd141 O140 2.223 . S
Cd141 O144 2.297 . S
Cd141 O145 2.439 . S
Cd141 O151 2.240 . S
Cd142 O143 2.240 . S
Cd142 O150 2.223 . S
Cd142 O152 2.297 . S
Cd142 O153 2.439 . S
O143 Cd142 2.240 . S
O143 C148 1.279 . S
O144 Cd141 2.297 . S
O144 C146 1.247 . S
O145 Cd141 2.439 . S
O145 C146 1.208 . S
C146 O144 1.247 . S
C146 O145 1.208 . S
C147 O152 1.247 . S
C147 O153 1.208 . S
C148 O140 1.315 . S
C148 O143 1.279 . S
C149 O150 1.315 . S
C149 O151 1.279 . S
O150 Cd142 2.223 . S
O150 C149 1.315 . S
O151 Cd141 2.240 . S
O151 C149 1.279 . S
O152 Cd142 2.297 . S
O152 C147 1.247 . S
O153 Cd142 2.439 . S
O153 C147 1.208 . S
O154 Cd155 2.223 . S
O154 C162 1.315 . S
Cd155 O154 2.223 . S
Cd155 O158 2.297 . S
Cd155 O159 2.439 . S
Cd155 O165 2.240 . S
Cd156 O157 2.240 . S
Cd156 O164 2.223 . S
Cd156 O166 2.297 1_556 S
Cd156 O167 2.439 1_556 S
O157 Cd156 2.240 . S
O157 C162 1.279 . S
O158 Cd155 2.297 . S
O158 C160 1.247 . S
O159 Cd155 2.439 . S
O159 C160 1.208 . S
C160 O158 1.247 . S
C160 O159 1.208 . S
C161 O166 1.247 . S
C161 O167 1.208 . S
C162 O154 1.315 . S
C162 O157 1.279 . S
C163 O164 1.315 . S
C163 O165 1.279 . S
O164 Cd156 2.223 . S
O164 C163 1.315 . S
O165 Cd155 2.240 . S
O165 C163 1.279 . S
O166 Cd156 2.297 1_554 S
O166 C161 1.247 . S
O167 Cd156 2.439 1_554 S
O167 C161 1.208 . S
O168 Cd169 2.223 . S
O168 C176 1.315 . S
Cd169 O168 2.223 . S
Cd169 O172 2.297 . S
Cd169 O173 2.439 . S
Cd169 O179 2.240 . S
Cd170 O171 2.240 . S
Cd170 O178 2.223 . S
Cd170 O180 2.297 . S
Cd170 O181 2.439 . S
O171 Cd170 2.240 . S
O171 C176 1.279 . S
O172 Cd169 2.297 . S
O172 C174 1.247 . S
O173 Cd169 2.439 . S
O173 C174 1.208 . S
C174 O172 1.247 . S
C174 O173 1.208 . S
C175 O180 1.247 . S
C175 O181 1.208 . S
C176 O168 1.315 . S
C176 O171 1.279 . S
C177 O178 1.315 . S
C177 O179 1.279 . S
O178 Cd170 2.223 . S
O178 C177 1.315 . S
O179 Cd169 2.240 . S
O179 C177 1.279 . S
O180 Cd170 2.297 . S
O180 C175 1.247 . S
O181 Cd170 2.439 . S
O181 C175 1.208 . S
O182 Cd183 2.223 . S
O182 C190 1.315 . S
Cd183 O182 2.223 . S
Cd183 O186 2.297 . S
Cd183 O187 2.439 . S
Cd183 O193 2.240 . S
Cd184 O185 2.240 . S
Cd184 O192 2.223 . S
Cd184 O194 2.297 . S
Cd184 O195 2.439 . S
O185 Cd184 2.240 . S
O185 C190 1.279 . S
O186 Cd183 2.297 . S
O186 C188 1.247 . S
O187 Cd183 2.439 . S
O187 C188 1.208 . S
C188 O186 1.247 . S
C188 O187 1.208 . S
C189 O194 1.247 . S
C189 O195 1.208 . S
C190 O182 1.315 . S
C190 O185 1.279 . S
C191 O192 1.315 . S
C191 O193 1.279 . S
O192 Cd184 2.223 . S
O192 C191 1.315 . S
O193 Cd183 2.240 . S
O193 C191 1.279 . S
O194 Cd184 2.297 . S
O194 C189 1.247 . S
O195 Cd184 2.439 . S
O195 C189 1.208 . S
O196 Cd197 2.223 . S
O196 C204 1.315 . S
Cd197 O196 2.223 . S
Cd197 O200 2.297 . S
Cd197 O201 2.439 . S
Cd197 O207 2.240 . S
Cd198 O199 2.240 . S
Cd198 O206 2.223 . S
Cd198 O208 2.297 . S
Cd198 O209 2.439 . S
O199 Cd198 2.240 . S
O199 C204 1.279 . S
O200 Cd197 2.297 . S
O200 C202 1.247 . S
O201 Cd197 2.439 . S
O201 C202 1.208 . S
C202 O200 1.247 . S
C202 O201 1.208 . S
C203 O208 1.247 . S
C203 O209 1.208 . S
C204 O196 1.315 . S
C204 O199 1.279 . S
C205 O206 1.315 . S
C205 O207 1.279 . S
O206 Cd198 2.223 . S
O206 C205 1.315 . S
O207 Cd197 2.240 . S
O207 C205 1.279 . S
O208 Cd198 2.297 . S
O208 C203 1.247 . S
O209 Cd198 2.439 . S
O209 C203 1.208 . S
O210 Cd211 2.223 . S
O210 C218 1.315 . S
Cd211 O210 2.223 . S
Cd211 O214 2.297 . S
Cd211 O215 2.439 . S
Cd211 O221 2.240 . S
Cd212 O213 2.240 . S
Cd212 O220 2.223 . S
Cd212 O222 2.297 1_554 S
Cd212 O223 2.439 1_554 S
O213 Cd212 2.240 . S
O213 C218 1.279 . S
O214 Cd211 2.297 . S
O214 C216 1.247 . S
O215 Cd211 2.439 . S
O215 C216 1.208 . S
C216 O214 1.247 . S
C216 O215 1.208 . S
C217 O222 1.247 . S
C217 O223 1.208 . S
C218 O210 1.315 . S
C218 O213 1.279 . S
C219 O220 1.315 . S
C219 O221 1.279 . S
O220 Cd212 2.223 . S
O220 C219 1.315 . S
O221 Cd211 2.240 . S
O221 C219 1.279 . S
O222 Cd212 2.297 1_556 S
O222 C217 1.247 . S
O223 Cd212 2.439 1_556 S
O223 C217 1.208 . S
O224 Cd225 2.223 . S
O224 C232 1.315 . S
Cd225 O224 2.223 . S
Cd225 O228 2.297 . S
Cd225 O229 2.439 . S
Cd225 O235 2.240 . S
Cd226 O227 2.240 . S
Cd226 O234 2.223 . S
Cd226 O236 2.297 . S
Cd226 O237 2.439 . S
O227 Cd226 2.240 . S
O227 C232 1.279 . S
O228 Cd225 2.297 . S
O228 C230 1.247 . S
O229 Cd225 2.439 . S
O229 C230 1.208 . S
C230 O228 1.247 . S
C230 O229 1.208 . S
C231 O236 1.247 . S
C231 O237 1.208 . S
C232 O224 1.315 . S
C232 O227 1.279 . S
C233 O234 1.315 . S
C233 O235 1.279 . S
O234 Cd226 2.223 . S
O234 C233 1.315 . S
O235 Cd225 2.240 . S
O235 C233 1.279 . S
O236 Cd226 2.297 . S
O236 C231 1.247 . S
O237 Cd226 2.439 . S
O237 C231 1.208 . S
O238 Cd239 2.223 . S
O238 C246 1.315 . S
Cd239 O238 2.223 . S
Cd239 O242 2.297 . S
Cd239 O243 2.439 . S
Cd239 O249 2.240 . S
Cd240 O241 2.240 . S
Cd240 O248 2.223 . S
Cd240 O250 2.297 1_554 S
Cd240 O251 2.439 1_554 S
O241 Cd240 2.240 . S
O241 C246 1.279 . S
O242 Cd239 2.297 . S
O242 C244 1.247 . S
O243 Cd239 2.439 . S
O243 C244 1.208 . S
C244 O242 1.247 . S
C244 O243 1.208 . S
C245 O250 1.247 . S
C245 O251 1.208 . S
C246 O238 1.315 . S
C246 O241 1.279 . S
C247 O248 1.315 . S
C247 O249 1.279 . S
O248 Cd240 2.223 . S
O248 C247 1.315 . S
O249 Cd239 2.240 . S
O249 C247 1.279 . S
O250 Cd240 2.297 1_556 S
O250 C245 1.247 . S
O251 Cd240 2.439 1_556 S
O251 C245 1.208 . S
O252 Cd253 2.223 . S
O252 C260 1.315 . S
Cd253 O252 2.223 . S
Cd253 O256 2.297 . S
Cd253 O257 2.439 . S
Cd253 O263 2.240 . S
Cd254 O255 2.240 . S
Cd254 O262 2.223 . S
Cd254 O264 2.297 . S
Cd254 O265 2.439 . S
O255 Cd254 2.240 . S
O255 C260 1.279 . S
O256 Cd253 2.297 . S
O256 C258 1.247 . S
O257 Cd253 2.439 . S
O257 C258 1.208 . S
C258 O256 1.247 . S
C258 O257 1.208 . S
C259 O264 1.247 . S
C259 O265 1.208 . S
C260 O252 1.315 . S
C260 O255 1.279 . S
C261 O262 1.315 . S
C261 O263 1.279 . S
O262 Cd254 2.223 . S
O262 C261 1.315 . S
O263 Cd253 2.240 . S
O263 C261 1.279 . S
O264 Cd254 2.297 . S
O264 C259 1.247 . S
O265 Cd254 2.439 . S
O265 C259 1.208 . S
O266 Cd267 2.223 . S
O266 C274 1.315 . S
Cd267 O266 2.223 . S
Cd267 O270 2.297 . S
Cd267 O271 2.439 . S
Cd267 O277 2.240 . S
Cd268 O269 2.240 . S
Cd268 O276 2.223 . S
Cd268 O278 2.297 . S
Cd268 O279 2.439 . S
O269 Cd268 2.240 . S
O269 C274 1.279 . S
O270 Cd267 2.297 . S
O270 C272 1.247 . S
O271 Cd267 2.439 . S
O271 C272 1.208 . S
C272 O270 1.247 . S
C272 O271 1.208 . S
C273 O278 1.247 . S
C273 O279 1.208 . S
C274 O266 1.315 . S
C274 O269 1.279 . S
C275 O276 1.315 . S
C275 O277 1.279 . S
O276 Cd268 2.223 . S
O276 C275 1.315 . S
O277 Cd267 2.240 . S
O277 C275 1.279 . S
O278 Cd268 2.297 . S
O278 C273 1.247 . S
O279 Cd268 2.439 . S
O279 C273 1.208 . S
O280 Cd281 2.223 . S
O280 C288 1.315 . S
Cd281 O280 2.223 . S
Cd281 O284 2.297 . S
Cd281 O285 2.439 . S
Cd281 O291 2.240 . S
Cd282 O283 2.240 . S
Cd282 O290 2.223 . S
Cd282 O292 2.297 . S
Cd282 O293 2.439 . S
O283 Cd282 2.240 . S
O283 C288 1.279 . S
O284 Cd281 2.297 . S
O284 C286 1.247 . S
O285 Cd281 2.439 . S
O285 C286 1.208 . S
C286 O284 1.247 . S
C286 O285 1.208 . S
C287 O292 1.247 . S
C287 O293 1.208 . S
C288 O280 1.315 . S
C288 O283 1.279 . S
C289 O290 1.315 . S
C289 O291 1.279 . S
O290 Cd282 2.223 . S
O290 C289 1.315 . S
O291 Cd281 2.240 . S
O291 C289 1.279 . S
O292 Cd282 2.297 . S
O292 C287 1.247 . S
O293 Cd282 2.439 . S
O293 C287 1.208 . S
O294 Cd295 2.223 . S
O294 C302 1.315 . S
Cd295 O294 2.223 . S
Cd295 O298 2.297 . S
Cd295 O299 2.439 . S
Cd295 O305 2.240 . S
Cd296 O297 2.240 . S
Cd296 O304 2.223 . S
Cd296 O306 2.297 1_556 S
Cd296 O307 2.439 1_556 S
O297 Cd296 2.240 . S
O297 C302 1.279 . S
O298 Cd295 2.297 . S
O298 C300 1.247 . S
O299 Cd295 2.439 . S
O299 C300 1.208 . S
C300 O298 1.247 . S
C300 O299 1.208 . S
C301 O306 1.247 . S
C301 O307 1.208 . S
C302 O294 1.315 . S
C302 O297 1.279 . S
C303 O304 1.315 . S
C303 O305 1.279 . S
O304 Cd296 2.223 . S
O304 C303 1.315 . S
O305 Cd295 2.240 . S
O305 C303 1.279 . S
O306 Cd296 2.297 1_554 S
O306 C301 1.247 . S
O307 Cd296 2.439 1_554 S
O307 C301 1.208 . S
O308 Cd309 2.223 . S
O308 C316 1.315 . S
Cd309 O308 2.223 . S
Cd309 O312 2.297 . S
Cd309 O313 2.439 . S
Cd309 O319 2.240 . S
Cd310 O311 2.240 . S
Cd310 O318 2.223 . S
Cd310 O320 2.297 . S
Cd310 O321 2.439 . S
O311 Cd310 2.240 . S
O311 C316 1.279 . S
O312 Cd309 2.297 . S
O312 C314 1.247 . S
O313 Cd309 2.439 . S
O313 C314 1.208 . S
C314 O312 1.247 . S
C314 O313 1.208 . S
C315 O320 1.247 . S
C315 O321 1.208 . S
C316 O308 1.315 . S
C316 O311 1.279 . S
C317 O318 1.315 . S
C317 O319 1.279 . S
O318 Cd310 2.223 . S
O318 C317 1.315 . S
O319 Cd309 2.240 . S
O319 C317 1.279 . S
O320 Cd310 2.297 . S
O320 C315 1.247 . S
O321 Cd310 2.439 . S
O321 C315 1.208 . S
O322 Cd323 2.223 . S
O322 C330 1.315 . S
Cd323 O322 2.223 . S
Cd323 O326 2.297 . S
Cd323 O327 2.439 . S
Cd323 O333 2.240 . S
Cd324 O325 2.240 . S
Cd324 O332 2.223 . S
Cd324 O334 2.297 . S
Cd324 O335 2.439 . S
O325 Cd324 2.240 . S
O325 C330 1.279 . S
O326 Cd323 2.297 . S
O326 C328 1.247 . S
O327 Cd323 2.439 . S
O327 C328 1.208 . S
C328 O326 1.247 . S
C328 O327 1.208 . S
C329 O334 1.247 . S
C329 O335 1.208 . S
C330 O322 1.315 . S
C330 O325 1.279 . S
C331 O332 1.315 . S
C331 O333 1.279 . S
O332 Cd324 2.223 . S
O332 C331 1.315 . S
O333 Cd323 2.240 . S
O333 C331 1.279 . S
O334 Cd324 2.297 . S
O334 C329 1.247 . S
O335 Cd324 2.439 . S
O335 C329 1.208 . S
O336 Cd337 2.223 . S
O336 C344 1.315 . S
Cd337 O336 2.223 . S
Cd337 O340 2.297 . S
Cd337 O341 2.439 . S
Cd337 O347 2.240 . S
Cd338 O339 2.240 . S
Cd338 O346 2.223 . S
Cd338 O348 2.297 . S
Cd338 O349 2.439 . S
O339 Cd338 2.240 . S
O339 C344 1.279 . S
O340 Cd337 2.297 . S
O340 C342 1.247 . S
O341 Cd337 2.439 . S
O341 C342 1.208 . S
C342 O340 1.247 . S
C342 O341 1.208 . S
C343 O348 1.247 . S
C343 O349 1.208 . S
C344 O336 1.315 . S
C344 O339 1.279 . S
C345 O346 1.315 . S
C345 O347 1.279 . S
O346 Cd338 2.223 . S
O346 C345 1.315 . S
O347 Cd337 2.240 . S
O347 C345 1.279 . S
O348 Cd338 2.297 . S
O348 C343 1.247 . S
O349 Cd338 2.439 . S
O349 C343 1.208 . S
O350 Cd351 2.223 . S
O350 C358 1.315 . S
Cd351 O350 2.223 . S
Cd351 O354 2.297 . S
Cd351 O355 2.439 . S
Cd351 O361 2.240 . S
Cd352 O353 2.240 . S
Cd352 O360 2.223 . S
Cd352 O362 2.297 1_556 S
Cd352 O363 2.439 1_556 S
O353 Cd352 2.240 . S
O353 C358 1.279 . S
O354 Cd351 2.297 . S
O354 C356 1.247 . S
O355 Cd351 2.439 . S
O355 C356 1.208 . S
C356 O354 1.247 . S
C356 O355 1.208 . S
C357 O362 1.247 . S
C357 O363 1.208 . S
C358 O350 1.315 . S
C358 O353 1.279 . S
C359 O360 1.315 . S
C359 O361 1.279 . S
O360 Cd352 2.223 . S
O360 C359 1.315 . S
O361 Cd351 2.240 . S
O361 C359 1.279 . S
O362 Cd352 2.297 1_554 S
O362 C357 1.247 . S
O363 Cd352 2.439 1_554 S
O363 C357 1.208 . S
O364 Cd365 2.223 . S
O364 C372 1.315 . S
Cd365 O364 2.223 . S
Cd365 O368 2.297 . S
Cd365 O369 2.439 . S
Cd365 O375 2.240 . S
Cd366 O367 2.240 . S
Cd366 O374 2.223 . S
Cd366 O376 2.297 . S
Cd366 O377 2.439 . S
O367 Cd366 2.240 . S
O367 C372 1.279 . S
O368 Cd365 2.297 . S
O368 C370 1.247 . S
O369 Cd365 2.439 . S
O369 C370 1.208 . S
C370 O368 1.247 . S
C370 O369 1.208 . S
C371 O376 1.247 . S
C371 O377 1.208 . S
C372 O364 1.315 . S
C372 O367 1.279 . S
C373 O374 1.315 . S
C373 O375 1.279 . S
O374 Cd366 2.223 . S
O374 C373 1.315 . S
O375 Cd365 2.240 . S
O375 C373 1.279 . S
O376 Cd366 2.297 . S
O376 C371 1.247 . S
O377 Cd366 2.439 . S
O377 C371 1.208 . S
O378 Cd379 2.223 . S
O378 C386 1.315 . S
Cd379 O378 2.223 . S
Cd379 O382 2.297 . S
Cd379 O383 2.439 . S
Cd379 O389 2.240 . S
Cd380 O381 2.240 . S
Cd380 O388 2.223 . S
Cd380 O390 2.297 . S
Cd380 O391 2.439 . S
O381 Cd380 2.240 . S
O381 C386 1.279 . S
O382 Cd379 2.297 . S
O382 C384 1.247 . S
O383 Cd379 2.439 . S
O383 C384 1.208 . S
C384 O382 1.247 . S
C384 O383 1.208 . S
C385 O390 1.247 . S
C385 O391 1.208 . S
C386 O378 1.315 . S
C386 O381 1.279 . S
C387 O388 1.315 . S
C387 O389 1.279 . S
O388 Cd380 2.223 . S
O388 C387 1.315 . S
O389 Cd379 2.240 . S
O389 C387 1.279 . S
O390 Cd380 2.297 . S
O390 C385 1.247 . S
O391 Cd380 2.439 . S
O391 C385 1.208 . S
O392 Cd393 2.223 . S
O392 C400 1.315 . S
Cd393 O392 2.223 . S
Cd393 O396 2.297 . S
Cd393 O397 2.439 . S
Cd393 O403 2.240 . S
Cd394 O395 2.240 . S
Cd394 O402 2.223 . S
Cd394 O404 2.297 . S
Cd394 O405 2.439 . S
O395 Cd394 2.240 . S
O395 C400 1.279 . S
O396 Cd393 2.297 . S
O396 C398 1.247 . S
O397 Cd393 2.439 . S
O397 C398 1.208 . S
C398 O396 1.247 . S
C398 O397 1.208 . S
C399 O404 1.247 . S
C399 O405 1.208 . S
C400 O392 1.315 . S
C400 O395 1.279 . S
C401 O402 1.315 . S
C401 O403 1.279 . S
O402 Cd394 2.223 . S
O402 C401 1.315 . S
O403 Cd393 2.240 . S
O403 C401 1.279 . S
O404 Cd394 2.297 . S
O404 C399 1.247 . S
O405 Cd394 2.439 . S
O405 C399 1.208 . S
O406 Cd407 2.223 . S
O406 C414 1.315 . S
Cd407 O406 2.223 . S
Cd407 O410 2.297 . S
Cd407 O411 2.439 . S
Cd407 O417 2.240 . S
Cd408 O409 2.240 . S
Cd408 O416 2.223 . S
Cd408 O418 2.297 1_554 S
Cd408 O419 2.439 1_554 S
O409 Cd408 2.240 . S
O409 C414 1.279 . S
O410 Cd407 2.297 . S
O410 C412 1.247 . S
O411 Cd407 2.439 . S
O411 C412 1.208 . S
C412 O410 1.247 . S
C412 O411 1.208 . S
C413 O418 1.247 . S
C413 O419 1.208 . S
C414 O406 1.315 . S
C414 O409 1.279 . S
C415 O416 1.315 . S
C415 O417 1.279 . S
O416 Cd408 2.223 . S
O416 C415 1.315 . S
O417 Cd407 2.240 . S
O417 C415 1.279 . S
O418 Cd408 2.297 1_556 S
O418 C413 1.247 . S
O419 Cd408 2.439 1_556 S
O419 C413 1.208 . S
O420 Cd421 2.223 . S
O420 C428 1.315 . S
Cd421 O420 2.223 . S
Cd421 O424 2.297 . S
Cd421 O425 2.439 . S
Cd421 O431 2.240 . S
Cd422 O423 2.240 . S
Cd422 O430 2.223 . S
Cd422 O432 2.297 . S
Cd422 O433 2.439 . S
O423 Cd422 2.240 . S
O423 C428 1.279 . S
O424 Cd421 2.297 . S
O424 C426 1.247 . S
O425 Cd421 2.439 . S
O425 C426 1.208 . S
C426 O424 1.247 . S
C426 O425 1.208 . S
C427 O432 1.247 . S
C427 O433 1.208 . S
C428 O420 1.315 . S
C428 O423 1.279 . S
C429 O430 1.315 . S
C429 O431 1.279 . S
O430 Cd422 2.223 . S
O430 C429 1.315 . S
O431 Cd421 2.240 . S
O431 C429 1.279 . S
O432 Cd422 2.297 . S
O432 C427 1.247 . S
O433 Cd422 2.439 . S
O433 C427 1.208 . S
O434 Cd435 2.223 . S
O434 C442 1.315 . S
Cd435 O434 2.223 . S
Cd435 O438 2.297 . S
Cd435 O439 2.439 . S
Cd435 O445 2.240 . S
Cd436 O437 2.240 . S
Cd436 O444 2.223 . S
Cd436 O446 2.297 . S
Cd436 O447 2.439 . S
O437 Cd436 2.240 . S
O437 C442 1.279 . S
O438 Cd435 2.297 . S
O438 C440 1.247 . S
O439 Cd435 2.439 . S
O439 C440 1.208 . S
C440 O438 1.247 . S
C440 O439 1.208 . S
C441 O446 1.247 . S
C441 O447 1.208 . S
C442 O434 1.315 . S
C442 O437 1.279 . S
C443 O444 1.315 . S
C443 O445 1.279 . S
O444 Cd436 2.223 . S
O444 C443 1.315 . S
O445 Cd435 2.240 . S
O445 C443 1.279 . S
O446 Cd436 2.297 . S
O446 C441 1.247 . S
O447 Cd436 2.439 . S
O447 C441 1.208 . S
H448 C456 0.929 . S
H449 C458 0.930 . S
H450 C460 0.930 . S
H451 C463 0.929 . S
H452 C466 0.930 . S
H453 C468 0.960 . S
H454 C468 0.960 . S
H455 C468 0.960 . S
C456 H448 0.929 . S
C456 C457 1.377 . S
C456 C458 1.384 . S
C457 C456 1.377 . S
C457 C463 1.390 . S
C458 H449 0.930 . S
C458 C456 1.384 . S
C458 C459 1.372 . S
C459 C458 1.372 . S
C459 C460 1.400 . S
C459 C464 1.490 . S
C460 H450 0.930 . S
C460 C459 1.400 . S
C460 C463 1.386 . S
H461 C477 0.930 . S
H462 C478 0.931 . S
C463 H451 0.929 . S
C463 C457 1.390 . S
C463 C460 1.386 . S
C464 C459 1.490 . S
C464 C466 1.395 . S
C464 C467 1.403 . S
H465 C471 0.930 . S
C466 H452 0.930 . S
C466 C464 1.395 . S
C466 C469 1.403 . S
C467 C464 1.403 . S
C467 C468 1.524 . S
C467 C471 1.400 . S
C468 H453 0.960 . S
C468 H454 0.960 . S
C468 H455 0.960 . S
C468 C467 1.524 . S
C469 C466 1.403 . S
C469 C470 1.392 . S
C469 C473 1.495 . S
C470 C469 1.392 . S
C470 C471 1.385 . S
C470 C472 1.478 . S
C471 H465 0.930 . S
C471 C467 1.400 . S
C471 C470 1.385 . S
C472 C470 1.478 . S
C472 C474 1.381 . S
C472 C478 1.383 . S
C473 C469 1.495 . S
C473 H479 0.959 . S
C473 H480 0.961 . S
C473 H481 0.960 . S
C474 C472 1.381 . S
C474 C475 1.394 . S
C474 H482 0.930 . S
C475 C474 1.394 . S
C475 C476 1.383 . S
C475 H483 0.929 . S
C476 C475 1.383 . S
C476 C477 1.377 . S
C477 H461 0.930 . S
C477 C476 1.377 . S
C477 C478 1.379 . S
C478 H462 0.931 . S
C478 C472 1.383 . S
C478 C477 1.379 . S
H479 C473 0.959 . S
H480 C473 0.961 . S
H481 C473 0.960 . S
H482 C474 0.930 . S
H483 C475 0.929 . S
H484 C492 0.929 . S
H485 C494 0.930 . S
H486 C496 0.930 . S
H487 C499 0.929 . S
H488 C502 0.930 . S
H489 C504 0.960 . S
H490 C504 0.960 . S
H491 C504 0.960 . S
C492 H484 0.929 . S
C492 C493 1.377 1_455 S
C492 C494 1.384 . S
C493 C492 1.377 1_655 S
C493 C499 1.390 . S
C494 H485 0.930 . S
C494 C492 1.384 . S
C494 C495 1.372 . S
C495 C494 1.372 . S
C495 C496 1.400 . S
C495 C500 1.490 . S
C496 H486 0.930 . S
C496 C495 1.400 . S
C496 C499 1.386 1_455 S
H497 C513 0.930 . S
H498 C514 0.931 . S
C499 H487 0.929 . S
C499 C493 1.390 . S
C499 C496 1.386 1_655 S
C500 C495 1.490 . S
C500 C502 1.395 . S
C500 C503 1.403 . S
H501 C507 0.930 . S
C502 H488 0.930 . S
C502 C500 1.395 . S
C502 C505 1.403 . S
C503 C500 1.403 . S
C503 C504 1.524 . S
C503 C507 1.400 . S
C504 H489 0.960 . S
C504 H490 0.960 . S
C504 H491 0.960 . S
C504 C503 1.524 . S
C505 C502 1.403 . S
C505 C506 1.392 . S
C505 C509 1.495 . S
C506 C505 1.392 . S
C506 C507 1.385 . S
C506 C508 1.478 . S
C507 H501 0.930 . S
C507 C503 1.400 . S
C507 C506 1.385 . S
C508 C506 1.478 . S
C508 C510 1.381 . S
C508 C514 1.383 . S
C509 C505 1.495 . S
C509 H515 0.959 . S
C509 H516 0.961 . S
C509 H517 0.960 . S
C510 C508 1.381 . S
C510 C511 1.394 . S
C510 H518 0.930 . S
C511 C510 1.394 . S
C511 C512 1.383 . S
C511 H519 0.929 . S
C512 C511 1.383 . S
C512 C513 1.377 . S
C513 H497 0.930 . S
C513 C512 1.377 . S
C513 C514 1.379 . S
C514 H498 0.931 . S
C514 C508 1.383 . S
C514 C513 1.379 . S
H515 C509 0.959 . S
H516 C509 0.961 . S
H517 C509 0.960 . S
H518 C510 0.930 . S
H519 C511 0.929 . S
H520 C528 0.929 . S
H521 C530 0.930 . S
H522 C532 0.930 . S
H523 C535 0.929 . S
H524 C538 0.930 . S
H525 C540 0.960 . S
H526 C540 0.960 . S
H527 C540 0.960 . S
C528 H520 0.929 . S
C528 C529 1.377 . S
C528 C530 1.384 . S
C529 C528 1.377 . S
C529 C535 1.390 . S
C530 H521 0.930 . S
C530 C528 1.384 . S
C530 C531 1.372 . S
C531 C530 1.372 . S
C531 C532 1.400 . S
C531 C536 1.490 . S
C532 H522 0.930 . S
C532 C531 1.400 . S
C532 C535 1.386 . S
H533 C549 0.930 . S
H534 C550 0.931 . S
C535 H523 0.929 . S
C535 C529 1.390 . S
C535 C532 1.386 . S
C536 C531 1.490 . S
C536 C538 1.395 . S
C536 C539 1.403 . S
H537 C543 0.930 . S
C538 H524 0.930 . S
C538 C536 1.395 . S
C538 C541 1.403 . S
C539 C536 1.403 . S
C539 C540 1.524 . S
C539 C543 1.400 . S
C540 H525 0.960 . S
C540 H526 0.960 . S
C540 H527 0.960 . S
C540 C539 1.524 . S
C541 C538 1.403 . S
C541 C542 1.392 . S
C541 C545 1.495 . S
C542 C541 1.392 . S
C542 C543 1.385 . S
C542 C544 1.478 . S
C543 H537 0.930 . S
C543 C539 1.400 . S
C543 C542 1.385 . S
C544 C542 1.478 . S
C544 C546 1.381 . S
C544 C550 1.383 . S
C545 C541 1.495 . S
C545 H551 0.959 . S
C545 H552 0.961 . S
C545 H553 0.960 . S
C546 C544 1.381 . S
C546 C547 1.394 . S
C546 H554 0.930 . S
C547 C546 1.394 . S
C547 C548 1.383 . S
C547 H555 0.929 . S
C548 C547 1.383 . S
C548 C549 1.377 . S
C549 H533 0.930 . S
C549 C548 1.377 . S
C549 C550 1.379 . S
C550 H534 0.931 . S
C550 C544 1.383 . S
C550 C549 1.379 . S
H551 C545 0.959 . S
H552 C545 0.961 . S
H553 C545 0.960 . S
H554 C546 0.930 . S
H555 C547 0.929 . S
H556 C564 0.929 . S
H557 C566 0.930 . S
H558 C568 0.930 . S
H559 C571 0.929 . S
H560 C574 0.930 . S
H561 C576 0.960 . S
H562 C576 0.960 . S
H563 C576 0.960 . S
C564 H556 0.929 . S
C564 C565 1.377 . S
C564 C566 1.384 . S
C565 C564 1.377 . S
C565 C571 1.390 . S
C566 H557 0.930 . S
C566 C564 1.384 . S
C566 C567 1.372 . S
C567 C566 1.372 . S
C567 C568 1.400 . S
C567 C572 1.490 . S
C568 H558 0.930 . S
C568 C567 1.400 . S
C568 C571 1.386 . S
H569 C585 0.930 . S
H570 C586 0.931 . S
C571 H559 0.929 . S
C571 C565 1.390 . S
C571 C568 1.386 . S
C572 C567 1.490 . S
C572 C574 1.395 . S
C572 C575 1.403 . S
H573 C579 0.930 . S
C574 H560 0.930 . S
C574 C572 1.395 . S
C574 C577 1.403 . S
C575 C572 1.403 . S
C575 C576 1.524 . S
C575 C579 1.400 . S
C576 H561 0.960 . S
C576 H562 0.960 . S
C576 H563 0.960 . S
C576 C575 1.524 . S
C577 C574 1.403 . S
C577 C578 1.392 . S
C577 C581 1.495 . S
C578 C577 1.392 . S
C578 C579 1.385 . S
C578 C580 1.478 . S
C579 H573 0.930 . S
C579 C575 1.400 . S
C579 C578 1.385 . S
C580 C578 1.478 . S
C580 C582 1.381 . S
C580 C586 1.383 . S
C581 C577 1.495 . S
C581 H587 0.959 . S
C581 H588 0.961 . S
C581 H589 0.960 . S
C582 C580 1.381 . S
C582 C583 1.394 . S
C582 H590 0.930 . S
C583 C582 1.394 . S
C583 C584 1.383 . S
C583 H591 0.929 . S
C584 C583 1.383 . S
C584 C585 1.377 . S
C585 H569 0.930 . S
C585 C584 1.377 . S
C585 C586 1.379 . S
C586 H570 0.931 . S
C586 C580 1.383 . S
C586 C585 1.379 . S
H587 C581 0.959 . S
H588 C581 0.961 . S
H589 C581 0.960 . S
H590 C582 0.930 . S
H591 C583 0.929 . S
H592 C600 0.929 . S
H593 C602 0.930 . S
H594 C604 0.930 . S
H595 C607 0.929 . S
H596 C610 0.930 . S
H597 C612 0.960 . S
H598 C612 0.960 . S
H599 C612 0.960 . S
C600 H592 0.929 . S
C600 C601 1.377 . S
C600 C602 1.384 . S
C601 C600 1.377 . S
C601 C607 1.390 . S
C602 H593 0.930 . S
C602 C600 1.384 . S
C602 C603 1.372 . S
C603 C602 1.372 . S
C603 C604 1.400 . S
C603 C608 1.490 . S
C604 H594 0.930 . S
C604 C603 1.400 . S
C604 C607 1.386 . S
H605 C621 0.930 . S
H606 C622 0.931 . S
C607 H595 0.929 . S
C607 C601 1.390 . S
C607 C604 1.386 . S
C608 C603 1.490 . S
C608 C610 1.395 . S
C608 C611 1.403 . S
H609 C615 0.930 . S
C610 H596 0.930 . S
C610 C608 1.395 . S
C610 C613 1.403 . S
C611 C608 1.403 . S
C611 C612 1.524 . S
C611 C615 1.400 . S
C612 H597 0.960 . S
C612 H598 0.960 . S
C612 H599 0.960 . S
C612 C611 1.524 . S
C613 C610 1.403 . S
C613 C614 1.392 . S
C613 C617 1.495 . S
C614 C613 1.392 . S
C614 C615 1.385 . S
C614 C616 1.478 . S
C615 H609 0.930 . S
C615 C611 1.400 . S
C615 C614 1.385 . S
C616 C614 1.478 . S
C616 C618 1.381 . S
C616 C622 1.383 . S
C617 C613 1.495 . S
C617 H623 0.959 . S
C617 H624 0.961 . S
C617 H625 0.960 . S
C618 C616 1.381 . S
C618 C619 1.394 . S
C618 H626 0.930 . S
C619 C618 1.394 . S
C619 C620 1.383 . S
C619 H627 0.929 . S
C620 C619 1.383 . S
C620 C621 1.377 . S
C621 H605 0.930 . S
C621 C620 1.377 . S
C621 C622 1.379 . S
C622 H606 0.931 . S
C622 C616 1.383 . S
C622 C621 1.379 . S
H623 C617 0.959 . S
H624 C617 0.961 . S
H625 C617 0.960 . S
H626 C618 0.930 . S
H627 C619 0.929 . S
H628 C636 0.929 . S
H629 C638 0.930 . S
H630 C640 0.930 . S
H631 C643 0.929 . S
H632 C646 0.930 . S
H633 C648 0.960 . S
H634 C648 0.960 . S
H635 C648 0.960 . S
C636 H628 0.929 . S
C636 C637 1.377 . S
C636 C638 1.384 . S
C637 C636 1.377 . S
C637 C643 1.390 . S
C638 H629 0.930 . S
C638 C636 1.384 . S
C638 C639 1.372 . S
C639 C638 1.372 . S
C639 C640 1.400 . S
C639 C644 1.490 . S
C640 H630 0.930 . S
C640 C639 1.400 . S
C640 C643 1.386 . S
H641 C657 0.930 . S
H642 C658 0.931 . S
C643 H631 0.929 . S
C643 C637 1.390 . S
C643 C640 1.386 . S
C644 C639 1.490 . S
C644 C646 1.395 . S
C644 C647 1.403 . S
H645 C651 0.930 . S
C646 H632 0.930 . S
C646 C644 1.395 . S
C646 C649 1.403 . S
C647 C644 1.403 . S
C647 C648 1.524 . S
C647 C651 1.400 . S
C648 H633 0.960 . S
C648 H634 0.960 . S
C648 H635 0.960 . S
C648 C647 1.524 . S
C649 C646 1.403 . S
C649 C650 1.392 . S
C649 C653 1.495 . S
C650 C649 1.392 . S
C650 C651 1.385 . S
C650 C652 1.478 . S
C651 H645 0.930 . S
C651 C647 1.400 . S
C651 C650 1.385 . S
C652 C650 1.478 . S
C652 C654 1.381 . S
C652 C658 1.383 . S
C653 C649 1.495 . S
C653 H659 0.959 . S
C653 H660 0.961 . S
C653 H661 0.960 . S
C654 C652 1.381 . S
C654 C655 1.394 . S
C654 H662 0.930 . S
C655 C654 1.394 . S
C655 C656 1.383 . S
C655 H663 0.929 . S
C656 C655 1.383 . S
C656 C657 1.377 . S
C657 H641 0.930 . S
C657 C656 1.377 . S
C657 C658 1.379 . S
C658 H642 0.931 . S
C658 C652 1.383 . S
C658 C657 1.379 . S
H659 C653 0.959 . S
H660 C653 0.961 . S
H661 C653 0.960 . S
H662 C654 0.930 . S
H663 C655 0.929 . S
H664 C672 0.929 . S
H665 C674 0.930 . S
H666 C676 0.930 . S
H667 C679 0.929 . S
H668 C682 0.930 . S
H669 C684 0.960 . S
H670 C684 0.960 . S
H671 C684 0.960 . S
C672 H664 0.929 . S
C672 C673 1.377 . S
C672 C674 1.384 . S
C673 C672 1.377 . S
C673 C679 1.390 . S
C674 H665 0.930 . S
C674 C672 1.384 . S
C674 C675 1.372 . S
C675 C674 1.372 . S
C675 C676 1.400 . S
C675 C680 1.490 . S
C676 H666 0.930 . S
C676 C675 1.400 . S
C676 C679 1.386 . S
H677 C693 0.930 . S
H678 C694 0.931 . S
C679 H667 0.929 . S
C679 C673 1.390 . S
C679 C676 1.386 . S
C680 C675 1.490 . S
C680 C682 1.395 . S
C680 C683 1.403 . S
H681 C687 0.930 . S
C682 H668 0.930 . S
C682 C680 1.395 . S
C682 C685 1.403 . S
C683 C680 1.403 . S
C683 C684 1.524 . S
C683 C687 1.400 . S
C684 H669 0.960 . S
C684 H670 0.960 . S
C684 H671 0.960 . S
C684 C683 1.524 . S
C685 C682 1.403 . S
C685 C686 1.392 . S
C685 C689 1.495 . S
C686 C685 1.392 . S
C686 C687 1.385 . S
C686 C688 1.478 . S
C687 H681 0.930 . S
C687 C683 1.400 . S
C687 C686 1.385 . S
C688 C686 1.478 . S
C688 C690 1.381 . S
C688 C694 1.383 . S
C689 C685 1.495 . S
C689 H695 0.959 . S
C689 H696 0.961 . S
C689 H697 0.960 . S
C690 C688 1.381 . S
C690 C691 1.394 . S
C690 H698 0.930 . S
C691 C690 1.394 . S
C691 C692 1.383 . S
C691 H699 0.929 . S
C692 C691 1.383 . S
C692 C693 1.377 . S
C693 H677 0.930 . S
C693 C692 1.377 . S
C693 C694 1.379 . S
C694 H678 0.931 . S
C694 C688 1.383 . S
C694 C693 1.379 . S
H695 C689 0.959 . S
H696 C689 0.961 . S
H697 C689 0.960 . S
H698 C690 0.930 . S
H699 C691 0.929 . S
H700 C708 0.929 . S
H701 C710 0.930 . S
H702 C712 0.930 . S
H703 C715 0.929 . S
H704 C718 0.930 . S
H705 C720 0.960 . S
H706 C720 0.960 . S
H707 C720 0.960 . S
C708 H700 0.929 . S
C708 C709 1.377 . S
C708 C710 1.384 . S
C709 C708 1.377 . S
C709 C715 1.390 . S
C710 H701 0.930 . S
C710 C708 1.384 . S
C710 C711 1.372 . S
C711 C710 1.372 . S
C711 C712 1.400 . S
C711 C716 1.490 . S
C712 H702 0.930 . S
C712 C711 1.400 . S
C712 C715 1.386 . S
H713 C729 0.930 . S
H714 C730 0.931 . S
C715 H703 0.929 . S
C715 C709 1.390 . S
C715 C712 1.386 . S
C716 C711 1.490 . S
C716 C718 1.395 . S
C716 C719 1.403 . S
H717 C723 0.930 . S
C718 H704 0.930 . S
C718 C716 1.395 . S
C718 C721 1.403 . S
C719 C716 1.403 . S
C719 C720 1.524 . S
C719 C723 1.400 . S
C720 H705 0.960 . S
C720 H706 0.960 . S
C720 H707 0.960 . S
C720 C719 1.524 . S
C721 C718 1.403 . S
C721 C722 1.392 . S
C721 C725 1.495 . S
C722 C721 1.392 . S
C722 C723 1.385 . S
C722 C724 1.478 . S
C723 H717 0.930 . S
C723 C719 1.400 . S
C723 C722 1.385 . S
C724 C722 1.478 . S
C724 C726 1.381 . S
C724 C730 1.383 . S
C725 C721 1.495 . S
C725 H731 0.959 . S
C725 H732 0.961 . S
C725 H733 0.960 . S
C726 C724 1.381 . S
C726 C727 1.394 1_455 S
C726 H734 0.930 . S
C727 C726 1.394 1_655 S
C727 C728 1.383 . S
C727 H735 0.929 . S
C728 C727 1.383 . S
C728 C729 1.377 1_655 S
C729 H713 0.930 . S
C729 C728 1.377 1_455 S
C729 C730 1.379 . S
C730 H714 0.931 . S
C730 C724 1.383 . S
C730 C729 1.379 . S
H731 C725 0.959 . S
H732 C725 0.961 . S
H733 C725 0.960 . S
H734 C726 0.930 . S
H735 C727 0.929 . S
H736 C744 0.929 . S
H737 C746 0.930 . S
H738 C748 0.930 . S
H739 C751 0.929 . S
H740 C754 0.930 . S
H741 C756 0.960 . S
H742 C756 0.960 . S
H743 C756 0.960 . S
C744 H736 0.929 . S
C744 C745 1.377 . S
C744 C746 1.384 . S
C745 C744 1.377 . S
C745 C751 1.390 . S
C746 H737 0.930 . S
C746 C744 1.384 . S
C746 C747 1.372 . S
C747 C746 1.372 . S
C747 C748 1.400 . S
C747 C752 1.490 . S
C748 H738 0.930 . S
C748 C747 1.400 . S
C748 C751 1.386 . S
H749 C765 0.930 . S
H750 C766 0.931 . S
C751 H739 0.929 . S
C751 C745 1.390 . S
C751 C748 1.386 . S
C752 C747 1.490 . S
C752 C754 1.395 . S
C752 C755 1.403 . S
H753 C759 0.930 . S
C754 H740 0.930 . S
C754 C752 1.395 . S
C754 C757 1.403 . S
C755 C752 1.403 . S
C755 C756 1.524 . S
C755 C759 1.400 . S
C756 H741 0.960 . S
C756 H742 0.960 . S
C756 H743 0.960 . S
C756 C755 1.524 . S
C757 C754 1.403 . S
C757 C758 1.392 . S
C757 C761 1.495 . S
C758 C757 1.392 . S
C758 C759 1.385 . S
C758 C760 1.478 . S
C759 H753 0.930 . S
C759 C755 1.400 . S
C759 C758 1.385 . S
C760 C758 1.478 . S
C760 C762 1.381 . S
C760 C766 1.383 . S
C761 C757 1.495 . S
C761 H767 0.959 . S
C761 H768 0.961 . S
C761 H769 0.960 . S
C762 C760 1.381 . S
C762 C763 1.394 . S
C762 H770 0.930 . S
C763 C762 1.394 . S
C763 C764 1.383 . S
C763 H771 0.929 . S
C764 C763 1.383 . S
C764 C765 1.377 . S
C765 H749 0.930 . S
C765 C764 1.377 . S
C765 C766 1.379 . S
C766 H750 0.931 . S
C766 C760 1.383 . S
C766 C765 1.379 . S
H767 C761 0.959 . S
H768 C761 0.961 . S
H769 C761 0.960 . S
H770 C762 0.930 . S
H771 C763 0.929 . S
H772 C780 0.929 . S
H773 C782 0.930 . S
H774 C784 0.930 . S
H775 C787 0.929 . S
H776 C790 0.930 . S
H777 C792 0.960 . S
H778 C792 0.960 . S
H779 C792 0.960 . S
C780 H772 0.929 . S
C780 C781 1.377 . S
C780 C782 1.384 1_455 S
C781 C780 1.377 . S
C781 C787 1.390 1_455 S
C782 H773 0.930 . S
C782 C780 1.384 1_655 S
C782 C783 1.372 . S
C783 C782 1.372 . S
C783 C784 1.400 . S
C783 C788 1.490 . S
C784 H774 0.930 . S
C784 C783 1.400 . S
C784 C787 1.386 . S
H785 C801 0.930 . S
H786 C802 0.931 . S
C787 H775 0.929 . S
C787 C781 1.390 1_655 S
C787 C784 1.386 . S
C788 C783 1.490 . S
C788 C790 1.395 . S
C788 C791 1.403 . S
H789 C795 0.930 . S
C790 H776 0.930 . S
C790 C788 1.395 . S
C790 C793 1.403 . S
C791 C788 1.403 . S
C791 C792 1.524 . S
C791 C795 1.400 . S
C792 H777 0.960 . S
C792 H778 0.960 . S
C792 H779 0.960 . S
C792 C791 1.524 . S
C793 C790 1.403 . S
C793 C794 1.392 . S
C793 C797 1.495 . S
C794 C793 1.392 . S
C794 C795 1.385 . S
C794 C796 1.478 . S
C795 H789 0.930 . S
C795 C791 1.400 . S
C795 C794 1.385 . S
C796 C794 1.478 . S
C796 C798 1.381 . S
C796 C802 1.383 . S
C797 C793 1.495 . S
C797 H803 0.959 . S
C797 H804 0.961 . S
C797 H805 0.960 . S
C798 C796 1.381 . S
C798 C799 1.394 . S
C798 H806 0.930 . S
C799 C798 1.394 . S
C799 C800 1.383 . S
C799 H807 0.929 . S
C800 C799 1.383 . S
C800 C801 1.377 . S
C801 H785 0.930 . S
C801 C800 1.377 . S
C801 C802 1.379 . S
C802 H786 0.931 . S
C802 C796 1.383 . S
C802 C801 1.379 . S
H803 C797 0.959 . S
H804 C797 0.961 . S
H805 C797 0.960 . S
H806 C798 0.930 . S
H807 C799 0.929 . S
H808 C816 0.929 . S
H809 C818 0.930 . S
H810 C820 0.930 . S
H811 C823 0.929 . S
H812 C826 0.930 . S
H813 C828 0.960 . S
H814 C828 0.960 . S
H815 C828 0.960 . S
C816 H808 0.929 . S
C816 C817 1.377 . S
C816 C818 1.384 . S
C817 C816 1.377 . S
C817 C823 1.390 . S
C818 H809 0.930 . S
C818 C816 1.384 . S
C818 C819 1.372 . S
C819 C818 1.372 . S
C819 C820 1.400 . S
C819 C824 1.490 . S
C820 H810 0.930 . S
C820 C819 1.400 . S
C820 C823 1.386 . S
H821 C837 0.930 . S
H822 C838 0.931 . S
C823 H811 0.929 . S
C823 C817 1.390 . S
C823 C820 1.386 . S
C824 C819 1.490 . S
C824 C826 1.395 . S
C824 C827 1.403 . S
H825 C831 0.930 . S
C826 H812 0.930 . S
C826 C824 1.395 . S
C826 C829 1.403 . S
C827 C824 1.403 . S
C827 C828 1.524 . S
C827 C831 1.400 . S
C828 H813 0.960 . S
C828 H814 0.960 . S
C828 H815 0.960 . S
C828 C827 1.524 . S
C829 C826 1.403 . S
C829 C830 1.392 . S
C829 C833 1.495 . S
C830 C829 1.392 . S
C830 C831 1.385 . S
C830 C832 1.478 . S
C831 H825 0.930 . S
C831 C827 1.400 . S
C831 C830 1.385 . S
C832 C830 1.478 . S
C832 C834 1.381 . S
C832 C838 1.383 . S
C833 C829 1.495 . S
C833 H839 0.959 . S
C833 H840 0.961 . S
C833 H841 0.960 . S
C834 C832 1.381 . S
C834 C835 1.394 . S
C834 H842 0.930 . S
C835 C834 1.394 . S
C835 C836 1.383 . S
C835 H843 0.929 . S
C836 C835 1.383 . S
C836 C837 1.377 . S
C837 H821 0.930 . S
C837 C836 1.377 . S
C837 C838 1.379 . S
C838 H822 0.931 . S
C838 C832 1.383 . S
C838 C837 1.379 . S
H839 C833 0.959 . S
H840 C833 0.961 . S
H841 C833 0.960 . S
H842 C834 0.930 . S
H843 C835 0.929 . S
H844 C852 0.929 . S
H845 C854 0.930 . S
H846 C856 0.930 . S
H847 C859 0.929 . S
H848 C862 0.930 . S
H849 C864 0.960 . S
H850 C864 0.960 . S
H851 C864 0.960 . S
C852 H844 0.929 . S
C852 C853 1.377 . S
C852 C854 1.384 . S
C853 C852 1.377 . S
C853 C859 1.390 . S
C854 H845 0.930 . S
C854 C852 1.384 . S
C854 C855 1.372 . S
C855 C854 1.372 . S
C855 C856 1.400 . S
C855 C860 1.490 . S
C856 H846 0.930 . S
C856 C855 1.400 . S
C856 C859 1.386 . S
H857 C873 0.930 . S
H858 C874 0.931 . S
C859 H847 0.929 . S
C859 C853 1.390 . S
C859 C856 1.386 . S
C860 C855 1.490 . S
C860 C862 1.395 . S
C860 C863 1.403 . S
H861 C867 0.930 . S
C862 H848 0.930 . S
C862 C860 1.395 . S
C862 C865 1.403 . S
C863 C860 1.403 . S
C863 C864 1.524 . S
C863 C867 1.400 . S
C864 H849 0.960 . S
C864 H850 0.960 . S
C864 H851 0.960 . S
C864 C863 1.524 . S
C865 C862 1.403 . S
C865 C866 1.392 . S
C865 C869 1.495 . S
C866 C865 1.392 . S
C866 C867 1.385 . S
C866 C868 1.478 . S
C867 H861 0.930 . S
C867 C863 1.400 . S
C867 C866 1.385 . S
C868 C866 1.478 . S
C868 C870 1.381 . S
C868 C874 1.383 . S
C869 C865 1.495 . S
C869 H875 0.959 . S
C869 H876 0.961 . S
C869 H877 0.960 . S
C870 C868 1.381 . S
C870 C871 1.394 . S
C870 H878 0.930 . S
C871 C870 1.394 . S
C871 C872 1.383 . S
C871 H879 0.929 . S
C872 C871 1.383 . S
C872 C873 1.377 . S
C873 H857 0.930 . S
C873 C872 1.377 . S
C873 C874 1.379 . S
C874 H858 0.931 . S
C874 C868 1.383 . S
C874 C873 1.379 . S
H875 C869 0.959 . S
H876 C869 0.961 . S
H877 C869 0.960 . S
H878 C870 0.930 . S
H879 C871 0.929 . S
H880 C888 0.929 . S
H881 C890 0.930 . S
H882 C892 0.930 . S
H883 C895 0.929 . S
H884 C898 0.930 . S
H885 C900 0.960 . S
H886 C900 0.960 . S
H887 C900 0.960 . S
C888 H880 0.929 . S
C888 C889 1.377 . S
C888 C890 1.384 . S
C889 C888 1.377 . S
C889 C895 1.390 . S
C890 H881 0.930 . S
C890 C888 1.384 . S
C890 C891 1.372 . S
C891 C890 1.372 . S
C891 C892 1.400 . S
C891 C896 1.490 . S
C892 H882 0.930 . S
C892 C891 1.400 . S
C892 C895 1.386 . S
H893 C909 0.930 . S
H894 C910 0.931 . S
C895 H883 0.929 . S
C895 C889 1.390 . S
C895 C892 1.386 . S
C896 C891 1.490 . S
C896 C898 1.395 . S
C896 C899 1.403 . S
H897 C903 0.930 . S
C898 H884 0.930 . S
C898 C896 1.395 . S
C898 C901 1.403 . S
C899 C896 1.403 . S
C899 C900 1.524 . S
C899 C903 1.400 . S
C900 H885 0.960 . S
C900 H886 0.960 . S
C900 H887 0.960 . S
C900 C899 1.524 . S
C901 C898 1.403 . S
C901 C902 1.392 . S
C901 C905 1.495 . S
C902 C901 1.392 . S
C902 C903 1.385 . S
C902 C904 1.478 . S
C903 H897 0.930 . S
C903 C899 1.400 . S
C903 C902 1.385 . S
C904 C902 1.478 . S
C904 C906 1.381 . S
C904 C910 1.383 . S
C905 C901 1.495 . S
C905 H911 0.959 . S
C905 H912 0.961 . S
C905 H913 0.960 . S
C906 C904 1.381 . S
C906 C907 1.394 . S
C906 H914 0.930 . S
C907 C906 1.394 . S
C907 C908 1.383 . S
C907 H915 0.929 . S
C908 C907 1.383 . S
C908 C909 1.377 . S
C909 H893 0.930 . S
C909 C908 1.377 . S
C909 C910 1.379 . S
C910 H894 0.931 . S
C910 C904 1.383 . S
C910 C909 1.379 . S
H911 C905 0.959 . S
H912 C905 0.961 . S
H913 C905 0.960 . S
H914 C906 0.930 . S
H915 C907 0.929 . S
H916 C924 0.929 . S
H917 C926 0.930 . S
H918 C928 0.930 . S
H919 C931 0.929 . S
H920 C934 0.930 . S
H921 C936 0.960 . S
H922 C936 0.960 . S
H923 C936 0.960 . S
C924 H916 0.929 . S
C924 C925 1.377 . S
C924 C926 1.384 . S
C925 C924 1.377 . S
C925 C931 1.390 . S
C926 H917 0.930 . S
C926 C924 1.384 . S
C926 C927 1.372 . S
C927 C926 1.372 . S
C927 C928 1.400 . S
C927 C932 1.490 . S
C928 H918 0.930 . S
C928 C927 1.400 . S
C928 C931 1.386 . S
H929 C945 0.930 . S
H930 C946 0.931 . S
C931 H919 0.929 . S
C931 C925 1.390 . S
C931 C928 1.386 . S
C932 C927 1.490 . S
C932 C934 1.395 . S
C932 C935 1.403 . S
H933 C939 0.930 . S
C934 H920 0.930 . S
C934 C932 1.395 . S
C934 C937 1.403 . S
C935 C932 1.403 . S
C935 C936 1.524 . S
C935 C939 1.400 . S
C936 H921 0.960 . S
C936 H922 0.960 . S
C936 H923 0.960 . S
C936 C935 1.524 . S
C937 C934 1.403 . S
C937 C938 1.392 . S
C937 C941 1.495 . S
C938 C937 1.392 . S
C938 C939 1.385 . S
C938 C940 1.478 . S
C939 H933 0.930 . S
C939 C935 1.400 . S
C939 C938 1.385 . S
C940 C938 1.478 . S
C940 C942 1.381 . S
C940 C946 1.383 . S
C941 C937 1.495 . S
C941 H947 0.959 . S
C941 H948 0.961 . S
C941 H949 0.960 . S
C942 C940 1.381 . S
C942 C943 1.394 . S
C942 H950 0.930 . S
C943 C942 1.394 . S
C943 C944 1.383 . S
C943 H951 0.929 . S
C944 C943 1.383 . S
C944 C945 1.377 . S
C945 H929 0.930 . S
C945 C944 1.377 . S
C945 C946 1.379 . S
C946 H930 0.931 . S
C946 C940 1.383 . S
C946 C945 1.379 . S
H947 C941 0.959 . S
H948 C941 0.961 . S
H949 C941 0.960 . S
H950 C942 0.930 . S
H951 C943 0.929 . S
H952 C960 0.929 . S
H953 C962 0.930 . S
H954 C964 0.930 . S
H955 C967 0.929 . S
H956 C970 0.930 . S
H957 C972 0.960 . S
H958 C972 0.960 . S
H959 C972 0.960 . S
C960 H952 0.929 . S
C960 C961 1.377 . S
C960 C962 1.384 . S
C961 C960 1.377 . S
C961 C967 1.390 . S
C962 H953 0.930 . S
C962 C960 1.384 . S
C962 C963 1.372 . S
C963 C962 1.372 . S
C963 C964 1.400 . S
C963 C968 1.490 . S
C964 H954 0.930 . S
C964 C963 1.400 . S
C964 C967 1.386 . S
H965 C981 0.930 . S
H966 C982 0.931 . S
C967 H955 0.929 . S
C967 C961 1.390 . S
C967 C964 1.386 . S
C968 C963 1.490 . S
C968 C970 1.395 . S
C968 C971 1.403 . S
H969 C975 0.930 . S
C970 H956 0.930 . S
C970 C968 1.395 . S
C970 C973 1.403 . S
C971 C968 1.403 . S
C971 C972 1.524 . S
C971 C975 1.400 . S
C972 H957 0.960 . S
C972 H958 0.960 . S
C972 H959 0.960 . S
C972 C971 1.524 . S
C973 C970 1.403 . S
C973 C974 1.392 . S
C973 C977 1.495 . S
C974 C973 1.392 . S
C974 C975 1.385 . S
C974 C976 1.478 . S
C975 H969 0.930 . S
C975 C971 1.400 . S
C975 C974 1.385 . S
C976 C974 1.478 . S
C976 C978 1.381 . S
C976 C982 1.383 . S
C977 C973 1.495 . S
C977 H983 0.959 . S
C977 H984 0.961 . S
C977 H985 0.960 . S
C978 C976 1.381 . S
C978 C979 1.394 . S
C978 H986 0.930 . S
C979 C978 1.394 . S
C979 C980 1.383 . S
C979 H987 0.929 . S
C980 C979 1.383 . S
C980 C981 1.377 . S
C981 H965 0.930 . S
C981 C980 1.377 . S
C981 C982 1.379 . S
C982 H966 0.931 . S
C982 C976 1.383 . S
C982 C981 1.379 . S
H983 C977 0.959 . S
H984 C977 0.961 . S
H985 C977 0.960 . S
H986 C978 0.930 . S
H987 C979 0.929 . S
H988 C996 0.929 . S
H989 C998 0.930 . S
H990 C1000 0.930 . S
H991 C1003 0.929 . S
H992 C1006 0.930 . S
H993 C1008 0.960 . S
H994 C1008 0.960 . S
H995 C1008 0.960 . S
C996 H988 0.929 . S
C996 C997 1.377 . S
C996 C998 1.384 . S
C997 C996 1.377 . S
C997 C1003 1.390 . S
C998 H989 0.930 . S
C998 C996 1.384 . S
C998 C999 1.372 . S
C999 C998 1.372 . S
C999 C1000 1.400 . S
C999 C1004 1.490 . S
C1000 H990 0.930 . S
C1000 C999 1.400 . S
C1000 C1003 1.386 . S
H1001 C1017 0.930 . S
H1002 C1018 0.931 . S
C1003 H991 0.929 . S
C1003 C997 1.390 . S
C1003 C1000 1.386 . S
C1004 C999 1.490 . S
C1004 C1006 1.395 . S
C1004 C1007 1.403 . S
H1005 C1011 0.930 . S
C1006 H992 0.930 . S
C1006 C1004 1.395 . S
C1006 C1009 1.403 . S
C1007 C1004 1.403 . S
C1007 C1008 1.524 . S
C1007 C1011 1.400 . S
C1008 H993 0.960 . S
C1008 H994 0.960 . S
C1008 H995 0.960 . S
C1008 C1007 1.524 . S
C1009 C1006 1.403 . S
C1009 C1010 1.392 . S
C1009 C1013 1.495 . S
C1010 C1009 1.392 . S
C1010 C1011 1.385 . S
C1010 C1012 1.478 . S
C1011 H1005 0.930 . S
C1011 C1007 1.400 . S
C1011 C1010 1.385 . S
C1012 C1010 1.478 . S
C1012 C1014 1.381 . S
C1012 C1018 1.383 . S
C1013 C1009 1.495 . S
C1013 H1019 0.959 . S
C1013 H1020 0.961 . S
C1013 H1021 0.960 . S
C1014 C1012 1.381 . S
C1014 C1015 1.394 1_655 S
C1014 H1022 0.930 . S
C1015 C1014 1.394 1_455 S
C1015 C1016 1.383 . S
C1015 H1023 0.929 . S
C1016 C1015 1.383 . S
C1016 C1017 1.377 1_455 S
C1017 H1001 0.930 . S
C1017 C1016 1.377 1_655 S
C1017 C1018 1.379 . S
C1018 H1002 0.931 . S
C1018 C1012 1.383 . S
C1018 C1017 1.379 . S
H1019 C1013 0.959 . S
H1020 C1013 0.961 . S
H1021 C1013 0.960 . S
H1022 C1014 0.930 . S
H1023 C1015 0.929 . S
H1024 C1032 0.929 . S
H1025 C1034 0.930 . S
H1026 C1036 0.930 . S
H1027 C1039 0.929 . S
H1028 C1042 0.930 . S
H1029 C1044 0.960 . S
H1030 C1044 0.960 . S
H1031 C1044 0.960 . S
C1032 H1024 0.929 . S
C1032 C1033 1.377 . S
C1032 C1034 1.384 . S
C1033 C1032 1.377 . S
C1033 C1039 1.390 . S
C1034 H1025 0.930 . S
C1034 C1032 1.384 . S
C1034 C1035 1.372 . S
C1035 C1034 1.372 . S
C1035 C1036 1.400 . S
C1035 C1040 1.490 . S
C1036 H1026 0.930 . S
C1036 C1035 1.400 . S
C1036 C1039 1.386 . S
H1037 C1053 0.930 . S
H1038 C1054 0.931 . S
C1039 H1027 0.929 . S
C1039 C1033 1.390 . S
C1039 C1036 1.386 . S
C1040 C1035 1.490 . S
C1040 C1042 1.395 . S
C1040 C1043 1.403 . S
H1041 C1047 0.930 . S
C1042 H1028 0.930 . S
C1042 C1040 1.395 . S
C1042 C1045 1.403 . S
C1043 C1040 1.403 . S
C1043 C1044 1.524 . S
C1043 C1047 1.400 . S
C1044 H1029 0.960 . S
C1044 H1030 0.960 . S
C1044 H1031 0.960 . S
C1044 C1043 1.524 . S
C1045 C1042 1.403 . S
C1045 C1046 1.392 . S
C1045 C1049 1.495 . S
C1046 C1045 1.392 . S
C1046 C1047 1.385 . S
C1046 C1048 1.478 . S
C1047 H1041 0.930 . S
C1047 C1043 1.400 . S
C1047 C1046 1.385 . S
C1048 C1046 1.478 . S
C1048 C1050 1.381 . S
C1048 C1054 1.383 . S
C1049 C1045 1.495 . S
C1049 H1055 0.959 . S
C1049 H1056 0.961 . S
C1049 H1057 0.960 . S
C1050 C1048 1.381 . S
C1050 C1051 1.394 . S
C1050 H1058 0.930 . S
C1051 C1050 1.394 . S
C1051 C1052 1.383 . S
C1051 H1059 0.929 . S
C1052 C1051 1.383 . S
C1052 C1053 1.377 . S
C1053 H1037 0.930 . S
C1053 C1052 1.377 . S
C1053 C1054 1.379 . S
C1054 H1038 0.931 . S
C1054 C1048 1.383 . S
C1054 C1053 1.379 . S
H1055 C1049 0.959 . S
H1056 C1049 0.961 . S
H1057 C1049 0.960 . S
H1058 C1050 0.930 . S
H1059 C1051 0.929 . S
H1060 C1068 0.929 . S
H1061 C1070 0.930 . S
H1062 C1072 0.930 . S
H1063 C1075 0.929 . S
H1064 C1078 0.930 . S
H1065 C1080 0.960 . S
H1066 C1080 0.960 . S
H1067 C1080 0.960 . S
C1068 H1060 0.929 . S
C1068 C1069 1.377 . S
C1068 C1070 1.384 . S
C1069 C1068 1.377 . S
C1069 C1075 1.390 . S
C1070 H1061 0.930 . S
C1070 C1068 1.384 . S
C1070 C1071 1.372 . S
C1071 C1070 1.372 . S
C1071 C1072 1.400 . S
C1071 C1076 1.490 . S
C1072 H1062 0.930 . S
C1072 C1071 1.400 . S
C1072 C1075 1.386 . S
H1073 C1089 0.930 . S
H1074 C1090 0.931 . S
C1075 H1063 0.929 . S
C1075 C1069 1.390 . S
C1075 C1072 1.386 . S
C1076 C1071 1.490 . S
C1076 C1078 1.395 . S
C1076 C1079 1.403 . S
H1077 C1083 0.930 . S
C1078 H1064 0.930 . S
C1078 C1076 1.395 . S
C1078 C1081 1.403 . S
C1079 C1076 1.403 . S
C1079 C1080 1.524 . S
C1079 C1083 1.400 . S
C1080 H1065 0.960 . S
C1080 H1066 0.960 . S
C1080 H1067 0.960 . S
C1080 C1079 1.524 . S
C1081 C1078 1.403 . S
C1081 C1082 1.392 . S
C1081 C1085 1.495 . S
C1082 C1081 1.392 . S
C1082 C1083 1.385 . S
C1082 C1084 1.478 . S
C1083 H1077 0.930 . S
C1083 C1079 1.400 . S
C1083 C1082 1.385 . S
C1084 C1082 1.478 . S
C1084 C1086 1.381 . S
C1084 C1090 1.383 . S
C1085 C1081 1.495 . S
C1085 H1091 0.959 . S
C1085 H1092 0.961 . S
C1085 H1093 0.960 . S
C1086 C1084 1.381 . S
C1086 C1087 1.394 . S
C1086 H1094 0.930 . S
C1087 C1086 1.394 . S
C1087 C1088 1.383 . S
C1087 H1095 0.929 . S
C1088 C1087 1.383 . S
C1088 C1089 1.377 . S
C1089 H1073 0.930 . S
C1089 C1088 1.377 . S
C1089 C1090 1.379 . S
C1090 H1074 0.931 . S
C1090 C1084 1.383 . S
C1090 C1089 1.379 . S
H1091 C1085 0.959 . S
H1092 C1085 0.961 . S
H1093 C1085 0.960 . S
H1094 C1086 0.930 . S
H1095 C1087 0.929 . S
H1096 C1104 0.929 . S
H1097 C1106 0.930 . S
H1098 C1108 0.930 . S
H1099 C1111 0.929 . S
H1100 C1114 0.930 . S
H1101 C1116 0.960 . S
H1102 C1116 0.960 . S
H1103 C1116 0.960 . S
C1104 H1096 0.929 . S
C1104 C1105 1.377 . S
C1104 C1106 1.384 . S
C1105 C1104 1.377 . S
C1105 C1111 1.390 . S
C1106 H1097 0.930 . S
C1106 C1104 1.384 . S
C1106 C1107 1.372 . S
C1107 C1106 1.372 . S
C1107 C1108 1.400 . S
C1107 C1112 1.490 . S
C1108 H1098 0.930 . S
C1108 C1107 1.400 . S
C1108 C1111 1.386 . S
H1109 C1125 0.930 . S
H1110 C1126 0.931 . S
C1111 H1099 0.929 . S
C1111 C1105 1.390 . S
C1111 C1108 1.386 . S
C1112 C1107 1.490 . S
C1112 C1114 1.395 . S
C1112 C1115 1.403 . S
H1113 C1119 0.930 . S
C1114 H1100 0.930 . S
C1114 C1112 1.395 . S
C1114 C1117 1.403 . S
C1115 C1112 1.403 . S
C1115 C1116 1.524 . S
C1115 C1119 1.400 . S
C1116 H1101 0.960 . S
C1116 H1102 0.960 . S
C1116 H1103 0.960 . S
C1116 C1115 1.524 . S
C1117 C1114 1.403 . S
C1117 C1118 1.392 . S
C1117 C1121 1.495 . S
C1118 C1117 1.392 . S
C1118 C1119 1.385 . S
C1118 C1120 1.478 . S
C1119 H1113 0.930 . S
C1119 C1115 1.400 . S
C1119 C1118 1.385 . S
C1120 C1118 1.478 . S
C1120 C1122 1.381 . S
C1120 C1126 1.383 . S
C1121 C1117 1.495 . S
C1121 H1127 0.959 . S
C1121 H1128 0.961 . S
C1121 H1129 0.960 . S
C1122 C1120 1.381 . S
C1122 C1123 1.394 . S
C1122 H1130 0.930 . S
C1123 C1122 1.394 . S
C1123 C1124 1.383 . S
C1123 H1131 0.929 . S
C1124 C1123 1.383 . S
C1124 C1125 1.377 . S
C1125 H1109 0.930 . S
C1125 C1124 1.377 . S
C1125 C1126 1.379 . S
C1126 H1110 0.931 . S
C1126 C1120 1.383 . S
C1126 C1125 1.379 . S
H1127 C1121 0.959 . S
H1128 C1121 0.961 . S
H1129 C1121 0.960 . S
H1130 C1122 0.930 . S
H1131 C1123 0.929 . S
H1132 C1140 0.929 . S
H1133 C1142 0.930 . S
H1134 C1144 0.930 . S
H1135 C1147 0.929 . S
H1136 C1150 0.930 . S
H1137 C1152 0.960 . S
H1138 C1152 0.960 . S
H1139 C1152 0.960 . S
C1140 H1132 0.929 . S
C1140 C1141 1.377 . S
C1140 C1142 1.384 . S
C1141 C1140 1.377 . S
C1141 C1147 1.390 . S
C1142 H1133 0.930 . S
C1142 C1140 1.384 . S
C1142 C1143 1.372 . S
C1143 C1142 1.372 . S
C1143 C1144 1.400 . S
C1143 C1148 1.490 . S
C1144 H1134 0.930 . S
C1144 C1143 1.400 . S
C1144 C1147 1.386 . S
H1145 C1161 0.930 . S
H1146 C1162 0.931 . S
C1147 H1135 0.929 . S
C1147 C1141 1.390 . S
C1147 C1144 1.386 . S
C1148 C1143 1.490 . S
C1148 C1150 1.395 . S
C1148 C1151 1.403 . S
H1149 C1155 0.930 . S
C1150 H1136 0.930 . S
C1150 C1148 1.395 . S
C1150 C1153 1.403 . S
C1151 C1148 1.403 . S
C1151 C1152 1.524 . S
C1151 C1155 1.400 . S
C1152 H1137 0.960 . S
C1152 H1138 0.960 . S
C1152 H1139 0.960 . S
C1152 C1151 1.524 . S
C1153 C1150 1.403 . S
C1153 C1154 1.392 . S
C1153 C1157 1.495 . S
C1154 C1153 1.392 . S
C1154 C1155 1.385 . S
C1154 C1156 1.478 . S
C1155 H1149 0.930 . S
C1155 C1151 1.400 . S
C1155 C1154 1.385 . S
C1156 C1154 1.478 . S
C1156 C1158 1.381 . S
C1156 C1162 1.383 . S
C1157 C1153 1.495 . S
C1157 H1163 0.959 . S
C1157 H1164 0.961 . S
C1157 H1165 0.960 . S
C1158 C1156 1.381 . S
C1158 C1159 1.394 1_655 S
C1158 H1166 0.930 . S
C1159 C1158 1.394 1_455 S
C1159 C1160 1.383 . S
C1159 H1167 0.929 . S
C1160 C1159 1.383 . S
C1160 C1161 1.377 1_455 S
C1161 H1145 0.930 . S
C1161 C1160 1.377 1_655 S
C1161 C1162 1.379 . S
C1162 H1146 0.931 . S
C1162 C1156 1.383 . S
C1162 C1161 1.379 . S
H1163 C1157 0.959 . S
H1164 C1157 0.961 . S
H1165 C1157 0.960 . S
H1166 C1158 0.930 . S
H1167 C1159 0.929 . S
H1168 C1176 0.929 . S
H1169 C1178 0.930 . S
H1170 C1180 0.930 . S
H1171 C1183 0.929 . S
H1172 C1186 0.930 . S
H1173 C1188 0.960 . S
H1174 C1188 0.960 . S
H1175 C1188 0.960 . S
C1176 H1168 0.929 . S
C1176 C1177 1.377 . S
C1176 C1178 1.384 . S
C1177 C1176 1.377 . S
C1177 C1183 1.390 . S
C1178 H1169 0.930 . S
C1178 C1176 1.384 . S
C1178 C1179 1.372 . S
C1179 C1178 1.372 . S
C1179 C1180 1.400 . S
C1179 C1184 1.490 . S
C1180 H1170 0.930 . S
C1180 C1179 1.400 . S
C1180 C1183 1.386 . S
H1181 C1197 0.930 . S
H1182 C1198 0.931 . S
C1183 H1171 0.929 . S
C1183 C1177 1.390 . S
C1183 C1180 1.386 . S
C1184 C1179 1.490 . S
C1184 C1186 1.395 . S
C1184 C1187 1.403 . S
H1185 C1191 0.930 . S
C1186 H1172 0.930 . S
C1186 C1184 1.395 . S
C1186 C1189 1.403 . S
C1187 C1184 1.403 . S
C1187 C1188 1.524 . S
C1187 C1191 1.400 . S
C1188 H1173 0.960 . S
C1188 H1174 0.960 . S
C1188 H1175 0.960 . S
C1188 C1187 1.524 . S
C1189 C1186 1.403 . S
C1189 C1190 1.392 . S
C1189 C1193 1.495 . S
C1190 C1189 1.392 . S
C1190 C1191 1.385 . S
C1190 C1192 1.478 . S
C1191 H1185 0.930 . S
C1191 C1187 1.400 . S
C1191 C1190 1.385 . S
C1192 C1190 1.478 . S
C1192 C1194 1.381 . S
C1192 C1198 1.383 . S
C1193 C1189 1.495 . S
C1193 H1199 0.959 . S
C1193 H1200 0.961 . S
C1193 H1201 0.960 . S
C1194 C1192 1.381 . S
C1194 C1195 1.394 . S
C1194 H1202 0.930 . S
C1195 C1194 1.394 . S
C1195 C1196 1.383 . S
C1195 H1203 0.929 . S
C1196 C1195 1.383 . S
C1196 C1197 1.377 . S
C1197 H1181 0.930 . S
C1197 C1196 1.377 . S
C1197 C1198 1.379 . S
C1198 H1182 0.931 . S
C1198 C1192 1.383 . S
C1198 C1197 1.379 . S
H1199 C1193 0.959 . S
H1200 C1193 0.961 . S
H1201 C1193 0.960 . S
H1202 C1194 0.930 . S
H1203 C1195 0.929 . S
H1204 C1212 0.929 . S
H1205 C1214 0.930 . S
H1206 C1216 0.930 . S
H1207 C1219 0.929 . S
H1208 C1222 0.930 . S
H1209 C1224 0.960 . S
H1210 C1224 0.960 . S
H1211 C1224 0.960 . S
C1212 H1204 0.929 . S
C1212 C1213 1.377 . S
C1212 C1214 1.384 1_455 S
C1213 C1212 1.377 . S
C1213 C1219 1.390 1_455 S
C1214 H1205 0.930 . S
C1214 C1212 1.384 1_655 S
C1214 C1215 1.372 . S
C1215 C1214 1.372 . S
C1215 C1216 1.400 . S
C1215 C1220 1.490 . S
C1216 H1206 0.930 . S
C1216 C1215 1.400 . S
C1216 C1219 1.386 . S
H1217 C1233 0.930 . S
H1218 C1234 0.931 . S
C1219 H1207 0.929 . S
C1219 C1213 1.390 1_655 S
C1219 C1216 1.386 . S
C1220 C1215 1.490 . S
C1220 C1222 1.395 . S
C1220 C1223 1.403 . S
H1221 C1227 0.930 . S
C1222 H1208 0.930 . S
C1222 C1220 1.395 . S
C1222 C1225 1.403 . S
C1223 C1220 1.403 . S
C1223 C1224 1.524 . S
C1223 C1227 1.400 . S
C1224 H1209 0.960 . S
C1224 H1210 0.960 . S
C1224 H1211 0.960 . S
C1224 C1223 1.524 . S
C1225 C1222 1.403 . S
C1225 C1226 1.392 . S
C1225 C1229 1.495 . S
C1226 C1225 1.392 . S
C1226 C1227 1.385 . S
C1226 C1228 1.478 . S
C1227 H1221 0.930 . S
C1227 C1223 1.400 . S
C1227 C1226 1.385 . S
C1228 C1226 1.478 . S
C1228 C1230 1.381 . S
C1228 C1234 1.383 . S
C1229 C1225 1.495 . S
C1229 H1235 0.959 . S
C1229 H1236 0.961 . S
C1229 H1237 0.960 . S
C1230 C1228 1.381 . S
C1230 C1231 1.394 . S
C1230 H1238 0.930 . S
C1231 C1230 1.394 . S
C1231 C1232 1.383 . S
C1231 H1239 0.929 . S
C1232 C1231 1.383 . S
C1232 C1233 1.377 . S
C1233 H1217 0.930 . S
C1233 C1232 1.377 . S
C1233 C1234 1.379 . S
C1234 H1218 0.931 . S
C1234 C1228 1.383 . S
C1234 C1233 1.379 . S
H1235 C1229 0.959 . S
H1236 C1229 0.961 . S
H1237 C1229 0.960 . S
H1238 C1230 0.930 . S
H1239 C1231 0.929 . S
H1240 C1248 0.929 . S
H1241 C1250 0.930 . S
H1242 C1252 0.930 . S
H1243 C1255 0.929 . S
H1244 C1258 0.930 . S
H1245 C1260 0.960 . S
H1246 C1260 0.960 . S
H1247 C1260 0.960 . S
C1248 H1240 0.929 . S
C1248 C1249 1.377 . S
C1248 C1250 1.384 . S
C1249 C1248 1.377 . S
C1249 C1255 1.390 . S
C1250 H1241 0.930 . S
C1250 C1248 1.384 . S
C1250 C1251 1.372 . S
C1251 C1250 1.372 . S
C1251 C1252 1.400 . S
C1251 C1256 1.490 . S
C1252 H1242 0.930 . S
C1252 C1251 1.400 . S
C1252 C1255 1.386 . S
H1253 C1269 0.930 . S
H1254 C1270 0.931 . S
C1255 H1243 0.929 . S
C1255 C1249 1.390 . S
C1255 C1252 1.386 . S
C1256 C1251 1.490 . S
C1256 C1258 1.395 . S
C1256 C1259 1.403 . S
H1257 C1263 0.930 . S
C1258 H1244 0.930 . S
C1258 C1256 1.395 . S
C1258 C1261 1.403 . S
C1259 C1256 1.403 . S
C1259 C1260 1.524 . S
C1259 C1263 1.400 . S
C1260 H1245 0.960 . S
C1260 H1246 0.960 . S
C1260 H1247 0.960 . S
C1260 C1259 1.524 . S
C1261 C1258 1.403 . S
C1261 C1262 1.392 . S
C1261 C1265 1.495 . S
C1262 C1261 1.392 . S
C1262 C1263 1.385 . S
C1262 C1264 1.478 . S
C1263 H1257 0.930 . S
C1263 C1259 1.400 . S
C1263 C1262 1.385 . S
C1264 C1262 1.478 . S
C1264 C1266 1.381 . S
C1264 C1270 1.383 . S
C1265 C1261 1.495 . S
C1265 H1271 0.959 . S
C1265 H1272 0.961 . S
C1265 H1273 0.960 . S
C1266 C1264 1.381 . S
C1266 C1267 1.394 . S
C1266 H1274 0.930 . S
C1267 C1266 1.394 . S
C1267 C1268 1.383 . S
C1267 H1275 0.929 . S
C1268 C1267 1.383 . S
C1268 C1269 1.377 . S
C1269 H1253 0.930 . S
C1269 C1268 1.377 . S
C1269 C1270 1.379 . S
C1270 H1254 0.931 . S
C1270 C1264 1.383 . S
C1270 C1269 1.379 . S
H1271 C1265 0.959 . S
H1272 C1265 0.961 . S
H1273 C1265 0.960 . S
H1274 C1266 0.930 . S
H1275 C1267 0.929 . S
H1276 C1284 0.929 . S
H1277 C1286 0.930 . S
H1278 C1288 0.930 . S
H1279 C1291 0.929 . S
H1280 C1294 0.930 . S
H1281 C1296 0.960 . S
H1282 C1296 0.960 . S
H1283 C1296 0.960 . S
C1284 H1276 0.929 . S
C1284 C1285 1.377 . S
C1284 C1286 1.384 . S
C1285 C1284 1.377 . S
C1285 C1291 1.390 . S
C1286 H1277 0.930 . S
C1286 C1284 1.384 . S
C1286 C1287 1.372 . S
C1287 C1286 1.372 . S
C1287 C1288 1.400 . S
C1287 C1292 1.490 . S
C1288 H1278 0.930 . S
C1288 C1287 1.400 . S
C1288 C1291 1.386 . S
H1289 C1305 0.930 . S
H1290 C1306 0.931 . S
C1291 H1279 0.929 . S
C1291 C1285 1.390 . S
C1291 C1288 1.386 . S
C1292 C1287 1.490 . S
C1292 C1294 1.395 . S
C1292 C1295 1.403 . S
H1293 C1299 0.930 . S
C1294 H1280 0.930 . S
C1294 C1292 1.395 . S
C1294 C1297 1.403 . S
C1295 C1292 1.403 . S
C1295 C1296 1.524 . S
C1295 C1299 1.400 . S
C1296 H1281 0.960 . S
C1296 H1282 0.960 . S
C1296 H1283 0.960 . S
C1296 C1295 1.524 . S
C1297 C1294 1.403 . S
C1297 C1298 1.392 . S
C1297 C1301 1.495 . S
C1298 C1297 1.392 . S
C1298 C1299 1.385 . S
C1298 C1300 1.478 . S
C1299 H1293 0.930 . S
C1299 C1295 1.400 . S
C1299 C1298 1.385 . S
C1300 C1298 1.478 . S
C1300 C1302 1.381 . S
C1300 C1306 1.383 . S
C1301 C1297 1.495 . S
C1301 H1307 0.959 . S
C1301 H1308 0.961 . S
C1301 H1309 0.960 . S
C1302 C1300 1.381 . S
C1302 C1303 1.394 . S
C1302 H1310 0.930 . S
C1303 C1302 1.394 . S
C1303 C1304 1.383 . S
C1303 H1311 0.929 . S
C1304 C1303 1.383 . S
C1304 C1305 1.377 . S
C1305 H1289 0.930 . S
C1305 C1304 1.377 . S
C1305 C1306 1.379 . S
C1306 H1290 0.931 . S
C1306 C1300 1.383 . S
C1306 C1305 1.379 . S
H1307 C1301 0.959 . S
H1308 C1301 0.961 . S
H1309 C1301 0.960 . S
H1310 C1302 0.930 . S
H1311 C1303 0.929 . S
H1312 C1320 0.929 . S
H1313 C1322 0.930 . S
H1314 C1324 0.930 . S
H1315 C1327 0.929 . S
H1316 C1330 0.930 . S
H1317 C1332 0.960 . S
H1318 C1332 0.960 . S
H1319 C1332 0.960 . S
C1320 H1312 0.929 . S
C1320 C1321 1.377 . S
C1320 C1322 1.384 . S
C1321 C1320 1.377 . S
C1321 C1327 1.390 . S
C1322 H1313 0.930 . S
C1322 C1320 1.384 . S
C1322 C1323 1.372 . S
C1323 C1322 1.372 . S
C1323 C1324 1.400 . S
C1323 C1328 1.490 . S
C1324 H1314 0.930 . S
C1324 C1323 1.400 . S
C1324 C1327 1.386 . S
H1325 C1341 0.930 . S
H1326 C1342 0.931 . S
C1327 H1315 0.929 . S
C1327 C1321 1.390 . S
C1327 C1324 1.386 . S
C1328 C1323 1.490 . S
C1328 C1330 1.395 . S
C1328 C1331 1.403 . S
H1329 C1335 0.930 . S
C1330 H1316 0.930 . S
C1330 C1328 1.395 . S
C1330 C1333 1.403 . S
C1331 C1328 1.403 . S
C1331 C1332 1.524 . S
C1331 C1335 1.400 . S
C1332 H1317 0.960 . S
C1332 H1318 0.960 . S
C1332 H1319 0.960 . S
C1332 C1331 1.524 . S
C1333 C1330 1.403 . S
C1333 C1334 1.392 . S
C1333 C1337 1.495 . S
C1334 C1333 1.392 . S
C1334 C1335 1.385 . S
C1334 C1336 1.478 . S
C1335 H1329 0.930 . S
C1335 C1331 1.400 . S
C1335 C1334 1.385 . S
C1336 C1334 1.478 . S
C1336 C1338 1.381 . S
C1336 C1342 1.383 . S
C1337 C1333 1.495 . S
C1337 H1343 0.959 . S
C1337 H1344 0.961 . S
C1337 H1345 0.960 . S
C1338 C1336 1.381 . S
C1338 C1339 1.394 . S
C1338 H1346 0.930 . S
C1339 C1338 1.394 . S
C1339 C1340 1.383 . S
C1339 H1347 0.929 . S
C1340 C1339 1.383 . S
C1340 C1341 1.377 . S
C1341 H1325 0.930 . S
C1341 C1340 1.377 . S
C1341 C1342 1.379 . S
C1342 H1326 0.931 . S
C1342 C1336 1.383 . S
C1342 C1341 1.379 . S
H1343 C1337 0.959 . S
H1344 C1337 0.961 . S
H1345 C1337 0.960 . S
H1346 C1338 0.930 . S
H1347 C1339 0.929 . S
H1348 C1356 0.929 . S
H1349 C1358 0.930 . S
H1350 C1360 0.930 . S
H1351 C1363 0.929 . S
H1352 C1366 0.930 . S
H1353 C1368 0.960 . S
H1354 C1368 0.960 . S
H1355 C1368 0.960 . S
C1356 H1348 0.929 . S
C1356 C1357 1.377 . S
C1356 C1358 1.384 . S
C1357 C1356 1.377 . S
C1357 C1363 1.390 . S
C1358 H1349 0.930 . S
C1358 C1356 1.384 . S
C1358 C1359 1.372 . S
C1359 C1358 1.372 . S
C1359 C1360 1.400 . S
C1359 C1364 1.490 . S
C1360 H1350 0.930 . S
C1360 C1359 1.400 . S
C1360 C1363 1.386 . S
H1361 C1377 0.930 . S
H1362 C1378 0.931 . S
C1363 H1351 0.929 . S
C1363 C1357 1.390 . S
C1363 C1360 1.386 . S
C1364 C1359 1.490 . S
C1364 C1366 1.395 . S
C1364 C1367 1.403 . S
H1365 C1371 0.930 . S
C1366 H1352 0.930 . S
C1366 C1364 1.395 . S
C1366 C1369 1.403 . S
C1367 C1364 1.403 . S
C1367 C1368 1.524 . S
C1367 C1371 1.400 . S
C1368 H1353 0.960 . S
C1368 H1354 0.960 . S
C1368 H1355 0.960 . S
C1368 C1367 1.524 . S
C1369 C1366 1.403 . S
C1369 C1370 1.392 . S
C1369 C1373 1.495 . S
C1370 C1369 1.392 . S
C1370 C1371 1.385 . S
C1370 C1372 1.478 . S
C1371 H1365 0.930 . S
C1371 C1367 1.400 . S
C1371 C1370 1.385 . S
C1372 C1370 1.478 . S
C1372 C1374 1.381 . S
C1372 C1378 1.383 . S
C1373 C1369 1.495 . S
C1373 H1379 0.959 . S
C1373 H1380 0.961 . S
C1373 H1381 0.960 . S
C1374 C1372 1.381 . S
C1374 C1375 1.394 . S
C1374 H1382 0.930 . S
C1375 C1374 1.394 . S
C1375 C1376 1.383 . S
C1375 H1383 0.929 . S
C1376 C1375 1.383 . S
C1376 C1377 1.377 . S
C1377 H1361 0.930 . S
C1377 C1376 1.377 . S
C1377 C1378 1.379 . S
C1378 H1362 0.931 . S
C1378 C1372 1.383 . S
C1378 C1377 1.379 . S
H1379 C1373 0.959 . S
H1380 C1373 0.961 . S
H1381 C1373 0.960 . S
H1382 C1374 0.930 . S
H1383 C1375 0.929 . S
H1384 C1392 0.929 . S
H1385 C1394 0.930 . S
H1386 C1396 0.930 . S
H1387 C1399 0.929 . S
H1388 C1402 0.930 . S
H1389 C1404 0.960 . S
H1390 C1404 0.960 . S
H1391 C1404 0.960 . S
C1392 H1384 0.929 . S
C1392 C1393 1.377 . S
C1392 C1394 1.384 . S
C1393 C1392 1.377 . S
C1393 C1399 1.390 . S
C1394 H1385 0.930 . S
C1394 C1392 1.384 . S
C1394 C1395 1.372 . S
C1395 C1394 1.372 . S
C1395 C1396 1.400 . S
C1395 C1400 1.490 . S
C1396 H1386 0.930 . S
C1396 C1395 1.400 . S
C1396 C1399 1.386 . S
H1397 C1413 0.930 . S
H1398 C1414 0.931 . S
C1399 H1387 0.929 . S
C1399 C1393 1.390 . S
C1399 C1396 1.386 . S
C1400 C1395 1.490 . S
C1400 C1402 1.395 . S
C1400 C1403 1.403 . S
H1401 C1407 0.930 . S
C1402 H1388 0.930 . S
C1402 C1400 1.395 . S
C1402 C1405 1.403 . S
C1403 C1400 1.403 . S
C1403 C1404 1.524 . S
C1403 C1407 1.400 . S
C1404 H1389 0.960 . S
C1404 H1390 0.960 . S
C1404 H1391 0.960 . S
C1404 C1403 1.524 . S
C1405 C1402 1.403 . S
C1405 C1406 1.392 . S
C1405 C1409 1.495 . S
C1406 C1405 1.392 . S
C1406 C1407 1.385 . S
C1406 C1408 1.478 . S
C1407 H1401 0.930 . S
C1407 C1403 1.400 . S
C1407 C1406 1.385 . S
C1408 C1406 1.478 . S
C1408 C1410 1.381 . S
C1408 C1414 1.383 . S
C1409 C1405 1.495 . S
C1409 H1415 0.959 . S
C1409 H1416 0.961 . S
C1409 H1417 0.960 . S
C1410 C1408 1.381 . S
C1410 C1411 1.394 . S
C1410 H1418 0.930 . S
C1411 C1410 1.394 . S
C1411 C1412 1.383 . S
C1411 H1419 0.929 . S
C1412 C1411 1.383 . S
C1412 C1413 1.377 . S
C1413 H1397 0.930 . S
C1413 C1412 1.377 . S
C1413 C1414 1.379 . S
C1414 H1398 0.931 . S
C1414 C1408 1.383 . S
C1414 C1413 1.379 . S
H1415 C1409 0.959 . S
H1416 C1409 0.961 . S
H1417 C1409 0.960 . S
H1418 C1410 0.930 . S
H1419 C1411 0.929 . S
H1420 C1428 0.929 . S
H1421 C1430 0.930 . S
H1422 C1432 0.930 . S
H1423 C1435 0.929 . S
H1424 C1438 0.930 . S
H1425 C1440 0.960 . S
H1426 C1440 0.960 . S
H1427 C1440 0.960 . S
C1428 H1420 0.929 . S
C1428 C1429 1.377 1_455 S
C1428 C1430 1.384 . S
C1429 C1428 1.377 1_655 S
C1429 C1435 1.390 . S
C1430 H1421 0.930 . S
C1430 C1428 1.384 . S
C1430 C1431 1.372 . S
C1431 C1430 1.372 . S
C1431 C1432 1.400 . S
C1431 C1436 1.490 . S
C1432 H1422 0.930 . S
C1432 C1431 1.400 . S
C1432 C1435 1.386 1_455 S
H1433 C1449 0.930 . S
H1434 C1450 0.931 . S
C1435 H1423 0.929 . S
C1435 C1429 1.390 . S
C1435 C1432 1.386 1_655 S
C1436 C1431 1.490 . S
C1436 C1438 1.395 . S
C1436 C1439 1.403 . S
H1437 C1443 0.930 . S
C1438 H1424 0.930 . S
C1438 C1436 1.395 . S
C1438 C1441 1.403 . S
C1439 C1436 1.403 . S
C1439 C1440 1.524 . S
C1439 C1443 1.400 . S
C1440 H1425 0.960 . S
C1440 H1426 0.960 . S
C1440 H1427 0.960 . S
C1440 C1439 1.524 . S
C1441 C1438 1.403 . S
C1441 C1442 1.392 . S
C1441 C1445 1.495 . S
C1442 C1441 1.392 . S
C1442 C1443 1.385 . S
C1442 C1444 1.478 . S
C1443 H1437 0.930 . S
C1443 C1439 1.400 . S
C1443 C1442 1.385 . S
C1444 C1442 1.478 . S
C1444 C1446 1.381 . S
C1444 C1450 1.383 . S
C1445 C1441 1.495 . S
C1445 H1451 0.959 . S
C1445 H1452 0.961 . S
C1445 H1453 0.960 . S
C1446 C1444 1.381 . S
C1446 C1447 1.394 . S
C1446 H1454 0.930 . S
C1447 C1446 1.394 . S
C1447 C1448 1.383 . S
C1447 H1455 0.929 . S
C1448 C1447 1.383 . S
C1448 C1449 1.377 . S
C1449 H1433 0.930 . S
C1449 C1448 1.377 . S
C1449 C1450 1.379 . S
C1450 H1434 0.931 . S
C1450 C1444 1.383 . S
C1450 C1449 1.379 . S
H1451 C1445 0.959 . S
H1452 C1445 0.961 . S
H1453 C1445 0.960 . S
H1454 C1446 0.930 . S
H1455 C1447 0.929 . S
H1456 C1464 0.929 . S
H1457 C1466 0.930 . S
H1458 C1468 0.930 . S
H1459 C1471 0.929 . S
H1460 C1474 0.930 . S
H1461 C1476 0.960 . S
H1462 C1476 0.960 . S
H1463 C1476 0.960 . S
C1464 H1456 0.929 . S
C1464 C1465 1.377 . S
C1464 C1466 1.384 . S
C1465 C1464 1.377 . S
C1465 C1471 1.390 . S
C1466 H1457 0.930 . S
C1466 C1464 1.384 . S
C1466 C1467 1.372 . S
C1467 C1466 1.372 . S
C1467 C1468 1.400 . S
C1467 C1472 1.490 . S
C1468 H1458 0.930 . S
C1468 C1467 1.400 . S
C1468 C1471 1.386 . S
H1469 C1485 0.930 . S
H1470 C1486 0.931 . S
C1471 H1459 0.929 . S
C1471 C1465 1.390 . S
C1471 C1468 1.386 . S
C1472 C1467 1.490 . S
C1472 C1474 1.395 . S
C1472 C1475 1.403 . S
H1473 C1479 0.930 . S
C1474 H1460 0.930 . S
C1474 C1472 1.395 . S
C1474 C1477 1.403 . S
C1475 C1472 1.403 . S
C1475 C1476 1.524 . S
C1475 C1479 1.400 . S
C1476 H1461 0.960 . S
C1476 H1462 0.960 . S
C1476 H1463 0.960 . S
C1476 C1475 1.524 . S
C1477 C1474 1.403 . S
C1477 C1478 1.392 . S
C1477 C1481 1.495 . S
C1478 C1477 1.392 . S
C1478 C1479 1.385 . S
C1478 C1480 1.478 . S
C1479 H1473 0.930 . S
C1479 C1475 1.400 . S
C1479 C1478 1.385 . S
C1480 C1478 1.478 . S
C1480 C1482 1.381 . S
C1480 C1486 1.383 . S
C1481 C1477 1.495 . S
C1481 H1487 0.959 . S
C1481 H1488 0.961 . S
C1481 H1489 0.960 . S
C1482 C1480 1.381 . S
C1482 C1483 1.394 . S
C1482 H1490 0.930 . S
C1483 C1482 1.394 . S
C1483 C1484 1.383 . S
C1483 H1491 0.929 . S
C1484 C1483 1.383 . S
C1484 C1485 1.377 . S
C1485 H1469 0.930 . S
C1485 C1484 1.377 . S
C1485 C1486 1.379 . S
C1486 H1470 0.931 . S
C1486 C1480 1.383 . S
C1486 C1485 1.379 . S
H1487 C1481 0.959 . S
H1488 C1481 0.961 . S
H1489 C1481 0.960 . S
H1490 C1482 0.930 . S
H1491 C1483 0.929 . S
H1492 C1500 0.929 . S
H1493 C1502 0.930 . S
H1494 C1504 0.930 . S
H1495 C1507 0.929 . S
H1496 C1510 0.930 . S
H1497 C1512 0.960 . S
H1498 C1512 0.960 . S
H1499 C1512 0.960 . S
C1500 H1492 0.929 . S
C1500 C1501 1.377 1_455 S
C1500 C1502 1.384 . S
C1501 C1500 1.377 1_655 S
C1501 C1507 1.390 . S
C1502 H1493 0.930 . S
C1502 C1500 1.384 . S
C1502 C1503 1.372 . S
C1503 C1502 1.372 . S
C1503 C1504 1.400 . S
C1503 C1508 1.490 . S
C1504 H1494 0.930 . S
C1504 C1503 1.400 . S
C1504 C1507 1.386 1_455 S
H1505 C1521 0.930 . S
H1506 C1522 0.931 . S
C1507 H1495 0.929 . S
C1507 C1501 1.390 . S
C1507 C1504 1.386 1_655 S
C1508 C1503 1.490 . S
C1508 C1510 1.395 . S
C1508 C1511 1.403 . S
H1509 C1515 0.930 . S
C1510 H1496 0.930 . S
C1510 C1508 1.395 . S
C1510 C1513 1.403 . S
C1511 C1508 1.403 . S
C1511 C1512 1.524 . S
C1511 C1515 1.400 . S
C1512 H1497 0.960 . S
C1512 H1498 0.960 . S
C1512 H1499 0.960 . S
C1512 C1511 1.524 . S
C1513 C1510 1.403 . S
C1513 C1514 1.392 . S
C1513 C1517 1.495 . S
C1514 C1513 1.392 . S
C1514 C1515 1.385 . S
C1514 C1516 1.478 . S
C1515 H1509 0.930 . S
C1515 C1511 1.400 . S
C1515 C1514 1.385 . S
C1516 C1514 1.478 . S
C1516 C1518 1.381 . S
C1516 C1522 1.383 . S
C1517 C1513 1.495 . S
C1517 H1523 0.959 . S
C1517 H1524 0.961 . S
C1517 H1525 0.960 . S
C1518 C1516 1.381 . S
C1518 C1519 1.394 . S
C1518 H1526 0.930 . S
C1519 C1518 1.394 . S
C1519 C1520 1.383 . S
C1519 H1527 0.929 . S
C1520 C1519 1.383 . S
C1520 C1521 1.377 . S
C1521 H1505 0.930 . S
C1521 C1520 1.377 . S
C1521 C1522 1.379 . S
C1522 H1506 0.931 . S
C1522 C1516 1.383 . S
C1522 C1521 1.379 . S
H1523 C1517 0.959 . S
H1524 C1517 0.961 . S
H1525 C1517 0.960 . S
H1526 C1518 0.930 . S
H1527 C1519 0.929 . S
H1528 C1536 0.929 . S
H1529 C1538 0.930 . S
H1530 C1540 0.930 . S
H1531 C1543 0.929 . S
H1532 C1546 0.930 . S
H1533 C1548 0.960 . S
H1534 C1548 0.960 . S
H1535 C1548 0.960 . S
C1536 H1528 0.929 . S
C1536 C1537 1.377 . S
C1536 C1538 1.384 . S
C1537 C1536 1.377 . S
C1537 C1543 1.390 . S
C1538 H1529 0.930 . S
C1538 C1536 1.384 . S
C1538 C1539 1.372 . S
C1539 C1538 1.372 . S
C1539 C1540 1.400 . S
C1539 C1544 1.490 . S
C1540 H1530 0.930 . S
C1540 C1539 1.400 . S
C1540 C1543 1.386 . S
H1541 C1557 0.930 . S
H1542 C1558 0.931 . S
C1543 H1531 0.929 . S
C1543 C1537 1.390 . S
C1543 C1540 1.386 . S
C1544 C1539 1.490 . S
C1544 C1546 1.395 . S
C1544 C1547 1.403 . S
H1545 C1551 0.930 . S
C1546 H1532 0.930 . S
C1546 C1544 1.395 . S
C1546 C1549 1.403 . S
C1547 C1544 1.403 . S
C1547 C1548 1.524 . S
C1547 C1551 1.400 . S
C1548 H1533 0.960 . S
C1548 H1534 0.960 . S
C1548 H1535 0.960 . S
C1548 C1547 1.524 . S
C1549 C1546 1.403 . S
C1549 C1550 1.392 . S
C1549 C1553 1.495 . S
C1550 C1549 1.392 . S
C1550 C1551 1.385 . S
C1550 C1552 1.478 . S
C1551 H1545 0.930 . S
C1551 C1547 1.400 . S
C1551 C1550 1.385 . S
C1552 C1550 1.478 . S
C1552 C1554 1.381 . S
C1552 C1558 1.383 . S
C1553 C1549 1.495 . S
C1553 H1559 0.959 . S
C1553 H1560 0.961 . S
C1553 H1561 0.960 . S
C1554 C1552 1.381 . S
C1554 C1555 1.394 . S
C1554 H1562 0.930 . S
C1555 C1554 1.394 . S
C1555 C1556 1.383 . S
C1555 H1563 0.929 . S
C1556 C1555 1.383 . S
C1556 C1557 1.377 . S
C1557 H1541 0.930 . S
C1557 C1556 1.377 . S
C1557 C1558 1.379 . S
C1558 H1542 0.931 . S
C1558 C1552 1.383 . S
C1558 C1557 1.379 . S
H1559 C1553 0.959 . S
H1560 C1553 0.961 . S
H1561 C1553 0.960 . S
H1562 C1554 0.930 . S
H1563 C1555 0.929 . S
H1564 C1572 0.929 . S
H1565 C1574 0.930 . S
H1566 C1576 0.930 . S
H1567 C1579 0.929 . S
H1568 C1582 0.930 . S
H1569 C1584 0.960 . S
H1570 C1584 0.960 . S
H1571 C1584 0.960 . S
C1572 H1564 0.929 . S
C1572 C1573 1.377 . S
C1572 C1574 1.384 . S
C1573 C1572 1.377 . S
C1573 C1579 1.390 . S
C1574 H1565 0.930 . S
C1574 C1572 1.384 . S
C1574 C1575 1.372 . S
C1575 C1574 1.372 . S
C1575 C1576 1.400 . S
C1575 C1580 1.490 . S
C1576 H1566 0.930 . S
C1576 C1575 1.400 . S
C1576 C1579 1.386 . S
H1577 C1593 0.930 . S
H1578 C1594 0.931 . S
C1579 H1567 0.929 . S
C1579 C1573 1.390 . S
C1579 C1576 1.386 . S
C1580 C1575 1.490 . S
C1580 C1582 1.395 . S
C1580 C1583 1.403 . S
H1581 C1587 0.930 . S
C1582 H1568 0.930 . S
C1582 C1580 1.395 . S
C1582 C1585 1.403 . S
C1583 C1580 1.403 . S
C1583 C1584 1.524 . S
C1583 C1587 1.400 . S
C1584 H1569 0.960 . S
C1584 H1570 0.960 . S
C1584 H1571 0.960 . S
C1584 C1583 1.524 . S
C1585 C1582 1.403 . S
C1585 C1586 1.392 . S
C1585 C1589 1.495 . S
C1586 C1585 1.392 . S
C1586 C1587 1.385 . S
C1586 C1588 1.478 . S
C1587 H1581 0.930 . S
C1587 C1583 1.400 . S
C1587 C1586 1.385 . S
C1588 C1586 1.478 . S
C1588 C1590 1.381 . S
C1588 C1594 1.383 . S
C1589 C1585 1.495 . S
C1589 H1595 0.959 . S
C1589 H1596 0.961 . S
C1589 H1597 0.960 . S
C1590 C1588 1.381 . S
C1590 C1591 1.394 . S
C1590 H1598 0.930 . S
C1591 C1590 1.394 . S
C1591 C1592 1.383 . S
C1591 H1599 0.929 . S
C1592 C1591 1.383 . S
C1592 C1593 1.377 . S
C1593 H1577 0.930 . S
C1593 C1592 1.377 . S
C1593 C1594 1.379 . S
C1594 H1578 0.931 . S
C1594 C1588 1.383 . S
C1594 C1593 1.379 . S
H1595 C1589 0.959 . S
H1596 C1589 0.961 . S
H1597 C1589 0.960 . S
H1598 C1590 0.930 . S
H1599 C1591 0.929 . S
H1600 C1608 0.929 . S
H1601 C1610 0.930 . S
H1602 C1612 0.930 . S
H1603 C1615 0.929 . S
H1604 C1618 0.930 . S
H1605 C1620 0.960 . S
H1606 C1620 0.960 . S
H1607 C1620 0.960 . S
C1608 H1600 0.929 . S
C1608 C1609 1.377 . S
C1608 C1610 1.384 . S
C1609 C1608 1.377 . S
C1609 C1615 1.390 . S
C1610 H1601 0.930 . S
C1610 C1608 1.384 . S
C1610 C1611 1.372 . S
C1611 C1610 1.372 . S
C1611 C1612 1.400 . S
C1611 C1616 1.490 . S
C1612 H1602 0.930 . S
C1612 C1611 1.400 . S
C1612 C1615 1.386 . S
H1613 C1629 0.930 . S
H1614 C1630 0.931 . S
C1615 H1603 0.929 . S
C1615 C1609 1.390 . S
C1615 C1612 1.386 . S
C1616 C1611 1.490 . S
C1616 C1618 1.395 . S
C1616 C1619 1.403 . S
H1617 C1623 0.930 . S
C1618 H1604 0.930 . S
C1618 C1616 1.395 . S
C1618 C1621 1.403 . S
C1619 C1616 1.403 . S
C1619 C1620 1.524 . S
C1619 C1623 1.400 . S
C1620 H1605 0.960 . S
C1620 H1606 0.960 . S
C1620 H1607 0.960 . S
C1620 C1619 1.524 . S
C1621 C1618 1.403 . S
C1621 C1622 1.392 . S
C1621 C1625 1.495 . S
C1622 C1621 1.392 . S
C1622 C1623 1.385 . S
C1622 C1624 1.478 . S
C1623 H1617 0.930 . S
C1623 C1619 1.400 . S
C1623 C1622 1.385 . S
C1624 C1622 1.478 . S
C1624 C1626 1.381 . S
C1624 C1630 1.383 . S
C1625 C1621 1.495 . S
C1625 H1631 0.959 . S
C1625 H1632 0.961 . S
C1625 H1633 0.960 . S
C1626 C1624 1.381 . S
C1626 C1627 1.394 . S
C1626 H1634 0.930 . S
C1627 C1626 1.394 . S
C1627 C1628 1.383 . S
C1627 H1635 0.929 . S
C1628 C1627 1.383 . S
C1628 C1629 1.377 . S
C1629 H1613 0.930 . S
C1629 C1628 1.377 . S
C1629 C1630 1.379 . S
C1630 H1614 0.931 . S
C1630 C1624 1.383 . S
C1630 C1629 1.379 . S
H1631 C1625 0.959 . S
H1632 C1625 0.961 . S
H1633 C1625 0.960 . S
H1634 C1626 0.930 . S
H1635 C1627 0.929 . S
H1636 C1644 0.929 . S
H1637 C1646 0.930 . S
H1638 C1648 0.930 . S
H1639 C1651 0.929 . S
H1640 C1654 0.930 . S
H1641 C1656 0.960 . S
H1642 C1656 0.960 . S
H1643 C1656 0.960 . S
C1644 H1636 0.929 . S
C1644 C1645 1.377 . S
C1644 C1646 1.384 . S
C1645 C1644 1.377 . S
C1645 C1651 1.390 . S
C1646 H1637 0.930 . S
C1646 C1644 1.384 . S
C1646 C1647 1.372 . S
C1647 C1646 1.372 . S
C1647 C1648 1.400 . S
C1647 C1652 1.490 . S
C1648 H1638 0.930 . S
C1648 C1647 1.400 . S
C1648 C1651 1.386 . S
H1649 C1665 0.930 . S
H1650 C1666 0.931 . S
C1651 H1639 0.929 . S
C1651 C1645 1.390 . S
C1651 C1648 1.386 . S
C1652 C1647 1.490 . S
C1652 C1654 1.395 . S
C1652 C1655 1.403 1_655 S
H1653 C1659 0.930 . S
C1654 H1640 0.930 . S
C1654 C1652 1.395 . S
C1654 C1657 1.403 1_565 S
C1655 C1652 1.403 1_455 S
C1655 C1656 1.524 . S
C1655 C1659 1.400 1_565 S
C1656 H1641 0.960 . S
C1656 H1642 0.960 . S
C1656 H1643 0.960 . S
C1656 C1655 1.524 . S
C1657 C1654 1.403 1_545 S
C1657 C1658 1.392 1_655 S
C1657 C1661 1.495 . S
C1658 C1657 1.392 1_455 S
C1658 C1659 1.385 . S
C1658 C1660 1.478 . S
C1659 H1653 0.930 . S
C1659 C1655 1.400 1_545 S
C1659 C1658 1.385 . S
C1660 C1658 1.478 . S
C1660 C1662 1.381 . S
C1660 C1666 1.383 . S
C1661 C1657 1.495 . S
C1661 H1667 0.959 . S
C1661 H1668 0.961 . S
C1661 H1669 0.960 . S
C1662 C1660 1.381 . S
C1662 C1663 1.394 . S
C1662 H1670 0.930 . S
C1663 C1662 1.394 . S
C1663 C1664 1.383 . S
C1663 H1671 0.929 . S
C1664 C1663 1.383 . S
C1664 C1665 1.377 . S
C1665 H1649 0.930 . S
C1665 C1664 1.377 . S
C1665 C1666 1.379 . S
C1666 H1650 0.931 . S
C1666 C1660 1.383 . S
C1666 C1665 1.379 . S
H1667 C1661 0.959 . S
H1668 C1661 0.961 . S
H1669 C1661 0.960 . S
H1670 C1662 0.930 . S
H1671 C1663 0.929 . S
H1672 C1680 0.929 . S
H1673 C1682 0.930 . S
H1674 C1684 0.930 . S
H1675 C1687 0.929 . S
H1676 C1690 0.930 . S
H1677 C1692 0.960 . S
H1678 C1692 0.960 . S
H1679 C1692 0.960 . S
C1680 H1672 0.929 . S
C1680 C1681 1.377 . S
C1680 C1682 1.384 . S
C1681 C1680 1.377 . S
C1681 C1687 1.390 . S
C1682 H1673 0.930 . S
C1682 C1680 1.384 . S
C1682 C1683 1.372 . S
C1683 C1682 1.372 . S
C1683 C1684 1.400 . S
C1683 C1688 1.490 . S
C1684 H1674 0.930 . S
C1684 C1683 1.400 . S
C1684 C1687 1.386 . S
H1685 C1701 0.930 . S
H1686 C1702 0.931 . S
C1687 H1675 0.929 . S
C1687 C1681 1.390 . S
C1687 C1684 1.386 . S
C1688 C1683 1.490 . S
C1688 C1690 1.395 . S
C1688 C1691 1.403 . S
H1689 C1695 0.930 . S
C1690 H1676 0.930 . S
C1690 C1688 1.395 . S
C1690 C1693 1.403 . S
C1691 C1688 1.403 . S
C1691 C1692 1.524 . S
C1691 C1695 1.400 . S
C1692 H1677 0.960 . S
C1692 H1678 0.960 . S
C1692 H1679 0.960 . S
C1692 C1691 1.524 . S
C1693 C1690 1.403 . S
C1693 C1694 1.392 . S
C1693 C1697 1.495 . S
C1694 C1693 1.392 . S
C1694 C1695 1.385 . S
C1694 C1696 1.478 . S
C1695 H1689 0.930 . S
C1695 C1691 1.400 . S
C1695 C1694 1.385 . S
C1696 C1694 1.478 . S
C1696 C1698 1.381 . S
C1696 C1702 1.383 . S
C1697 C1693 1.495 . S
C1697 H1703 0.959 . S
C1697 H1704 0.961 . S
C1697 H1705 0.960 . S
C1698 C1696 1.381 . S
C1698 C1699 1.394 . S
C1698 H1706 0.930 . S
C1699 C1698 1.394 . S
C1699 C1700 1.383 . S
C1699 H1707 0.929 . S
C1700 C1699 1.383 . S
C1700 C1701 1.377 . S
C1701 H1685 0.930 . S
C1701 C1700 1.377 . S
C1701 C1702 1.379 . S
C1702 H1686 0.931 . S
C1702 C1696 1.383 . S
C1702 C1701 1.379 . S
H1703 C1697 0.959 . S
H1704 C1697 0.961 . S
H1705 C1697 0.960 . S
H1706 C1698 0.930 . S
H1707 C1699 0.929 . S
H1708 C1716 0.929 . S
H1709 C1718 0.930 . S
H1710 C1720 0.957 . S
H1711 C1723 0.929 1_556 S
H1712 C1726 0.930 . S
H1713 C1728 0.960 1_565 S
H1714 C1728 0.933 1_554 S
H1715 C1728 0.960 . S
C1716 H1708 0.929 . S
C1716 C1717 1.377 . S
C1716 C1718 1.384 . S
C1717 C1716 1.377 . S
C1717 C1723 1.390 . S
C1718 H1709 0.930 . S
C1718 C1716 1.384 . S
C1718 C1719 1.372 . S
C1719 C1718 1.372 . S
C1719 C1720 1.381 1_554 S
C1719 C1724 1.490 . S
C1720 H1710 0.957 . S
C1720 C1719 1.381 1_556 S
C1720 C1723 1.378 1_556 S
H1721 C1737 0.930 . S
H1722 C1738 0.931 . S
C1723 H1711 0.929 1_554 S
C1723 C1717 1.390 . S
C1723 C1720 1.378 1_554 S
C1724 C1719 1.490 . S
C1724 C1726 1.395 . S
C1724 C1727 1.403 1_554 S
H1725 C1731 0.930 . S
C1726 H1712 0.930 . S
C1726 C1724 1.395 . S
C1726 C1729 1.403 1_545 S
C1727 C1724 1.403 1_556 S
C1727 C1728 1.524 . S
C1727 C1731 1.400 1_545 S
C1728 H1713 0.960 1_545 S
C1728 H1714 0.933 1_556 S
C1728 H1715 0.960 . S
C1728 C1727 1.524 . S
C1729 C1726 1.403 1_565 S
C1729 C1730 1.392 1_554 S
C1729 C1733 1.495 . S
C1730 C1729 1.392 1_556 S
C1730 C1731 1.385 . S
C1730 C1732 1.478 . S
C1731 H1725 0.930 . S
C1731 C1727 1.400 1_565 S
C1731 C1730 1.385 . S
C1732 C1730 1.478 . S
C1732 C1734 1.381 1_556 S
C1732 C1738 1.383 . S
C1733 C1729 1.495 . S
C1733 H1739 0.959 1_565 S
C1733 H1740 0.961 . S
C1733 H1741 0.960 . S
C1734 C1732 1.381 1_554 S
C1734 C1735 1.394 1_554 S
C1734 H1742 0.930 . S
C1735 C1734 1.394 1_556 S
C1735 C1736 1.383 . S
C1735 H1743 0.929 1_556 S
C1736 C1735 1.383 . S
C1736 C1737 1.377 . S
C1737 H1721 0.930 . S
C1737 C1736 1.377 . S
C1737 C1738 1.379 . S
C1738 H1722 0.931 . S
C1738 C1732 1.383 . S
C1738 C1737 1.379 . S
H1739 C1733 0.959 1_545 S
H1740 C1733 0.961 . S
H1741 C1733 0.960 . S
H1742 C1734 0.930 . S
H1743 C1735 0.929 1_554 S
H1744 C1752 0.929 . S
H1745 C1754 0.930 . S
H1746 C1756 0.930 . S
H1747 C1759 0.929 . S
H1748 C1762 0.930 . S
H1749 C1764 0.960 . S
H1750 C1764 0.960 . S
H1751 C1764 0.960 . S
C1752 H1744 0.929 . S
C1752 C1753 1.377 . S
C1752 C1754 1.384 . S
C1753 C1752 1.377 . S
C1753 C1759 1.390 . S
C1754 H1745 0.930 . S
C1754 C1752 1.384 . S
C1754 C1755 1.372 . S
C1755 C1754 1.372 . S
C1755 C1756 1.400 . S
C1755 C1760 1.490 . S
C1756 H1746 0.930 . S
C1756 C1755 1.400 . S
C1756 C1759 1.386 . S
H1757 C1773 0.930 . S
H1758 C1774 0.931 . S
C1759 H1747 0.929 . S
C1759 C1753 1.390 . S
C1759 C1756 1.386 . S
C1760 C1755 1.490 . S
C1760 C1762 1.395 . S
C1760 C1763 1.403 . S
H1761 C1767 0.930 . S
C1762 H1748 0.930 . S
C1762 C1760 1.395 . S
C1762 C1765 1.403 . S
C1763 C1760 1.403 . S
C1763 C1764 1.524 . S
C1763 C1767 1.400 . S
C1764 H1749 0.960 . S
C1764 H1750 0.960 . S
C1764 H1751 0.960 . S
C1764 C1763 1.524 . S
C1765 C1762 1.403 . S
C1765 C1766 1.392 . S
C1765 C1769 1.495 . S
C1766 C1765 1.392 . S
C1766 C1767 1.385 . S
C1766 C1768 1.478 . S
C1767 H1761 0.930 . S
C1767 C1763 1.400 . S
C1767 C1766 1.385 . S
C1768 C1766 1.478 . S
C1768 C1770 1.381 . S
C1768 C1774 1.383 . S
C1769 C1765 1.495 . S
C1769 H1775 0.959 . S
C1769 H1776 0.961 . S
C1769 H1777 0.960 . S
C1770 C1768 1.381 . S
C1770 C1771 1.394 . S
C1770 H1778 0.930 . S
C1771 C1770 1.394 . S
C1771 C1772 1.383 . S
C1771 H1779 0.929 . S
C1772 C1771 1.383 . S
C1772 C1773 1.377 . S
C1773 H1757 0.930 . S
C1773 C1772 1.377 . S
C1773 C1774 1.379 . S
C1774 H1758 0.931 . S
C1774 C1768 1.383 . S
C1774 C1773 1.379 . S
H1775 C1769 0.959 . S
H1776 C1769 0.961 . S
H1777 C1769 0.960 . S
H1778 C1770 0.930 . S
H1779 C1771 0.929 . S
H1780 C1788 0.929 . S
H1781 C1790 0.930 . S
H1782 C1792 0.930 . S
H1783 C1795 0.929 . S
H1784 C1798 0.929 1_565 S
H1785 C1800 0.960 . S
H1786 C1800 0.960 . S
H1787 C1800 0.960 . S
C1788 H1780 0.929 . S
C1788 C1789 1.377 . S
C1788 C1790 1.384 . S
C1789 C1788 1.377 . S
C1789 C1795 1.390 . S
C1790 H1781 0.930 . S
C1790 C1788 1.384 . S
C1790 C1791 1.372 . S
C1791 C1790 1.372 . S
C1791 C1792 1.400 . S
C1791 C1796 1.490 . S
C1792 H1782 0.930 . S
C1792 C1791 1.400 . S
C1792 C1795 1.386 . S
H1793 C1809 0.930 . S
H1794 C1810 0.931 . S
C1795 H1783 0.929 . S
C1795 C1789 1.390 . S
C1795 C1792 1.386 . S
C1796 C1791 1.490 . S
C1796 C1798 1.374 1_565 S
C1796 C1799 1.403 . S
H1797 C1803 0.930 . S
C1798 H1784 0.929 1_545 S
C1798 C1796 1.374 1_545 S
C1798 C1801 1.425 . S
C1799 C1796 1.403 . S
C1799 C1800 1.524 . S
C1799 C1803 1.400 1_565 S
C1800 H1785 0.960 . S
C1800 H1786 0.960 . S
C1800 H1787 0.960 . S
C1800 C1799 1.524 . S
C1801 C1798 1.425 . S
C1801 C1802 1.392 . S
C1801 C1805 1.495 . S
C1802 C1801 1.392 . S
C1802 C1803 1.385 . S
C1802 C1804 1.478 . S
C1803 H1797 0.930 . S
C1803 C1799 1.400 1_545 S
C1803 C1802 1.385 . S
C1804 C1802 1.478 . S
C1804 C1806 1.381 . S
C1804 C1810 1.383 . S
C1805 C1801 1.495 . S
C1805 H1811 0.959 . S
C1805 H1812 0.961 . S
C1805 H1813 0.960 . S
C1806 C1804 1.381 . S
C1806 C1807 1.394 . S
C1806 H1814 0.930 . S
C1807 C1806 1.394 . S
C1807 C1808 1.383 . S
C1807 H1815 0.929 . S
C1808 C1807 1.383 . S
C1808 C1809 1.377 . S
C1809 H1793 0.930 . S
C1809 C1808 1.377 . S
C1809 C1810 1.379 . S
C1810 H1794 0.931 . S
C1810 C1804 1.383 . S
C1810 C1809 1.379 . S
H1811 C1805 0.959 . S
H1812 C1805 0.961 . S
H1813 C1805 0.960 . S
H1814 C1806 0.930 . S
H1815 C1807 0.929 . S
H1816 C1824 0.929 . S
H1817 C1826 0.930 . S
H1818 C1828 0.930 . S
H1819 C1831 0.929 . S
H1820 C1834 0.930 . S
H1821 C1836 0.960 . S
H1822 C1836 0.960 . S
H1823 C1836 0.960 . S
C1824 H1816 0.929 . S
C1824 C1825 1.377 . S
C1824 C1826 1.384 . S
C1825 C1824 1.377 . S
C1825 C1831 1.390 . S
C1826 H1817 0.930 . S
C1826 C1824 1.384 . S
C1826 C1827 1.372 . S
C1827 C1826 1.372 . S
C1827 C1828 1.400 . S
C1827 C1832 1.490 . S
C1828 H1818 0.930 . S
C1828 C1827 1.400 . S
C1828 C1831 1.386 . S
H1829 C1845 0.930 . S
H1830 C1846 0.931 . S
C1831 H1819 0.929 . S
C1831 C1825 1.390 . S
C1831 C1828 1.386 . S
C1832 C1827 1.490 . S
C1832 C1834 1.395 . S
C1832 C1835 1.403 . S
H1833 C1839 0.930 . S
C1834 H1820 0.930 . S
C1834 C1832 1.395 . S
C1834 C1837 1.403 . S
C1835 C1832 1.403 . S
C1835 C1836 1.524 . S
C1835 C1839 1.400 . S
C1836 H1821 0.960 . S
C1836 H1822 0.960 . S
C1836 H1823 0.960 . S
C1836 C1835 1.524 . S
C1837 C1834 1.403 . S
C1837 C1838 1.392 . S
C1837 C1841 1.495 . S
C1838 C1837 1.392 . S
C1838 C1839 1.385 . S
C1838 C1840 1.478 . S
C1839 H1833 0.930 . S
C1839 C1835 1.400 . S
C1839 C1838 1.385 . S
C1840 C1838 1.478 . S
C1840 C1842 1.381 . S
C1840 C1846 1.383 . S
C1841 C1837 1.495 . S
C1841 H1847 0.959 . S
C1841 H1848 0.961 . S
C1841 H1849 0.960 . S
C1842 C1840 1.381 . S
C1842 C1843 1.394 . S
C1842 H1850 0.930 . S
C1843 C1842 1.394 . S
C1843 C1844 1.383 . S
C1843 H1851 0.929 . S
C1844 C1843 1.383 . S
C1844 C1845 1.377 . S
C1845 H1829 0.930 . S
C1845 C1844 1.377 . S
C1845 C1846 1.379 . S
C1846 H1830 0.931 . S
C1846 C1840 1.383 . S
C1846 C1845 1.379 . S
H1847 C1841 0.959 . S
H1848 C1841 0.961 . S
H1849 C1841 0.960 . S
H1850 C1842 0.930 . S
H1851 C1843 0.929 . S
H1852 C1860 0.929 1_554 S
H1853 C1862 0.930 . S
H1854 C1864 0.930 . S
H1855 C1867 0.929 . S
H1856 C1870 0.930 . S
H1857 C1872 0.960 . S
H1858 C1872 0.960 . S
H1859 C1872 0.960 . S
C1860 H1852 0.929 1_556 S
C1860 C1861 1.377 . S
C1860 C1862 1.384 1_556 S
C1861 C1860 1.377 . S
C1861 C1867 1.390 . S
C1862 H1853 0.930 . S
C1862 C1860 1.384 1_554 S
C1862 C1863 1.372 1_554 S
C1863 C1862 1.372 1_556 S
C1863 C1864 1.400 . S
C1863 C1868 1.490 . S
C1864 H1854 0.930 . S
C1864 C1863 1.400 . S
C1864 C1867 1.386 . S
H1865 C1881 0.930 1_556 S
H1866 C1882 0.884 1_556 S
C1867 H1855 0.929 . S
C1867 C1861 1.390 . S
C1867 C1864 1.386 . S
C1868 C1863 1.490 . S
C1868 C1870 1.395 1_556 S
C1868 C1871 1.403 1_655 S
H1869 C1875 0.930 . S
C1870 H1856 0.930 . S
C1870 C1868 1.395 1_554 S
C1870 C1873 1.403 1_545 S
C1871 C1868 1.403 1_455 S
C1871 C1872 1.524 . S
C1871 C1875 1.400 1_545 S
C1872 H1857 0.960 . S
C1872 H1858 0.960 . S
C1872 H1859 0.960 . S
C1872 C1871 1.524 . S
C1873 C1870 1.403 1_565 S
C1873 C1874 1.392 1_655 S
C1873 C1877 1.495 . S
C1874 C1873 1.392 1_455 S
C1874 C1875 1.385 1_554 S
C1874 C1876 1.478 . S
C1875 H1869 0.930 . S
C1875 C1871 1.400 1_565 S
C1875 C1874 1.385 1_556 S
C1876 C1874 1.478 . S
C1876 C1878 1.381 . S
C1876 C1882 1.417 . S
C1877 C1873 1.495 . S
C1877 H1883 0.959 . S
C1877 H1884 0.961 . S
C1877 H1885 0.960 . S
C1878 C1876 1.381 . S
C1878 C1879 1.394 . S
C1878 H1886 0.930 . S
C1879 C1878 1.394 . S
C1879 C1880 1.383 . S
C1879 H1887 0.929 . S
C1880 C1879 1.383 . S
C1880 C1881 1.377 . S
C1881 H1865 0.930 1_554 S
C1881 C1880 1.377 . S
C1881 C1882 1.393 . S
C1882 H1866 0.884 1_554 S
C1882 C1876 1.417 . S
C1882 C1881 1.393 . S
H1883 C1877 0.959 . S
H1884 C1877 0.961 . S
H1885 C1877 0.960 . S
H1886 C1878 0.930 . S
H1887 C1879 0.929 . S
H1888 C1896 0.929 . S
H1889 C1898 0.930 . S
H1890 C1900 0.930 . S
H1891 C1903 0.929 . S
H1892 C1906 0.930 . S
H1893 C1908 0.960 . S
H1894 C1908 0.960 . S
H1895 C1908 0.960 . S
C1896 H1888 0.929 . S
C1896 C1897 1.377 . S
C1896 C1898 1.384 . S
C1897 C1896 1.377 . S
C1897 C1903 1.390 . S
C1898 H1889 0.930 . S
C1898 C1896 1.384 . S
C1898 C1899 1.372 . S
C1899 C1898 1.372 . S
C1899 C1900 1.400 . S
C1899 C1904 1.490 . S
C1900 H1890 0.930 . S
C1900 C1899 1.400 . S
C1900 C1903 1.386 . S
H1901 C1917 0.930 . S
H1902 C1918 0.931 . S
C1903 H1891 0.929 . S
C1903 C1897 1.390 . S
C1903 C1900 1.386 . S
C1904 C1899 1.490 . S
C1904 C1906 1.395 . S
C1904 C1907 1.403 . S
H1905 C1911 0.930 . S
C1906 H1892 0.930 . S
C1906 C1904 1.395 . S
C1906 C1909 1.403 . S
C1907 C1904 1.403 . S
C1907 C1908 1.524 . S
C1907 C1911 1.400 . S
C1908 H1893 0.960 . S
C1908 H1894 0.960 . S
C1908 H1895 0.960 . S
C1908 C1907 1.524 . S
C1909 C1906 1.403 . S
C1909 C1910 1.392 . S
C1909 C1913 1.495 . S
C1910 C1909 1.392 . S
C1910 C1911 1.385 . S
C1910 C1912 1.478 . S
C1911 H1905 0.930 . S
C1911 C1907 1.400 . S
C1911 C1910 1.385 . S
C1912 C1910 1.478 . S
C1912 C1914 1.381 . S
C1912 C1918 1.383 . S
C1913 C1909 1.495 . S
C1913 H1919 0.959 . S
C1913 H1920 0.961 . S
C1913 H1921 0.960 . S
C1914 C1912 1.381 . S
C1914 C1915 1.394 . S
C1914 H1922 0.930 . S
C1915 C1914 1.394 . S
C1915 C1916 1.383 . S
C1915 H1923 0.929 . S
C1916 C1915 1.383 . S
C1916 C1917 1.377 . S
C1917 H1901 0.930 . S
C1917 C1916 1.377 . S
C1917 C1918 1.379 . S
C1918 H1902 0.931 . S
C1918 C1912 1.383 . S
C1918 C1917 1.379 . S
H1919 C1913 0.959 . S
H1920 C1913 0.961 . S
H1921 C1913 0.960 . S
H1922 C1914 0.930 . S
H1923 C1915 0.929 . S
H1924 C1932 0.929 . S
H1925 C1934 0.930 . S
H1926 C1936 0.930 . S
H1927 C1939 0.929 . S
H1928 C1942 0.930 . S
H1929 C1944 0.960 . S
H1930 C1944 0.960 . S
H1931 C1944 0.960 . S
C1932 H1924 0.929 . S
C1932 C1933 1.377 . S
C1932 C1934 1.384 . S
C1933 C1932 1.377 . S
C1933 C1939 1.390 . S
C1934 H1925 0.930 . S
C1934 C1932 1.384 . S
C1934 C1935 1.372 . S
C1935 C1934 1.372 . S
C1935 C1936 1.400 . S
C1935 C1940 1.490 . S
C1936 H1926 0.930 . S
C1936 C1935 1.400 . S
C1936 C1939 1.386 . S
H1937 C1953 0.930 . S
H1938 C1954 0.931 . S
C1939 H1927 0.929 . S
C1939 C1933 1.390 . S
C1939 C1936 1.386 . S
C1940 C1935 1.490 . S
C1940 C1942 1.395 . S
C1940 C1943 1.403 . S
H1941 C1947 0.930 . S
C1942 H1928 0.930 . S
C1942 C1940 1.395 . S
C1942 C1945 1.403 . S
C1943 C1940 1.403 . S
C1943 C1944 1.524 . S
C1943 C1947 1.400 . S
C1944 H1929 0.960 . S
C1944 H1930 0.960 . S
C1944 H1931 0.960 . S
C1944 C1943 1.524 . S
C1945 C1942 1.403 . S
C1945 C1946 1.392 . S
C1945 C1949 1.495 . S
C1946 C1945 1.392 . S
C1946 C1947 1.385 . S
C1946 C1948 1.478 . S
C1947 H1941 0.930 . S
C1947 C1943 1.400 . S
C1947 C1946 1.385 . S
C1948 C1946 1.478 . S
C1948 C1950 1.381 . S
C1948 C1954 1.383 . S
C1949 C1945 1.495 . S
C1949 H1955 0.959 . S
C1949 H1956 0.961 . S
C1949 H1957 0.960 . S
C1950 C1948 1.381 . S
C1950 C1951 1.394 . S
C1950 H1958 0.930 . S
C1951 C1950 1.394 . S
C1951 C1952 1.383 . S
C1951 H1959 0.929 . S
C1952 C1951 1.383 . S
C1952 C1953 1.377 . S
C1953 H1937 0.930 . S
C1953 C1952 1.377 . S
C1953 C1954 1.379 . S
C1954 H1938 0.931 . S
C1954 C1948 1.383 . S
C1954 C1953 1.379 . S
H1955 C1949 0.959 . S
H1956 C1949 0.961 . S
H1957 C1949 0.960 . S
H1958 C1950 0.930 . S
H1959 C1951 0.929 . S
H1960 C1968 0.929 . S
H1961 C1970 0.930 . S
H1962 C1972 0.930 . S
H1963 C1975 0.929 . S
H1964 C1978 0.930 . S
H1965 C1980 0.960 . S
H1966 C1980 0.960 . S
H1967 C1980 0.960 . S
C1968 H1960 0.929 . S
C1968 C1969 1.377 . S
C1968 C1970 1.384 . S
C1969 C1968 1.377 . S
C1969 C1975 1.390 . S
C1970 H1961 0.930 . S
C1970 C1968 1.384 . S
C1970 C1971 1.372 . S
C1971 C1970 1.372 . S
C1971 C1972 1.400 . S
C1971 C1976 1.490 . S
C1972 H1962 0.930 . S
C1972 C1971 1.400 . S
C1972 C1975 1.386 . S
H1973 C1989 0.930 . S
H1974 C1990 0.931 . S
C1975 H1963 0.929 . S
C1975 C1969 1.390 . S
C1975 C1972 1.386 . S
C1976 C1971 1.490 . S
C1976 C1978 1.395 . S
C1976 C1979 1.403 . S
H1977 C1983 0.930 . S
C1978 H1964 0.930 . S
C1978 C1976 1.395 . S
C1978 C1981 1.403 . S
C1979 C1976 1.403 . S
C1979 C1980 1.524 . S
C1979 C1983 1.400 . S
C1980 H1965 0.960 . S
C1980 H1966 0.960 . S
C1980 H1967 0.960 . S
C1980 C1979 1.524 . S
C1981 C1978 1.403 . S
C1981 C1982 1.392 . S
C1981 C1985 1.495 . S
C1982 C1981 1.392 . S
C1982 C1983 1.385 . S
C1982 C1984 1.478 . S
C1983 H1977 0.930 . S
C1983 C1979 1.400 . S
C1983 C1982 1.385 . S
C1984 C1982 1.478 . S
C1984 C1986 1.381 . S
C1984 C1990 1.383 . S
C1985 C1981 1.495 . S
C1985 H1991 0.959 . S
C1985 H1992 0.961 . S
C1985 H1993 0.960 . S
C1986 C1984 1.381 . S
C1986 C1987 1.394 . S
C1986 H1994 0.930 . S
C1987 C1986 1.394 . S
C1987 C1988 1.383 . S
C1987 H1995 0.929 . S
C1988 C1987 1.383 . S
C1988 C1989 1.377 . S
C1989 H1973 0.930 . S
C1989 C1988 1.377 . S
C1989 C1990 1.379 . S
C1990 H1974 0.931 . S
C1990 C1984 1.383 . S
C1990 C1989 1.379 . S
H1991 C1985 0.959 . S
H1992 C1985 0.961 . S
H1993 C1985 0.960 . S
H1994 C1986 0.930 . S
H1995 C1987 0.929 . S
H1996 C2004 0.929 . S
H1997 C2006 0.930 . S
H1998 C2008 0.930 . S
H1999 C2011 0.929 . S
H2000 C2014 0.930 . S
H2001 C2016 0.960 . S
H2002 C2016 0.960 . S
H2003 C2016 0.960 . S
C2004 H1996 0.929 . S
C2004 C2005 1.377 . S
C2004 C2006 1.384 . S
C2005 C2004 1.377 . S
C2005 C2011 1.390 . S
C2006 H1997 0.930 . S
C2006 C2004 1.384 . S
C2006 C2007 1.372 . S
C2007 C2006 1.372 . S
C2007 C2008 1.400 . S
C2007 C2012 1.490 . S
C2008 H1998 0.930 . S
C2008 C2007 1.400 . S
C2008 C2011 1.386 . S
H2009 C2025 0.930 . S
H2010 C2026 0.931 . S
C2011 H1999 0.929 . S
C2011 C2005 1.390 . S
C2011 C2008 1.386 . S
C2012 C2007 1.490 . S
C2012 C2014 1.395 . S
C2012 C2015 1.403 . S
H2013 C2019 0.930 . S
C2014 H2000 0.930 . S
C2014 C2012 1.395 . S
C2014 C2017 1.403 . S
C2015 C2012 1.403 . S
C2015 C2016 1.524 . S
C2015 C2019 1.400 . S
C2016 H2001 0.960 . S
C2016 H2002 0.960 . S
C2016 H2003 0.960 . S
C2016 C2015 1.524 . S
C2017 C2014 1.403 . S
C2017 C2018 1.392 . S
C2017 C2021 1.495 . S
C2018 C2017 1.392 . S
C2018 C2019 1.385 . S
C2018 C2020 1.478 . S
C2019 H2013 0.930 . S
C2019 C2015 1.400 . S
C2019 C2018 1.385 . S
C2020 C2018 1.478 . S
C2020 C2022 1.381 . S
C2020 C2026 1.383 . S
C2021 C2017 1.495 . S
C2021 H2027 0.959 . S
C2021 H2028 0.961 . S
C2021 H2029 0.960 . S
C2022 C2020 1.381 . S
C2022 C2023 1.394 . S
C2022 H2030 0.930 . S
C2023 C2022 1.394 . S
C2023 C2024 1.383 . S
C2023 H2031 0.929 . S
C2024 C2023 1.383 . S
C2024 C2025 1.377 . S
C2025 H2009 0.930 . S
C2025 C2024 1.377 . S
C2025 C2026 1.379 . S
C2026 H2010 0.931 . S
C2026 C2020 1.383 . S
C2026 C2025 1.379 . S
H2027 C2021 0.959 . S
H2028 C2021 0.961 . S
H2029 C2021 0.960 . S
H2030 C2022 0.930 . S
H2031 C2023 0.929 . S
H2032 C2040 0.929 . S
H2033 C2042 0.930 . S
H2034 C2044 0.930 . S
H2035 C2047 0.929 . S
H2036 C2050 0.930 . S
H2037 C2052 0.960 . S
H2038 C2052 0.960 . S
H2039 C2052 0.960 . S
C2040 H2032 0.929 . S
C2040 C2041 1.377 . S
C2040 C2042 1.384 . S
C2041 C2040 1.377 . S
C2041 C2047 1.390 . S
C2042 H2033 0.930 . S
C2042 C2040 1.384 . S
C2042 C2043 1.372 . S
C2043 C2042 1.372 . S
C2043 C2044 1.400 . S
C2043 C2048 1.490 . S
C2044 H2034 0.930 . S
C2044 C2043 1.400 . S
C2044 C2047 1.386 . S
H2045 C2061 0.930 . S
H2046 C2062 0.931 . S
C2047 H2035 0.929 . S
C2047 C2041 1.390 . S
C2047 C2044 1.386 . S
C2048 C2043 1.490 . S
C2048 C2050 1.395 1_554 S
C2048 C2051 1.403 . S
H2049 C2055 0.930 . S
C2050 H2036 0.930 . S
C2050 C2048 1.395 1_556 S
C2050 C2053 1.403 . S
C2051 C2048 1.403 . S
C2051 C2052 1.524 . S
C2051 C2055 1.400 . S
C2052 H2037 0.960 . S
C2052 H2038 0.960 . S
C2052 H2039 0.960 . S
C2052 C2051 1.524 . S
C2053 C2050 1.403 . S
C2053 C2054 1.392 . S
C2053 C2057 1.495 . S
C2054 C2053 1.392 . S
C2054 C2055 1.385 1_556 S
C2054 C2056 1.478 . S
C2055 H2049 0.930 . S
C2055 C2051 1.400 . S
C2055 C2054 1.385 1_554 S
C2056 C2054 1.478 . S
C2056 C2058 1.381 . S
C2056 C2062 1.383 . S
C2057 C2053 1.495 . S
C2057 H2063 0.959 . S
C2057 H2064 0.961 . S
C2057 H2065 0.960 . S
C2058 C2056 1.381 . S
C2058 C2059 1.394 . S
C2058 H2066 0.930 . S
C2059 C2058 1.394 . S
C2059 C2060 1.383 . S
C2059 H2067 0.929 . S
C2060 C2059 1.383 . S
C2060 C2061 1.377 . S
C2061 H2045 0.930 . S
C2061 C2060 1.377 . S
C2061 C2062 1.379 . S
C2062 H2046 0.931 . S
C2062 C2056 1.383 . S
C2062 C2061 1.379 . S
H2063 C2057 0.959 . S
H2064 C2057 0.961 . S
H2065 C2057 0.960 . S
H2066 C2058 0.930 . S
H2067 C2059 0.929 . S
H2068 C2076 0.929 . S
H2069 C2078 0.930 . S
H2070 C2080 0.930 1_455 S
H2071 C2083 0.929 . S
H2072 C2086 0.930 . S
H2073 C2088 0.960 . S
H2074 C2088 0.960 . S
H2075 C2088 0.960 . S
C2076 H2068 0.929 . S
C2076 C2077 1.377 . S
C2076 C2078 1.384 . S
C2077 C2076 1.377 . S
C2077 C2083 1.390 . S
C2078 H2069 0.930 . S
C2078 C2076 1.384 . S
C2078 C2079 1.372 . S
C2079 C2078 1.372 . S
C2079 C2080 1.400 . S
C2079 C2084 1.490 . S
C2080 H2070 0.930 1_655 S
C2080 C2079 1.400 . S
C2080 C2083 1.386 . S
H2081 C2097 0.930 . S
H2082 C2098 0.931 . S
C2083 H2071 0.929 . S
C2083 C2077 1.390 . S
C2083 C2080 1.386 . S
C2084 C2079 1.490 . S
C2084 C2086 1.395 . S
C2084 C2087 1.403 1_655 S
H2085 C2091 0.930 . S
C2086 H2072 0.930 . S
C2086 C2084 1.395 . S
C2086 C2089 1.403 . S
C2087 C2084 1.403 1_455 S
C2087 C2088 1.524 . S
C2087 C2091 1.400 . S
C2088 H2073 0.960 . S
C2088 H2074 0.960 . S
C2088 H2075 0.960 . S
C2088 C2087 1.524 . S
C2089 C2086 1.403 . S
C2089 C2090 1.392 1_655 S
C2089 C2093 1.495 . S
C2090 C2089 1.392 1_455 S
C2090 C2091 1.385 . S
C2090 C2092 1.478 . S
C2091 H2085 0.930 . S
C2091 C2087 1.400 . S
C2091 C2090 1.385 . S
C2092 C2090 1.478 . S
C2092 C2094 1.381 . S
C2092 C2098 1.383 . S
C2093 C2089 1.495 . S
C2093 H2099 0.959 . S
C2093 H2100 0.961 . S
C2093 H2101 0.960 . S
C2094 C2092 1.381 . S
C2094 C2095 1.394 . S
C2094 H2102 0.930 1_455 S
C2095 C2094 1.394 . S
C2095 C2096 1.383 . S
C2095 H2103 0.929 . S
C2096 C2095 1.383 . S
C2096 C2097 1.377 . S
C2097 H2081 0.930 . S
C2097 C2096 1.377 . S
C2097 C2098 1.379 . S
C2098 H2082 0.931 . S
C2098 C2092 1.383 . S
C2098 C2097 1.379 . S
H2099 C2093 0.959 . S
H2100 C2093 0.961 . S
H2101 C2093 0.960 . S
H2102 C2094 0.930 1_655 S
H2103 C2095 0.929 . S
H2104 C2112 0.929 . S
H2105 C2114 0.930 . S
H2106 C2116 0.956 . S
H2107 C2119 0.929 1_554 S
H2108 C2122 0.930 . S
H2109 C2124 0.960 . S
H2110 C2124 0.960 . S
H2111 C2124 0.960 . S
C2112 H2104 0.929 . S
C2112 C2113 1.377 . S
C2112 C2114 1.384 . S
C2113 C2112 1.377 . S
C2113 C2119 1.390 . S
C2114 H2105 0.930 . S
C2114 C2112 1.384 . S
C2114 C2115 1.372 . S
C2115 C2114 1.372 . S
C2115 C2116 1.382 1_556 S
C2115 C2120 1.490 . S
C2116 H2106 0.956 . S
C2116 C2115 1.382 1_554 S
C2116 C2119 1.379 1_554 S
H2117 C2133 0.930 . S
H2118 C2134 0.931 . S
C2119 H2107 0.929 1_556 S
C2119 C2113 1.390 . S
C2119 C2116 1.379 1_556 S
C2120 C2115 1.490 . S
C2120 C2122 1.395 1_455 S
C2120 C2123 1.403 1_556 S
H2121 C2127 0.930 . S
C2122 H2108 0.930 . S
C2122 C2120 1.395 1_655 S
C2122 C2125 1.403 . S
C2123 C2120 1.403 1_554 S
C2123 C2124 1.524 . S
C2123 C2127 1.400 . S
C2124 H2109 0.960 . S
C2124 H2110 0.960 . S
C2124 H2111 0.960 . S
C2124 C2123 1.524 . S
C2125 C2122 1.403 . S
C2125 C2126 1.392 1_556 S
C2125 C2129 1.495 . S
C2126 C2125 1.392 1_554 S
C2126 C2127 1.385 1_655 S
C2126 C2128 1.478 . S
C2127 H2121 0.930 . S
C2127 C2123 1.400 . S
C2127 C2126 1.385 1_455 S
C2128 C2126 1.478 . S
C2128 C2130 1.381 1_554 S
C2128 C2134 1.383 . S
C2129 C2125 1.495 . S
C2129 H2135 0.959 . S
C2129 H2136 0.961 . S
C2129 H2137 0.960 . S
C2130 C2128 1.381 1_556 S
C2130 C2131 1.394 1_556 S
C2130 H2138 0.930 . S
C2131 C2130 1.394 1_554 S
C2131 C2132 1.383 . S
C2131 H2139 0.929 1_554 S
C2132 C2131 1.383 . S
C2132 C2133 1.377 . S
C2133 H2117 0.930 . S
C2133 C2132 1.377 . S
C2133 C2134 1.379 . S
C2134 H2118 0.931 . S
C2134 C2128 1.383 . S
C2134 C2133 1.379 . S
H2135 C2129 0.959 . S
H2136 C2129 0.961 . S
H2137 C2129 0.960 . S
H2138 C2130 0.930 . S
H2139 C2131 0.929 1_556 S
H2140 C2148 0.929 . S
H2141 C2150 0.930 . S
H2142 C2152 0.930 . S
H2143 C2155 0.929 . S
H2144 C2158 0.930 . S
H2145 C2160 0.960 . S
H2146 C2160 0.960 . S
H2147 C2160 0.960 . S
C2148 H2140 0.929 . S
C2148 C2149 1.377 . S
C2148 C2150 1.384 . S
C2149 C2148 1.377 . S
C2149 C2155 1.390 . S
C2150 H2141 0.930 . S
C2150 C2148 1.384 . S
C2150 C2151 1.372 . S
C2151 C2150 1.372 . S
C2151 C2152 1.400 . S
C2151 C2156 1.490 . S
C2152 H2142 0.930 . S
C2152 C2151 1.400 . S
C2152 C2155 1.386 . S
H2153 C2169 0.930 . S
H2154 C2170 0.931 . S
C2155 H2143 0.929 . S
C2155 C2149 1.390 . S
C2155 C2152 1.386 . S
C2156 C2151 1.490 . S
C2156 C2158 1.395 . S
C2156 C2159 1.403 . S
H2157 C2163 0.930 . S
C2158 H2144 0.930 . S
C2158 C2156 1.395 . S
C2158 C2161 1.403 . S
C2159 C2156 1.403 . S
C2159 C2160 1.524 . S
C2159 C2163 1.400 . S
C2160 H2145 0.960 . S
C2160 H2146 0.960 . S
C2160 H2147 0.960 . S
C2160 C2159 1.524 . S
C2161 C2158 1.403 . S
C2161 C2162 1.392 . S
C2161 C2165 1.495 . S
C2162 C2161 1.392 . S
C2162 C2163 1.385 . S
C2162 C2164 1.478 . S
C2163 H2157 0.930 . S
C2163 C2159 1.400 . S
C2163 C2162 1.385 . S
C2164 C2162 1.478 . S
C2164 C2166 1.381 . S
C2164 C2170 1.383 . S
C2165 C2161 1.495 . S
C2165 H2171 0.959 . S
C2165 H2172 0.961 . S
C2165 H2173 0.960 . S
C2166 C2164 1.381 . S
C2166 C2167 1.394 . S
C2166 H2174 0.930 . S
C2167 C2166 1.394 . S
C2167 C2168 1.383 . S
C2167 H2175 0.929 . S
C2168 C2167 1.383 . S
C2168 C2169 1.377 . S
C2169 H2153 0.930 . S
C2169 C2168 1.377 . S
C2169 C2170 1.379 . S
C2170 H2154 0.931 . S
C2170 C2164 1.383 . S
C2170 C2169 1.379 . S
H2171 C2165 0.959 . S
H2172 C2165 0.961 . S
H2173 C2165 0.960 . S
H2174 C2166 0.930 . S
H2175 C2167 0.929 . S
H2176 C2184 0.929 . S
H2177 C2186 0.930 . S
H2178 C2188 0.930 . S
H2179 C2191 0.929 . S
H2180 C2194 0.930 . S
H2181 C2196 0.960 . S
H2182 C2196 0.960 . S
H2183 C2196 0.960 . S
C2184 H2176 0.929 . S
C2184 C2185 1.377 . S
C2184 C2186 1.384 . S
C2185 C2184 1.377 . S
C2185 C2191 1.390 . S
C2186 H2177 0.930 . S
C2186 C2184 1.384 . S
C2186 C2187 1.372 . S
C2187 C2186 1.372 . S
C2187 C2188 1.400 . S
C2187 C2192 1.490 . S
C2188 H2178 0.930 . S
C2188 C2187 1.400 . S
C2188 C2191 1.386 . S
H2189 C2205 0.930 . S
H2190 C2206 0.931 . S
C2191 H2179 0.929 . S
C2191 C2185 1.390 . S
C2191 C2188 1.386 . S
C2192 C2187 1.490 . S
C2192 C2194 1.395 . S
C2192 C2195 1.403 . S
H2193 C2199 0.930 . S
C2194 H2180 0.930 . S
C2194 C2192 1.395 . S
C2194 C2197 1.403 . S
C2195 C2192 1.403 . S
C2195 C2196 1.524 . S
C2195 C2199 1.400 . S
C2196 H2181 0.960 . S
C2196 H2182 0.960 . S
C2196 H2183 0.960 . S
C2196 C2195 1.524 . S
C2197 C2194 1.403 . S
C2197 C2198 1.392 . S
C2197 C2201 1.495 . S
C2198 C2197 1.392 . S
C2198 C2199 1.385 . S
C2198 C2200 1.478 . S
C2199 H2193 0.930 . S
C2199 C2195 1.400 . S
C2199 C2198 1.385 . S
C2200 C2198 1.478 . S
C2200 C2202 1.381 . S
C2200 C2206 1.383 . S
C2201 C2197 1.495 . S
C2201 H2207 0.959 . S
C2201 H2208 0.961 . S
C2201 H2209 0.960 . S
C2202 C2200 1.381 . S
C2202 C2203 1.394 . S
C2202 H2210 0.930 . S
C2203 C2202 1.394 . S
C2203 C2204 1.383 . S
C2203 H2211 0.929 . S
C2204 C2203 1.383 . S
C2204 C2205 1.377 . S
C2205 H2189 0.930 . S
C2205 C2204 1.377 . S
C2205 C2206 1.379 . S
C2206 H2190 0.931 . S
C2206 C2200 1.383 . S
C2206 C2205 1.379 . S
H2207 C2201 0.959 . S
H2208 C2201 0.961 . S
H2209 C2201 0.960 . S
H2210 C2202 0.930 . S
H2211 C2203 0.929 . S
H2212 C2220 0.929 . S
H2213 C2222 0.930 . S
H2214 C2224 0.930 . S
H2215 C2227 0.929 . S
H2216 C2230 0.930 . S
H2217 C2232 0.960 . S
H2218 C2232 0.960 . S
H2219 C2232 0.960 . S
C2220 H2212 0.929 . S
C2220 C2221 1.377 . S
C2220 C2222 1.384 . S
C2221 C2220 1.377 . S
C2221 C2227 1.390 . S
C2222 H2213 0.930 . S
C2222 C2220 1.384 . S
C2222 C2223 1.372 . S
C2223 C2222 1.372 . S
C2223 C2224 1.400 . S
C2223 C2228 1.490 . S
C2224 H2214 0.930 . S
C2224 C2223 1.400 . S
C2224 C2227 1.386 . S
H2225 C2241 0.930 . S
H2226 C2242 0.931 . S
C2227 H2215 0.929 . S
C2227 C2221 1.390 . S
C2227 C2224 1.386 . S
C2228 C2223 1.490 . S
C2228 C2230 1.395 . S
C2228 C2231 1.403 . S
H2229 C2235 0.930 . S
C2230 H2216 0.930 . S
C2230 C2228 1.395 . S
C2230 C2233 1.403 . S
C2231 C2228 1.403 . S
C2231 C2232 1.524 . S
C2231 C2235 1.400 . S
C2232 H2217 0.960 . S
C2232 H2218 0.960 . S
C2232 H2219 0.960 . S
C2232 C2231 1.524 . S
C2233 C2230 1.403 . S
C2233 C2234 1.392 . S
C2233 C2237 1.495 . S
C2234 C2233 1.392 . S
C2234 C2235 1.385 . S
C2234 C2236 1.478 . S
C2235 H2229 0.930 . S
C2235 C2231 1.400 . S
C2235 C2234 1.385 . S
C2236 C2234 1.478 . S
C2236 C2238 1.381 . S
C2236 C2242 1.383 . S
C2237 C2233 1.495 . S
C2237 H2243 0.959 . S
C2237 H2244 0.961 . S
C2237 H2245 0.960 . S
C2238 C2236 1.381 . S
C2238 C2239 1.394 . S
C2238 H2246 0.930 . S
C2239 C2238 1.394 . S
C2239 C2240 1.383 . S
C2239 H2247 0.929 . S
C2240 C2239 1.383 . S
C2240 C2241 1.377 . S
C2241 H2225 0.930 . S
C2241 C2240 1.377 . S
C2241 C2242 1.379 . S
C2242 H2226 0.931 . S
C2242 C2236 1.383 . S
C2242 C2241 1.379 . S
H2243 C2237 0.959 . S
H2244 C2237 0.961 . S
H2245 C2237 0.960 . S
H2246 C2238 0.930 . S
H2247 C2239 0.929 . S
H2248 C2256 0.929 . S
H2249 C2258 0.930 . S
H2250 C2260 0.930 . S
H2251 C2263 0.929 . S
H2252 C2266 0.930 . S
H2253 C2268 0.960 . S
H2254 C2268 0.960 . S
H2255 C2268 0.960 . S
C2256 H2248 0.929 . S
C2256 C2257 1.377 . S
C2256 C2258 1.384 . S
C2257 C2256 1.377 . S
C2257 C2263 1.390 . S
C2258 H2249 0.930 . S
C2258 C2256 1.384 . S
C2258 C2259 1.372 . S
C2259 C2258 1.372 . S
C2259 C2260 1.400 . S
C2259 C2264 1.490 . S
C2260 H2250 0.930 . S
C2260 C2259 1.400 . S
C2260 C2263 1.386 . S
H2261 C2277 0.930 . S
H2262 C2278 0.931 . S
C2263 H2251 0.929 . S
C2263 C2257 1.390 . S
C2263 C2260 1.386 . S
C2264 C2259 1.490 . S
C2264 C2266 1.395 . S
C2264 C2267 1.403 . S
H2265 C2271 0.930 . S
C2266 H2252 0.930 . S
C2266 C2264 1.395 . S
C2266 C2269 1.403 . S
C2267 C2264 1.403 . S
C2267 C2268 1.524 . S
C2267 C2271 1.400 . S
C2268 H2253 0.960 . S
C2268 H2254 0.960 . S
C2268 H2255 0.960 . S
C2268 C2267 1.524 . S
C2269 C2266 1.403 . S
C2269 C2270 1.392 . S
C2269 C2273 1.495 . S
C2270 C2269 1.392 . S
C2270 C2271 1.385 . S
C2270 C2272 1.478 . S
C2271 H2265 0.930 . S
C2271 C2267 1.400 . S
C2271 C2270 1.385 . S
C2272 C2270 1.478 . S
C2272 C2274 1.381 . S
C2272 C2278 1.383 . S
C2273 C2269 1.495 . S
C2273 H2279 0.959 . S
C2273 H2280 0.961 . S
C2273 H2281 0.960 . S
C2274 C2272 1.381 . S
C2274 C2275 1.394 . S
C2274 H2282 0.930 . S
C2275 C2274 1.394 . S
C2275 C2276 1.383 . S
C2275 H2283 0.929 . S
C2276 C2275 1.383 . S
C2276 C2277 1.377 . S
C2277 H2261 0.930 . S
C2277 C2276 1.377 . S
C2277 C2278 1.379 . S
C2278 H2262 0.931 . S
C2278 C2272 1.383 . S
C2278 C2277 1.379 . S
H2279 C2273 0.959 . S
H2280 C2273 0.961 . S
H2281 C2273 0.960 . S
H2282 C2274 0.930 . S
H2283 C2275 0.929 . S
H2284 C2292 0.929 . S
H2285 C2294 0.930 . S
H2286 C2296 0.930 . S
H2287 C2299 0.929 . S
H2288 C2302 0.930 . S
H2289 C2304 0.960 . S
H2290 C2304 0.960 . S
H2291 C2304 0.960 . S
C2292 H2284 0.929 . S
C2292 C2293 1.377 . S
C2292 C2294 1.384 . S
C2293 C2292 1.377 . S
C2293 C2299 1.390 . S
C2294 H2285 0.930 . S
C2294 C2292 1.384 . S
C2294 C2295 1.372 . S
C2295 C2294 1.372 . S
C2295 C2296 1.400 . S
C2295 C2300 1.490 . S
C2296 H2286 0.930 . S
C2296 C2295 1.400 . S
C2296 C2299 1.386 . S
H2297 C2313 0.930 . S
H2298 C2314 0.931 . S
C2299 H2287 0.929 . S
C2299 C2293 1.390 . S
C2299 C2296 1.386 . S
C2300 C2295 1.490 . S
C2300 C2302 1.395 . S
C2300 C2303 1.403 . S
H2301 C2307 0.930 . S
C2302 H2288 0.930 . S
C2302 C2300 1.395 . S
C2302 C2305 1.403 . S
C2303 C2300 1.403 . S
C2303 C2304 1.524 . S
C2303 C2307 1.400 . S
C2304 H2289 0.960 . S
C2304 H2290 0.960 . S
C2304 H2291 0.960 . S
C2304 C2303 1.524 . S
C2305 C2302 1.403 . S
C2305 C2306 1.392 . S
C2305 C2309 1.495 . S
C2306 C2305 1.392 . S
C2306 C2307 1.385 . S
C2306 C2308 1.478 . S
C2307 H2301 0.930 . S
C2307 C2303 1.400 . S
C2307 C2306 1.385 . S
C2308 C2306 1.478 . S
C2308 C2310 1.381 . S
C2308 C2314 1.383 . S
C2309 C2305 1.495 . S
C2309 H2315 0.959 . S
C2309 H2316 0.961 . S
C2309 H2317 0.960 . S
C2310 C2308 1.381 . S
C2310 C2311 1.394 . S
C2310 H2318 0.930 . S
C2311 C2310 1.394 . S
C2311 C2312 1.383 . S
C2311 H2319 0.929 . S
C2312 C2311 1.383 . S
C2312 C2313 1.377 . S
C2313 H2297 0.930 . S
C2313 C2312 1.377 . S
C2313 C2314 1.379 . S
C2314 H2298 0.931 . S
C2314 C2308 1.383 . S
C2314 C2313 1.379 . S
H2315 C2309 0.959 . S
H2316 C2309 0.961 . S
H2317 C2309 0.960 . S
H2318 C2310 0.930 . S
H2319 C2311 0.929 . S
H2320 C2328 0.929 . S
H2321 C2330 0.930 . S
H2322 C2332 0.930 . S
H2323 C2335 0.929 . S
H2324 C2338 0.930 . S
H2325 C2340 0.960 . S
H2326 C2340 0.960 . S
H2327 C2340 0.960 . S
C2328 H2320 0.929 . S
C2328 C2329 1.377 . S
C2328 C2330 1.384 . S
C2329 C2328 1.377 . S
C2329 C2335 1.390 . S
C2330 H2321 0.930 . S
C2330 C2328 1.384 . S
C2330 C2331 1.372 . S
C2331 C2330 1.372 . S
C2331 C2332 1.400 . S
C2331 C2336 1.490 . S
C2332 H2322 0.930 . S
C2332 C2331 1.400 . S
C2332 C2335 1.386 . S
H2333 C2349 0.930 . S
H2334 C2350 0.931 . S
C2335 H2323 0.929 . S
C2335 C2329 1.390 . S
C2335 C2332 1.386 . S
C2336 C2331 1.490 . S
C2336 C2338 1.395 . S
C2336 C2339 1.403 . S
H2337 C2343 0.930 . S
C2338 H2324 0.930 . S
C2338 C2336 1.395 . S
C2338 C2341 1.403 . S
C2339 C2336 1.403 . S
C2339 C2340 1.524 . S
C2339 C2343 1.400 . S
C2340 H2325 0.960 . S
C2340 H2326 0.960 . S
C2340 H2327 0.960 . S
C2340 C2339 1.524 . S
C2341 C2338 1.403 . S
C2341 C2342 1.392 . S
C2341 C2345 1.495 . S
C2342 C2341 1.392 . S
C2342 C2343 1.385 . S
C2342 C2344 1.478 . S
C2343 H2337 0.930 . S
C2343 C2339 1.400 . S
C2343 C2342 1.385 . S
C2344 C2342 1.478 . S
C2344 C2346 1.381 . S
C2344 C2350 1.383 . S
C2345 C2341 1.495 . S
C2345 H2351 0.959 . S
C2345 H2352 0.961 . S
C2345 H2353 0.960 . S
C2346 C2344 1.381 . S
C2346 C2347 1.394 . S
C2346 H2354 0.930 . S
C2347 C2346 1.394 . S
C2347 C2348 1.383 . S
C2347 H2355 0.929 . S
C2348 C2347 1.383 . S
C2348 C2349 1.377 . S
C2349 H2333 0.930 . S
C2349 C2348 1.377 . S
C2349 C2350 1.379 . S
C2350 H2334 0.931 . S
C2350 C2344 1.383 . S
C2350 C2349 1.379 . S
H2351 C2345 0.959 . S
H2352 C2345 0.961 . S
H2353 C2345 0.960 . S
H2354 C2346 0.930 . S
H2355 C2347 0.929 . S
H2356 C2364 0.929 . S
H2357 C2366 0.930 . S
H2358 C2368 0.930 . S
H2359 C2371 0.929 . S
H2360 C2374 0.930 . S
H2361 C2376 0.960 . S
H2362 C2376 0.960 . S
H2363 C2376 0.960 . S
C2364 H2356 0.929 . S
C2364 C2365 1.377 . S
C2364 C2366 1.384 . S
C2365 C2364 1.377 . S
C2365 C2371 1.390 . S
C2366 H2357 0.930 . S
C2366 C2364 1.384 . S
C2366 C2367 1.372 . S
C2367 C2366 1.372 . S
C2367 C2368 1.400 . S
C2367 C2372 1.490 . S
C2368 H2358 0.930 . S
C2368 C2367 1.400 . S
C2368 C2371 1.386 . S
H2369 C2385 0.930 . S
H2370 C2386 0.931 . S
C2371 H2359 0.929 . S
C2371 C2365 1.390 . S
C2371 C2368 1.386 . S
C2372 C2367 1.490 . S
C2372 C2374 1.395 . S
C2372 C2375 1.403 . S
H2373 C2379 0.930 . S
C2374 H2360 0.930 . S
C2374 C2372 1.395 . S
C2374 C2377 1.403 . S
C2375 C2372 1.403 . S
C2375 C2376 1.524 . S
C2375 C2379 1.400 . S
C2376 H2361 0.960 . S
C2376 H2362 0.960 . S
C2376 H2363 0.960 . S
C2376 C2375 1.524 . S
C2377 C2374 1.403 . S
C2377 C2378 1.392 . S
C2377 C2381 1.495 . S
C2378 C2377 1.392 . S
C2378 C2379 1.385 . S
C2378 C2380 1.478 . S
C2379 H2373 0.930 . S
C2379 C2375 1.400 . S
C2379 C2378 1.385 . S
C2380 C2378 1.478 . S
C2380 C2382 1.381 . S
C2380 C2386 1.383 . S
C2381 C2377 1.495 . S
C2381 H2387 0.959 . S
C2381 H2388 0.961 . S
C2381 H2389 0.960 . S
C2382 C2380 1.381 . S
C2382 C2383 1.394 . S
C2382 H2390 0.930 . S
C2383 C2382 1.394 . S
C2383 C2384 1.383 . S
C2383 H2391 0.929 . S
C2384 C2383 1.383 . S
C2384 C2385 1.377 . S
C2385 H2369 0.930 . S
C2385 C2384 1.377 . S
C2385 C2386 1.379 . S
C2386 H2370 0.931 . S
C2386 C2380 1.383 . S
C2386 C2385 1.379 . S
H2387 C2381 0.959 . S
H2388 C2381 0.961 . S
H2389 C2381 0.960 . S
H2390 C2382 0.930 . S
H2391 C2383 0.929 . S
H2392 C2400 0.929 . S
H2393 C2402 0.930 . S
H2394 C2404 0.930 . S
H2395 C2407 0.929 . S
H2396 C2410 0.930 . S
H2397 C2412 0.960 . S
H2398 C2412 0.960 . S
H2399 C2412 0.960 . S
C2400 H2392 0.929 . S
C2400 C2401 1.377 . S
C2400 C2402 1.384 . S
C2401 C2400 1.377 . S
C2401 C2407 1.390 . S
C2402 H2393 0.930 . S
C2402 C2400 1.384 . S
C2402 C2403 1.372 . S
C2403 C2402 1.372 . S
C2403 C2404 1.400 . S
C2403 C2408 1.490 . S
C2404 H2394 0.930 . S
C2404 C2403 1.400 . S
C2404 C2407 1.386 . S
H2405 C2421 0.930 . S
H2406 C2422 0.931 . S
C2407 H2395 0.929 . S
C2407 C2401 1.390 . S
C2407 C2404 1.386 . S
C2408 C2403 1.490 . S
C2408 C2410 1.395 . S
C2408 C2411 1.403 . S
H2409 C2415 0.930 . S
C2410 H2396 0.930 . S
C2410 C2408 1.395 . S
C2410 C2413 1.403 . S
C2411 C2408 1.403 . S
C2411 C2412 1.524 . S
C2411 C2415 1.400 . S
C2412 H2397 0.960 . S
C2412 H2398 0.960 . S
C2412 H2399 0.960 . S
C2412 C2411 1.524 . S
C2413 C2410 1.403 . S
C2413 C2414 1.392 . S
C2413 C2417 1.495 . S
C2414 C2413 1.392 . S
C2414 C2415 1.385 . S
C2414 C2416 1.478 . S
C2415 H2409 0.930 . S
C2415 C2411 1.400 . S
C2415 C2414 1.385 . S
C2416 C2414 1.478 . S
C2416 C2418 1.381 . S
C2416 C2422 1.383 . S
C2417 C2413 1.495 . S
C2417 H2423 0.959 . S
C2417 H2424 0.961 . S
C2417 H2425 0.960 . S
C2418 C2416 1.381 . S
C2418 C2419 1.394 . S
C2418 H2426 0.930 . S
C2419 C2418 1.394 . S
C2419 C2420 1.383 . S
C2419 H2427 0.929 . S
C2420 C2419 1.383 . S
C2420 C2421 1.377 . S
C2421 H2405 0.930 . S
C2421 C2420 1.377 . S
C2421 C2422 1.379 . S
C2422 H2406 0.931 . S
C2422 C2416 1.383 . S
C2422 C2421 1.379 . S
H2423 C2417 0.959 . S
H2424 C2417 0.961 . S
H2425 C2417 0.960 . S
H2426 C2418 0.930 . S
H2427 C2419 0.929 . S
H2428 C2436 0.929 . S
H2429 C2438 0.930 . S
H2430 C2440 0.930 . S
H2431 C2443 0.929 . S
H2432 C2446 0.930 . S
H2433 C2448 0.960 . S
H2434 C2448 0.960 . S
H2435 C2448 0.960 . S
C2436 H2428 0.929 . S
C2436 C2437 1.377 . S
C2436 C2438 1.384 . S
C2437 C2436 1.377 . S
C2437 C2443 1.390 . S
C2438 H2429 0.930 . S
C2438 C2436 1.384 . S
C2438 C2439 1.372 . S
C2439 C2438 1.372 . S
C2439 C2440 1.400 . S
C2439 C2444 1.490 . S
C2440 H2430 0.930 . S
C2440 C2439 1.400 . S
C2440 C2443 1.386 . S
H2441 C2457 0.930 . S
H2442 C2458 0.931 . S
C2443 H2431 0.929 . S
C2443 C2437 1.390 . S
C2443 C2440 1.386 . S
C2444 C2439 1.490 . S
C2444 C2446 1.395 . S
C2444 C2447 1.403 . S
H2445 C2451 0.930 . S
C2446 H2432 0.930 . S
C2446 C2444 1.395 . S
C2446 C2449 1.403 . S
C2447 C2444 1.403 . S
C2447 C2448 1.524 . S
C2447 C2451 1.400 . S
C2448 H2433 0.960 . S
C2448 H2434 0.960 . S
C2448 H2435 0.960 . S
C2448 C2447 1.524 . S
C2449 C2446 1.403 . S
C2449 C2450 1.392 . S
C2449 C2453 1.495 . S
C2450 C2449 1.392 . S
C2450 C2451 1.385 . S
C2450 C2452 1.478 . S
C2451 H2445 0.930 . S
C2451 C2447 1.400 . S
C2451 C2450 1.385 . S
C2452 C2450 1.478 . S
C2452 C2454 1.381 . S
C2452 C2458 1.383 . S
C2453 C2449 1.495 . S
C2453 H2459 0.959 . S
C2453 H2460 0.961 . S
C2453 H2461 0.960 . S
C2454 C2452 1.381 . S
C2454 C2455 1.394 . S
C2454 H2462 0.930 . S
C2455 C2454 1.394 . S
C2455 C2456 1.383 . S
C2455 H2463 0.929 . S
C2456 C2455 1.383 . S
C2456 C2457 1.377 . S
C2457 H2441 0.930 . S
C2457 C2456 1.377 . S
C2457 C2458 1.379 . S
C2458 H2442 0.931 . S
C2458 C2452 1.383 . S
C2458 C2457 1.379 . S
H2459 C2453 0.959 . S
H2460 C2453 0.961 . S
H2461 C2453 0.960 . S
H2462 C2454 0.930 . S
H2463 C2455 0.929 . S
H2464 C2472 0.929 . S
H2465 C2474 0.930 . S
H2466 C2476 0.930 . S
H2467 C2479 0.929 . S
H2468 C2482 0.930 . S
H2469 C2484 0.960 . S
H2470 C2484 0.960 . S
H2471 C2484 0.960 . S
C2472 H2464 0.929 . S
C2472 C2473 1.377 . S
C2472 C2474 1.384 . S
C2473 C2472 1.377 . S
C2473 C2479 1.390 . S
C2474 H2465 0.930 . S
C2474 C2472 1.384 . S
C2474 C2475 1.372 . S
C2475 C2474 1.372 . S
C2475 C2476 1.400 . S
C2475 C2480 1.490 . S
C2476 H2466 0.930 . S
C2476 C2475 1.400 . S
C2476 C2479 1.386 . S
H2477 C2493 0.930 . S
H2478 C2494 0.931 . S
C2479 H2467 0.929 . S
C2479 C2473 1.390 . S
C2479 C2476 1.386 . S
C2480 C2475 1.490 . S
C2480 C2482 1.395 . S
C2480 C2483 1.403 . S
H2481 C2487 0.930 . S
C2482 H2468 0.930 . S
C2482 C2480 1.395 . S
C2482 C2485 1.403 . S
C2483 C2480 1.403 . S
C2483 C2484 1.524 . S
C2483 C2487 1.400 . S
C2484 H2469 0.960 . S
C2484 H2470 0.960 . S
C2484 H2471 0.960 . S
C2484 C2483 1.524 . S
C2485 C2482 1.403 . S
C2485 C2486 1.392 . S
C2485 C2489 1.495 . S
C2486 C2485 1.392 . S
C2486 C2487 1.385 . S
C2486 C2488 1.478 . S
C2487 H2481 0.930 . S
C2487 C2483 1.400 . S
C2487 C2486 1.385 . S
C2488 C2486 1.478 . S
C2488 C2490 1.381 . S
C2488 C2494 1.383 . S
C2489 C2485 1.495 . S
C2489 H2495 0.959 . S
C2489 H2496 0.961 . S
C2489 H2497 0.960 . S
C2490 C2488 1.381 . S
C2490 C2491 1.394 . S
C2490 H2498 0.930 . S
C2491 C2490 1.394 . S
C2491 C2492 1.383 . S
C2491 H2499 0.929 . S
C2492 C2491 1.383 . S
C2492 C2493 1.377 . S
C2493 H2477 0.930 . S
C2493 C2492 1.377 . S
C2493 C2494 1.379 . S
C2494 H2478 0.931 . S
C2494 C2488 1.383 . S
C2494 C2493 1.379 . S
H2495 C2489 0.959 . S
H2496 C2489 0.961 . S
H2497 C2489 0.960 . S
H2498 C2490 0.930 . S
H2499 C2491 0.929 . S
H2500 C2508 0.929 . S
H2501 C2510 0.930 . S
H2502 C2512 0.930 . S
H2503 C2515 0.929 . S
H2504 C2518 0.930 . S
H2505 C2520 0.960 . S
H2506 C2520 0.960 . S
H2507 C2520 0.960 . S
C2508 H2500 0.929 . S
C2508 C2509 1.377 . S
C2508 C2510 1.384 . S
C2509 C2508 1.377 . S
C2509 C2515 1.390 . S
C2510 H2501 0.930 . S
C2510 C2508 1.384 . S
C2510 C2511 1.372 . S
C2511 C2510 1.372 . S
C2511 C2512 1.400 . S
C2511 C2516 1.490 . S
C2512 H2502 0.930 . S
C2512 C2511 1.400 . S
C2512 C2515 1.386 . S
H2513 C2529 0.930 . S
H2514 C2530 0.931 . S
C2515 H2503 0.929 . S
C2515 C2509 1.390 . S
C2515 C2512 1.386 . S
C2516 C2511 1.490 . S
C2516 C2518 1.395 . S
C2516 C2519 1.403 . S
H2517 C2523 0.930 . S
C2518 H2504 0.930 . S
C2518 C2516 1.395 . S
C2518 C2521 1.403 . S
C2519 C2516 1.403 . S
C2519 C2520 1.524 . S
C2519 C2523 1.400 . S
C2520 H2505 0.960 . S
C2520 H2506 0.960 . S
C2520 H2507 0.960 . S
C2520 C2519 1.524 . S
C2521 C2518 1.403 . S
C2521 C2522 1.392 . S
C2521 C2525 1.495 . S
C2522 C2521 1.392 . S
C2522 C2523 1.385 . S
C2522 C2524 1.478 . S
C2523 H2517 0.930 . S
C2523 C2519 1.400 . S
C2523 C2522 1.385 . S
C2524 C2522 1.478 . S
C2524 C2526 1.381 . S
C2524 C2530 1.383 . S
C2525 C2521 1.495 . S
C2525 H2531 0.959 . S
C2525 H2532 0.961 . S
C2525 H2533 0.960 . S
C2526 C2524 1.381 . S
C2526 C2527 1.394 . S
C2526 H2534 0.930 . S
C2527 C2526 1.394 . S
C2527 C2528 1.383 . S
C2527 H2535 0.929 . S
C2528 C2527 1.383 . S
C2528 C2529 1.377 . S
C2529 H2513 0.930 . S
C2529 C2528 1.377 . S
C2529 C2530 1.379 . S
C2530 H2514 0.931 . S
C2530 C2524 1.383 . S
C2530 C2529 1.379 . S
H2531 C2525 0.959 . S
H2532 C2525 0.961 . S
H2533 C2525 0.960 . S
H2534 C2526 0.930 . S
H2535 C2527 0.929 . S
H2536 C2544 0.929 . S
H2537 C2546 0.930 . S
H2538 C2548 0.930 . S
H2539 C2551 0.929 . S
H2540 C2554 0.930 . S
H2541 C2556 0.960 . S
H2542 C2556 0.960 . S
H2543 C2556 0.960 . S
C2544 H2536 0.929 . S
C2544 C2545 1.377 . S
C2544 C2546 1.384 . S
C2545 C2544 1.377 . S
C2545 C2551 1.390 . S
C2546 H2537 0.930 . S
C2546 C2544 1.384 . S
C2546 C2547 1.372 . S
C2547 C2546 1.372 . S
C2547 C2548 1.400 . S
C2547 C2552 1.490 . S
C2548 H2538 0.930 . S
C2548 C2547 1.400 . S
C2548 C2551 1.386 . S
H2549 C2565 0.930 . S
H2550 C2566 0.931 . S
C2551 H2539 0.929 . S
C2551 C2545 1.390 . S
C2551 C2548 1.386 . S
C2552 C2547 1.490 . S
C2552 C2554 1.395 . S
C2552 C2555 1.403 . S
H2553 C2559 0.930 . S
C2554 H2540 0.930 . S
C2554 C2552 1.395 . S
C2554 C2557 1.403 . S
C2555 C2552 1.403 . S
C2555 C2556 1.524 . S
C2555 C2559 1.400 . S
C2556 H2541 0.960 . S
C2556 H2542 0.960 . S
C2556 H2543 0.960 . S
C2556 C2555 1.524 . S
C2557 C2554 1.403 . S
C2557 C2558 1.392 . S
C2557 C2561 1.495 . S
C2558 C2557 1.392 . S
C2558 C2559 1.385 . S
C2558 C2560 1.478 . S
C2559 H2553 0.930 . S
C2559 C2555 1.400 . S
C2559 C2558 1.385 . S
C2560 C2558 1.478 . S
C2560 C2562 1.381 . S
C2560 C2566 1.383 . S
C2561 C2557 1.495 . S
C2561 H2567 0.959 . S
C2561 H2568 0.961 . S
C2561 H2569 0.960 . S
C2562 C2560 1.381 . S
C2562 C2563 1.394 . S
C2562 H2570 0.930 . S
C2563 C2562 1.394 . S
C2563 C2564 1.383 . S
C2563 H2571 0.929 . S
C2564 C2563 1.383 . S
C2564 C2565 1.377 . S
C2565 H2549 0.930 . S
C2565 C2564 1.377 . S
C2565 C2566 1.379 . S
C2566 H2550 0.931 . S
C2566 C2560 1.383 . S
C2566 C2565 1.379 . S
H2567 C2561 0.959 . S
H2568 C2561 0.961 . S
H2569 C2561 0.960 . S
H2570 C2562 0.930 . S
H2571 C2563 0.929 . S
H2572 C2580 0.929 . S
H2573 C2582 0.930 . S
H2574 C2584 0.930 . S
H2575 C2587 0.929 . S
H2576 C2590 0.930 . S
H2577 C2592 0.960 . S
H2578 C2592 0.960 . S
H2579 C2592 0.960 . S
C2580 H2572 0.929 . S
C2580 C2581 1.377 . S
C2580 C2582 1.384 . S
C2581 C2580 1.377 . S
C2581 C2587 1.390 . S
C2582 H2573 0.930 . S
C2582 C2580 1.384 . S
C2582 C2583 1.372 . S
C2583 C2582 1.372 . S
C2583 C2584 1.400 . S
C2583 C2588 1.490 . S
C2584 H2574 0.930 . S
C2584 C2583 1.400 . S
C2584 C2587 1.386 . S
H2585 C2601 0.930 . S
H2586 C2602 0.931 . S
C2587 H2575 0.929 . S
C2587 C2581 1.390 . S
C2587 C2584 1.386 . S
C2588 C2583 1.490 . S
C2588 C2590 1.395 . S
C2588 C2591 1.403 . S
H2589 C2595 0.930 . S
C2590 H2576 0.930 . S
C2590 C2588 1.395 . S
C2590 C2593 1.403 . S
C2591 C2588 1.403 . S
C2591 C2592 1.524 . S
C2591 C2595 1.400 . S
C2592 H2577 0.960 . S
C2592 H2578 0.960 . S
C2592 H2579 0.960 . S
C2592 C2591 1.524 . S
C2593 C2590 1.403 . S
C2593 C2594 1.392 . S
C2593 C2597 1.495 . S
C2594 C2593 1.392 . S
C2594 C2595 1.385 . S
C2594 C2596 1.478 . S
C2595 H2589 0.930 . S
C2595 C2591 1.400 . S
C2595 C2594 1.385 . S
C2596 C2594 1.478 . S
C2596 C2598 1.381 . S
C2596 C2602 1.383 . S
C2597 C2593 1.495 . S
C2597 H2603 0.959 . S
C2597 H2604 0.961 . S
C2597 H2605 0.960 . S
C2598 C2596 1.381 . S
C2598 C2599 1.394 . S
C2598 H2606 0.930 . S
C2599 C2598 1.394 . S
C2599 C2600 1.383 . S
C2599 H2607 0.929 . S
C2600 C2599 1.383 . S
C2600 C2601 1.377 . S
C2601 H2585 0.930 . S
C2601 C2600 1.377 . S
C2601 C2602 1.379 . S
C2602 H2586 0.931 . S
C2602 C2596 1.383 . S
C2602 C2601 1.379 . S
H2603 C2597 0.959 . S
H2604 C2597 0.961 . S
H2605 C2597 0.960 . S
H2606 C2598 0.930 . S
H2607 C2599 0.929 . S
H2608 C2616 0.929 . S
H2609 C2618 0.930 . S
H2610 C2620 0.930 . S
H2611 C2623 0.929 . S
H2612 C2626 0.930 . S
H2613 C2628 0.960 . S
H2614 C2628 0.960 . S
H2615 C2628 0.960 . S
C2616 H2608 0.929 . S
C2616 C2617 1.377 . S
C2616 C2618 1.384 . S
C2617 C2616 1.377 . S
C2617 C2623 1.390 . S
C2618 H2609 0.930 . S
C2618 C2616 1.384 . S
C2618 C2619 1.372 . S
C2619 C2618 1.372 . S
C2619 C2620 1.400 . S
C2619 C2624 1.490 . S
C2620 H2610 0.930 . S
C2620 C2619 1.400 . S
C2620 C2623 1.386 . S
H2621 C2637 0.930 . S
H2622 C2638 0.931 . S
C2623 H2611 0.929 . S
C2623 C2617 1.390 . S
C2623 C2620 1.386 . S
C2624 C2619 1.490 . S
C2624 C2626 1.395 . S
C2624 C2627 1.403 . S
H2625 C2631 0.930 . S
C2626 H2612 0.930 . S
C2626 C2624 1.395 . S
C2626 C2629 1.403 . S
C2627 C2624 1.403 . S
C2627 C2628 1.524 . S
C2627 C2631 1.400 . S
C2628 H2613 0.960 . S
C2628 H2614 0.960 . S
C2628 H2615 0.960 . S
C2628 C2627 1.524 . S
C2629 C2626 1.403 . S
C2629 C2630 1.392 . S
C2629 C2633 1.495 . S
C2630 C2629 1.392 . S
C2630 C2631 1.385 . S
C2630 C2632 1.478 . S
C2631 H2625 0.930 . S
C2631 C2627 1.400 . S
C2631 C2630 1.385 . S
C2632 C2630 1.478 . S
C2632 C2634 1.381 . S
C2632 C2638 1.383 . S
C2633 C2629 1.495 . S
C2633 H2639 0.959 . S
C2633 H2640 0.961 . S
C2633 H2641 0.960 . S
C2634 C2632 1.381 . S
C2634 C2635 1.394 . S
C2634 H2642 0.930 . S
C2635 C2634 1.394 . S
C2635 C2636 1.383 . S
C2635 H2643 0.929 . S
C2636 C2635 1.383 . S
C2636 C2637 1.377 . S
C2637 H2621 0.930 . S
C2637 C2636 1.377 . S
C2637 C2638 1.379 . S
C2638 H2622 0.931 . S
C2638 C2632 1.383 . S
C2638 C2637 1.379 . S
H2639 C2633 0.959 . S
H2640 C2633 0.961 . S
H2641 C2633 0.960 . S
H2642 C2634 0.930 . S
H2643 C2635 0.929 . S
H2644 C2652 0.929 . S
H2645 C2654 0.930 . S
H2646 C2656 0.930 . S
H2647 C2659 0.929 . S
H2648 C2662 0.930 . S
H2649 C2664 0.960 . S
H2650 C2664 0.960 . S
H2651 C2664 0.960 . S
C2652 H2644 0.929 . S
C2652 C2653 1.377 . S
C2652 C2654 1.384 . S
C2653 C2652 1.377 . S
C2653 C2659 1.390 . S
C2654 H2645 0.930 . S
C2654 C2652 1.384 . S
C2654 C2655 1.372 . S
C2655 C2654 1.372 . S
C2655 C2656 1.400 . S
C2655 C2660 1.490 . S
C2656 H2646 0.930 . S
C2656 C2655 1.400 . S
C2656 C2659 1.386 . S
H2657 C2673 0.930 . S
H2658 C2674 0.931 . S
C2659 H2647 0.929 . S
C2659 C2653 1.390 . S
C2659 C2656 1.386 . S
C2660 C2655 1.490 . S
C2660 C2662 1.395 . S
C2660 C2663 1.403 . S
H2661 C2667 0.930 . S
C2662 H2648 0.930 . S
C2662 C2660 1.395 . S
C2662 C2665 1.403 . S
C2663 C2660 1.403 . S
C2663 C2664 1.524 . S
C2663 C2667 1.400 . S
C2664 H2649 0.960 . S
C2664 H2650 0.960 . S
C2664 H2651 0.960 . S
C2664 C2663 1.524 . S
C2665 C2662 1.403 . S
C2665 C2666 1.392 . S
C2665 C2669 1.495 . S
C2666 C2665 1.392 . S
C2666 C2667 1.385 . S
C2666 C2668 1.478 . S
C2667 H2661 0.930 . S
C2667 C2663 1.400 . S
C2667 C2666 1.385 . S
C2668 C2666 1.478 . S
C2668 C2670 1.381 . S
C2668 C2674 1.383 . S
C2669 C2665 1.495 . S
C2669 H2675 0.959 . S
C2669 H2676 0.961 . S
C2669 H2677 0.960 . S
C2670 C2668 1.381 . S
C2670 C2671 1.394 . S
C2670 H2678 0.930 . S
C2671 C2670 1.394 . S
C2671 C2672 1.383 . S
C2671 H2679 0.929 . S
C2672 C2671 1.383 . S
C2672 C2673 1.377 . S
C2673 H2657 0.930 . S
C2673 C2672 1.377 . S
C2673 C2674 1.379 . S
C2674 H2658 0.931 . S
C2674 C2668 1.383 . S
C2674 C2673 1.379 . S
H2675 C2669 0.959 . S
H2676 C2669 0.961 . S
H2677 C2669 0.960 . S
H2678 C2670 0.930 . S
H2679 C2671 0.929 . S
H2680 C2688 0.929 . S
H2681 C2690 0.930 . S
H2682 C2692 0.930 . S
H2683 C2695 0.929 . S
H2684 C2698 0.930 . S
H2685 C2700 0.960 . S
H2686 C2700 0.960 . S
H2687 C2700 0.960 . S
C2688 H2680 0.929 . S
C2688 C2689 1.377 . S
C2688 C2690 1.384 . S
C2689 C2688 1.377 . S
C2689 C2695 1.390 . S
C2690 H2681 0.930 . S
C2690 C2688 1.384 . S
C2690 C2691 1.372 . S
C2691 C2690 1.372 . S
C2691 C2692 1.400 . S
C2691 C2696 1.490 . S
C2692 H2682 0.930 . S
C2692 C2691 1.400 . S
C2692 C2695 1.386 . S
H2693 C2709 0.930 . S
H2694 C2710 0.931 . S
C2695 H2683 0.929 . S
C2695 C2689 1.390 . S
C2695 C2692 1.386 . S
C2696 C2691 1.490 . S
C2696 C2698 1.395 . S
C2696 C2699 1.403 . S
H2697 C2703 0.930 . S
C2698 H2684 0.930 . S
C2698 C2696 1.395 . S
C2698 C2701 1.403 . S
C2699 C2696 1.403 . S
C2699 C2700 1.524 . S
C2699 C2703 1.400 . S
C2700 H2685 0.960 . S
C2700 H2686 0.960 . S
C2700 H2687 0.960 . S
C2700 C2699 1.524 . S
C2701 C2698 1.403 . S
C2701 C2702 1.392 . S
C2701 C2705 1.495 . S
C2702 C2701 1.392 . S
C2702 C2703 1.385 . S
C2702 C2704 1.478 . S
C2703 H2697 0.930 . S
C2703 C2699 1.400 . S
C2703 C2702 1.385 . S
C2704 C2702 1.478 . S
C2704 C2706 1.381 . S
C2704 C2710 1.383 . S
C2705 C2701 1.495 . S
C2705 H2711 0.959 . S
C2705 H2712 0.961 . S
C2705 H2713 0.960 . S
C2706 C2704 1.381 . S
C2706 C2707 1.394 . S
C2706 H2714 0.930 . S
C2707 C2706 1.394 . S
C2707 C2708 1.383 . S
C2707 H2715 0.929 . S
C2708 C2707 1.383 . S
C2708 C2709 1.377 . S
C2709 H2693 0.930 . S
C2709 C2708 1.377 . S
C2709 C2710 1.379 . S
C2710 H2694 0.931 . S
C2710 C2704 1.383 . S
C2710 C2709 1.379 . S
H2711 C2705 0.959 . S
H2712 C2705 0.961 . S
H2713 C2705 0.960 . S
H2714 C2706 0.930 . S
H2715 C2707 0.929 . S
H2716 C2724 0.929 . S
H2717 C2726 0.930 . S
H2718 C2728 0.930 . S
H2719 C2731 0.929 . S
H2720 C2734 0.930 . S
H2721 C2736 0.960 . S
H2722 C2736 0.960 . S
H2723 C2736 0.960 . S
C2724 H2716 0.929 . S
C2724 C2725 1.377 . S
C2724 C2726 1.384 . S
C2725 C2724 1.377 . S
C2725 C2731 1.390 . S
C2726 H2717 0.930 . S
C2726 C2724 1.384 . S
C2726 C2727 1.372 . S
C2727 C2726 1.372 . S
C2727 C2728 1.400 . S
C2727 C2732 1.490 . S
C2728 H2718 0.930 . S
C2728 C2727 1.400 . S
C2728 C2731 1.386 . S
H2729 C2745 0.930 . S
H2730 C2746 0.931 . S
C2731 H2719 0.929 . S
C2731 C2725 1.390 . S
C2731 C2728 1.386 . S
C2732 C2727 1.490 . S
C2732 C2734 1.395 . S
C2732 C2735 1.403 . S
H2733 C2739 0.930 . S
C2734 H2720 0.930 . S
C2734 C2732 1.395 . S
C2734 C2737 1.403 . S
C2735 C2732 1.403 . S
C2735 C2736 1.524 . S
C2735 C2739 1.400 . S
C2736 H2721 0.960 . S
C2736 H2722 0.960 . S
C2736 H2723 0.960 . S
C2736 C2735 1.524 . S
C2737 C2734 1.403 . S
C2737 C2738 1.392 . S
C2737 C2741 1.495 . S
C2738 C2737 1.392 . S
C2738 C2739 1.385 . S
C2738 C2740 1.478 . S
C2739 H2733 0.930 . S
C2739 C2735 1.400 . S
C2739 C2738 1.385 . S
C2740 C2738 1.478 . S
C2740 C2742 1.381 . S
C2740 C2746 1.383 . S
C2741 C2737 1.495 . S
C2741 H2747 0.959 . S
C2741 H2748 0.961 . S
C2741 H2749 0.960 . S
C2742 C2740 1.381 . S
C2742 C2743 1.394 . S
C2742 H2750 0.930 . S
C2743 C2742 1.394 . S
C2743 C2744 1.383 . S
C2743 H2751 0.929 . S
C2744 C2743 1.383 . S
C2744 C2745 1.377 . S
C2745 H2729 0.930 . S
C2745 C2744 1.377 . S
C2745 C2746 1.379 . S
C2746 H2730 0.931 . S
C2746 C2740 1.383 . S
C2746 C2745 1.379 . S
H2747 C2741 0.959 . S
H2748 C2741 0.961 . S
H2749 C2741 0.960 . S
H2750 C2742 0.930 . S
H2751 C2743 0.929 . S
C457 C135 1.492 . S
C476 C8 1.559 . S
C493 C22 1.561 . S
C512 C373 1.517 . S
C529 C163 1.492 . S
C548 C36 1.560 . S
C565 C345 1.494 . S
C584 C50 1.563 . S
C601 C64 1.560 . S
C620 C219 1.494 . S
C637 C401 1.494 . S
C656 C78 1.563 . S
C673 C92 1.558 . S
C692 C191 1.494 . S
C709 C429 1.488 . S
C728 C106 1.545 . S
C745 C23 1.491 . S
C764 C120 1.556 . S
C781 C134 1.561 . S
C800 C261 1.469 . S
C817 C51 1.488 . S
C836 C148 1.564 . S
C853 C162 1.561 . S
C872 C233 1.461 . S
C889 C176 1.560 . S
C908 C107 1.466 . S
C925 C289 1.490 . S
C944 C190 1.559 . S
C961 C204 1.557 . S
C980 C79 1.501 . S
C997 C317 1.488 . S
C1016 C218 1.568 . S
C1033 C359 1.497 . S
C1052 C232 1.554 . S
C1069 C149 1.500 . S
C1088 C246 1.562 . S
C1105 C260 1.561 . S
C1124 C387 1.517 . S
C1141 C121 1.494 . S
C1160 C274 1.549 . S
C1177 C443 1.494 . S
C1196 C288 1.550 . S
C1213 C302 1.557 . S
C1232 C177 1.461 . S
C1249 C415 1.488 . S
C1268 C316 1.544 . S
C1285 C205 1.494 . S
C1304 C330 1.550 . S
C1321 C247 1.499 . S
C1340 C344 1.543 . S
C1357 C358 1.561 . S
C1376 C37 1.461 . S
C1393 C372 1.561 . S
C1412 C275 1.461 . S
C1429 C386 1.556 . S
C1448 C9 1.520 . S
C1465 C331 1.492 . S
C1484 C400 1.563 . S
C1501 C414 1.556 . S
C1520 C65 1.516 . S
C1537 C428 1.559 . S
C1556 C303 1.502 . S
C1573 C442 1.557 . S
C1592 C93 1.507 . S
C1609 C342 1.363 . S
C1628 C6 1.356 . S
C1645 C20 1.362 . S
C1664 C132 1.352 . S
C1681 C34 1.360 . S
C1700 C370 1.359 . S
C1717 C48 1.362 . S
C1736 C160 1.366 . S
C1753 C62 1.360 . S
C1772 C398 1.355 . S
C1789 C76 1.363 . S
C1808 C188 1.356 . S
C1825 C426 1.360 . S
C1844 C90 1.357 . S
C1861 C104 1.361 . S
C1880 C216 1.351 . S
C1897 C118 1.363 . S
C1916 C230 1.363 . S
C1933 C146 1.363 . S
C1952 C258 1.366 . S
C1969 C286 1.361 . S
C1988 C174 1.351 . S
C2005 C314 1.362 . S
C2024 C202 1.353 . S
C2041 C244 1.360 . S
C2060 C356 1.359 . S
C2077 C384 1.361 . S
C2096 C272 1.351 . S
C2113 C300 1.362 . S
C2132 C412 1.366 . S
C2149 C440 1.361 . S
C2168 C328 1.363 . S
C2185 C301 1.308 . S
C2204 C7 1.303 . S
C2221 C315 1.308 . S
C2240 C21 1.308 . S
C2257 C35 1.300 . S
C2276 C329 1.309 . S
C2293 C287 1.301 . S
C2312 C49 1.326 . S
C2329 C273 1.308 . S
C2348 C63 1.277 . S
C2365 C231 1.299 . S
C2384 C77 1.312 . S
C2401 C91 1.306 . S
C2420 C245 1.315 . S
C2437 C259 1.309 . S
C2456 C105 1.297 . S
C2473 C413 1.307 . S
C2492 C119 1.278 . S
C2509 C427 1.301 . S
C2528 C133 1.325 . S
C2545 C441 1.304 . S
C2564 C147 1.278 . S
C2581 C161 1.308 . S
C2600 C399 1.279 . S
C2617 C385 1.306 . S
C2636 C175 1.323 . S
C2653 C343 1.302 . S
C2672 C189 1.326 . S
C2689 C357 1.310 . S
C2708 C203 1.300 . S
C2725 C371 1.304 . S
C2744 C217 1.278 . S
