# Generated by pormake.
# Topology ukh, (4)-cn, num edge types: 1
# Building blocks:
#     Node 0, Type 0, BuildingBlock: GALJAG_clean_sbu_0, # of connection points: 4
#     Node 1, Type 0, BuildingBlock: GALJAG_clean_sbu_0, # of connection points: 4
#     Node 2, Type 0, BuildingBlock: GALJAG_clean_sbu_0, # of connection points: 4
#     Node 3, Type 0, BuildingBlock: GALJAG_clean_sbu_0, # of connection points: 4
#     Node 4, Type 0, BuildingBlock: GALJAG_clean_sbu_0, # of connection points: 4
#     Node 5, Type 0, BuildingBlock: GALJAG_clean_sbu_0, # of connection points: 4
#     Node 6, Type 0, BuildingBlock: GALJAG_clean_sbu_0, # of connection points: 4
#     Node 7, Type 0, BuildingBlock: GALJAG_clean_sbu_0, # of connection points: 4
#     Node 8, Type 0, BuildingBlock: GALJAG_clean_sbu_0, # of connection points: 4
#     Node 9, Type 0, BuildingBlock: GALJAG_clean_sbu_0, # of connection points: 4
#     Node 10, Type 0, BuildingBlock: GALJAG_clean_sbu_0, # of connection points: 4
#     Node 11, Type 0, BuildingBlock: GALJAG_clean_sbu_0, # of connection points: 4
#     Edge 12, Type (0, 0), BuildingBlock: XIVTED_clean_linker_0, # of connection points: 2
#     Edge 13, Type (0, 0), BuildingBlock: XIVTED_clean_linker_0, # of connection points: 2
#     Edge 14, Type (0, 0), BuildingBlock: XIVTED_clean_linker_0, # of connection points: 2
#     Edge 15, Type (0, 0), BuildingBlock: XIVTED_clean_linker_0, # of connection points: 2
#     Edge 16, Type (0, 0), BuildingBlock: XIVTED_clean_linker_0, # of connection points: 2
#     Edge 17, Type (0, 0), BuildingBlock: XIVTED_clean_linker_0, # of connection points: 2
#     Edge 18, Type (0, 0), BuildingBlock: XIVTED_clean_linker_0, # of connection points: 2
#     Edge 19, Type (0, 0), BuildingBlock: XIVTED_clean_linker_0, # of connection points: 2
#     Edge 20, Type (0, 0), BuildingBlock: XIVTED_clean_linker_0, # of connection points: 2
#     Edge 21, Type (0, 0), BuildingBlock: XIVTED_clean_linker_0, # of connection points: 2
#     Edge 22, Type (0, 0), BuildingBlock: XIVTED_clean_linker_0, # of connection points: 2
#     Edge 23, Type (0, 0), BuildingBlock: XIVTED_clean_linker_0, # of connection points: 2
#     Edge 24, Type (0, 0), BuildingBlock: XIVTED_clean_linker_0, # of connection points: 2
#     Edge 25, Type (0, 0), BuildingBlock: XIVTED_clean_linker_0, # of connection points: 2
#     Edge 26, Type (0, 0), BuildingBlock: XIVTED_clean_linker_0, # of connection points: 2
#     Edge 27, Type (0, 0), BuildingBlock: XIVTED_clean_linker_0, # of connection points: 2
#     Edge 28, Type (0, 0), BuildingBlock: XIVTED_clean_linker_0, # of connection points: 2
#     Edge 29, Type (0, 0), BuildingBlock: XIVTED_clean_linker_0, # of connection points: 2
#     Edge 30, Type (0, 0), BuildingBlock: XIVTED_clean_linker_0, # of connection points: 2
#     Edge 31, Type (0, 0), BuildingBlock: XIVTED_clean_linker_0, # of connection points: 2
#     Edge 32, Type (0, 0), BuildingBlock: XIVTED_clean_linker_0, # of connection points: 2
#     Edge 33, Type (0, 0), BuildingBlock: XIVTED_clean_linker_0, # of connection points: 2
#     Edge 34, Type (0, 0), BuildingBlock: XIVTED_clean_linker_0, # of connection points: 2
#     Edge 35, Type (0, 0), BuildingBlock: XIVTED_clean_linker_0, # of connection points: 2
# Relax obj value: 0.072
# Max RMSD: 0.081
# Mean RMSD: 0.081
data_MOF--net-ukh--node1-GALJAG_clean_sbu_0--edge1-XIVTED_clean_linker_0
_symmetry_space_group_name_H-M    P1
_symmetry_Int_Tables_number       1
_symmetry_cell_setting            triclinic
loop_
_symmetry_equiv_pos_as_xyz
'x, y, z'
_cell_length_a     31.473495
_cell_length_b     31.469376
_cell_length_c     67.952881
_cell_angle_alpha  89.983547
_cell_angle_beta   90.000003
_cell_angle_gamma 119.96994
loop_
_atom_site_label
_atom_site_type_symbol
_atom_site_fract_x
_atom_site_fract_y
_atom_site_fract_z
_atom_type_partial_charge
In0 In 0.31815 0.22227 0.05635 0.0
O1 O 0.39349 0.28894 0.04987 0.0
O2 O 0.33594 0.30154 0.05869 0.0
C3 C 0.32757 0.14976 0.03946 0.0
C4 C 0.32045 0.20506 0.09505 0.0
C5 C 0.23836 0.2106 0.03686 0.0
O6 O 0.35055 0.19341 0.03325 0.0
O7 O 0.3012 0.1433 0.05437 0.0
O8 O 0.24044 0.21078 0.05542 0.0
O9 O 0.27627 0.21611 0.02826 0.0
C10 C 0.3801 0.31987 0.0535 0.0
O11 O 0.28116 0.194 0.08605 0.0
O12 O 0.35868 0.22536 0.08457 0.0
In13 In 0.09984 0.31522 0.39086 0.0
O14 O 0.09162 0.2782 0.42042 0.0
O15 O 0.14483 0.35422 0.41805 0.0
C16 C 0.02658 0.23953 0.3711 0.0
C17 C 0.06852 0.38101 0.39025 0.0
C18 C 0.17966 0.31927 0.37427 0.0
O19 O 0.02959 0.24013 0.38962 0.0
O20 O 0.06007 0.27698 0.36271 0.0
O21 O 0.16815 0.35183 0.37107 0.0
O22 O 0.15172 0.28599 0.38602 0.0
C23 C 0.12441 0.31641 0.42883 0.0
O24 O 0.10119 0.38393 0.37863 0.0
O25 O 0.05243 0.34566 0.40217 0.0
In26 In 0.775 0.09795 0.722 0.0
O27 O 0.7078 0.10693 0.71686 0.0
O28 O 0.69597 0.03591 0.72363 0.0
C29 C 0.84852 0.1808 0.70603 0.0
C30 C 0.79162 0.11505 0.76082 0.0
C31 C 0.78746 0.03092 0.7021 0.0
O32 O 0.80561 0.15984 0.69901 0.0
O33 O 0.8536 0.16067 0.72117 0.0
O34 O 0.7877 0.03262 0.72068 0.0
O35 O 0.78115 0.06305 0.69367 0.0
C36 C 0.6772 0.06211 0.71971 0.0
O37 O 0.80213 0.08674 0.75153 0.0
O38 O 0.77203 0.13411 0.75056 0.0
In39 In 0.67675 0.77972 0.05302 0.0
O40 O 0.70349 0.78317 0.08459 0.0
O41 O 0.64628 0.79933 0.07966 0.0
C42 C 0.75831 0.79519 0.03388 0.0
C43 C 0.61127 0.68274 0.04998 0.0
C44 C 0.67166 0.85391 0.0357 0.0
O45 O 0.75738 0.79976 0.05232 0.0
O46 O 0.71839 0.78308 0.02524 0.0
O47 O 0.64624 0.81011 0.02977 0.0
O48 O 0.69855 0.85967 0.05038 0.0
C49 C 0.67443 0.79564 0.09186 0.0
O50 O 0.59836 0.71473 0.04872 0.0
O51 O 0.65644 0.69977 0.05269 0.0
In52 In 0.90083 0.67374 0.38977 0.0
O53 O 0.91037 0.7106 0.41935 0.0
O54 O 0.85493 0.63528 0.41684 0.0
C55 C 0.97431 0.74941 0.37006 0.0
C56 C 0.93057 0.60674 0.39014 0.0
C57 C 0.82184 0.67141 0.3731 0.0
O58 O 0.9698 0.7498 0.38848 0.0
O59 O 0.94225 0.71096 0.36173 0.0
O60 O 0.83582 0.64159 0.36819 0.0
O61 O 0.84686 0.70098 0.38651 0.0
C62 C 0.87652 0.67291 0.42767 0.0
O63 O 0.89651 0.60245 0.379 0.0
O64 O 0.94887 0.64411 0.40103 0.0
In65 In 0.21701 0.89809 0.72237 0.0
O66 O 0.28206 0.8856 0.71676 0.0
O67 O 0.2961 0.95397 0.72866 0.0
C68 C 0.14635 0.82048 0.70269 0.0
C69 C 0.19837 0.87825 0.76095 0.0
C70 C 0.20958 0.96913 0.70312 0.0
O71 O 0.19076 0.84124 0.69738 0.0
O72 O 0.13832 0.83839 0.71786 0.0
O73 O 0.18392 0.94816 0.71812 0.0
O74 O 0.23827 0.95418 0.69796 0.0
C75 C 0.31359 0.92798 0.72267 0.0
O76 O 0.20911 0.91941 0.75372 0.0
O77 O 0.19755 0.84751 0.74882 0.0
In78 In 0.77546 0.67653 0.60839 0.0
O79 O 0.80109 0.71319 0.57849 0.0
O80 O 0.77058 0.63575 0.58004 0.0
C81 C 0.78753 0.75608 0.62811 0.0
C82 C 0.67794 0.61475 0.61165 0.0
C83 C 0.85 0.6689 0.62432 0.0
O84 O 0.78745 0.75433 0.60954 0.0
O85 O 0.7817 0.7179 0.63662 0.0
O86 O 0.80676 0.6451 0.63094 0.0
O87 O 0.85493 0.69495 0.60947 0.0
C88 C 0.78963 0.67383 0.56945 0.0
O89 O 0.70872 0.6007 0.61443 0.0
O90 O 0.69642 0.65943 0.60728 0.0
In91 In 0.10238 0.78228 0.94226 0.0
O92 O 0.11565 0.71727 0.9467 0.0
O93 O 0.04313 0.70225 0.94113 0.0
C94 C 0.18094 0.85549 0.9603 0.0
C95 C 0.12167 0.79989 0.90354 0.0
C96 C 0.03559 0.79614 0.96172 0.0
O97 O 0.16296 0.81125 0.96559 0.0
O98 O 0.15982 0.86222 0.94584 0.0
O99 O 0.04252 0.80337 0.94342 0.0
O100 O 0.06226 0.78212 0.97004 0.0
C101 C 0.07107 0.68523 0.94447 0.0
O102 O 0.07991 0.7869 0.91069 0.0
O103 O 0.1533 0.80338 0.91581 0.0
In104 In 0.32205 0.09717 0.27527 0.0
O105 O 0.3988 0.10721 0.27995 0.0
O106 O 0.34045 0.03635 0.27243 0.0
C107 C 0.32955 0.17785 0.29265 0.0
C108 C 0.32132 0.11611 0.23668 0.0
C109 C 0.24459 0.02759 0.29532 0.0
O110 O 0.35307 0.15764 0.29878 0.0
O111 O 0.3038 0.15825 0.27758 0.0
O112 O 0.2451 0.03007 0.27676 0.0
O113 O 0.28279 0.06033 0.30364 0.0
C114 C 0.38526 0.06275 0.27651 0.0
O115 O 0.28287 0.08707 0.24601 0.0
O116 O 0.36019 0.13523 0.24679 0.0
In117 In 0.21703 0.32351 0.61114 0.0
O118 O 0.19683 0.28519 0.5813 0.0
O119 O 0.21771 0.36081 0.58242 0.0
C120 C 0.20777 0.2447 0.63079 0.0
C121 C 0.3141 0.38744 0.61168 0.0
C122 C 0.147 0.33547 0.62924 0.0
O123 O 0.18127 0.24029 0.61612 0.0
O124 O 0.23821 0.28825 0.63543 0.0
O125 O 0.18906 0.35129 0.63659 0.0
O126 O 0.14124 0.31554 0.61267 0.0
C127 C 0.20384 0.32294 0.57199 0.0
O128 O 0.28317 0.39989 0.6168 0.0
O129 O 0.29584 0.34349 0.60612 0.0
In130 In 0.89929 0.2238 0.94091 0.0
O131 O 0.90949 0.19654 0.91125 0.0
O132 O 0.86197 0.22641 0.91261 0.0
C133 C 0.96729 0.21213 0.96048 0.0
C134 C 0.93387 0.32127 0.94354 0.0
C135 C 0.81739 0.15035 0.9574 0.0
O136 O 0.96527 0.21197 0.94192 0.0
O137 O 0.9351 0.21806 0.96905 0.0
O138 O 0.83829 0.1935 0.96416 0.0
O139 O 0.83704 0.14492 0.94219 0.0
C140 C 0.88078 0.20688 0.90218 0.0
O141 O 0.88951 0.29007 0.94693 0.0
O142 O 0.96027 0.30325 0.93878 0.0
In143 In 0.68163 0.89853 0.27274 0.0
O144 O 0.70996 0.91809 0.24122 0.0
O145 O 0.65001 0.84645 0.24669 0.0
C146 C 0.75864 0.96804 0.29296 0.0
C147 C 0.61607 0.9301 0.27399 0.0
C148 C 0.68006 0.82215 0.29125 0.0
O149 O 0.7613 0.96074 0.27482 0.0
O150 O 0.71748 0.94026 0.30073 0.0
O151 O 0.64944 0.83585 0.29519 0.0
O152 O 0.71036 0.84634 0.27784 0.0
C153 C 0.67951 0.87661 0.2343 0.0
O154 O 0.60405 0.88635 0.27814 0.0
O155 O 0.66025 0.95688 0.26911 0.0
H156 H 0.63388 0.61002 0.04762 0.0
H157 H 0.35684 0.39214 0.05772 0.0
H158 H 0.51051 0.63414 0.0499 0.0
H159 H 0.47853 0.36931 0.04553 0.0
H160 H 0.41226 0.48072 0.05551 0.0
H161 H 0.57739 0.52175 0.04731 0.0
C162 C 0.5948 0.59669 0.048 0.0
C163 C 0.5768 0.62942 0.04886 0.0
C164 C 0.42682 0.45636 0.05324 0.0
C165 C 0.51183 0.52822 0.04863 0.0
C166 C 0.39525 0.4058 0.05456 0.0
C167 C 0.41321 0.37337 0.05187 0.0
C168 C 0.4768 0.47467 0.04936 0.0
C169 C 0.46321 0.39303 0.04774 0.0
C170 C 0.56256 0.54624 0.04779 0.0
C171 C 0.52587 0.61012 0.04923 0.0
N172 N 0.49331 0.44242 0.0467 0.0
N173 N 0.4951 0.56069 0.04924 0.0
H174 H 0.06763 0.43637 0.35932 0.0
H175 H 0.97388 0.58681 0.42055 0.0
H176 H 0.02555 0.40299 0.42024 0.0
H177 H 0.92955 0.54816 0.36011 0.0
H178 H 0.00758 0.53145 0.42045 0.0
H179 H 0.03187 0.49033 0.35893 0.0
C180 C 0.05123 0.44073 0.37262 0.0
C181 C 0.04946 0.41533 0.38984 0.0
C182 C 0.99032 0.53502 0.40725 0.0
C183 C 0.00935 0.47695 0.38954 0.0
C184 C 0.97122 0.56656 0.40728 0.0
C185 C 0.94879 0.57175 0.39033 0.0
C186 C 0.98818 0.50957 0.39001 0.0
C187 C 0.94625 0.54476 0.37351 0.0
C188 C 0.03059 0.47111 0.37234 0.0
C189 C 0.0275 0.42187 0.40666 0.0
N190 N 0.96628 0.51514 0.37367 0.0
N191 N 0.00869 0.45242 0.40615 0.0
H192 H 0.38609 0.02188 0.72907 0.0
H193 H 0.60585 0.96566 0.72017 0.0
H194 H 0.36281 0.87826 0.71461 0.0
H195 H 0.6265 0.11183 0.71785 0.0
H196 H 0.51699 0.93211 0.72033 0.0
H197 H 0.47445 0.05453 0.7275 0.0
C198 C 0.39961 0.99713 0.72561 0.0
C199 C 0.36706 0.94721 0.722 0.0
C200 C 0.54095 0.97149 0.71969 0.0
C201 C 0.46838 0.98449 0.72019 0.0
C202 C 0.59165 0.9907 0.71965 0.0
C203 C 0.62355 0.04163 0.71903 0.0
C204 C 0.522 0.00347 0.71936 0.0
C205 C 0.6032 0.07235 0.71831 0.0
C206 C 0.45009 0.0159 0.72462 0.0
C207 C 0.38666 0.91696 0.71749 0.0
N208 N 0.55369 0.05279 0.71863 0.0
N209 N 0.43615 0.93605 0.7168 0.0
H210 H 0.60672 0.63997 0.61111 0.0
H211 H 0.38572 0.36383 0.60691 0.0
H212 H 0.62729 0.51456 0.61505 0.0
H213 H 0.36438 0.48684 0.6182 0.0
H214 H 0.47432 0.4189 0.60801 0.0
H215 H 0.51795 0.58497 0.61202 0.0
C216 C 0.59252 0.60082 0.61222 0.0
C217 C 0.62437 0.58172 0.61296 0.0
C218 C 0.45032 0.43389 0.61031 0.0
C219 C 0.52283 0.51861 0.61387 0.0
C220 C 0.39972 0.40251 0.6096 0.0
C221 C 0.36768 0.42087 0.61242 0.0
C222 C 0.46916 0.48416 0.61364 0.0
C223 C 0.38783 0.47122 0.61595 0.0
C224 C 0.54185 0.56948 0.61278 0.0
C225 C 0.60401 0.53077 0.61445 0.0
N226 N 0.43736 0.50121 0.61635 0.0
N227 N 0.55448 0.50092 0.61473 0.0
H228 H 0.8834 0.37014 0.94952 0.0
H229 H 0.12352 0.63717 0.94723 0.0
H230 H 0.02944 0.39396 0.94053 0.0
H231 H 0.97576 0.612 0.94406 0.0
H232 H 0.09039 0.54814 0.94803 0.0
H233 H 0.91728 0.45905 0.95083 0.0
C234 C 0.92259 0.3941 0.94788 0.0
C235 C 0.95364 0.37473 0.94483 0.0
C236 C 0.06528 0.56218 0.94718 0.0
C237 C 0.9927 0.47635 0.94636 0.0
C238 C 0.08417 0.61292 0.94677 0.0
C239 C 0.05234 0.63191 0.9455 0.0
C240 C 0.01424 0.53038 0.94647 0.0
C241 C 0.00164 0.59891 0.94495 0.0
C242 C 0.94192 0.44482 0.94859 0.0
C243 C 0.00417 0.40741 0.94281 0.0
N244 N 0.98418 0.54981 0.94545 0.0
N245 N 0.02215 0.45662 0.94362 0.0
H246 H 0.36116 0.96677 0.27436 0.0
H247 H 0.63858 0.02522 0.27052 0.0
H248 H 0.48548 0.11292 0.27976 0.0
H249 H 0.51626 0.87936 0.27968 0.0
H250 H 0.58262 0.05766 0.27191 0.0
H251 H 0.41689 0.93378 0.27444 0.0
C252 C 0.40024 0.99193 0.27559 0.0
C253 C 0.4188 0.0427 0.27702 0.0
C254 C 0.56796 0.01858 0.27368 0.0
C255 C 0.48274 0.00516 0.27702 0.0
C256 C 0.59986 -3e-05 0.27282 0.0
C257 C 0.58197 0.94947 0.27496 0.0
C258 C 0.51764 0.98646 0.27651 0.0
C259 C 0.53152 0.91853 0.27797 0.0
C260 C 0.43198 0.97303 0.27568 0.0
C261 C 0.46967 0.07356 0.27864 0.0
N262 N 0.50102 0.93751 0.27857 0.0
N263 N 0.49991 0.05431 0.27848 0.0
H264 H 0.2417 0.08495 0.21257 0.0
H265 H 0.40058 0.22875 0.11802 0.0
H266 H 0.39947 0.17465 0.21314 0.0
H267 H 0.24246 0.15454 0.11975 0.0
H268 H 0.4011 0.20683 0.15251 0.0
H269 H 0.24134 0.10701 0.17809 0.0
C270 C 0.27628 0.10919 0.20541 0.0
C271 C 0.32068 0.12804 0.21571 0.0
C272 C 0.36629 0.19544 0.14537 0.0
C273 C 0.32058 0.15351 0.17629 0.0
C274 C 0.36598 0.20796 0.12568 0.0
C275 C 0.3214 0.19346 0.11604 0.0
C276 C 0.32168 0.16799 0.15544 0.0
C277 C 0.27765 0.16653 0.12665 0.0
C278 C 0.27605 0.12188 0.18575 0.0
C279 C 0.3644 0.15933 0.20573 0.0
N280 N 0.27888 0.15455 0.14577 0.0
N281 N 0.36326 0.17107 0.18657 0.0
H282 H 0.09318 0.23807 0.45362 0.0
H283 H 0.22596 0.40136 0.54828 0.0
H284 H 0.18561 0.39546 0.45148 0.0
H285 H 0.16162 0.24396 0.54718 0.0
H286 H 0.20849 0.40002 0.51315 0.0
H287 H 0.11456 0.23942 0.4883 0.0
C288 C 0.11802 0.27291 0.46046 0.0
C289 C 0.13761 0.31674 0.44969 0.0
C290 C 0.19839 0.36579 0.52056 0.0
C291 C 0.16208 0.31858 0.48936 0.0
C292 C 0.20827 0.36652 0.54061 0.0
C293 C 0.19513 0.32267 0.55063 0.0
C294 C 0.17475 0.32083 0.5105 0.0
C295 C 0.17239 0.2786 0.54 0.0
C296 C 0.13031 0.27364 0.48023 0.0
C297 C 0.1697 0.36083 0.45926 0.0
N298 N 0.16265 0.27876 0.52052 0.0
N299 N 0.18076 0.36066 0.47858 0.0
H300 H 0.84076 0.08505 0.78511 0.0
H301 H 0.82307 0.22873 0.87915 0.0
H302 H 0.76988 0.17224 0.78423 0.0
H303 H 0.90986 0.15746 0.87762 0.0
H304 H 0.80045 0.20578 0.84475 0.0
H305 H 0.86302 0.10784 0.81954 0.0
C306 C 0.8297 0.10882 0.7922 0.0
C307 C 0.80346 0.12681 0.78183 0.0
C308 C 0.82455 0.19527 0.85191 0.0
C309 C 0.82891 0.15317 0.82116 0.0
C310 C 0.8375 0.20839 0.87154 0.0
C311 C 0.8684 0.19498 0.88121 0.0
C312 C 0.84243 0.16832 0.84193 0.0
C313 C 0.886 0.16861 0.87068 0.0
C314 C 0.84256 0.12196 0.81183 0.0
C315 C 0.79016 0.15758 0.7917 0.0
N316 N 0.87265 0.156 0.85162 0.0
N317 N 0.80303 0.16979 0.81083 0.0
H318 H 0.65003 0.85952 0.10807 0.0
H319 H 0.64957 0.78635 0.21863 0.0
H320 H 0.69936 0.75809 0.1232 0.0
H321 H 0.70775 0.93814 0.20265 0.0
H322 H 0.64911 0.76604 0.18367 0.0
H323 H 0.65226 0.87997 0.14306 0.0
C324 C 0.661 0.84136 0.1188 0.0
C325 C 0.6746 0.80715 0.11286 0.0
C326 C 0.66197 0.80372 0.18791 0.0
C327 C 0.67629 0.82962 0.15263 0.0
C328 C 0.66202 0.81528 0.20773 0.0
C329 C 0.67879 0.86396 0.21341 0.0
C330 C 0.67736 0.84089 0.17372 0.0
C331 C 0.69478 0.90022 0.19881 0.0
C332 C 0.66251 0.85323 0.13865 0.0
C333 C 0.68883 0.78482 0.12726 0.0
N334 N 0.69312 0.88786 0.17954 0.0
N335 N 0.68879 0.79603 0.14659 0.0
H336 H 0.76232 0.59343 0.54614 0.0
H337 H 0.91127 0.75138 0.45247 0.0
H338 H 0.83988 0.75168 0.54471 0.0
H339 H 0.81092 0.59532 0.45006 0.0
H340 H 0.88846 0.75161 0.4868 0.0
H341 H 0.78217 0.59268 0.51136 0.0
C342 C 0.78339 0.628 0.53848 0.0
C343 C 0.79955 0.6727 0.5483 0.0
C344 C 0.87132 0.71731 0.47877 0.0
C345 C 0.82264 0.67214 0.50862 0.0
C346 C 0.88444 0.71713 0.45919 0.0
C347 C 0.86297 0.67324 0.44843 0.0
C348 C 0.83672 0.67321 0.48773 0.0
C349 C 0.82833 0.62996 0.45784 0.0
C350 C 0.79466 0.62755 0.51864 0.0
C351 C 0.82667 0.71641 0.53769 0.0
N352 N 0.81638 0.63099 0.477 0.0
N353 N 0.83757 0.71503 0.51844 0.0
H354 H 0.21012 0.86388 0.88743 0.0
H355 H 0.1379 0.78868 0.77705 0.0
H356 H 0.05955 0.76265 0.87214 0.0
H357 H 0.23206 0.9408 0.79231 0.0
H358 H 0.11801 0.76946 0.81205 0.0
H359 H 0.22871 0.8841 0.85242 0.0
C360 C 0.18111 0.84577 0.87667 0.0
C361 C 0.13325 0.81163 0.88256 0.0
C362 C 0.14297 0.80698 0.80766 0.0
C363 C 0.15443 0.8338 0.84279 0.0
C364 C 0.15451 0.81792 0.7878 0.0
C365 C 0.18657 0.86637 0.78191 0.0
C366 C 0.16484 0.84453 0.82167 0.0
C367 C 0.20699 0.90304 0.79633 0.0
C368 C 0.19167 0.8575 0.85681 0.0
C369 C 0.09684 0.78932 0.86812 0.0
N370 N 0.19624 0.89128 0.81565 0.0
N371 N 0.1083 0.80037 0.8488 0.0
H372 H 0.21155 0.856 0.99805 0.0
H373 H 0.35796 0.14883 0.00183 0.0
H374 H 0.23756 0.9497 0.9478 0.0
H375 H 0.2912 0.05581 0.05234 0.0
H376 H 0.33746 0.07589 0.98211 0.0
H377 H 0.26383 0.92879 0.01795 0.0
C378 C 0.22921 0.89177 0.99111 0.0
C379 C 0.21967 0.89708 0.97138 0.0
C380 C 0.3282 0.0716 0.99761 0.0
C381 C 0.27919 0.98007 0.99393 0.0
C382 C 0.34008 0.11318 0.00888 0.0
C383 C 0.32543 0.10814 0.02863 0.0
C384 C 0.30179 0.02487 0.00622 0.0
C385 C 0.30245 0.06116 0.03706 0.0
C386 C 0.25882 0.93324 0.00247 0.0
C387 C 0.24343 0.94417 0.96307 0.0
N388 N 0.29076 0.02122 0.02574 0.0
N389 N 0.27169 0.98394 0.97444 0.0
H390 H 0.22656 0.3671 0.34036 0.0
H391 H 0.29591 0.23729 0.27932 0.0
H392 H 0.22105 0.26388 0.38351 0.0
H393 H 0.35337 0.20453 0.33115 0.0
H394 H 0.27363 0.28757 0.29924 0.0
H395 H 0.27932 0.34873 0.31973 0.0
C396 C 0.23711 0.34118 0.34562 0.0
C397 C 0.21869 0.3162 0.36345 0.0
C398 C 0.29266 0.27093 0.30621 0.0
C399 C 0.27785 0.29422 0.33986 0.0
C400 C 0.30507 0.24185 0.29483 0.0
C401 C 0.32615 0.21646 0.30365 0.0
C402 C 0.30078 0.27405 0.32663 0.0
C403 C 0.33712 0.22349 0.32379 0.0
C404 C 0.26674 0.33029 0.33375 0.0
C405 C 0.23377 0.28328 0.36967 0.0
N406 N 0.32322 0.25072 0.33471 0.0
N407 N 0.2621 0.27292 0.35781 0.0
H408 H 0.93985 0.23945 0.72108 0.0
H409 H 0.0567 0.3114 0.61504 0.0
H410 H 0.8546 0.21337 0.66817 0.0
H411 H 0.14195 0.35218 0.66849 0.0
H412 H 0.98314 0.2892 0.63437 0.0
H413 H 0.014 0.29402 0.70269 0.0
C414 C 0.93667 0.24597 0.70564 0.0
C415 C 0.89119 0.22128 0.69604 0.0
C416 C 0.01802 0.30389 0.64188 0.0
C417 C 0.97605 0.28305 0.67478 0.0
C418 C 0.06008 0.31664 0.63084 0.0
C419 C 0.1053 0.33286 0.64023 0.0
C420 C 0.0211 0.30669 0.6625 0.0
C421 C 0.1077 0.33939 0.66069 0.0
C422 C 0.97905 0.27715 0.69513 0.0
C423 C 0.88904 0.23141 0.67608 0.0
N424 N 0.06598 0.32537 0.67119 0.0
N425 N 0.93105 0.26081 0.66601 0.0
H426 H 0.70636 0.94649 0.04963 0.0
H427 H 0.75857 0.05798 0.94325 0.0
H428 H 0.64497 0.85781 0.99768 0.0
H429 H 0.78765 0.14596 0.99555 0.0
H430 H 0.70674 0.98453 0.96259 0.0
H431 H 0.72623 0.01958 0.03038 0.0
C432 C 0.69628 0.94238 0.03421 0.0
C433 C 0.67469 0.89624 0.02513 0.0
C434 C 0.72357 0.01993 0.96979 0.0
C435 C 0.6981 0.97978 0.00291 0.0
C436 C 0.75319 0.06189 0.95875 0.0
C437 C 0.778 0.10794 0.96791 0.0
C438 C 0.71953 0.02402 0.9902 0.0
C439 C 0.76947 0.11105 0.98796 0.0
C440 C 0.70755 0.98412 0.02323 0.0
C441 C 0.66195 0.89283 0.00519 0.0
N442 N 0.74172 0.06949 0.99854 0.0
N443 N 0.67478 0.93423 0.99463 0.0
H444 H 0.63706 0.78126 0.3266 0.0
H445 H 0.76982 0.71312 0.3865 0.0
H446 H 0.7327 0.77765 0.28197 0.0
H447 H 0.78898 0.6431 0.33544 0.0
H448 H 0.72017 0.73693 0.36694 0.0
H449 H 0.65598 0.72956 0.34763 0.0
C450 C 0.6615 0.76903 0.32114 0.0
C451 C 0.68415 0.7845 0.30271 0.0
C452 C 0.73367 0.7149 0.36011 0.0
C453 C 0.70666 0.72639 0.32673 0.0
C454 C 0.76238 0.70161 0.37126 0.0
C455 C 0.78364 0.67634 0.36252 0.0
C456 C 0.72688 0.70352 0.33995 0.0
C457 C 0.7731 0.66249 0.34272 0.0
C458 C 0.67266 0.73996 0.33321 0.0
C459 C 0.71514 0.76724 0.29624 0.0
N460 N 0.74638 0.67732 0.33196 0.0
N461 N 0.72582 0.73944 0.30831 0.0
H462 H 0.1465 0.79615 0.66396 0.0
H463 H 0.85385 0.63757 0.66153 0.0
H464 H 0.05344 0.75797 0.71515 0.0
H465 H 0.94389 0.70935 0.6108 0.0
H466 H 0.92819 0.66008 0.68059 0.0
H467 H 0.0741 0.74347 0.6439 0.0
C468 C 0.11103 0.77578 0.67104 0.0
C469 C 0.10567 0.78194 0.69114 0.0
C470 C 0.93159 0.67007 0.66518 0.0
C471 C 0.02309 0.72199 0.66841 0.0
C472 C 0.88918 0.65703 0.65428 0.0
C473 C 0.89286 0.6724 0.63468 0.0
C474 C 0.97783 0.6985 0.65636 0.0
C475 C 0.93952 0.69744 0.62598 0.0
C476 C 0.06975 0.74595 0.65959 0.0
C477 C 0.05896 0.75477 0.69962 0.0
N478 N 0.98026 0.7103 0.63695 0.0
N479 N 0.01939 0.72639 0.68818 0.0
H480 H 0.04344 0.20351 0.94559 0.0
H481 H 0.15433 0.20362 0.0518 0.0
H482 H 0.97716 0.20978 0.0003 0.0
H483 H 0.22563 0.20733 0.99706 0.0
H484 H 0.08597 0.19991 0.0332 0.0
H485 H 0.1076 0.19897 0.96421 0.0
C486 C 0.0423 0.20372 0.96152 0.0
C487 C 0.00512 0.20726 0.97143 0.0
C488 C 0.1165 0.20136 0.02526 0.0
C489 C 0.07831 0.20215 0.99282 0.0
C490 C 0.15546 0.20342 0.03587 0.0
C491 C 0.19575 0.20602 0.02595 0.0
C492 C 0.11786 0.20187 0.00458 0.0
C493 C 0.19535 0.20557 0.0053 0.0
C494 C 0.07893 0.20118 0.97214 0.0
C495 C 0.0053 0.20729 0.99208 0.0
N496 N 0.15709 0.2037 0.9953 0.0
N497 N 0.04141 0.20493 0.00209 0.0
H498 H 0.8476 0.03981 0.27915 0.0
H499 H 0.94615 0.15769 0.3856 0.0
H500 H 0.7631 0.98431 0.3325 0.0
H501 H 0.01821 0.22761 0.33128 0.0
H502 H 0.88169 0.09007 0.36662 0.0
H503 H 0.91395 0.10528 0.29828 0.0
C504 C 0.84313 0.04131 0.29489 0.0
C505 C 0.79981 0.00675 0.30426 0.0
C506 C 0.91162 0.12023 0.35886 0.0
C507 C 0.87536 0.08131 0.32621 0.0
C508 C 0.94839 0.15876 0.36969 0.0
C509 C 0.98742 0.1983 0.35998 0.0
C510 C 0.91412 0.12117 0.3382 0.0
C511 C 0.98863 0.19787 0.33934 0.0
C512 C 0.8809 0.07872 0.3058 0.0
C513 C 0.79586 0.01035 0.32469 0.0
N514 N 0.95254 0.15988 0.32913 0.0
N515 N 0.83314 0.04697 0.33498 0.0
H516 H 0.79153 0.76862 0.66794 0.0
H517 H 0.7905 0.02202 0.66225 0.0
H518 H 0.79431 0.84023 0.61339 0.0
H519 H 0.79535 0.95414 0.71675 0.0
H520 H 0.7947 0.95725 0.64407 0.0
H521 H 0.79572 0.83762 0.68606 0.0
C522 C 0.79322 0.799 0.65977 0.0
C523 C 0.79236 0.79866 0.63914 0.0
C524 C 0.79507 0.95659 0.66 0.0
C525 C 0.797 0.87769 0.65978 0.0
C526 C 0.79266 0.99356 0.67039 0.0
C527 C 0.79237 0.99328 0.69103 0.0
C528 C 0.79701 0.91894 0.67034 0.0
C529 C 0.79537 0.95564 0.70083 0.0
C530 C 0.79564 0.8384 0.67013 0.0
C531 C 0.79478 0.83901 0.62931 0.0
N532 N 0.79733 0.91983 0.69039 0.0
N533 N 0.79676 0.87682 0.63973 0.0
H534 H 0.77165 0.79799 0.99415 0.0
H535 H 0.02137 0.79184 0.00142 0.0
H536 H 0.84383 0.80648 0.04919 0.0
H537 H 0.96468 0.81328 0.94679 0.0
H538 H 0.9566 0.79693 0.01919 0.0
H539 H 0.84186 0.80348 0.97651 0.0
C540 C 0.80243 0.80125 0.00252 0.0
C541 C 0.80188 0.80154 0.02316 0.0
C542 C 0.95848 0.80086 0.00334 0.0
C543 C 0.8822 0.80751 0.00307 0.0
C544 C 0.99537 0.79785 0.99317 0.0
C545 C 0.99819 0.80191 0.97259 0.0
C546 C 0.92381 0.8075 0.99283 0.0
C547 C 0.96373 0.80987 0.96266 0.0
C548 C 0.84254 0.80449 0.99244 0.0
C549 C 0.84279 0.80606 0.03327 0.0
N550 N 0.9277 0.81203 0.97287 0.0
N551 N 0.88116 0.80847 0.02312 0.0
H552 H 0.98712 0.75783 0.33028 0.0
H553 H 0.23417 0.01791 0.3352 0.0
H554 H 0.05026 0.83495 0.38454 0.0
H555 H 0.16195 0.948 0.28092 0.0
H556 H 0.16775 0.95091 0.35357 0.0
H557 H 0.05173 0.82652 0.31198 0.0
C558 C 0.01465 0.78926 0.33834 0.0
C559 C 0.01343 0.79073 0.35895 0.0
C560 C 0.1663 0.95028 0.33765 0.0
C561 C 0.08749 0.8695 0.3381 0.0
C562 C 0.20419 0.98851 0.32715 0.0
C563 C 0.20354 0.98841 0.30651 0.0
C564 C 0.12757 0.91151 0.32743 0.0
C565 C 0.16385 0.94948 0.29683 0.0
C566 C 0.05146 0.82851 0.32788 0.0
C567 C 0.04991 0.83236 0.36865 0.0
N568 N 0.12752 0.91246 0.30738 0.0
N569 N 0.08556 0.87009 0.35813 0.0
H570 H 0.2825 0.04176 0.68188 0.0
H571 H 0.1298 0.15088 0.63383 0.0
H572 H 0.13287 0.98703 0.70032 0.0
H573 H 0.28007 0.2435 0.65198 0.0
H574 H 0.12792 0.08222 0.65212 0.0
H575 H 0.28031 0.1085 0.66431 0.0
C576 C 0.24912 0.04375 0.68215 0.0
C577 C 0.20785 0.00914 0.69259 0.0
C578 C 0.1611 0.11773 0.65207 0.0
C579 C 0.2049 0.08458 0.67227 0.0
C580 C 0.1623 0.15663 0.6416 0.0
C581 C 0.20515 0.20271 0.64146 0.0
C582 C 0.20347 0.12495 0.66186 0.0
C583 C 0.24627 0.20854 0.6518 0.0
C584 C 0.24799 0.08183 0.6722 0.0
C585 C 0.16552 0.01336 0.69253 0.0
N586 N 0.24461 0.16995 0.6614 0.0
N587 N 0.1649 0.0503 0.68232 0.0
loop_
_geom_bond_atom_site_label_1
_geom_bond_atom_site_label_2
_geom_bond_distance
_geom_bond_site_symmetry_2
_ccdc_geom_bond_type
In0 O1 2.294 . S
In0 O2 2.326 . S
In0 O6 2.266 . S
In0 O7 2.326 . S
In0 O8 2.266 . S
In0 O9 2.326 . S
In0 O11 2.294 . S
In0 O12 2.326 . S
O1 In0 2.294 . S
O1 C10 1.240 . S
O2 In0 2.326 . S
O2 C10 1.252 . S
C3 O6 1.252 . S
C3 O7 1.260 . S
C4 O11 1.240 . S
C4 O12 1.252 . S
C5 O8 1.252 . S
C5 O9 1.260 . S
O6 In0 2.266 . S
O6 C3 1.252 . S
O7 In0 2.326 . S
O7 C3 1.260 . S
O8 In0 2.266 . S
O8 C5 1.252 . S
O9 In0 2.326 . S
O9 C5 1.260 . S
C10 O1 1.240 . S
C10 O2 1.252 . S
O11 In0 2.294 . S
O11 C4 1.240 . S
O12 In0 2.326 . S
O12 C4 1.252 . S
In13 O14 2.294 . S
In13 O15 2.326 . S
In13 O19 2.266 . S
In13 O20 2.326 . S
In13 O21 2.266 . S
In13 O22 2.326 . S
In13 O24 2.294 . S
In13 O25 2.326 . S
O14 In13 2.294 . S
O14 C23 1.240 . S
O15 In13 2.326 . S
O15 C23 1.252 . S
C16 O19 1.252 . S
C16 O20 1.260 . S
C17 O24 1.240 . S
C17 O25 1.252 . S
C18 O21 1.252 . S
C18 O22 1.260 . S
O19 In13 2.266 . S
O19 C16 1.252 . S
O20 In13 2.326 . S
O20 C16 1.260 . S
O21 In13 2.266 . S
O21 C18 1.252 . S
O22 In13 2.326 . S
O22 C18 1.260 . S
C23 O14 1.240 . S
C23 O15 1.252 . S
O24 In13 2.294 . S
O24 C17 1.240 . S
O25 In13 2.326 . S
O25 C17 1.252 . S
In26 O27 2.294 . S
In26 O28 2.326 . S
In26 O32 2.266 . S
In26 O33 2.326 . S
In26 O34 2.266 . S
In26 O35 2.326 . S
In26 O37 2.294 . S
In26 O38 2.326 . S
O27 In26 2.294 . S
O27 C36 1.240 . S
O28 In26 2.326 . S
O28 C36 1.252 . S
C29 O32 1.252 . S
C29 O33 1.260 . S
C30 O37 1.240 . S
C30 O38 1.252 . S
C31 O34 1.252 . S
C31 O35 1.260 . S
O32 In26 2.266 . S
O32 C29 1.252 . S
O33 In26 2.326 . S
O33 C29 1.260 . S
O34 In26 2.266 . S
O34 C31 1.252 . S
O35 In26 2.326 . S
O35 C31 1.260 . S
C36 O27 1.240 . S
C36 O28 1.252 . S
O37 In26 2.294 . S
O37 C30 1.240 . S
O38 In26 2.326 . S
O38 C30 1.252 . S
In39 O40 2.294 . S
In39 O41 2.326 . S
In39 O45 2.266 . S
In39 O46 2.326 . S
In39 O47 2.266 . S
In39 O48 2.326 . S
In39 O50 2.294 . S
In39 O51 2.326 . S
O40 In39 2.294 . S
O40 C49 1.240 . S
O41 In39 2.326 . S
O41 C49 1.252 . S
C42 O45 1.252 . S
C42 O46 1.260 . S
C43 O50 1.240 . S
C43 O51 1.252 . S
C44 O47 1.252 . S
C44 O48 1.260 . S
O45 In39 2.266 . S
O45 C42 1.252 . S
O46 In39 2.326 . S
O46 C42 1.260 . S
O47 In39 2.266 . S
O47 C44 1.252 . S
O48 In39 2.326 . S
O48 C44 1.260 . S
C49 O40 1.240 . S
C49 O41 1.252 . S
O50 In39 2.294 . S
O50 C43 1.240 . S
O51 In39 2.326 . S
O51 C43 1.252 . S
In52 O53 2.294 . S
In52 O54 2.326 . S
In52 O58 2.266 . S
In52 O59 2.326 . S
In52 O60 2.266 . S
In52 O61 2.326 . S
In52 O63 2.294 . S
In52 O64 2.326 . S
O53 In52 2.294 . S
O53 C62 1.240 . S
O54 In52 2.326 . S
O54 C62 1.252 . S
C55 O58 1.252 . S
C55 O59 1.260 . S
C56 O63 1.240 . S
C56 O64 1.252 . S
C57 O60 1.252 . S
C57 O61 1.260 . S
O58 In52 2.266 . S
O58 C55 1.252 . S
O59 In52 2.326 . S
O59 C55 1.260 . S
O60 In52 2.266 . S
O60 C57 1.252 . S
O61 In52 2.326 . S
O61 C57 1.260 . S
C62 O53 1.240 . S
C62 O54 1.252 . S
O63 In52 2.294 . S
O63 C56 1.240 . S
O64 In52 2.326 . S
O64 C56 1.252 . S
In65 O66 2.294 . S
In65 O67 2.326 . S
In65 O71 2.266 . S
In65 O72 2.326 . S
In65 O73 2.266 . S
In65 O74 2.326 . S
In65 O76 2.294 . S
In65 O77 2.326 . S
O66 In65 2.294 . S
O66 C75 1.240 . S
O67 In65 2.326 . S
O67 C75 1.252 . S
C68 O71 1.252 . S
C68 O72 1.260 . S
C69 O76 1.240 . S
C69 O77 1.252 . S
C70 O73 1.252 . S
C70 O74 1.260 . S
O71 In65 2.266 . S
O71 C68 1.252 . S
O72 In65 2.326 . S
O72 C68 1.260 . S
O73 In65 2.266 . S
O73 C70 1.252 . S
O74 In65 2.326 . S
O74 C70 1.260 . S
C75 O66 1.240 . S
C75 O67 1.252 . S
O76 In65 2.294 . S
O76 C69 1.240 . S
O77 In65 2.326 . S
O77 C69 1.252 . S
In78 O79 2.294 . S
In78 O80 2.326 . S
In78 O84 2.266 . S
In78 O85 2.326 . S
In78 O86 2.266 . S
In78 O87 2.326 . S
In78 O89 2.294 . S
In78 O90 2.326 . S
O79 In78 2.294 . S
O79 C88 1.240 . S
O80 In78 2.326 . S
O80 C88 1.252 . S
C81 O84 1.252 . S
C81 O85 1.260 . S
C82 O89 1.240 . S
C82 O90 1.252 . S
C83 O86 1.252 . S
C83 O87 1.260 . S
O84 In78 2.266 . S
O84 C81 1.252 . S
O85 In78 2.326 . S
O85 C81 1.260 . S
O86 In78 2.266 . S
O86 C83 1.252 . S
O87 In78 2.326 . S
O87 C83 1.260 . S
C88 O79 1.240 . S
C88 O80 1.252 . S
O89 In78 2.294 . S
O89 C82 1.240 . S
O90 In78 2.326 . S
O90 C82 1.252 . S
In91 O92 2.294 . S
In91 O93 2.326 . S
In91 O97 2.266 . S
In91 O98 2.326 . S
In91 O99 2.266 . S
In91 O100 2.326 . S
In91 O102 2.294 . S
In91 O103 2.326 . S
O92 In91 2.294 . S
O92 C101 1.240 . S
O93 In91 2.326 . S
O93 C101 1.252 . S
C94 O97 1.252 . S
C94 O98 1.260 . S
C95 O102 1.240 . S
C95 O103 1.252 . S
C96 O99 1.252 . S
C96 O100 1.260 . S
O97 In91 2.266 . S
O97 C94 1.252 . S
O98 In91 2.326 . S
O98 C94 1.260 . S
O99 In91 2.266 . S
O99 C96 1.252 . S
O100 In91 2.326 . S
O100 C96 1.260 . S
C101 O92 1.240 . S
C101 O93 1.252 . S
O102 In91 2.294 . S
O102 C95 1.240 . S
O103 In91 2.326 . S
O103 C95 1.252 . S
In104 O105 2.294 . S
In104 O106 2.326 . S
In104 O110 2.266 . S
In104 O111 2.326 . S
In104 O112 2.266 . S
In104 O113 2.326 . S
In104 O115 2.294 . S
In104 O116 2.326 . S
O105 In104 2.294 . S
O105 C114 1.240 . S
O106 In104 2.326 . S
O106 C114 1.252 . S
C107 O110 1.252 . S
C107 O111 1.260 . S
C108 O115 1.240 . S
C108 O116 1.252 . S
C109 O112 1.252 . S
C109 O113 1.260 . S
O110 In104 2.266 . S
O110 C107 1.252 . S
O111 In104 2.326 . S
O111 C107 1.260 . S
O112 In104 2.266 . S
O112 C109 1.252 . S
O113 In104 2.326 . S
O113 C109 1.260 . S
C114 O105 1.240 . S
C114 O106 1.252 . S
O115 In104 2.294 . S
O115 C108 1.240 . S
O116 In104 2.326 . S
O116 C108 1.252 . S
In117 O118 2.294 . S
In117 O119 2.326 . S
In117 O123 2.266 . S
In117 O124 2.326 . S
In117 O125 2.266 . S
In117 O126 2.326 . S
In117 O128 2.294 . S
In117 O129 2.326 . S
O118 In117 2.294 . S
O118 C127 1.240 . S
O119 In117 2.326 . S
O119 C127 1.252 . S
C120 O123 1.252 . S
C120 O124 1.260 . S
C121 O128 1.240 . S
C121 O129 1.252 . S
C122 O125 1.252 . S
C122 O126 1.260 . S
O123 In117 2.266 . S
O123 C120 1.252 . S
O124 In117 2.326 . S
O124 C120 1.260 . S
O125 In117 2.266 . S
O125 C122 1.252 . S
O126 In117 2.326 . S
O126 C122 1.260 . S
C127 O118 1.240 . S
C127 O119 1.252 . S
O128 In117 2.294 . S
O128 C121 1.240 . S
O129 In117 2.326 . S
O129 C121 1.252 . S
In130 O131 2.294 . S
In130 O132 2.326 . S
In130 O136 2.266 . S
In130 O137 2.326 . S
In130 O138 2.266 . S
In130 O139 2.326 . S
In130 O141 2.294 . S
In130 O142 2.326 . S
O131 In130 2.294 . S
O131 C140 1.240 . S
O132 In130 2.326 . S
O132 C140 1.252 . S
C133 O136 1.252 . S
C133 O137 1.260 . S
C134 O141 1.240 . S
C134 O142 1.252 . S
C135 O138 1.252 . S
C135 O139 1.260 . S
O136 In130 2.266 . S
O136 C133 1.252 . S
O137 In130 2.326 . S
O137 C133 1.260 . S
O138 In130 2.266 . S
O138 C135 1.252 . S
O139 In130 2.326 . S
O139 C135 1.260 . S
C140 O131 1.240 . S
C140 O132 1.252 . S
O141 In130 2.294 . S
O141 C134 1.240 . S
O142 In130 2.326 . S
O142 C134 1.252 . S
In143 O144 2.294 . S
In143 O145 2.326 . S
In143 O149 2.266 . S
In143 O150 2.326 . S
In143 O151 2.266 . S
In143 O152 2.326 . S
In143 O154 2.294 . S
In143 O155 2.326 . S
O144 In143 2.294 . S
O144 C153 1.240 . S
O145 In143 2.326 . S
O145 C153 1.252 . S
C146 O149 1.252 . S
C146 O150 1.260 . S
C147 O154 1.240 . S
C147 O155 1.252 . S
C148 O151 1.252 . S
C148 O152 1.260 . S
O149 In143 2.266 . S
O149 C146 1.252 . S
O150 In143 2.326 . S
O150 C146 1.260 . S
O151 In143 2.266 . S
O151 C148 1.252 . S
O152 In143 2.326 . S
O152 C148 1.260 . S
C153 O144 1.240 . S
C153 O145 1.252 . S
O154 In143 2.294 . S
O154 C147 1.240 . S
O155 In143 2.326 . S
O155 C147 1.252 . S
H156 C162 0.930 . S
H157 C166 0.930 . S
H158 C171 0.929 . S
H159 C169 0.929 . S
H160 C164 0.929 . S
H161 C170 0.929 . S
C162 H156 0.930 . S
C162 C163 1.367 . S
C162 C170 1.378 . S
C163 C162 1.367 . S
C163 C171 1.433 . S
C164 H160 0.929 . S
C164 C166 1.378 . S
C164 C168 1.350 . S
C165 C168 1.463 . S
C165 C170 1.350 . S
C165 N173 1.427 . S
C166 H157 0.930 . S
C166 C164 1.378 . S
C166 C167 1.367 . S
C167 C166 1.367 . S
C167 C169 1.433 . S
C168 C164 1.350 . S
C168 C165 1.463 . S
C168 N172 1.427 . S
C169 H159 0.929 . S
C169 C167 1.433 . S
C169 N172 1.384 . S
C170 H161 0.929 . S
C170 C162 1.378 . S
C170 C165 1.350 . S
C171 H158 0.929 . S
C171 C163 1.433 . S
C171 N173 1.384 . S
N172 C168 1.427 . S
N172 C169 1.384 . S
N173 C165 1.427 . S
N173 C171 1.384 . S
H174 C180 0.930 . S
H175 C184 0.930 . S
H176 C189 0.929 . S
H177 C187 0.929 . S
H178 C182 0.929 . S
H179 C188 0.929 . S
C180 H174 0.930 . S
C180 C181 1.367 . S
C180 C188 1.378 . S
C181 C180 1.367 . S
C181 C189 1.433 . S
C182 H178 0.929 . S
C182 C184 1.378 . S
C182 C186 1.350 . S
C183 C186 1.463 1_455 S
C183 C188 1.350 . S
C183 N191 1.427 . S
C184 H175 0.930 . S
C184 C182 1.378 . S
C184 C185 1.367 . S
C185 C184 1.367 . S
C185 C187 1.433 . S
C186 C182 1.350 . S
C186 C183 1.463 1_655 S
C186 N190 1.427 . S
C187 H177 0.929 . S
C187 C185 1.433 . S
C187 N190 1.384 . S
C188 H179 0.929 . S
C188 C180 1.378 . S
C188 C183 1.350 . S
C189 H176 0.929 . S
C189 C181 1.433 . S
C189 N191 1.384 . S
N190 C186 1.427 . S
N190 C187 1.384 . S
N191 C183 1.427 . S
N191 C189 1.384 . S
H192 C198 0.930 1_545 S
H193 C202 0.930 1_565 S
H194 C207 0.929 . S
H195 C205 0.929 . S
H196 C200 0.929 . S
H197 C206 0.929 . S
C198 H192 0.930 1_565 S
C198 C199 1.367 . S
C198 C206 1.378 1_565 S
C199 C198 1.367 . S
C199 C207 1.433 . S
C200 H196 0.929 . S
C200 C202 1.378 1_565 S
C200 C204 1.350 1_565 S
C201 C204 1.463 1_565 S
C201 C206 1.350 1_565 S
C201 N209 1.427 . S
C202 H193 0.930 1_545 S
C202 C200 1.378 1_545 S
C202 C203 1.367 . S
C203 C202 1.367 . S
C203 C205 1.433 . S
C204 C200 1.350 1_545 S
C204 C201 1.463 1_545 S
C204 N208 1.427 . S
C205 H195 0.929 . S
C205 C203 1.433 . S
C205 N208 1.384 . S
C206 H197 0.929 . S
C206 C198 1.378 1_545 S
C206 C201 1.350 1_545 S
C207 H194 0.929 . S
C207 C199 1.433 . S
C207 N209 1.384 . S
N208 C204 1.427 . S
N208 C205 1.384 . S
N209 C201 1.427 . S
N209 C207 1.384 . S
H210 C216 0.930 . S
H211 C220 0.930 . S
H212 C225 0.929 . S
H213 C223 0.929 . S
H214 C218 0.929 . S
H215 C224 0.929 . S
C216 H210 0.930 . S
C216 C217 1.367 . S
C216 C224 1.378 . S
C217 C216 1.367 . S
C217 C225 1.433 . S
C218 H214 0.929 . S
C218 C220 1.378 . S
C218 C222 1.350 . S
C219 C222 1.463 . S
C219 C224 1.350 . S
C219 N227 1.427 . S
C220 H211 0.930 . S
C220 C218 1.378 . S
C220 C221 1.367 . S
C221 C220 1.367 . S
C221 C223 1.433 . S
C222 C218 1.350 . S
C222 C219 1.463 . S
C222 N226 1.427 . S
C223 H213 0.929 . S
C223 C221 1.433 . S
C223 N226 1.384 . S
C224 H215 0.929 . S
C224 C216 1.378 . S
C224 C219 1.350 . S
C225 H212 0.929 . S
C225 C217 1.433 . S
C225 N227 1.384 . S
N226 C222 1.427 . S
N226 C223 1.384 . S
N227 C219 1.427 . S
N227 C225 1.384 . S
H228 C234 0.930 . S
H229 C238 0.930 . S
H230 C243 0.929 1_455 S
H231 C241 0.929 1_655 S
H232 C236 0.929 . S
H233 C242 0.929 . S
C234 H228 0.930 . S
C234 C235 1.367 . S
C234 C242 1.378 . S
C235 C234 1.367 . S
C235 C243 1.433 . S
C236 H232 0.929 . S
C236 C238 1.378 . S
C236 C240 1.350 . S
C237 C240 1.463 1_655 S
C237 C242 1.350 . S
C237 N245 1.427 1_655 S
C238 H229 0.930 . S
C238 C236 1.378 . S
C238 C239 1.367 . S
C239 C238 1.367 . S
C239 C241 1.433 . S
C240 C236 1.350 . S
C240 C237 1.463 1_455 S
C240 N244 1.427 1_455 S
C241 H231 0.929 1_455 S
C241 C239 1.433 . S
C241 N244 1.384 1_455 S
C242 H233 0.929 . S
C242 C234 1.378 . S
C242 C237 1.350 . S
C243 H230 0.929 1_655 S
C243 C235 1.433 . S
C243 N245 1.384 1_655 S
N244 C240 1.427 1_655 S
N244 C241 1.384 1_655 S
N245 C237 1.427 1_455 S
N245 C243 1.384 1_455 S
H246 C252 0.930 1_565 S
H247 C256 0.930 1_545 S
H248 C261 0.929 . S
H249 C259 0.929 . S
H250 C254 0.929 . S
H251 C260 0.929 . S
C252 H246 0.930 1_545 S
C252 C253 1.367 . S
C252 C260 1.378 1_545 S
C253 C252 1.367 . S
C253 C261 1.433 . S
C254 H250 0.929 . S
C254 C256 1.378 1_545 S
C254 C258 1.350 1_545 S
C255 C258 1.463 1_545 S
C255 C260 1.350 1_545 S
C255 N263 1.427 . S
C256 H247 0.930 1_565 S
C256 C254 1.378 1_565 S
C256 C257 1.367 . S
C257 C256 1.367 . S
C257 C259 1.433 . S
C258 C254 1.350 1_565 S
C258 C255 1.463 1_565 S
C258 N262 1.427 . S
C259 H249 0.929 . S
C259 C257 1.433 . S
C259 N262 1.384 . S
C260 H251 0.929 . S
C260 C252 1.378 1_565 S
C260 C255 1.350 1_565 S
C261 H248 0.929 . S
C261 C253 1.433 . S
C261 N263 1.384 . S
N262 C258 1.427 . S
N262 C259 1.384 . S
N263 C255 1.427 . S
N263 C261 1.384 . S
H264 C270 0.930 . S
H265 C274 0.930 . S
H266 C279 0.929 . S
H267 C277 0.929 . S
H268 C272 0.929 . S
H269 C278 0.929 . S
C270 H264 0.930 . S
C270 C271 1.367 . S
C270 C278 1.378 . S
C271 C270 1.367 . S
C271 C279 1.433 . S
C272 H268 0.929 . S
C272 C274 1.378 . S
C272 C276 1.350 . S
C273 C276 1.463 . S
C273 C278 1.350 . S
C273 N281 1.427 . S
C274 H265 0.930 . S
C274 C272 1.378 . S
C274 C275 1.367 . S
C275 C274 1.367 . S
C275 C277 1.433 . S
C276 C272 1.350 . S
C276 C273 1.463 . S
C276 N280 1.427 . S
C277 H267 0.929 . S
C277 C275 1.433 . S
C277 N280 1.384 . S
C278 H269 0.929 . S
C278 C270 1.378 . S
C278 C273 1.350 . S
C279 H266 0.929 . S
C279 C271 1.433 . S
C279 N281 1.384 . S
N280 C276 1.427 . S
N280 C277 1.384 . S
N281 C273 1.427 . S
N281 C279 1.384 . S
H282 C288 0.930 . S
H283 C292 0.930 . S
H284 C297 0.929 . S
H285 C295 0.929 . S
H286 C290 0.929 . S
H287 C296 0.929 . S
C288 H282 0.930 . S
C288 C289 1.367 . S
C288 C296 1.378 . S
C289 C288 1.367 . S
C289 C297 1.433 . S
C290 H286 0.929 . S
C290 C292 1.378 . S
C290 C294 1.350 . S
C291 C294 1.463 . S
C291 C296 1.350 . S
C291 N299 1.427 . S
C292 H283 0.930 . S
C292 C290 1.378 . S
C292 C293 1.367 . S
C293 C292 1.367 . S
C293 C295 1.433 . S
C294 C290 1.350 . S
C294 C291 1.463 . S
C294 N298 1.427 . S
C295 H285 0.929 . S
C295 C293 1.433 . S
C295 N298 1.384 . S
C296 H287 0.929 . S
C296 C288 1.378 . S
C296 C291 1.350 . S
C297 H284 0.929 . S
C297 C289 1.433 . S
C297 N299 1.384 . S
N298 C294 1.427 . S
N298 C295 1.384 . S
N299 C291 1.427 . S
N299 C297 1.384 . S
H300 C306 0.930 . S
H301 C310 0.930 . S
H302 C315 0.929 . S
H303 C313 0.929 . S
H304 C308 0.929 . S
H305 C314 0.929 . S
C306 H300 0.930 . S
C306 C307 1.367 . S
C306 C314 1.378 . S
C307 C306 1.367 . S
C307 C315 1.433 . S
C308 H304 0.929 . S
C308 C310 1.378 . S
C308 C312 1.350 . S
C309 C312 1.463 . S
C309 C314 1.350 . S
C309 N317 1.427 . S
C310 H301 0.930 . S
C310 C308 1.378 . S
C310 C311 1.367 . S
C311 C310 1.367 . S
C311 C313 1.433 . S
C312 C308 1.350 . S
C312 C309 1.463 . S
C312 N316 1.427 . S
C313 H303 0.929 . S
C313 C311 1.433 . S
C313 N316 1.384 . S
C314 H305 0.929 . S
C314 C306 1.378 . S
C314 C309 1.350 . S
C315 H302 0.929 . S
C315 C307 1.433 . S
C315 N317 1.384 . S
N316 C312 1.427 . S
N316 C313 1.384 . S
N317 C309 1.427 . S
N317 C315 1.384 . S
H318 C324 0.930 . S
H319 C328 0.930 . S
H320 C333 0.929 . S
H321 C331 0.929 . S
H322 C326 0.929 . S
H323 C332 0.929 . S
C324 H318 0.930 . S
C324 C325 1.367 . S
C324 C332 1.378 . S
C325 C324 1.367 . S
C325 C333 1.433 . S
C326 H322 0.929 . S
C326 C328 1.378 . S
C326 C330 1.350 . S
C327 C330 1.463 . S
C327 C332 1.350 . S
C327 N335 1.427 . S
C328 H319 0.930 . S
C328 C326 1.378 . S
C328 C329 1.367 . S
C329 C328 1.367 . S
C329 C331 1.433 . S
C330 C326 1.350 . S
C330 C327 1.463 . S
C330 N334 1.427 . S
C331 H321 0.929 . S
C331 C329 1.433 . S
C331 N334 1.384 . S
C332 H323 0.929 . S
C332 C324 1.378 . S
C332 C327 1.350 . S
C333 H320 0.929 . S
C333 C325 1.433 . S
C333 N335 1.384 . S
N334 C330 1.427 . S
N334 C331 1.384 . S
N335 C327 1.427 . S
N335 C333 1.384 . S
H336 C342 0.930 . S
H337 C346 0.930 . S
H338 C351 0.929 . S
H339 C349 0.929 . S
H340 C344 0.929 . S
H341 C350 0.929 . S
C342 H336 0.930 . S
C342 C343 1.367 . S
C342 C350 1.378 . S
C343 C342 1.367 . S
C343 C351 1.433 . S
C344 H340 0.929 . S
C344 C346 1.378 . S
C344 C348 1.350 . S
C345 C348 1.463 . S
C345 C350 1.350 . S
C345 N353 1.427 . S
C346 H337 0.930 . S
C346 C344 1.378 . S
C346 C347 1.367 . S
C347 C346 1.367 . S
C347 C349 1.433 . S
C348 C344 1.350 . S
C348 C345 1.463 . S
C348 N352 1.427 . S
C349 H339 0.929 . S
C349 C347 1.433 . S
C349 N352 1.384 . S
C350 H341 0.929 . S
C350 C342 1.378 . S
C350 C345 1.350 . S
C351 H338 0.929 . S
C351 C343 1.433 . S
C351 N353 1.384 . S
N352 C348 1.427 . S
N352 C349 1.384 . S
N353 C345 1.427 . S
N353 C351 1.384 . S
H354 C360 0.930 . S
H355 C364 0.930 . S
H356 C369 0.929 . S
H357 C367 0.929 . S
H358 C362 0.929 . S
H359 C368 0.929 . S
C360 H354 0.930 . S
C360 C361 1.367 . S
C360 C368 1.378 . S
C361 C360 1.367 . S
C361 C369 1.433 . S
C362 H358 0.929 . S
C362 C364 1.378 . S
C362 C366 1.350 . S
C363 C366 1.463 . S
C363 C368 1.350 . S
C363 N371 1.427 . S
C364 H355 0.930 . S
C364 C362 1.378 . S
C364 C365 1.367 . S
C365 C364 1.367 . S
C365 C367 1.433 . S
C366 C362 1.350 . S
C366 C363 1.463 . S
C366 N370 1.427 . S
C367 H357 0.929 . S
C367 C365 1.433 . S
C367 N370 1.384 . S
C368 H359 0.929 . S
C368 C360 1.378 . S
C368 C363 1.350 . S
C369 H356 0.929 . S
C369 C361 1.433 . S
C369 N371 1.384 . S
N370 C366 1.427 . S
N370 C367 1.384 . S
N371 C363 1.427 . S
N371 C369 1.384 . S
H372 C378 0.930 . S
H373 C382 0.930 . S
H374 C387 0.929 . S
H375 C385 0.929 . S
H376 C380 0.929 . S
H377 C386 0.929 . S
C378 H372 0.930 . S
C378 C379 1.367 . S
C378 C386 1.378 1_556 S
C379 C378 1.367 . S
C379 C387 1.433 . S
C380 H376 0.929 . S
C380 C382 1.378 1_556 S
C380 C384 1.350 1_556 S
C381 C384 1.463 1_566 S
C381 C386 1.350 1_556 S
C381 N389 1.427 . S
C382 H373 0.930 . S
C382 C380 1.378 1_554 S
C382 C383 1.367 . S
C383 C382 1.367 . S
C383 C385 1.433 . S
C384 C380 1.350 1_554 S
C384 C381 1.463 1_544 S
C384 N388 1.427 . S
C385 H375 0.929 . S
C385 C383 1.433 . S
C385 N388 1.384 . S
C386 H377 0.929 . S
C386 C378 1.378 1_554 S
C386 C381 1.350 1_554 S
C387 H374 0.929 . S
C387 C379 1.433 . S
C387 N389 1.384 . S
N388 C384 1.427 . S
N388 C385 1.384 . S
N389 C381 1.427 . S
N389 C387 1.384 . S
H390 C396 0.930 . S
H391 C400 0.930 . S
H392 C405 0.929 . S
H393 C403 0.929 . S
H394 C398 0.929 . S
H395 C404 0.929 . S
C396 H390 0.930 . S
C396 C397 1.367 . S
C396 C404 1.378 . S
C397 C396 1.367 . S
C397 C405 1.433 . S
C398 H394 0.929 . S
C398 C400 1.378 . S
C398 C402 1.350 . S
C399 C402 1.463 . S
C399 C404 1.350 . S
C399 N407 1.427 . S
C400 H391 0.930 . S
C400 C398 1.378 . S
C400 C401 1.367 . S
C401 C400 1.367 . S
C401 C403 1.433 . S
C402 C398 1.350 . S
C402 C399 1.463 . S
C402 N406 1.427 . S
C403 H393 0.929 . S
C403 C401 1.433 . S
C403 N406 1.384 . S
C404 H395 0.929 . S
C404 C396 1.378 . S
C404 C399 1.350 . S
C405 H392 0.929 . S
C405 C397 1.433 . S
C405 N407 1.384 . S
N406 C402 1.427 . S
N406 C403 1.384 . S
N407 C399 1.427 . S
N407 C405 1.384 . S
H408 C414 0.930 . S
H409 C418 0.930 . S
H410 C423 0.929 . S
H411 C421 0.929 . S
H412 C416 0.929 1_655 S
H413 C422 0.929 1_455 S
C414 H408 0.930 . S
C414 C415 1.367 . S
C414 C422 1.378 . S
C415 C414 1.367 . S
C415 C423 1.433 . S
C416 H412 0.929 1_455 S
C416 C418 1.378 . S
C416 C420 1.350 . S
C417 C420 1.463 1_655 S
C417 C422 1.350 . S
C417 N425 1.427 . S
C418 H409 0.930 . S
C418 C416 1.378 . S
C418 C419 1.367 . S
C419 C418 1.367 . S
C419 C421 1.433 . S
C420 C416 1.350 . S
C420 C417 1.463 1_455 S
C420 N424 1.427 . S
C421 H411 0.929 . S
C421 C419 1.433 . S
C421 N424 1.384 . S
C422 H413 0.929 1_655 S
C422 C414 1.378 . S
C422 C417 1.350 . S
C423 H410 0.929 . S
C423 C415 1.433 . S
C423 N425 1.384 . S
N424 C420 1.427 . S
N424 C421 1.384 . S
N425 C417 1.427 . S
N425 C423 1.384 . S
H426 C432 0.930 . S
H427 C436 0.930 . S
H428 C441 0.929 . S
H429 C439 0.929 . S
H430 C434 0.929 1_565 S
H431 C440 0.929 1_545 S
C432 H426 0.930 . S
C432 C433 1.367 . S
C432 C440 1.378 . S
C433 C432 1.367 . S
C433 C441 1.433 . S
C434 H430 0.929 1_545 S
C434 C436 1.378 . S
C434 C438 1.350 . S
C435 C438 1.463 1_564 S
C435 C440 1.350 . S
C435 N443 1.427 1_554 S
C436 H427 0.930 . S
C436 C434 1.378 . S
C436 C437 1.367 . S
C437 C436 1.367 . S
C437 C439 1.433 . S
C438 C434 1.350 . S
C438 C435 1.463 1_546 S
C438 N442 1.427 1_556 S
C439 H429 0.929 . S
C439 C437 1.433 . S
C439 N442 1.384 1_556 S
C440 H431 0.929 1_565 S
C440 C432 1.378 . S
C440 C435 1.350 . S
C441 H428 0.929 . S
C441 C433 1.433 . S
C441 N443 1.384 1_554 S
N442 C438 1.427 1_554 S
N442 C439 1.384 1_554 S
N443 C435 1.427 1_556 S
N443 C441 1.384 1_556 S
H444 C450 0.930 . S
H445 C454 0.930 . S
H446 C459 0.929 . S
H447 C457 0.929 . S
H448 C452 0.929 . S
H449 C458 0.929 . S
C450 H444 0.930 . S
C450 C451 1.367 . S
C450 C458 1.378 . S
C451 C450 1.367 . S
C451 C459 1.433 . S
C452 H448 0.929 . S
C452 C454 1.378 . S
C452 C456 1.350 . S
C453 C456 1.463 . S
C453 C458 1.350 . S
C453 N461 1.427 . S
C454 H445 0.930 . S
C454 C452 1.378 . S
C454 C455 1.367 . S
C455 C454 1.367 . S
C455 C457 1.433 . S
C456 C452 1.350 . S
C456 C453 1.463 . S
C456 N460 1.427 . S
C457 H447 0.929 . S
C457 C455 1.433 . S
C457 N460 1.384 . S
C458 H449 0.929 . S
C458 C450 1.378 . S
C458 C453 1.350 . S
C459 H446 0.929 . S
C459 C451 1.433 . S
C459 N461 1.384 . S
N460 C456 1.427 . S
N460 C457 1.384 . S
N461 C453 1.427 . S
N461 C459 1.384 . S
H462 C468 0.930 . S
H463 C472 0.930 . S
H464 C477 0.929 . S
H465 C475 0.929 . S
H466 C470 0.929 . S
H467 C476 0.929 . S
C468 H462 0.930 . S
C468 C469 1.367 . S
C468 C476 1.378 . S
C469 C468 1.367 . S
C469 C477 1.433 . S
C470 H466 0.929 . S
C470 C472 1.378 . S
C470 C474 1.350 . S
C471 C474 1.463 1_455 S
C471 C476 1.350 . S
C471 N479 1.427 . S
C472 H463 0.930 . S
C472 C470 1.378 . S
C472 C473 1.367 . S
C473 C472 1.367 . S
C473 C475 1.433 . S
C474 C470 1.350 . S
C474 C471 1.463 1_655 S
C474 N478 1.427 . S
C475 H465 0.929 . S
C475 C473 1.433 . S
C475 N478 1.384 . S
C476 H467 0.929 . S
C476 C468 1.378 . S
C476 C471 1.350 . S
C477 H464 0.929 . S
C477 C469 1.433 . S
C477 N479 1.384 . S
N478 C474 1.427 . S
N478 C475 1.384 . S
N479 C471 1.427 . S
N479 C477 1.384 . S
H480 C486 0.930 . S
H481 C490 0.930 . S
H482 C495 0.929 . S
H483 C493 0.929 . S
H484 C488 0.929 . S
H485 C494 0.929 . S
C486 H480 0.930 . S
C486 C487 1.367 . S
C486 C494 1.378 . S
C487 C486 1.367 . S
C487 C495 1.433 . S
C488 H484 0.929 . S
C488 C490 1.378 . S
C488 C492 1.350 . S
C489 C492 1.463 1_556 S
C489 C494 1.350 . S
C489 N497 1.426 . S
C490 H481 0.930 . S
C490 C488 1.378 . S
C490 C491 1.367 . S
C491 C490 1.367 . S
C491 C493 1.433 . S
C492 C488 1.350 . S
C492 C489 1.463 1_554 S
C492 N496 1.426 . S
C493 H483 0.929 . S
C493 C491 1.433 . S
C493 N496 1.381 . S
C494 H485 0.929 . S
C494 C486 1.378 . S
C494 C489 1.350 . S
C495 H482 0.929 . S
C495 C487 1.433 . S
C495 N497 1.381 . S
N496 C492 1.426 . S
N496 C493 1.381 . S
N497 C489 1.426 . S
N497 C495 1.381 . S
H498 C504 0.930 . S
H499 C508 0.930 . S
H500 C513 0.929 1_565 S
H501 C511 0.929 . S
H502 C506 0.929 . S
H503 C512 0.929 . S
C504 H498 0.930 . S
C504 C505 1.367 . S
C504 C512 1.378 . S
C505 C504 1.367 . S
C505 C513 1.433 . S
C506 H502 0.929 . S
C506 C508 1.378 . S
C506 C510 1.350 . S
C507 C510 1.463 . S
C507 C512 1.350 . S
C507 N515 1.427 . S
C508 H499 0.930 . S
C508 C506 1.378 . S
C508 C509 1.367 . S
C509 C508 1.367 . S
C509 C511 1.433 . S
C510 C506 1.350 . S
C510 C507 1.463 . S
C510 N514 1.427 . S
C511 H501 0.929 . S
C511 C509 1.433 . S
C511 N514 1.384 . S
C512 H503 0.929 . S
C512 C504 1.378 . S
C512 C507 1.350 . S
C513 H500 0.929 1_545 S
C513 C505 1.433 . S
C513 N515 1.384 . S
N514 C510 1.427 . S
N514 C511 1.384 . S
N515 C507 1.427 . S
N515 C513 1.384 . S
H516 C522 0.930 . S
H517 C526 0.942 . S
H518 C531 0.929 . S
H519 C529 0.929 . S
H520 C524 0.929 . S
H521 C530 0.929 . S
C522 H516 0.930 . S
C522 C523 1.367 . S
C522 C530 1.378 . S
C523 C522 1.367 . S
C523 C531 1.433 . S
C524 H520 0.929 . S
C524 C526 1.378 . S
C524 C528 1.350 . S
C525 C528 1.463 . S
C525 C530 1.350 . S
C525 N533 1.427 . S
C526 H517 0.942 . S
C526 C524 1.378 . S
C526 C527 1.367 . S
C527 C526 1.367 . S
C527 C529 1.433 . S
C528 C524 1.350 . S
C528 C525 1.463 . S
C528 N532 1.427 . S
C529 H519 0.929 . S
C529 C527 1.433 . S
C529 N532 1.384 . S
C530 H521 0.929 . S
C530 C522 1.378 . S
C530 C525 1.350 . S
C531 H518 0.929 . S
C531 C523 1.433 . S
C531 N533 1.384 . S
N532 C528 1.427 . S
N532 C529 1.384 . S
N533 C525 1.427 . S
N533 C531 1.384 . S
H534 C540 0.930 . S
H535 C544 0.930 . S
H536 C549 0.929 . S
H537 C547 0.929 . S
H538 C542 0.929 1_554 S
H539 C548 0.929 1_556 S
C540 H534 0.930 . S
C540 C541 1.367 . S
C540 C548 1.378 . S
C541 C540 1.367 . S
C541 C549 1.433 . S
C542 H538 0.929 1_556 S
C542 C544 1.378 . S
C542 C546 1.350 . S
C543 C546 1.463 1_554 S
C543 C548 1.350 . S
C543 N551 1.427 . S
C544 H535 0.930 . S
C544 C542 1.378 . S
C544 C545 1.367 . S
C545 C544 1.367 . S
C545 C547 1.433 . S
C546 C542 1.350 . S
C546 C543 1.463 1_556 S
C546 N550 1.427 . S
C547 H537 0.929 . S
C547 C545 1.433 . S
C547 N550 1.384 . S
C548 H539 0.929 1_554 S
C548 C540 1.378 . S
C548 C543 1.350 . S
C549 H536 0.929 . S
C549 C541 1.433 . S
C549 N551 1.384 . S
N550 C546 1.427 . S
N550 C547 1.384 . S
N551 C543 1.427 . S
N551 C549 1.384 . S
H552 C558 0.930 1_655 S
H553 C562 0.930 . S
H554 C567 0.929 . S
H555 C565 0.929 . S
H556 C560 0.929 . S
H557 C566 0.929 . S
C558 H552 0.930 1_455 S
C558 C559 1.367 . S
C558 C566 1.378 . S
C559 C558 1.367 . S
C559 C567 1.433 . S
C560 H556 0.929 . S
C560 C562 1.378 . S
C560 C564 1.350 . S
C561 C564 1.463 . S
C561 C566 1.350 . S
C561 N569 1.427 . S
C562 H553 0.930 . S
C562 C560 1.378 . S
C562 C563 1.367 . S
C563 C562 1.367 . S
C563 C565 1.433 . S
C564 C560 1.350 . S
C564 C561 1.463 . S
C564 N568 1.427 . S
C565 H555 0.929 . S
C565 C563 1.433 . S
C565 N568 1.384 . S
C566 H557 0.929 . S
C566 C558 1.378 . S
C566 C561 1.350 . S
C567 H554 0.929 . S
C567 C559 1.433 . S
C567 N569 1.384 . S
N568 C564 1.427 . S
N568 C565 1.384 . S
N569 C561 1.427 . S
N569 C567 1.384 . S
H570 C576 0.930 . S
H571 C580 0.930 . S
H572 C585 0.929 1_565 S
H573 C583 0.929 . S
H574 C578 0.929 . S
H575 C584 0.929 . S
C576 H570 0.930 . S
C576 C577 1.367 . S
C576 C584 1.378 . S
C577 C576 1.367 . S
C577 C585 1.433 . S
C578 H574 0.929 . S
C578 C580 1.378 . S
C578 C582 1.350 . S
C579 C582 1.463 . S
C579 C584 1.350 . S
C579 N587 1.427 . S
C580 H571 0.930 . S
C580 C578 1.378 . S
C580 C581 1.367 . S
C581 C580 1.367 . S
C581 C583 1.433 . S
C582 C578 1.350 . S
C582 C579 1.463 . S
C582 N586 1.427 . S
C583 H573 0.929 . S
C583 C581 1.433 . S
C583 N586 1.384 . S
C584 H575 0.929 . S
C584 C576 1.378 . S
C584 C579 1.350 . S
C585 H572 0.929 1_545 S
C585 C577 1.433 . S
C585 N587 1.384 . S
N586 C582 1.427 . S
N586 C583 1.384 . S
N587 C579 1.427 . S
N587 C585 1.384 . S
C163 C43 1.554 . S
C167 C10 1.555 . S
C181 C17 1.557 . S
C185 C56 1.557 . S
C199 C75 1.554 . S
C203 C36 1.554 . S
C217 C82 1.556 . S
C221 C121 1.555 . S
C235 C134 1.561 . S
C239 C101 1.561 . S
C253 C114 1.553 . S
C257 C147 1.553 . S
C271 C108 1.655 . S
C275 C4 1.658 . S
C289 C23 1.656 . S
C293 C127 1.658 . S
C307 C30 1.655 . S
C311 C140 1.658 . S
C325 C49 1.656 . S
C329 C153 1.657 . S
C343 C88 1.658 . S
C347 C62 1.656 . S
C361 C95 1.657 . S
C365 C69 1.657 . S
C379 C94 1.274 . S
C383 C3 1.278 . S
C397 C18 1.280 . S
C401 C107 1.271 . S
C415 C29 1.277 . S
C419 C122 1.274 . S
C433 C44 1.277 . S
C437 C135 1.274 . S
C451 C148 1.280 . S
C455 C57 1.271 . S
C469 C68 1.274 . S
C473 C83 1.277 . S
C487 C133 1.407 1_455 S
C491 C5 1.408 . S
C505 C146 1.408 1_545 S
C509 C16 1.407 1_655 S
C523 C81 1.407 . S
C527 C31 1.407 1_565 S
C541 C42 1.406 . S
C545 C96 1.408 1_655 S
C559 C55 1.406 1_455 S
C563 C109 1.407 1_565 S
C577 C70 1.408 1_545 S
C581 C120 1.407 . S
