# Generated by pormake.
# Topology wiu, (6)-cn, num edge types: 1
# Building blocks:
#     Node 0, Type 0, BuildingBlock: CUKXOW_clean_sbu_0, # of connection points: 6
#     Node 1, Type 0, BuildingBlock: CUKXOW_clean_sbu_0, # of connection points: 6
#     Node 2, Type 0, BuildingBlock: CUKXOW_clean_sbu_0, # of connection points: 6
#     Node 3, Type 0, BuildingBlock: CUKXOW_clean_sbu_0, # of connection points: 6
#     Node 4, Type 0, BuildingBlock: CUKXOW_clean_sbu_0, # of connection points: 6
#     Node 5, Type 0, BuildingBlock: CUKXOW_clean_sbu_0, # of connection points: 6
#     Node 6, Type 0, BuildingBlock: CUKXOW_clean_sbu_0, # of connection points: 6
#     Node 7, Type 0, BuildingBlock: CUKXOW_clean_sbu_0, # of connection points: 6
#     Node 8, Type 0, BuildingBlock: CUKXOW_clean_sbu_0, # of connection points: 6
#     Node 9, Type 0, BuildingBlock: CUKXOW_clean_sbu_0, # of connection points: 6
#     Node 10, Type 0, BuildingBlock: CUKXOW_clean_sbu_0, # of connection points: 6
#     Node 11, Type 0, BuildingBlock: CUKXOW_clean_sbu_0, # of connection points: 6
#     Node 12, Type 0, BuildingBlock: CUKXOW_clean_sbu_0, # of connection points: 6
#     Node 13, Type 0, BuildingBlock: CUKXOW_clean_sbu_0, # of connection points: 6
#     Node 14, Type 0, BuildingBlock: CUKXOW_clean_sbu_0, # of connection points: 6
#     Node 15, Type 0, BuildingBlock: CUKXOW_clean_sbu_0, # of connection points: 6
#     Edge 16, Type (0, 0), BuildingBlock: AJUNOK_clean_linker_0, # of connection points: 2
#     Edge 17, Type (0, 0), BuildingBlock: AJUNOK_clean_linker_0, # of connection points: 2
#     Edge 18, Type (0, 0), BuildingBlock: AJUNOK_clean_linker_0, # of connection points: 2
#     Edge 19, Type (0, 0), BuildingBlock: AJUNOK_clean_linker_0, # of connection points: 2
#     Edge 20, Type (0, 0), BuildingBlock: AJUNOK_clean_linker_0, # of connection points: 2
#     Edge 21, Type (0, 0), BuildingBlock: AJUNOK_clean_linker_0, # of connection points: 2
#     Edge 22, Type (0, 0), BuildingBlock: AJUNOK_clean_linker_0, # of connection points: 2
#     Edge 23, Type (0, 0), BuildingBlock: AJUNOK_clean_linker_0, # of connection points: 2
#     Edge 24, Type (0, 0), BuildingBlock: AJUNOK_clean_linker_0, # of connection points: 2
#     Edge 25, Type (0, 0), BuildingBlock: AJUNOK_clean_linker_0, # of connection points: 2
#     Edge 26, Type (0, 0), BuildingBlock: AJUNOK_clean_linker_0, # of connection points: 2
#     Edge 27, Type (0, 0), BuildingBlock: AJUNOK_clean_linker_0, # of connection points: 2
#     Edge 28, Type (0, 0), BuildingBlock: AJUNOK_clean_linker_0, # of connection points: 2
#     Edge 29, Type (0, 0), BuildingBlock: AJUNOK_clean_linker_0, # of connection points: 2
#     Edge 30, Type (0, 0), BuildingBlock: AJUNOK_clean_linker_0, # of connection points: 2
#     Edge 31, Type (0, 0), BuildingBlock: AJUNOK_clean_linker_0, # of connection points: 2
#     Edge 32, Type (0, 0), BuildingBlock: AJUNOK_clean_linker_0, # of connection points: 2
#     Edge 33, Type (0, 0), BuildingBlock: AJUNOK_clean_linker_0, # of connection points: 2
#     Edge 34, Type (0, 0), BuildingBlock: AJUNOK_clean_linker_0, # of connection points: 2
#     Edge 35, Type (0, 0), BuildingBlock: AJUNOK_clean_linker_0, # of connection points: 2
#     Edge 36, Type (0, 0), BuildingBlock: AJUNOK_clean_linker_0, # of connection points: 2
#     Edge 37, Type (0, 0), BuildingBlock: AJUNOK_clean_linker_0, # of connection points: 2
#     Edge 38, Type (0, 0), BuildingBlock: AJUNOK_clean_linker_0, # of connection points: 2
#     Edge 39, Type (0, 0), BuildingBlock: AJUNOK_clean_linker_0, # of connection points: 2
#     Edge 40, Type (0, 0), BuildingBlock: AJUNOK_clean_linker_0, # of connection points: 2
#     Edge 41, Type (0, 0), BuildingBlock: AJUNOK_clean_linker_0, # of connection points: 2
#     Edge 42, Type (0, 0), BuildingBlock: AJUNOK_clean_linker_0, # of connection points: 2
#     Edge 43, Type (0, 0), BuildingBlock: AJUNOK_clean_linker_0, # of connection points: 2
#     Edge 44, Type (0, 0), BuildingBlock: AJUNOK_clean_linker_0, # of connection points: 2
#     Edge 45, Type (0, 0), BuildingBlock: AJUNOK_clean_linker_0, # of connection points: 2
#     Edge 46, Type (0, 0), BuildingBlock: AJUNOK_clean_linker_0, # of connection points: 2
#     Edge 47, Type (0, 0), BuildingBlock: AJUNOK_clean_linker_0, # of connection points: 2
#     Edge 48, Type (0, 0), BuildingBlock: AJUNOK_clean_linker_0, # of connection points: 2
#     Edge 49, Type (0, 0), BuildingBlock: AJUNOK_clean_linker_0, # of connection points: 2
#     Edge 50, Type (0, 0), BuildingBlock: AJUNOK_clean_linker_0, # of connection points: 2
#     Edge 51, Type (0, 0), BuildingBlock: AJUNOK_clean_linker_0, # of connection points: 2
#     Edge 52, Type (0, 0), BuildingBlock: AJUNOK_clean_linker_0, # of connection points: 2
#     Edge 53, Type (0, 0), BuildingBlock: AJUNOK_clean_linker_0, # of connection points: 2
#     Edge 54, Type (0, 0), BuildingBlock: AJUNOK_clean_linker_0, # of connection points: 2
#     Edge 55, Type (0, 0), BuildingBlock: AJUNOK_clean_linker_0, # of connection points: 2
#     Edge 56, Type (0, 0), BuildingBlock: AJUNOK_clean_linker_0, # of connection points: 2
#     Edge 57, Type (0, 0), BuildingBlock: AJUNOK_clean_linker_0, # of connection points: 2
#     Edge 58, Type (0, 0), BuildingBlock: AJUNOK_clean_linker_0, # of connection points: 2
#     Edge 59, Type (0, 0), BuildingBlock: AJUNOK_clean_linker_0, # of connection points: 2
#     Edge 60, Type (0, 0), BuildingBlock: AJUNOK_clean_linker_0, # of connection points: 2
#     Edge 61, Type (0, 0), BuildingBlock: AJUNOK_clean_linker_0, # of connection points: 2
#     Edge 62, Type (0, 0), BuildingBlock: AJUNOK_clean_linker_0, # of connection points: 2
#     Edge 63, Type (0, 0), BuildingBlock: AJUNOK_clean_linker_0, # of connection points: 2
# Relax obj value: 0.179
# Max RMSD: 0.242
# Mean RMSD: 0.242
data_MOF--net-wiu--node1-CUKXOW_clean_sbu_0--edge1-AJUNOK_clean_linker_0
_symmetry_space_group_name_H-M    P1
_symmetry_Int_Tables_number       1
_symmetry_cell_setting            triclinic
loop_
_symmetry_equiv_pos_as_xyz
'x, y, z'
_cell_length_a     19.271583
_cell_length_b     19.286669
_cell_length_c     51.286651
_cell_angle_alpha  90.055084
_cell_angle_beta   90.342802
_cell_angle_gamma 90.174435
loop_
_atom_site_label
_atom_site_type_symbol
_atom_site_fract_x
_atom_site_fract_y
_atom_site_fract_z
_atom_type_partial_charge
Tb0 Tb 0.34856 0.06839 0.11854 0.0
C1 C 0.40779 0.16482 0.077 0.0
Tb2 Tb 0.26442 0.10375 0.07482 0.0
O3 O 0.43925 0.02444 0.09965 0.0
O4 O 0.34532 0.02348 0.0792 0.0
O5 O 0.40236 0.15607 0.10238 0.0
C6 C 0.19728 0.10144 0.02899 0.0
O7 O 0.36145 0.14065 0.0606 0.0
C8 C 0.27011 0.20523 0.10989 0.0
C9 C 0.19051 0.0248 0.12201 0.0
O10 O 0.20841 0.15584 0.04319 0.0
O11 O 0.22063 0.04787 0.0415 0.0
O12 O 0.26667 0.21464 0.08484 0.0
O13 O 0.26607 0.14046 0.1142 0.0
O14 O 0.18087 0.05827 0.09953 0.0
O15 O 0.25452 0.01231 0.13041 0.0
C16 C 0.39823 0.07658 0.16663 0.0
O17 O 0.38816 0.01891 0.15392 0.0
O18 O 0.38187 0.12878 0.15205 0.0
C19 C 0.41253 0.01507 0.07665 0.0
Tb20 Tb 0.68334 0.60741 0.36705 0.0
C21 C 0.57087 0.63693 0.32497 0.0
Tb22 Tb 0.65307 0.50655 0.32174 0.0
O23 O 0.72052 0.6953 0.3449 0.0
O24 O 0.72518 0.59659 0.32755 0.0
O25 O 0.58577 0.64186 0.35025 0.0
C26 C 0.63171 0.45441 0.27469 0.0
O27 O 0.6043 0.5978 0.30868 0.0
C28 C 0.56404 0.49126 0.36207 0.0
C29 C 0.72782 0.4429 0.36998 0.0
O30 O 0.58481 0.48 0.28977 0.0
O31 O 0.69201 0.45561 0.28646 0.0
O32 O 0.56219 0.45321 0.34115 0.0
O33 O 0.61438 0.53085 0.3582 0.0
O34 O 0.71375 0.43321 0.34482 0.0
O35 O 0.72467 0.50591 0.38088 0.0
C36 C 0.68352 0.65481 0.41558 0.0
O37 O 0.73886 0.63956 0.40229 0.0
O38 O 0.62901 0.64742 0.40085 0.0
C39 C 0.72872 0.66368 0.32274 0.0
Tb40 Tb 0.16868 0.95182 0.61741 0.0
C41 C 0.11563 0.83916 0.58186 0.0
Tb42 Tb 0.25372 0.9095 0.5719 0.0
O43 O 0.07883 0.99185 0.59666 0.0
O44 O 0.1735 0.99068 0.57717 0.0
O45 O 0.12621 0.85317 0.6067 0.0
C46 C 0.29207 0.88939 0.52303 0.0
O47 O 0.15466 0.86518 0.56352 0.0
C48 C 0.27343 0.81594 0.61016 0.0
C49 C 0.33111 0.99226 0.6169 0.0
O50 O 0.26079 0.84482 0.5376 0.0
O51 O 0.30431 0.94604 0.53618 0.0
O52 O 0.30249 0.81384 0.58738 0.0
O53 O 0.2376 0.8709 0.60987 0.0
O54 O 0.33738 0.96539 0.59306 0.0
O55 O 0.26988 0.9959 0.62845 0.0
C56 C 0.12661 0.96439 0.66635 0.0
O57 O 0.15853 0.01201 0.6531 0.0
O58 O 0.11554 0.91124 0.65147 0.0
C59 C 0.10632 0.99748 0.57374 0.0
Tb60 Tb 0.81323 0.4299 0.86339 0.0
C61 C 0.91269 0.36026 0.82556 0.0
Tb62 Tb 0.8636 0.50611 0.82003 0.0
O63 O 0.76617 0.34005 0.84429 0.0
O64 O 0.77663 0.43177 0.82287 0.0
O65 O 0.89995 0.36958 0.85051 0.0
C66 C 0.88588 0.56806 0.77427 0.0
O67 O 0.89372 0.40515 0.8079 0.0
C68 C 0.95622 0.49959 0.8586 0.0
C69 C 0.77919 0.58962 0.86352 0.0
O70 O 0.93263 0.54247 0.78953 0.0
O71 O 0.82568 0.56132 0.78526 0.0
O72 O 0.97163 0.49829 0.83407 0.0
O73 O 0.89118 0.50807 0.86047 0.0
O74 O 0.81902 0.59498 0.84238 0.0
O75 O 0.76042 0.52752 0.87204 0.0
C76 C 0.8114 0.38626 0.91231 0.0
O77 O 0.75654 0.40283 0.89878 0.0
O78 O 0.86614 0.39333 0.89811 0.0
C79 C 0.76359 0.36522 0.82084 0.0
Tb80 Tb 0.76343 0.90928 0.98128 0.0
C81 C 0.82891 0.9953 0.93537 0.0
Tb82 Tb 0.67057 0.94015 0.93909 0.0
O83 O 0.77865 0.80118 0.96769 0.0
O84 O 0.76114 0.87908 0.94092 0.0
O85 O 0.84178 0.96508 0.95814 0.0
C86 C 0.61881 0.9492 0.89096 0.0
O87 O 0.76373 0.9997 0.92665 0.0
C88 C 0.60711 0.97972 0.98309 0.0
C89 C 0.6362 0.8241 0.97836 0.0
O90 O 0.63577 1.00149 0.90577 0.0
O91 O 0.62769 0.89215 0.90394 0.0
O92 O 0.57782 0.96733 0.96077 0.0
O93 O 0.67424 0.98165 0.979 0.0
O94 O 0.63436 0.84089 0.95334 0.0
O95 O 0.67465 0.85692 0.99531 0.0
C96 C 0.83127 0.91003 0.02696 0.0
O97 O 0.82213 0.85684 1.01194 0.0
O98 O 0.80512 0.96399 1.01546 0.0
C99 C 0.76883 0.81414 0.94309 0.0
Tb100 Tb 0.36027 0.51215 0.73088 0.0
C101 C 0.28025 0.57804 0.68421 0.0
Tb102 Tb 0.33457 0.41924 0.68996 0.0
O103 O 0.47007 0.52763 0.72023 0.0
O104 O 0.39752 0.50894 0.69125 0.0
O105 O 0.30522 0.59064 0.70781 0.0
C106 C 0.31875 0.36401 0.64278 0.0
O107 O 0.28014 0.51334 0.67498 0.0
C108 C 0.29141 0.35579 0.73334 0.0
C109 C 0.44755 0.38687 0.73079 0.0
O110 O 0.26885 0.38285 0.65816 0.0
O111 O 0.37761 0.37286 0.65478 0.0
O112 O 0.30988 0.32648 0.71182 0.0
O113 O 0.28742 0.42265 0.72886 0.0
O114 O 0.43275 0.38346 0.70556 0.0
O115 O 0.4124 0.42534 0.74681 0.0
C116 C 0.35912 0.58033 0.77611 0.0
O117 O 0.41159 0.57383 0.76079 0.0
O118 O 0.3055 0.55198 0.76494 0.0
C119 C 0.46207 0.51654 0.69546 0.0
Tb120 Tb 0.75131 0.10878 0.48083 0.0
C121 C 0.68741 0.01851 0.43563 0.0
Tb122 Tb 0.83999 0.08752 0.43791 0.0
O123 O 0.72529 0.21597 0.46948 0.0
O124 O 0.74534 0.14257 0.44093 0.0
O125 O 0.67516 0.04676 0.45873 0.0
C126 C 0.8886 0.08081 0.3896 0.0
O127 O 0.75093 0.02156 0.42562 0.0
C128 C 0.91058 0.05013 0.48099 0.0
C129 C 0.86942 0.20744 0.47578 0.0
O130 O 0.87667 0.0279 0.40464 0.0
O131 O 0.87673 0.13736 0.40246 0.0
O132 O 0.93679 0.07002 0.45907 0.0
O133 O 0.84394 0.0419 0.47707 0.0
O134 O 0.86998 0.18937 0.45094 0.0
O135 O 0.83644 0.17139 0.49333 0.0
C136 C 0.69021 0.10013 0.52735 0.0
O137 O 0.68582 0.15152 0.51134 0.0
O138 O 0.7273 0.05232 0.51654 0.0
C139 C 0.73253 0.20652 0.44457 0.0
Tb140 Tb 0.16507 0.51557 0.22889 0.0
C141 C 0.2464 0.44173 0.18324 0.0
Tb142 Tb 0.19618 0.59987 0.18438 0.0
O143 O 0.05399 0.50989 0.21927 0.0
O144 O 0.12641 0.51517 0.18934 0.0
O145 O 0.21594 0.43283 0.20619 0.0
C146 C 0.20288 0.64609 0.13589 0.0
O147 O 0.25203 0.50486 0.17315 0.0
C148 C 0.24574 0.66674 0.22634 0.0
C149 C 0.0938 0.65364 0.22483 0.0
O150 O 0.25589 0.62957 0.15037 0.0
O151 O 0.14624 0.63881 0.14916 0.0
O152 O 0.23538 0.69316 0.20346 0.0
O153 O 0.24109 0.59942 0.22345 0.0
O154 O 0.10571 0.65037 0.19954 0.0
O155 O 0.11865 0.60902 0.24155 0.0
C156 C 0.17894 0.45996 0.27626 0.0
O157 O 0.1264 0.45052 0.26072 0.0
O158 O 0.22454 0.49782 0.26449 0.0
C159 C 0.06149 0.51498 0.19413 0.0
Tb160 Tb 0.8463 0.58291 0.6143 0.0
C161 C 0.878 0.69843 0.57471 0.0
Tb162 Tb 0.75402 0.60785 0.57214 0.0
O163 O 0.94068 0.5595 0.59315 0.0
O164 O 0.84556 0.53819 0.57471 0.0
O165 O 0.88031 0.68186 0.59968 0.0
C166 C 0.68498 0.61071 0.52652 0.0
O167 O 0.8409 0.66372 0.55786 0.0
C168 C 0.74522 0.70633 0.60893 0.0
C169 C 0.69228 0.52107 0.61862 0.0
O170 O 0.68943 0.66033 0.54332 0.0
O171 O 0.71769 0.55765 0.53608 0.0
O172 O 0.73639 0.71628 0.58413 0.0
O173 O 0.75403 0.64172 0.61215 0.0
O174 O 0.67796 0.54969 0.59566 0.0
O175 O 0.75771 0.51822 0.62699 0.0
C176 C 0.89822 0.58433 0.66242 0.0
O177 O 0.88011 0.63835 0.64908 0.0
O178 O 0.89003 0.52903 0.64814 0.0
C179 C 0.91274 0.54283 0.57098 0.0
Tb180 Tb 0.19239 0.09217 0.86773 0.0
C181 C 0.08238 0.13981 0.82792 0.0
Tb182 Tb 0.16162 0.00944 0.82363 0.0
O183 O 0.22369 0.18783 0.8486 0.0
O184 O 0.23748 0.09478 0.82847 0.0
O185 O 0.09658 0.13616 0.85314 0.0
C186 C 0.16077 0.94767 0.77713 0.0
O187 O 0.11469 0.10243 0.81068 0.0
C188 C 0.06103 1.00194 0.85929 0.0
C189 C 0.24645 0.93405 0.86751 0.0
O190 O 0.10797 0.95494 0.79225 0.0
O191 O 0.21524 0.97253 0.78885 0.0
O192 O 0.05172 0.99751 0.83428 0.0
O193 O 0.12613 1.00502 0.86339 0.0
O194 O 0.21508 0.9262 0.84467 0.0
O195 O 0.25096 0.99681 0.87828 0.0
C196 C 0.19983 0.13441 0.91715 0.0
O197 O 0.25244 0.11873 0.90254 0.0
O198 O 0.14344 0.1298 0.90335 0.0
C199 C 0.23776 0.16227 0.82588 0.0
Tb200 Tb 0.66072 0.43142 0.11595 0.0
C201 C 0.63423 0.31772 0.07369 0.0
Tb202 Tb 0.76124 0.40668 0.0714 0.0
O203 O 0.57114 0.4629 0.09351 0.0
O204 O 0.66984 0.4761 0.07684 0.0
O205 O 0.62845 0.33334 0.09886 0.0
C206 C 0.81421 0.3998 1.02405 0.0
O207 O 0.67274 0.35257 0.05749 0.0
C208 C 0.77719 0.31203 0.10989 0.0
C209 C 0.8224 0.48512 0.12012 0.0
O210 O 0.79479 0.34753 0.03799 0.0
O211 O 0.80678 0.45696 0.03734 0.0
O212 O 0.81364 0.31274 0.08862 0.0
O213 O 0.73915 0.36434 0.10765 0.0
O214 O 0.83439 0.46674 0.09553 0.0
O215 O 0.75868 0.48073 0.13021 0.0
C216 C 0.60876 0.43065 0.16355 0.0
O217 O 0.61997 0.48616 0.14978 0.0
O218 O 0.62421 0.37615 0.15004 0.0
C219 C 0.60281 0.47583 0.07178 0.0
Tb220 Tb 0.30851 0.92402 0.36295 0.0
C221 C 0.40444 0.85329 0.32425 0.0
Tb222 Tb 0.36343 1.00265 0.32198 0.0
O223 O 0.25702 0.83922 0.34221 0.0
O224 O 0.27339 0.93226 0.32235 0.0
O225 O 0.39047 0.85839 0.34926 0.0
C226 C 0.38923 0.07086 0.27789 0.0
O227 O 0.39018 0.90278 0.30775 0.0
C228 C 0.45672 0.98537 0.35978 0.0
C229 C 0.279 0.08452 0.36533 0.0
O230 O 0.43493 0.04485 0.29348 0.0
O231 O 0.32813 0.06124 0.28778 0.0
O232 O 0.47034 0.98705 0.33511 0.0
O233 O 0.39214 0.99741 0.3625 0.0
O234 O 0.32078 0.09063 0.34488 0.0
O235 O 0.25831 0.02221 0.3729 0.0
C236 C 0.30095 0.87662 0.41124 0.0
O237 O 0.24762 0.89334 0.39688 0.0
O238 O 0.35734 0.88401 0.39797 0.0
C239 C 0.25702 0.86681 0.31913 0.0
Tb240 Tb 0.25311 0.399 0.48334 0.0
C241 C 0.34489 0.48096 0.44179 0.0
Tb242 Tb 0.18387 0.45207 0.43811 0.0
O243 O 0.24927 0.29143 0.46919 0.0
O244 O 0.25975 0.37293 0.44284 0.0
O245 O 0.34532 0.44007 0.4627 0.0
C246 C 0.14954 0.46124 0.38807 0.0
O247 O 0.28524 0.50194 0.43158 0.0
C248 C 0.11434 0.49901 0.48002 0.0
C249 C 0.10874 0.34825 0.47261 0.0
O250 O 0.16851 0.51325 0.40272 0.0
O251 O 0.14643 0.40558 0.40208 0.0
O252 O 0.09197 0.49771 0.45611 0.0
O253 O 0.18102 0.48672 0.47879 0.0
O254 O 0.12347 0.3624 0.44816 0.0
O255 O 0.15057 0.36504 0.4918 0.0
C256 C 0.30943 0.3928 0.53097 0.0
O257 O 0.29715 0.34012 0.51596 0.0
O258 O 0.29259 0.44896 0.51864 0.0
C259 C 0.25237 0.30748 0.44458 0.0
Tb260 Tb 0.85173 1.00587 0.23209 0.0
C261 C 0.77647 0.07809 0.18475 0.0
Tb262 Tb 0.8263 0.91848 0.18719 0.0
O263 O 0.96366 0.01426 0.223 0.0
O264 O 0.89205 1.00477 0.19309 0.0
O265 O 0.80012 0.08662 0.20889 0.0
C266 C 0.82931 0.87337 0.13814 0.0
O267 O 0.77547 0.01554 0.17378 0.0
C268 C 0.77195 0.85474 0.22877 0.0
C269 C 0.9296 0.87338 0.23053 0.0
O270 O 0.77385 0.89136 0.15079 0.0
O271 O 0.88238 0.87791 0.15372 0.0
O272 O 0.78666 0.82625 0.20658 0.0
O273 O 0.77572 0.92191 0.22522 0.0
O274 O 0.91799 0.87382 0.20503 0.0
O275 O 0.89834 0.91461 0.24673 0.0
C276 C 0.84357 0.0668 0.27874 0.0
O277 O 0.89159 0.07778 0.2617 0.0
O278 O 0.79852 0.02419 0.26884 0.0
C279 C 0.9567 1.00765 0.19787 0.0
Tb280 Tb 0.27001 0.6066 0.9791 0.0
C281 C 0.18544 0.52565 0.93506 0.0
Tb282 Tb 0.34653 0.55885 0.93529 0.0
O283 O 0.27974 0.71548 0.96675 0.0
O284 O 0.26988 0.63717 0.93899 0.0
O285 O 0.18148 0.56261 0.9569 0.0
C286 C 0.39057 0.55548 0.88659 0.0
O287 O 0.24683 0.50916 0.92534 0.0
C288 C 0.40971 0.50697 0.97749 0.0
C289 C 0.41587 0.65683 0.97489 0.0
O290 O 0.36523 0.50271 0.89917 0.0
O291 O 0.39268 0.60903 0.90177 0.0
O292 O 0.43508 0.50961 0.95415 0.0
O293 O 0.3433 0.51984 0.97512 0.0
O294 O 0.40809 0.64428 0.94973 0.0
O295 O 0.36951 0.63883 0.99207 0.0
C296 C 0.20518 0.61349 1.0248 0.0
O297 O 0.21365 0.66459 1.00882 0.0
O298 O 0.23148 0.5582 1.01452 0.0
C299 C 0.27883 0.70204 0.94192 0.0
Tb300 Tb 0.65308 0.01415 0.73197 0.0
C301 C 0.73665 0.93427 0.68753 0.0
Tb302 Tb 0.69847 0.09322 0.68766 0.0
O303 O 0.54401 0.01959 0.71874 0.0
O304 O 0.62375 0.01321 0.69171 0.0
O305 O 0.69915 0.92718 0.70916 0.0
C306 C 0.69879 0.13364 0.63841 0.0
O307 O 0.75437 0.99704 0.67936 0.0
C308 C 0.747 0.1593 0.72986 0.0
C309 C 0.59698 0.15861 0.72635 0.0
O310 O 0.75427 0.12152 0.65228 0.0
O311 O 0.6442 0.12585 0.6527 0.0
O312 O 0.7431 0.18406 0.70638 0.0
O313 O 0.73651 0.09221 0.72785 0.0
O314 O 0.61088 0.15183 0.70131 0.0
O315 O 0.61566 0.11266 0.7437 0.0
C316 C 0.64808 0.95481 0.77911 0.0
O317 O 0.59769 0.95637 0.7623 0.0
O318 O 0.70198 0.98391 0.76875 0.0
C319 C 0.55855 0.01947 0.694 0.0
C320 C 0.53293 0.16439 0.08102 0.0
C321 C 0.47376 0.18626 0.06732 0.0
C322 C 0.59386 0.20131 0.07893 0.0
C323 C 0.59484 0.26095 0.06365 0.0
H324 H 0.5302 0.12396 0.09561 0.0
H325 H 0.63619 0.18965 0.09223 0.0
S326 S 0.46258 0.32047 1.01638 0.0
N327 N 0.42556 0.25561 0.03213 0.0
N328 N 0.54204 0.32727 0.02845 0.0
C329 C 0.54141 0.27408 0.04577 0.0
C330 C 0.47918 0.23594 0.04774 0.0
C331 C 0.53249 0.73348 0.29895 0.0
C332 C 0.51582 0.67654 0.31457 0.0
C333 C 0.48879 0.79033 0.29883 0.0
C334 C 0.42995 0.78917 0.31463 0.0
H335 H 0.58299 0.73789 0.28989 0.0
H336 H 0.50601 0.83786 0.28959 0.0
S337 S 0.35424 0.64016 0.35004 0.0
N338 N 0.42938 0.61239 0.33888 0.0
N339 N 0.34724 0.72093 0.33975 0.0
C340 C 0.40698 0.72735 0.326 0.0
C341 C 0.45069 0.66966 0.32569 0.0
C342 C 0.99184 0.83601 0.58905 0.0
C343 C 0.04874 0.81407 0.57441 0.0
C344 C 0.92711 0.80851 0.58421 0.0
C345 C 0.92022 0.75462 0.56622 0.0
H346 H 0.99773 0.87223 0.60509 0.0
H347 H 0.88538 0.82099 0.59751 0.0
S348 S 0.04847 0.69465 0.51807 0.0
N349 N 0.09107 0.75035 0.53677 0.0
N350 N 0.96815 0.69289 0.52915 0.0
C351 C 0.97336 0.74042 0.54863 0.0
C352 C 0.03916 0.77065 0.55285 0.0
C353 C 0.96668 0.18218 0.83451 0.0
C354 C 0.0265 0.18219 0.81938 0.0
C355 C 0.92224 0.23766 0.83327 0.0
C356 C 0.93939 0.29469 0.81774 0.0
H357 H 0.9582 0.14329 0.84933 0.0
H358 H 0.87946 0.23964 0.84689 0.0
S359 S 0.07852 0.30798 0.76881 0.0
N360 N 0.09133 0.23282 0.7835 0.0
N361 N 1.00861 0.34153 0.78233 0.0
C362 C 0.99225 0.29013 0.79934 0.0
C363 C 0.03655 0.23219 0.80004 0.0
C364 C 0.59776 0.70752 0.97096 0.0
C365 C 0.59683 0.76611 0.98689 0.0
C366 C 0.53977 0.66601 0.96941 0.0
C367 C 0.48089 0.68334 0.98379 0.0
H368 H 0.63909 0.69925 0.95716 0.0
H369 H 0.53837 0.62529 0.95483 0.0
S370 S 0.46439 0.8174 0.03484 0.0
N371 N 0.54242 0.82903 1.02238 0.0
N372 N 0.43079 0.75 1.01932 0.0
C373 C 0.48443 0.7336 1.00339 0.0
C374 C 0.54404 0.77577 1.00505 0.0
C375 C 0.59732 0.2835 0.72186 0.0
C376 C 0.57433 0.22473 0.73533 0.0
C377 C 0.56285 0.34536 0.72483 0.0
C378 C 0.50428 0.34757 0.74063 0.0
H379 H 0.63739 0.28022 0.70719 0.0
H380 H 0.57493 0.38755 0.71166 0.0
S381 S 0.44356 0.21601 0.78754 0.0
N382 N 0.50584 0.17764 0.77093 0.0
N383 N 0.4386 0.29585 0.77601 0.0
C384 C 0.49049 0.29412 0.75821 0.0
C385 C 0.52612 0.23094 0.75541 0.0
C386 C 0.02657 0.28496 0.50013 0.0
C387 C 0.03932 0.32771 0.4786 0.0
C388 C 0.96211 0.25335 0.5026 0.0
C389 C 0.91122 0.26518 0.48355 0.0
H390 H 0.06808 0.27047 0.51337 0.0
H391 H 0.95589 0.21255 0.51695 0.0
S392 S 0.91308 0.39068 0.42927 0.0
N393 N 0.9918 0.39328 0.44195 0.0
N394 N 0.86991 0.33557 0.44764 0.0
C395 C 0.91938 0.31813 0.46538 0.0
C396 C 0.98476 0.3485 0.46228 0.0
C397 C 0.08735 0.77832 0.22459 0.0
C398 C 0.06432 0.71525 0.23484 0.0
C399 C 0.04722 0.83659 0.22754 0.0
C400 C 0.98385 0.83117 0.24035 0.0
H401 H 0.13243 0.78119 0.21212 0.0
H402 H 0.06072 0.88274 0.21666 0.0
S403 S 0.91481 0.68289 0.27765 0.0
N404 N 0.98612 0.6537 0.26377 0.0
N405 N 0.90871 0.76528 0.26912 0.0
C406 C 0.96717 0.77208 0.25473 0.0
C407 C 1.00833 0.71255 0.25185 0.0
C408 C 0.4402 0.01089 1.02612 0.0
C409 C 0.46138 1.0048 0.05246 0.0
C410 C 0.48784 1.00474 1.00468 0.0
C411 C 0.56098 0.99347 1.00766 0.0
H412 H 0.38619 0.02097 1.02194 0.0
H413 H 0.46641 0.00883 0.98519 0.0
S414 S 0.64586 0.97241 0.0723 0.0
N415 N 0.56361 0.9851 0.07971 0.0
N416 N 0.65037 0.97592 0.04019 0.0
C417 C 0.58306 0.98818 0.03387 0.0
C418 C 0.53451 0.99321 0.05573 0.0
C419 C 0.75743 0.78094 0.30057 0.0
C420 C 0.74013 0.70889 0.29774 0.0
C421 C 0.76422 0.8286 0.27915 0.0
C422 C 0.75413 0.80823 0.25291 0.0
H423 H 0.76665 0.80147 0.31993 0.0
H424 H 0.77974 0.88143 0.28325 0.0
S425 S 0.69665 0.62974 0.23371 0.0
N426 N 0.70597 0.62334 0.26564 0.0
N427 N 0.71832 0.71007 0.22603 0.0
C428 C 0.73416 0.73695 0.24981 0.0
C429 C 0.72735 0.68848 0.27171 0.0
C430 C 0.08075 0.02825 0.52405 0.0
C431 C 0.05817 0.00872 0.54923 0.0
C432 C 0.03301 0.04039 0.50276 0.0
C433 C 0.95914 0.03249 0.50465 0.0
H434 H 0.13572 0.03556 0.52075 0.0
H435 H 0.05486 0.05675 0.48436 0.0
S436 S 0.87112 0.97809 0.56531 0.0
N437 N 0.95363 0.98195 0.57394 0.0
N438 N 0.86809 0.99977 0.53423 0.0
C439 C 0.93629 0.01119 0.52937 0.0
C440 C 0.98425 1.00071 0.55124 0.0
C441 C 0.74582 0.24244 0.80074 0.0
C442 C 0.75806 0.31507 0.79689 0.0
C443 C 0.74369 0.19214 0.77997 0.0
C444 C 0.75425 0.21036 0.75358 0.0
H445 H 0.73771 0.22355 0.82036 0.0
H446 H 0.73307 0.13853 0.78471 0.0
S447 S 0.79108 0.39223 0.7319 0.0
N448 N 0.78212 0.40051 0.76374 0.0
N449 N 0.7796 0.30911 0.72542 0.0
C450 C 0.76741 0.28287 0.74954 0.0
C451 C 0.76895 0.3339 0.7707 0.0
C452 C 0.27624 0.23532 0.75512 0.0
C453 C 0.27396 0.30938 0.75746 0.0
C454 C 0.2653 0.18816 0.77644 0.0
C455 C 0.25173 0.21127 0.80207 0.0
H456 H 0.28729 0.21267 0.7363 0.0
H457 H 0.26781 0.13297 0.77268 0.0
S458 S 0.23687 0.39913 0.81983 0.0
N459 N 0.25484 0.40178 0.7884 0.0
N460 N 0.23448 0.31624 0.82783 0.0
C461 C 0.24854 0.28535 0.80466 0.0
C462 C 0.25953 0.33316 0.78285 0.0
C463 C 0.232 0.74781 0.2971 0.0
C464 C 0.2525 0.81891 0.29445 0.0
C465 C 0.23252 0.69828 0.2761 0.0
C466 C 0.25349 0.71573 0.25058 0.0
H467 H 0.21501 0.7295 0.31597 0.0
H468 H 0.21437 0.64625 0.27982 0.0
S469 S 0.31267 0.8937 0.23179 0.0
N470 N 0.29446 0.90239 0.26304 0.0
N471 N 0.29571 0.81204 0.2243 0.0
C472 C 0.27383 0.7868 0.24757 0.0
C473 C 0.27324 0.83717 0.26899 0.0
C474 C 0.08288 0.51031 0.52997 0.0
C475 C 0.06274 0.50873 0.50345 0.0
C476 C 0.03405 0.51917 0.55088 0.0
C477 C 0.96058 0.52574 0.54718 0.0
H478 H 0.13728 0.50569 0.53465 0.0
H479 H 0.05483 0.5215 0.5705 0.0
S480 S 0.87739 0.52464 0.48174 0.0
N481 N 0.96073 0.51602 0.47518 0.0
N482 N 0.87171 0.52904 0.51381 0.0
C483 C 0.93942 0.523 0.52082 0.0
C484 C 0.98922 0.51551 0.49944 0.0
C485 C 0.48418 0.49696 0.04946 0.0
C486 C 0.55784 0.4895 0.04689 0.0
C487 C 0.43686 0.5026 0.02784 0.0
C488 C 0.45923 0.50041 1.00169 0.0
H489 H 0.46187 0.49779 0.06877 0.0
H490 H 0.38203 0.50789 0.03175 0.0
S491 S 0.64603 0.48213 0.98287 0.0
N492 N 0.64935 0.4815 1.01505 0.0
N493 N 0.56325 0.49053 0.97495 0.0
C494 C 0.53303 0.49362 0.99877 0.0
C495 C 0.58118 0.48868 1.02092 0.0
C496 C 0.2478 0.25454 0.15554 0.0
C497 C 0.27168 0.26329 0.12977 0.0
C498 C 0.24331 0.31127 0.17321 0.0
C499 C 0.26337 0.37949 0.16612 0.0
H500 H 0.22994 0.20396 0.16185 0.0
H501 H 0.22151 0.30184 0.19228 0.0
S502 S 0.33859 0.42801 0.10189 0.0
N503 N 0.32149 0.34448 0.09896 0.0
N504 N 0.31459 0.44942 0.13166 0.0
C505 C 0.2911 0.38755 0.1408 0.0
C506 C 0.29481 0.33019 0.12284 0.0
C507 C 0.48394 0.55066 0.39464 0.0
C508 C 0.51464 0.48957 0.3848 0.0
C509 C 0.43081 0.54848 0.4137 0.0
C510 C 0.40867 0.48541 0.42489 0.0
H511 H 0.49839 0.60045 0.38665 0.0
H512 H 0.40611 0.59648 0.4194 0.0
S513 S 0.47615 0.3111 0.4075 0.0
N514 N 0.51971 0.36443 0.3884 0.0
N515 N 0.42471 0.36048 0.42521 0.0
C516 C 0.44172 0.42444 0.41615 0.0
C517 C 0.49336 0.42648 0.39597 0.0
C518 C 0.23988 0.759 0.65401 0.0
C519 C 0.27286 0.75599 0.62943 0.0
C520 C 0.24064 0.70162 0.67161 0.0
C521 C 0.27257 0.63783 0.66513 0.0
H522 H 0.21423 0.8063 0.65989 0.0
H523 H 0.21609 0.70731 0.69042 0.0
S524 S 0.37155 0.60446 0.60441 0.0
N525 N 0.3421 0.68407 0.60068 0.0
N526 N 0.34225 0.57831 0.63291 0.0
C527 C 0.30593 0.63484 0.64075 0.0
C528 C 0.30632 0.69304 0.6232 0.0
C529 C 0.06724 0.45789 0.87975 0.0
C530 C 1.00934 0.50244 0.88024 0.0
C531 C 0.12164 0.4631 0.89833 0.0
C532 C 0.12137 0.5136 0.91832 0.0
H533 H 0.07115 0.41911 0.86453 0.0
H534 H 0.16538 0.42833 0.89652 0.0
S535 S 0.98659 0.64989 0.92575 0.0
N536 N 0.95771 0.60216 0.9012 0.0
N537 N 0.05944 0.61316 0.93567 0.0
C538 C 0.06362 0.55885 0.91887 0.0
C539 C 1.00794 0.55302 0.90002 0.0
C540 C 0.76093 0.6367 0.90901 0.0
C541 C 0.76947 0.65048 0.88212 0.0
C542 C 0.76182 0.68954 0.92807 0.0
C543 C 0.76792 0.76016 0.92152 0.0
H544 H 0.75578 0.58382 0.91574 0.0
H545 H 0.75767 0.6745 0.94833 0.0
S546 S 0.78597 0.82723 0.85395 0.0
N547 N 0.78255 0.74216 0.85003 0.0
N548 N 0.77945 0.84155 0.88563 0.0
C549 C 0.77368 0.77565 0.89465 0.0
C550 C 0.77545 0.72115 0.87512 0.0
C551 C 0.50878 0.50278 0.64884 0.0
C552 C 0.52063 0.51355 0.67579 0.0
C553 C 0.56403 0.50233 0.63052 0.0
C554 C 0.63425 0.51054 0.63827 0.0
H555 H 0.45628 0.4957 0.64174 0.0
H556 H 0.55142 0.49645 0.61003 0.0
S557 S 0.69374 0.54053 0.70664 0.0
N558 N 0.60873 0.53313 0.70904 0.0
N559 N 0.7111 0.53012 0.67544 0.0
C560 C 0.64653 0.51959 0.66532 0.0
C561 C 0.59041 0.52158 0.68376 0.0
C562 C 0.72502 0.33367 0.43284 0.0
C563 C 0.73053 0.26417 0.42449 0.0
C564 C 0.72811 0.39 0.41528 0.0
C565 C 0.73433 0.38054 0.38805 0.0
H566 H 0.72017 0.34511 0.45342 0.0
H567 H 0.72401 0.44176 0.42334 0.0
S568 S 0.73628 0.2082 0.35528 0.0
N569 N 0.73462 0.18884 0.38664 0.0
N570 N 0.73751 0.29375 0.35356 0.0
C571 C 0.73618 0.31085 0.37923 0.0
C572 C 0.73464 0.25325 0.39734 0.0
C573 C 0.95347 0.49753 0.12994 0.0
C574 C 0.88352 0.50208 0.13834 0.0
C575 C 0.01081 0.50334 0.14757 0.0
C576 C 1.00142 0.51331 0.17464 0.0
H577 H 0.9643 0.48742 0.1096 0.0
H578 H 0.06285 0.49816 0.13996 0.0
S579 S 0.83069 0.53251 0.20713 0.0
N580 N 0.81023 0.52067 0.17617 0.0
N581 N 0.91612 0.53083 0.20857 0.0
C582 C 0.93217 0.51999 0.18313 0.0
C583 C 0.87408 0.5146 0.1653 0.0
C584 C 0.74925 0.74983 0.65657 0.0
C585 C 0.74415 0.76319 0.62947 0.0
C586 C 0.7481 0.80432 0.67545 0.0
C587 C 0.74294 0.87488 0.66809 0.0
H588 H 0.75312 0.69679 0.66329 0.0
H589 H 0.75119 0.791 0.69593 0.0
S590 S 0.71921 0.93732 0.5999 0.0
N591 N 0.7281 0.85273 0.59679 0.0
N592 N 0.72626 0.95307 0.63139 0.0
C593 C 0.73648 0.8882 0.64103 0.0
C594 C 0.73698 0.8332 0.62206 0.0
C595 C 0.95888 1.00262 0.92444 0.0
C596 C 0.88846 1.0073 0.9164 0.0
C597 C 0.01457 1.0022 0.90628 0.0
C598 C 1.00272 1.00467 0.87908 0.0
H599 H 0.97123 0.99773 0.94498 0.0
H600 H 0.0672 0.99821 0.91364 0.0
S601 S 0.82946 0.01859 0.84724 0.0
N602 N 0.81191 0.01733 0.87867 0.0
N603 N 0.91455 0.01264 0.84523 0.0
C604 C 0.93287 0.00985 0.87084 0.0
C605 C 0.87659 0.01231 0.88921 0.0
C606 C 0.7133 0.17498 0.15979 0.0
C607 C 0.77489 0.14039 0.16695 0.0
C608 C 0.71402 0.2317 0.14205 0.0
C609 C 0.77609 0.25548 0.13032 0.0
H610 H 0.66423 0.1578 0.16773 0.0
H611 H 0.66509 0.25508 0.13685 0.0
S612 S 0.95125 0.18317 0.14277 0.0
N613 N 0.89964 0.1359 0.16125 0.0
N614 N 0.90044 0.23923 0.12768 0.0
C615 C 0.83754 0.22106 0.13742 0.0
C616 C 0.83705 0.16465 0.15574 0.0
C617 C 0.55769 0.01624 0.42433 0.0
C618 C 0.62684 0.99783 0.41806 0.0
C619 C 0.50213 0.00984 0.40609 0.0
C620 C 0.51303 0.98501 0.38054 0.0
H621 H 0.54655 0.03885 0.44321 0.0
H622 H 0.45097 0.02697 0.41172 0.0
S623 S 0.68135 0.92129 0.35481 0.0
N624 N 0.70027 0.94737 0.38469 0.0
N625 N 0.59755 0.93561 0.35091 0.0
C626 C 0.58094 0.96299 0.37451 0.0
C627 C 0.63721 0.96924 0.39301 0.0
C628 C 0.2379 0.18491 0.4282 0.0
C629 C 0.25461 0.25458 0.42274 0.0
C630 C 0.24252 0.13221 0.40918 0.0
C631 C 0.2651 0.14545 0.38345 0.0
H632 H 0.22177 0.17039 0.44765 0.0
H633 H 0.23045 0.07974 0.4152 0.0
S634 S 0.31078 0.32035 0.35811 0.0
N635 N 0.29056 0.33489 0.3889 0.0
N636 N 0.30122 0.23602 0.3534 0.0
C637 C 0.28026 0.2155 0.37741 0.0
C638 C 0.27446 0.26972 0.39687 0.0
C639 C 1.00467 1.00574 0.15096 0.0
C640 C 0.01589 0.00884 0.17827 0.0
C641 C 0.06042 0.00935 0.13281 0.0
C642 C 0.13059 0.01423 0.14101 0.0
H643 H 0.95218 1.00198 0.14345 0.0
H644 H 0.04828 0.00869 0.11217 0.0
S645 S 0.18861 0.02638 0.21033 0.0
N646 N 0.10348 0.01937 0.21223 0.0
N647 N 0.20658 0.0237 0.17895 0.0
C648 C 0.14214 0.01648 0.16832 0.0
C649 C 0.0856 0.01433 0.18662 0.0
C650 C 0.29917 0.87857 0.90797 0.0
C651 C 0.26484 0.87066 0.88377 0.0
C652 C 0.30471 0.8236 0.92613 0.0
C653 C 0.27762 0.75696 0.92091 0.0
H654 H 0.32066 0.92845 0.91324 0.0
H655 H 0.32992 0.83371 0.94468 0.0
S656 S 0.19023 0.70418 0.85932 0.0
N657 N 0.20792 0.78724 0.85493 0.0
N658 N 0.22045 0.68447 0.88858 0.0
C659 C 0.24736 0.74654 0.89613 0.0
C660 C 0.24062 0.80293 0.87773 0.0
C661 C 0.51303 0.98183 0.64906 0.0
C662 C 0.50518 0.02072 0.67224 0.0
C663 C 0.45868 0.97645 0.63022 0.0
C664 C 0.39433 0.0106 0.63346 0.0
H665 H 0.56018 0.95256 0.64605 0.0
H666 H 0.46597 0.94236 0.61368 0.0
S667 S 0.35351 0.13088 0.68805 0.0
N668 N 0.4315 0.10127 0.69542 0.0
N669 N 0.33147 0.09316 0.66027 0.0
C670 C 0.38858 0.05396 0.65562 0.0
C671 C 0.4432 0.05847 0.67485 0.0
C672 C 0.1537 0.15891 0.98836 0.0
C673 C 0.19092 0.10492 1.0004 0.0
C674 C 0.15678 0.169 0.96123 0.0
C675 C 0.20016 0.12779 0.94571 0.0
H676 H 0.12253 0.19372 1.0 0.0
H677 H 0.12621 0.20992 0.95244 0.0
S678 S 0.30774 0.97988 0.96789 0.0
N679 N 0.26969 1.00815 0.99453 0.0
N680 N 0.27995 0.03071 0.94419 0.0
C681 C 0.23763 0.07404 0.95758 0.0
C682 C 0.23185 0.06165 0.9848 0.0
C683 C 0.65104 0.38713 0.20606 0.0
C684 C 0.60579 0.43064 0.192 0.0
C685 C 0.65897 0.3942 0.23308 0.0
C686 C 0.62003 0.44327 0.24677 0.0
H687 H 0.68325 0.34992 0.19595 0.0
H688 H 0.69619 0.36183 0.24323 0.0
S689 S 0.4924 0.56712 0.21887 0.0
N690 N 0.52134 0.52337 0.19347 0.0
N691 N 0.5329 0.53452 0.24452 0.0
C692 C 0.57239 0.48495 0.23301 0.0
C693 C 0.56612 0.47924 0.20547 0.0
C694 C 0.35472 0.90401 0.48117 0.0
C695 C 0.29584 0.88206 0.49473 0.0
C696 C 0.35737 0.89797 0.454 0.0
C697 C 0.30028 0.87194 0.4397 0.0
H698 H 0.39874 0.92586 0.49158 0.0
H699 H 0.40329 0.91655 0.44408 0.0
S700 S 0.13383 0.80877 0.4664 0.0
N701 N 0.17968 0.83245 0.49224 0.0
N702 N 0.18381 0.82406 0.44099 0.0
C703 C 0.24135 0.84965 0.4531 0.0
C704 C 0.23934 0.85401 0.48074 0.0
C705 C 0.8725 0.63693 0.70553 0.0
C706 C 0.90496 0.58427 0.69099 0.0
C707 C 0.86701 0.63232 0.73271 0.0
C708 C 0.89634 0.57637 0.74616 0.0
H709 H 0.84813 0.68033 0.69579 0.0
H710 H 0.83911 0.67216 0.7432 0.0
S711 S 0.98985 0.42714 0.71734 0.0
N712 N 0.96768 0.4754 0.69206 0.0
N713 N 0.96102 0.4685 0.74331 0.0
C714 C 0.93173 0.52511 0.73199 0.0
C715 C 0.93523 0.52863 0.70431 0.0
C716 C 0.85161 0.82804 0.09339 0.0
C717 C 0.83611 0.88348 0.10999 0.0
C718 C 0.85513 0.83817 0.06634 0.0
C719 C 0.84411 0.90419 0.05525 0.0
H720 H 0.85875 0.7764 0.10125 0.0
H721 H 0.86351 0.79342 0.05398 0.0
S722 S 0.81313 0.06774 0.09144 0.0
N723 N 0.81736 1.00744 0.11422 0.0
N724 N 0.82507 0.02693 0.06349 0.0
C725 C 0.83367 0.96077 0.07201 0.0
C726 C 0.82922 0.95022 0.09941 0.0
C727 C 0.31879 0.55929 0.84697 0.0
C728 C 0.38482 0.56341 0.85851 0.0
C729 C 0.30981 0.57149 0.82034 0.0
C730 C 0.36687 0.58705 0.80447 0.0
H731 H 0.27376 0.54659 0.85863 0.0
H732 H 0.25838 0.56545 0.81198 0.0
S733 S 0.55016 0.60677 0.82625 0.0
N734 N 0.50717 0.58802 0.85311 0.0
N735 N 0.49155 0.60897 0.80261 0.0
C736 C 0.43295 0.59407 0.81616 0.0
C737 C 0.44167 0.5825 0.84337 0.0
C738 C 0.6333 0.11683 0.59712 0.0
C739 C 0.69606 0.1342 0.60986 0.0
C740 C 0.63105 0.10566 0.57017 0.0
C741 C 0.69144 0.11184 0.55538 0.0
H742 H 0.58609 0.10915 0.60814 0.0
H743 H 0.58241 0.09104 0.56096 0.0
S744 S 0.86615 0.16507 0.57862 0.0
N745 N 0.81842 0.16224 0.60526 0.0
N746 N 0.81361 0.14328 0.55438 0.0
C747 C 0.75353 0.13252 0.56757 0.0
C748 C 0.75608 0.14323 0.59496 0.0
C749 C 0.18294 0.51657 0.34643 0.0
C750 C 0.15211 0.46056 0.35944 0.0
C751 C 0.19459 0.51391 0.3196 0.0
C752 C 0.17403 0.45606 0.30474 0.0
H753 H 0.19984 0.56217 0.35709 0.0
H754 H 0.21867 0.55822 0.31042 0.0
S755 S 0.09633 0.29388 0.32965 0.0
N756 N 0.10557 0.34337 0.35576 0.0
N757 N 0.12442 0.34046 0.30482 0.0
C758 C 0.14337 0.39963 0.31739 0.0
C759 C 0.13308 0.40142 0.3449 0.0
C760 C 0.62342 0.622 0.45654 0.0
C761 C 0.68081 0.65325 0.44421 0.0
C762 C 0.62445 0.60787 0.48337 0.0
C763 C 0.68239 0.62573 0.49857 0.0
H764 H 0.57871 0.60541 0.44521 0.0
H765 H 0.58031 0.58227 0.49217 0.0
S766 S 0.84249 0.71422 0.47627 0.0
N767 N 0.79523 0.70449 0.44951 0.0
N768 N 0.79607 0.6806 0.50012 0.0
C769 C 0.73856 0.65975 0.48674 0.0
C770 C 0.7381 0.67288 0.45945 0.0
C771 C 0.07821 0.94498 0.71048 0.0
C772 C 0.13547 0.95667 0.69442 0.0
C773 C 0.08733 0.93691 0.73741 0.0
C774 C 0.15407 0.93937 0.74879 0.0
H775 H 0.02624 0.94394 0.70231 0.0
H776 H 0.04162 0.93169 0.74945 0.0
S777 S 0.32103 0.95404 0.71381 0.0
N778 N 0.26112 0.96024 0.69077 0.0
N779 N 0.27844 0.94478 0.74143 0.0
C780 C 0.21187 0.94583 0.73253 0.0
C781 C 0.2025 0.95469 0.70524 0.0
C782 C 0.79899 0.33046 0.95557 0.0
C783 C 0.81501 0.38887 0.94065 0.0
C784 C 0.803 0.33347 0.98279 0.0
C785 C 0.82208 0.39534 0.99571 0.0
H786 H 0.78299 0.28259 0.9462 0.0
H787 H 0.78859 0.28772 0.99377 0.0
S788 S 0.87065 0.56138 0.9648 0.0
N789 N 0.85366 0.50881 0.94012 0.0
N790 N 0.85844 0.51528 0.99146 0.0
C791 C 0.83949 0.45348 0.98083 0.0
C792 C 0.83655 0.45003 0.95318 0.0
C793 C 0.36245 0.12851 0.23582 0.0
C794 C 0.4016 0.08038 0.25002 0.0
C795 C 0.36572 0.13002 0.20859 0.0
C796 C 0.40611 0.08159 0.1949 0.0
H797 H 0.3277 0.16369 0.24575 0.0
H798 H 0.33315 0.16649 0.19817 0.0
S799 S 0.51888 0.94596 0.22317 0.0
N800 N 0.48448 0.98524 0.24861 0.0
N801 N 0.4873 0.986 0.19726 0.0
C802 C 0.44665 0.03437 0.20886 0.0
C803 C 0.44526 0.03433 0.23656 0.0
C804 C 0.35305 0.32427 0.59831 0.0
C805 C 0.31292 0.3674 0.61431 0.0
C806 C 0.35282 0.33309 0.57111 0.0
C807 C 0.31568 0.38769 0.55947 0.0
H808 H 0.38419 0.28339 0.60684 0.0
H809 H 0.38222 0.29751 0.55915 0.0
S810 S 0.20516 0.51646 0.59322 0.0
N811 N 0.23466 0.46584 0.61667 0.0
N812 N 0.23955 0.4863 0.56612 0.0
C813 C 0.27724 0.43225 0.57546 0.0
C814 C 0.27449 0.42107 0.60279 0.0
C815 C 0.8629 0.01607 0.34909 0.0
C816 C 0.88722 0.07715 0.36098 0.0
C817 C 0.84673 0.01446 0.32254 0.0
C818 C 0.85574 0.07335 0.30684 0.0
H819 H 0.85343 0.96982 0.36052 0.0
H820 H 0.82774 0.96634 0.31422 0.0
S821 S 0.9189 0.24559 0.32823 0.0
N822 N 0.91993 0.19809 0.35503 0.0
N823 N 0.89191 0.1937 0.30457 0.0
C824 C 0.88225 0.13406 0.31815 0.0
C825 C 0.89754 0.13626 0.3454 0.0
C826 C 0.25966 0.61329 0.0949 0.0
C827 C 0.20464 0.64699 0.10739 0.0
C828 C 0.25762 0.60101 0.06817 0.0
C829 C 0.20146 0.62368 0.05292 0.0
H830 H 0.30344 0.59367 0.10597 0.0
H831 H 0.30084 0.57421 0.05932 0.0
S832 S 0.04717 0.71925 0.0758 0.0
N833 N 0.09332 0.70495 0.10254 0.0
N834 N 0.09176 0.68515 0.05154 0.0
C835 C 0.14754 0.66023 0.06481 0.0
C836 C 0.14855 0.67105 0.09231 0.0
C837 C 0.64512 0.0097 0.84958 0.0
C838 C 0.61588 0.95223 0.86227 0.0
C839 C 0.65635 0.0089 0.82268 0.0
C840 C 0.63711 0.95144 0.80741 0.0
H841 H 0.66256 0.05446 0.86062 0.0
H842 H 0.68021 0.05383 0.81377 0.0
S843 S 0.55169 0.79128 0.83067 0.0
N844 N 0.56433 0.8377 0.85738 0.0
N845 N 0.58225 0.83814 0.80631 0.0
C846 C 0.60429 0.89523 0.8195 0.0
C847 C 0.5945 0.89515 0.8471 0.0
loop_
_geom_bond_atom_site_label_1
_geom_bond_atom_site_label_2
_geom_bond_distance
_geom_bond_site_symmetry_2
_ccdc_geom_bond_type
Tb0 O3 2.453 1_545 S
Tb0 O4 2.596 . S
Tb0 O5 2.374 . S
Tb0 O13 2.343 . S
Tb0 O15 2.353 . S
Tb0 O17 2.427 . S
Tb0 O18 2.513 . S
C1 O5 1.251 . S
C1 O7 1.263 . S
Tb2 O4 2.343 . S
Tb2 O7 2.353 . S
Tb2 O10 2.427 . S
Tb2 O11 2.513 . S
Tb2 O12 2.453 . S
Tb2 O13 2.596 . S
Tb2 O14 2.374 . S
O3 Tb0 2.453 1_565 S
O3 C19 1.245 1_565 S
O4 Tb0 2.596 . S
O4 Tb2 2.343 . S
O4 C19 1.259 . S
O5 Tb0 2.374 . S
O5 C1 1.251 . S
C6 O10 1.275 1_556 S
C6 O11 1.246 1_556 S
O7 C1 1.263 . S
O7 Tb2 2.353 . S
C8 O12 1.245 . S
C8 O13 1.259 . S
C9 O14 1.250 . S
C9 O15 1.263 . S
O10 Tb2 2.427 . S
O10 C6 1.275 1_554 S
O11 Tb2 2.513 . S
O11 C6 1.246 1_554 S
O12 Tb2 2.453 . S
O12 C8 1.245 . S
O13 Tb0 2.343 . S
O13 Tb2 2.596 . S
O13 C8 1.259 . S
O14 Tb2 2.374 . S
O14 C9 1.250 . S
O15 Tb0 2.353 . S
O15 C9 1.263 . S
C16 O17 1.275 . S
C16 O18 1.246 . S
O17 Tb0 2.427 . S
O17 C16 1.275 . S
O18 Tb0 2.513 . S
O18 C16 1.246 . S
C19 O3 1.245 1_545 S
C19 O4 1.259 . S
Tb20 O23 2.453 . S
Tb20 O24 2.596 . S
Tb20 O25 2.374 . S
Tb20 O33 2.343 . S
Tb20 O35 2.353 . S
Tb20 O37 2.427 . S
Tb20 O38 2.513 . S
C21 O25 1.251 . S
C21 O27 1.263 . S
Tb22 O24 2.343 . S
Tb22 O27 2.353 . S
Tb22 O30 2.427 . S
Tb22 O31 2.513 . S
Tb22 O32 2.453 . S
Tb22 O33 2.596 . S
Tb22 O34 2.374 . S
O23 Tb20 2.453 . S
O23 C39 1.245 . S
O24 Tb20 2.596 . S
O24 Tb22 2.343 . S
O24 C39 1.259 . S
O25 Tb20 2.374 . S
O25 C21 1.251 . S
C26 O30 1.275 . S
C26 O31 1.246 . S
O27 C21 1.263 . S
O27 Tb22 2.353 . S
C28 O32 1.245 . S
C28 O33 1.259 . S
C29 O34 1.250 . S
C29 O35 1.263 . S
O30 Tb22 2.427 . S
O30 C26 1.275 . S
O31 Tb22 2.513 . S
O31 C26 1.246 . S
O32 Tb22 2.453 . S
O32 C28 1.245 . S
O33 Tb20 2.343 . S
O33 Tb22 2.596 . S
O33 C28 1.259 . S
O34 Tb22 2.374 . S
O34 C29 1.250 . S
O35 Tb20 2.353 . S
O35 C29 1.263 . S
C36 O37 1.275 . S
C36 O38 1.246 . S
O37 Tb20 2.427 . S
O37 C36 1.275 . S
O38 Tb20 2.513 . S
O38 C36 1.246 . S
C39 O23 1.245 . S
C39 O24 1.259 . S
Tb40 O43 2.453 1_565 S
Tb40 O44 2.596 . S
Tb40 O45 2.374 . S
Tb40 O53 2.343 . S
Tb40 O55 2.353 . S
Tb40 O57 2.427 . S
Tb40 O58 2.513 . S
C41 O45 1.251 . S
C41 O47 1.263 . S
Tb42 O44 2.343 . S
Tb42 O47 2.353 . S
Tb42 O50 2.427 . S
Tb42 O51 2.513 . S
Tb42 O52 2.453 . S
Tb42 O53 2.596 . S
Tb42 O54 2.374 . S
O43 Tb40 2.453 1_545 S
O43 C59 1.245 1_545 S
O44 Tb40 2.596 . S
O44 Tb42 2.343 . S
O44 C59 1.259 . S
O45 Tb40 2.374 . S
O45 C41 1.251 . S
C46 O50 1.275 . S
C46 O51 1.246 . S
O47 C41 1.263 . S
O47 Tb42 2.353 . S
C48 O52 1.245 . S
C48 O53 1.259 . S
C49 O54 1.250 . S
C49 O55 1.263 . S
O50 Tb42 2.427 . S
O50 C46 1.275 . S
O51 Tb42 2.513 . S
O51 C46 1.246 . S
O52 Tb42 2.453 . S
O52 C48 1.245 . S
O53 Tb40 2.343 . S
O53 Tb42 2.596 . S
O53 C48 1.259 . S
O54 Tb42 2.374 . S
O54 C49 1.250 . S
O55 Tb40 2.353 . S
O55 C49 1.263 . S
C56 O57 1.275 . S
C56 O58 1.246 . S
O57 Tb40 2.427 . S
O57 C56 1.275 . S
O58 Tb40 2.513 . S
O58 C56 1.246 . S
C59 O43 1.245 1_565 S
C59 O44 1.259 . S
Tb60 O63 2.453 . S
Tb60 O64 2.596 . S
Tb60 O65 2.374 . S
Tb60 O73 2.343 . S
Tb60 O75 2.353 . S
Tb60 O77 2.427 . S
Tb60 O78 2.513 . S
C61 O65 1.251 . S
C61 O67 1.263 . S
Tb62 O64 2.343 . S
Tb62 O67 2.353 . S
Tb62 O70 2.427 . S
Tb62 O71 2.513 . S
Tb62 O72 2.453 1_655 S
Tb62 O73 2.596 . S
Tb62 O74 2.374 . S
O63 Tb60 2.453 . S
O63 C79 1.245 . S
O64 Tb60 2.596 . S
O64 Tb62 2.343 . S
O64 C79 1.259 . S
O65 Tb60 2.374 . S
O65 C61 1.251 . S
C66 O70 1.275 . S
C66 O71 1.246 . S
O67 C61 1.263 . S
O67 Tb62 2.353 . S
C68 O72 1.245 1_655 S
C68 O73 1.259 . S
C69 O74 1.250 . S
C69 O75 1.263 . S
O70 Tb62 2.427 . S
O70 C66 1.275 . S
O71 Tb62 2.513 . S
O71 C66 1.246 . S
O72 Tb62 2.453 1_455 S
O72 C68 1.245 1_455 S
O73 Tb60 2.343 . S
O73 Tb62 2.596 . S
O73 C68 1.259 . S
O74 Tb62 2.374 . S
O74 C69 1.250 . S
O75 Tb60 2.353 . S
O75 C69 1.263 . S
C76 O77 1.275 . S
C76 O78 1.246 . S
O77 Tb60 2.427 . S
O77 C76 1.275 . S
O78 Tb60 2.513 . S
O78 C76 1.246 . S
C79 O63 1.245 . S
C79 O64 1.259 . S
Tb80 O83 2.453 . S
Tb80 O84 2.596 . S
Tb80 O85 2.374 . S
Tb80 O93 2.343 . S
Tb80 O95 2.353 . S
Tb80 O97 2.427 . S
Tb80 O98 2.513 . S
C81 O85 1.251 . S
C81 O87 1.263 . S
Tb82 O84 2.343 . S
Tb82 O87 2.353 . S
Tb82 O90 2.427 . S
Tb82 O91 2.513 . S
Tb82 O92 2.453 1_565 S
Tb82 O93 2.596 . S
Tb82 O94 2.374 . S
O83 Tb80 2.453 . S
O83 C99 1.245 . S
O84 Tb80 2.596 . S
O84 Tb82 2.343 . S
O84 C99 1.259 . S
O85 Tb80 2.374 . S
O85 C81 1.251 . S
C86 O90 1.275 . S
C86 O91 1.246 . S
O87 C81 1.263 . S
O87 Tb82 2.353 . S
C88 O92 1.245 1_565 S
C88 O93 1.259 . S
C89 O94 1.250 . S
C89 O95 1.263 . S
O90 Tb82 2.427 . S
O90 C86 1.275 . S
O91 Tb82 2.513 . S
O91 C86 1.246 . S
O92 Tb82 2.453 1_545 S
O92 C88 1.245 1_545 S
O93 Tb80 2.343 . S
O93 Tb82 2.596 . S
O93 C88 1.259 . S
O94 Tb82 2.374 . S
O94 C89 1.250 . S
O95 Tb80 2.353 . S
O95 C89 1.263 . S
C96 O97 1.275 1_554 S
C96 O98 1.246 1_554 S
O97 Tb80 2.427 . S
O97 C96 1.275 1_556 S
O98 Tb80 2.513 . S
O98 C96 1.246 1_556 S
C99 O83 1.245 . S
C99 O84 1.259 . S
Tb100 O103 2.453 . S
Tb100 O104 2.596 . S
Tb100 O105 2.374 . S
Tb100 O113 2.343 . S
Tb100 O115 2.353 . S
Tb100 O117 2.427 . S
Tb100 O118 2.513 . S
C101 O105 1.251 . S
C101 O107 1.263 . S
Tb102 O104 2.343 . S
Tb102 O107 2.353 . S
Tb102 O110 2.427 . S
Tb102 O111 2.513 . S
Tb102 O112 2.453 . S
Tb102 O113 2.596 . S
Tb102 O114 2.374 . S
O103 Tb100 2.453 . S
O103 C119 1.245 . S
O104 Tb100 2.596 . S
O104 Tb102 2.343 . S
O104 C119 1.259 . S
O105 Tb100 2.374 . S
O105 C101 1.251 . S
C106 O110 1.275 . S
C106 O111 1.246 . S
O107 C101 1.263 . S
O107 Tb102 2.353 . S
C108 O112 1.245 . S
C108 O113 1.259 . S
C109 O114 1.250 . S
C109 O115 1.263 . S
O110 Tb102 2.427 . S
O110 C106 1.275 . S
O111 Tb102 2.513 . S
O111 C106 1.246 . S
O112 Tb102 2.453 . S
O112 C108 1.245 . S
O113 Tb100 2.343 . S
O113 Tb102 2.596 . S
O113 C108 1.259 . S
O114 Tb102 2.374 . S
O114 C109 1.250 . S
O115 Tb100 2.353 . S
O115 C109 1.263 . S
C116 O117 1.275 . S
C116 O118 1.246 . S
O117 Tb100 2.427 . S
O117 C116 1.275 . S
O118 Tb100 2.513 . S
O118 C116 1.246 . S
C119 O103 1.245 . S
C119 O104 1.259 . S
Tb120 O123 2.453 . S
Tb120 O124 2.596 . S
Tb120 O125 2.374 . S
Tb120 O133 2.343 . S
Tb120 O135 2.353 . S
Tb120 O137 2.427 . S
Tb120 O138 2.513 . S
C121 O125 1.251 . S
C121 O127 1.263 . S
Tb122 O124 2.343 . S
Tb122 O127 2.353 . S
Tb122 O130 2.427 . S
Tb122 O131 2.513 . S
Tb122 O132 2.453 1_545 S
Tb122 O133 2.596 . S
Tb122 O134 2.374 . S
O123 Tb120 2.453 . S
O123 C139 1.245 . S
O124 Tb120 2.596 . S
O124 Tb122 2.343 . S
O124 C139 1.259 . S
O125 Tb120 2.374 . S
O125 C121 1.251 . S
C126 O130 1.275 . S
C126 O131 1.246 . S
O127 C121 1.263 . S
O127 Tb122 2.353 . S
C128 O132 1.245 1_545 S
C128 O133 1.259 . S
C129 O134 1.250 . S
C129 O135 1.263 . S
O130 Tb122 2.427 . S
O130 C126 1.275 . S
O131 Tb122 2.513 . S
O131 C126 1.246 . S
O132 Tb122 2.453 1_565 S
O132 C128 1.245 1_565 S
O133 Tb120 2.343 . S
O133 Tb122 2.596 . S
O133 C128 1.259 . S
O134 Tb122 2.374 . S
O134 C129 1.250 . S
O135 Tb120 2.353 . S
O135 C129 1.263 . S
C136 O137 1.275 . S
C136 O138 1.246 . S
O137 Tb120 2.427 . S
O137 C136 1.275 . S
O138 Tb120 2.513 . S
O138 C136 1.246 . S
C139 O123 1.245 . S
C139 O124 1.259 . S
Tb140 O143 2.453 1_455 S
Tb140 O144 2.596 . S
Tb140 O145 2.374 . S
Tb140 O153 2.343 . S
Tb140 O155 2.353 . S
Tb140 O157 2.427 . S
Tb140 O158 2.513 . S
C141 O145 1.251 . S
C141 O147 1.263 . S
Tb142 O144 2.343 . S
Tb142 O147 2.353 . S
Tb142 O150 2.427 . S
Tb142 O151 2.513 . S
Tb142 O152 2.453 . S
Tb142 O153 2.596 . S
Tb142 O154 2.374 . S
O143 Tb140 2.453 1_655 S
O143 C159 1.245 1_655 S
O144 Tb140 2.596 . S
O144 Tb142 2.343 . S
O144 C159 1.259 . S
O145 Tb140 2.374 . S
O145 C141 1.251 . S
C146 O150 1.275 . S
C146 O151 1.246 . S
O147 C141 1.263 . S
O147 Tb142 2.353 . S
C148 O152 1.245 . S
C148 O153 1.259 . S
C149 O154 1.250 . S
C149 O155 1.263 . S
O150 Tb142 2.427 . S
O150 C146 1.275 . S
O151 Tb142 2.513 . S
O151 C146 1.246 . S
O152 Tb142 2.453 . S
O152 C148 1.245 . S
O153 Tb140 2.343 . S
O153 Tb142 2.596 . S
O153 C148 1.259 . S
O154 Tb142 2.374 . S
O154 C149 1.250 . S
O155 Tb140 2.353 . S
O155 C149 1.263 . S
C156 O157 1.275 . S
C156 O158 1.246 . S
O157 Tb140 2.427 . S
O157 C156 1.275 . S
O158 Tb140 2.513 . S
O158 C156 1.246 . S
C159 O143 1.245 1_455 S
C159 O144 1.259 . S
Tb160 O163 2.453 . S
Tb160 O164 2.596 . S
Tb160 O165 2.374 . S
Tb160 O173 2.343 . S
Tb160 O175 2.353 . S
Tb160 O177 2.427 . S
Tb160 O178 2.513 . S
C161 O165 1.251 . S
C161 O167 1.263 . S
Tb162 O164 2.343 . S
Tb162 O167 2.353 . S
Tb162 O170 2.427 . S
Tb162 O171 2.513 . S
Tb162 O172 2.453 . S
Tb162 O173 2.596 . S
Tb162 O174 2.374 . S
O163 Tb160 2.453 . S
O163 C179 1.245 . S
O164 Tb160 2.596 . S
O164 Tb162 2.343 . S
O164 C179 1.259 . S
O165 Tb160 2.374 . S
O165 C161 1.251 . S
C166 O170 1.275 . S
C166 O171 1.246 . S
O167 C161 1.263 . S
O167 Tb162 2.353 . S
C168 O172 1.245 . S
C168 O173 1.259 . S
C169 O174 1.250 . S
C169 O175 1.263 . S
O170 Tb162 2.427 . S
O170 C166 1.275 . S
O171 Tb162 2.513 . S
O171 C166 1.246 . S
O172 Tb162 2.453 . S
O172 C168 1.245 . S
O173 Tb160 2.343 . S
O173 Tb162 2.596 . S
O173 C168 1.259 . S
O174 Tb162 2.374 . S
O174 C169 1.250 . S
O175 Tb160 2.353 . S
O175 C169 1.263 . S
C176 O177 1.275 . S
C176 O178 1.246 . S
O177 Tb160 2.427 . S
O177 C176 1.275 . S
O178 Tb160 2.513 . S
O178 C176 1.246 . S
C179 O163 1.245 . S
C179 O164 1.259 . S
Tb180 O183 2.453 . S
Tb180 O184 2.596 . S
Tb180 O185 2.374 . S
Tb180 O193 2.343 . S
Tb180 O195 2.353 1_545 S
Tb180 O197 2.427 . S
Tb180 O198 2.513 . S
C181 O185 1.251 . S
C181 O187 1.263 . S
Tb182 O184 2.343 . S
Tb182 O187 2.353 . S
Tb182 O190 2.427 . S
Tb182 O191 2.513 1_545 S
Tb182 O192 2.453 1_445 S
Tb182 O193 2.596 . S
Tb182 O194 2.374 1_545 S
O183 Tb180 2.453 . S
O183 C199 1.245 . S
O184 Tb180 2.596 . S
O184 Tb182 2.343 . S
O184 C199 1.259 . S
O185 Tb180 2.374 . S
O185 C181 1.251 . S
C186 O190 1.275 . S
C186 O191 1.246 1_545 S
O187 C181 1.263 . S
O187 Tb182 2.353 . S
C188 O192 1.245 1_455 S
C188 O193 1.259 1_565 S
C189 O194 1.250 . S
C189 O195 1.263 . S
O190 Tb182 2.427 . S
O190 C186 1.275 . S
O191 Tb182 2.513 1_565 S
O191 C186 1.246 1_565 S
O192 Tb182 2.453 1_665 S
O192 C188 1.245 1_655 S
O193 Tb180 2.343 . S
O193 Tb182 2.596 . S
O193 C188 1.259 1_545 S
O194 Tb182 2.374 1_565 S
O194 C189 1.250 . S
O195 Tb180 2.353 1_565 S
O195 C189 1.263 . S
C196 O197 1.275 . S
C196 O198 1.246 . S
O197 Tb180 2.427 . S
O197 C196 1.275 . S
O198 Tb180 2.513 . S
O198 C196 1.246 . S
C199 O183 1.245 . S
C199 O184 1.259 . S
Tb200 O203 2.453 . S
Tb200 O204 2.596 . S
Tb200 O205 2.374 . S
Tb200 O213 2.343 . S
Tb200 O215 2.353 . S
Tb200 O217 2.427 . S
Tb200 O218 2.513 . S
C201 O205 1.251 . S
C201 O207 1.263 . S
Tb202 O204 2.343 . S
Tb202 O207 2.353 . S
Tb202 O210 2.427 . S
Tb202 O211 2.513 . S
Tb202 O212 2.453 . S
Tb202 O213 2.596 . S
Tb202 O214 2.374 . S
O203 Tb200 2.453 . S
O203 C219 1.245 . S
O204 Tb200 2.596 . S
O204 Tb202 2.343 . S
O204 C219 1.259 . S
O205 Tb200 2.374 . S
O205 C201 1.251 . S
C206 O210 1.275 1_556 S
C206 O211 1.246 1_556 S
O207 C201 1.263 . S
O207 Tb202 2.353 . S
C208 O212 1.245 . S
C208 O213 1.259 . S
C209 O214 1.250 . S
C209 O215 1.263 . S
O210 Tb202 2.427 . S
O210 C206 1.275 1_554 S
O211 Tb202 2.513 . S
O211 C206 1.246 1_554 S
O212 Tb202 2.453 . S
O212 C208 1.245 . S
O213 Tb200 2.343 . S
O213 Tb202 2.596 . S
O213 C208 1.259 . S
O214 Tb202 2.374 . S
O214 C209 1.250 . S
O215 Tb200 2.353 . S
O215 C209 1.263 . S
C216 O217 1.275 . S
C216 O218 1.246 . S
O217 Tb200 2.427 . S
O217 C216 1.275 . S
O218 Tb200 2.513 . S
O218 C216 1.246 . S
C219 O203 1.245 . S
C219 O204 1.259 . S
Tb220 O223 2.453 . S
Tb220 O224 2.596 . S
Tb220 O225 2.374 . S
Tb220 O233 2.343 . S
Tb220 O235 2.353 1_565 S
Tb220 O237 2.427 . S
Tb220 O238 2.513 . S
C221 O225 1.251 . S
C221 O227 1.263 . S
Tb222 O224 2.343 . S
Tb222 O227 2.353 . S
Tb222 O230 2.427 . S
Tb222 O231 2.513 1_565 S
Tb222 O232 2.453 1_565 S
Tb222 O233 2.596 . S
Tb222 O234 2.374 1_565 S
O223 Tb220 2.453 . S
O223 C239 1.245 . S
O224 Tb220 2.596 . S
O224 Tb222 2.343 . S
O224 C239 1.259 . S
O225 Tb220 2.374 . S
O225 C221 1.251 . S
C226 O230 1.275 . S
C226 O231 1.246 1_565 S
O227 C221 1.263 . S
O227 Tb222 2.353 . S
C228 O232 1.245 . S
C228 O233 1.259 1_545 S
C229 O234 1.250 . S
C229 O235 1.263 . S
O230 Tb222 2.427 . S
O230 C226 1.275 . S
O231 Tb222 2.513 1_545 S
O231 C226 1.246 1_545 S
O232 Tb222 2.453 1_545 S
O232 C228 1.245 . S
O233 Tb220 2.343 . S
O233 Tb222 2.596 . S
O233 C228 1.259 1_565 S
O234 Tb222 2.374 1_545 S
O234 C229 1.250 . S
O235 Tb220 2.353 1_545 S
O235 C229 1.263 . S
C236 O237 1.275 . S
C236 O238 1.246 . S
O237 Tb220 2.427 . S
O237 C236 1.275 . S
O238 Tb220 2.513 . S
O238 C236 1.246 . S
C239 O223 1.245 . S
C239 O224 1.259 . S
Tb240 O243 2.453 . S
Tb240 O244 2.596 . S
Tb240 O245 2.374 . S
Tb240 O253 2.343 . S
Tb240 O255 2.353 . S
Tb240 O257 2.427 . S
Tb240 O258 2.513 . S
C241 O245 1.251 . S
C241 O247 1.263 . S
Tb242 O244 2.343 . S
Tb242 O247 2.353 . S
Tb242 O250 2.427 . S
Tb242 O251 2.513 . S
Tb242 O252 2.453 . S
Tb242 O253 2.596 . S
Tb242 O254 2.374 . S
O243 Tb240 2.453 . S
O243 C259 1.245 . S
O244 Tb240 2.596 . S
O244 Tb242 2.343 . S
O244 C259 1.259 . S
O245 Tb240 2.374 . S
O245 C241 1.251 . S
C246 O250 1.275 . S
C246 O251 1.246 . S
O247 C241 1.263 . S
O247 Tb242 2.353 . S
C248 O252 1.245 . S
C248 O253 1.259 . S
C249 O254 1.250 . S
C249 O255 1.263 . S
O250 Tb242 2.427 . S
O250 C246 1.275 . S
O251 Tb242 2.513 . S
O251 C246 1.246 . S
O252 Tb242 2.453 . S
O252 C248 1.245 . S
O253 Tb240 2.343 . S
O253 Tb242 2.596 . S
O253 C248 1.259 . S
O254 Tb242 2.374 . S
O254 C249 1.250 . S
O255 Tb240 2.353 . S
O255 C249 1.263 . S
C256 O257 1.275 . S
C256 O258 1.246 . S
O257 Tb240 2.427 . S
O257 C256 1.275 . S
O258 Tb240 2.513 . S
O258 C256 1.246 . S
C259 O243 1.245 . S
C259 O244 1.259 . S
Tb260 O263 2.453 1_665 S
Tb260 O264 2.596 . S
Tb260 O265 2.374 1_565 S
Tb260 O273 2.343 . S
Tb260 O275 2.353 . S
Tb260 O277 2.427 . S
Tb260 O278 2.513 1_565 S
C261 O265 1.251 . S
C261 O267 1.263 . S
Tb262 O264 2.343 . S
Tb262 O267 2.353 1_565 S
Tb262 O270 2.427 . S
Tb262 O271 2.513 . S
Tb262 O272 2.453 . S
Tb262 O273 2.596 . S
Tb262 O274 2.374 . S
O263 Tb260 2.453 1_445 S
O263 C279 1.245 1_455 S
O264 Tb260 2.596 . S
O264 Tb262 2.343 . S
O264 C279 1.259 1_565 S
O265 Tb260 2.374 1_545 S
O265 C261 1.251 . S
C266 O270 1.275 . S
C266 O271 1.246 . S
O267 C261 1.263 . S
O267 Tb262 2.353 1_545 S
C268 O272 1.245 . S
C268 O273 1.259 . S
C269 O274 1.250 . S
C269 O275 1.263 . S
O270 Tb262 2.427 . S
O270 C266 1.275 . S
O271 Tb262 2.513 . S
O271 C266 1.246 . S
O272 Tb262 2.453 . S
O272 C268 1.245 . S
O273 Tb260 2.343 . S
O273 Tb262 2.596 . S
O273 C268 1.259 . S
O274 Tb262 2.374 . S
O274 C269 1.250 . S
O275 Tb260 2.353 . S
O275 C269 1.263 . S
C276 O277 1.275 . S
C276 O278 1.246 1_565 S
O277 Tb260 2.427 . S
O277 C276 1.275 . S
O278 Tb260 2.513 1_545 S
O278 C276 1.246 1_545 S
C279 O263 1.245 1_655 S
C279 O264 1.259 1_545 S
Tb280 O283 2.453 . S
Tb280 O284 2.596 . S
Tb280 O285 2.374 . S
Tb280 O293 2.343 . S
Tb280 O295 2.353 . S
Tb280 O297 2.427 . S
Tb280 O298 2.513 . S
C281 O285 1.251 . S
C281 O287 1.263 . S
Tb282 O284 2.343 . S
Tb282 O287 2.353 . S
Tb282 O290 2.427 . S
Tb282 O291 2.513 . S
Tb282 O292 2.453 . S
Tb282 O293 2.596 . S
Tb282 O294 2.374 . S
O283 Tb280 2.453 . S
O283 C299 1.245 . S
O284 Tb280 2.596 . S
O284 Tb282 2.343 . S
O284 C299 1.259 . S
O285 Tb280 2.374 . S
O285 C281 1.251 . S
C286 O290 1.275 . S
C286 O291 1.246 . S
O287 C281 1.263 . S
O287 Tb282 2.353 . S
C288 O292 1.245 . S
C288 O293 1.259 . S
C289 O294 1.250 . S
C289 O295 1.263 . S
O290 Tb282 2.427 . S
O290 C286 1.275 . S
O291 Tb282 2.513 . S
O291 C286 1.246 . S
O292 Tb282 2.453 . S
O292 C288 1.245 . S
O293 Tb280 2.343 . S
O293 Tb282 2.596 . S
O293 C288 1.259 . S
O294 Tb282 2.374 . S
O294 C289 1.250 . S
O295 Tb280 2.353 . S
O295 C289 1.263 . S
C296 O297 1.275 1_554 S
C296 O298 1.246 1_554 S
O297 Tb280 2.427 . S
O297 C296 1.275 1_556 S
O298 Tb280 2.513 . S
O298 C296 1.246 1_556 S
C299 O283 1.245 . S
C299 O284 1.259 . S
Tb300 O303 2.453 1_545 S
Tb300 O304 2.596 . S
Tb300 O305 2.374 1_545 S
Tb300 O313 2.343 . S
Tb300 O315 2.353 . S
Tb300 O317 2.427 . S
Tb300 O318 2.513 1_545 S
C301 O305 1.251 . S
C301 O307 1.263 . S
Tb302 O304 2.343 . S
Tb302 O307 2.353 1_545 S
Tb302 O310 2.427 . S
Tb302 O311 2.513 . S
Tb302 O312 2.453 . S
Tb302 O313 2.596 . S
Tb302 O314 2.374 . S
O303 Tb300 2.453 1_565 S
O303 C319 1.245 . S
O304 Tb300 2.596 . S
O304 Tb302 2.343 . S
O304 C319 1.259 1_545 S
O305 Tb300 2.374 1_565 S
O305 C301 1.251 . S
C306 O310 1.275 . S
C306 O311 1.246 . S
O307 C301 1.263 . S
O307 Tb302 2.353 1_565 S
C308 O312 1.245 . S
C308 O313 1.259 . S
C309 O314 1.250 . S
C309 O315 1.263 . S
O310 Tb302 2.427 . S
O310 C306 1.275 . S
O311 Tb302 2.513 . S
O311 C306 1.246 . S
O312 Tb302 2.453 . S
O312 C308 1.245 . S
O313 Tb300 2.343 . S
O313 Tb302 2.596 . S
O313 C308 1.259 . S
O314 Tb302 2.374 . S
O314 C309 1.250 . S
O315 Tb300 2.353 . S
O315 C309 1.263 . S
C316 O317 1.275 . S
C316 O318 1.246 1_545 S
O317 Tb300 2.427 . S
O317 C316 1.275 . S
O318 Tb300 2.513 1_565 S
O318 C316 1.246 1_565 S
C319 O303 1.245 . S
C319 O304 1.259 1_565 S
C320 C321 1.369 . S
C320 C322 1.419 . S
C320 H324 0.930 . S
C321 C320 1.369 . S
C321 C330 1.429 . S
C322 C320 1.419 . S
C322 C323 1.363 . S
C322 H325 0.929 . S
C323 C322 1.363 . S
C323 C329 1.428 . S
H324 C320 0.930 . S
H325 C322 0.929 . S
S326 N327 1.613 . S
S326 N328 1.610 . S
N327 S326 1.613 . S
N327 C330 1.350 . S
N328 S326 1.610 . S
N328 C329 1.351 . S
C329 C323 1.428 . S
C329 N328 1.351 . S
C329 C330 1.434 . S
C330 C321 1.429 . S
C330 N327 1.350 . S
C330 C329 1.434 . S
C331 C332 1.369 . S
C331 C333 1.419 . S
C331 H335 0.930 . S
C332 C331 1.369 . S
C332 C341 1.429 . S
C333 C331 1.419 . S
C333 C334 1.363 . S
C333 H336 0.929 . S
C334 C333 1.363 . S
C334 C340 1.428 . S
H335 C331 0.930 . S
H336 C333 0.929 . S
S337 N338 1.613 . S
S337 N339 1.610 . S
N338 S337 1.613 . S
N338 C341 1.350 . S
N339 S337 1.610 . S
N339 C340 1.351 . S
C340 C334 1.428 . S
C340 N339 1.351 . S
C340 C341 1.434 . S
C341 C332 1.429 . S
C341 N338 1.350 . S
C341 C340 1.434 . S
C342 C343 1.369 1_655 S
C342 C344 1.419 . S
C342 H346 0.930 . S
C343 C342 1.369 1_455 S
C343 C352 1.429 . S
C344 C342 1.419 . S
C344 C345 1.363 . S
C344 H347 0.929 . S
C345 C344 1.363 . S
C345 C351 1.428 1_655 S
H346 C342 0.930 . S
H347 C344 0.929 . S
S348 N349 1.613 . S
S348 N350 1.610 . S
N349 S348 1.613 . S
N349 C352 1.350 . S
N350 S348 1.610 . S
N350 C351 1.351 . S
C351 C345 1.428 1_455 S
C351 N350 1.351 . S
C351 C352 1.434 . S
C352 C343 1.429 . S
C352 N349 1.350 . S
C352 C351 1.434 . S
C353 C354 1.369 1_655 S
C353 C355 1.419 . S
C353 H357 0.930 . S
C354 C353 1.369 1_455 S
C354 C363 1.429 . S
C355 C353 1.419 . S
C355 C356 1.363 . S
C355 H358 0.929 . S
C356 C355 1.363 . S
C356 C362 1.428 1_655 S
H357 C353 0.930 . S
H358 C355 0.929 . S
S359 N360 1.613 . S
S359 N361 1.610 . S
N360 S359 1.613 . S
N360 C363 1.350 . S
N361 S359 1.610 . S
N361 C362 1.351 . S
C362 C356 1.428 1_455 S
C362 N361 1.351 . S
C362 C363 1.434 . S
C363 C354 1.429 . S
C363 N360 1.350 . S
C363 C362 1.434 . S
C364 C365 1.369 . S
C364 C366 1.419 . S
C364 H368 0.930 . S
C365 C364 1.369 . S
C365 C374 1.429 . S
C366 C364 1.419 . S
C366 C367 1.363 . S
C366 H369 0.929 . S
C367 C366 1.363 . S
C367 C373 1.428 . S
H368 C364 0.930 . S
H369 C366 0.929 . S
S370 N371 1.613 . S
S370 N372 1.610 . S
N371 S370 1.613 . S
N371 C374 1.350 . S
N372 S370 1.610 . S
N372 C373 1.351 . S
C373 C367 1.428 . S
C373 N372 1.351 . S
C373 C374 1.434 . S
C374 C365 1.429 . S
C374 N371 1.350 . S
C374 C373 1.434 . S
C375 C376 1.369 . S
C375 C377 1.419 . S
C375 H379 0.930 . S
C376 C375 1.369 . S
C376 C385 1.429 . S
C377 C375 1.419 . S
C377 C378 1.363 . S
C377 H380 0.929 . S
C378 C377 1.363 . S
C378 C384 1.428 . S
H379 C375 0.930 . S
H380 C377 0.929 . S
S381 N382 1.613 . S
S381 N383 1.610 . S
N382 S381 1.613 . S
N382 C385 1.350 . S
N383 S381 1.610 . S
N383 C384 1.351 . S
C384 C378 1.428 . S
C384 N383 1.351 . S
C384 C385 1.434 . S
C385 C376 1.429 . S
C385 N382 1.350 . S
C385 C384 1.434 . S
C386 C387 1.369 . S
C386 C388 1.419 . S
C386 H390 0.930 . S
C387 C386 1.369 . S
C387 C396 1.429 1_455 S
C388 C386 1.419 . S
C388 C389 1.363 1_455 S
C388 H391 0.929 . S
C389 C388 1.363 1_655 S
C389 C395 1.428 . S
H390 C386 0.930 . S
H391 C388 0.929 . S
S392 N393 1.613 . S
S392 N394 1.610 . S
N393 S392 1.613 . S
N393 C396 1.350 . S
N394 S392 1.610 . S
N394 C395 1.351 . S
C395 C389 1.428 . S
C395 N394 1.351 . S
C395 C396 1.434 . S
C396 C387 1.429 1_655 S
C396 N393 1.350 . S
C396 C395 1.434 . S
C397 C398 1.369 . S
C397 C399 1.419 . S
C397 H401 0.930 . S
C398 C397 1.369 . S
C398 C407 1.429 1_455 S
C399 C397 1.419 . S
C399 C400 1.363 1_455 S
C399 H402 0.929 . S
C400 C399 1.363 1_655 S
C400 C406 1.428 . S
H401 C397 0.930 . S
H402 C399 0.929 . S
S403 N404 1.613 . S
S403 N405 1.610 . S
N404 S403 1.613 . S
N404 C407 1.350 . S
N405 S403 1.610 . S
N405 C406 1.351 . S
C406 C400 1.428 . S
C406 N405 1.351 . S
C406 C407 1.434 . S
C407 C398 1.429 1_655 S
C407 N404 1.350 . S
C407 C406 1.434 . S
C408 C409 1.369 1_556 S
C408 C410 1.419 . S
C408 H412 0.930 . S
C409 C408 1.369 1_554 S
C409 C418 1.429 1_545 S
C410 C408 1.419 . S
C410 C411 1.363 1_545 S
C410 H413 0.929 . S
C411 C410 1.363 1_565 S
C411 C417 1.428 1_556 S
H412 C408 0.930 . S
H413 C410 0.929 . S
S414 N415 1.613 . S
S414 N416 1.610 . S
N415 S414 1.613 . S
N415 C418 1.350 . S
N416 S414 1.610 . S
N416 C417 1.351 . S
C417 C411 1.428 1_554 S
C417 N416 1.351 . S
C417 C418 1.434 . S
C418 C409 1.429 1_565 S
C418 N415 1.350 . S
C418 C417 1.434 . S
C419 C420 1.369 . S
C419 C421 1.419 . S
C419 H423 0.930 . S
C420 C419 1.369 . S
C420 C429 1.429 . S
C421 C419 1.419 . S
C421 C422 1.363 . S
C421 H424 0.929 . S
C422 C421 1.363 . S
C422 C428 1.428 . S
H423 C419 0.930 . S
H424 C421 0.929 . S
S425 N426 1.613 . S
S425 N427 1.610 . S
N426 S425 1.613 . S
N426 C429 1.350 . S
N427 S425 1.610 . S
N427 C428 1.351 . S
C428 C422 1.428 . S
C428 N427 1.351 . S
C428 C429 1.434 . S
C429 C420 1.429 . S
C429 N426 1.350 . S
C429 C428 1.434 . S
C430 C431 1.369 1_545 S
C430 C432 1.419 1_455 S
C430 H434 0.930 . S
C431 C430 1.369 1_565 S
C431 C440 1.440 . S
C432 C430 1.419 1_655 S
C432 C433 1.363 . S
C432 H435 0.929 . S
C433 C432 1.363 . S
C433 C439 1.428 1_545 S
H434 C430 0.930 . S
H435 C432 0.929 . S
S436 N437 1.613 . S
S436 N438 1.610 . S
N437 S436 1.613 . S
N437 C440 1.349 1_655 S
N438 S436 1.610 . S
N438 C439 1.351 . S
C439 C433 1.428 1_565 S
C439 N438 1.351 . S
C439 C440 1.422 1_655 S
C440 C431 1.440 . S
C440 N437 1.349 1_455 S
C440 C439 1.422 1_455 S
C441 C442 1.369 . S
C441 C443 1.419 . S
C441 H445 0.930 . S
C442 C441 1.369 . S
C442 C451 1.429 . S
C443 C441 1.419 . S
C443 C444 1.363 . S
C443 H446 0.929 . S
C444 C443 1.363 . S
C444 C450 1.428 . S
H445 C441 0.930 . S
H446 C443 0.929 . S
S447 N448 1.613 . S
S447 N449 1.610 . S
N448 S447 1.613 . S
N448 C451 1.350 . S
N449 S447 1.610 . S
N449 C450 1.351 . S
C450 C444 1.428 . S
C450 N449 1.351 . S
C450 C451 1.434 . S
C451 C442 1.429 . S
C451 N448 1.350 . S
C451 C450 1.434 . S
C452 C453 1.369 . S
C452 C454 1.419 . S
C452 H456 0.930 . S
C453 C452 1.369 . S
C453 C462 1.429 . S
C454 C452 1.419 . S
C454 C455 1.363 . S
C454 H457 0.929 . S
C455 C454 1.363 . S
C455 C461 1.428 . S
H456 C452 0.930 . S
H457 C454 0.929 . S
S458 N459 1.613 . S
S458 N460 1.610 . S
N459 S458 1.613 . S
N459 C462 1.350 . S
N460 S458 1.610 . S
N460 C461 1.351 . S
C461 C455 1.428 . S
C461 N460 1.351 . S
C461 C462 1.434 . S
C462 C453 1.429 . S
C462 N459 1.350 . S
C462 C461 1.434 . S
C463 C464 1.369 . S
C463 C465 1.419 . S
C463 H467 0.930 . S
C464 C463 1.369 . S
C464 C473 1.429 . S
C465 C463 1.419 . S
C465 C466 1.363 . S
C465 H468 0.929 . S
C466 C465 1.363 . S
C466 C472 1.428 . S
H467 C463 0.930 . S
H468 C465 0.929 . S
S469 N470 1.613 . S
S469 N471 1.610 . S
N470 S469 1.613 . S
N470 C473 1.350 . S
N471 S469 1.610 . S
N471 C472 1.351 . S
C472 C466 1.428 . S
C472 N471 1.351 . S
C472 C473 1.434 . S
C473 C464 1.429 . S
C473 N470 1.350 . S
C473 C472 1.434 . S
C474 C475 1.369 . S
C474 C476 1.419 . S
C474 H478 0.930 . S
C475 C474 1.369 . S
C475 C484 1.429 1_455 S
C476 C474 1.419 . S
C476 C477 1.363 1_455 S
C476 H479 0.929 . S
C477 C476 1.363 1_655 S
C477 C483 1.428 . S
H478 C474 0.930 . S
H479 C476 0.929 . S
S480 N481 1.613 . S
S480 N482 1.610 . S
N481 S480 1.613 . S
N481 C484 1.350 . S
N482 S480 1.610 . S
N482 C483 1.351 . S
C483 C477 1.428 . S
C483 N482 1.351 . S
C483 C484 1.434 . S
C484 C475 1.429 1_655 S
C484 N481 1.350 . S
C484 C483 1.434 . S
C485 C486 1.369 . S
C485 C487 1.419 . S
C485 H489 0.930 . S
C486 C485 1.369 . S
C486 C495 1.429 1_554 S
C487 C485 1.419 . S
C487 C488 1.363 1_554 S
C487 H490 0.929 . S
C488 C487 1.363 1_556 S
C488 C494 1.428 . S
H489 C485 0.930 . S
H490 C487 0.929 . S
S491 N492 1.613 . S
S491 N493 1.610 . S
N492 S491 1.613 . S
N492 C495 1.350 . S
N493 S491 1.610 . S
N493 C494 1.351 . S
C494 C488 1.428 . S
C494 N493 1.351 . S
C494 C495 1.434 . S
C495 C486 1.429 1_556 S
C495 N492 1.350 . S
C495 C494 1.434 . S
C496 C497 1.369 . S
C496 C498 1.419 . S
C496 H500 0.930 . S
C497 C496 1.369 . S
C497 C506 1.429 . S
C498 C496 1.419 . S
C498 C499 1.363 . S
C498 H501 0.929 . S
C499 C498 1.363 . S
C499 C505 1.428 . S
H500 C496 0.930 . S
H501 C498 0.929 . S
S502 N503 1.613 . S
S502 N504 1.610 . S
N503 S502 1.613 . S
N503 C506 1.350 . S
N504 S502 1.610 . S
N504 C505 1.351 . S
C505 C499 1.428 . S
C505 N504 1.351 . S
C505 C506 1.434 . S
C506 C497 1.429 . S
C506 N503 1.350 . S
C506 C505 1.434 . S
C507 C508 1.369 . S
C507 C509 1.419 . S
C507 H511 0.930 . S
C508 C507 1.369 . S
C508 C517 1.429 . S
C509 C507 1.419 . S
C509 C510 1.363 . S
C509 H512 0.929 . S
C510 C509 1.363 . S
C510 C516 1.428 . S
H511 C507 0.930 . S
H512 C509 0.929 . S
S513 N514 1.613 . S
S513 N515 1.610 . S
N514 S513 1.613 . S
N514 C517 1.350 . S
N515 S513 1.610 . S
N515 C516 1.351 . S
C516 C510 1.428 . S
C516 N515 1.351 . S
C516 C517 1.434 . S
C517 C508 1.429 . S
C517 N514 1.350 . S
C517 C516 1.434 . S
C518 C519 1.369 . S
C518 C520 1.419 . S
C518 H522 0.930 . S
C519 C518 1.369 . S
C519 C528 1.429 . S
C520 C518 1.419 . S
C520 C521 1.363 . S
C520 H523 0.929 . S
C521 C520 1.363 . S
C521 C527 1.428 . S
H522 C518 0.930 . S
H523 C520 0.929 . S
S524 N525 1.613 . S
S524 N526 1.610 . S
N525 S524 1.613 . S
N525 C528 1.350 . S
N526 S524 1.610 . S
N526 C527 1.351 . S
C527 C521 1.428 . S
C527 N526 1.351 . S
C527 C528 1.434 . S
C528 C519 1.429 . S
C528 N525 1.350 . S
C528 C527 1.434 . S
C529 C530 1.379 . S
C529 C531 1.419 . S
C529 H533 0.930 . S
C530 C529 1.379 . S
C530 C539 1.428 1_455 S
C531 C529 1.419 . S
C531 C532 1.363 . S
C531 H534 0.929 . S
C532 C531 1.363 . S
C532 C538 1.428 . S
H533 C529 0.930 . S
H534 C531 0.929 . S
S535 N536 1.613 . S
S535 N537 1.610 1_655 S
N536 S535 1.613 . S
N536 C539 1.350 . S
N537 S535 1.610 1_455 S
N537 C538 1.351 . S
C538 C532 1.428 . S
C538 N537 1.351 . S
C538 C539 1.434 1_455 S
C539 C530 1.428 1_655 S
C539 N536 1.350 . S
C539 C538 1.434 1_655 S
C540 C541 1.369 . S
C540 C542 1.419 . S
C540 H544 0.930 . S
C541 C540 1.369 . S
C541 C550 1.429 . S
C542 C540 1.419 . S
C542 C543 1.363 . S
C542 H545 0.929 . S
C543 C542 1.363 . S
C543 C549 1.428 . S
H544 C540 0.930 . S
H545 C542 0.929 . S
S546 N547 1.613 . S
S546 N548 1.610 . S
N547 S546 1.613 . S
N547 C550 1.350 . S
N548 S546 1.610 . S
N548 C549 1.351 . S
C549 C543 1.428 . S
C549 N548 1.351 . S
C549 C550 1.434 . S
C550 C541 1.429 . S
C550 N547 1.350 . S
C550 C549 1.434 . S
C551 C552 1.369 . S
C551 C553 1.419 . S
C551 H555 0.930 . S
C552 C551 1.369 . S
C552 C561 1.429 . S
C553 C551 1.419 . S
C553 C554 1.363 . S
C553 H556 0.929 . S
C554 C553 1.363 . S
C554 C560 1.428 . S
H555 C551 0.930 . S
H556 C553 0.929 . S
S557 N558 1.613 . S
S557 N559 1.610 . S
N558 S557 1.613 . S
N558 C561 1.350 . S
N559 S557 1.610 . S
N559 C560 1.351 . S
C560 C554 1.428 . S
C560 N559 1.351 . S
C560 C561 1.434 . S
C561 C552 1.429 . S
C561 N558 1.350 . S
C561 C560 1.434 . S
C562 C563 1.369 . S
C562 C564 1.419 . S
C562 H566 0.930 . S
C563 C562 1.369 . S
C563 C572 1.429 . S
C564 C562 1.419 . S
C564 C565 1.363 . S
C564 H567 0.929 . S
C565 C564 1.363 . S
C565 C571 1.428 . S
H566 C562 0.930 . S
H567 C564 0.929 . S
S568 N569 1.613 . S
S568 N570 1.610 . S
N569 S568 1.613 . S
N569 C572 1.350 . S
N570 S568 1.610 . S
N570 C571 1.351 . S
C571 C565 1.428 . S
C571 N570 1.351 . S
C571 C572 1.434 . S
C572 C563 1.429 . S
C572 N569 1.350 . S
C572 C571 1.434 . S
C573 C574 1.369 . S
C573 C575 1.419 . S
C573 H577 0.930 . S
C574 C573 1.369 . S
C574 C583 1.429 . S
C575 C573 1.419 . S
C575 C576 1.363 . S
C575 H578 0.929 1_655 S
C576 C575 1.363 . S
C576 C582 1.428 . S
H577 C573 0.930 . S
H578 C575 0.929 1_455 S
S579 N580 1.613 . S
S579 N581 1.610 . S
N580 S579 1.613 . S
N580 C583 1.350 . S
N581 S579 1.610 . S
N581 C582 1.351 . S
C582 C576 1.428 . S
C582 N581 1.351 . S
C582 C583 1.434 . S
C583 C574 1.429 . S
C583 N580 1.350 . S
C583 C582 1.434 . S
C584 C585 1.369 . S
C584 C586 1.419 . S
C584 H588 0.930 . S
C585 C584 1.369 . S
C585 C594 1.429 . S
C586 C584 1.419 . S
C586 C587 1.363 . S
C586 H589 0.929 . S
C587 C586 1.363 . S
C587 C593 1.428 . S
H588 C584 0.930 . S
H589 C586 0.929 . S
S590 N591 1.613 . S
S590 N592 1.610 . S
N591 S590 1.613 . S
N591 C594 1.350 . S
N592 S590 1.610 . S
N592 C593 1.351 . S
C593 C587 1.428 . S
C593 N592 1.351 . S
C593 C594 1.434 . S
C594 C585 1.429 . S
C594 N591 1.350 . S
C594 C593 1.434 . S
C595 C596 1.369 . S
C595 C597 1.419 1_655 S
C595 H599 0.930 . S
C596 C595 1.369 . S
C596 C605 1.429 . S
C597 C595 1.419 1_455 S
C597 C598 1.363 1_455 S
C597 H600 0.929 . S
C598 C597 1.363 1_655 S
C598 C604 1.428 . S
H599 C595 0.930 . S
H600 C597 0.929 . S
S601 N602 1.613 . S
S601 N603 1.610 . S
N602 S601 1.613 . S
N602 C605 1.350 . S
N603 S601 1.610 . S
N603 C604 1.351 . S
C604 C598 1.428 . S
C604 N603 1.351 . S
C604 C605 1.434 . S
C605 C596 1.429 . S
C605 N602 1.350 . S
C605 C604 1.434 . S
C606 C607 1.369 . S
C606 C608 1.419 . S
C606 H610 0.930 . S
C607 C606 1.369 . S
C607 C616 1.429 . S
C608 C606 1.419 . S
C608 C609 1.363 . S
C608 H611 0.929 . S
C609 C608 1.363 . S
C609 C615 1.428 . S
H610 C606 0.930 . S
H611 C608 0.929 . S
S612 N613 1.613 . S
S612 N614 1.610 . S
N613 S612 1.613 . S
N613 C616 1.350 . S
N614 S612 1.610 . S
N614 C615 1.351 . S
C615 C609 1.428 . S
C615 N614 1.351 . S
C615 C616 1.434 . S
C616 C607 1.429 . S
C616 N613 1.350 . S
C616 C615 1.434 . S
C617 C618 1.369 1_565 S
C617 C619 1.419 . S
C617 H621 0.930 . S
C618 C617 1.369 1_545 S
C618 C627 1.429 . S
C619 C617 1.419 . S
C619 C620 1.363 1_565 S
C619 H622 0.929 . S
C620 C619 1.363 1_545 S
C620 C626 1.428 . S
H621 C617 0.930 . S
H622 C619 0.929 . S
S623 N624 1.613 . S
S623 N625 1.610 . S
N624 S623 1.613 . S
N624 C627 1.350 . S
N625 S623 1.610 . S
N625 C626 1.351 . S
C626 C620 1.428 . S
C626 N625 1.351 . S
C626 C627 1.434 . S
C627 C618 1.429 . S
C627 N624 1.350 . S
C627 C626 1.434 . S
C628 C629 1.369 . S
C628 C630 1.419 . S
C628 H632 0.930 . S
C629 C628 1.369 . S
C629 C638 1.429 . S
C630 C628 1.419 . S
C630 C631 1.363 . S
C630 H633 0.929 . S
C631 C630 1.363 . S
C631 C637 1.428 . S
H632 C628 0.930 . S
H633 C630 0.929 . S
S634 N635 1.613 . S
S634 N636 1.610 . S
N635 S634 1.613 . S
N635 C638 1.350 . S
N636 S634 1.610 . S
N636 C637 1.351 . S
C637 C631 1.428 . S
C637 N636 1.351 . S
C637 C638 1.434 . S
C638 C629 1.429 . S
C638 N635 1.350 . S
C638 C637 1.434 . S
C639 C640 1.369 . S
C639 C641 1.426 . S
C639 H643 0.922 1_455 S
C640 C639 1.369 . S
C640 C649 1.429 1_545 S
C641 C639 1.426 . S
C641 C642 1.363 . S
C641 H644 0.929 . S
C642 C641 1.363 . S
C642 C648 1.428 1_545 S
H643 C639 0.922 1_655 S
H644 C641 0.929 . S
S645 N646 1.613 . S
S645 N647 1.610 . S
N646 S645 1.613 . S
N646 C649 1.350 . S
N647 S645 1.610 . S
N647 C648 1.351 . S
C648 C642 1.428 1_565 S
C648 N647 1.351 . S
C648 C649 1.434 . S
C649 C640 1.429 1_565 S
C649 N646 1.350 . S
C649 C648 1.434 . S
C650 C651 1.369 . S
C650 C652 1.419 . S
C650 H654 0.930 . S
C651 C650 1.369 . S
C651 C660 1.429 . S
C652 C650 1.419 . S
C652 C653 1.363 . S
C652 H655 0.929 . S
C653 C652 1.363 . S
C653 C659 1.428 . S
H654 C650 0.930 . S
H655 C652 0.929 . S
S656 N657 1.613 . S
S656 N658 1.610 . S
N657 S656 1.613 . S
N657 C660 1.350 . S
N658 S656 1.610 . S
N658 C659 1.351 . S
C659 C653 1.428 . S
C659 N658 1.351 . S
C659 C660 1.434 . S
C660 C651 1.429 . S
C660 N657 1.350 . S
C660 C659 1.434 . S
C661 C662 1.369 . S
C661 C663 1.419 . S
C661 H665 0.930 . S
C662 C661 1.369 . S
C662 C671 1.429 1_565 S
C663 C661 1.419 . S
C663 C664 1.363 . S
C663 H666 0.929 . S
C664 C663 1.363 . S
C664 C670 1.428 . S
H665 C661 0.930 . S
H666 C663 0.929 . S
S667 N668 1.613 . S
S667 N669 1.610 . S
N668 S667 1.613 . S
N668 C671 1.350 . S
N669 S667 1.610 . S
N669 C670 1.351 1_545 S
C670 C664 1.428 . S
C670 N669 1.351 1_565 S
C670 C671 1.434 1_565 S
C671 C662 1.429 1_545 S
C671 N668 1.350 . S
C671 C670 1.434 1_545 S
C672 C673 1.369 . S
C672 C674 1.419 . S
C672 H676 0.930 . S
C673 C672 1.369 . S
C673 C682 1.429 . S
C674 C672 1.419 . S
C674 C675 1.363 . S
C674 H677 0.929 . S
C675 C674 1.363 . S
C675 C681 1.428 . S
H676 C672 0.930 . S
H677 C674 0.929 . S
S678 N679 1.613 . S
S678 N680 1.610 . S
N679 S678 1.613 . S
N679 C682 1.350 . S
N680 S678 1.610 . S
N680 C681 1.351 . S
C681 C675 1.428 . S
C681 N680 1.351 . S
C681 C682 1.434 . S
C682 C673 1.429 . S
C682 N679 1.350 . S
C682 C681 1.434 . S
C683 C684 1.369 . S
C683 C685 1.419 . S
C683 H687 0.930 . S
C684 C683 1.369 . S
C684 C693 1.429 . S
C685 C683 1.419 . S
C685 C686 1.363 . S
C685 H688 0.929 . S
C686 C685 1.363 . S
C686 C692 1.428 . S
H687 C683 0.930 . S
H688 C685 0.929 . S
S689 N690 1.613 . S
S689 N691 1.610 . S
N690 S689 1.613 . S
N690 C693 1.350 . S
N691 S689 1.610 . S
N691 C692 1.351 . S
C692 C686 1.428 . S
C692 N691 1.351 . S
C692 C693 1.434 . S
C693 C684 1.429 . S
C693 N690 1.350 . S
C693 C692 1.434 . S
C694 C695 1.369 . S
C694 C696 1.419 . S
C694 H698 0.930 . S
C695 C694 1.369 . S
C695 C704 1.429 . S
C696 C694 1.419 . S
C696 C697 1.363 . S
C696 H699 0.929 . S
C697 C696 1.363 . S
C697 C703 1.428 . S
H698 C694 0.930 . S
H699 C696 0.929 . S
S700 N701 1.613 . S
S700 N702 1.610 . S
N701 S700 1.613 . S
N701 C704 1.350 . S
N702 S700 1.610 . S
N702 C703 1.351 . S
C703 C697 1.428 . S
C703 N702 1.351 . S
C703 C704 1.434 . S
C704 C695 1.429 . S
C704 N701 1.350 . S
C704 C703 1.434 . S
C705 C706 1.369 . S
C705 C707 1.419 . S
C705 H709 0.930 . S
C706 C705 1.369 . S
C706 C715 1.429 . S
C707 C705 1.419 . S
C707 C708 1.363 . S
C707 H710 0.929 . S
C708 C707 1.363 . S
C708 C714 1.428 . S
H709 C705 0.930 . S
H710 C707 0.929 . S
S711 N712 1.613 . S
S711 N713 1.610 . S
N712 S711 1.613 . S
N712 C715 1.350 . S
N713 S711 1.610 . S
N713 C714 1.351 . S
C714 C708 1.428 . S
C714 N713 1.351 . S
C714 C715 1.434 . S
C715 C706 1.429 . S
C715 N712 1.350 . S
C715 C714 1.434 . S
C716 C717 1.369 . S
C716 C718 1.419 . S
C716 H720 0.930 . S
C717 C716 1.369 . S
C717 C726 1.429 . S
C718 C716 1.419 . S
C718 C719 1.363 . S
C718 H721 0.929 . S
C719 C718 1.363 . S
C719 C725 1.428 . S
H720 C716 0.930 . S
H721 C718 0.929 . S
S722 N723 1.613 . S
S722 N724 1.610 . S
N723 S722 1.613 . S
N723 C726 1.350 . S
N724 S722 1.610 . S
N724 C725 1.351 . S
C725 C719 1.428 . S
C725 N724 1.351 . S
C725 C726 1.434 . S
C726 C717 1.429 . S
C726 N723 1.350 . S
C726 C725 1.434 . S
C727 C728 1.369 . S
C727 C729 1.419 . S
C727 H731 0.930 . S
C728 C727 1.369 . S
C728 C737 1.429 . S
C729 C727 1.419 . S
C729 C730 1.363 . S
C729 H732 0.929 . S
C730 C729 1.363 . S
C730 C736 1.428 . S
H731 C727 0.930 . S
H732 C729 0.929 . S
S733 N734 1.613 . S
S733 N735 1.610 . S
N734 S733 1.613 . S
N734 C737 1.350 . S
N735 S733 1.610 . S
N735 C736 1.351 . S
C736 C730 1.428 . S
C736 N735 1.351 . S
C736 C737 1.434 . S
C737 C728 1.429 . S
C737 N734 1.350 . S
C737 C736 1.434 . S
C738 C739 1.369 . S
C738 C740 1.419 . S
C738 H742 0.930 . S
C739 C738 1.369 . S
C739 C748 1.429 . S
C740 C738 1.419 . S
C740 C741 1.363 . S
C740 H743 0.929 . S
C741 C740 1.363 . S
C741 C747 1.428 . S
H742 C738 0.930 . S
H743 C740 0.929 . S
S744 N745 1.613 . S
S744 N746 1.610 . S
N745 S744 1.613 . S
N745 C748 1.350 . S
N746 S744 1.610 . S
N746 C747 1.351 . S
C747 C741 1.428 . S
C747 N746 1.351 . S
C747 C748 1.434 . S
C748 C739 1.429 . S
C748 N745 1.350 . S
C748 C747 1.434 . S
C749 C750 1.369 . S
C749 C751 1.419 . S
C749 H753 0.930 . S
C750 C749 1.369 . S
C750 C759 1.429 . S
C751 C749 1.419 . S
C751 C752 1.363 . S
C751 H754 0.929 . S
C752 C751 1.363 . S
C752 C758 1.428 . S
H753 C749 0.930 . S
H754 C751 0.929 . S
S755 N756 1.613 . S
S755 N757 1.610 . S
N756 S755 1.613 . S
N756 C759 1.350 . S
N757 S755 1.610 . S
N757 C758 1.351 . S
C758 C752 1.428 . S
C758 N757 1.351 . S
C758 C759 1.434 . S
C759 C750 1.429 . S
C759 N756 1.350 . S
C759 C758 1.434 . S
C760 C761 1.369 . S
C760 C762 1.419 . S
C760 H764 0.930 . S
C761 C760 1.369 . S
C761 C770 1.429 . S
C762 C760 1.419 . S
C762 C763 1.363 . S
C762 H765 0.929 . S
C763 C762 1.363 . S
C763 C769 1.428 . S
H764 C760 0.930 . S
H765 C762 0.929 . S
S766 N767 1.613 . S
S766 N768 1.610 . S
N767 S766 1.613 . S
N767 C770 1.350 . S
N768 S766 1.610 . S
N768 C769 1.351 . S
C769 C763 1.428 . S
C769 N768 1.351 . S
C769 C770 1.434 . S
C770 C761 1.429 . S
C770 N767 1.350 . S
C770 C769 1.434 . S
C771 C772 1.369 . S
C771 C773 1.419 . S
C771 H775 0.930 . S
C772 C771 1.369 . S
C772 C781 1.429 . S
C773 C771 1.419 . S
C773 C774 1.363 . S
C773 H776 0.929 . S
C774 C773 1.363 . S
C774 C780 1.428 . S
H775 C771 0.930 . S
H776 C773 0.929 . S
S777 N778 1.613 . S
S777 N779 1.610 . S
N778 S777 1.613 . S
N778 C781 1.350 . S
N779 S777 1.610 . S
N779 C780 1.351 . S
C780 C774 1.428 . S
C780 N779 1.351 . S
C780 C781 1.434 . S
C781 C772 1.429 . S
C781 N778 1.350 . S
C781 C780 1.434 . S
C782 C783 1.369 . S
C782 C784 1.419 . S
C782 H786 0.930 . S
C783 C782 1.369 . S
C783 C792 1.429 . S
C784 C782 1.419 . S
C784 C785 1.363 . S
C784 H787 0.929 . S
C785 C784 1.363 . S
C785 C791 1.428 . S
H786 C782 0.930 . S
H787 C784 0.929 . S
S788 N789 1.613 . S
S788 N790 1.610 . S
N789 S788 1.613 . S
N789 C792 1.350 . S
N790 S788 1.610 . S
N790 C791 1.351 . S
C791 C785 1.428 . S
C791 N790 1.351 . S
C791 C792 1.434 . S
C792 C783 1.429 . S
C792 N789 1.350 . S
C792 C791 1.434 . S
C793 C794 1.369 . S
C793 C795 1.419 . S
C793 H797 0.930 . S
C794 C793 1.369 . S
C794 C803 1.429 . S
C795 C793 1.419 . S
C795 C796 1.363 . S
C795 H798 0.929 . S
C796 C795 1.363 . S
C796 C802 1.428 . S
H797 C793 0.930 . S
H798 C795 0.929 . S
S799 N800 1.613 . S
S799 N801 1.610 . S
N800 S799 1.613 . S
N800 C803 1.350 . S
N801 S799 1.610 . S
N801 C802 1.351 . S
C802 C796 1.428 . S
C802 N801 1.351 . S
C802 C803 1.434 . S
C803 C794 1.429 . S
C803 N800 1.350 . S
C803 C802 1.434 . S
C804 C805 1.369 . S
C804 C806 1.419 . S
C804 H808 0.930 . S
C805 C804 1.369 . S
C805 C814 1.429 . S
C806 C804 1.419 . S
C806 C807 1.363 . S
C806 H809 0.929 . S
C807 C806 1.363 . S
C807 C813 1.428 . S
H808 C804 0.930 . S
H809 C806 0.929 . S
S810 N811 1.613 . S
S810 N812 1.610 . S
N811 S810 1.613 . S
N811 C814 1.350 . S
N812 S810 1.610 . S
N812 C813 1.351 . S
C813 C807 1.428 . S
C813 N812 1.351 . S
C813 C814 1.434 . S
C814 C805 1.429 . S
C814 N811 1.350 . S
C814 C813 1.434 . S
C815 C816 1.369 . S
C815 C817 1.419 1_545 S
C815 H819 0.930 . S
C816 C815 1.369 . S
C816 C825 1.429 . S
C817 C815 1.419 1_565 S
C817 C818 1.363 1_565 S
C817 H820 0.929 . S
C818 C817 1.363 1_545 S
C818 C824 1.428 . S
H819 C815 0.930 . S
H820 C817 0.929 . S
S821 N822 1.613 . S
S821 N823 1.610 . S
N822 S821 1.613 . S
N822 C825 1.350 . S
N823 S821 1.610 . S
N823 C824 1.351 . S
C824 C818 1.428 . S
C824 N823 1.351 . S
C824 C825 1.434 . S
C825 C816 1.429 . S
C825 N822 1.350 . S
C825 C824 1.434 . S
C826 C827 1.369 . S
C826 C828 1.419 . S
C826 H830 0.930 . S
C827 C826 1.369 . S
C827 C836 1.429 . S
C828 C826 1.419 . S
C828 C829 1.363 . S
C828 H831 0.929 . S
C829 C828 1.363 . S
C829 C835 1.428 . S
H830 C826 0.930 . S
H831 C828 0.929 . S
S832 N833 1.613 . S
S832 N834 1.610 . S
N833 S832 1.613 . S
N833 C836 1.350 . S
N834 S832 1.610 . S
N834 C835 1.351 . S
C835 C829 1.428 . S
C835 N834 1.351 . S
C835 C836 1.434 . S
C836 C827 1.429 . S
C836 N833 1.350 . S
C836 C835 1.434 . S
C837 C838 1.369 . S
C837 C839 1.419 1_565 S
C837 H841 0.930 . S
C838 C837 1.369 . S
C838 C847 1.429 . S
C839 C837 1.419 1_545 S
C839 C840 1.363 1_545 S
C839 H842 0.929 . S
C840 C839 1.363 1_565 S
C840 C846 1.428 . S
H841 C837 0.930 . S
H842 C839 0.929 . S
S843 N844 1.613 . S
S843 N845 1.610 . S
N844 S843 1.613 . S
N844 C847 1.350 . S
N845 S843 1.610 . S
N845 C846 1.351 . S
C846 C840 1.428 . S
C846 N845 1.351 . S
C846 C847 1.434 . S
C847 C838 1.429 . S
C847 N844 1.350 . S
C847 C846 1.434 . S
C321 C1 0.663 . S
C323 C201 0.667 . S
C332 C21 0.648 . S
C334 C221 0.660 . S
C343 C41 0.660 . S
C345 C161 0.667 . S
C354 C181 0.669 . S
C356 C61 0.656 . S
C365 C89 0.669 . S
C367 C289 0.662 . S
C376 C309 0.648 . S
C378 C109 0.662 . S
C387 C249 0.666 . S
C389 C129 0.652 . S
C398 C149 0.652 . S
C400 C269 0.666 . S
C409 C19 2.314 . S
C411 C88 2.320 . S
C420 C39 2.320 . S
C422 C268 2.315 . S
C431 C59 2.316 . S
C433 C128 2.318 . S
C442 C79 2.319 . S
C444 C308 2.316 . S
C453 C108 2.320 . S
C455 C199 2.315 . S
C464 C239 2.319 . S
C466 C148 2.316 . S
C475 C248 2.314 . S
C477 C179 2.319 . S
C486 C219 2.320 . S
C488 C288 2.315 . S
C497 C8 1.428 . S
C499 C141 1.521 . S
C508 C28 1.431 . S
C510 C241 1.521 . S
C519 C48 1.427 . S
C521 C101 1.521 . S
C530 C68 1.430 1_455 S
C532 C281 1.522 . S
C541 C69 1.523 . S
C543 C99 1.435 . S
C552 C119 1.425 . S
C554 C169 1.521 . S
C563 C139 1.437 . S
C565 C29 1.524 . S
C574 C209 1.524 . S
C576 C159 1.428 1_655 S
C585 C168 1.425 . S
C587 C301 1.522 . S
C596 C81 1.520 . S
C598 C188 1.427 1_655 S
C607 C261 1.522 . S
C609 C208 1.434 . S
C618 C121 1.520 . S
C620 C228 1.431 . S
C629 C259 1.437 . S
C631 C229 1.524 . S
C640 C279 1.424 1_455 S
C642 C9 1.522 . S
C651 C189 1.521 . S
C653 C299 1.432 . S
C662 C319 1.425 . S
C664 C49 1.522 . S
C673 C6 1.563 . S
C675 C196 1.494 . S
C684 C216 1.493 . S
C686 C26 1.562 . S
C695 C46 1.562 . S
C697 C236 1.494 . S
C706 C176 1.494 . S
C708 C66 1.562 . S
C717 C266 1.493 . S
C719 C96 1.562 . S
C728 C286 1.504 . S
C730 C116 1.555 . S
C739 C306 1.493 . S
C741 C136 1.562 . S
C750 C246 1.505 . S
C752 C156 1.555 . S
C761 C36 1.495 . S
C763 C166 1.562 . S
C772 C56 1.503 . S
C774 C186 1.558 1_565 S
C783 C76 1.503 . S
C785 C206 1.557 . S
C794 C226 1.555 1_545 S
C796 C16 1.500 . S
C805 C106 1.498 . S
C807 C256 1.560 . S
C816 C126 1.504 . S
C818 C276 1.555 1_545 S
C827 C146 1.502 . S
C829 C296 1.555 . S
C838 C86 1.505 . S
C840 C316 1.555 1_565 S
