# Generated by pormake.
# Topology ukc, (4)-cn, num edge types: 1
# Building blocks:
#     Node 0, Type 0, BuildingBlock: QUQFOY_clean_sbu_3, # of connection points: 4
#     Node 1, Type 0, BuildingBlock: QUQFOY_clean_sbu_3, # of connection points: 4
#     Node 2, Type 0, BuildingBlock: QUQFOY_clean_sbu_3, # of connection points: 4
#     Node 3, Type 0, BuildingBlock: QUQFOY_clean_sbu_3, # of connection points: 4
#     Node 4, Type 0, BuildingBlock: QUQFOY_clean_sbu_3, # of connection points: 4
#     Node 5, Type 0, BuildingBlock: QUQFOY_clean_sbu_3, # of connection points: 4
#     Node 6, Type 0, BuildingBlock: QUQFOY_clean_sbu_3, # of connection points: 4
#     Node 7, Type 0, BuildingBlock: QUQFOY_clean_sbu_3, # of connection points: 4
#     Node 8, Type 0, BuildingBlock: QUQFOY_clean_sbu_3, # of connection points: 4
#     Node 9, Type 0, BuildingBlock: QUQFOY_clean_sbu_3, # of connection points: 4
#     Node 10, Type 0, BuildingBlock: QUQFOY_clean_sbu_3, # of connection points: 4
#     Node 11, Type 0, BuildingBlock: QUQFOY_clean_sbu_3, # of connection points: 4
#     Node 12, Type 0, BuildingBlock: QUQFOY_clean_sbu_3, # of connection points: 4
#     Node 13, Type 0, BuildingBlock: QUQFOY_clean_sbu_3, # of connection points: 4
#     Node 14, Type 0, BuildingBlock: QUQFOY_clean_sbu_3, # of connection points: 4
#     Node 15, Type 0, BuildingBlock: QUQFOY_clean_sbu_3, # of connection points: 4
#     Node 16, Type 0, BuildingBlock: QUQFOY_clean_sbu_3, # of connection points: 4
#     Node 17, Type 0, BuildingBlock: QUQFOY_clean_sbu_3, # of connection points: 4
#     Node 18, Type 0, BuildingBlock: QUQFOY_clean_sbu_3, # of connection points: 4
#     Node 19, Type 0, BuildingBlock: QUQFOY_clean_sbu_3, # of connection points: 4
#     Node 20, Type 0, BuildingBlock: QUQFOY_clean_sbu_3, # of connection points: 4
#     Node 21, Type 0, BuildingBlock: QUQFOY_clean_sbu_3, # of connection points: 4
#     Node 22, Type 0, BuildingBlock: QUQFOY_clean_sbu_3, # of connection points: 4
#     Node 23, Type 0, BuildingBlock: QUQFOY_clean_sbu_3, # of connection points: 4
#     Node 24, Type 0, BuildingBlock: QUQFOY_clean_sbu_3, # of connection points: 4
#     Node 25, Type 0, BuildingBlock: QUQFOY_clean_sbu_3, # of connection points: 4
#     Node 26, Type 0, BuildingBlock: QUQFOY_clean_sbu_3, # of connection points: 4
#     Node 27, Type 0, BuildingBlock: QUQFOY_clean_sbu_3, # of connection points: 4
#     Node 28, Type 0, BuildingBlock: QUQFOY_clean_sbu_3, # of connection points: 4
#     Node 29, Type 0, BuildingBlock: QUQFOY_clean_sbu_3, # of connection points: 4
#     Node 30, Type 0, BuildingBlock: QUQFOY_clean_sbu_3, # of connection points: 4
#     Node 31, Type 0, BuildingBlock: QUQFOY_clean_sbu_3, # of connection points: 4
#     Edge 32, Type (0, 0), BuildingBlock: KIFKEQ_clean_linker_1, # of connection points: 2
#     Edge 33, Type (0, 0), BuildingBlock: KIFKEQ_clean_linker_1, # of connection points: 2
#     Edge 34, Type (0, 0), BuildingBlock: KIFKEQ_clean_linker_1, # of connection points: 2
#     Edge 35, Type (0, 0), BuildingBlock: KIFKEQ_clean_linker_1, # of connection points: 2
#     Edge 36, Type (0, 0), BuildingBlock: KIFKEQ_clean_linker_1, # of connection points: 2
#     Edge 37, Type (0, 0), BuildingBlock: KIFKEQ_clean_linker_1, # of connection points: 2
#     Edge 38, Type (0, 0), BuildingBlock: KIFKEQ_clean_linker_1, # of connection points: 2
#     Edge 39, Type (0, 0), BuildingBlock: KIFKEQ_clean_linker_1, # of connection points: 2
#     Edge 40, Type (0, 0), BuildingBlock: KIFKEQ_clean_linker_1, # of connection points: 2
#     Edge 41, Type (0, 0), BuildingBlock: KIFKEQ_clean_linker_1, # of connection points: 2
#     Edge 42, Type (0, 0), BuildingBlock: KIFKEQ_clean_linker_1, # of connection points: 2
#     Edge 43, Type (0, 0), BuildingBlock: KIFKEQ_clean_linker_1, # of connection points: 2
#     Edge 44, Type (0, 0), BuildingBlock: KIFKEQ_clean_linker_1, # of connection points: 2
#     Edge 45, Type (0, 0), BuildingBlock: KIFKEQ_clean_linker_1, # of connection points: 2
#     Edge 46, Type (0, 0), BuildingBlock: KIFKEQ_clean_linker_1, # of connection points: 2
#     Edge 47, Type (0, 0), BuildingBlock: KIFKEQ_clean_linker_1, # of connection points: 2
#     Edge 48, Type (0, 0), BuildingBlock: KIFKEQ_clean_linker_1, # of connection points: 2
#     Edge 49, Type (0, 0), BuildingBlock: KIFKEQ_clean_linker_1, # of connection points: 2
#     Edge 50, Type (0, 0), BuildingBlock: KIFKEQ_clean_linker_1, # of connection points: 2
#     Edge 51, Type (0, 0), BuildingBlock: KIFKEQ_clean_linker_1, # of connection points: 2
#     Edge 52, Type (0, 0), BuildingBlock: KIFKEQ_clean_linker_1, # of connection points: 2
#     Edge 53, Type (0, 0), BuildingBlock: KIFKEQ_clean_linker_1, # of connection points: 2
#     Edge 54, Type (0, 0), BuildingBlock: KIFKEQ_clean_linker_1, # of connection points: 2
#     Edge 55, Type (0, 0), BuildingBlock: KIFKEQ_clean_linker_1, # of connection points: 2
#     Edge 56, Type (0, 0), BuildingBlock: KIFKEQ_clean_linker_1, # of connection points: 2
#     Edge 57, Type (0, 0), BuildingBlock: KIFKEQ_clean_linker_1, # of connection points: 2
#     Edge 58, Type (0, 0), BuildingBlock: KIFKEQ_clean_linker_1, # of connection points: 2
#     Edge 59, Type (0, 0), BuildingBlock: KIFKEQ_clean_linker_1, # of connection points: 2
#     Edge 60, Type (0, 0), BuildingBlock: KIFKEQ_clean_linker_1, # of connection points: 2
#     Edge 61, Type (0, 0), BuildingBlock: KIFKEQ_clean_linker_1, # of connection points: 2
#     Edge 62, Type (0, 0), BuildingBlock: KIFKEQ_clean_linker_1, # of connection points: 2
#     Edge 63, Type (0, 0), BuildingBlock: KIFKEQ_clean_linker_1, # of connection points: 2
#     Edge 64, Type (0, 0), BuildingBlock: KIFKEQ_clean_linker_1, # of connection points: 2
#     Edge 65, Type (0, 0), BuildingBlock: KIFKEQ_clean_linker_1, # of connection points: 2
#     Edge 66, Type (0, 0), BuildingBlock: KIFKEQ_clean_linker_1, # of connection points: 2
#     Edge 67, Type (0, 0), BuildingBlock: KIFKEQ_clean_linker_1, # of connection points: 2
#     Edge 68, Type (0, 0), BuildingBlock: KIFKEQ_clean_linker_1, # of connection points: 2
#     Edge 69, Type (0, 0), BuildingBlock: KIFKEQ_clean_linker_1, # of connection points: 2
#     Edge 70, Type (0, 0), BuildingBlock: KIFKEQ_clean_linker_1, # of connection points: 2
#     Edge 71, Type (0, 0), BuildingBlock: KIFKEQ_clean_linker_1, # of connection points: 2
#     Edge 72, Type (0, 0), BuildingBlock: KIFKEQ_clean_linker_1, # of connection points: 2
#     Edge 73, Type (0, 0), BuildingBlock: KIFKEQ_clean_linker_1, # of connection points: 2
#     Edge 74, Type (0, 0), BuildingBlock: KIFKEQ_clean_linker_1, # of connection points: 2
#     Edge 75, Type (0, 0), BuildingBlock: KIFKEQ_clean_linker_1, # of connection points: 2
#     Edge 76, Type (0, 0), BuildingBlock: KIFKEQ_clean_linker_1, # of connection points: 2
#     Edge 77, Type (0, 0), BuildingBlock: KIFKEQ_clean_linker_1, # of connection points: 2
#     Edge 78, Type (0, 0), BuildingBlock: KIFKEQ_clean_linker_1, # of connection points: 2
#     Edge 79, Type (0, 0), BuildingBlock: KIFKEQ_clean_linker_1, # of connection points: 2
#     Edge 80, Type (0, 0), BuildingBlock: KIFKEQ_clean_linker_1, # of connection points: 2
#     Edge 81, Type (0, 0), BuildingBlock: KIFKEQ_clean_linker_1, # of connection points: 2
#     Edge 82, Type (0, 0), BuildingBlock: KIFKEQ_clean_linker_1, # of connection points: 2
#     Edge 83, Type (0, 0), BuildingBlock: KIFKEQ_clean_linker_1, # of connection points: 2
#     Edge 84, Type (0, 0), BuildingBlock: KIFKEQ_clean_linker_1, # of connection points: 2
#     Edge 85, Type (0, 0), BuildingBlock: KIFKEQ_clean_linker_1, # of connection points: 2
#     Edge 86, Type (0, 0), BuildingBlock: KIFKEQ_clean_linker_1, # of connection points: 2
#     Edge 87, Type (0, 0), BuildingBlock: KIFKEQ_clean_linker_1, # of connection points: 2
#     Edge 88, Type (0, 0), BuildingBlock: KIFKEQ_clean_linker_1, # of connection points: 2
#     Edge 89, Type (0, 0), BuildingBlock: KIFKEQ_clean_linker_1, # of connection points: 2
#     Edge 90, Type (0, 0), BuildingBlock: KIFKEQ_clean_linker_1, # of connection points: 2
#     Edge 91, Type (0, 0), BuildingBlock: KIFKEQ_clean_linker_1, # of connection points: 2
#     Edge 92, Type (0, 0), BuildingBlock: KIFKEQ_clean_linker_1, # of connection points: 2
#     Edge 93, Type (0, 0), BuildingBlock: KIFKEQ_clean_linker_1, # of connection points: 2
#     Edge 94, Type (0, 0), BuildingBlock: KIFKEQ_clean_linker_1, # of connection points: 2
#     Edge 95, Type (0, 0), BuildingBlock: KIFKEQ_clean_linker_1, # of connection points: 2
# Relax obj value: 0.042
# Max RMSD: 0.063
# Mean RMSD: 0.063
data_MOF--net-ukc--node1-QUQFOY_clean_sbu_3--edge1-KIFKEQ_clean_linker_1
_symmetry_space_group_name_H-M    P1
_symmetry_Int_Tables_number       1
_symmetry_cell_setting            triclinic
loop_
_symmetry_equiv_pos_as_xyz
'x, y, z'
_cell_length_a     46.891079
_cell_length_b     46.996563
_cell_length_c     91.366835
_cell_angle_alpha  89.818408
_cell_angle_beta   90.040241
_cell_angle_gamma 90.055547
loop_
_atom_site_label
_atom_site_type_symbol
_atom_site_fract_x
_atom_site_fract_y
_atom_site_fract_z
_atom_type_partial_charge
C0 C 0.0869 0.39335 0.06418 0.0
O1 O 0.06302 0.40599 0.06324 0.0
Cd2 Cd 0.03639 0.4116 0.0411 0.0
O3 O 0.09947 0.3837 0.05287 0.0
Cd4 Cd 0.0941 0.38237 0.02603 0.0
C5 C 0.03484 0.34127 0.0302 0.0
O6 O 0.07272 0.42834 0.02513 0.0
O7 O 0.07492 0.40729 0.00434 0.0
O8 O 0.14559 0.38794 0.02512 0.0
C9 C 0.06736 0.42894 0.0116 0.0
O10 O 0.02133 0.36287 0.03497 0.0
C11 C 0.14916 0.36938 0.0152 0.0
O12 O 0.06108 0.343 0.02678 0.0
O13 O 0.12707 0.35672 0.01048 0.0
C14 C 0.83753 0.8409 0.31703 0.0
O15 O 0.82606 0.81643 0.31638 0.0
Cd16 Cd 0.82421 0.78848 0.29462 0.0
O17 O 0.84781 0.85282 0.30565 0.0
Cd18 Cd 0.85151 0.84423 0.27912 0.0
C19 C 0.89538 0.78832 0.28538 0.0
O20 O 0.80547 0.82178 0.27737 0.0
O21 O 0.83033 0.82122 0.2576 0.0
O22 O 0.8438 0.89508 0.27648 0.0
C23 C 0.80716 0.81516 0.26401 0.0
O24 O 0.8738 0.77421 0.28979 0.0
C25 C 0.8626 0.89834 0.26662 0.0
O26 O 0.89292 0.81421 0.28152 0.0
O27 O 0.87649 0.87645 0.26276 0.0
C28 C 0.3908 0.58067 0.56556 0.0
O29 O 0.41627 0.57156 0.5653 0.0
Cd30 Cd 0.4461 0.57388 0.54426 0.0
O31 O 0.37937 0.59118 0.5541 0.0
Cd32 Cd 0.39149 0.59947 0.52817 0.0
C33 C 0.44341 0.64583 0.5373 0.0
O34 O 0.41738 0.55593 0.52482 0.0
O35 O 0.42261 0.58676 0.50754 0.0
O36 O 0.34441 0.5832 0.52133 0.0
C37 C 0.42745 0.56191 0.51236 0.0
O38 O 0.45812 0.62428 0.54114 0.0
C39 C 0.33799 0.60505 0.51383 0.0
O40 O 0.41781 0.64292 0.53293 0.0
O41 O 0.35646 0.62479 0.51315 0.0
C42 C 0.64839 0.1438 0.81377 0.0
O43 O 0.65773 0.16917 0.81305 0.0
Cd44 Cd 0.66054 0.1975 0.79131 0.0
O45 O 0.63872 0.13127 0.80244 0.0
Cd46 Cd 0.63111 0.14063 0.77617 0.0
C47 C 0.5891 0.19811 0.78312 0.0
O48 O 0.67666 0.1628 0.77445 0.0
O49 O 0.65307 0.16316 0.75432 0.0
O50 O 0.63692 0.08947 0.77389 0.0
C51 C 0.6757 0.16967 0.76111 0.0
O52 O 0.61136 0.21239 0.78629 0.0
C53 C 0.61825 0.08672 0.76391 0.0
O54 O 0.5905 0.17173 0.78011 0.0
O55 O 0.60527 0.10905 0.7598 0.0
C56 C 0.08812 0.58167 0.41201 0.0
O57 O 0.06246 0.57312 0.41296 0.0
Cd58 Cd 0.03469 0.57358 0.43484 0.0
O59 O 0.10131 0.59125 0.42316 0.0
Cd60 Cd 0.09441 0.59937 0.44954 0.0
C61 C 0.0399 0.64532 0.44274 0.0
O62 O 0.068 0.55654 0.4523 0.0
O63 O 0.07081 0.58146 0.47196 0.0
O64 O 0.14349 0.58481 0.45285 0.0
C65 C 0.06173 0.55923 0.46566 0.0
O66 O 0.02477 0.62406 0.43889 0.0
C67 C 0.15056 0.60602 0.46063 0.0
O68 O 0.06589 0.64218 0.44648 0.0
O69 O 0.13145 0.62456 0.46308 0.0
C70 C 0.65777 0.84096 0.66486 0.0
O71 O 0.66779 0.81601 0.66632 0.0
Cd72 Cd 0.66706 0.79017 0.68892 0.0
O73 O 0.6463 0.85368 0.67564 0.0
Cd74 Cd 0.63573 0.84522 0.70163 0.0
C75 C 0.59481 0.78818 0.69355 0.0
O76 O 0.68128 0.8242 0.70689 0.0
O77 O 0.65016 0.81972 0.724 0.0
O78 O 0.64264 0.89612 0.70455 0.0
C79 C 0.67555 0.81589 0.71972 0.0
O80 O 0.61765 0.77383 0.69205 0.0
C81 C 0.62174 0.89943 0.71321 0.0
O82 O 0.59557 0.81485 0.69586 0.0
O83 O 0.6071 0.87751 0.71634 0.0
C84 C 0.39278 0.39969 0.91651 0.0
O85 O 0.41651 0.41269 0.91697 0.0
Cd86 Cd 0.44609 0.41168 0.93822 0.0
O87 O 0.38282 0.38726 0.92781 0.0
Cd88 Cd 0.39357 0.38102 0.95404 0.0
C89 C 0.44876 0.33928 0.94458 0.0
O90 O 0.41502 0.42709 0.95736 0.0
O91 O 0.42144 0.39755 0.97511 0.0
O92 O 0.34306 0.38922 0.95748 0.0
C93 C 0.42472 0.42248 0.97006 0.0
O94 O 0.46186 0.36185 0.94068 0.0
C95 C 0.33967 0.36959 0.96689 0.0
O96 O 0.42324 0.34038 0.94923 0.0
O97 O 0.36149 0.35506 0.97035 0.0
C98 C 0.84014 0.14705 0.16522 0.0
O99 O 0.83102 0.17244 0.16615 0.0
Cd100 Cd 0.82728 0.19899 0.18828 0.0
O101 O 0.84837 0.13349 0.17657 0.0
Cd102 Cd 0.85261 0.14068 0.20319 0.0
C103 C 0.89773 0.19669 0.19857 0.0
O104 O 0.80738 0.16417 0.20431 0.0
O105 O 0.82966 0.16191 0.22482 0.0
O106 O 0.84482 0.08963 0.20519 0.0
C107 C 0.80764 0.16958 0.21782 0.0
O108 O 0.87663 0.21165 0.1943 0.0
C109 C 0.86336 0.08608 0.21518 0.0
O110 O 0.8946 0.17051 0.20172 0.0
O111 O 0.87707 0.10788 0.21936 0.0
C112 C 0.89515 0.58138 0.91383 0.0
O113 O 0.92032 0.57162 0.91482 0.0
Cd114 Cd 0.94794 0.57387 0.93666 0.0
O115 O 0.88305 0.59276 0.92484 0.0
Cd116 Cd 0.89247 0.60279 0.95088 0.0
C117 C 0.94691 0.64635 0.94178 0.0
O118 O 0.91568 0.5581 0.95525 0.0
O119 O 0.91948 0.58825 0.9728 0.0
O120 O 0.84189 0.59379 0.95427 0.0
C121 C 0.92434 0.56343 0.96805 0.0
O122 O 0.96142 0.62418 0.93886 0.0
C123 C 0.83809 0.61422 0.96311 0.0
O124 O 0.92091 0.6444 0.9456 0.0
O125 O 0.85963 0.62944 0.9662 0.0
C126 C 0.15534 0.14288 0.66249 0.0
O127 O 0.16709 0.16719 0.6631 0.0
Cd128 Cd 0.16486 0.19608 0.6845 0.0
O129 O 0.14345 0.132 0.67371 0.0
Cd130 Cd 0.13656 0.14177 0.69992 0.0
C131 C 0.09229 0.1955 0.69105 0.0
O132 O 0.18132 0.16569 0.7037 0.0
O133 O 0.15061 0.17041 0.7211 0.0
O134 O 0.15103 0.09355 0.70526 0.0
C135 C 0.17566 0.17479 0.71638 0.0
O136 O 0.11439 0.20947 0.68722 0.0
C137 C 0.12915 0.08719 0.71276 0.0
O138 O 0.09433 0.16989 0.69547 0.0
O139 O 0.11024 0.10632 0.71419 0.0
C140 C 0.59429 0.4005 0.41496 0.0
O141 O 0.56871 0.40935 0.4157 0.0
Cd142 Cd 0.54082 0.41129 0.43758 0.0
O143 O 0.60711 0.3911 0.42628 0.0
Cd144 Cd 0.59796 0.38341 0.45252 0.0
C145 C 0.54151 0.34001 0.44564 0.0
O146 O 0.57511 0.42866 0.45452 0.0
O147 O 0.57503 0.40413 0.47439 0.0
O148 O 0.64907 0.39044 0.45501 0.0
C149 C 0.56847 0.42703 0.46787 0.0
O150 O 0.52672 0.36192 0.4425 0.0
C151 C 0.65214 0.37162 0.46489 0.0
O152 O 0.56793 0.34204 0.44863 0.0
O153 O 0.63003 0.35799 0.46881 0.0
C154 C 0.33478 0.84789 0.16576 0.0
O155 O 0.32286 0.82364 0.16595 0.0
Cd156 Cd 0.32625 0.79216 0.18638 0.0
O157 O 0.34752 0.85748 0.17703 0.0
Cd158 Cd 0.35605 0.84502 0.20286 0.0
C159 C 0.39929 0.79182 0.1921 0.0
O160 O 0.31222 0.82036 0.20666 0.0
O161 O 0.34384 0.81322 0.22343 0.0
O162 O 0.33847 0.89007 0.21135 0.0
C163 C 0.31857 0.80931 0.21887 0.0
O164 O 0.37679 0.77874 0.18806 0.0
C165 C 0.36171 0.89844 0.21698 0.0
O166 O 0.39793 0.81683 0.19736 0.0
O167 O 0.38309 0.88196 0.21595 0.0
C168 C 0.89403 0.4047 0.56785 0.0
O169 O 0.91947 0.41388 0.56714 0.0
Cd170 Cd 0.94775 0.41247 0.54548 0.0
O171 O 0.88191 0.394 0.55666 0.0
Cd172 Cd 0.89235 0.38473 0.53068 0.0
C173 C 0.9465 0.3404 0.53928 0.0
O174 O 0.91602 0.42972 0.52698 0.0
O175 O 0.91945 0.40003 0.50916 0.0
O176 O 0.84192 0.39387 0.52672 0.0
C177 C 0.92433 0.42472 0.51408 0.0
O178 O 0.96124 0.36233 0.54246 0.0
C179 C 0.83855 0.3738 0.51761 0.0
O180 O 0.92046 0.34273 0.53558 0.0
O181 O 0.86019 0.35865 0.51471 0.0
C182 C 0.33307 0.14105 0.31722 0.0
O183 O 0.3237 0.16639 0.31705 0.0
Cd184 Cd 0.32588 0.19727 0.29632 0.0
O185 O 0.34391 0.1301 0.30577 0.0
Cd186 Cd 0.3531 0.14316 0.28003 0.0
C187 C 0.39808 0.19624 0.28962 0.0
O188 O 0.30998 0.1694 0.2762 0.0
O189 O 0.34183 0.17496 0.25941 0.0
O190 O 0.33556 0.09892 0.27015 0.0
C191 C 0.31677 0.17999 0.26394 0.0
O192 O 0.37619 0.21021 0.29365 0.0
C193 C 0.35944 0.09028 0.26541 0.0
O194 O 0.39574 0.17087 0.28492 0.0
O195 O 0.38093 0.1062 0.26758 0.0
C196 C 0.5975 0.5857 0.06479 0.0
O197 O 0.57274 0.57468 0.06475 0.0
Cd198 Cd 0.54117 0.57553 0.04426 0.0
O199 O 0.60792 0.59721 0.05332 0.0
Cd200 Cd 0.59648 0.6046 0.02718 0.0
C201 C 0.54168 0.64783 0.0367 0.0
O202 O 0.57266 0.55989 0.02564 0.0
O203 O 0.57106 0.58449 0.00581 0.0
O204 O 0.64714 0.59674 0.0239 0.0
C205 C 0.5643 0.56188 0.01255 0.0
O206 O 0.52812 0.62594 0.04118 0.0
C207 C 0.65013 0.61568 0.01407 0.0
O208 O 0.5669 0.64571 0.03169 0.0
O209 O 0.62808 0.62966 0.0104 0.0
C210 C 0.14849 0.84168 0.8153 0.0
O211 O 0.1602 0.81738 0.81463 0.0
Cd212 Cd 0.15954 0.78937 0.79293 0.0
O213 O 0.13727 0.85306 0.80401 0.0
Cd214 Cd 0.1322 0.84413 0.77759 0.0
C215 C 0.08758 0.78969 0.78478 0.0
O216 O 0.17763 0.8211 0.77475 0.0
O217 O 0.14895 0.817 0.75641 0.0
O218 O 0.14658 0.89281 0.77348 0.0
C219 C 0.17356 0.81282 0.76177 0.0
O220 O 0.10944 0.77574 0.78895 0.0
C221 C 0.12569 0.89927 0.76529 0.0
O222 O 0.08979 0.81551 0.78072 0.0
O223 O 0.10726 0.87998 0.76293 0.0
C224 C 0.59127 0.89808 0.56688 0.0
O225 O 0.56612 0.90815 0.56669 0.0
Cd226 Cd 0.53619 0.91108 0.54554 0.0
O227 O 0.60278 0.88854 0.55525 0.0
Cd228 Cd 0.5924 0.8826 0.52899 0.0
C229 C 0.53545 0.83988 0.53666 0.0
O230 O 0.56917 0.92776 0.52771 0.0
O231 O 0.56944 0.90463 0.50746 0.0
O232 O 0.64342 0.8896 0.52637 0.0
C233 C 0.56208 0.92674 0.51439 0.0
O234 O 0.52185 0.86167 0.5411 0.0
C235 C 0.64652 0.87067 0.51661 0.0
O236 O 0.56121 0.84189 0.53239 0.0
O237 O 0.62436 0.85717 0.51265 0.0
C238 C 0.33515 0.34458 0.8166 0.0
O239 O 0.32515 0.31946 0.81612 0.0
Cd240 Cd 0.32471 0.28995 0.7948 0.0
O241 O 0.3451 0.35665 0.80519 0.0
Cd242 Cd 0.35078 0.34713 0.77889 0.0
C243 C 0.39604 0.29246 0.78557 0.0
O244 O 0.30737 0.32098 0.77645 0.0
O245 O 0.33463 0.31957 0.75749 0.0
O246 O 0.33289 0.39319 0.7716 0.0
C247 C 0.31122 0.3126 0.76347 0.0
O248 O 0.37451 0.27778 0.78955 0.0
C249 C 0.35577 0.40151 0.76555 0.0
O250 O 0.39359 0.31859 0.78206 0.0
O251 O 0.37697 0.38472 0.76595 0.0
C252 C 0.89869 0.08676 0.06593 0.0
O253 O 0.92432 0.07819 0.06496 0.0
Cd254 Cd 0.95152 0.0757 0.04296 0.0
O255 O 0.8849 0.09478 0.05462 0.0
Cd256 Cd 0.89147 0.09924 0.02791 0.0
C257 C 0.946 0.14615 0.03256 0.0
O258 O 0.91783 0.05614 0.02647 0.0
O259 O 0.91527 0.07907 0.00612 0.0
O260 O 0.84234 0.08451 0.02452 0.0
C261 C 0.92414 0.05742 0.01306 0.0
O262 O 0.96147 0.12552 0.03695 0.0
C263 C 0.83567 0.10532 0.01631 0.0
O264 O 0.91988 0.14237 0.02929 0.0
O265 O 0.85497 0.12363 0.0137 0.0
C266 C 0.149 0.6437 0.31402 0.0
O267 O 0.15881 0.66892 0.31361 0.0
Cd268 Cd 0.16159 0.69778 0.29214 0.0
O269 O 0.13956 0.63172 0.3025 0.0
Cd270 Cd 0.13367 0.64156 0.27616 0.0
C271 C 0.0903 0.69791 0.28321 0.0
O272 O 0.17937 0.66387 0.27511 0.0
O273 O 0.15662 0.66394 0.2547 0.0
O274 O 0.13976 0.59055 0.27375 0.0
C275 C 0.17898 0.67046 0.26172 0.0
O276 O 0.112 0.71188 0.28755 0.0
C277 C 0.12122 0.58786 0.26371 0.0
O278 O 0.09263 0.67215 0.27915 0.0
O279 O 0.1083 0.61021 0.25957 0.0
C280 C 0.59158 0.08088 0.91219 0.0
O281 O 0.56618 0.07167 0.91303 0.0
Cd282 Cd 0.53816 0.07406 0.93469 0.0
O283 O 0.60393 0.09143 0.92335 0.0
Cd284 Cd 0.59398 0.09976 0.9495 0.0
C285 C 0.54174 0.14615 0.94102 0.0
O286 O 0.56844 0.05618 0.9536 0.0
O287 O 0.56441 0.08717 0.97079 0.0
O288 O 0.64159 0.08361 0.95543 0.0
C289 C 0.55943 0.0622 0.96625 0.0
O290 O 0.5267 0.12457 0.9376 0.0
C291 C 0.64841 0.10534 0.96287 0.0
O292 O 0.5676 0.14324 0.94498 0.0
O293 O 0.62995 0.125 0.96386 0.0
C294 C 0.1455 0.33702 0.16527 0.0
O295 O 0.15816 0.31322 0.16641 0.0
Cd296 Cd 0.16348 0.28773 0.18894 0.0
O297 O 0.13584 0.34985 0.17648 0.0
Cd298 Cd 0.13459 0.34479 0.20331 0.0
C299 C 0.09308 0.28599 0.19967 0.0
O300 O 0.18124 0.32413 0.20463 0.0
O301 O 0.15894 0.32595 0.22514 0.0
O302 O 0.13991 0.39618 0.2043 0.0
C303 C 0.18132 0.31921 0.21823 0.0
O304 O 0.11475 0.27227 0.19511 0.0
C305 C 0.12104 0.3995 0.21413 0.0
O306 O 0.09491 0.31226 0.20281 0.0
O307 O 0.10831 0.37735 0.2187 0.0
C308 C 0.89271 0.89756 0.4175 0.0
O309 O 0.91634 0.91067 0.41829 0.0
Cd310 Cd 0.94436 0.91069 0.44007 0.0
O311 O 0.88196 0.88551 0.42872 0.0
Cd312 Cd 0.89082 0.88014 0.4552 0.0
C313 C 0.94698 0.83851 0.44707 0.0
O314 O 0.91178 0.92638 0.45845 0.0
O315 O 0.91745 0.89754 0.47655 0.0
O316 O 0.84003 0.88818 0.4579 0.0
C317 C 0.9209 0.9223 0.47131 0.0
O318 O 0.9602 0.86104 0.44323 0.0
C319 C 0.8363 0.86869 0.46736 0.0
O320 O 0.92114 0.83958 0.45125 0.0
O321 O 0.85802 0.85431 0.47113 0.0
C322 C 0.33366 0.64664 0.66228 0.0
O323 O 0.32697 0.67284 0.66253 0.0
Cd324 Cd 0.32853 0.70315 0.68349 0.0
O325 O 0.34267 0.63405 0.67376 0.0
Cd326 Cd 0.35253 0.64471 0.69966 0.0
C327 C 0.39991 0.69752 0.69191 0.0
O328 O 0.31082 0.67292 0.70207 0.0
O329 O 0.33773 0.67294 0.72119 0.0
O330 O 0.33349 0.59981 0.70812 0.0
C331 C 0.31489 0.68116 0.71504 0.0
O332 O 0.37888 0.713 0.68808 0.0
C333 C 0.35674 0.59061 0.71342 0.0
O334 O 0.39643 0.67161 0.69565 0.0
O335 O 0.3786 0.60638 0.71207 0.0
C336 C 0.39649 0.08239 0.41483 0.0
O337 O 0.42195 0.07343 0.41594 0.0
Cd338 Cd 0.44832 0.07441 0.43838 0.0
O339 O 0.38377 0.09315 0.4258 0.0
Cd340 Cd 0.39287 0.10364 0.45175 0.0
C341 C 0.44875 0.14632 0.44408 0.0
O342 O 0.41492 0.05826 0.45632 0.0
O343 O 0.41862 0.08849 0.47388 0.0
O344 O 0.34202 0.0956 0.45447 0.0
C345 C 0.42286 0.06345 0.46926 0.0
O346 O 0.46349 0.12389 0.44216 0.0
C347 C 0.33817 0.11594 0.46337 0.0
O348 O 0.42206 0.14492 0.44642 0.0
O349 O 0.35983 0.13069 0.46681 0.0
C350 C 0.6563 0.63818 0.16384 0.0
O351 O 0.66744 0.6628 0.16394 0.0
Cd352 Cd 0.66323 0.69432 0.18422 0.0
O353 O 0.64375 0.62834 0.17513 0.0
Cd354 Cd 0.63472 0.64175 0.20079 0.0
C355 C 0.59048 0.69421 0.19005 0.0
O356 O 0.67821 0.66736 0.20493 0.0
O357 O 0.64531 0.6745 0.221 0.0
O358 O 0.65242 0.59778 0.21091 0.0
C359 C 0.67087 0.67852 0.21693 0.0
O360 O 0.61272 0.70766 0.18596 0.0
C361 C 0.62874 0.58926 0.21599 0.0
O362 O 0.59231 0.66913 0.19526 0.0
O363 O 0.60715 0.60502 0.21382 0.0
C364 C 0.09628 0.90008 0.91538 0.0
O365 O 0.0725 0.91289 0.91599 0.0
Cd366 Cd 0.04341 0.91144 0.93737 0.0
O367 O 0.10657 0.88762 0.9266 0.0
Cd368 Cd 0.09642 0.88093 0.95281 0.0
C369 C 0.0414 0.83892 0.94334 0.0
O370 O 0.07475 0.92675 0.95644 0.0
O371 O 0.06885 0.89682 0.97405 0.0
O372 O 0.14697 0.88908 0.95633 0.0
C373 C 0.06527 0.9218 0.96914 0.0
O374 O 0.02804 0.86144 0.93963 0.0
C375 C 0.15023 0.86914 0.96558 0.0
O376 O 0.06698 0.84018 0.9479 0.0
O377 O 0.12837 0.8545 0.96886 0.0
C378 C 0.83403 0.34256 0.66526 0.0
O379 O 0.82414 0.31742 0.66576 0.0
Cd380 Cd 0.8262 0.28843 0.68712 0.0
O381 O 0.8454 0.3538 0.67652 0.0
Cd382 Cd 0.85498 0.34259 0.70247 0.0
C383 C 0.89882 0.28894 0.6928 0.0
O384 O 0.80982 0.31952 0.70596 0.0
O385 O 0.83944 0.31421 0.72374 0.0
O386 O 0.84547 0.3928 0.70601 0.0
C387 C 0.81462 0.31006 0.71868 0.0
O388 O 0.87655 0.27484 0.68944 0.0
C389 C 0.86499 0.39653 0.71544 0.0
O390 O 0.89696 0.31459 0.6971 0.0
O391 O 0.88011 0.3751 0.71881 0.0
C392 C 0.39291 0.90172 0.06637 0.0
O393 O 0.41751 0.91306 0.06594 0.0
Cd394 Cd 0.44746 0.91302 0.04478 0.0
O395 O 0.38192 0.89026 0.05507 0.0
Cd396 Cd 0.39185 0.8832 0.02889 0.0
C397 C 0.44826 0.841 0.03735 0.0
O398 O 0.41446 0.92863 0.02667 0.0
O399 O 0.41495 0.90365 0.00701 0.0
O400 O 0.34083 0.88972 0.02614 0.0
C401 C 0.42159 0.9266 0.0134 0.0
O402 O 0.46185 0.86305 0.04151 0.0
C403 C 0.3379 0.87028 0.01663 0.0
O404 O 0.42262 0.8428 0.0329 0.0
O405 O 0.36013 0.8567 0.01292 0.0
C406 C 0.83468 0.64227 0.81563 0.0
O407 O 0.82499 0.66751 0.81509 0.0
Cd408 Cd 0.82237 0.69666 0.79369 0.0
O409 O 0.84421 0.63007 0.80418 0.0
Cd410 Cd 0.85063 0.63917 0.77776 0.0
C411 C 0.89389 0.69599 0.78472 0.0
O412 O 0.80587 0.66285 0.77643 0.0
O413 O 0.82852 0.66172 0.75604 0.0
O414 O 0.84327 0.58819 0.7754 0.0
C415 C 0.80668 0.66968 0.76307 0.0
O416 O 0.87214 0.70991 0.78901 0.0
C417 C 0.86229 0.58492 0.76566 0.0
O418 O 0.8917 0.67012 0.78077 0.0
O419 O 0.87602 0.60691 0.76166 0.0
C420 C 0.09617 0.0874 0.56325 0.0
O421 O 0.07187 0.07541 0.56334 0.0
Cd422 Cd 0.04006 0.07479 0.54294 0.0
O423 O 0.10612 0.09892 0.55168 0.0
Cd424 Cd 0.0949 0.10516 0.52545 0.0
C425 C 0.03913 0.1471 0.53517 0.0
O426 O 0.07197 0.06013 0.52434 0.0
O427 O 0.07 0.0838 0.50423 0.0
O428 O 0.14569 0.09809 0.52251 0.0
C429 C 0.06346 0.06145 0.51126 0.0
O430 O 0.02621 0.12498 0.53985 0.0
C431 C 0.14864 0.11689 0.51262 0.0
O432 O 0.0642 0.14547 0.5299 0.0
O433 O 0.12645 0.13041 0.50869 0.0
C434 C 0.65667 0.34273 0.31689 0.0
O435 O 0.66624 0.3175 0.3162 0.0
Cd436 Cd 0.66388 0.28868 0.29483 0.0
O437 O 0.64554 0.35459 0.30571 0.0
Cd438 Cd 0.63592 0.34433 0.27973 0.0
C439 C 0.59136 0.29038 0.28866 0.0
O440 O 0.67919 0.31901 0.27547 0.0
O441 O 0.64774 0.31469 0.25839 0.0
O442 O 0.65341 0.38998 0.27166 0.0
C443 C 0.67279 0.30956 0.26295 0.0
O444 O 0.61344 0.27619 0.29225 0.0
C445 C 0.62995 0.39869 0.2664 0.0
O446 O 0.59343 0.31612 0.28439 0.0
O447 O 0.60859 0.38216 0.2675 0.0
H448 H 0.95971 0.57508 -0.00896 0.0
H449 H 0.93365 0.50787 0.96174 0.0
H450 H -0.00407 0.54385 0.00152 0.0
H451 H 0.96905 0.47636 0.97254 0.0
H452 H 0.05427 0.43733 0.98284 0.0
H453 H 0.0198 0.47087 0.97274 0.0
H454 H 0.0022 0.50208 0.01628 0.0
H455 H 0.03738 0.46934 0.02627 0.0
C456 C 0.96144 0.55349 0.98702 0.0
C457 C 0.94404 0.54389 0.97554 0.0
C458 C 0.98214 0.5356 -0.00698 0.0
C459 C 0.98558 0.50774 0.98773 0.0
C460 C 0.96743 0.49793 0.9766 0.0
C461 C 0.94697 0.51587 0.97051 0.0
C462 C 0.04322 0.45158 -0.00979 0.0
C463 C 0.04837 0.45067 0.00532 0.0
C464 C 0.02332 0.47061 0.98446 0.0
C465 C 0.00801 0.48888 -0.00626 0.0
C466 C 0.0138 0.48848 0.00882 0.0
C467 C 0.03389 0.46964 0.01455 0.0
H468 H 0.72756 0.68541 0.21242 0.0
H469 H 0.65724 0.7168 0.23828 0.0
H470 H 0.75921 0.71974 0.22384 0.0
H471 H 0.6888 0.75201 0.24941 0.0
H472 H 0.80264 0.80177 0.23513 0.0
H473 H 0.76815 0.76984 0.22382 0.0
H474 H 0.72846 0.7559 0.26595 0.0
H475 H 0.76228 0.78862 0.27712 0.0
C476 C 0.71886 0.69977 0.22052 0.0
C477 C 0.68997 0.69852 0.22446 0.0
C478 C 0.73693 0.71961 0.22697 0.0
C479 C 0.72643 0.73884 0.23739 0.0
C480 C 0.69756 0.73733 0.24149 0.0
C481 C 0.67949 0.71724 0.23511 0.0
C482 C 0.78637 0.79206 0.24192 0.0
C483 C 0.7852 0.7975 0.25699 0.0
C484 C 0.76675 0.77364 0.23549 0.0
C485 C 0.74579 0.76008 0.24403 0.0
C486 C 0.74417 0.7662 0.25905 0.0
C487 C 0.76363 0.78483 0.26546 0.0
H488 H 0.55404 0.43196 0.49667 0.0
H489 H 0.54056 0.47014 0.45414 0.0
H490 H 0.52075 0.46583 0.50741 0.0
H491 H 0.50651 0.50312 0.46468 0.0
H492 H 0.4654 0.5746 0.49065 0.0
H493 H 0.50148 0.54321 0.4803 0.0
H494 H 0.47063 0.47422 0.50747 0.0
H495 H 0.43546 0.50589 0.51818 0.0
C496 C 0.54395 0.44759 0.48964 0.0
C497 C 0.54977 0.44839 0.4746 0.0
C498 C 0.52474 0.46684 0.49574 0.0
C499 C 0.51079 0.48702 0.48687 0.0
C500 C 0.51714 0.48812 0.47186 0.0
C501 C 0.53655 0.4691 0.4658 0.0
C502 C 0.46631 0.55269 0.49433 0.0
C503 C 0.44775 0.54264 0.50522 0.0
C504 C 0.48692 0.53469 0.4884 0.0
C505 C 0.48906 0.50627 0.49315 0.0
C506 C 0.47 0.49616 0.50382 0.0
C507 C 0.44967 0.51422 0.50986 0.0
H508 H 0.75853 0.30352 0.71227 0.0
H509 H 0.8251 0.27244 0.74084 0.0
H510 H 0.72543 0.26903 0.72262 0.0
H511 H 0.79236 0.23706 0.7508 0.0
H512 H 0.71785 0.19751 0.77559 0.0
H513 H 0.75129 0.23204 0.76574 0.0
H514 H 0.71632 0.21913 0.72244 0.0
H515 H 0.68192 0.18533 0.73249 0.0
C516 C 0.76605 0.28926 0.72077 0.0
C517 C 0.79432 0.29059 0.72577 0.0
C518 C 0.74719 0.26931 0.72659 0.0
C519 C 0.75633 0.25008 0.73742 0.0
C520 C 0.78455 0.25177 0.74258 0.0
C521 C 0.80333 0.27198 0.73687 0.0
C522 C 0.7174 0.20192 0.76395 0.0
C523 C 0.69723 0.18885 0.75479 0.0
C524 C 0.73667 0.22163 0.75829 0.0
C525 C 0.73641 0.22844 0.74332 0.0
C526 C 0.71669 0.21477 0.73409 0.0
C527 C 0.69715 0.19526 0.73979 0.0
H528 H 0.95806 0.41429 0.49043 0.0
H529 H 0.9328 0.48054 0.52043 0.0
H530 H 0.99174 0.44679 0.47891 0.0
H531 H 0.9656 0.51347 0.50853 0.0
H532 H 0.04932 0.55482 0.49476 0.0
H533 H 0.01558 0.52214 0.50629 0.0
H534 H -0.00583 0.4878 0.4638 0.0
H535 H 0.02864 0.51948 0.45245 0.0
C536 C 0.95942 0.43594 0.4944 0.0
C537 C 0.94294 0.44492 0.50633 0.0
C538 C 0.97863 0.45461 0.48778 0.0
C539 C 0.98143 0.48271 0.49284 0.0
C540 C 0.96438 0.49182 0.50456 0.0
C541 C 0.94542 0.47305 0.51129 0.0
C542 C 0.03744 0.54018 0.48795 0.0
C543 C 0.04163 0.53956 0.47276 0.0
C544 C 0.01798 0.52162 0.49451 0.0
C545 C 0.00216 0.50238 0.48595 0.0
C546 C 0.00636 0.50197 0.47074 0.0
C547 C 0.02602 0.52023 0.46422 0.0
H548 H 0.732 0.80848 0.71448 0.0
H549 H 0.66324 0.78003 0.74241 0.0
H550 H 0.76351 0.77323 0.72545 0.0
H551 H 0.69444 0.74401 0.75302 0.0
H552 H 0.76645 0.69975 0.77782 0.0
H553 H 0.73531 0.73668 0.76819 0.0
H554 H 0.76925 0.72262 0.72482 0.0
H555 H 0.80124 0.68636 0.7346 0.0
C556 C 0.72369 0.79473 0.72302 0.0
C557 C 0.69519 0.79685 0.72756 0.0
C558 C 0.74164 0.77437 0.72919 0.0
C559 C 0.73135 0.75553 0.73993 0.0
C560 C 0.70307 0.75834 0.74484 0.0
C561 C 0.68519 0.77893 0.73876 0.0
C562 C 0.76715 0.70445 0.76621 0.0
C563 C 0.78632 0.6903 0.75694 0.0
C564 C 0.74923 0.72555 0.76069 0.0
C565 C 0.74994 0.73272 0.74577 0.0
C566 C 0.76864 0.71801 0.73644 0.0
C567 C 0.78677 0.69708 0.74199 0.0
H568 H 0.46189 0.41313 -0.0075 0.0
H569 H 0.42999 0.4787 0.96359 0.0
H570 H 0.49612 0.44664 0.00268 0.0
H571 H 0.46335 0.51262 0.97418 0.0
H572 H 0.54743 0.55661 0.9841 0.0
H573 H 0.5131 0.52271 0.97419 0.0
H574 H 0.50039 0.48761 0.01752 0.0
H575 H 0.53551 0.52057 0.02724 0.0
C576 C 0.4619 0.43485 0.98851 0.0
C577 C 0.44343 0.44333 0.97723 0.0
C578 C 0.48144 0.4541 -0.00564 0.0
C579 C 0.4826 0.48229 0.98917 0.0
C580 C 0.46345 0.49092 0.97819 0.0
C581 C 0.44417 0.47158 0.97222 0.0
C582 C 0.53736 0.54151 -0.00855 0.0
C583 C 0.54415 0.54112 0.0064 0.0
C584 C 0.51754 0.52226 0.98582 0.0
C585 C 0.5039 0.50252 -0.00491 0.0
C586 C 0.51081 0.5022 0.01005 0.0
C587 C 0.53085 0.52118 0.01562 0.0
H588 H 0.80059 0.18193 0.24671 0.0
H589 H 0.76563 0.19874 0.20376 0.0
H590 H 0.7665 0.21504 0.25736 0.0
H591 H 0.73228 0.23257 0.21431 0.0
H592 H 0.65985 0.27333 0.24054 0.0
H593 H 0.69103 0.23746 0.22976 0.0
H594 H 0.76006 0.26562 0.25759 0.0
H595 H 0.72874 0.30062 0.26864 0.0
C596 C 0.78559 0.19269 0.23957 0.0
C597 C 0.78583 0.18793 0.22443 0.0
C598 C 0.76622 0.21178 0.24563 0.0
C599 C 0.74693 0.22666 0.23664 0.0
C600 C 0.74667 0.22125 0.22154 0.0
C601 C 0.76587 0.20197 0.2155 0.0
C602 C 0.68174 0.27188 0.24426 0.0
C603 C 0.69188 0.28958 0.25546 0.0
C604 C 0.69959 0.2514 0.23809 0.0
C605 C 0.72791 0.2485 0.24295 0.0
C606 C 0.73816 0.26683 0.25387 0.0
C607 C 0.7203 0.28705 0.2601 0.0
H608 H 0.26896 0.28281 0.77685 0.0
H609 H 0.3089 0.29659 0.73482 0.0
H610 H 0.23691 0.24817 0.76598 0.0
H611 H 0.27591 0.26276 0.72372 0.0
H612 H 0.23235 0.1806 0.71116 0.0
H613 H 0.26548 0.21332 0.72284 0.0
H614 H 0.19715 0.24479 0.75014 0.0
H615 H 0.16437 0.21111 0.73886 0.0
C616 C 0.27065 0.27864 0.76523 0.0
C617 C 0.29138 0.29236 0.75665 0.0
C618 C 0.25218 0.25888 0.75898 0.0
C619 C 0.25379 0.2527 0.74398 0.0
C620 C 0.27443 0.26666 0.73537 0.0
C621 C 0.29318 0.28618 0.74167 0.0
C622 C 0.22452 0.19437 0.71974 0.0
C623 C 0.19585 0.19339 0.72411 0.0
C624 C 0.24342 0.2133 0.72635 0.0
C625 C 0.23393 0.23186 0.73734 0.0
C626 C 0.20527 0.23053 0.74184 0.0
C627 C 0.18645 0.21132 0.73536 0.0
H628 H 0.22246 0.69665 0.27607 0.0
H629 H 0.18582 0.68523 0.23306 0.0
H630 H 0.25704 0.72997 0.26601 0.0
H631 H 0.22112 0.71784 0.22287 0.0
H632 H 0.26224 0.80295 0.21327 0.0
H633 H 0.22976 0.76809 0.22368 0.0
H634 H 0.29814 0.73456 0.25041 0.0
H635 H 0.33054 0.77029 0.24028 0.0
C636 C 0.22208 0.70096 0.26442 0.0
C637 C 0.20133 0.68859 0.25534 0.0
C638 C 0.242 0.71994 0.25865 0.0
C639 C 0.24166 0.72671 0.24368 0.0
C640 C 0.22152 0.71349 0.23452 0.0
C641 C 0.20144 0.6947 0.24032 0.0
C642 C 0.27031 0.78822 0.22143 0.0
C643 C 0.29889 0.78922 0.22596 0.0
C644 C 0.25177 0.76807 0.22729 0.0
C645 C 0.26148 0.74832 0.23771 0.0
C646 C 0.29 0.74964 0.24245 0.0
C647 C 0.30854 0.77003 0.23666 0.0
H648 H 0.33018 0.21685 0.24176 0.0
H649 H 0.26109 0.19006 0.2699 0.0
H650 H 0.29943 0.25329 0.23102 0.0
H651 H 0.23019 0.22564 0.2589 0.0
H652 H 0.18904 0.30834 0.24726 0.0
H653 H 0.22373 0.27618 0.25829 0.0
H654 H 0.2583 0.25811 0.21546 0.0
H655 H 0.22433 0.29102 0.20452 0.0
C656 C 0.30836 0.21857 0.24553 0.0
C657 C 0.29801 0.20074 0.25668 0.0
C658 C 0.29076 0.23938 0.23938 0.0
C659 C 0.26247 0.24253 0.24422 0.0
C660 C 0.25207 0.22425 0.25518 0.0
C661 C 0.26969 0.20367 0.26139 0.0
C662 C 0.20428 0.29773 0.24025 0.0
C663 C 0.20387 0.30196 0.22505 0.0
C664 C 0.22401 0.27918 0.24653 0.0
C665 C 0.2435 0.26431 0.23772 0.0
C666 C 0.24374 0.26941 0.22256 0.0
C667 C 0.22418 0.28816 0.21629 0.0
H668 H 0.22957 0.80753 0.76883 0.0
H669 H 0.16604 0.77898 0.7379 0.0
H670 H 0.26493 0.77709 0.75726 0.0
H671 H 0.20099 0.7476 0.7267 0.0
H672 H 0.27556 0.71387 0.70127 0.0
H673 H 0.24269 0.74758 0.71215 0.0
H674 H 0.27672 0.72799 0.75503 0.0
H675 H 0.31063 0.69504 0.74396 0.0
C676 C 0.22319 0.79467 0.75955 0.0
C677 C 0.1951 0.79555 0.75423 0.0
C678 C 0.24338 0.77709 0.75301 0.0
C679 C 0.23577 0.7598 0.74111 0.0
C680 C 0.20769 0.76098 0.7357 0.0
C681 C 0.18759 0.77885 0.74214 0.0
C682 C 0.27606 0.71682 0.71303 0.0
C683 C 0.2955 0.70179 0.72182 0.0
C684 C 0.25711 0.73603 0.71927 0.0
C685 C 0.25689 0.74032 0.73447 0.0
C686 C 0.27659 0.72545 0.74326 0.0
C687 C 0.29588 0.70647 0.73696 0.0
H688 H 0.53252 0.96783 0.52878 0.0
H689 H 0.54726 0.93302 0.48573 0.0
H690 H 0.49748 0.00056 0.51862 0.0
H691 H 0.51302 0.96654 0.47543 0.0
H692 H 0.42927 0.00716 0.46375 0.0
H693 H 0.46279 0.97438 0.47513 0.0
H694 H 0.49247 0.04174 0.50347 0.0
H695 H 0.45807 0.07423 0.49243 0.0
C696 C 0.52852 0.96745 0.5171 0.0
C697 C 0.54248 0.94783 0.50803 0.0
C698 C 0.50852 0.98628 0.51128 0.0
C699 C 0.50231 0.98604 0.49624 0.0
C700 C 0.51686 0.96684 0.48712 0.0
C701 C 0.53664 0.94781 0.49298 0.0
C702 C 0.44277 0.01485 0.47252 0.0
C703 C 0.4412 0.04323 0.47718 0.0
C704 C 0.46215 -0.00384 0.47894 0.0
C705 C 0.4806 0.00555 0.49005 0.0
C706 C 0.47842 0.03378 0.49501 0.0
C707 C 0.45876 0.05241 0.48868 0.0
H708 H 0.02988 0.91189 -0.00775 0.0
H709 H 0.05773 0.97763 0.96231 0.0
H710 H -0.00472 0.94456 0.00274 0.0
H711 H 0.02391 0.01069 0.97316 0.0
H712 H 0.93865 0.05157 0.98429 0.0
H713 H 0.97347 0.01868 0.97398 0.0
H714 H 0.99138 0.98614 0.01735 0.0
H715 H 0.95593 0.01809 0.0275 0.0
C716 C 0.0289 0.93347 0.98808 0.0
C717 C 0.04637 0.94223 0.97644 0.0
C718 C 0.00915 0.95222 -0.00589 0.0
C719 C 0.00673 0.98018 0.98872 0.0
C720 C 0.02483 0.98912 0.97735 0.0
C721 C 0.04437 0.97028 0.97123 0.0
C722 C 0.94997 0.03726 -0.00844 0.0
C723 C 0.94457 0.0373 0.00666 0.0
C724 C 0.97005 0.01859 0.9857 0.0
C725 C 0.98525 -0.00014 -0.00513 0.0
C726 C 0.97974 -3e-05 0.00997 0.0
C727 C 0.9595 0.01837 0.01579 0.0
H728 H 0.52302 0.07457 0.98864 0.0
H729 H 0.55227 0.00585 0.96119 0.0
H730 H 0.48824 0.04275 -6e-05 0.0
H731 H 0.51844 0.97378 0.97284 0.0
H732 H 0.43545 0.93131 0.98454 0.0
H733 H 0.46844 0.96512 0.97342 0.0
H734 H 0.48397 0.00266 0.01585 0.0
H735 H 0.45014 0.96965 0.02681 0.0
C736 C 0.52226 0.05259 0.98519 0.0
C737 C 0.54015 0.04268 0.97401 0.0
C738 C 0.50241 0.03432 -0.00833 0.0
C739 C 0.50039 0.00579 0.98718 0.0
C740 C 0.51895 -0.00421 0.97629 0.0
C741 C 0.5385 0.0141 0.96971 0.0
C742 C 0.44579 0.94694 -0.00856 0.0
C743 C 0.44034 0.94784 0.00651 0.0
C744 C 0.46483 0.96616 0.98511 0.0
C745 C 0.47904 0.98641 -0.00622 0.0
C746 C 0.47314 0.98757 0.00883 0.0
C747 C 0.45386 0.96857 0.01513 0.0
H748 H 0.03484 0.021 0.52666 0.0
H749 H 0.04565 0.05505 0.48302 0.0
H750 H -0.00112 0.98818 0.51767 0.0
H751 H 0.01046 0.02125 0.47384 0.0
H752 H 0.92645 0.97828 0.46443 0.0
H753 H 0.96057 0.0121 0.47444 0.0
H754 H 0.99317 0.94671 0.50336 0.0
H755 H 0.95818 0.91332 0.49376 0.0
C756 C 0.02977 0.02119 0.51509 0.0
C757 C 0.04298 0.04057 0.50552 0.0
C758 C 0.00923 0.00229 0.50993 0.0
C759 C 0.00173 0.00211 0.49504 0.0
C760 C 0.01534 0.02122 0.48542 0.0
C761 C 0.03566 0.04041 0.49064 0.0
C762 C 0.94073 0.97128 0.47304 0.0
C763 C 0.93975 0.94322 0.47832 0.0
C764 C 0.96045 0.99055 0.47868 0.0
C765 C 0.97983 0.98203 0.48958 0.0
C766 C 0.97835 0.95408 0.49508 0.0
C767 C 0.95836 0.93491 0.48957 0.0
H768 H 0.91947 0.19542 0.0241 0.0
H769 H 0.00075 0.16223 0.0386 0.0
H770 H 0.94009 0.24299 0.02254 0.0
H771 H 0.02109 0.20978 0.03727 0.0
H772 H 0.05643 0.29193 0.01916 0.0
H773 H 0.0342 0.24521 0.01889 0.0
H774 H 0.95861 0.28023 0.03893 0.0
H775 H 0.98066 0.3273 0.03898 0.0
C776 C 0.94171 0.19824 0.02697 0.0
C777 C 0.95848 0.17499 0.03146 0.0
C778 C 0.95345 0.22553 0.02614 0.0
C779 C 0.98221 0.2301 0.02975 0.0
C780 C -0.00103 0.20686 0.03421 0.0
C781 C 0.98725 0.17962 0.03505 0.0
C782 C 0.035 0.28979 0.02343 0.0
C783 C 0.02039 0.31335 0.02919 0.0
C784 C 0.02234 0.26295 0.02335 0.0
C785 C -0.00521 0.259 0.02902 0.0
C786 C 0.97981 0.28267 0.03439 0.0
C787 C 0.99249 0.3096 0.03447 0.0
H788 H 0.07636 0.75186 0.29187 0.0
H789 H 0.03967 0.67443 0.27462 0.0
H790 H 0.02911 0.77339 0.29251 0.0
H791 H 0.99261 0.69619 0.27503 0.0
H792 H 0.94549 0.8122 0.27634 0.0
H793 H 0.99243 0.79034 0.27562 0.0
H794 H 0.95699 0.71218 0.29278 0.0
H795 H 0.90976 0.73387 0.29327 0.0
C796 C 0.05828 0.73949 0.28814 0.0
C797 C 0.06182 0.71142 0.2832 0.0
C798 C 0.03123 0.75187 0.28845 0.0
C799 C 0.00715 0.73646 0.28384 0.0
C800 C 0.0107 0.70846 0.27884 0.0
C801 C 0.03773 0.69608 0.27852 0.0
C802 C 0.94762 0.79033 0.27995 0.0
C803 C 0.92382 0.77477 0.28486 0.0
C804 C 0.9746 0.77788 0.27961 0.0
C805 C 0.97842 0.74958 0.28418 0.0
C806 C 0.95465 0.73395 0.28904 0.0
C807 C 0.92762 0.74642 0.28938 0.0
H808 H 0.49738 0.6602 0.54592 0.0
H809 H 0.41882 0.69647 0.52954 0.0
H810 H 0.51904 0.7073 0.54605 0.0
H811 H 0.44075 0.74349 0.52943 0.0
H812 H 0.48126 0.82672 0.54562 0.0
H813 H 0.45875 0.77993 0.54622 0.0
H814 H 0.53514 0.74259 0.5282 0.0
H815 H 0.55785 0.78913 0.52782 0.0
C816 C 0.48472 0.67819 0.54234 0.0
C817 C 0.45638 0.67453 0.53769 0.0
C818 C 0.49721 0.70516 0.54233 0.0
C819 C 0.48164 0.72908 0.53768 0.0
C820 C 0.4532 0.7255 0.53321 0.0
C821 C 0.4407 0.69852 0.5332 0.0
C822 C 0.49325 0.80854 0.54177 0.0
C823 C 0.52138 0.81168 0.5367 0.0
C824 C 0.48029 0.78176 0.54206 0.0
C825 C 0.49521 0.75757 0.53731 0.0
C826 C 0.52325 0.76075 0.53215 0.0
C827 C 0.53619 0.78749 0.53185 0.0
H828 H 0.53818 0.17445 0.79032 0.0
H829 H 0.5769 0.25333 0.7764 0.0
H830 H 0.4919 0.1975 0.79134 0.0
H831 H 0.53028 0.27616 0.77629 0.0
H832 H 0.44763 0.31716 0.79063 0.0
H833 H 0.49427 0.2945 0.79041 0.0
H834 H 0.4547 0.21493 0.77786 0.0
H835 H 0.40807 0.23731 0.77922 0.0
C836 C 0.53662 0.19668 0.78725 0.0
C837 C 0.56103 0.21214 0.78328 0.0
C838 C 0.51002 0.20992 0.78771 0.0
C839 C 0.50706 0.23879 0.78381 0.0
C840 C 0.53163 0.25411 0.77967 0.0
C841 C 0.55837 0.24101 0.77961 0.0
C842 C 0.44904 0.2948 0.78787 0.0
C843 C 0.42433 0.27891 0.78501 0.0
C844 C 0.47581 0.28179 0.78762 0.0
C845 C 0.47852 0.25275 0.78411 0.0
C846 C 0.45362 0.2371 0.78098 0.0
C847 C 0.42682 0.24994 0.78163 0.0
H848 H 0.00128 0.82684 0.43768 0.0
H849 H 0.92543 0.7869 0.45518 0.0
H850 H 0.02429 0.78034 0.43619 0.0
H851 H 0.94858 0.74078 0.45394 0.0
H852 H 0.98582 0.66028 0.43469 0.0
H853 H 0.96427 0.70731 0.43538 0.0
H854 H 0.04292 0.74242 0.45213 0.0
H855 H 0.06479 0.69541 0.45118 0.0
C856 C 0.98957 0.80821 0.44127 0.0
C857 C 0.96148 0.8106 0.4465 0.0
C858 C 0.0028 0.78161 0.44048 0.0
C859 C 0.98818 0.75689 0.44488 0.0
C860 C 0.96023 0.75936 0.45023 0.0
C861 C 0.94703 0.78587 0.45102 0.0
C862 C -0.00141 0.678 0.4385 0.0
C863 C 0.02701 0.67403 0.44294 0.0
C864 C 0.98617 0.70494 0.43896 0.0
C865 C 0.00185 0.72853 0.44389 0.0
C866 C 0.03039 0.72469 0.44815 0.0
C867 C 0.04284 0.69771 0.44768 0.0
H868 H 0.54516 0.81066 0.68364 0.0
H869 H 0.58167 0.73359 0.70131 0.0
H870 H 0.4987 0.78793 0.68246 0.0
H871 H 0.53474 0.71119 0.70114 0.0
H872 H 0.45073 0.67038 0.68784 0.0
H873 H 0.4982 0.69159 0.68734 0.0
H874 H 0.46129 0.77382 0.69697 0.0
H875 H 0.414 0.75282 0.69646 0.0
C876 C 0.5431 0.78888 0.68742 0.0
C877 C 0.5669 0.77389 0.69262 0.0
C878 C 0.5164 0.77586 0.68687 0.0
C879 C 0.51268 0.74774 0.6919 0.0
C880 C 0.53671 0.73269 0.69698 0.0
C881 C 0.56362 0.74554 0.69717 0.0
C882 C 0.45291 0.693 0.68981 0.0
C883 C 0.42875 0.71002 0.69209 0.0
C884 C 0.48012 0.70518 0.68962 0.0
C885 C 0.48377 0.73454 0.69205 0.0
C886 C 0.45945 0.75133 0.69464 0.0
C887 C 0.43227 0.73927 0.69448 0.0
H888 H 0.48782 0.16061 0.93242 0.0
H889 H 0.56655 0.19673 0.94864 0.0
H890 H 0.46612 0.20763 0.9325 0.0
H891 H 0.54456 0.24369 0.94897 0.0
H892 H 0.5027 0.32766 0.93463 0.0
H893 H 0.52567 0.28117 0.93289 0.0
H894 H 0.45028 0.24141 0.95088 0.0
H895 H 0.42717 0.28751 0.95237 0.0
C896 C 0.50051 0.17855 0.93601 0.0
C897 C 0.52888 0.17486 0.9406 0.0
C898 C 0.48802 0.20548 0.93611 0.0
C899 C 0.50358 0.22933 0.94083 0.0
C900 C 0.53211 0.22577 0.94515 0.0
C901 C 0.54464 0.19882 0.94504 0.0
C902 C 0.49104 0.30898 0.9382 0.0
C903 C 0.46309 0.31132 0.94362 0.0
C904 C 0.50424 0.28239 0.93725 0.0
C905 C 0.48973 0.25763 0.94169 0.0
C906 C 0.46185 0.26002 0.94714 0.0
C907 C 0.44868 0.28652 0.94809 0.0
H908 H 0.04361 0.30825 0.21034 0.0
H909 H 0.07889 0.2317 0.19147 0.0
H910 H -0.00331 0.28626 0.21088 0.0
H911 H 0.03165 0.20989 0.19178 0.0
H912 H 0.94731 0.17118 0.20731 0.0
H913 H -0.00525 0.19217 0.2085 0.0
H914 H 0.96074 0.2722 0.19302 0.0
H915 H 0.91317 0.25144 0.19207 0.0
C916 C 0.0414 0.2867 0.20632 0.0
C917 C 0.06501 0.27178 0.20079 0.0
C918 C 0.01444 0.27418 0.20656 0.0
C919 C 0.01043 0.24646 0.20126 0.0
C920 C 0.03412 0.23123 0.19605 0.0
C921 C 0.06116 0.24376 0.19582 0.0
C922 C 0.94989 0.19329 0.20421 0.0
C923 C 0.92642 0.20965 0.19959 0.0
C924 C 0.97713 0.20524 0.20482 0.0
C925 C 0.98148 0.23381 0.20085 0.0
C926 C 0.958 0.25022 0.19633 0.0
C927 C 0.93076 0.23828 0.19572 0.0
H928 H 0.92301 0.69768 0.94847 0.0
H929 H 0.00131 0.65937 0.9332 0.0
H930 H 0.94567 0.74425 0.94809 0.0
H931 H 0.02375 0.70615 0.93251 0.0
H932 H 0.06311 0.78736 0.95135 0.0
H933 H 0.04 0.74117 0.95013 0.0
H934 H 0.96482 0.78035 0.93158 0.0
H935 H 0.98776 0.82689 0.93309 0.0
C936 C 0.94499 0.6992 0.94491 0.0
C937 C 0.96041 0.67476 0.94095 0.0
C938 C 0.95791 0.72595 0.9446 0.0
C939 C 0.98651 0.72887 0.9403 0.0
C940 C 0.00178 0.70452 0.93608 0.0
C941 C 0.98889 0.67773 0.93641 0.0
C942 C 0.04166 0.7862 0.94699 0.0
C943 C 0.02725 0.81086 0.94236 0.0
C944 C 0.0285 0.75965 0.94619 0.0
C945 C 0.00063 0.75709 0.94071 0.0
C946 C 0.98622 0.7817 0.936 0.0
C947 C -0.0006 0.80833 0.93681 0.0
H948 H 0.95052 0.3121 0.69983 0.0
H949 H 0.91145 0.23511 0.68346 0.0
H950 H -0.00287 0.28949 0.69877 0.0
H951 H 0.95824 0.21274 0.68212 0.0
H952 H 0.04111 0.17247 0.69909 0.0
H953 H -0.00546 0.19519 0.6989 0.0
H954 H 0.03229 0.27196 0.68137 0.0
H955 H 0.07911 0.24944 0.68183 0.0
C956 C 0.95187 0.29042 0.69591 0.0
C957 C 0.92721 0.27538 0.69179 0.0
C958 C 0.97863 0.27753 0.69522 0.0
C959 C 0.98137 0.24933 0.69036 0.0
C960 C 0.95677 0.23438 0.68609 0.0
C961 C 0.92998 0.24726 0.6868 0.0
C962 C 0.03953 0.19418 0.69516 0.0
C963 C 0.06389 0.20917 0.69052 0.0
C964 C 0.01277 0.20714 0.69497 0.0
C965 C 0.00972 0.23536 0.69012 0.0
C966 C 0.03401 0.25029 0.68534 0.0
C967 C 0.06081 0.23733 0.68554 0.0
H968 H 0.5669 0.28928 0.43989 0.0
H969 H 0.4858 0.32691 0.45091 0.0
H970 H 0.5447 0.24259 0.43879 0.0
H971 H 0.46374 0.28001 0.45083 0.0
H972 H 0.42528 0.19698 0.43622 0.0
H973 H 0.44789 0.24355 0.43608 0.0
H974 H 0.52588 0.20569 0.45237 0.0
H975 H 0.5036 0.15893 0.4515 0.0
C976 C 0.54435 0.28744 0.44229 0.0
C977 C 0.52803 0.31166 0.44546 0.0
C978 C 0.53159 0.26062 0.44176 0.0
C979 C 0.50233 0.2573 0.44474 0.0
C980 C 0.48616 0.28165 0.44813 0.0
C981 C 0.4988 0.30857 0.44831 0.0
C982 C 0.44731 0.1987 0.43969 0.0
C983 C 0.46274 0.17441 0.44384 0.0
C984 C 0.46026 0.22544 0.43974 0.0
C985 C 0.48876 0.22863 0.44431 0.0
C986 C 0.50411 0.20416 0.4485 0.0
C987 C 0.49133 0.17731 0.4481 0.0
H988 H 0.45166 0.81335 0.19923 0.0
H989 H 0.41046 0.7382 0.18199 0.0
H990 H 0.49765 0.78954 0.19779 0.0
H991 H 0.45661 0.71462 0.18033 0.0
H992 H 0.53863 0.67191 0.19759 0.0
H993 H 0.49251 0.6956 0.19724 0.0
H994 H 0.53206 0.77158 0.17986 0.0
H995 H 0.57837 0.74809 0.18043 0.0
C996 C 0.4524 0.79182 0.19505 0.0
C997 C 0.42734 0.77765 0.19079 0.0
C998 C 0.47881 0.77826 0.19413 0.0
C999 C 0.48074 0.75021 0.18895 0.0
C1000 C 0.45574 0.73613 0.18453 0.0
C1001 C 0.42932 0.74971 0.18543 0.0
C1002 C 0.53753 0.69362 0.19363 0.0
C1003 C 0.56225 0.70814 0.18911 0.0
C1004 C 0.51104 0.70714 0.19335 0.0
C1005 C 0.50867 0.73547 0.18855 0.0
C1006 C 0.53328 0.74984 0.18379 0.0
C1007 C 0.55979 0.73632 0.18405 0.0
H1008 H 0.9215 0.28942 0.53285 0.0
H1009 H 0.00163 0.32677 0.5463 0.0
H1010 H 0.94374 0.2427 0.53227 0.0
H1011 H 0.0237 0.27983 0.54598 0.0
H1012 H 0.06023 0.19833 0.52602 0.0
H1013 H 0.03765 0.24475 0.52767 0.0
H1014 H 0.96418 0.20637 0.54834 0.0
H1015 H 0.98652 0.15969 0.54646 0.0
C1016 C 0.94381 0.28766 0.53579 0.0
C1017 C 0.95983 0.31189 0.53956 0.0
C1018 C 0.9565 0.26083 0.53554 0.0
C1019 C 0.98548 0.25759 0.53904 0.0
C1020 C 0.00141 0.28172 0.54303 0.0
C1021 C 0.98872 0.30859 0.54329 0.0
C1022 C 0.03924 0.19972 0.53091 0.0
C1023 C 0.02516 0.17525 0.53609 0.0
C1024 C 0.0264 0.22639 0.53195 0.0
C1025 C -0.0008 0.22924 0.53818 0.0
C1026 C 0.98506 0.2048 0.54335 0.0
C1027 C -0.00209 0.17808 0.54232 0.0
H1028 H 0.44919 0.17348 0.28131 0.0
H1029 H 0.41138 0.24978 0.29913 0.0
H1030 H 0.49578 0.19638 0.28148 0.0
H1031 H 0.45813 0.27243 0.29954 0.0
H1032 H 0.53974 0.31354 0.28138 0.0
H1033 H 0.49317 0.29062 0.28207 0.0
H1034 H 0.53199 0.21355 0.29851 0.0
H1035 H 0.57868 0.23621 0.29757 0.0
C1036 C 0.45082 0.19506 0.28536 0.0
C1037 C 0.42652 0.20982 0.29017 0.0
C1038 C 0.47756 0.20812 0.28553 0.0
C1039 C 0.48061 0.23621 0.29051 0.0
C1040 C 0.45639 0.25088 0.29546 0.0
C1041 C 0.42963 0.23783 0.29529 0.0
C1042 C 0.53838 0.29172 0.28516 0.0
C1043 C 0.56297 0.2767 0.28938 0.0
C1044 C 0.51165 0.27865 0.28564 0.0
C1045 C 0.50892 0.25028 0.29034 0.0
C1046 C 0.53346 0.23532 0.29466 0.0
C1047 C 0.5602 0.24838 0.29419 0.0
H1048 H 0.50279 0.82814 0.04595 0.0
H1049 H 0.42521 0.78986 0.02958 0.0
H1050 H 0.52539 0.78139 0.04649 0.0
H1051 H 0.44796 0.74342 0.02989 0.0
H1052 H 0.48808 0.6611 0.04642 0.0
H1053 H 0.46586 0.70794 0.04726 0.0
H1054 H 0.54216 0.74551 0.02906 0.0
H1055 H 0.5646 0.69888 0.02843 0.0
C1056 C 0.49058 0.80982 0.04244 0.0
C1057 C 0.4622 0.81278 0.03771 0.0
C1058 C 0.50357 0.78307 0.04269 0.0
C1059 C 0.48843 0.75874 0.03825 0.0
C1060 C 0.46005 0.7617 0.03358 0.0
C1061 C 0.44709 0.78839 0.03331 0.0
C1062 C 0.50015 0.67934 0.04263 0.0
C1063 C 0.5281 0.6762 0.03733 0.0
C1064 C 0.48737 0.70616 0.04305 0.0
C1065 C 0.50226 0.73039 0.03821 0.0
C1066 C 0.53027 0.72729 0.03303 0.0
C1067 C 0.54304 0.70051 0.03259 0.0
H1068 H 0.9073 0.75029 0.79304 0.0
H1069 H 0.94468 0.67312 0.77598 0.0
H1070 H 0.95416 0.77271 0.79316 0.0
H1071 H 0.99138 0.69579 0.77586 0.0
H1072 H 0.03673 0.81279 0.77624 0.0
H1073 H 0.99006 0.79011 0.77601 0.0
H1074 H 0.02729 0.71281 0.79313 0.0
H1075 H 0.07416 0.73527 0.79311 0.0
C1076 C 0.92545 0.73815 0.78924 0.0
C1077 C 0.92222 0.70989 0.78452 0.0
C1078 C 0.95229 0.75106 0.78925 0.0
C1079 C 0.97647 0.73601 0.78452 0.0
C1080 C 0.97322 0.70781 0.77975 0.0
C1081 C 0.9464 0.69489 0.77974 0.0
C1082 C 0.03502 0.79094 0.77995 0.0
C1083 C 0.05922 0.77584 0.78469 0.0
C1084 C 0.00821 0.77801 0.77989 0.0
C1085 C 0.00498 0.7497 0.78457 0.0
C1086 C 0.02915 0.73456 0.78929 0.0
C1087 C 0.05599 0.74749 0.78935 0.0
H1088 H 0.3287 0.34284 -0.00716 0.0
H1089 H 0.28775 0.3853 0.95646 0.0
H1090 H 0.28241 0.33818 0.00508 0.0
H1091 H 0.24163 0.38012 0.96856 0.0
H1092 H 0.16122 0.34305 0.98944 0.0
H1093 H 0.20786 0.33856 0.97772 0.0
H1094 H 0.24757 0.37863 0.01498 0.0
H1095 H 0.20093 0.38361 0.02665 0.0
C1096 C 0.30978 0.35078 0.98739 0.0
C1097 C 0.31174 0.36458 0.97376 0.0
C1098 C 0.28342 0.34817 -0.00561 0.0
C1099 C 0.25864 0.35875 0.98771 0.0
C1100 C 0.26047 0.37158 0.97385 0.0
C1101 C 0.28683 0.37469 0.96699 0.0
C1102 C 0.17995 0.35056 -0.00479 0.0
C1103 C 0.1775 0.3639 0.00889 0.0
C1104 C 0.20653 0.34802 0.98849 0.0
C1105 C 0.23111 0.3583 -0.00452 0.0
C1106 C 0.22887 0.37038 0.00946 0.0
C1107 C 0.20222 0.37337 0.01607 0.0
H1108 H 0.8893 0.07522 0.24125 0.0
H1109 H 0.84711 0.03412 0.20492 0.0
H1110 H 0.89282 0.02943 0.2539 0.0
H1111 H 0.85114 0.98829 0.21752 0.0
H1112 H 0.88826 0.90854 0.24039 0.0
H1113 H 0.89213 0.95416 0.22756 0.0
H1114 H 0.85129 -0.00388 0.26389 0.0
H1115 H 0.8469 0.95051 0.27664 0.0
C1116 C 0.88117 0.05635 0.23589 0.0
C1117 C 0.86778 0.05817 0.22215 0.0
C1118 C 0.88312 0.03026 0.24314 0.0
C1119 C 0.87222 0.00554 0.23664 0.0
C1120 C 0.85986 0.00713 0.22267 0.0
C1121 C 0.85743 0.0333 0.21553 0.0
C1122 C 0.88038 0.92756 0.24569 0.0
C1123 C 0.86716 0.92606 0.25947 0.0
C1124 C 0.88252 0.95354 0.23833 0.0
C1125 C 0.872 0.97845 0.24478 0.0
C1126 C 0.85973 0.97714 0.25877 0.0
C1127 C 0.8571 0.9511 0.26601 0.0
H1128 H 0.17218 0.64917 0.47734 0.0
H1129 H 0.1937 0.56753 0.4587 0.0
H1130 H 0.21829 0.65033 0.48985 0.0
H1131 H 0.23965 0.56884 0.47111 0.0
H1132 H 0.29785 0.5636 0.51122 0.0
H1133 H 0.25334 0.56554 0.49755 0.0
H1134 H 0.27159 0.65222 0.48479 0.0
H1135 H 0.31636 0.6504 0.49857 0.0
C1136 C 0.18685 0.63165 0.4758 0.0
C1137 C 0.17926 0.60815 0.46715 0.0
C1138 C 0.21324 0.63238 0.4829 0.0
C1139 C 0.23234 0.60954 0.48155 0.0
C1140 C 0.2251 0.58652 0.47252 0.0
C1141 C 0.19886 0.58586 0.46536 0.0
C1142 C 0.29239 0.58312 0.50554 0.0
C1143 C 0.31061 0.60683 0.50593 0.0
C1144 C 0.267 0.58415 0.49764 0.0
C1145 C 0.25919 0.60894 0.49003 0.0
C1146 C 0.27711 0.63288 0.49061 0.0
C1147 C 0.30272 0.63179 0.49845 0.0
H1148 H 0.63103 0.03413 0.77463 0.0
H1149 H 0.59415 0.07705 0.73725 0.0
H1150 H 0.62658 0.9886 0.76195 0.0
H1151 H 0.59029 0.03147 0.72448 0.0
H1152 H 0.63884 0.95157 0.70355 0.0
H1153 H 0.63264 -0.00276 0.71588 0.0
H1154 H 0.58575 0.95559 0.75049 0.0
H1155 H 0.59138 0.90988 0.73803 0.0
C1156 C 0.62172 0.03377 0.76377 0.0
C1157 C 0.61306 0.05906 0.75687 0.0
C1158 C 0.61904 0.00776 0.75658 0.0
C1159 C 0.60814 0.00671 0.74228 0.0
C1160 C 0.5988 0.03187 0.73551 0.0
C1161 C 0.60095 0.05783 0.74282 0.0
C1162 C 0.62686 0.95224 0.71368 0.0
C1163 C 0.61571 0.92724 0.71989 0.0
C1164 C 0.62319 0.97834 0.72067 0.0
C1165 C 0.60877 0.97974 0.7341 0.0
C1166 C 0.59698 0.9549 0.74014 0.0
C1167 C 0.60015 0.92887 0.733 0.0
H1168 H 0.65986 0.63994 0.98741 0.0
H1169 H 0.70264 0.60176 0.02448 0.0
H1170 H 0.70559 0.64377 0.97459 0.0
H1171 H 0.7483 0.60622 0.01177 0.0
H1172 H 0.82705 0.64346 0.98817 0.0
H1173 H 0.78108 0.64808 0.00063 0.0
H1174 H 0.74028 0.60136 0.96581 0.0
H1175 H 0.78624 0.59616 0.95348 0.0
C1176 C 0.67908 0.63281 -0.00711 0.0
C1177 C 0.67779 0.6204 0.00688 0.0
C1178 C 0.70511 0.63494 0.98555 0.0
C1179 C 0.73025 0.62531 -0.00775 0.0
C1180 C 0.72914 0.61398 0.00646 0.0
C1181 C 0.70306 0.61129 0.01367 0.0
C1182 C 0.8082 0.63446 0.98311 0.0
C1183 C 0.81014 0.61928 0.96993 0.0
C1184 C 0.78202 0.63707 -0.00976 0.0
C1185 C 0.75735 0.62508 0.98412 0.0
C1186 C 0.75907 0.61095 0.97065 0.0
C1187 C 0.78532 0.60784 0.96367 0.0
H1188 H 0.16493 0.94177 0.76648 0.0
H1189 H 0.0825 0.92055 0.74828 0.0
H1190 H 0.16394 0.98721 0.75366 0.0
H1191 H 0.08162 0.96634 0.73539 0.0
H1192 H 0.08352 0.06577 0.72793 0.0
H1193 H 0.08087 0.02021 0.74097 0.0
H1194 H 0.16634 0.00016 0.72681 0.0
H1195 H 0.16908 0.04538 0.71384 0.0
C1196 C 0.1465 0.94688 0.75982 0.0
C1197 C 0.12386 0.92753 0.7583 0.0
C1198 C 0.14603 0.97283 0.75243 0.0
C1199 C 0.12284 0.98008 0.74345 0.0
C1200 C 0.09971 0.96122 0.74229 0.0
C1201 C 0.10028 0.93504 0.74961 0.0
C1202 C 0.10164 0.05153 0.72755 0.0
C1203 C 0.12656 0.05918 0.71995 0.0
C1204 C 0.10007 0.02548 0.73495 0.0
C1205 C 0.1235 0.0069 0.73498 0.0
C1206 C 0.14813 0.01433 0.72713 0.0
C1207 C 0.14962 0.04015 0.71965 0.0
H1208 H 0.78621 0.39147 0.52664 0.0
H1209 H 0.82891 0.34566 0.49207 0.0
H1210 H 0.74088 0.38635 0.51365 0.0
H1211 H 0.78356 0.34115 0.47895 0.0
H1212 H 0.70472 0.38633 0.4547 0.0
H1213 H 0.75022 0.38246 0.46767 0.0
H1214 H 0.70737 0.34351 0.50442 0.0
H1215 H 0.66189 0.34678 0.49138 0.0
C1216 C 0.78584 0.38017 0.51632 0.0
C1217 C 0.81099 0.36904 0.51031 0.0
C1218 C 0.75995 0.37712 0.50896 0.0
C1219 C 0.75894 0.36338 0.49536 0.0
C1220 C 0.78396 0.35185 0.48944 0.0
C1221 C 0.80978 0.35438 0.49695 0.0
C1222 C 0.7051 0.37659 0.46546 0.0
C1223 C 0.67984 0.36696 0.47208 0.0
C1224 C 0.73108 0.37426 0.47282 0.0
C1225 C 0.73208 0.36276 0.487 0.0
C1226 C 0.70698 0.35251 0.49349 0.0
C1227 C 0.68108 0.35431 0.48602 0.0
H1228 H 0.40527 0.05448 0.26425 0.0
H1229 H 0.31868 0.06486 0.24914 0.0
H1230 H 0.40715 0.00748 0.25289 0.0
H1231 H 0.32097 0.01914 0.23697 0.0
H1232 H 0.31868 0.92546 0.23072 0.0
H1233 H 0.31973 0.97145 0.24261 0.0
H1234 H 0.40893 0.98059 0.23133 0.0
H1235 H 0.40808 0.93329 0.22024 0.0
C1236 C 0.38684 0.04682 0.25829 0.0
C1237 C 0.36172 0.06299 0.2577 0.0
C1238 C 0.38791 0.01999 0.25171 0.0
C1239 C 0.36406 0.00919 0.24417 0.0
C1240 C 0.33943 0.02618 0.24309 0.0
C1241 C 0.33815 0.05254 0.24996 0.0
C1242 C 0.33853 0.93728 0.23085 0.0
C1243 C 0.36325 0.92601 0.2245 0.0
C1244 C 0.33913 0.96382 0.23755 0.0
C1245 C 0.36428 0.98016 0.23771 0.0
C1246 C 0.38922 0.96859 0.23154 0.0
C1247 C 0.38876 0.94158 0.22512 0.0
H1248 H 0.78462 0.885 0.45674 0.0
H1249 H 0.82466 0.8418 0.49316 0.0
H1250 H 0.73833 0.88062 0.46882 0.0
H1251 H 0.7783 0.83794 0.50535 0.0
H1252 H 0.69878 0.88482 0.52734 0.0
H1253 H 0.74489 0.8794 0.51521 0.0
H1254 H 0.70337 0.84 0.47828 0.0
H1255 H 0.65718 0.8449 0.4905 0.0
C1256 C 0.78346 0.87437 0.46726 0.0
C1257 C 0.80817 0.86387 0.47407 0.0
C1258 C 0.75701 0.87172 0.47411 0.0
C1259 C 0.75493 0.85899 0.48797 0.0
C1260 C 0.7795 0.84789 0.49465 0.0
C1261 C 0.80591 0.85005 0.48768 0.0
C1262 C 0.69955 0.8747 0.51671 0.0
C1263 C 0.67446 0.86542 0.50981 0.0
C1264 C 0.72589 0.87144 0.50984 0.0
C1265 C 0.72751 0.85931 0.49585 0.0
C1266 C 0.70254 0.84946 0.48906 0.0
C1267 C 0.67622 0.85222 0.49606 0.0
H1268 H 0.31427 0.56613 0.72894 0.0
H1269 H 0.40159 0.55379 0.71556 0.0
H1270 H 0.31522 0.52129 0.74211 0.0
H1271 H 0.40214 0.50751 0.72781 0.0
H1272 H 0.40201 0.43621 0.76182 0.0
H1273 H 0.40312 0.48258 0.74968 0.0
H1274 H 0.31369 0.47334 0.7388 0.0
H1275 H 0.31238 0.42842 0.75188 0.0
C1276 C 0.33357 0.55348 0.72866 0.0
C1277 C 0.35779 0.56322 0.7212 0.0
C1278 C 0.33411 0.52759 0.73611 0.0
C1279 C 0.35863 0.51033 0.7359 0.0
C1280 C 0.38298 0.52027 0.72842 0.0
C1281 C 0.38266 0.54666 0.7213 0.0
C1282 C 0.38265 0.44436 0.75687 0.0
C1283 C 0.35705 0.42904 0.7579 0.0
C1284 C 0.38327 0.47081 0.7498 0.0
C1285 C 0.35843 0.48204 0.74331 0.0
C1286 C 0.33306 0.46604 0.74404 0.0
C1287 C 0.3323 0.4401 0.75144 0.0
H1288 H 0.8145 0.14857 -0.00055 0.0
H1289 H 0.79267 0.06642 0.01772 0.0
H1290 H 0.76874 0.14986 0.98663 0.0
H1291 H 0.74704 0.06785 0.00496 0.0
H1292 H 0.68872 0.06395 0.96489 0.0
H1293 H 0.73344 0.06542 0.97842 0.0
H1294 H 0.71549 0.15166 -0.00827 0.0
H1295 H 0.67055 0.1503 0.9781 0.0
C1296 C 0.79984 0.13094 0.00083 0.0
C1297 C 0.80722 0.10731 0.0095 0.0
C1298 C 0.77366 0.13175 -0.00646 0.0
C1299 C 0.75454 0.10884 -0.00528 0.0
C1300 C 0.7616 0.0856 0.00371 0.0
C1301 C 0.78765 0.08487 0.01107 0.0
C1302 C 0.69433 0.08329 0.97064 0.0
C1303 C 0.67611 0.10698 0.97048 0.0
C1304 C 0.71983 0.08404 0.97846 0.0
C1305 C 0.72774 0.10856 0.98621 0.0
C1306 C 0.70988 0.13253 0.9858 0.0
C1307 C 0.68419 0.1317 0.97805 0.0
H1308 H 0.13471 0.53541 0.27429 0.0
H1309 H 0.09593 0.57806 0.23734 0.0
H1310 H 0.12939 0.4898 0.26184 0.0
H1311 H 0.09106 0.53234 0.2248 0.0
H1312 H 0.13633 0.45143 0.20329 0.0
H1313 H 0.1312 0.49753 0.21532 0.0
H1314 H 0.08853 0.45691 0.25167 0.0
H1315 H 0.09323 0.41082 0.2396 0.0
C1316 C 0.12484 0.53497 0.26357 0.0
C1317 C 0.11587 0.5602 0.25673 0.0
C1318 C 0.12164 0.50891 0.25651 0.0
C1319 C 0.10985 0.50773 0.2424 0.0
C1320 C 0.10028 0.53285 0.23568 0.0
C1321 C 0.103 0.55888 0.24285 0.0
C1322 C 0.12549 0.45242 0.21375 0.0
C1323 C 0.11537 0.42758 0.22057 0.0
C1324 C 0.12241 0.47876 0.22056 0.0
C1325 C 0.10957 0.48057 0.2344 0.0
C1326 C 0.09861 0.45591 0.24101 0.0
C1327 C 0.10126 0.42964 0.23409 0.0
H1328 H 0.20098 0.1038 0.52351 0.0
H1329 H 0.15894 0.14117 0.48599 0.0
H1330 H 0.24696 0.10871 0.51119 0.0
H1331 H 0.20504 0.1455 0.47357 0.0
H1332 H 0.28655 0.09853 0.45313 0.0
H1333 H 0.2402 0.1039 0.46502 0.0
H1334 H 0.28 0.15003 0.50035 0.0
H1335 H 0.32639 0.14519 0.48834 0.0
C1336 C 0.20163 0.11326 0.51269 0.0
C1337 C 0.17647 0.12198 0.50565 0.0
C1338 C 0.2279 0.11622 0.5057 0.0
C1339 C 0.22936 0.12746 0.49148 0.0
C1340 C 0.20431 0.13675 0.48455 0.0
C1341 C 0.17806 0.13432 0.49165 0.0
C1342 C 0.28533 0.11014 0.46333 0.0
C1343 C 0.31 0.12131 0.46987 0.0
C1344 C 0.25884 0.11336 0.47006 0.0
C1345 C 0.25672 0.12734 0.48356 0.0
C1346 C 0.28124 0.13913 0.48994 0.0
C1347 C 0.30767 0.1364 0.48306 0.0
H1348 H 0.5831 0.43283 0.26313 0.0
H1349 H 0.67278 0.42698 0.25299 0.0
H1350 H 0.58138 0.47998 0.25176 0.0
H1351 H 0.67089 0.4728 0.24083 0.0
H1352 H 0.66984 0.56568 0.23276 0.0
H1353 H 0.66846 0.52061 0.24572 0.0
H1354 H 0.58264 0.50613 0.2299 0.0
H1355 H 0.58357 0.55257 0.21775 0.0
C1356 C 0.60233 0.44155 0.25831 0.0
C1357 C 0.62813 0.42652 0.25906 0.0
C1358 C 0.60135 0.46847 0.25172 0.0
C1359 C 0.62608 0.48051 0.2455 0.0
C1360 C 0.65161 0.46481 0.24591 0.0
C1361 C 0.6527 0.43836 0.25277 0.0
C1362 C 0.65064 0.55289 0.23214 0.0
C1363 C 0.62691 0.56237 0.22419 0.0
C1364 C 0.64987 0.52689 0.23947 0.0
C1365 C 0.62564 0.50928 0.23865 0.0
C1366 C 0.60159 0.51914 0.2309 0.0
C1367 C 0.60212 0.54564 0.22386 0.0
H1368 H 0.16047 0.84169 -0.00863 0.0
H1369 H 0.20245 0.88535 0.95568 0.0
H1370 H 0.20626 0.8373 0.0041 0.0
H1371 H 0.24816 0.88039 0.96828 0.0
H1372 H 0.32791 0.84363 -0.0093 0.0
H1373 H 0.28211 0.83869 0.97808 0.0
H1374 H 0.23966 0.87913 0.01437 0.0
H1375 H 0.28541 0.88463 0.0269 0.0
C1376 C 0.17953 0.84991 0.98616 0.0
C1377 C 0.17799 0.86403 0.97261 0.0
C1378 C 0.2056 0.84744 -0.00656 0.0
C1379 C 0.23053 0.85849 0.98711 0.0
C1380 C 0.22918 0.87152 0.97329 0.0
C1381 C 0.20306 0.8745 0.96615 0.0
C1382 C 0.30874 0.85113 -0.00395 0.0
C1383 C 0.31013 0.86469 0.00971 0.0
C1384 C 0.28266 0.84834 0.98883 0.0
C1385 C 0.25757 0.85853 -0.00469 0.0
C1386 C 0.25877 0.87093 0.00924 0.0
C1387 C 0.2849 0.87422 0.01634 0.0
H1388 H 0.84791 0.44822 0.70531 0.0
H1389 H 0.89117 0.40744 0.74149 0.0
H1390 H 0.85172 0.49403 0.71774 0.0
H1391 H 0.89439 0.45333 0.75406 0.0
H1392 H 0.84723 0.53277 0.77624 0.0
H1393 H 0.85238 0.48684 0.76401 0.0
H1394 H 0.8931 0.52833 0.72735 0.0
H1395 H 0.8885 0.57427 0.73966 0.0
C1396 C 0.85839 0.44912 0.71587 0.0
C1397 C 0.86916 0.42435 0.72248 0.0
C1398 C 0.86069 0.47529 0.72292 0.0
C1399 C 0.87333 0.47702 0.73681 0.0
C1400 C 0.88453 0.45238 0.74335 0.0
C1401 C 0.88275 0.42626 0.73615 0.0
C1402 C 0.85758 0.53202 0.76565 0.0
C1403 C 0.86734 0.55703 0.75885 0.0
C1404 C 0.86067 0.50578 0.75872 0.0
C1405 C 0.87309 0.50424 0.74478 0.0
C1406 C 0.8834 0.52912 0.7381 0.0
C1407 C 0.88082 0.55529 0.74515 0.0
H1408 H 0.08173 0.42664 0.08835 0.0
H1409 H 0.12072 0.34942 0.07258 0.0
H1410 H 0.10038 0.41715 0.11277 0.0
H1411 H 0.1377 0.33872 0.09709 0.0
H1412 H 0.1781 0.3304 0.14085 0.0
H1413 H 0.16819 0.34831 0.11632 0.0
H1414 H 0.09071 0.38744 0.13229 0.0
H1415 H 0.10182 0.37117 0.15686 0.0
C1416 C 0.09425 0.40759 0.09016 0.0
C1417 C 0.09968 0.38866 0.07867 0.0
C1418 C 0.10479 0.40201 0.10416 0.0
C1419 C 0.12031 0.37697 0.10701 0.0
C1420 C 0.12631 0.35846 0.09533 0.0
C1421 C 0.11638 0.36444 0.08127 0.0
C1422 C 0.15917 0.34315 0.13907 0.0
C1423 C 0.14063 0.34931 0.15067 0.0
C1424 C 0.15335 0.35328 0.12501 0.0
C1425 C 0.12846 0.36912 0.12222 0.0
C1426 C 0.11035 0.3758 0.13399 0.0
C1427 C 0.11656 0.36628 0.14809 0.0
H1428 H 0.85736 0.85501 0.40897 0.0
H1429 H 0.89651 0.93294 0.39386 0.0
H1430 H 0.83975 0.84579 0.38451 0.0
H1431 H 0.87726 0.92483 0.36944 0.0
H1432 H 0.87914 0.87749 0.32549 0.0
H1433 H 0.88787 0.89549 0.34994 0.0
H1434 H 0.81 0.85545 0.36501 0.0
H1435 H 0.80252 0.83582 0.34066 0.0
C1436 C 0.8615 0.87058 0.40046 0.0
C1437 C 0.87862 0.89445 0.40322 0.0
C1438 C 0.85119 0.86545 0.38641 0.0
C1439 C 0.85725 0.88443 0.37487 0.0
C1440 C 0.87281 0.90935 0.37793 0.0
C1441 C 0.8837 0.91412 0.39193 0.0
C1442 C 0.86376 0.87285 0.33402 0.0
C1443 C 0.84043 0.85494 0.3313 0.0
C1444 C 0.86859 0.88338 0.34805 0.0
C1445 C 0.8498 0.87673 0.35958 0.0
C1446 C 0.82537 0.86036 0.35653 0.0
C1447 C 0.82095 0.84923 0.34257 0.0
H1448 H 0.32029 0.66782 0.63531 0.0
H1449 H 0.34549 0.59041 0.65752 0.0
H1450 H 0.32704 0.64476 0.61188 0.0
H1451 H 0.35152 0.56703 0.63395 0.0
H1452 H 0.41008 0.56388 0.59239 0.0
H1453 H 0.38852 0.57386 0.61592 0.0
H1454 H 0.31444 0.60878 0.59418 0.0
H1455 H 0.33643 0.59947 0.5705 0.0
C1456 C 0.32663 0.64566 0.63521 0.0
C1457 C 0.333 0.63115 0.64826 0.0
C1458 C 0.33021 0.63231 0.62174 0.0
C1459 C 0.34011 0.60413 0.62106 0.0
C1460 C 0.34434 0.58892 0.63414 0.0
C1461 C 0.34086 0.60233 0.64763 0.0
C1462 C 0.38895 0.57318 0.59259 0.0
C1463 C 0.37527 0.58154 0.57959 0.0
C1464 C 0.37644 0.57866 0.60611 0.0
C1465 C 0.34992 0.59247 0.6069 0.0
C1466 C 0.33514 0.59859 0.59389 0.0
C1467 C 0.34773 0.59321 0.58034 0.0
H1468 H 0.63241 0.08883 0.81937 0.0
H1469 H 0.66203 0.16561 0.84051 0.0
H1470 H 0.62526 0.0667 0.84326 0.0
H1471 H 0.65416 0.14382 0.86426 0.0
H1472 H 0.64592 0.09861 0.90614 0.0
H1473 H 0.66636 0.10766 0.88204 0.0
H1474 H 0.58967 0.07518 0.86179 0.0
H1475 H 0.56963 0.06541 0.88573 0.0
C1476 C 0.63766 0.10089 0.8291 0.0
C1477 C 0.64731 0.12916 0.82806 0.0
C1478 C 0.63354 0.08821 0.84276 0.0
C1479 C 0.63889 0.10358 0.85564 0.0
C1480 C 0.65014 0.13124 0.85456 0.0
C1481 C 0.65438 0.14386 0.84092 0.0
C1482 C 0.63368 0.09286 0.89653 0.0
C1483 C 0.60592 0.08183 0.89783 0.0
C1484 C 0.64536 0.09812 0.88274 0.0
C1485 C 0.62946 0.09254 0.87003 0.0
C1486 C 0.60259 0.07953 0.87135 0.0
C1487 C 0.59097 0.07415 0.88511 0.0
H1488 H 0.12937 0.58975 0.31919 0.0
H1489 H 0.1641 0.66375 0.34092 0.0
H1490 H 0.12044 0.5676 0.34291 0.0
H1491 H 0.15455 0.64194 0.3645 0.0
H1492 H 0.14344 0.59579 0.40595 0.0
H1493 H 0.16433 0.60418 0.38191 0.0
H1494 H 0.0852 0.5786 0.36151 0.0
H1495 H 0.06458 0.56951 0.38542 0.0
C1496 C 0.1354 0.60116 0.329 0.0
C1497 C 0.14698 0.62872 0.32819 0.0
C1498 C 0.13025 0.58847 0.34257 0.0
C1499 C 0.13655 0.60312 0.35555 0.0
C1500 C 0.14973 0.62994 0.3547 0.0
C1501 C 0.15495 0.64258 0.34116 0.0
C1502 C 0.13068 0.59146 0.39632 0.0
C1503 C 0.10217 0.58254 0.39758 0.0
C1504 C 0.14265 0.5963 0.38257 0.0
C1505 C 0.12629 0.59242 0.36985 0.0
C1506 C 0.09846 0.58157 0.37109 0.0
C1507 C 0.08654 0.5766 0.38483 0.0
H1508 H 0.66985 0.81645 0.63853 0.0
H1509 H 0.64341 0.89576 0.65815 0.0
H1510 H 0.65948 0.83569 0.6144 0.0
H1511 H 0.63379 0.9153 0.63392 0.0
H1512 H 0.57234 0.91336 0.59395 0.0
H1513 H 0.59527 0.90441 0.6173 0.0
H1514 H 0.66867 0.86978 0.59501 0.0
H1515 H 0.64536 0.87811 0.57152 0.0
C1516 C 0.66254 0.83825 0.63767 0.0
C1517 C 0.65684 0.85437 0.65025 0.0
C1518 C 0.65678 0.84937 0.62382 0.0
C1519 C 0.6454 0.87688 0.62228 0.0
C1520 C 0.64197 0.89381 0.6348 0.0
C1521 C 0.64754 0.88263 0.64866 0.0
C1522 C 0.59352 0.90419 0.59399 0.0
C1523 C 0.60681 0.89601 0.58089 0.0
C1524 C 0.60683 0.89931 0.60739 0.0
C1525 C 0.63376 0.88625 0.608 0.0
C1526 C 0.64775 0.87952 0.59488 0.0
C1527 C 0.6344 0.88434 0.58144 0.0
H1528 H 0.37495 0.38328 0.82481 0.0
H1529 H 0.30055 0.33826 0.84035 0.0
H1530 H 0.38362 0.40124 0.84924 0.0
H1531 H 0.30787 0.35786 0.86473 0.0
H1532 H 0.35753 0.35701 0.90808 0.0
H1533 H 0.3385 0.34862 0.88384 0.0
H1534 H 0.37333 0.42918 0.86919 0.0
H1535 H 0.39411 0.43643 0.89336 0.0
C1536 C 0.35995 0.37794 0.83341 0.0
C1537 C 0.33738 0.35904 0.8308 0.0
C1538 C 0.36475 0.38844 0.84745 0.0
C1539 C 0.34665 0.38078 0.8591 0.0
C1540 C 0.32276 0.36356 0.85615 0.0
C1541 C 0.31841 0.35246 0.84218 0.0
C1542 C 0.36077 0.37309 0.89972 0.0
C1543 C 0.37764 0.39712 0.90249 0.0
C1544 C 0.34962 0.36843 0.88579 0.0
C1545 C 0.35457 0.38807 0.8744 0.0
C1546 C 0.36975 0.41319 0.87754 0.0
C1547 C 0.38152 0.41747 0.8914 0.0
H1548 H 0.85826 0.09314 0.15896 0.0
H1549 H 0.82753 0.17053 0.13865 0.0
H1550 H 0.86715 0.07297 0.13485 0.0
H1551 H 0.83702 0.15061 0.11466 0.0
H1552 H 0.84476 0.10495 0.07243 0.0
H1553 H 0.82512 0.11438 0.09663 0.0
H1554 H 0.9031 0.084 0.11646 0.0
H1555 H 0.92248 0.07399 0.09241 0.0
C1556 C 0.85316 0.10575 0.14937 0.0
C1557 C 0.8426 0.1336 0.15071 0.0
C1558 C 0.85829 0.0942 0.13558 0.0
C1559 C 0.85299 0.11029 0.12289 0.0
C1560 C 0.84103 0.13755 0.12423 0.0
C1561 C 0.83584 0.14907 0.138 0.0
C1562 C 0.85753 0.09986 0.08196 0.0
C1563 C 0.88535 0.08914 0.0805 0.0
C1564 C 0.84629 0.10533 0.09581 0.0
C1565 C 0.86267 0.10017 0.10842 0.0
C1566 C 0.88983 0.08794 0.10696 0.0
C1567 C 0.90104 0.08243 0.09315 0.0
H1568 H 0.8529 0.58793 0.82108 0.0
H1569 H 0.82047 0.66326 0.84243 0.0
H1570 H 0.86136 0.56603 0.84491 0.0
H1571 H 0.82963 0.64175 0.86611 0.0
H1572 H 0.8402 0.59701 0.90789 0.0
H1573 H 0.81914 0.60517 0.88385 0.0
H1574 H 0.89679 0.57581 0.86341 0.0
H1575 H 0.91748 0.56687 0.88732 0.0
C1576 C 0.84729 0.5997 0.83084 0.0
C1577 C 0.83647 0.62753 0.82988 0.0
C1578 C 0.85218 0.58715 0.84447 0.0
C1579 C 0.84641 0.60224 0.85739 0.0
C1580 C 0.834 0.62938 0.85639 0.0
C1581 C 0.82901 0.64186 0.84278 0.0
C1582 C 0.85255 0.59178 0.89825 0.0
C1583 C 0.88071 0.58184 0.89949 0.0
C1584 C 0.8405 0.59651 0.8845 0.0
C1585 C 0.85645 0.59155 0.87174 0.0
C1586 C 0.88382 0.57964 0.873 0.0
C1587 C 0.8958 0.57474 0.88674 0.0
H1588 H 0.13229 0.12972 0.57122 0.0
H1589 H 0.09592 0.05044 0.58625 0.0
H1590 H 0.15231 0.13794 0.59531 0.0
H1591 H 0.11766 0.05747 0.6102 0.0
H1592 H 0.11551 0.1042 0.6543 0.0
H1593 H 0.10707 0.08587 0.62997 0.0
H1594 H 0.18317 0.12863 0.61447 0.0
H1595 H 0.1904 0.14854 0.63881 0.0
C1596 C 0.12934 0.11363 0.57961 0.0
C1597 C 0.11217 0.08974 0.57702 0.0
C1598 C 0.14104 0.11818 0.59343 0.0
C1599 C 0.13632 0.09855 0.60485 0.0
C1600 C 0.12102 0.07346 0.60182 0.0
C1601 C 0.1087 0.06931 0.5881 0.0
C1602 C 0.13067 0.10932 0.64574 0.0
C1603 C 0.15331 0.12815 0.64834 0.0
C1604 C 0.12601 0.09859 0.63175 0.0
C1605 C 0.14426 0.10597 0.62012 0.0
C1606 C 0.16821 0.12311 0.62305 0.0
C1607 C 0.17248 0.1344 0.63699 0.0
H1608 H 0.5718 0.41318 0.38817 0.0
H1609 H 0.64959 0.38569 0.40937 0.0
H1610 H 0.59344 0.40519 0.36443 0.0
H1611 H 0.67154 0.3784 0.38551 0.0
H1612 H 0.67299 0.32174 0.34347 0.0
H1613 H 0.66326 0.34217 0.36729 0.0
H1614 H 0.62932 0.41765 0.34651 0.0
H1615 H 0.63836 0.39683 0.32256 0.0
C1616 C 0.59373 0.40599 0.38777 0.0
C1617 C 0.60879 0.39954 0.40065 0.0
C1618 C 0.60626 0.40168 0.37414 0.0
C1619 C 0.63416 0.39096 0.3731 0.0
C1620 C 0.64985 0.38626 0.38598 0.0
C1621 C 0.63727 0.39046 0.39963 0.0
C1622 C 0.66396 0.34292 0.34395 0.0
C1623 C 0.65587 0.3574 0.33113 0.0
C1624 C 0.65859 0.35476 0.35763 0.0
C1625 C 0.64518 0.38138 0.35877 0.0
C1626 C 0.63919 0.39685 0.34595 0.0
C1627 C 0.64444 0.38495 0.33225 0.0
H1628 H 0.3964 0.93861 0.08926 0.0
H1629 H 0.35489 0.86151 0.07495 0.0
H1630 H 0.37492 0.93312 0.11339 0.0
H1631 H 0.33506 0.85476 0.09918 0.0
H1632 H 0.29801 0.84564 0.14264 0.0
H1633 H 0.30523 0.86608 0.11837 0.0
H1634 H 0.384 0.90441 0.13333 0.0
H1635 H 0.37559 0.88566 0.15763 0.0
C1636 C 0.38259 0.92054 0.0913 0.0
C1637 C 0.37757 0.90026 0.08037 0.0
C1638 C 0.37037 0.91728 0.10513 0.0
C1639 C 0.35359 0.89324 0.10839 0.0
C1640 C 0.34746 0.87379 0.09712 0.0
C1641 C 0.35908 0.87746 0.08322 0.0
C1642 C 0.31647 0.85902 0.14074 0.0
C1643 C 0.33646 0.86377 0.1519 0.0
C1644 C 0.32076 0.87059 0.12683 0.0
C1645 C 0.34553 0.88643 0.12373 0.0
C1646 C 0.36449 0.89265 0.13524 0.0
C1647 C 0.35982 0.88169 0.14921 0.0
H1648 H 0.85104 0.39743 0.66023 0.0
H1649 H 0.81779 0.32281 0.63849 0.0
H1650 H 0.85866 0.42016 0.63654 0.0
H1651 H 0.82617 0.34511 0.61493 0.0
H1652 H 0.83868 0.38963 0.57331 0.0
H1653 H 0.81676 0.38179 0.59717 0.0
H1654 H 0.89418 0.41032 0.61826 0.0
H1655 H 0.9157 0.41894 0.59455 0.0
C1656 C 0.84501 0.38602 0.65042 0.0
C1657 C 0.83438 0.35809 0.65121 0.0
C1658 C 0.84941 0.39904 0.63686 0.0
C1659 C 0.8434 0.3843 0.62386 0.0
C1660 C 0.8308 0.3572 0.62472 0.0
C1661 C 0.82625 0.34426 0.63826 0.0
C1662 C 0.8508 0.39475 0.58306 0.0
C1663 C 0.87914 0.40433 0.58206 0.0
C1664 C 0.83824 0.39023 0.59671 0.0
C1665 C 0.85386 0.39504 0.60959 0.0
C1666 C 0.88143 0.40662 0.60857 0.0
C1667 C 0.89391 0.41132 0.59494 0.0
H1668 H 0.35395 0.08747 0.32216 0.0
H1669 H 0.31476 0.159 0.34396 0.0
H1670 H 0.36348 0.0654 0.34585 0.0
H1671 H 0.32495 0.13741 0.3675 0.0
H1672 H 0.34042 0.09346 0.40905 0.0
H1673 H 0.31836 0.09994 0.38513 0.0
H1674 H 0.39811 0.0781 0.36431 0.0
H1675 H 0.41988 0.0708 0.38815 0.0
C1676 C 0.34694 0.09827 0.33198 0.0
C1677 C 0.33412 0.12526 0.3312 0.0
C1678 C 0.3525 0.08566 0.34554 0.0
C1679 C 0.34536 0.09983 0.35855 0.0
C1680 C 0.33054 0.12577 0.3577 0.0
C1681 C 0.32491 0.13831 0.34417 0.0
C1682 C 0.35309 0.08955 0.39936 0.0
C1683 C 0.38206 0.08218 0.40047 0.0
C1684 C 0.34045 0.09329 0.38567 0.0
C1685 C 0.35657 0.08992 0.37284 0.0
C1686 C 0.38498 0.08061 0.37397 0.0
C1687 C 0.39757 0.07667 0.38765 0.0
H1688 H 0.61662 0.59924 0.15577 0.0
H1689 H 0.69302 0.6415 0.14074 0.0
H1690 H 0.60853 0.58069 0.13146 0.0
H1691 H 0.68616 0.6213 0.11645 0.0
H1692 H 0.63556 0.62599 0.07318 0.0
H1693 H 0.65602 0.63228 0.09731 0.0
H1694 H 0.61783 0.55285 0.11138 0.0
H1695 H 0.59569 0.54783 0.08739 0.0
C1696 C 0.63224 0.60374 0.14735 0.0
C1697 C 0.65511 0.62224 0.15003 0.0
C1698 C 0.62776 0.5929 0.13336 0.0
C1699 C 0.64643 0.59984 0.12182 0.0
C1700 C 0.67083 0.61623 0.12493 0.0
C1701 C 0.67491 0.62765 0.13885 0.0
C1702 C 0.63192 0.6097 0.08139 0.0
C1703 C 0.61364 0.58675 0.07857 0.0
C1704 C 0.64389 0.61311 0.09524 0.0
C1705 C 0.63833 0.59326 0.10646 0.0
C1706 C 0.6219 0.56902 0.10317 0.0
C1707 C 0.60932 0.56602 0.08942 0.0
H1708 H 0.18481 0.83731 0.83848 0.0
H1709 H 0.10765 0.87879 0.82397 0.0
H1710 H 0.17883 0.85794 0.86272 0.0
H1711 H 0.10044 0.89781 0.84831 0.0
H1712 H 0.09296 0.9358 0.89186 0.0
H1713 H 0.11218 0.92768 0.86744 0.0
H1714 H 0.14984 0.84882 0.8826 0.0
H1715 H 0.1323 0.85806 0.90703 0.0
C1716 C 0.1666 0.8509 0.84051 0.0
C1717 C 0.14651 0.85624 0.82946 0.0
C1718 C 0.16306 0.86261 0.8544 0.0
C1719 C 0.13891 0.87924 0.85761 0.0
C1720 C 0.11954 0.88553 0.84628 0.0
C1721 C 0.12349 0.8744 0.83231 0.0
C1722 C 0.10587 0.91707 0.88995 0.0
C1723 C 0.1109 0.89738 0.90123 0.0
C1724 C 0.11673 0.91228 0.87597 0.0
C1725 C 0.13217 0.88732 0.87292 0.0
C1726 C 0.13843 0.86848 0.88448 0.0
C1727 C 0.12816 0.87363 0.89852 0.0
loop_
_geom_bond_atom_site_label_1
_geom_bond_atom_site_label_2
_geom_bond_distance
_geom_bond_site_symmetry_2
_ccdc_geom_bond_type
C0 O1 1.306 . S
C0 O3 1.160 . S
O1 C0 1.306 . S
O1 Cd2 2.228 . S
Cd2 O1 2.228 . S
Cd2 O6 2.273 . S
Cd2 O10 2.277 . S
O3 C0 1.160 . S
O3 Cd4 2.203 . S
Cd4 O3 2.203 . S
Cd4 O6 2.411 . S
Cd4 O7 2.333 . S
Cd4 O8 2.352 . S
Cd4 O12 2.277 . S
Cd4 O13 2.356 . S
C5 O10 1.209 . S
C5 O12 1.226 . S
O6 Cd2 2.273 . S
O6 Cd4 2.411 . S
O6 C9 1.320 . S
O7 Cd4 2.333 . S
O7 C9 1.214 . S
O8 Cd4 2.352 . S
O8 C11 1.258 . S
C9 O6 1.320 . S
C9 O7 1.214 . S
O10 Cd2 2.277 . S
O10 C5 1.209 . S
C11 O8 1.258 . S
C11 O13 1.282 . S
O12 Cd4 2.277 . S
O12 C5 1.226 . S
O13 Cd4 2.356 . S
O13 C11 1.282 . S
C14 O15 1.306 . S
C14 O17 1.160 . S
O15 C14 1.306 . S
O15 Cd16 2.228 . S
Cd16 O15 2.228 . S
Cd16 O20 2.273 . S
Cd16 O24 2.277 . S
O17 C14 1.160 . S
O17 Cd18 2.203 . S
Cd18 O17 2.203 . S
Cd18 O20 2.411 . S
Cd18 O21 2.333 . S
Cd18 O22 2.352 . S
Cd18 O26 2.277 . S
Cd18 O27 2.356 . S
C19 O24 1.209 . S
C19 O26 1.226 . S
O20 Cd16 2.273 . S
O20 Cd18 2.411 . S
O20 C23 1.320 . S
O21 Cd18 2.333 . S
O21 C23 1.214 . S
O22 Cd18 2.352 . S
O22 C25 1.258 . S
C23 O20 1.320 . S
C23 O21 1.214 . S
O24 Cd16 2.277 . S
O24 C19 1.209 . S
C25 O22 1.258 . S
C25 O27 1.282 . S
O26 Cd18 2.277 . S
O26 C19 1.226 . S
O27 Cd18 2.356 . S
O27 C25 1.282 . S
C28 O29 1.306 . S
C28 O31 1.160 . S
O29 C28 1.306 . S
O29 Cd30 2.228 . S
Cd30 O29 2.228 . S
Cd30 O34 2.273 . S
Cd30 O38 2.277 . S
O31 C28 1.160 . S
O31 Cd32 2.203 . S
Cd32 O31 2.203 . S
Cd32 O34 2.411 . S
Cd32 O35 2.333 . S
Cd32 O36 2.352 . S
Cd32 O40 2.277 . S
Cd32 O41 2.356 . S
C33 O38 1.209 . S
C33 O40 1.226 . S
O34 Cd30 2.273 . S
O34 Cd32 2.411 . S
O34 C37 1.320 . S
O35 Cd32 2.333 . S
O35 C37 1.214 . S
O36 Cd32 2.352 . S
O36 C39 1.258 . S
C37 O34 1.320 . S
C37 O35 1.214 . S
O38 Cd30 2.277 . S
O38 C33 1.209 . S
C39 O36 1.258 . S
C39 O41 1.282 . S
O40 Cd32 2.277 . S
O40 C33 1.226 . S
O41 Cd32 2.356 . S
O41 C39 1.282 . S
C42 O43 1.306 . S
C42 O45 1.160 . S
O43 C42 1.306 . S
O43 Cd44 2.228 . S
Cd44 O43 2.228 . S
Cd44 O48 2.273 . S
Cd44 O52 2.277 . S
O45 C42 1.160 . S
O45 Cd46 2.203 . S
Cd46 O45 2.203 . S
Cd46 O48 2.411 . S
Cd46 O49 2.333 . S
Cd46 O50 2.352 . S
Cd46 O54 2.277 . S
Cd46 O55 2.356 . S
C47 O52 1.209 . S
C47 O54 1.226 . S
O48 Cd44 2.273 . S
O48 Cd46 2.411 . S
O48 C51 1.320 . S
O49 Cd46 2.333 . S
O49 C51 1.214 . S
O50 Cd46 2.352 . S
O50 C53 1.258 . S
C51 O48 1.320 . S
C51 O49 1.214 . S
O52 Cd44 2.277 . S
O52 C47 1.209 . S
C53 O50 1.258 . S
C53 O55 1.282 . S
O54 Cd46 2.277 . S
O54 C47 1.226 . S
O55 Cd46 2.356 . S
O55 C53 1.282 . S
C56 O57 1.306 . S
C56 O59 1.160 . S
O57 C56 1.306 . S
O57 Cd58 2.228 . S
Cd58 O57 2.228 . S
Cd58 O62 2.273 . S
Cd58 O66 2.277 . S
O59 C56 1.160 . S
O59 Cd60 2.203 . S
Cd60 O59 2.203 . S
Cd60 O62 2.411 . S
Cd60 O63 2.333 . S
Cd60 O64 2.352 . S
Cd60 O68 2.277 . S
Cd60 O69 2.356 . S
C61 O66 1.209 . S
C61 O68 1.226 . S
O62 Cd58 2.273 . S
O62 Cd60 2.411 . S
O62 C65 1.320 . S
O63 Cd60 2.333 . S
O63 C65 1.214 . S
O64 Cd60 2.352 . S
O64 C67 1.258 . S
C65 O62 1.320 . S
C65 O63 1.214 . S
O66 Cd58 2.277 . S
O66 C61 1.209 . S
C67 O64 1.258 . S
C67 O69 1.282 . S
O68 Cd60 2.277 . S
O68 C61 1.226 . S
O69 Cd60 2.356 . S
O69 C67 1.282 . S
C70 O71 1.306 . S
C70 O73 1.160 . S
O71 C70 1.306 . S
O71 Cd72 2.228 . S
Cd72 O71 2.228 . S
Cd72 O76 2.273 . S
Cd72 O80 2.277 . S
O73 C70 1.160 . S
O73 Cd74 2.203 . S
Cd74 O73 2.203 . S
Cd74 O76 2.411 . S
Cd74 O77 2.333 . S
Cd74 O78 2.352 . S
Cd74 O82 2.277 . S
Cd74 O83 2.356 . S
C75 O80 1.209 . S
C75 O82 1.226 . S
O76 Cd72 2.273 . S
O76 Cd74 2.411 . S
O76 C79 1.320 . S
O77 Cd74 2.333 . S
O77 C79 1.214 . S
O78 Cd74 2.352 . S
O78 C81 1.258 . S
C79 O76 1.320 . S
C79 O77 1.214 . S
O80 Cd72 2.277 . S
O80 C75 1.209 . S
C81 O78 1.258 . S
C81 O83 1.282 . S
O82 Cd74 2.277 . S
O82 C75 1.226 . S
O83 Cd74 2.356 . S
O83 C81 1.282 . S
C84 O85 1.306 . S
C84 O87 1.160 . S
O85 C84 1.306 . S
O85 Cd86 2.228 . S
Cd86 O85 2.228 . S
Cd86 O90 2.273 . S
Cd86 O94 2.277 . S
O87 C84 1.160 . S
O87 Cd88 2.203 . S
Cd88 O87 2.203 . S
Cd88 O90 2.411 . S
Cd88 O91 2.333 . S
Cd88 O92 2.352 . S
Cd88 O96 2.277 . S
Cd88 O97 2.356 . S
C89 O94 1.209 . S
C89 O96 1.226 . S
O90 Cd86 2.273 . S
O90 Cd88 2.411 . S
O90 C93 1.320 . S
O91 Cd88 2.333 . S
O91 C93 1.214 . S
O92 Cd88 2.352 . S
O92 C95 1.258 . S
C93 O90 1.320 . S
C93 O91 1.214 . S
O94 Cd86 2.277 . S
O94 C89 1.209 . S
C95 O92 1.258 . S
C95 O97 1.282 . S
O96 Cd88 2.277 . S
O96 C89 1.226 . S
O97 Cd88 2.356 . S
O97 C95 1.282 . S
C98 O99 1.306 . S
C98 O101 1.160 . S
O99 C98 1.306 . S
O99 Cd100 2.228 . S
Cd100 O99 2.228 . S
Cd100 O104 2.273 . S
Cd100 O108 2.277 . S
O101 C98 1.160 . S
O101 Cd102 2.203 . S
Cd102 O101 2.203 . S
Cd102 O104 2.411 . S
Cd102 O105 2.333 . S
Cd102 O106 2.352 . S
Cd102 O110 2.277 . S
Cd102 O111 2.356 . S
C103 O108 1.209 . S
C103 O110 1.226 . S
O104 Cd100 2.273 . S
O104 Cd102 2.411 . S
O104 C107 1.320 . S
O105 Cd102 2.333 . S
O105 C107 1.214 . S
O106 Cd102 2.352 . S
O106 C109 1.258 . S
C107 O104 1.320 . S
C107 O105 1.214 . S
O108 Cd100 2.277 . S
O108 C103 1.209 . S
C109 O106 1.258 . S
C109 O111 1.282 . S
O110 Cd102 2.277 . S
O110 C103 1.226 . S
O111 Cd102 2.356 . S
O111 C109 1.282 . S
C112 O113 1.306 . S
C112 O115 1.160 . S
O113 C112 1.306 . S
O113 Cd114 2.228 . S
Cd114 O113 2.228 . S
Cd114 O118 2.273 . S
Cd114 O122 2.277 . S
O115 C112 1.160 . S
O115 Cd116 2.203 . S
Cd116 O115 2.203 . S
Cd116 O118 2.411 . S
Cd116 O119 2.333 . S
Cd116 O120 2.352 . S
Cd116 O124 2.277 . S
Cd116 O125 2.356 . S
C117 O122 1.209 . S
C117 O124 1.226 . S
O118 Cd114 2.273 . S
O118 Cd116 2.411 . S
O118 C121 1.320 . S
O119 Cd116 2.333 . S
O119 C121 1.214 . S
O120 Cd116 2.352 . S
O120 C123 1.258 . S
C121 O118 1.320 . S
C121 O119 1.214 . S
O122 Cd114 2.277 . S
O122 C117 1.209 . S
C123 O120 1.258 . S
C123 O125 1.282 . S
O124 Cd116 2.277 . S
O124 C117 1.226 . S
O125 Cd116 2.356 . S
O125 C123 1.282 . S
C126 O127 1.306 . S
C126 O129 1.160 . S
O127 C126 1.306 . S
O127 Cd128 2.228 . S
Cd128 O127 2.228 . S
Cd128 O132 2.273 . S
Cd128 O136 2.277 . S
O129 C126 1.160 . S
O129 Cd130 2.203 . S
Cd130 O129 2.203 . S
Cd130 O132 2.411 . S
Cd130 O133 2.333 . S
Cd130 O134 2.352 . S
Cd130 O138 2.277 . S
Cd130 O139 2.356 . S
C131 O136 1.209 . S
C131 O138 1.226 . S
O132 Cd128 2.273 . S
O132 Cd130 2.411 . S
O132 C135 1.320 . S
O133 Cd130 2.333 . S
O133 C135 1.214 . S
O134 Cd130 2.352 . S
O134 C137 1.258 . S
C135 O132 1.320 . S
C135 O133 1.214 . S
O136 Cd128 2.277 . S
O136 C131 1.209 . S
C137 O134 1.258 . S
C137 O139 1.282 . S
O138 Cd130 2.277 . S
O138 C131 1.226 . S
O139 Cd130 2.356 . S
O139 C137 1.282 . S
C140 O141 1.306 . S
C140 O143 1.160 . S
O141 C140 1.306 . S
O141 Cd142 2.228 . S
Cd142 O141 2.228 . S
Cd142 O146 2.273 . S
Cd142 O150 2.277 . S
O143 C140 1.160 . S
O143 Cd144 2.203 . S
Cd144 O143 2.203 . S
Cd144 O146 2.411 . S
Cd144 O147 2.333 . S
Cd144 O148 2.352 . S
Cd144 O152 2.277 . S
Cd144 O153 2.356 . S
C145 O150 1.209 . S
C145 O152 1.226 . S
O146 Cd142 2.273 . S
O146 Cd144 2.411 . S
O146 C149 1.320 . S
O147 Cd144 2.333 . S
O147 C149 1.214 . S
O148 Cd144 2.352 . S
O148 C151 1.258 . S
C149 O146 1.320 . S
C149 O147 1.214 . S
O150 Cd142 2.277 . S
O150 C145 1.209 . S
C151 O148 1.258 . S
C151 O153 1.282 . S
O152 Cd144 2.277 . S
O152 C145 1.226 . S
O153 Cd144 2.356 . S
O153 C151 1.282 . S
C154 O155 1.306 . S
C154 O157 1.160 . S
O155 C154 1.306 . S
O155 Cd156 2.228 . S
Cd156 O155 2.228 . S
Cd156 O160 2.273 . S
Cd156 O164 2.277 . S
O157 C154 1.160 . S
O157 Cd158 2.203 . S
Cd158 O157 2.203 . S
Cd158 O160 2.411 . S
Cd158 O161 2.333 . S
Cd158 O162 2.352 . S
Cd158 O166 2.277 . S
Cd158 O167 2.356 . S
C159 O164 1.209 . S
C159 O166 1.226 . S
O160 Cd156 2.273 . S
O160 Cd158 2.411 . S
O160 C163 1.320 . S
O161 Cd158 2.333 . S
O161 C163 1.214 . S
O162 Cd158 2.352 . S
O162 C165 1.258 . S
C163 O160 1.320 . S
C163 O161 1.214 . S
O164 Cd156 2.277 . S
O164 C159 1.209 . S
C165 O162 1.258 . S
C165 O167 1.282 . S
O166 Cd158 2.277 . S
O166 C159 1.226 . S
O167 Cd158 2.356 . S
O167 C165 1.282 . S
C168 O169 1.306 . S
C168 O171 1.160 . S
O169 C168 1.306 . S
O169 Cd170 2.228 . S
Cd170 O169 2.228 . S
Cd170 O174 2.273 . S
Cd170 O178 2.277 . S
O171 C168 1.160 . S
O171 Cd172 2.203 . S
Cd172 O171 2.203 . S
Cd172 O174 2.411 . S
Cd172 O175 2.333 . S
Cd172 O176 2.352 . S
Cd172 O180 2.277 . S
Cd172 O181 2.356 . S
C173 O178 1.209 . S
C173 O180 1.226 . S
O174 Cd170 2.273 . S
O174 Cd172 2.411 . S
O174 C177 1.320 . S
O175 Cd172 2.333 . S
O175 C177 1.214 . S
O176 Cd172 2.352 . S
O176 C179 1.258 . S
C177 O174 1.320 . S
C177 O175 1.214 . S
O178 Cd170 2.277 . S
O178 C173 1.209 . S
C179 O176 1.258 . S
C179 O181 1.282 . S
O180 Cd172 2.277 . S
O180 C173 1.226 . S
O181 Cd172 2.356 . S
O181 C179 1.282 . S
C182 O183 1.306 . S
C182 O185 1.160 . S
O183 C182 1.306 . S
O183 Cd184 2.228 . S
Cd184 O183 2.228 . S
Cd184 O188 2.273 . S
Cd184 O192 2.277 . S
O185 C182 1.160 . S
O185 Cd186 2.203 . S
Cd186 O185 2.203 . S
Cd186 O188 2.411 . S
Cd186 O189 2.333 . S
Cd186 O190 2.352 . S
Cd186 O194 2.277 . S
Cd186 O195 2.356 . S
C187 O192 1.209 . S
C187 O194 1.226 . S
O188 Cd184 2.273 . S
O188 Cd186 2.411 . S
O188 C191 1.320 . S
O189 Cd186 2.333 . S
O189 C191 1.214 . S
O190 Cd186 2.352 . S
O190 C193 1.258 . S
C191 O188 1.320 . S
C191 O189 1.214 . S
O192 Cd184 2.277 . S
O192 C187 1.209 . S
C193 O190 1.258 . S
C193 O195 1.282 . S
O194 Cd186 2.277 . S
O194 C187 1.226 . S
O195 Cd186 2.356 . S
O195 C193 1.282 . S
C196 O197 1.306 . S
C196 O199 1.160 . S
O197 C196 1.306 . S
O197 Cd198 2.228 . S
Cd198 O197 2.228 . S
Cd198 O202 2.273 . S
Cd198 O206 2.277 . S
O199 C196 1.160 . S
O199 Cd200 2.203 . S
Cd200 O199 2.203 . S
Cd200 O202 2.411 . S
Cd200 O203 2.333 . S
Cd200 O204 2.352 . S
Cd200 O208 2.277 . S
Cd200 O209 2.356 . S
C201 O206 1.209 . S
C201 O208 1.226 . S
O202 Cd198 2.273 . S
O202 Cd200 2.411 . S
O202 C205 1.320 . S
O203 Cd200 2.333 . S
O203 C205 1.214 . S
O204 Cd200 2.352 . S
O204 C207 1.258 . S
C205 O202 1.320 . S
C205 O203 1.214 . S
O206 Cd198 2.277 . S
O206 C201 1.209 . S
C207 O204 1.258 . S
C207 O209 1.282 . S
O208 Cd200 2.277 . S
O208 C201 1.226 . S
O209 Cd200 2.356 . S
O209 C207 1.282 . S
C210 O211 1.306 . S
C210 O213 1.160 . S
O211 C210 1.306 . S
O211 Cd212 2.228 . S
Cd212 O211 2.228 . S
Cd212 O216 2.273 . S
Cd212 O220 2.277 . S
O213 C210 1.160 . S
O213 Cd214 2.203 . S
Cd214 O213 2.203 . S
Cd214 O216 2.411 . S
Cd214 O217 2.333 . S
Cd214 O218 2.352 . S
Cd214 O222 2.277 . S
Cd214 O223 2.356 . S
C215 O220 1.209 . S
C215 O222 1.226 . S
O216 Cd212 2.273 . S
O216 Cd214 2.411 . S
O216 C219 1.320 . S
O217 Cd214 2.333 . S
O217 C219 1.214 . S
O218 Cd214 2.352 . S
O218 C221 1.258 . S
C219 O216 1.320 . S
C219 O217 1.214 . S
O220 Cd212 2.277 . S
O220 C215 1.209 . S
C221 O218 1.258 . S
C221 O223 1.282 . S
O222 Cd214 2.277 . S
O222 C215 1.226 . S
O223 Cd214 2.356 . S
O223 C221 1.282 . S
C224 O225 1.306 . S
C224 O227 1.160 . S
O225 C224 1.306 . S
O225 Cd226 2.228 . S
Cd226 O225 2.228 . S
Cd226 O230 2.273 . S
Cd226 O234 2.277 . S
O227 C224 1.160 . S
O227 Cd228 2.203 . S
Cd228 O227 2.203 . S
Cd228 O230 2.411 . S
Cd228 O231 2.333 . S
Cd228 O232 2.352 . S
Cd228 O236 2.277 . S
Cd228 O237 2.356 . S
C229 O234 1.209 . S
C229 O236 1.226 . S
O230 Cd226 2.273 . S
O230 Cd228 2.411 . S
O230 C233 1.320 . S
O231 Cd228 2.333 . S
O231 C233 1.214 . S
O232 Cd228 2.352 . S
O232 C235 1.258 . S
C233 O230 1.320 . S
C233 O231 1.214 . S
O234 Cd226 2.277 . S
O234 C229 1.209 . S
C235 O232 1.258 . S
C235 O237 1.282 . S
O236 Cd228 2.277 . S
O236 C229 1.226 . S
O237 Cd228 2.356 . S
O237 C235 1.282 . S
C238 O239 1.306 . S
C238 O241 1.160 . S
O239 C238 1.306 . S
O239 Cd240 2.228 . S
Cd240 O239 2.228 . S
Cd240 O244 2.273 . S
Cd240 O248 2.277 . S
O241 C238 1.160 . S
O241 Cd242 2.203 . S
Cd242 O241 2.203 . S
Cd242 O244 2.411 . S
Cd242 O245 2.333 . S
Cd242 O246 2.352 . S
Cd242 O250 2.277 . S
Cd242 O251 2.356 . S
C243 O248 1.209 . S
C243 O250 1.226 . S
O244 Cd240 2.273 . S
O244 Cd242 2.411 . S
O244 C247 1.320 . S
O245 Cd242 2.333 . S
O245 C247 1.214 . S
O246 Cd242 2.352 . S
O246 C249 1.258 . S
C247 O244 1.320 . S
C247 O245 1.214 . S
O248 Cd240 2.277 . S
O248 C243 1.209 . S
C249 O246 1.258 . S
C249 O251 1.282 . S
O250 Cd242 2.277 . S
O250 C243 1.226 . S
O251 Cd242 2.356 . S
O251 C249 1.282 . S
C252 O253 1.306 . S
C252 O255 1.160 . S
O253 C252 1.306 . S
O253 Cd254 2.228 . S
Cd254 O253 2.228 . S
Cd254 O258 2.273 . S
Cd254 O262 2.277 . S
O255 C252 1.160 . S
O255 Cd256 2.203 . S
Cd256 O255 2.203 . S
Cd256 O258 2.411 . S
Cd256 O259 2.333 . S
Cd256 O260 2.352 . S
Cd256 O264 2.277 . S
Cd256 O265 2.356 . S
C257 O262 1.209 . S
C257 O264 1.226 . S
O258 Cd254 2.273 . S
O258 Cd256 2.411 . S
O258 C261 1.320 . S
O259 Cd256 2.333 . S
O259 C261 1.214 . S
O260 Cd256 2.352 . S
O260 C263 1.258 . S
C261 O258 1.320 . S
C261 O259 1.214 . S
O262 Cd254 2.277 . S
O262 C257 1.209 . S
C263 O260 1.258 . S
C263 O265 1.282 . S
O264 Cd256 2.277 . S
O264 C257 1.226 . S
O265 Cd256 2.356 . S
O265 C263 1.282 . S
C266 O267 1.306 . S
C266 O269 1.160 . S
O267 C266 1.306 . S
O267 Cd268 2.228 . S
Cd268 O267 2.228 . S
Cd268 O272 2.273 . S
Cd268 O276 2.277 . S
O269 C266 1.160 . S
O269 Cd270 2.203 . S
Cd270 O269 2.203 . S
Cd270 O272 2.411 . S
Cd270 O273 2.333 . S
Cd270 O274 2.352 . S
Cd270 O278 2.277 . S
Cd270 O279 2.356 . S
C271 O276 1.209 . S
C271 O278 1.226 . S
O272 Cd268 2.273 . S
O272 Cd270 2.411 . S
O272 C275 1.320 . S
O273 Cd270 2.333 . S
O273 C275 1.214 . S
O274 Cd270 2.352 . S
O274 C277 1.258 . S
C275 O272 1.320 . S
C275 O273 1.214 . S
O276 Cd268 2.277 . S
O276 C271 1.209 . S
C277 O274 1.258 . S
C277 O279 1.282 . S
O278 Cd270 2.277 . S
O278 C271 1.226 . S
O279 Cd270 2.356 . S
O279 C277 1.282 . S
C280 O281 1.306 . S
C280 O283 1.160 . S
O281 C280 1.306 . S
O281 Cd282 2.228 . S
Cd282 O281 2.228 . S
Cd282 O286 2.273 . S
Cd282 O290 2.277 . S
O283 C280 1.160 . S
O283 Cd284 2.203 . S
Cd284 O283 2.203 . S
Cd284 O286 2.411 . S
Cd284 O287 2.333 . S
Cd284 O288 2.352 . S
Cd284 O292 2.277 . S
Cd284 O293 2.356 . S
C285 O290 1.209 . S
C285 O292 1.226 . S
O286 Cd282 2.273 . S
O286 Cd284 2.411 . S
O286 C289 1.320 . S
O287 Cd284 2.333 . S
O287 C289 1.214 . S
O288 Cd284 2.352 . S
O288 C291 1.258 . S
C289 O286 1.320 . S
C289 O287 1.214 . S
O290 Cd282 2.277 . S
O290 C285 1.209 . S
C291 O288 1.258 . S
C291 O293 1.282 . S
O292 Cd284 2.277 . S
O292 C285 1.226 . S
O293 Cd284 2.356 . S
O293 C291 1.282 . S
C294 O295 1.306 . S
C294 O297 1.160 . S
O295 C294 1.306 . S
O295 Cd296 2.228 . S
Cd296 O295 2.228 . S
Cd296 O300 2.273 . S
Cd296 O304 2.277 . S
O297 C294 1.160 . S
O297 Cd298 2.203 . S
Cd298 O297 2.203 . S
Cd298 O300 2.411 . S
Cd298 O301 2.333 . S
Cd298 O302 2.352 . S
Cd298 O306 2.277 . S
Cd298 O307 2.356 . S
C299 O304 1.209 . S
C299 O306 1.226 . S
O300 Cd296 2.273 . S
O300 Cd298 2.411 . S
O300 C303 1.320 . S
O301 Cd298 2.333 . S
O301 C303 1.214 . S
O302 Cd298 2.352 . S
O302 C305 1.258 . S
C303 O300 1.320 . S
C303 O301 1.214 . S
O304 Cd296 2.277 . S
O304 C299 1.209 . S
C305 O302 1.258 . S
C305 O307 1.282 . S
O306 Cd298 2.277 . S
O306 C299 1.226 . S
O307 Cd298 2.356 . S
O307 C305 1.282 . S
C308 O309 1.306 . S
C308 O311 1.160 . S
O309 C308 1.306 . S
O309 Cd310 2.228 . S
Cd310 O309 2.228 . S
Cd310 O314 2.273 . S
Cd310 O318 2.277 . S
O311 C308 1.160 . S
O311 Cd312 2.203 . S
Cd312 O311 2.203 . S
Cd312 O314 2.411 . S
Cd312 O315 2.333 . S
Cd312 O316 2.352 . S
Cd312 O320 2.277 . S
Cd312 O321 2.356 . S
C313 O318 1.209 . S
C313 O320 1.226 . S
O314 Cd310 2.273 . S
O314 Cd312 2.411 . S
O314 C317 1.320 . S
O315 Cd312 2.333 . S
O315 C317 1.214 . S
O316 Cd312 2.352 . S
O316 C319 1.258 . S
C317 O314 1.320 . S
C317 O315 1.214 . S
O318 Cd310 2.277 . S
O318 C313 1.209 . S
C319 O316 1.258 . S
C319 O321 1.282 . S
O320 Cd312 2.277 . S
O320 C313 1.226 . S
O321 Cd312 2.356 . S
O321 C319 1.282 . S
C322 O323 1.306 . S
C322 O325 1.160 . S
O323 C322 1.306 . S
O323 Cd324 2.228 . S
Cd324 O323 2.228 . S
Cd324 O328 2.273 . S
Cd324 O332 2.277 . S
O325 C322 1.160 . S
O325 Cd326 2.203 . S
Cd326 O325 2.203 . S
Cd326 O328 2.411 . S
Cd326 O329 2.333 . S
Cd326 O330 2.352 . S
Cd326 O334 2.277 . S
Cd326 O335 2.356 . S
C327 O332 1.209 . S
C327 O334 1.226 . S
O328 Cd324 2.273 . S
O328 Cd326 2.411 . S
O328 C331 1.320 . S
O329 Cd326 2.333 . S
O329 C331 1.214 . S
O330 Cd326 2.352 . S
O330 C333 1.258 . S
C331 O328 1.320 . S
C331 O329 1.214 . S
O332 Cd324 2.277 . S
O332 C327 1.209 . S
C333 O330 1.258 . S
C333 O335 1.282 . S
O334 Cd326 2.277 . S
O334 C327 1.226 . S
O335 Cd326 2.356 . S
O335 C333 1.282 . S
C336 O337 1.306 . S
C336 O339 1.160 . S
O337 C336 1.306 . S
O337 Cd338 2.228 . S
Cd338 O337 2.228 . S
Cd338 O342 2.273 . S
Cd338 O346 2.277 . S
O339 C336 1.160 . S
O339 Cd340 2.203 . S
Cd340 O339 2.203 . S
Cd340 O342 2.411 . S
Cd340 O343 2.333 . S
Cd340 O344 2.352 . S
Cd340 O348 2.277 . S
Cd340 O349 2.356 . S
C341 O346 1.209 . S
C341 O348 1.226 . S
O342 Cd338 2.273 . S
O342 Cd340 2.411 . S
O342 C345 1.320 . S
O343 Cd340 2.333 . S
O343 C345 1.214 . S
O344 Cd340 2.352 . S
O344 C347 1.258 . S
C345 O342 1.320 . S
C345 O343 1.214 . S
O346 Cd338 2.277 . S
O346 C341 1.209 . S
C347 O344 1.258 . S
C347 O349 1.282 . S
O348 Cd340 2.277 . S
O348 C341 1.226 . S
O349 Cd340 2.356 . S
O349 C347 1.282 . S
C350 O351 1.306 . S
C350 O353 1.160 . S
O351 C350 1.306 . S
O351 Cd352 2.228 . S
Cd352 O351 2.228 . S
Cd352 O356 2.273 . S
Cd352 O360 2.277 . S
O353 C350 1.160 . S
O353 Cd354 2.203 . S
Cd354 O353 2.203 . S
Cd354 O356 2.411 . S
Cd354 O357 2.333 . S
Cd354 O358 2.352 . S
Cd354 O362 2.277 . S
Cd354 O363 2.356 . S
C355 O360 1.209 . S
C355 O362 1.226 . S
O356 Cd352 2.273 . S
O356 Cd354 2.411 . S
O356 C359 1.320 . S
O357 Cd354 2.333 . S
O357 C359 1.214 . S
O358 Cd354 2.352 . S
O358 C361 1.258 . S
C359 O356 1.320 . S
C359 O357 1.214 . S
O360 Cd352 2.277 . S
O360 C355 1.209 . S
C361 O358 1.258 . S
C361 O363 1.282 . S
O362 Cd354 2.277 . S
O362 C355 1.226 . S
O363 Cd354 2.356 . S
O363 C361 1.282 . S
C364 O365 1.306 . S
C364 O367 1.160 . S
O365 C364 1.306 . S
O365 Cd366 2.228 . S
Cd366 O365 2.228 . S
Cd366 O370 2.273 . S
Cd366 O374 2.277 . S
O367 C364 1.160 . S
O367 Cd368 2.203 . S
Cd368 O367 2.203 . S
Cd368 O370 2.411 . S
Cd368 O371 2.333 . S
Cd368 O372 2.352 . S
Cd368 O376 2.277 . S
Cd368 O377 2.356 . S
C369 O374 1.209 . S
C369 O376 1.226 . S
O370 Cd366 2.273 . S
O370 Cd368 2.411 . S
O370 C373 1.320 . S
O371 Cd368 2.333 . S
O371 C373 1.214 . S
O372 Cd368 2.352 . S
O372 C375 1.258 . S
C373 O370 1.320 . S
C373 O371 1.214 . S
O374 Cd366 2.277 . S
O374 C369 1.209 . S
C375 O372 1.258 . S
C375 O377 1.282 . S
O376 Cd368 2.277 . S
O376 C369 1.226 . S
O377 Cd368 2.356 . S
O377 C375 1.282 . S
C378 O379 1.306 . S
C378 O381 1.160 . S
O379 C378 1.306 . S
O379 Cd380 2.228 . S
Cd380 O379 2.228 . S
Cd380 O384 2.273 . S
Cd380 O388 2.277 . S
O381 C378 1.160 . S
O381 Cd382 2.203 . S
Cd382 O381 2.203 . S
Cd382 O384 2.411 . S
Cd382 O385 2.333 . S
Cd382 O386 2.352 . S
Cd382 O390 2.277 . S
Cd382 O391 2.356 . S
C383 O388 1.209 . S
C383 O390 1.226 . S
O384 Cd380 2.273 . S
O384 Cd382 2.411 . S
O384 C387 1.320 . S
O385 Cd382 2.333 . S
O385 C387 1.214 . S
O386 Cd382 2.352 . S
O386 C389 1.258 . S
C387 O384 1.320 . S
C387 O385 1.214 . S
O388 Cd380 2.277 . S
O388 C383 1.209 . S
C389 O386 1.258 . S
C389 O391 1.282 . S
O390 Cd382 2.277 . S
O390 C383 1.226 . S
O391 Cd382 2.356 . S
O391 C389 1.282 . S
C392 O393 1.306 . S
C392 O395 1.160 . S
O393 C392 1.306 . S
O393 Cd394 2.228 . S
Cd394 O393 2.228 . S
Cd394 O398 2.273 . S
Cd394 O402 2.277 . S
O395 C392 1.160 . S
O395 Cd396 2.203 . S
Cd396 O395 2.203 . S
Cd396 O398 2.411 . S
Cd396 O399 2.333 . S
Cd396 O400 2.352 . S
Cd396 O404 2.277 . S
Cd396 O405 2.356 . S
C397 O402 1.209 . S
C397 O404 1.226 . S
O398 Cd394 2.273 . S
O398 Cd396 2.411 . S
O398 C401 1.320 . S
O399 Cd396 2.333 . S
O399 C401 1.214 . S
O400 Cd396 2.352 . S
O400 C403 1.258 . S
C401 O398 1.320 . S
C401 O399 1.214 . S
O402 Cd394 2.277 . S
O402 C397 1.209 . S
C403 O400 1.258 . S
C403 O405 1.282 . S
O404 Cd396 2.277 . S
O404 C397 1.226 . S
O405 Cd396 2.356 . S
O405 C403 1.282 . S
C406 O407 1.306 . S
C406 O409 1.160 . S
O407 C406 1.306 . S
O407 Cd408 2.228 . S
Cd408 O407 2.228 . S
Cd408 O412 2.273 . S
Cd408 O416 2.277 . S
O409 C406 1.160 . S
O409 Cd410 2.203 . S
Cd410 O409 2.203 . S
Cd410 O412 2.411 . S
Cd410 O413 2.333 . S
Cd410 O414 2.352 . S
Cd410 O418 2.277 . S
Cd410 O419 2.356 . S
C411 O416 1.209 . S
C411 O418 1.226 . S
O412 Cd408 2.273 . S
O412 Cd410 2.411 . S
O412 C415 1.320 . S
O413 Cd410 2.333 . S
O413 C415 1.214 . S
O414 Cd410 2.352 . S
O414 C417 1.258 . S
C415 O412 1.320 . S
C415 O413 1.214 . S
O416 Cd408 2.277 . S
O416 C411 1.209 . S
C417 O414 1.258 . S
C417 O419 1.282 . S
O418 Cd410 2.277 . S
O418 C411 1.226 . S
O419 Cd410 2.356 . S
O419 C417 1.282 . S
C420 O421 1.306 . S
C420 O423 1.160 . S
O421 C420 1.306 . S
O421 Cd422 2.228 . S
Cd422 O421 2.228 . S
Cd422 O426 2.273 . S
Cd422 O430 2.277 . S
O423 C420 1.160 . S
O423 Cd424 2.203 . S
Cd424 O423 2.203 . S
Cd424 O426 2.411 . S
Cd424 O427 2.333 . S
Cd424 O428 2.352 . S
Cd424 O432 2.277 . S
Cd424 O433 2.356 . S
C425 O430 1.209 . S
C425 O432 1.226 . S
O426 Cd422 2.273 . S
O426 Cd424 2.411 . S
O426 C429 1.320 . S
O427 Cd424 2.333 . S
O427 C429 1.214 . S
O428 Cd424 2.352 . S
O428 C431 1.258 . S
C429 O426 1.320 . S
C429 O427 1.214 . S
O430 Cd422 2.277 . S
O430 C425 1.209 . S
C431 O428 1.258 . S
C431 O433 1.282 . S
O432 Cd424 2.277 . S
O432 C425 1.226 . S
O433 Cd424 2.356 . S
O433 C431 1.282 . S
C434 O435 1.306 . S
C434 O437 1.160 . S
O435 C434 1.306 . S
O435 Cd436 2.228 . S
Cd436 O435 2.228 . S
Cd436 O440 2.273 . S
Cd436 O444 2.277 . S
O437 C434 1.160 . S
O437 Cd438 2.203 . S
Cd438 O437 2.203 . S
Cd438 O440 2.411 . S
Cd438 O441 2.333 . S
Cd438 O442 2.352 . S
Cd438 O446 2.277 . S
Cd438 O447 2.356 . S
C439 O444 1.209 . S
C439 O446 1.226 . S
O440 Cd436 2.273 . S
O440 Cd438 2.411 . S
O440 C443 1.320 . S
O441 Cd438 2.333 . S
O441 C443 1.214 . S
O442 Cd438 2.352 . S
O442 C445 1.258 . S
C443 O440 1.320 . S
C443 O441 1.214 . S
O444 Cd436 2.277 . S
O444 C439 1.209 . S
C445 O442 1.258 . S
C445 O447 1.282 . S
O446 Cd438 2.277 . S
O446 C439 1.226 . S
O447 Cd438 2.356 . S
O447 C445 1.282 . S
H448 C456 0.950 . S
H449 C461 0.950 . S
H450 C458 0.987 . S
H451 C460 0.916 1_455 S
H452 C462 0.950 . S
H453 C464 0.987 . S
H454 C466 0.916 1_655 S
H455 C467 0.950 . S
C456 H448 0.950 . S
C456 C457 1.386 . S
C456 C458 1.370 1_556 S
C457 C456 1.386 . S
C457 C461 1.393 . S
C458 H450 0.987 . S
C458 C456 1.370 1_554 S
C458 C459 1.387 1_554 S
C459 C458 1.387 1_556 S
C459 C460 1.410 . S
C459 C465 1.491 1_656 S
C460 H451 0.916 1_655 S
C460 C459 1.410 . S
C460 C461 1.413 . S
C461 H449 0.950 . S
C461 C457 1.393 . S
C461 C460 1.413 . S
C462 H452 0.950 . S
C462 C463 1.386 . S
C462 C464 1.370 1_554 S
C463 C462 1.386 . S
C463 C467 1.393 . S
C464 H453 0.987 . S
C464 C462 1.370 1_556 S
C464 C465 1.387 1_556 S
C465 C459 1.491 1_454 S
C465 C464 1.387 1_554 S
C465 C466 1.410 . S
C466 H454 0.916 1_455 S
C466 C465 1.410 . S
C466 C467 1.413 . S
C467 H455 0.950 . S
C467 C463 1.393 . S
C467 C466 1.413 . S
H468 C476 0.950 . S
H469 C481 0.950 . S
H470 C478 0.950 . S
H471 C480 0.950 . S
H472 C482 0.950 . S
H473 C484 0.950 . S
H474 C486 0.950 . S
H475 C487 0.950 . S
C476 H468 0.950 . S
C476 C477 1.386 . S
C476 C478 1.391 . S
C477 C476 1.386 . S
C477 C481 1.393 . S
C478 H470 0.950 . S
C478 C476 1.391 . S
C478 C479 1.400 . S
C479 C478 1.400 . S
C479 C480 1.398 . S
C479 C485 1.491 . S
C480 H471 0.950 . S
C480 C479 1.398 . S
C480 C481 1.391 . S
C481 H469 0.950 . S
C481 C477 1.393 . S
C481 C480 1.391 . S
C482 H472 0.950 . S
C482 C483 1.386 . S
C482 C484 1.391 . S
C483 C482 1.386 . S
C483 C487 1.393 . S
C484 H473 0.950 . S
C484 C482 1.391 . S
C484 C485 1.400 . S
C485 C479 1.491 . S
C485 C484 1.400 . S
C485 C486 1.398 . S
C486 H474 0.950 . S
C486 C485 1.398 . S
C486 C487 1.391 . S
C487 H475 0.950 . S
C487 C483 1.393 . S
C487 C486 1.391 . S
H488 C496 0.950 . S
H489 C501 0.950 . S
H490 C498 0.950 . S
H491 C500 0.950 . S
H492 C502 0.950 . S
H493 C504 0.950 . S
H494 C506 0.950 . S
H495 C507 0.950 . S
C496 H488 0.950 . S
C496 C497 1.386 . S
C496 C498 1.391 . S
C497 C496 1.386 . S
C497 C501 1.393 . S
C498 H490 0.950 . S
C498 C496 1.391 . S
C498 C499 1.400 . S
C499 C498 1.400 . S
C499 C500 1.398 . S
C499 C505 1.491 . S
C500 H491 0.950 . S
C500 C499 1.398 . S
C500 C501 1.391 . S
C501 H489 0.950 . S
C501 C497 1.393 . S
C501 C500 1.391 . S
C502 H492 0.950 . S
C502 C503 1.386 . S
C502 C504 1.391 . S
C503 C502 1.386 . S
C503 C507 1.393 . S
C504 H493 0.950 . S
C504 C502 1.391 . S
C504 C505 1.400 . S
C505 C499 1.491 . S
C505 C504 1.400 . S
C505 C506 1.398 . S
C506 H494 0.950 . S
C506 C505 1.398 . S
C506 C507 1.391 . S
C507 H495 0.950 . S
C507 C503 1.393 . S
C507 C506 1.391 . S
H508 C516 0.950 . S
H509 C521 0.950 . S
H510 C518 0.950 . S
H511 C520 0.950 . S
H512 C522 0.950 . S
H513 C524 0.950 . S
H514 C526 0.950 . S
H515 C527 0.950 . S
C516 H508 0.950 . S
C516 C517 1.386 . S
C516 C518 1.391 . S
C517 C516 1.386 . S
C517 C521 1.393 . S
C518 H510 0.950 . S
C518 C516 1.391 . S
C518 C519 1.400 . S
C519 C518 1.400 . S
C519 C520 1.398 . S
C519 C525 1.491 . S
C520 H511 0.950 . S
C520 C519 1.398 . S
C520 C521 1.391 . S
C521 H509 0.950 . S
C521 C517 1.393 . S
C521 C520 1.391 . S
C522 H512 0.950 . S
C522 C523 1.386 . S
C522 C524 1.391 . S
C523 C522 1.386 . S
C523 C527 1.393 . S
C524 H513 0.950 . S
C524 C522 1.391 . S
C524 C525 1.400 . S
C525 C519 1.491 . S
C525 C524 1.400 . S
C525 C526 1.398 . S
C526 H514 0.950 . S
C526 C525 1.398 . S
C526 C527 1.391 . S
C527 H515 0.950 . S
C527 C523 1.393 . S
C527 C526 1.391 . S
H528 C536 0.950 . S
H529 C541 0.950 . S
H530 C538 0.986 . S
H531 C540 0.950 . S
H532 C542 0.950 . S
H533 C544 0.986 . S
H534 C546 0.950 . S
H535 C547 0.950 . S
C536 H528 0.950 . S
C536 C537 1.386 . S
C536 C538 1.369 1_655 S
C537 C536 1.386 . S
C537 C541 1.393 . S
C538 H530 0.986 . S
C538 C536 1.369 1_455 S
C538 C539 1.387 1_455 S
C539 C538 1.387 1_655 S
C539 C540 1.398 . S
C539 C545 1.491 1_655 S
C540 H531 0.950 . S
C540 C539 1.398 . S
C540 C541 1.391 . S
C541 H529 0.950 . S
C541 C537 1.393 . S
C541 C540 1.391 . S
C542 H532 0.950 . S
C542 C543 1.386 . S
C542 C544 1.369 1_455 S
C543 C542 1.386 . S
C543 C547 1.393 . S
C544 H533 0.986 . S
C544 C542 1.369 1_655 S
C544 C545 1.387 1_655 S
C545 C539 1.491 1_455 S
C545 C544 1.387 1_455 S
C545 C546 1.398 . S
C546 H534 0.950 . S
C546 C545 1.398 . S
C546 C547 1.391 . S
C547 H535 0.950 . S
C547 C543 1.393 . S
C547 C546 1.391 . S
H548 C556 0.950 . S
H549 C561 0.950 . S
H550 C558 0.950 . S
H551 C560 0.950 . S
H552 C562 0.950 . S
H553 C564 0.950 . S
H554 C566 0.950 . S
H555 C567 0.950 . S
C556 H548 0.950 . S
C556 C557 1.386 . S
C556 C558 1.391 . S
C557 C556 1.386 . S
C557 C561 1.393 . S
C558 H550 0.950 . S
C558 C556 1.391 . S
C558 C559 1.400 . S
C559 C558 1.400 . S
C559 C560 1.398 . S
C559 C565 1.491 . S
C560 H551 0.950 . S
C560 C559 1.398 . S
C560 C561 1.391 . S
C561 H549 0.950 . S
C561 C557 1.393 . S
C561 C560 1.391 . S
C562 H552 0.950 . S
C562 C563 1.386 . S
C562 C564 1.391 . S
C563 C562 1.386 . S
C563 C567 1.393 . S
C564 H553 0.950 . S
C564 C562 1.391 . S
C564 C565 1.400 . S
C565 C559 1.491 . S
C565 C564 1.400 . S
C565 C566 1.398 . S
C566 H554 0.950 . S
C566 C565 1.398 . S
C566 C567 1.391 . S
C567 H555 0.950 . S
C567 C563 1.393 . S
C567 C566 1.391 . S
H568 C576 0.950 . S
H569 C581 0.950 . S
H570 C578 0.950 . S
H571 C580 0.950 . S
H572 C582 0.950 . S
H573 C584 0.950 . S
H574 C586 0.950 . S
H575 C587 0.950 . S
C576 H568 0.950 . S
C576 C577 1.386 . S
C576 C578 1.391 . S
C577 C576 1.386 . S
C577 C581 1.393 . S
C578 H570 0.950 . S
C578 C576 1.391 . S
C578 C579 1.400 . S
C579 C578 1.400 . S
C579 C580 1.398 . S
C579 C585 1.491 1_556 S
C580 H571 0.950 . S
C580 C579 1.398 . S
C580 C581 1.391 . S
C581 H569 0.950 . S
C581 C577 1.393 . S
C581 C580 1.391 . S
C582 H572 0.950 . S
C582 C583 1.386 . S
C582 C584 1.391 . S
C583 C582 1.386 . S
C583 C587 1.393 . S
C584 H573 0.950 . S
C584 C582 1.391 . S
C584 C585 1.400 . S
C585 C579 1.491 1_554 S
C585 C584 1.400 . S
C585 C586 1.398 . S
C586 H574 0.950 . S
C586 C585 1.398 . S
C586 C587 1.391 . S
C587 H575 0.950 . S
C587 C583 1.393 . S
C587 C586 1.391 . S
H588 C596 0.950 . S
H589 C601 0.950 . S
H590 C598 0.950 . S
H591 C600 0.950 . S
H592 C602 0.950 . S
H593 C604 0.950 . S
H594 C606 0.950 . S
H595 C607 0.950 . S
C596 H588 0.950 . S
C596 C597 1.386 . S
C596 C598 1.391 . S
C597 C596 1.386 . S
C597 C601 1.393 . S
C598 H590 0.950 . S
C598 C596 1.391 . S
C598 C599 1.400 . S
C599 C598 1.400 . S
C599 C600 1.398 . S
C599 C605 1.491 . S
C600 H591 0.950 . S
C600 C599 1.398 . S
C600 C601 1.391 . S
C601 H589 0.950 . S
C601 C597 1.393 . S
C601 C600 1.391 . S
C602 H592 0.950 . S
C602 C603 1.386 . S
C602 C604 1.391 . S
C603 C602 1.386 . S
C603 C607 1.393 . S
C604 H593 0.950 . S
C604 C602 1.391 . S
C604 C605 1.400 . S
C605 C599 1.491 . S
C605 C604 1.400 . S
C605 C606 1.398 . S
C606 H594 0.950 . S
C606 C605 1.398 . S
C606 C607 1.391 . S
C607 H595 0.950 . S
C607 C603 1.393 . S
C607 C606 1.391 . S
H608 C616 0.950 . S
H609 C621 0.950 . S
H610 C618 0.950 . S
H611 C620 0.950 . S
H612 C622 0.950 . S
H613 C624 0.950 . S
H614 C626 0.950 . S
H615 C627 0.950 . S
C616 H608 0.950 . S
C616 C617 1.386 . S
C616 C618 1.391 . S
C617 C616 1.386 . S
C617 C621 1.393 . S
C618 H610 0.950 . S
C618 C616 1.391 . S
C618 C619 1.400 . S
C619 C618 1.400 . S
C619 C620 1.398 . S
C619 C625 1.491 . S
C620 H611 0.950 . S
C620 C619 1.398 . S
C620 C621 1.391 . S
C621 H609 0.950 . S
C621 C617 1.393 . S
C621 C620 1.391 . S
C622 H612 0.950 . S
C622 C623 1.386 . S
C622 C624 1.391 . S
C623 C622 1.386 . S
C623 C627 1.393 . S
C624 H613 0.950 . S
C624 C622 1.391 . S
C624 C625 1.400 . S
C625 C619 1.491 . S
C625 C624 1.400 . S
C625 C626 1.398 . S
C626 H614 0.950 . S
C626 C625 1.398 . S
C626 C627 1.391 . S
C627 H615 0.950 . S
C627 C623 1.393 . S
C627 C626 1.391 . S
H628 C636 0.950 . S
H629 C641 0.950 . S
H630 C638 0.950 . S
H631 C640 0.950 . S
H632 C642 0.950 . S
H633 C644 0.950 . S
H634 C646 0.950 . S
H635 C647 0.950 . S
C636 H628 0.950 . S
C636 C637 1.386 . S
C636 C638 1.391 . S
C637 C636 1.386 . S
C637 C641 1.393 . S
C638 H630 0.950 . S
C638 C636 1.391 . S
C638 C639 1.400 . S
C639 C638 1.400 . S
C639 C640 1.398 . S
C639 C645 1.491 . S
C640 H631 0.950 . S
C640 C639 1.398 . S
C640 C641 1.391 . S
C641 H629 0.950 . S
C641 C637 1.393 . S
C641 C640 1.391 . S
C642 H632 0.950 . S
C642 C643 1.386 . S
C642 C644 1.391 . S
C643 C642 1.386 . S
C643 C647 1.393 . S
C644 H633 0.950 . S
C644 C642 1.391 . S
C644 C645 1.400 . S
C645 C639 1.491 . S
C645 C644 1.400 . S
C645 C646 1.398 . S
C646 H634 0.950 . S
C646 C645 1.398 . S
C646 C647 1.391 . S
C647 H635 0.950 . S
C647 C643 1.393 . S
C647 C646 1.391 . S
H648 C656 0.950 . S
H649 C661 0.950 . S
H650 C658 0.950 . S
H651 C660 0.950 . S
H652 C662 0.950 . S
H653 C664 0.950 . S
H654 C666 0.950 . S
H655 C667 0.950 . S
C656 H648 0.950 . S
C656 C657 1.386 . S
C656 C658 1.391 . S
C657 C656 1.386 . S
C657 C661 1.393 . S
C658 H650 0.950 . S
C658 C656 1.391 . S
C658 C659 1.400 . S
C659 C658 1.400 . S
C659 C660 1.398 . S
C659 C665 1.491 . S
C660 H651 0.950 . S
C660 C659 1.398 . S
C660 C661 1.391 . S
C661 H649 0.950 . S
C661 C657 1.393 . S
C661 C660 1.391 . S
C662 H652 0.950 . S
C662 C663 1.386 . S
C662 C664 1.391 . S
C663 C662 1.386 . S
C663 C667 1.393 . S
C664 H653 0.950 . S
C664 C662 1.391 . S
C664 C665 1.400 . S
C665 C659 1.491 . S
C665 C664 1.400 . S
C665 C666 1.398 . S
C666 H654 0.950 . S
C666 C665 1.398 . S
C666 C667 1.391 . S
C667 H655 0.950 . S
C667 C663 1.393 . S
C667 C666 1.391 . S
H668 C676 0.950 . S
H669 C681 0.950 . S
H670 C678 0.950 . S
H671 C680 0.950 . S
H672 C682 0.950 . S
H673 C684 0.950 . S
H674 C686 0.950 . S
H675 C687 0.950 . S
C676 H668 0.950 . S
C676 C677 1.386 . S
C676 C678 1.391 . S
C677 C676 1.386 . S
C677 C681 1.393 . S
C678 H670 0.950 . S
C678 C676 1.391 . S
C678 C679 1.400 . S
C679 C678 1.400 . S
C679 C680 1.398 . S
C679 C685 1.491 . S
C680 H671 0.950 . S
C680 C679 1.398 . S
C680 C681 1.391 . S
C681 H669 0.950 . S
C681 C677 1.393 . S
C681 C680 1.391 . S
C682 H672 0.950 . S
C682 C683 1.386 . S
C682 C684 1.391 . S
C683 C682 1.386 . S
C683 C687 1.393 . S
C684 H673 0.950 . S
C684 C682 1.391 . S
C684 C685 1.400 . S
C685 C679 1.491 . S
C685 C684 1.400 . S
C685 C686 1.398 . S
C686 H674 0.950 . S
C686 C685 1.398 . S
C686 C687 1.391 . S
C687 H675 0.950 . S
C687 C683 1.393 . S
C687 C686 1.391 . S
H688 C696 0.950 . S
H689 C701 0.950 . S
H690 C698 0.950 . S
H691 C700 0.954 . S
H692 C702 0.950 . S
H693 C704 0.950 . S
H694 C706 0.954 . S
H695 C707 0.950 . S
C696 H688 0.950 . S
C696 C697 1.386 . S
C696 C698 1.391 . S
C697 C696 1.386 . S
C697 C701 1.393 . S
C698 H690 0.950 . S
C698 C696 1.391 . S
C698 C699 1.400 . S
C699 C698 1.400 . S
C699 C700 1.398 . S
C699 C705 1.491 1_565 S
C700 H691 0.954 . S
C700 C699 1.398 . S
C700 C701 1.391 . S
C701 H689 0.950 . S
C701 C697 1.393 . S
C701 C700 1.391 . S
C702 H692 0.950 . S
C702 C703 1.386 . S
C702 C704 1.391 . S
C703 C702 1.386 . S
C703 C707 1.393 . S
C704 H693 0.950 . S
C704 C702 1.391 . S
C704 C705 1.400 . S
C705 C699 1.491 1_545 S
C705 C704 1.400 . S
C705 C706 1.398 . S
C706 H694 0.954 . S
C706 C705 1.398 . S
C706 C707 1.391 . S
C707 H695 0.950 . S
C707 C703 1.393 . S
C707 C706 1.391 . S
H708 C716 0.950 1_554 S
H709 C721 0.950 . S
H710 C718 0.950 . S
H711 C720 0.950 1_655 S
H712 C722 0.950 1_556 S
H713 C724 0.950 . S
H714 C726 0.950 1_455 S
H715 C727 0.950 . S
C716 H708 0.950 1_556 S
C716 C717 1.386 . S
C716 C718 1.391 1_556 S
C717 C716 1.386 . S
C717 C721 1.393 . S
C718 H710 0.950 . S
C718 C716 1.391 1_554 S
C718 C719 1.400 1_554 S
C719 C718 1.400 1_556 S
C719 C720 1.398 . S
C719 C725 1.491 1_466 S
C720 H711 0.950 1_455 S
C720 C719 1.398 . S
C720 C721 1.391 . S
C721 H709 0.950 . S
C721 C717 1.393 . S
C721 C720 1.391 . S
C722 H712 0.950 1_554 S
C722 C723 1.386 . S
C722 C724 1.391 1_554 S
C723 C722 1.386 . S
C723 C727 1.393 . S
C724 H713 0.950 . S
C724 C722 1.391 1_556 S
C724 C725 1.400 1_556 S
C725 C719 1.491 1_644 S
C725 C724 1.400 1_554 S
C725 C726 1.398 . S
C726 H714 0.950 1_655 S
C726 C725 1.398 . S
C726 C727 1.391 . S
C727 H715 0.950 . S
C727 C723 1.393 . S
C727 C726 1.391 . S
H728 C736 0.967 . S
H729 C741 0.950 . S
H730 C738 0.950 . S
H731 C740 0.950 . S
H732 C742 0.967 . S
H733 C744 0.950 . S
H734 C746 0.950 . S
H735 C747 0.950 . S
C736 H728 0.967 . S
C736 C737 1.386 . S
C736 C738 1.391 1_556 S
C737 C736 1.386 . S
C737 C741 1.393 . S
C738 H730 0.950 . S
C738 C736 1.391 1_554 S
C738 C739 1.400 1_554 S
C739 C738 1.400 1_556 S
C739 C740 1.398 . S
C739 C745 1.491 1_546 S
C740 H731 0.950 . S
C740 C739 1.398 . S
C740 C741 1.391 . S
C741 H729 0.950 . S
C741 C737 1.393 . S
C741 C740 1.391 . S
C742 H732 0.967 . S
C742 C743 1.386 . S
C742 C744 1.391 1_554 S
C743 C742 1.386 . S
C743 C747 1.393 . S
C744 H733 0.950 . S
C744 C742 1.391 1_556 S
C744 C745 1.400 1_556 S
C745 C739 1.491 1_564 S
C745 C744 1.400 1_554 S
C745 C746 1.398 . S
C746 H734 0.950 . S
C746 C745 1.398 . S
C746 C747 1.391 . S
C747 H735 0.950 . S
C747 C743 1.393 . S
C747 C746 1.391 . S
H748 C756 0.950 . S
H749 C761 0.950 . S
H750 C758 0.950 1_565 S
H751 C760 0.950 . S
H752 C762 0.950 . S
H753 C764 0.950 1_545 S
H754 C766 0.950 . S
H755 C767 0.950 . S
C756 H748 0.950 . S
C756 C757 1.386 . S
C756 C758 1.391 . S
C757 C756 1.386 . S
C757 C761 1.393 . S
C758 H750 0.950 1_545 S
C758 C756 1.391 . S
C758 C759 1.400 . S
C759 C758 1.400 . S
C759 C760 1.398 . S
C759 C765 1.491 1_445 S
C760 H751 0.950 . S
C760 C759 1.398 . S
C760 C761 1.391 . S
C761 H749 0.950 . S
C761 C757 1.393 . S
C761 C760 1.391 . S
C762 H752 0.950 . S
C762 C763 1.386 . S
C762 C764 1.391 . S
C763 C762 1.386 . S
C763 C767 1.393 . S
C764 H753 0.950 1_565 S
C764 C762 1.391 . S
C764 C765 1.400 . S
C765 C759 1.491 1_665 S
C765 C764 1.400 . S
C765 C766 1.398 . S
C766 H754 0.950 . S
C766 C765 1.398 . S
C766 C767 1.391 . S
C767 H755 0.950 . S
C767 C763 1.393 . S
C767 C766 1.391 . S
H768 C776 0.950 . S
H769 C781 0.950 . S
H770 C778 0.950 . S
H771 C780 0.950 . S
H772 C782 0.950 . S
H773 C784 0.950 . S
H774 C786 0.950 . S
H775 C787 0.950 . S
C776 H768 0.950 . S
C776 C777 1.386 . S
C776 C778 1.391 . S
C777 C776 1.386 . S
C777 C781 1.393 . S
C778 H770 0.950 . S
C778 C776 1.391 . S
C778 C779 1.400 . S
C779 C778 1.400 . S
C779 C780 1.398 1_655 S
C779 C785 1.491 1_655 S
C780 H771 0.950 . S
C780 C779 1.398 1_455 S
C780 C781 1.391 1_455 S
C781 H769 0.950 . S
C781 C777 1.393 . S
C781 C780 1.391 1_655 S
C782 H772 0.950 . S
C782 C783 1.386 . S
C782 C784 1.391 . S
C783 C782 1.386 . S
C783 C787 1.393 . S
C784 H773 0.950 . S
C784 C782 1.391 . S
C784 C785 1.400 . S
C785 C779 1.491 1_455 S
C785 C784 1.400 . S
C785 C786 1.398 1_455 S
C786 H774 0.950 . S
C786 C785 1.398 1_655 S
C786 C787 1.391 1_655 S
C787 H775 0.950 . S
C787 C783 1.393 . S
C787 C786 1.391 1_455 S
H788 C796 0.950 . S
H789 C801 0.950 . S
H790 C798 0.950 . S
H791 C800 0.950 . S
H792 C802 0.950 . S
H793 C804 0.950 . S
H794 C806 0.950 . S
H795 C807 0.950 . S
C796 H788 0.950 . S
C796 C797 1.386 . S
C796 C798 1.391 . S
C797 C796 1.386 . S
C797 C801 1.393 . S
C798 H790 0.950 . S
C798 C796 1.391 . S
C798 C799 1.400 . S
C799 C798 1.400 . S
C799 C800 1.398 . S
C799 C805 1.491 1_455 S
C800 H791 0.950 . S
C800 C799 1.398 . S
C800 C801 1.391 . S
C801 H789 0.950 . S
C801 C797 1.393 . S
C801 C800 1.391 . S
C802 H792 0.950 . S
C802 C803 1.386 . S
C802 C804 1.391 . S
C803 C802 1.386 . S
C803 C807 1.393 . S
C804 H793 0.950 . S
C804 C802 1.391 . S
C804 C805 1.400 . S
C805 C799 1.491 1_655 S
C805 C804 1.400 . S
C805 C806 1.398 . S
C806 H794 0.950 . S
C806 C805 1.398 . S
C806 C807 1.391 . S
C807 H795 0.950 . S
C807 C803 1.393 . S
C807 C806 1.391 . S
H808 C816 0.950 . S
H809 C821 0.950 . S
H810 C818 0.950 . S
H811 C820 0.950 . S
H812 C822 0.950 . S
H813 C824 0.950 . S
H814 C826 0.950 . S
H815 C827 0.950 . S
C816 H808 0.950 . S
C816 C817 1.386 . S
C816 C818 1.391 . S
C817 C816 1.386 . S
C817 C821 1.393 . S
C818 H810 0.950 . S
C818 C816 1.391 . S
C818 C819 1.400 . S
C819 C818 1.400 . S
C819 C820 1.398 . S
C819 C825 1.491 . S
C820 H811 0.950 . S
C820 C819 1.398 . S
C820 C821 1.391 . S
C821 H809 0.950 . S
C821 C817 1.393 . S
C821 C820 1.391 . S
C822 H812 0.950 . S
C822 C823 1.386 . S
C822 C824 1.391 . S
C823 C822 1.386 . S
C823 C827 1.393 . S
C824 H813 0.950 . S
C824 C822 1.391 . S
C824 C825 1.400 . S
C825 C819 1.491 . S
C825 C824 1.400 . S
C825 C826 1.398 . S
C826 H814 0.950 . S
C826 C825 1.398 . S
C826 C827 1.391 . S
C827 H815 0.950 . S
C827 C823 1.393 . S
C827 C826 1.391 . S
H828 C836 0.950 . S
H829 C841 0.950 . S
H830 C838 0.950 . S
H831 C840 0.950 . S
H832 C842 0.950 . S
H833 C844 0.950 . S
H834 C846 0.950 . S
H835 C847 0.950 . S
C836 H828 0.950 . S
C836 C837 1.386 . S
C836 C838 1.391 . S
C837 C836 1.386 . S
C837 C841 1.393 . S
C838 H830 0.950 . S
C838 C836 1.391 . S
C838 C839 1.400 . S
C839 C838 1.400 . S
C839 C840 1.398 . S
C839 C845 1.491 . S
C840 H831 0.950 . S
C840 C839 1.398 . S
C840 C841 1.391 . S
C841 H829 0.950 . S
C841 C837 1.393 . S
C841 C840 1.391 . S
C842 H832 0.950 . S
C842 C843 1.386 . S
C842 C844 1.391 . S
C843 C842 1.386 . S
C843 C847 1.393 . S
C844 H833 0.950 . S
C844 C842 1.391 . S
C844 C845 1.400 . S
C845 C839 1.491 . S
C845 C844 1.400 . S
C845 C846 1.398 . S
C846 H834 0.950 . S
C846 C845 1.398 . S
C846 C847 1.391 . S
C847 H835 0.950 . S
C847 C843 1.393 . S
C847 C846 1.391 . S
H848 C856 0.950 . S
H849 C861 0.950 . S
H850 C858 0.950 1_455 S
H851 C860 0.950 . S
H852 C862 0.950 . S
H853 C864 0.950 1_655 S
H854 C866 0.950 . S
H855 C867 0.950 . S
C856 H848 0.950 . S
C856 C857 1.386 . S
C856 C858 1.391 . S
C857 C856 1.386 . S
C857 C861 1.393 . S
C858 H850 0.950 1_655 S
C858 C856 1.391 . S
C858 C859 1.400 . S
C859 C858 1.400 . S
C859 C860 1.398 . S
C859 C865 1.491 1_655 S
C860 H851 0.950 . S
C860 C859 1.398 . S
C860 C861 1.391 . S
C861 H849 0.950 . S
C861 C857 1.393 . S
C861 C860 1.391 . S
C862 H852 0.950 . S
C862 C863 1.386 . S
C862 C864 1.391 . S
C863 C862 1.386 . S
C863 C867 1.393 . S
C864 H853 0.950 1_455 S
C864 C862 1.391 . S
C864 C865 1.400 . S
C865 C859 1.491 1_455 S
C865 C864 1.400 . S
C865 C866 1.398 . S
C866 H854 0.950 . S
C866 C865 1.398 . S
C866 C867 1.391 . S
C867 H855 0.950 . S
C867 C863 1.393 . S
C867 C866 1.391 . S
H868 C876 0.950 . S
H869 C881 0.950 . S
H870 C878 0.950 . S
H871 C880 0.950 . S
H872 C882 0.950 . S
H873 C884 0.950 . S
H874 C886 0.950 . S
H875 C887 0.950 . S
C876 H868 0.950 . S
C876 C877 1.386 . S
C876 C878 1.391 . S
C877 C876 1.386 . S
C877 C881 1.393 . S
C878 H870 0.950 . S
C878 C876 1.391 . S
C878 C879 1.400 . S
C879 C878 1.400 . S
C879 C880 1.398 . S
C879 C885 1.491 . S
C880 H871 0.950 . S
C880 C879 1.398 . S
C880 C881 1.391 . S
C881 H869 0.950 . S
C881 C877 1.393 . S
C881 C880 1.391 . S
C882 H872 0.950 . S
C882 C883 1.386 . S
C882 C884 1.391 . S
C883 C882 1.386 . S
C883 C887 1.393 . S
C884 H873 0.950 . S
C884 C882 1.391 . S
C884 C885 1.400 . S
C885 C879 1.491 . S
C885 C884 1.400 . S
C885 C886 1.398 . S
C886 H874 0.950 . S
C886 C885 1.398 . S
C886 C887 1.391 . S
C887 H875 0.950 . S
C887 C883 1.393 . S
C887 C886 1.391 . S
H888 C896 0.950 . S
H889 C901 0.950 . S
H890 C898 0.950 . S
H891 C900 0.950 . S
H892 C902 0.950 . S
H893 C904 0.950 . S
H894 C906 0.950 . S
H895 C907 0.950 . S
C896 H888 0.950 . S
C896 C897 1.386 . S
C896 C898 1.391 . S
C897 C896 1.386 . S
C897 C901 1.393 . S
C898 H890 0.950 . S
C898 C896 1.391 . S
C898 C899 1.400 . S
C899 C898 1.400 . S
C899 C900 1.398 . S
C899 C905 1.491 . S
C900 H891 0.950 . S
C900 C899 1.398 . S
C900 C901 1.391 . S
C901 H889 0.950 . S
C901 C897 1.393 . S
C901 C900 1.391 . S
C902 H892 0.950 . S
C902 C903 1.386 . S
C902 C904 1.391 . S
C903 C902 1.386 . S
C903 C907 1.393 . S
C904 H893 0.950 . S
C904 C902 1.391 . S
C904 C905 1.400 . S
C905 C899 1.491 . S
C905 C904 1.400 . S
C905 C906 1.398 . S
C906 H894 0.950 . S
C906 C905 1.398 . S
C906 C907 1.391 . S
C907 H895 0.950 . S
C907 C903 1.393 . S
C907 C906 1.391 . S
H908 C916 0.950 . S
H909 C921 0.950 . S
H910 C918 0.950 1_655 S
H911 C920 0.950 . S
H912 C922 0.950 . S
H913 C924 0.950 1_455 S
H914 C926 0.950 . S
H915 C927 0.950 . S
C916 H908 0.950 . S
C916 C917 1.386 . S
C916 C918 1.391 . S
C917 C916 1.386 . S
C917 C921 1.393 . S
C918 H910 0.950 1_455 S
C918 C916 1.391 . S
C918 C919 1.400 . S
C919 C918 1.400 . S
C919 C920 1.398 . S
C919 C925 1.491 1_455 S
C920 H911 0.950 . S
C920 C919 1.398 . S
C920 C921 1.391 . S
C921 H909 0.950 . S
C921 C917 1.393 . S
C921 C920 1.391 . S
C922 H912 0.950 . S
C922 C923 1.386 . S
C922 C924 1.391 . S
C923 C922 1.386 . S
C923 C927 1.393 . S
C924 H913 0.950 1_655 S
C924 C922 1.391 . S
C924 C925 1.400 . S
C925 C919 1.491 1_655 S
C925 C924 1.400 . S
C925 C926 1.398 . S
C926 H914 0.950 . S
C926 C925 1.398 . S
C926 C927 1.391 . S
C927 H915 0.950 . S
C927 C923 1.393 . S
C927 C926 1.391 . S
H928 C936 0.950 . S
H929 C941 0.950 . S
H930 C938 0.950 . S
H931 C940 0.924 1_455 S
H932 C942 0.950 . S
H933 C944 0.950 . S
H934 C946 0.925 1_655 S
H935 C947 0.950 . S
C936 H928 0.950 . S
C936 C937 1.386 . S
C936 C938 1.391 . S
C937 C936 1.386 . S
C937 C941 1.393 . S
C938 H930 0.950 . S
C938 C936 1.391 . S
C938 C939 1.400 . S
C939 C938 1.400 . S
C939 C940 1.406 . S
C939 C945 1.491 1_655 S
C940 H931 0.924 1_655 S
C940 C939 1.406 . S
C940 C941 1.408 . S
C941 H929 0.950 . S
C941 C937 1.393 . S
C941 C940 1.408 . S
C942 H932 0.950 . S
C942 C943 1.386 . S
C942 C944 1.391 . S
C943 C942 1.386 . S
C943 C947 1.393 . S
C944 H933 0.950 . S
C944 C942 1.391 . S
C944 C945 1.400 . S
C945 C939 1.491 1_455 S
C945 C944 1.400 . S
C945 C946 1.406 . S
C946 H934 0.925 1_455 S
C946 C945 1.406 . S
C946 C947 1.408 . S
C947 H935 0.950 . S
C947 C943 1.393 . S
C947 C946 1.408 . S
H948 C956 0.950 . S
H949 C961 0.950 . S
H950 C958 0.950 . S
H951 C960 0.950 . S
H952 C962 0.950 . S
H953 C964 0.950 . S
H954 C966 0.950 . S
H955 C967 0.950 . S
C956 H948 0.950 . S
C956 C957 1.386 . S
C956 C958 1.391 . S
C957 C956 1.386 . S
C957 C961 1.393 . S
C958 H950 0.950 . S
C958 C956 1.391 . S
C958 C959 1.400 . S
C959 C958 1.400 . S
C959 C960 1.398 . S
C959 C965 1.491 1_655 S
C960 H951 0.950 . S
C960 C959 1.398 . S
C960 C961 1.391 . S
C961 H949 0.950 . S
C961 C957 1.393 . S
C961 C960 1.391 . S
C962 H952 0.950 . S
C962 C963 1.386 . S
C962 C964 1.391 . S
C963 C962 1.386 . S
C963 C967 1.393 . S
C964 H953 0.950 . S
C964 C962 1.391 . S
C964 C965 1.400 . S
C965 C959 1.491 1_455 S
C965 C964 1.400 . S
C965 C966 1.398 . S
C966 H954 0.950 . S
C966 C965 1.398 . S
C966 C967 1.391 . S
C967 H955 0.950 . S
C967 C963 1.393 . S
C967 C966 1.391 . S
H968 C976 0.950 . S
H969 C981 0.950 . S
H970 C978 0.950 . S
H971 C980 0.950 . S
H972 C982 0.950 . S
H973 C984 0.950 . S
H974 C986 0.950 . S
H975 C987 0.950 . S
C976 H968 0.950 . S
C976 C977 1.386 . S
C976 C978 1.391 . S
C977 C976 1.386 . S
C977 C981 1.393 . S
C978 H970 0.950 . S
C978 C976 1.391 . S
C978 C979 1.400 . S
C979 C978 1.400 . S
C979 C980 1.398 . S
C979 C985 1.491 . S
C980 H971 0.950 . S
C980 C979 1.398 . S
C980 C981 1.391 . S
C981 H969 0.950 . S
C981 C977 1.393 . S
C981 C980 1.391 . S
C982 H972 0.950 . S
C982 C983 1.386 . S
C982 C984 1.391 . S
C983 C982 1.386 . S
C983 C987 1.393 . S
C984 H973 0.950 . S
C984 C982 1.391 . S
C984 C985 1.400 . S
C985 C979 1.491 . S
C985 C984 1.400 . S
C985 C986 1.398 . S
C986 H974 0.950 . S
C986 C985 1.398 . S
C986 C987 1.391 . S
C987 H975 0.950 . S
C987 C983 1.393 . S
C987 C986 1.391 . S
H988 C996 0.950 . S
H989 C1001 0.950 . S
H990 C998 0.950 . S
H991 C1000 0.950 . S
H992 C1002 0.950 . S
H993 C1004 0.950 . S
H994 C1006 0.950 . S
H995 C1007 0.950 . S
C996 H988 0.950 . S
C996 C997 1.386 . S
C996 C998 1.391 . S
C997 C996 1.386 . S
C997 C1001 1.393 . S
C998 H990 0.950 . S
C998 C996 1.391 . S
C998 C999 1.400 . S
C999 C998 1.400 . S
C999 C1000 1.398 . S
C999 C1005 1.491 . S
C1000 H991 0.950 . S
C1000 C999 1.398 . S
C1000 C1001 1.391 . S
C1001 H989 0.950 . S
C1001 C997 1.393 . S
C1001 C1000 1.391 . S
C1002 H992 0.950 . S
C1002 C1003 1.386 . S
C1002 C1004 1.391 . S
C1003 C1002 1.386 . S
C1003 C1007 1.393 . S
C1004 H993 0.950 . S
C1004 C1002 1.391 . S
C1004 C1005 1.400 . S
C1005 C999 1.491 . S
C1005 C1004 1.400 . S
C1005 C1006 1.398 . S
C1006 H994 0.950 . S
C1006 C1005 1.398 . S
C1006 C1007 1.391 . S
C1007 H995 0.950 . S
C1007 C1003 1.393 . S
C1007 C1006 1.391 . S
H1008 C1016 0.950 . S
H1009 C1021 0.950 1_455 S
H1010 C1018 0.950 . S
H1011 C1020 0.950 . S
H1012 C1022 0.950 . S
H1013 C1024 0.950 . S
H1014 C1026 0.950 . S
H1015 C1027 0.950 1_655 S
C1016 H1008 0.950 . S
C1016 C1017 1.386 . S
C1016 C1018 1.391 . S
C1017 C1016 1.386 . S
C1017 C1021 1.393 . S
C1018 H1010 0.950 . S
C1018 C1016 1.391 . S
C1018 C1019 1.400 . S
C1019 C1018 1.400 . S
C1019 C1020 1.398 1_655 S
C1019 C1025 1.491 1_655 S
C1020 H1011 0.950 . S
C1020 C1019 1.398 1_455 S
C1020 C1021 1.391 1_455 S
C1021 H1009 0.950 1_655 S
C1021 C1017 1.393 . S
C1021 C1020 1.391 1_655 S
C1022 H1012 0.950 . S
C1022 C1023 1.386 . S
C1022 C1024 1.391 . S
C1023 C1022 1.386 . S
C1023 C1027 1.393 . S
C1024 H1013 0.950 . S
C1024 C1022 1.391 . S
C1024 C1025 1.400 . S
C1025 C1019 1.491 1_455 S
C1025 C1024 1.400 . S
C1025 C1026 1.398 1_455 S
C1026 H1014 0.950 . S
C1026 C1025 1.398 1_655 S
C1026 C1027 1.391 1_655 S
C1027 H1015 0.950 1_455 S
C1027 C1023 1.393 . S
C1027 C1026 1.391 1_455 S
H1028 C1036 0.950 . S
H1029 C1041 0.950 . S
H1030 C1038 0.950 . S
H1031 C1040 0.950 . S
H1032 C1042 0.950 . S
H1033 C1044 0.950 . S
H1034 C1046 0.950 . S
H1035 C1047 0.950 . S
C1036 H1028 0.950 . S
C1036 C1037 1.386 . S
C1036 C1038 1.391 . S
C1037 C1036 1.386 . S
C1037 C1041 1.393 . S
C1038 H1030 0.950 . S
C1038 C1036 1.391 . S
C1038 C1039 1.400 . S
C1039 C1038 1.400 . S
C1039 C1040 1.398 . S
C1039 C1045 1.491 . S
C1040 H1031 0.950 . S
C1040 C1039 1.398 . S
C1040 C1041 1.391 . S
C1041 H1029 0.950 . S
C1041 C1037 1.393 . S
C1041 C1040 1.391 . S
C1042 H1032 0.950 . S
C1042 C1043 1.386 . S
C1042 C1044 1.391 . S
C1043 C1042 1.386 . S
C1043 C1047 1.393 . S
C1044 H1033 0.950 . S
C1044 C1042 1.391 . S
C1044 C1045 1.400 . S
C1045 C1039 1.491 . S
C1045 C1044 1.400 . S
C1045 C1046 1.398 . S
C1046 H1034 0.950 . S
C1046 C1045 1.398 . S
C1046 C1047 1.391 . S
C1047 H1035 0.950 . S
C1047 C1043 1.393 . S
C1047 C1046 1.391 . S
H1048 C1056 0.950 . S
H1049 C1061 0.950 . S
H1050 C1058 0.950 . S
H1051 C1060 0.950 . S
H1052 C1062 0.950 . S
H1053 C1064 0.950 . S
H1054 C1066 0.950 . S
H1055 C1067 0.950 . S
C1056 H1048 0.950 . S
C1056 C1057 1.386 . S
C1056 C1058 1.391 . S
C1057 C1056 1.386 . S
C1057 C1061 1.393 . S
C1058 H1050 0.950 . S
C1058 C1056 1.391 . S
C1058 C1059 1.400 . S
C1059 C1058 1.400 . S
C1059 C1060 1.398 . S
C1059 C1065 1.491 . S
C1060 H1051 0.950 . S
C1060 C1059 1.398 . S
C1060 C1061 1.391 . S
C1061 H1049 0.950 . S
C1061 C1057 1.393 . S
C1061 C1060 1.391 . S
C1062 H1052 0.950 . S
C1062 C1063 1.386 . S
C1062 C1064 1.391 . S
C1063 C1062 1.386 . S
C1063 C1067 1.393 . S
C1064 H1053 0.950 . S
C1064 C1062 1.391 . S
C1064 C1065 1.400 . S
C1065 C1059 1.491 . S
C1065 C1064 1.400 . S
C1065 C1066 1.398 . S
C1066 H1054 0.950 . S
C1066 C1065 1.398 . S
C1066 C1067 1.391 . S
C1067 H1055 0.950 . S
C1067 C1063 1.393 . S
C1067 C1066 1.391 . S
H1068 C1076 0.950 . S
H1069 C1081 0.950 . S
H1070 C1078 0.950 . S
H1071 C1080 0.950 . S
H1072 C1082 0.950 . S
H1073 C1084 0.950 . S
H1074 C1086 0.950 . S
H1075 C1087 0.950 . S
C1076 H1068 0.950 . S
C1076 C1077 1.386 . S
C1076 C1078 1.391 . S
C1077 C1076 1.386 . S
C1077 C1081 1.393 . S
C1078 H1070 0.950 . S
C1078 C1076 1.391 . S
C1078 C1079 1.400 . S
C1079 C1078 1.400 . S
C1079 C1080 1.398 . S
C1079 C1085 1.491 1_655 S
C1080 H1071 0.950 . S
C1080 C1079 1.398 . S
C1080 C1081 1.391 . S
C1081 H1069 0.950 . S
C1081 C1077 1.393 . S
C1081 C1080 1.391 . S
C1082 H1072 0.950 . S
C1082 C1083 1.386 . S
C1082 C1084 1.391 . S
C1083 C1082 1.386 . S
C1083 C1087 1.393 . S
C1084 H1073 0.950 . S
C1084 C1082 1.391 . S
C1084 C1085 1.400 . S
C1085 C1079 1.491 1_455 S
C1085 C1084 1.400 . S
C1085 C1086 1.398 . S
C1086 H1074 0.950 . S
C1086 C1085 1.398 . S
C1086 C1087 1.391 . S
C1087 H1075 0.950 . S
C1087 C1083 1.393 . S
C1087 C1086 1.391 . S
H1088 C1096 0.933 1_554 S
H1089 C1101 0.950 . S
H1090 C1098 0.950 . S
H1091 C1100 0.950 . S
H1092 C1102 0.933 1_556 S
H1093 C1104 0.950 . S
H1094 C1106 0.950 . S
H1095 C1107 0.950 . S
C1096 H1088 0.933 1_556 S
C1096 C1097 1.386 . S
C1096 C1098 1.391 1_556 S
C1097 C1096 1.386 . S
C1097 C1101 1.393 . S
C1098 H1090 0.950 . S
C1098 C1096 1.391 1_554 S
C1098 C1099 1.400 1_554 S
C1099 C1098 1.400 1_556 S
C1099 C1100 1.398 . S
C1099 C1105 1.491 1_556 S
C1100 H1091 0.950 . S
C1100 C1099 1.398 . S
C1100 C1101 1.391 . S
C1101 H1089 0.950 . S
C1101 C1097 1.393 . S
C1101 C1100 1.391 . S
C1102 H1092 0.933 1_554 S
C1102 C1103 1.386 . S
C1102 C1104 1.391 1_554 S
C1103 C1102 1.386 . S
C1103 C1107 1.393 . S
C1104 H1093 0.950 . S
C1104 C1102 1.391 1_556 S
C1104 C1105 1.400 1_556 S
C1105 C1099 1.491 1_554 S
C1105 C1104 1.400 1_554 S
C1105 C1106 1.398 . S
C1106 H1094 0.950 . S
C1106 C1105 1.398 . S
C1106 C1107 1.391 . S
C1107 H1095 0.950 . S
C1107 C1103 1.393 . S
C1107 C1106 1.391 . S
H1108 C1116 0.950 . S
H1109 C1121 0.950 . S
H1110 C1118 0.950 . S
H1111 C1120 0.950 . S
H1112 C1122 0.950 . S
H1113 C1124 0.950 . S
H1114 C1126 0.950 . S
H1115 C1127 0.950 . S
C1116 H1108 0.950 . S
C1116 C1117 1.386 . S
C1116 C1118 1.391 . S
C1117 C1116 1.386 . S
C1117 C1121 1.393 . S
C1118 H1110 0.950 . S
C1118 C1116 1.391 . S
C1118 C1119 1.400 . S
C1119 C1118 1.400 . S
C1119 C1120 1.398 . S
C1119 C1125 1.491 1_545 S
C1120 H1111 0.950 . S
C1120 C1119 1.398 . S
C1120 C1121 1.391 . S
C1121 H1109 0.950 . S
C1121 C1117 1.393 . S
C1121 C1120 1.391 . S
C1122 H1112 0.950 . S
C1122 C1123 1.386 . S
C1122 C1124 1.391 . S
C1123 C1122 1.386 . S
C1123 C1127 1.393 . S
C1124 H1113 0.950 . S
C1124 C1122 1.391 . S
C1124 C1125 1.400 . S
C1125 C1119 1.491 1_565 S
C1125 C1124 1.400 . S
C1125 C1126 1.398 . S
C1126 H1114 0.950 . S
C1126 C1125 1.398 . S
C1126 C1127 1.391 . S
C1127 H1115 0.950 . S
C1127 C1123 1.393 . S
C1127 C1126 1.391 . S
H1128 C1136 0.950 . S
H1129 C1141 0.950 . S
H1130 C1138 0.950 . S
H1131 C1140 0.950 . S
H1132 C1142 0.950 . S
H1133 C1144 0.950 . S
H1134 C1146 0.950 . S
H1135 C1147 0.950 . S
C1136 H1128 0.950 . S
C1136 C1137 1.386 . S
C1136 C1138 1.391 . S
C1137 C1136 1.386 . S
C1137 C1141 1.393 . S
C1138 H1130 0.950 . S
C1138 C1136 1.391 . S
C1138 C1139 1.400 . S
C1139 C1138 1.400 . S
C1139 C1140 1.398 . S
C1139 C1145 1.491 . S
C1140 H1131 0.950 . S
C1140 C1139 1.398 . S
C1140 C1141 1.391 . S
C1141 H1129 0.950 . S
C1141 C1137 1.393 . S
C1141 C1140 1.391 . S
C1142 H1132 0.950 . S
C1142 C1143 1.386 . S
C1142 C1144 1.391 . S
C1143 C1142 1.386 . S
C1143 C1147 1.393 . S
C1144 H1133 0.950 . S
C1144 C1142 1.391 . S
C1144 C1145 1.400 . S
C1145 C1139 1.491 . S
C1145 C1144 1.400 . S
C1145 C1146 1.398 . S
C1146 H1134 0.950 . S
C1146 C1145 1.398 . S
C1146 C1147 1.391 . S
C1147 H1135 0.950 . S
C1147 C1143 1.393 . S
C1147 C1146 1.391 . S
H1148 C1156 0.950 . S
H1149 C1161 0.950 . S
H1150 C1158 0.950 1_565 S
H1151 C1160 0.950 . S
H1152 C1162 0.950 . S
H1153 C1164 0.950 1_545 S
H1154 C1166 0.950 . S
H1155 C1167 0.950 . S
C1156 H1148 0.950 . S
C1156 C1157 1.386 . S
C1156 C1158 1.391 . S
C1157 C1156 1.386 . S
C1157 C1161 1.393 . S
C1158 H1150 0.950 1_545 S
C1158 C1156 1.391 . S
C1158 C1159 1.400 . S
C1159 C1158 1.400 . S
C1159 C1160 1.398 . S
C1159 C1165 1.491 1_545 S
C1160 H1151 0.950 . S
C1160 C1159 1.398 . S
C1160 C1161 1.391 . S
C1161 H1149 0.950 . S
C1161 C1157 1.393 . S
C1161 C1160 1.391 . S
C1162 H1152 0.950 . S
C1162 C1163 1.386 . S
C1162 C1164 1.391 . S
C1163 C1162 1.386 . S
C1163 C1167 1.393 . S
C1164 H1153 0.950 1_565 S
C1164 C1162 1.391 . S
C1164 C1165 1.400 . S
C1165 C1159 1.491 1_565 S
C1165 C1164 1.400 . S
C1165 C1166 1.398 . S
C1166 H1154 0.950 . S
C1166 C1165 1.398 . S
C1166 C1167 1.391 . S
C1167 H1155 0.950 . S
C1167 C1163 1.393 . S
C1167 C1166 1.391 . S
H1168 C1176 0.950 . S
H1169 C1181 0.950 . S
H1170 C1178 0.950 . S
H1171 C1180 0.950 . S
H1172 C1182 0.950 . S
H1173 C1184 0.950 . S
H1174 C1186 0.950 . S
H1175 C1187 0.950 . S
C1176 H1168 0.950 . S
C1176 C1177 1.386 . S
C1176 C1178 1.391 1_554 S
C1177 C1176 1.386 . S
C1177 C1181 1.393 . S
C1178 H1170 0.950 . S
C1178 C1176 1.391 1_556 S
C1178 C1179 1.400 1_556 S
C1179 C1178 1.400 1_554 S
C1179 C1180 1.398 . S
C1179 C1185 1.491 1_554 S
C1180 H1171 0.950 . S
C1180 C1179 1.398 . S
C1180 C1181 1.391 . S
C1181 H1169 0.950 . S
C1181 C1177 1.393 . S
C1181 C1180 1.391 . S
C1182 H1172 0.950 . S
C1182 C1183 1.386 . S
C1182 C1184 1.391 1_556 S
C1183 C1182 1.386 . S
C1183 C1187 1.393 . S
C1184 H1173 0.950 . S
C1184 C1182 1.391 1_554 S
C1184 C1185 1.400 1_554 S
C1185 C1179 1.491 1_556 S
C1185 C1184 1.400 1_556 S
C1185 C1186 1.398 . S
C1186 H1174 0.950 . S
C1186 C1185 1.398 . S
C1186 C1187 1.391 . S
C1187 H1175 0.950 . S
C1187 C1183 1.393 . S
C1187 C1186 1.391 . S
H1188 C1196 0.950 . S
H1189 C1201 0.950 . S
H1190 C1198 0.950 . S
H1191 C1200 0.950 . S
H1192 C1202 0.950 . S
H1193 C1204 0.950 . S
H1194 C1206 0.950 . S
H1195 C1207 0.950 . S
C1196 H1188 0.950 . S
C1196 C1197 1.386 . S
C1196 C1198 1.391 . S
C1197 C1196 1.386 . S
C1197 C1201 1.393 . S
C1198 H1190 0.950 . S
C1198 C1196 1.391 . S
C1198 C1199 1.400 . S
C1199 C1198 1.400 . S
C1199 C1200 1.398 . S
C1199 C1205 1.491 1_565 S
C1200 H1191 0.950 . S
C1200 C1199 1.398 . S
C1200 C1201 1.391 . S
C1201 H1189 0.950 . S
C1201 C1197 1.393 . S
C1201 C1200 1.391 . S
C1202 H1192 0.950 . S
C1202 C1203 1.386 . S
C1202 C1204 1.391 . S
C1203 C1202 1.386 . S
C1203 C1207 1.393 . S
C1204 H1193 0.950 . S
C1204 C1202 1.391 . S
C1204 C1205 1.400 . S
C1205 C1199 1.491 1_545 S
C1205 C1204 1.400 . S
C1205 C1206 1.398 . S
C1206 H1194 0.950 . S
C1206 C1205 1.398 . S
C1206 C1207 1.391 . S
C1207 H1195 0.950 . S
C1207 C1203 1.393 . S
C1207 C1206 1.391 . S
H1208 C1216 0.950 . S
H1209 C1221 0.950 . S
H1210 C1218 0.950 . S
H1211 C1220 0.950 . S
H1212 C1222 0.950 . S
H1213 C1224 0.950 . S
H1214 C1226 0.950 . S
H1215 C1227 0.950 . S
C1216 H1208 0.950 . S
C1216 C1217 1.386 . S
C1216 C1218 1.391 . S
C1217 C1216 1.386 . S
C1217 C1221 1.393 . S
C1218 H1210 0.950 . S
C1218 C1216 1.391 . S
C1218 C1219 1.400 . S
C1219 C1218 1.400 . S
C1219 C1220 1.398 . S
C1219 C1225 1.491 . S
C1220 H1211 0.950 . S
C1220 C1219 1.398 . S
C1220 C1221 1.391 . S
C1221 H1209 0.950 . S
C1221 C1217 1.393 . S
C1221 C1220 1.391 . S
C1222 H1212 0.950 . S
C1222 C1223 1.386 . S
C1222 C1224 1.391 . S
C1223 C1222 1.386 . S
C1223 C1227 1.393 . S
C1224 H1213 0.950 . S
C1224 C1222 1.391 . S
C1224 C1225 1.400 . S
C1225 C1219 1.491 . S
C1225 C1224 1.400 . S
C1225 C1226 1.398 . S
C1226 H1214 0.950 . S
C1226 C1225 1.398 . S
C1226 C1227 1.391 . S
C1227 H1215 0.950 . S
C1227 C1223 1.393 . S
C1227 C1226 1.391 . S
H1228 C1236 0.950 . S
H1229 C1241 0.950 . S
H1230 C1238 0.950 . S
H1231 C1240 0.950 . S
H1232 C1242 0.950 . S
H1233 C1244 0.950 . S
H1234 C1246 0.950 . S
H1235 C1247 0.950 . S
C1236 H1228 0.950 . S
C1236 C1237 1.386 . S
C1236 C1238 1.391 . S
C1237 C1236 1.386 . S
C1237 C1241 1.393 . S
C1238 H1230 0.950 . S
C1238 C1236 1.391 . S
C1238 C1239 1.400 . S
C1239 C1238 1.400 . S
C1239 C1240 1.398 . S
C1239 C1245 1.491 1_545 S
C1240 H1231 0.950 . S
C1240 C1239 1.398 . S
C1240 C1241 1.391 . S
C1241 H1229 0.950 . S
C1241 C1237 1.393 . S
C1241 C1240 1.391 . S
C1242 H1232 0.950 . S
C1242 C1243 1.386 . S
C1242 C1244 1.391 . S
C1243 C1242 1.386 . S
C1243 C1247 1.393 . S
C1244 H1233 0.950 . S
C1244 C1242 1.391 . S
C1244 C1245 1.400 . S
C1245 C1239 1.491 1_565 S
C1245 C1244 1.400 . S
C1245 C1246 1.398 . S
C1246 H1234 0.950 . S
C1246 C1245 1.398 . S
C1246 C1247 1.391 . S
C1247 H1235 0.950 . S
C1247 C1243 1.393 . S
C1247 C1246 1.391 . S
H1248 C1256 0.950 . S
H1249 C1261 0.950 . S
H1250 C1258 0.950 . S
H1251 C1260 0.950 . S
H1252 C1262 0.950 . S
H1253 C1264 0.950 . S
H1254 C1266 0.950 . S
H1255 C1267 0.950 . S
C1256 H1248 0.950 . S
C1256 C1257 1.386 . S
C1256 C1258 1.391 . S
C1257 C1256 1.386 . S
C1257 C1261 1.393 . S
C1258 H1250 0.950 . S
C1258 C1256 1.391 . S
C1258 C1259 1.400 . S
C1259 C1258 1.400 . S
C1259 C1260 1.398 . S
C1259 C1265 1.491 . S
C1260 H1251 0.950 . S
C1260 C1259 1.398 . S
C1260 C1261 1.391 . S
C1261 H1249 0.950 . S
C1261 C1257 1.393 . S
C1261 C1260 1.391 . S
C1262 H1252 0.950 . S
C1262 C1263 1.386 . S
C1262 C1264 1.391 . S
C1263 C1262 1.386 . S
C1263 C1267 1.393 . S
C1264 H1253 0.950 . S
C1264 C1262 1.391 . S
C1264 C1265 1.400 . S
C1265 C1259 1.491 . S
C1265 C1264 1.400 . S
C1265 C1266 1.398 . S
C1266 H1254 0.950 . S
C1266 C1265 1.398 . S
C1266 C1267 1.391 . S
C1267 H1255 0.950 . S
C1267 C1263 1.393 . S
C1267 C1266 1.391 . S
H1268 C1276 0.950 . S
H1269 C1281 0.950 . S
H1270 C1278 0.950 . S
H1271 C1280 0.950 . S
H1272 C1282 0.950 . S
H1273 C1284 0.950 . S
H1274 C1286 0.950 . S
H1275 C1287 0.950 . S
C1276 H1268 0.950 . S
C1276 C1277 1.386 . S
C1276 C1278 1.391 . S
C1277 C1276 1.386 . S
C1277 C1281 1.393 . S
C1278 H1270 0.950 . S
C1278 C1276 1.391 . S
C1278 C1279 1.400 . S
C1279 C1278 1.400 . S
C1279 C1280 1.398 . S
C1279 C1285 1.491 . S
C1280 H1271 0.950 . S
C1280 C1279 1.398 . S
C1280 C1281 1.391 . S
C1281 H1269 0.950 . S
C1281 C1277 1.393 . S
C1281 C1280 1.391 . S
C1282 H1272 0.950 . S
C1282 C1283 1.386 . S
C1282 C1284 1.391 . S
C1283 C1282 1.386 . S
C1283 C1287 1.393 . S
C1284 H1273 0.950 . S
C1284 C1282 1.391 . S
C1284 C1285 1.400 . S
C1285 C1279 1.491 . S
C1285 C1284 1.400 . S
C1285 C1286 1.398 . S
C1286 H1274 0.950 . S
C1286 C1285 1.398 . S
C1286 C1287 1.391 . S
C1287 H1275 0.950 . S
C1287 C1283 1.393 . S
C1287 C1286 1.391 . S
H1288 C1296 0.950 . S
H1289 C1301 0.950 . S
H1290 C1298 0.950 . S
H1291 C1300 0.952 . S
H1292 C1302 0.950 . S
H1293 C1304 0.950 . S
H1294 C1306 0.952 . S
H1295 C1307 0.950 . S
C1296 H1288 0.950 . S
C1296 C1297 1.386 . S
C1296 C1298 1.391 . S
C1297 C1296 1.386 . S
C1297 C1301 1.393 . S
C1298 H1290 0.950 . S
C1298 C1296 1.391 . S
C1298 C1299 1.400 . S
C1299 C1298 1.400 . S
C1299 C1300 1.398 1_554 S
C1299 C1305 1.491 1_554 S
C1300 H1291 0.952 . S
C1300 C1299 1.398 1_556 S
C1300 C1301 1.389 1_556 S
C1301 H1289 0.950 . S
C1301 C1297 1.393 . S
C1301 C1300 1.389 1_554 S
C1302 H1292 0.950 . S
C1302 C1303 1.386 . S
C1302 C1304 1.391 . S
C1303 C1302 1.386 . S
C1303 C1307 1.393 . S
C1304 H1293 0.950 . S
C1304 C1302 1.391 . S
C1304 C1305 1.400 . S
C1305 C1299 1.491 1_556 S
C1305 C1304 1.400 . S
C1305 C1306 1.398 1_556 S
C1306 H1294 0.952 . S
C1306 C1305 1.398 1_554 S
C1306 C1307 1.389 1_554 S
C1307 H1295 0.950 . S
C1307 C1303 1.393 . S
C1307 C1306 1.389 1_556 S
H1308 C1316 0.950 . S
H1309 C1321 0.950 . S
H1310 C1318 0.950 . S
H1311 C1320 0.950 . S
H1312 C1322 0.950 . S
H1313 C1324 0.950 . S
H1314 C1326 0.950 . S
H1315 C1327 0.950 . S
C1316 H1308 0.950 . S
C1316 C1317 1.386 . S
C1316 C1318 1.391 . S
C1317 C1316 1.386 . S
C1317 C1321 1.393 . S
C1318 H1310 0.950 . S
C1318 C1316 1.391 . S
C1318 C1319 1.400 . S
C1319 C1318 1.400 . S
C1319 C1320 1.398 . S
C1319 C1325 1.491 . S
C1320 H1311 0.950 . S
C1320 C1319 1.398 . S
C1320 C1321 1.391 . S
C1321 H1309 0.950 . S
C1321 C1317 1.393 . S
C1321 C1320 1.391 . S
C1322 H1312 0.950 . S
C1322 C1323 1.386 . S
C1322 C1324 1.391 . S
C1323 C1322 1.386 . S
C1323 C1327 1.393 . S
C1324 H1313 0.950 . S
C1324 C1322 1.391 . S
C1324 C1325 1.400 . S
C1325 C1319 1.491 . S
C1325 C1324 1.400 . S
C1325 C1326 1.398 . S
C1326 H1314 0.950 . S
C1326 C1325 1.398 . S
C1326 C1327 1.391 . S
C1327 H1315 0.950 . S
C1327 C1323 1.393 . S
C1327 C1326 1.391 . S
H1328 C1336 0.950 . S
H1329 C1341 0.950 . S
H1330 C1338 0.950 . S
H1331 C1340 0.950 . S
H1332 C1342 0.950 . S
H1333 C1344 0.950 . S
H1334 C1346 0.950 . S
H1335 C1347 0.950 . S
C1336 H1328 0.950 . S
C1336 C1337 1.386 . S
C1336 C1338 1.391 . S
C1337 C1336 1.386 . S
C1337 C1341 1.393 . S
C1338 H1330 0.950 . S
C1338 C1336 1.391 . S
C1338 C1339 1.400 . S
C1339 C1338 1.400 . S
C1339 C1340 1.398 . S
C1339 C1345 1.491 . S
C1340 H1331 0.950 . S
C1340 C1339 1.398 . S
C1340 C1341 1.391 . S
C1341 H1329 0.950 . S
C1341 C1337 1.393 . S
C1341 C1340 1.391 . S
C1342 H1332 0.950 . S
C1342 C1343 1.386 . S
C1342 C1344 1.391 . S
C1343 C1342 1.386 . S
C1343 C1347 1.393 . S
C1344 H1333 0.950 . S
C1344 C1342 1.391 . S
C1344 C1345 1.400 . S
C1345 C1339 1.491 . S
C1345 C1344 1.400 . S
C1345 C1346 1.398 . S
C1346 H1334 0.950 . S
C1346 C1345 1.398 . S
C1346 C1347 1.391 . S
C1347 H1335 0.950 . S
C1347 C1343 1.393 . S
C1347 C1346 1.391 . S
H1348 C1356 0.950 . S
H1349 C1361 0.950 . S
H1350 C1358 0.950 . S
H1351 C1360 0.950 . S
H1352 C1362 0.950 . S
H1353 C1364 0.950 . S
H1354 C1366 0.950 . S
H1355 C1367 0.950 . S
C1356 H1348 0.950 . S
C1356 C1357 1.386 . S
C1356 C1358 1.391 . S
C1357 C1356 1.386 . S
C1357 C1361 1.393 . S
C1358 H1350 0.950 . S
C1358 C1356 1.391 . S
C1358 C1359 1.400 . S
C1359 C1358 1.400 . S
C1359 C1360 1.398 . S
C1359 C1365 1.491 . S
C1360 H1351 0.950 . S
C1360 C1359 1.398 . S
C1360 C1361 1.391 . S
C1361 H1349 0.950 . S
C1361 C1357 1.393 . S
C1361 C1360 1.391 . S
C1362 H1352 0.950 . S
C1362 C1363 1.386 . S
C1362 C1364 1.391 . S
C1363 C1362 1.386 . S
C1363 C1367 1.393 . S
C1364 H1353 0.950 . S
C1364 C1362 1.391 . S
C1364 C1365 1.400 . S
C1365 C1359 1.491 . S
C1365 C1364 1.400 . S
C1365 C1366 1.398 . S
C1366 H1354 0.950 . S
C1366 C1365 1.398 . S
C1366 C1367 1.391 . S
C1367 H1355 0.950 . S
C1367 C1363 1.393 . S
C1367 C1366 1.391 . S
H1368 C1376 0.933 1_554 S
H1369 C1381 0.950 . S
H1370 C1378 0.950 . S
H1371 C1380 0.950 . S
H1372 C1382 0.933 1_556 S
H1373 C1384 0.950 . S
H1374 C1386 0.950 . S
H1375 C1387 0.950 . S
C1376 H1368 0.933 1_556 S
C1376 C1377 1.386 . S
C1376 C1378 1.391 1_556 S
C1377 C1376 1.386 . S
C1377 C1381 1.393 . S
C1378 H1370 0.950 . S
C1378 C1376 1.391 1_554 S
C1378 C1379 1.400 1_554 S
C1379 C1378 1.400 1_556 S
C1379 C1380 1.398 . S
C1379 C1385 1.491 1_556 S
C1380 H1371 0.950 . S
C1380 C1379 1.398 . S
C1380 C1381 1.391 . S
C1381 H1369 0.950 . S
C1381 C1377 1.393 . S
C1381 C1380 1.391 . S
C1382 H1372 0.933 1_554 S
C1382 C1383 1.386 . S
C1382 C1384 1.391 1_554 S
C1383 C1382 1.386 . S
C1383 C1387 1.393 . S
C1384 H1373 0.950 . S
C1384 C1382 1.391 1_556 S
C1384 C1385 1.400 1_556 S
C1385 C1379 1.491 1_554 S
C1385 C1384 1.400 1_554 S
C1385 C1386 1.398 . S
C1386 H1374 0.950 . S
C1386 C1385 1.398 . S
C1386 C1387 1.391 . S
C1387 H1375 0.950 . S
C1387 C1383 1.393 . S
C1387 C1386 1.391 . S
H1388 C1396 0.950 . S
H1389 C1401 0.950 . S
H1390 C1398 0.950 . S
H1391 C1400 0.950 . S
H1392 C1402 0.950 . S
H1393 C1404 0.950 . S
H1394 C1406 0.950 . S
H1395 C1407 0.950 . S
C1396 H1388 0.950 . S
C1396 C1397 1.386 . S
C1396 C1398 1.391 . S
C1397 C1396 1.386 . S
C1397 C1401 1.393 . S
C1398 H1390 0.950 . S
C1398 C1396 1.391 . S
C1398 C1399 1.400 . S
C1399 C1398 1.400 . S
C1399 C1400 1.398 . S
C1399 C1405 1.491 . S
C1400 H1391 0.950 . S
C1400 C1399 1.398 . S
C1400 C1401 1.391 . S
C1401 H1389 0.950 . S
C1401 C1397 1.393 . S
C1401 C1400 1.391 . S
C1402 H1392 0.950 . S
C1402 C1403 1.386 . S
C1402 C1404 1.391 . S
C1403 C1402 1.386 . S
C1403 C1407 1.393 . S
C1404 H1393 0.950 . S
C1404 C1402 1.391 . S
C1404 C1405 1.400 . S
C1405 C1399 1.491 . S
C1405 C1404 1.400 . S
C1405 C1406 1.398 . S
C1406 H1394 0.950 . S
C1406 C1405 1.398 . S
C1406 C1407 1.391 . S
C1407 H1395 0.950 . S
C1407 C1403 1.393 . S
C1407 C1406 1.391 . S
H1408 C1416 0.950 . S
H1409 C1421 0.950 . S
H1410 C1418 0.950 . S
H1411 C1420 0.950 . S
H1412 C1422 0.950 . S
H1413 C1424 0.950 . S
H1414 C1426 0.950 . S
H1415 C1427 0.950 . S
C1416 H1408 0.950 . S
C1416 C1417 1.386 . S
C1416 C1418 1.391 . S
C1417 C1416 1.386 . S
C1417 C1421 1.393 . S
C1418 H1410 0.950 . S
C1418 C1416 1.391 . S
C1418 C1419 1.400 . S
C1419 C1418 1.400 . S
C1419 C1420 1.398 . S
C1419 C1425 1.491 . S
C1420 H1411 0.950 . S
C1420 C1419 1.398 . S
C1420 C1421 1.391 . S
C1421 H1409 0.950 . S
C1421 C1417 1.393 . S
C1421 C1420 1.391 . S
C1422 H1412 0.950 . S
C1422 C1423 1.386 . S
C1422 C1424 1.391 . S
C1423 C1422 1.386 . S
C1423 C1427 1.393 . S
C1424 H1413 0.950 . S
C1424 C1422 1.391 . S
C1424 C1425 1.400 . S
C1425 C1419 1.491 . S
C1425 C1424 1.400 . S
C1425 C1426 1.398 . S
C1426 H1414 0.950 . S
C1426 C1425 1.398 . S
C1426 C1427 1.391 . S
C1427 H1415 0.950 . S
C1427 C1423 1.393 . S
C1427 C1426 1.391 . S
H1428 C1436 0.950 . S
H1429 C1441 0.950 . S
H1430 C1438 0.950 . S
H1431 C1440 0.950 . S
H1432 C1442 0.950 . S
H1433 C1444 0.950 . S
H1434 C1446 0.950 . S
H1435 C1447 0.950 . S
C1436 H1428 0.950 . S
C1436 C1437 1.386 . S
C1436 C1438 1.391 . S
C1437 C1436 1.386 . S
C1437 C1441 1.393 . S
C1438 H1430 0.950 . S
C1438 C1436 1.391 . S
C1438 C1439 1.400 . S
C1439 C1438 1.400 . S
C1439 C1440 1.398 . S
C1439 C1445 1.491 . S
C1440 H1431 0.950 . S
C1440 C1439 1.398 . S
C1440 C1441 1.391 . S
C1441 H1429 0.950 . S
C1441 C1437 1.393 . S
C1441 C1440 1.391 . S
C1442 H1432 0.950 . S
C1442 C1443 1.386 . S
C1442 C1444 1.391 . S
C1443 C1442 1.386 . S
C1443 C1447 1.393 . S
C1444 H1433 0.950 . S
C1444 C1442 1.391 . S
C1444 C1445 1.400 . S
C1445 C1439 1.491 . S
C1445 C1444 1.400 . S
C1445 C1446 1.398 . S
C1446 H1434 0.950 . S
C1446 C1445 1.398 . S
C1446 C1447 1.391 . S
C1447 H1435 0.950 . S
C1447 C1443 1.393 . S
C1447 C1446 1.391 . S
H1448 C1456 0.950 . S
H1449 C1461 0.950 . S
H1450 C1458 0.950 . S
H1451 C1460 0.950 . S
H1452 C1462 0.950 . S
H1453 C1464 0.950 . S
H1454 C1466 0.950 . S
H1455 C1467 0.950 . S
C1456 H1448 0.950 . S
C1456 C1457 1.386 . S
C1456 C1458 1.391 . S
C1457 C1456 1.386 . S
C1457 C1461 1.393 . S
C1458 H1450 0.950 . S
C1458 C1456 1.391 . S
C1458 C1459 1.400 . S
C1459 C1458 1.400 . S
C1459 C1460 1.398 . S
C1459 C1465 1.491 . S
C1460 H1451 0.950 . S
C1460 C1459 1.398 . S
C1460 C1461 1.391 . S
C1461 H1449 0.950 . S
C1461 C1457 1.393 . S
C1461 C1460 1.391 . S
C1462 H1452 0.950 . S
C1462 C1463 1.386 . S
C1462 C1464 1.391 . S
C1463 C1462 1.386 . S
C1463 C1467 1.393 . S
C1464 H1453 0.950 . S
C1464 C1462 1.391 . S
C1464 C1465 1.400 . S
C1465 C1459 1.491 . S
C1465 C1464 1.400 . S
C1465 C1466 1.398 . S
C1466 H1454 0.950 . S
C1466 C1465 1.398 . S
C1466 C1467 1.391 . S
C1467 H1455 0.950 . S
C1467 C1463 1.393 . S
C1467 C1466 1.391 . S
H1468 C1476 0.950 . S
H1469 C1481 0.950 . S
H1470 C1478 0.950 . S
H1471 C1480 0.950 . S
H1472 C1482 0.950 . S
H1473 C1484 0.950 . S
H1474 C1486 0.950 . S
H1475 C1487 0.950 . S
C1476 H1468 0.950 . S
C1476 C1477 1.386 . S
C1476 C1478 1.391 . S
C1477 C1476 1.386 . S
C1477 C1481 1.393 . S
C1478 H1470 0.950 . S
C1478 C1476 1.391 . S
C1478 C1479 1.400 . S
C1479 C1478 1.400 . S
C1479 C1480 1.398 . S
C1479 C1485 1.491 . S
C1480 H1471 0.950 . S
C1480 C1479 1.398 . S
C1480 C1481 1.391 . S
C1481 H1469 0.950 . S
C1481 C1477 1.393 . S
C1481 C1480 1.391 . S
C1482 H1472 0.950 . S
C1482 C1483 1.386 . S
C1482 C1484 1.391 . S
C1483 C1482 1.386 . S
C1483 C1487 1.393 . S
C1484 H1473 0.950 . S
C1484 C1482 1.391 . S
C1484 C1485 1.400 . S
C1485 C1479 1.491 . S
C1485 C1484 1.400 . S
C1485 C1486 1.398 . S
C1486 H1474 0.950 . S
C1486 C1485 1.398 . S
C1486 C1487 1.391 . S
C1487 H1475 0.950 . S
C1487 C1483 1.393 . S
C1487 C1486 1.391 . S
H1488 C1496 0.950 . S
H1489 C1501 0.950 . S
H1490 C1498 0.950 . S
H1491 C1500 0.950 . S
H1492 C1502 0.950 . S
H1493 C1504 0.950 . S
H1494 C1506 0.950 . S
H1495 C1507 0.950 . S
C1496 H1488 0.950 . S
C1496 C1497 1.386 . S
C1496 C1498 1.391 . S
C1497 C1496 1.386 . S
C1497 C1501 1.393 . S
C1498 H1490 0.950 . S
C1498 C1496 1.391 . S
C1498 C1499 1.400 . S
C1499 C1498 1.400 . S
C1499 C1500 1.398 . S
C1499 C1505 1.491 . S
C1500 H1491 0.950 . S
C1500 C1499 1.398 . S
C1500 C1501 1.391 . S
C1501 H1489 0.950 . S
C1501 C1497 1.393 . S
C1501 C1500 1.391 . S
C1502 H1492 0.950 . S
C1502 C1503 1.386 . S
C1502 C1504 1.391 . S
C1503 C1502 1.386 . S
C1503 C1507 1.393 . S
C1504 H1493 0.950 . S
C1504 C1502 1.391 . S
C1504 C1505 1.400 . S
C1505 C1499 1.491 . S
C1505 C1504 1.400 . S
C1505 C1506 1.398 . S
C1506 H1494 0.950 . S
C1506 C1505 1.398 . S
C1506 C1507 1.391 . S
C1507 H1495 0.950 . S
C1507 C1503 1.393 . S
C1507 C1506 1.391 . S
H1508 C1516 0.950 . S
H1509 C1521 0.950 . S
H1510 C1518 0.950 . S
H1511 C1520 0.950 . S
H1512 C1522 0.950 . S
H1513 C1524 0.950 . S
H1514 C1526 0.950 . S
H1515 C1527 0.950 . S
C1516 H1508 0.950 . S
C1516 C1517 1.386 . S
C1516 C1518 1.391 . S
C1517 C1516 1.386 . S
C1517 C1521 1.393 . S
C1518 H1510 0.950 . S
C1518 C1516 1.391 . S
C1518 C1519 1.400 . S
C1519 C1518 1.400 . S
C1519 C1520 1.398 . S
C1519 C1525 1.491 . S
C1520 H1511 0.950 . S
C1520 C1519 1.398 . S
C1520 C1521 1.391 . S
C1521 H1509 0.950 . S
C1521 C1517 1.393 . S
C1521 C1520 1.391 . S
C1522 H1512 0.950 . S
C1522 C1523 1.386 . S
C1522 C1524 1.391 . S
C1523 C1522 1.386 . S
C1523 C1527 1.393 . S
C1524 H1513 0.950 . S
C1524 C1522 1.391 . S
C1524 C1525 1.400 . S
C1525 C1519 1.491 . S
C1525 C1524 1.400 . S
C1525 C1526 1.398 . S
C1526 H1514 0.950 . S
C1526 C1525 1.398 . S
C1526 C1527 1.391 . S
C1527 H1515 0.950 . S
C1527 C1523 1.393 . S
C1527 C1526 1.391 . S
H1528 C1536 0.950 . S
H1529 C1541 0.950 . S
H1530 C1538 0.950 . S
H1531 C1540 0.950 . S
H1532 C1542 0.950 . S
H1533 C1544 0.950 . S
H1534 C1546 0.950 . S
H1535 C1547 0.950 . S
C1536 H1528 0.950 . S
C1536 C1537 1.386 . S
C1536 C1538 1.391 . S
C1537 C1536 1.386 . S
C1537 C1541 1.393 . S
C1538 H1530 0.950 . S
C1538 C1536 1.391 . S
C1538 C1539 1.400 . S
C1539 C1538 1.400 . S
C1539 C1540 1.398 . S
C1539 C1545 1.491 . S
C1540 H1531 0.950 . S
C1540 C1539 1.398 . S
C1540 C1541 1.391 . S
C1541 H1529 0.950 . S
C1541 C1537 1.393 . S
C1541 C1540 1.391 . S
C1542 H1532 0.950 . S
C1542 C1543 1.386 . S
C1542 C1544 1.391 . S
C1543 C1542 1.386 . S
C1543 C1547 1.393 . S
C1544 H1533 0.950 . S
C1544 C1542 1.391 . S
C1544 C1545 1.400 . S
C1545 C1539 1.491 . S
C1545 C1544 1.400 . S
C1545 C1546 1.398 . S
C1546 H1534 0.950 . S
C1546 C1545 1.398 . S
C1546 C1547 1.391 . S
C1547 H1535 0.950 . S
C1547 C1543 1.393 . S
C1547 C1546 1.391 . S
H1548 C1556 0.950 . S
H1549 C1561 0.950 . S
H1550 C1558 0.950 . S
H1551 C1560 0.950 . S
H1552 C1562 0.950 . S
H1553 C1564 0.950 . S
H1554 C1566 0.950 . S
H1555 C1567 0.950 . S
C1556 H1548 0.950 . S
C1556 C1557 1.386 . S
C1556 C1558 1.391 . S
C1557 C1556 1.386 . S
C1557 C1561 1.393 . S
C1558 H1550 0.950 . S
C1558 C1556 1.391 . S
C1558 C1559 1.400 . S
C1559 C1558 1.400 . S
C1559 C1560 1.398 . S
C1559 C1565 1.491 . S
C1560 H1551 0.950 . S
C1560 C1559 1.398 . S
C1560 C1561 1.391 . S
C1561 H1549 0.950 . S
C1561 C1557 1.393 . S
C1561 C1560 1.391 . S
C1562 H1552 0.950 . S
C1562 C1563 1.386 . S
C1562 C1564 1.391 . S
C1563 C1562 1.386 . S
C1563 C1567 1.393 . S
C1564 H1553 0.950 . S
C1564 C1562 1.391 . S
C1564 C1565 1.400 . S
C1565 C1559 1.491 . S
C1565 C1564 1.400 . S
C1565 C1566 1.398 . S
C1566 H1554 0.950 . S
C1566 C1565 1.398 . S
C1566 C1567 1.391 . S
C1567 H1555 0.950 . S
C1567 C1563 1.393 . S
C1567 C1566 1.391 . S
H1568 C1576 0.950 . S
H1569 C1581 0.950 . S
H1570 C1578 0.950 . S
H1571 C1580 0.950 . S
H1572 C1582 0.950 . S
H1573 C1584 0.950 . S
H1574 C1586 0.950 . S
H1575 C1587 0.950 . S
C1576 H1568 0.950 . S
C1576 C1577 1.386 . S
C1576 C1578 1.391 . S
C1577 C1576 1.386 . S
C1577 C1581 1.393 . S
C1578 H1570 0.950 . S
C1578 C1576 1.391 . S
C1578 C1579 1.400 . S
C1579 C1578 1.400 . S
C1579 C1580 1.398 . S
C1579 C1585 1.491 . S
C1580 H1571 0.950 . S
C1580 C1579 1.398 . S
C1580 C1581 1.391 . S
C1581 H1569 0.950 . S
C1581 C1577 1.393 . S
C1581 C1580 1.391 . S
C1582 H1572 0.950 . S
C1582 C1583 1.386 . S
C1582 C1584 1.391 . S
C1583 C1582 1.386 . S
C1583 C1587 1.393 . S
C1584 H1573 0.950 . S
C1584 C1582 1.391 . S
C1584 C1585 1.400 . S
C1585 C1579 1.491 . S
C1585 C1584 1.400 . S
C1585 C1586 1.398 . S
C1586 H1574 0.950 . S
C1586 C1585 1.398 . S
C1586 C1587 1.391 . S
C1587 H1575 0.950 . S
C1587 C1583 1.393 . S
C1587 C1586 1.391 . S
H1588 C1596 0.950 . S
H1589 C1601 0.950 . S
H1590 C1598 0.950 . S
H1591 C1600 0.950 . S
H1592 C1602 0.950 . S
H1593 C1604 0.950 . S
H1594 C1606 0.950 . S
H1595 C1607 0.950 . S
C1596 H1588 0.950 . S
C1596 C1597 1.386 . S
C1596 C1598 1.391 . S
C1597 C1596 1.386 . S
C1597 C1601 1.393 . S
C1598 H1590 0.950 . S
C1598 C1596 1.391 . S
C1598 C1599 1.400 . S
C1599 C1598 1.400 . S
C1599 C1600 1.398 . S
C1599 C1605 1.491 . S
C1600 H1591 0.950 . S
C1600 C1599 1.398 . S
C1600 C1601 1.391 . S
C1601 H1589 0.950 . S
C1601 C1597 1.393 . S
C1601 C1600 1.391 . S
C1602 H1592 0.950 . S
C1602 C1603 1.386 . S
C1602 C1604 1.391 . S
C1603 C1602 1.386 . S
C1603 C1607 1.393 . S
C1604 H1593 0.950 . S
C1604 C1602 1.391 . S
C1604 C1605 1.400 . S
C1605 C1599 1.491 . S
C1605 C1604 1.400 . S
C1605 C1606 1.398 . S
C1606 H1594 0.950 . S
C1606 C1605 1.398 . S
C1606 C1607 1.391 . S
C1607 H1595 0.950 . S
C1607 C1603 1.393 . S
C1607 C1606 1.391 . S
H1608 C1616 0.950 . S
H1609 C1621 0.950 . S
H1610 C1618 0.950 . S
H1611 C1620 0.950 . S
H1612 C1622 0.950 . S
H1613 C1624 0.950 . S
H1614 C1626 0.950 . S
H1615 C1627 0.950 . S
C1616 H1608 0.950 . S
C1616 C1617 1.386 . S
C1616 C1618 1.391 . S
C1617 C1616 1.386 . S
C1617 C1621 1.393 . S
C1618 H1610 0.950 . S
C1618 C1616 1.391 . S
C1618 C1619 1.400 . S
C1619 C1618 1.400 . S
C1619 C1620 1.398 . S
C1619 C1625 1.491 . S
C1620 H1611 0.950 . S
C1620 C1619 1.398 . S
C1620 C1621 1.391 . S
C1621 H1609 0.950 . S
C1621 C1617 1.393 . S
C1621 C1620 1.391 . S
C1622 H1612 0.950 . S
C1622 C1623 1.386 . S
C1622 C1624 1.391 . S
C1623 C1622 1.386 . S
C1623 C1627 1.393 . S
C1624 H1613 0.950 . S
C1624 C1622 1.391 . S
C1624 C1625 1.400 . S
C1625 C1619 1.491 . S
C1625 C1624 1.400 . S
C1625 C1626 1.398 . S
C1626 H1614 0.950 . S
C1626 C1625 1.398 . S
C1626 C1627 1.391 . S
C1627 H1615 0.950 . S
C1627 C1623 1.393 . S
C1627 C1626 1.391 . S
H1628 C1636 0.950 . S
H1629 C1641 0.950 . S
H1630 C1638 0.950 . S
H1631 C1640 0.950 . S
H1632 C1642 0.950 . S
H1633 C1644 0.950 . S
H1634 C1646 0.950 . S
H1635 C1647 0.950 . S
C1636 H1628 0.950 . S
C1636 C1637 1.386 . S
C1636 C1638 1.391 . S
C1637 C1636 1.386 . S
C1637 C1641 1.393 . S
C1638 H1630 0.950 . S
C1638 C1636 1.391 . S
C1638 C1639 1.400 . S
C1639 C1638 1.400 . S
C1639 C1640 1.398 . S
C1639 C1645 1.491 . S
C1640 H1631 0.950 . S
C1640 C1639 1.398 . S
C1640 C1641 1.391 . S
C1641 H1629 0.950 . S
C1641 C1637 1.393 . S
C1641 C1640 1.391 . S
C1642 H1632 0.950 . S
C1642 C1643 1.386 . S
C1642 C1644 1.391 . S
C1643 C1642 1.386 . S
C1643 C1647 1.393 . S
C1644 H1633 0.950 . S
C1644 C1642 1.391 . S
C1644 C1645 1.400 . S
C1645 C1639 1.491 . S
C1645 C1644 1.400 . S
C1645 C1646 1.398 . S
C1646 H1634 0.950 . S
C1646 C1645 1.398 . S
C1646 C1647 1.391 . S
C1647 H1635 0.950 . S
C1647 C1643 1.393 . S
C1647 C1646 1.391 . S
H1648 C1656 0.950 . S
H1649 C1661 0.950 . S
H1650 C1658 0.950 . S
H1651 C1660 0.950 . S
H1652 C1662 0.950 . S
H1653 C1664 0.950 . S
H1654 C1666 0.950 . S
H1655 C1667 0.950 . S
C1656 H1648 0.950 . S
C1656 C1657 1.386 . S
C1656 C1658 1.391 . S
C1657 C1656 1.386 . S
C1657 C1661 1.393 . S
C1658 H1650 0.950 . S
C1658 C1656 1.391 . S
C1658 C1659 1.400 . S
C1659 C1658 1.400 . S
C1659 C1660 1.398 . S
C1659 C1665 1.491 . S
C1660 H1651 0.950 . S
C1660 C1659 1.398 . S
C1660 C1661 1.391 . S
C1661 H1649 0.950 . S
C1661 C1657 1.393 . S
C1661 C1660 1.391 . S
C1662 H1652 0.950 . S
C1662 C1663 1.386 . S
C1662 C1664 1.391 . S
C1663 C1662 1.386 . S
C1663 C1667 1.393 . S
C1664 H1653 0.950 . S
C1664 C1662 1.391 . S
C1664 C1665 1.400 . S
C1665 C1659 1.491 . S
C1665 C1664 1.400 . S
C1665 C1666 1.398 . S
C1666 H1654 0.950 . S
C1666 C1665 1.398 . S
C1666 C1667 1.391 . S
C1667 H1655 0.950 . S
C1667 C1663 1.393 . S
C1667 C1666 1.391 . S
H1668 C1676 0.950 . S
H1669 C1681 0.950 . S
H1670 C1678 0.950 . S
H1671 C1680 0.950 . S
H1672 C1682 0.950 . S
H1673 C1684 0.950 . S
H1674 C1686 0.950 . S
H1675 C1687 0.950 . S
C1676 H1668 0.950 . S
C1676 C1677 1.386 . S
C1676 C1678 1.391 . S
C1677 C1676 1.386 . S
C1677 C1681 1.393 . S
C1678 H1670 0.950 . S
C1678 C1676 1.391 . S
C1678 C1679 1.400 . S
C1679 C1678 1.400 . S
C1679 C1680 1.398 . S
C1679 C1685 1.491 . S
C1680 H1671 0.950 . S
C1680 C1679 1.398 . S
C1680 C1681 1.391 . S
C1681 H1669 0.950 . S
C1681 C1677 1.393 . S
C1681 C1680 1.391 . S
C1682 H1672 0.950 . S
C1682 C1683 1.386 . S
C1682 C1684 1.391 . S
C1683 C1682 1.386 . S
C1683 C1687 1.393 . S
C1684 H1673 0.950 . S
C1684 C1682 1.391 . S
C1684 C1685 1.400 . S
C1685 C1679 1.491 . S
C1685 C1684 1.400 . S
C1685 C1686 1.398 . S
C1686 H1674 0.950 . S
C1686 C1685 1.398 . S
C1686 C1687 1.391 . S
C1687 H1675 0.950 . S
C1687 C1683 1.393 . S
C1687 C1686 1.391 . S
H1688 C1696 0.950 . S
H1689 C1701 0.950 . S
H1690 C1698 0.950 . S
H1691 C1700 0.950 . S
H1692 C1702 0.950 . S
H1693 C1704 0.950 . S
H1694 C1706 0.950 . S
H1695 C1707 0.950 . S
C1696 H1688 0.950 . S
C1696 C1697 1.386 . S
C1696 C1698 1.391 . S
C1697 C1696 1.386 . S
C1697 C1701 1.393 . S
C1698 H1690 0.950 . S
C1698 C1696 1.391 . S
C1698 C1699 1.400 . S
C1699 C1698 1.400 . S
C1699 C1700 1.398 . S
C1699 C1705 1.491 . S
C1700 H1691 0.950 . S
C1700 C1699 1.398 . S
C1700 C1701 1.391 . S
C1701 H1689 0.950 . S
C1701 C1697 1.393 . S
C1701 C1700 1.391 . S
C1702 H1692 0.950 . S
C1702 C1703 1.386 . S
C1702 C1704 1.391 . S
C1703 C1702 1.386 . S
C1703 C1707 1.393 . S
C1704 H1693 0.950 . S
C1704 C1702 1.391 . S
C1704 C1705 1.400 . S
C1705 C1699 1.491 . S
C1705 C1704 1.400 . S
C1705 C1706 1.398 . S
C1706 H1694 0.950 . S
C1706 C1705 1.398 . S
C1706 C1707 1.391 . S
C1707 H1695 0.950 . S
C1707 C1703 1.393 . S
C1707 C1706 1.391 . S
H1708 C1716 0.950 . S
H1709 C1721 0.950 . S
H1710 C1718 0.950 . S
H1711 C1720 0.950 . S
H1712 C1722 0.950 . S
H1713 C1724 0.950 . S
H1714 C1726 0.950 . S
H1715 C1727 0.950 . S
C1716 H1708 0.950 . S
C1716 C1717 1.386 . S
C1716 C1718 1.391 . S
C1717 C1716 1.386 . S
C1717 C1721 1.393 . S
C1718 H1710 0.950 . S
C1718 C1716 1.391 . S
C1718 C1719 1.400 . S
C1719 C1718 1.400 . S
C1719 C1720 1.398 . S
C1719 C1725 1.491 . S
C1720 H1711 0.950 . S
C1720 C1719 1.398 . S
C1720 C1721 1.391 . S
C1721 H1709 0.950 . S
C1721 C1717 1.393 . S
C1721 C1720 1.391 . S
C1722 H1712 0.950 . S
C1722 C1723 1.386 . S
C1722 C1724 1.391 . S
C1723 C1722 1.386 . S
C1723 C1727 1.393 . S
C1724 H1713 0.950 . S
C1724 C1722 1.391 . S
C1724 C1725 1.400 . S
C1725 C1719 1.491 . S
C1725 C1724 1.400 . S
C1725 C1726 1.398 . S
C1726 H1714 0.950 . S
C1726 C1725 1.398 . S
C1726 C1727 1.391 . S
C1727 H1715 0.950 . S
C1727 C1723 1.393 . S
C1727 C1726 1.391 . S
C457 C121 1.571 . S
C463 C9 1.571 . S
C477 C359 1.571 . S
C483 C23 1.571 . S
C497 C149 1.565 . S
C503 C37 1.565 . S
C517 C387 1.567 . S
C523 C51 1.567 . S
C537 C177 1.565 . S
C543 C65 1.565 . S
C557 C79 1.567 . S
C563 C415 1.567 . S
C577 C93 1.571 . S
C583 C205 1.571 . S
C597 C107 1.566 . S
C603 C443 1.566 . S
C617 C247 1.566 . S
C623 C135 1.566 . S
C637 C275 1.566 . S
C643 C163 1.566 . S
C657 C191 1.571 . S
C663 C303 1.571 . S
C677 C219 1.566 . S
C683 C331 1.566 . S
C697 C233 1.571 . S
C703 C345 1.571 . S
C717 C373 1.570 . S
C723 C261 1.570 . S
C737 C289 1.567 . S
C743 C401 1.567 . S
C757 C429 1.568 . S
C763 C317 1.568 . S
C777 C257 1.615 . S
C783 C5 1.616 . S
C797 C271 1.616 . S
C803 C19 1.617 . S
C817 C33 1.612 . S
C823 C229 1.610 . S
C837 C47 1.616 . S
C843 C243 1.617 . S
C857 C313 1.616 . S
C863 C61 1.615 . S
C877 C75 1.616 . S
C883 C327 1.617 . S
C897 C285 1.613 . S
C903 C89 1.611 . S
C917 C299 1.613 . S
C923 C103 1.615 . S
C937 C117 1.617 . S
C943 C369 1.616 . S
C957 C383 1.617 . S
C963 C131 1.616 . S
C977 C145 1.617 . S
C983 C341 1.616 . S
C997 C159 1.614 . S
C1003 C355 1.612 . S
C1017 C173 1.615 . S
C1023 C425 1.613 . S
C1037 C187 1.617 . S
C1043 C439 1.616 . S
C1057 C397 1.611 . S
C1063 C201 1.613 . S
C1077 C411 1.610 . S
C1083 C215 1.610 . S
C1097 C95 1.474 . S
C1103 C11 1.465 . S
C1117 C109 1.474 . S
C1123 C25 1.469 . S
C1137 C67 1.462 . S
C1143 C39 1.467 . S
C1157 C53 1.464 . S
C1163 C81 1.474 . S
C1177 C207 1.466 . S
C1183 C123 1.474 . S
C1197 C221 1.463 . S
C1203 C137 1.465 . S
C1217 C179 1.474 . S
C1223 C151 1.466 . S
C1237 C193 1.474 . S
C1243 C165 1.467 . S
C1257 C319 1.463 . S
C1263 C235 1.473 . S
C1277 C333 1.473 . S
C1283 C249 1.471 . S
C1297 C263 1.462 . S
C1303 C291 1.467 . S
C1317 C277 1.466 . S
C1323 C305 1.474 . S
C1337 C431 1.469 . S
C1343 C347 1.462 . S
C1357 C445 1.469 . S
C1363 C361 1.474 . S
C1377 C375 1.465 . S
C1383 C403 1.474 . S
C1397 C389 1.471 . S
C1403 C417 1.462 . S
C1417 C0 1.400 . S
C1423 C294 1.412 . S
C1437 C308 1.408 . S
C1443 C14 1.398 . S
C1457 C322 1.402 . S
C1463 C28 1.411 . S
C1477 C42 1.411 . S
C1483 C280 1.404 . S
C1497 C266 1.412 . S
C1503 C56 1.399 . S
C1517 C70 1.406 . S
C1523 C224 1.409 . S
C1537 C238 1.411 . S
C1543 C84 1.398 . S
C1557 C98 1.409 . S
C1563 C252 1.406 . S
C1577 C406 1.405 . S
C1583 C112 1.410 . S
C1597 C420 1.398 . S
C1603 C126 1.410 . S
C1617 C140 1.406 . S
C1623 C434 1.398 . S
C1637 C392 1.410 . S
C1643 C154 1.398 . S
C1657 C378 1.399 . S
C1663 C168 1.405 . S
C1677 C182 1.401 . S
C1683 C336 1.402 . S
C1697 C350 1.398 . S
C1703 C196 1.411 . S
C1717 C210 1.411 . S
C1723 C364 1.398 . S
