# Generated by pormake.
# Topology upb, (4)-cn, num edge types: 1
# Building blocks:
#     Node 0, Type 0, BuildingBlock: QUQFOY_clean_sbu_1, # of connection points: 4
#     Node 1, Type 0, BuildingBlock: QUQFOY_clean_sbu_1, # of connection points: 4
#     Node 2, Type 0, BuildingBlock: QUQFOY_clean_sbu_1, # of connection points: 4
#     Node 3, Type 0, BuildingBlock: QUQFOY_clean_sbu_1, # of connection points: 4
#     Node 4, Type 0, BuildingBlock: QUQFOY_clean_sbu_1, # of connection points: 4
#     Node 5, Type 0, BuildingBlock: QUQFOY_clean_sbu_1, # of connection points: 4
#     Node 6, Type 0, BuildingBlock: QUQFOY_clean_sbu_1, # of connection points: 4
#     Node 7, Type 0, BuildingBlock: QUQFOY_clean_sbu_1, # of connection points: 4
#     Node 8, Type 0, BuildingBlock: QUQFOY_clean_sbu_1, # of connection points: 4
#     Node 9, Type 0, BuildingBlock: QUQFOY_clean_sbu_1, # of connection points: 4
#     Node 10, Type 0, BuildingBlock: QUQFOY_clean_sbu_1, # of connection points: 4
#     Node 11, Type 0, BuildingBlock: QUQFOY_clean_sbu_1, # of connection points: 4
#     Node 12, Type 0, BuildingBlock: QUQFOY_clean_sbu_1, # of connection points: 4
#     Node 13, Type 0, BuildingBlock: QUQFOY_clean_sbu_1, # of connection points: 4
#     Node 14, Type 0, BuildingBlock: QUQFOY_clean_sbu_1, # of connection points: 4
#     Node 15, Type 0, BuildingBlock: QUQFOY_clean_sbu_1, # of connection points: 4
#     Edge 16, Type (0, 0), BuildingBlock: KIFKEQ_clean_linker_1, # of connection points: 2
#     Edge 17, Type (0, 0), BuildingBlock: KIFKEQ_clean_linker_1, # of connection points: 2
#     Edge 18, Type (0, 0), BuildingBlock: KIFKEQ_clean_linker_1, # of connection points: 2
#     Edge 19, Type (0, 0), BuildingBlock: KIFKEQ_clean_linker_1, # of connection points: 2
#     Edge 20, Type (0, 0), BuildingBlock: KIFKEQ_clean_linker_1, # of connection points: 2
#     Edge 21, Type (0, 0), BuildingBlock: KIFKEQ_clean_linker_1, # of connection points: 2
#     Edge 22, Type (0, 0), BuildingBlock: KIFKEQ_clean_linker_1, # of connection points: 2
#     Edge 23, Type (0, 0), BuildingBlock: KIFKEQ_clean_linker_1, # of connection points: 2
#     Edge 24, Type (0, 0), BuildingBlock: KIFKEQ_clean_linker_1, # of connection points: 2
#     Edge 25, Type (0, 0), BuildingBlock: KIFKEQ_clean_linker_1, # of connection points: 2
#     Edge 26, Type (0, 0), BuildingBlock: KIFKEQ_clean_linker_1, # of connection points: 2
#     Edge 27, Type (0, 0), BuildingBlock: KIFKEQ_clean_linker_1, # of connection points: 2
#     Edge 28, Type (0, 0), BuildingBlock: KIFKEQ_clean_linker_1, # of connection points: 2
#     Edge 29, Type (0, 0), BuildingBlock: KIFKEQ_clean_linker_1, # of connection points: 2
#     Edge 30, Type (0, 0), BuildingBlock: KIFKEQ_clean_linker_1, # of connection points: 2
#     Edge 31, Type (0, 0), BuildingBlock: KIFKEQ_clean_linker_1, # of connection points: 2
#     Edge 32, Type (0, 0), BuildingBlock: KIFKEQ_clean_linker_1, # of connection points: 2
#     Edge 33, Type (0, 0), BuildingBlock: KIFKEQ_clean_linker_1, # of connection points: 2
#     Edge 34, Type (0, 0), BuildingBlock: KIFKEQ_clean_linker_1, # of connection points: 2
#     Edge 35, Type (0, 0), BuildingBlock: KIFKEQ_clean_linker_1, # of connection points: 2
#     Edge 36, Type (0, 0), BuildingBlock: KIFKEQ_clean_linker_1, # of connection points: 2
#     Edge 37, Type (0, 0), BuildingBlock: KIFKEQ_clean_linker_1, # of connection points: 2
#     Edge 38, Type (0, 0), BuildingBlock: KIFKEQ_clean_linker_1, # of connection points: 2
#     Edge 39, Type (0, 0), BuildingBlock: KIFKEQ_clean_linker_1, # of connection points: 2
#     Edge 40, Type (0, 0), BuildingBlock: KIFKEQ_clean_linker_1, # of connection points: 2
#     Edge 41, Type (0, 0), BuildingBlock: KIFKEQ_clean_linker_1, # of connection points: 2
#     Edge 42, Type (0, 0), BuildingBlock: KIFKEQ_clean_linker_1, # of connection points: 2
#     Edge 43, Type (0, 0), BuildingBlock: KIFKEQ_clean_linker_1, # of connection points: 2
#     Edge 44, Type (0, 0), BuildingBlock: KIFKEQ_clean_linker_1, # of connection points: 2
#     Edge 45, Type (0, 0), BuildingBlock: KIFKEQ_clean_linker_1, # of connection points: 2
#     Edge 46, Type (0, 0), BuildingBlock: KIFKEQ_clean_linker_1, # of connection points: 2
#     Edge 47, Type (0, 0), BuildingBlock: KIFKEQ_clean_linker_1, # of connection points: 2
# Relax obj value: 0.226
# Max RMSD: 0.126
# Mean RMSD: 0.126
data_MOF--net-upb--node1-QUQFOY_clean_sbu_1--edge1-KIFKEQ_clean_linker_1
_symmetry_space_group_name_H-M    P1
_symmetry_Int_Tables_number       1
_symmetry_cell_setting            triclinic
loop_
_symmetry_equiv_pos_as_xyz
'x, y, z'
_cell_length_a     45.73117
_cell_length_b     45.758398
_cell_length_c     43.62089
_cell_angle_alpha  89.965289
_cell_angle_beta   89.98938
_cell_angle_gamma 89.95647
loop_
_atom_site_label
_atom_site_type_symbol
_atom_site_fract_x
_atom_site_fract_y
_atom_site_fract_z
_atom_type_partial_charge
O0 O 0.08003 0.20165 0.27812 0.0
Cd1 Cd 0.05078 0.23568 0.27537 0.0
Cd2 Cd 0.03924 0.22022 0.3388 0.0
O3 O 0.07407 0.19298 0.32757 0.0
O4 O 0.06601 0.26365 0.24424 0.0
O5 O 0.06293 0.27393 0.29381 0.0
C6 C 0.07091 0.28161 0.2665 0.0
C7 C 0.03066 0.22607 0.39179 0.0
C8 C 0.08684 0.18764 0.30223 0.0
C9 C 0.99038 0.21765 0.28936 0.0
O10 O 0.9997 0.21545 0.31668 0.0
O11 O 0.00735 0.22534 0.26775 0.0
O12 O 0.02711 0.20155 0.37802 0.0
O13 O 0.04045 0.24764 0.37575 0.0
O14 O 0.80282 0.0794 0.27101 0.0
Cd15 Cd 0.76904 0.04949 0.27104 0.0
Cd16 Cd 0.78436 0.04549 0.33518 0.0
O17 O 0.80799 0.08184 0.32131 0.0
O18 O 0.74028 0.06216 0.23944 0.0
O19 O 0.73113 0.06287 0.28938 0.0
C20 C 0.72283 0.06878 0.26169 0.0
C21 C 0.77991 0.03785 0.38837 0.0
C22 C 0.81445 0.0909 0.29455 0.0
C23 C 0.79018 0.99218 0.29084 0.0
O24 O 0.79327 0.00536 0.31622 0.0
O25 O 0.77944 0.00548 0.26787 0.0
O26 O 0.80464 0.03718 0.37449 0.0
O27 O 0.75725 0.04511 0.37248 0.0
O28 O 0.92503 0.80138 0.27746 0.0
Cd29 Cd 0.95491 0.76781 0.28204 0.0
Cd30 Cd 0.9521 0.78303 0.34187 0.0
O31 O 0.91321 0.80125 0.32643 0.0
O32 O 0.94552 0.73769 0.25066 0.0
O33 O 0.9402 0.73062 0.30069 0.0
C34 C 0.93691 0.72117 0.27294 0.0
C35 C 0.95654 0.77012 0.39386 0.0
C36 C 0.90838 0.80968 0.29909 0.0
C37 C 0.00759 0.7957 0.30484 0.0
O38 O 0.99108 0.80124 0.32754 0.0
O39 O 0.9986 0.7792 0.2834 0.0
O40 O 0.95244 0.79665 0.3852 0.0
O41 O 0.95621 0.7501 0.37304 0.0
O42 O 0.20379 0.9235 0.28238 0.0
Cd43 Cd 0.23749 0.95316 0.28105 0.0
Cd44 Cd 0.22544 0.95814 0.34465 0.0
O45 O 0.20188 0.92096 0.33288 0.0
O46 O 0.26566 0.9403 0.24897 0.0
O47 O 0.27591 0.94049 0.29869 0.0
C48 C 0.28367 0.93424 0.27092 0.0
C49 C 0.23451 0.96458 0.3974 0.0
C50 C 0.19371 0.91192 0.30664 0.0
C51 C 0.21562 0.01038 0.30029 0.0
O52 O 0.21371 0.9981 0.32634 0.0
O53 O 0.22595 0.99664 0.27741 0.0
O54 O 0.20857 0.96416 0.38621 0.0
O55 O 0.25596 0.95988 0.37884 0.0
O56 O 0.07943 0.79845 0.72046 0.0
Cd57 Cd 0.05024 0.76414 0.71934 0.0
Cd58 Cd 0.04826 0.7782 0.65736 0.0
O59 O 0.0863 0.79953 0.67042 0.0
O60 O 0.06232 0.73538 0.75119 0.0
O61 O 0.06447 0.72648 0.70124 0.0
C62 C 0.06973 0.71812 0.72906 0.0
C63 C 0.04217 0.76797 0.60479 0.0
C64 C 0.09326 0.80796 0.69725 0.0
C65 C 0.99466 0.78862 0.69919 0.0
O66 O 0.00883 0.79282 0.67452 0.0
O67 O 0.00633 0.77473 0.72126 0.0
O68 O 0.04422 0.79416 0.61509 0.0
O69 O 0.04528 0.74688 0.62417 0.0
O70 O 0.19837 0.0817 0.72554 0.0
Cd71 Cd 0.23111 0.05071 0.72229 0.0
Cd72 Cd 0.21596 0.05065 0.66143 0.0
O73 O 0.1946 0.08819 0.67562 0.0
O74 O 0.2616 0.06066 0.75311 0.0
O75 O 0.26851 0.06394 0.70288 0.0
C76 C 0.27819 0.06809 0.73041 0.0
C77 C 0.22911 0.04674 0.6095 0.0
C78 C 0.18787 0.09559 0.70283 0.0
C79 C 0.20499 0.996 0.7006 0.0
O80 O 0.20058 0.01089 0.67646 0.0
O81 O 0.21923 0.00698 0.72282 0.0
O82 O 0.20234 0.04873 0.61818 0.0
O83 O 0.2491 0.04863 0.63027 0.0
O84 O 0.92554 0.20687 0.73054 0.0
Cd85 Cd 0.95397 0.24147 0.73337 0.0
Cd86 Cd 0.96353 0.22804 0.66839 0.0
O87 O 0.92752 0.20249 0.68011 0.0
O88 O 0.93885 0.26879 0.76515 0.0
O89 O 0.94079 0.27972 0.71565 0.0
C90 C 0.93321 0.28694 0.74322 0.0
C91 C 0.97226 0.2316 0.61516 0.0
C92 C 0.91657 0.19524 0.70587 0.0
C93 C 0.01369 0.22413 0.71703 0.0
O94 O 0.00334 0.22237 0.69008 0.0
O95 O 0.99761 0.23164 0.73942 0.0
O96 O 0.97483 0.2075 0.62996 0.0
O97 O 0.96334 0.25413 0.63027 0.0
O98 O 0.80526 0.9256 0.72369 0.0
Cd99 Cd 0.77175 0.95586 0.72121 0.0
Cd100 Cd 0.78704 0.95661 0.65976 0.0
O101 O 0.80551 0.91747 0.67381 0.0
O102 O 0.73995 0.9452 0.75039 0.0
O103 O 0.73584 0.94162 0.69981 0.0
C104 C 0.72481 0.93733 0.72677 0.0
C105 C 0.78073 0.9642 0.60682 0.0
C106 C 0.8137 0.91065 0.70077 0.0
C107 C 0.79854 0.0101 0.7013 0.0
O108 O 0.80309 0.99513 0.67729 0.0
O109 O 0.7831 0.99963 0.72287 0.0
O110 O 0.80604 0.96102 0.61909 0.0
O111 O 0.75819 0.96074 0.62423 0.0
O112 O 0.5765 0.70612 0.77413 0.0
Cd113 Cd 0.54873 0.74135 0.77166 0.0
Cd114 Cd 0.53865 0.72812 0.83634 0.0
O115 O 0.57427 0.70193 0.82463 0.0
O116 O 0.56365 0.7702 0.7412 0.0
O117 O 0.56312 0.7781 0.79141 0.0
C118 C 0.57007 0.78687 0.76415 0.0
C119 C 0.52892 0.73179 0.88933 0.0
C120 C 0.58518 0.69438 0.79892 0.0
C121 C 0.48862 0.72518 0.78765 0.0
O122 O 0.49886 0.72308 0.8146 0.0
O123 O 0.50491 0.73255 0.76539 0.0
O124 O 0.52641 0.70771 0.87453 0.0
O125 O 0.5388 0.75411 0.87453 0.0
O126 O 0.3044 0.58318 0.77589 0.0
Cd127 Cd 0.27207 0.55161 0.77686 0.0
Cd128 Cd 0.28785 0.54986 0.8396 0.0
O129 O 0.30876 0.58783 0.82607 0.0
O130 O 0.24279 0.56232 0.74498 0.0
O131 O 0.23358 0.56371 0.79488 0.0
C132 C 0.22508 0.56874 0.76707 0.0
C133 C 0.28116 0.54205 0.89245 0.0
C134 C 0.31503 0.59627 0.79905 0.0
C135 C 0.29837 0.49663 0.79685 0.0
O136 O 0.30171 0.51081 0.82157 0.0
O137 O 0.2847 0.50807 0.77448 0.0
O138 O 0.30659 0.54379 0.88015 0.0
O139 O 0.25884 0.54711 0.87515 0.0
O140 O 0.42484 0.29883 0.77385 0.0
Cd141 Cd 0.45339 0.2642 0.77334 0.0
Cd142 Cd 0.45891 0.27725 0.8372 0.0
O143 O 0.42259 0.30198 0.82433 0.0
O144 O 0.43976 0.23593 0.7418 0.0
O145 O 0.43956 0.22654 0.79171 0.0
C146 C 0.43318 0.21849 0.76407 0.0
C147 C 0.46474 0.26914 0.89024 0.0
C148 C 0.41367 0.30978 0.79789 0.0
C149 C 0.5116 0.28335 0.79245 0.0
O150 O 0.49959 0.28594 0.81858 0.0
O151 O 0.49721 0.27403 0.76956 0.0
O152 O 0.4657 0.29479 0.87837 0.0
O153 O 0.45896 0.24757 0.87221 0.0
O154 O 0.69842 0.42252 0.78403 0.0
Cd155 Cd 0.73063 0.4541 0.78625 0.0
Cd156 Cd 0.71558 0.45519 0.84681 0.0
O157 O 0.69514 0.41679 0.8341 0.0
O158 O 0.76088 0.44401 0.75516 0.0
O159 O 0.76854 0.44182 0.80533 0.0
C160 C 0.77788 0.43721 0.77774 0.0
C161 C 0.72912 0.4611 0.89847 0.0
C162 C 0.68829 0.40887 0.80709 0.0
C163 C 0.70224 0.50823 0.80619 0.0
O164 O 0.69819 0.49369 0.83063 0.0
O165 O 0.71751 0.49752 0.78456 0.0
O166 O 0.70235 0.45807 0.89015 0.0
O167 O 0.74895 0.45916 0.87753 0.0
O168 O 0.58211 0.30222 0.21912 0.0
Cd169 Cd 0.55214 0.2686 0.21716 0.0
Cd170 Cd 0.55112 0.28303 0.15602 0.0
O171 O 0.58985 0.30292 0.16925 0.0
O172 O 0.5633 0.23905 0.24859 0.0
O173 O 0.56577 0.231 0.19849 0.0
C174 C 0.5706 0.22205 0.22619 0.0
C175 C 0.54546 0.27129 0.10381 0.0
C176 C 0.59664 0.31121 0.19616 0.0
C177 C 0.49752 0.29507 0.19684 0.0
O178 O 0.51218 0.29957 0.17254 0.0
O179 O 0.50843 0.28007 0.21855 0.0
O180 O 0.54843 0.29774 0.11314 0.0
O181 O 0.54722 0.25077 0.12403 0.0
O182 O 0.70495 0.57974 0.22557 0.0
Cd183 Cd 0.7389 0.55007 0.22361 0.0
Cd184 Cd 0.72559 0.55049 0.16178 0.0
O185 O 0.70551 0.58884 0.17594 0.0
O186 O 0.76788 0.56089 0.25568 0.0
O187 O 0.77664 0.56432 0.20576 0.0
C188 C 0.78514 0.5687 0.23368 0.0
C189 C 0.73614 0.54583 0.10918 0.0
C190 C 0.69656 0.59491 0.20282 0.0
C191 C 0.71387 0.49567 0.20123 0.0
O192 O 0.70974 0.5109 0.17725 0.0
O193 O 0.72803 0.50624 0.2237 0.0
O194 O 0.70991 0.5485 0.11931 0.0
O195 O 0.75715 0.54751 0.12883 0.0
O196 O 0.42762 0.70225 0.22873 0.0
Cd197 Cd 0.45698 0.73637 0.22663 0.0
Cd198 Cd 0.45795 0.72126 0.16391 0.0
O199 O 0.41998 0.70074 0.17877 0.0
O200 O 0.44518 0.76595 0.25772 0.0
O201 O 0.4426 0.77353 0.20754 0.0
C202 C 0.43758 0.78262 0.23514 0.0
C203 C 0.4634 0.72751 0.11058 0.0
C204 C 0.41322 0.69288 0.20586 0.0
C205 C 0.51253 0.71277 0.20562 0.0
O206 O 0.49805 0.70864 0.18116 0.0
O207 O 0.50093 0.72603 0.22812 0.0
O208 O 0.46264 0.70219 0.12324 0.0
O209 O 0.45916 0.7499 0.12798 0.0
O210 O 0.304 0.42634 0.22659 0.0
Cd211 Cd 0.2696 0.4555 0.22777 0.0
Cd212 Cd 0.2822 0.45968 0.16374 0.0
O213 O 0.30454 0.422 0.17615 0.0
O214 O 0.24064 0.44178 0.25866 0.0
O215 O 0.23216 0.44219 0.20857 0.0
C216 C 0.22355 0.43555 0.23597 0.0
C217 C 0.27753 0.46819 0.11068 0.0
C218 C 0.31326 0.41376 0.20249 0.0
C219 C 0.29087 0.51239 0.20849 0.0
O220 O 0.29339 0.4992 0.18303 0.0
O221 O 0.27975 0.49938 0.23142 0.0
O222 O 0.30238 0.46759 0.1243 0.0
O223 O 0.25472 0.46186 0.12676 0.0
H224 H 0.10205 0.14919 0.34735 0.0
H225 H 0.12211 0.17265 0.25369 0.0
H226 H 0.13674 0.10922 0.34457 0.0
H227 H 0.15777 0.13293 0.25121 0.0
H228 H 0.18898 0.03506 0.25021 0.0
H229 H 0.16044 0.08034 0.24944 0.0
H230 H 0.18717 0.09825 0.34261 0.0
H231 H 0.21444 0.05265 0.34365 0.0
C232 C 0.11416 0.14608 0.32624 0.0
C233 C 0.10922 0.16418 0.30075 0.0
C234 C 0.1343 0.1232 0.32471 0.0
C235 C 0.15033 0.1179 0.29772 0.0
C236 C 0.14565 0.1362 0.27226 0.0
C237 C 0.1253 0.15907 0.27374 0.0
C238 C 0.18917 0.04905 0.27023 0.0
C239 C 0.20358 0.0402 0.2971 0.0
C240 C 0.17284 0.07501 0.26984 0.0
C241 C 0.17095 0.09268 0.29622 0.0
C242 C 0.18734 0.08478 0.32221 0.0
C243 C 0.2032 0.05875 0.32273 0.0
H244 H 0.94276 0.22759 0.3246 0.0
H245 H 0.97039 0.18474 0.24144 0.0
H246 H 0.89624 0.20187 0.32254 0.0
H247 H 0.92428 0.15771 0.24001 0.0
H248 H 0.83326 0.11744 0.24145 0.0
H249 H 0.87184 0.15405 0.23599 0.0
H250 H 0.88508 0.15278 0.3341 0.0
H251 H 0.8463 0.11721 0.33958 0.0
C252 C 0.93855 0.21306 0.3055 0.0
C253 C 0.96017 0.20798 0.2833 0.0
C254 C 0.91204 0.19804 0.30448 0.0
C255 C 0.90678 0.17703 0.28162 0.0
C256 C 0.9275 0.17372 0.25794 0.0
C257 C 0.95394 0.18923 0.25869 0.0
C258 C 0.84423 0.12526 0.26187 0.0
C259 C 0.83667 0.11431 0.29097 0.0
C260 C 0.86643 0.14617 0.2587 0.0
C261 C 0.88156 0.15656 0.28457 0.0
C262 C 0.87356 0.14589 0.31366 0.0
C263 C 0.85139 0.12518 0.31682 0.0
H264 H 0.79948 0.95802 0.23936 0.0
H265 H 0.80527 0.95703 0.33824 0.0
H266 H 0.82245 0.90953 0.23775 0.0
H267 H 0.82878 0.91 0.33664 0.0
H268 H 0.85971 0.82015 0.33353 0.0
H269 H 0.82475 0.8599 0.32769 0.0
H270 H 0.87003 0.8888 0.24612 0.0
H271 H 0.90405 0.84802 0.25117 0.0
C272 C 0.80529 0.94738 0.26069 0.0
C273 C 0.80073 0.96156 0.28887 0.0
C274 C 0.81865 0.91971 0.25979 0.0
C275 C 0.82756 0.90572 0.28707 0.0
C276 C 0.82183 0.9196 0.31515 0.0
C277 C 0.80854 0.94694 0.31604 0.0
C278 C 0.86186 0.83469 0.31405 0.0
C279 C 0.88488 0.83122 0.29308 0.0
C280 C 0.84191 0.85761 0.31074 0.0
C281 C 0.84489 0.87807 0.2868 0.0
C282 C 0.86687 0.87347 0.26474 0.0
C283 C 0.88654 0.85016 0.26774 0.0
H284 H 0.04973 0.79176 0.25966 0.0
H285 H 0.03237 0.8302 0.34833 0.0
H286 H 0.09785 0.81538 0.25905 0.0
H287 H 0.0795 0.85399 0.34737 0.0
H288 H 0.173 0.8769 0.35248 0.0
H289 H 0.13081 0.84457 0.35085 0.0
H290 H 0.11883 0.86439 0.25481 0.0
H291 H 0.16168 0.89609 0.2562 0.0
C292 C 0.05615 0.80513 0.27899 0.0
C293 C 0.03714 0.80907 0.304 0.0
C294 C 0.08365 0.81874 0.2786 0.0
C295 C 0.09266 0.83642 0.30327 0.0
C296 C 0.07365 0.84006 0.32827 0.0
C297 C 0.04637 0.82656 0.32866 0.0
C298 C 0.16164 0.87406 0.33089 0.0
C299 C 0.1705 0.8894 0.30458 0.0
C300 C 0.13734 0.85562 0.32998 0.0
C301 C 0.12108 0.85228 0.30283 0.0
C302 C 0.1309 0.86634 0.27607 0.0
C303 C 0.15541 0.88464 0.27692 0.0
H304 H 0.10309 0.8428 0.74727 0.0
H305 H 0.13412 0.82548 0.65551 0.0
H306 H 0.13435 0.88593 0.74991 0.0
H307 H 0.16606 0.86788 0.65854 0.0
H308 H 0.17747 0.9666 0.65494 0.0
H309 H 0.1553 0.91881 0.65654 0.0
H310 H 0.18299 0.90829 0.75061 0.0
H311 H 0.20497 0.95721 0.74926 0.0
C312 C 0.1171 0.84778 0.72794 0.0
C313 C 0.11573 0.83101 0.70096 0.0
C314 C 0.13515 0.87246 0.72952 0.0
C315 C 0.15234 0.88071 0.70423 0.0
C316 C 0.15252 0.86261 0.67815 0.0
C317 C 0.1343 0.8382 0.67645 0.0
C318 C 0.17908 0.9542 0.67604 0.0
C319 C 0.19296 0.96591 0.70205 0.0
C320 C 0.16655 0.92651 0.67683 0.0
C321 C 0.16756 0.90948 0.7036 0.0
C322 C 0.18172 0.92091 0.72965 0.0
C323 C 0.1944 0.94886 0.72885 0.0
H324 H 0.17036 0.1203 0.75733 0.0
H325 H 0.15646 0.12481 0.65946 0.0
H326 H 0.13258 0.15741 0.765 0.0
H327 H 0.11833 0.16073 0.66707 0.0
H328 H 0.06037 0.23476 0.68059 0.0
H329 H 0.10686 0.20884 0.68057 0.0
H330 H 0.08069 0.16231 0.76241 0.0
H331 H 0.03478 0.18968 0.76318 0.0
C332 C 0.15937 0.12929 0.73745 0.0
C333 C 0.16644 0.11951 0.70777 0.0
C334 C 0.1376 0.15047 0.74186 0.0
C335 C 0.12234 0.16226 0.7167 0.0
C336 C 0.12994 0.1528 0.68704 0.0
C337 C 0.15175 0.13188 0.68264 0.0
C338 C 0.06503 0.21966 0.6991 0.0
C339 C 0.044 0.21407 0.72179 0.0
C340 C 0.09151 0.2045 0.69892 0.0
C341 C 0.09727 0.18278 0.72096 0.0
C342 C 0.07713 0.17888 0.74508 0.0
C343 C 0.05078 0.19457 0.7456 0.0
H344 H 0.89995 0.16233 0.75543 0.0
H345 H 0.8828 0.17501 0.65895 0.0
H346 H 0.86792 0.11966 0.75556 0.0
H347 H 0.84996 0.13325 0.65933 0.0
H348 H 0.83354 0.03585 0.65898 0.0
H349 H 0.85809 0.08232 0.66169 0.0
H350 H 0.81934 0.09854 0.75044 0.0
H351 H 0.79501 0.05077 0.74814 0.0
C352 C 0.88888 0.15636 0.73439 0.0
C353 C 0.8943 0.17175 0.70704 0.0
C354 C 0.87037 0.13198 0.73452 0.0
C355 C 0.8567 0.12268 0.70735 0.0
C356 C 0.86074 0.13928 0.6805 0.0
C357 C 0.87949 0.16334 0.68029 0.0
C358 C 0.82997 0.04922 0.67913 0.0
C359 C 0.81221 0.03944 0.70339 0.0
C360 C 0.84394 0.07617 0.68053 0.0
C361 C 0.84049 0.09446 0.70611 0.0
C362 C 0.82258 0.08491 0.73043 0.0
C363 C 0.80854 0.05764 0.72908 0.0
H364 H 0.85098 0.9013 0.74901 0.0
H365 H 0.8251 0.86594 0.66135 0.0
H366 H 0.8919 0.867 0.75093 0.0
H367 H 0.86515 0.83101 0.66377 0.0
H368 H 0.96272 0.81317 0.65352 0.0
H369 H 0.91619 0.83782 0.65697 0.0
H370 H 0.91135 0.81726 0.75355 0.0
H371 H 0.95906 0.79284 0.75023 0.0
C372 C 0.85358 0.8857 0.73054 0.0
C373 C 0.83515 0.88668 0.70475 0.0
C374 C 0.87697 0.86593 0.7317 0.0
C375 C 0.88218 0.84659 0.70723 0.0
C376 C 0.86228 0.84613 0.68263 0.0
C377 C 0.83922 0.86608 0.68129 0.0
C378 C 0.95178 0.8136 0.67555 0.0
C379 C 0.9648 0.80113 0.70166 0.0
C380 C 0.9248 0.82756 0.67745 0.0
C381 C 0.90982 0.82942 0.7055 0.0
C382 C 0.92241 0.81636 0.73162 0.0
C383 C 0.94963 0.80224 0.7297 0.0
H384 H 0.60131 0.66067 0.74975 0.0
H385 H 0.61856 0.67402 0.84609 0.0
H386 H 0.63273 0.61747 0.75019 0.0
H387 H 0.65075 0.63172 0.84628 0.0
H388 H 0.66677 0.53431 0.84792 0.0
H389 H 0.64215 0.5808 0.84448 0.0
H390 H 0.68121 0.59598 0.75567 0.0
H391 H 0.7056 0.54826 0.75874 0.0
C392 C 0.61226 0.65472 0.77087 0.0
C393 C 0.60706 0.67049 0.79802 0.0
C394 C 0.63041 0.63003 0.77108 0.0
C395 C 0.64393 0.62078 0.79839 0.0
C396 C 0.64008 0.63771 0.82502 0.0
C397 C 0.6217 0.66208 0.8249 0.0
C398 C 0.67037 0.54746 0.82761 0.0
C399 C 0.68827 0.53744 0.80359 0.0
C400 C 0.65635 0.57441 0.82578 0.0
C401 C 0.65992 0.59243 0.79998 0.0
C402 C 0.67789 0.58258 0.77584 0.0
C403 C 0.69196 0.55532 0.77763 0.0
H404 H 0.44208 0.73515 0.82453 0.0
H405 H 0.4672 0.69217 0.74058 0.0
H406 H 0.39555 0.70936 0.82408 0.0
H407 H 0.42123 0.66498 0.74081 0.0
H408 H 0.33179 0.62285 0.74526 0.0
H409 H 0.36927 0.66036 0.73846 0.0
H410 H 0.38434 0.66078 0.8363 0.0
H411 H 0.34652 0.62443 0.8431 0.0
C412 C 0.43731 0.72057 0.80561 0.0
C413 C 0.45823 0.71548 0.78269 0.0
C414 C 0.4108 0.70549 0.80552 0.0
C415 C 0.4049 0.68438 0.78292 0.0
C416 C 0.42491 0.68107 0.75857 0.0
C417 C 0.45129 0.69667 0.75836 0.0
C418 C 0.34289 0.63128 0.76533 0.0
C419 C 0.33617 0.62053 0.79474 0.0
C420 C 0.36448 0.6527 0.7614 0.0
C421 C 0.3799 0.66376 0.78678 0.0
C422 C 0.37259 0.65339 0.8162 0.0
C423 C 0.35097 0.63223 0.82013 0.0
H424 H 0.29757 0.45708 0.74869 0.0
H425 H 0.32918 0.46887 0.84127 0.0
H426 H 0.32094 0.40873 0.74721 0.0
H427 H 0.35278 0.4219 0.83945 0.0
H428 H 0.3761 0.3291 0.84205 0.0
H429 H 0.34362 0.37117 0.83975 0.0
H430 H 0.36938 0.38659 0.7458 0.0
H431 H 0.40101 0.34363 0.74775 0.0
C432 C 0.30935 0.44941 0.76867 0.0
C433 C 0.31139 0.46692 0.79507 0.0
C434 C 0.32284 0.42179 0.76781 0.0
C435 C 0.33852 0.41122 0.79335 0.0
C436 C 0.34032 0.42882 0.81962 0.0
C437 C 0.32691 0.45609 0.82051 0.0
C438 C 0.37455 0.34122 0.82077 0.0
C439 C 0.39146 0.33326 0.79525 0.0
C440 C 0.35601 0.36545 0.81946 0.0
C441 C 0.3543 0.3827 0.79276 0.0
C442 C 0.37002 0.37379 0.76668 0.0
C443 C 0.3883 0.34924 0.76787 0.0
H444 H 0.65557 0.38204 0.85102 0.0
H445 H 0.67174 0.38205 0.75343 0.0
H446 H 0.61658 0.34704 0.84411 0.0
H447 H 0.63319 0.34569 0.74651 0.0
H448 H 0.53513 0.31581 0.74602 0.0
H449 H 0.58155 0.34221 0.74745 0.0
H450 H 0.6032 0.29932 0.8329 0.0
H451 H 0.55612 0.27459 0.83218 0.0
C452 C 0.65122 0.37409 0.82808 0.0
C453 C 0.66673 0.38502 0.80277 0.0
C454 C 0.62889 0.3537 0.82409 0.0
C455 C 0.62163 0.34327 0.7947 0.0
C456 C 0.63785 0.35346 0.76943 0.0
C457 C 0.66009 0.37419 0.77341 0.0
C458 C 0.55021 0.3116 0.76466 0.0
C459 C 0.54202 0.29348 0.78915 0.0
C460 C 0.57687 0.32669 0.76553 0.0
C461 C 0.59597 0.32348 0.79069 0.0
C462 C 0.5887 0.30317 0.8137 0.0
C463 C 0.56186 0.2887 0.81316 0.0
H464 H 0.71204 0.45693 0.24985 0.0
H465 H 0.68706 0.46668 0.15482 0.0
H466 H 0.68871 0.40866 0.25084 0.0
H467 H 0.66352 0.41951 0.15604 0.0
H468 H 0.63885 0.32704 0.15517 0.0
H469 H 0.67223 0.36829 0.15861 0.0
H470 H 0.63947 0.388 0.24919 0.0
H471 H 0.60676 0.34599 0.24616 0.0
C472 C 0.70177 0.44877 0.22919 0.0
C473 C 0.70137 0.46576 0.20232 0.0
C474 C 0.68831 0.4212 0.22978 0.0
C475 C 0.67437 0.41008 0.20346 0.0
C476 C 0.67452 0.42698 0.17657 0.0
C477 C 0.68784 0.45431 0.17599 0.0
C478 C 0.63909 0.33987 0.17603 0.0
C479 C 0.61983 0.33349 0.20019 0.0
C480 C 0.65815 0.36363 0.17796 0.0
C481 C 0.65813 0.38187 0.20393 0.0
C482 C 0.64017 0.37439 0.22891 0.0
C483 C 0.62129 0.35036 0.2271 0.0
H484 H 0.54399 0.68928 0.15899 0.0
H485 H 0.54937 0.70894 0.25574 0.0
H486 H 0.59107 0.66561 0.16108 0.0
H487 H 0.59766 0.68556 0.25766 0.0
H488 H 0.65978 0.60329 0.25163 0.0
H489 H 0.61809 0.63651 0.2544 0.0
H490 H 0.64207 0.67297 0.16652 0.0
H491 H 0.68294 0.63905 0.16325 0.0
C492 C 0.55542 0.68893 0.18074 0.0
C493 C 0.54271 0.7009 0.20727 0.0
C494 C 0.58273 0.67553 0.18185 0.0
C495 C 0.59837 0.67376 0.2095 0.0
C496 C 0.58609 0.68637 0.23602 0.0
C497 C 0.55853 0.6999 0.2349 0.0
C498 C 0.65639 0.61873 0.23314 0.0
C499 C 0.67435 0.61818 0.20696 0.0
C500 C 0.63256 0.63791 0.2348 0.0
C501 C 0.62637 0.6571 0.21044 0.0
C502 C 0.6457 0.65795 0.18534 0.0
C503 C 0.66924 0.63858 0.1835 0.0
H504 H 0.40608 0.65473 0.25361 0.0
H505 H 0.36702 0.68205 0.16817 0.0
H506 H 0.37154 0.61421 0.25681 0.0
H507 H 0.33152 0.64265 0.17209 0.0
H508 H 0.31019 0.5462 0.16166 0.0
H509 H 0.33513 0.59241 0.16413 0.0
H510 H 0.32321 0.59446 0.26244 0.0
H511 H 0.29881 0.54677 0.26003 0.0
C512 C 0.38963 0.65249 0.2359 0.0
C513 C 0.38959 0.67121 0.21033 0.0
C514 C 0.36967 0.62935 0.23783 0.0
C515 C 0.34899 0.62474 0.21443 0.0
C516 C 0.34766 0.64493 0.19008 0.0
C517 C 0.36793 0.66764 0.18787 0.0
C518 C 0.31255 0.55646 0.18391 0.0
C519 C 0.30267 0.54253 0.21072 0.0
C520 C 0.32668 0.58333 0.18527 0.0
C521 C 0.3312 0.59743 0.21347 0.0
C522 C 0.32038 0.58409 0.24033 0.0
C523 C 0.3062 0.55688 0.23897 0.0
H524 H 0.32898 0.3744 0.15859 0.0
H525 H 0.34922 0.40129 0.25109 0.0
H526 H 0.37046 0.34112 0.15921 0.0
H527 H 0.3915 0.36863 0.25134 0.0
H528 H 0.46843 0.32541 0.15284 0.0
H529 H 0.42173 0.34975 0.15644 0.0
H530 H 0.41184 0.31915 0.2496 0.0
H531 H 0.45967 0.295 0.24625 0.0
C532 C 0.34219 0.37307 0.17916 0.0
C533 C 0.33605 0.39081 0.20462 0.0
C534 C 0.36607 0.35407 0.17948 0.0
C535 C 0.3847 0.35261 0.2051 0.0
C536 C 0.37757 0.3691 0.23127 0.0
C537 C 0.3534 0.38793 0.23107 0.0
C538 C 0.45638 0.3236 0.17414 0.0
C539 C 0.46795 0.30825 0.19931 0.0
C540 C 0.42932 0.33742 0.17609 0.0
C541 C 0.41281 0.33624 0.20322 0.0
C542 C 0.42409 0.3206 0.22841 0.0
C543 C 0.4514 0.30666 0.22645 0.0
H544 H 0.08157 0.3262 0.30699 0.0
H545 H 0.09822 0.29873 0.2139 0.0
H546 H 0.11365 0.36821 0.29956 0.0
H547 H 0.13112 0.33975 0.20684 0.0
H548 H 0.18047 0.42275 0.1944 0.0
H549 H 0.13875 0.39027 0.20158 0.0
H550 H 0.16422 0.37683 0.29599 0.0
H551 H 0.20496 0.41015 0.2891 0.0
C552 C 0.09189 0.32925 0.28487 0.0
C553 C 0.08745 0.30901 0.26111 0.0
C554 C 0.11049 0.35323 0.28065 0.0
C555 C 0.12535 0.35736 0.25268 0.0
C556 C 0.11986 0.33768 0.22857 0.0
C557 C 0.10107 0.31393 0.23269 0.0
C558 C 0.17681 0.41324 0.21682 0.0
C559 C 0.19616 0.41892 0.24111 0.0
C560 C 0.153 0.39441 0.2209 0.0
C561 C 0.14816 0.38052 0.24929 0.0
C562 C 0.16686 0.38729 0.2739 0.0
C563 C 0.19044 0.40634 0.2699 0.0
H564 H 0.67823 0.0809 0.30179 0.0
H565 H 0.7057 0.09423 0.20812 0.0
H566 H 0.63632 0.1129 0.29324 0.0
H567 H 0.66492 0.1272 0.19992 0.0
H568 H 0.58326 0.17804 0.18567 0.0
H569 H 0.61499 0.13594 0.19416 0.0
H570 H 0.6275 0.16291 0.28825 0.0
H571 H 0.59476 0.20391 0.28008 0.0
C572 C 0.67519 0.09049 0.27931 0.0
C573 C 0.6954 0.08513 0.2557 0.0
C574 C 0.65128 0.10906 0.27443 0.0
C575 C 0.64723 0.12307 0.24596 0.0
C576 C 0.66687 0.11663 0.22203 0.0
C577 C 0.6905 0.09778 0.22679 0.0
C578 C 0.59238 0.17461 0.2083 0.0
C579 C 0.58661 0.19443 0.23213 0.0
C580 C 0.61081 0.15058 0.21315 0.0
C581 C 0.62428 0.14605 0.24182 0.0
C582 C 0.61736 0.16526 0.26597 0.0
C583 C 0.59864 0.189 0.26123 0.0
H584 H 0.80151 0.59339 0.28783 0.0
H585 H 0.8304 0.58097 0.19452 0.0
H586 H 0.84219 0.62614 0.29708 0.0
H587 H 0.87231 0.6126 0.20414 0.0
H588 H 0.91418 0.703 0.21848 0.0
H589 H 0.88154 0.66218 0.2095 0.0
H590 H 0.89165 0.63523 0.30399 0.0
H591 H 0.92316 0.67729 0.31325 0.0
C592 C 0.81703 0.59706 0.26948 0.0
C593 C 0.81255 0.58477 0.24035 0.0
C594 C 0.84061 0.61579 0.27483 0.0
C595 C 0.86065 0.62241 0.25132 0.0
C596 C 0.85703 0.60868 0.22265 0.0
C597 C 0.83312 0.5903 0.21715 0.0
C598 C 0.90979 0.68813 0.23725 0.0
C599 C 0.92106 0.69357 0.26666 0.0
C600 C 0.89112 0.66447 0.23206 0.0
C601 C 0.88355 0.64531 0.25605 0.0
C602 C 0.8963 0.64983 0.28508 0.0
C603 C 0.91462 0.67382 0.29038 0.0
H604 H 0.32928 0.92344 0.31013 0.0
H605 H 0.29997 0.90805 0.21745 0.0
H606 H 0.37142 0.89184 0.30124 0.0
H607 H 0.34105 0.87549 0.20895 0.0
H608 H 0.4234 0.82568 0.19397 0.0
H609 H 0.39108 0.86738 0.20224 0.0
H610 H 0.38062 0.84179 0.29707 0.0
H611 H 0.41389 0.80121 0.28907 0.0
C612 C 0.33196 0.91348 0.28778 0.0
C613 C 0.31117 0.91814 0.26457 0.0
C614 C 0.35601 0.89514 0.28272 0.0
C615 C 0.35964 0.88068 0.25445 0.0
C616 C 0.33941 0.88643 0.23087 0.0
C617 C 0.31563 0.90504 0.23582 0.0
C618 C 0.41459 0.82934 0.2167 0.0
C619 C 0.4211 0.81002 0.24081 0.0
C620 C 0.39583 0.85313 0.22143 0.0
C621 C 0.3828 0.85794 0.25027 0.0
C622 C 0.39041 0.83923 0.27464 0.0
C623 C 0.40944 0.81572 0.27 0.0
H624 H 0.20725 0.59265 0.71296 0.0
H625 H 0.18008 0.58026 0.80687 0.0
H626 H 0.16573 0.62453 0.70417 0.0
H627 H 0.13745 0.61114 0.79775 0.0
H628 H 0.09428 0.70117 0.78317 0.0
H629 H 0.12773 0.66089 0.79196 0.0
H630 H 0.11566 0.63236 0.6983 0.0
H631 H 0.08319 0.67378 0.68918 0.0
C632 C 0.19196 0.59613 0.73157 0.0
C633 C 0.19717 0.58411 0.76071 0.0
C634 C 0.1679 0.61436 0.72647 0.0
C635 C 0.14814 0.62079 0.75029 0.0
C636 C 0.15248 0.60732 0.779 0.0
C637 C 0.17682 0.58937 0.78421 0.0
C638 C 0.09842 0.68608 0.76454 0.0
C639 C 0.08628 0.69089 0.73538 0.0
C640 C 0.11755 0.66273 0.76964 0.0
C641 C 0.12478 0.64329 0.7458 0.0
C642 C 0.11123 0.64719 0.71707 0.0
C643 C 0.09238 0.67083 0.71186 0.0
H644 H 0.42167 0.17357 0.80391 0.0
H645 H 0.40637 0.20225 0.71097 0.0
H646 H 0.38931 0.13195 0.79563 0.0
H647 H 0.37304 0.16178 0.70308 0.0
H648 H 0.32144 0.08078 0.68899 0.0
H649 H 0.36397 0.11202 0.69686 0.0
H650 H 0.33918 0.12343 0.7918 0.0
H651 H 0.29779 0.09115 0.7842 0.0
C652 C 0.41155 0.17087 0.78165 0.0
C653 C 0.41648 0.19131 0.75817 0.0
C654 C 0.39278 0.14712 0.77693 0.0
C655 C 0.37814 0.14349 0.74876 0.0
C656 C 0.38411 0.16339 0.72494 0.0
C657 C 0.40317 0.18685 0.72953 0.0
C658 C 0.32547 0.08954 0.71166 0.0
C659 C 0.30613 0.08362 0.7359 0.0
C660 C 0.34973 0.10769 0.71616 0.0
C661 C 0.35498 0.12073 0.7449 0.0
C662 C 0.33628 0.11362 0.76944 0.0
C663 C 0.31231 0.09516 0.76503 0.0
H664 H 0.90569 0.30247 0.79621 0.0
H665 H 0.92201 0.33238 0.70387 0.0
H666 H 0.8723 0.34294 0.80432 0.0
H667 H 0.88949 0.3739 0.71238 0.0
H668 H 0.79765 0.41455 0.72376 0.0
H669 H 0.83909 0.38227 0.71599 0.0
H670 H 0.86365 0.39293 0.81105 0.0
H671 H 0.82116 0.42426 0.81908 0.0
C672 C 0.90267 0.31811 0.77783 0.0
C673 C 0.91633 0.31401 0.74929 0.0
C674 C 0.88359 0.34156 0.78255 0.0
C675 C 0.87788 0.36179 0.75897 0.0
C676 C 0.8928 0.35849 0.7309 0.0
C677 C 0.91165 0.33479 0.72606 0.0
C678 C 0.81214 0.41039 0.74292 0.0
C679 C 0.8059 0.42177 0.77213 0.0
C680 C 0.83612 0.39193 0.73842 0.0
C681 C 0.85475 0.38459 0.76294 0.0
C682 C 0.84947 0.39746 0.79176 0.0
C683 C 0.82522 0.41566 0.79634 0.0
H684 H 0.69779 0.90173 0.68551 0.0
H685 H 0.68945 0.93586 0.7773 0.0
H686 H 0.65699 0.86897 0.69472 0.0
H687 H 0.64735 0.90434 0.78613 0.0
H688 H 0.60369 0.81588 0.80581 0.0
H689 H 0.63745 0.8558 0.79612 0.0
H690 H 0.60788 0.85996 0.702 0.0
H691 H 0.57542 0.81874 0.71148 0.0
C692 C 0.68666 0.90281 0.70741 0.0
C693 C 0.69699 0.92122 0.73075 0.0
C694 C 0.66305 0.88406 0.71272 0.0
C695 C 0.64877 0.8836 0.74136 0.0
C696 C 0.65814 0.90338 0.76407 0.0
C697 C 0.68213 0.92172 0.75893 0.0
C698 C 0.60414 0.82561 0.78317 0.0
C699 C 0.58708 0.81401 0.75935 0.0
C700 C 0.62345 0.84871 0.77757 0.0
C701 C 0.6258 0.86119 0.74811 0.0
C702 C 0.60739 0.85054 0.72476 0.0
C703 C 0.58852 0.82705 0.73024 0.0
H704 H 0.03777 0.27341 0.43035 0.0
H705 H 0.00409 0.18527 0.42711 0.0
H706 H 0.02349 0.27673 0.48455 0.0
H707 H 0.98926 0.18885 0.48016 0.0
H708 H 0.99791 0.1887 0.58193 0.0
H709 H 0.01288 0.18961 0.52879 0.0
H710 H 0.98083 0.27807 0.52007 0.0
H711 H 0.96643 0.27746 0.57435 0.0
C712 C 0.02732 0.25483 0.44114 0.0
C713 C 0.02244 0.22895 0.42452 0.0
C714 C 0.01894 0.2568 0.47206 0.0
C715 C 0.00551 0.23293 0.48682 0.0
C716 C 1.00016 0.20742 0.46983 0.0
C717 C 0.00862 0.2054 0.43925 0.0
C718 C 0.99389 0.2084 0.56881 0.0
C719 C 0.98064 0.23291 0.58236 0.0
C720 C 1.00243 0.20888 0.53819 0.0
C721 C 0.99771 0.23376 0.51997 0.0
C722 C 0.98488 0.25858 0.53352 0.0
C723 C 0.97643 0.25817 0.5645 0.0
H724 H 0.73242 0.96479 0.56864 0.0
H725 H 0.82393 0.98777 0.57273 0.0
H726 H 0.73029 0.98299 0.51565 0.0
H727 H 0.82154 0.00705 0.52135 0.0
H728 H 0.82127 0.00846 0.41999 0.0
H729 H 0.81903 0.98956 0.47152 0.0
H730 H 0.7323 0.02576 0.48244 0.0
H731 H 0.73405 0.04367 0.42932 0.0
C732 C 0.752 0.9737 0.55826 0.0
C733 C 0.77847 0.97428 0.57465 0.0
C734 C 0.75074 0.98438 0.52806 0.0
C735 C 0.77586 0.99615 0.51395 0.0
C736 C 0.80196 0.99735 0.53091 0.0
C737 C 0.80332 0.98631 0.56058 0.0
C738 C 0.80171 0.01266 0.4333 0.0
C739 C 0.77799 0.02799 0.42065 0.0
C740 C 0.80046 1.00184 0.46307 0.0
C741 C 0.7757 0.00653 0.48152 0.0
C742 C 0.75169 0.02163 0.46885 0.0
C743 C 0.75277 0.03214 0.43857 0.0
H744 H 0.01909 0.71837 0.57833 0.0
H745 H 0.04503 0.8071 0.5583 0.0
H746 H 0.99641 0.71481 0.52735 0.0
H747 H 0.02285 0.80346 0.50791 0.0
H748 H 0.94838 0.80556 0.44288 0.0
H749 H 0.97017 0.80106 0.49342 0.0
H750 H 0.00617 0.71708 0.46868 0.0
H751 H 0.98389 0.72146 0.41761 0.0
C752 C 0.02054 0.73682 0.56285 0.0
C753 C 0.03353 0.76314 0.57246 0.0
C754 C 0.00749 0.73481 0.53375 0.0
C755 C 0.00722 0.75911 0.51398 0.0
C756 C 0.02198 0.78463 0.52295 0.0
C757 C 0.0349 0.78663 0.55179 0.0
C758 C 0.96049 0.78586 0.44828 0.0
C759 C 0.96469 0.76403 0.4261 0.0
C760 C 0.97317 0.78338 0.4772 0.0
C761 C 0.99052 0.75906 0.48474 0.0
C762 C 0.99303 0.73614 0.46343 0.0
C763 C 0.98021 0.73861 0.43427 0.0
H764 H 0.19424 0.05569 0.56027 0.0
H765 H 0.27837 0.02042 0.58594 0.0
H766 H 0.19956 0.03502 0.50931 0.0
H767 H 0.28352 0.99908 0.53453 0.0
H768 H 0.28388 0.98674 0.42517 0.0
H769 H 0.28666 0.00886 0.47647 0.0
H770 H 0.19727 0.98323 0.49358 0.0
H771 H 0.19439 0.96177 0.44284 0.0
C772 C 0.21411 0.04386 0.55485 0.0
C773 C 0.23572 0.03939 0.57721 0.0
C774 C 0.21706 0.0318 0.52571 0.0
C775 C 0.24159 0.01473 0.51819 0.0
C776 C 0.26431 0.012 0.53975 0.0
C777 C 0.26139 0.02428 0.56911 0.0
C778 C 0.26509 0.98538 0.44022 0.0
C779 C 0.23879 0.97286 0.42987 0.0
C780 C 0.26666 0.9981 0.46949 0.0
C781 C 0.24193 0.99846 0.4887 0.0
C782 C 0.21642 0.98411 0.47898 0.0
C783 C 0.21484 0.97158 0.44995 0.0
H784 H 0.49455 0.69286 0.9188 0.0
H785 H 0.53959 0.77475 0.93244 0.0
H786 H 0.47682 0.69431 0.97094 0.0
H787 H 0.52269 0.77561 0.98592 0.0
H788 H 0.46548 0.77709 0.0744 0.0
H789 H 0.48076 0.78018 0.02051 0.0
H790 H 0.49616 0.68697 0.02001 0.0
H791 H 0.48 0.68379 0.07256 0.0
C792 C 0.50102 0.71107 0.93312 0.0
C793 C 0.51888 0.73348 0.92157 0.0
C794 C 0.49087 0.71186 0.96319 0.0
C795 C 0.4987 0.73481 0.98295 0.0
C796 C 0.51613 0.75766 0.97131 0.0
C797 C 0.52602 0.75707 0.94079 0.0
C798 C 0.47182 0.75729 0.06253 0.0
C799 C 0.47115 0.73016 0.07769 0.0
C800 C 0.48084 0.75909 0.03177 0.0
C801 C 0.48947 0.73378 0.01574 0.0
C802 C 0.48899 0.70684 0.03122 0.0
C803 C 0.47978 0.70503 0.06157 0.0
H804 H 0.23324 0.54483 0.93109 0.0
H805 H 0.32265 0.51476 0.92579 0.0
H806 H 0.23028 0.5266 0.98406 0.0
H807 H 0.31933 0.49553 0.97715 0.0
H808 H 0.32027 0.49488 0.0785 0.0
H809 H 0.31867 0.51377 0.02695 0.0
H810 H 0.22965 0.48343 0.01726 0.0
H811 H 0.23086 0.46547 0.07039 0.0
C812 C 0.25217 0.53434 0.94119 0.0
C813 C 0.27836 0.5318 0.92451 0.0
C814 C 0.25041 0.52366 0.97137 0.0
C815 C 0.27472 0.50996 0.98513 0.0
C816 C 0.30045 0.50674 0.96783 0.0
C817 C 0.30234 0.51776 0.93819 0.0
C818 C 0.30032 0.49197 0.06547 0.0
C819 C 0.27582 0.47824 0.07846 0.0
C820 C 0.29943 0.50278 0.03569 0.0
C821 C 0.27421 0.49971 0.01758 0.0
C822 C 0.24941 0.48627 0.03059 0.0
C823 C 0.25016 0.47574 0.06088 0.0
H824 H 0.51748 0.22343 0.07938 0.0
H825 H 0.55484 0.30699 0.0553 0.0
H826 H 0.49619 0.21966 0.02783 0.0
H827 H 0.53437 0.30299 0.00414 0.0
H828 H 0.46385 0.31027 0.93478 0.0
H829 H 0.48433 0.30708 0.98597 0.0
H830 H 0.50542 0.21618 0.97094 0.0
H831 H 0.48411 0.21928 0.91931 0.0
C832 C 0.52175 0.2406 0.06287 0.0
C833 C 0.53752 0.26567 0.07146 0.0
C834 C 0.50951 0.23848 0.03341 0.0
C835 C 0.51295 0.26139 0.01216 0.0
C836 C 0.53051 0.28537 0.02025 0.0
C837 C 0.54249 0.28756 0.04952 0.0
C838 C 0.47247 0.28945 0.94246 0.0
C839 C 0.47263 0.26511 0.92289 0.0
C840 C 0.48446 0.28768 0.97175 0.0
C841 C 0.49725 0.26158 0.98225 0.0
C842 C 0.49586 0.23663 0.96344 0.0
C843 C 0.48361 0.23838 0.93395 0.0
H844 H 0.77937 0.48614 0.92138 0.0
H845 H 0.69354 0.4558 0.94777 0.0
H846 H 0.78536 0.5086 0.97221 0.0
H847 H 0.69961 0.47781 0.99798 0.0
H848 H 0.69807 0.55287 0.06226 0.0
H849 H 0.70069 0.53121 0.01154 0.0
H850 H 0.78703 0.49808 0.03147 0.0
H851 H 0.78452 0.52019 0.08279 0.0
C852 C 0.76213 0.48367 0.93821 0.0
C853 C 0.73582 0.46954 0.93046 0.0
C854 C 0.76554 0.49658 0.96721 0.0
C855 C 0.74265 0.49557 0.98872 0.0
C856 C 0.71731 0.47963 0.98158 0.0
C857 C 0.71393 0.46684 0.95284 0.0
C858 C 0.71787 0.54143 0.05575 0.0
C859 C 0.74094 0.53794 0.07667 0.0
C860 C 0.71928 0.52884 0.02673 0.0
C861 C 0.74375 0.51231 0.01786 0.0
C862 C 0.76784 0.51057 0.03782 0.0
C863 C 0.76643 0.5233 0.0671 0.0
loop_
_geom_bond_atom_site_label_1
_geom_bond_atom_site_label_2
_geom_bond_distance
_geom_bond_site_symmetry_2
_ccdc_geom_bond_type
O0 Cd1 2.223 . S
O0 C8 1.315 . S
Cd1 O0 2.223 . S
Cd1 O4 2.297 . S
Cd1 O5 2.439 . S
Cd1 O11 2.259 . S
Cd2 O3 2.240 . S
Cd2 O10 2.223 . S
Cd2 O12 2.297 . S
Cd2 O13 2.439 . S
O3 Cd2 2.240 . S
O3 C8 1.279 . S
O4 Cd1 2.297 . S
O4 C6 1.247 . S
O5 Cd1 2.439 . S
O5 C6 1.208 . S
C6 O4 1.247 . S
C6 O5 1.208 . S
C7 O12 1.247 . S
C7 O13 1.208 . S
C8 O0 1.315 . S
C8 O3 1.279 . S
C9 O10 1.315 1_655 S
C9 O11 1.271 1_655 S
O10 Cd2 2.223 . S
O10 C9 1.315 1_455 S
O11 Cd1 2.259 . S
O11 C9 1.271 1_455 S
O12 Cd2 2.297 . S
O12 C7 1.247 . S
O13 Cd2 2.439 . S
O13 C7 1.208 . S
O14 Cd15 2.223 . S
O14 C22 1.315 . S
Cd15 O14 2.223 . S
Cd15 O18 2.297 . S
Cd15 O19 2.439 . S
Cd15 O25 2.259 . S
Cd16 O17 2.240 . S
Cd16 O24 2.223 . S
Cd16 O26 2.297 . S
Cd16 O27 2.439 . S
O17 Cd16 2.240 . S
O17 C22 1.279 . S
O18 Cd15 2.297 . S
O18 C20 1.247 . S
O19 Cd15 2.439 . S
O19 C20 1.208 . S
C20 O18 1.247 . S
C20 O19 1.208 . S
C21 O26 1.247 . S
C21 O27 1.208 . S
C22 O14 1.315 . S
C22 O17 1.279 . S
C23 O24 1.315 1_565 S
C23 O25 1.271 1_565 S
O24 Cd16 2.223 . S
O24 C23 1.315 1_545 S
O25 Cd15 2.259 . S
O25 C23 1.271 1_545 S
O26 Cd16 2.297 . S
O26 C21 1.247 . S
O27 Cd16 2.439 . S
O27 C21 1.208 . S
O28 Cd29 2.223 . S
O28 C36 1.315 . S
Cd29 O28 2.223 . S
Cd29 O32 2.297 . S
Cd29 O33 2.439 . S
Cd29 O39 2.259 . S
Cd30 O31 2.240 . S
Cd30 O38 2.223 . S
Cd30 O40 2.297 . S
Cd30 O41 2.439 . S
O31 Cd30 2.240 . S
O31 C36 1.279 . S
O32 Cd29 2.297 . S
O32 C34 1.247 . S
O33 Cd29 2.439 . S
O33 C34 1.208 . S
C34 O32 1.247 . S
C34 O33 1.208 . S
C35 O40 1.247 . S
C35 O41 1.208 . S
C36 O28 1.315 . S
C36 O31 1.279 . S
C37 O38 1.315 1_455 S
C37 O39 1.271 1_455 S
O38 Cd30 2.223 . S
O38 C37 1.315 1_655 S
O39 Cd29 2.259 . S
O39 C37 1.271 1_655 S
O40 Cd30 2.297 . S
O40 C35 1.247 . S
O41 Cd30 2.439 . S
O41 C35 1.208 . S
O42 Cd43 2.223 . S
O42 C50 1.315 . S
Cd43 O42 2.223 . S
Cd43 O46 2.297 . S
Cd43 O47 2.439 . S
Cd43 O53 2.259 . S
Cd44 O45 2.240 . S
Cd44 O52 2.223 . S
Cd44 O54 2.297 . S
Cd44 O55 2.439 . S
O45 Cd44 2.240 . S
O45 C50 1.279 . S
O46 Cd43 2.297 . S
O46 C48 1.247 . S
O47 Cd43 2.439 . S
O47 C48 1.208 . S
C48 O46 1.247 . S
C48 O47 1.208 . S
C49 O54 1.247 . S
C49 O55 1.208 . S
C50 O42 1.315 . S
C50 O45 1.279 . S
C51 O52 1.315 1_545 S
C51 O53 1.271 1_545 S
O52 Cd44 2.223 . S
O52 C51 1.315 1_565 S
O53 Cd43 2.259 . S
O53 C51 1.271 1_565 S
O54 Cd44 2.297 . S
O54 C49 1.247 . S
O55 Cd44 2.439 . S
O55 C49 1.208 . S
O56 Cd57 2.223 . S
O56 C64 1.315 . S
Cd57 O56 2.223 . S
Cd57 O60 2.297 . S
Cd57 O61 2.439 . S
Cd57 O67 2.259 . S
Cd58 O59 2.240 . S
Cd58 O66 2.223 . S
Cd58 O68 2.297 . S
Cd58 O69 2.439 . S
O59 Cd58 2.240 . S
O59 C64 1.279 . S
O60 Cd57 2.297 . S
O60 C62 1.247 . S
O61 Cd57 2.439 . S
O61 C62 1.208 . S
C62 O60 1.247 . S
C62 O61 1.208 . S
C63 O68 1.247 . S
C63 O69 1.208 . S
C64 O56 1.315 . S
C64 O59 1.279 . S
C65 O66 1.315 1_655 S
C65 O67 1.271 1_655 S
O66 Cd58 2.223 . S
O66 C65 1.315 1_455 S
O67 Cd57 2.259 . S
O67 C65 1.271 1_455 S
O68 Cd58 2.297 . S
O68 C63 1.247 . S
O69 Cd58 2.439 . S
O69 C63 1.208 . S
O70 Cd71 2.223 . S
O70 C78 1.315 . S
Cd71 O70 2.223 . S
Cd71 O74 2.297 . S
Cd71 O75 2.439 . S
Cd71 O81 2.259 . S
Cd72 O73 2.240 . S
Cd72 O80 2.223 . S
Cd72 O82 2.297 . S
Cd72 O83 2.439 . S
O73 Cd72 2.240 . S
O73 C78 1.279 . S
O74 Cd71 2.297 . S
O74 C76 1.247 . S
O75 Cd71 2.439 . S
O75 C76 1.208 . S
C76 O74 1.247 . S
C76 O75 1.208 . S
C77 O82 1.247 . S
C77 O83 1.208 . S
C78 O70 1.315 . S
C78 O73 1.279 . S
C79 O80 1.315 1_565 S
C79 O81 1.271 1_565 S
O80 Cd72 2.223 . S
O80 C79 1.315 1_545 S
O81 Cd71 2.259 . S
O81 C79 1.271 1_545 S
O82 Cd72 2.297 . S
O82 C77 1.247 . S
O83 Cd72 2.439 . S
O83 C77 1.208 . S
O84 Cd85 2.223 . S
O84 C92 1.315 . S
Cd85 O84 2.223 . S
Cd85 O88 2.297 . S
Cd85 O89 2.439 . S
Cd85 O95 2.259 . S
Cd86 O87 2.240 . S
Cd86 O94 2.223 . S
Cd86 O96 2.297 . S
Cd86 O97 2.439 . S
O87 Cd86 2.240 . S
O87 C92 1.279 . S
O88 Cd85 2.297 . S
O88 C90 1.247 . S
O89 Cd85 2.439 . S
O89 C90 1.208 . S
C90 O88 1.247 . S
C90 O89 1.208 . S
C91 O96 1.247 . S
C91 O97 1.208 . S
C92 O84 1.315 . S
C92 O87 1.279 . S
C93 O94 1.315 1_455 S
C93 O95 1.271 1_455 S
O94 Cd86 2.223 . S
O94 C93 1.315 1_655 S
O95 Cd85 2.259 . S
O95 C93 1.271 1_655 S
O96 Cd86 2.297 . S
O96 C91 1.247 . S
O97 Cd86 2.439 . S
O97 C91 1.208 . S
O98 Cd99 2.223 . S
O98 C106 1.315 . S
Cd99 O98 2.223 . S
Cd99 O102 2.297 . S
Cd99 O103 2.439 . S
Cd99 O109 2.259 . S
Cd100 O101 2.240 . S
Cd100 O108 2.223 . S
Cd100 O110 2.297 . S
Cd100 O111 2.439 . S
O101 Cd100 2.240 . S
O101 C106 1.279 . S
O102 Cd99 2.297 . S
O102 C104 1.247 . S
O103 Cd99 2.439 . S
O103 C104 1.208 . S
C104 O102 1.247 . S
C104 O103 1.208 . S
C105 O110 1.247 . S
C105 O111 1.208 . S
C106 O98 1.315 . S
C106 O101 1.279 . S
C107 O108 1.315 1_545 S
C107 O109 1.271 1_545 S
O108 Cd100 2.223 . S
O108 C107 1.315 1_565 S
O109 Cd99 2.259 . S
O109 C107 1.271 1_565 S
O110 Cd100 2.297 . S
O110 C105 1.247 . S
O111 Cd100 2.439 . S
O111 C105 1.208 . S
O112 Cd113 2.223 . S
O112 C120 1.315 . S
Cd113 O112 2.223 . S
Cd113 O116 2.297 . S
Cd113 O117 2.439 . S
Cd113 O123 2.240 . S
Cd114 O115 2.240 . S
Cd114 O122 2.223 . S
Cd114 O124 2.297 . S
Cd114 O125 2.439 . S
O115 Cd114 2.240 . S
O115 C120 1.279 . S
O116 Cd113 2.297 . S
O116 C118 1.247 . S
O117 Cd113 2.439 . S
O117 C118 1.208 . S
C118 O116 1.247 . S
C118 O117 1.208 . S
C119 O124 1.247 . S
C119 O125 1.208 . S
C120 O112 1.315 . S
C120 O115 1.279 . S
C121 O122 1.315 . S
C121 O123 1.279 . S
O122 Cd114 2.223 . S
O122 C121 1.315 . S
O123 Cd113 2.240 . S
O123 C121 1.279 . S
O124 Cd114 2.297 . S
O124 C119 1.247 . S
O125 Cd114 2.439 . S
O125 C119 1.208 . S
O126 Cd127 2.223 . S
O126 C134 1.315 . S
Cd127 O126 2.223 . S
Cd127 O130 2.297 . S
Cd127 O131 2.439 . S
Cd127 O137 2.240 . S
Cd128 O129 2.240 . S
Cd128 O136 2.223 . S
Cd128 O138 2.297 . S
Cd128 O139 2.439 . S
O129 Cd128 2.240 . S
O129 C134 1.279 . S
O130 Cd127 2.297 . S
O130 C132 1.247 . S
O131 Cd127 2.439 . S
O131 C132 1.208 . S
C132 O130 1.247 . S
C132 O131 1.208 . S
C133 O138 1.247 . S
C133 O139 1.208 . S
C134 O126 1.315 . S
C134 O129 1.279 . S
C135 O136 1.315 . S
C135 O137 1.279 . S
O136 Cd128 2.223 . S
O136 C135 1.315 . S
O137 Cd127 2.240 . S
O137 C135 1.279 . S
O138 Cd128 2.297 . S
O138 C133 1.247 . S
O139 Cd128 2.439 . S
O139 C133 1.208 . S
O140 Cd141 2.223 . S
O140 C148 1.315 . S
Cd141 O140 2.223 . S
Cd141 O144 2.297 . S
Cd141 O145 2.439 . S
Cd141 O151 2.240 . S
Cd142 O143 2.240 . S
Cd142 O150 2.223 . S
Cd142 O152 2.297 . S
Cd142 O153 2.439 . S
O143 Cd142 2.240 . S
O143 C148 1.279 . S
O144 Cd141 2.297 . S
O144 C146 1.247 . S
O145 Cd141 2.439 . S
O145 C146 1.208 . S
C146 O144 1.247 . S
C146 O145 1.208 . S
C147 O152 1.247 . S
C147 O153 1.208 . S
C148 O140 1.315 . S
C148 O143 1.279 . S
C149 O150 1.315 . S
C149 O151 1.279 . S
O150 Cd142 2.223 . S
O150 C149 1.315 . S
O151 Cd141 2.240 . S
O151 C149 1.279 . S
O152 Cd142 2.297 . S
O152 C147 1.247 . S
O153 Cd142 2.439 . S
O153 C147 1.208 . S
O154 Cd155 2.223 . S
O154 C162 1.315 . S
Cd155 O154 2.223 . S
Cd155 O158 2.297 . S
Cd155 O159 2.439 . S
Cd155 O165 2.240 . S
Cd156 O157 2.240 . S
Cd156 O164 2.223 . S
Cd156 O166 2.297 . S
Cd156 O167 2.439 . S
O157 Cd156 2.240 . S
O157 C162 1.279 . S
O158 Cd155 2.297 . S
O158 C160 1.247 . S
O159 Cd155 2.439 . S
O159 C160 1.208 . S
C160 O158 1.247 . S
C160 O159 1.208 . S
C161 O166 1.247 . S
C161 O167 1.208 . S
C162 O154 1.315 . S
C162 O157 1.279 . S
C163 O164 1.315 . S
C163 O165 1.279 . S
O164 Cd156 2.223 . S
O164 C163 1.315 . S
O165 Cd155 2.240 . S
O165 C163 1.279 . S
O166 Cd156 2.297 . S
O166 C161 1.247 . S
O167 Cd156 2.439 . S
O167 C161 1.208 . S
O168 Cd169 2.223 . S
O168 C176 1.315 . S
Cd169 O168 2.223 . S
Cd169 O172 2.297 . S
Cd169 O173 2.439 . S
Cd169 O179 2.240 . S
Cd170 O171 2.240 . S
Cd170 O178 2.223 . S
Cd170 O180 2.297 . S
Cd170 O181 2.439 . S
O171 Cd170 2.240 . S
O171 C176 1.279 . S
O172 Cd169 2.297 . S
O172 C174 1.247 . S
O173 Cd169 2.439 . S
O173 C174 1.208 . S
C174 O172 1.247 . S
C174 O173 1.208 . S
C175 O180 1.247 . S
C175 O181 1.208 . S
C176 O168 1.315 . S
C176 O171 1.279 . S
C177 O178 1.315 . S
C177 O179 1.279 . S
O178 Cd170 2.223 . S
O178 C177 1.315 . S
O179 Cd169 2.240 . S
O179 C177 1.279 . S
O180 Cd170 2.297 . S
O180 C175 1.247 . S
O181 Cd170 2.439 . S
O181 C175 1.208 . S
O182 Cd183 2.223 . S
O182 C190 1.315 . S
Cd183 O182 2.223 . S
Cd183 O186 2.297 . S
Cd183 O187 2.439 . S
Cd183 O193 2.240 . S
Cd184 O185 2.240 . S
Cd184 O192 2.223 . S
Cd184 O194 2.297 . S
Cd184 O195 2.439 . S
O185 Cd184 2.240 . S
O185 C190 1.279 . S
O186 Cd183 2.297 . S
O186 C188 1.247 . S
O187 Cd183 2.439 . S
O187 C188 1.208 . S
C188 O186 1.247 . S
C188 O187 1.208 . S
C189 O194 1.247 . S
C189 O195 1.208 . S
C190 O182 1.315 . S
C190 O185 1.279 . S
C191 O192 1.315 . S
C191 O193 1.279 . S
O192 Cd184 2.223 . S
O192 C191 1.315 . S
O193 Cd183 2.240 . S
O193 C191 1.279 . S
O194 Cd184 2.297 . S
O194 C189 1.247 . S
O195 Cd184 2.439 . S
O195 C189 1.208 . S
O196 Cd197 2.223 . S
O196 C204 1.315 . S
Cd197 O196 2.223 . S
Cd197 O200 2.297 . S
Cd197 O201 2.439 . S
Cd197 O207 2.240 . S
Cd198 O199 2.240 . S
Cd198 O206 2.223 . S
Cd198 O208 2.297 . S
Cd198 O209 2.439 . S
O199 Cd198 2.240 . S
O199 C204 1.279 . S
O200 Cd197 2.297 . S
O200 C202 1.247 . S
O201 Cd197 2.439 . S
O201 C202 1.208 . S
C202 O200 1.247 . S
C202 O201 1.208 . S
C203 O208 1.247 . S
C203 O209 1.208 . S
C204 O196 1.315 . S
C204 O199 1.279 . S
C205 O206 1.315 . S
C205 O207 1.279 . S
O206 Cd198 2.223 . S
O206 C205 1.315 . S
O207 Cd197 2.240 . S
O207 C205 1.279 . S
O208 Cd198 2.297 . S
O208 C203 1.247 . S
O209 Cd198 2.439 . S
O209 C203 1.208 . S
O210 Cd211 2.223 . S
O210 C218 1.315 . S
Cd211 O210 2.223 . S
Cd211 O214 2.297 . S
Cd211 O215 2.439 . S
Cd211 O221 2.240 . S
Cd212 O213 2.240 . S
Cd212 O220 2.223 . S
Cd212 O222 2.297 . S
Cd212 O223 2.439 . S
O213 Cd212 2.240 . S
O213 C218 1.279 . S
O214 Cd211 2.297 . S
O214 C216 1.247 . S
O215 Cd211 2.439 . S
O215 C216 1.208 . S
C216 O214 1.247 . S
C216 O215 1.208 . S
C217 O222 1.247 . S
C217 O223 1.208 . S
C218 O210 1.315 . S
C218 O213 1.279 . S
C219 O220 1.315 . S
C219 O221 1.279 . S
O220 Cd212 2.223 . S
O220 C219 1.315 . S
O221 Cd211 2.240 . S
O221 C219 1.279 . S
O222 Cd212 2.297 . S
O222 C217 1.247 . S
O223 Cd212 2.439 . S
O223 C217 1.208 . S
H224 C232 0.950 . S
H225 C237 0.950 . S
H226 C234 0.950 . S
H227 C236 0.950 . S
H228 C238 0.950 . S
H229 C240 0.950 . S
H230 C242 0.950 . S
H231 C243 0.950 . S
C232 H224 0.950 . S
C232 C233 1.386 . S
C232 C234 1.391 . S
C233 C232 1.386 . S
C233 C237 1.393 . S
C234 H226 0.950 . S
C234 C232 1.391 . S
C234 C235 1.400 . S
C235 C234 1.400 . S
C235 C236 1.398 . S
C235 C241 1.491 . S
C236 H227 0.950 . S
C236 C235 1.398 . S
C236 C237 1.391 . S
C237 H225 0.950 . S
C237 C233 1.393 . S
C237 C236 1.391 . S
C238 H228 0.950 . S
C238 C239 1.386 . S
C238 C240 1.391 . S
C239 C238 1.386 . S
C239 C243 1.393 . S
C240 H229 0.950 . S
C240 C238 1.391 . S
C240 C241 1.400 . S
C241 C235 1.491 . S
C241 C240 1.400 . S
C241 C242 1.398 . S
C242 H230 0.950 . S
C242 C241 1.398 . S
C242 C243 1.391 . S
C243 H231 0.950 . S
C243 C239 1.393 . S
C243 C242 1.391 . S
H244 C252 0.950 . S
H245 C257 0.950 . S
H246 C254 0.950 . S
H247 C256 0.950 . S
H248 C258 0.950 . S
H249 C260 0.950 . S
H250 C262 0.950 . S
H251 C263 0.950 . S
C252 H244 0.950 . S
C252 C253 1.386 . S
C252 C254 1.391 . S
C253 C252 1.386 . S
C253 C257 1.393 . S
C254 H246 0.950 . S
C254 C252 1.391 . S
C254 C255 1.400 . S
C255 C254 1.400 . S
C255 C256 1.398 . S
C255 C261 1.491 . S
C256 H247 0.950 . S
C256 C255 1.398 . S
C256 C257 1.391 . S
C257 H245 0.950 . S
C257 C253 1.393 . S
C257 C256 1.391 . S
C258 H248 0.950 . S
C258 C259 1.386 . S
C258 C260 1.391 . S
C259 C258 1.386 . S
C259 C263 1.393 . S
C260 H249 0.950 . S
C260 C258 1.391 . S
C260 C261 1.400 . S
C261 C255 1.491 . S
C261 C260 1.400 . S
C261 C262 1.398 . S
C262 H250 0.950 . S
C262 C261 1.398 . S
C262 C263 1.391 . S
C263 H251 0.950 . S
C263 C259 1.393 . S
C263 C262 1.391 . S
H264 C272 0.950 . S
H265 C277 0.950 . S
H266 C274 0.950 . S
H267 C276 0.950 . S
H268 C278 0.950 . S
H269 C280 0.950 . S
H270 C282 0.950 . S
H271 C283 0.950 . S
C272 H264 0.950 . S
C272 C273 1.386 . S
C272 C274 1.391 . S
C273 C272 1.386 . S
C273 C277 1.393 . S
C274 H266 0.950 . S
C274 C272 1.391 . S
C274 C275 1.400 . S
C275 C274 1.400 . S
C275 C276 1.398 . S
C275 C281 1.491 . S
C276 H267 0.950 . S
C276 C275 1.398 . S
C276 C277 1.391 . S
C277 H265 0.950 . S
C277 C273 1.393 . S
C277 C276 1.391 . S
C278 H268 0.950 . S
C278 C279 1.386 . S
C278 C280 1.391 . S
C279 C278 1.386 . S
C279 C283 1.393 . S
C280 H269 0.950 . S
C280 C278 1.391 . S
C280 C281 1.400 . S
C281 C275 1.491 . S
C281 C280 1.400 . S
C281 C282 1.398 . S
C282 H270 0.950 . S
C282 C281 1.398 . S
C282 C283 1.391 . S
C283 H271 0.950 . S
C283 C279 1.393 . S
C283 C282 1.391 . S
H284 C292 0.950 . S
H285 C297 0.950 . S
H286 C294 0.950 . S
H287 C296 0.950 . S
H288 C298 0.950 . S
H289 C300 0.950 . S
H290 C302 0.950 . S
H291 C303 0.950 . S
C292 H284 0.950 . S
C292 C293 1.386 . S
C292 C294 1.391 . S
C293 C292 1.386 . S
C293 C297 1.393 . S
C294 H286 0.950 . S
C294 C292 1.391 . S
C294 C295 1.400 . S
C295 C294 1.400 . S
C295 C296 1.398 . S
C295 C301 1.491 . S
C296 H287 0.950 . S
C296 C295 1.398 . S
C296 C297 1.391 . S
C297 H285 0.950 . S
C297 C293 1.393 . S
C297 C296 1.391 . S
C298 H288 0.950 . S
C298 C299 1.386 . S
C298 C300 1.391 . S
C299 C298 1.386 . S
C299 C303 1.393 . S
C300 H289 0.950 . S
C300 C298 1.391 . S
C300 C301 1.400 . S
C301 C295 1.491 . S
C301 C300 1.400 . S
C301 C302 1.398 . S
C302 H290 0.950 . S
C302 C301 1.398 . S
C302 C303 1.391 . S
C303 H291 0.950 . S
C303 C299 1.393 . S
C303 C302 1.391 . S
H304 C312 0.950 . S
H305 C317 0.950 . S
H306 C314 0.950 . S
H307 C316 0.950 . S
H308 C318 0.950 . S
H309 C320 0.950 . S
H310 C322 0.950 . S
H311 C323 0.950 . S
C312 H304 0.950 . S
C312 C313 1.386 . S
C312 C314 1.391 . S
C313 C312 1.386 . S
C313 C317 1.393 . S
C314 H306 0.950 . S
C314 C312 1.391 . S
C314 C315 1.400 . S
C315 C314 1.400 . S
C315 C316 1.398 . S
C315 C321 1.491 . S
C316 H307 0.950 . S
C316 C315 1.398 . S
C316 C317 1.391 . S
C317 H305 0.950 . S
C317 C313 1.393 . S
C317 C316 1.391 . S
C318 H308 0.950 . S
C318 C319 1.386 . S
C318 C320 1.391 . S
C319 C318 1.386 . S
C319 C323 1.393 . S
C320 H309 0.950 . S
C320 C318 1.391 . S
C320 C321 1.400 . S
C321 C315 1.491 . S
C321 C320 1.400 . S
C321 C322 1.398 . S
C322 H310 0.950 . S
C322 C321 1.398 . S
C322 C323 1.391 . S
C323 H311 0.950 . S
C323 C319 1.393 . S
C323 C322 1.391 . S
H324 C332 0.950 . S
H325 C337 0.950 . S
H326 C334 0.950 . S
H327 C336 0.950 . S
H328 C338 0.950 . S
H329 C340 0.950 . S
H330 C342 0.950 . S
H331 C343 0.950 . S
C332 H324 0.950 . S
C332 C333 1.386 . S
C332 C334 1.391 . S
C333 C332 1.386 . S
C333 C337 1.393 . S
C334 H326 0.950 . S
C334 C332 1.391 . S
C334 C335 1.400 . S
C335 C334 1.400 . S
C335 C336 1.398 . S
C335 C341 1.491 . S
C336 H327 0.950 . S
C336 C335 1.398 . S
C336 C337 1.391 . S
C337 H325 0.950 . S
C337 C333 1.393 . S
C337 C336 1.391 . S
C338 H328 0.950 . S
C338 C339 1.386 . S
C338 C340 1.391 . S
C339 C338 1.386 . S
C339 C343 1.393 . S
C340 H329 0.950 . S
C340 C338 1.391 . S
C340 C341 1.400 . S
C341 C335 1.491 . S
C341 C340 1.400 . S
C341 C342 1.398 . S
C342 H330 0.950 . S
C342 C341 1.398 . S
C342 C343 1.391 . S
C343 H331 0.950 . S
C343 C339 1.393 . S
C343 C342 1.391 . S
H344 C352 0.950 . S
H345 C357 0.950 . S
H346 C354 0.950 . S
H347 C356 0.950 . S
H348 C358 0.950 . S
H349 C360 0.950 . S
H350 C362 0.950 . S
H351 C363 0.950 . S
C352 H344 0.950 . S
C352 C353 1.386 . S
C352 C354 1.391 . S
C353 C352 1.386 . S
C353 C357 1.393 . S
C354 H346 0.950 . S
C354 C352 1.391 . S
C354 C355 1.400 . S
C355 C354 1.400 . S
C355 C356 1.398 . S
C355 C361 1.491 . S
C356 H347 0.950 . S
C356 C355 1.398 . S
C356 C357 1.391 . S
C357 H345 0.950 . S
C357 C353 1.393 . S
C357 C356 1.391 . S
C358 H348 0.950 . S
C358 C359 1.386 . S
C358 C360 1.391 . S
C359 C358 1.386 . S
C359 C363 1.393 . S
C360 H349 0.950 . S
C360 C358 1.391 . S
C360 C361 1.400 . S
C361 C355 1.491 . S
C361 C360 1.400 . S
C361 C362 1.398 . S
C362 H350 0.950 . S
C362 C361 1.398 . S
C362 C363 1.391 . S
C363 H351 0.950 . S
C363 C359 1.393 . S
C363 C362 1.391 . S
H364 C372 0.950 . S
H365 C377 0.950 . S
H366 C374 0.950 . S
H367 C376 0.950 . S
H368 C378 0.950 . S
H369 C380 0.950 . S
H370 C382 0.950 . S
H371 C383 0.950 . S
C372 H364 0.950 . S
C372 C373 1.386 . S
C372 C374 1.391 . S
C373 C372 1.386 . S
C373 C377 1.393 . S
C374 H366 0.950 . S
C374 C372 1.391 . S
C374 C375 1.400 . S
C375 C374 1.400 . S
C375 C376 1.398 . S
C375 C381 1.491 . S
C376 H367 0.950 . S
C376 C375 1.398 . S
C376 C377 1.391 . S
C377 H365 0.950 . S
C377 C373 1.393 . S
C377 C376 1.391 . S
C378 H368 0.950 . S
C378 C379 1.386 . S
C378 C380 1.391 . S
C379 C378 1.386 . S
C379 C383 1.393 . S
C380 H369 0.950 . S
C380 C378 1.391 . S
C380 C381 1.400 . S
C381 C375 1.491 . S
C381 C380 1.400 . S
C381 C382 1.398 . S
C382 H370 0.950 . S
C382 C381 1.398 . S
C382 C383 1.391 . S
C383 H371 0.950 . S
C383 C379 1.393 . S
C383 C382 1.391 . S
H384 C392 0.950 . S
H385 C397 0.950 . S
H386 C394 0.950 . S
H387 C396 0.950 . S
H388 C398 0.950 . S
H389 C400 0.950 . S
H390 C402 0.950 . S
H391 C403 0.950 . S
C392 H384 0.950 . S
C392 C393 1.386 . S
C392 C394 1.391 . S
C393 C392 1.386 . S
C393 C397 1.393 . S
C394 H386 0.950 . S
C394 C392 1.391 . S
C394 C395 1.400 . S
C395 C394 1.400 . S
C395 C396 1.398 . S
C395 C401 1.491 . S
C396 H387 0.950 . S
C396 C395 1.398 . S
C396 C397 1.391 . S
C397 H385 0.950 . S
C397 C393 1.393 . S
C397 C396 1.391 . S
C398 H388 0.950 . S
C398 C399 1.386 . S
C398 C400 1.391 . S
C399 C398 1.386 . S
C399 C403 1.393 . S
C400 H389 0.950 . S
C400 C398 1.391 . S
C400 C401 1.400 . S
C401 C395 1.491 . S
C401 C400 1.400 . S
C401 C402 1.398 . S
C402 H390 0.950 . S
C402 C401 1.398 . S
C402 C403 1.391 . S
C403 H391 0.950 . S
C403 C399 1.393 . S
C403 C402 1.391 . S
H404 C412 0.950 . S
H405 C417 0.950 . S
H406 C414 0.950 . S
H407 C416 0.950 . S
H408 C418 0.950 . S
H409 C420 0.950 . S
H410 C422 0.950 . S
H411 C423 0.950 . S
C412 H404 0.950 . S
C412 C413 1.386 . S
C412 C414 1.391 . S
C413 C412 1.386 . S
C413 C417 1.393 . S
C414 H406 0.950 . S
C414 C412 1.391 . S
C414 C415 1.400 . S
C415 C414 1.400 . S
C415 C416 1.398 . S
C415 C421 1.491 . S
C416 H407 0.950 . S
C416 C415 1.398 . S
C416 C417 1.391 . S
C417 H405 0.950 . S
C417 C413 1.393 . S
C417 C416 1.391 . S
C418 H408 0.950 . S
C418 C419 1.386 . S
C418 C420 1.391 . S
C419 C418 1.386 . S
C419 C423 1.393 . S
C420 H409 0.950 . S
C420 C418 1.391 . S
C420 C421 1.400 . S
C421 C415 1.491 . S
C421 C420 1.400 . S
C421 C422 1.398 . S
C422 H410 0.950 . S
C422 C421 1.398 . S
C422 C423 1.391 . S
C423 H411 0.950 . S
C423 C419 1.393 . S
C423 C422 1.391 . S
H424 C432 0.950 . S
H425 C437 0.950 . S
H426 C434 0.950 . S
H427 C436 0.950 . S
H428 C438 0.950 . S
H429 C440 0.950 . S
H430 C442 0.950 . S
H431 C443 0.950 . S
C432 H424 0.950 . S
C432 C433 1.386 . S
C432 C434 1.391 . S
C433 C432 1.386 . S
C433 C437 1.393 . S
C434 H426 0.950 . S
C434 C432 1.391 . S
C434 C435 1.400 . S
C435 C434 1.400 . S
C435 C436 1.398 . S
C435 C441 1.491 . S
C436 H427 0.950 . S
C436 C435 1.398 . S
C436 C437 1.391 . S
C437 H425 0.950 . S
C437 C433 1.393 . S
C437 C436 1.391 . S
C438 H428 0.950 . S
C438 C439 1.386 . S
C438 C440 1.391 . S
C439 C438 1.386 . S
C439 C443 1.393 . S
C440 H429 0.950 . S
C440 C438 1.391 . S
C440 C441 1.400 . S
C441 C435 1.491 . S
C441 C440 1.400 . S
C441 C442 1.398 . S
C442 H430 0.950 . S
C442 C441 1.398 . S
C442 C443 1.391 . S
C443 H431 0.950 . S
C443 C439 1.393 . S
C443 C442 1.391 . S
H444 C452 0.950 . S
H445 C457 0.950 . S
H446 C454 0.950 . S
H447 C456 0.950 . S
H448 C458 0.950 . S
H449 C460 0.950 . S
H450 C462 0.950 . S
H451 C463 0.950 . S
C452 H444 0.950 . S
C452 C453 1.386 . S
C452 C454 1.391 . S
C453 C452 1.386 . S
C453 C457 1.393 . S
C454 H446 0.950 . S
C454 C452 1.391 . S
C454 C455 1.400 . S
C455 C454 1.400 . S
C455 C456 1.398 . S
C455 C461 1.491 . S
C456 H447 0.950 . S
C456 C455 1.398 . S
C456 C457 1.391 . S
C457 H445 0.950 . S
C457 C453 1.393 . S
C457 C456 1.391 . S
C458 H448 0.950 . S
C458 C459 1.386 . S
C458 C460 1.391 . S
C459 C458 1.386 . S
C459 C463 1.393 . S
C460 H449 0.950 . S
C460 C458 1.391 . S
C460 C461 1.400 . S
C461 C455 1.491 . S
C461 C460 1.400 . S
C461 C462 1.398 . S
C462 H450 0.950 . S
C462 C461 1.398 . S
C462 C463 1.391 . S
C463 H451 0.950 . S
C463 C459 1.393 . S
C463 C462 1.391 . S
H464 C472 0.950 . S
H465 C477 0.950 . S
H466 C474 0.950 . S
H467 C476 0.950 . S
H468 C478 0.950 . S
H469 C480 0.950 . S
H470 C482 0.950 . S
H471 C483 0.950 . S
C472 H464 0.950 . S
C472 C473 1.386 . S
C472 C474 1.391 . S
C473 C472 1.386 . S
C473 C477 1.393 . S
C474 H466 0.950 . S
C474 C472 1.391 . S
C474 C475 1.400 . S
C475 C474 1.400 . S
C475 C476 1.398 . S
C475 C481 1.491 . S
C476 H467 0.950 . S
C476 C475 1.398 . S
C476 C477 1.391 . S
C477 H465 0.950 . S
C477 C473 1.393 . S
C477 C476 1.391 . S
C478 H468 0.950 . S
C478 C479 1.386 . S
C478 C480 1.391 . S
C479 C478 1.386 . S
C479 C483 1.393 . S
C480 H469 0.950 . S
C480 C478 1.391 . S
C480 C481 1.400 . S
C481 C475 1.491 . S
C481 C480 1.400 . S
C481 C482 1.398 . S
C482 H470 0.950 . S
C482 C481 1.398 . S
C482 C483 1.391 . S
C483 H471 0.950 . S
C483 C479 1.393 . S
C483 C482 1.391 . S
H484 C492 0.950 . S
H485 C497 0.950 . S
H486 C494 0.950 . S
H487 C496 0.950 . S
H488 C498 0.950 . S
H489 C500 0.950 . S
H490 C502 0.950 . S
H491 C503 0.950 . S
C492 H484 0.950 . S
C492 C493 1.386 . S
C492 C494 1.391 . S
C493 C492 1.386 . S
C493 C497 1.393 . S
C494 H486 0.950 . S
C494 C492 1.391 . S
C494 C495 1.400 . S
C495 C494 1.400 . S
C495 C496 1.398 . S
C495 C501 1.491 . S
C496 H487 0.950 . S
C496 C495 1.398 . S
C496 C497 1.391 . S
C497 H485 0.950 . S
C497 C493 1.393 . S
C497 C496 1.391 . S
C498 H488 0.950 . S
C498 C499 1.386 . S
C498 C500 1.391 . S
C499 C498 1.386 . S
C499 C503 1.393 . S
C500 H489 0.950 . S
C500 C498 1.391 . S
C500 C501 1.400 . S
C501 C495 1.491 . S
C501 C500 1.400 . S
C501 C502 1.398 . S
C502 H490 0.950 . S
C502 C501 1.398 . S
C502 C503 1.391 . S
C503 H491 0.950 . S
C503 C499 1.393 . S
C503 C502 1.391 . S
H504 C512 0.950 . S
H505 C517 0.950 . S
H506 C514 0.950 . S
H507 C516 0.950 . S
H508 C518 0.950 . S
H509 C520 0.950 . S
H510 C522 0.950 . S
H511 C523 0.950 . S
C512 H504 0.950 . S
C512 C513 1.386 . S
C512 C514 1.391 . S
C513 C512 1.386 . S
C513 C517 1.393 . S
C514 H506 0.950 . S
C514 C512 1.391 . S
C514 C515 1.400 . S
C515 C514 1.400 . S
C515 C516 1.398 . S
C515 C521 1.491 . S
C516 H507 0.950 . S
C516 C515 1.398 . S
C516 C517 1.391 . S
C517 H505 0.950 . S
C517 C513 1.393 . S
C517 C516 1.391 . S
C518 H508 0.950 . S
C518 C519 1.386 . S
C518 C520 1.391 . S
C519 C518 1.386 . S
C519 C523 1.393 . S
C520 H509 0.950 . S
C520 C518 1.391 . S
C520 C521 1.400 . S
C521 C515 1.491 . S
C521 C520 1.400 . S
C521 C522 1.398 . S
C522 H510 0.950 . S
C522 C521 1.398 . S
C522 C523 1.391 . S
C523 H511 0.950 . S
C523 C519 1.393 . S
C523 C522 1.391 . S
H524 C532 0.950 . S
H525 C537 0.950 . S
H526 C534 0.950 . S
H527 C536 0.950 . S
H528 C538 0.950 . S
H529 C540 0.950 . S
H530 C542 0.950 . S
H531 C543 0.950 . S
C532 H524 0.950 . S
C532 C533 1.386 . S
C532 C534 1.391 . S
C533 C532 1.386 . S
C533 C537 1.393 . S
C534 H526 0.950 . S
C534 C532 1.391 . S
C534 C535 1.400 . S
C535 C534 1.400 . S
C535 C536 1.398 . S
C535 C541 1.491 . S
C536 H527 0.950 . S
C536 C535 1.398 . S
C536 C537 1.391 . S
C537 H525 0.950 . S
C537 C533 1.393 . S
C537 C536 1.391 . S
C538 H528 0.950 . S
C538 C539 1.386 . S
C538 C540 1.391 . S
C539 C538 1.386 . S
C539 C543 1.393 . S
C540 H529 0.950 . S
C540 C538 1.391 . S
C540 C541 1.400 . S
C541 C535 1.491 . S
C541 C540 1.400 . S
C541 C542 1.398 . S
C542 H530 0.950 . S
C542 C541 1.398 . S
C542 C543 1.391 . S
C543 H531 0.950 . S
C543 C539 1.393 . S
C543 C542 1.391 . S
H544 C552 0.950 . S
H545 C557 0.950 . S
H546 C554 0.950 . S
H547 C556 0.950 . S
H548 C558 0.950 . S
H549 C560 0.950 . S
H550 C562 0.950 . S
H551 C563 0.950 . S
C552 H544 0.950 . S
C552 C553 1.386 . S
C552 C554 1.391 . S
C553 C552 1.386 . S
C553 C557 1.393 . S
C554 H546 0.950 . S
C554 C552 1.391 . S
C554 C555 1.400 . S
C555 C554 1.400 . S
C555 C556 1.398 . S
C555 C561 1.491 . S
C556 H547 0.950 . S
C556 C555 1.398 . S
C556 C557 1.391 . S
C557 H545 0.950 . S
C557 C553 1.393 . S
C557 C556 1.391 . S
C558 H548 0.950 . S
C558 C559 1.386 . S
C558 C560 1.391 . S
C559 C558 1.386 . S
C559 C563 1.393 . S
C560 H549 0.950 . S
C560 C558 1.391 . S
C560 C561 1.400 . S
C561 C555 1.491 . S
C561 C560 1.400 . S
C561 C562 1.398 . S
C562 H550 0.950 . S
C562 C561 1.398 . S
C562 C563 1.391 . S
C563 H551 0.950 . S
C563 C559 1.393 . S
C563 C562 1.391 . S
H564 C572 0.950 . S
H565 C577 0.950 . S
H566 C574 0.950 . S
H567 C576 0.950 . S
H568 C578 0.950 . S
H569 C580 0.950 . S
H570 C582 0.950 . S
H571 C583 0.950 . S
C572 H564 0.950 . S
C572 C573 1.386 . S
C572 C574 1.391 . S
C573 C572 1.386 . S
C573 C577 1.393 . S
C574 H566 0.950 . S
C574 C572 1.391 . S
C574 C575 1.400 . S
C575 C574 1.400 . S
C575 C576 1.398 . S
C575 C581 1.491 . S
C576 H567 0.950 . S
C576 C575 1.398 . S
C576 C577 1.391 . S
C577 H565 0.950 . S
C577 C573 1.393 . S
C577 C576 1.391 . S
C578 H568 0.950 . S
C578 C579 1.386 . S
C578 C580 1.391 . S
C579 C578 1.386 . S
C579 C583 1.393 . S
C580 H569 0.950 . S
C580 C578 1.391 . S
C580 C581 1.400 . S
C581 C575 1.491 . S
C581 C580 1.400 . S
C581 C582 1.398 . S
C582 H570 0.950 . S
C582 C581 1.398 . S
C582 C583 1.391 . S
C583 H571 0.950 . S
C583 C579 1.393 . S
C583 C582 1.391 . S
H584 C592 0.950 . S
H585 C597 0.950 . S
H586 C594 0.950 . S
H587 C596 0.950 . S
H588 C598 0.950 . S
H589 C600 0.950 . S
H590 C602 0.950 . S
H591 C603 0.950 . S
C592 H584 0.950 . S
C592 C593 1.386 . S
C592 C594 1.391 . S
C593 C592 1.386 . S
C593 C597 1.393 . S
C594 H586 0.950 . S
C594 C592 1.391 . S
C594 C595 1.400 . S
C595 C594 1.400 . S
C595 C596 1.398 . S
C595 C601 1.491 . S
C596 H587 0.950 . S
C596 C595 1.398 . S
C596 C597 1.391 . S
C597 H585 0.950 . S
C597 C593 1.393 . S
C597 C596 1.391 . S
C598 H588 0.950 . S
C598 C599 1.386 . S
C598 C600 1.391 . S
C599 C598 1.386 . S
C599 C603 1.393 . S
C600 H589 0.950 . S
C600 C598 1.391 . S
C600 C601 1.400 . S
C601 C595 1.491 . S
C601 C600 1.400 . S
C601 C602 1.398 . S
C602 H590 0.950 . S
C602 C601 1.398 . S
C602 C603 1.391 . S
C603 H591 0.950 . S
C603 C599 1.393 . S
C603 C602 1.391 . S
H604 C612 0.950 . S
H605 C617 0.950 . S
H606 C614 0.950 . S
H607 C616 0.950 . S
H608 C618 0.950 . S
H609 C620 0.950 . S
H610 C622 0.950 . S
H611 C623 0.950 . S
C612 H604 0.950 . S
C612 C613 1.386 . S
C612 C614 1.391 . S
C613 C612 1.386 . S
C613 C617 1.393 . S
C614 H606 0.950 . S
C614 C612 1.391 . S
C614 C615 1.400 . S
C615 C614 1.400 . S
C615 C616 1.398 . S
C615 C621 1.491 . S
C616 H607 0.950 . S
C616 C615 1.398 . S
C616 C617 1.391 . S
C617 H605 0.950 . S
C617 C613 1.393 . S
C617 C616 1.391 . S
C618 H608 0.950 . S
C618 C619 1.386 . S
C618 C620 1.391 . S
C619 C618 1.386 . S
C619 C623 1.393 . S
C620 H609 0.950 . S
C620 C618 1.391 . S
C620 C621 1.400 . S
C621 C615 1.491 . S
C621 C620 1.400 . S
C621 C622 1.398 . S
C622 H610 0.950 . S
C622 C621 1.398 . S
C622 C623 1.391 . S
C623 H611 0.950 . S
C623 C619 1.393 . S
C623 C622 1.391 . S
H624 C632 0.950 . S
H625 C637 0.950 . S
H626 C634 0.950 . S
H627 C636 0.950 . S
H628 C638 0.950 . S
H629 C640 0.950 . S
H630 C642 0.950 . S
H631 C643 0.950 . S
C632 H624 0.950 . S
C632 C633 1.386 . S
C632 C634 1.391 . S
C633 C632 1.386 . S
C633 C637 1.393 . S
C634 H626 0.950 . S
C634 C632 1.391 . S
C634 C635 1.400 . S
C635 C634 1.400 . S
C635 C636 1.398 . S
C635 C641 1.491 . S
C636 H627 0.950 . S
C636 C635 1.398 . S
C636 C637 1.391 . S
C637 H625 0.950 . S
C637 C633 1.393 . S
C637 C636 1.391 . S
C638 H628 0.950 . S
C638 C639 1.386 . S
C638 C640 1.391 . S
C639 C638 1.386 . S
C639 C643 1.393 . S
C640 H629 0.950 . S
C640 C638 1.391 . S
C640 C641 1.400 . S
C641 C635 1.491 . S
C641 C640 1.400 . S
C641 C642 1.398 . S
C642 H630 0.950 . S
C642 C641 1.398 . S
C642 C643 1.391 . S
C643 H631 0.950 . S
C643 C639 1.393 . S
C643 C642 1.391 . S
H644 C652 0.950 . S
H645 C657 0.950 . S
H646 C654 0.950 . S
H647 C656 0.950 . S
H648 C658 0.950 . S
H649 C660 0.950 . S
H650 C662 0.950 . S
H651 C663 0.950 . S
C652 H644 0.950 . S
C652 C653 1.386 . S
C652 C654 1.391 . S
C653 C652 1.386 . S
C653 C657 1.393 . S
C654 H646 0.950 . S
C654 C652 1.391 . S
C654 C655 1.400 . S
C655 C654 1.400 . S
C655 C656 1.398 . S
C655 C661 1.491 . S
C656 H647 0.950 . S
C656 C655 1.398 . S
C656 C657 1.391 . S
C657 H645 0.950 . S
C657 C653 1.393 . S
C657 C656 1.391 . S
C658 H648 0.950 . S
C658 C659 1.386 . S
C658 C660 1.391 . S
C659 C658 1.386 . S
C659 C663 1.393 . S
C660 H649 0.950 . S
C660 C658 1.391 . S
C660 C661 1.400 . S
C661 C655 1.491 . S
C661 C660 1.400 . S
C661 C662 1.398 . S
C662 H650 0.950 . S
C662 C661 1.398 . S
C662 C663 1.391 . S
C663 H651 0.950 . S
C663 C659 1.393 . S
C663 C662 1.391 . S
H664 C672 0.950 . S
H665 C677 0.950 . S
H666 C674 0.950 . S
H667 C676 0.950 . S
H668 C678 0.950 . S
H669 C680 0.950 . S
H670 C682 0.950 . S
H671 C683 0.950 . S
C672 H664 0.950 . S
C672 C673 1.386 . S
C672 C674 1.391 . S
C673 C672 1.386 . S
C673 C677 1.393 . S
C674 H666 0.950 . S
C674 C672 1.391 . S
C674 C675 1.400 . S
C675 C674 1.400 . S
C675 C676 1.398 . S
C675 C681 1.491 . S
C676 H667 0.950 . S
C676 C675 1.398 . S
C676 C677 1.391 . S
C677 H665 0.950 . S
C677 C673 1.393 . S
C677 C676 1.391 . S
C678 H668 0.950 . S
C678 C679 1.386 . S
C678 C680 1.391 . S
C679 C678 1.386 . S
C679 C683 1.393 . S
C680 H669 0.950 . S
C680 C678 1.391 . S
C680 C681 1.400 . S
C681 C675 1.491 . S
C681 C680 1.400 . S
C681 C682 1.398 . S
C682 H670 0.950 . S
C682 C681 1.398 . S
C682 C683 1.391 . S
C683 H671 0.950 . S
C683 C679 1.393 . S
C683 C682 1.391 . S
H684 C692 0.950 . S
H685 C697 0.950 . S
H686 C694 0.950 . S
H687 C696 0.950 . S
H688 C698 0.950 . S
H689 C700 0.950 . S
H690 C702 0.950 . S
H691 C703 0.950 . S
C692 H684 0.950 . S
C692 C693 1.386 . S
C692 C694 1.391 . S
C693 C692 1.386 . S
C693 C697 1.393 . S
C694 H686 0.950 . S
C694 C692 1.391 . S
C694 C695 1.400 . S
C695 C694 1.400 . S
C695 C696 1.398 . S
C695 C701 1.491 . S
C696 H687 0.950 . S
C696 C695 1.398 . S
C696 C697 1.391 . S
C697 H685 0.950 . S
C697 C693 1.393 . S
C697 C696 1.391 . S
C698 H688 0.950 . S
C698 C699 1.386 . S
C698 C700 1.391 . S
C699 C698 1.386 . S
C699 C703 1.393 . S
C700 H689 0.950 . S
C700 C698 1.391 . S
C700 C701 1.400 . S
C701 C695 1.491 . S
C701 C700 1.400 . S
C701 C702 1.398 . S
C702 H690 0.950 . S
C702 C701 1.398 . S
C702 C703 1.391 . S
C703 H691 0.950 . S
C703 C699 1.393 . S
C703 C702 1.391 . S
H704 C712 0.950 . S
H705 C717 0.950 . S
H706 C714 0.950 . S
H707 C716 0.950 . S
H708 C718 0.950 . S
H709 C720 0.950 . S
H710 C722 0.950 . S
H711 C723 0.950 . S
C712 H704 0.950 . S
C712 C713 1.386 1_655 S
C712 C714 1.391 . S
C713 C712 1.386 1_455 S
C713 C717 1.393 . S
C714 H706 0.950 . S
C714 C712 1.391 . S
C714 C715 1.384 1_655 S
C715 C714 1.384 1_455 S
C715 C716 1.415 . S
C715 C721 1.489 1_455 S
C716 H707 0.950 . S
C716 C715 1.415 . S
C716 C717 1.391 . S
C717 H705 0.950 . S
C717 C713 1.393 . S
C717 C716 1.391 . S
C718 H708 0.950 . S
C718 C719 1.386 1_455 S
C718 C720 1.391 . S
C719 C718 1.386 1_655 S
C719 C723 1.393 . S
C720 H709 0.950 . S
C720 C718 1.391 . S
C720 C721 1.384 1_455 S
C721 C715 1.489 1_655 S
C721 C720 1.384 1_655 S
C721 C722 1.415 . S
C722 H710 0.950 . S
C722 C721 1.415 . S
C722 C723 1.391 . S
C723 H711 0.950 . S
C723 C719 1.393 . S
C723 C722 1.391 . S
H724 C732 0.950 . S
H725 C737 0.950 . S
H726 C734 0.950 . S
H727 C736 0.950 . S
H728 C738 0.950 . S
H729 C740 0.950 . S
H730 C742 0.950 . S
H731 C743 0.950 . S
C732 H724 0.950 . S
C732 C733 1.386 . S
C732 C734 1.391 . S
C733 C732 1.386 . S
C733 C737 1.393 1_565 S
C734 H726 0.950 . S
C734 C732 1.391 . S
C734 C735 1.404 . S
C735 C734 1.404 . S
C735 C736 1.395 1_565 S
C735 C741 1.490 1_565 S
C736 H727 0.950 . S
C736 C735 1.395 1_545 S
C736 C737 1.391 . S
C737 H725 0.950 . S
C737 C733 1.393 1_545 S
C737 C736 1.391 . S
C738 H728 0.950 . S
C738 C739 1.386 . S
C738 C740 1.391 . S
C739 C738 1.386 . S
C739 C743 1.393 1_545 S
C740 H729 0.950 . S
C740 C738 1.391 . S
C740 C741 1.404 . S
C741 C735 1.490 1_545 S
C741 C740 1.404 . S
C741 C742 1.395 1_545 S
C742 H730 0.950 . S
C742 C741 1.395 1_565 S
C742 C743 1.391 . S
C743 H731 0.950 . S
C743 C739 1.393 1_565 S
C743 C742 1.391 . S
H744 C752 0.950 . S
H745 C757 0.950 . S
H746 C754 0.950 . S
H747 C756 0.950 . S
H748 C758 0.950 . S
H749 C760 0.950 . S
H750 C762 0.950 . S
H751 C763 0.950 . S
C752 H744 0.950 . S
C752 C753 1.386 1_655 S
C752 C754 1.391 . S
C753 C752 1.386 1_455 S
C753 C757 1.393 . S
C754 H746 0.950 . S
C754 C752 1.391 . S
C754 C755 1.377 1_655 S
C755 C754 1.377 1_455 S
C755 C756 1.423 . S
C755 C761 1.489 1_455 S
C756 H747 0.950 . S
C756 C755 1.423 . S
C756 C757 1.391 . S
C757 H745 0.950 . S
C757 C753 1.393 . S
C757 C756 1.391 . S
C758 H748 0.950 . S
C758 C759 1.386 1_455 S
C758 C760 1.391 . S
C759 C758 1.386 1_655 S
C759 C763 1.393 . S
C760 H749 0.950 . S
C760 C758 1.391 . S
C760 C761 1.377 1_455 S
C761 C755 1.489 1_655 S
C761 C760 1.377 1_655 S
C761 C762 1.423 . S
C762 H750 0.950 . S
C762 C761 1.423 . S
C762 C763 1.391 . S
C763 H751 0.950 . S
C763 C759 1.393 . S
C763 C762 1.391 . S
H764 C772 0.950 . S
H765 C777 0.950 . S
H766 C774 0.950 . S
H767 C776 0.950 . S
H768 C778 0.950 . S
H769 C780 0.950 . S
H770 C782 0.950 . S
H771 C783 0.950 . S
C772 H764 0.950 . S
C772 C773 1.386 1_565 S
C772 C774 1.391 . S
C773 C772 1.386 1_545 S
C773 C777 1.393 . S
C774 H766 0.950 . S
C774 C772 1.391 . S
C774 C775 1.400 1_565 S
C775 C774 1.400 1_545 S
C775 C776 1.398 . S
C775 C781 1.491 1_545 S
C776 H767 0.950 . S
C776 C775 1.398 . S
C776 C777 1.391 . S
C777 H765 0.950 . S
C777 C773 1.393 . S
C777 C776 1.391 . S
C778 H768 0.950 . S
C778 C779 1.386 1_545 S
C778 C780 1.391 . S
C779 C778 1.386 1_565 S
C779 C783 1.393 . S
C780 H769 0.950 . S
C780 C778 1.391 . S
C780 C781 1.400 1_545 S
C781 C775 1.491 1_565 S
C781 C780 1.400 1_565 S
C781 C782 1.398 . S
C782 H770 0.950 . S
C782 C781 1.398 . S
C782 C783 1.391 . S
C783 H771 0.950 . S
C783 C779 1.393 . S
C783 C782 1.391 . S
H784 C792 0.950 . S
H785 C797 0.950 . S
H786 C794 0.950 . S
H787 C796 0.950 . S
H788 C798 0.950 . S
H789 C800 0.950 . S
H790 C802 0.950 . S
H791 C803 0.950 . S
C792 H784 0.950 . S
C792 C793 1.386 . S
C792 C794 1.391 . S
C793 C792 1.386 . S
C793 C797 1.393 . S
C794 H786 0.950 . S
C794 C792 1.391 . S
C794 C795 1.400 . S
C795 C794 1.400 . S
C795 C796 1.398 . S
C795 C801 1.491 1_556 S
C796 H787 0.950 . S
C796 C795 1.398 . S
C796 C797 1.391 . S
C797 H785 0.950 . S
C797 C793 1.393 . S
C797 C796 1.391 . S
C798 H788 0.950 . S
C798 C799 1.386 . S
C798 C800 1.391 . S
C799 C798 1.386 . S
C799 C803 1.393 . S
C800 H789 0.950 . S
C800 C798 1.391 . S
C800 C801 1.400 . S
C801 C795 1.491 1_554 S
C801 C800 1.400 . S
C801 C802 1.398 . S
C802 H790 0.950 . S
C802 C801 1.398 . S
C802 C803 1.391 . S
C803 H791 0.950 . S
C803 C799 1.393 . S
C803 C802 1.391 . S
H804 C812 0.950 . S
H805 C817 0.950 . S
H806 C814 0.950 . S
H807 C816 0.950 . S
H808 C818 0.950 . S
H809 C820 0.950 . S
H810 C822 0.950 . S
H811 C823 0.950 . S
C812 H804 0.950 . S
C812 C813 1.386 . S
C812 C814 1.391 . S
C813 C812 1.386 . S
C813 C817 1.393 . S
C814 H806 0.950 . S
C814 C812 1.391 . S
C814 C815 1.400 . S
C815 C814 1.400 . S
C815 C816 1.398 . S
C815 C821 1.491 1_556 S
C816 H807 0.950 . S
C816 C815 1.398 . S
C816 C817 1.391 . S
C817 H805 0.950 . S
C817 C813 1.393 . S
C817 C816 1.391 . S
C818 H808 0.950 . S
C818 C819 1.386 . S
C818 C820 1.391 . S
C819 C818 1.386 . S
C819 C823 1.393 . S
C820 H809 0.950 . S
C820 C818 1.391 . S
C820 C821 1.400 . S
C821 C815 1.491 1_554 S
C821 C820 1.400 . S
C821 C822 1.398 . S
C822 H810 0.950 . S
C822 C821 1.398 . S
C822 C823 1.391 . S
C823 H811 0.950 . S
C823 C819 1.393 . S
C823 C822 1.391 . S
H824 C832 0.950 . S
H825 C837 0.950 . S
H826 C834 0.950 . S
H827 C836 0.950 . S
H828 C838 0.950 . S
H829 C840 0.950 . S
H830 C842 0.950 . S
H831 C843 0.950 . S
C832 H824 0.950 . S
C832 C833 1.386 . S
C832 C834 1.391 . S
C833 C832 1.386 . S
C833 C837 1.393 . S
C834 H826 0.950 . S
C834 C832 1.391 . S
C834 C835 1.400 . S
C835 C834 1.400 . S
C835 C836 1.398 . S
C835 C841 1.491 1_554 S
C836 H827 0.950 . S
C836 C835 1.398 . S
C836 C837 1.391 . S
C837 H825 0.950 . S
C837 C833 1.393 . S
C837 C836 1.391 . S
C838 H828 0.950 . S
C838 C839 1.386 . S
C838 C840 1.391 . S
C839 C838 1.386 . S
C839 C843 1.393 . S
C840 H829 0.950 . S
C840 C838 1.391 . S
C840 C841 1.400 . S
C841 C835 1.491 1_556 S
C841 C840 1.400 . S
C841 C842 1.398 . S
C842 H830 0.950 . S
C842 C841 1.398 . S
C842 C843 1.391 . S
C843 H831 0.950 . S
C843 C839 1.393 . S
C843 C842 1.391 . S
H844 C852 0.950 . S
H845 C857 0.950 . S
H846 C854 0.950 . S
H847 C856 0.950 . S
H848 C858 0.950 . S
H849 C860 0.950 . S
H850 C862 0.950 . S
H851 C863 0.950 . S
C852 H844 0.950 . S
C852 C853 1.386 . S
C852 C854 1.391 . S
C853 C852 1.386 . S
C853 C857 1.393 . S
C854 H846 0.950 . S
C854 C852 1.391 . S
C854 C855 1.400 . S
C855 C854 1.400 . S
C855 C856 1.398 . S
C855 C861 1.491 1_556 S
C856 H847 0.950 . S
C856 C855 1.398 . S
C856 C857 1.391 . S
C857 H845 0.950 . S
C857 C853 1.393 . S
C857 C856 1.391 . S
C858 H848 0.950 . S
C858 C859 1.386 . S
C858 C860 1.391 . S
C859 C858 1.386 . S
C859 C863 1.393 . S
C860 H849 0.950 . S
C860 C858 1.391 . S
C860 C861 1.400 . S
C861 C855 1.491 1_554 S
C861 C860 1.400 . S
C861 C862 1.398 . S
C862 H850 0.950 . S
C862 C861 1.398 . S
C862 C863 1.391 . S
C863 H851 0.950 . S
C863 C859 1.393 . S
C863 C862 1.391 . S
C233 C8 1.560 . S
C239 C51 1.510 . S
C253 C9 1.507 . S
C259 C22 1.560 . S
C273 C23 1.507 . S
C279 C36 1.554 . S
C293 C37 1.504 . S
C299 C50 1.553 . S
C313 C64 1.556 . S
C319 C79 1.490 . S
C333 C78 1.558 . S
C339 C93 1.488 . S
C353 C92 1.554 . S
C359 C107 1.509 . S
C373 C106 1.554 . S
C379 C65 1.508 . S
C393 C120 1.557 . S
C399 C163 1.489 . S
C413 C121 1.508 . S
C419 C134 1.560 . S
C433 C135 1.508 . S
C439 C148 1.554 . S
C453 C162 1.559 . S
C459 C149 1.512 . S
C473 C191 1.508 . S
C479 C176 1.554 . S
C493 C205 1.493 . S
C499 C190 1.561 . S
C513 C204 1.553 . S
C519 C219 1.503 . S
C533 C218 1.556 . S
C539 C177 1.514 . S
C553 C6 1.261 . S
C559 C216 1.264 . S
C573 C20 1.263 . S
C579 C174 1.266 . S
C593 C188 1.262 . S
C599 C34 1.260 . S
C613 C48 1.260 . S
C619 C202 1.261 . S
C633 C132 1.260 . S
C639 C62 1.260 . S
C653 C146 1.264 . S
C659 C76 1.267 . S
C673 C90 1.262 . S
C679 C160 1.260 . S
C693 C104 1.266 . S
C699 C118 1.268 . S
C713 C7 1.603 . S
C719 C91 1.626 . S
C733 C105 1.621 . S
C739 C21 1.615 . S
C753 C63 1.599 . S
C759 C35 1.626 . S
C773 C77 1.596 . S
C779 C49 1.616 . S
C793 C119 1.598 . S
C799 C203 1.612 . S
C813 C133 1.621 . S
C819 C217 1.614 . S
C833 C175 1.600 . S
C839 C147 1.626 . S
C853 C161 1.598 . S
C859 C189 1.625 . S
