# Generated by pormake.
# Topology wio, (6)-cn, num edge types: 1
# Building blocks:
#     Node 0, Type 0, BuildingBlock: MIFKUJ_clean_sbu_0, # of connection points: 6
#     Node 1, Type 0, BuildingBlock: MIFKUJ_clean_sbu_0, # of connection points: 6
#     Node 2, Type 0, BuildingBlock: MIFKUJ_clean_sbu_0, # of connection points: 6
#     Node 3, Type 0, BuildingBlock: MIFKUJ_clean_sbu_0, # of connection points: 6
#     Node 4, Type 0, BuildingBlock: MIFKUJ_clean_sbu_0, # of connection points: 6
#     Node 5, Type 0, BuildingBlock: MIFKUJ_clean_sbu_0, # of connection points: 6
#     Node 6, Type 0, BuildingBlock: MIFKUJ_clean_sbu_0, # of connection points: 6
#     Node 7, Type 0, BuildingBlock: MIFKUJ_clean_sbu_0, # of connection points: 6
#     Node 8, Type 0, BuildingBlock: MIFKUJ_clean_sbu_0, # of connection points: 6
#     Node 9, Type 0, BuildingBlock: MIFKUJ_clean_sbu_0, # of connection points: 6
#     Node 10, Type 0, BuildingBlock: MIFKUJ_clean_sbu_0, # of connection points: 6
#     Node 11, Type 0, BuildingBlock: MIFKUJ_clean_sbu_0, # of connection points: 6
#     Node 12, Type 0, BuildingBlock: MIFKUJ_clean_sbu_0, # of connection points: 6
#     Node 13, Type 0, BuildingBlock: MIFKUJ_clean_sbu_0, # of connection points: 6
#     Node 14, Type 0, BuildingBlock: MIFKUJ_clean_sbu_0, # of connection points: 6
#     Node 15, Type 0, BuildingBlock: MIFKUJ_clean_sbu_0, # of connection points: 6
#     Node 16, Type 0, BuildingBlock: MIFKUJ_clean_sbu_0, # of connection points: 6
#     Node 17, Type 0, BuildingBlock: MIFKUJ_clean_sbu_0, # of connection points: 6
#     Node 18, Type 0, BuildingBlock: MIFKUJ_clean_sbu_0, # of connection points: 6
#     Node 19, Type 0, BuildingBlock: MIFKUJ_clean_sbu_0, # of connection points: 6
#     Node 20, Type 0, BuildingBlock: MIFKUJ_clean_sbu_0, # of connection points: 6
#     Node 21, Type 0, BuildingBlock: MIFKUJ_clean_sbu_0, # of connection points: 6
#     Node 22, Type 0, BuildingBlock: MIFKUJ_clean_sbu_0, # of connection points: 6
#     Node 23, Type 0, BuildingBlock: MIFKUJ_clean_sbu_0, # of connection points: 6
#     Node 24, Type 0, BuildingBlock: MIFKUJ_clean_sbu_0, # of connection points: 6
#     Node 25, Type 0, BuildingBlock: MIFKUJ_clean_sbu_0, # of connection points: 6
#     Node 26, Type 0, BuildingBlock: MIFKUJ_clean_sbu_0, # of connection points: 6
#     Node 27, Type 0, BuildingBlock: MIFKUJ_clean_sbu_0, # of connection points: 6
#     Node 28, Type 0, BuildingBlock: MIFKUJ_clean_sbu_0, # of connection points: 6
#     Node 29, Type 0, BuildingBlock: MIFKUJ_clean_sbu_0, # of connection points: 6
#     Node 30, Type 0, BuildingBlock: MIFKUJ_clean_sbu_0, # of connection points: 6
#     Node 31, Type 0, BuildingBlock: MIFKUJ_clean_sbu_0, # of connection points: 6
#     Edge 32, Type (0, 0), BuildingBlock: MIFKUJ_clean_linker_0, # of connection points: 2
#     Edge 33, Type (0, 0), BuildingBlock: MIFKUJ_clean_linker_0, # of connection points: 2
#     Edge 34, Type (0, 0), BuildingBlock: MIFKUJ_clean_linker_0, # of connection points: 2
#     Edge 35, Type (0, 0), BuildingBlock: MIFKUJ_clean_linker_0, # of connection points: 2
#     Edge 36, Type (0, 0), BuildingBlock: MIFKUJ_clean_linker_0, # of connection points: 2
#     Edge 37, Type (0, 0), BuildingBlock: MIFKUJ_clean_linker_0, # of connection points: 2
#     Edge 38, Type (0, 0), BuildingBlock: MIFKUJ_clean_linker_0, # of connection points: 2
#     Edge 39, Type (0, 0), BuildingBlock: MIFKUJ_clean_linker_0, # of connection points: 2
#     Edge 40, Type (0, 0), BuildingBlock: MIFKUJ_clean_linker_0, # of connection points: 2
#     Edge 41, Type (0, 0), BuildingBlock: MIFKUJ_clean_linker_0, # of connection points: 2
#     Edge 42, Type (0, 0), BuildingBlock: MIFKUJ_clean_linker_0, # of connection points: 2
#     Edge 43, Type (0, 0), BuildingBlock: MIFKUJ_clean_linker_0, # of connection points: 2
#     Edge 44, Type (0, 0), BuildingBlock: MIFKUJ_clean_linker_0, # of connection points: 2
#     Edge 45, Type (0, 0), BuildingBlock: MIFKUJ_clean_linker_0, # of connection points: 2
#     Edge 46, Type (0, 0), BuildingBlock: MIFKUJ_clean_linker_0, # of connection points: 2
#     Edge 47, Type (0, 0), BuildingBlock: MIFKUJ_clean_linker_0, # of connection points: 2
#     Edge 48, Type (0, 0), BuildingBlock: MIFKUJ_clean_linker_0, # of connection points: 2
#     Edge 49, Type (0, 0), BuildingBlock: MIFKUJ_clean_linker_0, # of connection points: 2
#     Edge 50, Type (0, 0), BuildingBlock: MIFKUJ_clean_linker_0, # of connection points: 2
#     Edge 51, Type (0, 0), BuildingBlock: MIFKUJ_clean_linker_0, # of connection points: 2
#     Edge 52, Type (0, 0), BuildingBlock: MIFKUJ_clean_linker_0, # of connection points: 2
#     Edge 53, Type (0, 0), BuildingBlock: MIFKUJ_clean_linker_0, # of connection points: 2
#     Edge 54, Type (0, 0), BuildingBlock: MIFKUJ_clean_linker_0, # of connection points: 2
#     Edge 55, Type (0, 0), BuildingBlock: MIFKUJ_clean_linker_0, # of connection points: 2
#     Edge 56, Type (0, 0), BuildingBlock: MIFKUJ_clean_linker_0, # of connection points: 2
#     Edge 57, Type (0, 0), BuildingBlock: MIFKUJ_clean_linker_0, # of connection points: 2
#     Edge 58, Type (0, 0), BuildingBlock: MIFKUJ_clean_linker_0, # of connection points: 2
#     Edge 59, Type (0, 0), BuildingBlock: MIFKUJ_clean_linker_0, # of connection points: 2
#     Edge 60, Type (0, 0), BuildingBlock: MIFKUJ_clean_linker_0, # of connection points: 2
#     Edge 61, Type (0, 0), BuildingBlock: MIFKUJ_clean_linker_0, # of connection points: 2
#     Edge 62, Type (0, 0), BuildingBlock: MIFKUJ_clean_linker_0, # of connection points: 2
#     Edge 63, Type (0, 0), BuildingBlock: MIFKUJ_clean_linker_0, # of connection points: 2
#     Edge 64, Type (0, 0), BuildingBlock: MIFKUJ_clean_linker_0, # of connection points: 2
#     Edge 65, Type (0, 0), BuildingBlock: MIFKUJ_clean_linker_0, # of connection points: 2
#     Edge 66, Type (0, 0), BuildingBlock: MIFKUJ_clean_linker_0, # of connection points: 2
#     Edge 67, Type (0, 0), BuildingBlock: MIFKUJ_clean_linker_0, # of connection points: 2
#     Edge 68, Type (0, 0), BuildingBlock: MIFKUJ_clean_linker_0, # of connection points: 2
#     Edge 69, Type (0, 0), BuildingBlock: MIFKUJ_clean_linker_0, # of connection points: 2
#     Edge 70, Type (0, 0), BuildingBlock: MIFKUJ_clean_linker_0, # of connection points: 2
#     Edge 71, Type (0, 0), BuildingBlock: MIFKUJ_clean_linker_0, # of connection points: 2
#     Edge 72, Type (0, 0), BuildingBlock: MIFKUJ_clean_linker_0, # of connection points: 2
#     Edge 73, Type (0, 0), BuildingBlock: MIFKUJ_clean_linker_0, # of connection points: 2
#     Edge 74, Type (0, 0), BuildingBlock: MIFKUJ_clean_linker_0, # of connection points: 2
#     Edge 75, Type (0, 0), BuildingBlock: MIFKUJ_clean_linker_0, # of connection points: 2
#     Edge 76, Type (0, 0), BuildingBlock: MIFKUJ_clean_linker_0, # of connection points: 2
#     Edge 77, Type (0, 0), BuildingBlock: MIFKUJ_clean_linker_0, # of connection points: 2
#     Edge 78, Type (0, 0), BuildingBlock: MIFKUJ_clean_linker_0, # of connection points: 2
#     Edge 79, Type (0, 0), BuildingBlock: MIFKUJ_clean_linker_0, # of connection points: 2
#     Edge 80, Type (0, 0), BuildingBlock: MIFKUJ_clean_linker_0, # of connection points: 2
#     Edge 81, Type (0, 0), BuildingBlock: MIFKUJ_clean_linker_0, # of connection points: 2
#     Edge 82, Type (0, 0), BuildingBlock: MIFKUJ_clean_linker_0, # of connection points: 2
#     Edge 83, Type (0, 0), BuildingBlock: MIFKUJ_clean_linker_0, # of connection points: 2
#     Edge 84, Type (0, 0), BuildingBlock: MIFKUJ_clean_linker_0, # of connection points: 2
#     Edge 85, Type (0, 0), BuildingBlock: MIFKUJ_clean_linker_0, # of connection points: 2
#     Edge 86, Type (0, 0), BuildingBlock: MIFKUJ_clean_linker_0, # of connection points: 2
#     Edge 87, Type (0, 0), BuildingBlock: MIFKUJ_clean_linker_0, # of connection points: 2
#     Edge 88, Type (0, 0), BuildingBlock: MIFKUJ_clean_linker_0, # of connection points: 2
#     Edge 89, Type (0, 0), BuildingBlock: MIFKUJ_clean_linker_0, # of connection points: 2
#     Edge 90, Type (0, 0), BuildingBlock: MIFKUJ_clean_linker_0, # of connection points: 2
#     Edge 91, Type (0, 0), BuildingBlock: MIFKUJ_clean_linker_0, # of connection points: 2
#     Edge 92, Type (0, 0), BuildingBlock: MIFKUJ_clean_linker_0, # of connection points: 2
#     Edge 93, Type (0, 0), BuildingBlock: MIFKUJ_clean_linker_0, # of connection points: 2
#     Edge 94, Type (0, 0), BuildingBlock: MIFKUJ_clean_linker_0, # of connection points: 2
#     Edge 95, Type (0, 0), BuildingBlock: MIFKUJ_clean_linker_0, # of connection points: 2
#     Edge 96, Type (0, 0), BuildingBlock: MIFKUJ_clean_linker_0, # of connection points: 2
#     Edge 97, Type (0, 0), BuildingBlock: MIFKUJ_clean_linker_0, # of connection points: 2
#     Edge 98, Type (0, 0), BuildingBlock: MIFKUJ_clean_linker_0, # of connection points: 2
#     Edge 99, Type (0, 0), BuildingBlock: MIFKUJ_clean_linker_0, # of connection points: 2
#     Edge 100, Type (0, 0), BuildingBlock: MIFKUJ_clean_linker_0, # of connection points: 2
#     Edge 101, Type (0, 0), BuildingBlock: MIFKUJ_clean_linker_0, # of connection points: 2
#     Edge 102, Type (0, 0), BuildingBlock: MIFKUJ_clean_linker_0, # of connection points: 2
#     Edge 103, Type (0, 0), BuildingBlock: MIFKUJ_clean_linker_0, # of connection points: 2
#     Edge 104, Type (0, 0), BuildingBlock: MIFKUJ_clean_linker_0, # of connection points: 2
#     Edge 105, Type (0, 0), BuildingBlock: MIFKUJ_clean_linker_0, # of connection points: 2
#     Edge 106, Type (0, 0), BuildingBlock: MIFKUJ_clean_linker_0, # of connection points: 2
#     Edge 107, Type (0, 0), BuildingBlock: MIFKUJ_clean_linker_0, # of connection points: 2
#     Edge 108, Type (0, 0), BuildingBlock: MIFKUJ_clean_linker_0, # of connection points: 2
#     Edge 109, Type (0, 0), BuildingBlock: MIFKUJ_clean_linker_0, # of connection points: 2
#     Edge 110, Type (0, 0), BuildingBlock: MIFKUJ_clean_linker_0, # of connection points: 2
#     Edge 111, Type (0, 0), BuildingBlock: MIFKUJ_clean_linker_0, # of connection points: 2
#     Edge 112, Type (0, 0), BuildingBlock: MIFKUJ_clean_linker_0, # of connection points: 2
#     Edge 113, Type (0, 0), BuildingBlock: MIFKUJ_clean_linker_0, # of connection points: 2
#     Edge 114, Type (0, 0), BuildingBlock: MIFKUJ_clean_linker_0, # of connection points: 2
#     Edge 115, Type (0, 0), BuildingBlock: MIFKUJ_clean_linker_0, # of connection points: 2
#     Edge 116, Type (0, 0), BuildingBlock: MIFKUJ_clean_linker_0, # of connection points: 2
#     Edge 117, Type (0, 0), BuildingBlock: MIFKUJ_clean_linker_0, # of connection points: 2
#     Edge 118, Type (0, 0), BuildingBlock: MIFKUJ_clean_linker_0, # of connection points: 2
#     Edge 119, Type (0, 0), BuildingBlock: MIFKUJ_clean_linker_0, # of connection points: 2
#     Edge 120, Type (0, 0), BuildingBlock: MIFKUJ_clean_linker_0, # of connection points: 2
#     Edge 121, Type (0, 0), BuildingBlock: MIFKUJ_clean_linker_0, # of connection points: 2
#     Edge 122, Type (0, 0), BuildingBlock: MIFKUJ_clean_linker_0, # of connection points: 2
#     Edge 123, Type (0, 0), BuildingBlock: MIFKUJ_clean_linker_0, # of connection points: 2
#     Edge 124, Type (0, 0), BuildingBlock: MIFKUJ_clean_linker_0, # of connection points: 2
#     Edge 125, Type (0, 0), BuildingBlock: MIFKUJ_clean_linker_0, # of connection points: 2
#     Edge 126, Type (0, 0), BuildingBlock: MIFKUJ_clean_linker_0, # of connection points: 2
#     Edge 127, Type (0, 0), BuildingBlock: MIFKUJ_clean_linker_0, # of connection points: 2
# Relax obj value: 0.185
# Max RMSD: 0.207
# Mean RMSD: 0.207
data_MOF--net-wio--node1-MIFKUJ_clean_sbu_0--edge1-MIFKUJ_clean_linker_0
_symmetry_space_group_name_H-M    P1
_symmetry_Int_Tables_number       1
_symmetry_cell_setting            triclinic
loop_
_symmetry_equiv_pos_as_xyz
'x, y, z'
_cell_length_a     67.755217
_cell_length_b     67.807232
_cell_length_c     62.701786
_cell_angle_alpha  90.014177
_cell_angle_beta   90.021337
_cell_angle_gamma 90.027044
loop_
_atom_site_label
_atom_site_type_symbol
_atom_site_fract_x
_atom_site_fract_y
_atom_site_fract_z
_atom_type_partial_charge
Zn0 Zn 0.117 0.11788 0.31579 0.0
Zn1 Zn 0.16137 0.12729 0.27746 0.0
C2 C 0.12091 0.08268 0.34068 0.0
O3 O 0.11263 0.075 0.32366 0.0
C4 C 0.151 0.14635 0.23857 0.0
O5 O 0.16833 0.1545 0.24193 0.0
O6 O 0.09024 0.1293 0.32071 0.0
O7 O 0.13869 0.13557 0.30934 0.0
O8 O 0.16444 0.15071 0.29797 0.0
C9 C 0.08615 0.13381 0.33985 0.0
O10 O 0.10046 0.13415 0.354 0.0
O11 O 0.12426 0.10111 0.3413 0.0
C12 C 0.18549 0.1078 0.24844 0.0
O13 O 0.16787 0.10149 0.24296 0.0
O14 O 0.1872 0.11939 0.26429 0.0
O15 O 0.14952 0.10231 0.2907 0.0
O16 O 0.11705 0.10079 0.29024 0.0
O17 O 0.14393 0.13496 0.25272 0.0
C18 C 0.15003 0.15016 0.31079 0.0
C19 C 0.13364 0.09496 0.28318 0.0
Zn20 Zn 0.12451 0.86677 0.5747 0.0
Zn21 Zn 0.12274 0.90315 0.5216 0.0
C22 C 0.15465 0.86667 0.60477 0.0
O23 O 0.159 0.85128 0.59295 0.0
C24 C 0.10853 0.89606 0.48018 0.0
O25 O 0.10123 0.91368 0.48391 0.0
O26 O 0.1098 0.84193 0.57988 0.0
O27 O 0.11128 0.88682 0.55823 0.0
O28 O 0.09646 0.90715 0.53776 0.0
C29 C 0.10505 0.83613 0.59839 0.0
O30 O 0.10569 0.84862 0.61439 0.0
O31 O 0.1391 0.87643 0.60066 0.0
C32 C 0.14288 0.93153 0.49548 0.0
O33 O 0.14984 0.91531 0.48694 0.0
O34 O 0.13168 0.93021 0.51169 0.0
O35 O 0.14504 0.88937 0.53895 0.0
O36 O 0.14438 0.85958 0.55313 0.0
O37 O 0.11782 0.88727 0.49497 0.0
C38 C 0.09618 0.89692 0.55461 0.0
C39 C 0.1504 0.87124 0.53862 0.0
Zn40 Zn 0.37817 0.87466 0.82214 0.0
Zn41 Zn 0.34225 0.87161 0.77014 0.0
C42 C 0.37823 0.90152 0.85623 0.0
O43 O 0.39715 0.90096 0.85173 0.0
C44 C 0.35763 0.85297 0.7315 0.0
O45 O 0.34658 0.83795 0.7372 0.0
O46 O 0.40292 0.8609 0.8303 0.0
O47 O 0.35898 0.86003 0.80563 0.0
O48 O 0.33832 0.84489 0.78574 0.0
C49 C 0.40684 0.85659 0.8495 0.0
O50 O 0.39284 0.85798 0.8639 0.0
O51 O 0.36631 0.89065 0.84591 0.0
C52 C 0.31499 0.89153 0.74351 0.0
O53 O 0.33161 0.89647 0.73422 0.0
O54 O 0.31552 0.88106 0.7603 0.0
O55 O 0.35552 0.89395 0.78785 0.0
O56 O 0.38582 0.89399 0.80065 0.0
O57 O 0.35872 0.86792 0.74365 0.0
C58 C 0.34936 0.84461 0.80197 0.0
C59 C 0.37343 0.89995 0.78687 0.0
Zn60 Zn 0.36903 0.12887 0.06742 0.0
Zn61 Zn 0.37849 0.08745 0.02365 0.0
C62 C 0.33598 0.12526 0.09377 0.0
O63 O 0.33016 0.13868 0.08003 0.0
C64 C 0.39494 0.10951 0.98641 0.0
O65 O 0.41265 0.10655 0.99432 0.0
O66 O 0.37854 0.15603 0.07414 0.0
O67 O 0.38875 0.10998 0.05732 0.0
O68 O 0.40458 0.08727 0.04052 0.0
C69 C 0.38152 0.16015 0.09363 0.0
O70 O 0.381 0.14587 0.10779 0.0
O71 O 0.35332 0.11825 0.0922 0.0
C72 C 0.35704 0.06001 0.00035 0.0
O73 O 0.34727 0.07638 0.99664 0.0
O74 O 0.37159 0.06042 0.01318 0.0
O75 O 0.35498 0.0979 0.04062 0.0
O76 O 0.35045 0.12982 0.04321 0.0
O77 O 0.37992 0.10364 0.99671 0.0
C78 C 0.40429 0.1 0.05533 0.0
C79 C 0.34641 0.11353 0.03424 0.0
Zn80 Zn 0.11881 0.87637 0.17322 0.0
Zn81 Zn 0.1565 0.87049 0.22392 0.0
C82 C 0.11972 0.90809 0.14567 0.0
O83 O 0.10335 0.91077 0.15651 0.0
C84 C 0.13958 0.85106 0.26188 0.0
O85 O 0.14743 0.8346 0.2548 0.0
O86 O 0.09341 0.86382 0.16521 0.0
O87 O 0.13816 0.86055 0.18822 0.0
O88 O 0.15883 0.8443 0.20711 0.0
C89 C 0.08867 0.86237 0.14573 0.0
O90 O 0.10199 0.86605 0.13105 0.0
O91 O 0.13007 0.89287 0.1495 0.0
C92 C 0.1846 0.89315 0.24619 0.0
O93 O 0.1685 0.9032 0.25021 0.0
O94 O 0.18363 0.87859 0.23349 0.0
O95 O 0.14265 0.89361 0.20817 0.0
O96 O 0.11207 0.8945 0.19631 0.0
O97 O 0.14123 0.86673 0.25095 0.0
C98 C 0.14739 0.84477 0.19118 0.0
C99 C 0.12469 0.89915 0.21042 0.0
Zn100 Zn 0.36593 0.86591 0.43059 0.0
Zn101 Zn 0.37769 0.9083 0.47435 0.0
C102 C 0.32922 0.87624 0.40957 0.0
O103 O 0.32143 0.8709 0.42784 0.0
C104 C 0.38677 0.87843 0.50855 0.0
O105 O 0.38334 0.86409 0.49496 0.0
O106 O 0.37757 0.83998 0.42233 0.0
O107 O 0.38427 0.88621 0.43983 0.0
O108 O 0.40178 0.90889 0.45442 0.0
C109 C 0.37744 0.83579 0.40261 0.0
O110 O 0.37318 0.84969 0.38877 0.0
O111 O 0.34785 0.87578 0.40723 0.0
C112 C 0.35661 0.93504 0.49791 0.0
O113 O 0.35 0.91786 0.50446 0.0
O114 O 0.36905 0.93555 0.48274 0.0
O115 O 0.3533 0.89418 0.46199 0.0
O116 O 0.35043 0.86231 0.45697 0.0
O117 O 0.3856 0.89625 0.50242 0.0
C118 C 0.39993 0.89607 0.43985 0.0
C119 C 0.3468 0.87749 0.46822 0.0
Zn120 Zn 0.37792 0.11786 0.67962 0.0
Zn121 Zn 0.33629 0.12694 0.72561 0.0
C122 C 0.37752 0.08766 0.64987 0.0
O123 O 0.39195 0.08265 0.66279 0.0
C124 C 0.36624 0.13234 0.76113 0.0
O125 O 0.37993 0.1372 0.74726 0.0
O126 O 0.4048 0.12868 0.67536 0.0
O127 O 0.35907 0.13661 0.69189 0.0
O128 O 0.33787 0.15351 0.70982 0.0
C129 C 0.40967 0.1368 0.65794 0.0
O130 O 0.39608 0.13995 0.64338 0.0
O131 O 0.36842 0.10376 0.65323 0.0
C132 C 0.30736 0.10446 0.74403 0.0
O133 O 0.32351 0.09436 0.74788 0.0
O134 O 0.30849 0.11981 0.73247 0.0
O135 O 0.34806 0.10441 0.70812 0.0
O136 O 0.37926 0.09787 0.70263 0.0
O137 O 0.34893 0.1283 0.75472 0.0
C138 C 0.35 0.1526 0.69444 0.0
C139 C 0.36373 0.09548 0.71367 0.0
Zn140 Zn 0.12443 0.12481 0.92451 0.0
Zn141 Zn 0.1161 0.09918 0.98158 0.0
C142 C 0.15334 0.12736 0.89273 0.0
O143 O 0.15294 0.14578 0.89921 0.0
C144 C 0.1019 0.11191 0.02116 0.0
O145 O 0.08878 0.09837 0.01625 0.0
O146 O 0.10985 0.14939 0.91623 0.0
O147 O 0.10976 0.10306 0.93805 0.0
O148 O 0.0903 0.10212 0.96529 0.0
C149 C 0.10829 0.1538 0.89664 0.0
O150 O 0.11105 0.13994 0.8823 0.0
O151 O 0.14162 0.11488 0.90095 0.0
C152 C 0.13565 0.06307 0.99487 0.0
O153 O 0.15149 0.07103 0.98642 0.0
O154 O 0.11911 0.07185 0.99331 0.0
O155 O 0.14073 0.10575 0.96431 0.0
O156 O 0.14324 0.13363 0.94673 0.0
O157 O 0.11523 0.11613 0.00766 0.0
C158 C 0.09258 0.10492 0.94548 0.0
C159 C 0.14844 0.12275 0.96222 0.0
Zn160 Zn 0.84508 0.8716 0.72639 0.0
Zn161 Zn 0.87852 0.87625 0.67054 0.0
C162 C 0.8556 0.8539 0.76528 0.0
O163 O 0.83948 0.84402 0.76055 0.0
C164 C 0.85919 0.90889 0.64943 0.0
O165 O 0.85684 0.91502 0.66911 0.0
O166 O 0.81853 0.88054 0.73758 0.0
O167 O 0.85801 0.89271 0.70753 0.0
O168 O 0.88709 0.89529 0.69263 0.0
C169 C 0.81686 0.89026 0.75485 0.0
O170 O 0.83282 0.89566 0.7652 0.0
O171 O 0.86209 0.86644 0.75198 0.0
C172 C 0.90792 0.86213 0.64203 0.0
O173 O 0.89461 0.86709 0.62776 0.0
O174 O 0.90327 0.86255 0.66162 0.0
O175 O 0.85983 0.86011 0.68706 0.0
O176 O 0.84051 0.84595 0.70963 0.0
O177 O 0.86681 0.89202 0.64613 0.0
C178 C 0.87568 0.89927 0.70815 0.0
C179 C 0.84951 0.84532 0.6919 0.0
Zn180 Zn 0.87571 0.09036 0.47544 0.0
Zn181 Zn 0.8697 0.12857 0.42516 0.0
C182 C 0.88524 0.11866 0.51161 0.0
O183 O 0.89483 0.13046 0.49863 0.0
C184 C 0.83799 0.12686 0.39727 0.0
O185 O 0.8346 0.14271 0.40876 0.0
O186 O 0.86744 0.06279 0.48237 0.0
O187 O 0.85385 0.10294 0.45754 0.0
O188 O 0.8504 0.13376 0.44819 0.0
C189 C 0.8523 0.06173 0.49428 0.0
O190 O 0.84256 0.07798 0.49868 0.0
O191 O 0.87729 0.10305 0.50443 0.0
C192 C 0.88095 0.16017 0.39844 0.0
O193 O 0.87579 0.14746 0.38365 0.0
O194 O 0.8817 0.15462 0.41772 0.0
O195 O 0.88748 0.11007 0.43945 0.0
O196 O 0.90256 0.08981 0.46032 0.0
O197 O 0.85367 0.11706 0.40081 0.0
C198 C 0.84622 0.11981 0.4609 0.0
C199 C 0.90281 0.10037 0.44365 0.0
Zn200 Zn 0.64752 0.127 0.23173 0.0
Zn201 Zn 0.62008 0.11343 0.17129 0.0
C202 C 0.63916 0.14603 0.27173 0.0
O203 O 0.65582 0.15518 0.2676 0.0
C204 C 0.62054 0.08855 0.13768 0.0
O205 O 0.60392 0.08542 0.14793 0.0
O206 O 0.67436 0.11721 0.24126 0.0
O207 O 0.63204 0.10573 0.2165 0.0
O208 O 0.61644 0.09052 0.19074 0.0
C209 C 0.67568 0.10877 0.25934 0.0
O210 O 0.65954 0.10552 0.27038 0.0
O211 O 0.63217 0.13417 0.25799 0.0
C212 C 0.5827 0.13746 0.16518 0.0
O213 O 0.59187 0.1545 0.16635 0.0
O214 O 0.59232 0.1215 0.16636 0.0
O215 O 0.63547 0.1326 0.18877 0.0
O216 O 0.65024 0.15096 0.21217 0.0
O217 O 0.63192 0.10218 0.14433 0.0
C218 C 0.62244 0.09086 0.20989 0.0
C219 C 0.64306 0.14904 0.19353 0.0
Zn220 Zn 0.61731 0.89608 0.97762 0.0
Zn221 Zn 0.62492 0.86321 0.92332 0.0
C222 C 0.60158 0.88444 0.01691 0.0
O223 O 0.59044 0.89962 0.01193 0.0
C224 C 0.65213 0.86397 0.89034 0.0
O225 O 0.65334 0.84575 0.89733 0.0
O226 O 0.62307 0.92252 0.99027 0.0
O227 O 0.64088 0.88768 0.9589 0.0
O228 O 0.64545 0.85827 0.94486 0.0
C229 C 0.63973 0.93101 0.99177 0.0
O230 O 0.65544 0.92285 0.98324 0.0
O231 O 0.61421 0.87846 0.00337 0.0
C232 C 0.60948 0.83307 0.89616 0.0
O233 O 0.61006 0.84723 0.88188 0.0
O234 O 0.61328 0.83712 0.91548 0.0
O235 O 0.60756 0.88049 0.93942 0.0
O236 O 0.59131 0.89873 0.96113 0.0
O237 O 0.63971 0.87564 0.89883 0.0
C238 C 0.64975 0.8711 0.95891 0.0
C239 C 0.59194 0.88971 0.94348 0.0
Zn240 Zn 0.83828 0.12022 0.7721 0.0
Zn241 Zn 0.87742 0.11182 0.82187 0.0
C242 C 0.86617 0.13222 0.73793 0.0
O243 O 0.86954 0.14824 0.74914 0.0
C244 C 0.87635 0.09566 0.86452 0.0
O245 O 0.89467 0.10192 0.86526 0.0
O246 O 0.81041 0.1144 0.76322 0.0
O247 O 0.84837 0.09998 0.79268 0.0
O248 O 0.87839 0.09059 0.80024 0.0
C249 C 0.80819 0.10154 0.74865 0.0
O250 O 0.82369 0.09174 0.74187 0.0
O251 O 0.85446 0.11921 0.74516 0.0
C252 C 0.91017 0.13477 0.83853 0.0
O253 O 0.89646 0.14492 0.84849 0.0
O254 O 0.90512 0.12084 0.8262 0.0
O255 O 0.86039 0.13255 0.80875 0.0
O256 O 0.84013 0.14711 0.78676 0.0
O257 O 0.86589 0.0993 0.84816 0.0
C258 C 0.86339 0.08963 0.7882 0.0
C259 C 0.85088 0.1478 0.8034 0.0
Zn260 Zn 0.61772 0.08719 0.52709 0.0
Zn261 Zn 0.6234 0.13056 0.5696 0.0
C262 C 0.60027 0.1001 0.48787 0.0
O263 O 0.58882 0.08483 0.49155 0.0
C264 C 0.6542 0.13074 0.59865 0.0
O265 O 0.65997 0.14379 0.58449 0.0
O266 O 0.62581 0.06083 0.51564 0.0
O267 O 0.64105 0.09881 0.5437 0.0
O268 O 0.64379 0.131 0.5471 0.0
C269 C 0.63965 0.06098 0.50198 0.0
O270 O 0.64814 0.07783 0.49721 0.0
O271 O 0.61332 0.10464 0.50156 0.0
C272 C 0.60583 0.16359 0.59043 0.0
O273 O 0.60245 0.15065 0.60559 0.0
O274 O 0.61263 0.15775 0.57266 0.0
O275 O 0.60654 0.10945 0.559 0.0
O276 O 0.59218 0.08464 0.54443 0.0
O277 O 0.6374 0.12264 0.59652 0.0
C278 C 0.64897 0.11505 0.53807 0.0
C279 C 0.59174 0.0983 0.55817 0.0
Zn280 Zn 0.65764 0.86794 0.2769 0.0
Zn281 Zn 0.61543 0.87736 0.3213 0.0
C282 C 0.64907 0.85227 0.2354 0.0
O283 O 0.66624 0.84376 0.23859 0.0
C284 C 0.62432 0.91284 0.3445 0.0
O285 O 0.6178 0.92084 0.32679 0.0
O286 O 0.68408 0.87704 0.26674 0.0
O287 O 0.6449 0.89015 0.29302 0.0
O288 O 0.61312 0.8943 0.29568 0.0
C289 C 0.68389 0.89034 0.25245 0.0
O290 O 0.66688 0.89778 0.24638 0.0
O291 O 0.64159 0.86255 0.25031 0.0
C292 C 0.58275 0.86355 0.34587 0.0
O293 O 0.59534 0.86509 0.36173 0.0
O294 O 0.58866 0.86659 0.32697 0.0
O295 O 0.63576 0.85768 0.31344 0.0
O296 O 0.65968 0.84372 0.29598 0.0
O297 O 0.62467 0.89415 0.34619 0.0
C298 C 0.62907 0.89759 0.28576 0.0
C299 C 0.64751 0.84336 0.31141 0.0
Zn300 Zn 0.87448 0.90147 0.02392 0.0
Zn301 Zn 0.86971 0.86535 0.07652 0.0
C302 C 0.8916 0.89024 0.9845 0.0
O303 O 0.9033 0.90502 0.98943 0.0
C304 C 0.83892 0.86816 0.10546 0.0
O305 O 0.83347 0.8532 0.09354 0.0
O306 O 0.86614 0.92815 0.01377 0.0
O307 O 0.85214 0.88955 0.04195 0.0
O308 O 0.8495 0.85952 0.05466 0.0
C309 C 0.85306 0.92946 -0.00069 0.0
O310 O 0.84457 0.91333 0.99225 0.0
O311 O 0.87832 0.88509 0.99766 0.0
C312 C 0.88652 0.8342 0.1014 0.0
O313 O 0.88607 0.84715 0.11697 0.0
O314 O 0.88238 0.83966 0.0826 0.0
O315 O 0.88537 0.88441 0.06065 0.0
O316 O 0.90081 0.90428 0.03996 0.0
O317 O 0.85547 0.87639 0.10203 0.0
C318 C 0.84519 0.87212 0.04043 0.0
C319 C 0.90082 0.89397 0.05679 0.0
Zn320 Zn 0.61873 0.61339 0.82065 0.0
Zn321 Zn 0.65685 0.62125 0.7702 0.0
C322 C 0.61883 0.58818 0.85595 0.0
O323 O 0.6007 0.586 0.84888 0.0
C324 C 0.62833 0.63624 0.73723 0.0
O325 O 0.6255 0.65225 0.74863 0.0
O326 O 0.59197 0.62441 0.82643 0.0
O327 O 0.63695 0.63211 0.80655 0.0
O328 O 0.65748 0.64769 0.78625 0.0
C329 C 0.58707 0.63084 0.84466 0.0
O330 O 0.60056 0.63228 0.85964 0.0
O331 O 0.63029 0.60015 0.84647 0.0
C332 C 0.68402 0.60245 0.74333 0.0
O333 O 0.66731 0.59464 0.7369 0.0
O334 O 0.6839 0.61406 0.75927 0.0
O335 O 0.64572 0.59994 0.78942 0.0
O336 O 0.61541 0.59275 0.79855 0.0
O337 O 0.63975 0.62285 0.74411 0.0
C338 C 0.64658 0.64762 0.80275 0.0
C339 C 0.62956 0.59112 0.7854 0.0
Zn340 Zn 0.62433 0.36378 0.06826 0.0
Zn341 Zn 0.61635 0.39975 0.01752 0.0
C342 C 0.65319 0.36295 0.10021 0.0
O343 O 0.6534 0.34446 0.09396 0.0
C344 C 0.59533 0.38329 0.98146 0.0
O345 O 0.58185 0.39629 0.98688 0.0
O346 O 0.6121 0.33806 0.07674 0.0
O347 O 0.6078 0.38318 0.05431 0.0
O348 O 0.59168 0.40434 0.03609 0.0
C349 C 0.60967 0.33365 0.09625 0.0
O350 O 0.61151 0.34751 0.11077 0.0
O351 O 0.64116 0.37498 0.09169 0.0
C352 C 0.64034 0.43224 0.00064 0.0
O353 O 0.65565 0.42163 0.00637 0.0
O354 O 0.62301 0.42591 0.00433 0.0
O355 O 0.64109 0.38902 0.03329 0.0
O356 O 0.64283 0.3583 0.045 0.0
O357 O 0.61067 0.38154 0.99295 0.0
C358 C 0.59278 0.3939 0.05272 0.0
C359 C 0.64844 0.37166 0.0321 0.0
Zn360 Zn 0.87694 0.37699 0.31741 0.0
Zn361 Zn 0.83766 0.36823 0.26982 0.0
C362 C 0.87776 0.40397 0.35112 0.0
O363 O 0.89583 0.40531 0.34368 0.0
C364 C 0.85072 0.3523 0.22984 0.0
O365 O 0.83653 0.33959 0.23374 0.0
O366 O 0.90379 0.36639 0.32411 0.0
O367 O 0.85797 0.35864 0.30454 0.0
O368 O 0.83626 0.34225 0.28692 0.0
C369 C 0.90788 0.36147 0.34313 0.0
O370 O 0.89361 0.36076 0.35731 0.0
O371 O 0.86578 0.39197 0.34243 0.0
C372 C 0.81048 0.38925 0.245 0.0
O373 O 0.82695 0.39838 0.23999 0.0
O374 O 0.81099 0.37548 0.25874 0.0
O375 O 0.84842 0.39151 0.28716 0.0
O376 O 0.87975 0.39639 0.29433 0.0
O377 O 0.8548 0.36525 0.2438 0.0
C378 C 0.84835 0.34289 0.30232 0.0
C379 C 0.8648 0.39977 0.28263 0.0
Zn380 Zn 0.86583 0.63166 0.5596 0.0
Zn381 Zn 0.87405 0.5855 0.52345 0.0
C382 C 0.82983 0.62567 0.58362 0.0
O383 O 0.82183 0.63502 0.56744 0.0
C384 C 0.8836 0.6139 0.48794 0.0
O385 O 0.88509 0.62827 0.5019 0.0
O386 O 0.87521 0.65864 0.56753 0.0
O387 O 0.88696 0.61239 0.55669 0.0
O388 O 0.89868 0.58575 0.54193 0.0
C389 C 0.87915 0.66051 0.58722 0.0
O390 O 0.87964 0.64468 0.59929 0.0
O391 O 0.84828 0.62238 0.58363 0.0
C392 C 0.85165 0.55509 0.50483 0.0
O393 O 0.84085 0.57045 0.49965 0.0
O394 O 0.86653 0.5576 0.5169 0.0
O395 O 0.85016 0.59944 0.53609 0.0
O396 O 0.85024 0.6316 0.53297 0.0
O397 O 0.87973 0.59652 0.49425 0.0
C398 C 0.90066 0.59997 0.55488 0.0
C399 C 0.84355 0.61496 0.52717 0.0
Zn400 Zn 0.62025 0.3801 0.67667 0.0
Zn401 Zn 0.6581 0.36931 0.72793 0.0
C402 C 0.62661 0.41443 0.65155 0.0
O403 O 0.61452 0.42143 0.66606 0.0
C404 C 0.64642 0.35149 0.76722 0.0
O405 O 0.66341 0.34251 0.76445 0.0
O406 O 0.59373 0.36937 0.66854 0.0
O407 O 0.6391 0.36096 0.68923 0.0
O408 O 0.66023 0.34495 0.70857 0.0
C409 C 0.5887 0.36914 0.64904 0.0
O410 O 0.60199 0.37322 0.63444 0.0
O411 O 0.63185 0.39643 0.65259 0.0
C412 C 0.6851 0.3858 0.75775 0.0
O413 O 0.66832 0.39085 0.76668 0.0
O414 O 0.68481 0.37682 0.73993 0.0
O415 O 0.64598 0.39208 0.71145 0.0
O416 O 0.61559 0.39759 0.70139 0.0
O417 O 0.64028 0.3632 0.75285 0.0
C418 C 0.64906 0.34549 0.69229 0.0
C419 C 0.62901 0.39928 0.71543 0.0
Zn420 Zn 0.87321 0.36206 0.93139 0.0
Zn421 Zn 0.87707 0.40779 0.97066 0.0
C422 C 0.84151 0.36361 0.90304 0.0
O423 O 0.83509 0.35071 0.91704 0.0
C424 C 0.89051 0.40186 0.01323 0.0
O425 O 0.89709 0.41986 0.01006 0.0
O426 O 0.88466 0.33526 0.92601 0.0
O427 O 0.88917 0.38409 0.94156 0.0
O428 O 0.90264 0.41061 0.95315 0.0
C429 C 0.8887 0.33113 0.90673 0.0
O430 O 0.88937 0.34549 0.89268 0.0
O431 O 0.85865 0.37086 0.90523 0.0
C432 C 0.85268 0.43293 0.99362 0.0
O433 O 0.84553 0.41554 0.99868 0.0
O434 O 0.86651 0.43398 0.97997 0.0
O435 O 0.85514 0.39323 0.95451 0.0
O436 O 0.85331 0.36085 0.95455 0.0
O437 O 0.88231 0.39279 0.99785 0.0
C438 C 0.90329 0.39602 0.94056 0.0
C439 C 0.84788 0.37739 0.96212 0.0
Zn440 Zn 0.87856 0.61498 0.17527 0.0
Zn441 Zn 0.84054 0.62109 0.22609 0.0
C442 C 0.87554 0.58227 0.14875 0.0
O443 O 0.891 0.57806 0.16055 0.0
C444 C 0.86137 0.63922 0.26303 0.0
O445 O 0.85619 0.65649 0.25537 0.0
O446 O 0.90389 0.62724 0.16618 0.0
O447 O 0.85973 0.63271 0.18935 0.0
O448 O 0.83873 0.64746 0.20981 0.0
C449 C 0.90699 0.62852 0.1463 0.0
O450 O 0.89236 0.62513 0.13304 0.0
O451 O 0.86668 0.59857 0.15169 0.0
C452 C 0.8125 0.60334 0.25335 0.0
O453 O 0.82895 0.59821 0.26288 0.0
O454 O 0.81332 0.61277 0.23586 0.0
O455 O 0.85366 0.60008 0.20774 0.0
O456 O 0.88466 0.59663 0.19871 0.0
O457 O 0.85714 0.6237 0.25265 0.0
C458 C 0.84983 0.64789 0.19353 0.0
C459 C 0.8708 0.59331 0.21184 0.0
Zn460 Zn 0.62337 0.62784 0.42758 0.0
Zn461 Zn 0.62143 0.58763 0.47645 0.0
C462 C 0.65716 0.62626 0.40135 0.0
O463 O 0.66051 0.64258 0.41206 0.0
C464 C 0.61009 0.61369 0.51234 0.0
O465 O 0.60264 0.62596 0.49826 0.0
O466 O 0.60914 0.65166 0.41685 0.0
O467 O 0.60861 0.60741 0.44229 0.0
O468 O 0.59441 0.58516 0.46105 0.0
C469 C 0.60914 0.65444 0.39688 0.0
O470 O 0.61409 0.6398 0.38426 0.0
O471 O 0.64148 0.61657 0.40515 0.0
C472 C 0.64887 0.55849 0.49032 0.0
O473 O 0.65969 0.57426 0.49352 0.0
O474 O 0.63237 0.56031 0.48087 0.0
O475 O 0.64207 0.60592 0.46187 0.0
O476 O 0.6399 0.63673 0.45143 0.0
O477 O 0.6177 0.59757 0.50616 0.0
C478 C 0.59348 0.59724 0.44571 0.0
C479 C 0.64552 0.62424 0.46526 0.0
Zn480 Zn 0.34164 0.37085 0.22625 0.0
Zn481 Zn 0.38062 0.37989 0.17966 0.0
C482 C 0.35085 0.35492 0.26615 0.0
O483 O 0.33426 0.34577 0.26161 0.0
C484 C 0.3807 0.40763 0.14614 0.0
O485 O 0.39932 0.40843 0.15189 0.0
O486 O 0.31497 0.37871 0.23646 0.0
O487 O 0.3528 0.39322 0.20872 0.0
O488 O 0.38417 0.39851 0.20376 0.0
C489 C 0.31361 0.39232 0.25032 0.0
O490 O 0.32968 0.40149 0.25661 0.0
O491 O 0.35817 0.36657 0.25242 0.0
C492 C 0.41001 0.36441 0.15218 0.0
O493 O 0.39535 0.36483 0.13847 0.0
O494 O 0.40676 0.36875 0.17153 0.0
O495 O 0.36185 0.35988 0.18983 0.0
O496 O 0.33983 0.34535 0.20929 0.0
O497 O 0.36904 0.39592 0.15569 0.0
C498 C 0.3686 0.40185 0.21439 0.0
C499 C 0.35109 0.34502 0.19315 0.0
Zn500 Zn 0.37334 0.58916 0.97113 0.0
Zn501 Zn 0.36465 0.63208 0.92664 0.0
C502 C 0.38534 0.59701 0.0129 0.0
O503 O 0.39371 0.57989 0.00913 0.0
C504 C 0.33349 0.62719 0.89781 0.0
O505 O 0.32474 0.63702 0.91316 0.0
O506 O 0.36639 0.56167 0.98037 0.0
O507 O 0.35207 0.60016 0.95235 0.0
O508 O 0.34455 0.63136 0.94959 0.0
C509 C 0.35271 0.56015 0.99416 0.0
O510 O 0.34299 0.57607 -0.0002 0.0
O511 O 0.37572 0.60534 0.99803 0.0
C512 C 0.3866 0.66561 0.91084 0.0
O513 O 0.39641 0.65254 0.89958 0.0
O514 O 0.3736 0.65978 0.92393 0.0
O515 O 0.38519 0.61333 0.93635 0.0
O516 O 0.39934 0.59026 0.95518 0.0
O517 O 0.35176 0.62325 0.89932 0.0
C518 C 0.3425 0.61497 0.95902 0.0
C519 C 0.40008 0.60269 0.94003 0.0
Zn520 Zn 0.1613 0.62299 0.71879 0.0
Zn521 Zn 0.11429 0.61629 0.68127 0.0
C522 C 0.13282 0.63283 0.7545 0.0
O523 O 0.11888 0.63664 0.74054 0.0
C524 C 0.11337 0.58301 0.65425 0.0
O525 O 0.10066 0.57769 0.669 0.0
O526 O 0.18866 0.61396 0.72547 0.0
O527 O 0.14654 0.60046 0.70435 0.0
O528 O 0.11437 0.59827 0.70603 0.0
C529 C 0.18906 0.59961 0.73851 0.0
O530 O 0.17236 0.59098 0.74365 0.0
O531 O 0.14987 0.62776 0.74809 0.0
C532 C 0.08232 0.6343 0.6596 0.0
O533 O 0.09595 0.63721 0.64502 0.0
O534 O 0.08729 0.62716 0.67749 0.0
O535 O 0.13546 0.63525 0.68741 0.0
O536 O 0.16167 0.64834 0.7012 0.0
O537 O 0.12141 0.59991 0.65556 0.0
C538 C 0.13119 0.59319 0.71301 0.0
C539 C 0.14726 0.6496 0.68835 0.0
Zn540 Zn 0.12034 0.4062 0.47232 0.0
Zn541 Zn 0.12686 0.36732 0.42287 0.0
C542 C 0.10524 0.39188 0.51143 0.0
O543 O 0.09258 0.4061 0.50751 0.0
C544 C 0.14615 0.3662 0.38252 0.0
O545 O 0.14319 0.34718 0.3848 0.0
O546 O 0.12794 0.43258 0.48444 0.0
O547 O 0.14151 0.39631 0.45216 0.0
O548 O 0.14857 0.36573 0.44388 0.0
C549 C 0.14037 0.43189 0.49961 0.0
O550 O 0.14822 0.41487 0.50489 0.0
O551 O 0.11831 0.38794 0.49754 0.0
C552 C 0.10564 0.33219 0.40641 0.0
O553 O 0.09574 0.34367 0.39337 0.0
O554 O 0.11747 0.33973 0.41979 0.0
O555 O 0.10842 0.38581 0.43677 0.0
O556 O 0.09366 0.40707 0.45695 0.0
O557 O 0.13921 0.37805 0.39629 0.0
C558 C 0.15083 0.38047 0.45608 0.0
C559 C 0.09314 0.39567 0.44089 0.0
Zn560 Zn 0.34561 0.62547 0.26802 0.0
Zn561 Zn 0.37586 0.61149 0.32505 0.0
C562 C 0.36474 0.64288 0.23185 0.0
O563 O 0.35471 0.65847 0.23796 0.0
C564 C 0.37162 0.58249 0.35403 0.0
O565 O 0.38801 0.57879 0.34356 0.0
O566 O 0.319 0.62045 0.25492 0.0
O567 O 0.35451 0.60387 0.28732 0.0
O568 O 0.38068 0.59172 0.30224 0.0
C569 C 0.30707 0.60625 0.258 0.0
O570 O 0.31094 0.59305 0.27274 0.0
O571 O 0.36418 0.62741 0.24325 0.0
C572 C 0.4144 0.63259 0.33333 0.0
O573 O 0.40855 0.64869 0.32356 0.0
O574 O 0.40283 0.61802 0.3353 0.0
O575 O 0.36169 0.63365 0.31023 0.0
O576 O 0.34562 0.65063 0.28628 0.0
O577 O 0.36165 0.59767 0.34894 0.0
C578 C 0.36986 0.59325 0.28586 0.0
C579 C 0.35386 0.64977 0.30457 0.0
Zn580 Zn 0.12288 0.59539 0.01878 0.0
Zn581 Zn 0.12542 0.62823 0.07474 0.0
C582 C 0.10573 0.61407 0.98042 0.0
O583 O 0.08848 0.60914 0.98837 0.0
C584 C 0.15615 0.62541 0.10397 0.0
O585 O 0.15931 0.64242 0.09454 0.0
O586 O 0.13199 0.56817 0.01071 0.0
O587 O 0.14363 0.60815 0.03854 0.0
O588 O 0.14514 0.63727 0.05364 0.0
C589 C 0.14413 0.56577 0.99547 0.0
O590 O 0.15153 0.58132 0.98593 0.0
O591 O 0.12127 0.61059 0.99112 0.0
C592 C 0.11168 0.65711 0.10359 0.0
O593 O 0.11738 0.64385 0.11754 0.0
O594 O 0.11115 0.65255 0.084 0.0
O595 O 0.11045 0.61026 0.05656 0.0
O596 O 0.09573 0.59216 0.03347 0.0
O597 O 0.14109 0.61537 0.09853 0.0
C598 C 0.15006 0.62585 0.03846 0.0
C599 C 0.09523 0.60087 0.05135 0.0
Zn600 Zn 0.14851 0.37016 0.77247 0.0
Zn601 Zn 0.11539 0.37517 0.82854 0.0
C602 C 0.14065 0.35579 0.7319 0.0
O603 O 0.15651 0.34591 0.73749 0.0
C604 C 0.11623 0.39607 0.86771 0.0
O605 O 0.09713 0.39319 0.86601 0.0
O606 O 0.17574 0.37709 0.76231 0.0
O607 O 0.13685 0.39143 0.79211 0.0
O608 O 0.10852 0.39644 0.80795 0.0
C609 C 0.18233 0.39397 0.7571 0.0
O610 O 0.17173 0.40977 0.76093 0.0
O611 O 0.13275 0.36728 0.74546 0.0
C612 C 0.08458 0.35222 0.85111 0.0
O613 O 0.09741 0.34857 0.86632 0.0
O614 O 0.08995 0.36186 0.83479 0.0
O615 O 0.1329 0.35874 0.81101 0.0
O616 O 0.15033 0.34327 0.78779 0.0
O617 O 0.12774 0.38874 0.8538 0.0
C618 C 0.11976 0.39934 0.79201 0.0
C619 C 0.14135 0.34302 0.80554 0.0
Zn620 Zn 0.37536 0.39747 0.52325 0.0
Zn621 Zn 0.36823 0.36797 0.57943 0.0
C622 C 0.39229 0.38139 0.48591 0.0
O623 O 0.40608 0.39413 0.49116 0.0
C624 C 0.34068 0.3672 0.61132 0.0
O625 O 0.33983 0.34947 0.60288 0.0
O626 O 0.37017 0.42331 0.50916 0.0
O627 O 0.35077 0.38994 0.54126 0.0
O628 O 0.34737 0.36172 0.55856 0.0
C629 C 0.3545 0.43354 0.51041 0.0
O630 O 0.34025 0.42814 0.52335 0.0
O631 O 0.37777 0.37891 0.49847 0.0
C632 C 0.38567 0.33666 0.60382 0.0
O633 O 0.38414 0.34901 0.61988 0.0
O634 O 0.38155 0.34254 0.58518 0.0
O635 O 0.38301 0.38585 0.56195 0.0
O636 O 0.40199 0.3992 0.53913 0.0
O637 O 0.35362 0.37923 0.60448 0.0
C638 C 0.34241 0.37315 0.54337 0.0
C639 C 0.40017 0.39106 0.55713 0.0
H640 H 0.22429 0.10415 0.25963 0.0
H641 H 0.25249 0.10022 0.23552 0.0
H642 H 0.21283 0.10024 0.18155 0.0
H643 H 0.18474 0.10276 0.20564 0.0
H644 H 0.24049 0.07719 0.17253 0.0
H645 H 0.23863 0.14307 0.2005 0.0
H646 H 0.23796 0.16846 0.22867 0.0
H647 H 0.29409 0.14836 0.2519 0.0
H648 H 0.29497 0.12269 0.22397 0.0
H649 H 0.29604 0.12755 0.09337 0.0
H650 H 0.27315 0.11811 0.12167 0.0
H651 H 0.32196 0.09886 0.16059 0.0
H652 H 0.3451 0.10801 0.13204 0.0
H653 H 0.29361 0.12715 0.1797 0.0
H654 H 0.29518 0.06472 0.14258 0.0
H655 H 0.29295 0.04348 0.11073 0.0
H656 H 0.23338 0.06271 0.10008 0.0
H657 H 0.23535 0.0843 0.13167 0.0
C658 C 0.22168 0.10302 0.24262 0.0
C659 C 0.20244 0.10389 0.23442 0.0
C660 C 0.23777 0.10087 0.22885 0.0
C661 C 0.23488 0.10041 0.20663 0.0
C662 C 0.21553 0.10054 0.19858 0.0
C663 C 0.19946 0.10206 0.21236 0.0
C664 C 0.25184 0.10112 0.19161 0.0
C665 C 0.25206 0.08815 0.17412 0.0
C666 C 0.26711 0.1153 0.19367 0.0
C667 C 0.26675 0.13083 0.21033 0.0
C668 C 0.25077 0.14401 0.21169 0.0
C669 C 0.25036 0.15845 0.2276 0.0
C670 C 0.26595 0.15998 0.24211 0.0
C671 C 0.28201 0.14713 0.24067 0.0
C672 C 0.28248 0.13264 0.22481 0.0
C673 C 0.30192 0.12118 0.10789 0.0
C674 C 0.32233 0.11856 0.11058 0.0
C675 C 0.28882 0.1157 0.12397 0.0
C676 C 0.29591 0.10769 0.14309 0.0
C677 C 0.31627 0.10492 0.14584 0.0
C678 C 0.32942 0.11011 0.12956 0.0
C679 C 0.28194 0.1035 0.16059 0.0
C680 C 0.28226 0.1159 0.17846 0.0
C681 C 0.26672 0.08938 0.15837 0.0
C682 C 0.26547 0.07622 0.13946 0.0
C683 C 0.28165 0.06453 0.13337 0.0
C684 C 0.28043 0.05241 0.11537 0.0
C685 C 0.26305 0.05177 0.10337 0.0
C686 C 0.24684 0.06322 0.10938 0.0
C687 C 0.248 0.07538 0.12736 0.0
H688 H 0.26213 0.04238 0.08944 0.0
H689 H 0.2656 0.17116 0.25443 0.0
H690 H 0.12243 0.09238 0.38305 0.0
H691 H 0.12787 0.06987 0.41312 0.0
H692 H 0.13714 0.0219 0.36892 0.0
H693 H 0.13072 0.04405 0.3391 0.0
H694 H 0.11299 0.01066 0.39719 0.0
H695 H 0.17523 0.04572 0.40011 0.0
H696 H 0.19682 0.07485 0.40353 0.0
H697 H 0.17186 0.08761 0.46493 0.0
H698 H 0.14994 0.05868 0.46177 0.0
H699 H 0.15902 0.93709 0.45623 0.0
H700 H 0.15662 0.96637 0.4339 0.0
H701 H 0.12827 -0.0021 0.48511 0.0
H702 H 0.13027 0.96837 0.5077 0.0
H703 H 0.15935 0.01974 0.45766 0.0
H704 H 0.09834 0.98305 0.45453 0.0
H705 H 0.07728 0.95364 0.4503 0.0
H706 H 0.10149 0.94354 0.38798 0.0
H707 H 0.12293 0.97274 0.39197 0.0
C708 C 0.12582 0.07705 0.37985 0.0
C709 C 0.126 0.06986 0.35883 0.0
C710 C 0.12903 0.06423 0.39702 0.0
C711 C 0.133 0.04416 0.39334 0.0
C712 C 0.13394 0.03726 0.37223 0.0
C713 C 0.13028 0.04992 0.35518 0.0
C714 C 0.13485 0.02984 0.41119 0.0
C715 C 0.12332 0.01265 0.41024 0.0
C716 C 0.14773 0.03269 0.42878 0.0
C717 C 0.16078 0.05017 0.43058 0.0
C718 C 0.17422 0.05484 0.41425 0.0
C719 C 0.18654 0.07129 0.41616 0.0
C720 C 0.18566 0.08311 0.4344 0.0
C721 C 0.17249 0.07847 0.45079 0.0
C722 C 0.16013 0.06205 0.44895 0.0
C723 C 0.1526 0.95032 0.46299 0.0
C724 C 0.14461 0.95033 0.48369 0.0
C725 C 0.15125 0.96703 0.45016 0.0
C726 C 0.14211 0.98414 0.45784 0.0
C727 C 0.13535 0.98476 0.47897 0.0
C728 C 0.13647 0.96789 0.4918 0.0
C729 C 0.13808 0.0005 0.44294 0.0
C730 C 0.14901 0.018 0.44457 0.0
C731 C 0.1248 -0.00206 0.42579 0.0
C732 C 0.11235 0.98002 0.42363 0.0
C733 C 0.09935 0.97444 0.44003 0.0
C734 C 0.08726 0.95786 0.43762 0.0
C735 C 0.08796 0.94681 0.41883 0.0
C736 C 0.10089 0.95219 0.40248 0.0
C737 C 0.11301 0.96875 0.40481 0.0
H738 H 0.07856 0.93401 0.41697 0.0
H739 H 0.19523 0.09583 0.43586 0.0
H740 H 0.30986 0.8964 0.70133 0.0
H741 H 0.27902 0.89808 0.68176 0.0
H742 H 0.24659 0.89763 0.74103 0.0
H743 H 0.27779 0.89428 0.7607 0.0
H744 H 0.23021 0.8737 0.71582 0.0
H745 H 0.24989 0.94063 0.70539 0.0
H746 H 0.27327 0.96746 0.69714 0.0
H747 H 0.28103 0.94452 0.63388 0.0
H748 H 0.25784 0.91746 0.64177 0.0
H749 H 0.14657 0.88713 0.64147 0.0
H750 H 0.17034 0.89705 0.66925 0.0
H751 H 0.21764 0.87121 0.63275 0.0
H752 H 0.19411 0.86074 0.60547 0.0
H753 H 0.22097 0.91485 0.65115 0.0
H754 H 0.20927 0.84455 0.66582 0.0
H755 H 0.18773 0.81619 0.67389 0.0
H756 H 0.16577 0.84603 0.72943 0.0
H757 H 0.18698 0.87473 0.72144 0.0
C758 C 0.29618 0.89697 0.7102 0.0
C759 C 0.29618 0.89522 0.73246 0.0
C760 C 0.2785 0.89818 0.69901 0.0
C761 C 0.26039 0.89859 0.70986 0.0
C762 C 0.26036 0.89749 0.73227 0.0
C763 C 0.27814 0.89562 0.74349 0.0
C764 C 0.24168 0.89811 0.69748 0.0
C765 C 0.22793 0.88317 0.7021 0.0
C766 C 0.2387 0.91025 0.67932 0.0
C767 C 0.25207 0.927 0.6742 0.0
C768 C 0.25656 0.94131 0.68971 0.0
C769 C 0.2698 0.95655 0.6851 0.0
C770 C 0.27862 0.95769 0.66499 0.0
C771 C 0.27413 0.94366 0.64942 0.0
C772 C 0.26088 0.9284 0.65393 0.0
C773 C 0.16206 0.88362 0.63944 0.0
C774 C 0.16854 0.87312 0.62143 0.0
C775 C 0.17554 0.88927 0.65524 0.0
C776 C 0.19565 0.88487 0.65288 0.0
C777 C 0.20215 0.87474 0.63474 0.0
C778 C 0.18869 0.86868 0.61928 0.0
C779 C 0.21013 0.89029 0.66941 0.0
C780 C 0.223 0.90604 0.66543 0.0
C781 C 0.21232 0.879 0.68815 0.0
C782 C 0.1994 0.86191 0.69281 0.0
C783 C 0.19962 0.84518 0.67956 0.0
C784 C 0.18754 0.82902 0.68416 0.0
C785 C 0.17531 0.82935 0.7021 0.0
C786 C 0.17519 0.84583 0.71549 0.0
C787 C 0.18722 0.86205 0.71093 0.0
H788 H 0.166 0.8168 0.70567 0.0
H789 H 0.28894 0.96945 0.66149 0.0
H790 H 0.3484 0.92792 0.85152 0.0
H791 H 0.33945 0.95458 0.87634 0.0
H792 H 0.38288 0.93348 0.92116 0.0
H793 H 0.39248 0.90744 0.896 0.0
H794 H 0.34178 0.94448 0.93783 0.0
H795 H 0.39766 0.96636 0.89584 0.0
H796 H 0.41578 0.97436 0.86291 0.0
H797 H 0.37164 0.01705 0.84629 0.0
H798 H 0.35284 0.0088 0.87874 0.0
H799 H 0.37029 0.02243 0.00697 0.0
H800 H 0.36722 0.99437 0.98264 0.0
H801 H 0.33246 0.02981 0.93961 0.0
H802 H 0.33532 0.05787 0.96389 0.0
H803 H 0.36442 0.01215 0.92022 0.0
H804 H 0.31045 0.99349 0.96385 0.0
H805 H 0.29273 0.98665 0.99736 0.0
H806 H 0.33299 0.93953 0.01142 0.0
H807 H 0.35117 0.94628 0.97815 0.0
C808 C 0.35576 0.92886 0.86683 0.0
C809 C 0.37103 0.91573 0.87205 0.0
C810 C 0.35071 0.94406 0.88089 0.0
C811 C 0.36054 0.9459 0.90049 0.0
C812 C 0.37514 0.93219 0.9061 0.0
C813 C 0.38061 0.91742 0.89178 0.0
C814 C 0.3565 0.96275 0.91471 0.0
C815 C 0.34675 0.95929 0.93408 0.0
C816 C 0.3626 0.98209 0.90941 0.0
C817 C 0.37357 0.98658 0.8895 0.0
C818 C 0.39155 0.97711 0.88493 0.0
C819 C 0.40199 0.98175 0.86636 0.0
C820 C 0.39476 0.99608 0.85239 0.0
C821 C 0.3771 0.00581 0.85698 0.0
C822 C 0.36652 0.00111 0.87544 0.0
C823 C 0.3617 0.02413 0.99252 0.0
C824 C 0.3531 0.04234 0.9873 0.0
C825 C 0.35989 0.00808 0.97868 0.0
C826 C 0.34957 0.01005 0.95938 0.0
C827 C 0.34043 0.02802 0.95447 0.0
C828 C 0.34203 0.04399 0.96841 0.0
C829 C 0.34992 0.99389 0.94355 0.0
C830 C 0.35906 -0.00255 0.92386 0.0
C831 C 0.34321 0.97469 0.94854 0.0
C832 C 0.33228 0.9705 0.96855 0.0
C833 C 0.31564 0.98177 0.97416 0.0
C834 C 0.30549 0.97789 0.99311 0.0
C835 C 0.31175 0.96269 0.00653 0.0
C836 C 0.32816 0.95131 0.00101 0.0
C837 C 0.33838 0.95514 0.98209 0.0
H838 H 0.30387 0.95971 0.02119 0.0
H839 H 0.40291 -0.00027 0.83808 0.0
H840 H 0.33801 0.87501 0.36706 0.0
H841 H 0.31536 0.88031 0.33721 0.0
H842 H 0.26863 0.89427 0.38151 0.0
H843 H 0.29108 0.88848 0.41135 0.0
H844 H 0.25558 0.86962 0.35344 0.0
H845 H 0.29255 0.92988 0.35015 0.0
H846 H 0.3222 0.95086 0.34776 0.0
H847 H 0.33678 0.92495 0.2873 0.0
H848 H 0.30735 0.9036 0.28946 0.0
H849 H 0.18645 0.91222 0.28423 0.0
H850 H 0.21366 0.91176 0.30971 0.0
H851 H 0.24965 0.88001 0.2646 0.0
H852 H 0.22223 0.88004 0.23897 0.0
H853 H 0.26889 0.91286 0.29121 0.0
H854 H 0.23018 0.85305 0.29532 0.0
H855 H 0.19895 0.83455 0.29783 0.0
H856 H 0.18652 0.86187 0.35812 0.0
H857 H 0.21749 0.88094 0.35572 0.0
C858 C 0.32296 0.87945 0.37039 0.0
C859 C 0.31624 0.88125 0.3915 0.0
C860 C 0.31004 0.88252 0.35333 0.0
C861 C 0.2903 0.88781 0.3571 0.0
C862 C 0.28376 0.89011 0.3782 0.0
C863 C 0.29659 0.88682 0.39523 0.0
C864 C 0.27615 0.89004 0.3392 0.0
C865 C 0.25845 0.87926 0.33998 0.0
C866 C 0.28005 0.90227 0.32135 0.0
C867 C 0.29786 0.91497 0.32009 0.0
C868 C 0.30218 0.92851 0.33644 0.0
C869 C 0.31893 0.9405 0.33511 0.0
C870 C 0.3314 0.9392 0.31742 0.0
C871 C 0.32713 0.92592 0.30101 0.0
C872 C 0.31041 0.91388 0.30228 0.0
C873 C 0.20028 0.9055 0.27949 0.0
C874 C 0.20219 0.89597 0.25969 0.0
C875 C 0.21577 0.90524 0.29409 0.0
C876 C 0.23348 0.89568 0.28903 0.0
C877 C 0.23601 0.88742 0.26871 0.0
C878 C 0.22036 0.88739 0.25417 0.0
C879 C 0.24845 0.89267 0.30577 0.0
C880 C 0.26621 0.90321 0.3047 0.0
C881 C 0.24454 0.88041 0.3235 0.0
C882 C 0.22606 0.86866 0.32517 0.0
C883 C 0.2207 0.85531 0.30899 0.0
C884 C 0.20305 0.84469 0.31041 0.0
C885 C 0.19071 0.84711 0.32808 0.0
C886 C 0.19606 0.86007 0.34441 0.0
C887 C 0.21366 0.8708 0.34302 0.0
H888 H 0.17704 0.83889 0.32914 0.0
H889 H 0.34435 0.94851 0.31641 0.0
H890 H 0.34826 0.97288 0.48545 0.0
H891 H 0.34472 0.00181 0.50877 0.0
H892 H 0.35647 0.96503 0.56363 0.0
H893 H 0.35817 0.93623 0.54065 0.0
H894 H 0.33216 0.98911 0.5755 0.0
H895 H 0.39266 0.99656 0.53512 0.0
H896 H 0.41254 -0.00036 0.50233 0.0
H897 H 0.38012 0.05153 0.48466 0.0
H898 H 0.35989 0.04862 0.51726 0.0
H899 H 0.38732 0.04903 0.64577 0.0
H900 H 0.37744 0.02613 0.61773 0.0
H901 H 0.34467 0.07239 0.58659 0.0
H902 H 0.35426 0.09554 0.61499 0.0
H903 H 0.37283 0.04824 0.5601 0.0
H904 H 0.31865 0.04129 0.6099 0.0
H905 H 0.30405 0.03567 0.6454 0.0
H906 H 0.33185 0.97886 0.64869 0.0
H907 H 0.34695 0.98429 0.61342 0.0
C908 C 0.34977 0.97112 0.50254 0.0
C909 C 0.35347 0.95248 0.51136 0.0
C910 C 0.34792 0.98761 0.51585 0.0
C911 C 0.35073 0.98579 0.53803 0.0
C912 C 0.35409 0.96697 0.54668 0.0
C913 C 0.35515 0.95048 0.53352 0.0
C914 C 0.35107 0.00327 0.55244 0.0
C915 C 0.34114 0.00198 0.57208 0.0
C916 C 0.3624 0.02038 0.54796 0.0
C917 C 0.37462 0.02223 0.52846 0.0
C918 C 0.38971 0.00856 0.52417 0.0
C919 C 0.40104 0.01028 0.50563 0.0
C920 C 0.39755 0.02573 0.49138 0.0
C921 C 0.38277 0.03954 0.49569 0.0
C922 C 0.37137 0.03787 0.51419 0.0
C923 C 0.378 0.0544 0.63299 0.0
C924 C 0.37155 0.0741 0.63259 0.0
C925 C 0.37231 0.04125 0.61704 0.0
C926 C 0.36022 0.04757 0.60026 0.0
C927 C 0.35393 0.06727 0.59954 0.0
C928 C 0.35939 0.08043 0.61574 0.0
C929 C 0.35473 0.03345 0.5833 0.0
C930 C 0.36359 0.03548 0.56322 0.0
C931 C 0.34322 0.01656 0.58778 0.0
C932 C 0.33405 0.01328 0.60902 0.0
C933 C 0.32181 0.02768 0.61826 0.0
C934 C 0.31342 0.02451 0.63835 0.0
C935 C 0.31705 0.00694 0.64931 0.0
C936 C 0.32906 0.99248 0.64019 0.0
C937 C 0.33753 0.9956 0.62015 0.0
H938 H 0.31053 0.00451 0.66485 0.0
H939 H 0.40633 0.02704 0.47704 0.0
H940 H 0.17561 0.0941 0.89243 0.0
H941 H 0.20127 0.08522 0.86642 0.0
H942 H 0.18826 0.13783 0.83042 0.0
H943 H 0.16323 0.14719 0.85686 0.0
H944 H 0.1917 0.09664 0.80748 0.0
H945 H 0.2232 0.14445 0.85445 0.0
H946 H 0.23386 0.15744 0.88932 0.0
H947 H 0.26735 0.10473 0.90071 0.0
H948 H 0.25653 0.09125 0.86604 0.0
H949 H 0.27092 0.12113 0.73926 0.0
H950 H 0.24312 0.11856 0.7639 0.0
H951 H 0.27552 0.07646 0.80181 0.0
H952 H 0.30344 0.07912 0.77739 0.0
H953 H 0.26228 0.10725 0.82535 0.0
H954 H 0.2352 0.06149 0.77619 0.0
H955 H 0.22536 0.04858 0.74101 0.0
H956 H 0.18437 0.09635 0.73349 0.0
H957 H 0.19418 0.10973 0.76851 0.0
C958 C 0.17819 0.10363 0.87885 0.0
C959 C 0.1676 0.12128 0.87648 0.0
C960 C 0.1928 0.0986 0.86413 0.0
C961 C 0.19652 0.11092 0.84664 0.0
C962 C 0.18549 0.12821 0.84388 0.0
C963 C 0.17132 0.13354 0.85893 0.0
C964 C 0.21235 0.10612 0.83147 0.0
C965 C 0.20715 0.09899 0.81126 0.0
C966 C 0.23243 0.1087 0.83685 0.0
C967 C 0.2387 0.11666 0.85784 0.0
C968 C 0.23254 0.13547 0.86454 0.0
C969 C 0.23869 0.14297 0.88423 0.0
C970 C 0.25118 0.13187 0.89728 0.0
C971 C 0.2576 0.11327 0.89063 0.0
C972 C 0.25144 0.10569 0.87097 0.0
C973 C 0.27195 0.11101 0.75258 0.0
C974 C 0.28936 0.10037 0.75644 0.0
C975 C 0.25604 0.10949 0.76659 0.0
C976 C 0.25729 0.0973 0.78463 0.0
C977 C 0.27429 0.08594 0.78796 0.0
C978 C 0.29017 0.08739 0.7739 0.0
C979 C 0.24169 0.09806 0.80104 0.0
C980 C 0.24689 0.10448 0.82158 0.0
C981 C 0.22163 0.09475 0.79596 0.0
C982 C 0.21553 0.08669 0.77494 0.0
C983 C 0.22419 0.06933 0.76698 0.0
C984 C 0.2186 0.06191 0.74707 0.0
C985 C 0.20427 0.07166 0.73501 0.0
C986 C 0.19547 0.08882 0.74286 0.0
C987 C 0.20102 0.09631 0.76275 0.0
H988 H 0.19997 0.0659 0.71959 0.0
H989 H 0.25595 0.13771 0.91251 0.0
H990 H 0.1036 0.94411 0.13884 0.0
H991 H 0.11137 0.96746 0.11063 0.0
H992 H 0.15659 0.92849 0.08688 0.0
H993 H 0.14902 0.90487 0.11551 0.0
H994 H 0.16713 0.96993 0.08715 0.0
H995 H 0.11486 0.92782 0.06187 0.0
H996 H 0.083 0.91042 0.06487 0.0
H997 H 0.05297 0.96575 0.07226 0.0
H998 H 0.08467 0.98346 0.06966 0.0
H999 H 0.16469 0.03483 0.99462 0.0
H1000 H 0.16693 0.00563 0.01773 0.0
H1001 H 0.11337 0.02342 0.04966 0.0
H1002 H 0.11068 0.05185 0.0263 0.0
H1003 H 0.11108 0.9867 0.0396 0.0
H1004 H 0.16153 0.02847 0.07161 0.0
H1005 H 0.19267 0.0473 0.07277 0.0
H1006 H 0.22511 0.99528 0.05564 0.0
H1007 H 0.19413 0.97616 0.05422 0.0
C1008 C 0.11526 0.94046 0.12771 0.0
C1009 C 0.12552 0.92252 0.12921 0.0
C1010 C 0.1197 0.95385 0.11162 0.0
C1011 C 0.13432 0.94952 0.09652 0.0
C1012 C 0.1452 0.93201 0.09838 0.0
C1013 C 0.14081 0.91854 0.11465 0.0
C1014 C 0.1372 0.96306 0.0783 0.0
C1015 C 0.15507 0.97339 0.0764 0.0
C1016 C 0.12134 0.9676 0.06452 0.0
C1017 C 0.10218 0.95696 0.06562 0.0
C1018 C 0.10148 0.93627 0.06422 0.0
C1019 C 0.08344 0.92635 0.06586 0.0
C1020 C 0.06598 0.93697 0.06876 0.0
C1021 C 0.06651 0.95753 0.06999 0.0
C1022 C 0.0845 0.96752 0.0684 0.0
C1023 C 0.15339 0.03237 0.00654 0.0
C1024 C 0.13732 0.04539 0.00843 0.0
C1025 C 0.15477 0.01581 0.01983 0.0
C1026 C 0.14032 0.01233 0.03544 0.0
C1027 C 0.12458 0.02565 0.03757 0.0
C1028 C 0.12301 0.04188 0.02414 0.0
C1029 C 0.14064 0.9945 0.04913 0.0
C1030 C 0.12336 0.98311 0.05001 0.0
C1031 C 0.15693 0.98931 0.06216 0.0
C1032 C 0.17547 0.00095 0.0625 0.0
C1033 C 0.17527 0.0211 0.06784 0.0
C1034 C 0.19291 0.03181 0.06862 0.0
C1035 C 0.21085 0.02252 0.06419 0.0
C1036 C 0.2112 0.00248 0.05901 0.0
C1037 C 0.19361 0.99169 0.05823 0.0
H1038 H 0.22448 0.03083 0.06485 0.0
H1039 H 0.05204 0.92926 0.07005 0.0
H1040 H 0.78326 0.86918 0.74744 0.0
H1041 H 0.75277 0.87003 0.76806 0.0
H1042 H 0.7756 0.91847 0.80535 0.0
H1043 H 0.80657 0.91701 0.78537 0.0
H1044 H 0.7625 0.89184 0.83066 0.0
H1045 H 0.73505 0.92321 0.76912 0.0
H1046 H 0.72745 0.92763 0.73095 0.0
H1047 H 0.69613 0.87258 0.73035 0.0
H1048 H 0.70372 0.86771 0.76845 0.0
H1049 H 0.66966 0.90009 0.88653 0.0
H1050 H 0.69595 0.90932 0.86135 0.0
H1051 H 0.69173 0.8521 0.83167 0.0
H1052 H 0.66604 0.84259 0.85716 0.0
H1053 H 0.69415 0.88738 0.80279 0.0
H1054 H 0.72474 0.85497 0.86311 0.0
H1055 H 0.73305 0.85007 0.90102 0.0
H1056 H 0.75932 0.90765 0.9034 0.0
H1057 H 0.75077 0.91308 0.86559 0.0
C1058 C 0.78163 0.88027 0.75975 0.0
C1059 C 0.79733 0.89295 0.76489 0.0
C1060 C 0.76412 0.88082 0.77149 0.0
C1061 C 0.76176 0.89442 0.78822 0.0
C1062 C 0.77708 0.9078 0.79259 0.0
C1063 C 0.79475 0.90698 0.78114 0.0
C1064 C 0.74427 0.89327 0.8025 0.0
C1065 C 0.74754 0.89142 0.82454 0.0
C1066 C 0.72471 0.89213 0.79456 0.0
C1067 C 0.72007 0.89505 0.77163 0.0
C1068 C 0.72665 0.91199 0.76082 0.0
C1069 C 0.72232 0.91458 0.73919 0.0
C1070 C 0.71134 0.90038 0.72822 0.0
C1071 C 0.70463 0.88357 0.73887 0.0
C1072 C 0.70891 0.8809 0.76049 0.0
C1073 C 0.67416 0.88965 0.87439 0.0
C1074 C 0.6659 0.87066 0.87369 0.0
C1075 C 0.68918 0.89488 0.86014 0.0
C1076 C 0.69573 0.88134 0.84476 0.0
C1077 C 0.68681 0.86273 0.84343 0.0
C1078 C 0.67221 0.85732 0.85798 0.0
C1079 C 0.71258 0.88605 0.83069 0.0
C1080 C 0.70914 0.88837 0.80878 0.0
C1081 C 0.732 0.88769 0.83872 0.0
C1082 C 0.73671 0.88461 0.86162 0.0
C1083 C 0.73195 0.86674 0.8718 0.0
C1084 C 0.73679 0.86383 0.89326 0.0
C1085 C 0.7466 0.87858 0.90465 0.0
C1086 C 0.75163 0.89627 0.89459 0.0
C1087 C 0.74676 0.89929 0.87316 0.0
H1088 H 0.75039 0.87627 0.92124 0.0
H1089 H 0.70802 0.90242 0.71148 0.0
H1090 H 0.8652 0.02426 0.48596 0.0
H1091 H 0.86332 0.99575 0.51 0.0
H1092 H 0.82977 0.03024 0.55494 0.0
H1093 H 0.8311 0.05856 0.53093 0.0
H1094 H 0.8691 0.01168 0.56853 0.0
H1095 H 0.80525 -0.00172 0.53638 0.0
H1096 H 0.78307 0.99198 0.50594 0.0
H1097 H 0.81727 0.94111 0.48871 0.0
H1098 H 0.8398 0.94727 0.51893 0.0
H1099 H 0.84648 0.94695 0.65186 0.0
H1100 H 0.84403 0.97089 0.62302 0.0
H1101 H 0.86196 0.92648 0.57775 0.0
H1102 H 0.86442 0.90225 0.60663 0.0
H1103 H 0.832 0.94882 0.56223 0.0
H1104 H 0.89453 0.95957 0.59372 0.0
H1105 H 0.91956 0.96553 0.6215 0.0
H1106 H 0.89214 0.0207 0.63708 0.0
H1107 H 0.86661 0.0149 0.60975 0.0
C1108 C 0.85703 0.0256 0.50074 0.0
C1109 C 0.8484 0.04364 0.50663 0.0
C1110 C 0.85596 0.00934 0.5144 0.0
C1111 C 0.84649 0.01104 0.53418 0.0
C1112 C 0.83712 0.02873 0.53968 0.0
C1113 C 0.83785 0.04485 0.52589 0.0
C1114 C 0.84806 0.99513 0.55008 0.0
C1115 C 0.8608 -0.00198 0.56741 0.0
C1116 C 0.83787 0.97709 0.54788 0.0
C1117 C 0.82434 0.97337 0.52976 0.0
C1118 C 0.80816 0.98587 0.52597 0.0
C1119 C 0.79549 0.9823 0.5088 0.0
C1120 C 0.7988 0.96619 0.49535 0.0
C1121 C 0.81474 0.9536 0.49911 0.0
C1122 C 0.82745 0.95711 0.51627 0.0
C1123 C 0.84972 0.94215 0.63576 0.0
C1124 C 0.85571 0.92268 0.63155 0.0
C1125 C 0.84843 0.95592 0.61931 0.0
C1126 C 0.85311 0.95053 0.59832 0.0
C1127 C 0.85837 0.93093 0.59388 0.0
C1128 C 0.85975 0.91712 0.61039 0.0
C1129 C 0.85268 0.96552 0.58116 0.0
C1130 C 0.84031 0.96245 0.56349 0.0
C1131 C 0.86352 0.98333 0.58283 0.0
C1132 C 0.87845 0.98664 0.59985 0.0
C1133 C 0.89362 0.97283 0.60329 0.0
C1134 C 0.90793 0.97621 0.61895 0.0
C1135 C 0.90735 0.99343 0.63116 0.0
C1136 C 0.89245 0.0073 0.62774 0.0
C1137 C 0.87806 0.00398 0.61217 0.0
H1138 H 0.91848 0.99606 0.64321 0.0
H1139 H 0.78897 0.96345 0.48206 0.0
H1140 H 0.6836 0.10565 0.30161 0.0
H1141 H 0.71589 0.10399 0.31874 0.0
H1142 H 0.74409 0.10204 0.25717 0.0
H1143 H 0.71166 0.10449 0.23972 0.0
H1144 H 0.7514 0.07401 0.30926 0.0
H1145 H 0.76246 0.13264 0.26089 0.0
H1146 H 0.7494 0.16261 0.24358 0.0
H1147 H 0.7301 0.18455 0.30434 0.0
H1148 H 0.74261 0.15444 0.32189 0.0
H1149 H 0.8422 0.09871 0.36583 0.0
H1150 H 0.81875 0.09119 0.33699 0.0
H1151 H 0.77854 0.13472 0.36207 0.0
H1152 H 0.80172 0.14241 0.39043 0.0
H1153 H 0.78268 0.13935 0.32047 0.0
H1154 H 0.77127 0.08505 0.36936 0.0
H1155 H 0.78028 0.05552 0.39015 0.0
H1156 H 0.7974 0.02572 0.33262 0.0
H1157 H 0.78869 0.05519 0.31151 0.0
C1158 C 0.69663 0.10462 0.29165 0.0
C1159 C 0.69513 0.10537 0.26931 0.0
C1160 C 0.71505 0.10365 0.30148 0.0
C1161 C 0.73231 0.10313 0.2892 0.0
C1162 C 0.7309 0.10277 0.26688 0.0
C1163 C 0.71242 0.10413 0.25697 0.0
C1164 C 0.75155 0.10461 0.30016 0.0
C1165 C 0.75873 0.08813 0.31123 0.0
C1166 C 0.76065 0.12314 0.30313 0.0
C1167 C 0.75313 0.14118 0.2926 0.0
C1168 C 0.75516 0.14373 0.27049 0.0
C1169 C 0.74791 0.16076 0.26065 0.0
C1170 C 0.73884 0.17544 0.27284 0.0
C1171 C 0.73704 0.17313 0.2949 0.0
C1172 C 0.74417 0.15608 0.30479 0.0
C1173 C 0.82831 0.10659 0.36518 0.0
C1174 C 0.82388 0.12126 0.38031 0.0
C1175 C 0.81494 0.10226 0.34873 0.0
C1176 C 0.79693 0.11247 0.34732 0.0
C1177 C 0.79243 0.12682 0.36268 0.0
C1178 C 0.80572 0.13117 0.37895 0.0
C1179 C 0.78261 0.10875 0.32986 0.0
C1180 C 0.77612 0.12496 0.31781 0.0
C1181 C 0.77408 0.08998 0.32619 0.0
C1182 C 0.77962 0.07241 0.33891 0.0
C1183 C 0.77717 0.07228 0.36118 0.0
C1184 C 0.78216 0.05553 0.37301 0.0
C1185 C 0.78949 0.03878 0.36272 0.0
C1186 C 0.79179 0.03873 0.34057 0.0
C1187 C 0.78682 0.05544 0.32867 0.0
H1188 H 0.79332 0.02582 0.37191 0.0
H1189 H 0.73328 0.18863 0.2652 0.0
H1190 H 0.66955 0.9585 0.99166 0.0
H1191 H 0.67143 0.98883 0.01307 0.0
H1192 H 0.61526 0.97478 0.0417 0.0
H1193 H 0.61336 0.94474 0.02066 0.0
H1194 H 0.61614 0.01203 0.02747 0.0
H1195 H 0.65706 0.96901 0.0706 0.0
H1196 H 0.68518 0.9469 0.07779 0.0
H1197 H 0.72561 0.99244 0.05889 0.0
H1198 H 0.69767 0.01486 0.05165 0.0
H1199 H 0.6007 0.05606 0.1247 0.0
H1200 H 0.609 0.03349 0.09614 0.0
H1201 H 0.66066 0.068 0.08117 0.0
H1202 H 0.6526 0.09083 0.11052 0.0
H1203 H 0.66728 0.0265 0.08192 0.0
H1204 H 0.62137 0.07161 0.04929 0.0
H1205 H 0.5906 0.09103 0.04816 0.0
H1206 H 0.55642 0.03778 0.05116 0.0
H1207 H 0.58692 0.01806 0.05271 0.0
C1208 C 0.65775 0.96185 0.00269 0.0
C1209 C 0.64131 0.94929 0.00445 0.0
C1210 C 0.65882 0.97915 0.01486 0.0
C1211 C 0.64345 0.98405 0.02891 0.0
C1212 C 0.62719 0.97137 0.0308 0.0
C1213 C 0.62612 0.95421 0.01872 0.0
C1214 C 0.64361 0.00259 0.04138 0.0
C1215 C 0.62737 0.01527 0.0393 0.0
C1216 C 0.65851 0.00702 0.05643 0.0
C1217 C 0.6753 0.99351 0.06034 0.0
C1218 C 0.67195 0.97425 0.06782 0.0
C1219 C 0.68785 0.9617 0.07201 0.0
C1220 C 0.70717 0.96824 0.06875 0.0
C1221 C 0.71063 0.98738 0.06138 0.0
C1222 C 0.69478 4e-05 0.05729 0.0
C1223 C 0.61381 0.05903 0.11537 0.0
C1224 C 0.62591 0.07538 0.11979 0.0
C1225 C 0.61851 0.04608 0.09897 0.0
C1226 C 0.63522 0.04928 0.08629 0.0
C1227 C 0.6476 0.06539 0.09073 0.0
C1228 C 0.64295 0.07842 0.10739 0.0
C1229 C 0.63937 0.03544 0.06857 0.0
C1230 C 0.65641 0.02369 0.06957 0.0
C1231 C 0.6249 0.0315 0.05284 0.0
C1232 C 0.60649 0.04335 0.05112 0.0
C1233 C 0.6073 0.06404 0.04975 0.0
C1234 C 0.58989 0.07511 0.04906 0.0
C1235 C 0.57157 0.06565 0.04958 0.0
C1236 C 0.57061 0.0451 0.05072 0.0
C1237 C 0.58796 0.03397 0.05146 0.0
H1238 H 0.55812 0.07425 0.04911 0.0
H1239 H 0.71946 0.95849 0.07195 0.0
H1240 H 0.80232 0.08607 0.70911 0.0
H1241 H 0.77265 0.08875 0.68715 0.0
H1242 H 0.74183 0.1165 0.73924 0.0
H1243 H 0.77173 0.11446 0.76127 0.0
H1244 H 0.72429 0.07937 0.7042 0.0
H1245 H 0.74533 0.14868 0.71791 0.0
H1246 H 0.77052 0.17486 0.72031 0.0
H1247 H 0.79051 0.16102 0.65708 0.0
H1248 H 0.76561 0.13451 0.65448 0.0
H1249 H 0.64516 0.11759 0.63881 0.0
H1250 H 0.66855 0.10989 0.66758 0.0
H1251 H 0.71714 0.1216 0.62482 0.0
H1252 H 0.69397 0.13029 0.59672 0.0
H1253 H 0.72367 0.13954 0.65922 0.0
H1254 H 0.70223 0.07339 0.6426 0.0
H1255 H 0.67843 0.04618 0.63797 0.0
H1256 H 0.66074 0.0517 0.70345 0.0
H1257 H 0.68427 0.0791 0.7084 0.0
C1258 C 0.78915 0.09243 0.71608 0.0
C1259 C 0.78939 0.10023 0.73686 0.0
C1260 C 0.77224 0.09393 0.7035 0.0
C1261 C 0.75523 0.10293 0.71162 0.0
C1262 C 0.75494 0.10958 0.73277 0.0
C1263 C 0.77199 0.10842 0.74528 0.0
C1264 C 0.73856 0.10695 0.69719 0.0
C1265 C 0.72382 0.09265 0.69456 0.0
C1266 C 0.73845 0.12401 0.68433 0.0
C1267 C 0.75385 0.13943 0.68616 0.0
C1268 C 0.75532 0.151 0.70467 0.0
C1269 C 0.76948 0.16596 0.70603 0.0
C1270 C 0.78213 0.16957 0.68888 0.0
C1271 C 0.78072 0.15817 0.67037 0.0
C1272 C 0.76661 0.14317 0.66895 0.0
C1273 C 0.66086 0.11839 0.63566 0.0
C1274 C 0.66782 0.12473 0.61571 0.0
C1275 C 0.6742 0.11387 0.65201 0.0
C1276 C 0.69465 0.1151 0.64838 0.0
C1277 C 0.70147 0.12073 0.62813 0.0
C1278 C 0.68822 0.1257 0.61206 0.0
C1279 C 0.70917 0.11183 0.66576 0.0
C1280 C 0.72372 0.1263 0.66893 0.0
C1281 C 0.70915 0.09477 0.67885 0.0
C1282 C 0.69484 0.07846 0.67579 0.0
C1283 C 0.69313 0.06893 0.65595 0.0
C1284 C 0.67972 0.05344 0.65329 0.0
C1285 C 0.66803 0.04726 0.67039 0.0
C1286 C 0.66976 0.05653 0.69021 0.0
C1287 C 0.68314 0.07203 0.69295 0.0
H1288 H 0.65768 0.03525 0.6683 0.0
H1289 H 0.79294 0.18129 0.68991 0.0
H1290 H 0.62996 0.02273 0.51107 0.0
H1291 H 0.63266 0.99429 0.48703 0.0
H1292 H 0.66077 0.03096 0.43983 0.0
H1293 H 0.6587 0.05926 0.46387 0.0
H1294 H 0.61822 0.00762 0.43374 0.0
H1295 H 0.68921 0.00442 0.44925 0.0
H1296 H 0.71708 0.00162 0.47438 0.0
H1297 H 0.69409 0.94659 0.49744 0.0
H1298 H 0.66591 0.94923 0.47263 0.0
H1299 H 0.63219 0.95205 0.34282 0.0
H1300 H 0.63906 0.97423 0.37244 0.0
H1301 H 0.63665 0.92533 0.41636 0.0
H1302 H 0.6301 0.90276 0.38651 0.0
H1303 H 0.66587 0.95233 0.42737 0.0
H1304 H 0.59659 0.95354 0.413 0.0
H1305 H 0.56649 0.95552 0.39101 0.0
H1306 H 0.58371 0.01292 0.36888 0.0
H1307 H 0.61402 0.01119 0.39065 0.0
C1308 C 0.63713 0.0246 0.49576 0.0
C1309 C 0.64393 0.04323 0.48922 0.0
C1310 C 0.63874 0.00836 0.48215 0.0
C1311 C 0.647 0.01062 0.46181 0.0
C1312 C 0.65454 0.02897 0.4556 0.0
C1313 C 0.65326 0.04511 0.46932 0.0
C1314 C 0.645 0.9948 0.44589 0.0
C1315 C 0.62877 0.99568 0.43211 0.0
C1316 C 0.6583 0.97884 0.44459 0.0
C1317 C 0.67534 0.97714 0.45929 0.0
C1318 C 0.68999 0.99183 0.45984 0.0
C1319 C 0.70587 0.99025 0.47398 0.0
C1320 C 0.70732 0.97397 0.48755 0.0
C1321 C 0.69293 0.95921 0.48694 0.0
C1322 C 0.67702 0.96073 0.47283 0.0
C1323 C 0.63327 0.94592 0.35874 0.0
C1324 C 0.63031 0.9257 0.36239 0.0
C1325 C 0.63721 0.95863 0.37566 0.0
C1326 C 0.63799 0.95147 0.39662 0.0
C1327 C 0.63603 0.93114 0.40028 0.0
C1328 C 0.63223 0.9183 0.38325 0.0
C1329 C 0.63945 0.96559 0.41457 0.0
C1330 C 0.65536 0.96431 0.4289 0.0
C1331 C 0.62568 0.98115 0.41666 0.0
C1332 C 0.60757 0.98222 0.4034 0.0
C1333 C 0.594 0.96653 0.40334 0.0
C1334 C 0.5769 0.96761 0.39093 0.0
C1335 C 0.5732 0.9843 0.3785 0.0
C1336 C 0.58658 -1e-05 0.37852 0.0
C1337 C 0.6037 -0.001 0.39095 0.0
H1338 H 0.55995 0.98509 0.36889 0.0
H1339 H 0.71962 0.97277 0.49849 0.0
H1340 H 0.79956 0.87237 0.10123 0.0
H1341 H 0.77588 0.88265 0.12857 0.0
H1342 H 0.82346 0.89031 0.17351 0.0
H1343 H 0.84743 0.88079 0.1458 0.0
H1344 H 0.78251 0.86003 0.17759 0.0
H1345 H 0.81099 0.92675 0.17115 0.0
H1346 H 0.82092 0.95553 0.14964 0.0
H1347 H 0.7618 0.96097 0.12567 0.0
H1348 H 0.75161 0.93197 0.14674 0.0
H1349 H 0.72189 0.88174 0.26343 0.0
H1350 H 0.75101 0.88416 0.24061 0.0
H1351 H 0.71577 0.91097 0.19115 0.0
H1352 H 0.68669 0.90897 0.21406 0.0
H1353 H 0.75233 0.9257 0.19023 0.0
H1354 H 0.72241 0.86268 0.19084 0.0
H1355 H 0.70816 0.83243 0.20625 0.0
H1356 H 0.76433 0.81758 0.2336 0.0
H1357 H 0.77885 0.84798 0.21867 0.0
C1358 C 0.80497 0.87656 0.11686 0.0
C1359 C 0.82521 0.87582 0.12155 0.0
C1360 C 0.79149 0.8825 0.13235 0.0
C1361 C 0.79803 0.8874 0.15286 0.0
C1362 C 0.81827 0.88688 0.15759 0.0
C1363 C 0.83187 0.88144 0.14186 0.0
C1364 C 0.78336 0.8909 0.16974 0.0
C1365 C 0.77626 0.87446 0.18085 0.0
C1366 C 0.7745 0.90953 0.17284 0.0
C1367 C 0.78062 0.92703 0.16031 0.0
C1368 C 0.80017 0.93392 0.16108 0.0
C1369 C 0.80583 0.95031 0.14902 0.0
C1370 C 0.79202 0.96003 0.13624 0.0
C1371 C 0.7725 0.95341 0.13554 0.0
C1372 C 0.76677 0.937 0.14755 0.0
C1373 C 0.72044 0.88852 0.24787 0.0
C1374 C 0.70199 0.8949 0.24038 0.0
C1375 C 0.73707 0.8899 0.23486 0.0
C1376 C 0.73544 0.89735 0.21404 0.0
C1377 C 0.71734 0.90512 0.20714 0.0
C1378 C 0.70073 0.90392 0.22024 0.0
C1379 C 0.75191 0.8949 0.19876 0.0
C1380 C 0.75899 0.91137 0.18755 0.0
C1381 C 0.76028 0.8761 0.19488 0.0
C1382 C 0.75166 0.85775 0.20388 0.0
C1383 C 0.73169 0.85307 0.20031 0.0
C1384 C 0.72356 0.83588 0.20893 0.0
C1385 C 0.73532 0.82312 0.22096 0.0
C1386 C 0.75524 0.82751 0.22433 0.0
C1387 C 0.76342 0.84472 0.2158 0.0
H1388 H 0.72901 0.8098 0.2276 0.0
H1389 H 0.79643 0.97273 0.12692 0.0
H1390 H 0.89004 0.09099 0.90503 0.0
H1391 H 0.88168 0.06463 0.93 0.0
H1392 H 0.83949 0.04135 0.88491 0.0
H1393 H 0.8471 0.06826 0.86036 0.0
H1394 H 0.82563 0.03572 0.92221 0.0
H1395 H 0.88756 0.02251 0.88974 0.0
H1396 H 0.92184 0.02828 0.87807 0.0
H1397 H 0.94019 0.03451 0.94326 0.0
H1398 H 0.90597 0.02902 0.95533 0.0
H1399 H 0.83217 0.93608 0.96269 0.0
H1400 H 0.83146 0.96644 0.94169 0.0
H1401 H 0.86569 0.99601 0.99013 0.0
H1402 H 0.86672 0.96569 0.01108 0.0
H1403 H 0.88247 -0.00219 0.95054 0.0
H1404 H 0.81708 0.00794 0.98101 0.0
H1405 H 0.78287 -0.00233 0.98868 0.0
H1406 H 0.77135 0.99187 0.92163 0.0
H1407 H 0.80554 0.00191 0.91356 0.0
C1408 C 0.87872 0.08045 0.90064 0.0
C1409 C 0.86931 0.08158 0.88073 0.0
C1410 C 0.87405 0.0653 0.91483 0.0
C1411 C 0.86033 0.05067 0.9091 0.0
C1412 C 0.85018 0.05239 0.88967 0.0
C1413 C 0.85454 0.06779 0.87565 0.0
C1414 C 0.85737 0.0331 0.92284 0.0
C1415 C 0.83807 0.02736 0.92828 0.0
C1416 C 0.87356 0.02201 0.93062 0.0
C1417 C 0.89415 0.02556 0.92343 0.0
C1418 C 0.89887 0.02528 0.90158 0.0
C1419 C 0.9183 0.02845 0.8949 0.0
C1420 C 0.93318 0.03176 0.90992 0.0
C1421 C 0.92865 0.03192 0.93165 0.0
C1422 C 0.90924 0.02878 0.93843 0.0
C1423 C 0.8392 0.94916 0.96909 0.0
C1424 C 0.84973 0.94845 0.98841 0.0
C1425 C 0.83872 0.96651 0.95709 0.0
C1426 C 0.84855 0.98344 0.96437 0.0
C1427 C 0.85808 0.98305 0.98423 0.0
C1428 C 0.85864 0.96573 0.99617 0.0
C1429 C 0.85085 0.00085 0.9504 0.0
C1430 C 0.87007 0.00637 0.94467 0.0
C1431 C 0.83458 0.01122 0.94181 0.0
C1432 C 0.81392 0.00556 0.9467 0.0
C1433 C 0.80728 0.00439 0.96791 0.0
C1434 C 0.78789 -0.00138 0.97232 0.0
C1435 C 0.77496 0.99409 0.95565 0.0
C1436 C 0.78137 0.99539 0.93452 0.0
C1437 C 0.80075 0.00115 0.93002 0.0
H1438 H 0.75996 0.9896 0.95911 0.0
H1439 H 0.94821 0.03422 0.90471 0.0
H1440 H 0.68492 0.59568 0.70088 0.0
H1441 H 0.71342 0.5956 0.67749 0.0
H1442 H 0.75185 0.60453 0.73158 0.0
H1443 H 0.72289 0.60576 0.75516 0.0
H1444 H 0.76303 0.62735 0.70157 0.0
H1445 H 0.74911 0.5586 0.70262 0.0
H1446 H 0.72815 0.52888 0.70103 0.0
H1447 H 0.71198 0.54278 0.63655 0.0
H1448 H 0.73264 0.5727 0.63782 0.0
H1449 H 0.84157 0.61965 0.62484 0.0
H1450 H 0.82059 0.61149 0.65549 0.0
H1451 H 0.76961 0.61013 0.61425 0.0
H1452 H 0.79055 0.61788 0.58359 0.0
H1453 H 0.77002 0.5793 0.64238 0.0
H1454 H 0.78077 0.65045 0.64434 0.0
H1455 H 0.80138 0.68036 0.64677 0.0
H1456 H 0.82427 0.66087 0.70705 0.0
H1457 H 0.80401 0.63068 0.70482 0.0
C1458 C 0.69945 0.59731 0.70789 0.0
C1459 C 0.70174 0.60054 0.72987 0.0
C1460 C 0.7158 0.59716 0.69447 0.0
C1461 C 0.73492 0.59955 0.70275 0.0
C1462 C 0.73728 0.60251 0.72481 0.0
C1463 C 0.72078 0.60315 0.73826 0.0
C1464 C 0.75207 0.60025 0.68798 0.0
C1465 C 0.76486 0.61654 0.68896 0.0
C1466 C 0.75446 0.58625 0.67139 0.0
C1467 C 0.74243 0.56793 0.67034 0.0
C1468 C 0.74106 0.55534 0.68811 0.0
C1469 C 0.72922 0.53846 0.68727 0.0
C1470 C 0.71874 0.53395 0.66871 0.0
C1471 C 0.72013 0.54627 0.65091 0.0
C1472 C 0.73195 0.56316 0.65166 0.0
C1473 C 0.8259 0.61743 0.62233 0.0
C1474 C 0.81757 0.61967 0.60193 0.0
C1475 C 0.81395 0.61287 0.63985 0.0
C1476 C 0.79352 0.61043 0.63718 0.0
C1477 C 0.78533 0.61204 0.61668 0.0
C1478 C 0.79724 0.61666 0.59923 0.0
C1479 C 0.78039 0.60669 0.65565 0.0
C1480 C 0.76844 0.58979 0.65534 0.0
C1481 C 0.77894 0.62 0.67297 0.0
C1482 C 0.79108 0.63818 0.67427 0.0
C1483 C 0.79034 0.65245 0.65801 0.0
C1484 C 0.80193 0.66948 0.65938 0.0
C1485 C 0.81418 0.67248 0.67701 0.0
C1486 C 0.81482 0.6585 0.69337 0.0
C1487 C 0.80329 0.64143 0.69206 0.0
H1488 H 0.82314 0.68567 0.67804 0.0
H1489 H 0.70954 0.5209 0.66811 0.0
H1490 H 0.59651 0.56998 0.88601 0.0
H1491 H 0.60761 0.54754 0.91398 0.0
H1492 H 0.66799 0.55577 0.89411 0.0
H1493 H 0.65696 0.57862 0.86613 0.0
H1494 H 0.65609 0.51573 0.89773 0.0
H1495 H 0.65714 0.57358 0.9396 0.0
H1496 H 0.64528 0.60514 0.95428 0.0
H1497 H 0.59607 0.57556 0.98321 0.0
H1498 H 0.60743 0.54384 0.96842 0.0
H1499 H 0.67412 0.44645 0.98221 0.0
H1500 H 0.67778 0.47656 0.96094 0.0
H1501 H 0.61605 0.48958 0.97039 0.0
H1502 H 0.61248 0.46 0.99205 0.0
H1503 H 0.63794 0.52229 0.97404 0.0
H1504 H 0.63432 0.46581 0.92501 0.0
H1505 H 0.6466 0.43462 0.90954 0.0
H1506 H 0.70165 0.46243 0.89405 0.0
H1507 H 0.68986 0.49367 0.90962 0.0
C1508 C 0.61217 0.56721 0.88774 0.0
C1509 C 0.62587 0.57601 0.8739 0.0
C1510 C 0.6185 0.55447 0.90378 0.0
C1511 C 0.63862 0.55011 0.90615 0.0
C1512 C 0.65241 0.55905 0.89255 0.0
C1513 C 0.6461 0.57211 0.87667 0.0
C1514 C 0.64475 0.53515 0.92198 0.0
C1515 C 0.6526 0.51729 0.91453 0.0
C1516 C 0.64009 0.53725 0.94383 0.0
C1517 C 0.6331 0.55631 0.95277 0.0
C1518 C 0.64369 0.57381 0.94894 0.0
C1519 C 0.63708 0.59173 0.95731 0.0
C1520 C 0.61992 0.59236 0.96965 0.0
C1521 C 0.60936 0.57505 0.97365 0.0
C1522 C 0.6159 0.55708 0.96529 0.0
C1523 C 0.66145 0.45596 0.98007 0.0
C1524 C 0.64304 0.4509 0.98885 0.0
C1525 C 0.66352 0.47305 0.96777 0.0
C1526 C 0.64713 0.48523 0.96394 0.0
C1527 C 0.6289 0.48043 0.97318 0.0
C1528 C 0.62685 0.46344 0.98547 0.0
C1529 C 0.64838 0.50255 0.9496 0.0
C1530 C 0.64191 0.52087 0.95735 0.0
C1531 C 0.65434 0.50088 0.92803 0.0
C1532 C 0.66131 0.48201 0.91873 0.0
C1533 C 0.6491 0.46523 0.91846 0.0
C1534 C 0.65595 0.44755 0.90963 0.0
C1535 C 0.67487 0.44654 0.90086 0.0
C1536 C 0.687 0.46321 0.90086 0.0
C1537 C 0.68026 0.4809 0.90968 0.0
H1538 H 0.68013 0.43285 0.89403 0.0
H1539 H 0.61483 0.60625 0.97613 0.0
H1540 H 0.67689 0.39522 0.09884 0.0
H1541 H 0.70283 0.40418 0.12455 0.0
H1542 H 0.68655 0.35463 0.16393 0.0
H1543 H 0.66134 0.34505 0.13774 0.0
H1544 H 0.69311 0.39737 0.184 0.0
H1545 H 0.72017 0.34379 0.14243 0.0
H1546 H 0.73004 0.32607 0.10986 0.0
H1547 H 0.76843 0.37389 0.09264 0.0
H1548 H 0.7583 0.39218 0.12486 0.0
H1549 H 0.77353 0.3748 0.25264 0.0
H1550 H 0.7449 0.37671 0.22907 0.0
H1551 H 0.77779 0.41351 0.18563 0.0
H1552 H 0.80653 0.41166 0.2091 0.0
H1553 H 0.76262 0.38108 0.16647 0.0
H1554 H 0.73872 0.4324 0.21148 0.0
H1555 H 0.72995 0.44846 0.24545 0.0
H1556 H 0.68698 0.40335 0.25784 0.0
H1557 H 0.69567 0.38684 0.22407 0.0
C1558 C 0.67877 0.38643 0.11312 0.0
C1559 C 0.66723 0.36953 0.11651 0.0
C1560 C 0.69355 0.39149 0.12769 0.0
C1561 C 0.6965 0.38002 0.14602 0.0
C1562 C 0.6844 0.36362 0.14984 0.0
C1563 C 0.6701 0.35817 0.13494 0.0
C1564 C 0.71275 0.38464 0.16081 0.0
C1565 C 0.70833 0.39374 0.18031 0.0
C1566 C 0.73255 0.38022 0.15561 0.0
C1567 C 0.73803 0.36961 0.13577 0.0
C1568 C 0.73032 0.35077 0.13145 0.0
C1569 C 0.73607 0.34055 0.11311 0.0
C1570 C 0.74974 0.34891 0.0991 0.0
C1571 C 0.75771 0.3675 0.10342 0.0
C1572 C 0.75193 0.37782 0.12169 0.0
C1573 C 0.77455 0.38362 0.23829 0.0
C1574 C 0.79233 0.39292 0.23262 0.0
C1575 C 0.75814 0.3848 0.2249 0.0
C1576 C 0.75923 0.3953 0.20566 0.0
C1577 C 0.77666 0.40538 0.20046 0.0
C1578 C 0.79305 0.40432 0.2139 0.0
C1579 C 0.74309 0.39367 0.18989 0.0
C1580 C 0.74749 0.38505 0.17012 0.0
C1581 C 0.7233 0.39838 0.19497 0.0
C1582 C 0.71797 0.4083 0.21529 0.0
C1583 C 0.72751 0.42581 0.22152 0.0
C1584 C 0.72253 0.43501 0.24073 0.0
C1585 C 0.70795 0.42691 0.25382 0.0
C1586 C 0.69828 0.4096 0.24769 0.0
C1587 C 0.70321 0.40033 0.22849 0.0
H1588 H 0.70412 0.43405 0.26869 0.0
H1589 H 0.75425 0.34094 0.08496 0.0
H1590 H 0.8228 0.54537 0.47609 0.0
H1591 H 0.82276 0.51713 0.45173 0.0
H1592 H 0.87508 0.4945 0.48224 0.0
H1593 H 0.8752 0.52247 0.50674 0.0
H1594 H 0.87769 0.50269 0.43674 0.0
H1595 H 0.83487 0.46982 0.48834 0.0
H1596 H 0.80462 0.46793 0.51012 0.0
H1597 H 0.76909 0.47123 0.45351 0.0
H1598 H 0.79915 0.47337 0.4314 0.0
H1599 H 0.90051 0.41659 0.3838 0.0
H1600 H 0.89177 0.44012 0.41164 0.0
H1601 H 0.83286 0.44458 0.38581 0.0
H1602 H 0.84135 0.42001 0.3585 0.0
H1603 H 0.83049 0.44747 0.42683 0.0
H1604 H 0.86898 0.48011 0.37477 0.0
H1605 H 0.89664 0.48598 0.35002 0.0
H1606 H 0.93701 0.48831 0.40277 0.0
H1607 H 0.90961 0.48226 0.42784 0.0
C1608 C 0.83402 0.53413 0.47797 0.0
C1609 C 0.84916 0.53629 0.49318 0.0
C1610 C 0.83394 0.51801 0.46405 0.0
C1611 C 0.84899 0.50387 0.46517 0.0
C1612 C 0.86338 0.50534 0.48116 0.0
C1613 C 0.86339 0.52132 0.49516 0.0
C1614 C 0.8512 0.48884 0.44827 0.0
C1615 C 0.86755 0.49043 0.43473 0.0
C1616 C 0.83728 0.47363 0.44495 0.0
C1617 C 0.81925 0.47192 0.45823 0.0
C1618 C 0.8206 0.47026 0.48054 0.0
C1619 C 0.80349 0.46912 0.49295 0.0
C1620 C 0.78494 0.4695 0.48321 0.0
C1621 C 0.78347 0.47094 0.46103 0.0
C1622 C 0.80054 0.47209 0.44856 0.0
C1623 C 0.88564 0.42244 0.38421 0.0
C1624 C 0.87165 0.4167 0.36894 0.0
C1625 C 0.88067 0.43597 0.40004 0.0
C1626 C 0.86183 0.44462 0.40045 0.0
C1627 C 0.84753 0.43823 0.38573 0.0
C1628 C 0.85237 0.42424 0.37016 0.0
C1629 C 0.85755 0.4608 0.41575 0.0
C1630 C 0.8407 0.45966 0.4288 0.0
C1631 C 0.87067 0.47694 0.41818 0.0
C1632 C 0.88725 0.48056 0.40317 0.0
C1633 C 0.88377 0.48174 0.38109 0.0
C1634 C 0.8994 0.48513 0.367 0.0
C1635 C 0.91858 0.48746 0.37481 0.0
C1636 C 0.92215 0.48648 0.39674 0.0
C1637 C 0.90657 0.4831 0.4109 0.0
H1638 H 0.93066 0.49008 0.36388 0.0
H1639 H 0.77171 0.46865 0.49284 0.0
H1640 H 0.68917 0.39027 0.80045 0.0
H1641 H 0.7195 0.39169 0.821 0.0
H1642 H 0.75363 0.38881 0.76295 0.0
H1643 H 0.72297 0.38629 0.7422 0.0
H1644 H 0.76877 0.36511 0.7908 0.0
H1645 H 0.74962 0.43311 0.79464 0.0
H1646 H 0.72655 0.46076 0.80032 0.0
H1647 H 0.71758 0.44233 0.8651 0.0
H1648 H 0.74045 0.41454 0.8598 0.0
H1649 H 0.8517 0.3766 0.86318 0.0
H1650 H 0.82898 0.38603 0.83424 0.0
H1651 H 0.77938 0.37569 0.87589 0.0
H1652 H 0.80178 0.36584 0.90445 0.0
H1653 H 0.77763 0.41172 0.85108 0.0
H1654 H 0.79019 0.34129 0.8453 0.0
H1655 H 0.81178 0.3123 0.84101 0.0
H1656 H 0.83205 0.33463 0.7808 0.0
H1657 H 0.81081 0.36397 0.78495 0.0
C1658 C 0.7031 0.39021 0.79198 0.0
C1659 C 0.70371 0.3883 0.7697 0.0
C1660 C 0.72049 0.39117 0.80377 0.0
C1661 C 0.73893 0.39091 0.79354 0.0
C1662 C 0.73959 0.38922 0.7712 0.0
C1663 C 0.7221 0.38781 0.75937 0.0
C1664 C 0.75731 0.39104 0.80647 0.0
C1665 C 0.77099 0.37568 0.80357 0.0
C1666 C 0.76014 0.40464 0.82339 0.0
C1667 C 0.74676 0.42171 0.82679 0.0
C1668 C 0.74271 0.43495 0.81009 0.0
C1669 C 0.72966 0.45066 0.81325 0.0
C1670 C 0.72061 0.45331 0.83306 0.0
C1671 C 0.72464 0.44032 0.84978 0.0
C1672 C 0.7377 0.42462 0.84673 0.0
C1673 C 0.83594 0.37649 0.86609 0.0
C1674 C 0.82839 0.37032 0.88587 0.0
C1675 C 0.82305 0.38187 0.84964 0.0
C1676 C 0.80258 0.38153 0.85304 0.0
C1677 C 0.79515 0.37609 0.87304 0.0
C1678 C 0.80793 0.37032 0.88925 0.0
C1679 C 0.78853 0.38559 0.83562 0.0
C1680 C 0.77571 0.40167 0.83776 0.0
C1681 C 0.78642 0.37263 0.81812 0.0
C1682 C 0.79914 0.35497 0.81558 0.0
C1683 C 0.79942 0.34014 0.83127 0.0
C1684 C 0.81156 0.32362 0.82884 0.0
C1685 C 0.82334 0.32166 0.81068 0.0
C1686 C 0.82296 0.3362 0.79489 0.0
C1687 C 0.81088 0.35278 0.79727 0.0
H1688 H 0.8327 0.30884 0.80882 0.0
H1689 H 0.71047 0.46544 0.83546 0.0
H1690 H 0.88346 0.54317 0.14706 0.0
H1691 H 0.875 0.52 0.11883 0.0
H1692 H 0.84516 0.56634 0.08442 0.0
H1693 H 0.8531 0.58964 0.1132 0.0
H1694 H 0.82501 0.53205 0.08139 0.0
H1695 H 0.89192 0.55257 0.07042 0.0
H1696 H 0.9265 0.55922 0.08042 0.0
H1697 H 0.93479 0.49808 0.0958 0.0
H1698 H 0.90018 0.49111 0.08618 0.0
H1699 H 0.85534 0.47191 0.98304 0.0
H1700 H 0.85353 0.50005 0.00766 0.0
H1701 H 0.83991 0.46048 0.0594 0.0
H1702 H 0.8409 0.43252 0.03492 0.0
H1703 H 0.88065 0.49439 0.04989 0.0
H1704 H 0.80996 0.47777 0.06896 0.0
H1705 H 0.77591 0.47162 0.05669 0.0
H1706 H 0.77606 0.52677 0.02302 0.0
H1707 H 0.81032 0.53299 0.03475 0.0
C1708 C 0.87501 0.54844 0.13354 0.0
C1709 C 0.86912 0.56825 0.13218 0.0
C1710 C 0.87022 0.53518 0.1174 0.0
C1711 C 0.85985 0.54155 0.0993 0.0
C1712 C 0.85327 0.56117 0.09821 0.0
C1713 C 0.85783 0.57444 0.1146 0.0
C1714 C 0.85658 0.52772 0.08134 0.0
C1715 C 0.83721 0.52398 0.07439 0.0
C1716 C 0.8725 0.51723 0.07206 0.0
C1717 C 0.8934 0.52135 0.0777 0.0
C1718 C 0.90108 0.54057 0.07606 0.0
C1719 C 0.9207 0.54439 0.08164 0.0
C1720 C 0.93283 0.52908 0.08877 0.0
C1721 C 0.92538 0.50992 0.09028 0.0
C1722 C 0.90577 0.50602 0.08473 0.0
C1723 C 0.85134 0.46935 -0.00046 0.0
C1724 C 0.84819 0.45011 0.0071 0.0
C1725 C 0.85026 0.48537 0.01351 0.0
C1726 C 0.84622 0.48228 0.03518 0.0
C1727 C 0.84241 0.46317 0.04259 0.0
C1728 C 0.84307 0.44722 0.02858 0.0
C1729 C 0.84916 0.49837 0.05061 0.0
C1730 C 0.86853 0.5026 0.05691 0.0
C1731 C 0.83334 0.50928 0.05919 0.0
C1732 C 0.81275 0.50567 0.0524 0.0
C1733 C 0.80282 0.48844 0.0587 0.0
C1734 C 0.78347 0.48496 0.0519 0.0
C1735 C 0.77385 0.49875 0.039 0.0
C1736 C 0.78355 0.51606 0.03294 0.0
C1737 C 0.80293 0.51956 0.03964 0.0
H1738 H 0.75887 0.49604 0.03376 0.0
H1739 H 0.948 0.53208 0.09309 0.0
H1740 H 0.77633 0.58862 0.24141 0.0
H1741 H 0.74657 0.58658 0.26396 0.0
H1742 H 0.77796 0.61627 0.3147 0.0
H1743 H 0.80759 0.61705 0.2929 0.0
H1744 H 0.7604 0.58711 0.33053 0.0
H1745 H 0.74082 0.63808 0.27962 0.0
H1746 H 0.73279 0.65095 0.24385 0.0
H1747 H 0.68766 0.60694 0.23676 0.0
H1748 H 0.6956 0.59367 0.2724 0.0
H1749 H 0.69407 0.64052 0.39414 0.0
H1750 H 0.71763 0.62995 0.36704 0.0
H1751 H 0.67596 0.58691 0.34386 0.0
H1752 H 0.65228 0.59712 0.3714 0.0
H1753 H 0.69449 0.61364 0.31176 0.0
H1754 H 0.71219 0.56712 0.36671 0.0
H1755 H 0.72166 0.55541 0.40254 0.0
H1756 H 0.77147 0.59457 0.40257 0.0
H1757 H 0.76232 0.6065 0.36678 0.0
C1758 C 0.77666 0.59466 0.25741 0.0
C1759 C 0.79412 0.60281 0.26564 0.0
C1760 C 0.75971 0.5936 0.27022 0.0
C1761 C 0.75997 0.60128 0.29109 0.0
C1762 C 0.77738 0.60997 0.29882 0.0
C1763 C 0.79431 0.61048 0.28636 0.0
C1764 C 0.74268 0.59997 0.30559 0.0
C1765 C 0.74603 0.59302 0.32637 0.0
C1766 C 0.72362 0.60682 0.29999 0.0
C1767 C 0.719 0.61471 0.27853 0.0
C1768 C 0.72932 0.63104 0.27035 0.0
C1769 C 0.72475 0.63843 0.25012 0.0
C1770 C 0.70978 0.62972 0.23801 0.0
C1771 C 0.6993 0.61364 0.24613 0.0
C1772 C 0.70382 0.60618 0.26634 0.0
C1773 C 0.68988 0.62875 0.38336 0.0
C1774 C 0.67133 0.61961 0.38495 0.0
C1775 C 0.7034 0.62268 0.36796 0.0
C1776 C 0.69854 0.60757 0.35362 0.0
C1777 C 0.67997 0.59852 0.35492 0.0
C1778 C 0.66651 0.60436 0.37064 0.0
C1779 C 0.71282 0.60205 0.33686 0.0
C1780 C 0.70881 0.60746 0.31569 0.0
C1781 C 0.7315 0.59426 0.34215 0.0
C1782 C 0.7365 0.58776 0.3641 0.0
C1783 C 0.72507 0.57335 0.37443 0.0
C1784 C 0.73048 0.56656 0.39467 0.0
C1785 C 0.74721 0.57418 0.40479 0.0
C1786 C 0.75857 0.58861 0.39469 0.0
C1787 C 0.75331 0.59535 0.37442 0.0
H1788 H 0.7513 0.56898 0.4205 0.0
H1789 H 0.70626 0.63547 0.22236 0.0
H1790 H 0.62796 0.45445 0.65142 0.0
H1791 H 0.63679 0.47615 0.62208 0.0
H1792 H 0.64726 0.42561 0.58178 0.0
H1793 H 0.63989 0.40365 0.61189 0.0
H1794 H 0.67267 0.45367 0.57189 0.0
H1795 H 0.60247 0.45153 0.58224 0.0
H1796 H 0.57226 0.45364 0.60385 0.0
H1797 H 0.5843 0.51459 0.6173 0.0
H1798 H 0.61496 0.51266 0.59625 0.0
H1799 H 0.63547 0.52112 0.48247 0.0
H1800 H 0.63651 0.49306 0.50721 0.0
H1801 H 0.6708 0.52764 0.55144 0.0
H1802 H 0.67049 0.55536 0.52665 0.0
H1803 H 0.62271 0.50512 0.55586 0.0
H1804 H 0.69702 0.50291 0.55279 0.0
H1805 H 0.72714 0.50063 0.53083 0.0
H1806 H 0.70507 0.44782 0.50144 0.0
H1807 H 0.67462 0.45007 0.52298 0.0
C1808 C 0.63252 0.4479 0.63647 0.0
C1809 C 0.63322 0.42733 0.63396 0.0
C1810 C 0.63741 0.46035 0.6196 0.0
C1811 C 0.64214 0.45255 0.59949 0.0
C1812 C 0.64355 0.43199 0.5971 0.0
C1813 C 0.63927 0.41946 0.61427 0.0
C1814 C 0.64445 0.46594 0.58086 0.0
C1815 C 0.66164 0.46479 0.56834 0.0
C1816 C 0.63004 0.48045 0.57599 0.0
C1817 C 0.6111 0.48189 0.58779 0.0
C1818 C 0.5987 0.46537 0.58984 0.0
C1819 C 0.58149 0.46654 0.60203 0.0
C1820 C 0.57633 0.48426 0.61198 0.0
C1821 C 0.58832 0.50087 0.60962 0.0
C1822 C 0.60563 0.49975 0.59757 0.0
C1823 C 0.6438 0.52247 0.49715 0.0
C1824 C 0.65292 0.54039 0.50262 0.0
C1825 C 0.64439 0.50647 0.51122 0.0
C1826 C 0.65397 0.50826 0.53095 0.0
C1827 C 0.66381 0.52582 0.53602 0.0
C1828 C 0.66356 0.54166 0.52183 0.0
C1829 C 0.65106 0.49316 0.54758 0.0
C1830 C 0.63363 0.49391 0.5595 0.0
C1831 C 0.66514 0.47837 0.55185 0.0
C1832 C 0.68349 0.47682 0.53923 0.0
C1833 C 0.69851 0.49096 0.54147 0.0
C1834 C 0.71565 0.48965 0.52914 0.0
C1835 C 0.71799 0.47413 0.51468 0.0
C1836 C 0.70322 0.45986 0.51259 0.0
C1837 C 0.68602 0.46116 0.52484 0.0
H1838 H 0.73127 0.47313 0.50515 0.0
H1839 H 0.56308 0.48515 0.62155 0.0
H1840 H 0.15671 0.34823 0.34546 0.0
H1841 H 0.18406 0.35718 0.32202 0.0
H1842 H 0.19637 0.40806 0.36127 0.0
H1843 H 0.16842 0.39967 0.38414 0.0
H1844 H 0.20412 0.41766 0.32317 0.0
H1845 H 0.22288 0.36448 0.36639 0.0
H1846 H 0.22271 0.33219 0.38443 0.0
H1847 H 0.22519 0.3028 0.32386 0.0
H1848 H 0.225 0.33492 0.30538 0.0
H1849 H 0.30663 0.41545 0.28538 0.0
H1850 H 0.2765 0.41611 0.307 0.0
H1851 H 0.24816 0.37677 0.26247 0.0
H1852 H 0.27797 0.37608 0.24073 0.0
H1853 H 0.25073 0.36351 0.30616 0.0
H1854 H 0.2327 0.42276 0.26519 0.0
H1855 H 0.23958 0.45668 0.25305 0.0
H1856 H 0.24312 0.47625 0.31808 0.0
H1857 H 0.23643 0.4424 0.3306 0.0
C1858 C 0.16504 0.36152 0.34883 0.0
C1859 C 0.16055 0.37319 0.36665 0.0
C1860 C 0.18076 0.36655 0.33555 0.0
C1861 C 0.19263 0.383 0.34022 0.0
C1862 C 0.1875 0.39526 0.35739 0.0
C1863 C 0.1715 0.39046 0.37043 0.0
C1864 C 0.21084 0.38681 0.32776 0.0
C1865 C 0.21437 0.40582 0.31962 0.0
C1866 C 0.22458 0.37156 0.32354 0.0
C1867 C 0.22377 0.35214 0.33448 0.0
C1868 C 0.22314 0.35114 0.35689 0.0
C1869 C 0.22319 0.33287 0.3672 0.0
C1870 C 0.22405 0.31548 0.35531 0.0
C1871 C 0.22461 0.3163 0.33305 0.0
C1872 C 0.22451 0.33453 0.32264 0.0
C1873 C 0.29383 0.4073 0.27994 0.0
C1874 C 0.29473 0.39551 0.26149 0.0
C1875 C 0.27666 0.40773 0.2923 0.0
C1876 C 0.26025 0.39641 0.28631 0.0
C1877 C 0.26076 0.38555 0.26731 0.0
C1878 C 0.27781 0.38517 0.25494 0.0
C1879 C 0.24333 0.39395 0.30084 0.0
C1880 C 0.24029 0.37521 0.30964 0.0
C1881 C 0.23067 0.40964 0.30643 0.0
C1882 C 0.23418 0.43003 0.29882 0.0
C1883 C 0.23503 0.43428 0.27689 0.0
C1884 C 0.23888 0.4535 0.26995 0.0
C1885 C 0.24182 0.4686 0.28478 0.0
C1886 C 0.24083 0.46454 0.3066 0.0
C1887 C 0.23697 0.44535 0.31363 0.0
H1888 H 0.24484 0.48346 0.27938 0.0
H1889 H 0.2243 0.30136 0.36336 0.0
H1890 H 0.39725 0.41173 0.10729 0.0
H1891 H 0.38786 0.43497 0.07927 0.0
H1892 H 0.34 0.45619 0.11855 0.0
H1893 H 0.34859 0.43175 0.14596 0.0
H1894 H 0.32894 0.45837 0.07918 0.0
H1895 H 0.38612 0.47991 0.11663 0.0
H1896 H 0.41937 0.47707 0.13234 0.0
H1897 H 0.44408 0.46768 0.07011 0.0
H1898 H 0.41092 0.4702 0.05404 0.0
H1899 H 0.32939 0.55416 0.02906 0.0
H1900 H 0.33006 0.52596 0.05324 0.0
H1901 H 0.37183 0.49667 0.0121 0.0
H1902 H 0.37143 0.52493 0.98793 0.0
H1903 H 0.38459 0.49956 0.05338 0.0
H1904 H 0.32414 0.47971 0.0171 0.0
H1905 H 0.29041 0.48647 0.00422 0.0
H1906 H 0.27139 0.49789 0.06836 0.0
H1907 H 0.30506 0.49135 0.0816 0.0
C1908 C 0.38453 0.42115 0.1097 0.0
C1909 C 0.3737 0.4202 0.12868 0.0
C1910 C 0.37922 0.43449 0.0938 0.0
C1911 C 0.3636 0.44779 0.09706 0.0
C1912 C 0.35217 0.44618 0.11569 0.0
C1913 C 0.35709 0.4323 0.13134 0.0
C1914 C 0.36019 0.46413 0.08169 0.0
C1915 C 0.34109 0.46747 0.07368 0.0
C1916 C 0.37596 0.47621 0.07461 0.0
C1917 C 0.396 0.47509 0.08415 0.0
C1918 C 0.39863 0.47716 0.1063 0.0
C1919 C 0.41746 0.47561 0.11527 0.0
C1920 C 0.43382 0.47216 0.10223 0.0
C1921 C 0.43139 0.47034 0.08018 0.0
C1922 C 0.41258 0.47185 0.07113 0.0
C1923 C 0.33839 0.54154 0.0249 0.0
C1924 C 0.35048 0.54183 0.00665 0.0
C1925 C 0.33873 0.52541 0.03874 0.0
C1926 C 0.35101 0.50924 0.03445 0.0
C1927 C 0.3623 0.50906 0.0157 0.0
C1928 C 0.36201 0.52519 0.00188 0.0
C1929 C 0.35355 0.49333 0.05039 0.0
C1930 C 0.3725 0.4903 0.05874 0.0
C1931 C 0.33755 0.48203 0.05819 0.0
C1932 C 0.31713 0.48511 0.05033 0.0
C1933 C 0.31276 0.48368 0.02845 0.0
C1934 C 0.29366 0.48748 0.02109 0.0
C1935 C 0.27878 0.49264 0.03546 0.0
C1936 C 0.28293 0.49388 0.05725 0.0
C1937 C 0.30201 0.49007 0.0647 0.0
H1938 H 0.26401 0.49565 0.02972 0.0
H1939 H 0.44838 0.47093 0.10921 0.0
H1940 H 0.19161 0.57814 0.77507 0.0
H1941 H 0.21891 0.57795 0.80043 0.0
H1942 H 0.2539 0.61286 0.75713 0.0
H1943 H 0.22654 0.61325 0.73158 0.0
H1944 H 0.2756 0.58302 0.78042 0.0
H1945 H 0.2295 0.63643 0.79158 0.0
H1946 H 0.19739 0.65231 0.79845 0.0
H1947 H 0.1912 0.61922 0.85642 0.0
H1948 H 0.22314 0.60285 0.84971 0.0
H1949 H 0.34163 0.62871 0.85517 0.0
H1950 H 0.31934 0.61928 0.82599 0.0
H1951 H 0.2769 0.59814 0.87207 0.0
H1952 H 0.29852 0.60877 0.90098 0.0
H1953 H 0.25917 0.61995 0.84634 0.0
H1954 H 0.30571 0.56723 0.83677 0.0
H1955 H 0.33836 0.55211 0.83096 0.0
H1956 H 0.34393 0.58284 0.7714 0.0
H1957 H 0.31143 0.59837 0.77698 0.0
C1958 C 0.20528 0.58533 0.77063 0.0
C1959 C 0.20687 0.59592 0.75143 0.0
C1960 C 0.22083 0.58526 0.7852 0.0
C1961 C 0.23822 0.59564 0.78071 0.0
C1962 C 0.2405 0.60483 0.76083 0.0
C1963 C 0.22487 0.60507 0.74631 0.0
C1964 C 0.25307 0.59873 0.7976 0.0
C1965 C 0.27215 0.59116 0.79484 0.0
C1966 C 0.24829 0.60908 0.81647 0.0
C1967 C 0.22863 0.61824 0.82 0.0
C1968 C 0.22116 0.63229 0.80562 0.0
C1969 C 0.20303 0.64145 0.80953 0.0
C1970 C 0.19231 0.63682 0.82788 0.0
C1971 C 0.19955 0.62282 0.84223 0.0
C1972 C 0.21766 0.61358 0.83836 0.0
C1973 C 0.32762 0.6218 0.85889 0.0
C1974 C 0.3216 0.61951 0.88015 0.0
C1975 C 0.31495 0.6163 0.84227 0.0
C1976 C 0.29644 0.60784 0.84679 0.0
C1977 C 0.291 0.60475 0.86814 0.0
C1978 C 0.30334 0.61078 0.88464 0.0
C1979 C 0.28187 0.60386 0.82962 0.0
C1980 C 0.26274 0.61148 0.83217 0.0
C1981 C 0.28661 0.59339 0.81074 0.0
C1982 C 0.3062 0.58411 0.8074 0.0
C1983 C 0.31396 0.5709 0.82252 0.0
C1984 C 0.33244 0.56223 0.81925 0.0
C1985 C 0.34324 0.56655 0.80085 0.0
C1986 C 0.33556 0.57953 0.78566 0.0
C1987 C 0.31711 0.58825 0.78886 0.0
H1988 H 0.35753 0.55982 0.79835 0.0
H1989 H 0.17845 0.64418 0.83104 0.0
H1990 H 0.13476 0.59044 0.61794 0.0
H1991 H 0.14396 0.56678 0.59001 0.0
H1992 H 0.11374 0.52054 0.62413 0.0
H1993 H 0.10441 0.54395 0.65189 0.0
H1994 H 0.15171 0.50986 0.61021 0.0
H1995 H 0.09213 0.54111 0.58263 0.0
H1996 H 0.07215 0.5694 0.5706 0.0
H1997 H 0.1158 0.58342 0.52334 0.0
H1998 H 0.13616 0.55534 0.53529 0.0
H1999 H 0.13369 0.43106 0.54176 0.0
H2000 H 0.13349 0.45873 0.56649 0.0
H2001 H 0.15166 0.49779 0.51568 0.0
H2002 H 0.1501 0.47007 0.49043 0.0
H2003 H 0.12583 0.51532 0.53645 0.0
H2004 H 0.18362 0.48164 0.56012 0.0
H2005 H 0.20357 0.453 0.57123 0.0
H2006 H 0.16549 0.44387 0.62504 0.0
H2007 H 0.14519 0.47234 0.61417 0.0
C2008 C 0.13007 0.57523 0.61945 0.0
C2009 C 0.11882 0.56907 0.63709 0.0
C2010 C 0.13533 0.56176 0.6035 0.0
C2011 C 0.12953 0.54193 0.60506 0.0
C2012 C 0.11842 0.53577 0.6227 0.0
C2013 C 0.11301 0.54921 0.63848 0.0
C2014 C 0.13473 0.52744 0.58831 0.0
C2015 C 0.14608 0.51097 0.59405 0.0
C2016 C 0.12797 0.52934 0.56708 0.0
C2017 C 0.11579 0.5463 0.56005 0.0
C2018 C 0.09756 0.55035 0.56983 0.0
C2019 C 0.08614 0.56632 0.56299 0.0
C2020 C 0.09273 0.57825 0.54627 0.0
C2021 C 0.11074 0.5742 0.53632 0.0
C2022 C 0.12222 0.55827 0.54312 0.0
C2023 C 0.13785 0.44555 0.53598 0.0
C2024 C 0.14209 0.44856 0.51437 0.0
C2025 C 0.13794 0.46136 0.55016 0.0
C2026 C 0.14318 0.48037 0.54321 0.0
C2027 C 0.1477 0.48328 0.52152 0.0
C2028 C 0.14689 0.46751 0.50712 0.0
C2029 C 0.14249 0.49727 0.55836 0.0
C2030 C 0.13199 0.51427 0.55238 0.0
C2031 C 0.1503 0.49596 0.57932 0.0
C2032 C 0.16283 0.47913 0.58627 0.0
C2033 C 0.17947 0.47352 0.57431 0.0
C2034 C 0.19085 0.4573 0.58056 0.0
C2035 C 0.18579 0.44662 0.59882 0.0
C2036 C 0.1694 0.45218 0.61092 0.0
C2037 C 0.15799 0.4684 0.60475 0.0
H2038 H 0.19458 0.43404 0.6036 0.0
H2039 H 0.08386 0.59058 0.54098 0.0
H2040 H 0.192 0.64087 0.1134 0.0
H2041 H 0.21521 0.63025 0.14064 0.0
H2042 H 0.17535 0.58391 0.15972 0.0
H2043 H 0.15174 0.59452 0.13213 0.0
H2044 H 0.19228 0.60712 0.19441 0.0
H2045 H 0.21383 0.56899 0.13457 0.0
H2046 H 0.22185 0.56412 0.09657 0.0
H2047 H 0.26796 0.60738 0.10116 0.0
H2048 H 0.26022 0.61251 0.13915 0.0
H2049 H 0.27607 0.5801 0.2611 0.0
H2050 H 0.24832 0.57635 0.2361 0.0
H2051 H 0.27224 0.62291 0.19701 0.0
H2052 H 0.29961 0.6269 0.22173 0.0
H2053 H 0.26084 0.59018 0.17343 0.0
H2054 H 0.23577 0.63299 0.2291 0.0
H2055 H 0.22698 0.64156 0.26612 0.0
H2056 H 0.18712 0.59237 0.26873 0.0
H2057 H 0.19591 0.58334 0.23177 0.0
C2058 C 0.18808 0.6284 0.12332 0.0
C2059 C 0.17003 0.6185 0.12057 0.0
C2060 C 0.20143 0.6223 0.13885 0.0
C2061 C 0.19707 0.60618 0.15203 0.0
C2062 C 0.17898 0.59634 0.14961 0.0
C2063 C 0.16558 0.60236 0.13383 0.0
C2064 C 0.21169 0.60008 0.16831 0.0
C2065 C 0.20713 0.60279 0.18993 0.0
C2066 C 0.23111 0.5948 0.16236 0.0
C2067 C 0.23642 0.59114 0.13972 0.0
C2068 C 0.2257 0.57744 0.12747 0.0
C2069 C 0.23021 0.57462 0.10593 0.0
C2070 C 0.24543 0.5854 0.09644 0.0
C2071 C 0.25626 0.59894 0.10852 0.0
C2072 C 0.25186 0.60176 0.1301 0.0
C2073 C 0.27533 0.58956 0.24721 0.0
C2074 C 0.28997 0.6039 0.2435 0.0
C2075 C 0.25952 0.58738 0.23295 0.0
C2076 C 0.25829 0.59933 0.2147 0.0
C2077 C 0.27298 0.61346 0.21093 0.0
C2078 C 0.28855 0.61581 0.2252 0.0
C2079 C 0.24159 0.59777 0.19951 0.0
C2080 C 0.24582 0.59371 0.17804 0.0
C2081 C 0.22193 0.60198 0.20561 0.0
C2082 C 0.21672 0.60731 0.22782 0.0
C2083 C 0.2253 0.62387 0.23766 0.0
C2084 C 0.22028 0.62884 0.2586 0.0
C2085 C 0.20657 0.61747 0.2698 0.0
C2086 C 0.1978 0.60112 0.26005 0.0
C2087 C 0.20279 0.59607 0.23911 0.0
H2088 H 0.20268 0.62135 0.28601 0.0
H2089 H 0.24878 0.58328 0.07973 0.0
H2090 H 0.14567 0.42294 0.86283 0.0
H2091 H 0.15424 0.44975 0.88713 0.0
H2092 H 0.11231 0.42742 0.93309 0.0
H2093 H 0.10269 0.40151 0.90801 0.0
H2094 H 0.10711 0.46362 0.93026 0.0
H2095 H 0.16695 0.42537 0.93759 0.0
H2096 H 0.19656 0.40788 0.9247 0.0
H2097 H 0.21814 0.46139 0.89648 0.0
H2098 H 0.18855 0.47914 0.90895 0.0
H2099 H 0.13105 0.53042 0.01098 0.0
H2100 H 0.13116 0.49873 0.99241 0.0
H2101 H 0.16393 0.52467 0.94053 0.0
H2102 H 0.16413 0.55633 0.95907 0.0
H2103 H 0.17484 0.48622 0.94783 0.0
H2104 H 0.1151 0.52378 0.93901 0.0
H2105 H 0.0859 0.54201 0.95172 0.0
H2106 H 0.0642 0.48966 0.98227 0.0
H2107 H 0.09352 0.47123 0.97014 0.0
C2108 C 0.1386 0.42357 0.87831 0.0
C2109 C 0.12365 0.41014 0.88368 0.0
C2110 C 0.14357 0.43886 0.89228 0.0
C2111 C 0.13422 0.44051 0.91222 0.0
C2112 C 0.11978 0.42653 0.91785 0.0
C2113 C 0.11435 0.41166 0.90359 0.0
C2114 C 0.1382 0.45761 0.92649 0.0
C2115 C 0.12196 0.4682 0.93445 0.0
C2116 C 0.15757 0.4642 0.9314 0.0
C2117 C 0.17546 0.45354 0.92409 0.0
C2118 C 0.17796 0.43338 0.92854 0.0
C2119 C 0.19475 0.42342 0.92132 0.0
C2120 C 0.2092 0.43351 0.90975 0.0
C2121 C 0.20693 0.45359 0.90543 0.0
C2122 C 0.19017 0.46361 0.9126 0.0
C2123 C 0.13862 0.52929 0.99582 0.0
C2124 C 0.14725 0.54596 0.9863 0.0
C2125 C 0.13867 0.51118 0.98524 0.0
C2126 C 0.14717 0.50951 0.96491 0.0
C2127 C 0.15718 0.5257 0.95616 0.0
C2128 C 0.15721 0.5438 0.96676 0.0
C2129 C 0.14379 0.49167 0.95181 0.0
C2130 C 0.16006 0.48122 0.94389 0.0
C2131 C 0.12447 0.48518 0.94688 0.0
C2132 C 0.10663 0.49618 0.95385 0.0
C2133 C 0.10418 0.5162 0.94856 0.0
C2134 C 0.08761 0.52657 0.95566 0.0
C2135 C 0.07323 0.51701 0.96783 0.0
C2136 C 0.07537 0.49706 0.97287 0.0
C2137 C 0.09198 0.48665 0.9659 0.0
H2138 H 0.0604 0.52506 0.9733 0.0
H2139 H 0.22217 0.42577 0.90415 0.0
H2140 H 0.31564 0.34341 0.63322 0.0
H2141 H 0.28848 0.35315 0.65635 0.0
H2142 H 0.3035 0.41442 0.64716 0.0
H2143 H 0.33117 0.40469 0.62422 0.0
H2144 H 0.29451 0.40744 0.68772 0.0
H2145 H 0.26588 0.39244 0.62084 0.0
H2146 H 0.25903 0.37282 0.58862 0.0
H2147 H 0.22963 0.32905 0.6264 0.0
H2148 H 0.23744 0.3476 0.65907 0.0
H2149 H 0.19935 0.42687 0.73916 0.0
H2150 H 0.22631 0.42758 0.71297 0.0
H2151 H 0.23159 0.36434 0.71733 0.0
H2152 H 0.2051 0.36344 0.74346 0.0
H2153 H 0.22791 0.3794 0.67499 0.0
H2154 H 0.26449 0.39045 0.74084 0.0
H2155 H 0.2726 0.40879 0.77366 0.0
H2156 H 0.2853 0.46052 0.73661 0.0
H2157 H 0.277 0.44252 0.70357 0.0
C2158 C 0.31327 0.35897 0.6362 0.0
C2159 C 0.32548 0.3733 0.62683 0.0
C2160 C 0.29764 0.36452 0.64931 0.0
C2161 C 0.29366 0.38453 0.65305 0.0
C2162 C 0.30622 0.3989 0.64431 0.0
C2163 C 0.32204 0.39333 0.63128 0.0
C2164 C 0.27649 0.3902 0.66635 0.0
C2165 C 0.27984 0.40167 0.68465 0.0
C2166 C 0.25732 0.38263 0.66234 0.0
C2167 C 0.25242 0.37144 0.64256 0.0
C2168 C 0.25816 0.37852 0.62238 0.0
C2169 C 0.25409 0.36758 0.60399 0.0
C2170 C 0.24375 0.34982 0.60543 0.0
C2171 C 0.23762 0.34283 0.6253 0.0
C2172 C 0.24199 0.3535 0.64379 0.0
C2173 C 0.20648 0.41317 0.73477 0.0
C2174 C 0.20007 0.3951 0.7434 0.0
C2175 C 0.22179 0.4136 0.71977 0.0
C2176 C 0.23076 0.39599 0.71316 0.0
C2177 C 0.22471 0.37807 0.72213 0.0
C2178 C 0.20963 0.37762 0.73718 0.0
C2179 C 0.24628 0.39579 0.69662 0.0
C2180 C 0.24251 0.38549 0.67766 0.0
C2181 C 0.26499 0.40442 0.69994 0.0
C2182 C 0.26985 0.41524 0.71979 0.0
C2183 C 0.2688 0.4058 0.73972 0.0
C2184 C 0.27348 0.41611 0.75835 0.0
C2185 C 0.27939 0.43584 0.75723 0.0
C2186 C 0.28067 0.44526 0.73746 0.0
C2187 C 0.27598 0.43501 0.71878 0.0
H2188 H 0.28303 0.44379 0.77167 0.0
H2189 H 0.24053 0.34145 0.59114 0.0
H2190 H 0.3742 0.44039 0.47363 0.0
H2191 H 0.37182 0.46899 0.45042 0.0
H2192 H 0.32725 0.49414 0.49132 0.0
H2193 H 0.32915 0.46494 0.5146 0.0
H2194 H 0.32007 0.49931 0.44642 0.0
H2195 H 0.37254 0.5106 0.49699 0.0
H2196 H 0.40204 0.50042 0.51723 0.0
H2197 H 0.43401 0.49234 0.45877 0.0
H2198 H 0.40463 0.50221 0.43816 0.0
H2199 H 0.34203 0.58761 0.38376 0.0
H2200 H 0.33447 0.56586 0.41413 0.0
H2201 H 0.38043 0.526 0.39392 0.0
H2202 H 0.3881 0.5474 0.3641 0.0
H2203 H 0.38354 0.53443 0.43546 0.0
H2204 H 0.33244 0.51571 0.38525 0.0
H2205 H 0.30358 0.52189 0.36223 0.0
H2206 H 0.27009 0.54076 0.41666 0.0
H2207 H 0.29889 0.53495 0.43997 0.0
C2208 C 0.36385 0.45196 0.47775 0.0
C2209 C 0.35214 0.45065 0.49616 0.0
C2210 C 0.36247 0.46826 0.46442 0.0
C2211 C 0.34968 0.48383 0.46944 0.0
C2212 C 0.3373 0.48229 0.4873 0.0
C2213 C 0.33847 0.46571 0.50059 0.0
C2214 C 0.35038 0.50198 0.45641 0.0
C2215 C 0.33376 0.50738 0.44438 0.0
C2216 C 0.36837 0.51225 0.45361 0.0
C2217 C 0.38635 0.50717 0.46604 0.0
C2218 C 0.38586 0.50666 0.48845 0.0
C2219 C 0.40256 0.50091 0.49999 0.0
C2220 C 0.41989 0.49574 0.4893 0.0
C2221 C 0.42059 0.49639 0.46704 0.0
C2222 C 0.40393 0.50211 0.45542 0.0
C2223 C 0.35039 0.57414 0.3858 0.0
C2224 C 0.36575 0.56929 0.37164 0.0
C2225 C 0.34607 0.56176 0.4031 0.0
C2226 C 0.357 0.5444 0.40631 0.0
C2227 C 0.37197 0.53943 0.39188 0.0
C2228 C 0.3763 0.5517 0.37478 0.0
C2229 C 0.35348 0.53126 0.42475 0.0
C2230 C 0.36961 0.52685 0.43793 0.0
C2231 C 0.33519 0.52172 0.42826 0.0
C2232 C 0.31789 0.52518 0.41429 0.0
C2233 C 0.31898 0.52136 0.39227 0.0
C2234 C 0.30263 0.52476 0.37918 0.0
C2235 C 0.28503 0.53178 0.38796 0.0
C2236 C 0.28375 0.53537 0.40987 0.0
C2237 C 0.30008 0.53203 0.42303 0.0
H2238 H 0.27238 0.53439 0.37781 0.0
H2239 H 0.43278 0.49123 0.49825 0.0
H2240 H 0.13384 0.30736 0.42152 0.0
H2241 H 0.14063 0.27387 0.40986 0.0
H2242 H 0.08856 0.27468 0.37037 0.0
H2243 H 0.08185 0.30886 0.38139 0.0
H2244 H 0.10105 0.23695 0.4006 0.0
H2245 H 0.1204 0.28327 0.34426 0.0
H2246 H 0.13813 0.31183 0.32928 0.0
H2247 H 0.19332 0.28691 0.34931 0.0
H2248 H 0.1759 0.25876 0.36532 0.0
H2249 H 0.11447 0.16254 0.32413 0.0
H2250 H 0.1071 0.19001 0.3477 0.0
H2251 H 0.16952 0.20024 0.35656 0.0
H2252 H 0.17686 0.17291 0.33213 0.0
H2253 H 0.15329 0.23198 0.34546 0.0
H2254 H 0.13727 0.18532 0.39886 0.0
H2255 H 0.12215 0.15596 0.41533 0.0
H2256 H 0.06437 0.17925 0.40296 0.0
H2257 H 0.07911 0.20867 0.38619 0.0
C2258 C 0.12354 0.30041 0.41064 0.0
C2259 C 0.10734 0.31084 0.40221 0.0
C2260 C 0.12752 0.28126 0.40401 0.0
C2261 C 0.11518 0.27205 0.38921 0.0
C2262 C 0.09822 0.28176 0.38183 0.0
C2263 C 0.09443 0.3012 0.3881 0.0
C2264 C 0.12105 0.25289 0.38031 0.0
C2265 C 0.11228 0.23572 0.38835 0.0
C2266 C 0.13643 0.25152 0.36518 0.0
C2267 C 0.14675 0.26911 0.3565 0.0
C2268 C 0.13626 0.28416 0.34604 0.0
C2269 C 0.14629 0.30028 0.33728 0.0
C2270 C 0.16685 0.30134 0.33855 0.0
C2271 C 0.17741 0.28629 0.34859 0.0
C2272 C 0.16745 0.27028 0.35759 0.0
C2273 C 0.12659 0.17034 0.33156 0.0
C2274 C 0.14619 0.16571 0.32644 0.0
C2275 C 0.12238 0.18597 0.34516 0.0
C2276 C 0.13774 0.19705 0.35419 0.0
C2277 C 0.15743 0.19186 0.34978 0.0
C2278 C 0.16163 0.17638 0.3358 0.0
C2279 C 0.13312 0.21568 0.36539 0.0
C2280 C 0.14218 0.23293 0.35787 0.0
C2281 C 0.1183 0.21701 0.38128 0.0
C2282 C 0.10933 0.1992 0.39115 0.0
C2283 C 0.12134 0.18413 0.39949 0.0
C2284 C 0.11283 0.1675 0.40894 0.0
C2285 C 0.09232 0.16578 0.41024 0.0
C2286 C 0.08026 0.18066 0.40202 0.0
C2287 C 0.08869 0.19733 0.39257 0.0
H2288 H 0.08577 0.1529 0.41758 0.0
H2289 H 0.17462 0.31373 0.3316 0.0
H2290 H 0.05819 0.90566 0.54416 0.0
H2291 H 0.02882 0.90013 0.56584 0.0
H2292 H 0.0652 0.87895 0.61756 0.0
H2293 H 0.09464 0.88394 0.59557 0.0
H2294 H 0.03526 0.85563 0.61344 0.0
H2295 H 0.04191 0.92366 0.6214 0.0
H2296 H 0.04848 0.95807 0.61096 0.0
H2297 H 0.99651 0.95814 0.57177 0.0
H2298 H 0.98976 0.92361 0.58169 0.0
H2299 H 0.93973 0.85541 0.66804 0.0
H2300 H 0.97443 0.86177 0.65959 0.0
H2301 H 0.95845 0.87502 0.59457 0.0
H2302 H 0.92385 0.86873 0.60277 0.0
H2303 H 0.98122 0.90495 0.61573 0.0
H2304 H 0.98065 0.8323 0.60649 0.0
H2305 H 0.97547 0.79893 0.62116 0.0
H2306 H 0.01807 0.81049 0.67033 0.0
H2307 H 0.02334 0.84401 0.65605 0.0
C2308 C 0.05992 0.90005 0.56023 0.0
C2309 C 0.0786 0.89518 0.56821 0.0
C2310 C 0.04316 0.89695 0.57266 0.0
C2311 C 0.04483 0.8894 0.59347 0.0
C2312 C 0.06356 0.8848 0.60158 0.0
C2313 C 0.08032 0.88766 0.58902 0.0
C2314 C 0.0268 0.88558 0.60614 0.0
C2315 C 0.02361 0.86656 0.61434 0.0
C2316 C 0.01176 0.89995 0.60789 0.0
C2317 C 0.01536 0.92096 0.60225 0.0
C2318 C 0.0319 0.93097 0.61049 0.0
C2319 C 0.03567 0.95051 0.60466 0.0
C2320 C 0.02293 0.96028 0.59069 0.0
C2321 C 0.00635 0.95055 0.5826 0.0
C2322 C 0.00252 0.931 0.58837 0.0
C2323 C 0.94365 0.85928 0.65183 0.0
C2324 C 0.929 0.86172 0.63609 0.0
C2325 C 0.96346 0.86299 0.64709 0.0
C2326 C 0.96887 0.8691 0.62655 0.0
C2327 C 0.95446 0.87052 0.61058 0.0
C2328 C 0.93471 0.86674 0.61526 0.0
C2329 C 0.98939 0.87473 0.62155 0.0
C2330 C 0.99307 0.89421 0.61512 0.0
C2331 C 0.00505 0.86101 0.62221 0.0
C2332 C 0.00227 0.84067 0.63031 0.0
C2333 C 0.98885 0.82773 0.62047 0.0
C2334 C 0.98591 0.8088 0.62871 0.0
C2335 C 0.9964 0.80261 0.6467 0.0
C2336 C 0.00994 0.81531 0.65641 0.0
C2337 C 0.01294 0.83426 0.64823 0.0
H2338 H 0.99406 0.78796 0.65308 0.0
H2339 H 0.0259 0.97539 0.58615 0.0
H2340 H 0.32165 0.81792 0.81546 0.0
H2341 H 0.32753 0.78913 0.83871 0.0
H2342 H 0.38959 0.80319 0.84061 0.0
H2343 H 0.38381 0.83146 0.81739 0.0
H2344 H 0.36051 0.75822 0.82643 0.0
H2345 H 0.39358 0.80763 0.88012 0.0
H2346 H 0.38975 0.8378 0.90182 0.0
H2347 H 0.33254 0.81825 0.92235 0.0
H2348 H 0.33609 0.78796 0.90076 0.0
H2349 H 0.40968 0.68378 0.8808 0.0
H2350 H 0.40457 0.71674 0.86594 0.0
H2351 H 0.3586 0.72755 0.9121 0.0
H2352 H 0.36412 0.69514 0.92753 0.0
H2353 H 0.3764 0.76074 0.9037 0.0
H2354 H 0.3477 0.70837 0.86258 0.0
H2355 H 0.34732 0.6771 0.84246 0.0
H2356 H 0.38901 0.70086 0.79774 0.0
H2357 H 0.38982 0.73219 0.81776 0.0
C2358 C 0.33647 0.81479 0.82098 0.0
C2359 C 0.35229 0.82702 0.81514 0.0
C2360 C 0.33978 0.79858 0.83433 0.0
C2361 C 0.35889 0.79454 0.8418 0.0
C2362 C 0.37466 0.80655 0.83561 0.0
C2363 C 0.37136 0.82267 0.82242 0.0
C2364 C 0.36304 0.77665 0.85421 0.0
C2365 C 0.36405 0.75869 0.8433 0.0
C2366 C 0.36723 0.77739 0.87622 0.0
C2367 C 0.36498 0.79575 0.88866 0.0
C2368 C 0.38012 0.80989 0.8891 0.0
C2369 C 0.37801 0.82698 0.9014 0.0
C2370 C 0.36085 0.83002 0.91331 0.0
C2371 C 0.34578 0.81593 0.91302 0.0
C2372 C 0.34783 0.79882 0.90077 0.0
C2373 C 0.39887 0.69339 0.88813 0.0
C2374 C 0.38699 0.68668 0.90499 0.0
C2375 C 0.39588 0.71216 0.87957 0.0
C2376 C 0.38076 0.7243 0.88751 0.0
C2377 C 0.3702 0.71835 0.90559 0.0
C2378 C 0.37334 0.69974 0.91433 0.0
C2379 C 0.37454 0.74217 0.87578 0.0
C2380 C 0.37298 0.76013 0.8868 0.0
C2381 C 0.36945 0.74134 0.85387 0.0
C2382 C 0.36895 0.72254 0.84177 0.0
C2383 C 0.35688 0.70687 0.84853 0.0
C2384 C 0.35657 0.68914 0.83714 0.0
C2385 C 0.36816 0.68698 0.81886 0.0
C2386 C 0.38006 0.70255 0.81191 0.0
C2387 C 0.38043 0.7203 0.82326 0.0
H2388 H 0.3679 0.67325 0.81006 0.0
H2389 H 0.35926 0.84323 0.92284 0.0
H2390 H 0.43566 0.07547 0.06314 0.0
H2391 H 0.46369 0.08191 0.0871 0.0
H2392 H 0.43893 0.13851 0.10332 0.0
H2393 H 0.41095 0.13209 0.07991 0.0
H2394 H 0.48804 0.11953 0.08149 0.0
H2395 H 0.43794 0.13707 0.14196 0.0
H2396 H 0.40878 0.12618 0.16243 0.0
H2397 H 0.43537 0.06936 0.17188 0.0
H2398 H 0.46449 0.07985 0.15106 0.0
H2399 H 0.55844 0.16572 0.14849 0.0
H2400 H 0.52536 0.16031 0.13337 0.0
H2401 H 0.52566 0.10087 0.15786 0.0
H2402 H 0.55883 0.10591 0.17186 0.0
H2403 H 0.48802 0.1204 0.16068 0.0
H2404 H 0.53959 0.10351 0.11178 0.0
H2405 H 0.56949 0.10785 0.08988 0.0
H2406 H 0.54199 0.1559 0.05662 0.0
H2407 H 0.51204 0.15206 0.07864 0.0
C2408 C 0.43615 0.08917 0.07202 0.0
C2409 C 0.4211 0.10326 0.0698 0.0
C2410 C 0.45202 0.09276 0.08575 0.0
C2411 C 0.45301 0.11045 0.09734 0.0
C2412 C 0.43804 0.12449 0.0951 0.0
C2413 C 0.42215 0.12085 0.08159 0.0
C2414 C 0.47071 0.1153 0.10988 0.0
C2415 C 0.48801 0.12 0.09879 0.0
C2416 C 0.47067 0.11536 0.13239 0.0
C2417 C 0.45317 0.10911 0.14471 0.0
C2418 C 0.43743 0.12218 0.14818 0.0
C2419 C 0.42094 0.1161 0.15988 0.0
C2420 C 0.42018 0.09706 0.16838 0.0
C2421 C 0.43592 0.08407 0.16521 0.0
C2422 C 0.45239 0.09005 0.15342 0.0
C2423 C 0.55133 0.15163 0.15065 0.0
C2424 C 0.56143 0.13608 0.16051 0.0
C2425 C 0.53246 0.14857 0.14223 0.0
C2426 C 0.5233 0.13009 0.1443 0.0
C2427 C 0.53256 0.11519 0.15604 0.0
C2428 C 0.55156 0.11809 0.16391 0.0
C2429 C 0.50523 0.1254 0.13224 0.0
C2430 C 0.48796 0.12043 0.14338 0.0
C2431 C 0.50539 0.12476 0.1097 0.0
C2432 C 0.5237 0.12772 0.09711 0.0
C2433 C 0.54004 0.11522 0.10007 0.0
C2434 C 0.55697 0.11753 0.08756 0.0
C2435 C 0.55765 0.13216 0.0719 0.0
C2436 C 0.54144 0.14456 0.06876 0.0
C2437 C 0.52451 0.14237 0.08129 0.0
H2438 H 0.57075 0.13389 0.06219 0.0
H2439 H 0.40743 0.09239 0.17748 0.0
H2440 H 0.17348 0.81679 0.17731 0.0
H2441 H 0.16575 0.78773 0.15526 0.0
H2442 H 0.10445 0.8049 0.15385 0.0
H2443 H 0.11211 0.83355 0.1759 0.0
H2444 H 0.11098 0.76659 0.16786 0.0
H2445 H 0.12756 0.80852 0.11006 0.0
H2446 H 0.14766 0.83214 0.08957 0.0
H2447 H 0.19376 0.78907 0.08362 0.0
H2448 H 0.17407 0.76526 0.10442 0.0
H2449 H 0.08677 0.68736 0.09334 0.0
H2450 H 0.09176 0.72263 0.1015 0.0
H2451 H 0.14722 0.7088 0.13175 0.0
H2452 H 0.14188 0.67375 0.12465 0.0
H2453 H 0.14013 0.74768 0.09813 0.0
H2454 H 0.12682 0.71393 0.16883 0.0
H2455 H 0.10684 0.68956 0.18857 0.0
H2456 H 0.05371 0.71809 0.16749 0.0
H2457 H 0.07348 0.74248 0.14741 0.0
C2458 C 0.15844 0.81433 0.17211 0.0
C2459 C 0.14337 0.82743 0.17793 0.0
C2460 C 0.15407 0.79794 0.1594 0.0
C2461 C 0.13458 0.79443 0.15275 0.0
C2462 C 0.1196 0.80756 0.15859 0.0
C2463 C 0.124 0.82396 0.17102 0.0
C2464 C 0.12939 0.77599 0.14167 0.0
C2465 C 0.11707 0.76269 0.15242 0.0
C2466 C 0.13744 0.7709 0.12159 0.0
C2467 C 0.14939 0.78514 0.10902 0.0
C2468 C 0.14206 0.80412 0.10458 0.0
C2469 C 0.15337 0.81754 0.09286 0.0
C2470 C 0.172 0.81212 0.08534 0.0
C2471 C 0.17933 0.79325 0.08948 0.0
C2472 C 0.16809 0.77978 0.10122 0.0
C2473 C 0.09991 0.69197 0.10184 0.0
C2474 C 0.11368 0.67801 0.10896 0.0
C2475 C 0.10289 0.712 0.10615 0.0
C2476 C 0.12 0.71814 0.11689 0.0
C2477 C 0.13407 0.70424 0.12323 0.0
C2478 C 0.13082 0.68428 0.11954 0.0
C2479 C 0.122 0.73851 0.12453 0.0
C2480 C 0.13376 0.75199 0.11329 0.0
C2481 C 0.11342 0.74399 0.1441 0.0
C2482 C 0.10155 0.7299 0.15666 0.0
C2483 C 0.11087 0.71495 0.16844 0.0
C2484 C 0.0996 0.70114 0.17964 0.0
C2485 C 0.07901 0.70227 0.17928 0.0
C2486 C 0.06966 0.71724 0.16775 0.0
C2487 C 0.08088 0.73105 0.15646 0.0
H2488 H 0.0703 0.69155 0.18794 0.0
H2489 H 0.18073 0.82253 0.07627 0.0
H2490 H 0.55259 0.87176 0.31844 0.0
H2491 H 0.51752 0.87447 0.32704 0.0
H2492 H 0.52949 0.85547 0.39139 0.0
H2493 H 0.5647 0.85302 0.38307 0.0
H2494 H 0.4951 0.83812 0.37254 0.0
H2495 H 0.52646 0.90179 0.38335 0.0
H2496 H 0.54442 0.93212 0.37378 0.0
H2497 H 0.50113 0.9452 0.32582 0.0
H2498 H 0.48307 0.91469 0.33486 0.0
H2499 H 0.43934 0.89914 0.44663 0.0
H2500 H 0.4658 0.8892 0.42231 0.0
H2501 H 0.42268 0.87325 0.37468 0.0
H2502 H 0.39607 0.88238 0.39937 0.0
H2503 H 0.46744 0.9058 0.37539 0.0
H2504 H 0.43533 0.84113 0.36593 0.0
H2505 H 0.41744 0.81167 0.37848 0.0
H2506 H 0.46205 0.80157 0.42589 0.0
H2507 H 0.48011 0.83113 0.41368 0.0
C2508 C 0.54774 0.86781 0.33433 0.0
C2509 C 0.5614 0.86223 0.35015 0.0
C2510 C 0.52772 0.86945 0.33919 0.0
C2511 C 0.52105 0.86526 0.35983 0.0
C2512 C 0.53446 0.85871 0.37534 0.0
C2513 C 0.55453 0.85735 0.37059 0.0
C2514 C 0.50033 0.86884 0.3658 0.0
C2515 C 0.48894 0.85289 0.37294 0.0
C2516 C 0.49219 0.88806 0.36579 0.0
C2517 C 0.50366 0.90574 0.35946 0.0
C2518 C 0.52098 0.91093 0.37048 0.0
C2519 C 0.53111 0.92822 0.36524 0.0
C2520 C 0.52397 0.94056 0.34915 0.0
C2521 C 0.5067 0.93559 0.33821 0.0
C2522 C 0.49653 0.91828 0.34336 0.0
C2523 C 0.43555 0.89353 0.43097 0.0
C2524 C 0.4158 0.89148 0.42477 0.0
C2525 C 0.45058 0.88771 0.41721 0.0
C2526 C 0.44608 0.88012 0.39697 0.0
C2527 C 0.42637 0.87852 0.39049 0.0
C2528 C 0.41127 0.88391 0.40447 0.0
C2529 C 0.46245 0.87519 0.38256 0.0
C2530 C 0.47322 0.89093 0.37401 0.0
C2531 C 0.46997 0.85583 0.38124 0.0
C2532 C 0.45879 0.83859 0.38925 0.0
C2533 C 0.44109 0.83287 0.37933 0.0
C2534 C 0.43098 0.81609 0.3863 0.0
C2535 C 0.43848 0.80486 0.40313 0.0
C2536 C 0.45617 0.81035 0.41296 0.0
C2537 C 0.46635 0.82712 0.40602 0.0
H2538 H 0.43067 0.79183 0.40845 0.0
H2539 H 0.53178 0.95401 0.34522 0.0
H2540 H 0.39188 0.31795 0.64176 0.0
H2541 H 0.38822 0.28268 0.64889 0.0
H2542 H 0.37681 0.27192 0.58227 0.0
H2543 H 0.38112 0.30702 0.57473 0.0
H2544 H 0.3467 0.2579 0.61838 0.0
H2545 H 0.41081 0.25163 0.58939 0.0
H2546 H 0.44519 0.26206 0.5833 0.0
H2547 H 0.4582 0.25352 0.64967 0.0
H2548 H 0.42373 0.24339 0.65626 0.0
H2549 H 0.3587 0.15172 0.65239 0.0
H2550 H 0.3677 0.17972 0.6295 0.0
H2551 H 0.36083 0.21914 0.68297 0.0
H2552 H 0.35144 0.19127 0.70579 0.0
H2553 H 0.40087 0.21408 0.64303 0.0
H2554 H 0.33011 0.23668 0.66729 0.0
H2555 H 0.29587 0.22498 0.67213 0.0
H2556 H 0.29692 0.19896 0.60968 0.0
H2557 H 0.33131 0.21026 0.6047 0.0
C2558 C 0.389 0.30806 0.62855 0.0
C2559 C 0.3868 0.31527 0.60772 0.0
C2560 C 0.38684 0.28798 0.63266 0.0
C2561 C 0.38217 0.27492 0.61607 0.0
C2562 C 0.38043 0.2819 0.59519 0.0
C2563 C 0.38301 0.30192 0.59097 0.0
C2564 C 0.37823 0.25416 0.62113 0.0
C2565 C 0.35854 0.24813 0.62329 0.0
C2566 C 0.39372 0.24142 0.62718 0.0
C2567 C 0.41464 0.24687 0.62335 0.0
C2568 C 0.42096 0.25209 0.60273 0.0
C2569 C 0.44047 0.25792 0.59917 0.0
C2570 C 0.45387 0.25844 0.61609 0.0
C2571 C 0.4478 0.25306 0.63658 0.0
C2572 C 0.42827 0.24725 0.64023 0.0
C2573 C 0.35918 0.1664 0.65918 0.0
C2574 C 0.35439 0.1695 0.68073 0.0
C2575 C 0.36436 0.18226 0.64617 0.0
C2576 C 0.36498 0.20131 0.65469 0.0
C2577 C 0.36035 0.20443 0.67624 0.0
C2578 C 0.35487 0.18862 0.68916 0.0
C2579 C 0.36939 0.21831 0.64103 0.0
C2580 C 0.38911 0.22361 0.6374 0.0
C2581 C 0.354 0.2302 0.6331 0.0
C2582 C 0.33314 0.22431 0.63563 0.0
C2583 C 0.32297 0.22852 0.6546 0.0
C2584 C 0.3036 0.2219 0.6574 0.0
C2585 C 0.29422 0.21124 0.64121 0.0
C2586 C 0.3042 0.20721 0.62219 0.0
C2587 C 0.32363 0.21369 0.61939 0.0
H2588 H 0.27923 0.20611 0.64341 0.0
H2589 H 0.46895 0.26304 0.61333 0.0
H2590 H 0.08985 0.10172 0.90229 0.0
H2591 H 0.06077 0.10773 0.88017 0.0
H2592 H 0.02916 0.12865 0.93553 0.0
H2593 H 0.05784 0.12161 0.95783 0.0
H2594 H 0.00763 0.1035 0.91596 0.0
H2595 H 0.04436 0.16231 0.88913 0.0
H2596 H 0.07174 0.17971 0.87142 0.0
H2597 H 0.06945 0.13873 0.81925 0.0
H2598 H 0.04156 0.12146 0.83641 0.0
H2599 H 0.92476 0.15091 0.87514 0.0
H2600 H 0.95797 0.1464 0.88961 0.0
H2601 H 0.9756 0.1163 0.83209 0.0
H2602 H 0.94236 0.1206 0.81752 0.0
H2603 H 0.00473 0.14186 0.84867 0.0
H2604 H 0.96388 0.08896 0.87011 0.0
H2605 H 0.93421 0.07274 0.88456 0.0
H2606 H 0.94468 0.09946 0.9456 0.0
H2607 H 0.97416 0.11629 0.93137 0.0
C2608 C 0.07675 0.10786 0.90965 0.0
C2609 C 0.07601 0.11108 0.93178 0.0
C2610 C 0.06017 0.11143 0.89695 0.0
C2611 C 0.04274 0.11878 0.90611 0.0
C2612 C 0.04237 0.12284 0.92809 0.0
C2613 C 0.05877 0.11888 0.94084 0.0
C2614 C 0.02434 0.12082 0.89342 0.0
C2615 C 0.00699 0.11217 0.90143 0.0
C2616 C 0.0236 0.13102 0.87372 0.0
C2617 C 0.0411 0.14052 0.86414 0.0
C2618 C 0.04985 0.15692 0.874 0.0
C2619 C 0.06538 0.16681 0.86399 0.0
C2620 C 0.07246 0.16026 0.84428 0.0
C2621 C 0.06398 0.14379 0.83452 0.0
C2622 C 0.04823 0.13402 0.8443 0.0
C2623 C 0.93582 0.14376 0.86536 0.0
C2624 C 0.93095 0.13593 0.84531 0.0
C2625 C 0.95472 0.14106 0.8737 0.0
C2626 C 0.96902 0.1307 0.86202 0.0
C2627 C 0.96467 0.12421 0.84135 0.0
C2628 C 0.94571 0.12669 0.83309 0.0
C2629 C 0.98806 0.12565 0.87203 0.0
C2630 C 0.00545 0.1333 0.86328 0.0
C2631 C 0.98889 0.11425 0.89087 0.0
C2632 C 0.97115 0.1041 0.89957 0.0
C2633 C 0.95975 0.09158 0.88655 0.0
C2634 C 0.94297 0.08225 0.89471 0.0
C2635 C 0.93754 0.0851 0.91597 0.0
C2636 C 0.94889 0.09729 0.92911 0.0
C2637 C 0.96564 0.10675 0.921 0.0
H2638 H 0.92456 0.07783 0.92228 0.0
H2639 H 0.08439 0.16804 0.83648 0.0
H2640 H 0.83144 0.81003 0.69982 0.0
H2641 H 0.83509 0.77945 0.67947 0.0
H2642 H 0.87174 0.80969 0.63368 0.0
H2643 H 0.86782 0.84036 0.65363 0.0
H2644 H 0.84697 0.78259 0.61469 0.0
H2645 H 0.8932 0.78505 0.67343 0.0
H2646 H 0.90235 0.78896 0.71128 0.0
H2647 H 0.86575 0.73958 0.7279 0.0
H2648 H 0.85619 0.73554 0.69016 0.0
H2649 H 0.89096 0.69603 0.57089 0.0
H2650 H 0.88586 0.72867 0.5869 0.0
H2651 H 0.85737 0.70133 0.64099 0.0
H2652 H 0.86366 0.66894 0.6258 0.0
H2653 H 0.87892 0.72828 0.65489 0.0
H2654 H 0.83212 0.72545 0.59648 0.0
H2655 H 0.8216 0.72215 0.55897 0.0
H2656 H 0.85748 0.77187 0.54175 0.0
H2657 H 0.86839 0.77533 0.57911 0.0
C2658 C 0.84004 0.81022 0.68526 0.0
C2659 C 0.84967 0.82746 0.67852 0.0
C2660 C 0.84212 0.79277 0.67368 0.0
C2661 C 0.85399 0.7923 0.65533 0.0
C2662 C 0.86261 0.80976 0.64787 0.0
C2663 C 0.86047 0.82722 0.65938 0.0
C2664 C 0.85875 0.77334 0.64494 0.0
C2665 C 0.85408 0.7707 0.62335 0.0
C2666 C 0.86786 0.75788 0.65639 0.0
C2667 C 0.87387 0.76009 0.67902 0.0
C2668 C 0.88703 0.77509 0.68518 0.0
C2669 C 0.8923 0.77732 0.7066 0.0
C2670 C 0.88461 0.76455 0.72199 0.0
C2671 C 0.87168 0.74947 0.71597 0.0
C2672 C 0.86635 0.74719 0.69457 0.0
C2673 C 0.88389 0.69711 0.58634 0.0
C2674 C 0.87786 0.68006 0.59723 0.0
C2675 C 0.88075 0.71572 0.59535 0.0
C2676 C 0.87086 0.71753 0.61498 0.0
C2677 C 0.86508 0.70039 0.62589 0.0
C2678 C 0.86875 0.68185 0.61723 0.0
C2679 C 0.86668 0.7371 0.62458 0.0
C2680 C 0.87167 0.74 0.64609 0.0
C2681 C 0.85771 0.75269 0.61303 0.0
C2682 C 0.85123 0.75051 0.59055 0.0
C2683 C 0.83788 0.73558 0.58466 0.0
C2684 C 0.83183 0.7337 0.56343 0.0
C2685 C 0.83891 0.74676 0.54798 0.0
C2686 C 0.85203 0.76175 0.55373 0.0
C2687 C 0.85814 0.76368 0.57493 0.0
H2688 H 0.8342 0.74529 0.53156 0.0
H2689 H 0.88869 0.76631 0.73857 0.0
H2690 H 0.05296 0.12693 0.31596 0.0
H2691 H 0.01974 0.12023 0.32944 0.0
H2692 H 0.03932 0.13319 0.3934 0.0
H2693 H 0.07253 0.13962 0.38016 0.0
H2694 H 0.02065 0.09615 0.38876 0.0
H2695 H 0.00992 0.16527 0.36581 0.0
H2696 H 0.00977 0.1906 0.33755 0.0
H2697 H 0.96916 0.15577 0.3008 0.0
H2698 H 0.96923 0.13016 0.32877 0.0
H2699 H 0.94084 0.10191 0.45701 0.0
H2700 H 0.97013 0.10725 0.43512 0.0
H2701 H 0.93384 0.10778 0.37841 0.0
H2702 H 0.90434 0.10417 0.40066 0.0
H2703 H 0.95936 0.1334 0.37299 0.0
H2704 H 0.96476 0.067 0.39316 0.0
H2705 H 0.96389 0.03813 0.41702 0.0
H2706 H 0.01318 0.0611 0.4522 0.0
H2707 H 0.01418 0.09027 0.42875 0.0
C2708 C 0.0501 0.12877 0.33284 0.0
C2709 C 0.06541 0.13373 0.34705 0.0
C2710 C 0.03112 0.12488 0.34049 0.0
C2711 C 0.02718 0.12608 0.36241 0.0
C2712 C 0.04216 0.13204 0.37643 0.0
C2713 C 0.06109 0.13588 0.36882 0.0
C2714 C 0.00781 0.12018 0.37113 0.0
C2715 C 0.00723 0.10435 0.3855 0.0
C2716 C 0.99016 0.13003 0.36568 0.0
C2717 C 0.98967 0.14578 0.3493 0.0
C2718 C 0.001 0.16301 0.35168 0.0
C2719 C 0.00093 0.17741 0.33571 0.0
C2720 C 0.98949 0.17478 0.31738 0.0
C2721 C 0.97801 0.15779 0.31501 0.0
C2722 C 0.97803 0.14335 0.33093 0.0
C2723 C 0.93921 0.10307 0.43987 0.0
C2724 C 0.92051 0.10243 0.43041 0.0
C2725 C 0.95593 0.10597 0.42731 0.0
C2726 C 0.95433 0.10733 0.40497 0.0
C2727 C 0.93553 0.10668 0.39555 0.0
C2728 C 0.91872 0.10451 0.40822 0.0
C2729 C 0.9723 0.10997 0.39172 0.0
C2730 C 0.97263 0.12497 0.37623 0.0
C2731 C 0.98958 0.09873 0.39542 0.0
C2732 C 0.98948 0.0809 0.40922 0.0
C2733 C 0.97539 0.06593 0.40602 0.0
C2734 C 0.97486 0.04952 0.41948 0.0
C2735 C 0.98845 0.0478 0.43613 0.0
C2736 C 0.00266 0.06245 0.43929 0.0
C2737 C 0.00325 0.07892 0.42588 0.0
H2738 H 0.98799 0.0351 0.44658 0.0
H2739 H 0.98949 0.18592 0.30501 0.0
H2740 H 0.61012 0.31872 0.13667 0.0
H2741 H 0.61866 0.28514 0.14716 0.0
H2742 H 0.62147 0.26791 0.08099 0.0
H2743 H 0.61257 0.30137 0.07031 0.0
H2744 H 0.60393 0.24038 0.10454 0.0
H2745 H 0.66358 0.27728 0.10834 0.0
H2746 H 0.685 0.30512 0.11868 0.0
H2747 H 0.67713 0.29062 0.18478 0.0
H2748 H 0.65536 0.26295 0.17489 0.0
H2749 H 0.6442 0.14928 0.15004 0.0
H2750 H 0.64183 0.1781 0.12659 0.0
H2751 H 0.63354 0.21553 0.18156 0.0
H2752 H 0.63764 0.18711 0.20496 0.0
H2753 H 0.65992 0.23062 0.15436 0.0
H2754 H 0.58201 0.21617 0.13718 0.0
H2755 H 0.55685 0.19268 0.1244 0.0
H2756 H 0.59996 0.16453 0.08455 0.0
H2757 H 0.62496 0.18896 0.0958 0.0
C2758 C 0.6122 0.30772 0.12434 0.0
C2759 C 0.61084 0.31276 0.10266 0.0
C2760 C 0.61733 0.28861 0.13036 0.0
C2761 C 0.62129 0.27426 0.11481 0.0
C2762 C 0.61874 0.27889 0.0932 0.0
C2763 C 0.61355 0.29799 0.08716 0.0
C2764 C 0.6279 0.25437 0.12123 0.0
C2765 C 0.61642 0.23816 0.11512 0.0
C2766 C 0.64433 0.25155 0.13483 0.0
C2767 C 0.65772 0.26805 0.14084 0.0
C2768 C 0.66631 0.28009 0.12509 0.0
C2769 C 0.67853 0.29584 0.13087 0.0
C2770 C 0.68241 0.29965 0.15237 0.0
C2771 C 0.67412 0.28766 0.16813 0.0
C2772 C 0.66185 0.27192 0.16243 0.0
C2773 C 0.64186 0.16372 0.15699 0.0
C2774 C 0.64119 0.16609 0.17923 0.0
C2775 C 0.64013 0.18012 0.14357 0.0
C2776 C 0.63687 0.19895 0.15222 0.0
C2777 C 0.636 0.20115 0.17448 0.0
C2778 C 0.63837 0.18494 0.18786 0.0
C2779 C 0.6352 0.21679 0.13869 0.0
C2780 C 0.64775 0.23274 0.14334 0.0
C2781 C 0.6198 0.2194 0.1237 0.0
C2782 C 0.60557 0.20371 0.11815 0.0
C2783 C 0.58617 0.20476 0.12594 0.0
C2784 C 0.57188 0.1915 0.11872 0.0
C2785 C 0.57694 0.17677 0.10414 0.0
C2786 C 0.59617 0.1757 0.09618 0.0
C2787 C 0.61037 0.18937 0.10284 0.0
H2788 H 0.56588 0.16638 0.09884 0.0
H2789 H 0.69184 0.31187 0.15681 0.0
H2790 H 0.43906 0.85235 0.82388 0.0
H2791 H 0.47326 0.86003 0.83314 0.0
H2792 H 0.45607 0.86924 0.89862 0.0
H2793 H 0.42181 0.86176 0.88951 0.0
H2794 H 0.47832 0.90091 0.87998 0.0
H2795 H 0.48022 0.82768 0.88408 0.0
H2796 H 0.47582 0.79528 0.86676 0.0
H2797 H 0.51717 0.81164 0.81797 0.0
H2798 H 0.52166 0.84421 0.83493 0.0
H2799 H 0.55368 0.89799 0.95288 0.0
H2800 H 0.52514 0.89433 0.92961 0.0
H2801 H 0.5632 0.87631 0.87791 0.0
H2802 H 0.59185 0.87927 0.90155 0.0
H2803 H 0.53366 0.85302 0.87886 0.0
H2804 H 0.53893 0.92131 0.87648 0.0
H2805 H 0.54449 0.95522 0.88926 0.0
H2806 H 0.49173 0.95207 0.92699 0.0
H2807 H 0.48598 0.918 0.91474 0.0
C2808 C 0.44263 0.85561 0.84035 0.0
C2809 C 0.42774 0.85652 0.85597 0.0
C2810 C 0.46214 0.8601 0.84555 0.0
C2811 C 0.46705 0.86541 0.86648 0.0
C2812 C 0.45243 0.86535 0.88232 0.0
C2813 C 0.43294 0.86081 0.87715 0.0
C2814 C 0.48734 0.87136 0.87205 0.0
C2815 C 0.49046 0.89049 0.87988 0.0
C2816 C 0.50339 0.85818 0.87034 0.0
C2817 C 0.50119 0.83836 0.86069 0.0
C2818 C 0.48834 0.82435 0.86965 0.0
C2819 C 0.48583 0.80598 0.85989 0.0
C2820 C 0.49619 0.80142 0.84126 0.0
C2821 C 0.50916 0.81519 0.8324 0.0
C2822 C 0.51172 0.83359 0.8421 0.0
C2823 C 0.55598 0.89345 0.9365 0.0
C2824 C 0.5749 0.88884 0.929 0.0
C2825 C 0.53969 0.8915 0.92313 0.0
C2826 C 0.54205 0.88539 0.90186 0.0
C2827 C 0.56103 0.8811 0.89422 0.0
C2828 C 0.57734 0.88277 0.90772 0.0
C2829 C 0.5244 0.8822 0.88837 0.0
C2830 C 0.52176 0.86371 0.87868 0.0
C2831 C 0.509 0.89628 0.88758 0.0
C2832 C 0.51205 0.917 0.89471 0.0
C2833 C 0.52853 0.92779 0.88758 0.0
C2834 C 0.53173 0.94706 0.89473 0.0
C2835 C 0.51848 0.95579 0.90895 0.0
C2836 C 0.50197 0.94529 0.91597 0.0
C2837 C 0.49871 0.926 0.90888 0.0
H2838 H 0.52101 0.97069 0.91451 0.0
H2839 H 0.49418 0.7872 0.8337 0.0
H2840 H 0.87879 0.29833 0.92993 0.0
H2841 H 0.87044 0.26571 0.91591 0.0
H2842 H 0.88645 0.28478 0.85262 0.0
H2843 H 0.89469 0.31743 0.86639 0.0
H2844 H 0.84879 0.26721 0.85518 0.0
H2845 H 0.91637 0.25431 0.8817 0.0
H2846 H 0.94054 0.25361 0.91115 0.0
H2847 H 0.90293 0.21452 0.94653 0.0
H2848 H 0.87846 0.21516 0.91738 0.0
H2849 H 0.85445 0.18534 0.78883 0.0
H2850 H 0.85985 0.21508 0.8101 0.0
H2851 H 0.85607 0.18052 0.86787 0.0
H2852 H 0.85217 0.1506 0.84642 0.0
H2853 H 0.88297 0.20481 0.87361 0.0
H2854 H 0.81782 0.21228 0.84984 0.0
H2855 H 0.79005 0.21207 0.82445 0.0
H2856 H 0.81612 0.2603 0.79017 0.0
H2857 H 0.84426 0.26058 0.81511 0.0
C2858 C 0.88093 0.29547 0.9131 0.0
C2859 C 0.88736 0.3105 0.89925 0.0
C2860 C 0.87606 0.27685 0.90512 0.0
C2861 C 0.87771 0.27292 0.88322 0.0
C2862 C 0.88492 0.28761 0.86954 0.0
C2863 C 0.88977 0.30621 0.87748 0.0
C2864 C 0.87151 0.25372 0.87424 0.0
C2865 C 0.85633 0.25355 0.85901 0.0
C2866 C 0.88048 0.23579 0.88034 0.0
C2867 C 0.89556 0.23489 0.89744 0.0
C2868 C 0.91326 0.24561 0.89579 0.0
C2869 C 0.927 0.24522 0.91242 0.0
C2870 C 0.92326 0.23406 0.93072 0.0
C2871 C 0.90581 0.22316 0.93236 0.0
C2872 C 0.89202 0.22351 0.91577 0.0
C2873 C 0.85465 0.18421 0.80607 0.0
C2874 C 0.85277 0.16586 0.81608 0.0
C2875 C 0.85762 0.20118 0.81825 0.0
C2876 C 0.85789 0.20018 0.84068 0.0
C2877 C 0.85588 0.18174 0.85064 0.0
C2878 C 0.85355 0.1647 0.83842 0.0
C2879 C 0.86084 0.21834 0.85357 0.0
C2880 C 0.87521 0.21834 0.86976 0.0
C2881 C 0.85048 0.236 0.84902 0.0
C2882 C 0.83326 0.23636 0.8343 0.0
C2883 C 0.81769 0.2228 0.83684 0.0
C2884 C 0.80188 0.22265 0.82251 0.0
C2885 C 0.80135 0.23613 0.80567 0.0
C2886 C 0.81657 0.24986 0.80321 0.0
C2887 C 0.83245 0.25003 0.81746 0.0
H2888 H 0.78912 0.23597 0.79456 0.0
H2889 H 0.93389 0.23383 0.9436 0.0
H2890 H 0.42601 0.15234 0.62179 0.0
H2891 H 0.45974 0.14715 0.60915 0.0
H2892 H 0.47432 0.11787 0.66818 0.0
H2893 H 0.44098 0.12356 0.6812 0.0
H2894 H 0.50557 0.13698 0.65372 0.0
H2895 H 0.45775 0.09138 0.62516 0.0
H2896 H 0.42752 0.08111 0.60619 0.0
H2897 H 0.44779 0.11015 0.54941 0.0
H2898 H 0.47801 0.1208 0.56812 0.0
H2899 H 0.56555 0.07062 0.57257 0.0
H2900 H 0.5371 0.07641 0.59606 0.0
H2901 H 0.55207 0.13824 0.59918 0.0
H2902 H 0.58029 0.13244 0.57603 0.0
H2903 H 0.50674 0.0992 0.58589 0.0
H2904 H 0.54177 0.15775 0.63781 0.0
H2905 H 0.57256 0.16373 0.65795 0.0
H2906 H 0.57749 0.10178 0.67119 0.0
H2907 H 0.54697 0.09545 0.65073 0.0
C2908 C 0.43655 0.14527 0.63229 0.0
C2909 C 0.43074 0.13798 0.65228 0.0
C2910 C 0.45577 0.14223 0.62502 0.0
C2911 C 0.46928 0.1316 0.63751 0.0
C2912 C 0.46405 0.12595 0.65823 0.0
C2913 C 0.44493 0.12919 0.66561 0.0
C2914 C 0.48804 0.12457 0.62827 0.0
C2915 C 0.50581 0.12875 0.63888 0.0
C2916 C 0.48833 0.11324 0.60929 0.0
C2917 C 0.47004 0.10704 0.59811 0.0
C2918 C 0.45568 0.09571 0.60868 0.0
C2919 C 0.43856 0.08979 0.59797 0.0
C2920 C 0.43572 0.09501 0.57662 0.0
C2921 C 0.44999 0.10614 0.56595 0.0
C2922 C 0.46711 0.11211 0.5766 0.0
C2923 C 0.56282 0.08535 0.57857 0.0
C2924 C 0.57512 0.1011 0.57279 0.0
C2925 C 0.54673 0.08862 0.59204 0.0
C2926 C 0.54277 0.10768 0.59972 0.0
C2927 C 0.55525 0.12331 0.5941 0.0
C2928 C 0.57132 0.12002 0.58081 0.0
C2929 C 0.52421 0.11195 0.61107 0.0
C2930 C 0.50645 0.1073 0.60082 0.0
C2931 C 0.5239 0.12236 0.63057 0.0
C2932 C 0.54219 0.12615 0.64279 0.0
C2933 C 0.54944 0.14545 0.64507 0.0
C2934 C 0.56688 0.14888 0.65643 0.0
C2935 C 0.57697 0.13315 0.66586 0.0
C2936 C 0.56971 0.11394 0.66382 0.0
C2937 C 0.55243 0.11041 0.65223 0.0
H2938 H 0.59041 0.13584 0.67474 0.0
H2939 H 0.42248 0.09039 0.56834 0.0
H2940 H 0.61814 0.83507 0.33953 0.0
H2941 H 0.61382 0.80494 0.36014 0.0
H2942 H 0.67036 0.7839 0.33803 0.0
H2943 H 0.67446 0.81383 0.31673 0.0
H2944 H 0.64174 0.75956 0.32796 0.0
H2945 H 0.66047 0.79419 0.3919 0.0
H2946 H 0.65869 0.82117 0.41821 0.0
H2947 H 0.59828 0.80654 0.4315 0.0
H2948 H 0.5996 0.77963 0.40507 0.0
H2949 H 0.64066 0.66767 0.3756 0.0
H2950 H 0.64877 0.70165 0.3668 0.0
H2951 H 0.59305 0.72092 0.39296 0.0
H2952 H 0.58558 0.68666 0.40336 0.0
H2953 H 0.62076 0.74685 0.40248 0.0
H2954 H 0.60037 0.71508 0.33773 0.0
H2955 H 0.60025 0.68887 0.31044 0.0
H2956 H 0.66153 0.69974 0.29746 0.0
H2957 H 0.66207 0.72586 0.32485 0.0
C2958 C 0.62983 0.82419 0.33938 0.0
C2959 C 0.64645 0.82655 0.3262 0.0
C2960 C 0.62743 0.80706 0.35137 0.0
C2961 C 0.64178 0.7922 0.35065 0.0
C2962 C 0.65909 0.79521 0.33874 0.0
C2963 C 0.66137 0.81222 0.32649 0.0
C2964 C 0.63725 0.77235 0.35904 0.0
C2965 C 0.63759 0.75675 0.3444 0.0
C2966 C 0.63081 0.76892 0.3802 0.0
C2967 C 0.6301 0.78495 0.39636 0.0
C2968 C 0.64676 0.79679 0.40032 0.0
C2969 C 0.64584 0.81207 0.41528 0.0
C2970 C 0.62837 0.81559 0.42648 0.0
C2971 C 0.6118 0.8038 0.42281 0.0
C2972 C 0.61264 0.7885 0.40786 0.0
C2973 C 0.63001 0.67913 0.37916 0.0
C2974 C 0.61222 0.67464 0.38947 0.0
C2975 C 0.63469 0.69855 0.37425 0.0
C2976 C 0.62128 0.71378 0.37866 0.0
C2977 C 0.60354 0.70936 0.38925 0.0
C2978 C 0.59914 0.68987 0.3949 0.0
C2979 C 0.62574 0.73409 0.37143 0.0
C2980 C 0.62514 0.74973 0.38614 0.0
C2981 C 0.63167 0.73779 0.35018 0.0
C2982 C 0.63128 0.72233 0.33342 0.0
C2983 C 0.61383 0.71182 0.3291 0.0
C2984 C 0.61369 0.69699 0.31362 0.0
C2985 C 0.63088 0.69262 0.30225 0.0
C2986 C 0.64823 0.70313 0.30628 0.0
C2987 C 0.64845 0.71797 0.32175 0.0
H2988 H 0.63075 0.68111 0.29029 0.0
H2989 H 0.62768 0.82744 0.43804 0.0
H2990 H 0.90229 0.88146 0.09789 0.0
H2991 H 0.93191 0.87408 0.11894 0.0
H2992 H 0.9685 0.89279 0.06644 0.0
H2993 H 0.93901 0.90055 0.04544 0.0
H2994 H 0.97367 0.85086 0.08691 0.0
H2995 H 0.96962 0.9225 0.10053 0.0
H2996 H 0.95101 0.95148 0.11318 0.0
H2997 H 0.94373 0.92429 0.17452 0.0
H2998 H 0.96212 0.89502 0.1621 0.0
H2999 H 0.07249 0.86605 0.1062 0.0
H3000 H 0.03763 0.86933 0.09746 0.0
H3001 H 0.02217 0.86062 0.16352 0.0
H3002 H 0.0572 0.85741 0.17255 0.0
H3003 H 0.00232 0.89316 0.14372 0.0
H3004 H 0.01146 0.8247 0.13349 0.0
H3005 H 0.02994 0.79527 0.12195 0.0
H3006 H 0.02586 0.81419 0.05675 0.0
H3007 H 0.00755 0.84389 0.06794 0.0
C3008 C 0.91668 0.88416 0.09096 0.0
C3009 C 0.91847 0.89145 0.07005 0.0
C3010 C 0.93348 0.87998 0.10297 0.0
C3011 C 0.9522 0.88283 0.09407 0.0
C3012 C 0.95405 0.8905 0.07341 0.0
C3013 C 0.93727 0.895 0.06153 0.0
C3014 C 0.97002 0.87711 0.10584 0.0
C3015 C 0.97996 0.86003 0.09937 0.0
C3016 C 0.97757 0.8887 0.12267 0.0
C3017 C 0.96708 0.90652 0.13033 0.0
C3018 C 0.96395 0.92266 0.11667 0.0
C3019 C 0.95346 0.93914 0.1238 0.0
C3020 C 0.94614 0.93971 0.14463 0.0
C3021 C 0.94939 0.92382 0.15839 0.0
C3022 C 0.95987 0.9073 0.15132 0.0
C3023 C 0.06172 0.86449 0.11885 0.0
C3024 C 0.0676 0.86137 0.14003 0.0
C3025 C 0.04181 0.8665 0.11385 0.0
C3026 C 0.02742 0.86521 0.12988 0.0
C3027 C 0.03313 0.86175 0.151 0.0
C3028 C 0.0531 0.85973 0.15604 0.0
C3029 C 0.00646 0.86735 0.12407 0.0
C3030 C 0.99583 0.88366 0.1317 0.0
C3031 C -0.00199 0.85482 0.10857 0.0
C3032 C 0.00814 0.83653 0.10156 0.0
C3033 C 0.0145 0.82258 0.11669 0.0
C3034 C 0.02497 0.80587 0.11022 0.0
C3035 C 0.02908 0.80287 0.08863 0.0
C3036 C 0.02263 0.81652 0.07346 0.0
C3037 C 0.01215 0.83328 0.07985 0.0
H3038 H 0.03726 0.78995 0.08365 0.0
H3039 H 0.93799 0.95246 0.15011 0.0
H3040 H 0.65776 0.6856 0.79463 0.0
H3041 H 0.65214 0.71442 0.8173 0.0
H3042 H 0.6253 0.67732 0.86513 0.0
H3043 H 0.63105 0.64847 0.84254 0.0
H3044 H 0.60298 0.70927 0.85755 0.0
H3045 H 0.66851 0.69667 0.87601 0.0
H3046 H 0.70337 0.68771 0.8705 0.0
H3047 H 0.71272 0.74116 0.83523 0.0
H3048 H 0.67779 0.75033 0.84023 0.0
H3049 H 0.60213 0.80026 0.92014 0.0
H3050 H 0.6093 0.76594 0.91036 0.0
H3051 H 0.6275 0.78496 0.84777 0.0
H3052 H 0.62009 0.81911 0.85718 0.0
H3053 H 0.65534 0.75873 0.87211 0.0
H3054 H 0.58554 0.76532 0.84979 0.0
H3055 H 0.5509 0.77315 0.85852 0.0
H3056 H 0.55111 0.72879 0.9074 0.0
H3057 H 0.58584 0.72087 0.89907 0.0
C3058 C 0.65086 0.68359 0.81006 0.0
C3059 C 0.64459 0.66489 0.81677 0.0
C3060 C 0.64769 0.70001 0.82302 0.0
C3061 C 0.63837 0.69794 0.84292 0.0
C3062 C 0.63242 0.67922 0.84979 0.0
C3063 C 0.63562 0.66281 0.83686 0.0
C3064 C 0.63418 0.71558 0.85597 0.0
C3065 C 0.6145 0.71989 0.86117 0.0
C3066 C 0.64925 0.72923 0.86105 0.0
C3067 C 0.67046 0.72415 0.85841 0.0
C3068 C 0.67796 0.70649 0.86698 0.0
C3069 C 0.69774 0.70136 0.86396 0.0
C3070 C 0.71025 0.71384 0.85249 0.0
C3071 C 0.703 0.73151 0.84411 0.0
C3072 C 0.68321 0.7367 0.84708 0.0
C3073 C 0.60732 0.79704 0.90417 0.0
C3074 C 0.61043 0.81231 0.88936 0.0
C3075 C 0.61155 0.77752 0.89871 0.0
C3076 C 0.61916 0.7731 0.87849 0.0
C3077 C 0.62181 0.78822 0.86353 0.0
C3078 C 0.61729 0.80765 0.86884 0.0
C3079 C 0.62412 0.7527 0.87252 0.0
C3080 C 0.64397 0.74787 0.86887 0.0
C3081 C 0.60931 0.73834 0.86947 0.0
C3082 C 0.58827 0.74261 0.87392 0.0
C3083 C 0.5782 0.75729 0.86244 0.0
C3084 C 0.55856 0.76174 0.86731 0.0
C3085 C 0.54882 0.7515 0.88353 0.0
C3086 C 0.55867 0.73671 0.89484 0.0
C3087 C 0.57832 0.73222 0.89003 0.0
H3088 H 0.53364 0.755 0.88732 0.0
H3089 H 0.72555 0.70983 0.85012 0.0
H3090 H 0.55865 0.4156 0.05404 0.0
H3091 H 0.53111 0.4113 0.07902 0.0
H3092 H 0.56387 0.36641 0.11245 0.0
H3093 H 0.59155 0.37117 0.08807 0.0
H3094 H 0.52519 0.35549 0.09296 0.0
H3095 H 0.55588 0.39964 0.14114 0.0
H3096 H 0.57283 0.42995 0.15277 0.0
H3097 H 0.522 0.4643 0.13574 0.0
H3098 H 0.50482 0.43421 0.12367 0.0
H3099 H 0.44285 0.3505 0.17222 0.0
H3100 H 0.47735 0.35557 0.16118 0.0
H3101 H 0.45739 0.38652 0.10513 0.0
H3102 H 0.42306 0.38084 0.11552 0.0
H3103 H 0.49278 0.40218 0.14288 0.0
H3104 H 0.4708 0.35794 0.08198 0.0
H3105 H 0.45369 0.32759 0.07056 0.0
H3106 H 0.4889 0.29352 0.11399 0.0
H3107 H 0.50606 0.3238 0.1258 0.0
C3108 C 0.56011 0.40512 0.06698 0.0
C3109 C 0.57707 0.39336 0.06892 0.0
C3110 C 0.54447 0.40277 0.08127 0.0
C3111 C 0.54558 0.38853 0.09746 0.0
C3112 C 0.56283 0.37748 0.10004 0.0
C3113 C 0.57854 0.38009 0.08603 0.0
C3114 C 0.52776 0.38326 0.10954 0.0
C3115 C 0.51833 0.36553 0.10421 0.0
C3116 C 0.51889 0.39643 0.12411 0.0
C3117 C 0.52912 0.41465 0.13127 0.0
C3118 C 0.54838 0.41368 0.13964 0.0
C3119 C 0.55802 0.43082 0.14637 0.0
C3120 C 0.54852 0.44905 0.14494 0.0
C3121 C 0.52935 0.45017 0.13681 0.0
C3122 C 0.51964 0.43306 0.13005 0.0
C3123 C 0.44592 0.35809 0.15739 0.0
C3124 C 0.43043 0.36503 0.14453 0.0
C3125 C 0.4655 0.36112 0.15125 0.0
C3126 C 0.4697 0.37155 0.13251 0.0
C3127 C 0.45428 0.37844 0.11965 0.0
C3128 C 0.43475 0.37497 0.12546 0.0
C3129 C 0.49018 0.37476 0.12573 0.0
C3130 C 0.49999 0.39204 0.13201 0.0
C3131 C 0.49954 0.36124 0.11205 0.0
C3132 C 0.48952 0.34305 0.10487 0.0
C3133 C 0.47478 0.34397 0.08915 0.0
C3134 C 0.46511 0.3268 0.08259 0.0
C3135 C 0.47017 0.30863 0.09157 0.0
C3136 C 0.48497 0.30761 0.10708 0.0
C3137 C 0.49467 0.32476 0.11372 0.0
H3138 H 0.46263 0.29536 0.08651 0.0
H3139 H 0.556 0.46231 0.15016 0.0
H3140 H 0.88043 0.33651 0.32649 0.0
H3141 H 0.88691 0.30942 0.35092 0.0
H3142 H 0.83069 0.2836 0.33458 0.0
H3143 H 0.82386 0.31146 0.31053 0.0
H3144 H 0.84015 0.2808 0.37868 0.0
H3145 H 0.87024 0.26754 0.31002 0.0
H3146 H 0.89147 0.27514 0.27915 0.0
H3147 H 0.94174 0.28021 0.32053 0.0
H3148 H 0.92073 0.27285 0.3517 0.0
H3149 H 0.85288 0.17785 0.37501 0.0
H3150 H 0.84852 0.21311 0.36872 0.0
H3151 H 0.90086 0.22546 0.40558 0.0
H3152 H 0.9048 0.1899 0.41282 0.0
H3153 H 0.89745 0.23902 0.35897 0.0
H3154 H 0.86788 0.24416 0.42649 0.0
H3155 H 0.84646 0.23633 0.45708 0.0
H3156 H 0.79505 0.24598 0.41844 0.0
H3157 H 0.81614 0.25351 0.38747 0.0
C3158 C 0.86925 0.32538 0.32855 0.0
C3159 C 0.85162 0.32621 0.31688 0.0
C3160 C 0.87302 0.30983 0.34236 0.0
C3161 C 0.8593 0.29454 0.34448 0.0
C3162 C 0.8414 0.29539 0.33318 0.0
C3163 C 0.83761 0.31113 0.31933 0.0
C3164 C 0.86447 0.2769 0.35703 0.0
C3165 C 0.85257 0.27153 0.37437 0.0
C3166 C 0.88124 0.26543 0.35187 0.0
C3167 C 0.89389 0.26988 0.33319 0.0
C3168 C 0.88579 0.27044 0.31254 0.0
C3169 C 0.89778 0.27467 0.295 0.0
C3170 C 0.91793 0.27821 0.29788 0.0
C3171 C 0.92613 0.27749 0.31833 0.0
C3172 C 0.91419 0.27328 0.33593 0.0
C3173 C 0.86347 0.18808 0.38176 0.0
C3174 C 0.87941 0.1813 0.39399 0.0
C3175 C 0.86077 0.20817 0.37848 0.0
C3176 C 0.87421 0.22176 0.38697 0.0
C3177 C 0.89021 0.21509 0.39922 0.0
C3178 C 0.89256 0.19491 0.4031 0.0
C3179 C 0.87271 0.24244 0.38016 0.0
C3180 C 0.8853 0.24847 0.36372 0.0
C3181 C 0.85652 0.25436 0.38613 0.0
C3182 C 0.84366 0.2492 0.40452 0.0
C3183 C 0.85202 0.24433 0.42439 0.0
C3184 C 0.83992 0.24001 0.44184 0.0
C3185 C 0.81941 0.2406 0.43969 0.0
C3186 C 0.81095 0.2455 0.42007 0.0
C3187 C 0.82298 0.2498 0.40256 0.0
H3188 H 0.81007 0.2373 0.45324 0.0
H3189 H 0.92719 0.28147 0.28427 0.0
H3190 H 0.92137 0.63323 0.56111 0.0
H3191 H 0.95037 0.63775 0.58393 0.0
H3192 H 0.947 0.57679 0.60325 0.0
H3193 H 0.91843 0.57193 0.57944 0.0
H3194 H 0.95427 0.61908 0.6358 0.0
H3195 H 0.97819 0.57157 0.58243 0.0
H3196 H 0.97899 0.5594 0.54538 0.0
H3197 H 0.00135 0.61532 0.52417 0.0
H3198 H 0.00011 0.62799 0.56109 0.0
H3199 H 0.05197 0.61572 0.67978 0.0
H3200 H 0.01905 0.60976 0.6657 0.0
H3201 H 0.03196 0.64709 0.6117 0.0
H3202 H 0.0654 0.65239 0.62528 0.0
H3203 H 0.01867 0.61324 0.59864 0.0
H3204 H -0.00198 0.65945 0.65329 0.0
H3205 H 0.99591 0.67194 0.69017 0.0
H3206 H 0.96736 0.6184 0.70983 0.0
H3207 H 0.96953 0.60548 0.67313 0.0
C3208 C 0.92694 0.62079 0.57015 0.0
C3209 C 0.91816 0.60214 0.56829 0.0
C3210 C 0.94328 0.62343 0.58328 0.0
C3211 C 0.95067 0.60759 0.59516 0.0
C3212 C 0.94144 0.5891 0.59403 0.0
C3213 C 0.92538 0.58629 0.58035 0.0
C3214 C 0.96917 0.61029 0.60703 0.0
C3215 C 0.96846 0.61746 0.62797 0.0
C3216 C 0.98744 0.60852 0.59649 0.0
C3217 C 0.98875 0.60081 0.57442 0.0
C3218 C 0.98303 0.58134 0.56982 0.0
C3219 C 0.98359 0.57434 0.54886 0.0
C3220 C 0.99014 0.5866 0.53241 0.0
C3221 C 0.99621 0.60586 0.53692 0.0
C3222 C 0.99556 0.61297 0.55785 0.0
C3223 C 0.04768 0.62306 0.66516 0.0
C3224 C 0.06131 0.63443 0.65352 0.0
C3225 C 0.02878 0.61967 0.65715 0.0
C3226 C 0.023 0.62801 0.63767 0.0
C3227 C 0.03617 0.64041 0.62673 0.0
C3228 C 0.05522 0.64352 0.63453 0.0
C3229 C 0.00405 0.62231 0.62764 0.0
C3230 C 0.00464 0.61466 0.60682 0.0
C3231 C 0.98574 0.62347 0.63851 0.0
C3232 C 0.98409 0.63144 0.66048 0.0
C3233 C 0.99139 0.6503 0.6655 0.0
C3234 C 0.99017 0.65746 0.68637 0.0
C3235 C 0.98155 0.64595 0.70234 0.0
C3236 C 0.97405 0.62729 0.69745 0.0
C3237 C 0.97525 0.62006 0.67661 0.0
H3238 H 0.98065 0.65151 0.71849 0.0
H3239 H 0.99057 0.58116 0.51619 0.0
H3240 H 0.61622 0.33592 0.67013 0.0
H3241 H 0.61026 0.30613 0.6492 0.0
H3242 H 0.66984 0.2868 0.66133 0.0
H3243 H 0.67568 0.31636 0.6832 0.0
H3244 H 0.63742 0.28845 0.61203 0.0
H3245 H 0.66111 0.2575 0.68176 0.0
H3246 H 0.66078 0.25877 0.72111 0.0
H3247 H 0.59741 0.26053 0.72065 0.0
H3248 H 0.59747 0.2598 0.68126 0.0
H3249 H 0.63265 0.18963 0.57534 0.0
H3250 H 0.64019 0.22207 0.58958 0.0
H3251 H 0.59016 0.21778 0.63205 0.0
H3252 H 0.58354 0.18439 0.61886 0.0
H3253 H 0.61886 0.22903 0.65363 0.0
H3254 H 0.59426 0.25123 0.58571 0.0
H3255 H 0.59181 0.25247 0.54648 0.0
H3256 H 0.65278 0.26935 0.54231 0.0
H3257 H 0.65565 0.268 0.5815 0.0
C3258 C 0.62811 0.32542 0.66818 0.0
C3259 C 0.64635 0.32829 0.67837 0.0
C3260 C 0.62469 0.30846 0.65623 0.0
C3261 C 0.63954 0.29429 0.65401 0.0
C3262 C 0.65812 0.29752 0.66325 0.0
C3263 C 0.66144 0.31432 0.67567 0.0
C3264 C 0.6349 0.27559 0.64324 0.0
C3265 C 0.63369 0.27526 0.62096 0.0
C3266 C 0.62934 0.25882 0.65507 0.0
C3267 C 0.62932 0.25892 0.67866 0.0
C3268 C 0.64714 0.2584 0.69008 0.0
C3269 C 0.647 0.259 0.71237 0.0
C3270 C 0.62909 0.25982 0.72338 0.0
C3271 C 0.61128 0.25999 0.71211 0.0
C3272 C 0.61136 0.25953 0.68981 0.0
C3273 C 0.62295 0.1958 0.58734 0.0
C3274 C 0.60743 0.1846 0.59596 0.0
C3275 C 0.62723 0.21445 0.59543 0.0
C3276 C 0.61561 0.22261 0.61172 0.0
C3277 C 0.5994 0.21181 0.61952 0.0
C3278 C 0.59551 0.19282 0.61191 0.0
C3279 C 0.6215 0.24146 0.622 0.0
C3280 C 0.62277 0.24197 0.64437 0.0
C3281 C 0.62696 0.25843 0.61012 0.0
C3282 C 0.62519 0.25936 0.58654 0.0
C3283 C 0.60717 0.25509 0.57642 0.0
C3284 C 0.6057 0.25583 0.55419 0.0
C3285 C 0.62214 0.26094 0.54191 0.0
C3286 C 0.64006 0.26538 0.55184 0.0
C3287 C 0.6416 0.26466 0.57406 0.0
H3288 H 0.62098 0.26149 0.5247 0.0
H3289 H 0.629 0.26025 0.74063 0.0
H3290 H 0.92647 0.42454 0.92235 0.0
H3291 H 0.95342 0.41919 0.8968 0.0
H3292 H 0.94124 0.35664 0.89743 0.0
H3293 H 0.91452 0.36202 0.92245 0.0
H3294 H 0.98432 0.39997 0.90744 0.0
H3295 H 0.95719 0.33299 0.8563 0.0
H3296 H 0.92737 0.32324 0.83634 0.0
H3297 H 0.9111 0.38407 0.82927 0.0
H3298 H 0.94085 0.39421 0.8491 0.0
H3299 H 0.06592 0.34238 0.88844 0.0
H3300 H 0.03146 0.34949 0.8971 0.0
H3301 H 0.02089 0.36708 0.83196 0.0
H3302 H 0.05484 0.35914 0.82295 0.0
H3303 H 0.98866 0.35255 0.84736 0.0
H3304 H 0.0359 0.40103 0.87051 0.0
H3305 H 0.06503 0.41402 0.88956 0.0
H3306 H 0.04026 0.39553 0.94932 0.0
H3307 H 0.01112 0.38221 0.93063 0.0
C3308 C 0.92944 0.40975 0.91667 0.0
C3309 C 0.91857 0.39363 0.92429 0.0
C3310 C 0.94462 0.40673 0.90197 0.0
C3311 C 0.94915 0.38754 0.89498 0.0
C3312 C 0.93768 0.37163 0.90201 0.0
C3313 C 0.9225 0.37468 0.91647 0.0
C3314 C 0.96795 0.3834 0.88403 0.0
C3315 C 0.98526 0.38986 0.89406 0.0
C3316 C 0.96913 0.37038 0.86644 0.0
C3317 C 0.95128 0.36436 0.85426 0.0
C3318 C 0.94733 0.3443 0.85038 0.0
C3319 C 0.9304 0.3387 0.83913 0.0
C3320 C 0.91735 0.35302 0.83155 0.0
C3321 C 0.92119 0.37298 0.83521 0.0
C3322 C 0.93806 0.37866 0.84651 0.0
C3323 C 0.05608 0.34709 0.87581 0.0
C3324 C 0.06321 0.35073 0.85517 0.0
C3325 C 0.03646 0.35134 0.88082 0.0
C3326 C 0.02391 0.35955 0.86533 0.0
C3327 C 0.03041 0.36106 0.84421 0.0
C3328 C 0.04988 0.35655 0.83913 0.0
C3329 C 0.00485 0.36846 0.87147 0.0
C3330 C 0.98764 0.36293 0.86048 0.0
C3331 C 0.00371 0.38273 0.88792 0.0
C3332 C 0.02141 0.39046 0.89913 0.0
C3333 C 0.03675 0.39958 0.88769 0.0
C3334 C 0.05325 0.40703 0.89843 0.0
C3335 C 0.05452 0.40555 0.92062 0.0
C3336 C 0.03928 0.39664 0.93213 0.0
C3337 C 0.02277 0.38915 0.92147 0.0
H3338 H 0.06729 0.41136 0.9289 0.0
H3339 H 0.90426 0.34865 0.82285 0.0
H3340 H 0.86914 0.80532 0.07794 0.0
H3341 H 0.86262 0.77143 0.08899 0.0
H3342 H 0.89567 0.78104 0.14682 0.0
H3343 H 0.90173 0.81542 0.13627 0.0
H3344 H 0.89997 0.74147 0.1151 0.0
H3345 H 0.8566 0.78511 0.15868 0.0
H3346 H 0.83105 0.81084 0.16181 0.0
H3347 H 0.79224 0.77696 0.12193 0.0
H3348 H 0.81775 0.75121 0.1182 0.0
H3349 H 0.88332 0.66873 0.19076 0.0
H3350 H 0.8895 0.6979 0.16902 0.0
H3351 H 0.8299 0.69482 0.14455 0.0
H3352 H 0.8234 0.66632 0.16772 0.0
H3353 H 0.83644 0.72971 0.15233 0.0
H3354 H 0.87376 0.68401 0.11266 0.0
H3355 H 0.89758 0.65808 0.10275 0.0
H3356 H 0.94514 0.69301 0.12766 0.0
H3357 H 0.92165 0.71911 0.13784 0.0
C3358 C 0.8754 0.80016 0.09283 0.0
C3359 C 0.88596 0.813 0.10632 0.0
C3360 C 0.87154 0.78084 0.09911 0.0
C3361 C 0.87853 0.77399 0.11872 0.0
C3362 C 0.89012 0.78629 0.13164 0.0
C3363 C 0.8936 0.80581 0.12561 0.0
C3364 C 0.87291 0.75429 0.12626 0.0
C3365 C 0.88621 0.73875 0.12346 0.0
C3366 C 0.85439 0.75078 0.1358 0.0
C3367 C 0.83923 0.76643 0.13783 0.0
C3368 C 0.84276 0.78331 0.15028 0.0
C3369 C 0.82825 0.79786 0.15224 0.0
C3370 C 0.81007 0.79559 0.14199 0.0
C3371 C 0.80635 0.77874 0.12979 0.0
C3372 C 0.82084 0.76418 0.12773 0.0
C3373 C 0.87156 0.67448 0.18082 0.0
C3374 C 0.85285 0.66574 0.18101 0.0
C3375 C 0.87517 0.69088 0.16809 0.0
C3376 C 0.86033 0.69835 0.15467 0.0
C3377 C 0.8416 0.68934 0.15471 0.0
C3378 C 0.83783 0.6732 0.16797 0.0
C3379 C 0.86398 0.71659 0.14226 0.0
C3380 C 0.8502 0.732 0.14384 0.0
C3381 C 0.88184 0.71976 0.13095 0.0
C3382 C 0.89589 0.70354 0.12605 0.0
C3383 C 0.88926 0.68608 0.11625 0.0
C3384 C 0.90273 0.67138 0.1105 0.0
C3385 C 0.92286 0.67396 0.11448 0.0
C3386 C 0.92955 0.69109 0.12449 0.0
C3387 C 0.91618 0.70586 0.13021 0.0
H3388 H 0.93331 0.66275 0.10971 0.0
H3389 H 0.79884 0.80684 0.14357 0.0
H3390 H 0.58051 0.63192 0.43057 0.0
H3391 H 0.55183 0.63814 0.4081 0.0
H3392 H 0.53657 0.5764 0.41076 0.0
H3393 H 0.56586 0.57006 0.43309 0.0
H3394 H 0.53412 0.59491 0.36847 0.0
H3395 H 0.51188 0.6045 0.44079 0.0
H3396 H 0.51456 0.61827 0.47707 0.0
H3397 H 0.51171 0.67699 0.45163 0.0
H3398 H 0.5093 0.66355 0.41514 0.0
H3399 H 0.43376 0.59832 0.34055 0.0
H3400 H 0.46635 0.59381 0.35591 0.0
H3401 H 0.47401 0.65694 0.35924 0.0
H3402 H 0.44092 0.66151 0.34389 0.0
H3403 H 0.48193 0.63914 0.39674 0.0
H3404 H 0.50132 0.63003 0.32467 0.0
H3405 H 0.49999 0.61688 0.28805 0.0
H3406 H 0.50913 0.55823 0.31188 0.0
H3407 H 0.51022 0.57098 0.3487 0.0
C3408 C 0.57126 0.61964 0.42603 0.0
C3409 C 0.57547 0.60052 0.43321 0.0
C3410 C 0.55482 0.62321 0.41337 0.0
C3411 C 0.54218 0.60772 0.40779 0.0
C3412 C 0.54629 0.5885 0.41488 0.0
C3413 C 0.56281 0.58493 0.42774 0.0
C3414 C 0.52424 0.61201 0.39533 0.0
C3415 C 0.52252 0.60433 0.37467 0.0
C3416 C 0.50961 0.62491 0.40328 0.0
C3417 C 0.51057 0.63302 0.42523 0.0
C3418 C 0.51194 0.62035 0.44292 0.0
C3419 C 0.5134 0.62809 0.46352 0.0
C3420 C 0.51335 0.64849 0.46665 0.0
C3421 C 0.51176 0.66119 0.44918 0.0
C3422 C 0.51032 0.65352 0.42854 0.0
C3423 C 0.4424 0.6113 0.34438 0.0
C3424 C 0.43478 0.63035 0.34115 0.0
C3425 C 0.46113 0.60867 0.35296 0.0
C3426 C 0.47268 0.62502 0.35848 0.0
C3427 C 0.46533 0.64412 0.35491 0.0
C3428 C 0.44653 0.64675 0.34613 0.0
C3429 C 0.49155 0.62189 0.3698 0.0
C3430 C 0.49351 0.6298 0.39035 0.0
C3431 C 0.5064 0.60925 0.36165 0.0
C3432 C 0.50568 0.60147 0.33951 0.0
C3433 C 0.50286 0.6143 0.32214 0.0
C3434 C 0.50219 0.60692 0.30133 0.0
C3435 C 0.50443 0.58673 0.29764 0.0
C3436 C 0.50738 0.57387 0.31476 0.0
C3437 C 0.50805 0.58118 0.33561 0.0
H3438 H 0.50391 0.58104 0.28152 0.0
H3439 H 0.5145 0.65446 0.48261 0.0
H3440 H 0.37806 0.17383 0.13427 0.0
H3441 H 0.37168 0.2077 0.14535 0.0
H3442 H 0.37744 0.22735 0.08024 0.0
H3443 H 0.38369 0.19332 0.06886 0.0
H3444 H 0.39612 0.25213 0.11109 0.0
H3445 H 0.33364 0.2231 0.09685 0.0
H3446 H 0.30735 0.198 0.09831 0.0
H3447 H 0.30322 0.20522 0.16619 0.0
H3448 H 0.32974 0.23012 0.16521 0.0
H3449 H 0.36084 0.34441 0.15113 0.0
H3450 H 0.36457 0.31544 0.1282 0.0
H3451 H 0.34915 0.27782 0.18125 0.0
H3452 H 0.34428 0.3068 0.20373 0.0
H3453 H 0.33252 0.26454 0.1479 0.0
H3454 H 0.39997 0.28885 0.16206 0.0
H3455 H 0.42715 0.31307 0.16 0.0
H3456 H 0.42165 0.31473 0.09181 0.0
H3457 H 0.39441 0.29063 0.09348 0.0
C3458 C 0.3783 0.18535 0.12231 0.0
C3459 C 0.3812 0.18089 0.10066 0.0
C3460 C 0.37451 0.20466 0.12866 0.0
C3461 C 0.37372 0.21985 0.11351 0.0
C3462 C 0.37782 0.21572 0.09208 0.0
C3463 C 0.38142 0.19632 0.08565 0.0
C3464 C 0.36809 0.23989 0.12029 0.0
C3465 C 0.3821 0.25502 0.11885 0.0
C3466 C 0.34974 0.24351 0.13027 0.0
C3467 C 0.33384 0.22839 0.13096 0.0
C3468 C 0.32728 0.2192 0.11212 0.0
C3469 C 0.3123 0.20503 0.11286 0.0
C3470 C 0.30365 0.19999 0.13233 0.0
C3471 C 0.30995 0.20913 0.15111 0.0
C3472 C 0.32495 0.22328 0.15047 0.0
C3473 C 0.35815 0.32991 0.15777 0.0
C3474 C 0.35238 0.32772 0.17916 0.0
C3475 C 0.3604 0.31339 0.14472 0.0
C3476 C 0.35756 0.2944 0.15309 0.0
C3477 C 0.35143 0.29231 0.1744 0.0
C3478 C 0.34866 0.30884 0.18726 0.0
C3479 C 0.36109 0.27651 0.14005 0.0
C3480 C 0.3465 0.2618 0.14001 0.0
C3481 C 0.37894 0.27329 0.12875 0.0
C3482 C 0.39505 0.28808 0.12791 0.0
C3483 C 0.40448 0.2945 0.14665 0.0
C3484 C 0.41993 0.30817 0.14555 0.0
C3485 C 0.42614 0.31541 0.12579 0.0
C3486 C 0.41686 0.30909 0.1071 0.0
C3487 C 0.40143 0.29542 0.10811 0.0
H3488 H 0.4382 0.32584 0.12492 0.0
H3489 H 0.29204 0.18903 0.13287 0.0
H3490 H 0.55538 0.62206 0.81932 0.0
H3491 H 0.52125 0.61749 0.83088 0.0
H3492 H 0.53689 0.63739 0.89402 0.0
H3493 H 0.57108 0.64178 0.88274 0.0
H3494 H 0.51917 0.59998 0.89264 0.0
H3495 H 0.50902 0.6656 0.85974 0.0
H3496 H 0.50973 0.68758 0.82839 0.0
H3497 H 0.47068 0.64848 0.79484 0.0
H3498 H 0.46992 0.62617 0.82591 0.0
H3499 H 0.43671 0.60996 0.95479 0.0
H3500 H 0.46639 0.61594 0.93367 0.0
H3501 H 0.4331 0.60664 0.87572 0.0
H3502 H 0.40298 0.60238 0.89701 0.0
H3503 H 0.45815 0.6336 0.8683 0.0
H3504 H 0.4638 0.57002 0.89715 0.0
H3505 H 0.46159 0.54442 0.92496 0.0
H3506 H 0.508 0.57269 0.96021 0.0
H3507 H 0.51029 0.59866 0.93278 0.0
C3508 C 0.55148 0.62589 0.83555 0.0
C3509 C 0.56597 0.63206 0.85023 0.0
C3510 C 0.53197 0.62326 0.8421 0.0
C3511 C 0.52667 0.62698 0.86331 0.0
C3512 C 0.54081 0.63432 0.8776 0.0
C3513 C 0.56031 0.6369 0.87111 0.0
C3514 C 0.50692 0.6217 0.87134 0.0
C3515 C 0.50582 0.60744 0.88749 0.0
C3516 C 0.48943 0.63039 0.86345 0.0
C3517 C 0.48954 0.64415 0.84508 0.0
C3518 C 0.50066 0.66166 0.84565 0.0
C3519 C 0.50106 0.67417 0.82793 0.0
C3520 C 0.49029 0.66941 0.80962 0.0
C3521 C 0.47902 0.65216 0.80902 0.0
C3522 C 0.47858 0.63959 0.82669 0.0
C3523 C 0.43586 0.60914 0.93756 0.0
C3524 C 0.41791 0.60532 0.92738 0.0
C3525 C 0.45274 0.6125 0.92549 0.0
C3526 C 0.45211 0.61106 0.90311 0.0
C3527 C 0.43398 0.60763 0.89293 0.0
C3528 C 0.41689 0.60503 0.90504 0.0
C3529 C 0.47058 0.61281 0.89066 0.0
C3530 C 0.47142 0.62602 0.87342 0.0
C3531 C 0.48778 0.60246 0.89684 0.0
C3532 C 0.48719 0.58634 0.91291 0.0
C3533 C 0.47355 0.57079 0.91083 0.0
C3534 C 0.47225 0.55623 0.92655 0.0
C3535 C 0.48464 0.55694 0.94434 0.0
C3536 C 0.49843 0.57215 0.9464 0.0
C3537 C 0.49977 0.58678 0.93074 0.0
H3538 H 0.48356 0.5457 0.95654 0.0
H3539 H 0.49066 0.6791 0.79591 0.0
H3540 H 0.1266 0.80886 0.57725 0.0
H3541 H 0.1338 0.77545 0.58856 0.0
H3542 H 0.09229 0.78143 0.64044 0.0
H3543 H 0.08619 0.81575 0.63001 0.0
H3544 H 0.12398 0.76793 0.65526 0.0
H3545 H 0.08603 0.74994 0.59258 0.0
H3546 H 0.07761 0.7508 0.5543 0.0
H3547 H 0.13541 0.72936 0.53852 0.0
H3548 H 0.14425 0.72859 0.57668 0.0
H3549 H 0.1123 0.66378 0.6746 0.0
H3550 H 0.10634 0.69363 0.65374 0.0
H3551 H 0.169 0.70434 0.65044 0.0
H3552 H 0.17508 0.67458 0.67191 0.0
H3553 H 0.12884 0.70826 0.60969 0.0
H3554 H 0.16796 0.73479 0.67242 0.0
H3555 H 0.1755 0.73245 0.71086 0.0
H3556 H 0.11373 0.73674 0.72555 0.0
H3557 H 0.10587 0.73868 0.68711 0.0
C3558 C 0.11859 0.80292 0.59076 0.0
C3559 C 0.10574 0.81484 0.60275 0.0
C3560 C 0.12268 0.7837 0.59716 0.0
C3561 C 0.11341 0.77572 0.6152 0.0
C3562 C 0.09967 0.78728 0.62648 0.0
C3563 C 0.09607 0.8068 0.62048 0.0
C3564 C 0.11955 0.75618 0.62355 0.0
C3565 C 0.12485 0.75495 0.64517 0.0
C3566 C 0.12132 0.73921 0.61041 0.0
C3567 C 0.11583 0.73933 0.58749 0.0
C3568 C 0.09697 0.74549 0.58094 0.0
C3569 C 0.09212 0.74595 0.55927 0.0
C3570 C 0.10598 0.74017 0.54399 0.0
C3571 C 0.12469 0.73384 0.55037 0.0
C3572 C 0.12961 0.73335 0.57201 0.0
C3573 C 0.12481 0.67233 0.66915 0.0
C3574 C 0.14412 0.66703 0.6749 0.0
C3575 C 0.12139 0.6893 0.65722 0.0
C3576 C 0.13724 0.70107 0.65067 0.0
C3577 C 0.15663 0.69539 0.65553 0.0
C3578 C 0.16005 0.67855 0.66785 0.0
C3579 C 0.13308 0.72039 0.64105 0.0
C3580 C 0.12806 0.72148 0.61942 0.0
C3581 C 0.13163 0.7373 0.65399 0.0
C3582 C 0.13634 0.73664 0.677 0.0
C3583 C 0.15601 0.73508 0.68387 0.0
C3584 C 0.16033 0.73383 0.70563 0.0
C3585 C 0.1451 0.73438 0.72064 0.0
C3586 C 0.12551 0.73625 0.71391 0.0
C3587 C 0.12112 0.7374 0.69215 0.0
H3588 H 0.14846 0.73342 0.73748 0.0
H3589 H 0.10221 0.74058 0.52722 0.0
H3590 H 0.94096 0.36219 0.31813 0.0
H3591 H 0.97487 0.36834 0.32999 0.0
H3592 H 0.95546 0.36749 0.39548 0.0
H3593 H 0.92166 0.36126 0.3839 0.0
H3594 H 0.97726 0.40241 0.38193 0.0
H3595 H 0.97992 0.32977 0.37712 0.0
H3596 H 0.97669 0.29922 0.35602 0.0
H3597 H 0.02108 0.31987 0.31254 0.0
H3598 H 0.02435 0.35068 0.33324 0.0
H3599 H 0.05495 0.39989 0.45318 0.0
H3600 H 0.02554 0.394 0.43159 0.0
H3601 H 0.0622 0.38116 0.37696 0.0
H3602 H 0.09168 0.38598 0.39895 0.0
H3603 H 0.034 0.35637 0.37726 0.0
H3604 H 0.03623 0.42542 0.38142 0.0
H3605 H 0.04039 0.458 0.39827 0.0
H3606 H 0.9885 0.44823 0.43611 0.0
H3607 H 0.98419 0.41544 0.41975 0.0
C3608 C 0.94399 0.36293 0.33507 0.0
C3609 C 0.92864 0.36136 0.3501 0.0
C3610 C 0.96332 0.36651 0.34178 0.0
C3611 C 0.96748 0.36857 0.36355 0.0
C3612 C 0.95239 0.3661 0.37858 0.0
C3613 C 0.93314 0.36237 0.37194 0.0
C3614 C 0.98736 0.37409 0.37092 0.0
C3615 C 0.98969 0.39236 0.38107 0.0
C3616 C 0.00373 0.36142 0.36851 0.0
C3617 C 0.00227 0.34257 0.35663 0.0
C3618 C 0.98893 0.32782 0.36302 0.0
C3619 C 0.98709 0.31046 0.35113 0.0
C3620 C -0.00136 0.30762 0.33293 0.0
C3621 C 0.01213 0.32209 0.32664 0.0
C3622 C 0.014 0.33949 0.33845 0.0
C3623 C 0.05667 0.39598 0.43652 0.0
C3624 C 0.07545 0.3935 0.42762 0.0
C3625 C 0.0399 0.39268 0.42416 0.0
C3626 C 0.04165 0.38756 0.4025 0.0
C3627 C 0.06048 0.38516 0.39359 0.0
C3628 C 0.07726 0.38799 0.40611 0.0
C3629 C 0.0237 0.38433 0.38948 0.0
C3630 C 0.02174 0.36663 0.37798 0.0
C3631 C 0.00782 0.39789 0.38994 0.0
C3632 C 0.00994 0.41789 0.3994 0.0
C3633 C 0.02573 0.43018 0.39338 0.0
C3634 C 0.02813 0.44869 0.40286 0.0
C3635 C 0.01473 0.45517 0.41827 0.0
C3636 C -0.00114 0.44319 0.42416 0.0
C3637 C 0.99641 0.42465 0.41475 0.0
H3638 H 0.01664 0.46949 0.42563 0.0
H3639 H 0.99716 0.2942 0.32371 0.0
H3640 H 0.36152 0.82103 0.36629 0.0
H3641 H 0.35654 0.78647 0.35713 0.0
H3642 H 0.38679 0.76878 0.41455 0.0
H3643 H 0.39141 0.80362 0.42426 0.0
H3644 H 0.39906 0.75 0.37456 0.0
H3645 H 0.34234 0.76098 0.41656 0.0
H3646 H 0.31267 0.77799 0.42989 0.0
H3647 H 0.28512 0.77187 0.36858 0.0
H3648 H 0.31477 0.75517 0.35471 0.0
H3649 H 0.37127 0.65198 0.3437 0.0
H3650 H 0.37536 0.68117 0.3661 0.0
H3651 H 0.34334 0.71595 0.32007 0.0
H3652 H 0.33946 0.68687 0.29729 0.0
H3653 H 0.33195 0.72266 0.36292 0.0
H3654 H 0.39089 0.71847 0.31973 0.0
H3655 H 0.42176 0.70469 0.30524 0.0
H3656 H 0.44531 0.69949 0.36857 0.0
H3657 H 0.41441 0.71298 0.38348 0.0
C3658 C 0.3673 0.80984 0.37692 0.0
C3659 C 0.37689 0.81499 0.39598 0.0
C3660 C 0.36422 0.79012 0.37178 0.0
C3661 C 0.37096 0.77521 0.3854 0.0
C3662 C 0.38125 0.78019 0.40405 0.0
C3663 C 0.38397 0.80001 0.40947 0.0
C3664 C 0.36794 0.75448 0.37922 0.0
C3665 C 0.38444 0.7437 0.37258 0.0
C3666 C 0.34878 0.74663 0.37637 0.0
C3667 C 0.33093 0.75695 0.38452 0.0
C3668 C 0.33007 0.76346 0.40581 0.0
C3669 C 0.31322 0.77301 0.4135 0.0
C3670 C 0.29705 0.77605 0.40008 0.0
C3671 C 0.29768 0.76952 0.37895 0.0
C3672 C 0.31451 0.76 0.37118 0.0
C3673 C 0.3651 0.66584 0.3383 0.0
C3674 C 0.35523 0.6672 0.31859 0.0
C3675 C 0.36743 0.68246 0.35116 0.0
C3676 C 0.35976 0.70065 0.34463 0.0
C3677 C 0.34934 0.70196 0.32533 0.0
C3678 C 0.34719 0.68538 0.31232 0.0
C3679 C 0.36306 0.71854 0.35755 0.0
C3680 C 0.34659 0.72871 0.36545 0.0
C3681 C 0.38225 0.72589 0.36153 0.0
C3682 C 0.40023 0.71646 0.35273 0.0
C3683 C 0.4025 0.71406 0.33059 0.0
C3684 C 0.42005 0.70643 0.32229 0.0
C3685 C 0.43551 0.70132 0.33596 0.0
C3686 C 0.43334 0.70354 0.358 0.0
C3687 C 0.4158 0.71113 0.36638 0.0
H3688 H 0.44916 0.69559 0.32948 0.0
H3689 H 0.28401 0.78343 0.40606 0.0
H3690 H 0.05824 0.58766 0.04142 0.0
H3691 H 0.02801 0.59293 0.06199 0.0
H3692 H 0.06162 0.62155 0.1116 0.0
H3693 H 0.09192 0.61599 0.09138 0.0
H3694 H 0.03079 0.59824 0.12754 0.0
H3695 H 0.04093 0.65003 0.07698 0.0
H3696 H 0.0483 0.66389 0.04151 0.0
H3697 H 0.99665 0.63587 0.01579 0.0
H3698 H 0.98913 0.62161 0.05106 0.0
H3699 H 0.94018 0.64114 0.16718 0.0
H3700 H 0.97447 0.63783 0.15503 0.0
H3701 H 0.9539 0.61179 0.09625 0.0
H3702 H 0.91991 0.61556 0.10792 0.0
H3703 H 0.98114 0.63826 0.08866 0.0
H3704 H 0.97264 0.5845 0.14 0.0
H3705 H 0.96679 0.57018 0.17562 0.0
H3706 H 0.01607 0.60258 0.20071 0.0
H3707 H 0.02206 0.61728 0.16531 0.0
C3708 C 0.05921 0.5948 0.05684 0.0
C3709 C 0.07732 0.60184 0.06458 0.0
C3710 C 0.04198 0.5978 0.06856 0.0
C3711 C 0.04264 0.60794 0.08809 0.0
C3712 C 0.06085 0.6138 0.09651 0.0
C3713 C 0.07808 0.61079 0.08482 0.0
C3714 C 0.02414 0.61398 0.0986 0.0
C3715 C 0.01996 0.60718 0.11922 0.0
C3716 C 0.01025 0.62583 0.08776 0.0
C3717 C 0.01454 0.63465 0.06662 0.0
C3718 C 0.03121 0.64674 0.06373 0.0
C3719 C 0.03541 0.65467 0.04366 0.0
C3720 C 0.02297 0.65074 0.0264 0.0
C3721 C 0.00627 0.6389 0.02918 0.0
C3722 C 0.00202 0.63091 0.0492 0.0
C3723 C 0.94306 0.63493 0.15157 0.0
C3724 C 0.92742 0.62871 0.13842 0.0
C3725 C 0.9626 0.63289 0.14476 0.0
C3726 C 0.96671 0.62433 0.12487 0.0
C3727 C 0.95105 0.61846 0.11165 0.0
C3728 C 0.93162 0.6207 0.1183 0.0
C3729 C 0.98716 0.62163 0.11723 0.0
C3730 C 0.99191 0.62939 0.09715 0.0
C3731 C 0.00153 0.61077 0.12871 0.0
C3732 C -0.00239 0.60221 0.15007 0.0
C3733 C 0.98208 0.58875 0.15317 0.0
C3734 C 0.97878 0.58052 0.17331 0.0
C3735 C 0.991 0.58553 0.19043 0.0
C3736 C 0.00658 0.59875 0.18745 0.0
C3737 C 0.00993 0.60704 0.16736 0.0
H3738 H 0.98845 0.57911 0.206 0.0
H3739 H 0.02625 0.65688 0.01087 0.0
H3740 H 0.13243 0.33976 0.84767 0.0
H3741 H 0.12562 0.30943 0.86776 0.0
H3742 H 0.13727 0.27493 0.81137 0.0
H3743 H 0.14427 0.30513 0.79129 0.0
H3744 H 0.09968 0.26705 0.83401 0.0
H3745 H 0.1706 0.27421 0.84591 0.0
H3746 H 0.19964 0.29317 0.85788 0.0
H3747 H 0.17494 0.29764 0.92075 0.0
H3748 H 0.14561 0.27889 0.90906 0.0
H3749 H 0.11682 0.16853 0.85735 0.0
H3750 H 0.12104 0.20295 0.84722 0.0
H3751 H 0.10795 0.22117 0.91155 0.0
H3752 H 0.10319 0.18653 0.92185 0.0
H3753 H 0.14301 0.2402 0.89092 0.0
H3754 H 0.07388 0.23166 0.8816 0.0
H3755 H 0.044 0.21335 0.87099 0.0
H3756 H 0.06366 0.21291 0.8059 0.0
H3757 H 0.09371 0.23122 0.81615 0.0
C3758 C 0.13356 0.32567 0.83962 0.0
C3759 C 0.1387 0.32474 0.81792 0.0
C3760 C 0.12974 0.30842 0.8511 0.0
C3761 C 0.13086 0.29003 0.84096 0.0
C3762 C 0.13626 0.28905 0.81939 0.0
C3763 C 0.14036 0.30626 0.808 0.0
C3764 C 0.12602 0.27171 0.8526 0.0
C3765 C 0.10917 0.26116 0.84642 0.0
C3766 C 0.13799 0.26452 0.86937 0.0
C3767 C 0.15584 0.27531 0.87656 0.0
C3768 C 0.17131 0.27933 0.86226 0.0
C3769 C 0.18783 0.29002 0.86899 0.0
C3770 C 0.18911 0.29665 0.89005 0.0
C3771 C 0.17391 0.29251 0.90444 0.0
C3772 C 0.15735 0.28183 0.89777 0.0
C3773 C 0.11448 0.17981 0.86932 0.0
C3774 C 0.10925 0.17479 0.8903 0.0
C3775 C 0.1171 0.19947 0.86354 0.0
C3776 C 0.1148 0.21454 0.87866 0.0
C3777 C 0.10983 0.20969 0.89971 0.0
C3778 C 0.10696 0.18994 0.90548 0.0
C3779 C 0.11701 0.23529 0.87181 0.0
C3780 C 0.13332 0.24631 0.87884 0.0
C3781 C 0.10435 0.24319 0.85609 0.0
C3782 C 0.08605 0.23276 0.84964 0.0
C3783 C 0.07182 0.22766 0.86501 0.0
C3784 C 0.05483 0.21734 0.85906 0.0
C3785 C 0.05193 0.21197 0.83778 0.0
C3786 C 0.06593 0.21709 0.82238 0.0
C3787 C 0.0829 0.22753 0.82823 0.0
H3788 H 0.03885 0.20382 0.83323 0.0
H3789 H 0.20189 0.30495 0.89522 0.0
H3790 H 0.57256 0.37404 0.60962 0.0
H3791 H 0.5377 0.37697 0.60067 0.0
H3792 H 0.52198 0.36557 0.66617 0.0
H3793 H 0.55703 0.36262 0.67538 0.0
H3794 H 0.49792 0.34577 0.63834 0.0
H3795 H 0.51705 0.41161 0.64971 0.0
H3796 H 0.53392 0.44383 0.64835 0.0
H3797 H 0.52613 0.44586 0.58044 0.0
H3798 H 0.50942 0.41357 0.58132 0.0
H3799 H 0.4009 0.38162 0.59944 0.0
H3800 H 0.43011 0.37434 0.62133 0.0
H3801 H 0.46697 0.3799 0.56555 0.0
H3802 H 0.43808 0.38736 0.54383 0.0
H3803 H 0.47649 0.40517 0.59854 0.0
H3804 H 0.45791 0.3354 0.58989 0.0
H3805 H 0.43743 0.30576 0.59562 0.0
H3806 H 0.44127 0.3139 0.66338 0.0
H3807 H 0.46152 0.34375 0.65808 0.0
C3808 C 0.56174 0.37194 0.62213 0.0
C3809 C 0.56758 0.36819 0.64323 0.0
C3810 C 0.54181 0.3738 0.61702 0.0
C3811 C 0.52732 0.3719 0.63286 0.0
C3812 C 0.53298 0.36727 0.65378 0.0
C3813 C 0.55299 0.36553 0.65896 0.0
C3814 C 0.50632 0.37462 0.62713 0.0
C3815 C 0.49308 0.35888 0.62992 0.0
C3816 C 0.49994 0.39187 0.61655 0.0
C3817 C 0.51203 0.41011 0.61559 0.0
C3818 C 0.51927 0.41873 0.63444 0.0
C3819 C 0.52869 0.43707 0.63376 0.0
C3820 C 0.53094 0.44691 0.61435 0.0
C3821 C 0.52426 0.43824 0.59548 0.0
C3822 C 0.51483 0.41993 0.59606 0.0
C3823 C 0.41524 0.38092 0.59187 0.0
C3824 C 0.41734 0.38524 0.57003 0.0
C3825 C 0.43184 0.37667 0.60434 0.0
C3826 C 0.45064 0.37656 0.59501 0.0
C3827 C 0.45255 0.37995 0.57302 0.0
C3828 C 0.43608 0.38435 0.56066 0.0
C3829 C 0.46873 0.37573 0.6081 0.0
C3830 C 0.4813 0.39209 0.60706 0.0
C3831 C 0.47419 0.35924 0.62059 0.0
C3832 C 0.46109 0.34194 0.62357 0.0
C3833 C 0.45414 0.33106 0.606 0.0
C3834 C 0.44267 0.31416 0.60918 0.0
C3835 C 0.43816 0.30792 0.62984 0.0
C3836 C 0.44484 0.31872 0.64738 0.0
C3837 C 0.4563 0.33563 0.6443 0.0
H3838 H 0.42955 0.29469 0.63228 0.0
H3839 H 0.53772 0.46133 0.61393 0.0
H3840 H 0.1141 0.08033 0.24906 0.0
H3841 H 0.11059 0.04544 0.2395 0.0
H3842 H 0.14869 0.02946 0.29202 0.0
H3843 H 0.15321 0.06429 0.30058 0.0
H3844 H 0.1565 0.00736 0.26047 0.0
H3845 H 0.09603 0.0275 0.29433 0.0
H3846 H 0.06654 0.04833 0.29919 0.0
H3847 H 0.04599 0.03236 0.23674 0.0
H3848 H 0.07548 0.01164 0.23138 0.0
H3849 H 0.13216 0.90673 0.25232 0.0
H3850 H 0.13025 0.9391 0.26993 0.0
H3851 H 0.10412 0.96375 0.21309 0.0
H3852 H 0.10679 0.93191 0.19539 0.0
H3853 H 0.08906 0.97997 0.25137 0.0
H3854 H 0.15135 0.96458 0.21606 0.0
H3855 H 0.18105 0.9443 0.2101 0.0
H3856 H 0.19788 0.95188 0.27562 0.0
H3857 H 0.16802 0.97189 0.28206 0.0
C3858 C 0.12204 0.06928 0.25814 0.0
C3859 C 0.13401 0.07474 0.27536 0.0
C3860 C 0.11983 0.04943 0.25292 0.0
C3861 C 0.12892 0.03485 0.26547 0.0
C3862 C 0.14149 0.04046 0.28219 0.0
C3863 C 0.14416 0.0603 0.28699 0.0
C3864 C 0.12531 0.01374 0.26131 0.0
C3865 C 0.14172 0.00134 0.25896 0.0
C3866 C 0.10601 0.00593 0.25904 0.0
C3867 C 0.08804 0.01809 0.26242 0.0
C3868 C 0.08526 0.02848 0.2816 0.0
C3869 C 0.06854 0.04028 0.28444 0.0
C3870 C 0.05441 0.04169 0.26828 0.0
C3871 C 0.05694 0.03125 0.24925 0.0
C3872 C 0.07364 0.01946 0.24632 0.0
C3873 C 0.12621 0.91916 0.2437 0.0
C3874 C 0.12054 0.91722 0.22234 0.0
C3875 C 0.1247 0.93743 0.25382 0.0
C3876 C 0.1173 0.95374 0.24259 0.0
C3877 C 0.10985 0.95129 0.22195 0.0
C3878 C 0.11152 0.93314 0.21184 0.0
C3879 C 0.12022 0.97386 0.25065 0.0
C3880 C 0.10374 0.98604 0.25352 0.0
C3881 C 0.13942 0.98153 0.25347 0.0
C3882 C 0.15737 0.96954 0.2496 0.0
C3883 C 0.1613 0.96177 0.22924 0.0
C3884 C 0.17817 0.95035 0.22577 0.0
C3885 C 0.19135 0.94681 0.24247 0.0
C3886 C 0.18765 0.95464 0.2627 0.0
C3887 C 0.17075 0.966 0.26628 0.0
H3888 H 0.20442 0.938 0.23975 0.0
H3889 H 0.04149 0.05085 0.2705 0.0
H3890 H 0.17751 0.8439 0.5514 0.0
H3891 H 0.2109 0.83995 0.53776 0.0
H3892 H 0.19869 0.88209 0.48794 0.0
H3893 H 0.16499 0.88589 0.50154 0.0
H3894 H 0.22514 0.85213 0.47541 0.0
H3895 H 0.21563 0.89962 0.53048 0.0
H3896 H 0.20456 0.91262 0.56516 0.0
H3897 H 0.24194 0.87127 0.59765 0.0
H3898 H 0.25293 0.85769 0.56307 0.0
H3899 H 0.31675 0.90384 0.46637 0.0
H3900 H 0.28282 0.89799 0.47806 0.0
H3901 H 0.30072 0.8435 0.50776 0.0
H3902 H 0.33472 0.84889 0.49539 0.0
H3903 H 0.27206 0.87662 0.5303 0.0
H3904 H 0.28356 0.83222 0.47025 0.0
H3905 H 0.29443 0.82445 0.43369 0.0
H3906 H 0.25262 0.8659 0.40848 0.0
H3907 H 0.24191 0.87437 0.44495 0.0
C3908 C 0.18171 0.85201 0.53723 0.0
C3909 C 0.16893 0.86589 0.52788 0.0
C3910 C 0.20079 0.84966 0.52945 0.0
C3911 C 0.20727 0.86107 0.51221 0.0
C3912 C 0.19393 0.87333 0.50144 0.0
C3913 C 0.17485 0.87576 0.50934 0.0
C3914 C 0.22849 0.86256 0.50765 0.0
C3915 C 0.23545 0.85742 0.48737 0.0
C3916 C 0.24176 0.86966 0.52333 0.0
C3917 C 0.23489 0.87744 0.54419 0.0
C3918 C 0.22128 0.89309 0.54501 0.0
C3919 C 0.21506 0.90061 0.56464 0.0
C3920 C 0.22254 0.89277 0.58359 0.0
C3921 C 0.23616 0.87731 0.58294 0.0
C3922 C 0.24237 0.86968 0.56333 0.0
C3923 C 0.31358 0.8909 0.47591 0.0
C3924 C 0.32822 0.87676 0.48006 0.0
C3925 C 0.29421 0.88748 0.48231 0.0
C3926 C 0.28944 0.87016 0.49328 0.0
C3927 C 0.30429 0.85682 0.49902 0.0
C3928 C 0.3236 0.85998 0.49216 0.0
C3929 C 0.26876 0.86588 0.49822 0.0
C3930 C 0.26185 0.8708 0.51853 0.0
C3931 C 0.25553 0.85911 0.48236 0.0
C3932 C 0.26217 0.85419 0.46041 0.0
C3933 C 0.27694 0.83996 0.45696 0.0
C3934 C 0.28302 0.83537 0.43623 0.0
C3935 C 0.27428 0.84474 0.41878 0.0
C3936 C 0.25942 0.85869 0.42202 0.0
C3937 C 0.25337 0.86342 0.44272 0.0
H3938 H 0.279 0.84117 0.40275 0.0
H3939 H 0.21785 0.89876 0.59876 0.0
H3940 H 0.36181 0.91347 0.74812 0.0
H3941 H 0.36344 0.94769 0.73549 0.0
H3942 H 0.39573 0.96398 0.79217 0.0
H3943 H 0.39398 0.93004 0.80482 0.0
H3944 H 0.36028 0.98458 0.78614 0.0
H3945 H 0.41896 0.96783 0.7476 0.0
H3946 H 0.4396 0.94833 0.72303 0.0
H3947 H 0.39968 0.96086 0.67161 0.0
H3948 H 0.37867 0.98029 0.69592 0.0
H3949 H 0.38706 0.08352 0.74615 0.0
H3950 H 0.38917 0.04981 0.76041 0.0
H3951 H 0.34046 0.03223 0.72037 0.0
H3952 H 0.33783 0.06599 0.70669 0.0
H3953 H 0.38561 0.01299 0.71855 0.0
H3954 H 0.32419 0.02338 0.75799 0.0
H3955 H 0.30236 0.04207 0.7821 0.0
H3956 H 0.34708 0.04126 0.83064 0.0
H3957 H 0.36916 0.02243 0.80672 0.0
C3958 C 0.36936 0.92438 0.75766 0.0
C3959 C 0.37734 0.91933 0.77751 0.0
C3960 C 0.37053 0.94377 0.75039 0.0
C3961 C 0.37962 0.95822 0.76305 0.0
C3962 C 0.38867 0.95294 0.78227 0.0
C3963 C 0.38768 0.93356 0.7894 0.0
C3964 C 0.37735 0.97914 0.75766 0.0
C3965 C 0.3661 0.99087 0.77152 0.0
C3966 C 0.38454 0.98705 0.73835 0.0
C3967 C 0.39714 0.97537 0.72365 0.0
C3968 C 0.41448 0.96629 0.7311 0.0
C3969 C 0.42628 0.95529 0.7172 0.0
C3970 C 0.42093 0.95332 0.69579 0.0
C3971 C 0.4038 0.9624 0.6882 0.0
C3972 C 0.39196 0.97344 0.70203 0.0
C3973 C 0.37644 0.07255 0.74102 0.0
C3974 C 0.36222 0.07713 0.72559 0.0
C3975 C 0.37769 0.05343 0.74903 0.0
C3976 C 0.365 0.03878 0.74126 0.0
C3977 C 0.35023 0.04353 0.72653 0.0
C3978 C 0.34868 0.06273 0.7189 0.0
C3979 C 0.36847 0.01817 0.74695 0.0
C3980 C 0.37996 0.0066 0.73319 0.0
C3981 C 0.36138 0.01029 0.76622 0.0
C3982 C 0.34837 0.02175 0.78054 0.0
C3983 C 0.32942 0.02736 0.77373 0.0
C3984 C 0.31699 0.0379 0.78738 0.0
C3985 C 0.32338 0.04296 0.80785 0.0
C3986 C 0.34218 0.03736 0.81476 0.0
C3987 C 0.35463 0.0267 0.8012 0.0
H3988 H 0.31375 0.05117 0.81837 0.0
H3989 H 0.43008 0.94479 0.68506 0.0
H3990 H 0.16173 0.1121 0.00136 0.0
H3991 H 0.1961 0.11262 0.01381 0.0
H3992 H 0.21419 0.13945 0.95459 0.0
H3993 H 0.17996 0.13953 0.94229 0.0
H3994 H 0.23303 0.10062 0.96854 0.0
H3995 H 0.2199 0.16759 0.98934 0.0
H3996 H 0.2009 0.19405 0.00682 0.0
H3997 H 0.20885 0.16586 0.06754 0.0
H3998 H 0.22772 0.13909 0.05035 0.0
H3999 H 0.33446 0.12254 0.99422 0.0
H4000 H 0.3001 0.12407 0.98152 0.0
H4001 H 0.27978 0.10396 0.04304 0.0
H4002 H 0.31405 0.10195 0.05549 0.0
H4003 H 0.26213 0.14007 0.02737 0.0
H4004 H 0.2758 0.07347 0.00699 0.0
H4005 H 0.29391 0.04632 0.98967 0.0
H4006 H 0.28424 0.07286 0.92839 0.0
H4007 H 0.2664 0.10042 0.94539 0.0
C4008 C 0.17302 0.11849 0.99126 0.0
C4009 C 0.16829 0.12577 0.97095 0.0
C4010 C 0.19254 0.11877 0.99833 0.0
C4011 C 0.20747 0.12601 0.98499 0.0
C4012 C 0.20272 0.13386 0.96501 0.0
C4013 C 0.18319 0.13399 0.95812 0.0
C4014 C 0.22822 0.12395 0.99129 0.0
C4015 C 0.23957 0.10942 0.98116 0.0
C4016 C 0.23632 0.13517 0.00808 0.0
C4017 C 0.22503 0.15123 0.01852 0.0
C4018 C 0.21743 0.16693 0.00639 0.0
C4019 C 0.20674 0.18201 0.01625 0.0
C4020 C 0.20362 0.18161 0.03827 0.0
C4021 C 0.21126 0.16614 0.05048 0.0
C4022 C 0.22198 0.15103 0.04069 0.0
C4023 C 0.32259 0.11805 0.00473 0.0
C4024 C 0.32657 0.11191 0.02559 0.0
C4025 C 0.30311 0.11898 0.99758 0.0
C4026 C 0.28758 0.11414 0.01144 0.0
C4027 C 0.29166 0.10771 0.0322 0.0
C4028 C 0.31111 0.10643 0.0392 0.0
C4029 C 0.26701 0.11672 0.00461 0.0
C4030 C 0.25567 0.13132 0.01467 0.0
C4031 C 0.25891 0.10552 0.98777 0.0
C4032 C 0.26996 0.08916 0.9775 0.0
C4033 C 0.27776 0.07368 0.98985 0.0
C4034 C 0.28792 0.05817 0.98009 0.0
C4035 C 0.29022 0.05787 0.95795 0.0
C4036 C 0.28245 0.07312 0.94554 0.0
C4037 C 0.27231 0.08869 0.95523 0.0
H4038 H 0.29796 0.04579 0.9504 0.0
H4039 H 0.19534 0.1933 0.04588 0.0
H4040 H 0.89176 0.07951 0.75998 0.0
H4041 H 0.89455 0.04735 0.74238 0.0
H4042 H 0.83647 0.03173 0.76486 0.0
H4043 H 0.83332 0.06413 0.78185 0.0
H4044 H 0.87701 0.01037 0.78052 0.0
H4045 H 0.83278 0.02577 0.72168 0.0
H4046 H 0.82166 0.04767 0.69266 0.0
H4047 H 0.87849 0.04318 0.66284 0.0
H4048 H 0.88991 0.02104 0.69164 0.0
H4049 H 0.85442 0.91478 0.74079 0.0
H4050 H 0.85639 0.94845 0.75437 0.0
H4051 H 0.90754 0.9591 0.71512 0.0
H4052 H 0.90615 0.92522 0.70214 0.0
H4053 H 0.87335 0.98388 0.70684 0.0
H4054 H 0.91565 0.96389 0.76364 0.0
H4055 H 0.92685 0.9432 0.79361 0.0
H4056 H 0.87425 0.95742 0.82853 0.0
H4057 H 0.86263 0.97807 0.79866 0.0
C4058 C 0.87928 0.06951 0.76028 0.0
C4059 C 0.8624 0.07403 0.77224 0.0
C4060 C 0.88089 0.05124 0.75032 0.0
C4061 C 0.86578 0.03733 0.75264 0.0
C4062 C 0.84819 0.04246 0.76296 0.0
C4063 C 0.84638 0.06092 0.77251 0.0
C4064 C 0.86987 0.01663 0.74772 0.0
C4065 C 0.87601 0.00441 0.76449 0.0
C4066 C 0.86919 0.0094 0.72671 0.0
C4067 C 0.86222 0.02189 0.70886 0.0
C4068 C 0.8429 0.02945 0.70892 0.0
C4069 C 0.83653 0.04183 0.69248 0.0
C4070 C 0.84936 0.04675 0.67588 0.0
C4071 C 0.86855 0.03919 0.67562 0.0
C4072 C 0.87496 0.02667 0.69196 0.0
C4073 C 0.8665 0.92402 0.73574 0.0
C4074 C 0.87985 0.91743 0.72023 0.0
C4075 C 0.8676 0.94325 0.7434 0.0
C4076 C 0.88195 0.95618 0.73543 0.0
C4077 C 0.8963 0.94926 0.72127 0.0
C4078 C 0.89546 0.92988 0.71395 0.0
C4079 C 0.88015 0.97736 0.73977 0.0
C4080 C 0.87452 0.98978 0.72288 0.0
C4081 C 0.88128 0.98478 0.76075 0.0
C4082 C 0.88819 0.9724 0.77881 0.0
C4083 C 0.90639 0.96248 0.77763 0.0
C4084 C 0.91284 0.9508 0.79463 0.0
C4085 C 0.90125 0.94896 0.81295 0.0
C4086 C 0.88321 0.95886 0.81433 0.0
C4087 C 0.8767 0.97059 0.79738 0.0
H4088 H 0.90626 0.93989 0.82608 0.0
H4089 H 0.84446 0.05644 0.66323 0.0
H4090 H 0.66061 0.11715 0.49682 0.0
H4091 H 0.69486 0.11803 0.48372 0.0
H4092 H 0.71617 0.11414 0.54848 0.0
H4093 H 0.68203 0.1127 0.56146 0.0
H4094 H 0.73324 0.14539 0.52182 0.0
H4095 H 0.71965 0.07531 0.52284 0.0
H4096 H 0.70072 0.04533 0.51396 0.0
H4097 H 0.70884 0.0567 0.44719 0.0
H4098 H 0.72761 0.08693 0.45567 0.0
H4099 H 0.8351 0.12233 0.50256 0.0
H4100 H 0.80095 0.12253 0.51614 0.0
H4101 H 0.779 0.11839 0.45162 0.0
H4102 H 0.81286 0.11817 0.43819 0.0
H4103 H 0.76202 0.09144 0.47831 0.0
H4104 H 0.77538 0.16047 0.47566 0.0
H4105 H 0.7934 0.19137 0.48277 0.0
H4106 H 0.78467 0.18362 0.55007 0.0
H4107 H 0.76681 0.15249 0.54338 0.0
C4108 C 0.6727 0.11619 0.50809 0.0
C4109 C 0.66905 0.1146 0.52998 0.0
C4110 C 0.6921 0.11681 0.50069 0.0
C4111 C 0.70784 0.11613 0.51523 0.0
C4112 C 0.70411 0.1147 0.53714 0.0
C4113 C 0.68477 0.1138 0.54448 0.0
C4114 C 0.72829 0.11689 0.50761 0.0
C4115 C 0.73971 0.13353 0.51254 0.0
C4116 C 0.73628 0.10158 0.49505 0.0
C4117 C 0.72489 0.08348 0.4899 0.0
C4118 C 0.71724 0.07153 0.50626 0.0
C4119 C 0.70659 0.05447 0.5013 0.0
C4120 C 0.70361 0.04911 0.48003 0.0
C4121 C 0.7112 0.06086 0.46366 0.0
C4122 C 0.72185 0.07795 0.46853 0.0
C4123 C 0.82288 0.12153 0.49145 0.0
C4124 C 0.82628 0.12026 0.46948 0.0
C4125 C 0.80352 0.12172 0.49911 0.0
C4126 C 0.78759 0.12053 0.4848 0.0
C4127 C 0.79113 0.11929 0.46285 0.0
C4128 C 0.81037 0.11923 0.45523 0.0
C4129 C 0.76713 0.11993 0.4926 0.0
C4130 C 0.75565 0.10332 0.48765 0.0
C4131 C 0.75903 0.1354 0.50489 0.0
C4132 C 0.76998 0.15399 0.50903 0.0
C4133 C 0.7775 0.16522 0.49199 0.0
C4134 C 0.78764 0.18281 0.49594 0.0
C4135 C 0.79024 0.18941 0.51686 0.0
C4136 C 0.78268 0.17846 0.53387 0.0
C4137 C 0.77253 0.16084 0.53001 0.0
H4138 H 0.79808 0.20305 0.51989 0.0
H4139 H 0.69547 0.03584 0.47624 0.0
H4140 H 0.59384 0.06333 0.20464 0.0
H4141 H 0.59178 0.03146 0.22238 0.0
H4142 H 0.6398 0.04806 0.26392 0.0
H4143 H 0.6421 0.08 0.24592 0.0
H4144 H 0.64801 0.01705 0.23726 0.0
H4145 H 0.59602 0.03562 0.28514 0.0
H4146 H 0.56374 0.04923 0.29577 0.0
H4147 H 0.5342 0.00636 0.25674 0.0
H4148 H 0.56629 0.99265 0.24564 0.0
H4149 H 0.65723 0.92562 0.28856 0.0
H4150 H 0.65435 0.95947 0.27644 0.0
H4151 H 0.6003 0.94493 0.24336 0.0
H4152 H 0.60255 0.91105 0.25681 0.0
H4153 H 0.59453 0.97537 0.26687 0.0
H4154 H 0.64501 0.95773 0.21714 0.0
H4155 H 0.67672 0.94352 0.20538 0.0
H4156 H 0.70815 0.98448 0.24501 0.0
H4157 H 0.67667 -0.0012 0.25723 0.0
C4158 C 0.60363 0.06038 0.21794 0.0
C4159 C 0.61847 0.07386 0.22368 0.0
C4160 C 0.60224 0.04228 0.22823 0.0
C4161 C 0.6157 0.03746 0.24435 0.0
C4162 C 0.62928 0.05164 0.2515 0.0
C4163 C 0.63061 0.06982 0.24124 0.0
C4164 C 0.61847 0.01662 0.25002 0.0
C4165 C 0.63648 0.00797 0.24418 0.0
C4166 C 0.60298 0.00478 0.25794 0.0
C4167 C 0.58363 0.01321 0.2644 0.0
C4168 C 0.58266 0.02922 0.27864 0.0
C4169 C 0.56438 0.03692 0.2848 0.0
C4170 C 0.54694 0.0287 0.2769 0.0
C4171 C 0.54773 0.01273 0.26284 0.0
C4172 C 0.56596 0.00497 0.25663 0.0
C4173 C 0.64508 0.92948 0.27814 0.0
C4174 C 0.63009 0.91587 0.27354 0.0
C4175 C 0.64344 0.94885 0.27119 0.0
C4176 C 0.62716 0.95471 0.25889 0.0
C4177 C 0.61292 0.9407 0.25294 0.0
C4178 C 0.61428 0.92139 0.2604 0.0
C4179 C 0.62413 0.97578 0.25415 0.0
C4180 C 0.60608 0.98445 0.26001 0.0
C4181 C 0.63945 0.98766 0.24584 0.0
C4182 C 0.65844 0.97925 0.23822 0.0
C4183 C 0.65868 0.96364 0.22343 0.0
C4184 C 0.67661 0.95557 0.21669 0.0
C4185 C 0.69441 0.96304 0.2245 0.0
C4186 C 0.69434 0.97869 0.23899 0.0
C4187 C 0.67646 0.98682 0.2458 0.0
H4188 H 0.70826 0.95672 0.21928 0.0
H4189 H 0.53281 0.03467 0.2817 0.0
H4190 H 0.66271 0.87237 -0.00024 0.0
H4191 H 0.69721 0.87168 0.0117 0.0
H4192 H 0.71661 0.87 0.94605 0.0
H4193 H 0.68222 0.86959 0.93429 0.0
H4194 H 0.73738 0.84556 0.96765 0.0
H4195 H 0.72078 0.91375 0.97679 0.0
H4196 H 0.70081 0.94199 0.98876 0.0
H4197 H 0.70686 0.92311 0.05383 0.0
H4198 H 0.72711 0.89486 0.0422 0.0
H4199 H 0.83708 0.87566 0.99806 0.0
H4200 H 0.80419 0.87402 0.98133 0.0
H4201 H 0.77832 0.8607 0.04256 0.0
H4202 H 0.81083 0.86251 0.05916 0.0
H4203 H 0.76218 0.89404 0.02053 0.0
H4204 H 0.78023 0.8255 0.00925 0.0
H4205 H 0.80105 0.79858 0.99535 0.0
H4206 H 0.79295 0.82006 0.93153 0.0
H4207 H 0.77225 0.84725 0.94508 0.0
C4208 C 0.67445 0.87178 0.98804 0.0
C4209 C 0.67012 0.87086 0.96627 0.0
C4210 C 0.69406 0.87154 0.99477 0.0
C4211 C 0.70945 0.87108 0.97971 0.0
C4212 C 0.70498 0.8703 0.9579 0.0
C4213 C 0.68542 0.87008 0.95123 0.0
C4214 C 0.73023 0.87111 0.98669 0.0
C4215 C 0.74289 0.85635 0.97895 0.0
C4216 C 0.73737 0.88513 0.00148 0.0
C4217 C 0.72532 0.90215 0.00861 0.0
C4218 C 0.71778 0.9156 0.99364 0.0
C4219 C 0.70644 0.93164 0.00038 0.0
C4220 C 0.70244 0.93432 0.02205 0.0
C4221 C 0.70995 0.92105 0.03705 0.0
C4222 C 0.72145 0.90507 0.0304 0.0
C4223 C 0.82429 0.8724 0.00778 0.0
C4224 C 0.82622 0.86949 0.0298 0.0
C4225 C 0.80568 0.87126 0.99827 0.0
C4226 C 0.78901 0.8673 0.01083 0.0
C4227 C 0.7911 0.86378 0.0327 0.0
C4228 C 0.80961 0.86476 0.04212 0.0
C4229 C 0.76909 0.86833 0.00177 0.0
C4230 C 0.75665 0.88337 0.00908 0.0
C4231 C 0.76233 0.85479 0.98633 0.0
C4232 C 0.77491 0.83856 0.97821 0.0
C4233 C 0.78307 0.82461 0.99228 0.0
C4234 C 0.7948 0.80927 0.98446 0.0
C4235 C 0.79838 0.80765 0.96258 0.0
C4236 C 0.7902 0.82135 0.94847 0.0
C4237 C 0.77846 0.83672 0.95621 0.0
H4238 H 0.80745 0.79575 0.95655 0.0
H4239 H 0.6936 0.94671 0.0272 0.0
H4240 H 0.59739 0.57802 0.76374 0.0
H4241 H 0.59413 0.54541 0.74734 0.0
H4242 H 0.65645 0.53537 0.75686 0.0
H4243 H 0.65986 0.56807 0.77232 0.0
H4244 H 0.64408 0.5151 0.72401 0.0
H4245 H 0.62022 0.52691 0.79729 0.0
H4246 H 0.59802 0.54326 0.82301 0.0
H4247 H 0.54758 0.52073 0.78939 0.0
H4248 H 0.56951 0.50444 0.76333 0.0
H4249 H 0.65784 0.41778 0.73863 0.0
H4250 H 0.65492 0.45072 0.75381 0.0
H4251 H 0.59227 0.45011 0.74149 0.0
H4252 H 0.59479 0.41657 0.72803 0.0
H4253 H 0.6006 0.47608 0.77184 0.0
H4254 H 0.6263 0.45888 0.7023 0.0
H4255 H 0.64986 0.44144 0.679 0.0
H4256 H 0.69768 0.47516 0.70507 0.0
H4257 H 0.67469 0.49189 0.72958 0.0
C4258 C 0.61049 0.5691 0.76147 0.0
C4259 C 0.62879 0.57523 0.76964 0.0
C4260 C 0.6086 0.55049 0.75223 0.0
C4261 C 0.62489 0.53775 0.75173 0.0
C4262 C 0.64363 0.54491 0.75736 0.0
C4263 C 0.64559 0.56362 0.7662 0.0
C4264 C 0.62229 0.51631 0.74893 0.0
C4265 C 0.63458 0.50655 0.73443 0.0
C4266 C 0.6096 0.50523 0.76233 0.0
C4267 C 0.59648 0.51462 0.77829 0.0
C4268 C 0.60439 0.52548 0.79538 0.0
C4269 C 0.59187 0.53475 0.81 0.0
C4270 C 0.5714 0.53307 0.80781 0.0
C4271 C 0.56343 0.52204 0.79105 0.0
C4272 C 0.57589 0.51279 0.77636 0.0
C4273 C 0.64328 0.42412 0.74039 0.0
C4274 C 0.62665 0.41494 0.73146 0.0
C4275 C 0.64165 0.44306 0.74886 0.0
C4276 C 0.62357 0.45312 0.74761 0.0
C4277 C 0.60645 0.44275 0.74205 0.0
C4278 C 0.60797 0.42362 0.7342 0.0
C4279 C 0.62311 0.47487 0.74762 0.0
C4280 C 0.61001 0.48461 0.7613 0.0
C4281 C 0.63513 0.48596 0.73349 0.0
C4282 C 0.64876 0.47654 0.71794 0.0
C4283 C 0.64184 0.46253 0.70315 0.0
C4284 C 0.6551 0.45273 0.68976 0.0
C4285 C 0.67518 0.45731 0.6904 0.0
C4286 C 0.6821 0.47162 0.70457 0.0
C4287 C 0.66899 0.48117 0.71834 0.0
H4288 H 0.68538 0.44973 0.67996 0.0
H4289 H 0.56173 0.54027 0.81912 0.0
H4290 H 0.83586 0.35851 0.99794 0.0
H4291 H 0.80215 0.35765 0.01232 0.0
H4292 H 0.78274 0.39587 0.96129 0.0
H4293 H 0.81647 0.39769 0.94789 0.0
H4294 H 0.76506 0.40584 0.99549 0.0
H4295 H 0.77791 0.34315 0.96054 0.0
H4296 H 0.79611 0.31207 0.95491 0.0
H4297 H 0.78428 0.29476 0.01953 0.0
H4298 H 0.76618 0.32584 0.0256 0.0
H4299 H 0.66279 0.38541 0.99446 0.0
H4300 H 0.69751 0.38589 0.98323 0.0
H4301 H 0.71371 0.35381 0.04006 0.0
H4302 H 0.6793 0.35341 0.05133 0.0
H4303 H 0.73322 0.34053 0.00512 0.0
H4304 H 0.71844 0.40274 0.03881 0.0
H4305 H 0.70038 0.43395 0.04397 0.0
H4306 H 0.71582 0.45225 0.98058 0.0
H4307 H 0.73369 0.42099 0.9749 0.0
C4308 C 0.82433 0.36694 0.99016 0.0
C4309 C 0.82848 0.37821 0.97201 0.0
C4310 C 0.80515 0.36633 0.99819 0.0
C4311 C 0.78989 0.37637 0.98758 0.0
C4312 C 0.79429 0.38805 0.96974 0.0
C4313 C 0.8135 0.3891 0.96211 0.0
C4314 C 0.76917 0.37432 0.99441 0.0
C4315 C 0.75805 0.39155 0.99736 0.0
C4316 C 0.76017 0.35567 0.99731 0.0
C4317 C 0.77084 0.33688 0.99357 0.0
C4318 C 0.77927 0.33275 0.97357 0.0
C4319 C 0.78956 0.31513 0.9703 0.0
C4320 C 0.79138 0.30147 0.98687 0.0
C4321 C 0.78287 0.30536 0.00672 0.0
C4322 C 0.77258 0.32296 0.01008 0.0
C4323 C 0.67383 0.3785 0.00445 0.0
C4324 C 0.66854 0.36969 0.02383 0.0
C4325 C 0.69354 0.37869 0.99804 0.0
C4326 C 0.70808 0.37016 0.01106 0.0
C4327 C 0.70265 0.36047 0.02987 0.0
C4328 C 0.683 0.36023 0.03623 0.0
C4329 C 0.72911 0.37203 0.00565 0.0
C4330 C 0.74027 0.35479 0.00316 0.0
C4331 C 0.73811 0.39067 0.00299 0.0
C4332 C 0.72726 0.40944 0.00636 0.0
C4333 C 0.71784 0.41334 0.0259 0.0
C4334 C 0.70767 0.43106 0.02894 0.0
C4335 C 0.70697 0.44507 0.01263 0.0
C4336 C 0.71641 0.44139 0.99322 0.0
C4337 C 0.72654 0.42367 0.99008 0.0
H4338 H 0.69909 0.45878 0.015 0.0
H4339 H 0.79937 0.28785 0.98431 0.0
H4340 H 0.84225 0.57383 0.23407 0.0
H4341 H 0.84596 0.54196 0.25154 0.0
H4342 H 0.90871 0.54371 0.24032 0.0
H4343 H 0.90535 0.57618 0.2239 0.0
H4344 H 0.88456 0.51329 0.21784 0.0
H4345 H 0.90021 0.5382 0.28618 0.0
H4346 H 0.89673 0.55973 0.31763 0.0
H4347 H 0.84004 0.53432 0.33105 0.0
H4348 H 0.84296 0.5129 0.29941 0.0
H4349 H 0.8957 0.41529 0.26111 0.0
H4350 H 0.89907 0.44963 0.24972 0.0
H4351 H 0.83828 0.46039 0.26652 0.0
H4352 H 0.83474 0.42602 0.27775 0.0
H4353 H 0.86653 0.48468 0.28797 0.0
H4354 H 0.8495 0.46278 0.21734 0.0
H4355 H 0.85242 0.44215 0.18512 0.0
H4356 H 0.91177 0.46259 0.17571 0.0
H4357 H 0.90933 0.4831 0.20812 0.0
C4358 C 0.85696 0.56801 0.23639 0.0
C4359 C 0.87346 0.57738 0.22745 0.0
C4360 C 0.85905 0.54974 0.24624 0.0
C4361 C 0.87757 0.54058 0.24692 0.0
C4362 C 0.89433 0.55067 0.23984 0.0
C4363 C 0.89233 0.56915 0.23043 0.0
C4364 C 0.87851 0.51933 0.25097 0.0
C4365 C 0.88112 0.50692 0.23328 0.0
C4366 C 0.87352 0.51137 0.271 0.0
C4367 C 0.87173 0.52404 0.29025 0.0
C4368 C 0.8869 0.53732 0.2957 0.0
C4369 C 0.88505 0.54949 0.31359 0.0
C4370 C 0.86815 0.54843 0.3263 0.0
C4371 C 0.85311 0.53514 0.32118 0.0
C4372 C 0.85487 0.52296 0.30326 0.0
C4373 C 0.88291 0.42486 0.26172 0.0
C4374 C 0.86504 0.41819 0.27047 0.0
C4375 C 0.88487 0.44441 0.25529 0.0
C4376 C 0.869 0.45745 0.25767 0.0
C4377 C 0.85069 0.45045 0.26481 0.0
C4378 C 0.84865 0.43082 0.271 0.0
C4379 C 0.87208 0.4787 0.25471 0.0
C4380 C 0.87026 0.49103 0.27262 0.0
C4381 C 0.87779 0.48663 0.23485 0.0
C4382 C 0.87932 0.47428 0.21535 0.0
C4383 C 0.86326 0.46271 0.20855 0.0
C4384 C 0.86481 0.45108 0.19022 0.0
C4385 C 0.8823 0.451 0.17842 0.0
C4386 C 0.89825 0.46262 0.1849 0.0
C4387 C 0.89679 0.47426 0.20325 0.0
H4388 H 0.88347 0.44199 0.16422 0.0
H4389 H 0.86673 0.55788 0.34013 0.0
H4390 H 0.67305 0.65198 0.45558 0.0
H4391 H 0.70585 0.65468 0.4709 0.0
H4392 H 0.69042 0.61198 0.51905 0.0
H4393 H 0.65694 0.60971 0.50408 0.0
H4394 H 0.72102 0.64396 0.53035 0.0
H4395 H 0.70544 0.59185 0.47956 0.0
H4396 H 0.6897 0.58065 0.44623 0.0
H4397 H 0.72675 0.6197 0.41014 0.0
H4398 H 0.7424 0.63146 0.44333 0.0
H4399 H 0.81271 0.59381 0.54257 0.0
H4400 H 0.77777 0.59906 0.53449 0.0
H4401 H 0.79355 0.64173 0.48641 0.0
H4402 H 0.82864 0.63708 0.495 0.0
H4403 H 0.76281 0.61115 0.47571 0.0
H4404 H 0.78117 0.66061 0.52623 0.0
H4405 H 0.79484 0.67451 0.55938 0.0
H4406 H 0.75215 0.64236 0.59612 0.0
H4407 H 0.73866 0.62766 0.56321 0.0
C4408 C 0.67631 0.64364 0.46989 0.0
C4409 C 0.66285 0.62976 0.47807 0.0
C4410 C 0.69506 0.6453 0.47866 0.0
C4411 C 0.70057 0.63315 0.49568 0.0
C4412 C 0.68639 0.62127 0.50569 0.0
C4413 C 0.6675 0.61963 0.4969 0.0
C4414 C 0.72168 0.62981 0.49967 0.0
C4415 C 0.73019 0.63656 0.51864 0.0
C4416 C 0.73349 0.62053 0.48401 0.0
C4417 C 0.72491 0.61271 0.46394 0.0
C4418 C 0.71014 0.59813 0.46452 0.0
C4419 C 0.70121 0.59171 0.44566 0.0
C4420 C 0.70709 0.59958 0.4261 0.0
C4421 C 0.72208 0.61374 0.42533 0.0
C4422 C 0.73101 0.62027 0.44415 0.0
C4423 C 0.80874 0.60398 0.52995 0.0
C4424 C 0.82322 0.61506 0.51931 0.0
C4425 C 0.78884 0.60709 0.52554 0.0
C4426 C 0.78327 0.62097 0.51015 0.0
C4427 C 0.79773 0.63109 0.49849 0.0
C4428 C 0.81764 0.62837 0.50329 0.0
C4429 C 0.76227 0.62512 0.50657 0.0
C4430 C 0.75373 0.61848 0.48756 0.0
C4431 C 0.75052 0.63447 0.52227 0.0
C4432 C 0.7591 0.64273 0.5422 0.0
C4433 C 0.77494 0.65615 0.54137 0.0
C4434 C 0.7826 0.66426 0.56014 0.0
C4435 C 0.7744 0.65929 0.57985 0.0
C4436 C 0.75851 0.64619 0.58083 0.0
C4437 C 0.7509 0.63789 0.56213 0.0
H4438 H 0.78035 0.66558 0.59436 0.0
H4439 H 0.70015 0.59458 0.41153 0.0
H4440 H 0.34581 0.5851 0.25158 0.0
H4441 H 0.34751 0.55451 0.23095 0.0
H4442 H 0.40442 0.54179 0.25867 0.0
H4443 H 0.40327 0.57255 0.2782 0.0
H4444 H 0.40073 0.52119 0.22417 0.0
H4445 H 0.36031 0.5329 0.28756 0.0
H4446 H 0.33431 0.55085 0.30714 0.0
H4447 H 0.29203 0.5352 0.25895 0.0
H4448 H 0.31786 0.51727 0.23904 0.0
H4449 H 0.39652 0.41917 0.23935 0.0
H4450 H 0.3974 0.45395 0.24996 0.0
H4451 H 0.33944 0.46233 0.22273 0.0
H4452 H 0.33797 0.42752 0.21361 0.0
H4453 H 0.34327 0.48546 0.25456 0.0
H4454 H 0.38599 0.46941 0.19357 0.0
H4455 H 0.4136 0.45103 0.17729 0.0
H4456 H 0.4533 0.47427 0.22443 0.0
H4457 H 0.4259 0.49266 0.24106 0.0
C4458 C 0.35905 0.57623 0.25246 0.0
C4459 C 0.37389 0.58053 0.26736 0.0
C4460 C 0.36002 0.55873 0.24071 0.0
C4461 C 0.37557 0.5454 0.2443 0.0
C4462 C 0.39201 0.55158 0.25608 0.0
C4463 C 0.39123 0.56916 0.26743 0.0
C4464 C 0.37294 0.52403 0.24058 0.0
C4465 C 0.38811 0.51337 0.23065 0.0
C4466 C 0.35666 0.51376 0.24944 0.0
C4467 C 0.34099 0.52388 0.26178 0.0
C4468 C 0.34545 0.53327 0.28119 0.0
C4469 C 0.33076 0.54345 0.29232 0.0
C4470 C 0.31153 0.54416 0.28429 0.0
C4471 C 0.30693 0.53462 0.26516 0.0
C4472 C 0.32157 0.52443 0.25396 0.0
C4473 C 0.38377 0.42839 0.23631 0.0
C4474 C 0.36732 0.42086 0.22542 0.0
C4475 C 0.38436 0.44825 0.24211 0.0
C4476 C 0.36886 0.4609 0.23623 0.0
C4477 C 0.3517 0.45292 0.22713 0.0
C4478 C 0.35086 0.43299 0.22195 0.0
C4479 C 0.37091 0.48257 0.23784 0.0
C4480 C 0.3557 0.49325 0.24762 0.0
C4481 C 0.38732 0.49276 0.22915 0.0
C4482 C 0.4039 0.48235 0.21857 0.0
C4483 C 0.40062 0.47062 0.20041 0.0
C4484 C 0.41623 0.46018 0.19116 0.0
C4485 C 0.43519 0.46147 0.19984 0.0
C4486 C 0.43861 0.47329 0.21772 0.0
C4487 C 0.42307 0.48376 0.22703 0.0
H4488 H 0.44723 0.45332 0.1927 0.0
H4489 H 0.30019 0.5521 0.29288 0.0
H4490 H 0.33022 0.6397 0.99004 0.0
H4491 H 0.29738 0.63983 0.00643 0.0
H4492 H 0.28324 0.58542 0.97421 0.0
H4493 H 0.31626 0.58489 0.95828 0.0
H4494 H 0.26245 0.6327 0.96818 0.0
H4495 H 0.26861 0.57006 0.00901 0.0
H4496 H 0.28836 0.54828 0.03227 0.0
H4497 H 0.29548 0.59542 0.07734 0.0
H4498 H 0.27564 0.61746 0.05433 0.0
H4499 H 0.16163 0.61473 0.99886 0.0
H4500 H 0.19572 0.61363 0.98574 0.0
H4501 H 0.21516 0.64483 0.04196 0.0
H4502 H 0.18135 0.64562 0.05517 0.0
H4503 H 0.23362 0.60801 0.03584 0.0
H4504 H 0.2187 0.66745 0.99621 0.0
H4505 H 0.19952 0.68797 0.97121 0.0
H4506 H 0.20971 0.64596 0.92116 0.0
H4507 H 0.22881 0.62509 0.94593 0.0
C4508 C 0.32032 0.62742 0.98717 0.0
C4509 C 0.32553 0.61233 0.97298 0.0
C4510 C 0.30169 0.62751 0.99646 0.0
C4511 C 0.28813 0.61267 0.99134 0.0
C4512 C 0.29375 0.59683 0.9784 0.0
C4513 C 0.31253 0.59655 0.96939 0.0
C4514 C 0.26735 0.61561 0.99665 0.0
C4515 C 0.25594 0.62715 0.98281 0.0
C4516 C 0.25931 0.6085 0.0158 0.0
C4517 C 0.27075 0.59535 0.02999 0.0
C4518 C 0.2744 0.57575 0.0239 0.0
C4519 C 0.28556 0.56337 0.03703 0.0
C4520 C 0.29317 0.57049 0.05626 0.0
C4521 C 0.28955 0.58996 0.06244 0.0
C4522 C 0.27829 0.60238 0.0494 0.0
C4523 C 0.17321 0.62148 0.00817 0.0
C4524 C 0.16906 0.6297 0.02815 0.0
C4525 C 0.19255 0.62104 0.00066 0.0
C4526 C 0.20784 0.62889 0.01314 0.0
C4527 C 0.20348 0.63855 0.03229 0.0
C4528 C 0.18416 0.6391 0.03969 0.0
C4529 C 0.22849 0.62526 0.00735 0.0
C4530 C 0.23997 0.6136 0.02115 0.0
C4531 C 0.23648 0.63206 0.98791 0.0
C4532 C 0.22504 0.64462 0.97298 0.0
C4533 C 0.21673 0.66251 0.97992 0.0
C4534 C 0.20591 0.67423 0.96577 0.0
C4535 C 0.20336 0.66825 0.94462 0.0
C4536 C 0.21168 0.65057 0.93755 0.0
C4537 C 0.22254 0.63881 0.95163 0.0
H4538 H 0.19496 0.67733 0.9337 0.0
H4539 H 0.30187 0.56091 0.06638 0.0
H4540 H 0.09515 0.43007 0.80033 0.0
H4541 H 0.0945 0.4617 0.78226 0.0
H4542 H 0.13437 0.43934 0.73434 0.0
H4543 H 0.13498 0.40731 0.75253 0.0
H4544 H 0.14918 0.47074 0.75478 0.0
H4545 H 0.0871 0.4554 0.72153 0.0
H4546 H 0.05245 0.44436 0.71992 0.0
H4547 H 0.03558 0.49077 0.76278 0.0
H4548 H 0.07015 0.50196 0.76487 0.0
H4549 H 0.15522 0.56292 0.70214 0.0
H4550 H 0.15202 0.5287 0.71346 0.0
H4551 H 0.10646 0.54551 0.7581 0.0
H4552 H 0.1089 0.57973 0.74576 0.0
H4553 H 0.09434 0.51603 0.73645 0.0
H4554 H 0.15459 0.52953 0.77371 0.0
H4555 H 0.18886 0.54107 0.7782 0.0
H4556 H 0.20865 0.49879 0.73193 0.0
H4557 H 0.17447 0.48704 0.72708 0.0
C4558 C 0.10337 0.43164 0.78561 0.0
C4559 C 0.1158 0.41649 0.77823 0.0
C4560 C 0.10286 0.44975 0.7752 0.0
C4561 C 0.11451 0.45293 0.75706 0.0
C4562 C 0.12543 0.43721 0.74848 0.0
C4563 C 0.12596 0.41904 0.75896 0.0
C4564 C 0.11784 0.47329 0.7495 0.0
C4565 C 0.13724 0.48055 0.75027 0.0
C4566 C 0.10212 0.48624 0.74464 0.0
C4567 C 0.08129 0.47944 0.74346 0.0
C4568 C 0.07604 0.46316 0.73075 0.0
C4569 C 0.0564 0.4569 0.72972 0.0
C4570 C 0.04183 0.46684 0.74127 0.0
C4571 C 0.04687 0.48309 0.75384 0.0
C4572 C 0.06649 0.48941 0.75492 0.0
C4573 C 0.1449 0.55936 0.71477 0.0
C4574 C 0.13233 0.57382 0.72321 0.0
C4575 C 0.14308 0.53981 0.72125 0.0
C4576 C 0.12907 0.53452 0.73673 0.0
C4577 C 0.11728 0.54924 0.74603 0.0
C4578 C 0.11877 0.56874 0.73916 0.0
C4579 C 0.12566 0.51351 0.74196 0.0
C4580 C 0.1063 0.50617 0.74077 0.0
C4581 C 0.14134 0.50054 0.74693 0.0
C4582 C 0.16193 0.50755 0.74987 0.0
C4583 C 0.16623 0.52279 0.76438 0.0
C4584 C 0.18564 0.52936 0.767 0.0
C4585 C 0.2009 0.52076 0.75526 0.0
C4586 C 0.1968 0.50548 0.74097 0.0
C4587 C 0.17742 0.49883 0.73831 0.0
H4588 H 0.21592 0.52589 0.7573 0.0
H4589 H 0.02663 0.46197 0.74044 0.0
H4590 H 0.18141 0.40575 0.45531 0.0
H4591 H 0.21308 0.40145 0.47363 0.0
H4592 H 0.18966 0.35119 0.50739 0.0
H4593 H 0.15824 0.35478 0.48809 0.0
H4594 H 0.21966 0.39558 0.52319 0.0
H4595 H 0.21146 0.32718 0.49224 0.0
H4596 H 0.20173 0.30557 0.46237 0.0
H4597 H 0.23964 0.33803 0.42017 0.0
H4598 H 0.24905 0.36021 0.44969 0.0
H4599 H 0.31048 0.35831 0.56411 0.0
H4600 H 0.2764 0.35774 0.55145 0.0
H4601 H 0.29503 0.38193 0.49108 0.0
H4602 H 0.3293 0.38317 0.50394 0.0
H4603 H 0.26641 0.34803 0.49042 0.0
H4604 H 0.27939 0.41172 0.52033 0.0
H4605 H 0.28976 0.43574 0.54756 0.0
H4606 H 0.24359 0.41577 0.58919 0.0
H4607 H 0.23328 0.3912 0.56241 0.0
C4608 C 0.18296 0.39407 0.46698 0.0
C4609 C 0.16766 0.38056 0.47046 0.0
C4610 C 0.20099 0.39153 0.47725 0.0
C4611 C 0.20367 0.37571 0.49131 0.0
C4612 C 0.18789 0.36311 0.49605 0.0
C4613 C 0.17001 0.3653 0.48532 0.0
C4614 C 0.22331 0.37226 0.5003 0.0
C4615 C 0.22981 0.38486 0.51651 0.0
C4616 C 0.23651 0.35873 0.49082 0.0
C4617 C 0.23053 0.34565 0.47302 0.0
C4618 C 0.21736 0.32997 0.47649 0.0
C4619 C 0.21197 0.31756 0.45964 0.0
C4620 C 0.21993 0.32052 0.43933 0.0
C4621 C 0.23333 0.33585 0.43585 0.0
C4622 C 0.23865 0.34838 0.45262 0.0
C4623 C 0.30737 0.36324 0.54802 0.0
C4624 C 0.32241 0.37081 0.5349 0.0
C4625 C 0.28794 0.36296 0.54089 0.0
C4626 C 0.28339 0.36988 0.52047 0.0
C4627 C 0.29845 0.37655 0.50693 0.0
C4628 C 0.31788 0.3773 0.51425 0.0
C4629 C 0.26271 0.37111 0.5137 0.0
C4630 C 0.25615 0.35833 0.49766 0.0
C4631 C 0.24948 0.38459 0.52328 0.0
C4632 C 0.25589 0.3992 0.53955 0.0
C4633 C 0.27171 0.41211 0.53546 0.0
C4634 C 0.27752 0.42592 0.55078 0.0
C4635 C 0.26744 0.42718 0.57017 0.0
C4636 C 0.25145 0.41471 0.57421 0.0
C4637 C 0.24564 0.40082 0.55896 0.0
H4638 H 0.27193 0.4379 0.582 0.0
H4639 H 0.21581 0.31085 0.42632 0.0
H4640 H 0.12941 0.13714 0.03773 0.0
H4641 H 0.1342 0.14563 0.07523 0.0
H4642 H 0.08239 0.11211 0.09208 0.0
H4643 H 0.07731 0.10371 0.05455 0.0
H4644 H 0.08541 0.14576 0.11583 0.0
H4645 H 0.12581 0.091 0.09737 0.0
H4646 H 0.14986 0.07225 0.07593 0.0
H4647 H 0.19434 0.11569 0.08917 0.0
H4648 H 0.17047 0.13485 0.11048 0.0
H4649 H 0.11637 0.12937 0.22519 0.0
H4650 H 0.1044 0.12659 0.18844 0.0
H4651 H 0.15333 0.16193 0.16666 0.0
H4652 H 0.16536 0.16485 0.2032 0.0
H4653 H 0.15021 0.12601 0.1459 0.0
H4654 H 0.1075 0.18023 0.1658 0.0
H4655 H 0.08204 0.19707 0.18719 0.0
H4656 H 0.04045 0.15132 0.17219 0.0
H4657 H 0.06575 0.13405 0.15094 0.0
C4658 C 0.11882 0.13184 0.04934 0.0
C4659 C 0.10311 0.11955 0.0432 0.0
C4660 C 0.12163 0.13665 0.07077 0.0
C4661 C 0.10885 0.12918 0.08644 0.0
C4662 C 0.09246 0.11793 0.08023 0.0
C4663 C 0.08962 0.11312 0.05878 0.0
C4664 C 0.11342 0.13203 0.10933 0.0
C4665 C 0.09949 0.14128 0.12251 0.0
C4666 C 0.13177 0.12608 0.11797 0.0
C4667 C 0.14628 0.11448 0.10536 0.0
C4668 C 0.14068 0.09664 0.09559 0.0
C4669 C 0.15429 0.08592 0.08348 0.0
C4670 C 0.1736 0.09281 0.08114 0.0
C4671 C 0.17936 0.11039 0.09098 0.0
C4672 C 0.16581 0.12117 0.1031 0.0
C4673 C 0.12436 0.13689 0.21263 0.0
C4674 C 0.14189 0.14725 0.21712 0.0
C4675 C 0.11748 0.1353 0.19165 0.0
C4676 C 0.12802 0.14402 0.17485 0.0
C4677 C 0.14502 0.15506 0.17941 0.0
C4678 C 0.15183 0.15676 0.20034 0.0
C4679 C 0.12243 0.14029 0.15235 0.0
C4680 C 0.13616 0.13061 0.13925 0.0
C4681 C 0.10374 0.14547 0.14398 0.0
C4682 C 0.08861 0.15573 0.15699 0.0
C4683 C 0.093 0.17364 0.16726 0.0
C4684 C 0.07857 0.18329 0.17931 0.0
C4685 C 0.05966 0.17524 0.1811 0.0
C4686 C 0.05512 0.15752 0.17082 0.0
C4687 C 0.06949 0.14781 0.15876 0.0
H4688 H 0.04851 0.18274 0.19042 0.0
H4689 H 0.1841 0.08453 0.07172 0.0
H4690 H 0.11269 0.85762 0.46719 0.0
H4691 H 0.11427 0.84545 0.43032 0.0
H4692 H 0.10798 0.90508 0.40717 0.0
H4693 H 0.1059 0.91706 0.44373 0.0
H4694 H 0.08552 0.88218 0.38507 0.0
H4695 H 0.1533 0.87961 0.40893 0.0
H4696 H 0.18141 0.86919 0.43126 0.0
H4697 H 0.17009 0.80862 0.4154 0.0
H4698 H 0.14175 0.81867 0.39319 0.0
H4699 H 0.12709 0.88403 0.2827 0.0
H4700 H 0.11732 0.88702 0.31977 0.0
H4701 H 0.12303 0.82407 0.32775 0.0
H4702 H 0.13352 0.82099 0.29049 0.0
H4703 H 0.14201 0.84298 0.35816 0.0
H4704 H 0.07664 0.84842 0.32879 0.0
H4705 H 0.05071 0.86137 0.30498 0.0
H4706 H 0.05968 0.91963 0.33004 0.0
H4707 H 0.0858 0.9071 0.35381 0.0
C4708 C 0.1115 0.86804 0.45416 0.0
C4709 C 0.10882 0.88824 0.45823 0.0
C4710 C 0.11252 0.86111 0.43314 0.0
C4711 C 0.11131 0.87436 0.41594 0.0
C4712 C 0.10872 0.89453 0.42012 0.0
C4713 C 0.10743 0.90137 0.44102 0.0
C4714 C 0.11263 0.86754 0.39348 0.0
C4715 C 0.09792 0.87366 0.37917 0.0
C4716 C 0.12851 0.85594 0.38586 0.0
C4717 C 0.14521 0.84987 0.39968 0.0
C4718 C 0.15666 0.86405 0.41042 0.0
C4719 C 0.17267 0.85822 0.42299 0.0
C4720 C 0.17749 0.83825 0.42482 0.0
C4721 C 0.16631 0.82408 0.41404 0.0
C4722 C 0.15027 0.82983 0.40146 0.0
C4723 C 0.12598 0.87072 0.29216 0.0
C4724 C 0.13117 0.85226 0.28361 0.0
C4725 C 0.12022 0.87246 0.3134 0.0
C4726 C 0.11914 0.85574 0.32652 0.0
C4727 C 0.12367 0.83716 0.31788 0.0
C4728 C 0.12963 0.83542 0.29659 0.0
C4729 C 0.11518 0.8581 0.34965 0.0
C4730 C 0.12937 0.85111 0.36412 0.0
C4731 C 0.09902 0.86925 0.35735 0.0
C4732 C 0.08326 0.8768 0.34303 0.0
C4733 C 0.07317 0.86401 0.32913 0.0
C4734 C 0.05841 0.87128 0.31566 0.0
C4735 C 0.05357 0.89131 0.31598 0.0
C4736 C 0.06344 0.90411 0.32981 0.0
C4737 C 0.07819 0.89692 0.34331 0.0
H4738 H 0.04215 0.8969 0.30554 0.0
H4739 H 0.18992 0.83377 0.43452 0.0
H4740 H 0.37424 0.8849 0.71189 0.0
H4741 H 0.38377 0.88793 0.6745 0.0
H4742 H 0.36948 0.82669 0.66418 0.0
H4743 H 0.35981 0.82349 0.70168 0.0
H4744 H 0.40405 0.839 0.64247 0.0
H4745 H 0.33597 0.85933 0.65039 0.0
H4746 H 0.30788 0.87831 0.66459 0.0
H4747 H 0.33653 0.93248 0.6472 0.0
H4748 H 0.3648 0.91376 0.63281 0.0
H4749 H 0.38504 0.84275 0.52934 0.0
H4750 H 0.38546 0.83726 0.568 0.0
H4751 H 0.39506 0.89943 0.57829 0.0
H4752 H 0.39455 0.90506 0.53997 0.0
H4753 H 0.36415 0.88639 0.60037 0.0
H4754 H 0.43078 0.86676 0.5894 0.0
H4755 H 0.45828 0.84827 0.57324 0.0
H4756 H 0.4335 0.79388 0.59587 0.0
H4757 H 0.40564 0.81202 0.61189 0.0
C4758 C 0.37341 0.87196 0.7018 0.0
C4759 C 0.36606 0.85398 0.70973 0.0
C4760 C 0.3788 0.87375 0.6804 0.0
C4761 C 0.37706 0.8576 0.66653 0.0
C4762 C 0.37086 0.83934 0.67463 0.0
C4763 C 0.36529 0.83756 0.69604 0.0
C4764 C 0.38039 0.86019 0.64333 0.0
C4765 C 0.39523 0.8492 0.63316 0.0
C4766 C 0.36917 0.87385 0.63135 0.0
C4767 C 0.35258 0.88515 0.64075 0.0
C4768 C 0.33637 0.87529 0.6498 0.0
C4769 C 0.32037 0.886 0.65779 0.0
C4770 C 0.32045 0.9066 0.65687 0.0
C4771 C 0.33651 0.91653 0.64793 0.0
C4772 C 0.35249 0.90587 0.63981 0.0
C4773 C 0.38759 0.85518 0.53984 0.0
C4774 C 0.3896 0.87436 0.53156 0.0
C4775 C 0.38789 0.85202 0.56192 0.0
C4776 C 0.39028 0.86795 0.57602 0.0
C4777 C 0.39314 0.88693 0.56771 0.0
C4778 C 0.39285 0.89011 0.54576 0.0
C4779 C 0.3879 0.86531 0.59936 0.0
C4780 C 0.37313 0.87627 0.6096 0.0
C4781 C 0.39929 0.85175 0.61132 0.0
C4782 C 0.41598 0.84074 0.60164 0.0
C4783 C 0.43107 0.85083 0.59074 0.0
C4784 C 0.44675 0.84042 0.58165 0.0
C4785 C 0.4476 0.81991 0.58347 0.0
C4786 C 0.43279 0.80977 0.59444 0.0
C4787 C 0.41705 0.82011 0.60354 0.0
H4788 H 0.45977 0.81187 0.57643 0.0
H4789 H 0.30805 0.91489 0.66303 0.0
H4790 H 0.34206 0.11899 0.79273 0.0
H4791 H 0.34835 0.11825 0.83095 0.0
H4792 H 0.4062 0.14303 0.82073 0.0
H4793 H 0.40012 0.14363 0.78211 0.0
H4794 H 0.40614 0.11176 0.84958 0.0
H4795 H 0.36881 0.17207 0.83899 0.0
H4796 H 0.3404 0.19101 0.82535 0.0
H4797 H 0.30088 0.15542 0.86257 0.0
H4798 H 0.32903 0.13614 0.87626 0.0
H4799 H 0.42292 0.12513 0.9596 0.0
H4800 H 0.41908 0.13298 0.92171 0.0
H4801 H 0.3575 0.11701 0.92504 0.0
H4802 H 0.36103 0.10988 0.96289 0.0
H4803 H 0.36094 0.14643 0.8993 0.0
H4804 H 0.39317 0.08427 0.90665 0.0
H4805 H 0.41844 0.06112 0.91982 0.0
H4806 H 0.46368 0.0947 0.88847 0.0
H4807 H 0.43866 0.11819 0.8753 0.0
C4808 C 0.35615 0.12435 0.79852 0.0
C4809 C 0.37054 0.13156 0.78432 0.0
C4810 C 0.35968 0.12395 0.82043 0.0
C4811 C 0.37759 0.13092 0.82874 0.0
C4812 C 0.39221 0.13771 0.81464 0.0
C4813 C 0.38871 0.13806 0.7926 0.0
C4814 C 0.38096 0.13095 0.85216 0.0
C4815 C 0.39654 0.11969 0.86044 0.0
C4816 C 0.36792 0.14065 0.86637 0.0
C4817 C 0.35104 0.15261 0.85858 0.0
C4818 C 0.35406 0.16825 0.84422 0.0
C4819 C 0.338 0.17904 0.83648 0.0
C4820 C 0.31885 0.17441 0.84307 0.0
C4821 C 0.31572 0.15901 0.85749 0.0
C4822 C 0.33173 0.14817 0.86528 0.0
C4823 C 0.4085 0.12358 0.95232 0.0
C4824 C 0.39236 0.11667 0.96424 0.0
C4825 C 0.40634 0.12797 0.93062 0.0
C4826 C 0.38809 0.12516 0.92035 0.0
C4827 C 0.37174 0.11925 0.93251 0.0
C4828 C 0.37382 0.11511 0.95421 0.0
C4829 C 0.38618 0.12723 0.89679 0.0
C4830 C 0.3708 0.13879 0.88846 0.0
C4831 C 0.39901 0.11729 0.88254 0.0
C4832 C 0.41408 0.1031 0.89019 0.0
C4833 C 0.40853 0.08678 0.90267 0.0
C4834 C 0.4228 0.07359 0.91012 0.0
C4835 C 0.44266 0.07647 0.90504 0.0
C4836 C 0.44829 0.09251 0.89242 0.0
C4837 C 0.43407 0.10576 0.88494 0.0
H4838 H 0.4537 0.06625 0.91084 0.0
H4839 H 0.30644 0.18275 0.83702 0.0
H4840 H 0.84108 0.83346 0.79925 0.0
H4841 H 0.85108 0.83647 0.83649 0.0
H4842 H 0.89829 0.87567 0.81835 0.0
H4843 H 0.88828 0.87292 0.78089 0.0
H4844 H 0.90825 0.84786 0.85192 0.0
H4845 H 0.86073 0.89686 0.83407 0.0
H4846 H 0.82989 0.91034 0.81921 0.0
H4847 H 0.79605 0.87494 0.86263 0.0
H4848 H 0.82675 0.86091 0.8775 0.0
H4849 H 0.91742 0.89851 0.95222 0.0
H4850 H 0.91487 0.88829 0.91494 0.0
H4851 H 0.86376 0.85304 0.93014 0.0
H4852 H 0.86609 0.86327 0.96742 0.0
H4853 H 0.85707 0.87884 0.89755 0.0
H4854 H 0.90689 0.83113 0.9164 0.0
H4855 H 0.93881 0.82036 0.93128 0.0
H4856 H 0.96952 0.85668 0.88606 0.0
H4857 H 0.93777 0.86785 0.87107 0.0
C4858 C 0.85382 0.84244 0.80306 0.0
C4859 C 0.86376 0.85313 0.78713 0.0
C4860 C 0.8595 0.84414 0.82436 0.0
C4861 C 0.87527 0.85644 0.83011 0.0
C4862 C 0.88608 0.8661 0.81416 0.0
C4863 C 0.88029 0.86456 0.79281 0.0
C4864 C 0.87914 0.86055 0.85288 0.0
C4865 C 0.89718 0.85479 0.86191 0.0
C4866 C 0.8646 0.86952 0.86581 0.0
C4867 C 0.84605 0.87763 0.85671 0.0
C4868 C 0.84672 0.89173 0.84026 0.0
C4869 C 0.82927 0.89951 0.83187 0.0
C4870 C 0.81104 0.89345 0.83994 0.0
C4871 C 0.8102 0.87957 0.85638 0.0
C4872 C 0.82763 0.87169 0.86479 0.0
C4873 C 0.90584 0.88831 0.94772 0.0
C4874 C 0.89187 0.88181 0.96275 0.0
C4875 C 0.90446 0.88242 0.92641 0.0
C4876 C 0.88915 0.86989 0.9198 0.0
C4877 C 0.87569 0.86273 0.93494 0.0
C4878 C 0.87708 0.86856 0.95625 0.0
C4879 C 0.88603 0.86574 0.89686 0.0
C4880 C 0.86812 0.87171 0.88768 0.0
C4881 C 0.90082 0.85726 0.88382 0.0
C4882 C 0.91993 0.85045 0.89273 0.0
C4883 C 0.92044 0.83693 0.90973 0.0
C4884 C 0.93851 0.83073 0.91816 0.0
C4885 C 0.95618 0.83787 0.90965 0.0
C4886 C 0.95582 0.85117 0.89265 0.0
C4887 C 0.93779 0.85742 0.88415 0.0
H4888 H 0.97015 0.83306 0.91621 0.0
H4889 H 0.79757 0.89962 0.83356 0.0
H4890 H 0.88842 0.1587 0.7152 0.0
H4891 H 0.89634 0.15741 0.67714 0.0
H4892 H 0.868 0.10057 0.6724 0.0
H4893 H 0.8605 0.10151 0.71039 0.0
H4894 H 0.89902 0.10138 0.6472 0.0
H4895 H 0.8436 0.14292 0.66074 0.0
H4896 H 0.82589 0.17026 0.67804 0.0
H4897 H 0.86581 0.21191 0.64976 0.0
H4898 H 0.88418 0.18469 0.63275 0.0
H4899 H 0.8657 0.09724 0.54167 0.0
H4900 H 0.86638 0.1014 0.5802 0.0
H4901 H 0.90368 0.15254 0.57337 0.0
H4902 H 0.90313 0.1485 0.5344 0.0
H4903 H 0.87201 0.15653 0.60406 0.0
H4904 H 0.92524 0.11155 0.58749 0.0
H4905 H 0.93923 0.08227 0.56972 0.0
H4906 H 0.89805 0.04507 0.60274 0.0
H4907 H 0.88374 0.07414 0.62063 0.0
C4908 C 0.88418 0.14578 0.70613 0.0
C4909 C 0.87354 0.13037 0.71577 0.0
C4910 C 0.88865 0.1451 0.68435 0.0
C4911 C 0.88239 0.12909 0.67181 0.0
C4912 C 0.8729 0.11313 0.6817 0.0
C4913 C 0.86852 0.11375 0.70345 0.0
C4914 C 0.88429 0.12953 0.64819 0.0
C4915 C 0.89311 0.11345 0.63781 0.0
C4916 C 0.87663 0.14529 0.63585 0.0
C4917 C 0.86543 0.16175 0.64569 0.0
C4918 C 0.84871 0.15789 0.65833 0.0
C4919 C 0.83853 0.17338 0.66807 0.0
C4920 C 0.8447 0.19283 0.665 0.0
C4921 C 0.86107 0.19683 0.65215 0.0
C4922 C 0.8714 0.18137 0.64249 0.0
C4923 C 0.87403 0.10946 0.54824 0.0
C4924 C 0.88458 0.12242 0.53491 0.0
C4925 C 0.8744 0.11178 0.57032 0.0
C4926 C 0.88534 0.12706 0.57963 0.0
C4927 C 0.89525 0.14056 0.56644 0.0
C4928 C 0.89494 0.13822 0.54422 0.0
C4929 C 0.88669 0.1284 0.60319 0.0
C4930 C 0.87834 0.14473 0.61353 0.0
C4931 C 0.89433 0.11264 0.61548 0.0
C4932 C 0.90337 0.09505 0.60533 0.0
C4933 C 0.91915 0.09713 0.59094 0.0
C4934 C 0.92714 0.08056 0.58086 0.0
C4935 C 0.91953 0.06182 0.58511 0.0
C4936 C 0.90397 0.05959 0.59952 0.0
C4937 C 0.89594 0.0761 0.60968 0.0
H4938 H 0.92569 0.04902 0.57724 0.0
H4939 H 0.83677 0.2048 0.67256 0.0
H4940 H 0.57535 0.0929 0.45453 0.0
H4941 H 0.57809 0.10543 0.41814 0.0
H4942 H 0.62731 0.14187 0.43685 0.0
H4943 H 0.62468 0.12946 0.47341 0.0
H4944 H 0.60155 0.16017 0.40615 0.0
H4945 H 0.63982 0.10093 0.41526 0.0
H4946 H 0.64521 0.06682 0.4275 0.0
H4947 H 0.59735 0.04681 0.38814 0.0
H4948 H 0.59175 0.08087 0.37556 0.0
H4949 H 0.65285 0.16618 0.30655 0.0
H4950 H 0.64208 0.16244 0.34352 0.0
H4951 H 0.5961 0.12257 0.32333 0.0
H4952 H 0.60682 0.12609 0.28636 0.0
H4953 H 0.61877 0.10705 0.35492 0.0
H4954 H 0.5842 0.16775 0.34217 0.0
H4955 H 0.58149 0.20218 0.32988 0.0
H4956 H 0.6245 0.22011 0.37631 0.0
H4957 H 0.62764 0.18572 0.38874 0.0
C4958 C 0.58654 0.10384 0.45105 0.0
C4959 C 0.59996 0.10998 0.46682 0.0
C4960 C 0.58806 0.11101 0.43024 0.0
C4961 C 0.60303 0.12441 0.4248 0.0
C4962 C 0.61564 0.13156 0.44077 0.0
C4963 C 0.61415 0.12437 0.46162 0.0
C4964 C 0.60686 0.12908 0.4021 0.0
C4965 C 0.60542 0.14863 0.39493 0.0
C4966 C 0.61179 0.11397 0.3875 0.0
C4967 C 0.61528 0.09342 0.39461 0.0
C4968 C 0.63041 0.08925 0.40928 0.0
C4969 C 0.63352 0.06993 0.41626 0.0
C4970 C 0.62158 0.05465 0.4087 0.0
C4971 C 0.60659 0.05865 0.39399 0.0
C4972 C 0.60349 0.07795 0.38686 0.0
C4973 C 0.6402 0.15692 0.3099 0.0
C4974 C 0.63076 0.14636 0.29351 0.0
C4975 C 0.63404 0.15483 0.33106 0.0
C4976 C 0.61827 0.14224 0.33616 0.0
C4977 C 0.60831 0.13233 0.31973 0.0
C4978 C 0.61443 0.13443 0.29859 0.0
C4979 C 0.61322 0.13816 0.35873 0.0
C4980 C 0.6146 0.11863 0.36597 0.0
C4981 C 0.60846 0.15336 0.37333 0.0
C4982 C 0.60623 0.17414 0.36631 0.0
C4983 C 0.59314 0.17902 0.34971 0.0
C4984 C 0.59152 0.19853 0.34273 0.0
C4985 C 0.60284 0.21332 0.35229 0.0
C4986 C 0.61574 0.20864 0.36893 0.0
C4987 C 0.61741 0.18915 0.37598 0.0
H4988 H 0.60159 0.22841 0.34683 0.0
H4989 H 0.624 0.03973 0.41421 0.0
H4990 H 0.62435 0.85484 0.03397 0.0
H4991 H 0.62772 0.84625 0.07175 0.0
H4992 H 0.58284 0.88877 0.08788 0.0
H4993 H 0.57929 0.89737 0.05031 0.0
H4994 H 0.61676 0.89428 0.11048 0.0
H4995 H 0.57326 0.84123 0.09397 0.0
H4996 H 0.56107 0.81224 0.07424 0.0
H4997 H 0.61352 0.78018 0.09078 0.0
H4998 H 0.62619 0.80911 0.11036 0.0
H4999 H 0.61749 0.87386 0.22123 0.0
H5000 H 0.60537 0.87661 0.18459 0.0
H5001 H 0.64847 0.83387 0.16402 0.0
H5002 H 0.66061 0.83093 0.2006 0.0
H5003 H 0.61296 0.82822 0.14419 0.0
H5004 H 0.65732 0.88237 0.15832 0.0
H5005 H 0.66991 0.91196 0.17675 0.0
H5006 H 0.61555 0.94225 0.16393 0.0
H5007 H 0.60254 0.91276 0.14563 0.0
C5008 C 0.61492 0.86208 0.04551 0.0
C5009 C 0.60165 0.8769 0.03911 0.0
C5010 C 0.61684 0.85712 0.0671 0.0
C5011 C 0.60556 0.86691 0.08264 0.0
C5012 C 0.59173 0.88108 0.07617 0.0
C5013 C 0.5897 0.88593 0.05464 0.0
C5014 C 0.60941 0.8637 0.1057 0.0
C5015 C 0.61557 0.8799 0.11795 0.0
C5016 C 0.6083 0.84485 0.11528 0.0
C5017 C 0.60078 0.82743 0.10346 0.0
C5018 C 0.5823 0.82807 0.09323 0.0
C5019 C 0.57527 0.81163 0.08211 0.0
C5020 C 0.58653 0.7944 0.08121 0.0
C5021 C 0.60482 0.79356 0.09147 0.0
C5022 C 0.61193 0.80997 0.1026 0.0
C5023 C 0.6242 0.86481 0.20898 0.0
C5024 C 0.6401 0.85224 0.21383 0.0
C5025 C 0.61732 0.86648 0.18802 0.0
C5026 C 0.62619 0.85564 0.17151 0.0
C5027 C 0.64143 0.8424 0.17649 0.0
C5028 C 0.64838 0.84078 0.19741 0.0
C5029 C 0.62036 0.85881 0.14892 0.0
C5030 C 0.61394 0.84263 0.13675 0.0
C5031 C 0.62122 0.8777 0.13934 0.0
C5032 C 0.62886 0.89526 0.15083 0.0
C5033 C 0.64796 0.89525 0.15965 0.0
C5034 C 0.65519 0.91203 0.17003 0.0
C5035 C 0.6435 0.92895 0.17156 0.0
C5036 C 0.62456 0.92912 0.16276 0.0
C5037 C 0.61726 0.91239 0.15239 0.0
H5038 H 0.64914 0.94198 0.17941 0.0
H5039 H 0.58106 0.78168 0.0726 0.0
H5040 H 0.6331 0.60545 0.70986 0.0
H5041 H 0.62651 0.60495 0.67172 0.0
H5042 H 0.60049 0.66282 0.67568 0.0
H5043 H 0.6073 0.66368 0.71418 0.0
H5044 H 0.58083 0.6317 0.64666 0.0
H5045 H 0.64338 0.6639 0.66206 0.0
H5046 H 0.67582 0.66571 0.67979 0.0
H5047 H 0.69378 0.61234 0.64847 0.0
H5048 H 0.66127 0.60993 0.63099 0.0
H5049 H 0.5905 0.64354 0.53312 0.0
H5050 H 0.59087 0.65059 0.57154 0.0
H5051 H 0.63059 0.60176 0.58159 0.0
H5052 H 0.63042 0.59473 0.54356 0.0
H5053 H 0.64232 0.6332 0.60364 0.0
H5054 H 0.58284 0.59684 0.59257 0.0
H5055 H 0.55059 0.58932 0.57628 0.0
H5056 H 0.52731 0.64404 0.59983 0.0
H5057 H 0.55957 0.65202 0.61602 0.0
C5058 C 0.6257 0.61801 0.7028 0.0
C5059 C 0.62104 0.63479 0.71503 0.0
C5060 C 0.62192 0.61764 0.68098 0.0
C5061 C 0.61328 0.63394 0.67094 0.0
C5062 C 0.60724 0.65014 0.68324 0.0
C5063 C 0.61118 0.65061 0.70518 0.0
C5064 C 0.61246 0.63456 0.64741 0.0
C5065 C 0.59418 0.63251 0.63715 0.0
C5066 C 0.63002 0.63493 0.63521 0.0
C5067 C 0.64979 0.63665 0.64535 0.0
C5068 C 0.65418 0.65246 0.6591 0.0
C5069 C 0.67259 0.65358 0.66912 0.0
C5070 C 0.68683 0.6391 0.66535 0.0
C5071 C 0.68272 0.62351 0.65147 0.0
C5072 C 0.6643 0.62226 0.64149 0.0
C5073 C 0.59933 0.63437 0.54355 0.0
C5074 C 0.6103 0.6185 0.53533 0.0
C5075 C 0.59949 0.63838 0.56547 0.0
C5076 C 0.61068 0.62662 0.57941 0.0
C5077 C 0.62189 0.61103 0.57113 0.0
C5078 C 0.62166 0.60697 0.54936 0.0
C5079 C 0.61067 0.63018 0.60274 0.0
C5080 C 0.62886 0.63291 0.61301 0.0
C5081 C 0.5931 0.62987 0.61495 0.0
C5082 C 0.57369 0.62516 0.60524 0.0
C5083 C 0.5709 0.60737 0.59409 0.0
C5084 C 0.55261 0.603 0.58491 0.0
C5085 C 0.53693 0.61623 0.58695 0.0
C5086 C 0.53949 0.63383 0.59822 0.0
C5087 C 0.55778 0.63829 0.60741 0.0
H5088 H 0.52277 0.61282 0.57984 0.0
H5089 H 0.70107 0.63998 0.67313 0.0
H5090 H 0.65992 0.33457 0.80386 0.0
H5091 H 0.64514 0.33608 0.83919 0.0
H5092 H 0.59527 0.36775 0.81353 0.0
H5093 H 0.61036 0.36685 0.77805 0.0
H5094 H 0.60733 0.38506 0.84827 0.0
H5095 H 0.59111 0.31895 0.83073 0.0
H5096 H 0.59717 0.28536 0.81721 0.0
H5097 H 0.63929 0.2754 0.86723 0.0
H5098 H 0.63368 0.30904 0.88091 0.0
H5099 H 0.56614 0.38581 0.95131 0.0
H5100 H 0.5681 0.37515 0.91408 0.0
H5101 H 0.62484 0.34868 0.92635 0.0
H5102 H 0.62289 0.35895 0.96357 0.0
H5103 H 0.60309 0.32741 0.89683 0.0
H5104 H 0.62092 0.39593 0.91104 0.0
H5105 H 0.61317 0.42916 0.92467 0.0
H5106 H 0.56594 0.43437 0.87937 0.0
H5107 H 0.5729 0.40084 0.86603 0.0
C5108 C 0.64566 0.3416 0.80561 0.0
C5109 C 0.63628 0.35052 0.7881 0.0
C5110 C 0.63717 0.34239 0.82587 0.0
C5111 C 0.61892 0.35177 0.82903 0.0
C5112 C 0.60932 0.36037 0.81149 0.0
C5113 C 0.61793 0.35977 0.79121 0.0
C5114 C 0.61057 0.35352 0.85089 0.0
C5115 C 0.60597 0.37237 0.8587 0.0
C5116 C 0.60891 0.33701 0.86463 0.0
C5117 C 0.61202 0.31658 0.8568 0.0
C5118 C 0.60172 0.30963 0.83881 0.0
C5119 C 0.60508 0.29057 0.83111 0.0
C5120 C 0.61863 0.27826 0.84134 0.0
C5121 C 0.62879 0.28495 0.85933 0.0
C5122 C 0.6255 0.30401 0.8671 0.0
C5123 C 0.57882 0.37732 0.94622 0.0
C5124 C 0.59454 0.37358 0.96031 0.0
C5125 C 0.57991 0.37124 0.92493 0.0
C5126 C 0.5968 0.36149 0.91737 0.0
C5127 C 0.61172 0.35627 0.93182 0.0
C5128 C 0.61061 0.36225 0.9531 0.0
C5129 C 0.60024 0.35893 0.89417 0.0
C5130 C 0.60403 0.33998 0.88617 0.0
C5131 C 0.60094 0.37532 0.88017 0.0
C5132 C 0.5973 0.39578 0.88769 0.0
C5133 C 0.60881 0.4041 0.90407 0.0
C5134 C 0.60454 0.42298 0.91176 0.0
C5135 C 0.58911 0.43388 0.90285 0.0
C5136 C 0.57789 0.42591 0.88626 0.0
C5137 C 0.58194 0.40694 0.87867 0.0
H5138 H 0.58587 0.44851 0.90881 0.0
H5139 H 0.62123 0.26352 0.83533 0.0
H5140 H 0.90341 0.41916 0.04997 0.0
H5141 H 0.8996 0.40707 0.08634 0.0
H5142 H 0.87256 0.35381 0.06255 0.0
H5143 H 0.87597 0.36601 0.02598 0.0
H5144 H 0.85146 0.3694 0.09459 0.0
H5145 H 0.91947 0.35307 0.08341 0.0
H5146 H 0.9538 0.35972 0.0725 0.0
H5147 H 0.95853 0.40465 0.1205 0.0
H5148 H 0.92414 0.39843 0.13154 0.0
H5149 H 0.84648 0.32637 0.19675 0.0
H5150 H 0.85673 0.33113 0.15972 0.0
H5151 H 0.88419 0.38634 0.17676 0.0
H5152 H 0.87434 0.38153 0.21388 0.0
H5153 H 0.90596 0.36678 0.14743 0.0
H5154 H 0.83783 0.3852 0.15676 0.0
H5155 H 0.80308 0.38009 0.16713 0.0
H5156 H 0.79818 0.33263 0.12209 0.0
H5157 H 0.83302 0.33723 0.11171 0.0
C5158 C 0.8969 0.40475 0.0524 0.0
C5159 C 0.89007 0.39352 0.03504 0.0
C5160 C 0.89478 0.39782 0.07324 0.0
C5161 C 0.88599 0.37943 0.07718 0.0
C5162 C 0.87943 0.36802 0.05987 0.0
C5163 C 0.88149 0.37498 0.03898 0.0
C5164 C 0.88278 0.37264 0.09943 0.0
C5165 C 0.86344 0.36842 0.10603 0.0
C5166 C 0.89834 0.37186 0.11449 0.0
C5167 C 0.91918 0.37535 0.10823 0.0
C5168 C 0.9278 0.36442 0.09158 0.0
C5169 C 0.94728 0.36811 0.08538 0.0
C5170 C 0.95833 0.38262 0.09578 0.0
C5171 C 0.94995 0.39341 0.11247 0.0
C5172 C 0.93048 0.38978 0.11873 0.0
C5173 C 0.85497 0.33937 0.19269 0.0
C5174 C 0.85941 0.35366 0.20822 0.0
C5175 C 0.86076 0.3421 0.1715 0.0
C5176 C 0.87089 0.35927 0.16541 0.0
C5177 C 0.87633 0.37301 0.1811 0.0
C5178 C 0.87066 0.37024 0.20231 0.0
C5179 C 0.87464 0.36359 0.14256 0.0
C5180 C 0.89404 0.36746 0.13589 0.0
C5181 C 0.85911 0.36416 0.12743 0.0
C5182 C 0.83812 0.36141 0.13363 0.0
C5183 C 0.8294 0.37356 0.1492 0.0
C5184 C 0.80968 0.37077 0.15506 0.0
C5185 C 0.79846 0.35599 0.14533 0.0
C5186 C 0.80691 0.34403 0.12966 0.0
C5187 C 0.82665 0.34672 0.12378 0.0
H5188 H 0.78321 0.35382 0.14988 0.0
H5189 H 0.97339 0.38548 0.09093 0.0
H5190 H 0.87317 0.66868 0.29025 0.0
H5191 H 0.88094 0.66548 0.32831 0.0
H5192 H 0.87358 0.60244 0.32397 0.0
H5193 H 0.86617 0.60538 0.28605 0.0
H5194 H 0.85033 0.62049 0.35568 0.0
H5195 H 0.91744 0.61841 0.33197 0.0
H5196 H 0.94703 0.62992 0.3128 0.0
H5197 H 0.94701 0.68339 0.34951 0.0
H5198 H 0.91723 0.67229 0.36874 0.0
H5199 H 0.88079 0.58713 0.45568 0.0
H5200 H 0.88028 0.59338 0.41747 0.0
H5201 H 0.88865 0.65553 0.42889 0.0
H5202 H 0.88923 0.64941 0.46751 0.0
H5203 H 0.91136 0.64021 0.39397 0.0
H5204 H 0.84449 0.6411 0.41875 0.0
H5205 H 0.81566 0.62839 0.43841 0.0
H5206 H 0.81529 0.57644 0.39925 0.0
H5207 H 0.84439 0.58865 0.37961 0.0
C5208 C 0.87356 0.65411 0.29732 0.0
C5209 C 0.86886 0.63733 0.28514 0.0
C5210 C 0.87802 0.65231 0.31904 0.0
C5211 C 0.87769 0.63374 0.32893 0.0
C5212 C 0.87381 0.61691 0.31664 0.0
C5213 C 0.86962 0.61865 0.29493 0.0
C5214 C 0.87984 0.63193 0.35237 0.0
C5215 C 0.86375 0.62462 0.36403 0.0
C5216 C 0.89715 0.63782 0.36325 0.0
C5217 C 0.91495 0.64463 0.35161 0.0
C5218 C 0.92361 0.63272 0.3358 0.0
C5219 C 0.94045 0.63914 0.32496 0.0
C5220 C 0.94886 0.65741 0.32988 0.0
C5221 C 0.94046 0.66926 0.34569 0.0
C5222 C 0.92361 0.6629 0.35658 0.0
C5223 C 0.88269 0.60215 0.45017 0.0
C5224 C 0.8849 0.61781 0.46472 0.0
C5225 C 0.88238 0.60568 0.42828 0.0
C5226 C 0.8842 0.62493 0.42038 0.0
C5227 C 0.8872 0.64056 0.43472 0.0
C5228 C 0.88746 0.63704 0.45675 0.0
C5229 C 0.88193 0.62858 0.3972 0.0
C5230 C 0.89791 0.63625 0.38561 0.0
C5231 C 0.86449 0.623 0.3863 0.0
C5232 C 0.84677 0.61572 0.39784 0.0
C5233 C 0.83837 0.62689 0.41443 0.0
C5234 C 0.82197 0.61978 0.42556 0.0
C5235 C 0.8137 0.60158 0.42013 0.0
C5236 C 0.82175 0.59051 0.40347 0.0
C5237 C 0.8382 0.59752 0.39233 0.0
H5238 H 0.80104 0.59608 0.42881 0.0
H5239 H 0.96191 0.66235 0.32148 0.0
H5240 H 0.33417 0.3378 0.301 0.0
H5241 H 0.34548 0.33969 0.33786 0.0
H5242 H 0.39748 0.37126 0.31777 0.0
H5243 H 0.3861 0.36977 0.28061 0.0
H5244 H 0.40218 0.33936 0.35217 0.0
H5245 H 0.36794 0.3991 0.33466 0.0
H5246 H 0.34084 0.41857 0.319 0.0
H5247 H 0.29947 0.39071 0.3612 0.0
H5248 H 0.3263 0.37078 0.37687 0.0
H5249 H 0.4208 0.38372 0.45515 0.0
H5250 H 0.4173 0.37558 0.41733 0.0
H5251 H 0.35879 0.35305 0.42917 0.0
H5252 H 0.36212 0.36111 0.46697 0.0
H5253 H 0.35973 0.3815 0.39784 0.0
H5254 H 0.39481 0.32202 0.41572 0.0
H5255 H 0.4222 0.30248 0.43066 0.0
H5256 H 0.46277 0.33059 0.38773 0.0
H5257 H 0.43564 0.35049 0.37271 0.0
C5258 C 0.34817 0.34488 0.30429 0.0
C5259 C 0.35916 0.35378 0.2879 0.0
C5260 C 0.3546 0.34592 0.32537 0.0
C5261 C 0.37223 0.35567 0.33045 0.0
C5262 C 0.38385 0.36362 0.31407 0.0
C5263 C 0.37729 0.36282 0.29292 0.0
C5264 C 0.37729 0.35906 0.35305 0.0
C5265 C 0.39316 0.3488 0.36217 0.0
C5266 C 0.36529 0.37119 0.36597 0.0
C5267 C 0.34911 0.38329 0.35678 0.0
C5268 C 0.35304 0.39697 0.34046 0.0
C5269 C 0.33774 0.40812 0.33161 0.0
C5270 C 0.31845 0.40584 0.33907 0.0
C5271 C 0.31443 0.39244 0.35543 0.0
C5272 C 0.32968 0.38122 0.36431 0.0
C5273 C 0.40734 0.37665 0.44979 0.0
C5274 C 0.39167 0.37322 0.46404 0.0
C5275 C 0.40539 0.37198 0.42818 0.0
C5276 C 0.38775 0.36381 0.42046 0.0
C5277 C 0.37249 0.35943 0.43483 0.0
C5278 C 0.37447 0.36397 0.45644 0.0
C5279 C 0.38446 0.3615 0.39724 0.0
C5280 C 0.36889 0.37209 0.38794 0.0
C5281 C 0.39687 0.34981 0.3842 0.0
C5282 C 0.41322 0.33791 0.39325 0.0
C5283 C 0.4096 0.32418 0.4096 0.0
C5284 C 0.42507 0.313 0.41805 0.0
C5285 C 0.44423 0.31534 0.41019 0.0
C5286 C 0.44793 0.32882 0.39383 0.0
C5287 C 0.43251 0.34004 0.38532 0.0
H5288 H 0.45618 0.30667 0.41675 0.0
H5289 H 0.30663 0.41452 0.33224 0.0
H5290 H 0.37904 0.6105 0.2111 0.0
H5291 H 0.38715 0.60774 0.17343 0.0
H5292 H 0.37779 0.67026 0.16547 0.0
H5293 H 0.36903 0.67304 0.20321 0.0
H5294 H 0.35771 0.65063 0.13681 0.0
H5295 H 0.42486 0.64842 0.1606 0.0
H5296 H 0.45308 0.6371 0.18223 0.0
H5297 H 0.44555 0.57823 0.15832 0.0
H5298 H 0.41715 0.58912 0.13676 0.0
H5299 H 0.37915 0.63535 0.02546 0.0
H5300 H 0.37972 0.64828 0.06205 0.0
H5301 H 0.39131 0.58966 0.08586 0.0
H5302 H 0.39172 0.57701 0.0496 0.0
H5303 H 0.41375 0.61374 0.10543 0.0
H5304 H 0.34443 0.61446 0.08548 0.0
H5305 H 0.31554 0.6249 0.0644 0.0
H5306 H 0.32568 0.68515 0.08227 0.0
H5307 H 0.35506 0.67521 0.10288 0.0
C5308 C 0.37911 0.62377 0.20149 0.0
C5309 C 0.37323 0.64198 0.21013 0.0
C5310 C 0.38386 0.62218 0.1799 0.0
C5311 C 0.38321 0.63882 0.16658 0.0
C5312 C 0.37836 0.65722 0.17543 0.0
C5313 C 0.37342 0.65879 0.19701 0.0
C5314 C 0.38559 0.63653 0.14316 0.0
C5315 C 0.37018 0.64294 0.12986 0.0
C5316 C 0.40167 0.62616 0.13415 0.0
C5317 C 0.4188 0.61959 0.14712 0.0
C5318 C 0.42914 0.63303 0.16005 0.0
C5319 C 0.44519 0.62669 0.17229 0.0
C5320 C 0.45109 0.60696 0.17167 0.0
C5321 C 0.44098 0.59352 0.15878 0.0
C5322 C 0.42493 0.59978 0.14652 0.0
C5323 C 0.38191 0.62531 0.03856 0.0
C5324 C 0.38556 0.60522 0.0347 0.0
C5325 C 0.38213 0.63268 0.05945 0.0
C5326 C 0.38544 0.61993 0.07679 0.0
C5327 C 0.38891 0.59986 0.07281 0.0
C5328 C 0.38911 0.59262 0.05203 0.0
C5329 C 0.38548 0.62711 0.0992 0.0
C5330 C 0.40142 0.62172 0.11231 0.0
C5331 C 0.36975 0.63819 0.10805 0.0
C5332 C 0.35216 0.64411 0.09547 0.0
C5333 C 0.34066 0.62997 0.08472 0.0
C5334 C 0.32416 0.63579 0.07289 0.0
C5335 C 0.31876 0.65565 0.07201 0.0
C5336 C 0.3299 0.66977 0.08292 0.0
C5337 C 0.34652 0.66406 0.09462 0.0
H5338 H 0.30595 0.6601 0.0629 0.0
H5339 H 0.46351 0.60208 0.18116 0.0
H5340 H 0.09891 0.64449 0.77519 0.0
H5341 H 0.09252 0.64394 0.8137 0.0
H5342 H 0.15115 0.62136 0.82467 0.0
H5343 H 0.15766 0.62191 0.78658 0.0
H5344 H 0.12709 0.60158 0.84723 0.0
H5345 H 0.13766 0.67033 0.83524 0.0
H5346 H 0.13252 0.70309 0.81912 0.0
H5347 H 0.07284 0.70377 0.84212 0.0
H5348 H 0.07754 0.67086 0.85813 0.0
H5349 H 0.13942 0.61821 0.95693 0.0
H5350 H 0.14207 0.62427 0.91868 0.0
H5351 H 0.07891 0.63074 0.91443 0.0
H5352 H 0.07601 0.62447 0.95285 0.0
H5353 H 0.10275 0.65889 0.8888 0.0
H5354 H 0.09512 0.58872 0.90215 0.0
H5355 H 0.10378 0.55733 0.91964 0.0
H5356 H 0.16272 0.56138 0.89491 0.0
H5357 H 0.15448 0.59294 0.87746 0.0
C5358 C 0.11048 0.63957 0.78585 0.0
C5359 C 0.12881 0.63331 0.77776 0.0
C5360 C 0.10685 0.63935 0.80788 0.0
C5361 C 0.12148 0.63289 0.82218 0.0
C5362 C 0.13971 0.62661 0.81404 0.0
C5363 C 0.14339 0.62693 0.79217 0.0
C5364 C 0.11785 0.63197 0.84559 0.0
C5365 C 0.12192 0.61421 0.85625 0.0
C5366 C 0.11084 0.64833 0.85748 0.0
C5367 C 0.10787 0.668 0.84763 0.0
C5368 C 0.12337 0.67736 0.83666 0.0
C5369 C 0.12055 0.69598 0.82759 0.0
C5370 C 0.10234 0.70547 0.82953 0.0
C5371 C 0.08692 0.69638 0.84058 0.0
C5372 C 0.08965 0.67774 0.84966 0.0
C5373 C 0.12607 0.62123 0.948 0.0
C5374 C 0.10746 0.62064 0.95794 0.0
C5375 C 0.12764 0.62467 0.92611 0.0
C5376 C 0.11067 0.62773 0.91373 0.0
C5377 C 0.09217 0.62836 0.92374 0.0
C5378 C 0.09055 0.62471 0.94567 0.0
C5379 C 0.11225 0.62865 0.89017 0.0
C5380 C 0.10776 0.64631 0.87958 0.0
C5381 C 0.11933 0.61237 0.87834 0.0
C5382 C 0.12422 0.59328 0.88865 0.0
C5383 C 0.10997 0.583 0.90058 0.0
C5384 C 0.1148 0.56516 0.91047 0.0
C5385 C 0.13381 0.55739 0.90844 0.0
C5386 C 0.14801 0.56742 0.89648 0.0
C5387 C 0.14326 0.58527 0.88656 0.0
H5388 H 0.13753 0.54358 0.91606 0.0
H5389 H 0.1002 0.7199 0.82252 0.0
H5390 H 0.15842 0.33744 0.69841 0.0
H5391 H 0.15024 0.34036 0.66067 0.0
H5392 H 0.10007 0.37664 0.67635 0.0
H5393 H 0.10828 0.37403 0.71438 0.0
H5394 H 0.09335 0.34693 0.64325 0.0
H5395 H 0.13778 0.39977 0.6615 0.0
H5396 H 0.16796 0.4143 0.67688 0.0
H5397 H 0.20358 0.37975 0.63433 0.0
H5398 H 0.17357 0.36477 0.61889 0.0
H5399 H 0.07905 0.39627 0.54415 0.0
H5400 H 0.08323 0.38586 0.58114 0.0
H5401 H 0.1382 0.35759 0.56476 0.0
H5402 H 0.13421 0.36808 0.52769 0.0
H5403 H 0.14246 0.38189 0.5983 0.0
H5404 H 0.09842 0.33015 0.57857 0.0
H5405 H 0.06848 0.31508 0.56326 0.0
H5406 H 0.03252 0.34662 0.60813 0.0
H5407 H 0.06224 0.3621 0.62356 0.0
C5408 C 0.14548 0.34585 0.69393 0.0
C5409 C 0.13407 0.35562 0.7094 0.0
C5410 C 0.14087 0.34751 0.67233 0.0
C5411 C 0.12469 0.35886 0.66577 0.0
C5412 C 0.11264 0.36783 0.68117 0.0
C5413 C 0.11737 0.36635 0.70284 0.0
C5414 C 0.12118 0.36223 0.64278 0.0
C5415 C 0.10392 0.35477 0.63341 0.0
C5416 C 0.13531 0.372 0.62997 0.0
C5417 C 0.15341 0.38098 0.63921 0.0
C5418 C 0.15204 0.39512 0.65556 0.0
C5419 C 0.16912 0.40347 0.66426 0.0
C5420 C 0.18767 0.39792 0.65663 0.0
C5421 C 0.18919 0.38402 0.64025 0.0
C5422 C 0.17215 0.3756 0.63151 0.0
C5423 C 0.09187 0.38755 0.54832 0.0
C5424 C 0.10633 0.38307 0.53299 0.0
C5425 C 0.0942 0.38154 0.56948 0.0
C5426 C 0.111 0.3709 0.57571 0.0
C5427 C 0.12512 0.36579 0.56029 0.0
C5428 C 0.12277 0.37172 0.53908 0.0
C5429 C 0.11457 0.36656 0.59858 0.0
C5430 C 0.13188 0.37392 0.60802 0.0
C5431 C 0.10051 0.35663 0.61139 0.0
C5432 C 0.08257 0.34744 0.60209 0.0
C5433 C 0.08412 0.33402 0.58505 0.0
C5434 C 0.06719 0.32537 0.57638 0.0
C5435 C 0.04861 0.32993 0.58468 0.0
C5436 C 0.04693 0.34312 0.6017 0.0
C5437 C 0.06381 0.35182 0.61043 0.0
H5438 H 0.03552 0.32321 0.57794 0.0
H5439 H 0.20086 0.40443 0.66336 0.0
loop_
_geom_bond_atom_site_label_1
_geom_bond_atom_site_label_2
_geom_bond_distance
_geom_bond_site_symmetry_2
_ccdc_geom_bond_type
Zn0 O6 1.969 . S
Zn0 O7 1.965 . S
Zn0 O11 2.024 . S
Zn0 O16 1.969 . S
Zn1 O8 1.969 . S
Zn1 O14 1.969 . S
Zn1 O15 1.965 . S
Zn1 O17 2.024 . S
C2 O3 1.229 . S
C2 O11 1.058 . S
O3 C2 1.229 . S
C4 O5 1.229 . S
C4 O17 1.058 . S
O5 C4 1.229 . S
O6 Zn0 1.969 . S
O6 C9 1.267 . S
O7 Zn0 1.965 . S
O7 C18 1.260 . S
O8 Zn1 1.969 . S
O8 C18 1.258 . S
C9 O6 1.267 . S
C9 O10 1.228 . S
O10 C9 1.228 . S
O11 Zn0 2.024 . S
O11 C2 1.058 . S
C12 O13 1.228 . S
C12 O14 1.267 . S
O13 C12 1.228 . S
O14 Zn1 1.969 . S
O14 C12 1.267 . S
O15 Zn1 1.965 . S
O15 C19 1.260 . S
O16 Zn0 1.969 . S
O16 C19 1.258 . S
O17 Zn1 2.024 . S
O17 C4 1.058 . S
C18 O7 1.260 . S
C18 O8 1.258 . S
C19 O15 1.260 . S
C19 O16 1.258 . S
Zn20 O26 1.969 . S
Zn20 O27 1.965 . S
Zn20 O31 2.024 . S
Zn20 O36 1.969 . S
Zn21 O28 1.969 . S
Zn21 O34 1.969 . S
Zn21 O35 1.965 . S
Zn21 O37 2.024 . S
C22 O23 1.229 . S
C22 O31 1.058 . S
O23 C22 1.229 . S
C24 O25 1.229 . S
C24 O37 1.058 . S
O25 C24 1.229 . S
O26 Zn20 1.969 . S
O26 C29 1.267 . S
O27 Zn20 1.965 . S
O27 C38 1.260 . S
O28 Zn21 1.969 . S
O28 C38 1.258 . S
C29 O26 1.267 . S
C29 O30 1.228 . S
O30 C29 1.228 . S
O31 Zn20 2.024 . S
O31 C22 1.058 . S
C32 O33 1.228 . S
C32 O34 1.267 . S
O33 C32 1.228 . S
O34 Zn21 1.969 . S
O34 C32 1.267 . S
O35 Zn21 1.965 . S
O35 C39 1.260 . S
O36 Zn20 1.969 . S
O36 C39 1.258 . S
O37 Zn21 2.024 . S
O37 C24 1.058 . S
C38 O27 1.260 . S
C38 O28 1.258 . S
C39 O35 1.260 . S
C39 O36 1.258 . S
Zn40 O46 1.969 . S
Zn40 O47 1.965 . S
Zn40 O51 2.024 . S
Zn40 O56 1.969 . S
Zn41 O48 1.969 . S
Zn41 O54 1.969 . S
Zn41 O55 1.965 . S
Zn41 O57 2.024 . S
C42 O43 1.229 . S
C42 O51 1.058 . S
O43 C42 1.229 . S
C44 O45 1.229 . S
C44 O57 1.058 . S
O45 C44 1.229 . S
O46 Zn40 1.969 . S
O46 C49 1.267 . S
O47 Zn40 1.965 . S
O47 C58 1.260 . S
O48 Zn41 1.969 . S
O48 C58 1.258 . S
C49 O46 1.267 . S
C49 O50 1.228 . S
O50 C49 1.228 . S
O51 Zn40 2.024 . S
O51 C42 1.058 . S
C52 O53 1.228 . S
C52 O54 1.267 . S
O53 C52 1.228 . S
O54 Zn41 1.969 . S
O54 C52 1.267 . S
O55 Zn41 1.965 . S
O55 C59 1.260 . S
O56 Zn40 1.969 . S
O56 C59 1.258 . S
O57 Zn41 2.024 . S
O57 C44 1.058 . S
C58 O47 1.260 . S
C58 O48 1.258 . S
C59 O55 1.260 . S
C59 O56 1.258 . S
Zn60 O66 1.969 . S
Zn60 O67 1.965 . S
Zn60 O71 2.024 . S
Zn60 O76 1.969 . S
Zn61 O68 1.969 . S
Zn61 O74 1.969 . S
Zn61 O75 1.965 . S
Zn61 O77 2.024 1_554 S
C62 O63 1.229 . S
C62 O71 1.058 . S
O63 C62 1.229 . S
C64 O65 1.229 . S
C64 O77 1.058 . S
O65 C64 1.229 . S
O66 Zn60 1.969 . S
O66 C69 1.267 . S
O67 Zn60 1.965 . S
O67 C78 1.260 . S
O68 Zn61 1.969 . S
O68 C78 1.258 . S
C69 O66 1.267 . S
C69 O70 1.228 . S
O70 C69 1.228 . S
O71 Zn60 2.024 . S
O71 C62 1.058 . S
C72 O73 1.228 1_554 S
C72 O74 1.267 . S
O73 C72 1.228 1_556 S
O74 Zn61 1.969 . S
O74 C72 1.267 . S
O75 Zn61 1.965 . S
O75 C79 1.260 . S
O76 Zn60 1.969 . S
O76 C79 1.258 . S
O77 Zn61 2.024 1_556 S
O77 C64 1.058 . S
C78 O67 1.260 . S
C78 O68 1.258 . S
C79 O75 1.260 . S
C79 O76 1.258 . S
Zn80 O86 1.969 . S
Zn80 O87 1.965 . S
Zn80 O91 2.024 . S
Zn80 O96 1.969 . S
Zn81 O88 1.969 . S
Zn81 O94 1.969 . S
Zn81 O95 1.965 . S
Zn81 O97 2.024 . S
C82 O83 1.229 . S
C82 O91 1.058 . S
O83 C82 1.229 . S
C84 O85 1.229 . S
C84 O97 1.058 . S
O85 C84 1.229 . S
O86 Zn80 1.969 . S
O86 C89 1.267 . S
O87 Zn80 1.965 . S
O87 C98 1.260 . S
O88 Zn81 1.969 . S
O88 C98 1.258 . S
C89 O86 1.267 . S
C89 O90 1.228 . S
O90 C89 1.228 . S
O91 Zn80 2.024 . S
O91 C82 1.058 . S
C92 O93 1.228 . S
C92 O94 1.267 . S
O93 C92 1.228 . S
O94 Zn81 1.969 . S
O94 C92 1.267 . S
O95 Zn81 1.965 . S
O95 C99 1.260 . S
O96 Zn80 1.969 . S
O96 C99 1.258 . S
O97 Zn81 2.024 . S
O97 C84 1.058 . S
C98 O87 1.260 . S
C98 O88 1.258 . S
C99 O95 1.260 . S
C99 O96 1.258 . S
Zn100 O106 1.969 . S
Zn100 O107 1.965 . S
Zn100 O111 2.024 . S
Zn100 O116 1.969 . S
Zn101 O108 1.969 . S
Zn101 O114 1.969 . S
Zn101 O115 1.965 . S
Zn101 O117 2.024 . S
C102 O103 1.229 . S
C102 O111 1.058 . S
O103 C102 1.229 . S
C104 O105 1.229 . S
C104 O117 1.058 . S
O105 C104 1.229 . S
O106 Zn100 1.969 . S
O106 C109 1.267 . S
O107 Zn100 1.965 . S
O107 C118 1.260 . S
O108 Zn101 1.969 . S
O108 C118 1.258 . S
C109 O106 1.267 . S
C109 O110 1.228 . S
O110 C109 1.228 . S
O111 Zn100 2.024 . S
O111 C102 1.058 . S
C112 O113 1.228 . S
C112 O114 1.267 . S
O113 C112 1.228 . S
O114 Zn101 1.969 . S
O114 C112 1.267 . S
O115 Zn101 1.965 . S
O115 C119 1.260 . S
O116 Zn100 1.969 . S
O116 C119 1.258 . S
O117 Zn101 2.024 . S
O117 C104 1.058 . S
C118 O107 1.260 . S
C118 O108 1.258 . S
C119 O115 1.260 . S
C119 O116 1.258 . S
Zn120 O126 1.969 . S
Zn120 O127 1.965 . S
Zn120 O131 2.024 . S
Zn120 O136 1.969 . S
Zn121 O128 1.969 . S
Zn121 O134 1.969 . S
Zn121 O135 1.965 . S
Zn121 O137 2.024 . S
C122 O123 1.229 . S
C122 O131 1.058 . S
O123 C122 1.229 . S
C124 O125 1.229 . S
C124 O137 1.058 . S
O125 C124 1.229 . S
O126 Zn120 1.969 . S
O126 C129 1.267 . S
O127 Zn120 1.965 . S
O127 C138 1.260 . S
O128 Zn121 1.969 . S
O128 C138 1.258 . S
C129 O126 1.267 . S
C129 O130 1.228 . S
O130 C129 1.228 . S
O131 Zn120 2.024 . S
O131 C122 1.058 . S
C132 O133 1.228 . S
C132 O134 1.267 . S
O133 C132 1.228 . S
O134 Zn121 1.969 . S
O134 C132 1.267 . S
O135 Zn121 1.965 . S
O135 C139 1.260 . S
O136 Zn120 1.969 . S
O136 C139 1.258 . S
O137 Zn121 2.024 . S
O137 C124 1.058 . S
C138 O127 1.260 . S
C138 O128 1.258 . S
C139 O135 1.260 . S
C139 O136 1.258 . S
Zn140 O146 1.969 . S
Zn140 O147 1.965 . S
Zn140 O151 2.024 . S
Zn140 O156 1.969 . S
Zn141 O148 1.969 . S
Zn141 O154 1.969 . S
Zn141 O155 1.965 . S
Zn141 O157 2.024 1_556 S
C142 O143 1.229 . S
C142 O151 1.058 . S
O143 C142 1.229 . S
C144 O145 1.229 . S
C144 O157 1.058 . S
O145 C144 1.229 . S
O146 Zn140 1.969 . S
O146 C149 1.267 . S
O147 Zn140 1.965 . S
O147 C158 1.260 . S
O148 Zn141 1.969 . S
O148 C158 1.258 . S
C149 O146 1.267 . S
C149 O150 1.228 . S
O150 C149 1.228 . S
O151 Zn140 2.024 . S
O151 C142 1.058 . S
C152 O153 1.228 1_556 S
C152 O154 1.267 . S
O153 C152 1.228 1_554 S
O154 Zn141 1.969 . S
O154 C152 1.267 . S
O155 Zn141 1.965 . S
O155 C159 1.260 . S
O156 Zn140 1.969 . S
O156 C159 1.258 . S
O157 Zn141 2.024 1_554 S
O157 C144 1.058 . S
C158 O147 1.260 . S
C158 O148 1.258 . S
C159 O155 1.260 . S
C159 O156 1.258 . S
Zn160 O166 1.969 . S
Zn160 O167 1.965 . S
Zn160 O171 2.024 . S
Zn160 O176 1.969 . S
Zn161 O168 1.969 . S
Zn161 O174 1.969 . S
Zn161 O175 1.965 . S
Zn161 O177 2.024 . S
C162 O163 1.229 . S
C162 O171 1.058 . S
O163 C162 1.229 . S
C164 O165 1.229 . S
C164 O177 1.058 . S
O165 C164 1.229 . S
O166 Zn160 1.969 . S
O166 C169 1.267 . S
O167 Zn160 1.965 . S
O167 C178 1.260 . S
O168 Zn161 1.969 . S
O168 C178 1.258 . S
C169 O166 1.267 . S
C169 O170 1.228 . S
O170 C169 1.228 . S
O171 Zn160 2.024 . S
O171 C162 1.058 . S
C172 O173 1.228 . S
C172 O174 1.267 . S
O173 C172 1.228 . S
O174 Zn161 1.969 . S
O174 C172 1.267 . S
O175 Zn161 1.965 . S
O175 C179 1.260 . S
O176 Zn160 1.969 . S
O176 C179 1.258 . S
O177 Zn161 2.024 . S
O177 C164 1.058 . S
C178 O167 1.260 . S
C178 O168 1.258 . S
C179 O175 1.260 . S
C179 O176 1.258 . S
Zn180 O186 1.969 . S
Zn180 O187 1.965 . S
Zn180 O191 2.024 . S
Zn180 O196 1.969 . S
Zn181 O188 1.969 . S
Zn181 O194 1.969 . S
Zn181 O195 1.965 . S
Zn181 O197 2.024 . S
C182 O183 1.229 . S
C182 O191 1.058 . S
O183 C182 1.229 . S
C184 O185 1.229 . S
C184 O197 1.058 . S
O185 C184 1.229 . S
O186 Zn180 1.969 . S
O186 C189 1.267 . S
O187 Zn180 1.965 . S
O187 C198 1.260 . S
O188 Zn181 1.969 . S
O188 C198 1.258 . S
C189 O186 1.267 . S
C189 O190 1.228 . S
O190 C189 1.228 . S
O191 Zn180 2.024 . S
O191 C182 1.058 . S
C192 O193 1.228 . S
C192 O194 1.267 . S
O193 C192 1.228 . S
O194 Zn181 1.969 . S
O194 C192 1.267 . S
O195 Zn181 1.965 . S
O195 C199 1.260 . S
O196 Zn180 1.969 . S
O196 C199 1.258 . S
O197 Zn181 2.024 . S
O197 C184 1.058 . S
C198 O187 1.260 . S
C198 O188 1.258 . S
C199 O195 1.260 . S
C199 O196 1.258 . S
Zn200 O206 1.969 . S
Zn200 O207 1.965 . S
Zn200 O211 2.024 . S
Zn200 O216 1.969 . S
Zn201 O208 1.969 . S
Zn201 O214 1.969 . S
Zn201 O215 1.965 . S
Zn201 O217 2.024 . S
C202 O203 1.229 . S
C202 O211 1.058 . S
O203 C202 1.229 . S
C204 O205 1.229 . S
C204 O217 1.058 . S
O205 C204 1.229 . S
O206 Zn200 1.969 . S
O206 C209 1.267 . S
O207 Zn200 1.965 . S
O207 C218 1.260 . S
O208 Zn201 1.969 . S
O208 C218 1.258 . S
C209 O206 1.267 . S
C209 O210 1.228 . S
O210 C209 1.228 . S
O211 Zn200 2.024 . S
O211 C202 1.058 . S
C212 O213 1.228 . S
C212 O214 1.267 . S
O213 C212 1.228 . S
O214 Zn201 1.969 . S
O214 C212 1.267 . S
O215 Zn201 1.965 . S
O215 C219 1.260 . S
O216 Zn200 1.969 . S
O216 C219 1.258 . S
O217 Zn201 2.024 . S
O217 C204 1.058 . S
C218 O207 1.260 . S
C218 O208 1.258 . S
C219 O215 1.260 . S
C219 O216 1.258 . S
Zn220 O226 1.969 . S
Zn220 O227 1.965 . S
Zn220 O231 2.024 1_556 S
Zn220 O236 1.969 . S
Zn221 O228 1.969 . S
Zn221 O234 1.969 . S
Zn221 O235 1.965 . S
Zn221 O237 2.024 . S
C222 O223 1.229 . S
C222 O231 1.058 . S
O223 C222 1.229 . S
C224 O225 1.229 . S
C224 O237 1.058 . S
O225 C224 1.229 . S
O226 Zn220 1.969 . S
O226 C229 1.267 . S
O227 Zn220 1.965 . S
O227 C238 1.260 . S
O228 Zn221 1.969 . S
O228 C238 1.258 . S
C229 O226 1.267 . S
C229 O230 1.228 1_556 S
O230 C229 1.228 1_554 S
O231 Zn220 2.024 1_554 S
O231 C222 1.058 . S
C232 O233 1.228 . S
C232 O234 1.267 . S
O233 C232 1.228 . S
O234 Zn221 1.969 . S
O234 C232 1.267 . S
O235 Zn221 1.965 . S
O235 C239 1.260 . S
O236 Zn220 1.969 . S
O236 C239 1.258 . S
O237 Zn221 2.024 . S
O237 C224 1.058 . S
C238 O227 1.260 . S
C238 O228 1.258 . S
C239 O235 1.260 . S
C239 O236 1.258 . S
Zn240 O246 1.969 . S
Zn240 O247 1.965 . S
Zn240 O251 2.024 . S
Zn240 O256 1.969 . S
Zn241 O248 1.969 . S
Zn241 O254 1.969 . S
Zn241 O255 1.965 . S
Zn241 O257 2.024 . S
C242 O243 1.229 . S
C242 O251 1.058 . S
O243 C242 1.229 . S
C244 O245 1.229 . S
C244 O257 1.058 . S
O245 C244 1.229 . S
O246 Zn240 1.969 . S
O246 C249 1.267 . S
O247 Zn240 1.965 . S
O247 C258 1.260 . S
O248 Zn241 1.969 . S
O248 C258 1.258 . S
C249 O246 1.267 . S
C249 O250 1.228 . S
O250 C249 1.228 . S
O251 Zn240 2.024 . S
O251 C242 1.058 . S
C252 O253 1.228 . S
C252 O254 1.267 . S
O253 C252 1.228 . S
O254 Zn241 1.969 . S
O254 C252 1.267 . S
O255 Zn241 1.965 . S
O255 C259 1.260 . S
O256 Zn240 1.969 . S
O256 C259 1.258 . S
O257 Zn241 2.024 . S
O257 C244 1.058 . S
C258 O247 1.260 . S
C258 O248 1.258 . S
C259 O255 1.260 . S
C259 O256 1.258 . S
Zn260 O266 1.969 . S
Zn260 O267 1.965 . S
Zn260 O271 2.024 . S
Zn260 O276 1.969 . S
Zn261 O268 1.969 . S
Zn261 O274 1.969 . S
Zn261 O275 1.965 . S
Zn261 O277 2.024 . S
C262 O263 1.229 . S
C262 O271 1.058 . S
O263 C262 1.229 . S
C264 O265 1.229 . S
C264 O277 1.058 . S
O265 C264 1.229 . S
O266 Zn260 1.969 . S
O266 C269 1.267 . S
O267 Zn260 1.965 . S
O267 C278 1.260 . S
O268 Zn261 1.969 . S
O268 C278 1.258 . S
C269 O266 1.267 . S
C269 O270 1.228 . S
O270 C269 1.228 . S
O271 Zn260 2.024 . S
O271 C262 1.058 . S
C272 O273 1.228 . S
C272 O274 1.267 . S
O273 C272 1.228 . S
O274 Zn261 1.969 . S
O274 C272 1.267 . S
O275 Zn261 1.965 . S
O275 C279 1.260 . S
O276 Zn260 1.969 . S
O276 C279 1.258 . S
O277 Zn261 2.024 . S
O277 C264 1.058 . S
C278 O267 1.260 . S
C278 O268 1.258 . S
C279 O275 1.260 . S
C279 O276 1.258 . S
Zn280 O286 1.969 . S
Zn280 O287 1.965 . S
Zn280 O291 2.024 . S
Zn280 O296 1.969 . S
Zn281 O288 1.969 . S
Zn281 O294 1.969 . S
Zn281 O295 1.965 . S
Zn281 O297 2.024 . S
C282 O283 1.229 . S
C282 O291 1.058 . S
O283 C282 1.229 . S
C284 O285 1.229 . S
C284 O297 1.058 . S
O285 C284 1.229 . S
O286 Zn280 1.969 . S
O286 C289 1.267 . S
O287 Zn280 1.965 . S
O287 C298 1.260 . S
O288 Zn281 1.969 . S
O288 C298 1.258 . S
C289 O286 1.267 . S
C289 O290 1.228 . S
O290 C289 1.228 . S
O291 Zn280 2.024 . S
O291 C282 1.058 . S
C292 O293 1.228 . S
C292 O294 1.267 . S
O293 C292 1.228 . S
O294 Zn281 1.969 . S
O294 C292 1.267 . S
O295 Zn281 1.965 . S
O295 C299 1.260 . S
O296 Zn280 1.969 . S
O296 C299 1.258 . S
O297 Zn281 2.024 . S
O297 C284 1.058 . S
C298 O287 1.260 . S
C298 O288 1.258 . S
C299 O295 1.260 . S
C299 O296 1.258 . S
Zn300 O306 1.969 . S
Zn300 O307 1.965 . S
Zn300 O311 2.024 1_554 S
Zn300 O316 1.969 . S
Zn301 O308 1.969 . S
Zn301 O314 1.969 . S
Zn301 O315 1.965 . S
Zn301 O317 2.024 . S
C302 O303 1.229 . S
C302 O311 1.058 . S
O303 C302 1.229 . S
C304 O305 1.229 . S
C304 O317 1.058 . S
O305 C304 1.229 . S
O306 Zn300 1.969 . S
O306 C309 1.267 . S
O307 Zn300 1.965 . S
O307 C318 1.260 . S
O308 Zn301 1.969 . S
O308 C318 1.258 . S
C309 O306 1.267 . S
C309 O310 1.228 1_554 S
O310 C309 1.228 1_556 S
O311 Zn300 2.024 1_556 S
O311 C302 1.058 . S
C312 O313 1.228 . S
C312 O314 1.267 . S
O313 C312 1.228 . S
O314 Zn301 1.969 . S
O314 C312 1.267 . S
O315 Zn301 1.965 . S
O315 C319 1.260 . S
O316 Zn300 1.969 . S
O316 C319 1.258 . S
O317 Zn301 2.024 . S
O317 C304 1.058 . S
C318 O307 1.260 . S
C318 O308 1.258 . S
C319 O315 1.260 . S
C319 O316 1.258 . S
Zn320 O326 1.969 . S
Zn320 O327 1.965 . S
Zn320 O331 2.024 . S
Zn320 O336 1.969 . S
Zn321 O328 1.969 . S
Zn321 O334 1.969 . S
Zn321 O335 1.965 . S
Zn321 O337 2.024 . S
C322 O323 1.229 . S
C322 O331 1.058 . S
O323 C322 1.229 . S
C324 O325 1.229 . S
C324 O337 1.058 . S
O325 C324 1.229 . S
O326 Zn320 1.969 . S
O326 C329 1.267 . S
O327 Zn320 1.965 . S
O327 C338 1.260 . S
O328 Zn321 1.969 . S
O328 C338 1.258 . S
C329 O326 1.267 . S
C329 O330 1.228 . S
O330 C329 1.228 . S
O331 Zn320 2.024 . S
O331 C322 1.058 . S
C332 O333 1.228 . S
C332 O334 1.267 . S
O333 C332 1.228 . S
O334 Zn321 1.969 . S
O334 C332 1.267 . S
O335 Zn321 1.965 . S
O335 C339 1.260 . S
O336 Zn320 1.969 . S
O336 C339 1.258 . S
O337 Zn321 2.024 . S
O337 C324 1.058 . S
C338 O327 1.260 . S
C338 O328 1.258 . S
C339 O335 1.260 . S
C339 O336 1.258 . S
Zn340 O346 1.969 . S
Zn340 O347 1.965 . S
Zn340 O351 2.024 . S
Zn340 O356 1.969 . S
Zn341 O348 1.969 . S
Zn341 O354 1.969 . S
Zn341 O355 1.965 . S
Zn341 O357 2.024 1_554 S
C342 O343 1.229 . S
C342 O351 1.058 . S
O343 C342 1.229 . S
C344 O345 1.229 . S
C344 O357 1.058 . S
O345 C344 1.229 . S
O346 Zn340 1.969 . S
O346 C349 1.267 . S
O347 Zn340 1.965 . S
O347 C358 1.260 . S
O348 Zn341 1.969 . S
O348 C358 1.258 . S
C349 O346 1.267 . S
C349 O350 1.228 . S
O350 C349 1.228 . S
O351 Zn340 2.024 . S
O351 C342 1.058 . S
C352 O353 1.228 1_554 S
C352 O354 1.267 . S
O353 C352 1.228 1_556 S
O354 Zn341 1.969 . S
O354 C352 1.267 . S
O355 Zn341 1.965 . S
O355 C359 1.260 . S
O356 Zn340 1.969 . S
O356 C359 1.258 . S
O357 Zn341 2.024 1_556 S
O357 C344 1.058 . S
C358 O347 1.260 . S
C358 O348 1.258 . S
C359 O355 1.260 . S
C359 O356 1.258 . S
Zn360 O366 1.969 . S
Zn360 O367 1.965 . S
Zn360 O371 2.024 . S
Zn360 O376 1.969 . S
Zn361 O368 1.969 . S
Zn361 O374 1.969 . S
Zn361 O375 1.965 . S
Zn361 O377 2.024 . S
C362 O363 1.229 . S
C362 O371 1.058 . S
O363 C362 1.229 . S
C364 O365 1.229 . S
C364 O377 1.058 . S
O365 C364 1.229 . S
O366 Zn360 1.969 . S
O366 C369 1.267 . S
O367 Zn360 1.965 . S
O367 C378 1.260 . S
O368 Zn361 1.969 . S
O368 C378 1.258 . S
C369 O366 1.267 . S
C369 O370 1.228 . S
O370 C369 1.228 . S
O371 Zn360 2.024 . S
O371 C362 1.058 . S
C372 O373 1.228 . S
C372 O374 1.267 . S
O373 C372 1.228 . S
O374 Zn361 1.969 . S
O374 C372 1.267 . S
O375 Zn361 1.965 . S
O375 C379 1.260 . S
O376 Zn360 1.969 . S
O376 C379 1.258 . S
O377 Zn361 2.024 . S
O377 C364 1.058 . S
C378 O367 1.260 . S
C378 O368 1.258 . S
C379 O375 1.260 . S
C379 O376 1.258 . S
Zn380 O386 1.969 . S
Zn380 O387 1.965 . S
Zn380 O391 2.024 . S
Zn380 O396 1.969 . S
Zn381 O388 1.969 . S
Zn381 O394 1.969 . S
Zn381 O395 1.965 . S
Zn381 O397 2.024 . S
C382 O383 1.229 . S
C382 O391 1.058 . S
O383 C382 1.229 . S
C384 O385 1.229 . S
C384 O397 1.058 . S
O385 C384 1.229 . S
O386 Zn380 1.969 . S
O386 C389 1.267 . S
O387 Zn380 1.965 . S
O387 C398 1.260 . S
O388 Zn381 1.969 . S
O388 C398 1.258 . S
C389 O386 1.267 . S
C389 O390 1.228 . S
O390 C389 1.228 . S
O391 Zn380 2.024 . S
O391 C382 1.058 . S
C392 O393 1.228 . S
C392 O394 1.267 . S
O393 C392 1.228 . S
O394 Zn381 1.969 . S
O394 C392 1.267 . S
O395 Zn381 1.965 . S
O395 C399 1.260 . S
O396 Zn380 1.969 . S
O396 C399 1.258 . S
O397 Zn381 2.024 . S
O397 C384 1.058 . S
C398 O387 1.260 . S
C398 O388 1.258 . S
C399 O395 1.260 . S
C399 O396 1.258 . S
Zn400 O406 1.969 . S
Zn400 O407 1.965 . S
Zn400 O411 2.024 . S
Zn400 O416 1.969 . S
Zn401 O408 1.969 . S
Zn401 O414 1.969 . S
Zn401 O415 1.965 . S
Zn401 O417 2.024 . S
C402 O403 1.229 . S
C402 O411 1.058 . S
O403 C402 1.229 . S
C404 O405 1.229 . S
C404 O417 1.058 . S
O405 C404 1.229 . S
O406 Zn400 1.969 . S
O406 C409 1.267 . S
O407 Zn400 1.965 . S
O407 C418 1.260 . S
O408 Zn401 1.969 . S
O408 C418 1.258 . S
C409 O406 1.267 . S
C409 O410 1.228 . S
O410 C409 1.228 . S
O411 Zn400 2.024 . S
O411 C402 1.058 . S
C412 O413 1.228 . S
C412 O414 1.267 . S
O413 C412 1.228 . S
O414 Zn401 1.969 . S
O414 C412 1.267 . S
O415 Zn401 1.965 . S
O415 C419 1.260 . S
O416 Zn400 1.969 . S
O416 C419 1.258 . S
O417 Zn401 2.024 . S
O417 C404 1.058 . S
C418 O407 1.260 . S
C418 O408 1.258 . S
C419 O415 1.260 . S
C419 O416 1.258 . S
Zn420 O426 1.969 . S
Zn420 O427 1.965 . S
Zn420 O431 2.024 . S
Zn420 O436 1.969 . S
Zn421 O428 1.969 . S
Zn421 O434 1.969 . S
Zn421 O435 1.965 . S
Zn421 O437 2.024 1_556 S
C422 O423 1.229 . S
C422 O431 1.058 . S
O423 C422 1.229 . S
C424 O425 1.229 . S
C424 O437 1.058 . S
O425 C424 1.229 . S
O426 Zn420 1.969 . S
O426 C429 1.267 . S
O427 Zn420 1.965 . S
O427 C438 1.260 . S
O428 Zn421 1.969 . S
O428 C438 1.258 . S
C429 O426 1.267 . S
C429 O430 1.228 . S
O430 C429 1.228 . S
O431 Zn420 2.024 . S
O431 C422 1.058 . S
C432 O433 1.228 1_556 S
C432 O434 1.267 . S
O433 C432 1.228 1_554 S
O434 Zn421 1.969 . S
O434 C432 1.267 . S
O435 Zn421 1.965 . S
O435 C439 1.260 . S
O436 Zn420 1.969 . S
O436 C439 1.258 . S
O437 Zn421 2.024 1_554 S
O437 C424 1.058 . S
C438 O427 1.260 . S
C438 O428 1.258 . S
C439 O435 1.260 . S
C439 O436 1.258 . S
Zn440 O446 1.969 . S
Zn440 O447 1.965 . S
Zn440 O451 2.024 . S
Zn440 O456 1.969 . S
Zn441 O448 1.969 . S
Zn441 O454 1.969 . S
Zn441 O455 1.965 . S
Zn441 O457 2.024 . S
C442 O443 1.229 . S
C442 O451 1.058 . S
O443 C442 1.229 . S
C444 O445 1.229 . S
C444 O457 1.058 . S
O445 C444 1.229 . S
O446 Zn440 1.969 . S
O446 C449 1.267 . S
O447 Zn440 1.965 . S
O447 C458 1.260 . S
O448 Zn441 1.969 . S
O448 C458 1.258 . S
C449 O446 1.267 . S
C449 O450 1.228 . S
O450 C449 1.228 . S
O451 Zn440 2.024 . S
O451 C442 1.058 . S
C452 O453 1.228 . S
C452 O454 1.267 . S
O453 C452 1.228 . S
O454 Zn441 1.969 . S
O454 C452 1.267 . S
O455 Zn441 1.965 . S
O455 C459 1.260 . S
O456 Zn440 1.969 . S
O456 C459 1.258 . S
O457 Zn441 2.024 . S
O457 C444 1.058 . S
C458 O447 1.260 . S
C458 O448 1.258 . S
C459 O455 1.260 . S
C459 O456 1.258 . S
Zn460 O466 1.969 . S
Zn460 O467 1.965 . S
Zn460 O471 2.024 . S
Zn460 O476 1.969 . S
Zn461 O468 1.969 . S
Zn461 O474 1.969 . S
Zn461 O475 1.965 . S
Zn461 O477 2.024 . S
C462 O463 1.229 . S
C462 O471 1.058 . S
O463 C462 1.229 . S
C464 O465 1.229 . S
C464 O477 1.058 . S
O465 C464 1.229 . S
O466 Zn460 1.969 . S
O466 C469 1.267 . S
O467 Zn460 1.965 . S
O467 C478 1.260 . S
O468 Zn461 1.969 . S
O468 C478 1.258 . S
C469 O466 1.267 . S
C469 O470 1.228 . S
O470 C469 1.228 . S
O471 Zn460 2.024 . S
O471 C462 1.058 . S
C472 O473 1.228 . S
C472 O474 1.267 . S
O473 C472 1.228 . S
O474 Zn461 1.969 . S
O474 C472 1.267 . S
O475 Zn461 1.965 . S
O475 C479 1.260 . S
O476 Zn460 1.969 . S
O476 C479 1.258 . S
O477 Zn461 2.024 . S
O477 C464 1.058 . S
C478 O467 1.260 . S
C478 O468 1.258 . S
C479 O475 1.260 . S
C479 O476 1.258 . S
Zn480 O486 1.969 . S
Zn480 O487 1.965 . S
Zn480 O491 2.024 . S
Zn480 O496 1.969 . S
Zn481 O488 1.969 . S
Zn481 O494 1.969 . S
Zn481 O495 1.965 . S
Zn481 O497 2.024 . S
C482 O483 1.229 . S
C482 O491 1.058 . S
O483 C482 1.229 . S
C484 O485 1.229 . S
C484 O497 1.058 . S
O485 C484 1.229 . S
O486 Zn480 1.969 . S
O486 C489 1.267 . S
O487 Zn480 1.965 . S
O487 C498 1.260 . S
O488 Zn481 1.969 . S
O488 C498 1.258 . S
C489 O486 1.267 . S
C489 O490 1.228 . S
O490 C489 1.228 . S
O491 Zn480 2.024 . S
O491 C482 1.058 . S
C492 O493 1.228 . S
C492 O494 1.267 . S
O493 C492 1.228 . S
O494 Zn481 1.969 . S
O494 C492 1.267 . S
O495 Zn481 1.965 . S
O495 C499 1.260 . S
O496 Zn480 1.969 . S
O496 C499 1.258 . S
O497 Zn481 2.024 . S
O497 C484 1.058 . S
C498 O487 1.260 . S
C498 O488 1.258 . S
C499 O495 1.260 . S
C499 O496 1.258 . S
Zn500 O506 1.969 . S
Zn500 O507 1.965 . S
Zn500 O511 2.024 1_556 S
Zn500 O516 1.969 . S
Zn501 O508 1.969 . S
Zn501 O514 1.969 . S
Zn501 O515 1.965 . S
Zn501 O517 2.024 . S
C502 O503 1.229 . S
C502 O511 1.058 . S
O503 C502 1.229 . S
C504 O505 1.229 . S
C504 O517 1.058 . S
O505 C504 1.229 . S
O506 Zn500 1.969 . S
O506 C509 1.267 . S
O507 Zn500 1.965 . S
O507 C518 1.260 . S
O508 Zn501 1.969 . S
O508 C518 1.258 . S
C509 O506 1.267 . S
C509 O510 1.228 1_556 S
O510 C509 1.228 1_554 S
O511 Zn500 2.024 1_554 S
O511 C502 1.058 . S
C512 O513 1.228 . S
C512 O514 1.267 . S
O513 C512 1.228 . S
O514 Zn501 1.969 . S
O514 C512 1.267 . S
O515 Zn501 1.965 . S
O515 C519 1.260 . S
O516 Zn500 1.969 . S
O516 C519 1.258 . S
O517 Zn501 2.024 . S
O517 C504 1.058 . S
C518 O507 1.260 . S
C518 O508 1.258 . S
C519 O515 1.260 . S
C519 O516 1.258 . S
Zn520 O526 1.969 . S
Zn520 O527 1.965 . S
Zn520 O531 2.024 . S
Zn520 O536 1.969 . S
Zn521 O528 1.969 . S
Zn521 O534 1.969 . S
Zn521 O535 1.965 . S
Zn521 O537 2.024 . S
C522 O523 1.229 . S
C522 O531 1.058 . S
O523 C522 1.229 . S
C524 O525 1.229 . S
C524 O537 1.058 . S
O525 C524 1.229 . S
O526 Zn520 1.969 . S
O526 C529 1.267 . S
O527 Zn520 1.965 . S
O527 C538 1.260 . S
O528 Zn521 1.969 . S
O528 C538 1.258 . S
C529 O526 1.267 . S
C529 O530 1.228 . S
O530 C529 1.228 . S
O531 Zn520 2.024 . S
O531 C522 1.058 . S
C532 O533 1.228 . S
C532 O534 1.267 . S
O533 C532 1.228 . S
O534 Zn521 1.969 . S
O534 C532 1.267 . S
O535 Zn521 1.965 . S
O535 C539 1.260 . S
O536 Zn520 1.969 . S
O536 C539 1.258 . S
O537 Zn521 2.024 . S
O537 C524 1.058 . S
C538 O527 1.260 . S
C538 O528 1.258 . S
C539 O535 1.260 . S
C539 O536 1.258 . S
Zn540 O546 1.969 . S
Zn540 O547 1.965 . S
Zn540 O551 2.024 . S
Zn540 O556 1.969 . S
Zn541 O548 1.969 . S
Zn541 O554 1.969 . S
Zn541 O555 1.965 . S
Zn541 O557 2.024 . S
C542 O543 1.229 . S
C542 O551 1.058 . S
O543 C542 1.229 . S
C544 O545 1.229 . S
C544 O557 1.058 . S
O545 C544 1.229 . S
O546 Zn540 1.969 . S
O546 C549 1.267 . S
O547 Zn540 1.965 . S
O547 C558 1.260 . S
O548 Zn541 1.969 . S
O548 C558 1.258 . S
C549 O546 1.267 . S
C549 O550 1.228 . S
O550 C549 1.228 . S
O551 Zn540 2.024 . S
O551 C542 1.058 . S
C552 O553 1.228 . S
C552 O554 1.267 . S
O553 C552 1.228 . S
O554 Zn541 1.969 . S
O554 C552 1.267 . S
O555 Zn541 1.965 . S
O555 C559 1.260 . S
O556 Zn540 1.969 . S
O556 C559 1.258 . S
O557 Zn541 2.024 . S
O557 C544 1.058 . S
C558 O547 1.260 . S
C558 O548 1.258 . S
C559 O555 1.260 . S
C559 O556 1.258 . S
Zn560 O566 1.969 . S
Zn560 O567 1.965 . S
Zn560 O571 2.024 . S
Zn560 O576 1.969 . S
Zn561 O568 1.969 . S
Zn561 O574 1.969 . S
Zn561 O575 1.965 . S
Zn561 O577 2.024 . S
C562 O563 1.229 . S
C562 O571 1.058 . S
O563 C562 1.229 . S
C564 O565 1.229 . S
C564 O577 1.058 . S
O565 C564 1.229 . S
O566 Zn560 1.969 . S
O566 C569 1.267 . S
O567 Zn560 1.965 . S
O567 C578 1.260 . S
O568 Zn561 1.969 . S
O568 C578 1.258 . S
C569 O566 1.267 . S
C569 O570 1.228 . S
O570 C569 1.228 . S
O571 Zn560 2.024 . S
O571 C562 1.058 . S
C572 O573 1.228 . S
C572 O574 1.267 . S
O573 C572 1.228 . S
O574 Zn561 1.969 . S
O574 C572 1.267 . S
O575 Zn561 1.965 . S
O575 C579 1.260 . S
O576 Zn560 1.969 . S
O576 C579 1.258 . S
O577 Zn561 2.024 . S
O577 C564 1.058 . S
C578 O567 1.260 . S
C578 O568 1.258 . S
C579 O575 1.260 . S
C579 O576 1.258 . S
Zn580 O586 1.969 . S
Zn580 O587 1.965 . S
Zn580 O591 2.024 1_554 S
Zn580 O596 1.969 . S
Zn581 O588 1.969 . S
Zn581 O594 1.969 . S
Zn581 O595 1.965 . S
Zn581 O597 2.024 . S
C582 O583 1.229 . S
C582 O591 1.058 . S
O583 C582 1.229 . S
C584 O585 1.229 . S
C584 O597 1.058 . S
O585 C584 1.229 . S
O586 Zn580 1.969 . S
O586 C589 1.267 . S
O587 Zn580 1.965 . S
O587 C598 1.260 . S
O588 Zn581 1.969 . S
O588 C598 1.258 . S
C589 O586 1.267 . S
C589 O590 1.228 1_554 S
O590 C589 1.228 1_556 S
O591 Zn580 2.024 1_556 S
O591 C582 1.058 . S
C592 O593 1.228 . S
C592 O594 1.267 . S
O593 C592 1.228 . S
O594 Zn581 1.969 . S
O594 C592 1.267 . S
O595 Zn581 1.965 . S
O595 C599 1.260 . S
O596 Zn580 1.969 . S
O596 C599 1.258 . S
O597 Zn581 2.024 . S
O597 C584 1.058 . S
C598 O587 1.260 . S
C598 O588 1.258 . S
C599 O595 1.260 . S
C599 O596 1.258 . S
Zn600 O606 1.969 . S
Zn600 O607 1.965 . S
Zn600 O611 2.024 . S
Zn600 O616 1.969 . S
Zn601 O608 1.969 . S
Zn601 O614 1.969 . S
Zn601 O615 1.965 . S
Zn601 O617 2.024 . S
C602 O603 1.229 . S
C602 O611 1.058 . S
O603 C602 1.229 . S
C604 O605 1.229 . S
C604 O617 1.058 . S
O605 C604 1.229 . S
O606 Zn600 1.969 . S
O606 C609 1.267 . S
O607 Zn600 1.965 . S
O607 C618 1.260 . S
O608 Zn601 1.969 . S
O608 C618 1.258 . S
C609 O606 1.267 . S
C609 O610 1.228 . S
O610 C609 1.228 . S
O611 Zn600 2.024 . S
O611 C602 1.058 . S
C612 O613 1.228 . S
C612 O614 1.267 . S
O613 C612 1.228 . S
O614 Zn601 1.969 . S
O614 C612 1.267 . S
O615 Zn601 1.965 . S
O615 C619 1.260 . S
O616 Zn600 1.969 . S
O616 C619 1.258 . S
O617 Zn601 2.024 . S
O617 C604 1.058 . S
C618 O607 1.260 . S
C618 O608 1.258 . S
C619 O615 1.260 . S
C619 O616 1.258 . S
Zn620 O626 1.969 . S
Zn620 O627 1.965 . S
Zn620 O631 2.024 . S
Zn620 O636 1.969 . S
Zn621 O628 1.969 . S
Zn621 O634 1.969 . S
Zn621 O635 1.965 . S
Zn621 O637 2.024 . S
C622 O623 1.229 . S
C622 O631 1.058 . S
O623 C622 1.229 . S
C624 O625 1.229 . S
C624 O637 1.058 . S
O625 C624 1.229 . S
O626 Zn620 1.969 . S
O626 C629 1.267 . S
O627 Zn620 1.965 . S
O627 C638 1.260 . S
O628 Zn621 1.969 . S
O628 C638 1.258 . S
C629 O626 1.267 . S
C629 O630 1.228 . S
O630 C629 1.228 . S
O631 Zn620 2.024 . S
O631 C622 1.058 . S
C632 O633 1.228 . S
C632 O634 1.267 . S
O633 C632 1.228 . S
O634 Zn621 1.969 . S
O634 C632 1.267 . S
O635 Zn621 1.965 . S
O635 C639 1.260 . S
O636 Zn620 1.969 . S
O636 C639 1.258 . S
O637 Zn621 2.024 . S
O637 C624 1.058 . S
C638 O627 1.260 . S
C638 O628 1.258 . S
C639 O635 1.260 . S
C639 O636 1.258 . S
H640 C658 0.951 . S
H641 C660 0.951 . S
H642 C662 0.950 . S
H643 C663 0.950 . S
H644 C665 0.950 . S
H645 C668 0.950 . S
H646 C669 0.950 . S
H647 C671 0.950 . S
H648 C672 0.950 . S
H649 C673 0.951 . S
H650 C675 0.951 . S
H651 C677 0.950 . S
H652 C678 0.950 . S
H653 C680 0.950 . S
H654 C683 0.950 . S
H655 C684 0.950 . S
H656 C686 0.950 . S
H657 C687 0.950 . S
C658 H640 0.951 . S
C658 C659 1.366 . S
C658 C660 1.388 . S
C659 C658 1.366 . S
C659 C663 1.385 . S
C660 H641 0.951 . S
C660 C658 1.388 . S
C660 C661 1.366 . S
C661 C660 1.366 . S
C661 C662 1.414 . S
C661 C664 1.499 . S
C662 H642 0.950 . S
C662 C661 1.414 . S
C662 C663 1.374 . S
C663 H643 0.950 . S
C663 C659 1.385 . S
C663 C662 1.374 . S
C664 C661 1.499 . S
C664 C665 1.373 . S
C664 C666 1.389 . S
C665 H644 0.950 . S
C665 C664 1.373 . S
C665 C681 1.377 . S
C666 C664 1.389 . S
C666 C667 1.524 . S
C666 C680 1.377 . S
C667 C666 1.524 . S
C667 C668 1.397 . S
C667 C672 1.363 . S
C668 H645 0.950 . S
C668 C667 1.397 . S
C668 C669 1.334 . S
C669 H646 0.950 . S
C669 C668 1.334 . S
C669 C670 1.287 . S
C670 C669 1.287 . S
C670 C671 1.524 . S
C670 H689 0.913 . S
C671 H647 0.950 . S
C671 C670 1.524 . S
C671 C672 1.415 . S
C672 H648 0.950 . S
C672 C667 1.363 . S
C672 C671 1.415 . S
C673 H649 0.951 . S
C673 C674 1.366 . S
C673 C675 1.388 . S
C674 C673 1.366 . S
C674 C678 1.385 . S
C675 H650 0.951 . S
C675 C673 1.388 . S
C675 C676 1.366 . S
C676 C675 1.366 . S
C676 C677 1.414 . S
C676 C679 1.499 . S
C677 H651 0.950 . S
C677 C676 1.414 . S
C677 C678 1.374 . S
C678 H652 0.950 . S
C678 C674 1.385 . S
C678 C677 1.374 . S
C679 C676 1.499 . S
C679 C680 1.373 . S
C679 C681 1.389 . S
C680 H653 0.950 . S
C680 C666 1.377 . S
C680 C679 1.373 . S
C681 C665 1.377 . S
C681 C679 1.389 . S
C681 C682 1.524 . S
C682 C681 1.524 . S
C682 C683 1.397 . S
C682 C687 1.363 . S
C683 H654 0.950 . S
C683 C682 1.397 . S
C683 C684 1.334 . S
C684 H655 0.950 . S
C684 C683 1.334 . S
C684 C685 1.287 . S
C685 C684 1.287 . S
C685 C686 1.524 . S
C685 H688 0.999 . S
C686 H656 0.950 . S
C686 C685 1.524 . S
C686 C687 1.415 . S
C687 H657 0.950 . S
C687 C682 1.363 . S
C687 C686 1.415 . S
H688 C685 0.999 . S
H689 C670 0.913 . S
H690 C708 0.951 . S
H691 C710 0.951 . S
H692 C712 0.950 . S
H693 C713 0.950 . S
H694 C715 0.950 . S
H695 C718 0.950 . S
H696 C719 0.950 . S
H697 C721 0.950 . S
H698 C722 0.950 . S
H699 C723 0.951 . S
H700 C725 0.951 . S
H701 C727 0.950 . S
H702 C728 0.950 . S
H703 C730 0.950 . S
H704 C733 0.950 . S
H705 C734 0.950 . S
H706 C736 0.950 . S
H707 C737 0.950 . S
C708 H690 0.951 . S
C708 C709 1.366 . S
C708 C710 1.388 . S
C709 C708 1.366 . S
C709 C713 1.385 . S
C710 H691 0.951 . S
C710 C708 1.388 . S
C710 C711 1.366 . S
C711 C710 1.366 . S
C711 C712 1.414 . S
C711 C714 1.499 . S
C712 H692 0.950 . S
C712 C711 1.414 . S
C712 C713 1.374 . S
C713 H693 0.950 . S
C713 C709 1.385 . S
C713 C712 1.374 . S
C714 C711 1.499 . S
C714 C715 1.373 . S
C714 C716 1.389 . S
C715 H694 0.950 . S
C715 C714 1.373 . S
C715 C731 1.377 1_545 S
C716 C714 1.389 . S
C716 C717 1.524 . S
C716 C730 1.377 . S
C717 C716 1.524 . S
C717 C718 1.397 . S
C717 C722 1.363 . S
C718 H695 0.950 . S
C718 C717 1.397 . S
C718 C719 1.334 . S
C719 H696 0.950 . S
C719 C718 1.334 . S
C719 C720 1.287 . S
C720 C719 1.287 . S
C720 C721 1.524 . S
C720 H739 0.913 . S
C721 H697 0.950 . S
C721 C720 1.524 . S
C721 C722 1.415 . S
C722 H698 0.950 . S
C722 C717 1.363 . S
C722 C721 1.415 . S
C723 H699 0.951 . S
C723 C724 1.366 . S
C723 C725 1.388 . S
C724 C723 1.366 . S
C724 C728 1.385 . S
C725 H700 0.951 . S
C725 C723 1.388 . S
C725 C726 1.366 . S
C726 C725 1.366 . S
C726 C727 1.414 . S
C726 C729 1.499 . S
C727 H701 0.950 . S
C727 C726 1.414 . S
C727 C728 1.374 . S
C728 H702 0.950 . S
C728 C724 1.385 . S
C728 C727 1.374 . S
C729 C726 1.499 . S
C729 C730 1.373 1_565 S
C729 C731 1.389 . S
C730 H703 0.950 . S
C730 C716 1.377 . S
C730 C729 1.373 1_545 S
C731 C715 1.377 1_565 S
C731 C729 1.389 . S
C731 C732 1.524 . S
C732 C731 1.524 . S
C732 C733 1.397 . S
C732 C737 1.363 . S
C733 H704 0.950 . S
C733 C732 1.397 . S
C733 C734 1.334 . S
C734 H705 0.950 . S
C734 C733 1.334 . S
C734 C735 1.287 . S
C735 C734 1.287 . S
C735 C736 1.524 . S
C735 H738 0.999 . S
C736 H706 0.950 . S
C736 C735 1.524 . S
C736 C737 1.415 . S
C737 H707 0.950 . S
C737 C732 1.363 . S
C737 C736 1.415 . S
H738 C735 0.999 . S
H739 C720 0.913 . S
H740 C758 0.951 . S
H741 C760 0.951 . S
H742 C762 0.950 . S
H743 C763 0.950 . S
H744 C765 0.950 . S
H745 C768 0.950 . S
H746 C769 0.950 . S
H747 C771 0.950 . S
H748 C772 0.950 . S
H749 C773 0.951 . S
H750 C775 0.951 . S
H751 C777 0.950 . S
H752 C778 0.950 . S
H753 C780 0.950 . S
H754 C783 0.950 . S
H755 C784 0.950 . S
H756 C786 0.950 . S
H757 C787 0.950 . S
C758 H740 0.951 . S
C758 C759 1.366 . S
C758 C760 1.388 . S
C759 C758 1.366 . S
C759 C763 1.385 . S
C760 H741 0.951 . S
C760 C758 1.388 . S
C760 C761 1.366 . S
C761 C760 1.366 . S
C761 C762 1.414 . S
C761 C764 1.499 . S
C762 H742 0.950 . S
C762 C761 1.414 . S
C762 C763 1.374 . S
C763 H743 0.950 . S
C763 C759 1.385 . S
C763 C762 1.374 . S
C764 C761 1.499 . S
C764 C765 1.373 . S
C764 C766 1.389 . S
C765 H744 0.950 . S
C765 C764 1.373 . S
C765 C781 1.377 . S
C766 C764 1.389 . S
C766 C767 1.524 . S
C766 C780 1.377 . S
C767 C766 1.524 . S
C767 C768 1.397 . S
C767 C772 1.363 . S
C768 H745 0.950 . S
C768 C767 1.397 . S
C768 C769 1.334 . S
C769 H746 0.950 . S
C769 C768 1.334 . S
C769 C770 1.287 . S
C770 C769 1.287 . S
C770 C771 1.524 . S
C770 H789 0.913 . S
C771 H747 0.950 . S
C771 C770 1.524 . S
C771 C772 1.415 . S
C772 H748 0.950 . S
C772 C767 1.363 . S
C772 C771 1.415 . S
C773 H749 0.951 . S
C773 C774 1.366 . S
C773 C775 1.388 . S
C774 C773 1.366 . S
C774 C778 1.385 . S
C775 H750 0.951 . S
C775 C773 1.388 . S
C775 C776 1.366 . S
C776 C775 1.366 . S
C776 C777 1.414 . S
C776 C779 1.499 . S
C777 H751 0.950 . S
C777 C776 1.414 . S
C777 C778 1.374 . S
C778 H752 0.950 . S
C778 C774 1.385 . S
C778 C777 1.374 . S
C779 C776 1.499 . S
C779 C780 1.373 . S
C779 C781 1.389 . S
C780 H753 0.950 . S
C780 C766 1.377 . S
C780 C779 1.373 . S
C781 C765 1.377 . S
C781 C779 1.389 . S
C781 C782 1.524 . S
C782 C781 1.524 . S
C782 C783 1.397 . S
C782 C787 1.363 . S
C783 H754 0.950 . S
C783 C782 1.397 . S
C783 C784 1.334 . S
C784 H755 0.950 . S
C784 C783 1.334 . S
C784 C785 1.287 . S
C785 C784 1.287 . S
C785 C786 1.524 . S
C785 H788 0.999 . S
C786 H756 0.950 . S
C786 C785 1.524 . S
C786 C787 1.415 . S
C787 H757 0.950 . S
C787 C782 1.363 . S
C787 C786 1.415 . S
H788 C785 0.999 . S
H789 C770 0.913 . S
H790 C808 0.951 . S
H791 C810 0.951 . S
H792 C812 0.950 . S
H793 C813 0.950 . S
H794 C815 0.950 . S
H795 C818 0.950 . S
H796 C819 0.950 . S
H797 C821 0.950 . S
H798 C822 0.950 . S
H799 C823 0.951 . S
H800 C825 0.951 . S
H801 C827 0.950 . S
H802 C828 0.950 . S
H803 C830 0.950 . S
H804 C833 0.950 1_545 S
H805 C834 0.950 . S
H806 C836 0.950 . S
H807 C837 0.950 . S
C808 H790 0.951 . S
C808 C809 1.366 . S
C808 C810 1.388 . S
C809 C808 1.366 . S
C809 C813 1.385 . S
C810 H791 0.951 . S
C810 C808 1.388 . S
C810 C811 1.366 . S
C811 C810 1.366 . S
C811 C812 1.414 . S
C811 C814 1.499 . S
C812 H792 0.950 . S
C812 C811 1.414 . S
C812 C813 1.374 . S
C813 H793 0.950 . S
C813 C809 1.385 . S
C813 C812 1.374 . S
C814 C811 1.499 . S
C814 C815 1.373 . S
C814 C816 1.389 . S
C815 H794 0.950 . S
C815 C814 1.373 . S
C815 C831 1.377 . S
C816 C814 1.389 . S
C816 C817 1.524 1_565 S
C816 C830 1.377 1_565 S
C817 C816 1.524 1_545 S
C817 C818 1.397 1_545 S
C817 C822 1.363 . S
C818 H795 0.950 . S
C818 C817 1.397 1_565 S
C818 C819 1.334 . S
C819 H796 0.950 . S
C819 C818 1.334 . S
C819 C820 1.287 1_565 S
C820 C819 1.287 1_545 S
C820 C821 1.524 . S
C820 H839 0.913 . S
C821 H797 0.950 . S
C821 C820 1.524 . S
C821 C822 1.415 . S
C822 H798 0.950 . S
C822 C817 1.363 . S
C822 C821 1.415 . S
C823 H799 0.951 . S
C823 C824 1.366 1_554 S
C823 C825 1.388 1_554 S
C824 C823 1.366 1_556 S
C824 C828 1.385 . S
C825 H800 0.951 . S
C825 C823 1.388 1_556 S
C825 C826 1.366 . S
C826 C825 1.366 . S
C826 C827 1.414 . S
C826 C829 1.499 . S
C827 H801 0.950 . S
C827 C826 1.414 . S
C827 C828 1.374 . S
C828 H802 0.950 . S
C828 C824 1.385 . S
C828 C827 1.374 . S
C829 C826 1.499 . S
C829 C830 1.373 . S
C829 C831 1.389 1_545 S
C830 H803 0.950 . S
C830 C816 1.377 1_545 S
C830 C829 1.373 . S
C831 C815 1.377 . S
C831 C829 1.389 1_565 S
C831 C832 1.524 . S
C832 C831 1.524 . S
C832 C833 1.397 . S
C832 C837 1.363 . S
C833 H804 0.950 1_565 S
C833 C832 1.397 . S
C833 C834 1.334 . S
C834 H805 0.950 . S
C834 C833 1.334 . S
C834 C835 1.287 1_556 S
C835 C834 1.287 1_554 S
C835 C836 1.524 . S
C835 H838 0.999 . S
C836 H806 0.950 . S
C836 C835 1.524 . S
C836 C837 1.415 1_554 S
C837 H807 0.950 . S
C837 C832 1.363 . S
C837 C836 1.415 1_556 S
H838 C835 0.999 . S
H839 C820 0.913 . S
H840 C858 0.951 . S
H841 C860 0.951 . S
H842 C862 0.950 . S
H843 C863 0.950 . S
H844 C865 0.950 . S
H845 C868 0.950 . S
H846 C869 0.950 . S
H847 C871 0.950 . S
H848 C872 0.950 . S
H849 C873 0.951 . S
H850 C875 0.951 . S
H851 C877 0.950 . S
H852 C878 0.950 . S
H853 C880 0.950 . S
H854 C883 0.950 . S
H855 C884 0.950 . S
H856 C886 0.950 . S
H857 C887 0.950 . S
C858 H840 0.951 . S
C858 C859 1.366 . S
C858 C860 1.388 . S
C859 C858 1.366 . S
C859 C863 1.385 . S
C860 H841 0.951 . S
C860 C858 1.388 . S
C860 C861 1.366 . S
C861 C860 1.366 . S
C861 C862 1.414 . S
C861 C864 1.499 . S
C862 H842 0.950 . S
C862 C861 1.414 . S
C862 C863 1.374 . S
C863 H843 0.950 . S
C863 C859 1.385 . S
C863 C862 1.374 . S
C864 C861 1.499 . S
C864 C865 1.373 . S
C864 C866 1.389 . S
C865 H844 0.950 . S
C865 C864 1.373 . S
C865 C881 1.377 . S
C866 C864 1.389 . S
C866 C867 1.524 . S
C866 C880 1.377 . S
C867 C866 1.524 . S
C867 C868 1.397 . S
C867 C872 1.363 . S
C868 H845 0.950 . S
C868 C867 1.397 . S
C868 C869 1.334 . S
C869 H846 0.950 . S
C869 C868 1.334 . S
C869 C870 1.287 . S
C870 C869 1.287 . S
C870 C871 1.524 . S
C870 H889 0.913 . S
C871 H847 0.950 . S
C871 C870 1.524 . S
C871 C872 1.415 . S
C872 H848 0.950 . S
C872 C867 1.363 . S
C872 C871 1.415 . S
C873 H849 0.951 . S
C873 C874 1.366 . S
C873 C875 1.388 . S
C874 C873 1.366 . S
C874 C878 1.385 . S
C875 H850 0.951 . S
C875 C873 1.388 . S
C875 C876 1.366 . S
C876 C875 1.366 . S
C876 C877 1.414 . S
C876 C879 1.499 . S
C877 H851 0.950 . S
C877 C876 1.414 . S
C877 C878 1.374 . S
C878 H852 0.950 . S
C878 C874 1.385 . S
C878 C877 1.374 . S
C879 C876 1.499 . S
C879 C880 1.373 . S
C879 C881 1.389 . S
C880 H853 0.950 . S
C880 C866 1.377 . S
C880 C879 1.373 . S
C881 C865 1.377 . S
C881 C879 1.389 . S
C881 C882 1.524 . S
C882 C881 1.524 . S
C882 C883 1.397 . S
C882 C887 1.363 . S
C883 H854 0.950 . S
C883 C882 1.397 . S
C883 C884 1.334 . S
C884 H855 0.950 . S
C884 C883 1.334 . S
C884 C885 1.287 . S
C885 C884 1.287 . S
C885 C886 1.524 . S
C885 H888 0.999 . S
C886 H856 0.950 . S
C886 C885 1.524 . S
C886 C887 1.415 . S
C887 H857 0.950 . S
C887 C882 1.363 . S
C887 C886 1.415 . S
H888 C885 0.999 . S
H889 C870 0.913 . S
H890 C908 0.951 . S
H891 C910 0.951 . S
H892 C912 0.950 . S
H893 C913 0.950 . S
H894 C915 0.950 . S
H895 C918 0.950 1_565 S
H896 C919 0.950 1_565 S
H897 C921 0.950 . S
H898 C922 0.950 . S
H899 C923 0.951 . S
H900 C925 0.951 . S
H901 C927 0.950 . S
H902 C928 0.950 . S
H903 C930 0.950 . S
H904 C933 0.950 . S
H905 C934 0.950 . S
H906 C936 0.950 . S
H907 C937 0.950 . S
C908 H890 0.951 . S
C908 C909 1.366 . S
C908 C910 1.388 . S
C909 C908 1.366 . S
C909 C913 1.385 . S
C910 H891 0.951 . S
C910 C908 1.388 . S
C910 C911 1.366 . S
C911 C910 1.366 . S
C911 C912 1.414 . S
C911 C914 1.499 . S
C912 H892 0.950 . S
C912 C911 1.414 . S
C912 C913 1.374 . S
C913 H893 0.950 . S
C913 C909 1.385 . S
C913 C912 1.374 . S
C914 C911 1.499 . S
C914 C915 1.373 . S
C914 C916 1.389 1_565 S
C915 H894 0.950 . S
C915 C914 1.373 . S
C915 C931 1.377 1_565 S
C916 C914 1.389 1_545 S
C916 C917 1.524 . S
C916 C930 1.377 . S
C917 C916 1.524 . S
C917 C918 1.397 . S
C917 C922 1.363 . S
C918 H895 0.950 1_545 S
C918 C917 1.397 . S
C918 C919 1.334 . S
C919 H896 0.950 1_545 S
C919 C918 1.334 . S
C919 C920 1.287 . S
C920 C919 1.287 . S
C920 C921 1.524 . S
C920 H939 0.913 . S
C921 H897 0.950 . S
C921 C920 1.524 . S
C921 C922 1.415 . S
C922 H898 0.950 . S
C922 C917 1.363 . S
C922 C921 1.415 . S
C923 H899 0.951 . S
C923 C924 1.366 . S
C923 C925 1.388 . S
C924 C923 1.366 . S
C924 C928 1.385 . S
C925 H900 0.951 . S
C925 C923 1.388 . S
C925 C926 1.366 . S
C926 C925 1.366 . S
C926 C927 1.414 . S
C926 C929 1.499 . S
C927 H901 0.950 . S
C927 C926 1.414 . S
C927 C928 1.374 . S
C928 H902 0.950 . S
C928 C924 1.385 . S
C928 C927 1.374 . S
C929 C926 1.499 . S
C929 C930 1.373 . S
C929 C931 1.389 . S
C930 H903 0.950 . S
C930 C916 1.377 . S
C930 C929 1.373 . S
C931 C915 1.377 1_545 S
C931 C929 1.389 . S
C931 C932 1.531 . S
C932 C931 1.531 . S
C932 C933 1.416 . S
C932 C937 1.336 1_545 S
C933 H904 0.950 . S
C933 C932 1.416 . S
C933 C934 1.334 . S
C934 H905 0.950 . S
C934 C933 1.334 . S
C934 C935 1.287 1_545 S
C935 C934 1.287 1_565 S
C935 C936 1.524 . S
C935 H938 0.999 . S
C936 H906 0.950 . S
C936 C935 1.524 . S
C936 C937 1.415 . S
C937 H907 0.950 . S
C937 C932 1.336 1_565 S
C937 C936 1.415 . S
H938 C935 0.999 . S
H939 C920 0.913 . S
H940 C958 0.951 . S
H941 C960 0.951 . S
H942 C962 0.950 . S
H943 C963 0.950 . S
H944 C965 0.950 . S
H945 C968 0.950 . S
H946 C969 0.950 . S
H947 C971 0.950 . S
H948 C972 0.950 . S
H949 C973 0.951 . S
H950 C975 0.951 . S
H951 C977 0.950 . S
H952 C978 0.950 . S
H953 C980 0.950 . S
H954 C983 0.950 . S
H955 C984 0.950 . S
H956 C986 0.950 . S
H957 C987 0.950 . S
C958 H940 0.951 . S
C958 C959 1.366 . S
C958 C960 1.388 . S
C959 C958 1.366 . S
C959 C963 1.385 . S
C960 H941 0.951 . S
C960 C958 1.388 . S
C960 C961 1.366 . S
C961 C960 1.366 . S
C961 C962 1.414 . S
C961 C964 1.499 . S
C962 H942 0.950 . S
C962 C961 1.414 . S
C962 C963 1.374 . S
C963 H943 0.950 . S
C963 C959 1.385 . S
C963 C962 1.374 . S
C964 C961 1.499 . S
C964 C965 1.373 . S
C964 C966 1.389 . S
C965 H944 0.950 . S
C965 C964 1.373 . S
C965 C981 1.377 . S
C966 C964 1.389 . S
C966 C967 1.524 . S
C966 C980 1.377 . S
C967 C966 1.524 . S
C967 C968 1.397 . S
C967 C972 1.363 . S
C968 H945 0.950 . S
C968 C967 1.397 . S
C968 C969 1.334 . S
C969 H946 0.950 . S
C969 C968 1.334 . S
C969 C970 1.287 . S
C970 C969 1.287 . S
C970 C971 1.524 . S
C970 H989 0.913 . S
C971 H947 0.950 . S
C971 C970 1.524 . S
C971 C972 1.415 . S
C972 H948 0.950 . S
C972 C967 1.363 . S
C972 C971 1.415 . S
C973 H949 0.951 . S
C973 C974 1.366 . S
C973 C975 1.388 . S
C974 C973 1.366 . S
C974 C978 1.385 . S
C975 H950 0.951 . S
C975 C973 1.388 . S
C975 C976 1.366 . S
C976 C975 1.366 . S
C976 C977 1.414 . S
C976 C979 1.499 . S
C977 H951 0.950 . S
C977 C976 1.414 . S
C977 C978 1.374 . S
C978 H952 0.950 . S
C978 C974 1.385 . S
C978 C977 1.374 . S
C979 C976 1.499 . S
C979 C980 1.373 . S
C979 C981 1.389 . S
C980 H953 0.950 . S
C980 C966 1.377 . S
C980 C979 1.373 . S
C981 C965 1.377 . S
C981 C979 1.389 . S
C981 C982 1.524 . S
C982 C981 1.524 . S
C982 C983 1.397 . S
C982 C987 1.363 . S
C983 H954 0.950 . S
C983 C982 1.397 . S
C983 C984 1.334 . S
C984 H955 0.950 . S
C984 C983 1.334 . S
C984 C985 1.287 . S
C985 C984 1.287 . S
C985 C986 1.524 . S
C985 H988 0.999 . S
C986 H956 0.950 . S
C986 C985 1.524 . S
C986 C987 1.415 . S
C987 H957 0.950 . S
C987 C982 1.363 . S
C987 C986 1.415 . S
H988 C985 0.999 . S
H989 C970 0.913 . S
H990 C1008 0.951 . S
H991 C1010 0.951 . S
H992 C1012 0.950 . S
H993 C1013 0.950 . S
H994 C1015 0.950 . S
H995 C1018 0.950 . S
H996 C1019 0.950 . S
H997 C1021 0.950 . S
H998 C1022 0.950 . S
H999 C1023 0.951 1_556 S
H1000 C1025 0.951 . S
H1001 C1027 0.950 . S
H1002 C1028 0.950 . S
H1003 C1030 0.950 1_545 S
H1004 C1033 0.950 . S
H1005 C1034 0.950 . S
H1006 C1036 0.950 . S
H1007 C1037 0.981 . S
C1008 H990 0.951 . S
C1008 C1009 1.366 . S
C1008 C1010 1.388 . S
C1009 C1008 1.366 . S
C1009 C1013 1.385 . S
C1010 H991 0.951 . S
C1010 C1008 1.388 . S
C1010 C1011 1.366 . S
C1011 C1010 1.366 . S
C1011 C1012 1.414 . S
C1011 C1014 1.499 . S
C1012 H992 0.950 . S
C1012 C1011 1.414 . S
C1012 C1013 1.374 . S
C1013 H993 0.950 . S
C1013 C1009 1.385 . S
C1013 C1012 1.374 . S
C1014 C1011 1.499 . S
C1014 C1015 1.373 . S
C1014 C1016 1.389 . S
C1015 H994 0.950 . S
C1015 C1014 1.373 . S
C1015 C1031 1.363 1_565 S
C1016 C1014 1.389 . S
C1016 C1017 1.524 . S
C1016 C1030 1.377 . S
C1017 C1016 1.524 . S
C1017 C1018 1.397 . S
C1017 C1022 1.363 . S
C1018 H995 0.950 . S
C1018 C1017 1.397 . S
C1018 C1019 1.334 . S
C1019 H996 0.950 . S
C1019 C1018 1.334 . S
C1019 C1020 1.287 . S
C1020 C1019 1.287 . S
C1020 C1021 1.524 . S
C1020 H1039 0.913 . S
C1021 H997 0.950 . S
C1021 C1020 1.524 . S
C1021 C1022 1.415 . S
C1022 H998 0.950 . S
C1022 C1017 1.363 . S
C1022 C1021 1.415 . S
C1023 H999 0.951 1_554 S
C1023 C1024 1.366 . S
C1023 C1025 1.388 . S
C1024 C1023 1.366 . S
C1024 C1028 1.385 . S
C1025 H1000 0.951 . S
C1025 C1023 1.388 . S
C1025 C1026 1.366 . S
C1026 C1025 1.366 . S
C1026 C1027 1.414 . S
C1026 C1029 1.499 . S
C1027 H1001 0.950 . S
C1027 C1026 1.414 . S
C1027 C1028 1.374 . S
C1028 H1002 0.950 . S
C1028 C1024 1.385 . S
C1028 C1027 1.374 . S
C1029 C1026 1.499 . S
C1029 C1030 1.373 1_545 S
C1029 C1031 1.395 . S
C1030 H1003 0.950 1_565 S
C1030 C1016 1.377 . S
C1030 C1029 1.373 1_565 S
C1031 C1015 1.363 1_545 S
C1031 C1029 1.395 . S
C1031 C1032 1.532 . S
C1032 C1031 1.532 . S
C1032 C1033 1.397 . S
C1032 C1037 1.346 1_545 S
C1033 H1004 0.950 . S
C1033 C1032 1.397 . S
C1033 C1034 1.334 . S
C1034 H1005 0.950 . S
C1034 C1033 1.334 . S
C1034 C1035 1.287 . S
C1035 C1034 1.287 . S
C1035 C1036 1.524 . S
C1035 H1038 0.999 . S
C1036 H1006 0.950 . S
C1036 C1035 1.524 . S
C1036 C1037 1.402 1_545 S
C1037 H1007 0.981 . S
C1037 C1032 1.346 1_565 S
C1037 C1036 1.402 1_565 S
H1038 C1035 0.999 . S
H1039 C1020 0.913 . S
H1040 C1058 0.951 . S
H1041 C1060 0.951 . S
H1042 C1062 0.950 . S
H1043 C1063 0.950 . S
H1044 C1065 0.950 . S
H1045 C1068 0.950 . S
H1046 C1069 0.950 . S
H1047 C1071 0.950 . S
H1048 C1072 0.950 . S
H1049 C1073 0.951 . S
H1050 C1075 0.951 . S
H1051 C1077 0.950 . S
H1052 C1078 0.950 . S
H1053 C1080 0.950 . S
H1054 C1083 0.950 . S
H1055 C1084 0.950 . S
H1056 C1086 0.950 . S
H1057 C1087 0.950 . S
C1058 H1040 0.951 . S
C1058 C1059 1.366 . S
C1058 C1060 1.388 . S
C1059 C1058 1.366 . S
C1059 C1063 1.385 . S
C1060 H1041 0.951 . S
C1060 C1058 1.388 . S
C1060 C1061 1.366 . S
C1061 C1060 1.366 . S
C1061 C1062 1.414 . S
C1061 C1064 1.499 . S
C1062 H1042 0.950 . S
C1062 C1061 1.414 . S
C1062 C1063 1.374 . S
C1063 H1043 0.950 . S
C1063 C1059 1.385 . S
C1063 C1062 1.374 . S
C1064 C1061 1.499 . S
C1064 C1065 1.373 . S
C1064 C1066 1.389 . S
C1065 H1044 0.950 . S
C1065 C1064 1.373 . S
C1065 C1081 1.377 . S
C1066 C1064 1.389 . S
C1066 C1067 1.524 . S
C1066 C1080 1.377 . S
C1067 C1066 1.524 . S
C1067 C1068 1.397 . S
C1067 C1072 1.363 . S
C1068 H1045 0.950 . S
C1068 C1067 1.397 . S
C1068 C1069 1.334 . S
C1069 H1046 0.950 . S
C1069 C1068 1.334 . S
C1069 C1070 1.287 . S
C1070 C1069 1.287 . S
C1070 C1071 1.524 . S
C1070 H1089 0.913 . S
C1071 H1047 0.950 . S
C1071 C1070 1.524 . S
C1071 C1072 1.415 . S
C1072 H1048 0.950 . S
C1072 C1067 1.363 . S
C1072 C1071 1.415 . S
C1073 H1049 0.951 . S
C1073 C1074 1.366 . S
C1073 C1075 1.388 . S
C1074 C1073 1.366 . S
C1074 C1078 1.385 . S
C1075 H1050 0.951 . S
C1075 C1073 1.388 . S
C1075 C1076 1.366 . S
C1076 C1075 1.366 . S
C1076 C1077 1.414 . S
C1076 C1079 1.499 . S
C1077 H1051 0.950 . S
C1077 C1076 1.414 . S
C1077 C1078 1.374 . S
C1078 H1052 0.950 . S
C1078 C1074 1.385 . S
C1078 C1077 1.374 . S
C1079 C1076 1.499 . S
C1079 C1080 1.373 . S
C1079 C1081 1.389 . S
C1080 H1053 0.950 . S
C1080 C1066 1.377 . S
C1080 C1079 1.373 . S
C1081 C1065 1.377 . S
C1081 C1079 1.389 . S
C1081 C1082 1.524 . S
C1082 C1081 1.524 . S
C1082 C1083 1.397 . S
C1082 C1087 1.363 . S
C1083 H1054 0.950 . S
C1083 C1082 1.397 . S
C1083 C1084 1.334 . S
C1084 H1055 0.950 . S
C1084 C1083 1.334 . S
C1084 C1085 1.287 . S
C1085 C1084 1.287 . S
C1085 C1086 1.524 . S
C1085 H1088 0.999 . S
C1086 H1056 0.950 . S
C1086 C1085 1.524 . S
C1086 C1087 1.415 . S
C1087 H1057 0.950 . S
C1087 C1082 1.363 . S
C1087 C1086 1.415 . S
H1088 C1085 0.999 . S
H1089 C1070 0.913 . S
H1090 C1108 0.951 . S
H1091 C1110 0.951 . S
H1092 C1112 0.950 . S
H1093 C1113 0.950 . S
H1094 C1115 0.950 . S
H1095 C1118 0.950 1_545 S
H1096 C1119 0.950 1_545 S
H1097 C1121 0.950 . S
H1098 C1122 0.950 . S
H1099 C1123 0.951 . S
H1100 C1125 0.951 . S
H1101 C1127 0.950 . S
H1102 C1128 0.950 . S
H1103 C1130 0.950 . S
H1104 C1133 0.950 . S
H1105 C1134 0.950 . S
H1106 C1136 0.950 . S
H1107 C1137 0.950 . S
C1108 H1090 0.951 . S
C1108 C1109 1.366 . S
C1108 C1110 1.388 . S
C1109 C1108 1.366 . S
C1109 C1113 1.385 . S
C1110 H1091 0.951 . S
C1110 C1108 1.388 . S
C1110 C1111 1.366 . S
C1111 C1110 1.366 . S
C1111 C1112 1.414 . S
C1111 C1114 1.499 . S
C1112 H1092 0.950 . S
C1112 C1111 1.414 . S
C1112 C1113 1.374 . S
C1113 H1093 0.950 . S
C1113 C1109 1.385 . S
C1113 C1112 1.374 . S
C1114 C1111 1.499 . S
C1114 C1115 1.373 . S
C1114 C1116 1.389 1_545 S
C1115 H1094 0.950 . S
C1115 C1114 1.373 . S
C1115 C1131 1.377 1_545 S
C1116 C1114 1.389 1_565 S
C1116 C1117 1.524 . S
C1116 C1130 1.377 . S
C1117 C1116 1.524 . S
C1117 C1118 1.397 . S
C1117 C1122 1.363 . S
C1118 H1095 0.950 1_565 S
C1118 C1117 1.397 . S
C1118 C1119 1.334 . S
C1119 H1096 0.950 1_565 S
C1119 C1118 1.334 . S
C1119 C1120 1.287 . S
C1120 C1119 1.287 . S
C1120 C1121 1.524 . S
C1120 H1139 0.913 . S
C1121 H1097 0.950 . S
C1121 C1120 1.524 . S
C1121 C1122 1.415 . S
C1122 H1098 0.950 . S
C1122 C1117 1.363 . S
C1122 C1121 1.415 . S
C1123 H1099 0.951 . S
C1123 C1124 1.366 . S
C1123 C1125 1.388 . S
C1124 C1123 1.366 . S
C1124 C1128 1.385 . S
C1125 H1100 0.951 . S
C1125 C1123 1.388 . S
C1125 C1126 1.366 . S
C1126 C1125 1.366 . S
C1126 C1127 1.414 . S
C1126 C1129 1.499 . S
C1127 H1101 0.950 . S
C1127 C1126 1.414 . S
C1127 C1128 1.374 . S
C1128 H1102 0.950 . S
C1128 C1124 1.385 . S
C1128 C1127 1.374 . S
C1129 C1126 1.499 . S
C1129 C1130 1.373 . S
C1129 C1131 1.389 . S
C1130 H1103 0.950 . S
C1130 C1116 1.377 . S
C1130 C1129 1.373 . S
C1131 C1115 1.377 1_565 S
C1131 C1129 1.389 . S
C1131 C1132 1.524 . S
C1132 C1131 1.524 . S
C1132 C1133 1.397 . S
C1132 C1137 1.363 1_565 S
C1133 H1104 0.950 . S
C1133 C1132 1.397 . S
C1133 C1134 1.334 . S
C1134 H1105 0.950 . S
C1134 C1133 1.334 . S
C1134 C1135 1.287 1_565 S
C1135 C1134 1.287 1_545 S
C1135 C1136 1.524 . S
C1135 H1138 0.999 . S
C1136 H1106 0.950 . S
C1136 C1135 1.524 . S
C1136 C1137 1.415 . S
C1137 H1107 0.950 . S
C1137 C1132 1.363 1_545 S
C1137 C1136 1.415 . S
H1138 C1135 0.999 . S
H1139 C1120 0.913 . S
H1140 C1158 0.951 . S
H1141 C1160 0.951 . S
H1142 C1162 0.950 . S
H1143 C1163 0.950 . S
H1144 C1165 0.950 . S
H1145 C1168 0.950 . S
H1146 C1169 0.950 . S
H1147 C1171 0.950 . S
H1148 C1172 0.950 . S
H1149 C1173 0.951 . S
H1150 C1175 0.951 . S
H1151 C1177 0.950 . S
H1152 C1178 0.950 . S
H1153 C1180 0.950 . S
H1154 C1183 0.950 . S
H1155 C1184 0.950 . S
H1156 C1186 0.950 . S
H1157 C1187 0.950 . S
C1158 H1140 0.951 . S
C1158 C1159 1.366 . S
C1158 C1160 1.388 . S
C1159 C1158 1.366 . S
C1159 C1163 1.385 . S
C1160 H1141 0.951 . S
C1160 C1158 1.388 . S
C1160 C1161 1.366 . S
C1161 C1160 1.366 . S
C1161 C1162 1.414 . S
C1161 C1164 1.499 . S
C1162 H1142 0.950 . S
C1162 C1161 1.414 . S
C1162 C1163 1.374 . S
C1163 H1143 0.950 . S
C1163 C1159 1.385 . S
C1163 C1162 1.374 . S
C1164 C1161 1.499 . S
C1164 C1165 1.373 . S
C1164 C1166 1.389 . S
C1165 H1144 0.950 . S
C1165 C1164 1.373 . S
C1165 C1181 1.377 . S
C1166 C1164 1.389 . S
C1166 C1167 1.524 . S
C1166 C1180 1.377 . S
C1167 C1166 1.524 . S
C1167 C1168 1.397 . S
C1167 C1172 1.363 . S
C1168 H1145 0.950 . S
C1168 C1167 1.397 . S
C1168 C1169 1.334 . S
C1169 H1146 0.950 . S
C1169 C1168 1.334 . S
C1169 C1170 1.287 . S
C1170 C1169 1.287 . S
C1170 C1171 1.524 . S
C1170 H1189 0.913 . S
C1171 H1147 0.950 . S
C1171 C1170 1.524 . S
C1171 C1172 1.415 . S
C1172 H1148 0.950 . S
C1172 C1167 1.363 . S
C1172 C1171 1.415 . S
C1173 H1149 0.951 . S
C1173 C1174 1.366 . S
C1173 C1175 1.388 . S
C1174 C1173 1.366 . S
C1174 C1178 1.385 . S
C1175 H1150 0.951 . S
C1175 C1173 1.388 . S
C1175 C1176 1.366 . S
C1176 C1175 1.366 . S
C1176 C1177 1.414 . S
C1176 C1179 1.499 . S
C1177 H1151 0.950 . S
C1177 C1176 1.414 . S
C1177 C1178 1.374 . S
C1178 H1152 0.950 . S
C1178 C1174 1.385 . S
C1178 C1177 1.374 . S
C1179 C1176 1.499 . S
C1179 C1180 1.373 . S
C1179 C1181 1.389 . S
C1180 H1153 0.950 . S
C1180 C1166 1.377 . S
C1180 C1179 1.373 . S
C1181 C1165 1.377 . S
C1181 C1179 1.389 . S
C1181 C1182 1.524 . S
C1182 C1181 1.524 . S
C1182 C1183 1.397 . S
C1182 C1187 1.363 . S
C1183 H1154 0.950 . S
C1183 C1182 1.397 . S
C1183 C1184 1.334 . S
C1184 H1155 0.950 . S
C1184 C1183 1.334 . S
C1184 C1185 1.287 . S
C1185 C1184 1.287 . S
C1185 C1186 1.524 . S
C1185 H1188 0.999 . S
C1186 H1156 0.950 . S
C1186 C1185 1.524 . S
C1186 C1187 1.415 . S
C1187 H1157 0.950 . S
C1187 C1182 1.363 . S
C1187 C1186 1.415 . S
H1188 C1185 0.999 . S
H1189 C1170 0.913 . S
H1190 C1208 0.951 1_556 S
H1191 C1210 0.951 . S
H1192 C1212 0.950 . S
H1193 C1213 0.950 . S
H1194 C1215 0.945 1_565 S
H1195 C1218 0.950 . S
H1196 C1219 0.950 . S
H1197 C1221 0.950 . S
H1198 C1222 0.950 1_545 S
H1199 C1223 0.951 . S
H1200 C1225 0.951 . S
H1201 C1227 0.950 . S
H1202 C1228 0.950 . S
H1203 C1230 0.950 . S
H1204 C1233 0.950 . S
H1205 C1234 0.950 . S
H1206 C1236 0.950 . S
H1207 C1237 0.950 . S
C1208 H1190 0.951 1_554 S
C1208 C1209 1.366 . S
C1208 C1210 1.388 . S
C1209 C1208 1.366 . S
C1209 C1213 1.385 . S
C1210 H1191 0.951 . S
C1210 C1208 1.388 . S
C1210 C1211 1.366 . S
C1211 C1210 1.366 . S
C1211 C1212 1.414 . S
C1211 C1214 1.499 . S
C1212 H1192 0.950 . S
C1212 C1211 1.414 . S
C1212 C1213 1.374 . S
C1213 H1193 0.950 . S
C1213 C1209 1.385 . S
C1213 C1212 1.374 . S
C1214 C1211 1.499 . S
C1214 C1215 1.373 1_565 S
C1214 C1216 1.389 . S
C1215 H1194 0.945 1_545 S
C1215 C1214 1.373 1_545 S
C1215 C1231 1.377 . S
C1216 C1214 1.389 . S
C1216 C1217 1.524 . S
C1216 C1230 1.377 1_565 S
C1217 C1216 1.524 . S
C1217 C1218 1.397 . S
C1217 C1222 1.363 . S
C1218 H1195 0.950 . S
C1218 C1217 1.397 . S
C1218 C1219 1.334 . S
C1219 H1196 0.950 . S
C1219 C1218 1.334 . S
C1219 C1220 1.287 . S
C1220 C1219 1.287 . S
C1220 C1221 1.524 . S
C1220 H1239 0.913 . S
C1221 H1197 0.950 . S
C1221 C1220 1.524 . S
C1221 C1222 1.415 . S
C1222 H1198 0.950 1_565 S
C1222 C1217 1.363 . S
C1222 C1221 1.415 . S
C1223 H1199 0.951 . S
C1223 C1224 1.366 . S
C1223 C1225 1.388 . S
C1224 C1223 1.366 . S
C1224 C1228 1.385 . S
C1225 H1200 0.951 . S
C1225 C1223 1.388 . S
C1225 C1226 1.366 . S
C1226 C1225 1.366 . S
C1226 C1227 1.414 . S
C1226 C1229 1.499 . S
C1227 H1201 0.950 . S
C1227 C1226 1.414 . S
C1227 C1228 1.374 . S
C1228 H1202 0.950 . S
C1228 C1224 1.385 . S
C1228 C1227 1.374 . S
C1229 C1226 1.499 . S
C1229 C1230 1.373 . S
C1229 C1231 1.389 . S
C1230 H1203 0.950 . S
C1230 C1216 1.377 1_545 S
C1230 C1229 1.373 . S
C1231 C1215 1.377 . S
C1231 C1229 1.389 . S
C1231 C1232 1.524 . S
C1232 C1231 1.524 . S
C1232 C1233 1.397 . S
C1232 C1237 1.363 . S
C1233 H1204 0.950 . S
C1233 C1232 1.397 . S
C1233 C1234 1.334 . S
C1234 H1205 0.950 . S
C1234 C1233 1.334 . S
C1234 C1235 1.287 . S
C1235 C1234 1.287 . S
C1235 C1236 1.524 . S
C1235 H1238 0.999 . S
C1236 H1206 0.950 . S
C1236 C1235 1.524 . S
C1236 C1237 1.415 . S
C1237 H1207 0.950 . S
C1237 C1232 1.363 . S
C1237 C1236 1.415 . S
H1238 C1235 0.999 . S
H1239 C1220 0.913 . S
H1240 C1258 0.951 . S
H1241 C1260 0.951 . S
H1242 C1262 0.950 . S
H1243 C1263 0.950 . S
H1244 C1265 0.950 . S
H1245 C1268 0.950 . S
H1246 C1269 0.950 . S
H1247 C1271 0.950 . S
H1248 C1272 0.950 . S
H1249 C1273 0.951 . S
H1250 C1275 0.951 . S
H1251 C1277 0.950 . S
H1252 C1278 0.950 . S
H1253 C1280 0.950 . S
H1254 C1283 0.950 . S
H1255 C1284 0.950 . S
H1256 C1286 0.950 . S
H1257 C1287 0.950 . S
C1258 H1240 0.951 . S
C1258 C1259 1.366 . S
C1258 C1260 1.388 . S
C1259 C1258 1.366 . S
C1259 C1263 1.385 . S
C1260 H1241 0.951 . S
C1260 C1258 1.388 . S
C1260 C1261 1.366 . S
C1261 C1260 1.366 . S
C1261 C1262 1.414 . S
C1261 C1264 1.499 . S
C1262 H1242 0.950 . S
C1262 C1261 1.414 . S
C1262 C1263 1.374 . S
C1263 H1243 0.950 . S
C1263 C1259 1.385 . S
C1263 C1262 1.374 . S
C1264 C1261 1.499 . S
C1264 C1265 1.373 . S
C1264 C1266 1.389 . S
C1265 H1244 0.950 . S
C1265 C1264 1.373 . S
C1265 C1281 1.377 . S
C1266 C1264 1.389 . S
C1266 C1267 1.524 . S
C1266 C1280 1.377 . S
C1267 C1266 1.524 . S
C1267 C1268 1.397 . S
C1267 C1272 1.363 . S
C1268 H1245 0.950 . S
C1268 C1267 1.397 . S
C1268 C1269 1.334 . S
C1269 H1246 0.950 . S
C1269 C1268 1.334 . S
C1269 C1270 1.287 . S
C1270 C1269 1.287 . S
C1270 C1271 1.524 . S
C1270 H1289 0.913 . S
C1271 H1247 0.950 . S
C1271 C1270 1.524 . S
C1271 C1272 1.415 . S
C1272 H1248 0.950 . S
C1272 C1267 1.363 . S
C1272 C1271 1.415 . S
C1273 H1249 0.951 . S
C1273 C1274 1.366 . S
C1273 C1275 1.388 . S
C1274 C1273 1.366 . S
C1274 C1278 1.385 . S
C1275 H1250 0.951 . S
C1275 C1273 1.388 . S
C1275 C1276 1.366 . S
C1276 C1275 1.366 . S
C1276 C1277 1.414 . S
C1276 C1279 1.499 . S
C1277 H1251 0.950 . S
C1277 C1276 1.414 . S
C1277 C1278 1.374 . S
C1278 H1252 0.950 . S
C1278 C1274 1.385 . S
C1278 C1277 1.374 . S
C1279 C1276 1.499 . S
C1279 C1280 1.373 . S
C1279 C1281 1.389 . S
C1280 H1253 0.950 . S
C1280 C1266 1.377 . S
C1280 C1279 1.373 . S
C1281 C1265 1.377 . S
C1281 C1279 1.389 . S
C1281 C1282 1.524 . S
C1282 C1281 1.524 . S
C1282 C1283 1.397 . S
C1282 C1287 1.363 . S
C1283 H1254 0.950 . S
C1283 C1282 1.397 . S
C1283 C1284 1.334 . S
C1284 H1255 0.950 . S
C1284 C1283 1.334 . S
C1284 C1285 1.287 . S
C1285 C1284 1.287 . S
C1285 C1286 1.524 . S
C1285 H1288 0.999 . S
C1286 H1256 0.950 . S
C1286 C1285 1.524 . S
C1286 C1287 1.415 . S
C1287 H1257 0.950 . S
C1287 C1282 1.363 . S
C1287 C1286 1.415 . S
H1288 C1285 0.999 . S
H1289 C1270 0.913 . S
H1290 C1308 0.951 . S
H1291 C1310 0.951 . S
H1292 C1312 0.950 . S
H1293 C1313 0.950 . S
H1294 C1315 0.950 . S
H1295 C1318 0.950 . S
H1296 C1319 0.950 . S
H1297 C1321 0.950 . S
H1298 C1322 0.950 . S
H1299 C1323 0.951 . S
H1300 C1325 0.951 . S
H1301 C1327 0.950 . S
H1302 C1328 0.950 . S
H1303 C1330 0.950 . S
H1304 C1333 0.950 . S
H1305 C1334 0.950 . S
H1306 C1336 0.950 . S
H1307 C1337 0.950 . S
C1308 H1290 0.951 . S
C1308 C1309 1.366 . S
C1308 C1310 1.388 . S
C1309 C1308 1.366 . S
C1309 C1313 1.385 . S
C1310 H1291 0.951 . S
C1310 C1308 1.388 . S
C1310 C1311 1.366 . S
C1311 C1310 1.366 . S
C1311 C1312 1.414 . S
C1311 C1314 1.499 . S
C1312 H1292 0.950 . S
C1312 C1311 1.414 . S
C1312 C1313 1.374 . S
C1313 H1293 0.950 . S
C1313 C1309 1.385 . S
C1313 C1312 1.374 . S
C1314 C1311 1.499 . S
C1314 C1315 1.373 . S
C1314 C1316 1.389 1_545 S
C1315 H1294 0.950 . S
C1315 C1314 1.373 . S
C1315 C1331 1.377 1_545 S
C1316 C1314 1.389 1_565 S
C1316 C1317 1.524 . S
C1316 C1330 1.377 . S
C1317 C1316 1.524 . S
C1317 C1318 1.397 1_565 S
C1317 C1322 1.363 . S
C1318 H1295 0.950 . S
C1318 C1317 1.397 1_545 S
C1318 C1319 1.334 . S
C1319 H1296 0.950 . S
C1319 C1318 1.334 . S
C1319 C1320 1.287 1_545 S
C1320 C1319 1.287 1_565 S
C1320 C1321 1.524 . S
C1320 H1339 0.913 . S
C1321 H1297 0.950 . S
C1321 C1320 1.524 . S
C1321 C1322 1.415 . S
C1322 H1298 0.950 . S
C1322 C1317 1.363 . S
C1322 C1321 1.415 . S
C1323 H1299 0.951 . S
C1323 C1324 1.366 . S
C1323 C1325 1.388 . S
C1324 C1323 1.366 . S
C1324 C1328 1.385 . S
C1325 H1300 0.951 . S
C1325 C1323 1.388 . S
C1325 C1326 1.366 . S
C1326 C1325 1.366 . S
C1326 C1327 1.414 . S
C1326 C1329 1.499 . S
C1327 H1301 0.950 . S
C1327 C1326 1.414 . S
C1327 C1328 1.374 . S
C1328 H1302 0.950 . S
C1328 C1324 1.385 . S
C1328 C1327 1.374 . S
C1329 C1326 1.499 . S
C1329 C1330 1.373 . S
C1329 C1331 1.389 . S
C1330 H1303 0.950 . S
C1330 C1316 1.377 . S
C1330 C1329 1.373 . S
C1331 C1315 1.377 1_565 S
C1331 C1329 1.389 . S
C1331 C1332 1.524 . S
C1332 C1331 1.524 . S
C1332 C1333 1.397 . S
C1332 C1337 1.363 1_565 S
C1333 H1304 0.950 . S
C1333 C1332 1.397 . S
C1333 C1334 1.334 . S
C1334 H1305 0.950 . S
C1334 C1333 1.334 . S
C1334 C1335 1.287 . S
C1335 C1334 1.287 . S
C1335 C1336 1.524 1_565 S
C1335 H1338 0.999 . S
C1336 H1306 0.950 . S
C1336 C1335 1.524 1_545 S
C1336 C1337 1.415 . S
C1337 H1307 0.950 . S
C1337 C1332 1.363 1_545 S
C1337 C1336 1.415 . S
H1338 C1335 0.999 . S
H1339 C1320 0.913 . S
H1340 C1358 0.951 . S
H1341 C1360 0.951 . S
H1342 C1362 0.950 . S
H1343 C1363 0.950 . S
H1344 C1365 0.950 . S
H1345 C1368 0.950 . S
H1346 C1369 0.950 . S
H1347 C1371 0.950 . S
H1348 C1372 0.950 . S
H1349 C1373 0.951 . S
H1350 C1375 0.951 . S
H1351 C1377 0.950 . S
H1352 C1378 0.950 . S
H1353 C1380 0.950 . S
H1354 C1383 0.950 . S
H1355 C1384 0.950 . S
H1356 C1386 0.950 . S
H1357 C1387 0.950 . S
C1358 H1340 0.951 . S
C1358 C1359 1.366 . S
C1358 C1360 1.388 . S
C1359 C1358 1.366 . S
C1359 C1363 1.385 . S
C1360 H1341 0.951 . S
C1360 C1358 1.388 . S
C1360 C1361 1.366 . S
C1361 C1360 1.366 . S
C1361 C1362 1.414 . S
C1361 C1364 1.499 . S
C1362 H1342 0.950 . S
C1362 C1361 1.414 . S
C1362 C1363 1.374 . S
C1363 H1343 0.950 . S
C1363 C1359 1.385 . S
C1363 C1362 1.374 . S
C1364 C1361 1.499 . S
C1364 C1365 1.373 . S
C1364 C1366 1.389 . S
C1365 H1344 0.950 . S
C1365 C1364 1.373 . S
C1365 C1381 1.377 . S
C1366 C1364 1.389 . S
C1366 C1367 1.524 . S
C1366 C1380 1.377 . S
C1367 C1366 1.524 . S
C1367 C1368 1.397 . S
C1367 C1372 1.363 . S
C1368 H1345 0.950 . S
C1368 C1367 1.397 . S
C1368 C1369 1.334 . S
C1369 H1346 0.950 . S
C1369 C1368 1.334 . S
C1369 C1370 1.287 . S
C1370 C1369 1.287 . S
C1370 C1371 1.524 . S
C1370 H1389 0.913 . S
C1371 H1347 0.950 . S
C1371 C1370 1.524 . S
C1371 C1372 1.415 . S
C1372 H1348 0.950 . S
C1372 C1367 1.363 . S
C1372 C1371 1.415 . S
C1373 H1349 0.951 . S
C1373 C1374 1.366 . S
C1373 C1375 1.388 . S
C1374 C1373 1.366 . S
C1374 C1378 1.385 . S
C1375 H1350 0.951 . S
C1375 C1373 1.388 . S
C1375 C1376 1.366 . S
C1376 C1375 1.366 . S
C1376 C1377 1.414 . S
C1376 C1379 1.499 . S
C1377 H1351 0.950 . S
C1377 C1376 1.414 . S
C1377 C1378 1.374 . S
C1378 H1352 0.950 . S
C1378 C1374 1.385 . S
C1378 C1377 1.374 . S
C1379 C1376 1.499 . S
C1379 C1380 1.373 . S
C1379 C1381 1.389 . S
C1380 H1353 0.950 . S
C1380 C1366 1.377 . S
C1380 C1379 1.373 . S
C1381 C1365 1.377 . S
C1381 C1379 1.389 . S
C1381 C1382 1.524 . S
C1382 C1381 1.524 . S
C1382 C1383 1.397 . S
C1382 C1387 1.363 . S
C1383 H1354 0.950 . S
C1383 C1382 1.397 . S
C1383 C1384 1.334 . S
C1384 H1355 0.950 . S
C1384 C1383 1.334 . S
C1384 C1385 1.287 . S
C1385 C1384 1.287 . S
C1385 C1386 1.524 . S
C1385 H1388 0.999 . S
C1386 H1356 0.950 . S
C1386 C1385 1.524 . S
C1386 C1387 1.415 . S
C1387 H1357 0.950 . S
C1387 C1382 1.363 . S
C1387 C1386 1.415 . S
H1388 C1385 0.999 . S
H1389 C1370 0.913 . S
H1390 C1408 0.951 . S
H1391 C1410 0.951 . S
H1392 C1412 0.950 . S
H1393 C1413 0.950 . S
H1394 C1415 0.950 . S
H1395 C1418 0.950 . S
H1396 C1419 0.950 . S
H1397 C1421 0.950 . S
H1398 C1422 0.950 . S
H1399 C1423 0.951 . S
H1400 C1425 0.951 . S
H1401 C1427 0.950 . S
H1402 C1428 0.999 . S
H1403 C1430 0.950 1_565 S
H1404 C1433 0.950 1_545 S
H1405 C1434 0.950 . S
H1406 C1436 0.950 . S
H1407 C1437 0.950 . S
C1408 H1390 0.951 . S
C1408 C1409 1.366 . S
C1408 C1410 1.388 . S
C1409 C1408 1.366 . S
C1409 C1413 1.385 . S
C1410 H1391 0.951 . S
C1410 C1408 1.388 . S
C1410 C1411 1.366 . S
C1411 C1410 1.366 . S
C1411 C1412 1.414 . S
C1411 C1414 1.499 . S
C1412 H1392 0.950 . S
C1412 C1411 1.414 . S
C1412 C1413 1.374 . S
C1413 H1393 0.950 . S
C1413 C1409 1.385 . S
C1413 C1412 1.374 . S
C1414 C1411 1.499 . S
C1414 C1415 1.373 . S
C1414 C1416 1.389 . S
C1415 H1394 0.950 . S
C1415 C1414 1.373 . S
C1415 C1431 1.377 . S
C1416 C1414 1.389 . S
C1416 C1417 1.524 . S
C1416 C1430 1.377 . S
C1417 C1416 1.524 . S
C1417 C1418 1.397 . S
C1417 C1422 1.363 . S
C1418 H1395 0.950 . S
C1418 C1417 1.397 . S
C1418 C1419 1.334 . S
C1419 H1396 0.950 . S
C1419 C1418 1.334 . S
C1419 C1420 1.287 . S
C1420 C1419 1.287 . S
C1420 C1421 1.524 . S
C1420 H1439 0.913 . S
C1421 H1397 0.950 . S
C1421 C1420 1.524 . S
C1421 C1422 1.415 . S
C1422 H1398 0.950 . S
C1422 C1417 1.363 . S
C1422 C1421 1.415 . S
C1423 H1399 0.951 . S
C1423 C1424 1.366 . S
C1423 C1425 1.388 . S
C1424 C1423 1.366 . S
C1424 C1428 1.373 1_556 S
C1425 H1400 0.951 . S
C1425 C1423 1.388 . S
C1425 C1426 1.366 . S
C1426 C1425 1.366 . S
C1426 C1427 1.414 . S
C1426 C1429 1.499 . S
C1427 H1401 0.950 . S
C1427 C1426 1.414 . S
C1427 C1428 1.338 1_556 S
C1428 H1402 0.999 . S
C1428 C1424 1.373 1_554 S
C1428 C1427 1.338 1_554 S
C1429 C1426 1.499 . S
C1429 C1430 1.373 1_565 S
C1429 C1431 1.389 1_565 S
C1430 H1403 0.950 1_545 S
C1430 C1416 1.377 . S
C1430 C1429 1.373 1_545 S
C1431 C1415 1.377 . S
C1431 C1429 1.389 1_545 S
C1431 C1432 1.524 1_545 S
C1432 C1431 1.524 1_565 S
C1432 C1433 1.397 . S
C1432 C1437 1.363 . S
C1433 H1404 0.950 1_565 S
C1433 C1432 1.397 . S
C1433 C1434 1.334 . S
C1434 H1405 0.950 . S
C1434 C1433 1.334 . S
C1434 C1435 1.287 . S
C1435 C1434 1.287 . S
C1435 C1436 1.524 . S
C1435 H1438 0.999 . S
C1436 H1406 0.950 . S
C1436 C1435 1.524 . S
C1436 C1437 1.415 . S
C1437 H1407 0.950 . S
C1437 C1432 1.363 . S
C1437 C1436 1.415 . S
H1438 C1435 0.999 . S
H1439 C1420 0.913 . S
H1440 C1458 0.951 . S
H1441 C1460 0.951 . S
H1442 C1462 0.950 . S
H1443 C1463 0.950 . S
H1444 C1465 0.950 . S
H1445 C1468 0.950 . S
H1446 C1469 0.950 . S
H1447 C1471 0.950 . S
H1448 C1472 0.950 . S
H1449 C1473 0.951 . S
H1450 C1475 0.951 . S
H1451 C1477 0.950 . S
H1452 C1478 0.950 . S
H1453 C1480 0.950 . S
H1454 C1483 0.950 . S
H1455 C1484 0.950 . S
H1456 C1486 0.950 . S
H1457 C1487 0.950 . S
C1458 H1440 0.951 . S
C1458 C1459 1.366 . S
C1458 C1460 1.388 . S
C1459 C1458 1.366 . S
C1459 C1463 1.385 . S
C1460 H1441 0.951 . S
C1460 C1458 1.388 . S
C1460 C1461 1.366 . S
C1461 C1460 1.366 . S
C1461 C1462 1.414 . S
C1461 C1464 1.499 . S
C1462 H1442 0.950 . S
C1462 C1461 1.414 . S
C1462 C1463 1.374 . S
C1463 H1443 0.950 . S
C1463 C1459 1.385 . S
C1463 C1462 1.374 . S
C1464 C1461 1.499 . S
C1464 C1465 1.373 . S
C1464 C1466 1.389 . S
C1465 H1444 0.950 . S
C1465 C1464 1.373 . S
C1465 C1481 1.377 . S
C1466 C1464 1.389 . S
C1466 C1467 1.524 . S
C1466 C1480 1.377 . S
C1467 C1466 1.524 . S
C1467 C1468 1.397 . S
C1467 C1472 1.363 . S
C1468 H1445 0.950 . S
C1468 C1467 1.397 . S
C1468 C1469 1.334 . S
C1469 H1446 0.950 . S
C1469 C1468 1.334 . S
C1469 C1470 1.287 . S
C1470 C1469 1.287 . S
C1470 C1471 1.524 . S
C1470 H1489 0.913 . S
C1471 H1447 0.950 . S
C1471 C1470 1.524 . S
C1471 C1472 1.415 . S
C1472 H1448 0.950 . S
C1472 C1467 1.363 . S
C1472 C1471 1.415 . S
C1473 H1449 0.951 . S
C1473 C1474 1.366 . S
C1473 C1475 1.388 . S
C1474 C1473 1.366 . S
C1474 C1478 1.385 . S
C1475 H1450 0.951 . S
C1475 C1473 1.388 . S
C1475 C1476 1.366 . S
C1476 C1475 1.366 . S
C1476 C1477 1.414 . S
C1476 C1479 1.499 . S
C1477 H1451 0.950 . S
C1477 C1476 1.414 . S
C1477 C1478 1.374 . S
C1478 H1452 0.950 . S
C1478 C1474 1.385 . S
C1478 C1477 1.374 . S
C1479 C1476 1.499 . S
C1479 C1480 1.373 . S
C1479 C1481 1.389 . S
C1480 H1453 0.950 . S
C1480 C1466 1.377 . S
C1480 C1479 1.373 . S
C1481 C1465 1.377 . S
C1481 C1479 1.389 . S
C1481 C1482 1.524 . S
C1482 C1481 1.524 . S
C1482 C1483 1.397 . S
C1482 C1487 1.363 . S
C1483 H1454 0.950 . S
C1483 C1482 1.397 . S
C1483 C1484 1.334 . S
C1484 H1455 0.950 . S
C1484 C1483 1.334 . S
C1484 C1485 1.287 . S
C1485 C1484 1.287 . S
C1485 C1486 1.524 . S
C1485 H1488 0.999 . S
C1486 H1456 0.950 . S
C1486 C1485 1.524 . S
C1486 C1487 1.415 . S
C1487 H1457 0.950 . S
C1487 C1482 1.363 . S
C1487 C1486 1.415 . S
H1488 C1485 0.999 . S
H1489 C1470 0.913 . S
H1490 C1508 0.951 . S
H1491 C1510 0.951 . S
H1492 C1512 0.950 . S
H1493 C1513 0.950 . S
H1494 C1515 0.950 . S
H1495 C1518 0.950 . S
H1496 C1519 0.950 . S
H1497 C1521 0.950 . S
H1498 C1522 0.950 . S
H1499 C1523 0.951 . S
H1500 C1525 0.951 . S
H1501 C1527 0.950 . S
H1502 C1528 0.950 1_554 S
H1503 C1530 0.950 . S
H1504 C1533 0.950 . S
H1505 C1534 0.950 . S
H1506 C1536 0.950 . S
H1507 C1537 0.950 . S
C1508 H1490 0.951 . S
C1508 C1509 1.366 . S
C1508 C1510 1.388 . S
C1509 C1508 1.366 . S
C1509 C1513 1.385 . S
C1510 H1491 0.951 . S
C1510 C1508 1.388 . S
C1510 C1511 1.366 . S
C1511 C1510 1.366 . S
C1511 C1512 1.414 . S
C1511 C1514 1.499 . S
C1512 H1492 0.950 . S
C1512 C1511 1.414 . S
C1512 C1513 1.374 . S
C1513 H1493 0.950 . S
C1513 C1509 1.385 . S
C1513 C1512 1.374 . S
C1514 C1511 1.499 . S
C1514 C1515 1.373 . S
C1514 C1516 1.389 . S
C1515 H1494 0.950 . S
C1515 C1514 1.373 . S
C1515 C1531 1.377 . S
C1516 C1514 1.389 . S
C1516 C1517 1.524 . S
C1516 C1530 1.377 . S
C1517 C1516 1.524 . S
C1517 C1518 1.397 . S
C1517 C1522 1.363 . S
C1518 H1495 0.950 . S
C1518 C1517 1.397 . S
C1518 C1519 1.334 . S
C1519 H1496 0.950 . S
C1519 C1518 1.334 . S
C1519 C1520 1.287 . S
C1520 C1519 1.287 . S
C1520 C1521 1.524 . S
C1520 H1539 0.913 . S
C1521 H1497 0.950 . S
C1521 C1520 1.524 . S
C1521 C1522 1.415 . S
C1522 H1498 0.950 . S
C1522 C1517 1.363 . S
C1522 C1521 1.415 . S
C1523 H1499 0.951 . S
C1523 C1524 1.366 . S
C1523 C1525 1.388 . S
C1524 C1523 1.366 . S
C1524 C1528 1.385 . S
C1525 H1500 0.951 . S
C1525 C1523 1.388 . S
C1525 C1526 1.366 . S
C1526 C1525 1.366 . S
C1526 C1527 1.414 . S
C1526 C1529 1.499 . S
C1527 H1501 0.950 . S
C1527 C1526 1.414 . S
C1527 C1528 1.374 . S
C1528 H1502 0.950 1_556 S
C1528 C1524 1.385 . S
C1528 C1527 1.374 . S
C1529 C1526 1.499 . S
C1529 C1530 1.373 . S
C1529 C1531 1.389 . S
C1530 H1503 0.950 . S
C1530 C1516 1.377 . S
C1530 C1529 1.373 . S
C1531 C1515 1.377 . S
C1531 C1529 1.389 . S
C1531 C1532 1.524 . S
C1532 C1531 1.524 . S
C1532 C1533 1.397 . S
C1532 C1537 1.363 . S
C1533 H1504 0.950 . S
C1533 C1532 1.397 . S
C1533 C1534 1.334 . S
C1534 H1505 0.950 . S
C1534 C1533 1.334 . S
C1534 C1535 1.287 . S
C1535 C1534 1.287 . S
C1535 C1536 1.524 . S
C1535 H1538 0.999 . S
C1536 H1506 0.950 . S
C1536 C1535 1.524 . S
C1536 C1537 1.415 . S
C1537 H1507 0.950 . S
C1537 C1532 1.363 . S
C1537 C1536 1.415 . S
H1538 C1535 0.999 . S
H1539 C1520 0.913 . S
H1540 C1558 0.951 . S
H1541 C1560 0.951 . S
H1542 C1562 0.950 . S
H1543 C1563 0.950 . S
H1544 C1565 0.950 . S
H1545 C1568 0.950 . S
H1546 C1569 0.950 . S
H1547 C1571 0.950 . S
H1548 C1572 0.950 . S
H1549 C1573 0.951 . S
H1550 C1575 0.951 . S
H1551 C1577 0.950 . S
H1552 C1578 0.950 . S
H1553 C1580 0.950 . S
H1554 C1583 0.950 . S
H1555 C1584 0.950 . S
H1556 C1586 0.950 . S
H1557 C1587 0.950 . S
C1558 H1540 0.951 . S
C1558 C1559 1.366 . S
C1558 C1560 1.388 . S
C1559 C1558 1.366 . S
C1559 C1563 1.385 . S
C1560 H1541 0.951 . S
C1560 C1558 1.388 . S
C1560 C1561 1.366 . S
C1561 C1560 1.366 . S
C1561 C1562 1.414 . S
C1561 C1564 1.499 . S
C1562 H1542 0.950 . S
C1562 C1561 1.414 . S
C1562 C1563 1.374 . S
C1563 H1543 0.950 . S
C1563 C1559 1.385 . S
C1563 C1562 1.374 . S
C1564 C1561 1.499 . S
C1564 C1565 1.373 . S
C1564 C1566 1.389 . S
C1565 H1544 0.950 . S
C1565 C1564 1.373 . S
C1565 C1581 1.377 . S
C1566 C1564 1.389 . S
C1566 C1567 1.524 . S
C1566 C1580 1.377 . S
C1567 C1566 1.524 . S
C1567 C1568 1.397 . S
C1567 C1572 1.363 . S
C1568 H1545 0.950 . S
C1568 C1567 1.397 . S
C1568 C1569 1.334 . S
C1569 H1546 0.950 . S
C1569 C1568 1.334 . S
C1569 C1570 1.287 . S
C1570 C1569 1.287 . S
C1570 C1571 1.524 . S
C1570 H1589 0.913 . S
C1571 H1547 0.950 . S
C1571 C1570 1.524 . S
C1571 C1572 1.415 . S
C1572 H1548 0.950 . S
C1572 C1567 1.363 . S
C1572 C1571 1.415 . S
C1573 H1549 0.951 . S
C1573 C1574 1.366 . S
C1573 C1575 1.388 . S
C1574 C1573 1.366 . S
C1574 C1578 1.385 . S
C1575 H1550 0.951 . S
C1575 C1573 1.388 . S
C1575 C1576 1.366 . S
C1576 C1575 1.366 . S
C1576 C1577 1.414 . S
C1576 C1579 1.499 . S
C1577 H1551 0.950 . S
C1577 C1576 1.414 . S
C1577 C1578 1.374 . S
C1578 H1552 0.950 . S
C1578 C1574 1.385 . S
C1578 C1577 1.374 . S
C1579 C1576 1.499 . S
C1579 C1580 1.373 . S
C1579 C1581 1.389 . S
C1580 H1553 0.950 . S
C1580 C1566 1.377 . S
C1580 C1579 1.373 . S
C1581 C1565 1.377 . S
C1581 C1579 1.389 . S
C1581 C1582 1.524 . S
C1582 C1581 1.524 . S
C1582 C1583 1.397 . S
C1582 C1587 1.363 . S
C1583 H1554 0.950 . S
C1583 C1582 1.397 . S
C1583 C1584 1.334 . S
C1584 H1555 0.950 . S
C1584 C1583 1.334 . S
C1584 C1585 1.287 . S
C1585 C1584 1.287 . S
C1585 C1586 1.524 . S
C1585 H1588 0.999 . S
C1586 H1556 0.950 . S
C1586 C1585 1.524 . S
C1586 C1587 1.415 . S
C1587 H1557 0.950 . S
C1587 C1582 1.363 . S
C1587 C1586 1.415 . S
H1588 C1585 0.999 . S
H1589 C1570 0.913 . S
H1590 C1608 0.951 . S
H1591 C1610 0.951 . S
H1592 C1612 0.950 . S
H1593 C1613 0.950 . S
H1594 C1615 0.950 . S
H1595 C1618 0.950 . S
H1596 C1619 0.950 . S
H1597 C1621 0.950 . S
H1598 C1622 0.950 . S
H1599 C1623 0.951 . S
H1600 C1625 0.951 . S
H1601 C1627 0.950 . S
H1602 C1628 0.950 . S
H1603 C1630 0.950 . S
H1604 C1633 0.950 . S
H1605 C1634 0.950 . S
H1606 C1636 0.950 . S
H1607 C1637 0.950 . S
C1608 H1590 0.951 . S
C1608 C1609 1.366 . S
C1608 C1610 1.388 . S
C1609 C1608 1.366 . S
C1609 C1613 1.385 . S
C1610 H1591 0.951 . S
C1610 C1608 1.388 . S
C1610 C1611 1.366 . S
C1611 C1610 1.366 . S
C1611 C1612 1.414 . S
C1611 C1614 1.499 . S
C1612 H1592 0.950 . S
C1612 C1611 1.414 . S
C1612 C1613 1.374 . S
C1613 H1593 0.950 . S
C1613 C1609 1.385 . S
C1613 C1612 1.374 . S
C1614 C1611 1.499 . S
C1614 C1615 1.373 . S
C1614 C1616 1.389 . S
C1615 H1594 0.950 . S
C1615 C1614 1.373 . S
C1615 C1631 1.377 . S
C1616 C1614 1.389 . S
C1616 C1617 1.524 . S
C1616 C1630 1.377 . S
C1617 C1616 1.524 . S
C1617 C1618 1.397 . S
C1617 C1622 1.363 . S
C1618 H1595 0.950 . S
C1618 C1617 1.397 . S
C1618 C1619 1.334 . S
C1619 H1596 0.950 . S
C1619 C1618 1.334 . S
C1619 C1620 1.287 . S
C1620 C1619 1.287 . S
C1620 C1621 1.524 . S
C1620 H1639 0.913 . S
C1621 H1597 0.950 . S
C1621 C1620 1.524 . S
C1621 C1622 1.415 . S
C1622 H1598 0.950 . S
C1622 C1617 1.363 . S
C1622 C1621 1.415 . S
C1623 H1599 0.951 . S
C1623 C1624 1.366 . S
C1623 C1625 1.388 . S
C1624 C1623 1.366 . S
C1624 C1628 1.385 . S
C1625 H1600 0.951 . S
C1625 C1623 1.388 . S
C1625 C1626 1.366 . S
C1626 C1625 1.366 . S
C1626 C1627 1.414 . S
C1626 C1629 1.499 . S
C1627 H1601 0.950 . S
C1627 C1626 1.414 . S
C1627 C1628 1.374 . S
C1628 H1602 0.950 . S
C1628 C1624 1.385 . S
C1628 C1627 1.374 . S
C1629 C1626 1.499 . S
C1629 C1630 1.373 . S
C1629 C1631 1.389 . S
C1630 H1603 0.950 . S
C1630 C1616 1.377 . S
C1630 C1629 1.373 . S
C1631 C1615 1.377 . S
C1631 C1629 1.389 . S
C1631 C1632 1.524 . S
C1632 C1631 1.524 . S
C1632 C1633 1.397 . S
C1632 C1637 1.363 . S
C1633 H1604 0.950 . S
C1633 C1632 1.397 . S
C1633 C1634 1.334 . S
C1634 H1605 0.950 . S
C1634 C1633 1.334 . S
C1634 C1635 1.287 . S
C1635 C1634 1.287 . S
C1635 C1636 1.524 . S
C1635 H1638 0.999 . S
C1636 H1606 0.950 . S
C1636 C1635 1.524 . S
C1636 C1637 1.415 . S
C1637 H1607 0.950 . S
C1637 C1632 1.363 . S
C1637 C1636 1.415 . S
H1638 C1635 0.999 . S
H1639 C1620 0.913 . S
H1640 C1658 0.951 . S
H1641 C1660 0.951 . S
H1642 C1662 0.950 . S
H1643 C1663 0.950 . S
H1644 C1665 0.950 . S
H1645 C1668 0.950 . S
H1646 C1669 0.950 . S
H1647 C1671 0.950 . S
H1648 C1672 0.950 . S
H1649 C1673 0.951 . S
H1650 C1675 0.951 . S
H1651 C1677 0.950 . S
H1652 C1678 0.950 . S
H1653 C1680 0.950 . S
H1654 C1683 0.950 . S
H1655 C1684 0.950 . S
H1656 C1686 0.950 . S
H1657 C1687 0.950 . S
C1658 H1640 0.951 . S
C1658 C1659 1.366 . S
C1658 C1660 1.388 . S
C1659 C1658 1.366 . S
C1659 C1663 1.385 . S
C1660 H1641 0.951 . S
C1660 C1658 1.388 . S
C1660 C1661 1.366 . S
C1661 C1660 1.366 . S
C1661 C1662 1.414 . S
C1661 C1664 1.499 . S
C1662 H1642 0.950 . S
C1662 C1661 1.414 . S
C1662 C1663 1.374 . S
C1663 H1643 0.950 . S
C1663 C1659 1.385 . S
C1663 C1662 1.374 . S
C1664 C1661 1.499 . S
C1664 C1665 1.373 . S
C1664 C1666 1.389 . S
C1665 H1644 0.950 . S
C1665 C1664 1.373 . S
C1665 C1681 1.377 . S
C1666 C1664 1.389 . S
C1666 C1667 1.524 . S
C1666 C1680 1.377 . S
C1667 C1666 1.524 . S
C1667 C1668 1.397 . S
C1667 C1672 1.363 . S
C1668 H1645 0.950 . S
C1668 C1667 1.397 . S
C1668 C1669 1.334 . S
C1669 H1646 0.950 . S
C1669 C1668 1.334 . S
C1669 C1670 1.287 . S
C1670 C1669 1.287 . S
C1670 C1671 1.524 . S
C1670 H1689 0.913 . S
C1671 H1647 0.950 . S
C1671 C1670 1.524 . S
C1671 C1672 1.415 . S
C1672 H1648 0.950 . S
C1672 C1667 1.363 . S
C1672 C1671 1.415 . S
C1673 H1649 0.951 . S
C1673 C1674 1.366 . S
C1673 C1675 1.388 . S
C1674 C1673 1.366 . S
C1674 C1678 1.385 . S
C1675 H1650 0.951 . S
C1675 C1673 1.388 . S
C1675 C1676 1.366 . S
C1676 C1675 1.366 . S
C1676 C1677 1.414 . S
C1676 C1679 1.499 . S
C1677 H1651 0.950 . S
C1677 C1676 1.414 . S
C1677 C1678 1.374 . S
C1678 H1652 0.950 . S
C1678 C1674 1.385 . S
C1678 C1677 1.374 . S
C1679 C1676 1.499 . S
C1679 C1680 1.373 . S
C1679 C1681 1.389 . S
C1680 H1653 0.950 . S
C1680 C1666 1.377 . S
C1680 C1679 1.373 . S
C1681 C1665 1.377 . S
C1681 C1679 1.389 . S
C1681 C1682 1.524 . S
C1682 C1681 1.524 . S
C1682 C1683 1.397 . S
C1682 C1687 1.363 . S
C1683 H1654 0.950 . S
C1683 C1682 1.397 . S
C1683 C1684 1.334 . S
C1684 H1655 0.950 . S
C1684 C1683 1.334 . S
C1684 C1685 1.287 . S
C1685 C1684 1.287 . S
C1685 C1686 1.524 . S
C1685 H1688 0.999 . S
C1686 H1656 0.950 . S
C1686 C1685 1.524 . S
C1686 C1687 1.415 . S
C1687 H1657 0.950 . S
C1687 C1682 1.363 . S
C1687 C1686 1.415 . S
H1688 C1685 0.999 . S
H1689 C1670 0.913 . S
H1690 C1708 0.951 . S
H1691 C1710 0.951 . S
H1692 C1712 0.950 . S
H1693 C1713 0.950 . S
H1694 C1715 0.950 . S
H1695 C1718 0.950 . S
H1696 C1719 0.950 . S
H1697 C1721 0.950 . S
H1698 C1722 0.950 . S
H1699 C1723 0.945 1_556 S
H1700 C1725 0.951 . S
H1701 C1727 0.950 . S
H1702 C1728 0.950 . S
H1703 C1730 0.950 . S
H1704 C1733 0.950 . S
H1705 C1734 0.950 . S
H1706 C1736 0.950 . S
H1707 C1737 0.950 . S
C1708 H1690 0.951 . S
C1708 C1709 1.366 . S
C1708 C1710 1.388 . S
C1709 C1708 1.366 . S
C1709 C1713 1.385 . S
C1710 H1691 0.951 . S
C1710 C1708 1.388 . S
C1710 C1711 1.366 . S
C1711 C1710 1.366 . S
C1711 C1712 1.414 . S
C1711 C1714 1.499 . S
C1712 H1692 0.950 . S
C1712 C1711 1.414 . S
C1712 C1713 1.374 . S
C1713 H1693 0.950 . S
C1713 C1709 1.385 . S
C1713 C1712 1.374 . S
C1714 C1711 1.499 . S
C1714 C1715 1.373 . S
C1714 C1716 1.389 . S
C1715 H1694 0.950 . S
C1715 C1714 1.373 . S
C1715 C1731 1.377 . S
C1716 C1714 1.389 . S
C1716 C1717 1.524 . S
C1716 C1730 1.377 . S
C1717 C1716 1.524 . S
C1717 C1718 1.397 . S
C1717 C1722 1.363 . S
C1718 H1695 0.950 . S
C1718 C1717 1.397 . S
C1718 C1719 1.334 . S
C1719 H1696 0.950 . S
C1719 C1718 1.334 . S
C1719 C1720 1.287 . S
C1720 C1719 1.287 . S
C1720 C1721 1.524 . S
C1720 H1739 0.913 . S
C1721 H1697 0.950 . S
C1721 C1720 1.524 . S
C1721 C1722 1.415 . S
C1722 H1698 0.950 . S
C1722 C1717 1.363 . S
C1722 C1721 1.415 . S
C1723 H1699 0.945 1_554 S
C1723 C1724 1.367 . S
C1723 C1725 1.392 . S
C1724 C1723 1.367 . S
C1724 C1728 1.385 . S
C1725 H1700 0.951 . S
C1725 C1723 1.392 . S
C1725 C1726 1.366 . S
C1726 C1725 1.366 . S
C1726 C1727 1.414 . S
C1726 C1729 1.499 . S
C1727 H1701 0.950 . S
C1727 C1726 1.414 . S
C1727 C1728 1.374 . S
C1728 H1702 0.950 . S
C1728 C1724 1.385 . S
C1728 C1727 1.374 . S
C1729 C1726 1.499 . S
C1729 C1730 1.373 . S
C1729 C1731 1.389 . S
C1730 H1703 0.950 . S
C1730 C1716 1.377 . S
C1730 C1729 1.373 . S
C1731 C1715 1.377 . S
C1731 C1729 1.389 . S
C1731 C1732 1.524 . S
C1732 C1731 1.524 . S
C1732 C1733 1.397 . S
C1732 C1737 1.363 . S
C1733 H1704 0.950 . S
C1733 C1732 1.397 . S
C1733 C1734 1.334 . S
C1734 H1705 0.950 . S
C1734 C1733 1.334 . S
C1734 C1735 1.287 . S
C1735 C1734 1.287 . S
C1735 C1736 1.524 . S
C1735 H1738 0.999 . S
C1736 H1706 0.950 . S
C1736 C1735 1.524 . S
C1736 C1737 1.415 . S
C1737 H1707 0.950 . S
C1737 C1732 1.363 . S
C1737 C1736 1.415 . S
H1738 C1735 0.999 . S
H1739 C1720 0.913 . S
H1740 C1758 0.951 . S
H1741 C1760 0.951 . S
H1742 C1762 0.950 . S
H1743 C1763 0.950 . S
H1744 C1765 0.950 . S
H1745 C1768 0.950 . S
H1746 C1769 0.950 . S
H1747 C1771 0.950 . S
H1748 C1772 0.950 . S
H1749 C1773 0.951 . S
H1750 C1775 0.951 . S
H1751 C1777 0.950 . S
H1752 C1778 0.950 . S
H1753 C1780 0.950 . S
H1754 C1783 0.950 . S
H1755 C1784 0.950 . S
H1756 C1786 0.950 . S
H1757 C1787 0.950 . S
C1758 H1740 0.951 . S
C1758 C1759 1.366 . S
C1758 C1760 1.388 . S
C1759 C1758 1.366 . S
C1759 C1763 1.385 . S
C1760 H1741 0.951 . S
C1760 C1758 1.388 . S
C1760 C1761 1.366 . S
C1761 C1760 1.366 . S
C1761 C1762 1.414 . S
C1761 C1764 1.499 . S
C1762 H1742 0.950 . S
C1762 C1761 1.414 . S
C1762 C1763 1.374 . S
C1763 H1743 0.950 . S
C1763 C1759 1.385 . S
C1763 C1762 1.374 . S
C1764 C1761 1.499 . S
C1764 C1765 1.373 . S
C1764 C1766 1.389 . S
C1765 H1744 0.950 . S
C1765 C1764 1.373 . S
C1765 C1781 1.377 . S
C1766 C1764 1.389 . S
C1766 C1767 1.524 . S
C1766 C1780 1.377 . S
C1767 C1766 1.524 . S
C1767 C1768 1.397 . S
C1767 C1772 1.363 . S
C1768 H1745 0.950 . S
C1768 C1767 1.397 . S
C1768 C1769 1.334 . S
C1769 H1746 0.950 . S
C1769 C1768 1.334 . S
C1769 C1770 1.287 . S
C1770 C1769 1.287 . S
C1770 C1771 1.524 . S
C1770 H1789 0.913 . S
C1771 H1747 0.950 . S
C1771 C1770 1.524 . S
C1771 C1772 1.415 . S
C1772 H1748 0.950 . S
C1772 C1767 1.363 . S
C1772 C1771 1.415 . S
C1773 H1749 0.951 . S
C1773 C1774 1.366 . S
C1773 C1775 1.388 . S
C1774 C1773 1.366 . S
C1774 C1778 1.385 . S
C1775 H1750 0.951 . S
C1775 C1773 1.388 . S
C1775 C1776 1.366 . S
C1776 C1775 1.366 . S
C1776 C1777 1.414 . S
C1776 C1779 1.499 . S
C1777 H1751 0.950 . S
C1777 C1776 1.414 . S
C1777 C1778 1.374 . S
C1778 H1752 0.950 . S
C1778 C1774 1.385 . S
C1778 C1777 1.374 . S
C1779 C1776 1.499 . S
C1779 C1780 1.373 . S
C1779 C1781 1.389 . S
C1780 H1753 0.950 . S
C1780 C1766 1.377 . S
C1780 C1779 1.373 . S
C1781 C1765 1.377 . S
C1781 C1779 1.389 . S
C1781 C1782 1.524 . S
C1782 C1781 1.524 . S
C1782 C1783 1.397 . S
C1782 C1787 1.363 . S
C1783 H1754 0.950 . S
C1783 C1782 1.397 . S
C1783 C1784 1.334 . S
C1784 H1755 0.950 . S
C1784 C1783 1.334 . S
C1784 C1785 1.287 . S
C1785 C1784 1.287 . S
C1785 C1786 1.524 . S
C1785 H1788 0.999 . S
C1786 H1756 0.950 . S
C1786 C1785 1.524 . S
C1786 C1787 1.415 . S
C1787 H1757 0.950 . S
C1787 C1782 1.363 . S
C1787 C1786 1.415 . S
H1788 C1785 0.999 . S
H1789 C1770 0.913 . S
H1790 C1808 0.951 . S
H1791 C1810 0.951 . S
H1792 C1812 0.950 . S
H1793 C1813 0.950 . S
H1794 C1815 0.950 . S
H1795 C1818 0.950 . S
H1796 C1819 0.950 . S
H1797 C1821 0.950 . S
H1798 C1822 0.950 . S
H1799 C1823 0.951 . S
H1800 C1825 0.951 . S
H1801 C1827 0.950 . S
H1802 C1828 0.950 . S
H1803 C1830 0.950 . S
H1804 C1833 0.950 . S
H1805 C1834 0.950 . S
H1806 C1836 0.950 . S
H1807 C1837 0.950 . S
C1808 H1790 0.951 . S
C1808 C1809 1.366 . S
C1808 C1810 1.388 . S
C1809 C1808 1.366 . S
C1809 C1813 1.385 . S
C1810 H1791 0.951 . S
C1810 C1808 1.388 . S
C1810 C1811 1.366 . S
C1811 C1810 1.366 . S
C1811 C1812 1.414 . S
C1811 C1814 1.499 . S
C1812 H1792 0.950 . S
C1812 C1811 1.414 . S
C1812 C1813 1.374 . S
C1813 H1793 0.950 . S
C1813 C1809 1.385 . S
C1813 C1812 1.374 . S
C1814 C1811 1.499 . S
C1814 C1815 1.373 . S
C1814 C1816 1.389 . S
C1815 H1794 0.950 . S
C1815 C1814 1.373 . S
C1815 C1831 1.377 . S
C1816 C1814 1.389 . S
C1816 C1817 1.524 . S
C1816 C1830 1.377 . S
C1817 C1816 1.524 . S
C1817 C1818 1.397 . S
C1817 C1822 1.363 . S
C1818 H1795 0.950 . S
C1818 C1817 1.397 . S
C1818 C1819 1.334 . S
C1819 H1796 0.950 . S
C1819 C1818 1.334 . S
C1819 C1820 1.287 . S
C1820 C1819 1.287 . S
C1820 C1821 1.524 . S
C1820 H1839 0.913 . S
C1821 H1797 0.950 . S
C1821 C1820 1.524 . S
C1821 C1822 1.415 . S
C1822 H1798 0.950 . S
C1822 C1817 1.363 . S
C1822 C1821 1.415 . S
C1823 H1799 0.951 . S
C1823 C1824 1.366 . S
C1823 C1825 1.388 . S
C1824 C1823 1.366 . S
C1824 C1828 1.385 . S
C1825 H1800 0.951 . S
C1825 C1823 1.388 . S
C1825 C1826 1.366 . S
C1826 C1825 1.366 . S
C1826 C1827 1.414 . S
C1826 C1829 1.499 . S
C1827 H1801 0.950 . S
C1827 C1826 1.414 . S
C1827 C1828 1.374 . S
C1828 H1802 0.950 . S
C1828 C1824 1.385 . S
C1828 C1827 1.374 . S
C1829 C1826 1.499 . S
C1829 C1830 1.373 . S
C1829 C1831 1.389 . S
C1830 H1803 0.950 . S
C1830 C1816 1.377 . S
C1830 C1829 1.373 . S
C1831 C1815 1.377 . S
C1831 C1829 1.389 . S
C1831 C1832 1.524 . S
C1832 C1831 1.524 . S
C1832 C1833 1.397 . S
C1832 C1837 1.363 . S
C1833 H1804 0.950 . S
C1833 C1832 1.397 . S
C1833 C1834 1.334 . S
C1834 H1805 0.950 . S
C1834 C1833 1.334 . S
C1834 C1835 1.287 . S
C1835 C1834 1.287 . S
C1835 C1836 1.524 . S
C1835 H1838 0.999 . S
C1836 H1806 0.950 . S
C1836 C1835 1.524 . S
C1836 C1837 1.415 . S
C1837 H1807 0.950 . S
C1837 C1832 1.363 . S
C1837 C1836 1.415 . S
H1838 C1835 0.999 . S
H1839 C1820 0.913 . S
H1840 C1858 0.951 . S
H1841 C1860 0.951 . S
H1842 C1862 0.950 . S
H1843 C1863 0.950 . S
H1844 C1865 0.950 . S
H1845 C1868 0.950 . S
H1846 C1869 0.950 . S
H1847 C1871 0.950 . S
H1848 C1872 0.950 . S
H1849 C1873 0.951 . S
H1850 C1875 0.951 . S
H1851 C1877 0.950 . S
H1852 C1878 0.950 . S
H1853 C1880 0.950 . S
H1854 C1883 0.950 . S
H1855 C1884 0.950 . S
H1856 C1886 0.950 . S
H1857 C1887 0.950 . S
C1858 H1840 0.951 . S
C1858 C1859 1.366 . S
C1858 C1860 1.388 . S
C1859 C1858 1.366 . S
C1859 C1863 1.385 . S
C1860 H1841 0.951 . S
C1860 C1858 1.388 . S
C1860 C1861 1.366 . S
C1861 C1860 1.366 . S
C1861 C1862 1.414 . S
C1861 C1864 1.499 . S
C1862 H1842 0.950 . S
C1862 C1861 1.414 . S
C1862 C1863 1.374 . S
C1863 H1843 0.950 . S
C1863 C1859 1.385 . S
C1863 C1862 1.374 . S
C1864 C1861 1.499 . S
C1864 C1865 1.373 . S
C1864 C1866 1.389 . S
C1865 H1844 0.950 . S
C1865 C1864 1.373 . S
C1865 C1881 1.377 . S
C1866 C1864 1.389 . S
C1866 C1867 1.524 . S
C1866 C1880 1.377 . S
C1867 C1866 1.524 . S
C1867 C1868 1.397 . S
C1867 C1872 1.363 . S
C1868 H1845 0.950 . S
C1868 C1867 1.397 . S
C1868 C1869 1.334 . S
C1869 H1846 0.950 . S
C1869 C1868 1.334 . S
C1869 C1870 1.287 . S
C1870 C1869 1.287 . S
C1870 C1871 1.524 . S
C1870 H1889 0.913 . S
C1871 H1847 0.950 . S
C1871 C1870 1.524 . S
C1871 C1872 1.415 . S
C1872 H1848 0.950 . S
C1872 C1867 1.363 . S
C1872 C1871 1.415 . S
C1873 H1849 0.951 . S
C1873 C1874 1.366 . S
C1873 C1875 1.388 . S
C1874 C1873 1.366 . S
C1874 C1878 1.385 . S
C1875 H1850 0.951 . S
C1875 C1873 1.388 . S
C1875 C1876 1.366 . S
C1876 C1875 1.366 . S
C1876 C1877 1.414 . S
C1876 C1879 1.499 . S
C1877 H1851 0.950 . S
C1877 C1876 1.414 . S
C1877 C1878 1.374 . S
C1878 H1852 0.950 . S
C1878 C1874 1.385 . S
C1878 C1877 1.374 . S
C1879 C1876 1.499 . S
C1879 C1880 1.373 . S
C1879 C1881 1.389 . S
C1880 H1853 0.950 . S
C1880 C1866 1.377 . S
C1880 C1879 1.373 . S
C1881 C1865 1.377 . S
C1881 C1879 1.389 . S
C1881 C1882 1.524 . S
C1882 C1881 1.524 . S
C1882 C1883 1.397 . S
C1882 C1887 1.363 . S
C1883 H1854 0.950 . S
C1883 C1882 1.397 . S
C1883 C1884 1.334 . S
C1884 H1855 0.950 . S
C1884 C1883 1.334 . S
C1884 C1885 1.287 . S
C1885 C1884 1.287 . S
C1885 C1886 1.524 . S
C1885 H1888 0.999 . S
C1886 H1856 0.950 . S
C1886 C1885 1.524 . S
C1886 C1887 1.415 . S
C1887 H1857 0.950 . S
C1887 C1882 1.363 . S
C1887 C1886 1.415 . S
H1888 C1885 0.999 . S
H1889 C1870 0.913 . S
H1890 C1908 0.951 . S
H1891 C1910 0.951 . S
H1892 C1912 0.950 . S
H1893 C1913 0.950 . S
H1894 C1915 0.950 . S
H1895 C1918 0.950 . S
H1896 C1919 0.950 . S
H1897 C1921 0.950 . S
H1898 C1922 0.950 . S
H1899 C1923 0.951 . S
H1900 C1925 0.951 . S
H1901 C1927 0.950 . S
H1902 C1928 0.912 1_556 S
H1903 C1930 0.950 . S
H1904 C1933 0.950 . S
H1905 C1934 0.950 . S
H1906 C1936 0.950 . S
H1907 C1937 0.950 . S
C1908 H1890 0.951 . S
C1908 C1909 1.366 . S
C1908 C1910 1.388 . S
C1909 C1908 1.366 . S
C1909 C1913 1.385 . S
C1910 H1891 0.951 . S
C1910 C1908 1.388 . S
C1910 C1911 1.366 . S
C1911 C1910 1.366 . S
C1911 C1912 1.414 . S
C1911 C1914 1.499 . S
C1912 H1892 0.950 . S
C1912 C1911 1.414 . S
C1912 C1913 1.374 . S
C1913 H1893 0.950 . S
C1913 C1909 1.385 . S
C1913 C1912 1.374 . S
C1914 C1911 1.499 . S
C1914 C1915 1.373 . S
C1914 C1916 1.389 . S
C1915 H1894 0.950 . S
C1915 C1914 1.373 . S
C1915 C1931 1.377 . S
C1916 C1914 1.389 . S
C1916 C1917 1.524 . S
C1916 C1930 1.377 . S
C1917 C1916 1.524 . S
C1917 C1918 1.397 . S
C1917 C1922 1.363 . S
C1918 H1895 0.950 . S
C1918 C1917 1.397 . S
C1918 C1919 1.334 . S
C1919 H1896 0.950 . S
C1919 C1918 1.334 . S
C1919 C1920 1.287 . S
C1920 C1919 1.287 . S
C1920 C1921 1.524 . S
C1920 H1939 0.913 . S
C1921 H1897 0.950 . S
C1921 C1920 1.524 . S
C1921 C1922 1.415 . S
C1922 H1898 0.950 . S
C1922 C1917 1.363 . S
C1922 C1921 1.415 . S
C1923 H1899 0.951 . S
C1923 C1924 1.366 . S
C1923 C1925 1.388 . S
C1924 C1923 1.366 . S
C1924 C1928 1.392 . S
C1925 H1900 0.951 . S
C1925 C1923 1.388 . S
C1925 C1926 1.366 . S
C1926 C1925 1.366 . S
C1926 C1927 1.414 . S
C1926 C1929 1.499 . S
C1927 H1901 0.950 . S
C1927 C1926 1.414 . S
C1927 C1928 1.406 . S
C1928 H1902 0.912 1_554 S
C1928 C1924 1.392 . S
C1928 C1927 1.406 . S
C1929 C1926 1.499 . S
C1929 C1930 1.373 . S
C1929 C1931 1.389 . S
C1930 H1903 0.950 . S
C1930 C1916 1.377 . S
C1930 C1929 1.373 . S
C1931 C1915 1.377 . S
C1931 C1929 1.389 . S
C1931 C1932 1.524 . S
C1932 C1931 1.524 . S
C1932 C1933 1.397 . S
C1932 C1937 1.363 . S
C1933 H1904 0.950 . S
C1933 C1932 1.397 . S
C1933 C1934 1.334 . S
C1934 H1905 0.950 . S
C1934 C1933 1.334 . S
C1934 C1935 1.287 . S
C1935 C1934 1.287 . S
C1935 C1936 1.524 . S
C1935 H1938 0.999 . S
C1936 H1906 0.950 . S
C1936 C1935 1.524 . S
C1936 C1937 1.415 . S
C1937 H1907 0.950 . S
C1937 C1932 1.363 . S
C1937 C1936 1.415 . S
H1938 C1935 0.999 . S
H1939 C1920 0.913 . S
H1940 C1958 0.951 . S
H1941 C1960 0.951 . S
H1942 C1962 0.950 . S
H1943 C1963 0.950 . S
H1944 C1965 0.950 . S
H1945 C1968 0.950 . S
H1946 C1969 0.950 . S
H1947 C1971 0.950 . S
H1948 C1972 0.950 . S
H1949 C1973 0.951 . S
H1950 C1975 0.951 . S
H1951 C1977 0.950 . S
H1952 C1978 0.950 . S
H1953 C1980 0.950 . S
H1954 C1983 0.950 . S
H1955 C1984 0.950 . S
H1956 C1986 0.950 . S
H1957 C1987 0.950 . S
C1958 H1940 0.951 . S
C1958 C1959 1.366 . S
C1958 C1960 1.388 . S
C1959 C1958 1.366 . S
C1959 C1963 1.385 . S
C1960 H1941 0.951 . S
C1960 C1958 1.388 . S
C1960 C1961 1.366 . S
C1961 C1960 1.366 . S
C1961 C1962 1.414 . S
C1961 C1964 1.499 . S
C1962 H1942 0.950 . S
C1962 C1961 1.414 . S
C1962 C1963 1.374 . S
C1963 H1943 0.950 . S
C1963 C1959 1.385 . S
C1963 C1962 1.374 . S
C1964 C1961 1.499 . S
C1964 C1965 1.373 . S
C1964 C1966 1.389 . S
C1965 H1944 0.950 . S
C1965 C1964 1.373 . S
C1965 C1981 1.377 . S
C1966 C1964 1.389 . S
C1966 C1967 1.524 . S
C1966 C1980 1.377 . S
C1967 C1966 1.524 . S
C1967 C1968 1.397 . S
C1967 C1972 1.363 . S
C1968 H1945 0.950 . S
C1968 C1967 1.397 . S
C1968 C1969 1.334 . S
C1969 H1946 0.950 . S
C1969 C1968 1.334 . S
C1969 C1970 1.287 . S
C1970 C1969 1.287 . S
C1970 C1971 1.524 . S
C1970 H1989 0.913 . S
C1971 H1947 0.950 . S
C1971 C1970 1.524 . S
C1971 C1972 1.415 . S
C1972 H1948 0.950 . S
C1972 C1967 1.363 . S
C1972 C1971 1.415 . S
C1973 H1949 0.951 . S
C1973 C1974 1.366 . S
C1973 C1975 1.388 . S
C1974 C1973 1.366 . S
C1974 C1978 1.385 . S
C1975 H1950 0.951 . S
C1975 C1973 1.388 . S
C1975 C1976 1.366 . S
C1976 C1975 1.366 . S
C1976 C1977 1.414 . S
C1976 C1979 1.499 . S
C1977 H1951 0.950 . S
C1977 C1976 1.414 . S
C1977 C1978 1.374 . S
C1978 H1952 0.950 . S
C1978 C1974 1.385 . S
C1978 C1977 1.374 . S
C1979 C1976 1.499 . S
C1979 C1980 1.373 . S
C1979 C1981 1.389 . S
C1980 H1953 0.950 . S
C1980 C1966 1.377 . S
C1980 C1979 1.373 . S
C1981 C1965 1.377 . S
C1981 C1979 1.389 . S
C1981 C1982 1.524 . S
C1982 C1981 1.524 . S
C1982 C1983 1.397 . S
C1982 C1987 1.363 . S
C1983 H1954 0.950 . S
C1983 C1982 1.397 . S
C1983 C1984 1.334 . S
C1984 H1955 0.950 . S
C1984 C1983 1.334 . S
C1984 C1985 1.287 . S
C1985 C1984 1.287 . S
C1985 C1986 1.524 . S
C1985 H1988 0.999 . S
C1986 H1956 0.950 . S
C1986 C1985 1.524 . S
C1986 C1987 1.415 . S
C1987 H1957 0.950 . S
C1987 C1982 1.363 . S
C1987 C1986 1.415 . S
H1988 C1985 0.999 . S
H1989 C1970 0.913 . S
H1990 C2008 0.951 . S
H1991 C2010 0.951 . S
H1992 C2012 0.950 . S
H1993 C2013 0.950 . S
H1994 C2015 0.950 . S
H1995 C2018 0.950 . S
H1996 C2019 0.950 . S
H1997 C2021 0.950 . S
H1998 C2022 0.950 . S
H1999 C2023 0.951 . S
H2000 C2025 0.951 . S
H2001 C2027 0.950 . S
H2002 C2028 0.950 . S
H2003 C2030 0.950 . S
H2004 C2033 0.950 . S
H2005 C2034 0.950 . S
H2006 C2036 0.950 . S
H2007 C2037 0.950 . S
C2008 H1990 0.951 . S
C2008 C2009 1.366 . S
C2008 C2010 1.388 . S
C2009 C2008 1.366 . S
C2009 C2013 1.385 . S
C2010 H1991 0.951 . S
C2010 C2008 1.388 . S
C2010 C2011 1.366 . S
C2011 C2010 1.366 . S
C2011 C2012 1.414 . S
C2011 C2014 1.499 . S
C2012 H1992 0.950 . S
C2012 C2011 1.414 . S
C2012 C2013 1.374 . S
C2013 H1993 0.950 . S
C2013 C2009 1.385 . S
C2013 C2012 1.374 . S
C2014 C2011 1.499 . S
C2014 C2015 1.373 . S
C2014 C2016 1.389 . S
C2015 H1994 0.950 . S
C2015 C2014 1.373 . S
C2015 C2031 1.377 . S
C2016 C2014 1.389 . S
C2016 C2017 1.524 . S
C2016 C2030 1.377 . S
C2017 C2016 1.524 . S
C2017 C2018 1.397 . S
C2017 C2022 1.363 . S
C2018 H1995 0.950 . S
C2018 C2017 1.397 . S
C2018 C2019 1.334 . S
C2019 H1996 0.950 . S
C2019 C2018 1.334 . S
C2019 C2020 1.287 . S
C2020 C2019 1.287 . S
C2020 C2021 1.524 . S
C2020 H2039 0.913 . S
C2021 H1997 0.950 . S
C2021 C2020 1.524 . S
C2021 C2022 1.415 . S
C2022 H1998 0.950 . S
C2022 C2017 1.363 . S
C2022 C2021 1.415 . S
C2023 H1999 0.951 . S
C2023 C2024 1.366 . S
C2023 C2025 1.388 . S
C2024 C2023 1.366 . S
C2024 C2028 1.385 . S
C2025 H2000 0.951 . S
C2025 C2023 1.388 . S
C2025 C2026 1.366 . S
C2026 C2025 1.366 . S
C2026 C2027 1.414 . S
C2026 C2029 1.499 . S
C2027 H2001 0.950 . S
C2027 C2026 1.414 . S
C2027 C2028 1.374 . S
C2028 H2002 0.950 . S
C2028 C2024 1.385 . S
C2028 C2027 1.374 . S
C2029 C2026 1.499 . S
C2029 C2030 1.373 . S
C2029 C2031 1.389 . S
C2030 H2003 0.950 . S
C2030 C2016 1.377 . S
C2030 C2029 1.373 . S
C2031 C2015 1.377 . S
C2031 C2029 1.389 . S
C2031 C2032 1.524 . S
C2032 C2031 1.524 . S
C2032 C2033 1.397 . S
C2032 C2037 1.363 . S
C2033 H2004 0.950 . S
C2033 C2032 1.397 . S
C2033 C2034 1.334 . S
C2034 H2005 0.950 . S
C2034 C2033 1.334 . S
C2034 C2035 1.287 . S
C2035 C2034 1.287 . S
C2035 C2036 1.524 . S
C2035 H2038 0.999 . S
C2036 H2006 0.950 . S
C2036 C2035 1.524 . S
C2036 C2037 1.415 . S
C2037 H2007 0.950 . S
C2037 C2032 1.363 . S
C2037 C2036 1.415 . S
H2038 C2035 0.999 . S
H2039 C2020 0.913 . S
H2040 C2058 0.951 . S
H2041 C2060 0.951 . S
H2042 C2062 0.950 . S
H2043 C2063 0.950 . S
H2044 C2065 0.950 . S
H2045 C2068 0.950 . S
H2046 C2069 0.950 . S
H2047 C2071 0.950 . S
H2048 C2072 0.950 . S
H2049 C2073 0.951 . S
H2050 C2075 0.951 . S
H2051 C2077 0.950 . S
H2052 C2078 0.950 . S
H2053 C2080 0.950 . S
H2054 C2083 0.950 . S
H2055 C2084 0.950 . S
H2056 C2086 0.950 . S
H2057 C2087 0.950 . S
C2058 H2040 0.951 . S
C2058 C2059 1.366 . S
C2058 C2060 1.388 . S
C2059 C2058 1.366 . S
C2059 C2063 1.385 . S
C2060 H2041 0.951 . S
C2060 C2058 1.388 . S
C2060 C2061 1.366 . S
C2061 C2060 1.366 . S
C2061 C2062 1.414 . S
C2061 C2064 1.499 . S
C2062 H2042 0.950 . S
C2062 C2061 1.414 . S
C2062 C2063 1.374 . S
C2063 H2043 0.950 . S
C2063 C2059 1.385 . S
C2063 C2062 1.374 . S
C2064 C2061 1.499 . S
C2064 C2065 1.373 . S
C2064 C2066 1.389 . S
C2065 H2044 0.950 . S
C2065 C2064 1.373 . S
C2065 C2081 1.377 . S
C2066 C2064 1.389 . S
C2066 C2067 1.524 . S
C2066 C2080 1.377 . S
C2067 C2066 1.524 . S
C2067 C2068 1.397 . S
C2067 C2072 1.363 . S
C2068 H2045 0.950 . S
C2068 C2067 1.397 . S
C2068 C2069 1.334 . S
C2069 H2046 0.950 . S
C2069 C2068 1.334 . S
C2069 C2070 1.287 . S
C2070 C2069 1.287 . S
C2070 C2071 1.524 . S
C2070 H2089 0.913 . S
C2071 H2047 0.950 . S
C2071 C2070 1.524 . S
C2071 C2072 1.415 . S
C2072 H2048 0.950 . S
C2072 C2067 1.363 . S
C2072 C2071 1.415 . S
C2073 H2049 0.951 . S
C2073 C2074 1.366 . S
C2073 C2075 1.388 . S
C2074 C2073 1.366 . S
C2074 C2078 1.385 . S
C2075 H2050 0.951 . S
C2075 C2073 1.388 . S
C2075 C2076 1.366 . S
C2076 C2075 1.366 . S
C2076 C2077 1.414 . S
C2076 C2079 1.499 . S
C2077 H2051 0.950 . S
C2077 C2076 1.414 . S
C2077 C2078 1.374 . S
C2078 H2052 0.950 . S
C2078 C2074 1.385 . S
C2078 C2077 1.374 . S
C2079 C2076 1.499 . S
C2079 C2080 1.373 . S
C2079 C2081 1.389 . S
C2080 H2053 0.950 . S
C2080 C2066 1.377 . S
C2080 C2079 1.373 . S
C2081 C2065 1.377 . S
C2081 C2079 1.389 . S
C2081 C2082 1.524 . S
C2082 C2081 1.524 . S
C2082 C2083 1.397 . S
C2082 C2087 1.363 . S
C2083 H2054 0.950 . S
C2083 C2082 1.397 . S
C2083 C2084 1.334 . S
C2084 H2055 0.950 . S
C2084 C2083 1.334 . S
C2084 C2085 1.287 . S
C2085 C2084 1.287 . S
C2085 C2086 1.524 . S
C2085 H2088 0.999 . S
C2086 H2056 0.950 . S
C2086 C2085 1.524 . S
C2086 C2087 1.415 . S
C2087 H2057 0.950 . S
C2087 C2082 1.363 . S
C2087 C2086 1.415 . S
H2088 C2085 0.999 . S
H2089 C2070 0.913 . S
H2090 C2108 0.951 . S
H2091 C2110 0.951 . S
H2092 C2112 0.950 . S
H2093 C2113 0.950 . S
H2094 C2115 0.950 . S
H2095 C2118 0.950 . S
H2096 C2119 0.950 . S
H2097 C2121 0.950 . S
H2098 C2122 0.950 . S
H2099 C2123 0.918 1_554 S
H2100 C2125 0.951 . S
H2101 C2127 0.950 . S
H2102 C2128 0.950 . S
H2103 C2130 0.950 . S
H2104 C2133 0.950 . S
H2105 C2134 0.950 . S
H2106 C2136 0.950 . S
H2107 C2137 0.950 . S
C2108 H2090 0.951 . S
C2108 C2109 1.366 . S
C2108 C2110 1.388 . S
C2109 C2108 1.366 . S
C2109 C2113 1.385 . S
C2110 H2091 0.951 . S
C2110 C2108 1.388 . S
C2110 C2111 1.366 . S
C2111 C2110 1.366 . S
C2111 C2112 1.414 . S
C2111 C2114 1.499 . S
C2112 H2092 0.950 . S
C2112 C2111 1.414 . S
C2112 C2113 1.374 . S
C2113 H2093 0.950 . S
C2113 C2109 1.385 . S
C2113 C2112 1.374 . S
C2114 C2111 1.499 . S
C2114 C2115 1.373 . S
C2114 C2116 1.389 . S
C2115 H2094 0.950 . S
C2115 C2114 1.373 . S
C2115 C2131 1.377 . S
C2116 C2114 1.389 . S
C2116 C2117 1.524 . S
C2116 C2130 1.377 . S
C2117 C2116 1.524 . S
C2117 C2118 1.397 . S
C2117 C2122 1.363 . S
C2118 H2095 0.950 . S
C2118 C2117 1.397 . S
C2118 C2119 1.334 . S
C2119 H2096 0.950 . S
C2119 C2118 1.334 . S
C2119 C2120 1.287 . S
C2120 C2119 1.287 . S
C2120 C2121 1.524 . S
C2120 H2139 0.913 . S
C2121 H2097 0.950 . S
C2121 C2120 1.524 . S
C2121 C2122 1.415 . S
C2122 H2098 0.950 . S
C2122 C2117 1.363 . S
C2122 C2121 1.415 . S
C2123 H2099 0.918 1_556 S
C2123 C2124 1.372 . S
C2123 C2125 1.415 . S
C2124 C2123 1.372 . S
C2124 C2128 1.385 . S
C2125 H2100 0.951 . S
C2125 C2123 1.415 . S
C2125 C2126 1.366 . S
C2126 C2125 1.366 . S
C2126 C2127 1.414 . S
C2126 C2129 1.499 . S
C2127 H2101 0.950 . S
C2127 C2126 1.414 . S
C2127 C2128 1.374 . S
C2128 H2102 0.950 . S
C2128 C2124 1.385 . S
C2128 C2127 1.374 . S
C2129 C2126 1.499 . S
C2129 C2130 1.373 . S
C2129 C2131 1.389 . S
C2130 H2103 0.950 . S
C2130 C2116 1.377 . S
C2130 C2129 1.373 . S
C2131 C2115 1.377 . S
C2131 C2129 1.389 . S
C2131 C2132 1.524 . S
C2132 C2131 1.524 . S
C2132 C2133 1.397 . S
C2132 C2137 1.363 . S
C2133 H2104 0.950 . S
C2133 C2132 1.397 . S
C2133 C2134 1.334 . S
C2134 H2105 0.950 . S
C2134 C2133 1.334 . S
C2134 C2135 1.287 . S
C2135 C2134 1.287 . S
C2135 C2136 1.524 . S
C2135 H2138 0.999 . S
C2136 H2106 0.950 . S
C2136 C2135 1.524 . S
C2136 C2137 1.415 . S
C2137 H2107 0.950 . S
C2137 C2132 1.363 . S
C2137 C2136 1.415 . S
H2138 C2135 0.999 . S
H2139 C2120 0.913 . S
H2140 C2158 0.951 . S
H2141 C2160 0.951 . S
H2142 C2162 0.950 . S
H2143 C2163 0.950 . S
H2144 C2165 0.950 . S
H2145 C2168 0.950 . S
H2146 C2169 0.950 . S
H2147 C2171 0.950 . S
H2148 C2172 0.950 . S
H2149 C2173 0.951 . S
H2150 C2175 0.951 . S
H2151 C2177 0.950 . S
H2152 C2178 0.950 . S
H2153 C2180 0.950 . S
H2154 C2183 0.950 . S
H2155 C2184 0.950 . S
H2156 C2186 0.950 . S
H2157 C2187 0.950 . S
C2158 H2140 0.951 . S
C2158 C2159 1.366 . S
C2158 C2160 1.388 . S
C2159 C2158 1.366 . S
C2159 C2163 1.385 . S
C2160 H2141 0.951 . S
C2160 C2158 1.388 . S
C2160 C2161 1.366 . S
C2161 C2160 1.366 . S
C2161 C2162 1.414 . S
C2161 C2164 1.499 . S
C2162 H2142 0.950 . S
C2162 C2161 1.414 . S
C2162 C2163 1.374 . S
C2163 H2143 0.950 . S
C2163 C2159 1.385 . S
C2163 C2162 1.374 . S
C2164 C2161 1.499 . S
C2164 C2165 1.373 . S
C2164 C2166 1.389 . S
C2165 H2144 0.950 . S
C2165 C2164 1.373 . S
C2165 C2181 1.377 . S
C2166 C2164 1.389 . S
C2166 C2167 1.524 . S
C2166 C2180 1.377 . S
C2167 C2166 1.524 . S
C2167 C2168 1.397 . S
C2167 C2172 1.363 . S
C2168 H2145 0.950 . S
C2168 C2167 1.397 . S
C2168 C2169 1.334 . S
C2169 H2146 0.950 . S
C2169 C2168 1.334 . S
C2169 C2170 1.287 . S
C2170 C2169 1.287 . S
C2170 C2171 1.524 . S
C2170 H2189 0.913 . S
C2171 H2147 0.950 . S
C2171 C2170 1.524 . S
C2171 C2172 1.415 . S
C2172 H2148 0.950 . S
C2172 C2167 1.363 . S
C2172 C2171 1.415 . S
C2173 H2149 0.951 . S
C2173 C2174 1.366 . S
C2173 C2175 1.388 . S
C2174 C2173 1.366 . S
C2174 C2178 1.385 . S
C2175 H2150 0.951 . S
C2175 C2173 1.388 . S
C2175 C2176 1.366 . S
C2176 C2175 1.366 . S
C2176 C2177 1.414 . S
C2176 C2179 1.499 . S
C2177 H2151 0.950 . S
C2177 C2176 1.414 . S
C2177 C2178 1.374 . S
C2178 H2152 0.950 . S
C2178 C2174 1.385 . S
C2178 C2177 1.374 . S
C2179 C2176 1.499 . S
C2179 C2180 1.373 . S
C2179 C2181 1.389 . S
C2180 H2153 0.950 . S
C2180 C2166 1.377 . S
C2180 C2179 1.373 . S
C2181 C2165 1.377 . S
C2181 C2179 1.389 . S
C2181 C2182 1.524 . S
C2182 C2181 1.524 . S
C2182 C2183 1.397 . S
C2182 C2187 1.363 . S
C2183 H2154 0.950 . S
C2183 C2182 1.397 . S
C2183 C2184 1.334 . S
C2184 H2155 0.950 . S
C2184 C2183 1.334 . S
C2184 C2185 1.287 . S
C2185 C2184 1.287 . S
C2185 C2186 1.524 . S
C2185 H2188 0.999 . S
C2186 H2156 0.950 . S
C2186 C2185 1.524 . S
C2186 C2187 1.415 . S
C2187 H2157 0.950 . S
C2187 C2182 1.363 . S
C2187 C2186 1.415 . S
H2188 C2185 0.999 . S
H2189 C2170 0.913 . S
H2190 C2208 0.951 . S
H2191 C2210 0.951 . S
H2192 C2212 0.950 . S
H2193 C2213 0.950 . S
H2194 C2215 0.950 . S
H2195 C2218 0.950 . S
H2196 C2219 0.950 . S
H2197 C2221 0.950 . S
H2198 C2222 0.950 . S
H2199 C2223 0.951 . S
H2200 C2225 0.951 . S
H2201 C2227 0.950 . S
H2202 C2228 0.950 . S
H2203 C2230 0.950 . S
H2204 C2233 0.950 . S
H2205 C2234 0.950 . S
H2206 C2236 0.950 . S
H2207 C2237 0.950 . S
C2208 H2190 0.951 . S
C2208 C2209 1.366 . S
C2208 C2210 1.388 . S
C2209 C2208 1.366 . S
C2209 C2213 1.385 . S
C2210 H2191 0.951 . S
C2210 C2208 1.388 . S
C2210 C2211 1.366 . S
C2211 C2210 1.366 . S
C2211 C2212 1.414 . S
C2211 C2214 1.499 . S
C2212 H2192 0.950 . S
C2212 C2211 1.414 . S
C2212 C2213 1.374 . S
C2213 H2193 0.950 . S
C2213 C2209 1.385 . S
C2213 C2212 1.374 . S
C2214 C2211 1.499 . S
C2214 C2215 1.373 . S
C2214 C2216 1.389 . S
C2215 H2194 0.950 . S
C2215 C2214 1.373 . S
C2215 C2231 1.377 . S
C2216 C2214 1.389 . S
C2216 C2217 1.524 . S
C2216 C2230 1.377 . S
C2217 C2216 1.524 . S
C2217 C2218 1.397 . S
C2217 C2222 1.363 . S
C2218 H2195 0.950 . S
C2218 C2217 1.397 . S
C2218 C2219 1.334 . S
C2219 H2196 0.950 . S
C2219 C2218 1.334 . S
C2219 C2220 1.287 . S
C2220 C2219 1.287 . S
C2220 C2221 1.524 . S
C2220 H2239 0.913 . S
C2221 H2197 0.950 . S
C2221 C2220 1.524 . S
C2221 C2222 1.415 . S
C2222 H2198 0.950 . S
C2222 C2217 1.363 . S
C2222 C2221 1.415 . S
C2223 H2199 0.951 . S
C2223 C2224 1.366 . S
C2223 C2225 1.388 . S
C2224 C2223 1.366 . S
C2224 C2228 1.385 . S
C2225 H2200 0.951 . S
C2225 C2223 1.388 . S
C2225 C2226 1.366 . S
C2226 C2225 1.366 . S
C2226 C2227 1.414 . S
C2226 C2229 1.499 . S
C2227 H2201 0.950 . S
C2227 C2226 1.414 . S
C2227 C2228 1.374 . S
C2228 H2202 0.950 . S
C2228 C2224 1.385 . S
C2228 C2227 1.374 . S
C2229 C2226 1.499 . S
C2229 C2230 1.373 . S
C2229 C2231 1.389 . S
C2230 H2203 0.950 . S
C2230 C2216 1.377 . S
C2230 C2229 1.373 . S
C2231 C2215 1.377 . S
C2231 C2229 1.389 . S
C2231 C2232 1.524 . S
C2232 C2231 1.524 . S
C2232 C2233 1.397 . S
C2232 C2237 1.363 . S
C2233 H2204 0.950 . S
C2233 C2232 1.397 . S
C2233 C2234 1.334 . S
C2234 H2205 0.950 . S
C2234 C2233 1.334 . S
C2234 C2235 1.287 . S
C2235 C2234 1.287 . S
C2235 C2236 1.524 . S
C2235 H2238 0.999 . S
C2236 H2206 0.950 . S
C2236 C2235 1.524 . S
C2236 C2237 1.415 . S
C2237 H2207 0.950 . S
C2237 C2232 1.363 . S
C2237 C2236 1.415 . S
H2238 C2235 0.999 . S
H2239 C2220 0.913 . S
H2240 C2258 0.951 . S
H2241 C2260 0.951 . S
H2242 C2262 0.950 . S
H2243 C2263 0.950 . S
H2244 C2265 0.950 . S
H2245 C2268 0.950 . S
H2246 C2269 0.950 . S
H2247 C2271 0.950 . S
H2248 C2272 0.950 . S
H2249 C2273 0.951 . S
H2250 C2275 0.951 . S
H2251 C2277 0.950 . S
H2252 C2278 0.950 . S
H2253 C2280 0.950 . S
H2254 C2283 0.950 . S
H2255 C2284 0.950 . S
H2256 C2286 0.950 . S
H2257 C2287 0.950 . S
C2258 H2240 0.951 . S
C2258 C2259 1.366 . S
C2258 C2260 1.388 . S
C2259 C2258 1.366 . S
C2259 C2263 1.385 . S
C2260 H2241 0.951 . S
C2260 C2258 1.388 . S
C2260 C2261 1.366 . S
C2261 C2260 1.366 . S
C2261 C2262 1.414 . S
C2261 C2264 1.499 . S
C2262 H2242 0.950 . S
C2262 C2261 1.414 . S
C2262 C2263 1.374 . S
C2263 H2243 0.950 . S
C2263 C2259 1.385 . S
C2263 C2262 1.374 . S
C2264 C2261 1.499 . S
C2264 C2265 1.373 . S
C2264 C2266 1.389 . S
C2265 H2244 0.950 . S
C2265 C2264 1.373 . S
C2265 C2281 1.377 . S
C2266 C2264 1.389 . S
C2266 C2267 1.524 . S
C2266 C2280 1.377 . S
C2267 C2266 1.524 . S
C2267 C2268 1.397 . S
C2267 C2272 1.363 . S
C2268 H2245 0.950 . S
C2268 C2267 1.397 . S
C2268 C2269 1.334 . S
C2269 H2246 0.950 . S
C2269 C2268 1.334 . S
C2269 C2270 1.287 . S
C2270 C2269 1.287 . S
C2270 C2271 1.524 . S
C2270 H2289 0.913 . S
C2271 H2247 0.950 . S
C2271 C2270 1.524 . S
C2271 C2272 1.415 . S
C2272 H2248 0.950 . S
C2272 C2267 1.363 . S
C2272 C2271 1.415 . S
C2273 H2249 0.951 . S
C2273 C2274 1.366 . S
C2273 C2275 1.388 . S
C2274 C2273 1.366 . S
C2274 C2278 1.385 . S
C2275 H2250 0.951 . S
C2275 C2273 1.388 . S
C2275 C2276 1.366 . S
C2276 C2275 1.366 . S
C2276 C2277 1.414 . S
C2276 C2279 1.499 . S
C2277 H2251 0.950 . S
C2277 C2276 1.414 . S
C2277 C2278 1.374 . S
C2278 H2252 0.950 . S
C2278 C2274 1.385 . S
C2278 C2277 1.374 . S
C2279 C2276 1.499 . S
C2279 C2280 1.373 . S
C2279 C2281 1.389 . S
C2280 H2253 0.950 . S
C2280 C2266 1.377 . S
C2280 C2279 1.373 . S
C2281 C2265 1.377 . S
C2281 C2279 1.389 . S
C2281 C2282 1.524 . S
C2282 C2281 1.524 . S
C2282 C2283 1.397 . S
C2282 C2287 1.363 . S
C2283 H2254 0.950 . S
C2283 C2282 1.397 . S
C2283 C2284 1.334 . S
C2284 H2255 0.950 . S
C2284 C2283 1.334 . S
C2284 C2285 1.287 . S
C2285 C2284 1.287 . S
C2285 C2286 1.524 . S
C2285 H2288 0.999 . S
C2286 H2256 0.950 . S
C2286 C2285 1.524 . S
C2286 C2287 1.415 . S
C2287 H2257 0.950 . S
C2287 C2282 1.363 . S
C2287 C2286 1.415 . S
H2288 C2285 0.999 . S
H2289 C2270 0.913 . S
H2290 C2308 0.951 . S
H2291 C2310 0.951 . S
H2292 C2312 0.950 . S
H2293 C2313 0.950 . S
H2294 C2315 0.950 . S
H2295 C2318 0.950 . S
H2296 C2319 0.950 . S
H2297 C2321 0.950 . S
H2298 C2322 0.950 . S
H2299 C2323 0.951 . S
H2300 C2325 0.951 . S
H2301 C2327 0.950 . S
H2302 C2328 0.950 . S
H2303 C2330 0.950 . S
H2304 C2333 0.950 . S
H2305 C2334 0.950 . S
H2306 C2336 0.950 . S
H2307 C2337 0.950 . S
C2308 H2290 0.951 . S
C2308 C2309 1.366 . S
C2308 C2310 1.388 . S
C2309 C2308 1.366 . S
C2309 C2313 1.385 . S
C2310 H2291 0.951 . S
C2310 C2308 1.388 . S
C2310 C2311 1.366 . S
C2311 C2310 1.366 . S
C2311 C2312 1.414 . S
C2311 C2314 1.499 . S
C2312 H2292 0.950 . S
C2312 C2311 1.414 . S
C2312 C2313 1.374 . S
C2313 H2293 0.950 . S
C2313 C2309 1.385 . S
C2313 C2312 1.374 . S
C2314 C2311 1.499 . S
C2314 C2315 1.373 . S
C2314 C2316 1.389 . S
C2315 H2294 0.950 . S
C2315 C2314 1.373 . S
C2315 C2331 1.377 . S
C2316 C2314 1.389 . S
C2316 C2317 1.524 . S
C2316 C2330 1.377 . S
C2317 C2316 1.524 . S
C2317 C2318 1.397 . S
C2317 C2322 1.363 . S
C2318 H2295 0.950 . S
C2318 C2317 1.397 . S
C2318 C2319 1.334 . S
C2319 H2296 0.950 . S
C2319 C2318 1.334 . S
C2319 C2320 1.287 . S
C2320 C2319 1.287 . S
C2320 C2321 1.524 . S
C2320 H2339 0.913 . S
C2321 H2297 0.950 . S
C2321 C2320 1.524 . S
C2321 C2322 1.415 . S
C2322 H2298 0.950 . S
C2322 C2317 1.363 . S
C2322 C2321 1.415 . S
C2323 H2299 0.951 . S
C2323 C2324 1.366 . S
C2323 C2325 1.388 . S
C2324 C2323 1.366 . S
C2324 C2328 1.385 . S
C2325 H2300 0.951 . S
C2325 C2323 1.388 . S
C2325 C2326 1.366 . S
C2326 C2325 1.366 . S
C2326 C2327 1.414 . S
C2326 C2329 1.499 1_655 S
C2327 H2301 0.950 . S
C2327 C2326 1.414 . S
C2327 C2328 1.374 . S
C2328 H2302 0.950 . S
C2328 C2324 1.385 . S
C2328 C2327 1.374 . S
C2329 C2326 1.499 1_455 S
C2329 C2330 1.373 . S
C2329 C2331 1.389 . S
C2330 H2303 0.950 . S
C2330 C2316 1.377 . S
C2330 C2329 1.373 . S
C2331 C2315 1.377 . S
C2331 C2329 1.389 . S
C2331 C2332 1.524 . S
C2332 C2331 1.524 . S
C2332 C2333 1.397 1_455 S
C2332 C2337 1.363 . S
C2333 H2304 0.950 . S
C2333 C2332 1.397 1_655 S
C2333 C2334 1.334 . S
C2334 H2305 0.950 . S
C2334 C2333 1.334 . S
C2334 C2335 1.287 . S
C2335 C2334 1.287 . S
C2335 C2336 1.524 1_655 S
C2335 H2338 0.999 . S
C2336 H2306 0.950 . S
C2336 C2335 1.524 1_455 S
C2336 C2337 1.415 . S
C2337 H2307 0.950 . S
C2337 C2332 1.363 . S
C2337 C2336 1.415 . S
H2338 C2335 0.999 . S
H2339 C2320 0.913 . S
H2340 C2358 0.951 . S
H2341 C2360 0.951 . S
H2342 C2362 0.950 . S
H2343 C2363 0.950 . S
H2344 C2365 0.950 . S
H2345 C2368 0.950 . S
H2346 C2369 0.950 . S
H2347 C2371 0.950 . S
H2348 C2372 0.950 . S
H2349 C2373 0.951 . S
H2350 C2375 0.951 . S
H2351 C2377 0.950 . S
H2352 C2378 0.950 . S
H2353 C2380 0.950 . S
H2354 C2383 0.950 . S
H2355 C2384 0.950 . S
H2356 C2386 0.950 . S
H2357 C2387 0.950 . S
C2358 H2340 0.951 . S
C2358 C2359 1.366 . S
C2358 C2360 1.388 . S
C2359 C2358 1.366 . S
C2359 C2363 1.385 . S
C2360 H2341 0.951 . S
C2360 C2358 1.388 . S
C2360 C2361 1.366 . S
C2361 C2360 1.366 . S
C2361 C2362 1.414 . S
C2361 C2364 1.499 . S
C2362 H2342 0.950 . S
C2362 C2361 1.414 . S
C2362 C2363 1.374 . S
C2363 H2343 0.950 . S
C2363 C2359 1.385 . S
C2363 C2362 1.374 . S
C2364 C2361 1.499 . S
C2364 C2365 1.373 . S
C2364 C2366 1.389 . S
C2365 H2344 0.950 . S
C2365 C2364 1.373 . S
C2365 C2381 1.377 . S
C2366 C2364 1.389 . S
C2366 C2367 1.524 . S
C2366 C2380 1.377 . S
C2367 C2366 1.524 . S
C2367 C2368 1.397 . S
C2367 C2372 1.363 . S
C2368 H2345 0.950 . S
C2368 C2367 1.397 . S
C2368 C2369 1.334 . S
C2369 H2346 0.950 . S
C2369 C2368 1.334 . S
C2369 C2370 1.287 . S
C2370 C2369 1.287 . S
C2370 C2371 1.524 . S
C2370 H2389 0.913 . S
C2371 H2347 0.950 . S
C2371 C2370 1.524 . S
C2371 C2372 1.415 . S
C2372 H2348 0.950 . S
C2372 C2367 1.363 . S
C2372 C2371 1.415 . S
C2373 H2349 0.951 . S
C2373 C2374 1.366 . S
C2373 C2375 1.388 . S
C2374 C2373 1.366 . S
C2374 C2378 1.385 . S
C2375 H2350 0.951 . S
C2375 C2373 1.388 . S
C2375 C2376 1.366 . S
C2376 C2375 1.366 . S
C2376 C2377 1.414 . S
C2376 C2379 1.499 . S
C2377 H2351 0.950 . S
C2377 C2376 1.414 . S
C2377 C2378 1.374 . S
C2378 H2352 0.950 . S
C2378 C2374 1.385 . S
C2378 C2377 1.374 . S
C2379 C2376 1.499 . S
C2379 C2380 1.373 . S
C2379 C2381 1.389 . S
C2380 H2353 0.950 . S
C2380 C2366 1.377 . S
C2380 C2379 1.373 . S
C2381 C2365 1.377 . S
C2381 C2379 1.389 . S
C2381 C2382 1.524 . S
C2382 C2381 1.524 . S
C2382 C2383 1.397 . S
C2382 C2387 1.363 . S
C2383 H2354 0.950 . S
C2383 C2382 1.397 . S
C2383 C2384 1.334 . S
C2384 H2355 0.950 . S
C2384 C2383 1.334 . S
C2384 C2385 1.287 . S
C2385 C2384 1.287 . S
C2385 C2386 1.524 . S
C2385 H2388 0.999 . S
C2386 H2356 0.950 . S
C2386 C2385 1.524 . S
C2386 C2387 1.415 . S
C2387 H2357 0.950 . S
C2387 C2382 1.363 . S
C2387 C2386 1.415 . S
H2388 C2385 0.999 . S
H2389 C2370 0.913 . S
H2390 C2408 0.951 . S
H2391 C2410 0.951 . S
H2392 C2412 0.950 . S
H2393 C2413 0.950 . S
H2394 C2415 0.950 . S
H2395 C2418 0.950 . S
H2396 C2419 0.950 . S
H2397 C2421 0.950 . S
H2398 C2422 0.950 . S
H2399 C2423 0.951 . S
H2400 C2425 0.951 . S
H2401 C2427 0.950 . S
H2402 C2428 0.950 . S
H2403 C2430 0.950 . S
H2404 C2433 0.950 . S
H2405 C2434 0.950 . S
H2406 C2436 0.950 . S
H2407 C2437 0.950 . S
C2408 H2390 0.951 . S
C2408 C2409 1.366 . S
C2408 C2410 1.388 . S
C2409 C2408 1.366 . S
C2409 C2413 1.385 . S
C2410 H2391 0.951 . S
C2410 C2408 1.388 . S
C2410 C2411 1.366 . S
C2411 C2410 1.366 . S
C2411 C2412 1.414 . S
C2411 C2414 1.499 . S
C2412 H2392 0.950 . S
C2412 C2411 1.414 . S
C2412 C2413 1.374 . S
C2413 H2393 0.950 . S
C2413 C2409 1.385 . S
C2413 C2412 1.374 . S
C2414 C2411 1.499 . S
C2414 C2415 1.373 . S
C2414 C2416 1.389 . S
C2415 H2394 0.950 . S
C2415 C2414 1.373 . S
C2415 C2431 1.377 . S
C2416 C2414 1.389 . S
C2416 C2417 1.524 . S
C2416 C2430 1.377 . S
C2417 C2416 1.524 . S
C2417 C2418 1.397 . S
C2417 C2422 1.363 . S
C2418 H2395 0.950 . S
C2418 C2417 1.397 . S
C2418 C2419 1.334 . S
C2419 H2396 0.950 . S
C2419 C2418 1.334 . S
C2419 C2420 1.287 . S
C2420 C2419 1.287 . S
C2420 C2421 1.524 . S
C2420 H2439 0.913 . S
C2421 H2397 0.950 . S
C2421 C2420 1.524 . S
C2421 C2422 1.415 . S
C2422 H2398 0.950 . S
C2422 C2417 1.363 . S
C2422 C2421 1.415 . S
C2423 H2399 0.951 . S
C2423 C2424 1.366 . S
C2423 C2425 1.388 . S
C2424 C2423 1.366 . S
C2424 C2428 1.385 . S
C2425 H2400 0.951 . S
C2425 C2423 1.388 . S
C2425 C2426 1.366 . S
C2426 C2425 1.366 . S
C2426 C2427 1.414 . S
C2426 C2429 1.499 . S
C2427 H2401 0.950 . S
C2427 C2426 1.414 . S
C2427 C2428 1.374 . S
C2428 H2402 0.950 . S
C2428 C2424 1.385 . S
C2428 C2427 1.374 . S
C2429 C2426 1.499 . S
C2429 C2430 1.373 . S
C2429 C2431 1.389 . S
C2430 H2403 0.950 . S
C2430 C2416 1.377 . S
C2430 C2429 1.373 . S
C2431 C2415 1.377 . S
C2431 C2429 1.389 . S
C2431 C2432 1.524 . S
C2432 C2431 1.524 . S
C2432 C2433 1.397 . S
C2432 C2437 1.363 . S
C2433 H2404 0.950 . S
C2433 C2432 1.397 . S
C2433 C2434 1.334 . S
C2434 H2405 0.950 . S
C2434 C2433 1.334 . S
C2434 C2435 1.287 . S
C2435 C2434 1.287 . S
C2435 C2436 1.524 . S
C2435 H2438 0.999 . S
C2436 H2406 0.950 . S
C2436 C2435 1.524 . S
C2436 C2437 1.415 . S
C2437 H2407 0.950 . S
C2437 C2432 1.363 . S
C2437 C2436 1.415 . S
H2438 C2435 0.999 . S
H2439 C2420 0.913 . S
H2440 C2458 0.951 . S
H2441 C2460 0.951 . S
H2442 C2462 0.950 . S
H2443 C2463 0.950 . S
H2444 C2465 0.950 . S
H2445 C2468 0.950 . S
H2446 C2469 0.950 . S
H2447 C2471 0.950 . S
H2448 C2472 0.950 . S
H2449 C2473 0.951 . S
H2450 C2475 0.951 . S
H2451 C2477 0.950 . S
H2452 C2478 0.950 . S
H2453 C2480 0.950 . S
H2454 C2483 0.950 . S
H2455 C2484 0.950 . S
H2456 C2486 0.950 . S
H2457 C2487 0.950 . S
C2458 H2440 0.951 . S
C2458 C2459 1.366 . S
C2458 C2460 1.388 . S
C2459 C2458 1.366 . S
C2459 C2463 1.385 . S
C2460 H2441 0.951 . S
C2460 C2458 1.388 . S
C2460 C2461 1.366 . S
C2461 C2460 1.366 . S
C2461 C2462 1.414 . S
C2461 C2464 1.499 . S
C2462 H2442 0.950 . S
C2462 C2461 1.414 . S
C2462 C2463 1.374 . S
C2463 H2443 0.950 . S
C2463 C2459 1.385 . S
C2463 C2462 1.374 . S
C2464 C2461 1.499 . S
C2464 C2465 1.373 . S
C2464 C2466 1.389 . S
C2465 H2444 0.950 . S
C2465 C2464 1.373 . S
C2465 C2481 1.377 . S
C2466 C2464 1.389 . S
C2466 C2467 1.524 . S
C2466 C2480 1.377 . S
C2467 C2466 1.524 . S
C2467 C2468 1.397 . S
C2467 C2472 1.363 . S
C2468 H2445 0.950 . S
C2468 C2467 1.397 . S
C2468 C2469 1.334 . S
C2469 H2446 0.950 . S
C2469 C2468 1.334 . S
C2469 C2470 1.287 . S
C2470 C2469 1.287 . S
C2470 C2471 1.524 . S
C2470 H2489 0.913 . S
C2471 H2447 0.950 . S
C2471 C2470 1.524 . S
C2471 C2472 1.415 . S
C2472 H2448 0.950 . S
C2472 C2467 1.363 . S
C2472 C2471 1.415 . S
C2473 H2449 0.951 . S
C2473 C2474 1.366 . S
C2473 C2475 1.388 . S
C2474 C2473 1.366 . S
C2474 C2478 1.385 . S
C2475 H2450 0.951 . S
C2475 C2473 1.388 . S
C2475 C2476 1.366 . S
C2476 C2475 1.366 . S
C2476 C2477 1.414 . S
C2476 C2479 1.499 . S
C2477 H2451 0.950 . S
C2477 C2476 1.414 . S
C2477 C2478 1.374 . S
C2478 H2452 0.950 . S
C2478 C2474 1.385 . S
C2478 C2477 1.374 . S
C2479 C2476 1.499 . S
C2479 C2480 1.373 . S
C2479 C2481 1.389 . S
C2480 H2453 0.950 . S
C2480 C2466 1.377 . S
C2480 C2479 1.373 . S
C2481 C2465 1.377 . S
C2481 C2479 1.389 . S
C2481 C2482 1.524 . S
C2482 C2481 1.524 . S
C2482 C2483 1.397 . S
C2482 C2487 1.363 . S
C2483 H2454 0.950 . S
C2483 C2482 1.397 . S
C2483 C2484 1.334 . S
C2484 H2455 0.950 . S
C2484 C2483 1.334 . S
C2484 C2485 1.287 . S
C2485 C2484 1.287 . S
C2485 C2486 1.524 . S
C2485 H2488 0.999 . S
C2486 H2456 0.950 . S
C2486 C2485 1.524 . S
C2486 C2487 1.415 . S
C2487 H2457 0.950 . S
C2487 C2482 1.363 . S
C2487 C2486 1.415 . S
H2488 C2485 0.999 . S
H2489 C2470 0.913 . S
H2490 C2508 0.951 . S
H2491 C2510 0.951 . S
H2492 C2512 0.950 . S
H2493 C2513 0.950 . S
H2494 C2515 0.950 . S
H2495 C2518 0.950 . S
H2496 C2519 0.950 . S
H2497 C2521 0.950 . S
H2498 C2522 0.950 . S
H2499 C2523 0.951 . S
H2500 C2525 0.951 . S
H2501 C2527 0.950 . S
H2502 C2528 0.950 . S
H2503 C2530 0.950 . S
H2504 C2533 0.950 . S
H2505 C2534 0.950 . S
H2506 C2536 0.950 . S
H2507 C2537 0.950 . S
C2508 H2490 0.951 . S
C2508 C2509 1.366 . S
C2508 C2510 1.388 . S
C2509 C2508 1.366 . S
C2509 C2513 1.385 . S
C2510 H2491 0.951 . S
C2510 C2508 1.388 . S
C2510 C2511 1.366 . S
C2511 C2510 1.366 . S
C2511 C2512 1.414 . S
C2511 C2514 1.499 . S
C2512 H2492 0.950 . S
C2512 C2511 1.414 . S
C2512 C2513 1.374 . S
C2513 H2493 0.950 . S
C2513 C2509 1.385 . S
C2513 C2512 1.374 . S
C2514 C2511 1.499 . S
C2514 C2515 1.373 . S
C2514 C2516 1.389 . S
C2515 H2494 0.950 . S
C2515 C2514 1.373 . S
C2515 C2531 1.377 . S
C2516 C2514 1.389 . S
C2516 C2517 1.524 . S
C2516 C2530 1.377 . S
C2517 C2516 1.524 . S
C2517 C2518 1.397 . S
C2517 C2522 1.363 . S
C2518 H2495 0.950 . S
C2518 C2517 1.397 . S
C2518 C2519 1.334 . S
C2519 H2496 0.950 . S
C2519 C2518 1.334 . S
C2519 C2520 1.287 . S
C2520 C2519 1.287 . S
C2520 C2521 1.524 . S
C2520 H2539 0.913 . S
C2521 H2497 0.950 . S
C2521 C2520 1.524 . S
C2521 C2522 1.415 . S
C2522 H2498 0.950 . S
C2522 C2517 1.363 . S
C2522 C2521 1.415 . S
C2523 H2499 0.951 . S
C2523 C2524 1.366 . S
C2523 C2525 1.388 . S
C2524 C2523 1.366 . S
C2524 C2528 1.385 . S
C2525 H2500 0.951 . S
C2525 C2523 1.388 . S
C2525 C2526 1.366 . S
C2526 C2525 1.366 . S
C2526 C2527 1.414 . S
C2526 C2529 1.499 . S
C2527 H2501 0.950 . S
C2527 C2526 1.414 . S
C2527 C2528 1.374 . S
C2528 H2502 0.950 . S
C2528 C2524 1.385 . S
C2528 C2527 1.374 . S
C2529 C2526 1.499 . S
C2529 C2530 1.373 . S
C2529 C2531 1.389 . S
C2530 H2503 0.950 . S
C2530 C2516 1.377 . S
C2530 C2529 1.373 . S
C2531 C2515 1.377 . S
C2531 C2529 1.389 . S
C2531 C2532 1.524 . S
C2532 C2531 1.524 . S
C2532 C2533 1.397 . S
C2532 C2537 1.363 . S
C2533 H2504 0.950 . S
C2533 C2532 1.397 . S
C2533 C2534 1.334 . S
C2534 H2505 0.950 . S
C2534 C2533 1.334 . S
C2534 C2535 1.287 . S
C2535 C2534 1.287 . S
C2535 C2536 1.524 . S
C2535 H2538 0.999 . S
C2536 H2506 0.950 . S
C2536 C2535 1.524 . S
C2536 C2537 1.415 . S
C2537 H2507 0.950 . S
C2537 C2532 1.363 . S
C2537 C2536 1.415 . S
H2538 C2535 0.999 . S
H2539 C2520 0.913 . S
H2540 C2558 0.951 . S
H2541 C2560 0.951 . S
H2542 C2562 0.950 . S
H2543 C2563 0.950 . S
H2544 C2565 0.950 . S
H2545 C2568 0.950 . S
H2546 C2569 0.950 . S
H2547 C2571 0.950 . S
H2548 C2572 0.950 . S
H2549 C2573 0.951 . S
H2550 C2575 0.951 . S
H2551 C2577 0.950 . S
H2552 C2578 0.950 . S
H2553 C2580 0.950 . S
H2554 C2583 0.950 . S
H2555 C2584 0.950 . S
H2556 C2586 0.950 . S
H2557 C2587 0.950 . S
C2558 H2540 0.951 . S
C2558 C2559 1.366 . S
C2558 C2560 1.388 . S
C2559 C2558 1.366 . S
C2559 C2563 1.385 . S
C2560 H2541 0.951 . S
C2560 C2558 1.388 . S
C2560 C2561 1.366 . S
C2561 C2560 1.366 . S
C2561 C2562 1.414 . S
C2561 C2564 1.499 . S
C2562 H2542 0.950 . S
C2562 C2561 1.414 . S
C2562 C2563 1.374 . S
C2563 H2543 0.950 . S
C2563 C2559 1.385 . S
C2563 C2562 1.374 . S
C2564 C2561 1.499 . S
C2564 C2565 1.373 . S
C2564 C2566 1.389 . S
C2565 H2544 0.950 . S
C2565 C2564 1.373 . S
C2565 C2581 1.377 . S
C2566 C2564 1.389 . S
C2566 C2567 1.524 . S
C2566 C2580 1.377 . S
C2567 C2566 1.524 . S
C2567 C2568 1.397 . S
C2567 C2572 1.363 . S
C2568 H2545 0.950 . S
C2568 C2567 1.397 . S
C2568 C2569 1.334 . S
C2569 H2546 0.950 . S
C2569 C2568 1.334 . S
C2569 C2570 1.287 . S
C2570 C2569 1.287 . S
C2570 C2571 1.524 . S
C2570 H2589 0.913 . S
C2571 H2547 0.950 . S
C2571 C2570 1.524 . S
C2571 C2572 1.415 . S
C2572 H2548 0.950 . S
C2572 C2567 1.363 . S
C2572 C2571 1.415 . S
C2573 H2549 0.951 . S
C2573 C2574 1.366 . S
C2573 C2575 1.388 . S
C2574 C2573 1.366 . S
C2574 C2578 1.385 . S
C2575 H2550 0.951 . S
C2575 C2573 1.388 . S
C2575 C2576 1.366 . S
C2576 C2575 1.366 . S
C2576 C2577 1.414 . S
C2576 C2579 1.499 . S
C2577 H2551 0.950 . S
C2577 C2576 1.414 . S
C2577 C2578 1.374 . S
C2578 H2552 0.950 . S
C2578 C2574 1.385 . S
C2578 C2577 1.374 . S
C2579 C2576 1.499 . S
C2579 C2580 1.373 . S
C2579 C2581 1.389 . S
C2580 H2553 0.950 . S
C2580 C2566 1.377 . S
C2580 C2579 1.373 . S
C2581 C2565 1.377 . S
C2581 C2579 1.389 . S
C2581 C2582 1.524 . S
C2582 C2581 1.524 . S
C2582 C2583 1.397 . S
C2582 C2587 1.363 . S
C2583 H2554 0.950 . S
C2583 C2582 1.397 . S
C2583 C2584 1.334 . S
C2584 H2555 0.950 . S
C2584 C2583 1.334 . S
C2584 C2585 1.287 . S
C2585 C2584 1.287 . S
C2585 C2586 1.524 . S
C2585 H2588 0.999 . S
C2586 H2556 0.950 . S
C2586 C2585 1.524 . S
C2586 C2587 1.415 . S
C2587 H2557 0.950 . S
C2587 C2582 1.363 . S
C2587 C2586 1.415 . S
H2588 C2585 0.999 . S
H2589 C2570 0.913 . S
H2590 C2608 0.951 . S
H2591 C2610 0.951 . S
H2592 C2612 0.950 . S
H2593 C2613 0.950 . S
H2594 C2615 0.950 . S
H2595 C2618 0.950 . S
H2596 C2619 0.950 . S
H2597 C2621 0.950 . S
H2598 C2622 0.950 . S
H2599 C2623 0.951 . S
H2600 C2625 0.951 . S
H2601 C2627 0.950 . S
H2602 C2628 0.950 . S
H2603 C2630 0.950 . S
H2604 C2633 0.950 . S
H2605 C2634 0.950 . S
H2606 C2636 0.950 . S
H2607 C2637 0.950 . S
C2608 H2590 0.951 . S
C2608 C2609 1.366 . S
C2608 C2610 1.388 . S
C2609 C2608 1.366 . S
C2609 C2613 1.385 . S
C2610 H2591 0.951 . S
C2610 C2608 1.388 . S
C2610 C2611 1.366 . S
C2611 C2610 1.366 . S
C2611 C2612 1.414 . S
C2611 C2614 1.499 . S
C2612 H2592 0.950 . S
C2612 C2611 1.414 . S
C2612 C2613 1.374 . S
C2613 H2593 0.950 . S
C2613 C2609 1.385 . S
C2613 C2612 1.374 . S
C2614 C2611 1.499 . S
C2614 C2615 1.373 . S
C2614 C2616 1.389 . S
C2615 H2594 0.950 . S
C2615 C2614 1.373 . S
C2615 C2631 1.377 . S
C2616 C2614 1.389 . S
C2616 C2617 1.524 . S
C2616 C2630 1.377 . S
C2617 C2616 1.524 . S
C2617 C2618 1.397 . S
C2617 C2622 1.363 . S
C2618 H2595 0.950 . S
C2618 C2617 1.397 . S
C2618 C2619 1.334 . S
C2619 H2596 0.950 . S
C2619 C2618 1.334 . S
C2619 C2620 1.287 . S
C2620 C2619 1.287 . S
C2620 C2621 1.524 . S
C2620 H2639 0.913 . S
C2621 H2597 0.950 . S
C2621 C2620 1.524 . S
C2621 C2622 1.415 . S
C2622 H2598 0.950 . S
C2622 C2617 1.363 . S
C2622 C2621 1.415 . S
C2623 H2599 0.951 . S
C2623 C2624 1.366 . S
C2623 C2625 1.388 . S
C2624 C2623 1.366 . S
C2624 C2628 1.385 . S
C2625 H2600 0.951 . S
C2625 C2623 1.388 . S
C2625 C2626 1.366 . S
C2626 C2625 1.366 . S
C2626 C2627 1.414 . S
C2626 C2629 1.499 1_655 S
C2627 H2601 0.950 . S
C2627 C2626 1.414 . S
C2627 C2628 1.374 . S
C2628 H2602 0.950 . S
C2628 C2624 1.385 . S
C2628 C2627 1.374 . S
C2629 C2626 1.499 1_455 S
C2629 C2630 1.373 . S
C2629 C2631 1.389 . S
C2630 H2603 0.950 . S
C2630 C2616 1.377 . S
C2630 C2629 1.373 . S
C2631 C2615 1.377 . S
C2631 C2629 1.389 . S
C2631 C2632 1.524 1_455 S
C2632 C2631 1.524 1_655 S
C2632 C2633 1.397 . S
C2632 C2637 1.363 . S
C2633 H2604 0.950 . S
C2633 C2632 1.397 . S
C2633 C2634 1.334 . S
C2634 H2605 0.950 . S
C2634 C2633 1.334 . S
C2634 C2635 1.287 . S
C2635 C2634 1.287 . S
C2635 C2636 1.524 . S
C2635 H2638 0.999 . S
C2636 H2606 0.950 . S
C2636 C2635 1.524 . S
C2636 C2637 1.415 . S
C2637 H2607 0.950 . S
C2637 C2632 1.363 . S
C2637 C2636 1.415 . S
H2638 C2635 0.999 . S
H2639 C2620 0.913 . S
H2640 C2658 0.951 . S
H2641 C2660 0.951 . S
H2642 C2662 0.950 . S
H2643 C2663 0.950 . S
H2644 C2665 0.950 . S
H2645 C2668 0.950 . S
H2646 C2669 0.950 . S
H2647 C2671 0.950 . S
H2648 C2672 0.950 . S
H2649 C2673 0.951 . S
H2650 C2675 0.951 . S
H2651 C2677 0.950 . S
H2652 C2678 0.950 . S
H2653 C2680 0.950 . S
H2654 C2683 0.950 . S
H2655 C2684 0.950 . S
H2656 C2686 0.950 . S
H2657 C2687 0.950 . S
C2658 H2640 0.951 . S
C2658 C2659 1.366 . S
C2658 C2660 1.388 . S
C2659 C2658 1.366 . S
C2659 C2663 1.385 . S
C2660 H2641 0.951 . S
C2660 C2658 1.388 . S
C2660 C2661 1.366 . S
C2661 C2660 1.366 . S
C2661 C2662 1.414 . S
C2661 C2664 1.499 . S
C2662 H2642 0.950 . S
C2662 C2661 1.414 . S
C2662 C2663 1.374 . S
C2663 H2643 0.950 . S
C2663 C2659 1.385 . S
C2663 C2662 1.374 . S
C2664 C2661 1.499 . S
C2664 C2665 1.373 . S
C2664 C2666 1.389 . S
C2665 H2644 0.950 . S
C2665 C2664 1.373 . S
C2665 C2681 1.377 . S
C2666 C2664 1.389 . S
C2666 C2667 1.524 . S
C2666 C2680 1.377 . S
C2667 C2666 1.524 . S
C2667 C2668 1.397 . S
C2667 C2672 1.363 . S
C2668 H2645 0.950 . S
C2668 C2667 1.397 . S
C2668 C2669 1.334 . S
C2669 H2646 0.950 . S
C2669 C2668 1.334 . S
C2669 C2670 1.287 . S
C2670 C2669 1.287 . S
C2670 C2671 1.524 . S
C2670 H2689 0.913 . S
C2671 H2647 0.950 . S
C2671 C2670 1.524 . S
C2671 C2672 1.415 . S
C2672 H2648 0.950 . S
C2672 C2667 1.363 . S
C2672 C2671 1.415 . S
C2673 H2649 0.951 . S
C2673 C2674 1.366 . S
C2673 C2675 1.388 . S
C2674 C2673 1.366 . S
C2674 C2678 1.385 . S
C2675 H2650 0.951 . S
C2675 C2673 1.388 . S
C2675 C2676 1.366 . S
C2676 C2675 1.366 . S
C2676 C2677 1.414 . S
C2676 C2679 1.499 . S
C2677 H2651 0.950 . S
C2677 C2676 1.414 . S
C2677 C2678 1.374 . S
C2678 H2652 0.950 . S
C2678 C2674 1.385 . S
C2678 C2677 1.374 . S
C2679 C2676 1.499 . S
C2679 C2680 1.373 . S
C2679 C2681 1.389 . S
C2680 H2653 0.950 . S
C2680 C2666 1.377 . S
C2680 C2679 1.373 . S
C2681 C2665 1.377 . S
C2681 C2679 1.389 . S
C2681 C2682 1.524 . S
C2682 C2681 1.524 . S
C2682 C2683 1.397 . S
C2682 C2687 1.363 . S
C2683 H2654 0.950 . S
C2683 C2682 1.397 . S
C2683 C2684 1.334 . S
C2684 H2655 0.950 . S
C2684 C2683 1.334 . S
C2684 C2685 1.287 . S
C2685 C2684 1.287 . S
C2685 C2686 1.524 . S
C2685 H2688 0.999 . S
C2686 H2656 0.950 . S
C2686 C2685 1.524 . S
C2686 C2687 1.415 . S
C2687 H2657 0.950 . S
C2687 C2682 1.363 . S
C2687 C2686 1.415 . S
H2688 C2685 0.999 . S
H2689 C2670 0.913 . S
H2690 C2708 0.951 . S
H2691 C2710 0.951 . S
H2692 C2712 0.950 . S
H2693 C2713 0.950 . S
H2694 C2715 0.950 1_455 S
H2695 C2718 0.950 1_455 S
H2696 C2719 0.950 . S
H2697 C2721 0.950 . S
H2698 C2722 0.950 . S
H2699 C2723 0.951 . S
H2700 C2725 0.951 . S
H2701 C2727 0.950 . S
H2702 C2728 0.950 . S
H2703 C2730 0.950 . S
H2704 C2733 0.950 . S
H2705 C2734 0.950 . S
H2706 C2736 0.950 . S
H2707 C2737 0.950 . S
C2708 H2690 0.951 . S
C2708 C2709 1.366 . S
C2708 C2710 1.388 . S
C2709 C2708 1.366 . S
C2709 C2713 1.385 . S
C2710 H2691 0.951 . S
C2710 C2708 1.388 . S
C2710 C2711 1.366 . S
C2711 C2710 1.366 . S
C2711 C2712 1.414 . S
C2711 C2714 1.499 1_455 S
C2712 H2692 0.950 . S
C2712 C2711 1.414 . S
C2712 C2713 1.374 . S
C2713 H2693 0.950 . S
C2713 C2709 1.385 . S
C2713 C2712 1.374 . S
C2714 C2711 1.499 1_655 S
C2714 C2715 1.373 . S
C2714 C2716 1.389 . S
C2715 H2694 0.950 1_655 S
C2715 C2714 1.373 . S
C2715 C2731 1.377 . S
C2716 C2714 1.389 . S
C2716 C2717 1.524 . S
C2716 C2730 1.377 . S
C2717 C2716 1.524 . S
C2717 C2718 1.397 . S
C2717 C2722 1.363 . S
C2718 H2695 0.950 1_655 S
C2718 C2717 1.397 . S
C2718 C2719 1.334 1_655 S
C2719 H2696 0.950 . S
C2719 C2718 1.334 1_455 S
C2719 C2720 1.287 1_455 S
C2720 C2719 1.287 1_655 S
C2720 C2721 1.524 . S
C2720 H2739 0.913 . S
C2721 H2697 0.950 . S
C2721 C2720 1.524 . S
C2721 C2722 1.415 . S
C2722 H2698 0.950 . S
C2722 C2717 1.363 . S
C2722 C2721 1.415 . S
C2723 H2699 0.951 . S
C2723 C2724 1.366 . S
C2723 C2725 1.388 . S
C2724 C2723 1.366 . S
C2724 C2728 1.385 . S
C2725 H2700 0.951 . S
C2725 C2723 1.388 . S
C2725 C2726 1.366 . S
C2726 C2725 1.366 . S
C2726 C2727 1.414 . S
C2726 C2729 1.499 . S
C2727 H2701 0.950 . S
C2727 C2726 1.414 . S
C2727 C2728 1.374 . S
C2728 H2702 0.950 . S
C2728 C2724 1.385 . S
C2728 C2727 1.374 . S
C2729 C2726 1.499 . S
C2729 C2730 1.373 . S
C2729 C2731 1.389 . S
C2730 H2703 0.950 . S
C2730 C2716 1.377 . S
C2730 C2729 1.373 . S
C2731 C2715 1.377 . S
C2731 C2729 1.389 . S
C2731 C2732 1.524 . S
C2732 C2731 1.524 . S
C2732 C2733 1.397 . S
C2732 C2737 1.363 . S
C2733 H2704 0.950 . S
C2733 C2732 1.397 . S
C2733 C2734 1.334 . S
C2734 H2705 0.950 . S
C2734 C2733 1.334 . S
C2734 C2735 1.287 . S
C2735 C2734 1.287 . S
C2735 C2736 1.524 . S
C2735 H2738 0.999 . S
C2736 H2706 0.950 . S
C2736 C2735 1.524 . S
C2736 C2737 1.415 . S
C2737 H2707 0.950 . S
C2737 C2732 1.363 . S
C2737 C2736 1.415 . S
H2738 C2735 0.999 . S
H2739 C2720 0.913 . S
H2740 C2758 0.951 . S
H2741 C2760 0.951 . S
H2742 C2762 0.950 . S
H2743 C2763 0.950 . S
H2744 C2765 0.950 . S
H2745 C2768 0.950 . S
H2746 C2769 0.950 . S
H2747 C2771 0.950 . S
H2748 C2772 0.950 . S
H2749 C2773 0.951 . S
H2750 C2775 0.951 . S
H2751 C2777 0.950 . S
H2752 C2778 0.950 . S
H2753 C2780 0.950 . S
H2754 C2783 0.950 . S
H2755 C2784 0.950 . S
H2756 C2786 0.950 . S
H2757 C2787 0.950 . S
C2758 H2740 0.951 . S
C2758 C2759 1.366 . S
C2758 C2760 1.388 . S
C2759 C2758 1.366 . S
C2759 C2763 1.385 . S
C2760 H2741 0.951 . S
C2760 C2758 1.388 . S
C2760 C2761 1.366 . S
C2761 C2760 1.366 . S
C2761 C2762 1.414 . S
C2761 C2764 1.499 . S
C2762 H2742 0.950 . S
C2762 C2761 1.414 . S
C2762 C2763 1.374 . S
C2763 H2743 0.950 . S
C2763 C2759 1.385 . S
C2763 C2762 1.374 . S
C2764 C2761 1.499 . S
C2764 C2765 1.373 . S
C2764 C2766 1.389 . S
C2765 H2744 0.950 . S
C2765 C2764 1.373 . S
C2765 C2781 1.377 . S
C2766 C2764 1.389 . S
C2766 C2767 1.524 . S
C2766 C2780 1.377 . S
C2767 C2766 1.524 . S
C2767 C2768 1.397 . S
C2767 C2772 1.363 . S
C2768 H2745 0.950 . S
C2768 C2767 1.397 . S
C2768 C2769 1.334 . S
C2769 H2746 0.950 . S
C2769 C2768 1.334 . S
C2769 C2770 1.287 . S
C2770 C2769 1.287 . S
C2770 C2771 1.524 . S
C2770 H2789 0.913 . S
C2771 H2747 0.950 . S
C2771 C2770 1.524 . S
C2771 C2772 1.415 . S
C2772 H2748 0.950 . S
C2772 C2767 1.363 . S
C2772 C2771 1.415 . S
C2773 H2749 0.951 . S
C2773 C2774 1.366 . S
C2773 C2775 1.388 . S
C2774 C2773 1.366 . S
C2774 C2778 1.385 . S
C2775 H2750 0.951 . S
C2775 C2773 1.388 . S
C2775 C2776 1.366 . S
C2776 C2775 1.366 . S
C2776 C2777 1.414 . S
C2776 C2779 1.499 . S
C2777 H2751 0.950 . S
C2777 C2776 1.414 . S
C2777 C2778 1.374 . S
C2778 H2752 0.950 . S
C2778 C2774 1.385 . S
C2778 C2777 1.374 . S
C2779 C2776 1.499 . S
C2779 C2780 1.373 . S
C2779 C2781 1.389 . S
C2780 H2753 0.950 . S
C2780 C2766 1.377 . S
C2780 C2779 1.373 . S
C2781 C2765 1.377 . S
C2781 C2779 1.389 . S
C2781 C2782 1.524 . S
C2782 C2781 1.524 . S
C2782 C2783 1.397 . S
C2782 C2787 1.363 . S
C2783 H2754 0.950 . S
C2783 C2782 1.397 . S
C2783 C2784 1.334 . S
C2784 H2755 0.950 . S
C2784 C2783 1.334 . S
C2784 C2785 1.287 . S
C2785 C2784 1.287 . S
C2785 C2786 1.524 . S
C2785 H2788 0.999 . S
C2786 H2756 0.950 . S
C2786 C2785 1.524 . S
C2786 C2787 1.415 . S
C2787 H2757 0.950 . S
C2787 C2782 1.363 . S
C2787 C2786 1.415 . S
H2788 C2785 0.999 . S
H2789 C2770 0.913 . S
H2790 C2808 0.951 . S
H2791 C2810 0.951 . S
H2792 C2812 0.950 . S
H2793 C2813 0.950 . S
H2794 C2815 0.950 . S
H2795 C2818 0.950 . S
H2796 C2819 0.950 . S
H2797 C2821 0.950 . S
H2798 C2822 0.950 . S
H2799 C2823 0.951 . S
H2800 C2825 0.951 . S
H2801 C2827 0.950 . S
H2802 C2828 0.950 . S
H2803 C2830 0.950 . S
H2804 C2833 0.950 . S
H2805 C2834 0.950 . S
H2806 C2836 0.950 . S
H2807 C2837 0.950 . S
C2808 H2790 0.951 . S
C2808 C2809 1.366 . S
C2808 C2810 1.388 . S
C2809 C2808 1.366 . S
C2809 C2813 1.385 . S
C2810 H2791 0.951 . S
C2810 C2808 1.388 . S
C2810 C2811 1.366 . S
C2811 C2810 1.366 . S
C2811 C2812 1.414 . S
C2811 C2814 1.499 . S
C2812 H2792 0.950 . S
C2812 C2811 1.414 . S
C2812 C2813 1.374 . S
C2813 H2793 0.950 . S
C2813 C2809 1.385 . S
C2813 C2812 1.374 . S
C2814 C2811 1.499 . S
C2814 C2815 1.373 . S
C2814 C2816 1.389 . S
C2815 H2794 0.950 . S
C2815 C2814 1.373 . S
C2815 C2831 1.377 . S
C2816 C2814 1.389 . S
C2816 C2817 1.524 . S
C2816 C2830 1.377 . S
C2817 C2816 1.524 . S
C2817 C2818 1.397 . S
C2817 C2822 1.363 . S
C2818 H2795 0.950 . S
C2818 C2817 1.397 . S
C2818 C2819 1.334 . S
C2819 H2796 0.950 . S
C2819 C2818 1.334 . S
C2819 C2820 1.287 . S
C2820 C2819 1.287 . S
C2820 C2821 1.524 . S
C2820 H2839 0.913 . S
C2821 H2797 0.950 . S
C2821 C2820 1.524 . S
C2821 C2822 1.415 . S
C2822 H2798 0.950 . S
C2822 C2817 1.363 . S
C2822 C2821 1.415 . S
C2823 H2799 0.951 . S
C2823 C2824 1.366 . S
C2823 C2825 1.388 . S
C2824 C2823 1.366 . S
C2824 C2828 1.385 . S
C2825 H2800 0.951 . S
C2825 C2823 1.388 . S
C2825 C2826 1.366 . S
C2826 C2825 1.366 . S
C2826 C2827 1.414 . S
C2826 C2829 1.499 . S
C2827 H2801 0.950 . S
C2827 C2826 1.414 . S
C2827 C2828 1.374 . S
C2828 H2802 0.950 . S
C2828 C2824 1.385 . S
C2828 C2827 1.374 . S
C2829 C2826 1.499 . S
C2829 C2830 1.373 . S
C2829 C2831 1.389 . S
C2830 H2803 0.950 . S
C2830 C2816 1.377 . S
C2830 C2829 1.373 . S
C2831 C2815 1.377 . S
C2831 C2829 1.389 . S
C2831 C2832 1.524 . S
C2832 C2831 1.524 . S
C2832 C2833 1.397 . S
C2832 C2837 1.363 . S
C2833 H2804 0.950 . S
C2833 C2832 1.397 . S
C2833 C2834 1.334 . S
C2834 H2805 0.950 . S
C2834 C2833 1.334 . S
C2834 C2835 1.287 . S
C2835 C2834 1.287 . S
C2835 C2836 1.524 . S
C2835 H2838 0.999 . S
C2836 H2806 0.950 . S
C2836 C2835 1.524 . S
C2836 C2837 1.415 . S
C2837 H2807 0.950 . S
C2837 C2832 1.363 . S
C2837 C2836 1.415 . S
H2838 C2835 0.999 . S
H2839 C2820 0.913 . S
H2840 C2858 0.951 . S
H2841 C2860 0.951 . S
H2842 C2862 0.950 . S
H2843 C2863 0.950 . S
H2844 C2865 0.950 . S
H2845 C2868 0.950 . S
H2846 C2869 0.950 . S
H2847 C2871 0.950 . S
H2848 C2872 0.950 . S
H2849 C2873 0.951 . S
H2850 C2875 0.951 . S
H2851 C2877 0.950 . S
H2852 C2878 0.950 . S
H2853 C2880 0.950 . S
H2854 C2883 0.950 . S
H2855 C2884 0.950 . S
H2856 C2886 0.950 . S
H2857 C2887 0.950 . S
C2858 H2840 0.951 . S
C2858 C2859 1.366 . S
C2858 C2860 1.388 . S
C2859 C2858 1.366 . S
C2859 C2863 1.385 . S
C2860 H2841 0.951 . S
C2860 C2858 1.388 . S
C2860 C2861 1.366 . S
C2861 C2860 1.366 . S
C2861 C2862 1.414 . S
C2861 C2864 1.499 . S
C2862 H2842 0.950 . S
C2862 C2861 1.414 . S
C2862 C2863 1.374 . S
C2863 H2843 0.950 . S
C2863 C2859 1.385 . S
C2863 C2862 1.374 . S
C2864 C2861 1.499 . S
C2864 C2865 1.373 . S
C2864 C2866 1.389 . S
C2865 H2844 0.950 . S
C2865 C2864 1.373 . S
C2865 C2881 1.377 . S
C2866 C2864 1.389 . S
C2866 C2867 1.524 . S
C2866 C2880 1.377 . S
C2867 C2866 1.524 . S
C2867 C2868 1.397 . S
C2867 C2872 1.363 . S
C2868 H2845 0.950 . S
C2868 C2867 1.397 . S
C2868 C2869 1.334 . S
C2869 H2846 0.950 . S
C2869 C2868 1.334 . S
C2869 C2870 1.287 . S
C2870 C2869 1.287 . S
C2870 C2871 1.524 . S
C2870 H2889 0.913 . S
C2871 H2847 0.950 . S
C2871 C2870 1.524 . S
C2871 C2872 1.415 . S
C2872 H2848 0.950 . S
C2872 C2867 1.363 . S
C2872 C2871 1.415 . S
C2873 H2849 0.951 . S
C2873 C2874 1.366 . S
C2873 C2875 1.388 . S
C2874 C2873 1.366 . S
C2874 C2878 1.385 . S
C2875 H2850 0.951 . S
C2875 C2873 1.388 . S
C2875 C2876 1.366 . S
C2876 C2875 1.366 . S
C2876 C2877 1.414 . S
C2876 C2879 1.499 . S
C2877 H2851 0.950 . S
C2877 C2876 1.414 . S
C2877 C2878 1.374 . S
C2878 H2852 0.950 . S
C2878 C2874 1.385 . S
C2878 C2877 1.374 . S
C2879 C2876 1.499 . S
C2879 C2880 1.373 . S
C2879 C2881 1.389 . S
C2880 H2853 0.950 . S
C2880 C2866 1.377 . S
C2880 C2879 1.373 . S
C2881 C2865 1.377 . S
C2881 C2879 1.389 . S
C2881 C2882 1.524 . S
C2882 C2881 1.524 . S
C2882 C2883 1.397 . S
C2882 C2887 1.363 . S
C2883 H2854 0.950 . S
C2883 C2882 1.397 . S
C2883 C2884 1.334 . S
C2884 H2855 0.950 . S
C2884 C2883 1.334 . S
C2884 C2885 1.287 . S
C2885 C2884 1.287 . S
C2885 C2886 1.524 . S
C2885 H2888 0.999 . S
C2886 H2856 0.950 . S
C2886 C2885 1.524 . S
C2886 C2887 1.415 . S
C2887 H2857 0.950 . S
C2887 C2882 1.363 . S
C2887 C2886 1.415 . S
H2888 C2885 0.999 . S
H2889 C2870 0.913 . S
H2890 C2908 0.951 . S
H2891 C2910 0.951 . S
H2892 C2912 0.950 . S
H2893 C2913 0.950 . S
H2894 C2915 0.950 . S
H2895 C2918 0.950 . S
H2896 C2919 0.950 . S
H2897 C2921 0.950 . S
H2898 C2922 0.950 . S
H2899 C2923 0.951 . S
H2900 C2925 0.951 . S
H2901 C2927 0.950 . S
H2902 C2928 0.950 . S
H2903 C2930 0.950 . S
H2904 C2933 0.950 . S
H2905 C2934 0.950 . S
H2906 C2936 0.950 . S
H2907 C2937 0.950 . S
C2908 H2890 0.951 . S
C2908 C2909 1.366 . S
C2908 C2910 1.388 . S
C2909 C2908 1.366 . S
C2909 C2913 1.385 . S
C2910 H2891 0.951 . S
C2910 C2908 1.388 . S
C2910 C2911 1.366 . S
C2911 C2910 1.366 . S
C2911 C2912 1.414 . S
C2911 C2914 1.499 . S
C2912 H2892 0.950 . S
C2912 C2911 1.414 . S
C2912 C2913 1.374 . S
C2913 H2893 0.950 . S
C2913 C2909 1.385 . S
C2913 C2912 1.374 . S
C2914 C2911 1.499 . S
C2914 C2915 1.373 . S
C2914 C2916 1.389 . S
C2915 H2894 0.950 . S
C2915 C2914 1.373 . S
C2915 C2931 1.377 . S
C2916 C2914 1.389 . S
C2916 C2917 1.524 . S
C2916 C2930 1.377 . S
C2917 C2916 1.524 . S
C2917 C2918 1.397 . S
C2917 C2922 1.363 . S
C2918 H2895 0.950 . S
C2918 C2917 1.397 . S
C2918 C2919 1.334 . S
C2919 H2896 0.950 . S
C2919 C2918 1.334 . S
C2919 C2920 1.287 . S
C2920 C2919 1.287 . S
C2920 C2921 1.524 . S
C2920 H2939 0.913 . S
C2921 H2897 0.950 . S
C2921 C2920 1.524 . S
C2921 C2922 1.415 . S
C2922 H2898 0.950 . S
C2922 C2917 1.363 . S
C2922 C2921 1.415 . S
C2923 H2899 0.951 . S
C2923 C2924 1.366 . S
C2923 C2925 1.388 . S
C2924 C2923 1.366 . S
C2924 C2928 1.385 . S
C2925 H2900 0.951 . S
C2925 C2923 1.388 . S
C2925 C2926 1.366 . S
C2926 C2925 1.366 . S
C2926 C2927 1.414 . S
C2926 C2929 1.499 . S
C2927 H2901 0.950 . S
C2927 C2926 1.414 . S
C2927 C2928 1.374 . S
C2928 H2902 0.950 . S
C2928 C2924 1.385 . S
C2928 C2927 1.374 . S
C2929 C2926 1.499 . S
C2929 C2930 1.373 . S
C2929 C2931 1.389 . S
C2930 H2903 0.950 . S
C2930 C2916 1.377 . S
C2930 C2929 1.373 . S
C2931 C2915 1.377 . S
C2931 C2929 1.389 . S
C2931 C2932 1.524 . S
C2932 C2931 1.524 . S
C2932 C2933 1.397 . S
C2932 C2937 1.363 . S
C2933 H2904 0.950 . S
C2933 C2932 1.397 . S
C2933 C2934 1.334 . S
C2934 H2905 0.950 . S
C2934 C2933 1.334 . S
C2934 C2935 1.287 . S
C2935 C2934 1.287 . S
C2935 C2936 1.524 . S
C2935 H2938 0.999 . S
C2936 H2906 0.950 . S
C2936 C2935 1.524 . S
C2936 C2937 1.415 . S
C2937 H2907 0.950 . S
C2937 C2932 1.363 . S
C2937 C2936 1.415 . S
H2938 C2935 0.999 . S
H2939 C2920 0.913 . S
H2940 C2958 0.951 . S
H2941 C2960 0.951 . S
H2942 C2962 0.950 . S
H2943 C2963 0.950 . S
H2944 C2965 0.950 . S
H2945 C2968 0.950 . S
H2946 C2969 0.950 . S
H2947 C2971 0.950 . S
H2948 C2972 0.950 . S
H2949 C2973 0.951 . S
H2950 C2975 0.951 . S
H2951 C2977 0.950 . S
H2952 C2978 0.950 . S
H2953 C2980 0.950 . S
H2954 C2983 0.950 . S
H2955 C2984 0.950 . S
H2956 C2986 0.950 . S
H2957 C2987 0.950 . S
C2958 H2940 0.951 . S
C2958 C2959 1.366 . S
C2958 C2960 1.388 . S
C2959 C2958 1.366 . S
C2959 C2963 1.385 . S
C2960 H2941 0.951 . S
C2960 C2958 1.388 . S
C2960 C2961 1.366 . S
C2961 C2960 1.366 . S
C2961 C2962 1.414 . S
C2961 C2964 1.499 . S
C2962 H2942 0.950 . S
C2962 C2961 1.414 . S
C2962 C2963 1.374 . S
C2963 H2943 0.950 . S
C2963 C2959 1.385 . S
C2963 C2962 1.374 . S
C2964 C2961 1.499 . S
C2964 C2965 1.373 . S
C2964 C2966 1.389 . S
C2965 H2944 0.950 . S
C2965 C2964 1.373 . S
C2965 C2981 1.377 . S
C2966 C2964 1.389 . S
C2966 C2967 1.524 . S
C2966 C2980 1.377 . S
C2967 C2966 1.524 . S
C2967 C2968 1.397 . S
C2967 C2972 1.363 . S
C2968 H2945 0.950 . S
C2968 C2967 1.397 . S
C2968 C2969 1.334 . S
C2969 H2946 0.950 . S
C2969 C2968 1.334 . S
C2969 C2970 1.287 . S
C2970 C2969 1.287 . S
C2970 C2971 1.524 . S
C2970 H2989 0.913 . S
C2971 H2947 0.950 . S
C2971 C2970 1.524 . S
C2971 C2972 1.415 . S
C2972 H2948 0.950 . S
C2972 C2967 1.363 . S
C2972 C2971 1.415 . S
C2973 H2949 0.951 . S
C2973 C2974 1.366 . S
C2973 C2975 1.388 . S
C2974 C2973 1.366 . S
C2974 C2978 1.385 . S
C2975 H2950 0.951 . S
C2975 C2973 1.388 . S
C2975 C2976 1.366 . S
C2976 C2975 1.366 . S
C2976 C2977 1.414 . S
C2976 C2979 1.499 . S
C2977 H2951 0.950 . S
C2977 C2976 1.414 . S
C2977 C2978 1.374 . S
C2978 H2952 0.950 . S
C2978 C2974 1.385 . S
C2978 C2977 1.374 . S
C2979 C2976 1.499 . S
C2979 C2980 1.373 . S
C2979 C2981 1.389 . S
C2980 H2953 0.950 . S
C2980 C2966 1.377 . S
C2980 C2979 1.373 . S
C2981 C2965 1.377 . S
C2981 C2979 1.389 . S
C2981 C2982 1.524 . S
C2982 C2981 1.524 . S
C2982 C2983 1.397 . S
C2982 C2987 1.363 . S
C2983 H2954 0.950 . S
C2983 C2982 1.397 . S
C2983 C2984 1.334 . S
C2984 H2955 0.950 . S
C2984 C2983 1.334 . S
C2984 C2985 1.287 . S
C2985 C2984 1.287 . S
C2985 C2986 1.524 . S
C2985 H2988 0.999 . S
C2986 H2956 0.950 . S
C2986 C2985 1.524 . S
C2986 C2987 1.415 . S
C2987 H2957 0.950 . S
C2987 C2982 1.363 . S
C2987 C2986 1.415 . S
H2988 C2985 0.999 . S
H2989 C2970 0.913 . S
H2990 C3008 0.951 . S
H2991 C3010 0.951 . S
H2992 C3012 0.950 . S
H2993 C3013 0.950 . S
H2994 C3015 0.950 . S
H2995 C3018 0.950 . S
H2996 C3019 0.950 . S
H2997 C3021 0.950 . S
H2998 C3022 0.950 . S
H2999 C3023 0.951 . S
H3000 C3025 0.951 . S
H3001 C3027 0.950 . S
H3002 C3028 0.950 . S
H3003 C3030 0.950 . S
H3004 C3033 0.950 . S
H3005 C3034 0.950 . S
H3006 C3036 0.950 . S
H3007 C3037 0.950 . S
C3008 H2990 0.951 . S
C3008 C3009 1.366 . S
C3008 C3010 1.388 . S
C3009 C3008 1.366 . S
C3009 C3013 1.385 . S
C3010 H2991 0.951 . S
C3010 C3008 1.388 . S
C3010 C3011 1.366 . S
C3011 C3010 1.366 . S
C3011 C3012 1.414 . S
C3011 C3014 1.499 . S
C3012 H2992 0.950 . S
C3012 C3011 1.414 . S
C3012 C3013 1.374 . S
C3013 H2993 0.950 . S
C3013 C3009 1.385 . S
C3013 C3012 1.374 . S
C3014 C3011 1.499 . S
C3014 C3015 1.373 . S
C3014 C3016 1.389 . S
C3015 H2994 0.950 . S
C3015 C3014 1.373 . S
C3015 C3031 1.377 . S
C3016 C3014 1.389 . S
C3016 C3017 1.524 . S
C3016 C3030 1.377 . S
C3017 C3016 1.524 . S
C3017 C3018 1.397 . S
C3017 C3022 1.363 . S
C3018 H2995 0.950 . S
C3018 C3017 1.397 . S
C3018 C3019 1.334 . S
C3019 H2996 0.950 . S
C3019 C3018 1.334 . S
C3019 C3020 1.287 . S
C3020 C3019 1.287 . S
C3020 C3021 1.524 . S
C3020 H3039 0.913 . S
C3021 H2997 0.950 . S
C3021 C3020 1.524 . S
C3021 C3022 1.415 . S
C3022 H2998 0.950 . S
C3022 C3017 1.363 . S
C3022 C3021 1.415 . S
C3023 H2999 0.951 . S
C3023 C3024 1.366 . S
C3023 C3025 1.388 . S
C3024 C3023 1.366 . S
C3024 C3028 1.385 . S
C3025 H3000 0.951 . S
C3025 C3023 1.388 . S
C3025 C3026 1.366 . S
C3026 C3025 1.366 . S
C3026 C3027 1.414 . S
C3026 C3029 1.499 1_455 S
C3027 H3001 0.950 . S
C3027 C3026 1.414 . S
C3027 C3028 1.374 . S
C3028 H3002 0.950 . S
C3028 C3024 1.385 . S
C3028 C3027 1.374 . S
C3029 C3026 1.499 1_655 S
C3029 C3030 1.373 . S
C3029 C3031 1.389 . S
C3030 H3003 0.950 . S
C3030 C3016 1.377 . S
C3030 C3029 1.373 . S
C3031 C3015 1.377 . S
C3031 C3029 1.389 . S
C3031 C3032 1.524 1_655 S
C3032 C3031 1.524 1_455 S
C3032 C3033 1.397 . S
C3032 C3037 1.363 . S
C3033 H3004 0.950 . S
C3033 C3032 1.397 . S
C3033 C3034 1.334 . S
C3034 H3005 0.950 . S
C3034 C3033 1.334 . S
C3034 C3035 1.287 . S
C3035 C3034 1.287 . S
C3035 C3036 1.524 . S
C3035 H3038 0.999 . S
C3036 H3006 0.950 . S
C3036 C3035 1.524 . S
C3036 C3037 1.415 . S
C3037 H3007 0.950 . S
C3037 C3032 1.363 . S
C3037 C3036 1.415 . S
H3038 C3035 0.999 . S
H3039 C3020 0.913 . S
H3040 C3058 0.951 . S
H3041 C3060 0.951 . S
H3042 C3062 0.950 . S
H3043 C3063 0.950 . S
H3044 C3065 0.950 . S
H3045 C3068 0.950 . S
H3046 C3069 0.950 . S
H3047 C3071 0.950 . S
H3048 C3072 0.950 . S
H3049 C3073 0.951 . S
H3050 C3075 0.951 . S
H3051 C3077 0.950 . S
H3052 C3078 0.950 . S
H3053 C3080 0.950 . S
H3054 C3083 0.950 . S
H3055 C3084 0.950 . S
H3056 C3086 0.950 . S
H3057 C3087 0.950 . S
C3058 H3040 0.951 . S
C3058 C3059 1.366 . S
C3058 C3060 1.388 . S
C3059 C3058 1.366 . S
C3059 C3063 1.385 . S
C3060 H3041 0.951 . S
C3060 C3058 1.388 . S
C3060 C3061 1.366 . S
C3061 C3060 1.366 . S
C3061 C3062 1.414 . S
C3061 C3064 1.499 . S
C3062 H3042 0.950 . S
C3062 C3061 1.414 . S
C3062 C3063 1.374 . S
C3063 H3043 0.950 . S
C3063 C3059 1.385 . S
C3063 C3062 1.374 . S
C3064 C3061 1.499 . S
C3064 C3065 1.373 . S
C3064 C3066 1.389 . S
C3065 H3044 0.950 . S
C3065 C3064 1.373 . S
C3065 C3081 1.377 . S
C3066 C3064 1.389 . S
C3066 C3067 1.524 . S
C3066 C3080 1.377 . S
C3067 C3066 1.524 . S
C3067 C3068 1.397 . S
C3067 C3072 1.363 . S
C3068 H3045 0.950 . S
C3068 C3067 1.397 . S
C3068 C3069 1.334 . S
C3069 H3046 0.950 . S
C3069 C3068 1.334 . S
C3069 C3070 1.287 . S
C3070 C3069 1.287 . S
C3070 C3071 1.524 . S
C3070 H3089 0.913 . S
C3071 H3047 0.950 . S
C3071 C3070 1.524 . S
C3071 C3072 1.415 . S
C3072 H3048 0.950 . S
C3072 C3067 1.363 . S
C3072 C3071 1.415 . S
C3073 H3049 0.951 . S
C3073 C3074 1.366 . S
C3073 C3075 1.388 . S
C3074 C3073 1.366 . S
C3074 C3078 1.385 . S
C3075 H3050 0.951 . S
C3075 C3073 1.388 . S
C3075 C3076 1.366 . S
C3076 C3075 1.366 . S
C3076 C3077 1.414 . S
C3076 C3079 1.499 . S
C3077 H3051 0.950 . S
C3077 C3076 1.414 . S
C3077 C3078 1.374 . S
C3078 H3052 0.950 . S
C3078 C3074 1.385 . S
C3078 C3077 1.374 . S
C3079 C3076 1.499 . S
C3079 C3080 1.373 . S
C3079 C3081 1.389 . S
C3080 H3053 0.950 . S
C3080 C3066 1.377 . S
C3080 C3079 1.373 . S
C3081 C3065 1.377 . S
C3081 C3079 1.389 . S
C3081 C3082 1.524 . S
C3082 C3081 1.524 . S
C3082 C3083 1.397 . S
C3082 C3087 1.363 . S
C3083 H3054 0.950 . S
C3083 C3082 1.397 . S
C3083 C3084 1.334 . S
C3084 H3055 0.950 . S
C3084 C3083 1.334 . S
C3084 C3085 1.287 . S
C3085 C3084 1.287 . S
C3085 C3086 1.524 . S
C3085 H3088 0.999 . S
C3086 H3056 0.950 . S
C3086 C3085 1.524 . S
C3086 C3087 1.415 . S
C3087 H3057 0.950 . S
C3087 C3082 1.363 . S
C3087 C3086 1.415 . S
H3088 C3085 0.999 . S
H3089 C3070 0.913 . S
H3090 C3108 0.951 . S
H3091 C3110 0.951 . S
H3092 C3112 0.950 . S
H3093 C3113 0.950 . S
H3094 C3115 0.950 . S
H3095 C3118 0.950 . S
H3096 C3119 0.950 . S
H3097 C3121 0.950 . S
H3098 C3122 0.950 . S
H3099 C3123 0.951 . S
H3100 C3125 0.951 . S
H3101 C3127 0.950 . S
H3102 C3128 0.950 . S
H3103 C3130 0.950 . S
H3104 C3133 0.950 . S
H3105 C3134 0.950 . S
H3106 C3136 0.950 . S
H3107 C3137 0.950 . S
C3108 H3090 0.951 . S
C3108 C3109 1.366 . S
C3108 C3110 1.388 . S
C3109 C3108 1.366 . S
C3109 C3113 1.385 . S
C3110 H3091 0.951 . S
C3110 C3108 1.388 . S
C3110 C3111 1.366 . S
C3111 C3110 1.366 . S
C3111 C3112 1.414 . S
C3111 C3114 1.499 . S
C3112 H3092 0.950 . S
C3112 C3111 1.414 . S
C3112 C3113 1.374 . S
C3113 H3093 0.950 . S
C3113 C3109 1.385 . S
C3113 C3112 1.374 . S
C3114 C3111 1.499 . S
C3114 C3115 1.373 . S
C3114 C3116 1.389 . S
C3115 H3094 0.950 . S
C3115 C3114 1.373 . S
C3115 C3131 1.377 . S
C3116 C3114 1.389 . S
C3116 C3117 1.524 . S
C3116 C3130 1.377 . S
C3117 C3116 1.524 . S
C3117 C3118 1.397 . S
C3117 C3122 1.363 . S
C3118 H3095 0.950 . S
C3118 C3117 1.397 . S
C3118 C3119 1.334 . S
C3119 H3096 0.950 . S
C3119 C3118 1.334 . S
C3119 C3120 1.287 . S
C3120 C3119 1.287 . S
C3120 C3121 1.524 . S
C3120 H3139 0.913 . S
C3121 H3097 0.950 . S
C3121 C3120 1.524 . S
C3121 C3122 1.415 . S
C3122 H3098 0.950 . S
C3122 C3117 1.363 . S
C3122 C3121 1.415 . S
C3123 H3099 0.951 . S
C3123 C3124 1.366 . S
C3123 C3125 1.388 . S
C3124 C3123 1.366 . S
C3124 C3128 1.385 . S
C3125 H3100 0.951 . S
C3125 C3123 1.388 . S
C3125 C3126 1.366 . S
C3126 C3125 1.366 . S
C3126 C3127 1.414 . S
C3126 C3129 1.499 . S
C3127 H3101 0.950 . S
C3127 C3126 1.414 . S
C3127 C3128 1.374 . S
C3128 H3102 0.950 . S
C3128 C3124 1.385 . S
C3128 C3127 1.374 . S
C3129 C3126 1.499 . S
C3129 C3130 1.373 . S
C3129 C3131 1.389 . S
C3130 H3103 0.950 . S
C3130 C3116 1.377 . S
C3130 C3129 1.373 . S
C3131 C3115 1.377 . S
C3131 C3129 1.389 . S
C3131 C3132 1.524 . S
C3132 C3131 1.524 . S
C3132 C3133 1.397 . S
C3132 C3137 1.363 . S
C3133 H3104 0.950 . S
C3133 C3132 1.397 . S
C3133 C3134 1.334 . S
C3134 H3105 0.950 . S
C3134 C3133 1.334 . S
C3134 C3135 1.287 . S
C3135 C3134 1.287 . S
C3135 C3136 1.524 . S
C3135 H3138 0.999 . S
C3136 H3106 0.950 . S
C3136 C3135 1.524 . S
C3136 C3137 1.415 . S
C3137 H3107 0.950 . S
C3137 C3132 1.363 . S
C3137 C3136 1.415 . S
H3138 C3135 0.999 . S
H3139 C3120 0.913 . S
H3140 C3158 0.951 . S
H3141 C3160 0.951 . S
H3142 C3162 0.950 . S
H3143 C3163 0.950 . S
H3144 C3165 0.950 . S
H3145 C3168 0.950 . S
H3146 C3169 0.950 . S
H3147 C3171 0.950 . S
H3148 C3172 0.950 . S
H3149 C3173 0.951 . S
H3150 C3175 0.951 . S
H3151 C3177 0.950 . S
H3152 C3178 0.950 . S
H3153 C3180 0.950 . S
H3154 C3183 0.950 . S
H3155 C3184 0.950 . S
H3156 C3186 0.950 . S
H3157 C3187 0.950 . S
C3158 H3140 0.951 . S
C3158 C3159 1.366 . S
C3158 C3160 1.388 . S
C3159 C3158 1.366 . S
C3159 C3163 1.385 . S
C3160 H3141 0.951 . S
C3160 C3158 1.388 . S
C3160 C3161 1.366 . S
C3161 C3160 1.366 . S
C3161 C3162 1.414 . S
C3161 C3164 1.499 . S
C3162 H3142 0.950 . S
C3162 C3161 1.414 . S
C3162 C3163 1.374 . S
C3163 H3143 0.950 . S
C3163 C3159 1.385 . S
C3163 C3162 1.374 . S
C3164 C3161 1.499 . S
C3164 C3165 1.373 . S
C3164 C3166 1.389 . S
C3165 H3144 0.950 . S
C3165 C3164 1.373 . S
C3165 C3181 1.377 . S
C3166 C3164 1.389 . S
C3166 C3167 1.524 . S
C3166 C3180 1.377 . S
C3167 C3166 1.524 . S
C3167 C3168 1.397 . S
C3167 C3172 1.363 . S
C3168 H3145 0.950 . S
C3168 C3167 1.397 . S
C3168 C3169 1.334 . S
C3169 H3146 0.950 . S
C3169 C3168 1.334 . S
C3169 C3170 1.287 . S
C3170 C3169 1.287 . S
C3170 C3171 1.524 . S
C3170 H3189 0.913 . S
C3171 H3147 0.950 . S
C3171 C3170 1.524 . S
C3171 C3172 1.415 . S
C3172 H3148 0.950 . S
C3172 C3167 1.363 . S
C3172 C3171 1.415 . S
C3173 H3149 0.951 . S
C3173 C3174 1.366 . S
C3173 C3175 1.388 . S
C3174 C3173 1.366 . S
C3174 C3178 1.385 . S
C3175 H3150 0.951 . S
C3175 C3173 1.388 . S
C3175 C3176 1.366 . S
C3176 C3175 1.366 . S
C3176 C3177 1.414 . S
C3176 C3179 1.499 . S
C3177 H3151 0.950 . S
C3177 C3176 1.414 . S
C3177 C3178 1.374 . S
C3178 H3152 0.950 . S
C3178 C3174 1.385 . S
C3178 C3177 1.374 . S
C3179 C3176 1.499 . S
C3179 C3180 1.373 . S
C3179 C3181 1.389 . S
C3180 H3153 0.950 . S
C3180 C3166 1.377 . S
C3180 C3179 1.373 . S
C3181 C3165 1.377 . S
C3181 C3179 1.389 . S
C3181 C3182 1.524 . S
C3182 C3181 1.524 . S
C3182 C3183 1.397 . S
C3182 C3187 1.363 . S
C3183 H3154 0.950 . S
C3183 C3182 1.397 . S
C3183 C3184 1.334 . S
C3184 H3155 0.950 . S
C3184 C3183 1.334 . S
C3184 C3185 1.287 . S
C3185 C3184 1.287 . S
C3185 C3186 1.524 . S
C3185 H3188 0.999 . S
C3186 H3156 0.950 . S
C3186 C3185 1.524 . S
C3186 C3187 1.415 . S
C3187 H3157 0.950 . S
C3187 C3182 1.363 . S
C3187 C3186 1.415 . S
H3188 C3185 0.999 . S
H3189 C3170 0.913 . S
H3190 C3208 0.951 . S
H3191 C3210 0.951 . S
H3192 C3212 0.950 . S
H3193 C3213 0.950 . S
H3194 C3215 0.950 . S
H3195 C3218 0.950 . S
H3196 C3219 0.950 . S
H3197 C3221 0.950 . S
H3198 C3222 0.950 . S
H3199 C3223 0.951 . S
H3200 C3225 0.951 . S
H3201 C3227 0.950 . S
H3202 C3228 0.950 . S
H3203 C3230 0.950 1_455 S
H3204 C3233 0.950 . S
H3205 C3234 0.953 . S
H3206 C3236 0.950 . S
H3207 C3237 0.950 . S
C3208 H3190 0.951 . S
C3208 C3209 1.366 . S
C3208 C3210 1.388 . S
C3209 C3208 1.366 . S
C3209 C3213 1.385 . S
C3210 H3191 0.951 . S
C3210 C3208 1.388 . S
C3210 C3211 1.366 . S
C3211 C3210 1.366 . S
C3211 C3212 1.414 . S
C3211 C3214 1.499 . S
C3212 H3192 0.950 . S
C3212 C3211 1.414 . S
C3212 C3213 1.374 . S
C3213 H3193 0.950 . S
C3213 C3209 1.385 . S
C3213 C3212 1.374 . S
C3214 C3211 1.499 . S
C3214 C3215 1.373 . S
C3214 C3216 1.389 . S
C3215 H3194 0.950 . S
C3215 C3214 1.373 . S
C3215 C3231 1.377 . S
C3216 C3214 1.389 . S
C3216 C3217 1.524 . S
C3216 C3230 1.377 . S
C3217 C3216 1.524 . S
C3217 C3218 1.397 . S
C3217 C3222 1.363 . S
C3218 H3195 0.950 . S
C3218 C3217 1.397 . S
C3218 C3219 1.334 . S
C3219 H3196 0.950 . S
C3219 C3218 1.334 . S
C3219 C3220 1.287 . S
C3220 C3219 1.287 . S
C3220 C3221 1.524 . S
C3220 H3239 0.913 . S
C3221 H3197 0.950 . S
C3221 C3220 1.524 . S
C3221 C3222 1.415 . S
C3222 H3198 0.950 . S
C3222 C3217 1.363 . S
C3222 C3221 1.415 . S
C3223 H3199 0.951 . S
C3223 C3224 1.366 . S
C3223 C3225 1.388 . S
C3224 C3223 1.366 . S
C3224 C3228 1.385 . S
C3225 H3200 0.951 . S
C3225 C3223 1.388 . S
C3225 C3226 1.366 . S
C3226 C3225 1.366 . S
C3226 C3227 1.414 . S
C3226 C3229 1.499 1_455 S
C3227 H3201 0.950 . S
C3227 C3226 1.414 . S
C3227 C3228 1.374 . S
C3228 H3202 0.950 . S
C3228 C3224 1.385 . S
C3228 C3227 1.374 . S
C3229 C3226 1.499 1_655 S
C3229 C3230 1.373 . S
C3229 C3231 1.389 . S
C3230 H3203 0.950 1_655 S
C3230 C3216 1.377 . S
C3230 C3229 1.373 . S
C3231 C3215 1.377 . S
C3231 C3229 1.389 . S
C3231 C3232 1.524 . S
C3232 C3231 1.524 . S
C3232 C3233 1.397 . S
C3232 C3237 1.363 . S
C3233 H3204 0.950 . S
C3233 C3232 1.397 . S
C3233 C3234 1.334 . S
C3234 H3205 0.953 . S
C3234 C3233 1.334 . S
C3234 C3235 1.287 . S
C3235 C3234 1.287 . S
C3235 C3236 1.524 . S
C3235 H3238 0.999 . S
C3236 H3206 0.950 . S
C3236 C3235 1.524 . S
C3236 C3237 1.415 . S
C3237 H3207 0.950 . S
C3237 C3232 1.363 . S
C3237 C3236 1.415 . S
H3238 C3235 0.999 . S
H3239 C3220 0.913 . S
H3240 C3258 0.951 . S
H3241 C3260 0.951 . S
H3242 C3262 0.950 . S
H3243 C3263 0.950 . S
H3244 C3265 0.950 . S
H3245 C3268 0.950 . S
H3246 C3269 0.950 . S
H3247 C3271 0.950 . S
H3248 C3272 0.950 . S
H3249 C3273 0.951 . S
H3250 C3275 0.951 . S
H3251 C3277 0.950 . S
H3252 C3278 0.950 . S
H3253 C3280 0.950 . S
H3254 C3283 0.950 . S
H3255 C3284 0.950 . S
H3256 C3286 0.950 . S
H3257 C3287 0.950 . S
C3258 H3240 0.951 . S
C3258 C3259 1.366 . S
C3258 C3260 1.388 . S
C3259 C3258 1.366 . S
C3259 C3263 1.385 . S
C3260 H3241 0.951 . S
C3260 C3258 1.388 . S
C3260 C3261 1.366 . S
C3261 C3260 1.366 . S
C3261 C3262 1.414 . S
C3261 C3264 1.499 . S
C3262 H3242 0.950 . S
C3262 C3261 1.414 . S
C3262 C3263 1.374 . S
C3263 H3243 0.950 . S
C3263 C3259 1.385 . S
C3263 C3262 1.374 . S
C3264 C3261 1.499 . S
C3264 C3265 1.373 . S
C3264 C3266 1.389 . S
C3265 H3244 0.950 . S
C3265 C3264 1.373 . S
C3265 C3281 1.377 . S
C3266 C3264 1.389 . S
C3266 C3267 1.524 . S
C3266 C3280 1.377 . S
C3267 C3266 1.524 . S
C3267 C3268 1.397 . S
C3267 C3272 1.363 . S
C3268 H3245 0.950 . S
C3268 C3267 1.397 . S
C3268 C3269 1.334 . S
C3269 H3246 0.950 . S
C3269 C3268 1.334 . S
C3269 C3270 1.287 . S
C3270 C3269 1.287 . S
C3270 C3271 1.524 . S
C3270 H3289 0.913 . S
C3271 H3247 0.950 . S
C3271 C3270 1.524 . S
C3271 C3272 1.415 . S
C3272 H3248 0.950 . S
C3272 C3267 1.363 . S
C3272 C3271 1.415 . S
C3273 H3249 0.951 . S
C3273 C3274 1.366 . S
C3273 C3275 1.388 . S
C3274 C3273 1.366 . S
C3274 C3278 1.385 . S
C3275 H3250 0.951 . S
C3275 C3273 1.388 . S
C3275 C3276 1.366 . S
C3276 C3275 1.366 . S
C3276 C3277 1.414 . S
C3276 C3279 1.499 . S
C3277 H3251 0.950 . S
C3277 C3276 1.414 . S
C3277 C3278 1.374 . S
C3278 H3252 0.950 . S
C3278 C3274 1.385 . S
C3278 C3277 1.374 . S
C3279 C3276 1.499 . S
C3279 C3280 1.373 . S
C3279 C3281 1.389 . S
C3280 H3253 0.950 . S
C3280 C3266 1.377 . S
C3280 C3279 1.373 . S
C3281 C3265 1.377 . S
C3281 C3279 1.389 . S
C3281 C3282 1.524 . S
C3282 C3281 1.524 . S
C3282 C3283 1.397 . S
C3282 C3287 1.363 . S
C3283 H3254 0.950 . S
C3283 C3282 1.397 . S
C3283 C3284 1.334 . S
C3284 H3255 0.950 . S
C3284 C3283 1.334 . S
C3284 C3285 1.287 . S
C3285 C3284 1.287 . S
C3285 C3286 1.524 . S
C3285 H3288 0.999 . S
C3286 H3256 0.950 . S
C3286 C3285 1.524 . S
C3286 C3287 1.415 . S
C3287 H3257 0.950 . S
C3287 C3282 1.363 . S
C3287 C3286 1.415 . S
H3288 C3285 0.999 . S
H3289 C3270 0.913 . S
H3290 C3308 0.951 . S
H3291 C3310 0.951 . S
H3292 C3312 0.950 . S
H3293 C3313 0.950 . S
H3294 C3315 0.950 . S
H3295 C3318 0.950 . S
H3296 C3319 0.950 . S
H3297 C3321 0.950 . S
H3298 C3322 0.950 . S
H3299 C3323 0.951 . S
H3300 C3325 0.951 . S
H3301 C3327 0.950 . S
H3302 C3328 0.950 . S
H3303 C3330 0.950 . S
H3304 C3333 0.950 . S
H3305 C3334 0.950 . S
H3306 C3336 0.950 . S
H3307 C3337 0.950 . S
C3308 H3290 0.951 . S
C3308 C3309 1.366 . S
C3308 C3310 1.388 . S
C3309 C3308 1.366 . S
C3309 C3313 1.385 . S
C3310 H3291 0.951 . S
C3310 C3308 1.388 . S
C3310 C3311 1.366 . S
C3311 C3310 1.366 . S
C3311 C3312 1.414 . S
C3311 C3314 1.499 . S
C3312 H3292 0.950 . S
C3312 C3311 1.414 . S
C3312 C3313 1.374 . S
C3313 H3293 0.950 . S
C3313 C3309 1.385 . S
C3313 C3312 1.374 . S
C3314 C3311 1.499 . S
C3314 C3315 1.373 . S
C3314 C3316 1.389 . S
C3315 H3294 0.950 . S
C3315 C3314 1.373 . S
C3315 C3331 1.377 . S
C3316 C3314 1.389 . S
C3316 C3317 1.524 . S
C3316 C3330 1.377 . S
C3317 C3316 1.524 . S
C3317 C3318 1.397 . S
C3317 C3322 1.363 . S
C3318 H3295 0.950 . S
C3318 C3317 1.397 . S
C3318 C3319 1.334 . S
C3319 H3296 0.950 . S
C3319 C3318 1.334 . S
C3319 C3320 1.287 . S
C3320 C3319 1.287 . S
C3320 C3321 1.524 . S
C3320 H3339 0.913 . S
C3321 H3297 0.950 . S
C3321 C3320 1.524 . S
C3321 C3322 1.415 . S
C3322 H3298 0.950 . S
C3322 C3317 1.363 . S
C3322 C3321 1.415 . S
C3323 H3299 0.951 . S
C3323 C3324 1.366 . S
C3323 C3325 1.388 . S
C3324 C3323 1.366 . S
C3324 C3328 1.385 . S
C3325 H3300 0.951 . S
C3325 C3323 1.388 . S
C3325 C3326 1.366 . S
C3326 C3325 1.366 . S
C3326 C3327 1.414 . S
C3326 C3329 1.499 1_455 S
C3327 H3301 0.950 . S
C3327 C3326 1.414 . S
C3327 C3328 1.374 . S
C3328 H3302 0.950 . S
C3328 C3324 1.385 . S
C3328 C3327 1.374 . S
C3329 C3326 1.499 1_655 S
C3329 C3330 1.373 . S
C3329 C3331 1.389 . S
C3330 H3303 0.950 . S
C3330 C3316 1.377 . S
C3330 C3329 1.373 . S
C3331 C3315 1.377 . S
C3331 C3329 1.389 . S
C3331 C3332 1.524 1_655 S
C3332 C3331 1.524 1_455 S
C3332 C3333 1.397 . S
C3332 C3337 1.363 . S
C3333 H3304 0.950 . S
C3333 C3332 1.397 . S
C3333 C3334 1.334 . S
C3334 H3305 0.950 . S
C3334 C3333 1.334 . S
C3334 C3335 1.287 . S
C3335 C3334 1.287 . S
C3335 C3336 1.524 . S
C3335 H3338 0.999 . S
C3336 H3306 0.950 . S
C3336 C3335 1.524 . S
C3336 C3337 1.415 . S
C3337 H3307 0.950 . S
C3337 C3332 1.363 . S
C3337 C3336 1.415 . S
H3338 C3335 0.999 . S
H3339 C3320 0.913 . S
H3340 C3358 0.951 . S
H3341 C3360 0.951 . S
H3342 C3362 0.950 . S
H3343 C3363 0.950 . S
H3344 C3365 0.950 . S
H3345 C3368 0.950 . S
H3346 C3369 0.950 . S
H3347 C3371 0.950 . S
H3348 C3372 0.950 . S
H3349 C3373 0.951 . S
H3350 C3375 0.951 . S
H3351 C3377 0.950 . S
H3352 C3378 0.950 . S
H3353 C3380 0.950 . S
H3354 C3383 0.950 . S
H3355 C3384 0.950 . S
H3356 C3386 0.950 . S
H3357 C3387 0.950 . S
C3358 H3340 0.951 . S
C3358 C3359 1.366 . S
C3358 C3360 1.388 . S
C3359 C3358 1.366 . S
C3359 C3363 1.385 . S
C3360 H3341 0.951 . S
C3360 C3358 1.388 . S
C3360 C3361 1.366 . S
C3361 C3360 1.366 . S
C3361 C3362 1.414 . S
C3361 C3364 1.499 . S
C3362 H3342 0.950 . S
C3362 C3361 1.414 . S
C3362 C3363 1.374 . S
C3363 H3343 0.950 . S
C3363 C3359 1.385 . S
C3363 C3362 1.374 . S
C3364 C3361 1.499 . S
C3364 C3365 1.373 . S
C3364 C3366 1.389 . S
C3365 H3344 0.950 . S
C3365 C3364 1.373 . S
C3365 C3381 1.377 . S
C3366 C3364 1.389 . S
C3366 C3367 1.524 . S
C3366 C3380 1.377 . S
C3367 C3366 1.524 . S
C3367 C3368 1.397 . S
C3367 C3372 1.363 . S
C3368 H3345 0.950 . S
C3368 C3367 1.397 . S
C3368 C3369 1.334 . S
C3369 H3346 0.950 . S
C3369 C3368 1.334 . S
C3369 C3370 1.287 . S
C3370 C3369 1.287 . S
C3370 C3371 1.524 . S
C3370 H3389 0.913 . S
C3371 H3347 0.950 . S
C3371 C3370 1.524 . S
C3371 C3372 1.415 . S
C3372 H3348 0.950 . S
C3372 C3367 1.363 . S
C3372 C3371 1.415 . S
C3373 H3349 0.951 . S
C3373 C3374 1.366 . S
C3373 C3375 1.388 . S
C3374 C3373 1.366 . S
C3374 C3378 1.385 . S
C3375 H3350 0.951 . S
C3375 C3373 1.388 . S
C3375 C3376 1.366 . S
C3376 C3375 1.366 . S
C3376 C3377 1.414 . S
C3376 C3379 1.499 . S
C3377 H3351 0.950 . S
C3377 C3376 1.414 . S
C3377 C3378 1.374 . S
C3378 H3352 0.950 . S
C3378 C3374 1.385 . S
C3378 C3377 1.374 . S
C3379 C3376 1.499 . S
C3379 C3380 1.373 . S
C3379 C3381 1.389 . S
C3380 H3353 0.950 . S
C3380 C3366 1.377 . S
C3380 C3379 1.373 . S
C3381 C3365 1.377 . S
C3381 C3379 1.389 . S
C3381 C3382 1.524 . S
C3382 C3381 1.524 . S
C3382 C3383 1.397 . S
C3382 C3387 1.363 . S
C3383 H3354 0.950 . S
C3383 C3382 1.397 . S
C3383 C3384 1.334 . S
C3384 H3355 0.950 . S
C3384 C3383 1.334 . S
C3384 C3385 1.287 . S
C3385 C3384 1.287 . S
C3385 C3386 1.524 . S
C3385 H3388 0.999 . S
C3386 H3356 0.950 . S
C3386 C3385 1.524 . S
C3386 C3387 1.415 . S
C3387 H3357 0.950 . S
C3387 C3382 1.363 . S
C3387 C3386 1.415 . S
H3388 C3385 0.999 . S
H3389 C3370 0.913 . S
H3390 C3408 0.951 . S
H3391 C3410 0.951 . S
H3392 C3412 0.950 . S
H3393 C3413 0.950 . S
H3394 C3415 0.950 . S
H3395 C3418 0.950 . S
H3396 C3419 0.950 . S
H3397 C3421 0.950 . S
H3398 C3422 0.950 . S
H3399 C3423 0.951 . S
H3400 C3425 0.951 . S
H3401 C3427 0.950 . S
H3402 C3428 0.950 . S
H3403 C3430 0.950 . S
H3404 C3433 0.950 . S
H3405 C3434 0.950 . S
H3406 C3436 0.950 . S
H3407 C3437 0.950 . S
C3408 H3390 0.951 . S
C3408 C3409 1.366 . S
C3408 C3410 1.388 . S
C3409 C3408 1.366 . S
C3409 C3413 1.385 . S
C3410 H3391 0.951 . S
C3410 C3408 1.388 . S
C3410 C3411 1.366 . S
C3411 C3410 1.366 . S
C3411 C3412 1.414 . S
C3411 C3414 1.499 . S
C3412 H3392 0.950 . S
C3412 C3411 1.414 . S
C3412 C3413 1.374 . S
C3413 H3393 0.950 . S
C3413 C3409 1.385 . S
C3413 C3412 1.374 . S
C3414 C3411 1.499 . S
C3414 C3415 1.373 . S
C3414 C3416 1.389 . S
C3415 H3394 0.950 . S
C3415 C3414 1.373 . S
C3415 C3431 1.377 . S
C3416 C3414 1.389 . S
C3416 C3417 1.524 . S
C3416 C3430 1.377 . S
C3417 C3416 1.524 . S
C3417 C3418 1.397 . S
C3417 C3422 1.363 . S
C3418 H3395 0.950 . S
C3418 C3417 1.397 . S
C3418 C3419 1.334 . S
C3419 H3396 0.950 . S
C3419 C3418 1.334 . S
C3419 C3420 1.287 . S
C3420 C3419 1.287 . S
C3420 C3421 1.524 . S
C3420 H3439 0.913 . S
C3421 H3397 0.950 . S
C3421 C3420 1.524 . S
C3421 C3422 1.415 . S
C3422 H3398 0.950 . S
C3422 C3417 1.363 . S
C3422 C3421 1.415 . S
C3423 H3399 0.951 . S
C3423 C3424 1.366 . S
C3423 C3425 1.388 . S
C3424 C3423 1.366 . S
C3424 C3428 1.385 . S
C3425 H3400 0.951 . S
C3425 C3423 1.388 . S
C3425 C3426 1.366 . S
C3426 C3425 1.366 . S
C3426 C3427 1.414 . S
C3426 C3429 1.499 . S
C3427 H3401 0.950 . S
C3427 C3426 1.414 . S
C3427 C3428 1.374 . S
C3428 H3402 0.950 . S
C3428 C3424 1.385 . S
C3428 C3427 1.374 . S
C3429 C3426 1.499 . S
C3429 C3430 1.373 . S
C3429 C3431 1.389 . S
C3430 H3403 0.950 . S
C3430 C3416 1.377 . S
C3430 C3429 1.373 . S
C3431 C3415 1.377 . S
C3431 C3429 1.389 . S
C3431 C3432 1.524 . S
C3432 C3431 1.524 . S
C3432 C3433 1.397 . S
C3432 C3437 1.363 . S
C3433 H3404 0.950 . S
C3433 C3432 1.397 . S
C3433 C3434 1.334 . S
C3434 H3405 0.950 . S
C3434 C3433 1.334 . S
C3434 C3435 1.287 . S
C3435 C3434 1.287 . S
C3435 C3436 1.524 . S
C3435 H3438 0.999 . S
C3436 H3406 0.950 . S
C3436 C3435 1.524 . S
C3436 C3437 1.415 . S
C3437 H3407 0.950 . S
C3437 C3432 1.363 . S
C3437 C3436 1.415 . S
H3438 C3435 0.999 . S
H3439 C3420 0.913 . S
H3440 C3458 0.951 . S
H3441 C3460 0.951 . S
H3442 C3462 0.950 . S
H3443 C3463 0.950 . S
H3444 C3465 0.950 . S
H3445 C3468 0.950 . S
H3446 C3469 0.950 . S
H3447 C3471 0.950 . S
H3448 C3472 0.950 . S
H3449 C3473 0.951 . S
H3450 C3475 0.951 . S
H3451 C3477 0.950 . S
H3452 C3478 0.950 . S
H3453 C3480 0.950 . S
H3454 C3483 0.950 . S
H3455 C3484 0.950 . S
H3456 C3486 0.950 . S
H3457 C3487 0.950 . S
C3458 H3440 0.951 . S
C3458 C3459 1.366 . S
C3458 C3460 1.388 . S
C3459 C3458 1.366 . S
C3459 C3463 1.385 . S
C3460 H3441 0.951 . S
C3460 C3458 1.388 . S
C3460 C3461 1.366 . S
C3461 C3460 1.366 . S
C3461 C3462 1.414 . S
C3461 C3464 1.499 . S
C3462 H3442 0.950 . S
C3462 C3461 1.414 . S
C3462 C3463 1.374 . S
C3463 H3443 0.950 . S
C3463 C3459 1.385 . S
C3463 C3462 1.374 . S
C3464 C3461 1.499 . S
C3464 C3465 1.373 . S
C3464 C3466 1.389 . S
C3465 H3444 0.950 . S
C3465 C3464 1.373 . S
C3465 C3481 1.377 . S
C3466 C3464 1.389 . S
C3466 C3467 1.524 . S
C3466 C3480 1.377 . S
C3467 C3466 1.524 . S
C3467 C3468 1.397 . S
C3467 C3472 1.363 . S
C3468 H3445 0.950 . S
C3468 C3467 1.397 . S
C3468 C3469 1.334 . S
C3469 H3446 0.950 . S
C3469 C3468 1.334 . S
C3469 C3470 1.287 . S
C3470 C3469 1.287 . S
C3470 C3471 1.524 . S
C3470 H3489 0.913 . S
C3471 H3447 0.950 . S
C3471 C3470 1.524 . S
C3471 C3472 1.415 . S
C3472 H3448 0.950 . S
C3472 C3467 1.363 . S
C3472 C3471 1.415 . S
C3473 H3449 0.951 . S
C3473 C3474 1.366 . S
C3473 C3475 1.388 . S
C3474 C3473 1.366 . S
C3474 C3478 1.385 . S
C3475 H3450 0.951 . S
C3475 C3473 1.388 . S
C3475 C3476 1.366 . S
C3476 C3475 1.366 . S
C3476 C3477 1.414 . S
C3476 C3479 1.499 . S
C3477 H3451 0.950 . S
C3477 C3476 1.414 . S
C3477 C3478 1.374 . S
C3478 H3452 0.950 . S
C3478 C3474 1.385 . S
C3478 C3477 1.374 . S
C3479 C3476 1.499 . S
C3479 C3480 1.373 . S
C3479 C3481 1.389 . S
C3480 H3453 0.950 . S
C3480 C3466 1.377 . S
C3480 C3479 1.373 . S
C3481 C3465 1.377 . S
C3481 C3479 1.389 . S
C3481 C3482 1.524 . S
C3482 C3481 1.524 . S
C3482 C3483 1.397 . S
C3482 C3487 1.363 . S
C3483 H3454 0.950 . S
C3483 C3482 1.397 . S
C3483 C3484 1.334 . S
C3484 H3455 0.950 . S
C3484 C3483 1.334 . S
C3484 C3485 1.287 . S
C3485 C3484 1.287 . S
C3485 C3486 1.524 . S
C3485 H3488 0.999 . S
C3486 H3456 0.950 . S
C3486 C3485 1.524 . S
C3486 C3487 1.415 . S
C3487 H3457 0.950 . S
C3487 C3482 1.363 . S
C3487 C3486 1.415 . S
H3488 C3485 0.999 . S
H3489 C3470 0.913 . S
H3490 C3508 0.951 . S
H3491 C3510 0.951 . S
H3492 C3512 0.950 . S
H3493 C3513 0.950 . S
H3494 C3515 0.950 . S
H3495 C3518 0.950 . S
H3496 C3519 0.950 . S
H3497 C3521 0.950 . S
H3498 C3522 0.950 . S
H3499 C3523 0.951 . S
H3500 C3525 0.951 . S
H3501 C3527 0.950 . S
H3502 C3528 0.950 . S
H3503 C3530 0.950 . S
H3504 C3533 0.950 . S
H3505 C3534 0.950 . S
H3506 C3536 0.950 . S
H3507 C3537 0.950 . S
C3508 H3490 0.951 . S
C3508 C3509 1.366 . S
C3508 C3510 1.388 . S
C3509 C3508 1.366 . S
C3509 C3513 1.385 . S
C3510 H3491 0.951 . S
C3510 C3508 1.388 . S
C3510 C3511 1.366 . S
C3511 C3510 1.366 . S
C3511 C3512 1.414 . S
C3511 C3514 1.499 . S
C3512 H3492 0.950 . S
C3512 C3511 1.414 . S
C3512 C3513 1.374 . S
C3513 H3493 0.950 . S
C3513 C3509 1.385 . S
C3513 C3512 1.374 . S
C3514 C3511 1.499 . S
C3514 C3515 1.373 . S
C3514 C3516 1.389 . S
C3515 H3494 0.950 . S
C3515 C3514 1.373 . S
C3515 C3531 1.377 . S
C3516 C3514 1.389 . S
C3516 C3517 1.524 . S
C3516 C3530 1.377 . S
C3517 C3516 1.524 . S
C3517 C3518 1.397 . S
C3517 C3522 1.363 . S
C3518 H3495 0.950 . S
C3518 C3517 1.397 . S
C3518 C3519 1.334 . S
C3519 H3496 0.950 . S
C3519 C3518 1.334 . S
C3519 C3520 1.287 . S
C3520 C3519 1.287 . S
C3520 C3521 1.524 . S
C3520 H3539 0.913 . S
C3521 H3497 0.950 . S
C3521 C3520 1.524 . S
C3521 C3522 1.415 . S
C3522 H3498 0.950 . S
C3522 C3517 1.363 . S
C3522 C3521 1.415 . S
C3523 H3499 0.951 . S
C3523 C3524 1.366 . S
C3523 C3525 1.388 . S
C3524 C3523 1.366 . S
C3524 C3528 1.385 . S
C3525 H3500 0.951 . S
C3525 C3523 1.388 . S
C3525 C3526 1.366 . S
C3526 C3525 1.366 . S
C3526 C3527 1.414 . S
C3526 C3529 1.499 . S
C3527 H3501 0.950 . S
C3527 C3526 1.414 . S
C3527 C3528 1.374 . S
C3528 H3502 0.950 . S
C3528 C3524 1.385 . S
C3528 C3527 1.374 . S
C3529 C3526 1.499 . S
C3529 C3530 1.373 . S
C3529 C3531 1.389 . S
C3530 H3503 0.950 . S
C3530 C3516 1.377 . S
C3530 C3529 1.373 . S
C3531 C3515 1.377 . S
C3531 C3529 1.389 . S
C3531 C3532 1.524 . S
C3532 C3531 1.524 . S
C3532 C3533 1.397 . S
C3532 C3537 1.363 . S
C3533 H3504 0.950 . S
C3533 C3532 1.397 . S
C3533 C3534 1.334 . S
C3534 H3505 0.950 . S
C3534 C3533 1.334 . S
C3534 C3535 1.287 . S
C3535 C3534 1.287 . S
C3535 C3536 1.524 . S
C3535 H3538 0.999 . S
C3536 H3506 0.950 . S
C3536 C3535 1.524 . S
C3536 C3537 1.415 . S
C3537 H3507 0.950 . S
C3537 C3532 1.363 . S
C3537 C3536 1.415 . S
H3538 C3535 0.999 . S
H3539 C3520 0.913 . S
H3540 C3558 0.951 . S
H3541 C3560 0.951 . S
H3542 C3562 0.950 . S
H3543 C3563 0.950 . S
H3544 C3565 0.950 . S
H3545 C3568 0.950 . S
H3546 C3569 0.950 . S
H3547 C3571 0.950 . S
H3548 C3572 0.950 . S
H3549 C3573 0.951 . S
H3550 C3575 0.951 . S
H3551 C3577 0.950 . S
H3552 C3578 0.950 . S
H3553 C3580 0.950 . S
H3554 C3583 0.950 . S
H3555 C3584 0.950 . S
H3556 C3586 0.950 . S
H3557 C3587 0.950 . S
C3558 H3540 0.951 . S
C3558 C3559 1.366 . S
C3558 C3560 1.388 . S
C3559 C3558 1.366 . S
C3559 C3563 1.385 . S
C3560 H3541 0.951 . S
C3560 C3558 1.388 . S
C3560 C3561 1.366 . S
C3561 C3560 1.366 . S
C3561 C3562 1.414 . S
C3561 C3564 1.499 . S
C3562 H3542 0.950 . S
C3562 C3561 1.414 . S
C3562 C3563 1.374 . S
C3563 H3543 0.950 . S
C3563 C3559 1.385 . S
C3563 C3562 1.374 . S
C3564 C3561 1.499 . S
C3564 C3565 1.373 . S
C3564 C3566 1.389 . S
C3565 H3544 0.950 . S
C3565 C3564 1.373 . S
C3565 C3581 1.377 . S
C3566 C3564 1.389 . S
C3566 C3567 1.524 . S
C3566 C3580 1.377 . S
C3567 C3566 1.524 . S
C3567 C3568 1.397 . S
C3567 C3572 1.363 . S
C3568 H3545 0.950 . S
C3568 C3567 1.397 . S
C3568 C3569 1.334 . S
C3569 H3546 0.950 . S
C3569 C3568 1.334 . S
C3569 C3570 1.287 . S
C3570 C3569 1.287 . S
C3570 C3571 1.524 . S
C3570 H3589 0.913 . S
C3571 H3547 0.950 . S
C3571 C3570 1.524 . S
C3571 C3572 1.415 . S
C3572 H3548 0.950 . S
C3572 C3567 1.363 . S
C3572 C3571 1.415 . S
C3573 H3549 0.951 . S
C3573 C3574 1.366 . S
C3573 C3575 1.388 . S
C3574 C3573 1.366 . S
C3574 C3578 1.385 . S
C3575 H3550 0.951 . S
C3575 C3573 1.388 . S
C3575 C3576 1.366 . S
C3576 C3575 1.366 . S
C3576 C3577 1.414 . S
C3576 C3579 1.499 . S
C3577 H3551 0.950 . S
C3577 C3576 1.414 . S
C3577 C3578 1.374 . S
C3578 H3552 0.950 . S
C3578 C3574 1.385 . S
C3578 C3577 1.374 . S
C3579 C3576 1.499 . S
C3579 C3580 1.373 . S
C3579 C3581 1.389 . S
C3580 H3553 0.950 . S
C3580 C3566 1.377 . S
C3580 C3579 1.373 . S
C3581 C3565 1.377 . S
C3581 C3579 1.389 . S
C3581 C3582 1.524 . S
C3582 C3581 1.524 . S
C3582 C3583 1.397 . S
C3582 C3587 1.363 . S
C3583 H3554 0.950 . S
C3583 C3582 1.397 . S
C3583 C3584 1.334 . S
C3584 H3555 0.950 . S
C3584 C3583 1.334 . S
C3584 C3585 1.287 . S
C3585 C3584 1.287 . S
C3585 C3586 1.524 . S
C3585 H3588 0.999 . S
C3586 H3556 0.950 . S
C3586 C3585 1.524 . S
C3586 C3587 1.415 . S
C3587 H3557 0.950 . S
C3587 C3582 1.363 . S
C3587 C3586 1.415 . S
H3588 C3585 0.999 . S
H3589 C3570 0.913 . S
H3590 C3608 0.951 . S
H3591 C3610 0.951 . S
H3592 C3612 0.950 . S
H3593 C3613 0.950 . S
H3594 C3615 0.974 . S
H3595 C3618 0.950 . S
H3596 C3619 0.950 . S
H3597 C3621 0.950 . S
H3598 C3622 0.950 . S
H3599 C3623 0.951 . S
H3600 C3625 0.951 . S
H3601 C3627 0.950 . S
H3602 C3628 0.950 . S
H3603 C3630 0.950 . S
H3604 C3633 0.950 . S
H3605 C3634 0.950 . S
H3606 C3636 0.950 . S
H3607 C3637 0.950 . S
C3608 H3590 0.951 . S
C3608 C3609 1.366 . S
C3608 C3610 1.388 . S
C3609 C3608 1.366 . S
C3609 C3613 1.385 . S
C3610 H3591 0.951 . S
C3610 C3608 1.388 . S
C3610 C3611 1.366 . S
C3611 C3610 1.366 . S
C3611 C3612 1.414 . S
C3611 C3614 1.499 1_655 S
C3612 H3592 0.950 . S
C3612 C3611 1.414 . S
C3612 C3613 1.374 . S
C3613 H3593 0.950 . S
C3613 C3609 1.385 . S
C3613 C3612 1.374 . S
C3614 C3611 1.499 1_455 S
C3614 C3615 1.373 . S
C3614 C3616 1.389 . S
C3615 H3594 0.974 . S
C3615 C3614 1.373 . S
C3615 C3631 1.377 . S
C3616 C3614 1.389 . S
C3616 C3617 1.524 . S
C3616 C3630 1.377 . S
C3617 C3616 1.524 . S
C3617 C3618 1.397 1_455 S
C3617 C3622 1.363 . S
C3618 H3595 0.950 . S
C3618 C3617 1.397 1_655 S
C3618 C3619 1.334 . S
C3619 H3596 0.950 . S
C3619 C3618 1.334 . S
C3619 C3620 1.287 1_655 S
C3620 C3619 1.287 1_455 S
C3620 C3621 1.524 . S
C3620 H3639 0.913 1_455 S
C3621 H3597 0.950 . S
C3621 C3620 1.524 . S
C3621 C3622 1.415 . S
C3622 H3598 0.950 . S
C3622 C3617 1.363 . S
C3622 C3621 1.415 . S
C3623 H3599 0.951 . S
C3623 C3624 1.366 . S
C3623 C3625 1.388 . S
C3624 C3623 1.366 . S
C3624 C3628 1.385 . S
C3625 H3600 0.951 . S
C3625 C3623 1.388 . S
C3625 C3626 1.366 . S
C3626 C3625 1.366 . S
C3626 C3627 1.414 . S
C3626 C3629 1.499 . S
C3627 H3601 0.950 . S
C3627 C3626 1.414 . S
C3627 C3628 1.374 . S
C3628 H3602 0.950 . S
C3628 C3624 1.385 . S
C3628 C3627 1.374 . S
C3629 C3626 1.499 . S
C3629 C3630 1.373 . S
C3629 C3631 1.389 . S
C3630 H3603 0.950 . S
C3630 C3616 1.377 . S
C3630 C3629 1.373 . S
C3631 C3615 1.377 . S
C3631 C3629 1.389 . S
C3631 C3632 1.524 . S
C3632 C3631 1.524 . S
C3632 C3633 1.397 . S
C3632 C3637 1.363 . S
C3633 H3604 0.950 . S
C3633 C3632 1.397 . S
C3633 C3634 1.334 . S
C3634 H3605 0.950 . S
C3634 C3633 1.334 . S
C3634 C3635 1.287 . S
C3635 C3634 1.287 . S
C3635 C3636 1.524 . S
C3635 H3638 0.999 . S
C3636 H3606 0.950 . S
C3636 C3635 1.524 . S
C3636 C3637 1.415 . S
C3637 H3607 0.950 . S
C3637 C3632 1.363 . S
C3637 C3636 1.415 . S
H3638 C3635 0.999 . S
H3639 C3620 0.913 1_655 S
H3640 C3658 0.951 . S
H3641 C3660 0.951 . S
H3642 C3662 0.950 . S
H3643 C3663 0.950 . S
H3644 C3665 0.950 . S
H3645 C3668 0.950 . S
H3646 C3669 0.950 . S
H3647 C3671 0.950 . S
H3648 C3672 0.950 . S
H3649 C3673 0.951 . S
H3650 C3675 0.951 . S
H3651 C3677 0.950 . S
H3652 C3678 0.950 . S
H3653 C3680 0.950 . S
H3654 C3683 0.950 . S
H3655 C3684 0.950 . S
H3656 C3686 0.950 . S
H3657 C3687 0.950 . S
C3658 H3640 0.951 . S
C3658 C3659 1.366 . S
C3658 C3660 1.388 . S
C3659 C3658 1.366 . S
C3659 C3663 1.385 . S
C3660 H3641 0.951 . S
C3660 C3658 1.388 . S
C3660 C3661 1.366 . S
C3661 C3660 1.366 . S
C3661 C3662 1.414 . S
C3661 C3664 1.499 . S
C3662 H3642 0.950 . S
C3662 C3661 1.414 . S
C3662 C3663 1.374 . S
C3663 H3643 0.950 . S
C3663 C3659 1.385 . S
C3663 C3662 1.374 . S
C3664 C3661 1.499 . S
C3664 C3665 1.373 . S
C3664 C3666 1.389 . S
C3665 H3644 0.950 . S
C3665 C3664 1.373 . S
C3665 C3681 1.377 . S
C3666 C3664 1.389 . S
C3666 C3667 1.524 . S
C3666 C3680 1.377 . S
C3667 C3666 1.524 . S
C3667 C3668 1.397 . S
C3667 C3672 1.363 . S
C3668 H3645 0.950 . S
C3668 C3667 1.397 . S
C3668 C3669 1.334 . S
C3669 H3646 0.950 . S
C3669 C3668 1.334 . S
C3669 C3670 1.287 . S
C3670 C3669 1.287 . S
C3670 C3671 1.524 . S
C3670 H3689 0.913 . S
C3671 H3647 0.950 . S
C3671 C3670 1.524 . S
C3671 C3672 1.415 . S
C3672 H3648 0.950 . S
C3672 C3667 1.363 . S
C3672 C3671 1.415 . S
C3673 H3649 0.951 . S
C3673 C3674 1.366 . S
C3673 C3675 1.388 . S
C3674 C3673 1.366 . S
C3674 C3678 1.385 . S
C3675 H3650 0.951 . S
C3675 C3673 1.388 . S
C3675 C3676 1.366 . S
C3676 C3675 1.366 . S
C3676 C3677 1.414 . S
C3676 C3679 1.499 . S
C3677 H3651 0.950 . S
C3677 C3676 1.414 . S
C3677 C3678 1.374 . S
C3678 H3652 0.950 . S
C3678 C3674 1.385 . S
C3678 C3677 1.374 . S
C3679 C3676 1.499 . S
C3679 C3680 1.373 . S
C3679 C3681 1.389 . S
C3680 H3653 0.950 . S
C3680 C3666 1.377 . S
C3680 C3679 1.373 . S
C3681 C3665 1.377 . S
C3681 C3679 1.389 . S
C3681 C3682 1.524 . S
C3682 C3681 1.524 . S
C3682 C3683 1.397 . S
C3682 C3687 1.363 . S
C3683 H3654 0.950 . S
C3683 C3682 1.397 . S
C3683 C3684 1.334 . S
C3684 H3655 0.950 . S
C3684 C3683 1.334 . S
C3684 C3685 1.287 . S
C3685 C3684 1.287 . S
C3685 C3686 1.524 . S
C3685 H3688 0.999 . S
C3686 H3656 0.950 . S
C3686 C3685 1.524 . S
C3686 C3687 1.415 . S
C3687 H3657 0.950 . S
C3687 C3682 1.363 . S
C3687 C3686 1.415 . S
H3688 C3685 0.999 . S
H3689 C3670 0.913 . S
H3690 C3708 0.951 . S
H3691 C3710 0.951 . S
H3692 C3712 0.950 . S
H3693 C3713 0.950 . S
H3694 C3715 0.950 . S
H3695 C3718 0.950 . S
H3696 C3719 0.950 . S
H3697 C3721 0.950 . S
H3698 C3722 0.950 . S
H3699 C3723 0.951 . S
H3700 C3725 0.951 . S
H3701 C3727 0.950 . S
H3702 C3728 0.950 . S
H3703 C3730 0.950 1_655 S
H3704 C3733 0.950 . S
H3705 C3734 0.950 . S
H3706 C3736 0.950 . S
H3707 C3737 0.950 . S
C3708 H3690 0.951 . S
C3708 C3709 1.366 . S
C3708 C3710 1.388 . S
C3709 C3708 1.366 . S
C3709 C3713 1.385 . S
C3710 H3691 0.951 . S
C3710 C3708 1.388 . S
C3710 C3711 1.366 . S
C3711 C3710 1.366 . S
C3711 C3712 1.414 . S
C3711 C3714 1.499 . S
C3712 H3692 0.950 . S
C3712 C3711 1.414 . S
C3712 C3713 1.374 . S
C3713 H3693 0.950 . S
C3713 C3709 1.385 . S
C3713 C3712 1.374 . S
C3714 C3711 1.499 . S
C3714 C3715 1.373 . S
C3714 C3716 1.389 . S
C3715 H3694 0.950 . S
C3715 C3714 1.373 . S
C3715 C3731 1.377 . S
C3716 C3714 1.389 . S
C3716 C3717 1.524 . S
C3716 C3730 1.377 . S
C3717 C3716 1.524 . S
C3717 C3718 1.397 . S
C3717 C3722 1.363 . S
C3718 H3695 0.950 . S
C3718 C3717 1.397 . S
C3718 C3719 1.334 . S
C3719 H3696 0.950 . S
C3719 C3718 1.334 . S
C3719 C3720 1.287 . S
C3720 C3719 1.287 . S
C3720 C3721 1.524 . S
C3720 H3739 0.913 . S
C3721 H3697 0.950 . S
C3721 C3720 1.524 . S
C3721 C3722 1.415 . S
C3722 H3698 0.950 . S
C3722 C3717 1.363 . S
C3722 C3721 1.415 . S
C3723 H3699 0.951 . S
C3723 C3724 1.366 . S
C3723 C3725 1.388 . S
C3724 C3723 1.366 . S
C3724 C3728 1.385 . S
C3725 H3700 0.951 . S
C3725 C3723 1.388 . S
C3725 C3726 1.366 . S
C3726 C3725 1.366 . S
C3726 C3727 1.414 . S
C3726 C3729 1.499 1_655 S
C3727 H3701 0.950 . S
C3727 C3726 1.414 . S
C3727 C3728 1.374 . S
C3728 H3702 0.950 . S
C3728 C3724 1.385 . S
C3728 C3727 1.374 . S
C3729 C3726 1.499 1_455 S
C3729 C3730 1.373 . S
C3729 C3731 1.389 . S
C3730 H3703 0.950 1_455 S
C3730 C3716 1.377 . S
C3730 C3729 1.373 . S
C3731 C3715 1.377 . S
C3731 C3729 1.389 . S
C3731 C3732 1.524 . S
C3732 C3731 1.524 . S
C3732 C3733 1.397 . S
C3732 C3737 1.363 . S
C3733 H3704 0.950 . S
C3733 C3732 1.397 . S
C3733 C3734 1.334 . S
C3734 H3705 0.950 . S
C3734 C3733 1.334 . S
C3734 C3735 1.287 . S
C3735 C3734 1.287 . S
C3735 C3736 1.524 . S
C3735 H3738 0.999 . S
C3736 H3706 0.950 . S
C3736 C3735 1.524 . S
C3736 C3737 1.415 . S
C3737 H3707 0.950 . S
C3737 C3732 1.363 . S
C3737 C3736 1.415 . S
H3738 C3735 0.999 . S
H3739 C3720 0.913 . S
H3740 C3758 0.951 . S
H3741 C3760 0.951 . S
H3742 C3762 0.950 . S
H3743 C3763 0.950 . S
H3744 C3765 0.950 . S
H3745 C3768 0.950 . S
H3746 C3769 0.950 . S
H3747 C3771 0.950 . S
H3748 C3772 0.950 . S
H3749 C3773 0.951 . S
H3750 C3775 0.951 . S
H3751 C3777 0.950 . S
H3752 C3778 0.950 . S
H3753 C3780 0.950 . S
H3754 C3783 0.950 . S
H3755 C3784 0.950 . S
H3756 C3786 0.950 . S
H3757 C3787 0.950 . S
C3758 H3740 0.951 . S
C3758 C3759 1.366 . S
C3758 C3760 1.388 . S
C3759 C3758 1.366 . S
C3759 C3763 1.385 . S
C3760 H3741 0.951 . S
C3760 C3758 1.388 . S
C3760 C3761 1.366 . S
C3761 C3760 1.366 . S
C3761 C3762 1.414 . S
C3761 C3764 1.499 . S
C3762 H3742 0.950 . S
C3762 C3761 1.414 . S
C3762 C3763 1.374 . S
C3763 H3743 0.950 . S
C3763 C3759 1.385 . S
C3763 C3762 1.374 . S
C3764 C3761 1.499 . S
C3764 C3765 1.373 . S
C3764 C3766 1.389 . S
C3765 H3744 0.950 . S
C3765 C3764 1.373 . S
C3765 C3781 1.377 . S
C3766 C3764 1.389 . S
C3766 C3767 1.524 . S
C3766 C3780 1.377 . S
C3767 C3766 1.524 . S
C3767 C3768 1.397 . S
C3767 C3772 1.363 . S
C3768 H3745 0.950 . S
C3768 C3767 1.397 . S
C3768 C3769 1.334 . S
C3769 H3746 0.950 . S
C3769 C3768 1.334 . S
C3769 C3770 1.287 . S
C3770 C3769 1.287 . S
C3770 C3771 1.524 . S
C3770 H3789 0.913 . S
C3771 H3747 0.950 . S
C3771 C3770 1.524 . S
C3771 C3772 1.415 . S
C3772 H3748 0.950 . S
C3772 C3767 1.363 . S
C3772 C3771 1.415 . S
C3773 H3749 0.951 . S
C3773 C3774 1.366 . S
C3773 C3775 1.388 . S
C3774 C3773 1.366 . S
C3774 C3778 1.385 . S
C3775 H3750 0.951 . S
C3775 C3773 1.388 . S
C3775 C3776 1.366 . S
C3776 C3775 1.366 . S
C3776 C3777 1.414 . S
C3776 C3779 1.499 . S
C3777 H3751 0.950 . S
C3777 C3776 1.414 . S
C3777 C3778 1.374 . S
C3778 H3752 0.950 . S
C3778 C3774 1.385 . S
C3778 C3777 1.374 . S
C3779 C3776 1.499 . S
C3779 C3780 1.373 . S
C3779 C3781 1.389 . S
C3780 H3753 0.950 . S
C3780 C3766 1.377 . S
C3780 C3779 1.373 . S
C3781 C3765 1.377 . S
C3781 C3779 1.389 . S
C3781 C3782 1.524 . S
C3782 C3781 1.524 . S
C3782 C3783 1.397 . S
C3782 C3787 1.363 . S
C3783 H3754 0.950 . S
C3783 C3782 1.397 . S
C3783 C3784 1.334 . S
C3784 H3755 0.950 . S
C3784 C3783 1.334 . S
C3784 C3785 1.287 . S
C3785 C3784 1.287 . S
C3785 C3786 1.524 . S
C3785 H3788 0.999 . S
C3786 H3756 0.950 . S
C3786 C3785 1.524 . S
C3786 C3787 1.415 . S
C3787 H3757 0.950 . S
C3787 C3782 1.363 . S
C3787 C3786 1.415 . S
H3788 C3785 0.999 . S
H3789 C3770 0.913 . S
H3790 C3808 0.951 . S
H3791 C3810 0.951 . S
H3792 C3812 0.950 . S
H3793 C3813 0.950 . S
H3794 C3815 0.950 . S
H3795 C3818 0.950 . S
H3796 C3819 0.950 . S
H3797 C3821 0.950 . S
H3798 C3822 0.950 . S
H3799 C3823 0.951 . S
H3800 C3825 0.951 . S
H3801 C3827 0.950 . S
H3802 C3828 0.950 . S
H3803 C3830 0.950 . S
H3804 C3833 0.950 . S
H3805 C3834 0.950 . S
H3806 C3836 0.950 . S
H3807 C3837 0.950 . S
C3808 H3790 0.951 . S
C3808 C3809 1.366 . S
C3808 C3810 1.388 . S
C3809 C3808 1.366 . S
C3809 C3813 1.385 . S
C3810 H3791 0.951 . S
C3810 C3808 1.388 . S
C3810 C3811 1.366 . S
C3811 C3810 1.366 . S
C3811 C3812 1.414 . S
C3811 C3814 1.499 . S
C3812 H3792 0.950 . S
C3812 C3811 1.414 . S
C3812 C3813 1.374 . S
C3813 H3793 0.950 . S
C3813 C3809 1.385 . S
C3813 C3812 1.374 . S
C3814 C3811 1.499 . S
C3814 C3815 1.373 . S
C3814 C3816 1.389 . S
C3815 H3794 0.950 . S
C3815 C3814 1.373 . S
C3815 C3831 1.377 . S
C3816 C3814 1.389 . S
C3816 C3817 1.524 . S
C3816 C3830 1.377 . S
C3817 C3816 1.524 . S
C3817 C3818 1.397 . S
C3817 C3822 1.363 . S
C3818 H3795 0.950 . S
C3818 C3817 1.397 . S
C3818 C3819 1.334 . S
C3819 H3796 0.950 . S
C3819 C3818 1.334 . S
C3819 C3820 1.287 . S
C3820 C3819 1.287 . S
C3820 C3821 1.524 . S
C3820 H3839 0.913 . S
C3821 H3797 0.950 . S
C3821 C3820 1.524 . S
C3821 C3822 1.415 . S
C3822 H3798 0.950 . S
C3822 C3817 1.363 . S
C3822 C3821 1.415 . S
C3823 H3799 0.951 . S
C3823 C3824 1.366 . S
C3823 C3825 1.388 . S
C3824 C3823 1.366 . S
C3824 C3828 1.385 . S
C3825 H3800 0.951 . S
C3825 C3823 1.388 . S
C3825 C3826 1.366 . S
C3826 C3825 1.366 . S
C3826 C3827 1.414 . S
C3826 C3829 1.499 . S
C3827 H3801 0.950 . S
C3827 C3826 1.414 . S
C3827 C3828 1.374 . S
C3828 H3802 0.950 . S
C3828 C3824 1.385 . S
C3828 C3827 1.374 . S
C3829 C3826 1.499 . S
C3829 C3830 1.373 . S
C3829 C3831 1.389 . S
C3830 H3803 0.950 . S
C3830 C3816 1.377 . S
C3830 C3829 1.373 . S
C3831 C3815 1.377 . S
C3831 C3829 1.389 . S
C3831 C3832 1.524 . S
C3832 C3831 1.524 . S
C3832 C3833 1.397 . S
C3832 C3837 1.363 . S
C3833 H3804 0.950 . S
C3833 C3832 1.397 . S
C3833 C3834 1.334 . S
C3834 H3805 0.950 . S
C3834 C3833 1.334 . S
C3834 C3835 1.287 . S
C3835 C3834 1.287 . S
C3835 C3836 1.524 . S
C3835 H3838 0.999 . S
C3836 H3806 0.950 . S
C3836 C3835 1.524 . S
C3836 C3837 1.415 . S
C3837 H3807 0.950 . S
C3837 C3832 1.363 . S
C3837 C3836 1.415 . S
H3838 C3835 0.999 . S
H3839 C3820 0.913 . S
H3840 C3858 0.951 . S
H3841 C3860 0.951 . S
H3842 C3862 0.950 . S
H3843 C3863 0.950 . S
H3844 C3865 0.950 . S
H3845 C3868 0.950 . S
H3846 C3869 0.950 . S
H3847 C3871 0.950 . S
H3848 C3872 0.950 . S
H3849 C3873 0.951 . S
H3850 C3875 0.951 . S
H3851 C3877 0.950 . S
H3852 C3878 0.950 . S
H3853 C3880 0.950 . S
H3854 C3883 0.950 . S
H3855 C3884 0.950 . S
H3856 C3886 0.950 . S
H3857 C3887 0.950 . S
C3858 H3840 0.951 . S
C3858 C3859 1.366 . S
C3858 C3860 1.388 . S
C3859 C3858 1.366 . S
C3859 C3863 1.385 . S
C3860 H3841 0.951 . S
C3860 C3858 1.388 . S
C3860 C3861 1.366 . S
C3861 C3860 1.366 . S
C3861 C3862 1.414 . S
C3861 C3864 1.499 . S
C3862 H3842 0.950 . S
C3862 C3861 1.414 . S
C3862 C3863 1.374 . S
C3863 H3843 0.950 . S
C3863 C3859 1.385 . S
C3863 C3862 1.374 . S
C3864 C3861 1.499 . S
C3864 C3865 1.373 . S
C3864 C3866 1.389 . S
C3865 H3844 0.950 . S
C3865 C3864 1.373 . S
C3865 C3881 1.377 1_545 S
C3866 C3864 1.389 . S
C3866 C3867 1.524 . S
C3866 C3880 1.377 1_545 S
C3867 C3866 1.524 . S
C3867 C3868 1.397 . S
C3867 C3872 1.363 . S
C3868 H3845 0.950 . S
C3868 C3867 1.397 . S
C3868 C3869 1.334 . S
C3869 H3846 0.950 . S
C3869 C3868 1.334 . S
C3869 C3870 1.287 . S
C3870 C3869 1.287 . S
C3870 C3871 1.524 . S
C3870 H3889 0.913 . S
C3871 H3847 0.950 . S
C3871 C3870 1.524 . S
C3871 C3872 1.415 . S
C3872 H3848 0.950 . S
C3872 C3867 1.363 . S
C3872 C3871 1.415 . S
C3873 H3849 0.951 . S
C3873 C3874 1.366 . S
C3873 C3875 1.388 . S
C3874 C3873 1.366 . S
C3874 C3878 1.385 . S
C3875 H3850 0.951 . S
C3875 C3873 1.388 . S
C3875 C3876 1.366 . S
C3876 C3875 1.366 . S
C3876 C3877 1.414 . S
C3876 C3879 1.499 . S
C3877 H3851 0.950 . S
C3877 C3876 1.414 . S
C3877 C3878 1.374 . S
C3878 H3852 0.950 . S
C3878 C3874 1.385 . S
C3878 C3877 1.374 . S
C3879 C3876 1.499 . S
C3879 C3880 1.373 . S
C3879 C3881 1.389 . S
C3880 H3853 0.950 . S
C3880 C3866 1.377 1_565 S
C3880 C3879 1.373 . S
C3881 C3865 1.377 1_565 S
C3881 C3879 1.389 . S
C3881 C3882 1.524 . S
C3882 C3881 1.524 . S
C3882 C3883 1.397 . S
C3882 C3887 1.363 . S
C3883 H3854 0.950 . S
C3883 C3882 1.397 . S
C3883 C3884 1.334 . S
C3884 H3855 0.950 . S
C3884 C3883 1.334 . S
C3884 C3885 1.287 . S
C3885 C3884 1.287 . S
C3885 C3886 1.524 . S
C3885 H3888 0.999 . S
C3886 H3856 0.950 . S
C3886 C3885 1.524 . S
C3886 C3887 1.415 . S
C3887 H3857 0.950 . S
C3887 C3882 1.363 . S
C3887 C3886 1.415 . S
H3888 C3885 0.999 . S
H3889 C3870 0.913 . S
H3890 C3908 0.951 . S
H3891 C3910 0.951 . S
H3892 C3912 0.950 . S
H3893 C3913 0.950 . S
H3894 C3915 0.950 . S
H3895 C3918 0.950 . S
H3896 C3919 0.950 . S
H3897 C3921 0.950 . S
H3898 C3922 0.950 . S
H3899 C3923 0.951 . S
H3900 C3925 0.951 . S
H3901 C3927 0.950 . S
H3902 C3928 0.950 . S
H3903 C3930 0.950 . S
H3904 C3933 0.950 . S
H3905 C3934 0.950 . S
H3906 C3936 0.950 . S
H3907 C3937 0.950 . S
C3908 H3890 0.951 . S
C3908 C3909 1.366 . S
C3908 C3910 1.388 . S
C3909 C3908 1.366 . S
C3909 C3913 1.385 . S
C3910 H3891 0.951 . S
C3910 C3908 1.388 . S
C3910 C3911 1.366 . S
C3911 C3910 1.366 . S
C3911 C3912 1.414 . S
C3911 C3914 1.499 . S
C3912 H3892 0.950 . S
C3912 C3911 1.414 . S
C3912 C3913 1.374 . S
C3913 H3893 0.950 . S
C3913 C3909 1.385 . S
C3913 C3912 1.374 . S
C3914 C3911 1.499 . S
C3914 C3915 1.373 . S
C3914 C3916 1.389 . S
C3915 H3894 0.950 . S
C3915 C3914 1.373 . S
C3915 C3931 1.377 . S
C3916 C3914 1.389 . S
C3916 C3917 1.524 . S
C3916 C3930 1.377 . S
C3917 C3916 1.524 . S
C3917 C3918 1.397 . S
C3917 C3922 1.363 . S
C3918 H3895 0.950 . S
C3918 C3917 1.397 . S
C3918 C3919 1.334 . S
C3919 H3896 0.950 . S
C3919 C3918 1.334 . S
C3919 C3920 1.287 . S
C3920 C3919 1.287 . S
C3920 C3921 1.524 . S
C3920 H3939 0.913 . S
C3921 H3897 0.950 . S
C3921 C3920 1.524 . S
C3921 C3922 1.415 . S
C3922 H3898 0.950 . S
C3922 C3917 1.363 . S
C3922 C3921 1.415 . S
C3923 H3899 0.951 . S
C3923 C3924 1.366 . S
C3923 C3925 1.388 . S
C3924 C3923 1.366 . S
C3924 C3928 1.385 . S
C3925 H3900 0.951 . S
C3925 C3923 1.388 . S
C3925 C3926 1.366 . S
C3926 C3925 1.366 . S
C3926 C3927 1.414 . S
C3926 C3929 1.499 . S
C3927 H3901 0.950 . S
C3927 C3926 1.414 . S
C3927 C3928 1.374 . S
C3928 H3902 0.950 . S
C3928 C3924 1.385 . S
C3928 C3927 1.374 . S
C3929 C3926 1.499 . S
C3929 C3930 1.373 . S
C3929 C3931 1.389 . S
C3930 H3903 0.950 . S
C3930 C3916 1.377 . S
C3930 C3929 1.373 . S
C3931 C3915 1.377 . S
C3931 C3929 1.389 . S
C3931 C3932 1.524 . S
C3932 C3931 1.524 . S
C3932 C3933 1.397 . S
C3932 C3937 1.363 . S
C3933 H3904 0.950 . S
C3933 C3932 1.397 . S
C3933 C3934 1.334 . S
C3934 H3905 0.950 . S
C3934 C3933 1.334 . S
C3934 C3935 1.287 . S
C3935 C3934 1.287 . S
C3935 C3936 1.524 . S
C3935 H3938 0.999 . S
C3936 H3906 0.950 . S
C3936 C3935 1.524 . S
C3936 C3937 1.415 . S
C3937 H3907 0.950 . S
C3937 C3932 1.363 . S
C3937 C3936 1.415 . S
H3938 C3935 0.999 . S
H3939 C3920 0.913 . S
H3940 C3958 0.951 . S
H3941 C3960 0.951 . S
H3942 C3962 0.950 . S
H3943 C3963 0.950 . S
H3944 C3965 0.950 . S
H3945 C3968 0.950 . S
H3946 C3969 0.950 . S
H3947 C3971 0.950 . S
H3948 C3972 0.950 . S
H3949 C3973 0.951 . S
H3950 C3975 0.951 . S
H3951 C3977 0.950 . S
H3952 C3978 0.950 . S
H3953 C3980 0.950 . S
H3954 C3983 0.950 . S
H3955 C3984 0.950 . S
H3956 C3986 0.950 . S
H3957 C3987 0.950 . S
C3958 H3940 0.951 . S
C3958 C3959 1.366 . S
C3958 C3960 1.388 . S
C3959 C3958 1.366 . S
C3959 C3963 1.385 . S
C3960 H3941 0.951 . S
C3960 C3958 1.388 . S
C3960 C3961 1.366 . S
C3961 C3960 1.366 . S
C3961 C3962 1.414 . S
C3961 C3964 1.499 . S
C3962 H3942 0.950 . S
C3962 C3961 1.414 . S
C3962 C3963 1.374 . S
C3963 H3943 0.950 . S
C3963 C3959 1.385 . S
C3963 C3962 1.374 . S
C3964 C3961 1.499 . S
C3964 C3965 1.373 . S
C3964 C3966 1.389 . S
C3965 H3944 0.950 . S
C3965 C3964 1.373 . S
C3965 C3981 1.377 1_565 S
C3966 C3964 1.389 . S
C3966 C3967 1.524 . S
C3966 C3980 1.377 1_565 S
C3967 C3966 1.524 . S
C3967 C3968 1.397 . S
C3967 C3972 1.363 . S
C3968 H3945 0.950 . S
C3968 C3967 1.397 . S
C3968 C3969 1.334 . S
C3969 H3946 0.950 . S
C3969 C3968 1.334 . S
C3969 C3970 1.287 . S
C3970 C3969 1.287 . S
C3970 C3971 1.524 . S
C3970 H3989 0.913 . S
C3971 H3947 0.950 . S
C3971 C3970 1.524 . S
C3971 C3972 1.415 . S
C3972 H3948 0.950 . S
C3972 C3967 1.363 . S
C3972 C3971 1.415 . S
C3973 H3949 0.951 . S
C3973 C3974 1.366 . S
C3973 C3975 1.388 . S
C3974 C3973 1.366 . S
C3974 C3978 1.385 . S
C3975 H3950 0.951 . S
C3975 C3973 1.388 . S
C3975 C3976 1.366 . S
C3976 C3975 1.366 . S
C3976 C3977 1.414 . S
C3976 C3979 1.499 . S
C3977 H3951 0.950 . S
C3977 C3976 1.414 . S
C3977 C3978 1.374 . S
C3978 H3952 0.950 . S
C3978 C3974 1.385 . S
C3978 C3977 1.374 . S
C3979 C3976 1.499 . S
C3979 C3980 1.373 . S
C3979 C3981 1.389 . S
C3980 H3953 0.950 . S
C3980 C3966 1.377 1_545 S
C3980 C3979 1.373 . S
C3981 C3965 1.377 1_545 S
C3981 C3979 1.389 . S
C3981 C3982 1.524 . S
C3982 C3981 1.524 . S
C3982 C3983 1.397 . S
C3982 C3987 1.363 . S
C3983 H3954 0.950 . S
C3983 C3982 1.397 . S
C3983 C3984 1.334 . S
C3984 H3955 0.950 . S
C3984 C3983 1.334 . S
C3984 C3985 1.287 . S
C3985 C3984 1.287 . S
C3985 C3986 1.524 . S
C3985 H3988 0.999 . S
C3986 H3956 0.950 . S
C3986 C3985 1.524 . S
C3986 C3987 1.415 . S
C3987 H3957 0.950 . S
C3987 C3982 1.363 . S
C3987 C3986 1.415 . S
H3988 C3985 0.999 . S
H3989 C3970 0.913 . S
H3990 C4008 0.951 . S
H3991 C4010 0.951 1_554 S
H3992 C4012 0.950 . S
H3993 C4013 0.950 . S
H3994 C4015 0.950 . S
H3995 C4018 0.950 1_556 S
H3996 C4019 0.950 1_556 S
H3997 C4021 0.950 . S
H3998 C4022 0.950 . S
H3999 C4023 0.951 . S
H4000 C4025 0.951 1_556 S
H4001 C4027 0.950 . S
H4002 C4028 0.950 . S
H4003 C4030 0.950 . S
H4004 C4033 0.950 1_554 S
H4005 C4034 0.950 1_554 S
H4006 C4036 0.950 . S
H4007 C4037 0.950 . S
C4008 H3990 0.951 . S
C4008 C4009 1.366 . S
C4008 C4010 1.388 . S
C4009 C4008 1.366 . S
C4009 C4013 1.385 . S
C4010 H3991 0.951 1_556 S
C4010 C4008 1.388 . S
C4010 C4011 1.366 . S
C4011 C4010 1.366 . S
C4011 C4012 1.414 . S
C4011 C4014 1.499 . S
C4012 H3992 0.950 . S
C4012 C4011 1.414 . S
C4012 C4013 1.374 . S
C4013 H3993 0.950 . S
C4013 C4009 1.385 . S
C4013 C4012 1.374 . S
C4014 C4011 1.499 . S
C4014 C4015 1.373 . S
C4014 C4016 1.389 1_556 S
C4015 H3994 0.950 . S
C4015 C4014 1.373 . S
C4015 C4031 1.377 . S
C4016 C4014 1.389 1_554 S
C4016 C4017 1.524 . S
C4016 C4030 1.377 . S
C4017 C4016 1.524 . S
C4017 C4018 1.397 . S
C4017 C4022 1.363 . S
C4018 H3995 0.950 1_554 S
C4018 C4017 1.397 . S
C4018 C4019 1.334 . S
C4019 H3996 0.950 1_554 S
C4019 C4018 1.334 . S
C4019 C4020 1.287 . S
C4020 C4019 1.287 . S
C4020 C4021 1.524 . S
C4020 H4039 0.913 . S
C4021 H3997 0.950 . S
C4021 C4020 1.524 . S
C4021 C4022 1.415 . S
C4022 H3998 0.950 . S
C4022 C4017 1.363 . S
C4022 C4021 1.415 . S
C4023 H3999 0.951 . S
C4023 C4024 1.366 . S
C4023 C4025 1.388 . S
C4024 C4023 1.366 . S
C4024 C4028 1.385 . S
C4025 H4000 0.951 1_554 S
C4025 C4023 1.388 . S
C4025 C4026 1.366 . S
C4026 C4025 1.366 . S
C4026 C4027 1.414 . S
C4026 C4029 1.499 . S
C4027 H4001 0.950 . S
C4027 C4026 1.414 . S
C4027 C4028 1.374 . S
C4028 H4002 0.950 . S
C4028 C4024 1.385 . S
C4028 C4027 1.374 . S
C4029 C4026 1.499 . S
C4029 C4030 1.373 . S
C4029 C4031 1.389 1_554 S
C4030 H4003 0.950 . S
C4030 C4016 1.377 . S
C4030 C4029 1.373 . S
C4031 C4015 1.377 . S
C4031 C4029 1.389 1_556 S
C4031 C4032 1.524 . S
C4032 C4031 1.524 . S
C4032 C4033 1.397 . S
C4032 C4037 1.363 . S
C4033 H4004 0.950 1_556 S
C4033 C4032 1.397 . S
C4033 C4034 1.334 . S
C4034 H4005 0.950 1_556 S
C4034 C4033 1.334 . S
C4034 C4035 1.287 . S
C4035 C4034 1.287 . S
C4035 C4036 1.524 . S
C4035 H4038 0.999 . S
C4036 H4006 0.950 . S
C4036 C4035 1.524 . S
C4036 C4037 1.415 . S
C4037 H4007 0.950 . S
C4037 C4032 1.363 . S
C4037 C4036 1.415 . S
H4038 C4035 0.999 . S
H4039 C4020 0.913 . S
H4040 C4058 0.951 . S
H4041 C4060 0.951 . S
H4042 C4062 0.950 . S
H4043 C4063 0.950 . S
H4044 C4065 0.950 . S
H4045 C4068 0.950 . S
H4046 C4069 0.950 . S
H4047 C4071 0.950 . S
H4048 C4072 0.950 . S
H4049 C4073 0.951 . S
H4050 C4075 0.951 . S
H4051 C4077 0.950 . S
H4052 C4078 0.950 . S
H4053 C4080 0.950 . S
H4054 C4083 0.950 . S
H4055 C4084 0.950 . S
H4056 C4086 0.950 . S
H4057 C4087 0.950 . S
C4058 H4040 0.951 . S
C4058 C4059 1.366 . S
C4058 C4060 1.388 . S
C4059 C4058 1.366 . S
C4059 C4063 1.385 . S
C4060 H4041 0.951 . S
C4060 C4058 1.388 . S
C4060 C4061 1.366 . S
C4061 C4060 1.366 . S
C4061 C4062 1.414 . S
C4061 C4064 1.499 . S
C4062 H4042 0.950 . S
C4062 C4061 1.414 . S
C4062 C4063 1.374 . S
C4063 H4043 0.950 . S
C4063 C4059 1.385 . S
C4063 C4062 1.374 . S
C4064 C4061 1.499 . S
C4064 C4065 1.373 . S
C4064 C4066 1.389 . S
C4065 H4044 0.950 . S
C4065 C4064 1.373 . S
C4065 C4081 1.377 1_545 S
C4066 C4064 1.389 . S
C4066 C4067 1.524 . S
C4066 C4080 1.377 1_545 S
C4067 C4066 1.524 . S
C4067 C4068 1.397 . S
C4067 C4072 1.363 . S
C4068 H4045 0.950 . S
C4068 C4067 1.397 . S
C4068 C4069 1.334 . S
C4069 H4046 0.950 . S
C4069 C4068 1.334 . S
C4069 C4070 1.287 . S
C4070 C4069 1.287 . S
C4070 C4071 1.524 . S
C4070 H4089 0.913 . S
C4071 H4047 0.950 . S
C4071 C4070 1.524 . S
C4071 C4072 1.415 . S
C4072 H4048 0.950 . S
C4072 C4067 1.363 . S
C4072 C4071 1.415 . S
C4073 H4049 0.951 . S
C4073 C4074 1.366 . S
C4073 C4075 1.388 . S
C4074 C4073 1.366 . S
C4074 C4078 1.385 . S
C4075 H4050 0.951 . S
C4075 C4073 1.388 . S
C4075 C4076 1.366 . S
C4076 C4075 1.366 . S
C4076 C4077 1.414 . S
C4076 C4079 1.499 . S
C4077 H4051 0.950 . S
C4077 C4076 1.414 . S
C4077 C4078 1.374 . S
C4078 H4052 0.950 . S
C4078 C4074 1.385 . S
C4078 C4077 1.374 . S
C4079 C4076 1.499 . S
C4079 C4080 1.373 . S
C4079 C4081 1.389 . S
C4080 H4053 0.950 . S
C4080 C4066 1.377 1_565 S
C4080 C4079 1.373 . S
C4081 C4065 1.377 1_565 S
C4081 C4079 1.389 . S
C4081 C4082 1.524 . S
C4082 C4081 1.524 . S
C4082 C4083 1.397 . S
C4082 C4087 1.363 . S
C4083 H4054 0.950 . S
C4083 C4082 1.397 . S
C4083 C4084 1.334 . S
C4084 H4055 0.950 . S
C4084 C4083 1.334 . S
C4084 C4085 1.287 . S
C4085 C4084 1.287 . S
C4085 C4086 1.524 . S
C4085 H4088 0.999 . S
C4086 H4056 0.950 . S
C4086 C4085 1.524 . S
C4086 C4087 1.415 . S
C4087 H4057 0.950 . S
C4087 C4082 1.363 . S
C4087 C4086 1.415 . S
H4088 C4085 0.999 . S
H4089 C4070 0.913 . S
H4090 C4108 0.951 . S
H4091 C4110 0.951 . S
H4092 C4112 0.950 . S
H4093 C4113 0.950 . S
H4094 C4115 0.950 . S
H4095 C4118 0.950 . S
H4096 C4119 0.950 . S
H4097 C4121 0.950 . S
H4098 C4122 0.950 . S
H4099 C4123 0.951 . S
H4100 C4125 0.951 . S
H4101 C4127 0.950 . S
H4102 C4128 0.950 . S
H4103 C4130 0.950 . S
H4104 C4133 0.950 . S
H4105 C4134 0.950 . S
H4106 C4136 0.950 . S
H4107 C4137 0.950 . S
C4108 H4090 0.951 . S
C4108 C4109 1.366 . S
C4108 C4110 1.388 . S
C4109 C4108 1.366 . S
C4109 C4113 1.385 . S
C4110 H4091 0.951 . S
C4110 C4108 1.388 . S
C4110 C4111 1.366 . S
C4111 C4110 1.366 . S
C4111 C4112 1.414 . S
C4111 C4114 1.499 . S
C4112 H4092 0.950 . S
C4112 C4111 1.414 . S
C4112 C4113 1.374 . S
C4113 H4093 0.950 . S
C4113 C4109 1.385 . S
C4113 C4112 1.374 . S
C4114 C4111 1.499 . S
C4114 C4115 1.373 . S
C4114 C4116 1.389 . S
C4115 H4094 0.950 . S
C4115 C4114 1.373 . S
C4115 C4131 1.377 . S
C4116 C4114 1.389 . S
C4116 C4117 1.524 . S
C4116 C4130 1.377 . S
C4117 C4116 1.524 . S
C4117 C4118 1.397 . S
C4117 C4122 1.363 . S
C4118 H4095 0.950 . S
C4118 C4117 1.397 . S
C4118 C4119 1.334 . S
C4119 H4096 0.950 . S
C4119 C4118 1.334 . S
C4119 C4120 1.287 . S
C4120 C4119 1.287 . S
C4120 C4121 1.524 . S
C4120 H4139 0.913 . S
C4121 H4097 0.950 . S
C4121 C4120 1.524 . S
C4121 C4122 1.415 . S
C4122 H4098 0.950 . S
C4122 C4117 1.363 . S
C4122 C4121 1.415 . S
C4123 H4099 0.951 . S
C4123 C4124 1.366 . S
C4123 C4125 1.388 . S
C4124 C4123 1.366 . S
C4124 C4128 1.385 . S
C4125 H4100 0.951 . S
C4125 C4123 1.388 . S
C4125 C4126 1.366 . S
C4126 C4125 1.366 . S
C4126 C4127 1.414 . S
C4126 C4129 1.499 . S
C4127 H4101 0.950 . S
C4127 C4126 1.414 . S
C4127 C4128 1.374 . S
C4128 H4102 0.950 . S
C4128 C4124 1.385 . S
C4128 C4127 1.374 . S
C4129 C4126 1.499 . S
C4129 C4130 1.373 . S
C4129 C4131 1.389 . S
C4130 H4103 0.950 . S
C4130 C4116 1.377 . S
C4130 C4129 1.373 . S
C4131 C4115 1.377 . S
C4131 C4129 1.389 . S
C4131 C4132 1.524 . S
C4132 C4131 1.524 . S
C4132 C4133 1.397 . S
C4132 C4137 1.363 . S
C4133 H4104 0.950 . S
C4133 C4132 1.397 . S
C4133 C4134 1.334 . S
C4134 H4105 0.950 . S
C4134 C4133 1.334 . S
C4134 C4135 1.287 . S
C4135 C4134 1.287 . S
C4135 C4136 1.524 . S
C4135 H4138 0.999 . S
C4136 H4106 0.950 . S
C4136 C4135 1.524 . S
C4136 C4137 1.415 . S
C4137 H4107 0.950 . S
C4137 C4132 1.363 . S
C4137 C4136 1.415 . S
H4138 C4135 0.999 . S
H4139 C4120 0.913 . S
H4140 C4158 0.951 . S
H4141 C4160 0.951 . S
H4142 C4162 0.950 . S
H4143 C4163 0.950 . S
H4144 C4165 0.950 . S
H4145 C4168 0.950 . S
H4146 C4169 0.950 . S
H4147 C4171 0.950 . S
H4148 C4172 0.921 1_565 S
H4149 C4173 0.951 . S
H4150 C4175 0.951 . S
H4151 C4177 0.950 . S
H4152 C4178 0.950 . S
H4153 C4180 0.950 . S
H4154 C4183 0.950 . S
H4155 C4184 0.950 . S
H4156 C4186 0.950 . S
H4157 C4187 0.921 1_545 S
C4158 H4140 0.951 . S
C4158 C4159 1.366 . S
C4158 C4160 1.388 . S
C4159 C4158 1.366 . S
C4159 C4163 1.385 . S
C4160 H4141 0.951 . S
C4160 C4158 1.388 . S
C4160 C4161 1.366 . S
C4161 C4160 1.366 . S
C4161 C4162 1.414 . S
C4161 C4164 1.499 . S
C4162 H4142 0.950 . S
C4162 C4161 1.414 . S
C4162 C4163 1.374 . S
C4163 H4143 0.950 . S
C4163 C4159 1.385 . S
C4163 C4162 1.374 . S
C4164 C4161 1.499 . S
C4164 C4165 1.373 . S
C4164 C4166 1.389 . S
C4165 H4144 0.950 . S
C4165 C4164 1.373 . S
C4165 C4181 1.377 1_545 S
C4166 C4164 1.389 . S
C4166 C4167 1.524 . S
C4166 C4180 1.377 1_545 S
C4167 C4166 1.524 . S
C4167 C4168 1.397 . S
C4167 C4172 1.363 . S
C4168 H4145 0.950 . S
C4168 C4167 1.397 . S
C4168 C4169 1.334 . S
C4169 H4146 0.950 . S
C4169 C4168 1.334 . S
C4169 C4170 1.287 . S
C4170 C4169 1.287 . S
C4170 C4171 1.524 . S
C4170 H4189 0.913 . S
C4171 H4147 0.950 . S
C4171 C4170 1.524 . S
C4171 C4172 1.415 . S
C4172 H4148 0.921 1_545 S
C4172 C4167 1.363 . S
C4172 C4171 1.415 . S
C4173 H4149 0.951 . S
C4173 C4174 1.366 . S
C4173 C4175 1.388 . S
C4174 C4173 1.366 . S
C4174 C4178 1.385 . S
C4175 H4150 0.951 . S
C4175 C4173 1.388 . S
C4175 C4176 1.366 . S
C4176 C4175 1.366 . S
C4176 C4177 1.414 . S
C4176 C4179 1.499 . S
C4177 H4151 0.950 . S
C4177 C4176 1.414 . S
C4177 C4178 1.374 . S
C4178 H4152 0.950 . S
C4178 C4174 1.385 . S
C4178 C4177 1.374 . S
C4179 C4176 1.499 . S
C4179 C4180 1.373 . S
C4179 C4181 1.389 . S
C4180 H4153 0.950 . S
C4180 C4166 1.377 1_565 S
C4180 C4179 1.373 . S
C4181 C4165 1.377 1_565 S
C4181 C4179 1.389 . S
C4181 C4182 1.524 . S
C4182 C4181 1.524 . S
C4182 C4183 1.397 . S
C4182 C4187 1.363 . S
C4183 H4154 0.950 . S
C4183 C4182 1.397 . S
C4183 C4184 1.334 . S
C4184 H4155 0.950 . S
C4184 C4183 1.334 . S
C4184 C4185 1.287 . S
C4185 C4184 1.287 . S
C4185 C4186 1.524 . S
C4185 H4188 0.999 . S
C4186 H4156 0.950 . S
C4186 C4185 1.524 . S
C4186 C4187 1.415 . S
C4187 H4157 0.921 1_565 S
C4187 C4182 1.363 . S
C4187 C4186 1.415 . S
H4188 C4185 0.999 . S
H4189 C4170 0.913 . S
H4190 C4208 0.951 . S
H4191 C4210 0.951 1_554 S
H4192 C4212 0.950 . S
H4193 C4213 0.950 . S
H4194 C4215 0.950 . S
H4195 C4218 0.932 1_556 S
H4196 C4219 0.950 1_556 S
H4197 C4221 0.950 . S
H4198 C4222 0.950 . S
H4199 C4223 0.951 . S
H4200 C4225 0.951 1_556 S
H4201 C4227 0.950 . S
H4202 C4228 0.950 . S
H4203 C4230 0.950 . S
H4204 C4233 0.932 1_554 S
H4205 C4234 0.950 1_554 S
H4206 C4236 0.950 . S
H4207 C4237 0.950 . S
C4208 H4190 0.951 . S
C4208 C4209 1.366 . S
C4208 C4210 1.388 . S
C4209 C4208 1.366 . S
C4209 C4213 1.385 . S
C4210 H4191 0.951 1_556 S
C4210 C4208 1.388 . S
C4210 C4211 1.366 . S
C4211 C4210 1.366 . S
C4211 C4212 1.414 . S
C4211 C4214 1.499 . S
C4212 H4192 0.950 . S
C4212 C4211 1.414 . S
C4212 C4213 1.374 . S
C4213 H4193 0.950 . S
C4213 C4209 1.385 . S
C4213 C4212 1.374 . S
C4214 C4211 1.499 . S
C4214 C4215 1.373 . S
C4214 C4216 1.389 1_556 S
C4215 H4194 0.950 . S
C4215 C4214 1.373 . S
C4215 C4231 1.377 . S
C4216 C4214 1.389 1_554 S
C4216 C4217 1.524 . S
C4216 C4230 1.377 . S
C4217 C4216 1.524 . S
C4217 C4218 1.409 . S
C4217 C4222 1.363 . S
C4218 H4195 0.932 1_554 S
C4218 C4217 1.409 . S
C4218 C4219 1.339 . S
C4219 H4196 0.950 1_554 S
C4219 C4218 1.339 . S
C4219 C4220 1.287 . S
C4220 C4219 1.287 . S
C4220 C4221 1.524 . S
C4220 H4239 0.913 . S
C4221 H4197 0.950 . S
C4221 C4220 1.524 . S
C4221 C4222 1.415 . S
C4222 H4198 0.950 . S
C4222 C4217 1.363 . S
C4222 C4221 1.415 . S
C4223 H4199 0.951 . S
C4223 C4224 1.366 . S
C4223 C4225 1.388 . S
C4224 C4223 1.366 . S
C4224 C4228 1.385 . S
C4225 H4200 0.951 1_554 S
C4225 C4223 1.388 . S
C4225 C4226 1.366 . S
C4226 C4225 1.366 . S
C4226 C4227 1.414 . S
C4226 C4229 1.499 . S
C4227 H4201 0.950 . S
C4227 C4226 1.414 . S
C4227 C4228 1.374 . S
C4228 H4202 0.950 . S
C4228 C4224 1.385 . S
C4228 C4227 1.374 . S
C4229 C4226 1.499 . S
C4229 C4230 1.373 . S
C4229 C4231 1.389 1_554 S
C4230 H4203 0.950 . S
C4230 C4216 1.377 . S
C4230 C4229 1.373 . S
C4231 C4215 1.377 . S
C4231 C4229 1.389 1_556 S
C4231 C4232 1.524 . S
C4232 C4231 1.524 . S
C4232 C4233 1.409 . S
C4232 C4237 1.363 . S
C4233 H4204 0.932 1_556 S
C4233 C4232 1.409 . S
C4233 C4234 1.339 . S
C4234 H4205 0.950 1_556 S
C4234 C4233 1.339 . S
C4234 C4235 1.287 . S
C4235 C4234 1.287 . S
C4235 C4236 1.524 . S
C4235 H4238 0.999 . S
C4236 H4206 0.950 . S
C4236 C4235 1.524 . S
C4236 C4237 1.415 . S
C4237 H4207 0.950 . S
C4237 C4232 1.363 . S
C4237 C4236 1.415 . S
H4238 C4235 0.999 . S
H4239 C4220 0.913 . S
H4240 C4258 0.951 . S
H4241 C4260 0.951 . S
H4242 C4262 0.950 . S
H4243 C4263 0.950 . S
H4244 C4265 0.950 . S
H4245 C4268 0.950 . S
H4246 C4269 0.950 . S
H4247 C4271 0.950 . S
H4248 C4272 0.950 . S
H4249 C4273 0.951 . S
H4250 C4275 0.951 . S
H4251 C4277 0.950 . S
H4252 C4278 0.950 . S
H4253 C4280 0.950 . S
H4254 C4283 0.950 . S
H4255 C4284 0.950 . S
H4256 C4286 0.950 . S
H4257 C4287 0.950 . S
C4258 H4240 0.951 . S
C4258 C4259 1.366 . S
C4258 C4260 1.388 . S
C4259 C4258 1.366 . S
C4259 C4263 1.385 . S
C4260 H4241 0.951 . S
C4260 C4258 1.388 . S
C4260 C4261 1.366 . S
C4261 C4260 1.366 . S
C4261 C4262 1.414 . S
C4261 C4264 1.499 . S
C4262 H4242 0.950 . S
C4262 C4261 1.414 . S
C4262 C4263 1.374 . S
C4263 H4243 0.950 . S
C4263 C4259 1.385 . S
C4263 C4262 1.374 . S
C4264 C4261 1.499 . S
C4264 C4265 1.373 . S
C4264 C4266 1.389 . S
C4265 H4244 0.950 . S
C4265 C4264 1.373 . S
C4265 C4281 1.377 . S
C4266 C4264 1.389 . S
C4266 C4267 1.524 . S
C4266 C4280 1.377 . S
C4267 C4266 1.524 . S
C4267 C4268 1.397 . S
C4267 C4272 1.363 . S
C4268 H4245 0.950 . S
C4268 C4267 1.397 . S
C4268 C4269 1.334 . S
C4269 H4246 0.950 . S
C4269 C4268 1.334 . S
C4269 C4270 1.287 . S
C4270 C4269 1.287 . S
C4270 C4271 1.524 . S
C4270 H4289 0.913 . S
C4271 H4247 0.950 . S
C4271 C4270 1.524 . S
C4271 C4272 1.415 . S
C4272 H4248 0.950 . S
C4272 C4267 1.363 . S
C4272 C4271 1.415 . S
C4273 H4249 0.951 . S
C4273 C4274 1.366 . S
C4273 C4275 1.388 . S
C4274 C4273 1.366 . S
C4274 C4278 1.385 . S
C4275 H4250 0.951 . S
C4275 C4273 1.388 . S
C4275 C4276 1.366 . S
C4276 C4275 1.366 . S
C4276 C4277 1.414 . S
C4276 C4279 1.499 . S
C4277 H4251 0.950 . S
C4277 C4276 1.414 . S
C4277 C4278 1.374 . S
C4278 H4252 0.950 . S
C4278 C4274 1.385 . S
C4278 C4277 1.374 . S
C4279 C4276 1.499 . S
C4279 C4280 1.373 . S
C4279 C4281 1.389 . S
C4280 H4253 0.950 . S
C4280 C4266 1.377 . S
C4280 C4279 1.373 . S
C4281 C4265 1.377 . S
C4281 C4279 1.389 . S
C4281 C4282 1.524 . S
C4282 C4281 1.524 . S
C4282 C4283 1.397 . S
C4282 C4287 1.363 . S
C4283 H4254 0.950 . S
C4283 C4282 1.397 . S
C4283 C4284 1.334 . S
C4284 H4255 0.950 . S
C4284 C4283 1.334 . S
C4284 C4285 1.287 . S
C4285 C4284 1.287 . S
C4285 C4286 1.524 . S
C4285 H4288 0.999 . S
C4286 H4256 0.950 . S
C4286 C4285 1.524 . S
C4286 C4287 1.415 . S
C4287 H4257 0.950 . S
C4287 C4282 1.363 . S
C4287 C4286 1.415 . S
H4288 C4285 0.999 . S
H4289 C4270 0.913 . S
H4290 C4308 0.951 . S
H4291 C4310 0.951 1_554 S
H4292 C4312 0.950 . S
H4293 C4313 0.950 . S
H4294 C4315 0.950 . S
H4295 C4318 0.950 . S
H4296 C4319 0.950 . S
H4297 C4321 0.950 . S
H4298 C4322 0.950 . S
H4299 C4323 0.951 . S
H4300 C4325 0.951 1_556 S
H4301 C4327 0.950 . S
H4302 C4328 0.950 . S
H4303 C4330 0.950 . S
H4304 C4333 0.950 . S
H4305 C4334 0.950 . S
H4306 C4336 0.950 . S
H4307 C4337 0.950 . S
C4308 H4290 0.951 . S
C4308 C4309 1.366 . S
C4308 C4310 1.388 . S
C4309 C4308 1.366 . S
C4309 C4313 1.385 . S
C4310 H4291 0.951 1_556 S
C4310 C4308 1.388 . S
C4310 C4311 1.366 . S
C4311 C4310 1.366 . S
C4311 C4312 1.414 . S
C4311 C4314 1.499 . S
C4312 H4292 0.950 . S
C4312 C4311 1.414 . S
C4312 C4313 1.374 . S
C4313 H4293 0.950 . S
C4313 C4309 1.385 . S
C4313 C4312 1.374 . S
C4314 C4311 1.499 . S
C4314 C4315 1.373 . S
C4314 C4316 1.375 1_556 S
C4315 H4294 0.950 . S
C4315 C4314 1.373 . S
C4315 C4331 1.391 . S
C4316 C4314 1.375 1_554 S
C4316 C4317 1.524 . S
C4316 C4330 1.391 . S
C4317 C4316 1.524 . S
C4317 C4318 1.366 1_554 S
C4317 C4322 1.392 . S
C4318 H4295 0.950 . S
C4318 C4317 1.366 1_556 S
C4318 C4319 1.334 . S
C4319 H4296 0.950 . S
C4319 C4318 1.334 . S
C4319 C4320 1.287 . S
C4320 C4319 1.287 . S
C4320 C4321 1.524 1_556 S
C4320 H4339 0.913 . S
C4321 H4297 0.950 . S
C4321 C4320 1.524 1_554 S
C4321 C4322 1.415 . S
C4322 H4298 0.950 . S
C4322 C4317 1.392 . S
C4322 C4321 1.415 . S
C4323 H4299 0.951 . S
C4323 C4324 1.366 . S
C4323 C4325 1.388 . S
C4324 C4323 1.366 . S
C4324 C4328 1.385 . S
C4325 H4300 0.951 1_554 S
C4325 C4323 1.388 . S
C4325 C4326 1.366 . S
C4326 C4325 1.366 . S
C4326 C4327 1.414 . S
C4326 C4329 1.499 . S
C4327 H4301 0.950 . S
C4327 C4326 1.414 . S
C4327 C4328 1.374 . S
C4328 H4302 0.950 . S
C4328 C4324 1.385 . S
C4328 C4327 1.374 . S
C4329 C4326 1.499 . S
C4329 C4330 1.373 . S
C4329 C4331 1.375 1_554 S
C4330 H4303 0.950 . S
C4330 C4316 1.391 . S
C4330 C4329 1.373 . S
C4331 C4315 1.391 . S
C4331 C4329 1.375 1_556 S
C4331 C4332 1.524 . S
C4332 C4331 1.524 . S
C4332 C4333 1.366 1_556 S
C4332 C4337 1.393 . S
C4333 H4304 0.950 . S
C4333 C4332 1.366 1_554 S
C4333 C4334 1.334 . S
C4334 H4305 0.950 . S
C4334 C4333 1.334 . S
C4334 C4335 1.287 . S
C4335 C4334 1.287 . S
C4335 C4336 1.524 1_554 S
C4335 H4338 0.999 . S
C4336 H4306 0.950 . S
C4336 C4335 1.524 1_556 S
C4336 C4337 1.415 . S
C4337 H4307 0.950 . S
C4337 C4332 1.393 . S
C4337 C4336 1.415 . S
H4338 C4335 0.999 . S
H4339 C4320 0.913 . S
H4340 C4358 0.951 . S
H4341 C4360 0.951 . S
H4342 C4362 0.950 . S
H4343 C4363 0.950 . S
H4344 C4365 0.950 . S
H4345 C4368 0.950 . S
H4346 C4369 0.950 . S
H4347 C4371 0.950 . S
H4348 C4372 0.950 . S
H4349 C4373 0.951 . S
H4350 C4375 0.951 . S
H4351 C4377 0.950 . S
H4352 C4378 0.950 . S
H4353 C4380 0.950 . S
H4354 C4383 0.950 . S
H4355 C4384 0.950 . S
H4356 C4386 0.950 . S
H4357 C4387 0.950 . S
C4358 H4340 0.951 . S
C4358 C4359 1.366 . S
C4358 C4360 1.388 . S
C4359 C4358 1.366 . S
C4359 C4363 1.385 . S
C4360 H4341 0.951 . S
C4360 C4358 1.388 . S
C4360 C4361 1.366 . S
C4361 C4360 1.366 . S
C4361 C4362 1.414 . S
C4361 C4364 1.499 . S
C4362 H4342 0.950 . S
C4362 C4361 1.414 . S
C4362 C4363 1.374 . S
C4363 H4343 0.950 . S
C4363 C4359 1.385 . S
C4363 C4362 1.374 . S
C4364 C4361 1.499 . S
C4364 C4365 1.373 . S
C4364 C4366 1.389 . S
C4365 H4344 0.950 . S
C4365 C4364 1.373 . S
C4365 C4381 1.377 . S
C4366 C4364 1.389 . S
C4366 C4367 1.524 . S
C4366 C4380 1.377 . S
C4367 C4366 1.524 . S
C4367 C4368 1.397 . S
C4367 C4372 1.363 . S
C4368 H4345 0.950 . S
C4368 C4367 1.397 . S
C4368 C4369 1.334 . S
C4369 H4346 0.950 . S
C4369 C4368 1.334 . S
C4369 C4370 1.287 . S
C4370 C4369 1.287 . S
C4370 C4371 1.524 . S
C4370 H4389 0.913 . S
C4371 H4347 0.950 . S
C4371 C4370 1.524 . S
C4371 C4372 1.415 . S
C4372 H4348 0.950 . S
C4372 C4367 1.363 . S
C4372 C4371 1.415 . S
C4373 H4349 0.951 . S
C4373 C4374 1.366 . S
C4373 C4375 1.388 . S
C4374 C4373 1.366 . S
C4374 C4378 1.385 . S
C4375 H4350 0.951 . S
C4375 C4373 1.388 . S
C4375 C4376 1.366 . S
C4376 C4375 1.366 . S
C4376 C4377 1.414 . S
C4376 C4379 1.499 . S
C4377 H4351 0.950 . S
C4377 C4376 1.414 . S
C4377 C4378 1.374 . S
C4378 H4352 0.950 . S
C4378 C4374 1.385 . S
C4378 C4377 1.374 . S
C4379 C4376 1.499 . S
C4379 C4380 1.373 . S
C4379 C4381 1.389 . S
C4380 H4353 0.950 . S
C4380 C4366 1.377 . S
C4380 C4379 1.373 . S
C4381 C4365 1.377 . S
C4381 C4379 1.389 . S
C4381 C4382 1.524 . S
C4382 C4381 1.524 . S
C4382 C4383 1.397 . S
C4382 C4387 1.363 . S
C4383 H4354 0.950 . S
C4383 C4382 1.397 . S
C4383 C4384 1.334 . S
C4384 H4355 0.950 . S
C4384 C4383 1.334 . S
C4384 C4385 1.287 . S
C4385 C4384 1.287 . S
C4385 C4386 1.524 . S
C4385 H4388 0.999 . S
C4386 H4356 0.950 . S
C4386 C4385 1.524 . S
C4386 C4387 1.415 . S
C4387 H4357 0.950 . S
C4387 C4382 1.363 . S
C4387 C4386 1.415 . S
H4388 C4385 0.999 . S
H4389 C4370 0.913 . S
H4390 C4408 0.951 . S
H4391 C4410 0.951 . S
H4392 C4412 0.950 . S
H4393 C4413 0.950 . S
H4394 C4415 0.950 . S
H4395 C4418 0.950 . S
H4396 C4419 0.950 . S
H4397 C4421 0.950 . S
H4398 C4422 0.950 . S
H4399 C4423 0.951 . S
H4400 C4425 0.951 . S
H4401 C4427 0.950 . S
H4402 C4428 0.950 . S
H4403 C4430 0.950 . S
H4404 C4433 0.950 . S
H4405 C4434 0.950 . S
H4406 C4436 0.950 . S
H4407 C4437 0.950 . S
C4408 H4390 0.951 . S
C4408 C4409 1.366 . S
C4408 C4410 1.388 . S
C4409 C4408 1.366 . S
C4409 C4413 1.385 . S
C4410 H4391 0.951 . S
C4410 C4408 1.388 . S
C4410 C4411 1.366 . S
C4411 C4410 1.366 . S
C4411 C4412 1.414 . S
C4411 C4414 1.499 . S
C4412 H4392 0.950 . S
C4412 C4411 1.414 . S
C4412 C4413 1.374 . S
C4413 H4393 0.950 . S
C4413 C4409 1.385 . S
C4413 C4412 1.374 . S
C4414 C4411 1.499 . S
C4414 C4415 1.373 . S
C4414 C4416 1.389 . S
C4415 H4394 0.950 . S
C4415 C4414 1.373 . S
C4415 C4431 1.377 . S
C4416 C4414 1.389 . S
C4416 C4417 1.524 . S
C4416 C4430 1.377 . S
C4417 C4416 1.524 . S
C4417 C4418 1.397 . S
C4417 C4422 1.363 . S
C4418 H4395 0.950 . S
C4418 C4417 1.397 . S
C4418 C4419 1.334 . S
C4419 H4396 0.950 . S
C4419 C4418 1.334 . S
C4419 C4420 1.287 . S
C4420 C4419 1.287 . S
C4420 C4421 1.524 . S
C4420 H4439 0.913 . S
C4421 H4397 0.950 . S
C4421 C4420 1.524 . S
C4421 C4422 1.415 . S
C4422 H4398 0.950 . S
C4422 C4417 1.363 . S
C4422 C4421 1.415 . S
C4423 H4399 0.951 . S
C4423 C4424 1.366 . S
C4423 C4425 1.388 . S
C4424 C4423 1.366 . S
C4424 C4428 1.385 . S
C4425 H4400 0.951 . S
C4425 C4423 1.388 . S
C4425 C4426 1.366 . S
C4426 C4425 1.366 . S
C4426 C4427 1.414 . S
C4426 C4429 1.499 . S
C4427 H4401 0.950 . S
C4427 C4426 1.414 . S
C4427 C4428 1.374 . S
C4428 H4402 0.950 . S
C4428 C4424 1.385 . S
C4428 C4427 1.374 . S
C4429 C4426 1.499 . S
C4429 C4430 1.373 . S
C4429 C4431 1.389 . S
C4430 H4403 0.950 . S
C4430 C4416 1.377 . S
C4430 C4429 1.373 . S
C4431 C4415 1.377 . S
C4431 C4429 1.389 . S
C4431 C4432 1.524 . S
C4432 C4431 1.524 . S
C4432 C4433 1.397 . S
C4432 C4437 1.363 . S
C4433 H4404 0.950 . S
C4433 C4432 1.397 . S
C4433 C4434 1.334 . S
C4434 H4405 0.950 . S
C4434 C4433 1.334 . S
C4434 C4435 1.287 . S
C4435 C4434 1.287 . S
C4435 C4436 1.524 . S
C4435 H4438 0.999 . S
C4436 H4406 0.950 . S
C4436 C4435 1.524 . S
C4436 C4437 1.415 . S
C4437 H4407 0.950 . S
C4437 C4432 1.363 . S
C4437 C4436 1.415 . S
H4438 C4435 0.999 . S
H4439 C4420 0.913 . S
H4440 C4458 0.951 . S
H4441 C4460 0.951 . S
H4442 C4462 0.950 . S
H4443 C4463 0.950 . S
H4444 C4465 0.950 . S
H4445 C4468 0.950 . S
H4446 C4469 0.950 . S
H4447 C4471 0.950 . S
H4448 C4472 0.950 . S
H4449 C4473 0.951 . S
H4450 C4475 0.951 . S
H4451 C4477 0.950 . S
H4452 C4478 0.950 . S
H4453 C4480 0.950 . S
H4454 C4483 0.950 . S
H4455 C4484 0.950 . S
H4456 C4486 0.950 . S
H4457 C4487 0.950 . S
C4458 H4440 0.951 . S
C4458 C4459 1.366 . S
C4458 C4460 1.388 . S
C4459 C4458 1.366 . S
C4459 C4463 1.385 . S
C4460 H4441 0.951 . S
C4460 C4458 1.388 . S
C4460 C4461 1.366 . S
C4461 C4460 1.366 . S
C4461 C4462 1.414 . S
C4461 C4464 1.499 . S
C4462 H4442 0.950 . S
C4462 C4461 1.414 . S
C4462 C4463 1.374 . S
C4463 H4443 0.950 . S
C4463 C4459 1.385 . S
C4463 C4462 1.374 . S
C4464 C4461 1.499 . S
C4464 C4465 1.373 . S
C4464 C4466 1.389 . S
C4465 H4444 0.950 . S
C4465 C4464 1.373 . S
C4465 C4481 1.377 . S
C4466 C4464 1.389 . S
C4466 C4467 1.524 . S
C4466 C4480 1.377 . S
C4467 C4466 1.524 . S
C4467 C4468 1.397 . S
C4467 C4472 1.363 . S
C4468 H4445 0.950 . S
C4468 C4467 1.397 . S
C4468 C4469 1.334 . S
C4469 H4446 0.950 . S
C4469 C4468 1.334 . S
C4469 C4470 1.287 . S
C4470 C4469 1.287 . S
C4470 C4471 1.524 . S
C4470 H4489 0.913 . S
C4471 H4447 0.950 . S
C4471 C4470 1.524 . S
C4471 C4472 1.415 . S
C4472 H4448 0.950 . S
C4472 C4467 1.363 . S
C4472 C4471 1.415 . S
C4473 H4449 0.951 . S
C4473 C4474 1.366 . S
C4473 C4475 1.388 . S
C4474 C4473 1.366 . S
C4474 C4478 1.385 . S
C4475 H4450 0.951 . S
C4475 C4473 1.388 . S
C4475 C4476 1.366 . S
C4476 C4475 1.366 . S
C4476 C4477 1.414 . S
C4476 C4479 1.499 . S
C4477 H4451 0.950 . S
C4477 C4476 1.414 . S
C4477 C4478 1.374 . S
C4478 H4452 0.950 . S
C4478 C4474 1.385 . S
C4478 C4477 1.374 . S
C4479 C4476 1.499 . S
C4479 C4480 1.373 . S
C4479 C4481 1.389 . S
C4480 H4453 0.950 . S
C4480 C4466 1.377 . S
C4480 C4479 1.373 . S
C4481 C4465 1.377 . S
C4481 C4479 1.389 . S
C4481 C4482 1.524 . S
C4482 C4481 1.524 . S
C4482 C4483 1.397 . S
C4482 C4487 1.363 . S
C4483 H4454 0.950 . S
C4483 C4482 1.397 . S
C4483 C4484 1.334 . S
C4484 H4455 0.950 . S
C4484 C4483 1.334 . S
C4484 C4485 1.287 . S
C4485 C4484 1.287 . S
C4485 C4486 1.524 . S
C4485 H4488 0.999 . S
C4486 H4456 0.950 . S
C4486 C4485 1.524 . S
C4486 C4487 1.415 . S
C4487 H4457 0.950 . S
C4487 C4482 1.363 . S
C4487 C4486 1.415 . S
H4488 C4485 0.999 . S
H4489 C4470 0.913 . S
H4490 C4508 0.951 . S
H4491 C4510 0.951 1_554 S
H4492 C4512 0.950 . S
H4493 C4513 0.950 . S
H4494 C4515 0.950 . S
H4495 C4518 0.962 . S
H4496 C4519 0.950 . S
H4497 C4521 0.950 . S
H4498 C4522 0.950 . S
H4499 C4523 0.951 . S
H4500 C4525 0.951 1_556 S
H4501 C4527 0.950 . S
H4502 C4528 0.950 . S
H4503 C4530 0.950 . S
H4504 C4533 0.962 . S
H4505 C4534 0.950 . S
H4506 C4536 0.950 . S
H4507 C4537 0.950 . S
C4508 H4490 0.951 . S
C4508 C4509 1.366 . S
C4508 C4510 1.388 . S
C4509 C4508 1.366 . S
C4509 C4513 1.385 . S
C4510 H4491 0.951 1_556 S
C4510 C4508 1.388 . S
C4510 C4511 1.366 . S
C4511 C4510 1.366 . S
C4511 C4512 1.414 . S
C4511 C4514 1.499 . S
C4512 H4492 0.950 . S
C4512 C4511 1.414 . S
C4512 C4513 1.374 . S
C4513 H4493 0.950 . S
C4513 C4509 1.385 . S
C4513 C4512 1.374 . S
C4514 C4511 1.499 . S
C4514 C4515 1.373 . S
C4514 C4516 1.389 1_556 S
C4515 H4494 0.950 . S
C4515 C4514 1.373 . S
C4515 C4531 1.377 . S
C4516 C4514 1.389 1_554 S
C4516 C4517 1.524 . S
C4516 C4530 1.377 . S
C4517 C4516 1.524 . S
C4517 C4518 1.397 . S
C4517 C4522 1.363 . S
C4518 H4495 0.962 . S
C4518 C4517 1.397 . S
C4518 C4519 1.334 . S
C4519 H4496 0.950 . S
C4519 C4518 1.334 . S
C4519 C4520 1.287 . S
C4520 C4519 1.287 . S
C4520 C4521 1.524 . S
C4520 H4539 0.913 . S
C4521 H4497 0.950 . S
C4521 C4520 1.524 . S
C4521 C4522 1.415 . S
C4522 H4498 0.950 . S
C4522 C4517 1.363 . S
C4522 C4521 1.415 . S
C4523 H4499 0.951 . S
C4523 C4524 1.366 . S
C4523 C4525 1.388 . S
C4524 C4523 1.366 . S
C4524 C4528 1.385 . S
C4525 H4500 0.951 1_554 S
C4525 C4523 1.388 . S
C4525 C4526 1.366 . S
C4526 C4525 1.366 . S
C4526 C4527 1.414 . S
C4526 C4529 1.499 . S
C4527 H4501 0.950 . S
C4527 C4526 1.414 . S
C4527 C4528 1.374 . S
C4528 H4502 0.950 . S
C4528 C4524 1.385 . S
C4528 C4527 1.374 . S
C4529 C4526 1.499 . S
C4529 C4530 1.373 . S
C4529 C4531 1.389 1_554 S
C4530 H4503 0.950 . S
C4530 C4516 1.377 . S
C4530 C4529 1.373 . S
C4531 C4515 1.377 . S
C4531 C4529 1.389 1_556 S
C4531 C4532 1.524 . S
C4532 C4531 1.524 . S
C4532 C4533 1.397 . S
C4532 C4537 1.363 . S
C4533 H4504 0.962 . S
C4533 C4532 1.397 . S
C4533 C4534 1.334 . S
C4534 H4505 0.950 . S
C4534 C4533 1.334 . S
C4534 C4535 1.287 . S
C4535 C4534 1.287 . S
C4535 C4536 1.524 . S
C4535 H4538 0.999 . S
C4536 H4506 0.950 . S
C4536 C4535 1.524 . S
C4536 C4537 1.415 . S
C4537 H4507 0.950 . S
C4537 C4532 1.363 . S
C4537 C4536 1.415 . S
H4538 C4535 0.999 . S
H4539 C4520 0.913 . S
H4540 C4558 0.951 . S
H4541 C4560 0.951 . S
H4542 C4562 0.950 . S
H4543 C4563 0.950 . S
H4544 C4565 0.950 . S
H4545 C4568 0.950 . S
H4546 C4569 0.950 . S
H4547 C4571 0.950 . S
H4548 C4572 0.950 . S
H4549 C4573 0.951 . S
H4550 C4575 0.951 . S
H4551 C4577 0.950 . S
H4552 C4578 0.950 . S
H4553 C4580 0.950 . S
H4554 C4583 0.950 . S
H4555 C4584 0.950 . S
H4556 C4586 0.950 . S
H4557 C4587 0.950 . S
C4558 H4540 0.951 . S
C4558 C4559 1.366 . S
C4558 C4560 1.388 . S
C4559 C4558 1.366 . S
C4559 C4563 1.385 . S
C4560 H4541 0.951 . S
C4560 C4558 1.388 . S
C4560 C4561 1.366 . S
C4561 C4560 1.366 . S
C4561 C4562 1.414 . S
C4561 C4564 1.499 . S
C4562 H4542 0.950 . S
C4562 C4561 1.414 . S
C4562 C4563 1.374 . S
C4563 H4543 0.950 . S
C4563 C4559 1.385 . S
C4563 C4562 1.374 . S
C4564 C4561 1.499 . S
C4564 C4565 1.373 . S
C4564 C4566 1.389 . S
C4565 H4544 0.950 . S
C4565 C4564 1.373 . S
C4565 C4581 1.377 . S
C4566 C4564 1.389 . S
C4566 C4567 1.524 . S
C4566 C4580 1.377 . S
C4567 C4566 1.524 . S
C4567 C4568 1.397 . S
C4567 C4572 1.363 . S
C4568 H4545 0.950 . S
C4568 C4567 1.397 . S
C4568 C4569 1.334 . S
C4569 H4546 0.950 . S
C4569 C4568 1.334 . S
C4569 C4570 1.287 . S
C4570 C4569 1.287 . S
C4570 C4571 1.524 . S
C4570 H4589 0.913 . S
C4571 H4547 0.950 . S
C4571 C4570 1.524 . S
C4571 C4572 1.415 . S
C4572 H4548 0.950 . S
C4572 C4567 1.363 . S
C4572 C4571 1.415 . S
C4573 H4549 0.951 . S
C4573 C4574 1.366 . S
C4573 C4575 1.388 . S
C4574 C4573 1.366 . S
C4574 C4578 1.385 . S
C4575 H4550 0.951 . S
C4575 C4573 1.388 . S
C4575 C4576 1.366 . S
C4576 C4575 1.366 . S
C4576 C4577 1.414 . S
C4576 C4579 1.499 . S
C4577 H4551 0.950 . S
C4577 C4576 1.414 . S
C4577 C4578 1.374 . S
C4578 H4552 0.950 . S
C4578 C4574 1.385 . S
C4578 C4577 1.374 . S
C4579 C4576 1.499 . S
C4579 C4580 1.373 . S
C4579 C4581 1.389 . S
C4580 H4553 0.950 . S
C4580 C4566 1.377 . S
C4580 C4579 1.373 . S
C4581 C4565 1.377 . S
C4581 C4579 1.389 . S
C4581 C4582 1.524 . S
C4582 C4581 1.524 . S
C4582 C4583 1.397 . S
C4582 C4587 1.363 . S
C4583 H4554 0.950 . S
C4583 C4582 1.397 . S
C4583 C4584 1.334 . S
C4584 H4555 0.950 . S
C4584 C4583 1.334 . S
C4584 C4585 1.287 . S
C4585 C4584 1.287 . S
C4585 C4586 1.524 . S
C4585 H4588 0.999 . S
C4586 H4556 0.950 . S
C4586 C4585 1.524 . S
C4586 C4587 1.415 . S
C4587 H4557 0.950 . S
C4587 C4582 1.363 . S
C4587 C4586 1.415 . S
H4588 C4585 0.999 . S
H4589 C4570 0.913 . S
H4590 C4608 0.951 . S
H4591 C4610 0.951 . S
H4592 C4612 0.950 . S
H4593 C4613 0.950 . S
H4594 C4615 0.950 . S
H4595 C4618 0.950 . S
H4596 C4619 0.950 . S
H4597 C4621 0.950 . S
H4598 C4622 0.950 . S
H4599 C4623 0.951 . S
H4600 C4625 0.951 . S
H4601 C4627 0.950 . S
H4602 C4628 0.950 . S
H4603 C4630 0.950 . S
H4604 C4633 0.950 . S
H4605 C4634 0.950 . S
H4606 C4636 0.950 . S
H4607 C4637 0.950 . S
C4608 H4590 0.951 . S
C4608 C4609 1.366 . S
C4608 C4610 1.388 . S
C4609 C4608 1.366 . S
C4609 C4613 1.385 . S
C4610 H4591 0.951 . S
C4610 C4608 1.388 . S
C4610 C4611 1.366 . S
C4611 C4610 1.366 . S
C4611 C4612 1.414 . S
C4611 C4614 1.499 . S
C4612 H4592 0.950 . S
C4612 C4611 1.414 . S
C4612 C4613 1.374 . S
C4613 H4593 0.950 . S
C4613 C4609 1.385 . S
C4613 C4612 1.374 . S
C4614 C4611 1.499 . S
C4614 C4615 1.373 . S
C4614 C4616 1.389 . S
C4615 H4594 0.950 . S
C4615 C4614 1.373 . S
C4615 C4631 1.377 . S
C4616 C4614 1.389 . S
C4616 C4617 1.524 . S
C4616 C4630 1.377 . S
C4617 C4616 1.524 . S
C4617 C4618 1.397 . S
C4617 C4622 1.363 . S
C4618 H4595 0.950 . S
C4618 C4617 1.397 . S
C4618 C4619 1.334 . S
C4619 H4596 0.950 . S
C4619 C4618 1.334 . S
C4619 C4620 1.287 . S
C4620 C4619 1.287 . S
C4620 C4621 1.524 . S
C4620 H4639 0.913 . S
C4621 H4597 0.950 . S
C4621 C4620 1.524 . S
C4621 C4622 1.415 . S
C4622 H4598 0.950 . S
C4622 C4617 1.363 . S
C4622 C4621 1.415 . S
C4623 H4599 0.951 . S
C4623 C4624 1.366 . S
C4623 C4625 1.388 . S
C4624 C4623 1.366 . S
C4624 C4628 1.385 . S
C4625 H4600 0.951 . S
C4625 C4623 1.388 . S
C4625 C4626 1.366 . S
C4626 C4625 1.366 . S
C4626 C4627 1.414 . S
C4626 C4629 1.499 . S
C4627 H4601 0.950 . S
C4627 C4626 1.414 . S
C4627 C4628 1.374 . S
C4628 H4602 0.950 . S
C4628 C4624 1.385 . S
C4628 C4627 1.374 . S
C4629 C4626 1.499 . S
C4629 C4630 1.373 . S
C4629 C4631 1.389 . S
C4630 H4603 0.950 . S
C4630 C4616 1.377 . S
C4630 C4629 1.373 . S
C4631 C4615 1.377 . S
C4631 C4629 1.389 . S
C4631 C4632 1.524 . S
C4632 C4631 1.524 . S
C4632 C4633 1.397 . S
C4632 C4637 1.363 . S
C4633 H4604 0.950 . S
C4633 C4632 1.397 . S
C4633 C4634 1.334 . S
C4634 H4605 0.950 . S
C4634 C4633 1.334 . S
C4634 C4635 1.287 . S
C4635 C4634 1.287 . S
C4635 C4636 1.524 . S
C4635 H4638 0.999 . S
C4636 H4606 0.950 . S
C4636 C4635 1.524 . S
C4636 C4637 1.415 . S
C4637 H4607 0.950 . S
C4637 C4632 1.363 . S
C4637 C4636 1.415 . S
H4638 C4635 0.999 . S
H4639 C4620 0.913 . S
H4640 C4658 0.951 . S
H4641 C4660 0.951 . S
H4642 C4662 0.950 . S
H4643 C4663 0.950 . S
H4644 C4665 0.950 . S
H4645 C4668 0.950 . S
H4646 C4669 0.950 . S
H4647 C4671 0.950 . S
H4648 C4672 0.950 . S
H4649 C4673 0.951 . S
H4650 C4675 0.951 . S
H4651 C4677 0.950 . S
H4652 C4678 0.950 . S
H4653 C4680 0.950 . S
H4654 C4683 0.950 . S
H4655 C4684 0.950 . S
H4656 C4686 0.950 . S
H4657 C4687 0.950 . S
C4658 H4640 0.951 . S
C4658 C4659 1.366 . S
C4658 C4660 1.388 . S
C4659 C4658 1.366 . S
C4659 C4663 1.385 . S
C4660 H4641 0.951 . S
C4660 C4658 1.388 . S
C4660 C4661 1.366 . S
C4661 C4660 1.366 . S
C4661 C4662 1.414 . S
C4661 C4664 1.499 . S
C4662 H4642 0.950 . S
C4662 C4661 1.414 . S
C4662 C4663 1.374 . S
C4663 H4643 0.950 . S
C4663 C4659 1.385 . S
C4663 C4662 1.374 . S
C4664 C4661 1.499 . S
C4664 C4665 1.373 . S
C4664 C4666 1.389 . S
C4665 H4644 0.950 . S
C4665 C4664 1.373 . S
C4665 C4681 1.377 . S
C4666 C4664 1.389 . S
C4666 C4667 1.524 . S
C4666 C4680 1.377 . S
C4667 C4666 1.524 . S
C4667 C4668 1.397 . S
C4667 C4672 1.363 . S
C4668 H4645 0.950 . S
C4668 C4667 1.397 . S
C4668 C4669 1.334 . S
C4669 H4646 0.950 . S
C4669 C4668 1.334 . S
C4669 C4670 1.287 . S
C4670 C4669 1.287 . S
C4670 C4671 1.524 . S
C4670 H4689 0.913 . S
C4671 H4647 0.950 . S
C4671 C4670 1.524 . S
C4671 C4672 1.415 . S
C4672 H4648 0.950 . S
C4672 C4667 1.363 . S
C4672 C4671 1.415 . S
C4673 H4649 0.951 . S
C4673 C4674 1.366 . S
C4673 C4675 1.388 . S
C4674 C4673 1.366 . S
C4674 C4678 1.385 . S
C4675 H4650 0.951 . S
C4675 C4673 1.388 . S
C4675 C4676 1.366 . S
C4676 C4675 1.366 . S
C4676 C4677 1.414 . S
C4676 C4679 1.499 . S
C4677 H4651 0.950 . S
C4677 C4676 1.414 . S
C4677 C4678 1.374 . S
C4678 H4652 0.950 . S
C4678 C4674 1.385 . S
C4678 C4677 1.374 . S
C4679 C4676 1.499 . S
C4679 C4680 1.373 . S
C4679 C4681 1.389 . S
C4680 H4653 0.950 . S
C4680 C4666 1.377 . S
C4680 C4679 1.373 . S
C4681 C4665 1.377 . S
C4681 C4679 1.389 . S
C4681 C4682 1.524 . S
C4682 C4681 1.524 . S
C4682 C4683 1.397 . S
C4682 C4687 1.363 . S
C4683 H4654 0.950 . S
C4683 C4682 1.397 . S
C4683 C4684 1.334 . S
C4684 H4655 0.950 . S
C4684 C4683 1.334 . S
C4684 C4685 1.287 . S
C4685 C4684 1.287 . S
C4685 C4686 1.524 . S
C4685 H4688 0.999 . S
C4686 H4656 0.950 . S
C4686 C4685 1.524 . S
C4686 C4687 1.415 . S
C4687 H4657 0.950 . S
C4687 C4682 1.363 . S
C4687 C4686 1.415 . S
H4688 C4685 0.999 . S
H4689 C4670 0.913 . S
H4690 C4708 0.951 . S
H4691 C4710 0.951 . S
H4692 C4712 0.950 . S
H4693 C4713 0.950 . S
H4694 C4715 0.950 . S
H4695 C4718 0.950 . S
H4696 C4719 0.950 . S
H4697 C4721 0.950 . S
H4698 C4722 0.950 . S
H4699 C4723 0.951 . S
H4700 C4725 0.951 . S
H4701 C4727 0.950 . S
H4702 C4728 0.950 . S
H4703 C4730 0.950 . S
H4704 C4733 0.950 . S
H4705 C4734 0.950 . S
H4706 C4736 0.950 . S
H4707 C4737 0.950 . S
C4708 H4690 0.951 . S
C4708 C4709 1.366 . S
C4708 C4710 1.388 . S
C4709 C4708 1.366 . S
C4709 C4713 1.385 . S
C4710 H4691 0.951 . S
C4710 C4708 1.388 . S
C4710 C4711 1.366 . S
C4711 C4710 1.366 . S
C4711 C4712 1.414 . S
C4711 C4714 1.499 . S
C4712 H4692 0.950 . S
C4712 C4711 1.414 . S
C4712 C4713 1.374 . S
C4713 H4693 0.950 . S
C4713 C4709 1.385 . S
C4713 C4712 1.374 . S
C4714 C4711 1.499 . S
C4714 C4715 1.373 . S
C4714 C4716 1.389 . S
C4715 H4694 0.950 . S
C4715 C4714 1.373 . S
C4715 C4731 1.377 . S
C4716 C4714 1.389 . S
C4716 C4717 1.524 . S
C4716 C4730 1.377 . S
C4717 C4716 1.524 . S
C4717 C4718 1.397 . S
C4717 C4722 1.363 . S
C4718 H4695 0.950 . S
C4718 C4717 1.397 . S
C4718 C4719 1.334 . S
C4719 H4696 0.950 . S
C4719 C4718 1.334 . S
C4719 C4720 1.287 . S
C4720 C4719 1.287 . S
C4720 C4721 1.524 . S
C4720 H4739 0.913 . S
C4721 H4697 0.950 . S
C4721 C4720 1.524 . S
C4721 C4722 1.415 . S
C4722 H4698 0.950 . S
C4722 C4717 1.363 . S
C4722 C4721 1.415 . S
C4723 H4699 0.951 . S
C4723 C4724 1.366 . S
C4723 C4725 1.388 . S
C4724 C4723 1.366 . S
C4724 C4728 1.385 . S
C4725 H4700 0.951 . S
C4725 C4723 1.388 . S
C4725 C4726 1.366 . S
C4726 C4725 1.366 . S
C4726 C4727 1.414 . S
C4726 C4729 1.499 . S
C4727 H4701 0.950 . S
C4727 C4726 1.414 . S
C4727 C4728 1.374 . S
C4728 H4702 0.950 . S
C4728 C4724 1.385 . S
C4728 C4727 1.374 . S
C4729 C4726 1.499 . S
C4729 C4730 1.373 . S
C4729 C4731 1.389 . S
C4730 H4703 0.950 . S
C4730 C4716 1.377 . S
C4730 C4729 1.373 . S
C4731 C4715 1.377 . S
C4731 C4729 1.389 . S
C4731 C4732 1.524 . S
C4732 C4731 1.524 . S
C4732 C4733 1.397 . S
C4732 C4737 1.363 . S
C4733 H4704 0.950 . S
C4733 C4732 1.397 . S
C4733 C4734 1.334 . S
C4734 H4705 0.950 . S
C4734 C4733 1.334 . S
C4734 C4735 1.287 . S
C4735 C4734 1.287 . S
C4735 C4736 1.524 . S
C4735 H4738 0.999 . S
C4736 H4706 0.950 . S
C4736 C4735 1.524 . S
C4736 C4737 1.415 . S
C4737 H4707 0.950 . S
C4737 C4732 1.363 . S
C4737 C4736 1.415 . S
H4738 C4735 0.999 . S
H4739 C4720 0.913 . S
H4740 C4758 0.951 . S
H4741 C4760 0.951 . S
H4742 C4762 0.950 . S
H4743 C4763 0.950 . S
H4744 C4765 0.950 . S
H4745 C4768 0.950 . S
H4746 C4769 0.950 . S
H4747 C4771 0.950 . S
H4748 C4772 0.950 . S
H4749 C4773 0.951 . S
H4750 C4775 0.951 . S
H4751 C4777 0.950 . S
H4752 C4778 0.950 . S
H4753 C4780 0.950 . S
H4754 C4783 0.950 . S
H4755 C4784 0.950 . S
H4756 C4786 0.950 . S
H4757 C4787 0.950 . S
C4758 H4740 0.951 . S
C4758 C4759 1.366 . S
C4758 C4760 1.388 . S
C4759 C4758 1.366 . S
C4759 C4763 1.385 . S
C4760 H4741 0.951 . S
C4760 C4758 1.388 . S
C4760 C4761 1.366 . S
C4761 C4760 1.366 . S
C4761 C4762 1.414 . S
C4761 C4764 1.499 . S
C4762 H4742 0.950 . S
C4762 C4761 1.414 . S
C4762 C4763 1.374 . S
C4763 H4743 0.950 . S
C4763 C4759 1.385 . S
C4763 C4762 1.374 . S
C4764 C4761 1.499 . S
C4764 C4765 1.373 . S
C4764 C4766 1.389 . S
C4765 H4744 0.950 . S
C4765 C4764 1.373 . S
C4765 C4781 1.377 . S
C4766 C4764 1.389 . S
C4766 C4767 1.524 . S
C4766 C4780 1.377 . S
C4767 C4766 1.524 . S
C4767 C4768 1.397 . S
C4767 C4772 1.363 . S
C4768 H4745 0.950 . S
C4768 C4767 1.397 . S
C4768 C4769 1.334 . S
C4769 H4746 0.950 . S
C4769 C4768 1.334 . S
C4769 C4770 1.287 . S
C4770 C4769 1.287 . S
C4770 C4771 1.524 . S
C4770 H4789 0.913 . S
C4771 H4747 0.950 . S
C4771 C4770 1.524 . S
C4771 C4772 1.415 . S
C4772 H4748 0.950 . S
C4772 C4767 1.363 . S
C4772 C4771 1.415 . S
C4773 H4749 0.951 . S
C4773 C4774 1.366 . S
C4773 C4775 1.388 . S
C4774 C4773 1.366 . S
C4774 C4778 1.385 . S
C4775 H4750 0.951 . S
C4775 C4773 1.388 . S
C4775 C4776 1.366 . S
C4776 C4775 1.366 . S
C4776 C4777 1.414 . S
C4776 C4779 1.499 . S
C4777 H4751 0.950 . S
C4777 C4776 1.414 . S
C4777 C4778 1.374 . S
C4778 H4752 0.950 . S
C4778 C4774 1.385 . S
C4778 C4777 1.374 . S
C4779 C4776 1.499 . S
C4779 C4780 1.373 . S
C4779 C4781 1.389 . S
C4780 H4753 0.950 . S
C4780 C4766 1.377 . S
C4780 C4779 1.373 . S
C4781 C4765 1.377 . S
C4781 C4779 1.389 . S
C4781 C4782 1.524 . S
C4782 C4781 1.524 . S
C4782 C4783 1.397 . S
C4782 C4787 1.363 . S
C4783 H4754 0.950 . S
C4783 C4782 1.397 . S
C4783 C4784 1.334 . S
C4784 H4755 0.950 . S
C4784 C4783 1.334 . S
C4784 C4785 1.287 . S
C4785 C4784 1.287 . S
C4785 C4786 1.524 . S
C4785 H4788 0.999 . S
C4786 H4756 0.950 . S
C4786 C4785 1.524 . S
C4786 C4787 1.415 . S
C4787 H4757 0.950 . S
C4787 C4782 1.363 . S
C4787 C4786 1.415 . S
H4788 C4785 0.999 . S
H4789 C4770 0.913 . S
H4790 C4808 0.951 . S
H4791 C4810 0.951 . S
H4792 C4812 0.950 . S
H4793 C4813 0.950 . S
H4794 C4815 0.950 . S
H4795 C4818 0.950 . S
H4796 C4819 0.950 . S
H4797 C4821 0.950 . S
H4798 C4822 0.950 . S
H4799 C4823 0.951 . S
H4800 C4825 0.951 . S
H4801 C4827 0.950 . S
H4802 C4828 0.950 . S
H4803 C4830 0.950 . S
H4804 C4833 0.950 . S
H4805 C4834 0.950 . S
H4806 C4836 0.950 . S
H4807 C4837 0.950 . S
C4808 H4790 0.951 . S
C4808 C4809 1.366 . S
C4808 C4810 1.388 . S
C4809 C4808 1.366 . S
C4809 C4813 1.385 . S
C4810 H4791 0.951 . S
C4810 C4808 1.388 . S
C4810 C4811 1.366 . S
C4811 C4810 1.366 . S
C4811 C4812 1.414 . S
C4811 C4814 1.499 . S
C4812 H4792 0.950 . S
C4812 C4811 1.414 . S
C4812 C4813 1.374 . S
C4813 H4793 0.950 . S
C4813 C4809 1.385 . S
C4813 C4812 1.374 . S
C4814 C4811 1.499 . S
C4814 C4815 1.373 . S
C4814 C4816 1.389 . S
C4815 H4794 0.950 . S
C4815 C4814 1.373 . S
C4815 C4831 1.377 . S
C4816 C4814 1.389 . S
C4816 C4817 1.524 . S
C4816 C4830 1.377 . S
C4817 C4816 1.524 . S
C4817 C4818 1.397 . S
C4817 C4822 1.363 . S
C4818 H4795 0.950 . S
C4818 C4817 1.397 . S
C4818 C4819 1.334 . S
C4819 H4796 0.950 . S
C4819 C4818 1.334 . S
C4819 C4820 1.287 . S
C4820 C4819 1.287 . S
C4820 C4821 1.524 . S
C4820 H4839 0.913 . S
C4821 H4797 0.950 . S
C4821 C4820 1.524 . S
C4821 C4822 1.415 . S
C4822 H4798 0.950 . S
C4822 C4817 1.363 . S
C4822 C4821 1.415 . S
C4823 H4799 0.951 . S
C4823 C4824 1.366 . S
C4823 C4825 1.388 . S
C4824 C4823 1.366 . S
C4824 C4828 1.385 . S
C4825 H4800 0.951 . S
C4825 C4823 1.388 . S
C4825 C4826 1.366 . S
C4826 C4825 1.366 . S
C4826 C4827 1.414 . S
C4826 C4829 1.499 . S
C4827 H4801 0.950 . S
C4827 C4826 1.414 . S
C4827 C4828 1.374 . S
C4828 H4802 0.950 . S
C4828 C4824 1.385 . S
C4828 C4827 1.374 . S
C4829 C4826 1.499 . S
C4829 C4830 1.373 . S
C4829 C4831 1.389 . S
C4830 H4803 0.950 . S
C4830 C4816 1.377 . S
C4830 C4829 1.373 . S
C4831 C4815 1.377 . S
C4831 C4829 1.389 . S
C4831 C4832 1.524 . S
C4832 C4831 1.524 . S
C4832 C4833 1.397 . S
C4832 C4837 1.363 . S
C4833 H4804 0.950 . S
C4833 C4832 1.397 . S
C4833 C4834 1.334 . S
C4834 H4805 0.950 . S
C4834 C4833 1.334 . S
C4834 C4835 1.287 . S
C4835 C4834 1.287 . S
C4835 C4836 1.524 . S
C4835 H4838 0.999 . S
C4836 H4806 0.950 . S
C4836 C4835 1.524 . S
C4836 C4837 1.415 . S
C4837 H4807 0.950 . S
C4837 C4832 1.363 . S
C4837 C4836 1.415 . S
H4838 C4835 0.999 . S
H4839 C4820 0.913 . S
H4840 C4858 0.951 . S
H4841 C4860 0.951 . S
H4842 C4862 0.950 . S
H4843 C4863 0.950 . S
H4844 C4865 0.950 . S
H4845 C4868 0.950 . S
H4846 C4869 0.950 . S
H4847 C4871 0.950 . S
H4848 C4872 0.950 . S
H4849 C4873 0.951 . S
H4850 C4875 0.951 . S
H4851 C4877 0.950 . S
H4852 C4878 0.950 . S
H4853 C4880 0.950 . S
H4854 C4883 0.950 . S
H4855 C4884 0.950 . S
H4856 C4886 0.950 . S
H4857 C4887 0.950 . S
C4858 H4840 0.951 . S
C4858 C4859 1.366 . S
C4858 C4860 1.388 . S
C4859 C4858 1.366 . S
C4859 C4863 1.385 . S
C4860 H4841 0.951 . S
C4860 C4858 1.388 . S
C4860 C4861 1.366 . S
C4861 C4860 1.366 . S
C4861 C4862 1.414 . S
C4861 C4864 1.499 . S
C4862 H4842 0.950 . S
C4862 C4861 1.414 . S
C4862 C4863 1.374 . S
C4863 H4843 0.950 . S
C4863 C4859 1.385 . S
C4863 C4862 1.374 . S
C4864 C4861 1.499 . S
C4864 C4865 1.373 . S
C4864 C4866 1.389 . S
C4865 H4844 0.950 . S
C4865 C4864 1.373 . S
C4865 C4881 1.377 . S
C4866 C4864 1.389 . S
C4866 C4867 1.524 . S
C4866 C4880 1.377 . S
C4867 C4866 1.524 . S
C4867 C4868 1.397 . S
C4867 C4872 1.363 . S
C4868 H4845 0.950 . S
C4868 C4867 1.397 . S
C4868 C4869 1.334 . S
C4869 H4846 0.950 . S
C4869 C4868 1.334 . S
C4869 C4870 1.287 . S
C4870 C4869 1.287 . S
C4870 C4871 1.524 . S
C4870 H4889 0.913 . S
C4871 H4847 0.950 . S
C4871 C4870 1.524 . S
C4871 C4872 1.415 . S
C4872 H4848 0.950 . S
C4872 C4867 1.363 . S
C4872 C4871 1.415 . S
C4873 H4849 0.951 . S
C4873 C4874 1.366 . S
C4873 C4875 1.388 . S
C4874 C4873 1.366 . S
C4874 C4878 1.385 . S
C4875 H4850 0.951 . S
C4875 C4873 1.388 . S
C4875 C4876 1.366 . S
C4876 C4875 1.366 . S
C4876 C4877 1.414 . S
C4876 C4879 1.499 . S
C4877 H4851 0.950 . S
C4877 C4876 1.414 . S
C4877 C4878 1.374 . S
C4878 H4852 0.950 . S
C4878 C4874 1.385 . S
C4878 C4877 1.374 . S
C4879 C4876 1.499 . S
C4879 C4880 1.373 . S
C4879 C4881 1.389 . S
C4880 H4853 0.950 . S
C4880 C4866 1.377 . S
C4880 C4879 1.373 . S
C4881 C4865 1.377 . S
C4881 C4879 1.389 . S
C4881 C4882 1.524 . S
C4882 C4881 1.524 . S
C4882 C4883 1.397 . S
C4882 C4887 1.363 . S
C4883 H4854 0.950 . S
C4883 C4882 1.397 . S
C4883 C4884 1.334 . S
C4884 H4855 0.950 . S
C4884 C4883 1.334 . S
C4884 C4885 1.287 . S
C4885 C4884 1.287 . S
C4885 C4886 1.524 . S
C4885 H4888 0.999 . S
C4886 H4856 0.950 . S
C4886 C4885 1.524 . S
C4886 C4887 1.415 . S
C4887 H4857 0.950 . S
C4887 C4882 1.363 . S
C4887 C4886 1.415 . S
H4888 C4885 0.999 . S
H4889 C4870 0.913 . S
H4890 C4908 0.951 . S
H4891 C4910 0.951 . S
H4892 C4912 0.950 . S
H4893 C4913 0.950 . S
H4894 C4915 0.950 . S
H4895 C4918 0.950 . S
H4896 C4919 0.950 . S
H4897 C4921 0.950 . S
H4898 C4922 0.950 . S
H4899 C4923 0.951 . S
H4900 C4925 0.951 . S
H4901 C4927 0.950 . S
H4902 C4928 0.950 . S
H4903 C4930 0.950 . S
H4904 C4933 0.950 . S
H4905 C4934 0.950 . S
H4906 C4936 0.950 . S
H4907 C4937 0.950 . S
C4908 H4890 0.951 . S
C4908 C4909 1.366 . S
C4908 C4910 1.388 . S
C4909 C4908 1.366 . S
C4909 C4913 1.385 . S
C4910 H4891 0.951 . S
C4910 C4908 1.388 . S
C4910 C4911 1.366 . S
C4911 C4910 1.366 . S
C4911 C4912 1.414 . S
C4911 C4914 1.499 . S
C4912 H4892 0.950 . S
C4912 C4911 1.414 . S
C4912 C4913 1.374 . S
C4913 H4893 0.950 . S
C4913 C4909 1.385 . S
C4913 C4912 1.374 . S
C4914 C4911 1.499 . S
C4914 C4915 1.373 . S
C4914 C4916 1.389 . S
C4915 H4894 0.950 . S
C4915 C4914 1.373 . S
C4915 C4931 1.377 . S
C4916 C4914 1.389 . S
C4916 C4917 1.524 . S
C4916 C4930 1.377 . S
C4917 C4916 1.524 . S
C4917 C4918 1.397 . S
C4917 C4922 1.363 . S
C4918 H4895 0.950 . S
C4918 C4917 1.397 . S
C4918 C4919 1.334 . S
C4919 H4896 0.950 . S
C4919 C4918 1.334 . S
C4919 C4920 1.287 . S
C4920 C4919 1.287 . S
C4920 C4921 1.524 . S
C4920 H4939 0.913 . S
C4921 H4897 0.950 . S
C4921 C4920 1.524 . S
C4921 C4922 1.415 . S
C4922 H4898 0.950 . S
C4922 C4917 1.363 . S
C4922 C4921 1.415 . S
C4923 H4899 0.951 . S
C4923 C4924 1.366 . S
C4923 C4925 1.388 . S
C4924 C4923 1.366 . S
C4924 C4928 1.385 . S
C4925 H4900 0.951 . S
C4925 C4923 1.388 . S
C4925 C4926 1.366 . S
C4926 C4925 1.366 . S
C4926 C4927 1.414 . S
C4926 C4929 1.499 . S
C4927 H4901 0.950 . S
C4927 C4926 1.414 . S
C4927 C4928 1.374 . S
C4928 H4902 0.950 . S
C4928 C4924 1.385 . S
C4928 C4927 1.374 . S
C4929 C4926 1.499 . S
C4929 C4930 1.373 . S
C4929 C4931 1.389 . S
C4930 H4903 0.950 . S
C4930 C4916 1.377 . S
C4930 C4929 1.373 . S
C4931 C4915 1.377 . S
C4931 C4929 1.389 . S
C4931 C4932 1.524 . S
C4932 C4931 1.524 . S
C4932 C4933 1.397 . S
C4932 C4937 1.363 . S
C4933 H4904 0.950 . S
C4933 C4932 1.397 . S
C4933 C4934 1.334 . S
C4934 H4905 0.950 . S
C4934 C4933 1.334 . S
C4934 C4935 1.287 . S
C4935 C4934 1.287 . S
C4935 C4936 1.524 . S
C4935 H4938 0.999 . S
C4936 H4906 0.950 . S
C4936 C4935 1.524 . S
C4936 C4937 1.415 . S
C4937 H4907 0.950 . S
C4937 C4932 1.363 . S
C4937 C4936 1.415 . S
H4938 C4935 0.999 . S
H4939 C4920 0.913 . S
H4940 C4958 0.951 . S
H4941 C4960 0.951 . S
H4942 C4962 0.950 . S
H4943 C4963 0.950 . S
H4944 C4965 0.950 . S
H4945 C4968 0.950 . S
H4946 C4969 0.950 . S
H4947 C4971 0.950 . S
H4948 C4972 0.950 . S
H4949 C4973 0.951 . S
H4950 C4975 0.951 . S
H4951 C4977 0.950 . S
H4952 C4978 0.950 . S
H4953 C4980 0.950 . S
H4954 C4983 0.950 . S
H4955 C4984 0.950 . S
H4956 C4986 0.950 . S
H4957 C4987 0.950 . S
C4958 H4940 0.951 . S
C4958 C4959 1.366 . S
C4958 C4960 1.388 . S
C4959 C4958 1.366 . S
C4959 C4963 1.385 . S
C4960 H4941 0.951 . S
C4960 C4958 1.388 . S
C4960 C4961 1.366 . S
C4961 C4960 1.366 . S
C4961 C4962 1.414 . S
C4961 C4964 1.499 . S
C4962 H4942 0.950 . S
C4962 C4961 1.414 . S
C4962 C4963 1.374 . S
C4963 H4943 0.950 . S
C4963 C4959 1.385 . S
C4963 C4962 1.374 . S
C4964 C4961 1.499 . S
C4964 C4965 1.373 . S
C4964 C4966 1.389 . S
C4965 H4944 0.950 . S
C4965 C4964 1.373 . S
C4965 C4981 1.377 . S
C4966 C4964 1.389 . S
C4966 C4967 1.524 . S
C4966 C4980 1.377 . S
C4967 C4966 1.524 . S
C4967 C4968 1.397 . S
C4967 C4972 1.363 . S
C4968 H4945 0.950 . S
C4968 C4967 1.397 . S
C4968 C4969 1.334 . S
C4969 H4946 0.950 . S
C4969 C4968 1.334 . S
C4969 C4970 1.287 . S
C4970 C4969 1.287 . S
C4970 C4971 1.524 . S
C4970 H4989 0.913 . S
C4971 H4947 0.950 . S
C4971 C4970 1.524 . S
C4971 C4972 1.415 . S
C4972 H4948 0.950 . S
C4972 C4967 1.363 . S
C4972 C4971 1.415 . S
C4973 H4949 0.951 . S
C4973 C4974 1.366 . S
C4973 C4975 1.388 . S
C4974 C4973 1.366 . S
C4974 C4978 1.385 . S
C4975 H4950 0.951 . S
C4975 C4973 1.388 . S
C4975 C4976 1.366 . S
C4976 C4975 1.366 . S
C4976 C4977 1.414 . S
C4976 C4979 1.499 . S
C4977 H4951 0.950 . S
C4977 C4976 1.414 . S
C4977 C4978 1.374 . S
C4978 H4952 0.950 . S
C4978 C4974 1.385 . S
C4978 C4977 1.374 . S
C4979 C4976 1.499 . S
C4979 C4980 1.373 . S
C4979 C4981 1.389 . S
C4980 H4953 0.950 . S
C4980 C4966 1.377 . S
C4980 C4979 1.373 . S
C4981 C4965 1.377 . S
C4981 C4979 1.389 . S
C4981 C4982 1.524 . S
C4982 C4981 1.524 . S
C4982 C4983 1.397 . S
C4982 C4987 1.363 . S
C4983 H4954 0.950 . S
C4983 C4982 1.397 . S
C4983 C4984 1.334 . S
C4984 H4955 0.950 . S
C4984 C4983 1.334 . S
C4984 C4985 1.287 . S
C4985 C4984 1.287 . S
C4985 C4986 1.524 . S
C4985 H4988 0.999 . S
C4986 H4956 0.950 . S
C4986 C4985 1.524 . S
C4986 C4987 1.415 . S
C4987 H4957 0.950 . S
C4987 C4982 1.363 . S
C4987 C4986 1.415 . S
H4988 C4985 0.999 . S
H4989 C4970 0.913 . S
H4990 C5008 0.951 . S
H4991 C5010 0.951 . S
H4992 C5012 0.950 . S
H4993 C5013 0.950 . S
H4994 C5015 0.950 . S
H4995 C5018 0.950 . S
H4996 C5019 0.950 . S
H4997 C5021 0.950 . S
H4998 C5022 0.950 . S
H4999 C5023 0.951 . S
H5000 C5025 0.951 . S
H5001 C5027 0.950 . S
H5002 C5028 0.950 . S
H5003 C5030 0.950 . S
H5004 C5033 0.950 . S
H5005 C5034 0.950 . S
H5006 C5036 0.950 . S
H5007 C5037 0.950 . S
C5008 H4990 0.951 . S
C5008 C5009 1.366 . S
C5008 C5010 1.388 . S
C5009 C5008 1.366 . S
C5009 C5013 1.385 . S
C5010 H4991 0.951 . S
C5010 C5008 1.388 . S
C5010 C5011 1.366 . S
C5011 C5010 1.366 . S
C5011 C5012 1.414 . S
C5011 C5014 1.499 . S
C5012 H4992 0.950 . S
C5012 C5011 1.414 . S
C5012 C5013 1.374 . S
C5013 H4993 0.950 . S
C5013 C5009 1.385 . S
C5013 C5012 1.374 . S
C5014 C5011 1.499 . S
C5014 C5015 1.373 . S
C5014 C5016 1.389 . S
C5015 H4994 0.950 . S
C5015 C5014 1.373 . S
C5015 C5031 1.377 . S
C5016 C5014 1.389 . S
C5016 C5017 1.524 . S
C5016 C5030 1.377 . S
C5017 C5016 1.524 . S
C5017 C5018 1.397 . S
C5017 C5022 1.363 . S
C5018 H4995 0.950 . S
C5018 C5017 1.397 . S
C5018 C5019 1.334 . S
C5019 H4996 0.950 . S
C5019 C5018 1.334 . S
C5019 C5020 1.287 . S
C5020 C5019 1.287 . S
C5020 C5021 1.524 . S
C5020 H5039 0.913 . S
C5021 H4997 0.950 . S
C5021 C5020 1.524 . S
C5021 C5022 1.415 . S
C5022 H4998 0.950 . S
C5022 C5017 1.363 . S
C5022 C5021 1.415 . S
C5023 H4999 0.951 . S
C5023 C5024 1.366 . S
C5023 C5025 1.388 . S
C5024 C5023 1.366 . S
C5024 C5028 1.385 . S
C5025 H5000 0.951 . S
C5025 C5023 1.388 . S
C5025 C5026 1.366 . S
C5026 C5025 1.366 . S
C5026 C5027 1.414 . S
C5026 C5029 1.499 . S
C5027 H5001 0.950 . S
C5027 C5026 1.414 . S
C5027 C5028 1.374 . S
C5028 H5002 0.950 . S
C5028 C5024 1.385 . S
C5028 C5027 1.374 . S
C5029 C5026 1.499 . S
C5029 C5030 1.373 . S
C5029 C5031 1.389 . S
C5030 H5003 0.950 . S
C5030 C5016 1.377 . S
C5030 C5029 1.373 . S
C5031 C5015 1.377 . S
C5031 C5029 1.389 . S
C5031 C5032 1.524 . S
C5032 C5031 1.524 . S
C5032 C5033 1.397 . S
C5032 C5037 1.363 . S
C5033 H5004 0.950 . S
C5033 C5032 1.397 . S
C5033 C5034 1.334 . S
C5034 H5005 0.950 . S
C5034 C5033 1.334 . S
C5034 C5035 1.287 . S
C5035 C5034 1.287 . S
C5035 C5036 1.524 . S
C5035 H5038 0.999 . S
C5036 H5006 0.950 . S
C5036 C5035 1.524 . S
C5036 C5037 1.415 . S
C5037 H5007 0.950 . S
C5037 C5032 1.363 . S
C5037 C5036 1.415 . S
H5038 C5035 0.999 . S
H5039 C5020 0.913 . S
H5040 C5058 0.951 . S
H5041 C5060 0.951 . S
H5042 C5062 0.950 . S
H5043 C5063 0.950 . S
H5044 C5065 0.950 . S
H5045 C5068 0.950 . S
H5046 C5069 0.950 . S
H5047 C5071 0.950 . S
H5048 C5072 0.950 . S
H5049 C5073 0.951 . S
H5050 C5075 0.951 . S
H5051 C5077 0.950 . S
H5052 C5078 0.950 . S
H5053 C5080 0.950 . S
H5054 C5083 0.950 . S
H5055 C5084 0.950 . S
H5056 C5086 0.950 . S
H5057 C5087 0.950 . S
C5058 H5040 0.951 . S
C5058 C5059 1.366 . S
C5058 C5060 1.388 . S
C5059 C5058 1.366 . S
C5059 C5063 1.385 . S
C5060 H5041 0.951 . S
C5060 C5058 1.388 . S
C5060 C5061 1.366 . S
C5061 C5060 1.366 . S
C5061 C5062 1.414 . S
C5061 C5064 1.499 . S
C5062 H5042 0.950 . S
C5062 C5061 1.414 . S
C5062 C5063 1.374 . S
C5063 H5043 0.950 . S
C5063 C5059 1.385 . S
C5063 C5062 1.374 . S
C5064 C5061 1.499 . S
C5064 C5065 1.373 . S
C5064 C5066 1.389 . S
C5065 H5044 0.950 . S
C5065 C5064 1.373 . S
C5065 C5081 1.377 . S
C5066 C5064 1.389 . S
C5066 C5067 1.524 . S
C5066 C5080 1.377 . S
C5067 C5066 1.524 . S
C5067 C5068 1.397 . S
C5067 C5072 1.363 . S
C5068 H5045 0.950 . S
C5068 C5067 1.397 . S
C5068 C5069 1.334 . S
C5069 H5046 0.950 . S
C5069 C5068 1.334 . S
C5069 C5070 1.287 . S
C5070 C5069 1.287 . S
C5070 C5071 1.524 . S
C5070 H5089 0.913 . S
C5071 H5047 0.950 . S
C5071 C5070 1.524 . S
C5071 C5072 1.415 . S
C5072 H5048 0.950 . S
C5072 C5067 1.363 . S
C5072 C5071 1.415 . S
C5073 H5049 0.951 . S
C5073 C5074 1.366 . S
C5073 C5075 1.388 . S
C5074 C5073 1.366 . S
C5074 C5078 1.385 . S
C5075 H5050 0.951 . S
C5075 C5073 1.388 . S
C5075 C5076 1.366 . S
C5076 C5075 1.366 . S
C5076 C5077 1.414 . S
C5076 C5079 1.499 . S
C5077 H5051 0.950 . S
C5077 C5076 1.414 . S
C5077 C5078 1.374 . S
C5078 H5052 0.950 . S
C5078 C5074 1.385 . S
C5078 C5077 1.374 . S
C5079 C5076 1.499 . S
C5079 C5080 1.373 . S
C5079 C5081 1.389 . S
C5080 H5053 0.950 . S
C5080 C5066 1.377 . S
C5080 C5079 1.373 . S
C5081 C5065 1.377 . S
C5081 C5079 1.389 . S
C5081 C5082 1.524 . S
C5082 C5081 1.524 . S
C5082 C5083 1.397 . S
C5082 C5087 1.363 . S
C5083 H5054 0.950 . S
C5083 C5082 1.397 . S
C5083 C5084 1.334 . S
C5084 H5055 0.950 . S
C5084 C5083 1.334 . S
C5084 C5085 1.287 . S
C5085 C5084 1.287 . S
C5085 C5086 1.524 . S
C5085 H5088 0.999 . S
C5086 H5056 0.950 . S
C5086 C5085 1.524 . S
C5086 C5087 1.415 . S
C5087 H5057 0.950 . S
C5087 C5082 1.363 . S
C5087 C5086 1.415 . S
H5088 C5085 0.999 . S
H5089 C5070 0.913 . S
H5090 C5108 0.951 . S
H5091 C5110 0.951 . S
H5092 C5112 0.950 . S
H5093 C5113 0.950 . S
H5094 C5115 0.950 . S
H5095 C5118 0.950 . S
H5096 C5119 0.950 . S
H5097 C5121 0.950 . S
H5098 C5122 0.950 . S
H5099 C5123 0.951 . S
H5100 C5125 0.951 . S
H5101 C5127 0.950 . S
H5102 C5128 0.950 . S
H5103 C5130 0.950 . S
H5104 C5133 0.950 . S
H5105 C5134 0.950 . S
H5106 C5136 0.950 . S
H5107 C5137 0.950 . S
C5108 H5090 0.951 . S
C5108 C5109 1.366 . S
C5108 C5110 1.388 . S
C5109 C5108 1.366 . S
C5109 C5113 1.385 . S
C5110 H5091 0.951 . S
C5110 C5108 1.388 . S
C5110 C5111 1.366 . S
C5111 C5110 1.366 . S
C5111 C5112 1.414 . S
C5111 C5114 1.499 . S
C5112 H5092 0.950 . S
C5112 C5111 1.414 . S
C5112 C5113 1.374 . S
C5113 H5093 0.950 . S
C5113 C5109 1.385 . S
C5113 C5112 1.374 . S
C5114 C5111 1.499 . S
C5114 C5115 1.373 . S
C5114 C5116 1.389 . S
C5115 H5094 0.950 . S
C5115 C5114 1.373 . S
C5115 C5131 1.377 . S
C5116 C5114 1.389 . S
C5116 C5117 1.524 . S
C5116 C5130 1.377 . S
C5117 C5116 1.524 . S
C5117 C5118 1.397 . S
C5117 C5122 1.363 . S
C5118 H5095 0.950 . S
C5118 C5117 1.397 . S
C5118 C5119 1.334 . S
C5119 H5096 0.950 . S
C5119 C5118 1.334 . S
C5119 C5120 1.287 . S
C5120 C5119 1.287 . S
C5120 C5121 1.524 . S
C5120 H5139 0.913 . S
C5121 H5097 0.950 . S
C5121 C5120 1.524 . S
C5121 C5122 1.415 . S
C5122 H5098 0.950 . S
C5122 C5117 1.363 . S
C5122 C5121 1.415 . S
C5123 H5099 0.951 . S
C5123 C5124 1.366 . S
C5123 C5125 1.388 . S
C5124 C5123 1.366 . S
C5124 C5128 1.385 . S
C5125 H5100 0.951 . S
C5125 C5123 1.388 . S
C5125 C5126 1.366 . S
C5126 C5125 1.366 . S
C5126 C5127 1.414 . S
C5126 C5129 1.499 . S
C5127 H5101 0.950 . S
C5127 C5126 1.414 . S
C5127 C5128 1.374 . S
C5128 H5102 0.950 . S
C5128 C5124 1.385 . S
C5128 C5127 1.374 . S
C5129 C5126 1.499 . S
C5129 C5130 1.373 . S
C5129 C5131 1.389 . S
C5130 H5103 0.950 . S
C5130 C5116 1.377 . S
C5130 C5129 1.373 . S
C5131 C5115 1.377 . S
C5131 C5129 1.389 . S
C5131 C5132 1.524 . S
C5132 C5131 1.524 . S
C5132 C5133 1.397 . S
C5132 C5137 1.363 . S
C5133 H5104 0.950 . S
C5133 C5132 1.397 . S
C5133 C5134 1.334 . S
C5134 H5105 0.950 . S
C5134 C5133 1.334 . S
C5134 C5135 1.287 . S
C5135 C5134 1.287 . S
C5135 C5136 1.524 . S
C5135 H5138 0.999 . S
C5136 H5106 0.950 . S
C5136 C5135 1.524 . S
C5136 C5137 1.415 . S
C5137 H5107 0.950 . S
C5137 C5132 1.363 . S
C5137 C5136 1.415 . S
H5138 C5135 0.999 . S
H5139 C5120 0.913 . S
H5140 C5158 0.951 . S
H5141 C5160 0.951 . S
H5142 C5162 0.950 . S
H5143 C5163 0.950 . S
H5144 C5165 0.950 . S
H5145 C5168 0.950 . S
H5146 C5169 0.950 . S
H5147 C5171 0.950 . S
H5148 C5172 0.950 . S
H5149 C5173 0.951 . S
H5150 C5175 0.951 . S
H5151 C5177 0.950 . S
H5152 C5178 0.950 . S
H5153 C5180 0.950 . S
H5154 C5183 0.950 . S
H5155 C5184 0.950 . S
H5156 C5186 0.950 . S
H5157 C5187 0.950 . S
C5158 H5140 0.951 . S
C5158 C5159 1.366 . S
C5158 C5160 1.388 . S
C5159 C5158 1.366 . S
C5159 C5163 1.385 . S
C5160 H5141 0.951 . S
C5160 C5158 1.388 . S
C5160 C5161 1.366 . S
C5161 C5160 1.366 . S
C5161 C5162 1.414 . S
C5161 C5164 1.499 . S
C5162 H5142 0.950 . S
C5162 C5161 1.414 . S
C5162 C5163 1.374 . S
C5163 H5143 0.950 . S
C5163 C5159 1.385 . S
C5163 C5162 1.374 . S
C5164 C5161 1.499 . S
C5164 C5165 1.373 . S
C5164 C5166 1.389 . S
C5165 H5144 0.950 . S
C5165 C5164 1.373 . S
C5165 C5181 1.377 . S
C5166 C5164 1.389 . S
C5166 C5167 1.524 . S
C5166 C5180 1.377 . S
C5167 C5166 1.524 . S
C5167 C5168 1.397 . S
C5167 C5172 1.363 . S
C5168 H5145 0.950 . S
C5168 C5167 1.397 . S
C5168 C5169 1.334 . S
C5169 H5146 0.950 . S
C5169 C5168 1.334 . S
C5169 C5170 1.287 . S
C5170 C5169 1.287 . S
C5170 C5171 1.524 . S
C5170 H5189 0.913 . S
C5171 H5147 0.950 . S
C5171 C5170 1.524 . S
C5171 C5172 1.415 . S
C5172 H5148 0.950 . S
C5172 C5167 1.363 . S
C5172 C5171 1.415 . S
C5173 H5149 0.951 . S
C5173 C5174 1.366 . S
C5173 C5175 1.388 . S
C5174 C5173 1.366 . S
C5174 C5178 1.385 . S
C5175 H5150 0.951 . S
C5175 C5173 1.388 . S
C5175 C5176 1.366 . S
C5176 C5175 1.366 . S
C5176 C5177 1.414 . S
C5176 C5179 1.499 . S
C5177 H5151 0.950 . S
C5177 C5176 1.414 . S
C5177 C5178 1.374 . S
C5178 H5152 0.950 . S
C5178 C5174 1.385 . S
C5178 C5177 1.374 . S
C5179 C5176 1.499 . S
C5179 C5180 1.373 . S
C5179 C5181 1.389 . S
C5180 H5153 0.950 . S
C5180 C5166 1.377 . S
C5180 C5179 1.373 . S
C5181 C5165 1.377 . S
C5181 C5179 1.389 . S
C5181 C5182 1.524 . S
C5182 C5181 1.524 . S
C5182 C5183 1.397 . S
C5182 C5187 1.363 . S
C5183 H5154 0.950 . S
C5183 C5182 1.397 . S
C5183 C5184 1.334 . S
C5184 H5155 0.950 . S
C5184 C5183 1.334 . S
C5184 C5185 1.287 . S
C5185 C5184 1.287 . S
C5185 C5186 1.524 . S
C5185 H5188 0.999 . S
C5186 H5156 0.950 . S
C5186 C5185 1.524 . S
C5186 C5187 1.415 . S
C5187 H5157 0.950 . S
C5187 C5182 1.363 . S
C5187 C5186 1.415 . S
H5188 C5185 0.999 . S
H5189 C5170 0.913 . S
H5190 C5208 0.951 . S
H5191 C5210 0.951 . S
H5192 C5212 0.950 . S
H5193 C5213 0.950 . S
H5194 C5215 0.950 . S
H5195 C5218 0.950 . S
H5196 C5219 0.950 . S
H5197 C5221 0.950 . S
H5198 C5222 0.950 . S
H5199 C5223 0.951 . S
H5200 C5225 0.951 . S
H5201 C5227 0.950 . S
H5202 C5228 0.950 . S
H5203 C5230 0.950 . S
H5204 C5233 0.950 . S
H5205 C5234 0.950 . S
H5206 C5236 0.950 . S
H5207 C5237 0.950 . S
C5208 H5190 0.951 . S
C5208 C5209 1.366 . S
C5208 C5210 1.388 . S
C5209 C5208 1.366 . S
C5209 C5213 1.385 . S
C5210 H5191 0.951 . S
C5210 C5208 1.388 . S
C5210 C5211 1.366 . S
C5211 C5210 1.366 . S
C5211 C5212 1.414 . S
C5211 C5214 1.499 . S
C5212 H5192 0.950 . S
C5212 C5211 1.414 . S
C5212 C5213 1.374 . S
C5213 H5193 0.950 . S
C5213 C5209 1.385 . S
C5213 C5212 1.374 . S
C5214 C5211 1.499 . S
C5214 C5215 1.373 . S
C5214 C5216 1.389 . S
C5215 H5194 0.950 . S
C5215 C5214 1.373 . S
C5215 C5231 1.377 . S
C5216 C5214 1.389 . S
C5216 C5217 1.524 . S
C5216 C5230 1.377 . S
C5217 C5216 1.524 . S
C5217 C5218 1.397 . S
C5217 C5222 1.363 . S
C5218 H5195 0.950 . S
C5218 C5217 1.397 . S
C5218 C5219 1.334 . S
C5219 H5196 0.950 . S
C5219 C5218 1.334 . S
C5219 C5220 1.287 . S
C5220 C5219 1.287 . S
C5220 C5221 1.524 . S
C5220 H5239 0.913 . S
C5221 H5197 0.950 . S
C5221 C5220 1.524 . S
C5221 C5222 1.415 . S
C5222 H5198 0.950 . S
C5222 C5217 1.363 . S
C5222 C5221 1.415 . S
C5223 H5199 0.951 . S
C5223 C5224 1.366 . S
C5223 C5225 1.388 . S
C5224 C5223 1.366 . S
C5224 C5228 1.385 . S
C5225 H5200 0.951 . S
C5225 C5223 1.388 . S
C5225 C5226 1.366 . S
C5226 C5225 1.366 . S
C5226 C5227 1.414 . S
C5226 C5229 1.499 . S
C5227 H5201 0.950 . S
C5227 C5226 1.414 . S
C5227 C5228 1.374 . S
C5228 H5202 0.950 . S
C5228 C5224 1.385 . S
C5228 C5227 1.374 . S
C5229 C5226 1.499 . S
C5229 C5230 1.373 . S
C5229 C5231 1.389 . S
C5230 H5203 0.950 . S
C5230 C5216 1.377 . S
C5230 C5229 1.373 . S
C5231 C5215 1.377 . S
C5231 C5229 1.389 . S
C5231 C5232 1.524 . S
C5232 C5231 1.524 . S
C5232 C5233 1.397 . S
C5232 C5237 1.363 . S
C5233 H5204 0.950 . S
C5233 C5232 1.397 . S
C5233 C5234 1.334 . S
C5234 H5205 0.950 . S
C5234 C5233 1.334 . S
C5234 C5235 1.287 . S
C5235 C5234 1.287 . S
C5235 C5236 1.524 . S
C5235 H5238 0.999 . S
C5236 H5206 0.950 . S
C5236 C5235 1.524 . S
C5236 C5237 1.415 . S
C5237 H5207 0.950 . S
C5237 C5232 1.363 . S
C5237 C5236 1.415 . S
H5238 C5235 0.999 . S
H5239 C5220 0.913 . S
H5240 C5258 0.951 . S
H5241 C5260 0.951 . S
H5242 C5262 0.950 . S
H5243 C5263 0.950 . S
H5244 C5265 0.950 . S
H5245 C5268 0.950 . S
H5246 C5269 0.950 . S
H5247 C5271 0.950 . S
H5248 C5272 0.950 . S
H5249 C5273 0.951 . S
H5250 C5275 0.951 . S
H5251 C5277 0.950 . S
H5252 C5278 0.950 . S
H5253 C5280 0.950 . S
H5254 C5283 0.950 . S
H5255 C5284 0.950 . S
H5256 C5286 0.950 . S
H5257 C5287 0.950 . S
C5258 H5240 0.951 . S
C5258 C5259 1.366 . S
C5258 C5260 1.388 . S
C5259 C5258 1.366 . S
C5259 C5263 1.385 . S
C5260 H5241 0.951 . S
C5260 C5258 1.388 . S
C5260 C5261 1.366 . S
C5261 C5260 1.366 . S
C5261 C5262 1.414 . S
C5261 C5264 1.499 . S
C5262 H5242 0.950 . S
C5262 C5261 1.414 . S
C5262 C5263 1.374 . S
C5263 H5243 0.950 . S
C5263 C5259 1.385 . S
C5263 C5262 1.374 . S
C5264 C5261 1.499 . S
C5264 C5265 1.373 . S
C5264 C5266 1.389 . S
C5265 H5244 0.950 . S
C5265 C5264 1.373 . S
C5265 C5281 1.377 . S
C5266 C5264 1.389 . S
C5266 C5267 1.524 . S
C5266 C5280 1.377 . S
C5267 C5266 1.524 . S
C5267 C5268 1.397 . S
C5267 C5272 1.363 . S
C5268 H5245 0.950 . S
C5268 C5267 1.397 . S
C5268 C5269 1.334 . S
C5269 H5246 0.950 . S
C5269 C5268 1.334 . S
C5269 C5270 1.287 . S
C5270 C5269 1.287 . S
C5270 C5271 1.524 . S
C5270 H5289 0.913 . S
C5271 H5247 0.950 . S
C5271 C5270 1.524 . S
C5271 C5272 1.415 . S
C5272 H5248 0.950 . S
C5272 C5267 1.363 . S
C5272 C5271 1.415 . S
C5273 H5249 0.951 . S
C5273 C5274 1.366 . S
C5273 C5275 1.388 . S
C5274 C5273 1.366 . S
C5274 C5278 1.385 . S
C5275 H5250 0.951 . S
C5275 C5273 1.388 . S
C5275 C5276 1.366 . S
C5276 C5275 1.366 . S
C5276 C5277 1.414 . S
C5276 C5279 1.499 . S
C5277 H5251 0.950 . S
C5277 C5276 1.414 . S
C5277 C5278 1.374 . S
C5278 H5252 0.950 . S
C5278 C5274 1.385 . S
C5278 C5277 1.374 . S
C5279 C5276 1.499 . S
C5279 C5280 1.373 . S
C5279 C5281 1.389 . S
C5280 H5253 0.950 . S
C5280 C5266 1.377 . S
C5280 C5279 1.373 . S
C5281 C5265 1.377 . S
C5281 C5279 1.389 . S
C5281 C5282 1.524 . S
C5282 C5281 1.524 . S
C5282 C5283 1.397 . S
C5282 C5287 1.363 . S
C5283 H5254 0.950 . S
C5283 C5282 1.397 . S
C5283 C5284 1.334 . S
C5284 H5255 0.950 . S
C5284 C5283 1.334 . S
C5284 C5285 1.287 . S
C5285 C5284 1.287 . S
C5285 C5286 1.524 . S
C5285 H5288 0.999 . S
C5286 H5256 0.950 . S
C5286 C5285 1.524 . S
C5286 C5287 1.415 . S
C5287 H5257 0.950 . S
C5287 C5282 1.363 . S
C5287 C5286 1.415 . S
H5288 C5285 0.999 . S
H5289 C5270 0.913 . S
H5290 C5308 0.951 . S
H5291 C5310 0.951 . S
H5292 C5312 0.950 . S
H5293 C5313 0.950 . S
H5294 C5315 0.950 . S
H5295 C5318 0.950 . S
H5296 C5319 0.950 . S
H5297 C5321 0.950 . S
H5298 C5322 0.950 . S
H5299 C5323 0.951 . S
H5300 C5325 0.951 . S
H5301 C5327 0.950 . S
H5302 C5328 0.950 . S
H5303 C5330 0.950 . S
H5304 C5333 0.950 . S
H5305 C5334 0.950 . S
H5306 C5336 0.950 . S
H5307 C5337 0.950 . S
C5308 H5290 0.951 . S
C5308 C5309 1.366 . S
C5308 C5310 1.388 . S
C5309 C5308 1.366 . S
C5309 C5313 1.385 . S
C5310 H5291 0.951 . S
C5310 C5308 1.388 . S
C5310 C5311 1.366 . S
C5311 C5310 1.366 . S
C5311 C5312 1.414 . S
C5311 C5314 1.499 . S
C5312 H5292 0.950 . S
C5312 C5311 1.414 . S
C5312 C5313 1.374 . S
C5313 H5293 0.950 . S
C5313 C5309 1.385 . S
C5313 C5312 1.374 . S
C5314 C5311 1.499 . S
C5314 C5315 1.373 . S
C5314 C5316 1.389 . S
C5315 H5294 0.950 . S
C5315 C5314 1.373 . S
C5315 C5331 1.377 . S
C5316 C5314 1.389 . S
C5316 C5317 1.524 . S
C5316 C5330 1.377 . S
C5317 C5316 1.524 . S
C5317 C5318 1.397 . S
C5317 C5322 1.363 . S
C5318 H5295 0.950 . S
C5318 C5317 1.397 . S
C5318 C5319 1.334 . S
C5319 H5296 0.950 . S
C5319 C5318 1.334 . S
C5319 C5320 1.287 . S
C5320 C5319 1.287 . S
C5320 C5321 1.524 . S
C5320 H5339 0.913 . S
C5321 H5297 0.950 . S
C5321 C5320 1.524 . S
C5321 C5322 1.415 . S
C5322 H5298 0.950 . S
C5322 C5317 1.363 . S
C5322 C5321 1.415 . S
C5323 H5299 0.951 . S
C5323 C5324 1.366 . S
C5323 C5325 1.388 . S
C5324 C5323 1.366 . S
C5324 C5328 1.385 . S
C5325 H5300 0.951 . S
C5325 C5323 1.388 . S
C5325 C5326 1.366 . S
C5326 C5325 1.366 . S
C5326 C5327 1.414 . S
C5326 C5329 1.499 . S
C5327 H5301 0.950 . S
C5327 C5326 1.414 . S
C5327 C5328 1.374 . S
C5328 H5302 0.950 . S
C5328 C5324 1.385 . S
C5328 C5327 1.374 . S
C5329 C5326 1.499 . S
C5329 C5330 1.373 . S
C5329 C5331 1.389 . S
C5330 H5303 0.950 . S
C5330 C5316 1.377 . S
C5330 C5329 1.373 . S
C5331 C5315 1.377 . S
C5331 C5329 1.389 . S
C5331 C5332 1.524 . S
C5332 C5331 1.524 . S
C5332 C5333 1.397 . S
C5332 C5337 1.363 . S
C5333 H5304 0.950 . S
C5333 C5332 1.397 . S
C5333 C5334 1.334 . S
C5334 H5305 0.950 . S
C5334 C5333 1.334 . S
C5334 C5335 1.287 . S
C5335 C5334 1.287 . S
C5335 C5336 1.524 . S
C5335 H5338 0.999 . S
C5336 H5306 0.950 . S
C5336 C5335 1.524 . S
C5336 C5337 1.415 . S
C5337 H5307 0.950 . S
C5337 C5332 1.363 . S
C5337 C5336 1.415 . S
H5338 C5335 0.999 . S
H5339 C5320 0.913 . S
H5340 C5358 0.951 . S
H5341 C5360 0.951 . S
H5342 C5362 0.950 . S
H5343 C5363 0.950 . S
H5344 C5365 0.950 . S
H5345 C5368 0.950 . S
H5346 C5369 0.950 . S
H5347 C5371 0.950 . S
H5348 C5372 0.950 . S
H5349 C5373 0.951 . S
H5350 C5375 0.951 . S
H5351 C5377 0.950 . S
H5352 C5378 0.950 . S
H5353 C5380 0.950 . S
H5354 C5383 0.950 . S
H5355 C5384 0.950 . S
H5356 C5386 0.950 . S
H5357 C5387 0.950 . S
C5358 H5340 0.951 . S
C5358 C5359 1.366 . S
C5358 C5360 1.388 . S
C5359 C5358 1.366 . S
C5359 C5363 1.385 . S
C5360 H5341 0.951 . S
C5360 C5358 1.388 . S
C5360 C5361 1.366 . S
C5361 C5360 1.366 . S
C5361 C5362 1.414 . S
C5361 C5364 1.499 . S
C5362 H5342 0.950 . S
C5362 C5361 1.414 . S
C5362 C5363 1.374 . S
C5363 H5343 0.950 . S
C5363 C5359 1.385 . S
C5363 C5362 1.374 . S
C5364 C5361 1.499 . S
C5364 C5365 1.373 . S
C5364 C5366 1.389 . S
C5365 H5344 0.950 . S
C5365 C5364 1.373 . S
C5365 C5381 1.377 . S
C5366 C5364 1.389 . S
C5366 C5367 1.524 . S
C5366 C5380 1.377 . S
C5367 C5366 1.524 . S
C5367 C5368 1.397 . S
C5367 C5372 1.363 . S
C5368 H5345 0.950 . S
C5368 C5367 1.397 . S
C5368 C5369 1.334 . S
C5369 H5346 0.950 . S
C5369 C5368 1.334 . S
C5369 C5370 1.287 . S
C5370 C5369 1.287 . S
C5370 C5371 1.524 . S
C5370 H5389 0.913 . S
C5371 H5347 0.950 . S
C5371 C5370 1.524 . S
C5371 C5372 1.415 . S
C5372 H5348 0.950 . S
C5372 C5367 1.363 . S
C5372 C5371 1.415 . S
C5373 H5349 0.951 . S
C5373 C5374 1.366 . S
C5373 C5375 1.388 . S
C5374 C5373 1.366 . S
C5374 C5378 1.385 . S
C5375 H5350 0.951 . S
C5375 C5373 1.388 . S
C5375 C5376 1.366 . S
C5376 C5375 1.366 . S
C5376 C5377 1.414 . S
C5376 C5379 1.499 . S
C5377 H5351 0.950 . S
C5377 C5376 1.414 . S
C5377 C5378 1.374 . S
C5378 H5352 0.950 . S
C5378 C5374 1.385 . S
C5378 C5377 1.374 . S
C5379 C5376 1.499 . S
C5379 C5380 1.373 . S
C5379 C5381 1.389 . S
C5380 H5353 0.950 . S
C5380 C5366 1.377 . S
C5380 C5379 1.373 . S
C5381 C5365 1.377 . S
C5381 C5379 1.389 . S
C5381 C5382 1.524 . S
C5382 C5381 1.524 . S
C5382 C5383 1.397 . S
C5382 C5387 1.363 . S
C5383 H5354 0.950 . S
C5383 C5382 1.397 . S
C5383 C5384 1.334 . S
C5384 H5355 0.950 . S
C5384 C5383 1.334 . S
C5384 C5385 1.287 . S
C5385 C5384 1.287 . S
C5385 C5386 1.524 . S
C5385 H5388 0.999 . S
C5386 H5356 0.950 . S
C5386 C5385 1.524 . S
C5386 C5387 1.415 . S
C5387 H5357 0.950 . S
C5387 C5382 1.363 . S
C5387 C5386 1.415 . S
H5388 C5385 0.999 . S
H5389 C5370 0.913 . S
H5390 C5408 0.951 . S
H5391 C5410 0.951 . S
H5392 C5412 0.950 . S
H5393 C5413 0.950 . S
H5394 C5415 0.950 . S
H5395 C5418 0.950 . S
H5396 C5419 0.950 . S
H5397 C5421 0.950 . S
H5398 C5422 0.950 . S
H5399 C5423 0.951 . S
H5400 C5425 0.951 . S
H5401 C5427 0.950 . S
H5402 C5428 0.950 . S
H5403 C5430 0.950 . S
H5404 C5433 0.950 . S
H5405 C5434 0.950 . S
H5406 C5436 0.950 . S
H5407 C5437 0.950 . S
C5408 H5390 0.951 . S
C5408 C5409 1.366 . S
C5408 C5410 1.388 . S
C5409 C5408 1.366 . S
C5409 C5413 1.385 . S
C5410 H5391 0.951 . S
C5410 C5408 1.388 . S
C5410 C5411 1.366 . S
C5411 C5410 1.366 . S
C5411 C5412 1.414 . S
C5411 C5414 1.499 . S
C5412 H5392 0.950 . S
C5412 C5411 1.414 . S
C5412 C5413 1.374 . S
C5413 H5393 0.950 . S
C5413 C5409 1.385 . S
C5413 C5412 1.374 . S
C5414 C5411 1.499 . S
C5414 C5415 1.373 . S
C5414 C5416 1.389 . S
C5415 H5394 0.950 . S
C5415 C5414 1.373 . S
C5415 C5431 1.377 . S
C5416 C5414 1.389 . S
C5416 C5417 1.524 . S
C5416 C5430 1.377 . S
C5417 C5416 1.524 . S
C5417 C5418 1.397 . S
C5417 C5422 1.363 . S
C5418 H5395 0.950 . S
C5418 C5417 1.397 . S
C5418 C5419 1.334 . S
C5419 H5396 0.950 . S
C5419 C5418 1.334 . S
C5419 C5420 1.287 . S
C5420 C5419 1.287 . S
C5420 C5421 1.524 . S
C5420 H5439 0.913 . S
C5421 H5397 0.950 . S
C5421 C5420 1.524 . S
C5421 C5422 1.415 . S
C5422 H5398 0.950 . S
C5422 C5417 1.363 . S
C5422 C5421 1.415 . S
C5423 H5399 0.951 . S
C5423 C5424 1.366 . S
C5423 C5425 1.388 . S
C5424 C5423 1.366 . S
C5424 C5428 1.385 . S
C5425 H5400 0.951 . S
C5425 C5423 1.388 . S
C5425 C5426 1.366 . S
C5426 C5425 1.366 . S
C5426 C5427 1.414 . S
C5426 C5429 1.499 . S
C5427 H5401 0.950 . S
C5427 C5426 1.414 . S
C5427 C5428 1.374 . S
C5428 H5402 0.950 . S
C5428 C5424 1.385 . S
C5428 C5427 1.374 . S
C5429 C5426 1.499 . S
C5429 C5430 1.373 . S
C5429 C5431 1.389 . S
C5430 H5403 0.950 . S
C5430 C5416 1.377 . S
C5430 C5429 1.373 . S
C5431 C5415 1.377 . S
C5431 C5429 1.389 . S
C5431 C5432 1.524 . S
C5432 C5431 1.524 . S
C5432 C5433 1.397 . S
C5432 C5437 1.363 . S
C5433 H5404 0.950 . S
C5433 C5432 1.397 . S
C5433 C5434 1.334 . S
C5434 H5405 0.950 . S
C5434 C5433 1.334 . S
C5434 C5435 1.287 . S
C5435 C5434 1.287 . S
C5435 C5436 1.524 . S
C5435 H5438 0.999 . S
C5436 H5406 0.950 . S
C5436 C5435 1.524 . S
C5436 C5437 1.415 . S
C5437 H5407 0.950 . S
C5437 C5432 1.363 . S
C5437 C5436 1.415 . S
H5438 C5435 0.999 . S
H5439 C5420 0.913 . S
C659 C12 1.384 . S
C674 C62 1.356 . S
C709 C2 1.356 . S
C724 C32 1.385 . S
C759 C52 1.385 . S
C774 C22 1.357 . S
C809 C42 1.357 . S
C824 C72 1.384 1_556 S
C859 C102 1.356 . S
C874 C92 1.385 . S
C909 C112 1.384 . S
C924 C122 1.356 . S
C959 C142 1.357 . S
C974 C132 1.384 . S
C1009 C82 1.357 . S
C1024 C152 1.385 1_554 S
C1059 C169 1.384 . S
C1074 C224 1.357 . S
C1109 C189 1.384 . S
C1124 C164 1.357 . S
C1159 C209 1.384 . S
C1174 C184 1.356 . S
C1209 C229 1.385 1_554 S
C1224 C204 1.357 . S
C1259 C249 1.385 . S
C1274 C264 1.356 . S
C1309 C269 1.384 . S
C1324 C284 1.357 . S
C1359 C304 1.356 . S
C1374 C289 1.385 . S
C1409 C244 1.357 . S
C1424 C309 1.384 1_556 S
C1459 C332 1.385 . S
C1474 C382 1.357 . S
C1509 C322 1.356 . S
C1524 C352 1.385 1_556 S
C1559 C342 1.357 . S
C1574 C372 1.384 . S
C1609 C392 1.384 . S
C1624 C362 1.357 . S
C1659 C412 1.385 . S
C1674 C422 1.357 . S
C1709 C442 1.357 . S
C1724 C432 1.385 1_554 S
C1759 C452 1.384 . S
C1774 C462 1.356 . S
C1809 C402 1.357 . S
C1824 C472 1.384 . S
C1859 C544 1.357 . S
C1874 C489 1.384 . S
C1909 C484 1.357 . S
C1924 C509 1.384 1_554 S
C1959 C529 1.385 . S
C1974 C504 1.356 . S
C2009 C524 1.357 . S
C2024 C549 1.385 . S
C2059 C584 1.356 . S
C2074 C569 1.384 . S
C2109 C604 1.356 . S
C2124 C589 1.385 1_556 S
C2159 C624 1.357 . S
C2174 C609 1.384 . S
C2209 C629 1.384 . S
C2224 C564 1.356 . S
C2259 C552 1.426 . S
C2274 C18 1.438 . S
C2309 C38 1.439 . S
C2324 C172 1.426 . S
C2359 C58 1.438 . S
C2374 C512 1.426 . S
C2409 C78 1.438 . S
C2424 C212 1.426 . S
C2459 C98 1.438 . S
C2474 C592 1.426 . S
C2509 C292 1.426 . S
C2524 C118 1.439 . S
C2559 C632 1.426 . S
C2574 C138 1.439 . S
C2609 C158 1.438 . S
C2624 C252 1.426 . S
C2659 C179 1.439 . S
C2674 C389 1.426 . S
C2709 C9 1.426 . S
C2724 C199 1.439 . S
C2759 C349 1.426 . S
C2774 C219 1.438 . S
C2809 C49 1.426 . S
C2824 C239 1.439 . S
C2859 C429 1.426 . S
C2874 C259 1.439 . S
C2909 C129 1.426 . S
C2924 C279 1.438 . S
C2959 C299 1.438 . S
C2974 C469 1.426 . S
C3009 C319 1.439 . S
C3024 C89 1.426 . S
C3059 C338 1.439 . S
C3074 C232 1.426 . S
C3109 C358 1.438 . S
C3124 C492 1.426 . S
C3159 C378 1.439 . S
C3174 C192 1.426 . S
C3209 C398 1.439 . S
C3224 C532 1.426 . S
C3259 C418 1.439 . S
C3274 C272 1.426 . S
C3309 C438 1.438 . S
C3324 C612 1.426 . S
C3359 C312 1.426 . S
C3374 C458 1.438 . S
C3409 C478 1.439 . S
C3424 C572 1.426 . S
C3459 C69 1.426 . S
C3474 C499 1.439 . S
C3509 C329 1.426 . S
C3524 C519 1.439 . S
C3559 C29 1.426 . S
C3574 C539 1.439 . S
C3609 C369 1.426 . S
C3624 C559 1.439 . S
C3659 C109 1.426 . S
C3674 C579 1.439 . S
C3709 C599 1.439 . S
C3724 C449 1.426 . S
C3759 C619 1.439 . S
C3774 C149 1.426 . S
C3809 C409 1.426 . S
C3824 C639 1.439 . S
C3859 C19 0.276 . S
C3874 C99 0.277 . S
C3909 C39 0.278 . S
C3924 C119 0.277 . S
C3959 C59 0.274 . S
C3974 C139 0.275 . S
C4009 C159 0.274 . S
C4024 C79 0.276 . S
C4059 C258 0.275 . S
C4074 C178 0.274 . S
C4109 C278 0.276 . S
C4124 C198 0.275 . S
C4159 C218 0.274 . S
C4174 C298 0.275 . S
C4209 C238 0.276 . S
C4224 C318 0.274 . S
C4259 C339 0.277 . S
C4274 C419 0.278 . S
C4309 C439 0.275 . S
C4324 C359 0.277 . S
C4359 C459 0.273 . S
C4374 C379 0.274 . S
C4409 C479 0.277 . S
C4424 C399 0.277 . S
C4459 C578 0.277 . S
C4474 C498 0.276 . S
C4509 C518 0.275 . S
C4524 C598 0.274 . S
C4559 C618 0.274 . S
C4574 C538 0.276 . S
C4609 C558 0.276 . S
C4624 C638 0.277 . S
C4659 C144 1.572 . S
C4674 C4 1.571 . S
C4709 C24 1.571 . S
C4724 C84 1.571 . S
C4759 C44 1.572 . S
C4774 C104 1.571 . S
C4809 C124 1.571 . S
C4824 C64 1.572 . S
C4859 C162 1.572 . S
C4874 C302 1.571 . S
C4909 C242 1.572 . S
C4924 C182 1.572 . S
C4959 C262 1.572 . S
C4974 C202 1.571 . S
C5009 C222 1.571 . S
C5024 C282 1.572 . S
C5059 C324 1.572 . S
C5074 C464 1.571 . S
C5109 C404 1.571 . S
C5124 C344 1.572 . S
C5159 C424 1.571 . S
C5174 C364 1.572 . S
C5209 C444 1.571 . S
C5224 C384 1.572 . S
C5259 C482 1.572 . S
C5274 C622 1.571 . S
C5309 C562 1.571 . S
C5324 C502 1.572 . S
C5359 C522 1.571 . S
C5374 C582 1.572 . S
C5409 C602 1.572 . S
C5424 C542 1.571 . S
