# Generated by pormake.
# Topology wji, (4)-cn, num edge types: 1
# Building blocks:
#     Node 0, Type 0, BuildingBlock: UXUYUI_clean_sbu_0, # of connection points: 4
#     Node 1, Type 0, BuildingBlock: UXUYUI_clean_sbu_0, # of connection points: 4
#     Node 2, Type 0, BuildingBlock: UXUYUI_clean_sbu_0, # of connection points: 4
#     Node 3, Type 0, BuildingBlock: UXUYUI_clean_sbu_0, # of connection points: 4
#     Node 4, Type 0, BuildingBlock: UXUYUI_clean_sbu_0, # of connection points: 4
#     Node 5, Type 0, BuildingBlock: UXUYUI_clean_sbu_0, # of connection points: 4
#     Node 6, Type 0, BuildingBlock: UXUYUI_clean_sbu_0, # of connection points: 4
#     Node 7, Type 0, BuildingBlock: UXUYUI_clean_sbu_0, # of connection points: 4
#     Node 8, Type 0, BuildingBlock: UXUYUI_clean_sbu_0, # of connection points: 4
#     Node 9, Type 0, BuildingBlock: UXUYUI_clean_sbu_0, # of connection points: 4
#     Node 10, Type 0, BuildingBlock: UXUYUI_clean_sbu_0, # of connection points: 4
#     Node 11, Type 0, BuildingBlock: UXUYUI_clean_sbu_0, # of connection points: 4
#     Edge 12, Type (0, 0), BuildingBlock: MIFKUJ_clean_linker_0, # of connection points: 2
#     Edge 13, Type (0, 0), BuildingBlock: MIFKUJ_clean_linker_0, # of connection points: 2
#     Edge 14, Type (0, 0), BuildingBlock: MIFKUJ_clean_linker_0, # of connection points: 2
#     Edge 15, Type (0, 0), BuildingBlock: MIFKUJ_clean_linker_0, # of connection points: 2
#     Edge 16, Type (0, 0), BuildingBlock: MIFKUJ_clean_linker_0, # of connection points: 2
#     Edge 17, Type (0, 0), BuildingBlock: MIFKUJ_clean_linker_0, # of connection points: 2
#     Edge 18, Type (0, 0), BuildingBlock: MIFKUJ_clean_linker_0, # of connection points: 2
#     Edge 19, Type (0, 0), BuildingBlock: MIFKUJ_clean_linker_0, # of connection points: 2
#     Edge 20, Type (0, 0), BuildingBlock: MIFKUJ_clean_linker_0, # of connection points: 2
#     Edge 21, Type (0, 0), BuildingBlock: MIFKUJ_clean_linker_0, # of connection points: 2
#     Edge 22, Type (0, 0), BuildingBlock: MIFKUJ_clean_linker_0, # of connection points: 2
#     Edge 23, Type (0, 0), BuildingBlock: MIFKUJ_clean_linker_0, # of connection points: 2
#     Edge 24, Type (0, 0), BuildingBlock: MIFKUJ_clean_linker_0, # of connection points: 2
#     Edge 25, Type (0, 0), BuildingBlock: MIFKUJ_clean_linker_0, # of connection points: 2
#     Edge 26, Type (0, 0), BuildingBlock: MIFKUJ_clean_linker_0, # of connection points: 2
#     Edge 27, Type (0, 0), BuildingBlock: MIFKUJ_clean_linker_0, # of connection points: 2
#     Edge 28, Type (0, 0), BuildingBlock: MIFKUJ_clean_linker_0, # of connection points: 2
#     Edge 29, Type (0, 0), BuildingBlock: MIFKUJ_clean_linker_0, # of connection points: 2
#     Edge 30, Type (0, 0), BuildingBlock: MIFKUJ_clean_linker_0, # of connection points: 2
#     Edge 31, Type (0, 0), BuildingBlock: MIFKUJ_clean_linker_0, # of connection points: 2
#     Edge 32, Type (0, 0), BuildingBlock: MIFKUJ_clean_linker_0, # of connection points: 2
#     Edge 33, Type (0, 0), BuildingBlock: MIFKUJ_clean_linker_0, # of connection points: 2
#     Edge 34, Type (0, 0), BuildingBlock: MIFKUJ_clean_linker_0, # of connection points: 2
#     Edge 35, Type (0, 0), BuildingBlock: MIFKUJ_clean_linker_0, # of connection points: 2
# Relax obj value: 0.267
# Max RMSD: 0.141
# Mean RMSD: 0.141
data_MOF--net-wji--node1-UXUYUI_clean_sbu_0--edge1-MIFKUJ_clean_linker_0
_symmetry_space_group_name_H-M    P1
_symmetry_Int_Tables_number       1
_symmetry_cell_setting            triclinic
loop_
_symmetry_equiv_pos_as_xyz
'x, y, z'
_cell_length_a     100.02051
_cell_length_b     100.03293
_cell_length_c     39.875701
_cell_angle_alpha  90.01447
_cell_angle_beta   89.992626
_cell_angle_gamma 119.99708
loop_
_atom_site_label
_atom_site_type_symbol
_atom_site_fract_x
_atom_site_fract_y
_atom_site_fract_z
_atom_type_partial_charge
Li0 Li 0.41147 0.32634 0.43586 0.0
Li1 Li 0.41705 0.30604 0.42057 0.0
Li2 Li 0.43438 0.3329 0.4035 0.0
Li3 Li 0.40905 0.31734 0.37788 0.0
C4 C 0.44306 0.33063 0.4652 0.0
N5 N 0.47186 0.3439 0.49489 0.0
C6 C 0.45019 0.32185 0.47075 0.0
C7 C 0.45055 0.34614 0.47493 0.0
C8 C 0.46476 0.32878 0.4858 0.0
C9 C 0.46512 0.35265 0.48981 0.0
C10 C 0.38665 0.29155 0.42885 0.0
C11 C 0.37251 0.26387 0.42256 0.0
N12 N 0.36648 0.26253 0.45378 0.0
C13 C 0.38024 0.28992 0.46078 0.0
C14 C 0.38269 0.27845 0.40947 0.0
C15 C 0.37008 0.27514 0.47296 0.0
C16 C 0.38891 0.33188 0.46571 0.0
N17 N 0.40277 0.33268 0.47024 0.0
C18 C 0.40415 0.3412 0.52666 0.0
C19 C 0.4104 0.33718 0.49993 0.0
C20 C 0.38984 0.34047 0.52286 0.0
C21 C 0.38224 0.33585 0.49181 0.0
H22 H 0.38294 0.3279 0.44203 0.0
H23 H 0.42122 0.33742 0.50308 0.0
C24 C 0.41973 0.27862 0.42216 0.0
N25 N 0.41593 0.28807 0.43906 0.0
C26 C 0.41894 0.26582 0.43836 0.0
C27 C 0.4101 0.27271 0.48848 0.0
C28 C 0.41139 0.28548 0.47165 0.0
C29 C 0.41395 0.26275 0.47185 0.0
H30 H 0.42349 0.28111 0.39634 0.0
H31 H 0.40884 0.29344 0.48462 0.0
C32 C 0.41378 0.34913 0.39992 0.0
N33 N 0.40298 0.36917 0.41326 0.0
C34 C 0.40023 0.34693 0.38473 0.0
C35 C 0.42185 0.36154 0.42183 0.0
C36 C 0.39497 0.3572 0.39177 0.0
C37 C 0.41619 0.37153 0.4283 0.0
C38 C 0.42744 0.31101 0.3433 0.0
C39 C 0.4378 0.32284 0.32227 0.0
C40 C 0.41718 0.29653 0.32982 0.0
C41 C 0.43761 0.32003 0.2879 0.0
C42 C 0.41733 0.29419 0.29532 0.0
N43 N 0.42745 0.30589 0.27525 0.0
C44 C 0.46703 0.34583 0.40095 0.0
C45 C 0.45784 0.36293 0.38782 0.0
C46 C 0.48231 0.35792 0.39944 0.0
N47 N 0.4552 0.34865 0.39618 0.0
C48 C 0.47289 0.37529 0.38554 0.0
C49 C 0.48534 0.37291 0.39208 0.0
H50 H 0.46459 0.33428 0.40694 0.0
H51 H 0.44823 0.36481 0.38364 0.0
C52 C 0.38258 0.30362 0.33574 0.0
N53 N 0.39772 0.31467 0.33787 0.0
C54 C 0.37364 0.30355 0.30875 0.0
C55 C 0.39618 0.32589 0.28624 0.0
C56 C 0.40465 0.32556 0.31366 0.0
C57 C 0.38036 0.31501 0.28393 0.0
H58 H 0.37728 0.29531 0.35573 0.0
H59 H 0.41657 0.3345 0.3166 0.0
O60 O 0.42889 0.32412 0.45012 0.0
O61 O 0.39685 0.30591 0.41675 0.0
O62 O 0.41902 0.33908 0.39377 0.0
O63 O 0.42727 0.31361 0.3769 0.0
H64 H 0.44463 0.30987 0.46326 0.0
H65 H 0.44526 0.35313 0.4706 0.0
H66 H 0.47043 0.32214 0.49013 0.0
H67 H 0.4711 0.36466 0.4972 0.0
H68 H 0.36943 0.25362 0.40794 0.0
H69 H 0.38321 0.29993 0.47616 0.0
H70 H 0.38757 0.27952 0.38474 0.0
H71 H 0.36511 0.27369 0.4977 0.0
H72 H 0.41047 0.34485 0.55007 0.0
H73 H 0.37109 0.33495 0.48801 0.0
H74 H 0.42207 0.25838 0.42494 0.0
H75 H 0.40649 0.27083 0.51449 0.0
H76 H 0.39374 0.33733 0.36795 0.0
H77 H 0.43229 0.36335 0.43401 0.0
H78 H 0.38448 0.35562 0.38027 0.0
H79 H 0.42227 0.38113 0.44535 0.0
H80 H 0.44581 0.33412 0.33233 0.0
H81 H 0.40913 0.28724 0.34582 0.0
H82 H 0.4455 0.3291 0.27128 0.0
H83 H 0.4094 0.28307 0.28449 0.0
H84 H 0.49162 0.35562 0.40427 0.0
H85 H 0.47476 0.38669 0.37994 0.0
H86 H 0.3615 0.29491 0.30784 0.0
H87 H 0.40177 0.33513 0.26809 0.0
Li88 Li 0.11079 0.41413 0.58836 0.0
Li89 Li 0.08509 0.40879 0.60393 0.0
Li90 Li 0.09119 0.40708 0.54414 0.0
Li91 Li 0.10089 0.43209 0.57196 0.0
C92 C 0.09323 0.38223 0.57819 0.0
N93 N 0.09775 0.35743 0.56814 0.0
C94 C 0.0881 0.37044 0.60204 0.0
C95 C 0.10047 0.3813 0.54905 0.0
C96 C 0.09055 0.35803 0.59657 0.0
C97 C 0.10269 0.3687 0.54446 0.0
C98 C 0.10253 0.42901 0.64993 0.0
C99 C 0.09061 0.43749 0.69094 0.0
N100 N 0.09637 0.43257 0.71592 0.0
C101 C 0.1085 0.42423 0.67605 0.0
C102 C 0.09367 0.43586 0.65747 0.0
C103 C 0.1052 0.42607 0.70922 0.0
C104 C 0.14254 0.42302 0.59735 0.0
N105 N 0.12768 0.41284 0.60595 0.0
C106 C 0.13597 0.40281 0.65053 0.0
C107 C 0.12423 0.40261 0.63141 0.0
C108 C 0.15139 0.41356 0.64316 0.0
C109 C 0.15471 0.42346 0.61558 0.0
H110 H 0.14493 0.43127 0.57748 0.0
H111 H 0.11233 0.39499 0.63833 0.0
C112 C 0.05723 0.40043 0.63919 0.0
N113 N 0.07036 0.39959 0.63864 0.0
C114 C 0.04706 0.39435 0.66625 0.0
C115 C 0.06398 0.38631 0.69107 0.0
C116 C 0.07378 0.39253 0.66355 0.0
C117 C 0.05049 0.38731 0.69281 0.0
H118 H 0.05473 0.40599 0.61888 0.0
H119 H 0.0843 0.39198 0.66227 0.0
C120 C 0.12108 0.42734 0.51595 0.0
N121 N 0.13808 0.43275 0.45781 0.0
C122 C 0.12189 0.43813 0.49256 0.0
C123 C 0.1292 0.41955 0.51009 0.0
C124 C 0.13046 0.44063 0.46323 0.0
C125 C 0.13765 0.42237 0.48046 0.0
C126 C 0.07157 0.42329 0.55136 0.0
C127 C 0.06792 0.4223 0.51727 0.0
C128 C 0.06753 0.43178 0.57274 0.0
C129 C 0.06053 0.43002 0.50506 0.0
C130 C 0.06018 0.43937 0.55957 0.0
N131 N 0.05687 0.43835 0.52628 0.0
C132 C 0.06952 0.38141 0.50931 0.0
C133 C 0.08604 0.4018 0.47302 0.0
C134 C 0.06004 0.37309 0.48248 0.0
N135 N 0.08203 0.39561 0.50427 0.0
C136 C 0.07679 0.39395 0.44549 0.0
C137 C 0.06337 0.3796 0.45026 0.0
H138 H 0.06642 0.3769 0.53451 0.0
H139 H 0.09578 0.41323 0.46964 0.0
C140 C 0.11389 0.46302 0.59229 0.0
N141 N 0.1063 0.45315 0.56664 0.0
C142 C 0.11676 0.47817 0.59135 0.0
C143 C 0.10459 0.47297 0.53685 0.0
C144 C 0.10202 0.45793 0.53881 0.0
C145 C 0.1118 0.48322 0.56364 0.0
H146 H 0.11741 0.45902 0.6139 0.0
H147 H 0.09629 0.44999 0.51842 0.0
O148 O 0.09096 0.39448 0.58328 0.0
O149 O 0.10526 0.42691 0.61721 0.0
O150 O 0.1129 0.42492 0.54502 0.0
O151 O 0.07888 0.41584 0.56373 0.0
H152 H 0.08234 0.3709 0.62462 0.0
H153 H 0.1042 0.39012 0.53002 0.0
H154 H 0.08672 0.34887 0.61491 0.0
H155 H 0.10831 0.36786 0.52202 0.0
H156 H 0.08367 0.44267 0.69706 0.0
H157 H 0.11554 0.4191 0.67086 0.0
H158 H 0.08919 0.43987 0.63769 0.0
H159 H 0.10965 0.4223 0.72963 0.0
H160 H 0.13302 0.39502 0.67165 0.0
H161 H 0.16651 0.43198 0.60945 0.0
H162 H 0.03684 0.39547 0.66673 0.0
H163 H 0.06695 0.38079 0.71074 0.0
H164 H 0.11585 0.44441 0.49686 0.0
H165 H 0.12911 0.41152 0.52834 0.0
H166 H 0.13107 0.44884 0.44478 0.0
H167 H 0.14393 0.41637 0.47555 0.0
H168 H 0.07079 0.4157 0.50033 0.0
H169 H 0.07006 0.43256 0.5992 0.0
H170 H 0.05771 0.4294 0.4787 0.0
H171 H 0.0571 0.44606 0.57584 0.0
H172 H 0.04968 0.36217 0.48732 0.0
H173 H 0.07973 0.39934 0.42098 0.0
H174 H 0.12228 0.48566 0.61264 0.0
H175 H 0.10083 0.47648 0.51476 0.0
Li176 Li 0.69421 0.11306 0.7498 0.0
Li177 Li 0.67361 0.08872 0.76948 0.0
Li178 Li 0.68056 0.09149 0.71097 0.0
Li179 Li 0.66691 0.10464 0.73507 0.0
C180 C 0.70446 0.09251 0.76875 0.0
N181 N 0.72724 0.09233 0.80758 0.0
C182 C 0.70538 0.09584 0.80298 0.0
C183 C 0.71504 0.08898 0.75429 0.0
C184 C 0.71699 0.09572 0.82218 0.0
C185 C 0.7265 0.08898 0.77433 0.0
C186 C 0.67388 0.11269 0.81055 0.0
C187 C 0.65644 0.11407 0.8504 0.0
N188 N 0.66784 0.11968 0.87385 0.0
C189 C 0.68545 0.11861 0.835 0.0
C190 C 0.65928 0.11052 0.81825 0.0
C191 C 0.68216 0.12201 0.86686 0.0
C192 C 0.71126 0.14253 0.77563 0.0
N193 N 0.71291 0.13086 0.76276 0.0
C194 C 0.73945 0.14361 0.77891 0.0
C195 C 0.72677 0.13143 0.76296 0.0
C196 C 0.73779 0.15531 0.79452 0.0
C197 C 0.7236 0.15491 0.79178 0.0
H198 H 0.70009 0.14177 0.77499 0.0
H199 H 0.72788 0.12217 0.75195 0.0
C200 C 0.67125 0.06313 0.80413 0.0
N201 N 0.66691 0.07402 0.80539 0.0
C202 C 0.66723 0.05238 0.82997 0.0
C203 C 0.65394 0.06392 0.85746 0.0
C204 C 0.6581 0.07435 0.83098 0.0
C205 C 0.65866 0.05288 0.85732 0.0
H206 H 0.67793 0.06285 0.78309 0.0
H207 H 0.65416 0.08256 0.83086 0.0
C208 C 0.6975 0.12105 0.68237 0.0
N209 N 0.72152 0.13612 0.63743 0.0
C210 C 0.69774 0.13209 0.66054 0.0
C211 C 0.70948 0.11768 0.68138 0.0
C212 C 0.70998 0.13958 0.63798 0.0
C213 C 0.72152 0.12542 0.65848 0.0
C214 C 0.64723 0.06933 0.74292 0.0
C215 C 0.64623 0.05501 0.73835 0.0
C216 C 0.63601 0.07034 0.76187 0.0
C217 C 0.63405 0.04191 0.75312 0.0
C218 C 0.624 0.05696 0.77619 0.0
N219 N 0.62329 0.04315 0.7716 0.0
C220 C 0.68239 0.06752 0.68028 0.0
C221 C 0.68043 0.08447 0.64168 0.0
C222 C 0.68125 0.05763 0.65434 0.0
N223 N 0.68167 0.08045 0.67358 0.0
C224 C 0.67947 0.07503 0.61489 0.0
C225 C 0.67947 0.06117 0.62109 0.0
H226 H 0.68325 0.06458 0.706 0.0
H227 H 0.67977 0.09478 0.63712 0.0
C228 C 0.65464 0.12428 0.74346 0.0
N229 N 0.6524 0.11123 0.72792 0.0
C230 C 0.6431 0.12824 0.74285 0.0
C231 C 0.62769 0.10588 0.70805 0.0
C232 C 0.63944 0.10222 0.7098 0.0
C233 C 0.62931 0.11881 0.72548 0.0
H234 H 0.66513 0.13124 0.75757 0.0
H235 H 0.63799 0.09188 0.69779 0.0
O236 O 0.6933 0.09271 0.74929 0.0
O237 O 0.67696 0.10957 0.77894 0.0
O238 O 0.68559 0.11366 0.70461 0.0
O239 O 0.65934 0.08236 0.72965 0.0
H240 H 0.69715 0.09837 0.8146 0.0
H241 H 0.71446 0.08636 0.7278 0.0
H242 H 0.71784 0.09829 0.84871 0.0
H243 H 0.73481 0.08633 0.76345 0.0
H244 H 0.64516 0.11232 0.85674 0.0
H245 H 0.69692 0.1207 0.82945 0.0
H246 H 0.65013 0.10587 0.79981 0.0
H247 H 0.69101 0.12657 0.886 0.0
H248 H 0.75028 0.14363 0.7799 0.0
H249 H 0.72174 0.16359 0.80364 0.0
H250 H 0.67104 0.04398 0.82892 0.0
H251 H 0.64697 0.06442 0.87771 0.0
H252 H 0.68855 0.13483 0.66104 0.0
H253 H 0.7095 0.10916 0.69802 0.0
H254 H 0.71032 0.14815 0.62092 0.0
H255 H 0.73085 0.12292 0.65743 0.0
H256 H 0.65486 0.05404 0.72389 0.0
H257 H 0.63668 0.08135 0.76585 0.0
H258 H 0.63319 0.03076 0.74999 0.0
H259 H 0.61529 0.05758 0.7911 0.0
H260 H 0.68107 0.04701 0.66055 0.0
H261 H 0.6784 0.07841 0.58968 0.0
H262 H 0.64477 0.13835 0.7564 0.0
H263 H 0.61716 0.0983 0.6946 0.0
Li264 Li 0.5913 0.67301 0.93902 0.0
Li265 Li 0.58449 0.69262 0.92557 0.0
Li266 Li 0.56725 0.66553 0.9101 0.0
Li267 Li 0.59173 0.6814 0.88125 0.0
C268 C 0.56032 0.66781 0.97363 0.0
N269 N 0.53267 0.65383 0.00822 0.0
C270 C 0.55298 0.67617 0.98161 0.0
C271 C 0.55361 0.65234 0.98334 0.0
C272 C 0.53901 0.6689 0.99913 0.0
C273 C 0.53962 0.64548 0.00075 0.0
C274 C 0.61478 0.70797 0.9303 0.0
C275 C 0.62798 0.73563 0.92357 0.0
N276 N 0.6342 0.73732 0.95469 0.0
C277 C 0.62136 0.70997 0.96214 0.0
C278 C 0.61817 0.72088 0.91075 0.0
C279 C 0.63114 0.72491 0.97404 0.0
C280 C 0.61585 0.66957 0.96386 0.0
N281 N 0.60156 0.66727 0.97097 0.0
C282 C 0.6023 0.65794 0.02559 0.0
C283 C 0.59473 0.66162 0.0011 0.0
C284 C 0.61711 0.66024 0.01911 0.0
C285 C 0.62385 0.66603 0.98765 0.0
H286 H 0.62112 0.67439 0.93989 0.0
H287 H 0.5835 0.66017 0.00633 0.0
C288 C 0.58165 0.71994 0.92793 0.0
N289 N 0.58541 0.71042 0.94464 0.0
C290 C 0.58207 0.73247 0.94457 0.0
C291 C 0.59037 0.72516 0.99484 0.0
C292 C 0.58964 0.71276 0.97743 0.0
C293 C 0.58651 0.73518 0.97848 0.0
H294 H 0.57819 0.7177 0.90191 0.0
H295 H 0.59226 0.7048 0.99018 0.0
C296 C 0.58826 0.65001 0.90297 0.0
N297 N 0.59983 0.63048 0.91468 0.0
C298 C 0.6019 0.65269 0.88736 0.0
C299 C 0.58048 0.63737 0.92444 0.0
C300 C 0.60756 0.64268 0.8936 0.0
C301 C 0.58653 0.62765 0.93008 0.0
C302 C 0.57215 0.68677 0.84971 0.0
C303 C 0.56154 0.67463 0.82964 0.0
C304 C 0.58188 0.70118 0.83533 0.0
C305 C 0.56094 0.67709 0.79531 0.0
C306 C 0.58095 0.70317 0.80091 0.0
N307 N 0.57059 0.69119 0.78178 0.0
C308 C 0.53445 0.65152 0.9131 0.0
C309 C 0.544 0.63552 0.89361 0.0
C310 C 0.51932 0.63912 0.91241 0.0
N311 N 0.54643 0.64936 0.90486 0.0
C312 C 0.52907 0.62289 0.89191 0.0
C313 C 0.51648 0.62446 0.90225 0.0
H314 H 0.53668 0.66277 0.92119 0.0
H315 H 0.55369 0.63422 0.88629 0.0
C316 C 0.61648 0.69517 0.834 0.0
N317 N 0.60179 0.68361 0.83954 0.0
C318 C 0.62453 0.69483 0.80562 0.0
C319 C 0.60197 0.67097 0.78892 0.0
C320 C 0.59439 0.67178 0.81749 0.0
C321 C 0.61738 0.6824 0.78302 0.0
H322 H 0.6222 0.70426 0.85231 0.0
H323 H 0.58286 0.66253 0.82309 0.0
O324 O 0.57395 0.67468 0.95623 0.0
O325 O 0.60491 0.69346 0.9185 0.0
O326 O 0.58272 0.65988 0.89782 0.0
O327 O 0.57313 0.6845 0.8832 0.0
H328 H 0.5579 0.6881 0.97409 0.0
H329 H 0.55903 0.64564 0.97709 0.0
H330 H 0.53318 0.67522 0.00536 0.0
H331 H 0.53425 0.6335 0.00821 0.0
H332 H 0.63061 0.74572 0.90881 0.0
H333 H 0.6188 0.70012 0.97769 0.0
H334 H 0.61313 0.71954 0.88612 0.0
H335 H 0.63624 0.72663 0.99871 0.0
H336 H 0.59661 0.65335 0.04938 0.0
H337 H 0.63533 0.66817 0.98179 0.0
H338 H 0.57902 0.73997 0.93112 0.0
H339 H 0.59355 0.72665 0.02111 0.0
H340 H 0.60819 0.6625 0.87097 0.0
H341 H 0.56996 0.63518 0.93687 0.0
H342 H 0.61813 0.64465 0.88181 0.0
H343 H 0.58067 0.61787 0.94677 0.0
H344 H 0.55394 0.66339 0.84039 0.0
H345 H 0.59014 0.71069 0.85056 0.0
H346 H 0.55285 0.66778 0.77942 0.0
H347 H 0.58847 0.71424 0.78939 0.0
H348 H 0.51006 0.64095 0.92076 0.0
H349 H 0.52748 0.61199 0.88282 0.0
H350 H 0.63635 0.70394 0.80195 0.0
H351 H 0.59607 0.661 0.77268 0.0
Li352 Li 0.90937 0.5902 0.11026 0.0
Li353 Li 0.88504 0.58422 0.08793 0.0
Li354 Li 0.89496 0.56589 0.0813 0.0
Li355 Li 0.90713 0.5914 0.05085 0.0
C356 C 0.88357 0.57447 0.15284 0.0
N357 N 0.87119 0.57838 0.21154 0.0
C358 C 0.88754 0.58929 0.1638 0.0
C359 C 0.87331 0.56165 0.17178 0.0
C360 C 0.88117 0.59102 0.19353 0.0
C361 C 0.86718 0.56386 0.20139 0.0
C362 C 0.90234 0.6153 0.06986 0.0
C363 C 0.89132 0.6228 0.02492 0.0
N364 N 0.89738 0.63711 0.03869 0.0
C365 C 0.9085 0.63009 0.0835 0.0
C366 C 0.89371 0.61162 0.04029 0.0
C367 C 0.90584 0.64095 0.0674 0.0
C368 C 0.93379 0.61472 0.14555 0.0
N369 N 0.92309 0.59945 0.14686 0.0
C370 C 0.93184 0.59715 0.20107 0.0
C371 C 0.92198 0.5906 0.17374 0.0
C372 C 0.94302 0.61289 0.20049 0.0
C373 C 0.944 0.62171 0.17222 0.0
H374 H 0.93439 0.62142 0.12373 0.0
H375 H 0.91346 0.57844 0.17387 0.0
C376 C 0.85335 0.57039 0.09888 0.0
N377 N 0.86653 0.58433 0.09779 0.0
C378 C 0.8402 0.5689 0.11461 0.0
C379 C 0.85419 0.5963 0.12599 0.0
C380 C 0.86707 0.59725 0.1102 0.0
C381 C 0.8407 0.58189 0.12941 0.0
H382 H 0.8534 0.56025 0.08957 0.0
H383 H 0.87781 0.60808 0.11036 0.0
C384 C 0.93046 0.58416 0.08934 0.0
N385 N 0.95767 0.59036 0.12025 0.0
C386 C 0.94404 0.59805 0.08301 0.0
C387 C 0.93072 0.57337 0.11118 0.0
C388 C 0.95768 0.60099 0.09895 0.0
C389 C 0.9446 0.57673 0.1266 0.0
C390 C 0.87727 0.5666 0.01919 0.0
C391 C 0.88005 0.55636 0.00074 0.0
C392 C 0.86562 0.56956 0.00902 0.0
C393 C 0.87127 0.54942 0.97205 0.0
C394 C 0.85709 0.56237 0.9802 0.0
N395 N 0.86007 0.55254 0.96246 0.0
C396 C 0.87842 0.53392 0.09675 0.0
C397 C 0.89989 0.54205 0.06046 0.0
C398 C 0.87606 0.51892 0.09733 0.0
N399 N 0.8903 0.54511 0.07884 0.0
C400 C 0.89791 0.52723 0.06016 0.0
C401 C 0.88605 0.51547 0.07927 0.0
H402 H 0.87103 0.53675 0.11127 0.0
H403 H 0.90927 0.55123 0.04655 0.0
C404 C 0.9296 0.61657 0.0144 0.0
N405 N 0.91806 0.60167 0.01124 0.0
C406 C 0.93936 0.62418 0.98739 0.0
C407 C 0.92494 0.6011 0.9541 0.0
C408 C 0.91547 0.59394 0.98177 0.0
C409 C 0.93728 0.61633 0.95691 0.0
H410 H 0.93161 0.62235 0.03834 0.0
H411 H 0.90641 0.58205 0.98 0.0
O412 O 0.88915 0.57242 0.12307 0.0
O413 O 0.90489 0.6046 0.0855 0.0
O414 O 0.9169 0.58127 0.07478 0.0
O415 O 0.88557 0.57334 0.04765 0.0
H416 H 0.89531 0.59937 0.14933 0.0
H417 H 0.87002 0.5501 0.16358 0.0
H418 H 0.88408 0.60241 0.20219 0.0
H419 H 0.85919 0.55404 0.21623 0.0
H420 H 0.88468 0.6201 0.00201 0.0
H421 H 0.91523 0.63311 0.10637 0.0
H422 H 0.88902 0.60033 0.02917 0.0
H423 H 0.91051 0.65243 0.07773 0.0
H424 H 0.93088 0.58992 0.22222 0.0
H425 H 0.95243 0.63391 0.17095 0.0
H426 H 0.83 0.55758 0.11658 0.0
H427 H 0.85521 0.60655 0.13765 0.0
H428 H 0.944 0.60655 0.06628 0.0
H429 H 0.92027 0.56261 0.11652 0.0
H430 H 0.96827 0.61173 0.09448 0.0
H431 H 0.94496 0.56854 0.14373 0.0
H432 H 0.889 0.55393 0.00827 0.0
H433 H 0.86315 0.57728 0.02328 0.0
H434 H 0.87337 0.54154 0.95741 0.0
H435 H 0.84806 0.56459 0.97199 0.0
H436 H 0.86688 0.51028 0.11269 0.0
H437 H 0.90573 0.52507 0.04541 0.0
H438 H 0.94886 0.63583 0.99087 0.0
H439 H 0.92283 0.59467 0.93098 0.0
Li440 Li 0.32331 0.91363 0.2666 0.0
Li441 Li 0.30335 0.88749 0.25329 0.0
Li442 Li 0.33159 0.89697 0.23743 0.0
Li443 Li 0.31626 0.90627 0.20949 0.0
C444 C 0.32743 0.89739 0.31389 0.0
N445 N 0.33925 0.90554 0.37797 0.0
C446 C 0.3175 0.89264 0.34149 0.0
C447 C 0.34338 0.90619 0.31885 0.0
C448 C 0.3237 0.8969 0.3737 0.0
C449 C 0.34912 0.91022 0.35146 0.0
C450 C 0.28849 0.90385 0.23867 0.0
C451 C 0.26567 0.89135 0.20418 0.0
N452 N 0.25874 0.8971 0.22426 0.0
C453 C 0.28119 0.9097 0.25888 0.0
C454 C 0.28071 0.89464 0.21106 0.0
C455 C 0.26613 0.90613 0.25122 0.0
C456 C 0.34367 0.94035 0.30405 0.0
N457 N 0.32896 0.92843 0.30121 0.0
C458 C 0.32188 0.93524 0.35287 0.0
C459 C 0.31806 0.92583 0.32459 0.0
C460 C 0.33705 0.94755 0.35692 0.0
C461 C 0.34795 0.95019 0.33171 0.0
H462 H 0.35215 0.94198 0.28524 0.0
H463 H 0.30653 0.91606 0.32186 0.0
C464 C 0.2813 0.85591 0.26473 0.0
N465 N 0.28535 0.87076 0.27163 0.0
C466 C 0.26922 0.84381 0.28234 0.0
C467 C 0.2655 0.86259 0.3129 0.0
C468 C 0.27769 0.87428 0.29497 0.0
C469 C 0.2613 0.84714 0.30712 0.0
H470 H 0.28781 0.8535 0.24643 0.0
H471 H 0.28151 0.88622 0.30073 0.0
C472 C 0.34351 0.93234 0.21123 0.0
N473 N 0.35401 0.95911 0.17417 0.0
C474 C 0.3382 0.94259 0.21823 0.0
C475 C 0.3542 0.93574 0.18543 0.0
C476 C 0.34365 0.95606 0.19923 0.0
C477 C 0.35935 0.94932 0.16696 0.0
C478 C 0.30884 0.87717 0.1809 0.0
C479 C 0.32067 0.87836 0.16024 0.0
C480 C 0.29346 0.86771 0.17122 0.0
C481 C 0.31695 0.87054 0.1296 0.0
C482 C 0.2902 0.86005 0.14041 0.0
N483 N 0.30192 0.86164 0.12038 0.0
C484 C 0.34655 0.88124 0.2596 0.0
C485 C 0.35879 0.89786 0.21343 0.0
C486 C 0.35843 0.8778 0.26183 0.0
N487 N 0.34707 0.8913 0.23601 0.0
C488 C 0.37088 0.89467 0.21459 0.0
C489 C 0.37092 0.88472 0.23941 0.0
H490 H 0.33706 0.87617 0.2772 0.0
H491 H 0.3589 0.90579 0.19494 0.0
C492 C 0.30855 0.9241 0.16679 0.0
N493 N 0.31476 0.91471 0.16729 0.0
C494 C 0.31062 0.93341 0.13898 0.0
C495 C 0.32497 0.92287 0.11213 0.0
C496 C 0.32264 0.91377 0.14045 0.0
C497 C 0.31933 0.93321 0.11159 0.0
H498 H 0.30303 0.92531 0.18891 0.0
H499 H 0.32818 0.90692 0.14196 0.0
O500 O 0.32158 0.89378 0.2821 0.0
O501 O 0.30315 0.90705 0.24622 0.0
O502 O 0.33776 0.91877 0.22865 0.0
O503 O 0.31227 0.8845 0.21129 0.0
H504 H 0.30513 0.88586 0.33805 0.0
H505 H 0.35121 0.91007 0.29769 0.0
H506 H 0.31615 0.89338 0.3953 0.0
H507 H 0.36143 0.91712 0.35567 0.0
H508 H 0.25952 0.88425 0.18283 0.0
H509 H 0.28708 0.91687 0.28036 0.0
H510 H 0.2863 0.89028 0.1949 0.0
H511 H 0.26031 0.91053 0.26672 0.0
H512 H 0.31315 0.93254 0.37185 0.0
H513 H 0.35972 0.95966 0.33344 0.0
H514 H 0.2663 0.83203 0.27714 0.0
H515 H 0.25992 0.86568 0.33225 0.0
H516 H 0.32967 0.94001 0.2376 0.0
H517 H 0.35831 0.9279 0.17932 0.0
H518 H 0.33954 0.96402 0.20422 0.0
H519 H 0.36753 0.95203 0.14675 0.0
H520 H 0.33262 0.8854 0.16762 0.0
H521 H 0.28412 0.86614 0.18746 0.0
H522 H 0.32601 0.87152 0.11319 0.0
H523 H 0.27836 0.85278 0.13252 0.0
H524 H 0.35793 0.86993 0.28108 0.0
H525 H 0.38034 0.90036 0.19702 0.0
H526 H 0.30636 0.94145 0.14 0.0
H527 H 0.33176 0.92235 0.09154 0.0
Li528 Li 0.68118 0.59068 0.45351 0.0
Li529 Li 0.66959 0.56654 0.42458 0.0
Li530 Li 0.69843 0.58457 0.42274 0.0
Li531 Li 0.67973 0.59033 0.39328 0.0
C532 C 0.68906 0.57396 0.49464 0.0
N533 N 0.69716 0.5752 0.56128 0.0
C534 C 0.67764 0.56772 0.51935 0.0
C535 C 0.70461 0.58076 0.50378 0.0
C536 C 0.68197 0.56848 0.55292 0.0
C537 C 0.70846 0.58129 0.53762 0.0
C538 C 0.64717 0.5724 0.43101 0.0
C539 C 0.62155 0.55453 0.41096 0.0
N540 N 0.61612 0.55262 0.4429 0.0
C541 C 0.64134 0.57025 0.46366 0.0
C542 C 0.6372 0.5645 0.40443 0.0
C543 C 0.6256 0.56022 0.46913 0.0
C544 C 0.67011 0.6083 0.48162 0.0
N545 N 0.67917 0.60224 0.48992 0.0
C546 C 0.68355 0.6137 0.54446 0.0
C547 C 0.6862 0.6051 0.5204 0.0
C548 C 0.67383 0.61969 0.53682 0.0
C549 C 0.66731 0.61709 0.50461 0.0
H550 H 0.66508 0.60637 0.45685 0.0
H551 H 0.69395 0.60087 0.52613 0.0
C552 C 0.65153 0.5371 0.3956 0.0
N553 N 0.65391 0.54523 0.42445 0.0
C554 C 0.63914 0.52207 0.39289 0.0
C555 C 0.63232 0.52367 0.45028 0.0
C556 C 0.64486 0.5387 0.45185 0.0
C557 C 0.62915 0.51528 0.42024 0.0
H558 H 0.65908 0.54237 0.37443 0.0
H559 H 0.64702 0.54533 0.47458 0.0
C560 C 0.70387 0.61794 0.43605 0.0
N561 N 0.71496 0.64586 0.46869 0.0
C562 C 0.69884 0.62814 0.42653 0.0
C563 C 0.71462 0.62196 0.46197 0.0
C564 C 0.70457 0.6422 0.4434 0.0
C565 C 0.72006 0.63612 0.47821 0.0
C566 C 0.68471 0.573 0.35115 0.0
C567 C 0.69906 0.57845 0.33561 0.0
C568 C 0.67149 0.56795 0.3314 0.0
C569 C 0.69992 0.57875 0.30062 0.0
C570 C 0.67284 0.56849 0.29649 0.0
N571 N 0.68691 0.57382 0.28195 0.0
C572 C 0.71722 0.57206 0.40975 0.0
C573 C 0.73046 0.59942 0.41091 0.0
C574 C 0.72989 0.57218 0.39475 0.0
N575 N 0.71757 0.58555 0.41624 0.0
C576 C 0.74346 0.60009 0.39631 0.0
C577 C 0.743 0.58635 0.38647 0.0
H578 H 0.70663 0.56123 0.41349 0.0
H579 H 0.73026 0.60996 0.41567 0.0
C580 C 0.66357 0.59969 0.35055 0.0
N581 N 0.67727 0.60021 0.35516 0.0
C582 C 0.66119 0.60637 0.32218 0.0
C583 C 0.6872 0.61427 0.30416 0.0
C584 C 0.68912 0.60757 0.3331 0.0
C585 C 0.67305 0.61365 0.2984 0.0
H586 H 0.65446 0.59402 0.36882 0.0
H587 H 0.70001 0.60806 0.33783 0.0
O588 O 0.68507 0.57304 0.46161 0.0
O589 O 0.66259 0.58199 0.42516 0.0
O590 O 0.69805 0.60395 0.42053 0.0
O591 O 0.68362 0.57274 0.38543 0.0
H592 H 0.66557 0.56249 0.51275 0.0
H593 H 0.71359 0.5856 0.48497 0.0
H594 H 0.67325 0.56377 0.57234 0.0
H595 H 0.72044 0.58655 0.54508 0.0
H596 H 0.61373 0.54827 0.39065 0.0
H597 H 0.64889 0.57605 0.48464 0.0
H598 H 0.64152 0.5659 0.37906 0.0
H599 H 0.62095 0.5584 0.49427 0.0
H600 H 0.68889 0.61544 0.56889 0.0
H601 H 0.66017 0.62187 0.49704 0.0
H602 H 0.63731 0.51589 0.36949 0.0
H603 H 0.62486 0.51891 0.47192 0.0
H604 H 0.69047 0.62515 0.40659 0.0
H605 H 0.71852 0.61411 0.46977 0.0
H606 H 0.70072 0.65018 0.43646 0.0
H607 H 0.72829 0.63934 0.49849 0.0
H608 H 0.70945 0.58256 0.35028 0.0
H609 H 0.66032 0.56386 0.34291 0.0
H610 H 0.71095 0.58296 0.28832 0.0
H611 H 0.66271 0.56471 0.28096 0.0
H612 H 0.72887 0.56131 0.38726 0.0
H613 H 0.7534 0.61126 0.39093 0.0
H614 H 0.65009 0.60559 0.31856 0.0
H615 H 0.69668 0.61996 0.28661 0.0
Li616 Li 0.08847 0.68037 0.61881 0.0
Li617 Li 0.09983 0.66589 0.59145 0.0
Li618 Li 0.11087 0.69402 0.58266 0.0
Li619 Li 0.0862 0.67602 0.55944 0.0
C620 C 0.11744 0.69372 0.65004 0.0
N621 N 0.13326 0.71532 0.69944 0.0
C622 C 0.1279 0.69221 0.67067 0.0
C623 C 0.11501 0.70621 0.65453 0.0
C624 C 0.13579 0.70326 0.69551 0.0
C625 C 0.12312 0.71701 0.67964 0.0
C626 C 0.06362 0.65043 0.58326 0.0
C627 C 0.04676 0.62935 0.54707 0.0
N628 N 0.0348 0.63144 0.55593 0.0
C629 C 0.05115 0.65231 0.59219 0.0
C630 C 0.06142 0.63881 0.56069 0.0
C631 C 0.03667 0.64261 0.57804 0.0
C632 C 0.06847 0.68685 0.6565 0.0
N633 N 0.0777 0.68048 0.65762 0.0
C634 C 0.06812 0.66987 0.71177 0.0
C635 C 0.07795 0.6724 0.68472 0.0
C636 C 0.05786 0.67563 0.71071 0.0
C637 C 0.05842 0.68459 0.68301 0.0
H638 H 0.06835 0.69298 0.63428 0.0
H639 H 0.08534 0.66737 0.68465 0.0
C640 C 0.118 0.65162 0.58622 0.0
N641 N 0.10409 0.64959 0.59603 0.0
C642 C 0.12053 0.63909 0.58565 0.0
C643 C 0.09459 0.62286 0.60659 0.0
C644 C 0.09257 0.63567 0.60673 0.0
C645 C 0.10861 0.62441 0.59529 0.0
H646 H 0.12689 0.66284 0.5776 0.0
H647 H 0.08165 0.63445 0.61448 0.0
C648 C 0.0933 0.70702 0.56247 0.0
N649 N 0.09695 0.73052 0.52027 0.0
C650 C 0.09858 0.70781 0.5297 0.0
C651 C 0.08984 0.71817 0.57378 0.0
C652 C 0.10036 0.71977 0.50874 0.0
C653 C 0.09176 0.72996 0.55207 0.0
C654 C 0.10893 0.67299 0.51924 0.0
C655 C 0.1172 0.68384 0.49425 0.0
C656 C 0.1037 0.65736 0.51325 0.0
C657 C 0.11995 0.67885 0.46364 0.0
C658 C 0.1067 0.65284 0.48232 0.0
N659 N 0.11469 0.66359 0.45836 0.0
C660 C 0.14044 0.71031 0.55672 0.0
C661 C 0.13154 0.72664 0.57775 0.0
C662 C 0.15315 0.72283 0.54193 0.0
N663 N 0.12967 0.71234 0.57303 0.0
C664 C 0.14417 0.73954 0.56353 0.0
C665 C 0.15489 0.73764 0.54426 0.0
H666 H 0.13864 0.69879 0.55346 0.0
H667 H 0.12286 0.72795 0.59111 0.0
C668 C 0.06161 0.67672 0.52695 0.0
N669 N 0.07215 0.67204 0.52289 0.0
C670 C 0.0508 0.67402 0.50185 0.0
C671 C 0.06191 0.66177 0.46878 0.0
C672 C 0.07238 0.66458 0.49459 0.0
C673 C 0.05095 0.66651 0.47224 0.0
H674 H 0.06151 0.68245 0.54988 0.0
H675 H 0.08047 0.66056 0.49201 0.0
O676 O 0.10969 0.683 0.62557 0.0
O677 O 0.07799 0.66014 0.59598 0.0
O678 O 0.09168 0.69555 0.5837 0.0
O679 O 0.10641 0.67771 0.54968 0.0
H680 H 0.1299 0.68261 0.66748 0.0
H681 H 0.10696 0.70758 0.63887 0.0
H682 H 0.14392 0.70224 0.71166 0.0
H683 H 0.12136 0.72673 0.68338 0.0
H684 H 0.04491 0.62039 0.52938 0.0
H685 H 0.05267 0.66128 0.60951 0.0
H686 H 0.07095 0.63722 0.55347 0.0
H687 H 0.02693 0.644 0.58453 0.0
H688 H 0.0682 0.66308 0.73283 0.0
H689 H 0.05059 0.68907 0.68097 0.0
H690 H 0.13145 0.64076 0.57646 0.0
H691 H 0.08519 0.6118 0.61475 0.0
H692 H 0.10125 0.69926 0.52052 0.0
H693 H 0.0858 0.71776 0.59915 0.0
H694 H 0.10445 0.72052 0.48332 0.0
H695 H 0.08916 0.73869 0.56051 0.0
H696 H 0.1215 0.696 0.49839 0.0
H697 H 0.09716 0.64874 0.53199 0.0
H698 H 0.1263 0.68713 0.4441 0.0
H699 H 0.10264 0.64078 0.47734 0.0
H700 H 0.16098 0.72071 0.52711 0.0
H701 H 0.14521 0.75077 0.56658 0.0
H702 H 0.04252 0.67786 0.50546 0.0
H703 H 0.06218 0.65564 0.44662 0.0
Li704 Li 0.43418 0.10092 0.75945 0.0
Li705 Li 0.40868 0.08914 0.7873 0.0
Li706 Li 0.41134 0.08323 0.73004 0.0
Li707 Li 0.41546 0.10905 0.74369 0.0
C708 C 0.41661 0.06426 0.76405 0.0
N709 N 0.40891 0.03429 0.74878 0.0
C710 C 0.40378 0.05184 0.77905 0.0
C711 C 0.42563 0.06141 0.74156 0.0
C712 C 0.40006 0.03678 0.77097 0.0
C713 C 0.42151 0.04619 0.73406 0.0
C714 C 0.43098 0.11829 0.81771 0.0
C715 C 0.43239 0.13567 0.86133 0.0
N716 N 0.44223 0.13261 0.8788 0.0
C717 C 0.44122 0.11543 0.83596 0.0
C718 C 0.42662 0.12859 0.83034 0.0
C719 C 0.44673 0.12273 0.86685 0.0
C720 C 0.4663 0.12282 0.75752 0.0
N721 N 0.45561 0.10798 0.76503 0.0
C722 C 0.47539 0.10173 0.77499 0.0
C723 C 0.45984 0.09757 0.7745 0.0
C724 C 0.4866 0.11668 0.76528 0.0
C725 C 0.48197 0.12739 0.75694 0.0
H726 H 0.4626 0.13093 0.75063 0.0
H727 H 0.45111 0.08592 0.78084 0.0
C728 C 0.38218 0.06876 0.82415 0.0
N729 N 0.39738 0.07953 0.82736 0.0
C730 C 0.37415 0.05898 0.85081 0.0
C731 C 0.39735 0.07195 0.88423 0.0
C732 C 0.40495 0.08144 0.85685 0.0
C733 C 0.38188 0.06018 0.88105 0.0
H734 H 0.37653 0.06695 0.80014 0.0
H735 H 0.4171 0.08965 0.85866 0.0
C736 C 0.44115 0.11139 0.69615 0.0
N737 N 0.46879 0.12786 0.66206 0.0
C738 C 0.44653 0.12674 0.68699 0.0
C739 C 0.44976 0.10437 0.68755 0.0
C740 C 0.46053 0.13488 0.66984 0.0
C741 C 0.46373 0.11291 0.67047 0.0
C742 C 0.38427 0.09102 0.75709 0.0
C743 C 0.3703 0.08364 0.73961 0.0
C744 C 0.38616 0.101 0.78348 0.0
C745 C 0.35841 0.08638 0.74886 0.0
C746 C 0.374 0.10345 0.79198 0.0
N747 N 0.36049 0.09615 0.77463 0.0
C748 C 0.38866 0.05484 0.7026 0.0
C749 C 0.4106 0.0693 0.66815 0.0
C750 C 0.38201 0.04326 0.67832 0.0
N751 N 0.40273 0.06748 0.69711 0.0
C752 C 0.40442 0.05803 0.64327 0.0
C753 C 0.38993 0.04481 0.64815 0.0
H754 H 0.38263 0.05379 0.72583 0.0
H755 H 0.4216 0.07959 0.66416 0.0
C756 C 0.42299 0.14028 0.73687 0.0
N757 N 0.41314 0.12548 0.72733 0.0
C758 C 0.4226 0.15248 0.72072 0.0
C759 C 0.40146 0.13388 0.68657 0.0
C760 C 0.40239 0.12208 0.70303 0.0
C761 C 0.41188 0.14932 0.69485 0.0
H762 H 0.43158 0.14261 0.75593 0.0
H763 H 0.39494 0.11021 0.69553 0.0
O764 O 0.42025 0.0791 0.77109 0.0
O765 O 0.42569 0.11153 0.78708 0.0
O766 O 0.42752 0.10329 0.71329 0.0
O767 O 0.39604 0.08853 0.74804 0.0
H768 H 0.39671 0.05378 0.79663 0.0
H769 H 0.43561 0.07085 0.72977 0.0
H770 H 0.39012 0.02708 0.78231 0.0
H771 H 0.42832 0.04383 0.7165 0.0
H772 H 0.42907 0.14362 0.87144 0.0
H773 H 0.44468 0.10745 0.8267 0.0
H774 H 0.41891 0.13115 0.8163 0.0
H775 H 0.45456 0.12052 0.88135 0.0
H776 H 0.47856 0.09316 0.78147 0.0
H777 H 0.49036 0.13905 0.74954 0.0
H778 H 0.36234 0.04988 0.84691 0.0
H779 H 0.40373 0.07336 0.90715 0.0
H780 H 0.43999 0.13235 0.69304 0.0
H781 H 0.44584 0.09254 0.69446 0.0
H782 H 0.46485 0.14678 0.66274 0.0
H783 H 0.47057 0.10766 0.66402 0.0
H784 H 0.36869 0.07589 0.71906 0.0
H785 H 0.39686 0.10675 0.79732 0.0
H786 H 0.34754 0.08076 0.73553 0.0
H787 H 0.3753 0.11114 0.81238 0.0
H788 H 0.37085 0.0332 0.68313 0.0
H789 H 0.41077 0.05984 0.62013 0.0
H790 H 0.43081 0.16425 0.72781 0.0
H791 H 0.39319 0.13098 0.66642 0.0
Li792 Li 0.33138 0.43287 0.93154 0.0
Li793 Li 0.31863 0.40683 0.95676 0.0
Li794 Li 0.32412 0.41026 0.8979 0.0
Li795 Li 0.30439 0.41425 0.91988 0.0
C796 C 0.35223 0.41982 0.92096 0.0
N797 N 0.37824 0.42247 0.89035 0.0
C798 C 0.3569 0.40906 0.92768 0.0
C799 C 0.36082 0.43196 0.89874 0.0
C800 C 0.37008 0.41059 0.91192 0.0
C801 C 0.37393 0.4331 0.88351 0.0
C802 C 0.31857 0.4309 0.9945 0.0
C803 C 0.31582 0.44421 0.04211 0.0
N804 N 0.32896 0.44559 0.05554 0.0
C805 C 0.33204 0.43246 0.00876 0.0
C806 C 0.31039 0.43683 0.01125 0.0
C807 C 0.3371 0.43992 0.03965 0.0
C808 C 0.3456 0.46495 0.91927 0.0
N809 N 0.34676 0.45394 0.93685 0.0
C810 C 0.37207 0.47244 0.95549 0.0
C811 C 0.35954 0.45743 0.95522 0.0
C812 C 0.37161 0.48394 0.93609 0.0
C813 C 0.35797 0.48011 0.91845 0.0
H814 H 0.33532 0.46181 0.90475 0.0
H815 H 0.3603 0.44843 0.96852 0.0
C816 C 0.32156 0.38324 0.98267 0.0
N817 N 0.31803 0.39406 0.99282 0.0
C818 C 0.32301 0.37367 0.00596 0.0
C819 C 0.31631 0.38595 0.04984 0.0
C820 C 0.31485 0.39523 0.02551 0.0
C821 C 0.32083 0.37526 0.04021 0.0
H822 H 0.32349 0.38222 0.95633 0.0
H823 H 0.3115 0.40353 0.03291 0.0
C824 C 0.31434 0.42651 0.85684 0.0
N825 N 0.30046 0.42412 0.79544 0.0
C826 C 0.30495 0.41202 0.84231 0.0
C827 C 0.31669 0.43978 0.84003 0.0
C828 C 0.29803 0.41106 0.81129 0.0
C829 C 0.30957 0.43833 0.80904 0.0
C830 C 0.29162 0.38298 0.93321 0.0
C831 C 0.28514 0.368 0.92047 0.0
C832 C 0.28452 0.38595 0.96013 0.0
C833 C 0.27162 0.35622 0.93482 0.0
C834 C 0.27101 0.37386 0.9738 0.0
N835 N 0.2649 0.35937 0.96097 0.0
C836 C 0.32639 0.38756 0.86103 0.0
C837 C 0.33822 0.41221 0.83521 0.0
C838 C 0.33029 0.38141 0.83382 0.0
N839 N 0.33032 0.40266 0.86107 0.0
C840 C 0.34235 0.40657 0.80752 0.0
C841 C 0.33829 0.39095 0.80649 0.0
H842 H 0.32011 0.38027 0.88204 0.0
H843 H 0.34126 0.42421 0.83606 0.0
C844 C 0.2838 0.42543 0.90997 0.0
N845 N 0.28534 0.41271 0.90722 0.0
C846 C 0.27191 0.42608 0.89297 0.0
C847 C 0.26313 0.40033 0.87198 0.0
C848 C 0.27506 0.40012 0.88948 0.0
C849 C 0.26178 0.41361 0.87271 0.0
H850 H 0.2924 0.43542 0.9235 0.0
H851 H 0.27677 0.39035 0.88664 0.0
O852 O 0.33917 0.41834 0.93556 0.0
O853 O 0.31347 0.42389 0.96401 0.0
O854 O 0.32091 0.42776 0.88769 0.0
O855 O 0.30494 0.39455 0.91945 0.0
H856 H 0.35046 0.39962 0.94486 0.0
H857 H 0.35724 0.44026 0.89276 0.0
H858 H 0.37381 0.40232 0.91685 0.0
H859 H 0.38062 0.44238 0.86611 0.0
H860 H 0.30961 0.44886 0.05535 0.0
H861 H 0.33843 0.4278 0.99639 0.0
H862 H 0.29997 0.43577 0.00045 0.0
H863 H 0.34748 0.44116 0.05101 0.0
H864 H 0.38219 0.47487 0.97001 0.0
H865 H 0.3571 0.4885 0.90287 0.0
H866 H 0.32602 0.36527 0.99722 0.0
H867 H 0.31444 0.38753 0.07593 0.0
H868 H 0.30283 0.4016 0.85499 0.0
H869 H 0.32388 0.45108 0.85086 0.0
H870 H 0.29067 0.39991 0.7999 0.0
H871 H 0.31127 0.44851 0.79583 0.0
H872 H 0.29052 0.36551 0.89968 0.0
H873 H 0.28933 0.39743 0.97044 0.0
H874 H 0.26648 0.34457 0.92519 0.0
H875 H 0.2654 0.37599 0.99463 0.0
H876 H 0.32683 0.36928 0.8339 0.0
H877 H 0.34875 0.41437 0.78725 0.0
H878 H 0.27128 0.43658 0.89385 0.0
H879 H 0.25548 0.39047 0.8567 0.0
Li880 Li 0.89708 0.33183 0.09295 0.0
Li881 Li 0.90896 0.31783 0.1215 0.0
Li882 Li 0.91266 0.32356 0.06313 0.0
Li883 Li 0.88793 0.30402 0.08123 0.0
C884 C 0.93302 0.3496 0.08986 0.0
N885 N 0.96142 0.37149 0.06507 0.0
C886 C 0.94621 0.34875 0.09753 0.0
C887 C 0.93427 0.36162 0.06979 0.0
C888 C 0.96047 0.35992 0.08469 0.0
C889 C 0.94874 0.37257 0.05745 0.0
C890 C 0.87908 0.31155 0.15263 0.0
C891 C 0.85935 0.2948 0.19167 0.0
N892 N 0.86245 0.30726 0.21089 0.0
C893 C 0.88194 0.3242 0.17256 0.0
C894 C 0.86759 0.29674 0.16204 0.0
C895 C 0.87347 0.32179 0.20202 0.0
C896 C 0.88009 0.34701 0.07968 0.0
N897 N 0.89199 0.34758 0.09732 0.0
C898 C 0.89918 0.37266 0.11815 0.0
C899 C 0.90137 0.35997 0.1166 0.0
C900 C 0.88729 0.37269 0.0994 0.0
C901 C 0.8775 0.35952 0.08039 0.0
H902 H 0.87289 0.33703 0.06436 0.0
H903 H 0.91079 0.36009 0.13024 0.0
C904 C 0.9298 0.31265 0.15891 0.0
N905 N 0.91937 0.31756 0.16133 0.0
C906 C 0.93949 0.31448 0.1858 0.0
C907 C 0.92749 0.32629 0.2174 0.0
C908 C 0.91797 0.32415 0.18992 0.0
C909 C 0.93864 0.32169 0.21527 0.0
H910 H 0.93118 0.30804 0.13549 0.0
H911 H 0.90999 0.32843 0.19091 0.0
C912 C 0.88811 0.31495 0.01776 0.0
N913 N 0.87835 0.30189 0.95505 0.0
C914 C 0.89259 0.30474 0.0052 0.0
C915 C 0.87868 0.31854 0.99841 0.0
C916 C 0.88754 0.29825 0.97345 0.0
C917 C 0.87387 0.31181 0.96676 0.0
C918 C 0.90519 0.29009 0.09762 0.0
C919 C 0.91194 0.28223 0.08283 0.0
C920 C 0.89578 0.28384 0.1258 0.0
C921 C 0.90908 0.26817 0.09643 0.0
C922 C 0.89321 0.26976 0.13867 0.0
N923 N 0.89985 0.26228 0.12383 0.0
C924 C 0.93807 0.32511 0.02894 0.0
C925 C 0.92678 0.33832 0.00246 0.0
C926 C 0.94884 0.32927 0.00308 0.0
N927 N 0.92734 0.32964 0.02804 0.0
C928 C 0.9372 0.34258 0.97594 0.0
C929 C 0.94836 0.33799 0.97602 0.0
H930 H 0.93822 0.31824 0.04973 0.0
H931 H 0.9182 0.34188 0.00266 0.0
C932 C 0.85629 0.28513 0.0682 0.0
N933 N 0.87004 0.28546 0.06781 0.0
C934 C 0.84347 0.27324 0.05195 0.0
C935 C 0.85907 0.26197 0.03654 0.0
C936 C 0.87157 0.27408 0.05288 0.0
C937 C 0.84489 0.26166 0.03515 0.0
H938 H 0.85551 0.29453 0.07961 0.0
H939 H 0.88272 0.27488 0.05159 0.0
O940 O 0.9189 0.33852 0.10135 0.0
O941 O 0.88704 0.31368 0.12336 0.0
O942 O 0.89263 0.32123 0.04909 0.0
O943 O 0.90791 0.30385 0.08439 0.0
H944 H 0.9454 0.33946 0.1129 0.0
H945 H 0.92413 0.36235 0.06344 0.0
H946 H 0.97076 0.35937 0.09023 0.0
H947 H 0.94987 0.38188 0.0417 0.0
H948 H 0.85046 0.2834 0.19932 0.0
H949 H 0.89072 0.33574 0.16554 0.0
H950 H 0.865 0.28684 0.14656 0.0
H951 H 0.87565 0.33147 0.2178 0.0
H952 H 0.90685 0.38244 0.13358 0.0
H953 H 0.8683 0.35909 0.06529 0.0
H954 H 0.94815 0.31108 0.18283 0.0
H955 H 0.92647 0.33189 0.2397 0.0
H956 H 0.89982 0.30174 0.01984 0.0
H957 H 0.87507 0.32639 0.00778 0.0
H958 H 0.89089 0.2903 0.96348 0.0
H959 H 0.86654 0.31447 0.95153 0.0
H960 H 0.91927 0.28693 0.06099 0.0
H961 H 0.89062 0.28983 0.13779 0.0
H962 H 0.9142 0.26194 0.08519 0.0
H963 H 0.88595 0.26481 0.1605 0.0
H964 H 0.95725 0.32546 0.00389 0.0
H965 H 0.93661 0.34949 0.9557 0.0
H966 H 0.83272 0.27339 0.05155 0.0
H967 H 0.86079 0.25349 0.02332 0.0
Li968 Li 0.59042 0.91047 0.2828 0.0
Li969 Li 0.56512 0.89699 0.25786 0.0
Li970 Li 0.58365 0.8887 0.247 0.0
Li971 Li 0.58743 0.91227 0.22312 0.0
C972 C 0.56711 0.88702 0.32144 0.0
N973 N 0.5531 0.88395 0.38291 0.0
C974 C 0.5661 0.89936 0.33506 0.0
C975 C 0.56101 0.87313 0.33909 0.0
C976 C 0.55897 0.89758 0.36616 0.0
C977 C 0.55396 0.8718 0.37013 0.0
C978 C 0.57287 0.92767 0.24673 0.0
C979 C 0.55603 0.93016 0.20711 0.0
N980 N 0.55979 0.94408 0.22071 0.0
C981 C 0.57656 0.94198 0.26033 0.0
C982 C 0.56252 0.92169 0.21991 0.0
C983 C 0.56983 0.95011 0.24682 0.0
C984 C 0.6094 0.93832 0.31202 0.0
N985 N 0.60242 0.92302 0.31909 0.0
C986 C 0.6123 0.9284 0.37507 0.0
C987 C 0.6039 0.91784 0.34964 0.0
C988 C 0.61916 0.94433 0.36875 0.0
C989 C 0.61786 0.94921 0.33653 0.0
H990 H 0.60819 0.94205 0.28731 0.0
H991 H 0.59831 0.90558 0.35448 0.0
C992 C 0.53313 0.87815 0.24632 0.0
N993 N 0.54385 0.89071 0.26344 0.0
C994 C 0.51762 0.87425 0.24682 0.0
C995 C 0.52444 0.89595 0.28359 0.0
C996 C 0.5398 0.89948 0.28219 0.0
C997 C 0.51316 0.88334 0.26532 0.0
H998 H 0.53669 0.87139 0.23163 0.0
H999 H 0.54856 0.90956 0.29513 0.0
C1000 C 0.61499 0.90803 0.26046 0.0
N1001 N 0.63916 0.90622 0.28922 0.0
C1002 C 0.62999 0.91713 0.24825 0.0
C1003 C 0.61227 0.89802 0.28736 0.0
C1004 C 0.64206 0.91604 0.2631 0.0
C1005 C 0.62465 0.89727 0.30154 0.0
C1006 C 0.57169 0.88603 0.18346 0.0
C1007 C 0.58636 0.89076 0.17033 0.0
C1008 C 0.5586 0.87568 0.16534 0.0
C1009 C 0.58767 0.88502 0.13932 0.0
C1010 C 0.56039 0.87021 0.1344 0.0
N1011 N 0.57477 0.87494 0.12215 0.0
C1012 C 0.5721 0.85713 0.23648 0.0
C1013 C 0.59831 0.87285 0.22068 0.0
C1014 C 0.57149 0.84435 0.22079 0.0
N1015 N 0.58527 0.87108 0.23551 0.0
C1016 C 0.59824 0.86038 0.20488 0.0
C1017 C 0.58458 0.84601 0.20394 0.0
H1018 H 0.5618 0.85617 0.24769 0.0
H1019 H 0.60845 0.88414 0.21888 0.0
C1020 C 0.60991 0.93806 0.18879 0.0
N1021 N 0.59528 0.92597 0.18617 0.0
C1022 C 0.61646 0.94855 0.16245 0.0
C1023 C 0.59271 0.93393 0.13127 0.0
C1024 C 0.58661 0.92376 0.15826 0.0
C1025 C 0.60783 0.94651 0.13317 0.0
H1026 H 0.61649 0.93951 0.21139 0.0
H1027 H 0.57496 0.91412 0.15692 0.0
O1028 O 0.574 0.88839 0.29099 0.0
O1029 O 0.5794 0.91962 0.25982 0.0
O1030 O 0.60312 0.90913 0.24624 0.0
O1031 O 0.57007 0.89119 0.21416 0.0
H1032 H 0.57079 0.91023 0.3219 0.0
H1033 H 0.5617 0.86347 0.32887 0.0
H1034 H 0.55812 0.90705 0.37699 0.0
H1035 H 0.54918 0.86111 0.38406 0.0
H1036 H 0.54799 0.92566 0.18638 0.0
H1037 H 0.58453 0.94675 0.28115 0.0
H1038 H 0.55946 0.91061 0.20913 0.0
H1039 H 0.57258 0.9612 0.2571 0.0
H1040 H 0.61301 0.92416 0.39961 0.0
H1041 H 0.62323 0.96136 0.33035 0.0
H1042 H 0.50925 0.86437 0.23259 0.0
H1043 H 0.52155 0.9034 0.29773 0.0
H1044 H 0.63228 0.92496 0.22748 0.0
H1045 H 0.60076 0.89088 0.2972 0.0
H1046 H 0.65373 0.92301 0.25388 0.0
H1047 H 0.62272 0.88957 0.32235 0.0
H1048 H 0.59665 0.89871 0.18396 0.0
H1049 H 0.54716 0.87188 0.17511 0.0
H1050 H 0.59895 0.88855 0.12894 0.0
H1051 H 0.55035 0.86217 0.12015 0.0
H1052 H 0.56075 0.83344 0.22078 0.0
H1053 H 0.60849 0.86227 0.19164 0.0
H1054 H 0.62819 0.95804 0.1648 0.0
H1055 H 0.5856 0.93208 0.10935 0.0
H1056 H 0.34423 0.3687 0.03972 0.0
H1057 H 0.34996 0.35444 0.08121 0.0
H1058 H 0.31104 0.34778 0.14051 0.0
H1059 H 0.30498 0.36189 0.09853 0.0
H1060 H 0.33723 0.35774 0.17807 0.0
H1061 H 0.30892 0.31764 0.09918 0.0
H1062 H 0.30172 0.30547 0.04337 0.0
H1063 H 0.34683 0.31084 0.03185 0.0
H1064 H 0.3544 0.32326 0.0874 0.0
H1065 H 0.35181 0.31206 0.29099 0.0
H1066 H 0.33762 0.31813 0.24961 0.0
H1067 H 0.3733 0.32846 0.17655 0.0
H1068 H 0.38735 0.32195 0.21751 0.0
H1069 H 0.34458 0.31367 0.14815 0.0
H1070 H 0.37379 0.35685 0.22267 0.0
H1071 H 0.38154 0.36951 0.27796 0.0
H1072 H 0.3349 0.35865 0.29692 0.0
H1073 H 0.32684 0.34571 0.24191 0.0
C1074 C 0.33667 0.36397 0.06121 0.0
C1075 C 0.32403 0.36632 0.06558 0.0
C1076 C 0.34 0.35584 0.08498 0.0
C1077 C 0.33079 0.34985 0.11369 0.0
C1078 C 0.31824 0.35225 0.11842 0.0
C1079 C 0.31485 0.36037 0.0945 0.0
C1080 C 0.33484 0.34171 0.13927 0.0
C1081 C 0.33848 0.34787 0.17176 0.0
C1082 C 0.33677 0.32903 0.1308 0.0
C1083 C 0.33226 0.32148 0.09741 0.0
C1084 C 0.31735 0.31633 0.08466 0.0
C1085 C 0.3132 0.30937 0.05307 0.0
C1086 C 0.32382 0.3074 0.03405 0.0
C1087 C 0.33862 0.31237 0.04661 0.0
C1088 C 0.34283 0.31936 0.07817 0.0
C1089 C 0.35645 0.31522 0.26586 0.0
C1090 C 0.37078 0.31663 0.25759 0.0
C1091 C 0.34838 0.31882 0.24234 0.0
C1092 C 0.35453 0.32398 0.2102 0.0
C1093 C 0.36838 0.32456 0.20127 0.0
C1094 C 0.37646 0.32096 0.22476 0.0
C1095 C 0.34721 0.32988 0.18668 0.0
C1096 C 0.34302 0.32334 0.15459 0.0
C1097 C 0.34482 0.34225 0.19545 0.0
C1098 C 0.34968 0.35015 0.22837 0.0
C1099 C 0.36517 0.35706 0.23875 0.0
C1100 C 0.36962 0.3643 0.27001 0.0
C1101 C 0.35871 0.36484 0.29099 0.0
C1102 C 0.34333 0.35819 0.28068 0.0
C1103 C 0.33882 0.3509 0.24946 0.0
H1104 H 0.36218 0.37045 0.31519 0.0
H1105 H 0.32058 0.30201 0.0096 0.0
H1106 H 0.05273 0.39367 0.40851 0.0
H1107 H 0.0313 0.38145 0.36888 0.0
H1108 H 0.02611 0.33695 0.39147 0.0
H1109 H 0.04765 0.34915 0.43141 0.0
H1110 H 0.02341 0.3432 0.31986 0.0
H1111 H 0.00296 0.3437 0.42873 0.0
H1112 H 0.00189 0.35582 0.48175 0.0
H1113 H 0.99309 0.38763 0.42721 0.0
H1114 H 0.99436 0.37586 0.37379 0.0
H1115 H 0.94936 0.30357 0.24204 0.0
H1116 H 0.97013 0.31115 0.28317 0.0
H1117 H 0.97524 0.35655 0.28933 0.0
H1118 H 0.95444 0.34899 0.24874 0.0
H1119 H 0.9773 0.34718 0.3494 0.0
H1120 H 0.99958 0.34883 0.24129 0.0
H1121 H 0.00179 0.33826 0.187 0.0
H1122 H 0.00809 0.30403 0.23812 0.0
H1123 H 0.0057 0.31427 0.29274 0.0
C1124 C 0.04729 0.38134 0.40448 0.0
C1125 C 0.05187 0.37235 0.42301 0.0
C1126 C 0.03498 0.37437 0.38203 0.0
C1127 C 0.02708 0.35831 0.37755 0.0
C1128 C 0.03208 0.34936 0.39469 0.0
C1129 C 0.04432 0.35632 0.41751 0.0
C1130 C 0.01301 0.35093 0.3566 0.0
C1131 C 0.0132 0.3438 0.32649 0.0
C1132 C -0.00014 0.35201 0.36513 0.0
C1133 C 0.99889 0.35898 0.39724 0.0
C1134 C 0.00092 0.35336 0.42802 0.0
C1135 C 0.00026 0.36016 0.45815 0.0
C1136 C 0.99746 0.37251 0.45785 0.0
C1137 C 0.99527 0.37807 0.42741 0.0
C1138 C 0.99595 0.37133 0.39719 0.0
C1139 C 0.95488 0.31514 0.25235 0.0
C1140 C 0.95027 0.32568 0.24219 0.0
C1141 C 0.96676 0.31947 0.27575 0.0
C1142 C 0.9744 0.3345 0.28899 0.0
C1143 C 0.96951 0.34489 0.27953 0.0
C1144 C 0.95757 0.34053 0.2564 0.0
C1145 C 0.98771 0.33964 0.31212 0.0
C1146 C 0.9874 0.34638 0.34278 0.0
C1147 C 0.0008 0.33833 0.30387 0.0
C1148 C 0.00228 0.33219 0.27107 0.0
C1149 C 0.00131 0.33897 0.24094 0.0
C1150 C 0.00262 0.33305 0.21012 0.0
C1151 C 0.00503 0.32045 0.20911 0.0
C1152 C 0.00619 0.31377 0.23894 0.0
C1153 C 0.00487 0.31963 0.26983 0.0
H1154 H 0.00604 0.31589 0.18522 0.0
H1155 H 0.99696 0.37776 0.4812 0.0
H1156 H 0.63953 0.94509 0.41608 0.0
H1157 H 0.65314 0.9649 0.45913 0.0
H1158 H 0.63031 0.98933 0.42501 0.0
H1159 H 0.61677 0.96971 0.38226 0.0
H1160 H 0.66042 0.00876 0.43376 0.0
H1161 H 0.61899 0.96714 0.49629 0.0
H1162 H 0.60393 0.94052 0.51774 0.0
H1163 H 0.64435 0.94523 0.56647 0.0
H1164 H 0.65971 0.97184 0.54492 0.0
H1165 H 0.66015 0.05447 0.56722 0.0
H1166 H 0.65405 0.03509 0.52397 0.0
H1167 H 0.68504 0.02224 0.56979 0.0
H1168 H 0.69177 0.04211 0.61273 0.0
H1169 H 0.65542 0.99699 0.55549 0.0
H1170 H 0.69582 0.04025 0.49904 0.0
H1171 H 0.71026 0.06704 0.47841 0.0
H1172 H 0.67136 0.0594 0.41862 0.0
H1173 H 0.65658 0.03261 0.43928 0.0
C1174 C 0.63735 0.95464 0.41799 0.0
C1175 C 0.62716 0.9559 0.39563 0.0
C1176 C 0.64515 0.96595 0.44252 0.0
C1177 C 0.64275 0.9786 0.44526 0.0
C1178 C 0.63247 0.97976 0.42315 0.0
C1179 C 0.62475 0.96854 0.39868 0.0
C1180 C 0.65082 0.99076 0.471 0.0
C1181 C 0.65927 0.00618 0.46039 0.0
C1182 C 0.64975 0.98737 0.50569 0.0
C1183 C 0.64053 0.97139 0.51864 0.0
C1184 C 0.62469 0.96245 0.51133 0.0
C1185 C 0.6161 0.94737 0.52356 0.0
C1186 C 0.62319 0.94117 0.54336 0.0
C1187 C 0.63888 0.95004 0.55106 0.0
C1188 C 0.64754 0.96512 0.53886 0.0
C1189 C 0.66602 0.04785 0.56779 0.0
C1190 C 0.67653 0.04997 0.59353 0.0
C1191 C 0.66241 0.03667 0.5431 0.0
C1192 C 0.66915 0.02729 0.54362 0.0
C1193 C 0.67971 0.02937 0.56903 0.0
C1194 C 0.68347 0.04069 0.59361 0.0
C1195 C 0.66457 0.01497 0.5182 0.0
C1196 C 0.65681 0.99953 0.52885 0.0
C1197 C 0.6662 0.01834 0.48352 0.0
C1198 C 0.67505 0.03444 0.4709 0.0
C1199 C 0.69029 0.04431 0.4817 0.0
C1200 C 0.69855 0.05949 0.46996 0.0
C1201 C 0.69172 0.06493 0.44727 0.0
C1202 C 0.67663 0.05517 0.43621 0.0
C1203 C 0.66832 0.03998 0.44789 0.0
H1204 H 0.69814 0.07669 0.43821 0.0
H1205 H 0.61651 0.9295 0.55281 0.0
H1206 H 0.69307 0.64019 0.58466 0.0
H1207 H 0.68678 0.65433 0.62602 0.0
H1208 H 0.64047 0.63353 0.58691 0.0
H1209 H 0.64637 0.61893 0.54655 0.0
H1210 H 0.65473 0.66592 0.59675 0.0
H1211 H 0.64603 0.61971 0.65563 0.0
H1212 H 0.65388 0.60161 0.67755 0.0
H1213 H 0.68979 0.63808 0.73548 0.0
H1214 H 0.68227 0.65646 0.7135 0.0
H1215 H 0.60734 0.67165 0.71943 0.0
H1216 H 0.6205 0.66491 0.67697 0.0
H1217 H 0.66071 0.68239 0.74052 0.0
H1218 H 0.6473 0.68843 0.78389 0.0
H1219 H 0.65379 0.65528 0.71848 0.0
H1220 H 0.66078 0.70091 0.66628 0.0
H1221 H 0.65362 0.71955 0.64456 0.0
H1222 H 0.62251 0.68582 0.57422 0.0
H1223 H 0.62931 0.66688 0.59583 0.0
C1224 C 0.68149 0.63848 0.58507 0.0
C1225 C 0.67025 0.62843 0.5621 0.0
C1226 C 0.67797 0.64667 0.60856 0.0
C1227 C 0.66318 0.64501 0.60936 0.0
C1228 C 0.652 0.63509 0.58643 0.0
C1229 C 0.65544 0.6268 0.56326 0.0
C1230 C 0.65908 0.65322 0.63458 0.0
C1231 C 0.65445 0.66359 0.62339 0.0
C1232 C 0.65924 0.65054 0.66933 0.0
C1233 C 0.66372 0.63949 0.6826 0.0
C1234 C 0.65569 0.6239 0.6728 0.0
C1235 C 0.66006 0.61358 0.68528 0.0
C1236 C 0.67236 0.6187 0.70781 0.0
C1237 C 0.68028 0.63414 0.71797 0.0
C1238 C 0.67597 0.64451 0.70552 0.0
C1239 C 0.61902 0.67414 0.72434 0.0
C1240 C 0.62621 0.68051 0.75519 0.0
C1241 C 0.62662 0.67045 0.69983 0.0
C1242 C 0.64168 0.67326 0.70537 0.0
C1243 C 0.64911 0.68015 0.73562 0.0
C1244 C 0.64147 0.68374 0.76028 0.0
C1245 C 0.64908 0.66782 0.68073 0.0
C1246 C 0.65432 0.65793 0.69197 0.0
C1247 C 0.64962 0.67108 0.64603 0.0
C1248 C 0.64549 0.68243 0.63286 0.0
C1249 C 0.65233 0.69742 0.64635 0.0
C1250 C 0.64835 0.70805 0.63402 0.0
C1251 C 0.6376 0.70386 0.60807 0.0
C1252 C 0.63083 0.68904 0.59433 0.0
C1253 C 0.63476 0.67836 0.60658 0.0
H1254 H 0.63454 0.71211 0.59856 0.0
H1255 H 0.67572 0.6107 0.71746 0.0
H1256 H 0.04767 0.69368 0.74062 0.0
H1257 H 0.02652 0.68551 0.7811 0.0
H1258 H 0.01959 0.63934 0.77994 0.0
H1259 H 0.04035 0.64728 0.73911 0.0
H1260 H 0.99261 0.63938 0.7732 0.0
H1261 H 0.03762 0.66347 0.84507 0.0
H1262 H 0.06263 0.68489 0.86439 0.0
H1263 H 0.04191 0.71295 0.8812 0.0
H1264 H 0.01681 0.69175 0.86154 0.0
H1265 H 0.94947 0.60287 0.91722 0.0
H1266 H 0.96899 0.61491 0.87361 0.0
H1267 H 0.97064 0.6583 0.89053 0.0
H1268 H 0.95097 0.64627 0.9344 0.0
H1269 H 0.99919 0.66223 0.88665 0.0
H1270 H 0.95362 0.63742 0.82021 0.0
H1271 H 0.92852 0.61609 0.80112 0.0
H1272 H 0.94998 0.58973 0.77342 0.0
H1273 H 0.97518 0.61081 0.79279 0.0
C1274 C 0.04163 0.6818 0.74905 0.0
C1275 C 0.04575 0.67116 0.73681 0.0
C1276 C 0.02962 0.67717 0.77228 0.0
C1277 C 0.02154 0.66183 0.78361 0.0
C1278 C 0.02568 0.65124 0.77153 0.0
C1279 C 0.03767 0.65585 0.74846 0.0
C1280 C 0.00853 0.65658 0.80759 0.0
C1281 C 0.99407 0.6443 0.7981 0.0
C1282 C 0.01031 0.66337 0.83961 0.0
C1283 C 0.02539 0.6761 0.85146 0.0
C1284 C 0.03843 0.67426 0.8526 0.0
C1285 C 0.05262 0.68635 0.86367 0.0
C1286 C 0.05387 0.70029 0.87391 0.0
C1287 C 0.04093 0.70216 0.87319 0.0
C1288 C 0.02672 0.69011 0.86211 0.0
C1289 C 0.95375 0.61491 0.91128 0.0
C1290 C 0.94856 0.62358 0.92912 0.0
C1291 C 0.96495 0.62179 0.88637 0.0
C1292 C 0.97114 0.63747 0.87849 0.0
C1293 C 0.966 0.64618 0.89618 0.0
C1294 C 0.95478 0.6393 0.92124 0.0
C1295 C 0.98335 0.64474 0.85256 0.0
C1296 C 0.99766 0.65743 0.86161 0.0
C1297 C 0.98142 0.63836 0.82003 0.0
C1298 C 0.96628 0.62566 0.80818 0.0
C1299 C 0.95298 0.62703 0.81027 0.0
C1300 C 0.93873 0.61499 0.79936 0.0
C1301 C 0.93765 0.60155 0.78612 0.0
C1302 C 0.95083 0.60014 0.78369 0.0
C1303 C 0.9651 0.61214 0.79459 0.0
H1304 H 0.92661 0.59224 0.77769 0.0
H1305 H 0.06486 0.70964 0.88248 0.0
H1306 H 0.39499 0.04665 0.91758 0.0
H1307 H 0.38231 0.02492 0.95602 0.0
H1308 H 0.33906 0.02383 0.94122 0.0
H1309 H 0.35183 0.04605 0.90333 0.0
H1310 H 0.34358 0.01856 0.00739 0.0
H1311 H 0.34555 0.99916 0.89903 0.0
H1312 H 0.35801 0.99808 0.84655 0.0
H1313 H 0.3881 0.98725 0.9023 0.0
H1314 H 0.37599 0.98852 0.95519 0.0
H1315 H 0.30159 0.94335 0.08018 0.0
H1316 H 0.31016 0.96439 0.03938 0.0
H1317 H 0.35609 0.97072 0.04181 0.0
H1318 H 0.3477 0.94989 0.0826 0.0
H1319 H 0.34743 0.97232 0.97855 0.0
H1320 H 0.34702 0.99386 0.08678 0.0
H1321 H 0.33505 0.99541 0.13961 0.0
H1322 H 0.30218 0.0023 0.08419 0.0
H1323 H 0.31382 0.00056 0.03097 0.0
C1324 C 0.38287 0.04209 0.92306 0.0
C1325 C 0.37442 0.0481 0.90729 0.0
C1326 C 0.37559 0.02953 0.94478 0.0
C1327 C 0.3597 0.0226 0.95097 0.0
C1328 C 0.35133 0.02896 0.93656 0.0
C1329 C 0.35862 0.04158 0.91479 0.0
C1330 C 0.35182 0.00832 0.97137 0.0
C1331 C 0.34417 0.00835 0.00082 0.0
C1332 C 0.35277 0.99507 0.96293 0.0
C1333 C 0.35993 0.99405 0.93111 0.0
C1334 C 0.35489 0.99665 0.90012 0.0
C1335 C 0.36188 0.99599 0.8703 0.0
C1336 C 0.37386 0.99263 0.87109 0.0
C1337 C 0.37883 0.98987 0.90172 0.0
C1338 C 0.37189 0.99054 0.93163 0.0
C1339 C 0.3135 0.9492 0.07189 0.0
C1340 C 0.32395 0.94492 0.08456 0.0
C1341 C 0.31837 0.9612 0.0486 0.0
C1342 C 0.3338 0.96921 0.03781 0.0
C1343 C 0.34412 0.96466 0.04969 0.0
C1344 C 0.33927 0.95268 0.07288 0.0
C1345 C 0.33945 0.98266 0.01497 0.0
C1346 C 0.34667 0.98247 0.98496 0.0
C1347 C 0.3381 0.99574 0.02294 0.0
C1348 C 0.33118 0.9969 0.05491 0.0
C1349 C 0.33717 0.99559 0.08586 0.0
C1350 C 0.33045 0.99652 0.11587 0.0
C1351 C 0.31783 0.99891 0.11526 0.0
C1352 C 0.31193 0.00042 0.08462 0.0
C1353 C 0.31859 0.99947 0.05453 0.0
H1354 H 0.31265 0.99963 0.13852 0.0
H1355 H 0.37927 0.99214 0.84798 0.0
H1356 H 0.61733 0.49144 0.46555 0.0
H1357 H 0.59361 0.46639 0.46028 0.0
H1358 H 0.58572 0.47921 0.36211 0.0
H1359 H 0.60916 0.50433 0.36748 0.0
H1360 H 0.55999 0.46713 0.40097 0.0
H1361 H 0.59868 0.454 0.37055 0.0
H1362 H 0.62234 0.45253 0.37904 0.0
H1363 H 0.60283 0.42535 0.46784 0.0
H1364 H 0.57913 0.42683 0.46013 0.0
H1365 H 0.49929 0.39596 0.34587 0.0
H1366 H 0.52467 0.41924 0.34997 0.0
H1367 H 0.53251 0.40339 0.44465 0.0
H1368 H 0.50724 0.3799 0.44023 0.0
H1369 H 0.55842 0.41687 0.40923 0.0
H1370 H 0.52014 0.42983 0.44108 0.0
H1371 H 0.49641 0.43134 0.43461 0.0
H1372 H 0.51508 0.45912 0.34626 0.0
H1373 H 0.53884 0.45759 0.35192 0.0
C1374 C 0.61052 0.48891 0.44288 0.0
C1375 C 0.61514 0.49983 0.41687 0.0
C1376 C 0.59705 0.47456 0.43979 0.0
C1377 C 0.58799 0.4709 0.41067 0.0
C1378 C 0.59258 0.48178 0.38473 0.0
C1379 C 0.60605 0.49608 0.38773 0.0
C1380 C 0.57344 0.45594 0.40752 0.0
C1381 C 0.55967 0.45614 0.40232 0.0
C1382 C 0.57298 0.44161 0.41037 0.0
C1383 C 0.58719 0.44066 0.41494 0.0
C1384 C 0.59949 0.44781 0.39204 0.0
C1385 C 0.61289 0.44696 0.39668 0.0
C1386 C 0.6141 0.43889 0.42401 0.0
C1387 C 0.60189 0.43161 0.44671 0.0
C1388 C 0.58846 0.43245 0.4422 0.0
C1389 C 0.5065 0.39741 0.3674 0.0
C1390 C 0.50128 0.38621 0.39284 0.0
C1391 C 0.52097 0.41071 0.36979 0.0
C1392 C 0.53036 0.41321 0.39797 0.0
C1393 C 0.52544 0.40173 0.42273 0.0
C1394 C 0.51103 0.38832 0.42016 0.0
C1395 C 0.54499 0.42807 0.40224 0.0
C1396 C 0.55874 0.42785 0.40783 0.0
C1397 C 0.54544 0.44242 0.40008 0.0
C1398 C 0.53121 0.44347 0.39676 0.0
C1399 C 0.51914 0.43617 0.42014 0.0
C1400 C 0.50569 0.43704 0.41664 0.0
C1401 C 0.50422 0.44529 0.39 0.0
C1402 C 0.51622 0.45272 0.36686 0.0
C1403 C 0.52969 0.45186 0.37022 0.0
H1404 H 0.4938 0.44595 0.38732 0.0
H1405 H 0.62449 0.43824 0.42757 0.0
H1406 H 0.13667 0.51059 0.58377 0.0
H1407 H 0.13844 0.53586 0.58724 0.0
H1408 H 0.09232 0.51624 0.54729 0.0
H1409 H 0.09048 0.49101 0.54375 0.0
H1410 H 0.1111 0.54387 0.51976 0.0
H1411 H 0.09933 0.52236 0.63135 0.0
H1412 H 0.10359 0.51114 0.6825 0.0
H1413 H 0.14763 0.55201 0.69686 0.0
H1414 H 0.14372 0.5634 0.64549 0.0
H1415 H 0.0875 0.596 0.5714 0.0
H1416 H 0.09046 0.57338 0.56468 0.0
H1417 H 0.13689 0.59901 0.60332 0.0
H1418 H 0.13385 0.62167 0.61105 0.0
H1419 H 0.12085 0.57003 0.63019 0.0
H1420 H 0.13128 0.59242 0.52067 0.0
H1421 H 0.12639 0.6035 0.47009 0.0
H1422 H 0.0844 0.56086 0.45209 0.0
H1423 H 0.08891 0.54959 0.50286 0.0
C1424 C 0.12692 0.51168 0.57571 0.0
C1425 C 0.11342 0.4988 0.56358 0.0
C1426 C 0.12795 0.52612 0.57768 0.0
C1427 C 0.11544 0.52789 0.5679 0.0
C1428 C 0.10213 0.51515 0.55491 0.0
C1429 C 0.10111 0.50074 0.5528 0.0
C1430 C 0.11595 0.54287 0.57203 0.0
C1431 C 0.11312 0.54954 0.54395 0.0
C1432 C 0.11898 0.55045 0.60343 0.0
C1433 C 0.12131 0.54365 0.63439 0.0
C1434 C 0.10997 0.52891 0.64528 0.0
C1435 C 0.11231 0.52252 0.67432 0.0
C1436 C 0.12589 0.53083 0.69286 0.0
C1437 C 0.13713 0.54557 0.68244 0.0
C1438 C 0.13486 0.552 0.65337 0.0
C1439 C 0.09829 0.5968 0.57887 0.0
C1440 C 0.11044 0.61063 0.59185 0.0
C1441 C 0.10002 0.58391 0.57465 0.0
C1442 C 0.11396 0.58459 0.58306 0.0
C1443 C 0.12606 0.59828 0.5965 0.0
C1444 C 0.12434 0.61123 0.6007 0.0
C1445 C 0.11575 0.57089 0.57803 0.0
C1446 C 0.11902 0.56447 0.60593 0.0
C1447 C 0.11307 0.5635 0.54647 0.0
C1448 C 0.11038 0.57019 0.51573 0.0
C1449 C 0.12094 0.58543 0.50606 0.0
C1450 C 0.11825 0.59175 0.47733 0.0
C1451 C 0.10508 0.5829 0.45792 0.0
C1452 C 0.09459 0.5677 0.46716 0.0
C1453 C 0.09722 0.56134 0.49589 0.0
H1454 H 0.10301 0.58781 0.43569 0.0
H1455 H 0.12768 0.52587 0.71535 0.0
H1456 H 0.5048 0.12829 0.71017 0.0
H1457 H 0.53071 0.13189 0.70171 0.0
H1458 H 0.53081 0.1174 0.80352 0.0
H1459 H 0.50475 0.11347 0.81187 0.0
H1460 H 0.56004 0.14515 0.77763 0.0
H1461 H 0.52186 0.09166 0.75268 0.0
H1462 H 0.49877 0.07162 0.72345 0.0
H1463 H 0.52059 0.08945 0.62833 0.0
H1464 H 0.54372 0.10977 0.65704 0.0
H1465 H 0.61692 0.12335 0.7819 0.0
H1466 H 0.5941 0.12612 0.78653 0.0
H1467 H 0.58947 0.12384 0.67869 0.0
H1468 H 0.61199 0.12036 0.67421 0.0
H1469 H 0.56297 0.10673 0.70386 0.0
H1470 H 0.60195 0.15846 0.72592 0.0
H1471 H 0.62513 0.17967 0.75248 0.0
H1472 H 0.60275 0.16739 0.84851 0.0
H1473 H 0.5795 0.14597 0.82261 0.0
C1474 C 0.5105 0.12616 0.73088 0.0
C1475 C 0.50286 0.12062 0.76166 0.0
C1476 C 0.52522 0.12817 0.726 0.0
C1477 C 0.53259 0.12489 0.752 0.0
C1478 C 0.52528 0.12004 0.78325 0.0
C1479 C 0.51044 0.11775 0.78794 0.0
C1480 C 0.54738 0.12536 0.74586 0.0
C1481 C 0.56075 0.13673 0.76173 0.0
C1482 C 0.54826 0.11465 0.72421 0.0
C1483 C 0.53443 0.10234 0.70698 0.0
C1484 C 0.52167 0.0914 0.72553 0.0
C1485 C 0.50859 0.07997 0.70906 0.0
C1486 C 0.50819 0.07929 0.67405 0.0
C1487 C 0.5209 0.09001 0.65544 0.0
C1488 C 0.534 0.10148 0.6718 0.0
C1489 C 0.61115 0.12367 0.75918 0.0
C1490 C 0.61624 0.12174 0.72768 0.0
C1491 C 0.59814 0.12532 0.76181 0.0
C1492 C 0.59018 0.12549 0.73292 0.0
C1493 C 0.59541 0.12379 0.70135 0.0
C1494 C 0.60827 0.12183 0.69877 0.0
C1495 C 0.57588 0.1265 0.73592 0.0
C1496 C 0.56249 0.11536 0.71948 0.0
C1497 C 0.57507 0.13762 0.75662 0.0
C1498 C 0.58902 0.15053 0.77233 0.0
C1499 C 0.60201 0.16021 0.75274 0.0
C1500 C 0.61516 0.17228 0.76767 0.0
C1501 C 0.61543 0.17485 0.80217 0.0
C1502 C 0.60253 0.16538 0.8218 0.0
C1503 C 0.58935 0.15328 0.80699 0.0
H1504 H 0.62562 0.1842 0.81369 0.0
H1505 H 0.49806 0.07043 0.66134 0.0
H1506 H 0.48872 0.62309 0.88933 0.0
H1507 H 0.46278 0.60051 0.89311 0.0
H1508 H 0.48233 0.5722 0.92046 0.0
H1509 H 0.50815 0.59468 0.91848 0.0
H1510 H 0.45939 0.56002 0.86755 0.0
H1511 H 0.46798 0.58236 0.97932 0.0
H1512 H 0.47386 0.60343 0.01924 0.0
H1513 H 0.43445 0.60577 0.98447 0.0
H1514 H 0.42847 0.58485 0.94396 0.0
H1515 H 0.40163 0.49066 0.93214 0.0
H1516 H 0.42461 0.51568 0.92436 0.0
H1517 H 0.39667 0.53738 0.92106 0.0
H1518 H 0.37349 0.51232 0.93092 0.0
H1519 H 0.42209 0.55466 0.95597 0.0
H1520 H 0.41143 0.531 0.84877 0.0
H1521 H 0.40513 0.51044 0.80721 0.0
H1522 H 0.44758 0.51136 0.82949 0.0
H1523 H 0.45404 0.53178 0.87156 0.0
C1524 C 0.48753 0.61212 0.89654 0.0
C1525 C 0.50062 0.61076 0.90346 0.0
C1526 C 0.47269 0.59922 0.89846 0.0
C1527 C 0.4707 0.58473 0.90698 0.0
C1528 C 0.48367 0.58328 0.91356 0.0
C1529 C 0.49845 0.59617 0.91215 0.0
C1530 C 0.45513 0.57097 0.90935 0.0
C1531 C 0.45124 0.55878 0.88695 0.0
C1532 C 0.44434 0.56967 0.9339 0.0
C1533 C 0.4479 0.58218 0.95833 0.0
C1534 C 0.46066 0.58747 0.97996 0.0
C1535 C 0.46399 0.59936 0.00274 0.0
C1536 C 0.45457 0.60597 0.00431 0.0
C1537 C 0.44176 0.60066 0.98317 0.0
C1538 C 0.43839 0.58879 0.96031 0.0
C1539 C 0.4003 0.50074 0.93046 0.0
C1540 C 0.38564 0.49941 0.93229 0.0
C1541 C 0.41349 0.51505 0.92544 0.0
C1542 C 0.41235 0.52838 0.92138 0.0
C1543 C 0.39781 0.52722 0.92383 0.0
C1544 C 0.38456 0.51287 0.9292 0.0
C1545 C 0.42645 0.54343 0.91469 0.0
C1546 C 0.43009 0.55592 0.93619 0.0
C1547 C 0.43694 0.5451 0.88894 0.0
C1548 C 0.43317 0.53287 0.8635 0.0
C1549 C 0.41937 0.52675 0.84497 0.0
C1550 C 0.41578 0.51513 0.8213 0.0
C1551 C 0.42593 0.50958 0.81575 0.0
C1552 C 0.43972 0.51567 0.83382 0.0
C1553 C 0.44337 0.52729 0.85756 0.0
H1554 H 0.42313 0.50058 0.79741 0.0
H1555 H 0.45716 0.61517 0.02197 0.0
H1556 H 0.8606 0.37421 0.09992 0.0
H1557 H 0.85821 0.39742 0.09784 0.0
H1558 H 0.90781 0.42584 0.0949 0.0
H1559 H 0.91029 0.40281 0.09652 0.0
H1560 H 0.89512 0.43667 0.13958 0.0
H1561 H 0.88634 0.41892 0.02458 0.0
H1562 H 0.87315 0.39999 0.97934 0.0
H1563 H 0.83026 0.39746 0.00515 0.0
H1564 H 0.84317 0.41624 0.05087 0.0
H1565 H 0.90935 0.50879 0.0835 0.0
H1566 H 0.90725 0.48354 0.08806 0.0
H1567 H 0.85758 0.46173 0.08661 0.0
H1568 H 0.85959 0.48705 0.08055 0.0
H1569 H 0.86736 0.4462 0.04796 0.0
H1570 H 0.87652 0.46559 0.15995 0.0
H1571 H 0.8897 0.48462 0.205 0.0
H1572 H 0.93157 0.48392 0.18561 0.0
H1573 H 0.91871 0.46504 0.14009 0.0
C1574 C 0.87099 0.3854 0.0986 0.0
C1575 C 0.88564 0.38665 0.09854 0.0
C1576 C 0.8696 0.39864 0.09747 0.0
C1577 C 0.88284 0.41335 0.0961 0.0
C1578 C 0.89745 0.41461 0.09618 0.0
C1579 C 0.89884 0.40142 0.09726 0.0
C1580 C 0.88164 0.42752 0.09462 0.0
C1581 C 0.88915 0.43881 0.11942 0.0
C1582 C 0.87343 0.43009 0.0689 0.0
C1583 C 0.86568 0.41884 0.04138 0.0
C1584 C 0.87407 0.41423 0.02079 0.0
C1585 C 0.86665 0.40355 0.99503 0.0
C1586 C 0.85087 0.39749 0.98944 0.0
C1587 C 0.84248 0.40214 0.00955 0.0
C1588 C 0.84984 0.41281 0.03537 0.0
C1589 C 0.89796 0.49864 0.08364 0.0
C1590 C 0.88463 0.49997 0.0816 0.0
C1591 C 0.89678 0.4842 0.08668 0.0
C1592 C 0.88225 0.47076 0.08825 0.0
C1593 C 0.8689 0.47197 0.08568 0.0
C1594 C 0.87007 0.48645 0.08248 0.0
C1595 C 0.88115 0.4555 0.09252 0.0
C1596 C 0.87318 0.444 0.06835 0.0
C1597 C 0.88891 0.4527 0.11889 0.0
C1598 C 0.89667 0.46397 0.14644 0.0
C1599 C 0.88857 0.46957 0.16514 0.0
C1600 C 0.89598 0.48032 0.19078 0.0
C1601 C 0.91147 0.4855 0.19812 0.0
C1602 C 0.91957 0.4799 0.17988 0.0
C1603 C 0.91222 0.46916 0.15419 0.0
H1604 H 0.91719 0.49383 0.21798 0.0
H1605 H 0.84514 0.38922 0.96948 0.0
H1606 H 0.38671 0.87957 0.18964 0.0
H1607 H 0.40965 0.87693 0.19558 0.0
H1608 H 0.40819 0.88149 0.30289 0.0
H1609 H 0.38544 0.88441 0.29711 0.0
H1610 H 0.43687 0.90029 0.27726 0.0
H1611 H 0.39778 0.84692 0.269 0.0
H1612 H 0.37555 0.82422 0.24359 0.0
H1613 H 0.402 0.82996 0.15447 0.0
H1614 H 0.42434 0.85285 0.17917 0.0
H1615 H 0.49548 0.88356 0.31741 0.0
H1616 H 0.47 0.8813 0.31431 0.0
H1617 H 0.46918 0.87447 0.20732 0.0
H1618 H 0.49458 0.87657 0.21033 0.0
H1619 H 0.44119 0.8561 0.2339 0.0
H1620 H 0.4796 0.9098 0.23992 0.0
H1621 H 0.50199 0.93287 0.26382 0.0
H1622 H 0.4769 0.92705 0.35516 0.0
H1623 H 0.45443 0.9038 0.33196 0.0
C1624 C 0.39127 0.87998 0.21449 0.0
C1625 C 0.38426 0.88218 0.24291 0.0
C1626 C 0.4043 0.87835 0.21787 0.0
C1627 C 0.41055 0.8789 0.24971 0.0
C1628 C 0.40351 0.88097 0.27811 0.0
C1629 C 0.39045 0.88252 0.27478 0.0
C1630 C 0.42485 0.87804 0.2533 0.0
C1631 C 0.43774 0.89051 0.26828 0.0
C1632 C 0.42609 0.86547 0.24071 0.0
C1633 C 0.41269 0.85169 0.22583 0.0
C1634 C 0.39882 0.84343 0.24387 0.0
C1635 C 0.38621 0.83051 0.22962 0.0
C1636 C 0.38735 0.82567 0.1974 0.0
C1637 C 0.40113 0.83373 0.17941 0.0
C1638 C 0.41377 0.84667 0.19354 0.0
C1639 C 0.48982 0.88148 0.29327 0.0
C1640 C 0.49707 0.88036 0.26408 0.0
C1641 C 0.47527 0.88019 0.29152 0.0
C1642 C 0.46781 0.87799 0.26049 0.0
C1643 C 0.47473 0.87619 0.23152 0.0
C1644 C 0.48923 0.87736 0.23329 0.0
C1645 C 0.45318 0.87834 0.25798 0.0
C1646 C 0.44027 0.86582 0.24308 0.0
C1647 C 0.45193 0.89093 0.2704 0.0
C1648 C 0.46539 0.90497 0.28433 0.0
C1649 C 0.4789 0.91338 0.26519 0.0
C1650 C 0.4916 0.92649 0.2786 0.0
C1651 C 0.49088 0.9314 0.31103 0.0
C1652 C 0.47745 0.92322 0.33007 0.0
C1653 C 0.46472 0.91008 0.3168 0.0
H1654 H 0.50073 0.94156 0.32136 0.0
H1655 H 0.37758 0.81567 0.18641 0.0
H1656 H 0.34931 0.37083 0.80608 0.0
H1657 H 0.35652 0.36096 0.75737 0.0
H1658 H 0.34409 0.38729 0.69173 0.0
H1659 H 0.33637 0.39681 0.74025 0.0
H1660 H 0.33411 0.35845 0.66748 0.0
H1661 H 0.38137 0.40038 0.71092 0.0
H1662 H 0.4008 0.41489 0.7545 0.0
H1663 H 0.40804 0.37645 0.76918 0.0
H1664 H 0.38848 0.36162 0.726 0.0
H1665 H 0.37544 0.35763 0.52208 0.0
H1666 H 0.36509 0.36484 0.57004 0.0
H1667 H 0.37823 0.33916 0.63599 0.0
H1668 H 0.38854 0.33189 0.58825 0.0
H1669 H 0.3875 0.36741 0.66009 0.0
H1670 H 0.34061 0.32562 0.61567 0.0
H1671 H 0.32117 0.31113 0.57212 0.0
H1672 H 0.31326 0.34923 0.559 0.0
H1673 H 0.33283 0.36404 0.60216 0.0
C1674 C 0.34793 0.37437 0.78126 0.0
C1675 C 0.34237 0.38468 0.77701 0.0
C1676 C 0.35217 0.36882 0.75349 0.0
C1677 C 0.35101 0.37356 0.72101 0.0
C1678 C 0.34512 0.38354 0.71661 0.0
C1679 C 0.34086 0.38909 0.74436 0.0
C1680 C 0.35631 0.3684 0.69166 0.0
C1681 C 0.34583 0.36055 0.66563 0.0
C1682 C 0.37152 0.3709 0.68965 0.0
C1683 C 0.38335 0.37983 0.71547 0.0
C1684 C 0.38702 0.39497 0.72362 0.0
C1685 C 0.39807 0.40326 0.74822 0.0
C1686 C 0.40562 0.39658 0.76466 0.0
C1687 C 0.40217 0.3816 0.75646 0.0
C1688 C 0.39111 0.37325 0.73191 0.0
C1689 C 0.37593 0.35336 0.54675 0.0
C1690 C 0.38288 0.34427 0.55145 0.0
C1691 C 0.37002 0.35748 0.5741 0.0
C1692 C 0.37084 0.35247 0.60654 0.0
C1693 C 0.37756 0.34321 0.61119 0.0
C1694 C 0.38348 0.33912 0.58391 0.0
C1695 C 0.3653 0.35738 0.63589 0.0
C1696 C 0.37576 0.36524 0.66193 0.0
C1697 C 0.35009 0.35489 0.63785 0.0
C1698 C 0.3383 0.346 0.61192 0.0
C1699 C 0.33482 0.33096 0.6033 0.0
C1700 C 0.32376 0.32268 0.57873 0.0
C1701 C 0.31602 0.32927 0.56274 0.0
C1702 C 0.31929 0.34415 0.57137 0.0
C1703 C 0.33035 0.35249 0.59591 0.0
H1704 H 0.30745 0.32284 0.54372 0.0
H1705 H 0.41417 0.40301 0.7837 0.0
H1706 H 0.9418 0.33544 0.90926 0.0
H1707 H 0.95993 0.34284 0.86238 0.0
H1708 H 0.9977 0.35732 0.93201 0.0
H1709 H 0.97959 0.34999 0.97912 0.0
H1710 H 0.00323 0.37894 0.88172 0.0
H1711 H 0.98623 0.3251 0.89124 0.0
H1712 H 0.96719 0.29734 0.89532 0.0
H1713 H 0.94894 0.29875 0.79876 0.0
H1714 H 0.96773 0.32659 0.7943 0.0
H1715 H 0.05892 0.39005 0.75875 0.0
H1716 H 0.04205 0.3806 0.80776 0.0
H1717 H 0.00208 0.36215 0.74332 0.0
H1718 H 0.01889 0.37111 0.69404 0.0
H1719 H 0.99845 0.3421 0.79271 0.0
H1720 H 0.01424 0.39588 0.78413 0.0
H1721 H 0.03289 0.42374 0.77968 0.0
H1722 H 0.0529 0.42256 0.87411 0.0
H1723 H 0.0345 0.39463 0.87889 0.0
C1724 C 0.95398 0.34023 0.91454 0.0
C1725 C 0.95932 0.34218 0.94776 0.0
C1726 C 0.96428 0.34434 0.88779 0.0
C1727 C 0.98011 0.35051 0.89381 0.0
C1728 C 0.98551 0.35252 0.92694 0.0
C1729 C 0.97517 0.34827 0.95374 0.0
C1730 C 0.99104 0.35525 0.86538 0.0
C1731 C 0.00238 0.37085 0.86253 0.0
C1732 C 0.98961 0.34473 0.84003 0.0
C1733 C 0.9783 0.32797 0.84259 0.0
C1734 C 0.97807 0.31953 0.871 0.0
C1735 C 0.96734 0.30377 0.87336 0.0
C1736 C 0.95684 0.29629 0.84735 0.0
C1737 C 0.95707 0.30456 0.8189 0.0
C1738 C 0.96777 0.32033 0.81643 0.0
C1739 C 0.04654 0.3838 0.75497 0.0
C1740 C 0.04023 0.38135 0.72251 0.0
C1741 C 0.03692 0.37854 0.78301 0.0
C1742 C 0.02082 0.37084 0.77917 0.0
C1743 C 0.01448 0.36811 0.74681 0.0
C1744 C 0.02409 0.37336 0.71872 0.0
C1745 C 0.0106 0.36582 0.80892 0.0
C1746 C 0.99937 0.35018 0.812 0.0
C1747 C 0.01207 0.37632 0.83442 0.0
C1748 C 0.0231 0.39313 0.83169 0.0
C1749 C 0.0227 0.40154 0.80381 0.0
C1750 C 0.03321 0.41735 0.80125 0.0
C1751 C 0.0441 0.42491 0.82655 0.0
C1752 C 0.04448 0.41668 0.85451 0.0
C1753 C 0.034 0.40086 0.85716 0.0
H1754 H 0.05223 0.43715 0.82452 0.0
H1755 H 0.94854 0.28409 0.84922 0.0
H1756 H 0.6247 0.97799 0.13629 0.0
H1757 H 0.63481 0.99618 0.08946 0.0
H1758 H 0.61581 0.9582 0.01949 0.0
H1759 H 0.60593 0.93991 0.06625 0.0
H1760 H 0.6454 0.98106 0.00241 0.0
H1761 H 0.59697 0.97706 0.03394 0.0
H1762 H 0.57844 0.97791 0.07345 0.0
H1763 H 0.61074 0.02544 0.0953 0.0
H1764 H 0.62956 0.0248 0.05626 0.0
H1765 H 0.64708 0.0217 0.8547 0.0
H1766 H 0.63984 0.00377 0.90195 0.0
H1767 H 0.65434 0.04176 0.97111 0.0
H1768 H 0.66131 0.05964 0.92397 0.0
H1769 H 0.62755 0.01897 0.98928 0.0
H1770 H 0.67586 0.02365 0.95755 0.0
H1771 H 0.69494 0.02315 0.91915 0.0
H1772 H 0.6639 0.97516 0.89884 0.0
H1773 H 0.64455 0.97542 0.93679 0.0
C1774 C 0.62284 0.97351 0.11095 0.0
C1775 C 0.61445 0.95753 0.10491 0.0
C1776 C 0.62854 0.98391 0.08425 0.0
C1777 C 0.62591 0.97851 0.05106 0.0
C1778 C 0.61791 0.96257 0.04495 0.0
C1779 C 0.61217 0.95216 0.07164 0.0
C1780 C 0.63106 0.9895 0.02269 0.0
C1781 C 0.64139 0.98925 0.99925 0.0
C1782 C 0.62608 0.0004 0.01916 0.0
C1783 C 0.61473 0.00083 0.04243 0.0
C1784 C 0.60016 0.98766 0.04736 0.0
C1785 C 0.5896 0.98811 0.06964 0.0
C1786 C 0.59343 0.00171 0.08694 0.0
C1787 C 0.60781 0.0149 0.08192 0.0
C1788 C 0.61842 0.01451 0.0597 0.0
C1789 C 0.64885 0.02621 0.88001 0.0
C1790 C 0.65472 0.04203 0.88573 0.0
C1791 C 0.64474 0.01598 0.90697 0.0
C1792 C 0.6467 0.02144 0.94009 0.0
C1793 C 0.6527 0.03728 0.94578 0.0
C1794 C 0.65665 0.04747 0.91887 0.0
C1795 C 0.64197 0.01062 0.96885 0.0
C1796 C 0.63166 0.01086 0.99239 0.0
C1797 C 0.64706 -0.0002 0.97255 0.0
C1798 C 0.6587 0.99959 0.94977 0.0
C1799 C 0.67306 0.01302 0.94469 0.0
C1800 C 0.68393 0.01277 0.92304 0.0
C1801 C 0.68062 0.99914 0.9065 0.0
C1802 C 0.66644 0.98571 0.91164 0.0
C1803 C 0.65552 0.9859 0.93324 0.0
H1804 H 0.68905 0.99898 0.88975 0.0
H1805 H 0.58523 0.00203 0.10418 0.0
H1806 H 0.63449 0.64622 0.01165 0.0
H1807 H 0.64765 0.64007 0.05565 0.0
H1808 H 0.63158 0.66022 0.12976 0.0
H1809 H 0.61888 0.66685 0.08591 0.0
H1810 H 0.66113 0.66821 0.14103 0.0
H1811 H 0.61321 0.62136 0.11747 0.0
H1812 H 0.59421 0.60044 0.08141 0.0
H1813 H 0.62794 0.58754 0.05589 0.0
H1814 H 0.64722 0.60854 0.09148 0.0
H1815 H 0.65977 0.63165 0.29333 0.0
H1816 H 0.654 0.64125 0.24216 0.0
H1817 H 0.67476 0.62038 0.18276 0.0
H1818 H 0.6804 0.61054 0.23399 0.0
H1819 H 0.64616 0.61342 0.15962 0.0
H1820 H 0.6931 0.65859 0.18998 0.0
H1821 H 0.71146 0.67922 0.22749 0.0
H1822 H 0.67912 0.6951 0.24163 0.0
H1823 H 0.66046 0.67442 0.20458 0.0
C1824 C 0.63394 0.64952 0.03727 0.0
C1825 C 0.62553 0.65689 0.04537 0.0
C1826 C 0.64137 0.6459 0.06238 0.0
C1827 C 0.64044 0.64954 0.096 0.0
C1828 C 0.63241 0.65728 0.10399 0.0
C1829 C 0.62501 0.66091 0.07895 0.0
C1830 C 0.64733 0.64486 0.12321 0.0
C1831 C 0.65781 0.65622 0.14522 0.0
C1832 C 0.64329 0.62927 0.12811 0.0
C1833 C 0.63171 0.61663 0.10679 0.0
C1834 C 0.61661 0.61414 0.10394 0.0
C1835 C 0.60579 0.60226 0.08364 0.0
C1836 C 0.60988 0.5927 0.06628 0.0
C1837 C 0.6248 0.59497 0.06929 0.0
C1838 C 0.63568 0.60686 0.08953 0.0
C1839 C 0.66315 0.62915 0.26937 0.0
C1840 C 0.6705 0.62033 0.26759 0.0
C1841 C 0.65996 0.63474 0.2402 0.0
C1842 C 0.66408 0.63163 0.20873 0.0
C1843 C 0.67157 0.62296 0.20685 0.0
C1844 C 0.67486 0.61744 0.23608 0.0
C1845 C 0.65972 0.63673 0.17783 0.0
C1846 C 0.6497 0.62544 0.15513 0.0
C1847 C 0.66412 0.65237 0.17244 0.0
C1848 C 0.67533 0.66487 0.19466 0.0
C1849 C 0.68985 0.6664 0.20128 0.0
C1850 C 0.70032 0.67812 0.22243 0.0
C1851 C 0.69645 0.68844 0.23698 0.0
C1852 C 0.6821 0.68709 0.23035 0.0
C1853 C 0.67158 0.67538 0.20924 0.0
H1854 H 0.70457 0.69751 0.25335 0.0
H1855 H 0.60148 0.5835 0.05058 0.0
H1856 H 0.01987 0.65483 0.47876 0.0
H1857 H 0.00081 0.64764 0.43372 0.0
H1858 H 0.03719 0.66338 0.36008 0.0
H1859 H 0.0563 0.67077 0.40497 0.0
H1860 H 0.01509 0.6718 0.34493 0.0
H1861 H 0.01731 0.6264 0.37735 0.0
H1862 H 0.01611 0.60713 0.41764 0.0
H1863 H 0.96945 0.59435 0.44265 0.0
H1864 H 0.97047 0.61373 0.40284 0.0
H1865 H 0.97424 0.63209 0.19874 0.0
H1866 H 0.99187 0.64297 0.24637 0.0
H1867 H 0.95334 0.62073 0.31462 0.0
H1868 H 0.93571 0.6096 0.26702 0.0
H1869 H 0.97563 0.61634 0.33475 0.0
H1870 H 0.97246 0.66037 0.30003 0.0
H1871 H 0.97349 0.67981 0.26047 0.0
H1872 H 0.02126 0.69543 0.24058 0.0
H1873 H 0.02047 0.67594 0.27969 0.0
C1874 C 0.02381 0.65698 0.45298 0.0
C1875 C 0.03954 0.66325 0.4453 0.0
C1876 C 0.01292 0.6528 0.42733 0.0
C1877 C 0.01761 0.65486 0.39363 0.0
C1878 C 0.03336 0.66169 0.38595 0.0
C1879 C 0.04423 0.66578 0.41156 0.0
C1880 C 0.00606 0.64914 0.36631 0.0
C1881 C 0.00652 0.65967 0.34247 0.0
C1882 C 0.99469 0.63337 0.36369 0.0
C1883 C 0.99402 0.62163 0.3874 0.0
C1884 C 0.00684 0.61956 0.39164 0.0
C1885 C 0.00618 0.60861 0.41436 0.0
C1886 C 0.99273 0.59955 0.43277 0.0
C1887 C 0.97988 0.6014 0.42842 0.0
C1888 C 0.98048 0.61236 0.40577 0.0
C1889 C 0.96954 0.62968 0.22391 0.0
C1890 C 0.95363 0.62001 0.22924 0.0
C1891 C 0.9796 0.63593 0.25111 0.0
C1892 C 0.97391 0.63283 0.28409 0.0
C1893 C 0.95799 0.62328 0.28941 0.0
C1894 C 0.94795 0.61691 0.26223 0.0
C1895 C 0.98461 0.63898 0.31306 0.0
C1896 C 0.98406 0.62851 0.33724 0.0
C1897 C 0.99582 0.65482 0.31605 0.0
C1898 C 0.99636 0.6666 0.29259 0.0
C1899 C 0.98316 0.66788 0.28704 0.0
C1900 C 0.9837 0.67892 0.26472 0.0
C1901 C 0.99742 0.68883 0.24797 0.0
C1902 C 0.01064 0.68774 0.25356 0.0
C1903 C 0.01015 0.67671 0.27582 0.0
H1904 H 0.99782 0.69736 0.2307 0.0
H1905 H 0.99224 0.59108 0.45034 0.0
H1906 H 0.31991 0.95707 0.39309 0.0
H1907 H 0.32707 0.97188 0.44509 0.0
H1908 H 0.37184 0.97538 0.44188 0.0
H1909 H 0.3644 0.95967 0.39124 0.0
H1910 H 0.36128 0.96927 0.50275 0.0
H1911 H 0.36545 0.00583 0.4186 0.0
H1912 H 0.35613 0.01548 0.37248 0.0
H1913 H 0.32043 0.01321 0.43618 0.0
H1914 H 0.32942 0.00335 0.48256 0.0
H1915 H 0.40429 0.03321 0.60946 0.0
H1916 H 0.39344 0.01526 0.56248 0.0
H1917 H 0.3491 0.01151 0.57956 0.0
H1918 H 0.36002 0.02986 0.62608 0.0
H1919 H 0.35731 0.01655 0.51417 0.0
H1920 H 0.35489 0.98189 0.59986 0.0
H1921 H 0.36499 0.97292 0.64574 0.0
H1922 H 0.39827 0.97228 0.57873 0.0
H1923 H 0.38852 0.98146 0.53254 0.0
C1924 C 0.33123 0.96083 0.4036 0.0
C1925 C 0.3416 0.95719 0.38778 0.0
C1926 C 0.33538 0.96948 0.43316 0.0
C1927 C 0.35009 0.97495 0.44716 0.0
C1928 C 0.36044 0.97133 0.43149 0.0
C1929 C 0.35623 0.96251 0.40222 0.0
C1930 C 0.35472 0.98434 0.47828 0.0
C1931 C 0.36056 0.9797 0.50509 0.0
C1932 C 0.35337 0.99771 0.48175 0.0
C1933 C 0.34801 0.0037 0.45393 0.0
C1934 C 0.35554 0.00728 0.42269 0.0
C1935 C 0.35033 0.01281 0.39652 0.0
C1936 C 0.33767 0.01491 0.40137 0.0
C1937 C 0.33022 0.01155 0.43244 0.0
C1938 C 0.33538 0.00601 0.45868 0.0
C1939 C 0.39223 0.02856 0.60323 0.0
C1940 C 0.38302 0.03298 0.6214 0.0
C1941 C 0.38601 0.01819 0.57659 0.0
C1942 C 0.37043 0.01195 0.56774 0.0
C1943 C 0.36113 0.01617 0.58609 0.0
C1944 C 0.36735 0.02654 0.6128 0.0
C1945 C 0.3641 0.0016 0.53832 0.0
C1946 C 0.35792 0.00605 0.51188 0.0
C1947 C 0.36523 0.98812 0.5351 0.0
C1948 C 0.37104 0.98248 0.56279 0.0
C1949 C 0.36443 0.97994 0.59496 0.0
C1950 C 0.37008 0.9748 0.62101 0.0
C1951 C 0.38228 0.97206 0.61517 0.0
C1952 C 0.38883 0.97442 0.58323 0.0
C1953 C 0.38323 0.97957 0.55709 0.0
H1954 H 0.38664 0.96808 0.63538 0.0
H1955 H 0.33365 0.01919 0.38107 0.0
H1956 H 0.38928 0.24009 0.50487 0.0
H1957 H 0.38887 0.22028 0.54156 0.0
H1958 H 0.4368 0.23669 0.51873 0.0
H1959 H 0.43701 0.25612 0.48087 0.0
H1960 H 0.42226 0.20669 0.52401 0.0
H1961 H 0.42524 0.24765 0.59135 0.0
H1962 H 0.41743 0.26608 0.61125 0.0
H1963 H 0.37354 0.22849 0.64227 0.0
H1964 H 0.381 0.20982 0.62208 0.0
H1965 H 0.43711 0.17415 0.66786 0.0
H1966 H 0.43752 0.19352 0.62964 0.0
H1967 H 0.38801 0.17211 0.63733 0.0
H1968 H 0.38751 0.15271 0.67568 0.0
H1969 H 0.40393 0.20488 0.64051 0.0
H1970 H 0.40202 0.16409 0.57203 0.0
H1971 H 0.41111 0.14649 0.55336 0.0
H1972 H 0.45498 0.18529 0.52647 0.0
H1973 H 0.44622 0.20313 0.54548 0.0
C1974 C 0.39964 0.23926 0.50736 0.0
C1975 C 0.4132 0.24961 0.49031 0.0
C1976 C 0.39944 0.22805 0.52846 0.0
C1977 C 0.41293 0.22726 0.53363 0.0
C1978 C 0.42629 0.23713 0.5153 0.0
C1979 C 0.42641 0.24819 0.49367 0.0
C1980 C 0.41322 0.21658 0.55908 0.0
C1981 C 0.41844 0.20645 0.54957 0.0
C1982 C 0.4081 0.21614 0.59244 0.0
C1983 C 0.40363 0.22734 0.60492 0.0
C1984 C 0.41388 0.24331 0.60222 0.0
C1985 C 0.40952 0.25381 0.61357 0.0
C1986 C 0.39498 0.24846 0.62795 0.0
C1987 C 0.38479 0.23261 0.63109 0.0
C1988 C 0.38908 0.22207 0.61973 0.0
C1989 C 0.42635 0.17375 0.66187 0.0
C1990 C 0.41227 0.16193 0.67468 0.0
C1991 C 0.42659 0.18473 0.63986 0.0
C1992 C 0.41278 0.18411 0.63045 0.0
C1993 C 0.39878 0.17272 0.64425 0.0
C1994 C 0.3985 0.16164 0.666 0.0
C1995 C 0.41287 0.19502 0.60529 0.0
C1996 C 0.40776 0.20519 0.61492 0.0
C1997 C 0.4183 0.19565 0.57223 0.0
C1998 C 0.42351 0.18494 0.56048 0.0
C1999 C 0.41364 0.16887 0.56239 0.0
C2000 C 0.41873 0.15885 0.5517 0.0
C2001 C 0.43363 0.16477 0.53882 0.0
C2002 C 0.44345 0.18072 0.5365 0.0
C2003 C 0.43843 0.19079 0.5472 0.0
H2004 H 0.43755 0.15699 0.53057 0.0
H2005 H 0.39162 0.2566 0.63671 0.0
H2006 H 0.2582 0.40737 0.80608 0.0
H2007 H 0.24017 0.40925 0.76763 0.0
H2008 H 0.22287 0.42486 0.8488 0.0
H2009 H 0.24101 0.42302 0.88759 0.0
H2010 H 0.19969 0.40044 0.80899 0.0
H2011 H 0.24499 0.45029 0.79455 0.0
H2012 H 0.27263 0.46806 0.78365 0.0
H2013 H 0.26825 0.44771 0.68653 0.0
H2014 H 0.24061 0.42965 0.69706 0.0
H2015 H 0.15296 0.41855 0.71007 0.0
H2016 H 0.17261 0.42042 0.74917 0.0
H2017 H 0.19701 0.41384 0.66732 0.0
H2018 H 0.17757 0.41263 0.62782 0.0
H2019 H 0.21691 0.43435 0.70866 0.0
H2020 H 0.17302 0.3839 0.72195 0.0
H2021 H 0.14562 0.36469 0.73143 0.0
H2022 H 0.14751 0.38411 0.82855 0.0
H2023 H 0.17488 0.40359 0.81946 0.0
C2024 C 0.25049 0.41113 0.81576 0.0
C2025 C 0.25086 0.41492 0.84982 0.0
C2026 C 0.24031 0.41232 0.79374 0.0
C2027 C 0.23028 0.41727 0.80539 0.0
C2028 C 0.23057 0.42105 0.83941 0.0
C2029 C 0.24092 0.42004 0.86144 0.0
C2030 C 0.2192 0.41804 0.78204 0.0
C2031 C 0.20341 0.40805 0.78736 0.0
C2032 C 0.22417 0.42757 0.75324 0.0
C2033 C 0.24075 0.43853 0.74672 0.0
C2034 C 0.24994 0.44952 0.77097 0.0
C2035 C 0.2656 0.45966 0.76484 0.0
C2036 C 0.2722 0.45899 0.73445 0.0
C2037 C 0.26313 0.44821 0.71008 0.0
C2038 C 0.24746 0.43803 0.7161 0.0
C2039 C 0.16255 0.41754 0.70048 0.0
C2040 C 0.16371 0.41524 0.66612 0.0
C2041 C 0.17374 0.41855 0.72281 0.0
C2042 C 0.1861 0.41688 0.71134 0.0
C2043 C 0.18753 0.41507 0.67678 0.0
C2044 C 0.17645 0.41434 0.65427 0.0
C2045 C 0.1973 0.41674 0.73556 0.0
C2046 C 0.21314 0.4268 0.73036 0.0
C2047 C 0.19239 0.40706 0.76423 0.0
C2048 C 0.17596 0.3953 0.76989 0.0
C2049 C 0.16757 0.38414 0.74524 0.0
C2050 C 0.15204 0.3732 0.75055 0.0
C2051 C 0.14482 0.3732 0.78054 0.0
C2052 C 0.15312 0.38413 0.80532 0.0
C2053 C 0.16864 0.39512 0.80011 0.0
H2054 H 0.1328 0.36472 0.78461 0.0
H2055 H 0.28433 0.46685 0.72976 0.0
H2056 H 0.82679 0.26674 0.99174 0.0
H2057 H 0.80822 0.24864 0.9513 0.0
H2058 H 0.81632 0.21276 0.98814 0.0
H2059 H 0.83492 0.23082 0.02879 0.0
H2060 H 0.81822 0.21466 0.92105 0.0
H2061 H 0.78252 0.21217 0.00459 0.0
H2062 H 0.77083 0.2226 0.04348 0.0
H2063 H 0.75957 0.24266 0.96076 0.0
H2064 H 0.7714 0.23253 0.9214 0.0
H2065 H 0.756 0.15092 0.83893 0.0
H2066 H 0.77449 0.16949 0.87871 0.0
H2067 H 0.76584 0.2047 0.83981 0.0
H2068 H 0.74734 0.18615 0.79967 0.0
H2069 H 0.76432 0.20352 0.90724 0.0
H2070 H 0.79973 0.20579 0.82363 0.0
H2071 H 0.8114 0.19536 0.78466 0.0
H2072 H 0.82321 0.17578 0.86739 0.0
H2073 H 0.81142 0.1859 0.90684 0.0
C2074 C 0.82434 0.2549 0.99181 0.0
C2075 C 0.83229 0.25019 0.01353 0.0
C2076 C 0.81377 0.24458 0.96857 0.0
C2077 C 0.81084 0.22933 0.96678 0.0
C2078 C 0.81846 0.22449 0.98902 0.0
C2079 C 0.82906 0.23481 0.01221 0.0
C2080 C 0.80045 0.21867 0.94061 0.0
C2081 C 0.80636 0.21204 0.91833 0.0
C2082 C 0.78513 0.21564 0.93646 0.0
C2083 C 0.77799 0.22172 0.96008 0.0
C2084 C 0.77767 0.21892 0.99472 0.0
C2085 C 0.77099 0.22475 0.01684 0.0
C2086 C 0.7645 0.23332 0.00461 0.0
C2087 C 0.76463 0.23604 0.97021 0.0
C2088 C 0.7713 0.23024 0.94797 0.0
C2089 C 0.75829 0.1627 0.83826 0.0
C2090 C 0.75023 0.16707 0.81605 0.0
C2091 C 0.76882 0.17329 0.86113 0.0
C2092 C 0.7716 0.1885 0.86212 0.0
C2093 C 0.76382 0.193 0.83953 0.0
C2094 C 0.75326 0.1824 0.81664 0.0
C2095 C 0.78207 0.19946 0.88778 0.0
C2096 C 0.77619 0.20616 0.90994 0.0
C2097 C 0.79742 0.20256 0.89182 0.0
C2098 C 0.80456 0.19649 0.86816 0.0
C2099 C 0.8047 0.19915 0.83349 0.0
C2100 C 0.81136 0.19331 0.81132 0.0
C2101 C 0.81801 0.18488 0.82353 0.0
C2102 C 0.81805 0.1823 0.85796 0.0
C2103 C 0.81139 0.1881 0.88024 0.0
H2104 H 0.82316 0.18037 0.80633 0.0
H2105 H 0.75933 0.23783 0.02178 0.0
H2106 H 0.56134 0.82707 0.16141 0.0
H2107 H 0.56104 0.80818 0.12215 0.0
H2108 H 0.60568 0.81787 0.15817 0.0
H2109 H 0.60603 0.83677 0.19766 0.0
H2110 H 0.60495 0.81846 0.09079 0.0
H2111 H 0.57301 0.78418 0.17796 0.0
H2112 H 0.55121 0.77293 0.21771 0.0
H2113 H 0.51916 0.75925 0.13577 0.0
H2114 H 0.54079 0.77061 0.09553 0.0
H2115 H 0.60872 0.7553 0.02132 0.0
H2116 H 0.60772 0.77454 0.05733 0.0
H2117 H 0.56364 0.76328 0.01479 0.0
H2118 H 0.56446 0.74374 0.97902 0.0
H2119 H 0.56323 0.76377 0.08308 0.0
H2120 H 0.59514 0.79705 0.99575 0.0
H2121 H 0.61693 0.8082 0.95599 0.0
H2122 H 0.64902 0.82374 0.03805 0.0
H2123 H 0.62741 0.81249 0.07834 0.0
C2124 C 0.57094 0.82493 0.16153 0.0
C2125 C 0.58369 0.83338 0.18275 0.0
C2126 C 0.57078 0.81417 0.13895 0.0
C2127 C 0.58331 0.81157 0.13731 0.0
C2128 C 0.59591 0.81975 0.15893 0.0
C2129 C 0.5961 0.83053 0.18148 0.0
C2130 C 0.58357 0.80079 0.11213 0.0
C2131 C 0.59593 0.80645 0.08939 0.0
C2132 C 0.57155 0.78525 0.1096 0.0
C2133 C 0.55852 0.77839 0.13376 0.0
C2134 C 0.56132 0.77889 0.16843 0.0
C2135 C 0.54899 0.77247 0.19105 0.0
C2136 C 0.53381 0.76541 0.17928 0.0
C2137 C 0.53092 0.76473 0.14486 0.0
C2138 C 0.54321 0.77115 0.12213 0.0
C2139 C 0.59886 0.75699 0.01949 0.0
C2140 C 0.58664 0.748 0.99744 0.0
C2141 C 0.59835 0.76806 0.03991 0.0
C2142 C 0.58564 0.77039 0.03862 0.0
C2143 C 0.57356 0.76166 0.01612 0.0
C2144 C 0.5741 0.75062 0.99552 0.0
C2145 C 0.5847 0.78141 0.06202 0.0
C2146 C 0.57221 0.7758 0.08439 0.0
C2147 C 0.5966 0.797 0.06422 0.0
C2148 C 0.60964 0.80381 0.04007 0.0
C2149 C 0.60684 0.80273 0.00533 0.0
C2150 C 0.61916 0.80909 0.98269 0.0
C2151 C 0.63435 0.81664 0.99448 0.0
C2152 C 0.63725 0.81788 0.02895 0.0
C2153 C 0.62497 0.81153 0.0517 0.0
H2154 H 0.64387 0.82156 0.97692 0.0
H2155 H 0.52428 0.76045 0.19683 0.0
H2156 H 0.75782 0.60654 0.33514 0.0
H2157 H 0.77451 0.60514 0.29269 0.0
H2158 H 0.77118 0.56507 0.34127 0.0
H2159 H 0.75499 0.56683 0.38516 0.0
H2160 H 0.79996 0.58369 0.31631 0.0
H2161 H 0.74802 0.56086 0.27609 0.0
H2162 H 0.72343 0.56008 0.26443 0.0
H2163 H 0.74665 0.59852 0.19722 0.0
H2164 H 0.77145 0.59972 0.20897 0.0
H2165 H 0.82506 0.55945 0.17612 0.0
H2166 H 0.80734 0.55886 0.21897 0.0
H2167 H 0.81091 0.60043 0.17804 0.0
H2168 H 0.82834 0.60086 0.13437 0.0
H2169 H 0.78126 0.57958 0.19931 0.0
H2170 H 0.83337 0.60279 0.24163 0.0
H2171 H 0.85778 0.60311 0.25285 0.0
H2172 H 0.83381 0.56322 0.31594 0.0
H2173 H 0.80919 0.56248 0.30456 0.0
C2174 C 0.76098 0.5977 0.33758 0.0
C2175 C 0.75496 0.58675 0.36362 0.0
C2176 C 0.77038 0.59679 0.31292 0.0
C2177 C 0.77377 0.58478 0.31338 0.0
C2178 C 0.76856 0.57435 0.34029 0.0
C2179 C 0.75923 0.57531 0.3652 0.0
C2180 C 0.782 0.58268 0.28475 0.0
C2181 C 0.79576 0.58257 0.2908 0.0
C2182 C 0.77659 0.58139 0.25138 0.0
C2183 C 0.76162 0.58046 0.24363 0.0
C2184 C 0.7479 0.5692 0.25896 0.0
C2185 C 0.73393 0.56869 0.25235 0.0
C2186 C 0.73348 0.57926 0.23015 0.0
C2187 C 0.74701 0.59034 0.21443 0.0
C2188 C 0.76103 0.59094 0.22105 0.0
C2189 C 0.82173 0.56822 0.17558 0.0
C2190 C 0.82815 0.58025 0.15191 0.0
C2191 C 0.81172 0.56795 0.20031 0.0
C2192 C 0.80804 0.57975 0.20199 0.0
C2193 C 0.81368 0.59126 0.17725 0.0
C2194 C 0.8237 0.59154 0.15247 0.0
C2195 C 0.79926 0.58074 0.23088 0.0
C2196 C 0.7854 0.58062 0.22486 0.0
C2197 C 0.80454 0.58176 0.26426 0.0
C2198 C 0.81941 0.58249 0.27199 0.0
C2199 C 0.83329 0.59403 0.25776 0.0
C2200 C 0.84716 0.59429 0.26414 0.0
C2201 C 0.84734 0.58317 0.28503 0.0
C2202 C 0.83365 0.57181 0.29972 0.0
C2203 C 0.81973 0.57147 0.29332 0.0
H2204 H 0.85808 0.58337 0.28989 0.0
H2205 H 0.72265 0.57885 0.22509 0.0
H2206 H 0.18458 0.74432 0.53111 0.0
H2207 H 0.20271 0.76319 0.49129 0.0
H2208 H 0.17075 0.77943 0.47227 0.0
H2209 H 0.1522 0.76 0.51051 0.0
H2210 H 0.18077 0.77497 0.41559 0.0
H2211 H 0.20498 0.80093 0.51773 0.0
H2212 H 0.21622 0.80381 0.57412 0.0
H2213 H 0.25066 0.79456 0.53424 0.0
H2214 H 0.2395 0.79142 0.47765 0.0
H2215 H 0.23336 0.84321 0.32665 0.0
H2216 H 0.21532 0.82452 0.36719 0.0
H2217 H 0.24476 0.8047 0.37737 0.0
H2218 H 0.26296 0.8235 0.3372 0.0
H2219 H 0.23621 0.81113 0.43832 0.0
H2220 H 0.21157 0.7854 0.33569 0.0
H2221 H 0.2003 0.78319 0.27958 0.0
H2222 H 0.16652 0.79298 0.32125 0.0
H2223 H 0.17774 0.79546 0.37758 0.0
C2224 C 0.18141 0.75192 0.51853 0.0
C2225 C 0.16688 0.75057 0.52401 0.0
C2226 C 0.19187 0.76284 0.49601 0.0
C2227 C 0.18815 0.77282 0.4789 0.0
C2228 C 0.17389 0.77186 0.48517 0.0
C2229 C 0.16336 0.76085 0.50743 0.0
C2230 C 0.19871 0.78363 0.45306 0.0
C2231 C 0.19283 0.78305 0.42076 0.0
C2232 C 0.21456 0.79391 0.4595 0.0
C2233 C 0.2213 0.7958 0.4935 0.0
C2234 C 0.21487 0.79939 0.52102 0.0
C2235 C 0.22125 0.80109 0.55302 0.0
C2236 C 0.23412 0.79933 0.55777 0.0
C2237 C 0.24068 0.7959 0.53052 0.0
C2238 C 0.23434 0.79418 0.49848 0.0
C2239 C 0.23592 0.83479 0.33737 0.0
C2240 C 0.24955 0.8348 0.32875 0.0
C2241 C 0.22559 0.82409 0.36038 0.0
C2242 C 0.2287 0.81321 0.37519 0.0
C2243 C 0.24216 0.813 0.36618 0.0
C2244 C 0.25246 0.82365 0.34301 0.0
C2245 C 0.21822 0.80246 0.40106 0.0
C2246 C 0.22413 0.80305 0.43329 0.0
C2247 C 0.20238 0.79229 0.39466 0.0
C2248 C 0.19559 0.79076 0.36081 0.0
C2249 C 0.20182 0.78721 0.33286 0.0
C2250 C 0.19542 0.78588 0.30101 0.0
C2251 C 0.18273 0.78799 0.29684 0.0
C2252 C 0.17637 0.79138 0.32452 0.0
C2253 C 0.18274 0.79273 0.35641 0.0
H2254 H 0.17779 0.78695 0.27217 0.0
H2255 H 0.23904 0.80066 0.58256 0.0
loop_
_geom_bond_atom_site_label_1
_geom_bond_atom_site_label_2
_geom_bond_distance
_geom_bond_site_symmetry_2
_ccdc_geom_bond_type
Li0 N17 1.990 . S
Li0 O60 1.956 . S
Li0 O61 1.970 . S
Li0 O62 1.961 . S
Li1 N25 1.990 . S
Li1 O60 1.970 . S
Li1 O61 1.956 . S
Li1 O63 1.961 . S
Li2 N47 1.990 . S
Li2 O60 1.961 . S
Li2 O62 1.956 . S
Li2 O63 1.970 . S
Li3 N53 1.990 . S
Li3 O61 1.961 . S
Li3 O62 1.970 . S
Li3 O63 1.956 . S
C4 C6 1.348 . S
C4 C7 1.356 . S
C4 O60 1.325 . S
N5 C8 1.314 . S
N5 C9 1.279 . S
C6 C4 1.348 . S
C6 C8 1.353 . S
C6 H64 0.929 . S
C7 C4 1.356 . S
C7 C9 1.358 . S
C7 H65 0.930 . S
C8 N5 1.314 . S
C8 C6 1.353 . S
C8 H66 0.930 . S
C9 N5 1.279 . S
C9 C7 1.358 . S
C9 H67 0.930 . S
C10 C13 1.348 . S
C10 C14 1.356 . S
C10 O61 1.325 . S
C11 N12 1.279 . S
C11 C14 1.358 . S
C11 H68 0.930 . S
N12 C11 1.279 . S
N12 C15 1.314 . S
C13 C10 1.348 . S
C13 C15 1.353 . S
C13 H69 0.929 . S
C14 C10 1.356 . S
C14 C11 1.358 . S
C14 H70 0.930 . S
C15 N12 1.314 . S
C15 C13 1.353 . S
C15 H71 0.930 . S
C16 N17 1.314 . S
C16 C21 1.353 . S
C16 H22 0.930 . S
N17 Li0 1.990 . S
N17 C16 1.314 . S
N17 C19 1.279 . S
C18 C19 1.358 . S
C18 C20 1.356 . S
C18 H72 0.930 . S
C19 N17 1.279 . S
C19 C18 1.358 . S
C19 H23 0.930 . S
C20 C18 1.356 . S
C20 C21 1.348 . S
C21 C16 1.353 . S
C21 C20 1.348 . S
C21 H73 0.929 . S
H22 C16 0.930 . S
H23 C19 0.930 . S
C24 N25 1.314 . S
C24 C26 1.353 . S
C24 H30 0.930 . S
N25 Li1 1.990 . S
N25 C24 1.314 . S
N25 C28 1.279 . S
C26 C24 1.353 . S
C26 C29 1.348 . S
C26 H74 0.929 . S
C27 C28 1.358 . S
C27 C29 1.356 . S
C27 H75 0.930 . S
C28 N25 1.279 . S
C28 C27 1.358 . S
C28 H31 0.930 . S
C29 C26 1.348 . S
C29 C27 1.356 . S
H30 C24 0.930 . S
H31 C28 0.930 . S
C32 C34 1.348 . S
C32 C35 1.356 . S
C32 O62 1.325 . S
N33 C36 1.314 . S
N33 C37 1.279 . S
C34 C32 1.348 . S
C34 C36 1.353 . S
C34 H76 0.929 . S
C35 C32 1.356 . S
C35 C37 1.358 . S
C35 H77 0.930 . S
C36 N33 1.314 . S
C36 C34 1.353 . S
C36 H78 0.930 . S
C37 N33 1.279 . S
C37 C35 1.358 . S
C37 H79 0.930 . S
C38 C39 1.348 . S
C38 C40 1.356 . S
C38 O63 1.325 . S
C39 C38 1.348 . S
C39 C41 1.353 . S
C39 H80 0.929 . S
C40 C38 1.356 . S
C40 C42 1.358 . S
C40 H81 0.930 . S
C41 C39 1.353 . S
C41 N43 1.314 . S
C41 H82 0.930 . S
C42 C40 1.358 . S
C42 N43 1.279 . S
C42 H83 0.930 . S
N43 C41 1.314 . S
N43 C42 1.279 . S
C44 C46 1.353 . S
C44 N47 1.314 . S
C44 H50 0.930 . S
C45 N47 1.279 . S
C45 C48 1.358 . S
C45 H51 0.930 . S
C46 C44 1.353 . S
C46 C49 1.348 . S
C46 H84 0.929 . S
N47 Li2 1.990 . S
N47 C44 1.314 . S
N47 C45 1.279 . S
C48 C45 1.358 . S
C48 C49 1.356 . S
C48 H85 0.930 . S
C49 C46 1.348 . S
C49 C48 1.356 . S
H50 C44 0.930 . S
H51 C45 0.930 . S
C52 N53 1.314 . S
C52 C54 1.353 . S
C52 H58 0.930 . S
N53 Li3 1.990 . S
N53 C52 1.314 . S
N53 C56 1.279 . S
C54 C52 1.353 . S
C54 C57 1.348 . S
C54 H86 0.929 . S
C55 C56 1.358 . S
C55 C57 1.356 . S
C55 H87 0.930 . S
C56 N53 1.279 . S
C56 C55 1.358 . S
C56 H59 0.930 . S
C57 C54 1.348 . S
C57 C55 1.356 . S
H58 C52 0.930 . S
H59 C56 0.930 . S
O60 Li0 1.956 . S
O60 Li1 1.970 . S
O60 Li2 1.961 . S
O60 C4 1.325 . S
O61 Li0 1.970 . S
O61 Li1 1.956 . S
O61 Li3 1.961 . S
O61 C10 1.325 . S
O62 Li0 1.961 . S
O62 Li2 1.956 . S
O62 Li3 1.970 . S
O62 C32 1.325 . S
O63 Li1 1.961 . S
O63 Li2 1.970 . S
O63 Li3 1.956 . S
O63 C38 1.325 . S
H64 C6 0.929 . S
H65 C7 0.930 . S
H66 C8 0.930 . S
H67 C9 0.930 . S
H68 C11 0.930 . S
H69 C13 0.929 . S
H70 C14 0.930 . S
H71 C15 0.930 . S
H72 C18 0.930 . S
H73 C21 0.929 . S
H74 C26 0.929 . S
H75 C27 0.930 . S
H76 C34 0.929 . S
H77 C35 0.930 . S
H78 C36 0.930 . S
H79 C37 0.930 . S
H80 C39 0.929 . S
H81 C40 0.930 . S
H82 C41 0.930 . S
H83 C42 0.930 . S
H84 C46 0.929 . S
H85 C48 0.930 . S
H86 C54 0.929 . S
H87 C55 0.930 . S
Li88 N105 1.990 . S
Li88 O148 1.956 . S
Li88 O149 1.970 . S
Li88 O150 1.961 . S
Li89 N113 1.990 . S
Li89 O148 1.970 . S
Li89 O149 1.956 . S
Li89 O151 1.961 . S
Li90 N135 1.990 . S
Li90 O148 1.961 . S
Li90 O150 1.956 . S
Li90 O151 1.970 . S
Li91 N141 1.990 . S
Li91 O149 1.961 . S
Li91 O150 1.970 . S
Li91 O151 1.956 . S
C92 C94 1.348 . S
C92 C95 1.356 . S
C92 O148 1.325 . S
N93 C96 1.314 . S
N93 C97 1.279 . S
C94 C92 1.348 . S
C94 C96 1.353 . S
C94 H152 0.929 . S
C95 C92 1.356 . S
C95 C97 1.358 . S
C95 H153 0.930 . S
C96 N93 1.314 . S
C96 C94 1.353 . S
C96 H154 0.930 . S
C97 N93 1.279 . S
C97 C95 1.358 . S
C97 H155 0.930 . S
C98 C101 1.348 . S
C98 C102 1.356 . S
C98 O149 1.325 . S
C99 N100 1.279 . S
C99 C102 1.358 . S
C99 H156 0.930 . S
N100 C99 1.279 . S
N100 C103 1.314 . S
C101 C98 1.348 . S
C101 C103 1.353 . S
C101 H157 0.929 . S
C102 C98 1.356 . S
C102 C99 1.358 . S
C102 H158 0.930 . S
C103 N100 1.314 . S
C103 C101 1.353 . S
C103 H159 0.930 . S
C104 N105 1.314 . S
C104 C109 1.353 . S
C104 H110 0.930 . S
N105 Li88 1.990 . S
N105 C104 1.314 . S
N105 C107 1.279 . S
C106 C107 1.358 . S
C106 C108 1.356 . S
C106 H160 0.930 . S
C107 N105 1.279 . S
C107 C106 1.358 . S
C107 H111 0.930 . S
C108 C106 1.356 . S
C108 C109 1.348 . S
C109 C104 1.353 . S
C109 C108 1.348 . S
C109 H161 0.929 . S
H110 C104 0.930 . S
H111 C107 0.930 . S
C112 N113 1.314 . S
C112 C114 1.353 . S
C112 H118 0.930 . S
N113 Li89 1.990 . S
N113 C112 1.314 . S
N113 C116 1.279 . S
C114 C112 1.353 . S
C114 C117 1.348 . S
C114 H162 0.929 . S
C115 C116 1.358 . S
C115 C117 1.356 . S
C115 H163 0.930 . S
C116 N113 1.279 . S
C116 C115 1.358 . S
C116 H119 0.930 . S
C117 C114 1.348 . S
C117 C115 1.356 . S
H118 C112 0.930 . S
H119 C116 0.930 . S
C120 C122 1.348 . S
C120 C123 1.356 . S
C120 O150 1.325 . S
N121 C124 1.314 . S
N121 C125 1.279 . S
C122 C120 1.348 . S
C122 C124 1.353 . S
C122 H164 0.929 . S
C123 C120 1.356 . S
C123 C125 1.358 . S
C123 H165 0.930 . S
C124 N121 1.314 . S
C124 C122 1.353 . S
C124 H166 0.930 . S
C125 N121 1.279 . S
C125 C123 1.358 . S
C125 H167 0.930 . S
C126 C127 1.348 . S
C126 C128 1.356 . S
C126 O151 1.325 . S
C127 C126 1.348 . S
C127 C129 1.353 . S
C127 H168 0.929 . S
C128 C126 1.356 . S
C128 C130 1.358 . S
C128 H169 0.930 . S
C129 C127 1.353 . S
C129 N131 1.314 . S
C129 H170 0.930 . S
C130 C128 1.358 . S
C130 N131 1.279 . S
C130 H171 0.930 . S
N131 C129 1.314 . S
N131 C130 1.279 . S
C132 C134 1.353 . S
C132 N135 1.314 . S
C132 H138 0.930 . S
C133 N135 1.279 . S
C133 C136 1.358 . S
C133 H139 0.930 . S
C134 C132 1.353 . S
C134 C137 1.348 . S
C134 H172 0.929 . S
N135 Li90 1.990 . S
N135 C132 1.314 . S
N135 C133 1.279 . S
C136 C133 1.358 . S
C136 C137 1.356 . S
C136 H173 0.930 . S
C137 C134 1.348 . S
C137 C136 1.356 . S
H138 C132 0.930 . S
H139 C133 0.930 . S
C140 N141 1.314 . S
C140 C142 1.353 . S
C140 H146 0.930 . S
N141 Li91 1.990 . S
N141 C140 1.314 . S
N141 C144 1.279 . S
C142 C140 1.353 . S
C142 C145 1.348 . S
C142 H174 0.929 . S
C143 C144 1.358 . S
C143 C145 1.356 . S
C143 H175 0.930 . S
C144 N141 1.279 . S
C144 C143 1.358 . S
C144 H147 0.930 . S
C145 C142 1.348 . S
C145 C143 1.356 . S
H146 C140 0.930 . S
H147 C144 0.930 . S
O148 Li88 1.956 . S
O148 Li89 1.970 . S
O148 Li90 1.961 . S
O148 C92 1.325 . S
O149 Li88 1.970 . S
O149 Li89 1.956 . S
O149 Li91 1.961 . S
O149 C98 1.325 . S
O150 Li88 1.961 . S
O150 Li90 1.956 . S
O150 Li91 1.970 . S
O150 C120 1.325 . S
O151 Li89 1.961 . S
O151 Li90 1.970 . S
O151 Li91 1.956 . S
O151 C126 1.325 . S
H152 C94 0.929 . S
H153 C95 0.930 . S
H154 C96 0.930 . S
H155 C97 0.930 . S
H156 C99 0.930 . S
H157 C101 0.929 . S
H158 C102 0.930 . S
H159 C103 0.930 . S
H160 C106 0.930 . S
H161 C109 0.929 . S
H162 C114 0.929 . S
H163 C115 0.930 . S
H164 C122 0.929 . S
H165 C123 0.930 . S
H166 C124 0.930 . S
H167 C125 0.930 . S
H168 C127 0.929 . S
H169 C128 0.930 . S
H170 C129 0.930 . S
H171 C130 0.930 . S
H172 C134 0.929 . S
H173 C136 0.930 . S
H174 C142 0.929 . S
H175 C143 0.930 . S
Li176 N193 1.990 . S
Li176 O236 1.956 . S
Li176 O237 1.970 . S
Li176 O238 1.961 . S
Li177 N201 1.990 . S
Li177 O236 1.970 . S
Li177 O237 1.956 . S
Li177 O239 1.961 . S
Li178 N223 1.990 . S
Li178 O236 1.961 . S
Li178 O238 1.956 . S
Li178 O239 1.970 . S
Li179 N229 1.990 . S
Li179 O237 1.961 . S
Li179 O238 1.970 . S
Li179 O239 1.956 . S
C180 C182 1.348 . S
C180 C183 1.356 . S
C180 O236 1.325 . S
N181 C184 1.314 . S
N181 C185 1.279 . S
C182 C180 1.348 . S
C182 C184 1.353 . S
C182 H240 0.929 . S
C183 C180 1.356 . S
C183 C185 1.358 . S
C183 H241 0.930 . S
C184 N181 1.314 . S
C184 C182 1.353 . S
C184 H242 0.930 . S
C185 N181 1.279 . S
C185 C183 1.358 . S
C185 H243 0.930 . S
C186 C189 1.348 . S
C186 C190 1.356 . S
C186 O237 1.325 . S
C187 N188 1.279 . S
C187 C190 1.358 . S
C187 H244 0.930 . S
N188 C187 1.279 . S
N188 C191 1.314 . S
C189 C186 1.348 . S
C189 C191 1.353 . S
C189 H245 0.929 . S
C190 C186 1.356 . S
C190 C187 1.358 . S
C190 H246 0.930 . S
C191 N188 1.314 . S
C191 C189 1.353 . S
C191 H247 0.930 . S
C192 N193 1.314 . S
C192 C197 1.353 . S
C192 H198 0.930 . S
N193 Li176 1.990 . S
N193 C192 1.314 . S
N193 C195 1.279 . S
C194 C195 1.358 . S
C194 C196 1.356 . S
C194 H248 0.930 . S
C195 N193 1.279 . S
C195 C194 1.358 . S
C195 H199 0.930 . S
C196 C194 1.356 . S
C196 C197 1.348 . S
C197 C192 1.353 . S
C197 C196 1.348 . S
C197 H249 0.929 . S
H198 C192 0.930 . S
H199 C195 0.930 . S
C200 N201 1.314 . S
C200 C202 1.353 . S
C200 H206 0.930 . S
N201 Li177 1.990 . S
N201 C200 1.314 . S
N201 C204 1.279 . S
C202 C200 1.353 . S
C202 C205 1.348 . S
C202 H250 0.929 . S
C203 C204 1.358 . S
C203 C205 1.356 . S
C203 H251 0.930 . S
C204 N201 1.279 . S
C204 C203 1.358 . S
C204 H207 0.930 . S
C205 C202 1.348 . S
C205 C203 1.356 . S
H206 C200 0.930 . S
H207 C204 0.930 . S
C208 C210 1.348 . S
C208 C211 1.356 . S
C208 O238 1.325 . S
N209 C212 1.314 . S
N209 C213 1.279 . S
C210 C208 1.348 . S
C210 C212 1.353 . S
C210 H252 0.929 . S
C211 C208 1.356 . S
C211 C213 1.358 . S
C211 H253 0.930 . S
C212 N209 1.314 . S
C212 C210 1.353 . S
C212 H254 0.930 . S
C213 N209 1.279 . S
C213 C211 1.358 . S
C213 H255 0.930 . S
C214 C215 1.348 . S
C214 C216 1.356 . S
C214 O239 1.325 . S
C215 C214 1.348 . S
C215 C217 1.353 . S
C215 H256 0.929 . S
C216 C214 1.356 . S
C216 C218 1.358 . S
C216 H257 0.930 . S
C217 C215 1.353 . S
C217 N219 1.314 . S
C217 H258 0.930 . S
C218 C216 1.358 . S
C218 N219 1.279 . S
C218 H259 0.930 . S
N219 C217 1.314 . S
N219 C218 1.279 . S
C220 C222 1.353 . S
C220 N223 1.314 . S
C220 H226 0.930 . S
C221 N223 1.279 . S
C221 C224 1.358 . S
C221 H227 0.930 . S
C222 C220 1.353 . S
C222 C225 1.348 . S
C222 H260 0.929 . S
N223 Li178 1.990 . S
N223 C220 1.314 . S
N223 C221 1.279 . S
C224 C221 1.358 . S
C224 C225 1.356 . S
C224 H261 0.930 . S
C225 C222 1.348 . S
C225 C224 1.356 . S
H226 C220 0.930 . S
H227 C221 0.930 . S
C228 N229 1.314 . S
C228 C230 1.353 . S
C228 H234 0.930 . S
N229 Li179 1.990 . S
N229 C228 1.314 . S
N229 C232 1.279 . S
C230 C228 1.353 . S
C230 C233 1.348 . S
C230 H262 0.929 . S
C231 C232 1.358 . S
C231 C233 1.356 . S
C231 H263 0.930 . S
C232 N229 1.279 . S
C232 C231 1.358 . S
C232 H235 0.930 . S
C233 C230 1.348 . S
C233 C231 1.356 . S
H234 C228 0.930 . S
H235 C232 0.930 . S
O236 Li176 1.956 . S
O236 Li177 1.970 . S
O236 Li178 1.961 . S
O236 C180 1.325 . S
O237 Li176 1.970 . S
O237 Li177 1.956 . S
O237 Li179 1.961 . S
O237 C186 1.325 . S
O238 Li176 1.961 . S
O238 Li178 1.956 . S
O238 Li179 1.970 . S
O238 C208 1.325 . S
O239 Li177 1.961 . S
O239 Li178 1.970 . S
O239 Li179 1.956 . S
O239 C214 1.325 . S
H240 C182 0.929 . S
H241 C183 0.930 . S
H242 C184 0.930 . S
H243 C185 0.930 . S
H244 C187 0.930 . S
H245 C189 0.929 . S
H246 C190 0.930 . S
H247 C191 0.930 . S
H248 C194 0.930 . S
H249 C197 0.929 . S
H250 C202 0.929 . S
H251 C203 0.930 . S
H252 C210 0.929 . S
H253 C211 0.930 . S
H254 C212 0.930 . S
H255 C213 0.930 . S
H256 C215 0.929 . S
H257 C216 0.930 . S
H258 C217 0.930 . S
H259 C218 0.930 . S
H260 C222 0.929 . S
H261 C224 0.930 . S
H262 C230 0.929 . S
H263 C231 0.930 . S
Li264 N281 1.985 1_556 S
Li264 O324 1.956 . S
Li264 O325 1.970 . S
Li264 O326 1.961 . S
Li265 N289 1.990 . S
Li265 O324 1.970 . S
Li265 O325 1.956 . S
Li265 O327 1.961 . S
Li266 N311 1.990 . S
Li266 O324 1.961 . S
Li266 O326 1.956 . S
Li266 O327 1.970 . S
Li267 N317 1.990 . S
Li267 O325 1.961 . S
Li267 O326 1.970 . S
Li267 O327 1.956 . S
C268 C270 1.348 1_556 S
C268 C271 1.356 1_556 S
C268 O324 1.325 . S
N269 C272 1.314 . S
N269 C273 1.279 . S
C270 C268 1.348 1_554 S
C270 C272 1.353 . S
C270 H328 0.929 . S
C271 C268 1.356 1_554 S
C271 C273 1.358 . S
C271 H329 0.930 . S
C272 N269 1.314 . S
C272 C270 1.353 . S
C272 H330 0.930 . S
C273 N269 1.279 . S
C273 C271 1.358 . S
C273 H331 0.930 . S
C274 C277 1.348 . S
C274 C278 1.356 . S
C274 O325 1.325 . S
C275 N276 1.279 . S
C275 C278 1.358 . S
C275 H332 0.930 . S
N276 C275 1.279 . S
N276 C279 1.314 . S
C277 C274 1.348 . S
C277 C279 1.353 . S
C277 H333 0.929 . S
C278 C274 1.356 . S
C278 C275 1.358 . S
C278 H334 0.930 . S
C279 N276 1.314 . S
C279 C277 1.353 . S
C279 H335 0.930 . S
C280 N281 1.313 1_556 S
C280 C285 1.353 1_556 S
C280 H286 0.930 . S
N281 Li264 1.985 1_554 S
N281 C280 1.313 1_554 S
N281 C283 1.285 . S
C282 C283 1.358 . S
C282 C284 1.356 . S
C282 H336 0.930 . S
C283 N281 1.285 . S
C283 C282 1.358 . S
C283 H287 0.930 . S
C284 C282 1.356 . S
C284 C285 1.348 . S
C285 C280 1.353 1_554 S
C285 C284 1.348 . S
C285 H337 0.929 . S
H286 C280 0.930 . S
H287 C283 0.930 . S
C288 N289 1.314 . S
C288 C290 1.353 . S
C288 H294 0.930 . S
N289 Li265 1.990 . S
N289 C288 1.314 . S
N289 C292 1.279 . S
C290 C288 1.353 . S
C290 C293 1.348 . S
C290 H338 0.929 . S
C291 C292 1.358 . S
C291 C293 1.356 . S
C291 H339 0.930 . S
C292 N289 1.279 . S
C292 C291 1.358 . S
C292 H295 0.930 . S
C293 C290 1.348 . S
C293 C291 1.356 . S
H294 C288 0.930 . S
H295 C292 0.930 . S
C296 C298 1.348 . S
C296 C299 1.356 . S
C296 O326 1.325 . S
N297 C300 1.314 . S
N297 C301 1.279 . S
C298 C296 1.348 . S
C298 C300 1.353 . S
C298 H340 0.929 . S
C299 C296 1.356 . S
C299 C301 1.358 . S
C299 H341 0.930 . S
C300 N297 1.314 . S
C300 C298 1.353 . S
C300 H342 0.930 . S
C301 N297 1.279 . S
C301 C299 1.358 . S
C301 H343 0.930 . S
C302 C303 1.348 . S
C302 C304 1.356 . S
C302 O327 1.325 . S
C303 C302 1.348 . S
C303 C305 1.353 . S
C303 H344 0.929 . S
C304 C302 1.356 . S
C304 C306 1.358 . S
C304 H345 0.930 . S
C305 C303 1.353 . S
C305 N307 1.314 . S
C305 H346 0.930 . S
C306 C304 1.358 . S
C306 N307 1.279 . S
C306 H347 0.930 . S
N307 C305 1.314 . S
N307 C306 1.279 . S
C308 C310 1.353 . S
C308 N311 1.314 . S
C308 H314 0.930 . S
C309 N311 1.279 . S
C309 C312 1.358 . S
C309 H315 0.930 . S
C310 C308 1.353 . S
C310 C313 1.348 . S
C310 H348 0.929 . S
N311 Li266 1.990 . S
N311 C308 1.314 . S
N311 C309 1.279 . S
C312 C309 1.358 . S
C312 C313 1.356 . S
C312 H349 0.930 . S
C313 C310 1.348 . S
C313 C312 1.356 . S
H314 C308 0.930 . S
H315 C309 0.930 . S
C316 N317 1.314 . S
C316 C318 1.353 . S
C316 H322 0.930 . S
N317 Li267 1.990 . S
N317 C316 1.314 . S
N317 C320 1.279 . S
C318 C316 1.353 . S
C318 C321 1.348 . S
C318 H350 0.929 . S
C319 C320 1.358 . S
C319 C321 1.356 . S
C319 H351 0.930 . S
C320 N317 1.279 . S
C320 C319 1.358 . S
C320 H323 0.930 . S
C321 C318 1.348 . S
C321 C319 1.356 . S
H322 C316 0.930 . S
H323 C320 0.930 . S
O324 Li264 1.956 . S
O324 Li265 1.970 . S
O324 Li266 1.961 . S
O324 C268 1.325 . S
O325 Li264 1.970 . S
O325 Li265 1.956 . S
O325 Li267 1.961 . S
O325 C274 1.325 . S
O326 Li264 1.961 . S
O326 Li266 1.956 . S
O326 Li267 1.970 . S
O326 C296 1.325 . S
O327 Li265 1.961 . S
O327 Li266 1.970 . S
O327 Li267 1.956 . S
O327 C302 1.325 . S
H328 C270 0.929 . S
H329 C271 0.930 . S
H330 C272 0.930 . S
H331 C273 0.930 . S
H332 C275 0.930 . S
H333 C277 0.929 . S
H334 C278 0.930 . S
H335 C279 0.930 . S
H336 C282 0.930 . S
H337 C285 0.929 . S
H338 C290 0.929 . S
H339 C291 0.930 . S
H340 C298 0.929 . S
H341 C299 0.930 . S
H342 C300 0.930 . S
H343 C301 0.930 . S
H344 C303 0.929 . S
H345 C304 0.930 . S
H346 C305 0.930 . S
H347 C306 0.930 . S
H348 C310 0.929 . S
H349 C312 0.930 . S
H350 C318 0.929 . S
H351 C319 0.930 . S
Li352 N369 1.990 . S
Li352 O412 1.956 . S
Li352 O413 1.970 . S
Li352 O414 1.961 . S
Li353 N377 1.990 . S
Li353 O412 1.970 . S
Li353 O413 1.956 . S
Li353 O415 1.961 . S
Li354 N399 1.990 . S
Li354 O412 1.961 . S
Li354 O414 1.956 . S
Li354 O415 1.970 . S
Li355 N405 1.990 . S
Li355 O413 1.961 . S
Li355 O414 1.970 . S
Li355 O415 1.956 . S
C356 C358 1.348 . S
C356 C359 1.356 . S
C356 O412 1.325 . S
N357 C360 1.314 . S
N357 C361 1.279 . S
C358 C356 1.348 . S
C358 C360 1.353 . S
C358 H416 0.929 . S
C359 C356 1.356 . S
C359 C361 1.358 . S
C359 H417 0.930 . S
C360 N357 1.314 . S
C360 C358 1.353 . S
C360 H418 0.930 . S
C361 N357 1.279 . S
C361 C359 1.358 . S
C361 H419 0.930 . S
C362 C365 1.348 . S
C362 C366 1.356 . S
C362 O413 1.325 . S
C363 N364 1.279 . S
C363 C366 1.358 . S
C363 H420 0.930 . S
N364 C363 1.279 . S
N364 C367 1.314 . S
C365 C362 1.348 . S
C365 C367 1.353 . S
C365 H421 0.929 . S
C366 C362 1.356 . S
C366 C363 1.358 . S
C366 H422 0.930 . S
C367 N364 1.314 . S
C367 C365 1.353 . S
C367 H423 0.930 . S
C368 N369 1.314 . S
C368 C373 1.353 . S
C368 H374 0.930 . S
N369 Li352 1.990 . S
N369 C368 1.314 . S
N369 C371 1.279 . S
C370 C371 1.358 . S
C370 C372 1.356 . S
C370 H424 0.930 . S
C371 N369 1.279 . S
C371 C370 1.358 . S
C371 H375 0.930 . S
C372 C370 1.356 . S
C372 C373 1.348 . S
C373 C368 1.353 . S
C373 C372 1.348 . S
C373 H425 0.929 . S
H374 C368 0.930 . S
H375 C371 0.930 . S
C376 N377 1.314 . S
C376 C378 1.353 . S
C376 H382 0.930 . S
N377 Li353 1.990 . S
N377 C376 1.314 . S
N377 C380 1.279 . S
C378 C376 1.353 . S
C378 C381 1.348 . S
C378 H426 0.929 . S
C379 C380 1.358 . S
C379 C381 1.356 . S
C379 H427 0.930 . S
C380 N377 1.279 . S
C380 C379 1.358 . S
C380 H383 0.930 . S
C381 C378 1.348 . S
C381 C379 1.356 . S
H382 C376 0.930 . S
H383 C380 0.930 . S
C384 C386 1.348 . S
C384 C387 1.356 . S
C384 O414 1.325 . S
N385 C388 1.314 . S
N385 C389 1.279 . S
C386 C384 1.348 . S
C386 C388 1.353 . S
C386 H428 0.929 . S
C387 C384 1.356 . S
C387 C389 1.358 . S
C387 H429 0.930 . S
C388 N385 1.314 . S
C388 C386 1.353 . S
C388 H430 0.930 . S
C389 N385 1.279 . S
C389 C387 1.358 . S
C389 H431 0.930 . S
C390 C391 1.348 . S
C390 C392 1.356 . S
C390 O415 1.325 . S
C391 C390 1.348 . S
C391 C393 1.338 1_554 S
C391 H432 0.929 . S
C392 C390 1.356 . S
C392 C394 1.336 1_554 S
C392 H433 0.930 . S
C393 C391 1.338 1_556 S
C393 N395 1.323 . S
C393 H434 0.937 . S
C394 C392 1.336 1_556 S
C394 N395 1.293 . S
C394 H435 0.942 . S
N395 C393 1.323 . S
N395 C394 1.293 . S
C396 C398 1.353 . S
C396 N399 1.314 . S
C396 H402 0.930 . S
C397 N399 1.279 . S
C397 C400 1.358 . S
C397 H403 0.930 . S
C398 C396 1.353 . S
C398 C401 1.348 . S
C398 H436 0.929 . S
N399 Li354 1.990 . S
N399 C396 1.314 . S
N399 C397 1.279 . S
C400 C397 1.358 . S
C400 C401 1.356 . S
C400 H437 0.930 . S
C401 C398 1.348 . S
C401 C400 1.356 . S
H402 C396 0.930 . S
H403 C397 0.930 . S
C404 N405 1.314 . S
C404 C406 1.353 1_554 S
C404 H410 0.930 . S
N405 Li355 1.990 . S
N405 C404 1.314 . S
N405 C408 1.279 1_554 S
C406 C404 1.353 1_556 S
C406 C409 1.348 . S
C406 H438 0.929 . S
C407 C408 1.358 . S
C407 C409 1.356 . S
C407 H439 0.930 . S
C408 N405 1.279 1_556 S
C408 C407 1.358 . S
C408 H411 0.930 . S
C409 C406 1.348 . S
C409 C407 1.356 . S
H410 C404 0.930 . S
H411 C408 0.930 . S
O412 Li352 1.956 . S
O412 Li353 1.970 . S
O412 Li354 1.961 . S
O412 C356 1.325 . S
O413 Li352 1.970 . S
O413 Li353 1.956 . S
O413 Li355 1.961 . S
O413 C362 1.325 . S
O414 Li352 1.961 . S
O414 Li354 1.956 . S
O414 Li355 1.970 . S
O414 C384 1.325 . S
O415 Li353 1.961 . S
O415 Li354 1.970 . S
O415 Li355 1.956 . S
O415 C390 1.325 . S
H416 C358 0.929 . S
H417 C359 0.930 . S
H418 C360 0.930 . S
H419 C361 0.930 . S
H420 C363 0.930 . S
H421 C365 0.929 . S
H422 C366 0.930 . S
H423 C367 0.930 . S
H424 C370 0.930 . S
H425 C373 0.929 . S
H426 C378 0.929 . S
H427 C379 0.930 . S
H428 C386 0.929 . S
H429 C387 0.930 . S
H430 C388 0.930 . S
H431 C389 0.930 . S
H432 C391 0.929 . S
H433 C392 0.930 . S
H434 C393 0.937 . S
H435 C394 0.942 . S
H436 C398 0.929 . S
H437 C400 0.930 . S
H438 C406 0.929 . S
H439 C407 0.930 . S
Li440 N457 1.990 . S
Li440 O500 1.956 . S
Li440 O501 1.970 . S
Li440 O502 1.961 . S
Li441 N465 1.990 . S
Li441 O500 1.970 . S
Li441 O501 1.956 . S
Li441 O503 1.961 . S
Li442 N487 1.990 . S
Li442 O500 1.961 . S
Li442 O502 1.956 . S
Li442 O503 1.970 . S
Li443 N493 1.990 . S
Li443 O501 1.961 . S
Li443 O502 1.970 . S
Li443 O503 1.956 . S
C444 C446 1.348 . S
C444 C447 1.356 . S
C444 O500 1.325 . S
N445 C448 1.314 . S
N445 C449 1.279 . S
C446 C444 1.348 . S
C446 C448 1.353 . S
C446 H504 0.929 . S
C447 C444 1.356 . S
C447 C449 1.358 . S
C447 H505 0.930 . S
C448 N445 1.314 . S
C448 C446 1.353 . S
C448 H506 0.930 . S
C449 N445 1.279 . S
C449 C447 1.358 . S
C449 H507 0.930 . S
C450 C453 1.348 . S
C450 C454 1.356 . S
C450 O501 1.325 . S
C451 N452 1.279 . S
C451 C454 1.358 . S
C451 H508 0.930 . S
N452 C451 1.279 . S
N452 C455 1.314 . S
C453 C450 1.348 . S
C453 C455 1.353 . S
C453 H509 0.929 . S
C454 C450 1.356 . S
C454 C451 1.358 . S
C454 H510 0.930 . S
C455 N452 1.314 . S
C455 C453 1.353 . S
C455 H511 0.930 . S
C456 N457 1.314 . S
C456 C461 1.353 . S
C456 H462 0.930 . S
N457 Li440 1.990 . S
N457 C456 1.314 . S
N457 C459 1.279 . S
C458 C459 1.358 . S
C458 C460 1.356 . S
C458 H512 0.930 . S
C459 N457 1.279 . S
C459 C458 1.358 . S
C459 H463 0.930 . S
C460 C458 1.356 . S
C460 C461 1.348 . S
C461 C456 1.353 . S
C461 C460 1.348 . S
C461 H513 0.929 . S
H462 C456 0.930 . S
H463 C459 0.930 . S
C464 N465 1.314 . S
C464 C466 1.353 . S
C464 H470 0.930 . S
N465 Li441 1.990 . S
N465 C464 1.314 . S
N465 C468 1.279 . S
C466 C464 1.353 . S
C466 C469 1.348 . S
C466 H514 0.929 . S
C467 C468 1.358 . S
C467 C469 1.356 . S
C467 H515 0.930 . S
C468 N465 1.279 . S
C468 C467 1.358 . S
C468 H471 0.930 . S
C469 C466 1.348 . S
C469 C467 1.356 . S
H470 C464 0.930 . S
H471 C468 0.930 . S
C472 C474 1.348 . S
C472 C475 1.356 . S
C472 O502 1.325 . S
N473 C476 1.314 . S
N473 C477 1.279 . S
C474 C472 1.348 . S
C474 C476 1.353 . S
C474 H516 0.929 . S
C475 C472 1.356 . S
C475 C477 1.358 . S
C475 H517 0.930 . S
C476 N473 1.314 . S
C476 C474 1.353 . S
C476 H518 0.930 . S
C477 N473 1.279 . S
C477 C475 1.358 . S
C477 H519 0.930 . S
C478 C479 1.348 . S
C478 C480 1.356 . S
C478 O503 1.325 . S
C479 C478 1.348 . S
C479 C481 1.353 . S
C479 H520 0.929 . S
C480 C478 1.356 . S
C480 C482 1.358 . S
C480 H521 0.930 . S
C481 C479 1.353 . S
C481 N483 1.314 . S
C481 H522 0.930 . S
C482 C480 1.358 . S
C482 N483 1.279 . S
C482 H523 0.930 . S
N483 C481 1.314 . S
N483 C482 1.279 . S
C484 C486 1.353 . S
C484 N487 1.314 . S
C484 H490 0.930 . S
C485 N487 1.279 . S
C485 C488 1.358 . S
C485 H491 0.930 . S
C486 C484 1.353 . S
C486 C489 1.348 . S
C486 H524 0.929 . S
N487 Li442 1.990 . S
N487 C484 1.314 . S
N487 C485 1.279 . S
C488 C485 1.358 . S
C488 C489 1.356 . S
C488 H525 0.930 . S
C489 C486 1.348 . S
C489 C488 1.356 . S
H490 C484 0.930 . S
H491 C485 0.930 . S
C492 N493 1.314 . S
C492 C494 1.353 . S
C492 H498 0.930 . S
N493 Li443 1.990 . S
N493 C492 1.314 . S
N493 C496 1.279 . S
C494 C492 1.353 . S
C494 C497 1.348 . S
C494 H526 0.929 . S
C495 C496 1.358 . S
C495 C497 1.356 . S
C495 H527 0.930 . S
C496 N493 1.279 . S
C496 C495 1.358 . S
C496 H499 0.930 . S
C497 C494 1.348 . S
C497 C495 1.356 . S
H498 C492 0.930 . S
H499 C496 0.930 . S
O500 Li440 1.956 . S
O500 Li441 1.970 . S
O500 Li442 1.961 . S
O500 C444 1.325 . S
O501 Li440 1.970 . S
O501 Li441 1.956 . S
O501 Li443 1.961 . S
O501 C450 1.325 . S
O502 Li440 1.961 . S
O502 Li442 1.956 . S
O502 Li443 1.970 . S
O502 C472 1.325 . S
O503 Li441 1.961 . S
O503 Li442 1.970 . S
O503 Li443 1.956 . S
O503 C478 1.325 . S
H504 C446 0.929 . S
H505 C447 0.930 . S
H506 C448 0.930 . S
H507 C449 0.930 . S
H508 C451 0.930 . S
H509 C453 0.929 . S
H510 C454 0.930 . S
H511 C455 0.930 . S
H512 C458 0.930 . S
H513 C461 0.929 . S
H514 C466 0.929 . S
H515 C467 0.930 . S
H516 C474 0.929 . S
H517 C475 0.930 . S
H518 C476 0.930 . S
H519 C477 0.930 . S
H520 C479 0.929 . S
H521 C480 0.930 . S
H522 C481 0.930 . S
H523 C482 0.930 . S
H524 C486 0.929 . S
H525 C488 0.930 . S
H526 C494 0.929 . S
H527 C495 0.930 . S
Li528 N545 1.990 . S
Li528 O588 1.956 . S
Li528 O589 1.970 . S
Li528 O590 1.961 . S
Li529 N553 1.990 . S
Li529 O588 1.970 . S
Li529 O589 1.956 . S
Li529 O591 1.961 . S
Li530 N575 1.990 . S
Li530 O588 1.961 . S
Li530 O590 1.956 . S
Li530 O591 1.970 . S
Li531 N581 1.990 . S
Li531 O589 1.961 . S
Li531 O590 1.970 . S
Li531 O591 1.956 . S
C532 C534 1.348 . S
C532 C535 1.356 . S
C532 O588 1.325 . S
N533 C536 1.314 . S
N533 C537 1.279 . S
C534 C532 1.348 . S
C534 C536 1.353 . S
C534 H592 0.929 . S
C535 C532 1.356 . S
C535 C537 1.358 . S
C535 H593 0.930 . S
C536 N533 1.314 . S
C536 C534 1.353 . S
C536 H594 0.930 . S
C537 N533 1.279 . S
C537 C535 1.358 . S
C537 H595 0.930 . S
C538 C541 1.348 . S
C538 C542 1.356 . S
C538 O589 1.325 . S
C539 N540 1.279 . S
C539 C542 1.358 . S
C539 H596 0.930 . S
N540 C539 1.279 . S
N540 C543 1.314 . S
C541 C538 1.348 . S
C541 C543 1.353 . S
C541 H597 0.929 . S
C542 C538 1.356 . S
C542 C539 1.358 . S
C542 H598 0.930 . S
C543 N540 1.314 . S
C543 C541 1.353 . S
C543 H599 0.930 . S
C544 N545 1.314 . S
C544 C549 1.353 . S
C544 H550 0.930 . S
N545 Li528 1.990 . S
N545 C544 1.314 . S
N545 C547 1.279 . S
C546 C547 1.358 . S
C546 C548 1.356 . S
C546 H600 0.930 . S
C547 N545 1.279 . S
C547 C546 1.358 . S
C547 H551 0.930 . S
C548 C546 1.356 . S
C548 C549 1.348 . S
C549 C544 1.353 . S
C549 C548 1.348 . S
C549 H601 0.929 . S
H550 C544 0.930 . S
H551 C547 0.930 . S
C552 N553 1.314 . S
C552 C554 1.353 . S
C552 H558 0.930 . S
N553 Li529 1.990 . S
N553 C552 1.314 . S
N553 C556 1.279 . S
C554 C552 1.353 . S
C554 C557 1.348 . S
C554 H602 0.929 . S
C555 C556 1.358 . S
C555 C557 1.356 . S
C555 H603 0.930 . S
C556 N553 1.279 . S
C556 C555 1.358 . S
C556 H559 0.930 . S
C557 C554 1.348 . S
C557 C555 1.356 . S
H558 C552 0.930 . S
H559 C556 0.930 . S
C560 C562 1.348 . S
C560 C563 1.356 . S
C560 O590 1.325 . S
N561 C564 1.314 . S
N561 C565 1.279 . S
C562 C560 1.348 . S
C562 C564 1.353 . S
C562 H604 0.929 . S
C563 C560 1.356 . S
C563 C565 1.358 . S
C563 H605 0.930 . S
C564 N561 1.314 . S
C564 C562 1.353 . S
C564 H606 0.930 . S
C565 N561 1.279 . S
C565 C563 1.358 . S
C565 H607 0.930 . S
C566 C567 1.348 . S
C566 C568 1.356 . S
C566 O591 1.325 . S
C567 C566 1.348 . S
C567 C569 1.353 . S
C567 H608 0.929 . S
C568 C566 1.356 . S
C568 C570 1.358 . S
C568 H609 0.930 . S
C569 C567 1.353 . S
C569 N571 1.314 . S
C569 H610 0.930 . S
C570 C568 1.358 . S
C570 N571 1.279 . S
C570 H611 0.930 . S
N571 C569 1.314 . S
N571 C570 1.279 . S
C572 C574 1.353 . S
C572 N575 1.314 . S
C572 H578 0.930 . S
C573 N575 1.279 . S
C573 C576 1.358 . S
C573 H579 0.930 . S
C574 C572 1.353 . S
C574 C577 1.348 . S
C574 H612 0.929 . S
N575 Li530 1.990 . S
N575 C572 1.314 . S
N575 C573 1.279 . S
C576 C573 1.358 . S
C576 C577 1.356 . S
C576 H613 0.930 . S
C577 C574 1.348 . S
C577 C576 1.356 . S
H578 C572 0.930 . S
H579 C573 0.930 . S
C580 N581 1.314 . S
C580 C582 1.353 . S
C580 H586 0.930 . S
N581 Li531 1.990 . S
N581 C580 1.314 . S
N581 C584 1.279 . S
C582 C580 1.353 . S
C582 C585 1.348 . S
C582 H614 0.929 . S
C583 C584 1.358 . S
C583 C585 1.356 . S
C583 H615 0.930 . S
C584 N581 1.279 . S
C584 C583 1.358 . S
C584 H587 0.930 . S
C585 C582 1.348 . S
C585 C583 1.356 . S
H586 C580 0.930 . S
H587 C584 0.930 . S
O588 Li528 1.956 . S
O588 Li529 1.970 . S
O588 Li530 1.961 . S
O588 C532 1.325 . S
O589 Li528 1.970 . S
O589 Li529 1.956 . S
O589 Li531 1.961 . S
O589 C538 1.325 . S
O590 Li528 1.961 . S
O590 Li530 1.956 . S
O590 Li531 1.970 . S
O590 C560 1.325 . S
O591 Li529 1.961 . S
O591 Li530 1.970 . S
O591 Li531 1.956 . S
O591 C566 1.325 . S
H592 C534 0.929 . S
H593 C535 0.930 . S
H594 C536 0.930 . S
H595 C537 0.930 . S
H596 C539 0.930 . S
H597 C541 0.929 . S
H598 C542 0.930 . S
H599 C543 0.930 . S
H600 C546 0.930 . S
H601 C549 0.929 . S
H602 C554 0.929 . S
H603 C555 0.930 . S
H604 C562 0.929 . S
H605 C563 0.930 . S
H606 C564 0.930 . S
H607 C565 0.930 . S
H608 C567 0.929 . S
H609 C568 0.930 . S
H610 C569 0.930 . S
H611 C570 0.930 . S
H612 C574 0.929 . S
H613 C576 0.930 . S
H614 C582 0.929 . S
H615 C583 0.930 . S
Li616 N633 1.990 . S
Li616 O676 1.956 . S
Li616 O677 1.970 . S
Li616 O678 1.961 . S
Li617 N641 1.990 . S
Li617 O676 1.970 . S
Li617 O677 1.956 . S
Li617 O679 1.961 . S
Li618 N663 1.990 . S
Li618 O676 1.961 . S
Li618 O678 1.956 . S
Li618 O679 1.970 . S
Li619 N669 1.990 . S
Li619 O677 1.961 . S
Li619 O678 1.970 . S
Li619 O679 1.956 . S
C620 C622 1.348 . S
C620 C623 1.356 . S
C620 O676 1.325 . S
N621 C624 1.314 . S
N621 C625 1.279 . S
C622 C620 1.348 . S
C622 C624 1.353 . S
C622 H680 0.929 . S
C623 C620 1.356 . S
C623 C625 1.358 . S
C623 H681 0.930 . S
C624 N621 1.314 . S
C624 C622 1.353 . S
C624 H682 0.930 . S
C625 N621 1.279 . S
C625 C623 1.358 . S
C625 H683 0.930 . S
C626 C629 1.348 . S
C626 C630 1.356 . S
C626 O677 1.325 . S
C627 N628 1.279 . S
C627 C630 1.358 . S
C627 H684 0.930 . S
N628 C627 1.279 . S
N628 C631 1.314 . S
C629 C626 1.348 . S
C629 C631 1.353 . S
C629 H685 0.929 . S
C630 C626 1.356 . S
C630 C627 1.358 . S
C630 H686 0.930 . S
C631 N628 1.314 . S
C631 C629 1.353 . S
C631 H687 0.930 . S
C632 N633 1.314 . S
C632 C637 1.353 . S
C632 H638 0.930 . S
N633 Li616 1.990 . S
N633 C632 1.314 . S
N633 C635 1.279 . S
C634 C635 1.358 . S
C634 C636 1.356 . S
C634 H688 0.930 . S
C635 N633 1.279 . S
C635 C634 1.358 . S
C635 H639 0.930 . S
C636 C634 1.356 . S
C636 C637 1.348 . S
C637 C632 1.353 . S
C637 C636 1.348 . S
C637 H689 0.929 . S
H638 C632 0.930 . S
H639 C635 0.930 . S
C640 N641 1.314 . S
C640 C642 1.353 . S
C640 H646 0.930 . S
N641 Li617 1.990 . S
N641 C640 1.314 . S
N641 C644 1.279 . S
C642 C640 1.353 . S
C642 C645 1.348 . S
C642 H690 0.929 . S
C643 C644 1.358 . S
C643 C645 1.356 . S
C643 H691 0.930 . S
C644 N641 1.279 . S
C644 C643 1.358 . S
C644 H647 0.930 . S
C645 C642 1.348 . S
C645 C643 1.356 . S
H646 C640 0.930 . S
H647 C644 0.930 . S
C648 C650 1.348 . S
C648 C651 1.356 . S
C648 O678 1.325 . S
N649 C652 1.314 . S
N649 C653 1.279 . S
C650 C648 1.348 . S
C650 C652 1.353 . S
C650 H692 0.929 . S
C651 C648 1.356 . S
C651 C653 1.358 . S
C651 H693 0.930 . S
C652 N649 1.314 . S
C652 C650 1.353 . S
C652 H694 0.930 . S
C653 N649 1.279 . S
C653 C651 1.358 . S
C653 H695 0.930 . S
C654 C655 1.348 . S
C654 C656 1.356 . S
C654 O679 1.325 . S
C655 C654 1.348 . S
C655 C657 1.353 . S
C655 H696 0.929 . S
C656 C654 1.356 . S
C656 C658 1.358 . S
C656 H697 0.930 . S
C657 C655 1.353 . S
C657 N659 1.314 . S
C657 H698 0.930 . S
C658 C656 1.358 . S
C658 N659 1.279 . S
C658 H699 0.930 . S
N659 C657 1.314 . S
N659 C658 1.279 . S
C660 C662 1.353 . S
C660 N663 1.314 . S
C660 H666 0.930 . S
C661 N663 1.279 . S
C661 C664 1.358 . S
C661 H667 0.930 . S
C662 C660 1.353 . S
C662 C665 1.348 . S
C662 H700 0.929 . S
N663 Li618 1.990 . S
N663 C660 1.314 . S
N663 C661 1.279 . S
C664 C661 1.358 . S
C664 C665 1.356 . S
C664 H701 0.930 . S
C665 C662 1.348 . S
C665 C664 1.356 . S
H666 C660 0.930 . S
H667 C661 0.930 . S
C668 N669 1.314 . S
C668 C670 1.353 . S
C668 H674 0.930 . S
N669 Li619 1.990 . S
N669 C668 1.314 . S
N669 C672 1.279 . S
C670 C668 1.353 . S
C670 C673 1.348 . S
C670 H702 0.929 . S
C671 C672 1.358 . S
C671 C673 1.356 . S
C671 H703 0.930 . S
C672 N669 1.279 . S
C672 C671 1.358 . S
C672 H675 0.930 . S
C673 C670 1.348 . S
C673 C671 1.356 . S
H674 C668 0.930 . S
H675 C672 0.930 . S
O676 Li616 1.956 . S
O676 Li617 1.970 . S
O676 Li618 1.961 . S
O676 C620 1.325 . S
O677 Li616 1.970 . S
O677 Li617 1.956 . S
O677 Li619 1.961 . S
O677 C626 1.325 . S
O678 Li616 1.961 . S
O678 Li618 1.956 . S
O678 Li619 1.970 . S
O678 C648 1.325 . S
O679 Li617 1.961 . S
O679 Li618 1.970 . S
O679 Li619 1.956 . S
O679 C654 1.325 . S
H680 C622 0.929 . S
H681 C623 0.930 . S
H682 C624 0.930 . S
H683 C625 0.930 . S
H684 C627 0.930 . S
H685 C629 0.929 . S
H686 C630 0.930 . S
H687 C631 0.930 . S
H688 C634 0.930 . S
H689 C637 0.929 . S
H690 C642 0.929 . S
H691 C643 0.930 . S
H692 C650 0.929 . S
H693 C651 0.930 . S
H694 C652 0.930 . S
H695 C653 0.930 . S
H696 C655 0.929 . S
H697 C656 0.930 . S
H698 C657 0.930 . S
H699 C658 0.930 . S
H700 C662 0.929 . S
H701 C664 0.930 . S
H702 C670 0.929 . S
H703 C671 0.930 . S
Li704 N721 1.990 . S
Li704 O764 1.956 . S
Li704 O765 1.970 . S
Li704 O766 1.961 . S
Li705 N729 1.990 . S
Li705 O764 1.970 . S
Li705 O765 1.956 . S
Li705 O767 1.961 . S
Li706 N751 1.990 . S
Li706 O764 1.961 . S
Li706 O766 1.956 . S
Li706 O767 1.970 . S
Li707 N757 1.990 . S
Li707 O765 1.961 . S
Li707 O766 1.970 . S
Li707 O767 1.956 . S
C708 C710 1.348 . S
C708 C711 1.356 . S
C708 O764 1.325 . S
N709 C712 1.314 . S
N709 C713 1.279 . S
C710 C708 1.348 . S
C710 C712 1.353 . S
C710 H768 0.929 . S
C711 C708 1.356 . S
C711 C713 1.358 . S
C711 H769 0.930 . S
C712 N709 1.314 . S
C712 C710 1.353 . S
C712 H770 0.930 . S
C713 N709 1.279 . S
C713 C711 1.358 . S
C713 H771 0.930 . S
C714 C717 1.348 . S
C714 C718 1.356 . S
C714 O765 1.325 . S
C715 N716 1.279 . S
C715 C718 1.358 . S
C715 H772 0.930 . S
N716 C715 1.279 . S
N716 C719 1.314 . S
C717 C714 1.348 . S
C717 C719 1.353 . S
C717 H773 0.929 . S
C718 C714 1.356 . S
C718 C715 1.358 . S
C718 H774 0.930 . S
C719 N716 1.314 . S
C719 C717 1.353 . S
C719 H775 0.930 . S
C720 N721 1.314 . S
C720 C725 1.353 . S
C720 H726 0.930 . S
N721 Li704 1.990 . S
N721 C720 1.314 . S
N721 C723 1.279 . S
C722 C723 1.358 . S
C722 C724 1.356 . S
C722 H776 0.930 . S
C723 N721 1.279 . S
C723 C722 1.358 . S
C723 H727 0.930 . S
C724 C722 1.356 . S
C724 C725 1.348 . S
C725 C720 1.353 . S
C725 C724 1.348 . S
C725 H777 0.929 . S
H726 C720 0.930 . S
H727 C723 0.930 . S
C728 N729 1.314 . S
C728 C730 1.353 . S
C728 H734 0.930 . S
N729 Li705 1.990 . S
N729 C728 1.314 . S
N729 C732 1.279 . S
C730 C728 1.353 . S
C730 C733 1.348 . S
C730 H778 0.929 . S
C731 C732 1.358 . S
C731 C733 1.356 . S
C731 H779 0.930 . S
C732 N729 1.279 . S
C732 C731 1.358 . S
C732 H735 0.930 . S
C733 C730 1.348 . S
C733 C731 1.356 . S
H734 C728 0.930 . S
H735 C732 0.930 . S
C736 C738 1.348 . S
C736 C739 1.356 . S
C736 O766 1.325 . S
N737 C740 1.314 . S
N737 C741 1.279 . S
C738 C736 1.348 . S
C738 C740 1.353 . S
C738 H780 0.929 . S
C739 C736 1.356 . S
C739 C741 1.358 . S
C739 H781 0.930 . S
C740 N737 1.314 . S
C740 C738 1.353 . S
C740 H782 0.930 . S
C741 N737 1.279 . S
C741 C739 1.358 . S
C741 H783 0.930 . S
C742 C743 1.348 . S
C742 C744 1.356 . S
C742 O767 1.325 . S
C743 C742 1.348 . S
C743 C745 1.353 . S
C743 H784 0.929 . S
C744 C742 1.356 . S
C744 C746 1.358 . S
C744 H785 0.930 . S
C745 C743 1.353 . S
C745 N747 1.314 . S
C745 H786 0.930 . S
C746 C744 1.358 . S
C746 N747 1.279 . S
C746 H787 0.930 . S
N747 C745 1.314 . S
N747 C746 1.279 . S
C748 C750 1.353 . S
C748 N751 1.314 . S
C748 H754 0.930 . S
C749 N751 1.279 . S
C749 C752 1.358 . S
C749 H755 0.930 . S
C750 C748 1.353 . S
C750 C753 1.348 . S
C750 H788 0.929 . S
N751 Li706 1.990 . S
N751 C748 1.314 . S
N751 C749 1.279 . S
C752 C749 1.358 . S
C752 C753 1.356 . S
C752 H789 0.930 . S
C753 C750 1.348 . S
C753 C752 1.356 . S
H754 C748 0.930 . S
H755 C749 0.930 . S
C756 N757 1.314 . S
C756 C758 1.353 . S
C756 H762 0.930 . S
N757 Li707 1.990 . S
N757 C756 1.314 . S
N757 C760 1.279 . S
C758 C756 1.353 . S
C758 C761 1.348 . S
C758 H790 0.929 . S
C759 C760 1.358 . S
C759 C761 1.356 . S
C759 H791 0.930 . S
C760 N757 1.279 . S
C760 C759 1.358 . S
C760 H763 0.930 . S
C761 C758 1.348 . S
C761 C759 1.356 . S
H762 C756 0.930 . S
H763 C760 0.930 . S
O764 Li704 1.956 . S
O764 Li705 1.970 . S
O764 Li706 1.961 . S
O764 C708 1.325 . S
O765 Li704 1.970 . S
O765 Li705 1.956 . S
O765 Li707 1.961 . S
O765 C714 1.325 . S
O766 Li704 1.961 . S
O766 Li706 1.956 . S
O766 Li707 1.970 . S
O766 C736 1.325 . S
O767 Li705 1.961 . S
O767 Li706 1.970 . S
O767 Li707 1.956 . S
O767 C742 1.325 . S
H768 C710 0.929 . S
H769 C711 0.930 . S
H770 C712 0.930 . S
H771 C713 0.930 . S
H772 C715 0.930 . S
H773 C717 0.929 . S
H774 C718 0.930 . S
H775 C719 0.930 . S
H776 C722 0.930 . S
H777 C725 0.929 . S
H778 C730 0.929 . S
H779 C731 0.930 . S
H780 C738 0.929 . S
H781 C739 0.930 . S
H782 C740 0.930 . S
H783 C741 0.930 . S
H784 C743 0.929 . S
H785 C744 0.930 . S
H786 C745 0.930 . S
H787 C746 0.930 . S
H788 C750 0.929 . S
H789 C752 0.930 . S
H790 C758 0.929 . S
H791 C759 0.930 . S
Li792 N809 1.990 . S
Li792 O852 1.956 . S
Li792 O853 1.970 . S
Li792 O854 1.961 . S
Li793 N817 1.990 . S
Li793 O852 1.970 . S
Li793 O853 1.956 . S
Li793 O855 1.961 . S
Li794 N839 1.990 . S
Li794 O852 1.961 . S
Li794 O854 1.956 . S
Li794 O855 1.970 . S
Li795 N845 1.990 . S
Li795 O853 1.961 . S
Li795 O854 1.970 . S
Li795 O855 1.956 . S
C796 C798 1.348 . S
C796 C799 1.356 . S
C796 O852 1.325 . S
N797 C800 1.314 . S
N797 C801 1.279 . S
C798 C796 1.348 . S
C798 C800 1.353 . S
C798 H856 0.929 . S
C799 C796 1.356 . S
C799 C801 1.358 . S
C799 H857 0.930 . S
C800 N797 1.314 . S
C800 C798 1.353 . S
C800 H858 0.930 . S
C801 N797 1.279 . S
C801 C799 1.358 . S
C801 H859 0.930 . S
C802 C805 1.348 . S
C802 C806 1.356 . S
C802 O853 1.325 . S
C803 N804 1.293 . S
C803 C806 1.335 1_554 S
C803 H860 0.942 . S
N804 C803 1.293 . S
N804 C807 1.324 . S
C805 C802 1.348 . S
C805 C807 1.337 1_556 S
C805 H861 0.929 . S
C806 C802 1.356 . S
C806 C803 1.335 1_556 S
C806 H862 0.930 . S
C807 N804 1.324 . S
C807 C805 1.337 1_554 S
C807 H863 0.938 . S
C808 N809 1.314 . S
C808 C813 1.353 . S
C808 H814 0.930 . S
N809 Li792 1.990 . S
N809 C808 1.314 . S
N809 C811 1.279 . S
C810 C811 1.358 . S
C810 C812 1.356 . S
C810 H864 0.930 . S
C811 N809 1.279 . S
C811 C810 1.358 . S
C811 H815 0.930 . S
C812 C810 1.356 . S
C812 C813 1.348 . S
C813 C808 1.353 . S
C813 C812 1.348 . S
C813 H865 0.929 . S
H814 C808 0.930 . S
H815 C811 0.930 . S
C816 N817 1.314 . S
C816 C818 1.353 1_556 S
C816 H822 0.930 . S
N817 Li793 1.990 . S
N817 C816 1.314 . S
N817 C820 1.279 1_556 S
C818 C816 1.353 1_554 S
C818 C821 1.348 . S
C818 H866 0.929 . S
C819 C820 1.358 . S
C819 C821 1.356 . S
C819 H867 0.930 . S
C820 N817 1.279 1_554 S
C820 C819 1.358 . S
C820 H823 0.930 . S
C821 C818 1.348 . S
C821 C819 1.356 . S
H822 C816 0.930 . S
H823 C820 0.930 . S
C824 C826 1.348 . S
C824 C827 1.356 . S
C824 O854 1.325 . S
N825 C828 1.314 . S
N825 C829 1.279 . S
C826 C824 1.348 . S
C826 C828 1.353 . S
C826 H868 0.929 . S
C827 C824 1.356 . S
C827 C829 1.358 . S
C827 H869 0.930 . S
C828 N825 1.314 . S
C828 C826 1.353 . S
C828 H870 0.930 . S
C829 N825 1.279 . S
C829 C827 1.358 . S
C829 H871 0.930 . S
C830 C831 1.348 . S
C830 C832 1.356 . S
C830 O855 1.325 . S
C831 C830 1.348 . S
C831 C833 1.353 . S
C831 H872 0.929 . S
C832 C830 1.356 . S
C832 C834 1.358 . S
C832 H873 0.930 . S
C833 C831 1.353 . S
C833 N835 1.314 . S
C833 H874 0.930 . S
C834 C832 1.358 . S
C834 N835 1.279 . S
C834 H875 0.930 . S
N835 C833 1.314 . S
N835 C834 1.279 . S
C836 C838 1.353 . S
C836 N839 1.314 . S
C836 H842 0.930 . S
C837 N839 1.279 . S
C837 C840 1.358 . S
C837 H843 0.930 . S
C838 C836 1.353 . S
C838 C841 1.348 . S
C838 H876 0.929 . S
N839 Li794 1.990 . S
N839 C836 1.314 . S
N839 C837 1.279 . S
C840 C837 1.358 . S
C840 C841 1.356 . S
C840 H877 0.930 . S
C841 C838 1.348 . S
C841 C840 1.356 . S
H842 C836 0.930 . S
H843 C837 0.930 . S
C844 N845 1.314 . S
C844 C846 1.353 . S
C844 H850 0.930 . S
N845 Li795 1.990 . S
N845 C844 1.314 . S
N845 C848 1.279 . S
C846 C844 1.353 . S
C846 C849 1.348 . S
C846 H878 0.929 . S
C847 C848 1.358 . S
C847 C849 1.356 . S
C847 H879 0.930 . S
C848 N845 1.279 . S
C848 C847 1.358 . S
C848 H851 0.930 . S
C849 C846 1.348 . S
C849 C847 1.356 . S
H850 C844 0.930 . S
H851 C848 0.930 . S
O852 Li792 1.956 . S
O852 Li793 1.970 . S
O852 Li794 1.961 . S
O852 C796 1.325 . S
O853 Li792 1.970 . S
O853 Li793 1.956 . S
O853 Li795 1.961 . S
O853 C802 1.325 . S
O854 Li792 1.961 . S
O854 Li794 1.956 . S
O854 Li795 1.970 . S
O854 C824 1.325 . S
O855 Li793 1.961 . S
O855 Li794 1.970 . S
O855 Li795 1.956 . S
O855 C830 1.325 . S
H856 C798 0.929 . S
H857 C799 0.930 . S
H858 C800 0.930 . S
H859 C801 0.930 . S
H860 C803 0.942 . S
H861 C805 0.929 . S
H862 C806 0.930 . S
H863 C807 0.938 . S
H864 C810 0.930 . S
H865 C813 0.929 . S
H866 C818 0.929 . S
H867 C819 0.930 . S
H868 C826 0.929 . S
H869 C827 0.930 . S
H870 C828 0.930 . S
H871 C829 0.930 . S
H872 C831 0.929 . S
H873 C832 0.930 . S
H874 C833 0.930 . S
H875 C834 0.930 . S
H876 C838 0.929 . S
H877 C840 0.930 . S
H878 C846 0.929 . S
H879 C847 0.930 . S
Li880 N897 1.990 . S
Li880 O940 1.956 . S
Li880 O941 1.970 . S
Li880 O942 1.961 . S
Li881 N905 1.990 . S
Li881 O940 1.970 . S
Li881 O941 1.956 . S
Li881 O943 1.961 . S
Li882 N927 1.986 1_554 S
Li882 O940 1.961 . S
Li882 O942 1.956 . S
Li882 O943 1.970 . S
Li883 N933 1.990 . S
Li883 O941 1.961 . S
Li883 O942 1.970 . S
Li883 O943 1.956 . S
C884 C886 1.348 . S
C884 C887 1.356 . S
C884 O940 1.325 . S
N885 C888 1.314 . S
N885 C889 1.279 . S
C886 C884 1.348 . S
C886 C888 1.353 . S
C886 H944 0.929 . S
C887 C884 1.356 . S
C887 C889 1.358 . S
C887 H945 0.930 . S
C888 N885 1.314 . S
C888 C886 1.353 . S
C888 H946 0.930 . S
C889 N885 1.279 . S
C889 C887 1.358 . S
C889 H947 0.930 . S
C890 C893 1.348 . S
C890 C894 1.356 . S
C890 O941 1.325 . S
C891 N892 1.279 . S
C891 C894 1.358 . S
C891 H948 0.930 . S
N892 C891 1.279 . S
N892 C895 1.314 . S
C893 C890 1.348 . S
C893 C895 1.353 . S
C893 H949 0.929 . S
C894 C890 1.356 . S
C894 C891 1.358 . S
C894 H950 0.930 . S
C895 N892 1.314 . S
C895 C893 1.353 . S
C895 H951 0.930 . S
C896 N897 1.314 . S
C896 C901 1.353 . S
C896 H902 0.930 . S
N897 Li880 1.990 . S
N897 C896 1.314 . S
N897 C899 1.279 . S
C898 C899 1.358 . S
C898 C900 1.356 . S
C898 H952 0.930 . S
C899 N897 1.279 . S
C899 C898 1.358 . S
C899 H903 0.930 . S
C900 C898 1.356 . S
C900 C901 1.348 . S
C901 C896 1.353 . S
C901 C900 1.348 . S
C901 H953 0.929 . S
H902 C896 0.930 . S
H903 C899 0.930 . S
C904 N905 1.314 . S
C904 C906 1.353 . S
C904 H910 0.930 . S
N905 Li881 1.990 . S
N905 C904 1.314 . S
N905 C908 1.279 . S
C906 C904 1.353 . S
C906 C909 1.348 . S
C906 H954 0.929 . S
C907 C908 1.358 . S
C907 C909 1.356 . S
C907 H955 0.930 . S
C908 N905 1.279 . S
C908 C907 1.358 . S
C908 H911 0.930 . S
C909 C906 1.348 . S
C909 C907 1.356 . S
H910 C904 0.930 . S
H911 C908 0.930 . S
C912 C914 1.348 1_554 S
C912 C915 1.356 1_554 S
C912 O942 1.325 . S
N913 C916 1.314 . S
N913 C917 1.279 . S
C914 C912 1.348 1_556 S
C914 C916 1.353 . S
C914 H956 0.929 . S
C915 C912 1.356 1_556 S
C915 C917 1.358 . S
C915 H957 0.930 . S
C916 N913 1.314 . S
C916 C914 1.353 . S
C916 H958 0.930 . S
C917 N913 1.279 . S
C917 C915 1.358 . S
C917 H959 0.930 . S
C918 C919 1.348 . S
C918 C920 1.356 . S
C918 O943 1.325 . S
C919 C918 1.348 . S
C919 C921 1.353 . S
C919 H960 0.929 . S
C920 C918 1.356 . S
C920 C922 1.358 . S
C920 H961 0.930 . S
C921 C919 1.353 . S
C921 N923 1.314 . S
C921 H962 0.930 . S
C922 C920 1.358 . S
C922 N923 1.279 . S
C922 H963 0.930 . S
N923 C921 1.314 . S
N923 C922 1.279 . S
C924 C926 1.353 1_554 S
C924 N927 1.313 1_554 S
C924 H930 0.930 . S
C925 N927 1.284 . S
C925 C928 1.358 . S
C925 H931 0.930 . S
C926 C924 1.353 1_556 S
C926 C929 1.348 . S
C926 H964 0.929 . S
N927 Li882 1.986 1_556 S
N927 C924 1.313 1_556 S
N927 C925 1.284 . S
C928 C925 1.358 . S
C928 C929 1.356 . S
C928 H965 0.930 . S
C929 C926 1.348 . S
C929 C928 1.356 . S
H930 C924 0.930 . S
H931 C925 0.930 . S
C932 N933 1.314 . S
C932 C934 1.353 . S
C932 H938 0.930 . S
N933 Li883 1.990 . S
N933 C932 1.314 . S
N933 C936 1.279 . S
C934 C932 1.353 . S
C934 C937 1.348 . S
C934 H966 0.929 . S
C935 C936 1.358 . S
C935 C937 1.356 . S
C935 H967 0.930 . S
C936 N933 1.279 . S
C936 C935 1.358 . S
C936 H939 0.930 . S
C937 C934 1.348 . S
C937 C935 1.356 . S
H938 C932 0.930 . S
H939 C936 0.930 . S
O940 Li880 1.956 . S
O940 Li881 1.970 . S
O940 Li882 1.961 . S
O940 C884 1.325 . S
O941 Li880 1.970 . S
O941 Li881 1.956 . S
O941 Li883 1.961 . S
O941 C890 1.325 . S
O942 Li880 1.961 . S
O942 Li882 1.956 . S
O942 Li883 1.970 . S
O942 C912 1.325 . S
O943 Li881 1.961 . S
O943 Li882 1.970 . S
O943 Li883 1.956 . S
O943 C918 1.325 . S
H944 C886 0.929 . S
H945 C887 0.930 . S
H946 C888 0.930 . S
H947 C889 0.930 . S
H948 C891 0.930 . S
H949 C893 0.929 . S
H950 C894 0.930 . S
H951 C895 0.930 . S
H952 C898 0.930 . S
H953 C901 0.929 . S
H954 C906 0.929 . S
H955 C907 0.930 . S
H956 C914 0.929 . S
H957 C915 0.930 . S
H958 C916 0.930 . S
H959 C917 0.930 . S
H960 C919 0.929 . S
H961 C920 0.930 . S
H962 C921 0.930 . S
H963 C922 0.930 . S
H964 C926 0.929 . S
H965 C928 0.930 . S
H966 C934 0.929 . S
H967 C935 0.930 . S
Li968 N985 1.990 . S
Li968 O1028 1.956 . S
Li968 O1029 1.970 . S
Li968 O1030 1.961 . S
Li969 N993 1.990 . S
Li969 O1028 1.970 . S
Li969 O1029 1.956 . S
Li969 O1031 1.961 . S
Li970 N1015 1.990 . S
Li970 O1028 1.961 . S
Li970 O1030 1.956 . S
Li970 O1031 1.970 . S
Li971 N1021 1.990 . S
Li971 O1029 1.961 . S
Li971 O1030 1.970 . S
Li971 O1031 1.956 . S
C972 C974 1.348 . S
C972 C975 1.356 . S
C972 O1028 1.325 . S
N973 C976 1.314 . S
N973 C977 1.279 . S
C974 C972 1.348 . S
C974 C976 1.353 . S
C974 H1032 0.929 . S
C975 C972 1.356 . S
C975 C977 1.358 . S
C975 H1033 0.930 . S
C976 N973 1.314 . S
C976 C974 1.353 . S
C976 H1034 0.930 . S
C977 N973 1.279 . S
C977 C975 1.358 . S
C977 H1035 0.930 . S
C978 C981 1.348 . S
C978 C982 1.356 . S
C978 O1029 1.325 . S
C979 N980 1.279 . S
C979 C982 1.358 . S
C979 H1036 0.930 . S
N980 C979 1.279 . S
N980 C983 1.314 . S
C981 C978 1.348 . S
C981 C983 1.353 . S
C981 H1037 0.929 . S
C982 C978 1.356 . S
C982 C979 1.358 . S
C982 H1038 0.930 . S
C983 N980 1.314 . S
C983 C981 1.353 . S
C983 H1039 0.930 . S
C984 N985 1.314 . S
C984 C989 1.353 . S
C984 H990 0.930 . S
N985 Li968 1.990 . S
N985 C984 1.314 . S
N985 C987 1.279 . S
C986 C987 1.358 . S
C986 C988 1.356 . S
C986 H1040 0.930 . S
C987 N985 1.279 . S
C987 C986 1.358 . S
C987 H991 0.930 . S
C988 C986 1.356 . S
C988 C989 1.348 . S
C989 C984 1.353 . S
C989 C988 1.348 . S
C989 H1041 0.929 . S
H990 C984 0.930 . S
H991 C987 0.930 . S
C992 N993 1.314 . S
C992 C994 1.353 . S
C992 H998 0.930 . S
N993 Li969 1.990 . S
N993 C992 1.314 . S
N993 C996 1.279 . S
C994 C992 1.353 . S
C994 C997 1.348 . S
C994 H1042 0.929 . S
C995 C996 1.358 . S
C995 C997 1.356 . S
C995 H1043 0.930 . S
C996 N993 1.279 . S
C996 C995 1.358 . S
C996 H999 0.930 . S
C997 C994 1.348 . S
C997 C995 1.356 . S
H998 C992 0.930 . S
H999 C996 0.930 . S
C1000 C1002 1.348 . S
C1000 C1003 1.356 . S
C1000 O1030 1.325 . S
N1001 C1004 1.314 . S
N1001 C1005 1.279 . S
C1002 C1000 1.348 . S
C1002 C1004 1.353 . S
C1002 H1044 0.929 . S
C1003 C1000 1.356 . S
C1003 C1005 1.358 . S
C1003 H1045 0.930 . S
C1004 N1001 1.314 . S
C1004 C1002 1.353 . S
C1004 H1046 0.930 . S
C1005 N1001 1.279 . S
C1005 C1003 1.358 . S
C1005 H1047 0.930 . S
C1006 C1007 1.348 . S
C1006 C1008 1.356 . S
C1006 O1031 1.325 . S
C1007 C1006 1.348 . S
C1007 C1009 1.353 . S
C1007 H1048 0.929 . S
C1008 C1006 1.356 . S
C1008 C1010 1.358 . S
C1008 H1049 0.930 . S
C1009 C1007 1.353 . S
C1009 N1011 1.314 . S
C1009 H1050 0.930 . S
C1010 C1008 1.358 . S
C1010 N1011 1.279 . S
C1010 H1051 0.930 . S
N1011 C1009 1.314 . S
N1011 C1010 1.279 . S
C1012 C1014 1.353 . S
C1012 N1015 1.314 . S
C1012 H1018 0.930 . S
C1013 N1015 1.279 . S
C1013 C1016 1.358 . S
C1013 H1019 0.930 . S
C1014 C1012 1.353 . S
C1014 C1017 1.348 . S
C1014 H1052 0.929 . S
N1015 Li970 1.990 . S
N1015 C1012 1.314 . S
N1015 C1013 1.279 . S
C1016 C1013 1.358 . S
C1016 C1017 1.356 . S
C1016 H1053 0.930 . S
C1017 C1014 1.348 . S
C1017 C1016 1.356 . S
H1018 C1012 0.930 . S
H1019 C1013 0.930 . S
C1020 N1021 1.314 . S
C1020 C1022 1.353 . S
C1020 H1026 0.930 . S
N1021 Li971 1.990 . S
N1021 C1020 1.314 . S
N1021 C1024 1.279 . S
C1022 C1020 1.353 . S
C1022 C1025 1.348 . S
C1022 H1054 0.929 . S
C1023 C1024 1.358 . S
C1023 C1025 1.356 . S
C1023 H1055 0.930 . S
C1024 N1021 1.279 . S
C1024 C1023 1.358 . S
C1024 H1027 0.930 . S
C1025 C1022 1.348 . S
C1025 C1023 1.356 . S
H1026 C1020 0.930 . S
H1027 C1024 0.930 . S
O1028 Li968 1.956 . S
O1028 Li969 1.970 . S
O1028 Li970 1.961 . S
O1028 C972 1.325 . S
O1029 Li968 1.970 . S
O1029 Li969 1.956 . S
O1029 Li971 1.961 . S
O1029 C978 1.325 . S
O1030 Li968 1.961 . S
O1030 Li970 1.956 . S
O1030 Li971 1.970 . S
O1030 C1000 1.325 . S
O1031 Li969 1.961 . S
O1031 Li970 1.970 . S
O1031 Li971 1.956 . S
O1031 C1006 1.325 . S
H1032 C974 0.929 . S
H1033 C975 0.930 . S
H1034 C976 0.930 . S
H1035 C977 0.930 . S
H1036 C979 0.930 . S
H1037 C981 0.929 . S
H1038 C982 0.930 . S
H1039 C983 0.930 . S
H1040 C986 0.930 . S
H1041 C989 0.929 . S
H1042 C994 0.929 . S
H1043 C995 0.930 . S
H1044 C1002 0.929 . S
H1045 C1003 0.930 . S
H1046 C1004 0.930 . S
H1047 C1005 0.930 . S
H1048 C1007 0.929 . S
H1049 C1008 0.930 . S
H1050 C1009 0.930 . S
H1051 C1010 0.930 . S
H1052 C1014 0.929 . S
H1053 C1016 0.930 . S
H1054 C1022 0.929 . S
H1055 C1023 0.930 . S
H1056 C1074 0.951 . S
H1057 C1076 0.951 . S
H1058 C1078 0.950 . S
H1059 C1079 0.950 . S
H1060 C1081 0.950 . S
H1061 C1084 0.950 . S
H1062 C1085 0.950 . S
H1063 C1087 0.950 . S
H1064 C1088 0.950 . S
H1065 C1089 0.951 . S
H1066 C1091 0.951 . S
H1067 C1093 0.950 . S
H1068 C1094 0.950 . S
H1069 C1096 0.950 . S
H1070 C1099 0.950 . S
H1071 C1100 0.950 . S
H1072 C1102 0.950 . S
H1073 C1103 0.950 . S
C1074 H1056 0.951 . S
C1074 C1075 1.366 . S
C1074 C1076 1.388 . S
C1075 C1074 1.366 . S
C1075 C1079 1.385 . S
C1076 H1057 0.951 . S
C1076 C1074 1.388 . S
C1076 C1077 1.366 . S
C1077 C1076 1.366 . S
C1077 C1078 1.414 . S
C1077 C1080 1.499 . S
C1078 H1058 0.950 . S
C1078 C1077 1.414 . S
C1078 C1079 1.374 . S
C1079 H1059 0.950 . S
C1079 C1075 1.385 . S
C1079 C1078 1.374 . S
C1080 C1077 1.499 . S
C1080 C1081 1.373 . S
C1080 C1082 1.389 . S
C1081 H1060 0.950 . S
C1081 C1080 1.373 . S
C1081 C1097 1.377 . S
C1082 C1080 1.389 . S
C1082 C1083 1.524 . S
C1082 C1096 1.377 . S
C1083 C1082 1.524 . S
C1083 C1084 1.397 . S
C1083 C1088 1.363 . S
C1084 H1061 0.950 . S
C1084 C1083 1.397 . S
C1084 C1085 1.334 . S
C1085 H1062 0.950 . S
C1085 C1084 1.334 . S
C1085 C1086 1.287 . S
C1086 C1085 1.287 . S
C1086 C1087 1.524 . S
C1086 H1105 0.913 . S
C1087 H1063 0.950 . S
C1087 C1086 1.524 . S
C1087 C1088 1.415 . S
C1088 H1064 0.950 . S
C1088 C1083 1.363 . S
C1088 C1087 1.415 . S
C1089 H1065 0.951 . S
C1089 C1090 1.366 . S
C1089 C1091 1.388 . S
C1090 C1089 1.366 . S
C1090 C1094 1.385 . S
C1091 H1066 0.951 . S
C1091 C1089 1.388 . S
C1091 C1092 1.366 . S
C1092 C1091 1.366 . S
C1092 C1093 1.414 . S
C1092 C1095 1.499 . S
C1093 H1067 0.950 . S
C1093 C1092 1.414 . S
C1093 C1094 1.374 . S
C1094 H1068 0.950 . S
C1094 C1090 1.385 . S
C1094 C1093 1.374 . S
C1095 C1092 1.499 . S
C1095 C1096 1.373 . S
C1095 C1097 1.389 . S
C1096 H1069 0.950 . S
C1096 C1082 1.377 . S
C1096 C1095 1.373 . S
C1097 C1081 1.377 . S
C1097 C1095 1.389 . S
C1097 C1098 1.524 . S
C1098 C1097 1.524 . S
C1098 C1099 1.397 . S
C1098 C1103 1.363 . S
C1099 H1070 0.950 . S
C1099 C1098 1.397 . S
C1099 C1100 1.334 . S
C1100 H1071 0.950 . S
C1100 C1099 1.334 . S
C1100 C1101 1.287 . S
C1101 C1100 1.287 . S
C1101 C1102 1.524 . S
C1101 H1104 0.999 . S
C1102 H1072 0.950 . S
C1102 C1101 1.524 . S
C1102 C1103 1.415 . S
C1103 H1073 0.950 . S
C1103 C1098 1.363 . S
C1103 C1102 1.415 . S
H1104 C1101 0.999 . S
H1105 C1086 0.913 . S
H1106 C1124 0.951 . S
H1107 C1126 0.951 . S
H1108 C1128 0.950 . S
H1109 C1129 0.950 . S
H1110 C1131 0.950 . S
H1111 C1134 0.950 . S
H1112 C1135 0.950 . S
H1113 C1137 0.950 . S
H1114 C1138 0.950 . S
H1115 C1139 0.951 . S
H1116 C1141 0.951 . S
H1117 C1143 0.950 . S
H1118 C1144 0.950 . S
H1119 C1146 0.950 . S
H1120 C1149 0.950 . S
H1121 C1150 0.950 . S
H1122 C1152 0.950 . S
H1123 C1153 0.950 . S
C1124 H1106 0.951 . S
C1124 C1125 1.366 . S
C1124 C1126 1.388 . S
C1125 C1124 1.366 . S
C1125 C1129 1.385 . S
C1126 H1107 0.951 . S
C1126 C1124 1.388 . S
C1126 C1127 1.366 . S
C1127 C1126 1.366 . S
C1127 C1128 1.414 . S
C1127 C1130 1.499 . S
C1128 H1108 0.950 . S
C1128 C1127 1.414 . S
C1128 C1129 1.374 . S
C1129 H1109 0.950 . S
C1129 C1125 1.385 . S
C1129 C1128 1.374 . S
C1130 C1127 1.499 . S
C1130 C1131 1.373 . S
C1130 C1132 1.389 1_455 S
C1131 H1110 0.950 . S
C1131 C1130 1.373 . S
C1131 C1147 1.377 . S
C1132 C1130 1.389 1_655 S
C1132 C1133 1.524 . S
C1132 C1146 1.377 . S
C1133 C1132 1.524 . S
C1133 C1134 1.397 . S
C1133 C1138 1.363 . S
C1134 H1111 0.950 . S
C1134 C1133 1.397 . S
C1134 C1135 1.334 . S
C1135 H1112 0.950 . S
C1135 C1134 1.334 . S
C1135 C1136 1.287 . S
C1136 C1135 1.287 . S
C1136 C1137 1.524 . S
C1136 H1155 0.913 . S
C1137 H1113 0.950 . S
C1137 C1136 1.524 . S
C1137 C1138 1.415 . S
C1138 H1114 0.950 . S
C1138 C1133 1.363 . S
C1138 C1137 1.415 . S
C1139 H1115 0.951 . S
C1139 C1140 1.366 . S
C1139 C1141 1.388 . S
C1140 C1139 1.366 . S
C1140 C1144 1.385 . S
C1141 H1116 0.951 . S
C1141 C1139 1.388 . S
C1141 C1142 1.366 . S
C1142 C1141 1.366 . S
C1142 C1143 1.414 . S
C1142 C1145 1.499 . S
C1143 H1117 0.950 . S
C1143 C1142 1.414 . S
C1143 C1144 1.374 . S
C1144 H1118 0.950 . S
C1144 C1140 1.385 . S
C1144 C1143 1.374 . S
C1145 C1142 1.499 . S
C1145 C1146 1.373 . S
C1145 C1147 1.389 1_655 S
C1146 H1119 0.950 . S
C1146 C1132 1.377 . S
C1146 C1145 1.373 . S
C1147 C1131 1.377 . S
C1147 C1145 1.389 1_455 S
C1147 C1148 1.524 . S
C1148 C1147 1.524 . S
C1148 C1149 1.397 . S
C1148 C1153 1.363 . S
C1149 H1120 0.950 . S
C1149 C1148 1.397 . S
C1149 C1150 1.334 . S
C1150 H1121 0.950 . S
C1150 C1149 1.334 . S
C1150 C1151 1.287 . S
C1151 C1150 1.287 . S
C1151 C1152 1.524 . S
C1151 H1154 0.999 . S
C1152 H1122 0.950 . S
C1152 C1151 1.524 . S
C1152 C1153 1.415 . S
C1153 H1123 0.950 . S
C1153 C1148 1.363 . S
C1153 C1152 1.415 . S
H1154 C1151 0.999 . S
H1155 C1136 0.913 . S
H1156 C1174 0.951 . S
H1157 C1176 0.951 . S
H1158 C1178 0.950 . S
H1159 C1179 0.950 . S
H1160 C1181 0.950 . S
H1161 C1184 0.950 . S
H1162 C1185 0.950 . S
H1163 C1187 0.950 . S
H1164 C1188 0.950 . S
H1165 C1189 0.951 . S
H1166 C1191 0.951 . S
H1167 C1193 0.950 . S
H1168 C1194 0.950 . S
H1169 C1196 0.950 . S
H1170 C1199 0.950 . S
H1171 C1200 0.950 . S
H1172 C1202 0.950 . S
H1173 C1203 0.950 . S
C1174 H1156 0.951 . S
C1174 C1175 1.366 . S
C1174 C1176 1.388 . S
C1175 C1174 1.366 . S
C1175 C1179 1.385 . S
C1176 H1157 0.951 . S
C1176 C1174 1.388 . S
C1176 C1177 1.366 . S
C1177 C1176 1.366 . S
C1177 C1178 1.414 . S
C1177 C1180 1.499 . S
C1178 H1158 0.950 . S
C1178 C1177 1.414 . S
C1178 C1179 1.374 . S
C1179 H1159 0.950 . S
C1179 C1175 1.385 . S
C1179 C1178 1.374 . S
C1180 C1177 1.499 . S
C1180 C1181 1.373 1_565 S
C1180 C1182 1.389 . S
C1181 H1160 0.950 . S
C1181 C1180 1.373 1_545 S
C1181 C1197 1.377 . S
C1182 C1180 1.389 . S
C1182 C1183 1.524 . S
C1182 C1196 1.377 . S
C1183 C1182 1.524 . S
C1183 C1184 1.397 . S
C1183 C1188 1.363 . S
C1184 H1161 0.950 . S
C1184 C1183 1.397 . S
C1184 C1185 1.334 . S
C1185 H1162 0.950 . S
C1185 C1184 1.334 . S
C1185 C1186 1.287 . S
C1186 C1185 1.287 . S
C1186 C1187 1.524 . S
C1186 H1205 0.913 . S
C1187 H1163 0.950 . S
C1187 C1186 1.524 . S
C1187 C1188 1.415 . S
C1188 H1164 0.950 . S
C1188 C1183 1.363 . S
C1188 C1187 1.415 . S
C1189 H1165 0.951 . S
C1189 C1190 1.366 . S
C1189 C1191 1.388 . S
C1190 C1189 1.366 . S
C1190 C1194 1.385 . S
C1191 H1166 0.951 . S
C1191 C1189 1.388 . S
C1191 C1192 1.366 . S
C1192 C1191 1.366 . S
C1192 C1193 1.414 . S
C1192 C1195 1.499 . S
C1193 H1167 0.950 . S
C1193 C1192 1.414 . S
C1193 C1194 1.374 . S
C1194 H1168 0.950 . S
C1194 C1190 1.385 . S
C1194 C1193 1.374 . S
C1195 C1192 1.499 . S
C1195 C1196 1.373 1_545 S
C1195 C1197 1.389 . S
C1196 H1169 0.950 . S
C1196 C1182 1.377 . S
C1196 C1195 1.373 1_565 S
C1197 C1181 1.377 . S
C1197 C1195 1.389 . S
C1197 C1198 1.524 . S
C1198 C1197 1.524 . S
C1198 C1199 1.397 . S
C1198 C1203 1.363 . S
C1199 H1170 0.950 . S
C1199 C1198 1.397 . S
C1199 C1200 1.334 . S
C1200 H1171 0.950 . S
C1200 C1199 1.334 . S
C1200 C1201 1.287 . S
C1201 C1200 1.287 . S
C1201 C1202 1.524 . S
C1201 H1204 0.999 . S
C1202 H1172 0.950 . S
C1202 C1201 1.524 . S
C1202 C1203 1.415 . S
C1203 H1173 0.950 . S
C1203 C1198 1.363 . S
C1203 C1202 1.415 . S
H1204 C1201 0.999 . S
H1205 C1186 0.913 . S
H1206 C1224 0.951 . S
H1207 C1226 0.951 . S
H1208 C1228 0.950 . S
H1209 C1229 0.950 . S
H1210 C1231 0.950 . S
H1211 C1234 0.950 . S
H1212 C1235 0.950 . S
H1213 C1237 0.950 . S
H1214 C1238 0.950 . S
H1215 C1239 0.951 . S
H1216 C1241 0.951 . S
H1217 C1243 0.950 . S
H1218 C1244 0.950 . S
H1219 C1246 0.950 . S
H1220 C1249 0.950 . S
H1221 C1250 0.950 . S
H1222 C1252 0.950 . S
H1223 C1253 0.950 . S
C1224 H1206 0.951 . S
C1224 C1225 1.366 . S
C1224 C1226 1.388 . S
C1225 C1224 1.366 . S
C1225 C1229 1.385 . S
C1226 H1207 0.951 . S
C1226 C1224 1.388 . S
C1226 C1227 1.366 . S
C1227 C1226 1.366 . S
C1227 C1228 1.414 . S
C1227 C1230 1.499 . S
C1228 H1208 0.950 . S
C1228 C1227 1.414 . S
C1228 C1229 1.374 . S
C1229 H1209 0.950 . S
C1229 C1225 1.385 . S
C1229 C1228 1.374 . S
C1230 C1227 1.499 . S
C1230 C1231 1.373 . S
C1230 C1232 1.389 . S
C1231 H1210 0.950 . S
C1231 C1230 1.373 . S
C1231 C1247 1.377 . S
C1232 C1230 1.389 . S
C1232 C1233 1.524 . S
C1232 C1246 1.377 . S
C1233 C1232 1.524 . S
C1233 C1234 1.397 . S
C1233 C1238 1.363 . S
C1234 H1211 0.950 . S
C1234 C1233 1.397 . S
C1234 C1235 1.334 . S
C1235 H1212 0.950 . S
C1235 C1234 1.334 . S
C1235 C1236 1.287 . S
C1236 C1235 1.287 . S
C1236 C1237 1.524 . S
C1236 H1255 0.913 . S
C1237 H1213 0.950 . S
C1237 C1236 1.524 . S
C1237 C1238 1.415 . S
C1238 H1214 0.950 . S
C1238 C1233 1.363 . S
C1238 C1237 1.415 . S
C1239 H1215 0.951 . S
C1239 C1240 1.366 . S
C1239 C1241 1.388 . S
C1240 C1239 1.366 . S
C1240 C1244 1.385 . S
C1241 H1216 0.951 . S
C1241 C1239 1.388 . S
C1241 C1242 1.366 . S
C1242 C1241 1.366 . S
C1242 C1243 1.414 . S
C1242 C1245 1.499 . S
C1243 H1217 0.950 . S
C1243 C1242 1.414 . S
C1243 C1244 1.374 . S
C1244 H1218 0.950 . S
C1244 C1240 1.385 . S
C1244 C1243 1.374 . S
C1245 C1242 1.499 . S
C1245 C1246 1.373 . S
C1245 C1247 1.389 . S
C1246 H1219 0.950 . S
C1246 C1232 1.377 . S
C1246 C1245 1.373 . S
C1247 C1231 1.377 . S
C1247 C1245 1.389 . S
C1247 C1248 1.524 . S
C1248 C1247 1.524 . S
C1248 C1249 1.397 . S
C1248 C1253 1.363 . S
C1249 H1220 0.950 . S
C1249 C1248 1.397 . S
C1249 C1250 1.334 . S
C1250 H1221 0.950 . S
C1250 C1249 1.334 . S
C1250 C1251 1.287 . S
C1251 C1250 1.287 . S
C1251 C1252 1.524 . S
C1251 H1254 0.999 . S
C1252 H1222 0.950 . S
C1252 C1251 1.524 . S
C1252 C1253 1.415 . S
C1253 H1223 0.950 . S
C1253 C1248 1.363 . S
C1253 C1252 1.415 . S
H1254 C1251 0.999 . S
H1255 C1236 0.913 . S
H1256 C1274 0.951 . S
H1257 C1276 0.951 . S
H1258 C1278 0.950 . S
H1259 C1279 0.950 . S
H1260 C1281 0.938 . S
H1261 C1284 0.950 . S
H1262 C1285 0.950 . S
H1263 C1287 0.950 . S
H1264 C1288 0.950 . S
H1265 C1289 0.951 . S
H1266 C1291 0.951 . S
H1267 C1293 0.950 . S
H1268 C1294 0.950 . S
H1269 C1296 0.938 . S
H1270 C1299 0.950 . S
H1271 C1300 0.950 . S
H1272 C1302 0.950 . S
H1273 C1303 0.950 . S
C1274 H1256 0.951 . S
C1274 C1275 1.366 . S
C1274 C1276 1.388 . S
C1275 C1274 1.366 . S
C1275 C1279 1.385 . S
C1276 H1257 0.951 . S
C1276 C1274 1.388 . S
C1276 C1277 1.366 . S
C1277 C1276 1.366 . S
C1277 C1278 1.414 . S
C1277 C1280 1.499 . S
C1278 H1258 0.950 . S
C1278 C1277 1.414 . S
C1278 C1279 1.374 . S
C1279 H1259 0.950 . S
C1279 C1275 1.385 . S
C1279 C1278 1.374 . S
C1280 C1277 1.499 . S
C1280 C1281 1.333 1_455 S
C1280 C1282 1.389 . S
C1281 H1260 0.938 . S
C1281 C1280 1.333 1_655 S
C1281 C1297 1.436 . S
C1282 C1280 1.389 . S
C1282 C1283 1.524 . S
C1282 C1296 1.437 . S
C1283 C1282 1.524 . S
C1283 C1284 1.397 . S
C1283 C1288 1.363 . S
C1284 H1261 0.950 . S
C1284 C1283 1.397 . S
C1284 C1285 1.334 . S
C1285 H1262 0.950 . S
C1285 C1284 1.334 . S
C1285 C1286 1.287 . S
C1286 C1285 1.287 . S
C1286 C1287 1.524 . S
C1286 H1305 0.913 . S
C1287 H1263 0.950 . S
C1287 C1286 1.524 . S
C1287 C1288 1.415 . S
C1288 H1264 0.950 . S
C1288 C1283 1.363 . S
C1288 C1287 1.415 . S
C1289 H1265 0.951 . S
C1289 C1290 1.366 . S
C1289 C1291 1.388 . S
C1290 C1289 1.366 . S
C1290 C1294 1.385 . S
C1291 H1266 0.951 . S
C1291 C1289 1.388 . S
C1291 C1292 1.366 . S
C1292 C1291 1.366 . S
C1292 C1293 1.414 . S
C1292 C1295 1.499 . S
C1293 H1267 0.950 . S
C1293 C1292 1.414 . S
C1293 C1294 1.374 . S
C1294 H1268 0.950 . S
C1294 C1290 1.385 . S
C1294 C1293 1.374 . S
C1295 C1292 1.499 . S
C1295 C1296 1.332 1_655 S
C1295 C1297 1.389 . S
C1296 H1269 0.938 . S
C1296 C1282 1.437 . S
C1296 C1295 1.332 1_455 S
C1297 C1281 1.436 . S
C1297 C1295 1.389 . S
C1297 C1298 1.524 . S
C1298 C1297 1.524 . S
C1298 C1299 1.397 . S
C1298 C1303 1.363 . S
C1299 H1270 0.950 . S
C1299 C1298 1.397 . S
C1299 C1300 1.334 . S
C1300 H1271 0.950 . S
C1300 C1299 1.334 . S
C1300 C1301 1.287 . S
C1301 C1300 1.287 . S
C1301 C1302 1.524 . S
C1301 H1304 0.999 . S
C1302 H1272 0.950 . S
C1302 C1301 1.524 . S
C1302 C1303 1.415 . S
C1303 H1273 0.950 . S
C1303 C1298 1.363 . S
C1303 C1302 1.415 . S
H1304 C1301 0.999 . S
H1305 C1286 0.913 . S
H1306 C1324 0.951 . S
H1307 C1326 0.951 . S
H1308 C1328 0.950 . S
H1309 C1329 0.950 . S
H1310 C1331 0.950 . S
H1311 C1334 0.950 . S
H1312 C1335 0.950 . S
H1313 C1337 0.950 . S
H1314 C1338 0.950 . S
H1315 C1339 0.951 . S
H1316 C1341 0.951 . S
H1317 C1343 0.950 . S
H1318 C1344 0.950 . S
H1319 C1346 0.950 . S
H1320 C1349 0.950 . S
H1321 C1350 0.950 . S
H1322 C1352 0.950 . S
H1323 C1353 0.950 . S
C1324 H1306 0.951 . S
C1324 C1325 1.366 . S
C1324 C1326 1.388 . S
C1325 C1324 1.366 . S
C1325 C1329 1.385 . S
C1326 H1307 0.951 . S
C1326 C1324 1.388 . S
C1326 C1327 1.366 . S
C1327 C1326 1.366 . S
C1327 C1328 1.414 . S
C1327 C1330 1.499 . S
C1328 H1308 0.950 . S
C1328 C1327 1.414 . S
C1328 C1329 1.374 . S
C1329 H1309 0.950 . S
C1329 C1325 1.385 . S
C1329 C1328 1.374 . S
C1330 C1327 1.499 . S
C1330 C1331 1.388 . S
C1330 C1332 1.405 . S
C1331 H1310 0.950 . S
C1331 C1330 1.388 . S
C1331 C1347 1.351 1_546 S
C1332 C1330 1.405 . S
C1332 C1333 1.518 1_545 S
C1332 C1346 1.353 1_546 S
C1333 C1332 1.518 1_565 S
C1333 C1334 1.397 . S
C1333 C1338 1.363 . S
C1334 H1311 0.950 . S
C1334 C1333 1.397 . S
C1334 C1335 1.334 . S
C1335 H1312 0.950 . S
C1335 C1334 1.334 . S
C1335 C1336 1.287 . S
C1336 C1335 1.287 . S
C1336 C1337 1.524 . S
C1336 H1355 0.913 . S
C1337 H1313 0.950 . S
C1337 C1336 1.524 . S
C1337 C1338 1.415 . S
C1338 H1314 0.950 . S
C1338 C1333 1.363 . S
C1338 C1337 1.415 . S
C1339 H1315 0.951 . S
C1339 C1340 1.366 . S
C1339 C1341 1.388 . S
C1340 C1339 1.366 . S
C1340 C1344 1.385 . S
C1341 H1316 0.951 . S
C1341 C1339 1.388 . S
C1341 C1342 1.366 . S
C1342 C1341 1.366 . S
C1342 C1343 1.414 . S
C1342 C1345 1.499 . S
C1343 H1317 0.950 . S
C1343 C1342 1.414 . S
C1343 C1344 1.374 . S
C1344 H1318 0.950 . S
C1344 C1340 1.385 . S
C1344 C1343 1.374 . S
C1345 C1342 1.499 . S
C1345 C1346 1.387 . S
C1345 C1347 1.405 . S
C1346 H1319 0.950 . S
C1346 C1332 1.353 1_564 S
C1346 C1345 1.387 . S
C1347 C1331 1.351 1_564 S
C1347 C1345 1.405 . S
C1347 C1348 1.518 1_565 S
C1348 C1347 1.518 1_545 S
C1348 C1349 1.397 . S
C1348 C1353 1.363 . S
C1349 H1320 0.950 . S
C1349 C1348 1.397 . S
C1349 C1350 1.334 . S
C1350 H1321 0.950 . S
C1350 C1349 1.334 . S
C1350 C1351 1.287 . S
C1351 C1350 1.287 . S
C1351 C1352 1.524 . S
C1351 H1354 0.999 . S
C1352 H1322 0.950 . S
C1352 C1351 1.524 . S
C1352 C1353 1.415 . S
C1353 H1323 0.950 . S
C1353 C1348 1.363 . S
C1353 C1352 1.415 . S
H1354 C1351 0.999 . S
H1355 C1336 0.913 . S
H1356 C1374 0.951 . S
H1357 C1376 0.951 . S
H1358 C1378 0.950 . S
H1359 C1379 0.950 . S
H1360 C1381 0.950 . S
H1361 C1384 0.950 . S
H1362 C1385 0.950 . S
H1363 C1387 0.950 . S
H1364 C1388 0.950 . S
H1365 C1389 0.951 . S
H1366 C1391 0.951 . S
H1367 C1393 0.950 . S
H1368 C1394 0.950 . S
H1369 C1396 0.950 . S
H1370 C1399 0.950 . S
H1371 C1400 0.950 . S
H1372 C1402 0.950 . S
H1373 C1403 0.950 . S
C1374 H1356 0.951 . S
C1374 C1375 1.366 . S
C1374 C1376 1.388 . S
C1375 C1374 1.366 . S
C1375 C1379 1.385 . S
C1376 H1357 0.951 . S
C1376 C1374 1.388 . S
C1376 C1377 1.366 . S
C1377 C1376 1.366 . S
C1377 C1378 1.414 . S
C1377 C1380 1.499 . S
C1378 H1358 0.950 . S
C1378 C1377 1.414 . S
C1378 C1379 1.374 . S
C1379 H1359 0.950 . S
C1379 C1375 1.385 . S
C1379 C1378 1.374 . S
C1380 C1377 1.499 . S
C1380 C1381 1.373 . S
C1380 C1382 1.389 . S
C1381 H1360 0.950 . S
C1381 C1380 1.373 . S
C1381 C1397 1.377 . S
C1382 C1380 1.389 . S
C1382 C1383 1.524 . S
C1382 C1396 1.377 . S
C1383 C1382 1.524 . S
C1383 C1384 1.397 . S
C1383 C1388 1.363 . S
C1384 H1361 0.950 . S
C1384 C1383 1.397 . S
C1384 C1385 1.334 . S
C1385 H1362 0.950 . S
C1385 C1384 1.334 . S
C1385 C1386 1.287 . S
C1386 C1385 1.287 . S
C1386 C1387 1.524 . S
C1386 H1405 0.913 . S
C1387 H1363 0.950 . S
C1387 C1386 1.524 . S
C1387 C1388 1.415 . S
C1388 H1364 0.950 . S
C1388 C1383 1.363 . S
C1388 C1387 1.415 . S
C1389 H1365 0.951 . S
C1389 C1390 1.366 . S
C1389 C1391 1.388 . S
C1390 C1389 1.366 . S
C1390 C1394 1.385 . S
C1391 H1366 0.951 . S
C1391 C1389 1.388 . S
C1391 C1392 1.366 . S
C1392 C1391 1.366 . S
C1392 C1393 1.414 . S
C1392 C1395 1.499 . S
C1393 H1367 0.950 . S
C1393 C1392 1.414 . S
C1393 C1394 1.374 . S
C1394 H1368 0.950 . S
C1394 C1390 1.385 . S
C1394 C1393 1.374 . S
C1395 C1392 1.499 . S
C1395 C1396 1.373 . S
C1395 C1397 1.389 . S
C1396 H1369 0.950 . S
C1396 C1382 1.377 . S
C1396 C1395 1.373 . S
C1397 C1381 1.377 . S
C1397 C1395 1.389 . S
C1397 C1398 1.524 . S
C1398 C1397 1.524 . S
C1398 C1399 1.397 . S
C1398 C1403 1.363 . S
C1399 H1370 0.950 . S
C1399 C1398 1.397 . S
C1399 C1400 1.334 . S
C1400 H1371 0.950 . S
C1400 C1399 1.334 . S
C1400 C1401 1.287 . S
C1401 C1400 1.287 . S
C1401 C1402 1.524 . S
C1401 H1404 0.999 . S
C1402 H1372 0.950 . S
C1402 C1401 1.524 . S
C1402 C1403 1.415 . S
C1403 H1373 0.950 . S
C1403 C1398 1.363 . S
C1403 C1402 1.415 . S
H1404 C1401 0.999 . S
H1405 C1386 0.913 . S
H1406 C1424 0.951 . S
H1407 C1426 0.951 . S
H1408 C1428 0.950 . S
H1409 C1429 0.950 . S
H1410 C1431 0.950 . S
H1411 C1434 0.950 . S
H1412 C1435 0.950 . S
H1413 C1437 0.950 . S
H1414 C1438 0.950 . S
H1415 C1439 0.951 . S
H1416 C1441 0.951 . S
H1417 C1443 0.950 . S
H1418 C1444 0.950 . S
H1419 C1446 0.950 . S
H1420 C1449 0.950 . S
H1421 C1450 0.950 . S
H1422 C1452 0.950 . S
H1423 C1453 0.950 . S
C1424 H1406 0.951 . S
C1424 C1425 1.366 . S
C1424 C1426 1.388 . S
C1425 C1424 1.366 . S
C1425 C1429 1.385 . S
C1426 H1407 0.951 . S
C1426 C1424 1.388 . S
C1426 C1427 1.366 . S
C1427 C1426 1.366 . S
C1427 C1428 1.414 . S
C1427 C1430 1.499 . S
C1428 H1408 0.950 . S
C1428 C1427 1.414 . S
C1428 C1429 1.374 . S
C1429 H1409 0.950 . S
C1429 C1425 1.385 . S
C1429 C1428 1.374 . S
C1430 C1427 1.499 . S
C1430 C1431 1.373 . S
C1430 C1432 1.389 . S
C1431 H1410 0.950 . S
C1431 C1430 1.373 . S
C1431 C1447 1.377 . S
C1432 C1430 1.389 . S
C1432 C1433 1.524 . S
C1432 C1446 1.377 . S
C1433 C1432 1.524 . S
C1433 C1434 1.397 . S
C1433 C1438 1.363 . S
C1434 H1411 0.950 . S
C1434 C1433 1.397 . S
C1434 C1435 1.334 . S
C1435 H1412 0.950 . S
C1435 C1434 1.334 . S
C1435 C1436 1.287 . S
C1436 C1435 1.287 . S
C1436 C1437 1.524 . S
C1436 H1455 0.913 . S
C1437 H1413 0.950 . S
C1437 C1436 1.524 . S
C1437 C1438 1.415 . S
C1438 H1414 0.950 . S
C1438 C1433 1.363 . S
C1438 C1437 1.415 . S
C1439 H1415 0.951 . S
C1439 C1440 1.366 . S
C1439 C1441 1.388 . S
C1440 C1439 1.366 . S
C1440 C1444 1.385 . S
C1441 H1416 0.951 . S
C1441 C1439 1.388 . S
C1441 C1442 1.366 . S
C1442 C1441 1.366 . S
C1442 C1443 1.414 . S
C1442 C1445 1.499 . S
C1443 H1417 0.950 . S
C1443 C1442 1.414 . S
C1443 C1444 1.374 . S
C1444 H1418 0.950 . S
C1444 C1440 1.385 . S
C1444 C1443 1.374 . S
C1445 C1442 1.499 . S
C1445 C1446 1.373 . S
C1445 C1447 1.389 . S
C1446 H1419 0.950 . S
C1446 C1432 1.377 . S
C1446 C1445 1.373 . S
C1447 C1431 1.377 . S
C1447 C1445 1.389 . S
C1447 C1448 1.524 . S
C1448 C1447 1.524 . S
C1448 C1449 1.397 . S
C1448 C1453 1.363 . S
C1449 H1420 0.950 . S
C1449 C1448 1.397 . S
C1449 C1450 1.334 . S
C1450 H1421 0.950 . S
C1450 C1449 1.334 . S
C1450 C1451 1.287 . S
C1451 C1450 1.287 . S
C1451 C1452 1.524 . S
C1451 H1454 0.999 . S
C1452 H1422 0.950 . S
C1452 C1451 1.524 . S
C1452 C1453 1.415 . S
C1453 H1423 0.950 . S
C1453 C1448 1.363 . S
C1453 C1452 1.415 . S
H1454 C1451 0.999 . S
H1455 C1436 0.913 . S
H1456 C1474 0.951 . S
H1457 C1476 0.951 . S
H1458 C1478 0.950 . S
H1459 C1479 0.950 . S
H1460 C1481 0.950 . S
H1461 C1484 0.950 . S
H1462 C1485 0.950 . S
H1463 C1487 0.950 . S
H1464 C1488 0.950 . S
H1465 C1489 0.951 . S
H1466 C1491 0.951 . S
H1467 C1493 0.950 . S
H1468 C1494 0.950 . S
H1469 C1496 0.950 . S
H1470 C1499 0.950 . S
H1471 C1500 0.950 . S
H1472 C1502 0.950 . S
H1473 C1503 0.950 . S
C1474 H1456 0.951 . S
C1474 C1475 1.366 . S
C1474 C1476 1.388 . S
C1475 C1474 1.366 . S
C1475 C1479 1.385 . S
C1476 H1457 0.951 . S
C1476 C1474 1.388 . S
C1476 C1477 1.366 . S
C1477 C1476 1.366 . S
C1477 C1478 1.414 . S
C1477 C1480 1.499 . S
C1478 H1458 0.950 . S
C1478 C1477 1.414 . S
C1478 C1479 1.374 . S
C1479 H1459 0.950 . S
C1479 C1475 1.385 . S
C1479 C1478 1.374 . S
C1480 C1477 1.499 . S
C1480 C1481 1.373 . S
C1480 C1482 1.389 . S
C1481 H1460 0.950 . S
C1481 C1480 1.373 . S
C1481 C1497 1.377 . S
C1482 C1480 1.389 . S
C1482 C1483 1.524 . S
C1482 C1496 1.377 . S
C1483 C1482 1.524 . S
C1483 C1484 1.397 . S
C1483 C1488 1.363 . S
C1484 H1461 0.950 . S
C1484 C1483 1.397 . S
C1484 C1485 1.334 . S
C1485 H1462 0.950 . S
C1485 C1484 1.334 . S
C1485 C1486 1.287 . S
C1486 C1485 1.287 . S
C1486 C1487 1.524 . S
C1486 H1505 0.913 . S
C1487 H1463 0.950 . S
C1487 C1486 1.524 . S
C1487 C1488 1.415 . S
C1488 H1464 0.950 . S
C1488 C1483 1.363 . S
C1488 C1487 1.415 . S
C1489 H1465 0.951 . S
C1489 C1490 1.366 . S
C1489 C1491 1.388 . S
C1490 C1489 1.366 . S
C1490 C1494 1.385 . S
C1491 H1466 0.951 . S
C1491 C1489 1.388 . S
C1491 C1492 1.366 . S
C1492 C1491 1.366 . S
C1492 C1493 1.414 . S
C1492 C1495 1.499 . S
C1493 H1467 0.950 . S
C1493 C1492 1.414 . S
C1493 C1494 1.374 . S
C1494 H1468 0.950 . S
C1494 C1490 1.385 . S
C1494 C1493 1.374 . S
C1495 C1492 1.499 . S
C1495 C1496 1.373 . S
C1495 C1497 1.389 . S
C1496 H1469 0.950 . S
C1496 C1482 1.377 . S
C1496 C1495 1.373 . S
C1497 C1481 1.377 . S
C1497 C1495 1.389 . S
C1497 C1498 1.524 . S
C1498 C1497 1.524 . S
C1498 C1499 1.397 . S
C1498 C1503 1.363 . S
C1499 H1470 0.950 . S
C1499 C1498 1.397 . S
C1499 C1500 1.334 . S
C1500 H1471 0.950 . S
C1500 C1499 1.334 . S
C1500 C1501 1.287 . S
C1501 C1500 1.287 . S
C1501 C1502 1.524 . S
C1501 H1504 0.999 . S
C1502 H1472 0.950 . S
C1502 C1501 1.524 . S
C1502 C1503 1.415 . S
C1503 H1473 0.950 . S
C1503 C1498 1.363 . S
C1503 C1502 1.415 . S
H1504 C1501 0.999 . S
H1505 C1486 0.913 . S
H1506 C1524 0.951 . S
H1507 C1526 0.951 . S
H1508 C1528 0.950 . S
H1509 C1529 0.950 . S
H1510 C1531 0.950 . S
H1511 C1534 0.950 . S
H1512 C1535 0.950 . S
H1513 C1537 0.950 . S
H1514 C1538 0.950 . S
H1515 C1539 0.951 . S
H1516 C1541 0.951 . S
H1517 C1543 0.950 . S
H1518 C1544 0.950 . S
H1519 C1546 0.950 . S
H1520 C1549 0.950 . S
H1521 C1550 0.950 . S
H1522 C1552 0.950 . S
H1523 C1553 0.950 . S
C1524 H1506 0.951 . S
C1524 C1525 1.366 . S
C1524 C1526 1.388 . S
C1525 C1524 1.366 . S
C1525 C1529 1.385 . S
C1526 H1507 0.951 . S
C1526 C1524 1.388 . S
C1526 C1527 1.366 . S
C1527 C1526 1.366 . S
C1527 C1528 1.414 . S
C1527 C1530 1.499 . S
C1528 H1508 0.950 . S
C1528 C1527 1.414 . S
C1528 C1529 1.374 . S
C1529 H1509 0.950 . S
C1529 C1525 1.385 . S
C1529 C1528 1.374 . S
C1530 C1527 1.499 . S
C1530 C1531 1.373 . S
C1530 C1532 1.389 . S
C1531 H1510 0.950 . S
C1531 C1530 1.373 . S
C1531 C1547 1.377 . S
C1532 C1530 1.389 . S
C1532 C1533 1.524 . S
C1532 C1546 1.377 . S
C1533 C1532 1.524 . S
C1533 C1534 1.397 . S
C1533 C1538 1.363 . S
C1534 H1511 0.950 . S
C1534 C1533 1.397 . S
C1534 C1535 1.334 1_556 S
C1535 H1512 0.950 . S
C1535 C1534 1.334 1_554 S
C1535 C1536 1.287 . S
C1536 C1535 1.287 . S
C1536 C1537 1.524 . S
C1536 H1555 0.913 . S
C1537 H1513 0.950 . S
C1537 C1536 1.524 . S
C1537 C1538 1.415 1_554 S
C1538 H1514 0.950 . S
C1538 C1533 1.363 . S
C1538 C1537 1.415 1_556 S
C1539 H1515 0.951 . S
C1539 C1540 1.366 . S
C1539 C1541 1.388 . S
C1540 C1539 1.366 . S
C1540 C1544 1.385 . S
C1541 H1516 0.951 . S
C1541 C1539 1.388 . S
C1541 C1542 1.366 . S
C1542 C1541 1.366 . S
C1542 C1543 1.414 . S
C1542 C1545 1.499 . S
C1543 H1517 0.950 . S
C1543 C1542 1.414 . S
C1543 C1544 1.374 . S
C1544 H1518 0.950 . S
C1544 C1540 1.385 . S
C1544 C1543 1.374 . S
C1545 C1542 1.499 . S
C1545 C1546 1.373 . S
C1545 C1547 1.389 . S
C1546 H1519 0.950 . S
C1546 C1532 1.377 . S
C1546 C1545 1.373 . S
C1547 C1531 1.377 . S
C1547 C1545 1.389 . S
C1547 C1548 1.524 . S
C1548 C1547 1.524 . S
C1548 C1549 1.397 . S
C1548 C1553 1.363 . S
C1549 H1520 0.950 . S
C1549 C1548 1.397 . S
C1549 C1550 1.334 . S
C1550 H1521 0.950 . S
C1550 C1549 1.334 . S
C1550 C1551 1.287 . S
C1551 C1550 1.287 . S
C1551 C1552 1.524 . S
C1551 H1554 0.999 . S
C1552 H1522 0.950 . S
C1552 C1551 1.524 . S
C1552 C1553 1.415 . S
C1553 H1523 0.950 . S
C1553 C1548 1.363 . S
C1553 C1552 1.415 . S
H1554 C1551 0.999 . S
H1555 C1536 0.913 . S
H1556 C1574 0.951 . S
H1557 C1576 0.951 . S
H1558 C1578 0.950 . S
H1559 C1579 0.950 . S
H1560 C1581 0.950 . S
H1561 C1584 0.950 . S
H1562 C1585 0.950 . S
H1563 C1587 0.950 . S
H1564 C1588 0.950 . S
H1565 C1589 0.951 . S
H1566 C1591 0.951 . S
H1567 C1593 0.950 . S
H1568 C1594 0.950 . S
H1569 C1596 0.950 . S
H1570 C1599 0.950 . S
H1571 C1600 0.950 . S
H1572 C1602 0.950 . S
H1573 C1603 0.950 . S
C1574 H1556 0.951 . S
C1574 C1575 1.366 . S
C1574 C1576 1.388 . S
C1575 C1574 1.366 . S
C1575 C1579 1.385 . S
C1576 H1557 0.951 . S
C1576 C1574 1.388 . S
C1576 C1577 1.366 . S
C1577 C1576 1.366 . S
C1577 C1578 1.414 . S
C1577 C1580 1.499 . S
C1578 H1558 0.950 . S
C1578 C1577 1.414 . S
C1578 C1579 1.374 . S
C1579 H1559 0.950 . S
C1579 C1575 1.385 . S
C1579 C1578 1.374 . S
C1580 C1577 1.499 . S
C1580 C1581 1.373 . S
C1580 C1582 1.389 . S
C1581 H1560 0.950 . S
C1581 C1580 1.373 . S
C1581 C1597 1.377 . S
C1582 C1580 1.389 . S
C1582 C1583 1.524 . S
C1582 C1596 1.377 . S
C1583 C1582 1.524 . S
C1583 C1584 1.397 . S
C1583 C1588 1.363 . S
C1584 H1561 0.950 . S
C1584 C1583 1.397 . S
C1584 C1585 1.334 1_554 S
C1585 H1562 0.950 . S
C1585 C1584 1.334 1_556 S
C1585 C1586 1.287 . S
C1586 C1585 1.287 . S
C1586 C1587 1.524 1_556 S
C1586 H1605 0.913 . S
C1587 H1563 0.950 . S
C1587 C1586 1.524 1_554 S
C1587 C1588 1.415 . S
C1588 H1564 0.950 . S
C1588 C1583 1.363 . S
C1588 C1587 1.415 . S
C1589 H1565 0.951 . S
C1589 C1590 1.366 . S
C1589 C1591 1.388 . S
C1590 C1589 1.366 . S
C1590 C1594 1.385 . S
C1591 H1566 0.951 . S
C1591 C1589 1.388 . S
C1591 C1592 1.366 . S
C1592 C1591 1.366 . S
C1592 C1593 1.414 . S
C1592 C1595 1.499 . S
C1593 H1567 0.950 . S
C1593 C1592 1.414 . S
C1593 C1594 1.374 . S
C1594 H1568 0.950 . S
C1594 C1590 1.385 . S
C1594 C1593 1.374 . S
C1595 C1592 1.499 . S
C1595 C1596 1.373 . S
C1595 C1597 1.389 . S
C1596 H1569 0.950 . S
C1596 C1582 1.377 . S
C1596 C1595 1.373 . S
C1597 C1581 1.377 . S
C1597 C1595 1.389 . S
C1597 C1598 1.524 . S
C1598 C1597 1.524 . S
C1598 C1599 1.397 . S
C1598 C1603 1.363 . S
C1599 H1570 0.950 . S
C1599 C1598 1.397 . S
C1599 C1600 1.334 . S
C1600 H1571 0.950 . S
C1600 C1599 1.334 . S
C1600 C1601 1.287 . S
C1601 C1600 1.287 . S
C1601 C1602 1.524 . S
C1601 H1604 0.999 . S
C1602 H1572 0.950 . S
C1602 C1601 1.524 . S
C1602 C1603 1.415 . S
C1603 H1573 0.950 . S
C1603 C1598 1.363 . S
C1603 C1602 1.415 . S
H1604 C1601 0.999 . S
H1605 C1586 0.913 . S
H1606 C1624 0.951 . S
H1607 C1626 0.951 . S
H1608 C1628 0.950 . S
H1609 C1629 0.950 . S
H1610 C1631 0.950 . S
H1611 C1634 0.950 . S
H1612 C1635 0.950 . S
H1613 C1637 0.950 . S
H1614 C1638 0.950 . S
H1615 C1639 0.951 . S
H1616 C1641 0.951 . S
H1617 C1643 0.950 . S
H1618 C1644 0.950 . S
H1619 C1646 0.950 . S
H1620 C1649 0.950 . S
H1621 C1650 0.950 . S
H1622 C1652 0.950 . S
H1623 C1653 0.950 . S
C1624 H1606 0.951 . S
C1624 C1625 1.366 . S
C1624 C1626 1.388 . S
C1625 C1624 1.366 . S
C1625 C1629 1.385 . S
C1626 H1607 0.951 . S
C1626 C1624 1.388 . S
C1626 C1627 1.366 . S
C1627 C1626 1.366 . S
C1627 C1628 1.414 . S
C1627 C1630 1.499 . S
C1628 H1608 0.950 . S
C1628 C1627 1.414 . S
C1628 C1629 1.374 . S
C1629 H1609 0.950 . S
C1629 C1625 1.385 . S
C1629 C1628 1.374 . S
C1630 C1627 1.499 . S
C1630 C1631 1.373 . S
C1630 C1632 1.389 . S
C1631 H1610 0.950 . S
C1631 C1630 1.373 . S
C1631 C1647 1.377 . S
C1632 C1630 1.389 . S
C1632 C1633 1.524 . S
C1632 C1646 1.377 . S
C1633 C1632 1.524 . S
C1633 C1634 1.397 . S
C1633 C1638 1.363 . S
C1634 H1611 0.950 . S
C1634 C1633 1.397 . S
C1634 C1635 1.334 . S
C1635 H1612 0.950 . S
C1635 C1634 1.334 . S
C1635 C1636 1.287 . S
C1636 C1635 1.287 . S
C1636 C1637 1.524 . S
C1636 H1655 0.913 . S
C1637 H1613 0.950 . S
C1637 C1636 1.524 . S
C1637 C1638 1.415 . S
C1638 H1614 0.950 . S
C1638 C1633 1.363 . S
C1638 C1637 1.415 . S
C1639 H1615 0.951 . S
C1639 C1640 1.366 . S
C1639 C1641 1.388 . S
C1640 C1639 1.366 . S
C1640 C1644 1.385 . S
C1641 H1616 0.951 . S
C1641 C1639 1.388 . S
C1641 C1642 1.366 . S
C1642 C1641 1.366 . S
C1642 C1643 1.414 . S
C1642 C1645 1.499 . S
C1643 H1617 0.950 . S
C1643 C1642 1.414 . S
C1643 C1644 1.374 . S
C1644 H1618 0.950 . S
C1644 C1640 1.385 . S
C1644 C1643 1.374 . S
C1645 C1642 1.499 . S
C1645 C1646 1.373 . S
C1645 C1647 1.389 . S
C1646 H1619 0.950 . S
C1646 C1632 1.377 . S
C1646 C1645 1.373 . S
C1647 C1631 1.377 . S
C1647 C1645 1.389 . S
C1647 C1648 1.524 . S
C1648 C1647 1.524 . S
C1648 C1649 1.397 . S
C1648 C1653 1.363 . S
C1649 H1620 0.950 . S
C1649 C1648 1.397 . S
C1649 C1650 1.334 . S
C1650 H1621 0.950 . S
C1650 C1649 1.334 . S
C1650 C1651 1.287 . S
C1651 C1650 1.287 . S
C1651 C1652 1.524 . S
C1651 H1654 0.999 . S
C1652 H1622 0.950 . S
C1652 C1651 1.524 . S
C1652 C1653 1.415 . S
C1653 H1623 0.950 . S
C1653 C1648 1.363 . S
C1653 C1652 1.415 . S
H1654 C1651 0.999 . S
H1655 C1636 0.913 . S
H1656 C1674 0.951 . S
H1657 C1676 0.951 . S
H1658 C1678 0.950 . S
H1659 C1679 0.950 . S
H1660 C1681 0.950 . S
H1661 C1684 0.950 . S
H1662 C1685 0.950 . S
H1663 C1687 0.950 . S
H1664 C1688 0.950 . S
H1665 C1689 0.951 . S
H1666 C1691 0.951 . S
H1667 C1693 0.950 . S
H1668 C1694 0.950 . S
H1669 C1696 0.950 . S
H1670 C1699 0.950 . S
H1671 C1700 0.950 . S
H1672 C1702 0.950 . S
H1673 C1703 0.950 . S
C1674 H1656 0.951 . S
C1674 C1675 1.366 . S
C1674 C1676 1.388 . S
C1675 C1674 1.366 . S
C1675 C1679 1.385 . S
C1676 H1657 0.951 . S
C1676 C1674 1.388 . S
C1676 C1677 1.366 . S
C1677 C1676 1.366 . S
C1677 C1678 1.414 . S
C1677 C1680 1.499 . S
C1678 H1658 0.950 . S
C1678 C1677 1.414 . S
C1678 C1679 1.374 . S
C1679 H1659 0.950 . S
C1679 C1675 1.385 . S
C1679 C1678 1.374 . S
C1680 C1677 1.499 . S
C1680 C1681 1.373 . S
C1680 C1682 1.389 . S
C1681 H1660 0.950 . S
C1681 C1680 1.373 . S
C1681 C1697 1.377 . S
C1682 C1680 1.389 . S
C1682 C1683 1.524 . S
C1682 C1696 1.377 . S
C1683 C1682 1.524 . S
C1683 C1684 1.397 . S
C1683 C1688 1.363 . S
C1684 H1661 0.950 . S
C1684 C1683 1.397 . S
C1684 C1685 1.334 . S
C1685 H1662 0.950 . S
C1685 C1684 1.334 . S
C1685 C1686 1.287 . S
C1686 C1685 1.287 . S
C1686 C1687 1.524 . S
C1686 H1705 0.913 . S
C1687 H1663 0.950 . S
C1687 C1686 1.524 . S
C1687 C1688 1.415 . S
C1688 H1664 0.950 . S
C1688 C1683 1.363 . S
C1688 C1687 1.415 . S
C1689 H1665 0.951 . S
C1689 C1690 1.366 . S
C1689 C1691 1.388 . S
C1690 C1689 1.366 . S
C1690 C1694 1.385 . S
C1691 H1666 0.951 . S
C1691 C1689 1.388 . S
C1691 C1692 1.366 . S
C1692 C1691 1.366 . S
C1692 C1693 1.414 . S
C1692 C1695 1.499 . S
C1693 H1667 0.950 . S
C1693 C1692 1.414 . S
C1693 C1694 1.374 . S
C1694 H1668 0.950 . S
C1694 C1690 1.385 . S
C1694 C1693 1.374 . S
C1695 C1692 1.499 . S
C1695 C1696 1.373 . S
C1695 C1697 1.389 . S
C1696 H1669 0.950 . S
C1696 C1682 1.377 . S
C1696 C1695 1.373 . S
C1697 C1681 1.377 . S
C1697 C1695 1.389 . S
C1697 C1698 1.524 . S
C1698 C1697 1.524 . S
C1698 C1699 1.397 . S
C1698 C1703 1.363 . S
C1699 H1670 0.950 . S
C1699 C1698 1.397 . S
C1699 C1700 1.334 . S
C1700 H1671 0.950 . S
C1700 C1699 1.334 . S
C1700 C1701 1.287 . S
C1701 C1700 1.287 . S
C1701 C1702 1.524 . S
C1701 H1704 0.999 . S
C1702 H1672 0.950 . S
C1702 C1701 1.524 . S
C1702 C1703 1.415 . S
C1703 H1673 0.950 . S
C1703 C1698 1.363 . S
C1703 C1702 1.415 . S
H1704 C1701 0.999 . S
H1705 C1686 0.913 . S
H1706 C1724 0.951 . S
H1707 C1726 0.951 . S
H1708 C1728 0.950 . S
H1709 C1729 0.950 . S
H1710 C1731 0.950 . S
H1711 C1734 0.950 . S
H1712 C1735 0.950 . S
H1713 C1737 0.950 . S
H1714 C1738 0.950 . S
H1715 C1739 0.951 . S
H1716 C1741 0.951 . S
H1717 C1743 0.950 . S
H1718 C1744 0.950 . S
H1719 C1746 0.950 . S
H1720 C1749 0.950 . S
H1721 C1750 0.950 . S
H1722 C1752 0.950 . S
H1723 C1753 0.950 . S
C1724 H1706 0.951 . S
C1724 C1725 1.366 . S
C1724 C1726 1.388 . S
C1725 C1724 1.366 . S
C1725 C1729 1.385 . S
C1726 H1707 0.951 . S
C1726 C1724 1.388 . S
C1726 C1727 1.366 . S
C1727 C1726 1.366 . S
C1727 C1728 1.414 . S
C1727 C1730 1.499 . S
C1728 H1708 0.950 . S
C1728 C1727 1.414 . S
C1728 C1729 1.374 . S
C1729 H1709 0.950 . S
C1729 C1725 1.385 . S
C1729 C1728 1.374 . S
C1730 C1727 1.499 . S
C1730 C1731 1.373 . S
C1730 C1732 1.389 . S
C1731 H1710 0.950 . S
C1731 C1730 1.373 . S
C1731 C1747 1.377 1_655 S
C1732 C1730 1.389 . S
C1732 C1733 1.524 . S
C1732 C1746 1.377 1_655 S
C1733 C1732 1.524 . S
C1733 C1734 1.397 . S
C1733 C1738 1.363 . S
C1734 H1711 0.950 . S
C1734 C1733 1.397 . S
C1734 C1735 1.334 . S
C1735 H1712 0.950 . S
C1735 C1734 1.334 . S
C1735 C1736 1.287 . S
C1736 C1735 1.287 . S
C1736 C1737 1.524 . S
C1736 H1755 0.913 . S
C1737 H1713 0.950 . S
C1737 C1736 1.524 . S
C1737 C1738 1.415 . S
C1738 H1714 0.950 . S
C1738 C1733 1.363 . S
C1738 C1737 1.415 . S
C1739 H1715 0.951 . S
C1739 C1740 1.366 . S
C1739 C1741 1.388 . S
C1740 C1739 1.366 . S
C1740 C1744 1.385 . S
C1741 H1716 0.951 . S
C1741 C1739 1.388 . S
C1741 C1742 1.366 . S
C1742 C1741 1.366 . S
C1742 C1743 1.414 . S
C1742 C1745 1.499 . S
C1743 H1717 0.950 . S
C1743 C1742 1.414 . S
C1743 C1744 1.374 . S
C1744 H1718 0.950 . S
C1744 C1740 1.385 . S
C1744 C1743 1.374 . S
C1745 C1742 1.499 . S
C1745 C1746 1.373 . S
C1745 C1747 1.389 . S
C1746 H1719 0.950 . S
C1746 C1732 1.377 1_455 S
C1746 C1745 1.373 . S
C1747 C1731 1.377 1_455 S
C1747 C1745 1.389 . S
C1747 C1748 1.524 . S
C1748 C1747 1.524 . S
C1748 C1749 1.397 . S
C1748 C1753 1.363 . S
C1749 H1720 0.950 . S
C1749 C1748 1.397 . S
C1749 C1750 1.334 . S
C1750 H1721 0.950 . S
C1750 C1749 1.334 . S
C1750 C1751 1.287 . S
C1751 C1750 1.287 . S
C1751 C1752 1.524 . S
C1751 H1754 0.999 . S
C1752 H1722 0.950 . S
C1752 C1751 1.524 . S
C1752 C1753 1.415 . S
C1753 H1723 0.950 . S
C1753 C1748 1.363 . S
C1753 C1752 1.415 . S
H1754 C1751 0.999 . S
H1755 C1736 0.913 . S
H1756 C1774 0.951 . S
H1757 C1776 0.951 . S
H1758 C1778 0.950 . S
H1759 C1779 0.950 . S
H1760 C1781 0.950 . S
H1761 C1784 0.950 . S
H1762 C1785 0.950 . S
H1763 C1787 0.950 . S
H1764 C1788 0.950 . S
H1765 C1789 0.951 . S
H1766 C1791 0.951 . S
H1767 C1793 0.950 . S
H1768 C1794 0.950 . S
H1769 C1796 0.950 . S
H1770 C1799 0.950 . S
H1771 C1800 0.950 . S
H1772 C1802 0.950 . S
H1773 C1803 0.950 . S
C1774 H1756 0.951 . S
C1774 C1775 1.366 . S
C1774 C1776 1.388 . S
C1775 C1774 1.366 . S
C1775 C1779 1.385 . S
C1776 H1757 0.951 . S
C1776 C1774 1.388 . S
C1776 C1777 1.366 . S
C1777 C1776 1.366 . S
C1777 C1778 1.414 . S
C1777 C1780 1.499 . S
C1778 H1758 0.950 . S
C1778 C1777 1.414 . S
C1778 C1779 1.374 . S
C1779 H1759 0.950 . S
C1779 C1775 1.385 . S
C1779 C1778 1.374 . S
C1780 C1777 1.499 . S
C1780 C1781 1.373 . S
C1780 C1782 1.389 1_565 S
C1781 H1760 0.950 . S
C1781 C1780 1.373 . S
C1781 C1797 1.377 1_554 S
C1782 C1780 1.389 1_545 S
C1782 C1783 1.524 . S
C1782 C1796 1.377 1_554 S
C1783 C1782 1.524 . S
C1783 C1784 1.397 1_545 S
C1783 C1788 1.363 . S
C1784 H1761 0.950 . S
C1784 C1783 1.397 1_565 S
C1784 C1785 1.334 . S
C1785 H1762 0.950 . S
C1785 C1784 1.334 . S
C1785 C1786 1.287 1_565 S
C1786 C1785 1.287 1_545 S
C1786 C1787 1.524 . S
C1786 H1805 0.913 . S
C1787 H1763 0.950 . S
C1787 C1786 1.524 . S
C1787 C1788 1.415 . S
C1788 H1764 0.950 . S
C1788 C1783 1.363 . S
C1788 C1787 1.415 . S
C1789 H1765 0.951 . S
C1789 C1790 1.366 . S
C1789 C1791 1.388 . S
C1790 C1789 1.366 . S
C1790 C1794 1.385 . S
C1791 H1766 0.951 . S
C1791 C1789 1.388 . S
C1791 C1792 1.366 . S
C1792 C1791 1.366 . S
C1792 C1793 1.414 . S
C1792 C1795 1.499 . S
C1793 H1767 0.950 . S
C1793 C1792 1.414 . S
C1793 C1794 1.374 . S
C1794 H1768 0.950 . S
C1794 C1790 1.385 . S
C1794 C1793 1.374 . S
C1795 C1792 1.499 . S
C1795 C1796 1.373 . S
C1795 C1797 1.389 1_545 S
C1796 H1769 0.950 . S
C1796 C1782 1.377 1_556 S
C1796 C1795 1.373 . S
C1797 C1781 1.377 1_556 S
C1797 C1795 1.389 1_565 S
C1797 C1798 1.524 . S
C1798 C1797 1.524 . S
C1798 C1799 1.397 1_565 S
C1798 C1803 1.363 . S
C1799 H1770 0.950 . S
C1799 C1798 1.397 1_545 S
C1799 C1800 1.334 . S
C1800 H1771 0.950 . S
C1800 C1799 1.334 . S
C1800 C1801 1.287 1_545 S
C1801 C1800 1.287 1_565 S
C1801 C1802 1.524 . S
C1801 H1804 0.999 . S
C1802 H1772 0.950 . S
C1802 C1801 1.524 . S
C1802 C1803 1.415 . S
C1803 H1773 0.950 . S
C1803 C1798 1.363 . S
C1803 C1802 1.415 . S
H1804 C1801 0.999 . S
H1805 C1786 0.913 . S
H1806 C1824 0.951 . S
H1807 C1826 0.951 . S
H1808 C1828 0.950 . S
H1809 C1829 0.950 . S
H1810 C1831 0.950 . S
H1811 C1834 0.950 . S
H1812 C1835 0.950 . S
H1813 C1837 0.950 . S
H1814 C1838 0.950 . S
H1815 C1839 0.951 . S
H1816 C1841 0.951 . S
H1817 C1843 0.950 . S
H1818 C1844 0.950 . S
H1819 C1846 0.950 . S
H1820 C1849 0.950 . S
H1821 C1850 0.950 . S
H1822 C1852 0.950 . S
H1823 C1853 0.950 . S
C1824 H1806 0.951 . S
C1824 C1825 1.366 . S
C1824 C1826 1.388 . S
C1825 C1824 1.366 . S
C1825 C1829 1.385 . S
C1826 H1807 0.951 . S
C1826 C1824 1.388 . S
C1826 C1827 1.366 . S
C1827 C1826 1.366 . S
C1827 C1828 1.414 . S
C1827 C1830 1.499 . S
C1828 H1808 0.950 . S
C1828 C1827 1.414 . S
C1828 C1829 1.374 . S
C1829 H1809 0.950 . S
C1829 C1825 1.385 . S
C1829 C1828 1.374 . S
C1830 C1827 1.499 . S
C1830 C1831 1.373 . S
C1830 C1832 1.389 . S
C1831 H1810 0.950 . S
C1831 C1830 1.373 . S
C1831 C1847 1.377 . S
C1832 C1830 1.389 . S
C1832 C1833 1.524 . S
C1832 C1846 1.377 . S
C1833 C1832 1.524 . S
C1833 C1834 1.397 . S
C1833 C1838 1.363 . S
C1834 H1811 0.950 . S
C1834 C1833 1.397 . S
C1834 C1835 1.334 . S
C1835 H1812 0.950 . S
C1835 C1834 1.334 . S
C1835 C1836 1.287 . S
C1836 C1835 1.287 . S
C1836 C1837 1.524 . S
C1836 H1855 0.913 . S
C1837 H1813 0.950 . S
C1837 C1836 1.524 . S
C1837 C1838 1.415 . S
C1838 H1814 0.950 . S
C1838 C1833 1.363 . S
C1838 C1837 1.415 . S
C1839 H1815 0.951 . S
C1839 C1840 1.366 . S
C1839 C1841 1.388 . S
C1840 C1839 1.366 . S
C1840 C1844 1.385 . S
C1841 H1816 0.951 . S
C1841 C1839 1.388 . S
C1841 C1842 1.366 . S
C1842 C1841 1.366 . S
C1842 C1843 1.414 . S
C1842 C1845 1.499 . S
C1843 H1817 0.950 . S
C1843 C1842 1.414 . S
C1843 C1844 1.374 . S
C1844 H1818 0.950 . S
C1844 C1840 1.385 . S
C1844 C1843 1.374 . S
C1845 C1842 1.499 . S
C1845 C1846 1.373 . S
C1845 C1847 1.389 . S
C1846 H1819 0.950 . S
C1846 C1832 1.377 . S
C1846 C1845 1.373 . S
C1847 C1831 1.377 . S
C1847 C1845 1.389 . S
C1847 C1848 1.524 . S
C1848 C1847 1.524 . S
C1848 C1849 1.397 . S
C1848 C1853 1.363 . S
C1849 H1820 0.950 . S
C1849 C1848 1.397 . S
C1849 C1850 1.334 . S
C1850 H1821 0.950 . S
C1850 C1849 1.334 . S
C1850 C1851 1.287 . S
C1851 C1850 1.287 . S
C1851 C1852 1.524 . S
C1851 H1854 0.999 . S
C1852 H1822 0.950 . S
C1852 C1851 1.524 . S
C1852 C1853 1.415 . S
C1853 H1823 0.950 . S
C1853 C1848 1.363 . S
C1853 C1852 1.415 . S
H1854 C1851 0.999 . S
H1855 C1836 0.913 . S
H1856 C1874 0.951 . S
H1857 C1876 0.951 . S
H1858 C1878 0.950 . S
H1859 C1879 0.950 . S
H1860 C1881 0.950 . S
H1861 C1884 0.950 . S
H1862 C1885 0.950 . S
H1863 C1887 0.950 . S
H1864 C1888 0.950 . S
H1865 C1889 0.951 . S
H1866 C1891 0.951 . S
H1867 C1893 0.950 . S
H1868 C1894 0.950 . S
H1869 C1896 0.950 . S
H1870 C1899 0.950 . S
H1871 C1900 0.950 . S
H1872 C1902 0.950 . S
H1873 C1903 0.950 . S
C1874 H1856 0.951 . S
C1874 C1875 1.366 . S
C1874 C1876 1.388 . S
C1875 C1874 1.366 . S
C1875 C1879 1.385 . S
C1876 H1857 0.951 . S
C1876 C1874 1.388 . S
C1876 C1877 1.366 . S
C1877 C1876 1.366 . S
C1877 C1878 1.414 . S
C1877 C1880 1.499 . S
C1878 H1858 0.950 . S
C1878 C1877 1.414 . S
C1878 C1879 1.374 . S
C1879 H1859 0.950 . S
C1879 C1875 1.385 . S
C1879 C1878 1.374 . S
C1880 C1877 1.499 . S
C1880 C1881 1.373 . S
C1880 C1882 1.389 1_455 S
C1881 H1860 0.950 . S
C1881 C1880 1.373 . S
C1881 C1897 1.377 . S
C1882 C1880 1.389 1_655 S
C1882 C1883 1.524 . S
C1882 C1896 1.377 . S
C1883 C1882 1.524 . S
C1883 C1884 1.397 1_655 S
C1883 C1888 1.363 . S
C1884 H1861 0.950 . S
C1884 C1883 1.397 1_455 S
C1884 C1885 1.334 . S
C1885 H1862 0.950 . S
C1885 C1884 1.334 . S
C1885 C1886 1.287 1_455 S
C1886 C1885 1.287 1_655 S
C1886 C1887 1.524 . S
C1886 H1905 0.913 . S
C1887 H1863 0.950 . S
C1887 C1886 1.524 . S
C1887 C1888 1.415 . S
C1888 H1864 0.950 . S
C1888 C1883 1.363 . S
C1888 C1887 1.415 . S
C1889 H1865 0.951 . S
C1889 C1890 1.366 . S
C1889 C1891 1.388 . S
C1890 C1889 1.366 . S
C1890 C1894 1.385 . S
C1891 H1866 0.951 . S
C1891 C1889 1.388 . S
C1891 C1892 1.366 . S
C1892 C1891 1.366 . S
C1892 C1893 1.414 . S
C1892 C1895 1.499 . S
C1893 H1867 0.950 . S
C1893 C1892 1.414 . S
C1893 C1894 1.374 . S
C1894 H1868 0.950 . S
C1894 C1890 1.385 . S
C1894 C1893 1.374 . S
C1895 C1892 1.499 . S
C1895 C1896 1.373 . S
C1895 C1897 1.389 1_655 S
C1896 H1869 0.950 . S
C1896 C1882 1.377 . S
C1896 C1895 1.373 . S
C1897 C1881 1.377 . S
C1897 C1895 1.389 1_455 S
C1897 C1898 1.524 . S
C1898 C1897 1.524 . S
C1898 C1899 1.397 1_455 S
C1898 C1903 1.363 . S
C1899 H1870 0.950 . S
C1899 C1898 1.397 1_655 S
C1899 C1900 1.334 . S
C1900 H1871 0.950 . S
C1900 C1899 1.334 . S
C1900 C1901 1.287 1_655 S
C1901 C1900 1.287 1_455 S
C1901 C1902 1.524 . S
C1901 H1904 0.999 . S
C1902 H1872 0.950 . S
C1902 C1901 1.524 . S
C1902 C1903 1.415 . S
C1903 H1873 0.950 . S
C1903 C1898 1.363 . S
C1903 C1902 1.415 . S
H1904 C1901 0.999 . S
H1905 C1886 0.913 . S
H1906 C1924 0.951 . S
H1907 C1926 0.951 . S
H1908 C1928 0.950 . S
H1909 C1929 0.950 . S
H1910 C1931 0.950 . S
H1911 C1934 0.950 . S
H1912 C1935 0.950 . S
H1913 C1937 0.939 . S
H1914 C1938 0.950 . S
H1915 C1939 0.951 . S
H1916 C1941 0.951 . S
H1917 C1943 0.950 . S
H1918 C1944 0.950 . S
H1919 C1946 0.950 . S
H1920 C1949 0.950 . S
H1921 C1950 0.950 . S
H1922 C1952 0.939 . S
H1923 C1953 0.950 . S
C1924 H1906 0.951 . S
C1924 C1925 1.366 . S
C1924 C1926 1.388 . S
C1925 C1924 1.366 . S
C1925 C1929 1.385 . S
C1926 H1907 0.951 . S
C1926 C1924 1.388 . S
C1926 C1927 1.366 . S
C1927 C1926 1.366 . S
C1927 C1928 1.414 . S
C1927 C1930 1.499 . S
C1928 H1908 0.950 . S
C1928 C1927 1.414 . S
C1928 C1929 1.374 . S
C1929 H1909 0.950 . S
C1929 C1925 1.385 . S
C1929 C1928 1.374 . S
C1930 C1927 1.499 . S
C1930 C1931 1.373 . S
C1930 C1932 1.445 . S
C1931 H1910 0.950 . S
C1931 C1930 1.373 . S
C1931 C1947 1.347 1_565 S
C1932 C1930 1.445 . S
C1932 C1933 1.496 1_565 S
C1932 C1946 1.347 1_565 S
C1933 C1932 1.496 1_545 S
C1933 C1934 1.397 . S
C1933 C1938 1.363 1_545 S
C1934 H1911 0.950 . S
C1934 C1933 1.397 . S
C1934 C1935 1.334 . S
C1935 H1912 0.950 . S
C1935 C1934 1.334 . S
C1935 C1936 1.287 . S
C1936 C1935 1.287 . S
C1936 C1937 1.520 1_545 S
C1936 H1955 0.913 . S
C1937 H1913 0.939 . S
C1937 C1936 1.520 1_565 S
C1937 C1938 1.432 . S
C1938 H1914 0.950 . S
C1938 C1933 1.363 1_565 S
C1938 C1937 1.432 . S
C1939 H1915 0.951 . S
C1939 C1940 1.366 . S
C1939 C1941 1.388 . S
C1940 C1939 1.366 . S
C1940 C1944 1.385 . S
C1941 H1916 0.951 . S
C1941 C1939 1.388 . S
C1941 C1942 1.366 . S
C1942 C1941 1.366 . S
C1942 C1943 1.414 . S
C1942 C1945 1.499 . S
C1943 H1917 0.950 . S
C1943 C1942 1.414 . S
C1943 C1944 1.374 . S
C1944 H1918 0.950 . S
C1944 C1940 1.385 . S
C1944 C1943 1.374 . S
C1945 C1942 1.499 . S
C1945 C1946 1.373 . S
C1945 C1947 1.444 . S
C1946 H1919 0.950 . S
C1946 C1932 1.347 1_545 S
C1946 C1945 1.373 . S
C1947 C1931 1.347 1_545 S
C1947 C1945 1.444 . S
C1947 C1948 1.496 1_545 S
C1948 C1947 1.496 1_565 S
C1948 C1949 1.397 . S
C1948 C1953 1.363 1_565 S
C1949 H1920 0.950 . S
C1949 C1948 1.397 . S
C1949 C1950 1.334 . S
C1950 H1921 0.950 . S
C1950 C1949 1.334 . S
C1950 C1951 1.287 . S
C1951 C1950 1.287 . S
C1951 C1952 1.520 1_565 S
C1951 H1954 0.999 . S
C1952 H1922 0.939 . S
C1952 C1951 1.520 1_545 S
C1952 C1953 1.432 . S
C1953 H1923 0.950 . S
C1953 C1948 1.363 1_545 S
C1953 C1952 1.432 . S
H1954 C1951 0.999 . S
H1955 C1936 0.913 . S
H1956 C1974 0.951 . S
H1957 C1976 0.951 . S
H1958 C1978 0.950 . S
H1959 C1979 0.950 . S
H1960 C1981 0.950 . S
H1961 C1984 0.950 . S
H1962 C1985 0.950 . S
H1963 C1987 0.950 . S
H1964 C1988 0.950 . S
H1965 C1989 0.951 . S
H1966 C1991 0.951 . S
H1967 C1993 0.950 . S
H1968 C1994 0.950 . S
H1969 C1996 0.950 . S
H1970 C1999 0.950 . S
H1971 C2000 0.950 . S
H1972 C2002 0.950 . S
H1973 C2003 0.950 . S
C1974 H1956 0.951 . S
C1974 C1975 1.366 . S
C1974 C1976 1.388 . S
C1975 C1974 1.366 . S
C1975 C1979 1.385 . S
C1976 H1957 0.951 . S
C1976 C1974 1.388 . S
C1976 C1977 1.366 . S
C1977 C1976 1.366 . S
C1977 C1978 1.414 . S
C1977 C1980 1.499 . S
C1978 H1958 0.950 . S
C1978 C1977 1.414 . S
C1978 C1979 1.374 . S
C1979 H1959 0.950 . S
C1979 C1975 1.385 . S
C1979 C1978 1.374 . S
C1980 C1977 1.499 . S
C1980 C1981 1.373 . S
C1980 C1982 1.389 . S
C1981 H1960 0.950 . S
C1981 C1980 1.373 . S
C1981 C1997 1.377 . S
C1982 C1980 1.389 . S
C1982 C1983 1.524 . S
C1982 C1996 1.377 . S
C1983 C1982 1.524 . S
C1983 C1984 1.397 . S
C1983 C1988 1.363 . S
C1984 H1961 0.950 . S
C1984 C1983 1.397 . S
C1984 C1985 1.334 . S
C1985 H1962 0.950 . S
C1985 C1984 1.334 . S
C1985 C1986 1.287 . S
C1986 C1985 1.287 . S
C1986 C1987 1.524 . S
C1986 H2005 0.913 . S
C1987 H1963 0.950 . S
C1987 C1986 1.524 . S
C1987 C1988 1.415 . S
C1988 H1964 0.950 . S
C1988 C1983 1.363 . S
C1988 C1987 1.415 . S
C1989 H1965 0.951 . S
C1989 C1990 1.366 . S
C1989 C1991 1.388 . S
C1990 C1989 1.366 . S
C1990 C1994 1.385 . S
C1991 H1966 0.951 . S
C1991 C1989 1.388 . S
C1991 C1992 1.366 . S
C1992 C1991 1.366 . S
C1992 C1993 1.414 . S
C1992 C1995 1.499 . S
C1993 H1967 0.950 . S
C1993 C1992 1.414 . S
C1993 C1994 1.374 . S
C1994 H1968 0.950 . S
C1994 C1990 1.385 . S
C1994 C1993 1.374 . S
C1995 C1992 1.499 . S
C1995 C1996 1.373 . S
C1995 C1997 1.389 . S
C1996 H1969 0.950 . S
C1996 C1982 1.377 . S
C1996 C1995 1.373 . S
C1997 C1981 1.377 . S
C1997 C1995 1.389 . S
C1997 C1998 1.524 . S
C1998 C1997 1.524 . S
C1998 C1999 1.397 . S
C1998 C2003 1.363 . S
C1999 H1970 0.950 . S
C1999 C1998 1.397 . S
C1999 C2000 1.334 . S
C2000 H1971 0.950 . S
C2000 C1999 1.334 . S
C2000 C2001 1.287 . S
C2001 C2000 1.287 . S
C2001 C2002 1.524 . S
C2001 H2004 0.999 . S
C2002 H1972 0.950 . S
C2002 C2001 1.524 . S
C2002 C2003 1.415 . S
C2003 H1973 0.950 . S
C2003 C1998 1.363 . S
C2003 C2002 1.415 . S
H2004 C2001 0.999 . S
H2005 C1986 0.913 . S
H2006 C2024 0.951 . S
H2007 C2026 0.951 . S
H2008 C2028 0.950 . S
H2009 C2029 0.950 . S
H2010 C2031 0.950 . S
H2011 C2034 0.950 . S
H2012 C2035 0.950 . S
H2013 C2037 0.950 . S
H2014 C2038 0.950 . S
H2015 C2039 0.951 . S
H2016 C2041 0.951 . S
H2017 C2043 0.950 . S
H2018 C2044 0.950 . S
H2019 C2046 0.950 . S
H2020 C2049 0.950 . S
H2021 C2050 0.950 . S
H2022 C2052 0.950 . S
H2023 C2053 0.950 . S
C2024 H2006 0.951 . S
C2024 C2025 1.366 . S
C2024 C2026 1.388 . S
C2025 C2024 1.366 . S
C2025 C2029 1.385 . S
C2026 H2007 0.951 . S
C2026 C2024 1.388 . S
C2026 C2027 1.366 . S
C2027 C2026 1.366 . S
C2027 C2028 1.414 . S
C2027 C2030 1.499 . S
C2028 H2008 0.950 . S
C2028 C2027 1.414 . S
C2028 C2029 1.374 . S
C2029 H2009 0.950 . S
C2029 C2025 1.385 . S
C2029 C2028 1.374 . S
C2030 C2027 1.499 . S
C2030 C2031 1.373 . S
C2030 C2032 1.389 . S
C2031 H2010 0.950 . S
C2031 C2030 1.373 . S
C2031 C2047 1.377 . S
C2032 C2030 1.389 . S
C2032 C2033 1.524 . S
C2032 C2046 1.377 . S
C2033 C2032 1.524 . S
C2033 C2034 1.397 . S
C2033 C2038 1.363 . S
C2034 H2011 0.950 . S
C2034 C2033 1.397 . S
C2034 C2035 1.334 . S
C2035 H2012 0.950 . S
C2035 C2034 1.334 . S
C2035 C2036 1.287 . S
C2036 C2035 1.287 . S
C2036 C2037 1.524 . S
C2036 H2055 0.913 . S
C2037 H2013 0.950 . S
C2037 C2036 1.524 . S
C2037 C2038 1.415 . S
C2038 H2014 0.950 . S
C2038 C2033 1.363 . S
C2038 C2037 1.415 . S
C2039 H2015 0.951 . S
C2039 C2040 1.366 . S
C2039 C2041 1.388 . S
C2040 C2039 1.366 . S
C2040 C2044 1.385 . S
C2041 H2016 0.951 . S
C2041 C2039 1.388 . S
C2041 C2042 1.366 . S
C2042 C2041 1.366 . S
C2042 C2043 1.414 . S
C2042 C2045 1.499 . S
C2043 H2017 0.950 . S
C2043 C2042 1.414 . S
C2043 C2044 1.374 . S
C2044 H2018 0.950 . S
C2044 C2040 1.385 . S
C2044 C2043 1.374 . S
C2045 C2042 1.499 . S
C2045 C2046 1.373 . S
C2045 C2047 1.389 . S
C2046 H2019 0.950 . S
C2046 C2032 1.377 . S
C2046 C2045 1.373 . S
C2047 C2031 1.377 . S
C2047 C2045 1.389 . S
C2047 C2048 1.524 . S
C2048 C2047 1.524 . S
C2048 C2049 1.397 . S
C2048 C2053 1.363 . S
C2049 H2020 0.950 . S
C2049 C2048 1.397 . S
C2049 C2050 1.334 . S
C2050 H2021 0.950 . S
C2050 C2049 1.334 . S
C2050 C2051 1.287 . S
C2051 C2050 1.287 . S
C2051 C2052 1.524 . S
C2051 H2054 0.999 . S
C2052 H2022 0.950 . S
C2052 C2051 1.524 . S
C2052 C2053 1.415 . S
C2053 H2023 0.950 . S
C2053 C2048 1.363 . S
C2053 C2052 1.415 . S
H2054 C2051 0.999 . S
H2055 C2036 0.913 . S
H2056 C2074 0.950 1_554 S
H2057 C2076 0.951 . S
H2058 C2078 0.950 . S
H2059 C2079 0.950 . S
H2060 C2081 0.950 . S
H2061 C2084 0.950 1_554 S
H2062 C2085 0.950 . S
H2063 C2087 0.950 . S
H2064 C2088 0.950 . S
H2065 C2089 0.951 . S
H2066 C2091 0.951 . S
H2067 C2093 0.950 . S
H2068 C2094 0.950 . S
H2069 C2096 0.950 . S
H2070 C2099 0.950 . S
H2071 C2100 0.950 . S
H2072 C2102 0.950 . S
H2073 C2103 0.950 . S
C2074 H2056 0.950 1_556 S
C2074 C2075 1.354 1_556 S
C2074 C2076 1.401 . S
C2075 C2074 1.354 1_554 S
C2075 C2079 1.385 . S
C2076 H2057 0.951 . S
C2076 C2074 1.401 . S
C2076 C2077 1.366 . S
C2077 C2076 1.366 . S
C2077 C2078 1.414 . S
C2077 C2080 1.499 . S
C2078 H2058 0.950 . S
C2078 C2077 1.414 . S
C2078 C2079 1.374 1_556 S
C2079 H2059 0.950 . S
C2079 C2075 1.385 . S
C2079 C2078 1.374 1_554 S
C2080 C2077 1.499 . S
C2080 C2081 1.373 . S
C2080 C2082 1.389 . S
C2081 H2060 0.950 . S
C2081 C2080 1.373 . S
C2081 C2097 1.377 . S
C2082 C2080 1.389 . S
C2082 C2083 1.524 . S
C2082 C2096 1.377 . S
C2083 C2082 1.524 . S
C2083 C2084 1.397 . S
C2083 C2088 1.363 . S
C2084 H2061 0.950 1_556 S
C2084 C2083 1.397 . S
C2084 C2085 1.334 1_556 S
C2085 H2062 0.950 . S
C2085 C2084 1.334 1_554 S
C2085 C2086 1.287 . S
C2086 C2085 1.287 . S
C2086 C2087 1.524 1_554 S
C2086 H2105 0.913 . S
C2087 H2063 0.950 . S
C2087 C2086 1.524 1_556 S
C2087 C2088 1.415 . S
C2088 H2064 0.950 . S
C2088 C2083 1.363 . S
C2088 C2087 1.415 . S
C2089 H2065 0.951 . S
C2089 C2090 1.366 . S
C2089 C2091 1.388 . S
C2090 C2089 1.366 . S
C2090 C2094 1.385 . S
C2091 H2066 0.951 . S
C2091 C2089 1.388 . S
C2091 C2092 1.366 . S
C2092 C2091 1.366 . S
C2092 C2093 1.414 . S
C2092 C2095 1.499 . S
C2093 H2067 0.950 . S
C2093 C2092 1.414 . S
C2093 C2094 1.374 . S
C2094 H2068 0.950 . S
C2094 C2090 1.385 . S
C2094 C2093 1.374 . S
C2095 C2092 1.499 . S
C2095 C2096 1.373 . S
C2095 C2097 1.389 . S
C2096 H2069 0.950 . S
C2096 C2082 1.377 . S
C2096 C2095 1.373 . S
C2097 C2081 1.377 . S
C2097 C2095 1.389 . S
C2097 C2098 1.524 . S
C2098 C2097 1.524 . S
C2098 C2099 1.397 . S
C2098 C2103 1.363 . S
C2099 H2070 0.950 . S
C2099 C2098 1.397 . S
C2099 C2100 1.334 . S
C2100 H2071 0.950 . S
C2100 C2099 1.334 . S
C2100 C2101 1.287 . S
C2101 C2100 1.287 . S
C2101 C2102 1.524 . S
C2101 H2104 0.999 . S
C2102 H2072 0.950 . S
C2102 C2101 1.524 . S
C2102 C2103 1.415 . S
C2103 H2073 0.950 . S
C2103 C2098 1.363 . S
C2103 C2102 1.415 . S
H2104 C2101 0.999 . S
H2105 C2086 0.913 . S
H2106 C2124 0.951 . S
H2107 C2126 0.951 . S
H2108 C2128 0.950 . S
H2109 C2129 0.950 . S
H2110 C2131 0.950 . S
H2111 C2134 0.950 . S
H2112 C2135 0.950 . S
H2113 C2137 0.950 . S
H2114 C2138 0.950 . S
H2115 C2139 0.951 . S
H2116 C2141 0.951 . S
H2117 C2143 0.950 . S
H2118 C2144 0.950 . S
H2119 C2146 0.950 . S
H2120 C2149 0.950 . S
H2121 C2150 0.950 . S
H2122 C2152 0.950 . S
H2123 C2153 0.950 . S
C2124 H2106 0.951 . S
C2124 C2125 1.366 . S
C2124 C2126 1.388 . S
C2125 C2124 1.366 . S
C2125 C2129 1.385 . S
C2126 H2107 0.951 . S
C2126 C2124 1.388 . S
C2126 C2127 1.366 . S
C2127 C2126 1.366 . S
C2127 C2128 1.414 . S
C2127 C2130 1.499 . S
C2128 H2108 0.950 . S
C2128 C2127 1.414 . S
C2128 C2129 1.374 . S
C2129 H2109 0.950 . S
C2129 C2125 1.385 . S
C2129 C2128 1.374 . S
C2130 C2127 1.499 . S
C2130 C2131 1.373 . S
C2130 C2132 1.389 . S
C2131 H2110 0.950 . S
C2131 C2130 1.373 . S
C2131 C2147 1.377 . S
C2132 C2130 1.389 . S
C2132 C2133 1.524 . S
C2132 C2146 1.377 . S
C2133 C2132 1.524 . S
C2133 C2134 1.397 . S
C2133 C2138 1.363 . S
C2134 H2111 0.950 . S
C2134 C2133 1.397 . S
C2134 C2135 1.334 . S
C2135 H2112 0.950 . S
C2135 C2134 1.334 . S
C2135 C2136 1.287 . S
C2136 C2135 1.287 . S
C2136 C2137 1.524 . S
C2136 H2155 0.913 . S
C2137 H2113 0.950 . S
C2137 C2136 1.524 . S
C2137 C2138 1.415 . S
C2138 H2114 0.950 . S
C2138 C2133 1.363 . S
C2138 C2137 1.415 . S
C2139 H2115 0.951 . S
C2139 C2140 1.366 . S
C2139 C2141 1.388 1_556 S
C2140 C2139 1.366 . S
C2140 C2144 1.385 . S
C2141 H2116 0.951 . S
C2141 C2139 1.388 1_554 S
C2141 C2142 1.366 . S
C2142 C2141 1.366 . S
C2142 C2143 1.414 . S
C2142 C2145 1.499 . S
C2143 H2117 0.950 . S
C2143 C2142 1.414 . S
C2143 C2144 1.374 1_554 S
C2144 H2118 0.950 . S
C2144 C2140 1.385 . S
C2144 C2143 1.374 1_556 S
C2145 C2142 1.499 . S
C2145 C2146 1.373 . S
C2145 C2147 1.389 . S
C2146 H2119 0.950 . S
C2146 C2132 1.377 . S
C2146 C2145 1.373 . S
C2147 C2131 1.377 . S
C2147 C2145 1.389 . S
C2147 C2148 1.524 . S
C2148 C2147 1.524 . S
C2148 C2149 1.397 1_554 S
C2148 C2153 1.363 . S
C2149 H2120 0.950 . S
C2149 C2148 1.397 1_556 S
C2149 C2150 1.334 . S
C2150 H2121 0.950 . S
C2150 C2149 1.334 . S
C2150 C2151 1.287 . S
C2151 C2150 1.287 . S
C2151 C2152 1.524 1_556 S
C2151 H2154 0.999 . S
C2152 H2122 0.950 . S
C2152 C2151 1.524 1_554 S
C2152 C2153 1.415 . S
C2153 H2123 0.950 . S
C2153 C2148 1.363 . S
C2153 C2152 1.415 . S
H2154 C2151 0.999 . S
H2155 C2136 0.913 . S
H2156 C2174 0.951 . S
H2157 C2176 0.951 . S
H2158 C2178 0.950 . S
H2159 C2179 0.950 . S
H2160 C2181 0.950 . S
H2161 C2184 0.950 . S
H2162 C2185 0.950 . S
H2163 C2187 0.950 . S
H2164 C2188 0.950 . S
H2165 C2189 0.951 . S
H2166 C2191 0.951 . S
H2167 C2193 0.950 . S
H2168 C2194 0.950 . S
H2169 C2196 0.950 . S
H2170 C2199 0.950 . S
H2171 C2200 0.950 . S
H2172 C2202 0.950 . S
H2173 C2203 0.950 . S
C2174 H2156 0.951 . S
C2174 C2175 1.366 . S
C2174 C2176 1.388 . S
C2175 C2174 1.366 . S
C2175 C2179 1.385 . S
C2176 H2157 0.951 . S
C2176 C2174 1.388 . S
C2176 C2177 1.366 . S
C2177 C2176 1.366 . S
C2177 C2178 1.414 . S
C2177 C2180 1.499 . S
C2178 H2158 0.950 . S
C2178 C2177 1.414 . S
C2178 C2179 1.374 . S
C2179 H2159 0.950 . S
C2179 C2175 1.385 . S
C2179 C2178 1.374 . S
C2180 C2177 1.499 . S
C2180 C2181 1.373 . S
C2180 C2182 1.389 . S
C2181 H2160 0.950 . S
C2181 C2180 1.373 . S
C2181 C2197 1.377 . S
C2182 C2180 1.389 . S
C2182 C2183 1.524 . S
C2182 C2196 1.377 . S
C2183 C2182 1.524 . S
C2183 C2184 1.397 . S
C2183 C2188 1.363 . S
C2184 H2161 0.950 . S
C2184 C2183 1.397 . S
C2184 C2185 1.334 . S
C2185 H2162 0.950 . S
C2185 C2184 1.334 . S
C2185 C2186 1.287 . S
C2186 C2185 1.287 . S
C2186 C2187 1.524 . S
C2186 H2205 0.913 . S
C2187 H2163 0.950 . S
C2187 C2186 1.524 . S
C2187 C2188 1.415 . S
C2188 H2164 0.950 . S
C2188 C2183 1.363 . S
C2188 C2187 1.415 . S
C2189 H2165 0.951 . S
C2189 C2190 1.366 . S
C2189 C2191 1.388 . S
C2190 C2189 1.366 . S
C2190 C2194 1.385 . S
C2191 H2166 0.951 . S
C2191 C2189 1.388 . S
C2191 C2192 1.366 . S
C2192 C2191 1.366 . S
C2192 C2193 1.414 . S
C2192 C2195 1.499 . S
C2193 H2167 0.950 . S
C2193 C2192 1.414 . S
C2193 C2194 1.374 . S
C2194 H2168 0.950 . S
C2194 C2190 1.385 . S
C2194 C2193 1.374 . S
C2195 C2192 1.499 . S
C2195 C2196 1.373 . S
C2195 C2197 1.389 . S
C2196 H2169 0.950 . S
C2196 C2182 1.377 . S
C2196 C2195 1.373 . S
C2197 C2181 1.377 . S
C2197 C2195 1.389 . S
C2197 C2198 1.524 . S
C2198 C2197 1.524 . S
C2198 C2199 1.397 . S
C2198 C2203 1.363 . S
C2199 H2170 0.950 . S
C2199 C2198 1.397 . S
C2199 C2200 1.334 . S
C2200 H2171 0.950 . S
C2200 C2199 1.334 . S
C2200 C2201 1.287 . S
C2201 C2200 1.287 . S
C2201 C2202 1.524 . S
C2201 H2204 0.999 . S
C2202 H2172 0.950 . S
C2202 C2201 1.524 . S
C2202 C2203 1.415 . S
C2203 H2173 0.950 . S
C2203 C2198 1.363 . S
C2203 C2202 1.415 . S
H2204 C2201 0.999 . S
H2205 C2186 0.913 . S
H2206 C2224 0.951 . S
H2207 C2226 0.951 . S
H2208 C2228 0.950 . S
H2209 C2229 0.950 . S
H2210 C2231 0.950 . S
H2211 C2234 0.950 . S
H2212 C2235 0.950 . S
H2213 C2237 0.950 . S
H2214 C2238 0.950 . S
H2215 C2239 0.951 . S
H2216 C2241 0.951 . S
H2217 C2243 0.950 . S
H2218 C2244 0.950 . S
H2219 C2246 0.950 . S
H2220 C2249 0.950 . S
H2221 C2250 0.950 . S
H2222 C2252 0.950 . S
H2223 C2253 0.950 . S
C2224 H2206 0.951 . S
C2224 C2225 1.366 . S
C2224 C2226 1.388 . S
C2225 C2224 1.366 . S
C2225 C2229 1.385 . S
C2226 H2207 0.951 . S
C2226 C2224 1.388 . S
C2226 C2227 1.366 . S
C2227 C2226 1.366 . S
C2227 C2228 1.414 . S
C2227 C2230 1.499 . S
C2228 H2208 0.950 . S
C2228 C2227 1.414 . S
C2228 C2229 1.374 . S
C2229 H2209 0.950 . S
C2229 C2225 1.385 . S
C2229 C2228 1.374 . S
C2230 C2227 1.499 . S
C2230 C2231 1.373 . S
C2230 C2232 1.389 . S
C2231 H2210 0.950 . S
C2231 C2230 1.373 . S
C2231 C2247 1.377 . S
C2232 C2230 1.389 . S
C2232 C2233 1.524 . S
C2232 C2246 1.377 . S
C2233 C2232 1.524 . S
C2233 C2234 1.397 . S
C2233 C2238 1.363 . S
C2234 H2211 0.950 . S
C2234 C2233 1.397 . S
C2234 C2235 1.334 . S
C2235 H2212 0.950 . S
C2235 C2234 1.334 . S
C2235 C2236 1.287 . S
C2236 C2235 1.287 . S
C2236 C2237 1.524 . S
C2236 H2255 0.913 . S
C2237 H2213 0.950 . S
C2237 C2236 1.524 . S
C2237 C2238 1.415 . S
C2238 H2214 0.950 . S
C2238 C2233 1.363 . S
C2238 C2237 1.415 . S
C2239 H2215 0.951 . S
C2239 C2240 1.366 . S
C2239 C2241 1.388 . S
C2240 C2239 1.366 . S
C2240 C2244 1.385 . S
C2241 H2216 0.951 . S
C2241 C2239 1.388 . S
C2241 C2242 1.366 . S
C2242 C2241 1.366 . S
C2242 C2243 1.414 . S
C2242 C2245 1.499 . S
C2243 H2217 0.950 . S
C2243 C2242 1.414 . S
C2243 C2244 1.374 . S
C2244 H2218 0.950 . S
C2244 C2240 1.385 . S
C2244 C2243 1.374 . S
C2245 C2242 1.499 . S
C2245 C2246 1.373 . S
C2245 C2247 1.389 . S
C2246 H2219 0.950 . S
C2246 C2232 1.377 . S
C2246 C2245 1.373 . S
C2247 C2231 1.377 . S
C2247 C2245 1.389 . S
C2247 C2248 1.524 . S
C2248 C2247 1.524 . S
C2248 C2249 1.397 . S
C2248 C2253 1.363 . S
C2249 H2220 0.950 . S
C2249 C2248 1.397 . S
C2249 C2250 1.334 . S
C2250 H2221 0.950 . S
C2250 C2249 1.334 . S
C2250 C2251 1.287 . S
C2251 C2250 1.287 . S
C2251 C2252 1.524 . S
C2251 H2254 0.999 . S
C2252 H2222 0.950 . S
C2252 C2251 1.524 . S
C2252 C2253 1.415 . S
C2253 H2223 0.950 . S
C2253 C2248 1.363 . S
C2253 C2252 1.415 . S
H2254 C2251 0.999 . S
H2255 C2236 0.913 . S
C1075 C821 1.602 . S
C1090 C57 1.602 . S
C1125 C137 1.602 . S
C1140 C909 1.602 . S
C1175 C988 1.602 . S
C1190 C225 1.601 . S
C1225 C548 1.602 . S
C1240 C321 1.601 . S
C1275 C636 1.601 . S
C1290 C409 1.602 . S
C1325 C733 1.602 . S
C1340 C497 1.602 . S
C1375 C557 1.514 . S
C1390 C49 1.515 . S
C1425 C145 1.515 . S
C1440 C645 1.515 . S
C1475 C724 1.515 . S
C1490 C233 1.515 . S
C1525 C313 1.515 . S
C1540 C812 1.515 . S
C1575 C900 1.515 . S
C1590 C401 1.515 . S
C1625 C489 1.515 . S
C1640 C997 1.515 . S
C1675 C841 0.258 . S
C1690 C20 0.255 . S
C1725 C929 0.255 . S
C1740 C117 0.258 . S
C1775 C1025 0.258 . S
C1790 C205 0.255 . S
C1825 C284 0.258 . S
C1840 C585 0.255 . S
C1875 C673 0.257 . S
C1890 C372 0.255 . S
C1925 C460 0.255 . S
C1940 C753 0.257 . S
C1975 C29 1.476 . S
C1990 C761 1.476 . S
C2025 C849 1.476 . S
C2040 C108 1.476 . S
C2075 C937 1.475 . S
C2090 C196 1.475 . S
C2125 C1017 1.475 . S
C2140 C293 1.475 . S
C2175 C577 1.476 . S
C2190 C381 1.476 . S
C2225 C665 1.475 . S
C2240 C469 1.475 . S
