# Generated by pormake.
# Topology wjp, (5)-cn, num edge types: 1
# Building blocks:
#     Node 0, Type 0, BuildingBlock: BEQFEK_clean_sbu_0, # of connection points: 5
#     Node 1, Type 0, BuildingBlock: BEQFEK_clean_sbu_0, # of connection points: 5
#     Node 2, Type 0, BuildingBlock: BEQFEK_clean_sbu_0, # of connection points: 5
#     Node 3, Type 0, BuildingBlock: BEQFEK_clean_sbu_0, # of connection points: 5
#     Node 4, Type 0, BuildingBlock: BEQFEK_clean_sbu_0, # of connection points: 5
#     Node 5, Type 0, BuildingBlock: BEQFEK_clean_sbu_0, # of connection points: 5
#     Node 6, Type 0, BuildingBlock: BEQFEK_clean_sbu_0, # of connection points: 5
#     Node 7, Type 0, BuildingBlock: BEQFEK_clean_sbu_0, # of connection points: 5
#     Node 8, Type 0, BuildingBlock: BEQFEK_clean_sbu_0, # of connection points: 5
#     Node 9, Type 0, BuildingBlock: BEQFEK_clean_sbu_0, # of connection points: 5
#     Node 10, Type 0, BuildingBlock: BEQFEK_clean_sbu_0, # of connection points: 5
#     Node 11, Type 0, BuildingBlock: BEQFEK_clean_sbu_0, # of connection points: 5
#     Edge 12, Type (0, 0), BuildingBlock: MIFKUJ_clean_linker_0, # of connection points: 2
#     Edge 13, Type (0, 0), BuildingBlock: MIFKUJ_clean_linker_0, # of connection points: 2
#     Edge 14, Type (0, 0), BuildingBlock: MIFKUJ_clean_linker_0, # of connection points: 2
#     Edge 15, Type (0, 0), BuildingBlock: MIFKUJ_clean_linker_0, # of connection points: 2
#     Edge 16, Type (0, 0), BuildingBlock: MIFKUJ_clean_linker_0, # of connection points: 2
#     Edge 17, Type (0, 0), BuildingBlock: MIFKUJ_clean_linker_0, # of connection points: 2
#     Edge 18, Type (0, 0), BuildingBlock: MIFKUJ_clean_linker_0, # of connection points: 2
#     Edge 19, Type (0, 0), BuildingBlock: MIFKUJ_clean_linker_0, # of connection points: 2
#     Edge 20, Type (0, 0), BuildingBlock: MIFKUJ_clean_linker_0, # of connection points: 2
#     Edge 21, Type (0, 0), BuildingBlock: MIFKUJ_clean_linker_0, # of connection points: 2
#     Edge 22, Type (0, 0), BuildingBlock: MIFKUJ_clean_linker_0, # of connection points: 2
#     Edge 23, Type (0, 0), BuildingBlock: MIFKUJ_clean_linker_0, # of connection points: 2
#     Edge 24, Type (0, 0), BuildingBlock: MIFKUJ_clean_linker_0, # of connection points: 2
#     Edge 25, Type (0, 0), BuildingBlock: MIFKUJ_clean_linker_0, # of connection points: 2
#     Edge 26, Type (0, 0), BuildingBlock: MIFKUJ_clean_linker_0, # of connection points: 2
#     Edge 27, Type (0, 0), BuildingBlock: MIFKUJ_clean_linker_0, # of connection points: 2
#     Edge 28, Type (0, 0), BuildingBlock: MIFKUJ_clean_linker_0, # of connection points: 2
#     Edge 29, Type (0, 0), BuildingBlock: MIFKUJ_clean_linker_0, # of connection points: 2
#     Edge 30, Type (0, 0), BuildingBlock: MIFKUJ_clean_linker_0, # of connection points: 2
#     Edge 31, Type (0, 0), BuildingBlock: MIFKUJ_clean_linker_0, # of connection points: 2
#     Edge 32, Type (0, 0), BuildingBlock: MIFKUJ_clean_linker_0, # of connection points: 2
#     Edge 33, Type (0, 0), BuildingBlock: MIFKUJ_clean_linker_0, # of connection points: 2
#     Edge 34, Type (0, 0), BuildingBlock: MIFKUJ_clean_linker_0, # of connection points: 2
#     Edge 35, Type (0, 0), BuildingBlock: MIFKUJ_clean_linker_0, # of connection points: 2
#     Edge 36, Type (0, 0), BuildingBlock: MIFKUJ_clean_linker_0, # of connection points: 2
#     Edge 37, Type (0, 0), BuildingBlock: MIFKUJ_clean_linker_0, # of connection points: 2
#     Edge 38, Type (0, 0), BuildingBlock: MIFKUJ_clean_linker_0, # of connection points: 2
#     Edge 39, Type (0, 0), BuildingBlock: MIFKUJ_clean_linker_0, # of connection points: 2
#     Edge 40, Type (0, 0), BuildingBlock: MIFKUJ_clean_linker_0, # of connection points: 2
#     Edge 41, Type (0, 0), BuildingBlock: MIFKUJ_clean_linker_0, # of connection points: 2
# Relax obj value: 0.461
# Max RMSD: 0.250
# Mean RMSD: 0.250
data_MOF--net-wjp--node1-BEQFEK_clean_sbu_0--edge1-MIFKUJ_clean_linker_0
_symmetry_space_group_name_H-M    P1
_symmetry_Int_Tables_number       1
_symmetry_cell_setting            triclinic
loop_
_symmetry_equiv_pos_as_xyz
'x, y, z'
_cell_length_a     51.271923
_cell_length_b     51.274598
_cell_length_c     77.14904
_cell_angle_alpha  89.978365
_cell_angle_beta   90.017083
_cell_angle_gamma 119.98912
loop_
_atom_site_label
_atom_site_type_symbol
_atom_site_fract_x
_atom_site_fract_y
_atom_site_fract_z
_atom_type_partial_charge
Co0 Co 0.28142 0.21842 0.49281 0.0
Co1 Co 0.33635 0.28143 0.48433 0.0
C2 C 0.33904 0.24746 0.51412 0.0
O3 O 0.31176 0.2278 0.51119 0.0
O4 O 0.35349 0.26995 0.50413 0.0
C5 C 0.26204 0.15818 0.49888 0.0
O6 O 0.29135 0.16941 0.49815 0.0
C7 C 0.3958 0.3284 0.47191 0.0
C8 C 0.38619 0.36448 0.46464 0.0
C9 C 0.40879 0.3572 0.46503 0.0
N10 N 0.36668 0.31899 0.47529 0.0
N11 N 0.36115 0.34071 0.47099 0.0
C12 C 0.41108 0.31086 0.47626 0.0
H13 H 0.39424 0.28691 0.47876 0.0
H14 H 0.42637 0.31238 0.46567 0.0
H15 H 0.42494 0.32059 0.48808 0.0
C16 C 0.29189 0.20616 0.45667 0.0
N17 N 0.29848 0.22475 0.47035 0.0
N18 N 0.32199 0.25111 0.46662 0.0
C19 C 0.33137 0.24981 0.45042 0.0
C20 C 0.31271 0.22131 0.44365 0.0
C21 C 0.26744 0.17382 0.45657 0.0
H22 H 0.24745 0.17119 0.46363 0.0
H23 H 0.27573 0.16007 0.46309 0.0
H24 H 0.26064 0.16505 0.44324 0.0
O25 O 0.2628 0.24323 0.49643 0.0
O26 O 0.30327 0.28843 0.49309 0.0
H27 H 0.35723 0.29645 0.44342 0.0
H28 H 0.35693 0.27087 0.42724 0.0
C29 C 0.35752 0.27522 0.44137 0.0
H30 H 0.37873 0.27776 0.44671 0.0
H31 H 0.34017 0.33922 0.47227 0.0
O32 O 0.2514 0.17558 0.49648 0.0
C33 C 0.27544 0.2718 0.49682 0.0
Co34 Co 0.05697 0.27754 0.65266 0.0
Co35 Co 0.04987 0.33417 0.6491 0.0
C36 C 0.08707 0.332 0.67705 0.0
O37 O 0.07915 0.30562 0.67171 0.0
O38 O 0.07873 0.3484 0.66911 0.0
C39 C 0.09927 0.25949 0.6537 0.0
O40 O 0.11637 0.28896 0.65365 0.0
C41 C 0.05915 0.39417 0.63938 0.0
C42 C 0.01434 0.38057 0.62837 0.0
C43 C 0.04296 0.4051 0.63054 0.0
N44 N 0.04098 0.3644 0.64188 0.0
N45 N 0.01406 0.35666 0.63566 0.0
C46 C 0.09201 0.41083 0.64366 0.0
H47 H 0.10024 0.39488 0.64626 0.0
H48 H 0.10511 0.42629 0.63294 0.0
H49 H 0.09557 0.42461 0.65545 0.0
C50 C 0.07631 0.29187 0.61627 0.0
N51 N 0.06597 0.29727 0.63109 0.0
N52 N 0.06521 0.32245 0.62959 0.0
C53 C 0.07618 0.33435 0.61377 0.0
C54 C 0.08355 0.31536 0.60489 0.0
C55 C 0.08139 0.26584 0.61352 0.0
H56 H 0.06453 0.24588 0.62081 0.0
H57 H 0.10431 0.27214 0.61806 0.0
H58 H 0.07984 0.2598 0.59962 0.0
O59 O 0.01403 0.25833 0.6575 0.0
O60 O 0.00999 0.29946 0.65715 0.0
H61 H 0.05906 0.36412 0.60895 0.0
H62 H 0.08616 0.36659 0.59318 0.0
C63 C 0.08017 0.36352 0.60715 0.0
H64 H 0.09848 0.38229 0.61449 0.0
H65 H 0.99594 0.33464 0.6355 0.0
O66 O 0.07085 0.24801 0.65314 0.0
C67 C 0.99847 0.27114 0.65951 0.0
Co68 Co 0.78031 0.07008 0.8233 0.0
Co69 Co 0.71523 0.05815 0.81658 0.0
C70 C 0.75392 0.103 0.84252 0.0
O71 O 0.77443 0.09679 0.83916 0.0
O72 O 0.72857 0.08973 0.83488 0.0
C73 C 0.84156 0.11109 0.82691 0.0
O74 O 0.83101 0.12968 0.82562 0.0
C75 C 0.66789 0.07002 0.80502 0.0
C76 C 0.63159 0.02449 0.79772 0.0
C77 C 0.63914 0.05447 0.79806 0.0
N78 N 0.67702 0.05012 0.80841 0.0
N79 N 0.65515 0.02292 0.80418 0.0
C80 C 0.68592 0.10279 0.80945 0.0
H81 H 0.71013 0.11142 0.80678 0.0
H82 H 0.67798 0.11635 0.80242 0.0
H83 H 0.68368 0.10545 0.82356 0.0
C84 C 0.78706 0.08508 0.78601 0.0
N85 N 0.77031 0.07508 0.80051 0.0
N86 N 0.7433 0.07119 0.79752 0.0
C87 C 0.74232 0.07911 0.7809 0.0
C88 C 0.77 0.08825 0.77314 0.0
C89 C 0.81973 0.09428 0.78507 0.0
H90 H 0.82399 0.07847 0.7927 0.0
H91 H 0.83333 0.11721 0.79057 0.0
H92 H 0.82719 0.09475 0.77155 0.0
O93 O 0.75598 0.02782 0.83062 0.0
O94 O 0.70955 0.01981 0.82701 0.0
H95 H 0.69498 0.05695 0.77555 0.0
H96 H 0.71847 0.08055 0.75816 0.0
C97 C 0.7157 0.07839 0.77245 0.0
H98 H 0.71324 0.09735 0.77734 0.0
H99 H 0.65655 0.00338 0.80537 0.0
O100 O 0.82346 0.08294 0.82556 0.0
C101 C 0.72758 0.01074 0.83165 0.0
Co102 Co 0.72241 0.77941 0.98293 0.0
Co103 Co 0.6633 0.71723 0.98096 0.0
C104 C 0.66872 0.7599 0.00755 0.0
O105 O 0.69522 0.77668 0.00181 0.0
O106 O 0.65122 0.73464 1.00045 0.0
C107 C 0.74238 0.83985 0.98267 0.0
O108 O 0.71296 0.82795 0.98258 0.0
C109 C 0.60129 0.66877 0.97276 0.0
C110 C 0.60992 0.63197 0.96577 0.0
C111 C 0.5874 0.6393 0.9668 0.0
N112 N 0.63081 0.67847 0.97492 0.0
N113 N 0.63568 0.65622 0.9709 0.0
C114 C 0.58664 0.68688 0.97718 0.0
H115 H 0.60382 0.7108 0.97942 0.0
H116 H 0.57108 0.68536 0.96676 0.0
H117 H 0.57309 0.67759 0.98915 0.0
C118 C 0.70748 0.783 0.94655 0.0
N119 N 0.70199 0.76789 0.9616 0.0
N120 N 0.67567 0.74302 0.96082 0.0
C121 C 0.66306 0.74235 0.94528 0.0
C122 C 0.68278 0.7677 0.93579 0.0
C123 C 0.73474 0.81302 0.94308 0.0
H124 H 0.75425 0.8155 0.95061 0.0
H125 H 0.72989 0.83106 0.94673 0.0
H126 H 0.74078 0.81579 0.92916 0.0
O127 O 0.73951 0.75411 0.98859 0.0
O128 O 0.6968 0.7102 0.98936 0.0
H129 H 0.62954 0.69608 0.9418 0.0
H130 H 0.62854 0.72115 0.92573 0.0
C131 C 0.63232 0.71869 0.93966 0.0
H132 H 0.61527 0.72077 0.9474 0.0
H133 H 0.6568 0.65784 0.97125 0.0
O134 O 0.75338 0.82247 0.98252 0.0
C135 C 0.72533 0.72589 0.99138 0.0
Co136 Co 0.92675 0.71312 0.15408 0.0
Co137 Co 0.93917 0.65983 0.14933 0.0
C138 C 0.89147 0.65355 0.17306 0.0
O139 O 0.89804 0.68022 0.16918 0.0
O140 O 0.90581 0.64156 0.16662 0.0
C141 C 0.88542 0.73342 0.15498 0.0
O142 O 0.8669 0.70433 0.15338 0.0
C143 C 0.93048 0.60048 0.1399 0.0
C144 C 0.97628 0.61258 0.13127 0.0
C145 C 0.94721 0.58856 0.13289 0.0
N146 N 0.94883 0.63026 0.14206 0.0
N147 N 0.97622 0.63727 0.13707 0.0
C148 C 0.89822 0.58394 0.14556 0.0
H149 H 0.89732 0.58614 0.15982 0.0
H150 H 0.88591 0.59441 0.1397 0.0
H151 H 0.88692 0.55966 0.14231 0.0
C152 C 0.91575 0.70477 0.11648 0.0
N153 N 0.92461 0.69832 0.13151 0.0
N154 N 0.92783 0.6746 0.12941 0.0
C155 C 0.92023 0.66478 0.11291 0.0
C156 C 0.91233 0.68357 0.10422 0.0
C157 C 0.907 0.72843 0.11451 0.0
H158 H 0.92221 0.74857 0.12227 0.0
H159 H 0.88361 0.71929 0.1192 0.0
H160 H 0.90788 0.7352 0.10079 0.0
O161 O 0.96786 0.73098 0.16326 0.0
O162 O 0.97638 0.69277 0.16063 0.0
H163 H 0.94044 0.63762 0.10831 0.0
H164 H 0.91487 0.63532 0.09149 0.0
C165 C 0.91894 0.63709 0.10569 0.0
H166 H 0.90048 0.61694 0.11204 0.0
H167 H 0.99471 0.65908 0.13723 0.0
O168 O 0.91363 0.74335 0.15488 0.0
C169 C 0.98488 0.71975 0.16524 0.0
Co170 Co 0.21616 0.93083 0.32736 0.0
Co171 Co 0.28007 0.94045 0.31881 0.0
C172 C 0.24609 0.90364 0.34886 0.0
O173 O 0.22579 0.91032 0.34578 0.0
O174 O 0.26884 0.91237 0.33898 0.0
C175 C 0.15549 0.88982 0.33319 0.0
O176 O 0.16715 0.87233 0.3354 0.0
C177 C 0.3287 0.92948 0.30643 0.0
C178 C 0.36132 0.97479 0.2966 0.0
C179 C 0.35626 0.94571 0.29806 0.0
N180 N 0.31778 0.94813 0.30946 0.0
N181 N 0.33759 0.9752 0.3037 0.0
C182 C 0.31381 0.89729 0.31217 0.0
H183 H 0.29928 0.89355 0.32358 0.0
H184 H 0.29953 0.88237 0.30161 0.0
H185 H 0.33099 0.89091 0.3154 0.0
C186 C 0.2047 0.909 0.29118 0.0
N187 N 0.22313 0.92062 0.30496 0.0
N188 N 0.24973 0.92415 0.30112 0.0
C189 C 0.24879 0.91445 0.28469 0.0
C190 C 0.22026 0.90452 0.27794 0.0
C191 C 0.17216 0.90048 0.29108 0.0
H192 H 0.15899 0.87916 0.29837 0.0
H193 H 0.1628 0.89686 0.2778 0.0
H194 H 0.16938 0.91835 0.29738 0.0
O195 O 0.24052 0.97419 0.33108 0.0
O196 O 0.28628 0.98049 0.32724 0.0
H197 H 0.27023 0.91183 0.26117 0.0
H198 H 0.27799 0.89673 0.28025 0.0
C199 C 0.27463 0.9151 0.27532 0.0
H200 H 0.29545 0.93691 0.27756 0.0
H201 H 0.3346 0.99388 0.30428 0.0
O202 O 0.17296 0.91755 0.32992 0.0
C203 C 0.26902 0.99091 0.33117 0.0
Co204 Co 0.77791 0.70731 0.3333 0.0
Co205 Co 0.71433 0.66078 0.34775 0.0
C206 C 0.74094 0.64516 0.31825 0.0
O207 O 0.7642 0.6711 0.31913 0.0
O208 O 0.7185 0.63724 0.32827 0.0
C209 C 0.83677 0.72375 0.3227 0.0
O210 O 0.8253 0.69441 0.32312 0.0
C211 C 0.66654 0.60577 0.36421 0.0
C212 C 0.63999 0.62324 0.37721 0.0
C213 C 0.64192 0.59741 0.37504 0.0
N214 N 0.67857 0.63516 0.36036 0.0
N215 N 0.66237 0.64535 0.36799 0.0
C216 C 0.68019 0.58717 0.35879 0.0
H217 H 0.70421 0.60181 0.35526 0.0
H218 H 0.67836 0.57165 0.36936 0.0
H219 H 0.668 0.5736 0.34727 0.0
C220 C 0.79602 0.70432 0.36918 0.0
N221 N 0.77479 0.69681 0.35692 0.0
N222 N 0.74848 0.67633 0.36311 0.0
C223 C 0.75236 0.67 0.37962 0.0
C224 C 0.78272 0.68731 0.38391 0.0
C225 C 0.82854 0.72755 0.36686 0.0
H226 H 0.83057 0.74669 0.35912 0.0
H227 H 0.84014 0.71736 0.35985 0.0
H228 H 0.83983 0.7361 0.37956 0.0
O229 O 0.75435 0.72686 0.32793 0.0
O230 O 0.70907 0.69431 0.33815 0.0
H231 H 0.70854 0.6498 0.39113 0.0
H232 H 0.73572 0.64545 0.40382 0.0
C233 C 0.728 0.64603 0.3905 0.0
H234 H 0.72048 0.62382 0.38446 0.0
H235 H 0.66713 0.66764 0.3673 0.0
O236 O 0.82027 0.73481 0.32677 0.0
C237 C 0.72692 0.71907 0.33059 0.0
Co238 Co 0.06154 0.77964 0.51706 0.0
Co239 Co 0.05178 0.71456 0.51965 0.0
C240 C 0.09613 0.75799 0.49498 0.0
O241 O 0.08866 0.77699 0.49992 0.0
O242 O 0.08384 0.73171 0.50152 0.0
C243 C 0.1026 0.84095 0.51858 0.0
O244 O 0.12072 0.82975 0.51855 0.0
C245 C 0.06529 0.66727 0.52882 0.0
C246 C 0.02003 0.62881 0.53435 0.0
C247 C 0.05037 0.63775 0.53466 0.0
N248 N 0.0447 0.67552 0.52548 0.0
N249 N 0.01766 0.65231 0.52856 0.0
C250 C 0.09838 0.68714 0.52582 0.0
H251 H 0.10489 0.71116 0.52729 0.0
H252 H 0.11188 0.6815 0.53466 0.0
H253 H 0.10361 0.68381 0.51232 0.0
C254 C 0.0736 0.77995 0.55427 0.0
N255 N 0.06559 0.76575 0.5389 0.0
N256 N 0.06378 0.7393 0.54022 0.0
C257 C 0.07189 0.73659 0.55656 0.0
C258 C 0.07849 0.76232 0.56589 0.0
C259 C 0.07917 0.8111 0.55731 0.0
H260 H 0.06283 0.81485 0.54989 0.0
H261 H 0.10227 0.8273 0.55296 0.0
H262 H 0.07729 0.81532 0.57121 0.0
O263 O 0.01994 0.75619 0.50925 0.0
O264 O 0.01301 0.70976 0.5098 0.0
H265 H 0.05365 0.68902 0.55941 0.0
H266 H 0.07552 0.71103 0.57771 0.0
C267 C 0.07384 0.71031 0.56335 0.0
H268 H 0.09419 0.71091 0.55802 0.0
H269 H 0.99769 0.65284 0.52729 0.0
O270 O 0.07432 0.82301 0.51812 0.0
C271 C 0.00344 0.72802 0.5067 0.0
Co272 Co 0.28031 0.06193 0.68083 0.0
Co273 Co 0.33417 0.05035 0.68453 0.0
C274 C 0.33689 0.09391 0.65874 0.0
O275 O 0.3106 0.08723 0.66358 0.0
O276 O 0.35046 0.08147 0.66568 0.0
C277 C 0.26132 0.10386 0.67935 0.0
O278 O 0.29059 0.12171 0.68066 0.0
C279 C 0.39368 0.0595 0.69427 0.0
C280 C 0.38132 0.01361 0.70283 0.0
C281 C 0.40525 0.04287 0.70189 0.0
N282 N 0.36419 0.04092 0.6912 0.0
N283 N 0.35715 0.01342 0.69596 0.0
C284 C 0.40933 0.09289 0.6917 0.0
H285 H 0.39272 0.10062 0.69033 0.0
H286 H 0.4247 0.10473 0.70269 0.0
H287 H 0.423 0.09875 0.67968 0.0
C288 C 0.29307 0.07795 0.71776 0.0
N289 N 0.2982 0.06771 0.70282 0.0
N290 N 0.32193 0.06437 0.70456 0.0
C291 C 0.33294 0.07311 0.72079 0.0
C292 C 0.31513 0.0821 0.72959 0.0
C293 C 0.26911 0.08622 0.72011 0.0
H294 H 0.27772 0.10962 0.71553 0.0
H295 H 0.26266 0.08513 0.7339 0.0
H296 H 0.24879 0.07078 0.71256 0.0
O297 O 0.26098 0.01967 0.67409 0.0
O298 O 0.29964 0.01165 0.67534 0.0
H299 H 0.35976 0.05222 0.72453 0.0
H300 H 0.36111 0.07573 0.7423 0.0
C301 C 0.36015 0.07337 0.72797 0.0
H302 H 0.38064 0.09272 0.72248 0.0
H303 H 0.33544 0.99481 0.69537 0.0
O304 O 0.25058 0.07555 0.67997 0.0
C305 C 0.27195 0.00244 0.67216 0.0
Co306 Co 0.21964 0.27479 0.84738 0.0
Co307 Co 0.28288 0.3321 0.85098 0.0
C308 C 0.24252 0.33057 0.82403 0.0
O309 O 0.2249 0.30372 0.82899 0.0
O310 O 0.26723 0.34724 0.83193 0.0
C311 C 0.15967 0.25754 0.84727 0.0
O312 O 0.17266 0.28705 0.8478 0.0
C313 C 0.33442 0.39152 0.86156 0.0
C314 C 0.36665 0.37696 0.86935 0.0
C315 C 0.36251 0.40168 0.86921 0.0
N316 N 0.32244 0.362 0.85793 0.0
N317 N 0.34218 0.35375 0.86225 0.0
C318 C 0.31798 0.40851 0.85918 0.0
H319 H 0.29378 0.39284 0.85649 0.0
H320 H 0.3205 0.42223 0.87085 0.0
H321 H 0.32781 0.42401 0.84798 0.0
C322 C 0.21523 0.28719 0.88415 0.0
N323 N 0.23081 0.29355 0.86922 0.0
N324 N 0.25639 0.31907 0.87082 0.0
C325 C 0.25714 0.33024 0.88684 0.0
C326 C 0.23107 0.31046 0.89572 0.0
C327 C 0.18452 0.26046 0.88687 0.0
H328 H 0.18158 0.24124 0.87887 0.0
H329 H 0.16731 0.26653 0.88325 0.0
H330 H 0.18084 0.25335 0.90062 0.0
O331 O 0.24339 0.25605 0.84168 0.0
O332 O 0.28805 0.29784 0.84186 0.0
H333 H 0.3039 0.36168 0.89092 0.0
H334 H 0.27949 0.36137 0.90785 0.0
C335 C 0.28173 0.35957 0.89365 0.0
H336 H 0.28043 0.3782 0.88723 0.0
H337 H 0.33832 0.33181 0.86113 0.0
O338 O 0.17611 0.24547 0.84706 0.0
C339 C 0.27171 0.26952 0.83931 0.0
Co340 Co 0.93327 0.21767 0.01052 0.0
Co341 Co 0.94635 0.28307 0.01757 0.0
C342 C 0.90356 0.24656 0.99025 0.0
O343 O 0.90854 0.22528 0.99392 0.0
O344 O 0.91684 0.27161 0.99824 0.0
C345 C 0.89191 0.15663 0.00582 0.0
O346 O 0.87336 0.16727 0.00667 0.0
C347 C 0.93781 0.33347 0.02801 0.0
C348 C 0.98198 0.36421 0.03992 0.0
C349 C 0.9538 0.36066 0.03675 0.0
N350 N 0.95567 0.32137 0.02639 0.0
N351 N 0.98213 0.34001 0.03335 0.0
C352 C 0.90691 0.3199 0.02032 0.0
H353 H 0.90853 0.31784 0.0061 0.0
H354 H 0.89249 0.29682 0.02545 0.0
H355 H 0.8963 0.3338 0.02279 0.0
C356 C 0.91471 0.20961 0.04726 0.0
N357 N 0.92667 0.22695 0.03311 0.0
N358 N 0.93056 0.25396 0.03608 0.0
C359 C 0.92043 0.25426 0.05223 0.0
C360 C 0.91013 0.22622 0.05978 0.0
C361 C 0.90516 0.17688 0.04822 0.0
H362 H 0.92137 0.17251 0.04111 0.0
H363 H 0.88259 0.16352 0.04222 0.0
H364 H 0.90365 0.1694 0.06186 0.0
O365 O 0.97604 0.24125 0.00426 0.0
O366 O 0.98494 0.2879 0.0081 0.0
H367 H 0.94195 0.30083 0.05928 0.0
H368 H 0.91262 0.27601 0.07402 0.0
C369 C 0.91945 0.28035 0.06019 0.0
H370 H 0.90309 0.28444 0.05306 0.0
H371 H 3e-05 0.33581 0.034 0.0
O372 O 0.91993 0.17453 0.00789 0.0
C373 C 0.99369 0.26957 0.00361 0.0
Co374 Co 0.72004 0.94525 0.18271 0.0
Co375 Co 0.66161 0.94922 0.18567 0.0
C376 C 0.66707 0.91465 0.15749 0.0
O377 O 0.69374 0.92391 0.1628 0.0
O378 O 0.64925 0.92076 0.1657 0.0
C379 C 0.739 0.90398 0.18151 0.0
O380 O 0.70953 0.88688 0.18144 0.0
C381 C 0.59946 0.93538 0.19255 0.0
C382 C 0.60769 0.97839 0.20396 0.0
C383 C 0.58508 0.94943 0.20007 0.0
N384 N 0.62922 0.95513 0.19227 0.0
N385 N 0.63392 0.98087 0.19891 0.0
C386 C 0.58542 0.90459 0.18469 0.0
H387 H 0.58785 0.90697 0.1704 0.0
H388 H 0.59763 0.89295 0.18894 0.0
H389 H 0.56114 0.89083 0.18781 0.0
C390 C 0.70289 0.92161 0.21828 0.0
N391 N 0.69867 0.93376 0.20384 0.0
N392 N 0.67318 0.93396 0.20515 0.0
C393 C 0.66011 0.92117 0.22047 0.0
C394 C 0.67847 0.91273 0.22914 0.0
C395 C 0.7295 0.91772 0.22171 0.0
H396 H 0.74984 0.93571 0.21521 0.0
H397 H 0.72474 0.89543 0.21683 0.0
H398 H 0.73377 0.91836 0.23585 0.0
O399 O 0.73798 0.98839 0.17877 0.0
O400 O 0.69546 0.98999 0.17799 0.0
H401 H 0.62842 0.93604 0.22506 0.0
H402 H 0.62545 0.90753 0.23999 0.0
C403 C 0.62981 0.91524 0.22631 0.0
H404 H 0.61219 0.89757 0.21805 0.0
H405 H 0.65517 -0.00011 0.20043 0.0
O406 O 0.75045 0.9324 0.18229 0.0
C407 C 0.72405 0.00279 0.17629 0.0
H408 H 0.62274 0.53949 0.36367 0.0
H409 H 0.5906 0.49255 0.3792 0.0
H410 H 0.58398 0.54313 0.42198 0.0
H411 H 0.61722 0.59002 0.40694 0.0
H412 H 0.59 0.4976 0.43377 0.0
H413 H 0.52922 0.51113 0.38993 0.0
H414 H 0.51618 0.51715 0.35998 0.0
H415 H 0.50941 0.43303 0.34574 0.0
H416 H 0.52277 0.4267 0.37558 0.0
H417 H 0.44773 0.41542 0.47276 0.0
H418 H 0.49474 0.44953 0.45779 0.0
H419 H 0.48423 0.37628 0.42541 0.0
H420 H 0.43696 0.34214 0.44033 0.0
H421 H 0.49244 0.42497 0.40676 0.0
H422 H 0.54215 0.40688 0.45287 0.0
H423 H 0.55364 0.40091 0.48315 0.0
H424 H 0.58032 0.49317 0.49359 0.0
H425 H 0.56856 0.49961 0.46345 0.0
C426 C 0.61516 0.54068 0.37657 0.0
C427 C 0.62294 0.56855 0.38418 0.0
C428 C 0.59645 0.51377 0.38535 0.0
C429 C 0.58477 0.51431 0.40173 0.0
C430 C 0.59285 0.54213 0.4094 0.0
C431 C 0.61163 0.56893 0.40071 0.0
C432 C 0.56284 0.48617 0.41068 0.0
C433 C 0.56864 0.4817 0.42789 0.0
C434 C 0.53543 0.46485 0.4028 0.0
C435 C 0.52736 0.46864 0.3849 0.0
C436 C 0.52517 0.49404 0.38037 0.0
C437 C 0.51768 0.49749 0.36343 0.0
C438 C 0.51207 0.47554 0.35095 0.0
C439 C 0.51384 0.45005 0.35541 0.0
C440 C 0.52136 0.44651 0.37233 0.0
C441 C 0.45594 0.40651 0.46276 0.0
C442 C 0.43923 0.37614 0.45793 0.0
C443 C 0.48279 0.42592 0.45426 0.0
C444 C 0.49317 0.41533 0.44064 0.0
C445 C 0.4768 0.38478 0.43604 0.0
C446 C 0.45003 0.36526 0.44468 0.0
C447 C 0.51911 0.43708 0.43008 0.0
C448 C 0.51409 0.44036 0.41254 0.0
C449 C 0.54714 0.45736 0.4377 0.0
C450 C 0.55431 0.45368 0.45588 0.0
C451 C 0.55025 0.42585 0.46165 0.0
C452 C 0.55685 0.42239 0.47879 0.0
C453 C 0.56767 0.44663 0.49029 0.0
C454 C 0.57195 0.47441 0.48467 0.0
C455 C 0.56536 0.47799 0.46754 0.0
H456 H 0.57277 0.44391 0.50356 0.0
H457 H 0.50628 0.47824 0.33784 0.0
H458 H 0.08217 0.46226 0.64253 0.0
H459 H 0.09832 0.50999 0.62712 0.0
H460 H 0.04483 0.4606 0.58293 0.0
H461 H 0.02893 0.41333 0.59808 0.0
H462 H 0.10054 0.50781 0.57337 0.0
H463 H 0.01699 0.48823 0.61193 0.0
H464 H 0.99276 0.47999 0.64059 0.0
H465 H 0.06472 0.56532 0.65809 0.0
H466 H 0.08956 0.57386 0.62956 0.0
H467 H 0.03694 0.58063 0.52767 0.0
H468 H 0.05122 0.54937 0.5447 0.0
H469 H 0.10437 0.62458 0.57856 0.0
H470 H 0.08996 0.65582 0.56155 0.0
H471 H 0.06411 0.57436 0.59618 0.0
H472 H 0.14029 0.59882 0.55455 0.0
H473 H 0.16322 0.60697 0.52555 0.0
H474 H 0.1058 0.51341 0.51345 0.0
H475 H 0.08215 0.50475 0.54229 0.0
C476 C 0.07431 0.4617 0.62944 0.0
C477 C 0.05428 0.43417 0.62149 0.0
C478 C 0.08344 0.4889 0.62069 0.0
C479 C 0.07277 0.48877 0.60388 0.0
C480 C 0.05348 0.46122 0.59583 0.0
C481 C 0.04418 0.43424 0.60458 0.0
C482 C 0.07955 0.51696 0.59486 0.0
C483 C 0.09274 0.52251 0.57834 0.0
C484 C 0.07023 0.53662 0.60163 0.0
C485 C 0.05532 0.53148 0.61873 0.0
C486 C 0.02776 0.5051 0.62195 0.0
C487 C 0.0139 0.5004 0.63815 0.0
C488 C 0.02725 0.52207 0.65117 0.0
C489 C 0.05445 0.54852 0.648 0.0
C490 C 0.06843 0.5533 0.63183 0.0
C491 C 0.05234 0.59062 0.53846 0.0
C492 C 0.06297 0.62071 0.54308 0.0
C493 C 0.06056 0.57286 0.54815 0.0
C494 C 0.07918 0.5848 0.56277 0.0
C495 C 0.09031 0.61508 0.5672 0.0
C496 C 0.08233 0.63295 0.55739 0.0
C497 C 0.08401 0.56453 0.57435 0.0
C498 C 0.07291 0.56041 0.59136 0.0
C499 C 0.09524 0.54618 0.568 0.0
C500 C 0.10933 0.55118 0.55059 0.0
C501 C 0.13237 0.58001 0.54567 0.0
C502 C 0.14553 0.58472 0.52926 0.0
C503 C 0.13595 0.56073 0.51766 0.0
C504 C 0.1132 0.53197 0.52246 0.0
C505 C 0.09995 0.52714 0.53885 0.0
H506 H 0.14617 0.56442 0.50496 0.0
H507 H 0.01648 0.5184 0.6637 0.0
H508 H 0.41378 0.02385 0.73287 0.0
H509 H 0.46077 0.04123 0.74858 0.0
H510 H 0.50938 0.10415 0.70752 0.0
H511 H 0.46197 0.08641 0.69148 0.0
H512 H 0.53578 0.07085 0.71807 0.0
H513 H 0.503 0.13235 0.74443 0.0
H514 H 0.46711 0.14512 0.75772 0.0
H515 H 0.45361 0.08559 0.80022 0.0
H516 H 0.48901 0.07202 0.78705 0.0
H517 H 0.65709 0.09967 0.7743 0.0
H518 H 0.62475 0.11354 0.75801 0.0
H519 H 0.54755 0.04763 0.78673 0.0
H520 H 0.57992 0.03422 0.80324 0.0
H521 H 0.5449 0.0995 0.78017 0.0
H522 H 0.56644 0.02913 0.74897 0.0
H523 H 0.6009 0.01463 0.73539 0.0
H524 H 0.63506 0.09153 0.70175 0.0
H525 H 0.60103 0.10668 0.71531 0.0
C526 C 0.43444 0.0414 0.72715 0.0
C527 C 0.43421 0.05396 0.71102 0.0
C528 C 0.46124 0.05153 0.73623 0.0
C529 C 0.48844 0.07439 0.72937 0.0
C530 C 0.4885 0.08677 0.71312 0.0
C531 C 0.46147 0.07674 0.70403 0.0
C532 C 0.51669 0.08363 0.73901 0.0
C533 C 0.53831 0.07805 0.73149 0.0
C534 C 0.5198 0.09281 0.75655 0.0
C535 C 0.49866 0.1011 0.7647 0.0
C536 C 0.49226 0.12183 0.75656 0.0
C537 C 0.472 0.12923 0.76408 0.0
C538 C 0.45807 0.11617 0.7798 0.0
C539 C 0.46443 0.09572 0.78805 0.0
C540 C 0.48465 0.0882 0.78057 0.0
C541 C 0.63342 0.08906 0.77759 0.0
C542 C 0.62097 0.06631 0.79023 0.0
C543 C 0.61495 0.09676 0.76816 0.0
C544 C 0.58377 0.08154 0.77114 0.0
C545 C 0.57159 0.05981 0.78433 0.0
C546 C 0.59001 0.05207 0.79369 0.0
C547 C 0.56312 0.08544 0.75941 0.0
C548 C 0.54294 0.09342 0.76657 0.0
C549 C 0.56133 0.07852 0.74153 0.0
C550 C 0.58151 0.06923 0.73329 0.0
C551 C 0.58145 0.04304 0.73875 0.0
C552 C 0.60088 0.0347 0.73106 0.0
C553 C 0.62023 0.05221 0.71775 0.0
C554 C 0.62011 0.07804 0.71208 0.0
C555 C 0.60077 0.08652 0.71977 0.0
H556 H 0.63526 0.04572 0.71181 0.0
H557 H 0.44237 0.12191 0.7856 0.0
H558 H 0.54941 0.58074 0.9741 0.0
H559 H 0.50537 0.54559 0.95719 0.0
H560 H 0.51377 0.61903 0.92584 0.0
H561 H 0.55815 0.65428 0.9426 0.0
H562 H 0.45012 0.56758 0.93256 0.0
H563 H 0.54688 0.59013 0.91009 0.0
H564 H 0.59828 0.59809 0.91279 0.0
H565 H 0.5624 0.50719 0.9307 0.0
H566 H 0.51078 0.49889 0.92841 0.0
H567 H 0.37503 0.45988 0.86188 0.0
H568 H 0.40876 0.50581 0.87813 0.0
H569 H 0.42841 0.4532 0.91386 0.0
H570 H 0.39476 0.40764 0.89807 0.0
H571 H 0.47905 0.50129 0.90121 0.0
H572 H 0.38272 0.47951 0.92527 0.0
H573 H 0.3312 0.47152 0.92357 0.0
H574 H 0.36566 0.56034 0.90257 0.0
H575 H 0.41739 0.56869 0.90391 0.0
C576 C 0.54114 0.58951 0.96403 0.0
C577 C 0.55681 0.62023 0.95984 0.0
C578 C 0.51602 0.56947 0.9544 0.0
C579 C 0.50647 0.57977 0.94025 0.0
C580 C 0.52061 0.61076 0.93685 0.0
C581 C 0.54582 0.6309 0.94654 0.0
C582 C 0.48558 0.55772 0.92747 0.0
C583 C 0.45647 0.55337 0.92544 0.0
C584 C 0.49403 0.5393 0.91821 0.0
C585 C 0.525 0.54397 0.9192 0.0
C586 C 0.54997 0.57191 0.91471 0.0
C587 C 0.57914 0.57648 0.91617 0.0
C588 C 0.58361 0.55318 0.92194 0.0
C589 C 0.5589 0.52523 0.92624 0.0
C590 C 0.52968 0.52057 0.92485 0.0
C591 C 0.38605 0.45805 0.87338 0.0
C592 C 0.38201 0.43002 0.87873 0.0
C593 C 0.40544 0.48433 0.8826 0.0
C594 C 0.42103 0.48285 0.8972 0.0
C595 C 0.41672 0.45488 0.90258 0.0
C596 C 0.3975 0.42883 0.89347 0.0
C597 C 0.44303 0.5102 0.9067 0.0
C598 C 0.47264 0.51574 0.90804 0.0
C599 C 0.43492 0.52958 0.91523 0.0
C600 C 0.40387 0.52458 0.91448 0.0
C601 C 0.37929 0.49723 0.92013 0.0
C602 C 0.35005 0.49266 0.91926 0.0
C603 C 0.34515 0.51537 0.91291 0.0
C604 C 0.36949 0.54274 0.90745 0.0
C605 C 0.39876 0.54741 0.90827 0.0
H606 H 0.3225 0.51179 0.91225 0.0
H607 H 0.60621 0.55676 0.92307 0.0
H608 H 0.98426 0.42153 0.03716 0.0
H609 H 0.97114 0.45461 0.05304 0.0
H610 H 0.88709 0.37764 0.06879 0.0
H611 H 0.90063 0.34435 0.05335 0.0
H612 H 0.92625 0.46769 0.0527 0.0
H613 H 0.87523 0.39017 0.1113 0.0
H614 H 0.87468 0.34632 0.12495 0.0
H615 H 0.96329 0.37529 0.10514 0.0
H616 H 0.96449 0.41947 0.09158 0.0
H617 H 0.89774 0.55443 0.11274 0.0
H618 H 0.886 0.50828 0.09711 0.0
H619 H 0.96369 0.5101 0.11998 0.0
H620 H 0.97493 0.55567 0.13602 0.0
H621 H 0.9172 0.45245 0.11644 0.0
H622 H 0.96925 0.54373 0.08157 0.0
H623 H 0.97422 0.58973 0.06821 0.0
H624 H 0.89115 0.5367 0.04075 0.0
H625 H 0.88552 0.49041 0.05415 0.0
C626 C 0.96271 0.41177 0.04372 0.0
C627 C 0.94324 0.3805 0.04379 0.0
C628 C 0.95518 0.43066 0.05272 0.0
C629 C 0.9282 0.41857 0.06215 0.0
C630 C 0.90804 0.38741 0.06162 0.0
C631 C 0.91562 0.36847 0.05261 0.0
C632 C 0.92293 0.43852 0.07372 0.0
C633 C 0.92377 0.4641 0.06661 0.0
C634 C 0.9199 0.43395 0.09189 0.0
C635 C 0.91976 0.40787 0.10027 0.0
C636 C 0.89461 0.3872 0.10992 0.0
C637 C 0.89419 0.3623 0.11763 0.0
C638 C 0.91889 0.35796 0.11585 0.0
C639 C 0.94413 0.37861 0.10645 0.0
C640 C 0.94469 0.40357 0.09875 0.0
C641 C 0.91152 0.54423 0.11501 0.0
C642 C 0.93694 0.55824 0.12582 0.0
C643 C 0.905 0.51808 0.10591 0.0
C644 C 0.92409 0.5059 0.1073 0.0
C645 C 0.94857 0.51902 0.1188 0.0
C646 C 0.95506 0.5451 0.12788 0.0
C647 C 0.921 0.48182 0.09543 0.0
C648 C 0.91868 0.45553 0.10249 0.0
C649 C 0.92319 0.48597 0.07723 0.0
C650 C 0.9268 0.5137 0.069 0.0
C651 C 0.95197 0.54193 0.07276 0.0
C652 C 0.95491 0.56803 0.06518 0.0
C653 C 0.93297 0.56615 0.05368 0.0
C654 C 0.90809 0.53813 0.04969 0.0
C655 C 0.90502 0.51196 0.05727 0.0
H656 H 0.93527 0.58638 0.04783 0.0
H657 H 0.91848 0.33864 0.1218 0.0
H658 H 0.54996 0.97474 0.1975 0.0
H659 H 0.5031 0.95984 0.21309 0.0
H660 H 0.50318 0.88092 0.23244 0.0
H661 H 0.55066 0.89633 0.21728 0.0
H662 H 0.44596 0.91257 0.21575 0.0
H663 H 0.48404 0.87496 0.27537 0.0
H664 H 0.53033 0.87909 0.28786 0.0
H665 H 0.58333 0.96538 0.26358 0.0
H666 H 0.53733 0.96189 0.25117 0.0
H667 H 0.33908 0.89274 0.28074 0.0
H668 H 0.3716 0.8794 0.26434 0.0
H669 H 0.44946 0.96254 0.28029 0.0
H670 H 0.41716 0.97561 0.297 0.0
H671 H 0.46164 0.91651 0.27941 0.0
H672 H 0.41405 0.95844 0.24266 0.0
H673 H 0.37001 0.95872 0.22998 0.0
H674 H 0.33952 0.87109 0.20819 0.0
H675 H 0.38321 0.87016 0.22096 0.0
C676 C 0.53948 0.95376 0.20467 0.0
C677 C 0.55367 0.93648 0.20599 0.0
C678 C 0.51266 0.94519 0.21352 0.0
C679 C 0.49977 0.91939 0.22403 0.0
C680 C 0.5128 0.90094 0.22442 0.0
C681 C 0.53973 0.90956 0.21557 0.0
C682 C 0.47544 0.91458 0.23625 0.0
C683 C 0.4491 0.91283 0.22967 0.0
C684 C 0.47963 0.91519 0.25442 0.0
C685 C 0.50733 0.91797 0.26221 0.0
C686 C 0.50558 0.89484 0.27278 0.0
C687 C 0.53175 0.89707 0.27983 0.0
C688 C 0.55976 0.92243 0.27646 0.0
C689 C 0.56164 0.94571 0.26614 0.0
C690 C 0.53554 0.94362 0.25909 0.0
C691 C 0.36319 0.90762 0.28129 0.0
C692 C 0.37565 0.93507 0.29033 0.0
C693 C 0.38173 0.90012 0.27175 0.0
C694 C 0.41292 0.92007 0.27102 0.0
C695 C 0.42547 0.94675 0.28074 0.0
C696 C 0.407 0.95427 0.29021 0.0
C697 C 0.43241 0.91504 0.2589 0.0
C698 C 0.45792 0.91508 0.26551 0.0
C699 C 0.42767 0.91334 0.24075 0.0
C700 C 0.40165 0.91408 0.23292 0.0
C701 C 0.39783 0.93916 0.23526 0.0
C702 C 0.37296 0.93945 0.22805 0.0
C703 C 0.35193 0.9149 0.21833 0.0
C704 C 0.35579 0.89006 0.21575 0.0
C705 C 0.3806 0.88964 0.22297 0.0
H706 H 0.33268 0.91515 0.21276 0.0
H707 H 0.58 0.92407 0.28189 0.0
H708 H 0.16171 0.88421 0.51863 0.0
H709 H 0.183 0.93846 0.5199 0.0
H710 H 0.09375 0.92676 0.5231 0.0
H711 H 0.07205 0.87199 0.5216 0.0
H712 H 0.1261 0.96674 0.49891 0.0
H713 H 0.1432 0.96091 0.56002 0.0
H714 H 0.15898 0.94531 0.58646 0.0
H715 H 0.24676 0.97692 0.56467 0.0
H716 H 0.2319 0.99386 0.53841 0.0
H717 H 0.20146 0.12863 0.50556 0.0
H718 H 0.16906 0.07503 0.51219 0.0
H719 H 0.24507 0.06132 0.50646 0.0
H720 H 0.27739 0.11452 0.4997 0.0
H721 H 0.21243 0.03518 0.53611 0.0
H722 H 0.19406 0.04097 0.47487 0.0
H723 H 0.17866 0.05962 0.44964 0.0
H724 H 0.09113 0.02698 0.47211 0.0
H725 H 0.10619 0.0085 0.49761 0.0
C726 C 0.14653 0.89307 0.51975 0.0
C727 C 0.11518 0.8738 0.51994 0.0
C728 C 0.15879 0.92415 0.5207 0.0
C729 C 0.14 0.93667 0.52194 0.0
C730 C 0.10865 0.91752 0.5223 0.0
C731 C 0.0963 0.88629 0.52136 0.0
C732 C 0.15336 0.96976 0.52096 0.0
C733 C 0.14444 0.98178 0.50735 0.0
C734 C 0.17758 0.98935 0.53176 0.0
C735 C 0.18636 0.97839 0.54723 0.0
C736 C 0.16582 0.96441 0.56085 0.0
C737 C 0.17466 0.95553 0.57584 0.0
C738 C 0.20372 0.9598 0.57716 0.0
C739 C 0.22421 0.9735 0.56361 0.0
C740 C 0.2157 0.98304 0.54875 0.0
C741 C 0.2112 0.11414 0.50565 0.0
C742 C 0.24202 0.12581 0.50228 0.0
C743 C 0.19269 0.08359 0.50944 0.0
C744 C 0.20475 0.06433 0.50985 0.0
C745 C 0.23542 0.07591 0.50636 0.0
C746 C 0.25385 0.10632 0.50251 0.0
C747 C 0.18564 0.03197 0.51383 0.0
C748 C 0.19358 0.02017 0.52797 0.0
C749 C 0.16042 0.01266 0.50358 0.0
C750 C 0.15137 0.0237 0.48824 0.0
C751 C 0.17163 0.03801 0.4745 0.0
C752 C 0.16294 0.0485 0.46014 0.0
C753 C 0.13397 0.04458 0.4593 0.0
C754 C 0.11359 0.03007 0.4728 0.0
C755 C 0.12218 0.01957 0.4872 0.0
H756 H 0.12728 0.05271 0.44816 0.0
H757 H 0.21037 0.9526 0.58871 0.0
H758 H 0.07086 0.1979 0.65349 0.0
H759 H 0.09437 0.16653 0.6551 0.0
H760 H 0.18223 0.24638 0.65608 0.0
H761 H 0.15905 0.27777 0.65422 0.0
H762 H 0.182 0.20391 0.63566 0.0
H763 H 0.14769 0.2094 0.69333 0.0
H764 H 0.10974 0.20319 0.71507 0.0
H765 H 0.05894 0.10848 0.70408 0.0
H766 H 0.09643 0.11423 0.6821 0.0
H767 H 0.27808 0.16309 0.6764 0.0
H768 H 0.24611 0.1844 0.66972 0.0
H769 H 0.16815 0.09527 0.66849 0.0
H770 H 0.20003 0.07361 0.67537 0.0
H771 H 0.15796 0.13575 0.68623 0.0
H772 H 0.19747 0.1302 0.63119 0.0
H773 H 0.2372 0.13753 0.61049 0.0
H774 H 0.27968 0.23332 0.61708 0.0
H775 H 0.24044 0.22656 0.63803 0.0
C776 C 0.09519 0.20873 0.65396 0.0
C777 C 0.11312 0.24029 0.65393 0.0
C778 C 0.10856 0.1908 0.65489 0.0
C779 C 0.14 0.20417 0.65592 0.0
C780 C 0.15792 0.23563 0.65531 0.0
C781 C 0.14461 0.25353 0.65434 0.0
C782 C 0.15443 0.1857 0.65845 0.0
C783 C 0.17684 0.18908 0.64674 0.0
C784 C 0.1471 0.16579 0.67268 0.0
C785 C 0.12465 0.1623 0.68593 0.0
C786 C 0.1283 0.18729 0.69546 0.0
C787 C 0.1069 0.18385 0.70784 0.0
C788 C 0.08189 0.15547 0.71092 0.0
C789 C 0.07828 0.13046 0.70166 0.0
C790 C 0.0996 0.13379 0.68924 0.0
C791 C 0.25413 0.14796 0.67479 0.0
C792 C 0.24158 0.11665 0.67632 0.0
C793 C 0.23593 0.16019 0.67087 0.0
C794 C 0.20491 0.14134 0.66831 0.0
C795 C 0.19211 0.11012 0.6703 0.0
C796 C 0.21034 0.09782 0.67423 0.0
C797 C 0.18601 0.15454 0.66368 0.0
C798 C 0.16275 0.15014 0.67498 0.0
C799 C 0.19268 0.17364 0.64912 0.0
C800 C 0.21608 0.17784 0.63628 0.0
C801 C 0.21537 0.15282 0.62831 0.0
C802 C 0.2378 0.15688 0.61652 0.0
C803 C 0.26098 0.18587 0.61249 0.0
C804 C 0.26171 0.21087 0.62021 0.0
C805 C 0.23935 0.20694 0.63203 0.0
H806 H 0.27835 0.18896 0.60338 0.0
H807 H 0.06534 0.15285 0.72051 0.0
H808 H 0.11954 0.27738 0.84791 0.0
H809 H 0.06479 0.24737 0.8481 0.0
H810 H 0.06997 0.16591 0.84815 0.0
H811 H 0.12507 0.19599 0.84783 0.0
H812 H 0.03193 0.16437 0.82388 0.0
H813 H 0.04622 0.18625 0.88422 0.0
H814 H 0.0648 0.21639 0.91095 0.0
H815 H 0.02144 0.26638 0.89662 0.0
H816 H 0.00284 0.23677 0.8697 0.0
H817 H 0.87112 0.07928 0.83057 0.0
H818 H 0.92464 0.09946 0.83688 0.0
H819 H 0.93829 0.1896 0.83707 0.0
H820 H 0.885 0.16972 0.83099 0.0
H821 H 0.96583 0.1801 0.86432 0.0
H822 H 0.95799 0.16307 0.80233 0.0
H823 H 0.93826 0.1324 0.77584 0.0
H824 H 0.96983 0.07364 0.7936 0.0
H825 H 0.98939 0.10377 0.82032 0.0
C826 C 0.10906 0.25308 0.84806 0.0
C827 C 0.12657 0.23904 0.84779 0.0
C828 C 0.07776 0.23596 0.84833 0.0
C829 C 0.06334 0.20442 0.84838 0.0
C830 C 0.08073 0.19025 0.84822 0.0
C831 C 0.11214 0.20744 0.84799 0.0
C832 C 0.03016 0.18652 0.84723 0.0
C833 C 0.01741 0.16727 0.83295 0.0
C834 C 0.01135 0.19082 0.8589 0.0
C835 C 0.02324 0.20933 0.87486 0.0
C836 C 0.04086 0.20383 0.88667 0.0
C837 C 0.05126 0.22073 0.90191 0.0
C838 C 0.0442 0.2432 0.90551 0.0
C839 C 0.02681 0.2489 0.89384 0.0
C840 C 0.01629 0.23203 0.8786 0.0
C841 C 0.88555 0.1034 0.83192 0.0
C842 C 0.87388 0.12293 0.83023 0.0
C843 C 0.91608 0.11487 0.83552 0.0
C844 C 0.93537 0.14601 0.83737 0.0
C845 C 0.92372 0.16548 0.83575 0.0
C846 C 0.89328 0.15407 0.83218 0.0
C847 C 0.96785 0.15865 0.84077 0.0
C848 C 0.9804 0.17687 0.85545 0.0
C849 C 0.98652 0.15351 0.82947 0.0
C850 C 0.97481 0.13544 0.81341 0.0
C851 C 0.96048 0.14345 0.80065 0.0
C852 C 0.94938 0.1262 0.78559 0.0
C853 C 0.9527 0.10103 0.78307 0.0
C854 C 0.96721 0.09311 0.79559 0.0
C855 C 0.97832 0.11027 0.81069 0.0
H856 H 0.9441 0.08771 0.77139 0.0
H857 H 0.05232 0.25627 0.9173 0.0
H858 H 0.72483 0.88162 0.98496 0.0
H859 H 0.75643 0.93615 0.98476 0.0
H860 H 0.8357 0.92765 0.97997 0.0
H861 H 0.80395 0.8726 0.97998 0.0
H862 H 0.84052 0.96663 0.00574 0.0
H863 H 0.81505 0.95336 0.94584 0.0
H864 H 0.78258 0.93443 0.91997 0.0
H865 H 0.73343 0.9773 0.93687 0.0
H866 H 0.76543 0.99631 0.96293 0.0
H867 H 0.92416 0.12779 0.00108 0.0
H868 H 0.90445 0.07468 0.9939 0.0
H869 H 0.8139 0.05993 0.99492 0.0
H870 H 0.83335 0.11289 0.00179 0.0
H871 H 0.8227 0.03358 0.96714 0.0
H872 H 0.84251 0.03955 0.02887 0.0
H873 H 0.87434 0.05862 0.05498 0.0
H874 H 0.93287 0.02849 0.03488 0.0
H875 H 0.90157 0.00958 0.00852 0.0
C876 C 0.74895 0.89127 0.98364 0.0
C877 C 0.76191 0.87284 0.98238 0.0
C878 C 0.76697 0.92246 0.98346 0.0
C879 C 0.79833 0.93588 0.98208 0.0
C880 C 0.81147 0.91763 0.9809 0.0
C881 C 0.79335 0.88627 0.98095 0.0
C882 C 0.81713 0.96897 0.98311 0.0
C883 C 0.83724 0.98138 0.99705 0.0
C884 C 0.81231 0.98801 0.97193 0.0
C885 C 0.79266 0.97624 0.95638 0.0
C886 C 0.79721 0.95862 0.94411 0.0
C887 C 0.77898 0.94798 0.92936 0.0
C888 C 0.7561 0.95484 0.92673 0.0
C889 C 0.7513 0.97218 0.93888 0.0
C890 C 0.76952 0.98295 0.95362 0.0
C891 C 0.90005 0.1132 0.99981 0.0
C892 C 0.88029 0.12448 0.00205 0.0
C893 C 0.88885 0.0829 0.99571 0.0
C894 C 0.85772 0.06341 0.99395 0.0
C895 C 0.83801 0.07466 0.99615 0.0
C896 C 0.84917 0.1049 1.00017 0.0
C897 C 0.84534 0.0311 0.99007 0.0
C898 C 0.82647 0.01888 0.9756 0.0
C899 C 0.85116 0.0122 0.0008 0.0
C900 C 0.86993 0.02351 0.01664 0.0
C901 C 0.86231 0.03723 0.02995 0.0
C902 C 0.88022 0.04796 0.04481 0.0
C903 C 0.90567 0.04486 0.04656 0.0
C904 C 0.9132 0.03093 0.03348 0.0
C905 C 0.89538 0.0202 0.01859 0.0
H906 H 0.91951 0.05317 0.05807 0.0
H907 H 0.742 0.94657 0.91531 0.0
H908 H 0.72105 0.84485 0.18611 0.0
H909 H 0.75152 0.82079 0.18392 0.0
H910 H 0.8306 0.90715 0.17449 0.0
H911 H 0.79993 0.93148 0.17636 0.0
H912 H 0.82644 0.86677 0.1515 0.0
H913 H 0.82085 0.8698 0.21292 0.0
H914 H 0.79709 0.86292 0.2416 0.0
H915 H 0.7462 0.76737 0.2334 0.0
H916 H 0.76918 0.77369 0.20452 0.0
H917 H 0.91667 0.79506 0.15598 0.0
H918 H 0.89645 0.82847 0.16207 0.0
H919 H 0.80713 0.75144 0.16643 0.0
H920 H 0.82696 0.71796 0.16026 0.0
H921 H 0.82341 0.79274 0.19407 0.0
H922 H 0.82437 0.79122 0.13138 0.0
H923 H 0.8484 0.79787 0.1028 0.0
H924 H 0.90894 0.89118 0.11412 0.0
H925 H 0.88557 0.88494 0.14292 0.0
C926 C 0.74496 0.85881 0.18369 0.0
C927 C 0.75809 0.89003 0.18128 0.0
C928 C 0.76242 0.84503 0.1826 0.0
C929 C 0.7934 0.86222 0.17924 0.0
C930 C 0.80672 0.89351 0.17714 0.0
C931 C 0.78922 0.90736 0.17824 0.0
C932 C 0.81121 0.84703 0.1768 0.0
C933 C 0.82636 0.85111 0.16099 0.0
C934 C 0.81062 0.82619 0.18907 0.0
C935 C 0.79663 0.82227 0.20646 0.0
C936 C 0.80439 0.84734 0.21715 0.0
C937 C 0.79108 0.84353 0.23346 0.0
C938 C 0.7701 0.81474 0.23931 0.0
C939 C 0.76243 0.78967 0.22885 0.0
C940 C 0.77561 0.79336 0.21251 0.0
C941 C 0.89271 0.78527 0.15815 0.0
C942 C 0.8734 0.7539 0.15769 0.0
C943 C 0.88123 0.80436 0.16163 0.0
C944 C 0.85037 0.79231 0.16475 0.0
C945 C 0.83106 0.76107 0.16415 0.0
C946 C 0.84242 0.74202 0.16053 0.0
C947 C 0.83794 0.81212 0.16871 0.0
C948 C 0.82386 0.80885 0.18477 0.0
C949 C 0.83956 0.83372 0.15673 0.0
C950 C 0.85348 0.83753 0.13939 0.0
C951 C 0.84299 0.81309 0.12784 0.0
C952 C 0.85646 0.81679 0.11159 0.0
C953 C 0.88024 0.84491 0.10666 0.0
C954 C 0.89056 0.8694 0.11797 0.0
C955 C 0.87721 0.86579 0.13425 0.0
H956 H 0.89063 0.84775 0.09407 0.0
H957 H 0.75984 0.81184 0.25195 0.0
H958 H 0.11309 0.83037 0.33469 0.0
H959 H 0.05919 0.80754 0.32943 0.0
H960 H 0.06913 0.89558 0.32274 0.0
H961 H 0.12344 0.91882 0.32793 0.0
H962 H 0.01957 0.85621 0.3435 0.0
H963 H 0.06112 0.85722 0.28808 0.0
H964 H 0.09265 0.84895 0.26717 0.0
H965 H 0.04215 0.75386 0.27696 0.0
H966 H 0.01058 0.76155 0.29812 0.0
H967 H 0.86689 0.78474 0.31773 0.0
H968 H 0.92135 0.81804 0.31514 0.0
H969 H 0.9342 0.74114 0.31801 0.0
H970 H 0.8799 0.70774 0.32005 0.0
H971 H 0.97327 0.78204 0.29575 0.0
H972 H 0.93699 0.78201 0.3539 0.0
H973 H 0.90428 0.78922 0.3744 0.0
H974 H 0.94559 0.88238 0.35986 0.0
H975 H 0.97788 0.87545 0.33883 0.0
C976 C 0.10387 0.84497 0.33224 0.0
C977 C 0.12255 0.87641 0.33166 0.0
C978 C 0.07309 0.83186 0.32913 0.0
C979 C 0.06038 0.8499 0.32543 0.0
C980 C 0.07867 0.88134 0.32547 0.0
C981 C 0.10961 0.89453 0.32845 0.0
C982 C 0.02791 0.83557 0.32151 0.0
C983 C 0.00945 0.84046 0.33286 0.0
C984 C 0.01487 0.81481 0.30771 0.0
C985 C 0.03359 0.81001 0.2948 0.0
C986 C 0.05685 0.83455 0.28587 0.0
C987 C 0.0747 0.82996 0.27394 0.0
C988 C 0.06938 0.8009 0.27074 0.0
C989 C 0.04618 0.77635 0.27943 0.0
C990 C 0.02828 0.78081 0.29138 0.0
C991 C 0.88131 0.77492 0.31757 0.0
C992 C 0.86918 0.74368 0.31934 0.0
C993 C 0.9124 0.79396 0.31609 0.0
C994 C 0.93182 0.78208 0.3167 0.0
C995 C 0.91961 0.75078 0.31754 0.0
C996 C 0.88856 0.73173 0.3188 0.0
C997 C 0.96483 0.80207 0.31802 0.0
C998 C 0.98342 0.79821 0.3062 0.0
C999 C 0.97801 0.82368 0.33143 0.0
C1000 C 0.95959 0.82813 0.34465 0.0
C1001 C 0.93901 0.804 0.35502 0.0
C1002 C 0.92051 0.80803 0.36672 0.0
C1003 C 0.92284 0.83625 0.36842 0.0
C1004 C 0.94377 0.86052 0.3585 0.0
C1005 C 0.96212 0.85654 0.34665 0.0
H1006 H 0.90841 0.83933 0.37741 0.0
H1007 H 0.08324 0.79739 0.26155 0.0
H1008 H 0.32708 0.02985 0.34161 0.0
H1009 H 0.34561 0.07854 0.35608 0.0
H1010 H 0.2587 0.07131 0.34951 0.0
H1011 H 0.24012 0.02302 0.33501 0.0
H1012 H 0.30471 0.12959 0.34539 0.0
H1013 H 0.27463 0.04689 0.38617 0.0
H1014 H 0.27724 0.00413 0.39894 0.0
H1015 H 0.37088 0.06232 0.41062 0.0
H1016 H 0.36888 0.10535 0.39769 0.0
H1017 H 0.27386 0.19595 0.41666 0.0
H1018 H 0.27765 0.16627 0.39296 0.0
H1019 H 0.36558 0.18709 0.41122 0.0
H1020 H 0.36136 0.21621 0.43521 0.0
H1021 H 0.33057 0.12844 0.40726 0.0
H1022 H 0.35702 0.21362 0.37184 0.0
H1023 H 0.35335 0.256 0.35949 0.0
H1024 H 0.26685 0.19423 0.33789 0.0
H1025 H 0.26977 0.15146 0.35033 0.0
C1026 C 0.31212 0.03894 0.34292 0.0
C1027 C 0.28199 0.02234 0.33737 0.0
C1028 C 0.32273 0.06672 0.35123 0.0
C1029 C 0.3034 0.07834 0.35407 0.0
C1030 C 0.27399 0.06278 0.34748 0.0
C1031 C 0.26335 0.03503 0.33928 0.0
C1032 C 0.31237 0.10489 0.36539 0.0
C1033 C 0.31042 0.12946 0.35892 0.0
C1034 C 0.32056 0.105 0.38291 0.0
C1035 C 0.32171 0.07921 0.39077 0.0
C1036 C 0.29583 0.0505 0.39134 0.0
C1037 C 0.29718 0.02623 0.39863 0.0
C1038 C 0.32423 0.03048 0.40554 0.0
C1039 C 0.34996 0.05904 0.40523 0.0
C1040 C 0.34873 0.08337 0.39792 0.0
C1041 C 0.29415 0.19452 0.41539 0.0
C1042 C 0.31718 0.20798 0.42775 0.0
C1043 C 0.29645 0.1778 0.40179 0.0
C1044 C 0.32199 0.17454 0.40023 0.0
C1045 C 0.3457 0.18931 0.41214 0.0
C1046 C 0.34336 0.20603 0.42576 0.0
C1047 C 0.32226 0.15303 0.38742 0.0
C1048 C 0.32575 0.12921 0.39363 0.0
C1049 C 0.31545 0.15366 0.36968 0.0
C1050 C 0.31356 0.17931 0.36212 0.0
C1051 C 0.33711 0.20906 0.36457 0.0
C1052 C 0.33518 0.23316 0.35753 0.0
C1053 C 0.30986 0.22781 0.34793 0.0
C1054 C 0.28645 0.19834 0.34532 0.0
C1055 C 0.28825 0.17415 0.35235 0.0
H1056 H 0.30841 0.2465 0.34248 0.0
H1057 H 0.32524 0.01167 0.41118 0.0
H1058 H 0.21449 0.24752 0.49607 0.0
H1059 H 0.1849 0.26673 0.5103 0.0
H1060 H 0.26662 0.34562 0.52678 0.0
H1061 H 0.29651 0.32677 0.51226 0.0
H1062 H 0.22542 0.31187 0.55387 0.0
H1063 H 0.22574 0.35658 0.49955 0.0
H1064 H 0.21954 0.35811 0.46795 0.0
H1065 H 0.12592 0.29152 0.47244 0.0
H1066 H 0.13165 0.28923 0.50406 0.0
H1067 H 0.14099 0.36066 0.60081 0.0
H1068 H 0.1765 0.36438 0.57832 0.0
H1069 H 0.10479 0.28766 0.55212 0.0
H1070 H 0.06923 0.28429 0.5745 0.0
H1071 H 0.14567 0.32856 0.52896 0.0
H1072 H 0.14617 0.27577 0.58052 0.0
H1073 H 0.15039 0.26881 0.61184 0.0
H1074 H 0.23975 0.34542 0.61221 0.0
H1075 H 0.23607 0.35283 0.58087 0.0
C1076 C 0.22619 0.26925 0.50242 0.0
C1077 C 0.25783 0.28557 0.50313 0.0
C1078 C 0.20925 0.28026 0.51047 0.0
C1079 C 0.22359 0.3076 0.51956 0.0
C1080 C 0.25517 0.32452 0.51976 0.0
C1081 C 0.27218 0.31377 0.51142 0.0
C1082 C 0.20548 0.31655 0.53036 0.0
C1083 C 0.20853 0.31635 0.54841 0.0
C1084 C 0.18277 0.3213 0.52321 0.0
C1085 C 0.17919 0.32258 0.50419 0.0
C1086 C 0.20389 0.34206 0.49379 0.0
C1087 C 0.20044 0.34311 0.47588 0.0
C1088 C 0.17237 0.32488 0.46819 0.0
C1089 C 0.14766 0.30561 0.47842 0.0
C1090 C 0.15099 0.30446 0.49634 0.0
C1091 C 0.13271 0.34532 0.5899 0.0
C1092 C 0.1026 0.32205 0.58934 0.0
C1093 C 0.15298 0.3473 0.57715 0.0
C1094 C 0.14337 0.32595 0.56373 0.0
C1095 C 0.11269 0.30431 0.56238 0.0
C1096 C 0.09244 0.30233 0.57514 0.0
C1097 C 0.16562 0.32379 0.55244 0.0
C1098 C 0.16311 0.3249 0.53437 0.0
C1099 C 0.18855 0.31929 0.55954 0.0
C1100 C 0.19071 0.31509 0.57841 0.0
C1101 C 0.16662 0.29129 0.58731 0.0
C1102 C 0.16892 0.28723 0.60506 0.0
C1103 C 0.19523 0.30678 0.61403 0.0
C1104 C 0.21935 0.33035 0.60525 0.0
C1105 C 0.2172 0.33446 0.5875 0.0
H1106 H 0.19698 0.30359 0.62776 0.0
H1107 H 0.16975 0.32573 0.45432 0.0
H1108 H 0.77411 0.14129 0.76415 0.0
H1109 H 0.80248 0.17383 0.73972 0.0
H1110 H 0.82161 0.10559 0.72142 0.0
H1111 H 0.79288 0.07301 0.74567 0.0
H1112 H 0.8614 0.19573 0.73604 0.0
H1113 H 0.83568 0.11271 0.67842 0.0
H1114 H 0.79204 0.06798 0.66583 0.0
H1115 H 0.73228 0.09477 0.68808 0.0
H1116 H 0.77555 0.1399 0.70057 0.0
H1117 H 0.9652 0.20999 0.66271 0.0
H1118 H 0.91692 0.18064 0.67731 0.0
H1119 H 0.91223 0.26136 0.68566 0.0
H1120 H 0.96089 0.29113 0.67115 0.0
H1121 H 0.85914 0.16988 0.67389 0.0
H1122 H 0.88669 0.25753 0.72734 0.0
H1123 H 0.93077 0.30108 0.74062 0.0
H1124 H 0.98604 0.26281 0.72767 0.0
H1125 H 0.94223 0.21891 0.71453 0.0
C1126 C 0.78361 0.13299 0.75456 0.0
C1127 C 0.78159 0.10486 0.75672 0.0
C1128 C 0.79991 0.15159 0.74069 0.0
C1129 C 0.81415 0.14217 0.72872 0.0
C1130 C 0.81049 0.11322 0.73033 0.0
C1131 C 0.79425 0.09468 0.74421 0.0
C1132 C 0.83598 0.16376 0.71598 0.0
C1133 C 0.86041 0.19045 0.72235 0.0
C1134 C 0.83508 0.15659 0.69819 0.0
C1135 C 0.80891 0.12963 0.69054 0.0
C1136 C 0.81325 0.10917 0.68055 0.0
C1137 C 0.78856 0.08371 0.67344 0.0
C1138 C 0.7594 0.0785 0.67619 0.0
C1139 C 0.75487 0.09878 0.68601 0.0
C1140 C 0.77947 0.12428 0.69313 0.0
C1141 C 0.95377 0.22154 0.66741 0.0
C1142 C 0.96718 0.25302 0.666 0.0
C1143 C 0.92602 0.20464 0.67566 0.0
C1144 C 0.91117 0.21885 0.68276 0.0
C1145 C 0.92351 0.25 0.68042 0.0
C1146 C 0.9513 0.26697 0.67211 0.0
C1147 C 0.88461 0.20139 0.69409 0.0
C1148 C 0.85952 0.17547 0.68748 0.0
C1149 C 0.88487 0.20911 0.71172 0.0
C1150 C 0.9113 0.2352 0.71975 0.0
C1151 C 0.90826 0.25843 0.72737 0.0
C1152 C 0.93318 0.28315 0.73487 0.0
C1153 C 0.96121 0.28477 0.73492 0.0
C1154 C 0.96435 0.26159 0.72755 0.0
C1155 C 0.93949 0.23681 0.72006 0.0
H1156 H 0.98048 0.30394 0.74072 0.0
H1157 H 0.74032 0.05877 0.67068 0.0
H1158 H 0.75491 0.97683 0.83247 0.0
H1159 H 0.73707 0.92822 0.84677 0.0
H1160 H 0.65594 0.92744 0.86235 0.0
H1161 H 0.67332 0.97589 0.84769 0.0
H1162 H 0.69159 0.91976 0.88979 0.0
H1163 H 0.64608 0.87913 0.83466 0.0
H1164 H 0.64526 0.87397 0.80287 0.0
H1165 H 0.7115 0.84627 0.80603 0.0
H1166 H 0.71307 0.85171 0.83784 0.0
H1167 H 0.63952 0.78322 0.93374 0.0
H1168 H 0.63715 0.8177 0.91261 0.0
H1169 H 0.70992 0.81896 0.88381 0.0
H1170 H 0.71163 0.78379 0.90468 0.0
H1171 H 0.672 0.82421 0.8622 0.0
H1172 H 0.72322 0.86976 0.91526 0.0
H1173 H 0.73046 0.87956 0.94665 0.0
H1174 H 0.66031 0.90206 0.94733 0.0
H1175 H 0.65234 0.89202 0.91594 0.0
C1176 C 0.73309 0.96615 0.83875 0.0
C1177 C 0.71555 0.98021 0.83902 0.0
C1178 C 0.72289 0.93833 0.84683 0.0
C1179 C 0.69518 0.92428 0.85554 0.0
C1180 C 0.67734 0.93795 0.85561 0.0
C1181 C 0.68726 0.96553 0.84721 0.0
C1182 C 0.6862 0.89655 0.86568 0.0
C1183 C 0.68651 0.89858 0.8838 0.0
C1184 C 0.6808 0.86944 0.85777 0.0
C1185 C 0.67987 0.86607 0.83864 0.0
C1186 C 0.66068 0.87221 0.82857 0.0
C1187 C 0.66003 0.86917 0.81054 0.0
C1188 C 0.67836 0.85986 0.80243 0.0
C1189 C 0.69733 0.8535 0.81233 0.0
C1190 C 0.69808 0.85652 0.83037 0.0
C1191 C 0.65417 0.79 0.92251 0.0
C1192 C 0.67594 0.78121 0.92082 0.0
C1193 C 0.65304 0.80991 0.91057 0.0
C1194 C 0.67387 0.8215 0.89688 0.0
C1195 C 0.69376 0.81049 0.89433 0.0
C1196 C 0.69478 0.79047 0.90624 0.0
C1197 C 0.67724 0.8473 0.8864 0.0
C1198 C 0.67629 0.84509 0.86824 0.0
C1199 C 0.68271 0.87457 0.89428 0.0
C1200 C 0.68681 0.87962 0.91328 0.0
C1201 C 0.70896 0.87627 0.92214 0.0
C1202 C 0.71322 0.8819 0.93994 0.0
C1203 C 0.69568 0.89117 0.94901 0.0
C1204 C 0.67379 0.89476 0.9403 0.0
C1205 C 0.66937 0.88908 0.92251 0.0
H1206 H 0.69917 0.89582 0.96274 0.0
H1207 H 0.67783 0.85752 0.78847 0.0
H1208 H 0.78598 0.74822 0.99028 0.0
H1209 H 0.81482 0.72925 0.00548 0.0
H1210 H 0.73242 0.65332 0.02398 0.0
H1211 H 0.7032 0.67219 0.00869 0.0
H1212 H 0.77238 0.68502 0.05015 0.0
H1213 H 0.77535 0.64132 0.99617 0.0
H1214 H 0.78297 0.64003 0.9647 0.0
H1215 H 0.87605 0.70754 0.97036 0.0
H1216 H 0.86891 0.70957 0.00184 0.0
H1217 H 0.85648 0.63666 0.09815 0.0
H1218 H 0.82217 0.63292 0.07488 0.0
H1219 H 0.89351 0.71356 0.05148 0.0
H1220 H 0.92783 0.71723 0.07478 0.0
H1221 H 0.85461 0.67073 0.02683 0.0
H1222 H 0.84962 0.72353 0.07755 0.0
H1223 H 0.84397 0.73015 0.10874 0.0
H1224 H 0.75737 0.64963 0.10879 0.0
H1225 H 0.7624 0.64274 0.07752 0.0
C1226 C 0.7739 0.72718 0.99731 0.0
C1227 C 0.74229 0.71182 0.99839 0.0
C1228 C 0.79045 0.71626 0.00591 0.0
C1229 C 0.77577 0.68981 0.0158 0.0
C1230 C 0.74416 0.67373 0.01635 0.0
C1231 C 0.72752 0.6845 0.00758 0.0
C1232 C 0.79369 0.68108 0.027 0.0
C1233 C 0.78978 0.68102 0.045 0.0
C1234 C 0.81708 0.67692 0.02031 0.0
C1235 C 0.82153 0.67572 0.00138 0.0
C1236 C 0.7974 0.65606 0.9907 0.0
C1237 C 0.80164 0.65517 0.97286 0.0
C1238 C 0.82996 0.67372 0.96553 0.0
C1239 C 0.85412 0.69318 0.97605 0.0
C1240 C 0.85 0.69417 0.9939 0.0
C1241 C 0.86503 0.65291 0.08768 0.0
C1242 C 0.89462 0.67724 0.08814 0.0
C1243 C 0.84543 0.65089 0.07448 0.0
C1244 C 0.85524 0.67318 0.0616 0.0
C1245 C 0.88554 0.69612 0.06129 0.0
C1246 C 0.90509 0.69822 0.07455 0.0
C1247 C 0.83324 0.67481 0.04985 0.0
C1248 C 0.83661 0.67385 0.03186 0.0
C1249 C 0.80958 0.67852 0.05649 0.0
C1250 C 0.80653 0.68243 0.07528 0.0
C1251 C 0.82947 0.70714 0.08425 0.0
C1252 C 0.82636 0.71098 0.10192 0.0
C1253 C 0.80045 0.69019 0.11078 0.0
C1254 C 0.77747 0.66566 0.10193 0.0
C1255 C 0.78038 0.66184 0.08422 0.0
H1256 H 0.79813 0.69317 0.12447 0.0
H1257 H 0.8332 0.673 0.95172 0.0
H1258 H 0.02255 0.7011 0.17847 0.0
H1259 H 0.06997 0.7316 0.19409 0.0
H1260 H 0.06196 0.81061 0.18638 0.0
H1261 H 0.01466 0.78044 0.17086 0.0
H1262 H 0.12045 0.82205 0.1814 0.0
H1263 H 0.04082 0.77567 0.22358 0.0
H1264 H 0.99774 0.73359 0.23841 0.0
H1265 H 0.05266 0.69496 0.25145 0.0
H1266 H 0.096 0.73667 0.23648 0.0
H1267 H 0.19645 0.92051 0.25134 0.0
H1268 H 0.1646 0.88783 0.22797 0.0
H1269 H 0.18217 0.81786 0.24501 0.0
H1270 H 0.21363 0.85054 0.26864 0.0
H1271 H 0.12356 0.79783 0.24335 0.0
H1272 H 0.20609 0.85111 0.20503 0.0
H1273 H 0.24855 0.89547 0.19136 0.0
H1274 H 0.18801 0.92365 0.17199 0.0
H1275 H 0.1452 0.8797 0.18576 0.0
C1276 C 0.03104 0.72502 0.17995 0.0
C1277 C 0.01468 0.73828 0.17354 0.0
C1278 C 0.0581 0.74239 0.1889 0.0
C1279 C 0.06935 0.77332 0.19147 0.0
C1280 C 0.05369 0.7868 0.1845 0.0
C1281 C 0.02655 0.76945 0.17573 0.0
C1282 C 0.09647 0.79144 0.20226 0.0
C1283 C 0.12117 0.81689 0.19497 0.0
C1284 C 0.09758 0.78427 0.21984 0.0
C1285 C 0.07148 0.75898 0.22865 0.0
C1286 C 0.04359 0.75799 0.22941 0.0
C1287 C 0.01915 0.73426 0.23788 0.0
C1288 C 0.0224 0.71151 0.24577 0.0
C1289 C 0.05014 0.71253 0.24527 0.0
C1290 C 0.07465 0.7362 0.23679 0.0
C1291 C 0.19411 0.89844 0.24974 0.0
C1292 C 0.20717 0.88781 0.26172 0.0
C1293 C 0.17604 0.87982 0.23637 0.0
C1294 C 0.17103 0.85037 0.23469 0.0
C1295 C 0.18575 0.84049 0.24605 0.0
C1296 C 0.20382 0.85916 0.25944 0.0
C1297 C 0.14749 0.82891 0.22264 0.0
C1298 C 0.12327 0.80279 0.2297 0.0
C1299 C 0.14676 0.83572 0.20493 0.0
C1300 C 0.17243 0.86215 0.19653 0.0
C1301 C 0.20183 0.86687 0.19796 0.0
C1302 C 0.22597 0.89194 0.19017 0.0
C1303 C 0.22099 0.91239 0.18083 0.0
C1304 C 0.19184 0.90779 0.17923 0.0
C1305 C 0.16762 0.88277 0.187 0.0
H1306 H 0.23971 0.93178 0.17481 0.0
H1307 H 0.00347 0.69319 0.25236 0.0
H1308 H 0.96963 0.75521 0.50808 0.0
H1309 H 0.92392 0.74209 0.49186 0.0
H1310 H 0.92379 0.66389 0.47109 0.0
H1311 H 0.96935 0.67657 0.48775 0.0
H1312 H 0.92192 0.74302 0.45839 0.0
H1313 H 0.85222 0.61233 0.45729 0.0
H1314 H 0.84012 0.56952 0.47671 0.0
H1315 H 0.85624 0.6261 0.5211 0.0
H1316 H 0.86802 0.66913 0.50196 0.0
H1317 H 0.8303 0.67805 0.38447 0.0
H1318 H 0.86037 0.67977 0.40954 0.0
H1319 H 0.8007 0.69236 0.44339 0.0
H1320 H 0.77122 0.69214 0.41813 0.0
H1321 H 0.82692 0.64544 0.45221 0.0
H1322 H 0.84849 0.74857 0.44302 0.0
H1323 H 0.85994 0.7927 0.42493 0.0
H1324 H 0.93804 0.79304 0.40455 0.0
H1325 H 0.9267 0.74852 0.42233 0.0
C1326 C 0.95958 0.73489 0.50032 0.0
C1327 C 0.97328 0.71709 0.49903 0.0
C1328 C 0.93342 0.72741 0.49105 0.0
C1329 C 0.92044 0.7021 0.48018 0.0
C1330 C 0.93315 0.68334 0.47955 0.0
C1331 C 0.95925 0.69065 0.48903 0.0
C1332 C 0.89594 0.69758 0.4681 0.0
C1333 C 0.90105 0.72172 0.45728 0.0
C1334 C 0.86861 0.66985 0.46654 0.0
C1335 C 0.86128 0.64403 0.47817 0.0
C1336 C 0.85306 0.61561 0.47119 0.0
C1337 C 0.84628 0.59131 0.48216 0.0
C1338 C 0.8475 0.59511 0.50013 0.0
C1339 C 0.85542 0.62321 0.50718 0.0
C1340 C 0.8622 0.64758 0.49628 0.0
C1341 C 0.82353 0.68108 0.39726 0.0
C1342 C 0.79857 0.68512 0.3994 0.0
C1343 C 0.84052 0.68176 0.41155 0.0
C1344 C 0.83259 0.68603 0.42824 0.0
C1345 C 0.8069 0.68873 0.43057 0.0
C1346 C 0.79012 0.68856 0.41619 0.0
C1347 C 0.85322 0.69085 0.4428 0.0
C1348 C 0.84763 0.66676 0.45375 0.0
C1349 C 0.87996 0.71874 0.44479 0.0
C1350 C 0.88655 0.74506 0.43383 0.0
C1351 C 0.86786 0.75781 0.4345 0.0
C1352 C 0.87438 0.78293 0.42435 0.0
C1353 C 0.89969 0.79564 0.41361 0.0
C1354 C 0.91844 0.78316 0.4129 0.0
C1355 C 0.91197 0.75798 0.42299 0.0
H1356 H 0.90483 0.81526 0.40591 0.0
H1357 H 0.84226 0.57628 0.50859 0.0
H1358 H 0.06133 0.77692 0.59594 0.0
H1359 H 0.0954 0.81078 0.6183 0.0
H1360 H 0.17002 0.80895 0.59378 0.0
H1361 H 0.13592 0.7752 0.5713 0.0
H1362 H 0.16922 0.81313 0.63448 0.0
H1363 H 0.17677 0.87129 0.58081 0.0
H1364 H 0.154 0.88193 0.55558 0.0
H1365 H 0.08889 0.88595 0.5888 0.0
H1366 H 0.1119 0.87604 0.61429 0.0
H1367 H 0.28797 0.96214 0.65965 0.0
H1368 H 0.25499 0.91374 0.64548 0.0
H1369 H 0.1783 0.92483 0.65542 0.0
H1370 H 0.21087 0.97305 0.66926 0.0
H1371 H 0.18179 0.91381 0.62208 0.0
H1372 H 0.18837 0.87165 0.67671 0.0
H1373 H 0.21466 0.86357 0.70108 0.0
H1374 H 0.25411 0.82789 0.66608 0.0
H1375 H 0.22837 0.83615 0.64145 0.0
C1376 C 0.08476 0.78275 0.59579 0.0
C1377 C 0.09615 0.77365 0.58199 0.0
C1378 C 0.10419 0.80212 0.60849 0.0
C1379 C 0.13518 0.81243 0.60758 0.0
C1380 C 0.14613 0.80103 0.59474 0.0
C1381 C 0.12667 0.7817 0.58198 0.0
C1382 C 0.15632 0.83871 0.61805 0.0
C1383 C 0.17225 0.83524 0.63178 0.0
C1384 C 0.16011 0.86739 0.6145 0.0
C1385 C 0.14585 0.87278 0.59933 0.0
C1386 C 0.15756 0.8744 0.58268 0.0
C1387 C 0.14474 0.88046 0.56836 0.0
C1388 C 0.11992 0.88451 0.57056 0.0
C1389 C 0.10805 0.88273 0.58711 0.0
C1390 C 0.12111 0.87712 0.60151 0.0
C1391 C 0.26401 0.95402 0.65903 0.0
C1392 C 0.25212 0.97164 0.6654 0.0
C1393 C 0.24518 0.92631 0.651 0.0
C1394 C 0.21417 0.91569 0.64939 0.0
C1395 C 0.20217 0.93265 0.65643 0.0
C1396 C 0.22088 0.96028 0.66434 0.0
C1397 C 0.19444 0.88847 0.63902 0.0
C1398 C 0.17884 0.8918 0.62504 0.0
C1399 C 0.19127 0.85985 0.64241 0.0
C1400 C 0.20668 0.85481 0.65721 0.0
C1401 C 0.20286 0.86232 0.67419 0.0
C1402 C 0.21761 0.85766 0.68805 0.0
C1403 C 0.23611 0.8453 0.68513 0.0
C1404 C 0.23981 0.8375 0.66833 0.0
C1405 C 0.22512 0.84214 0.65441 0.0
H1406 H 0.24751 0.84171 0.69588 0.0
H1407 H 0.10997 0.88912 0.55946 0.0
H1408 H 0.3289 0.29081 0.8266 0.0
H1409 H 0.34888 0.26158 0.81254 0.0
H1410 H 0.26551 0.17961 0.82278 0.0
H1411 H 0.24548 0.20842 0.83686 0.0
H1412 H 0.31484 0.17199 0.82686 0.0
H1413 H 0.2757 0.21463 0.78474 0.0
H1414 H 0.27358 0.25651 0.77036 0.0
H1415 H 0.36684 0.29641 0.75634 0.0
H1416 H 0.36959 0.25491 0.77085 0.0
H1417 H 0.28122 0.06836 0.75886 0.0
H1418 H 0.28706 0.10307 0.78226 0.0
H1419 H 0.37084 0.17096 0.75975 0.0
H1420 H 0.3645 0.13631 0.73608 0.0
H1421 H 0.33385 0.19193 0.76388 0.0
H1422 H 0.36911 0.14218 0.80045 0.0
H1423 H 0.37028 0.09947 0.81431 0.0
H1424 H 0.28511 0.07227 0.83859 0.0
H1425 H 0.28317 0.11455 0.82466 0.0
C1426 C 0.315 0.26652 0.8261 0.0
C1427 C 0.28542 0.252 0.83264 0.0
C1428 C 0.32646 0.24987 0.81806 0.0
C1429 C 0.30855 0.21845 0.81648 0.0
C1430 C 0.27972 0.20381 0.82388 0.0
C1431 C 0.26823 0.22039 0.83181 0.0
C1432 C 0.31829 0.20092 0.80569 0.0
C1433 C 0.31907 0.17628 0.81309 0.0
C1434 C 0.32464 0.20709 0.78784 0.0
C1435 C 0.32296 0.23193 0.77906 0.0
C1436 C 0.29581 0.23247 0.77871 0.0
C1437 C 0.29448 0.25611 0.77052 0.0
C1438 C 0.32009 0.27917 0.7625 0.0
C1439 C 0.34705 0.27858 0.7626 0.0
C1440 C 0.34851 0.25501 0.7708 0.0
C1441 C 0.30124 0.09043 0.75922 0.0
C1442 C 0.32228 0.09989 0.74571 0.0
C1443 C 0.3047 0.11021 0.77263 0.0
C1444 C 0.32945 0.13968 0.7728 0.0
C1445 C 0.3516 0.14836 0.7599 0.0
C1446 C 0.34808 0.12854 0.74646 0.0
C1447 C 0.32972 0.16235 0.7849 0.0
C1448 C 0.3306 0.18796 0.77773 0.0
C1449 C 0.32492 0.157 0.80294 0.0
C1450 C 0.32594 0.13151 0.81142 0.0
C1451 C 0.35051 0.12698 0.80864 0.0
C1452 C 0.35133 0.10285 0.81653 0.0
C1453 C 0.32776 0.08315 0.82731 0.0
C1454 C 0.30335 0.08756 0.83024 0.0
C1455 C 0.30241 0.11165 0.82237 0.0
H1456 H 0.32844 0.06448 0.83341 0.0
H1457 H 0.31902 0.29745 0.75616 0.0
H1458 H 0.02629 0.24085 0.00247 0.0
H1459 H 0.07433 0.25749 0.98776 0.0
H1460 H 0.07779 0.34036 0.97321 0.0
H1461 H 0.02991 0.32413 0.98823 0.0
H1462 H 0.0831 0.3053 0.94521 0.0
H1463 H 0.12667 0.34698 1.0005 0.0
H1464 H 0.13282 0.34612 0.03215 0.0
H1465 H 0.15625 0.27703 0.02653 0.0
H1466 H 0.14979 0.27714 0.99485 0.0
H1467 H 0.21816 0.35524 0.89987 0.0
H1468 H 0.18496 0.35764 0.92189 0.0
H1469 H 0.17978 0.28046 0.94766 0.0
H1470 H 0.21355 0.27856 0.92584 0.0
H1471 H 0.17782 0.31882 0.97091 0.0
H1472 H 0.12971 0.27205 0.91739 0.0
H1473 H 0.11955 0.26748 0.886 0.0
H1474 H 0.10067 0.34006 0.88824 0.0
H1475 H 0.11121 0.34545 0.91964 0.0
C1476 C 0.0375 0.26283 0.99638 0.0
C1477 C 0.02429 0.28115 0.99645 0.0
C1478 C 0.06498 0.27234 0.98805 0.0
C1479 C 0.07957 0.30015 0.97946 0.0
C1480 C 0.06686 0.31885 0.97985 0.0
C1481 C 0.0396 0.30959 0.98847 0.0
C1482 C 0.10666 0.30832 0.96887 0.0
C1483 C 0.10411 0.30904 0.95081 0.0
C1484 C 0.13354 0.312 0.97625 0.0
C1485 C 0.1375 0.31191 0.9953 0.0
C1486 C 0.13287 0.33141 0.00602 0.0
C1487 C 0.13647 0.3311 0.02397 0.0
C1488 C 0.14486 0.31149 0.03135 0.0
C1489 C 0.14973 0.29219 0.0208 0.0
C1490 C 0.14614 0.2924 0.00284 0.0
C1491 C 0.21077 0.33953 0.91061 0.0
C1492 C 0.21804 0.31655 0.91119 0.0
C1493 C 0.19162 0.34072 0.92308 0.0
C1494 C 0.17936 0.3188 0.93618 0.0
C1495 C 0.18883 0.29749 0.93761 0.0
C1496 C 0.20803 0.29636 0.92516 0.0
C1497 C 0.15435 0.31597 0.9472 0.0
C1498 C 0.1571 0.31584 0.9653 0.0
C1499 C 0.12735 0.31225 0.93985 0.0
C1500 C 0.12178 0.30952 0.92085 0.0
C1501 C 0.12392 0.28741 0.91116 0.0
C1502 C 0.11809 0.28466 0.89335 0.0
C1503 C 0.10973 0.30364 0.8851 0.0
C1504 C 0.10727 0.32546 0.89464 0.0
C1505 C 0.11321 0.3284 0.91244 0.0
H1506 H 0.10492 0.30131 0.87135 0.0
H1507 H 0.14764 0.31129 0.04525 0.0
H1508 H 0.70221 0.03468 0.15914 0.0
H1509 H 0.73155 0.08164 0.14296 0.0
H1510 H 0.81387 0.08794 0.16145 0.0
H1511 H 0.78483 0.04104 0.17757 0.0
H1512 H 0.81719 0.1449 0.15842 0.0
H1513 H 0.78827 0.05445 0.12513 0.0
H1514 H 0.75183 0.00463 0.11328 0.0
H1515 H 0.70567 0.04339 0.08673 0.0
H1516 H 0.7416 0.0934 0.09868 0.0
H1517 H 0.92461 0.20914 0.08993 0.0
H1518 H 0.89007 0.18016 0.11354 0.0
H1519 H 0.81798 0.18466 0.08744 0.0
H1520 H 0.85272 0.21402 0.06396 0.0
H1521 H 0.80487 0.12642 0.095 0.0
H1522 H 0.84058 0.21928 0.12445 0.0
H1523 H 0.87819 0.26876 0.13611 0.0
H1524 H 0.91283 0.22616 0.16951 0.0
H1525 H 0.87574 0.17642 0.15784 0.0
C1526 C 0.72654 0.04646 0.16014 0.0
C1527 C 0.7412 0.03391 0.16944 0.0
C1528 C 0.74326 0.07327 0.15086 0.0
C1529 C 0.77487 0.08805 0.15087 0.0
C1530 C 0.78951 0.07689 0.16128 0.0
C1531 C 0.77285 0.04996 0.1704 0.0
C1532 C 0.79261 0.11262 0.13837 0.0
C1533 C 0.81458 0.14096 0.14455 0.0
C1534 C 0.78881 0.10752 0.12029 0.0
C1535 C 0.76735 0.07756 0.11298 0.0
C1536 C 0.77018 0.05229 0.11689 0.0
C1537 C 0.74966 0.02403 0.11014 0.0
C1538 C 0.72639 0.02082 0.09931 0.0
C1539 C 0.72366 0.0459 0.09516 0.0
C1540 C 0.74409 0.0742 0.10192 0.0
C1541 C 0.9016 0.20464 0.08957 0.0
C1542 C 0.89118 0.21382 0.07534 0.0
C1543 C 0.88191 0.18815 0.10301 0.0
C1544 C 0.85148 0.18036 0.10226 0.0
C1545 C 0.84139 0.19056 0.0883 0.0
C1546 C 0.86119 0.20738 0.07498 0.0
C1547 C 0.82972 0.15879 0.11499 0.0
C1548 C 0.8071 0.13078 0.10884 0.0
C1549 C 0.83311 0.16424 0.13305 0.0
C1550 C 0.8555 0.1941 0.14015 0.0
C1551 C 0.85639 0.22046 0.13416 0.0
C1552 C 0.87759 0.24856 0.1408 0.0
C1553 C 0.89792 0.2506 0.15352 0.0
C1554 C 0.89707 0.22454 0.15965 0.0
C1555 C 0.87593 0.19637 0.15304 0.0
H1556 H 0.91431 0.27238 0.15864 0.0
H1557 H 0.71052 0.99893 0.09409 0.0
H1558 H 0.75578 0.76746 0.30913 0.0
H1559 H 0.73774 0.79995 0.2981 0.0
H1560 H 0.65505 0.74942 0.32682 0.0
H1561 H 0.67274 0.71591 0.33763 0.0
H1562 H 0.64278 0.76024 0.29576 0.0
H1563 H 0.70863 0.82178 0.33964 0.0
H1564 H 0.75494 0.84656 0.35723 0.0
H1565 H 0.80557 0.89606 0.31262 0.0
H1566 H 0.75967 0.87127 0.29469 0.0
H1567 H 0.67509 0.92206 0.2638 0.0
H1568 H 0.67121 0.88812 0.28755 0.0
H1569 H 0.66241 0.82185 0.24992 0.0
H1570 H 0.66565 0.85529 0.22652 0.0
H1571 H 0.71002 0.87109 0.29424 0.0
H1572 H 0.62666 0.75264 0.26449 0.0
H1573 H 0.57823 0.72845 0.24889 0.0
H1574 H 0.55764 0.7939 0.26943 0.0
H1575 H 0.60572 0.81823 0.28538 0.0
C1576 C 0.73382 0.76327 0.31325 0.0
C1577 C 0.71578 0.73912 0.32436 0.0
C1578 C 0.72359 0.78207 0.307 0.0
C1579 C 0.6953 0.77763 0.31192 0.0
C1580 C 0.67706 0.75345 0.32295 0.0
C1581 C 0.68721 0.73433 0.32912 0.0
C1582 C 0.68462 0.79756 0.30471 0.0
C1583 C 0.65728 0.7845 0.29559 0.0
C1584 C 0.70293 0.82933 0.30506 0.0
C1585 C 0.73065 0.84458 0.31581 0.0
C1586 C 0.72966 0.83784 0.33355 0.0
C1587 C 0.75585 0.8519 0.34359 0.0
C1588 C 0.78318 0.87286 0.33605 0.0
C1589 C 0.78437 0.87984 0.31845 0.0
C1590 C 0.75825 0.86584 0.30835 0.0
C1591 C 0.67134 0.89982 0.26077 0.0
C1592 C 0.67047 0.89102 0.24348 0.0
C1593 C 0.66929 0.88054 0.27426 0.0
C1594 C 0.6662 0.85224 0.27056 0.0
C1595 C 0.66403 0.84316 0.2532 0.0
C1596 C 0.66605 0.86232 0.23981 0.0
C1597 C 0.66911 0.83363 0.28438 0.0
C1598 C 0.69505 0.84692 0.29477 0.0
C1599 C 0.64912 0.80218 0.28553 0.0
C1600 C 0.61992 0.78734 0.27611 0.0
C1601 C 0.61172 0.76175 0.26581 0.0
C1602 C 0.58434 0.74804 0.25687 0.0
C1603 C 0.56489 0.75965 0.25815 0.0
C1604 C 0.57276 0.78497 0.26841 0.0
C1605 C 0.6001 0.79876 0.27739 0.0
H1606 H 0.54371 0.74901 0.25121 0.0
H1607 H 0.80344 0.88371 0.34384 0.0
H1608 H 0.39179 0.24644 0.51592 0.0
H1609 H 0.40972 0.22963 0.54089 0.0
H1610 H 0.33609 0.22221 0.57168 0.0
H1611 H 0.31764 0.23775 0.54675 0.0
H1612 H 0.39492 0.24761 0.58958 0.0
H1613 H 0.32155 0.16208 0.55511 0.0
H1614 H 0.30321 0.13426 0.52769 0.0
H1615 H 0.38514 0.13139 0.52239 0.0
H1616 H 0.40407 0.15957 0.54983 0.0
H1617 H 0.3214 0.13512 0.64912 0.0
H1618 H 0.34069 0.17036 0.62523 0.0
H1619 H 0.40386 0.14085 0.61277 0.0
H1620 H 0.38432 0.10482 0.6371 0.0
H1621 H 0.37031 0.14121 0.58437 0.0
H1622 H 0.43196 0.21183 0.62692 0.0
H1623 H 0.44432 0.23726 0.65532 0.0
H1624 H 0.38097 0.26738 0.64629 0.0
H1625 H 0.36788 0.24179 0.61795 0.0
C1626 C 0.38001 0.24193 0.52819 0.0
C1627 C 0.35345 0.24338 0.52955 0.0
C1628 C 0.39017 0.23231 0.54237 0.0
C1629 C 0.37424 0.22482 0.5581 0.0
C1630 C 0.34883 0.22816 0.5597 0.0
C1631 C 0.33828 0.23694 0.54547 0.0
C1632 C 0.38136 0.21005 0.57236 0.0
C1633 C 0.39003 0.22451 0.58847 0.0
C1634 C 0.37553 0.18015 0.57074 0.0
C1635 C 0.36435 0.16323 0.55433 0.0
C1636 C 0.33574 0.15573 0.548 0.0
C1637 C 0.32522 0.13986 0.53248 0.0
C1638 C 0.34304 0.13115 0.52322 0.0
C1639 C 0.3714 0.13823 0.52954 0.0
C1640 C 0.38203 0.15414 0.54509 0.0
C1641 C 0.33964 0.13619 0.6415 0.0
C1642 C 0.35122 0.11698 0.64499 0.0
C1643 C 0.35086 0.15666 0.62788 0.0
C1644 C 0.37404 0.15861 0.61735 0.0
C1645 C 0.38615 0.13988 0.62087 0.0
C1646 C 0.37503 0.11939 0.63475 0.0
C1647 C 0.38298 0.17841 0.60186 0.0
C1648 C 0.37694 0.16482 0.58545 0.0
C1649 C 0.39097 0.20907 0.60328 0.0
C1650 C 0.39898 0.22488 0.62026 0.0
C1651 C 0.42057 0.22378 0.63101 0.0
C1652 C 0.42771 0.23823 0.6471 0.0
C1653 C 0.41346 0.25394 0.6526 0.0
C1654 C 0.39205 0.25526 0.642 0.0
C1655 C 0.38482 0.24085 0.62589 0.0
H1656 H 0.419 0.26509 0.66507 0.0
H1657 H 0.33483 0.11883 0.51119 0.0
H1658 H 0.12093 0.39002 0.69006 0.0
H1659 H 0.15176 0.40527 0.71673 0.0
H1660 H 0.12486 0.31242 0.72669 0.0
H1661 H 0.09481 0.29723 0.70051 0.0
H1662 H 0.11925 0.34326 0.75563 0.0
H1663 H 0.19069 0.35647 0.70896 0.0
H1664 H 0.2192 0.38139 0.68245 0.0
H1665 H 0.25825 0.46733 0.70782 0.0
H1666 H 0.22964 0.4429 0.73443 0.0
H1667 H 0.20231 0.29645 0.7995 0.0
H1668 H 0.18074 0.31217 0.77667 0.0
H1669 H 0.23793 0.4051 0.7912 0.0
H1670 H 0.26023 0.38931 0.81448 0.0
H1671 H 0.23079 0.39366 0.75384 0.0
H1672 H 0.16912 0.37628 0.80329 0.0
H1673 H 0.14047 0.35019 0.82954 0.0
H1674 H 0.08228 0.27225 0.79923 0.0
H1675 H 0.11082 0.29764 0.77283 0.0
C1676 C 0.12161 0.37296 0.69802 0.0
C1677 C 0.10544 0.34243 0.69312 0.0
C1678 C 0.13923 0.3817 0.71319 0.0
C1679 C 0.14047 0.35992 0.7237 0.0
C1680 C 0.12411 0.32957 0.71884 0.0
C1681 C 0.10699 0.32096 0.70376 0.0
C1682 C 0.15873 0.36766 0.73978 0.0
C1683 C 0.14366 0.35465 0.75534 0.0
C1684 C 0.19059 0.38342 0.73952 0.0
C1685 C 0.20774 0.39795 0.72357 0.0
C1686 C 0.20514 0.38071 0.70882 0.0
C1687 C 0.22136 0.39473 0.69379 0.0
C1688 C 0.24044 0.42594 0.69343 0.0
C1689 C 0.24341 0.44317 0.70811 0.0
C1690 C 0.2272 0.42926 0.72316 0.0
C1691 C 0.21059 0.32032 0.79789 0.0
C1692 C 0.23275 0.34162 0.809 0.0
C1693 C 0.19814 0.32926 0.78479 0.0
C1694 C 0.20721 0.35972 0.78248 0.0
C1695 C 0.23044 0.38142 0.7929 0.0
C1696 C 0.24318 0.37241 0.80613 0.0
C1697 C 0.19112 0.36771 0.7694 0.0
C1698 C 0.20649 0.38351 0.75443 0.0
C1699 C 0.1594 0.35449 0.77016 0.0
C1700 C 0.14213 0.33896 0.78604 0.0
C1701 C 0.15032 0.35352 0.80222 0.0
C1702 C 0.13409 0.33885 0.81713 0.0
C1703 C 0.10951 0.30964 0.81603 0.0
C1704 C 0.10125 0.29494 0.80004 0.0
C1705 C 0.11741 0.30949 0.78509 0.0
H1706 H 0.0968 0.29845 0.82755 0.0
H1707 H 0.25299 0.43675 0.68178 0.0
H1708 H 0.72815 0.09638 0.87419 0.0
H1709 H 0.74897 0.1321 0.89829 0.0
H1710 H 0.81631 0.19798 0.864 0.0
H1711 H 0.79646 0.16152 0.84027 0.0
H1712 H 0.84298 0.19233 0.88952 0.0
H1713 H 0.75989 0.2083 0.88553 0.0
H1714 H 0.70681 0.19533 0.88304 0.0
H1715 H 0.68708 0.14945 0.93199 0.0
H1716 H 0.73995 0.16175 0.93467 0.0
H1717 H 0.91014 0.28468 0.96367 0.0
H1718 H 0.87955 0.27116 0.93707 0.0
H1719 H 0.819 0.18355 0.95847 0.0
H1720 H 0.84983 0.19656 0.98467 0.0
H1721 H 0.79036 0.211 0.9377 0.0
H1722 H 0.87185 0.1872 0.93698 0.0
H1723 H 0.92508 0.20037 0.93886 0.0
H1724 H 0.94751 0.26364 0.89721 0.0
H1725 H 0.89443 0.25121 0.89531 0.0
C1726 C 0.74673 0.11887 0.87176 0.0
C1727 C 0.76068 0.12645 0.85548 0.0
C1728 C 0.75862 0.13938 0.8855 0.0
C1729 C 0.78423 0.16795 0.88302 0.0
C1730 C 0.79666 0.17613 0.86632 0.0
C1731 C 0.78522 0.15542 0.85273 0.0
C1732 C 0.80061 0.1873 0.89815 0.0
C1733 C 0.83149 0.19714 0.89976 0.0
C1734 C 0.78578 0.19329 0.91176 0.0
C1735 C 0.75391 0.18583 0.91025 0.0
C1736 C 0.7442 0.19526 0.89571 0.0
C1737 C 0.71415 0.18805 0.89428 0.0
C1738 C 0.69358 0.17154 0.90734 0.0
C1739 C 0.70304 0.16224 0.92188 0.0
C1740 C 0.73308 0.16938 0.92338 0.0
C1741 C 0.88981 0.2629 0.96283 0.0
C1742 C 0.88234 0.24154 0.97607 0.0
C1743 C 0.87243 0.25521 0.94768 0.0
C1744 C 0.8471 0.22634 0.94586 0.0
C1745 C 0.83835 0.20597 0.95969 0.0
C1746 C 0.85604 0.21336 0.97458 0.0
C1747 C 0.83219 0.21547 0.92887 0.0
C1748 C 0.80173 0.20699 0.92705 0.0
C1749 C 0.84738 0.21098 0.91493 0.0
C1750 C 0.8793 0.21865 0.9162 0.0
C1751 C 0.8882 0.2042 0.92838 0.0
C1752 C 0.91832 0.21147 0.92942 0.0
C1753 C 0.93969 0.23292 0.91821 0.0
C1754 C 0.93096 0.24712 0.90593 0.0
C1755 C 0.90087 0.23999 0.90488 0.0
H1756 H 0.96299 0.23846 0.91899 0.0
H1757 H 0.67032 0.16598 0.9062 0.0
H1758 H 0.61511 0.73098 0.02598 0.0
H1759 H 0.60268 0.74913 0.05262 0.0
H1760 H 0.68878 0.83084 0.0502 0.0
H1761 H 0.70119 0.81347 0.024 0.0
H1762 H 0.67618 0.79968 0.0822 0.0
H1763 H 0.62979 0.83382 0.03917 0.0
H1764 H 0.59294 0.82544 0.0162 0.0
H1765 H 0.52033 0.77087 0.0509 0.0
H1766 H 0.55683 0.77862 0.07402 0.0
H1767 H 0.70147 0.92196 0.12954 0.0
H1768 H 0.68992 0.88789 0.10512 0.0
H1769 H 0.60027 0.83088 0.12508 0.0
H1770 H 0.61161 0.86588 0.1496 0.0
H1771 H 0.60242 0.83491 0.08837 0.0
H1772 H 0.65214 0.81194 0.13347 0.0
H1773 H 0.69111 0.82301 0.15557 0.0
H1774 H 0.75945 0.85787 0.11623 0.0
H1775 H 0.72106 0.84759 0.09394 0.0
C1776 C 0.63122 0.75289 0.0311 0.0
C1777 C 0.65928 0.77056 0.02293 0.0
C1778 C 0.62407 0.76321 0.04627 0.0
C1779 C 0.64496 0.79121 0.05341 0.0
C1780 C 0.67246 0.80906 0.04498 0.0
C1781 C 0.67949 0.79898 0.02994 0.0
C1782 C 0.6397 0.80216 0.07009 0.0
C1783 C 0.6599 0.80718 0.08363 0.0
C1784 C 0.61786 0.81107 0.07211 0.0
C1785 C 0.59601 0.80641 0.05822 0.0
C1786 C 0.60598 0.81976 0.04183 0.0
C1787 C 0.58515 0.81519 0.02881 0.0
C1788 C 0.55431 0.79753 0.03206 0.0
C1789 C 0.54423 0.78447 0.04838 0.0
C1790 C 0.56497 0.78895 0.06144 0.0
C1791 C 0.6791 0.90243 0.12861 0.0
C1792 C 0.65754 0.8963 0.14155 0.0
C1793 C 0.67256 0.88292 0.11468 0.0
C1794 C 0.64454 0.8564 0.11355 0.0
C1795 C 0.62214 0.85109 0.12583 0.0
C1796 C 0.62859 0.87106 0.13976 0.0
C1797 C 0.64008 0.83388 0.10007 0.0
C1798 C 0.61805 0.82655 0.08723 0.0
C1799 C 0.66049 0.82296 0.09857 0.0
C1800 C 0.68364 0.82898 0.11201 0.0
C1801 C 0.67549 0.82212 0.12954 0.0
C1802 C 0.6975 0.82827 0.1421 0.0
C1803 C 0.72772 0.8411 0.13729 0.0
C1804 C 0.73602 0.84788 0.11992 0.0
C1805 C 0.71414 0.84186 0.10732 0.0
H1806 H 0.74476 0.84577 0.14696 0.0
H1807 H 0.53822 0.79404 0.02197 0.0
H1808 H 0.89008 0.62099 0.20152 0.0
H1809 H 0.85268 0.6036 0.22494 0.0
H1810 H 0.7992 0.63116 0.19518 0.0
H1811 H 0.83715 0.64976 0.17233 0.0
H1812 H 0.80958 0.65596 0.22479 0.0
H1813 H 0.77495 0.55487 0.2062 0.0
H1814 H 0.7795 0.51096 0.19775 0.0
H1815 H 0.81472 0.50981 0.24807 0.0
H1816 H 0.81077 0.554 0.25676 0.0
H1817 H 0.70557 0.625 0.2896 0.0
H1818 H 0.71902 0.60864 0.26282 0.0
H1819 H 0.79127 0.60569 0.28969 0.0
H1820 H 0.77821 0.62252 0.31627 0.0
H1821 H 0.76497 0.56292 0.26039 0.0
H1822 H 0.80893 0.66889 0.27602 0.0
H1823 H 0.80542 0.71317 0.28506 0.0
H1824 H 0.75335 0.70478 0.23963 0.0
H1825 H 0.75607 0.66002 0.23051 0.0
C1826 C 0.8699 0.62251 0.19987 0.0
C1827 C 0.8665 0.6369 0.18529 0.0
C1828 C 0.84846 0.61249 0.2132 0.0
C1829 C 0.82303 0.61608 0.21187 0.0
C1830 C 0.81867 0.62834 0.19661 0.0
C1831 C 0.84033 0.63892 0.18355 0.0
C1832 C 0.8033 0.6112 0.2271 0.0
C1833 C 0.79923 0.63521 0.23223 0.0
C1834 C 0.79046 0.58457 0.23724 0.0
C1835 C 0.79276 0.55791 0.23209 0.0
C1836 C 0.78387 0.5454 0.21543 0.0
C1837 C 0.78631 0.52043 0.2106 0.0
C1838 C 0.79745 0.50764 0.22235 0.0
C1839 C 0.8061 0.51975 0.23898 0.0
C1840 C 0.80373 0.54474 0.24387 0.0
C1841 C 0.72323 0.61925 0.28995 0.0
C1842 C 0.74086 0.62484 0.30487 0.0
C1843 C 0.73096 0.61001 0.27468 0.0
C1844 C 0.75629 0.60622 0.27429 0.0
C1845 C 0.77155 0.60828 0.28976 0.0
C1846 C 0.76411 0.61792 0.30492 0.0
C1847 C 0.77109 0.60739 0.25762 0.0
C1848 C 0.77467 0.58311 0.25249 0.0
C1849 C 0.78364 0.63377 0.24738 0.0
C1850 C 0.78233 0.6609 0.25272 0.0
C1851 C 0.79649 0.67632 0.26805 0.0
C1852 C 0.79468 0.70152 0.27318 0.0
C1853 C 0.77907 0.71171 0.26296 0.0
C1854 C 0.76534 0.69679 0.24756 0.0
C1855 C 0.76699 0.6715 0.24241 0.0
H1856 H 0.77769 0.73123 0.26694 0.0
H1857 H 0.79932 0.48831 0.21859 0.0
H1858 H 0.23141 0.91353 0.38063 0.0
H1859 H 0.21829 0.88104 0.40605 0.0
H1860 H 0.23786 0.8202 0.37784 0.0
H1861 H 0.25206 0.85356 0.35226 0.0
H1862 H 0.1773 0.79445 0.39395 0.0
H1863 H 0.28024 0.84907 0.40965 0.0
H1864 H 0.33023 0.8941 0.41355 0.0
H1865 H 0.2935 0.9291 0.45085 0.0
H1866 H 0.24318 0.88451 0.447 0.0
H1867 H 0.11172 0.72255 0.47559 0.0
H1868 H 0.14807 0.73903 0.45154 0.0
H1869 H 0.16907 0.83077 0.45964 0.0
H1870 H 0.13349 0.81479 0.48343 0.0
H1871 H 0.21933 0.82864 0.45287 0.0
H1872 H 0.11708 0.78512 0.42932 0.0
H1873 H 0.06524 0.74349 0.42447 0.0
H1874 H 0.09967 0.6905 0.40146 0.0
H1875 H 0.15174 0.73177 0.40637 0.0
C1876 C 0.23359 0.89359 0.37997 0.0
C1877 C 0.24278 0.88599 0.36459 0.0
C1878 C 0.22616 0.87509 0.39449 0.0
C1879 C 0.22724 0.84832 0.39383 0.0
C1880 C 0.23712 0.84091 0.3786 0.0
C1881 C 0.24532 0.85995 0.36409 0.0
C1882 C 0.21512 0.82736 0.40872 0.0
C1883 C 0.18696 0.80123 0.4068 0.0
C1884 C 0.22758 0.83655 0.42546 0.0
C1885 C 0.25787 0.86337 0.42801 0.0
C1886 C 0.28277 0.86643 0.41862 0.0
C1887 C 0.31118 0.89188 0.42083 0.0
C1888 C 0.31504 0.91445 0.43244 0.0
C1889 C 0.29049 0.91158 0.44188 0.0
C1890 C 0.26202 0.88617 0.43972 0.0
C1891 C 0.12438 0.74625 0.47233 0.0
C1892 C 0.11944 0.76729 0.48131 0.0
C1893 C 0.1451 0.75562 0.45859 0.0
C1894 C 0.16121 0.78614 0.45374 0.0
C1895 C 0.15707 0.80715 0.46317 0.0
C1896 C 0.13644 0.79788 0.47673 0.0
C1897 C 0.18083 0.79668 0.43816 0.0
C1898 C 0.21031 0.82094 0.43998 0.0
C1899 C 0.16942 0.78604 0.42134 0.0
C1900 C 0.13821 0.76129 0.41843 0.0
C1901 C 0.11356 0.76449 0.42335 0.0
C1902 C 0.08416 0.74099 0.42057 0.0
C1903 C 0.07916 0.71432 0.41272 0.0
C1904 C 0.10357 0.71114 0.40759 0.0
C1905 C 0.13302 0.73456 0.41037 0.0
H1906 H 0.05639 0.69616 0.41057 0.0
H1907 H 0.33705 0.93415 0.43413 0.0
loop_
_geom_bond_atom_site_label_1
_geom_bond_atom_site_label_2
_geom_bond_distance
_geom_bond_site_symmetry_2
_ccdc_geom_bond_type
Co0 O3 1.970 . S
Co0 N17 1.989 . S
Co0 O25 1.967 . S
Co0 O32 1.920 . S
Co1 O4 1.966 . S
Co1 N10 2.022 . S
Co1 N18 1.993 . S
Co1 O26 1.941 . S
C2 O3 1.258 . S
C2 O4 1.263 . S
O3 Co0 1.970 . S
O3 C2 1.258 . S
O4 Co1 1.966 . S
O4 C2 1.263 . S
C5 O6 1.235 . S
C5 O32 1.289 . S
O6 C5 1.235 . S
C7 C9 1.400 . S
C7 N10 1.351 . S
C7 C12 1.501 . S
C8 C9 1.387 . S
C8 N11 1.341 . S
C9 C7 1.400 . S
C9 C8 1.387 . S
N10 Co1 2.022 . S
N10 C7 1.351 . S
N10 N11 1.365 . S
N11 C8 1.341 . S
N11 N10 1.365 . S
N11 H31 0.862 . S
C12 C7 1.501 . S
C12 H13 0.961 . S
C12 H14 0.961 . S
C12 H15 0.960 . S
H13 C12 0.961 . S
H14 C12 0.961 . S
H15 C12 0.960 . S
C16 N17 1.342 . S
C16 C20 1.401 . S
C16 C21 1.499 . S
N17 Co0 1.989 . S
N17 C16 1.342 . S
N17 N18 1.388 . S
N18 Co1 1.993 . S
N18 N17 1.388 . S
N18 C19 1.346 . S
C19 N18 1.346 . S
C19 C20 1.396 . S
C19 C29 1.510 . S
C20 C16 1.401 . S
C20 C19 1.396 . S
C21 C16 1.499 . S
C21 H22 0.959 . S
C21 H23 0.960 . S
C21 H24 0.961 . S
H22 C21 0.959 . S
H23 C21 0.960 . S
H24 C21 0.961 . S
O25 Co0 1.967 . S
O25 C33 1.258 . S
O26 Co1 1.941 . S
O26 C33 1.266 . S
H27 C29 0.959 . S
H28 C29 0.961 . S
C29 C19 1.510 . S
C29 H27 0.959 . S
C29 H28 0.961 . S
C29 H30 0.960 . S
H30 C29 0.960 . S
H31 N11 0.862 . S
O32 Co0 1.920 . S
O32 C5 1.289 . S
C33 O25 1.258 . S
C33 O26 1.266 . S
Co34 O37 1.970 . S
Co34 N51 1.989 . S
Co34 O59 1.967 . S
Co34 O66 1.920 . S
Co35 O38 1.966 . S
Co35 N44 2.022 . S
Co35 N52 1.993 . S
Co35 O60 1.941 . S
C36 O37 1.258 . S
C36 O38 1.263 . S
O37 Co34 1.970 . S
O37 C36 1.258 . S
O38 Co35 1.966 . S
O38 C36 1.263 . S
C39 O40 1.235 . S
C39 O66 1.289 . S
O40 C39 1.235 . S
C41 C43 1.400 . S
C41 N44 1.351 . S
C41 C46 1.501 . S
C42 C43 1.387 . S
C42 N45 1.341 . S
C43 C41 1.400 . S
C43 C42 1.387 . S
N44 Co35 2.022 . S
N44 C41 1.351 . S
N44 N45 1.365 . S
N45 C42 1.341 . S
N45 N44 1.365 . S
N45 H65 0.862 . S
C46 C41 1.501 . S
C46 H47 0.961 . S
C46 H48 0.961 . S
C46 H49 0.960 . S
H47 C46 0.961 . S
H48 C46 0.961 . S
H49 C46 0.960 . S
C50 N51 1.342 . S
C50 C54 1.401 . S
C50 C55 1.499 . S
N51 Co34 1.989 . S
N51 C50 1.342 . S
N51 N52 1.388 . S
N52 Co35 1.993 . S
N52 N51 1.388 . S
N52 C53 1.346 . S
C53 N52 1.346 . S
C53 C54 1.396 . S
C53 C63 1.510 . S
C54 C50 1.401 . S
C54 C53 1.396 . S
C55 C50 1.499 . S
C55 H56 0.959 . S
C55 H57 0.960 . S
C55 H58 0.961 . S
H56 C55 0.959 . S
H57 C55 0.960 . S
H58 C55 0.961 . S
O59 Co34 1.967 . S
O59 C67 1.258 . S
O60 Co35 1.941 . S
O60 C67 1.266 . S
H61 C63 0.959 . S
H62 C63 0.961 . S
C63 C53 1.510 . S
C63 H61 0.959 . S
C63 H62 0.961 . S
C63 H64 0.960 . S
H64 C63 0.960 . S
H65 N45 0.862 . S
O66 Co34 1.920 . S
O66 C39 1.289 . S
C67 O59 1.258 . S
C67 O60 1.266 . S
Co68 O71 1.970 . S
Co68 N85 1.989 . S
Co68 O93 1.967 . S
Co68 O100 1.920 . S
Co69 O72 1.966 . S
Co69 N78 2.022 . S
Co69 N86 1.993 . S
Co69 O94 1.941 . S
C70 O71 1.258 . S
C70 O72 1.263 . S
O71 Co68 1.970 . S
O71 C70 1.258 . S
O72 Co69 1.966 . S
O72 C70 1.263 . S
C73 O74 1.235 . S
C73 O100 1.289 . S
O74 C73 1.235 . S
C75 C77 1.400 . S
C75 N78 1.351 . S
C75 C80 1.501 . S
C76 C77 1.387 . S
C76 N79 1.341 . S
C77 C75 1.400 . S
C77 C76 1.387 . S
N78 Co69 2.022 . S
N78 C75 1.351 . S
N78 N79 1.365 . S
N79 C76 1.341 . S
N79 N78 1.365 . S
N79 H99 0.862 . S
C80 C75 1.501 . S
C80 H81 0.961 . S
C80 H82 0.961 . S
C80 H83 0.960 . S
H81 C80 0.961 . S
H82 C80 0.961 . S
H83 C80 0.960 . S
C84 N85 1.342 . S
C84 C88 1.401 . S
C84 C89 1.499 . S
N85 Co68 1.989 . S
N85 C84 1.342 . S
N85 N86 1.388 . S
N86 Co69 1.993 . S
N86 N85 1.388 . S
N86 C87 1.346 . S
C87 N86 1.346 . S
C87 C88 1.396 . S
C87 C97 1.510 . S
C88 C84 1.401 . S
C88 C87 1.396 . S
C89 C84 1.499 . S
C89 H90 0.959 . S
C89 H91 0.960 . S
C89 H92 0.961 . S
H90 C89 0.959 . S
H91 C89 0.960 . S
H92 C89 0.961 . S
O93 Co68 1.967 . S
O93 C101 1.258 . S
O94 Co69 1.941 . S
O94 C101 1.266 . S
H95 C97 0.959 . S
H96 C97 0.961 . S
C97 C87 1.510 . S
C97 H95 0.959 . S
C97 H96 0.961 . S
C97 H98 0.960 . S
H98 C97 0.960 . S
H99 N79 0.862 . S
O100 Co68 1.920 . S
O100 C73 1.289 . S
C101 O93 1.258 . S
C101 O94 1.266 . S
Co102 O105 1.970 . S
Co102 N119 1.989 . S
Co102 O127 1.967 . S
Co102 O134 1.920 . S
Co103 O106 1.966 . S
Co103 N112 2.022 . S
Co103 N120 1.993 . S
Co103 O128 1.941 . S
C104 O105 1.258 . S
C104 O106 1.263 . S
O105 Co102 1.970 . S
O105 C104 1.258 . S
O106 Co103 1.966 . S
O106 C104 1.263 . S
C107 O108 1.235 . S
C107 O134 1.289 . S
O108 C107 1.235 . S
C109 C111 1.400 . S
C109 N112 1.351 . S
C109 C114 1.501 . S
C110 C111 1.387 . S
C110 N113 1.341 . S
C111 C109 1.400 . S
C111 C110 1.387 . S
N112 Co103 2.022 . S
N112 C109 1.351 . S
N112 N113 1.365 . S
N113 C110 1.341 . S
N113 N112 1.365 . S
N113 H133 0.862 . S
C114 C109 1.501 . S
C114 H115 0.961 . S
C114 H116 0.961 . S
C114 H117 0.960 . S
H115 C114 0.961 . S
H116 C114 0.961 . S
H117 C114 0.960 . S
C118 N119 1.342 . S
C118 C122 1.401 . S
C118 C123 1.499 . S
N119 Co102 1.989 . S
N119 C118 1.342 . S
N119 N120 1.388 . S
N120 Co103 1.993 . S
N120 N119 1.388 . S
N120 C121 1.346 . S
C121 N120 1.346 . S
C121 C122 1.396 . S
C121 C131 1.510 . S
C122 C118 1.401 . S
C122 C121 1.396 . S
C123 C118 1.499 . S
C123 H124 0.959 . S
C123 H125 0.960 . S
C123 H126 0.961 . S
H124 C123 0.959 . S
H125 C123 0.960 . S
H126 C123 0.961 . S
O127 Co102 1.967 . S
O127 C135 1.258 . S
O128 Co103 1.941 . S
O128 C135 1.266 . S
H129 C131 0.959 . S
H130 C131 0.961 . S
C131 C121 1.510 . S
C131 H129 0.959 . S
C131 H130 0.961 . S
C131 H132 0.960 . S
H132 C131 0.960 . S
H133 N113 0.862 . S
O134 Co102 1.920 . S
O134 C107 1.289 . S
C135 O127 1.258 . S
C135 O128 1.266 . S
Co136 O139 1.970 . S
Co136 N153 1.989 . S
Co136 O161 1.967 . S
Co136 O168 1.920 . S
Co137 O140 1.966 . S
Co137 N146 2.022 . S
Co137 N154 1.993 . S
Co137 O162 1.941 . S
C138 O139 1.258 . S
C138 O140 1.263 . S
O139 Co136 1.970 . S
O139 C138 1.258 . S
O140 Co137 1.966 . S
O140 C138 1.263 . S
C141 O142 1.235 . S
C141 O168 1.289 . S
O142 C141 1.235 . S
C143 C145 1.400 . S
C143 N146 1.351 . S
C143 C148 1.501 . S
C144 C145 1.387 . S
C144 N147 1.341 . S
C145 C143 1.400 . S
C145 C144 1.387 . S
N146 Co137 2.022 . S
N146 C143 1.351 . S
N146 N147 1.365 . S
N147 C144 1.341 . S
N147 N146 1.365 . S
N147 H167 0.862 . S
C148 C143 1.501 . S
C148 H149 0.961 . S
C148 H150 0.961 . S
C148 H151 0.960 . S
H149 C148 0.961 . S
H150 C148 0.961 . S
H151 C148 0.960 . S
C152 N153 1.342 . S
C152 C156 1.401 . S
C152 C157 1.499 . S
N153 Co136 1.989 . S
N153 C152 1.342 . S
N153 N154 1.388 . S
N154 Co137 1.993 . S
N154 N153 1.388 . S
N154 C155 1.346 . S
C155 N154 1.346 . S
C155 C156 1.396 . S
C155 C165 1.510 . S
C156 C152 1.401 . S
C156 C155 1.396 . S
C157 C152 1.499 . S
C157 H158 0.959 . S
C157 H159 0.960 . S
C157 H160 0.961 . S
H158 C157 0.959 . S
H159 C157 0.960 . S
H160 C157 0.961 . S
O161 Co136 1.967 . S
O161 C169 1.258 . S
O162 Co137 1.941 . S
O162 C169 1.266 . S
H163 C165 0.959 . S
H164 C165 0.961 . S
C165 C155 1.510 . S
C165 H163 0.959 . S
C165 H164 0.961 . S
C165 H166 0.960 . S
H166 C165 0.960 . S
H167 N147 0.862 . S
O168 Co136 1.920 . S
O168 C141 1.289 . S
C169 O161 1.258 . S
C169 O162 1.266 . S
Co170 O173 1.970 . S
Co170 N187 1.989 . S
Co170 O195 1.967 . S
Co170 O202 1.920 . S
Co171 O174 1.966 . S
Co171 N180 2.022 . S
Co171 N188 1.993 . S
Co171 O196 1.941 . S
C172 O173 1.258 . S
C172 O174 1.263 . S
O173 Co170 1.970 . S
O173 C172 1.258 . S
O174 Co171 1.966 . S
O174 C172 1.263 . S
C175 O176 1.235 . S
C175 O202 1.289 . S
O176 C175 1.235 . S
C177 C179 1.400 . S
C177 N180 1.351 . S
C177 C182 1.501 . S
C178 C179 1.387 . S
C178 N181 1.341 . S
C179 C177 1.400 . S
C179 C178 1.387 . S
N180 Co171 2.022 . S
N180 C177 1.351 . S
N180 N181 1.365 . S
N181 C178 1.341 . S
N181 N180 1.365 . S
N181 H201 0.862 . S
C182 C177 1.501 . S
C182 H183 0.961 . S
C182 H184 0.961 . S
C182 H185 0.960 . S
H183 C182 0.961 . S
H184 C182 0.961 . S
H185 C182 0.960 . S
C186 N187 1.342 . S
C186 C190 1.401 . S
C186 C191 1.499 . S
N187 Co170 1.989 . S
N187 C186 1.342 . S
N187 N188 1.388 . S
N188 Co171 1.993 . S
N188 N187 1.388 . S
N188 C189 1.346 . S
C189 N188 1.346 . S
C189 C190 1.396 . S
C189 C199 1.510 . S
C190 C186 1.401 . S
C190 C189 1.396 . S
C191 C186 1.499 . S
C191 H192 0.959 . S
C191 H193 0.960 . S
C191 H194 0.961 . S
H192 C191 0.959 . S
H193 C191 0.960 . S
H194 C191 0.961 . S
O195 Co170 1.967 . S
O195 C203 1.258 . S
O196 Co171 1.941 . S
O196 C203 1.266 . S
H197 C199 0.959 . S
H198 C199 0.961 . S
C199 C189 1.510 . S
C199 H197 0.959 . S
C199 H198 0.961 . S
C199 H200 0.960 . S
H200 C199 0.960 . S
H201 N181 0.862 . S
O202 Co170 1.920 . S
O202 C175 1.289 . S
C203 O195 1.258 . S
C203 O196 1.266 . S
Co204 O207 1.970 . S
Co204 N221 1.989 . S
Co204 O229 1.967 . S
Co204 O236 1.920 . S
Co205 O208 1.966 . S
Co205 N214 2.022 . S
Co205 N222 1.993 . S
Co205 O230 1.941 . S
C206 O207 1.258 . S
C206 O208 1.263 . S
O207 Co204 1.970 . S
O207 C206 1.258 . S
O208 Co205 1.966 . S
O208 C206 1.263 . S
C209 O210 1.235 . S
C209 O236 1.289 . S
O210 C209 1.235 . S
C211 C213 1.400 . S
C211 N214 1.351 . S
C211 C216 1.501 . S
C212 C213 1.387 . S
C212 N215 1.341 . S
C213 C211 1.400 . S
C213 C212 1.387 . S
N214 Co205 2.022 . S
N214 C211 1.351 . S
N214 N215 1.365 . S
N215 C212 1.341 . S
N215 N214 1.365 . S
N215 H235 0.862 . S
C216 C211 1.501 . S
C216 H217 0.961 . S
C216 H218 0.961 . S
C216 H219 0.960 . S
H217 C216 0.961 . S
H218 C216 0.961 . S
H219 C216 0.960 . S
C220 N221 1.342 . S
C220 C224 1.401 . S
C220 C225 1.499 . S
N221 Co204 1.989 . S
N221 C220 1.342 . S
N221 N222 1.388 . S
N222 Co205 1.993 . S
N222 N221 1.388 . S
N222 C223 1.346 . S
C223 N222 1.346 . S
C223 C224 1.396 . S
C223 C233 1.510 . S
C224 C220 1.401 . S
C224 C223 1.396 . S
C225 C220 1.499 . S
C225 H226 0.959 . S
C225 H227 0.960 . S
C225 H228 0.961 . S
H226 C225 0.959 . S
H227 C225 0.960 . S
H228 C225 0.961 . S
O229 Co204 1.967 . S
O229 C237 1.258 . S
O230 Co205 1.941 . S
O230 C237 1.266 . S
H231 C233 0.959 . S
H232 C233 0.961 . S
C233 C223 1.510 . S
C233 H231 0.959 . S
C233 H232 0.961 . S
C233 H234 0.960 . S
H234 C233 0.960 . S
H235 N215 0.862 . S
O236 Co204 1.920 . S
O236 C209 1.289 . S
C237 O229 1.258 . S
C237 O230 1.266 . S
Co238 O241 1.970 . S
Co238 N255 1.989 . S
Co238 O263 1.967 . S
Co238 O270 1.920 . S
Co239 O242 1.966 . S
Co239 N248 2.022 . S
Co239 N256 1.993 . S
Co239 O264 1.941 . S
C240 O241 1.258 . S
C240 O242 1.263 . S
O241 Co238 1.970 . S
O241 C240 1.258 . S
O242 Co239 1.966 . S
O242 C240 1.263 . S
C243 O244 1.235 . S
C243 O270 1.289 . S
O244 C243 1.235 . S
C245 C247 1.400 . S
C245 N248 1.351 . S
C245 C250 1.501 . S
C246 C247 1.387 . S
C246 N249 1.341 . S
C247 C245 1.400 . S
C247 C246 1.387 . S
N248 Co239 2.022 . S
N248 C245 1.351 . S
N248 N249 1.365 . S
N249 C246 1.341 . S
N249 N248 1.365 . S
N249 H269 0.862 . S
C250 C245 1.501 . S
C250 H251 0.961 . S
C250 H252 0.961 . S
C250 H253 0.960 . S
H251 C250 0.961 . S
H252 C250 0.961 . S
H253 C250 0.960 . S
C254 N255 1.342 . S
C254 C258 1.401 . S
C254 C259 1.499 . S
N255 Co238 1.989 . S
N255 C254 1.342 . S
N255 N256 1.388 . S
N256 Co239 1.993 . S
N256 N255 1.388 . S
N256 C257 1.346 . S
C257 N256 1.346 . S
C257 C258 1.396 . S
C257 C267 1.510 . S
C258 C254 1.401 . S
C258 C257 1.396 . S
C259 C254 1.499 . S
C259 H260 0.959 . S
C259 H261 0.960 . S
C259 H262 0.961 . S
H260 C259 0.959 . S
H261 C259 0.960 . S
H262 C259 0.961 . S
O263 Co238 1.967 . S
O263 C271 1.258 . S
O264 Co239 1.941 . S
O264 C271 1.266 . S
H265 C267 0.959 . S
H266 C267 0.961 . S
C267 C257 1.510 . S
C267 H265 0.959 . S
C267 H266 0.961 . S
C267 H268 0.960 . S
H268 C267 0.960 . S
H269 N249 0.862 . S
O270 Co238 1.920 . S
O270 C243 1.289 . S
C271 O263 1.258 . S
C271 O264 1.266 . S
Co272 O275 1.970 . S
Co272 N289 1.989 . S
Co272 O297 1.967 . S
Co272 O304 1.920 . S
Co273 O276 1.966 . S
Co273 N282 2.022 . S
Co273 N290 1.993 . S
Co273 O298 1.941 . S
C274 O275 1.258 . S
C274 O276 1.263 . S
O275 Co272 1.970 . S
O275 C274 1.258 . S
O276 Co273 1.966 . S
O276 C274 1.263 . S
C277 O278 1.235 . S
C277 O304 1.289 . S
O278 C277 1.235 . S
C279 C281 1.400 . S
C279 N282 1.351 . S
C279 C284 1.501 . S
C280 C281 1.387 . S
C280 N283 1.341 . S
C281 C279 1.400 . S
C281 C280 1.387 . S
N282 Co273 2.022 . S
N282 C279 1.351 . S
N282 N283 1.365 . S
N283 C280 1.341 . S
N283 N282 1.365 . S
N283 H303 0.862 . S
C284 C279 1.501 . S
C284 H285 0.961 . S
C284 H286 0.961 . S
C284 H287 0.960 . S
H285 C284 0.961 . S
H286 C284 0.961 . S
H287 C284 0.960 . S
C288 N289 1.342 . S
C288 C292 1.401 . S
C288 C293 1.499 . S
N289 Co272 1.989 . S
N289 C288 1.342 . S
N289 N290 1.388 . S
N290 Co273 1.993 . S
N290 N289 1.388 . S
N290 C291 1.346 . S
C291 N290 1.346 . S
C291 C292 1.396 . S
C291 C301 1.510 . S
C292 C288 1.401 . S
C292 C291 1.396 . S
C293 C288 1.499 . S
C293 H294 0.959 . S
C293 H295 0.960 . S
C293 H296 0.961 . S
H294 C293 0.959 . S
H295 C293 0.960 . S
H296 C293 0.961 . S
O297 Co272 1.967 . S
O297 C305 1.258 . S
O298 Co273 1.941 . S
O298 C305 1.266 . S
H299 C301 0.959 . S
H300 C301 0.961 . S
C301 C291 1.510 . S
C301 H299 0.959 . S
C301 H300 0.961 . S
C301 H302 0.960 . S
H302 C301 0.960 . S
H303 N283 0.862 . S
O304 Co272 1.920 . S
O304 C277 1.289 . S
C305 O297 1.258 . S
C305 O298 1.266 . S
Co306 O309 1.970 . S
Co306 N323 1.989 . S
Co306 O331 1.967 . S
Co306 O338 1.920 . S
Co307 O310 1.966 . S
Co307 N316 2.022 . S
Co307 N324 1.993 . S
Co307 O332 1.941 . S
C308 O309 1.258 . S
C308 O310 1.263 . S
O309 Co306 1.970 . S
O309 C308 1.258 . S
O310 Co307 1.966 . S
O310 C308 1.263 . S
C311 O312 1.235 . S
C311 O338 1.289 . S
O312 C311 1.235 . S
C313 C315 1.400 . S
C313 N316 1.351 . S
C313 C318 1.501 . S
C314 C315 1.387 . S
C314 N317 1.341 . S
C315 C313 1.400 . S
C315 C314 1.387 . S
N316 Co307 2.022 . S
N316 C313 1.351 . S
N316 N317 1.365 . S
N317 C314 1.341 . S
N317 N316 1.365 . S
N317 H337 0.862 . S
C318 C313 1.501 . S
C318 H319 0.961 . S
C318 H320 0.961 . S
C318 H321 0.960 . S
H319 C318 0.961 . S
H320 C318 0.961 . S
H321 C318 0.960 . S
C322 N323 1.342 . S
C322 C326 1.401 . S
C322 C327 1.499 . S
N323 Co306 1.989 . S
N323 C322 1.342 . S
N323 N324 1.388 . S
N324 Co307 1.993 . S
N324 N323 1.388 . S
N324 C325 1.346 . S
C325 N324 1.346 . S
C325 C326 1.396 . S
C325 C335 1.510 . S
C326 C322 1.401 . S
C326 C325 1.396 . S
C327 C322 1.499 . S
C327 H328 0.959 . S
C327 H329 0.960 . S
C327 H330 0.961 . S
H328 C327 0.959 . S
H329 C327 0.960 . S
H330 C327 0.961 . S
O331 Co306 1.967 . S
O331 C339 1.258 . S
O332 Co307 1.941 . S
O332 C339 1.266 . S
H333 C335 0.959 . S
H334 C335 0.961 . S
C335 C325 1.510 . S
C335 H333 0.959 . S
C335 H334 0.961 . S
C335 H336 0.960 . S
H336 C335 0.960 . S
H337 N317 0.862 . S
O338 Co306 1.920 . S
O338 C311 1.289 . S
C339 O331 1.258 . S
C339 O332 1.266 . S
Co340 O343 1.970 . S
Co340 N357 1.989 . S
Co340 O365 1.967 . S
Co340 O372 1.920 . S
Co341 O344 1.966 . S
Co341 N350 2.022 . S
Co341 N358 1.993 . S
Co341 O366 1.941 . S
C342 O343 1.258 . S
C342 O344 1.263 . S
O343 Co340 1.970 . S
O343 C342 1.258 . S
O344 Co341 1.966 . S
O344 C342 1.263 . S
C345 O346 1.235 . S
C345 O372 1.289 . S
O346 C345 1.235 . S
C347 C349 1.400 . S
C347 N350 1.351 . S
C347 C352 1.501 . S
C348 C349 1.387 . S
C348 N351 1.341 . S
C349 C347 1.400 . S
C349 C348 1.387 . S
N350 Co341 2.022 . S
N350 C347 1.351 . S
N350 N351 1.365 . S
N351 C348 1.341 . S
N351 N350 1.365 . S
N351 H371 0.862 . S
C352 C347 1.501 . S
C352 H353 0.961 . S
C352 H354 0.961 . S
C352 H355 0.960 . S
H353 C352 0.961 . S
H354 C352 0.961 . S
H355 C352 0.960 . S
C356 N357 1.342 . S
C356 C360 1.401 . S
C356 C361 1.499 . S
N357 Co340 1.989 . S
N357 C356 1.342 . S
N357 N358 1.388 . S
N358 Co341 1.993 . S
N358 N357 1.388 . S
N358 C359 1.346 . S
C359 N358 1.346 . S
C359 C360 1.396 . S
C359 C369 1.510 . S
C360 C356 1.401 . S
C360 C359 1.396 . S
C361 C356 1.499 . S
C361 H362 0.959 . S
C361 H363 0.960 . S
C361 H364 0.961 . S
H362 C361 0.959 . S
H363 C361 0.960 . S
H364 C361 0.961 . S
O365 Co340 1.967 . S
O365 C373 1.258 . S
O366 Co341 1.941 . S
O366 C373 1.266 . S
H367 C369 0.959 . S
H368 C369 0.961 . S
C369 C359 1.510 . S
C369 H367 0.959 . S
C369 H368 0.961 . S
C369 H370 0.960 . S
H370 C369 0.960 . S
H371 N351 0.862 . S
O372 Co340 1.920 . S
O372 C345 1.289 . S
C373 O365 1.258 . S
C373 O366 1.266 . S
Co374 O377 1.970 . S
Co374 N391 1.989 . S
Co374 O399 1.967 . S
Co374 O406 1.920 . S
Co375 O378 1.966 . S
Co375 N384 2.022 . S
Co375 N392 1.993 . S
Co375 O400 1.941 . S
C376 O377 1.258 . S
C376 O378 1.263 . S
O377 Co374 1.970 . S
O377 C376 1.258 . S
O378 Co375 1.966 . S
O378 C376 1.263 . S
C379 O380 1.235 . S
C379 O406 1.289 . S
O380 C379 1.235 . S
C381 C383 1.400 . S
C381 N384 1.351 . S
C381 C386 1.501 . S
C382 C383 1.387 . S
C382 N385 1.341 . S
C383 C381 1.400 . S
C383 C382 1.387 . S
N384 Co375 2.022 . S
N384 C381 1.351 . S
N384 N385 1.365 . S
N385 C382 1.341 . S
N385 N384 1.365 . S
N385 H405 0.862 . S
C386 C381 1.501 . S
C386 H387 0.961 . S
C386 H388 0.961 . S
C386 H389 0.960 . S
H387 C386 0.961 . S
H388 C386 0.961 . S
H389 C386 0.960 . S
C390 N391 1.342 . S
C390 C394 1.401 . S
C390 C395 1.499 . S
N391 Co374 1.989 . S
N391 C390 1.342 . S
N391 N392 1.388 . S
N392 Co375 1.993 . S
N392 N391 1.388 . S
N392 C393 1.346 . S
C393 N392 1.346 . S
C393 C394 1.396 . S
C393 C403 1.510 . S
C394 C390 1.401 . S
C394 C393 1.396 . S
C395 C390 1.499 . S
C395 H396 0.959 . S
C395 H397 0.960 . S
C395 H398 0.961 . S
H396 C395 0.959 . S
H397 C395 0.960 . S
H398 C395 0.961 . S
O399 Co374 1.967 . S
O399 C407 1.258 . S
O400 Co375 1.941 . S
O400 C407 1.266 . S
H401 C403 0.959 . S
H402 C403 0.961 . S
C403 C393 1.510 . S
C403 H401 0.959 . S
C403 H402 0.961 . S
C403 H404 0.960 . S
H404 C403 0.960 . S
H405 N385 0.862 . S
O406 Co374 1.920 . S
O406 C379 1.289 . S
C407 O399 1.258 . S
C407 O400 1.266 . S
H408 C426 0.951 . S
H409 C428 0.951 . S
H410 C430 0.950 . S
H411 C431 0.950 . S
H412 C433 0.950 . S
H413 C436 0.950 . S
H414 C437 0.950 . S
H415 C439 0.950 . S
H416 C440 0.950 . S
H417 C441 0.951 . S
H418 C443 0.951 . S
H419 C445 0.950 . S
H420 C446 0.950 . S
H421 C448 0.950 . S
H422 C451 0.950 . S
H423 C452 0.950 . S
H424 C454 0.950 . S
H425 C455 0.950 . S
C426 H408 0.951 . S
C426 C427 1.366 . S
C426 C428 1.388 . S
C427 C426 1.366 . S
C427 C431 1.385 . S
C428 H409 0.951 . S
C428 C426 1.388 . S
C428 C429 1.366 . S
C429 C428 1.366 . S
C429 C430 1.414 . S
C429 C432 1.499 . S
C430 H410 0.950 . S
C430 C429 1.414 . S
C430 C431 1.374 . S
C431 H411 0.950 . S
C431 C427 1.385 . S
C431 C430 1.374 . S
C432 C429 1.499 . S
C432 C433 1.373 . S
C432 C434 1.389 . S
C433 H412 0.950 . S
C433 C432 1.373 . S
C433 C449 1.377 . S
C434 C432 1.389 . S
C434 C435 1.524 . S
C434 C448 1.377 . S
C435 C434 1.524 . S
C435 C436 1.397 . S
C435 C440 1.363 . S
C436 H413 0.950 . S
C436 C435 1.397 . S
C436 C437 1.334 . S
C437 H414 0.950 . S
C437 C436 1.334 . S
C437 C438 1.287 . S
C438 C437 1.287 . S
C438 C439 1.524 . S
C438 H457 0.913 . S
C439 H415 0.950 . S
C439 C438 1.524 . S
C439 C440 1.415 . S
C440 H416 0.950 . S
C440 C435 1.363 . S
C440 C439 1.415 . S
C441 H417 0.951 . S
C441 C442 1.366 . S
C441 C443 1.388 . S
C442 C441 1.366 . S
C442 C446 1.385 . S
C443 H418 0.951 . S
C443 C441 1.388 . S
C443 C444 1.366 . S
C444 C443 1.366 . S
C444 C445 1.414 . S
C444 C447 1.499 . S
C445 H419 0.950 . S
C445 C444 1.414 . S
C445 C446 1.374 . S
C446 H420 0.950 . S
C446 C442 1.385 . S
C446 C445 1.374 . S
C447 C444 1.499 . S
C447 C448 1.373 . S
C447 C449 1.389 . S
C448 H421 0.950 . S
C448 C434 1.377 . S
C448 C447 1.373 . S
C449 C433 1.377 . S
C449 C447 1.389 . S
C449 C450 1.524 . S
C450 C449 1.524 . S
C450 C451 1.397 . S
C450 C455 1.363 . S
C451 H422 0.950 . S
C451 C450 1.397 . S
C451 C452 1.334 . S
C452 H423 0.950 . S
C452 C451 1.334 . S
C452 C453 1.287 . S
C453 C452 1.287 . S
C453 C454 1.524 . S
C453 H456 0.999 . S
C454 H424 0.950 . S
C454 C453 1.524 . S
C454 C455 1.415 . S
C455 H425 0.950 . S
C455 C450 1.363 . S
C455 C454 1.415 . S
H456 C453 0.999 . S
H457 C438 0.913 . S
H458 C476 0.951 . S
H459 C478 0.951 . S
H460 C480 0.950 . S
H461 C481 0.950 . S
H462 C483 0.950 . S
H463 C486 0.950 . S
H464 C487 0.950 1_655 S
H465 C489 0.950 . S
H466 C490 0.950 . S
H467 C491 0.951 . S
H468 C493 0.951 . S
H469 C495 0.950 . S
H470 C496 0.950 . S
H471 C498 0.950 . S
H472 C501 0.950 . S
H473 C502 0.950 . S
H474 C504 0.950 . S
H475 C505 0.950 . S
C476 H458 0.951 . S
C476 C477 1.366 . S
C476 C478 1.388 . S
C477 C476 1.366 . S
C477 C481 1.385 . S
C478 H459 0.951 . S
C478 C476 1.388 . S
C478 C479 1.366 . S
C479 C478 1.366 . S
C479 C480 1.414 . S
C479 C482 1.499 . S
C480 H460 0.950 . S
C480 C479 1.414 . S
C480 C481 1.374 . S
C481 H461 0.950 . S
C481 C477 1.385 . S
C481 C480 1.374 . S
C482 C479 1.499 . S
C482 C483 1.373 . S
C482 C484 1.389 . S
C483 H462 0.950 . S
C483 C482 1.373 . S
C483 C499 1.377 . S
C484 C482 1.389 . S
C484 C485 1.524 . S
C484 C498 1.377 . S
C485 C484 1.524 . S
C485 C486 1.397 . S
C485 C490 1.363 . S
C486 H463 0.950 . S
C486 C485 1.397 . S
C486 C487 1.334 . S
C487 H464 0.950 1_455 S
C487 C486 1.334 . S
C487 C488 1.287 1_455 S
C488 C487 1.287 1_655 S
C488 C489 1.524 1_655 S
C488 H507 0.913 . S
C489 H465 0.950 . S
C489 C488 1.524 1_455 S
C489 C490 1.415 . S
C490 H466 0.950 . S
C490 C485 1.363 . S
C490 C489 1.415 . S
C491 H467 0.951 . S
C491 C492 1.366 . S
C491 C493 1.388 . S
C492 C491 1.366 . S
C492 C496 1.385 . S
C493 H468 0.951 . S
C493 C491 1.388 . S
C493 C494 1.366 . S
C494 C493 1.366 . S
C494 C495 1.414 . S
C494 C497 1.499 . S
C495 H469 0.950 . S
C495 C494 1.414 . S
C495 C496 1.374 . S
C496 H470 0.950 . S
C496 C492 1.385 . S
C496 C495 1.374 . S
C497 C494 1.499 . S
C497 C498 1.373 . S
C497 C499 1.389 . S
C498 H471 0.950 . S
C498 C484 1.377 . S
C498 C497 1.373 . S
C499 C483 1.377 . S
C499 C497 1.389 . S
C499 C500 1.524 . S
C500 C499 1.524 . S
C500 C501 1.397 . S
C500 C505 1.363 . S
C501 H472 0.950 . S
C501 C500 1.397 . S
C501 C502 1.334 . S
C502 H473 0.950 . S
C502 C501 1.334 . S
C502 C503 1.287 . S
C503 C502 1.287 . S
C503 C504 1.524 . S
C503 H506 0.999 . S
C504 H474 0.950 . S
C504 C503 1.524 . S
C504 C505 1.415 . S
C505 H475 0.950 . S
C505 C500 1.363 . S
C505 C504 1.415 . S
H506 C503 0.999 . S
H507 C488 0.913 . S
H508 C526 0.951 . S
H509 C528 0.951 . S
H510 C530 0.950 . S
H511 C531 0.950 . S
H512 C533 0.950 . S
H513 C536 0.950 . S
H514 C537 0.950 . S
H515 C539 0.950 . S
H516 C540 0.950 . S
H517 C541 0.951 . S
H518 C543 0.951 . S
H519 C545 0.950 . S
H520 C546 0.950 . S
H521 C548 0.950 . S
H522 C551 0.950 . S
H523 C552 0.950 1_565 S
H524 C554 0.950 . S
H525 C555 0.950 . S
C526 H508 0.951 . S
C526 C527 1.366 . S
C526 C528 1.388 . S
C527 C526 1.366 . S
C527 C531 1.385 . S
C528 H509 0.951 . S
C528 C526 1.388 . S
C528 C529 1.366 . S
C529 C528 1.366 . S
C529 C530 1.414 . S
C529 C532 1.499 . S
C530 H510 0.950 . S
C530 C529 1.414 . S
C530 C531 1.374 . S
C531 H511 0.950 . S
C531 C527 1.385 . S
C531 C530 1.374 . S
C532 C529 1.499 . S
C532 C533 1.373 . S
C532 C534 1.389 . S
C533 H512 0.950 . S
C533 C532 1.373 . S
C533 C549 1.377 . S
C534 C532 1.389 . S
C534 C535 1.524 . S
C534 C548 1.377 . S
C535 C534 1.524 . S
C535 C536 1.397 . S
C535 C540 1.363 . S
C536 H513 0.950 . S
C536 C535 1.397 . S
C536 C537 1.334 . S
C537 H514 0.950 . S
C537 C536 1.334 . S
C537 C538 1.287 . S
C538 C537 1.287 . S
C538 C539 1.524 . S
C538 H557 0.913 . S
C539 H515 0.950 . S
C539 C538 1.524 . S
C539 C540 1.415 . S
C540 H516 0.950 . S
C540 C535 1.363 . S
C540 C539 1.415 . S
C541 H517 0.951 . S
C541 C542 1.366 . S
C541 C543 1.388 . S
C542 C541 1.366 . S
C542 C546 1.385 . S
C543 H518 0.951 . S
C543 C541 1.388 . S
C543 C544 1.366 . S
C544 C543 1.366 . S
C544 C545 1.414 . S
C544 C547 1.499 . S
C545 H519 0.950 . S
C545 C544 1.414 . S
C545 C546 1.374 . S
C546 H520 0.950 . S
C546 C542 1.385 . S
C546 C545 1.374 . S
C547 C544 1.499 . S
C547 C548 1.373 . S
C547 C549 1.389 . S
C548 H521 0.950 . S
C548 C534 1.377 . S
C548 C547 1.373 . S
C549 C533 1.377 . S
C549 C547 1.389 . S
C549 C550 1.524 . S
C550 C549 1.524 . S
C550 C551 1.397 . S
C550 C555 1.363 . S
C551 H522 0.950 . S
C551 C550 1.397 . S
C551 C552 1.334 . S
C552 H523 0.950 1_545 S
C552 C551 1.334 . S
C552 C553 1.287 1_545 S
C553 C552 1.287 1_565 S
C553 C554 1.524 1_565 S
C553 H556 0.999 . S
C554 H524 0.950 . S
C554 C553 1.524 1_545 S
C554 C555 1.415 . S
C555 H525 0.950 . S
C555 C550 1.363 . S
C555 C554 1.415 . S
H556 C553 0.999 . S
H557 C538 0.913 . S
H558 C576 0.951 . S
H559 C578 0.951 . S
H560 C580 0.950 . S
H561 C581 0.950 . S
H562 C583 0.950 . S
H563 C586 0.950 . S
H564 C587 0.950 . S
H565 C589 0.950 . S
H566 C590 0.950 . S
H567 C591 0.951 . S
H568 C593 0.951 . S
H569 C595 0.950 . S
H570 C596 0.950 . S
H571 C598 0.950 . S
H572 C601 0.950 . S
H573 C602 0.950 . S
H574 C604 0.950 . S
H575 C605 0.950 . S
C576 H558 0.951 . S
C576 C577 1.366 . S
C576 C578 1.388 . S
C577 C576 1.366 . S
C577 C581 1.385 . S
C578 H559 0.951 . S
C578 C576 1.388 . S
C578 C579 1.366 . S
C579 C578 1.366 . S
C579 C580 1.414 . S
C579 C582 1.499 . S
C580 H560 0.950 . S
C580 C579 1.414 . S
C580 C581 1.374 . S
C581 H561 0.950 . S
C581 C577 1.385 . S
C581 C580 1.374 . S
C582 C579 1.499 . S
C582 C583 1.373 . S
C582 C584 1.389 . S
C583 H562 0.950 . S
C583 C582 1.373 . S
C583 C599 1.377 . S
C584 C582 1.389 . S
C584 C585 1.524 . S
C584 C598 1.377 . S
C585 C584 1.524 . S
C585 C586 1.397 . S
C585 C590 1.363 . S
C586 H563 0.950 . S
C586 C585 1.397 . S
C586 C587 1.334 . S
C587 H564 0.950 . S
C587 C586 1.334 . S
C587 C588 1.287 . S
C588 C587 1.287 . S
C588 C589 1.524 . S
C588 H607 0.913 . S
C589 H565 0.950 . S
C589 C588 1.524 . S
C589 C590 1.415 . S
C590 H566 0.950 . S
C590 C585 1.363 . S
C590 C589 1.415 . S
C591 H567 0.951 . S
C591 C592 1.366 . S
C591 C593 1.388 . S
C592 C591 1.366 . S
C592 C596 1.385 . S
C593 H568 0.951 . S
C593 C591 1.388 . S
C593 C594 1.366 . S
C594 C593 1.366 . S
C594 C595 1.414 . S
C594 C597 1.499 . S
C595 H569 0.950 . S
C595 C594 1.414 . S
C595 C596 1.374 . S
C596 H570 0.950 . S
C596 C592 1.385 . S
C596 C595 1.374 . S
C597 C594 1.499 . S
C597 C598 1.373 . S
C597 C599 1.389 . S
C598 H571 0.950 . S
C598 C584 1.377 . S
C598 C597 1.373 . S
C599 C583 1.377 . S
C599 C597 1.389 . S
C599 C600 1.524 . S
C600 C599 1.524 . S
C600 C601 1.397 . S
C600 C605 1.363 . S
C601 H572 0.950 . S
C601 C600 1.397 . S
C601 C602 1.334 . S
C602 H573 0.950 . S
C602 C601 1.334 . S
C602 C603 1.287 . S
C603 C602 1.287 . S
C603 C604 1.524 . S
C603 H606 0.999 . S
C604 H574 0.950 . S
C604 C603 1.524 . S
C604 C605 1.415 . S
C605 H575 0.950 . S
C605 C600 1.363 . S
C605 C604 1.415 . S
H606 C603 0.999 . S
H607 C588 0.913 . S
H608 C626 0.951 . S
H609 C628 0.951 . S
H610 C630 0.950 . S
H611 C631 0.950 . S
H612 C633 0.950 . S
H613 C636 0.950 . S
H614 C637 0.950 . S
H615 C639 0.950 . S
H616 C640 0.950 . S
H617 C641 0.951 . S
H618 C643 0.951 . S
H619 C645 0.950 . S
H620 C646 0.950 . S
H621 C648 0.950 . S
H622 C651 0.950 . S
H623 C652 0.950 . S
H624 C654 0.950 . S
H625 C655 0.950 . S
C626 H608 0.951 . S
C626 C627 1.366 . S
C626 C628 1.388 . S
C627 C626 1.366 . S
C627 C631 1.385 . S
C628 H609 0.951 . S
C628 C626 1.388 . S
C628 C629 1.366 . S
C629 C628 1.366 . S
C629 C630 1.414 . S
C629 C632 1.499 . S
C630 H610 0.950 . S
C630 C629 1.414 . S
C630 C631 1.374 . S
C631 H611 0.950 . S
C631 C627 1.385 . S
C631 C630 1.374 . S
C632 C629 1.499 . S
C632 C633 1.373 . S
C632 C634 1.389 . S
C633 H612 0.950 . S
C633 C632 1.373 . S
C633 C649 1.377 . S
C634 C632 1.389 . S
C634 C635 1.524 . S
C634 C648 1.377 . S
C635 C634 1.524 . S
C635 C636 1.397 . S
C635 C640 1.363 . S
C636 H613 0.950 . S
C636 C635 1.397 . S
C636 C637 1.334 . S
C637 H614 0.950 . S
C637 C636 1.334 . S
C637 C638 1.287 . S
C638 C637 1.287 . S
C638 C639 1.524 . S
C638 H657 0.913 . S
C639 H615 0.950 . S
C639 C638 1.524 . S
C639 C640 1.415 . S
C640 H616 0.950 . S
C640 C635 1.363 . S
C640 C639 1.415 . S
C641 H617 0.951 . S
C641 C642 1.366 . S
C641 C643 1.388 . S
C642 C641 1.366 . S
C642 C646 1.385 . S
C643 H618 0.951 . S
C643 C641 1.388 . S
C643 C644 1.366 . S
C644 C643 1.366 . S
C644 C645 1.414 . S
C644 C647 1.499 . S
C645 H619 0.950 . S
C645 C644 1.414 . S
C645 C646 1.374 . S
C646 H620 0.950 . S
C646 C642 1.385 . S
C646 C645 1.374 . S
C647 C644 1.499 . S
C647 C648 1.373 . S
C647 C649 1.389 . S
C648 H621 0.950 . S
C648 C634 1.377 . S
C648 C647 1.373 . S
C649 C633 1.377 . S
C649 C647 1.389 . S
C649 C650 1.524 . S
C650 C649 1.524 . S
C650 C651 1.397 . S
C650 C655 1.363 . S
C651 H622 0.950 . S
C651 C650 1.397 . S
C651 C652 1.334 . S
C652 H623 0.950 . S
C652 C651 1.334 . S
C652 C653 1.287 . S
C653 C652 1.287 . S
C653 C654 1.524 . S
C653 H656 0.999 . S
C654 H624 0.950 . S
C654 C653 1.524 . S
C654 C655 1.415 . S
C655 H625 0.950 . S
C655 C650 1.363 . S
C655 C654 1.415 . S
H656 C653 0.999 . S
H657 C638 0.913 . S
H658 C676 0.951 . S
H659 C678 0.951 . S
H660 C680 0.950 . S
H661 C681 0.950 . S
H662 C683 0.950 . S
H663 C686 0.950 . S
H664 C687 0.950 . S
H665 C689 0.950 . S
H666 C690 0.950 . S
H667 C691 0.951 . S
H668 C693 0.951 . S
H669 C695 0.950 . S
H670 C696 0.950 . S
H671 C698 0.950 . S
H672 C701 0.950 . S
H673 C702 0.950 . S
H674 C704 0.950 . S
H675 C705 0.950 . S
C676 H658 0.951 . S
C676 C677 1.366 . S
C676 C678 1.388 . S
C677 C676 1.366 . S
C677 C681 1.385 . S
C678 H659 0.951 . S
C678 C676 1.388 . S
C678 C679 1.366 . S
C679 C678 1.366 . S
C679 C680 1.414 . S
C679 C682 1.499 . S
C680 H660 0.950 . S
C680 C679 1.414 . S
C680 C681 1.374 . S
C681 H661 0.950 . S
C681 C677 1.385 . S
C681 C680 1.374 . S
C682 C679 1.499 . S
C682 C683 1.373 . S
C682 C684 1.389 . S
C683 H662 0.950 . S
C683 C682 1.373 . S
C683 C699 1.377 . S
C684 C682 1.389 . S
C684 C685 1.524 . S
C684 C698 1.377 . S
C685 C684 1.524 . S
C685 C686 1.397 . S
C685 C690 1.363 . S
C686 H663 0.950 . S
C686 C685 1.397 . S
C686 C687 1.334 . S
C687 H664 0.950 . S
C687 C686 1.334 . S
C687 C688 1.287 . S
C688 C687 1.287 . S
C688 C689 1.524 . S
C688 H707 0.913 . S
C689 H665 0.950 . S
C689 C688 1.524 . S
C689 C690 1.415 . S
C690 H666 0.950 . S
C690 C685 1.363 . S
C690 C689 1.415 . S
C691 H667 0.951 . S
C691 C692 1.366 . S
C691 C693 1.388 . S
C692 C691 1.366 . S
C692 C696 1.385 . S
C693 H668 0.951 . S
C693 C691 1.388 . S
C693 C694 1.366 . S
C694 C693 1.366 . S
C694 C695 1.414 . S
C694 C697 1.499 . S
C695 H669 0.950 . S
C695 C694 1.414 . S
C695 C696 1.374 . S
C696 H670 0.950 . S
C696 C692 1.385 . S
C696 C695 1.374 . S
C697 C694 1.499 . S
C697 C698 1.373 . S
C697 C699 1.389 . S
C698 H671 0.950 . S
C698 C684 1.377 . S
C698 C697 1.373 . S
C699 C683 1.377 . S
C699 C697 1.389 . S
C699 C700 1.524 . S
C700 C699 1.524 . S
C700 C701 1.397 . S
C700 C705 1.363 . S
C701 H672 0.950 . S
C701 C700 1.397 . S
C701 C702 1.334 . S
C702 H673 0.950 . S
C702 C701 1.334 . S
C702 C703 1.287 . S
C703 C702 1.287 . S
C703 C704 1.524 . S
C703 H706 0.999 . S
C704 H674 0.950 . S
C704 C703 1.524 . S
C704 C705 1.415 . S
C705 H675 0.950 . S
C705 C700 1.363 . S
C705 C704 1.415 . S
H706 C703 0.999 . S
H707 C688 0.913 . S
H708 C726 0.951 . S
H709 C728 0.951 . S
H710 C730 0.950 . S
H711 C731 0.950 . S
H712 C733 0.950 . S
H713 C736 0.950 . S
H714 C737 0.950 . S
H715 C739 0.950 . S
H716 C740 0.950 . S
H717 C741 0.951 . S
H718 C743 0.951 . S
H719 C745 0.950 . S
H720 C746 0.950 . S
H721 C748 0.950 . S
H722 C751 0.950 . S
H723 C752 0.950 . S
H724 C754 0.950 . S
H725 C755 0.950 . S
C726 H708 0.951 . S
C726 C727 1.366 . S
C726 C728 1.388 . S
C727 C726 1.366 . S
C727 C731 1.385 . S
C728 H709 0.951 . S
C728 C726 1.388 . S
C728 C729 1.366 . S
C729 C728 1.366 . S
C729 C730 1.414 . S
C729 C732 1.499 . S
C730 H710 0.950 . S
C730 C729 1.414 . S
C730 C731 1.374 . S
C731 H711 0.950 . S
C731 C727 1.385 . S
C731 C730 1.374 . S
C732 C729 1.499 . S
C732 C733 1.373 . S
C732 C734 1.389 . S
C733 H712 0.950 . S
C733 C732 1.373 . S
C733 C749 1.377 1_565 S
C734 C732 1.389 . S
C734 C735 1.524 . S
C734 C748 1.377 1_565 S
C735 C734 1.524 . S
C735 C736 1.397 . S
C735 C740 1.363 . S
C736 H713 0.950 . S
C736 C735 1.397 . S
C736 C737 1.334 . S
C737 H714 0.950 . S
C737 C736 1.334 . S
C737 C738 1.287 . S
C738 C737 1.287 . S
C738 C739 1.524 . S
C738 H757 0.913 . S
C739 H715 0.950 . S
C739 C738 1.524 . S
C739 C740 1.415 . S
C740 H716 0.950 . S
C740 C735 1.363 . S
C740 C739 1.415 . S
C741 H717 0.951 . S
C741 C742 1.366 . S
C741 C743 1.388 . S
C742 C741 1.366 . S
C742 C746 1.385 . S
C743 H718 0.951 . S
C743 C741 1.388 . S
C743 C744 1.366 . S
C744 C743 1.366 . S
C744 C745 1.414 . S
C744 C747 1.499 . S
C745 H719 0.950 . S
C745 C744 1.414 . S
C745 C746 1.374 . S
C746 H720 0.950 . S
C746 C742 1.385 . S
C746 C745 1.374 . S
C747 C744 1.499 . S
C747 C748 1.373 . S
C747 C749 1.389 . S
C748 H721 0.950 . S
C748 C734 1.377 1_545 S
C748 C747 1.373 . S
C749 C733 1.377 1_545 S
C749 C747 1.389 . S
C749 C750 1.524 . S
C750 C749 1.524 . S
C750 C751 1.397 . S
C750 C755 1.363 . S
C751 H722 0.950 . S
C751 C750 1.397 . S
C751 C752 1.334 . S
C752 H723 0.950 . S
C752 C751 1.334 . S
C752 C753 1.287 . S
C753 C752 1.287 . S
C753 C754 1.524 . S
C753 H756 0.999 . S
C754 H724 0.950 . S
C754 C753 1.524 . S
C754 C755 1.415 . S
C755 H725 0.950 . S
C755 C750 1.363 . S
C755 C754 1.415 . S
H756 C753 0.999 . S
H757 C738 0.913 . S
H758 C776 0.951 . S
H759 C778 0.951 . S
H760 C780 0.950 . S
H761 C781 0.950 . S
H762 C783 0.950 . S
H763 C786 0.950 . S
H764 C787 0.950 . S
H765 C789 0.950 . S
H766 C790 0.950 . S
H767 C791 0.951 . S
H768 C793 0.951 . S
H769 C795 0.950 . S
H770 C796 0.950 . S
H771 C798 0.950 . S
H772 C801 0.950 . S
H773 C802 0.950 . S
H774 C804 0.950 . S
H775 C805 0.950 . S
C776 H758 0.951 . S
C776 C777 1.366 . S
C776 C778 1.388 . S
C777 C776 1.366 . S
C777 C781 1.385 . S
C778 H759 0.951 . S
C778 C776 1.388 . S
C778 C779 1.366 . S
C779 C778 1.366 . S
C779 C780 1.414 . S
C779 C782 1.499 . S
C780 H760 0.950 . S
C780 C779 1.414 . S
C780 C781 1.374 . S
C781 H761 0.950 . S
C781 C777 1.385 . S
C781 C780 1.374 . S
C782 C779 1.499 . S
C782 C783 1.373 . S
C782 C784 1.389 . S
C783 H762 0.950 . S
C783 C782 1.373 . S
C783 C799 1.377 . S
C784 C782 1.389 . S
C784 C785 1.524 . S
C784 C798 1.377 . S
C785 C784 1.524 . S
C785 C786 1.397 . S
C785 C790 1.363 . S
C786 H763 0.950 . S
C786 C785 1.397 . S
C786 C787 1.334 . S
C787 H764 0.950 . S
C787 C786 1.334 . S
C787 C788 1.287 . S
C788 C787 1.287 . S
C788 C789 1.524 . S
C788 H807 0.913 . S
C789 H765 0.950 . S
C789 C788 1.524 . S
C789 C790 1.415 . S
C790 H766 0.950 . S
C790 C785 1.363 . S
C790 C789 1.415 . S
C791 H767 0.951 . S
C791 C792 1.366 . S
C791 C793 1.388 . S
C792 C791 1.366 . S
C792 C796 1.385 . S
C793 H768 0.951 . S
C793 C791 1.388 . S
C793 C794 1.366 . S
C794 C793 1.366 . S
C794 C795 1.414 . S
C794 C797 1.499 . S
C795 H769 0.950 . S
C795 C794 1.414 . S
C795 C796 1.374 . S
C796 H770 0.950 . S
C796 C792 1.385 . S
C796 C795 1.374 . S
C797 C794 1.499 . S
C797 C798 1.373 . S
C797 C799 1.389 . S
C798 H771 0.950 . S
C798 C784 1.377 . S
C798 C797 1.373 . S
C799 C783 1.377 . S
C799 C797 1.389 . S
C799 C800 1.524 . S
C800 C799 1.524 . S
C800 C801 1.397 . S
C800 C805 1.363 . S
C801 H772 0.950 . S
C801 C800 1.397 . S
C801 C802 1.334 . S
C802 H773 0.950 . S
C802 C801 1.334 . S
C802 C803 1.287 . S
C803 C802 1.287 . S
C803 C804 1.524 . S
C803 H806 0.999 . S
C804 H774 0.950 . S
C804 C803 1.524 . S
C804 C805 1.415 . S
C805 H775 0.950 . S
C805 C800 1.363 . S
C805 C804 1.415 . S
H806 C803 0.999 . S
H807 C788 0.913 . S
H808 C826 0.951 . S
H809 C828 0.951 . S
H810 C830 0.950 . S
H811 C831 0.950 . S
H812 C833 0.950 . S
H813 C836 0.950 . S
H814 C837 0.950 . S
H815 C839 0.950 . S
H816 C840 0.950 . S
H817 C841 0.951 . S
H818 C843 0.951 . S
H819 C845 0.950 . S
H820 C846 0.950 . S
H821 C848 0.950 . S
H822 C851 0.950 . S
H823 C852 0.950 . S
H824 C854 0.950 . S
H825 C855 0.950 . S
C826 H808 0.951 . S
C826 C827 1.366 . S
C826 C828 1.388 . S
C827 C826 1.366 . S
C827 C831 1.385 . S
C828 H809 0.951 . S
C828 C826 1.388 . S
C828 C829 1.366 . S
C829 C828 1.366 . S
C829 C830 1.414 . S
C829 C832 1.499 . S
C830 H810 0.950 . S
C830 C829 1.414 . S
C830 C831 1.374 . S
C831 H811 0.950 . S
C831 C827 1.385 . S
C831 C830 1.374 . S
C832 C829 1.499 . S
C832 C833 1.373 . S
C832 C834 1.389 . S
C833 H812 0.950 . S
C833 C832 1.373 . S
C833 C849 1.377 1_455 S
C834 C832 1.389 . S
C834 C835 1.524 . S
C834 C848 1.377 1_455 S
C835 C834 1.524 . S
C835 C836 1.397 . S
C835 C840 1.363 . S
C836 H813 0.950 . S
C836 C835 1.397 . S
C836 C837 1.334 . S
C837 H814 0.950 . S
C837 C836 1.334 . S
C837 C838 1.287 . S
C838 C837 1.287 . S
C838 C839 1.524 . S
C838 H857 0.913 . S
C839 H815 0.950 . S
C839 C838 1.524 . S
C839 C840 1.415 . S
C840 H816 0.950 . S
C840 C835 1.363 . S
C840 C839 1.415 . S
C841 H817 0.951 . S
C841 C842 1.366 . S
C841 C843 1.388 . S
C842 C841 1.366 . S
C842 C846 1.385 . S
C843 H818 0.951 . S
C843 C841 1.388 . S
C843 C844 1.366 . S
C844 C843 1.366 . S
C844 C845 1.414 . S
C844 C847 1.499 . S
C845 H819 0.950 . S
C845 C844 1.414 . S
C845 C846 1.374 . S
C846 H820 0.950 . S
C846 C842 1.385 . S
C846 C845 1.374 . S
C847 C844 1.499 . S
C847 C848 1.373 . S
C847 C849 1.389 . S
C848 H821 0.950 . S
C848 C834 1.377 1_655 S
C848 C847 1.373 . S
C849 C833 1.377 1_655 S
C849 C847 1.389 . S
C849 C850 1.524 . S
C850 C849 1.524 . S
C850 C851 1.397 . S
C850 C855 1.363 . S
C851 H822 0.950 . S
C851 C850 1.397 . S
C851 C852 1.334 . S
C852 H823 0.950 . S
C852 C851 1.334 . S
C852 C853 1.287 . S
C853 C852 1.287 . S
C853 C854 1.524 . S
C853 H856 0.999 . S
C854 H824 0.950 . S
C854 C853 1.524 . S
C854 C855 1.415 . S
C855 H825 0.950 . S
C855 C850 1.363 . S
C855 C854 1.415 . S
H856 C853 0.999 . S
H857 C838 0.913 . S
H858 C876 0.951 . S
H859 C878 0.951 1_554 S
H860 C880 0.950 . S
H861 C881 0.950 . S
H862 C883 0.950 . S
H863 C886 0.950 . S
H864 C887 0.950 . S
H865 C889 0.950 . S
H866 C890 0.950 . S
H867 C891 0.951 . S
H868 C893 0.951 1_556 S
H869 C895 0.950 . S
H870 C896 0.950 . S
H871 C898 0.950 . S
H872 C901 0.950 . S
H873 C902 0.950 . S
H874 C904 0.950 . S
H875 C905 0.950 . S
C876 H858 0.951 . S
C876 C877 1.366 . S
C876 C878 1.388 . S
C877 C876 1.366 . S
C877 C881 1.385 . S
C878 H859 0.951 1_556 S
C878 C876 1.388 . S
C878 C879 1.366 . S
C879 C878 1.366 . S
C879 C880 1.414 . S
C879 C882 1.499 . S
C880 H860 0.950 . S
C880 C879 1.414 . S
C880 C881 1.374 . S
C881 H861 0.950 . S
C881 C877 1.385 . S
C881 C880 1.374 . S
C882 C879 1.499 . S
C882 C883 1.373 . S
C882 C884 1.389 . S
C883 H862 0.950 . S
C883 C882 1.373 . S
C883 C899 1.377 1_566 S
C884 C882 1.389 . S
C884 C885 1.524 . S
C884 C898 1.377 1_566 S
C885 C884 1.524 . S
C885 C886 1.397 . S
C885 C890 1.363 1_556 S
C886 H863 0.950 . S
C886 C885 1.397 . S
C886 C887 1.334 . S
C887 H864 0.950 . S
C887 C886 1.334 . S
C887 C888 1.287 . S
C888 C887 1.287 . S
C888 C889 1.524 1_556 S
C888 H907 0.913 . S
C889 H865 0.950 . S
C889 C888 1.524 1_554 S
C889 C890 1.415 . S
C890 H866 0.950 . S
C890 C885 1.363 1_554 S
C890 C889 1.415 . S
C891 H867 0.951 . S
C891 C892 1.366 . S
C891 C893 1.388 . S
C892 C891 1.366 . S
C892 C896 1.385 . S
C893 H868 0.951 1_554 S
C893 C891 1.388 . S
C893 C894 1.366 . S
C894 C893 1.366 . S
C894 C895 1.414 . S
C894 C897 1.499 . S
C895 H869 0.950 . S
C895 C894 1.414 . S
C895 C896 1.374 . S
C896 H870 0.950 . S
C896 C892 1.385 . S
C896 C895 1.374 . S
C897 C894 1.499 . S
C897 C898 1.373 . S
C897 C899 1.389 . S
C898 H871 0.950 . S
C898 C884 1.377 1_544 S
C898 C897 1.373 . S
C899 C883 1.377 1_544 S
C899 C897 1.389 . S
C899 C900 1.524 . S
C900 C899 1.524 . S
C900 C901 1.397 . S
C900 C905 1.363 1_554 S
C901 H872 0.950 . S
C901 C900 1.397 . S
C901 C902 1.334 . S
C902 H873 0.950 . S
C902 C901 1.334 . S
C902 C903 1.287 . S
C903 C902 1.287 . S
C903 C904 1.524 1_554 S
C903 H906 0.999 . S
C904 H874 0.950 . S
C904 C903 1.524 1_556 S
C904 C905 1.415 . S
C905 H875 0.950 . S
C905 C900 1.363 1_556 S
C905 C904 1.415 . S
H906 C903 0.999 . S
H907 C888 0.913 . S
H908 C926 0.951 . S
H909 C928 0.951 . S
H910 C930 0.950 . S
H911 C931 0.950 . S
H912 C933 0.950 . S
H913 C936 0.950 . S
H914 C937 0.950 . S
H915 C939 0.950 . S
H916 C940 0.950 . S
H917 C941 0.951 . S
H918 C943 0.951 . S
H919 C945 0.950 . S
H920 C946 0.950 . S
H921 C948 0.950 . S
H922 C951 0.950 . S
H923 C952 0.950 . S
H924 C954 0.950 . S
H925 C955 0.950 . S
C926 H908 0.951 . S
C926 C927 1.366 . S
C926 C928 1.388 . S
C927 C926 1.366 . S
C927 C931 1.385 . S
C928 H909 0.951 . S
C928 C926 1.388 . S
C928 C929 1.366 . S
C929 C928 1.366 . S
C929 C930 1.414 . S
C929 C932 1.499 . S
C930 H910 0.950 . S
C930 C929 1.414 . S
C930 C931 1.374 . S
C931 H911 0.950 . S
C931 C927 1.385 . S
C931 C930 1.374 . S
C932 C929 1.499 . S
C932 C933 1.373 . S
C932 C934 1.389 . S
C933 H912 0.950 . S
C933 C932 1.373 . S
C933 C949 1.377 . S
C934 C932 1.389 . S
C934 C935 1.524 . S
C934 C948 1.377 . S
C935 C934 1.524 . S
C935 C936 1.397 . S
C935 C940 1.363 . S
C936 H913 0.950 . S
C936 C935 1.397 . S
C936 C937 1.334 . S
C937 H914 0.950 . S
C937 C936 1.334 . S
C937 C938 1.287 . S
C938 C937 1.287 . S
C938 C939 1.524 . S
C938 H957 0.913 . S
C939 H915 0.950 . S
C939 C938 1.524 . S
C939 C940 1.415 . S
C940 H916 0.950 . S
C940 C935 1.363 . S
C940 C939 1.415 . S
C941 H917 0.951 . S
C941 C942 1.366 . S
C941 C943 1.388 . S
C942 C941 1.366 . S
C942 C946 1.385 . S
C943 H918 0.951 . S
C943 C941 1.388 . S
C943 C944 1.366 . S
C944 C943 1.366 . S
C944 C945 1.414 . S
C944 C947 1.499 . S
C945 H919 0.950 . S
C945 C944 1.414 . S
C945 C946 1.374 . S
C946 H920 0.950 . S
C946 C942 1.385 . S
C946 C945 1.374 . S
C947 C944 1.499 . S
C947 C948 1.373 . S
C947 C949 1.389 . S
C948 H921 0.950 . S
C948 C934 1.377 . S
C948 C947 1.373 . S
C949 C933 1.377 . S
C949 C947 1.389 . S
C949 C950 1.524 . S
C950 C949 1.524 . S
C950 C951 1.397 . S
C950 C955 1.363 . S
C951 H922 0.950 . S
C951 C950 1.397 . S
C951 C952 1.334 . S
C952 H923 0.950 . S
C952 C951 1.334 . S
C952 C953 1.287 . S
C953 C952 1.287 . S
C953 C954 1.524 . S
C953 H956 0.999 . S
C954 H924 0.950 . S
C954 C953 1.524 . S
C954 C955 1.415 . S
C955 H925 0.950 . S
C955 C950 1.363 . S
C955 C954 1.415 . S
H956 C953 0.999 . S
H957 C938 0.913 . S
H958 C976 0.951 . S
H959 C978 0.951 . S
H960 C980 0.950 . S
H961 C981 0.950 . S
H962 C983 0.950 . S
H963 C986 0.950 . S
H964 C987 0.950 . S
H965 C989 0.950 . S
H966 C990 0.950 1_655 S
H967 C991 0.951 . S
H968 C993 0.951 . S
H969 C995 0.950 . S
H970 C996 0.950 . S
H971 C998 0.950 . S
H972 C1001 0.950 . S
H973 C1002 0.950 . S
H974 C1004 0.950 . S
H975 C1005 0.950 1_455 S
C976 H958 0.951 . S
C976 C977 1.366 . S
C976 C978 1.388 . S
C977 C976 1.366 . S
C977 C981 1.385 . S
C978 H959 0.951 . S
C978 C976 1.388 . S
C978 C979 1.366 . S
C979 C978 1.366 . S
C979 C980 1.414 . S
C979 C982 1.499 . S
C980 H960 0.950 . S
C980 C979 1.414 . S
C980 C981 1.374 . S
C981 H961 0.950 . S
C981 C977 1.385 . S
C981 C980 1.374 . S
C982 C979 1.499 . S
C982 C983 1.373 . S
C982 C984 1.389 . S
C983 H962 0.950 . S
C983 C982 1.373 . S
C983 C999 1.377 1_455 S
C984 C982 1.389 . S
C984 C985 1.524 . S
C984 C998 1.377 1_455 S
C985 C984 1.524 . S
C985 C986 1.397 . S
C985 C990 1.363 . S
C986 H963 0.950 . S
C986 C985 1.397 . S
C986 C987 1.334 . S
C987 H964 0.950 . S
C987 C986 1.334 . S
C987 C988 1.287 . S
C988 C987 1.287 . S
C988 C989 1.524 . S
C988 H1007 0.913 . S
C989 H965 0.950 . S
C989 C988 1.524 . S
C989 C990 1.415 . S
C990 H966 0.950 1_455 S
C990 C985 1.363 . S
C990 C989 1.415 . S
C991 H967 0.951 . S
C991 C992 1.366 . S
C991 C993 1.388 . S
C992 C991 1.366 . S
C992 C996 1.385 . S
C993 H968 0.951 . S
C993 C991 1.388 . S
C993 C994 1.366 . S
C994 C993 1.366 . S
C994 C995 1.414 . S
C994 C997 1.499 . S
C995 H969 0.950 . S
C995 C994 1.414 . S
C995 C996 1.374 . S
C996 H970 0.950 . S
C996 C992 1.385 . S
C996 C995 1.374 . S
C997 C994 1.499 . S
C997 C998 1.373 . S
C997 C999 1.389 . S
C998 H971 0.950 . S
C998 C984 1.377 1_655 S
C998 C997 1.373 . S
C999 C983 1.377 1_655 S
C999 C997 1.389 . S
C999 C1000 1.524 . S
C1000 C999 1.524 . S
C1000 C1001 1.397 . S
C1000 C1005 1.363 . S
C1001 H972 0.950 . S
C1001 C1000 1.397 . S
C1001 C1002 1.334 . S
C1002 H973 0.950 . S
C1002 C1001 1.334 . S
C1002 C1003 1.287 . S
C1003 C1002 1.287 . S
C1003 C1004 1.524 . S
C1003 H1006 0.999 . S
C1004 H974 0.950 . S
C1004 C1003 1.524 . S
C1004 C1005 1.415 . S
C1005 H975 0.950 1_655 S
C1005 C1000 1.363 . S
C1005 C1004 1.415 . S
H1006 C1003 0.999 . S
H1007 C988 0.913 . S
H1008 C1026 0.951 . S
H1009 C1028 0.951 . S
H1010 C1030 0.950 . S
H1011 C1031 0.950 . S
H1012 C1033 0.950 . S
H1013 C1036 0.950 . S
H1014 C1037 0.950 1_565 S
H1015 C1039 0.950 . S
H1016 C1040 0.950 . S
H1017 C1041 0.951 . S
H1018 C1043 0.951 . S
H1019 C1045 0.950 . S
H1020 C1046 0.950 . S
H1021 C1048 0.950 . S
H1022 C1051 0.950 . S
H1023 C1052 0.950 . S
H1024 C1054 0.950 . S
H1025 C1055 0.950 . S
C1026 H1008 0.951 . S
C1026 C1027 1.366 1_545 S
C1026 C1028 1.388 . S
C1027 C1026 1.366 1_565 S
C1027 C1031 1.385 . S
C1028 H1009 0.951 . S
C1028 C1026 1.388 . S
C1028 C1029 1.366 . S
C1029 C1028 1.366 . S
C1029 C1030 1.414 1_545 S
C1029 C1032 1.499 . S
C1030 H1010 0.950 . S
C1030 C1029 1.414 1_565 S
C1030 C1031 1.374 . S
C1031 H1011 0.950 . S
C1031 C1027 1.385 . S
C1031 C1030 1.374 . S
C1032 C1029 1.499 . S
C1032 C1033 1.373 . S
C1032 C1034 1.389 . S
C1033 H1012 0.950 . S
C1033 C1032 1.373 . S
C1033 C1049 1.377 . S
C1034 C1032 1.389 . S
C1034 C1035 1.524 . S
C1034 C1048 1.377 . S
C1035 C1034 1.524 . S
C1035 C1036 1.397 . S
C1035 C1040 1.363 . S
C1036 H1013 0.950 . S
C1036 C1035 1.397 . S
C1036 C1037 1.334 . S
C1037 H1014 0.950 1_545 S
C1037 C1036 1.334 . S
C1037 C1038 1.287 . S
C1038 C1037 1.287 . S
C1038 C1039 1.524 . S
C1038 H1057 0.913 . S
C1039 H1015 0.950 . S
C1039 C1038 1.524 . S
C1039 C1040 1.415 . S
C1040 H1016 0.950 . S
C1040 C1035 1.363 . S
C1040 C1039 1.415 . S
C1041 H1017 0.951 . S
C1041 C1042 1.366 . S
C1041 C1043 1.388 . S
C1042 C1041 1.366 . S
C1042 C1046 1.385 . S
C1043 H1018 0.951 . S
C1043 C1041 1.388 . S
C1043 C1044 1.366 . S
C1044 C1043 1.366 . S
C1044 C1045 1.414 . S
C1044 C1047 1.499 . S
C1045 H1019 0.950 . S
C1045 C1044 1.414 . S
C1045 C1046 1.374 . S
C1046 H1020 0.950 . S
C1046 C1042 1.385 . S
C1046 C1045 1.374 . S
C1047 C1044 1.499 . S
C1047 C1048 1.373 . S
C1047 C1049 1.389 . S
C1048 H1021 0.950 . S
C1048 C1034 1.377 . S
C1048 C1047 1.373 . S
C1049 C1033 1.377 . S
C1049 C1047 1.389 . S
C1049 C1050 1.524 . S
C1050 C1049 1.524 . S
C1050 C1051 1.397 . S
C1050 C1055 1.363 . S
C1051 H1022 0.950 . S
C1051 C1050 1.397 . S
C1051 C1052 1.334 . S
C1052 H1023 0.950 . S
C1052 C1051 1.334 . S
C1052 C1053 1.287 . S
C1053 C1052 1.287 . S
C1053 C1054 1.524 . S
C1053 H1056 0.999 . S
C1054 H1024 0.950 . S
C1054 C1053 1.524 . S
C1054 C1055 1.415 . S
C1055 H1025 0.950 . S
C1055 C1050 1.363 . S
C1055 C1054 1.415 . S
H1056 C1053 0.999 . S
H1057 C1038 0.913 . S
H1058 C1076 0.951 . S
H1059 C1078 0.951 . S
H1060 C1080 0.950 . S
H1061 C1081 0.950 . S
H1062 C1083 0.950 . S
H1063 C1086 0.950 . S
H1064 C1087 0.950 . S
H1065 C1089 0.950 . S
H1066 C1090 0.950 . S
H1067 C1091 0.951 . S
H1068 C1093 0.951 . S
H1069 C1095 0.950 . S
H1070 C1096 0.950 . S
H1071 C1098 0.950 . S
H1072 C1101 0.950 . S
H1073 C1102 0.950 . S
H1074 C1104 0.950 . S
H1075 C1105 0.950 . S
C1076 H1058 0.951 . S
C1076 C1077 1.366 . S
C1076 C1078 1.388 . S
C1077 C1076 1.366 . S
C1077 C1081 1.385 . S
C1078 H1059 0.951 . S
C1078 C1076 1.388 . S
C1078 C1079 1.366 . S
C1079 C1078 1.366 . S
C1079 C1080 1.414 . S
C1079 C1082 1.499 . S
C1080 H1060 0.950 . S
C1080 C1079 1.414 . S
C1080 C1081 1.374 . S
C1081 H1061 0.950 . S
C1081 C1077 1.385 . S
C1081 C1080 1.374 . S
C1082 C1079 1.499 . S
C1082 C1083 1.373 . S
C1082 C1084 1.389 . S
C1083 H1062 0.950 . S
C1083 C1082 1.373 . S
C1083 C1099 1.377 . S
C1084 C1082 1.389 . S
C1084 C1085 1.524 . S
C1084 C1098 1.377 . S
C1085 C1084 1.524 . S
C1085 C1086 1.397 . S
C1085 C1090 1.363 . S
C1086 H1063 0.950 . S
C1086 C1085 1.397 . S
C1086 C1087 1.334 . S
C1087 H1064 0.950 . S
C1087 C1086 1.334 . S
C1087 C1088 1.287 . S
C1088 C1087 1.287 . S
C1088 C1089 1.524 . S
C1088 H1107 0.913 . S
C1089 H1065 0.950 . S
C1089 C1088 1.524 . S
C1089 C1090 1.415 . S
C1090 H1066 0.950 . S
C1090 C1085 1.363 . S
C1090 C1089 1.415 . S
C1091 H1067 0.951 . S
C1091 C1092 1.366 . S
C1091 C1093 1.388 . S
C1092 C1091 1.366 . S
C1092 C1096 1.385 . S
C1093 H1068 0.951 . S
C1093 C1091 1.388 . S
C1093 C1094 1.366 . S
C1094 C1093 1.366 . S
C1094 C1095 1.414 . S
C1094 C1097 1.499 . S
C1095 H1069 0.950 . S
C1095 C1094 1.414 . S
C1095 C1096 1.374 . S
C1096 H1070 0.950 . S
C1096 C1092 1.385 . S
C1096 C1095 1.374 . S
C1097 C1094 1.499 . S
C1097 C1098 1.373 . S
C1097 C1099 1.389 . S
C1098 H1071 0.950 . S
C1098 C1084 1.377 . S
C1098 C1097 1.373 . S
C1099 C1083 1.377 . S
C1099 C1097 1.389 . S
C1099 C1100 1.524 . S
C1100 C1099 1.524 . S
C1100 C1101 1.397 . S
C1100 C1105 1.363 . S
C1101 H1072 0.950 . S
C1101 C1100 1.397 . S
C1101 C1102 1.334 . S
C1102 H1073 0.950 . S
C1102 C1101 1.334 . S
C1102 C1103 1.287 . S
C1103 C1102 1.287 . S
C1103 C1104 1.524 . S
C1103 H1106 0.999 . S
C1104 H1074 0.950 . S
C1104 C1103 1.524 . S
C1104 C1105 1.415 . S
C1105 H1075 0.950 . S
C1105 C1100 1.363 . S
C1105 C1104 1.415 . S
H1106 C1103 0.999 . S
H1107 C1088 0.913 . S
H1108 C1126 0.951 . S
H1109 C1128 0.951 . S
H1110 C1130 0.950 . S
H1111 C1131 0.950 . S
H1112 C1133 0.950 . S
H1113 C1136 0.950 . S
H1114 C1137 0.950 . S
H1115 C1139 0.950 . S
H1116 C1140 0.950 . S
H1117 C1141 0.951 . S
H1118 C1143 0.968 . S
H1119 C1145 0.950 . S
H1120 C1146 0.950 . S
H1121 C1148 0.950 . S
H1122 C1151 0.950 . S
H1123 C1152 0.950 . S
H1124 C1154 0.950 . S
H1125 C1155 0.950 . S
C1126 H1108 0.951 . S
C1126 C1127 1.366 . S
C1126 C1128 1.388 . S
C1127 C1126 1.366 . S
C1127 C1131 1.385 . S
C1128 H1109 0.951 . S
C1128 C1126 1.388 . S
C1128 C1129 1.366 . S
C1129 C1128 1.366 . S
C1129 C1130 1.414 . S
C1129 C1132 1.499 . S
C1130 H1110 0.950 . S
C1130 C1129 1.414 . S
C1130 C1131 1.374 . S
C1131 H1111 0.950 . S
C1131 C1127 1.385 . S
C1131 C1130 1.374 . S
C1132 C1129 1.499 . S
C1132 C1133 1.373 . S
C1132 C1134 1.389 . S
C1133 H1112 0.950 . S
C1133 C1132 1.373 . S
C1133 C1149 1.377 . S
C1134 C1132 1.389 . S
C1134 C1135 1.524 . S
C1134 C1148 1.377 . S
C1135 C1134 1.524 . S
C1135 C1136 1.397 . S
C1135 C1140 1.363 . S
C1136 H1113 0.950 . S
C1136 C1135 1.397 . S
C1136 C1137 1.334 . S
C1137 H1114 0.950 . S
C1137 C1136 1.334 . S
C1137 C1138 1.287 . S
C1138 C1137 1.287 . S
C1138 C1139 1.524 . S
C1138 H1157 0.913 . S
C1139 H1115 0.950 . S
C1139 C1138 1.524 . S
C1139 C1140 1.415 . S
C1140 H1116 0.950 . S
C1140 C1135 1.363 . S
C1140 C1139 1.415 . S
C1141 H1117 0.951 . S
C1141 C1142 1.366 . S
C1141 C1143 1.414 . S
C1142 C1141 1.366 . S
C1142 C1146 1.385 1_455 S
C1143 H1118 0.968 . S
C1143 C1141 1.414 . S
C1143 C1144 1.324 1_455 S
C1144 C1143 1.324 1_655 S
C1144 C1145 1.414 . S
C1144 C1147 1.499 . S
C1145 H1119 0.950 . S
C1145 C1144 1.414 . S
C1145 C1146 1.374 . S
C1146 H1120 0.950 . S
C1146 C1142 1.385 1_655 S
C1146 C1145 1.374 . S
C1147 C1144 1.499 . S
C1147 C1148 1.373 . S
C1147 C1149 1.389 . S
C1148 H1121 0.950 . S
C1148 C1134 1.377 . S
C1148 C1147 1.373 . S
C1149 C1133 1.377 . S
C1149 C1147 1.389 . S
C1149 C1150 1.524 . S
C1150 C1149 1.524 . S
C1150 C1151 1.397 . S
C1150 C1155 1.363 . S
C1151 H1122 0.950 . S
C1151 C1150 1.397 . S
C1151 C1152 1.334 1_655 S
C1152 H1123 0.950 . S
C1152 C1151 1.334 1_455 S
C1152 C1153 1.287 . S
C1153 C1152 1.287 . S
C1153 C1154 1.524 . S
C1153 H1156 0.999 . S
C1154 H1124 0.950 . S
C1154 C1153 1.524 . S
C1154 C1155 1.415 1_455 S
C1155 H1125 0.950 . S
C1155 C1150 1.363 . S
C1155 C1154 1.415 1_655 S
H1156 C1153 0.999 . S
H1157 C1138 0.913 . S
H1158 C1176 0.951 . S
H1159 C1178 0.951 . S
H1160 C1180 0.952 . S
H1161 C1181 0.950 . S
H1162 C1183 0.950 . S
H1163 C1186 0.950 . S
H1164 C1187 0.950 . S
H1165 C1189 0.950 . S
H1166 C1190 0.950 . S
H1167 C1191 0.951 . S
H1168 C1193 0.951 . S
H1169 C1195 0.950 . S
H1170 C1196 0.950 . S
H1171 C1198 0.950 . S
H1172 C1201 0.950 . S
H1173 C1202 0.950 . S
H1174 C1204 0.950 . S
H1175 C1205 0.950 . S
C1176 H1158 0.951 . S
C1176 C1177 1.366 1_565 S
C1176 C1178 1.388 . S
C1177 C1176 1.366 1_545 S
C1177 C1181 1.385 . S
C1178 H1159 0.951 . S
C1178 C1176 1.388 . S
C1178 C1179 1.366 . S
C1179 C1178 1.366 . S
C1179 C1180 1.414 . S
C1179 C1182 1.499 . S
C1180 H1160 0.952 . S
C1180 C1179 1.414 . S
C1180 C1181 1.374 1_565 S
C1181 H1161 0.950 . S
C1181 C1177 1.385 . S
C1181 C1180 1.374 1_545 S
C1182 C1179 1.499 . S
C1182 C1183 1.373 . S
C1182 C1184 1.389 . S
C1183 H1162 0.950 . S
C1183 C1182 1.373 . S
C1183 C1199 1.377 . S
C1184 C1182 1.389 . S
C1184 C1185 1.524 . S
C1184 C1198 1.377 . S
C1185 C1184 1.524 . S
C1185 C1186 1.397 . S
C1185 C1190 1.363 . S
C1186 H1163 0.950 . S
C1186 C1185 1.397 . S
C1186 C1187 1.334 . S
C1187 H1164 0.950 . S
C1187 C1186 1.334 . S
C1187 C1188 1.287 . S
C1188 C1187 1.287 . S
C1188 C1189 1.524 . S
C1188 H1207 0.913 . S
C1189 H1165 0.950 . S
C1189 C1188 1.524 . S
C1189 C1190 1.415 . S
C1190 H1166 0.950 . S
C1190 C1185 1.363 . S
C1190 C1189 1.415 . S
C1191 H1167 0.951 . S
C1191 C1192 1.366 . S
C1191 C1193 1.388 . S
C1192 C1191 1.366 . S
C1192 C1196 1.385 . S
C1193 H1168 0.951 . S
C1193 C1191 1.388 . S
C1193 C1194 1.366 . S
C1194 C1193 1.366 . S
C1194 C1195 1.414 . S
C1194 C1197 1.499 . S
C1195 H1169 0.950 . S
C1195 C1194 1.414 . S
C1195 C1196 1.374 . S
C1196 H1170 0.950 . S
C1196 C1192 1.385 . S
C1196 C1195 1.374 . S
C1197 C1194 1.499 . S
C1197 C1198 1.373 . S
C1197 C1199 1.389 . S
C1198 H1171 0.950 . S
C1198 C1184 1.377 . S
C1198 C1197 1.373 . S
C1199 C1183 1.377 . S
C1199 C1197 1.389 . S
C1199 C1200 1.524 . S
C1200 C1199 1.524 . S
C1200 C1201 1.397 . S
C1200 C1205 1.363 . S
C1201 H1172 0.950 . S
C1201 C1200 1.397 . S
C1201 C1202 1.334 . S
C1202 H1173 0.950 . S
C1202 C1201 1.334 . S
C1202 C1203 1.287 . S
C1203 C1202 1.287 . S
C1203 C1204 1.524 . S
C1203 H1206 0.999 . S
C1204 H1174 0.950 . S
C1204 C1203 1.524 . S
C1204 C1205 1.415 . S
C1205 H1175 0.950 . S
C1205 C1200 1.363 . S
C1205 C1204 1.415 . S
H1206 C1203 0.999 . S
H1207 C1188 0.913 . S
H1208 C1226 0.951 . S
H1209 C1228 0.951 . S
H1210 C1230 0.950 1_554 S
H1211 C1231 0.950 . S
H1212 C1233 0.950 . S
H1213 C1236 0.950 . S
H1214 C1237 0.950 . S
H1215 C1239 0.950 . S
H1216 C1240 0.950 1_554 S
H1217 C1241 0.951 . S
H1218 C1243 0.951 . S
H1219 C1245 0.950 . S
H1220 C1246 0.950 . S
H1221 C1248 0.950 . S
H1222 C1251 0.950 . S
H1223 C1252 0.950 . S
H1224 C1254 0.950 . S
H1225 C1255 0.950 . S
C1226 H1208 0.951 . S
C1226 C1227 1.366 . S
C1226 C1228 1.388 . S
C1227 C1226 1.366 . S
C1227 C1231 1.385 . S
C1228 H1209 0.951 . S
C1228 C1226 1.388 . S
C1228 C1229 1.366 1_556 S
C1229 C1228 1.366 1_554 S
C1229 C1230 1.414 1_554 S
C1229 C1232 1.499 . S
C1230 H1210 0.950 1_556 S
C1230 C1229 1.414 1_556 S
C1230 C1231 1.374 . S
C1231 H1211 0.950 . S
C1231 C1227 1.385 . S
C1231 C1230 1.374 . S
C1232 C1229 1.499 . S
C1232 C1233 1.373 . S
C1232 C1234 1.389 . S
C1233 H1212 0.950 . S
C1233 C1232 1.373 . S
C1233 C1249 1.377 . S
C1234 C1232 1.389 . S
C1234 C1235 1.524 1_554 S
C1234 C1248 1.377 . S
C1235 C1234 1.524 1_556 S
C1235 C1236 1.397 . S
C1235 C1240 1.363 . S
C1236 H1213 0.950 . S
C1236 C1235 1.397 . S
C1236 C1237 1.334 . S
C1237 H1214 0.950 . S
C1237 C1236 1.334 . S
C1237 C1238 1.287 . S
C1238 C1237 1.287 . S
C1238 C1239 1.524 . S
C1238 H1257 0.913 . S
C1239 H1215 0.950 . S
C1239 C1238 1.524 . S
C1239 C1240 1.415 . S
C1240 H1216 0.950 1_556 S
C1240 C1235 1.363 . S
C1240 C1239 1.415 . S
C1241 H1217 0.951 . S
C1241 C1242 1.366 . S
C1241 C1243 1.388 . S
C1242 C1241 1.366 . S
C1242 C1246 1.385 . S
C1243 H1218 0.951 . S
C1243 C1241 1.388 . S
C1243 C1244 1.366 . S
C1244 C1243 1.366 . S
C1244 C1245 1.414 . S
C1244 C1247 1.499 . S
C1245 H1219 0.950 . S
C1245 C1244 1.414 . S
C1245 C1246 1.374 . S
C1246 H1220 0.950 . S
C1246 C1242 1.385 . S
C1246 C1245 1.374 . S
C1247 C1244 1.499 . S
C1247 C1248 1.373 . S
C1247 C1249 1.389 . S
C1248 H1221 0.950 . S
C1248 C1234 1.377 . S
C1248 C1247 1.373 . S
C1249 C1233 1.377 . S
C1249 C1247 1.389 . S
C1249 C1250 1.524 . S
C1250 C1249 1.524 . S
C1250 C1251 1.397 . S
C1250 C1255 1.363 . S
C1251 H1222 0.950 . S
C1251 C1250 1.397 . S
C1251 C1252 1.334 . S
C1252 H1223 0.950 . S
C1252 C1251 1.334 . S
C1252 C1253 1.287 . S
C1253 C1252 1.287 . S
C1253 C1254 1.524 . S
C1253 H1256 0.999 . S
C1254 H1224 0.950 . S
C1254 C1253 1.524 . S
C1254 C1255 1.415 . S
C1255 H1225 0.950 . S
C1255 C1250 1.363 . S
C1255 C1254 1.415 . S
H1256 C1253 0.999 . S
H1257 C1238 0.913 . S
H1258 C1276 0.951 . S
H1259 C1278 0.951 . S
H1260 C1280 0.950 . S
H1261 C1281 0.950 . S
H1262 C1283 0.950 . S
H1263 C1286 0.950 . S
H1264 C1287 0.950 . S
H1265 C1289 0.950 . S
H1266 C1290 0.950 . S
H1267 C1291 0.951 . S
H1268 C1293 0.951 . S
H1269 C1295 0.950 . S
H1270 C1296 0.950 . S
H1271 C1298 0.950 . S
H1272 C1301 0.950 . S
H1273 C1302 0.950 . S
H1274 C1304 0.950 . S
H1275 C1305 0.950 . S
C1276 H1258 0.951 . S
C1276 C1277 1.366 1_455 S
C1276 C1278 1.388 . S
C1277 C1276 1.366 1_655 S
C1277 C1281 1.385 . S
C1278 H1259 0.951 . S
C1278 C1276 1.388 . S
C1278 C1279 1.366 . S
C1279 C1278 1.366 . S
C1279 C1280 1.414 1_455 S
C1279 C1282 1.499 . S
C1280 H1260 0.950 . S
C1280 C1279 1.414 1_655 S
C1280 C1281 1.374 . S
C1281 H1261 0.950 . S
C1281 C1277 1.385 . S
C1281 C1280 1.374 . S
C1282 C1279 1.499 . S
C1282 C1283 1.373 . S
C1282 C1284 1.389 . S
C1283 H1262 0.950 . S
C1283 C1282 1.373 . S
C1283 C1299 1.377 . S
C1284 C1282 1.389 . S
C1284 C1285 1.524 . S
C1284 C1298 1.377 . S
C1285 C1284 1.524 . S
C1285 C1286 1.397 . S
C1285 C1290 1.363 . S
C1286 H1263 0.950 . S
C1286 C1285 1.397 . S
C1286 C1287 1.334 . S
C1287 H1264 0.950 . S
C1287 C1286 1.334 . S
C1287 C1288 1.287 . S
C1288 C1287 1.287 . S
C1288 C1289 1.524 . S
C1288 H1307 0.913 . S
C1289 H1265 0.950 . S
C1289 C1288 1.524 . S
C1289 C1290 1.415 . S
C1290 H1266 0.950 . S
C1290 C1285 1.363 . S
C1290 C1289 1.415 . S
C1291 H1267 0.951 . S
C1291 C1292 1.366 . S
C1291 C1293 1.388 . S
C1292 C1291 1.366 . S
C1292 C1296 1.385 . S
C1293 H1268 0.951 . S
C1293 C1291 1.388 . S
C1293 C1294 1.366 . S
C1294 C1293 1.366 . S
C1294 C1295 1.414 . S
C1294 C1297 1.499 . S
C1295 H1269 0.950 . S
C1295 C1294 1.414 . S
C1295 C1296 1.374 . S
C1296 H1270 0.950 . S
C1296 C1292 1.385 . S
C1296 C1295 1.374 . S
C1297 C1294 1.499 . S
C1297 C1298 1.373 . S
C1297 C1299 1.389 . S
C1298 H1271 0.950 . S
C1298 C1284 1.377 . S
C1298 C1297 1.373 . S
C1299 C1283 1.377 . S
C1299 C1297 1.389 . S
C1299 C1300 1.524 . S
C1300 C1299 1.524 . S
C1300 C1301 1.397 . S
C1300 C1305 1.363 . S
C1301 H1272 0.950 . S
C1301 C1300 1.397 . S
C1301 C1302 1.334 . S
C1302 H1273 0.950 . S
C1302 C1301 1.334 . S
C1302 C1303 1.287 . S
C1303 C1302 1.287 . S
C1303 C1304 1.524 . S
C1303 H1306 0.999 . S
C1304 H1274 0.950 . S
C1304 C1303 1.524 . S
C1304 C1305 1.415 . S
C1305 H1275 0.950 . S
C1305 C1300 1.363 . S
C1305 C1304 1.415 . S
H1306 C1303 0.999 . S
H1307 C1288 0.913 . S
H1308 C1326 0.951 . S
H1309 C1328 0.951 . S
H1310 C1330 0.950 . S
H1311 C1331 0.950 . S
H1312 C1333 0.950 . S
H1313 C1336 0.950 . S
H1314 C1337 0.950 . S
H1315 C1339 0.950 . S
H1316 C1340 0.950 . S
H1317 C1341 0.951 . S
H1318 C1343 0.951 . S
H1319 C1345 0.950 . S
H1320 C1346 0.950 . S
H1321 C1348 0.950 . S
H1322 C1351 0.950 . S
H1323 C1352 0.950 . S
H1324 C1354 0.950 . S
H1325 C1355 0.950 . S
C1326 H1308 0.951 . S
C1326 C1327 1.366 1_655 S
C1326 C1328 1.388 . S
C1327 C1326 1.366 1_455 S
C1327 C1331 1.385 . S
C1328 H1309 0.951 . S
C1328 C1326 1.388 . S
C1328 C1329 1.366 . S
C1329 C1328 1.366 . S
C1329 C1330 1.414 1_655 S
C1329 C1332 1.499 . S
C1330 H1310 0.950 . S
C1330 C1329 1.414 1_455 S
C1330 C1331 1.374 . S
C1331 H1311 0.950 . S
C1331 C1327 1.385 . S
C1331 C1330 1.374 . S
C1332 C1329 1.499 . S
C1332 C1333 1.373 . S
C1332 C1334 1.389 . S
C1333 H1312 0.950 . S
C1333 C1332 1.373 . S
C1333 C1349 1.377 . S
C1334 C1332 1.389 . S
C1334 C1335 1.524 . S
C1334 C1348 1.377 . S
C1335 C1334 1.524 . S
C1335 C1336 1.397 . S
C1335 C1340 1.363 . S
C1336 H1313 0.950 . S
C1336 C1335 1.397 . S
C1336 C1337 1.334 . S
C1337 H1314 0.950 . S
C1337 C1336 1.334 . S
C1337 C1338 1.287 . S
C1338 C1337 1.287 . S
C1338 C1339 1.524 . S
C1338 H1357 0.913 . S
C1339 H1315 0.950 . S
C1339 C1338 1.524 . S
C1339 C1340 1.415 . S
C1340 H1316 0.950 . S
C1340 C1335 1.363 . S
C1340 C1339 1.415 . S
C1341 H1317 0.951 . S
C1341 C1342 1.366 . S
C1341 C1343 1.388 . S
C1342 C1341 1.366 . S
C1342 C1346 1.385 . S
C1343 H1318 0.951 . S
C1343 C1341 1.388 . S
C1343 C1344 1.366 . S
C1344 C1343 1.366 . S
C1344 C1345 1.414 . S
C1344 C1347 1.499 . S
C1345 H1319 0.950 . S
C1345 C1344 1.414 . S
C1345 C1346 1.374 . S
C1346 H1320 0.950 . S
C1346 C1342 1.385 . S
C1346 C1345 1.374 . S
C1347 C1344 1.499 . S
C1347 C1348 1.373 . S
C1347 C1349 1.389 . S
C1348 H1321 0.950 . S
C1348 C1334 1.377 . S
C1348 C1347 1.373 . S
C1349 C1333 1.377 . S
C1349 C1347 1.389 . S
C1349 C1350 1.524 . S
C1350 C1349 1.524 . S
C1350 C1351 1.397 . S
C1350 C1355 1.363 . S
C1351 H1322 0.950 . S
C1351 C1350 1.397 . S
C1351 C1352 1.334 . S
C1352 H1323 0.950 . S
C1352 C1351 1.334 . S
C1352 C1353 1.287 . S
C1353 C1352 1.287 . S
C1353 C1354 1.524 . S
C1353 H1356 0.999 . S
C1354 H1324 0.950 . S
C1354 C1353 1.524 . S
C1354 C1355 1.415 . S
C1355 H1325 0.950 . S
C1355 C1350 1.363 . S
C1355 C1354 1.415 . S
H1356 C1353 0.999 . S
H1357 C1338 0.913 . S
H1358 C1376 0.951 . S
H1359 C1378 0.951 . S
H1360 C1380 0.950 . S
H1361 C1381 0.950 . S
H1362 C1383 0.950 . S
H1363 C1386 0.950 . S
H1364 C1387 0.950 . S
H1365 C1389 0.950 . S
H1366 C1390 0.950 . S
H1367 C1391 0.951 . S
H1368 C1393 0.951 . S
H1369 C1395 0.950 . S
H1370 C1396 0.951 1_545 S
H1371 C1398 0.950 . S
H1372 C1401 0.950 . S
H1373 C1402 0.950 . S
H1374 C1404 0.950 . S
H1375 C1405 0.950 . S
C1376 H1358 0.951 . S
C1376 C1377 1.366 . S
C1376 C1378 1.388 . S
C1377 C1376 1.366 . S
C1377 C1381 1.385 . S
C1378 H1359 0.951 . S
C1378 C1376 1.388 . S
C1378 C1379 1.366 . S
C1379 C1378 1.366 . S
C1379 C1380 1.414 . S
C1379 C1382 1.499 . S
C1380 H1360 0.950 . S
C1380 C1379 1.414 . S
C1380 C1381 1.374 . S
C1381 H1361 0.950 . S
C1381 C1377 1.385 . S
C1381 C1380 1.374 . S
C1382 C1379 1.499 . S
C1382 C1383 1.373 . S
C1382 C1384 1.389 . S
C1383 H1362 0.950 . S
C1383 C1382 1.373 . S
C1383 C1399 1.377 . S
C1384 C1382 1.389 . S
C1384 C1385 1.524 . S
C1384 C1398 1.377 . S
C1385 C1384 1.524 . S
C1385 C1386 1.397 . S
C1385 C1390 1.363 . S
C1386 H1363 0.950 . S
C1386 C1385 1.397 . S
C1386 C1387 1.334 . S
C1387 H1364 0.950 . S
C1387 C1386 1.334 . S
C1387 C1388 1.287 . S
C1388 C1387 1.287 . S
C1388 C1389 1.524 . S
C1388 H1407 0.913 . S
C1389 H1365 0.950 . S
C1389 C1388 1.524 . S
C1389 C1390 1.415 . S
C1390 H1366 0.950 . S
C1390 C1385 1.363 . S
C1390 C1389 1.415 . S
C1391 H1367 0.951 . S
C1391 C1392 1.366 . S
C1391 C1393 1.388 1_545 S
C1392 C1391 1.366 . S
C1392 C1396 1.385 1_545 S
C1393 H1368 0.951 . S
C1393 C1391 1.388 1_565 S
C1393 C1394 1.366 . S
C1394 C1393 1.366 . S
C1394 C1395 1.414 . S
C1394 C1397 1.499 . S
C1395 H1369 0.950 . S
C1395 C1394 1.414 . S
C1395 C1396 1.374 . S
C1396 H1370 0.951 1_565 S
C1396 C1392 1.385 1_565 S
C1396 C1395 1.374 . S
C1397 C1394 1.499 . S
C1397 C1398 1.373 . S
C1397 C1399 1.389 . S
C1398 H1371 0.950 . S
C1398 C1384 1.377 . S
C1398 C1397 1.373 . S
C1399 C1383 1.377 . S
C1399 C1397 1.389 . S
C1399 C1400 1.524 . S
C1400 C1399 1.524 . S
C1400 C1401 1.397 . S
C1400 C1405 1.363 . S
C1401 H1372 0.950 . S
C1401 C1400 1.397 . S
C1401 C1402 1.334 . S
C1402 H1373 0.950 . S
C1402 C1401 1.334 . S
C1402 C1403 1.287 . S
C1403 C1402 1.287 . S
C1403 C1404 1.524 . S
C1403 H1406 0.999 . S
C1404 H1374 0.950 . S
C1404 C1403 1.524 . S
C1404 C1405 1.415 . S
C1405 H1375 0.950 . S
C1405 C1400 1.363 . S
C1405 C1404 1.415 . S
H1406 C1403 0.999 . S
H1407 C1388 0.913 . S
H1408 C1426 0.951 . S
H1409 C1428 0.951 . S
H1410 C1430 0.950 . S
H1411 C1431 0.950 . S
H1412 C1433 0.950 . S
H1413 C1436 0.950 . S
H1414 C1437 0.950 . S
H1415 C1439 0.950 . S
H1416 C1440 0.950 . S
H1417 C1441 0.951 . S
H1418 C1443 0.951 . S
H1419 C1445 0.950 . S
H1420 C1446 0.950 . S
H1421 C1448 0.950 . S
H1422 C1451 0.950 . S
H1423 C1452 0.950 . S
H1424 C1454 0.950 . S
H1425 C1455 0.950 . S
C1426 H1408 0.951 . S
C1426 C1427 1.366 . S
C1426 C1428 1.388 . S
C1427 C1426 1.366 . S
C1427 C1431 1.385 . S
C1428 H1409 0.951 . S
C1428 C1426 1.388 . S
C1428 C1429 1.366 . S
C1429 C1428 1.366 . S
C1429 C1430 1.414 . S
C1429 C1432 1.499 . S
C1430 H1410 0.950 . S
C1430 C1429 1.414 . S
C1430 C1431 1.374 . S
C1431 H1411 0.950 . S
C1431 C1427 1.385 . S
C1431 C1430 1.374 . S
C1432 C1429 1.499 . S
C1432 C1433 1.373 . S
C1432 C1434 1.389 . S
C1433 H1412 0.950 . S
C1433 C1432 1.373 . S
C1433 C1449 1.377 . S
C1434 C1432 1.389 . S
C1434 C1435 1.524 . S
C1434 C1448 1.377 . S
C1435 C1434 1.524 . S
C1435 C1436 1.397 . S
C1435 C1440 1.363 . S
C1436 H1413 0.950 . S
C1436 C1435 1.397 . S
C1436 C1437 1.334 . S
C1437 H1414 0.950 . S
C1437 C1436 1.334 . S
C1437 C1438 1.287 . S
C1438 C1437 1.287 . S
C1438 C1439 1.524 . S
C1438 H1457 0.913 . S
C1439 H1415 0.950 . S
C1439 C1438 1.524 . S
C1439 C1440 1.415 . S
C1440 H1416 0.950 . S
C1440 C1435 1.363 . S
C1440 C1439 1.415 . S
C1441 H1417 0.951 . S
C1441 C1442 1.366 . S
C1441 C1443 1.388 . S
C1442 C1441 1.366 . S
C1442 C1446 1.385 . S
C1443 H1418 0.951 . S
C1443 C1441 1.388 . S
C1443 C1444 1.366 . S
C1444 C1443 1.366 . S
C1444 C1445 1.414 . S
C1444 C1447 1.499 . S
C1445 H1419 0.950 . S
C1445 C1444 1.414 . S
C1445 C1446 1.374 . S
C1446 H1420 0.950 . S
C1446 C1442 1.385 . S
C1446 C1445 1.374 . S
C1447 C1444 1.499 . S
C1447 C1448 1.373 . S
C1447 C1449 1.389 . S
C1448 H1421 0.950 . S
C1448 C1434 1.377 . S
C1448 C1447 1.373 . S
C1449 C1433 1.377 . S
C1449 C1447 1.389 . S
C1449 C1450 1.524 . S
C1450 C1449 1.524 . S
C1450 C1451 1.397 . S
C1450 C1455 1.363 . S
C1451 H1422 0.950 . S
C1451 C1450 1.397 . S
C1451 C1452 1.334 . S
C1452 H1423 0.950 . S
C1452 C1451 1.334 . S
C1452 C1453 1.287 . S
C1453 C1452 1.287 . S
C1453 C1454 1.524 . S
C1453 H1456 0.999 . S
C1454 H1424 0.950 . S
C1454 C1453 1.524 . S
C1454 C1455 1.415 . S
C1455 H1425 0.950 . S
C1455 C1450 1.363 . S
C1455 C1454 1.415 . S
H1456 C1453 0.999 . S
H1457 C1438 0.913 . S
H1458 C1476 0.951 . S
H1459 C1478 0.951 . S
H1460 C1480 0.973 . S
H1461 C1481 0.950 . S
H1462 C1483 0.950 . S
H1463 C1486 0.950 . S
H1464 C1487 0.950 . S
H1465 C1489 0.950 . S
H1466 C1490 0.950 . S
H1467 C1491 0.951 . S
H1468 C1493 0.951 . S
H1469 C1495 0.950 . S
H1470 C1496 0.950 . S
H1471 C1498 0.950 . S
H1472 C1501 0.950 . S
H1473 C1502 0.950 . S
H1474 C1504 0.950 . S
H1475 C1505 0.950 . S
C1476 H1458 0.951 . S
C1476 C1477 1.366 . S
C1476 C1478 1.388 1_655 S
C1477 C1476 1.366 . S
C1477 C1481 1.385 . S
C1478 H1459 0.951 . S
C1478 C1476 1.388 1_455 S
C1478 C1479 1.366 1_554 S
C1479 C1478 1.366 1_556 S
C1479 C1480 1.419 . S
C1479 C1482 1.499 . S
C1480 H1460 0.973 . S
C1480 C1479 1.419 . S
C1480 C1481 1.348 1_456 S
C1481 H1461 0.950 . S
C1481 C1477 1.385 . S
C1481 C1480 1.348 1_654 S
C1482 C1479 1.499 . S
C1482 C1483 1.373 . S
C1482 C1484 1.389 . S
C1483 H1462 0.950 . S
C1483 C1482 1.373 . S
C1483 C1499 1.377 . S
C1484 C1482 1.389 . S
C1484 C1485 1.524 1_556 S
C1484 C1498 1.377 . S
C1485 C1484 1.524 1_554 S
C1485 C1486 1.397 . S
C1485 C1490 1.363 . S
C1486 H1463 0.950 . S
C1486 C1485 1.397 . S
C1486 C1487 1.334 . S
C1487 H1464 0.950 . S
C1487 C1486 1.334 . S
C1487 C1488 1.287 . S
C1488 C1487 1.287 . S
C1488 C1489 1.524 . S
C1488 H1507 0.913 . S
C1489 H1465 0.950 . S
C1489 C1488 1.524 . S
C1489 C1490 1.415 . S
C1490 H1466 0.950 . S
C1490 C1485 1.363 . S
C1490 C1489 1.415 . S
C1491 H1467 0.951 . S
C1491 C1492 1.366 . S
C1491 C1493 1.388 . S
C1492 C1491 1.366 . S
C1492 C1496 1.385 . S
C1493 H1468 0.951 . S
C1493 C1491 1.388 . S
C1493 C1494 1.366 . S
C1494 C1493 1.366 . S
C1494 C1495 1.414 . S
C1494 C1497 1.499 . S
C1495 H1469 0.950 . S
C1495 C1494 1.414 . S
C1495 C1496 1.374 . S
C1496 H1470 0.950 . S
C1496 C1492 1.385 . S
C1496 C1495 1.374 . S
C1497 C1494 1.499 . S
C1497 C1498 1.373 . S
C1497 C1499 1.389 . S
C1498 H1471 0.950 . S
C1498 C1484 1.377 . S
C1498 C1497 1.373 . S
C1499 C1483 1.377 . S
C1499 C1497 1.389 . S
C1499 C1500 1.524 . S
C1500 C1499 1.524 . S
C1500 C1501 1.397 . S
C1500 C1505 1.363 . S
C1501 H1472 0.950 . S
C1501 C1500 1.397 . S
C1501 C1502 1.334 . S
C1502 H1473 0.950 . S
C1502 C1501 1.334 . S
C1502 C1503 1.287 . S
C1503 C1502 1.287 . S
C1503 C1504 1.524 . S
C1503 H1506 0.999 . S
C1504 H1474 0.950 . S
C1504 C1503 1.524 . S
C1504 C1505 1.415 . S
C1505 H1475 0.950 . S
C1505 C1500 1.363 . S
C1505 C1504 1.415 . S
H1506 C1503 0.999 . S
H1507 C1488 0.913 . S
H1508 C1526 0.951 . S
H1509 C1528 0.951 . S
H1510 C1530 0.950 . S
H1511 C1531 0.950 . S
H1512 C1533 0.950 . S
H1513 C1536 0.950 . S
H1514 C1537 0.950 . S
H1515 C1539 0.950 . S
H1516 C1540 0.950 . S
H1517 C1541 0.951 . S
H1518 C1543 0.951 . S
H1519 C1545 0.950 . S
H1520 C1546 0.950 . S
H1521 C1548 0.950 . S
H1522 C1551 0.950 . S
H1523 C1552 0.950 . S
H1524 C1554 0.950 . S
H1525 C1555 0.950 . S
C1526 H1508 0.951 . S
C1526 C1527 1.366 . S
C1526 C1528 1.388 . S
C1527 C1526 1.366 . S
C1527 C1531 1.385 1_565 S
C1528 H1509 0.951 . S
C1528 C1526 1.388 . S
C1528 C1529 1.366 1_565 S
C1529 C1528 1.366 1_545 S
C1529 C1530 1.414 . S
C1529 C1532 1.499 . S
C1530 H1510 0.950 . S
C1530 C1529 1.414 . S
C1530 C1531 1.374 . S
C1531 H1511 0.950 . S
C1531 C1527 1.385 1_545 S
C1531 C1530 1.374 . S
C1532 C1529 1.499 . S
C1532 C1533 1.373 . S
C1532 C1534 1.389 . S
C1533 H1512 0.950 . S
C1533 C1532 1.373 . S
C1533 C1549 1.377 . S
C1534 C1532 1.389 . S
C1534 C1535 1.524 . S
C1534 C1548 1.377 . S
C1535 C1534 1.524 . S
C1535 C1536 1.397 . S
C1535 C1540 1.363 . S
C1536 H1513 0.950 . S
C1536 C1535 1.397 . S
C1536 C1537 1.334 1_545 S
C1537 H1514 0.950 . S
C1537 C1536 1.334 1_565 S
C1537 C1538 1.287 . S
C1538 C1537 1.287 . S
C1538 C1539 1.524 . S
C1538 H1557 0.913 . S
C1539 H1515 0.950 . S
C1539 C1538 1.524 . S
C1539 C1540 1.415 1_565 S
C1540 H1516 0.950 . S
C1540 C1535 1.363 . S
C1540 C1539 1.415 1_545 S
C1541 H1517 0.951 . S
C1541 C1542 1.366 . S
C1541 C1543 1.388 . S
C1542 C1541 1.366 . S
C1542 C1546 1.385 . S
C1543 H1518 0.951 . S
C1543 C1541 1.388 . S
C1543 C1544 1.366 . S
C1544 C1543 1.366 . S
C1544 C1545 1.414 . S
C1544 C1547 1.499 . S
C1545 H1519 0.950 . S
C1545 C1544 1.414 . S
C1545 C1546 1.374 . S
C1546 H1520 0.950 . S
C1546 C1542 1.385 . S
C1546 C1545 1.374 . S
C1547 C1544 1.499 . S
C1547 C1548 1.373 . S
C1547 C1549 1.389 . S
C1548 H1521 0.950 . S
C1548 C1534 1.377 . S
C1548 C1547 1.373 . S
C1549 C1533 1.377 . S
C1549 C1547 1.389 . S
C1549 C1550 1.524 . S
C1550 C1549 1.524 . S
C1550 C1551 1.397 . S
C1550 C1555 1.363 . S
C1551 H1522 0.950 . S
C1551 C1550 1.397 . S
C1551 C1552 1.334 . S
C1552 H1523 0.950 . S
C1552 C1551 1.334 . S
C1552 C1553 1.287 . S
C1553 C1552 1.287 . S
C1553 C1554 1.524 . S
C1553 H1556 0.999 . S
C1554 H1524 0.950 . S
C1554 C1553 1.524 . S
C1554 C1555 1.415 . S
C1555 H1525 0.950 . S
C1555 C1550 1.363 . S
C1555 C1554 1.415 . S
H1556 C1553 0.999 . S
H1557 C1538 0.913 . S
H1558 C1576 0.951 . S
H1559 C1578 0.951 . S
H1560 C1580 0.950 . S
H1561 C1581 0.950 . S
H1562 C1583 0.950 . S
H1563 C1586 0.950 . S
H1564 C1587 0.950 . S
H1565 C1589 0.950 . S
H1566 C1590 0.950 . S
H1567 C1591 0.951 . S
H1568 C1593 0.951 . S
H1569 C1595 0.950 . S
H1570 C1596 0.950 . S
H1571 C1598 0.950 . S
H1572 C1601 0.950 . S
H1573 C1602 0.950 . S
H1574 C1604 0.950 . S
H1575 C1605 0.950 . S
C1576 H1558 0.951 . S
C1576 C1577 1.366 . S
C1576 C1578 1.388 . S
C1577 C1576 1.366 . S
C1577 C1581 1.385 . S
C1578 H1559 0.951 . S
C1578 C1576 1.388 . S
C1578 C1579 1.366 . S
C1579 C1578 1.366 . S
C1579 C1580 1.414 . S
C1579 C1582 1.499 . S
C1580 H1560 0.950 . S
C1580 C1579 1.414 . S
C1580 C1581 1.374 . S
C1581 H1561 0.950 . S
C1581 C1577 1.385 . S
C1581 C1580 1.374 . S
C1582 C1579 1.499 . S
C1582 C1583 1.373 . S
C1582 C1584 1.389 . S
C1583 H1562 0.950 . S
C1583 C1582 1.373 . S
C1583 C1599 1.377 . S
C1584 C1582 1.389 . S
C1584 C1585 1.524 . S
C1584 C1598 1.377 . S
C1585 C1584 1.524 . S
C1585 C1586 1.397 . S
C1585 C1590 1.363 . S
C1586 H1563 0.950 . S
C1586 C1585 1.397 . S
C1586 C1587 1.334 . S
C1587 H1564 0.950 . S
C1587 C1586 1.334 . S
C1587 C1588 1.287 . S
C1588 C1587 1.287 . S
C1588 C1589 1.524 . S
C1588 H1607 0.913 . S
C1589 H1565 0.950 . S
C1589 C1588 1.524 . S
C1589 C1590 1.415 . S
C1590 H1566 0.950 . S
C1590 C1585 1.363 . S
C1590 C1589 1.415 . S
C1591 H1567 0.951 . S
C1591 C1592 1.366 . S
C1591 C1593 1.388 . S
C1592 C1591 1.366 . S
C1592 C1596 1.385 . S
C1593 H1568 0.951 . S
C1593 C1591 1.388 . S
C1593 C1594 1.366 . S
C1594 C1593 1.366 . S
C1594 C1595 1.414 . S
C1594 C1597 1.499 . S
C1595 H1569 0.950 . S
C1595 C1594 1.414 . S
C1595 C1596 1.374 . S
C1596 H1570 0.950 . S
C1596 C1592 1.385 . S
C1596 C1595 1.374 . S
C1597 C1594 1.499 . S
C1597 C1598 1.373 . S
C1597 C1599 1.389 . S
C1598 H1571 0.950 . S
C1598 C1584 1.377 . S
C1598 C1597 1.373 . S
C1599 C1583 1.377 . S
C1599 C1597 1.389 . S
C1599 C1600 1.524 . S
C1600 C1599 1.524 . S
C1600 C1601 1.397 . S
C1600 C1605 1.363 . S
C1601 H1572 0.950 . S
C1601 C1600 1.397 . S
C1601 C1602 1.334 . S
C1602 H1573 0.950 . S
C1602 C1601 1.334 . S
C1602 C1603 1.287 . S
C1603 C1602 1.287 . S
C1603 C1604 1.524 . S
C1603 H1606 0.999 . S
C1604 H1574 0.950 . S
C1604 C1603 1.524 . S
C1604 C1605 1.415 . S
C1605 H1575 0.950 . S
C1605 C1600 1.363 . S
C1605 C1604 1.415 . S
H1606 C1603 0.999 . S
H1607 C1588 0.913 . S
H1608 C1626 0.951 . S
H1609 C1628 0.951 . S
H1610 C1630 0.950 . S
H1611 C1631 0.950 . S
H1612 C1633 0.950 . S
H1613 C1636 0.950 . S
H1614 C1637 0.950 . S
H1615 C1639 0.950 . S
H1616 C1640 0.950 . S
H1617 C1641 0.951 . S
H1618 C1643 0.951 . S
H1619 C1645 0.950 . S
H1620 C1646 0.950 . S
H1621 C1648 0.950 . S
H1622 C1651 0.950 . S
H1623 C1652 0.950 . S
H1624 C1654 0.950 . S
H1625 C1655 0.950 . S
C1626 H1608 0.951 . S
C1626 C1627 1.366 . S
C1626 C1628 1.388 . S
C1627 C1626 1.366 . S
C1627 C1631 1.385 . S
C1628 H1609 0.951 . S
C1628 C1626 1.388 . S
C1628 C1629 1.366 . S
C1629 C1628 1.366 . S
C1629 C1630 1.414 . S
C1629 C1632 1.499 . S
C1630 H1610 0.950 . S
C1630 C1629 1.414 . S
C1630 C1631 1.374 . S
C1631 H1611 0.950 . S
C1631 C1627 1.385 . S
C1631 C1630 1.374 . S
C1632 C1629 1.499 . S
C1632 C1633 1.373 . S
C1632 C1634 1.389 . S
C1633 H1612 0.950 . S
C1633 C1632 1.373 . S
C1633 C1649 1.377 . S
C1634 C1632 1.389 . S
C1634 C1635 1.524 . S
C1634 C1648 1.377 . S
C1635 C1634 1.524 . S
C1635 C1636 1.397 . S
C1635 C1640 1.363 . S
C1636 H1613 0.950 . S
C1636 C1635 1.397 . S
C1636 C1637 1.334 . S
C1637 H1614 0.950 . S
C1637 C1636 1.334 . S
C1637 C1638 1.287 . S
C1638 C1637 1.287 . S
C1638 C1639 1.524 . S
C1638 H1657 0.913 . S
C1639 H1615 0.950 . S
C1639 C1638 1.524 . S
C1639 C1640 1.415 . S
C1640 H1616 0.950 . S
C1640 C1635 1.363 . S
C1640 C1639 1.415 . S
C1641 H1617 0.951 . S
C1641 C1642 1.366 . S
C1641 C1643 1.388 . S
C1642 C1641 1.366 . S
C1642 C1646 1.385 . S
C1643 H1618 0.951 . S
C1643 C1641 1.388 . S
C1643 C1644 1.366 . S
C1644 C1643 1.366 . S
C1644 C1645 1.414 . S
C1644 C1647 1.499 . S
C1645 H1619 0.950 . S
C1645 C1644 1.414 . S
C1645 C1646 1.374 . S
C1646 H1620 0.950 . S
C1646 C1642 1.385 . S
C1646 C1645 1.374 . S
C1647 C1644 1.499 . S
C1647 C1648 1.373 . S
C1647 C1649 1.389 . S
C1648 H1621 0.950 . S
C1648 C1634 1.377 . S
C1648 C1647 1.373 . S
C1649 C1633 1.377 . S
C1649 C1647 1.389 . S
C1649 C1650 1.524 . S
C1650 C1649 1.524 . S
C1650 C1651 1.397 . S
C1650 C1655 1.363 . S
C1651 H1622 0.950 . S
C1651 C1650 1.397 . S
C1651 C1652 1.334 . S
C1652 H1623 0.950 . S
C1652 C1651 1.334 . S
C1652 C1653 1.287 . S
C1653 C1652 1.287 . S
C1653 C1654 1.524 . S
C1653 H1656 0.999 . S
C1654 H1624 0.950 . S
C1654 C1653 1.524 . S
C1654 C1655 1.415 . S
C1655 H1625 0.950 . S
C1655 C1650 1.363 . S
C1655 C1654 1.415 . S
H1656 C1653 0.999 . S
H1657 C1638 0.913 . S
H1658 C1676 0.951 . S
H1659 C1678 0.951 . S
H1660 C1680 0.950 . S
H1661 C1681 0.950 . S
H1662 C1683 0.950 . S
H1663 C1686 0.950 . S
H1664 C1687 0.950 . S
H1665 C1689 0.950 . S
H1666 C1690 0.950 . S
H1667 C1691 0.951 . S
H1668 C1693 0.951 . S
H1669 C1695 0.950 . S
H1670 C1696 0.950 . S
H1671 C1698 0.950 . S
H1672 C1701 0.950 . S
H1673 C1702 0.950 . S
H1674 C1704 0.950 . S
H1675 C1705 0.950 . S
C1676 H1658 0.951 . S
C1676 C1677 1.366 . S
C1676 C1678 1.388 . S
C1677 C1676 1.366 . S
C1677 C1681 1.385 . S
C1678 H1659 0.951 . S
C1678 C1676 1.388 . S
C1678 C1679 1.366 . S
C1679 C1678 1.366 . S
C1679 C1680 1.414 . S
C1679 C1682 1.499 . S
C1680 H1660 0.950 . S
C1680 C1679 1.414 . S
C1680 C1681 1.374 . S
C1681 H1661 0.950 . S
C1681 C1677 1.385 . S
C1681 C1680 1.374 . S
C1682 C1679 1.499 . S
C1682 C1683 1.373 . S
C1682 C1684 1.389 . S
C1683 H1662 0.950 . S
C1683 C1682 1.373 . S
C1683 C1699 1.377 . S
C1684 C1682 1.389 . S
C1684 C1685 1.524 . S
C1684 C1698 1.377 . S
C1685 C1684 1.524 . S
C1685 C1686 1.397 . S
C1685 C1690 1.363 . S
C1686 H1663 0.950 . S
C1686 C1685 1.397 . S
C1686 C1687 1.334 . S
C1687 H1664 0.950 . S
C1687 C1686 1.334 . S
C1687 C1688 1.287 . S
C1688 C1687 1.287 . S
C1688 C1689 1.524 . S
C1688 H1707 0.913 . S
C1689 H1665 0.950 . S
C1689 C1688 1.524 . S
C1689 C1690 1.415 . S
C1690 H1666 0.950 . S
C1690 C1685 1.363 . S
C1690 C1689 1.415 . S
C1691 H1667 0.951 . S
C1691 C1692 1.366 . S
C1691 C1693 1.388 . S
C1692 C1691 1.366 . S
C1692 C1696 1.385 . S
C1693 H1668 0.951 . S
C1693 C1691 1.388 . S
C1693 C1694 1.366 . S
C1694 C1693 1.366 . S
C1694 C1695 1.414 . S
C1694 C1697 1.499 . S
C1695 H1669 0.950 . S
C1695 C1694 1.414 . S
C1695 C1696 1.374 . S
C1696 H1670 0.950 . S
C1696 C1692 1.385 . S
C1696 C1695 1.374 . S
C1697 C1694 1.499 . S
C1697 C1698 1.373 . S
C1697 C1699 1.389 . S
C1698 H1671 0.950 . S
C1698 C1684 1.377 . S
C1698 C1697 1.373 . S
C1699 C1683 1.377 . S
C1699 C1697 1.389 . S
C1699 C1700 1.524 . S
C1700 C1699 1.524 . S
C1700 C1701 1.397 . S
C1700 C1705 1.363 . S
C1701 H1672 0.950 . S
C1701 C1700 1.397 . S
C1701 C1702 1.334 . S
C1702 H1673 0.950 . S
C1702 C1701 1.334 . S
C1702 C1703 1.287 . S
C1703 C1702 1.287 . S
C1703 C1704 1.524 . S
C1703 H1706 0.999 . S
C1704 H1674 0.950 . S
C1704 C1703 1.524 . S
C1704 C1705 1.415 . S
C1705 H1675 0.950 . S
C1705 C1700 1.363 . S
C1705 C1704 1.415 . S
H1706 C1703 0.999 . S
H1707 C1688 0.913 . S
H1708 C1726 0.951 . S
H1709 C1728 0.951 . S
H1710 C1730 0.950 . S
H1711 C1731 0.950 . S
H1712 C1733 0.950 . S
H1713 C1736 0.950 . S
H1714 C1737 0.950 . S
H1715 C1739 0.950 . S
H1716 C1740 0.950 . S
H1717 C1741 0.951 . S
H1718 C1743 0.951 . S
H1719 C1745 0.950 . S
H1720 C1746 0.950 . S
H1721 C1748 0.950 . S
H1722 C1751 0.950 . S
H1723 C1752 0.950 . S
H1724 C1754 0.950 . S
H1725 C1755 0.950 . S
C1726 H1708 0.951 . S
C1726 C1727 1.366 . S
C1726 C1728 1.388 . S
C1727 C1726 1.366 . S
C1727 C1731 1.385 . S
C1728 H1709 0.951 . S
C1728 C1726 1.388 . S
C1728 C1729 1.366 . S
C1729 C1728 1.366 . S
C1729 C1730 1.414 . S
C1729 C1732 1.499 . S
C1730 H1710 0.950 . S
C1730 C1729 1.414 . S
C1730 C1731 1.374 . S
C1731 H1711 0.950 . S
C1731 C1727 1.385 . S
C1731 C1730 1.374 . S
C1732 C1729 1.499 . S
C1732 C1733 1.373 . S
C1732 C1734 1.389 . S
C1733 H1712 0.950 . S
C1733 C1732 1.373 . S
C1733 C1749 1.377 . S
C1734 C1732 1.389 . S
C1734 C1735 1.524 . S
C1734 C1748 1.377 . S
C1735 C1734 1.524 . S
C1735 C1736 1.397 . S
C1735 C1740 1.363 . S
C1736 H1713 0.950 . S
C1736 C1735 1.397 . S
C1736 C1737 1.334 . S
C1737 H1714 0.950 . S
C1737 C1736 1.334 . S
C1737 C1738 1.287 . S
C1738 C1737 1.287 . S
C1738 C1739 1.524 . S
C1738 H1757 0.913 . S
C1739 H1715 0.950 . S
C1739 C1738 1.524 . S
C1739 C1740 1.415 . S
C1740 H1716 0.950 . S
C1740 C1735 1.363 . S
C1740 C1739 1.415 . S
C1741 H1717 0.951 . S
C1741 C1742 1.366 . S
C1741 C1743 1.388 . S
C1742 C1741 1.366 . S
C1742 C1746 1.385 . S
C1743 H1718 0.951 . S
C1743 C1741 1.388 . S
C1743 C1744 1.366 . S
C1744 C1743 1.366 . S
C1744 C1745 1.414 . S
C1744 C1747 1.499 . S
C1745 H1719 0.950 . S
C1745 C1744 1.414 . S
C1745 C1746 1.374 . S
C1746 H1720 0.950 . S
C1746 C1742 1.385 . S
C1746 C1745 1.374 . S
C1747 C1744 1.499 . S
C1747 C1748 1.373 . S
C1747 C1749 1.389 . S
C1748 H1721 0.950 . S
C1748 C1734 1.377 . S
C1748 C1747 1.373 . S
C1749 C1733 1.377 . S
C1749 C1747 1.389 . S
C1749 C1750 1.524 . S
C1750 C1749 1.524 . S
C1750 C1751 1.397 . S
C1750 C1755 1.363 . S
C1751 H1722 0.950 . S
C1751 C1750 1.397 . S
C1751 C1752 1.334 . S
C1752 H1723 0.950 . S
C1752 C1751 1.334 . S
C1752 C1753 1.287 . S
C1753 C1752 1.287 . S
C1753 C1754 1.524 . S
C1753 H1756 0.999 . S
C1754 H1724 0.950 . S
C1754 C1753 1.524 . S
C1754 C1755 1.415 . S
C1755 H1725 0.950 . S
C1755 C1750 1.363 . S
C1755 C1754 1.415 . S
H1756 C1753 0.999 . S
H1757 C1738 0.913 . S
H1758 C1776 0.951 . S
H1759 C1778 0.951 . S
H1760 C1780 0.950 . S
H1761 C1781 0.950 . S
H1762 C1783 0.950 . S
H1763 C1786 0.950 . S
H1764 C1787 0.950 . S
H1765 C1789 0.950 . S
H1766 C1790 0.950 . S
H1767 C1791 0.951 . S
H1768 C1793 0.951 . S
H1769 C1795 0.950 . S
H1770 C1796 0.950 . S
H1771 C1798 0.950 . S
H1772 C1801 0.950 . S
H1773 C1802 0.950 . S
H1774 C1804 0.950 . S
H1775 C1805 0.950 . S
C1776 H1758 0.951 . S
C1776 C1777 1.366 . S
C1776 C1778 1.388 . S
C1777 C1776 1.366 . S
C1777 C1781 1.385 . S
C1778 H1759 0.951 . S
C1778 C1776 1.388 . S
C1778 C1779 1.366 . S
C1779 C1778 1.366 . S
C1779 C1780 1.414 . S
C1779 C1782 1.499 . S
C1780 H1760 0.950 . S
C1780 C1779 1.414 . S
C1780 C1781 1.374 . S
C1781 H1761 0.950 . S
C1781 C1777 1.385 . S
C1781 C1780 1.374 . S
C1782 C1779 1.499 . S
C1782 C1783 1.373 . S
C1782 C1784 1.389 . S
C1783 H1762 0.950 . S
C1783 C1782 1.373 . S
C1783 C1799 1.377 . S
C1784 C1782 1.389 . S
C1784 C1785 1.524 . S
C1784 C1798 1.377 . S
C1785 C1784 1.524 . S
C1785 C1786 1.397 . S
C1785 C1790 1.363 . S
C1786 H1763 0.950 . S
C1786 C1785 1.397 . S
C1786 C1787 1.334 . S
C1787 H1764 0.950 . S
C1787 C1786 1.334 . S
C1787 C1788 1.287 . S
C1788 C1787 1.287 . S
C1788 C1789 1.524 . S
C1788 H1807 0.913 . S
C1789 H1765 0.950 . S
C1789 C1788 1.524 . S
C1789 C1790 1.415 . S
C1790 H1766 0.950 . S
C1790 C1785 1.363 . S
C1790 C1789 1.415 . S
C1791 H1767 0.951 . S
C1791 C1792 1.366 . S
C1791 C1793 1.388 . S
C1792 C1791 1.366 . S
C1792 C1796 1.385 . S
C1793 H1768 0.951 . S
C1793 C1791 1.388 . S
C1793 C1794 1.366 . S
C1794 C1793 1.366 . S
C1794 C1795 1.414 . S
C1794 C1797 1.499 . S
C1795 H1769 0.950 . S
C1795 C1794 1.414 . S
C1795 C1796 1.374 . S
C1796 H1770 0.950 . S
C1796 C1792 1.385 . S
C1796 C1795 1.374 . S
C1797 C1794 1.499 . S
C1797 C1798 1.373 . S
C1797 C1799 1.389 . S
C1798 H1771 0.950 . S
C1798 C1784 1.377 . S
C1798 C1797 1.373 . S
C1799 C1783 1.377 . S
C1799 C1797 1.389 . S
C1799 C1800 1.524 . S
C1800 C1799 1.524 . S
C1800 C1801 1.397 . S
C1800 C1805 1.363 . S
C1801 H1772 0.950 . S
C1801 C1800 1.397 . S
C1801 C1802 1.334 . S
C1802 H1773 0.950 . S
C1802 C1801 1.334 . S
C1802 C1803 1.287 . S
C1803 C1802 1.287 . S
C1803 C1804 1.524 . S
C1803 H1806 0.999 . S
C1804 H1774 0.950 . S
C1804 C1803 1.524 . S
C1804 C1805 1.415 . S
C1805 H1775 0.950 . S
C1805 C1800 1.363 . S
C1805 C1804 1.415 . S
H1806 C1803 0.999 . S
H1807 C1788 0.913 . S
H1808 C1826 0.951 . S
H1809 C1828 0.951 . S
H1810 C1830 0.950 . S
H1811 C1831 0.950 . S
H1812 C1833 0.950 . S
H1813 C1836 0.950 . S
H1814 C1837 0.950 . S
H1815 C1839 0.950 . S
H1816 C1840 0.950 . S
H1817 C1841 0.951 . S
H1818 C1843 0.951 . S
H1819 C1845 0.950 . S
H1820 C1846 0.950 . S
H1821 C1848 0.950 . S
H1822 C1851 0.950 . S
H1823 C1852 0.950 . S
H1824 C1854 0.950 . S
H1825 C1855 0.950 . S
C1826 H1808 0.951 . S
C1826 C1827 1.366 . S
C1826 C1828 1.388 . S
C1827 C1826 1.366 . S
C1827 C1831 1.385 . S
C1828 H1809 0.951 . S
C1828 C1826 1.388 . S
C1828 C1829 1.366 . S
C1829 C1828 1.366 . S
C1829 C1830 1.414 . S
C1829 C1832 1.499 . S
C1830 H1810 0.950 . S
C1830 C1829 1.414 . S
C1830 C1831 1.374 . S
C1831 H1811 0.950 . S
C1831 C1827 1.385 . S
C1831 C1830 1.374 . S
C1832 C1829 1.499 . S
C1832 C1833 1.373 . S
C1832 C1834 1.389 . S
C1833 H1812 0.950 . S
C1833 C1832 1.373 . S
C1833 C1849 1.377 . S
C1834 C1832 1.389 . S
C1834 C1835 1.524 . S
C1834 C1848 1.377 . S
C1835 C1834 1.524 . S
C1835 C1836 1.397 . S
C1835 C1840 1.363 . S
C1836 H1813 0.950 . S
C1836 C1835 1.397 . S
C1836 C1837 1.334 . S
C1837 H1814 0.950 . S
C1837 C1836 1.334 . S
C1837 C1838 1.287 . S
C1838 C1837 1.287 . S
C1838 C1839 1.524 . S
C1838 H1857 0.913 . S
C1839 H1815 0.950 . S
C1839 C1838 1.524 . S
C1839 C1840 1.415 . S
C1840 H1816 0.950 . S
C1840 C1835 1.363 . S
C1840 C1839 1.415 . S
C1841 H1817 0.951 . S
C1841 C1842 1.366 . S
C1841 C1843 1.388 . S
C1842 C1841 1.366 . S
C1842 C1846 1.385 . S
C1843 H1818 0.951 . S
C1843 C1841 1.388 . S
C1843 C1844 1.366 . S
C1844 C1843 1.366 . S
C1844 C1845 1.414 . S
C1844 C1847 1.499 . S
C1845 H1819 0.950 . S
C1845 C1844 1.414 . S
C1845 C1846 1.374 . S
C1846 H1820 0.950 . S
C1846 C1842 1.385 . S
C1846 C1845 1.374 . S
C1847 C1844 1.499 . S
C1847 C1848 1.373 . S
C1847 C1849 1.389 . S
C1848 H1821 0.950 . S
C1848 C1834 1.377 . S
C1848 C1847 1.373 . S
C1849 C1833 1.377 . S
C1849 C1847 1.389 . S
C1849 C1850 1.524 . S
C1850 C1849 1.524 . S
C1850 C1851 1.397 . S
C1850 C1855 1.363 . S
C1851 H1822 0.950 . S
C1851 C1850 1.397 . S
C1851 C1852 1.334 . S
C1852 H1823 0.950 . S
C1852 C1851 1.334 . S
C1852 C1853 1.287 . S
C1853 C1852 1.287 . S
C1853 C1854 1.524 . S
C1853 H1856 0.999 . S
C1854 H1824 0.950 . S
C1854 C1853 1.524 . S
C1854 C1855 1.415 . S
C1855 H1825 0.950 . S
C1855 C1850 1.363 . S
C1855 C1854 1.415 . S
H1856 C1853 0.999 . S
H1857 C1838 0.913 . S
H1858 C1876 0.951 . S
H1859 C1878 0.951 . S
H1860 C1880 0.950 . S
H1861 C1881 0.950 . S
H1862 C1883 0.950 . S
H1863 C1886 0.950 . S
H1864 C1887 0.950 . S
H1865 C1889 0.950 . S
H1866 C1890 0.950 . S
H1867 C1891 0.951 . S
H1868 C1893 0.951 . S
H1869 C1895 0.950 . S
H1870 C1896 0.950 . S
H1871 C1898 0.950 . S
H1872 C1901 0.950 . S
H1873 C1902 0.950 . S
H1874 C1904 0.950 . S
H1875 C1905 0.950 . S
C1876 H1858 0.951 . S
C1876 C1877 1.366 . S
C1876 C1878 1.388 . S
C1877 C1876 1.366 . S
C1877 C1881 1.385 . S
C1878 H1859 0.951 . S
C1878 C1876 1.388 . S
C1878 C1879 1.366 . S
C1879 C1878 1.366 . S
C1879 C1880 1.414 . S
C1879 C1882 1.499 . S
C1880 H1860 0.950 . S
C1880 C1879 1.414 . S
C1880 C1881 1.374 . S
C1881 H1861 0.950 . S
C1881 C1877 1.385 . S
C1881 C1880 1.374 . S
C1882 C1879 1.499 . S
C1882 C1883 1.373 . S
C1882 C1884 1.389 . S
C1883 H1862 0.950 . S
C1883 C1882 1.373 . S
C1883 C1899 1.377 . S
C1884 C1882 1.389 . S
C1884 C1885 1.524 . S
C1884 C1898 1.377 . S
C1885 C1884 1.524 . S
C1885 C1886 1.397 . S
C1885 C1890 1.363 . S
C1886 H1863 0.950 . S
C1886 C1885 1.397 . S
C1886 C1887 1.334 . S
C1887 H1864 0.950 . S
C1887 C1886 1.334 . S
C1887 C1888 1.287 . S
C1888 C1887 1.287 . S
C1888 C1889 1.524 . S
C1888 H1907 0.913 . S
C1889 H1865 0.950 . S
C1889 C1888 1.524 . S
C1889 C1890 1.415 . S
C1890 H1866 0.950 . S
C1890 C1885 1.363 . S
C1890 C1889 1.415 . S
C1891 H1867 0.951 . S
C1891 C1892 1.366 . S
C1891 C1893 1.388 . S
C1892 C1891 1.366 . S
C1892 C1896 1.385 . S
C1893 H1868 0.951 . S
C1893 C1891 1.388 . S
C1893 C1894 1.366 . S
C1894 C1893 1.366 . S
C1894 C1895 1.414 . S
C1894 C1897 1.499 . S
C1895 H1869 0.950 . S
C1895 C1894 1.414 . S
C1895 C1896 1.374 . S
C1896 H1870 0.950 . S
C1896 C1892 1.385 . S
C1896 C1895 1.374 . S
C1897 C1894 1.499 . S
C1897 C1898 1.373 . S
C1897 C1899 1.389 . S
C1898 H1871 0.950 . S
C1898 C1884 1.377 . S
C1898 C1897 1.373 . S
C1899 C1883 1.377 . S
C1899 C1897 1.389 . S
C1899 C1900 1.524 . S
C1900 C1899 1.524 . S
C1900 C1901 1.397 . S
C1900 C1905 1.363 . S
C1901 H1872 0.950 . S
C1901 C1900 1.397 . S
C1901 C1902 1.334 . S
C1902 H1873 0.950 . S
C1902 C1901 1.334 . S
C1902 C1903 1.287 . S
C1903 C1902 1.287 . S
C1903 C1904 1.524 . S
C1903 H1906 0.999 . S
C1904 H1874 0.950 . S
C1904 C1903 1.524 . S
C1904 C1905 1.415 . S
C1905 H1875 0.950 . S
C1905 C1900 1.363 . S
C1905 C1904 1.415 . S
H1906 C1903 0.999 . S
H1907 C1888 0.913 . S
C427 C213 1.363 . S
C442 C9 1.362 . S
C477 C43 1.363 . S
C492 C247 1.362 . S
C527 C281 1.362 . S
C542 C77 1.363 . S
C577 C111 1.363 . S
C592 C315 1.362 . S
C627 C349 1.363 . S
C642 C145 1.363 . S
C677 C383 1.363 . S
C692 C179 1.363 . S
C727 C243 0.396 . S
C742 C5 0.393 . S
C777 C39 0.396 . S
C792 C277 0.394 . S
C827 C311 0.396 . S
C842 C73 0.393 . S
C877 C107 0.396 . S
C892 C345 0.393 . S
C927 C379 0.396 . S
C942 C141 0.393 . S
C977 C175 0.395 . S
C992 C209 0.394 . S
C1027 C203 1.192 . S
C1042 C20 1.161 . S
C1077 C33 1.191 . S
C1092 C54 1.162 . S
C1127 C88 1.160 . S
C1142 C67 1.192 . S
C1177 C101 1.191 . S
C1192 C122 1.162 . S
C1227 C135 1.191 . S
C1242 C156 1.162 . S
C1277 C169 1.192 . S
C1292 C190 1.161 . S
C1327 C271 1.192 . S
C1342 C224 1.161 . S
C1377 C258 1.161 . S
C1392 C305 1.192 . S
C1427 C339 1.192 . S
C1442 C292 1.160 . S
C1477 C373 1.191 . S
C1492 C326 1.162 . S
C1527 C407 1.192 . S
C1542 C360 1.161 . S
C1577 C237 1.191 . S
C1592 C394 1.161 . S
C1627 C2 1.765 . S
C1642 C274 1.765 . S
C1677 C36 1.765 . S
C1692 C308 1.765 . S
C1727 C70 1.765 . S
C1742 C342 1.765 1_556 S
C1777 C104 1.765 1_554 S
C1792 C376 1.765 . S
C1827 C138 1.764 . S
C1842 C206 1.765 . S
C1877 C172 1.765 . S
C1892 C240 1.765 . S
