# Generated by pormake.
# Topology vbm, (6)-cn, num edge types: 1
# Building blocks:
#     Node 0, Type 0, BuildingBlock: CIFDUS_clean_sbu_1, # of connection points: 6
#     Node 1, Type 0, BuildingBlock: CIFDUS_clean_sbu_1, # of connection points: 6
#     Node 2, Type 0, BuildingBlock: CIFDUS_clean_sbu_1, # of connection points: 6
#     Node 3, Type 0, BuildingBlock: CIFDUS_clean_sbu_1, # of connection points: 6
#     Node 4, Type 0, BuildingBlock: CIFDUS_clean_sbu_1, # of connection points: 6
#     Node 5, Type 0, BuildingBlock: CIFDUS_clean_sbu_1, # of connection points: 6
#     Node 6, Type 0, BuildingBlock: CIFDUS_clean_sbu_1, # of connection points: 6
#     Node 7, Type 0, BuildingBlock: CIFDUS_clean_sbu_1, # of connection points: 6
#     Node 8, Type 0, BuildingBlock: CIFDUS_clean_sbu_1, # of connection points: 6
#     Node 9, Type 0, BuildingBlock: CIFDUS_clean_sbu_1, # of connection points: 6
#     Node 10, Type 0, BuildingBlock: CIFDUS_clean_sbu_1, # of connection points: 6
#     Node 11, Type 0, BuildingBlock: CIFDUS_clean_sbu_1, # of connection points: 6
#     Node 12, Type 0, BuildingBlock: CIFDUS_clean_sbu_1, # of connection points: 6
#     Node 13, Type 0, BuildingBlock: CIFDUS_clean_sbu_1, # of connection points: 6
#     Node 14, Type 0, BuildingBlock: CIFDUS_clean_sbu_1, # of connection points: 6
#     Node 15, Type 0, BuildingBlock: CIFDUS_clean_sbu_1, # of connection points: 6
#     Edge 16, Type (0, 0), BuildingBlock: OJICUG_clean_linker_0, # of connection points: 2
#     Edge 17, Type (0, 0), BuildingBlock: OJICUG_clean_linker_0, # of connection points: 2
#     Edge 18, Type (0, 0), BuildingBlock: OJICUG_clean_linker_0, # of connection points: 2
#     Edge 19, Type (0, 0), BuildingBlock: OJICUG_clean_linker_0, # of connection points: 2
#     Edge 20, Type (0, 0), BuildingBlock: OJICUG_clean_linker_0, # of connection points: 2
#     Edge 21, Type (0, 0), BuildingBlock: OJICUG_clean_linker_0, # of connection points: 2
#     Edge 22, Type (0, 0), BuildingBlock: OJICUG_clean_linker_0, # of connection points: 2
#     Edge 23, Type (0, 0), BuildingBlock: OJICUG_clean_linker_0, # of connection points: 2
#     Edge 24, Type (0, 0), BuildingBlock: OJICUG_clean_linker_0, # of connection points: 2
#     Edge 25, Type (0, 0), BuildingBlock: OJICUG_clean_linker_0, # of connection points: 2
#     Edge 26, Type (0, 0), BuildingBlock: OJICUG_clean_linker_0, # of connection points: 2
#     Edge 27, Type (0, 0), BuildingBlock: OJICUG_clean_linker_0, # of connection points: 2
#     Edge 28, Type (0, 0), BuildingBlock: OJICUG_clean_linker_0, # of connection points: 2
#     Edge 29, Type (0, 0), BuildingBlock: OJICUG_clean_linker_0, # of connection points: 2
#     Edge 30, Type (0, 0), BuildingBlock: OJICUG_clean_linker_0, # of connection points: 2
#     Edge 31, Type (0, 0), BuildingBlock: OJICUG_clean_linker_0, # of connection points: 2
#     Edge 32, Type (0, 0), BuildingBlock: OJICUG_clean_linker_0, # of connection points: 2
#     Edge 33, Type (0, 0), BuildingBlock: OJICUG_clean_linker_0, # of connection points: 2
#     Edge 34, Type (0, 0), BuildingBlock: OJICUG_clean_linker_0, # of connection points: 2
#     Edge 35, Type (0, 0), BuildingBlock: OJICUG_clean_linker_0, # of connection points: 2
#     Edge 36, Type (0, 0), BuildingBlock: OJICUG_clean_linker_0, # of connection points: 2
#     Edge 37, Type (0, 0), BuildingBlock: OJICUG_clean_linker_0, # of connection points: 2
#     Edge 38, Type (0, 0), BuildingBlock: OJICUG_clean_linker_0, # of connection points: 2
#     Edge 39, Type (0, 0), BuildingBlock: OJICUG_clean_linker_0, # of connection points: 2
#     Edge 40, Type (0, 0), BuildingBlock: OJICUG_clean_linker_0, # of connection points: 2
#     Edge 41, Type (0, 0), BuildingBlock: OJICUG_clean_linker_0, # of connection points: 2
#     Edge 42, Type (0, 0), BuildingBlock: OJICUG_clean_linker_0, # of connection points: 2
#     Edge 43, Type (0, 0), BuildingBlock: OJICUG_clean_linker_0, # of connection points: 2
#     Edge 44, Type (0, 0), BuildingBlock: OJICUG_clean_linker_0, # of connection points: 2
#     Edge 45, Type (0, 0), BuildingBlock: OJICUG_clean_linker_0, # of connection points: 2
#     Edge 46, Type (0, 0), BuildingBlock: OJICUG_clean_linker_0, # of connection points: 2
#     Edge 47, Type (0, 0), BuildingBlock: OJICUG_clean_linker_0, # of connection points: 2
#     Edge 48, Type (0, 0), BuildingBlock: OJICUG_clean_linker_0, # of connection points: 2
#     Edge 49, Type (0, 0), BuildingBlock: OJICUG_clean_linker_0, # of connection points: 2
#     Edge 50, Type (0, 0), BuildingBlock: OJICUG_clean_linker_0, # of connection points: 2
#     Edge 51, Type (0, 0), BuildingBlock: OJICUG_clean_linker_0, # of connection points: 2
#     Edge 52, Type (0, 0), BuildingBlock: OJICUG_clean_linker_0, # of connection points: 2
#     Edge 53, Type (0, 0), BuildingBlock: OJICUG_clean_linker_0, # of connection points: 2
#     Edge 54, Type (0, 0), BuildingBlock: OJICUG_clean_linker_0, # of connection points: 2
#     Edge 55, Type (0, 0), BuildingBlock: OJICUG_clean_linker_0, # of connection points: 2
#     Edge 56, Type (0, 0), BuildingBlock: OJICUG_clean_linker_0, # of connection points: 2
#     Edge 57, Type (0, 0), BuildingBlock: OJICUG_clean_linker_0, # of connection points: 2
#     Edge 58, Type (0, 0), BuildingBlock: OJICUG_clean_linker_0, # of connection points: 2
#     Edge 59, Type (0, 0), BuildingBlock: OJICUG_clean_linker_0, # of connection points: 2
#     Edge 60, Type (0, 0), BuildingBlock: OJICUG_clean_linker_0, # of connection points: 2
#     Edge 61, Type (0, 0), BuildingBlock: OJICUG_clean_linker_0, # of connection points: 2
#     Edge 62, Type (0, 0), BuildingBlock: OJICUG_clean_linker_0, # of connection points: 2
#     Edge 63, Type (0, 0), BuildingBlock: OJICUG_clean_linker_0, # of connection points: 2
# Relax obj value: 0.038
# Max RMSD: 0.079
# Mean RMSD: 0.079
data_MOF--net-vbm--node1-CIFDUS_clean_sbu_1--edge1-OJICUG_clean_linker_0
_symmetry_space_group_name_H-M    P1
_symmetry_Int_Tables_number       1
_symmetry_cell_setting            triclinic
loop_
_symmetry_equiv_pos_as_xyz
'x, y, z'
_cell_length_a     45.05953
_cell_length_b     11.709179
_cell_length_c     44.483241
_cell_angle_alpha  89.928503
_cell_angle_beta   89.891401
_cell_angle_gamma 90.009461
loop_
_atom_site_label
_atom_site_type_symbol
_atom_site_fract_x
_atom_site_fract_y
_atom_site_fract_z
_atom_type_partial_charge
O0 O 0.13904 0.98071 0.14334 0.0
Mn1 Mn 0.13459 0.16206 0.13942 0.0
O2 O 0.14448 0.92012 0.09695 0.0
Mn3 Mn 0.11679 0.02781 0.08823 0.0
O4 O 0.12999 0.34312 0.13456 0.0
O5 O 0.13717 0.16142 0.18671 0.0
Mn6 Mn 0.15384 0.29921 0.18871 0.0
O7 O 0.18066 0.17866 0.13532 0.0
O8 O 0.12736 0.41074 0.18038 0.0
O9 O 0.08839 0.13943 0.14342 0.0
O10 O 0.08089 0.00809 0.10762 0.0
O11 O 0.15379 0.26251 0.22689 0.0
O12 O 0.19054 0.31005 0.1702 0.0
C13 C 0.12936 0.16348 0.063 0.0
C14 C 0.14527 0.90016 0.12465 0.0
C15 C 0.12475 0.42621 0.1527 0.0
C16 C 0.14044 0.17313 0.21619 0.0
C17 C 0.19855 0.24808 0.14826 0.0
C18 C 0.07209 0.06382 0.13042 0.0
O19 O 0.13195 0.16671 0.09255 0.0
O20 O 0.11665 0.07595 0.05056 0.0
O21 O 0.84307 0.82699 0.13258 0.0
Mn22 Mn 0.88907 0.84367 0.13738 0.0
O23 O 0.83242 0.69564 0.1673 0.0
Mn24 Mn 0.8688 0.70592 0.18625 0.0
O25 O 0.93519 0.8672 0.1419 0.0
O26 O 0.89245 0.84021 0.09067 0.0
Mn27 Mn 0.90767 0.97871 0.08599 0.0
O28 O 0.88448 0.02495 0.14121 0.0
O29 O 0.9433 0.99761 0.1058 0.0
O30 O 0.89389 0.66273 0.13251 0.0
O31 O 0.89525 0.59392 0.17832 0.0
O32 O 0.90784 0.92877 0.04841 0.0
O33 O 0.87987 0.0861 0.09469 0.0
C34 C 0.88199 0.83057 0.21408 0.0
C35 C 0.82487 0.75771 0.14522 0.0
C36 C 0.95169 0.94258 0.1289 0.0
C37 C 0.89511 0.84168 0.06114 0.0
C38 C 0.87864 0.10569 0.12239 0.0
C39 C 0.89863 0.57921 0.15069 0.0
O40 O 0.88581 0.84323 0.18466 0.0
O41 O 0.8681 0.74163 0.22443 0.0
O42 O 0.18001 0.83251 0.38937 0.0
Mn43 Mn 0.13403 0.84708 0.38308 0.0
O44 O 0.19311 0.70819 0.35377 0.0
Mn45 Mn 0.1571 0.71382 0.33419 0.0
O46 O 0.08792 0.86828 0.37699 0.0
O47 O 0.12938 0.84197 0.42958 0.0
Mn48 Mn 0.11186 0.97575 0.43491 0.0
O49 O 0.13823 0.02844 0.38017 0.0
O50 O 0.07647 0.98843 0.41456 0.0
O51 O 0.12944 0.66624 0.38726 0.0
O52 O 0.13192 0.59696 0.34142 0.0
O53 O 0.11203 0.92118 0.47216 0.0
O54 O 0.13804 0.09002 0.42712 0.0
C55 C 0.143 0.83783 0.3065 0.0
C56 C 0.19926 0.7678 0.37668 0.0
C57 C 0.06989 0.9371 0.39035 0.0
C58 C 0.1264 0.83893 0.45905 0.0
C59 C 0.14168 0.10925 0.39954 0.0
C60 C 0.12653 0.58263 0.36877 0.0
O61 O 0.13851 0.84801 0.33589 0.0
O62 O 0.15805 0.75188 0.29614 0.0
O63 O 0.84139 0.17195 0.38517 0.0
Mn64 Mn 0.88748 0.15631 0.38048 0.0
O65 O 0.82967 0.29721 0.3492 0.0
Mn66 Mn 0.86642 0.29204 0.33081 0.0
O67 O 0.93366 0.13341 0.37608 0.0
O68 O 0.89058 0.16068 0.42731 0.0
Mn69 Mn 0.90545 0.02136 0.43154 0.0
O70 O 0.88301 0.9751 0.3766 0.0
O71 O 0.94112 1.00114 0.41175 0.0
O72 O 0.89211 0.33726 0.38508 0.0
O73 O 0.89162 0.40759 0.33923 0.0
O74 O 0.90597 0.06921 0.46921 0.0
O75 O 0.87745 0.91469 0.42302 0.0
C76 C 0.88137 0.16694 0.30377 0.0
C77 C 0.82267 0.23695 0.37182 0.0
C78 C 0.94989 0.05696 0.3889 0.0
C79 C 0.89342 0.15731 0.45684 0.0
C80 C 0.87668 0.89467 0.39534 0.0
C81 C 0.89583 0.42133 0.36679 0.0
O82 O 0.88455 0.15721 0.3333 0.0
O83 O 0.86721 0.25386 0.29271 0.0
O84 O 0.8448 0.82809 0.88708 0.0
Mn85 Mn 0.89078 0.84316 0.88127 0.0
O86 O 0.83268 0.70056 0.85198 0.0
Mn87 Mn 0.86886 0.70816 0.83253 0.0
O88 O 0.93691 0.86525 0.87571 0.0
O89 O 0.89488 0.83844 0.92786 0.0
Mn90 Mn 0.91125 0.97463 0.93281 0.0
O91 O 0.88645 0.02449 0.87795 0.0
O92 O 0.9467 0.99073 0.91249 0.0
O93 O 0.89542 0.6622 0.88574 0.0
O94 O 0.89458 0.59327 0.83989 0.0
O95 O 0.91142 0.92198 0.9702 0.0
O96 O 0.88419 0.08543 0.92478 0.0
C97 C 0.88255 0.83233 0.80466 0.0
C98 C 0.82596 0.76153 0.8745 0.0
C99 C 0.95417 0.9375 0.88881 0.0
C100 C 0.89779 0.83744 0.95734 0.0
C101 C 0.88177 0.10509 0.89712 0.0
C102 C 0.89912 0.57868 0.86736 0.0
O103 O 0.88681 0.84371 0.83404 0.0
O104 O 0.86795 0.74509 0.79442 0.0
O105 O 0.18272 0.1747 0.88808 0.0
Mn106 Mn 0.13674 0.1585 0.88234 0.0
O107 O 0.19487 0.30171 0.8527 0.0
Mn108 Mn 0.1587 0.29433 0.83339 0.0
O109 O 0.09067 0.13523 0.87689 0.0
O110 O 0.13253 0.1627 0.92901 0.0
Mn111 Mn 0.11683 0.025 0.93362 0.0
O112 O 0.14132 0.97723 0.87885 0.0
O113 O 0.08154 0.00679 0.91323 0.0
O114 O 0.1319 0.33938 0.88683 0.0
O115 O 0.133 0.40916 0.84099 0.0
O116 O 0.1161 0.07577 0.97111 0.0
O117 O 0.14445 0.9162 0.92556 0.0
C118 C 0.14487 0.16989 0.80572 0.0
C119 C 0.20155 0.24129 0.87536 0.0
C120 C 0.07378 0.06083 0.88975 0.0
C121 C 0.12935 0.16194 0.9585 0.0
C122 C 0.14647 0.89655 0.89789 0.0
C123 C 0.12834 0.42325 0.86848 0.0
O124 O 0.14073 0.15889 0.83514 0.0
O125 O 0.15946 0.25701 0.79528 0.0
O126 O 0.84373 0.17465 0.63341 0.0
Mn127 Mn 0.88981 0.15829 0.63787 0.0
O128 O 0.83291 0.30301 0.66886 0.0
Mn129 Mn 0.86951 0.29446 0.6874 0.0
O130 O 0.93598 0.13578 0.64226 0.0
O131 O 0.89297 0.16299 0.59106 0.0
Mn132 Mn 0.9085 0.02481 0.58659 0.0
O133 O 0.88534 0.97697 0.64163 0.0
O134 O 0.94419 0.00585 0.60623 0.0
O135 O 0.89444 0.33929 0.6332 0.0
O136 O 0.89548 0.40782 0.67908 0.0
O137 O 0.90884 0.07405 0.54899 0.0
O138 O 0.88093 0.91623 0.5951 0.0
C139 C 0.88347 0.16833 0.71459 0.0
C140 C 0.82543 0.24214 0.64655 0.0
C141 C 0.95256 0.0609 0.62928 0.0
C142 C 0.89578 0.16071 0.56152 0.0
C143 C 0.87959 0.8964 0.6228 0.0
C144 C 0.89893 0.42268 0.65144 0.0
O145 O 0.88682 0.15804 0.68508 0.0
O146 O 0.8697 0.2564 0.72553 0.0
O147 O 0.18186 0.8289 0.63462 0.0
Mn148 Mn 0.13581 0.84524 0.63897 0.0
O149 O 0.19205 0.6977 0.66955 0.0
Mn150 Mn 0.15543 0.70787 0.68825 0.0
O151 O 0.08963 0.86768 0.64318 0.0
O152 O 0.13299 0.84127 0.59218 0.0
Mn153 Mn 0.11755 0.97951 0.58755 0.0
O154 O 0.14023 0.02656 0.64278 0.0
O155 O 0.08165 0.99774 0.60703 0.0
O156 O 0.13121 0.66426 0.63418 0.0
O157 O 0.129 0.59611 0.68003 0.0
O158 O 0.11773 0.93036 0.54995 0.0
O159 O 0.14504 0.08789 0.59629 0.0
C160 C 0.14205 0.83385 0.71571 0.0
C161 C 0.19987 0.75974 0.64751 0.0
C162 C 0.07311 0.94239 0.63004 0.0
C163 C 0.13052 0.8434 0.56262 0.0
C164 C 0.14612 0.1074 0.624 0.0
C165 C 0.12614 0.58099 0.65237 0.0
O166 O 0.13867 0.84544 0.68623 0.0
O167 O 0.15547 0.74458 0.72641 0.0
O168 O 0.63864 0.48528 0.14313 0.0
Mn169 Mn 0.6345 0.66667 0.14018 0.0
O170 O 0.6389 0.4243 0.09618 0.0
Mn171 Mn 0.61243 0.53772 0.08875 0.0
O172 O 0.63001 0.84757 0.13603 0.0
O173 O 0.63897 0.66579 0.18741 0.0
Mn174 Mn 0.65803 0.79911 0.18879 0.0
O175 O 0.68049 0.68026 0.13356 0.0
O176 O 0.63319 0.91701 0.18181 0.0
O177 O 0.58839 0.64605 0.14654 0.0
O178 O 0.57718 0.52384 0.10943 0.0
O179 O 0.65914 0.76171 0.22684 0.0
O180 O 0.69403 0.80364 0.16912 0.0
C181 C 0.62647 0.67378 0.06416 0.0
C182 C 0.64238 0.40471 0.12373 0.0
C183 C 0.62746 0.93127 0.15455 0.0
C184 C 0.64363 0.67654 0.21677 0.0
C185 C 0.69996 0.74403 0.14616 0.0
C186 C 0.57048 0.5761 0.13348 0.0
O187 O 0.62978 0.67217 0.09361 0.0
O188 O 0.612 0.591 0.05144 0.0
O189 O 0.3422 0.338 0.13712 0.0
Mn190 Mn 0.3882 0.35487 0.14217 0.0
O191 O 0.33099 0.20894 0.1723 0.0
Mn192 Mn 0.36736 0.21788 0.19127 0.0
O193 O 0.4343 0.37879 0.14692 0.0
O194 O 0.3918 0.35091 0.09543 0.0
Mn195 Mn 0.40685 0.48975 0.09088 0.0
O196 O 0.38354 0.53611 0.14592 0.0
O197 O 0.44237 0.50931 0.11085 0.0
O198 O 0.39307 0.17393 0.13748 0.0
O199 O 0.39345 0.10463 0.18333 0.0
O200 O 0.40735 0.44016 0.05329 0.0
O201 O 0.37894 0.59694 0.09939 0.0
C202 C 0.38093 0.34304 0.21886 0.0
C203 C 0.32377 0.27006 0.14993 0.0
C204 C 0.45075 0.45454 0.134 0.0
C205 C 0.39469 0.35268 0.06591 0.0
C206 C 0.3777 0.61675 0.12709 0.0
C207 C 0.3973 0.0902 0.15574 0.0
O208 O 0.38472 0.35446 0.1894 0.0
O209 O 0.36689 0.25481 0.22941 0.0
O210 O 0.67978 0.32763 0.38555 0.0
Mn211 Mn 0.63372 0.34688 0.38258 0.0
O212 O 0.68882 0.19793 0.34984 0.0
Mn213 Mn 0.65171 0.20839 0.33224 0.0
O214 O 0.58757 0.37186 0.37963 0.0
O215 O 0.63188 0.34278 0.42954 0.0
Mn216 Mn 0.61792 0.48376 0.43361 0.0
O217 O 0.63858 0.52809 0.37821 0.0
O218 O 0.58185 0.50669 0.41486 0.0
O219 O 0.62886 0.1658 0.38754 0.0
O220 O 0.62527 0.09779 0.34177 0.0
O221 O 0.61784 0.43799 0.47143 0.0
O222 O 0.64625 0.58836 0.42417 0.0
C223 C 0.6377 0.33758 0.30582 0.0
C224 C 0.6973 0.25851 0.37188 0.0
C225 C 0.57211 0.45025 0.3926 0.0
C226 C 0.6296 0.34818 0.45912 0.0
C227 C 0.64587 0.60858 0.39649 0.0
C228 C 0.62333 0.0825 0.36954 0.0
O229 O 0.63553 0.34641 0.33543 0.0
O230 O 0.65011 0.24794 0.29414 0.0
O231 O 0.3425 0.68383 0.39064 0.0
Mn232 Mn 0.38854 0.66789 0.38563 0.0
O233 O 0.33157 0.81379 0.35565 0.0
Mn234 Mn 0.36797 0.80449 0.33655 0.0
O235 O 0.4347 0.64585 0.38074 0.0
O236 O 0.392 0.67195 0.43234 0.0
Mn237 Mn 0.40801 0.53481 0.43707 0.0
O238 O 0.38416 0.48655 0.38205 0.0
O239 O 0.44372 0.51799 0.41719 0.0
O240 O 0.39317 0.84882 0.39026 0.0
O241 O 0.39418 0.91734 0.34437 0.0
O242 O 0.40802 0.58527 0.47458 0.0
O243 O 0.38081 0.42495 0.42872 0.0
C244 C 0.3814 0.67914 0.30894 0.0
C245 C 0.32418 0.75222 0.37791 0.0
C246 C 0.45166 0.57256 0.39384 0.0
C247 C 0.39473 0.67101 0.46186 0.0
C248 C 0.37897 0.40563 0.40103 0.0
C249 C 0.39772 0.93219 0.37197 0.0
O250 O 0.38517 0.66766 0.33839 0.0
O251 O 0.3675 0.76761 0.29841 0.0
O252 O 0.34472 0.32982 0.88969 0.0
Mn253 Mn 0.39076 0.34595 0.88489 0.0
O254 O 0.33422 0.19882 0.85491 0.0
Mn255 Mn 0.37065 0.20925 0.83589 0.0
O256 O 0.43693 0.36794 0.8801 0.0
O257 O 0.39407 0.34111 0.93171 0.0
Mn258 Mn 0.40972 0.4793 0.93585 0.0
O259 O 0.38635 0.52733 0.88113 0.0
O260 O 0.44533 0.49827 0.91593 0.0
O261 O 0.39535 0.16493 0.88963 0.0
O262 O 0.3971 0.09719 0.84378 0.0
O263 O 0.41042 0.43083 0.97347 0.0
O264 O 0.38217 0.58808 0.92768 0.0
C265 C 0.38381 0.33493 0.80819 0.0
C266 C 0.32658 0.26071 0.87699 0.0
C267 C 0.4536 0.44284 0.89289 0.0
C268 C 0.39714 0.34415 0.96123 0.0
C269 C 0.38068 0.60793 0.9 0.0
C270 C 0.40024 0.08182 0.87141 0.0
O271 O 0.38754 0.34669 0.83762 0.0
O272 O 0.37012 0.24594 0.79772 0.0
O273 O 0.68267 0.67706 0.88837 0.0
Mn274 Mn 0.63663 0.66065 0.88389 0.0
O275 O 0.69329 0.80743 0.85336 0.0
Mn276 Mn 0.65675 0.79782 0.83468 0.0
O277 O 0.59048 0.63751 0.87967 0.0
O278 O 0.63357 0.66453 0.93066 0.0
Mn279 Mn 0.61832 0.52606 0.93541 0.0
O280 O 0.64113 0.47937 0.88009 0.0
O281 O 0.58253 0.50739 0.91587 0.0
O282 O 0.63192 0.84161 0.88867 0.0
O283 O 0.63051 0.91035 0.84283 0.0
O284 O 0.6184 0.57576 0.97299 0.0
O285 O 0.64597 0.41828 0.92658 0.0
C286 C 0.64322 0.67258 0.80713 0.0
C287 C 0.70087 0.74568 0.87549 0.0
C288 C 0.57402 0.56241 0.89281 0.0
C289 C 0.63104 0.66292 0.96021 0.0
C290 C 0.64704 0.39863 0.89887 0.0
C291 C 0.62721 0.9251 0.87047 0.0
O292 O 0.63966 0.66074 0.8366 0.0
O293 O 0.657 0.76133 0.79652 0.0
O294 O 0.34388 0.67679 0.63587 0.0
Mn295 Mn 0.38989 0.66158 0.64136 0.0
O296 O 0.33162 0.80237 0.67148 0.0
Mn297 Mn 0.36792 0.79583 0.69057 0.0
O298 O 0.43605 0.6396 0.64659 0.0
O299 O 0.39381 0.66637 0.59479 0.0
Mn300 Mn 0.41056 0.53119 0.58934 0.0
O301 O 0.3856 0.48024 0.64453 0.0
O302 O 0.44621 0.5167 0.60924 0.0
O303 O 0.39453 0.84246 0.63701 0.0
O304 O 0.39332 0.91161 0.68288 0.0
O305 O 0.41009 0.58514 0.55203 0.0
O306 O 0.38396 0.4189 0.59766 0.0
C307 C 0.3821 0.67107 0.71803 0.0
C308 C 0.32498 0.74234 0.64878 0.0
C309 C 0.45351 0.56894 0.63311 0.0
C310 C 0.3964 0.66877 0.56528 0.0
C311 C 0.38129 0.3995 0.62533 0.0
C312 C 0.398 0.92604 0.6554 0.0
O313 O 0.38609 0.66088 0.68857 0.0
O314 O 0.36752 0.75775 0.72866 0.0
O315 O 0.68191 0.33088 0.63528 0.0
Mn316 Mn 0.63592 0.34763 0.64048 0.0
O317 O 0.69297 0.20115 0.67031 0.0
Mn318 Mn 0.65662 0.21039 0.68948 0.0
O319 O 0.58983 0.37101 0.64546 0.0
O320 O 0.63225 0.34345 0.5937 0.0
Mn321 Mn 0.61734 0.48282 0.58964 0.0
O322 O 0.64056 0.52889 0.64432 0.0
O323 O 0.58192 0.50318 0.60986 0.0
O324 O 0.63112 0.16665 0.63577 0.0
O325 O 0.63038 0.09761 0.68162 0.0
O326 O 0.61633 0.43481 0.55199 0.0
O327 O 0.64543 0.58957 0.59784 0.0
C328 C 0.64322 0.33584 0.71712 0.0
C329 C 0.70027 0.26253 0.64798 0.0
C330 C 0.57346 0.44748 0.63284 0.0
C331 C 0.62906 0.34678 0.56421 0.0
C332 C 0.64658 0.60949 0.62552 0.0
C333 C 0.62672 0.08301 0.65403 0.0
O334 O 0.63943 0.34724 0.68769 0.0
O335 O 0.65712 0.24734 0.72763 0.0
C336 C 0.24703 0.15274 0.13852 0.0
C337 C 0.23013 0.25302 0.13979 0.0
H338 H 0.29067 0.08044 0.14082 0.0
C339 C 0.24462 0.35947 0.13891 0.0
H340 H 0.23637 0.06988 0.13963 0.0
C341 C 0.27562 0.36567 0.13892 0.0
C342 C 0.29247 0.26536 0.1406 0.0
H343 H 0.23192 0.43795 0.14009 0.0
H344 H 0.28625 0.4485 0.14033 0.0
C345 C 0.27802 0.15894 0.13931 0.0
C346 C 0.77849 0.6476 0.13653 0.0
C347 C 0.79344 0.75319 0.13623 0.0
H348 H 0.73647 0.5616 0.13874 0.0
C349 C 0.777 0.85407 0.13311 0.0
H350 H 0.7908 0.56867 0.13909 0.0
C351 C 0.74598 0.8499 0.13343 0.0
C352 C 0.73105 0.74479 0.13607 0.0
H353 H 0.78799 0.9364 0.13325 0.0
H354 H 0.73363 0.92931 0.13376 0.0
C355 C 0.74748 0.6433 0.13613 0.0
C356 C 0.27618 0.65528 0.38912 0.0
C357 C 0.29274 0.75623 0.38698 0.0
H358 H 0.23276 0.58073 0.38754 0.0
C359 C 0.27791 0.86202 0.38742 0.0
H360 H 0.28709 0.57287 0.38835 0.0
C361 C 0.24689 0.8667 0.38762 0.0
C362 C 0.23036 0.76549 0.38669 0.0
H363 H 0.29033 0.941 0.38557 0.0
H364 H 0.23599 0.94884 0.38564 0.0
C365 C 0.24517 0.65992 0.38858 0.0
C366 C 0.7744 0.13838 0.37928 0.0
C367 C 0.79126 0.23866 0.38079 0.0
H368 H 0.73082 0.06694 0.37518 0.0
C369 C 0.77677 0.3442 0.38432 0.0
H370 H 0.78511 0.05647 0.37598 0.0
C371 C 0.74576 0.35024 0.38442 0.0
C372 C 0.72892 0.25099 0.38009 0.0
H373 H 0.78948 0.42271 0.38513 0.0
H374 H 0.73511 0.43314 0.38529 0.0
C375 C 0.74343 0.14467 0.3786 0.0
C376 C 0.74888 0.64891 0.88653 0.0
C377 C 0.73233 0.74984 0.8843 0.0
H378 H 0.79231 0.57437 0.88515 0.0
C379 C 0.74716 0.85564 0.88461 0.0
H380 H 0.73796 0.56649 0.8859 0.0
C381 C 0.77817 0.86035 0.88488 0.0
C382 C 0.7947 0.75912 0.88409 0.0
H383 H 0.73475 0.93459 0.88271 0.0
H384 H 0.78908 0.94249 0.88289 0.0
C385 C 0.77989 0.65356 0.88603 0.0
C386 C 0.27832 0.35682 0.88731 0.0
C387 C 0.29509 0.25625 0.88583 0.0
H388 H 0.23477 0.42999 0.88512 0.0
C389 C 0.28045 0.15007 0.88664 0.0
H390 H 0.28908 0.4395 0.88624 0.0
C391 C 0.24944 0.14446 0.88665 0.0
C392 C 0.23272 0.24512 0.8851 0.0
H393 H 0.29304 0.07137 0.88528 0.0
H394 H 0.23871 0.06188 0.88507 0.0
C395 C 0.24732 0.35123 0.88656 0.0
C396 C 0.74615 0.15159 0.63758 0.0
C397 C 0.73161 0.25788 0.63862 0.0
H398 H 0.78787 0.06308 0.63815 0.0
C399 C 0.74839 0.35833 0.63666 0.0
H400 H 0.73355 0.07299 0.6393 0.0
C401 C 0.7794 0.35251 0.63664 0.0
C402 C 0.79397 0.24628 0.63779 0.0
H403 H 0.7377 0.44108 0.63789 0.0
H404 H 0.79203 0.43117 0.63767 0.0
C405 C 0.77715 0.14575 0.63679 0.0
C406 C 0.24613 0.64937 0.63838 0.0
C407 C 0.2314 0.75535 0.63884 0.0
H408 H 0.28797 0.56196 0.64003 0.0
C409 C 0.24806 0.85613 0.63686 0.0
H410 H 0.23363 0.57054 0.64009 0.0
C411 C 0.27906 0.85108 0.63744 0.0
C412 C 0.29376 0.74527 0.6392 0.0
H413 H 0.23722 0.93868 0.63762 0.0
H414 H 0.29155 0.93008 0.6385 0.0
C415 C 0.27714 0.64428 0.63819 0.0
C416 C 0.13165 0.88878 0.25359 0.0
C417 C 0.13288 0.9217 0.28412 0.0
H418 H 0.13338 0.94397 0.20765 0.0
C419 C 0.12966 0.03655 0.29156 0.0
H420 H 0.13353 0.7998 0.24719 0.0
C421 C 0.12872 0.11841 0.26878 0.0
C422 C 0.13144 0.08621 0.23829 0.0
H423 H 0.13061 0.06347 0.31474 0.0
H424 H 0.12838 0.20766 0.27519 0.0
C425 C 0.13117 0.97066 0.2308 0.0
C426 C 0.89202 0.96538 0.28974 0.0
C427 C 0.8914 0.08072 0.28205 0.0
H428 H 0.89061 0.79423 0.27365 0.0
C429 C 0.89451 0.11275 0.25157 0.0
H430 H 0.88948 0.93902 0.31289 0.0
C431 C 0.89423 0.03058 0.2289 0.0
C432 C 0.89129 0.91559 0.2365 0.0
H433 H 0.89459 0.20196 0.24505 0.0
H434 H 0.89364 0.05735 0.20566 0.0
C435 C 0.89222 0.88318 0.2671 0.0
C436 C 0.89329 0.96616 0.72887 0.0
C437 C 0.89298 0.08159 0.73645 0.0
H438 H 0.89132 0.79514 0.74515 0.0
C439 C 0.89605 0.11361 0.7669 0.0
H440 H 0.89077 0.93975 0.70575 0.0
C441 C 0.89548 0.03154 0.78964 0.0
C442 C 0.89226 0.91668 0.78217 0.0
H443 H 0.89637 0.20283 0.77334 0.0
H444 H 0.89484 0.05832 0.81286 0.0
C445 C 0.89318 0.88407 0.7516 0.0
C446 C 0.13366 0.11842 0.75283 0.0
C447 C 0.13489 0.08568 0.7834 0.0
H448 H 0.13525 0.06294 0.70696 0.0
C449 C 0.13158 0.97087 0.79097 0.0
H450 H 0.13558 0.20732 0.74633 0.0
C451 C 0.13052 0.8889 0.76827 0.0
C452 C 0.13319 0.92092 0.73775 0.0
H453 H 0.13246 0.94401 0.81419 0.0
H454 H 0.13009 0.79968 0.77477 0.0
C455 C 0.13304 0.03642 0.73014 0.0
C456 C 0.63229 0.54285 0.29263 0.0
C457 C 0.62915 0.42834 0.28474 0.0
H458 H 0.63844 0.71285 0.27681 0.0
C459 C 0.62418 0.39937 0.25435 0.0
H460 H 0.63641 0.567 0.31571 0.0
C461 C 0.6262 0.48208 0.23182 0.0
C462 C 0.63298 0.59444 0.23946 0.0
H463 H 0.62125 0.31106 0.24772 0.0
H464 H 0.62493 0.45694 0.20853 0.0
C465 C 0.63397 0.62557 0.27014 0.0
C466 C 0.39275 0.62576 0.2562 0.0
C467 C 0.39069 0.59328 0.28674 0.0
H468 H 0.39094 0.57065 0.21029 0.0
C469 C 0.39215 0.4779 0.29431 0.0
H470 H 0.39219 0.71498 0.24971 0.0
C471 C 0.39225 0.39591 0.2716 0.0
C472 C 0.39041 0.42849 0.24106 0.0
H473 H 0.39049 0.45112 0.3175 0.0
H474 H 0.39131 0.30675 0.2781 0.0
C475 C 0.39238 0.54377 0.23348 0.0
C476 C 0.39482 0.38884 0.75537 0.0
C477 C 0.39287 0.42114 0.78592 0.0
H478 H 0.39257 0.44418 0.70947 0.0
C479 C 0.39421 0.53655 0.79344 0.0
H480 H 0.39436 0.29965 0.74892 0.0
C481 C 0.39404 0.61862 0.77069 0.0
C482 C 0.39205 0.58606 0.74018 0.0
H483 H 0.39265 0.56325 0.81663 0.0
H484 H 0.39297 0.70774 0.77714 0.0
C485 C 0.39418 0.47091 0.73264 0.0
C486 C 0.63195 0.61907 0.75441 0.0
C487 C 0.63391 0.58671 0.78496 0.0
H488 H 0.63368 0.5637 0.70852 0.0
C489 C 0.63223 0.4714 0.79258 0.0
H490 H 0.63266 0.70822 0.74788 0.0
C491 C 0.632 0.38929 0.76989 0.0
C492 C 0.63391 0.42166 0.73933 0.0
H493 H 0.63377 0.44467 0.81578 0.0
H494 H 0.63276 0.30013 0.77641 0.0
C495 C 0.63217 0.53695 0.73172 0.0
C496 C 0.16644 0.21969 0.99482 0.0
C497 C 0.14058 0.25005 0.9791 0.0
H498 H 0.18396 0.17415 0.03786 0.0
C499 C 0.11867 0.31125 0.99481 0.0
H500 H 0.18393 0.17327 0.98336 0.0
C501 C 0.11868 0.31171 0.02636 0.0
C502 C 0.1406 0.251 0.04214 0.0
H503 H 0.09857 0.33716 0.98333 0.0
H504 H 0.09858 0.33794 0.03785 0.0
C505 C 0.16646 0.22025 0.02638 0.0
C506 C 0.90695 0.68848 0.99412 0.0
C507 C 0.88564 0.74995 0.97769 0.0
H508 H 0.926 0.66384 0.03767 0.0
C509 C 0.85945 0.78177 0.99269 0.0
H510 H 0.92725 0.66109 0.98318 0.0
C511 C 0.8587 0.78318 0.02425 0.0
C512 C 0.88413 0.75271 0.04067 0.0
H513 H 0.84235 0.82811 0.98067 0.0
H514 H 0.84103 0.8305 0.03515 0.0
C515 C 0.90623 0.69004 0.02566 0.0
C516 C 0.16555 0.78617 0.49361 0.0
C517 C 0.13932 0.75228 0.4791 0.0
H518 H 0.18435 0.83618 0.5357 0.0
C519 C 0.11862 0.6889 0.49593 0.0
H520 H 0.18221 0.83392 0.48126 0.0
C521 C 0.11978 0.69056 0.52746 0.0
C522 C 0.14174 0.75507 0.54204 0.0
H523 H 0.09833 0.65973 0.48536 0.0
H524 H 0.10034 0.66269 0.53984 0.0
C525 C 0.16678 0.78744 0.52514 0.0
C526 C 0.858 0.21718 0.52575 0.0
C527 C 0.88424 0.24783 0.54075 0.0
H528 H 0.83947 0.16989 0.48331 0.0
C529 C 0.9059 0.3077 0.52429 0.0
H530 H 0.84071 0.1717 0.53779 0.0
C531 C 0.90521 0.30656 0.49275 0.0
C532 C 0.88283 0.2457 0.47773 0.0
H533 H 0.92629 0.33374 0.53521 0.0
H534 H 0.92509 0.33176 0.48071 0.0
C535 C 0.85729 0.21616 0.4942 0.0
C536 C 0.61857 0.82074 0.02651 0.0
C537 C 0.63934 0.75913 0.04362 0.0
H538 H 0.60034 0.84344 0.98252 0.0
C539 C 0.66565 0.72473 0.02923 0.0
H540 H 0.59821 0.85007 0.03697 0.0
C541 C 0.66693 0.72124 0.9977 0.0
C542 C 0.64193 0.75221 0.98066 0.0
H543 H 0.68234 0.67816 0.04176 0.0
H544 H 0.6846 0.67224 0.98733 0.0
C545 C 0.6198 0.81693 0.99499 0.0
C546 C 0.40707 0.19884 0.99888 0.0
C547 C 0.38547 0.25818 0.98229 0.0
H548 H 0.42626 0.17679 0.04246 0.0
C549 C 0.35926 0.28987 0.99729 0.0
H550 H 0.42743 0.17201 0.98796 0.0
C551 C 0.35857 0.29256 0.02884 0.0
C552 C 0.38407 0.26345 0.04531 0.0
H553 H 0.342 0.33494 0.98517 0.0
H554 H 0.34079 0.33956 0.03964 0.0
C555 C 0.40639 0.20159 0.03041 0.0
C556 C 0.61748 0.20137 0.49577 0.0
C557 C 0.63997 0.25978 0.48014 0.0
H558 H 0.59699 0.17679 0.53872 0.0
C559 C 0.66594 0.28757 0.49599 0.0
H560 H 0.59725 0.17776 0.48419 0.0
C561 C 0.66578 0.28717 0.52755 0.0
C562 C 0.63966 0.25888 0.54319 0.0
H563 H 0.68383 0.33201 0.4846 0.0
H564 H 0.68355 0.33136 0.5391 0.0
C565 C 0.61734 0.20079 0.52732 0.0
C566 C 0.40516 0.82121 0.52935 0.0
C567 C 0.38402 0.75703 0.54537 0.0
H568 H 0.42442 0.85046 0.48603 0.0
C569 C 0.35807 0.72468 0.53008 0.0
H570 H 0.42523 0.84921 0.54053 0.0
C571 C 0.35758 0.72555 0.49852 0.0
C572 C 0.38304 0.75862 0.48239 0.0
H573 H 0.34108 0.6764 0.5418 0.0
H574 H 0.34021 0.67783 0.48731 0.0
C575 C 0.40467 0.82199 0.4978 0.0
C576 C 1.00357 0.88799 0.14257 0.0
C577 C 0.9816 0.97173 0.13999 0.0
H578 H 0.05027 0.85363 0.14204 0.0
C579 C 0.98988 0.08792 0.14109 0.0
H580 H 0.99782 0.79827 0.14134 0.0
C581 C 0.01982 0.11994 0.14173 0.0
C582 C 0.04187 0.03599 0.14095 0.0
H583 H 0.9732 0.15414 0.13898 0.0
H584 H 0.02562 0.20945 0.13979 0.0
C585 C 0.03352 0.92001 0.14286 0.0
C586 C 0.9883 0.91168 0.37728 0.0
C587 C 0.97995 0.02785 0.37806 0.0
H588 H 0.02403 0.79047 0.37968 0.0
C589 C 1.00195 0.11162 0.3756 0.0
H590 H 0.97161 0.8454 0.3793 0.0
C591 C 0.03192 0.07974 0.37587 0.0
C592 C 0.04025 0.96388 0.37825 0.0
H593 H 0.99617 0.20134 0.37662 0.0
H594 H 0.04864 0.1462 0.37697 0.0
C595 C 0.01825 0.87982 0.37728 0.0
C596 C 0.03605 0.91475 0.87693 0.0
C597 C 0.04414 0.03116 0.87803 0.0
H598 H 1.00053 0.79237 0.87862 0.0
C599 C 0.02203 0.11429 0.87532 0.0
H600 H 0.05284 0.84898 0.87919 0.0
C601 C 0.99213 0.08148 0.87504 0.0
C602 C 0.98399 0.96533 0.87719 0.0
H603 H 0.02761 0.20416 0.87659 0.0
H604 H 0.97527 0.14743 0.87595 0.0
C605 C 1.00617 0.88195 0.87641 0.0
C606 C 0.99102 0.91667 0.6415 0.0
C607 C 0.98257 0.03265 0.64025 0.0
H608 H 0.02692 0.79591 0.64011 0.0
C609 C 1.00444 0.11692 0.64244 0.0
H610 H 0.97442 0.85005 0.63966 0.0
C611 C 0.03444 0.08558 0.6425 0.0
C612 C 0.04293 0.96975 0.64075 0.0
H613 H 0.99856 0.20648 0.64107 0.0
H614 H 0.05109 0.1523 0.64139 0.0
C615 C 0.02101 0.88533 0.64192 0.0
C616 C 0.50261 0.40131 0.14827 0.0
C617 C 0.48058 0.48459 0.14519 0.0
H618 H 0.54935 0.36746 0.14765 0.0
C619 C 0.4888 0.60093 0.14573 0.0
H620 H 0.49694 0.31146 0.14748 0.0
C621 C 0.51871 0.63329 0.14602 0.0
C622 C 0.54081 0.54956 0.14563 0.0
H623 H 0.47208 0.66683 0.14325 0.0
H624 H 0.52443 0.72261 0.14334 0.0
C625 C 0.53255 0.4337 0.14833 0.0
C626 C 0.48989 0.42969 0.37996 0.0
C627 C 0.48165 0.54554 0.38262 0.0
H628 H 0.52552 0.30754 0.38027 0.0
C629 C 0.50375 0.62933 0.38218 0.0
H630 H 0.47308 0.36345 0.38058 0.0
C631 C 0.53366 0.59704 0.3823 0.0
C632 C 0.54189 0.4807 0.38259 0.0
H633 H 0.49802 0.71865 0.38474 0.0
H634 H 0.55039 0.66299 0.38455 0.0
C635 C 0.51982 0.39741 0.37973 0.0
C636 C 0.49207 0.58613 0.87984 0.0
C637 C 0.48366 0.47024 0.88181 0.0
H638 H 0.52788 0.70741 0.88097 0.0
C639 C 0.50562 0.38603 0.88066 0.0
H640 H 0.47539 0.6527 0.88094 0.0
C641 C 0.53559 0.41767 0.88091 0.0
C642 C 0.54399 0.53375 0.88198 0.0
H643 H 0.49976 0.29658 0.88265 0.0
H644 H 0.55224 0.35123 0.88277 0.0
C645 C 0.52205 0.61777 0.87974 0.0
C646 C 0.49158 0.42543 0.64673 0.0
C647 C 0.48333 0.54144 0.64462 0.0
H648 H 0.52721 0.30341 0.64542 0.0
C649 C 0.50541 0.62523 0.64551 0.0
H650 H 0.4748 0.3592 0.64574 0.0
C651 C 0.53533 0.593 0.64513 0.0
C652 C 0.54357 0.47674 0.64409 0.0
H653 H 0.49967 0.71472 0.64335 0.0
H654 H 0.55206 0.65911 0.64304 0.0
C655 C 0.52152 0.39318 0.64663 0.0
C656 C 0.12455 0.74729 0.15796 0.0
C657 C 0.14203 0.77837 0.13316 0.0
H658 H 0.10409 0.61176 0.18267 0.0
C659 C 0.15127 0.69222 0.11304 0.0
H660 H 0.11583 0.81133 0.17307 0.0
C661 C 0.14358 0.57777 0.11786 0.0
C662 C 0.12655 0.54681 0.14299 0.0
H663 H 0.16421 0.71363 0.09327 0.0
H664 H 0.15199 0.51329 0.10261 0.0
C665 C 0.11697 0.63309 0.16284 0.0
C666 C 0.87266 0.31371 0.11079 0.0
C667 C 0.88176 0.22739 0.13094 0.0
H668 H 0.87194 0.49279 0.1004 0.0
C669 C 0.89908 0.25825 0.15579 0.0
H670 H 0.85986 0.29246 0.09098 0.0
C671 C 0.9066 0.37242 0.16071 0.0
C672 C 0.89712 0.45886 0.14085 0.0
H673 H 0.90772 0.19409 0.17091 0.0
H674 H 0.91931 0.39361 0.18059 0.0
C675 C 0.88028 0.42814 0.11565 0.0
C676 C 0.12497 0.26211 0.36426 0.0
C677 C 0.1399 0.23077 0.3906 0.0
H678 H 0.1077 0.39808 0.33744 0.0
C679 C 0.14763 0.3168 0.41136 0.0
H680 H 0.11725 0.1982 0.34864 0.0
C681 C 0.14107 0.43155 0.40559 0.0
C682 C 0.12671 0.46264 0.37888 0.0
H683 H 0.15853 0.2951 0.43229 0.0
H684 H 0.14833 0.49603 0.42141 0.0
C685 C 0.11855 0.37653 0.35842 0.0
C686 C 0.87807 0.5722 0.40213 0.0
C687 C 0.89488 0.54131 0.37687 0.0
H688 H 0.85775 0.70814 0.42686 0.0
C689 C 0.90462 0.6276 0.35707 0.0
H690 H 0.86953 0.50758 0.41731 0.0
C691 C 0.89733 0.74189 0.36209 0.0
C692 C 0.8799 0.77293 0.38691 0.0
H693 H 0.91731 0.60614 0.33715 0.0
H694 H 0.90616 0.80592 0.34701 0.0
C695 C 0.87062 0.68675 0.40706 0.0
C696 C 0.90014 0.25802 0.86257 0.0
C697 C 0.8842 0.22676 0.88837 0.0
H698 H 0.9187 0.39385 0.8365 0.0
C699 C 0.87593 0.31279 0.90895 0.0
H700 H 0.9082 0.1941 0.84709 0.0
C701 C 0.88298 0.42743 0.90354 0.0
C702 C 0.89838 0.4585 0.87737 0.0
H703 H 0.86422 0.2912 0.92948 0.0
H704 H 0.87529 0.4919 0.91917 0.0
C705 C 0.90707 0.37234 0.85709 0.0
C706 C 0.12021 0.62973 0.85844 0.0
C707 C 0.12914 0.5433 0.87854 0.0
H708 H 0.11905 0.80809 0.84845 0.0
C709 C 0.14497 0.57403 0.90441 0.0
H710 H 0.10826 0.60849 0.83807 0.0
C711 C 0.1522 0.68856 0.90966 0.0
C712 C 0.14371 0.77488 0.88924 0.0
H713 H 0.15287 0.50934 0.91988 0.0
H714 H 0.16426 0.70985 0.92995 0.0
C715 C 0.1273 0.74397 0.86377 0.0
C716 C 0.8735 0.68854 0.61123 0.0
C717 C 0.88257 0.77467 0.6314 0.0
H718 H 0.87264 0.50949 0.60095 0.0
C719 C 0.8997 0.74355 0.65637 0.0
H720 H 0.86084 0.71001 0.59132 0.0
C721 C 0.90703 0.62928 0.66143 0.0
C722 C 0.89758 0.54303 0.64155 0.0
H723 H 0.90835 0.80758 0.67149 0.0
H724 H 0.9196 0.60787 0.6814 0.0
C725 C 0.88095 0.57401 0.61621 0.0
C726 C 0.15212 0.31538 0.61238 0.0
C727 C 0.14305 0.22905 0.63259 0.0
H728 H 0.15281 0.49442 0.60198 0.0
C729 C 0.12583 0.2599 0.65757 0.0
H730 H 0.16485 0.29415 0.59248 0.0
C731 C 0.11837 0.37408 0.66257 0.0
C732 C 0.12779 0.46053 0.64263 0.0
H733 H 0.11722 0.19571 0.67275 0.0
H734 H 0.1057 0.39524 0.68253 0.0
C735 C 0.14454 0.4298 0.61731 0.0
C736 C 0.64133 0.0824 0.11742 0.0
C737 C 0.62748 0.05123 0.14445 0.0
H738 H 0.65837 0.21891 0.0904 0.0
C739 C 0.61977 0.13723 0.16515 0.0
H740 H 0.64824 0.01799 0.10141 0.0
C741 C 0.6262 0.25157 0.15925 0.0
C742 C 0.64059 0.28306 0.13257 0.0
H743 H 0.60932 0.11563 0.18638 0.0
H744 H 0.61897 0.31526 0.17516 0.0
C745 C 0.64785 0.19716 0.11157 0.0
C746 C 0.37197 0.82486 0.11538 0.0
C747 C 0.38085 0.73848 0.13562 0.0
H748 H 0.37131 1.00401 0.10507 0.0
C749 C 0.39793 0.76928 0.16065 0.0
H750 H 0.35937 0.80369 0.09543 0.0
C751 C 0.40533 0.88346 0.16571 0.0
C752 C 0.39603 0.96996 0.14579 0.0
H753 H 0.40644 0.7051 0.17582 0.0
H754 H 0.41781 0.90461 0.18575 0.0
C755 C 0.3795 0.9393 0.12038 0.0
C756 C 0.64374 0.93116 0.4035 0.0
C757 C 0.62562 0.96182 0.3792 0.0
H758 H 0.66566 0.79578 0.42704 0.0
C759 C 0.61543 0.87528 0.35976 0.0
H760 H 0.65267 0.99582 0.41836 0.0
C761 C 0.62344 0.76121 0.36423 0.0
C762 C 0.642 0.73046 0.38819 0.0
H763 H 0.60173 0.89635 0.34054 0.0
H764 H 0.61428 0.697 0.34946 0.0
C765 C 0.65186 0.81687 0.40791 0.0
C766 C 0.38028 0.08325 0.40752 0.0
C767 C 0.39646 0.0525 0.38182 0.0
H768 H 0.36066 0.21905 0.43286 0.0
C769 C 0.40558 0.13893 0.36175 0.0
H770 H 0.37225 0.01862 0.42298 0.0
C771 C 0.39838 0.25316 0.36698 0.0
C772 C 0.3817 0.28405 0.39232 0.0
H773 H 0.41782 0.11771 0.34152 0.0
H774 H 0.4068 0.31733 0.3517 0.0
C775 C 0.37295 0.19774 0.41267 0.0
C776 C 0.40063 0.76082 0.86626 0.0
C777 C 0.38361 0.72967 0.89137 0.0
H778 H 0.42052 0.89647 0.84113 0.0
C779 C 0.37465 0.81577 0.91163 0.0
H780 H 0.40917 0.69682 0.85104 0.0
C781 C 0.38214 0.93029 0.90662 0.0
C782 C 0.3987 0.9613 0.88118 0.0
H783 H 0.36208 0.79427 0.93164 0.0
H784 H 0.37395 0.99475 0.922 0.0
C785 C 0.40801 0.87508 0.86119 0.0
C786 C 0.62665 0.24609 0.86544 0.0
C787 C 0.64391 0.27694 0.89033 0.0
H788 H 0.60655 0.11071 0.84054 0.0
C789 C 0.65299 0.1906 0.91049 0.0
H790 H 0.618 0.31026 0.85033 0.0
C791 C 0.64542 0.07616 0.90558 0.0
C792 C 0.62867 0.04544 0.88032 0.0
H793 H 0.66574 0.21183 0.93034 0.0
H794 H 0.65373 0.0115 0.92084 0.0
C795 C 0.61921 0.1319 0.86046 0.0
C796 C 0.40611 0.13231 0.66556 0.0
C797 C 0.39742 0.04612 0.64534 0.0
H798 H 0.40748 0.31065 0.6754 0.0
C799 C 0.38218 0.07715 0.61913 0.0
H800 H 0.41764 0.11082 0.68617 0.0
C801 C 0.37528 0.19182 0.61364 0.0
C802 C 0.38355 0.27791 0.63416 0.0
H803 H 0.3745 0.01264 0.60353 0.0
H804 H 0.36368 0.21341 0.59308 0.0
C805 C 0.39936 0.24668 0.65999 0.0
C806 C 0.62613 0.76205 0.65899 0.0
C807 C 0.64339 0.73123 0.63403 0.0
H808 H 0.60604 0.89738 0.68401 0.0
C809 C 0.65242 0.81761 0.61382 0.0
H810 H 0.61752 0.69786 0.67416 0.0
C811 C 0.64484 0.93204 0.61878 0.0
C812 C 0.62811 0.96271 0.64412 0.0
H813 H 0.66516 0.79642 0.59392 0.0
H814 H 0.65314 0.99674 0.60349 0.0
C815 C 0.61868 0.87622 0.66402 0.0
loop_
_geom_bond_atom_site_label_1
_geom_bond_atom_site_label_2
_geom_bond_distance
_geom_bond_site_symmetry_2
_ccdc_geom_bond_type
O0 Mn1 2.163 1_565 S
O0 C14 1.244 . S
Mn1 O0 2.163 1_545 S
Mn1 O4 2.160 . S
Mn1 O5 2.221 . S
Mn1 O7 2.163 . S
Mn1 O9 2.160 . S
Mn1 O19 2.221 . S
O2 Mn3 2.087 . S
O2 C14 1.256 . S
Mn3 O2 2.087 . S
Mn3 O10 2.089 . S
Mn3 O19 2.290 1_565 S
Mn3 O20 2.251 1_565 S
O4 Mn1 2.160 . S
O4 C15 1.239 . S
O5 Mn1 2.221 . S
O5 Mn6 2.290 . S
O5 C16 1.278 . S
Mn6 O5 2.290 . S
Mn6 O8 2.089 . S
Mn6 O11 2.251 . S
Mn6 O12 2.087 . S
O7 Mn1 2.163 . S
O7 C17 1.244 . S
O8 Mn6 2.089 . S
O8 C15 1.256 . S
O9 Mn1 2.160 . S
O9 C18 1.239 . S
O10 Mn3 2.089 . S
O10 C18 1.256 1_565 S
O11 Mn6 2.251 . S
O11 C16 1.241 . S
O12 Mn6 2.087 . S
O12 C17 1.256 . S
C13 O19 1.278 . S
C13 O20 1.241 . S
C14 O0 1.244 . S
C14 O2 1.256 . S
C15 O4 1.239 . S
C15 O8 1.256 . S
C16 O5 1.278 . S
C16 O11 1.241 . S
C17 O7 1.244 . S
C17 O12 1.256 . S
C18 O9 1.239 . S
C18 O10 1.256 1_545 S
O19 Mn1 2.221 . S
O19 Mn3 2.290 1_545 S
O19 C13 1.278 . S
O20 Mn3 2.251 1_545 S
O20 C13 1.241 . S
O21 Mn22 2.163 . S
O21 C35 1.244 . S
Mn22 O21 2.163 . S
Mn22 O25 2.160 . S
Mn22 O26 2.221 . S
Mn22 O28 2.163 1_565 S
Mn22 O30 2.160 . S
Mn22 O40 2.221 . S
O23 Mn24 2.087 . S
O23 C35 1.256 . S
Mn24 O23 2.087 . S
Mn24 O31 2.089 . S
Mn24 O40 2.290 . S
Mn24 O41 2.251 . S
O25 Mn22 2.160 . S
O25 C36 1.239 . S
O26 Mn22 2.221 . S
O26 Mn27 2.290 1_565 S
O26 C37 1.278 . S
Mn27 O26 2.290 1_545 S
Mn27 O29 2.089 . S
Mn27 O32 2.251 1_545 S
Mn27 O33 2.087 . S
O28 Mn22 2.163 1_545 S
O28 C38 1.244 . S
O29 Mn27 2.089 . S
O29 C36 1.256 1_545 S
O30 Mn22 2.160 . S
O30 C39 1.239 . S
O31 Mn24 2.089 . S
O31 C39 1.256 . S
O32 Mn27 2.251 1_565 S
O32 C37 1.241 . S
O33 Mn27 2.087 . S
O33 C38 1.256 . S
C34 O40 1.278 . S
C34 O41 1.241 . S
C35 O21 1.244 . S
C35 O23 1.256 . S
C36 O25 1.239 . S
C36 O29 1.256 1_565 S
C37 O26 1.278 . S
C37 O32 1.241 . S
C38 O28 1.244 . S
C38 O33 1.256 . S
C39 O30 1.239 . S
C39 O31 1.256 . S
O40 Mn22 2.221 . S
O40 Mn24 2.290 . S
O40 C34 1.278 . S
O41 Mn24 2.251 . S
O41 C34 1.241 . S
O42 Mn43 2.163 . S
O42 C56 1.244 . S
Mn43 O42 2.163 . S
Mn43 O46 2.160 . S
Mn43 O47 2.221 . S
Mn43 O49 2.163 1_565 S
Mn43 O51 2.160 . S
Mn43 O61 2.221 . S
O44 Mn45 2.087 . S
O44 C56 1.256 . S
Mn45 O44 2.087 . S
Mn45 O52 2.089 . S
Mn45 O61 2.290 . S
Mn45 O62 2.251 . S
O46 Mn43 2.160 . S
O46 C57 1.239 . S
O47 Mn43 2.221 . S
O47 Mn48 2.290 1_565 S
O47 C58 1.278 . S
Mn48 O47 2.290 1_545 S
Mn48 O50 2.089 . S
Mn48 O53 2.251 1_545 S
Mn48 O54 2.087 . S
O49 Mn43 2.163 1_545 S
O49 C59 1.244 . S
O50 Mn48 2.089 . S
O50 C57 1.256 1_545 S
O51 Mn43 2.160 . S
O51 C60 1.239 . S
O52 Mn45 2.089 . S
O52 C60 1.256 . S
O53 Mn48 2.251 1_565 S
O53 C58 1.241 . S
O54 Mn48 2.087 . S
O54 C59 1.256 . S
C55 O61 1.278 . S
C55 O62 1.241 . S
C56 O42 1.244 . S
C56 O44 1.256 . S
C57 O46 1.239 . S
C57 O50 1.256 1_565 S
C58 O47 1.278 . S
C58 O53 1.241 . S
C59 O49 1.244 . S
C59 O54 1.256 . S
C60 O51 1.239 . S
C60 O52 1.256 . S
O61 Mn43 2.221 . S
O61 Mn45 2.290 . S
O61 C55 1.278 . S
O62 Mn45 2.251 . S
O62 C55 1.241 . S
O63 Mn64 2.163 . S
O63 C77 1.244 . S
Mn64 O63 2.163 . S
Mn64 O67 2.160 . S
Mn64 O68 2.221 . S
Mn64 O70 2.163 1_545 S
Mn64 O72 2.160 . S
Mn64 O82 2.221 . S
O65 Mn66 2.087 . S
O65 C77 1.256 . S
Mn66 O65 2.087 . S
Mn66 O73 2.089 . S
Mn66 O82 2.290 . S
Mn66 O83 2.251 . S
O67 Mn64 2.160 . S
O67 C78 1.239 . S
O68 Mn64 2.221 . S
O68 Mn69 2.290 1_545 S
O68 C79 1.278 . S
Mn69 O68 2.290 1_565 S
Mn69 O71 2.089 . S
Mn69 O74 2.251 1_565 S
Mn69 O75 2.087 . S
O70 Mn64 2.163 1_565 S
O70 C80 1.244 . S
O71 Mn69 2.089 . S
O71 C78 1.256 1_565 S
O72 Mn64 2.160 . S
O72 C81 1.239 . S
O73 Mn66 2.089 . S
O73 C81 1.256 . S
O74 Mn69 2.251 1_545 S
O74 C79 1.241 . S
O75 Mn69 2.087 . S
O75 C80 1.256 . S
C76 O82 1.278 . S
C76 O83 1.241 . S
C77 O63 1.244 . S
C77 O65 1.256 . S
C78 O67 1.239 . S
C78 O71 1.256 1_545 S
C79 O68 1.278 . S
C79 O74 1.241 . S
C80 O70 1.244 . S
C80 O75 1.256 . S
C81 O72 1.239 . S
C81 O73 1.256 . S
O82 Mn64 2.221 . S
O82 Mn66 2.290 . S
O82 C76 1.278 . S
O83 Mn66 2.251 . S
O83 C76 1.241 . S
O84 Mn85 2.163 . S
O84 C98 1.244 . S
Mn85 O84 2.163 . S
Mn85 O88 2.160 . S
Mn85 O89 2.221 . S
Mn85 O91 2.163 1_565 S
Mn85 O93 2.160 . S
Mn85 O103 2.221 . S
O86 Mn87 2.087 . S
O86 C98 1.256 . S
Mn87 O86 2.087 . S
Mn87 O94 2.089 . S
Mn87 O103 2.290 . S
Mn87 O104 2.251 . S
O88 Mn85 2.160 . S
O88 C99 1.239 . S
O89 Mn85 2.221 . S
O89 Mn90 2.290 1_565 S
O89 C100 1.278 . S
Mn90 O89 2.290 1_545 S
Mn90 O92 2.089 . S
Mn90 O95 2.251 1_545 S
Mn90 O96 2.087 . S
O91 Mn85 2.163 1_545 S
O91 C101 1.244 . S
O92 Mn90 2.089 . S
O92 C99 1.256 1_545 S
O93 Mn85 2.160 . S
O93 C102 1.239 . S
O94 Mn87 2.089 . S
O94 C102 1.256 . S
O95 Mn90 2.251 1_565 S
O95 C100 1.241 . S
O96 Mn90 2.087 . S
O96 C101 1.256 . S
C97 O103 1.278 . S
C97 O104 1.241 . S
C98 O84 1.244 . S
C98 O86 1.256 . S
C99 O88 1.239 . S
C99 O92 1.256 1_565 S
C100 O89 1.278 . S
C100 O95 1.241 . S
C101 O91 1.244 . S
C101 O96 1.256 . S
C102 O93 1.239 . S
C102 O94 1.256 . S
O103 Mn85 2.221 . S
O103 Mn87 2.290 . S
O103 C97 1.278 . S
O104 Mn87 2.251 . S
O104 C97 1.241 . S
O105 Mn106 2.163 . S
O105 C119 1.244 . S
Mn106 O105 2.163 . S
Mn106 O109 2.160 . S
Mn106 O110 2.221 . S
Mn106 O112 2.163 1_545 S
Mn106 O114 2.160 . S
Mn106 O124 2.221 . S
O107 Mn108 2.087 . S
O107 C119 1.256 . S
Mn108 O107 2.087 . S
Mn108 O115 2.089 . S
Mn108 O124 2.290 . S
Mn108 O125 2.251 . S
O109 Mn106 2.160 . S
O109 C120 1.239 . S
O110 Mn106 2.221 . S
O110 Mn111 2.290 1_545 S
O110 C121 1.278 . S
Mn111 O110 2.290 1_565 S
Mn111 O113 2.089 . S
Mn111 O116 2.251 1_565 S
Mn111 O117 2.087 . S
O112 Mn106 2.163 1_565 S
O112 C122 1.244 . S
O113 Mn111 2.089 . S
O113 C120 1.256 1_565 S
O114 Mn106 2.160 . S
O114 C123 1.239 . S
O115 Mn108 2.089 . S
O115 C123 1.256 . S
O116 Mn111 2.251 1_545 S
O116 C121 1.241 . S
O117 Mn111 2.087 . S
O117 C122 1.256 . S
C118 O124 1.278 . S
C118 O125 1.241 . S
C119 O105 1.244 . S
C119 O107 1.256 . S
C120 O109 1.239 . S
C120 O113 1.256 1_545 S
C121 O110 1.278 . S
C121 O116 1.241 . S
C122 O112 1.244 . S
C122 O117 1.256 . S
C123 O114 1.239 . S
C123 O115 1.256 . S
O124 Mn106 2.221 . S
O124 Mn108 2.290 . S
O124 C118 1.278 . S
O125 Mn108 2.251 . S
O125 C118 1.241 . S
O126 Mn127 2.163 . S
O126 C140 1.244 . S
Mn127 O126 2.163 . S
Mn127 O130 2.160 . S
Mn127 O131 2.221 . S
Mn127 O133 2.163 1_545 S
Mn127 O135 2.160 . S
Mn127 O145 2.221 . S
O128 Mn129 2.087 . S
O128 C140 1.256 . S
Mn129 O128 2.087 . S
Mn129 O136 2.089 . S
Mn129 O145 2.290 . S
Mn129 O146 2.251 . S
O130 Mn127 2.160 . S
O130 C141 1.239 . S
O131 Mn127 2.221 . S
O131 Mn132 2.290 1_545 S
O131 C142 1.278 . S
Mn132 O131 2.290 1_565 S
Mn132 O134 2.089 . S
Mn132 O137 2.251 1_565 S
Mn132 O138 2.087 . S
O133 Mn127 2.163 1_565 S
O133 C143 1.244 . S
O134 Mn132 2.089 . S
O134 C141 1.256 1_565 S
O135 Mn127 2.160 . S
O135 C144 1.239 . S
O136 Mn129 2.089 . S
O136 C144 1.256 . S
O137 Mn132 2.251 1_545 S
O137 C142 1.241 . S
O138 Mn132 2.087 . S
O138 C143 1.256 . S
C139 O145 1.278 . S
C139 O146 1.241 . S
C140 O126 1.244 . S
C140 O128 1.256 . S
C141 O130 1.239 . S
C141 O134 1.256 1_545 S
C142 O131 1.278 . S
C142 O137 1.241 . S
C143 O133 1.244 . S
C143 O138 1.256 . S
C144 O135 1.239 . S
C144 O136 1.256 . S
O145 Mn127 2.221 . S
O145 Mn129 2.290 . S
O145 C139 1.278 . S
O146 Mn129 2.251 . S
O146 C139 1.241 . S
O147 Mn148 2.163 . S
O147 C161 1.244 . S
Mn148 O147 2.163 . S
Mn148 O151 2.160 . S
Mn148 O152 2.221 . S
Mn148 O154 2.163 1_565 S
Mn148 O156 2.160 . S
Mn148 O166 2.221 . S
O149 Mn150 2.087 . S
O149 C161 1.256 . S
Mn150 O149 2.087 . S
Mn150 O157 2.089 . S
Mn150 O166 2.290 . S
Mn150 O167 2.251 . S
O151 Mn148 2.160 . S
O151 C162 1.239 . S
O152 Mn148 2.221 . S
O152 Mn153 2.290 1_565 S
O152 C163 1.278 . S
Mn153 O152 2.290 1_545 S
Mn153 O155 2.089 . S
Mn153 O158 2.251 1_545 S
Mn153 O159 2.087 . S
O154 Mn148 2.163 1_545 S
O154 C164 1.244 . S
O155 Mn153 2.089 . S
O155 C162 1.256 1_545 S
O156 Mn148 2.160 . S
O156 C165 1.239 . S
O157 Mn150 2.089 . S
O157 C165 1.256 . S
O158 Mn153 2.251 1_565 S
O158 C163 1.241 . S
O159 Mn153 2.087 . S
O159 C164 1.256 . S
C160 O166 1.278 . S
C160 O167 1.241 . S
C161 O147 1.244 . S
C161 O149 1.256 . S
C162 O151 1.239 . S
C162 O155 1.256 1_565 S
C163 O152 1.278 . S
C163 O158 1.241 . S
C164 O154 1.244 . S
C164 O159 1.256 . S
C165 O156 1.239 . S
C165 O157 1.256 . S
O166 Mn148 2.221 . S
O166 Mn150 2.290 . S
O166 C160 1.278 . S
O167 Mn150 2.251 . S
O167 C160 1.241 . S
O168 Mn169 2.163 . S
O168 C182 1.244 . S
Mn169 O168 2.163 . S
Mn169 O172 2.160 . S
Mn169 O173 2.221 . S
Mn169 O175 2.163 . S
Mn169 O177 2.160 . S
Mn169 O187 2.221 . S
O170 Mn171 2.087 . S
O170 C182 1.256 . S
Mn171 O170 2.087 . S
Mn171 O178 2.089 . S
Mn171 O187 2.290 . S
Mn171 O188 2.251 . S
O172 Mn169 2.160 . S
O172 C183 1.239 . S
O173 Mn169 2.221 . S
O173 Mn174 2.290 . S
O173 C184 1.278 . S
Mn174 O173 2.290 . S
Mn174 O176 2.089 . S
Mn174 O179 2.251 . S
Mn174 O180 2.087 . S
O175 Mn169 2.163 . S
O175 C185 1.244 . S
O176 Mn174 2.089 . S
O176 C183 1.256 . S
O177 Mn169 2.160 . S
O177 C186 1.239 . S
O178 Mn171 2.089 . S
O178 C186 1.256 . S
O179 Mn174 2.251 . S
O179 C184 1.241 . S
O180 Mn174 2.087 . S
O180 C185 1.256 . S
C181 O187 1.278 . S
C181 O188 1.241 . S
C182 O168 1.244 . S
C182 O170 1.256 . S
C183 O172 1.239 . S
C183 O176 1.256 . S
C184 O173 1.278 . S
C184 O179 1.241 . S
C185 O175 1.244 . S
C185 O180 1.256 . S
C186 O177 1.239 . S
C186 O178 1.256 . S
O187 Mn169 2.221 . S
O187 Mn171 2.290 . S
O187 C181 1.278 . S
O188 Mn171 2.251 . S
O188 C181 1.241 . S
O189 Mn190 2.163 . S
O189 C203 1.244 . S
Mn190 O189 2.163 . S
Mn190 O193 2.160 . S
Mn190 O194 2.221 . S
Mn190 O196 2.163 . S
Mn190 O198 2.160 . S
Mn190 O208 2.221 . S
O191 Mn192 2.087 . S
O191 C203 1.256 . S
Mn192 O191 2.087 . S
Mn192 O199 2.089 . S
Mn192 O208 2.290 . S
Mn192 O209 2.251 . S
O193 Mn190 2.160 . S
O193 C204 1.239 . S
O194 Mn190 2.221 . S
O194 Mn195 2.290 . S
O194 C205 1.278 . S
Mn195 O194 2.290 . S
Mn195 O197 2.089 . S
Mn195 O200 2.251 . S
Mn195 O201 2.087 . S
O196 Mn190 2.163 . S
O196 C206 1.244 . S
O197 Mn195 2.089 . S
O197 C204 1.256 . S
O198 Mn190 2.160 . S
O198 C207 1.239 . S
O199 Mn192 2.089 . S
O199 C207 1.256 . S
O200 Mn195 2.251 . S
O200 C205 1.241 . S
O201 Mn195 2.087 . S
O201 C206 1.256 . S
C202 O208 1.278 . S
C202 O209 1.241 . S
C203 O189 1.244 . S
C203 O191 1.256 . S
C204 O193 1.239 . S
C204 O197 1.256 . S
C205 O194 1.278 . S
C205 O200 1.241 . S
C206 O196 1.244 . S
C206 O201 1.256 . S
C207 O198 1.239 . S
C207 O199 1.256 . S
O208 Mn190 2.221 . S
O208 Mn192 2.290 . S
O208 C202 1.278 . S
O209 Mn192 2.251 . S
O209 C202 1.241 . S
O210 Mn211 2.163 . S
O210 C224 1.244 . S
Mn211 O210 2.163 . S
Mn211 O214 2.160 . S
Mn211 O215 2.221 . S
Mn211 O217 2.163 . S
Mn211 O219 2.160 . S
Mn211 O229 2.221 . S
O212 Mn213 2.087 . S
O212 C224 1.256 . S
Mn213 O212 2.087 . S
Mn213 O220 2.089 . S
Mn213 O229 2.290 . S
Mn213 O230 2.251 . S
O214 Mn211 2.160 . S
O214 C225 1.239 . S
O215 Mn211 2.221 . S
O215 Mn216 2.290 . S
O215 C226 1.278 . S
Mn216 O215 2.290 . S
Mn216 O218 2.089 . S
Mn216 O221 2.251 . S
Mn216 O222 2.087 . S
O217 Mn211 2.163 . S
O217 C227 1.244 . S
O218 Mn216 2.089 . S
O218 C225 1.256 . S
O219 Mn211 2.160 . S
O219 C228 1.239 . S
O220 Mn213 2.089 . S
O220 C228 1.256 . S
O221 Mn216 2.251 . S
O221 C226 1.241 . S
O222 Mn216 2.087 . S
O222 C227 1.256 . S
C223 O229 1.278 . S
C223 O230 1.241 . S
C224 O210 1.244 . S
C224 O212 1.256 . S
C225 O214 1.239 . S
C225 O218 1.256 . S
C226 O215 1.278 . S
C226 O221 1.241 . S
C227 O217 1.244 . S
C227 O222 1.256 . S
C228 O219 1.239 . S
C228 O220 1.256 . S
O229 Mn211 2.221 . S
O229 Mn213 2.290 . S
O229 C223 1.278 . S
O230 Mn213 2.251 . S
O230 C223 1.241 . S
O231 Mn232 2.163 . S
O231 C245 1.244 . S
Mn232 O231 2.163 . S
Mn232 O235 2.160 . S
Mn232 O236 2.221 . S
Mn232 O238 2.163 . S
Mn232 O240 2.160 . S
Mn232 O250 2.221 . S
O233 Mn234 2.087 . S
O233 C245 1.256 . S
Mn234 O233 2.087 . S
Mn234 O241 2.089 . S
Mn234 O250 2.290 . S
Mn234 O251 2.251 . S
O235 Mn232 2.160 . S
O235 C246 1.239 . S
O236 Mn232 2.221 . S
O236 Mn237 2.290 . S
O236 C247 1.278 . S
Mn237 O236 2.290 . S
Mn237 O239 2.089 . S
Mn237 O242 2.251 . S
Mn237 O243 2.087 . S
O238 Mn232 2.163 . S
O238 C248 1.244 . S
O239 Mn237 2.089 . S
O239 C246 1.256 . S
O240 Mn232 2.160 . S
O240 C249 1.239 . S
O241 Mn234 2.089 . S
O241 C249 1.256 . S
O242 Mn237 2.251 . S
O242 C247 1.241 . S
O243 Mn237 2.087 . S
O243 C248 1.256 . S
C244 O250 1.278 . S
C244 O251 1.241 . S
C245 O231 1.244 . S
C245 O233 1.256 . S
C246 O235 1.239 . S
C246 O239 1.256 . S
C247 O236 1.278 . S
C247 O242 1.241 . S
C248 O238 1.244 . S
C248 O243 1.256 . S
C249 O240 1.239 . S
C249 O241 1.256 . S
O250 Mn232 2.221 . S
O250 Mn234 2.290 . S
O250 C244 1.278 . S
O251 Mn234 2.251 . S
O251 C244 1.241 . S
O252 Mn253 2.163 . S
O252 C266 1.244 . S
Mn253 O252 2.163 . S
Mn253 O256 2.160 . S
Mn253 O257 2.221 . S
Mn253 O259 2.163 . S
Mn253 O261 2.160 . S
Mn253 O271 2.221 . S
O254 Mn255 2.087 . S
O254 C266 1.256 . S
Mn255 O254 2.087 . S
Mn255 O262 2.089 . S
Mn255 O271 2.290 . S
Mn255 O272 2.251 . S
O256 Mn253 2.160 . S
O256 C267 1.239 . S
O257 Mn253 2.221 . S
O257 Mn258 2.290 . S
O257 C268 1.278 . S
Mn258 O257 2.290 . S
Mn258 O260 2.089 . S
Mn258 O263 2.251 . S
Mn258 O264 2.087 . S
O259 Mn253 2.163 . S
O259 C269 1.244 . S
O260 Mn258 2.089 . S
O260 C267 1.256 . S
O261 Mn253 2.160 . S
O261 C270 1.239 . S
O262 Mn255 2.089 . S
O262 C270 1.256 . S
O263 Mn258 2.251 . S
O263 C268 1.241 . S
O264 Mn258 2.087 . S
O264 C269 1.256 . S
C265 O271 1.278 . S
C265 O272 1.241 . S
C266 O252 1.244 . S
C266 O254 1.256 . S
C267 O256 1.239 . S
C267 O260 1.256 . S
C268 O257 1.278 . S
C268 O263 1.241 . S
C269 O259 1.244 . S
C269 O264 1.256 . S
C270 O261 1.239 . S
C270 O262 1.256 . S
O271 Mn253 2.221 . S
O271 Mn255 2.290 . S
O271 C265 1.278 . S
O272 Mn255 2.251 . S
O272 C265 1.241 . S
O273 Mn274 2.163 . S
O273 C287 1.244 . S
Mn274 O273 2.163 . S
Mn274 O277 2.160 . S
Mn274 O278 2.221 . S
Mn274 O280 2.163 . S
Mn274 O282 2.160 . S
Mn274 O292 2.221 . S
O275 Mn276 2.087 . S
O275 C287 1.256 . S
Mn276 O275 2.087 . S
Mn276 O283 2.089 . S
Mn276 O292 2.290 . S
Mn276 O293 2.251 . S
O277 Mn274 2.160 . S
O277 C288 1.239 . S
O278 Mn274 2.221 . S
O278 Mn279 2.290 . S
O278 C289 1.278 . S
Mn279 O278 2.290 . S
Mn279 O281 2.089 . S
Mn279 O284 2.251 . S
Mn279 O285 2.087 . S
O280 Mn274 2.163 . S
O280 C290 1.244 . S
O281 Mn279 2.089 . S
O281 C288 1.256 . S
O282 Mn274 2.160 . S
O282 C291 1.239 . S
O283 Mn276 2.089 . S
O283 C291 1.256 . S
O284 Mn279 2.251 . S
O284 C289 1.241 . S
O285 Mn279 2.087 . S
O285 C290 1.256 . S
C286 O292 1.278 . S
C286 O293 1.241 . S
C287 O273 1.244 . S
C287 O275 1.256 . S
C288 O277 1.239 . S
C288 O281 1.256 . S
C289 O278 1.278 . S
C289 O284 1.241 . S
C290 O280 1.244 . S
C290 O285 1.256 . S
C291 O282 1.239 . S
C291 O283 1.256 . S
O292 Mn274 2.221 . S
O292 Mn276 2.290 . S
O292 C286 1.278 . S
O293 Mn276 2.251 . S
O293 C286 1.241 . S
O294 Mn295 2.163 . S
O294 C308 1.244 . S
Mn295 O294 2.163 . S
Mn295 O298 2.160 . S
Mn295 O299 2.221 . S
Mn295 O301 2.163 . S
Mn295 O303 2.160 . S
Mn295 O313 2.221 . S
O296 Mn297 2.087 . S
O296 C308 1.256 . S
Mn297 O296 2.087 . S
Mn297 O304 2.089 . S
Mn297 O313 2.290 . S
Mn297 O314 2.251 . S
O298 Mn295 2.160 . S
O298 C309 1.239 . S
O299 Mn295 2.221 . S
O299 Mn300 2.290 . S
O299 C310 1.278 . S
Mn300 O299 2.290 . S
Mn300 O302 2.089 . S
Mn300 O305 2.251 . S
Mn300 O306 2.087 . S
O301 Mn295 2.163 . S
O301 C311 1.244 . S
O302 Mn300 2.089 . S
O302 C309 1.256 . S
O303 Mn295 2.160 . S
O303 C312 1.239 . S
O304 Mn297 2.089 . S
O304 C312 1.256 . S
O305 Mn300 2.251 . S
O305 C310 1.241 . S
O306 Mn300 2.087 . S
O306 C311 1.256 . S
C307 O313 1.278 . S
C307 O314 1.241 . S
C308 O294 1.244 . S
C308 O296 1.256 . S
C309 O298 1.239 . S
C309 O302 1.256 . S
C310 O299 1.278 . S
C310 O305 1.241 . S
C311 O301 1.244 . S
C311 O306 1.256 . S
C312 O303 1.239 . S
C312 O304 1.256 . S
O313 Mn295 2.221 . S
O313 Mn297 2.290 . S
O313 C307 1.278 . S
O314 Mn297 2.251 . S
O314 C307 1.241 . S
O315 Mn316 2.163 . S
O315 C329 1.244 . S
Mn316 O315 2.163 . S
Mn316 O319 2.160 . S
Mn316 O320 2.221 . S
Mn316 O322 2.163 . S
Mn316 O324 2.160 . S
Mn316 O334 2.221 . S
O317 Mn318 2.087 . S
O317 C329 1.256 . S
Mn318 O317 2.087 . S
Mn318 O325 2.089 . S
Mn318 O334 2.290 . S
Mn318 O335 2.251 . S
O319 Mn316 2.160 . S
O319 C330 1.239 . S
O320 Mn316 2.221 . S
O320 Mn321 2.290 . S
O320 C331 1.278 . S
Mn321 O320 2.290 . S
Mn321 O323 2.089 . S
Mn321 O326 2.251 . S
Mn321 O327 2.087 . S
O322 Mn316 2.163 . S
O322 C332 1.244 . S
O323 Mn321 2.089 . S
O323 C330 1.256 . S
O324 Mn316 2.160 . S
O324 C333 1.239 . S
O325 Mn318 2.089 . S
O325 C333 1.256 . S
O326 Mn321 2.251 . S
O326 C331 1.241 . S
O327 Mn321 2.087 . S
O327 C332 1.256 . S
C328 O334 1.278 . S
C328 O335 1.241 . S
C329 O315 1.244 . S
C329 O317 1.256 . S
C330 O319 1.239 . S
C330 O323 1.256 . S
C331 O320 1.278 . S
C331 O326 1.241 . S
C332 O322 1.244 . S
C332 O327 1.256 . S
C333 O324 1.239 . S
C333 O325 1.256 . S
O334 Mn316 2.221 . S
O334 Mn318 2.290 . S
O334 C328 1.278 . S
O335 Mn318 2.251 . S
O335 C328 1.241 . S
C336 C337 1.387 . S
C336 H340 0.950 . S
C336 C345 1.390 . S
C337 C336 1.387 . S
C337 C339 1.387 . S
H338 C345 0.950 . S
C339 C337 1.387 . S
C339 C341 1.390 . S
C339 H343 0.950 . S
H340 C336 0.950 . S
C341 C339 1.390 . S
C341 C342 1.387 . S
C341 H344 0.950 . S
C342 C341 1.387 . S
C342 C345 1.387 . S
H343 C339 0.950 . S
H344 C341 0.950 . S
C345 C336 1.390 . S
C345 H338 0.950 . S
C345 C342 1.387 . S
C346 C347 1.387 . S
C346 H350 0.950 . S
C346 C355 1.390 . S
C347 C346 1.387 . S
C347 C349 1.387 . S
H348 C355 0.950 . S
C349 C347 1.387 . S
C349 C351 1.390 . S
C349 H353 0.950 . S
H350 C346 0.950 . S
C351 C349 1.390 . S
C351 C352 1.387 . S
C351 H354 0.950 . S
C352 C351 1.387 . S
C352 C355 1.387 . S
H353 C349 0.950 . S
H354 C351 0.950 . S
C355 C346 1.390 . S
C355 H348 0.950 . S
C355 C352 1.387 . S
C356 C357 1.387 . S
C356 H360 0.950 . S
C356 C365 1.390 . S
C357 C356 1.387 . S
C357 C359 1.387 . S
H358 C365 0.950 . S
C359 C357 1.387 . S
C359 C361 1.390 . S
C359 H363 0.950 . S
H360 C356 0.950 . S
C361 C359 1.390 . S
C361 C362 1.387 . S
C361 H364 0.950 . S
C362 C361 1.387 . S
C362 C365 1.387 . S
H363 C359 0.950 . S
H364 C361 0.950 . S
C365 C356 1.390 . S
C365 H358 0.950 . S
C365 C362 1.387 . S
C366 C367 1.387 . S
C366 H370 0.950 . S
C366 C375 1.390 . S
C367 C366 1.387 . S
C367 C369 1.387 . S
H368 C375 0.950 . S
C369 C367 1.387 . S
C369 C371 1.390 . S
C369 H373 0.950 . S
H370 C366 0.950 . S
C371 C369 1.390 . S
C371 C372 1.387 . S
C371 H374 0.950 . S
C372 C371 1.387 . S
C372 C375 1.387 . S
H373 C369 0.950 . S
H374 C371 0.950 . S
C375 C366 1.390 . S
C375 H368 0.950 . S
C375 C372 1.387 . S
C376 C377 1.387 . S
C376 H380 0.950 . S
C376 C385 1.390 . S
C377 C376 1.387 . S
C377 C379 1.387 . S
H378 C385 0.950 . S
C379 C377 1.387 . S
C379 C381 1.390 . S
C379 H383 0.950 . S
H380 C376 0.950 . S
C381 C379 1.390 . S
C381 C382 1.387 . S
C381 H384 0.950 . S
C382 C381 1.387 . S
C382 C385 1.387 . S
H383 C379 0.950 . S
H384 C381 0.950 . S
C385 C376 1.390 . S
C385 H378 0.950 . S
C385 C382 1.387 . S
C386 C387 1.387 . S
C386 H390 0.950 . S
C386 C395 1.390 . S
C387 C386 1.387 . S
C387 C389 1.387 . S
H388 C395 0.950 . S
C389 C387 1.387 . S
C389 C391 1.390 . S
C389 H393 0.950 . S
H390 C386 0.950 . S
C391 C389 1.390 . S
C391 C392 1.387 . S
C391 H394 0.950 . S
C392 C391 1.387 . S
C392 C395 1.387 . S
H393 C389 0.950 . S
H394 C391 0.950 . S
C395 C386 1.390 . S
C395 H388 0.950 . S
C395 C392 1.387 . S
C396 C397 1.387 . S
C396 H400 0.950 . S
C396 C405 1.390 . S
C397 C396 1.387 . S
C397 C399 1.387 . S
H398 C405 0.950 . S
C399 C397 1.387 . S
C399 C401 1.390 . S
C399 H403 0.950 . S
H400 C396 0.950 . S
C401 C399 1.390 . S
C401 C402 1.387 . S
C401 H404 0.950 . S
C402 C401 1.387 . S
C402 C405 1.387 . S
H403 C399 0.950 . S
H404 C401 0.950 . S
C405 C396 1.390 . S
C405 H398 0.950 . S
C405 C402 1.387 . S
C406 C407 1.387 . S
C406 H410 0.950 . S
C406 C415 1.390 . S
C407 C406 1.387 . S
C407 C409 1.387 . S
H408 C415 0.950 . S
C409 C407 1.387 . S
C409 C411 1.390 . S
C409 H413 0.950 . S
H410 C406 0.950 . S
C411 C409 1.390 . S
C411 C412 1.387 . S
C411 H414 0.950 . S
C412 C411 1.387 . S
C412 C415 1.387 . S
H413 C409 0.950 . S
H414 C411 0.950 . S
C415 C406 1.390 . S
C415 H408 0.950 . S
C415 C412 1.387 . S
C416 C417 1.387 . S
C416 H420 0.950 . S
C416 C425 1.390 1_565 S
C417 C416 1.387 . S
C417 C419 1.387 . S
H418 C425 0.950 . S
C419 C417 1.387 . S
C419 C421 1.390 1_565 S
C419 H423 0.950 . S
H420 C416 0.950 . S
C421 C419 1.390 1_545 S
C421 C422 1.387 . S
C421 H424 0.950 . S
C422 C421 1.387 . S
C422 C425 1.387 . S
H423 C419 0.950 . S
H424 C421 0.950 . S
C425 C416 1.390 1_545 S
C425 H418 0.950 . S
C425 C422 1.387 . S
C426 C427 1.387 . S
C426 H430 0.950 . S
C426 C435 1.390 1_545 S
C427 C426 1.387 . S
C427 C429 1.387 . S
H428 C435 0.950 . S
C429 C427 1.387 . S
C429 C431 1.390 1_545 S
C429 H433 0.950 . S
H430 C426 0.950 . S
C431 C429 1.390 1_565 S
C431 C432 1.387 . S
C431 H434 0.950 . S
C432 C431 1.387 . S
C432 C435 1.387 . S
H433 C429 0.950 . S
H434 C431 0.950 . S
C435 C426 1.390 1_565 S
C435 H428 0.950 . S
C435 C432 1.387 . S
C436 C437 1.387 . S
C436 H440 0.950 . S
C436 C445 1.390 1_545 S
C437 C436 1.387 . S
C437 C439 1.387 . S
H438 C445 0.950 . S
C439 C437 1.387 . S
C439 C441 1.390 1_545 S
C439 H443 0.950 . S
H440 C436 0.950 . S
C441 C439 1.390 1_565 S
C441 C442 1.387 . S
C441 H444 0.950 . S
C442 C441 1.387 . S
C442 C445 1.387 . S
H443 C439 0.950 . S
H444 C441 0.950 . S
C445 C436 1.390 1_565 S
C445 H438 0.950 . S
C445 C442 1.387 . S
C446 C447 1.387 . S
C446 H450 0.950 . S
C446 C455 1.390 1_545 S
C447 C446 1.387 . S
C447 C449 1.387 . S
H448 C455 0.950 . S
C449 C447 1.387 . S
C449 C451 1.390 1_545 S
C449 H453 0.950 . S
H450 C446 0.950 . S
C451 C449 1.390 1_565 S
C451 C452 1.387 . S
C451 H454 0.950 . S
C452 C451 1.387 . S
C452 C455 1.387 . S
H453 C449 0.950 . S
H454 C451 0.950 . S
C455 C446 1.390 1_565 S
C455 H448 0.950 . S
C455 C452 1.387 . S
C456 C457 1.387 . S
C456 H460 0.950 . S
C456 C465 1.390 . S
C457 C456 1.387 . S
C457 C459 1.387 . S
H458 C465 0.950 . S
C459 C457 1.387 . S
C459 C461 1.390 . S
C459 H463 0.950 . S
H460 C456 0.950 . S
C461 C459 1.390 . S
C461 C462 1.387 . S
C461 H464 0.950 . S
C462 C461 1.387 . S
C462 C465 1.387 . S
H463 C459 0.950 . S
H464 C461 0.950 . S
C465 C456 1.390 . S
C465 H458 0.950 . S
C465 C462 1.387 . S
C466 C467 1.387 . S
C466 H470 0.950 . S
C466 C475 1.390 . S
C467 C466 1.387 . S
C467 C469 1.387 . S
H468 C475 0.950 . S
C469 C467 1.387 . S
C469 C471 1.390 . S
C469 H473 0.950 . S
H470 C466 0.950 . S
C471 C469 1.390 . S
C471 C472 1.387 . S
C471 H474 0.950 . S
C472 C471 1.387 . S
C472 C475 1.387 . S
H473 C469 0.950 . S
H474 C471 0.950 . S
C475 C466 1.390 . S
C475 H468 0.950 . S
C475 C472 1.387 . S
C476 C477 1.387 . S
C476 H480 0.950 . S
C476 C485 1.390 . S
C477 C476 1.387 . S
C477 C479 1.387 . S
H478 C485 0.950 . S
C479 C477 1.387 . S
C479 C481 1.390 . S
C479 H483 0.950 . S
H480 C476 0.950 . S
C481 C479 1.390 . S
C481 C482 1.387 . S
C481 H484 0.950 . S
C482 C481 1.387 . S
C482 C485 1.387 . S
H483 C479 0.950 . S
H484 C481 0.950 . S
C485 C476 1.390 . S
C485 H478 0.950 . S
C485 C482 1.387 . S
C486 C487 1.387 . S
C486 H490 0.950 . S
C486 C495 1.390 . S
C487 C486 1.387 . S
C487 C489 1.387 . S
H488 C495 0.950 . S
C489 C487 1.387 . S
C489 C491 1.390 . S
C489 H493 0.950 . S
H490 C486 0.950 . S
C491 C489 1.390 . S
C491 C492 1.387 . S
C491 H494 0.950 . S
C492 C491 1.387 . S
C492 C495 1.387 . S
H493 C489 0.950 . S
H494 C491 0.950 . S
C495 C486 1.390 . S
C495 H488 0.950 . S
C495 C492 1.387 . S
C496 C497 1.387 . S
C496 H500 0.950 1_545 S
C496 C505 1.390 1_556 S
C497 C496 1.387 . S
C497 C499 1.387 . S
H498 C505 0.950 1_565 S
C499 C497 1.387 . S
C499 C501 1.390 1_556 S
C499 H503 0.950 . S
H500 C496 0.950 1_565 S
C501 C499 1.390 1_554 S
C501 C502 1.387 . S
C501 H504 0.950 . S
C502 C501 1.387 . S
C502 C505 1.387 . S
H503 C499 0.950 . S
H504 C501 0.950 . S
C505 C496 1.390 1_554 S
C505 H498 0.950 1_545 S
C505 C502 1.387 . S
C506 C507 1.387 . S
C506 H510 0.950 . S
C506 C515 1.390 1_556 S
C507 C506 1.387 . S
C507 C509 1.387 . S
H508 C515 0.950 . S
C509 C507 1.387 . S
C509 C511 1.390 1_556 S
C509 H513 0.950 1_565 S
H510 C506 0.950 . S
C511 C509 1.390 1_554 S
C511 C512 1.387 . S
C511 H514 0.950 1_565 S
C512 C511 1.387 . S
C512 C515 1.387 . S
H513 C509 0.950 1_545 S
H514 C511 0.950 1_545 S
C515 C506 1.390 1_554 S
C515 H508 0.950 . S
C515 C512 1.387 . S
C516 C517 1.387 . S
C516 H520 0.950 1_565 S
C516 C525 1.390 . S
C517 C516 1.387 . S
C517 C519 1.387 . S
H518 C525 0.950 1_545 S
C519 C517 1.387 . S
C519 C521 1.390 . S
C519 H523 0.950 . S
H520 C516 0.950 1_545 S
C521 C519 1.390 . S
C521 C522 1.387 . S
C521 H524 0.950 . S
C522 C521 1.387 . S
C522 C525 1.387 . S
H523 C519 0.950 . S
H524 C521 0.950 . S
C525 C516 1.390 . S
C525 H518 0.950 1_565 S
C525 C522 1.387 . S
C526 C527 1.387 . S
C526 H530 0.950 1_545 S
C526 C535 1.390 . S
C527 C526 1.387 . S
C527 C529 1.387 . S
H528 C535 0.950 1_565 S
C529 C527 1.387 . S
C529 C531 1.390 . S
C529 H533 0.950 . S
H530 C526 0.950 1_565 S
C531 C529 1.390 . S
C531 C532 1.387 . S
C531 H534 0.950 . S
C532 C531 1.387 . S
C532 C535 1.387 . S
H533 C529 0.950 . S
H534 C531 0.950 . S
C535 C526 1.390 . S
C535 H528 0.950 1_545 S
C535 C532 1.387 . S
C536 C537 1.387 . S
C536 H540 0.950 . S
C536 C545 1.390 1_554 S
C537 C536 1.387 . S
C537 C539 1.387 . S
H538 C545 0.950 . S
C539 C537 1.387 . S
C539 C541 1.390 1_554 S
C539 H543 0.950 . S
H540 C536 0.950 . S
C541 C539 1.390 1_556 S
C541 C542 1.387 . S
C541 H544 0.950 . S
C542 C541 1.387 . S
C542 C545 1.387 . S
H543 C539 0.950 . S
H544 C541 0.950 . S
C545 C536 1.390 1_556 S
C545 H538 0.950 . S
C545 C542 1.387 . S
C546 C547 1.387 . S
C546 H550 0.950 . S
C546 C555 1.390 1_556 S
C547 C546 1.387 . S
C547 C549 1.387 . S
H548 C555 0.950 . S
C549 C547 1.387 . S
C549 C551 1.390 1_556 S
C549 H553 0.950 . S
H550 C546 0.950 . S
C551 C549 1.390 1_554 S
C551 C552 1.387 . S
C551 H554 0.950 . S
C552 C551 1.387 . S
C552 C555 1.387 . S
H553 C549 0.950 . S
H554 C551 0.950 . S
C555 C546 1.390 1_554 S
C555 H548 0.950 . S
C555 C552 1.387 . S
C556 C557 1.387 . S
C556 H560 0.950 . S
C556 C565 1.390 . S
C557 C556 1.387 . S
C557 C559 1.387 . S
H558 C565 0.950 . S
C559 C557 1.387 . S
C559 C561 1.390 . S
C559 H563 0.950 . S
H560 C556 0.950 . S
C561 C559 1.390 . S
C561 C562 1.387 . S
C561 H564 0.950 . S
C562 C561 1.387 . S
C562 C565 1.387 . S
H563 C559 0.950 . S
H564 C561 0.950 . S
C565 C556 1.390 . S
C565 H558 0.950 . S
C565 C562 1.387 . S
C566 C567 1.387 . S
C566 H570 0.950 . S
C566 C575 1.390 . S
C567 C566 1.387 . S
C567 C569 1.387 . S
H568 C575 0.950 . S
C569 C567 1.387 . S
C569 C571 1.390 . S
C569 H573 0.950 . S
H570 C566 0.950 . S
C571 C569 1.390 . S
C571 C572 1.387 . S
C571 H574 0.950 . S
C572 C571 1.387 . S
C572 C575 1.387 . S
H573 C569 0.950 . S
H574 C571 0.950 . S
C575 C566 1.390 . S
C575 H568 0.950 . S
C575 C572 1.387 . S
C576 C577 1.387 . S
C576 H580 0.950 . S
C576 C585 1.390 1_665 S
C577 C576 1.387 . S
C577 C579 1.387 . S
H578 C585 0.950 . S
C579 C577 1.387 . S
C579 C581 1.390 1_665 S
C579 H583 0.950 . S
H580 C576 0.950 . S
C581 C579 1.390 1_445 S
C581 C582 1.387 . S
C581 H584 0.950 . S
C582 C581 1.387 . S
C582 C585 1.387 . S
H583 C579 0.950 . S
H584 C581 0.950 . S
C585 C576 1.390 1_445 S
C585 H578 0.950 . S
C585 C582 1.387 . S
C586 C587 1.387 . S
C586 H590 0.950 . S
C586 C595 1.390 1_645 S
C587 C586 1.387 . S
C587 C589 1.387 . S
H588 C595 0.950 . S
C589 C587 1.387 . S
C589 C591 1.390 1_645 S
C589 H593 0.950 . S
H590 C586 0.950 . S
C591 C589 1.390 1_465 S
C591 C592 1.387 . S
C591 H594 0.950 . S
C592 C591 1.387 . S
C592 C595 1.387 . S
H593 C589 0.950 . S
H594 C591 0.950 . S
C595 C586 1.390 1_465 S
C595 H588 0.950 . S
C595 C592 1.387 . S
C596 C597 1.387 . S
C596 H600 0.950 . S
C596 C605 1.390 1_445 S
C597 C596 1.387 . S
C597 C599 1.387 . S
H598 C605 0.950 . S
C599 C597 1.387 . S
C599 C601 1.390 1_445 S
C599 H603 0.950 . S
H600 C596 0.950 . S
C601 C599 1.390 1_665 S
C601 C602 1.387 . S
C601 H604 0.950 . S
C602 C601 1.387 . S
C602 C605 1.387 . S
H603 C599 0.950 . S
H604 C601 0.950 . S
C605 C596 1.390 1_665 S
C605 H598 0.950 . S
C605 C602 1.387 . S
C606 C607 1.387 . S
C606 H610 0.950 . S
C606 C615 1.390 1_645 S
C607 C606 1.387 . S
C607 C609 1.387 . S
H608 C615 0.950 . S
C609 C607 1.387 . S
C609 C611 1.390 1_645 S
C609 H613 0.950 . S
H610 C606 0.950 . S
C611 C609 1.390 1_465 S
C611 C612 1.387 . S
C611 H614 0.950 . S
C612 C611 1.387 . S
C612 C615 1.387 . S
H613 C609 0.950 . S
H614 C611 0.950 . S
C615 C606 1.390 1_465 S
C615 H608 0.950 . S
C615 C612 1.387 . S
C616 C617 1.387 . S
C616 H620 0.950 . S
C616 C625 1.390 . S
C617 C616 1.387 . S
C617 C619 1.387 . S
H618 C625 0.950 . S
C619 C617 1.387 . S
C619 C621 1.390 . S
C619 H623 0.950 . S
H620 C616 0.950 . S
C621 C619 1.390 . S
C621 C622 1.387 . S
C621 H624 0.950 . S
C622 C621 1.387 . S
C622 C625 1.387 . S
H623 C619 0.950 . S
H624 C621 0.950 . S
C625 C616 1.390 . S
C625 H618 0.950 . S
C625 C622 1.387 . S
C626 C627 1.387 . S
C626 H630 0.950 . S
C626 C635 1.390 . S
C627 C626 1.387 . S
C627 C629 1.387 . S
H628 C635 0.950 . S
C629 C627 1.387 . S
C629 C631 1.390 . S
C629 H633 0.950 . S
H630 C626 0.950 . S
C631 C629 1.390 . S
C631 C632 1.387 . S
C631 H634 0.950 . S
C632 C631 1.387 . S
C632 C635 1.387 . S
H633 C629 0.950 . S
H634 C631 0.950 . S
C635 C626 1.390 . S
C635 H628 0.950 . S
C635 C632 1.387 . S
C636 C637 1.387 . S
C636 H640 0.950 . S
C636 C645 1.390 . S
C637 C636 1.387 . S
C637 C639 1.387 . S
H638 C645 0.950 . S
C639 C637 1.387 . S
C639 C641 1.390 . S
C639 H643 0.950 . S
H640 C636 0.950 . S
C641 C639 1.390 . S
C641 C642 1.387 . S
C641 H644 0.950 . S
C642 C641 1.387 . S
C642 C645 1.387 . S
H643 C639 0.950 . S
H644 C641 0.950 . S
C645 C636 1.390 . S
C645 H638 0.950 . S
C645 C642 1.387 . S
C646 C647 1.387 . S
C646 H650 0.950 . S
C646 C655 1.390 . S
C647 C646 1.387 . S
C647 C649 1.387 . S
H648 C655 0.950 . S
C649 C647 1.387 . S
C649 C651 1.390 . S
C649 H653 0.950 . S
H650 C646 0.950 . S
C651 C649 1.390 . S
C651 C652 1.387 . S
C651 H654 0.950 . S
C652 C651 1.387 . S
C652 C655 1.387 . S
H653 C649 0.950 . S
H654 C651 0.950 . S
C655 C646 1.390 . S
C655 H648 0.950 . S
C655 C652 1.387 . S
C656 C657 1.387 . S
C656 H660 0.950 . S
C656 C665 1.390 . S
C657 C656 1.387 . S
C657 C659 1.387 . S
H658 C665 0.950 . S
C659 C657 1.387 . S
C659 C661 1.390 . S
C659 H663 0.950 . S
H660 C656 0.950 . S
C661 C659 1.390 . S
C661 C662 1.387 . S
C661 H664 0.950 . S
C662 C661 1.387 . S
C662 C665 1.387 . S
H663 C659 0.950 . S
H664 C661 0.950 . S
C665 C656 1.390 . S
C665 H658 0.950 . S
C665 C662 1.387 . S
C666 C667 1.387 . S
C666 H670 0.950 . S
C666 C675 1.390 . S
C667 C666 1.387 . S
C667 C669 1.387 . S
H668 C675 0.950 . S
C669 C667 1.387 . S
C669 C671 1.390 . S
C669 H673 0.950 . S
H670 C666 0.950 . S
C671 C669 1.390 . S
C671 C672 1.387 . S
C671 H674 0.950 . S
C672 C671 1.387 . S
C672 C675 1.387 . S
H673 C669 0.950 . S
H674 C671 0.950 . S
C675 C666 1.390 . S
C675 H668 0.950 . S
C675 C672 1.387 . S
C676 C677 1.387 . S
C676 H680 0.950 . S
C676 C685 1.390 . S
C677 C676 1.387 . S
C677 C679 1.387 . S
H678 C685 0.950 . S
C679 C677 1.387 . S
C679 C681 1.390 . S
C679 H683 0.950 . S
H680 C676 0.950 . S
C681 C679 1.390 . S
C681 C682 1.387 . S
C681 H684 0.950 . S
C682 C681 1.387 . S
C682 C685 1.387 . S
H683 C679 0.950 . S
H684 C681 0.950 . S
C685 C676 1.390 . S
C685 H678 0.950 . S
C685 C682 1.387 . S
C686 C687 1.387 . S
C686 H690 0.950 . S
C686 C695 1.390 . S
C687 C686 1.387 . S
C687 C689 1.387 . S
H688 C695 0.950 . S
C689 C687 1.387 . S
C689 C691 1.390 . S
C689 H693 0.950 . S
H690 C686 0.950 . S
C691 C689 1.390 . S
C691 C692 1.387 . S
C691 H694 0.950 . S
C692 C691 1.387 . S
C692 C695 1.387 . S
H693 C689 0.950 . S
H694 C691 0.950 . S
C695 C686 1.390 . S
C695 H688 0.950 . S
C695 C692 1.387 . S
C696 C697 1.387 . S
C696 H700 0.950 . S
C696 C705 1.390 . S
C697 C696 1.387 . S
C697 C699 1.387 . S
H698 C705 0.950 . S
C699 C697 1.387 . S
C699 C701 1.390 . S
C699 H703 0.950 . S
H700 C696 0.950 . S
C701 C699 1.390 . S
C701 C702 1.387 . S
C701 H704 0.950 . S
C702 C701 1.387 . S
C702 C705 1.387 . S
H703 C699 0.950 . S
H704 C701 0.950 . S
C705 C696 1.390 . S
C705 H698 0.950 . S
C705 C702 1.387 . S
C706 C707 1.387 . S
C706 H710 0.950 . S
C706 C715 1.390 . S
C707 C706 1.387 . S
C707 C709 1.387 . S
H708 C715 0.950 . S
C709 C707 1.387 . S
C709 C711 1.390 . S
C709 H713 0.950 . S
H710 C706 0.950 . S
C711 C709 1.390 . S
C711 C712 1.387 . S
C711 H714 0.950 . S
C712 C711 1.387 . S
C712 C715 1.387 . S
H713 C709 0.950 . S
H714 C711 0.950 . S
C715 C706 1.390 . S
C715 H708 0.950 . S
C715 C712 1.387 . S
C716 C717 1.387 . S
C716 H720 0.950 . S
C716 C725 1.390 . S
C717 C716 1.387 . S
C717 C719 1.387 . S
H718 C725 0.950 . S
C719 C717 1.387 . S
C719 C721 1.390 . S
C719 H723 0.950 . S
H720 C716 0.950 . S
C721 C719 1.390 . S
C721 C722 1.387 . S
C721 H724 0.950 . S
C722 C721 1.387 . S
C722 C725 1.387 . S
H723 C719 0.950 . S
H724 C721 0.950 . S
C725 C716 1.390 . S
C725 H718 0.950 . S
C725 C722 1.387 . S
C726 C727 1.387 . S
C726 H730 0.950 . S
C726 C735 1.390 . S
C727 C726 1.387 . S
C727 C729 1.387 . S
H728 C735 0.950 . S
C729 C727 1.387 . S
C729 C731 1.390 . S
C729 H733 0.950 . S
H730 C726 0.950 . S
C731 C729 1.390 . S
C731 C732 1.387 . S
C731 H734 0.950 . S
C732 C731 1.387 . S
C732 C735 1.387 . S
H733 C729 0.950 . S
H734 C731 0.950 . S
C735 C726 1.390 . S
C735 H728 0.950 . S
C735 C732 1.387 . S
C736 C737 1.387 . S
C736 H740 0.950 . S
C736 C745 1.390 . S
C737 C736 1.387 . S
C737 C739 1.387 . S
H738 C745 0.950 . S
C739 C737 1.387 . S
C739 C741 1.390 . S
C739 H743 0.950 . S
H740 C736 0.950 . S
C741 C739 1.390 . S
C741 C742 1.387 . S
C741 H744 0.950 . S
C742 C741 1.387 . S
C742 C745 1.387 . S
H743 C739 0.950 . S
H744 C741 0.950 . S
C745 C736 1.390 . S
C745 H738 0.950 . S
C745 C742 1.387 . S
C746 C747 1.387 . S
C746 H750 0.950 . S
C746 C755 1.390 . S
C747 C746 1.387 . S
C747 C749 1.387 . S
H748 C755 0.950 . S
C749 C747 1.387 . S
C749 C751 1.390 . S
C749 H753 0.950 . S
H750 C746 0.950 . S
C751 C749 1.390 . S
C751 C752 1.387 . S
C751 H754 0.950 . S
C752 C751 1.387 . S
C752 C755 1.387 . S
H753 C749 0.950 . S
H754 C751 0.950 . S
C755 C746 1.390 . S
C755 H748 0.950 . S
C755 C752 1.387 . S
C756 C757 1.387 . S
C756 H760 0.950 . S
C756 C765 1.390 . S
C757 C756 1.387 . S
C757 C759 1.387 . S
H758 C765 0.950 . S
C759 C757 1.387 . S
C759 C761 1.390 . S
C759 H763 0.950 . S
H760 C756 0.950 . S
C761 C759 1.390 . S
C761 C762 1.387 . S
C761 H764 0.950 . S
C762 C761 1.387 . S
C762 C765 1.387 . S
H763 C759 0.950 . S
H764 C761 0.950 . S
C765 C756 1.390 . S
C765 H758 0.950 . S
C765 C762 1.387 . S
C766 C767 1.387 . S
C766 H770 0.950 . S
C766 C775 1.390 . S
C767 C766 1.387 . S
C767 C769 1.387 . S
H768 C775 0.950 . S
C769 C767 1.387 . S
C769 C771 1.390 . S
C769 H773 0.950 . S
H770 C766 0.950 . S
C771 C769 1.390 . S
C771 C772 1.387 . S
C771 H774 0.950 . S
C772 C771 1.387 . S
C772 C775 1.387 . S
H773 C769 0.950 . S
H774 C771 0.950 . S
C775 C766 1.390 . S
C775 H768 0.950 . S
C775 C772 1.387 . S
C776 C777 1.387 . S
C776 H780 0.950 . S
C776 C785 1.390 . S
C777 C776 1.387 . S
C777 C779 1.387 . S
H778 C785 0.950 . S
C779 C777 1.387 . S
C779 C781 1.390 . S
C779 H783 0.950 . S
H780 C776 0.950 . S
C781 C779 1.390 . S
C781 C782 1.387 . S
C781 H784 0.950 . S
C782 C781 1.387 . S
C782 C785 1.387 . S
H783 C779 0.950 . S
H784 C781 0.950 . S
C785 C776 1.390 . S
C785 H778 0.950 . S
C785 C782 1.387 . S
C786 C787 1.387 . S
C786 H790 0.950 . S
C786 C795 1.390 . S
C787 C786 1.387 . S
C787 C789 1.387 . S
H788 C795 0.950 . S
C789 C787 1.387 . S
C789 C791 1.390 . S
C789 H793 0.950 . S
H790 C786 0.950 . S
C791 C789 1.390 . S
C791 C792 1.387 . S
C791 H794 0.950 . S
C792 C791 1.387 . S
C792 C795 1.387 . S
H793 C789 0.950 . S
H794 C791 0.950 . S
C795 C786 1.390 . S
C795 H788 0.950 . S
C795 C792 1.387 . S
C796 C797 1.387 . S
C796 H800 0.950 . S
C796 C805 1.390 . S
C797 C796 1.387 . S
C797 C799 1.387 . S
H798 C805 0.950 . S
C799 C797 1.387 . S
C799 C801 1.390 . S
C799 H803 0.950 . S
H800 C796 0.950 . S
C801 C799 1.390 . S
C801 C802 1.387 . S
C801 H804 0.950 . S
C802 C801 1.387 . S
C802 C805 1.387 . S
H803 C799 0.950 . S
H804 C801 0.950 . S
C805 C796 1.390 . S
C805 H798 0.950 . S
C805 C802 1.387 . S
C806 C807 1.387 . S
C806 H810 0.950 . S
C806 C815 1.390 . S
C807 C806 1.387 . S
C807 C809 1.387 . S
H808 C815 0.950 . S
C809 C807 1.387 . S
C809 C811 1.390 . S
C809 H813 0.950 . S
H810 C806 0.950 . S
C811 C809 1.390 . S
C811 C812 1.387 . S
C811 H814 0.950 . S
C812 C811 1.387 . S
C812 C815 1.387 . S
H813 C809 0.950 . S
H814 C811 0.950 . S
C815 C806 1.390 . S
C815 H808 0.950 . S
C815 C812 1.387 . S
C337 C17 1.448 . S
C342 C203 1.448 . S
C347 C35 1.448 . S
C352 C185 1.448 . S
C357 C245 1.448 . S
C362 C56 1.448 . S
C367 C77 1.448 . S
C372 C224 1.448 . S
C377 C287 1.448 . S
C382 C98 1.448 . S
C387 C266 1.449 . S
C392 C119 1.449 . S
C397 C329 1.449 . S
C402 C140 1.449 . S
C407 C161 1.448 . S
C412 C308 1.448 . S
C417 C55 1.341 . S
C422 C16 1.341 . S
C427 C76 1.341 . S
C432 C34 1.341 . S
C437 C139 1.341 . S
C442 C97 1.341 . S
C447 C118 1.345 . S
C452 C160 1.345 . S
C457 C223 1.345 . S
C462 C184 1.345 . S
C467 C244 1.345 . S
C472 C202 1.345 . S
C477 C265 1.341 . S
C482 C307 1.341 . S
C487 C286 1.345 . S
C492 C328 1.345 . S
C497 C121 1.293 . S
C502 C13 1.298 . S
C507 C100 1.298 . S
C512 C37 1.294 . S
C517 C58 1.298 . S
C522 C163 1.294 . S
C527 C142 1.294 . S
C532 C79 1.298 . S
C537 C181 1.294 . S
C542 C289 1.298 . S
C547 C268 1.297 . S
C552 C205 1.294 . S
C557 C226 1.294 . S
C562 C331 1.298 . S
C567 C310 1.298 . S
C572 C247 1.294 . S
C577 C36 1.445 . S
C582 C18 1.445 . S
C587 C78 1.447 . S
C592 C57 1.447 . S
C597 C120 1.446 . S
C602 C99 1.446 . S
C607 C141 1.446 . S
C612 C162 1.446 . S
C617 C204 1.445 . S
C622 C186 1.445 . S
C627 C246 1.446 . S
C632 C225 1.446 . S
C637 C267 1.447 . S
C642 C288 1.447 . S
C647 C309 1.447 . S
C652 C330 1.447 . S
C657 C14 1.395 . S
C662 C15 1.392 . S
C667 C38 1.393 . S
C672 C39 1.390 . S
C677 C59 1.394 . S
C682 C60 1.392 . S
C687 C81 1.389 . S
C692 C80 1.392 . S
C697 C101 1.392 . S
C702 C102 1.389 . S
C707 C123 1.390 . S
C712 C122 1.393 . S
C717 C143 1.395 . S
C722 C144 1.392 . S
C727 C164 1.395 . S
C732 C165 1.392 . S
C737 C183 1.389 1_545 S
C742 C182 1.393 . S
C747 C206 1.393 . S
C752 C207 1.390 1_565 S
C757 C228 1.389 1_565 S
C762 C227 1.392 . S
C767 C249 1.389 1_545 S
C772 C248 1.393 . S
C777 C269 1.393 . S
C782 C270 1.389 1_565 S
C787 C290 1.393 . S
C792 C291 1.390 1_545 S
C797 C312 1.390 1_545 S
C802 C311 1.393 . S
C807 C332 1.393 . S
C812 C333 1.390 1_565 S
