# Generated by pormake.
# Topology umq, (4)-cn, num edge types: 1
# Building blocks:
#     Node 0, Type 0, BuildingBlock: TATPOV_clean_sbu_0, # of connection points: 4
#     Node 1, Type 0, BuildingBlock: TATPOV_clean_sbu_0, # of connection points: 4
#     Node 2, Type 0, BuildingBlock: TATPOV_clean_sbu_0, # of connection points: 4
#     Node 3, Type 0, BuildingBlock: TATPOV_clean_sbu_0, # of connection points: 4
#     Node 4, Type 0, BuildingBlock: TATPOV_clean_sbu_0, # of connection points: 4
#     Node 5, Type 0, BuildingBlock: TATPOV_clean_sbu_0, # of connection points: 4
#     Node 6, Type 0, BuildingBlock: TATPOV_clean_sbu_0, # of connection points: 4
#     Node 7, Type 0, BuildingBlock: TATPOV_clean_sbu_0, # of connection points: 4
#     Node 8, Type 0, BuildingBlock: TATPOV_clean_sbu_0, # of connection points: 4
#     Node 9, Type 0, BuildingBlock: TATPOV_clean_sbu_0, # of connection points: 4
#     Node 10, Type 0, BuildingBlock: TATPOV_clean_sbu_0, # of connection points: 4
#     Node 11, Type 0, BuildingBlock: TATPOV_clean_sbu_0, # of connection points: 4
#     Node 12, Type 0, BuildingBlock: TATPOV_clean_sbu_0, # of connection points: 4
#     Node 13, Type 0, BuildingBlock: TATPOV_clean_sbu_0, # of connection points: 4
#     Node 14, Type 0, BuildingBlock: TATPOV_clean_sbu_0, # of connection points: 4
#     Node 15, Type 0, BuildingBlock: TATPOV_clean_sbu_0, # of connection points: 4
#     Node 16, Type 0, BuildingBlock: TATPOV_clean_sbu_0, # of connection points: 4
#     Node 17, Type 0, BuildingBlock: TATPOV_clean_sbu_0, # of connection points: 4
#     Node 18, Type 0, BuildingBlock: TATPOV_clean_sbu_0, # of connection points: 4
#     Node 19, Type 0, BuildingBlock: TATPOV_clean_sbu_0, # of connection points: 4
#     Node 20, Type 0, BuildingBlock: TATPOV_clean_sbu_0, # of connection points: 4
#     Node 21, Type 0, BuildingBlock: TATPOV_clean_sbu_0, # of connection points: 4
#     Node 22, Type 0, BuildingBlock: TATPOV_clean_sbu_0, # of connection points: 4
#     Node 23, Type 0, BuildingBlock: TATPOV_clean_sbu_0, # of connection points: 4
#     Node 24, Type 0, BuildingBlock: TATPOV_clean_sbu_0, # of connection points: 4
#     Node 25, Type 0, BuildingBlock: TATPOV_clean_sbu_0, # of connection points: 4
#     Node 26, Type 0, BuildingBlock: TATPOV_clean_sbu_0, # of connection points: 4
#     Node 27, Type 0, BuildingBlock: TATPOV_clean_sbu_0, # of connection points: 4
#     Node 28, Type 0, BuildingBlock: TATPOV_clean_sbu_0, # of connection points: 4
#     Node 29, Type 0, BuildingBlock: TATPOV_clean_sbu_0, # of connection points: 4
#     Node 30, Type 0, BuildingBlock: TATPOV_clean_sbu_0, # of connection points: 4
#     Node 31, Type 0, BuildingBlock: TATPOV_clean_sbu_0, # of connection points: 4
#     Edge 32, Type (0, 0), BuildingBlock: OJICUG_clean_linker_0, # of connection points: 2
#     Edge 33, Type (0, 0), BuildingBlock: OJICUG_clean_linker_0, # of connection points: 2
#     Edge 34, Type (0, 0), BuildingBlock: OJICUG_clean_linker_0, # of connection points: 2
#     Edge 35, Type (0, 0), BuildingBlock: OJICUG_clean_linker_0, # of connection points: 2
#     Edge 36, Type (0, 0), BuildingBlock: OJICUG_clean_linker_0, # of connection points: 2
#     Edge 37, Type (0, 0), BuildingBlock: OJICUG_clean_linker_0, # of connection points: 2
#     Edge 38, Type (0, 0), BuildingBlock: OJICUG_clean_linker_0, # of connection points: 2
#     Edge 39, Type (0, 0), BuildingBlock: OJICUG_clean_linker_0, # of connection points: 2
#     Edge 40, Type (0, 0), BuildingBlock: OJICUG_clean_linker_0, # of connection points: 2
#     Edge 41, Type (0, 0), BuildingBlock: OJICUG_clean_linker_0, # of connection points: 2
#     Edge 42, Type (0, 0), BuildingBlock: OJICUG_clean_linker_0, # of connection points: 2
#     Edge 43, Type (0, 0), BuildingBlock: OJICUG_clean_linker_0, # of connection points: 2
#     Edge 44, Type (0, 0), BuildingBlock: OJICUG_clean_linker_0, # of connection points: 2
#     Edge 45, Type (0, 0), BuildingBlock: OJICUG_clean_linker_0, # of connection points: 2
#     Edge 46, Type (0, 0), BuildingBlock: OJICUG_clean_linker_0, # of connection points: 2
#     Edge 47, Type (0, 0), BuildingBlock: OJICUG_clean_linker_0, # of connection points: 2
#     Edge 48, Type (0, 0), BuildingBlock: OJICUG_clean_linker_0, # of connection points: 2
#     Edge 49, Type (0, 0), BuildingBlock: OJICUG_clean_linker_0, # of connection points: 2
#     Edge 50, Type (0, 0), BuildingBlock: OJICUG_clean_linker_0, # of connection points: 2
#     Edge 51, Type (0, 0), BuildingBlock: OJICUG_clean_linker_0, # of connection points: 2
#     Edge 52, Type (0, 0), BuildingBlock: OJICUG_clean_linker_0, # of connection points: 2
#     Edge 53, Type (0, 0), BuildingBlock: OJICUG_clean_linker_0, # of connection points: 2
#     Edge 54, Type (0, 0), BuildingBlock: OJICUG_clean_linker_0, # of connection points: 2
#     Edge 55, Type (0, 0), BuildingBlock: OJICUG_clean_linker_0, # of connection points: 2
#     Edge 56, Type (0, 0), BuildingBlock: OJICUG_clean_linker_0, # of connection points: 2
#     Edge 57, Type (0, 0), BuildingBlock: OJICUG_clean_linker_0, # of connection points: 2
#     Edge 58, Type (0, 0), BuildingBlock: OJICUG_clean_linker_0, # of connection points: 2
#     Edge 59, Type (0, 0), BuildingBlock: OJICUG_clean_linker_0, # of connection points: 2
#     Edge 60, Type (0, 0), BuildingBlock: OJICUG_clean_linker_0, # of connection points: 2
#     Edge 61, Type (0, 0), BuildingBlock: OJICUG_clean_linker_0, # of connection points: 2
#     Edge 62, Type (0, 0), BuildingBlock: OJICUG_clean_linker_0, # of connection points: 2
#     Edge 63, Type (0, 0), BuildingBlock: OJICUG_clean_linker_0, # of connection points: 2
#     Edge 64, Type (0, 0), BuildingBlock: OJICUG_clean_linker_0, # of connection points: 2
#     Edge 65, Type (0, 0), BuildingBlock: OJICUG_clean_linker_0, # of connection points: 2
#     Edge 66, Type (0, 0), BuildingBlock: OJICUG_clean_linker_0, # of connection points: 2
#     Edge 67, Type (0, 0), BuildingBlock: OJICUG_clean_linker_0, # of connection points: 2
#     Edge 68, Type (0, 0), BuildingBlock: OJICUG_clean_linker_0, # of connection points: 2
#     Edge 69, Type (0, 0), BuildingBlock: OJICUG_clean_linker_0, # of connection points: 2
#     Edge 70, Type (0, 0), BuildingBlock: OJICUG_clean_linker_0, # of connection points: 2
#     Edge 71, Type (0, 0), BuildingBlock: OJICUG_clean_linker_0, # of connection points: 2
#     Edge 72, Type (0, 0), BuildingBlock: OJICUG_clean_linker_0, # of connection points: 2
#     Edge 73, Type (0, 0), BuildingBlock: OJICUG_clean_linker_0, # of connection points: 2
#     Edge 74, Type (0, 0), BuildingBlock: OJICUG_clean_linker_0, # of connection points: 2
#     Edge 75, Type (0, 0), BuildingBlock: OJICUG_clean_linker_0, # of connection points: 2
#     Edge 76, Type (0, 0), BuildingBlock: OJICUG_clean_linker_0, # of connection points: 2
#     Edge 77, Type (0, 0), BuildingBlock: OJICUG_clean_linker_0, # of connection points: 2
#     Edge 78, Type (0, 0), BuildingBlock: OJICUG_clean_linker_0, # of connection points: 2
#     Edge 79, Type (0, 0), BuildingBlock: OJICUG_clean_linker_0, # of connection points: 2
#     Edge 80, Type (0, 0), BuildingBlock: OJICUG_clean_linker_0, # of connection points: 2
#     Edge 81, Type (0, 0), BuildingBlock: OJICUG_clean_linker_0, # of connection points: 2
#     Edge 82, Type (0, 0), BuildingBlock: OJICUG_clean_linker_0, # of connection points: 2
#     Edge 83, Type (0, 0), BuildingBlock: OJICUG_clean_linker_0, # of connection points: 2
#     Edge 84, Type (0, 0), BuildingBlock: OJICUG_clean_linker_0, # of connection points: 2
#     Edge 85, Type (0, 0), BuildingBlock: OJICUG_clean_linker_0, # of connection points: 2
#     Edge 86, Type (0, 0), BuildingBlock: OJICUG_clean_linker_0, # of connection points: 2
#     Edge 87, Type (0, 0), BuildingBlock: OJICUG_clean_linker_0, # of connection points: 2
#     Edge 88, Type (0, 0), BuildingBlock: OJICUG_clean_linker_0, # of connection points: 2
#     Edge 89, Type (0, 0), BuildingBlock: OJICUG_clean_linker_0, # of connection points: 2
#     Edge 90, Type (0, 0), BuildingBlock: OJICUG_clean_linker_0, # of connection points: 2
#     Edge 91, Type (0, 0), BuildingBlock: OJICUG_clean_linker_0, # of connection points: 2
#     Edge 92, Type (0, 0), BuildingBlock: OJICUG_clean_linker_0, # of connection points: 2
#     Edge 93, Type (0, 0), BuildingBlock: OJICUG_clean_linker_0, # of connection points: 2
#     Edge 94, Type (0, 0), BuildingBlock: OJICUG_clean_linker_0, # of connection points: 2
#     Edge 95, Type (0, 0), BuildingBlock: OJICUG_clean_linker_0, # of connection points: 2
# Relax obj value: 0.061
# Max RMSD: 0.085
# Mean RMSD: 0.085
data_MOF--net-umq--node1-TATPOV_clean_sbu_0--edge1-OJICUG_clean_linker_0
_symmetry_space_group_name_H-M    P1
_symmetry_Int_Tables_number       1
_symmetry_cell_setting            triclinic
loop_
_symmetry_equiv_pos_as_xyz
'x, y, z'
_cell_length_a     47.389904
_cell_length_b     47.343336
_cell_length_c     34.162321
_cell_angle_alpha  90.005487
_cell_angle_beta   90.004867
_cell_angle_gamma 89.774303
loop_
_atom_site_label
_atom_site_type_symbol
_atom_site_fract_x
_atom_site_fract_y
_atom_site_fract_z
_atom_type_partial_charge
Zn0 Zn 0.21783 0.14797 0.08948 0.0
Zn1 Zn 0.243 0.11218 0.13491 0.0
O2 O 0.23444 0.08996 0.0835 0.0
O3 O 0.2061 0.11859 0.05151 0.0
O4 O 0.25626 0.08104 0.17136 0.0
O5 O 0.18982 0.16172 0.12808 0.0
O6 O 0.20993 0.13044 0.16676 0.0
C7 C 0.21826 0.09491 0.0545 0.0
C8 C 0.27712 0.161 0.10476 0.0
O9 O 0.27615 0.13996 0.12806 0.0
O10 O 0.25563 0.16749 0.08448 0.0
C11 C 0.27 0.0596 0.15925 0.0
O12 O 0.27799 0.05859 0.12245 0.0
C13 C 0.19126 0.14957 0.16091 0.0
Zn14 Zn 0.8743 0.22071 0.08514 0.0
Zn15 Zn 0.91072 0.24553 0.13022 0.0
O16 O 0.93314 0.23599 0.07927 0.0
O17 O 0.90371 0.20863 0.0473 0.0
O18 O 0.94164 0.25906 0.16662 0.0
O19 O 0.86099 0.193 0.1244 0.0
O20 O 0.89285 0.2126 0.1624 0.0
C21 C 0.92775 0.21982 0.05043 0.0
C22 C 0.86148 0.28003 0.10025 0.0
O23 O 0.88276 0.27885 0.1231 0.0
O24 O 0.85473 0.25858 0.08011 0.0
C25 C 0.96294 0.27282 0.15449 0.0
O26 O 0.964 0.28052 0.11758 0.0
C27 C 0.87358 0.19419 0.15692 0.0
Zn28 Zn 0.80216 0.8789 0.08633 0.0
Zn29 Zn 0.77704 0.91574 0.12984 0.0
O30 O 0.78644 0.93707 0.07791 0.0
O31 O 0.81473 0.90738 0.0477 0.0
O32 O 0.76327 0.94744 0.16508 0.0
O33 O 0.82962 0.86564 0.1259 0.0
O34 O 0.80996 0.89822 0.16292 0.0
C35 C 0.80296 0.93131 0.04956 0.0
C36 C 0.74284 0.86649 0.1005 0.0
O37 O 0.74382 0.88785 0.12324 0.0
O38 O 0.76442 0.85951 0.08075 0.0
C39 C 0.7505 0.96918 0.15201 0.0
O40 O 0.74391 0.97035 0.11469 0.0
C41 C 0.8284 0.87873 0.15805 0.0
Zn42 Zn 0.14392 0.8088 0.08844 0.0
Zn43 Zn 0.10814 0.78261 0.13194 0.0
O44 O 0.08707 0.79109 0.07951 0.0
O45 O 0.11521 0.82072 0.04945 0.0
O46 O 0.07652 0.76868 0.16698 0.0
O47 O 0.15661 0.83657 0.12792 0.0
O48 O 0.12513 0.81567 0.16513 0.0
C49 C 0.09204 0.8077 0.051 0.0
C50 C 0.15795 0.74937 0.10265 0.0
O51 O 0.13664 0.7498 0.12548 0.0
O52 O 0.16425 0.77122 0.08306 0.0
C53 C 0.05499 0.75579 0.15378 0.0
O54 O 0.05406 0.74909 0.11649 0.0
C55 C 0.14396 0.83464 0.16032 0.0
Zn56 Zn 0.22661 0.88625 0.36081 0.0
Zn57 Zn 0.24953 0.92492 0.31992 0.0
O58 O 0.24038 0.94375 0.37385 0.0
O59 O 0.21274 0.91251 0.40163 0.0
O60 O 0.26104 0.95902 0.28823 0.0
O61 O 0.19948 0.87304 0.32097 0.0
O62 O 0.21692 0.90779 0.28595 0.0
C63 C 0.22407 0.93659 0.40178 0.0
C64 C 0.28633 0.87644 0.34523 0.0
O65 O 0.28418 0.89816 0.3233 0.0
O66 O 0.26527 0.86833 0.36511 0.0
C67 C 0.27082 0.95824 0.25361 0.0
O68 O 0.27552 0.93362 0.23703 0.0
C69 C 0.19953 0.88739 0.28983 0.0
Zn70 Zn 0.13754 0.23625 0.35754 0.0
Zn71 Zn 0.09743 0.25652 0.31682 0.0
O72 O 0.07903 0.2461 0.37067 0.0
O73 O 0.11252 0.22081 0.39828 0.0
O74 O 0.06291 0.26662 0.28487 0.0
O75 O 0.15231 0.20975 0.31791 0.0
O76 O 0.11596 0.22432 0.28326 0.0
C77 C 0.08758 0.23023 0.39843 0.0
C78 C 0.14377 0.29599 0.34201 0.0
O79 O 0.12239 0.29248 0.31983 0.0
O80 O 0.15307 0.27559 0.36233 0.0
C81 C 0.06357 0.27625 0.25015 0.0
O82 O 0.08809 0.28163 0.23389 0.0
C83 C 0.13754 0.20826 0.28725 0.0
Zn84 Zn 0.79158 0.14036 0.35683 0.0
Zn85 Zn 0.76798 0.10247 0.31515 0.0
O86 O 0.77822 0.08238 0.36783 0.0
O87 O 0.80593 0.11332 0.3962 0.0
O88 O 0.75575 0.06903 0.28259 0.0
O89 O 0.81821 0.15399 0.3167 0.0
O90 O 0.80022 0.1199 0.28094 0.0
C91 C 0.79494 0.08908 0.39551 0.0
C92 C 0.73191 0.15094 0.34311 0.0
O93 O 0.73361 0.12954 0.32048 0.0
O94 O 0.75325 0.15853 0.36279 0.0
C95 C 0.7485 0.0703 0.24681 0.0
O96 O 0.7468 0.09508 0.22965 0.0
C97 C 0.81775 0.14014 0.28514 0.0
Zn98 Zn 0.88318 0.79708 0.35799 0.0
Zn99 Zn 0.92088 0.77326 0.31582 0.0
O100 O 0.94066 0.78229 0.36903 0.0
O101 O 0.91027 0.81052 0.3979 0.0
O102 O 0.95447 0.76128 0.28326 0.0
O103 O 0.86961 0.82437 0.31842 0.0
O104 O 0.90336 0.80597 0.28225 0.0
C105 C 0.93421 0.79877 0.39716 0.0
C106 C 0.87249 0.7374 0.34273 0.0
O107 O 0.89391 0.73904 0.32021 0.0
O108 O 0.86495 0.75869 0.36276 0.0
C109 C 0.95346 0.75393 0.24751 0.0
O110 O 0.9288 0.75199 0.23015 0.0
C111 C 0.88326 0.8238 0.28672 0.0
Zn112 Zn 0.80132 0.87848 0.86081 0.0
Zn113 Zn 0.77703 0.91552 0.81677 0.0
O114 O 0.78627 0.93688 0.86873 0.0
O115 O 0.81408 0.90696 0.89935 0.0
O116 O 0.76439 0.94736 0.78102 0.0
O117 O 0.82888 0.86457 0.82178 0.0
O118 O 0.81003 0.89744 0.78447 0.0
C119 C 0.80259 0.93102 0.89725 0.0
C120 C 0.74186 0.86694 0.84587 0.0
O121 O 0.7433 0.88813 0.82288 0.0
O122 O 0.76321 0.8598 0.86602 0.0
C123 C 0.75208 0.96954 0.79356 0.0
O124 O 0.74498 0.97107 0.83068 0.0
C125 C 0.82813 0.87768 0.78963 0.0
Zn126 Zn 0.1456 0.79536 0.86191 0.0
Zn127 Zn 0.10764 0.7722 0.81854 0.0
O128 O 0.08655 0.78282 0.87038 0.0
O129 O 0.11784 0.80906 0.90073 0.0
O130 O 0.07556 0.75988 0.78314 0.0
O131 O 0.15949 0.82244 0.82239 0.0
O132 O 0.12585 0.80465 0.78564 0.0
C133 C 0.09327 0.79895 0.89873 0.0
C134 C 0.15601 0.73581 0.8472 0.0
O135 O 0.13464 0.73781 0.82459 0.0
O136 O 0.16371 0.75695 0.86724 0.0
C137 C 0.05317 0.74834 0.79597 0.0
O138 O 0.05144 0.74191 0.8333 0.0
C139 C 0.14602 0.82217 0.79051 0.0
Zn140 Zn 0.22595 0.14189 0.86216 0.0
Zn141 Zn 0.2498 0.10354 0.82122 0.0
O142 O 0.2399 0.08391 0.87431 0.0
O143 O 0.21203 0.11518 0.90213 0.0
O144 O 0.26267 0.06999 0.78913 0.0
O145 O 0.19907 0.155 0.82188 0.0
O146 O 0.21724 0.12051 0.7868 0.0
C147 C 0.22321 0.09094 0.90193 0.0
C148 C 0.28547 0.1524 0.84817 0.0
O149 O 0.28389 0.13072 0.82607 0.0
O150 O 0.26409 0.16028 0.86767 0.0
C151 C 0.27191 0.07139 0.75426 0.0
O152 O 0.27499 0.09627 0.73781 0.0
C153 C 0.19952 0.14078 0.79065 0.0
Zn154 Zn 0.88242 0.22046 0.85912 0.0
Zn155 Zn 0.92009 0.24415 0.817 0.0
O156 O 0.93993 0.23456 0.87015 0.0
O157 O 0.90953 0.20638 0.89862 0.0
O158 O 0.95286 0.25647 0.78276 0.0
O159 O 0.8684 0.19351 0.81965 0.0
O160 O 0.90224 0.21155 0.78356 0.0
C161 C 0.93346 0.21797 0.8981 0.0
C162 C 0.87183 0.28027 0.8452 0.0
O163 O 0.89309 0.2785 0.82238 0.0
O164 O 0.86427 0.25894 0.86496 0.0
C165 C 0.97517 0.26766 0.79648 0.0
O166 O 0.97641 0.27365 0.83399 0.0
C167 C 0.88208 0.19394 0.78797 0.0
Zn168 Zn 0.80064 0.13942 0.58828 0.0
Zn169 Zn 0.77632 0.10239 0.63087 0.0
O170 O 0.78452 0.08241 0.57754 0.0
O171 O 0.81327 0.11186 0.54825 0.0
O172 O 0.76384 0.06915 0.66363 0.0
O173 O 0.82834 0.15242 0.62754 0.0
O174 O 0.80934 0.11937 0.66414 0.0
C175 C 0.80088 0.08831 0.54911 0.0
C176 C 0.74118 0.15155 0.60412 0.0
O177 O 0.74259 0.13008 0.62662 0.0
O178 O 0.76249 0.15861 0.58395 0.0
C179 C 0.75471 0.07056 0.69856 0.0
O180 O 0.75147 0.09544 0.71504 0.0
C181 C 0.82751 0.13899 0.65943 0.0
Zn182 Zn 0.88333 0.79617 0.59003 0.0
Zn183 Zn 0.92096 0.77214 0.63203 0.0
O184 O 0.94095 0.78153 0.57905 0.0
O185 O 0.91044 0.80973 0.55034 0.0
O186 O 0.95421 0.75945 0.66479 0.0
O187 O 0.86987 0.82332 0.62977 0.0
O188 O 0.90355 0.80475 0.66593 0.0
C189 C 0.93445 0.79811 0.55105 0.0
C190 C 0.87235 0.73662 0.60459 0.0
O191 O 0.89379 0.73814 0.62708 0.0
O192 O 0.86484 0.75799 0.58472 0.0
C193 C 0.95262 0.75123 0.70014 0.0
O194 O 0.92769 0.7491 0.71669 0.0
C195 C 0.88349 0.82263 0.6615 0.0
Zn196 Zn 0.22657 0.87981 0.59132 0.0
Zn197 Zn 0.25085 0.91661 0.63543 0.0
O198 O 0.24104 0.93816 0.58372 0.0
O199 O 0.21341 0.90832 0.553 0.0
O200 O 0.26337 0.94833 0.67132 0.0
O201 O 0.19933 0.8658 0.63052 0.0
O202 O 0.21836 0.89827 0.66809 0.0
C203 C 0.22468 0.93239 0.55524 0.0
C204 C 0.28617 0.86813 0.60567 0.0
O205 O 0.28476 0.88928 0.62875 0.0
O206 O 0.26476 0.86109 0.58571 0.0
C207 C 0.27544 0.97056 0.65887 0.0
O208 O 0.28239 0.97223 0.62172 0.0
C209 C 0.20033 0.87859 0.6629 0.0
Zn210 Zn 0.14414 0.22021 0.58966 0.0
Zn211 Zn 0.10801 0.24599 0.63325 0.0
O212 O 0.08721 0.23812 0.58061 0.0
O213 O 0.11568 0.20881 0.55009 0.0
O214 O 0.07532 0.25925 0.66664 0.0
O215 O 0.15659 0.19204 0.62894 0.0
O216 O 0.12482 0.21269 0.66623 0.0
C217 C 0.09237 0.22176 0.55185 0.0
C218 C 0.1578 0.27949 0.60568 0.0
O219 O 0.13631 0.27894 0.62818 0.0
O220 O 0.16427 0.25783 0.58566 0.0
C221 C 0.07677 0.26534 0.70281 0.0
O222 O 0.10148 0.26504 0.72027 0.0
C223 C 0.14378 0.19373 0.66126 0.0
Zn224 Zn 0.72742 0.63998 0.59041 0.0
Zn225 Zn 0.75156 0.6024 0.63229 0.0
O226 O 0.74232 0.58247 0.5792 0.0
O227 O 0.7139 0.61287 0.55067 0.0
O228 O 0.76427 0.56908 0.66494 0.0
O229 O 0.70028 0.65341 0.63015 0.0
O230 O 0.71892 0.61971 0.66622 0.0
C231 C 0.72569 0.58892 0.55124 0.0
C232 C 0.78692 0.6511 0.60489 0.0
O233 O 0.78547 0.62965 0.6274 0.0
O234 O 0.76554 0.65856 0.58506 0.0
C235 C 0.77257 0.57064 0.70025 0.0
O236 O 0.77479 0.59557 0.71685 0.0
C237 C 0.701 0.63974 0.66184 0.0
Zn238 Zn 0.38422 0.72271 0.58838 0.0
Zn239 Zn 0.42115 0.747 0.6312 0.0
O240 O 0.44118 0.73886 0.57792 0.0
O241 O 0.41182 0.71013 0.5484 0.0
O242 O 0.45432 0.7594 0.6641 0.0
O243 O 0.37116 0.69493 0.62752 0.0
O244 O 0.40407 0.71394 0.66432 0.0
C245 C 0.43534 0.72253 0.54941 0.0
C246 C 0.3721 0.78222 0.60442 0.0
O247 O 0.39352 0.78078 0.62698 0.0
O248 O 0.36507 0.76092 0.58416 0.0
C249 C 0.4529 0.76833 0.69913 0.0
O250 O 0.42805 0.77143 0.71566 0.0
C251 C 0.38448 0.69575 0.65949 0.0
Zn252 Zn 0.30309 0.37854 0.58891 0.0
Zn253 Zn 0.27763 0.41496 0.63264 0.0
O254 O 0.28561 0.43584 0.5801 0.0
O255 O 0.31449 0.40704 0.54936 0.0
O256 O 0.2645 0.44766 0.66614 0.0
O257 O 0.33123 0.36605 0.62819 0.0
O258 O 0.31089 0.39803 0.66549 0.0
C259 C 0.30185 0.43053 0.55127 0.0
C260 C 0.24386 0.36521 0.60521 0.0
O261 O 0.24459 0.38676 0.62763 0.0
O262 O 0.2654 0.35858 0.58512 0.0
C263 C 0.25845 0.44615 0.70233 0.0
O264 O 0.25876 0.42138 0.71968 0.0
C265 C 0.32972 0.37895 0.66047 0.0
Zn266 Zn 0.64362 0.29715 0.59101 0.0
Zn267 Zn 0.60676 0.2728 0.63485 0.0
O268 O 0.58536 0.28273 0.58305 0.0
O269 O 0.61527 0.31041 0.55257 0.0
O270 O 0.57498 0.26014 0.67052 0.0
O271 O 0.65752 0.32435 0.63037 0.0
O272 O 0.62499 0.30527 0.66774 0.0
C273 C 0.59121 0.29915 0.55465 0.0
C274 C 0.65529 0.2375 0.60519 0.0
O275 O 0.6341 0.23888 0.62818 0.0
O276 O 0.66237 0.25896 0.58533 0.0
C277 C 0.55277 0.24818 0.65787 0.0
O278 O 0.55112 0.24146 0.62063 0.0
C279 C 0.64467 0.32331 0.66269 0.0
Zn280 Zn 0.72759 0.37785 0.86206 0.0
Zn281 Zn 0.75109 0.41561 0.81858 0.0
O282 O 0.74067 0.43685 0.87036 0.0
O283 O 0.71415 0.40585 0.9008 0.0
O284 O 0.76359 0.4476 0.78313 0.0
O285 O 0.70044 0.36411 0.82253 0.0
O286 O 0.71856 0.39753 0.78571 0.0
C287 C 0.7245 0.43034 0.89873 0.0
C288 C 0.78706 0.36698 0.84737 0.0
O289 O 0.78525 0.38837 0.82475 0.0
O290 O 0.76586 0.35944 0.86737 0.0
C291 C 0.77529 0.46993 0.79593 0.0
O292 O 0.78178 0.47162 0.83324 0.0
C293 C 0.70088 0.37751 0.79059 0.0
Zn294 Zn 0.64501 0.72173 0.86121 0.0
Zn295 Zn 0.60791 0.74593 0.81721 0.0
O296 O 0.58667 0.7367 0.86925 0.0
O297 O 0.61665 0.70895 0.89986 0.0
O298 O 0.57601 0.75852 0.78153 0.0
O299 O 0.6589 0.69413 0.82218 0.0
O300 O 0.62601 0.71293 0.78489 0.0
C301 C 0.59259 0.7204 0.8978 0.0
C302 C 0.65641 0.78125 0.84611 0.0
O303 O 0.6352 0.77975 0.82318 0.0
O304 O 0.6636 0.75993 0.86628 0.0
C305 C 0.55385 0.77079 0.79413 0.0
O306 O 0.55235 0.77786 0.83126 0.0
C307 C 0.64579 0.69485 0.79003 0.0
Zn308 Zn 0.30243 0.64095 0.85872 0.0
Zn309 Zn 0.27909 0.60305 0.81675 0.0
O310 O 0.28871 0.58336 0.87003 0.0
O311 O 0.31673 0.61402 0.89829 0.0
O312 O 0.267 0.57013 0.78256 0.0
O313 O 0.32929 0.65516 0.81931 0.0
O314 O 0.31165 0.62099 0.78336 0.0
C315 C 0.30527 0.59001 0.89793 0.0
C316 C 0.24265 0.65113 0.84479 0.0
O317 O 0.24461 0.62988 0.82195 0.0
O318 O 0.26389 0.65885 0.86461 0.0
C319 C 0.25598 0.54773 0.79629 0.0
O320 O 0.25006 0.54642 0.8338 0.0
C321 C 0.32908 0.64133 0.78774 0.0
Zn322 Zn 0.38195 0.29718 0.86148 0.0
Zn323 Zn 0.42003 0.27303 0.8205 0.0
O324 O 0.43977 0.28296 0.87351 0.0
O325 O 0.40876 0.31113 0.90129 0.0
O326 O 0.45345 0.26001 0.78834 0.0
O327 O 0.36882 0.32405 0.82117 0.0
O328 O 0.40309 0.30559 0.78599 0.0
C329 C 0.4329 0.29979 0.90108 0.0
C330 C 0.37113 0.23762 0.8478 0.0
O331 O 0.39274 0.23903 0.82559 0.0
O332 O 0.36343 0.25911 0.86725 0.0
C333 C 0.45201 0.25131 0.7532 0.0
O334 O 0.42715 0.24885 0.73655 0.0
C335 C 0.38293 0.32342 0.78985 0.0
Zn336 Zn 0.28826 0.38657 0.35649 0.0
Zn337 Zn 0.26795 0.42673 0.31615 0.0
O338 O 0.27839 0.44493 0.37017 0.0
O339 O 0.30394 0.41142 0.39727 0.0
O340 O 0.25782 0.46139 0.28446 0.0
O341 O 0.31457 0.37172 0.31674 0.0
O342 O 0.30005 0.40824 0.28234 0.0
C343 C 0.29439 0.43632 0.39775 0.0
C344 C 0.22852 0.38042 0.34141 0.0
O345 O 0.23199 0.4018 0.3192 0.0
O346 O 0.24895 0.37108 0.36159 0.0
C347 C 0.24781 0.46084 0.24995 0.0
O348 O 0.24206 0.43635 0.23376 0.0
C349 C 0.31605 0.38659 0.28617 0.0
Zn350 Zn 0.63761 0.29737 0.36035 0.0
Zn351 Zn 0.59903 0.27462 0.31923 0.0
O352 O 0.58019 0.28377 0.37316 0.0
O353 O 0.61139 0.31137 0.4011 0.0
O354 O 0.56491 0.26333 0.28746 0.0
O355 O 0.65107 0.32449 0.32066 0.0
O356 O 0.61639 0.30721 0.2854 0.0
C357 C 0.58731 0.30006 0.40114 0.0
C358 C 0.64722 0.23757 0.34466 0.0
O359 O 0.62561 0.23982 0.32259 0.0
O360 O 0.65533 0.25859 0.36467 0.0
C361 C 0.56549 0.25263 0.25335 0.0
O362 O 0.58997 0.24678 0.23715 0.0
C363 C 0.63684 0.32452 0.28943 0.0
Zn364 Zn 0.72755 0.64107 0.35841 0.0
Zn365 Zn 0.75131 0.6033 0.31609 0.0
O366 O 0.74228 0.58337 0.36918 0.0
O367 O 0.71425 0.61386 0.39826 0.0
O368 O 0.76332 0.56975 0.28342 0.0
O369 O 0.70021 0.65457 0.31887 0.0
O370 O 0.71854 0.62078 0.28265 0.0
C371 C 0.72587 0.58983 0.39737 0.0
C372 C 0.78711 0.65182 0.34297 0.0
O373 O 0.78545 0.63036 0.32048 0.0
O374 O 0.76588 0.65937 0.36305 0.0
C375 C 0.77057 0.57081 0.24763 0.0
O376 O 0.77239 0.59551 0.2303 0.0
C377 C 0.70071 0.64087 0.28718 0.0
Zn378 Zn 0.38373 0.73199 0.35701 0.0
Zn379 Zn 0.42154 0.75582 0.31555 0.0
O380 O 0.44157 0.74548 0.36824 0.0
O381 O 0.4107 0.71759 0.39639 0.0
O382 O 0.45496 0.76817 0.28309 0.0
O383 O 0.37019 0.7054 0.31676 0.0
O384 O 0.40419 0.72362 0.28113 0.0
C385 C 0.43488 0.72866 0.39583 0.0
C386 C 0.37299 0.79173 0.34358 0.0
O387 O 0.39441 0.79016 0.32101 0.0
O388 O 0.36544 0.77029 0.36311 0.0
C389 C 0.45368 0.77521 0.24723 0.0
O390 O 0.42893 0.77666 0.23 0.0
C391 C 0.38402 0.706 0.2852 0.0
Zn392 Zn 0.30334 0.65015 0.08484 0.0
Zn393 Zn 0.27835 0.61379 0.13004 0.0
O394 O 0.28773 0.59124 0.07915 0.0
O395 O 0.31512 0.62054 0.04703 0.0
O396 O 0.26477 0.58293 0.16652 0.0
O397 O 0.33116 0.66326 0.12411 0.0
O398 O 0.31137 0.6315 0.16211 0.0
C399 C 0.30385 0.59653 0.05025 0.0
C400 C 0.24414 0.66328 0.10014 0.0
O401 O 0.2452 0.64194 0.12293 0.0
O402 O 0.26558 0.66994 0.08002 0.0
C403 C 0.25091 0.56165 0.15448 0.0
O404 O 0.24309 0.56061 0.11762 0.0
C405 C 0.32989 0.65066 0.15664 0.0
Zn406 Zn 0.37614 0.30591 0.08859 0.0
Zn407 Zn 0.41184 0.28077 0.13419 0.0
O408 O 0.43407 0.28901 0.08272 0.0
O409 O 0.40556 0.31737 0.05055 0.0
O410 O 0.4429 0.26762 0.1708 0.0
O411 O 0.36246 0.33415 0.12696 0.0
O412 O 0.39365 0.31405 0.16575 0.0
C413 C 0.42917 0.30512 0.05361 0.0
C414 C 0.36296 0.24664 0.10434 0.0
O415 O 0.384 0.24763 0.12761 0.0
O416 O 0.35653 0.26809 0.08391 0.0
C417 C 0.4642 0.25355 0.15898 0.0
O418 O 0.46512 0.24514 0.12235 0.0
C419 C 0.37459 0.33277 0.15981 0.0
Zn420 Zn 0.71613 0.38002 0.08849 0.0
Zn421 Zn 0.74206 0.41597 0.13194 0.0
O422 O 0.73347 0.43703 0.0795 0.0
O423 O 0.70401 0.40865 0.04954 0.0
O424 O 0.7559 0.44767 0.16696 0.0
O425 O 0.68846 0.36717 0.12794 0.0
O426 O 0.70904 0.39891 0.16511 0.0
C427 C 0.71686 0.43194 0.05105 0.0
C428 C 0.77551 0.36626 0.10263 0.0
O429 O 0.77495 0.38756 0.12551 0.0
O430 O 0.75374 0.35985 0.083 0.0
C431 C 0.76873 0.46925 0.15375 0.0
O432 O 0.77539 0.47019 0.11645 0.0
C433 C 0.69021 0.37993 0.16028 0.0
Zn434 Zn 0.64484 0.72138 0.08679 0.0
Zn435 Zn 0.60809 0.74655 0.13028 0.0
O436 O 0.58673 0.73697 0.07842 0.0
O437 O 0.61639 0.70863 0.04827 0.0
O438 O 0.57643 0.76036 0.16553 0.0
O439 O 0.65822 0.69401 0.12641 0.0
O440 O 0.62572 0.71372 0.16348 0.0
C441 C 0.59247 0.72038 0.05012 0.0
C442 C 0.6572 0.78079 0.10068 0.0
O443 O 0.63589 0.77983 0.12349 0.0
O444 O 0.66415 0.75916 0.08098 0.0
C445 C 0.55468 0.7731 0.15242 0.0
O446 O 0.55349 0.7796 0.11507 0.0
C447 C 0.64523 0.6953 0.15861 0.0
C448 C 0.34346 0.20136 0.13246 0.0
C449 C 0.34445 0.22152 0.10221 0.0
H450 H 0.32125 0.16604 0.15713 0.0
C451 C 0.32539 0.21913 0.0709 0.0
H452 H 0.35792 0.20262 0.15695 0.0
C453 C 0.30463 0.19842 0.071 0.0
C454 C 0.30227 0.17944 0.10242 0.0
H455 H 0.32582 0.23398 0.04677 0.0
H456 H 0.28973 0.19799 0.04695 0.0
C457 C 0.32249 0.18044 0.13256 0.0
C458 C 0.84233 0.32552 0.1287 0.0
C459 C 0.84294 0.30531 0.09848 0.0
H460 H 0.82037 0.36101 0.15387 0.0
C461 C 0.82341 0.30773 0.06772 0.0
H462 H 0.85714 0.32423 0.15279 0.0
C463 C 0.80258 0.32852 0.06836 0.0
C464 C 0.80062 0.34757 0.09977 0.0
H465 H 0.82352 0.29283 0.04364 0.0
H466 H 0.78733 0.32899 0.04474 0.0
C467 C 0.82129 0.34654 0.12933 0.0
C468 C 0.69434 0.80853 0.0668 0.0
C469 C 0.67544 0.8061 0.09827 0.0
H470 H 0.7299 0.82971 0.04264 0.0
C471 C 0.67646 0.8263 0.12848 0.0
H472 H 0.69386 0.79366 0.04271 0.0
C473 C 0.69741 0.84725 0.12844 0.0
C474 C 0.71755 0.84822 0.09819 0.0
H475 H 0.66211 0.82499 0.15308 0.0
H476 H 0.69875 0.86164 0.15301 0.0
C477 C 0.71507 0.82927 0.06676 0.0
C478 C 0.19861 0.6824 0.12844 0.0
C479 C 0.21896 0.68195 0.09843 0.0
H480 H 0.16301 0.7042 0.15347 0.0
C481 C 0.21673 0.70172 0.0679 0.0
H482 H 0.19975 0.66741 0.15234 0.0
C483 C 0.19596 0.72257 0.06858 0.0
C484 C 0.17673 0.72432 0.09978 0.0
H485 H 0.23174 0.70176 0.04398 0.0
H486 H 0.19562 0.73798 0.04513 0.0
C487 C 0.17761 0.70346 0.12911 0.0
C488 C 0.31688 0.84168 0.37948 0.0
C489 C 0.31244 0.85917 0.34686 0.0
H490 H 0.33985 0.80724 0.40417 0.0
C491 C 0.33117 0.85724 0.31499 0.0
H492 H 0.30317 0.84296 0.40481 0.0
C493 C 0.35249 0.83646 0.31461 0.0
C494 C 0.35524 0.81749 0.34611 0.0
H495 H 0.32825 0.8705 0.28947 0.0
H496 H 0.36555 0.83412 0.28878 0.0
C497 C 0.33797 0.82117 0.37912 0.0
C498 C 0.19489 0.35032 0.37761 0.0
C499 C 0.20163 0.36476 0.343 0.0
H500 H 0.17073 0.31771 0.40441 0.0
C501 C 0.18515 0.36012 0.30936 0.0
H502 H 0.20695 0.35377 0.40414 0.0
C503 C 0.16413 0.33919 0.30951 0.0
C504 C 0.15954 0.32285 0.34331 0.0
H505 H 0.18997 0.37096 0.28227 0.0
H506 H 0.15318 0.33431 0.28253 0.0
C507 C 0.17413 0.32965 0.37777 0.0
C508 C 0.68733 0.17149 0.31388 0.0
C509 C 0.70611 0.16861 0.34557 0.0
H510 H 0.65345 0.19586 0.28859 0.0
C511 C 0.70221 0.18571 0.37872 0.0
H512 H 0.68984 0.15856 0.28795 0.0
C513 C 0.68169 0.20679 0.37907 0.0
C514 C 0.66441 0.2114 0.34628 0.0
H515 H 0.71599 0.18371 0.4039 0.0
H516 H 0.68025 0.22039 0.40451 0.0
C517 C 0.66654 0.19281 0.31424 0.0
C518 C 0.81658 0.68716 0.37753 0.0
C519 C 0.8128 0.66952 0.34492 0.0
H520 H 0.83869 0.72187 0.40253 0.0
C521 C 0.83176 0.67164 0.31336 0.0
H522 H 0.80268 0.68577 0.40264 0.0
C523 C 0.85271 0.69263 0.31329 0.0
C524 C 0.85484 0.71168 0.3448 0.0
H525 H 0.82936 0.65828 0.28784 0.0
H526 H 0.86601 0.69502 0.28774 0.0
C527 C 0.83728 0.70791 0.37747 0.0
C528 C 0.7131 0.83092 0.88037 0.0
C529 C 0.71635 0.849 0.84811 0.0
H530 H 0.69138 0.7959 0.9052 0.0
C531 C 0.6969 0.84724 0.81707 0.0
H532 H 0.72738 0.832 0.9051 0.0
C533 C 0.67596 0.82625 0.81713 0.0
C534 C 0.67429 0.80683 0.84823 0.0
H535 H 0.69886 0.86094 0.79184 0.0
H536 H 0.66224 0.82423 0.79194 0.0
C537 C 0.6924 0.81016 0.88043 0.0
C538 C 0.19135 0.70586 0.88136 0.0
C539 C 0.1737 0.70997 0.84883 0.0
H540 H 0.22648 0.68376 0.90568 0.0
C541 C 0.17611 0.69143 0.81677 0.0
H542 H 0.18975 0.71945 0.9068 0.0
C543 C 0.19745 0.67069 0.81613 0.0
C544 C 0.21656 0.66835 0.84751 0.0
H545 H 0.16277 0.69412 0.79129 0.0
H546 H 0.20008 0.65779 0.79019 0.0
C547 C 0.21247 0.68537 0.8807 0.0
C548 C 0.35149 0.19263 0.81886 0.0
C549 C 0.35345 0.21193 0.85009 0.0
H550 H 0.32818 0.15817 0.7936 0.0
C551 C 0.33565 0.20849 0.88257 0.0
H552 H 0.36498 0.19477 0.79345 0.0
C553 C 0.31487 0.18782 0.88266 0.0
C554 C 0.31124 0.16995 0.85026 0.0
H555 H 0.33693 0.22265 0.90743 0.0
H556 H 0.30077 0.18669 0.90758 0.0
C557 C 0.33046 0.17172 0.81895 0.0
C558 C 0.85234 0.32562 0.81675 0.0
C559 C 0.85443 0.30627 0.8479 0.0
H560 H 0.82916 0.36052 0.79203 0.0
C561 C 0.83708 0.31006 0.88081 0.0
H562 H 0.8655 0.32323 0.79104 0.0
C563 C 0.81657 0.33117 0.88141 0.0
C564 C 0.81277 0.34911 0.84909 0.0
H565 H 0.83848 0.29587 0.90562 0.0
H566 H 0.80277 0.33257 0.90663 0.0
C567 C 0.83158 0.34695 0.81734 0.0
C568 C 0.67511 0.19224 0.6335 0.0
C569 C 0.67334 0.21192 0.60271 0.0
H570 H 0.69817 0.15728 0.65826 0.0
C571 C 0.69154 0.20886 0.57052 0.0
H572 H 0.66133 0.19406 0.65867 0.0
C573 C 0.71238 0.18809 0.57031 0.0
C574 C 0.71568 0.16971 0.60226 0.0
H575 H 0.69046 0.22333 0.54599 0.0
H576 H 0.7267 0.18719 0.5456 0.0
C577 C 0.69618 0.17123 0.63328 0.0
C578 C 0.81597 0.68675 0.57024 0.0
C579 C 0.81253 0.66887 0.60267 0.0
H580 H 0.83784 0.7216 0.54526 0.0
C581 C 0.83184 0.67075 0.63387 0.0
H582 H 0.8018 0.68554 0.5454 0.0
C583 C 0.85279 0.69171 0.63379 0.0
C584 C 0.85461 0.71097 0.60251 0.0
H585 H 0.82971 0.6572 0.65924 0.0
H586 H 0.86638 0.69389 0.6591 0.0
C587 C 0.83669 0.70747 0.57016 0.0
C588 C 0.33137 0.84827 0.63398 0.0
C589 C 0.31173 0.85008 0.60316 0.0
H590 H 0.3663 0.82516 0.65871 0.0
C591 C 0.31483 0.83193 0.57091 0.0
H592 H 0.32952 0.86201 0.65921 0.0
C593 C 0.3356 0.81108 0.57065 0.0
C594 C 0.35394 0.80774 0.60262 0.0
H595 H 0.30039 0.83305 0.54635 0.0
H596 H 0.33653 0.79681 0.54588 0.0
C597 C 0.35238 0.82719 0.63371 0.0
C598 C 0.17742 0.32496 0.63337 0.0
C599 C 0.17661 0.30442 0.60358 0.0
H600 H 0.19946 0.36065 0.65741 0.0
C601 C 0.19598 0.30634 0.57258 0.0
H602 H 0.16273 0.32406 0.65762 0.0
C603 C 0.21675 0.32703 0.57246 0.0
C604 C 0.21885 0.3465 0.60334 0.0
H605 H 0.19573 0.2912 0.54879 0.0
H606 H 0.2318 0.32714 0.54859 0.0
C607 C 0.19842 0.34588 0.63325 0.0
C608 C 0.24397 0.07071 0.00122 0.0
C609 C 0.21813 0.07671 0.01965 0.0
H610 H 0.26586 0.06964 0.94635 0.0
C611 C 0.19317 0.07535 -0.00234 0.0
H612 H 0.26351 0.07159 0.01764 0.0
C613 C 0.19451 0.07414 0.95694 0.0
C614 C 0.22081 0.07435 0.9381 0.0
H615 H 0.17298 0.07965 0.01136 0.0
H616 H 0.17531 0.07759 0.94034 0.0
C617 C 0.24532 0.06954 0.96028 0.0
C618 C 0.95447 0.24237 0.95479 0.0
C619 C 0.94981 0.21694 0.93464 0.0
H620 H 0.95168 0.26318 0.01038 0.0
C621 C 0.94974 0.19151 0.95574 0.0
H622 H 0.95465 0.26226 0.9391 0.0
C623 C 0.94797 0.19204 -0.00355 0.0
C624 C 0.94641 0.21799 0.01619 0.0
H625 H 0.94643 0.17162 0.94075 0.0
H626 H 0.94339 0.17253 0.01176 0.0
C627 C 0.95274 0.2429 -0.00427 0.0
C628 C 0.82961 0.94969 0.9528 0.0
C629 C 0.8039 0.94875 0.93249 0.0
H630 H 0.84949 0.94594 0.00868 0.0
C631 C 0.77874 0.95419 0.95292 0.0
H632 H 0.8493 0.94579 0.93754 0.0
C633 C 0.77884 0.95427 -0.00607 0.0
C634 C 0.80411 0.9489 0.01417 0.0
H635 H 0.75864 0.9536 0.93781 0.0
H636 H 0.75881 0.95374 0.00922 0.0
C637 C 0.82972 0.94977 -0.0064 0.0
C638 C 0.06995 0.77836 0.9565 0.0
C639 C 0.07537 0.80231 0.9335 0.0
H640 H 0.07015 0.76155 0.01471 0.0
C641 C 0.07446 0.82909 0.95106 0.0
H642 H 0.07058 0.75748 0.94353 0.0
C643 C 0.07431 0.83144 -0.00827 0.0
C644 C 0.07507 0.807 0.01496 0.0
H645 H 0.07842 0.84786 0.93378 0.0
H646 H 0.07806 0.85198 0.0047 0.0
C647 C 0.06975 0.78072 -0.00262 0.0
C648 C 0.19704 0.95233 0.45923 0.0
C649 C 0.22262 0.95262 0.43857 0.0
H650 H 0.17762 0.94661 0.51508 0.0
C651 C 0.24778 0.9578 0.45905 0.0
H652 H 0.17735 0.94858 0.44397 0.0
C653 C 0.24794 0.95667 0.50005 0.0
C654 C 0.22294 0.95037 0.52026 0.0
H655 H 0.26779 0.95809 0.4437 0.0
H656 H 0.26807 0.95613 0.5151 0.0
C657 C 0.1972 0.95121 0.5 0.0
C658 C 0.0742 0.19764 0.49313 0.0
C659 C 0.07495 0.22214 0.51621 0.0
H660 H 0.07622 0.18113 0.43502 0.0
C661 C 0.06815 0.24825 0.49899 0.0
H662 H 0.0791 0.17724 0.50587 0.0
C663 C 0.06646 0.25047 0.45816 0.0
C664 C 0.07154 0.22658 0.43481 0.0
H665 H 0.06856 0.26745 0.51624 0.0
H666 H 0.06581 0.27133 0.44509 0.0
C667 C 0.07242 0.19986 0.45252 0.0
C668 C 0.77505 0.06622 0.49424 0.0
C669 C 0.80094 0.07171 0.51275 0.0
H670 H 0.75283 0.0667 0.4396 0.0
C671 C 0.82577 0.07131 0.49038 0.0
H672 H 0.75561 0.06641 0.51093 0.0
C673 C 0.82418 0.07142 0.44965 0.0
C674 C 0.79776 0.07193 0.43112 0.0
H675 H 0.846 0.07525 0.5041 0.0
H676 H 0.84322 0.07549 0.43304 0.0
C677 C 0.77346 0.06635 0.45329 0.0
C678 C 0.95691 0.77463 0.4944 0.0
C679 C 0.95128 0.7997 0.515 0.0
H680 H 0.95663 0.75477 0.43802 0.0
C681 C 0.95149 0.82547 0.49473 0.0
H682 H 0.95682 0.75448 0.50946 0.0
C683 C 0.95134 0.82564 0.45393 0.0
C684 C 0.95103 0.80004 0.43325 0.0
H685 H 0.9474 0.8451 0.5101 0.0
H686 H 0.94716 0.84539 0.43893 0.0
C687 C 0.95679 0.7748 0.45338 0.0
C688 C 0.7495 0.56672 0.49466 0.0
C689 C 0.72432 0.57222 0.51504 0.0
H690 H 0.76964 0.56731 0.4385 0.0
C691 C 0.69869 0.57205 0.49447 0.0
H692 H 0.76954 0.56678 0.50994 0.0
C693 C 0.69875 0.57239 0.45369 0.0
C694 C 0.72444 0.57284 0.43329 0.0
H695 H 0.679 0.57603 0.50967 0.0
H696 H 0.6791 0.57661 0.43851 0.0
C697 C 0.74956 0.56704 0.45364 0.0
C698 C 0.45246 0.69935 0.44996 0.0
C699 C 0.45196 0.72582 0.4315 0.0
H700 H 0.44854 0.67743 0.50432 0.0
C701 C 0.45745 0.75012 0.45375 0.0
H702 H 0.44846 0.68031 0.43327 0.0
C703 C 0.4575 0.74848 0.4947 0.0
C704 C 0.45201 0.72254 0.51311 0.0
H705 H 0.45712 0.77078 0.44009 0.0
H706 H 0.45725 0.76793 0.51142 0.0
C707 C 0.45248 0.69771 0.49069 0.0
C708 C 0.27389 0.45717 0.45751 0.0
C709 C 0.29789 0.45211 0.43439 0.0
H710 H 0.25653 0.45477 0.51534 0.0
C711 C 0.32446 0.45097 0.45244 0.0
H712 H 0.25315 0.45803 0.44418 0.0
C713 C 0.3264 0.4489 0.49305 0.0
C714 C 0.30177 0.44814 0.5158 0.0
H715 H 0.34326 0.4472 0.43511 0.0
H716 H 0.34667 0.44379 0.50597 0.0
C717 C 0.27583 0.4552 0.49835 0.0
C718 C 0.57259 0.32679 0.49943 0.0
C719 C 0.57334 0.30098 0.51959 0.0
H720 H 0.57536 0.34677 0.44352 0.0
C721 C 0.56704 0.276 0.49924 0.0
H722 H 0.57718 0.34634 0.51464 0.0
C723 C 0.566 0.27625 0.45824 0.0
C724 C 0.57126 0.30147 0.4379 0.0
H725 H 0.56751 0.25583 0.51422 0.0
H726 H 0.56571 0.25625 0.44282 0.0
C727 C 0.57155 0.32704 0.45867 0.0
C728 C 0.74554 0.45377 0.95613 0.0
C729 C 0.72144 0.44831 0.9335 0.0
H730 H 0.76275 0.45372 0.01412 0.0
C731 C 0.69481 0.44936 0.95141 0.0
H732 H 0.76631 0.45305 0.94289 0.0
C733 C 0.69276 0.44968 -0.00789 0.0
C734 C 0.71733 0.44892 0.01501 0.0
H735 H 0.67592 0.44539 0.93442 0.0
H736 H 0.67232 0.44602 0.00538 0.0
C737 C 0.74348 0.45412 -0.00295 0.0
C738 C 0.57402 0.69344 -0.00568 0.0
C739 C 0.57486 0.71912 0.01477 0.0
H740 H 0.57799 0.6737 0.93836 0.0
C741 C 0.56943 0.74435 -0.00557 0.0
H742 H 0.57791 0.6737 0.0095 0.0
C743 C 0.56947 0.74435 0.95341 0.0
C744 C 0.57494 0.71912 0.93309 0.0
H745 H 0.56992 0.76443 0.00963 0.0
H746 H 0.56999 0.76444 0.93823 0.0
C747 C 0.57407 0.69344 0.95352 0.0
C748 C 0.28063 0.5713 -0.00416 0.0
C749 C 0.30558 0.57775 0.01609 0.0
H750 H 0.26112 0.56901 0.93937 0.0
C751 C 0.33145 0.57607 -0.00377 0.0
H752 H 0.26043 0.57244 0.01062 0.0
C753 C 0.33186 0.574 0.95554 0.0
C754 C 0.30639 0.5738 0.93458 0.0
H755 H 0.35098 0.58074 0.01139 0.0
H756 H 0.35169 0.57722 0.94042 0.0
C757 C 0.28105 0.56927 0.95492 0.0
C758 C 0.45421 0.27765 0.95945 0.0
C759 C 0.44955 0.30217 0.93718 0.0
H760 H 0.45213 0.25957 0.01686 0.0
C761 C 0.44997 0.32853 0.95593 0.0
H762 H 0.45397 0.25707 0.94558 0.0
C763 C 0.44882 0.32997 -0.00335 0.0
C764 C 0.44733 0.30504 0.01874 0.0
H765 H 0.44662 0.34773 0.93926 0.0
H766 H 0.44467 0.35024 0.01027 0.0
C767 C 0.45313 0.2791 0.00039 0.0
C768 C 0.28383 1.00888 0.16947 0.0
C769 C 0.27354 0.0345 0.18484 0.0
H770 H 0.29111 0.96473 0.17906 0.0
C771 C 0.26461 0.03525 0.22407 0.0
H772 H 0.29094 1.00755 0.1394 0.0
C773 C 0.26481 1.0107 0.24685 0.0
C774 C 0.27379 0.98478 0.23089 0.0
H775 H 0.25669 0.05463 0.23692 0.0
H776 H 0.25702 1.01191 0.27661 0.0
C777 C 0.28388 0.98429 0.1922 0.0
C778 C 0.01317 0.28763 0.16519 0.0
C779 C 0.98779 0.27685 0.18032 0.0
H780 H 0.05697 0.29597 0.17531 0.0
C781 C 0.98706 0.26803 0.2196 0.0
H782 H 0.01448 0.29468 0.13509 0.0
C783 C 1.01142 0.26886 0.2427 0.0
C784 C 0.03713 0.27841 0.22702 0.0
H785 H 0.96785 0.25974 0.23227 0.0
H786 H 1.01025 0.26117 0.27251 0.0
C787 C 0.03758 0.28833 0.18825 0.0
C788 C 0.73779 0.04491 0.18401 0.0
C789 C 0.74557 0.04392 0.22369 0.0
H790 H 0.73288 0.02206 0.13038 0.0
C791 C 0.75253 0.01763 0.24037 0.0
H792 H 0.73218 0.06477 0.17028 0.0
C793 C 0.75309 0.99315 0.21745 0.0
C794 C 0.74651 0.99434 0.17736 0.0
H795 H 0.75853 0.01604 0.27089 0.0
H796 H 0.75946 0.97343 0.23095 0.0
C797 C 0.73815 0.02037 0.16114 0.0
C798 C 1.00392 0.74338 0.16245 0.0
C799 C 0.02975 0.75186 0.17889 0.0
H800 H 0.95958 0.73733 0.17114 0.0
C801 C 0.03064 0.75865 0.21893 0.0
H802 H 1.00246 0.73794 0.13172 0.0
C803 C 1.00606 0.75814 0.24158 0.0
C804 C 0.97996 0.75103 0.22467 0.0
H805 H 0.0502 0.76513 0.23259 0.0
H806 H 1.00741 0.76429 0.27205 0.0
C807 C 0.97928 0.74306 0.18505 0.0
C808 C 0.75742 0.99342 0.72841 0.0
C809 C 0.74935 0.99473 0.76796 0.0
H810 H 0.76518 0.01618 0.67544 0.0
C811 C 0.74078 0.0209 0.78356 0.0
H812 H 0.76402 0.97361 0.71538 0.0
C813 C 0.74158 0.04541 0.76067 0.0
C814 C 0.75083 0.04428 0.72161 0.0
H815 H 0.73437 0.02268 0.8139 0.0
H816 H 0.73569 0.06535 0.77396 0.0
C817 C 0.75808 0.01788 0.70549 0.0
C818 C 0.97736 0.73884 0.76291 0.0
C819 C 0.97875 0.74725 0.7235 0.0
H820 H 0.99976 0.73225 0.81658 0.0
C821 C 1.00527 0.75362 0.7073 0.0
H822 H 0.95731 0.73365 0.77627 0.0
C823 C 0.02961 0.75292 0.73044 0.0
C824 C 0.02805 0.74569 0.77029 0.0
H825 H 1.00717 0.76006 0.677 0.0
H826 H 0.04954 0.75883 0.71732 0.0
C827 C 1.00174 0.738 0.78602 0.0
C828 C 0.28639 0.02187 0.66915 0.0
C829 C 0.27799 0.99568 0.68461 0.0
H830 H 0.29114 0.0663 0.67895 0.0
C831 C 0.26989 0.99429 0.72415 0.0
H832 H 0.29282 0.02372 0.63884 0.0
C833 C 0.26902 0.01871 0.74718 0.0
C834 C 0.27608 0.04513 0.73118 0.0
H835 H 0.26342 0.97445 0.73708 0.0
H836 H 0.26189 0.01695 0.7772 0.0
C837 C 0.28538 0.04633 0.69215 0.0
C838 C 0.02698 0.27683 0.78842 0.0
C839 C 1.00066 0.27047 0.77158 0.0
H840 H 0.07165 0.28023 0.77999 0.0
C841 C 0.99939 0.26478 0.73124 0.0
H842 H 0.02875 0.28137 0.81939 0.0
C843 C 0.02399 0.2643 0.70861 0.0
C844 C 0.05048 0.26929 0.72584 0.0
H845 H 0.97946 0.25993 0.71728 0.0
H846 H 0.02228 0.25904 0.67785 0.0
C847 C 0.05163 0.27613 0.76583 0.0
C848 C 0.78502 0.54579 0.76293 0.0
C849 C 0.77654 0.54445 0.72355 0.0
H850 H 0.79163 0.52331 0.81655 0.0
C851 C 0.77007 0.51794 0.70733 0.0
H852 H 0.7903 0.56583 0.77631 0.0
C853 C 0.77072 0.49355 0.73044 0.0
C854 C 0.77801 0.49507 0.77027 0.0
H855 H 0.76357 0.51608 0.67705 0.0
H856 H 0.76473 0.47364 0.7173 0.0
C857 C 0.78583 0.52137 0.786 0.0
C858 C 0.50252 0.78202 0.78423 0.0
C859 C 0.52867 0.77353 0.76857 0.0
H860 H 0.4581 0.7871 0.77468 0.0
C861 C 0.52997 0.76559 0.72896 0.0
H862 H 0.50074 0.78834 0.81461 0.0
C863 C 0.50553 0.76498 0.70604 0.0
C864 C 0.47915 0.77215 0.72222 0.0
H865 H 0.54977 0.75905 0.71588 0.0
H866 H 0.50723 0.75798 0.67594 0.0
C867 C 0.47802 0.78127 0.76134 0.0
C868 C 0.25941 0.49898 0.70829 0.0
C869 C 0.25452 0.47242 0.72545 0.0
H870 H 0.26365 0.54354 0.71707 0.0
C871 C 0.24775 0.4712 0.76546 0.0
H872 H 0.2646 0.50074 0.67751 0.0
C873 C 0.24701 0.49583 0.78812 0.0
C874 C 0.25326 0.52222 0.77134 0.0
H875 H 0.24372 0.45113 0.77958 0.0
H876 H 0.24253 0.49402 0.8191 0.0
C877 C 0.25889 0.52356 0.73099 0.0
C878 C 0.47699 0.23833 0.69085 0.0
C879 C 0.47823 0.24718 0.73009 0.0
H880 H 0.49956 0.23135 0.63741 0.0
C881 C 0.50467 0.25389 0.74628 0.0
H882 H 0.45702 0.23286 0.6775 0.0
C883 C 0.52907 0.25313 0.72325 0.0
C884 C 0.52765 0.2455 0.68353 0.0
H885 H 0.50645 0.26067 0.77646 0.0
H886 H 0.54892 0.25933 0.73634 0.0
C887 C 0.50143 0.23742 0.66786 0.0
C888 C 0.25605 0.53743 0.21947 0.0
C889 C 0.24694 0.53678 0.18032 0.0
H890 H 0.26325 0.51413 0.27222 0.0
C891 C 0.23595 0.51144 0.16529 0.0
H892 H 0.26452 0.55661 0.23207 0.0
C893 C 0.23533 0.48698 0.1883 0.0
C894 C 0.24557 0.48734 0.22692 0.0
H895 H 0.22867 0.51019 0.13529 0.0
H896 H 0.22752 0.46762 0.17543 0.0
C897 C 0.25532 0.51302 0.24252 0.0
C898 C 0.53921 0.2389 0.1924 0.0
C899 C 0.53892 0.24977 0.23069 0.0
H900 H 0.5158 0.23124 0.13988 0.0
C901 C 0.51321 0.25957 0.2463 0.0
H902 H 0.55859 0.23103 0.17954 0.0
C903 C 0.48868 0.25977 0.22353 0.0
C904 C 0.48923 0.25006 0.18466 0.0
H905 H 0.51216 0.26797 0.27576 0.0
H906 H 0.46948 0.26832 0.23609 0.0
C907 C 0.51462 0.23898 0.16967 0.0
C908 C 0.76649 0.51815 0.24163 0.0
C909 C 0.77348 0.54431 0.22473 0.0
H910 H 0.75958 0.47396 0.23261 0.0
C911 C 0.78134 0.54504 0.18508 0.0
H912 H 0.76042 0.51677 0.27214 0.0
C913 C 0.78103 0.52039 0.16244 0.0
C914 C 0.77265 0.4945 0.17888 0.0
H915 H 0.78699 0.56479 0.17118 0.0
H916 H 0.78638 0.52188 0.13169 0.0
C917 C 0.76598 0.49356 0.21894 0.0
C918 C 0.47902 0.78578 0.18437 0.0
C919 C 0.48003 0.77814 0.2241 0.0
H920 H 0.50182 0.79055 0.1307 0.0
C921 C 0.50632 0.77129 0.24082 0.0
H922 H 0.45916 0.79131 0.1706 0.0
C923 C 0.53077 0.77069 0.21789 0.0
C924 C 0.52955 0.77713 0.17776 0.0
H925 H 0.50791 0.76539 0.27138 0.0
H926 H 0.55048 0.7644 0.23143 0.0
C927 C 0.50352 0.78538 0.16149 0.0
C928 C 0.15164 0.17971 0.18588 0.0
C929 C 0.17355 0.16025 0.19337 0.0
H930 H 0.12269 0.21002 0.20983 0.0
C931 C 0.18051 0.15392 0.23231 0.0
H932 H 0.14557 0.18484 0.15613 0.0
C933 C 0.1675 0.16848 0.26297 0.0
C934 C 0.14711 0.18946 0.25533 0.0
H935 H 0.19715 0.13896 0.23909 0.0
H936 H 0.17436 0.16413 0.29263 0.0
C937 C 0.13844 0.19411 0.2166 0.0
C938 C 0.87127 0.18233 0.2282 0.0
C939 C 0.86343 0.17633 0.1895 0.0
H940 H 0.86306 0.1753 0.28889 0.0
C941 C 0.8432 0.15519 0.18255 0.0
H942 H 0.88689 0.19834 0.23456 0.0
C943 C 0.82956 0.14187 0.21373 0.0
C944 C 0.83577 0.14961 0.2524 0.0
H945 H 0.83691 0.14984 0.15299 0.0
H946 H 0.81304 0.12678 0.20746 0.0
C947 C 0.85751 0.16917 0.25934 0.0
C948 C 0.88154 0.83568 0.21534 0.0
C949 C 0.87356 0.8418 0.25396 0.0
H950 H 0.87359 0.84283 0.15455 0.0
C951 C 0.85349 0.86327 0.26073 0.0
H952 H 0.89702 0.81938 0.20916 0.0
C953 C 0.84009 0.87679 0.22947 0.0
C954 C 0.84636 0.86897 0.19083 0.0
H955 H 0.84713 0.86873 0.29024 0.0
H956 H 0.82368 0.89215 0.23567 0.0
C957 C 0.86801 0.84908 0.18406 0.0
C958 C 0.16013 0.85802 0.2635 0.0
C959 C 0.18133 0.87825 0.25704 0.0
H960 H 0.13129 0.82862 0.23797 0.0
C961 C 0.18694 0.887 0.2186 0.0
H962 H 0.15504 0.85109 0.29287 0.0
C963 C 0.17333 0.87402 0.18711 0.0
C964 C 0.15374 0.85219 0.19348 0.0
H965 H 0.20302 0.90263 0.21268 0.0
H966 H 0.17923 0.88016 0.15769 0.0
C967 C 0.1464 0.84518 0.23204 0.0
C968 C 0.88118 0.83404 0.733 0.0
C969 C 0.87377 0.84058 0.69429 0.0
H970 H 0.8726 0.84088 0.79369 0.0
C971 C 0.85416 0.86243 0.68736 0.0
H972 H 0.89629 0.81742 0.73929 0.0
C973 C 0.84061 0.87596 0.71848 0.0
C974 C 0.84628 0.86775 0.75715 0.0
H975 H 0.84825 0.86821 0.65778 0.0
H976 H 0.82456 0.89165 0.71211 0.0
C977 C 0.86748 0.84744 0.76414 0.0
C978 C 0.18903 0.87558 0.73433 0.0
C979 C 0.18262 0.86833 0.69553 0.0
H980 H 0.18225 0.86671 0.79493 0.0
C981 C 0.16112 0.84854 0.68838 0.0
H982 H 0.20537 0.89082 0.74082 0.0
C983 C 0.14776 0.83476 0.71938 0.0
C984 C 0.15582 0.84036 0.75811 0.0
H985 H 0.15545 0.84273 0.65874 0.0
H986 H 0.13231 0.81862 0.71288 0.0
C987 C 0.17583 0.86165 0.76532 0.0
C988 C 0.17357 0.15437 0.68784 0.0
C989 C 0.15358 0.176 0.69426 0.0
H990 H 0.20364 0.12592 0.71338 0.0
C991 C 0.14593 0.18273 0.73282 0.0
H992 H 0.17971 0.14846 0.65841 0.0
C993 C 0.15972 0.16985 0.76427 0.0
C994 C 0.18132 0.14987 0.75779 0.0
H995 H 0.13052 0.19913 0.73879 0.0
H996 H 0.15437 0.17658 0.79366 0.0
C997 C 0.18725 0.14136 0.71932 0.0
C998 C 0.85241 0.15456 0.76208 0.0
C999 C 0.87244 0.17591 0.75526 0.0
H1000 H 0.82272 0.12575 0.73708 0.0
C1001 C 0.88052 0.18181 0.71663 0.0
H1002 H 0.84597 0.14925 0.79161 0.0
C1003 C 0.86709 0.16835 0.68539 0.0
C1004 C 0.84548 0.1486 0.69219 0.0
H1005 H 0.89598 0.19799 0.71042 0.0
H1006 H 0.87273 0.17446 0.65586 0.0
C1007 C 0.83913 0.14096 0.73086 0.0
C1008 C 0.66112 0.66892 0.68773 0.0
C1009 C 0.68303 0.64937 0.69464 0.0
H1010 H 0.63181 0.69841 0.71252 0.0
C1011 C 0.68958 0.64194 0.73334 0.0
H1012 H 0.65533 0.67484 0.65816 0.0
C1013 C 0.67613 0.65557 0.7645 0.0
C1014 C 0.65576 0.67673 0.75754 0.0
H1015 H 0.70624 0.62687 0.73961 0.0
H1016 H 0.68269 0.65045 0.79405 0.0
C1017 C 0.64755 0.6824 0.71887 0.0
C1018 C 0.34145 0.64279 0.71648 0.0
C1019 C 0.3472 0.65094 0.75513 0.0
H1020 H 0.34905 0.65048 0.65574 0.0
C1021 C 0.3685 0.67099 0.76207 0.0
H1022 H 0.32531 0.62731 0.71019 0.0
C1023 C 0.38223 0.68422 0.73091 0.0
C1024 C 0.37475 0.67779 0.6922 0.0
H1025 H 0.37369 0.67748 0.79161 0.0
H1026 H 0.39741 0.70065 0.73721 0.0
C1027 C 0.35503 0.65616 0.68531 0.0
C1028 C 0.35398 0.36329 0.7634 0.0
C1029 C 0.37379 0.34154 0.75692 0.0
H1030 H 0.32476 0.39257 0.73794 0.0
C1031 C 0.38206 0.33537 0.71843 0.0
H1032 H 0.34743 0.36882 0.7928 0.0
C1033 C 0.36898 0.34899 0.68695 0.0
C1034 C 0.34752 0.36915 0.6934 0.0
H1035 H 0.39736 0.31886 0.71249 0.0
H1036 H 0.3747 0.34267 0.65752 0.0
C1037 C 0.34103 0.37703 0.73196 0.0
C1038 C 0.64756 0.33455 0.73416 0.0
C1039 C 0.65486 0.341 0.6954 0.0
H1040 H 0.65633 0.34127 0.7948 0.0
C1041 C 0.67464 0.36254 0.68836 0.0
H1042 H 0.63231 0.3182 0.74057 0.0
C1043 C 0.68837 0.37586 0.71943 0.0
C1044 C 0.68273 0.36775 0.75813 0.0
H1045 H 0.68049 0.36824 0.65875 0.0
H1046 H 0.70451 0.39132 0.713 0.0
C1047 C 0.66143 0.34773 0.76523 0.0
C1048 C 0.34437 0.37239 0.18471 0.0
C1049 C 0.36394 0.35057 0.19222 0.0
H1050 H 0.31401 0.40128 0.20869 0.0
C1051 C 0.37042 0.34376 0.23116 0.0
H1052 H 0.33913 0.37834 0.15495 0.0
C1053 C 0.3559 0.35679 0.26182 0.0
C1054 C 0.3348 0.37707 0.25419 0.0
H1055 H 0.38547 0.32719 0.23795 0.0
H1056 H 0.36036 0.35004 0.29149 0.0
C1057 C 0.33001 0.38562 0.21544 0.0
C1058 C 0.66647 0.36382 0.26331 0.0
C1059 C 0.64618 0.34269 0.25671 0.0
H1060 H 0.69606 0.39256 0.23798 0.0
C1061 C 0.63756 0.3371 0.21821 0.0
H1062 H 0.67331 0.36889 0.29273 0.0
C1063 C 0.6507 0.35066 0.18681 0.0
C1064 C 0.67257 0.37019 0.19333 0.0
H1065 H 0.6219 0.32108 0.21217 0.0
H1066 H 0.64465 0.34478 0.15734 0.0
C1067 C 0.67946 0.37751 0.23194 0.0
C1068 C 0.68853 0.64235 0.21589 0.0
C1069 C 0.6826 0.65049 0.25451 0.0
H1070 H 0.68107 0.65005 0.15512 0.0
C1071 C 0.66117 0.6706 0.26133 0.0
H1072 H 0.70478 0.62683 0.20968 0.0
C1073 C 0.6475 0.68388 0.23009 0.0
C1074 C 0.65512 0.67744 0.19143 0.0
H1075 H 0.65586 0.67708 0.29084 0.0
H1076 H 0.63218 0.70032 0.23631 0.0
C1077 C 0.67498 0.65576 0.18464 0.0
C1078 C 0.34189 0.65263 0.22788 0.0
C1079 C 0.34779 0.6607 0.18924 0.0
H1080 H 0.34903 0.66055 0.28864 0.0
C1081 C 0.36887 0.681 0.18242 0.0
H1082 H 0.32595 0.63695 0.23414 0.0
C1083 C 0.38222 0.69452 0.21368 0.0
C1084 C 0.37457 0.68809 0.25232 0.0
H1085 H 0.37414 0.68747 0.15289 0.0
H1086 H 0.39725 0.71112 0.20753 0.0
C1087 C 0.35509 0.66626 0.2591 0.0
loop_
_geom_bond_atom_site_label_1
_geom_bond_atom_site_label_2
_geom_bond_distance
_geom_bond_site_symmetry_2
_ccdc_geom_bond_type
Zn0 O3 2.031 . S
Zn0 O5 2.049 . S
Zn0 O10 2.067 . S
Zn1 O2 1.962 . S
Zn1 O4 1.986 . S
Zn1 O6 1.996 . S
Zn1 O9 1.943 . S
O2 Zn1 1.962 . S
O2 C7 1.254 . S
O3 Zn0 2.031 . S
O3 C7 1.269 . S
O4 Zn1 1.986 . S
O4 C11 1.262 . S
O5 Zn0 2.049 . S
O5 C13 1.260 . S
O6 Zn1 1.996 . S
O6 C13 1.257 . S
C7 O2 1.254 . S
C7 O3 1.269 . S
C8 O9 1.249 . S
C8 O10 1.270 . S
O9 Zn1 1.943 . S
O9 C8 1.249 . S
O10 Zn0 2.067 . S
O10 C8 1.270 . S
C11 O4 1.262 . S
C11 O12 1.232 . S
O12 C11 1.232 . S
C13 O5 1.260 . S
C13 O6 1.257 . S
Zn14 O17 2.031 . S
Zn14 O19 2.049 . S
Zn14 O24 2.067 . S
Zn15 O16 1.962 . S
Zn15 O18 1.986 . S
Zn15 O20 1.996 . S
Zn15 O23 1.943 . S
O16 Zn15 1.962 . S
O16 C21 1.254 . S
O17 Zn14 2.031 . S
O17 C21 1.269 . S
O18 Zn15 1.986 . S
O18 C25 1.262 . S
O19 Zn14 2.049 . S
O19 C27 1.260 . S
O20 Zn15 1.996 . S
O20 C27 1.257 . S
C21 O16 1.254 . S
C21 O17 1.269 . S
C22 O23 1.249 . S
C22 O24 1.270 . S
O23 Zn15 1.943 . S
O23 C22 1.249 . S
O24 Zn14 2.067 . S
O24 C22 1.270 . S
C25 O18 1.262 . S
C25 O26 1.232 . S
O26 C25 1.232 . S
C27 O19 1.260 . S
C27 O20 1.257 . S
Zn28 O31 2.031 . S
Zn28 O33 2.049 . S
Zn28 O38 2.067 . S
Zn29 O30 1.962 . S
Zn29 O32 1.986 . S
Zn29 O34 1.996 . S
Zn29 O37 1.943 . S
O30 Zn29 1.962 . S
O30 C35 1.254 . S
O31 Zn28 2.031 . S
O31 C35 1.269 . S
O32 Zn29 1.986 . S
O32 C39 1.262 . S
O33 Zn28 2.049 . S
O33 C41 1.260 . S
O34 Zn29 1.996 . S
O34 C41 1.257 . S
C35 O30 1.254 . S
C35 O31 1.269 . S
C36 O37 1.249 . S
C36 O38 1.270 . S
O37 Zn29 1.943 . S
O37 C36 1.249 . S
O38 Zn28 2.067 . S
O38 C36 1.270 . S
C39 O32 1.262 . S
C39 O40 1.232 . S
O40 C39 1.232 . S
C41 O33 1.260 . S
C41 O34 1.257 . S
Zn42 O45 2.031 . S
Zn42 O47 2.049 . S
Zn42 O52 2.067 . S
Zn43 O44 1.962 . S
Zn43 O46 1.986 . S
Zn43 O48 1.996 . S
Zn43 O51 1.943 . S
O44 Zn43 1.962 . S
O44 C49 1.254 . S
O45 Zn42 2.031 . S
O45 C49 1.269 . S
O46 Zn43 1.986 . S
O46 C53 1.262 . S
O47 Zn42 2.049 . S
O47 C55 1.260 . S
O48 Zn43 1.996 . S
O48 C55 1.257 . S
C49 O44 1.254 . S
C49 O45 1.269 . S
C50 O51 1.249 . S
C50 O52 1.270 . S
O51 Zn43 1.943 . S
O51 C50 1.249 . S
O52 Zn42 2.067 . S
O52 C50 1.270 . S
C53 O46 1.262 . S
C53 O54 1.232 . S
O54 C53 1.232 . S
C55 O47 1.260 . S
C55 O48 1.257 . S
Zn56 O59 2.031 . S
Zn56 O61 2.049 . S
Zn56 O66 2.067 . S
Zn57 O58 1.962 . S
Zn57 O60 1.986 . S
Zn57 O62 1.996 . S
Zn57 O65 1.943 . S
O58 Zn57 1.962 . S
O58 C63 1.254 . S
O59 Zn56 2.031 . S
O59 C63 1.269 . S
O60 Zn57 1.986 . S
O60 C67 1.262 . S
O61 Zn56 2.049 . S
O61 C69 1.260 . S
O62 Zn57 1.996 . S
O62 C69 1.257 . S
C63 O58 1.254 . S
C63 O59 1.269 . S
C64 O65 1.249 . S
C64 O66 1.270 . S
O65 Zn57 1.943 . S
O65 C64 1.249 . S
O66 Zn56 2.067 . S
O66 C64 1.270 . S
C67 O60 1.262 . S
C67 O68 1.232 . S
O68 C67 1.232 . S
C69 O61 1.260 . S
C69 O62 1.257 . S
Zn70 O73 2.031 . S
Zn70 O75 2.049 . S
Zn70 O80 2.067 . S
Zn71 O72 1.962 . S
Zn71 O74 1.986 . S
Zn71 O76 1.996 . S
Zn71 O79 1.943 . S
O72 Zn71 1.962 . S
O72 C77 1.254 . S
O73 Zn70 2.031 . S
O73 C77 1.269 . S
O74 Zn71 1.986 . S
O74 C81 1.262 . S
O75 Zn70 2.049 . S
O75 C83 1.260 . S
O76 Zn71 1.996 . S
O76 C83 1.257 . S
C77 O72 1.254 . S
C77 O73 1.269 . S
C78 O79 1.249 . S
C78 O80 1.270 . S
O79 Zn71 1.943 . S
O79 C78 1.249 . S
O80 Zn70 2.067 . S
O80 C78 1.270 . S
C81 O74 1.262 . S
C81 O82 1.232 . S
O82 C81 1.232 . S
C83 O75 1.260 . S
C83 O76 1.257 . S
Zn84 O87 2.031 . S
Zn84 O89 2.049 . S
Zn84 O94 2.067 . S
Zn85 O86 1.962 . S
Zn85 O88 1.986 . S
Zn85 O90 1.996 . S
Zn85 O93 1.943 . S
O86 Zn85 1.962 . S
O86 C91 1.254 . S
O87 Zn84 2.031 . S
O87 C91 1.269 . S
O88 Zn85 1.986 . S
O88 C95 1.262 . S
O89 Zn84 2.049 . S
O89 C97 1.260 . S
O90 Zn85 1.996 . S
O90 C97 1.257 . S
C91 O86 1.254 . S
C91 O87 1.269 . S
C92 O93 1.249 . S
C92 O94 1.270 . S
O93 Zn85 1.943 . S
O93 C92 1.249 . S
O94 Zn84 2.067 . S
O94 C92 1.270 . S
C95 O88 1.262 . S
C95 O96 1.232 . S
O96 C95 1.232 . S
C97 O89 1.260 . S
C97 O90 1.257 . S
Zn98 O101 2.031 . S
Zn98 O103 2.049 . S
Zn98 O108 2.067 . S
Zn99 O100 1.962 . S
Zn99 O102 1.986 . S
Zn99 O104 1.996 . S
Zn99 O107 1.943 . S
O100 Zn99 1.962 . S
O100 C105 1.254 . S
O101 Zn98 2.031 . S
O101 C105 1.269 . S
O102 Zn99 1.986 . S
O102 C109 1.262 . S
O103 Zn98 2.049 . S
O103 C111 1.260 . S
O104 Zn99 1.996 . S
O104 C111 1.257 . S
C105 O100 1.254 . S
C105 O101 1.269 . S
C106 O107 1.249 . S
C106 O108 1.270 . S
O107 Zn99 1.943 . S
O107 C106 1.249 . S
O108 Zn98 2.067 . S
O108 C106 1.270 . S
C109 O102 1.262 . S
C109 O110 1.232 . S
O110 C109 1.232 . S
C111 O103 1.260 . S
C111 O104 1.257 . S
Zn112 O115 2.031 . S
Zn112 O117 2.049 . S
Zn112 O122 2.067 . S
Zn113 O114 1.962 . S
Zn113 O116 1.986 . S
Zn113 O118 1.996 . S
Zn113 O121 1.943 . S
O114 Zn113 1.962 . S
O114 C119 1.254 . S
O115 Zn112 2.031 . S
O115 C119 1.269 . S
O116 Zn113 1.986 . S
O116 C123 1.262 . S
O117 Zn112 2.049 . S
O117 C125 1.260 . S
O118 Zn113 1.996 . S
O118 C125 1.257 . S
C119 O114 1.254 . S
C119 O115 1.269 . S
C120 O121 1.249 . S
C120 O122 1.270 . S
O121 Zn113 1.943 . S
O121 C120 1.249 . S
O122 Zn112 2.067 . S
O122 C120 1.270 . S
C123 O116 1.262 . S
C123 O124 1.232 . S
O124 C123 1.232 . S
C125 O117 1.260 . S
C125 O118 1.257 . S
Zn126 O129 2.031 . S
Zn126 O131 2.049 . S
Zn126 O136 2.067 . S
Zn127 O128 1.962 . S
Zn127 O130 1.986 . S
Zn127 O132 1.996 . S
Zn127 O135 1.943 . S
O128 Zn127 1.962 . S
O128 C133 1.254 . S
O129 Zn126 2.031 . S
O129 C133 1.269 . S
O130 Zn127 1.986 . S
O130 C137 1.262 . S
O131 Zn126 2.049 . S
O131 C139 1.260 . S
O132 Zn127 1.996 . S
O132 C139 1.257 . S
C133 O128 1.254 . S
C133 O129 1.269 . S
C134 O135 1.249 . S
C134 O136 1.270 . S
O135 Zn127 1.943 . S
O135 C134 1.249 . S
O136 Zn126 2.067 . S
O136 C134 1.270 . S
C137 O130 1.262 . S
C137 O138 1.232 . S
O138 C137 1.232 . S
C139 O131 1.260 . S
C139 O132 1.257 . S
Zn140 O143 2.031 . S
Zn140 O145 2.049 . S
Zn140 O150 2.067 . S
Zn141 O142 1.962 . S
Zn141 O144 1.986 . S
Zn141 O146 1.996 . S
Zn141 O149 1.943 . S
O142 Zn141 1.962 . S
O142 C147 1.254 . S
O143 Zn140 2.031 . S
O143 C147 1.269 . S
O144 Zn141 1.986 . S
O144 C151 1.262 . S
O145 Zn140 2.049 . S
O145 C153 1.260 . S
O146 Zn141 1.996 . S
O146 C153 1.257 . S
C147 O142 1.254 . S
C147 O143 1.269 . S
C148 O149 1.249 . S
C148 O150 1.270 . S
O149 Zn141 1.943 . S
O149 C148 1.249 . S
O150 Zn140 2.067 . S
O150 C148 1.270 . S
C151 O144 1.262 . S
C151 O152 1.232 . S
O152 C151 1.232 . S
C153 O145 1.260 . S
C153 O146 1.257 . S
Zn154 O157 2.031 . S
Zn154 O159 2.049 . S
Zn154 O164 2.067 . S
Zn155 O156 1.962 . S
Zn155 O158 1.986 . S
Zn155 O160 1.996 . S
Zn155 O163 1.943 . S
O156 Zn155 1.962 . S
O156 C161 1.254 . S
O157 Zn154 2.031 . S
O157 C161 1.269 . S
O158 Zn155 1.986 . S
O158 C165 1.262 . S
O159 Zn154 2.049 . S
O159 C167 1.260 . S
O160 Zn155 1.996 . S
O160 C167 1.257 . S
C161 O156 1.254 . S
C161 O157 1.269 . S
C162 O163 1.249 . S
C162 O164 1.270 . S
O163 Zn155 1.943 . S
O163 C162 1.249 . S
O164 Zn154 2.067 . S
O164 C162 1.270 . S
C165 O158 1.262 . S
C165 O166 1.232 . S
O166 C165 1.232 . S
C167 O159 1.260 . S
C167 O160 1.257 . S
Zn168 O171 2.031 . S
Zn168 O173 2.049 . S
Zn168 O178 2.067 . S
Zn169 O170 1.962 . S
Zn169 O172 1.986 . S
Zn169 O174 1.996 . S
Zn169 O177 1.943 . S
O170 Zn169 1.962 . S
O170 C175 1.254 . S
O171 Zn168 2.031 . S
O171 C175 1.269 . S
O172 Zn169 1.986 . S
O172 C179 1.262 . S
O173 Zn168 2.049 . S
O173 C181 1.260 . S
O174 Zn169 1.996 . S
O174 C181 1.257 . S
C175 O170 1.254 . S
C175 O171 1.269 . S
C176 O177 1.249 . S
C176 O178 1.270 . S
O177 Zn169 1.943 . S
O177 C176 1.249 . S
O178 Zn168 2.067 . S
O178 C176 1.270 . S
C179 O172 1.262 . S
C179 O180 1.232 . S
O180 C179 1.232 . S
C181 O173 1.260 . S
C181 O174 1.257 . S
Zn182 O185 2.031 . S
Zn182 O187 2.049 . S
Zn182 O192 2.067 . S
Zn183 O184 1.962 . S
Zn183 O186 1.986 . S
Zn183 O188 1.996 . S
Zn183 O191 1.943 . S
O184 Zn183 1.962 . S
O184 C189 1.254 . S
O185 Zn182 2.031 . S
O185 C189 1.269 . S
O186 Zn183 1.986 . S
O186 C193 1.262 . S
O187 Zn182 2.049 . S
O187 C195 1.260 . S
O188 Zn183 1.996 . S
O188 C195 1.257 . S
C189 O184 1.254 . S
C189 O185 1.269 . S
C190 O191 1.249 . S
C190 O192 1.270 . S
O191 Zn183 1.943 . S
O191 C190 1.249 . S
O192 Zn182 2.067 . S
O192 C190 1.270 . S
C193 O186 1.262 . S
C193 O194 1.232 . S
O194 C193 1.232 . S
C195 O187 1.260 . S
C195 O188 1.257 . S
Zn196 O199 2.031 . S
Zn196 O201 2.049 . S
Zn196 O206 2.067 . S
Zn197 O198 1.962 . S
Zn197 O200 1.986 . S
Zn197 O202 1.996 . S
Zn197 O205 1.943 . S
O198 Zn197 1.962 . S
O198 C203 1.254 . S
O199 Zn196 2.031 . S
O199 C203 1.269 . S
O200 Zn197 1.986 . S
O200 C207 1.262 . S
O201 Zn196 2.049 . S
O201 C209 1.260 . S
O202 Zn197 1.996 . S
O202 C209 1.257 . S
C203 O198 1.254 . S
C203 O199 1.269 . S
C204 O205 1.249 . S
C204 O206 1.270 . S
O205 Zn197 1.943 . S
O205 C204 1.249 . S
O206 Zn196 2.067 . S
O206 C204 1.270 . S
C207 O200 1.262 . S
C207 O208 1.232 . S
O208 C207 1.232 . S
C209 O201 1.260 . S
C209 O202 1.257 . S
Zn210 O213 2.031 . S
Zn210 O215 2.049 . S
Zn210 O220 2.067 . S
Zn211 O212 1.962 . S
Zn211 O214 1.986 . S
Zn211 O216 1.996 . S
Zn211 O219 1.943 . S
O212 Zn211 1.962 . S
O212 C217 1.254 . S
O213 Zn210 2.031 . S
O213 C217 1.269 . S
O214 Zn211 1.986 . S
O214 C221 1.262 . S
O215 Zn210 2.049 . S
O215 C223 1.260 . S
O216 Zn211 1.996 . S
O216 C223 1.257 . S
C217 O212 1.254 . S
C217 O213 1.269 . S
C218 O219 1.249 . S
C218 O220 1.270 . S
O219 Zn211 1.943 . S
O219 C218 1.249 . S
O220 Zn210 2.067 . S
O220 C218 1.270 . S
C221 O214 1.262 . S
C221 O222 1.232 . S
O222 C221 1.232 . S
C223 O215 1.260 . S
C223 O216 1.257 . S
Zn224 O227 2.031 . S
Zn224 O229 2.049 . S
Zn224 O234 2.067 . S
Zn225 O226 1.962 . S
Zn225 O228 1.986 . S
Zn225 O230 1.996 . S
Zn225 O233 1.943 . S
O226 Zn225 1.962 . S
O226 C231 1.254 . S
O227 Zn224 2.031 . S
O227 C231 1.269 . S
O228 Zn225 1.986 . S
O228 C235 1.262 . S
O229 Zn224 2.049 . S
O229 C237 1.260 . S
O230 Zn225 1.996 . S
O230 C237 1.257 . S
C231 O226 1.254 . S
C231 O227 1.269 . S
C232 O233 1.249 . S
C232 O234 1.270 . S
O233 Zn225 1.943 . S
O233 C232 1.249 . S
O234 Zn224 2.067 . S
O234 C232 1.270 . S
C235 O228 1.262 . S
C235 O236 1.232 . S
O236 C235 1.232 . S
C237 O229 1.260 . S
C237 O230 1.257 . S
Zn238 O241 2.031 . S
Zn238 O243 2.049 . S
Zn238 O248 2.067 . S
Zn239 O240 1.962 . S
Zn239 O242 1.986 . S
Zn239 O244 1.996 . S
Zn239 O247 1.943 . S
O240 Zn239 1.962 . S
O240 C245 1.254 . S
O241 Zn238 2.031 . S
O241 C245 1.269 . S
O242 Zn239 1.986 . S
O242 C249 1.262 . S
O243 Zn238 2.049 . S
O243 C251 1.260 . S
O244 Zn239 1.996 . S
O244 C251 1.257 . S
C245 O240 1.254 . S
C245 O241 1.269 . S
C246 O247 1.249 . S
C246 O248 1.270 . S
O247 Zn239 1.943 . S
O247 C246 1.249 . S
O248 Zn238 2.067 . S
O248 C246 1.270 . S
C249 O242 1.262 . S
C249 O250 1.232 . S
O250 C249 1.232 . S
C251 O243 1.260 . S
C251 O244 1.257 . S
Zn252 O255 2.031 . S
Zn252 O257 2.049 . S
Zn252 O262 2.067 . S
Zn253 O254 1.962 . S
Zn253 O256 1.986 . S
Zn253 O258 1.996 . S
Zn253 O261 1.943 . S
O254 Zn253 1.962 . S
O254 C259 1.254 . S
O255 Zn252 2.031 . S
O255 C259 1.269 . S
O256 Zn253 1.986 . S
O256 C263 1.262 . S
O257 Zn252 2.049 . S
O257 C265 1.260 . S
O258 Zn253 1.996 . S
O258 C265 1.257 . S
C259 O254 1.254 . S
C259 O255 1.269 . S
C260 O261 1.249 . S
C260 O262 1.270 . S
O261 Zn253 1.943 . S
O261 C260 1.249 . S
O262 Zn252 2.067 . S
O262 C260 1.270 . S
C263 O256 1.262 . S
C263 O264 1.232 . S
O264 C263 1.232 . S
C265 O257 1.260 . S
C265 O258 1.257 . S
Zn266 O269 2.031 . S
Zn266 O271 2.049 . S
Zn266 O276 2.067 . S
Zn267 O268 1.962 . S
Zn267 O270 1.986 . S
Zn267 O272 1.996 . S
Zn267 O275 1.943 . S
O268 Zn267 1.962 . S
O268 C273 1.254 . S
O269 Zn266 2.031 . S
O269 C273 1.269 . S
O270 Zn267 1.986 . S
O270 C277 1.262 . S
O271 Zn266 2.049 . S
O271 C279 1.260 . S
O272 Zn267 1.996 . S
O272 C279 1.257 . S
C273 O268 1.254 . S
C273 O269 1.269 . S
C274 O275 1.249 . S
C274 O276 1.270 . S
O275 Zn267 1.943 . S
O275 C274 1.249 . S
O276 Zn266 2.067 . S
O276 C274 1.270 . S
C277 O270 1.262 . S
C277 O278 1.232 . S
O278 C277 1.232 . S
C279 O271 1.260 . S
C279 O272 1.257 . S
Zn280 O283 2.031 . S
Zn280 O285 2.049 . S
Zn280 O290 2.067 . S
Zn281 O282 1.962 . S
Zn281 O284 1.986 . S
Zn281 O286 1.996 . S
Zn281 O289 1.943 . S
O282 Zn281 1.962 . S
O282 C287 1.254 . S
O283 Zn280 2.031 . S
O283 C287 1.269 . S
O284 Zn281 1.986 . S
O284 C291 1.262 . S
O285 Zn280 2.049 . S
O285 C293 1.260 . S
O286 Zn281 1.996 . S
O286 C293 1.257 . S
C287 O282 1.254 . S
C287 O283 1.269 . S
C288 O289 1.249 . S
C288 O290 1.270 . S
O289 Zn281 1.943 . S
O289 C288 1.249 . S
O290 Zn280 2.067 . S
O290 C288 1.270 . S
C291 O284 1.262 . S
C291 O292 1.232 . S
O292 C291 1.232 . S
C293 O285 1.260 . S
C293 O286 1.257 . S
Zn294 O297 2.031 . S
Zn294 O299 2.049 . S
Zn294 O304 2.067 . S
Zn295 O296 1.962 . S
Zn295 O298 1.986 . S
Zn295 O300 1.996 . S
Zn295 O303 1.943 . S
O296 Zn295 1.962 . S
O296 C301 1.254 . S
O297 Zn294 2.031 . S
O297 C301 1.269 . S
O298 Zn295 1.986 . S
O298 C305 1.262 . S
O299 Zn294 2.049 . S
O299 C307 1.260 . S
O300 Zn295 1.996 . S
O300 C307 1.257 . S
C301 O296 1.254 . S
C301 O297 1.269 . S
C302 O303 1.249 . S
C302 O304 1.270 . S
O303 Zn295 1.943 . S
O303 C302 1.249 . S
O304 Zn294 2.067 . S
O304 C302 1.270 . S
C305 O298 1.262 . S
C305 O306 1.232 . S
O306 C305 1.232 . S
C307 O299 1.260 . S
C307 O300 1.257 . S
Zn308 O311 2.031 . S
Zn308 O313 2.049 . S
Zn308 O318 2.067 . S
Zn309 O310 1.962 . S
Zn309 O312 1.986 . S
Zn309 O314 1.996 . S
Zn309 O317 1.943 . S
O310 Zn309 1.962 . S
O310 C315 1.254 . S
O311 Zn308 2.031 . S
O311 C315 1.269 . S
O312 Zn309 1.986 . S
O312 C319 1.262 . S
O313 Zn308 2.049 . S
O313 C321 1.260 . S
O314 Zn309 1.996 . S
O314 C321 1.257 . S
C315 O310 1.254 . S
C315 O311 1.269 . S
C316 O317 1.249 . S
C316 O318 1.270 . S
O317 Zn309 1.943 . S
O317 C316 1.249 . S
O318 Zn308 2.067 . S
O318 C316 1.270 . S
C319 O312 1.262 . S
C319 O320 1.232 . S
O320 C319 1.232 . S
C321 O313 1.260 . S
C321 O314 1.257 . S
Zn322 O325 2.031 . S
Zn322 O327 2.049 . S
Zn322 O332 2.067 . S
Zn323 O324 1.962 . S
Zn323 O326 1.986 . S
Zn323 O328 1.996 . S
Zn323 O331 1.943 . S
O324 Zn323 1.962 . S
O324 C329 1.254 . S
O325 Zn322 2.031 . S
O325 C329 1.269 . S
O326 Zn323 1.986 . S
O326 C333 1.262 . S
O327 Zn322 2.049 . S
O327 C335 1.260 . S
O328 Zn323 1.996 . S
O328 C335 1.257 . S
C329 O324 1.254 . S
C329 O325 1.269 . S
C330 O331 1.249 . S
C330 O332 1.270 . S
O331 Zn323 1.943 . S
O331 C330 1.249 . S
O332 Zn322 2.067 . S
O332 C330 1.270 . S
C333 O326 1.262 . S
C333 O334 1.232 . S
O334 C333 1.232 . S
C335 O327 1.260 . S
C335 O328 1.257 . S
Zn336 O339 2.031 . S
Zn336 O341 2.049 . S
Zn336 O346 2.067 . S
Zn337 O338 1.962 . S
Zn337 O340 1.986 . S
Zn337 O342 1.996 . S
Zn337 O345 1.943 . S
O338 Zn337 1.962 . S
O338 C343 1.254 . S
O339 Zn336 2.031 . S
O339 C343 1.269 . S
O340 Zn337 1.986 . S
O340 C347 1.262 . S
O341 Zn336 2.049 . S
O341 C349 1.260 . S
O342 Zn337 1.996 . S
O342 C349 1.257 . S
C343 O338 1.254 . S
C343 O339 1.269 . S
C344 O345 1.249 . S
C344 O346 1.270 . S
O345 Zn337 1.943 . S
O345 C344 1.249 . S
O346 Zn336 2.067 . S
O346 C344 1.270 . S
C347 O340 1.262 . S
C347 O348 1.232 . S
O348 C347 1.232 . S
C349 O341 1.260 . S
C349 O342 1.257 . S
Zn350 O353 2.031 . S
Zn350 O355 2.049 . S
Zn350 O360 2.067 . S
Zn351 O352 1.962 . S
Zn351 O354 1.986 . S
Zn351 O356 1.996 . S
Zn351 O359 1.943 . S
O352 Zn351 1.962 . S
O352 C357 1.254 . S
O353 Zn350 2.031 . S
O353 C357 1.269 . S
O354 Zn351 1.986 . S
O354 C361 1.262 . S
O355 Zn350 2.049 . S
O355 C363 1.260 . S
O356 Zn351 1.996 . S
O356 C363 1.257 . S
C357 O352 1.254 . S
C357 O353 1.269 . S
C358 O359 1.249 . S
C358 O360 1.270 . S
O359 Zn351 1.943 . S
O359 C358 1.249 . S
O360 Zn350 2.067 . S
O360 C358 1.270 . S
C361 O354 1.262 . S
C361 O362 1.232 . S
O362 C361 1.232 . S
C363 O355 1.260 . S
C363 O356 1.257 . S
Zn364 O367 2.031 . S
Zn364 O369 2.049 . S
Zn364 O374 2.067 . S
Zn365 O366 1.962 . S
Zn365 O368 1.986 . S
Zn365 O370 1.996 . S
Zn365 O373 1.943 . S
O366 Zn365 1.962 . S
O366 C371 1.254 . S
O367 Zn364 2.031 . S
O367 C371 1.269 . S
O368 Zn365 1.986 . S
O368 C375 1.262 . S
O369 Zn364 2.049 . S
O369 C377 1.260 . S
O370 Zn365 1.996 . S
O370 C377 1.257 . S
C371 O366 1.254 . S
C371 O367 1.269 . S
C372 O373 1.249 . S
C372 O374 1.270 . S
O373 Zn365 1.943 . S
O373 C372 1.249 . S
O374 Zn364 2.067 . S
O374 C372 1.270 . S
C375 O368 1.262 . S
C375 O376 1.232 . S
O376 C375 1.232 . S
C377 O369 1.260 . S
C377 O370 1.257 . S
Zn378 O381 2.031 . S
Zn378 O383 2.049 . S
Zn378 O388 2.067 . S
Zn379 O380 1.962 . S
Zn379 O382 1.986 . S
Zn379 O384 1.996 . S
Zn379 O387 1.943 . S
O380 Zn379 1.962 . S
O380 C385 1.254 . S
O381 Zn378 2.031 . S
O381 C385 1.269 . S
O382 Zn379 1.986 . S
O382 C389 1.262 . S
O383 Zn378 2.049 . S
O383 C391 1.260 . S
O384 Zn379 1.996 . S
O384 C391 1.257 . S
C385 O380 1.254 . S
C385 O381 1.269 . S
C386 O387 1.249 . S
C386 O388 1.270 . S
O387 Zn379 1.943 . S
O387 C386 1.249 . S
O388 Zn378 2.067 . S
O388 C386 1.270 . S
C389 O382 1.262 . S
C389 O390 1.232 . S
O390 C389 1.232 . S
C391 O383 1.260 . S
C391 O384 1.257 . S
Zn392 O395 2.031 . S
Zn392 O397 2.049 . S
Zn392 O402 2.067 . S
Zn393 O394 1.962 . S
Zn393 O396 1.986 . S
Zn393 O398 1.996 . S
Zn393 O401 1.943 . S
O394 Zn393 1.962 . S
O394 C399 1.254 . S
O395 Zn392 2.031 . S
O395 C399 1.269 . S
O396 Zn393 1.986 . S
O396 C403 1.262 . S
O397 Zn392 2.049 . S
O397 C405 1.260 . S
O398 Zn393 1.996 . S
O398 C405 1.257 . S
C399 O394 1.254 . S
C399 O395 1.269 . S
C400 O401 1.249 . S
C400 O402 1.270 . S
O401 Zn393 1.943 . S
O401 C400 1.249 . S
O402 Zn392 2.067 . S
O402 C400 1.270 . S
C403 O396 1.262 . S
C403 O404 1.232 . S
O404 C403 1.232 . S
C405 O397 1.260 . S
C405 O398 1.257 . S
Zn406 O409 2.031 . S
Zn406 O411 2.049 . S
Zn406 O416 2.067 . S
Zn407 O408 1.962 . S
Zn407 O410 1.986 . S
Zn407 O412 1.996 . S
Zn407 O415 1.943 . S
O408 Zn407 1.962 . S
O408 C413 1.254 . S
O409 Zn406 2.031 . S
O409 C413 1.269 . S
O410 Zn407 1.986 . S
O410 C417 1.262 . S
O411 Zn406 2.049 . S
O411 C419 1.260 . S
O412 Zn407 1.996 . S
O412 C419 1.257 . S
C413 O408 1.254 . S
C413 O409 1.269 . S
C414 O415 1.249 . S
C414 O416 1.270 . S
O415 Zn407 1.943 . S
O415 C414 1.249 . S
O416 Zn406 2.067 . S
O416 C414 1.270 . S
C417 O410 1.262 . S
C417 O418 1.232 . S
O418 C417 1.232 . S
C419 O411 1.260 . S
C419 O412 1.257 . S
Zn420 O423 2.031 . S
Zn420 O425 2.049 . S
Zn420 O430 2.067 . S
Zn421 O422 1.962 . S
Zn421 O424 1.986 . S
Zn421 O426 1.996 . S
Zn421 O429 1.943 . S
O422 Zn421 1.962 . S
O422 C427 1.254 . S
O423 Zn420 2.031 . S
O423 C427 1.269 . S
O424 Zn421 1.986 . S
O424 C431 1.262 . S
O425 Zn420 2.049 . S
O425 C433 1.260 . S
O426 Zn421 1.996 . S
O426 C433 1.257 . S
C427 O422 1.254 . S
C427 O423 1.269 . S
C428 O429 1.249 . S
C428 O430 1.270 . S
O429 Zn421 1.943 . S
O429 C428 1.249 . S
O430 Zn420 2.067 . S
O430 C428 1.270 . S
C431 O424 1.262 . S
C431 O432 1.232 . S
O432 C431 1.232 . S
C433 O425 1.260 . S
C433 O426 1.257 . S
Zn434 O437 2.031 . S
Zn434 O439 2.049 . S
Zn434 O444 2.067 . S
Zn435 O436 1.962 . S
Zn435 O438 1.986 . S
Zn435 O440 1.996 . S
Zn435 O443 1.943 . S
O436 Zn435 1.962 . S
O436 C441 1.254 . S
O437 Zn434 2.031 . S
O437 C441 1.269 . S
O438 Zn435 1.986 . S
O438 C445 1.262 . S
O439 Zn434 2.049 . S
O439 C447 1.260 . S
O440 Zn435 1.996 . S
O440 C447 1.257 . S
C441 O436 1.254 . S
C441 O437 1.269 . S
C442 O443 1.249 . S
C442 O444 1.270 . S
O443 Zn435 1.943 . S
O443 C442 1.249 . S
O444 Zn434 2.067 . S
O444 C442 1.270 . S
C445 O438 1.262 . S
C445 O446 1.232 . S
O446 C445 1.232 . S
C447 O439 1.260 . S
C447 O440 1.257 . S
C448 C449 1.387 . S
C448 H452 0.950 . S
C448 C457 1.390 . S
C449 C448 1.387 . S
C449 C451 1.387 . S
H450 C457 0.950 . S
C451 C449 1.387 . S
C451 C453 1.390 . S
C451 H455 0.950 . S
H452 C448 0.950 . S
C453 C451 1.390 . S
C453 C454 1.387 . S
C453 H456 0.950 . S
C454 C453 1.387 . S
C454 C457 1.387 . S
H455 C451 0.950 . S
H456 C453 0.950 . S
C457 C448 1.390 . S
C457 H450 0.950 . S
C457 C454 1.387 . S
C458 C459 1.387 . S
C458 H462 0.950 . S
C458 C467 1.390 . S
C459 C458 1.387 . S
C459 C461 1.387 . S
H460 C467 0.950 . S
C461 C459 1.387 . S
C461 C463 1.390 . S
C461 H465 0.950 . S
H462 C458 0.950 . S
C463 C461 1.390 . S
C463 C464 1.387 . S
C463 H466 0.950 . S
C464 C463 1.387 . S
C464 C467 1.387 . S
H465 C461 0.950 . S
H466 C463 0.950 . S
C467 C458 1.390 . S
C467 H460 0.950 . S
C467 C464 1.387 . S
C468 C469 1.387 . S
C468 H472 0.950 . S
C468 C477 1.390 . S
C469 C468 1.387 . S
C469 C471 1.387 . S
H470 C477 0.950 . S
C471 C469 1.387 . S
C471 C473 1.390 . S
C471 H475 0.950 . S
H472 C468 0.950 . S
C473 C471 1.390 . S
C473 C474 1.387 . S
C473 H476 0.950 . S
C474 C473 1.387 . S
C474 C477 1.387 . S
H475 C471 0.950 . S
H476 C473 0.950 . S
C477 C468 1.390 . S
C477 H470 0.950 . S
C477 C474 1.387 . S
C478 C479 1.387 . S
C478 H482 0.950 . S
C478 C487 1.390 . S
C479 C478 1.387 . S
C479 C481 1.387 . S
H480 C487 0.950 . S
C481 C479 1.387 . S
C481 C483 1.390 . S
C481 H485 0.950 . S
H482 C478 0.950 . S
C483 C481 1.390 . S
C483 C484 1.387 . S
C483 H486 0.950 . S
C484 C483 1.387 . S
C484 C487 1.387 . S
H485 C481 0.950 . S
H486 C483 0.950 . S
C487 C478 1.390 . S
C487 H480 0.950 . S
C487 C484 1.387 . S
C488 C489 1.387 . S
C488 H492 0.950 . S
C488 C497 1.390 . S
C489 C488 1.387 . S
C489 C491 1.387 . S
H490 C497 0.950 . S
C491 C489 1.387 . S
C491 C493 1.390 . S
C491 H495 0.950 . S
H492 C488 0.950 . S
C493 C491 1.390 . S
C493 C494 1.387 . S
C493 H496 0.950 . S
C494 C493 1.387 . S
C494 C497 1.387 . S
H495 C491 0.950 . S
H496 C493 0.950 . S
C497 C488 1.390 . S
C497 H490 0.950 . S
C497 C494 1.387 . S
C498 C499 1.387 . S
C498 H502 0.950 . S
C498 C507 1.390 . S
C499 C498 1.387 . S
C499 C501 1.387 . S
H500 C507 0.950 . S
C501 C499 1.387 . S
C501 C503 1.390 . S
C501 H505 0.950 . S
H502 C498 0.950 . S
C503 C501 1.390 . S
C503 C504 1.387 . S
C503 H506 0.950 . S
C504 C503 1.387 . S
C504 C507 1.387 . S
H505 C501 0.950 . S
H506 C503 0.950 . S
C507 C498 1.390 . S
C507 H500 0.950 . S
C507 C504 1.387 . S
C508 C509 1.387 . S
C508 H512 0.950 . S
C508 C517 1.390 . S
C509 C508 1.387 . S
C509 C511 1.387 . S
H510 C517 0.950 . S
C511 C509 1.387 . S
C511 C513 1.390 . S
C511 H515 0.950 . S
H512 C508 0.950 . S
C513 C511 1.390 . S
C513 C514 1.387 . S
C513 H516 0.950 . S
C514 C513 1.387 . S
C514 C517 1.387 . S
H515 C511 0.950 . S
H516 C513 0.950 . S
C517 C508 1.390 . S
C517 H510 0.950 . S
C517 C514 1.387 . S
C518 C519 1.387 . S
C518 H522 0.950 . S
C518 C527 1.390 . S
C519 C518 1.387 . S
C519 C521 1.387 . S
H520 C527 0.950 . S
C521 C519 1.387 . S
C521 C523 1.390 . S
C521 H525 0.950 . S
H522 C518 0.950 . S
C523 C521 1.390 . S
C523 C524 1.387 . S
C523 H526 0.950 . S
C524 C523 1.387 . S
C524 C527 1.387 . S
H525 C521 0.950 . S
H526 C523 0.950 . S
C527 C518 1.390 . S
C527 H520 0.950 . S
C527 C524 1.387 . S
C528 C529 1.387 . S
C528 H532 0.950 . S
C528 C537 1.390 . S
C529 C528 1.387 . S
C529 C531 1.387 . S
H530 C537 0.950 . S
C531 C529 1.387 . S
C531 C533 1.390 . S
C531 H535 0.950 . S
H532 C528 0.950 . S
C533 C531 1.390 . S
C533 C534 1.387 . S
C533 H536 0.950 . S
C534 C533 1.387 . S
C534 C537 1.387 . S
H535 C531 0.950 . S
H536 C533 0.950 . S
C537 C528 1.390 . S
C537 H530 0.950 . S
C537 C534 1.387 . S
C538 C539 1.387 . S
C538 H542 0.950 . S
C538 C547 1.390 . S
C539 C538 1.387 . S
C539 C541 1.387 . S
H540 C547 0.950 . S
C541 C539 1.387 . S
C541 C543 1.390 . S
C541 H545 0.950 . S
H542 C538 0.950 . S
C543 C541 1.390 . S
C543 C544 1.387 . S
C543 H546 0.950 . S
C544 C543 1.387 . S
C544 C547 1.387 . S
H545 C541 0.950 . S
H546 C543 0.950 . S
C547 C538 1.390 . S
C547 H540 0.950 . S
C547 C544 1.387 . S
C548 C549 1.387 . S
C548 H552 0.950 . S
C548 C557 1.390 . S
C549 C548 1.387 . S
C549 C551 1.387 . S
H550 C557 0.950 . S
C551 C549 1.387 . S
C551 C553 1.390 . S
C551 H555 0.950 . S
H552 C548 0.950 . S
C553 C551 1.390 . S
C553 C554 1.387 . S
C553 H556 0.950 . S
C554 C553 1.387 . S
C554 C557 1.387 . S
H555 C551 0.950 . S
H556 C553 0.950 . S
C557 C548 1.390 . S
C557 H550 0.950 . S
C557 C554 1.387 . S
C558 C559 1.387 . S
C558 H562 0.950 . S
C558 C567 1.390 . S
C559 C558 1.387 . S
C559 C561 1.387 . S
H560 C567 0.950 . S
C561 C559 1.387 . S
C561 C563 1.390 . S
C561 H565 0.950 . S
H562 C558 0.950 . S
C563 C561 1.390 . S
C563 C564 1.387 . S
C563 H566 0.950 . S
C564 C563 1.387 . S
C564 C567 1.387 . S
H565 C561 0.950 . S
H566 C563 0.950 . S
C567 C558 1.390 . S
C567 H560 0.950 . S
C567 C564 1.387 . S
C568 C569 1.387 . S
C568 H572 0.950 . S
C568 C577 1.390 . S
C569 C568 1.387 . S
C569 C571 1.387 . S
H570 C577 0.950 . S
C571 C569 1.387 . S
C571 C573 1.390 . S
C571 H575 0.950 . S
H572 C568 0.950 . S
C573 C571 1.390 . S
C573 C574 1.387 . S
C573 H576 0.950 . S
C574 C573 1.387 . S
C574 C577 1.387 . S
H575 C571 0.950 . S
H576 C573 0.950 . S
C577 C568 1.390 . S
C577 H570 0.950 . S
C577 C574 1.387 . S
C578 C579 1.387 . S
C578 H582 0.950 . S
C578 C587 1.390 . S
C579 C578 1.387 . S
C579 C581 1.387 . S
H580 C587 0.950 . S
C581 C579 1.387 . S
C581 C583 1.390 . S
C581 H585 0.950 . S
H582 C578 0.950 . S
C583 C581 1.390 . S
C583 C584 1.387 . S
C583 H586 0.950 . S
C584 C583 1.387 . S
C584 C587 1.387 . S
H585 C581 0.950 . S
H586 C583 0.950 . S
C587 C578 1.390 . S
C587 H580 0.950 . S
C587 C584 1.387 . S
C588 C589 1.387 . S
C588 H592 0.950 . S
C588 C597 1.390 . S
C589 C588 1.387 . S
C589 C591 1.387 . S
H590 C597 0.950 . S
C591 C589 1.387 . S
C591 C593 1.390 . S
C591 H595 0.950 . S
H592 C588 0.950 . S
C593 C591 1.390 . S
C593 C594 1.387 . S
C593 H596 0.950 . S
C594 C593 1.387 . S
C594 C597 1.387 . S
H595 C591 0.950 . S
H596 C593 0.950 . S
C597 C588 1.390 . S
C597 H590 0.950 . S
C597 C594 1.387 . S
C598 C599 1.387 . S
C598 H602 0.950 . S
C598 C607 1.390 . S
C599 C598 1.387 . S
C599 C601 1.387 . S
H600 C607 0.950 . S
C601 C599 1.387 . S
C601 C603 1.390 . S
C601 H605 0.950 . S
H602 C598 0.950 . S
C603 C601 1.390 . S
C603 C604 1.387 . S
C603 H606 0.950 . S
C604 C603 1.387 . S
C604 C607 1.387 . S
H605 C601 0.950 . S
H606 C603 0.950 . S
C607 C598 1.390 . S
C607 H600 0.950 . S
C607 C604 1.387 . S
C608 C609 1.387 . S
C608 H612 0.950 . S
C608 C617 1.390 1_554 S
C609 C608 1.387 . S
C609 C611 1.387 . S
H610 C617 0.950 . S
C611 C609 1.387 . S
C611 C613 1.390 1_554 S
C611 H615 0.950 . S
H612 C608 0.950 . S
C613 C611 1.390 1_556 S
C613 C614 1.387 . S
C613 H616 0.950 . S
C614 C613 1.387 . S
C614 C617 1.387 . S
H615 C611 0.950 . S
H616 C613 0.950 . S
C617 C608 1.390 1_556 S
C617 H610 0.950 . S
C617 C614 1.387 . S
C618 C619 1.387 . S
C618 H622 0.950 . S
C618 C627 1.390 1_556 S
C619 C618 1.387 . S
C619 C621 1.387 . S
H620 C627 0.950 . S
C621 C619 1.387 . S
C621 C623 1.390 1_556 S
C621 H625 0.950 . S
H622 C618 0.950 . S
C623 C621 1.390 1_554 S
C623 C624 1.387 . S
C623 H626 0.950 . S
C624 C623 1.387 . S
C624 C627 1.387 . S
H625 C621 0.950 . S
H626 C623 0.950 . S
C627 C618 1.390 1_554 S
C627 H620 0.950 . S
C627 C624 1.387 . S
C628 C629 1.387 . S
C628 H632 0.950 . S
C628 C637 1.390 1_556 S
C629 C628 1.387 . S
C629 C631 1.387 . S
H630 C637 0.950 . S
C631 C629 1.387 . S
C631 C633 1.390 1_556 S
C631 H635 0.950 . S
H632 C628 0.950 . S
C633 C631 1.390 1_554 S
C633 C634 1.387 . S
C633 H636 0.950 . S
C634 C633 1.387 . S
C634 C637 1.387 . S
H635 C631 0.950 . S
H636 C633 0.950 . S
C637 C628 1.390 1_554 S
C637 H630 0.950 . S
C637 C634 1.387 . S
C638 C639 1.387 . S
C638 H642 0.950 . S
C638 C647 1.390 1_556 S
C639 C638 1.387 . S
C639 C641 1.387 . S
H640 C647 0.950 . S
C641 C639 1.387 . S
C641 C643 1.390 1_556 S
C641 H645 0.950 . S
H642 C638 0.950 . S
C643 C641 1.390 1_554 S
C643 C644 1.387 . S
C643 H646 0.950 . S
C644 C643 1.387 . S
C644 C647 1.387 . S
H645 C641 0.950 . S
H646 C643 0.950 . S
C647 C638 1.390 1_554 S
C647 H640 0.950 . S
C647 C644 1.387 . S
C648 C649 1.387 . S
C648 H652 0.950 . S
C648 C657 1.390 . S
C649 C648 1.387 . S
C649 C651 1.387 . S
H650 C657 0.950 . S
C651 C649 1.387 . S
C651 C653 1.390 . S
C651 H655 0.950 . S
H652 C648 0.950 . S
C653 C651 1.390 . S
C653 C654 1.387 . S
C653 H656 0.950 . S
C654 C653 1.387 . S
C654 C657 1.387 . S
H655 C651 0.950 . S
H656 C653 0.950 . S
C657 C648 1.390 . S
C657 H650 0.950 . S
C657 C654 1.387 . S
C658 C659 1.387 . S
C658 H662 0.950 . S
C658 C667 1.390 . S
C659 C658 1.387 . S
C659 C661 1.387 . S
H660 C667 0.950 . S
C661 C659 1.387 . S
C661 C663 1.390 . S
C661 H665 0.950 . S
H662 C658 0.950 . S
C663 C661 1.390 . S
C663 C664 1.387 . S
C663 H666 0.950 . S
C664 C663 1.387 . S
C664 C667 1.387 . S
H665 C661 0.950 . S
H666 C663 0.950 . S
C667 C658 1.390 . S
C667 H660 0.950 . S
C667 C664 1.387 . S
C668 C669 1.387 . S
C668 H672 0.950 . S
C668 C677 1.390 . S
C669 C668 1.387 . S
C669 C671 1.387 . S
H670 C677 0.950 . S
C671 C669 1.387 . S
C671 C673 1.390 . S
C671 H675 0.950 . S
H672 C668 0.950 . S
C673 C671 1.390 . S
C673 C674 1.387 . S
C673 H676 0.950 . S
C674 C673 1.387 . S
C674 C677 1.387 . S
H675 C671 0.950 . S
H676 C673 0.950 . S
C677 C668 1.390 . S
C677 H670 0.950 . S
C677 C674 1.387 . S
C678 C679 1.387 . S
C678 H682 0.950 . S
C678 C687 1.390 . S
C679 C678 1.387 . S
C679 C681 1.387 . S
H680 C687 0.950 . S
C681 C679 1.387 . S
C681 C683 1.390 . S
C681 H685 0.950 . S
H682 C678 0.950 . S
C683 C681 1.390 . S
C683 C684 1.387 . S
C683 H686 0.950 . S
C684 C683 1.387 . S
C684 C687 1.387 . S
H685 C681 0.950 . S
H686 C683 0.950 . S
C687 C678 1.390 . S
C687 H680 0.950 . S
C687 C684 1.387 . S
C688 C689 1.387 . S
C688 H692 0.950 . S
C688 C697 1.390 . S
C689 C688 1.387 . S
C689 C691 1.387 . S
H690 C697 0.950 . S
C691 C689 1.387 . S
C691 C693 1.390 . S
C691 H695 0.950 . S
H692 C688 0.950 . S
C693 C691 1.390 . S
C693 C694 1.387 . S
C693 H696 0.950 . S
C694 C693 1.387 . S
C694 C697 1.387 . S
H695 C691 0.950 . S
H696 C693 0.950 . S
C697 C688 1.390 . S
C697 H690 0.950 . S
C697 C694 1.387 . S
C698 C699 1.387 . S
C698 H702 0.950 . S
C698 C707 1.390 . S
C699 C698 1.387 . S
C699 C701 1.387 . S
H700 C707 0.950 . S
C701 C699 1.387 . S
C701 C703 1.390 . S
C701 H705 0.950 . S
H702 C698 0.950 . S
C703 C701 1.390 . S
C703 C704 1.387 . S
C703 H706 0.950 . S
C704 C703 1.387 . S
C704 C707 1.387 . S
H705 C701 0.950 . S
H706 C703 0.950 . S
C707 C698 1.390 . S
C707 H700 0.950 . S
C707 C704 1.387 . S
C708 C709 1.387 . S
C708 H712 0.950 . S
C708 C717 1.390 . S
C709 C708 1.387 . S
C709 C711 1.387 . S
H710 C717 0.950 . S
C711 C709 1.387 . S
C711 C713 1.390 . S
C711 H715 0.950 . S
H712 C708 0.950 . S
C713 C711 1.390 . S
C713 C714 1.387 . S
C713 H716 0.950 . S
C714 C713 1.387 . S
C714 C717 1.387 . S
H715 C711 0.950 . S
H716 C713 0.950 . S
C717 C708 1.390 . S
C717 H710 0.950 . S
C717 C714 1.387 . S
C718 C719 1.387 . S
C718 H722 0.950 . S
C718 C727 1.390 . S
C719 C718 1.387 . S
C719 C721 1.387 . S
H720 C727 0.950 . S
C721 C719 1.387 . S
C721 C723 1.390 . S
C721 H725 0.950 . S
H722 C718 0.950 . S
C723 C721 1.390 . S
C723 C724 1.387 . S
C723 H726 0.950 . S
C724 C723 1.387 . S
C724 C727 1.387 . S
H725 C721 0.950 . S
H726 C723 0.950 . S
C727 C718 1.390 . S
C727 H720 0.950 . S
C727 C724 1.387 . S
C728 C729 1.387 . S
C728 H732 0.950 . S
C728 C737 1.390 1_556 S
C729 C728 1.387 . S
C729 C731 1.387 . S
H730 C737 0.950 . S
C731 C729 1.387 . S
C731 C733 1.390 1_556 S
C731 H735 0.950 . S
H732 C728 0.950 . S
C733 C731 1.390 1_554 S
C733 C734 1.387 . S
C733 H736 0.950 . S
C734 C733 1.387 . S
C734 C737 1.387 . S
H735 C731 0.950 . S
H736 C733 0.950 . S
C737 C728 1.390 1_554 S
C737 H730 0.950 . S
C737 C734 1.387 . S
C738 C739 1.387 . S
C738 H742 0.950 . S
C738 C747 1.390 1_554 S
C739 C738 1.387 . S
C739 C741 1.387 . S
H740 C747 0.950 . S
C741 C739 1.387 . S
C741 C743 1.390 1_554 S
C741 H745 0.950 . S
H742 C738 0.950 . S
C743 C741 1.390 1_556 S
C743 C744 1.387 . S
C743 H746 0.950 . S
C744 C743 1.387 . S
C744 C747 1.387 . S
H745 C741 0.950 . S
H746 C743 0.950 . S
C747 C738 1.390 1_556 S
C747 H740 0.950 . S
C747 C744 1.387 . S
C748 C749 1.387 . S
C748 H752 0.950 . S
C748 C757 1.390 1_554 S
C749 C748 1.387 . S
C749 C751 1.387 . S
H750 C757 0.950 . S
C751 C749 1.387 . S
C751 C753 1.390 1_554 S
C751 H755 0.950 . S
H752 C748 0.950 . S
C753 C751 1.390 1_556 S
C753 C754 1.387 . S
C753 H756 0.950 . S
C754 C753 1.387 . S
C754 C757 1.387 . S
H755 C751 0.950 . S
H756 C753 0.950 . S
C757 C748 1.390 1_556 S
C757 H750 0.950 . S
C757 C754 1.387 . S
C758 C759 1.387 . S
C758 H762 0.950 . S
C758 C767 1.390 1_556 S
C759 C758 1.387 . S
C759 C761 1.387 . S
H760 C767 0.950 . S
C761 C759 1.387 . S
C761 C763 1.390 1_556 S
C761 H765 0.950 . S
H762 C758 0.950 . S
C763 C761 1.390 1_554 S
C763 C764 1.387 . S
C763 H766 0.950 . S
C764 C763 1.387 . S
C764 C767 1.387 . S
H765 C761 0.950 . S
H766 C763 0.950 . S
C767 C758 1.390 1_554 S
C767 H760 0.950 . S
C767 C764 1.387 . S
C768 C769 1.387 . S
C768 H772 0.950 . S
C768 C777 1.390 1_545 S
C769 C768 1.387 . S
C769 C771 1.387 . S
H770 C777 0.950 . S
C771 C769 1.387 . S
C771 C773 1.390 1_545 S
C771 H775 0.950 . S
H772 C768 0.950 . S
C773 C771 1.390 1_565 S
C773 C774 1.387 . S
C773 H776 0.950 . S
C774 C773 1.387 . S
C774 C777 1.387 . S
H775 C771 0.950 . S
H776 C773 0.950 . S
C777 C768 1.390 1_565 S
C777 H770 0.950 . S
C777 C774 1.387 . S
C778 C779 1.387 . S
C778 H782 0.950 . S
C778 C787 1.390 1_655 S
C779 C778 1.387 . S
C779 C781 1.387 . S
H780 C787 0.950 . S
C781 C779 1.387 . S
C781 C783 1.390 1_655 S
C781 H785 0.950 . S
H782 C778 0.950 . S
C783 C781 1.390 1_455 S
C783 C784 1.387 . S
C783 H786 0.950 . S
C784 C783 1.387 . S
C784 C787 1.387 . S
H785 C781 0.950 . S
H786 C783 0.950 . S
C787 C778 1.390 1_455 S
C787 H780 0.950 . S
C787 C784 1.387 . S
C788 C789 1.387 . S
C788 H792 0.950 . S
C788 C797 1.390 1_545 S
C789 C788 1.387 . S
C789 C791 1.387 . S
H790 C797 0.950 . S
C791 C789 1.387 . S
C791 C793 1.390 1_545 S
C791 H795 0.950 . S
H792 C788 0.950 . S
C793 C791 1.390 1_565 S
C793 C794 1.387 . S
C793 H796 0.950 . S
C794 C793 1.387 . S
C794 C797 1.387 . S
H795 C791 0.950 . S
H796 C793 0.950 . S
C797 C788 1.390 1_565 S
C797 H790 0.950 . S
C797 C794 1.387 . S
C798 C799 1.387 . S
C798 H802 0.950 . S
C798 C807 1.390 1_455 S
C799 C798 1.387 . S
C799 C801 1.387 . S
H800 C807 0.950 . S
C801 C799 1.387 . S
C801 C803 1.390 1_455 S
C801 H805 0.950 . S
H802 C798 0.950 . S
C803 C801 1.390 1_655 S
C803 C804 1.387 . S
C803 H806 0.950 . S
C804 C803 1.387 . S
C804 C807 1.387 . S
H805 C801 0.950 . S
H806 C803 0.950 . S
C807 C798 1.390 1_655 S
C807 H800 0.950 . S
C807 C804 1.387 . S
C808 C809 1.387 . S
C808 H812 0.950 . S
C808 C817 1.390 1_565 S
C809 C808 1.387 . S
C809 C811 1.387 . S
H810 C817 0.950 . S
C811 C809 1.387 . S
C811 C813 1.390 1_565 S
C811 H815 0.950 . S
H812 C808 0.950 . S
C813 C811 1.390 1_545 S
C813 C814 1.387 . S
C813 H816 0.950 . S
C814 C813 1.387 . S
C814 C817 1.387 . S
H815 C811 0.950 . S
H816 C813 0.950 . S
C817 C808 1.390 1_545 S
C817 H810 0.950 . S
C817 C814 1.387 . S
C818 C819 1.387 . S
C818 H822 0.950 . S
C818 C827 1.390 1_655 S
C819 C818 1.387 . S
C819 C821 1.387 . S
H820 C827 0.950 . S
C821 C819 1.387 . S
C821 C823 1.390 1_655 S
C821 H825 0.950 . S
H822 C818 0.950 . S
C823 C821 1.390 1_455 S
C823 C824 1.387 . S
C823 H826 0.950 . S
C824 C823 1.387 . S
C824 C827 1.387 . S
H825 C821 0.950 . S
H826 C823 0.950 . S
C827 C818 1.390 1_455 S
C827 H820 0.950 . S
C827 C824 1.387 . S
C828 C829 1.387 . S
C828 H832 0.950 . S
C828 C837 1.390 1_565 S
C829 C828 1.387 . S
C829 C831 1.387 . S
H830 C837 0.950 . S
C831 C829 1.387 . S
C831 C833 1.390 1_565 S
C831 H835 0.950 . S
H832 C828 0.950 . S
C833 C831 1.390 1_545 S
C833 C834 1.387 . S
C833 H836 0.950 . S
C834 C833 1.387 . S
C834 C837 1.387 . S
H835 C831 0.950 . S
H836 C833 0.950 . S
C837 C828 1.390 1_545 S
C837 H830 0.950 . S
C837 C834 1.387 . S
C838 C839 1.387 . S
C838 H842 0.950 . S
C838 C847 1.390 1_655 S
C839 C838 1.387 . S
C839 C841 1.387 . S
H840 C847 0.950 . S
C841 C839 1.387 . S
C841 C843 1.390 1_655 S
C841 H845 0.950 . S
H842 C838 0.950 . S
C843 C841 1.390 1_455 S
C843 C844 1.387 . S
C843 H846 0.950 . S
C844 C843 1.387 . S
C844 C847 1.387 . S
H845 C841 0.950 . S
H846 C843 0.950 . S
C847 C838 1.390 1_455 S
C847 H840 0.950 . S
C847 C844 1.387 . S
C848 C849 1.387 . S
C848 H852 0.950 . S
C848 C857 1.390 . S
C849 C848 1.387 . S
C849 C851 1.387 . S
H850 C857 0.950 . S
C851 C849 1.387 . S
C851 C853 1.390 . S
C851 H855 0.950 . S
H852 C848 0.950 . S
C853 C851 1.390 . S
C853 C854 1.387 . S
C853 H856 0.950 . S
C854 C853 1.387 . S
C854 C857 1.387 . S
H855 C851 0.950 . S
H856 C853 0.950 . S
C857 C848 1.390 . S
C857 H850 0.950 . S
C857 C854 1.387 . S
C858 C859 1.387 . S
C858 H862 0.950 . S
C858 C867 1.390 . S
C859 C858 1.387 . S
C859 C861 1.387 . S
H860 C867 0.950 . S
C861 C859 1.387 . S
C861 C863 1.390 . S
C861 H865 0.950 . S
H862 C858 0.950 . S
C863 C861 1.390 . S
C863 C864 1.387 . S
C863 H866 0.950 . S
C864 C863 1.387 . S
C864 C867 1.387 . S
H865 C861 0.950 . S
H866 C863 0.950 . S
C867 C858 1.390 . S
C867 H860 0.950 . S
C867 C864 1.387 . S
C868 C869 1.387 . S
C868 H872 0.950 . S
C868 C877 1.390 . S
C869 C868 1.387 . S
C869 C871 1.387 . S
H870 C877 0.950 . S
C871 C869 1.387 . S
C871 C873 1.390 . S
C871 H875 0.950 . S
H872 C868 0.950 . S
C873 C871 1.390 . S
C873 C874 1.387 . S
C873 H876 0.950 . S
C874 C873 1.387 . S
C874 C877 1.387 . S
H875 C871 0.950 . S
H876 C873 0.950 . S
C877 C868 1.390 . S
C877 H870 0.950 . S
C877 C874 1.387 . S
C878 C879 1.387 . S
C878 H882 0.950 . S
C878 C887 1.390 . S
C879 C878 1.387 . S
C879 C881 1.387 . S
H880 C887 0.950 . S
C881 C879 1.387 . S
C881 C883 1.390 . S
C881 H885 0.950 . S
H882 C878 0.950 . S
C883 C881 1.390 . S
C883 C884 1.387 . S
C883 H886 0.950 . S
C884 C883 1.387 . S
C884 C887 1.387 . S
H885 C881 0.950 . S
H886 C883 0.950 . S
C887 C878 1.390 . S
C887 H880 0.950 . S
C887 C884 1.387 . S
C888 C889 1.387 . S
C888 H892 0.950 . S
C888 C897 1.390 . S
C889 C888 1.387 . S
C889 C891 1.387 . S
H890 C897 0.950 . S
C891 C889 1.387 . S
C891 C893 1.390 . S
C891 H895 0.950 . S
H892 C888 0.950 . S
C893 C891 1.390 . S
C893 C894 1.387 . S
C893 H896 0.950 . S
C894 C893 1.387 . S
C894 C897 1.387 . S
H895 C891 0.950 . S
H896 C893 0.950 . S
C897 C888 1.390 . S
C897 H890 0.950 . S
C897 C894 1.387 . S
C898 C899 1.387 . S
C898 H902 0.950 . S
C898 C907 1.390 . S
C899 C898 1.387 . S
C899 C901 1.387 . S
H900 C907 0.950 . S
C901 C899 1.387 . S
C901 C903 1.390 . S
C901 H905 0.950 . S
H902 C898 0.950 . S
C903 C901 1.390 . S
C903 C904 1.387 . S
C903 H906 0.950 . S
C904 C903 1.387 . S
C904 C907 1.387 . S
H905 C901 0.950 . S
H906 C903 0.950 . S
C907 C898 1.390 . S
C907 H900 0.950 . S
C907 C904 1.387 . S
C908 C909 1.387 . S
C908 H912 0.950 . S
C908 C917 1.390 . S
C909 C908 1.387 . S
C909 C911 1.387 . S
H910 C917 0.950 . S
C911 C909 1.387 . S
C911 C913 1.390 . S
C911 H915 0.950 . S
H912 C908 0.950 . S
C913 C911 1.390 . S
C913 C914 1.387 . S
C913 H916 0.950 . S
C914 C913 1.387 . S
C914 C917 1.387 . S
H915 C911 0.950 . S
H916 C913 0.950 . S
C917 C908 1.390 . S
C917 H910 0.950 . S
C917 C914 1.387 . S
C918 C919 1.387 . S
C918 H922 0.950 . S
C918 C927 1.390 . S
C919 C918 1.387 . S
C919 C921 1.387 . S
H920 C927 0.950 . S
C921 C919 1.387 . S
C921 C923 1.390 . S
C921 H925 0.950 . S
H922 C918 0.950 . S
C923 C921 1.390 . S
C923 C924 1.387 . S
C923 H926 0.950 . S
C924 C923 1.387 . S
C924 C927 1.387 . S
H925 C921 0.950 . S
H926 C923 0.950 . S
C927 C918 1.390 . S
C927 H920 0.950 . S
C927 C924 1.387 . S
C928 C929 1.387 . S
C928 H932 0.950 . S
C928 C937 1.390 . S
C929 C928 1.387 . S
C929 C931 1.387 . S
H930 C937 0.950 . S
C931 C929 1.387 . S
C931 C933 1.390 . S
C931 H935 0.950 . S
H932 C928 0.950 . S
C933 C931 1.390 . S
C933 C934 1.387 . S
C933 H936 0.950 . S
C934 C933 1.387 . S
C934 C937 1.387 . S
H935 C931 0.950 . S
H936 C933 0.950 . S
C937 C928 1.390 . S
C937 H930 0.950 . S
C937 C934 1.387 . S
C938 C939 1.387 . S
C938 H942 0.950 . S
C938 C947 1.390 . S
C939 C938 1.387 . S
C939 C941 1.387 . S
H940 C947 0.950 . S
C941 C939 1.387 . S
C941 C943 1.390 . S
C941 H945 0.950 . S
H942 C938 0.950 . S
C943 C941 1.390 . S
C943 C944 1.387 . S
C943 H946 0.950 . S
C944 C943 1.387 . S
C944 C947 1.387 . S
H945 C941 0.950 . S
H946 C943 0.950 . S
C947 C938 1.390 . S
C947 H940 0.950 . S
C947 C944 1.387 . S
C948 C949 1.387 . S
C948 H952 0.950 . S
C948 C957 1.390 . S
C949 C948 1.387 . S
C949 C951 1.387 . S
H950 C957 0.950 . S
C951 C949 1.387 . S
C951 C953 1.390 . S
C951 H955 0.950 . S
H952 C948 0.950 . S
C953 C951 1.390 . S
C953 C954 1.387 . S
C953 H956 0.950 . S
C954 C953 1.387 . S
C954 C957 1.387 . S
H955 C951 0.950 . S
H956 C953 0.950 . S
C957 C948 1.390 . S
C957 H950 0.950 . S
C957 C954 1.387 . S
C958 C959 1.387 . S
C958 H962 0.950 . S
C958 C967 1.390 . S
C959 C958 1.387 . S
C959 C961 1.387 . S
H960 C967 0.950 . S
C961 C959 1.387 . S
C961 C963 1.390 . S
C961 H965 0.950 . S
H962 C958 0.950 . S
C963 C961 1.390 . S
C963 C964 1.387 . S
C963 H966 0.950 . S
C964 C963 1.387 . S
C964 C967 1.387 . S
H965 C961 0.950 . S
H966 C963 0.950 . S
C967 C958 1.390 . S
C967 H960 0.950 . S
C967 C964 1.387 . S
C968 C969 1.387 . S
C968 H972 0.950 . S
C968 C977 1.390 . S
C969 C968 1.387 . S
C969 C971 1.387 . S
H970 C977 0.950 . S
C971 C969 1.387 . S
C971 C973 1.390 . S
C971 H975 0.950 . S
H972 C968 0.950 . S
C973 C971 1.390 . S
C973 C974 1.387 . S
C973 H976 0.950 . S
C974 C973 1.387 . S
C974 C977 1.387 . S
H975 C971 0.950 . S
H976 C973 0.950 . S
C977 C968 1.390 . S
C977 H970 0.950 . S
C977 C974 1.387 . S
C978 C979 1.387 . S
C978 H982 0.950 . S
C978 C987 1.390 . S
C979 C978 1.387 . S
C979 C981 1.387 . S
H980 C987 0.950 . S
C981 C979 1.387 . S
C981 C983 1.390 . S
C981 H985 0.950 . S
H982 C978 0.950 . S
C983 C981 1.390 . S
C983 C984 1.387 . S
C983 H986 0.950 . S
C984 C983 1.387 . S
C984 C987 1.387 . S
H985 C981 0.950 . S
H986 C983 0.950 . S
C987 C978 1.390 . S
C987 H980 0.950 . S
C987 C984 1.387 . S
C988 C989 1.387 . S
C988 H992 0.950 . S
C988 C997 1.390 . S
C989 C988 1.387 . S
C989 C991 1.387 . S
H990 C997 0.950 . S
C991 C989 1.387 . S
C991 C993 1.390 . S
C991 H995 0.950 . S
H992 C988 0.950 . S
C993 C991 1.390 . S
C993 C994 1.387 . S
C993 H996 0.950 . S
C994 C993 1.387 . S
C994 C997 1.387 . S
H995 C991 0.950 . S
H996 C993 0.950 . S
C997 C988 1.390 . S
C997 H990 0.950 . S
C997 C994 1.387 . S
C998 C999 1.387 . S
C998 H1002 0.950 . S
C998 C1007 1.390 . S
C999 C998 1.387 . S
C999 C1001 1.387 . S
H1000 C1007 0.950 . S
C1001 C999 1.387 . S
C1001 C1003 1.390 . S
C1001 H1005 0.950 . S
H1002 C998 0.950 . S
C1003 C1001 1.390 . S
C1003 C1004 1.387 . S
C1003 H1006 0.950 . S
C1004 C1003 1.387 . S
C1004 C1007 1.387 . S
H1005 C1001 0.950 . S
H1006 C1003 0.950 . S
C1007 C998 1.390 . S
C1007 H1000 0.950 . S
C1007 C1004 1.387 . S
C1008 C1009 1.387 . S
C1008 H1012 0.950 . S
C1008 C1017 1.390 . S
C1009 C1008 1.387 . S
C1009 C1011 1.387 . S
H1010 C1017 0.950 . S
C1011 C1009 1.387 . S
C1011 C1013 1.390 . S
C1011 H1015 0.950 . S
H1012 C1008 0.950 . S
C1013 C1011 1.390 . S
C1013 C1014 1.387 . S
C1013 H1016 0.950 . S
C1014 C1013 1.387 . S
C1014 C1017 1.387 . S
H1015 C1011 0.950 . S
H1016 C1013 0.950 . S
C1017 C1008 1.390 . S
C1017 H1010 0.950 . S
C1017 C1014 1.387 . S
C1018 C1019 1.387 . S
C1018 H1022 0.950 . S
C1018 C1027 1.390 . S
C1019 C1018 1.387 . S
C1019 C1021 1.387 . S
H1020 C1027 0.950 . S
C1021 C1019 1.387 . S
C1021 C1023 1.390 . S
C1021 H1025 0.950 . S
H1022 C1018 0.950 . S
C1023 C1021 1.390 . S
C1023 C1024 1.387 . S
C1023 H1026 0.950 . S
C1024 C1023 1.387 . S
C1024 C1027 1.387 . S
H1025 C1021 0.950 . S
H1026 C1023 0.950 . S
C1027 C1018 1.390 . S
C1027 H1020 0.950 . S
C1027 C1024 1.387 . S
C1028 C1029 1.387 . S
C1028 H1032 0.950 . S
C1028 C1037 1.390 . S
C1029 C1028 1.387 . S
C1029 C1031 1.387 . S
H1030 C1037 0.950 . S
C1031 C1029 1.387 . S
C1031 C1033 1.390 . S
C1031 H1035 0.950 . S
H1032 C1028 0.950 . S
C1033 C1031 1.390 . S
C1033 C1034 1.387 . S
C1033 H1036 0.950 . S
C1034 C1033 1.387 . S
C1034 C1037 1.387 . S
H1035 C1031 0.950 . S
H1036 C1033 0.950 . S
C1037 C1028 1.390 . S
C1037 H1030 0.950 . S
C1037 C1034 1.387 . S
C1038 C1039 1.387 . S
C1038 H1042 0.950 . S
C1038 C1047 1.390 . S
C1039 C1038 1.387 . S
C1039 C1041 1.387 . S
H1040 C1047 0.950 . S
C1041 C1039 1.387 . S
C1041 C1043 1.390 . S
C1041 H1045 0.950 . S
H1042 C1038 0.950 . S
C1043 C1041 1.390 . S
C1043 C1044 1.387 . S
C1043 H1046 0.950 . S
C1044 C1043 1.387 . S
C1044 C1047 1.387 . S
H1045 C1041 0.950 . S
H1046 C1043 0.950 . S
C1047 C1038 1.390 . S
C1047 H1040 0.950 . S
C1047 C1044 1.387 . S
C1048 C1049 1.387 . S
C1048 H1052 0.950 . S
C1048 C1057 1.390 . S
C1049 C1048 1.387 . S
C1049 C1051 1.387 . S
H1050 C1057 0.950 . S
C1051 C1049 1.387 . S
C1051 C1053 1.390 . S
C1051 H1055 0.950 . S
H1052 C1048 0.950 . S
C1053 C1051 1.390 . S
C1053 C1054 1.387 . S
C1053 H1056 0.950 . S
C1054 C1053 1.387 . S
C1054 C1057 1.387 . S
H1055 C1051 0.950 . S
H1056 C1053 0.950 . S
C1057 C1048 1.390 . S
C1057 H1050 0.950 . S
C1057 C1054 1.387 . S
C1058 C1059 1.387 . S
C1058 H1062 0.950 . S
C1058 C1067 1.390 . S
C1059 C1058 1.387 . S
C1059 C1061 1.387 . S
H1060 C1067 0.950 . S
C1061 C1059 1.387 . S
C1061 C1063 1.390 . S
C1061 H1065 0.950 . S
H1062 C1058 0.950 . S
C1063 C1061 1.390 . S
C1063 C1064 1.387 . S
C1063 H1066 0.950 . S
C1064 C1063 1.387 . S
C1064 C1067 1.387 . S
H1065 C1061 0.950 . S
H1066 C1063 0.950 . S
C1067 C1058 1.390 . S
C1067 H1060 0.950 . S
C1067 C1064 1.387 . S
C1068 C1069 1.387 . S
C1068 H1072 0.950 . S
C1068 C1077 1.390 . S
C1069 C1068 1.387 . S
C1069 C1071 1.387 . S
H1070 C1077 0.950 . S
C1071 C1069 1.387 . S
C1071 C1073 1.390 . S
C1071 H1075 0.950 . S
H1072 C1068 0.950 . S
C1073 C1071 1.390 . S
C1073 C1074 1.387 . S
C1073 H1076 0.950 . S
C1074 C1073 1.387 . S
C1074 C1077 1.387 . S
H1075 C1071 0.950 . S
H1076 C1073 0.950 . S
C1077 C1068 1.390 . S
C1077 H1070 0.950 . S
C1077 C1074 1.387 . S
C1078 C1079 1.387 . S
C1078 H1082 0.950 . S
C1078 C1087 1.390 . S
C1079 C1078 1.387 . S
C1079 C1081 1.387 . S
H1080 C1087 0.950 . S
C1081 C1079 1.387 . S
C1081 C1083 1.390 . S
C1081 H1085 0.950 . S
H1082 C1078 0.950 . S
C1083 C1081 1.390 . S
C1083 C1084 1.387 . S
C1083 H1086 0.950 . S
C1084 C1083 1.387 . S
C1084 C1087 1.387 . S
H1085 C1081 0.950 . S
H1086 C1083 0.950 . S
C1087 C1078 1.390 . S
C1087 H1080 0.950 . S
C1087 C1084 1.387 . S
C449 C414 1.326 . S
C454 C8 1.323 . S
C459 C22 1.323 . S
C464 C428 1.326 . S
C469 C442 1.323 . S
C474 C36 1.326 . S
C479 C400 1.326 . S
C484 C50 1.323 . S
C489 C64 1.326 . S
C494 C386 1.323 . S
C499 C344 1.323 . S
C504 C78 1.326 . S
C509 C92 1.323 . S
C514 C358 1.326 . S
C519 C372 1.323 . S
C524 C106 1.326 . S
C529 C120 1.323 . S
C534 C302 1.326 . S
C539 C134 1.323 . S
C544 C316 1.326 . S
C549 C330 1.323 . S
C554 C148 1.326 . S
C559 C162 1.326 . S
C564 C288 1.323 . S
C569 C274 1.323 . S
C574 C176 1.326 . S
C579 C232 1.326 . S
C584 C190 1.323 . S
C589 C204 1.326 . S
C594 C246 1.323 . S
C599 C218 1.323 . S
C604 C260 1.326 . S
C609 C7 1.446 . S
C614 C147 1.447 . S
C619 C161 1.447 . S
C624 C21 1.446 . S
C629 C119 1.446 . S
C634 C35 1.447 . S
C639 C133 1.447 . S
C644 C49 1.446 . S
C649 C63 1.447 . S
C654 C203 1.446 . S
C659 C217 1.446 . S
C664 C77 1.447 . S
C669 C175 1.447 . S
C674 C91 1.446 . S
C679 C189 1.447 . S
C684 C105 1.446 . S
C689 C231 1.446 . S
C694 C371 1.447 . S
C699 C385 1.446 . S
C704 C245 1.447 . S
C709 C343 1.447 . S
C714 C259 1.446 . S
C719 C273 1.447 . S
C724 C357 1.446 . S
C729 C287 1.446 . S
C734 C427 1.447 . S
C739 C441 1.446 . S
C744 C301 1.447 . S
C749 C399 1.447 . S
C754 C315 1.446 . S
C759 C329 1.446 . S
C764 C413 1.447 . S
C769 C11 1.340 . S
C774 C67 1.340 . S
C779 C25 1.340 . S
C784 C81 1.340 . S
C789 C95 1.340 . S
C794 C39 1.340 . S
C799 C53 1.340 . S
C804 C109 1.340 . S
C809 C123 1.340 . S
C814 C179 1.340 . S
C819 C193 1.341 . S
C824 C137 1.341 . S
C829 C207 1.341 . S
C834 C151 1.341 . S
C839 C165 1.341 . S
C844 C221 1.341 . S
C849 C235 1.340 . S
C854 C291 1.340 . S
C859 C305 1.340 . S
C864 C249 1.340 . S
C869 C263 1.341 . S
C874 C319 1.341 . S
C879 C333 1.340 . S
C884 C277 1.340 . S
C889 C403 1.340 . S
C894 C347 1.340 . S
C899 C361 1.341 . S
C904 C417 1.341 . S
C909 C375 1.340 . S
C914 C431 1.340 . S
C919 C389 1.341 . S
C924 C445 1.341 . S
C929 C13 1.405 . S
C934 C83 1.407 . S
C939 C27 1.407 . S
C944 C97 1.405 . S
C949 C111 1.407 . S
C954 C41 1.405 . S
C959 C69 1.405 . S
C964 C55 1.407 . S
C969 C195 1.404 . S
C974 C125 1.407 . S
C979 C209 1.404 . S
C984 C139 1.407 . S
C989 C223 1.407 . S
C994 C153 1.405 . S
C999 C167 1.407 . S
C1004 C181 1.404 . S
C1009 C237 1.404 . S
C1014 C307 1.407 . S
C1019 C321 1.406 . S
C1024 C251 1.403 . S
C1029 C335 1.403 . S
C1034 C265 1.405 . S
C1039 C279 1.407 . S
C1044 C293 1.405 . S
C1049 C419 1.407 . S
C1054 C349 1.406 . S
C1059 C363 1.406 . S
C1064 C433 1.404 . S
C1069 C377 1.405 . S
C1074 C447 1.407 . S
C1079 C405 1.404 . S
C1084 C391 1.407 . S
