# Generated by pormake.
# Topology snl, (6)-cn, num edge types: 1
# Building blocks:
#     Node 0, Type 0, BuildingBlock: MIDCAF_clean_sbu_0, # of connection points: 6
#     Node 1, Type 0, BuildingBlock: MIDCAF_clean_sbu_0, # of connection points: 6
#     Node 2, Type 0, BuildingBlock: MIDCAF_clean_sbu_0, # of connection points: 6
#     Node 3, Type 0, BuildingBlock: MIDCAF_clean_sbu_0, # of connection points: 6
#     Node 4, Type 0, BuildingBlock: MIDCAF_clean_sbu_0, # of connection points: 6
#     Node 5, Type 0, BuildingBlock: MIDCAF_clean_sbu_0, # of connection points: 6
#     Node 6, Type 0, BuildingBlock: MIDCAF_clean_sbu_0, # of connection points: 6
#     Node 7, Type 0, BuildingBlock: MIDCAF_clean_sbu_0, # of connection points: 6
#     Node 8, Type 0, BuildingBlock: MIDCAF_clean_sbu_0, # of connection points: 6
#     Node 9, Type 0, BuildingBlock: MIDCAF_clean_sbu_0, # of connection points: 6
#     Node 10, Type 0, BuildingBlock: MIDCAF_clean_sbu_0, # of connection points: 6
#     Node 11, Type 0, BuildingBlock: MIDCAF_clean_sbu_0, # of connection points: 6
#     Node 12, Type 0, BuildingBlock: MIDCAF_clean_sbu_0, # of connection points: 6
#     Node 13, Type 0, BuildingBlock: MIDCAF_clean_sbu_0, # of connection points: 6
#     Node 14, Type 0, BuildingBlock: MIDCAF_clean_sbu_0, # of connection points: 6
#     Node 15, Type 0, BuildingBlock: MIDCAF_clean_sbu_0, # of connection points: 6
#     Edge 16, Type (0, 0), BuildingBlock: TEMPAE_clean_linker_10, # of connection points: 2
#     Edge 17, Type (0, 0), BuildingBlock: TEMPAE_clean_linker_10, # of connection points: 2
#     Edge 18, Type (0, 0), BuildingBlock: TEMPAE_clean_linker_10, # of connection points: 2
#     Edge 19, Type (0, 0), BuildingBlock: TEMPAE_clean_linker_10, # of connection points: 2
#     Edge 20, Type (0, 0), BuildingBlock: TEMPAE_clean_linker_10, # of connection points: 2
#     Edge 21, Type (0, 0), BuildingBlock: TEMPAE_clean_linker_10, # of connection points: 2
#     Edge 22, Type (0, 0), BuildingBlock: TEMPAE_clean_linker_10, # of connection points: 2
#     Edge 23, Type (0, 0), BuildingBlock: TEMPAE_clean_linker_10, # of connection points: 2
#     Edge 24, Type (0, 0), BuildingBlock: TEMPAE_clean_linker_10, # of connection points: 2
#     Edge 25, Type (0, 0), BuildingBlock: TEMPAE_clean_linker_10, # of connection points: 2
#     Edge 26, Type (0, 0), BuildingBlock: TEMPAE_clean_linker_10, # of connection points: 2
#     Edge 27, Type (0, 0), BuildingBlock: TEMPAE_clean_linker_10, # of connection points: 2
#     Edge 28, Type (0, 0), BuildingBlock: TEMPAE_clean_linker_10, # of connection points: 2
#     Edge 29, Type (0, 0), BuildingBlock: TEMPAE_clean_linker_10, # of connection points: 2
#     Edge 30, Type (0, 0), BuildingBlock: TEMPAE_clean_linker_10, # of connection points: 2
#     Edge 31, Type (0, 0), BuildingBlock: TEMPAE_clean_linker_10, # of connection points: 2
#     Edge 32, Type (0, 0), BuildingBlock: TEMPAE_clean_linker_10, # of connection points: 2
#     Edge 33, Type (0, 0), BuildingBlock: TEMPAE_clean_linker_10, # of connection points: 2
#     Edge 34, Type (0, 0), BuildingBlock: TEMPAE_clean_linker_10, # of connection points: 2
#     Edge 35, Type (0, 0), BuildingBlock: TEMPAE_clean_linker_10, # of connection points: 2
#     Edge 36, Type (0, 0), BuildingBlock: TEMPAE_clean_linker_10, # of connection points: 2
#     Edge 37, Type (0, 0), BuildingBlock: TEMPAE_clean_linker_10, # of connection points: 2
#     Edge 38, Type (0, 0), BuildingBlock: TEMPAE_clean_linker_10, # of connection points: 2
#     Edge 39, Type (0, 0), BuildingBlock: TEMPAE_clean_linker_10, # of connection points: 2
#     Edge 40, Type (0, 0), BuildingBlock: TEMPAE_clean_linker_10, # of connection points: 2
#     Edge 41, Type (0, 0), BuildingBlock: TEMPAE_clean_linker_10, # of connection points: 2
#     Edge 42, Type (0, 0), BuildingBlock: TEMPAE_clean_linker_10, # of connection points: 2
#     Edge 43, Type (0, 0), BuildingBlock: TEMPAE_clean_linker_10, # of connection points: 2
#     Edge 44, Type (0, 0), BuildingBlock: TEMPAE_clean_linker_10, # of connection points: 2
#     Edge 45, Type (0, 0), BuildingBlock: TEMPAE_clean_linker_10, # of connection points: 2
#     Edge 46, Type (0, 0), BuildingBlock: TEMPAE_clean_linker_10, # of connection points: 2
#     Edge 47, Type (0, 0), BuildingBlock: TEMPAE_clean_linker_10, # of connection points: 2
#     Edge 48, Type (0, 0), BuildingBlock: TEMPAE_clean_linker_10, # of connection points: 2
#     Edge 49, Type (0, 0), BuildingBlock: TEMPAE_clean_linker_10, # of connection points: 2
#     Edge 50, Type (0, 0), BuildingBlock: TEMPAE_clean_linker_10, # of connection points: 2
#     Edge 51, Type (0, 0), BuildingBlock: TEMPAE_clean_linker_10, # of connection points: 2
#     Edge 52, Type (0, 0), BuildingBlock: TEMPAE_clean_linker_10, # of connection points: 2
#     Edge 53, Type (0, 0), BuildingBlock: TEMPAE_clean_linker_10, # of connection points: 2
#     Edge 54, Type (0, 0), BuildingBlock: TEMPAE_clean_linker_10, # of connection points: 2
#     Edge 55, Type (0, 0), BuildingBlock: TEMPAE_clean_linker_10, # of connection points: 2
#     Edge 56, Type (0, 0), BuildingBlock: TEMPAE_clean_linker_10, # of connection points: 2
#     Edge 57, Type (0, 0), BuildingBlock: TEMPAE_clean_linker_10, # of connection points: 2
#     Edge 58, Type (0, 0), BuildingBlock: TEMPAE_clean_linker_10, # of connection points: 2
#     Edge 59, Type (0, 0), BuildingBlock: TEMPAE_clean_linker_10, # of connection points: 2
#     Edge 60, Type (0, 0), BuildingBlock: TEMPAE_clean_linker_10, # of connection points: 2
#     Edge 61, Type (0, 0), BuildingBlock: TEMPAE_clean_linker_10, # of connection points: 2
#     Edge 62, Type (0, 0), BuildingBlock: TEMPAE_clean_linker_10, # of connection points: 2
#     Edge 63, Type (0, 0), BuildingBlock: TEMPAE_clean_linker_10, # of connection points: 2
# Relax obj value: 0.110
# Max RMSD: 0.168
# Mean RMSD: 0.168
data_MOF--net-snl--node1-MIDCAF_clean_sbu_0--edge1-TEMPAE_clean_linker_10
_symmetry_space_group_name_H-M    P1
_symmetry_Int_Tables_number       1
_symmetry_cell_setting            triclinic
loop_
_symmetry_equiv_pos_as_xyz
'x, y, z'
_cell_length_a     61.022922
_cell_length_b     61.013796
_cell_length_c     15.45694
_cell_angle_alpha  90.051437
_cell_angle_beta   90.130737
_cell_angle_gamma 90.025497
loop_
_atom_site_label
_atom_site_type_symbol
_atom_site_fract_x
_atom_site_fract_y
_atom_site_fract_z
_atom_type_partial_charge
Zn0 Zn 0.09051 0.60656 0.1846 0.0
Zn1 Zn 0.14653 0.659 0.04106 0.0
Zn2 Zn 0.11869 0.63279 0.11092 0.0
C3 C 0.10802 0.68268 0.05277 0.0
C4 C 0.16697 0.64572 0.18768 0.0
O5 O 0.11667 0.60256 0.03368 0.0
O6 O 0.09115 0.58275 0.09826 0.0
C7 C 0.06761 0.64485 0.15521 0.0
O8 O 0.10182 0.66486 0.09022 0.0
O9 O 0.12717 0.68428 0.02284 0.0
O10 O 0.16929 0.66039 0.1311 0.0
O11 O 0.14913 0.63438 0.19064 0.0
O12 O 0.06499 0.62629 0.18947 0.0
O13 O 0.08633 0.65017 0.12252 0.0
O14 O 0.13203 0.62432 0.24046 0.0
O15 O 0.10729 0.60124 0.29195 0.0
C16 C 0.1251 0.61151 0.30084 0.0
O17 O 0.12784 0.6187 0.98344 0.0
O18 O 0.15371 0.64124 0.93777 0.0
C19 C 0.10547 0.58474 0.04006 0.0
C20 C 0.14209 0.62439 0.92621 0.0
Zn21 Zn 0.67292 0.87147 0.44626 0.0
Zn22 Zn 0.6167 0.92455 0.31416 0.0
Zn23 Zn 0.64379 0.89694 0.38015 0.0
C24 C 0.5924 0.88663 0.3487 0.0
C25 C 0.63166 0.94542 0.4598 0.0
O26 O 0.67277 0.89497 0.28953 0.0
O27 O 0.69606 0.87375 0.3599 0.0
C28 C 0.63564 0.84537 0.41935 0.0
O29 O 0.61146 0.87927 0.37062 0.0
O30 O 0.59037 0.90608 0.32217 0.0
O31 O 0.61882 0.94855 0.39706 0.0
O32 O 0.64204 0.92702 0.46626 0.0
O33 O 0.65539 0.84434 0.44341 0.0
O34 O 0.62737 0.86398 0.39636 0.0
O35 O 0.65376 0.91029 0.50805 0.0
O36 O 0.67814 0.88651 0.55736 0.0
C37 C 0.66714 0.9038 0.56752 0.0
O38 O 0.6557 0.90653 0.24977 0.0
O39 O 0.63061 0.92966 0.20097 0.0
C40 C 0.69161 0.8854 0.29494 0.0
C41 C 0.64829 0.91934 0.19009 0.0
Zn42 Zn 0.41738 0.40612 0.70616 0.0
Zn43 Zn 0.36843 0.35203 0.628 0.0
Zn44 Zn 0.39169 0.37941 0.67038 0.0
C45 C 0.37728 0.37329 0.4811 0.0
C46 C 0.40042 0.32858 0.69081 0.0
O47 O 0.38107 0.38998 0.79771 0.0
O48 O 0.41346 0.40325 0.83286 0.0
C49 C 0.39122 0.4276 0.59529 0.0
O50 O 0.38128 0.38769 0.53989 0.0
O51 O 0.375 0.35343 0.50224 0.0
O52 O 0.37988 0.32759 0.69847 0.0
O53 O 0.40923 0.34692 0.66812 0.0
O54 O 0.40394 0.43223 0.65678 0.0
O55 O 0.38683 0.40737 0.57815 0.0
O56 O 0.42545 0.36408 0.67984 0.0
O57 O 0.4441 0.39412 0.65325 0.0
C58 C 0.44386 0.3736 0.66295 0.0
O59 O 0.36232 0.38203 0.75662 0.0
O60 O 0.34088 0.36589 0.66109 0.0
C61 C 0.39431 0.39774 0.85485 0.0
C62 C 0.34296 0.37767 0.72744 0.0
Zn63 Zn 0.83085 0.13076 0.88839 0.0
Zn64 Zn 0.88479 0.07529 0.74691 0.0
Zn65 Zn 0.85757 0.10341 0.81542 0.0
C66 C 0.85081 0.07946 0.62918 0.0
C67 C 0.90852 0.11417 0.76956 0.0
O68 O 0.84816 0.09089 0.9459 0.0
O69 O 0.82434 0.11504 0.9965 0.0
C70 C 0.81054 0.11719 0.73571 0.0
O71 O 0.84431 0.0931 0.68762 0.0
O72 O 0.86829 0.06876 0.63971 0.0
O73 O 0.91059 0.09497 0.74006 0.0
O74 O 0.88988 0.12045 0.80017 0.0
O75 O 0.80803 0.13011 0.79868 0.0
O76 O 0.82819 0.10568 0.72963 0.0
O77 O 0.87417 0.13626 0.82339 0.0
O78 O 0.85004 0.15681 0.89237 0.0
C79 C 0.86834 0.15495 0.85519 0.0
O80 O 0.86 0.07421 0.90363 0.0
O81 O 0.88398 0.05279 0.83816 0.0
C82 C 0.83501 0.09751 0.00581 0.0
C83 C 0.87094 0.05611 0.90003 0.0
Zn84 Zn 0.11252 0.3952 0.81306 0.0
Zn85 Zn 0.16367 0.35391 0.9703 0.0
Zn86 Zn 0.13798 0.38073 0.90586 0.0
C87 C 0.15764 0.39003 0.08665 0.0
C88 C 0.12735 0.32892 0.94226 0.0
O89 O 0.15107 0.38584 0.77256 0.0
O90 O 0.12002 0.38077 0.70247 0.0
C91 C 0.13236 0.42901 0.90867 0.0
O92 O 0.14621 0.39835 0.02501 0.0
O93 O 0.1655 0.37096 0.0792 0.0
O94 O 0.147 0.32645 0.96569 0.0
O95 O 0.1204 0.34833 0.92288 0.0
O96 O 0.12541 0.42461 0.8336 0.0
O97 O 0.13518 0.41333 0.96321 0.0
O98 O 0.10472 0.36453 0.91985 0.0
O99 O 0.08358 0.38989 0.86252 0.0
C100 C 0.08542 0.37265 0.90661 0.0
O101 O 0.16903 0.37967 0.82839 0.0
O102 O 0.18987 0.35593 0.89823 0.0
C103 C 0.14054 0.38314 0.70096 0.0
C104 C 0.18759 0.36988 0.83895 0.0
Zn105 Zn 0.91212 0.88613 0.1723 0.0
Zn106 Zn 0.85649 0.83366 0.02697 0.0
Zn107 Zn 0.88493 0.85957 0.09768 0.0
C108 C 0.891 0.8367 0.91058 0.0
C109 C 0.87052 0.81178 0.17318 0.0
O110 O 0.89361 0.84572 0.22624 0.0
O111 O 0.91833 0.86889 0.2776 0.0
C112 C 0.87504 0.91102 0.14695 0.0
O113 O 0.89807 0.84996 0.96934 0.0
O114 O 0.87312 0.82665 0.92085 0.0
O115 O 0.85584 0.81043 0.11579 0.0
O116 O 0.88257 0.82914 0.17787 0.0
O117 O 0.89349 0.91237 0.18355 0.0
O118 O 0.86906 0.89275 0.11155 0.0
O119 O 0.91485 0.861 0.01568 0.0
O120 O 0.93496 0.88599 0.08226 0.0
C121 C 0.93263 0.87231 0.02163 0.0
O122 O 0.85294 0.87755 0.08371 0.0
O123 O 0.83141 0.85389 0.01627 0.0
C124 C 0.9071 0.85168 0.28616 0.0
C125 C 0.83421 0.87255 0.04976 0.0
Zn126 Zn 0.3451 0.65584 0.44089 0.0
Zn127 Zn 0.39929 0.60147 0.30475 0.0
Zn128 Zn 0.37199 0.62864 0.37338 0.0
C129 C 0.36602 0.60714 0.18457 0.0
C130 C 0.42378 0.63872 0.33953 0.0
O131 O 0.36321 0.61555 0.50171 0.0
O132 O 0.3415 0.6414 0.55405 0.0
C133 C 0.32276 0.63891 0.30294 0.0
O134 O 0.35863 0.61951 0.24548 0.0
O135 O 0.38406 0.5973 0.19327 0.0
O136 O 0.4258 0.61957 0.30973 0.0
O137 O 0.40473 0.64561 0.3638 0.0
O138 O 0.32017 0.6526 0.36299 0.0
O139 O 0.34135 0.62914 0.29329 0.0
O140 O 0.38878 0.66159 0.38198 0.0
O141 O 0.36242 0.6827 0.43302 0.0
C142 C 0.38167 0.68072 0.40453 0.0
O143 O 0.37343 0.59847 0.45521 0.0
O144 O 0.39693 0.57711 0.3863 0.0
C145 C 0.35114 0.62326 0.56287 0.0
C146 C 0.38357 0.58003 0.4472 0.0
Zn147 Zn 0.64216 0.17305 0.53206 0.0
Zn148 Zn 0.5865 0.11891 0.67322 0.0
Zn149 Zn 0.61455 0.14554 0.60254 0.0
C150 C 0.56741 0.13289 0.51986 0.0
C151 C 0.62452 0.09447 0.65456 0.0
O152 O 0.64583 0.12746 0.58286 0.0
O153 O 0.6663 0.15175 0.51415 0.0
C154 C 0.63015 0.19204 0.68785 0.0
O155 O 0.58502 0.14455 0.51886 0.0
O156 O 0.56471 0.11865 0.57808 0.0
O157 O 0.60585 0.0932 0.68914 0.0
O158 O 0.63051 0.11244 0.61724 0.0
O159 O 0.64389 0.19462 0.62776 0.0
O160 O 0.61797 0.17475 0.6892 0.0
O161 O 0.60168 0.15606 0.47383 0.0
O162 O 0.62483 0.18151 0.42888 0.0
C163 C 0.60774 0.17026 0.4168 0.0
O164 O 0.60553 0.15853 0.73241 0.0
O165 O 0.57921 0.13639 0.77749 0.0
C166 C 0.66388 0.13274 0.54491 0.0
C167 C 0.59123 0.15294 0.78973 0.0
Zn168 Zn 0.92033 0.38275 0.86346 0.0
Zn169 Zn 0.86079 0.33048 0.95619 0.0
Zn170 Zn 0.89187 0.35508 0.91161 0.0
C171 C 0.88907 0.33462 0.09886 0.0
C172 C 0.88137 0.30741 0.82793 0.0
O173 O 0.90252 0.34366 0.78133 0.0
O174 O 0.92644 0.36961 0.74966 0.0
C175 C 0.88385 0.40782 0.87547 0.0
O176 O 0.90139 0.34353 0.04123 0.0
O177 O 0.86981 0.32877 0.07959 0.0
O178 O 0.86651 0.30493 0.88352 0.0
O179 O 0.89179 0.32581 0.82294 0.0
O180 O 0.90382 0.41014 0.85727 0.0
O181 O 0.87644 0.38881 0.89807 0.0
O182 O 0.92021 0.35313 0.00379 0.0
O183 O 0.94233 0.379 0.95525 0.0
C184 C 0.93848 0.36374 0.00806 0.0
O185 O 0.86009 0.37411 0.92504 0.0
O186 O 0.83482 0.34815 0.93145 0.0
C187 C 0.91603 0.35261 0.72774 0.0
C188 C 0.83976 0.36817 0.92821 0.0
Zn189 Zn 0.38544 0.11892 0.65013 0.0
Zn190 Zn 0.34992 0.15534 0.43718 0.0
Zn191 Zn 0.36392 0.13184 0.54009 0.0
C192 C 0.36132 0.12058 0.34313 0.0
C193 C 0.37671 0.18329 0.51228 0.0
O194 O 0.34476 0.12891 0.66428 0.0
O195 O 0.373 0.13494 0.74955 0.0
C196 C 0.37001 0.08317 0.55194 0.0
O197 O 0.359 0.11234 0.41928 0.0
O198 O 0.36318 0.14107 0.33498 0.0
O199 O 0.35929 0.1852 0.46906 0.0
O200 O 0.38295 0.16389 0.53525 0.0
O201 O 0.3745 0.0886 0.62892 0.0
O202 O 0.3681 0.09822 0.49423 0.0
O203 O 0.3978 0.14699 0.53894 0.0
O204 O 0.41628 0.12403 0.62126 0.0
C205 C 0.41628 0.1396 0.56791 0.0
O206 O 0.33088 0.13782 0.59154 0.0
O207 O 0.31906 0.14748 0.4628 0.0
C208 C 0.35262 0.13245 0.74063 0.0
C209 C 0.31488 0.14181 0.53955 0.0
Zn210 Zn 0.59523 0.61394 0.38587 0.0
Zn211 Zn 0.65407 0.66549 0.52325 0.0
Zn212 Zn 0.62378 0.64076 0.45412 0.0
C213 C 0.64732 0.63225 0.64062 0.0
C214 C 0.61727 0.69246 0.50057 0.0
O215 O 0.63524 0.63062 0.32332 0.0
O216 O 0.60928 0.60865 0.27305 0.0
C217 C 0.61031 0.5926 0.53072 0.0
O218 O 0.63316 0.62696 0.58204 0.0
O219 O 0.65956 0.6487 0.63024 0.0
O220 O 0.63651 0.69258 0.53088 0.0
O221 O 0.60921 0.67456 0.46893 0.0
O222 O 0.59698 0.58982 0.46925 0.0
O223 O 0.62103 0.61079 0.53738 0.0
O224 O 0.59247 0.65958 0.44663 0.0
O225 O 0.57016 0.6341 0.39486 0.0
C226 C 0.57317 0.65326 0.42335 0.0
O227 O 0.6526 0.64109 0.36704 0.0
O228 O 0.67629 0.66317 0.43159 0.0
C229 C 0.62742 0.61822 0.26305 0.0
C230 C 0.67155 0.65041 0.3701 0.0
Zn231 Zn 0.15549 0.85808 0.94608 0.0
Zn232 Zn 0.11164 0.90834 0.10452 0.0
Zn233 Zn 0.13768 0.88367 0.02719 0.0
C234 C 0.08517 0.87459 0.06505 0.0
C235 C 0.12577 0.93218 0.96431 0.0
O236 O 0.17012 0.88026 0.09244 0.0
O237 O 0.18487 0.87014 0.96923 0.0
C238 C 0.12824 0.83237 0.02839 0.0
O239 O 0.1039 0.86823 0.03472 0.0
O240 O 0.08387 0.8923 0.10666 0.0
O241 O 0.11279 0.93373 0.02727 0.0
O242 O 0.13639 0.9143 0.95084 0.0
O243 O 0.14785 0.83046 0.00423 0.0
O244 O 0.11937 0.85157 0.02803 0.0
O245 O 0.14502 0.89687 0.89734 0.0
O246 O 0.14292 0.86497 0.83088 0.0
C247 C 0.14415 0.88558 0.82703 0.0
O248 O 0.15479 0.89051 0.15066 0.0
O249 O 0.12917 0.91116 0.21027 0.0
C250 C 0.18729 0.87722 0.04532 0.0
C251 C 0.14779 0.90223 0.21415 0.0
Zn252 Zn 0.84885 0.63482 0.99563 0.0
Zn253 Zn 0.88951 0.58192 0.16191 0.0
Zn254 Zn 0.86559 0.60875 0.08961 0.0
C255 C 0.91684 0.61722 0.14202 0.0
C256 C 0.8777 0.55938 0.01935 0.0
O257 O 0.83321 0.61262 0.1506 0.0
O258 O 0.81887 0.62645 0.03177 0.0
C259 C 0.87612 0.66109 0.08131 0.0
O260 O 0.89854 0.62521 0.11366 0.0
O261 O 0.91729 0.59772 0.16879 0.0
O262 O 0.8893 0.55657 0.08585 0.0
O263 O 0.86814 0.57802 0.00701 0.0
O264 O 0.85924 0.6633 0.03517 0.0
O265 O 0.88286 0.64161 0.10113 0.0
O266 O 0.85979 0.59531 0.95613 0.0
O267 O 0.85724 0.62569 0.87912 0.0
C268 C 0.8583 0.60511 0.88237 0.0
O269 O 0.84729 0.60073 0.20943 0.0
O270 O 0.87193 0.57853 0.26684 0.0
C271 C 0.81627 0.61847 0.10638 0.0
C272 C 0.85368 0.58814 0.27142 0.0
Zn273 Zn 0.0923 0.11413 0.74246 0.0
Zn274 Zn 0.13728 0.16629 0.88684 0.0
Zn275 Zn 0.11439 0.13677 0.82086 0.0
C276 C 0.09668 0.18517 0.87035 0.0
C277 C 0.16013 0.15589 0.74254 0.0
O278 O 0.11876 0.10491 0.88608 0.0
O279 O 0.11162 0.08874 0.762 0.0
C280 C 0.06209 0.13538 0.82548 0.0
O281 O 0.09243 0.16582 0.84102 0.0
O282 O 0.11574 0.18994 0.89558 0.0
O283 O 0.16123 0.16951 0.80372 0.0
O284 O 0.14339 0.14304 0.73622 0.0
O285 O 0.06439 0.11546 0.80604 0.0
O286 O 0.07897 0.14815 0.82243 0.0
O287 O 0.12686 0.13206 0.68764 0.0
O288 O 0.0946 0.12757 0.62568 0.0
C289 C 0.115 0.13044 0.61887 0.0
O290 O 0.12585 0.12193 0.94409 0.0
O291 O 0.14474 0.15025 0.99284 0.0
C292 C 0.1198 0.0879 0.83686 0.0
C293 C 0.13787 0.13092 0.00294 0.0
Zn294 Zn 0.61211 0.41686 0.93967 0.0
Zn295 Zn 0.66779 0.37153 0.78321 0.0
Zn296 Zn 0.63985 0.39664 0.85487 0.0
C297 C 0.66102 0.40697 0.67138 0.0
C298 C 0.63249 0.34476 0.80397 0.0
O299 O 0.65351 0.40467 0.98494 0.0
O300 O 0.62434 0.41638 0.0561 0.0
C301 C 0.62693 0.44597 0.8128 0.0
O302 O 0.64748 0.41283 0.73094 0.0
O303 O 0.67211 0.38965 0.67933 0.0
O304 O 0.65141 0.34407 0.77165 0.0
O305 O 0.62511 0.36285 0.8365 0.0
O306 O 0.61621 0.44518 0.88233 0.0
O307 O 0.63566 0.42829 0.78255 0.0
O308 O 0.60793 0.37736 0.85498 0.0
O309 O 0.5851 0.40062 0.91612 0.0
C310 C 0.58823 0.38268 0.87756 0.0
O311 O 0.67072 0.39572 0.93564 0.0
O312 O 0.6918 0.37198 0.86694 0.0
C313 C 0.64443 0.41168 0.05491 0.0
C314 C 0.68907 0.38533 0.92817 0.0
Zn315 Zn 0.36469 0.85113 0.39505 0.0
Zn316 Zn 0.41442 0.90917 0.24953 0.0
Zn317 Zn 0.3895 0.88036 0.32147 0.0
C318 C 0.37989 0.90301 0.13576 0.0
C319 C 0.44093 0.87277 0.26927 0.0
O320 O 0.38013 0.89289 0.45175 0.0
O321 O 0.35886 0.8667 0.50424 0.0
C322 C 0.34174 0.8648 0.25081 0.0
O323 O 0.37461 0.88902 0.19465 0.0
O324 O 0.3967 0.91482 0.14493 0.0
O325 O 0.44132 0.89175 0.237 0.0
O326 O 0.42309 0.8655 0.30384 0.0
O327 O 0.34046 0.85092 0.31097 0.0
O328 O 0.35905 0.87678 0.24287 0.0
O329 O 0.40842 0.849 0.32908 0.0
O330 O 0.38537 0.82639 0.39405 0.0
C331 C 0.4037 0.82985 0.35911 0.0
O332 O 0.39021 0.91009 0.40467 0.0
O333 O 0.41371 0.93203 0.33894 0.0
C334 C 0.36794 0.88515 0.5126 0.0
C335 C 0.40037 0.92859 0.39958 0.0
C336 C 0.16318 0.61206 0.7977 0.0
C337 C 0.14304 0.61374 0.84072 0.0
C338 C 0.16405 0.60811 0.70828 0.0
C339 C 0.14428 0.60672 0.66062 0.0
C340 C 0.12395 0.60678 0.70501 0.0
C341 C 0.12361 0.60991 0.79504 0.0
C342 C 0.18608 0.60697 0.66429 0.0
C343 C 0.10245 0.60552 0.65668 0.0
C344 C 0.14051 0.62917 0.43218 0.0
C345 C 0.13619 0.61005 0.38529 0.0
C346 C 0.14435 0.62824 0.52178 0.0
C347 C 0.14456 0.60762 0.5643 0.0
C348 C 0.14257 0.58816 0.51508 0.0
C349 C 0.13793 0.58963 0.42631 0.0
C350 C 0.14621 0.64941 0.57189 0.0
C351 C 0.14381 0.56585 0.55691 0.0
H352 H 0.17825 0.61495 0.83331 0.0
H353 H 0.10805 0.61142 0.82825 0.0
H354 H 0.18617 0.59401 0.61385 0.0
H355 H 0.18955 0.62281 0.63196 0.0
H356 H 0.19949 0.60365 0.71122 0.0
H357 H 0.08817 0.60464 0.701 0.0
H358 H 0.10061 0.62022 0.61502 0.0
H359 H 0.10215 0.59095 0.61377 0.0
H360 H 0.13892 0.64493 0.40043 0.0
H361 H 0.1346 0.57483 0.38968 0.0
H362 H 0.16104 0.64926 0.61341 0.0
H363 H 0.13181 0.65118 0.6151 0.0
H364 H 0.14698 0.66395 0.52878 0.0
H365 H 0.15714 0.5653 0.60583 0.0
H366 H 0.14662 0.55271 0.50841 0.0
H367 H 0.12819 0.56232 0.59069 0.0
C368 C 0.66075 0.94101 0.06343 0.0
C369 C 0.6589 0.9207 0.10503 0.0
C370 C 0.66605 0.94223 0.9753 0.0
C371 C 0.66843 0.92263 0.92738 0.0
C372 C 0.66808 0.90214 0.97074 0.0
C373 C 0.6637 0.90147 0.05976 0.0
C374 C 0.6679 0.9644 0.93263 0.0
C375 C 0.67056 0.88083 0.92204 0.0
C376 C 0.64843 0.91922 0.69583 0.0
C377 C 0.66796 0.9146 0.65251 0.0
C378 C 0.64846 0.9231 0.7853 0.0
C379 C 0.66862 0.92319 0.83124 0.0
C380 C 0.68856 0.92109 0.78548 0.0
C381 C 0.68796 0.91629 0.69675 0.0
C382 C 0.62677 0.92498 0.83164 0.0
C383 C 0.71049 0.92217 0.83061 0.0
H384 H 0.65726 0.95591 0.09917 0.0
H385 H 0.66222 0.8858 0.09231 0.0
H386 H 0.68205 0.96476 0.88763 0.0
H387 H 0.65292 0.96775 0.89408 0.0
H388 H 0.66987 0.97775 0.98095 0.0
H389 H 0.67008 0.86635 0.96557 0.0
H390 H 0.65718 0.87922 0.87362 0.0
H391 H 0.68629 0.88064 0.8864 0.0
H392 H 0.63298 0.91778 0.66143 0.0
H393 H 0.70311 0.91285 0.66277 0.0
H394 H 0.62643 0.93991 0.87248 0.0
H395 H 0.62461 0.91067 0.87511 0.0
H396 H 0.61268 0.92559 0.78605 0.0
H397 H 0.71004 0.933 0.8883 0.0
H398 H 0.72343 0.92813 0.78598 0.0
H399 H 0.7152 0.90548 0.85199 0.0
C400 C 0.37118 0.4013 0.36581 0.0
C401 C 0.37547 0.37957 0.38963 0.0
C402 C 0.37034 0.40735 0.2784 0.0
C403 C 0.37423 0.39128 0.21424 0.0
C404 C 0.37761 0.36914 0.2381 0.0
C405 C 0.37805 0.36355 0.3256 0.0
C406 C 0.3662 0.43102 0.25514 0.0
C407 C 0.38207 0.35154 0.1715 0.0
C408 C 0.36634 0.39609 0.97297 0.0
C409 C 0.38803 0.3994 0.94652 0.0
C410 C 0.36103 0.39537 0.06114 0.0
C411 C 0.37794 0.39765 0.12335 0.0
C412 C 0.39955 0.40253 0.09685 0.0
C413 C 0.40429 0.40348 0.0087 0.0
C414 C 0.33766 0.3908 0.08726 0.0
C415 C 0.41808 0.40496 0.16124 0.0
H416 H 0.36857 0.41359 0.41529 0.0
H417 H 0.38122 0.34669 0.34388 0.0
H418 H 0.38191 0.43896 0.23729 0.0
H419 H 0.35505 0.43225 0.19854 0.0
H420 H 0.35901 0.44031 0.31004 0.0
H421 H 0.38312 0.33495 0.20072 0.0
H422 H 0.36897 0.3514 0.12165 0.0
H423 H 0.39777 0.35505 0.13816 0.0
H424 H 0.35363 0.39352 0.92511 0.0
H425 H 0.42106 0.40635 0.98876 0.0
H426 H 0.33316 0.40028 0.14588 0.0
H427 H 0.33586 0.37314 0.10274 0.0
H428 H 0.32596 0.39483 0.03443 0.0
H429 H 0.41357 0.41665 0.21314 0.0
H430 H 0.43345 0.41075 0.13037 0.0
H431 H 0.42137 0.38889 0.19228 0.0
C432 C 0.83496 0.09758 0.49988 0.0
C433 C 0.84003 0.07824 0.54399 0.0
C434 C 0.83119 0.09732 0.41027 0.0
C435 C 0.83172 0.0771 0.36478 0.0
C436 C 0.83434 0.0573 0.41119 0.0
C437 C 0.83897 0.05814 0.5001 0.0
C438 C 0.82871 0.11888 0.36334 0.0
C439 C 0.83397 0.03529 0.3666 0.0
C440 C 0.81371 0.08407 0.13197 0.0
C441 C 0.83395 0.08653 0.09039 0.0
C442 C 0.81264 0.07887 0.2203 0.0
C443 C 0.8323 0.07718 0.26849 0.0
C444 C 0.85276 0.07809 0.22518 0.0
C445 C 0.85331 0.08238 0.136 0.0
C446 C 0.79054 0.07644 0.26289 0.0
C447 C 0.87413 0.07635 0.2741 0.0
H448 H 0.83594 0.11311 0.53386 0.0
H449 H 0.84278 0.04313 0.53453 0.0
H450 H 0.8138 0.11873 0.32227 0.0
H451 H 0.82765 0.13301 0.40856 0.0
H452 H 0.84298 0.12141 0.32003 0.0
H453 H 0.82837 0.02222 0.41146 0.0
H454 H 0.82315 0.03534 0.30876 0.0
H455 H 0.8508 0.03106 0.34552 0.0
H456 H 0.79872 0.0871 0.09611 0.0
H457 H 0.86893 0.08437 0.10361 0.0
H458 H 0.78674 0.0914 0.30074 0.0
H459 H 0.79061 0.06239 0.30849 0.0
H460 H 0.77727 0.07395 0.21454 0.0
H461 H 0.87536 0.08993 0.32173 0.0
H462 H 0.88858 0.07708 0.2306 0.0
H463 H 0.87474 0.06075 0.31068 0.0
C464 C 0.14303 0.41031 0.21421 0.0
C465 C 0.16079 0.40096 0.17075 0.0
C466 C 0.14348 0.41239 0.30488 0.0
C467 C 0.16198 0.40472 0.35172 0.0
C468 C 0.18106 0.39841 0.30652 0.0
C469 C 0.18024 0.3967 0.21631 0.0
C470 C 0.12318 0.42023 0.35091 0.0
C471 C 0.20128 0.39049 0.35342 0.0
C472 C 0.16133 0.40636 0.59821 0.0
C473 C 0.15094 0.38642 0.61654 0.0
C474 C 0.16555 0.41258 0.51222 0.0
C475 C 0.15956 0.39826 0.44397 0.0
C476 C 0.15052 0.37741 0.46331 0.0
C477 C 0.14601 0.37192 0.54932 0.0
C478 C 0.17487 0.43504 0.49471 0.0
C479 C 0.14457 0.36125 0.39286 0.0
H480 H 0.12804 0.41378 0.17898 0.0
H481 H 0.19416 0.38983 0.1822 0.0
H482 H 0.11386 0.40587 0.37504 0.0
H483 H 0.1276 0.43054 0.40751 0.0
H484 H 0.11234 0.42979 0.30714 0.0
H485 H 0.21587 0.39043 0.31054 0.0
H486 H 0.20485 0.40083 0.4108 0.0
H487 H 0.19848 0.3735 0.37652 0.0
H488 H 0.16461 0.41779 0.65044 0.0
H489 H 0.13774 0.35663 0.56394 0.0
H490 H 0.16129 0.44631 0.47732 0.0
H491 H 0.1865 0.43478 0.4397 0.0
H492 H 0.18336 0.44181 0.55254 0.0
H493 H 0.13106 0.368 0.35276 0.0
H494 H 0.13922 0.3452 0.41933 0.0
H495 H 0.1588 0.35846 0.34967 0.0
C496 C 0.90758 0.8539 0.78085 0.0
C497 C 0.90175 0.83489 0.8257 0.0
C498 C 0.91123 0.85325 0.69118 0.0
C499 C 0.90971 0.83297 0.64646 0.0
C500 C 0.90626 0.81342 0.69359 0.0
C501 C 0.90187 0.81467 0.78253 0.0
C502 C 0.91469 0.87454 0.64337 0.0
C503 C 0.90566 0.79137 0.64932 0.0
C504 C 0.88816 0.83818 0.41706 0.0
C505 C 0.90765 0.8407 0.37079 0.0
C506 C 0.8886 0.83463 0.50678 0.0
C507 C 0.90904 0.83274 0.55014 0.0
C508 C 0.92868 0.83292 0.50169 0.0
C509 C 0.92777 0.83742 0.41269 0.0
C510 C 0.86725 0.83485 0.55604 0.0
C511 C 0.95071 0.82982 0.54446 0.0
H512 H 0.9073 0.86954 0.81424 0.0
H513 H 0.89746 0.79992 0.81758 0.0
H514 H 0.92932 0.87345 0.60123 0.0
H515 H 0.90034 0.8778 0.60101 0.0
H516 H 0.91681 0.88866 0.68807 0.0
H517 H 0.90741 0.77772 0.69634 0.0
H518 H 0.88979 0.78936 0.6151 0.0
H519 H 0.91888 0.79008 0.6004 0.0
H520 H 0.87264 0.84102 0.38462 0.0
H521 H 0.94286 0.8394 0.37656 0.0
H522 H 0.86682 0.84935 0.59948 0.0
H523 H 0.86588 0.82006 0.59725 0.0
H524 H 0.85278 0.83552 0.51238 0.0
H525 H 0.95564 0.84523 0.57732 0.0
H526 H 0.96359 0.82556 0.49661 0.0
H527 H 0.94997 0.81675 0.59423 0.0
C528 C 0.32942 0.6104 0.68803 0.0
C529 C 0.3498 0.61242 0.64726 0.0
C530 C 0.32806 0.6056 0.77653 0.0
C531 C 0.34758 0.60387 0.82549 0.0
C532 C 0.36818 0.60441 0.78309 0.0
C533 C 0.369 0.60829 0.69373 0.0
C534 C 0.3058 0.60389 0.81833 0.0
C535 C 0.38942 0.60291 0.83308 0.0
C536 C 0.35038 0.62514 0.05519 0.0
C537 C 0.35508 0.60585 0.10014 0.0
C538 C 0.34663 0.62462 0.96565 0.0
C539 C 0.34679 0.60422 0.92149 0.0
C540 C 0.34898 0.58453 0.96888 0.0
C541 C 0.35362 0.58561 0.05764 0.0
C542 C 0.3446 0.64604 0.91739 0.0
C543 C 0.34799 0.56242 0.92511 0.0
H544 H 0.31456 0.61355 0.65142 0.0
H545 H 0.38471 0.61008 0.66183 0.0
H546 H 0.3056 0.59074 0.86792 0.0
H547 H 0.30182 0.61955 0.8512 0.0
H548 H 0.29276 0.60051 0.76984 0.0
H549 H 0.40396 0.60264 0.78995 0.0
H550 H 0.39088 0.6172 0.87725 0.0
H551 H 0.38965 0.58794 0.87358 0.0
H552 H 0.3517 0.64075 0.08838 0.0
H553 H 0.35717 0.57068 0.09304 0.0
H554 H 0.32984 0.64593 0.87551 0.0
H555 H 0.35905 0.64822 0.87473 0.0
H556 H 0.34359 0.66033 0.96177 0.0
H557 H 0.33493 0.56207 0.87504 0.0
H558 H 0.34494 0.54905 0.97234 0.0
H559 H 0.36381 0.55908 0.89246 0.0
C560 C 0.61007 0.1673 0.92061 0.0
C561 C 0.59054 0.16357 0.87541 0.0
C562 C 0.60984 0.17122 0.01019 0.0
C563 C 0.58954 0.17223 0.05461 0.0
C564 C 0.56973 0.1708 0.00717 0.0
C565 C 0.57046 0.16599 0.91834 0.0
C566 C 0.63139 0.17238 0.05824 0.0
C567 C 0.54775 0.173 0.05094 0.0
C568 C 0.59231 0.152 0.2866 0.0
C569 C 0.59719 0.1714 0.33093 0.0
C570 C 0.58874 0.15215 0.19677 0.0
C571 C 0.58926 0.17232 0.1511 0.0
C572 C 0.59183 0.19217 0.19744 0.0
C573 C 0.59624 0.19144 0.28664 0.0
C574 C 0.58635 0.13055 0.14991 0.0
C575 C 0.59131 0.21408 0.1522 0.0
H576 H 0.62558 0.16525 0.88748 0.0
H577 H 0.55532 0.16322 0.8831 0.0
H578 H 0.63214 0.18741 0.09846 0.0
H579 H 0.6328 0.15814 0.10254 0.0
H580 H 0.64567 0.17232 0.01381 0.0
H581 H 0.53441 0.17611 0.0035 0.0
H582 H 0.54389 0.15765 0.08612 0.0
H583 H 0.54801 0.18653 0.09899 0.0
H584 H 0.59325 0.13649 0.32067 0.0
H585 H 0.59993 0.20649 0.3211 0.0
H586 H 0.60067 0.12802 0.10687 0.0
H587 H 0.5715 0.13066 0.10852 0.0
H588 H 0.58525 0.11646 0.19517 0.0
H589 H 0.6071 0.21684 0.11848 0.0
H590 H 0.58877 0.22776 0.19857 0.0
H591 H 0.57811 0.21452 0.10274 0.0
C592 C 0.88035 0.33673 0.25473 0.0
C593 C 0.89601 0.33313 0.19013 0.0
C594 C 0.88616 0.33672 0.34225 0.0
C595 C 0.90811 0.33227 0.36628 0.0
C596 C 0.92384 0.3275 0.30144 0.0
C597 C 0.91767 0.32841 0.21366 0.0
C598 C 0.86898 0.34268 0.40859 0.0
C599 C 0.94725 0.32202 0.32428 0.0
C600 C 0.92309 0.36123 0.5735 0.0
C601 C 0.91744 0.34556 0.63614 0.0
C602 C 0.92151 0.3566 0.4851 0.0
C603 C 0.9147 0.33552 0.45811 0.0
C604 C 0.9108 0.31902 0.5208 0.0
C605 C 0.91185 0.32436 0.60935 0.0
C606 C 0.9253 0.37492 0.42099 0.0
C607 C 0.90449 0.29605 0.49444 0.0
H608 H 0.86359 0.34049 0.23656 0.0
H609 H 0.92968 0.32524 0.16371 0.0
H610 H 0.86755 0.32955 0.45775 0.0
H611 H 0.87391 0.3579 0.44288 0.0
H612 H 0.85259 0.34534 0.37904 0.0
H613 H 0.95562 0.31333 0.27049 0.0
H614 H 0.95643 0.33735 0.33755 0.0
H615 H 0.94804 0.3117 0.38331 0.0
H616 H 0.92747 0.37771 0.59338 0.0
H617 H 0.908 0.31208 0.6572 0.0
H618 H 0.90961 0.37909 0.38849 0.0
H619 H 0.93694 0.36968 0.37013 0.0
H620 H 0.93184 0.38996 0.45229 0.0
H621 H 0.8872 0.29585 0.47224 0.0
H622 H 0.90615 0.28431 0.54898 0.0
H623 H 0.9148 0.29039 0.43974 0.0
C624 C 0.37263 0.10761 0.19903 0.0
C625 C 0.35647 0.10844 0.26301 0.0
C626 C 0.36695 0.10702 0.11088 0.0
C627 C 0.34454 0.10789 0.0862 0.0
C628 C 0.32821 0.10617 0.15082 0.0
C629 C 0.33441 0.1063 0.23867 0.0
C630 C 0.385 0.10808 0.04439 0.0
C631 C 0.30418 0.10688 0.12811 0.0
C632 C 0.34042 0.14338 0.88635 0.0
C633 C 0.34042 0.12764 0.82049 0.0
C634 C 0.33929 0.13717 0.97375 0.0
C635 C 0.33876 0.1146 0.9958 0.0
C636 C 0.3363 0.09882 0.92919 0.0
C637 C 0.33697 0.10558 0.84208 0.0
C638 C 0.34118 0.1547 0.04237 0.0
C639 C 0.33555 0.07464 0.94909 0.0
H640 H 0.38966 0.10968 0.21761 0.0
H641 H 0.32184 0.10747 0.28799 0.0
H642 H 0.3815 0.0968 0.98976 0.0
H643 H 0.38598 0.12495 0.01784 0.0
H644 H 0.4012 0.1038 0.07259 0.0
H645 H 0.29393 0.10013 0.18112 0.0
H646 H 0.29923 0.12417 0.11722 0.0
H647 H 0.30073 0.09764 0.06779 0.0
H648 H 0.34346 0.16039 0.86987 0.0
H649 H 0.33748 0.0933 0.79132 0.0
H650 H 0.35793 0.1544 0.07056 0.0
H651 H 0.3294 0.15162 0.09554 0.0
H652 H 0.33813 0.17133 0.01572 0.0
H653 H 0.35248 0.06862 0.96018 0.0
H654 H 0.32835 0.06516 0.8946 0.0
H655 H 0.32597 0.07134 0.00857 0.0
C656 C 0.63928 0.59587 0.13723 0.0
C657 C 0.63821 0.61632 0.17841 0.0
C658 C 0.64451 0.59426 0.04911 0.0
C659 C 0.64767 0.61365 0.00065 0.0
C660 C 0.64809 0.63423 0.0436 0.0
C661 C 0.64375 0.63525 0.13266 0.0
C662 C 0.64522 0.57193 0.00712 0.0
C663 C 0.65124 0.65535 0.99432 0.0
C664 C 0.66752 0.61875 0.76987 0.0
C665 C 0.64763 0.62134 0.72549 0.0
C666 C 0.66786 0.61404 0.85871 0.0
C667 C 0.64784 0.61292 0.90442 0.0
C668 C 0.62772 0.61379 0.85831 0.0
C669 C 0.6279 0.61759 0.76878 0.0
C670 C 0.68965 0.6119 0.90426 0.0
C671 C 0.60597 0.61278 0.90451 0.0
H672 H 0.63516 0.58119 0.17322 0.0
H673 H 0.6428 0.65103 0.16477 0.0
H674 H 0.62925 0.56848 0.97558 0.0
H675 H 0.6581 0.57116 0.9566 0.0
H676 H 0.64833 0.55882 0.05548 0.0
H677 H 0.65179 0.66987 0.0377 0.0
H678 H 0.66666 0.65478 0.95665 0.0
H679 H 0.63757 0.65753 0.94759 0.0
H680 H 0.68282 0.62145 0.73594 0.0
H681 H 0.61254 0.61967 0.73432 0.0
H682 H 0.68885 0.5996 0.95705 0.0
H683 H 0.69418 0.62788 0.93342 0.0
H684 H 0.70285 0.60713 0.85857 0.0
H685 H 0.60499 0.59781 0.94483 0.0
H686 H 0.59188 0.61284 0.85886 0.0
H687 H 0.60441 0.6271 0.94846 0.0
C688 C 0.15766 0.92428 0.34179 0.0
C689 C 0.15981 0.90451 0.2962 0.0
C690 C 0.16014 0.92494 0.43172 0.0
C691 C 0.16513 0.90538 0.47635 0.0
C692 C 0.17084 0.88629 0.42898 0.0
C693 C 0.1679 0.88599 0.33878 0.0
C694 C 0.15429 0.94574 0.47929 0.0
C695 C 0.17734 0.86541 0.47432 0.0
C696 C 0.16833 0.90424 0.72217 0.0
C697 C 0.14771 0.89556 0.74228 0.0
C698 C 0.1743 0.90808 0.63575 0.0
C699 C 0.15906 0.90342 0.569 0.0
C700 C 0.13768 0.89607 0.59024 0.0
C701 C 0.13241 0.89187 0.67669 0.0
C702 C 0.19733 0.91554 0.61611 0.0
C703 C 0.12063 0.89157 0.52136 0.0
H704 H 0.1517 0.93872 0.30827 0.0
H705 H 0.16963 0.87072 0.30354 0.0
H706 H 0.13726 0.9444 0.50391 0.0
H707 H 0.16523 0.94837 0.53571 0.0
H708 H 0.15522 0.96031 0.43636 0.0
H709 H 0.18573 0.85387 0.42966 0.0
H710 H 0.18833 0.86894 0.52992 0.0
H711 H 0.16245 0.85723 0.49979 0.0
H712 H 0.18031 0.9065 0.77336 0.0
H713 H 0.11662 0.88483 0.69287 0.0
H714 H 0.19768 0.92724 0.56126 0.0
H715 H 0.20731 0.90109 0.59745 0.0
H716 H 0.20516 0.92334 0.67333 0.0
H717 H 0.1188 0.90602 0.4784 0.0
H718 H 0.10436 0.8876 0.54938 0.0
H719 H 0.12594 0.87756 0.4807 0.0
C720 C 0.83384 0.58602 0.77995 0.0
C721 C 0.85499 0.59311 0.80145 0.0
C722 C 0.82804 0.5819 0.6934 0.0
C723 C 0.84391 0.58486 0.62779 0.0
C724 C 0.86581 0.59015 0.65075 0.0
C725 C 0.871 0.59451 0.73739 0.0
C726 C 0.80455 0.57633 0.67213 0.0
C727 C 0.88345 0.59284 0.58315 0.0
C728 C 0.84268 0.56586 0.39689 0.0
C729 C 0.84183 0.58609 0.35383 0.0
C730 C 0.84077 0.56469 0.48705 0.0
C731 C 0.83778 0.58423 0.53463 0.0
C732 C 0.83358 0.60414 0.49019 0.0
C733 C 0.83586 0.6049 0.39978 0.0
C734 C 0.84492 0.54306 0.53147 0.0
C735 C 0.82939 0.62519 0.53864 0.0
H736 H 0.82136 0.5855 0.82977 0.0
H737 H 0.88722 0.6004 0.75439 0.0
H738 H 0.79583 0.59151 0.65263 0.0
H739 H 0.80345 0.5646 0.61744 0.0
H740 H 0.79593 0.56928 0.72891 0.0
H741 H 0.89997 0.59496 0.61243 0.0
H742 H 0.88383 0.57836 0.5397 0.0
H743 H 0.87984 0.60743 0.54274 0.0
H744 H 0.84717 0.55125 0.36101 0.0
H745 H 0.83534 0.62056 0.36674 0.0
H746 H 0.83419 0.54106 0.58876 0.0
H747 H 0.86216 0.54254 0.55439 0.0
H748 H 0.84225 0.529 0.48692 0.0
H749 H 0.81808 0.62235 0.59358 0.0
H750 H 0.82232 0.638 0.49584 0.0
H751 H 0.84509 0.63143 0.56551 0.0
C752 C 0.11654 0.1419 0.46597 0.0
C753 C 0.12488 0.129 0.53282 0.0
C754 C 0.12263 0.13804 0.38008 0.0
C755 C 0.13674 0.12023 0.36051 0.0
C756 C 0.1457 0.10748 0.42847 0.0
C757 C 0.1398 0.1122 0.51433 0.0
C758 C 0.11341 0.15268 0.31009 0.0
C759 C 0.16029 0.08802 0.41098 0.0
C760 C 0.12616 0.1072 0.12641 0.0
C761 C 0.14194 0.12065 0.08791 0.0
C762 C 0.12604 0.10424 0.21664 0.0
C763 C 0.1417 0.11542 0.26834 0.0
C764 C 0.1594 0.12632 0.22834 0.0
C765 C 0.15943 0.12857 0.1383 0.0
C766 C 0.10773 0.09124 0.25715 0.0
C767 C 0.17667 0.13815 0.28071 0.0
H768 H 0.10484 0.15473 0.48088 0.0
H769 H 0.14575 0.10188 0.56641 0.0
H770 H 0.12682 0.15905 0.26873 0.0
H771 H 0.10216 0.14313 0.26804 0.0
H772 H 0.10422 0.16683 0.33703 0.0
H773 H 0.17065 0.08406 0.46809 0.0
H774 H 0.14984 0.07356 0.39672 0.0
H775 H 0.17105 0.09073 0.35431 0.0
H776 H 0.11277 0.10081 0.08772 0.0
H777 H 0.17203 0.13851 0.10824 0.0
H778 H 0.09486 0.10263 0.28051 0.0
H779 H 0.11383 0.08179 0.31361 0.0
H780 H 0.10014 0.07975 0.20999 0.0
H781 H 0.16957 0.15348 0.30731 0.0
H782 H 0.19115 0.14253 0.24083 0.0
H783 H 0.18222 0.12804 0.33616 0.0
C784 C 0.68229 0.42073 0.54679 0.0
C785 C 0.66193 0.41803 0.58725 0.0
C786 C 0.68367 0.42388 0.45716 0.0
C787 C 0.66424 0.42373 0.40725 0.0
C788 C 0.64358 0.4231 0.44906 0.0
C789 C 0.64268 0.42034 0.53903 0.0
C790 C 0.70596 0.42535 0.41545 0.0
C791 C 0.62243 0.42307 0.39817 0.0
C792 C 0.65851 0.43605 0.16905 0.0
C793 C 0.65678 0.41483 0.13508 0.0
C794 C 0.66308 0.4394 0.25698 0.0
C795 C 0.6653 0.42102 0.31188 0.0
C796 C 0.66548 0.39959 0.27599 0.0
C797 C 0.66132 0.39676 0.18737 0.0
C798 C 0.66353 0.46248 0.29209 0.0
C799 C 0.66785 0.37953 0.33239 0.0
H800 H 0.69718 0.41882 0.58446 0.0
H801 H 0.62698 0.41793 0.5704 0.0
H802 H 0.7104 0.40915 0.38801 0.0
H803 H 0.7059 0.43737 0.36162 0.0
H804 H 0.71881 0.43011 0.46294 0.0
H805 H 0.60784 0.42456 0.44066 0.0
H806 H 0.62222 0.43676 0.35104 0.0
H807 H 0.62108 0.40756 0.36094 0.0
H808 H 0.65475 0.44998 0.12806 0.0
H809 H 0.65962 0.38039 0.16075 0.0
H810 H 0.67647 0.46435 0.34214 0.0
H811 H 0.64758 0.46626 0.32299 0.0
H812 H 0.66639 0.47469 0.24003 0.0
H813 H 0.68232 0.38115 0.37546 0.0
H814 H 0.66961 0.36428 0.29369 0.0
H815 H 0.65317 0.3779 0.37419 0.0
C816 C 0.36532 0.88395 0.0062 0.0
C817 C 0.36874 0.90354 0.05125 0.0
C818 C 0.36197 0.88411 0.91628 0.0
C819 C 0.36128 0.9044 0.87148 0.0
C820 C 0.36209 0.92425 0.91871 0.0
C821 C 0.36627 0.92358 0.00798 0.0
C822 C 0.36131 0.86253 0.86842 0.0
C823 C 0.3602 0.94619 0.87429 0.0
C824 C 0.38459 0.90124 0.64454 0.0
C825 C 0.3658 0.89624 0.59666 0.0
C826 C 0.38322 0.90509 0.73398 0.0
C827 C 0.36246 0.90463 0.77527 0.0
C828 C 0.34326 0.90196 0.72497 0.0
C829 C 0.34519 0.89731 0.63638 0.0
C830 C 0.40415 0.90768 0.7853 0.0
C831 C 0.32077 0.90251 0.76544 0.0
H832 H 0.36741 0.86848 0.03968 0.0
H833 H 0.36881 0.93876 0.04318 0.0
H834 H 0.34684 0.86183 0.82505 0.0
H835 H 0.37612 0.861 0.82731 0.0
H836 H 0.36071 0.84829 0.91308 0.0
H837 H 0.35631 0.95949 0.92093 0.0
H838 H 0.37596 0.95025 0.84245 0.0
H839 H 0.34734 0.94578 0.82342 0.0
H840 H 0.4005 0.90016 0.61372 0.0
H841 H 0.33064 0.89345 0.59892 0.0
H842 H 0.40616 0.89347 0.8294 0.0
H843 H 0.40343 0.92263 0.82597 0.0
H844 H 0.41882 0.90873 0.74306 0.0
H845 H 0.31753 0.88671 0.79851 0.0
H846 H 0.30774 0.90508 0.71616 0.0
H847 H 0.31967 0.9157 0.81471 0.0
C848 C 0.08656 0.71188 0.12663 0.0
C849 C 0.09427 0.70249 0.04981 0.0
C850 C 0.08309 0.73468 0.13173 0.0
C851 C 0.08786 0.74796 0.05894 0.0
C852 C 0.09157 0.73784 0.97781 0.0
C853 C 0.0948 0.71514 0.97436 0.0
C854 C 0.07732 0.74476 0.21768 0.0
C855 C 0.09576 0.75118 0.89735 0.0
C856 C 0.09361 0.80988 0.0408 0.0
C857 C 0.11624 0.81221 0.05321 0.0
C858 C 0.08333 0.78934 0.05049 0.0
C859 C 0.09618 0.77072 0.07149 0.0
C860 C 0.11875 0.77348 0.09086 0.0
C861 C 0.12837 0.79415 0.08195 0.0
C862 C 0.05907 0.78763 0.03281 0.0
C863 C 0.13331 0.7543 0.11432 0.0
H864 H 0.08577 0.70202 0.18488 0.0
H865 H 0.10033 0.7077 0.9145 0.0
H866 H 0.06753 0.75993 0.20877 0.0
H867 H 0.06797 0.73306 0.25846 0.0
H868 H 0.09258 0.74918 0.25277 0.0
H869 H 0.09525 0.74093 0.83793 0.0
H870 H 0.08347 0.76445 0.89105 0.0
H871 H 0.1122 0.75891 0.90189 0.0
H872 H 0.08416 0.82368 0.01861 0.0
H873 H 0.14582 0.79593 0.0936 0.0
H874 H 0.0517 0.77291 0.06322 0.0
H875 H 0.05629 0.78677 0.96193 0.0
H876 H 0.05044 0.80247 0.05681 0.0
H877 H 0.12655 0.74546 0.1709 0.0
H878 H 0.15031 0.75946 0.13021 0.0
H879 H 0.13403 0.74258 0.05946 0.0
C880 C 0.55395 0.88478 0.39558 0.0
C881 C 0.57195 0.87389 0.35964 0.0
C882 C 0.53267 0.87654 0.38692 0.0
C883 C 0.5292 0.85654 0.3422 0.0
C884 C 0.54763 0.84409 0.31511 0.0
C885 C 0.56888 0.85314 0.32258 0.0
C886 C 0.51379 0.89053 0.41788 0.0
C887 C 0.54498 0.82195 0.27309 0.0
C888 C 0.46789 0.84843 0.34696 0.0
C889 C 0.46203 0.86072 0.27383 0.0
C890 C 0.4901 0.84362 0.36434 0.0
C891 C 0.50662 0.85192 0.30876 0.0
C892 C 0.50037 0.86153 0.22903 0.0
C893 C 0.47818 0.86563 0.21239 0.0
C894 C 0.49589 0.83161 0.44641 0.0
C895 C 0.51719 0.87024 0.16623 0.0
H896 H 0.55638 0.90071 0.42534 0.0
H897 H 0.58277 0.84461 0.29479 0.0
H898 H 0.50392 0.89611 0.36165 0.0
H899 H 0.50288 0.88088 0.46054 0.0
H900 H 0.5194 0.90523 0.45421 0.0
H901 H 0.55902 0.81114 0.2897 0.0
H902 H 0.52953 0.81382 0.29309 0.0
H903 H 0.54479 0.8239 0.20176 0.0
H904 H 0.45552 0.84433 0.3944 0.0
H905 H 0.47365 0.87462 0.15455 0.0
H906 H 0.49717 0.84349 0.50055 0.0
H907 H 0.5118 0.82292 0.44041 0.0
H908 H 0.48291 0.81957 0.46325 0.0
H909 H 0.52574 0.88453 0.19538 0.0
H910 H 0.50968 0.87553 0.10412 0.0
H911 H 0.52968 0.85757 0.15217 0.0
C912 C 0.42524 0.30166 0.61958 0.0
C913 C 0.41231 0.30749 0.6908 0.0
C914 C 0.42744 0.27947 0.59555 0.0
C915 C 0.41618 0.26313 0.64324 0.0
C916 C 0.40657 0.26882 0.72344 0.0
C917 C 0.40483 0.29098 0.74639 0.0
C918 C 0.4393 0.27386 0.5131 0.0
C919 C 0.39506 0.25195 0.77839 0.0
C920 C 0.37982 0.22398 0.51849 0.0
C921 C 0.38894 0.20345 0.53778 0.0
C922 C 0.3892 0.24343 0.54928 0.0
C923 C 0.40868 0.2426 0.59933 0.0
C924 C 0.41888 0.22205 0.61429 0.0
C925 C 0.40867 0.20268 0.58465 0.0
C926 C 0.37744 0.26481 0.53181 0.0
C927 C 0.44007 0.2202 0.66411 0.0
H928 H 0.43135 0.31436 0.57692 0.0
H929 H 0.39517 0.29549 0.80248 0.0
H930 H 0.44741 0.25762 0.51835 0.0
H931 H 0.42736 0.27305 0.45895 0.0
H932 H 0.45178 0.28647 0.49709 0.0
H933 H 0.39121 0.25835 0.84393 0.0
H934 H 0.37947 0.2471 0.74651 0.0
H935 H 0.40528 0.23704 0.78523 0.0
H936 H 0.36467 0.22491 0.48192 0.0
H937 H 0.41596 0.187 0.59995 0.0
H938 H 0.38848 0.27637 0.49784 0.0
H939 H 0.37256 0.27256 0.59383 0.0
H940 H 0.36248 0.26257 0.49164 0.0
H941 H 0.44986 0.2355 0.66117 0.0
H942 H 0.45013 0.20643 0.63889 0.0
H943 H 0.43638 0.21659 0.73288 0.0
C944 C 0.9456 0.12392 0.71593 0.0
C945 C 0.92839 0.12822 0.77338 0.0
C946 C 0.96662 0.13245 0.73004 0.0
C947 C 0.97062 0.14587 0.80329 0.0
C948 C 0.95269 0.15248 0.85546 0.0
C949 C 0.93177 0.14334 0.84057 0.0
C950 C 0.98501 0.12512 0.67139 0.0
C951 C 0.95581 0.16771 0.9313 0.0
C952 C 0.02565 0.12905 0.88953 0.0
C953 C 0.03965 0.14316 0.84437 0.0
C954 C 1.00286 0.13144 0.88508 0.0
C955 C 0.99376 0.1484 0.83382 0.0
C956 C 0.00788 0.16444 0.79758 0.0
C957 C 0.03081 0.16159 0.80294 0.0
C958 C 0.98863 0.11419 0.92688 0.0
C959 C 0.99889 0.18344 0.74638 0.0
H960 H 0.94299 0.11261 0.66272 0.0
H961 H 0.91858 0.14685 0.88527 0.0
H962 H 0.99494 0.13937 0.65043 0.0
H963 H 0.99601 0.11381 0.7072 0.0
H964 H 0.97886 0.11649 0.61286 0.0
H965 H 0.94067 0.17731 0.9437 0.0
H966 H 0.95941 0.15793 0.99011 0.0
H967 H 0.96964 0.1792 0.92062 0.0
H968 H 0.03252 0.11498 0.92277 0.0
H969 H 0.04161 0.17264 0.76839 0.0
H970 H 0.98119 0.10368 0.87601 0.0
H971 H 0.9751 0.12195 0.9635 0.0
H972 H 0.99808 0.10353 0.97173 0.0
H973 H 0.99641 0.17831 0.67819 0.0
H974 H 0.01048 0.19749 0.7468 0.0
H975 H 0.98285 0.18893 0.77228 0.0
C976 C 0.09164 0.3099 0.90324 0.0
C977 C 0.11329 0.30905 0.93403 0.0
C978 C 0.07916 0.29066 0.89195 0.0
C979 C 0.08908 0.26997 0.90639 0.0
C980 C 0.11096 0.26909 0.93754 0.0
C981 C 0.12247 0.28852 0.95272 0.0
C982 C 0.05566 0.29282 0.86273 0.0
C983 C 0.12274 0.24756 0.95207 0.0
C984 C 0.07301 0.21224 0.94195 0.0
C985 C 0.08104 0.20336 0.86467 0.0
C986 C 0.07088 0.23506 0.95155 0.0
C987 C 0.078 0.24891 0.88381 0.0
C988 C 0.08167 0.23978 0.80083 0.0
C989 C 0.08287 0.2169 0.79201 0.0
C990 C 0.06463 0.24431 0.03847 0.0
C991 C 0.08821 0.25396 0.72535 0.0
H992 H 0.08451 0.32546 0.88603 0.0
H993 H 0.13916 0.28749 0.97644 0.0
H994 H 0.05528 0.29632 0.79231 0.0
H995 H 0.04591 0.27782 0.87543 0.0
H996 H 0.04772 0.3069 0.89586 0.0
H997 H 0.14015 0.24987 0.97117 0.0
H998 H 0.11451 0.23811 0.00389 0.0
H999 H 0.12235 0.23753 0.89218 0.0
H1000 H 0.07128 0.20175 -0.00188 0.0
H1001 H 0.08885 0.20997 0.73188 0.0
H1002 H 0.05621 0.26034 0.03106 0.0
H1003 H 0.07964 0.24694 0.07783 0.0
H1004 H 0.05379 0.23283 0.07415 0.0
H1005 H 0.07748 0.26857 0.72119 0.0
H1006 H 0.08732 0.24487 0.66311 0.0
H1007 H 0.10531 0.25974 0.73479 0.0
C1008 C 0.05988 0.85741 0.9571 0.0
C1009 C 0.06445 0.86335 0.04299 0.0
C1010 C 0.03823 0.85315 0.93013 0.0
C1011 C 0.02087 0.85528 0.99027 0.0
C1012 C 0.02581 0.85905 0.07878 0.0
C1013 C 0.04752 0.8631 0.10384 0.0
C1014 C 0.0339 0.84834 0.83596 0.0
C1015 C 0.00796 0.86107 0.14592 0.0
C1016 C 0.96716 0.88344 0.95174 0.0
C1017 C 0.9525 0.8666 0.97238 0.0
C1018 C 0.9897 0.87935 0.94555 0.0
C1019 C 0.99769 0.85788 0.96082 0.0
C1020 C 0.98262 0.84031 0.96781 0.0
C1021 C 0.96003 0.84488 0.97337 0.0
C1022 C 0.00506 0.89857 0.93509 0.0
C1023 C 0.99036 0.81706 0.98038 0.0
H1024 H 0.07296 0.85768 0.9097 0.0
H1025 H 0.05107 0.86764 0.17028 0.0
H1026 H 0.01926 0.83775 0.8274 0.0
H1027 H 0.03088 0.86396 0.80124 0.0
H1028 H 0.04824 0.84025 0.80547 0.0
H1029 H 0.01466 0.86186 0.21275 0.0
H1030 H 0.99833 0.87619 0.13382 0.0
H1031 H 0.99655 0.84696 0.1417 0.0
H1032 H 0.9613 0.90021 0.95028 0.0
H1033 H 0.94872 0.83177 0.98914 0.0
H1034 H 0.01839 0.89454 0.88914 0.0
H1035 H 0.01272 0.90247 -0.00151 0.0
H1036 H 0.99639 0.91342 0.91152 0.0
H1037 H 0.00568 0.81388 0.94393 0.0
H1038 H 0.97764 0.80512 0.9596 0.0
H1039 H 0.9938 0.81425 0.05 0.0
C1040 C 0.3883 0.71975 0.44124 0.0
C1041 C 0.39494 0.70104 0.39564 0.0
C1042 C 0.39756 0.7403 0.42513 0.0
C1043 C 0.4151 0.74219 0.36547 0.0
C1044 C 0.42318 0.72303 0.32429 0.0
C1045 C 0.4124 0.70284 0.33718 0.0
C1046 C 0.38743 0.76011 0.46848 0.0
C1047 C 0.44271 0.72356 0.26474 0.0
C1048 C 0.40908 0.79768 0.26806 0.0
C1049 C 0.4167 0.81036 0.33734 0.0
C1050 C 0.41135 0.77481 0.26884 0.0
C1051 C 0.42219 0.76466 0.33936 0.0
C1052 C 0.43388 0.7779 0.39908 0.0
C1053 C 0.43028 0.80069 0.39965 0.0
C1054 C 0.39927 0.76151 0.20154 0.0
C1055 C 0.44792 0.76777 0.46869 0.0
H1056 H 0.37491 0.71859 0.487 0.0
H1057 H 0.41733 0.68869 0.29973 0.0
H1058 H 0.39932 0.7676 0.51399 0.0
H1059 H 0.38299 0.77268 0.41961 0.0
H1060 H 0.37242 0.75593 0.50556 0.0
H1061 H 0.45404 0.70993 0.28111 0.0
H1062 H 0.43717 0.72081 0.19716 0.0
H1063 H 0.4519 0.73923 0.26828 0.0
H1064 H 0.39865 0.80527 0.21969 0.0
H1065 H 0.43635 0.81048 0.45316 0.0
H1066 H 0.38554 0.7525 0.23237 0.0
H1067 H 0.41043 0.74926 0.17237 0.0
H1068 H 0.39248 0.77191 0.14894 0.0
H1069 H 0.4377 0.7639 0.52593 0.0
H1070 H 0.46102 0.77927 0.48965 0.0
H1071 H 0.45552 0.7523 0.44556 0.0
C1072 C 0.53276 0.12254 0.44754 0.0
C1073 C 0.54807 0.13888 0.46748 0.0
C1074 C 0.51054 0.12769 0.43712 0.0
C1075 C 0.50359 0.14968 0.44776 0.0
C1076 C 0.5195 0.16655 0.45232 0.0
C1077 C 0.54175 0.16094 0.46206 0.0
C1078 C 0.49427 0.10917 0.42838 0.0
C1079 C 0.51289 0.19029 0.45903 0.0
C1080 C 0.44141 0.15348 0.45204 0.0
C1081 C 0.43756 0.14849 0.53921 0.0
C1082 C 0.46298 0.15606 0.42119 0.0
C1083 C 0.48084 0.15364 0.47925 0.0
C1084 C 0.47668 0.15111 0.56893 0.0
C1085 C 0.45511 0.14846 0.59753 0.0
C1086 C 0.46652 0.15951 0.3257 0.0
C1087 C 0.49506 0.14904 0.63414 0.0
H1088 H 0.53774 0.10549 0.45005 0.0
H1089 H 0.5536 0.17369 0.47633 0.0
H1090 H 0.48649 0.10608 0.49208 0.0
H1091 H 0.48112 0.11351 0.38184 0.0
H1092 H 0.50223 0.09377 0.40649 0.0
H1093 H 0.52629 0.20126 0.43694 0.0
H1094 H 0.49792 0.19364 0.42035 0.0
H1095 H 0.50927 0.19428 0.52757 0.0
H1096 H 0.42779 0.15365 0.40686 0.0
H1097 H 0.45206 0.14502 0.66529 0.0
H1098 H 0.46719 0.14335 0.29288 0.0
H1099 H 0.48209 0.16829 0.31255 0.0
H1100 H 0.45273 0.1689 0.29683 0.0
H1101 H 0.50408 0.1335 0.62298 0.0
H1102 H 0.48898 0.14906 0.70184 0.0
H1103 H 0.50688 0.16272 0.62676 0.0
C1104 C 0.89196 0.1794 0.76326 0.0
C1105 C 0.88133 0.17521 0.84196 0.0
C1106 C 0.89861 0.20086 0.74141 0.0
C1107 C 0.89432 0.21837 0.79938 0.0
C1108 C 0.88577 0.21363 0.88252 0.0
C1109 C 0.87942 0.19217 0.90258 0.0
C1110 C 0.9085 0.20487 0.65359 0.0
C1111 C 0.88128 0.23155 0.94771 0.0
C1112 C 0.90904 0.27846 0.8001 0.0
C1113 C 0.8884 0.28745 0.78173 0.0
C1114 C 0.91249 0.25565 0.79453 0.0
C1115 C 0.89485 0.24178 0.77054 0.0
C1116 C 0.87522 0.2513 0.73892 0.0
C1117 C 0.8722 0.27403 0.7454 0.0
C1118 C 0.93406 0.24632 0.82471 0.0
C1119 C 0.85616 0.23731 0.70993 0.0
H1120 H 0.89357 0.16634 0.71613 0.0
H1121 H 0.87151 0.18892 0.96403 0.0
H1122 H 0.8952 0.20809 0.60628 0.0
H1123 H 0.91965 0.21924 0.65407 0.0
H1124 H 0.91772 0.19025 0.63096 0.0
H1125 H 0.87636 0.22491 0.0117 0.0
H1126 H 0.89601 0.24195 0.95684 0.0
H1127 H 0.86788 0.24224 0.92355 0.0
H1128 H 0.92162 0.2888 0.82842 0.0
H1129 H 0.85626 0.281 0.731 0.0
H1130 H 0.93829 0.23122 0.7883 0.0
H1131 H 0.93285 0.24195 0.8942 0.0
H1132 H 0.94752 0.25843 0.8174 0.0
H1133 H 0.86183 0.22395 0.66678 0.0
H1134 H 0.84354 0.24707 0.67525 0.0
H1135 H 0.84839 0.22965 0.76732 0.0
C1136 C 0.60216 0.82154 0.44456 0.0
C1137 C 0.62351 0.82432 0.413 0.0
C1138 C 0.59297 0.80034 0.45266 0.0
C1139 C 0.60576 0.78163 0.43137 0.0
C1140 C 0.62668 0.78468 0.3936 0.0
C1141 C 0.63512 0.80588 0.38444 0.0
C1142 C 0.57015 0.79806 0.48858 0.0
C1143 C 0.6411 0.76549 0.3693 0.0
C1144 C 0.61042 0.72962 0.55911 0.0
C1145 C 0.60588 0.71391 0.49522 0.0
C1146 C 0.60757 0.75206 0.5432 0.0
C1147 C 0.59976 0.75906 0.46138 0.0
C1148 C 0.5919 0.74311 0.40193 0.0
C1149 C 0.59532 0.72062 0.41903 0.0
C1150 C 0.61584 0.76824 0.6097 0.0
C1151 C 0.58207 0.74975 0.31639 0.0
H1152 H 0.59314 0.83571 0.46729 0.0
H1153 H 0.65152 0.80798 0.35884 0.0
H1154 H 0.57102 0.79656 0.56 0.0
H1155 H 0.56007 0.81273 0.4733 0.0
H1156 H 0.56181 0.78327 0.46267 0.0
H1157 H 0.65656 0.77073 0.33762 0.0
H1158 H 0.64538 0.75597 0.42814 0.0
H1159 H 0.63227 0.75434 0.32457 0.0
H1160 H 0.61824 0.72447 0.6188 0.0
H1161 H 0.5917 0.70861 0.36933 0.0
H1162 H 0.60395 0.78178 0.61847 0.0
H1163 H 0.63148 0.77551 0.58699 0.0
H1164 H 0.6188 0.76039 0.6735 0.0
H1165 H 0.57308 0.7655 0.32194 0.0
H1166 H 0.57073 0.73693 0.29167 0.0
H1167 H 0.59534 0.75191 0.26818 0.0
C1168 C 0.88716 0.69967 0.06031 0.0
C1169 C 0.88646 0.68136 0.11471 0.0
C1170 C 0.88985 0.72085 0.09376 0.0
C1171 C 0.89186 0.72387 0.18441 0.0
C1172 C 0.89379 0.70521 0.23865 0.0
C1173 C 0.89098 0.68405 0.20308 0.0
C1174 C 0.88817 0.74007 0.03248 0.0
C1175 C 0.89689 0.70749 0.33497 0.0
C1176 C 0.89875 0.78471 0.22027 0.0
C1177 C 0.87668 0.79117 0.21762 0.0
C1178 C 0.90443 0.7623 0.22185 0.0
C1179 C 0.88764 0.74624 0.22056 0.0
C1180 C 0.8656 0.75292 0.2325 0.0
C1181 C 0.86041 0.77532 0.23096 0.0
C1182 C 0.92821 0.75595 0.21408 0.0
C1183 C 0.84711 0.73649 0.23431 0.0
H1184 H 0.88393 0.69756 0.99176 0.0
H1185 H 0.89051 0.6699 0.24542 0.0
H1186 H 0.87259 0.74897 0.04414 0.0
H1187 H 0.90181 0.75174 0.04377 0.0
H1188 H 0.88855 0.73489 0.96357 0.0
H1189 H 0.90572 0.69308 0.36182 0.0
H1190 H 0.9061 0.7226 0.35174 0.0
H1191 H 0.88062 0.70832 0.36664 0.0
H1192 H 0.91148 0.79687 0.21077 0.0
H1193 H 0.84334 0.78028 0.23028 0.0
H1194 H 0.93244 0.75395 0.14475 0.0
H1195 H 0.93154 0.74017 0.24723 0.0
H1196 H 0.93906 0.76882 0.24169 0.0
H1197 H 0.8446 0.7297 0.16835 0.0
H1198 H 0.83147 0.744 0.25603 0.0
H1199 H 0.85113 0.72265 0.27795 0.0
C1200 C 0.60468 0.21727 0.76687 0.0
C1201 C 0.62614 0.2109 0.74619 0.0
C1202 C 0.60019 0.23878 0.79533 0.0
C1203 C 0.61759 0.25408 0.80324 0.0
C1204 C 0.63946 0.24678 0.79243 0.0
C1205 C 0.64343 0.22533 0.76385 0.0
C1206 C 0.57669 0.24556 0.80862 0.0
C1207 C 0.65867 0.26223 0.80211 0.0
C1208 C 0.61639 0.31284 0.72914 0.0
C1209 C 0.62014 0.32399 0.80687 0.0
C1210 C 0.61272 0.29014 0.72811 0.0
C1211 C 0.61334 0.27822 0.8068 0.0
C1212 C 0.61458 0.28983 0.88618 0.0
C1213 C 0.618 0.31269 0.88529 0.0
C1214 C 0.61079 0.27866 0.64186 0.0
C1215 C 0.6147 0.27793 0.97163 0.0
H1216 H 0.5912 0.2062 0.75333 0.0
H1217 H 0.66007 0.22038 0.74885 0.0
H1218 H 0.57524 0.25816 0.8601 0.0
H1219 H 0.57024 0.25271 0.74769 0.0
H1220 H 0.56628 0.23127 0.82574 0.0
H1221 H 0.67461 0.25344 0.80165 0.0
H1222 H 0.65859 0.27417 0.74794 0.0
H1223 H 0.65739 0.27165 0.86327 0.0
H1224 H 0.61813 0.3216 0.66851 0.0
H1225 H 0.62113 0.32129 0.9455 0.0
H1226 H 0.59756 0.26621 0.64351 0.0
H1227 H 0.62638 0.27004 0.62744 0.0
H1228 H 0.60735 0.29033 0.58838 0.0
H1229 H 0.60348 0.26362 0.97034 0.0
H1230 H 0.6099 0.28897 0.02554 0.0
H1231 H 0.63147 0.27176 0.985 0.0
C1232 C 0.96581 0.33488 0.03661 0.0
C1233 C 0.9574 0.35557 0.05791 0.0
C1234 C 0.98859 0.33121 0.03667 0.0
C1235 C 1.00288 0.34866 0.05855 0.0
C1236 C 0.99408 0.36774 0.09751 0.0
C1237 C 0.97133 0.37104 0.09625 0.0
C1238 C 0.99731 0.31005 0.0 0.0
C1239 C 0.00868 0.38633 0.12631 0.0
C1240 C 0.06468 0.35163 0.02081 0.0
C1241 C 0.06518 0.36247 0.94083 0.0
C1242 C 0.04455 0.34543 0.05846 0.0
C1243 C 0.02465 0.3504 0.01511 0.0
C1244 C 0.02537 0.35981 0.93127 0.0
C1245 C 0.04556 0.36568 0.89555 0.0
C1246 C 0.04477 0.33476 0.14635 0.0
C1247 C 0.00474 0.36504 0.8809 0.0
H1248 H 0.95505 0.32273 0.00779 0.0
H1249 H 0.96479 0.38694 0.11398 0.0
H1250 H 1.00021 0.31206 0.92959 0.0
H1251 H 0.01314 0.30554 0.03076 0.0
H1252 H 0.98542 0.29645 0.00895 0.0
H1253 H 0.99988 0.39787 0.16967 0.0
H1254 H 0.02335 0.37999 0.16054 0.0
H1255 H 0.01435 0.39556 0.06866 0.0
H1256 H 0.07987 0.34892 0.05576 0.0
H1257 H 0.04591 0.37363 0.83283 0.0
H1258 H 0.02994 0.32464 0.15753 0.0
H1259 H 0.04545 0.34769 0.19683 0.0
H1260 H 0.05954 0.3243 0.15424 0.0
H1261 H 0.99443 0.35017 0.87402 0.0
H1262 H 0.00829 0.37144 0.81514 0.0
H1263 H 0.995 0.37754 0.91609 0.0
C1264 C 0.46268 0.64592 0.30274 0.0
C1265 C 0.4441 0.6519 0.35041 0.0
C1266 C 0.48345 0.65419 0.32307 0.0
C1267 C 0.48571 0.66999 0.38996 0.0
C1268 C 0.46664 0.67794 0.43194 0.0
C1269 C 0.44617 0.66816 0.41414 0.0
C1270 C 0.50309 0.64452 0.27724 0.0
C1271 C 0.46761 0.69608 0.49809 0.0
C1272 C 0.53858 0.65718 0.50056 0.0
C1273 C 0.55333 0.66616 0.44116 0.0
C1274 C 0.516 0.66081 0.49253 0.0
C1275 C 0.50815 0.67436 0.42481 0.0
C1276 C 0.52337 0.6868 0.37592 0.0
C1277 C 0.54591 0.68201 0.38252 0.0
C1278 C 0.50061 0.64764 0.54848 0.0
C1279 C 0.51579 0.70341 0.31028 0.0
H1280 H 0.46123 0.63356 0.25258 0.0
H1281 H 0.43203 0.67276 0.45229 0.0
H1282 H 0.51165 0.6574 0.23985 0.0
H1283 H 0.5149 0.63776 0.32499 0.0
H1284 H 0.4985 0.63118 0.23171 0.0
H1285 H 0.45438 0.70816 0.48505 0.0
H1286 H 0.46452 0.68924 0.56341 0.0
H1287 H 0.48357 0.70479 0.49827 0.0
H1288 H 0.54444 0.64503 0.54632 0.0
H1289 H 0.55727 0.68909 0.33657 0.0
H1290 H 0.49123 0.63588 0.50783 0.0
H1291 H 0.48868 0.65865 0.58044 0.0
H1292 H 0.50941 0.63825 0.5994 0.0
H1293 H 0.51484 0.69567 0.24546 0.0
H1294 H 0.52768 0.71716 0.30602 0.0
H1295 H 0.49938 0.71004 0.32686 0.0
C1296 C 0.48359 0.37281 0.63078 0.0
C1297 C 0.46542 0.36235 0.66793 0.0
C1298 C 0.50495 0.3684 0.65921 0.0
C1299 C 0.50838 0.35255 0.72473 0.0
C1300 C 0.49049 0.33927 0.75122 0.0
C1301 C 0.46904 0.34456 0.72365 0.0
C1302 C 0.5234 0.38267 0.62653 0.0
C1303 C 0.49362 0.32069 0.81416 0.0
C1304 C 0.56889 0.35432 0.7845 0.0
C1305 C 0.56853 0.36966 0.8522 0.0
C1306 C 0.54921 0.34609 0.74871 0.0
C1307 C 0.52877 0.35425 0.77851 0.0
C1308 C 0.52845 0.36824 0.85176 0.0
C1309 C 0.54823 0.37531 0.88852 0.0
C1310 C 0.55063 0.32976 0.6757 0.0
C1311 C 0.50728 0.37762 0.88654 0.0
H1312 H 0.48095 0.38609 0.58534 0.0
H1313 H 0.45516 0.33598 0.75125 0.0
H1314 H 0.53008 0.39271 0.68043 0.0
H1315 H 0.53688 0.37234 0.60145 0.0
H1316 H 0.51804 0.3939 0.57404 0.0
H1317 H 0.48191 0.3072 0.79999 0.0
H1318 H 0.51059 0.31414 0.81194 0.0
H1319 H 0.49025 0.32653 0.88078 0.0
H1320 H 0.58436 0.34973 0.75571 0.0
H1321 H 0.54769 0.38672 0.94228 0.0
H1322 H 0.55575 0.33828 0.61567 0.0
H1323 H 0.53481 0.32128 0.66378 0.0
H1324 H 0.56338 0.31729 0.69031 0.0
H1325 H 0.49887 0.38725 0.8354 0.0
H1326 H 0.50994 0.38848 0.94334 0.0
H1327 H 0.49611 0.36421 0.90624 0.0
C1328 C 0.03737 0.65645 0.0603 0.0
C1329 C 0.04772 0.65802 0.14102 0.0
C1330 C 0.0144 0.65762 0.05375 0.0
C1331 C 1.00177 0.66074 0.12961 0.0
C1332 C 0.01255 0.66665 0.20744 0.0
C1333 C 0.03547 0.66468 0.21289 0.0
C1334 C 0.00367 0.65196 0.96868 0.0
C1335 C 0.99976 0.67168 0.28834 0.0
C1336 C 0.93957 0.65163 0.1155 0.0
C1337 C 0.93795 0.62961 0.14112 0.0
C1338 C 0.96003 0.6625 0.11388 0.0
C1339 C 0.97942 0.65075 0.13462 0.0
C1340 C 0.97779 0.62848 0.15972 0.0
C1341 C 0.95724 0.61843 0.16386 0.0
C1342 C 0.96067 0.68635 0.08852 0.0
C1343 C 0.99785 0.61493 0.18145 0.0
H1344 H 0.04685 0.65127 0.00463 0.0
H1345 H 0.04347 0.66602 0.2754 0.0
H1346 H 0.99814 0.63462 0.97031 0.0
H1347 H 0.98906 0.66238 0.95749 0.0
H1348 H 0.01516 0.65397 0.91358 0.0
H1349 H 0.00973 0.68132 0.33505 0.0
H1350 H 0.9846 0.68093 0.27266 0.0
H1351 H 0.99491 0.65611 0.32004 0.0
H1352 H 0.925 0.66036 0.09618 0.0
H1353 H 0.95645 0.6014 0.18341 0.0
H1354 H 0.96221 0.68758 0.01719 0.0
H1355 H 0.97474 0.69507 0.11843 0.0
H1356 H 0.94526 0.6948 0.10735 0.0
H1357 H 0.00971 0.6154 0.12719 0.0
H1358 H 0.99378 0.59751 0.19479 0.0
H1359 H 0.00613 0.62176 0.23946 0.0
C1360 C 0.09713 0.54845 0.97621 0.0
C1361 C 0.11259 0.56466 0.99568 0.0
C1362 C 0.10365 0.52684 0.95968 0.0
C1363 C 0.12615 0.52126 0.96505 0.0
C1364 C 0.14196 0.53785 0.97967 0.0
C1365 C 0.13497 0.5595 0.99373 0.0
C1366 C 0.08634 0.50979 0.94068 0.0
C1367 C 0.16605 0.53254 0.98672 0.0
C1368 C 0.13336 0.46065 0.01317 0.0
C1369 C 0.13592 0.45238 0.92938 0.0
C1370 C 0.13186 0.48342 0.02707 0.0
C1371 C 0.1328 0.49796 0.95539 0.0
C1372 C 0.1373 0.48967 0.87207 0.0
C1373 C 0.13901 0.46704 0.86033 0.0
C1374 C 0.12775 0.49181 0.1174 0.0
C1375 C 0.13837 0.50449 0.79385 0.0
H1376 H 0.07983 0.55246 0.97835 0.0
H1377 H 0.14693 0.57196 0.01057 0.0
H1378 H 0.09049 0.50069 0.88073 0.0
H1379 H 0.08572 0.49773 0.99428 0.0
H1380 H 0.06979 0.51712 0.9328 0.0
H1381 H 0.17637 0.54755 0.98733 0.0
H1382 H 0.16905 0.52337 0.04755 0.0
H1383 H 0.17136 0.5219 0.93248 0.0
H1384 H 0.13115 0.44939 0.06669 0.0
H1385 H 0.14151 0.46073 0.79547 0.0
H1386 H 0.1105 0.49737 0.12277 0.0
H1387 H 0.13842 0.50612 0.13147 0.0
H1388 H 0.13071 0.47899 0.16707 0.0
H1389 H 0.1217 0.51072 0.77891 0.0
H1390 H 0.14469 0.49583 0.7358 0.0
H1391 H 0.14894 0.51891 0.8068 0.0
C1392 C 0.72389 0.87092 0.21778 0.0
C1393 C 0.70907 0.88818 0.22948 0.0
C1394 C 0.7437 0.87398 0.17421 0.0
C1395 C 0.74892 0.8949 0.1402 0.0
C1396 C 0.73319 0.912 0.14522 0.0
C1397 C 0.71342 0.90848 0.19058 0.0
C1398 C 0.75958 0.85499 0.16903 0.0
C1399 C 0.73759 0.93434 0.1075 0.0
C1400 C 0.8105 0.89706 0.13902 0.0
C1401 C 0.81461 0.88664 0.05995 0.0
C1402 C 0.78898 0.90295 0.16218 0.0
C1403 C 0.7714 0.8984 0.10459 0.0
C1404 C 0.77614 0.89129 0.01958 0.0
C1405 C 0.79768 0.88524 -0.00147 0.0
C1406 C 0.78477 0.91129 0.25245 0.0
C1407 C 0.75812 0.88732 0.95452 0.0
H1408 H 0.72045 0.85512 0.24687 0.0
H1409 H 0.70209 0.92195 0.19994 0.0
H1410 H 0.77489 0.85912 0.20435 0.0
H1411 H 0.75274 0.8397 0.1971 0.0
H1412 H 0.764 0.85172 0.10067 0.0
H1413 H 0.72204 0.94281 0.09061 0.0
H1414 H 0.74631 0.94448 0.15626 0.0
H1415 H 0.74801 0.93336 0.04889 0.0
H1416 H 0.82354 0.89838 0.18647 0.0
H1417 H 0.80088 0.87761 0.93644 0.0
H1418 H 0.77854 0.89765 0.293 0.0
H1419 H 0.77212 0.92434 0.2517 0.0
H1420 H 0.79993 0.91785 0.28295 0.0
H1421 H 0.7507 0.87098 0.96638 0.0
H1422 H 0.7645 0.88758 0.88726 0.0
H1423 H 0.745 0.89979 0.96083 0.0
C1424 C 0.36505 0.45765 0.61096 0.0
C1425 C 0.37925 0.44601 0.55656 0.0
C1426 C 0.36058 0.4799 0.59666 0.0
C1427 C 0.37031 0.49058 0.52528 0.0
C1428 C 0.38241 0.47812 0.46416 0.0
C1429 C 0.38706 0.45595 0.48132 0.0
C1430 C 0.34767 0.49241 0.66364 0.0
C1431 C 0.39229 0.48867 0.38514 0.0
C1432 C 0.35749 0.54971 0.46568 0.0
C1433 C 0.3766 0.56031 0.49389 0.0
C1434 C 0.35459 0.52708 0.47851 0.0
C1435 C 0.37102 0.51501 0.52223 0.0
C1436 C 0.38929 0.52618 0.55828 0.0
C1437 C 0.39205 0.54866 0.54227 0.0
C1438 C 0.33504 0.51588 0.43805 0.0
C1439 C 0.40683 0.51411 0.60813 0.0
H1440 H 0.3593 0.44996 0.66998 0.0
H1441 H 0.3983 0.44703 0.44001 0.0
H1442 H 0.35917 0.50181 0.70528 0.0
H1443 H 0.33642 0.50435 0.63273 0.0
H1444 H 0.33795 0.48129 0.70558 0.0
H1445 H 0.39765 0.47627 0.33693 0.0
H1446 H 0.38035 0.4999 0.354 0.0
H1447 H 0.40676 0.49854 0.40463 0.0
H1448 H 0.34586 0.55864 0.42591 0.0
H1449 H 0.40703 0.5568 0.56232 0.0
H1450 H 0.32811 0.5033 0.48191 0.0
H1451 H 0.3403 0.50741 0.37804 0.0
H1452 H 0.32194 0.52777 0.42092 0.0
H1453 H 0.39933 0.50345 0.65812 0.0
H1454 H 0.41851 0.5255 0.64026 0.0
H1455 H 0.41618 0.5034 0.56341 0.0
C1456 C 0.78639 0.09436 0.63865 0.0
C1457 C 0.79192 0.11471 0.67502 0.0
C1458 C 0.76574 0.09112 0.59938 0.0
C1459 C 0.75035 0.10854 0.59821 0.0
C1460 C 0.75669 0.12951 0.62889 0.0
C1461 C 0.77739 0.13231 0.66604 0.0
C1462 C 0.76014 0.06875 0.56435 0.0
C1463 C 0.74113 0.14881 0.62779 0.0
C1464 C 0.69834 0.1193 0.47791 0.0
C1465 C 0.68327 0.11825 0.54625 0.0
C1466 C 0.72013 0.11252 0.48938 0.0
C1467 C 0.72704 0.10527 0.57187 0.0
C1468 C 0.71111 0.10106 0.63653 0.0
C1469 C 0.68926 0.10754 0.62275 0.0
C1470 C 0.73629 0.11591 0.41691 0.0
C1471 C 0.71763 0.09259 0.72449 0.0
H1472 H 0.79754 0.08065 0.64558 0.0
H1473 H 0.78176 0.14816 0.69284 0.0
H1474 H 0.75297 0.0587 0.61695 0.0
H1475 H 0.74805 0.06964 0.51076 0.0
H1476 H 0.77507 0.06021 0.54085 0.0
H1477 H 0.73542 0.15204 0.56085 0.0
H1478 H 0.72648 0.14508 0.66763 0.0
H1479 H 0.7488 0.16402 0.65329 0.0
H1480 H 0.69359 0.12714 0.41779 0.0
H1481 H 0.6776 0.1065 0.6754 0.0
H1482 H 0.749 0.10289 0.41706 0.0
H1483 H 0.74469 0.13189 0.42578 0.0
H1484 H 0.72798 0.11606 0.3529 0.0
H1485 H 0.72975 0.07914 0.71839 0.0
H1486 H 0.70326 0.08653 0.76143 0.0
H1487 H 0.72544 0.10603 0.76199 0.0
C1488 C 0.85314 0.53431 0.93351 0.0
C1489 C 0.87412 0.54001 0.96321 0.0
C1490 C 0.84863 0.51278 0.90463 0.0
C1491 C 0.86549 0.49674 0.90643 0.0
C1492 C 0.88706 0.50312 0.92957 0.0
C1493 C 0.89106 0.52462 0.95706 0.0
C1494 C 0.82557 0.507 0.87799 0.0
C1495 C 0.90577 0.48688 0.93113 0.0
C1496 C 0.86181 0.43612 0.95207 0.0
C1497 C 0.87019 0.4278 0.87457 0.0
C1498 C 0.85726 0.45866 0.96063 0.0
C1499 C 0.86108 0.47297 0.88978 0.0
C1500 C 0.8663 0.46393 0.8081 0.0
C1501 C 0.87113 0.44148 0.80178 0.0
C1502 C 0.85114 0.46747 0.04845 0.0
C1503 C 0.86955 0.47832 0.72986 0.0
H1504 H 0.83992 0.54611 0.93871 0.0
H1505 H 0.90734 0.52903 0.97944 0.0
H1506 H 0.82539 0.49442 0.82608 0.0
H1507 H 0.81673 0.5002 0.93458 0.0
H1508 H 0.8165 0.5217 0.85523 0.0
H1509 H 0.92164 0.49466 0.94867 0.0
H1510 H 0.90228 0.47374 0.97879 0.0
H1511 H 0.90759 0.47901 0.86685 0.0
H1512 H 0.86115 0.42558 0.00846 0.0
H1513 H 0.87753 0.43501 0.74154 0.0
H1514 H 0.83846 0.4804 0.04252 0.0
H1515 H 0.86582 0.47497 0.07907 0.0
H1516 H 0.84493 0.45434 0.09172 0.0
H1517 H 0.85732 0.49177 0.72838 0.0
H1518 H 0.8683 0.46876 0.66883 0.0
H1519 H 0.88609 0.48588 0.73271 0.0
C1520 C 0.18644 0.13145 0.66523 0.0
C1521 C 0.17998 0.15262 0.68962 0.0
C1522 C 0.20798 0.12733 0.63732 0.0
C1523 C 0.22323 0.14483 0.63324 0.0
C1524 C 0.21625 0.16644 0.65195 0.0
C1525 C 0.19475 0.17004 0.68014 0.0
C1526 C 0.21473 0.10409 0.61721 0.0
C1527 C 0.23176 0.18569 0.64594 0.0
C1528 C 0.2851 0.13756 0.65166 0.0
C1529 C 0.2915 0.14023 0.56533 0.0
C1530 C 0.26275 0.13785 0.67448 0.0
C1531 C 0.24655 0.1409 0.60945 0.0
C1532 C 0.25292 0.14254 0.52198 0.0
C1533 C 0.27522 0.14214 0.5011 0.0
C1534 C 0.2565 0.13574 0.76848 0.0
C1535 C 0.23626 0.14583 0.45061 0.0
H1536 H 0.17518 0.11788 0.67381 0.0
H1537 H 0.18979 0.18643 0.69892 0.0
H1538 H 0.2237 0.10332 0.55496 0.0
H1539 H 0.22602 0.09814 0.6684 0.0
H1540 H 0.20043 0.09283 0.61374 0.0
H1541 H 0.22345 0.20156 0.6587 0.0
H1542 H 0.24526 0.18369 0.6935 0.0
H1543 H 0.23927 0.18636 0.58069 0.0
H1544 H 0.29751 0.13587 0.7015 0.0
H1545 H 0.27988 0.14386 0.43382 0.0
H1546 H 0.24354 0.12313 0.77625 0.0
H1547 H 0.24969 0.15153 0.79184 0.0
H1548 H 0.27072 0.13128 0.80991 0.0
H1549 H 0.22296 0.1335 0.45536 0.0
H1550 H 0.24371 0.14468 0.38524 0.0
H1551 H 0.2286 0.16223 0.45741 0.0
C1552 C 0.59842 0.55792 0.59982 0.0
C1553 C 0.61493 0.57355 0.58702 0.0
C1554 C 0.60305 0.53747 0.63672 0.0
C1555 C 0.62483 0.53235 0.66098 0.0
C1556 C 0.64149 0.54838 0.65143 0.0
C1557 C 0.63632 0.56889 0.61472 0.0
C1558 C 0.58462 0.52119 0.64814 0.0
C1559 C 0.6649 0.54359 0.67674 0.0
C1560 C 0.62715 0.48658 0.82501 0.0
C1561 C 0.62973 0.46791 0.7725 0.0
C1562 C 0.62702 0.50773 0.79014 0.0
C1563 C 0.62956 0.51049 0.70003 0.0
C1564 C 0.63364 0.49188 0.64706 0.0
C1565 C 0.6337 0.47075 0.68408 0.0
C1566 C 0.62271 0.52699 0.84932 0.0
C1567 C 0.6368 0.49418 0.55073 0.0
H1568 H 0.58186 0.56147 0.57842 0.0
H1569 H 0.64922 0.58075 0.60339 0.0
H1570 H 0.58809 0.50611 0.61039 0.0
H1571 H 0.58332 0.51636 0.71713 0.0
H1572 H 0.56854 0.52785 0.62687 0.0
H1573 H 0.67552 0.55833 0.67184 0.0
H1574 H 0.66571 0.53727 0.74392 0.0
H1575 H 0.67157 0.53064 0.63379 0.0
H1576 H 0.62459 0.48466 0.89398 0.0
H1577 H 0.63584 0.45651 0.6434 0.0
H1578 H 0.60606 0.53356 0.83646 0.0
H1579 H 0.63454 0.54042 0.83683 0.0
H1580 H 0.62377 0.52241 0.91875 0.0
H1581 H 0.62098 0.49871 0.52003 0.0
H1582 H 0.64274 0.47874 0.52065 0.0
H1583 H 0.64865 0.50749 0.53658 0.0
C1584 C 0.30716 0.85192 0.18352 0.0
C1585 C 0.3216 0.86923 0.20081 0.0
C1586 C 0.28553 0.85588 0.15731 0.0
C1587 C 0.27797 0.87774 0.14974 0.0
C1588 C 0.29278 0.89533 0.16325 0.0
C1589 C 0.31456 0.89085 0.1879 0.0
C1590 C 0.27054 0.83661 0.14057 0.0
C1591 C 0.28535 0.91885 0.15632 0.0
C1592 C 0.22678 0.88276 0.01344 0.0
C1593 C 0.21006 0.88118 0.07566 0.0
C1594 C 0.24892 0.88298 0.03704 0.0
C1595 C 0.25467 0.88183 0.12543 0.0
C1596 C 0.23791 0.88191 0.18916 0.0
C1597 C 0.21572 0.88154 0.16346 0.0
C1598 C 0.26613 0.88285 0.96682 0.0
C1599 C 0.24343 0.88117 0.28428 0.0
H1600 H 0.31258 0.8352 0.19397 0.0
H1601 H 0.32558 0.90427 0.20294 0.0
H1602 H 0.25685 0.83674 0.18768 0.0
H1603 H 0.26325 0.83786 0.07492 0.0
H1604 H 0.27923 0.82067 0.14585 0.0
H1605 H 0.29924 0.93056 0.16145 0.0
H1606 H 0.27673 0.92168 0.09408 0.0
H1607 H 0.27352 0.92243 0.20887 0.0
H1608 H 0.22261 0.88297 0.94523 0.0
H1609 H 0.20294 0.88049 0.21174 0.0
H1610 H 0.27429 0.86659 0.9652 0.0
H1611 H 0.27898 0.89526 0.98025 0.0
H1612 H 0.25905 0.88613 0.90183 0.0
H1613 H 0.25017 0.8648 0.30076 0.0
H1614 H 0.22883 0.88423 0.32543 0.0
H1615 H 0.2562 0.8935 0.30001 0.0
C1616 C 0.61808 0.97915 0.5302 0.0
C1617 C 0.63522 0.96411 0.51965 0.0
C1618 C 0.62173 0.99999 0.56521 0.0
C1619 C 0.64312 0.00604 0.59196 0.0
C1620 C 0.66018 0.99022 0.58888 0.0
C1621 C 0.65605 0.9694 0.55208 0.0
C1622 C 0.60282 0.01599 0.56837 0.0
C1623 C 0.68305 0.99558 0.6193 0.0
C1624 C 0.64635 0.06752 0.5688 0.0
C1625 C 0.63745 0.07397 0.64823 0.0
C1626 C 0.65114 0.0453 0.55247 0.0
C1627 C 0.64714 0.02938 0.61751 0.0
C1628 C 0.6414 0.03644 0.70165 0.0
C1629 C 0.63631 0.05861 0.7157 0.0
C1630 C 0.65781 0.03861 0.46239 0.0
C1631 C 0.63808 0.02025 0.77419 0.0
H1632 H 0.60187 0.97504 0.5062 0.0
H1633 H 0.66942 0.95789 0.54377 0.0
H1634 H 0.60056 0.02216 0.63525 0.0
H1635 H 0.60639 0.03031 0.52646 0.0
H1636 H 0.58715 0.00852 0.54649 0.0
H1637 H 0.69205 0.9805 0.63838 0.0
H1638 H 0.69218 0.00346 0.56571 0.0
H1639 H 0.68288 0.00711 0.67485 0.0
H1640 H 0.64737 0.07932 0.51657 0.0
H1641 H 0.62975 0.06362 0.77782 0.0
H1642 H 0.64344 0.03148 0.42832 0.0
H1643 H 0.67077 0.02589 0.46478 0.0
H1644 H 0.66387 0.05278 0.42418 0.0
H1645 H 0.62171 0.0125 0.76739 0.0
H1646 H 0.63887 0.02839 0.83846 0.0
H1647 H 0.65056 0.00704 0.7718 0.0
C1648 C 0.2218 0.36336 0.75722 0.0
C1649 C 0.2078 0.37809 0.79889 0.0
C1650 C 0.24413 0.3682 0.74671 0.0
C1651 C 0.25282 0.38785 0.78205 0.0
C1652 C 0.23845 0.40336 0.81977 0.0
C1653 C 0.21601 0.39838 0.82668 0.0
C1654 C 0.25868 0.35157 0.70277 0.0
C1655 C 0.24698 0.42426 0.85981 0.0
C1656 C 0.31286 0.37904 0.83559 0.0
C1657 C 0.32276 0.38755 0.76137 0.0
C1658 C 0.2901 0.38113 0.84802 0.0
C1659 C 0.27705 0.39128 0.78319 0.0
C1660 C 0.28738 0.4017 0.71257 0.0
C1661 C 0.31015 0.39989 0.70313 0.0
C1662 C 0.2798 0.37061 0.92628 0.0
C1663 C 0.27427 0.4125 0.64147 0.0
H1664 H 0.21551 0.34749 0.73751 0.0
H1665 H 0.20529 0.40948 0.86146 0.0
H1666 H 0.26919 0.35969 0.65382 0.0
H1667 H 0.26965 0.34387 0.75132 0.0
H1668 H 0.24906 0.33843 0.67041 0.0
H1669 H 0.23357 0.4361 0.87318 0.0
H1670 H 0.25527 0.42033 0.92185 0.0
H1671 H 0.25925 0.43224 0.81742 0.0
H1672 H 0.32247 0.3691 0.87967 0.0
H1673 H 0.31783 0.40618 0.64494 0.0
H1674 H 0.27191 0.35496 0.90697 0.0
H1675 H 0.26691 0.38136 0.95375 0.0
H1676 H 0.29214 0.36704 0.97736 0.0
H1677 H 0.26662 0.39964 0.60051 0.0
H1678 H 0.28471 0.42296 0.59956 0.0
H1679 H 0.26087 0.42267 0.66847 0.0
C1680 C 0.86536 0.94884 0.19382 0.0
C1681 C 0.86274 0.93172 0.13388 0.0
C1682 C 0.86119 0.9707 0.17057 0.0
C1683 C 0.85463 0.97556 0.0849 0.0
C1684 C 0.84903 0.95809 0.02827 0.0
C1685 C 0.85309 0.93629 0.05359 0.0
C1686 C 0.8664 0.98867 0.23448 0.0
C1687 C 0.84132 0.96249 0.93719 0.0
C1688 C 0.8469 0.03406 0.00026 0.0
C1689 C 0.8674 0.03789 0.96211 0.0
C1690 C 0.84257 0.01427 0.04437 0.0
C1691 C 0.85901 0.99786 0.0487 0.0
C1692 C 0.88008 1.00231 0.01452 0.0
C1693 C 0.88399 0.02222 0.97229 0.0
C1694 C 0.82009 0.01062 0.08197 0.0
C1695 C 0.89835 0.98561 0.01883 0.0
H1696 H 0.87247 0.94537 0.2567 0.0
H1697 H 0.85089 0.92315 0.00711 0.0
H1698 H 0.8832 0.99488 0.22224 0.0
H1699 H 0.85489 1.00261 0.22722 0.0
H1700 H 0.8657 0.98261 0.30219 0.0
H1701 H 0.83399 0.94766 0.90699 0.0
H1702 H 0.82906 0.9759 0.93632 0.0
H1703 H 0.85548 0.96776 0.89728 0.0
H1704 H 0.83387 0.04592 0.99163 0.0
H1705 H 0.89993 0.02514 0.94369 0.0
H1706 H 0.82086 1.00079 0.14225 0.0
H1707 H 0.80992 1.0015 0.03449 0.0
H1708 H 0.81179 0.02643 0.09614 0.0
H1709 H 0.90148 0.98085 0.08698 0.0
H1710 H 0.9139 0.99186 0.99081 0.0
H1711 H 0.89351 0.97059 0.98303 0.0
C1712 C 0.20039 0.65146 0.27656 0.0
C1713 C 0.18724 0.63745 0.2272 0.0
C1714 C 0.22283 0.64712 0.28779 0.0
C1715 C 0.23246 0.62896 0.24479 0.0
C1716 C 0.21893 0.6141 0.19889 0.0
C1717 C 0.19637 0.61833 0.19207 0.0
C1718 C 0.23647 0.66282 0.34088 0.0
C1719 C 0.22849 0.59495 0.1499 0.0
C1720 C 0.29217 0.64132 0.19714 0.0
C1721 C 0.30253 0.63019 0.26473 0.0
C1722 C 0.26941 0.63928 0.18438 0.0
C1723 C 0.2568 0.62666 0.24324 0.0
C1724 C 0.26756 0.61406 0.30724 0.0
C1725 C 0.29037 0.61572 0.31615 0.0
C1726 C 0.25868 0.65213 0.11254 0.0
C1727 C 0.25487 0.60081 0.3727 0.0
H1728 H 0.19338 0.66645 0.30214 0.0
H1729 H 0.18628 0.60786 0.15153 0.0
H1730 H 0.24745 0.65367 0.38538 0.0
H1731 H 0.24696 0.67274 0.2974 0.0
H1732 H 0.22615 0.67415 0.37961 0.0
H1733 H 0.21564 0.58317 0.1289 0.0
H1734 H 0.23702 0.60115 0.09149 0.0
H1735 H 0.24078 0.58611 0.18956 0.0
H1736 H 0.30152 0.65281 0.15849 0.0
H1737 H 0.2984 0.60754 0.36989 0.0
H1738 H 0.25037 0.66672 0.14005 0.0
H1739 H 0.24605 0.64205 0.07942 0.0
H1740 H 0.27081 0.6578 0.06392 0.0
H1741 H 0.24698 0.61213 0.41945 0.0
H1742 H 0.26563 0.58941 0.40931 0.0
H1743 H 0.24166 0.59121 0.34111 0.0
C1744 C 0.40901 0.96387 0.47092 0.0
C1745 C 0.3935 0.94773 0.45088 0.0
C1746 C 0.40253 0.9852 0.49254 0.0
C1747 C 0.37996 0.99061 0.49241 0.0
C1748 C 0.36415 0.97396 0.47839 0.0
C1749 C 0.37114 0.95257 0.45859 0.0
C1750 C 0.41992 1.00225 0.51034 0.0
C1751 C 0.33995 0.97903 0.47761 0.0
C1752 C 0.36726 0.04453 0.60172 0.0
C1753 C 0.36858 0.05941 0.53238 0.0
C1754 C 0.3697 0.02195 0.58905 0.0
C1755 C 0.37326 0.01388 0.50467 0.0
C1756 C 0.37291 0.02857 0.4334 0.0
C1757 C 0.37062 0.05126 0.4481 0.0
C1758 C 0.37 0.00696 0.66685 0.0
C1759 C 0.37616 0.02044 0.34213 0.0
H1760 H 0.42631 0.96012 0.4645 0.0
H1761 H 0.35912 0.94019 0.4416 0.0
H1762 H 0.4199 0.01462 0.45776 0.0
H1763 H 0.41636 0.01099 0.57171 0.0
H1764 H 0.43657 0.99499 0.51481 0.0
H1765 H 0.32981 0.96391 0.47801 0.0
H1766 H 0.33538 0.98928 0.53404 0.0
H1767 H 0.33593 0.98853 0.41845 0.0
H1768 H 0.36526 0.0506 0.66717 0.0
H1769 H 0.37148 0.0626 0.39426 0.0
H1770 H 0.38693 1.00091 0.6777 0.0
H1771 H 0.35944 0.99243 0.65572 0.0
H1772 H 0.36442 0.0154 0.7266 0.0
H1773 H 0.39333 0.01482 0.33403 0.0
H1774 H 0.37279 0.03339 0.2934 0.0
H1775 H 0.36532 0.00621 0.32903 0.0
C1776 C 0.78928 0.61503 0.22873 0.0
C1777 C 0.7936 0.61725 0.14031 0.0
C1778 C 0.76783 0.61747 0.26059 0.0
C1779 C 0.75044 0.62228 0.20244 0.0
C1780 C 0.75451 0.62288 0.11262 0.0
C1781 C 0.77598 0.6203 0.08274 0.0
C1782 C 0.76401 0.61623 0.35687 0.0
C1783 C 0.73651 0.62789 0.04833 0.0
C1784 C 0.69172 0.62207 0.28541 0.0
C1785 C 0.6893 0.64401 0.3107 0.0
C1786 C 0.71141 0.61469 0.24833 0.0
C1787 C 0.72883 0.6297 0.23574 0.0
C1788 C 0.72579 0.65214 0.25564 0.0
C1789 C 0.70612 0.65898 0.29344 0.0
C1790 C 0.71397 0.59065 0.22766 0.0
C1791 C 0.74365 0.66885 0.24039 0.0
H1792 H 0.80271 0.61245 0.2733 0.0
H1793 H 0.77904 0.62159 0.01386 0.0
H1794 H 0.76042 0.63286 0.38226 0.0
H1795 H 0.74959 0.60574 0.37096 0.0
H1796 H 0.77848 0.60963 0.392 0.0
H1797 H 0.74163 0.62459 0.98063 0.0
H1798 H 0.72164 0.61808 0.06244 0.0
H1799 H 0.7319 0.64543 0.05359 0.0
H1800 H 0.67887 0.61039 0.3 0.0
H1801 H 0.70422 0.67595 0.31292 0.0
H1802 H 0.72511 0.58305 0.27586 0.0
H1803 H 0.72147 0.58834 0.16301 0.0
H1804 H 0.69803 0.58184 0.22922 0.0
H1805 H 0.75803 0.66502 0.28175 0.0
H1806 H 0.7382 0.68582 0.255 0.0
H1807 H 0.74917 0.66818 0.17209 0.0
C1808 C 0.12608 0.05771 0.94393 0.0
C1809 C 0.12994 0.067 0.8628 0.0
C1810 C 0.13015 0.03527 0.9578 0.0
C1811 C 0.13807 0.02212 0.88866 0.0
C1812 C 0.14414 0.03209 0.80991 0.0
C1813 C 0.1401 0.05444 0.79819 0.0
C1814 C 0.12413 0.02528 0.04375 0.0
C1815 C 0.15268 0.01881 0.73466 0.0
C1816 C 0.15145 0.9623 0.93331 0.0
C1817 C 0.13101 0.95252 0.9187 0.0
C1818 C 0.15435 0.98496 0.92159 0.0
C1819 C 0.13643 0.99784 0.89322 0.0
C1820 C 0.11634 0.98757 0.87115 0.0
C1821 C 0.11379 0.96505 0.88536 0.0
C1822 C 0.17595 0.99526 0.94645 0.0
C1823 C 0.09703 1.00058 0.83786 0.0
H1824 H 0.11826 0.06741 0.99383 0.0
H1825 H 0.14341 0.06177 0.73564 0.0
H1826 H 0.10861 0.01595 0.03677 0.0
H1827 H 0.13698 0.01363 0.06535 0.0
H1828 H 0.12182 0.03797 0.09455 0.0
H1829 H 0.1599 0.02938 0.68361 0.0
H1830 H 0.16524 0.00689 0.75639 0.0
H1831 H 0.13898 0.00934 0.7056 0.0
H1832 H 0.16455 0.95264 0.9616 0.0
H1833 H 0.09789 0.95746 0.87582 0.0
H1834 H 0.17408 0.00385 0.00932 0.0
H1835 H 0.18108 0.00765 0.89807 0.0
H1836 H 0.18915 0.98284 0.95322 0.0
H1837 H 0.09105 0.01175 0.88933 0.0
H1838 H 0.08324 0.98987 0.81727 0.0
H1839 H 0.10202 0.01085 0.78209 0.0
C1840 C 0.71793 0.41217 0.96646 0.0
C1841 C 0.70881 0.39128 0.97805 0.0
C1842 C 0.74076 0.41538 0.9728 0.0
C1843 C 0.75452 0.39728 0.99148 0.0
C1844 C 0.74489 0.37707 0.01604 0.0
C1845 C 0.72215 0.3743 0.00853 0.0
C1846 C 0.75018 0.43741 0.94913 0.0
C1847 C 0.75877 0.35742 0.03897 0.0
C1848 C 0.8057 0.38328 0.86733 0.0
C1849 C 0.82155 0.38395 0.93269 0.0
C1850 C 0.78413 0.39012 0.88308 0.0
C1851 C 0.77822 0.39751 0.96692 0.0
C1852 C 0.79484 0.40071 0.0299 0.0
C1853 C 0.81641 0.39379 0.01205 0.0
C1854 C 0.76718 0.3869 0.81285 0.0
C1855 C 0.78955 0.40915 0.1191 0.0
H1856 H 0.70767 0.42532 0.94217 0.0
H1857 H 0.71509 0.35813 0.01723 0.0
H1858 H 0.76536 0.44091 0.98633 0.0
H1859 H 0.75441 0.43747 0.87935 0.0
H1860 H 0.73816 0.45076 0.96077 0.0
H1861 H 0.74888 0.34405 0.06816 0.0
H1862 H 0.7667 0.35098 0.97958 0.0
H1863 H 0.77193 0.36208 0.08501 0.0
H1864 H 0.80967 0.37546 0.80628 0.0
H1865 H 0.82862 0.39406 0.06311 0.0
H1866 H 0.75646 0.40151 0.80754 0.0
H1867 H 0.75664 0.37267 0.8293 0.0
H1868 H 0.7748 0.38378 0.74879 0.0
H1869 H 0.77589 0.42113 0.11742 0.0
H1870 H 0.8041 0.417 0.14943 0.0
H1871 H 0.78449 0.39523 0.16065 0.0
loop_
_geom_bond_atom_site_label_1
_geom_bond_atom_site_label_2
_geom_bond_distance
_geom_bond_site_symmetry_2
_ccdc_geom_bond_type
Zn0 O6 1.920 . S
Zn0 O12 1.898 . S
Zn0 O15 1.905 . S
Zn1 O9 1.905 . S
Zn1 O10 1.898 . S
Zn1 O18 1.920 1_554 S
Zn2 O5 2.080 . S
Zn2 O8 2.114 . S
Zn2 O11 2.120 . S
Zn2 O13 2.120 . S
Zn2 O14 2.114 . S
Zn2 O17 2.080 1_554 S
C3 O8 1.166 . S
C3 O9 1.182 . S
C4 O10 1.167 . S
C4 O11 1.299 . S
O5 Zn2 2.080 . S
O5 C19 1.305 . S
O6 Zn0 1.920 . S
O6 C19 1.234 . S
C7 O12 1.167 . S
C7 O13 1.299 . S
O8 Zn2 2.114 . S
O8 C3 1.166 . S
O9 Zn1 1.905 . S
O9 C3 1.182 . S
O10 Zn1 1.898 . S
O10 C4 1.167 . S
O11 Zn2 2.120 . S
O11 C4 1.299 . S
O12 Zn0 1.898 . S
O12 C7 1.167 . S
O13 Zn2 2.120 . S
O13 C7 1.299 . S
O14 Zn2 2.114 . S
O14 C16 1.166 . S
O15 Zn0 1.905 . S
O15 C16 1.182 . S
C16 O14 1.166 . S
C16 O15 1.182 . S
O17 Zn2 2.080 1_556 S
O17 C20 1.305 . S
O18 Zn1 1.920 1_556 S
O18 C20 1.234 . S
C19 O5 1.305 . S
C19 O6 1.234 . S
C20 O17 1.305 . S
C20 O18 1.234 . S
Zn21 O27 1.920 . S
Zn21 O33 1.898 . S
Zn21 O36 1.905 . S
Zn22 O30 1.905 . S
Zn22 O31 1.898 . S
Zn22 O39 1.920 . S
Zn23 O26 2.080 . S
Zn23 O29 2.114 . S
Zn23 O32 2.120 . S
Zn23 O34 2.120 . S
Zn23 O35 2.114 . S
Zn23 O38 2.080 . S
C24 O29 1.166 . S
C24 O30 1.182 . S
C25 O31 1.167 . S
C25 O32 1.299 . S
O26 Zn23 2.080 . S
O26 C40 1.305 . S
O27 Zn21 1.920 . S
O27 C40 1.234 . S
C28 O33 1.167 . S
C28 O34 1.299 . S
O29 Zn23 2.114 . S
O29 C24 1.166 . S
O30 Zn22 1.905 . S
O30 C24 1.182 . S
O31 Zn22 1.898 . S
O31 C25 1.167 . S
O32 Zn23 2.120 . S
O32 C25 1.299 . S
O33 Zn21 1.898 . S
O33 C28 1.167 . S
O34 Zn23 2.120 . S
O34 C28 1.299 . S
O35 Zn23 2.114 . S
O35 C37 1.166 . S
O36 Zn21 1.905 . S
O36 C37 1.182 . S
C37 O35 1.166 . S
C37 O36 1.182 . S
O38 Zn23 2.080 . S
O38 C41 1.305 . S
O39 Zn22 1.920 . S
O39 C41 1.234 . S
C40 O26 1.305 . S
C40 O27 1.234 . S
C41 O38 1.305 . S
C41 O39 1.234 . S
Zn42 O48 1.920 . S
Zn42 O54 1.898 . S
Zn42 O57 1.905 . S
Zn43 O51 1.905 . S
Zn43 O52 1.898 . S
Zn43 O60 1.920 . S
Zn44 O47 2.080 . S
Zn44 O50 2.114 . S
Zn44 O53 2.120 . S
Zn44 O55 2.120 . S
Zn44 O56 2.114 . S
Zn44 O59 2.080 . S
C45 O50 1.166 . S
C45 O51 1.182 . S
C46 O52 1.167 . S
C46 O53 1.299 . S
O47 Zn44 2.080 . S
O47 C61 1.305 . S
O48 Zn42 1.920 . S
O48 C61 1.234 . S
C49 O54 1.167 . S
C49 O55 1.299 . S
O50 Zn44 2.114 . S
O50 C45 1.166 . S
O51 Zn43 1.905 . S
O51 C45 1.182 . S
O52 Zn43 1.898 . S
O52 C46 1.167 . S
O53 Zn44 2.120 . S
O53 C46 1.299 . S
O54 Zn42 1.898 . S
O54 C49 1.167 . S
O55 Zn44 2.120 . S
O55 C49 1.299 . S
O56 Zn44 2.114 . S
O56 C58 1.166 . S
O57 Zn42 1.905 . S
O57 C58 1.182 . S
C58 O56 1.166 . S
C58 O57 1.182 . S
O59 Zn44 2.080 . S
O59 C62 1.305 . S
O60 Zn43 1.920 . S
O60 C62 1.234 . S
C61 O47 1.305 . S
C61 O48 1.234 . S
C62 O59 1.305 . S
C62 O60 1.234 . S
Zn63 O69 1.920 1_556 S
Zn63 O75 1.898 . S
Zn63 O78 1.905 . S
Zn64 O72 1.905 . S
Zn64 O73 1.898 . S
Zn64 O81 1.920 . S
Zn65 O68 2.080 1_556 S
Zn65 O71 2.114 . S
Zn65 O74 2.120 . S
Zn65 O76 2.120 . S
Zn65 O77 2.114 . S
Zn65 O80 2.080 . S
C66 O71 1.166 . S
C66 O72 1.182 . S
C67 O73 1.167 . S
C67 O74 1.299 . S
O68 Zn65 2.080 1_554 S
O68 C82 1.305 . S
O69 Zn63 1.920 1_554 S
O69 C82 1.234 . S
C70 O75 1.167 . S
C70 O76 1.299 . S
O71 Zn65 2.114 . S
O71 C66 1.166 . S
O72 Zn64 1.905 . S
O72 C66 1.182 . S
O73 Zn64 1.898 . S
O73 C67 1.167 . S
O74 Zn65 2.120 . S
O74 C67 1.299 . S
O75 Zn63 1.898 . S
O75 C70 1.167 . S
O76 Zn65 2.120 . S
O76 C70 1.299 . S
O77 Zn65 2.114 . S
O77 C79 1.166 . S
O78 Zn63 1.905 . S
O78 C79 1.182 . S
C79 O77 1.166 . S
C79 O78 1.182 . S
O80 Zn65 2.080 . S
O80 C83 1.305 . S
O81 Zn64 1.920 . S
O81 C83 1.234 . S
C82 O68 1.305 . S
C82 O69 1.234 . S
C83 O80 1.305 . S
C83 O81 1.234 . S
Zn84 O90 1.920 . S
Zn84 O96 1.898 . S
Zn84 O99 1.905 . S
Zn85 O93 1.905 1_556 S
Zn85 O94 1.898 . S
Zn85 O102 1.920 . S
Zn86 O89 2.080 . S
Zn86 O92 2.114 1_556 S
Zn86 O95 2.120 . S
Zn86 O97 2.120 . S
Zn86 O98 2.114 . S
Zn86 O101 2.080 . S
C87 O92 1.166 . S
C87 O93 1.182 . S
C88 O94 1.167 . S
C88 O95 1.299 . S
O89 Zn86 2.080 . S
O89 C103 1.305 . S
O90 Zn84 1.920 . S
O90 C103 1.234 . S
C91 O96 1.167 . S
C91 O97 1.299 . S
O92 Zn86 2.114 1_554 S
O92 C87 1.166 . S
O93 Zn85 1.905 1_554 S
O93 C87 1.182 . S
O94 Zn85 1.898 . S
O94 C88 1.167 . S
O95 Zn86 2.120 . S
O95 C88 1.299 . S
O96 Zn84 1.898 . S
O96 C91 1.167 . S
O97 Zn86 2.120 . S
O97 C91 1.299 . S
O98 Zn86 2.114 . S
O98 C100 1.166 . S
O99 Zn84 1.905 . S
O99 C100 1.182 . S
C100 O98 1.166 . S
C100 O99 1.182 . S
O101 Zn86 2.080 . S
O101 C104 1.305 . S
O102 Zn85 1.920 . S
O102 C104 1.234 . S
C103 O89 1.305 . S
C103 O90 1.234 . S
C104 O101 1.305 . S
C104 O102 1.234 . S
Zn105 O111 1.920 . S
Zn105 O117 1.898 . S
Zn105 O120 1.905 . S
Zn106 O114 1.905 1_554 S
Zn106 O115 1.898 . S
Zn106 O123 1.920 . S
Zn107 O110 2.080 . S
Zn107 O113 2.114 1_554 S
Zn107 O116 2.120 . S
Zn107 O118 2.120 . S
Zn107 O119 2.114 . S
Zn107 O122 2.080 . S
C108 O113 1.166 . S
C108 O114 1.182 . S
C109 O115 1.167 . S
C109 O116 1.299 . S
O110 Zn107 2.080 . S
O110 C124 1.305 . S
O111 Zn105 1.920 . S
O111 C124 1.234 . S
C112 O117 1.167 . S
C112 O118 1.299 . S
O113 Zn107 2.114 1_556 S
O113 C108 1.166 . S
O114 Zn106 1.905 1_556 S
O114 C108 1.182 . S
O115 Zn106 1.898 . S
O115 C109 1.167 . S
O116 Zn107 2.120 . S
O116 C109 1.299 . S
O117 Zn105 1.898 . S
O117 C112 1.167 . S
O118 Zn107 2.120 . S
O118 C112 1.299 . S
O119 Zn107 2.114 . S
O119 C121 1.166 . S
O120 Zn105 1.905 . S
O120 C121 1.182 . S
C121 O119 1.166 . S
C121 O120 1.182 . S
O122 Zn107 2.080 . S
O122 C125 1.305 . S
O123 Zn106 1.920 . S
O123 C125 1.234 . S
C124 O110 1.305 . S
C124 O111 1.234 . S
C125 O122 1.305 . S
C125 O123 1.234 . S
Zn126 O132 1.920 . S
Zn126 O138 1.898 . S
Zn126 O141 1.905 . S
Zn127 O135 1.905 . S
Zn127 O136 1.898 . S
Zn127 O144 1.920 . S
Zn128 O131 2.080 . S
Zn128 O134 2.114 . S
Zn128 O137 2.120 . S
Zn128 O139 2.120 . S
Zn128 O140 2.114 . S
Zn128 O143 2.080 . S
C129 O134 1.166 . S
C129 O135 1.182 . S
C130 O136 1.167 . S
C130 O137 1.299 . S
O131 Zn128 2.080 . S
O131 C145 1.305 . S
O132 Zn126 1.920 . S
O132 C145 1.234 . S
C133 O138 1.167 . S
C133 O139 1.299 . S
O134 Zn128 2.114 . S
O134 C129 1.166 . S
O135 Zn127 1.905 . S
O135 C129 1.182 . S
O136 Zn127 1.898 . S
O136 C130 1.167 . S
O137 Zn128 2.120 . S
O137 C130 1.299 . S
O138 Zn126 1.898 . S
O138 C133 1.167 . S
O139 Zn128 2.120 . S
O139 C133 1.299 . S
O140 Zn128 2.114 . S
O140 C142 1.166 . S
O141 Zn126 1.905 . S
O141 C142 1.182 . S
C142 O140 1.166 . S
C142 O141 1.182 . S
O143 Zn128 2.080 . S
O143 C146 1.305 . S
O144 Zn127 1.920 . S
O144 C146 1.234 . S
C145 O131 1.305 . S
C145 O132 1.234 . S
C146 O143 1.305 . S
C146 O144 1.234 . S
Zn147 O153 1.920 . S
Zn147 O159 1.898 . S
Zn147 O162 1.905 . S
Zn148 O156 1.905 . S
Zn148 O157 1.898 . S
Zn148 O165 1.920 . S
Zn149 O152 2.080 . S
Zn149 O155 2.114 . S
Zn149 O158 2.120 . S
Zn149 O160 2.120 . S
Zn149 O161 2.114 . S
Zn149 O164 2.080 . S
C150 O155 1.166 . S
C150 O156 1.182 . S
C151 O157 1.167 . S
C151 O158 1.299 . S
O152 Zn149 2.080 . S
O152 C166 1.305 . S
O153 Zn147 1.920 . S
O153 C166 1.234 . S
C154 O159 1.167 . S
C154 O160 1.299 . S
O155 Zn149 2.114 . S
O155 C150 1.166 . S
O156 Zn148 1.905 . S
O156 C150 1.182 . S
O157 Zn148 1.898 . S
O157 C151 1.167 . S
O158 Zn149 2.120 . S
O158 C151 1.299 . S
O159 Zn147 1.898 . S
O159 C154 1.167 . S
O160 Zn149 2.120 . S
O160 C154 1.299 . S
O161 Zn149 2.114 . S
O161 C163 1.166 . S
O162 Zn147 1.905 . S
O162 C163 1.182 . S
C163 O161 1.166 . S
C163 O162 1.182 . S
O164 Zn149 2.080 . S
O164 C167 1.305 . S
O165 Zn148 1.920 . S
O165 C167 1.234 . S
C166 O152 1.305 . S
C166 O153 1.234 . S
C167 O164 1.305 . S
C167 O165 1.234 . S
Zn168 O174 1.920 . S
Zn168 O180 1.898 . S
Zn168 O183 1.905 . S
Zn169 O177 1.905 1_556 S
Zn169 O178 1.898 . S
Zn169 O186 1.920 . S
Zn170 O173 2.080 . S
Zn170 O176 2.114 1_556 S
Zn170 O179 2.120 . S
Zn170 O181 2.120 . S
Zn170 O182 2.114 . S
Zn170 O185 2.080 . S
C171 O176 1.166 . S
C171 O177 1.182 . S
C172 O178 1.167 . S
C172 O179 1.299 . S
O173 Zn170 2.080 . S
O173 C187 1.305 . S
O174 Zn168 1.920 . S
O174 C187 1.234 . S
C175 O180 1.167 . S
C175 O181 1.299 . S
O176 Zn170 2.114 1_554 S
O176 C171 1.166 . S
O177 Zn169 1.905 1_554 S
O177 C171 1.182 . S
O178 Zn169 1.898 . S
O178 C172 1.167 . S
O179 Zn170 2.120 . S
O179 C172 1.299 . S
O180 Zn168 1.898 . S
O180 C175 1.167 . S
O181 Zn170 2.120 . S
O181 C175 1.299 . S
O182 Zn170 2.114 . S
O182 C184 1.166 . S
O183 Zn168 1.905 . S
O183 C184 1.182 . S
C184 O182 1.166 . S
C184 O183 1.182 . S
O185 Zn170 2.080 . S
O185 C188 1.305 . S
O186 Zn169 1.920 . S
O186 C188 1.234 . S
C187 O173 1.305 . S
C187 O174 1.234 . S
C188 O185 1.305 . S
C188 O186 1.234 . S
Zn189 O195 1.920 . S
Zn189 O201 1.898 . S
Zn189 O204 1.905 . S
Zn190 O198 1.905 . S
Zn190 O199 1.898 . S
Zn190 O207 1.920 . S
Zn191 O194 2.080 . S
Zn191 O197 2.114 . S
Zn191 O200 2.120 . S
Zn191 O202 2.120 . S
Zn191 O203 2.114 . S
Zn191 O206 2.080 . S
C192 O197 1.166 . S
C192 O198 1.182 . S
C193 O199 1.167 . S
C193 O200 1.299 . S
O194 Zn191 2.080 . S
O194 C208 1.305 . S
O195 Zn189 1.920 . S
O195 C208 1.234 . S
C196 O201 1.167 . S
C196 O202 1.299 . S
O197 Zn191 2.114 . S
O197 C192 1.166 . S
O198 Zn190 1.905 . S
O198 C192 1.182 . S
O199 Zn190 1.898 . S
O199 C193 1.167 . S
O200 Zn191 2.120 . S
O200 C193 1.299 . S
O201 Zn189 1.898 . S
O201 C196 1.167 . S
O202 Zn191 2.120 . S
O202 C196 1.299 . S
O203 Zn191 2.114 . S
O203 C205 1.166 . S
O204 Zn189 1.905 . S
O204 C205 1.182 . S
C205 O203 1.166 . S
C205 O204 1.182 . S
O206 Zn191 2.080 . S
O206 C209 1.305 . S
O207 Zn190 1.920 . S
O207 C209 1.234 . S
C208 O194 1.305 . S
C208 O195 1.234 . S
C209 O206 1.305 . S
C209 O207 1.234 . S
Zn210 O216 1.920 . S
Zn210 O222 1.898 . S
Zn210 O225 1.905 . S
Zn211 O219 1.905 . S
Zn211 O220 1.898 . S
Zn211 O228 1.920 . S
Zn212 O215 2.080 . S
Zn212 O218 2.114 . S
Zn212 O221 2.120 . S
Zn212 O223 2.120 . S
Zn212 O224 2.114 . S
Zn212 O227 2.080 . S
C213 O218 1.166 . S
C213 O219 1.182 . S
C214 O220 1.167 . S
C214 O221 1.299 . S
O215 Zn212 2.080 . S
O215 C229 1.305 . S
O216 Zn210 1.920 . S
O216 C229 1.234 . S
C217 O222 1.167 . S
C217 O223 1.299 . S
O218 Zn212 2.114 . S
O218 C213 1.166 . S
O219 Zn211 1.905 . S
O219 C213 1.182 . S
O220 Zn211 1.898 . S
O220 C214 1.167 . S
O221 Zn212 2.120 . S
O221 C214 1.299 . S
O222 Zn210 1.898 . S
O222 C217 1.167 . S
O223 Zn212 2.120 . S
O223 C217 1.299 . S
O224 Zn212 2.114 . S
O224 C226 1.166 . S
O225 Zn210 1.905 . S
O225 C226 1.182 . S
C226 O224 1.166 . S
C226 O225 1.182 . S
O227 Zn212 2.080 . S
O227 C230 1.305 . S
O228 Zn211 1.920 . S
O228 C230 1.234 . S
C229 O215 1.305 . S
C229 O216 1.234 . S
C230 O227 1.305 . S
C230 O228 1.234 . S
Zn231 O237 1.920 . S
Zn231 O243 1.898 . S
Zn231 O246 1.905 1_554 S
Zn232 O240 1.905 . S
Zn232 O241 1.898 . S
Zn232 O249 1.920 . S
Zn233 O236 2.080 . S
Zn233 O239 2.114 . S
Zn233 O242 2.120 . S
Zn233 O244 2.120 . S
Zn233 O245 2.114 1_554 S
Zn233 O248 2.080 . S
C234 O239 1.166 . S
C234 O240 1.182 . S
C235 O241 1.167 . S
C235 O242 1.299 . S
O236 Zn233 2.080 . S
O236 C250 1.305 . S
O237 Zn231 1.920 . S
O237 C250 1.234 . S
C238 O243 1.167 . S
C238 O244 1.299 . S
O239 Zn233 2.114 . S
O239 C234 1.166 . S
O240 Zn232 1.905 . S
O240 C234 1.182 . S
O241 Zn232 1.898 . S
O241 C235 1.167 . S
O242 Zn233 2.120 . S
O242 C235 1.299 . S
O243 Zn231 1.898 . S
O243 C238 1.167 . S
O244 Zn233 2.120 . S
O244 C238 1.299 . S
O245 Zn233 2.114 1_556 S
O245 C247 1.166 . S
O246 Zn231 1.905 1_556 S
O246 C247 1.182 . S
C247 O245 1.166 . S
C247 O246 1.182 . S
O248 Zn233 2.080 . S
O248 C251 1.305 . S
O249 Zn232 1.920 . S
O249 C251 1.234 . S
C250 O236 1.305 . S
C250 O237 1.234 . S
C251 O248 1.305 . S
C251 O249 1.234 . S
Zn252 O258 1.920 . S
Zn252 O264 1.898 . S
Zn252 O267 1.905 1_554 S
Zn253 O261 1.905 . S
Zn253 O262 1.898 . S
Zn253 O270 1.920 . S
Zn254 O257 2.080 . S
Zn254 O260 2.114 . S
Zn254 O263 2.120 . S
Zn254 O265 2.120 . S
Zn254 O266 2.114 1_554 S
Zn254 O269 2.080 . S
C255 O260 1.166 . S
C255 O261 1.182 . S
C256 O262 1.167 . S
C256 O263 1.299 . S
O257 Zn254 2.080 . S
O257 C271 1.305 . S
O258 Zn252 1.920 . S
O258 C271 1.234 . S
C259 O264 1.167 . S
C259 O265 1.299 . S
O260 Zn254 2.114 . S
O260 C255 1.166 . S
O261 Zn253 1.905 . S
O261 C255 1.182 . S
O262 Zn253 1.898 . S
O262 C256 1.167 . S
O263 Zn254 2.120 . S
O263 C256 1.299 . S
O264 Zn252 1.898 . S
O264 C259 1.167 . S
O265 Zn254 2.120 . S
O265 C259 1.299 . S
O266 Zn254 2.114 1_556 S
O266 C268 1.166 . S
O267 Zn252 1.905 1_556 S
O267 C268 1.182 . S
C268 O266 1.166 . S
C268 O267 1.182 . S
O269 Zn254 2.080 . S
O269 C272 1.305 . S
O270 Zn253 1.920 . S
O270 C272 1.234 . S
C271 O257 1.305 . S
C271 O258 1.234 . S
C272 O269 1.305 . S
C272 O270 1.234 . S
Zn273 O279 1.920 . S
Zn273 O285 1.898 . S
Zn273 O288 1.905 . S
Zn274 O282 1.905 . S
Zn274 O283 1.898 . S
Zn274 O291 1.920 1_556 S
Zn275 O278 2.080 . S
Zn275 O281 2.114 . S
Zn275 O284 2.120 . S
Zn275 O286 2.120 . S
Zn275 O287 2.114 . S
Zn275 O290 2.080 1_556 S
C276 O281 1.166 . S
C276 O282 1.182 . S
C277 O283 1.167 . S
C277 O284 1.299 . S
O278 Zn275 2.080 . S
O278 C292 1.305 . S
O279 Zn273 1.920 . S
O279 C292 1.234 . S
C280 O285 1.167 . S
C280 O286 1.299 . S
O281 Zn275 2.114 . S
O281 C276 1.166 . S
O282 Zn274 1.905 . S
O282 C276 1.182 . S
O283 Zn274 1.898 . S
O283 C277 1.167 . S
O284 Zn275 2.120 . S
O284 C277 1.299 . S
O285 Zn273 1.898 . S
O285 C280 1.167 . S
O286 Zn275 2.120 . S
O286 C280 1.299 . S
O287 Zn275 2.114 . S
O287 C289 1.166 . S
O288 Zn273 1.905 . S
O288 C289 1.182 . S
C289 O287 1.166 . S
C289 O288 1.182 . S
O290 Zn275 2.080 1_554 S
O290 C293 1.305 . S
O291 Zn274 1.920 1_554 S
O291 C293 1.234 . S
C292 O278 1.305 . S
C292 O279 1.234 . S
C293 O290 1.305 . S
C293 O291 1.234 . S
Zn294 O300 1.920 . S
Zn294 O306 1.898 . S
Zn294 O309 1.905 . S
Zn295 O303 1.905 . S
Zn295 O304 1.898 . S
Zn295 O312 1.920 . S
Zn296 O299 2.080 . S
Zn296 O302 2.114 . S
Zn296 O305 2.120 . S
Zn296 O307 2.120 . S
Zn296 O308 2.114 . S
Zn296 O311 2.080 . S
C297 O302 1.166 . S
C297 O303 1.182 . S
C298 O304 1.167 . S
C298 O305 1.299 . S
O299 Zn296 2.080 . S
O299 C313 1.305 . S
O300 Zn294 1.920 . S
O300 C313 1.234 . S
C301 O306 1.167 . S
C301 O307 1.299 . S
O302 Zn296 2.114 . S
O302 C297 1.166 . S
O303 Zn295 1.905 . S
O303 C297 1.182 . S
O304 Zn295 1.898 . S
O304 C298 1.167 . S
O305 Zn296 2.120 . S
O305 C298 1.299 . S
O306 Zn294 1.898 . S
O306 C301 1.167 . S
O307 Zn296 2.120 . S
O307 C301 1.299 . S
O308 Zn296 2.114 . S
O308 C310 1.166 . S
O309 Zn294 1.905 . S
O309 C310 1.182 . S
C310 O308 1.166 . S
C310 O309 1.182 . S
O311 Zn296 2.080 . S
O311 C314 1.305 . S
O312 Zn295 1.920 . S
O312 C314 1.234 . S
C313 O299 1.305 . S
C313 O300 1.234 . S
C314 O311 1.305 . S
C314 O312 1.234 . S
Zn315 O321 1.920 . S
Zn315 O327 1.898 . S
Zn315 O330 1.905 . S
Zn316 O324 1.905 . S
Zn316 O325 1.898 . S
Zn316 O333 1.920 . S
Zn317 O320 2.080 . S
Zn317 O323 2.114 . S
Zn317 O326 2.120 . S
Zn317 O328 2.120 . S
Zn317 O329 2.114 . S
Zn317 O332 2.080 . S
C318 O323 1.166 . S
C318 O324 1.182 . S
C319 O325 1.167 . S
C319 O326 1.299 . S
O320 Zn317 2.080 . S
O320 C334 1.305 . S
O321 Zn315 1.920 . S
O321 C334 1.234 . S
C322 O327 1.167 . S
C322 O328 1.299 . S
O323 Zn317 2.114 . S
O323 C318 1.166 . S
O324 Zn316 1.905 . S
O324 C318 1.182 . S
O325 Zn316 1.898 . S
O325 C319 1.167 . S
O326 Zn317 2.120 . S
O326 C319 1.299 . S
O327 Zn315 1.898 . S
O327 C322 1.167 . S
O328 Zn317 2.120 . S
O328 C322 1.299 . S
O329 Zn317 2.114 . S
O329 C331 1.166 . S
O330 Zn315 1.905 . S
O330 C331 1.182 . S
C331 O329 1.166 . S
C331 O330 1.182 . S
O332 Zn317 2.080 . S
O332 C335 1.305 . S
O333 Zn316 1.920 . S
O333 C335 1.234 . S
C334 O320 1.305 . S
C334 O321 1.234 . S
C335 O332 1.305 . S
C335 O333 1.234 . S
C336 C337 1.391 . S
C336 C338 1.394 . S
C336 H352 0.931 . S
C337 C336 1.391 . S
C337 C341 1.376 . S
C338 C336 1.394 . S
C338 C339 1.369 . S
C338 C342 1.531 . S
C339 C338 1.369 . S
C339 C340 1.410 . S
C339 C347 1.503 . S
C340 C339 1.410 . S
C340 C341 1.392 . S
C340 C343 1.511 . S
C341 C337 1.376 . S
C341 C340 1.392 . S
C341 H353 0.929 . S
C342 C338 1.531 . S
C342 H354 0.960 . S
C342 H355 0.962 . S
C342 H356 0.960 . S
C343 C340 1.511 . S
C343 H357 0.961 . S
C343 H358 0.961 . S
C343 H359 0.961 . S
C344 C345 1.370 . S
C344 C346 1.363 . S
C344 H360 0.931 . S
C345 C344 1.370 . S
C345 C349 1.408 . S
C346 C344 1.363 . S
C346 C347 1.370 . S
C346 C350 1.524 . S
C347 C339 1.503 . S
C347 C346 1.370 . S
C347 C348 1.403 . S
C348 C347 1.403 . S
C348 C349 1.404 . S
C348 C351 1.539 . S
C349 C345 1.408 . S
C349 C348 1.404 . S
C349 H361 0.930 . S
C350 C346 1.524 . S
C350 H362 0.956 . S
C350 H363 0.961 . S
C350 H364 0.961 . S
C351 C348 1.539 . S
C351 H365 0.958 . S
C351 H366 0.961 . S
C351 H367 0.960 . S
H352 C336 0.931 . S
H353 C341 0.929 . S
H354 C342 0.960 . S
H355 C342 0.962 . S
H356 C342 0.960 . S
H357 C343 0.961 . S
H358 C343 0.961 . S
H359 C343 0.961 . S
H360 C344 0.931 . S
H361 C349 0.930 . S
H362 C350 0.956 . S
H363 C350 0.961 . S
H364 C350 0.961 . S
H365 C351 0.958 . S
H366 C351 0.961 . S
H367 C351 0.960 . S
C368 C369 1.391 . S
C368 C370 1.394 1_554 S
C368 H384 0.931 . S
C369 C368 1.391 . S
C369 C373 1.376 . S
C370 C368 1.394 1_556 S
C370 C371 1.369 . S
C370 C374 1.531 . S
C371 C370 1.369 . S
C371 C372 1.410 . S
C371 C379 1.503 . S
C372 C371 1.410 . S
C372 C373 1.392 1_556 S
C372 C375 1.511 . S
C373 C369 1.376 . S
C373 C372 1.392 1_554 S
C373 H385 0.929 . S
C374 C370 1.531 . S
C374 H386 0.960 . S
C374 H387 0.962 . S
C374 H388 0.960 . S
C375 C372 1.511 . S
C375 H389 0.961 . S
C375 H390 0.961 . S
C375 H391 0.961 . S
C376 C377 1.370 . S
C376 C378 1.363 . S
C376 H392 0.931 . S
C377 C376 1.370 . S
C377 C381 1.408 . S
C378 C376 1.363 . S
C378 C379 1.370 . S
C378 C382 1.524 . S
C379 C371 1.503 . S
C379 C378 1.370 . S
C379 C380 1.403 . S
C380 C379 1.403 . S
C380 C381 1.404 . S
C380 C383 1.539 . S
C381 C377 1.408 . S
C381 C380 1.404 . S
C381 H393 0.930 . S
C382 C378 1.524 . S
C382 H394 0.956 . S
C382 H395 0.961 . S
C382 H396 0.961 . S
C383 C380 1.539 . S
C383 H397 0.958 . S
C383 H398 0.961 . S
C383 H399 0.960 . S
H384 C368 0.931 . S
H385 C373 0.929 . S
H386 C374 0.960 . S
H387 C374 0.962 . S
H388 C374 0.960 . S
H389 C375 0.961 . S
H390 C375 0.961 . S
H391 C375 0.961 . S
H392 C376 0.931 . S
H393 C381 0.930 . S
H394 C382 0.956 . S
H395 C382 0.961 . S
H396 C382 0.961 . S
H397 C383 0.958 . S
H398 C383 0.961 . S
H399 C383 0.960 . S
C400 C401 1.391 . S
C400 C402 1.394 . S
C400 H416 0.931 . S
C401 C400 1.391 . S
C401 C405 1.376 . S
C402 C400 1.394 . S
C402 C403 1.369 . S
C402 C406 1.531 . S
C403 C402 1.369 . S
C403 C404 1.410 . S
C403 C411 1.503 . S
C404 C403 1.410 . S
C404 C405 1.392 . S
C404 C407 1.511 . S
C405 C401 1.376 . S
C405 C404 1.392 . S
C405 H417 0.929 . S
C406 C402 1.531 . S
C406 H418 0.960 . S
C406 H419 0.962 . S
C406 H420 0.960 . S
C407 C404 1.511 . S
C407 H421 0.961 . S
C407 H422 0.961 . S
C407 H423 0.961 . S
C408 C409 1.370 . S
C408 C410 1.363 1_556 S
C408 H424 0.931 . S
C409 C408 1.370 . S
C409 C413 1.408 . S
C410 C408 1.363 1_554 S
C410 C411 1.370 . S
C410 C414 1.524 . S
C411 C403 1.503 . S
C411 C410 1.370 . S
C411 C412 1.403 . S
C412 C411 1.403 . S
C412 C413 1.404 1_554 S
C412 C415 1.539 . S
C413 C409 1.408 . S
C413 C412 1.404 1_556 S
C413 H425 0.930 . S
C414 C410 1.524 . S
C414 H426 0.956 . S
C414 H427 0.961 . S
C414 H428 0.961 . S
C415 C412 1.539 . S
C415 H429 0.958 . S
C415 H430 0.961 . S
C415 H431 0.960 . S
H416 C400 0.931 . S
H417 C405 0.929 . S
H418 C406 0.960 . S
H419 C406 0.962 . S
H420 C406 0.960 . S
H421 C407 0.961 . S
H422 C407 0.961 . S
H423 C407 0.961 . S
H424 C408 0.931 . S
H425 C413 0.930 . S
H426 C414 0.956 . S
H427 C414 0.961 . S
H428 C414 0.961 . S
H429 C415 0.958 . S
H430 C415 0.961 . S
H431 C415 0.960 . S
C432 C433 1.391 . S
C432 C434 1.394 . S
C432 H448 0.931 . S
C433 C432 1.391 . S
C433 C437 1.376 . S
C434 C432 1.394 . S
C434 C435 1.369 . S
C434 C438 1.531 . S
C435 C434 1.369 . S
C435 C436 1.410 . S
C435 C443 1.503 . S
C436 C435 1.410 . S
C436 C437 1.392 . S
C436 C439 1.511 . S
C437 C433 1.376 . S
C437 C436 1.392 . S
C437 H449 0.929 . S
C438 C434 1.531 . S
C438 H450 0.960 . S
C438 H451 0.962 . S
C438 H452 0.960 . S
C439 C436 1.511 . S
C439 H453 0.961 . S
C439 H454 0.961 . S
C439 H455 0.961 . S
C440 C441 1.370 . S
C440 C442 1.363 . S
C440 H456 0.931 . S
C441 C440 1.370 . S
C441 C445 1.408 . S
C442 C440 1.363 . S
C442 C443 1.370 . S
C442 C446 1.524 . S
C443 C435 1.503 . S
C443 C442 1.370 . S
C443 C444 1.403 . S
C444 C443 1.403 . S
C444 C445 1.404 . S
C444 C447 1.539 . S
C445 C441 1.408 . S
C445 C444 1.404 . S
C445 H457 0.930 . S
C446 C442 1.524 . S
C446 H458 0.956 . S
C446 H459 0.961 . S
C446 H460 0.961 . S
C447 C444 1.539 . S
C447 H461 0.958 . S
C447 H462 0.961 . S
C447 H463 0.960 . S
H448 C432 0.931 . S
H449 C437 0.929 . S
H450 C438 0.960 . S
H451 C438 0.962 . S
H452 C438 0.960 . S
H453 C439 0.961 . S
H454 C439 0.961 . S
H455 C439 0.961 . S
H456 C440 0.931 . S
H457 C445 0.930 . S
H458 C446 0.956 . S
H459 C446 0.961 . S
H460 C446 0.961 . S
H461 C447 0.958 . S
H462 C447 0.961 . S
H463 C447 0.960 . S
C464 C465 1.391 . S
C464 C466 1.394 . S
C464 H480 0.931 . S
C465 C464 1.391 . S
C465 C469 1.376 . S
C466 C464 1.394 . S
C466 C467 1.369 . S
C466 C470 1.531 . S
C467 C466 1.369 . S
C467 C468 1.410 . S
C467 C475 1.503 . S
C468 C467 1.410 . S
C468 C469 1.392 . S
C468 C471 1.511 . S
C469 C465 1.376 . S
C469 C468 1.392 . S
C469 H481 0.929 . S
C470 C466 1.531 . S
C470 H482 0.960 . S
C470 H483 0.962 . S
C470 H484 0.960 . S
C471 C468 1.511 . S
C471 H485 0.961 . S
C471 H486 0.961 . S
C471 H487 0.961 . S
C472 C473 1.370 . S
C472 C474 1.363 . S
C472 H488 0.931 . S
C473 C472 1.370 . S
C473 C477 1.408 . S
C474 C472 1.363 . S
C474 C475 1.370 . S
C474 C478 1.524 . S
C475 C467 1.503 . S
C475 C474 1.370 . S
C475 C476 1.403 . S
C476 C475 1.403 . S
C476 C477 1.404 . S
C476 C479 1.539 . S
C477 C473 1.408 . S
C477 C476 1.404 . S
C477 H489 0.930 . S
C478 C474 1.524 . S
C478 H490 0.956 . S
C478 H491 0.961 . S
C478 H492 0.961 . S
C479 C476 1.539 . S
C479 H493 0.958 . S
C479 H494 0.961 . S
C479 H495 0.960 . S
H480 C464 0.931 . S
H481 C469 0.929 . S
H482 C470 0.960 . S
H483 C470 0.962 . S
H484 C470 0.960 . S
H485 C471 0.961 . S
H486 C471 0.961 . S
H487 C471 0.961 . S
H488 C472 0.931 . S
H489 C477 0.930 . S
H490 C478 0.956 . S
H491 C478 0.961 . S
H492 C478 0.961 . S
H493 C479 0.958 . S
H494 C479 0.961 . S
H495 C479 0.960 . S
C496 C497 1.391 . S
C496 C498 1.394 . S
C496 H512 0.931 . S
C497 C496 1.391 . S
C497 C501 1.376 . S
C498 C496 1.394 . S
C498 C499 1.369 . S
C498 C502 1.531 . S
C499 C498 1.369 . S
C499 C500 1.410 . S
C499 C507 1.503 . S
C500 C499 1.410 . S
C500 C501 1.392 . S
C500 C503 1.511 . S
C501 C497 1.376 . S
C501 C500 1.392 . S
C501 H513 0.929 . S
C502 C498 1.531 . S
C502 H514 0.960 . S
C502 H515 0.962 . S
C502 H516 0.960 . S
C503 C500 1.511 . S
C503 H517 0.961 . S
C503 H518 0.961 . S
C503 H519 0.961 . S
C504 C505 1.370 . S
C504 C506 1.363 . S
C504 H520 0.931 . S
C505 C504 1.370 . S
C505 C509 1.408 . S
C506 C504 1.363 . S
C506 C507 1.370 . S
C506 C510 1.524 . S
C507 C499 1.503 . S
C507 C506 1.370 . S
C507 C508 1.403 . S
C508 C507 1.403 . S
C508 C509 1.404 . S
C508 C511 1.539 . S
C509 C505 1.408 . S
C509 C508 1.404 . S
C509 H521 0.930 . S
C510 C506 1.524 . S
C510 H522 0.956 . S
C510 H523 0.961 . S
C510 H524 0.961 . S
C511 C508 1.539 . S
C511 H525 0.958 . S
C511 H526 0.961 . S
C511 H527 0.960 . S
H512 C496 0.931 . S
H513 C501 0.929 . S
H514 C502 0.960 . S
H515 C502 0.962 . S
H516 C502 0.960 . S
H517 C503 0.961 . S
H518 C503 0.961 . S
H519 C503 0.961 . S
H520 C504 0.931 . S
H521 C509 0.930 . S
H522 C510 0.956 . S
H523 C510 0.961 . S
H524 C510 0.961 . S
H525 C511 0.958 . S
H526 C511 0.961 . S
H527 C511 0.960 . S
C528 C529 1.391 . S
C528 C530 1.394 . S
C528 H544 0.931 . S
C529 C528 1.391 . S
C529 C533 1.376 . S
C530 C528 1.394 . S
C530 C531 1.369 . S
C530 C534 1.531 . S
C531 C530 1.369 . S
C531 C532 1.410 . S
C531 C539 1.503 . S
C532 C531 1.410 . S
C532 C533 1.392 . S
C532 C535 1.511 . S
C533 C529 1.376 . S
C533 C532 1.392 . S
C533 H545 0.929 . S
C534 C530 1.531 . S
C534 H546 0.960 . S
C534 H547 0.962 . S
C534 H548 0.960 . S
C535 C532 1.511 . S
C535 H549 0.961 . S
C535 H550 0.961 . S
C535 H551 0.961 . S
C536 C537 1.370 . S
C536 C538 1.363 1_554 S
C536 H552 0.931 . S
C537 C536 1.370 . S
C537 C541 1.408 . S
C538 C536 1.363 1_556 S
C538 C539 1.370 . S
C538 C542 1.524 . S
C539 C531 1.503 . S
C539 C538 1.370 . S
C539 C540 1.403 . S
C540 C539 1.403 . S
C540 C541 1.404 1_556 S
C540 C543 1.539 . S
C541 C537 1.408 . S
C541 C540 1.404 1_554 S
C541 H553 0.930 . S
C542 C538 1.524 . S
C542 H554 0.956 . S
C542 H555 0.961 . S
C542 H556 0.961 . S
C543 C540 1.539 . S
C543 H557 0.958 . S
C543 H558 0.961 . S
C543 H559 0.960 . S
H544 C528 0.931 . S
H545 C533 0.929 . S
H546 C534 0.960 . S
H547 C534 0.962 . S
H548 C534 0.960 . S
H549 C535 0.961 . S
H550 C535 0.961 . S
H551 C535 0.961 . S
H552 C536 0.931 . S
H553 C541 0.930 . S
H554 C542 0.956 . S
H555 C542 0.961 . S
H556 C542 0.961 . S
H557 C543 0.958 . S
H558 C543 0.961 . S
H559 C543 0.960 . S
C560 C561 1.391 . S
C560 C562 1.394 1_556 S
C560 H576 0.931 . S
C561 C560 1.391 . S
C561 C565 1.376 . S
C562 C560 1.394 1_554 S
C562 C563 1.369 . S
C562 C566 1.531 . S
C563 C562 1.369 . S
C563 C564 1.410 . S
C563 C571 1.503 . S
C564 C563 1.410 . S
C564 C565 1.392 1_554 S
C564 C567 1.511 . S
C565 C561 1.376 . S
C565 C564 1.392 1_556 S
C565 H577 0.929 . S
C566 C562 1.531 . S
C566 H578 0.960 . S
C566 H579 0.962 . S
C566 H580 0.960 . S
C567 C564 1.511 . S
C567 H581 0.961 . S
C567 H582 0.961 . S
C567 H583 0.961 . S
C568 C569 1.370 . S
C568 C570 1.363 . S
C568 H584 0.931 . S
C569 C568 1.370 . S
C569 C573 1.408 . S
C570 C568 1.363 . S
C570 C571 1.370 . S
C570 C574 1.524 . S
C571 C563 1.503 . S
C571 C570 1.370 . S
C571 C572 1.403 . S
C572 C571 1.403 . S
C572 C573 1.404 . S
C572 C575 1.539 . S
C573 C569 1.408 . S
C573 C572 1.404 . S
C573 H585 0.930 . S
C574 C570 1.524 . S
C574 H586 0.956 . S
C574 H587 0.961 . S
C574 H588 0.961 . S
C575 C572 1.539 . S
C575 H589 0.958 . S
C575 H590 0.961 . S
C575 H591 0.960 . S
H576 C560 0.931 . S
H577 C565 0.929 . S
H578 C566 0.960 . S
H579 C566 0.962 . S
H580 C566 0.960 . S
H581 C567 0.961 . S
H582 C567 0.961 . S
H583 C567 0.961 . S
H584 C568 0.931 . S
H585 C573 0.930 . S
H586 C574 0.956 . S
H587 C574 0.961 . S
H588 C574 0.961 . S
H589 C575 0.958 . S
H590 C575 0.961 . S
H591 C575 0.960 . S
C592 C593 1.391 . S
C592 C594 1.394 . S
C592 H608 0.931 . S
C593 C592 1.391 . S
C593 C597 1.376 . S
C594 C592 1.394 . S
C594 C595 1.369 . S
C594 C598 1.531 . S
C595 C594 1.369 . S
C595 C596 1.410 . S
C595 C603 1.503 . S
C596 C595 1.410 . S
C596 C597 1.392 . S
C596 C599 1.511 . S
C597 C593 1.376 . S
C597 C596 1.392 . S
C597 H609 0.929 . S
C598 C594 1.531 . S
C598 H610 0.960 . S
C598 H611 0.962 . S
C598 H612 0.960 . S
C599 C596 1.511 . S
C599 H613 0.961 . S
C599 H614 0.961 . S
C599 H615 0.961 . S
C600 C601 1.370 . S
C600 C602 1.363 . S
C600 H616 0.931 . S
C601 C600 1.370 . S
C601 C605 1.408 . S
C602 C600 1.363 . S
C602 C603 1.370 . S
C602 C606 1.524 . S
C603 C595 1.503 . S
C603 C602 1.370 . S
C603 C604 1.403 . S
C604 C603 1.403 . S
C604 C605 1.404 . S
C604 C607 1.539 . S
C605 C601 1.408 . S
C605 C604 1.404 . S
C605 H617 0.930 . S
C606 C602 1.524 . S
C606 H618 0.956 . S
C606 H619 0.961 . S
C606 H620 0.961 . S
C607 C604 1.539 . S
C607 H621 0.958 . S
C607 H622 0.961 . S
C607 H623 0.960 . S
H608 C592 0.931 . S
H609 C597 0.929 . S
H610 C598 0.960 . S
H611 C598 0.962 . S
H612 C598 0.960 . S
H613 C599 0.961 . S
H614 C599 0.961 . S
H615 C599 0.961 . S
H616 C600 0.931 . S
H617 C605 0.930 . S
H618 C606 0.956 . S
H619 C606 0.961 . S
H620 C606 0.961 . S
H621 C607 0.958 . S
H622 C607 0.961 . S
H623 C607 0.960 . S
C624 C625 1.391 . S
C624 C626 1.394 . S
C624 H640 0.931 . S
C625 C624 1.391 . S
C625 C629 1.376 . S
C626 C624 1.394 . S
C626 C627 1.369 . S
C626 C630 1.531 . S
C627 C626 1.369 . S
C627 C628 1.410 . S
C627 C635 1.503 . S
C628 C627 1.410 . S
C628 C629 1.392 . S
C628 C631 1.511 . S
C629 C625 1.376 . S
C629 C628 1.392 . S
C629 H641 0.929 . S
C630 C626 1.531 . S
C630 H642 0.960 . S
C630 H643 0.962 . S
C630 H644 0.960 . S
C631 C628 1.511 . S
C631 H645 0.961 . S
C631 H646 0.961 . S
C631 H647 0.961 . S
C632 C633 1.370 . S
C632 C634 1.363 1_556 S
C632 H648 0.931 . S
C633 C632 1.370 . S
C633 C637 1.408 . S
C634 C632 1.363 1_554 S
C634 C635 1.370 . S
C634 C638 1.524 . S
C635 C627 1.503 . S
C635 C634 1.370 . S
C635 C636 1.403 . S
C636 C635 1.403 . S
C636 C637 1.404 1_554 S
C636 C639 1.539 . S
C637 C633 1.408 . S
C637 C636 1.404 1_556 S
C637 H649 0.930 . S
C638 C634 1.524 . S
C638 H650 0.956 . S
C638 H651 0.961 . S
C638 H652 0.961 . S
C639 C636 1.539 . S
C639 H653 0.958 . S
C639 H654 0.961 . S
C639 H655 0.960 . S
H640 C624 0.931 . S
H641 C629 0.929 . S
H642 C630 0.960 . S
H643 C630 0.962 . S
H644 C630 0.960 . S
H645 C631 0.961 . S
H646 C631 0.961 . S
H647 C631 0.961 . S
H648 C632 0.931 . S
H649 C637 0.930 . S
H650 C638 0.956 . S
H651 C638 0.961 . S
H652 C638 0.961 . S
H653 C639 0.958 . S
H654 C639 0.961 . S
H655 C639 0.960 . S
C656 C657 1.391 . S
C656 C658 1.394 1_554 S
C656 H672 0.931 . S
C657 C656 1.391 . S
C657 C661 1.376 . S
C658 C656 1.394 1_556 S
C658 C659 1.369 . S
C658 C662 1.531 . S
C659 C658 1.369 . S
C659 C660 1.410 . S
C659 C667 1.503 . S
C660 C659 1.410 . S
C660 C661 1.392 1_556 S
C660 C663 1.511 . S
C661 C657 1.376 . S
C661 C660 1.392 1_554 S
C661 H673 0.929 . S
C662 C658 1.531 . S
C662 H674 0.960 . S
C662 H675 0.962 . S
C662 H676 0.960 . S
C663 C660 1.511 . S
C663 H677 0.961 . S
C663 H678 0.961 . S
C663 H679 0.961 . S
C664 C665 1.370 . S
C664 C666 1.363 . S
C664 H680 0.931 . S
C665 C664 1.370 . S
C665 C669 1.408 . S
C666 C664 1.363 . S
C666 C667 1.370 . S
C666 C670 1.524 . S
C667 C659 1.503 . S
C667 C666 1.370 . S
C667 C668 1.403 . S
C668 C667 1.403 . S
C668 C669 1.404 . S
C668 C671 1.539 . S
C669 C665 1.408 . S
C669 C668 1.404 . S
C669 H681 0.930 . S
C670 C666 1.524 . S
C670 H682 0.956 . S
C670 H683 0.961 . S
C670 H684 0.961 . S
C671 C668 1.539 . S
C671 H685 0.958 . S
C671 H686 0.961 . S
C671 H687 0.960 . S
H672 C656 0.931 . S
H673 C661 0.929 . S
H674 C662 0.960 . S
H675 C662 0.962 . S
H676 C662 0.960 . S
H677 C663 0.961 . S
H678 C663 0.961 . S
H679 C663 0.961 . S
H680 C664 0.931 . S
H681 C669 0.930 . S
H682 C670 0.956 . S
H683 C670 0.961 . S
H684 C670 0.961 . S
H685 C671 0.958 . S
H686 C671 0.961 . S
H687 C671 0.960 . S
C688 C689 1.391 . S
C688 C690 1.394 . S
C688 H704 0.931 . S
C689 C688 1.391 . S
C689 C693 1.376 . S
C690 C688 1.394 . S
C690 C691 1.369 . S
C690 C694 1.531 . S
C691 C690 1.369 . S
C691 C692 1.410 . S
C691 C699 1.503 . S
C692 C691 1.410 . S
C692 C693 1.392 . S
C692 C695 1.511 . S
C693 C689 1.376 . S
C693 C692 1.392 . S
C693 H705 0.929 . S
C694 C690 1.531 . S
C694 H706 0.960 . S
C694 H707 0.962 . S
C694 H708 0.960 . S
C695 C692 1.511 . S
C695 H709 0.961 . S
C695 H710 0.961 . S
C695 H711 0.961 . S
C696 C697 1.370 . S
C696 C698 1.363 . S
C696 H712 0.931 . S
C697 C696 1.370 . S
C697 C701 1.408 . S
C698 C696 1.363 . S
C698 C699 1.370 . S
C698 C702 1.524 . S
C699 C691 1.503 . S
C699 C698 1.370 . S
C699 C700 1.403 . S
C700 C699 1.403 . S
C700 C701 1.404 . S
C700 C703 1.539 . S
C701 C697 1.408 . S
C701 C700 1.404 . S
C701 H713 0.930 . S
C702 C698 1.524 . S
C702 H714 0.956 . S
C702 H715 0.961 . S
C702 H716 0.961 . S
C703 C700 1.539 . S
C703 H717 0.958 . S
C703 H718 0.961 . S
C703 H719 0.960 . S
H704 C688 0.931 . S
H705 C693 0.929 . S
H706 C694 0.960 . S
H707 C694 0.962 . S
H708 C694 0.960 . S
H709 C695 0.961 . S
H710 C695 0.961 . S
H711 C695 0.961 . S
H712 C696 0.931 . S
H713 C701 0.930 . S
H714 C702 0.956 . S
H715 C702 0.961 . S
H716 C702 0.961 . S
H717 C703 0.958 . S
H718 C703 0.961 . S
H719 C703 0.960 . S
C720 C721 1.391 . S
C720 C722 1.394 . S
C720 H736 0.931 . S
C721 C720 1.391 . S
C721 C725 1.376 . S
C722 C720 1.394 . S
C722 C723 1.369 . S
C722 C726 1.531 . S
C723 C722 1.369 . S
C723 C724 1.410 . S
C723 C731 1.503 . S
C724 C723 1.410 . S
C724 C725 1.392 . S
C724 C727 1.511 . S
C725 C721 1.376 . S
C725 C724 1.392 . S
C725 H737 0.929 . S
C726 C722 1.531 . S
C726 H738 0.960 . S
C726 H739 0.962 . S
C726 H740 0.960 . S
C727 C724 1.511 . S
C727 H741 0.961 . S
C727 H742 0.961 . S
C727 H743 0.961 . S
C728 C729 1.370 . S
C728 C730 1.363 . S
C728 H744 0.931 . S
C729 C728 1.370 . S
C729 C733 1.408 . S
C730 C728 1.363 . S
C730 C731 1.370 . S
C730 C734 1.524 . S
C731 C723 1.503 . S
C731 C730 1.370 . S
C731 C732 1.403 . S
C732 C731 1.403 . S
C732 C733 1.404 . S
C732 C735 1.539 . S
C733 C729 1.408 . S
C733 C732 1.404 . S
C733 H745 0.930 . S
C734 C730 1.524 . S
C734 H746 0.956 . S
C734 H747 0.961 . S
C734 H748 0.961 . S
C735 C732 1.539 . S
C735 H749 0.958 . S
C735 H750 0.961 . S
C735 H751 0.960 . S
H736 C720 0.931 . S
H737 C725 0.929 . S
H738 C726 0.960 . S
H739 C726 0.962 . S
H740 C726 0.960 . S
H741 C727 0.961 . S
H742 C727 0.961 . S
H743 C727 0.961 . S
H744 C728 0.931 . S
H745 C733 0.930 . S
H746 C734 0.956 . S
H747 C734 0.961 . S
H748 C734 0.961 . S
H749 C735 0.958 . S
H750 C735 0.961 . S
H751 C735 0.960 . S
C752 C753 1.391 . S
C752 C754 1.394 . S
C752 H768 0.931 . S
C753 C752 1.391 . S
C753 C757 1.376 . S
C754 C752 1.394 . S
C754 C755 1.369 . S
C754 C758 1.531 . S
C755 C754 1.369 . S
C755 C756 1.410 . S
C755 C763 1.503 . S
C756 C755 1.410 . S
C756 C757 1.392 . S
C756 C759 1.511 . S
C757 C753 1.376 . S
C757 C756 1.392 . S
C757 H769 0.929 . S
C758 C754 1.531 . S
C758 H770 0.960 . S
C758 H771 0.962 . S
C758 H772 0.960 . S
C759 C756 1.511 . S
C759 H773 0.961 . S
C759 H774 0.961 . S
C759 H775 0.961 . S
C760 C761 1.370 . S
C760 C762 1.363 . S
C760 H776 0.931 . S
C761 C760 1.370 . S
C761 C765 1.408 . S
C762 C760 1.363 . S
C762 C763 1.370 . S
C762 C766 1.524 . S
C763 C755 1.503 . S
C763 C762 1.370 . S
C763 C764 1.403 . S
C764 C763 1.403 . S
C764 C765 1.404 . S
C764 C767 1.539 . S
C765 C761 1.408 . S
C765 C764 1.404 . S
C765 H777 0.930 . S
C766 C762 1.524 . S
C766 H778 0.956 . S
C766 H779 0.961 . S
C766 H780 0.961 . S
C767 C764 1.539 . S
C767 H781 0.958 . S
C767 H782 0.961 . S
C767 H783 0.960 . S
H768 C752 0.931 . S
H769 C757 0.929 . S
H770 C758 0.960 . S
H771 C758 0.962 . S
H772 C758 0.960 . S
H773 C759 0.961 . S
H774 C759 0.961 . S
H775 C759 0.961 . S
H776 C760 0.931 . S
H777 C765 0.930 . S
H778 C766 0.956 . S
H779 C766 0.961 . S
H780 C766 0.961 . S
H781 C767 0.958 . S
H782 C767 0.961 . S
H783 C767 0.960 . S
C784 C785 1.391 . S
C784 C786 1.394 . S
C784 H800 0.931 . S
C785 C784 1.391 . S
C785 C789 1.376 . S
C786 C784 1.394 . S
C786 C787 1.369 . S
C786 C790 1.531 . S
C787 C786 1.369 . S
C787 C788 1.410 . S
C787 C795 1.503 . S
C788 C787 1.410 . S
C788 C789 1.392 . S
C788 C791 1.511 . S
C789 C785 1.376 . S
C789 C788 1.392 . S
C789 H801 0.929 . S
C790 C786 1.531 . S
C790 H802 0.960 . S
C790 H803 0.962 . S
C790 H804 0.960 . S
C791 C788 1.511 . S
C791 H805 0.961 . S
C791 H806 0.961 . S
C791 H807 0.961 . S
C792 C793 1.370 . S
C792 C794 1.363 1_556 S
C792 H808 0.931 . S
C793 C792 1.370 . S
C793 C797 1.408 . S
C794 C792 1.363 1_554 S
C794 C795 1.370 . S
C794 C798 1.524 . S
C795 C787 1.503 . S
C795 C794 1.370 . S
C795 C796 1.403 . S
C796 C795 1.403 . S
C796 C797 1.404 1_554 S
C796 C799 1.539 . S
C797 C793 1.408 . S
C797 C796 1.404 1_556 S
C797 H809 0.930 . S
C798 C794 1.524 . S
C798 H810 0.956 . S
C798 H811 0.961 . S
C798 H812 0.961 . S
C799 C796 1.539 . S
C799 H813 0.958 . S
C799 H814 0.961 . S
C799 H815 0.960 . S
H800 C784 0.931 . S
H801 C789 0.929 . S
H802 C790 0.960 . S
H803 C790 0.962 . S
H804 C790 0.960 . S
H805 C791 0.961 . S
H806 C791 0.961 . S
H807 C791 0.961 . S
H808 C792 0.931 . S
H809 C797 0.930 . S
H810 C798 0.956 . S
H811 C798 0.961 . S
H812 C798 0.961 . S
H813 C799 0.958 . S
H814 C799 0.961 . S
H815 C799 0.960 . S
C816 C817 1.391 . S
C816 C818 1.394 1_554 S
C816 H832 0.931 . S
C817 C816 1.391 . S
C817 C821 1.376 . S
C818 C816 1.394 1_556 S
C818 C819 1.369 . S
C818 C822 1.531 . S
C819 C818 1.369 . S
C819 C820 1.410 . S
C819 C827 1.503 . S
C820 C819 1.410 . S
C820 C821 1.392 1_556 S
C820 C823 1.511 . S
C821 C817 1.376 . S
C821 C820 1.392 1_554 S
C821 H833 0.929 . S
C822 C818 1.531 . S
C822 H834 0.960 . S
C822 H835 0.962 . S
C822 H836 0.960 . S
C823 C820 1.511 . S
C823 H837 0.961 . S
C823 H838 0.961 . S
C823 H839 0.961 . S
C824 C825 1.370 . S
C824 C826 1.363 . S
C824 H840 0.931 . S
C825 C824 1.370 . S
C825 C829 1.408 . S
C826 C824 1.363 . S
C826 C827 1.370 . S
C826 C830 1.524 . S
C827 C819 1.503 . S
C827 C826 1.370 . S
C827 C828 1.403 . S
C828 C827 1.403 . S
C828 C829 1.404 . S
C828 C831 1.539 . S
C829 C825 1.408 . S
C829 C828 1.404 . S
C829 H841 0.930 . S
C830 C826 1.524 . S
C830 H842 0.956 . S
C830 H843 0.961 . S
C830 H844 0.961 . S
C831 C828 1.539 . S
C831 H845 0.958 . S
C831 H846 0.961 . S
C831 H847 0.960 . S
H832 C816 0.931 . S
H833 C821 0.929 . S
H834 C822 0.960 . S
H835 C822 0.962 . S
H836 C822 0.960 . S
H837 C823 0.961 . S
H838 C823 0.961 . S
H839 C823 0.961 . S
H840 C824 0.931 . S
H841 C829 0.930 . S
H842 C830 0.956 . S
H843 C830 0.961 . S
H844 C830 0.961 . S
H845 C831 0.958 . S
H846 C831 0.961 . S
H847 C831 0.960 . S
C848 C849 1.391 . S
C848 C850 1.394 . S
C848 H864 0.931 . S
C849 C848 1.391 . S
C849 C853 1.376 . S
C850 C848 1.394 . S
C850 C851 1.369 . S
C850 C854 1.531 . S
C851 C850 1.369 . S
C851 C852 1.410 . S
C851 C859 1.503 . S
C852 C851 1.410 . S
C852 C853 1.392 . S
C852 C855 1.511 . S
C853 C849 1.376 . S
C853 C852 1.392 . S
C853 H865 0.929 . S
C854 C850 1.531 . S
C854 H866 0.960 . S
C854 H867 0.962 . S
C854 H868 0.960 . S
C855 C852 1.511 . S
C855 H869 0.961 1_554 S
C855 H870 0.961 . S
C855 H871 0.961 . S
C856 C857 1.370 . S
C856 C858 1.363 . S
C856 H872 0.931 . S
C857 C856 1.370 . S
C857 C861 1.408 . S
C858 C856 1.363 . S
C858 C859 1.370 . S
C858 C862 1.524 1_554 S
C859 C851 1.503 . S
C859 C858 1.370 . S
C859 C860 1.403 . S
C860 C859 1.403 . S
C860 C861 1.404 . S
C860 C863 1.539 . S
C861 C857 1.408 . S
C861 C860 1.404 . S
C861 H873 0.930 . S
C862 C858 1.524 1_556 S
C862 H874 0.956 1_556 S
C862 H875 0.961 . S
C862 H876 0.961 . S
C863 C860 1.539 . S
C863 H877 0.958 . S
C863 H878 0.961 . S
C863 H879 0.960 . S
H864 C848 0.931 . S
H865 C853 0.929 . S
H866 C854 0.960 . S
H867 C854 0.962 . S
H868 C854 0.960 . S
H869 C855 0.961 1_556 S
H870 C855 0.961 . S
H871 C855 0.961 . S
H872 C856 0.931 . S
H873 C861 0.930 . S
H874 C862 0.956 1_554 S
H875 C862 0.961 . S
H876 C862 0.961 . S
H877 C863 0.958 . S
H878 C863 0.961 . S
H879 C863 0.960 . S
C880 C881 1.391 . S
C880 C882 1.394 . S
C880 H896 0.931 . S
C881 C880 1.391 . S
C881 C885 1.376 . S
C882 C880 1.394 . S
C882 C883 1.369 . S
C882 C886 1.531 . S
C883 C882 1.369 . S
C883 C884 1.410 . S
C883 C891 1.503 . S
C884 C883 1.410 . S
C884 C885 1.392 . S
C884 C887 1.511 . S
C885 C881 1.376 . S
C885 C884 1.392 . S
C885 H897 0.929 . S
C886 C882 1.531 . S
C886 H898 0.960 . S
C886 H899 0.962 . S
C886 H900 0.960 . S
C887 C884 1.511 . S
C887 H901 0.961 . S
C887 H902 0.961 . S
C887 H903 0.961 . S
C888 C889 1.370 . S
C888 C890 1.363 . S
C888 H904 0.931 . S
C889 C888 1.370 . S
C889 C893 1.408 . S
C890 C888 1.363 . S
C890 C891 1.370 . S
C890 C894 1.524 . S
C891 C883 1.503 . S
C891 C890 1.370 . S
C891 C892 1.403 . S
C892 C891 1.403 . S
C892 C893 1.404 . S
C892 C895 1.539 . S
C893 C889 1.408 . S
C893 C892 1.404 . S
C893 H905 0.930 . S
C894 C890 1.524 . S
C894 H906 0.956 . S
C894 H907 0.961 . S
C894 H908 0.961 . S
C895 C892 1.539 . S
C895 H909 0.958 . S
C895 H910 0.961 . S
C895 H911 0.960 . S
H896 C880 0.931 . S
H897 C885 0.929 . S
H898 C886 0.960 . S
H899 C886 0.962 . S
H900 C886 0.960 . S
H901 C887 0.961 . S
H902 C887 0.961 . S
H903 C887 0.961 . S
H904 C888 0.931 . S
H905 C893 0.930 . S
H906 C894 0.956 . S
H907 C894 0.961 . S
H908 C894 0.961 . S
H909 C895 0.958 . S
H910 C895 0.961 . S
H911 C895 0.960 . S
C912 C913 1.391 . S
C912 C914 1.394 . S
C912 H928 0.931 . S
C913 C912 1.391 . S
C913 C917 1.376 . S
C914 C912 1.394 . S
C914 C915 1.369 . S
C914 C918 1.531 . S
C915 C914 1.369 . S
C915 C916 1.410 . S
C915 C923 1.503 . S
C916 C915 1.410 . S
C916 C917 1.392 . S
C916 C919 1.511 . S
C917 C913 1.376 . S
C917 C916 1.392 . S
C917 H929 0.929 . S
C918 C914 1.531 . S
C918 H930 0.960 . S
C918 H931 0.962 . S
C918 H932 0.960 . S
C919 C916 1.511 . S
C919 H933 0.961 . S
C919 H934 0.961 . S
C919 H935 0.961 . S
C920 C921 1.370 . S
C920 C922 1.363 . S
C920 H936 0.931 . S
C921 C920 1.370 . S
C921 C925 1.408 . S
C922 C920 1.363 . S
C922 C923 1.370 . S
C922 C926 1.524 . S
C923 C915 1.503 . S
C923 C922 1.370 . S
C923 C924 1.403 . S
C924 C923 1.403 . S
C924 C925 1.404 . S
C924 C927 1.539 . S
C925 C921 1.408 . S
C925 C924 1.404 . S
C925 H937 0.930 . S
C926 C922 1.524 . S
C926 H938 0.956 . S
C926 H939 0.961 . S
C926 H940 0.961 . S
C927 C924 1.539 . S
C927 H941 0.958 . S
C927 H942 0.961 . S
C927 H943 0.960 . S
H928 C912 0.931 . S
H929 C917 0.929 . S
H930 C918 0.960 . S
H931 C918 0.962 . S
H932 C918 0.960 . S
H933 C919 0.961 . S
H934 C919 0.961 . S
H935 C919 0.961 . S
H936 C920 0.931 . S
H937 C925 0.930 . S
H938 C926 0.956 . S
H939 C926 0.961 . S
H940 C926 0.961 . S
H941 C927 0.958 . S
H942 C927 0.961 . S
H943 C927 0.960 . S
C944 C945 1.391 . S
C944 C946 1.394 . S
C944 H960 0.931 . S
C945 C944 1.391 . S
C945 C949 1.376 . S
C946 C944 1.394 . S
C946 C947 1.369 . S
C946 C950 1.531 . S
C947 C946 1.369 . S
C947 C948 1.410 . S
C947 C955 1.503 1_655 S
C948 C947 1.410 . S
C948 C949 1.392 . S
C948 C951 1.511 1_556 S
C949 C945 1.376 . S
C949 C948 1.392 . S
C949 H961 0.929 . S
C950 C946 1.531 . S
C950 H962 0.960 1_655 S
C950 H963 0.962 . S
C950 H964 0.960 . S
C951 C948 1.511 1_554 S
C951 H965 0.961 . S
C951 H966 0.961 1_655 S
C951 H967 0.961 . S
C952 C953 1.370 . S
C952 C954 1.363 . S
C952 H968 0.931 . S
C953 C952 1.370 . S
C953 C957 1.408 . S
C954 C952 1.363 . S
C954 C955 1.370 . S
C954 C958 1.524 . S
C955 C947 1.503 1_455 S
C955 C954 1.370 . S
C955 C956 1.403 . S
C956 C955 1.403 . S
C956 C957 1.404 . S
C956 C959 1.539 . S
C957 C953 1.408 . S
C957 C956 1.404 . S
C957 H969 0.930 . S
C958 C954 1.524 . S
C958 H970 0.981 . S
C958 H971 0.961 1_455 S
C958 H972 0.961 . S
C959 C956 1.539 . S
C959 H973 0.958 . S
C959 H974 0.961 . S
C959 H975 0.980 . S
H960 C944 0.931 . S
H961 C949 0.929 . S
H962 C950 0.960 1_455 S
H963 C950 0.962 . S
H964 C950 0.960 . S
H965 C951 0.961 . S
H966 C951 0.961 1_455 S
H967 C951 0.961 . S
H968 C952 0.931 . S
H969 C957 0.930 . S
H970 C958 0.981 . S
H971 C958 0.961 1_655 S
H972 C958 0.961 . S
H973 C959 0.958 . S
H974 C959 0.961 . S
H975 C959 0.980 . S
C976 C977 1.391 . S
C976 C978 1.394 . S
C976 H992 0.931 . S
C977 C976 1.391 . S
C977 C981 1.376 . S
C978 C976 1.394 . S
C978 C979 1.369 . S
C978 C982 1.531 . S
C979 C978 1.369 . S
C979 C980 1.410 . S
C979 C987 1.503 . S
C980 C979 1.410 . S
C980 C981 1.392 . S
C980 C983 1.511 . S
C981 C977 1.376 . S
C981 C980 1.392 . S
C981 H993 0.929 . S
C982 C978 1.531 . S
C982 H994 0.960 . S
C982 H995 0.962 . S
C982 H996 0.960 . S
C983 C980 1.511 . S
C983 H997 0.961 . S
C983 H998 0.961 . S
C983 H999 0.961 . S
C984 C985 1.370 . S
C984 C986 1.363 . S
C984 H1000 0.931 1_556 S
C985 C984 1.370 . S
C985 C989 1.408 . S
C986 C984 1.363 . S
C986 C987 1.370 . S
C986 C990 1.524 1_556 S
C987 C979 1.503 . S
C987 C986 1.370 . S
C987 C988 1.403 . S
C988 C987 1.403 . S
C988 C989 1.404 . S
C988 C991 1.539 . S
C989 C985 1.408 . S
C989 C988 1.404 . S
C989 H1001 0.930 . S
C990 C986 1.524 1_554 S
C990 H1002 0.956 . S
C990 H1003 0.961 . S
C990 H1004 0.961 . S
C991 C988 1.539 . S
C991 H1005 0.958 . S
C991 H1006 0.961 . S
C991 H1007 0.960 . S
H992 C976 0.931 . S
H993 C981 0.929 . S
H994 C982 0.960 . S
H995 C982 0.962 . S
H996 C982 0.960 . S
H997 C983 0.961 . S
H998 C983 0.961 . S
H999 C983 0.961 . S
H1000 C984 0.931 1_554 S
H1001 C989 0.930 . S
H1002 C990 0.956 . S
H1003 C990 0.961 . S
H1004 C990 0.961 . S
H1005 C991 0.958 . S
H1006 C991 0.961 . S
H1007 C991 0.960 . S
C1008 C1009 1.391 . S
C1008 C1010 1.394 . S
C1008 H1024 0.931 . S
C1009 C1008 1.391 . S
C1009 C1013 1.376 . S
C1010 C1008 1.394 . S
C1010 C1011 1.369 . S
C1010 C1014 1.531 . S
C1011 C1010 1.369 . S
C1011 C1012 1.410 . S
C1011 C1019 1.503 1_455 S
C1012 C1011 1.410 . S
C1012 C1013 1.392 . S
C1012 C1015 1.511 . S
C1013 C1009 1.376 . S
C1013 C1012 1.392 . S
C1013 H1025 0.929 . S
C1014 C1010 1.531 . S
C1014 H1026 0.960 1_455 S
C1014 H1027 0.962 1_554 S
C1014 H1028 0.960 1_554 S
C1015 C1012 1.511 . S
C1015 H1029 0.961 . S
C1015 H1030 0.961 1_455 S
C1015 H1031 0.961 . S
C1016 C1017 1.370 . S
C1016 C1018 1.363 . S
C1016 H1032 0.931 . S
C1017 C1016 1.370 . S
C1017 C1021 1.408 . S
C1018 C1016 1.363 . S
C1018 C1019 1.370 . S
C1018 C1022 1.524 . S
C1019 C1011 1.503 1_655 S
C1019 C1018 1.370 . S
C1019 C1020 1.403 . S
C1020 C1019 1.403 . S
C1020 C1021 1.404 . S
C1020 C1023 1.539 . S
C1021 C1017 1.408 . S
C1021 C1020 1.404 . S
C1021 H1033 0.930 . S
C1022 C1018 1.524 . S
C1022 H1034 0.964 . S
C1022 H1035 0.961 1_655 S
C1022 H1036 0.961 . S
C1023 C1020 1.539 . S
C1023 H1037 0.958 . S
C1023 H1038 0.961 . S
C1023 H1039 0.955 . S
H1024 C1008 0.931 . S
H1025 C1013 0.929 . S
H1026 C1014 0.960 1_655 S
H1027 C1014 0.962 1_556 S
H1028 C1014 0.960 1_556 S
H1029 C1015 0.961 . S
H1030 C1015 0.961 1_655 S
H1031 C1015 0.961 . S
H1032 C1016 0.931 . S
H1033 C1021 0.930 . S
H1034 C1022 0.964 . S
H1035 C1022 0.961 1_455 S
H1036 C1022 0.961 . S
H1037 C1023 0.958 . S
H1038 C1023 0.961 . S
H1039 C1023 0.955 . S
C1040 C1041 1.391 . S
C1040 C1042 1.394 . S
C1040 H1056 0.931 . S
C1041 C1040 1.391 . S
C1041 C1045 1.376 . S
C1042 C1040 1.394 . S
C1042 C1043 1.369 . S
C1042 C1046 1.531 . S
C1043 C1042 1.369 . S
C1043 C1044 1.410 . S
C1043 C1051 1.503 . S
C1044 C1043 1.410 . S
C1044 C1045 1.392 . S
C1044 C1047 1.511 . S
C1045 C1041 1.376 . S
C1045 C1044 1.392 . S
C1045 H1057 0.929 . S
C1046 C1042 1.531 . S
C1046 H1058 0.960 . S
C1046 H1059 0.962 . S
C1046 H1060 0.960 . S
C1047 C1044 1.511 . S
C1047 H1061 0.961 . S
C1047 H1062 0.961 . S
C1047 H1063 0.961 . S
C1048 C1049 1.370 . S
C1048 C1050 1.363 . S
C1048 H1064 0.931 . S
C1049 C1048 1.370 . S
C1049 C1053 1.408 . S
C1050 C1048 1.363 . S
C1050 C1051 1.370 . S
C1050 C1054 1.524 . S
C1051 C1043 1.503 . S
C1051 C1050 1.370 . S
C1051 C1052 1.403 . S
C1052 C1051 1.403 . S
C1052 C1053 1.404 . S
C1052 C1055 1.539 . S
C1053 C1049 1.408 . S
C1053 C1052 1.404 . S
C1053 H1065 0.930 . S
C1054 C1050 1.524 . S
C1054 H1066 0.956 . S
C1054 H1067 0.961 . S
C1054 H1068 0.961 . S
C1055 C1052 1.539 . S
C1055 H1069 0.958 . S
C1055 H1070 0.961 . S
C1055 H1071 0.960 . S
H1056 C1040 0.931 . S
H1057 C1045 0.929 . S
H1058 C1046 0.960 . S
H1059 C1046 0.962 . S
H1060 C1046 0.960 . S
H1061 C1047 0.961 . S
H1062 C1047 0.961 . S
H1063 C1047 0.961 . S
H1064 C1048 0.931 . S
H1065 C1053 0.930 . S
H1066 C1054 0.956 . S
H1067 C1054 0.961 . S
H1068 C1054 0.961 . S
H1069 C1055 0.958 . S
H1070 C1055 0.961 . S
H1071 C1055 0.960 . S
C1072 C1073 1.391 . S
C1072 C1074 1.394 . S
C1072 H1088 0.931 . S
C1073 C1072 1.391 . S
C1073 C1077 1.376 . S
C1074 C1072 1.394 . S
C1074 C1075 1.369 . S
C1074 C1078 1.531 . S
C1075 C1074 1.369 . S
C1075 C1076 1.410 . S
C1075 C1083 1.503 . S
C1076 C1075 1.410 . S
C1076 C1077 1.392 . S
C1076 C1079 1.511 . S
C1077 C1073 1.376 . S
C1077 C1076 1.392 . S
C1077 H1089 0.929 . S
C1078 C1074 1.531 . S
C1078 H1090 0.960 . S
C1078 H1091 0.962 . S
C1078 H1092 0.960 . S
C1079 C1076 1.511 . S
C1079 H1093 0.961 . S
C1079 H1094 0.961 . S
C1079 H1095 0.961 . S
C1080 C1081 1.370 . S
C1080 C1082 1.363 . S
C1080 H1096 0.931 . S
C1081 C1080 1.370 . S
C1081 C1085 1.408 . S
C1082 C1080 1.363 . S
C1082 C1083 1.370 . S
C1082 C1086 1.524 . S
C1083 C1075 1.503 . S
C1083 C1082 1.370 . S
C1083 C1084 1.403 . S
C1084 C1083 1.403 . S
C1084 C1085 1.404 . S
C1084 C1087 1.539 . S
C1085 C1081 1.408 . S
C1085 C1084 1.404 . S
C1085 H1097 0.930 . S
C1086 C1082 1.524 . S
C1086 H1098 0.956 . S
C1086 H1099 0.961 . S
C1086 H1100 0.961 . S
C1087 C1084 1.539 . S
C1087 H1101 0.958 . S
C1087 H1102 0.961 . S
C1087 H1103 0.960 . S
H1088 C1072 0.931 . S
H1089 C1077 0.929 . S
H1090 C1078 0.960 . S
H1091 C1078 0.962 . S
H1092 C1078 0.960 . S
H1093 C1079 0.961 . S
H1094 C1079 0.961 . S
H1095 C1079 0.961 . S
H1096 C1080 0.931 . S
H1097 C1085 0.930 . S
H1098 C1086 0.956 . S
H1099 C1086 0.961 . S
H1100 C1086 0.961 . S
H1101 C1087 0.958 . S
H1102 C1087 0.961 . S
H1103 C1087 0.960 . S
C1104 C1105 1.391 . S
C1104 C1106 1.394 . S
C1104 H1120 0.931 . S
C1105 C1104 1.391 . S
C1105 C1109 1.376 . S
C1106 C1104 1.394 . S
C1106 C1107 1.369 . S
C1106 C1110 1.531 . S
C1107 C1106 1.369 . S
C1107 C1108 1.410 . S
C1107 C1115 1.503 . S
C1108 C1107 1.410 . S
C1108 C1109 1.392 . S
C1108 C1111 1.511 . S
C1109 C1105 1.376 . S
C1109 C1108 1.392 . S
C1109 H1121 0.929 . S
C1110 C1106 1.531 . S
C1110 H1122 0.960 . S
C1110 H1123 0.962 . S
C1110 H1124 0.960 . S
C1111 C1108 1.511 . S
C1111 H1125 0.961 1_556 S
C1111 H1126 0.961 1_556 S
C1111 H1127 0.961 . S
C1112 C1113 1.370 . S
C1112 C1114 1.363 . S
C1112 H1128 0.931 . S
C1113 C1112 1.370 . S
C1113 C1117 1.408 . S
C1114 C1112 1.363 . S
C1114 C1115 1.370 . S
C1114 C1118 1.524 1_556 S
C1115 C1107 1.503 . S
C1115 C1114 1.370 . S
C1115 C1116 1.403 . S
C1116 C1115 1.403 . S
C1116 C1117 1.404 . S
C1116 C1119 1.539 . S
C1117 C1113 1.408 . S
C1117 C1116 1.404 . S
C1117 H1129 0.930 . S
C1118 C1114 1.524 1_554 S
C1118 H1130 0.956 1_554 S
C1118 H1131 0.961 . S
C1118 H1132 0.961 . S
C1119 C1116 1.539 . S
C1119 H1133 0.958 . S
C1119 H1134 0.961 . S
C1119 H1135 0.960 . S
H1120 C1104 0.931 . S
H1121 C1109 0.929 . S
H1122 C1110 0.960 . S
H1123 C1110 0.962 . S
H1124 C1110 0.960 . S
H1125 C1111 0.961 1_554 S
H1126 C1111 0.961 1_554 S
H1127 C1111 0.961 . S
H1128 C1112 0.931 . S
H1129 C1117 0.930 . S
H1130 C1118 0.956 1_556 S
H1131 C1118 0.961 . S
H1132 C1118 0.961 . S
H1133 C1119 0.958 . S
H1134 C1119 0.961 . S
H1135 C1119 0.960 . S
C1136 C1137 1.391 . S
C1136 C1138 1.394 . S
C1136 H1152 0.931 . S
C1137 C1136 1.391 . S
C1137 C1141 1.376 . S
C1138 C1136 1.394 . S
C1138 C1139 1.369 . S
C1138 C1142 1.531 . S
C1139 C1138 1.369 . S
C1139 C1140 1.410 . S
C1139 C1147 1.503 . S
C1140 C1139 1.410 . S
C1140 C1141 1.392 . S
C1140 C1143 1.511 . S
C1141 C1137 1.376 . S
C1141 C1140 1.392 . S
C1141 H1153 0.929 . S
C1142 C1138 1.531 . S
C1142 H1154 0.960 . S
C1142 H1155 0.962 . S
C1142 H1156 0.960 . S
C1143 C1140 1.511 . S
C1143 H1157 0.961 . S
C1143 H1158 0.961 . S
C1143 H1159 0.961 . S
C1144 C1145 1.370 . S
C1144 C1146 1.363 . S
C1144 H1160 0.931 . S
C1145 C1144 1.370 . S
C1145 C1149 1.408 . S
C1146 C1144 1.363 . S
C1146 C1147 1.370 . S
C1146 C1150 1.524 . S
C1147 C1139 1.503 . S
C1147 C1146 1.370 . S
C1147 C1148 1.403 . S
C1148 C1147 1.403 . S
C1148 C1149 1.404 . S
C1148 C1151 1.539 . S
C1149 C1145 1.408 . S
C1149 C1148 1.404 . S
C1149 H1161 0.930 . S
C1150 C1146 1.524 . S
C1150 H1162 0.956 . S
C1150 H1163 0.961 . S
C1150 H1164 0.961 . S
C1151 C1148 1.539 . S
C1151 H1165 0.958 . S
C1151 H1166 0.961 . S
C1151 H1167 0.960 . S
H1152 C1136 0.931 . S
H1153 C1141 0.929 . S
H1154 C1142 0.960 . S
H1155 C1142 0.962 . S
H1156 C1142 0.960 . S
H1157 C1143 0.961 . S
H1158 C1143 0.961 . S
H1159 C1143 0.961 . S
H1160 C1144 0.931 . S
H1161 C1149 0.930 . S
H1162 C1150 0.956 . S
H1163 C1150 0.961 . S
H1164 C1150 0.961 . S
H1165 C1151 0.958 . S
H1166 C1151 0.961 . S
H1167 C1151 0.960 . S
C1168 C1169 1.391 . S
C1168 C1170 1.394 . S
C1168 H1184 0.931 . S
C1169 C1168 1.391 . S
C1169 C1173 1.376 . S
C1170 C1168 1.394 . S
C1170 C1171 1.369 . S
C1170 C1174 1.531 . S
C1171 C1170 1.369 . S
C1171 C1172 1.410 . S
C1171 C1179 1.503 . S
C1172 C1171 1.410 . S
C1172 C1173 1.392 . S
C1172 C1175 1.511 . S
C1173 C1169 1.376 . S
C1173 C1172 1.392 . S
C1173 H1185 0.929 . S
C1174 C1170 1.531 . S
C1174 H1186 0.960 . S
C1174 H1187 0.962 1_554 S
C1174 H1188 0.960 . S
C1175 C1172 1.511 . S
C1175 H1189 0.961 . S
C1175 H1190 0.961 . S
C1175 H1191 0.961 . S
C1176 C1177 1.370 . S
C1176 C1178 1.363 . S
C1176 H1192 0.931 1_554 S
C1177 C1176 1.370 . S
C1177 C1181 1.408 . S
C1178 C1176 1.363 . S
C1178 C1179 1.370 . S
C1178 C1182 1.524 1_554 S
C1179 C1171 1.503 . S
C1179 C1178 1.370 . S
C1179 C1180 1.403 . S
C1180 C1179 1.403 . S
C1180 C1181 1.404 . S
C1180 C1183 1.539 . S
C1181 C1177 1.408 . S
C1181 C1180 1.404 . S
C1181 H1193 0.930 . S
C1182 C1178 1.524 1_556 S
C1182 H1194 0.956 . S
C1182 H1195 0.961 1_556 S
C1182 H1196 0.961 . S
C1183 C1180 1.539 . S
C1183 H1197 0.958 . S
C1183 H1198 0.961 . S
C1183 H1199 0.960 . S
H1184 C1168 0.931 . S
H1185 C1173 0.929 . S
H1186 C1174 0.960 . S
H1187 C1174 0.962 1_556 S
H1188 C1174 0.960 . S
H1189 C1175 0.961 . S
H1190 C1175 0.961 . S
H1191 C1175 0.961 . S
H1192 C1176 0.931 1_556 S
H1193 C1181 0.930 . S
H1194 C1182 0.956 . S
H1195 C1182 0.961 1_554 S
H1196 C1182 0.961 . S
H1197 C1183 0.958 . S
H1198 C1183 0.961 . S
H1199 C1183 0.960 . S
C1200 C1201 1.391 . S
C1200 C1202 1.394 . S
C1200 H1216 0.931 . S
C1201 C1200 1.391 . S
C1201 C1205 1.376 . S
C1202 C1200 1.394 . S
C1202 C1203 1.369 . S
C1202 C1206 1.531 . S
C1203 C1202 1.369 . S
C1203 C1204 1.410 . S
C1203 C1211 1.503 . S
C1204 C1203 1.410 . S
C1204 C1205 1.392 . S
C1204 C1207 1.511 . S
C1205 C1201 1.376 . S
C1205 C1204 1.392 . S
C1205 H1217 0.929 . S
C1206 C1202 1.531 . S
C1206 H1218 0.960 . S
C1206 H1219 0.962 . S
C1206 H1220 0.960 . S
C1207 C1204 1.511 . S
C1207 H1221 0.961 . S
C1207 H1222 0.961 . S
C1207 H1223 0.961 . S
C1208 C1209 1.370 . S
C1208 C1210 1.363 . S
C1208 H1224 0.931 . S
C1209 C1208 1.370 . S
C1209 C1213 1.408 . S
C1210 C1208 1.363 . S
C1210 C1211 1.370 . S
C1210 C1214 1.524 . S
C1211 C1203 1.503 . S
C1211 C1210 1.370 . S
C1211 C1212 1.403 . S
C1212 C1211 1.403 . S
C1212 C1213 1.404 . S
C1212 C1215 1.539 . S
C1213 C1209 1.408 . S
C1213 C1212 1.404 . S
C1213 H1225 0.930 . S
C1214 C1210 1.524 . S
C1214 H1226 0.956 . S
C1214 H1227 0.961 . S
C1214 H1228 0.961 . S
C1215 C1212 1.539 . S
C1215 H1229 0.958 . S
C1215 H1230 0.961 . S
C1215 H1231 0.960 . S
H1216 C1200 0.931 . S
H1217 C1205 0.929 . S
H1218 C1206 0.960 . S
H1219 C1206 0.962 . S
H1220 C1206 0.960 . S
H1221 C1207 0.961 . S
H1222 C1207 0.961 . S
H1223 C1207 0.961 . S
H1224 C1208 0.931 . S
H1225 C1213 0.930 . S
H1226 C1214 0.956 . S
H1227 C1214 0.961 . S
H1228 C1214 0.961 . S
H1229 C1215 0.958 . S
H1230 C1215 0.961 . S
H1231 C1215 0.960 . S
C1232 C1233 1.391 . S
C1232 C1234 1.394 . S
C1232 H1248 0.931 . S
C1233 C1232 1.391 . S
C1233 C1237 1.376 . S
C1234 C1232 1.394 . S
C1234 C1235 1.369 . S
C1234 C1238 1.531 . S
C1235 C1234 1.369 . S
C1235 C1236 1.410 . S
C1235 C1243 1.503 1_655 S
C1236 C1235 1.410 . S
C1236 C1237 1.392 . S
C1236 C1239 1.511 . S
C1237 C1233 1.376 . S
C1237 C1236 1.392 . S
C1237 H1249 0.929 . S
C1238 C1234 1.531 . S
C1238 H1250 0.960 1_655 S
C1238 H1251 0.962 . S
C1238 H1252 0.960 . S
C1239 C1236 1.511 . S
C1239 H1253 0.961 . S
C1239 H1254 0.961 1_655 S
C1239 H1255 0.961 . S
C1240 C1241 1.370 . S
C1240 C1242 1.363 . S
C1240 H1256 0.931 . S
C1241 C1240 1.370 . S
C1241 C1245 1.408 . S
C1242 C1240 1.363 . S
C1242 C1243 1.370 . S
C1242 C1246 1.524 . S
C1243 C1235 1.503 1_455 S
C1243 C1242 1.370 . S
C1243 C1244 1.403 . S
C1244 C1243 1.403 . S
C1244 C1245 1.404 . S
C1244 C1247 1.539 . S
C1245 C1241 1.408 . S
C1245 C1244 1.404 . S
C1245 H1257 0.930 . S
C1246 C1242 1.524 . S
C1246 H1258 0.956 . S
C1246 H1259 0.959 1_456 S
C1246 H1260 0.961 1_556 S
C1247 C1244 1.539 . S
C1247 H1261 0.958 . S
C1247 H1262 0.961 . S
C1247 H1263 0.973 . S
H1248 C1232 0.931 . S
H1249 C1237 0.929 . S
H1250 C1238 0.960 1_455 S
H1251 C1238 0.962 . S
H1252 C1238 0.960 . S
H1253 C1239 0.961 . S
H1254 C1239 0.961 1_455 S
H1255 C1239 0.961 . S
H1256 C1240 0.931 . S
H1257 C1245 0.930 . S
H1258 C1246 0.956 . S
H1259 C1246 0.959 1_654 S
H1260 C1246 0.961 1_554 S
H1261 C1247 0.958 . S
H1262 C1247 0.961 . S
H1263 C1247 0.973 . S
C1264 C1265 1.391 . S
C1264 C1266 1.394 . S
C1264 H1280 0.931 . S
C1265 C1264 1.391 . S
C1265 C1269 1.376 . S
C1266 C1264 1.394 . S
C1266 C1267 1.369 . S
C1266 C1270 1.531 . S
C1267 C1266 1.369 . S
C1267 C1268 1.410 . S
C1267 C1275 1.503 . S
C1268 C1267 1.410 . S
C1268 C1269 1.392 . S
C1268 C1271 1.511 . S
C1269 C1265 1.376 . S
C1269 C1268 1.392 . S
C1269 H1281 0.929 . S
C1270 C1266 1.531 . S
C1270 H1282 0.960 . S
C1270 H1283 0.962 . S
C1270 H1284 0.960 . S
C1271 C1268 1.511 . S
C1271 H1285 0.961 . S
C1271 H1286 0.961 . S
C1271 H1287 0.961 . S
C1272 C1273 1.370 . S
C1272 C1274 1.363 . S
C1272 H1288 0.931 . S
C1273 C1272 1.370 . S
C1273 C1277 1.408 . S
C1274 C1272 1.363 . S
C1274 C1275 1.370 . S
C1274 C1278 1.524 . S
C1275 C1267 1.503 . S
C1275 C1274 1.370 . S
C1275 C1276 1.403 . S
C1276 C1275 1.403 . S
C1276 C1277 1.404 . S
C1276 C1279 1.539 . S
C1277 C1273 1.408 . S
C1277 C1276 1.404 . S
C1277 H1289 0.930 . S
C1278 C1274 1.524 . S
C1278 H1290 0.956 . S
C1278 H1291 0.961 . S
C1278 H1292 0.961 . S
C1279 C1276 1.539 . S
C1279 H1293 0.958 . S
C1279 H1294 0.961 . S
C1279 H1295 0.960 . S
H1280 C1264 0.931 . S
H1281 C1269 0.929 . S
H1282 C1270 0.960 . S
H1283 C1270 0.962 . S
H1284 C1270 0.960 . S
H1285 C1271 0.961 . S
H1286 C1271 0.961 . S
H1287 C1271 0.961 . S
H1288 C1272 0.931 . S
H1289 C1277 0.930 . S
H1290 C1278 0.956 . S
H1291 C1278 0.961 . S
H1292 C1278 0.961 . S
H1293 C1279 0.958 . S
H1294 C1279 0.961 . S
H1295 C1279 0.960 . S
C1296 C1297 1.391 . S
C1296 C1298 1.394 . S
C1296 H1312 0.931 . S
C1297 C1296 1.391 . S
C1297 C1301 1.376 . S
C1298 C1296 1.394 . S
C1298 C1299 1.369 . S
C1298 C1302 1.531 . S
C1299 C1298 1.369 . S
C1299 C1300 1.410 . S
C1299 C1307 1.503 . S
C1300 C1299 1.410 . S
C1300 C1301 1.392 . S
C1300 C1303 1.511 . S
C1301 C1297 1.376 . S
C1301 C1300 1.392 . S
C1301 H1313 0.929 . S
C1302 C1298 1.531 . S
C1302 H1314 0.960 . S
C1302 H1315 0.962 . S
C1302 H1316 0.960 . S
C1303 C1300 1.511 . S
C1303 H1317 0.961 . S
C1303 H1318 0.961 . S
C1303 H1319 0.961 . S
C1304 C1305 1.370 . S
C1304 C1306 1.363 . S
C1304 H1320 0.931 . S
C1305 C1304 1.370 . S
C1305 C1309 1.408 . S
C1306 C1304 1.363 . S
C1306 C1307 1.370 . S
C1306 C1310 1.524 . S
C1307 C1299 1.503 . S
C1307 C1306 1.370 . S
C1307 C1308 1.403 . S
C1308 C1307 1.403 . S
C1308 C1309 1.404 . S
C1308 C1311 1.539 . S
C1309 C1305 1.408 . S
C1309 C1308 1.404 . S
C1309 H1321 0.930 . S
C1310 C1306 1.524 . S
C1310 H1322 0.956 . S
C1310 H1323 0.961 . S
C1310 H1324 0.961 . S
C1311 C1308 1.539 . S
C1311 H1325 0.958 . S
C1311 H1326 0.961 . S
C1311 H1327 0.960 . S
H1312 C1296 0.931 . S
H1313 C1301 0.929 . S
H1314 C1302 0.960 . S
H1315 C1302 0.962 . S
H1316 C1302 0.960 . S
H1317 C1303 0.961 . S
H1318 C1303 0.961 . S
H1319 C1303 0.961 . S
H1320 C1304 0.931 . S
H1321 C1309 0.930 . S
H1322 C1310 0.956 . S
H1323 C1310 0.961 . S
H1324 C1310 0.961 . S
H1325 C1311 0.958 . S
H1326 C1311 0.961 . S
H1327 C1311 0.960 . S
C1328 C1329 1.391 . S
C1328 C1330 1.394 . S
C1328 H1344 0.931 . S
C1329 C1328 1.391 . S
C1329 C1333 1.376 . S
C1330 C1328 1.394 . S
C1330 C1331 1.369 . S
C1330 C1334 1.531 . S
C1331 C1330 1.369 . S
C1331 C1332 1.410 . S
C1331 C1339 1.503 1_455 S
C1332 C1331 1.410 . S
C1332 C1333 1.392 . S
C1332 C1335 1.511 . S
C1333 C1329 1.376 . S
C1333 C1332 1.392 . S
C1333 H1345 0.929 . S
C1334 C1330 1.531 . S
C1334 H1346 0.960 1_455 S
C1334 H1347 0.962 . S
C1334 H1348 0.960 . S
C1335 C1332 1.511 . S
C1335 H1349 0.961 . S
C1335 H1350 0.961 1_455 S
C1335 H1351 0.961 . S
C1336 C1337 1.370 . S
C1336 C1338 1.363 . S
C1336 H1352 0.931 . S
C1337 C1336 1.370 . S
C1337 C1341 1.408 . S
C1338 C1336 1.363 . S
C1338 C1339 1.370 . S
C1338 C1342 1.528 . S
C1339 C1331 1.503 1_655 S
C1339 C1338 1.370 . S
C1339 C1340 1.403 . S
C1340 C1339 1.403 . S
C1340 C1341 1.404 . S
C1340 C1343 1.539 . S
C1341 C1337 1.408 . S
C1341 C1340 1.404 . S
C1341 H1353 0.930 . S
C1342 C1338 1.528 . S
C1342 H1354 0.954 1_554 S
C1342 H1355 0.954 1_655 S
C1342 H1356 0.957 1_554 S
C1343 C1340 1.539 . S
C1343 H1357 0.958 . S
C1343 H1358 0.961 . S
C1343 H1359 0.980 . S
H1344 C1328 0.931 . S
H1345 C1333 0.929 . S
H1346 C1334 0.960 1_655 S
H1347 C1334 0.962 . S
H1348 C1334 0.960 . S
H1349 C1335 0.961 . S
H1350 C1335 0.961 1_655 S
H1351 C1335 0.961 . S
H1352 C1336 0.931 . S
H1353 C1341 0.930 . S
H1354 C1342 0.954 1_556 S
H1355 C1342 0.954 1_455 S
H1356 C1342 0.957 1_556 S
H1357 C1343 0.958 . S
H1358 C1343 0.961 . S
H1359 C1343 0.980 . S
C1360 C1361 1.391 1_556 S
C1360 C1362 1.394 . S
C1360 H1376 0.931 . S
C1361 C1360 1.391 1_554 S
C1361 C1365 1.376 . S
C1362 C1360 1.394 . S
C1362 C1363 1.369 . S
C1362 C1366 1.531 . S
C1363 C1362 1.369 . S
C1363 C1364 1.410 1_556 S
C1363 C1371 1.503 . S
C1364 C1363 1.410 1_554 S
C1364 C1365 1.392 . S
C1364 C1367 1.511 . S
C1365 C1361 1.376 . S
C1365 C1364 1.392 . S
C1365 H1377 0.929 . S
C1366 C1362 1.531 . S
C1366 H1378 0.960 . S
C1366 H1379 0.962 . S
C1366 H1380 0.960 . S
C1367 C1364 1.511 . S
C1367 H1381 0.961 . S
C1367 H1382 0.961 . S
C1367 H1383 0.961 . S
C1368 C1369 1.372 . S
C1368 C1370 1.363 1_556 S
C1368 H1384 0.930 1_556 S
C1369 C1368 1.372 . S
C1369 C1373 1.408 . S
C1370 C1368 1.363 1_554 S
C1370 C1371 1.370 1_554 S
C1370 C1374 1.524 . S
C1371 C1363 1.503 . S
C1371 C1370 1.370 1_556 S
C1371 C1372 1.403 . S
C1372 C1371 1.403 . S
C1372 C1373 1.404 . S
C1372 C1375 1.539 . S
C1373 C1369 1.408 . S
C1373 C1372 1.404 . S
C1373 H1385 0.930 . S
C1374 C1370 1.524 . S
C1374 H1386 0.956 . S
C1374 H1387 0.961 . S
C1374 H1388 0.961 . S
C1375 C1372 1.539 . S
C1375 H1389 0.958 . S
C1375 H1390 0.961 . S
C1375 H1391 0.960 . S
H1376 C1360 0.931 . S
H1377 C1365 0.929 . S
H1378 C1366 0.960 . S
H1379 C1366 0.962 . S
H1380 C1366 0.960 . S
H1381 C1367 0.961 . S
H1382 C1367 0.961 . S
H1383 C1367 0.961 . S
H1384 C1368 0.930 1_554 S
H1385 C1373 0.930 . S
H1386 C1374 0.956 . S
H1387 C1374 0.961 . S
H1388 C1374 0.961 . S
H1389 C1375 0.958 . S
H1390 C1375 0.961 . S
H1391 C1375 0.960 . S
C1392 C1393 1.391 . S
C1392 C1394 1.394 . S
C1392 H1408 0.931 . S
C1393 C1392 1.391 . S
C1393 C1397 1.376 . S
C1394 C1392 1.394 . S
C1394 C1395 1.369 . S
C1394 C1398 1.531 . S
C1395 C1394 1.369 . S
C1395 C1396 1.410 . S
C1395 C1403 1.503 . S
C1396 C1395 1.410 . S
C1396 C1397 1.392 . S
C1396 C1399 1.511 . S
C1397 C1393 1.376 . S
C1397 C1396 1.392 . S
C1397 H1409 0.929 . S
C1398 C1394 1.531 . S
C1398 H1410 0.960 . S
C1398 H1411 0.962 . S
C1398 H1412 0.960 . S
C1399 C1396 1.511 . S
C1399 H1413 0.961 . S
C1399 H1414 0.961 . S
C1399 H1415 0.961 . S
C1400 C1401 1.370 . S
C1400 C1402 1.363 . S
C1400 H1416 0.931 . S
C1401 C1400 1.370 . S
C1401 C1405 1.408 . S
C1402 C1400 1.363 . S
C1402 C1403 1.370 . S
C1402 C1406 1.524 . S
C1403 C1395 1.503 . S
C1403 C1402 1.370 . S
C1403 C1404 1.403 . S
C1404 C1403 1.403 . S
C1404 C1405 1.404 . S
C1404 C1407 1.539 . S
C1405 C1401 1.408 . S
C1405 C1404 1.404 . S
C1405 H1417 0.930 . S
C1406 C1402 1.524 . S
C1406 H1418 0.956 . S
C1406 H1419 0.961 . S
C1406 H1420 0.961 . S
C1407 C1404 1.539 . S
C1407 H1421 0.958 . S
C1407 H1422 0.961 . S
C1407 H1423 0.960 . S
H1408 C1392 0.931 . S
H1409 C1397 0.929 . S
H1410 C1398 0.960 . S
H1411 C1398 0.962 . S
H1412 C1398 0.960 . S
H1413 C1399 0.961 . S
H1414 C1399 0.961 . S
H1415 C1399 0.961 . S
H1416 C1400 0.931 . S
H1417 C1405 0.930 . S
H1418 C1406 0.956 . S
H1419 C1406 0.961 . S
H1420 C1406 0.961 . S
H1421 C1407 0.958 . S
H1422 C1407 0.961 . S
H1423 C1407 0.960 . S
C1424 C1425 1.391 . S
C1424 C1426 1.394 . S
C1424 H1440 0.931 . S
C1425 C1424 1.391 . S
C1425 C1429 1.376 . S
C1426 C1424 1.394 . S
C1426 C1427 1.369 . S
C1426 C1430 1.531 . S
C1427 C1426 1.369 . S
C1427 C1428 1.410 . S
C1427 C1435 1.503 . S
C1428 C1427 1.410 . S
C1428 C1429 1.392 . S
C1428 C1431 1.511 . S
C1429 C1425 1.376 . S
C1429 C1428 1.392 . S
C1429 H1441 0.929 . S
C1430 C1426 1.531 . S
C1430 H1442 0.960 . S
C1430 H1443 0.962 . S
C1430 H1444 0.960 . S
C1431 C1428 1.511 . S
C1431 H1445 0.961 . S
C1431 H1446 0.961 . S
C1431 H1447 0.961 . S
C1432 C1433 1.370 . S
C1432 C1434 1.363 . S
C1432 H1448 0.931 . S
C1433 C1432 1.370 . S
C1433 C1437 1.408 . S
C1434 C1432 1.363 . S
C1434 C1435 1.370 . S
C1434 C1438 1.524 . S
C1435 C1427 1.503 . S
C1435 C1434 1.370 . S
C1435 C1436 1.403 . S
C1436 C1435 1.403 . S
C1436 C1437 1.404 . S
C1436 C1439 1.539 . S
C1437 C1433 1.408 . S
C1437 C1436 1.404 . S
C1437 H1449 0.930 . S
C1438 C1434 1.524 . S
C1438 H1450 0.956 . S
C1438 H1451 0.961 . S
C1438 H1452 0.961 . S
C1439 C1436 1.539 . S
C1439 H1453 0.958 . S
C1439 H1454 0.961 . S
C1439 H1455 0.960 . S
H1440 C1424 0.931 . S
H1441 C1429 0.929 . S
H1442 C1430 0.960 . S
H1443 C1430 0.962 . S
H1444 C1430 0.960 . S
H1445 C1431 0.961 . S
H1446 C1431 0.961 . S
H1447 C1431 0.961 . S
H1448 C1432 0.931 . S
H1449 C1437 0.930 . S
H1450 C1438 0.956 . S
H1451 C1438 0.961 . S
H1452 C1438 0.961 . S
H1453 C1439 0.958 . S
H1454 C1439 0.961 . S
H1455 C1439 0.960 . S
C1456 C1457 1.391 . S
C1456 C1458 1.394 . S
C1456 H1472 0.931 . S
C1457 C1456 1.391 . S
C1457 C1461 1.376 . S
C1458 C1456 1.394 . S
C1458 C1459 1.369 . S
C1458 C1462 1.531 . S
C1459 C1458 1.369 . S
C1459 C1460 1.410 . S
C1459 C1467 1.503 . S
C1460 C1459 1.410 . S
C1460 C1461 1.392 . S
C1460 C1463 1.511 . S
C1461 C1457 1.376 . S
C1461 C1460 1.392 . S
C1461 H1473 0.929 . S
C1462 C1458 1.531 . S
C1462 H1474 0.960 . S
C1462 H1475 0.962 . S
C1462 H1476 0.960 . S
C1463 C1460 1.511 . S
C1463 H1477 0.961 . S
C1463 H1478 0.961 . S
C1463 H1479 0.961 . S
C1464 C1465 1.370 . S
C1464 C1466 1.363 . S
C1464 H1480 0.931 . S
C1465 C1464 1.370 . S
C1465 C1469 1.408 . S
C1466 C1464 1.363 . S
C1466 C1467 1.370 . S
C1466 C1470 1.524 . S
C1467 C1459 1.503 . S
C1467 C1466 1.370 . S
C1467 C1468 1.403 . S
C1468 C1467 1.403 . S
C1468 C1469 1.404 . S
C1468 C1471 1.539 . S
C1469 C1465 1.408 . S
C1469 C1468 1.404 . S
C1469 H1481 0.930 . S
C1470 C1466 1.524 . S
C1470 H1482 0.956 . S
C1470 H1483 0.961 . S
C1470 H1484 0.961 . S
C1471 C1468 1.539 . S
C1471 H1485 0.958 . S
C1471 H1486 0.961 . S
C1471 H1487 0.960 . S
H1472 C1456 0.931 . S
H1473 C1461 0.929 . S
H1474 C1462 0.960 . S
H1475 C1462 0.962 . S
H1476 C1462 0.960 . S
H1477 C1463 0.961 . S
H1478 C1463 0.961 . S
H1479 C1463 0.961 . S
H1480 C1464 0.931 . S
H1481 C1469 0.930 . S
H1482 C1470 0.956 . S
H1483 C1470 0.961 . S
H1484 C1470 0.961 . S
H1485 C1471 0.958 . S
H1486 C1471 0.961 . S
H1487 C1471 0.960 . S
C1488 C1489 1.391 1_556 S
C1488 C1490 1.394 . S
C1488 H1504 0.931 . S
C1489 C1488 1.391 1_554 S
C1489 C1493 1.376 . S
C1490 C1488 1.394 . S
C1490 C1491 1.369 . S
C1490 C1494 1.531 . S
C1491 C1490 1.369 . S
C1491 C1492 1.410 1_556 S
C1491 C1499 1.503 . S
C1492 C1491 1.410 1_554 S
C1492 C1493 1.392 . S
C1492 C1495 1.511 . S
C1493 C1489 1.376 . S
C1493 C1492 1.392 . S
C1493 H1505 0.929 . S
C1494 C1490 1.531 . S
C1494 H1506 0.960 . S
C1494 H1507 0.962 . S
C1494 H1508 0.960 . S
C1495 C1492 1.511 . S
C1495 H1509 0.961 . S
C1495 H1510 0.961 . S
C1495 H1511 0.961 . S
C1496 C1497 1.370 1_554 S
C1496 C1498 1.363 . S
C1496 H1512 0.931 . S
C1497 C1496 1.370 1_556 S
C1497 C1501 1.408 . S
C1498 C1496 1.363 . S
C1498 C1499 1.370 1_554 S
C1498 C1502 1.524 . S
C1499 C1491 1.503 . S
C1499 C1498 1.370 1_556 S
C1499 C1500 1.403 . S
C1500 C1499 1.403 . S
C1500 C1501 1.404 . S
C1500 C1503 1.539 . S
C1501 C1497 1.408 . S
C1501 C1500 1.404 . S
C1501 H1513 0.930 . S
C1502 C1498 1.524 . S
C1502 H1514 0.956 . S
C1502 H1515 0.961 . S
C1502 H1516 0.961 . S
C1503 C1500 1.539 . S
C1503 H1517 0.958 . S
C1503 H1518 0.961 . S
C1503 H1519 0.960 . S
H1504 C1488 0.931 . S
H1505 C1493 0.929 . S
H1506 C1494 0.960 . S
H1507 C1494 0.962 . S
H1508 C1494 0.960 . S
H1509 C1495 0.961 . S
H1510 C1495 0.961 . S
H1511 C1495 0.961 . S
H1512 C1496 0.931 . S
H1513 C1501 0.930 . S
H1514 C1502 0.956 . S
H1515 C1502 0.961 . S
H1516 C1502 0.961 . S
H1517 C1503 0.958 . S
H1518 C1503 0.961 . S
H1519 C1503 0.960 . S
C1520 C1521 1.391 . S
C1520 C1522 1.394 . S
C1520 H1536 0.931 . S
C1521 C1520 1.391 . S
C1521 C1525 1.376 . S
C1522 C1520 1.394 . S
C1522 C1523 1.369 . S
C1522 C1526 1.531 . S
C1523 C1522 1.369 . S
C1523 C1524 1.410 . S
C1523 C1531 1.503 . S
C1524 C1523 1.410 . S
C1524 C1525 1.392 . S
C1524 C1527 1.511 . S
C1525 C1521 1.376 . S
C1525 C1524 1.392 . S
C1525 H1537 0.929 . S
C1526 C1522 1.531 . S
C1526 H1538 0.960 . S
C1526 H1539 0.962 . S
C1526 H1540 0.960 . S
C1527 C1524 1.511 . S
C1527 H1541 0.961 . S
C1527 H1542 0.961 . S
C1527 H1543 0.961 . S
C1528 C1529 1.370 . S
C1528 C1530 1.363 . S
C1528 H1544 0.931 . S
C1529 C1528 1.370 . S
C1529 C1533 1.408 . S
C1530 C1528 1.363 . S
C1530 C1531 1.370 . S
C1530 C1534 1.524 . S
C1531 C1523 1.503 . S
C1531 C1530 1.370 . S
C1531 C1532 1.403 . S
C1532 C1531 1.403 . S
C1532 C1533 1.404 . S
C1532 C1535 1.539 . S
C1533 C1529 1.408 . S
C1533 C1532 1.404 . S
C1533 H1545 0.930 . S
C1534 C1530 1.524 . S
C1534 H1546 0.956 . S
C1534 H1547 0.961 . S
C1534 H1548 0.961 . S
C1535 C1532 1.539 . S
C1535 H1549 0.958 . S
C1535 H1550 0.961 . S
C1535 H1551 0.960 . S
H1536 C1520 0.931 . S
H1537 C1525 0.929 . S
H1538 C1526 0.960 . S
H1539 C1526 0.962 . S
H1540 C1526 0.960 . S
H1541 C1527 0.961 . S
H1542 C1527 0.961 . S
H1543 C1527 0.961 . S
H1544 C1528 0.931 . S
H1545 C1533 0.930 . S
H1546 C1534 0.956 . S
H1547 C1534 0.961 . S
H1548 C1534 0.961 . S
H1549 C1535 0.958 . S
H1550 C1535 0.961 . S
H1551 C1535 0.960 . S
C1552 C1553 1.391 . S
C1552 C1554 1.394 . S
C1552 H1568 0.931 . S
C1553 C1552 1.391 . S
C1553 C1557 1.376 . S
C1554 C1552 1.394 . S
C1554 C1555 1.369 . S
C1554 C1558 1.531 . S
C1555 C1554 1.369 . S
C1555 C1556 1.410 . S
C1555 C1563 1.503 . S
C1556 C1555 1.410 . S
C1556 C1557 1.392 . S
C1556 C1559 1.511 . S
C1557 C1553 1.376 . S
C1557 C1556 1.392 . S
C1557 H1569 0.929 . S
C1558 C1554 1.531 . S
C1558 H1570 0.960 . S
C1558 H1571 0.962 . S
C1558 H1572 0.960 . S
C1559 C1556 1.511 . S
C1559 H1573 0.961 . S
C1559 H1574 0.961 . S
C1559 H1575 0.961 . S
C1560 C1561 1.370 . S
C1560 C1562 1.363 . S
C1560 H1576 0.931 . S
C1561 C1560 1.370 . S
C1561 C1565 1.408 . S
C1562 C1560 1.363 . S
C1562 C1563 1.370 . S
C1562 C1566 1.524 . S
C1563 C1555 1.503 . S
C1563 C1562 1.370 . S
C1563 C1564 1.403 . S
C1564 C1563 1.403 . S
C1564 C1565 1.404 . S
C1564 C1567 1.539 . S
C1565 C1561 1.408 . S
C1565 C1564 1.404 . S
C1565 H1577 0.930 . S
C1566 C1562 1.524 . S
C1566 H1578 0.956 . S
C1566 H1579 0.961 . S
C1566 H1580 0.961 . S
C1567 C1564 1.539 . S
C1567 H1581 0.958 . S
C1567 H1582 0.961 . S
C1567 H1583 0.960 . S
H1568 C1552 0.931 . S
H1569 C1557 0.929 . S
H1570 C1558 0.960 . S
H1571 C1558 0.962 . S
H1572 C1558 0.960 . S
H1573 C1559 0.961 . S
H1574 C1559 0.961 . S
H1575 C1559 0.961 . S
H1576 C1560 0.931 . S
H1577 C1565 0.930 . S
H1578 C1566 0.956 . S
H1579 C1566 0.961 . S
H1580 C1566 0.961 . S
H1581 C1567 0.958 . S
H1582 C1567 0.961 . S
H1583 C1567 0.960 . S
C1584 C1585 1.391 . S
C1584 C1586 1.394 . S
C1584 H1600 0.931 . S
C1585 C1584 1.391 . S
C1585 C1589 1.376 . S
C1586 C1584 1.394 . S
C1586 C1587 1.369 . S
C1586 C1590 1.531 . S
C1587 C1586 1.369 . S
C1587 C1588 1.410 . S
C1587 C1595 1.503 . S
C1588 C1587 1.410 . S
C1588 C1589 1.392 . S
C1588 C1591 1.511 . S
C1589 C1585 1.376 . S
C1589 C1588 1.392 . S
C1589 H1601 0.929 . S
C1590 C1586 1.531 . S
C1590 H1602 0.960 . S
C1590 H1603 0.962 . S
C1590 H1604 0.960 . S
C1591 C1588 1.511 . S
C1591 H1605 0.961 . S
C1591 H1606 0.961 . S
C1591 H1607 0.961 . S
C1592 C1593 1.370 . S
C1592 C1594 1.363 . S
C1592 H1608 0.931 . S
C1593 C1592 1.370 . S
C1593 C1597 1.408 . S
C1594 C1592 1.363 . S
C1594 C1595 1.370 . S
C1594 C1598 1.524 . S
C1595 C1587 1.503 . S
C1595 C1594 1.370 . S
C1595 C1596 1.403 . S
C1596 C1595 1.403 . S
C1596 C1597 1.404 . S
C1596 C1599 1.539 . S
C1597 C1593 1.408 . S
C1597 C1596 1.404 . S
C1597 H1609 0.930 . S
C1598 C1594 1.524 . S
C1598 H1610 0.956 . S
C1598 H1611 0.961 . S
C1598 H1612 0.961 . S
C1599 C1596 1.539 . S
C1599 H1613 0.958 . S
C1599 H1614 0.961 . S
C1599 H1615 0.960 . S
H1600 C1584 0.931 . S
H1601 C1589 0.929 . S
H1602 C1590 0.960 . S
H1603 C1590 0.962 . S
H1604 C1590 0.960 . S
H1605 C1591 0.961 . S
H1606 C1591 0.961 . S
H1607 C1591 0.961 . S
H1608 C1592 0.931 . S
H1609 C1597 0.930 . S
H1610 C1598 0.956 . S
H1611 C1598 0.961 . S
H1612 C1598 0.961 . S
H1613 C1599 0.958 . S
H1614 C1599 0.961 . S
H1615 C1599 0.960 . S
C1616 C1617 1.391 . S
C1616 C1618 1.394 . S
C1616 H1632 0.931 . S
C1617 C1616 1.391 . S
C1617 C1621 1.376 . S
C1618 C1616 1.394 . S
C1618 C1619 1.369 . S
C1618 C1622 1.531 . S
C1619 C1618 1.369 . S
C1619 C1620 1.410 . S
C1619 C1627 1.503 1_565 S
C1620 C1619 1.410 . S
C1620 C1621 1.392 . S
C1620 C1623 1.511 . S
C1621 C1617 1.376 . S
C1621 C1620 1.392 . S
C1621 H1633 0.929 . S
C1622 C1618 1.531 . S
C1622 H1634 0.960 . S
C1622 H1635 0.962 . S
C1622 H1636 0.960 . S
C1623 C1620 1.511 . S
C1623 H1637 0.961 . S
C1623 H1638 0.961 1_565 S
C1623 H1639 0.961 . S
C1624 C1625 1.370 . S
C1624 C1626 1.363 . S
C1624 H1640 0.931 . S
C1625 C1624 1.370 . S
C1625 C1629 1.408 . S
C1626 C1624 1.363 . S
C1626 C1627 1.370 . S
C1626 C1630 1.524 . S
C1627 C1619 1.503 1_545 S
C1627 C1626 1.370 . S
C1627 C1628 1.403 . S
C1628 C1627 1.403 . S
C1628 C1629 1.404 . S
C1628 C1631 1.539 . S
C1629 C1625 1.408 . S
C1629 C1628 1.404 . S
C1629 H1641 0.930 . S
C1630 C1626 1.524 . S
C1630 H1642 0.956 . S
C1630 H1643 0.961 . S
C1630 H1644 0.961 . S
C1631 C1628 1.539 . S
C1631 H1645 0.958 . S
C1631 H1646 0.961 . S
C1631 H1647 0.960 1_545 S
H1632 C1616 0.931 . S
H1633 C1621 0.929 . S
H1634 C1622 0.960 . S
H1635 C1622 0.962 . S
H1636 C1622 0.960 . S
H1637 C1623 0.961 . S
H1638 C1623 0.961 1_545 S
H1639 C1623 0.961 . S
H1640 C1624 0.931 . S
H1641 C1629 0.930 . S
H1642 C1630 0.956 . S
H1643 C1630 0.961 . S
H1644 C1630 0.961 . S
H1645 C1631 0.958 . S
H1646 C1631 0.961 . S
H1647 C1631 0.960 1_565 S
C1648 C1649 1.391 . S
C1648 C1650 1.394 . S
C1648 H1664 0.931 . S
C1649 C1648 1.391 . S
C1649 C1653 1.376 . S
C1650 C1648 1.394 . S
C1650 C1651 1.369 . S
C1650 C1654 1.531 . S
C1651 C1650 1.369 . S
C1651 C1652 1.410 . S
C1651 C1659 1.503 . S
C1652 C1651 1.410 . S
C1652 C1653 1.392 . S
C1652 C1655 1.511 . S
C1653 C1649 1.376 . S
C1653 C1652 1.392 . S
C1653 H1665 0.929 . S
C1654 C1650 1.531 . S
C1654 H1666 0.960 . S
C1654 H1667 0.962 . S
C1654 H1668 0.960 . S
C1655 C1652 1.511 . S
C1655 H1669 0.961 . S
C1655 H1670 0.961 . S
C1655 H1671 0.961 . S
C1656 C1657 1.370 . S
C1656 C1658 1.363 . S
C1656 H1672 0.931 . S
C1657 C1656 1.370 . S
C1657 C1661 1.408 . S
C1658 C1656 1.363 . S
C1658 C1659 1.370 . S
C1658 C1662 1.524 . S
C1659 C1651 1.503 . S
C1659 C1658 1.370 . S
C1659 C1660 1.403 . S
C1660 C1659 1.403 . S
C1660 C1661 1.404 . S
C1660 C1663 1.539 . S
C1661 C1657 1.408 . S
C1661 C1660 1.404 . S
C1661 H1673 0.930 . S
C1662 C1658 1.524 . S
C1662 H1674 0.956 . S
C1662 H1675 0.961 . S
C1662 H1676 0.961 . S
C1663 C1660 1.539 . S
C1663 H1677 0.958 . S
C1663 H1678 0.961 . S
C1663 H1679 0.960 . S
H1664 C1648 0.931 . S
H1665 C1653 0.929 . S
H1666 C1654 0.960 . S
H1667 C1654 0.962 . S
H1668 C1654 0.960 . S
H1669 C1655 0.961 . S
H1670 C1655 0.961 . S
H1671 C1655 0.961 . S
H1672 C1656 0.931 . S
H1673 C1661 0.930 . S
H1674 C1662 0.956 . S
H1675 C1662 0.961 . S
H1676 C1662 0.961 . S
H1677 C1663 0.958 . S
H1678 C1663 0.961 . S
H1679 C1663 0.960 . S
C1680 C1681 1.391 . S
C1680 C1682 1.394 . S
C1680 H1696 0.931 . S
C1681 C1680 1.391 . S
C1681 C1685 1.376 . S
C1682 C1680 1.394 . S
C1682 C1683 1.369 . S
C1682 C1686 1.531 1_554 S
C1683 C1682 1.369 . S
C1683 C1684 1.410 . S
C1683 C1691 1.503 1_565 S
C1684 C1683 1.410 . S
C1684 C1685 1.392 . S
C1684 C1687 1.511 . S
C1685 C1681 1.376 . S
C1685 C1684 1.392 . S
C1685 H1697 0.929 . S
C1686 C1682 1.531 1_556 S
C1686 H1698 0.960 1_566 S
C1686 H1699 0.962 . S
C1686 H1700 0.960 1_556 S
C1687 C1684 1.511 . S
C1687 H1701 0.961 . S
C1687 H1702 0.961 1_565 S
C1687 H1703 0.961 . S
C1688 C1689 1.370 . S
C1688 C1690 1.363 . S
C1688 H1704 0.931 . S
C1689 C1688 1.370 . S
C1689 C1693 1.408 1_556 S
C1690 C1688 1.363 . S
C1690 C1691 1.370 1_556 S
C1690 C1694 1.498 1_545 S
C1691 C1683 1.503 1_545 S
C1691 C1690 1.370 1_554 S
C1691 C1692 1.403 . S
C1692 C1691 1.403 . S
C1692 C1693 1.404 . S
C1692 C1695 1.539 . S
C1693 C1689 1.408 1_554 S
C1693 C1692 1.404 . S
C1693 H1705 0.930 . S
C1694 C1690 1.498 1_565 S
C1694 H1706 0.977 . S
C1694 H1707 0.982 . S
C1694 H1708 0.946 1_565 S
C1695 C1692 1.539 . S
C1695 H1709 0.958 . S
C1695 H1710 0.961 . S
C1695 H1711 0.960 . S
H1696 C1680 0.931 . S
H1697 C1685 0.929 . S
H1698 C1686 0.960 1_544 S
H1699 C1686 0.962 . S
H1700 C1686 0.960 1_554 S
H1701 C1687 0.961 . S
H1702 C1687 0.961 1_545 S
H1703 C1687 0.961 . S
H1704 C1688 0.931 . S
H1705 C1693 0.930 . S
H1706 C1694 0.977 . S
H1707 C1694 0.982 . S
H1708 C1694 0.946 1_545 S
H1709 C1695 0.958 . S
H1710 C1695 0.961 . S
H1711 C1695 0.960 . S
C1712 C1713 1.391 . S
C1712 C1714 1.394 . S
C1712 H1728 0.931 . S
C1713 C1712 1.391 . S
C1713 C1717 1.376 . S
C1714 C1712 1.394 . S
C1714 C1715 1.369 . S
C1714 C1718 1.531 . S
C1715 C1714 1.369 . S
C1715 C1716 1.410 . S
C1715 C1723 1.503 . S
C1716 C1715 1.410 . S
C1716 C1717 1.392 . S
C1716 C1719 1.511 . S
C1717 C1713 1.376 . S
C1717 C1716 1.392 . S
C1717 H1729 0.929 . S
C1718 C1714 1.531 . S
C1718 H1730 0.960 . S
C1718 H1731 0.962 . S
C1718 H1732 0.960 . S
C1719 C1716 1.511 . S
C1719 H1733 0.961 . S
C1719 H1734 0.961 . S
C1719 H1735 0.961 . S
C1720 C1721 1.370 . S
C1720 C1722 1.363 . S
C1720 H1736 0.931 . S
C1721 C1720 1.370 . S
C1721 C1725 1.408 . S
C1722 C1720 1.363 . S
C1722 C1723 1.370 . S
C1722 C1726 1.524 . S
C1723 C1715 1.503 . S
C1723 C1722 1.370 . S
C1723 C1724 1.403 . S
C1724 C1723 1.403 . S
C1724 C1725 1.404 . S
C1724 C1727 1.539 . S
C1725 C1721 1.408 . S
C1725 C1724 1.404 . S
C1725 H1737 0.930 . S
C1726 C1722 1.524 . S
C1726 H1738 0.956 . S
C1726 H1739 0.961 . S
C1726 H1740 0.961 . S
C1727 C1724 1.539 . S
C1727 H1741 0.958 . S
C1727 H1742 0.961 . S
C1727 H1743 0.960 . S
H1728 C1712 0.931 . S
H1729 C1717 0.929 . S
H1730 C1718 0.960 . S
H1731 C1718 0.962 . S
H1732 C1718 0.960 . S
H1733 C1719 0.961 . S
H1734 C1719 0.961 . S
H1735 C1719 0.961 . S
H1736 C1720 0.931 . S
H1737 C1725 0.930 . S
H1738 C1726 0.956 . S
H1739 C1726 0.961 . S
H1740 C1726 0.961 . S
H1741 C1727 0.958 . S
H1742 C1727 0.961 . S
H1743 C1727 0.960 . S
C1744 C1745 1.391 . S
C1744 C1746 1.394 . S
C1744 H1760 0.931 . S
C1745 C1744 1.391 . S
C1745 C1749 1.376 . S
C1746 C1744 1.394 . S
C1746 C1747 1.369 . S
C1746 C1750 1.531 . S
C1747 C1746 1.369 . S
C1747 C1748 1.410 . S
C1747 C1755 1.503 1_565 S
C1748 C1747 1.410 . S
C1748 C1749 1.392 . S
C1748 C1751 1.511 . S
C1749 C1745 1.376 . S
C1749 C1748 1.392 . S
C1749 H1761 0.929 . S
C1750 C1746 1.531 . S
C1750 H1762 0.960 1_565 S
C1750 H1763 0.962 . S
C1750 H1764 0.960 . S
C1751 C1748 1.511 . S
C1751 H1765 0.961 . S
C1751 H1766 0.924 1_565 S
C1751 H1767 0.961 . S
C1752 C1753 1.370 . S
C1752 C1754 1.363 . S
C1752 H1768 0.931 . S
C1753 C1752 1.370 . S
C1753 C1757 1.408 . S
C1754 C1752 1.363 . S
C1754 C1755 1.370 . S
C1754 C1758 1.520 1_545 S
C1755 C1747 1.503 1_545 S
C1755 C1754 1.370 . S
C1755 C1756 1.403 . S
C1756 C1755 1.403 . S
C1756 C1757 1.404 . S
C1756 C1759 1.539 . S
C1757 C1753 1.408 . S
C1757 C1756 1.404 . S
C1757 H1769 0.930 . S
C1758 C1754 1.520 1_565 S
C1758 H1770 0.959 . S
C1758 H1771 0.965 . S
C1758 H1772 0.958 1_565 S
C1759 C1756 1.539 . S
C1759 H1773 0.958 . S
C1759 H1774 0.961 . S
C1759 H1775 0.960 . S
H1760 C1744 0.931 . S
H1761 C1749 0.929 . S
H1762 C1750 0.960 1_545 S
H1763 C1750 0.962 . S
H1764 C1750 0.960 . S
H1765 C1751 0.961 . S
H1766 C1751 0.924 1_545 S
H1767 C1751 0.961 . S
H1768 C1752 0.931 . S
H1769 C1757 0.930 . S
H1770 C1758 0.959 . S
H1771 C1758 0.965 . S
H1772 C1758 0.958 1_545 S
H1773 C1759 0.958 . S
H1774 C1759 0.961 . S
H1775 C1759 0.960 . S
C1776 C1777 1.391 . S
C1776 C1778 1.394 . S
C1776 H1792 0.931 . S
C1777 C1776 1.391 . S
C1777 C1781 1.376 . S
C1778 C1776 1.394 . S
C1778 C1779 1.369 . S
C1778 C1782 1.531 . S
C1779 C1778 1.369 . S
C1779 C1780 1.410 . S
C1779 C1787 1.503 . S
C1780 C1779 1.410 . S
C1780 C1781 1.392 . S
C1780 C1783 1.511 . S
C1781 C1777 1.376 . S
C1781 C1780 1.392 . S
C1781 H1793 0.929 . S
C1782 C1778 1.531 . S
C1782 H1794 0.960 . S
C1782 H1795 0.962 . S
C1782 H1796 0.960 . S
C1783 C1780 1.511 . S
C1783 H1797 0.961 . S
C1783 H1798 0.961 . S
C1783 H1799 0.961 . S
C1784 C1785 1.370 . S
C1784 C1786 1.363 . S
C1784 H1800 0.931 . S
C1785 C1784 1.370 . S
C1785 C1789 1.408 . S
C1786 C1784 1.363 . S
C1786 C1787 1.370 . S
C1786 C1790 1.524 . S
C1787 C1779 1.503 . S
C1787 C1786 1.370 . S
C1787 C1788 1.403 . S
C1788 C1787 1.403 . S
C1788 C1789 1.404 . S
C1788 C1791 1.539 . S
C1789 C1785 1.408 . S
C1789 C1788 1.404 . S
C1789 H1801 0.930 . S
C1790 C1786 1.524 . S
C1790 H1802 0.956 . S
C1790 H1803 0.961 . S
C1790 H1804 0.961 . S
C1791 C1788 1.539 . S
C1791 H1805 0.958 . S
C1791 H1806 0.961 . S
C1791 H1807 0.960 . S
H1792 C1776 0.931 . S
H1793 C1781 0.929 . S
H1794 C1782 0.960 . S
H1795 C1782 0.962 . S
H1796 C1782 0.960 . S
H1797 C1783 0.961 . S
H1798 C1783 0.961 . S
H1799 C1783 0.961 . S
H1800 C1784 0.931 . S
H1801 C1789 0.930 . S
H1802 C1790 0.956 . S
H1803 C1790 0.961 . S
H1804 C1790 0.961 . S
H1805 C1791 0.958 . S
H1806 C1791 0.961 . S
H1807 C1791 0.960 . S
C1808 C1809 1.391 1_554 S
C1808 C1810 1.394 . S
C1808 H1824 0.931 . S
C1809 C1808 1.391 1_556 S
C1809 C1813 1.376 . S
C1810 C1808 1.394 . S
C1810 C1811 1.369 . S
C1810 C1814 1.531 . S
C1811 C1810 1.369 . S
C1811 C1812 1.410 1_554 S
C1811 C1819 1.503 1_545 S
C1812 C1811 1.410 1_556 S
C1812 C1813 1.392 . S
C1812 C1815 1.511 . S
C1813 C1809 1.376 . S
C1813 C1812 1.392 . S
C1813 H1825 0.929 . S
C1814 C1810 1.531 . S
C1814 H1826 0.960 . S
C1814 H1827 0.962 . S
C1814 H1828 0.960 . S
C1815 C1812 1.511 . S
C1815 H1829 0.961 . S
C1815 H1830 0.961 1_545 S
C1815 H1831 0.964 . S
C1816 C1817 1.370 . S
C1816 C1818 1.363 1_554 S
C1816 H1832 0.931 . S
C1817 C1816 1.370 . S
C1817 C1821 1.408 . S
C1818 C1816 1.363 1_556 S
C1818 C1819 1.370 1_556 S
C1818 C1822 1.524 . S
C1819 C1811 1.503 1_565 S
C1819 C1818 1.370 1_554 S
C1819 C1820 1.403 . S
C1820 C1819 1.403 . S
C1820 C1821 1.404 . S
C1820 C1823 1.539 . S
C1821 C1817 1.408 . S
C1821 C1820 1.404 . S
C1821 H1833 0.930 . S
C1822 C1818 1.524 . S
C1822 H1834 0.956 . S
C1822 H1835 0.961 . S
C1822 H1836 0.961 . S
C1823 C1820 1.539 . S
C1823 H1837 0.958 . S
C1823 H1838 0.961 . S
C1823 H1839 0.960 1_565 S
H1824 C1808 0.931 . S
H1825 C1813 0.929 . S
H1826 C1814 0.960 . S
H1827 C1814 0.962 . S
H1828 C1814 0.960 . S
H1829 C1815 0.961 . S
H1830 C1815 0.961 1_565 S
H1831 C1815 0.964 . S
H1832 C1816 0.931 . S
H1833 C1821 0.930 . S
H1834 C1822 0.956 . S
H1835 C1822 0.961 . S
H1836 C1822 0.961 . S
H1837 C1823 0.958 . S
H1838 C1823 0.961 . S
H1839 C1823 0.960 1_545 S
C1840 C1841 1.391 . S
C1840 C1842 1.394 . S
C1840 H1856 0.931 . S
C1841 C1840 1.391 . S
C1841 C1845 1.376 . S
C1842 C1840 1.394 . S
C1842 C1843 1.369 . S
C1842 C1846 1.531 . S
C1843 C1842 1.369 . S
C1843 C1844 1.410 . S
C1843 C1851 1.503 . S
C1844 C1843 1.410 . S
C1844 C1845 1.392 . S
C1844 C1847 1.511 . S
C1845 C1841 1.376 . S
C1845 C1844 1.392 . S
C1845 H1857 0.929 . S
C1846 C1842 1.531 . S
C1846 H1858 0.960 . S
C1846 H1859 0.962 . S
C1846 H1860 0.960 . S
C1847 C1844 1.511 . S
C1847 H1861 0.961 . S
C1847 H1862 0.961 . S
C1847 H1863 0.961 . S
C1848 C1849 1.370 . S
C1848 C1850 1.363 . S
C1848 H1864 0.931 . S
C1849 C1848 1.370 . S
C1849 C1853 1.408 . S
C1850 C1848 1.363 . S
C1850 C1851 1.370 . S
C1850 C1854 1.524 . S
C1851 C1843 1.503 . S
C1851 C1850 1.370 . S
C1851 C1852 1.403 . S
C1852 C1851 1.403 . S
C1852 C1853 1.404 . S
C1852 C1855 1.539 . S
C1853 C1849 1.408 . S
C1853 C1852 1.404 . S
C1853 H1865 0.930 . S
C1854 C1850 1.524 . S
C1854 H1866 0.956 . S
C1854 H1867 0.961 . S
C1854 H1868 0.961 . S
C1855 C1852 1.539 . S
C1855 H1869 0.958 . S
C1855 H1870 0.961 . S
C1855 H1871 0.960 . S
H1856 C1840 0.931 . S
H1857 C1845 0.929 . S
H1858 C1846 0.960 . S
H1859 C1846 0.962 . S
H1860 C1846 0.960 . S
H1861 C1847 0.961 . S
H1862 C1847 0.961 . S
H1863 C1847 0.961 . S
H1864 C1848 0.931 . S
H1865 C1853 0.930 . S
H1866 C1854 0.956 . S
H1867 C1854 0.961 . S
H1868 C1854 0.961 . S
H1869 C1855 0.958 . S
H1870 C1855 0.961 . S
H1871 C1855 0.960 . S
C337 C20 1.354 . S
C345 C16 1.305 . S
C369 C41 1.340 . S
C377 C37 1.308 . S
C401 C45 1.355 . S
C409 C61 1.302 . S
C433 C66 1.336 . S
C441 C82 1.306 . S
C465 C87 1.324 . S
C473 C103 1.307 . S
C497 C108 1.290 . S
C505 C124 1.322 . S
C529 C145 1.363 . S
C537 C129 1.307 . S
C561 C167 1.310 . S
C569 C163 1.315 . S
C593 C171 1.280 . S
C601 C187 1.320 . S
C625 C192 1.336 . S
C633 C208 1.303 . S
C657 C229 1.281 . S
C665 C213 1.343 . S
C689 C251 1.271 . S
C697 C247 1.335 . S
C721 C268 1.294 . S
C729 C272 1.317 . S
C753 C289 1.362 . S
C761 C293 1.307 . S
C785 C297 1.322 . S
C793 C313 1.304 . S
C817 C318 1.338 . S
C825 C334 1.330 . S
C849 C3 1.311 . S
C857 C238 1.304 . S
C881 C24 1.274 . S
C889 C319 1.284 . S
C913 C46 1.339 . S
C921 C193 1.319 . S
C945 C67 1.322 . S
C953 C280 1.300 . S
C977 C88 1.330 . S
C985 C276 1.340 . S
C1009 C234 1.382 . S
C1017 C121 1.367 . S
C1041 C142 1.357 . S
C1049 C331 1.360 . S
C1073 C150 1.289 . S
C1081 C205 1.324 . S
C1105 C79 1.320 . S
C1113 C172 1.314 . S
C1137 C28 1.288 . S
C1145 C214 1.291 . S
C1169 C259 1.292 . S
C1177 C109 1.302 . S
C1201 C154 1.315 . S
C1209 C298 1.305 . S
C1233 C184 1.301 . S
C1241 C100 1.329 . S
C1265 C130 1.340 . S
C1273 C226 1.338 . S
C1297 C58 1.302 . S
C1305 C310 1.327 . S
C1329 C7 1.259 . S
C1337 C255 1.304 . S
C1361 C19 1.386 . S
C1369 C91 1.340 . S
C1393 C40 1.364 . S
C1401 C125 1.368 . S
C1425 C49 1.292 . S
C1433 C146 1.350 . S
C1457 C70 1.340 . S
C1465 C166 1.356 . S
C1489 C256 1.366 . S
C1497 C175 1.336 . S
C1521 C277 1.391 . S
C1529 C209 1.343 . S
C1553 C217 1.323 . S
C1561 C301 1.367 . S
C1585 C322 1.295 . S
C1593 C250 1.361 . S
C1617 C25 1.393 . S
C1625 C151 1.361 . S
C1649 C104 1.374 . S
C1657 C62 1.344 . S
C1681 C112 1.303 . S
C1689 C83 1.357 . S
C1713 C4 1.372 . S
C1721 C133 1.390 . S
C1745 C335 1.311 . S
C1753 C196 1.361 . S
C1777 C271 1.319 . S
C1785 C230 1.346 . S
C1809 C292 1.346 . S
C1817 C235 1.338 . S
C1841 C314 1.391 . S
C1849 C188 1.356 . S
