# Generated by pormake.
# Topology wfa, (4)-cn, num edge types: 1
# Building blocks:
#     Node 0, Type 0, BuildingBlock: KOZSID_clean_sbu_0, # of connection points: 4
#     Node 1, Type 0, BuildingBlock: KOZSID_clean_sbu_0, # of connection points: 4
#     Node 2, Type 0, BuildingBlock: KOZSID_clean_sbu_0, # of connection points: 4
#     Node 3, Type 0, BuildingBlock: KOZSID_clean_sbu_0, # of connection points: 4
#     Node 4, Type 0, BuildingBlock: KOZSID_clean_sbu_0, # of connection points: 4
#     Node 5, Type 0, BuildingBlock: KOZSID_clean_sbu_0, # of connection points: 4
#     Node 6, Type 0, BuildingBlock: KOZSID_clean_sbu_0, # of connection points: 4
#     Node 7, Type 0, BuildingBlock: KOZSID_clean_sbu_0, # of connection points: 4
#     Node 8, Type 0, BuildingBlock: KOZSID_clean_sbu_0, # of connection points: 4
#     Node 9, Type 0, BuildingBlock: KOZSID_clean_sbu_0, # of connection points: 4
#     Node 10, Type 0, BuildingBlock: KOZSID_clean_sbu_0, # of connection points: 4
#     Node 11, Type 0, BuildingBlock: KOZSID_clean_sbu_0, # of connection points: 4
#     Node 12, Type 0, BuildingBlock: KOZSID_clean_sbu_0, # of connection points: 4
#     Node 13, Type 0, BuildingBlock: KOZSID_clean_sbu_0, # of connection points: 4
#     Node 14, Type 0, BuildingBlock: KOZSID_clean_sbu_0, # of connection points: 4
#     Node 15, Type 0, BuildingBlock: KOZSID_clean_sbu_0, # of connection points: 4
#     Edge 16, Type (0, 0), BuildingBlock: ZUJKAS_clean_linker_0, # of connection points: 2
#     Edge 17, Type (0, 0), BuildingBlock: ZUJKAS_clean_linker_0, # of connection points: 2
#     Edge 18, Type (0, 0), BuildingBlock: ZUJKAS_clean_linker_0, # of connection points: 2
#     Edge 19, Type (0, 0), BuildingBlock: ZUJKAS_clean_linker_0, # of connection points: 2
#     Edge 20, Type (0, 0), BuildingBlock: ZUJKAS_clean_linker_0, # of connection points: 2
#     Edge 21, Type (0, 0), BuildingBlock: ZUJKAS_clean_linker_0, # of connection points: 2
#     Edge 22, Type (0, 0), BuildingBlock: ZUJKAS_clean_linker_0, # of connection points: 2
#     Edge 23, Type (0, 0), BuildingBlock: ZUJKAS_clean_linker_0, # of connection points: 2
#     Edge 24, Type (0, 0), BuildingBlock: ZUJKAS_clean_linker_0, # of connection points: 2
#     Edge 25, Type (0, 0), BuildingBlock: ZUJKAS_clean_linker_0, # of connection points: 2
#     Edge 26, Type (0, 0), BuildingBlock: ZUJKAS_clean_linker_0, # of connection points: 2
#     Edge 27, Type (0, 0), BuildingBlock: ZUJKAS_clean_linker_0, # of connection points: 2
#     Edge 28, Type (0, 0), BuildingBlock: ZUJKAS_clean_linker_0, # of connection points: 2
#     Edge 29, Type (0, 0), BuildingBlock: ZUJKAS_clean_linker_0, # of connection points: 2
#     Edge 30, Type (0, 0), BuildingBlock: ZUJKAS_clean_linker_0, # of connection points: 2
#     Edge 31, Type (0, 0), BuildingBlock: ZUJKAS_clean_linker_0, # of connection points: 2
#     Edge 32, Type (0, 0), BuildingBlock: ZUJKAS_clean_linker_0, # of connection points: 2
#     Edge 33, Type (0, 0), BuildingBlock: ZUJKAS_clean_linker_0, # of connection points: 2
#     Edge 34, Type (0, 0), BuildingBlock: ZUJKAS_clean_linker_0, # of connection points: 2
#     Edge 35, Type (0, 0), BuildingBlock: ZUJKAS_clean_linker_0, # of connection points: 2
#     Edge 36, Type (0, 0), BuildingBlock: ZUJKAS_clean_linker_0, # of connection points: 2
#     Edge 37, Type (0, 0), BuildingBlock: ZUJKAS_clean_linker_0, # of connection points: 2
#     Edge 38, Type (0, 0), BuildingBlock: ZUJKAS_clean_linker_0, # of connection points: 2
#     Edge 39, Type (0, 0), BuildingBlock: ZUJKAS_clean_linker_0, # of connection points: 2
#     Edge 40, Type (0, 0), BuildingBlock: ZUJKAS_clean_linker_0, # of connection points: 2
#     Edge 41, Type (0, 0), BuildingBlock: ZUJKAS_clean_linker_0, # of connection points: 2
#     Edge 42, Type (0, 0), BuildingBlock: ZUJKAS_clean_linker_0, # of connection points: 2
#     Edge 43, Type (0, 0), BuildingBlock: ZUJKAS_clean_linker_0, # of connection points: 2
#     Edge 44, Type (0, 0), BuildingBlock: ZUJKAS_clean_linker_0, # of connection points: 2
#     Edge 45, Type (0, 0), BuildingBlock: ZUJKAS_clean_linker_0, # of connection points: 2
#     Edge 46, Type (0, 0), BuildingBlock: ZUJKAS_clean_linker_0, # of connection points: 2
#     Edge 47, Type (0, 0), BuildingBlock: ZUJKAS_clean_linker_0, # of connection points: 2
# Relax obj value: 0.117
# Max RMSD: 0.252
# Mean RMSD: 0.207
data_MOF--net-wfa--node1-KOZSID_clean_sbu_0--edge1-ZUJKAS_clean_linker_0
_symmetry_space_group_name_H-M    P1
_symmetry_Int_Tables_number       1
_symmetry_cell_setting            triclinic
loop_
_symmetry_equiv_pos_as_xyz
'x, y, z'
_cell_length_a     74.771843
_cell_length_b     77.266688
_cell_length_c     31.133054
_cell_angle_alpha  88.447646
_cell_angle_beta   88.399274
_cell_angle_gamma 88.909722
loop_
_atom_site_label
_atom_site_type_symbol
_atom_site_fract_x
_atom_site_fract_y
_atom_site_fract_z
_atom_type_partial_charge
C0 C 0.57379 0.02252 0.00598 0.0
C1 C 0.5691 0.03744 0.98298 0.0
C2 C 0.58425 0.04732 0.9795 0.0
C3 C 0.59732 0.03787 1.00044 0.0
N4 N 0.59126 0.02271 0.01651 0.0
Co5 Co 0.60485 1.00562 0.05187 0.0
N6 N 0.62235 0.0231 0.06789 0.0
C7 C 0.62531 0.03819 0.04637 0.0
C8 C 0.63882 0.0474 0.06341 0.0
C9 C 0.64486 0.03736 0.09729 0.0
C10 C 0.63464 0.02252 0.09916 0.0
N11 N 0.61806 0.98836 0.08776 0.0
C12 C 0.63036 0.9907 0.11818 0.0
C13 C 0.63619 0.97487 0.13542 0.0
C14 C 0.62756 0.96228 0.11419 0.0
C15 C 0.61687 0.97104 0.08545 0.0
N16 N 0.5874 0.98826 0.03507 0.0
C17 C 0.58972 0.97097 0.0371 0.0
C18 C 0.57475 0.96237 0.02544 0.0
C19 C 0.56227 0.97508 0.01583 0.0
C20 C 0.57038 0.99078 0.02203 0.0
N21 N 0.62048 1.00003 1.00194 0.0
C22 C 0.64427 0.99695 0.93097 0.0
C23 C 0.65042 0.99562 0.97289 0.0
C24 C 0.63843 0.99738 0.00767 0.0
C25 C 0.62583 0.99917 0.92512 0.0
C26 C 0.6141 1.00034 0.9611 0.0
N27 N 0.58957 0.01155 0.10138 0.0
C28 C 0.56986 1.00357 0.16091 0.0
C29 C 0.56592 0.02108 0.16812 0.0
C30 C 0.57446 0.03363 0.14209 0.0
C31 C 0.58622 0.02862 0.10924 0.0
C32 C 0.5817 0.99906 0.12712 0.0
H33 H 0.59241 0.03866 0.0897 0.0
H34 H 0.5843 0.98553 0.12141 0.0
H35 H 0.64395 0.99728 0.03918 0.0
H36 H 0.59995 1.00208 0.95586 0.0
C37 C 0.6136 0.04422 0.01439 0.0
C38 C 0.56186 1.00792 0.01553 0.0
C39 C 0.63828 1.00744 0.12781 0.0
C40 C 0.60394 0.96364 0.06016 0.0
H41 H 0.5561 0.04084 0.9705 0.0
H42 H 0.58526 0.06028 0.96568 0.0
H43 H 0.64351 0.06005 0.05305 0.0
H44 H 0.65578 0.04045 0.11768 0.0
H45 H 0.64592 0.97262 0.16011 0.0
H46 H 0.62867 0.94842 0.11978 0.0
H47 H 0.57266 0.94854 0.02686 0.0
H48 H 0.54869 0.97296 0.00649 0.0
H49 H 0.66458 0.99403 0.97878 0.0
H50 H 0.62055 1.00014 0.89307 0.0
H51 H 0.5636 0.99349 0.18057 0.0
H52 H 0.57214 0.04731 0.1472 0.0
C53 C 0.54067 0.65353 0.08204 0.0
C54 C 0.55771 0.64788 0.0929 0.0
C55 C 0.56933 0.65587 0.06453 0.0
C56 C 0.55876 0.6658 0.03795 0.0
N57 N 0.54111 0.66506 0.04843 0.0
Co58 Co 0.52077 0.67562 0.01536 0.0
N59 N 0.53744 0.68439 0.96851 0.0
C60 C 0.55538 0.68186 0.96577 0.0
C61 C 0.5633 0.6897 0.93031 0.0
C62 C 0.54968 0.69814 0.90972 0.0
C63 C 0.5342 0.69511 0.9342 0.0
N64 N 0.50046 0.68628 0.98217 0.0
C65 C 0.50077 0.69742 0.94754 0.0
C66 C 0.48362 0.70322 0.93765 0.0
C67 C 0.47216 0.69555 0.96684 0.0
C68 C 0.48283 0.68569 0.99325 0.0
N69 N 0.50409 0.66691 0.06205 0.0
C70 C 0.48617 0.66939 0.06509 0.0
C71 C 0.47831 0.66095 0.09982 0.0
C72 C 0.49198 0.65211 0.11931 0.0
C73 C 0.50738 0.65566 0.09503 0.0
N74 N 0.52323 0.69777 0.04626 0.0
C75 C 0.52671 0.72704 0.09819 0.0
C76 C 0.50991 0.7207 0.08893 0.0
C77 C 0.50848 0.70627 0.06313 0.0
C78 C 0.54173 0.71889 0.0793 0.0
C79 C 0.53969 0.70452 0.05337 0.0
N80 N 0.51832 0.65305 0.98617 0.0
C81 C 0.50045 0.62753 0.97731 0.0
C82 C 0.51583 0.61713 0.97155 0.0
C83 C 0.5323 0.62545 0.96873 0.0
C84 C 0.53319 0.64331 0.97516 0.0
C85 C 0.50199 0.64533 0.98426 0.0
H86 H 0.54617 0.64879 0.97322 0.0
H87 H 0.48983 0.65241 0.99028 0.0
H88 H 0.49528 0.70209 0.05795 0.0
H89 H 0.55165 0.69897 0.03979 0.0
C90 C 0.5646 0.67349 0.99905 0.0
C91 C 0.52431 0.6464 0.10113 0.0
C92 C 0.51704 0.70372 0.92522 0.0
C93 C 0.47697 0.67786 0.03201 0.0
H94 H 0.56139 0.63831 0.11719 0.0
H95 H 0.58365 0.65368 0.06167 0.0
H96 H 0.5774 0.68987 0.92145 0.0
H97 H 0.55109 0.70617 0.88084 0.0
H98 H 0.47967 0.71263 0.91328 0.0
H99 H 0.45786 0.6978 0.9701 0.0
H100 H 0.4642 0.66042 0.10841 0.0
H101 H 0.49067 0.64327 0.14673 0.0
H102 H 0.49781 0.72648 0.10266 0.0
H103 H 0.55505 0.72354 0.08451 0.0
H104 H 0.48732 0.62185 0.97891 0.0
H105 H 0.54456 0.61814 0.96253 0.0
C106 C 0.9441 0.5021 0.96054 0.0
C107 C 0.94924 0.487 0.94026 0.0
C108 C 0.93413 0.47708 0.93895 0.0
C109 C 0.92064 0.4867 0.95838 0.0
N110 N 0.92641 0.502 0.97133 0.0
Co111 Co 0.91241 0.51922 0.00472 0.0
N112 N 0.89496 0.50175 0.02543 0.0
C113 C 0.89223 0.48652 0.00677 0.0
C114 C 0.8787 0.47733 0.02684 0.0
C115 C 0.87243 0.48752 0.05968 0.0
C116 C 0.88254 0.50244 0.05794 0.0
N117 N 0.89885 0.53664 0.03865 0.0
C118 C 0.88643 0.53442 0.07081 0.0
C119 C 0.88032 0.55033 0.08565 0.0
C120 C 0.8889 0.56283 0.0611 0.0
C121 C 0.89985 0.55394 0.03288 0.0
N122 N 0.92989 0.53652 0.98323 0.0
C123 C 0.92742 0.55379 0.9821 0.0
C124 C 0.9426 0.56235 0.96846 0.0
C125 C 0.95535 0.54963 0.96107 0.0
C126 C 0.94718 0.53395 0.97043 0.0
N127 N 0.89705 0.52434 0.95527 0.0
C128 C 0.87359 0.52769 0.88627 0.0
C129 C 0.86725 0.52889 0.9287 0.0
C130 C 0.87905 0.52699 0.96247 0.0
C131 C 0.89206 0.52525 0.87882 0.0
C132 C 0.90362 0.52392 0.91379 0.0
N133 N 0.92736 0.5138 0.05387 0.0
C134 C 0.94686 0.52245 0.10942 0.0
C135 C 0.9509 0.50505 0.11953 0.0
C136 C 0.94246 0.49221 0.09707 0.0
C137 C 0.93076 0.49683 0.06467 0.0
C138 C 0.93506 0.52656 0.07629 0.0
H139 H 0.92471 0.48659 0.04776 0.0
H140 H 0.93239 0.54002 0.06831 0.0
H141 H 0.87335 0.52711 0.99453 0.0
H142 H 0.91779 0.52208 0.90736 0.0
C143 C 0.90425 0.48034 0.97479 0.0
C144 C 0.95587 0.51674 0.96762 0.0
C145 C 0.87873 0.51766 0.08445 0.0
C146 C 0.91291 0.56121 0.00496 0.0
H147 H 0.96251 0.48346 0.92836 0.0
H148 H 0.93342 0.46396 0.92788 0.0
H149 H 0.87418 0.46458 0.0192 0.0
H150 H 0.86145 0.48447 0.08181 0.0
H151 H 0.87044 0.5527 0.11097 0.0
H152 H 0.88762 0.57671 0.06422 0.0
H153 H 0.94464 0.57619 0.96748 0.0
H154 H 0.96913 0.55178 0.95134 0.0
H155 H 0.85308 0.53062 0.9359 0.0
H156 H 0.8975 0.52434 0.84633 0.0
H157 H 0.95303 0.53275 0.12629 0.0
H158 H 0.94484 0.4786 0.10456 0.0
C159 C 0.98599 0.87742 0.08453 0.0
C160 C 0.96961 0.88323 0.10106 0.0
C161 C 0.95681 0.8761 0.077 0.0
C162 C 0.96609 0.86638 0.04733 0.0
N163 N 0.98403 0.86648 0.05175 0.0
Co164 Co 1.0027 0.85579 0.01278 0.0
N165 N 0.98411 0.84719 0.97355 0.0
C166 C 0.96617 0.84954 0.97781 0.0
C167 C 0.95671 0.84088 0.94832 0.0
C168 C 0.96929 0.83211 0.92442 0.0
C169 C 0.98581 0.83601 0.94061 0.0
N170 N 0.02136 0.84532 0.97329 0.0
C171 C 0.01952 0.8346 0.93991 0.0
C172 C 0.03598 0.82972 0.92194 0.0
C173 C 0.04869 0.83715 0.94566 0.0
C174 C 0.03932 0.84619 0.97649 0.0
N175 N 0.02134 0.86398 0.05221 0.0
C176 C 0.03924 0.86129 0.04843 0.0
C177 C 0.04868 0.86933 0.07901 0.0
C178 C 0.03611 0.87801 0.10314 0.0
C179 C 0.01964 0.87472 0.08581 0.0
N180 N 1.00142 0.83357 0.0467 0.0
C181 C 0.99978 0.80439 0.10354 0.0
C182 C 0.01614 0.81014 0.08616 0.0
C183 C 0.01664 0.82457 0.05792 0.0
C184 C 0.98421 0.81299 0.09003 0.0
C185 C 0.98532 0.82733 0.06171 0.0
N186 N 1.00395 0.87849 0.98056 0.0
C187 C 0.02035 0.9051 0.97016 0.0
C188 C 1.00445 0.9148 0.96621 0.0
C189 C 0.98852 0.90566 0.9641 0.0
C190 C 0.98862 0.88762 0.97075 0.0
C191 C 0.01982 0.88707 0.9763 0.0
H192 H 0.97597 0.88148 0.97039 0.0
H193 H 0.03235 0.88045 0.98 0.0
H194 H 0.02954 0.8284 0.04625 0.0
H195 H 0.97296 0.83331 0.05292 0.0
C196 C 0.95856 0.85845 0.01249 0.0
C197 C 1.00304 0.88351 0.09902 0.0
C198 C 1.00261 0.82782 0.92589 0.0
C199 C 0.04687 0.85338 0.01231 0.0
H200 H 0.96725 0.89221 0.1268 0.0
H201 H 0.94249 0.8784 0.07949 0.0
H202 H 0.94232 0.8403 0.94591 0.0
H203 H 0.96652 0.82332 0.8991 0.0
H204 H 0.03851 0.82111 0.8955 0.0
H205 H 0.06305 0.83537 0.94235 0.0
H206 H 0.06307 0.86974 0.08176 0.0
H207 H 0.03889 0.8865 0.12908 0.0
H208 H 0.02862 0.80394 0.09534 0.0
H209 H 0.97115 0.80876 0.10145 0.0
H210 H 0.03316 0.91143 0.96986 0.0
H211 H 0.97586 0.91244 0.95995 0.0
C212 C 0.07395 0.99766 0.54436 0.0
C213 C 0.07056 0.98406 0.57336 0.0
C214 C 0.08596 0.97394 0.57458 0.0
C215 C 0.09812 0.98222 0.54765 0.0
N216 N 0.09128 0.99688 0.53032 0.0
Co217 Co 0.10465 0.01381 0.49409 0.0
N218 N 0.12227 0.99606 0.47519 0.0
C219 C 0.12568 0.98101 0.49653 0.0
C220 C 0.1393 0.97158 0.4773 0.0
C221 C 0.14489 0.98148 0.44224 0.0
C222 C 0.13434 0.99648 0.44193 0.0
N223 N 0.11756 0.03101 0.45751 0.0
C224 C 0.12966 0.02858 0.42492 0.0
C225 C 0.13548 0.04443 0.4082 0.0
C226 C 0.12711 0.05704 0.43219 0.0
C227 C 0.11653 0.0483 0.46192 0.0
N228 N 0.0872 0.0314 0.51408 0.0
C229 C 0.09017 0.0484 0.51626 0.0
C230 C 0.07618 0.05711 0.53618 0.0
C231 C 0.0637 0.04468 0.54661 0.0
C232 C 0.07055 0.02917 0.53105 0.0
N233 N 0.12028 0.0187 0.54221 0.0
C234 C 0.14404 0.02192 0.60985 0.0
C235 C 0.15015 0.02277 0.5671 0.0
C236 C 0.13819 0.02095 0.53401 0.0
C237 C 0.12566 0.01992 0.61829 0.0
C238 C 0.11393 0.01865 0.58394 0.0
N239 N 0.08954 1.0086 0.44625 0.0
C240 C 0.07145 0.0174 0.38637 0.0
C241 C 0.06944 1.00003 0.37582 0.0
C242 C 0.07717 0.98713 0.40202 0.0
C243 C 0.08704 0.99165 0.437 0.0
C244 C 0.0817 0.02143 0.42171 0.0
H245 H 0.09283 0.98136 0.45642 0.0
H246 H 0.08348 0.03486 0.42898 0.0
H247 H 0.14369 0.02083 0.50175 0.0
H248 H 0.09983 0.01717 0.59115 0.0
C249 C 0.1145 0.97546 0.53136 0.0
C250 C 0.06159 0.0123 0.5336 0.0
C251 C 0.13758 0.01165 0.41315 0.0
C252 C 0.10421 0.05576 0.49143 0.0
H253 H 0.0585 0.98182 0.59251 0.0
H254 H 0.08784 0.96178 0.59211 0.0
H255 H 0.14443 0.95895 0.4872 0.0
H256 H 0.15582 0.97825 0.4202 0.0
H257 H 0.14516 0.04667 0.38227 0.0
H258 H 0.12844 0.07091 0.42804 0.0
H259 H 0.07479 0.07091 0.54073 0.0
H260 H 0.05089 0.04684 0.56284 0.0
H261 H 0.16427 0.02419 0.55926 0.0
H262 H 0.12042 0.01929 0.65106 0.0
H263 H 0.06559 0.02773 0.36689 0.0
H264 H 0.07561 0.97354 0.39548 0.0
C265 C 0.48184 0.15373 0.44703 0.0
C266 C 0.46564 0.14853 0.43154 0.0
C267 C 0.45256 0.15691 0.45487 0.0
C268 C 0.46149 0.16665 0.48324 0.0
N269 N 0.4795 0.1654 0.47852 0.0
Co270 Co 0.49773 0.17546 0.51638 0.0
N271 N 0.47864 0.18503 0.55619 0.0
C272 C 0.46076 0.18325 0.55325 0.0
C273 C 0.45097 0.1922 0.58356 0.0
C274 C 0.4633 0.20052 0.60663 0.0
C275 C 0.47996 0.19619 0.58891 0.0
N276 N 0.51593 0.18552 0.55436 0.0
C277 C 0.5137 0.19646 0.58761 0.0
C278 C 0.52999 0.20126 0.60349 0.0
C279 C 0.54298 0.19337 0.57891 0.0
C280 C 0.53395 0.18426 0.54947 0.0
N281 N 0.51682 0.16603 0.47671 0.0
C282 C 0.53469 0.16795 0.47918 0.0
C283 C 0.54442 0.15893 0.44888 0.0
C284 C 0.53203 0.15032 0.42664 0.0
C285 C 0.51545 0.15458 0.4449 0.0
N286 N 0.49704 0.19754 0.48153 0.0
C287 C 0.49605 0.22665 0.42425 0.0
C288 C 0.51229 0.21984 0.43905 0.0
C289 C 0.51247 0.20548 0.46754 0.0
C290 C 0.4803 0.21911 0.44041 0.0
C291 C 0.48109 0.2048 0.46888 0.0
N292 N 0.49841 0.15294 0.54949 0.0
C293 C 0.51526 0.1263 0.56288 0.0
C294 C 0.49959 0.11663 0.56353 0.0
C295 C 0.48328 0.12581 0.56296 0.0
C296 C 0.48301 0.14387 0.55709 0.0
C297 C 0.51436 0.14435 0.55625 0.0
H298 H 0.47017 0.15008 0.55595 0.0
H299 H 0.52678 0.15094 0.55378 0.0
H300 H 0.52529 0.20087 0.47721 0.0
H301 H 0.4686 0.19972 0.47978 0.0
C302 C 0.45353 0.17483 0.51868 0.0
C303 C 0.49904 0.14597 0.43447 0.0
C304 C 0.49654 0.20373 0.60278 0.0
C305 C 0.54192 0.17621 0.5139 0.0
H306 H 0.46346 0.13899 0.40752 0.0
H307 H 0.43826 0.15516 0.45336 0.0
H308 H 0.43655 0.19323 0.58711 0.0
H309 H 0.46038 0.20927 0.63258 0.0
H310 H 0.53228 0.21012 0.62901 0.0
H311 H 0.5573 0.19486 0.5808 0.0
H312 H 0.55883 0.15785 0.44524 0.0
H313 H 0.53488 0.14118 0.40149 0.0
H314 H 0.5249 0.2252 0.42775 0.0
H315 H 0.46733 0.22418 0.43107 0.0
H316 H 0.52825 0.1199 0.56434 0.0
H317 H 0.47073 0.11904 0.56545 0.0
C318 C 0.44285 0.51987 0.49831 0.0
C319 C 0.44705 0.5356 0.51555 0.0
C320 C 0.43155 0.5455 0.51591 0.0
C321 C 0.41877 0.53537 0.4987 0.0
N322 N 0.42534 0.51974 0.48785 0.0
Co323 Co 0.41233 0.5017 0.45795 0.0
N324 N 0.39426 0.51864 0.43641 0.0
C325 C 0.39078 0.53433 0.45294 0.0
C326 C 0.37707 0.54305 0.43279 0.0
C327 C 0.37145 0.53206 0.40217 0.0
C328 C 0.38208 0.51717 0.4053 0.0
N329 N 0.39975 0.48348 0.42763 0.0
C330 C 0.38733 0.48493 0.39671 0.0
C331 C 0.38172 0.46869 0.38532 0.0
C332 C 0.39074 0.45678 0.41055 0.0
C333 C 0.40137 0.46633 0.43585 0.0
N334 N 0.43033 0.48493 0.4802 0.0
C335 C 0.42853 0.46769 0.48406 0.0
C336 C 0.44381 0.45949 0.4985 0.0
C337 C 0.45591 0.47243 0.5036 0.0
C338 C 0.44732 0.48781 0.49182 0.0
N339 N 0.39685 0.49761 0.50932 0.0
C340 C 0.3734 0.49497 0.5812 0.0
C341 C 0.36719 0.49329 0.53968 0.0
C342 C 0.379 0.49483 0.5044 0.0
C343 C 0.39172 0.49763 0.5863 0.0
C344 C 0.40329 0.49861 0.54992 0.0
N345 N 0.4275 0.506 0.40694 0.0
C346 C 0.44922 0.49612 0.35405 0.0
C347 C 0.45231 0.51325 0.34085 0.0
C348 C 0.44236 0.52657 0.35996 0.0
C349 C 0.43006 0.52269 0.39291 0.0
C350 C 0.43654 0.49274 0.38704 0.0
H351 H 0.42309 0.5333 0.40808 0.0
H352 H 0.43446 0.47948 0.3974 0.0
H353 H 0.37343 0.49423 0.47303 0.0
H354 H 0.41737 0.50056 0.55454 0.0
C355 C 0.4023 0.54128 0.48271 0.0
C356 C 0.45532 0.50501 0.4928 0.0
C357 C 0.37904 0.50134 0.38142 0.0
C358 C 0.4145 0.45971 0.46359 0.0
H359 H 0.45994 0.53969 0.52593 0.0
H360 H 0.43013 0.55891 0.52482 0.0
H361 H 0.37203 0.556 0.43887 0.0
H362 H 0.36056 0.5346 0.38056 0.0
H363 H 0.37182 0.46577 0.36199 0.0
H364 H 0.38985 0.44282 0.40994 0.0
H365 H 0.44633 0.44569 0.50195 0.0
H366 H 0.46956 0.47075 0.51389 0.0
H367 H 0.35311 0.49137 0.53438 0.0
H368 H 0.39703 0.49891 0.61804 0.0
H369 H 0.45675 0.48555 0.33969 0.0
H370 H 0.44451 0.53998 0.35037 0.0
C371 C 0.03236 0.3781 0.42645 0.0
C372 C 0.04935 0.38292 0.41246 0.0
C373 C 0.0611 0.37414 0.43829 0.0
C374 C 0.05061 0.36456 0.46648 0.0
N375 N 0.0329 0.36631 0.45944 0.0
Co376 Co 0.01273 0.35635 0.49546 0.0
N377 N 0.02968 0.34594 0.53821 0.0
C378 C 0.0477 0.34731 0.5374 0.0
C379 C 0.05581 0.3386 0.5707 0.0
C380 C 0.04221 0.33083 0.5936 0.0
C381 C 0.02653 0.33511 0.57258 0.0
N382 N 0.99254 0.34641 0.53171 0.0
C383 C 0.99291 0.33499 0.56576 0.0
C384 C 0.97574 0.33006 0.57852 0.0
C385 C 0.96421 0.33863 0.55193 0.0
C386 C 0.97484 0.34813 0.5241 0.0
N387 N 0.99575 0.36663 0.45271 0.0
C388 C 0.97777 0.36516 0.45295 0.0
C389 C 0.9697 0.37453 0.42062 0.0
C390 C 0.98332 0.38289 0.39917 0.0
C391 C 0.99891 0.37811 0.41993 0.0
N392 N 0.01434 0.33459 0.46214 0.0
C393 C 0.01663 0.30594 0.40708 0.0
C394 C 1.00009 0.31317 0.41976 0.0
C395 C 0.99926 0.32723 0.44717 0.0
C396 C 0.03198 0.31282 0.42427 0.0
C397 C 0.03054 0.32697 0.45157 0.0
N398 N 0.01117 0.37852 0.52717 0.0
C399 C 0.99454 0.40525 0.53963 0.0
C400 C 0.01029 0.41418 0.54641 0.0
C401 C 0.02626 0.40443 0.54779 0.0
C402 C 0.02636 0.38675 0.53855 0.0
C403 C 0.99524 0.38753 0.5309 0.0
H404 H 0.03905 0.38022 0.53858 0.0
H405 H 0.98281 0.38156 0.52518 0.0
H406 H 0.98622 0.33202 0.45536 0.0
H407 H 0.04275 0.33169 0.46319 0.0
C408 C 0.05672 0.35583 0.50328 0.0
C409 C 0.01604 0.38615 0.41037 0.0
C410 C 0.0092 0.32768 0.58501 0.0
C411 C 0.96876 0.35675 0.48711 0.0
H412 H 0.05284 0.39239 0.38751 0.0
H413 H 0.07549 0.37544 0.43826 0.0
H414 H 0.06997 0.33754 0.57678 0.0
H415 H 0.04374 0.3225 0.62182 0.0
H416 H 0.97178 0.32068 0.60313 0.0
H417 H 0.94984 0.33727 0.55132 0.0
H418 H 0.95553 0.37594 0.4149 0.0
H419 H 0.98188 0.39213 0.37268 0.0
H420 H 0.98774 0.30802 0.40851 0.0
H421 H 0.04514 0.30766 0.41575 0.0
H422 H 0.9817 0.41199 0.53997 0.0
H423 H 0.03883 0.41057 0.55366 0.0
C424 C 0.3573 0.03223 0.01948 0.0
C425 C 0.36385 0.04772 0.03344 0.0
C426 C 0.35031 0.05987 0.02881 0.0
C427 C 0.33631 0.05122 0.01209 0.0
N428 N 0.34022 0.03438 0.00643 0.0
Co429 Co 0.32489 0.01746 0.97892 0.0
N430 N 0.31066 0.03599 0.94976 0.0
C431 C 0.31031 0.05282 0.96002 0.0
C432 C 0.29957 0.06281 0.93386 0.0
C433 C 0.2925 0.05151 0.90595 0.0
C434 C 0.29912 0.03511 0.917 0.0
N435 N 0.30963 1.00025 0.95216 0.0
C436 C 0.2977 1.00224 0.92025 0.0
C437 C 0.28895 0.98681 0.91422 0.0
C438 C 0.29555 0.97493 0.94353 0.0
C439 C 0.30788 0.98367 0.96601 0.0
N440 N 0.33943 0.99917 0.00775 0.0
C441 C 0.33466 0.98271 0.01581 0.0
C442 C 0.34828 0.97289 0.0335 0.0
C443 C 0.36244 0.98392 0.0363 0.0
C444 C 0.35664 0.99985 0.02002 0.0
N445 N 0.30798 0.01793 0.02847 0.0
C446 C 0.28297 0.01588 0.09765 0.0
C447 C 0.30146 0.01554 0.10484 0.0
C448 C 0.31374 0.01658 0.06981 0.0
C449 C 0.27743 0.01791 0.05522 0.0
C450 C 0.29001 0.01888 0.02143 0.0
N451 N 0.34162 0.01685 0.92974 0.0
C452 C 0.36139 0.99999 0.88466 0.0
C453 C 0.37052 0.01492 0.8712 0.0
C454 C 0.36412 0.03098 0.88543 0.0
C455 C 0.34947 0.03168 0.91424 0.0
C456 C 0.34702 1.00123 0.91388 0.0
H457 H 0.34507 0.04414 0.92565 0.0
H458 H 0.34094 0.98941 0.9255 0.0
H459 H 0.32788 0.01597 0.07603 0.0
H460 H 0.28502 0.02011 0.98944 0.0
C461 C 0.32197 0.05904 0.9904 0.0
C462 C 0.36731 0.01564 0.01813 0.0
C463 C 0.29264 0.0189 0.89921 0.0
C464 C 0.31947 0.97631 0.99659 0.0
H465 H 0.37712 0.05023 0.04436 0.0
H466 H 0.35118 0.07365 0.03357 0.0
H467 H 0.29747 0.0767 0.93427 0.0
H468 H 0.28325 0.05497 0.8809 0.0
H469 H 0.27847 0.98446 0.89194 0.0
H470 H 0.2919 0.96149 0.9476 0.0
H471 H 0.34837 0.95911 0.04075 0.0
H472 H 0.37555 0.98061 0.04825 0.0
H473 H 0.30642 0.01403 0.13709 0.0
H474 H 0.26335 0.01873 0.0479 0.0
H475 H 0.36596 0.98729 0.87472 0.0
H476 H 0.37066 0.04285 0.87526 0.0
C477 C 0.48689 0.42178 0.97602 0.0
C478 C 0.4711 0.43021 0.98823 0.0
C479 C 0.4577 0.41839 0.98517 0.0
C480 C 0.46605 0.40343 0.97144 0.0
N481 N 0.48381 0.40518 0.966 0.0
Co482 Co 0.50094 0.38733 0.94474 0.0
N483 N 0.48177 0.37443 0.91765 0.0
C484 C 0.46414 0.37604 0.92724 0.0
C485 C 0.45398 0.36508 0.90444 0.0
C486 C 0.46598 0.35589 0.87937 0.0
C487 C 0.48289 0.36178 0.88823 0.0
N488 N 0.5182 0.36938 0.92416 0.0
C489 C 0.51637 0.35708 0.8944 0.0
C490 C 0.53195 0.34709 0.89042 0.0
C491 C 0.54365 0.35311 0.91948 0.0
C492 C 0.53471 0.36648 0.93939 0.0
N493 N 0.51997 0.40054 0.97152 0.0
C494 C 0.53629 0.39443 0.98169 0.0
C495 C 0.54695 0.40708 0.99689 0.0
C496 C 0.53665 0.42202 0.99603 0.0
C497 C 0.52016 0.41763 0.98057 0.0
N498 N 0.49732 0.37361 0.99827 0.0
C499 C 0.49453 0.35325 0.07439 0.0
C500 C 0.49646 0.37127 0.07577 0.0
C501 C 0.49772 0.38121 0.03742 0.0
C502 C 0.49373 0.34578 0.034 0.0
C503 C 0.49515 0.3561 0.99662 0.0
N504 N 0.50471 0.40098 0.89168 0.0
C505 C 0.52538 0.41478 0.84196 0.0
C506 C 0.51151 0.42495 0.82487 0.0
C507 C 0.49399 0.42229 0.84021 0.0
C508 C 0.49082 0.40992 0.87311 0.0
C509 C 0.52173 0.403 0.8755 0.0
H510 H 0.47726 0.40816 0.88486 0.0
H511 H 0.53286 0.39617 0.88969 0.0
H512 H 0.49926 0.39503 0.03941 0.0
H513 H 0.49483 0.34976 0.96629 0.0
C514 C 0.4576 0.38934 0.95365 0.0
C515 C 0.50467 0.42955 0.97554 0.0
C516 C 0.49968 0.35362 0.87224 0.0
C517 C 0.54225 0.37824 0.96704 0.0
H518 H 0.46946 0.44354 0.99768 0.0
H519 H 0.44347 0.42079 0.98973 0.0
H520 H 0.43956 0.36407 0.90535 0.0
H521 H 0.46269 0.34571 0.85789 0.0
H522 H 0.53456 0.33646 0.8691 0.0
H523 H 0.55726 0.34863 0.92442 0.0
H524 H 0.56092 0.40589 0.00485 0.0
H525 H 0.54099 0.43466 0.00492 0.0
H526 H 0.49694 0.37768 0.10621 0.0
H527 H 0.49251 0.33192 0.03111 0.0
H528 H 0.53912 0.41661 0.83111 0.0
H529 H 0.48294 0.42992 0.82753 0.0
C530 C 0.15825 0.48595 0.01315 0.0
C531 C 0.15083 0.47048 0.02782 0.0
C532 C 0.1641 0.45799 0.02426 0.0
C533 C 0.17884 0.46639 0.00732 0.0
N534 N 0.17562 0.48339 1.00063 0.0
Co535 Co 0.19204 0.50005 0.97147 0.0
N536 N 0.206 0.48141 0.94282 0.0
C537 C 0.2057 0.46449 0.95439 0.0
C538 C 0.21645 0.45445 0.92827 0.0
C539 C 0.2242 0.46581 0.899 0.0
C540 C 0.21793 0.48228 0.90921 0.0
N541 N 0.20831 0.51702 0.94303 0.0
C542 C 0.22048 0.51503 0.91031 0.0
C543 C 0.2299 0.53021 0.90282 0.0
C544 C 0.22345 0.54193 0.93205 0.0
C545 C 0.21053 0.53334 0.95593 0.0
N546 N 0.17773 0.51845 0.9998 0.0
C547 C 0.18298 0.53461 0.00686 0.0
C548 C 0.16932 0.54471 0.02399 0.0
C549 C 0.15465 0.53418 0.02736 0.0
C550 C 0.16019 0.51826 0.01198 0.0
N551 N 0.20827 0.49837 0.02032 0.0
C552 C 0.23248 0.49694 0.08825 0.0
C553 C 0.21395 0.49876 0.09638 0.0
C554 C 0.20206 0.49932 0.06199 0.0
C555 C 0.23848 0.49588 0.0454 0.0
C556 C 0.2263 0.49665 0.01228 0.0
N557 N 0.1761 0.50178 0.9229 0.0
C558 C 0.1573 0.51974 0.87831 0.0
C559 C 0.14759 0.50527 0.86716 0.0
C560 C 0.15344 0.48886 0.88155 0.0
C561 C 0.16793 0.48737 0.90886 0.0
C562 C 0.17146 0.51772 0.90626 0.0
H563 H 0.17182 0.47465 0.92068 0.0
H564 H 0.17786 0.5292 0.91661 0.0
H565 H 0.18787 0.50061 0.069 0.0
H566 H 0.23167 0.49602 0.97997 0.0
C567 C 0.19333 0.45834 0.98572 0.0
C568 C 0.14887 0.50293 0.01041 0.0
C569 C 0.225 0.49849 0.88963 0.0
C570 C 0.19875 0.54073 0.98668 0.0
H571 H 0.1372 0.46815 0.03836 0.0
H572 H 0.16261 0.44418 0.02958 0.0
H573 H 0.21808 0.4405 0.92954 0.0
H574 H 0.23363 0.46232 0.87355 0.0
H575 H 0.24067 0.53247 0.87954 0.0
H576 H 0.22753 0.55519 0.93507 0.0
H577 H 0.16959 0.55841 0.03027 0.0
H578 H 0.14136 0.53784 0.03892 0.0
H579 H 0.20865 0.49955 0.12901 0.0
H580 H 0.25262 0.49481 0.03722 0.0
H581 H 0.1532 0.53269 0.86812 0.0
H582 H 0.14649 0.47732 0.87302 0.0
C583 C 0.02639 0.1093 0.98434 0.0
C584 C 0.04258 0.10053 0.98973 0.0
C585 C 0.05578 0.11216 0.97931 0.0
C586 C 0.04699 0.1273 0.96786 0.0
N587 N 0.02912 0.12588 0.97091 0.0
Co588 Co 0.01123 0.14385 0.95401 0.0
N589 N 0.02888 0.15635 0.9167 0.0
C590 C 0.04677 0.154 0.91732 0.0
C591 C 0.05561 0.16362 0.88606 0.0
C592 C 0.0425 0.17279 0.86498 0.0
C593 C 0.02629 0.16854 0.88517 0.0
N594 N 0.99323 0.16192 0.93822 0.0
C595 C 0.99375 0.17442 0.90676 0.0
C596 C 0.97874 0.18526 0.91 0.0
C597 C 0.96863 0.17931 0.94459 0.0
C598 C 0.97798 0.16527 0.96086 0.0
N599 N 0.99369 0.131 0.99059 0.0
C600 C 0.97825 0.13732 0.00729 0.0
C601 C 0.96843 0.12473 0.02876 0.0
C602 C 0.97838 0.10963 0.02493 0.0
C603 C 0.9937 0.11388 1.00123 0.0
N604 N 0.01759 0.1578 1.00308 0.0
C605 C 0.02137 0.17897 0.07427 0.0
C606 C 0.0204 0.16089 0.07957 0.0
C607 C 0.01855 0.15055 0.04358 0.0
C608 C 0.02146 0.18601 0.03233 0.0
C609 C 0.01964 0.17528 0.99742 0.0
N610 N 1.00454 0.13 0.90557 0.0
C611 C 0.98118 0.11641 0.86803 0.0
C612 C 0.99377 0.10583 0.84686 0.0
C613 C 0.01196 0.10814 0.85399 0.0
C614 C 0.0171 0.12058 0.88291 0.0
C615 C 0.98681 0.12828 0.89737 0.0
H616 H 0.03116 0.12205 0.88829 0.0
H617 H 0.97669 0.13546 0.91497 0.0
H618 H 0.01724 0.13674 0.04863 0.0
H619 H 0.01924 0.18132 0.9659 0.0
C620 C 0.05449 0.14086 0.9431 0.0
C621 C 1.00855 0.10182 0.99113 0.0
C622 C 0.00907 0.17758 0.87679 0.0
C623 C 0.97184 0.15368 0.99343 0.0
H624 H 0.04477 0.08707 0.99868 0.0
H625 H 0.07002 0.10942 0.97678 0.0
H626 H 0.06982 0.16354 0.87846 0.0
H627 H 0.04475 0.18172 0.83811 0.0
H628 H 0.97558 0.19657 0.89024 0.0
H629 H 0.95586 0.18446 0.95604 0.0
H630 H 0.95515 0.1261 0.04313 0.0
H631 H 0.97477 0.09696 0.03765 0.0
H632 H 0.02035 0.15483 0.11133 0.0
H633 H 0.02264 0.19982 0.02642 0.0
H634 H 0.96698 0.1149 0.8636 0.0
H635 H 0.02207 0.10026 0.83782 0.0
C636 C 0.85882 0.98834 0.49861 0.0
C637 C 0.86643 0.97259 0.48683 0.0
C638 C 0.85359 0.96032 0.49464 0.0
C639 C 0.83892 0.96916 0.51105 0.0
N640 N 0.84176 0.98621 0.51346 0.0
Co641 Co 0.82521 1.00356 0.53948 0.0
N642 N 0.81202 0.98556 0.57329 0.0
C643 C 0.8128 0.96845 0.56609 0.0
C644 C 0.80263 0.95898 0.59521 0.0
C645 C 0.79473 0.97091 0.62186 0.0
C646 C 0.80032 0.98713 0.60713 0.0
N647 N 0.80866 0.02115 0.56463 0.0
C648 C 0.79666 0.01979 0.59803 0.0
C649 C 0.78688 0.03516 0.60227 0.0
C650 C 0.79288 0.04633 0.57027 0.0
C651 C 0.80592 0.03726 0.54808 0.0
N652 N 0.83879 0.02131 0.50614 0.0
C653 C 0.83308 0.03741 0.49576 0.0
C654 C 0.84629 0.04703 0.47541 0.0
C655 C 0.86116 0.03625 0.47335 0.0
C656 C 0.85618 0.02066 0.4927 0.0
N657 N 0.8086 1.00132 0.49196 0.0
C658 C 0.78364 1.00217 0.42569 0.0
C659 C 0.80214 1.00259 0.41625 0.0
C660 C 0.81439 1.00213 0.44985 0.0
C661 C 0.77812 1.00046 0.4689 0.0
C662 C 0.79066 1.00008 0.5012 0.0
N663 N 0.84156 1.00606 0.58669 0.0
C664 C 0.85901 0.02488 0.62836 0.0
C665 C 0.86888 0.01071 0.64459 0.0
C666 C 0.86422 0.99405 0.6328 0.0
C667 C 0.85033 0.99199 0.60423 0.0
C668 C 0.84549 0.02229 0.59953 0.0
H669 H 0.84715 0.97907 0.59507 0.0
H670 H 0.83877 0.03355 0.58611 0.0
H671 H 0.82852 1.00289 0.44188 0.0
H672 H 0.78564 0.99926 0.53384 0.0
C673 C 0.82497 0.96164 0.53557 0.0
C674 C 0.8678 1.00516 0.49648 0.0
C675 C 0.79262 1.00366 0.62254 0.0
C676 C 0.8173 0.04401 0.51522 0.0
H677 H 0.87995 0.96996 0.47539 0.0
H678 H 0.85535 0.94644 0.49231 0.0
H679 H 0.80144 0.94505 0.59751 0.0
H680 H 0.78561 0.96797 0.64852 0.0
H681 H 0.77614 0.03789 0.62525 0.0
H682 H 0.78841 0.05956 0.56429 0.0
H683 H 0.84561 0.0606 0.46592 0.0
H684 H 0.87421 0.03951 0.4599 0.0
H685 H 0.80711 1.00382 0.38333 0.0
H686 H 0.76407 0.99956 0.478 0.0
H687 H 0.86228 0.038 0.63619 0.0
H688 H 0.87139 0.98273 0.64505 0.0
C689 C 0.53145 0.92235 0.52437 0.0
C690 C 0.54699 0.93124 0.51424 0.0
C691 C 0.56094 0.91963 0.52021 0.0
C692 C 0.55313 0.90433 0.53345 0.0
N693 N 0.5352 0.90568 0.53567 0.0
Co694 Co 0.51855 0.88741 0.55555 0.0
N695 N 0.53748 0.87465 0.58725 0.0
C696 C 0.55521 0.87701 0.58175 0.0
C697 C 0.5651 0.86707 0.60989 0.0
C698 C 0.55285 0.85772 0.63405 0.0
C699 C 0.53605 0.86222 0.61878 0.0
N700 N 0.50174 0.86907 0.57454 0.0
C701 C 0.50339 0.85643 0.60531 0.0
C702 C 0.48886 0.84546 0.60517 0.0
C703 C 0.47786 0.85154 0.57334 0.0
C704 C 0.48626 0.86576 0.55551 0.0
N705 N 0.49973 0.90057 0.5244 0.0
C706 C 0.48422 0.89425 0.51148 0.0
C707 C 0.47321 0.90698 0.49446 0.0
C708 C 0.48242 0.92216 0.49711 0.0
C709 C 0.49868 0.91783 0.51533 0.0
N710 N 0.52449 0.87409 0.50393 0.0
C711 C 0.52953 0.85386 0.43059 0.0
C712 C 0.52651 0.87183 0.42673 0.0
C713 C 0.52421 0.88173 0.46376 0.0
C714 C 0.53044 0.84642 0.472 0.0
C715 C 0.52787 0.85666 0.50796 0.0
N716 N 0.51242 0.90056 0.6067 0.0
C717 C 0.48957 0.91375 0.65125 0.0
C718 C 0.50235 0.92371 0.67069 0.0
C719 C 0.52042 0.92119 0.65912 0.0
C720 C 0.52521 0.90932 0.62744 0.0
C721 C 0.49486 0.90233 0.61934 0.0
H722 H 0.53916 0.9078 0.61841 0.0
H723 H 0.48458 0.89556 0.60343 0.0
H724 H 0.52181 0.8955 0.45993 0.0
H725 H 0.52813 0.85028 0.53911 0.0
C726 C 0.56179 0.89049 0.5549 0.0
C727 C 0.51329 0.92989 0.52293 0.0
C728 C 0.51927 0.85339 0.6318 0.0
C729 C 0.47892 0.87766 0.52559 0.0
H730 H 0.5481 0.94476 0.50472 0.0
H731 H 0.57508 0.92242 0.51834 0.0
H732 H 0.57945 0.86708 0.6136 0.0
H733 H 0.55606 0.8486 0.65975 0.0
H734 H 0.48657 0.83403 0.62524 0.0
H735 H 0.46511 0.8464 0.56488 0.0
H736 H 0.4596 0.90564 0.48426 0.0
H737 H 0.47743 0.93485 0.48758 0.0
H738 H 0.5259 0.8782 0.39538 0.0
H739 H 0.53251 0.83259 0.47677 0.0
H740 H 0.47544 0.91542 0.65901 0.0
H741 H 0.53069 0.92858 0.67373 0.0
C742 C 0.65806 0.53186 0.48008 0.0
C743 C 0.64986 0.54684 0.46421 0.0
C744 C 0.66207 0.55983 0.46727 0.0
C745 C 0.67701 0.55205 0.4847 0.0
N746 N 0.67494 0.535 0.4922 0.0
Co747 Co 0.69216 0.51895 0.52054 0.0
N748 N 0.70457 0.53815 0.54754 0.0
C749 C 0.70308 0.55502 0.5357 0.0
C750 C 0.71293 0.5655 0.56051 0.0
C751 C 0.72136 0.55453 0.58916 0.0
C752 C 0.71639 0.53782 0.57992 0.0
N753 N 0.70935 0.50262 0.54832 0.0
C754 C 0.72124 0.50517 0.57962 0.0
C755 C 0.73161 0.4903 0.58675 0.0
C756 C 0.72609 0.4782 0.5588 0.0
C757 C 0.71274 0.48626 0.53597 0.0
N758 N 0.67937 0.49997 0.49365 0.0
C759 C 0.68579 0.48387 0.4873 0.0
C760 C 0.67312 0.47323 0.47147 0.0
C761 C 0.65783 0.48331 0.46801 0.0
C762 C 0.66204 0.49963 0.48174 0.0
N763 N 0.7087 0.52074 0.47035 0.0
C764 C 0.73349 0.51993 0.40061 0.0
C765 C 0.71503 0.51866 0.3941 0.0
C766 C 0.70286 0.51911 0.42939 0.0
C767 C 0.73905 0.52237 0.44254 0.0
C768 C 0.72657 0.52273 0.47662 0.0
N769 N 0.67582 0.51699 0.57029 0.0
C770 C 0.65671 0.49841 0.61302 0.0
C771 C 0.64531 0.51248 0.62257 0.0
C772 C 0.65088 0.52916 0.61026 0.0
C773 C 0.66631 0.53113 0.58429 0.0
C774 C 0.67187 0.50094 0.58687 0.0
H775 H 0.66967 0.54397 0.57269 0.0
H776 H 0.67955 0.48969 0.57729 0.0
H777 H 0.68878 0.51773 0.42373 0.0
H778 H 0.7316 0.52423 0.50828 0.0
C779 C 0.69062 0.56066 0.50514 0.0
C780 C 0.64975 0.51477 0.48287 0.0
C781 C 0.72463 0.52197 0.59905 0.0
C782 C 0.70172 0.47837 0.50663 0.0
H783 H 0.63636 0.54827 0.45276 0.0
H784 H 0.65975 0.57351 0.46078 0.0
H785 H 0.71358 0.57948 0.55871 0.0
H786 H 0.73039 0.55842 0.6135 0.0
H787 H 0.74243 0.48849 0.60888 0.0
H788 H 0.73109 0.46503 0.55586 0.0
H789 H 0.67441 0.45948 0.46614 0.0
H790 H 0.64504 0.47897 0.45762 0.0
H791 H 0.71005 0.51681 0.36226 0.0
H792 H 0.75306 0.5239 0.44925 0.0
H793 H 0.65339 0.48535 0.62349 0.0
H794 H 0.64267 0.54046 0.61741 0.0
C795 C 0.98904 0.61064 0.55516 0.0
C796 C 0.97278 0.60296 0.54815 0.0
C797 C 0.95975 0.61549 0.55448 0.0
C798 C 0.96869 0.63005 0.56531 0.0
N799 N 0.9865 0.6274 0.5659 0.0
Co800 Co 1.00436 0.6443 0.58326 0.0
N801 N 0.98602 0.65816 0.61497 0.0
C802 C 0.96822 0.65741 0.61004 0.0
C803 C 0.95876 0.66869 0.63577 0.0
C804 C 0.97141 0.6772 0.65782 0.0
C805 C 0.98798 0.67067 0.64413 0.0
N806 N 0.02233 0.66127 0.59973 0.0
C807 C 0.0213 0.67364 0.62984 0.0
C808 C 0.03685 0.6832 0.62913 0.0
C809 C 0.04783 0.67665 0.59716 0.0
C810 C 0.03843 0.66351 0.58005 0.0
N811 N 0.02256 0.6302 0.55205 0.0
C812 C 0.03867 0.63552 0.53746 0.0
C813 C 0.04862 0.62237 0.51906 0.0
C814 C 0.03806 0.60796 0.52261 0.0
C815 C 0.02225 0.61315 0.54312 0.0
N816 N 1.00004 0.65828 0.5308 0.0
C817 C 0.99693 0.67881 0.45529 0.0
C818 C 0.99824 0.66068 0.4536 0.0
C819 C 0.99967 0.65068 0.49165 0.0
C820 C 0.99676 0.68632 0.49577 0.0
C821 C 0.99832 0.6759 0.53288 0.0
N822 N 0.00892 0.6303 0.63509 0.0
C823 C 0.03047 0.61474 0.67769 0.0
C824 C 0.01691 0.60481 0.69718 0.0
C825 C 0.99912 0.60862 0.68704 0.0
C826 C 0.99538 0.62173 0.65648 0.0
C827 C 0.02622 0.62732 0.64666 0.0
H828 H 0.98162 0.62428 0.64851 0.0
H829 H 0.0371 0.63387 0.63023 0.0
H830 H 1.00081 0.63678 0.48937 0.0
H831 H 0.99857 0.68223 0.56323 0.0
C832 C 0.96092 0.64449 0.5854 0.0
C833 C 1.00674 0.60202 0.55162 0.0
C834 C 1.00521 0.67783 0.65615 0.0
C835 C 0.04519 0.65145 0.55037 0.0
H836 H 0.97041 0.58966 0.54052 0.0
H837 H 0.94542 0.61376 0.55442 0.0
H838 H 0.94437 0.67028 0.6389 0.0
H839 H 0.96874 0.68727 0.68074 0.0
H840 H 0.03981 0.69398 0.64908 0.0
H841 H 0.06122 0.68073 0.58823 0.0
H842 H 0.0623 0.62289 0.50682 0.0
H843 H 0.04159 0.59512 0.51173 0.0
H844 H 0.99818 0.65426 0.42312 0.0
H845 H 0.99599 0.70024 0.49885 0.0
H846 H 0.04441 0.6121 0.68443 0.0
H847 H 0.98828 0.60127 0.70182 0.0
H848 H 0.49076 0.13629 0.35388 0.0
H849 H 0.49648 0.10798 0.32197 0.0
H850 H 0.51638 0.08809 0.44277 0.0
H851 H 0.51101 0.11655 0.47414 0.0
H852 H 0.53986 0.08334 0.37695 0.0
H853 H 0.47388 0.06058 0.32992 0.0
H854 H 0.47746 0.08251 0.31179 0.0
H855 H 0.47635 0.07735 0.36857 0.0
C856 C 0.49588 0.1257 0.37376 0.0
C857 C 0.5002 0.12839 0.41653 0.0
C858 C 0.49904 0.10952 0.3557 0.0
C859 C 0.50652 0.09579 0.38023 0.0
C860 C 0.51039 0.0984 0.42341 0.0
H861 H 0.56439 0.00985 0.25253 0.0
H862 H 0.54741 0.02349 0.31171 0.0
C863 C 0.5073 0.1146 0.44133 0.0
C864 C 0.51264 0.0797 0.35895 0.0
H865 H 0.49956 0.04952 0.2888 0.0
C866 C 0.53101 0.07562 0.35855 0.0
C867 C 0.50104 0.0696 0.33525 0.0
C868 C 0.48106 0.07262 0.33675 0.0
C869 C 0.53833 0.06275 0.33205 0.0
C870 C 0.52687 0.05346 0.30591 0.0
C871 C 0.50833 0.05668 0.30874 0.0
C872 C 0.53417 0.04257 0.27079 0.0
C873 C 0.55841 0.0602 0.3298 0.0
C874 C 0.53143 0.04803 0.22812 0.0
C875 C 0.54089 0.04017 0.19449 0.0
C876 C 0.55333 0.02671 0.20285 0.0
C877 C 0.55495 0.02025 0.24523 0.0
C878 C 0.54539 0.02812 0.27904 0.0
H879 H 0.56545 0.07034 0.34708 0.0
H880 H 0.56201 0.04744 0.34467 0.0
H881 H 0.56338 0.06035 0.29585 0.0
H882 H 0.52276 0.05906 0.22095 0.0
H883 H 0.53912 0.04518 0.162 0.0
H884 H 0.44889 0.51919 0.25528 0.0
H885 H 0.46953 0.53594 0.20861 0.0
H886 H 0.50745 0.5362 0.31046 0.0
H887 H 0.48686 0.51932 0.35696 0.0
H888 H 0.49072 0.56914 0.28286 0.0
H889 H 0.52059 0.53283 0.146 0.0
H890 H 0.49739 0.529 0.15926 0.0
H891 H 0.51417 0.52243 0.19673 0.0
C892 C 0.46203 0.52207 0.26673 0.0
C893 C 0.46649 0.5179 0.30925 0.0
C894 C 0.47381 0.5316 0.24014 0.0
C895 C 0.49007 0.53716 0.25602 0.0
C896 C 0.49509 0.5318 0.29747 0.0
H897 H 0.53947 0.63504 0.17601 0.0
H898 H 0.53551 0.60681 0.21256 0.0
C899 C 0.48337 0.52216 0.32392 0.0
C900 C 0.49946 0.55161 0.23374 0.0
H901 H 0.52158 0.56363 0.14066 0.0
C902 C 0.49779 0.56793 0.25213 0.0
C903 C 0.50828 0.54994 0.19337 0.0
C904 C 0.51037 0.5326 0.17261 0.0
C905 C 0.50399 0.58284 0.23043 0.0
C906 C 0.51286 0.58128 0.18985 0.0
C907 C 0.51498 0.56481 0.17194 0.0
C908 C 0.5185 0.59679 0.16416 0.0
C909 C 0.4999 0.60019 0.25014 0.0
C910 C 0.5114 0.60001 0.12338 0.0
C911 C 0.5142 0.61585 0.1019 0.0
C912 C 0.52406 0.62874 0.12093 0.0
C913 C 0.53199 0.6252 0.16057 0.0
C914 C 0.52951 0.60919 0.18165 0.0
H915 H 0.48898 0.59937 0.27503 0.0
H916 H 0.51199 0.60477 0.2659 0.0
H917 H 0.4959 0.60999 0.22533 0.0
H918 H 0.50293 0.59063 0.10912 0.0
H919 H 0.50798 0.61836 0.07129 0.0
H920 H 0.97763 0.48077 0.11513 0.0
H921 H 0.99411 0.46784 0.17483 0.0
H922 H 0.96969 0.50489 0.26063 0.0
H923 H 0.95257 0.51755 0.20096 0.0
H924 H 0.01747 0.47841 0.23669 0.0
H925 H 0.95173 0.45876 0.30961 0.0
H926 H 0.95375 0.46782 0.25578 0.0
H927 H 0.95498 0.48158 0.30118 0.0
C928 C 0.97591 0.48628 0.14665 0.0
C929 C 0.9635 0.49987 0.15369 0.0
C930 C 0.98545 0.47898 0.18065 0.0
C931 C 0.98281 0.48515 0.22234 0.0
C932 C 0.97163 0.49972 0.22883 0.0
H933 H 1.00604 0.41694 0.44367 0.0
H934 H 1.00123 0.44453 0.40425 0.0
C935 C 0.96198 0.50702 0.1947 0.0
C936 C 0.9902 0.47491 0.25893 0.0
H937 H 0.97741 0.44692 0.34024 0.0
C938 C 0.00875 0.47176 0.25989 0.0
C939 C 0.9788 0.46623 0.28919 0.0
C940 C 0.9587 0.46861 0.28895 0.0
C941 C 0.01613 0.45959 0.28905 0.0
C942 C 1.00461 0.45021 0.3175 0.0
C943 C 0.98621 0.45415 0.31837 0.0
C944 C 0.01082 0.43487 0.34297 0.0
C945 C 0.03611 0.45658 0.28838 0.0
C946 C 0.01809 0.4204 0.3218 0.0
C947 C 0.02084 0.40472 0.3443 0.0
C948 C 0.01631 0.40332 0.38819 0.0
C949 C 0.00976 0.41792 0.40983 0.0
C950 C 1.00703 0.43361 0.38738 0.0
H951 H 0.04327 0.46833 0.27659 0.0
H952 H 0.04092 0.45282 0.32081 0.0
H953 H 0.03962 0.44597 0.26617 0.0
H954 H 0.02064 0.42092 0.28738 0.0
H955 H 0.02561 0.39347 0.32705 0.0
H956 H 0.00932 0.88637 0.18399 0.0
H957 H 0.01403 0.91294 0.22284 0.0
H958 H 1.00291 0.9434 0.10797 0.0
H959 H 0.99872 0.91661 0.06883 0.0
H960 H 0.03248 0.95366 0.14146 0.0
H961 H 0.98205 0.94945 0.27305 0.0
H962 H 0.99472 0.92956 0.27175 0.0
H963 H 0.98128 0.93602 0.22658 0.0
C964 C 1.00759 0.89878 0.16746 0.0
C965 C 1.00373 0.8996 0.1237 0.0
C966 C 0.01009 0.91397 0.18965 0.0
C967 C 1.00846 0.93024 0.16865 0.0
C968 C 1.00406 0.93103 0.12501 0.0
H969 H 0.03573 0.01014 0.35135 0.0
H970 H 0.0185 0.99797 0.29342 0.0
C971 C 1.00166 0.9158 0.10272 0.0
C972 C 0.01335 0.94609 0.19129 0.0
H973 H 0.00952 0.96462 0.28942 0.0
C974 C 0.02713 0.95633 0.17339 0.0
C975 C 1.00607 0.95003 0.23241 0.0
C976 C 0.99006 0.94078 0.25174 0.0
C977 C 0.03497 0.9692 0.1972 0.0
C978 C 0.0292 0.97158 0.24035 0.0
C979 C 0.01424 0.96258 0.25665 0.0
C980 C 0.04005 0.98113 0.27083 0.0
C981 C 0.04984 0.97966 0.17638 0.0
C982 C 0.05787 0.97585 0.27705 0.0
C983 C 0.06762 0.98274 0.3098 0.0
C984 C 0.05974 0.99496 0.3374 0.0
C985 C 0.04214 1.00084 0.33024 0.0
C986 C 0.0323 0.99385 0.29734 0.0
H987 H 0.04776 0.98156 0.14135 0.0
H988 H 0.05084 0.99254 0.19104 0.0
H989 H 0.06275 0.97253 0.18022 0.0
H990 H 0.06402 0.96575 0.25789 0.0
H991 H 0.08119 0.97804 0.31453 0.0
H992 H 0.40227 0.03064 0.88453 0.0
H993 H 0.43132 0.02428 0.84927 0.0
H994 H 0.40615 0.98842 0.76729 0.0
H995 H 0.3771 0.99516 0.80107 0.0
H996 H 0.44624 0.9913 0.85396 0.0
H997 H 0.4412 0.01281 0.68426 0.0
H998 H 0.42648 0.0211 0.72624 0.0
H999 H 0.42185 1.00089 0.70166 0.0
C1000 C 0.40286 0.02186 0.85796 0.0
C1001 C 0.38743 0.01336 0.84552 0.0
C1002 C 0.41948 0.01814 0.83819 0.0
C1003 C 0.42088 1.00595 0.80563 0.0
C1004 C 0.40535 0.99812 0.79178 0.0
H1005 H 0.4789 0.92091 0.73874 0.0
H1006 H 0.46407 0.94456 0.77699 0.0
C1007 C 0.38877 1.00183 0.81142 0.0
C1008 C 0.43859 0.99942 0.79013 0.0
H1009 H 0.46074 0.98769 0.69798 0.0
C1010 C 0.44971 0.99092 0.81992 0.0
C1011 C 0.44335 0.99922 0.74589 0.0
C1012 C 0.43267 0.00918 0.71275 0.0
C1013 C 0.4644 0.98072 0.8062 0.0
C1014 C 0.46787 0.9789 0.76168 0.0
C1015 C 0.45791 0.98888 0.73216 0.0
C1016 C 0.47951 0.96477 0.74487 0.0
C1017 C 0.47552 0.97132 0.83942 0.0
C1018 C 0.49331 0.96824 0.71457 0.0
C1019 C 0.50179 0.95468 0.69252 0.0
C1020 C 0.49637 0.93751 0.70014 0.0
C1021 C 0.48328 0.93403 0.73225 0.0
C1022 C 0.47492 0.94753 0.75437 0.0
H1023 H 0.47565 0.97862 0.86968 0.0
H1024 H 0.4696 0.95851 0.84712 0.0
H1025 H 0.48952 0.96924 0.82752 0.0
H1026 H 0.49696 0.98146 0.70669 0.0
H1027 H 0.51174 0.95773 0.66765 0.0
H1028 H 0.62565 0.53186 0.6811 0.0
H1029 H 0.59548 0.52601 0.71024 0.0
H1030 H 0.59367 0.48028 0.63409 0.0
H1031 H 0.623 0.48661 0.60297 0.0
H1032 H 0.5619 0.49659 0.63575 0.0
H1033 H 0.5871 0.48969 0.80239 0.0
H1034 H 0.58982 0.51048 0.77623 0.0
H1035 H 0.60204 0.49197 0.7563 0.0
C1036 C 0.61873 0.52066 0.67033 0.0
C1037 C 0.627 0.5094 0.64072 0.0
C1038 C 0.60154 0.51727 0.68723 0.0
C1039 C 0.59248 0.50246 0.67517 0.0
C1040 C 0.60043 0.49169 0.64424 0.0
H1041 H 0.52897 0.42265 0.74757 0.0
H1042 H 0.54338 0.44633 0.70692 0.0
C1043 C 0.6174 0.49517 0.62704 0.0
C1044 C 0.57529 0.4972 0.69615 0.0
H1045 H 0.55812 0.48075 0.79108 0.0
C1046 C 0.56092 0.49345 0.6699 0.0
C1047 C 0.57394 0.49321 0.7408 0.0
C1048 C 0.58905 0.4964 0.77065 0.0
C1049 C 0.54589 0.48465 0.68649 0.0
C1050 C 0.5452 0.47959 0.73039 0.0
C1051 C 0.55874 0.4847 0.75737 0.0
C1052 C 0.53257 0.46647 0.74767 0.0
C1053 C 0.5313 0.48006 0.65659 0.0
C1054 C 0.52129 0.47001 0.78328 0.0
C1055 C 0.51287 0.45649 0.80621 0.0
C1056 C 0.51598 0.43925 0.79432 0.0
C1057 C 0.52629 0.43586 0.75706 0.0
C1058 C 0.53444 0.44938 0.73377 0.0
H1059 H 0.53089 0.48911 0.62826 0.0
H1060 H 0.53393 0.46681 0.6447 0.0
H1061 H 0.51801 0.48022 0.67345 0.0
H1062 H 0.51989 0.48308 0.79483 0.0
H1063 H 0.50514 0.45937 0.83514 0.0
H1064 H 1.00744 0.57121 0.68834 0.0
H1065 H 0.02154 0.54561 0.72255 0.0
H1066 H 0.05262 0.57889 0.79955 0.0
H1067 H 0.03847 0.60429 0.76592 0.0
H1068 H 0.0566 0.53914 0.71221 0.0
H1069 H 0.04159 0.54068 0.88588 0.0
H1070 H 0.02796 0.55235 0.84732 0.0
H1071 H 0.04795 0.56182 0.86691 0.0
C1072 C 0.01674 0.57297 0.71387 0.0
C1073 C 0.02188 0.58967 0.72467 0.0
C1074 C 0.02484 0.55837 0.73321 0.0
C1075 C 0.03799 0.5603 0.76404 0.0
C1076 C 0.04221 0.57701 0.77674 0.0
H1077 H 0.14066 0.52649 0.79786 0.0
H1078 H 0.1114 0.53465 0.7703 0.0
C1079 C 0.03422 0.59155 0.75727 0.0
C1080 C 0.04956 0.54545 0.77769 0.0
H1081 H 0.07135 0.52951 0.86542 0.0
C1082 C 0.05946 0.53664 0.7458 0.0
C1083 C 0.05309 0.54181 0.82143 0.0
C1084 C 0.04189 0.54957 0.85727 0.0
C1085 C 0.07399 0.52574 0.75637 0.0
C1086 C 0.07892 0.52391 0.7998 0.0
C1087 C 0.06785 0.53121 0.83196 0.0
C1088 C 0.09665 0.51676 0.81205 0.0
C1089 C 0.08437 0.51691 0.7207 0.0
C1090 C 0.09816 0.50399 0.84474 0.0
C1091 C 0.11493 0.4994 0.86078 0.0
C1092 C 0.13044 0.50769 0.8448 0.0
C1093 C 0.12895 0.51992 0.81084 0.0
C1094 C 0.11223 0.52444 0.79474 0.0
H1095 H 0.07547 0.51388 0.69401 0.0
H1096 H 0.0948 0.52575 0.70746 0.0
H1097 H 0.09097 0.50474 0.73233 0.0
H1098 H 0.0863 0.49807 0.85898 0.0
H1099 H 0.11562 0.49013 0.88745 0.0
H1100 H 1.00173 0.07126 0.85384 0.0
H1101 H 0.98683 0.04777 0.81777 0.0
H1102 H 0.95625 0.08557 0.74473 0.0
H1103 H 0.97099 0.10893 0.78062 0.0
H1104 H 0.94958 0.04357 0.8246 0.0
H1105 H 0.97151 0.05012 0.65407 0.0
H1106 H 0.98389 0.05901 0.69713 0.0
H1107 H 0.96483 0.07059 0.6759 0.0
C1108 C 0.99222 0.07448 0.8291 0.0
C1109 C 0.9875 0.09185 0.81978 0.0
C1110 C 0.98369 0.0611 0.80873 0.0
C1111 C 0.97061 0.06494 0.77821 0.0
C1112 C 0.96656 0.08231 0.7675 0.0
H1113 H 0.87098 0.03264 0.71134 0.0
H1114 H 0.89789 0.04122 0.74723 0.0
C1115 C 0.9749 0.09564 0.78815 0.0
C1116 C 0.95945 0.05116 0.7613 0.0
H1117 H 0.94235 0.03753 0.66785 0.0
C1118 C 0.9483 0.0419 0.79035 0.0
C1119 C 0.95797 0.04875 0.7167 0.0
C1120 C 0.97033 0.05752 0.68417 0.0
C1121 C 0.93466 0.03148 0.7758 0.0
C1122 C 0.93204 0.03047 0.73114 0.0
C1123 C 0.94421 0.03849 0.70213 0.0
C1124 C 0.91556 0.02323 0.71391 0.0
C1125 C 0.92273 0.02218 0.80838 0.0
C1126 C 0.91652 0.01019 0.68338 0.0
C1127 C 0.90114 1.0054 0.6623 0.0
C1128 C 0.88458 0.01366 0.67141 0.0
C1129 C 0.88357 0.02613 0.70345 0.0
C1130 C 0.89891 0.03092 0.72434 0.0
H1131 H 0.92988 0.01926 0.83862 0.0
H1132 H 0.911 0.03062 0.81637 0.0
H1133 H 0.91782 0.00991 0.79567 0.0
H1134 H 0.92926 1.00412 0.675 0.0
H1135 H 0.90238 0.9959 0.6374 0.0
H1136 H 0.66871 0.97168 0.91021 0.0
H1137 H 0.69291 0.97319 0.85562 0.0
H1138 H 0.67475 0.02449 0.81711 0.0
H1139 H 0.64991 0.02252 0.87016 0.0
H1140 H 0.6856 1.00873 0.74942 0.0
H1141 H 0.73806 0.99783 0.86905 0.0
H1142 H 0.7233 0.97985 0.86895 0.0
H1143 H 0.71484 1.00085 0.88452 0.0
C1144 C 0.66976 0.98315 0.88956 0.0
C1145 C 0.65745 0.99697 0.89431 0.0
C1146 C 0.68376 0.98413 0.85876 0.0
C1147 C 0.68615 0.99921 0.83303 0.0
C1148 C 0.67338 0.01276 0.83669 0.0
H1149 H 0.78942 0.01905 0.70066 0.0
H1150 H 0.76334 0.01939 0.7505 0.0
C1151 C 0.65913 0.01162 0.86688 0.0
C1152 C 0.70195 1.00089 0.80264 0.0
H1153 H 0.74749 0.9958 0.79541 0.0
C1154 C 0.69913 1.00601 0.75964 0.0
C1155 C 0.71978 0.99782 0.81585 0.0
C1156 C 0.7242 0.99399 0.86221 0.0
C1157 C 0.71345 1.00773 0.72952 0.0
C1158 C 0.73113 1.0035 0.74208 0.0
C1159 C 0.73399 0.99879 0.78531 0.0
C1160 C 0.74684 1.00378 0.71112 0.0
C1161 C 0.70938 0.01452 0.68487 0.0
C1162 C 0.74646 0.99487 0.67236 0.0
C1163 C 0.76119 0.99503 0.64359 0.0
C1164 C 0.77696 1.0035 0.65358 0.0
C1165 C 0.77749 0.01227 0.69243 0.0
C1166 C 0.76259 0.01243 0.72088 0.0
H1167 H 0.69707 0.0228 0.68502 0.0
H1168 H 0.72059 0.0222 0.67071 0.0
H1169 H 0.70702 1.00346 0.66388 0.0
H1170 H 0.73481 0.98765 0.66437 0.0
H1171 H 0.76031 0.98839 0.61354 0.0
H1172 H 0.54033 0.82384 0.63097 0.0
H1173 H 0.54 0.79944 0.6823 0.0
H1174 H 0.49576 0.82338 0.75189 0.0
H1175 H 0.49759 0.84881 0.7032 0.0
H1176 H 0.51448 0.80907 0.80693 0.0
H1177 H 0.50914 0.75979 0.68375 0.0
H1178 H 0.52956 0.77117 0.67472 0.0
H1179 H 0.50834 0.78257 0.67018 0.0
C1180 C 0.53089 0.82413 0.65798 0.0
C1181 C 0.51931 0.83849 0.66371 0.0
C1182 C 0.53036 0.8099 0.68679 0.0
C1183 C 0.51749 0.80911 0.72062 0.0
C1184 C 0.50584 0.82348 0.72622 0.0
H1185 H 0.49863 0.70855 0.85032 0.0
H1186 H 0.49726 0.73449 0.80364 0.0
C1187 C 0.50683 0.83803 0.69831 0.0
C1188 C 0.51638 0.79354 0.75046 0.0
H1189 H 0.51771 0.74925 0.75347 0.0
C1190 C 0.51495 0.796 0.79505 0.0
C1191 C 0.51652 0.77633 0.73555 0.0
C1192 C 0.51575 0.77233 0.68843 0.0
C1193 C 0.51397 0.78195 0.8248 0.0
C1194 C 0.51561 0.76475 0.81 0.0
C1195 C 0.51675 0.7623 0.76538 0.0
C1196 C 0.51592 0.74912 0.83982 0.0
C1197 C 0.51053 0.78589 0.87157 0.0
C1198 C 0.5269 0.74834 0.87586 0.0
C1199 C 0.52692 0.7338 0.90381 0.0
C1200 C 0.51654 0.71935 0.89555 0.0
C1201 C 0.50629 0.71971 0.85838 0.0
C1202 C 0.50572 0.73451 0.83132 0.0
H1203 H 0.50306 0.79836 0.87514 0.0
H1204 H 0.50273 0.77556 0.88849 0.0
H1205 H 0.5235 0.78716 0.88755 0.0
H1206 H 0.53562 0.7589 0.88239 0.0
H1207 H 0.53525 0.73376 0.93175 0.0
H1208 H 0.86737 0.50273 0.82824 0.0
H1209 H 0.84278 0.5019 0.77792 0.0
H1210 H 0.82576 0.55325 0.81449 0.0
H1211 H 0.84973 0.55359 0.86647 0.0
H1212 H 0.79815 0.53474 0.81317 0.0
H1213 H 0.83573 0.52179 0.66181 0.0
H1214 H 0.8401 0.50529 0.70186 0.0
H1215 H 0.84678 0.52723 0.71021 0.0
C1216 C 0.85858 0.51396 0.82476 0.0
C1217 C 0.86058 0.52831 0.85088 0.0
C1218 C 0.84452 0.51353 0.79583 0.0
C1219 C 0.83242 0.52764 0.7915 0.0
C1220 C 0.8348 0.54217 0.81691 0.0
H1221 H 0.75654 0.53807 0.58325 0.0
H1222 H 0.78194 0.53993 0.63076 0.0
C1223 C 0.8486 0.54244 0.84645 0.0
C1224 C 0.81667 0.52694 0.76274 0.0
H1225 H 0.80415 0.51771 0.66108 0.0
C1226 C 0.79955 0.53114 0.7798 0.0
C1227 C 0.81829 0.52246 0.71889 0.0
C1228 C 0.83624 0.51913 0.69701 0.0
C1229 C 0.78417 0.53095 0.75468 0.0
C1230 C 0.78568 0.52566 0.71143 0.0
C1231 C 0.80281 0.52156 0.69427 0.0
C1232 C 0.76983 0.52478 0.68304 0.0
C1233 C 0.76659 0.53699 0.77464 0.0
C1234 C 0.75444 0.51555 0.69601 0.0
C1235 C 0.73965 0.51496 0.66926 0.0
C1236 C 0.74004 0.52328 0.62857 0.0
C1237 C 0.75564 0.53198 0.61497 0.0
C1238 C 0.77026 0.53287 0.642 0.0
H1239 H 0.76867 0.54576 0.8017 0.0
H1240 H 0.75815 0.54393 0.7507 0.0
H1241 H 0.75921 0.52561 0.78774 0.0
H1242 H 0.75389 0.5086 0.72665 0.0
H1243 H 0.72798 0.50781 0.6801 0.0
H1244 H 0.99358 0.8258 0.84144 0.0
H1245 H 0.99409 0.79999 0.7968 0.0
H1246 H 0.01328 0.76906 0.90395 0.0
H1247 H 0.01239 0.79478 0.94867 0.0
H1248 H 0.02221 0.77844 0.77343 0.0
H1249 H 0.9714 0.74083 0.86727 0.0
H1250 H 0.97464 0.76361 0.87494 0.0
H1251 H 0.98959 0.74777 0.89862 0.0
C1252 C 0.99769 0.81342 0.85544 0.0
C1253 C 1.00264 0.81217 0.89862 0.0
C1254 C 0.99806 0.7987 0.82995 0.0
C1255 C 1.00339 0.78244 0.84713 0.0
C1256 C 1.00867 0.7813 0.89015 0.0
H1257 H 0.01562 0.6789 0.73957 0.0
H1258 H 0.01583 0.70423 0.78596 0.0
C1259 C 1.00826 0.796 0.91563 0.0
C1260 C 1.00387 0.76682 0.81975 0.0
H1261 H 0.98741 0.72599 0.81214 0.0
C1262 C 0.01453 0.76701 0.78184 0.0
C1263 C 0.99393 0.75181 0.83067 0.0
C1264 C 0.98161 0.75098 0.86986 0.0
C1265 C 0.0157 0.75262 0.75498 0.0
C1266 C 1.0057 0.73766 0.7658 0.0
C1267 C 0.99512 0.73741 0.80382 0.0
C1268 C 1.00574 0.72228 0.73764 0.0
C1269 C 0.02794 0.75346 0.71566 0.0
C1270 C 0.99984 0.7239 0.6952 0.0
C1271 C 0.99972 0.70948 0.66888 0.0
C1272 C 1.00534 0.6931 0.68454 0.0
C1273 C 0.01119 0.6914 0.72691 0.0
C1274 C 0.01129 0.70585 0.75334 0.0
H1275 H 0.03826 0.76351 0.71834 0.0
H1276 H 0.03477 0.74079 0.71025 0.0
H1277 H 0.01993 0.75683 0.68706 0.0
H1278 H 0.99516 0.73631 0.68251 0.0
H1279 H 0.99517 0.71107 0.63625 0.0
H1280 H 0.16594 0.04832 0.6285 0.0
H1281 H 0.19024 0.04784 0.67976 0.0
H1282 H 0.17725 0.99536 0.71802 0.0
H1283 H 0.15225 0.99629 0.66846 0.0
H1284 H 0.18652 0.01108 0.78509 0.0
H1285 H 0.23776 0.02623 0.65927 0.0
H1286 H 0.22123 0.04325 0.6625 0.0
H1287 H 0.21493 0.02198 0.64662 0.0
C1288 C 0.16814 0.03681 0.64844 0.0
C1289 C 0.15721 0.02237 0.64469 0.0
C1290 C 0.18221 0.03642 0.67729 0.0
C1291 C 0.1861 0.02135 0.70195 0.0
C1292 C 0.17472 1.00712 0.69926 0.0
H1293 H 0.29092 1.00533 0.81912 0.0
H1294 H 0.265 1.00481 0.77239 0.0
C1295 C 0.16037 1.00766 0.67107 0.0
C1296 C 0.20204 0.02037 0.7302 0.0
H1297 H 0.24696 0.02802 0.73178 0.0
C1298 C 0.19974 0.01469 0.77326 0.0
C1299 C 0.21951 0.02462 0.71487 0.0
C1300 C 0.22355 0.02916 0.66818 0.0
C1301 C 0.21419 0.01349 0.80138 0.0
C1302 C 0.23142 0.01884 0.78677 0.0
C1303 C 0.23379 0.02417 0.74349 0.0
C1304 C 0.24718 0.01895 0.81556 0.0
C1305 C 0.21081 1.00599 0.84608 0.0
C1306 C 0.24605 0.02717 0.85533 0.0
C1307 C 0.26073 0.02711 0.88234 0.0
C1308 C 0.27716 0.01944 0.86956 0.0
C1309 C 0.27847 0.01149 0.82952 0.0
C1310 C 0.26364 0.01122 0.80285 0.0
H1311 H 0.19927 0.99712 0.84702 0.0
H1312 H 0.2227 0.99873 0.85805 0.0
H1313 H 0.20749 0.01665 0.86828 0.0
H1314 H 0.2338 0.03371 0.86561 0.0
H1315 H 0.25923 0.03308 0.91335 0.0
H1316 H 0.48867 0.23709 0.57861 0.0
H1317 H 0.48837 0.26294 0.62304 0.0
H1318 H 0.5028 0.23118 0.73321 0.0
H1319 H 0.50296 0.20532 0.6887 0.0
H1320 H 0.47486 0.25549 0.75052 0.0
H1321 H 0.53255 0.28718 0.66678 0.0
H1322 H 0.51493 0.28117 0.6324 0.0
H1323 H 0.52761 0.26463 0.66032 0.0
C1324 C 0.49176 0.2357 0.61233 0.0
C1325 C 0.49597 0.21931 0.63028 0.0
C1326 C 0.49171 0.25046 0.63763 0.0
C1327 C 0.49586 0.2491 0.6814 0.0
C1328 C 0.49967 0.23261 0.69952 0.0
H1329 H 0.5033 0.31937 0.89466 0.0
H1330 H 0.502 0.29431 0.84821 0.0
C1331 C 0.49978 0.21786 0.67416 0.0
C1332 C 0.49606 0.2648 0.7084 0.0
H1333 H 0.51694 0.3034 0.7197 0.0
C1334 C 0.48409 0.26594 0.74384 0.0
C1335 C 0.50803 0.27853 0.69963 0.0
C1336 C 0.52163 0.27784 0.66296 0.0
C1337 C 0.48361 0.28045 0.77034 0.0
C1338 C 0.49574 0.2941 0.76194 0.0
C1339 C 0.50762 0.293 0.72627 0.0
C1340 C 0.49659 0.30941 0.79024 0.0
C1341 C 0.4698 0.28117 0.80657 0.0
C1342 C 0.4945 0.32636 0.77317 0.0
C1343 C 0.4955 0.34072 0.7997 0.0
C1344 C 0.49881 0.33841 0.84367 0.0
C1345 C 0.50088 0.32149 0.86075 0.0
C1346 C 0.49995 0.30716 0.83428 0.0
H1347 H 0.45829 0.27274 0.80068 0.0
H1348 H 0.47599 0.2765 0.83682 0.0
H1349 H 0.46468 0.2946 0.81115 0.0
H1350 H 0.49196 0.32849 0.73934 0.0
H1351 H 0.49373 0.35364 0.78589 0.0
H1352 H 0.3656 0.52054 0.63797 0.0
H1353 H 0.34105 0.52138 0.69182 0.0
H1354 H 0.32737 0.46916 0.66149 0.0
H1355 H 0.35126 0.46878 0.60604 0.0
H1356 H 0.29861 0.48724 0.66529 0.0
H1357 H 0.33572 0.50245 0.81019 0.0
H1358 H 0.33895 0.5186 0.76846 0.0
H1359 H 0.34697 0.49673 0.76048 0.0
C1360 C 0.35754 0.50915 0.64353 0.0
C1361 C 0.36042 0.49453 0.61823 0.0
C1362 C 0.34353 0.50959 0.67447 0.0
C1363 C 0.33241 0.49522 0.68157 0.0
C1364 C 0.33567 0.48044 0.6569 0.0
H1365 H 0.25805 0.48358 0.90087 0.0
H1366 H 0.28344 0.48253 0.8496 0.0
C1367 C 0.34941 0.48015 0.62539 0.0
C1368 C 0.31672 0.49586 0.71257 0.0
H1369 H 0.30393 0.50557 0.81562 0.0
C1370 C 0.29985 0.49112 0.69827 0.0
C1371 C 0.31819 0.50074 0.75588 0.0
C1372 C 0.33597 0.50473 0.77478 0.0
C1373 C 0.28456 0.49113 0.72569 0.0
C1374 C 0.28588 0.49676 0.76844 0.0
C1375 C 0.30275 0.50145 0.78281 0.0
C1376 C 0.27013 0.49729 0.79926 0.0
C1377 C 0.26732 0.48454 0.70872 0.0
C1378 C 0.25411 0.50608 0.78863 0.0
C1379 C 0.23937 0.5062 0.81755 0.0
C1380 C 0.24045 0.49784 0.85804 0.0
C1381 C 0.25667 0.48966 0.86935 0.0
C1382 C 0.27125 0.48923 0.84018 0.0
H1383 H 0.26985 0.47575 0.68145 0.0
H1384 H 0.25949 0.47744 0.73415 0.0
H1385 H 0.2591 0.49566 0.69673 0.0
H1386 H 0.25301 0.51298 0.75808 0.0
H1387 H 0.22717 0.51297 0.80851 0.0
H1388 H 0.02621 0.29633 0.57633 0.0
H1389 H 0.02577 0.27132 0.62609 0.0
H1390 H 0.98893 0.29878 0.71034 0.0
H1391 H 0.99126 0.32449 0.66312 0.0
H1392 H 1.00842 0.28247 0.75768 0.0
H1393 H 0.9917 0.23443 0.63841 0.0
H1394 H 0.01258 0.244 0.62304 0.0
H1395 H 0.99237 0.25719 0.62482 0.0
C1396 C 0.01809 0.297 0.60563 0.0
C1397 C 1.00841 0.31224 0.61528 0.0
C1398 C 0.01757 0.28255 0.63381 0.0
C1399 C 1.00671 0.28266 0.67151 0.0
C1400 C 0.99726 0.29807 0.68141 0.0
H1401 H 0.98652 0.18363 0.80994 0.0
H1402 H 0.98447 0.20943 0.76251 0.0
C1403 C 0.99839 0.31276 0.6541 0.0
C1404 C 1.00575 0.2671 0.70148 0.0
H1405 H 1.00301 0.22293 0.70495 0.0
C1406 C 1.00696 0.2695 0.74595 0.0
C1407 C 1.00341 0.25003 0.68703 0.0
C1408 C 0.99972 0.24631 0.64078 0.0
C1409 C 1.0062 0.25553 0.77588 0.0
C1410 C 1.00549 0.23834 0.76109 0.0
C1411 C 1.00392 0.23595 0.71671 0.0
C1412 C 1.00638 0.22271 0.79079 0.0
C1413 C 1.00551 0.25961 0.82306 0.0
C1414 C 0.01934 0.22129 0.82269 0.0
C1415 C 0.01995 0.2069 0.85092 0.0
C1416 C 1.0084 0.19296 0.84637 0.0
C1417 C 0.99572 0.19409 0.81389 0.0
C1418 C 0.99462 0.20884 0.78667 0.0
H1419 H 0.99909 0.27249 0.82847 0.0
H1420 H 0.99796 0.24978 0.84242 0.0
H1421 H 0.01934 0.26014 0.83492 0.0
H1422 H 0.02908 0.23132 0.82591 0.0
H1423 H 0.02958 0.20664 0.87627 0.0
H1424 H 0.13911 0.99782 0.33324 0.0
H1425 H 0.16478 0.99725 0.28195 0.0
H1426 H 0.1964 0.02393 0.37226 0.0
H1427 H 0.17093 0.02409 0.42364 0.0
H1428 H 0.18263 0.02438 0.24399 0.0
H1429 H 0.22992 0.98445 0.3404 0.0
H1430 H 0.20637 0.98621 0.35431 0.0
H1431 H 0.22133 1.00305 0.36803 0.0
C1432 C 0.15161 1.00344 0.342 0.0
C1433 C 0.15309 0.01111 0.38204 0.0
C1434 C 0.16625 1.00314 0.31282 0.0
C1435 C 0.18266 0.01034 0.32338 0.0
C1436 C 0.18408 0.01795 0.36361 0.0
H1437 H 0.28276 0.02993 0.17828 0.0
H1438 H 0.25886 0.0284 0.23401 0.0
C1439 C 0.16949 0.0182 0.39277 0.0
C1440 C 0.19802 0.01057 0.29172 0.0
H1441 H 0.24208 0.99862 0.27752 0.0
C1442 C 0.19558 0.01865 0.25129 0.0
C1443 C 0.215 1.00317 0.3012 0.0
C1444 C 0.21831 0.99359 0.34318 0.0
C1445 C 0.20965 0.01974 0.22043 0.0
C1446 C 0.22661 0.01236 0.22991 0.0
C1447 C 0.22911 1.00434 0.27036 0.0
C1448 C 0.24168 0.01242 0.19758 0.0
C1449 C 0.20631 0.02904 0.17808 0.0
C1450 C 0.24022 1.00351 0.15922 0.0
C1451 C 0.25384 1.00427 0.12758 0.0
C1452 C 0.26931 0.01397 0.13341 0.0
C1453 C 0.27108 0.02232 0.17268 0.0
C1454 C 0.25739 0.02152 0.20449 0.0
H1455 H 0.1942 0.03758 0.17982 0.0
H1456 H 0.21797 0.03698 0.16776 0.0
H1457 H 0.20425 0.01935 0.1531 0.0
H1458 H 0.22842 0.99607 0.15356 0.0
H1459 H 0.25218 0.99729 0.09829 0.0
H1460 H 0.5172 0.25548 0.41734 0.0
H1461 H 0.51659 0.27865 0.36206 0.0
H1462 H 0.47331 0.25368 0.30104 0.0
H1463 H 0.47386 0.23051 0.35587 0.0
H1464 H 0.522 0.27674 0.27457 0.0
H1465 H 0.45386 0.30284 0.31018 0.0
H1466 H 0.46535 0.28821 0.34671 0.0
H1467 H 0.45425 0.28 0.30114 0.0
C1468 C 0.50755 0.2549 0.39216 0.0
C1469 C 0.49549 0.24113 0.39138 0.0
C1470 C 0.50717 0.26821 0.36065 0.0
C1471 C 0.49468 0.26812 0.32775 0.0
C1472 C 0.48274 0.25434 0.3267 0.0
H1473 H 0.47306 0.32547 0.09264 0.0
H1474 H 0.47359 0.30579 0.15546 0.0
C1475 C 0.48308 0.24106 0.35817 0.0
C1476 C 0.49458 0.28202 0.29353 0.0
H1477 H 0.46758 0.3121 0.24349 0.0
C1478 C 0.51016 0.2846 0.26808 0.0
C1479 C 0.47913 0.29231 0.28499 0.0
C1480 C 0.46225 0.29085 0.31245 0.0
C1481 C 0.51054 0.29673 0.23351 0.0
C1482 C 0.49498 0.30677 0.22447 0.0
C1483 C 0.47949 0.30439 0.25034 0.0
C1484 C 0.49432 0.3193 0.18728 0.0
C1485 C 0.52739 0.29825 0.20598 0.0
C1486 C 0.50552 0.33372 0.18458 0.0
C1487 C 0.50529 0.345 0.14852 0.0
C1488 C 0.49384 0.34211 0.11439 0.0
C1489 C 0.48226 0.32795 0.11791 0.0
C1490 C 0.48246 0.31672 0.15397 0.0
H1491 H 0.53668 0.28703 0.21114 0.0
H1492 H 0.52421 0.29922 0.17136 0.0
H1493 H 0.53445 0.31016 0.21426 0.0
H1494 H 0.51456 0.33616 0.21021 0.0
H1495 H 0.51445 0.35571 0.14686 0.0
H1496 H 0.37848 0.50816 0.29477 0.0
H1497 H 0.3526 0.50753 0.2477 0.0
H1498 H 0.31867 0.49318 0.35676 0.0
H1499 H 0.34462 0.49355 0.40346 0.0
H1500 H 0.31233 0.47357 0.28771 0.0
H1501 H 0.31202 0.54292 0.23743 0.0
H1502 H 0.33303 0.53202 0.22683 0.0
H1503 H 0.32509 0.5345 0.28143 0.0
C1504 C 0.36546 0.5049 0.30848 0.0
C1505 C 0.36346 0.50089 0.35255 0.0
C1506 C 0.35065 0.50467 0.28172 0.0
C1507 C 0.33354 0.50058 0.29869 0.0
C1508 C 0.33165 0.49644 0.34283 0.0
H1509 H 0.23334 0.51703 0.16 0.0
H1510 H 0.25683 0.51756 0.2136 0.0
C1511 C 0.34644 0.49665 0.36949 0.0
C1512 C 0.31769 0.50017 0.27045 0.0
H1513 H 0.29296 0.52462 0.19959 0.0
C1514 C 0.30807 0.48477 0.26861 0.0
C1515 C 0.31186 0.51484 0.24595 0.0
C1516 C 0.32091 0.53206 0.24823 0.0
C1517 C 0.29316 0.4835 0.24228 0.0
C1518 C 0.28778 0.49794 0.21642 0.0
C1519 C 0.29711 0.51349 0.21909 0.0
C1520 C 0.27294 0.49702 0.18541 0.0
C1521 C 0.28317 0.4667 0.24274 0.0
C1522 C 0.27406 0.48528 0.15176 0.0
C1523 C 0.26065 0.48491 0.1213 0.0
C1524 C 0.24577 0.49635 0.1234 0.0
C1525 C 0.24448 0.50791 0.15761 0.0
C1526 C 0.25798 0.50831 0.18809 0.0
H1527 H 0.28545 0.45895 0.27273 0.0
H1528 H 0.26857 0.46907 0.23964 0.0
H1529 H 0.28801 0.45888 0.21525 0.0
H1530 H 0.28554 0.47662 0.14844 0.0
H1531 H 0.26206 0.47573 0.09568 0.0
H1532 H 1.00274 0.20941 0.0847 0.0
H1533 H 1.00319 0.22902 0.14487 0.0
H1534 H 0.04012 0.19454 0.21004 0.0
H1535 H 0.03997 0.17487 0.14932 0.0
H1536 H 0.99402 0.22167 0.23338 0.0
H1537 H 0.06456 0.24247 0.2105 0.0
H1538 H 0.05267 0.2321 0.16884 0.0
H1539 H 0.06091 0.21952 0.21363 0.0
C1540 C 0.01114 0.20604 0.11157 0.0
C1541 C 0.02149 0.19062 0.11185 0.0
C1542 C 0.01128 0.21723 0.14612 0.0
C1543 C 0.02186 0.21339 0.18177 0.0
C1544 C 0.03205 0.19791 0.18259 0.0
H1545 H 0.03887 0.27703 0.40705 0.0
H1546 H 0.04027 0.25377 0.35489 0.0
C1547 C 0.03183 0.1866 0.14802 0.0
C1548 C 0.02191 0.22561 0.21803 0.0
H1549 H 0.04797 0.25432 0.26842 0.0
C1550 C 1.00584 0.22876 0.24117 0.0
C1551 C 0.03735 0.23478 0.2284 0.0
C1552 C 0.05486 0.23221 0.20397 0.0
C1553 C 1.00475 0.24087 0.27412 0.0
C1554 C 0.02004 0.25049 0.28358 0.0
C1555 C 0.03623 0.24702 0.26115 0.0
C1556 C 0.01928 0.26464 0.31538 0.0
C1557 C 0.98722 0.2431 0.29875 0.0
C1558 C 1.00728 0.27871 0.31025 0.0
C1559 C 1.00644 0.29199 0.33997 0.0
C1560 C 0.01773 0.29168 0.37547 0.0
C1561 C 0.03002 0.27776 0.38008 0.0
C1562 C 0.0308 0.2644 0.35034 0.0
H1563 H 0.97894 0.23135 0.29742 0.0
H1564 H 0.98941 0.24593 0.33296 0.0
H1565 H 0.97951 0.25407 0.28418 0.0
H1566 H 0.99863 0.27952 0.28292 0.0
H1567 H 0.99711 0.30268 0.33471 0.0
H1568 H 0.63982 0.02181 0.20691 0.0
H1569 H 0.66547 0.02188 0.25483 0.0
H1570 H 0.69725 0.99365 0.16148 0.0
H1571 H 0.67177 0.99395 0.11345 0.0
H1572 H 0.68347 0.99439 0.29157 0.0
H1573 H 0.73066 0.03225 0.18765 0.0
H1574 H 0.70712 0.03117 0.17686 0.0
H1575 H 0.72212 0.01373 0.16197 0.0
C1576 C 0.65235 0.01575 0.19671 0.0
C1577 C 0.65386 1.00779 0.15677 0.0
C1578 C 0.66698 0.01576 0.22401 0.0
C1579 C 0.68344 1.00797 0.21164 0.0
C1580 C 0.6849 1.00008 0.1715 0.0
H1581 H 0.78407 0.98777 0.34528 0.0
H1582 H 0.76022 0.98916 0.2924 0.0
C1583 C 0.6703 1.0001 0.14423 0.0
C1584 C 0.69881 1.00746 0.2414 0.0
H1585 H 0.74275 0.01834 0.24983 0.0
C1586 C 0.69639 0.99972 0.28246 0.0
C1587 C 0.71576 0.01431 0.22958 0.0
C1588 C 0.71907 0.02348 0.18678 0.0
C1589 C 0.71041 0.99847 0.31168 0.0
C1590 C 0.72733 1.00536 0.29993 0.0
C1591 C 0.72983 0.013 0.2588 0.0
C1592 C 0.74233 1.00526 0.33062 0.0
C1593 C 0.70707 0.98951 0.35475 0.0
C1594 C 0.74047 0.01427 0.36906 0.0
C1595 C 0.75405 0.01357 0.39909 0.0
C1596 C 0.76992 1.00385 0.39157 0.0
C1597 C 0.77208 0.99538 0.3522 0.0
C1598 C 0.75841 0.99611 0.32201 0.0
H1599 H 0.69522 0.98106 0.3545 0.0
H1600 H 0.71888 0.98154 0.36436 0.0
H1601 H 0.70452 0.99941 0.37947 0.0
H1602 H 0.72841 0.02178 0.37601 0.0
H1603 H 0.75207 0.02066 0.42843 0.0
H1604 H 0.50927 0.85522 0.35817 0.0
H1605 H 0.50985 0.83481 0.29911 0.0
H1606 H 0.55379 0.80678 0.35701 0.0
H1607 H 0.55319 0.82698 0.41613 0.0
H1608 H 0.53563 0.82479 0.23893 0.0
H1609 H 0.51761 0.76889 0.34575 0.0
H1610 H 0.51609 0.79093 0.36334 0.0
H1611 H 0.53734 0.77961 0.36169 0.0
C1612 C 0.5192 0.84484 0.35804 0.0
C1613 C 0.53105 0.84264 0.39222 0.0
C1614 C 0.51947 0.83312 0.32433 0.0
C1615 C 0.53157 0.81897 0.32406 0.0
C1616 C 0.54396 0.81726 0.35706 0.0
H1617 H 0.55142 0.73043 0.16085 0.0
H1618 H 0.55315 0.75337 0.21324 0.0
C1619 C 0.54364 0.82888 0.39083 0.0
C1620 C 0.53107 0.80583 0.28981 0.0
H1621 H 0.52628 0.76254 0.27389 0.0
C1622 C 0.5335 0.8112 0.24657 0.0
C1623 C 0.52823 0.78806 0.29963 0.0
C1624 C 0.52449 0.78152 0.34506 0.0
C1625 C 0.53358 0.79925 0.21313 0.0
C1626 C 0.53094 0.78148 0.22307 0.0
C1627 C 0.52843 0.77614 0.26625 0.0
C1628 C 0.53051 0.76817 0.18928 0.0
C1629 C 0.53688 0.80571 0.16749 0.0
C1630 C 0.51723 0.7688 0.15823 0.0
C1631 C 0.51623 0.75571 0.12812 0.0
C1632 C 0.52848 0.74162 0.12839 0.0
C1633 C 0.54192 0.74117 0.15921 0.0
C1634 C 0.54286 0.75423 0.18942 0.0
H1635 H 0.54308 0.81868 0.16622 0.0
H1636 H 0.54569 0.79655 0.14948 0.0
H1637 H 0.52392 0.80681 0.151 0.0
H1638 H 0.50736 0.77925 0.15784 0.0
H1639 H 0.50578 0.75658 0.10474 0.0
H1640 H 0.73217 0.53363 0.31791 0.0
H1641 H 0.75552 0.53213 0.26096 0.0
H1642 H 0.78916 0.50184 0.34576 0.0
H1643 H 0.76584 0.50278 0.40195 0.0
H1644 H 0.78998 0.5443 0.26208 0.0
H1645 H 0.79221 0.47354 0.23837 0.0
H1646 H 0.77408 0.48416 0.26741 0.0
H1647 H 0.79478 0.47902 0.29345 0.0
C1648 C 0.74442 0.52639 0.32415 0.0
C1649 C 0.7471 0.51839 0.36468 0.0
C1650 C 0.75781 0.52564 0.29164 0.0
C1651 C 0.77406 0.51668 0.29878 0.0
C1652 C 0.77666 0.50855 0.33903 0.0
H1653 H 0.87726 0.50339 0.16576 0.0
H1654 H 0.85155 0.50323 0.21703 0.0
C1655 C 0.76334 0.5093 0.37142 0.0
C1656 C 0.7887 0.51649 0.26516 0.0
H1657 H 0.81687 0.48951 0.20851 0.0
C1658 C 0.79572 0.53232 0.25002 0.0
C1659 C 0.7963 0.50086 0.24948 0.0
C1660 C 0.78885 0.48344 0.26268 0.0
C1661 C 0.8104 0.53294 0.22072 0.0
C1662 C 0.81815 0.51731 0.20554 0.0
C1663 C 0.81101 0.50149 0.22029 0.0
C1664 C 0.83363 0.51715 0.17429 0.0
C1665 C 0.81784 0.55034 0.20722 0.0
C1666 C 0.83204 0.52469 0.13298 0.0
C1667 C 0.84665 0.52476 0.10386 0.0
C1668 C 0.86317 0.51732 0.11552 0.0
C1669 C 0.8647 0.50938 0.15636 0.0
C1670 C 0.85003 0.50927 0.1855 0.0
H1671 H 0.81338 0.56065 0.22953 0.0
H1672 H 0.83269 0.54985 0.20572 0.0
H1673 H 0.81309 0.554 0.17471 0.0
H1674 H 0.81944 0.53049 0.12317 0.0
H1675 H 0.84511 0.53067 0.0722 0.0
H1676 H 0.01996 0.77419 0.10695 0.0
H1677 H 0.01904 0.75116 0.16262 0.0
H1678 H 0.97712 0.77902 0.2308 0.0
H1679 H 0.97799 0.80206 0.1756 0.0
H1680 H 0.02521 0.75301 0.24913 0.0
H1681 H 0.95615 0.73109 0.22585 0.0
H1682 H 0.96779 0.74487 0.18703 0.0
H1683 H 0.95728 0.75392 0.23424 0.0
C1684 C 0.01054 0.77543 0.13378 0.0
C1685 C 0.99896 0.78997 0.1365 0.0
C1686 C 0.00998 0.7622 0.16551 0.0
C1687 C 0.99778 0.76317 0.20057 0.0
C1688 C 0.9863 0.77771 0.20351 0.0
H1689 H 0.97635 0.70803 0.44059 0.0
H1690 H 0.97702 0.72753 0.37737 0.0
C1691 C 0.98682 0.7909 0.17182 0.0
C1692 C 0.99754 0.74939 0.23503 0.0
H1693 H 0.97006 0.72123 0.29042 0.0
C1694 C 0.01321 0.74592 0.25784 0.0
C1695 C 0.98187 0.74012 0.24646 0.0
C1696 C 0.96487 0.74254 0.22185 0.0
C1697 C 0.01348 0.73391 0.29263 0.0
C1698 C 0.99771 0.72491 0.30459 0.0
C1699 C 0.98212 0.72816 0.28133 0.0
C1700 C 0.99696 0.71255 0.34212 0.0
C1701 C 0.03047 0.73141 0.31726 0.0
C1702 C 1.00766 0.69741 0.34306 0.0
C1703 C 1.00735 0.68623 0.3793 0.0
C1704 C 0.99631 0.68995 0.41538 0.0
C1705 C 0.98523 0.70489 0.41373 0.0
C1706 C 0.98551 0.71601 0.37748 0.0
H1707 H 0.04006 0.74199 0.31018 0.0
H1708 H 0.02752 0.73078 0.35242 0.0
H1709 H 0.03707 0.71901 0.30812 0.0
H1710 H 0.01638 0.69431 0.31587 0.0
H1711 H 0.01614 0.67492 0.37949 0.0
H1712 H 0.39005 0.02503 0.0811 0.0
H1713 H 0.4229 0.02434 0.07876 0.0
H1714 H 0.42262 1.00188 0.95342 0.0
H1715 H 0.38977 1.00324 0.95521 0.0
H1716 H 0.44691 0.99857 0.07415 0.0
H1717 H 0.4565 0.0404 0.92827 0.0
H1718 H 0.43492 0.03796 0.95491 0.0
H1719 H 0.44357 0.02159 0.91944 0.0
C1720 C 0.39704 0.02025 0.05275 0.0
C1721 C 0.38736 0.01467 0.01779 0.0
C1722 C 0.41584 0.01971 0.05154 0.0
C1723 C 0.42546 0.01348 0.01544 0.0
C1724 C 0.4157 1.00729 0.98112 0.0
H1725 H 0.53959 0.99802 0.95249 0.0
H1726 H 0.5067 0.99944 0.95301 0.0
C1727 C 0.39689 1.00792 0.98227 0.0
C1728 C 0.44559 0.01313 0.01436 0.0
H1729 H 0.48253 0.02639 0.95554 0.0
C1730 C 0.45466 1.00476 0.04829 0.0
C1731 C 0.4559 0.02112 0.98064 0.0
C1732 C 0.44724 0.03093 0.94396 0.0
C1733 C 0.47352 1.00391 0.0491 0.0
C1734 C 0.48381 0.01194 0.01545 0.0
C1735 C 0.47476 0.02025 0.98145 0.0
C1736 C 0.50391 0.01166 0.01466 0.0
C1737 C 0.48225 0.99397 0.08554 0.0
C1738 C 0.5135 0.01845 0.0485 0.0
C1739 C 0.5323 0.01759 0.0482 0.0
C1740 C 0.54194 0.00999 0.01401 0.0
C1741 C 0.53245 1.00378 0.97944 0.0
C1742 C 0.51366 1.00462 0.97974 0.0
H1743 H 0.4729 0.98471 0.1017 0.0
H1744 H 0.4943 0.98668 0.07397 0.0
H1745 H 0.48644 1.0032 0.10987 0.0
H1746 H 0.50644 0.02438 0.07531 0.0
H1747 H 0.53932 0.02258 0.07509 0.0
H1748 H 0.51628 0.45057 0.03881 0.0
H1749 H 0.51835 0.48233 0.03642 0.0
H1750 H 0.49767 0.48391 0.90855 0.0
H1751 H 0.49583 0.4521 0.9107 0.0
H1752 H 0.53676 0.5046 0.94958 0.0
H1753 H 0.46639 0.51736 0.00512 0.0
H1754 H 0.47863 0.49834 0.02379 0.0
H1755 H 0.47159 0.49986 0.9693 0.0
C1756 C 0.51253 0.45768 0.00989 0.0
C1757 C 0.5064 0.44884 0.9744 0.0
C1758 C 0.51357 0.47583 0.00869 0.0
C1759 C 0.50826 0.48552 0.97222 0.0
C1760 C 0.50192 0.47672 0.93694 0.0
H1761 H 0.49195 0.59727 0.92931 0.0
H1762 H 0.49044 0.56558 0.92858 0.0
C1763 C 0.50092 0.45858 0.93813 0.0
C1764 C 0.50921 0.50481 0.97118 0.0
H1765 H 0.48441 0.54158 0.99065 0.0
C1766 C 0.52534 0.51271 0.95858 0.0
C1767 C 0.49427 0.51538 0.98248 0.0
C1768 C 0.47666 0.50745 0.99603 0.0
C1769 C 0.52691 0.53089 0.95688 0.0
C1770 C 0.51205 0.54155 0.96918 0.0
C1771 C 0.49585 0.53356 0.98138 0.0
C1772 C 0.51302 0.56095 0.96964 0.0
C1773 C 0.54439 0.53846 0.94086 0.0
C1774 C 0.52601 0.56911 0.99347 0.0
C1775 C 0.52699 0.58723 0.9936 0.0
C1776 C 0.51483 0.59777 0.97044 0.0
C1777 C 0.50155 0.58961 0.94745 0.0
C1778 C 0.50069 0.57145 0.94701 0.0
H1779 H 0.55217 0.52923 0.92057 0.0
H1780 H 0.54217 0.55064 0.92186 0.0
H1781 H 0.55263 0.54138 0.96877 0.0
H1782 H 0.53532 0.56146 0.01246 0.0
H1783 H 0.53709 0.59303 0.01262 0.0
H1784 H 0.9749 0.50017 0.03047 0.0
H1785 H 1.00762 0.49783 0.03667 0.0
H1786 H 0.01437 0.52545 0.91533 0.0
H1787 H 0.98173 0.52766 0.909 0.0
H1788 H 0.03458 0.48317 0.97845 0.0
H1789 H 0.04428 0.55361 0.9991 0.0
H1790 H 0.02323 0.54324 0.01131 0.0
H1791 H 0.02995 0.54779 0.95659 0.0
C1792 C 0.98342 0.50566 0.00508 0.0
C1793 C 0.97578 0.51438 0.96965 0.0
C1794 C 1.00211 0.50436 0.00866 0.0
C1795 C 0.01358 0.5118 0.97695 0.0
C1796 C 1.0059 0.51999 0.9408 0.0
H1797 H 0.13045 0.5196 0.94661 0.0
H1798 H 0.09792 0.52176 0.93758 0.0
C1799 C 0.98723 0.52122 0.93714 0.0
C1800 C 0.0335 0.51095 0.98152 0.0
H1801 H 0.0703 0.53604 0.99317 0.0
C1802 C 0.04236 0.49473 0.98179 0.0
C1803 C 0.04377 0.52601 0.98588 0.0
C1804 C 0.03492 0.54368 0.98855 0.0
C1805 C 0.0611 0.4932 0.98572 0.0
C1806 C 0.07136 0.50826 0.99019 0.0
C1807 C 0.06252 0.52449 0.98962 0.0
C1808 C 0.09121 0.50734 0.99616 0.0
C1809 C 0.06984 0.47547 0.98426 0.0
C1810 C 0.09842 0.49898 0.03267 0.0
C1811 C 0.11702 0.49783 0.03791 0.0
C1812 C 0.12892 0.50476 0.00644 0.0
C1813 C 0.12168 0.51373 0.97083 0.0
C1814 C 0.10307 0.51501 0.96572 0.0
H1815 H 0.0609 0.4658 0.97069 0.0
H1816 H 0.08249 0.47582 0.96473 0.0
H1817 H 0.07311 0.47105 0.01738 0.0
H1818 H 0.08962 0.49343 0.05738 0.0
H1819 H 0.12207 0.49165 0.06685 0.0
H1820 H 0.02104 0.07653 0.04677 0.0
H1821 H 0.0191 0.04507 0.0404 0.0
H1822 H 0.98657 0.05264 0.92886 0.0
H1823 H 0.98938 0.08413 0.93405 0.0
H1824 H 0.99305 0.02296 0.04435 0.0
H1825 H 0.02332 0.02035 0.88001 0.0
H1826 H 0.02308 0.0398 0.91071 0.0
H1827 H 1.0035 0.03372 0.88279 0.0
C1828 C 0.01367 0.07143 0.02061 0.0
C1829 C 1.00583 0.08272 0.99012 0.0
C1830 C 0.01245 0.05344 0.01711 0.0
C1831 C 1.00314 0.04629 0.98335 0.0
C1832 C 0.9944 0.05767 0.95429 0.0
H1833 H 0.98468 0.93821 0.91762 0.0
H1834 H 0.98374 0.96989 0.92193 0.0
C1835 C 0.99582 0.07568 0.95754 0.0
C1836 C 1.00262 0.02701 0.97901 0.0
H1837 H 0.0118 0.99411 0.90959 0.0
C1838 C 0.99721 0.01671 0.01484 0.0
C1839 C 1.00803 0.01866 0.94057 0.0
C1840 C 0.01498 0.02867 0.90148 0.0
C1841 C 0.99697 0.9985 0.01332 0.0
C1842 C 1.00241 0.9902 0.97498 0.0
C1843 C 1.00758 1.00044 0.93895 0.0
C1844 C 1.00317 0.97091 0.97196 0.0
C1845 C 0.9907 0.98829 0.05273 0.0
C1846 C 0.01461 0.96086 0.99809 0.0
C1847 C 0.01521 0.94277 0.99559 0.0
C1848 C 1.0044 0.9342 0.96684 0.0
C1849 C 0.99309 0.94431 0.94034 0.0
C1850 C 0.99259 0.96245 0.94266 0.0
H1851 H 0.98268 0.99646 0.07521 0.0
H1852 H 0.98251 0.97716 0.04381 0.0
H1853 H 1.00251 0.98312 0.07006 0.0
H1854 H 0.0231 0.96703 0.02053 0.0
H1855 H 0.0239 0.93545 0.01694 0.0
H1856 H 0.03943 0.98297 0.5395 0.0
H1857 H 1.00743 0.98168 0.53115 0.0
H1858 H 1.00589 0.03553 0.49222 0.0
H1859 H 0.03785 0.03693 0.49888 0.0
H1860 H 0.98026 0.99802 0.57274 0.0
H1861 H 0.9774 0.01572 0.39999 0.0
H1862 H 0.99821 0.0106 0.42583 0.0
H1863 H 0.98828 0.03197 0.4293 0.0
C1864 C 0.03255 0.99484 0.5308 0.0
C1865 C 0.04172 0.0106 0.52462 0.0
C1866 C 0.01398 0.99393 0.52518 0.0
C1867 C 1.00396 1.00856 0.51169 0.0
C1868 C 0.01311 0.02399 0.50289 0.0
H1869 H 0.88763 0.02096 0.55576 0.0
H1870 H 0.9203 0.02235 0.5593 0.0
C1871 C 0.03163 0.02488 0.50823 0.0
C1872 C 0.984 1.00781 0.50781 0.0
H1873 H 0.94962 0.0171 0.43997 0.0
C1874 C 0.97359 1.00208 0.54354 0.0
C1875 C 0.97513 0.01286 0.46965 0.0
C1876 C 0.98535 0.01795 0.4289 0.0
C1877 C 0.95475 1.00156 0.54253 0.0
C1878 C 0.9458 1.00742 0.50505 0.0
C1879 C 0.95626 0.01283 0.46902 0.0
C1880 C 0.92573 1.00754 0.50205 0.0
C1881 C 0.94472 0.99443 0.5816 0.0
C1882 C 0.91759 0.99973 0.4674 0.0
C1883 C 0.89887 0.99938 0.46482 0.0
C1884 C 0.88778 1.00655 0.49718 0.0
C1885 C 0.89584 0.015 0.53084 0.0
C1886 C 0.91457 0.01559 0.53312 0.0
H1887 H 0.95337 0.98576 0.60148 0.0
H1888 H 0.9402 1.00536 0.60176 0.0
H1889 H 0.93282 0.98712 0.57254 0.0
H1890 H 0.92572 0.99368 0.44248 0.0
H1891 H 0.89308 0.9934 0.43754 0.0
H1892 H 0.52248 0.94921 0.59016 0.0
H1893 H 0.51978 0.98059 0.59791 0.0
H1894 H 0.49543 0.98531 0.47406 0.0
H1895 H 0.49935 0.95404 0.46512 0.0
H1896 H 0.51777 0.00995 0.47978 0.0
H1897 H 0.47815 0.00954 0.63245 0.0
H1898 H 0.49899 0.99803 0.6382 0.0
H1899 H 0.48248 0.9901 0.60289 0.0
C1900 C 0.51634 0.95695 0.56487 0.0
C1901 C 0.51043 0.94901 0.52784 0.0
C1902 C 0.51465 0.97493 0.56944 0.0
C1903 C 0.50679 0.98549 0.5373 0.0
C1904 C 0.50122 0.97756 0.49983 0.0
H1905 H 0.47994 0.09615 0.51301 0.0
H1906 H 0.48173 0.06466 0.50626 0.0
C1907 C 0.50316 0.95958 0.49501 0.0
C1908 C 0.50515 1.00479 0.5418 0.0
H1909 H 0.49099 0.0366 0.61028 0.0
C1910 C 0.51175 0.0157 0.50822 0.0
C1911 C 0.49723 0.01255 0.57877 0.0
C1912 C 0.48863 1.00194 0.61487 0.0
C1913 C 0.511 0.0339 0.51095 0.0
C1914 C 0.50357 0.04153 0.54835 0.0
C1915 C 0.49688 0.03074 0.58181 0.0
C1916 C 0.50238 0.06073 0.55295 0.0
C1917 C 0.51839 0.0449 0.47403 0.0
C1918 C 0.51326 0.06907 0.58181 0.0
C1919 C 0.51233 0.08715 0.58565 0.0
C1920 C 0.50023 0.09727 0.56128 0.0
C1921 C 0.48919 0.08879 0.53286 0.0
C1922 C 0.4903 0.07077 0.52863 0.0
H1923 H 0.52621 0.03711 0.45035 0.0
H1924 H 0.50717 0.05148 0.45715 0.0
H1925 H 0.52708 0.0551 0.48609 0.0
H1926 H 0.52265 0.06159 0.60101 0.0
H1927 H 0.521 0.09321 0.60787 0.0
H1928 H 0.62783 0.50181 0.42191 0.0
H1929 H 0.59501 0.50021 0.42456 0.0
H1930 H 0.59369 0.52311 0.54943 0.0
H1931 H 0.62633 0.52514 0.546 0.0
H1932 H 0.57153 0.48359 0.47884 0.0
H1933 H 0.55848 0.5542 0.48837 0.0
H1934 H 0.58042 0.54527 0.47583 0.0
H1935 H 0.5722 0.54578 0.53071 0.0
C1936 C 0.62052 0.50631 0.4501 0.0
C1937 C 0.62974 0.51324 0.48427 0.0
C1938 C 0.60172 0.50549 0.45153 0.0
C1939 C 0.59165 0.51175 0.48695 0.0
C1940 C 0.60093 0.51854 0.52122 0.0
H1941 H 0.477 0.51544 0.55719 0.0
H1942 H 0.50984 0.51698 0.5557 0.0
C1943 C 0.61968 0.51949 0.51956 0.0
C1944 C 0.57154 0.51109 0.48807 0.0
H1945 H 0.53337 0.53606 0.49969 0.0
C1946 C 0.56323 0.4951 0.48315 0.0
C1947 C 0.56051 0.52606 0.49381 0.0
C1948 C 0.56833 0.54382 0.49706 0.0
C1949 C 0.54441 0.49364 0.48446 0.0
C1950 C 0.53342 0.50859 0.49023 0.0
C1951 C 0.5417 0.52456 0.49533 0.0
C1952 C 0.51335 0.50795 0.49076 0.0
C1953 C 0.53645 0.47597 0.4806 0.0
C1954 C 0.50421 0.50259 0.45464 0.0
C1955 C 0.48543 0.50189 0.45535 0.0
C1956 C 0.47529 0.50672 0.49198 0.0
C1957 C 0.4844 0.5121 0.52809 0.0
C1958 C 0.50319 0.51285 0.52735 0.0
H1959 H 0.54639 0.46544 0.48732 0.0
H1960 H 0.52476 0.47435 0.50303 0.0
H1961 H 0.53181 0.47453 0.44737 0.0
H1962 H 0.5116 0.499 0.42574 0.0
H1963 H 0.47879 0.49757 0.42719 0.0
H1964 H 0.99483 0.5797 0.4921 0.0
H1965 H 0.99639 0.54798 0.49454 0.0
H1966 H 0.02624 0.54914 0.61105 0.0
H1967 H 0.02381 0.58092 0.60964 0.0
H1968 H 0.02258 0.52531 0.49031 0.0
H1969 H 0.98903 0.51577 0.65002 0.0
H1970 H 0.98975 0.53664 0.62278 0.0
H1971 H 0.00878 0.52849 0.65178 0.0
C1972 C 1.00147 0.57314 0.51857 0.0
C1973 C 0.00871 0.58272 0.55139 0.0
C1974 C 1.00249 0.55499 0.51982 0.0
C1975 C 0.011 0.54595 0.55363 0.0
C1976 C 0.01902 0.55562 0.58539 0.0
H1977 H 0.02947 0.43419 0.60033 0.0
H1978 H 0.03023 0.4659 0.60245 0.0
C1979 C 0.01782 0.5738 0.58437 0.0
C1980 C 0.0116 0.5265 0.55489 0.0
H1981 H 1.00125 0.49064 0.61733 0.0
C1982 C 0.01785 0.51779 0.51813 0.0
C1983 C 1.0055 0.51649 0.59114 0.0
C1984 C 0.99773 0.52481 0.631 0.0
C1985 C 0.01818 0.49958 0.51657 0.0
C1986 C 0.01198 0.48962 0.55264 0.0
C1987 C 1.00602 0.49824 0.58968 0.0
C1988 C 0.01122 0.47029 0.55203 0.0
C1989 C 0.02534 0.49109 0.47637 0.0
C1990 C 1.00006 0.46211 0.52354 0.0
C1991 C 0.99954 0.44399 0.52237 0.0
C1992 C 0.0102 0.43353 0.54965 0.0
C1993 C 0.0212 0.44177 0.57859 0.0
C1994 C 0.0216 0.45993 0.57997 0.0
H1995 H 0.03354 0.5001 0.45597 0.0
H1996 H 0.03362 0.47943 0.48446 0.0
H1997 H 0.01397 0.48695 0.4572 0.0
H1998 H 0.99175 0.46977 0.50202 0.0
H1999 H 0.99104 0.43819 0.49933 0.0
loop_
_geom_bond_atom_site_label_1
_geom_bond_atom_site_label_2
_geom_bond_distance
_geom_bond_site_symmetry_2
_ccdc_geom_bond_type
C0 C1 1.443 . S
C0 N4 1.376 . S
C0 C38 1.392 1_545 S
C1 C0 1.443 . S
C1 C2 1.340 . S
C1 H41 0.951 . S
C2 C1 1.340 . S
C2 C3 1.439 . S
C2 H42 0.950 . S
C3 C2 1.439 . S
C3 N4 1.374 . S
C3 C37 1.395 . S
N4 C0 1.376 . S
N4 C3 1.374 . S
N4 Co5 2.008 . S
Co5 N4 2.008 . S
Co5 N6 1.995 . S
Co5 N11 2.008 1_545 S
Co5 N16 1.995 1_545 S
Co5 N21 2.282 1_545 S
Co5 N27 2.282 . S
N6 Co5 1.995 . S
N6 C7 1.376 . S
N6 C10 1.383 . S
C7 N6 1.376 . S
C7 C8 1.446 . S
C7 C37 1.391 . S
C8 C7 1.446 . S
C8 C9 1.339 . S
C8 H43 0.949 . S
C9 C8 1.339 . S
C9 C10 1.439 . S
C9 H44 0.950 . S
C10 N6 1.383 . S
C10 C9 1.439 . S
C10 C39 1.402 . S
N11 Co5 2.008 1_565 S
N11 C12 1.376 . S
N11 C15 1.374 . S
C12 N11 1.376 . S
C12 C13 1.443 . S
C12 C39 1.378 1_565 S
C13 C12 1.443 . S
C13 C14 1.340 . S
C13 H45 0.951 . S
C14 C13 1.340 . S
C14 C15 1.439 . S
C14 H46 0.950 . S
C15 N11 1.374 . S
C15 C14 1.439 . S
C15 C40 1.395 . S
N16 Co5 1.995 1_565 S
N16 C17 1.376 . S
N16 C20 1.383 . S
C17 N16 1.376 . S
C17 C18 1.446 . S
C17 C40 1.391 . S
C18 C17 1.446 . S
C18 C19 1.339 . S
C18 H47 0.949 . S
C19 C18 1.339 . S
C19 C20 1.439 . S
C19 H48 0.950 . S
C20 N16 1.383 . S
C20 C19 1.439 . S
C20 C38 1.389 . S
N21 Co5 2.282 1_565 S
N21 C24 1.332 . S
N21 C26 1.332 1_565 S
C22 C23 1.386 1_556 S
C22 C25 1.386 1_556 S
C23 C22 1.386 1_554 S
C23 C24 1.382 . S
C23 H49 0.950 . S
C24 N21 1.332 . S
C24 C23 1.382 . S
C24 H35 0.952 . S
C25 C22 1.386 1_554 S
C25 C26 1.388 1_565 S
C25 H50 0.946 1_564 S
C26 N21 1.332 1_545 S
C26 C25 1.388 1_545 S
C26 H36 0.948 . S
N27 Co5 2.282 . S
N27 C31 1.332 . S
N27 C32 1.332 1_545 S
C28 C29 1.388 . S
C28 C32 1.382 1_545 S
C28 H51 0.950 1_545 S
C29 C28 1.388 . S
C29 C30 1.386 . S
C30 C29 1.386 . S
C30 C31 1.382 . S
C30 H52 0.950 . S
C31 N27 1.332 . S
C31 C30 1.382 . S
C31 H33 0.952 . S
C32 N27 1.332 1_565 S
C32 C28 1.382 1_565 S
C32 H34 0.948 . S
H33 C31 0.952 . S
H34 C32 0.948 . S
H35 C24 0.952 . S
H36 C26 0.948 . S
C37 C3 1.395 . S
C37 C7 1.391 . S
C38 C0 1.392 1_565 S
C38 C20 1.389 . S
C39 C10 1.402 . S
C39 C12 1.378 1_545 S
C40 C15 1.395 . S
C40 C17 1.391 . S
H41 C1 0.951 . S
H42 C2 0.950 . S
H43 C8 0.949 . S
H44 C9 0.950 . S
H45 C13 0.951 . S
H46 C14 0.950 . S
H47 C18 0.949 . S
H48 C19 0.950 . S
H49 C23 0.950 . S
H50 C25 0.946 1_546 S
H51 C28 0.950 1_565 S
H52 C30 0.950 . S
C53 C54 1.443 . S
C53 N57 1.376 . S
C53 C91 1.389 . S
C54 C53 1.443 . S
C54 C55 1.340 . S
C54 H94 0.951 . S
C55 C54 1.340 . S
C55 C56 1.439 . S
C55 H95 0.950 . S
C56 C55 1.439 . S
C56 N57 1.374 . S
C56 C90 1.395 . S
N57 C53 1.376 . S
N57 C56 1.374 . S
N57 Co58 2.008 . S
Co58 N57 2.008 . S
Co58 N59 1.995 . S
Co58 N64 2.008 . S
Co58 N69 1.995 . S
Co58 N74 2.282 . S
Co58 N80 2.282 . S
N59 Co58 1.995 . S
N59 C60 1.376 . S
N59 C63 1.383 . S
C60 N59 1.376 . S
C60 C61 1.446 . S
C60 C90 1.391 . S
C61 C60 1.446 . S
C61 C62 1.339 1_554 S
C61 H96 0.949 . S
C62 C61 1.339 1_556 S
C62 C63 1.439 1_556 S
C62 H97 0.950 . S
C63 N59 1.383 . S
C63 C62 1.439 1_554 S
C63 C92 1.392 1_554 S
N64 Co58 2.008 . S
N64 C65 1.376 . S
N64 C68 1.374 . S
C65 N64 1.376 . S
C65 C66 1.445 . S
C65 C92 1.389 1_554 S
C66 C65 1.445 . S
C66 C67 1.343 . S
C66 H98 0.948 1_554 S
C67 C66 1.343 . S
C67 C68 1.439 . S
C67 H99 0.950 . S
C68 N64 1.374 . S
C68 C67 1.439 . S
C68 C93 1.395 . S
N69 Co58 1.995 . S
N69 C70 1.376 . S
N69 C73 1.383 . S
C70 N69 1.376 . S
C70 C71 1.446 . S
C70 C93 1.391 . S
C71 C70 1.446 . S
C71 C72 1.339 . S
C71 H100 0.949 . S
C72 C71 1.339 . S
C72 C73 1.439 . S
C72 H101 0.950 . S
C73 N69 1.383 . S
C73 C72 1.439 . S
C73 C91 1.392 . S
N74 Co58 2.282 . S
N74 C77 1.332 . S
N74 C79 1.332 . S
C75 C76 1.386 . S
C75 C78 1.388 . S
C76 C75 1.386 . S
C76 C77 1.382 . S
C76 H102 0.950 . S
C77 N74 1.332 . S
C77 C76 1.382 . S
C77 H88 0.952 . S
C78 C75 1.388 . S
C78 C79 1.382 . S
C78 H103 0.950 . S
C79 N74 1.332 . S
C79 C78 1.382 . S
C79 H89 0.948 . S
N80 Co58 2.282 . S
N80 C84 1.332 . S
N80 C85 1.332 . S
C81 C82 1.388 . S
C81 C85 1.382 1_556 S
C81 H104 0.950 . S
C82 C81 1.388 . S
C82 C83 1.386 . S
C83 C82 1.386 . S
C83 C84 1.382 1_556 S
C83 H105 0.950 . S
C84 N80 1.332 . S
C84 C83 1.382 1_554 S
C84 H86 0.952 . S
C85 N80 1.332 . S
C85 C81 1.382 1_554 S
C85 H87 0.948 . S
H86 C84 0.952 . S
H87 C85 0.948 . S
H88 C77 0.952 . S
H89 C79 0.948 . S
C90 C56 1.395 . S
C90 C60 1.391 . S
C91 C53 1.389 . S
C91 C73 1.392 . S
C92 C63 1.392 1_556 S
C92 C65 1.389 1_556 S
C93 C68 1.395 . S
C93 C70 1.391 . S
H94 C54 0.951 . S
H95 C55 0.950 . S
H96 C61 0.949 . S
H97 C62 0.950 . S
H98 C66 0.948 1_556 S
H99 C67 0.950 . S
H100 C71 0.949 . S
H101 C72 0.950 . S
H102 C76 0.950 . S
H103 C78 0.950 . S
H104 C81 0.950 . S
H105 C83 0.950 . S
C106 C107 1.443 . S
C106 N110 1.376 . S
C106 C144 1.389 . S
C107 C106 1.443 . S
C107 C108 1.340 . S
C107 H147 0.951 . S
C108 C107 1.340 . S
C108 C109 1.439 . S
C108 H148 0.950 . S
C109 C108 1.439 . S
C109 N110 1.374 . S
C109 C143 1.395 . S
N110 C106 1.376 . S
N110 C109 1.374 . S
N110 Co111 2.008 . S
Co111 N110 2.008 . S
Co111 N112 1.995 . S
Co111 N117 2.008 . S
Co111 N122 1.995 . S
Co111 N127 2.282 . S
Co111 N133 2.282 . S
N112 Co111 1.995 . S
N112 C113 1.376 . S
N112 C116 1.383 . S
C113 N112 1.376 . S
C113 C114 1.446 . S
C113 C143 1.391 . S
C114 C113 1.446 . S
C114 C115 1.339 . S
C114 H149 0.949 . S
C115 C114 1.339 . S
C115 C116 1.439 . S
C115 H150 0.950 . S
C116 N112 1.383 . S
C116 C115 1.439 . S
C116 C145 1.392 . S
N117 Co111 2.008 . S
N117 C118 1.376 . S
N117 C121 1.374 . S
C118 N117 1.376 . S
C118 C119 1.443 . S
C118 C145 1.389 . S
C119 C118 1.443 . S
C119 C120 1.340 . S
C119 H151 0.951 . S
C120 C119 1.340 . S
C120 C121 1.439 . S
C120 H152 0.950 . S
C121 N117 1.374 . S
C121 C120 1.439 . S
C121 C146 1.395 . S
N122 Co111 1.995 . S
N122 C123 1.376 . S
N122 C126 1.383 . S
C123 N122 1.376 . S
C123 C124 1.446 . S
C123 C146 1.391 . S
C124 C123 1.446 . S
C124 C125 1.339 . S
C124 H153 0.949 . S
C125 C124 1.339 . S
C125 C126 1.439 . S
C125 H154 0.950 . S
C126 N122 1.383 . S
C126 C125 1.439 . S
C126 C144 1.392 . S
N127 Co111 2.282 . S
N127 C130 1.332 . S
N127 C132 1.332 . S
C128 C129 1.386 . S
C128 C131 1.388 . S
C129 C128 1.386 . S
C129 C130 1.382 1_556 S
C129 H155 0.950 . S
C130 N127 1.332 . S
C130 C129 1.382 1_554 S
C130 H141 0.952 . S
C131 C128 1.388 . S
C131 C132 1.382 1_556 S
C131 H156 0.950 . S
C132 N127 1.332 . S
C132 C131 1.382 1_554 S
C132 H142 0.948 . S
N133 Co111 2.282 . S
N133 C137 1.332 . S
N133 C138 1.332 . S
C134 C135 1.388 . S
C134 C138 1.382 . S
C134 H157 0.950 . S
C135 C134 1.388 . S
C135 C136 1.386 . S
C136 C135 1.386 . S
C136 C137 1.382 . S
C136 H158 0.950 . S
C137 N133 1.332 . S
C137 C136 1.382 . S
C137 H139 0.952 . S
C138 N133 1.332 . S
C138 C134 1.382 . S
C138 H140 0.948 . S
H139 C137 0.952 . S
H140 C138 0.948 . S
H141 C130 0.952 . S
H142 C132 0.948 . S
C143 C109 1.395 . S
C143 C113 1.391 . S
C144 C106 1.389 . S
C144 C126 1.392 . S
C145 C116 1.392 . S
C145 C118 1.389 . S
C146 C121 1.395 . S
C146 C123 1.391 . S
H147 C107 0.951 . S
H148 C108 0.950 . S
H149 C114 0.949 . S
H150 C115 0.950 . S
H151 C119 0.951 . S
H152 C120 0.950 . S
H153 C124 0.949 . S
H154 C125 0.950 . S
H155 C129 0.950 . S
H156 C131 0.950 . S
H157 C134 0.950 . S
H158 C136 0.950 . S
C159 C160 1.443 . S
C159 N163 1.376 . S
C159 C197 1.389 1_655 S
C160 C159 1.443 . S
C160 C161 1.340 . S
C160 H200 0.951 . S
C161 C160 1.340 . S
C161 C162 1.439 . S
C161 H201 0.950 . S
C162 C161 1.439 . S
C162 N163 1.374 . S
C162 C196 1.395 . S
N163 C159 1.376 . S
N163 C162 1.374 . S
N163 Co164 2.008 1_655 S
Co164 N163 2.008 1_455 S
Co164 N165 1.995 1_455 S
Co164 N170 2.008 . S
Co164 N175 1.995 . S
Co164 N180 2.282 1_455 S
Co164 N186 2.282 . S
N165 Co164 1.995 1_655 S
N165 C166 1.376 . S
N165 C169 1.383 1_554 S
C166 N165 1.376 . S
C166 C167 1.446 . S
C166 C196 1.391 . S
C167 C166 1.446 . S
C167 C168 1.339 1_554 S
C167 H202 0.949 . S
C168 C167 1.339 1_556 S
C168 C169 1.439 . S
C168 H203 0.950 . S
C169 N165 1.383 1_556 S
C169 C168 1.439 . S
C169 C198 1.392 . S
N170 Co164 2.008 . S
N170 C171 1.376 1_554 S
N170 C174 1.374 . S
C171 N170 1.376 1_556 S
C171 C172 1.443 . S
C171 C198 1.389 1_455 S
C172 C171 1.443 . S
C172 C173 1.340 . S
C172 H204 0.951 . S
C173 C172 1.340 . S
C173 C174 1.439 1_556 S
C173 H205 0.950 . S
C174 N170 1.374 . S
C174 C173 1.439 1_554 S
C174 C199 1.395 . S
N175 Co164 1.995 . S
N175 C176 1.376 . S
N175 C179 1.383 . S
C176 N175 1.376 . S
C176 C177 1.446 . S
C176 C199 1.391 . S
C177 C176 1.446 . S
C177 C178 1.339 . S
C177 H206 0.949 . S
C178 C177 1.339 . S
C178 C179 1.439 . S
C178 H207 0.950 . S
C179 N175 1.383 . S
C179 C178 1.439 . S
C179 C197 1.392 . S
N180 Co164 2.282 1_655 S
N180 C183 1.308 1_655 S
N180 C185 1.356 . S
C181 C182 1.389 . S
C181 C184 1.385 1_455 S
C182 C181 1.389 . S
C182 C183 1.382 . S
C182 H208 0.950 . S
C183 N180 1.308 1_455 S
C183 C182 1.382 . S
C183 H194 0.952 . S
C184 C181 1.385 1_655 S
C184 C185 1.382 . S
C184 H209 0.950 . S
C185 N180 1.356 . S
C185 C184 1.382 . S
C185 H195 0.948 . S
N186 Co164 2.282 . S
N186 C190 1.295 1_454 S
N186 C191 1.369 1_554 S
C187 C188 1.385 . S
C187 C191 1.382 . S
C187 H210 0.950 . S
C188 C187 1.385 . S
C188 C189 1.389 1_455 S
C189 C188 1.389 1_655 S
C189 C190 1.382 . S
C189 H211 0.950 . S
C190 N186 1.295 1_656 S
C190 C189 1.382 . S
C190 H192 0.952 1_556 S
C191 N186 1.369 1_556 S
C191 C187 1.382 . S
C191 H193 0.948 1_556 S
H192 C190 0.952 1_554 S
H193 C191 0.948 1_554 S
H194 C183 0.952 . S
H195 C185 0.948 . S
C196 C162 1.395 . S
C196 C166 1.391 . S
C197 C159 1.389 1_455 S
C197 C179 1.392 . S
C198 C169 1.392 . S
C198 C171 1.389 1_655 S
C199 C174 1.395 . S
C199 C176 1.391 . S
H200 C160 0.951 . S
H201 C161 0.950 . S
H202 C167 0.949 . S
H203 C168 0.950 . S
H204 C172 0.951 . S
H205 C173 0.950 . S
H206 C177 0.949 . S
H207 C178 0.950 . S
H208 C182 0.950 . S
H209 C184 0.950 . S
H210 C187 0.950 . S
H211 C189 0.950 . S
C212 C213 1.443 . S
C212 N216 1.376 . S
C212 C250 1.389 . S
C213 C212 1.443 . S
C213 C214 1.340 . S
C213 H253 0.951 . S
C214 C213 1.340 . S
C214 C215 1.439 . S
C214 H254 0.950 . S
C215 C214 1.439 . S
C215 N216 1.374 . S
C215 C249 1.395 . S
N216 C212 1.376 . S
N216 C215 1.374 . S
N216 Co217 2.008 . S
Co217 N216 2.008 . S
Co217 N218 1.995 . S
Co217 N223 2.008 1_565 S
Co217 N228 1.995 1_565 S
Co217 N233 2.282 1_565 S
Co217 N239 2.282 . S
N218 Co217 1.995 . S
N218 C219 1.376 . S
N218 C222 1.383 . S
C219 N218 1.376 . S
C219 C220 1.446 . S
C219 C249 1.391 . S
C220 C219 1.446 . S
C220 C221 1.339 . S
C220 H255 0.949 . S
C221 C220 1.339 . S
C221 C222 1.439 . S
C221 H256 0.950 . S
C222 N218 1.383 . S
C222 C221 1.439 . S
C222 C251 1.343 1_565 S
N223 Co217 2.008 1_545 S
N223 C224 1.376 . S
N223 C227 1.374 . S
C224 N223 1.376 . S
C224 C225 1.443 . S
C224 C251 1.436 . S
C225 C224 1.443 . S
C225 C226 1.340 . S
C225 H257 0.951 . S
C226 C225 1.340 . S
C226 C227 1.439 . S
C226 H258 0.950 . S
C227 N223 1.374 . S
C227 C226 1.439 . S
C227 C252 1.395 . S
N228 Co217 1.995 1_545 S
N228 C229 1.376 . S
N228 C232 1.383 . S
C229 N228 1.376 . S
C229 C230 1.446 . S
C229 C252 1.391 . S
C230 C229 1.446 . S
C230 C231 1.339 . S
C230 H259 0.949 . S
C231 C230 1.339 . S
C231 C232 1.439 . S
C231 H260 0.950 . S
C232 N228 1.383 . S
C232 C231 1.439 . S
C232 C250 1.392 1_545 S
N233 Co217 2.282 1_545 S
N233 C236 1.332 . S
N233 C238 1.332 1_545 S
C234 C235 1.386 . S
C234 C237 1.388 . S
C235 C234 1.386 . S
C235 C236 1.382 . S
C235 H261 0.950 . S
C236 N233 1.332 . S
C236 C235 1.382 . S
C236 H247 0.952 . S
C237 C234 1.388 . S
C237 C238 1.382 1_545 S
C237 H262 0.950 1_545 S
C238 N233 1.332 1_565 S
C238 C237 1.382 1_565 S
C238 H248 0.948 . S
N239 Co217 2.282 . S
N239 C243 1.332 . S
N239 C244 1.332 1_565 S
C240 C241 1.388 . S
C240 C244 1.382 1_565 S
C240 H263 0.950 1_565 S
C241 C240 1.388 . S
C241 C242 1.386 . S
C242 C241 1.386 . S
C242 C243 1.382 . S
C242 H264 0.950 . S
C243 N239 1.332 . S
C243 C242 1.382 . S
C243 H245 0.952 . S
C244 N239 1.332 1_545 S
C244 C240 1.382 1_545 S
C244 H246 0.948 . S
H245 C243 0.952 . S
H246 C244 0.948 . S
H247 C236 0.952 . S
H248 C238 0.948 . S
C249 C215 1.395 . S
C249 C219 1.391 . S
C250 C212 1.389 . S
C250 C232 1.392 1_565 S
C251 C222 1.343 1_545 S
C251 C224 1.436 . S
C252 C227 1.395 . S
C252 C229 1.391 . S
H253 C213 0.951 . S
H254 C214 0.950 . S
H255 C220 0.949 . S
H256 C221 0.950 . S
H257 C225 0.951 . S
H258 C226 0.950 . S
H259 C230 0.949 . S
H260 C231 0.950 . S
H261 C235 0.950 . S
H262 C237 0.950 1_565 S
H263 C240 0.950 1_545 S
H264 C242 0.950 . S
C265 C266 1.443 . S
C265 N269 1.376 . S
C265 C303 1.389 . S
C266 C265 1.443 . S
C266 C267 1.340 . S
C266 H306 0.951 . S
C267 C266 1.340 . S
C267 C268 1.439 . S
C267 H307 0.950 . S
C268 C267 1.439 . S
C268 N269 1.374 . S
C268 C302 1.395 . S
N269 C265 1.376 . S
N269 C268 1.374 . S
N269 Co270 2.008 . S
Co270 N269 2.008 . S
Co270 N271 1.995 . S
Co270 N276 2.008 . S
Co270 N281 1.995 . S
Co270 N286 2.282 . S
Co270 N292 2.282 . S
N271 Co270 1.995 . S
N271 C272 1.376 . S
N271 C275 1.383 . S
C272 N271 1.376 . S
C272 C273 1.446 . S
C272 C302 1.391 . S
C273 C272 1.446 . S
C273 C274 1.339 . S
C273 H308 0.949 . S
C274 C273 1.339 . S
C274 C275 1.439 . S
C274 H309 0.950 . S
C275 N271 1.383 . S
C275 C274 1.439 . S
C275 C304 1.392 . S
N276 Co270 2.008 . S
N276 C277 1.376 . S
N276 C280 1.374 . S
C277 N276 1.376 . S
C277 C278 1.443 . S
C277 C304 1.389 . S
C278 C277 1.443 . S
C278 C279 1.340 . S
C278 H310 0.951 . S
C279 C278 1.340 . S
C279 C280 1.439 . S
C279 H311 0.950 . S
C280 N276 1.374 . S
C280 C279 1.439 . S
C280 C305 1.395 . S
N281 Co270 1.995 . S
N281 C282 1.376 . S
N281 C285 1.383 . S
C282 N281 1.376 . S
C282 C283 1.446 . S
C282 C305 1.391 . S
C283 C282 1.446 . S
C283 C284 1.339 . S
C283 H312 0.949 . S
C284 C283 1.339 . S
C284 C285 1.439 . S
C284 H313 0.950 . S
C285 N281 1.383 . S
C285 C284 1.439 . S
C285 C303 1.392 . S
N286 Co270 2.282 . S
N286 C289 1.332 . S
N286 C291 1.332 . S
C287 C288 1.386 . S
C287 C290 1.388 . S
C288 C287 1.386 . S
C288 C289 1.382 . S
C288 H314 0.950 . S
C289 N286 1.332 . S
C289 C288 1.382 . S
C289 H300 0.952 . S
C290 C287 1.388 . S
C290 C291 1.382 . S
C290 H315 0.950 . S
C291 N286 1.332 . S
C291 C290 1.382 . S
C291 H301 0.948 . S
N292 Co270 2.282 . S
N292 C296 1.332 . S
N292 C297 1.332 . S
C293 C294 1.388 . S
C293 C297 1.382 . S
C293 H316 0.950 . S
C294 C293 1.388 . S
C294 C295 1.386 . S
C295 C294 1.386 . S
C295 C296 1.382 . S
C295 H317 0.950 . S
C296 N292 1.332 . S
C296 C295 1.382 . S
C296 H298 0.952 . S
C297 N292 1.332 . S
C297 C293 1.382 . S
C297 H299 0.948 . S
H298 C296 0.952 . S
H299 C297 0.948 . S
H300 C289 0.952 . S
H301 C291 0.948 . S
C302 C268 1.395 . S
C302 C272 1.391 . S
C303 C265 1.389 . S
C303 C285 1.392 . S
C304 C275 1.392 . S
C304 C277 1.389 . S
C305 C280 1.395 . S
C305 C282 1.391 . S
H306 C266 0.951 . S
H307 C267 0.950 . S
H308 C273 0.949 . S
H309 C274 0.950 . S
H310 C278 0.951 . S
H311 C279 0.950 . S
H312 C283 0.949 . S
H313 C284 0.950 . S
H314 C288 0.950 . S
H315 C290 0.950 . S
H316 C293 0.950 . S
H317 C295 0.950 . S
C318 C319 1.443 . S
C318 N322 1.376 . S
C318 C356 1.389 . S
C319 C318 1.443 . S
C319 C320 1.340 . S
C319 H359 0.951 . S
C320 C319 1.340 . S
C320 C321 1.439 . S
C320 H360 0.950 . S
C321 C320 1.439 . S
C321 N322 1.374 . S
C321 C355 1.395 . S
N322 C318 1.376 . S
N322 C321 1.374 . S
N322 Co323 2.008 . S
Co323 N322 2.008 . S
Co323 N324 1.995 . S
Co323 N329 2.008 . S
Co323 N334 1.995 . S
Co323 N339 2.282 . S
Co323 N345 2.282 . S
N324 Co323 1.995 . S
N324 C325 1.376 . S
N324 C328 1.383 . S
C325 N324 1.376 . S
C325 C326 1.446 . S
C325 C355 1.391 . S
C326 C325 1.446 . S
C326 C327 1.339 . S
C326 H361 0.949 . S
C327 C326 1.339 . S
C327 C328 1.439 . S
C327 H362 0.950 . S
C328 N324 1.383 . S
C328 C327 1.439 . S
C328 C357 1.392 . S
N329 Co323 2.008 . S
N329 C330 1.376 . S
N329 C333 1.374 . S
C330 N329 1.376 . S
C330 C331 1.443 . S
C330 C357 1.389 . S
C331 C330 1.443 . S
C331 C332 1.340 . S
C331 H363 0.951 . S
C332 C331 1.340 . S
C332 C333 1.439 . S
C332 H364 0.950 . S
C333 N329 1.374 . S
C333 C332 1.439 . S
C333 C358 1.395 . S
N334 Co323 1.995 . S
N334 C335 1.376 . S
N334 C338 1.383 . S
C335 N334 1.376 . S
C335 C336 1.446 . S
C335 C358 1.391 . S
C336 C335 1.446 . S
C336 C337 1.339 . S
C336 H365 0.949 . S
C337 C336 1.339 . S
C337 C338 1.439 . S
C337 H366 0.950 . S
C338 N334 1.383 . S
C338 C337 1.439 . S
C338 C356 1.392 . S
N339 Co323 2.282 . S
N339 C342 1.332 . S
N339 C344 1.332 . S
C340 C341 1.386 . S
C340 C343 1.388 . S
C341 C340 1.386 . S
C341 C342 1.382 . S
C341 H367 0.950 . S
C342 N339 1.332 . S
C342 C341 1.382 . S
C342 H353 0.952 . S
C343 C340 1.388 . S
C343 C344 1.382 . S
C343 H368 0.950 . S
C344 N339 1.332 . S
C344 C343 1.382 . S
C344 H354 0.948 . S
N345 Co323 2.282 . S
N345 C349 1.332 . S
N345 C350 1.332 . S
C346 C347 1.388 . S
C346 C350 1.382 . S
C346 H369 0.950 . S
C347 C346 1.388 . S
C347 C348 1.386 . S
C348 C347 1.386 . S
C348 C349 1.382 . S
C348 H370 0.950 . S
C349 N345 1.332 . S
C349 C348 1.382 . S
C349 H351 0.952 . S
C350 N345 1.332 . S
C350 C346 1.382 . S
C350 H352 0.948 . S
H351 C349 0.952 . S
H352 C350 0.948 . S
H353 C342 0.952 . S
H354 C344 0.948 . S
C355 C321 1.395 . S
C355 C325 1.391 . S
C356 C318 1.389 . S
C356 C338 1.392 . S
C357 C328 1.392 . S
C357 C330 1.389 . S
C358 C333 1.395 . S
C358 C335 1.391 . S
H359 C319 0.951 . S
H360 C320 0.950 . S
H361 C326 0.949 . S
H362 C327 0.950 . S
H363 C331 0.951 . S
H364 C332 0.950 . S
H365 C336 0.949 . S
H366 C337 0.950 . S
H367 C341 0.950 . S
H368 C343 0.950 . S
H369 C346 0.950 . S
H370 C348 0.950 . S
C371 C372 1.443 . S
C371 N375 1.376 . S
C371 C409 1.389 1_455 S
C372 C371 1.443 . S
C372 C373 1.340 . S
C372 H412 0.951 . S
C373 C372 1.340 . S
C373 C374 1.439 . S
C373 H413 0.950 . S
C374 C373 1.439 . S
C374 N375 1.374 . S
C374 C408 1.395 . S
N375 C371 1.376 . S
N375 C374 1.374 . S
N375 Co376 2.008 1_455 S
Co376 N375 2.008 1_655 S
Co376 N377 1.995 1_655 S
Co376 N382 2.008 . S
Co376 N387 1.995 . S
Co376 N392 2.283 1_655 S
Co376 N398 2.283 . S
N377 Co376 1.995 1_455 S
N377 C378 1.376 . S
N377 C381 1.383 . S
C378 N377 1.376 . S
C378 C379 1.446 . S
C378 C408 1.391 . S
C379 C378 1.446 . S
C379 C380 1.339 . S
C379 H414 0.949 . S
C380 C379 1.339 . S
C380 C381 1.439 . S
C380 H415 0.950 . S
C381 N377 1.383 . S
C381 C380 1.439 . S
C381 C410 1.392 . S
N382 Co376 2.008 . S
N382 C383 1.376 . S
N382 C386 1.374 . S
C383 N382 1.376 . S
C383 C384 1.443 . S
C383 C410 1.389 1_655 S
C384 C383 1.443 . S
C384 C385 1.340 . S
C384 H416 0.951 . S
C385 C384 1.340 . S
C385 C386 1.439 . S
C385 H417 0.950 . S
C386 N382 1.374 . S
C386 C385 1.439 . S
C386 C411 1.395 . S
N387 Co376 1.995 . S
N387 C388 1.376 . S
N387 C391 1.383 . S
C388 N387 1.376 . S
C388 C389 1.446 . S
C388 C411 1.391 . S
C389 C388 1.446 . S
C389 C390 1.339 . S
C389 H418 0.949 . S
C390 C389 1.339 . S
C390 C391 1.439 . S
C390 H419 0.950 . S
C391 N387 1.383 . S
C391 C390 1.439 . S
C391 C409 1.392 . S
N392 Co376 2.283 1_455 S
N392 C395 1.317 1_455 S
N392 C397 1.346 . S
C393 C394 1.416 . S
C393 C396 1.356 1_655 S
C394 C393 1.416 . S
C394 C395 1.382 . S
C394 H420 0.950 . S
C395 N392 1.317 1_655 S
C395 C394 1.382 . S
C395 H406 0.952 . S
C396 C393 1.356 1_455 S
C396 C397 1.382 . S
C396 H421 0.950 . S
C397 N392 1.346 . S
C397 C396 1.382 . S
C397 H407 0.948 . S
N398 Co376 2.283 . S
N398 C402 1.304 1_655 S
N398 C403 1.359 . S
C399 C400 1.369 1_655 S
C399 C403 1.382 . S
C399 H422 0.950 . S
C400 C399 1.369 1_455 S
C400 C401 1.403 . S
C401 C400 1.403 . S
C401 C402 1.382 . S
C401 H423 0.950 . S
C402 N398 1.304 1_455 S
C402 C401 1.382 . S
C402 H404 0.952 . S
C403 N398 1.359 . S
C403 C399 1.382 . S
C403 H405 0.948 . S
H404 C402 0.952 . S
H405 C403 0.948 . S
H406 C395 0.952 . S
H407 C397 0.948 . S
C408 C374 1.395 . S
C408 C378 1.391 . S
C409 C371 1.389 1_655 S
C409 C391 1.392 . S
C410 C381 1.392 . S
C410 C383 1.389 1_455 S
C411 C386 1.395 . S
C411 C388 1.391 . S
H412 C372 0.951 . S
H413 C373 0.950 . S
H414 C379 0.949 . S
H415 C380 0.950 . S
H416 C384 0.951 . S
H417 C385 0.950 . S
H418 C389 0.949 . S
H419 C390 0.950 . S
H420 C394 0.950 . S
H421 C396 0.950 . S
H422 C399 0.950 . S
H423 C401 0.950 . S
C424 C425 1.443 . S
C424 N428 1.376 . S
C424 C462 1.389 1_556 S
C425 C424 1.443 . S
C425 C426 1.340 . S
C425 H465 0.951 1_556 S
C426 C425 1.340 . S
C426 C427 1.439 . S
C426 H466 0.950 . S
C427 C426 1.439 . S
C427 N428 1.374 . S
C427 C461 1.395 . S
N428 C424 1.376 . S
N428 C427 1.374 . S
N428 Co429 2.008 1_545 S
Co429 N428 2.008 1_565 S
Co429 N430 1.995 1_565 S
Co429 N435 2.008 . S
Co429 N440 1.995 1_556 S
Co429 N445 2.282 1_566 S
Co429 N451 2.282 . S
N430 Co429 1.995 1_545 S
N430 C431 1.376 . S
N430 C434 1.383 . S
C431 N430 1.376 . S
C431 C432 1.446 . S
C431 C461 1.391 . S
C432 C431 1.446 . S
C432 C433 1.339 . S
C432 H467 0.949 . S
C433 C432 1.339 . S
C433 C434 1.439 . S
C433 H468 0.950 . S
C434 N430 1.383 . S
C434 C433 1.439 . S
C434 C463 1.392 1_545 S
N435 Co429 2.008 . S
N435 C436 1.376 . S
N435 C439 1.374 . S
C436 N435 1.376 . S
C436 C437 1.443 . S
C436 C463 1.389 . S
C437 C436 1.443 . S
C437 C438 1.340 . S
C437 H469 0.951 . S
C438 C437 1.340 . S
C438 C439 1.439 . S
C438 H470 0.950 . S
C439 N435 1.374 . S
C439 C438 1.439 . S
C439 C464 1.397 1_556 S
N440 Co429 1.995 1_554 S
N440 C441 1.376 . S
N440 C444 1.383 . S
C441 N440 1.376 . S
C441 C442 1.446 . S
C441 C464 1.390 . S
C442 C441 1.446 . S
C442 C443 1.339 . S
C442 H471 0.949 . S
C443 C442 1.339 . S
C443 C444 1.439 . S
C443 H472 0.950 . S
C444 N440 1.383 . S
C444 C443 1.439 . S
C444 C462 1.392 1_565 S
N445 Co429 2.282 1_544 S
N445 C448 1.332 1_545 S
N445 C450 1.332 . S
C446 C447 1.351 1_545 S
C446 C449 1.388 . S
C447 C446 1.351 1_565 S
C447 C448 1.389 . S
C447 H473 0.978 . S
C448 N445 1.332 1_565 S
C448 C447 1.389 . S
C448 H459 0.952 . S
C449 C446 1.388 . S
C449 C450 1.382 . S
C449 H474 0.950 . S
C450 N445 1.332 . S
C450 C449 1.382 . S
C450 H460 0.948 1_554 S
N451 Co429 2.282 . S
N451 C455 1.332 1_565 S
N451 C456 1.332 . S
C452 C453 1.388 . S
C452 C456 1.382 . S
C452 H475 0.950 . S
C453 C452 1.388 . S
C453 C454 1.365 1_565 S
C454 C453 1.365 1_545 S
C454 C455 1.386 . S
C454 H476 0.967 . S
C455 N451 1.332 1_545 S
C455 C454 1.386 . S
C455 H457 0.952 . S
C456 N451 1.332 . S
C456 C452 1.382 . S
C456 H458 0.948 . S
H457 C455 0.952 . S
H458 C456 0.948 . S
H459 C448 0.952 . S
H460 C450 0.948 1_556 S
C461 C427 1.395 . S
C461 C431 1.391 . S
C462 C424 1.389 1_554 S
C462 C444 1.392 1_545 S
C463 C434 1.392 1_565 S
C463 C436 1.389 . S
C464 C439 1.397 1_554 S
C464 C441 1.390 . S
H465 C425 0.951 1_554 S
H466 C426 0.950 . S
H467 C432 0.949 . S
H468 C433 0.950 . S
H469 C437 0.951 . S
H470 C438 0.950 . S
H471 C442 0.949 . S
H472 C443 0.950 . S
H473 C447 0.978 . S
H474 C449 0.950 . S
H475 C452 0.950 . S
H476 C454 0.967 . S
C477 C478 1.443 . S
C477 N481 1.376 . S
C477 C515 1.389 . S
C478 C477 1.443 . S
C478 C479 1.340 . S
C478 H518 0.951 . S
C479 C478 1.340 . S
C479 C480 1.439 . S
C479 H519 0.950 . S
C480 C479 1.439 . S
C480 N481 1.374 . S
C480 C514 1.395 . S
N481 C477 1.376 . S
N481 C480 1.374 . S
N481 Co482 2.008 . S
Co482 N481 2.008 . S
Co482 N483 1.995 . S
Co482 N488 2.008 . S
Co482 N493 1.995 . S
Co482 N498 2.282 . S
Co482 N504 2.282 . S
N483 Co482 1.995 . S
N483 C484 1.376 . S
N483 C487 1.383 . S
C484 N483 1.376 . S
C484 C485 1.446 . S
C484 C514 1.391 . S
C485 C484 1.446 . S
C485 C486 1.339 . S
C485 H520 0.949 . S
C486 C485 1.339 . S
C486 C487 1.439 . S
C486 H521 0.950 . S
C487 N483 1.383 . S
C487 C486 1.439 . S
C487 C516 1.392 . S
N488 Co482 2.008 . S
N488 C489 1.376 . S
N488 C492 1.374 . S
C489 N488 1.376 . S
C489 C490 1.443 . S
C489 C516 1.389 . S
C490 C489 1.443 . S
C490 C491 1.340 . S
C490 H522 0.951 . S
C491 C490 1.340 . S
C491 C492 1.439 . S
C491 H523 0.950 . S
C492 N488 1.374 . S
C492 C491 1.439 . S
C492 C517 1.395 . S
N493 Co482 1.995 . S
N493 C494 1.376 . S
N493 C497 1.383 . S
C494 N493 1.376 . S
C494 C495 1.446 . S
C494 C517 1.391 . S
C495 C494 1.446 . S
C495 C496 1.339 . S
C495 H524 0.949 . S
C496 C495 1.339 . S
C496 C497 1.439 . S
C496 H525 0.950 . S
C497 N493 1.383 . S
C497 C496 1.439 . S
C497 C515 1.392 . S
N498 Co482 2.282 . S
N498 C501 1.332 . S
N498 C503 1.332 . S
C499 C500 1.386 . S
C499 C502 1.388 . S
C500 C499 1.386 . S
C500 C501 1.382 . S
C500 H526 0.950 . S
C501 N498 1.332 . S
C501 C500 1.382 . S
C501 H512 0.952 . S
C502 C499 1.388 . S
C502 C503 1.382 . S
C502 H527 0.950 . S
C503 N498 1.332 . S
C503 C502 1.382 . S
C503 H513 0.948 . S
N504 Co482 2.282 . S
N504 C508 1.332 . S
N504 C509 1.332 . S
C505 C506 1.388 . S
C505 C509 1.382 . S
C505 H528 0.950 . S
C506 C505 1.388 . S
C506 C507 1.386 . S
C507 C506 1.386 . S
C507 C508 1.382 . S
C507 H529 0.950 . S
C508 N504 1.332 . S
C508 C507 1.382 . S
C508 H510 0.952 . S
C509 N504 1.332 . S
C509 C505 1.382 . S
C509 H511 0.948 . S
H510 C508 0.952 . S
H511 C509 0.948 . S
H512 C501 0.952 . S
H513 C503 0.948 . S
C514 C480 1.395 . S
C514 C484 1.391 . S
C515 C477 1.389 . S
C515 C497 1.392 . S
C516 C487 1.392 . S
C516 C489 1.389 . S
C517 C492 1.395 . S
C517 C494 1.391 . S
H518 C478 0.951 . S
H519 C479 0.950 . S
H520 C485 0.949 . S
H521 C486 0.950 . S
H522 C490 0.951 . S
H523 C491 0.950 . S
H524 C495 0.949 . S
H525 C496 0.950 . S
H526 C500 0.950 . S
H527 C502 0.950 . S
H528 C505 0.950 . S
H529 C507 0.950 . S
C530 C531 1.443 . S
C530 N534 1.376 . S
C530 C568 1.389 . S
C531 C530 1.443 . S
C531 C532 1.340 . S
C531 H571 0.951 . S
C532 C531 1.340 . S
C532 C533 1.439 . S
C532 H572 0.950 . S
C533 C532 1.439 . S
C533 N534 1.374 . S
C533 C567 1.395 . S
N534 C530 1.376 . S
N534 C533 1.374 . S
N534 Co535 2.008 . S
Co535 N534 2.008 . S
Co535 N536 1.995 . S
Co535 N541 2.008 . S
Co535 N546 1.995 . S
Co535 N551 2.282 . S
Co535 N557 2.282 . S
N536 Co535 1.995 . S
N536 C537 1.376 . S
N536 C540 1.383 . S
C537 N536 1.376 . S
C537 C538 1.446 . S
C537 C567 1.391 . S
C538 C537 1.446 . S
C538 C539 1.339 . S
C538 H573 0.949 . S
C539 C538 1.339 . S
C539 C540 1.439 . S
C539 H574 0.950 . S
C540 N536 1.383 . S
C540 C539 1.439 . S
C540 C569 1.392 . S
N541 Co535 2.008 . S
N541 C542 1.376 . S
N541 C545 1.374 . S
C542 N541 1.376 . S
C542 C543 1.443 . S
C542 C569 1.389 . S
C543 C542 1.443 . S
C543 C544 1.340 . S
C543 H575 0.951 . S
C544 C543 1.340 . S
C544 C545 1.439 . S
C544 H576 0.950 . S
C545 N541 1.374 . S
C545 C544 1.439 . S
C545 C570 1.395 . S
N546 Co535 1.995 . S
N546 C547 1.376 . S
N546 C550 1.383 . S
C547 N546 1.376 . S
C547 C548 1.446 . S
C547 C570 1.391 . S
C548 C547 1.446 . S
C548 C549 1.339 1_556 S
C548 H577 0.949 1_556 S
C549 C548 1.339 1_554 S
C549 C550 1.439 1_554 S
C549 H578 0.950 . S
C550 N546 1.383 . S
C550 C549 1.439 1_556 S
C550 C568 1.392 . S
N551 Co535 2.282 . S
N551 C554 1.332 1_556 S
N551 C556 1.332 . S
C552 C553 1.386 . S
C552 C555 1.388 . S
C553 C552 1.386 . S
C553 C554 1.382 . S
C553 H579 0.950 . S
C554 N551 1.332 1_554 S
C554 C553 1.382 . S
C554 H565 0.952 . S
C555 C552 1.388 . S
C555 C556 1.382 1_554 S
C555 H580 0.950 . S
C556 N551 1.332 . S
C556 C555 1.382 1_556 S
C556 H566 0.948 . S
N557 Co535 2.282 . S
N557 C561 1.332 . S
N557 C562 1.332 . S
C558 C559 1.388 . S
C558 C562 1.382 . S
C558 H581 0.950 . S
C559 C558 1.388 . S
C559 C560 1.386 . S
C560 C559 1.386 . S
C560 C561 1.382 . S
C560 H582 0.950 . S
C561 N557 1.332 . S
C561 C560 1.382 . S
C561 H563 0.952 . S
C562 N557 1.332 . S
C562 C558 1.382 . S
C562 H564 0.948 . S
H563 C561 0.952 . S
H564 C562 0.948 . S
H565 C554 0.952 . S
H566 C556 0.948 . S
C567 C533 1.395 . S
C567 C537 1.391 . S
C568 C530 1.389 . S
C568 C550 1.392 . S
C569 C540 1.392 . S
C569 C542 1.389 . S
C570 C545 1.395 . S
C570 C547 1.391 . S
H571 C531 0.951 . S
H572 C532 0.950 . S
H573 C538 0.949 . S
H574 C539 0.950 . S
H575 C543 0.951 . S
H576 C544 0.950 . S
H577 C548 0.949 1_554 S
H578 C549 0.950 . S
H579 C553 0.950 . S
H580 C555 0.950 . S
H581 C558 0.950 . S
H582 C560 0.950 . S
C583 C584 1.443 . S
C583 N587 1.376 . S
C583 C621 1.393 . S
C584 C583 1.443 . S
C584 C585 1.340 . S
C584 H624 0.951 . S
C585 C584 1.340 . S
C585 C586 1.439 . S
C585 H625 0.950 . S
C586 C585 1.439 . S
C586 N587 1.374 . S
C586 C620 1.395 . S
N587 C583 1.376 . S
N587 C586 1.374 . S
N587 Co588 2.008 1_455 S
Co588 N587 2.008 1_655 S
Co588 N589 1.995 1_655 S
Co588 N594 2.008 . S
Co588 N599 1.995 . S
Co588 N604 2.282 1_655 S
Co588 N610 2.282 . S
N589 Co588 1.995 1_455 S
N589 C590 1.376 . S
N589 C593 1.383 . S
C590 N589 1.376 . S
C590 C591 1.446 . S
C590 C620 1.391 . S
C591 C590 1.446 . S
C591 C592 1.339 . S
C591 H626 0.949 . S
C592 C591 1.339 . S
C592 C593 1.439 . S
C592 H627 0.950 . S
C593 N589 1.383 . S
C593 C592 1.439 . S
C593 C622 1.376 1_455 S
N594 Co588 2.008 . S
N594 C595 1.376 . S
N594 C598 1.374 . S
C595 N594 1.376 . S
C595 C596 1.443 . S
C595 C622 1.405 . S
C596 C595 1.443 . S
C596 C597 1.340 . S
C596 H628 0.951 . S
C597 C596 1.340 . S
C597 C598 1.439 . S
C597 H629 0.950 . S
C598 N594 1.374 . S
C598 C597 1.439 . S
C598 C623 1.395 . S
N599 Co588 1.995 . S
N599 C600 1.376 . S
N599 C603 1.383 . S
C600 N599 1.376 . S
C600 C601 1.446 . S
C600 C623 1.391 . S
C601 C600 1.446 . S
C601 C602 1.339 . S
C601 H630 0.949 . S
C602 C601 1.339 . S
C602 C603 1.439 . S
C602 H631 0.950 . S
C603 N599 1.383 . S
C603 C602 1.439 . S
C603 C621 1.388 1_655 S
N604 Co588 2.282 1_455 S
N604 C607 1.332 . S
N604 C609 1.332 . S
C605 C606 1.386 . S
C605 C608 1.388 . S
C606 C605 1.386 . S
C606 C607 1.382 . S
C606 H632 0.956 1_556 S
C607 N604 1.332 . S
C607 C606 1.382 . S
C607 H618 0.952 1_455 S
C608 C605 1.388 . S
C608 C609 1.382 . S
C608 H633 0.950 . S
C609 N604 1.332 . S
C609 C608 1.382 . S
C609 H619 0.948 . S
N610 Co588 2.282 . S
N610 C614 1.332 . S
N610 C615 1.332 . S
C611 C612 1.388 . S
C611 C615 1.382 . S
C611 H634 0.950 . S
C612 C611 1.388 . S
C612 C613 1.386 . S
C613 C612 1.386 . S
C613 C614 1.382 . S
C613 H635 0.966 . S
C614 N610 1.332 . S
C614 C613 1.382 . S
C614 H616 0.952 1_655 S
C615 N610 1.332 . S
C615 C611 1.382 . S
C615 H617 0.948 . S
H616 C614 0.952 1_455 S
H617 C615 0.948 . S
H618 C607 0.952 1_655 S
H619 C609 0.948 . S
C620 C586 1.395 . S
C620 C590 1.391 . S
C621 C583 1.393 . S
C621 C603 1.388 1_455 S
C622 C593 1.376 1_655 S
C622 C595 1.405 . S
C623 C598 1.395 . S
C623 C600 1.391 . S
H624 C584 0.951 . S
H625 C585 0.950 . S
H626 C591 0.949 . S
H627 C592 0.950 . S
H628 C596 0.951 . S
H629 C597 0.950 . S
H630 C601 0.949 . S
H631 C602 0.950 . S
H632 C606 0.956 1_554 S
H633 C608 0.950 . S
H634 C611 0.950 . S
H635 C613 0.966 . S
C636 C637 1.443 . S
C636 N640 1.376 . S
C636 C674 1.389 . S
C637 C636 1.443 . S
C637 C638 1.340 . S
C637 H677 0.951 . S
C638 C637 1.340 . S
C638 C639 1.439 . S
C638 H678 0.950 . S
C639 C638 1.439 . S
C639 N640 1.374 . S
C639 C673 1.395 . S
N640 C636 1.376 . S
N640 C639 1.374 . S
N640 Co641 2.008 1_565 S
Co641 N640 2.008 1_545 S
Co641 N642 1.995 1_545 S
Co641 N647 2.008 . S
Co641 N652 1.995 . S
Co641 N657 2.282 1_545 S
Co641 N663 2.282 . S
N642 Co641 1.995 1_565 S
N642 C643 1.376 . S
N642 C646 1.383 . S
C643 N642 1.376 . S
C643 C644 1.446 . S
C643 C673 1.391 . S
C644 C643 1.446 . S
C644 C645 1.339 . S
C644 H679 0.949 . S
C645 C644 1.339 . S
C645 C646 1.439 . S
C645 H680 0.950 . S
C646 N642 1.383 . S
C646 C645 1.439 . S
C646 C675 1.392 1_565 S
N647 Co641 2.008 . S
N647 C648 1.376 . S
N647 C651 1.374 . S
C648 N647 1.376 . S
C648 C649 1.443 . S
C648 C675 1.389 . S
C649 C648 1.443 . S
C649 C650 1.340 . S
C649 H681 0.951 . S
C650 C649 1.340 . S
C650 C651 1.439 . S
C650 H682 0.950 . S
C651 N647 1.374 . S
C651 C650 1.439 . S
C651 C676 1.395 . S
N652 Co641 1.995 . S
N652 C653 1.376 . S
N652 C656 1.383 . S
C653 N652 1.376 . S
C653 C654 1.446 . S
C653 C676 1.391 . S
C654 C653 1.446 . S
C654 C655 1.339 . S
C654 H683 0.949 . S
C655 C654 1.339 . S
C655 C656 1.439 . S
C655 H684 0.950 . S
C656 N652 1.383 . S
C656 C655 1.439 . S
C656 C674 1.392 1_545 S
N657 Co641 2.282 1_565 S
N657 C660 1.332 1_565 S
N657 C662 1.332 . S
C658 C659 1.386 . S
C658 C661 1.388 . S
C659 C658 1.386 . S
C659 C660 1.382 1_565 S
C659 H685 0.950 1_565 S
C660 N657 1.332 1_545 S
C660 C659 1.382 1_545 S
C660 H671 0.952 . S
C661 C658 1.388 . S
C661 C662 1.382 . S
C661 H686 0.950 . S
C662 N657 1.332 . S
C662 C661 1.382 . S
C662 H672 0.948 . S
N663 Co641 2.282 . S
N663 C667 1.332 1_545 S
N663 C668 1.332 . S
C664 C665 1.388 . S
C664 C668 1.382 . S
C664 H687 0.950 . S
C665 C664 1.388 . S
C665 C666 1.386 . S
C666 C665 1.386 . S
C666 C667 1.382 1_545 S
C666 H688 0.950 1_545 S
C667 N663 1.332 1_565 S
C667 C666 1.382 1_565 S
C667 H669 0.952 . S
C668 N663 1.332 . S
C668 C664 1.382 . S
C668 H670 0.948 . S
H669 C667 0.952 . S
H670 C668 0.948 . S
H671 C660 0.952 . S
H672 C662 0.948 . S
C673 C639 1.395 . S
C673 C643 1.391 . S
C674 C636 1.389 . S
C674 C656 1.392 1_565 S
C675 C646 1.392 1_545 S
C675 C648 1.389 . S
C676 C651 1.395 . S
C676 C653 1.391 . S
H677 C637 0.951 . S
H678 C638 0.950 . S
H679 C644 0.949 . S
H680 C645 0.950 . S
H681 C649 0.951 . S
H682 C650 0.950 . S
H683 C654 0.949 . S
H684 C655 0.950 . S
H685 C659 0.950 1_545 S
H686 C661 0.950 . S
H687 C664 0.950 . S
H688 C666 0.950 1_565 S
C689 C690 1.443 . S
C689 N693 1.376 . S
C689 C727 1.389 . S
C690 C689 1.443 . S
C690 C691 1.340 . S
C690 H730 0.951 . S
C691 C690 1.340 . S
C691 C692 1.439 . S
C691 H731 0.950 . S
C692 C691 1.439 . S
C692 N693 1.374 . S
C692 C726 1.395 . S
N693 C689 1.376 . S
N693 C692 1.374 . S
N693 Co694 2.008 . S
Co694 N693 2.008 . S
Co694 N695 1.995 . S
Co694 N700 2.008 . S
Co694 N705 1.995 . S
Co694 N710 2.282 . S
Co694 N716 2.282 . S
N695 Co694 1.995 . S
N695 C696 1.376 . S
N695 C699 1.383 . S
C696 N695 1.376 . S
C696 C697 1.446 . S
C696 C726 1.391 . S
C697 C696 1.446 . S
C697 C698 1.339 . S
C697 H732 0.949 . S
C698 C697 1.339 . S
C698 C699 1.439 . S
C698 H733 0.950 . S
C699 N695 1.383 . S
C699 C698 1.439 . S
C699 C728 1.392 . S
N700 Co694 2.008 . S
N700 C701 1.376 . S
N700 C704 1.374 . S
C701 N700 1.376 . S
C701 C702 1.443 . S
C701 C728 1.389 . S
C702 C701 1.443 . S
C702 C703 1.340 . S
C702 H734 0.951 . S
C703 C702 1.340 . S
C703 C704 1.439 . S
C703 H735 0.950 . S
C704 N700 1.374 . S
C704 C703 1.439 . S
C704 C729 1.395 . S
N705 Co694 1.995 . S
N705 C706 1.376 . S
N705 C709 1.383 . S
C706 N705 1.376 . S
C706 C707 1.446 . S
C706 C729 1.391 . S
C707 C706 1.446 . S
C707 C708 1.339 . S
C707 H736 0.949 . S
C708 C707 1.339 . S
C708 C709 1.439 . S
C708 H737 0.950 . S
C709 N705 1.383 . S
C709 C708 1.439 . S
C709 C727 1.392 . S
N710 Co694 2.282 . S
N710 C713 1.332 . S
N710 C715 1.332 . S
C711 C712 1.386 . S
C711 C714 1.388 . S
C712 C711 1.386 . S
C712 C713 1.382 . S
C712 H738 0.950 . S
C713 N710 1.332 . S
C713 C712 1.382 . S
C713 H724 0.952 . S
C714 C711 1.388 . S
C714 C715 1.382 . S
C714 H739 0.950 . S
C715 N710 1.332 . S
C715 C714 1.382 . S
C715 H725 0.948 . S
N716 Co694 2.282 . S
N716 C720 1.332 . S
N716 C721 1.332 . S
C717 C718 1.388 . S
C717 C721 1.382 . S
C717 H740 0.950 . S
C718 C717 1.388 . S
C718 C719 1.386 . S
C719 C718 1.386 . S
C719 C720 1.382 . S
C719 H741 0.950 . S
C720 N716 1.332 . S
C720 C719 1.382 . S
C720 H722 0.952 . S
C721 N716 1.332 . S
C721 C717 1.382 . S
C721 H723 0.948 . S
H722 C720 0.952 . S
H723 C721 0.948 . S
H724 C713 0.952 . S
H725 C715 0.948 . S
C726 C692 1.395 . S
C726 C696 1.391 . S
C727 C689 1.389 . S
C727 C709 1.392 . S
C728 C699 1.392 . S
C728 C701 1.389 . S
C729 C704 1.395 . S
C729 C706 1.391 . S
H730 C690 0.951 . S
H731 C691 0.950 . S
H732 C697 0.949 . S
H733 C698 0.950 . S
H734 C702 0.951 . S
H735 C703 0.950 . S
H736 C707 0.949 . S
H737 C708 0.950 . S
H738 C712 0.950 . S
H739 C714 0.950 . S
H740 C717 0.950 . S
H741 C719 0.950 . S
C742 C743 1.443 . S
C742 N746 1.376 . S
C742 C780 1.389 . S
C743 C742 1.443 . S
C743 C744 1.340 . S
C743 H783 0.951 . S
C744 C743 1.340 . S
C744 C745 1.439 . S
C744 H784 0.950 . S
C745 C744 1.439 . S
C745 N746 1.374 . S
C745 C779 1.395 . S
N746 C742 1.376 . S
N746 C745 1.374 . S
N746 Co747 2.008 . S
Co747 N746 2.008 . S
Co747 N748 1.995 . S
Co747 N753 2.008 . S
Co747 N758 1.995 . S
Co747 N763 2.282 . S
Co747 N769 2.282 . S
N748 Co747 1.995 . S
N748 C749 1.376 . S
N748 C752 1.383 . S
C749 N748 1.376 . S
C749 C750 1.446 . S
C749 C779 1.391 . S
C750 C749 1.446 . S
C750 C751 1.339 . S
C750 H785 0.949 . S
C751 C750 1.339 . S
C751 C752 1.439 . S
C751 H786 0.950 . S
C752 N748 1.383 . S
C752 C751 1.439 . S
C752 C781 1.392 . S
N753 Co747 2.008 . S
N753 C754 1.376 . S
N753 C757 1.374 . S
C754 N753 1.376 . S
C754 C755 1.443 . S
C754 C781 1.389 . S
C755 C754 1.443 . S
C755 C756 1.340 . S
C755 H787 0.951 . S
C756 C755 1.340 . S
C756 C757 1.439 . S
C756 H788 0.950 . S
C757 N753 1.374 . S
C757 C756 1.439 . S
C757 C782 1.395 . S
N758 Co747 1.995 . S
N758 C759 1.376 . S
N758 C762 1.383 . S
C759 N758 1.376 . S
C759 C760 1.446 . S
C759 C782 1.391 . S
C760 C759 1.446 . S
C760 C761 1.339 . S
C760 H789 0.949 . S
C761 C760 1.339 . S
C761 C762 1.439 . S
C761 H790 0.950 . S
C762 N758 1.383 . S
C762 C761 1.439 . S
C762 C780 1.392 . S
N763 Co747 2.282 . S
N763 C766 1.332 . S
N763 C768 1.332 . S
C764 C765 1.386 . S
C764 C767 1.388 . S
C765 C764 1.386 . S
C765 C766 1.382 . S
C765 H791 0.950 . S
C766 N763 1.332 . S
C766 C765 1.382 . S
C766 H777 0.952 . S
C767 C764 1.388 . S
C767 C768 1.382 . S
C767 H792 0.950 . S
C768 N763 1.332 . S
C768 C767 1.382 . S
C768 H778 0.948 . S
N769 Co747 2.282 . S
N769 C773 1.332 . S
N769 C774 1.332 . S
C770 C771 1.388 . S
C770 C774 1.382 . S
C770 H793 0.950 . S
C771 C770 1.388 . S
C771 C772 1.386 . S
C772 C771 1.386 . S
C772 C773 1.382 . S
C772 H794 0.950 . S
C773 N769 1.332 . S
C773 C772 1.382 . S
C773 H775 0.952 . S
C774 N769 1.332 . S
C774 C770 1.382 . S
C774 H776 0.948 . S
H775 C773 0.952 . S
H776 C774 0.948 . S
H777 C766 0.952 . S
H778 C768 0.948 . S
C779 C745 1.395 . S
C779 C749 1.391 . S
C780 C742 1.389 . S
C780 C762 1.392 . S
C781 C752 1.392 . S
C781 C754 1.389 . S
C782 C757 1.395 . S
C782 C759 1.391 . S
H783 C743 0.951 . S
H784 C744 0.950 . S
H785 C750 0.949 . S
H786 C751 0.950 . S
H787 C755 0.951 . S
H788 C756 0.950 . S
H789 C760 0.949 . S
H790 C761 0.950 . S
H791 C765 0.950 . S
H792 C767 0.950 . S
H793 C770 0.950 . S
H794 C772 0.950 . S
C795 C796 1.443 . S
C795 N799 1.376 . S
C795 C833 1.440 . S
C796 C795 1.443 . S
C796 C797 1.340 . S
C796 H836 0.951 . S
C797 C796 1.340 . S
C797 C798 1.439 . S
C797 H837 0.950 . S
C798 C797 1.439 . S
C798 N799 1.374 . S
C798 C832 1.395 . S
N799 C795 1.376 . S
N799 C798 1.374 . S
N799 Co800 2.008 1_655 S
Co800 N799 2.008 1_455 S
Co800 N801 1.995 1_455 S
Co800 N806 2.008 . S
Co800 N811 1.995 . S
Co800 N816 2.282 1_455 S
Co800 N822 2.282 . S
N801 Co800 1.995 1_655 S
N801 C802 1.376 . S
N801 C805 1.383 . S
C802 N801 1.376 . S
C802 C803 1.446 . S
C802 C832 1.391 . S
C803 C802 1.446 . S
C803 C804 1.339 . S
C803 H838 0.949 . S
C804 C803 1.339 . S
C804 C805 1.439 . S
C804 H839 0.950 . S
C805 N801 1.383 . S
C805 C804 1.439 . S
C805 C834 1.392 1_655 S
N806 Co800 2.008 . S
N806 C807 1.376 . S
N806 C810 1.374 . S
C807 N806 1.376 . S
C807 C808 1.443 . S
C807 C834 1.389 . S
C808 C807 1.443 . S
C808 C809 1.340 . S
C808 H840 0.951 . S
C809 C808 1.340 . S
C809 C810 1.439 . S
C809 H841 0.950 . S
C810 N806 1.374 . S
C810 C809 1.439 . S
C810 C835 1.395 . S
N811 Co800 1.995 . S
N811 C812 1.376 . S
N811 C815 1.383 . S
C812 N811 1.376 . S
C812 C813 1.446 . S
C812 C835 1.391 . S
C813 C812 1.446 . S
C813 C814 1.339 . S
C813 H842 0.949 . S
C814 C813 1.339 . S
C814 C815 1.439 . S
C814 H843 0.950 . S
C815 N811 1.383 . S
C815 C814 1.439 . S
C815 C833 1.340 1_455 S
N816 Co800 2.282 1_655 S
N816 C819 1.332 . S
N816 C821 1.332 . S
C817 C818 1.386 . S
C817 C820 1.388 . S
C818 C817 1.386 . S
C818 C819 1.382 . S
C818 H844 0.950 1_655 S
C819 N816 1.332 . S
C819 C818 1.382 . S
C819 H830 0.952 1_655 S
C820 C817 1.388 . S
C820 C821 1.382 . S
C820 H845 0.950 . S
C821 N816 1.332 . S
C821 C820 1.382 . S
C821 H831 0.948 . S
N822 Co800 2.282 . S
N822 C826 1.332 . S
N822 C827 1.332 . S
C823 C824 1.388 . S
C823 C827 1.382 . S
C823 H846 0.950 . S
C824 C823 1.388 . S
C824 C825 1.386 . S
C825 C824 1.386 . S
C825 C826 1.382 . S
C825 H847 0.950 1_455 S
C826 N822 1.332 . S
C826 C825 1.382 . S
C826 H828 0.952 1_455 S
C827 N822 1.332 . S
C827 C823 1.382 . S
C827 H829 0.948 . S
H828 C826 0.952 1_655 S
H829 C827 0.948 . S
H830 C819 0.952 1_455 S
H831 C821 0.948 . S
C832 C798 1.395 . S
C832 C802 1.391 . S
C833 C795 1.440 . S
C833 C815 1.340 1_655 S
C834 C805 1.392 1_455 S
C834 C807 1.389 . S
C835 C810 1.395 . S
C835 C812 1.391 . S
H836 C796 0.951 . S
H837 C797 0.950 . S
H838 C803 0.949 . S
H839 C804 0.950 . S
H840 C808 0.951 . S
H841 C809 0.950 . S
H842 C813 0.949 . S
H843 C814 0.950 . S
H844 C818 0.950 1_455 S
H845 C820 0.950 . S
H846 C823 0.950 . S
H847 C825 0.950 1_655 S
H848 C856 0.929 . S
H849 C858 0.930 . S
H850 C860 0.930 . S
H851 C863 0.929 . S
H852 C866 0.930 . S
H853 C868 0.960 . S
H854 C868 0.960 . S
H855 C868 0.960 . S
C856 H848 0.929 . S
C856 C857 1.377 . S
C856 C858 1.384 . S
C857 C856 1.377 . S
C857 C863 1.390 . S
C858 H849 0.930 . S
C858 C856 1.384 . S
C858 C859 1.372 . S
C859 C858 1.372 . S
C859 C860 1.400 . S
C859 C864 1.490 . S
C860 H850 0.930 . S
C860 C859 1.400 . S
C860 C863 1.386 . S
H861 C877 0.930 . S
H862 C878 0.931 . S
C863 H851 0.929 . S
C863 C857 1.390 . S
C863 C860 1.386 . S
C864 C859 1.490 . S
C864 C866 1.395 . S
C864 C867 1.403 . S
H865 C871 0.930 . S
C866 H852 0.930 . S
C866 C864 1.395 . S
C866 C869 1.403 . S
C867 C864 1.403 . S
C867 C868 1.524 . S
C867 C871 1.400 . S
C868 H853 0.960 . S
C868 H854 0.960 . S
C868 H855 0.960 . S
C868 C867 1.524 . S
C869 C866 1.403 . S
C869 C870 1.392 . S
C869 C873 1.495 . S
C870 C869 1.392 . S
C870 C871 1.385 . S
C870 C872 1.478 . S
C871 H865 0.930 . S
C871 C867 1.400 . S
C871 C870 1.385 . S
C872 C870 1.478 . S
C872 C874 1.381 . S
C872 C878 1.383 . S
C873 C869 1.495 . S
C873 H879 0.959 . S
C873 H880 0.961 . S
C873 H881 0.960 . S
C874 C872 1.381 . S
C874 C875 1.394 . S
C874 H882 0.930 . S
C875 C874 1.394 . S
C875 C876 1.383 . S
C875 H883 0.929 . S
C876 C875 1.383 . S
C876 C877 1.377 . S
C877 H861 0.930 . S
C877 C876 1.377 . S
C877 C878 1.379 . S
C878 H862 0.931 . S
C878 C872 1.383 . S
C878 C877 1.379 . S
H879 C873 0.959 . S
H880 C873 0.961 . S
H881 C873 0.960 . S
H882 C874 0.930 . S
H883 C875 0.929 . S
H884 C892 0.929 . S
H885 C894 0.930 . S
H886 C896 0.930 . S
H887 C899 0.929 . S
H888 C902 0.930 . S
H889 C904 0.960 . S
H890 C904 0.960 . S
H891 C904 0.960 . S
C892 H884 0.929 . S
C892 C893 1.377 . S
C892 C894 1.384 . S
C893 C892 1.377 . S
C893 C899 1.390 . S
C894 H885 0.930 . S
C894 C892 1.384 . S
C894 C895 1.372 . S
C895 C894 1.372 . S
C895 C896 1.400 . S
C895 C900 1.490 . S
C896 H886 0.930 . S
C896 C895 1.400 . S
C896 C899 1.386 . S
H897 C913 0.930 . S
H898 C914 0.931 . S
C899 H887 0.929 . S
C899 C893 1.390 . S
C899 C896 1.386 . S
C900 C895 1.490 . S
C900 C902 1.395 . S
C900 C903 1.403 . S
H901 C907 0.930 . S
C902 H888 0.930 . S
C902 C900 1.395 . S
C902 C905 1.403 . S
C903 C900 1.403 . S
C903 C904 1.524 . S
C903 C907 1.400 . S
C904 H889 0.960 . S
C904 H890 0.960 . S
C904 H891 0.960 . S
C904 C903 1.524 . S
C905 C902 1.403 . S
C905 C906 1.392 . S
C905 C909 1.495 . S
C906 C905 1.392 . S
C906 C907 1.385 . S
C906 C908 1.478 . S
C907 H901 0.930 . S
C907 C903 1.400 . S
C907 C906 1.385 . S
C908 C906 1.478 . S
C908 C910 1.381 . S
C908 C914 1.383 . S
C909 C905 1.495 . S
C909 H915 0.959 . S
C909 H916 0.961 . S
C909 H917 0.960 . S
C910 C908 1.381 . S
C910 C911 1.394 . S
C910 H918 0.930 . S
C911 C910 1.394 . S
C911 C912 1.383 . S
C911 H919 0.929 . S
C912 C911 1.383 . S
C912 C913 1.377 . S
C913 H897 0.930 . S
C913 C912 1.377 . S
C913 C914 1.379 . S
C914 H898 0.931 . S
C914 C908 1.383 . S
C914 C913 1.379 . S
H915 C909 0.959 . S
H916 C909 0.961 . S
H917 C909 0.960 . S
H918 C910 0.930 . S
H919 C911 0.929 . S
H920 C928 0.929 . S
H921 C930 0.930 . S
H922 C932 0.930 . S
H923 C935 0.929 . S
H924 C938 0.930 . S
H925 C940 0.960 . S
H926 C940 0.960 . S
H927 C940 0.960 . S
C928 H920 0.929 . S
C928 C929 1.377 . S
C928 C930 1.384 . S
C929 C928 1.377 . S
C929 C935 1.390 . S
C930 H921 0.930 . S
C930 C928 1.384 . S
C930 C931 1.372 . S
C931 C930 1.372 . S
C931 C932 1.400 . S
C931 C936 1.490 . S
C932 H922 0.930 . S
C932 C931 1.400 . S
C932 C935 1.386 . S
H933 C949 0.930 . S
H934 C950 0.931 . S
C935 H923 0.929 . S
C935 C929 1.390 . S
C935 C932 1.386 . S
C936 C931 1.490 . S
C936 C938 1.395 . S
C936 C939 1.403 . S
H937 C943 0.930 . S
C938 H924 0.930 . S
C938 C936 1.395 . S
C938 C941 1.403 . S
C939 C936 1.403 . S
C939 C940 1.524 . S
C939 C943 1.400 . S
C940 H925 0.960 . S
C940 H926 0.960 . S
C940 H927 0.960 . S
C940 C939 1.524 . S
C941 C938 1.403 . S
C941 C942 1.392 . S
C941 C945 1.495 1_655 S
C942 C941 1.392 . S
C942 C943 1.385 . S
C942 C944 1.478 . S
C943 H937 0.930 . S
C943 C939 1.400 . S
C943 C942 1.385 . S
C944 C942 1.478 . S
C944 C946 1.381 . S
C944 C950 1.383 . S
C945 C941 1.495 1_455 S
C945 H951 0.959 . S
C945 H952 0.961 . S
C945 H953 0.960 . S
C946 C944 1.381 . S
C946 C947 1.394 . S
C946 H954 0.930 . S
C947 C946 1.394 . S
C947 C948 1.383 . S
C947 H955 0.912 1_655 S
C948 C947 1.383 . S
C948 C949 1.377 . S
C949 H933 0.930 . S
C949 C948 1.377 . S
C949 C950 1.379 . S
C950 H934 0.931 . S
C950 C944 1.383 . S
C950 C949 1.379 . S
H951 C945 0.959 . S
H952 C945 0.961 . S
H953 C945 0.960 . S
H954 C946 0.930 . S
H955 C947 0.912 1_455 S
H956 C964 0.929 . S
H957 C966 0.930 . S
H958 C968 0.930 1_655 S
H959 C971 0.929 . S
H960 C974 0.930 . S
H961 C976 0.960 . S
H962 C976 0.970 . S
H963 C976 0.960 . S
C964 H956 0.929 . S
C964 C965 1.377 . S
C964 C966 1.384 . S
C965 C964 1.377 . S
C965 C971 1.390 1_455 S
C966 H957 0.930 . S
C966 C964 1.384 . S
C966 C967 1.372 . S
C967 C966 1.372 . S
C967 C968 1.400 . S
C967 C972 1.490 . S
C968 H958 0.930 1_455 S
C968 C967 1.400 . S
C968 C971 1.386 1_455 S
H969 C985 0.930 . S
H970 C986 0.931 . S
C971 H959 0.929 . S
C971 C965 1.390 1_655 S
C971 C968 1.386 1_655 S
C972 C967 1.490 . S
C972 C974 1.395 . S
C972 C975 1.403 . S
H973 C979 0.930 . S
C974 H960 0.930 . S
C974 C972 1.395 . S
C974 C977 1.403 . S
C975 C972 1.403 . S
C975 C976 1.524 1_455 S
C975 C979 1.400 . S
C976 H961 0.960 . S
C976 H962 0.970 . S
C976 H963 0.960 . S
C976 C975 1.524 1_655 S
C977 C974 1.403 . S
C977 C978 1.392 . S
C977 C981 1.495 . S
C978 C977 1.392 . S
C978 C979 1.385 . S
C978 C980 1.478 . S
C979 H973 0.930 . S
C979 C975 1.400 . S
C979 C978 1.385 . S
C980 C978 1.478 . S
C980 C982 1.381 . S
C980 C986 1.383 . S
C981 C977 1.495 . S
C981 H987 0.959 . S
C981 H988 0.961 . S
C981 H989 0.960 . S
C982 C980 1.381 . S
C982 C983 1.394 . S
C982 H990 0.930 . S
C983 C982 1.394 . S
C983 C984 1.383 . S
C983 H991 0.929 . S
C984 C983 1.383 . S
C984 C985 1.377 . S
C985 H969 0.930 . S
C985 C984 1.377 . S
C985 C986 1.379 . S
C986 H970 0.931 . S
C986 C980 1.383 . S
C986 C985 1.379 . S
H987 C981 0.959 . S
H988 C981 0.961 . S
H989 C981 0.960 . S
H990 C982 0.930 . S
H991 C983 0.929 . S
H992 C1000 0.929 1_545 S
H993 C1002 0.930 . S
H994 C1004 0.930 . S
H995 C1007 0.929 . S
H996 C1010 0.930 . S
H997 C1012 0.960 . S
H998 C1012 0.960 . S
H999 C1012 0.960 . S
C1000 H992 0.929 1_565 S
C1000 C1001 1.377 . S
C1000 C1002 1.384 . S
C1001 C1000 1.377 . S
C1001 C1007 1.390 . S
C1002 H993 0.930 . S
C1002 C1000 1.384 . S
C1002 C1003 1.372 . S
C1003 C1002 1.372 . S
C1003 C1004 1.400 . S
C1003 C1008 1.490 . S
C1004 H994 0.930 . S
C1004 C1003 1.400 . S
C1004 C1007 1.386 . S
H1005 C1021 0.930 . S
H1006 C1022 0.931 . S
C1007 H995 0.929 . S
C1007 C1001 1.390 . S
C1007 C1004 1.386 . S
C1008 C1003 1.490 . S
C1008 C1010 1.395 . S
C1008 C1011 1.403 . S
H1009 C1015 0.930 . S
C1010 H996 0.930 . S
C1010 C1008 1.395 . S
C1010 C1013 1.403 . S
C1011 C1008 1.403 . S
C1011 C1012 1.524 . S
C1011 C1015 1.400 . S
C1012 H997 0.960 . S
C1012 H998 0.960 . S
C1012 H999 0.960 . S
C1012 C1011 1.524 . S
C1013 C1010 1.403 . S
C1013 C1014 1.392 . S
C1013 C1017 1.495 . S
C1014 C1013 1.392 . S
C1014 C1015 1.385 . S
C1014 C1016 1.478 . S
C1015 H1009 0.930 . S
C1015 C1011 1.400 . S
C1015 C1014 1.385 . S
C1016 C1014 1.478 . S
C1016 C1018 1.381 . S
C1016 C1022 1.383 . S
C1017 C1013 1.495 . S
C1017 H1023 0.959 . S
C1017 H1024 0.961 . S
C1017 H1025 0.960 . S
C1018 C1016 1.381 . S
C1018 C1019 1.394 . S
C1018 H1026 0.930 . S
C1019 C1018 1.394 . S
C1019 C1020 1.383 . S
C1019 H1027 0.929 . S
C1020 C1019 1.383 . S
C1020 C1021 1.377 . S
C1021 H1005 0.930 . S
C1021 C1020 1.377 . S
C1021 C1022 1.379 . S
C1022 H1006 0.931 . S
C1022 C1016 1.383 . S
C1022 C1021 1.379 . S
H1023 C1017 0.959 . S
H1024 C1017 0.961 . S
H1025 C1017 0.960 . S
H1026 C1018 0.930 . S
H1027 C1019 0.929 . S
H1028 C1036 0.929 . S
H1029 C1038 0.930 . S
H1030 C1040 0.930 . S
H1031 C1043 0.929 . S
H1032 C1046 0.930 . S
H1033 C1048 0.960 . S
H1034 C1048 0.960 . S
H1035 C1048 0.960 . S
C1036 H1028 0.929 . S
C1036 C1037 1.377 . S
C1036 C1038 1.384 . S
C1037 C1036 1.377 . S
C1037 C1043 1.390 . S
C1038 H1029 0.930 . S
C1038 C1036 1.384 . S
C1038 C1039 1.372 . S
C1039 C1038 1.372 . S
C1039 C1040 1.400 . S
C1039 C1044 1.490 . S
C1040 H1030 0.930 . S
C1040 C1039 1.400 . S
C1040 C1043 1.386 . S
H1041 C1057 0.930 . S
H1042 C1058 0.931 . S
C1043 H1031 0.929 . S
C1043 C1037 1.390 . S
C1043 C1040 1.386 . S
C1044 C1039 1.490 . S
C1044 C1046 1.395 . S
C1044 C1047 1.403 . S
H1045 C1051 0.930 . S
C1046 H1032 0.930 . S
C1046 C1044 1.395 . S
C1046 C1049 1.403 . S
C1047 C1044 1.403 . S
C1047 C1048 1.524 . S
C1047 C1051 1.400 . S
C1048 H1033 0.960 . S
C1048 H1034 0.960 . S
C1048 H1035 0.960 . S
C1048 C1047 1.524 . S
C1049 C1046 1.403 . S
C1049 C1050 1.392 . S
C1049 C1053 1.495 . S
C1050 C1049 1.392 . S
C1050 C1051 1.385 . S
C1050 C1052 1.478 . S
C1051 H1045 0.930 . S
C1051 C1047 1.400 . S
C1051 C1050 1.385 . S
C1052 C1050 1.478 . S
C1052 C1054 1.381 . S
C1052 C1058 1.383 . S
C1053 C1049 1.495 . S
C1053 H1059 0.959 . S
C1053 H1060 0.961 . S
C1053 H1061 0.960 . S
C1054 C1052 1.381 . S
C1054 C1055 1.394 . S
C1054 H1062 0.930 . S
C1055 C1054 1.394 . S
C1055 C1056 1.383 . S
C1055 H1063 0.929 . S
C1056 C1055 1.383 . S
C1056 C1057 1.377 . S
C1057 H1041 0.930 . S
C1057 C1056 1.377 . S
C1057 C1058 1.379 . S
C1058 H1042 0.931 . S
C1058 C1052 1.383 . S
C1058 C1057 1.379 . S
H1059 C1053 0.959 . S
H1060 C1053 0.961 . S
H1061 C1053 0.960 . S
H1062 C1054 0.930 . S
H1063 C1055 0.929 . S
H1064 C1072 0.929 . S
H1065 C1074 0.930 . S
H1066 C1076 0.930 . S
H1067 C1079 0.929 . S
H1068 C1082 0.930 . S
H1069 C1084 0.960 . S
H1070 C1084 0.960 . S
H1071 C1084 0.960 . S
C1072 H1064 0.929 . S
C1072 C1073 1.377 . S
C1072 C1074 1.384 . S
C1073 C1072 1.377 . S
C1073 C1079 1.390 . S
C1074 H1065 0.930 . S
C1074 C1072 1.384 . S
C1074 C1075 1.372 . S
C1075 C1074 1.372 . S
C1075 C1076 1.400 . S
C1075 C1080 1.490 . S
C1076 H1066 0.930 . S
C1076 C1075 1.400 . S
C1076 C1079 1.386 . S
H1077 C1093 0.930 . S
H1078 C1094 0.931 . S
C1079 H1067 0.929 . S
C1079 C1073 1.390 . S
C1079 C1076 1.386 . S
C1080 C1075 1.490 . S
C1080 C1082 1.395 . S
C1080 C1083 1.403 . S
H1081 C1087 0.930 . S
C1082 H1068 0.930 . S
C1082 C1080 1.395 . S
C1082 C1085 1.403 . S
C1083 C1080 1.403 . S
C1083 C1084 1.524 . S
C1083 C1087 1.400 . S
C1084 H1069 0.960 . S
C1084 H1070 0.960 . S
C1084 H1071 0.960 . S
C1084 C1083 1.524 . S
C1085 C1082 1.403 . S
C1085 C1086 1.392 . S
C1085 C1089 1.495 . S
C1086 C1085 1.392 . S
C1086 C1087 1.385 . S
C1086 C1088 1.478 . S
C1087 H1081 0.930 . S
C1087 C1083 1.400 . S
C1087 C1086 1.385 . S
C1088 C1086 1.478 . S
C1088 C1090 1.381 . S
C1088 C1094 1.383 . S
C1089 C1085 1.495 . S
C1089 H1095 0.959 . S
C1089 H1096 0.961 . S
C1089 H1097 0.960 . S
C1090 C1088 1.381 . S
C1090 C1091 1.394 . S
C1090 H1098 0.930 . S
C1091 C1090 1.394 . S
C1091 C1092 1.383 . S
C1091 H1099 0.929 . S
C1092 C1091 1.383 . S
C1092 C1093 1.377 . S
C1093 H1077 0.930 . S
C1093 C1092 1.377 . S
C1093 C1094 1.379 . S
C1094 H1078 0.931 . S
C1094 C1088 1.383 . S
C1094 C1093 1.379 . S
H1095 C1089 0.959 . S
H1096 C1089 0.961 . S
H1097 C1089 0.960 . S
H1098 C1090 0.930 . S
H1099 C1091 0.929 . S
H1100 C1108 0.929 . S
H1101 C1110 0.930 . S
H1102 C1112 0.930 . S
H1103 C1115 0.929 . S
H1104 C1118 0.930 . S
H1105 C1120 0.960 . S
H1106 C1120 0.960 . S
H1107 C1120 0.960 . S
C1108 H1100 0.929 . S
C1108 C1109 1.377 . S
C1108 C1110 1.384 . S
C1109 C1108 1.377 . S
C1109 C1115 1.390 . S
C1110 H1101 0.930 . S
C1110 C1108 1.384 . S
C1110 C1111 1.372 . S
C1111 C1110 1.372 . S
C1111 C1112 1.400 . S
C1111 C1116 1.490 . S
C1112 H1102 0.930 . S
C1112 C1111 1.400 . S
C1112 C1115 1.386 . S
H1113 C1129 0.930 . S
H1114 C1130 0.931 . S
C1115 H1103 0.929 . S
C1115 C1109 1.390 . S
C1115 C1112 1.386 . S
C1116 C1111 1.490 . S
C1116 C1118 1.395 . S
C1116 C1119 1.403 . S
H1117 C1123 0.930 . S
C1118 H1104 0.930 . S
C1118 C1116 1.395 . S
C1118 C1121 1.403 . S
C1119 C1116 1.403 . S
C1119 C1120 1.524 . S
C1119 C1123 1.400 . S
C1120 H1105 0.960 . S
C1120 H1106 0.960 . S
C1120 H1107 0.960 . S
C1120 C1119 1.524 . S
C1121 C1118 1.403 . S
C1121 C1122 1.392 . S
C1121 C1125 1.495 . S
C1122 C1121 1.392 . S
C1122 C1123 1.385 . S
C1122 C1124 1.478 . S
C1123 H1117 0.930 . S
C1123 C1119 1.400 . S
C1123 C1122 1.385 . S
C1124 C1122 1.478 . S
C1124 C1126 1.381 . S
C1124 C1130 1.383 . S
C1125 C1121 1.495 . S
C1125 H1131 0.959 . S
C1125 H1132 0.961 . S
C1125 H1133 0.960 . S
C1126 C1124 1.381 . S
C1126 C1127 1.394 . S
C1126 H1134 0.930 . S
C1127 C1126 1.394 . S
C1127 C1128 1.383 . S
C1127 H1135 0.929 . S
C1128 C1127 1.383 . S
C1128 C1129 1.377 . S
C1129 H1113 0.930 . S
C1129 C1128 1.377 . S
C1129 C1130 1.379 . S
C1130 H1114 0.931 . S
C1130 C1124 1.383 . S
C1130 C1129 1.379 . S
H1131 C1125 0.959 . S
H1132 C1125 0.961 . S
H1133 C1125 0.960 . S
H1134 C1126 0.930 . S
H1135 C1127 0.929 . S
H1136 C1144 0.929 . S
H1137 C1146 0.930 . S
H1138 C1148 0.930 1_545 S
H1139 C1151 0.929 1_545 S
H1140 C1154 0.930 . S
H1141 C1156 0.960 . S
H1142 C1156 0.960 . S
H1143 C1156 0.960 . S
C1144 H1136 0.929 . S
C1144 C1145 1.377 . S
C1144 C1146 1.384 . S
C1145 C1144 1.377 . S
C1145 C1151 1.390 . S
C1146 H1137 0.930 . S
C1146 C1144 1.384 . S
C1146 C1147 1.372 . S
C1147 C1146 1.372 . S
C1147 C1148 1.400 . S
C1147 C1152 1.490 . S
C1148 H1138 0.930 1_565 S
C1148 C1147 1.400 . S
C1148 C1151 1.386 . S
H1149 C1165 0.930 . S
H1150 C1166 0.931 . S
C1151 H1139 0.929 1_565 S
C1151 C1145 1.390 . S
C1151 C1148 1.386 . S
C1152 C1147 1.490 . S
C1152 C1154 1.395 . S
C1152 C1155 1.403 . S
H1153 C1159 0.930 . S
C1154 H1140 0.930 . S
C1154 C1152 1.395 . S
C1154 C1157 1.403 . S
C1155 C1152 1.403 . S
C1155 C1156 1.524 . S
C1155 C1159 1.400 . S
C1156 H1141 0.960 . S
C1156 H1142 0.960 . S
C1156 H1143 0.960 . S
C1156 C1155 1.524 . S
C1157 C1154 1.403 . S
C1157 C1158 1.392 . S
C1157 C1161 1.495 . S
C1158 C1157 1.392 . S
C1158 C1159 1.385 . S
C1158 C1160 1.478 . S
C1159 H1153 0.930 . S
C1159 C1155 1.400 . S
C1159 C1158 1.385 . S
C1160 C1158 1.478 . S
C1160 C1162 1.381 . S
C1160 C1166 1.383 1_565 S
C1161 C1157 1.495 . S
C1161 H1167 0.959 . S
C1161 H1168 0.961 . S
C1161 H1169 0.960 . S
C1162 C1160 1.381 . S
C1162 C1163 1.394 . S
C1162 H1170 0.930 . S
C1163 C1162 1.394 . S
C1163 C1164 1.383 . S
C1163 H1171 0.929 . S
C1164 C1163 1.383 . S
C1164 C1165 1.377 1_565 S
C1165 H1149 0.930 . S
C1165 C1164 1.377 1_545 S
C1165 C1166 1.379 . S
C1166 H1150 0.931 . S
C1166 C1160 1.383 1_545 S
C1166 C1165 1.379 . S
H1167 C1161 0.959 . S
H1168 C1161 0.961 . S
H1169 C1161 0.960 . S
H1170 C1162 0.930 . S
H1171 C1163 0.929 . S
H1172 C1180 0.929 . S
H1173 C1182 0.930 . S
H1174 C1184 0.930 . S
H1175 C1187 0.929 . S
H1176 C1190 0.930 . S
H1177 C1192 0.960 . S
H1178 C1192 0.960 . S
H1179 C1192 0.960 . S
C1180 H1172 0.929 . S
C1180 C1181 1.377 . S
C1180 C1182 1.384 . S
C1181 C1180 1.377 . S
C1181 C1187 1.390 . S
C1182 H1173 0.930 . S
C1182 C1180 1.384 . S
C1182 C1183 1.372 . S
C1183 C1182 1.372 . S
C1183 C1184 1.400 . S
C1183 C1188 1.490 . S
C1184 H1174 0.930 . S
C1184 C1183 1.400 . S
C1184 C1187 1.386 . S
H1185 C1201 0.930 . S
H1186 C1202 0.931 . S
C1187 H1175 0.929 . S
C1187 C1181 1.390 . S
C1187 C1184 1.386 . S
C1188 C1183 1.490 . S
C1188 C1190 1.395 . S
C1188 C1191 1.403 . S
H1189 C1195 0.930 . S
C1190 H1176 0.930 . S
C1190 C1188 1.395 . S
C1190 C1193 1.403 . S
C1191 C1188 1.403 . S
C1191 C1192 1.524 . S
C1191 C1195 1.400 . S
C1192 H1177 0.960 . S
C1192 H1178 0.960 . S
C1192 H1179 0.960 . S
C1192 C1191 1.524 . S
C1193 C1190 1.403 . S
C1193 C1194 1.392 . S
C1193 C1197 1.495 . S
C1194 C1193 1.392 . S
C1194 C1195 1.385 . S
C1194 C1196 1.478 . S
C1195 H1189 0.930 . S
C1195 C1191 1.400 . S
C1195 C1194 1.385 . S
C1196 C1194 1.478 . S
C1196 C1198 1.381 . S
C1196 C1202 1.383 . S
C1197 C1193 1.495 . S
C1197 H1203 0.959 . S
C1197 H1204 0.961 . S
C1197 H1205 0.960 . S
C1198 C1196 1.381 . S
C1198 C1199 1.394 . S
C1198 H1206 0.930 . S
C1199 C1198 1.394 . S
C1199 C1200 1.383 . S
C1199 H1207 0.929 . S
C1200 C1199 1.383 . S
C1200 C1201 1.377 . S
C1201 H1185 0.930 . S
C1201 C1200 1.377 . S
C1201 C1202 1.379 . S
C1202 H1186 0.931 . S
C1202 C1196 1.383 . S
C1202 C1201 1.379 . S
H1203 C1197 0.959 . S
H1204 C1197 0.961 . S
H1205 C1197 0.960 . S
H1206 C1198 0.930 . S
H1207 C1199 0.929 . S
H1208 C1216 0.929 . S
H1209 C1218 0.930 . S
H1210 C1220 0.930 . S
H1211 C1223 0.929 . S
H1212 C1226 0.930 . S
H1213 C1228 0.960 . S
H1214 C1228 0.960 . S
H1215 C1228 0.960 . S
C1216 H1208 0.929 . S
C1216 C1217 1.377 . S
C1216 C1218 1.384 . S
C1217 C1216 1.377 . S
C1217 C1223 1.390 . S
C1218 H1209 0.930 . S
C1218 C1216 1.384 . S
C1218 C1219 1.372 . S
C1219 C1218 1.372 . S
C1219 C1220 1.400 . S
C1219 C1224 1.490 . S
C1220 H1210 0.930 . S
C1220 C1219 1.400 . S
C1220 C1223 1.386 . S
H1221 C1237 0.930 . S
H1222 C1238 0.931 . S
C1223 H1211 0.929 . S
C1223 C1217 1.390 . S
C1223 C1220 1.386 . S
C1224 C1219 1.490 . S
C1224 C1226 1.395 . S
C1224 C1227 1.403 . S
H1225 C1231 0.930 . S
C1226 H1212 0.930 . S
C1226 C1224 1.395 . S
C1226 C1229 1.403 . S
C1227 C1224 1.403 . S
C1227 C1228 1.524 . S
C1227 C1231 1.400 . S
C1228 H1213 0.960 . S
C1228 H1214 0.960 . S
C1228 H1215 0.960 . S
C1228 C1227 1.524 . S
C1229 C1226 1.403 . S
C1229 C1230 1.392 . S
C1229 C1233 1.495 . S
C1230 C1229 1.392 . S
C1230 C1231 1.385 . S
C1230 C1232 1.478 . S
C1231 H1225 0.930 . S
C1231 C1227 1.400 . S
C1231 C1230 1.385 . S
C1232 C1230 1.478 . S
C1232 C1234 1.381 . S
C1232 C1238 1.383 . S
C1233 C1229 1.495 . S
C1233 H1239 0.959 . S
C1233 H1240 0.961 . S
C1233 H1241 0.960 . S
C1234 C1232 1.381 . S
C1234 C1235 1.394 . S
C1234 H1242 0.930 . S
C1235 C1234 1.394 . S
C1235 C1236 1.383 . S
C1235 H1243 0.929 . S
C1236 C1235 1.383 . S
C1236 C1237 1.377 . S
C1237 H1221 0.930 . S
C1237 C1236 1.377 . S
C1237 C1238 1.379 . S
C1238 H1222 0.931 . S
C1238 C1232 1.383 . S
C1238 C1237 1.379 . S
H1239 C1233 0.959 . S
H1240 C1233 0.961 . S
H1241 C1233 0.960 . S
H1242 C1234 0.930 . S
H1243 C1235 0.929 . S
H1244 C1252 0.929 . S
H1245 C1254 0.930 . S
H1246 C1256 0.930 . S
H1247 C1259 0.929 . S
H1248 C1262 0.930 . S
H1249 C1264 0.960 . S
H1250 C1264 0.960 . S
H1251 C1264 0.960 . S
C1252 H1244 0.929 . S
C1252 C1253 1.377 . S
C1252 C1254 1.384 . S
C1253 C1252 1.377 . S
C1253 C1259 1.390 . S
C1254 H1245 0.930 . S
C1254 C1252 1.384 . S
C1254 C1255 1.372 . S
C1255 C1254 1.372 . S
C1255 C1256 1.400 . S
C1255 C1260 1.490 . S
C1256 H1246 0.930 . S
C1256 C1255 1.400 . S
C1256 C1259 1.386 . S
H1257 C1273 0.930 . S
H1258 C1274 0.931 . S
C1259 H1247 0.929 . S
C1259 C1253 1.390 . S
C1259 C1256 1.386 . S
C1260 C1255 1.490 . S
C1260 C1262 1.395 1_655 S
C1260 C1263 1.403 . S
H1261 C1267 0.930 . S
C1262 H1248 0.930 . S
C1262 C1260 1.395 1_455 S
C1262 C1265 1.403 . S
C1263 C1260 1.403 . S
C1263 C1264 1.524 . S
C1263 C1267 1.400 . S
C1264 H1249 0.960 . S
C1264 H1250 0.960 . S
C1264 H1251 0.960 . S
C1264 C1263 1.524 . S
C1265 C1262 1.403 . S
C1265 C1266 1.392 1_455 S
C1265 C1269 1.495 . S
C1266 C1265 1.392 1_655 S
C1266 C1267 1.385 . S
C1266 C1268 1.477 1_655 S
C1267 H1261 0.930 . S
C1267 C1263 1.400 . S
C1267 C1266 1.385 . S
C1268 C1266 1.477 1_455 S
C1268 C1270 1.380 1_455 S
C1268 C1274 1.384 . S
C1269 C1265 1.495 . S
C1269 H1275 0.959 . S
C1269 H1276 0.961 . S
C1269 H1277 0.960 . S
C1270 C1268 1.380 1_655 S
C1270 C1271 1.394 . S
C1270 H1278 0.930 . S
C1271 C1270 1.394 . S
C1271 C1272 1.371 1_655 S
C1271 H1279 0.929 . S
C1272 C1271 1.371 1_455 S
C1272 C1273 1.392 . S
C1273 H1257 0.930 . S
C1273 C1272 1.392 . S
C1273 C1274 1.379 . S
C1274 H1258 0.931 . S
C1274 C1268 1.384 . S
C1274 C1273 1.379 . S
H1275 C1269 0.959 . S
H1276 C1269 0.961 . S
H1277 C1269 0.960 . S
H1278 C1270 0.930 . S
H1279 C1271 0.929 . S
H1280 C1288 0.929 . S
H1281 C1290 0.930 . S
H1282 C1292 0.930 1_565 S
H1283 C1295 0.929 1_565 S
H1284 C1298 0.930 . S
H1285 C1300 0.960 1_565 S
H1286 C1300 0.960 . S
H1287 C1300 0.960 1_565 S
C1288 H1280 0.929 . S
C1288 C1289 1.377 . S
C1288 C1290 1.384 . S
C1289 C1288 1.377 . S
C1289 C1295 1.390 . S
C1290 H1281 0.930 . S
C1290 C1288 1.384 . S
C1290 C1291 1.372 . S
C1291 C1290 1.372 . S
C1291 C1292 1.400 . S
C1291 C1296 1.490 . S
C1292 H1282 0.930 1_545 S
C1292 C1291 1.400 . S
C1292 C1295 1.386 . S
H1293 C1309 0.930 . S
H1294 C1310 0.931 . S
C1295 H1283 0.929 1_545 S
C1295 C1289 1.390 . S
C1295 C1292 1.386 . S
C1296 C1291 1.490 . S
C1296 C1298 1.395 . S
C1296 C1299 1.403 . S
H1297 C1303 0.929 . S
C1298 H1284 0.930 . S
C1298 C1296 1.395 . S
C1298 C1301 1.403 . S
C1299 C1296 1.403 . S
C1299 C1300 1.524 . S
C1299 C1303 1.400 . S
C1300 H1285 0.960 1_545 S
C1300 H1286 0.960 . S
C1300 H1287 0.960 1_545 S
C1300 C1299 1.524 . S
C1301 C1298 1.403 . S
C1301 C1302 1.392 . S
C1301 C1305 1.495 . S
C1302 C1301 1.392 . S
C1302 C1303 1.385 . S
C1302 C1304 1.478 . S
C1303 H1297 0.929 . S
C1303 C1299 1.400 . S
C1303 C1302 1.385 . S
C1304 C1302 1.478 . S
C1304 C1306 1.381 . S
C1304 C1310 1.383 1_545 S
C1305 C1301 1.495 . S
C1305 H1311 0.959 . S
C1305 H1312 0.961 . S
C1305 H1313 0.960 . S
C1306 C1304 1.381 . S
C1306 C1307 1.394 . S
C1306 H1314 0.930 . S
C1307 C1306 1.394 . S
C1307 C1308 1.383 . S
C1307 H1315 0.929 . S
C1308 C1307 1.383 . S
C1308 C1309 1.377 1_545 S
C1309 H1293 0.930 . S
C1309 C1308 1.377 1_565 S
C1309 C1310 1.379 . S
C1310 H1294 0.931 . S
C1310 C1304 1.383 1_565 S
C1310 C1309 1.379 . S
H1311 C1305 0.959 . S
H1312 C1305 0.961 . S
H1313 C1305 0.960 . S
H1314 C1306 0.930 . S
H1315 C1307 0.929 . S
H1316 C1324 0.929 . S
H1317 C1326 0.930 . S
H1318 C1328 0.930 . S
H1319 C1331 0.929 . S
H1320 C1334 0.930 . S
H1321 C1336 0.960 . S
H1322 C1336 0.960 . S
H1323 C1336 0.960 . S
C1324 H1316 0.929 . S
C1324 C1325 1.377 . S
C1324 C1326 1.384 . S
C1325 C1324 1.377 . S
C1325 C1331 1.390 . S
C1326 H1317 0.930 . S
C1326 C1324 1.384 . S
C1326 C1327 1.372 . S
C1327 C1326 1.372 . S
C1327 C1328 1.400 . S
C1327 C1332 1.490 . S
C1328 H1318 0.930 . S
C1328 C1327 1.400 . S
C1328 C1331 1.386 . S
H1329 C1345 0.930 . S
H1330 C1346 0.931 . S
C1331 H1319 0.929 . S
C1331 C1325 1.390 . S
C1331 C1328 1.386 . S
C1332 C1327 1.490 . S
C1332 C1334 1.395 . S
C1332 C1335 1.403 . S
H1333 C1339 0.930 . S
C1334 H1320 0.930 . S
C1334 C1332 1.395 . S
C1334 C1337 1.403 . S
C1335 C1332 1.403 . S
C1335 C1336 1.524 . S
C1335 C1339 1.400 . S
C1336 H1321 0.960 . S
C1336 H1322 0.960 . S
C1336 H1323 0.960 . S
C1336 C1335 1.524 . S
C1337 C1334 1.403 . S
C1337 C1338 1.392 . S
C1337 C1341 1.495 . S
C1338 C1337 1.392 . S
C1338 C1339 1.385 . S
C1338 C1340 1.478 . S
C1339 H1333 0.930 . S
C1339 C1335 1.400 . S
C1339 C1338 1.385 . S
C1340 C1338 1.478 . S
C1340 C1342 1.381 . S
C1340 C1346 1.383 . S
C1341 C1337 1.495 . S
C1341 H1347 0.959 . S
C1341 H1348 0.961 . S
C1341 H1349 0.960 . S
C1342 C1340 1.381 . S
C1342 C1343 1.394 . S
C1342 H1350 0.930 . S
C1343 C1342 1.394 . S
C1343 C1344 1.383 . S
C1343 H1351 0.929 . S
C1344 C1343 1.383 . S
C1344 C1345 1.377 . S
C1345 H1329 0.930 . S
C1345 C1344 1.377 . S
C1345 C1346 1.379 . S
C1346 H1330 0.931 . S
C1346 C1340 1.383 . S
C1346 C1345 1.379 . S
H1347 C1341 0.959 . S
H1348 C1341 0.961 . S
H1349 C1341 0.960 . S
H1350 C1342 0.930 . S
H1351 C1343 0.929 . S
H1352 C1360 0.929 . S
H1353 C1362 0.930 . S
H1354 C1364 0.930 . S
H1355 C1367 0.929 . S
H1356 C1370 0.930 . S
H1357 C1372 0.960 . S
H1358 C1372 0.960 . S
H1359 C1372 0.960 . S
C1360 H1352 0.929 . S
C1360 C1361 1.377 . S
C1360 C1362 1.384 . S
C1361 C1360 1.377 . S
C1361 C1367 1.390 . S
C1362 H1353 0.930 . S
C1362 C1360 1.384 . S
C1362 C1363 1.372 . S
C1363 C1362 1.372 . S
C1363 C1364 1.400 . S
C1363 C1368 1.490 . S
C1364 H1354 0.930 . S
C1364 C1363 1.400 . S
C1364 C1367 1.386 . S
H1365 C1381 0.930 . S
H1366 C1382 0.931 . S
C1367 H1355 0.929 . S
C1367 C1361 1.390 . S
C1367 C1364 1.386 . S
C1368 C1363 1.490 . S
C1368 C1370 1.395 . S
C1368 C1371 1.403 . S
H1369 C1375 0.930 . S
C1370 H1356 0.930 . S
C1370 C1368 1.395 . S
C1370 C1373 1.403 . S
C1371 C1368 1.403 . S
C1371 C1372 1.524 . S
C1371 C1375 1.400 . S
C1372 H1357 0.960 . S
C1372 H1358 0.960 . S
C1372 H1359 0.960 . S
C1372 C1371 1.524 . S
C1373 C1370 1.403 . S
C1373 C1374 1.392 . S
C1373 C1377 1.495 . S
C1374 C1373 1.392 . S
C1374 C1375 1.385 . S
C1374 C1376 1.478 . S
C1375 H1369 0.930 . S
C1375 C1371 1.400 . S
C1375 C1374 1.385 . S
C1376 C1374 1.478 . S
C1376 C1378 1.381 . S
C1376 C1382 1.383 . S
C1377 C1373 1.495 . S
C1377 H1383 0.959 . S
C1377 H1384 0.961 . S
C1377 H1385 0.960 . S
C1378 C1376 1.381 . S
C1378 C1379 1.394 . S
C1378 H1386 0.930 . S
C1379 C1378 1.394 . S
C1379 C1380 1.383 . S
C1379 H1387 0.929 . S
C1380 C1379 1.383 . S
C1380 C1381 1.377 . S
C1381 H1365 0.930 . S
C1381 C1380 1.377 . S
C1381 C1382 1.379 . S
C1382 H1366 0.931 . S
C1382 C1376 1.383 . S
C1382 C1381 1.379 . S
H1383 C1377 0.959 . S
H1384 C1377 0.961 . S
H1385 C1377 0.960 . S
H1386 C1378 0.930 . S
H1387 C1379 0.929 . S
H1388 C1396 0.929 . S
H1389 C1398 0.930 . S
H1390 C1400 0.930 . S
H1391 C1403 0.929 . S
H1392 C1406 0.930 . S
H1393 C1408 0.960 . S
H1394 C1408 0.976 . S
H1395 C1408 0.960 . S
C1396 H1388 0.929 . S
C1396 C1397 1.377 . S
C1396 C1398 1.384 . S
C1397 C1396 1.377 . S
C1397 C1403 1.390 1_455 S
C1398 H1389 0.930 . S
C1398 C1396 1.384 . S
C1398 C1399 1.372 . S
C1399 C1398 1.372 . S
C1399 C1400 1.400 1_455 S
C1399 C1404 1.490 . S
C1400 H1390 0.930 . S
C1400 C1399 1.400 1_655 S
C1400 C1403 1.386 . S
H1401 C1417 0.930 . S
H1402 C1418 0.931 . S
C1403 H1391 0.929 . S
C1403 C1397 1.390 1_655 S
C1403 C1400 1.386 . S
C1404 C1399 1.490 . S
C1404 C1406 1.395 . S
C1404 C1407 1.403 1_455 S
H1405 C1411 0.930 . S
C1406 H1392 0.930 . S
C1406 C1404 1.395 . S
C1406 C1409 1.403 . S
C1407 C1404 1.403 1_655 S
C1407 C1408 1.524 . S
C1407 C1411 1.400 . S
C1408 H1393 0.960 . S
C1408 H1394 0.976 . S
C1408 H1395 0.960 . S
C1408 C1407 1.524 . S
C1409 C1406 1.403 . S
C1409 C1410 1.392 . S
C1409 C1413 1.495 . S
C1410 C1409 1.392 . S
C1410 C1411 1.385 1_455 S
C1410 C1412 1.478 . S
C1411 H1405 0.930 . S
C1411 C1407 1.400 . S
C1411 C1410 1.385 1_655 S
C1412 C1410 1.478 . S
C1412 C1414 1.381 . S
C1412 C1418 1.383 1_455 S
C1413 C1409 1.495 . S
C1413 H1419 0.959 . S
C1413 H1420 0.961 . S
C1413 H1421 0.960 . S
C1414 C1412 1.381 . S
C1414 C1415 1.394 . S
C1414 H1422 0.930 . S
C1415 C1414 1.394 . S
C1415 C1416 1.383 . S
C1415 H1423 0.929 . S
C1416 C1415 1.383 . S
C1416 C1417 1.377 1_455 S
C1417 H1401 0.930 . S
C1417 C1416 1.377 1_655 S
C1417 C1418 1.379 . S
C1418 H1402 0.931 . S
C1418 C1412 1.383 1_655 S
C1418 C1417 1.379 . S
H1419 C1413 0.959 . S
H1420 C1413 0.961 . S
H1421 C1413 0.960 . S
H1422 C1414 0.930 . S
H1423 C1415 0.929 . S
H1424 C1432 0.929 . S
H1425 C1434 0.930 . S
H1426 C1436 0.930 . S
H1427 C1439 0.929 . S
H1428 C1442 0.917 1_565 S
H1429 C1444 0.960 . S
H1430 C1444 0.960 . S
H1431 C1444 0.960 . S
C1432 H1424 0.929 . S
C1432 C1433 1.377 1_565 S
C1432 C1434 1.384 . S
C1433 C1432 1.377 1_545 S
C1433 C1439 1.390 . S
C1434 H1425 0.930 . S
C1434 C1432 1.384 . S
C1434 C1435 1.372 1_565 S
C1435 C1434 1.372 1_545 S
C1435 C1436 1.400 . S
C1435 C1440 1.490 . S
C1436 H1426 0.930 . S
C1436 C1435 1.400 . S
C1436 C1439 1.386 . S
H1437 C1453 0.930 . S
H1438 C1454 0.931 . S
C1439 H1427 0.929 . S
C1439 C1433 1.390 . S
C1439 C1436 1.386 . S
C1440 C1435 1.490 . S
C1440 C1442 1.395 . S
C1440 C1443 1.403 . S
H1441 C1447 0.930 . S
C1442 H1428 0.917 1_545 S
C1442 C1440 1.395 . S
C1442 C1445 1.403 . S
C1443 C1440 1.403 . S
C1443 C1444 1.524 . S
C1443 C1447 1.400 . S
C1444 H1429 0.960 . S
C1444 H1430 0.960 . S
C1444 H1431 0.960 . S
C1444 C1443 1.524 . S
C1445 C1442 1.403 . S
C1445 C1446 1.392 . S
C1445 C1449 1.507 . S
C1446 C1445 1.392 . S
C1446 C1447 1.385 . S
C1446 C1448 1.478 . S
C1447 H1441 0.930 . S
C1447 C1443 1.400 . S
C1447 C1446 1.385 . S
C1448 C1446 1.478 . S
C1448 C1450 1.381 1_545 S
C1448 C1454 1.383 . S
C1449 C1445 1.507 . S
C1449 H1455 0.946 1_545 S
C1449 H1456 1.002 . S
C1449 H1457 0.923 1_545 S
C1450 C1448 1.381 1_565 S
C1450 C1451 1.396 . S
C1450 H1458 0.930 . S
C1451 C1450 1.396 . S
C1451 C1452 1.368 1_565 S
C1451 H1459 0.943 . S
C1452 C1451 1.368 1_545 S
C1452 C1453 1.377 . S
C1453 H1437 0.930 . S
C1453 C1452 1.377 . S
C1453 C1454 1.379 . S
C1454 H1438 0.931 . S
C1454 C1448 1.383 . S
C1454 C1453 1.379 . S
H1455 C1449 0.946 1_565 S
H1456 C1449 1.002 . S
H1457 C1449 0.923 1_565 S
H1458 C1450 0.930 . S
H1459 C1451 0.943 . S
H1460 C1468 0.929 . S
H1461 C1470 0.930 . S
H1462 C1472 0.930 . S
H1463 C1475 0.929 . S
H1464 C1478 0.930 . S
H1465 C1480 0.960 . S
H1466 C1480 0.960 . S
H1467 C1480 0.960 . S
C1468 H1460 0.929 . S
C1468 C1469 1.377 . S
C1468 C1470 1.384 . S
C1469 C1468 1.377 . S
C1469 C1475 1.390 . S
C1470 H1461 0.930 . S
C1470 C1468 1.384 . S
C1470 C1471 1.372 . S
C1471 C1470 1.372 . S
C1471 C1472 1.400 . S
C1471 C1476 1.490 . S
C1472 H1462 0.930 . S
C1472 C1471 1.400 . S
C1472 C1475 1.386 . S
H1473 C1489 0.930 1_556 S
H1474 C1490 0.931 . S
C1475 H1463 0.929 . S
C1475 C1469 1.390 . S
C1475 C1472 1.386 . S
C1476 C1471 1.490 . S
C1476 C1478 1.395 . S
C1476 C1479 1.403 . S
H1477 C1483 0.930 . S
C1478 H1464 0.930 . S
C1478 C1476 1.395 . S
C1478 C1481 1.403 . S
C1479 C1476 1.403 . S
C1479 C1480 1.524 . S
C1479 C1483 1.400 . S
C1480 H1465 0.960 . S
C1480 H1466 0.960 . S
C1480 H1467 0.960 . S
C1480 C1479 1.524 . S
C1481 C1478 1.403 . S
C1481 C1482 1.392 . S
C1481 C1485 1.495 . S
C1482 C1481 1.392 . S
C1482 C1483 1.385 . S
C1482 C1484 1.478 . S
C1483 H1477 0.930 . S
C1483 C1479 1.400 . S
C1483 C1482 1.385 . S
C1484 C1482 1.478 . S
C1484 C1486 1.381 . S
C1484 C1490 1.383 . S
C1485 C1481 1.495 . S
C1485 H1491 0.959 . S
C1485 H1492 0.961 . S
C1485 H1493 0.960 . S
C1486 C1484 1.381 . S
C1486 C1487 1.394 . S
C1486 H1494 0.930 . S
C1487 C1486 1.394 . S
C1487 C1488 1.383 . S
C1487 H1495 0.929 . S
C1488 C1487 1.383 . S
C1488 C1489 1.377 . S
C1489 H1473 0.930 1_554 S
C1489 C1488 1.377 . S
C1489 C1490 1.379 . S
C1490 H1474 0.931 . S
C1490 C1484 1.383 . S
C1490 C1489 1.379 . S
H1491 C1485 0.959 . S
H1492 C1485 0.961 . S
H1493 C1485 0.960 . S
H1494 C1486 0.930 . S
H1495 C1487 0.929 . S
H1496 C1504 0.929 . S
H1497 C1506 0.930 . S
H1498 C1508 0.930 . S
H1499 C1511 0.929 . S
H1500 C1514 0.930 . S
H1501 C1516 0.960 . S
H1502 C1516 0.960 . S
H1503 C1516 0.960 . S
C1504 H1496 0.929 . S
C1504 C1505 1.377 . S
C1504 C1506 1.384 . S
C1505 C1504 1.377 . S
C1505 C1511 1.390 . S
C1506 H1497 0.930 . S
C1506 C1504 1.384 . S
C1506 C1507 1.372 . S
C1507 C1506 1.372 . S
C1507 C1508 1.400 . S
C1507 C1512 1.490 . S
C1508 H1498 0.930 . S
C1508 C1507 1.400 . S
C1508 C1511 1.386 . S
H1509 C1525 0.930 . S
H1510 C1526 0.931 . S
C1511 H1499 0.929 . S
C1511 C1505 1.390 . S
C1511 C1508 1.386 . S
C1512 C1507 1.490 . S
C1512 C1514 1.395 . S
C1512 C1515 1.403 . S
H1513 C1519 0.930 . S
C1514 H1500 0.930 . S
C1514 C1512 1.395 . S
C1514 C1517 1.403 . S
C1515 C1512 1.403 . S
C1515 C1516 1.524 . S
C1515 C1519 1.400 . S
C1516 H1501 0.960 . S
C1516 H1502 0.960 . S
C1516 H1503 0.960 . S
C1516 C1515 1.524 . S
C1517 C1514 1.403 . S
C1517 C1518 1.392 . S
C1517 C1521 1.495 . S
C1518 C1517 1.392 . S
C1518 C1519 1.385 . S
C1518 C1520 1.478 . S
C1519 H1513 0.930 . S
C1519 C1515 1.400 . S
C1519 C1518 1.385 . S
C1520 C1518 1.478 . S
C1520 C1522 1.381 . S
C1520 C1526 1.383 . S
C1521 C1517 1.495 . S
C1521 H1527 0.959 . S
C1521 H1528 0.961 . S
C1521 H1529 0.960 . S
C1522 C1520 1.381 . S
C1522 C1523 1.394 . S
C1522 H1530 0.930 . S
C1523 C1522 1.394 . S
C1523 C1524 1.383 . S
C1523 H1531 0.929 . S
C1524 C1523 1.383 . S
C1524 C1525 1.377 . S
C1525 H1509 0.930 . S
C1525 C1524 1.377 . S
C1525 C1526 1.379 . S
C1526 H1510 0.931 . S
C1526 C1520 1.383 . S
C1526 C1525 1.379 . S
H1527 C1521 0.959 . S
H1528 C1521 0.961 . S
H1529 C1521 0.960 . S
H1530 C1522 0.930 . S
H1531 C1523 0.929 . S
H1532 C1540 0.929 . S
H1533 C1542 0.930 . S
H1534 C1544 0.930 . S
H1535 C1547 0.929 . S
H1536 C1550 0.961 . S
H1537 C1552 0.960 . S
H1538 C1552 0.960 . S
H1539 C1552 0.960 . S
C1540 H1532 0.929 . S
C1540 C1541 1.377 . S
C1540 C1542 1.384 . S
C1541 C1540 1.377 . S
C1541 C1547 1.390 . S
C1542 H1533 0.930 . S
C1542 C1540 1.384 . S
C1542 C1543 1.372 . S
C1543 C1542 1.372 . S
C1543 C1544 1.400 . S
C1543 C1548 1.490 . S
C1544 H1534 0.930 . S
C1544 C1543 1.400 . S
C1544 C1547 1.386 . S
H1545 C1561 0.930 . S
H1546 C1562 0.931 . S
C1547 H1535 0.929 . S
C1547 C1541 1.390 . S
C1547 C1544 1.386 . S
C1548 C1543 1.490 . S
C1548 C1550 1.356 1_455 S
C1548 C1551 1.403 . S
H1549 C1555 0.930 . S
C1550 H1536 0.961 . S
C1550 C1548 1.356 1_655 S
C1550 C1553 1.413 . S
C1551 C1548 1.403 . S
C1551 C1552 1.524 . S
C1551 C1555 1.400 . S
C1552 H1537 0.960 . S
C1552 H1538 0.960 . S
C1552 H1539 0.960 . S
C1552 C1551 1.524 . S
C1553 C1550 1.413 . S
C1553 C1554 1.392 1_655 S
C1553 C1557 1.495 . S
C1554 C1553 1.392 1_455 S
C1554 C1555 1.385 . S
C1554 C1556 1.478 . S
C1555 H1549 0.930 . S
C1555 C1551 1.400 . S
C1555 C1554 1.385 . S
C1556 C1554 1.478 . S
C1556 C1558 1.381 . S
C1556 C1562 1.383 . S
C1557 C1553 1.495 . S
C1557 H1563 0.959 . S
C1557 H1564 0.961 . S
C1557 H1565 0.960 . S
C1558 C1556 1.381 . S
C1558 C1559 1.398 . S
C1558 H1566 0.930 . S
C1559 C1558 1.398 . S
C1559 C1560 1.383 . S
C1559 H1567 0.927 1_455 S
C1560 C1559 1.383 . S
C1560 C1561 1.382 . S
C1561 H1545 0.930 . S
C1561 C1560 1.382 . S
C1561 C1562 1.379 . S
C1562 H1546 0.931 . S
C1562 C1556 1.383 . S
C1562 C1561 1.379 . S
H1563 C1557 0.959 . S
H1564 C1557 0.961 . S
H1565 C1557 0.960 . S
H1566 C1558 0.930 . S
H1567 C1559 0.927 1_655 S
H1568 C1576 0.929 . S
H1569 C1578 0.930 . S
H1570 C1580 0.930 . S
H1571 C1583 0.929 . S
H1572 C1586 0.930 . S
H1573 C1588 0.960 . S
H1574 C1588 0.960 . S
H1575 C1588 0.960 . S
C1576 H1568 0.929 . S
C1576 C1577 1.377 1_545 S
C1576 C1578 1.384 . S
C1577 C1576 1.377 1_565 S
C1577 C1583 1.390 . S
C1578 H1569 0.930 . S
C1578 C1576 1.384 . S
C1578 C1579 1.372 1_545 S
C1579 C1578 1.372 1_565 S
C1579 C1580 1.400 . S
C1579 C1584 1.490 . S
C1580 H1570 0.930 . S
C1580 C1579 1.400 . S
C1580 C1583 1.386 . S
H1581 C1597 0.930 . S
H1582 C1598 0.931 . S
C1583 H1571 0.929 . S
C1583 C1577 1.390 . S
C1583 C1580 1.386 . S
C1584 C1579 1.490 . S
C1584 C1586 1.395 . S
C1584 C1587 1.403 . S
H1585 C1591 0.946 . S
C1586 H1572 0.930 . S
C1586 C1584 1.395 . S
C1586 C1589 1.403 . S
C1587 C1584 1.403 . S
C1587 C1588 1.524 1_565 S
C1587 C1591 1.400 . S
C1588 H1573 0.960 . S
C1588 H1574 0.960 . S
C1588 H1575 0.960 . S
C1588 C1587 1.524 1_545 S
C1589 C1586 1.403 . S
C1589 C1590 1.392 . S
C1589 C1593 1.495 . S
C1590 C1589 1.392 . S
C1590 C1591 1.385 . S
C1590 C1592 1.478 . S
C1591 H1585 0.946 . S
C1591 C1587 1.400 . S
C1591 C1590 1.385 . S
C1592 C1590 1.478 . S
C1592 C1594 1.381 . S
C1592 C1598 1.383 . S
C1593 C1589 1.495 . S
C1593 H1599 0.959 . S
C1593 H1600 0.961 . S
C1593 H1601 0.960 . S
C1594 C1592 1.381 . S
C1594 C1595 1.394 . S
C1594 H1602 0.930 . S
C1595 C1594 1.394 . S
C1595 C1596 1.383 . S
C1595 H1603 0.929 . S
C1596 C1595 1.383 . S
C1596 C1597 1.377 . S
C1597 H1581 0.930 . S
C1597 C1596 1.377 . S
C1597 C1598 1.379 . S
C1598 H1582 0.931 . S
C1598 C1592 1.383 . S
C1598 C1597 1.379 . S
H1599 C1593 0.959 . S
H1600 C1593 0.961 . S
H1601 C1593 0.960 . S
H1602 C1594 0.930 . S
H1603 C1595 0.929 . S
H1604 C1612 0.929 . S
H1605 C1614 0.930 . S
H1606 C1616 0.930 . S
H1607 C1619 0.929 . S
H1608 C1622 0.930 . S
H1609 C1624 0.960 . S
H1610 C1624 0.960 . S
H1611 C1624 0.960 . S
C1612 H1604 0.929 . S
C1612 C1613 1.377 . S
C1612 C1614 1.384 . S
C1613 C1612 1.377 . S
C1613 C1619 1.390 . S
C1614 H1605 0.930 . S
C1614 C1612 1.384 . S
C1614 C1615 1.372 . S
C1615 C1614 1.372 . S
C1615 C1616 1.400 . S
C1615 C1620 1.490 . S
C1616 H1606 0.930 . S
C1616 C1615 1.400 . S
C1616 C1619 1.386 . S
H1617 C1633 0.930 . S
H1618 C1634 0.931 . S
C1619 H1607 0.929 . S
C1619 C1613 1.390 . S
C1619 C1616 1.386 . S
C1620 C1615 1.490 . S
C1620 C1622 1.395 . S
C1620 C1623 1.403 . S
H1621 C1627 0.930 . S
C1622 H1608 0.930 . S
C1622 C1620 1.395 . S
C1622 C1625 1.403 . S
C1623 C1620 1.403 . S
C1623 C1624 1.524 . S
C1623 C1627 1.400 . S
C1624 H1609 0.960 . S
C1624 H1610 0.960 . S
C1624 H1611 0.960 . S
C1624 C1623 1.524 . S
C1625 C1622 1.403 . S
C1625 C1626 1.392 . S
C1625 C1629 1.495 . S
C1626 C1625 1.392 . S
C1626 C1627 1.385 . S
C1626 C1628 1.478 . S
C1627 H1621 0.930 . S
C1627 C1623 1.400 . S
C1627 C1626 1.385 . S
C1628 C1626 1.478 . S
C1628 C1630 1.381 . S
C1628 C1634 1.383 . S
C1629 C1625 1.495 . S
C1629 H1635 0.959 . S
C1629 H1636 0.961 . S
C1629 H1637 0.960 . S
C1630 C1628 1.381 . S
C1630 C1631 1.394 . S
C1630 H1638 0.930 . S
C1631 C1630 1.394 . S
C1631 C1632 1.383 . S
C1631 H1639 0.929 . S
C1632 C1631 1.383 . S
C1632 C1633 1.377 . S
C1633 H1617 0.930 . S
C1633 C1632 1.377 . S
C1633 C1634 1.379 . S
C1634 H1618 0.931 . S
C1634 C1628 1.383 . S
C1634 C1633 1.379 . S
H1635 C1629 0.959 . S
H1636 C1629 0.961 . S
H1637 C1629 0.960 . S
H1638 C1630 0.930 . S
H1639 C1631 0.929 . S
H1640 C1648 0.929 . S
H1641 C1650 0.930 . S
H1642 C1652 0.930 . S
H1643 C1655 0.929 . S
H1644 C1658 0.930 . S
H1645 C1660 0.960 . S
H1646 C1660 0.960 . S
H1647 C1660 0.960 . S
C1648 H1640 0.929 . S
C1648 C1649 1.377 . S
C1648 C1650 1.384 . S
C1649 C1648 1.377 . S
C1649 C1655 1.390 . S
C1650 H1641 0.930 . S
C1650 C1648 1.384 . S
C1650 C1651 1.372 . S
C1651 C1650 1.372 . S
C1651 C1652 1.400 . S
C1651 C1656 1.490 . S
C1652 H1642 0.930 . S
C1652 C1651 1.400 . S
C1652 C1655 1.386 . S
H1653 C1669 0.930 . S
H1654 C1670 0.931 . S
C1655 H1643 0.929 . S
C1655 C1649 1.390 . S
C1655 C1652 1.386 . S
C1656 C1651 1.490 . S
C1656 C1658 1.395 . S
C1656 C1659 1.403 . S
H1657 C1663 0.930 . S
C1658 H1644 0.930 . S
C1658 C1656 1.395 . S
C1658 C1661 1.403 . S
C1659 C1656 1.403 . S
C1659 C1660 1.524 . S
C1659 C1663 1.400 . S
C1660 H1645 0.960 . S
C1660 H1646 0.960 . S
C1660 H1647 0.960 . S
C1660 C1659 1.524 . S
C1661 C1658 1.403 . S
C1661 C1662 1.392 . S
C1661 C1665 1.495 . S
C1662 C1661 1.392 . S
C1662 C1663 1.385 . S
C1662 C1664 1.478 . S
C1663 H1657 0.930 . S
C1663 C1659 1.400 . S
C1663 C1662 1.385 . S
C1664 C1662 1.478 . S
C1664 C1666 1.381 . S
C1664 C1670 1.383 . S
C1665 C1661 1.495 . S
C1665 H1671 0.959 . S
C1665 H1672 0.961 . S
C1665 H1673 0.960 . S
C1666 C1664 1.381 . S
C1666 C1667 1.394 . S
C1666 H1674 0.930 . S
C1667 C1666 1.394 . S
C1667 C1668 1.383 . S
C1667 H1675 0.929 . S
C1668 C1667 1.383 . S
C1668 C1669 1.377 . S
C1669 H1653 0.930 . S
C1669 C1668 1.377 . S
C1669 C1670 1.379 . S
C1670 H1654 0.931 . S
C1670 C1664 1.383 . S
C1670 C1669 1.379 . S
H1671 C1665 0.959 . S
H1672 C1665 0.961 . S
H1673 C1665 0.960 . S
H1674 C1666 0.930 . S
H1675 C1667 0.929 . S
H1676 C1684 0.929 . S
H1677 C1686 0.930 . S
H1678 C1688 0.930 . S
H1679 C1691 0.929 . S
H1680 C1694 0.930 . S
H1681 C1696 0.960 . S
H1682 C1696 0.960 . S
H1683 C1696 0.960 . S
C1684 H1676 0.929 . S
C1684 C1685 1.377 1_455 S
C1684 C1686 1.384 . S
C1685 C1684 1.377 1_655 S
C1685 C1691 1.390 . S
C1686 H1677 0.930 . S
C1686 C1684 1.384 . S
C1686 C1687 1.372 1_455 S
C1687 C1686 1.372 1_655 S
C1687 C1688 1.400 . S
C1687 C1692 1.490 . S
C1688 H1678 0.930 . S
C1688 C1687 1.400 . S
C1688 C1691 1.386 . S
H1689 C1705 0.930 . S
H1690 C1706 0.931 . S
C1691 H1679 0.929 . S
C1691 C1685 1.390 . S
C1691 C1688 1.386 . S
C1692 C1687 1.490 . S
C1692 C1694 1.395 1_655 S
C1692 C1695 1.403 . S
H1693 C1699 0.930 . S
C1694 H1680 0.930 . S
C1694 C1692 1.395 1_455 S
C1694 C1697 1.402 1_455 S
C1695 C1692 1.403 . S
C1695 C1696 1.524 . S
C1695 C1699 1.400 . S
C1696 H1681 0.960 . S
C1696 H1682 0.960 . S
C1696 H1683 0.960 . S
C1696 C1695 1.524 . S
C1697 C1694 1.402 1_655 S
C1697 C1698 1.407 . S
C1697 C1701 1.483 1_655 S
C1698 C1697 1.407 . S
C1698 C1699 1.385 . S
C1698 C1700 1.478 . S
C1699 H1693 0.930 . S
C1699 C1695 1.400 . S
C1699 C1698 1.385 . S
C1700 C1698 1.478 . S
C1700 C1702 1.381 . S
C1700 C1706 1.383 . S
C1701 C1697 1.483 1_455 S
C1701 H1707 0.959 . S
C1701 H1708 0.961 . S
C1701 H1709 0.960 . S
C1702 C1700 1.381 . S
C1702 C1703 1.394 . S
C1702 H1710 0.930 1_655 S
C1703 C1702 1.394 . S
C1703 C1704 1.383 . S
C1703 H1711 0.929 1_655 S
C1704 C1703 1.383 . S
C1704 C1705 1.377 . S
C1705 H1689 0.930 . S
C1705 C1704 1.377 . S
C1705 C1706 1.379 . S
C1706 H1690 0.931 . S
C1706 C1700 1.383 . S
C1706 C1705 1.379 . S
H1707 C1701 0.959 . S
H1708 C1701 0.961 . S
H1709 C1701 0.960 . S
H1710 C1702 0.930 1_455 S
H1711 C1703 0.929 1_455 S
H1712 C1720 0.929 . S
H1713 C1722 0.930 . S
H1714 C1724 0.930 1_556 S
H1715 C1727 0.929 1_556 S
H1716 C1730 0.930 . S
H1717 C1732 0.960 . S
H1718 C1732 0.960 . S
H1719 C1732 0.960 . S
C1720 H1712 0.929 . S
C1720 C1721 1.377 . S
C1720 C1722 1.384 . S
C1721 C1720 1.377 . S
C1721 C1727 1.390 1_545 S
C1722 H1713 0.930 . S
C1722 C1720 1.384 . S
C1722 C1723 1.372 . S
C1723 C1722 1.372 . S
C1723 C1724 1.400 1_545 S
C1723 C1728 1.490 . S
C1724 H1714 0.930 1_554 S
C1724 C1723 1.400 1_565 S
C1724 C1727 1.386 . S
H1725 C1741 0.930 . S
H1726 C1742 0.931 . S
C1727 H1715 0.929 1_554 S
C1727 C1721 1.390 1_565 S
C1727 C1724 1.386 . S
C1728 C1723 1.490 . S
C1728 C1730 1.395 1_545 S
C1728 C1731 1.403 . S
H1729 C1735 0.930 1_556 S
C1730 H1716 0.930 . S
C1730 C1728 1.395 1_565 S
C1730 C1733 1.403 . S
C1731 C1728 1.403 . S
C1731 C1732 1.524 1_554 S
C1731 C1735 1.400 . S
C1732 H1717 0.960 . S
C1732 H1718 0.960 . S
C1732 H1719 0.960 . S
C1732 C1731 1.524 1_556 S
C1733 C1730 1.403 . S
C1733 C1734 1.396 . S
C1733 C1737 1.495 . S
C1734 C1733 1.396 . S
C1734 C1735 1.381 1_565 S
C1734 C1736 1.478 . S
C1735 H1729 0.930 1_554 S
C1735 C1731 1.400 . S
C1735 C1734 1.381 1_545 S
C1736 C1734 1.478 . S
C1736 C1738 1.338 1_565 S
C1736 C1742 1.426 . S
C1737 C1733 1.495 . S
C1737 H1743 0.959 . S
C1737 H1744 0.961 . S
C1737 H1745 0.960 . S
C1738 C1736 1.338 1_545 S
C1738 C1739 1.394 . S
C1738 H1746 0.930 . S
C1739 C1738 1.394 . S
C1739 C1740 1.352 1_545 S
C1739 H1747 0.929 . S
C1740 C1739 1.352 1_565 S
C1740 C1741 1.410 . S
C1741 H1725 0.930 . S
C1741 C1740 1.410 . S
C1741 C1742 1.379 . S
C1742 H1726 0.931 . S
C1742 C1736 1.426 . S
C1742 C1741 1.379 . S
H1743 C1737 0.959 . S
H1744 C1737 0.961 . S
H1745 C1737 0.960 . S
H1746 C1738 0.930 . S
H1747 C1739 0.929 . S
H1748 C1756 0.929 . S
H1749 C1758 0.930 . S
H1750 C1760 0.930 . S
H1751 C1763 0.929 . S
H1752 C1766 0.930 . S
H1753 C1768 0.960 . S
H1754 C1768 0.960 . S
H1755 C1768 0.960 . S
C1756 H1748 0.929 . S
C1756 C1757 1.377 . S
C1756 C1758 1.384 . S
C1757 C1756 1.377 . S
C1757 C1763 1.390 . S
C1758 H1749 0.930 . S
C1758 C1756 1.384 . S
C1758 C1759 1.372 . S
C1759 C1758 1.372 . S
C1759 C1760 1.400 . S
C1759 C1764 1.490 . S
C1760 H1750 0.930 . S
C1760 C1759 1.400 . S
C1760 C1763 1.386 . S
H1761 C1777 0.930 . S
H1762 C1778 0.931 . S
C1763 H1751 0.929 . S
C1763 C1757 1.390 . S
C1763 C1760 1.386 . S
C1764 C1759 1.490 . S
C1764 C1766 1.395 . S
C1764 C1767 1.403 . S
H1765 C1771 0.930 . S
C1766 H1752 0.930 . S
C1766 C1764 1.395 . S
C1766 C1769 1.403 . S
C1767 C1764 1.403 . S
C1767 C1768 1.524 . S
C1767 C1771 1.400 . S
C1768 H1753 0.960 . S
C1768 H1754 0.960 . S
C1768 H1755 0.960 . S
C1768 C1767 1.524 . S
C1769 C1766 1.403 . S
C1769 C1770 1.392 . S
C1769 C1773 1.495 . S
C1770 C1769 1.392 . S
C1770 C1771 1.385 . S
C1770 C1772 1.478 . S
C1771 H1765 0.930 . S
C1771 C1767 1.400 . S
C1771 C1770 1.385 . S
C1772 C1770 1.478 . S
C1772 C1774 1.381 . S
C1772 C1778 1.383 . S
C1773 C1769 1.495 . S
C1773 H1779 0.959 . S
C1773 H1780 0.961 . S
C1773 H1781 0.960 . S
C1774 C1772 1.381 . S
C1774 C1775 1.394 . S
C1774 H1782 0.930 1_556 S
C1775 C1774 1.394 . S
C1775 C1776 1.383 . S
C1775 H1783 0.929 1_556 S
C1776 C1775 1.383 . S
C1776 C1777 1.377 . S
C1777 H1761 0.930 . S
C1777 C1776 1.377 . S
C1777 C1778 1.379 . S
C1778 H1762 0.931 . S
C1778 C1772 1.383 . S
C1778 C1777 1.379 . S
H1779 C1773 0.959 . S
H1780 C1773 0.961 . S
H1781 C1773 0.960 . S
H1782 C1774 0.930 1_554 S
H1783 C1775 0.929 1_554 S
H1784 C1792 0.929 . S
H1785 C1794 0.919 1_455 S
H1786 C1796 0.930 . S
H1787 C1799 0.929 . S
H1788 C1802 0.930 . S
H1789 C1804 0.960 . S
H1790 C1804 0.960 . S
H1791 C1804 0.960 . S
C1792 H1784 0.929 . S
C1792 C1793 1.377 . S
C1792 C1794 1.384 . S
C1793 C1792 1.377 . S
C1793 C1799 1.390 1_554 S
C1794 H1785 0.919 1_655 S
C1794 C1792 1.384 . S
C1794 C1795 1.372 1_655 S
C1795 C1794 1.372 1_455 S
C1795 C1796 1.400 1_554 S
C1795 C1800 1.490 . S
C1796 H1786 0.930 . S
C1796 C1795 1.400 1_556 S
C1796 C1799 1.386 1_455 S
H1797 C1813 0.930 . S
H1798 C1814 0.931 . S
C1799 H1787 0.929 . S
C1799 C1793 1.390 1_556 S
C1799 C1796 1.386 1_655 S
C1800 C1795 1.490 . S
C1800 C1802 1.395 . S
C1800 C1803 1.403 . S
H1801 C1807 0.930 . S
C1802 H1788 0.930 . S
C1802 C1800 1.395 . S
C1802 C1805 1.403 . S
C1803 C1800 1.403 . S
C1803 C1804 1.524 . S
C1803 C1807 1.400 . S
C1804 H1789 0.960 . S
C1804 H1790 0.960 . S
C1804 H1791 0.960 . S
C1804 C1803 1.524 . S
C1805 C1802 1.403 . S
C1805 C1806 1.392 . S
C1805 C1809 1.495 1_554 S
C1806 C1805 1.392 . S
C1806 C1807 1.385 . S
C1806 C1808 1.478 . S
C1807 H1801 0.930 . S
C1807 C1803 1.400 . S
C1807 C1806 1.385 . S
C1808 C1806 1.478 . S
C1808 C1810 1.381 . S
C1808 C1814 1.383 1_554 S
C1809 C1805 1.495 1_556 S
C1809 H1815 0.959 . S
C1809 H1816 0.961 . S
C1809 H1817 0.960 1_556 S
C1810 C1808 1.381 . S
C1810 C1811 1.394 . S
C1810 H1818 0.930 . S
C1811 C1810 1.394 . S
C1811 C1812 1.383 . S
C1811 H1819 0.929 . S
C1812 C1811 1.383 . S
C1812 C1813 1.377 1_554 S
C1813 H1797 0.930 . S
C1813 C1812 1.377 1_556 S
C1813 C1814 1.379 . S
C1814 H1798 0.931 . S
C1814 C1808 1.383 1_556 S
C1814 C1813 1.379 . S
H1815 C1809 0.959 . S
H1816 C1809 0.961 . S
H1817 C1809 0.960 1_554 S
H1818 C1810 0.930 . S
H1819 C1811 0.929 . S
H1820 C1828 0.929 . S
H1821 C1830 0.930 . S
H1822 C1832 0.930 . S
H1823 C1835 0.929 . S
H1824 C1838 0.930 1_554 S
H1825 C1840 0.960 . S
H1826 C1840 0.960 . S
H1827 C1840 0.960 . S
C1828 H1820 0.929 . S
C1828 C1829 1.378 1_455 S
C1828 C1830 1.384 . S
C1829 C1828 1.378 1_655 S
C1829 C1835 1.389 . S
C1830 H1821 0.930 . S
C1830 C1828 1.384 . S
C1830 C1831 1.412 . S
C1831 C1830 1.412 . S
C1831 C1832 1.360 1_455 S
C1831 C1836 1.490 . S
C1832 H1822 0.930 . S
C1832 C1831 1.360 1_655 S
C1832 C1835 1.386 . S
H1833 C1849 0.930 . S
H1834 C1850 0.931 . S
C1835 H1823 0.929 . S
C1835 C1829 1.389 . S
C1835 C1832 1.386 . S
C1836 C1831 1.490 . S
C1836 C1838 1.395 . S
C1836 C1839 1.403 1_455 S
H1837 C1843 0.930 . S
C1838 H1824 0.930 1_556 S
C1838 C1836 1.395 . S
C1838 C1841 1.403 1_545 S
C1839 C1836 1.403 1_655 S
C1839 C1840 1.524 . S
C1839 C1843 1.400 1_545 S
C1840 H1825 0.960 . S
C1840 H1826 0.960 . S
C1840 H1827 0.960 . S
C1840 C1839 1.524 . S
C1841 C1838 1.403 1_565 S
C1841 C1842 1.392 . S
C1841 C1845 1.495 1_556 S
C1842 C1841 1.392 . S
C1842 C1843 1.385 1_455 S
C1842 C1844 1.478 . S
C1843 H1837 0.930 . S
C1843 C1839 1.400 1_565 S
C1843 C1842 1.385 1_655 S
C1844 C1842 1.478 . S
C1844 C1846 1.381 . S
C1844 C1850 1.383 1_455 S
C1845 C1841 1.495 1_554 S
C1845 H1851 0.959 . S
C1845 H1852 0.961 . S
C1845 H1853 0.960 . S
C1846 C1844 1.381 . S
C1846 C1847 1.394 . S
C1846 H1854 0.930 . S
C1847 C1846 1.394 . S
C1847 C1848 1.392 . S
C1847 H1855 0.929 . S
C1848 C1847 1.392 . S
C1848 C1849 1.369 1_455 S
C1849 H1833 0.930 . S
C1849 C1848 1.369 1_655 S
C1849 C1850 1.379 . S
C1850 H1834 0.931 . S
C1850 C1844 1.383 1_655 S
C1850 C1849 1.379 . S
H1851 C1845 0.959 . S
H1852 C1845 0.961 . S
H1853 C1845 0.960 . S
H1854 C1846 0.930 . S
H1855 C1847 0.929 . S
H1856 C1864 0.929 . S
H1857 C1866 0.922 1_655 S
H1858 C1868 0.942 . S
H1859 C1871 0.929 . S
H1860 C1874 0.930 . S
H1861 C1876 0.960 . S
H1862 C1876 0.960 1_565 S
H1863 C1876 0.960 . S
C1864 H1856 0.929 . S
C1864 C1865 1.377 . S
C1864 C1866 1.401 . S
C1865 C1864 1.377 . S
C1865 C1871 1.390 1_565 S
C1866 H1857 0.922 1_455 S
C1866 C1864 1.401 . S
C1866 C1867 1.363 1_455 S
C1867 C1866 1.363 1_655 S
C1867 C1868 1.411 1_565 S
C1867 C1872 1.490 . S
C1868 H1858 0.942 . S
C1868 C1867 1.411 1_545 S
C1868 C1871 1.362 1_655 S
H1869 C1885 0.930 . S
H1870 C1886 0.931 . S
C1871 H1859 0.929 . S
C1871 C1865 1.390 1_545 S
C1871 C1868 1.362 1_455 S
C1872 C1867 1.490 . S
C1872 C1874 1.395 . S
C1872 C1875 1.403 1_565 S
H1873 C1879 0.930 . S
C1874 H1860 0.930 . S
C1874 C1872 1.395 . S
C1874 C1877 1.403 . S
C1875 C1872 1.403 1_545 S
C1875 C1876 1.524 . S
C1875 C1879 1.400 . S
C1876 H1861 0.960 . S
C1876 H1862 0.960 1_545 S
C1876 H1863 0.960 . S
C1876 C1875 1.524 . S
C1877 C1874 1.403 . S
C1877 C1878 1.392 . S
C1877 C1881 1.495 . S
C1878 C1877 1.392 . S
C1878 C1879 1.385 1_565 S
C1878 C1880 1.478 . S
C1879 H1873 0.930 . S
C1879 C1875 1.400 . S
C1879 C1878 1.385 1_545 S
C1880 C1878 1.478 . S
C1880 C1882 1.381 . S
C1880 C1886 1.383 1_565 S
C1881 C1877 1.495 . S
C1881 H1887 0.959 . S
C1881 H1888 0.969 . S
C1881 H1889 0.960 . S
C1882 C1880 1.381 . S
C1882 C1883 1.394 . S
C1882 H1890 0.930 . S
C1883 C1882 1.394 . S
C1883 C1884 1.383 . S
C1883 H1891 0.929 . S
C1884 C1883 1.383 . S
C1884 C1885 1.377 1_565 S
C1885 H1869 0.930 . S
C1885 C1884 1.377 1_545 S
C1885 C1886 1.379 . S
C1886 H1870 0.931 . S
C1886 C1880 1.383 1_545 S
C1886 C1885 1.379 . S
H1887 C1881 0.959 . S
H1888 C1881 0.969 . S
H1889 C1881 0.960 . S
H1890 C1882 0.930 . S
H1891 C1883 0.929 . S
H1892 C1900 0.929 . S
H1893 C1902 0.930 . S
H1894 C1904 0.930 . S
H1895 C1907 0.929 . S
H1896 C1910 0.930 . S
H1897 C1912 0.960 . S
H1898 C1912 0.960 . S
H1899 C1912 0.960 . S
C1900 H1892 0.929 . S
C1900 C1901 1.377 . S
C1900 C1902 1.384 . S
C1901 C1900 1.377 . S
C1901 C1907 1.390 . S
C1902 H1893 0.930 . S
C1902 C1900 1.384 . S
C1902 C1903 1.372 . S
C1903 C1902 1.372 . S
C1903 C1904 1.400 . S
C1903 C1908 1.439 1_565 S
C1904 H1894 0.930 . S
C1904 C1903 1.400 . S
C1904 C1907 1.386 . S
H1905 C1921 0.930 . S
H1906 C1922 0.931 . S
C1907 H1895 0.929 . S
C1907 C1901 1.390 . S
C1907 C1904 1.386 . S
C1908 C1903 1.439 1_545 S
C1908 C1910 1.442 . S
C1908 C1911 1.408 . S
H1909 C1915 0.930 . S
C1910 H1896 0.930 . S
C1910 C1908 1.442 . S
C1910 C1913 1.403 . S
C1911 C1908 1.408 . S
C1911 C1912 1.524 1_545 S
C1911 C1915 1.400 . S
C1912 H1897 0.960 . S
C1912 H1898 0.960 . S
C1912 H1899 0.960 . S
C1912 C1911 1.524 1_565 S
C1913 C1910 1.403 . S
C1913 C1914 1.392 . S
C1913 C1917 1.495 . S
C1914 C1913 1.392 . S
C1914 C1915 1.385 . S
C1914 C1916 1.478 . S
C1915 H1909 0.930 . S
C1915 C1911 1.400 . S
C1915 C1914 1.385 . S
C1916 C1914 1.478 . S
C1916 C1918 1.381 . S
C1916 C1922 1.383 . S
C1917 C1913 1.495 . S
C1917 H1923 0.959 . S
C1917 H1924 0.961 . S
C1917 H1925 0.960 . S
C1918 C1916 1.381 . S
C1918 C1919 1.394 . S
C1918 H1926 0.930 . S
C1919 C1918 1.394 . S
C1919 C1920 1.383 . S
C1919 H1927 0.929 . S
C1920 C1919 1.383 . S
C1920 C1921 1.377 . S
C1921 H1905 0.930 . S
C1921 C1920 1.377 . S
C1921 C1922 1.379 . S
C1922 H1906 0.931 . S
C1922 C1916 1.383 . S
C1922 C1921 1.379 . S
H1923 C1917 0.959 . S
H1924 C1917 0.961 . S
H1925 C1917 0.960 . S
H1926 C1918 0.930 . S
H1927 C1919 0.929 . S
H1928 C1936 0.929 . S
H1929 C1938 0.930 . S
H1930 C1940 0.930 . S
H1931 C1943 0.929 . S
H1932 C1946 0.930 . S
H1933 C1948 0.960 . S
H1934 C1948 0.960 . S
H1935 C1948 0.960 . S
C1936 H1928 0.929 . S
C1936 C1937 1.377 . S
C1936 C1938 1.384 . S
C1937 C1936 1.377 . S
C1937 C1943 1.390 . S
C1938 H1929 0.930 . S
C1938 C1936 1.384 . S
C1938 C1939 1.372 . S
C1939 C1938 1.372 . S
C1939 C1940 1.400 . S
C1939 C1944 1.490 . S
C1940 H1930 0.930 . S
C1940 C1939 1.400 . S
C1940 C1943 1.386 . S
H1941 C1957 0.930 . S
H1942 C1958 0.931 . S
C1943 H1931 0.929 . S
C1943 C1937 1.390 . S
C1943 C1940 1.386 . S
C1944 C1939 1.490 . S
C1944 C1946 1.395 . S
C1944 C1947 1.403 . S
H1945 C1951 0.930 . S
C1946 H1932 0.930 . S
C1946 C1944 1.395 . S
C1946 C1949 1.403 . S
C1947 C1944 1.403 . S
C1947 C1948 1.524 . S
C1947 C1951 1.400 . S
C1948 H1933 0.960 . S
C1948 H1934 0.960 . S
C1948 H1935 0.960 . S
C1948 C1947 1.524 . S
C1949 C1946 1.403 . S
C1949 C1950 1.392 . S
C1949 C1953 1.495 . S
C1950 C1949 1.392 . S
C1950 C1951 1.385 . S
C1950 C1952 1.478 . S
C1951 H1945 0.930 . S
C1951 C1947 1.400 . S
C1951 C1950 1.385 . S
C1952 C1950 1.478 . S
C1952 C1954 1.381 . S
C1952 C1958 1.383 . S
C1953 C1949 1.495 . S
C1953 H1959 0.959 . S
C1953 H1960 0.961 . S
C1953 H1961 0.960 . S
C1954 C1952 1.381 . S
C1954 C1955 1.394 . S
C1954 H1962 0.930 . S
C1955 C1954 1.394 . S
C1955 C1956 1.383 . S
C1955 H1963 0.929 . S
C1956 C1955 1.383 . S
C1956 C1957 1.377 . S
C1957 H1941 0.930 . S
C1957 C1956 1.377 . S
C1957 C1958 1.379 . S
C1958 H1942 0.931 . S
C1958 C1952 1.383 . S
C1958 C1957 1.379 . S
H1959 C1953 0.959 . S
H1960 C1953 0.961 . S
H1961 C1953 0.960 . S
H1962 C1954 0.930 . S
H1963 C1955 0.929 . S
H1964 C1972 0.929 . S
H1965 C1974 0.930 . S
H1966 C1976 0.930 . S
H1967 C1979 0.929 . S
H1968 C1982 0.930 . S
H1969 C1984 0.960 . S
H1970 C1984 0.960 . S
H1971 C1984 0.960 . S
C1972 H1964 0.929 . S
C1972 C1973 1.411 . S
C1972 C1974 1.384 . S
C1973 C1972 1.411 . S
C1973 C1979 1.360 1_655 S
C1974 H1965 0.930 . S
C1974 C1972 1.384 . S
C1974 C1975 1.372 . S
C1975 C1974 1.372 . S
C1975 C1976 1.400 1_655 S
C1975 C1980 1.490 . S
C1976 H1966 0.930 . S
C1976 C1975 1.400 1_455 S
C1976 C1979 1.386 . S
H1977 C1993 0.930 . S
H1978 C1994 0.931 . S
C1979 H1967 0.929 . S
C1979 C1973 1.360 1_455 S
C1979 C1976 1.386 . S
C1980 C1975 1.490 . S
C1980 C1982 1.383 1_655 S
C1980 C1983 1.415 . S
H1981 C1987 0.930 . S
C1982 H1968 0.930 . S
C1982 C1980 1.383 1_455 S
C1982 C1985 1.403 . S
C1983 C1980 1.415 . S
C1983 C1984 1.524 . S
C1983 C1987 1.400 . S
C1984 H1969 0.960 . S
C1984 H1970 0.960 . S
C1984 H1971 0.960 . S
C1984 C1983 1.524 . S
C1985 C1982 1.403 . S
C1985 C1986 1.392 . S
C1985 C1989 1.495 . S
C1986 C1985 1.392 . S
C1986 C1987 1.385 1_455 S
C1986 C1988 1.478 . S
C1987 H1981 0.930 . S
C1987 C1983 1.400 . S
C1987 C1986 1.385 1_655 S
C1988 C1986 1.478 . S
C1988 C1990 1.381 1_455 S
C1988 C1994 1.383 . S
C1989 C1985 1.495 . S
C1989 H1995 0.959 . S
C1989 H1996 0.961 . S
C1989 H1997 0.960 . S
C1990 C1988 1.381 1_655 S
C1990 C1991 1.394 . S
C1990 H1998 0.930 . S
C1991 C1990 1.394 . S
C1991 C1992 1.383 1_655 S
C1991 H1999 0.929 . S
C1992 C1991 1.383 1_455 S
C1992 C1993 1.377 . S
C1993 H1977 0.930 . S
C1993 C1992 1.377 . S
C1993 C1994 1.379 . S
C1994 H1978 0.931 . S
C1994 C1988 1.383 . S
C1994 C1993 1.379 . S
H1995 C1989 0.959 . S
H1996 C1989 0.961 . S
H1997 C1989 0.960 . S
H1998 C1990 0.930 . S
H1999 C1991 0.929 . S
C857 C303 0.598 . S
C876 C29 0.593 . S
C893 C347 1.026 . S
C912 C91 1.045 . S
C929 C135 0.566 . S
C948 C409 0.535 . S
C965 C197 0.076 . S
C984 C241 0.397 . S
C1001 C453 0.674 . S
C1020 C718 0.738 . S
C1037 C771 1.145 . S
C1056 C506 1.149 . S
C1073 C824 0.811 . S
C1092 C559 0.846 . S
C1109 C612 0.417 . S
C1128 C665 0.382 . S
C1145 C22 2.316 . S
C1164 C675 2.352 1_565 S
C1181 C728 2.433 . S
C1200 C92 2.413 . S
C1217 C128 2.833 . S
C1236 C781 2.892 . S
C1253 C198 2.184 . S
C1272 C834 2.189 . S
C1289 C234 2.462 . S
C1308 C463 2.503 1_545 S
C1325 C304 2.752 . S
C1344 C516 2.791 . S
C1361 C340 2.578 . S
C1380 C569 2.605 . S
C1397 C410 1.899 . S
C1416 C622 1.897 1_455 S
C1433 C251 1.526 . S
C1452 C446 1.536 . S
C1469 C287 2.220 . S
C1488 C499 2.186 1_554 S
C1505 C357 2.467 . S
C1524 C552 2.427 . S
C1541 C605 2.065 1_554 S
C1560 C393 2.089 1_455 S
C1577 C39 1.859 1_565 S
C1596 C658 1.859 . S
C1613 C711 2.443 . S
C1632 C75 2.492 . S
C1649 C764 2.023 . S
C1668 C145 2.034 . S
C1685 C181 1.935 1_655 S
C1704 C817 1.911 . S
C1721 C462 1.456 . S
C1740 C38 1.449 . S
C1757 C515 1.992 . S
C1776 C82 1.968 . S
C1793 C144 2.527 . S
C1812 C568 2.499 1_554 S
C1829 C621 1.975 1_655 S
C1848 C188 1.939 . S
C1865 C250 1.995 . S
C1884 C674 1.948 . S
C1901 C727 2.553 . S
C1920 C294 2.502 . S
C1937 C780 1.887 . S
C1956 C356 1.902 . S
C1973 C833 1.478 . S
C1992 C400 1.445 . S
