# Generated by pormake.
# Topology umz, (4)-cn, num edge types: 1
# Building blocks:
#     Node 0, Type 0, BuildingBlock: QUQFOY_clean_sbu_1, # of connection points: 4
#     Node 1, Type 0, BuildingBlock: QUQFOY_clean_sbu_1, # of connection points: 4
#     Node 2, Type 0, BuildingBlock: QUQFOY_clean_sbu_1, # of connection points: 4
#     Node 3, Type 0, BuildingBlock: QUQFOY_clean_sbu_1, # of connection points: 4
#     Node 4, Type 0, BuildingBlock: QUQFOY_clean_sbu_1, # of connection points: 4
#     Node 5, Type 0, BuildingBlock: QUQFOY_clean_sbu_1, # of connection points: 4
#     Node 6, Type 0, BuildingBlock: QUQFOY_clean_sbu_1, # of connection points: 4
#     Node 7, Type 0, BuildingBlock: QUQFOY_clean_sbu_1, # of connection points: 4
#     Node 8, Type 0, BuildingBlock: QUQFOY_clean_sbu_1, # of connection points: 4
#     Node 9, Type 0, BuildingBlock: QUQFOY_clean_sbu_1, # of connection points: 4
#     Node 10, Type 0, BuildingBlock: QUQFOY_clean_sbu_1, # of connection points: 4
#     Node 11, Type 0, BuildingBlock: QUQFOY_clean_sbu_1, # of connection points: 4
#     Node 12, Type 0, BuildingBlock: QUQFOY_clean_sbu_1, # of connection points: 4
#     Node 13, Type 0, BuildingBlock: QUQFOY_clean_sbu_1, # of connection points: 4
#     Node 14, Type 0, BuildingBlock: QUQFOY_clean_sbu_1, # of connection points: 4
#     Node 15, Type 0, BuildingBlock: QUQFOY_clean_sbu_1, # of connection points: 4
#     Edge 16, Type (0, 0), BuildingBlock: EYOCIG_clean_linker_4, # of connection points: 2
#     Edge 17, Type (0, 0), BuildingBlock: EYOCIG_clean_linker_4, # of connection points: 2
#     Edge 18, Type (0, 0), BuildingBlock: EYOCIG_clean_linker_4, # of connection points: 2
#     Edge 19, Type (0, 0), BuildingBlock: EYOCIG_clean_linker_4, # of connection points: 2
#     Edge 20, Type (0, 0), BuildingBlock: EYOCIG_clean_linker_4, # of connection points: 2
#     Edge 21, Type (0, 0), BuildingBlock: EYOCIG_clean_linker_4, # of connection points: 2
#     Edge 22, Type (0, 0), BuildingBlock: EYOCIG_clean_linker_4, # of connection points: 2
#     Edge 23, Type (0, 0), BuildingBlock: EYOCIG_clean_linker_4, # of connection points: 2
#     Edge 24, Type (0, 0), BuildingBlock: EYOCIG_clean_linker_4, # of connection points: 2
#     Edge 25, Type (0, 0), BuildingBlock: EYOCIG_clean_linker_4, # of connection points: 2
#     Edge 26, Type (0, 0), BuildingBlock: EYOCIG_clean_linker_4, # of connection points: 2
#     Edge 27, Type (0, 0), BuildingBlock: EYOCIG_clean_linker_4, # of connection points: 2
#     Edge 28, Type (0, 0), BuildingBlock: EYOCIG_clean_linker_4, # of connection points: 2
#     Edge 29, Type (0, 0), BuildingBlock: EYOCIG_clean_linker_4, # of connection points: 2
#     Edge 30, Type (0, 0), BuildingBlock: EYOCIG_clean_linker_4, # of connection points: 2
#     Edge 31, Type (0, 0), BuildingBlock: EYOCIG_clean_linker_4, # of connection points: 2
#     Edge 32, Type (0, 0), BuildingBlock: EYOCIG_clean_linker_4, # of connection points: 2
#     Edge 33, Type (0, 0), BuildingBlock: EYOCIG_clean_linker_4, # of connection points: 2
#     Edge 34, Type (0, 0), BuildingBlock: EYOCIG_clean_linker_4, # of connection points: 2
#     Edge 35, Type (0, 0), BuildingBlock: EYOCIG_clean_linker_4, # of connection points: 2
#     Edge 36, Type (0, 0), BuildingBlock: EYOCIG_clean_linker_4, # of connection points: 2
#     Edge 37, Type (0, 0), BuildingBlock: EYOCIG_clean_linker_4, # of connection points: 2
#     Edge 38, Type (0, 0), BuildingBlock: EYOCIG_clean_linker_4, # of connection points: 2
#     Edge 39, Type (0, 0), BuildingBlock: EYOCIG_clean_linker_4, # of connection points: 2
#     Edge 40, Type (0, 0), BuildingBlock: EYOCIG_clean_linker_4, # of connection points: 2
#     Edge 41, Type (0, 0), BuildingBlock: EYOCIG_clean_linker_4, # of connection points: 2
#     Edge 42, Type (0, 0), BuildingBlock: EYOCIG_clean_linker_4, # of connection points: 2
#     Edge 43, Type (0, 0), BuildingBlock: EYOCIG_clean_linker_4, # of connection points: 2
#     Edge 44, Type (0, 0), BuildingBlock: EYOCIG_clean_linker_4, # of connection points: 2
#     Edge 45, Type (0, 0), BuildingBlock: EYOCIG_clean_linker_4, # of connection points: 2
#     Edge 46, Type (0, 0), BuildingBlock: EYOCIG_clean_linker_4, # of connection points: 2
#     Edge 47, Type (0, 0), BuildingBlock: EYOCIG_clean_linker_4, # of connection points: 2
# Relax obj value: 0.240
# Max RMSD: 0.194
# Mean RMSD: 0.194
data_MOF--net-umz--node1-QUQFOY_clean_sbu_1--edge1-EYOCIG_clean_linker_4
_symmetry_space_group_name_H-M    P1
_symmetry_Int_Tables_number       1
_symmetry_cell_setting            triclinic
loop_
_symmetry_equiv_pos_as_xyz
'x, y, z'
_cell_length_a     51.273687
_cell_length_b     51.271087
_cell_length_c     18.050898
_cell_angle_alpha  89.979548
_cell_angle_beta   89.992058
_cell_angle_gamma 90.012826
loop_
_atom_site_label
_atom_site_type_symbol
_atom_site_fract_x
_atom_site_fract_y
_atom_site_fract_z
_atom_type_partial_charge
O0 O 0.07969 0.65098 0.0301 0.0
Cd1 Cd 0.05913 0.67048 0.1099 0.0
Cd2 Cd 0.03218 0.62854 0.10742 0.0
O3 O 0.04526 0.62784 -0.00124 0.0
O4 O 0.06591 0.70812 0.09193 0.0
O5 O 0.02762 0.68914 0.07037 0.0
C6 C 0.04256 0.70938 0.06543 0.0
C7 C 0.99046 0.61817 0.14728 0.0
C8 C 0.0683 0.63571 -0.01455 0.0
C9 C 0.06965 0.63413 0.22894 0.0
O10 O 0.0595 0.61803 0.18431 0.0
O11 O 0.06757 0.65855 0.21764 0.0
O12 O 1.00543 0.60081 0.11825 0.0
O13 O 0.99831 0.64209 0.1493 0.0
O14 O 0.878 0.07958 0.52896 0.0
Cd15 Cd 0.85885 0.05923 0.61002 0.0
Cd16 Cd 0.90096 0.03257 0.60681 0.0
O17 O 0.90148 0.04533 0.49803 0.0
O18 O 0.82107 0.06579 0.59358 0.0
O19 O 0.84 0.02743 0.57297 0.0
C20 C 0.81967 0.04226 0.56848 0.0
C21 C 0.91167 0.99116 0.6482 0.0
C22 C 0.89347 0.06831 0.48461 0.0
C23 C 0.89587 0.07064 0.72671 0.0
O24 O 0.91176 0.06028 0.68192 0.0
O25 O 0.87139 0.06836 0.71673 0.0
O26 O 0.92884 1.00602 0.61779 0.0
O27 O 0.88773 0.9989 0.65067 0.0
O28 O 0.44999 0.87763 0.02944 0.0
Cd29 Cd 0.47065 0.85875 0.11043 0.0
Cd30 Cd 0.49698 0.90104 0.10731 0.0
O31 O 0.48398 0.90153 -0.00149 0.0
O32 O 0.46418 0.82096 0.09414 0.0
O33 O 0.5024 0.84007 0.07256 0.0
C34 C 0.48764 0.81968 0.06841 0.0
C35 C 0.53842 0.91132 0.14945 0.0
C36 C 0.46115 0.8931 -0.01517 0.0
C37 C 0.45959 0.89544 0.22845 0.0
O38 O 0.46947 0.91154 0.18334 0.0
O39 O 0.46197 0.87101 0.21776 0.0
O40 O 0.52376 0.92869 0.11912 0.0
O41 O 0.53051 0.88742 0.15105 0.0
O42 O 0.65107 0.44969 0.53025 0.0
Cd43 Cd 0.67063 0.47031 0.60973 0.0
Cd44 Cd 0.6285 0.49683 0.60812 0.0
O45 O 0.62781 0.48408 0.49925 0.0
O46 O 0.70826 0.46373 0.59123 0.0
O47 O 0.68908 0.50194 0.57007 0.0
C48 C 0.70939 0.4871 0.56484 0.0
C49 C 0.61787 0.53822 0.64978 0.0
C50 C 0.63567 0.46104 0.48588 0.0
C51 C 0.63447 0.45904 0.72842 0.0
O52 O 0.61827 0.46908 0.68391 0.0
O53 O 0.65887 0.46156 0.71745 0.0
O54 O 0.6006 0.52332 0.61997 0.0
O55 O 0.64184 0.53052 0.65148 0.0
O56 O 0.07966 0.87839 0.92133 0.0
Cd57 Cd 0.05938 0.85912 0.84049 0.0
Cd58 Cd 0.03252 0.90103 0.84397 0.0
O59 O 0.04517 0.90142 0.95284 0.0
O60 O 0.06632 0.82143 0.85686 0.0
O61 O 0.02781 0.84004 0.87791 0.0
C62 C 0.04283 0.81984 0.88224 0.0
C63 C 0.99113 0.91167 0.80237 0.0
C64 C 0.06824 0.89361 0.96603 0.0
C65 C 0.07053 0.89611 0.72388 0.0
O66 O 0.06026 0.91196 0.76897 0.0
O67 O 0.06825 0.87163 0.73368 0.0
O68 O 1.00592 0.92885 0.833 0.0
O69 O 0.99893 0.88775 0.79983 0.0
O70 O 0.651 0.07985 0.4211 0.0
Cd71 Cd 0.67057 0.05934 0.34148 0.0
Cd72 Cd 0.62859 0.03231 0.34437 0.0
O73 O 0.628 0.04537 0.45303 0.0
O74 O 0.70827 0.06577 0.35981 0.0
O75 O 0.68891 0.02761 0.38075 0.0
C76 C 0.7093 0.04235 0.38597 0.0
C77 C 0.61781 0.99072 0.3041 0.0
C78 C 0.63572 0.06851 0.46582 0.0
C79 C 0.6339 0.06997 0.22325 0.0
O80 O 0.61793 0.05976 0.26812 0.0
O81 O 0.65836 0.0679 0.23398 0.0
O82 O 0.60066 1.00574 0.33393 0.0
O83 O 0.64176 0.99843 0.30149 0.0
O84 O 0.44971 0.65128 0.92082 0.0
Cd85 Cd 0.47044 0.67072 0.8411 0.0
Cd86 Cd 0.49693 0.62857 0.84353 0.0
O87 O 0.48401 0.62795 0.95219 0.0
O88 O 0.46418 0.70845 0.85924 0.0
O89 O 0.50223 0.68898 0.88048 0.0
C90 C 0.48758 0.70943 0.8855 0.0
C91 C 0.53843 0.61777 0.80319 0.0
C92 C 0.46098 0.63587 0.96536 0.0
C93 C 0.45955 0.63437 0.7222 0.0
O94 O 0.46946 0.61821 0.76707 0.0
O95 O 0.4619 0.65878 0.73328 0.0
O96 O 0.52335 0.60058 0.83266 0.0
O97 O 0.53082 0.64176 0.80105 0.0
O98 O 0.8786 0.44992 0.42089 0.0
Cd99 Cd 0.85914 0.47022 0.3405 0.0
Cd100 Cd 0.90108 0.49737 0.34345 0.0
O101 O 0.90185 0.4843 0.45224 0.0
O102 O 0.82147 0.46321 0.35727 0.0
O103 O 0.8401 0.50172 0.37825 0.0
C104 C 0.81989 0.4867 0.38259 0.0
C105 C 0.91111 0.53895 0.30146 0.0
C106 C 0.89399 0.46123 0.46538 0.0
C107 C 0.89593 0.45966 0.22263 0.0
O108 O 0.91189 0.46991 0.26748 0.0
O109 O 0.87148 0.46168 0.23332 0.0
O110 O 0.92855 0.52438 0.33181 0.0
O111 O 0.88727 0.53086 0.29965 0.0
O112 O 0.94988 0.37836 0.92024 0.0
Cd113 Cd 0.97052 0.35876 0.84086 0.0
Cd114 Cd 0.99723 0.40098 0.84197 0.0
O115 O 0.98409 0.40204 0.9505 0.0
O116 O 0.96414 0.32107 0.8597 0.0
O117 O 1.00227 0.34046 0.88048 0.0
C118 C 0.98755 0.32006 0.88585 0.0
C119 C 0.03885 0.41129 0.80113 0.0
C120 C 0.96111 0.39402 0.96412 0.0
C121 C 0.95961 0.39482 0.72116 0.0
O122 O 0.9698 0.41107 0.76523 0.0
O123 O 0.96179 0.37043 0.73293 0.0
O124 O 0.02392 0.42873 0.82998 0.0
O125 O 0.03102 0.38736 0.79994 0.0
O126 O 0.15131 0.95019 0.42135 0.0
Cd127 Cd 0.17045 0.97054 0.34029 0.0
Cd128 Cd 0.12845 0.99734 0.34365 0.0
O129 O 0.12817 0.98462 0.45271 0.0
O130 O 0.20815 0.96353 0.35636 0.0
O131 O 0.18961 1.00202 0.37794 0.0
C132 C 0.20979 0.98697 0.38202 0.0
C133 C 0.11825 0.03874 0.30115 0.0
C134 C 0.13618 0.96164 0.46626 0.0
C135 C 0.13354 0.95969 0.22306 0.0
O136 O 0.11761 0.96971 0.26835 0.0
O137 O 0.158 0.96197 0.2332 0.0
O138 O 0.10089 0.02419 0.33197 0.0
O139 O 0.14212 0.03074 0.29918 0.0
O140 O 0.57979 0.1513 0.92055 0.0
Cd141 Cd 0.55906 0.17083 0.84102 0.0
Cd142 Cd 0.53238 0.12861 0.84285 0.0
O143 O 0.54567 0.12755 0.95115 0.0
O144 O 0.56538 0.20854 0.8596 0.0
O145 O 0.52728 0.18911 0.8805 0.0
C146 C 0.54197 0.20953 0.88574 0.0
C147 C 0.49068 0.11795 0.80357 0.0
C148 C 0.56863 0.13562 0.96458 0.0
C149 C 0.56983 0.13475 0.72133 0.0
O150 O 0.55965 0.11853 0.76555 0.0
O151 O 0.56774 0.15915 0.73308 0.0
O152 O 0.5059 0.10064 0.83185 0.0
O153 O 0.4983 0.14194 0.80189 0.0
O154 O 0.37805 0.57965 0.42057 0.0
Cd155 Cd 0.35886 0.55887 0.3405 0.0
Cd156 Cd 0.40102 0.53211 0.34371 0.0
O157 O 0.402 0.54573 0.45182 0.0
O158 O 0.32106 0.56533 0.35721 0.0
O159 O 0.34018 0.52715 0.37896 0.0
C160 C 0.31979 0.5419 0.38314 0.0
C161 C 0.41136 0.49037 0.30362 0.0
C162 C 0.39381 0.56869 0.46476 0.0
C163 C 0.3956 0.56959 0.22223 0.0
O164 O 0.41163 0.55932 0.26682 0.0
O165 O 0.37116 0.56755 0.2332 0.0
O166 O 0.42871 0.5053 0.33292 0.0
O167 O 0.38744 0.49823 0.30175 0.0
O168 O 0.95007 0.15164 0.02903 0.0
Cd169 Cd 0.97053 0.17065 0.11014 0.0
Cd170 Cd 0.99733 0.12866 0.10643 0.0
O171 O 0.98428 0.12815 -0.0022 0.0
O172 O 0.96406 0.20843 0.09381 0.0
O173 O 1.00234 0.18935 0.07275 0.0
C174 C 0.98757 0.20973 0.06844 0.0
C175 C 0.03898 0.11807 0.14629 0.0
C176 C 0.96135 0.1363 -0.01566 0.0
C177 C 0.95975 0.13379 0.22781 0.0
O178 O 0.96999 0.11788 0.18286 0.0
O179 O 0.96177 0.15825 0.21722 0.0
O180 O 0.02397 0.10083 0.11679 0.0
O181 O 0.03121 0.142 0.14876 0.0
O182 O 0.37849 0.94968 0.53053 0.0
Cd183 Cd 0.35909 0.97028 0.6102 0.0
Cd184 Cd 0.40113 0.99711 0.60768 0.0
O185 O 0.40185 0.98399 0.49907 0.0
O186 O 0.32142 0.96354 0.59246 0.0
O187 O 0.34043 1.00181 0.57075 0.0
C188 C 0.32017 0.98688 0.56586 0.0
C189 C 0.41128 0.03861 0.64989 0.0
C190 C 0.39396 0.96092 0.4861 0.0
C191 C 0.39584 0.95901 0.72749 0.0
O192 O 0.41181 0.96943 0.68299 0.0
O193 O 0.37137 0.96134 0.71729 0.0
O194 O 0.42869 0.02402 0.6195 0.0
O195 O 0.38742 0.03059 0.65163 0.0
O196 O 0.57971 0.37763 0.03058 0.0
Cd197 Cd 0.55876 0.35885 0.1109 0.0
Cd198 Cd 0.53231 0.40112 0.10686 0.0
O199 O 0.5461 0.40192 -0.00129 0.0
O200 O 0.56517 0.32104 0.0947 0.0
O201 O 0.52706 0.34025 0.07237 0.0
C202 C 0.54178 0.31982 0.06849 0.0
C203 C 0.4906 0.41122 0.1479 0.0
C204 C 0.56895 0.39336 -0.01406 0.0
C205 C 0.56963 0.39572 0.22861 0.0
O206 O 0.5595 0.41173 0.18368 0.0
O207 O 0.56746 0.37127 0.218 0.0
O208 O 0.50533 0.42865 0.11805 0.0
O209 O 0.49859 0.38735 0.14956 0.0
O210 O 0.15128 0.57976 0.53029 0.0
Cd211 Cd 0.17058 0.55903 0.61005 0.0
Cd212 Cd 0.12858 0.53213 0.60703 0.0
O213 O 0.12778 0.54556 0.49874 0.0
O214 O 0.20837 0.56533 0.59246 0.0
O215 O 0.18896 0.52727 0.57082 0.0
C216 C 0.20941 0.54195 0.56608 0.0
C217 C 0.11835 0.49041 0.64733 0.0
C218 C 0.13574 0.56862 0.48588 0.0
C219 C 0.13375 0.56984 0.72795 0.0
O220 O 0.1178 0.55942 0.68341 0.0
O221 O 0.15822 0.5678 0.7173 0.0
O222 O 0.10097 0.50524 0.61776 0.0
O223 O 0.14223 0.49837 0.64945 0.0
C224 C 0.03094 0.75242 -0.00782 0.0
C225 C 0.03459 0.73216 0.02473 0.0
C226 C 0.03101 0.77629 0.95276 0.0
C227 C 0.03479 0.79675 0.92138 0.0
C228 C 0.75227 0.03017 0.45886 0.0
C229 C 0.73202 0.03405 0.42647 0.0
C230 C 0.77617 0.03013 0.49815 0.0
C231 C 0.79664 0.03398 0.52943 0.0
C232 C 0.49975 0.77627 -0.00231 0.0
C233 C 0.49589 0.7967 0.02911 0.0
C234 C 0.49976 0.75238 0.95836 0.0
C235 C 0.4959 0.73213 0.92601 0.0
C236 C 0.75236 0.49888 0.49157 0.0
C237 C 0.73211 0.49522 0.5241 0.0
C238 C 0.77627 0.49871 0.45242 0.0
C239 C 0.79676 0.49482 0.42135 0.0
C240 C 0.99972 0.2771 0.95877 0.0
C241 C 0.99586 0.29735 0.92637 0.0
C242 C 0.99974 0.2532 -0.00198 0.0
C243 C 0.99588 0.23273 0.02931 0.0
C244 C 0.27718 0.99854 0.49236 0.0
C245 C 0.29741 0.99485 0.52503 0.0
C246 C 0.25335 0.99856 0.45279 0.0
C247 C 0.23289 0.99489 0.42131 0.0
C248 C 0.52975 0.25251 0.95844 0.0
C249 C 0.53363 0.23225 0.92615 0.0
C250 C 0.52971 0.27642 -0.00233 0.0
C251 C 0.53354 0.29686 0.0291 0.0
C252 C 0.27636 0.52981 0.45407 0.0
C253 C 0.2968 0.53365 0.42257 0.0
C254 C 0.25246 0.52982 0.49339 0.0
C255 C 0.23217 0.53368 0.52567 0.0
C256 C 0.09633 0.61338 0.88071 0.0
C257 C 0.08331 0.62343 0.92833 0.0
C258 C 0.11171 0.59913 0.83005 0.0
C259 C 0.12346 0.58619 0.78541 0.0
C260 C 0.93077 0.11188 0.33085 0.0
C261 C 0.9436 0.12353 0.28574 0.0
C262 C 0.91637 0.09657 0.38136 0.0
C263 C 0.90603 0.08349 0.42836 0.0
C264 C 0.433 0.91479 0.87918 0.0
C265 C 0.446 0.90499 0.92729 0.0
C266 C 0.41771 0.9291 0.82845 0.0
C267 C 0.40605 0.94234 0.7843 0.0
C268 C 0.59862 0.41755 0.33165 0.0
C269 C 0.58579 0.40589 0.2866 0.0
C270 C 0.61293 0.43289 0.38221 0.0
C271 C 0.62317 0.44596 0.42937 0.0
C272 C 0.11168 0.93073 0.1201 0.0
C273 C 0.12334 0.94356 0.16511 0.0
C274 C 0.09636 0.9164 0.0696 0.0
C275 C 0.0833 0.90613 0.0225 0.0
C276 C 0.59869 0.11292 0.61806 0.0
C277 C 0.58598 0.1248 0.66297 0.0
C278 C 0.61285 0.09714 0.56825 0.0
C279 C 0.62308 0.08373 0.5218 0.0
C280 C 0.41739 0.59873 0.11933 0.0
C281 C 0.40575 0.58584 0.16435 0.0
C282 C 0.43273 0.61309 0.06885 0.0
C283 C 0.44582 0.62337 0.02176 0.0
C284 C 0.93066 0.41664 0.61806 0.0
C285 C 0.9434 0.40474 0.66287 0.0
C286 C 0.91659 0.43251 0.56819 0.0
C287 C 0.9065 0.44598 0.5216 0.0
C288 C 0.93294 0.41666 0.06797 0.0
C289 C 0.94599 0.40644 0.02071 0.0
C290 C 0.91769 0.43086 0.11898 0.0
C291 C 0.90613 0.44361 0.16443 0.0
C292 C 0.09995 0.91817 0.62213 0.0
C293 C 0.08692 0.90645 0.66662 0.0
C294 C 0.11419 0.93359 0.57158 0.0
C295 C 0.12406 0.94666 0.52373 0.0
C296 C 0.61207 0.09876 0.11955 0.0
C297 C 0.62369 0.08602 0.16496 0.0
C298 C 0.59683 0.11299 0.06849 0.0
C299 C 0.5838 0.12323 0.02116 0.0
C300 C 0.41647 0.59744 0.56748 0.0
C301 C 0.40623 0.58416 0.52071 0.0
C302 C 0.43072 0.61284 0.61813 0.0
C303 C 0.44348 0.62443 0.66358 0.0
C304 C 0.91789 0.10008 0.82845 0.0
C305 C 0.90617 0.08705 0.78396 0.0
C306 C 0.93325 0.1143 0.8792 0.0
C307 C 0.94627 0.12422 0.92704 0.0
C308 C 0.41664 0.93243 0.38307 0.0
C309 C 0.40643 0.94566 0.42992 0.0
C310 C 0.43085 0.91703 0.33242 0.0
C311 C 0.44357 0.90543 0.287 0.0
C312 C 0.59764 0.41537 0.88194 0.0
C313 C 0.58455 0.40531 0.92945 0.0
C314 C 0.61296 0.42966 0.83121 0.0
C315 C 0.62457 0.44266 0.78636 0.0
C316 C 0.11296 0.59721 0.38312 0.0
C317 C 0.12324 0.58397 0.42987 0.0
C318 C 0.09864 0.61258 0.33259 0.0
C319 C 0.08581 0.62412 0.28723 0.0
C320 C 0.93009 0.58113 0.23876 0.0
C321 C 0.91899 0.56264 0.26545 0.0
C322 C 0.94793 0.59896 0.20739 0.0
C323 C 0.96654 0.61015 0.18175 0.0
C324 C 0.9312 0.94902 0.70955 0.0
C325 C 0.91993 0.96748 0.68345 0.0
C326 C 0.94904 0.93117 0.74075 0.0
C327 C 0.96748 0.91991 0.76695 0.0
C328 C 0.58042 0.93051 0.21254 0.0
C329 C 0.56202 0.91934 0.18565 0.0
C330 C 0.59823 0.94836 0.24393 0.0
C331 C 0.60951 0.96691 0.26955 0.0
C332 C 0.59851 0.58035 0.71148 0.0
C333 C 0.60972 0.5619 0.68516 0.0
C334 C 0.58068 0.59821 0.74267 0.0
C335 C 0.56219 0.6095 0.76848 0.0
C336 C 0.09917 0.44805 0.70848 0.0
C337 C 0.11036 0.46659 0.68243 0.0
C338 C 0.08127 0.43028 0.73988 0.0
C339 C 0.0627 0.4192 0.76608 0.0
C340 C 0.08136 0.09859 0.20643 0.0
C341 C 0.06281 0.10987 0.18081 0.0
C342 C 0.09915 0.08075 0.23788 0.0
C343 C 0.11027 0.06233 0.26481 0.0
C344 C 0.4303 0.08071 0.71286 0.0
C345 C 0.41921 0.06226 0.68603 0.0
C346 C 0.44813 0.09856 0.74418 0.0
C347 C 0.46673 0.10981 0.76958 0.0
C348 C 0.44842 0.43027 0.21051 0.0
C349 C 0.46689 0.41916 0.18379 0.0
C350 C 0.4306 0.44805 0.2423 0.0
C351 C 0.41941 0.46657 0.26849 0.0
loop_
_geom_bond_atom_site_label_1
_geom_bond_atom_site_label_2
_geom_bond_distance
_geom_bond_site_symmetry_2
_ccdc_geom_bond_type
O0 Cd1 2.223 . S
O0 C8 1.315 . S
Cd1 O0 2.223 . S
Cd1 O4 2.297 . S
Cd1 O5 2.439 . S
Cd1 O11 2.240 . S
Cd2 O3 2.240 . S
Cd2 O10 2.223 . S
Cd2 O12 2.297 1_455 S
Cd2 O13 2.439 1_455 S
O3 Cd2 2.240 . S
O3 C8 1.279 . S
O4 Cd1 2.297 . S
O4 C6 1.247 . S
O5 Cd1 2.439 . S
O5 C6 1.208 . S
C6 O4 1.247 . S
C6 O5 1.208 . S
C7 O12 1.247 . S
C7 O13 1.208 . S
C8 O0 1.315 . S
C8 O3 1.279 . S
C9 O10 1.315 . S
C9 O11 1.279 . S
O10 Cd2 2.223 . S
O10 C9 1.315 . S
O11 Cd1 2.240 . S
O11 C9 1.279 . S
O12 Cd2 2.297 1_655 S
O12 C7 1.247 . S
O13 Cd2 2.439 1_655 S
O13 C7 1.208 . S
O14 Cd15 2.223 . S
O14 C22 1.315 . S
Cd15 O14 2.223 . S
Cd15 O18 2.297 . S
Cd15 O19 2.439 . S
Cd15 O25 2.240 . S
Cd16 O17 2.240 . S
Cd16 O24 2.223 . S
Cd16 O26 2.297 1_545 S
Cd16 O27 2.439 1_545 S
O17 Cd16 2.240 . S
O17 C22 1.279 . S
O18 Cd15 2.297 . S
O18 C20 1.247 . S
O19 Cd15 2.439 . S
O19 C20 1.208 . S
C20 O18 1.247 . S
C20 O19 1.208 . S
C21 O26 1.247 . S
C21 O27 1.208 . S
C22 O14 1.315 . S
C22 O17 1.279 . S
C23 O24 1.315 . S
C23 O25 1.279 . S
O24 Cd16 2.223 . S
O24 C23 1.315 . S
O25 Cd15 2.240 . S
O25 C23 1.279 . S
O26 Cd16 2.297 1_565 S
O26 C21 1.247 . S
O27 Cd16 2.439 1_565 S
O27 C21 1.208 . S
O28 Cd29 2.223 . S
O28 C36 1.315 . S
Cd29 O28 2.223 . S
Cd29 O32 2.297 . S
Cd29 O33 2.439 . S
Cd29 O39 2.240 . S
Cd30 O31 2.240 . S
Cd30 O38 2.223 . S
Cd30 O40 2.297 . S
Cd30 O41 2.439 . S
O31 Cd30 2.240 . S
O31 C36 1.279 . S
O32 Cd29 2.297 . S
O32 C34 1.247 . S
O33 Cd29 2.439 . S
O33 C34 1.208 . S
C34 O32 1.247 . S
C34 O33 1.208 . S
C35 O40 1.247 . S
C35 O41 1.208 . S
C36 O28 1.315 . S
C36 O31 1.279 . S
C37 O38 1.315 . S
C37 O39 1.279 . S
O38 Cd30 2.223 . S
O38 C37 1.315 . S
O39 Cd29 2.240 . S
O39 C37 1.279 . S
O40 Cd30 2.297 . S
O40 C35 1.247 . S
O41 Cd30 2.439 . S
O41 C35 1.208 . S
O42 Cd43 2.223 . S
O42 C50 1.315 . S
Cd43 O42 2.223 . S
Cd43 O46 2.297 . S
Cd43 O47 2.439 . S
Cd43 O53 2.240 . S
Cd44 O45 2.240 . S
Cd44 O52 2.223 . S
Cd44 O54 2.297 . S
Cd44 O55 2.439 . S
O45 Cd44 2.240 . S
O45 C50 1.279 . S
O46 Cd43 2.297 . S
O46 C48 1.247 . S
O47 Cd43 2.439 . S
O47 C48 1.208 . S
C48 O46 1.247 . S
C48 O47 1.208 . S
C49 O54 1.247 . S
C49 O55 1.208 . S
C50 O42 1.315 . S
C50 O45 1.279 . S
C51 O52 1.315 . S
C51 O53 1.279 . S
O52 Cd44 2.223 . S
O52 C51 1.315 . S
O53 Cd43 2.240 . S
O53 C51 1.279 . S
O54 Cd44 2.297 . S
O54 C49 1.247 . S
O55 Cd44 2.439 . S
O55 C49 1.208 . S
O56 Cd57 2.223 . S
O56 C64 1.315 . S
Cd57 O56 2.223 . S
Cd57 O60 2.297 . S
Cd57 O61 2.439 . S
Cd57 O67 2.240 . S
Cd58 O59 2.240 . S
Cd58 O66 2.223 . S
Cd58 O68 2.297 1_455 S
Cd58 O69 2.439 1_455 S
O59 Cd58 2.240 . S
O59 C64 1.279 . S
O60 Cd57 2.297 . S
O60 C62 1.247 . S
O61 Cd57 2.439 . S
O61 C62 1.208 . S
C62 O60 1.247 . S
C62 O61 1.208 . S
C63 O68 1.247 . S
C63 O69 1.208 . S
C64 O56 1.315 . S
C64 O59 1.279 . S
C65 O66 1.315 . S
C65 O67 1.279 . S
O66 Cd58 2.223 . S
O66 C65 1.315 . S
O67 Cd57 2.240 . S
O67 C65 1.279 . S
O68 Cd58 2.297 1_655 S
O68 C63 1.247 . S
O69 Cd58 2.439 1_655 S
O69 C63 1.208 . S
O70 Cd71 2.223 . S
O70 C78 1.315 . S
Cd71 O70 2.223 . S
Cd71 O74 2.297 . S
Cd71 O75 2.439 . S
Cd71 O81 2.240 . S
Cd72 O73 2.240 . S
Cd72 O80 2.223 . S
Cd72 O82 2.297 1_545 S
Cd72 O83 2.439 1_545 S
O73 Cd72 2.240 . S
O73 C78 1.279 . S
O74 Cd71 2.297 . S
O74 C76 1.247 . S
O75 Cd71 2.439 . S
O75 C76 1.208 . S
C76 O74 1.247 . S
C76 O75 1.208 . S
C77 O82 1.247 . S
C77 O83 1.208 . S
C78 O70 1.315 . S
C78 O73 1.279 . S
C79 O80 1.315 . S
C79 O81 1.279 . S
O80 Cd72 2.223 . S
O80 C79 1.315 . S
O81 Cd71 2.240 . S
O81 C79 1.279 . S
O82 Cd72 2.297 1_565 S
O82 C77 1.247 . S
O83 Cd72 2.439 1_565 S
O83 C77 1.208 . S
O84 Cd85 2.223 . S
O84 C92 1.315 . S
Cd85 O84 2.223 . S
Cd85 O88 2.297 . S
Cd85 O89 2.439 . S
Cd85 O95 2.240 . S
Cd86 O87 2.240 . S
Cd86 O94 2.223 . S
Cd86 O96 2.297 . S
Cd86 O97 2.439 . S
O87 Cd86 2.240 . S
O87 C92 1.279 . S
O88 Cd85 2.297 . S
O88 C90 1.247 . S
O89 Cd85 2.439 . S
O89 C90 1.208 . S
C90 O88 1.247 . S
C90 O89 1.208 . S
C91 O96 1.247 . S
C91 O97 1.208 . S
C92 O84 1.315 . S
C92 O87 1.279 . S
C93 O94 1.315 . S
C93 O95 1.279 . S
O94 Cd86 2.223 . S
O94 C93 1.315 . S
O95 Cd85 2.240 . S
O95 C93 1.279 . S
O96 Cd86 2.297 . S
O96 C91 1.247 . S
O97 Cd86 2.439 . S
O97 C91 1.208 . S
O98 Cd99 2.223 . S
O98 C106 1.315 . S
Cd99 O98 2.223 . S
Cd99 O102 2.297 . S
Cd99 O103 2.439 . S
Cd99 O109 2.240 . S
Cd100 O101 2.240 . S
Cd100 O108 2.223 . S
Cd100 O110 2.297 . S
Cd100 O111 2.439 . S
O101 Cd100 2.240 . S
O101 C106 1.279 . S
O102 Cd99 2.297 . S
O102 C104 1.247 . S
O103 Cd99 2.439 . S
O103 C104 1.208 . S
C104 O102 1.247 . S
C104 O103 1.208 . S
C105 O110 1.247 . S
C105 O111 1.208 . S
C106 O98 1.315 . S
C106 O101 1.279 . S
C107 O108 1.315 . S
C107 O109 1.279 . S
O108 Cd100 2.223 . S
O108 C107 1.315 . S
O109 Cd99 2.240 . S
O109 C107 1.279 . S
O110 Cd100 2.297 . S
O110 C105 1.247 . S
O111 Cd100 2.439 . S
O111 C105 1.208 . S
O112 Cd113 2.223 . S
O112 C120 1.315 . S
Cd113 O112 2.223 . S
Cd113 O116 2.297 . S
Cd113 O117 2.439 . S
Cd113 O123 2.240 . S
Cd114 O115 2.240 . S
Cd114 O122 2.223 . S
Cd114 O124 2.297 1_655 S
Cd114 O125 2.439 1_655 S
O115 Cd114 2.240 . S
O115 C120 1.279 . S
O116 Cd113 2.297 . S
O116 C118 1.247 . S
O117 Cd113 2.439 . S
O117 C118 1.208 . S
C118 O116 1.247 . S
C118 O117 1.208 . S
C119 O124 1.247 . S
C119 O125 1.208 . S
C120 O112 1.315 . S
C120 O115 1.279 . S
C121 O122 1.315 . S
C121 O123 1.279 . S
O122 Cd114 2.223 . S
O122 C121 1.315 . S
O123 Cd113 2.240 . S
O123 C121 1.279 . S
O124 Cd114 2.297 1_455 S
O124 C119 1.247 . S
O125 Cd114 2.439 1_455 S
O125 C119 1.208 . S
O126 Cd127 2.223 . S
O126 C134 1.315 . S
Cd127 O126 2.223 . S
Cd127 O130 2.297 . S
Cd127 O131 2.439 . S
Cd127 O137 2.240 . S
Cd128 O129 2.240 . S
Cd128 O136 2.223 . S
Cd128 O138 2.297 1_565 S
Cd128 O139 2.439 1_565 S
O129 Cd128 2.240 . S
O129 C134 1.279 . S
O130 Cd127 2.297 . S
O130 C132 1.247 . S
O131 Cd127 2.439 . S
O131 C132 1.208 . S
C132 O130 1.247 . S
C132 O131 1.208 . S
C133 O138 1.247 . S
C133 O139 1.208 . S
C134 O126 1.315 . S
C134 O129 1.279 . S
C135 O136 1.315 . S
C135 O137 1.279 . S
O136 Cd128 2.223 . S
O136 C135 1.315 . S
O137 Cd127 2.240 . S
O137 C135 1.279 . S
O138 Cd128 2.297 1_545 S
O138 C133 1.247 . S
O139 Cd128 2.439 1_545 S
O139 C133 1.208 . S
O140 Cd141 2.223 . S
O140 C148 1.315 . S
Cd141 O140 2.223 . S
Cd141 O144 2.297 . S
Cd141 O145 2.439 . S
Cd141 O151 2.240 . S
Cd142 O143 2.240 . S
Cd142 O150 2.223 . S
Cd142 O152 2.297 . S
Cd142 O153 2.439 . S
O143 Cd142 2.240 . S
O143 C148 1.279 . S
O144 Cd141 2.297 . S
O144 C146 1.247 . S
O145 Cd141 2.439 . S
O145 C146 1.208 . S
C146 O144 1.247 . S
C146 O145 1.208 . S
C147 O152 1.247 . S
C147 O153 1.208 . S
C148 O140 1.315 . S
C148 O143 1.279 . S
C149 O150 1.315 . S
C149 O151 1.279 . S
O150 Cd142 2.223 . S
O150 C149 1.315 . S
O151 Cd141 2.240 . S
O151 C149 1.279 . S
O152 Cd142 2.297 . S
O152 C147 1.247 . S
O153 Cd142 2.439 . S
O153 C147 1.208 . S
O154 Cd155 2.223 . S
O154 C162 1.315 . S
Cd155 O154 2.223 . S
Cd155 O158 2.297 . S
Cd155 O159 2.439 . S
Cd155 O165 2.240 . S
Cd156 O157 2.240 . S
Cd156 O164 2.223 . S
Cd156 O166 2.297 . S
Cd156 O167 2.439 . S
O157 Cd156 2.240 . S
O157 C162 1.279 . S
O158 Cd155 2.297 . S
O158 C160 1.247 . S
O159 Cd155 2.439 . S
O159 C160 1.208 . S
C160 O158 1.247 . S
C160 O159 1.208 . S
C161 O166 1.247 . S
C161 O167 1.208 . S
C162 O154 1.315 . S
C162 O157 1.279 . S
C163 O164 1.315 . S
C163 O165 1.279 . S
O164 Cd156 2.223 . S
O164 C163 1.315 . S
O165 Cd155 2.240 . S
O165 C163 1.279 . S
O166 Cd156 2.297 . S
O166 C161 1.247 . S
O167 Cd156 2.439 . S
O167 C161 1.208 . S
O168 Cd169 2.223 . S
O168 C176 1.315 . S
Cd169 O168 2.223 . S
Cd169 O172 2.297 . S
Cd169 O173 2.439 . S
Cd169 O179 2.240 . S
Cd170 O171 2.240 . S
Cd170 O178 2.223 . S
Cd170 O180 2.297 1_655 S
Cd170 O181 2.439 1_655 S
O171 Cd170 2.240 . S
O171 C176 1.279 . S
O172 Cd169 2.297 . S
O172 C174 1.247 . S
O173 Cd169 2.439 . S
O173 C174 1.208 . S
C174 O172 1.247 . S
C174 O173 1.208 . S
C175 O180 1.247 . S
C175 O181 1.208 . S
C176 O168 1.315 . S
C176 O171 1.279 . S
C177 O178 1.315 . S
C177 O179 1.279 . S
O178 Cd170 2.223 . S
O178 C177 1.315 . S
O179 Cd169 2.240 . S
O179 C177 1.279 . S
O180 Cd170 2.297 1_455 S
O180 C175 1.247 . S
O181 Cd170 2.439 1_455 S
O181 C175 1.208 . S
O182 Cd183 2.223 . S
O182 C190 1.315 . S
Cd183 O182 2.223 . S
Cd183 O186 2.297 . S
Cd183 O187 2.439 . S
Cd183 O193 2.240 . S
Cd184 O185 2.240 . S
Cd184 O192 2.223 . S
Cd184 O194 2.297 1_565 S
Cd184 O195 2.439 1_565 S
O185 Cd184 2.240 . S
O185 C190 1.279 . S
O186 Cd183 2.297 . S
O186 C188 1.247 . S
O187 Cd183 2.439 . S
O187 C188 1.208 . S
C188 O186 1.247 . S
C188 O187 1.208 . S
C189 O194 1.247 . S
C189 O195 1.208 . S
C190 O182 1.315 . S
C190 O185 1.279 . S
C191 O192 1.315 . S
C191 O193 1.279 . S
O192 Cd184 2.223 . S
O192 C191 1.315 . S
O193 Cd183 2.240 . S
O193 C191 1.279 . S
O194 Cd184 2.297 1_545 S
O194 C189 1.247 . S
O195 Cd184 2.439 1_545 S
O195 C189 1.208 . S
O196 Cd197 2.223 . S
O196 C204 1.315 . S
Cd197 O196 2.223 . S
Cd197 O200 2.297 . S
Cd197 O201 2.439 . S
Cd197 O207 2.240 . S
Cd198 O199 2.240 . S
Cd198 O206 2.223 . S
Cd198 O208 2.297 . S
Cd198 O209 2.439 . S
O199 Cd198 2.240 . S
O199 C204 1.279 . S
O200 Cd197 2.297 . S
O200 C202 1.247 . S
O201 Cd197 2.439 . S
O201 C202 1.208 . S
C202 O200 1.247 . S
C202 O201 1.208 . S
C203 O208 1.247 . S
C203 O209 1.208 . S
C204 O196 1.315 . S
C204 O199 1.279 . S
C205 O206 1.315 . S
C205 O207 1.279 . S
O206 Cd198 2.223 . S
O206 C205 1.315 . S
O207 Cd197 2.240 . S
O207 C205 1.279 . S
O208 Cd198 2.297 . S
O208 C203 1.247 . S
O209 Cd198 2.439 . S
O209 C203 1.208 . S
O210 Cd211 2.223 . S
O210 C218 1.315 . S
Cd211 O210 2.223 . S
Cd211 O214 2.297 . S
Cd211 O215 2.439 . S
Cd211 O221 2.240 . S
Cd212 O213 2.240 . S
Cd212 O220 2.223 . S
Cd212 O222 2.297 . S
Cd212 O223 2.439 . S
O213 Cd212 2.240 . S
O213 C218 1.279 . S
O214 Cd211 2.297 . S
O214 C216 1.247 . S
O215 Cd211 2.439 . S
O215 C216 1.208 . S
C216 O214 1.247 . S
C216 O215 1.208 . S
C217 O222 1.247 . S
C217 O223 1.208 . S
C218 O210 1.315 . S
C218 O213 1.279 . S
C219 O220 1.315 . S
C219 O221 1.279 . S
O220 Cd212 2.223 . S
O220 C219 1.315 . S
O221 Cd211 2.240 . S
O221 C219 1.279 . S
O222 Cd212 2.297 . S
O222 C217 1.247 . S
O223 Cd212 2.439 . S
O223 C217 1.208 . S
C224 C225 1.170 . S
C224 C226 1.380 1_554 S
C225 C224 1.170 . S
C226 C224 1.380 1_556 S
C226 C227 1.170 . S
C227 C226 1.170 . S
C228 C229 1.170 . S
C228 C230 1.380 . S
C229 C228 1.170 . S
C230 C228 1.380 . S
C230 C231 1.170 . S
C231 C230 1.170 . S
C232 C233 1.170 . S
C232 C234 1.380 1_554 S
C233 C232 1.170 . S
C234 C232 1.380 1_556 S
C234 C235 1.170 . S
C235 C234 1.170 . S
C236 C237 1.170 . S
C236 C238 1.380 . S
C237 C236 1.170 . S
C238 C236 1.380 . S
C238 C239 1.170 . S
C239 C238 1.170 . S
C240 C241 1.170 . S
C240 C242 1.380 1_556 S
C241 C240 1.170 . S
C242 C240 1.380 1_554 S
C242 C243 1.170 . S
C243 C242 1.170 . S
C244 C245 1.170 . S
C244 C246 1.380 . S
C245 C244 1.170 . S
C246 C244 1.380 . S
C246 C247 1.170 . S
C247 C246 1.170 . S
C248 C249 1.170 . S
C248 C250 1.380 1_556 S
C249 C248 1.170 . S
C250 C248 1.380 1_554 S
C250 C251 1.170 . S
C251 C250 1.170 . S
C252 C253 1.170 . S
C252 C254 1.380 . S
C253 C252 1.170 . S
C254 C252 1.380 . S
C254 C255 1.170 . S
C255 C254 1.170 . S
C256 C257 1.170 . S
C256 C258 1.380 . S
C257 C256 1.170 . S
C258 C256 1.380 . S
C258 C259 1.170 . S
C259 C258 1.170 . S
C260 C261 1.170 . S
C260 C262 1.380 . S
C261 C260 1.170 . S
C262 C260 1.380 . S
C262 C263 1.170 . S
C263 C262 1.170 . S
C264 C265 1.170 . S
C264 C266 1.380 . S
C265 C264 1.170 . S
C266 C264 1.380 . S
C266 C267 1.170 . S
C267 C266 1.170 . S
C268 C269 1.170 . S
C268 C270 1.380 . S
C269 C268 1.170 . S
C270 C268 1.380 . S
C270 C271 1.170 . S
C271 C270 1.170 . S
C272 C273 1.170 . S
C272 C274 1.380 . S
C273 C272 1.170 . S
C274 C272 1.380 . S
C274 C275 1.170 . S
C275 C274 1.170 . S
C276 C277 1.170 . S
C276 C278 1.380 . S
C277 C276 1.170 . S
C278 C276 1.380 . S
C278 C279 1.170 . S
C279 C278 1.170 . S
C280 C281 1.170 . S
C280 C282 1.380 . S
C281 C280 1.170 . S
C282 C280 1.380 . S
C282 C283 1.170 . S
C283 C282 1.170 . S
C284 C285 1.170 . S
C284 C286 1.380 . S
C285 C284 1.170 . S
C286 C284 1.380 . S
C286 C287 1.170 . S
C287 C286 1.170 . S
C288 C289 1.170 . S
C288 C290 1.380 . S
C289 C288 1.170 . S
C290 C288 1.380 . S
C290 C291 1.170 . S
C291 C290 1.170 . S
C292 C293 1.170 . S
C292 C294 1.380 . S
C293 C292 1.170 . S
C294 C292 1.380 . S
C294 C295 1.170 . S
C295 C294 1.170 . S
C296 C297 1.170 . S
C296 C298 1.380 . S
C297 C296 1.170 . S
C298 C296 1.380 . S
C298 C299 1.170 . S
C299 C298 1.170 . S
C300 C301 1.170 . S
C300 C302 1.380 . S
C301 C300 1.170 . S
C302 C300 1.380 . S
C302 C303 1.170 . S
C303 C302 1.170 . S
C304 C305 1.170 . S
C304 C306 1.380 . S
C305 C304 1.170 . S
C306 C304 1.380 . S
C306 C307 1.170 . S
C307 C306 1.170 . S
C308 C309 1.170 . S
C308 C310 1.380 . S
C309 C308 1.170 . S
C310 C308 1.380 . S
C310 C311 1.170 . S
C311 C310 1.170 . S
C312 C313 1.170 . S
C312 C314 1.380 . S
C313 C312 1.170 . S
C314 C312 1.380 . S
C314 C315 1.170 . S
C315 C314 1.170 . S
C316 C317 1.170 . S
C316 C318 1.380 . S
C317 C316 1.170 . S
C318 C316 1.380 . S
C318 C319 1.170 . S
C319 C318 1.170 . S
C320 C321 1.170 . S
C320 C322 1.380 . S
C321 C320 1.170 . S
C322 C320 1.380 . S
C322 C323 1.170 . S
C323 C322 1.170 . S
C324 C325 1.170 . S
C324 C326 1.380 . S
C325 C324 1.170 . S
C326 C324 1.380 . S
C326 C327 1.170 . S
C327 C326 1.170 . S
C328 C329 1.170 . S
C328 C330 1.380 . S
C329 C328 1.170 . S
C330 C328 1.380 . S
C330 C331 1.170 . S
C331 C330 1.170 . S
C332 C333 1.170 . S
C332 C334 1.380 . S
C333 C332 1.170 . S
C334 C332 1.380 . S
C334 C335 1.170 . S
C335 C334 1.170 . S
C336 C337 1.170 . S
C336 C338 1.380 . S
C337 C336 1.170 . S
C338 C336 1.380 . S
C338 C339 1.170 . S
C339 C338 1.170 . S
C340 C341 1.170 . S
C340 C342 1.380 . S
C341 C340 1.170 . S
C342 C340 1.380 . S
C342 C343 1.170 . S
C343 C342 1.170 . S
C344 C345 1.170 . S
C344 C346 1.380 . S
C345 C344 1.170 . S
C346 C344 1.380 . S
C346 C347 1.170 . S
C347 C346 1.170 . S
C348 C349 1.170 . S
C348 C350 1.380 . S
C349 C348 1.170 . S
C350 C348 1.380 . S
C350 C351 1.170 . S
C351 C350 1.170 . S
C225 C6 1.100 . S
C227 C62 1.074 . S
C229 C76 1.123 . S
C231 C20 1.096 . S
C233 C34 1.100 . S
C235 C90 1.124 . S
C237 C48 1.108 . S
C239 C104 1.077 . S
C241 C118 1.117 . S
C243 C174 1.114 . S
C245 C188 1.086 . S
C247 C132 1.083 . S
C249 C146 1.119 . S
C251 C202 1.116 . S
C253 C160 1.118 . S
C255 C216 1.121 . S
C257 C8 1.699 1_556 S
C259 C219 1.664 . S
C261 C177 1.665 . S
C263 C22 1.700 . S
C265 C36 1.698 1_556 S
C267 C191 1.675 . S
C269 C205 1.665 . S
C271 C50 1.701 . S
C273 C135 1.664 . S
C275 C64 1.700 1_554 S
C277 C149 1.675 . S
C279 C78 1.704 . S
C281 C163 1.665 . S
C283 C92 1.701 1_554 S
C285 C121 1.679 . S
C287 C106 1.704 . S
C289 C120 1.703 1_554 S
C291 C107 1.664 . S
C293 C65 1.673 . S
C295 C134 1.699 . S
C297 C79 1.663 . S
C299 C148 1.703 1_554 S
C301 C162 1.704 . S
C303 C93 1.668 . S
C305 C23 1.674 . S
C307 C176 1.698 1_556 S
C309 C190 1.704 . S
C311 C37 1.667 . S
C313 C204 1.702 1_556 S
C315 C51 1.683 . S
C317 C218 1.704 . S
C319 C9 1.667 . S
C321 C105 1.373 . S
C323 C7 1.340 . S
C325 C21 1.321 . S
C327 C63 1.325 . S
C329 C35 1.361 . S
C331 C77 1.315 . S
C333 C49 1.336 . S
C335 C91 1.314 . S
C337 C217 1.367 . S
C339 C119 1.373 . S
C341 C175 1.336 . S
C343 C133 1.353 . S
C345 C189 1.359 . S
C347 C147 1.343 . S
C349 C203 1.373 . S
C351 C161 1.367 . S
