# Generated by pormake.
# Topology nfb, (4)-cn, num edge types: 1
# Building blocks:
#     Node 0, Type 0, BuildingBlock: TATPOV_clean_sbu_0, # of connection points: 4
#     Node 1, Type 0, BuildingBlock: TATPOV_clean_sbu_0, # of connection points: 4
#     Node 2, Type 0, BuildingBlock: TATPOV_clean_sbu_0, # of connection points: 4
#     Node 3, Type 0, BuildingBlock: TATPOV_clean_sbu_0, # of connection points: 4
#     Node 4, Type 0, BuildingBlock: TATPOV_clean_sbu_0, # of connection points: 4
#     Node 5, Type 0, BuildingBlock: TATPOV_clean_sbu_0, # of connection points: 4
#     Node 6, Type 0, BuildingBlock: TATPOV_clean_sbu_0, # of connection points: 4
#     Node 7, Type 0, BuildingBlock: TATPOV_clean_sbu_0, # of connection points: 4
#     Node 8, Type 0, BuildingBlock: TATPOV_clean_sbu_0, # of connection points: 4
#     Node 9, Type 0, BuildingBlock: TATPOV_clean_sbu_0, # of connection points: 4
#     Node 10, Type 0, BuildingBlock: TATPOV_clean_sbu_0, # of connection points: 4
#     Node 11, Type 0, BuildingBlock: TATPOV_clean_sbu_0, # of connection points: 4
#     Node 12, Type 0, BuildingBlock: TATPOV_clean_sbu_0, # of connection points: 4
#     Node 13, Type 0, BuildingBlock: TATPOV_clean_sbu_0, # of connection points: 4
#     Node 14, Type 0, BuildingBlock: TATPOV_clean_sbu_0, # of connection points: 4
#     Node 15, Type 0, BuildingBlock: TATPOV_clean_sbu_0, # of connection points: 4
#     Node 16, Type 0, BuildingBlock: TATPOV_clean_sbu_0, # of connection points: 4
#     Node 17, Type 0, BuildingBlock: TATPOV_clean_sbu_0, # of connection points: 4
#     Node 18, Type 0, BuildingBlock: TATPOV_clean_sbu_0, # of connection points: 4
#     Node 19, Type 0, BuildingBlock: TATPOV_clean_sbu_0, # of connection points: 4
#     Node 20, Type 0, BuildingBlock: TATPOV_clean_sbu_0, # of connection points: 4
#     Node 21, Type 0, BuildingBlock: TATPOV_clean_sbu_0, # of connection points: 4
#     Node 22, Type 0, BuildingBlock: TATPOV_clean_sbu_0, # of connection points: 4
#     Node 23, Type 0, BuildingBlock: TATPOV_clean_sbu_0, # of connection points: 4
#     Node 24, Type 0, BuildingBlock: TATPOV_clean_sbu_0, # of connection points: 4
#     Node 25, Type 0, BuildingBlock: TATPOV_clean_sbu_0, # of connection points: 4
#     Node 26, Type 0, BuildingBlock: TATPOV_clean_sbu_0, # of connection points: 4
#     Node 27, Type 0, BuildingBlock: TATPOV_clean_sbu_0, # of connection points: 4
#     Node 28, Type 0, BuildingBlock: TATPOV_clean_sbu_0, # of connection points: 4
#     Node 29, Type 0, BuildingBlock: TATPOV_clean_sbu_0, # of connection points: 4
#     Node 30, Type 0, BuildingBlock: TATPOV_clean_sbu_0, # of connection points: 4
#     Node 31, Type 0, BuildingBlock: TATPOV_clean_sbu_0, # of connection points: 4
#     Node 32, Type 0, BuildingBlock: TATPOV_clean_sbu_0, # of connection points: 4
#     Node 33, Type 0, BuildingBlock: TATPOV_clean_sbu_0, # of connection points: 4
#     Node 34, Type 0, BuildingBlock: TATPOV_clean_sbu_0, # of connection points: 4
#     Node 35, Type 0, BuildingBlock: TATPOV_clean_sbu_0, # of connection points: 4
#     Node 36, Type 0, BuildingBlock: TATPOV_clean_sbu_0, # of connection points: 4
#     Node 37, Type 0, BuildingBlock: TATPOV_clean_sbu_0, # of connection points: 4
#     Node 38, Type 0, BuildingBlock: TATPOV_clean_sbu_0, # of connection points: 4
#     Node 39, Type 0, BuildingBlock: TATPOV_clean_sbu_0, # of connection points: 4
#     Node 40, Type 0, BuildingBlock: TATPOV_clean_sbu_0, # of connection points: 4
#     Node 41, Type 0, BuildingBlock: TATPOV_clean_sbu_0, # of connection points: 4
#     Node 42, Type 0, BuildingBlock: TATPOV_clean_sbu_0, # of connection points: 4
#     Node 43, Type 0, BuildingBlock: TATPOV_clean_sbu_0, # of connection points: 4
#     Node 44, Type 0, BuildingBlock: TATPOV_clean_sbu_0, # of connection points: 4
#     Node 45, Type 0, BuildingBlock: TATPOV_clean_sbu_0, # of connection points: 4
#     Node 46, Type 0, BuildingBlock: TATPOV_clean_sbu_0, # of connection points: 4
#     Node 47, Type 0, BuildingBlock: TATPOV_clean_sbu_0, # of connection points: 4
#     Edge 48, Type (0, 0), None
#     Edge 49, Type (0, 0), None
#     Edge 50, Type (0, 0), None
#     Edge 51, Type (0, 0), None
#     Edge 52, Type (0, 0), None
#     Edge 53, Type (0, 0), None
#     Edge 54, Type (0, 0), None
#     Edge 55, Type (0, 0), None
#     Edge 56, Type (0, 0), None
#     Edge 57, Type (0, 0), None
#     Edge 58, Type (0, 0), None
#     Edge 59, Type (0, 0), None
#     Edge 60, Type (0, 0), None
#     Edge 61, Type (0, 0), None
#     Edge 62, Type (0, 0), None
#     Edge 63, Type (0, 0), None
#     Edge 64, Type (0, 0), None
#     Edge 65, Type (0, 0), None
#     Edge 66, Type (0, 0), None
#     Edge 67, Type (0, 0), None
#     Edge 68, Type (0, 0), None
#     Edge 69, Type (0, 0), None
#     Edge 70, Type (0, 0), None
#     Edge 71, Type (0, 0), None
#     Edge 72, Type (0, 0), None
#     Edge 73, Type (0, 0), None
#     Edge 74, Type (0, 0), None
#     Edge 75, Type (0, 0), None
#     Edge 76, Type (0, 0), None
#     Edge 77, Type (0, 0), None
#     Edge 78, Type (0, 0), None
#     Edge 79, Type (0, 0), None
#     Edge 80, Type (0, 0), None
#     Edge 81, Type (0, 0), None
#     Edge 82, Type (0, 0), None
#     Edge 83, Type (0, 0), None
#     Edge 84, Type (0, 0), None
#     Edge 85, Type (0, 0), None
#     Edge 86, Type (0, 0), None
#     Edge 87, Type (0, 0), None
#     Edge 88, Type (0, 0), None
#     Edge 89, Type (0, 0), None
#     Edge 90, Type (0, 0), None
#     Edge 91, Type (0, 0), None
#     Edge 92, Type (0, 0), None
#     Edge 93, Type (0, 0), None
#     Edge 94, Type (0, 0), None
#     Edge 95, Type (0, 0), None
#     Edge 96, Type (0, 0), None
#     Edge 97, Type (0, 0), None
#     Edge 98, Type (0, 0), None
#     Edge 99, Type (0, 0), None
#     Edge 100, Type (0, 0), None
#     Edge 101, Type (0, 0), None
#     Edge 102, Type (0, 0), None
#     Edge 103, Type (0, 0), None
#     Edge 104, Type (0, 0), None
#     Edge 105, Type (0, 0), None
#     Edge 106, Type (0, 0), None
#     Edge 107, Type (0, 0), None
#     Edge 108, Type (0, 0), None
#     Edge 109, Type (0, 0), None
#     Edge 110, Type (0, 0), None
#     Edge 111, Type (0, 0), None
#     Edge 112, Type (0, 0), None
#     Edge 113, Type (0, 0), None
#     Edge 114, Type (0, 0), None
#     Edge 115, Type (0, 0), None
#     Edge 116, Type (0, 0), None
#     Edge 117, Type (0, 0), None
#     Edge 118, Type (0, 0), None
#     Edge 119, Type (0, 0), None
#     Edge 120, Type (0, 0), None
#     Edge 121, Type (0, 0), None
#     Edge 122, Type (0, 0), None
#     Edge 123, Type (0, 0), None
#     Edge 124, Type (0, 0), None
#     Edge 125, Type (0, 0), None
#     Edge 126, Type (0, 0), None
#     Edge 127, Type (0, 0), None
#     Edge 128, Type (0, 0), None
#     Edge 129, Type (0, 0), None
#     Edge 130, Type (0, 0), None
#     Edge 131, Type (0, 0), None
#     Edge 132, Type (0, 0), None
#     Edge 133, Type (0, 0), None
#     Edge 134, Type (0, 0), None
#     Edge 135, Type (0, 0), None
#     Edge 136, Type (0, 0), None
#     Edge 137, Type (0, 0), None
#     Edge 138, Type (0, 0), None
#     Edge 139, Type (0, 0), None
#     Edge 140, Type (0, 0), None
#     Edge 141, Type (0, 0), None
#     Edge 142, Type (0, 0), None
#     Edge 143, Type (0, 0), None
# Relax obj value: 0.389
# Max RMSD: 0.254
# Mean RMSD: 0.178
data_MOF--net-nfb--node1-TATPOV_clean_sbu_0--edge1-none
_symmetry_space_group_name_H-M    P1
_symmetry_Int_Tables_number       1
_symmetry_cell_setting            triclinic
loop_
_symmetry_equiv_pos_as_xyz
'x, y, z'
_cell_length_a     26.15784
_cell_length_b     24.877847
_cell_length_c     25.215327
_cell_angle_alpha  91.157681
_cell_angle_beta   90.872291
_cell_angle_gamma 91.402251
loop_
_atom_site_label
_atom_site_type_symbol
_atom_site_fract_x
_atom_site_fract_y
_atom_site_fract_z
_atom_type_partial_charge
Zn0 Zn 0.12526 0.10508 0.39329 0.0
Zn1 Zn 0.11783 0.14165 0.48892 0.0
O2 O 0.04994 0.09661 0.47534 0.0
O3 O 0.05139 0.0708 0.39174 0.0
O4 O 0.1221 0.14822 0.56841 0.0
O5 O 0.19485 0.06869 0.40592 0.0
O6 O 0.19289 0.12377 0.47427 0.0
C7 C 0.02766 0.07376 0.43519 0.0
C8 C 0.12533 0.22455 0.41 0.0
O9 O 0.11144 0.21558 0.45731 0.0
O10 O 0.13475 0.18594 0.37821 0.0
C11 C 0.16218 0.1709 0.58826 0.0
O12 O 0.1953 0.19408 0.55689 0.0
C13 C 0.21831 0.09459 0.44317 0.0
Zn14 Zn 0.40364 0.55039 0.80746 0.0
Zn15 Zn 0.32434 0.53878 0.87769 0.0
O16 O 0.31745 0.61359 0.84692 0.0
O17 O 0.3722 0.62314 0.78278 0.0
O18 O 0.27615 0.55034 0.9372 0.0
O19 O 0.38438 0.46555 0.80323 0.0
O20 O 0.30747 0.469 0.83666 0.0
C21 C 0.33824 0.64285 0.81248 0.0
C22 C 0.4269 0.5592 0.91803 0.0
O23 O 0.38752 0.52901 0.92033 0.0
O24 O 0.4411 0.57724 0.87407 0.0
C25 C 0.28873 0.59251 0.96433 0.0
O26 O 0.33097 0.61908 0.95311 0.0
C27 C 0.34303 0.44143 0.81651 0.0
Zn28 Zn 0.867 0.75155 0.2276 0.0
Zn29 Zn 0.88356 0.78896 0.31959 0.0
O30 O 0.94629 0.82036 0.28193 0.0
O31 O 0.94336 0.77388 0.20781 0.0
O32 O 0.89303 0.835 0.38189 0.0
O33 O 0.79312 0.78325 0.22643 0.0
O34 O 0.80474 0.79409 0.31184 0.0
C35 C 0.96871 0.80377 0.24073 0.0
C36 C 0.87956 0.67359 0.31055 0.0
O37 O 0.8961 0.71278 0.33958 0.0
O38 O 0.86289 0.6807 0.2639 0.0
C39 C 0.86664 0.82514 0.42195 0.0
O40 O 0.83749 0.78143 0.42302 0.0
C41 C 0.77429 0.79015 0.27232 0.0
Zn42 Zn 0.53055 0.44469 0.95157 0.0
Zn43 Zn 0.62545 0.46187 0.92939 0.0
O44 O 0.62236 0.37926 0.93511 0.0
O45 O 0.54037 0.36041 0.93621 0.0
O46 O 0.69511 0.47312 0.91018 0.0
O47 O 0.52555 0.51575 0.90586 0.0
O48 O 0.5974 0.50214 0.86773 0.0
C49 C 0.58625 0.34441 0.93743 0.0
C50 C 0.59312 0.49228 0.03723 0.0
O51 O 0.62522 0.4985 1.00064 0.0
O52 O 0.55129 0.4669 0.02774 0.0
C53 C 0.72638 0.44564 0.93564 0.0
O54 O 0.71138 0.42152 0.97865 0.0
C55 C 0.55994 0.53224 0.87473 0.0
Zn56 Zn 0.10512 1.00895 0.52301 0.0
Zn57 Zn 0.11458 0.90949 0.5571 0.0
O58 O 0.18673 0.94653 0.56847 0.0
O59 O 0.18154 0.02945 0.54248 0.0
O60 O 0.12665 0.84152 0.59695 0.0
O61 O 0.03379 1.01011 0.56249 0.0
O62 O 0.04276 0.92661 0.5859 0.0
C63 C 0.20869 0.99117 0.55837 0.0
C64 C 0.09801 0.92781 0.4399 0.0
O65 O 0.10303 0.895 0.47792 0.0
O66 O 0.09938 0.97813 0.44816 0.0
C67 C 0.17183 0.82607 0.60602 0.0
O68 O 0.21043 0.84733 0.58049 0.0
C69 C 0.01473 0.96742 0.58227 0.0
Zn70 Zn 0.62446 0.76667 0.1596 0.0
Zn71 Zn 0.72351 0.74315 0.13602 0.0
O72 O 0.73632 0.82474 0.14225 0.0
O73 O 0.65569 0.84561 0.14818 0.0
O74 O 0.78925 0.71813 0.10979 0.0
O75 O 0.63452 0.70071 0.21061 0.0
O76 O 0.71657 0.69282 0.19791 0.0
C77 C 0.70218 0.86005 0.14218 0.0
C78 C 0.62756 0.71342 0.06542 0.0
O79 O 0.67464 0.71793 0.07822 0.0
O80 O 0.59365 0.73412 0.09387 0.0
C81 C 0.78984 0.66915 0.09511 0.0
O82 O 0.74725 0.64013 0.09385 0.0
C83 C 0.67515 0.67427 0.21667 0.0
Zn84 Zn 0.90943 0.15739 0.77249 0.0
Zn85 Zn 0.92462 0.2291 0.6998 0.0
O86 O 0.84943 0.23356 0.72687 0.0
O87 O 0.84093 0.19068 0.80068 0.0
O88 O 0.91315 0.27181 0.63493 0.0
O89 O 0.98875 0.17974 0.78905 0.0
O90 O 0.99049 0.25282 0.74134 0.0
C91 C 0.82125 0.21949 0.76502 0.0
C92 C 0.91262 0.1208 0.66275 0.0
O93 O 0.94163 0.16186 0.66161 0.0
O94 O 0.89025 0.10943 0.70544 0.0
C95 C 0.87552 0.25132 0.60785 0.0
O96 O 0.85317 0.20688 0.62361 0.0
C97 C 0.01343 0.22094 0.77238 0.0
Zn98 Zn 0.49892 0.38536 0.11453 0.0
Zn99 Zn 0.39715 0.41274 0.12562 0.0
O100 O 0.39102 0.33684 0.15528 0.0
O101 O 0.4569 0.3107 0.10966 0.0
O102 O 0.32451 0.42926 0.12886 0.0
O103 O 0.49151 0.46909 0.10692 0.0
O104 O 0.42852 0.48325 0.15942 0.0
C105 C 0.41487 0.2994 0.13211 0.0
C106 C 0.43381 0.36665 0.02301 0.0
O107 O 0.40869 0.40356 0.04588 0.0
O108 O 0.47069 0.3449 0.04729 0.0
C109 C 0.2942 0.40209 0.09872 0.0
O110 O 0.31166 0.36497 0.06657 0.0
C111 C 0.46605 0.50212 0.13389 0.0
Zn112 Zn 0.33106 0.14643 0.14562 0.0
Zn113 Zn 0.42955 0.12693 0.1501 0.0
O114 O 0.41409 0.07171 0.09222 0.0
O115 O 0.33046 0.07498 0.09445 0.0
O116 O 0.50346 0.12664 0.15504 0.0
O117 O 0.34978 0.22836 0.13097 0.0
O118 O 0.43004 0.20667 0.13784 0.0
C119 C 0.37072 0.05246 0.07775 0.0
C120 C 0.36657 0.11745 0.24976 0.0
O121 O 0.40639 0.10697 0.22396 0.0
O122 O 0.32811 0.13683 0.22653 0.0
C123 C 0.52611 0.1209 0.19896 0.0
O124 O 0.50213 0.10057 0.23945 0.0
C125 C 0.39685 0.24238 0.13351 0.0
Zn126 Zn 0.3701 0.03857 0.53184 0.0
Zn127 Zn 0.36701 0.98394 0.62495 0.0
O128 O 0.29073 0.97624 0.59959 0.0
O129 O 0.29065 0.02067 0.52576 0.0
O130 O 0.36029 0.94241 0.69228 0.0
O131 O 0.44015 0.99632 0.52471 0.0
O132 O 0.43373 0.95138 0.59823 0.0
C133 C 0.26596 0.99655 0.56151 0.0
C134 C 0.39225 0.10737 0.61736 0.0
O135 O 0.38686 0.06249 0.64087 0.0
O136 O 0.38409 0.11089 0.56802 0.0
C137 C 0.33757 0.89664 0.68669 0.0
O138 O 0.32059 0.88046 0.63963 0.0
C139 C 0.46033 0.96608 0.55911 0.0
Zn140 Zn 0.7728 1.01302 0.20696 0.0
Zn141 Zn 0.66167 0.02134 0.14991 0.0
O142 O 0.6901 0.09747 0.13655 0.0
O143 O 0.75268 0.09267 0.19599 0.0
O144 O 0.58901 1.01229 0.12277 0.0
O145 O 0.74679 0.9348 0.18181 0.0
O146 O 0.68936 0.95119 0.11974 0.0
C147 C 0.72348 0.12059 0.16735 0.0
C148 C 0.6727 0.97514 0.25006 0.0
O149 O 0.65489 1.01561 0.22765 0.0
O150 O 0.71973 0.96436 0.24489 0.0
C151 C 0.55186 1.00324 0.15366 0.0
O152 O 0.55822 1.00818 0.20517 0.0
C153 C 0.71649 0.91805 0.14477 0.0
Zn154 Zn 0.66653 0.24226 0.69067 0.0
Zn155 Zn 0.6635 0.16608 0.76824 0.0
O156 O 0.73467 0.19819 0.78898 0.0
O157 O 0.74502 0.24588 0.71802 0.0
O158 O 0.67533 0.09499 0.79901 0.0
O159 O 0.59488 0.2588 0.7276 0.0
O160 O 0.59456 0.19787 0.7899 0.0
C161 C 0.76412 0.2249 0.75933 0.0
C162 C 0.64802 0.1436 0.64594 0.0
O163 O 0.65283 0.13765 0.69538 0.0
O164 O 0.65306 0.18992 0.62659 0.0
C165 C 0.68901 0.09465 0.84711 0.0
O166 O 0.71511 0.05425 0.86486 0.0
C167 C 0.57149 0.23424 0.76449 0.0
Zn168 Zn 0.27892 0.79917 0.80532 0.0
Zn169 Zn 0.35981 0.8203 0.83752 0.0
O170 O 0.3198 0.85468 0.89982 0.0
O171 O 0.24974 0.85951 0.85324 0.0
O172 O 0.42885 0.84094 0.85973 0.0
O173 O 0.2821 0.71692 0.81836 0.0
O174 O 0.36369 0.73659 0.819 0.0
C175 C 0.27777 0.87777 0.89122 0.0
C176 C 0.32918 0.86232 0.73224 0.0
O177 O 0.35692 0.86858 0.7735 0.0
O178 O 0.29397 0.82661 0.73109 0.0
C179 C 0.43482 0.88946 0.87551 0.0
O180 O 0.39568 0.92107 0.87962 0.0
C181 C 0.32748 0.70138 0.81403 0.0
Zn182 Zn 0.61444 0.82864 0.23654 0.0
Zn183 Zn 0.62586 0.83381 0.33248 0.0
O184 O 0.55244 0.79369 0.31629 0.0
O185 O 0.54971 0.78097 0.23024 0.0
O186 O 0.61269 0.879 0.39727 0.0
O187 O 0.69021 0.80385 0.23903 0.0
O188 O 0.69732 0.79805 0.32567 0.0
C189 C 0.5284 0.77587 0.2746 0.0
C190 C 0.63848 0.92992 0.26072 0.0
O191 O 0.64966 0.90169 0.29962 0.0
O192 O 0.60953 0.90991 0.22453 0.0
C193 C 0.57454 0.90866 0.38753 0.0
O194 O 0.54377 0.89622 0.34735 0.0
C195 C 0.71793 0.79649 0.2797 0.0
Zn196 Zn 0.6841 0.20644 0.98439 0.0
Zn197 Zn 0.57731 0.16676 0.94177 0.0
O198 O 0.59934 0.12053 1.00416 0.0
O199 O 0.67991 0.12064 0.98587 0.0
O200 O 0.50758 0.13552 0.92241 0.0
O201 O 0.64571 0.27587 0.95768 0.0
O202 O 0.56551 0.24922 0.94518 0.0
C203 C 0.63967 0.09379 0.99688 0.0
C204 C 0.67135 0.13614 0.88344 0.0
O205 O 0.62402 0.14709 0.88127 0.0
O206 O 0.69904 0.14932 0.92406 0.0
C207 C 0.48325 0.09918 0.94732 0.0
O208 O 0.50329 0.07789 0.98977 0.0
C209 C 0.5995 0.28676 0.94627 0.0
Zn210 Zn 0.36707 0.15457 0.41925 0.0
Zn211 Zn 0.37654 0.05361 0.40632 0.0
O212 O 0.44414 0.07645 0.44602 0.0
O213 O 0.44137 0.16401 0.45378 0.0
O214 O 0.37717 0.97523 0.4133 0.0
O215 O 0.29705 0.14461 0.45701 0.0
O216 O 0.30102 0.06352 0.4227 0.0
C217 C 0.46589 0.12102 0.4598 0.0
C218 C 0.36785 0.11231 0.30751 0.0
O219 O 0.38184 0.06871 0.32797 0.0
O220 O 0.35841 0.15287 0.33688 0.0
C221 C 0.40825 0.95179 0.38362 0.0
O222 O 0.43892 0.98062 0.35409 0.0
C223 C 0.27493 0.10023 0.44361 0.0
Zn224 Zn 0.04813 0.40279 0.1005 0.0
Zn225 Zn 0.13791 0.40245 0.0828 0.0
O226 O 0.13748 0.36614 0.15785 0.0
O227 O 0.07235 0.41378 0.18121 0.0
O228 O 0.20985 0.39135 0.06656 0.0
O229 O 0.03967 0.43352 0.02322 0.0
O230 O 0.10369 0.38178 1.00869 0.0
C231 C 0.11172 0.38782 0.19473 0.0
C232 C 0.105 0.50029 0.13402 0.0
O233 O 0.13514 0.48337 0.09865 0.0
O234 O 0.06895 0.46951 0.14934 0.0
C235 C 0.23989 0.40977 0.10257 0.0
O236 O 0.22148 0.43354 0.1448 0.0
C237 C 0.06738 0.40944 0.99003 0.0
Zn238 Zn 0.08045 0.74498 0.96648 0.0
Zn239 Zn 0.18046 0.70848 0.97785 0.0
O240 O 0.18783 0.74727 0.90589 0.0
O241 O 0.10712 0.73054 0.88607 0.0
O242 O 0.24674 0.67142 0.98257 0.0
O243 O 0.09223 0.72445 0.0485 0.0
O244 O 0.17373 0.7453 0.05019 0.0
C245 C 0.15266 0.73979 0.87077 0.0
C246 C 0.10163 0.63707 0.93106 0.0
O247 O 0.13439 0.64272 0.96816 0.0
O248 O 0.07726 0.67768 0.91545 0.0
C249 C 0.24951 0.62149 0.992 0.0
O250 O 0.2102 0.59484 1.01099 0.0
C251 C 0.13323 0.73412 0.07531 0.0
Zn252 Zn 0.83384 0.51092 0.34292 0.0
Zn253 Zn 0.9322 0.52694 0.36676 0.0
O254 O 0.90042 0.49983 0.43585 0.0
O255 O 0.82777 0.53866 0.42187 0.0
O256 O 1.00598 0.53105 0.38343 0.0
O257 O 0.86504 0.5352 0.26833 0.0
O258 O 0.93539 0.49484 0.28959 0.0
C259 C 0.86165 0.52361 0.4544 0.0
C260 C 0.87888 0.61948 0.32999 0.0
O261 O 0.91388 0.60479 0.36141 0.0
O262 O 0.84754 0.58495 0.30866 0.0
C263 C 0.02325 0.55114 0.42675 0.0
O264 O 0.99172 0.56736 0.4633 0.0
C265 C 0.9081 0.51707 0.2544 0.0
Zn266 Zn 0.8951 0.32795 0.78908 0.0
Zn267 Zn 0.80268 0.36437 0.82253 0.0
O268 O 0.7753 0.3601 0.7474 0.0
O269 O 0.85093 0.34039 0.71716 0.0
O270 O 0.75344 0.40796 0.85697 0.0
O271 O 0.88466 0.29547 0.86755 0.0
O272 O 0.80211 0.30243 0.87354 0.0
C273 C 0.80494 0.35425 0.70864 0.0
C274 C 0.90713 0.42894 0.82601 0.0
O275 O 0.86051 0.41689 0.83249 0.0
O276 O 0.93632 0.39651 0.80282 0.0
C277 C 0.76519 0.42157 0.90436 0.0
O278 O 0.80747 0.40499 0.92642 0.0
C279 C 0.84418 0.28913 0.89445 0.0
Zn280 Zn 0.1872 0.37164 0.35031 0.0
Zn281 Zn 0.09147 0.38863 0.36701 0.0
O282 O 0.11675 0.44581 0.41904 0.0
O283 O 0.19815 0.42769 0.41643 0.0
O284 O 0.01935 0.39823 0.37193 0.0
O285 O 0.17338 0.38099 0.26727 0.0
O286 O 0.09321 0.39316 0.28648 0.0
C287 C 0.16153 0.45257 0.43806 0.0
C288 C 0.13336 0.2796 0.39219 0.0
O289 O 0.0974 0.31268 0.39509 0.0
O290 O 0.17572 0.2934 0.37214 0.0
C291 C 0.99511 0.37641 0.4089 0.0
O292 O 0.01963 0.35902 0.45075 0.0
C293 C 0.12729 0.38667 0.25192 0.0
Zn294 Zn 1.00306 0.543 0.11473 0.0
Zn295 Zn 0.90978 0.56721 0.09356 0.0
O296 O 0.90964 0.56835 0.175 0.0
O297 O 0.96499 0.50438 0.1802 0.0
O298 O 0.8403 0.59309 0.08082 0.0
O299 O 0.99964 0.552 0.03104 0.0
O300 O 0.94767 0.61717 0.04383 0.0
C301 C 0.92853 0.53003 0.2009 0.0
C302 C 0.94187 0.45354 0.08377 0.0
O303 O 0.91316 0.49007 0.06646 0.0
O304 O 0.97615 0.46517 0.11834 0.0
C305 C 0.8386 0.64321 0.09058 0.0
O306 O 0.88053 0.67002 0.10517 0.0
C307 C 0.9754 0.59108 1.01236 0.0
Zn308 Zn 0.7356 0.3284 0.55155 0.0
Zn309 Zn 0.83296 0.39801 0.55467 0.0
O310 O 0.80789 0.40339 0.47544 0.0
O311 O 0.74789 0.33967 0.47235 0.0
O312 O 0.89294 0.44961 0.56727 0.0
O313 O 0.767 0.32048 0.62823 0.0
O314 O 0.79714 0.4035 0.62789 0.0
C315 C 0.77676 0.37266 0.4486 0.0
C316 C 0.84536 0.28575 0.575 0.0
O317 O 0.86663 0.32823 0.55857 0.0
O318 O 0.79663 0.28157 0.5791 0.0
C319 C 0.93595 0.43632 0.54922 0.0
O320 O 0.93867 0.39336 0.5187 0.0
C321 C 0.78567 0.36115 0.65353 0.0
Zn322 Zn 0.2416 0.73394 0.72756 0.0
Zn323 Zn 0.15178 0.69062 0.70513 0.0
O324 O 0.19385 0.64148 0.65585 0.0
O325 O 0.24672 0.70929 0.64603 0.0
O326 O 0.08385 0.66244 0.68897 0.0
O327 O 0.19589 0.76427 0.79103 0.0
O328 O 0.15031 0.69028 0.78744 0.0
C329 C 0.22572 0.66627 0.627 0.0
C330 C 0.18178 0.7873 0.64733 0.0
O331 O 0.14523 0.76437 0.67139 0.0
O332 O 0.2276 0.77404 0.65719 0.0
C333 C 0.07123 0.651 0.64138 0.0
O334 O 0.10409 0.65631 0.603 0.0
C335 C 0.16573 0.73192 0.81361 0.0
Zn336 Zn 0.86828 0.95909 0.52184 0.0
Zn337 Zn 0.86008 0.87939 0.58291 0.0
O338 O 0.93683 0.91347 0.59432 0.0
O339 O 0.9303 0.9936 0.56125 0.0
O340 O 0.85643 0.80642 0.61529 0.0
O341 O 0.79072 0.9671 0.53275 0.0
O342 O 0.7896 0.91289 0.6003 0.0
C343 C 0.95748 0.95954 0.58424 0.0
C344 C 0.86798 0.86318 0.46588 0.0
O345 O 0.85107 0.84841 0.50987 0.0
O346 O 0.88578 0.91037 0.46036 0.0
C347 C 0.88625 0.77335 0.59339 0.0
O348 O 0.92397 0.79159 0.56443 0.0
C349 C 0.76578 0.94283 0.56821 0.0
Zn350 Zn 0.60535 0.51436 0.20487 0.0
Zn351 Zn 0.70115 0.50981 0.16736 0.0
O352 O 0.70454 0.58634 0.19989 0.0
O353 O 0.62691 0.59297 0.23148 0.0
O354 O 0.7665 0.49481 0.13235 0.0
O355 O 0.61527 0.4372 0.23531 0.0
O356 O 0.69507 0.44045 0.2095 0.0
C357 C 0.67031 0.61464 0.22169 0.0
C358 C 0.60984 0.50499 0.09177 0.0
O359 O 0.6571 0.50519 0.10209 0.0
O360 O 0.57856 0.50911 0.12904 0.0
C361 C 0.76985 0.49775 0.08226 0.0
O362 O 0.74155 0.53105 0.05578 0.0
C363 C 0.65792 0.4146 0.22973 0.0
Zn364 Zn 0.16404 0.17008 0.75603 0.0
Zn365 Zn 0.17339 0.266 0.72795 0.0
O366 O 0.09599 0.25799 0.74963 0.0
O367 O 0.09533 0.18469 0.79597 0.0
O368 O 0.17587 0.33638 0.69708 0.0
O369 O 0.24411 0.18703 0.7723 0.0
O370 O 0.23877 0.27433 0.77212 0.0
C371 C 0.07107 0.22376 0.77683 0.0
C372 C 0.16705 0.18038 0.64535 0.0
O373 O 0.18885 0.22362 0.66156 0.0
O374 O 0.14619 0.14925 0.67813 0.0
C375 C 0.15452 0.33923 0.65201 0.0
O376 O 0.12531 0.29933 0.63331 0.0
C377 C 0.26611 0.23333 0.77644 0.0
Zn378 Zn 0.50237 0.64676 0.04177 0.0
Zn379 Zn 0.40877 0.62988 0.06986 0.0
O380 O 0.43685 0.59277 0.13443 0.0
O381 O 0.50436 0.57623 0.08881 0.0
O382 O 0.33834 0.62288 0.08906 0.0
O383 O 0.48975 0.73152 0.05019 0.0
O384 O 0.4086 0.71003 0.0532 0.0
C385 C 0.47245 0.56122 0.12341 0.0
C386 C 0.44477 0.58503 0.9672 0.0
O387 O 0.41506 0.58221 1.00634 0.0
O388 O 0.48291 0.6174 0.9684 0.0
C389 C 0.32138 0.57867 0.10618 0.0
O390 O 0.34754 0.53473 0.10047 0.0
C391 C 0.44344 0.74548 0.0467 0.0
Zn392 Zn 0.86531 0.0419 0.4109 0.0
Zn393 Zn 0.88377 0.09986 0.49588 0.0
O394 O 0.80666 0.07984 0.50705 0.0
O395 O 0.79152 0.07751 0.42146 0.0
O396 O 0.90478 0.12419 0.5696 0.0
O397 O 0.94357 0.05916 0.3965 0.0
O398 O 0.95008 0.05909 0.48238 0.0
C399 C 0.77499 0.08365 0.46848 0.0
C400 C 0.85608 0.15732 0.39869 0.0
O401 O 0.88255 0.16108 0.4418 0.0
O402 O 0.83509 0.1125 0.3841 0.0
C403 C 0.89495 0.09801 0.61153 0.0
O404 O 0.86274 0.05669 0.60944 0.0
C405 C 0.97186 0.05961 0.43776 0.0
Zn406 Zn 0.39582 0.28858 0.87853 0.0
Zn407 Zn 0.30508 0.32145 0.91838 0.0
O408 O 0.30374 0.3619 0.84876 0.0
O409 O 0.38522 0.35877 0.83251 0.0
O410 O 0.24847 0.36202 0.9503 0.0
O411 O 0.35651 0.21243 0.88222 0.0
O412 O 0.28548 0.23981 0.91846 0.0
C413 C 0.34291 0.38235 0.82717 0.0
C414 C 0.41133 0.34074 0.97536 0.0
O415 O 0.3637 0.34556 0.96727 0.0
O416 O 0.43714 0.31118 0.94493 0.0
C417 C 0.25851 0.41238 0.95193 0.0
O418 O 0.30535 0.42969 0.94331 0.0
C419 C 0.313 0.2015 0.90203 0.0
Zn420 Zn 0.11141 0.75224 0.2772 0.0
Zn421 Zn 0.1263 0.8487 0.30693 0.0
O422 O 0.19875 0.84018 0.27383 0.0
O423 O 0.18889 0.75313 0.25796 0.0
O424 O 0.12192 0.91617 0.35061 0.0
O425 O 0.04858 0.76195 0.22781 0.0
O426 O 0.05068 0.83756 0.27333 0.0
C427 C 0.21812 0.79455 0.26261 0.0
C428 C 0.12438 0.76165 0.38647 0.0
O429 O 0.14128 0.80575 0.36996 0.0
O430 O 0.09822 0.73118 0.35511 0.0
C431 C 0.08923 0.90654 0.3864 0.0
O432 O 0.0575 0.86508 0.38035 0.0
C433 C 0.02607 0.804 0.24264 0.0
Zn434 Zn 0.56072 0.69689 0.913 0.0
Zn435 Zn 0.65701 0.67466 0.90849 0.0
O436 O 0.61653 0.60755 0.87972 0.0
O437 O 0.53511 0.6247 0.87809 0.0
O438 O 0.72832 0.6515 0.89946 0.0
O439 O 0.57443 0.7734 0.88747 0.0
O440 O 0.6565 0.75692 0.89512 0.0
C441 C 0.57044 0.59138 0.87185 0.0
C442 C 0.61512 0.69249 0.01303 0.0
O443 O 0.65184 0.67628 0.98545 0.0
O444 O 0.57214 0.70187 0.99212 0.0
C445 C 0.74234 0.61107 0.92562 0.0
O446 O 0.71005 0.58653 0.9569 0.0
C447 C 0.62059 0.79046 0.89169 0.0
Zn448 Zn 0.67102 0.95168 0.89598 0.0
Zn449 Zn 0.57238 0.96041 0.90615 0.0
O450 O 0.59398 0.88066 0.90182 0.0
O451 O 0.67635 0.86899 0.90466 0.0
O452 O 0.49885 0.94685 0.91305 0.0
O453 O 0.6743 1.01615 0.95351 0.0
O454 O 0.59119 1.01787 0.96269 0.0
C455 C 0.63139 0.84926 0.89907 0.0
C456 C 0.60978 0.98352 0.80166 0.0
O457 O 0.57445 0.99223 0.83411 0.0
O458 O 0.6521 0.96521 0.81738 0.0
C459 C 0.48545 0.91246 0.8774 0.0
O460 O 0.51775 0.89738 0.84101 0.0
C461 C 0.63525 0.03789 0.97374 0.0
Zn462 Zn 0.62769 0.16518 0.49916 0.0
Zn463 Zn 0.61632 0.06986 0.43997 0.0
O464 O 0.68631 0.06045 0.47497 0.0
O465 O 0.7059 0.14604 0.47728 0.0
O466 O 0.61168 0.99408 0.40863 0.0
O467 O 0.54823 0.16558 0.47615 0.0
O468 O 0.54565 0.07797 0.47385 0.0
C469 C 0.72034 0.09744 0.47711 0.0
C470 C 0.65108 0.17212 0.38909 0.0
O471 O 0.62524 0.12794 0.38347 0.0
O472 O 0.6677 0.18833 0.43448 0.0
C473 C 0.57231 0.96314 0.40984 0.0
O474 O 0.52775 0.98305 0.42104 0.0
C475 C 0.52195 0.12195 0.47372 0.0
Zn476 Zn 0.23416 0.04616 0.87228 0.0
Zn477 Zn 0.33463 0.03551 0.922 0.0
O478 O 0.30889 0.1132 0.94037 0.0
O479 O 0.2707 0.12305 0.86367 0.0
O480 O 0.40698 0.04459 0.94981 0.0
O481 O 0.2455 0.96379 0.87639 0.0
O482 O 0.30491 0.95935 0.93869 0.0
C483 C 0.29411 0.14418 0.90366 0.0
C484 C 0.32952 0.05396 0.80923 0.0
O485 O 0.35064 0.02886 0.84615 0.0
O486 O 0.28495 0.07297 0.81499 0.0
C487 C 0.43117 0.08436 0.93032 0.0
O488 O 0.40827 0.11419 0.89548 0.0
C489 C 0.27273 0.93568 0.90681 0.0
Zn490 Zn 0.36991 0.72545 0.22968 0.0
Zn491 Zn 0.38304 0.81406 0.28872 0.0
O492 O 0.30413 0.80535 0.29922 0.0
O493 O 0.29413 0.75822 0.2251 0.0
O494 O 0.40225 0.8829 0.32136 0.0
O495 O 0.45013 0.74507 0.23216 0.0
O496 O 0.44499 0.77144 0.31435 0.0
C497 C 0.27483 0.78734 0.26148 0.0
C498 C 0.36357 0.82276 0.17574 0.0
O499 O 0.39152 0.83722 0.21505 0.0
O500 O 0.3393 0.77773 0.17539 0.0
C501 C 0.39828 0.89593 0.3696 0.0
O502 O 0.37615 0.86294 0.40268 0.0
C503 C 0.47289 0.75896 0.27537 0.0
Zn504 Zn 0.71353 0.25885 0.27016 0.0
Zn505 Zn 0.63413 0.2375 0.22957 0.0
O506 O 0.62763 0.32207 0.23105 0.0
O507 O 0.70798 0.33953 0.2518 0.0
O508 O 0.56988 0.20361 0.20551 0.0
O509 O 0.74128 0.1943 0.22569 0.0
O510 O 0.67648 0.20103 0.17189 0.0
C511 C 0.66406 0.35642 0.24014 0.0
C512 C 0.66325 0.20434 0.34328 0.0
O513 O 0.63587 0.20001 0.30158 0.0
O514 O 0.70066 0.23709 0.34511 0.0
C515 C 0.57165 0.1526 0.20875 0.0
O516 O 0.6126 0.12942 0.22704 0.0
C517 C 0.71703 0.1774 0.18461 0.0
Zn518 Zn 0.41009 0.25467 0.70742 0.0
Zn519 Zn 0.42196 0.16832 0.7613 0.0
O520 O 0.48949 0.20038 0.79195 0.0
O521 O 0.49004 0.26151 0.73018 0.0
O522 O 0.40613 0.09669 0.78915 0.0
O523 O 0.34396 0.27866 0.74863 0.0
O524 O 0.34922 0.19634 0.77479 0.0
C525 C 0.51404 0.23574 0.7658 0.0
C526 C 0.40965 0.15375 0.64947 0.0
O527 O 0.43666 0.14333 0.68942 0.0
O528 O 0.38878 0.19906 0.64664 0.0
C529 C 0.36307 0.07834 0.77127 0.0
O530 O 0.34176 0.10039 0.72992 0.0
C531 C 0.32307 0.2382 0.77029 0.0
Zn532 Zn 0.34277 0.88831 0.02205 0.0
Zn533 Zn 0.43902 0.91439 0.0662 0.0
O534 O 0.46066 0.84092 0.03498 0.0
O535 O 0.38044 0.81275 0.03648 0.0
O536 O 0.50446 0.94768 0.09337 0.0
O537 O 0.33281 0.96539 0.05768 0.0
O538 O 0.41028 0.98023 0.03139 0.0
C539 C 0.42808 0.80215 0.03709 0.0
C540 C 0.36468 0.85579 0.12944 0.0
O541 O 0.39708 0.89482 0.12934 0.0
O542 O 0.34342 0.83836 0.08638 0.0
C543 C 0.5039 0.98018 0.13271 0.0
O544 O 0.46123 0.98758 0.1583 0.0
C545 C 0.36919 0.99869 0.05015 0.0
Zn546 Zn 0.61834 1.0162 0.53853 0.0
Zn547 Zn 0.61627 0.97263 0.63469 0.0
O548 O 0.54021 0.95403 0.6072 0.0
O549 O 0.54388 0.98558 0.52686 0.0
O550 O 0.61888 0.95796 0.71198 0.0
O551 O 0.68864 0.97893 0.53579 0.0
O552 O 0.68421 0.93855 0.61206 0.0
C553 C 0.51785 0.96389 0.56296 0.0
C554 C 0.6348 0.09493 0.61488 0.0
O555 O 0.63076 0.05169 0.64033 0.0
O556 O 0.62728 0.09439 0.56536 0.0
C557 C 0.60016 0.99068 0.74528 0.0
O558 O 0.57092 0.02943 0.72906 0.0
C559 C 0.70987 0.95225 0.57188 0.0
Zn560 Zn 0.97909 0.58126 0.84335 0.0
Zn561 Zn 0.89277 0.59304 0.86917 0.0
O562 O 0.93389 0.62537 0.93444 0.0
O563 O 0.98812 0.56183 0.92321 0.0
O564 O 0.82262 0.61382 0.88622 0.0
O565 O 0.94762 0.55472 0.76911 0.0
O566 O 0.88996 0.61315 0.78978 0.0
C567 C 0.96777 0.59534 0.95406 0.0
C568 C 0.92336 0.4834 0.83991 0.0
O569 O 0.89488 0.51146 0.86967 0.0
O570 O 0.95844 0.50627 0.81356 0.0
C571 C 0.79388 0.59141 0.91945 0.0
O572 O 0.81009 0.55065 0.94674 0.0
C573 C 0.90922 0.58181 0.75529 0.0
Zn574 Zn 0.91993 0.29235 0.05697 0.0
Zn575 Zn 0.81994 0.34211 0.05577 0.0
O576 O 0.81253 0.30844 0.98099 0.0
O577 O 0.8911 0.27855 0.97662 0.0
O578 O 0.77558 0.40476 0.06739 0.0
O579 O 0.88963 0.28602 0.13512 0.0
O580 O 0.80773 0.30006 0.12186 0.0
C581 C 0.84818 0.28759 0.95398 0.0
C582 C 0.9293 0.39775 0.07026 0.0
O583 O 0.88273 0.38492 0.06585 0.0
O584 O 0.96251 0.36187 0.06612 0.0
C585 C 0.79032 0.45182 0.0544 0.0
O586 O 0.82571 0.45877 0.01886 0.0
C587 C 0.84479 0.29082 0.15327 0.0
Zn588 Zn 0.1983 0.49688 0.60083 0.0
Zn589 Zn 0.09564 0.46768 0.57818 0.0
O590 O 0.08742 0.49784 0.65624 0.0
O591 O 0.1672 0.48212 0.67858 0.0
O592 O 0.02553 0.44616 0.55133 0.0
O593 O 0.20271 0.46526 0.52291 0.0
O594 O 0.12815 0.50051 0.51243 0.0
C595 C 0.12119 0.49039 0.69245 0.0
C596 C 0.15799 0.38885 0.62407 0.0
O597 O 0.12562 0.39656 0.58744 0.0
O598 O 0.18675 0.42714 0.64269 0.0
C599 C 0.98333 0.46343 0.56782 0.0
O600 O 0.98286 0.49977 0.60614 0.0
C601 C 0.16691 0.47858 0.49186 0.0
Zn602 Zn 0.10319 0.64408 0.22181 0.0
Zn603 Zn 0.19852 0.63866 0.18899 0.0
O604 O 0.18241 0.7062 0.14914 0.0
O605 O 0.09965 0.69515 0.15453 0.0
O606 O 0.26291 0.6265 0.15487 0.0
O607 O 0.13993 0.64695 0.29836 0.0
O608 O 0.21798 0.6399 0.26906 0.0
C609 C 0.13806 0.71537 0.13112 0.0
C610 C 0.11567 0.55077 0.16283 0.0
O611 O 0.15885 0.57408 0.1578 0.0
O612 O 0.08328 0.56958 0.19456 0.0
C613 C 0.27768 0.58062 0.1401 0.0
O614 O 0.25451 0.5367 0.15595 0.0
C615 C 0.18756 0.64194 0.30784 0.0
Zn616 Zn 0.82794 0.6138 0.60559 0.0
Zn617 Zn 0.92967 0.60493 0.59143 0.0
O618 O 0.9249 0.57173 0.66387 0.0
O619 O 0.84861 0.59823 0.68519 0.0
O620 O 1.00429 0.61303 0.58818 0.0
O621 O 0.82566 0.56486 0.53318 0.0
O622 O 0.90907 0.55981 0.52763 0.0
C623 C 0.89233 0.58178 0.69894 0.0
C624 C 0.87663 0.71527 0.59557 0.0
O625 O 0.91397 0.6844 0.58936 0.0
O626 O 0.83185 0.69587 0.601 0.0
C627 C 0.0183 0.6393 0.62972 0.0
O628 O 0.98424 0.65669 0.66326 0.0
C629 C 0.86493 0.54833 0.50877 0.0
Zn630 Zn 0.05182 0.50271 0.84529 0.0
Zn631 Zn 0.14108 0.47983 0.86922 0.0
O632 O 0.10574 0.41614 0.90501 0.0
O633 O 0.03566 0.45936 0.91604 0.0
O634 O 0.21084 0.46043 0.89116 0.0
O635 O 0.06123 0.48422 0.76445 0.0
O636 O 0.14287 0.48687 0.78577 0.0
C637 C 0.06668 0.4248 0.93268 0.0
C638 C 0.09938 0.58684 0.90044 0.0
O639 O 0.12952 0.54926 0.91145 0.0
O640 O 0.06809 0.58106 0.86224 0.0
C641 C 0.21724 0.44781 0.9394 0.0
O642 O 0.18083 0.45544 0.97367 0.0
C643 C 0.10757 0.48717 0.75005 0.0
Zn644 Zn 0.26208 0.70072 0.4596 0.0
Zn645 Zn 0.16164 0.63147 0.4693 0.0
O646 O 0.19256 0.6088 0.39696 0.0
O647 O 0.23098 0.686 0.38125 0.0
O648 O 0.09456 0.59161 0.4712 0.0
O649 O 0.2521 0.68991 0.54082 0.0
O650 O 0.19308 0.62565 0.54527 0.0
C651 C 0.20762 0.64366 0.36383 0.0
C652 C 0.15393 0.73801 0.4286 0.0
O653 O 0.13262 0.70316 0.45719 0.0
O654 O 0.20229 0.73916 0.42237 0.0
C655 C 0.07699 0.5666 0.43026 0.0
O656 O 0.10499 0.56174 0.38786 0.0
C657 C 0.22588 0.65736 0.5682 0.0
Zn658 Zn 0.78792 0.27872 0.30992 0.0
Zn659 Zn 0.8698 0.31427 0.32857 0.0
O660 O 0.87261 0.30268 0.24489 0.0
O661 O 0.79145 0.28851 0.2287 0.0
O662 O 0.93467 0.34858 0.3453 0.0
O663 O 0.75559 0.32688 0.36789 0.0
O664 O 0.82902 0.36929 0.37255 0.0
C665 C 0.83625 0.29261 0.21153 0.0
C666 C 0.84538 0.20477 0.36773 0.0
O667 O 0.87545 0.24541 0.37014 0.0
O668 O 0.80571 0.20534 0.33842 0.0
C669 C 0.94553 0.35401 0.39436 0.0
O670 O 0.9157 0.33244 0.42994 0.0
C671 C 0.78472 0.36158 0.39105 0.0
loop_
_geom_bond_atom_site_label_1
_geom_bond_atom_site_label_2
_geom_bond_distance
_geom_bond_site_symmetry_2
_ccdc_geom_bond_type
Zn0 O3 2.031 . S
Zn0 O5 2.049 . S
Zn0 O10 2.067 . S
Zn1 O2 1.962 . S
Zn1 O4 1.986 . S
Zn1 O6 1.996 . S
Zn1 O9 1.943 . S
O2 Zn1 1.962 . S
O2 C7 1.254 . S
O3 Zn0 2.031 . S
O3 C7 1.269 . S
O4 Zn1 1.986 . S
O4 C11 1.262 . S
O5 Zn0 2.049 . S
O5 C13 1.260 . S
O6 Zn1 1.996 . S
O6 C13 1.257 . S
C7 O2 1.254 . S
C7 O3 1.269 . S
C8 O9 1.249 . S
C8 O10 1.270 . S
O9 Zn1 1.943 . S
O9 C8 1.249 . S
O10 Zn0 2.067 . S
O10 C8 1.270 . S
C11 O4 1.262 . S
C11 O12 1.232 . S
O12 C11 1.232 . S
C13 O5 1.260 . S
C13 O6 1.257 . S
Zn14 O17 2.031 . S
Zn14 O19 2.049 . S
Zn14 O24 2.067 . S
Zn15 O16 1.962 . S
Zn15 O18 1.986 . S
Zn15 O20 1.996 . S
Zn15 O23 1.943 . S
O16 Zn15 1.962 . S
O16 C21 1.254 . S
O17 Zn14 2.031 . S
O17 C21 1.269 . S
O18 Zn15 1.986 . S
O18 C25 1.262 . S
O19 Zn14 2.049 . S
O19 C27 1.260 . S
O20 Zn15 1.996 . S
O20 C27 1.257 . S
C21 O16 1.254 . S
C21 O17 1.269 . S
C22 O23 1.249 . S
C22 O24 1.270 . S
O23 Zn15 1.943 . S
O23 C22 1.249 . S
O24 Zn14 2.067 . S
O24 C22 1.270 . S
C25 O18 1.262 . S
C25 O26 1.232 . S
O26 C25 1.232 . S
C27 O19 1.260 . S
C27 O20 1.257 . S
Zn28 O31 2.031 . S
Zn28 O33 2.049 . S
Zn28 O38 2.067 . S
Zn29 O30 1.962 . S
Zn29 O32 1.986 . S
Zn29 O34 1.996 . S
Zn29 O37 1.943 . S
O30 Zn29 1.962 . S
O30 C35 1.254 . S
O31 Zn28 2.031 . S
O31 C35 1.269 . S
O32 Zn29 1.986 . S
O32 C39 1.262 . S
O33 Zn28 2.049 . S
O33 C41 1.260 . S
O34 Zn29 1.996 . S
O34 C41 1.257 . S
C35 O30 1.254 . S
C35 O31 1.269 . S
C36 O37 1.249 . S
C36 O38 1.270 . S
O37 Zn29 1.943 . S
O37 C36 1.249 . S
O38 Zn28 2.067 . S
O38 C36 1.270 . S
C39 O32 1.262 . S
C39 O40 1.232 . S
O40 C39 1.232 . S
C41 O33 1.260 . S
C41 O34 1.257 . S
Zn42 O45 2.031 . S
Zn42 O47 2.049 . S
Zn42 O52 2.067 . S
Zn43 O44 1.962 . S
Zn43 O46 1.986 . S
Zn43 O48 1.996 . S
Zn43 O51 1.943 . S
O44 Zn43 1.962 . S
O44 C49 1.254 . S
O45 Zn42 2.031 . S
O45 C49 1.269 . S
O46 Zn43 1.986 . S
O46 C53 1.262 . S
O47 Zn42 2.049 . S
O47 C55 1.260 . S
O48 Zn43 1.996 . S
O48 C55 1.257 . S
C49 O44 1.254 . S
C49 O45 1.269 . S
C50 O51 1.249 . S
C50 O52 1.270 . S
O51 Zn43 1.943 . S
O51 C50 1.249 . S
O52 Zn42 2.067 . S
O52 C50 1.270 . S
C53 O46 1.262 . S
C53 O54 1.232 . S
O54 C53 1.232 . S
C55 O47 1.260 . S
C55 O48 1.257 . S
Zn56 O59 2.031 . S
Zn56 O61 2.049 . S
Zn56 O66 2.067 . S
Zn57 O58 1.962 . S
Zn57 O60 1.986 . S
Zn57 O62 1.996 . S
Zn57 O65 1.943 . S
O58 Zn57 1.962 . S
O58 C63 1.254 . S
O59 Zn56 2.031 . S
O59 C63 1.269 . S
O60 Zn57 1.986 . S
O60 C67 1.262 . S
O61 Zn56 2.049 . S
O61 C69 1.260 . S
O62 Zn57 1.996 . S
O62 C69 1.257 . S
C63 O58 1.254 . S
C63 O59 1.269 . S
C64 O65 1.249 . S
C64 O66 1.270 . S
O65 Zn57 1.943 . S
O65 C64 1.249 . S
O66 Zn56 2.067 . S
O66 C64 1.270 . S
C67 O60 1.262 . S
C67 O68 1.232 . S
O68 C67 1.232 . S
C69 O61 1.260 . S
C69 O62 1.257 . S
Zn70 O73 2.031 . S
Zn70 O75 2.049 . S
Zn70 O80 2.067 . S
Zn71 O72 1.962 . S
Zn71 O74 1.986 . S
Zn71 O76 1.996 . S
Zn71 O79 1.943 . S
O72 Zn71 1.962 . S
O72 C77 1.254 . S
O73 Zn70 2.031 . S
O73 C77 1.269 . S
O74 Zn71 1.986 . S
O74 C81 1.262 . S
O75 Zn70 2.049 . S
O75 C83 1.260 . S
O76 Zn71 1.996 . S
O76 C83 1.257 . S
C77 O72 1.254 . S
C77 O73 1.269 . S
C78 O79 1.249 . S
C78 O80 1.270 . S
O79 Zn71 1.943 . S
O79 C78 1.249 . S
O80 Zn70 2.067 . S
O80 C78 1.270 . S
C81 O74 1.262 . S
C81 O82 1.232 . S
O82 C81 1.232 . S
C83 O75 1.260 . S
C83 O76 1.257 . S
Zn84 O87 2.031 . S
Zn84 O89 2.049 . S
Zn84 O94 2.067 . S
Zn85 O86 1.962 . S
Zn85 O88 1.986 . S
Zn85 O90 1.996 . S
Zn85 O93 1.943 . S
O86 Zn85 1.962 . S
O86 C91 1.254 . S
O87 Zn84 2.031 . S
O87 C91 1.269 . S
O88 Zn85 1.986 . S
O88 C95 1.262 . S
O89 Zn84 2.049 . S
O89 C97 1.260 . S
O90 Zn85 1.996 . S
O90 C97 1.257 . S
C91 O86 1.254 . S
C91 O87 1.269 . S
C92 O93 1.249 . S
C92 O94 1.270 . S
O93 Zn85 1.943 . S
O93 C92 1.249 . S
O94 Zn84 2.067 . S
O94 C92 1.270 . S
C95 O88 1.262 . S
C95 O96 1.232 . S
O96 C95 1.232 . S
C97 O89 1.260 . S
C97 O90 1.257 . S
Zn98 O101 2.031 . S
Zn98 O103 2.049 . S
Zn98 O108 2.067 . S
Zn99 O100 1.962 . S
Zn99 O102 1.986 . S
Zn99 O104 1.996 . S
Zn99 O107 1.943 . S
O100 Zn99 1.962 . S
O100 C105 1.254 . S
O101 Zn98 2.031 . S
O101 C105 1.269 . S
O102 Zn99 1.986 . S
O102 C109 1.262 . S
O103 Zn98 2.049 . S
O103 C111 1.260 . S
O104 Zn99 1.996 . S
O104 C111 1.257 . S
C105 O100 1.254 . S
C105 O101 1.269 . S
C106 O107 1.249 . S
C106 O108 1.270 . S
O107 Zn99 1.943 . S
O107 C106 1.249 . S
O108 Zn98 2.067 . S
O108 C106 1.270 . S
C109 O102 1.262 . S
C109 O110 1.232 . S
O110 C109 1.232 . S
C111 O103 1.260 . S
C111 O104 1.257 . S
Zn112 O115 2.031 . S
Zn112 O117 2.049 . S
Zn112 O122 2.067 . S
Zn113 O114 1.962 . S
Zn113 O116 1.986 . S
Zn113 O118 1.996 . S
Zn113 O121 1.943 . S
O114 Zn113 1.962 . S
O114 C119 1.254 . S
O115 Zn112 2.031 . S
O115 C119 1.269 . S
O116 Zn113 1.986 . S
O116 C123 1.262 . S
O117 Zn112 2.049 . S
O117 C125 1.260 . S
O118 Zn113 1.996 . S
O118 C125 1.257 . S
C119 O114 1.254 . S
C119 O115 1.269 . S
C120 O121 1.249 . S
C120 O122 1.270 . S
O121 Zn113 1.943 . S
O121 C120 1.249 . S
O122 Zn112 2.067 . S
O122 C120 1.270 . S
C123 O116 1.262 . S
C123 O124 1.232 . S
O124 C123 1.232 . S
C125 O117 1.260 . S
C125 O118 1.257 . S
Zn126 O129 2.031 . S
Zn126 O131 2.049 . S
Zn126 O136 2.067 . S
Zn127 O128 1.962 . S
Zn127 O130 1.986 . S
Zn127 O132 1.996 . S
Zn127 O135 1.943 . S
O128 Zn127 1.962 . S
O128 C133 1.254 . S
O129 Zn126 2.031 . S
O129 C133 1.269 . S
O130 Zn127 1.986 . S
O130 C137 1.262 . S
O131 Zn126 2.049 . S
O131 C139 1.260 . S
O132 Zn127 1.996 . S
O132 C139 1.257 . S
C133 O128 1.254 . S
C133 O129 1.269 . S
C134 O135 1.249 . S
C134 O136 1.270 . S
O135 Zn127 1.943 . S
O135 C134 1.249 . S
O136 Zn126 2.067 . S
O136 C134 1.270 . S
C137 O130 1.262 . S
C137 O138 1.232 . S
O138 C137 1.232 . S
C139 O131 1.260 . S
C139 O132 1.257 . S
Zn140 O143 2.031 . S
Zn140 O145 2.049 . S
Zn140 O150 2.067 . S
Zn141 O142 1.962 . S
Zn141 O144 1.986 . S
Zn141 O146 1.996 . S
Zn141 O149 1.943 . S
O142 Zn141 1.962 . S
O142 C147 1.254 . S
O143 Zn140 2.031 . S
O143 C147 1.269 . S
O144 Zn141 1.986 . S
O144 C151 1.262 . S
O145 Zn140 2.049 . S
O145 C153 1.260 . S
O146 Zn141 1.996 . S
O146 C153 1.257 . S
C147 O142 1.254 . S
C147 O143 1.269 . S
C148 O149 1.249 . S
C148 O150 1.270 . S
O149 Zn141 1.943 . S
O149 C148 1.249 . S
O150 Zn140 2.067 . S
O150 C148 1.270 . S
C151 O144 1.262 . S
C151 O152 1.232 . S
O152 C151 1.232 . S
C153 O145 1.260 . S
C153 O146 1.257 . S
Zn154 O157 2.031 . S
Zn154 O159 2.049 . S
Zn154 O164 2.067 . S
Zn155 O156 1.962 . S
Zn155 O158 1.986 . S
Zn155 O160 1.996 . S
Zn155 O163 1.943 . S
O156 Zn155 1.962 . S
O156 C161 1.254 . S
O157 Zn154 2.031 . S
O157 C161 1.269 . S
O158 Zn155 1.986 . S
O158 C165 1.262 . S
O159 Zn154 2.049 . S
O159 C167 1.260 . S
O160 Zn155 1.996 . S
O160 C167 1.257 . S
C161 O156 1.254 . S
C161 O157 1.269 . S
C162 O163 1.249 . S
C162 O164 1.270 . S
O163 Zn155 1.943 . S
O163 C162 1.249 . S
O164 Zn154 2.067 . S
O164 C162 1.270 . S
C165 O158 1.262 . S
C165 O166 1.232 . S
O166 C165 1.232 . S
C167 O159 1.260 . S
C167 O160 1.257 . S
Zn168 O171 2.031 . S
Zn168 O173 2.049 . S
Zn168 O178 2.067 . S
Zn169 O170 1.962 . S
Zn169 O172 1.986 . S
Zn169 O174 1.996 . S
Zn169 O177 1.943 . S
O170 Zn169 1.962 . S
O170 C175 1.254 . S
O171 Zn168 2.031 . S
O171 C175 1.269 . S
O172 Zn169 1.986 . S
O172 C179 1.262 . S
O173 Zn168 2.049 . S
O173 C181 1.260 . S
O174 Zn169 1.996 . S
O174 C181 1.257 . S
C175 O170 1.254 . S
C175 O171 1.269 . S
C176 O177 1.249 . S
C176 O178 1.270 . S
O177 Zn169 1.943 . S
O177 C176 1.249 . S
O178 Zn168 2.067 . S
O178 C176 1.270 . S
C179 O172 1.262 . S
C179 O180 1.232 . S
O180 C179 1.232 . S
C181 O173 1.260 . S
C181 O174 1.257 . S
Zn182 O185 2.031 . S
Zn182 O187 2.049 . S
Zn182 O192 2.067 . S
Zn183 O184 1.962 . S
Zn183 O186 1.986 . S
Zn183 O188 1.996 . S
Zn183 O191 1.943 . S
O184 Zn183 1.962 . S
O184 C189 1.254 . S
O185 Zn182 2.031 . S
O185 C189 1.269 . S
O186 Zn183 1.986 . S
O186 C193 1.262 . S
O187 Zn182 2.049 . S
O187 C195 1.260 . S
O188 Zn183 1.996 . S
O188 C195 1.257 . S
C189 O184 1.254 . S
C189 O185 1.269 . S
C190 O191 1.249 . S
C190 O192 1.270 . S
O191 Zn183 1.943 . S
O191 C190 1.249 . S
O192 Zn182 2.067 . S
O192 C190 1.270 . S
C193 O186 1.262 . S
C193 O194 1.232 . S
O194 C193 1.232 . S
C195 O187 1.260 . S
C195 O188 1.257 . S
Zn196 O199 2.031 . S
Zn196 O201 2.049 . S
Zn196 O206 2.067 . S
Zn197 O198 1.962 . S
Zn197 O200 1.986 . S
Zn197 O202 1.996 . S
Zn197 O205 1.943 . S
O198 Zn197 1.962 . S
O198 C203 1.254 . S
O199 Zn196 2.031 . S
O199 C203 1.269 . S
O200 Zn197 1.986 . S
O200 C207 1.262 . S
O201 Zn196 2.049 . S
O201 C209 1.260 . S
O202 Zn197 1.996 . S
O202 C209 1.257 . S
C203 O198 1.254 . S
C203 O199 1.269 . S
C204 O205 1.249 . S
C204 O206 1.270 . S
O205 Zn197 1.943 . S
O205 C204 1.249 . S
O206 Zn196 2.067 . S
O206 C204 1.270 . S
C207 O200 1.262 . S
C207 O208 1.232 . S
O208 C207 1.232 . S
C209 O201 1.260 . S
C209 O202 1.257 . S
Zn210 O213 2.031 . S
Zn210 O215 2.049 . S
Zn210 O220 2.067 . S
Zn211 O212 1.962 . S
Zn211 O214 1.986 . S
Zn211 O216 1.996 . S
Zn211 O219 1.943 . S
O212 Zn211 1.962 . S
O212 C217 1.254 . S
O213 Zn210 2.031 . S
O213 C217 1.269 . S
O214 Zn211 1.986 . S
O214 C221 1.262 . S
O215 Zn210 2.049 . S
O215 C223 1.260 . S
O216 Zn211 1.996 . S
O216 C223 1.257 . S
C217 O212 1.254 . S
C217 O213 1.269 . S
C218 O219 1.249 . S
C218 O220 1.270 . S
O219 Zn211 1.943 . S
O219 C218 1.249 . S
O220 Zn210 2.067 . S
O220 C218 1.270 . S
C221 O214 1.262 . S
C221 O222 1.232 . S
O222 C221 1.232 . S
C223 O215 1.260 . S
C223 O216 1.257 . S
Zn224 O227 2.031 1_655 S
Zn224 O229 2.049 . S
Zn224 O234 2.067 1_655 S
Zn225 O226 1.962 . S
Zn225 O228 1.986 . S
Zn225 O230 1.996 . S
Zn225 O233 1.943 . S
O226 Zn225 1.962 . S
O226 C231 1.254 . S
O227 Zn224 2.031 1_455 S
O227 C231 1.269 . S
O228 Zn225 1.986 . S
O228 C235 1.262 . S
O229 Zn224 2.049 . S
O229 C237 1.260 1_655 S
O230 Zn225 1.996 . S
O230 C237 1.257 . S
C231 O226 1.254 . S
C231 O227 1.269 . S
C232 O233 1.249 . S
C232 O234 1.270 . S
O233 Zn225 1.943 . S
O233 C232 1.249 . S
O234 Zn224 2.067 1_455 S
O234 C232 1.270 . S
C235 O228 1.262 . S
C235 O236 1.232 . S
O236 C235 1.232 . S
C237 O229 1.260 1_455 S
C237 O230 1.257 . S
Zn238 O241 2.031 . S
Zn238 O243 2.049 . S
Zn238 O248 2.067 . S
Zn239 O240 1.962 . S
Zn239 O242 1.986 . S
Zn239 O244 1.996 . S
Zn239 O247 1.943 . S
O240 Zn239 1.962 . S
O240 C245 1.254 . S
O241 Zn238 2.031 . S
O241 C245 1.269 . S
O242 Zn239 1.986 . S
O242 C249 1.262 . S
O243 Zn238 2.049 . S
O243 C251 1.260 . S
O244 Zn239 1.996 . S
O244 C251 1.257 . S
C245 O240 1.254 . S
C245 O241 1.269 . S
C246 O247 1.249 . S
C246 O248 1.270 . S
O247 Zn239 1.943 . S
O247 C246 1.249 . S
O248 Zn238 2.067 . S
O248 C246 1.270 . S
C249 O242 1.262 . S
C249 O250 1.232 . S
O250 C249 1.232 . S
C251 O243 1.260 . S
C251 O244 1.257 . S
Zn252 O255 2.031 . S
Zn252 O257 2.049 . S
Zn252 O262 2.067 . S
Zn253 O254 1.962 . S
Zn253 O256 1.986 . S
Zn253 O258 1.996 . S
Zn253 O261 1.943 . S
O254 Zn253 1.962 . S
O254 C259 1.254 . S
O255 Zn252 2.031 . S
O255 C259 1.269 . S
O256 Zn253 1.986 . S
O256 C263 1.262 1_655 S
O257 Zn252 2.049 . S
O257 C265 1.260 . S
O258 Zn253 1.996 . S
O258 C265 1.257 . S
C259 O254 1.254 . S
C259 O255 1.269 . S
C260 O261 1.249 . S
C260 O262 1.270 . S
O261 Zn253 1.943 . S
O261 C260 1.249 . S
O262 Zn252 2.067 . S
O262 C260 1.270 . S
C263 O256 1.262 1_455 S
C263 O264 1.232 . S
O264 C263 1.232 . S
C265 O257 1.260 . S
C265 O258 1.257 . S
Zn266 O269 2.031 . S
Zn266 O271 2.049 . S
Zn266 O276 2.067 . S
Zn267 O268 1.962 . S
Zn267 O270 1.986 . S
Zn267 O272 1.996 . S
Zn267 O275 1.943 . S
O268 Zn267 1.962 . S
O268 C273 1.254 . S
O269 Zn266 2.031 . S
O269 C273 1.269 . S
O270 Zn267 1.986 . S
O270 C277 1.262 . S
O271 Zn266 2.049 . S
O271 C279 1.260 . S
O272 Zn267 1.996 . S
O272 C279 1.257 . S
C273 O268 1.254 . S
C273 O269 1.269 . S
C274 O275 1.249 . S
C274 O276 1.270 . S
O275 Zn267 1.943 . S
O275 C274 1.249 . S
O276 Zn266 2.067 . S
O276 C274 1.270 . S
C277 O270 1.262 . S
C277 O278 1.232 . S
O278 C277 1.232 . S
C279 O271 1.260 . S
C279 O272 1.257 . S
Zn280 O283 2.031 . S
Zn280 O285 2.049 . S
Zn280 O290 2.067 . S
Zn281 O282 1.962 . S
Zn281 O284 1.986 . S
Zn281 O286 1.996 . S
Zn281 O289 1.943 . S
O282 Zn281 1.962 . S
O282 C287 1.254 . S
O283 Zn280 2.031 . S
O283 C287 1.269 . S
O284 Zn281 1.986 . S
O284 C291 1.262 1_455 S
O285 Zn280 2.049 . S
O285 C293 1.260 . S
O286 Zn281 1.996 . S
O286 C293 1.257 . S
C287 O282 1.254 . S
C287 O283 1.269 . S
C288 O289 1.249 . S
C288 O290 1.270 . S
O289 Zn281 1.943 . S
O289 C288 1.249 . S
O290 Zn280 2.067 . S
O290 C288 1.270 . S
C291 O284 1.262 1_655 S
C291 O292 1.232 . S
O292 C291 1.232 . S
C293 O285 1.260 . S
C293 O286 1.257 . S
Zn294 O297 2.031 1_455 S
Zn294 O299 2.049 . S
Zn294 O304 2.067 1_455 S
Zn295 O296 1.962 . S
Zn295 O298 1.986 . S
Zn295 O300 1.996 . S
Zn295 O303 1.943 . S
O296 Zn295 1.962 . S
O296 C301 1.254 . S
O297 Zn294 2.031 1_655 S
O297 C301 1.269 . S
O298 Zn295 1.986 . S
O298 C305 1.262 . S
O299 Zn294 2.049 . S
O299 C307 1.260 1_455 S
O300 Zn295 1.996 . S
O300 C307 1.257 . S
C301 O296 1.254 . S
C301 O297 1.269 . S
C302 O303 1.249 . S
C302 O304 1.270 . S
O303 Zn295 1.943 . S
O303 C302 1.249 . S
O304 Zn294 2.067 1_655 S
O304 C302 1.270 . S
C305 O298 1.262 . S
C305 O306 1.232 . S
O306 C305 1.232 . S
C307 O299 1.260 1_655 S
C307 O300 1.257 . S
Zn308 O311 2.031 . S
Zn308 O313 2.049 . S
Zn308 O318 2.067 . S
Zn309 O310 1.962 . S
Zn309 O312 1.986 . S
Zn309 O314 1.996 . S
Zn309 O317 1.943 . S
O310 Zn309 1.962 . S
O310 C315 1.254 . S
O311 Zn308 2.031 . S
O311 C315 1.269 . S
O312 Zn309 1.986 . S
O312 C319 1.262 . S
O313 Zn308 2.049 . S
O313 C321 1.260 . S
O314 Zn309 1.996 . S
O314 C321 1.257 . S
C315 O310 1.254 . S
C315 O311 1.269 . S
C316 O317 1.249 . S
C316 O318 1.270 . S
O317 Zn309 1.943 . S
O317 C316 1.249 . S
O318 Zn308 2.067 . S
O318 C316 1.270 . S
C319 O312 1.262 . S
C319 O320 1.232 . S
O320 C319 1.232 . S
C321 O313 1.260 . S
C321 O314 1.257 . S
Zn322 O325 2.031 . S
Zn322 O327 2.049 . S
Zn322 O332 2.067 . S
Zn323 O324 1.962 . S
Zn323 O326 1.986 . S
Zn323 O328 1.996 . S
Zn323 O331 1.943 . S
O324 Zn323 1.962 . S
O324 C329 1.254 . S
O325 Zn322 2.031 . S
O325 C329 1.269 . S
O326 Zn323 1.986 . S
O326 C333 1.262 . S
O327 Zn322 2.049 . S
O327 C335 1.260 . S
O328 Zn323 1.996 . S
O328 C335 1.257 . S
C329 O324 1.254 . S
C329 O325 1.269 . S
C330 O331 1.249 . S
C330 O332 1.270 . S
O331 Zn323 1.943 . S
O331 C330 1.249 . S
O332 Zn322 2.067 . S
O332 C330 1.270 . S
C333 O326 1.262 . S
C333 O334 1.232 . S
O334 C333 1.232 . S
C335 O327 1.260 . S
C335 O328 1.257 . S
Zn336 O339 2.031 . S
Zn336 O341 2.049 . S
Zn336 O346 2.067 . S
Zn337 O338 1.962 . S
Zn337 O340 1.986 . S
Zn337 O342 1.996 . S
Zn337 O345 1.943 . S
O338 Zn337 1.962 . S
O338 C343 1.254 . S
O339 Zn336 2.031 . S
O339 C343 1.269 . S
O340 Zn337 1.986 . S
O340 C347 1.262 . S
O341 Zn336 2.049 . S
O341 C349 1.260 . S
O342 Zn337 1.996 . S
O342 C349 1.257 . S
C343 O338 1.254 . S
C343 O339 1.269 . S
C344 O345 1.249 . S
C344 O346 1.270 . S
O345 Zn337 1.943 . S
O345 C344 1.249 . S
O346 Zn336 2.067 . S
O346 C344 1.270 . S
C347 O340 1.262 . S
C347 O348 1.232 . S
O348 C347 1.232 . S
C349 O341 1.260 . S
C349 O342 1.257 . S
Zn350 O353 2.031 . S
Zn350 O355 2.049 . S
Zn350 O360 2.067 . S
Zn351 O352 1.962 . S
Zn351 O354 1.986 . S
Zn351 O356 1.996 . S
Zn351 O359 1.943 . S
O352 Zn351 1.962 . S
O352 C357 1.254 . S
O353 Zn350 2.031 . S
O353 C357 1.269 . S
O354 Zn351 1.986 . S
O354 C361 1.262 . S
O355 Zn350 2.049 . S
O355 C363 1.260 . S
O356 Zn351 1.996 . S
O356 C363 1.257 . S
C357 O352 1.254 . S
C357 O353 1.269 . S
C358 O359 1.249 . S
C358 O360 1.270 . S
O359 Zn351 1.943 . S
O359 C358 1.249 . S
O360 Zn350 2.067 . S
O360 C358 1.270 . S
C361 O354 1.262 . S
C361 O362 1.232 . S
O362 C361 1.232 . S
C363 O355 1.260 . S
C363 O356 1.257 . S
Zn364 O367 2.031 . S
Zn364 O369 2.049 . S
Zn364 O374 2.067 . S
Zn365 O366 1.962 . S
Zn365 O368 1.986 . S
Zn365 O370 1.996 . S
Zn365 O373 1.943 . S
O366 Zn365 1.962 . S
O366 C371 1.254 . S
O367 Zn364 2.031 . S
O367 C371 1.269 . S
O368 Zn365 1.986 . S
O368 C375 1.262 . S
O369 Zn364 2.049 . S
O369 C377 1.260 . S
O370 Zn365 1.996 . S
O370 C377 1.257 . S
C371 O366 1.254 . S
C371 O367 1.269 . S
C372 O373 1.249 . S
C372 O374 1.270 . S
O373 Zn365 1.943 . S
O373 C372 1.249 . S
O374 Zn364 2.067 . S
O374 C372 1.270 . S
C375 O368 1.262 . S
C375 O376 1.232 . S
O376 C375 1.232 . S
C377 O369 1.260 . S
C377 O370 1.257 . S
Zn378 O381 2.031 . S
Zn378 O383 2.049 . S
Zn378 O388 2.067 . S
Zn379 O380 1.962 . S
Zn379 O382 1.986 . S
Zn379 O384 1.996 . S
Zn379 O387 1.943 . S
O380 Zn379 1.962 . S
O380 C385 1.254 . S
O381 Zn378 2.031 . S
O381 C385 1.269 . S
O382 Zn379 1.986 . S
O382 C389 1.262 . S
O383 Zn378 2.049 . S
O383 C391 1.260 . S
O384 Zn379 1.996 . S
O384 C391 1.257 . S
C385 O380 1.254 . S
C385 O381 1.269 . S
C386 O387 1.249 . S
C386 O388 1.270 . S
O387 Zn379 1.943 . S
O387 C386 1.249 . S
O388 Zn378 2.067 . S
O388 C386 1.270 . S
C389 O382 1.262 . S
C389 O390 1.232 . S
O390 C389 1.232 . S
C391 O383 1.260 . S
C391 O384 1.257 . S
Zn392 O395 2.031 . S
Zn392 O397 2.049 . S
Zn392 O402 2.067 . S
Zn393 O394 1.962 . S
Zn393 O396 1.986 . S
Zn393 O398 1.996 . S
Zn393 O401 1.943 . S
O394 Zn393 1.962 . S
O394 C399 1.254 . S
O395 Zn392 2.031 . S
O395 C399 1.269 . S
O396 Zn393 1.986 . S
O396 C403 1.262 . S
O397 Zn392 2.049 . S
O397 C405 1.260 . S
O398 Zn393 1.996 . S
O398 C405 1.257 . S
C399 O394 1.254 . S
C399 O395 1.269 . S
C400 O401 1.249 . S
C400 O402 1.270 . S
O401 Zn393 1.943 . S
O401 C400 1.249 . S
O402 Zn392 2.067 . S
O402 C400 1.270 . S
C403 O396 1.262 . S
C403 O404 1.232 . S
O404 C403 1.232 . S
C405 O397 1.260 . S
C405 O398 1.257 . S
Zn406 O409 2.031 . S
Zn406 O411 2.049 . S
Zn406 O416 2.067 . S
Zn407 O408 1.962 . S
Zn407 O410 1.986 . S
Zn407 O412 1.996 . S
Zn407 O415 1.943 . S
O408 Zn407 1.962 . S
O408 C413 1.254 . S
O409 Zn406 2.031 . S
O409 C413 1.269 . S
O410 Zn407 1.986 . S
O410 C417 1.262 . S
O411 Zn406 2.049 . S
O411 C419 1.260 . S
O412 Zn407 1.996 . S
O412 C419 1.257 . S
C413 O408 1.254 . S
C413 O409 1.269 . S
C414 O415 1.249 . S
C414 O416 1.270 . S
O415 Zn407 1.943 . S
O415 C414 1.249 . S
O416 Zn406 2.067 . S
O416 C414 1.270 . S
C417 O410 1.262 . S
C417 O418 1.232 . S
O418 C417 1.232 . S
C419 O411 1.260 . S
C419 O412 1.257 . S
Zn420 O423 2.031 . S
Zn420 O425 2.049 . S
Zn420 O430 2.067 . S
Zn421 O422 1.962 . S
Zn421 O424 1.986 . S
Zn421 O426 1.996 . S
Zn421 O429 1.943 . S
O422 Zn421 1.962 . S
O422 C427 1.254 . S
O423 Zn420 2.031 . S
O423 C427 1.269 . S
O424 Zn421 1.986 . S
O424 C431 1.262 . S
O425 Zn420 2.049 . S
O425 C433 1.260 . S
O426 Zn421 1.996 . S
O426 C433 1.257 . S
C427 O422 1.254 . S
C427 O423 1.269 . S
C428 O429 1.249 . S
C428 O430 1.270 . S
O429 Zn421 1.943 . S
O429 C428 1.249 . S
O430 Zn420 2.067 . S
O430 C428 1.270 . S
C431 O424 1.262 . S
C431 O432 1.232 . S
O432 C431 1.232 . S
C433 O425 1.260 . S
C433 O426 1.257 . S
Zn434 O437 2.031 . S
Zn434 O439 2.049 . S
Zn434 O444 2.067 . S
Zn435 O436 1.962 . S
Zn435 O438 1.986 . S
Zn435 O440 1.996 . S
Zn435 O443 1.943 . S
O436 Zn435 1.962 . S
O436 C441 1.254 . S
O437 Zn434 2.031 . S
O437 C441 1.269 . S
O438 Zn435 1.986 . S
O438 C445 1.262 . S
O439 Zn434 2.049 . S
O439 C447 1.260 . S
O440 Zn435 1.996 . S
O440 C447 1.257 . S
C441 O436 1.254 . S
C441 O437 1.269 . S
C442 O443 1.249 . S
C442 O444 1.270 . S
O443 Zn435 1.943 . S
O443 C442 1.249 . S
O444 Zn434 2.067 . S
O444 C442 1.270 . S
C445 O438 1.262 . S
C445 O446 1.232 . S
O446 C445 1.232 . S
C447 O439 1.260 . S
C447 O440 1.257 . S
Zn448 O451 2.031 . S
Zn448 O453 2.049 . S
Zn448 O458 2.067 . S
Zn449 O450 1.962 . S
Zn449 O452 1.986 . S
Zn449 O454 1.996 . S
Zn449 O457 1.943 . S
O450 Zn449 1.962 . S
O450 C455 1.254 . S
O451 Zn448 2.031 . S
O451 C455 1.269 . S
O452 Zn449 1.986 . S
O452 C459 1.262 . S
O453 Zn448 2.049 . S
O453 C461 1.260 . S
O454 Zn449 1.996 . S
O454 C461 1.257 . S
C455 O450 1.254 . S
C455 O451 1.269 . S
C456 O457 1.249 . S
C456 O458 1.270 . S
O457 Zn449 1.943 . S
O457 C456 1.249 . S
O458 Zn448 2.067 . S
O458 C456 1.270 . S
C459 O452 1.262 . S
C459 O460 1.232 . S
O460 C459 1.232 . S
C461 O453 1.260 . S
C461 O454 1.257 . S
Zn462 O465 2.031 . S
Zn462 O467 2.049 . S
Zn462 O472 2.067 . S
Zn463 O464 1.962 . S
Zn463 O466 1.986 . S
Zn463 O468 1.996 . S
Zn463 O471 1.943 . S
O464 Zn463 1.962 . S
O464 C469 1.254 . S
O465 Zn462 2.031 . S
O465 C469 1.269 . S
O466 Zn463 1.986 . S
O466 C473 1.262 . S
O467 Zn462 2.049 . S
O467 C475 1.260 . S
O468 Zn463 1.996 . S
O468 C475 1.257 . S
C469 O464 1.254 . S
C469 O465 1.269 . S
C470 O471 1.249 . S
C470 O472 1.270 . S
O471 Zn463 1.943 . S
O471 C470 1.249 . S
O472 Zn462 2.067 . S
O472 C470 1.270 . S
C473 O466 1.262 . S
C473 O474 1.232 . S
O474 C473 1.232 . S
C475 O467 1.260 . S
C475 O468 1.257 . S
Zn476 O479 2.031 . S
Zn476 O481 2.049 . S
Zn476 O486 2.067 . S
Zn477 O478 1.962 . S
Zn477 O480 1.986 . S
Zn477 O482 1.996 . S
Zn477 O485 1.943 . S
O478 Zn477 1.962 . S
O478 C483 1.254 . S
O479 Zn476 2.031 . S
O479 C483 1.269 . S
O480 Zn477 1.986 . S
O480 C487 1.262 . S
O481 Zn476 2.049 . S
O481 C489 1.260 . S
O482 Zn477 1.996 . S
O482 C489 1.257 . S
C483 O478 1.254 . S
C483 O479 1.269 . S
C484 O485 1.249 . S
C484 O486 1.270 . S
O485 Zn477 1.943 . S
O485 C484 1.249 . S
O486 Zn476 2.067 . S
O486 C484 1.270 . S
C487 O480 1.262 . S
C487 O488 1.232 . S
O488 C487 1.232 . S
C489 O481 1.260 . S
C489 O482 1.257 . S
Zn490 O493 2.031 . S
Zn490 O495 2.049 . S
Zn490 O500 2.067 . S
Zn491 O492 1.962 . S
Zn491 O494 1.986 . S
Zn491 O496 1.996 . S
Zn491 O499 1.943 . S
O492 Zn491 1.962 . S
O492 C497 1.254 . S
O493 Zn490 2.031 . S
O493 C497 1.269 . S
O494 Zn491 1.986 . S
O494 C501 1.262 . S
O495 Zn490 2.049 . S
O495 C503 1.260 . S
O496 Zn491 1.996 . S
O496 C503 1.257 . S
C497 O492 1.254 . S
C497 O493 1.269 . S
C498 O499 1.249 . S
C498 O500 1.270 . S
O499 Zn491 1.943 . S
O499 C498 1.249 . S
O500 Zn490 2.067 . S
O500 C498 1.270 . S
C501 O494 1.262 . S
C501 O502 1.232 . S
O502 C501 1.232 . S
C503 O495 1.260 . S
C503 O496 1.257 . S
Zn504 O507 2.031 . S
Zn504 O509 2.049 . S
Zn504 O514 2.067 . S
Zn505 O506 1.962 . S
Zn505 O508 1.986 . S
Zn505 O510 1.996 . S
Zn505 O513 1.943 . S
O506 Zn505 1.962 . S
O506 C511 1.254 . S
O507 Zn504 2.031 . S
O507 C511 1.269 . S
O508 Zn505 1.986 . S
O508 C515 1.262 . S
O509 Zn504 2.049 . S
O509 C517 1.260 . S
O510 Zn505 1.996 . S
O510 C517 1.257 . S
C511 O506 1.254 . S
C511 O507 1.269 . S
C512 O513 1.249 . S
C512 O514 1.270 . S
O513 Zn505 1.943 . S
O513 C512 1.249 . S
O514 Zn504 2.067 . S
O514 C512 1.270 . S
C515 O508 1.262 . S
C515 O516 1.232 . S
O516 C515 1.232 . S
C517 O509 1.260 . S
C517 O510 1.257 . S
Zn518 O521 2.031 . S
Zn518 O523 2.049 . S
Zn518 O528 2.067 . S
Zn519 O520 1.962 . S
Zn519 O522 1.986 . S
Zn519 O524 1.996 . S
Zn519 O527 1.943 . S
O520 Zn519 1.962 . S
O520 C525 1.254 . S
O521 Zn518 2.031 . S
O521 C525 1.269 . S
O522 Zn519 1.986 . S
O522 C529 1.262 . S
O523 Zn518 2.049 . S
O523 C531 1.260 . S
O524 Zn519 1.996 . S
O524 C531 1.257 . S
C525 O520 1.254 . S
C525 O521 1.269 . S
C526 O527 1.249 . S
C526 O528 1.270 . S
O527 Zn519 1.943 . S
O527 C526 1.249 . S
O528 Zn518 2.067 . S
O528 C526 1.270 . S
C529 O522 1.262 . S
C529 O530 1.232 . S
O530 C529 1.232 . S
C531 O523 1.260 . S
C531 O524 1.257 . S
Zn532 O535 2.031 . S
Zn532 O537 2.049 . S
Zn532 O542 2.067 . S
Zn533 O534 1.962 . S
Zn533 O536 1.986 . S
Zn533 O538 1.996 . S
Zn533 O541 1.943 . S
O534 Zn533 1.962 . S
O534 C539 1.254 . S
O535 Zn532 2.031 . S
O535 C539 1.269 . S
O536 Zn533 1.986 . S
O536 C543 1.262 . S
O537 Zn532 2.049 . S
O537 C545 1.260 . S
O538 Zn533 1.996 . S
O538 C545 1.257 . S
C539 O534 1.254 . S
C539 O535 1.269 . S
C540 O541 1.249 . S
C540 O542 1.270 . S
O541 Zn533 1.943 . S
O541 C540 1.249 . S
O542 Zn532 2.067 . S
O542 C540 1.270 . S
C543 O536 1.262 . S
C543 O544 1.232 . S
O544 C543 1.232 . S
C545 O537 1.260 . S
C545 O538 1.257 . S
Zn546 O549 2.031 . S
Zn546 O551 2.049 . S
Zn546 O556 2.067 . S
Zn547 O548 1.962 . S
Zn547 O550 1.986 . S
Zn547 O552 1.996 . S
Zn547 O555 1.943 . S
O548 Zn547 1.962 . S
O548 C553 1.254 . S
O549 Zn546 2.031 . S
O549 C553 1.269 . S
O550 Zn547 1.986 . S
O550 C557 1.262 . S
O551 Zn546 2.049 . S
O551 C559 1.260 . S
O552 Zn547 1.996 . S
O552 C559 1.257 . S
C553 O548 1.254 . S
C553 O549 1.269 . S
C554 O555 1.249 . S
C554 O556 1.270 . S
O555 Zn547 1.943 . S
O555 C554 1.249 . S
O556 Zn546 2.067 . S
O556 C554 1.270 . S
C557 O550 1.262 . S
C557 O558 1.232 . S
O558 C557 1.232 . S
C559 O551 1.260 . S
C559 O552 1.257 . S
Zn560 O563 2.037 . S
Zn560 O565 2.049 . S
Zn560 O570 2.075 . S
Zn561 O562 1.962 . S
Zn561 O564 1.986 . S
Zn561 O566 1.996 . S
Zn561 O569 1.943 . S
O562 Zn561 1.962 . S
O562 C567 1.254 . S
O563 Zn560 2.037 . S
O563 C567 1.269 . S
O564 Zn561 1.986 . S
O564 C571 1.262 . S
O565 Zn560 2.049 . S
O565 C573 1.260 . S
O566 Zn561 1.996 . S
O566 C573 1.257 . S
C567 O562 1.254 . S
C567 O563 1.269 . S
C568 O569 1.249 . S
C568 O570 1.270 . S
O569 Zn561 1.943 . S
O569 C568 1.249 . S
O570 Zn560 2.075 . S
O570 C568 1.270 . S
C571 O564 1.262 . S
C571 O572 1.232 . S
O572 C571 1.232 . S
C573 O565 1.260 . S
C573 O566 1.257 . S
Zn574 O577 2.031 . S
Zn574 O579 2.049 . S
Zn574 O584 2.067 . S
Zn575 O576 1.962 . S
Zn575 O578 1.986 . S
Zn575 O580 1.996 . S
Zn575 O583 1.943 . S
O576 Zn575 1.962 . S
O576 C581 1.254 . S
O577 Zn574 2.031 . S
O577 C581 1.269 . S
O578 Zn575 1.986 . S
O578 C585 1.262 . S
O579 Zn574 2.049 . S
O579 C587 1.260 . S
O580 Zn575 1.996 . S
O580 C587 1.257 . S
C581 O576 1.254 . S
C581 O577 1.269 . S
C582 O583 1.249 . S
C582 O584 1.270 . S
O583 Zn575 1.943 . S
O583 C582 1.249 . S
O584 Zn574 2.067 . S
O584 C582 1.270 . S
C585 O578 1.262 . S
C585 O586 1.232 . S
O586 C585 1.232 . S
C587 O579 1.260 . S
C587 O580 1.257 . S
Zn588 O591 2.031 . S
Zn588 O593 2.049 . S
Zn588 O598 2.067 . S
Zn589 O590 1.962 . S
Zn589 O592 1.986 . S
Zn589 O594 1.996 . S
Zn589 O597 1.943 . S
O590 Zn589 1.962 . S
O590 C595 1.254 . S
O591 Zn588 2.031 . S
O591 C595 1.269 . S
O592 Zn589 1.986 . S
O592 C599 1.262 1_455 S
O593 Zn588 2.049 . S
O593 C601 1.260 . S
O594 Zn589 1.996 . S
O594 C601 1.257 . S
C595 O590 1.254 . S
C595 O591 1.269 . S
C596 O597 1.249 . S
C596 O598 1.270 . S
O597 Zn589 1.943 . S
O597 C596 1.249 . S
O598 Zn588 2.067 . S
O598 C596 1.270 . S
C599 O592 1.262 1_655 S
C599 O600 1.232 1_655 S
O600 C599 1.232 1_455 S
C601 O593 1.260 . S
C601 O594 1.257 . S
Zn602 O605 2.031 . S
Zn602 O607 2.049 . S
Zn602 O612 2.067 . S
Zn603 O604 1.962 . S
Zn603 O606 1.986 . S
Zn603 O608 1.996 . S
Zn603 O611 1.943 . S
O604 Zn603 1.962 . S
O604 C609 1.254 . S
O605 Zn602 2.031 . S
O605 C609 1.269 . S
O606 Zn603 1.986 . S
O606 C613 1.262 . S
O607 Zn602 2.049 . S
O607 C615 1.260 . S
O608 Zn603 1.996 . S
O608 C615 1.257 . S
C609 O604 1.254 . S
C609 O605 1.269 . S
C610 O611 1.249 . S
C610 O612 1.270 . S
O611 Zn603 1.943 . S
O611 C610 1.249 . S
O612 Zn602 2.067 . S
O612 C610 1.270 . S
C613 O606 1.262 . S
C613 O614 1.232 . S
O614 C613 1.232 . S
C615 O607 1.260 . S
C615 O608 1.257 . S
Zn616 O619 2.031 . S
Zn616 O621 2.049 . S
Zn616 O626 2.067 . S
Zn617 O618 1.962 . S
Zn617 O620 1.986 . S
Zn617 O622 1.996 . S
Zn617 O625 1.943 . S
O618 Zn617 1.962 . S
O618 C623 1.254 . S
O619 Zn616 2.031 . S
O619 C623 1.269 . S
O620 Zn617 1.986 . S
O620 C627 1.262 1_655 S
O621 Zn616 2.049 . S
O621 C629 1.260 . S
O622 Zn617 1.996 . S
O622 C629 1.257 . S
C623 O618 1.254 . S
C623 O619 1.269 . S
C624 O625 1.249 . S
C624 O626 1.270 . S
O625 Zn617 1.943 . S
O625 C624 1.249 . S
O626 Zn616 2.067 . S
O626 C624 1.270 . S
C627 O620 1.262 1_455 S
C627 O628 1.232 1_455 S
O628 C627 1.232 1_655 S
C629 O621 1.260 . S
C629 O622 1.257 . S
Zn630 O633 2.037 . S
Zn630 O635 2.049 . S
Zn630 O640 2.075 . S
Zn631 O632 1.962 . S
Zn631 O634 1.986 . S
Zn631 O636 1.996 . S
Zn631 O639 1.943 . S
O632 Zn631 1.962 . S
O632 C637 1.254 . S
O633 Zn630 2.037 . S
O633 C637 1.269 . S
O634 Zn631 1.986 . S
O634 C641 1.262 . S
O635 Zn630 2.049 . S
O635 C643 1.260 . S
O636 Zn631 1.996 . S
O636 C643 1.257 . S
C637 O632 1.254 . S
C637 O633 1.269 . S
C638 O639 1.249 . S
C638 O640 1.270 . S
O639 Zn631 1.943 . S
O639 C638 1.249 . S
O640 Zn630 2.075 . S
O640 C638 1.270 . S
C641 O634 1.262 . S
C641 O642 1.232 . S
O642 C641 1.232 . S
C643 O635 1.260 . S
C643 O636 1.257 . S
Zn644 O647 2.031 . S
Zn644 O649 2.049 . S
Zn644 O654 2.067 . S
Zn645 O646 1.962 . S
Zn645 O648 1.986 . S
Zn645 O650 1.996 . S
Zn645 O653 1.943 . S
O646 Zn645 1.962 . S
O646 C651 1.254 . S
O647 Zn644 2.031 . S
O647 C651 1.269 . S
O648 Zn645 1.986 . S
O648 C655 1.262 . S
O649 Zn644 2.049 . S
O649 C657 1.260 . S
O650 Zn645 1.996 . S
O650 C657 1.257 . S
C651 O646 1.254 . S
C651 O647 1.269 . S
C652 O653 1.249 . S
C652 O654 1.270 . S
O653 Zn645 1.943 . S
O653 C652 1.249 . S
O654 Zn644 2.067 . S
O654 C652 1.270 . S
C655 O648 1.262 . S
C655 O656 1.232 . S
O656 C655 1.232 . S
C657 O649 1.260 . S
C657 O650 1.257 . S
Zn658 O661 2.031 . S
Zn658 O663 2.049 . S
Zn658 O668 2.067 . S
Zn659 O660 1.962 . S
Zn659 O662 1.986 . S
Zn659 O664 1.996 . S
Zn659 O667 1.943 . S
O660 Zn659 1.962 . S
O660 C665 1.254 . S
O661 Zn658 2.031 . S
O661 C665 1.269 . S
O662 Zn659 1.986 . S
O662 C669 1.262 . S
O663 Zn658 2.049 . S
O663 C671 1.260 . S
O664 Zn659 1.996 . S
O664 C671 1.257 . S
C665 O660 1.254 . S
C665 O661 1.269 . S
C666 O667 1.249 . S
C666 O668 1.270 . S
O667 Zn659 1.943 . S
O667 C666 1.249 . S
O668 Zn658 2.067 . S
O668 C666 1.270 . S
C669 O662 1.262 . S
C669 O670 1.232 . S
O670 C669 1.232 . S
C671 O663 1.260 . S
C671 O664 1.257 . S
C288 C8 1.770 . S
C25 C249 0.951 . S
C36 C260 1.770 . S
C277 C53 0.951 . S
C330 C67 1.306 . S
C81 C305 1.136 . S
C95 C316 1.306 . S
C109 C235 1.136 . S
C120 C218 1.641 . S
C137 C176 1.492 . S
C148 C190 1.641 . S
C204 C165 1.492 . S
C347 C624 1.765 . S
C585 C361 1.035 . S
C375 C596 1.765 . S
C613 C389 1.035 . S
C400 C666 1.770 . S
C641 C417 1.252 . S
C428 C652 1.770 . S
C571 C445 1.252 . S
C456 C557 1.626 . S
C512 C470 1.944 . S
C529 C484 1.626 . S
C540 C498 1.944 . S
C372 C11 1.136 . S
C22 C386 1.114 1_556 S
C39 C344 1.136 . S
C50 C358 1.114 1_556 S
C64 C431 1.191 . S
C442 C78 1.060 1_556 S
C403 C92 1.191 . S
C414 C106 1.060 1_556 S
C515 C123 0.813 . S
C134 C526 1.199 1_565 S
C543 C151 0.813 . S
C162 C554 1.199 1_545 S
C179 C459 0.803 . S
C193 C473 1.046 1_565 S
C487 C207 0.803 . S
C501 C221 1.046 1_565 S
C232 C610 1.128 . S
C246 C638 1.113 . S
C655 C263 0.827 . S
C568 C274 1.113 . S
C291 C669 0.827 . S
C582 C302 1.128 . S
C319 C599 0.851 . S
C333 C627 0.851 . S
C405 C7 2.260 1_655 S
C413 C27 2.290 . S
C433 C35 2.260 1_455 S
C55 C441 2.290 . S
C343 C69 2.291 1_655 S
C357 C83 2.109 . S
C97 C371 2.291 1_655 S
C385 C111 2.109 . S
C119 C545 2.300 1_545 S
C139 C553 2.191 . S
C517 C147 2.300 1_545 S
C167 C525 2.191 . S
C489 C175 2.192 1_545 S
C189 C503 2.240 . S
C203 C461 2.192 1_545 S
C217 C475 2.240 . S
C637 C237 2.072 1_556 S
C251 C609 2.338 1_556 S
C259 C629 2.139 . S
C279 C581 2.339 1_556 S
C601 C287 2.139 . S
C567 C307 2.072 1_556 S
C671 C315 2.397 . S
C329 C657 2.397 . S
C223 C13 3.159 . S
C21 C181 3.932 . S
C195 C41 3.159 . S
C209 C49 3.932 . S
C133 C63 3.086 . S
C77 C153 3.517 . S
C91 C161 3.086 . S
C125 C105 3.517 . S
C231 C293 3.523 . S
C335 C245 3.958 . S
C301 C265 3.523 . S
C273 C321 3.958 . S
C559 C349 3.250 . S
C511 C363 4.292 . S
C377 C531 3.250 . S
C539 C391 4.292 . S
C469 C399 3.286 . S
C419 C483 3.944 . S
C427 C497 3.286 . S
C447 C455 3.944 . S
C573 C623 3.830 . S
C665 C587 4.439 . S
C643 C595 3.830 . S
C651 C615 4.439 . S
