# Generated by pormake.
# Topology ums, (4)-cn, num edge types: 1
# Building blocks:
#     Node 0, Type 0, BuildingBlock: QUQFOY_clean_sbu_3, # of connection points: 4
#     Node 1, Type 0, BuildingBlock: QUQFOY_clean_sbu_3, # of connection points: 4
#     Node 2, Type 0, BuildingBlock: QUQFOY_clean_sbu_3, # of connection points: 4
#     Node 3, Type 0, BuildingBlock: QUQFOY_clean_sbu_3, # of connection points: 4
#     Node 4, Type 0, BuildingBlock: QUQFOY_clean_sbu_3, # of connection points: 4
#     Node 5, Type 0, BuildingBlock: QUQFOY_clean_sbu_3, # of connection points: 4
#     Node 6, Type 0, BuildingBlock: QUQFOY_clean_sbu_3, # of connection points: 4
#     Node 7, Type 0, BuildingBlock: QUQFOY_clean_sbu_3, # of connection points: 4
#     Node 8, Type 0, BuildingBlock: QUQFOY_clean_sbu_3, # of connection points: 4
#     Node 9, Type 0, BuildingBlock: QUQFOY_clean_sbu_3, # of connection points: 4
#     Node 10, Type 0, BuildingBlock: QUQFOY_clean_sbu_3, # of connection points: 4
#     Node 11, Type 0, BuildingBlock: QUQFOY_clean_sbu_3, # of connection points: 4
#     Node 12, Type 0, BuildingBlock: QUQFOY_clean_sbu_3, # of connection points: 4
#     Node 13, Type 0, BuildingBlock: QUQFOY_clean_sbu_3, # of connection points: 4
#     Node 14, Type 0, BuildingBlock: QUQFOY_clean_sbu_3, # of connection points: 4
#     Node 15, Type 0, BuildingBlock: QUQFOY_clean_sbu_3, # of connection points: 4
#     Node 16, Type 0, BuildingBlock: QUQFOY_clean_sbu_3, # of connection points: 4
#     Node 17, Type 0, BuildingBlock: QUQFOY_clean_sbu_3, # of connection points: 4
#     Node 18, Type 0, BuildingBlock: QUQFOY_clean_sbu_3, # of connection points: 4
#     Node 19, Type 0, BuildingBlock: QUQFOY_clean_sbu_3, # of connection points: 4
#     Node 20, Type 0, BuildingBlock: QUQFOY_clean_sbu_3, # of connection points: 4
#     Node 21, Type 0, BuildingBlock: QUQFOY_clean_sbu_3, # of connection points: 4
#     Node 22, Type 0, BuildingBlock: QUQFOY_clean_sbu_3, # of connection points: 4
#     Node 23, Type 0, BuildingBlock: QUQFOY_clean_sbu_3, # of connection points: 4
#     Node 24, Type 0, BuildingBlock: QUQFOY_clean_sbu_3, # of connection points: 4
#     Node 25, Type 0, BuildingBlock: QUQFOY_clean_sbu_3, # of connection points: 4
#     Node 26, Type 0, BuildingBlock: QUQFOY_clean_sbu_3, # of connection points: 4
#     Node 27, Type 0, BuildingBlock: QUQFOY_clean_sbu_3, # of connection points: 4
#     Node 28, Type 0, BuildingBlock: QUQFOY_clean_sbu_3, # of connection points: 4
#     Node 29, Type 0, BuildingBlock: QUQFOY_clean_sbu_3, # of connection points: 4
#     Node 30, Type 0, BuildingBlock: QUQFOY_clean_sbu_3, # of connection points: 4
#     Node 31, Type 0, BuildingBlock: QUQFOY_clean_sbu_3, # of connection points: 4
#     Node 32, Type 0, BuildingBlock: QUQFOY_clean_sbu_3, # of connection points: 4
#     Node 33, Type 0, BuildingBlock: QUQFOY_clean_sbu_3, # of connection points: 4
#     Node 34, Type 0, BuildingBlock: QUQFOY_clean_sbu_3, # of connection points: 4
#     Node 35, Type 0, BuildingBlock: QUQFOY_clean_sbu_3, # of connection points: 4
#     Edge 36, Type (0, 0), BuildingBlock: KIFKEQ_clean_linker_1, # of connection points: 2
#     Edge 37, Type (0, 0), BuildingBlock: KIFKEQ_clean_linker_1, # of connection points: 2
#     Edge 38, Type (0, 0), BuildingBlock: KIFKEQ_clean_linker_1, # of connection points: 2
#     Edge 39, Type (0, 0), BuildingBlock: KIFKEQ_clean_linker_1, # of connection points: 2
#     Edge 40, Type (0, 0), BuildingBlock: KIFKEQ_clean_linker_1, # of connection points: 2
#     Edge 41, Type (0, 0), BuildingBlock: KIFKEQ_clean_linker_1, # of connection points: 2
#     Edge 42, Type (0, 0), BuildingBlock: KIFKEQ_clean_linker_1, # of connection points: 2
#     Edge 43, Type (0, 0), BuildingBlock: KIFKEQ_clean_linker_1, # of connection points: 2
#     Edge 44, Type (0, 0), BuildingBlock: KIFKEQ_clean_linker_1, # of connection points: 2
#     Edge 45, Type (0, 0), BuildingBlock: KIFKEQ_clean_linker_1, # of connection points: 2
#     Edge 46, Type (0, 0), BuildingBlock: KIFKEQ_clean_linker_1, # of connection points: 2
#     Edge 47, Type (0, 0), BuildingBlock: KIFKEQ_clean_linker_1, # of connection points: 2
#     Edge 48, Type (0, 0), BuildingBlock: KIFKEQ_clean_linker_1, # of connection points: 2
#     Edge 49, Type (0, 0), BuildingBlock: KIFKEQ_clean_linker_1, # of connection points: 2
#     Edge 50, Type (0, 0), BuildingBlock: KIFKEQ_clean_linker_1, # of connection points: 2
#     Edge 51, Type (0, 0), BuildingBlock: KIFKEQ_clean_linker_1, # of connection points: 2
#     Edge 52, Type (0, 0), BuildingBlock: KIFKEQ_clean_linker_1, # of connection points: 2
#     Edge 53, Type (0, 0), BuildingBlock: KIFKEQ_clean_linker_1, # of connection points: 2
#     Edge 54, Type (0, 0), BuildingBlock: KIFKEQ_clean_linker_1, # of connection points: 2
#     Edge 55, Type (0, 0), BuildingBlock: KIFKEQ_clean_linker_1, # of connection points: 2
#     Edge 56, Type (0, 0), BuildingBlock: KIFKEQ_clean_linker_1, # of connection points: 2
#     Edge 57, Type (0, 0), BuildingBlock: KIFKEQ_clean_linker_1, # of connection points: 2
#     Edge 58, Type (0, 0), BuildingBlock: KIFKEQ_clean_linker_1, # of connection points: 2
#     Edge 59, Type (0, 0), BuildingBlock: KIFKEQ_clean_linker_1, # of connection points: 2
#     Edge 60, Type (0, 0), BuildingBlock: KIFKEQ_clean_linker_1, # of connection points: 2
#     Edge 61, Type (0, 0), BuildingBlock: KIFKEQ_clean_linker_1, # of connection points: 2
#     Edge 62, Type (0, 0), BuildingBlock: KIFKEQ_clean_linker_1, # of connection points: 2
#     Edge 63, Type (0, 0), BuildingBlock: KIFKEQ_clean_linker_1, # of connection points: 2
#     Edge 64, Type (0, 0), BuildingBlock: KIFKEQ_clean_linker_1, # of connection points: 2
#     Edge 65, Type (0, 0), BuildingBlock: KIFKEQ_clean_linker_1, # of connection points: 2
#     Edge 66, Type (0, 0), BuildingBlock: KIFKEQ_clean_linker_1, # of connection points: 2
#     Edge 67, Type (0, 0), BuildingBlock: KIFKEQ_clean_linker_1, # of connection points: 2
#     Edge 68, Type (0, 0), BuildingBlock: KIFKEQ_clean_linker_1, # of connection points: 2
#     Edge 69, Type (0, 0), BuildingBlock: KIFKEQ_clean_linker_1, # of connection points: 2
#     Edge 70, Type (0, 0), BuildingBlock: KIFKEQ_clean_linker_1, # of connection points: 2
#     Edge 71, Type (0, 0), BuildingBlock: KIFKEQ_clean_linker_1, # of connection points: 2
#     Edge 72, Type (0, 0), BuildingBlock: KIFKEQ_clean_linker_1, # of connection points: 2
#     Edge 73, Type (0, 0), BuildingBlock: KIFKEQ_clean_linker_1, # of connection points: 2
#     Edge 74, Type (0, 0), BuildingBlock: KIFKEQ_clean_linker_1, # of connection points: 2
#     Edge 75, Type (0, 0), BuildingBlock: KIFKEQ_clean_linker_1, # of connection points: 2
#     Edge 76, Type (0, 0), BuildingBlock: KIFKEQ_clean_linker_1, # of connection points: 2
#     Edge 77, Type (0, 0), BuildingBlock: KIFKEQ_clean_linker_1, # of connection points: 2
#     Edge 78, Type (0, 0), BuildingBlock: KIFKEQ_clean_linker_1, # of connection points: 2
#     Edge 79, Type (0, 0), BuildingBlock: KIFKEQ_clean_linker_1, # of connection points: 2
#     Edge 80, Type (0, 0), BuildingBlock: KIFKEQ_clean_linker_1, # of connection points: 2
#     Edge 81, Type (0, 0), BuildingBlock: KIFKEQ_clean_linker_1, # of connection points: 2
#     Edge 82, Type (0, 0), BuildingBlock: KIFKEQ_clean_linker_1, # of connection points: 2
#     Edge 83, Type (0, 0), BuildingBlock: KIFKEQ_clean_linker_1, # of connection points: 2
#     Edge 84, Type (0, 0), BuildingBlock: KIFKEQ_clean_linker_1, # of connection points: 2
#     Edge 85, Type (0, 0), BuildingBlock: KIFKEQ_clean_linker_1, # of connection points: 2
#     Edge 86, Type (0, 0), BuildingBlock: KIFKEQ_clean_linker_1, # of connection points: 2
#     Edge 87, Type (0, 0), BuildingBlock: KIFKEQ_clean_linker_1, # of connection points: 2
#     Edge 88, Type (0, 0), BuildingBlock: KIFKEQ_clean_linker_1, # of connection points: 2
#     Edge 89, Type (0, 0), BuildingBlock: KIFKEQ_clean_linker_1, # of connection points: 2
#     Edge 90, Type (0, 0), BuildingBlock: KIFKEQ_clean_linker_1, # of connection points: 2
#     Edge 91, Type (0, 0), BuildingBlock: KIFKEQ_clean_linker_1, # of connection points: 2
#     Edge 92, Type (0, 0), BuildingBlock: KIFKEQ_clean_linker_1, # of connection points: 2
#     Edge 93, Type (0, 0), BuildingBlock: KIFKEQ_clean_linker_1, # of connection points: 2
#     Edge 94, Type (0, 0), BuildingBlock: KIFKEQ_clean_linker_1, # of connection points: 2
#     Edge 95, Type (0, 0), BuildingBlock: KIFKEQ_clean_linker_1, # of connection points: 2
#     Edge 96, Type (0, 0), BuildingBlock: KIFKEQ_clean_linker_1, # of connection points: 2
#     Edge 97, Type (0, 0), BuildingBlock: KIFKEQ_clean_linker_1, # of connection points: 2
#     Edge 98, Type (0, 0), BuildingBlock: KIFKEQ_clean_linker_1, # of connection points: 2
#     Edge 99, Type (0, 0), BuildingBlock: KIFKEQ_clean_linker_1, # of connection points: 2
#     Edge 100, Type (0, 0), BuildingBlock: KIFKEQ_clean_linker_1, # of connection points: 2
#     Edge 101, Type (0, 0), BuildingBlock: KIFKEQ_clean_linker_1, # of connection points: 2
#     Edge 102, Type (0, 0), BuildingBlock: KIFKEQ_clean_linker_1, # of connection points: 2
#     Edge 103, Type (0, 0), BuildingBlock: KIFKEQ_clean_linker_1, # of connection points: 2
#     Edge 104, Type (0, 0), BuildingBlock: KIFKEQ_clean_linker_1, # of connection points: 2
#     Edge 105, Type (0, 0), BuildingBlock: KIFKEQ_clean_linker_1, # of connection points: 2
#     Edge 106, Type (0, 0), BuildingBlock: KIFKEQ_clean_linker_1, # of connection points: 2
#     Edge 107, Type (0, 0), BuildingBlock: KIFKEQ_clean_linker_1, # of connection points: 2
# Relax obj value: 0.190
# Max RMSD: 0.142
# Mean RMSD: 0.141
data_MOF--net-ums--node1-QUQFOY_clean_sbu_3--edge1-KIFKEQ_clean_linker_1
_symmetry_space_group_name_H-M    P1
_symmetry_Int_Tables_number       1
_symmetry_cell_setting            triclinic
loop_
_symmetry_equiv_pos_as_xyz
'x, y, z'
_cell_length_a     105.76059
_cell_length_b     105.81527
_cell_length_c     24.358301
_cell_angle_alpha  89.964347
_cell_angle_beta   90.040326
_cell_angle_gamma 120.03703
loop_
_atom_site_label
_atom_site_type_symbol
_atom_site_fract_x
_atom_site_fract_y
_atom_site_fract_z
_atom_type_partial_charge
C0 C 0.18972 0.2987 0.23483 0.0
O1 O 0.18409 0.30334 0.26972 0.0
Cd2 Cd 0.16416 0.28723 0.32844 0.0
O3 O 0.18608 0.28526 0.23398 0.0
Cd4 Cd 0.17056 0.26235 0.28515 0.0
C5 C 0.14233 0.26377 0.22641 0.0
O6 O 0.17049 0.27153 0.37672 0.0
O7 O 0.15382 0.24927 0.35988 0.0
O8 O 0.19144 0.25885 0.29289 0.0
C9 C 0.15987 0.25963 0.39422 0.0
O10 O 0.14462 0.27353 0.26198 0.0
C11 C 0.18513 0.24607 0.27274 0.0
O12 O 0.15055 0.25818 0.22386 0.0
O13 O 0.17196 0.24087 0.25716 0.0
C14 C 0.68973 0.89042 0.2182 0.0
O15 O 0.68527 0.88027 0.25366 0.0
Cd16 Cd 0.70182 0.87576 0.30612 0.0
O17 O 0.70327 0.89989 0.21466 0.0
Cd18 Cd 0.72698 0.90735 0.26122 0.0
C19 C 0.72386 0.87767 0.19695 0.0
O20 O 0.71818 0.89776 0.35299 0.0
O21 O 0.74059 0.90413 0.33537 0.0
O22 O 0.73013 0.93175 0.26141 0.0
C23 C 0.73019 0.89916 0.36968 0.0
O24 O 0.71402 0.8702 0.2323 0.0
C25 C 0.74335 0.93813 0.24569 0.0
O26 O 0.73038 0.89157 0.19716 0.0
O27 O 0.74898 0.93017 0.23652 0.0
C28 C 0.09533 0.79088 0.22347 0.0
O29 O 0.10384 0.79303 0.26364 0.0
Cd30 Cd 0.1099 0.81328 0.3239 0.0
O31 O 0.08772 0.79714 0.22162 0.0
Cd32 Cd 0.08087 0.81215 0.27916 0.0
C33 C 0.11227 0.83822 0.22509 0.0
O34 O 0.08843 0.80932 0.37086 0.0
O35 O 0.08513 0.82769 0.35792 0.0
O36 O 0.05609 0.7919 0.27324 0.0
C37 C 0.08832 0.82038 0.39067 0.0
O38 O 0.11838 0.83341 0.25753 0.0
C39 C 0.05038 0.79961 0.26097 0.0
O40 O 0.09842 0.83248 0.22377 0.0
O41 O 0.05891 0.8133 0.25633 0.0
C42 C 0.28796 0.18803 0.28666 0.0
O43 O 0.291 0.18081 0.25278 0.0
Cd44 Cd 0.27271 0.16048 0.2013 0.0
O45 O 0.27497 0.18577 0.29032 0.0
Cd46 Cd 0.2507 0.1709 0.24631 0.0
C47 C 0.25024 0.14241 0.31141 0.0
O48 O 0.258 0.16826 0.15446 0.0
O49 O 0.23543 0.15362 0.17558 0.0
O50 O 0.24907 0.19284 0.2357 0.0
C51 C 0.24544 0.15821 0.13965 0.0
O52 O 0.259 0.14298 0.27428 0.0
C53 C 0.23666 0.1877 0.25856 0.0
O54 O 0.24586 0.15165 0.31243 0.0
O55 O 0.23086 0.17473 0.27696 0.0
C56 C 0.7969 0.09746 0.23917 0.0
O57 O 0.80245 0.10726 0.20235 0.0
Cd58 Cd 0.8217 0.10985 0.1429 0.0
O59 O 0.80018 0.0874 0.24166 0.0
Cd60 Cd 0.81466 0.07854 0.19085 0.0
C61 C 0.84361 0.10831 0.24534 0.0
O62 O 0.81371 0.08699 0.09881 0.0
O63 O 0.83005 0.08083 0.11247 0.0
O64 O 0.79293 0.05454 0.19713 0.0
C65 C 0.82384 0.08523 0.07926 0.0
O66 O 0.84137 0.11565 0.20899 0.0
C67 C 0.7997 0.04791 0.21051 0.0
O68 O 0.83519 0.09455 0.2494 0.0
O69 O 0.81349 0.05556 0.21554 0.0
C70 C 0.891 0.69724 0.26215 0.0
O71 O 0.88109 0.69312 0.22581 0.0
Cd72 Cd 0.87857 0.70987 0.16662 0.0
O73 O 0.90116 0.71055 0.26469 0.0
Cd74 Cd 0.90998 0.73394 0.21404 0.0
C75 C 0.88055 0.73369 0.26825 0.0
O76 O 0.90147 0.72443 0.12231 0.0
O77 O 0.9077 0.74696 0.13521 0.0
O78 O 0.93379 0.73588 0.21929 0.0
C79 C 0.9033 0.7363 0.10231 0.0
O80 O 0.87312 0.7241 0.23205 0.0
C81 C 0.94066 0.74928 0.2325 0.0
O82 O 0.89427 0.73882 0.27261 0.0
O83 O 0.93322 0.75562 0.238 0.0
C84 C 0.79863 0.69025 0.74344 0.0
O85 O 0.80637 0.68811 0.70894 0.0
Cd86 Cd 0.82598 0.70696 0.65721 0.0
O87 O 0.80041 0.703 0.75015 0.0
Cd88 Cd 0.81582 0.72797 0.71149 0.0
C89 C 0.84539 0.72821 0.76694 0.0
O90 O 0.81699 0.72151 0.61694 0.0
O91 O 0.83234 0.74375 0.63873 0.0
O92 O 0.79441 0.73084 0.70887 0.0
C93 C 0.8269 0.73405 0.60171 0.0
O94 O 0.8446 0.71998 0.72736 0.0
C95 C 0.80021 0.74282 0.73507 0.0
O96 O 0.83591 0.73221 0.77227 0.0
O97 O 0.81328 0.74781 0.75134 0.0
C98 C 0.27326 0.08448 0.83297 0.0
O99 O 0.27433 0.07981 0.78643 0.0
Cd100 Cd 0.25115 0.07814 0.75641 0.0
O101 O 0.26165 0.08475 0.84244 0.0
Cd102 Cd 0.24279 0.07375 0.76254 0.0
C103 C 0.23878 0.09493 0.82589 0.0
O104 O 0.25365 0.08481 0.66729 0.0
O105 O 0.23286 0.08256 0.68868 0.0
O106 O 0.24376 0.05114 0.7518 0.0
C107 C 0.2429 0.08625 0.65317 0.0
O108 O 0.25033 0.09938 0.79786 0.0
C109 C 0.23016 0.04267 0.75903 0.0
O110 O 0.2297 0.08136 0.82508 0.0
O111 O 0.2225 0.04863 0.76811 0.0
C112 C 0.88768 0.19041 0.73318 0.0
O113 O 0.87767 0.18448 0.69728 0.0
Cd114 Cd 0.87469 0.1645 0.64094 0.0
O115 O 0.89761 0.18697 0.73657 0.0
Cd116 Cd 0.90587 0.17153 0.68996 0.0
C117 C 0.87577 0.14315 0.74624 0.0
O118 O 0.89742 0.17138 0.5971 0.0
O119 O 0.90345 0.15511 0.61526 0.0
O120 O 0.93017 0.1927 0.68619 0.0
C121 C 0.89913 0.16099 0.58017 0.0
O122 O 0.86849 0.14525 0.7092 0.0
C123 C 0.93654 0.18664 0.70925 0.0
O124 O 0.88956 0.15148 0.75004 0.0
O125 O 0.92857 0.17341 0.72398 0.0
C126 C 0.70056 0.79376 0.67982 0.0
O127 O 0.69796 0.79029 0.72997 0.0
Cd128 Cd 0.72194 0.8107 0.75546 0.0
O129 O 0.71319 0.80408 0.66762 0.0
Cd130 Cd 0.73179 0.8152 0.74838 0.0
C131 C 0.73339 0.83908 0.68083 0.0
O132 O 0.72165 0.8153 0.84554 0.0
O133 O 0.73984 0.83541 0.8162 0.0
O134 O 0.73365 0.79338 0.76428 0.0
C135 C 0.73115 0.82846 0.85522 0.0
O136 O 0.72198 0.83175 0.70944 0.0
C137 C 0.74734 0.79966 0.75633 0.0
O138 O 0.74305 0.83535 0.68288 0.0
O139 O 0.75382 0.8132 0.7449 0.0
C140 C 0.19543 0.88784 0.72857 0.0
O141 O 0.19083 0.87789 0.76487 0.0
Cd142 Cd 0.17059 0.87304 0.82364 0.0
O143 O 0.1907 0.89678 0.72724 0.0
Cd144 Cd 0.17431 0.90273 0.77944 0.0
C145 C 0.14753 0.87204 0.72157 0.0
O146 O 0.17493 0.8945 0.8725 0.0
O147 O 0.15635 0.89684 0.85126 0.0
O148 O 0.1936 0.9279 0.78841 0.0
C149 C 0.16333 0.89427 0.88776 0.0
O150 O 0.15052 0.86517 0.75755 0.0
C151 C 0.18657 0.93338 0.76618 0.0
O152 O 0.15493 0.88592 0.71858 0.0
O153 O 0.17374 0.92451 0.74916 0.0
C154 C 0.09353 0.29648 0.7356 0.0
O155 O 0.10353 0.30122 0.77176 0.0
Cd156 Cd 0.10734 0.28526 0.83128 0.0
O157 O 0.0839 0.28297 0.7339 0.0
Cd158 Cd 0.0763 0.25991 0.78443 0.0
C159 C 0.10678 0.26246 0.72856 0.0
O160 O 0.08495 0.26905 0.87631 0.0
O161 O 0.07968 0.24687 0.86035 0.0
O162 O 0.05163 0.25582 0.78818 0.0
C163 C 0.08385 0.25728 0.89435 0.0
O164 O 0.11393 0.27217 0.76471 0.0
C165 C 0.04562 0.24322 0.76651 0.0
O166 O 0.09293 0.25652 0.72515 0.0
O167 O 0.05396 0.23833 0.75258 0.0
C168 C 0.85675 0.62603 0.56792 0.0
O169 O 0.84994 0.6292 0.6032 0.0
Cd170 Cd 0.82932 0.61069 0.65258 0.0
O171 O 0.85401 0.61292 0.56278 0.0
Cd172 Cd 0.83876 0.5886 0.60614 0.0
C173 C 0.8111 0.58925 0.54034 0.0
O174 O 0.83609 0.59512 0.69945 0.0
O175 O 0.82002 0.57346 0.67284 0.0
O176 O 0.86028 0.58623 0.61744 0.0
C177 C 0.82522 0.58275 0.71136 0.0
O178 O 0.81176 0.59783 0.57841 0.0
C179 C 0.85501 0.57397 0.5934 0.0
O180 O 0.82012 0.5846 0.53884 0.0
O181 O 0.84212 0.5685 0.57451 0.0
C182 C 0.35924 0.22399 0.59269 0.0
O183 O 0.35522 0.21419 0.6294 0.0
Cd184 Cd 0.37218 0.21212 0.68884 0.0
O185 O 0.37251 0.23424 0.58994 0.0
Cd186 Cd 0.39599 0.24346 0.64042 0.0
C187 C 0.39595 0.21395 0.58736 0.0
O188 O 0.38642 0.23521 0.7323 0.0
O189 O 0.40908 0.24177 0.72055 0.0
O190 O 0.39791 0.26724 0.6318 0.0
C191 C 0.39832 0.2373 0.75305 0.0
O192 O 0.3864 0.20652 0.62369 0.0
C193 C 0.41132 0.27397 0.61851 0.0
O194 O 0.40098 0.22765 0.58287 0.0
O195 O 0.41765 0.26649 0.61492 0.0
C196 C 0.76521 0.13348 0.55558 0.0
O197 O 0.77523 0.13932 0.5915 0.0
Cd198 Cd 0.77853 0.15934 0.64839 0.0
O199 O 0.7554 0.13708 0.55211 0.0
Cd200 Cd 0.74766 0.15292 0.59887 0.0
C201 C 0.77813 0.18117 0.54393 0.0
O202 O 0.75586 0.15284 0.69211 0.0
O203 O 0.75035 0.16945 0.67342 0.0
O204 O 0.72285 0.13252 0.60252 0.0
C205 C 0.75436 0.16338 0.70881 0.0
O206 O 0.78529 0.1789 0.58099 0.0
C207 C 0.71709 0.13906 0.57855 0.0
O208 O 0.76434 0.17296 0.5398 0.0
O209 O 0.72563 0.15213 0.56322 0.0
C210 C 0.96852 0.53182 0.59186 0.0
O211 O 0.9738 0.52777 0.55342 0.0
Cd212 Cd 0.95811 0.50726 0.49681 0.0
O213 O 0.95478 0.5267 0.59505 0.0
Cd214 Cd 0.93202 0.51075 0.54319 0.0
C215 C 0.93628 0.48432 0.60074 0.0
O216 O 0.94049 0.51121 0.44975 0.0
O217 O 0.91952 0.49281 0.47175 0.0
O218 O 0.92715 0.53073 0.53612 0.0
C219 C 0.92905 0.49959 0.43502 0.0
O220 O 0.94653 0.48791 0.56596 0.0
C221 C 0.91454 0.52399 0.55772 0.0
O222 O 0.92909 0.49102 0.60283 0.0
O223 O 0.90999 0.51094 0.5733 0.0
C224 C 0.45813 0.43159 0.58997 0.0
O225 O 0.46329 0.4411 0.55204 0.0
Cd226 Cd 0.48302 0.44393 0.49501 0.0
O227 O 0.46199 0.42198 0.59391 0.0
Cd228 Cd 0.4771 0.41371 0.54439 0.0
C229 C 0.50503 0.44387 0.6 0.0
O230 O 0.47629 0.42126 0.45049 0.0
O231 O 0.49412 0.41765 0.47028 0.0
O232 O 0.45609 0.3892 0.54904 0.0
C233 C 0.4873 0.42054 0.43417 0.0
O234 O 0.50271 0.45091 0.5626 0.0
C235 C 0.46326 0.38315 0.56459 0.0
O236 O 0.4969 0.43008 0.60435 0.0
O237 O 0.47694 0.39135 0.57123 0.0
C238 C 0.56979 0.04523 0.63314 0.0
O239 O 0.57307 0.04347 0.58491 0.0
Cd240 Cd 0.57191 0.06503 0.55342 0.0
O241 O 0.569 0.0566 0.64208 0.0
Cd242 Cd 0.57625 0.07429 0.55835 0.0
C243 C 0.55312 0.07487 0.62433 0.0
O244 O 0.56443 0.06192 0.46522 0.0
O245 O 0.56671 0.08291 0.4833 0.0
O246 O 0.59987 0.07577 0.54389 0.0
C247 C 0.56279 0.07245 0.44957 0.0
O248 O 0.55009 0.06303 0.60055 0.0
C249 C 0.60745 0.08941 0.55248 0.0
O250 O 0.56592 0.08558 0.61795 0.0
O251 O 0.60054 0.09606 0.56349 0.0
C252 C 0.45853 0.02896 0.08562 0.0
O253 O 0.46493 0.02519 0.05067 0.0
Cd254 Cd 0.48575 0.04295 -0.00041 0.0
O255 O 0.46185 0.04228 0.08961 0.0
Cd256 Cd 0.47778 0.06621 0.04535 0.0
C257 C 0.50488 0.06421 0.11061 0.0
O258 O 0.47999 0.05925 0.95205 0.0
O259 O 0.49649 0.0808 0.97806 0.0
O260 O 0.45687 0.06969 0.03531 0.0
C261 C 0.49108 0.07144 0.93984 0.0
O262 O 0.50375 0.05536 0.07285 0.0
C263 C 0.46265 0.08192 0.0598 0.0
O264 O 0.49634 0.06944 0.11195 0.0
O265 O 0.47557 0.08688 0.07793 0.0
C266 C 0.96591 0.43178 0.09346 0.0
O267 O 0.97148 0.44093 0.05455 0.0
Cd268 Cd 0.95621 0.44609 -0.00297 0.0
O269 O 0.95211 0.42343 0.09636 0.0
Cd270 Cd 0.92955 0.41675 0.04311 0.0
C271 C 0.93437 0.44756 0.1006 0.0
O272 O 0.93866 0.42455 0.95 0.0
O273 O 0.91774 0.42238 0.96957 0.0
O274 O 0.92519 0.392 0.04417 0.0
C275 C 0.92746 0.42498 0.93385 0.0
O276 O 0.9447 0.454 0.06592 0.0
C277 C 0.91186 0.38607 0.05811 0.0
O278 O 0.92687 0.43367 0.10276 0.0
O279 O 0.90664 0.39445 0.06585 0.0
C280 C 0.554 0.52658 0.09188 0.0
O281 O 0.54422 0.52204 0.05488 0.0
Cd282 Cd 0.53916 0.50169 -0.00324 0.0
O283 O 0.5628 0.52167 0.09472 0.0
Cd284 Cd 0.56926 0.50519 0.04512 0.0
C285 C 0.5378 0.47828 0.09904 0.0
O286 O 0.56133 0.50655 0.95266 0.0
O287 O 0.56589 0.48912 0.96829 0.0
O288 O 0.59437 0.52487 0.04283 0.0
C289 C 0.56212 0.49573 0.93436 0.0
O290 O 0.53122 0.48205 0.06459 0.0
C291 C 0.5997 0.5178 0.06583 0.0
O292 O 0.5517 0.48496 0.10158 0.0
O293 O 0.59077 0.5047 0.07977 0.0
C294 C 0.35419 0.13242 0.10906 0.0
O295 O 0.35134 0.13896 0.14653 0.0
Cd296 Cd 0.36978 0.15915 0.19742 0.0
O297 O 0.36728 0.13532 0.10069 0.0
Cd298 Cd 0.392 0.1506 0.14215 0.0
C299 C 0.39091 0.17947 0.08784 0.0
O300 O 0.38513 0.15106 0.23685 0.0
O301 O 0.40727 0.16702 0.21575 0.0
O302 O 0.39503 0.12929 0.14179 0.0
C303 C 0.39752 0.16122 0.25247 0.0
O304 O 0.3822 0.17796 0.12673 0.0
C305 C 0.40727 0.13549 0.11728 0.0
O306 O 0.39575 0.17067 0.08273 0.0
O307 O 0.41236 0.14876 0.10355 0.0
C308 C 0.85614 0.22656 0.04982 0.0
O309 O 0.85063 0.21676 0.08666 0.0
Cd310 Cd 0.83147 0.21416 0.14655 0.0
O311 O 0.85289 0.23663 0.04752 0.0
Cd312 Cd 0.83852 0.24553 0.09889 0.0
C313 C 0.8095 0.21581 0.04453 0.0
O314 O 0.83967 0.23706 0.19059 0.0
O315 O 0.82335 0.24329 0.17785 0.0
O316 O 0.86029 0.26944 0.09297 0.0
C317 C 0.82964 0.2389 0.21068 0.0
O318 O 0.81177 0.20845 0.08067 0.0
C319 C 0.8536 0.27619 0.08022 0.0
O320 O 0.81791 0.22958 0.04057 0.0
O321 O 0.8398 0.26862 0.0751 0.0
C322 C 0.74834 0.61111 0.02246 0.0
O323 O 0.74691 0.61347 0.07235 0.0
Cd324 Cd 0.74516 0.59035 0.09874 0.0
O325 O 0.747 0.59883 0.01066 0.0
Cd326 Cd 0.74014 0.5806 0.0929 0.0
C327 C 0.76293 0.57982 0.02505 0.0
O328 O 0.75209 0.59223 0.1869 0.0
O329 O 0.74984 0.57142 0.16594 0.0
O330 O 0.71665 0.5791 0.10981 0.0
C331 C 0.75372 0.58161 0.20092 0.0
O332 O 0.76633 0.59162 0.04975 0.0
C333 C 0.70899 0.56554 0.09971 0.0
O334 O 0.75002 0.56931 0.03122 0.0
O335 O 0.71583 0.55892 0.08695 0.0
C336 C 0.52777 0.96901 0.92394 0.0
O337 O 0.52263 0.97317 0.96245 0.0
Cd338 Cd 0.50101 0.95639 0.01099 0.0
O339 O 0.52285 0.95545 0.91537 0.0
Cd340 Cd 0.50548 0.93158 0.95867 0.0
C341 C 0.47916 0.93636 0.90201 0.0
O342 O 0.50508 0.93835 0.05359 0.0
O343 O 0.48667 0.9179 0.02718 0.0
O344 O 0.52346 0.92403 0.97229 0.0
C345 C 0.49339 0.92673 0.06603 0.0
O346 O 0.48236 0.94619 0.93828 0.0
C347 C 0.51761 0.91327 0.93957 0.0
O348 O 0.486 0.92932 0.89939 0.0
O349 O 0.50607 0.91103 0.91491 0.0
C350 C 0.03197 0.5608 0.91958 0.0
O351 O 0.02728 0.55062 0.95497 0.0
Cd352 Cd 0.04333 0.54679 0.01408 0.0
O353 O 0.04547 0.57042 0.91792 0.0
Cd354 Cd 0.06867 0.57777 0.967 0.0
C355 C 0.06611 0.5472 0.91176 0.0
O356 O 0.05949 0.56928 0.05892 0.0
O357 O 0.0818 0.57483 0.04374 0.0
O358 O 0.07279 0.60241 0.96958 0.0
C359 C 0.07131 0.57058 0.07745 0.0
O360 O 0.05639 0.54006 0.94788 0.0
C361 C 0.08526 0.60831 0.9468 0.0
O362 O 0.07201 0.56103 0.90823 0.0
O363 O 0.09013 0.59994 0.93323 0.0
C364 C 0.42822 0.46855 0.90853 0.0
O365 O 0.43836 0.47427 0.94406 0.0
Cd366 Cd 0.44147 0.49387 0.00281 0.0
O367 O 0.4183 0.47202 0.90666 0.0
Cd368 Cd 0.41013 0.48721 0.95612 0.0
C369 C 0.44004 0.51578 0.90029 0.0
O370 O 0.41873 0.48621 0.04776 0.0
O371 O 0.41247 0.5025 0.03495 0.0
O372 O 0.3861 0.46567 0.94948 0.0
C373 C 0.41701 0.49632 0.06769 0.0
O374 O 0.44742 0.51351 0.93638 0.0
C375 C 0.37958 0.47247 0.93521 0.0
O376 O 0.42625 0.50748 0.89687 0.0
O377 O 0.38728 0.48626 0.93048 0.0
C378 C 0.62058 0.85845 0.90759 0.0
O379 O 0.62426 0.85197 0.87267 0.0
Cd380 Cd 0.60711 0.83221 0.81596 0.0
O381 O 0.60738 0.85562 0.91049 0.0
Cd382 Cd 0.58364 0.84026 0.86311 0.0
C383 C 0.5838 0.81108 0.91939 0.0
O384 O 0.59189 0.83962 0.77092 0.0
O385 O 0.56963 0.82326 0.78925 0.0
O386 O 0.57896 0.86032 0.85044 0.0
C387 C 0.57982 0.82914 0.75411 0.0
O388 O 0.59318 0.81283 0.88289 0.0
C389 C 0.56758 0.85491 0.88017 0.0
O390 O 0.57893 0.8199 0.92301 0.0
O391 O 0.56367 0.84265 0.90262 0.0
C392 C 0.12913 0.76122 0.89326 0.0
O393 O 0.13198 0.77003 0.85358 0.0
Cd394 Cd 0.15257 0.77568 0.79542 0.0
O395 O 0.13511 0.75336 0.89615 0.0
Cd396 Cd 0.1507 0.74649 0.84289 0.0
C397 C 0.177 0.77811 0.89615 0.0
O398 O 0.14871 0.75395 0.75026 0.0
O399 O 0.16661 0.75005 0.76581 0.0
O400 O 0.13068 0.72162 0.84251 0.0
C401 C 0.1597 0.75346 0.7319 0.0
O402 O 0.17247 0.78431 0.86298 0.0
C403 C 0.13771 0.71611 0.86451 0.0
O404 O 0.17103 0.76425 0.89795 0.0
O405 O 0.15102 0.72482 0.87664 0.0
C406 C 0.22332 0.362 0.90607 0.0
O407 O 0.21379 0.35698 0.86817 0.0
Cd408 Cd 0.21014 0.37306 0.80899 0.0
O409 O 0.23248 0.37562 0.90858 0.0
Cd410 Cd 0.24 0.39851 0.85698 0.0
C411 C 0.20932 0.39518 0.9118 0.0
O412 O 0.2325 0.38961 0.76358 0.0
O413 O 0.23561 0.41094 0.78191 0.0
O414 O 0.26459 0.4024 0.86216 0.0
C415 C 0.23284 0.40111 0.74651 0.0
O416 O 0.20253 0.3855 0.87514 0.0
C417 C 0.27052 0.41564 0.87721 0.0
O418 O 0.22317 0.40142 0.91602 0.0
O419 O 0.26223 0.42104 0.88305 0.0
C420 C 0.12651 0.3592 0.40568 0.0
O421 O 0.13104 0.35397 0.36873 0.0
Cd422 Cd 0.1511 0.36945 0.30947 0.0
O423 O 0.13121 0.37288 0.40767 0.0
Cd424 Cd 0.14714 0.39577 0.35688 0.0
C425 C 0.17453 0.39199 0.41068 0.0
O426 O 0.14583 0.38641 0.26457 0.0
O427 O 0.16291 0.40861 0.2798 0.0
O428 O 0.12695 0.40042 0.35517 0.0
C429 C 0.15645 0.39817 0.24606 0.0
O430 O 0.17085 0.38158 0.37661 0.0
C431 C 0.13383 0.41292 0.37753 0.0
O432 O 0.16765 0.399 0.41304 0.0
O433 O 0.14707 0.41753 0.39068 0.0
C434 C 0.62284 0.7679 0.39683 0.0
O435 O 0.62542 0.77818 0.36368 0.0
Cd436 Cd 0.60722 0.77996 0.31124 0.0
O437 O 0.60994 0.75704 0.40178 0.0
Cd438 Cd 0.58531 0.7485 0.3615 0.0
C439 C 0.58533 0.77771 0.41925 0.0
O440 O 0.5923 0.75692 0.26825 0.0
O441 O 0.57015 0.75067 0.28926 0.0
O442 O 0.58055 0.72371 0.34868 0.0
C443 C 0.58 0.75491 0.25274 0.0
O444 O 0.59396 0.78535 0.38084 0.0
C445 C 0.56963 0.71781 0.38074 0.0
O446 O 0.581 0.76414 0.42332 0.0
O447 O 0.56605 0.72622 0.40468 0.0
C448 C 0.22524 0.85737 0.39288 0.0
O449 O 0.21545 0.85276 0.35596 0.0
Cd450 Cd 0.21181 0.83315 0.29588 0.0
O451 O 0.23447 0.853 0.39409 0.0
Cd452 Cd 0.24203 0.83779 0.34233 0.0
C453 C 0.21151 0.81013 0.39744 0.0
O454 O 0.23417 0.83927 0.24963 0.0
O455 O 0.23819 0.82152 0.266 0.0
O456 O 0.26619 0.85896 0.34827 0.0
C457 C 0.23487 0.82838 0.23157 0.0
O458 O 0.20455 0.81301 0.36144 0.0
C459 C 0.27253 0.85206 0.36355 0.0
O460 O 0.22536 0.81782 0.40114 0.0
O461 O 0.26469 0.83828 0.36856 0.0
C462 C 0.02959 0.46554 0.42085 0.0
O463 O 0.02528 0.47145 0.45589 0.0
Cd464 Cd 0.04188 0.49121 0.51427 0.0
O465 O 0.04297 0.46895 0.41907 0.0
Cd466 Cd 0.06637 0.48438 0.46752 0.0
C467 C 0.06498 0.51296 0.4114 0.0
O468 O 0.05747 0.4842 0.55955 0.0
O469 O 0.07995 0.50042 0.54367 0.0
O470 O 0.06971 0.46337 0.4709 0.0
C471 C 0.0695 0.49449 0.57769 0.0
O472 O 0.0554 0.51079 0.44761 0.0
C473 C 0.0822 0.46961 0.44824 0.0
O474 O 0.0704 0.50461 0.40804 0.0
O475 O 0.08741 0.48288 0.43419 0.0
C476 C 0.52331 0.56121 0.41285 0.0
O477 O 0.51728 0.55104 0.4481 0.0
Cd478 Cd 0.49713 0.54749 0.50474 0.0
O479 O 0.5198 0.57109 0.40976 0.0
Cd480 Cd 0.50367 0.57853 0.45606 0.0
C481 C 0.47542 0.54808 0.40021 0.0
O482 O 0.50329 0.56999 0.54879 0.0
O483 O 0.48654 0.57528 0.52921 0.0
O484 O 0.52307 0.60363 0.46808 0.0
C485 C 0.49257 0.57127 0.56488 0.0
O486 O 0.47768 0.54086 0.43697 0.0
C487 C 0.51732 0.60916 0.43777 0.0
O488 O 0.4836 0.56189 0.39663 0.0
O489 O 0.50519 0.6004 0.41518 0.0
C490 C 0.42664 0.96348 0.40709 0.0
O491 O 0.43605 0.969 0.44524 0.0
Cd492 Cd 0.44094 0.95378 0.50415 0.0
O493 O 0.41807 0.94972 0.4047 0.0
Cd494 Cd 0.4113 0.92709 0.45758 0.0
C495 C 0.44227 0.93142 0.40261 0.0
O496 O 0.41894 0.93673 0.55014 0.0
O497 O 0.416 0.91535 0.53432 0.0
O498 O 0.38653 0.92258 0.45158 0.0
C499 C 0.41898 0.92551 0.56843 0.0
O500 O 0.44882 0.94181 0.43693 0.0
C501 C 0.38089 0.90936 0.43665 0.0
O502 O 0.42838 0.92418 0.40009 0.0
O503 O 0.3894 0.90419 0.43179 0.0
H504 H 0.20928 0.17895 0.29792 0.0
H505 H 0.24711 0.21588 0.22627 0.0
H506 H 0.19676 0.19306 0.30076 0.0
H507 H 0.23454 0.22988 0.22851 0.0
H508 H 0.21346 0.2551 0.29886 0.0
H509 H 0.22582 0.24092 0.2964 0.0
H510 H 0.18638 0.20361 0.23608 0.0
H511 H 0.1739 0.21776 0.23915 0.0
C512 C 0.21492 0.19008 0.28288 0.0
C513 C 0.22919 0.19631 0.26197 0.0
C514 C 0.20772 0.19811 0.28413 0.0
C515 C 0.21466 0.21257 0.26476 0.0
C516 C 0.22896 0.21882 0.24426 0.0
C517 C 0.23614 0.21078 0.2428 0.0
C518 C 0.20742 0.24389 0.2849 0.0
C519 C 0.1927 0.23755 0.26916 0.0
C520 C 0.21453 0.23578 0.2833 0.0
C521 C 0.20707 0.22115 0.26609 0.0
C522 C 0.19236 0.21481 0.25013 0.0
C523 C 0.18525 0.22295 0.25152 0.0
H524 H 0.77177 0.03068 0.24534 0.0
H525 H 0.80996 0.02926 0.1926 0.0
H526 H 0.75852 0.0043 0.25605 0.0
H527 H 0.79648 0.00274 0.19889 0.0
H528 H 0.77267 0.95592 0.25852 0.0
H529 H 0.78648 0.98246 0.25354 0.0
H530 H 0.7469 0.9827 0.20988 0.0
H531 H 0.73309 0.9563 0.21932 0.0
C532 C 0.77726 0.02465 0.23556 0.0
C533 C 0.79186 0.03196 0.21825 0.0
C534 C 0.76963 0.00947 0.24109 0.0
C535 C 0.77629 0.00119 0.22781 0.0
C536 C 0.79098 0.00863 0.21056 0.0
C537 C 0.79873 0.02386 0.20656 0.0
C538 C 0.76699 0.96172 0.2479 0.0
C539 C 0.75184 0.95412 0.23949 0.0
C540 C 0.77491 0.97696 0.24465 0.0
C541 C 0.76789 0.98491 0.23142 0.0
C542 C 0.75271 0.97713 0.2217 0.0
C543 C 0.74476 0.96194 0.2265 0.0
H544 H 0.95759 0.73793 0.26317 0.0
H545 H 0.95968 0.7783 0.21689 0.0
H546 H 0.98402 0.75051 0.27122 0.0
H547 H 0.98627 0.79084 0.22092 0.0
H548 H 0.03356 0.81206 0.27877 0.0
H549 H 0.007 0.8002 0.27479 0.0
H550 H 0.005 0.76032 0.22011 0.0
H551 H 0.03138 0.77196 0.2281 0.0
C552 C 0.96377 0.74951 0.2543 0.0
C553 C 0.95664 0.75715 0.2394 0.0
C554 C 0.97897 0.75674 0.25831 0.0
C555 C 0.98744 0.77172 0.24595 0.0
C556 C 0.9802 0.77937 0.23153 0.0
C557 C 0.96495 0.77219 0.22892 0.0
C558 C 0.02737 0.80077 0.26579 0.0
C559 C 0.03446 0.79288 0.25407 0.0
C560 C 0.01214 0.79396 0.26321 0.0
C561 C 0.00371 0.77919 0.24758 0.0
C562 C 0.01098 0.77153 0.23398 0.0
C563 C 0.02615 0.77824 0.23794 0.0
H564 H 0.77236 0.73462 0.70415 0.0
H565 H 0.81014 0.76917 0.78596 0.0
H566 H 0.75974 0.74843 0.71354 0.0
H567 H 0.79737 0.78291 0.79629 0.0
H568 H 0.77637 0.80992 0.73756 0.0
H569 H 0.78908 0.79602 0.73702 0.0
H570 H 0.74897 0.75703 0.78144 0.0
H571 H 0.7362 0.77085 0.78092 0.0
C572 C 0.77792 0.7451 0.72467 0.0
C573 C 0.79227 0.75083 0.74416 0.0
C574 C 0.77065 0.75299 0.73034 0.0
C575 C 0.77756 0.76678 0.75562 0.0
C576 C 0.79182 0.77239 0.77602 0.0
C577 C 0.7991 0.76449 0.7704 0.0
C578 C 0.77029 0.7984 0.74748 0.0
C579 C 0.75527 0.79146 0.75894 0.0
C580 C 0.77759 0.79045 0.74751 0.0
C581 C 0.77002 0.77541 0.759 0.0
C582 C 0.75506 0.76856 0.77163 0.0
C583 C 0.74776 0.7765 0.77159 0.0
H584 H 0.2017 0.02188 0.77768 0.0
H585 H 0.24382 0.02724 0.73597 0.0
H586 H 0.19112 -0.00458 0.77695 0.0
H587 H 0.23319 0.00083 0.73398 0.0
H588 H 0.17431 0.9484 0.72062 0.0
H589 H 0.1848 0.97485 0.71584 0.0
H590 H 0.22358 0.98081 0.79854 0.0
H591 H 0.21327 0.95449 0.80218 0.0
C592 C 0.20868 0.01741 0.76801 0.0
C593 C 0.22361 0.02664 0.75718 0.0
C594 C 0.20259 0.00225 0.76723 0.0
C595 C 0.21132 -0.00398 0.75553 0.0
C596 C 0.22622 0.00528 0.74396 0.0
C597 C 0.2323 0.02042 0.74485 0.0
C598 C 0.1851 0.95538 0.73749 0.0
C599 C 0.19297 0.94937 0.76173 0.0
C600 C 0.19108 0.97052 0.73506 0.0
C601 C 0.20503 0.97994 0.75682 0.0
C602 C 0.2129 0.97388 0.78066 0.0
C603 C 0.20695 0.95878 0.78303 0.0
H604 H 0.02568 0.25164 0.78884 0.0
H605 H 0.02942 0.21547 0.72593 0.0
H606 H -0.00067 0.23767 0.77589 0.0
H607 H 0.00297 0.20153 0.71231 0.0
H608 H 0.95354 0.1763 0.75242 0.0
H609 H 0.97999 0.18979 0.76657 0.0
H610 H 0.982 0.22852 0.69907 0.0
H611 H 0.95566 0.21516 0.68558 0.0
C612 C 0.02088 0.24072 0.7721 0.0
C613 C 0.02964 0.23467 0.75828 0.0
C614 C 0.00578 0.23274 0.76444 0.0
C615 C -0.00091 0.21852 0.74292 0.0
C616 C 0.00782 0.21241 0.72946 0.0
C617 C 0.02296 0.22043 0.73693 0.0
C618 C 0.95965 0.1877 0.7407 0.0
C619 C 0.95252 0.19468 0.71804 0.0
C620 C 0.97479 0.19539 0.74849 0.0
C621 C 0.98306 0.21022 0.73404 0.0
C622 C 0.9759 0.21716 0.71129 0.0
C623 C 0.96081 0.20947 0.70332 0.0
H624 H 0.84602 0.54678 0.55131 0.0
H625 H 0.88324 0.58408 0.62428 0.0
H626 H 0.86024 0.53443 0.54331 0.0
H627 H 0.89735 0.5717 0.61674 0.0
H628 H 0.92256 0.5522 0.53437 0.0
H629 H 0.90793 0.56398 0.54281 0.0
H630 H 0.87169 0.52372 0.60322 0.0
H631 H 0.88634 0.51182 0.59429 0.0
C632 C 0.85722 0.55233 0.56566 0.0
C633 C 0.86353 0.56642 0.58825 0.0
C634 C 0.86532 0.54522 0.56141 0.0
C635 C 0.87991 0.55211 0.57932 0.0
C636 C 0.88618 0.56618 0.60198 0.0
C637 C 0.87808 0.57325 0.6065 0.0
C638 C 0.91148 0.54584 0.54952 0.0
C639 C 0.90561 0.53108 0.56376 0.0
C640 C 0.90312 0.55262 0.55459 0.0
C641 C 0.88868 0.54478 0.5738 0.0
C642 C 0.88276 0.52999 0.58784 0.0
C643 C 0.89117 0.52321 0.58305 0.0
H644 H 0.40004 0.2905 0.58165 0.0
H645 H 0.44029 0.29314 0.63371 0.0
H646 H 0.41281 0.31673 0.56671 0.0
H647 H 0.453 0.31956 0.62303 0.0
H648 H 0.47502 0.36552 0.55408 0.0
H649 H 0.46262 0.33909 0.56415 0.0
H650 H 0.42292 0.33884 0.60961 0.0
H651 H 0.43513 0.36507 0.59525 0.0
C652 C 0.41163 0.29677 0.59042 0.0
C653 C 0.4192 0.28984 0.60875 0.0
C654 C 0.41897 0.31186 0.58242 0.0
C655 C 0.43399 0.32045 0.59414 0.0
C656 C 0.44152 0.3134 0.61252 0.0
C657 C 0.43424 0.29824 0.61905 0.0
C658 C 0.46363 0.35974 0.56619 0.0
C659 C 0.45599 0.36727 0.57366 0.0
C660 C 0.45651 0.34457 0.57237 0.0
C661 C 0.44167 0.33665 0.5876 0.0
C662 C 0.4342 0.34438 0.59636 0.0
C663 C 0.44122 0.35947 0.5887 0.0
H664 H 0.69658 0.11144 0.60809 0.0
H665 H 0.70149 0.15042 0.53079 0.0
H666 H 0.67021 0.09977 0.59832 0.0
H667 H 0.675 0.13859 0.52 0.0
H668 H 0.62471 0.0779 0.52709 0.0
H669 H 0.65127 0.09009 0.52872 0.0
H670 H 0.65327 0.1303 0.57755 0.0
H671 H 0.62664 0.11816 0.5748 0.0
C672 C 0.69203 0.11748 0.58857 0.0
C673 C 0.70112 0.13186 0.57027 0.0
C674 C 0.67691 0.11075 0.58267 0.0
C675 C 0.67051 0.11824 0.55827 0.0
C676 C 0.6796 0.13259 0.53949 0.0
C677 C 0.69476 0.13933 0.54538 0.0
C678 C 0.63081 0.08936 0.53787 0.0
C679 C 0.62358 0.09705 0.5511 0.0
C680 C 0.64603 0.09633 0.53907 0.0
C681 C 0.65437 0.11113 0.55364 0.0
C682 C 0.64715 0.11892 0.56566 0.0
C683 C 0.6319 0.11195 0.56439 0.0
H684 H 0.43442 0.07287 0.03172 0.0
H685 H 0.47282 0.10912 0.10359 0.0
H686 H 0.42111 0.08598 0.04354 0.0
H687 H 0.45943 0.12219 0.11582 0.0
H688 H 0.43478 0.14664 0.07501 0.0
H689 H 0.44828 0.13379 0.05969 0.0
H690 H 0.41157 0.09397 0.12065 0.0
H691 H 0.39804 0.10673 0.13554 0.0
C692 C 0.44002 0.08363 0.05007 0.0
C693 C 0.45466 0.08995 0.06683 0.0
C694 C 0.43237 0.09111 0.05706 0.0
C695 C 0.43922 0.1051 0.08068 0.0
C696 C 0.45391 0.11148 0.09699 0.0
C697 C 0.46154 0.10396 0.09029 0.0
C698 C 0.42957 0.13513 0.08491 0.0
C699 C 0.41534 0.12769 0.10645 0.0
C700 C 0.43734 0.12781 0.07647 0.0
C701 C 0.43098 0.11289 0.08902 0.0
C702 C 0.4167 0.10543 0.11004 0.0
C703 C 0.40898 0.11277 0.1188 0.0
H704 H 0.84338 0.29489 0.09861 0.0
H705 H 0.88171 0.29346 0.04781 0.0
H706 H 0.85716 0.32147 0.09577 0.0
H707 H 0.89529 0.31992 0.04079 0.0
H708 H 0.92102 0.36716 0.08621 0.0
H709 H 0.90659 0.34073 0.09229 0.0
H710 H 0.86808 0.34246 0.04381 0.0
H711 H 0.8825 0.36904 0.04191 0.0
C712 C 0.8547 0.3003 0.08579 0.0
C713 C 0.86153 0.29218 0.07374 0.0
C714 C 0.86262 0.31556 0.08384 0.0
C715 C 0.87746 0.323 0.06849 0.0
C716 C 0.88406 0.31471 0.05448 0.0
C717 C 0.87624 0.2995 0.05787 0.0
C718 C 0.90944 0.36184 0.07731 0.0
C719 C 0.90286 0.37009 0.06361 0.0
C720 C 0.90115 0.34665 0.08015 0.0
C721 C 0.88612 0.33929 0.06777 0.0
C722 C 0.87954 0.34765 0.05444 0.0
C723 C 0.8878 0.3629 0.05304 0.0
H724 H 0.61451 0.50533 0.11165 0.0
H725 H 0.62082 0.5455 0.04045 0.0
H726 H 0.64089 0.51655 0.12488 0.0
H727 H 0.64706 0.55656 0.0527 0.0
H728 H 0.68968 0.53708 0.07356 0.0
H729 H 0.66309 0.52525 0.06912 0.0
H730 H 0.66534 0.56508 0.12491 0.0
H731 H 0.69187 0.57697 0.12827 0.0
C732 C 0.62152 0.51654 0.09888 0.0
C733 C 0.61559 0.52453 0.07504 0.0
C734 C 0.63662 0.52293 0.1062 0.0
C735 C 0.64606 0.53745 0.08997 0.0
C736 C 0.64008 0.54543 0.06646 0.0
C737 C 0.62503 0.53905 0.0591 0.0
C738 C 0.68448 0.54327 0.08522 0.0
C739 C 0.69287 0.55799 0.10084 0.0
C740 C 0.66925 0.53647 0.08296 0.0
C741 C 0.66212 0.54426 0.09629 0.0
C742 C 0.67052 0.55885 0.11347 0.0
C743 C 0.68572 0.56564 0.11567 0.0
H744 H 0.53573 0.90951 0.0083 0.0
H745 H 0.5139 0.89578 0.85147 0.0
H746 H 0.54679 0.89427 0.99366 0.0
H747 H 0.52534 0.88082 0.83635 0.0
H748 H 0.56752 0.87563 0.81417 0.0
H749 H 0.55424 0.8888 0.82807 0.0
H750 H 0.53606 0.86502 0.97854 0.0
H751 H 0.54903 0.85151 0.96406 0.0
C752 C 0.53331 0.90324 0.97072 0.0
C753 C 0.52399 0.90383 0.93093 0.0
C754 C 0.53957 0.89449 0.96256 0.0
C755 C 0.53686 0.88643 0.91397 0.0
C756 C 0.52756 0.88699 0.87411 0.0
C757 C 0.52102 0.89549 0.88282 0.0
C758 C 0.56063 0.87316 0.85005 0.0
C759 C 0.55931 0.86259 0.88814 0.0
C760 C 0.55299 0.88062 0.85776 0.0
C761 C 0.54418 0.87787 0.90428 0.0
C762 C 0.54283 0.8673 0.94239 0.0
C763 C 0.55021 0.85959 0.93404 0.0
H764 H 0.07673 0.62818 0.96824 0.0
H765 H 0.11248 0.62432 0.9012 0.0
H766 H 0.08993 0.65424 0.94888 0.0
H767 H 0.12566 0.65049 0.88119 0.0
H768 H 0.1093 0.69565 0.84626 0.0
H769 H 0.09717 0.66965 0.86624 0.0
H770 H 0.13765 0.67467 0.92896 0.0
H771 H 0.14992 0.7008 0.90831 0.0
C772 C 0.08742 0.63289 0.94935 0.0
C773 C 0.09354 0.62418 0.93603 0.0
C774 C 0.09494 0.64781 0.93801 0.0
C775 C 0.10878 0.65438 0.91318 0.0
C776 C 0.11505 0.64574 0.90068 0.0
C777 C 0.10747 0.63075 0.91187 0.0
C778 C 0.11565 0.69123 0.86422 0.0
C779 C 0.13056 0.70029 0.8759 0.0
C780 C 0.10867 0.67635 0.87594 0.0
C781 C 0.11644 0.67015 0.89951 0.0
C782 C 0.13141 0.67914 0.91047 0.0
C783 C 0.13841 0.6941 0.89891 0.0
H784 H 0.2884 0.40569 0.91091 0.0
H785 H 0.28826 0.44505 0.86572 0.0
H786 H 0.31457 0.4197 0.92649 0.0
H787 H 0.3147 0.45908 0.87708 0.0
H788 H 0.36064 0.48265 0.94829 0.0
H789 H 0.3342 0.46911 0.93665 0.0
H790 H 0.33668 0.43137 0.88352 0.0
H791 H 0.36287 0.44464 0.89937 0.0
C792 C 0.29406 0.41737 0.90372 0.0
C793 C 0.28636 0.42431 0.88711 0.0
C794 C 0.30912 0.42542 0.91209 0.0
C795 C 0.31694 0.44058 0.90246 0.0
C796 C 0.30913 0.4475 0.88586 0.0
C797 C 0.29397 0.43947 0.87895 0.0
C798 C 0.35545 0.47144 0.93416 0.0
C799 C 0.36372 0.46463 0.92507 0.0
C800 C 0.34029 0.46368 0.92709 0.0
C801 C 0.33314 0.44903 0.90939 0.0
C802 C 0.34162 0.44244 0.89877 0.0
C803 C 0.35669 0.45008 0.90731 0.0
H804 H 0.07293 0.44106 0.4706 0.0
H805 H 0.10949 0.4802 0.40427 0.0
H806 H 0.08581 0.42776 0.45414 0.0
H807 H 0.12235 0.46676 0.38715 0.0
H808 H 0.14591 0.44047 0.42055 0.0
H809 H 0.13372 0.45454 0.43812 0.0
H810 H 0.09343 0.41906 0.37419 0.0
H811 H 0.10549 0.40498 0.35727 0.0
C812 C 0.08372 0.44683 0.45242 0.0
C813 C 0.09018 0.46167 0.43857 0.0
C814 C 0.09106 0.43918 0.44275 0.0
C815 C 0.10505 0.4462 0.41911 0.0
C816 C 0.11162 0.46109 0.40583 0.0
C817 C 0.10423 0.46876 0.41534 0.0
C818 C 0.13446 0.4357 0.41028 0.0
C819 C 0.12665 0.4216 0.38773 0.0
C820 C 0.12751 0.44377 0.42005 0.0
C821 C 0.11261 0.43787 0.40772 0.0
C822 C 0.10486 0.42382 0.38485 0.0
C823 C 0.1118 0.41578 0.3749 0.0
H824 H 0.53726 0.63046 0.50437 0.0
H825 H 0.5134 0.62375 0.35298 0.0
H826 H 0.54926 0.6569 0.49092 0.0
H827 H 0.52575 0.65025 0.33896 0.0
H828 H 0.55229 0.7028 0.46767 0.0
H829 H 0.53911 0.67629 0.4819 0.0
H830 H 0.55499 0.67043 0.32636 0.0
H831 H 0.5685 0.6969 0.31264 0.0
C832 C 0.53462 0.63464 0.4682 0.0
C833 C 0.52443 0.62509 0.42964 0.0
C834 C 0.54141 0.64973 0.46073 0.0
C835 C 0.53837 0.6555 0.41399 0.0
C836 C 0.52825 0.64598 0.37527 0.0
C837 C 0.52119 0.63088 0.38336 0.0
C838 C 0.55295 0.69583 0.43657 0.0
C839 C 0.56144 0.70187 0.38917 0.0
C840 C 0.54546 0.68073 0.44477 0.0
C841 C 0.54606 0.67143 0.40509 0.0
C842 C 0.55433 0.67743 0.35731 0.0
C843 C 0.56209 0.69253 0.34968 0.0
H844 H 0.36329 0.87985 0.44685 0.0
H845 H 0.36312 0.91906 0.39966 0.0
H846 H 0.33698 0.86559 0.43146 0.0
H847 H 0.33718 0.90487 0.38015 0.0
H848 H 0.2888 0.87971 0.40104 0.0
H849 H 0.31477 0.89298 0.42069 0.0
H850 H 0.31801 0.85556 0.36899 0.0
H851 H 0.29167 0.84197 0.35345 0.0
C852 C 0.35761 0.88535 0.43242 0.0
C853 C 0.36515 0.90054 0.4249 0.0
C854 C 0.34254 0.87719 0.42318 0.0
C855 C 0.33479 0.88402 0.4049 0.0
C856 C 0.34256 0.89921 0.39585 0.0
C857 C 0.3575 0.90738 0.40653 0.0
C858 C 0.29509 0.87434 0.39413 0.0
C859 C 0.28829 0.85987 0.37558 0.0
C860 C 0.31004 0.88198 0.40488 0.0
C861 C 0.31868 0.87549 0.39573 0.0
C862 C 0.31177 0.86091 0.37733 0.0
C863 C 0.29669 0.85312 0.36802 0.0
H864 H 0.09691 0.27909 0.9701 0.0
H865 H 0.08391 0.23389 0.9416 0.0
H866 H 0.10883 0.27873 0.05512 0.0
H867 H 0.09558 0.23343 0.02743 0.0
H868 H 0.1219 0.27238 0.22253 0.0
H869 H 0.10533 0.26907 0.14736 0.0
H870 H 0.1206 0.24387 0.05897 0.0
H871 H 0.13693 0.2469 0.13461 0.0
C872 C 0.09638 0.26901 0.98247 0.0
C873 C 0.08959 0.25656 0.9489 0.0
C874 C 0.10314 0.26876 0.03142 0.0
C875 C 0.10322 0.25606 0.04797 0.0
C876 C 0.0959 0.24345 0.01543 0.0
C877 C 0.08916 0.24369 0.96641 0.0
C878 C 0.12158 0.26595 0.18744 0.0
C879 C 0.13087 0.26004 0.18436 0.0
C880 C 0.11212 0.26412 0.14422 0.0
C881 C 0.11177 0.25636 0.09688 0.0
C882 C 0.12051 0.24981 0.09503 0.0
C883 C 0.12993 0.2516 0.13834 0.0
H884 H 0.70611 0.84977 0.1625 0.0
H885 H 0.74769 0.88825 0.12912 0.0
H886 H 0.70899 0.83791 0.0824 0.0
H887 H 0.75106 0.87606 0.05025 0.0
H888 H 0.74323 0.85754 0.87565 0.0
H889 H 0.74264 0.86914 0.96104 0.0
H890 H 0.72049 0.82687 0.04038 0.0
H891 H 0.7203 0.8153 0.95378 0.0
C892 C 0.71606 0.85558 0.13871 0.0
C893 C 0.72664 0.86998 0.15201 0.0
C894 C 0.71777 0.84873 0.09274 0.0
C895 C 0.73026 0.85599 0.05934 0.0
C896 C 0.74114 0.87021 0.07412 0.0
C897 C 0.73929 0.87718 0.11963 0.0
C898 C 0.73828 0.85077 0.91149 0.0
C899 C 0.73168 0.83552 0.90805 0.0
C900 C 0.73805 0.85742 0.96072 0.0
C901 C 0.73146 0.84899 0.00797 0.0
C902 C 0.72535 0.83374 0.00472 0.0
C903 C 0.72531 0.82707 0.95517 0.0
H904 H 0.13891 0.84462 0.18618 0.0
H905 H 0.10588 0.85701 0.17116 0.0
H906 H 0.15206 0.86021 0.10926 0.0
H907 H 0.11953 0.87346 0.09609 0.0
H908 H 0.13494 0.8829 0.91775 0.0
H909 H 0.12373 0.87161 0.00439 0.0
H910 H 0.16618 0.88286 0.06955 0.0
H911 H 0.17722 0.89333 0.98097 0.0
C912 C 0.13468 0.85103 0.16735 0.0
C913 C 0.12129 0.84949 0.1843 0.0
C914 C 0.14228 0.86008 0.12326 0.0
C915 C 0.13684 0.86807 0.0957 0.0
C916 C 0.12388 0.8672 0.11514 0.0
C917 C 0.1161 0.85787 0.1585 0.0
C918 C 0.14189 0.88306 0.95075 0.0
C919 C 0.15693 0.88885 0.94249 0.0
C920 C 0.13547 0.87669 0.00084 0.0
C921 C 0.14399 0.87622 0.0444 0.0
C922 C 0.15919 0.88268 0.03673 0.0
C923 C 0.16556 0.88878 0.9861 0.0
H924 H 0.22096 0.09004 0.6124 0.0
H925 H 0.2637 0.09669 0.57301 0.0
H926 H 0.22067 0.10156 0.52595 0.0
H927 H 0.26358 0.10851 0.4874 0.0
H928 H 0.23605 0.141 0.4072 0.0
H929 H 0.23292 0.12584 0.48701 0.0
H930 H 0.25232 0.10446 0.39816 0.0
H931 H 0.2558 0.11987 0.3188 0.0
C932 C 0.23027 0.09392 0.58519 0.0
C933 C 0.24238 0.09251 0.59957 0.0
C934 C 0.23013 0.10058 0.53579 0.0
C935 C 0.2421 0.10598 0.49978 0.0
C936 C 0.25407 0.10428 0.51375 0.0
C937 C 0.2542 0.09759 0.56304 0.0
C938 C 0.23946 0.13292 0.40436 0.0
C939 C 0.24633 0.13177 0.35679 0.0
C940 C 0.23761 0.12418 0.45011 0.0
C941 C 0.24252 0.11405 0.4492 0.0
C942 C 0.24869 0.11237 0.40061 0.0
C943 C 0.2506 0.12115 0.35497 0.0
H944 H 0.86403 0.1374 0.24815 0.0
H945 H 0.84907 0.0971 0.33779 0.0
H946 H 0.8802 0.15092 0.32396 0.0
H947 H 0.86499 0.11067 0.41395 0.0
H948 H 0.90025 0.13792 0.53511 0.0
H949 H 0.88969 0.12571 0.44817 0.0
H950 H 0.87566 0.15695 0.41503 0.0
H951 H 0.88647 0.1693 0.50115 0.0
C952 C 0.86432 0.13139 0.28369 0.0
C953 C 0.85511 0.11617 0.28715 0.0
C954 C 0.87353 0.13917 0.32727 0.0
C955 C 0.87374 0.13191 0.37531 0.0
C956 C 0.86519 0.1166 0.3774 0.0
C957 C 0.856 0.10881 0.33376 0.0
C958 C 0.89508 0.14229 0.50887 0.0
C959 C 0.89408 0.1545 0.52517 0.0
C960 C 0.88898 0.13525 0.4592 0.0
C961 C 0.88176 0.1403 0.4248 0.0
C962 C 0.8813 0.15287 0.44018 0.0
C963 C 0.88741 0.15991 0.48977 0.0
H964 H 0.85049 0.7588 0.56164 0.0
H965 H 0.81856 0.7145 0.51778 0.0
H966 H 0.86311 0.76158 0.47464 0.0
H967 H 0.83128 0.71715 0.43179 0.0
H968 H 0.89162 0.74951 0.36259 0.0
H969 H 0.87789 0.7518 0.43823 0.0
H970 H 0.83816 0.72902 0.34326 0.0
H971 H 0.85182 0.72641 0.26801 0.0
C972 C 0.84608 0.74972 0.53318 0.0
C973 C 0.83361 0.73639 0.54674 0.0
C974 C 0.85334 0.75129 0.4835 0.0
C975 C 0.84825 0.73958 0.44638 0.0
C976 C 0.8354 0.72647 0.45903 0.0
C977 C 0.82816 0.72491 0.50859 0.0
C978 C 0.88001 0.74524 0.35735 0.0
C979 C 0.87279 0.73755 0.3096 0.0
C980 C 0.87213 0.74662 0.4007 0.0
C981 C 0.85689 0.7404 0.39707 0.0
C982 C 0.84985 0.73366 0.34775 0.0
C983 C 0.8577 0.73222 0.30452 0.0
H984 H 0.84972 0.74446 0.85975 0.0
H985 H 0.86656 0.72057 0.7715 0.0
H986 H 0.86608 0.74797 0.93587 0.0
H987 H 0.88309 0.72432 0.84742 0.0
H988 H 0.90309 0.75944 0.05334 0.0
H989 H 0.89153 0.75949 0.96666 0.0
H990 H 0.87926 0.71438 0.94057 0.0
H991 H 0.89099 0.71439 0.02664 0.0
C992 C 0.85708 0.74018 0.85612 0.0
C993 C 0.85669 0.73209 0.80975 0.0
C994 C 0.86653 0.74227 0.89968 0.0
C995 C 0.8758 0.73632 0.89784 0.0
C996 C 0.87592 0.72884 0.85037 0.0
C997 C 0.86648 0.72676 0.80677 0.0
C998 C 0.8981 0.74959 0.02871 0.0
C999 C 0.89783 0.73686 0.04704 0.0
C1000 C 0.89142 0.74961 0.97921 0.0
C1001 C 0.88439 0.73692 0.94696 0.0
C1002 C 0.88471 0.72439 0.96416 0.0
C1003 C 0.89136 0.72436 0.01368 0.0
H1004 H 0.25374 0.12465 0.82325 0.0
H1005 H 0.22007 0.08794 0.91251 0.0
H1006 H 0.25376 0.14123 0.89257 0.0
H1007 H 0.22047 0.10442 0.98306 0.0
H1008 H 0.21959 0.13761 0.09458 0.0
H1009 H 0.21608 0.1234 0.01133 0.0
H1010 H 0.26272 0.14698 0.98357 0.0
H1011 H 0.26612 0.16147 0.06536 0.0
C1012 C 0.24622 0.12014 0.85743 0.0
C1013 C 0.237 0.10499 0.86279 0.0
C1014 C 0.2463 0.12963 0.89738 0.0
C1015 C 0.23731 0.12417 0.94398 0.0
C1016 C 0.22747 0.10905 0.94759 0.0
C1017 C 0.22727 0.09957 0.90722 0.0
C1018 C 0.22906 0.13987 0.07018 0.0
C1019 C 0.24314 0.15058 0.08667 0.0
C1020 C 0.22705 0.13168 0.02264 0.0
C1021 C 0.23911 0.13396 0.9908 0.0
C1022 C 0.25314 0.14505 0.00645 0.0
C1023 C 0.25512 0.15331 0.05366 0.0
H1024 H 0.84655 0.08436 0.02966 0.0
H1025 H 0.81528 0.09876 0.00475 0.0
H1026 H 0.85851 0.09589 0.94347 0.0
H1027 H 0.82739 0.11052 0.91927 0.0
H1028 H 0.8465 0.12336 0.75083 0.0
H1029 H 0.83309 0.10688 0.82603 0.0
H1030 H 0.87359 0.12101 0.9131 0.0
H1031 H 0.88705 0.13727 0.83756 0.0
C1032 C 0.84215 0.08987 0.00554 0.0
C1033 C 0.83004 0.09076 0.02422 0.0
C1034 C 0.84905 0.09653 0.95631 0.0
C1035 C 0.84398 0.10421 0.9247 0.0
C1036 C 0.83149 0.10456 0.94229 0.0
C1037 C 0.82459 0.09789 0.99148 0.0
C1038 C 0.85258 0.1228 0.78563 0.0
C1039 C 0.86786 0.13176 0.78837 0.0
C1040 C 0.84487 0.11341 0.82886 0.0
C1041 C 0.85224 0.11274 0.8758 0.0
C1042 C 0.86758 0.12116 0.87734 0.0
C1043 C 0.8753 0.13055 0.83408 0.0
H1044 H 0.75504 0.90389 0.4215 0.0
H1045 H 0.70805 0.88037 0.43688 0.0
H1046 H 0.757 0.89178 0.50351 0.0
H1047 H 0.70991 0.86778 0.51744 0.0
H1048 H 0.75281 0.85195 0.59696 0.0
H1049 H 0.75267 0.86831 0.52713 0.0
H1050 H 0.71685 0.8689 0.61029 0.0
H1051 H 0.71664 0.85202 0.67885 0.0
C1052 C 0.74513 0.89617 0.44263 0.0
C1053 C 0.73139 0.893 0.4226 0.0
C1054 C 0.74624 0.88915 0.48944 0.0
C1055 C 0.73362 0.87866 0.51691 0.0
C1056 C 0.71989 0.87592 0.49792 0.0
C1057 C 0.7188 0.88308 0.45148 0.0
C1058 C 0.74504 0.85573 0.60071 0.0
C1059 C 0.73466 0.8506 0.64308 0.0
C1060 C 0.74499 0.8652 0.56078 0.0
C1061 C 0.73466 0.86988 0.56269 0.0
C1062 C 0.72476 0.86529 0.60679 0.0
C1063 C 0.7247 0.85569 0.64634 0.0
H1064 H 0.10275 0.81168 0.46063 0.0
H1065 H 0.0867 0.84189 0.44576 0.0
H1066 H 0.11496 0.82339 0.54623 0.0
H1067 H 0.09853 0.85333 0.53201 0.0
H1068 H 0.13996 0.88276 0.63319 0.0
H1069 H 0.12349 0.86901 0.55879 0.0
H1070 H 0.11262 0.82864 0.64115 0.0
H1071 H 0.12943 0.84241 0.71521 0.0
C1072 C 0.10158 0.82062 0.47626 0.0
C1073 C 0.09393 0.82599 0.44618 0.0
C1074 C 0.10852 0.8273 0.52546 0.0
C1075 C 0.10786 0.83942 0.54568 0.0
C1076 C 0.09951 0.84423 0.51701 0.0
C1077 C 0.09267 0.83762 0.46772 0.0
C1078 C 0.13393 0.87096 0.63589 0.0
C1079 C 0.13613 0.86371 0.67998 0.0
C1080 C 0.1244 0.86306 0.5933 0.0
C1081 C 0.11677 0.8477 0.59386 0.0
C1082 C 0.1185 0.84045 0.63907 0.0
C1083 C 0.12808 0.84836 0.68167 0.0
H1084 H 0.13615 0.27246 0.72431 0.0
H1085 H 0.09582 0.24544 0.63685 0.0
H1086 H 0.14986 0.27015 0.64849 0.0
H1087 H 0.10955 0.24343 0.56066 0.0
H1088 H 0.13721 0.23555 0.44153 0.0
H1089 H 0.12504 0.23426 0.52807 0.0
H1090 H 0.15548 0.28002 0.5563 0.0
H1091 H 0.16783 0.28122 0.47049 0.0
C1092 C 0.13018 0.26589 0.68922 0.0
C1093 C 0.11488 0.25926 0.68644 0.0
C1094 C 0.13806 0.26465 0.64562 0.0
C1095 C 0.13082 0.25676 0.59824 0.0
C1096 C 0.11547 0.24949 0.59673 0.0
C1097 C 0.10759 0.2507 0.64038 0.0
C1098 C 0.14141 0.24529 0.46657 0.0
C1099 C 0.15341 0.25853 0.449 0.0
C1100 C 0.13439 0.24456 0.51602 0.0
C1101 C 0.13922 0.25705 0.54893 0.0
C1102 C 0.15158 0.27014 0.5323 0.0
C1103 C 0.15861 0.27087 0.48291 0.0
H1104 H 0.80925 0.57496 0.44446 0.0
H1105 H 0.78916 0.59575 0.53295 0.0
H1106 H 0.79399 0.57196 0.36516 0.0
H1107 H 0.77363 0.59239 0.45407 0.0
H1108 H 0.75758 0.55978 0.24236 0.0
H1109 H 0.76956 0.55984 0.32806 0.0
H1110 H 0.77721 0.60311 0.3641 0.0
H1111 H 0.76491 0.60287 0.27928 0.0
C1112 C 0.80139 0.57865 0.4474 0.0
C1113 C 0.80054 0.58572 0.4949 0.0
C1114 C 0.79258 0.57687 0.40195 0.0
C1115 C 0.78267 0.58206 0.40306 0.0
C1116 C 0.78135 0.58853 0.45148 0.0
C1117 C 0.7902 0.59037 0.49684 0.0
C1118 C 0.76173 0.56925 0.26884 0.0
C1119 C 0.76036 0.58135 0.25401 0.0
C1120 C 0.76865 0.56931 0.31781 0.0
C1121 C 0.77438 0.58149 0.35292 0.0
C1122 C 0.77274 0.59346 0.33847 0.0
C1123 C 0.76577 0.59337 0.28962 0.0
H1124 H 0.37759 0.15256 0.33528 0.0
H1125 H 0.42205 0.18471 0.29437 0.0
H1126 H 0.37982 0.16499 0.42164 0.0
H1127 H 0.42442 0.19703 0.38173 0.0
H1128 H 0.3884 0.18515 0.58645 0.0
H1129 H 0.39118 0.17166 0.51094 0.0
H1130 H 0.41458 0.21166 0.41801 0.0
H1131 H 0.41212 0.2252 0.49389 0.0
C1132 C 0.38794 0.16214 0.34519 0.0
C1133 C 0.39958 0.16774 0.30772 0.0
C1134 C 0.38926 0.16922 0.39498 0.0
C1135 C 0.40229 0.18206 0.40856 0.0
C1136 C 0.41417 0.18728 0.37215 0.0
C1137 C 0.41284 0.18019 0.32224 0.0
C1138 C 0.39438 0.19112 0.55034 0.0
C1139 C 0.39985 0.20623 0.54592 0.0
C1140 C 0.39591 0.18337 0.50694 0.0
C1141 C 0.40289 0.19054 0.45809 0.0
C1142 C 0.40921 0.20579 0.45515 0.0
C1143 C 0.40774 0.21356 0.49864 0.0
H1144 H 0.83819 0.22513 0.28415 0.0
H1145 H 0.80749 0.24038 0.26214 0.0
H1146 H 0.82632 0.21355 0.37017 0.0
H1147 H 0.79579 0.22904 0.3489 0.0
H1148 H 0.76694 0.18763 0.45388 0.0
H1149 H 0.78044 0.20397 0.37869 0.0
H1150 H 0.821 0.21711 0.46399 0.0
H1151 H 0.80752 0.20052 0.53889 0.0
C1152 C 0.82907 0.22624 0.29819 0.0
C1153 C 0.82367 0.23352 0.26607 0.0
C1154 C 0.82232 0.21967 0.3477 0.0
C1155 C 0.81004 0.22029 0.36622 0.0
C1156 C 0.80508 0.22817 0.33531 0.0
C1157 C 0.81182 0.23472 0.28575 0.0
C1158 C 0.77872 0.19415 0.45707 0.0
C1159 C 0.78615 0.19262 0.50216 0.0
C1160 C 0.78647 0.2036 0.41402 0.0
C1161 C 0.80181 0.21176 0.41514 0.0
C1162 C 0.80919 0.21079 0.46151 0.0
C1163 C 0.80145 0.20133 0.50456 0.0
H1164 H 0.95574 0.47694 0.64035 0.0
H1165 H 0.91086 0.46649 0.65498 0.0
H1166 H 0.95245 0.46079 0.71646 0.0
H1167 H 0.90713 0.44943 0.72889 0.0
H1168 H 0.91147 0.43755 0.90507 0.0
H1169 H 0.9126 0.45 0.82026 0.0
H1170 H 0.94301 0.43786 0.75397 0.0
H1171 H 0.94257 0.42624 0.84106 0.0
C1172 C 0.94504 0.47086 0.65904 0.0
C1173 C 0.93359 0.47306 0.64217 0.0
C1174 C 0.94309 0.46148 0.70259 0.0
C1175 C 0.92953 0.4538 0.72955 0.0
C1176 C 0.91785 0.45543 0.71037 0.0
C1177 C 0.91992 0.46512 0.66768 0.0
C1178 C 0.91831 0.43744 0.87219 0.0
C1179 C 0.92703 0.43104 0.87978 0.0
C1180 C 0.91887 0.44449 0.82311 0.0
C1181 C 0.92794 0.44505 0.77979 0.0
C1182 C 0.93616 0.438 0.78667 0.0
C1183 C 0.93584 0.43122 0.8364 0.0
H1184 H 0.56336 0.47334 0.88415 0.0
H1185 H 0.54864 0.50437 0.85982 0.0
H1186 H 0.55222 0.46164 0.79725 0.0
H1187 H 0.53717 0.49245 0.77366 0.0
H1188 H 0.51138 0.43285 0.6907 0.0
H1189 H 0.52745 0.44642 0.76634 0.0
H1190 H 0.54061 0.48688 0.68043 0.0
H1191 H 0.52423 0.4733 0.60507 0.0
C1192 C 0.55783 0.47773 0.86003 0.0
C1193 C 0.55675 0.48969 0.87905 0.0
C1194 C 0.55139 0.47098 0.81036 0.0
C1195 C 0.54368 0.47601 0.77872 0.0
C1196 C 0.54316 0.48838 0.79667 0.0
C1197 C 0.54966 0.49517 0.84625 0.0
C1198 C 0.51785 0.44462 0.68747 0.0
C1199 C 0.51638 0.45198 0.64204 0.0
C1200 C 0.52714 0.45242 0.7308 0.0
C1201 C 0.53524 0.46776 0.72965 0.0
C1202 C 0.53433 0.47508 0.68298 0.0
C1203 C 0.525 0.46728 0.63965 0.0
H1204 H 0.52795 0.05207 0.6632 0.0
H1205 H 0.55447 0.09904 0.67151 0.0
H1206 H 0.51208 0.05243 0.73399 0.0
H1207 H 0.53807 0.09954 0.74088 0.0
H1208 H 0.51912 0.09208 0.91598 0.0
H1209 H 0.53297 0.09387 0.834 0.0
H1210 H 0.49431 0.05793 0.76164 0.0
H1211 H 0.4807 0.05567 0.84532 0.0
C1212 C 0.53019 0.06254 0.67929 0.0
C1213 C 0.54253 0.07552 0.66208 0.0
C1214 C 0.52099 0.06276 0.71978 0.0
C1215 C 0.52376 0.07602 0.7436 0.0
C1216 C 0.53574 0.0891 0.72435 0.0
C1217 C 0.5451 0.08884 0.6843 0.0
C1218 C 0.51355 0.08465 0.88232 0.0
C1219 C 0.49888 0.07361 0.88731 0.0
C1220 C 0.52147 0.08575 0.83497 0.0
C1221 C 0.51484 0.07597 0.79106 0.0
C1222 C 0.49991 0.06543 0.79505 0.0
C1223 C 0.49205 0.06418 0.84285 0.0
H1224 H 0.52564 0.05607 0.11929 0.0
H1225 H 0.50787 0.07948 0.20492 0.0
H1226 H 0.54124 0.05927 0.19784 0.0
H1227 H 0.52316 0.08232 0.28384 0.0
H1228 H 0.55057 0.0503 0.37459 0.0
H1229 H 0.53804 0.04962 0.28965 0.0
H1230 H 0.54771 0.09389 0.3184 0.0
H1231 H 0.55986 0.0944 0.40407 0.0
C1232 C 0.52512 0.06198 0.1547 0.0
C1233 C 0.51544 0.06745 0.15588 0.0
C1234 C 0.534 0.06372 0.19988 0.0
C1235 C 0.53337 0.07094 0.24735 0.0
C1236 C 0.52406 0.07685 0.24776 0.0
C1237 C 0.51522 0.07516 0.20251 0.0
C1238 C 0.55009 0.05991 0.36256 0.0
C1239 C 0.5561 0.07236 0.39618 0.0
C1240 C 0.543 0.05957 0.31368 0.0
C1241 C 0.54183 0.0717 0.29726 0.0
C1242 C 0.54821 0.08428 0.33025 0.0
C1243 C 0.55524 0.0846 0.37922 0.0
H1244 H 0.95428 0.47448 0.13806 0.0
H1245 H 0.90939 0.44039 0.15751 0.0
H1246 H 0.95176 0.48766 0.2146 0.0
H1247 H 0.90644 0.45405 0.23207 0.0
H1248 H 0.91255 0.47093 0.40815 0.0
H1249 H 0.91273 0.45923 0.32295 0.0
H1250 H 0.94283 0.50145 0.25318 0.0
H1251 H 0.94335 0.513 0.34045 0.0
C1252 C 0.94373 0.46999 0.15789 0.0
C1253 C 0.93206 0.45634 0.14218 0.0
C1254 C 0.94223 0.47762 0.20172 0.0
C1255 C 0.9289 0.47194 0.23022 0.0
C1256 C 0.91699 0.45863 0.21228 0.0
C1257 C 0.91861 0.45082 0.16922 0.0
C1258 C 0.91912 0.47772 0.37442 0.0
C1259 C 0.92805 0.49285 0.38102 0.0
C1260 C 0.91913 0.47101 0.32516 0.0
C1261 C 0.92784 0.47932 0.28074 0.0
C1262 C 0.93625 0.49461 0.28672 0.0
C1263 C 0.93649 0.50127 0.33657 0.0
H1264 H 0.51575 0.4322 0.4046 0.0
H1265 H 0.4734 0.42127 0.34084 0.0
H1266 H 0.52703 0.44403 0.31877 0.0
H1267 H 0.48448 0.43219 0.25285 0.0
H1268 H 0.5109 0.47085 0.13793 0.0
H1269 H 0.49802 0.45484 0.2142 0.0
H1270 H 0.53188 0.44338 0.22752 0.0
H1271 H 0.54526 0.46034 0.15338 0.0
C1272 C 0.5088 0.43201 0.37154 0.0
C1273 C 0.49372 0.42596 0.37949 0.0
C1274 C 0.51526 0.43871 0.32189 0.0
C1275 C 0.50674 0.43922 0.27842 0.0
C1276 C 0.49149 0.4324 0.28563 0.0
C1277 C 0.48509 0.42602 0.33589 0.0
C1278 C 0.5155 0.46477 0.15678 0.0
C1279 C 0.52914 0.46694 0.1401 0.0
C1280 C 0.50804 0.45546 0.20046 0.0
C1281 C 0.51389 0.4478 0.2278 0.0
C1282 C 0.52718 0.44936 0.20873 0.0
C1283 C 0.53482 0.45899 0.16588 0.0
H1284 H 0.376 0.2241 0.8268 0.0
H1285 H 0.42173 0.23826 0.80473 0.0
H1286 H 0.37599 0.21245 0.91303 0.0
H1287 H 0.42179 0.22682 0.89168 0.0
H1288 H 0.40813 0.18519 -0.00304 0.0
H1289 H 0.41131 0.20156 0.92144 0.0
H1290 H 0.38502 0.21598 0.00705 0.0
H1291 H 0.38157 0.19937 0.08237 0.0
C1292 C 0.38612 0.22496 0.84086 0.0
C1293 C 0.39882 0.23196 0.80865 0.0
C1294 C 0.38614 0.21835 0.89049 0.0
C1295 C 0.39887 0.21862 0.90905 0.0
C1296 C 0.41175 0.22623 0.87807 0.0
C1297 C 0.41173 0.23284 0.82841 0.0
C1298 C 0.40318 0.19198 0.00012 0.0
C1299 C 0.39446 0.19083 0.0455 0.0
C1300 C 0.40509 0.20145 0.9569 0.0
C1301 C 0.39833 0.21 0.95806 0.0
C1302 C 0.39018 0.20936 0.00458 0.0
C1303 C 0.38827 0.19989 0.04786 0.0
H1304 H 0.76685 0.15495 0.78814 0.0
H1305 H 0.7532 0.18641 0.75392 0.0
H1306 H 0.77754 0.16722 0.87453 0.0
H1307 H 0.76363 0.19853 0.8411 0.0
H1308 H 0.78908 0.18672 0.04152 0.0
H1309 H 0.77298 0.17323 0.9655 0.0
H1310 H 0.78822 0.21353 0.87579 0.0
H1311 H 0.80406 0.22707 0.95215 0.0
C1312 C 0.76591 0.16434 0.79952 0.0
C1313 C 0.75932 0.1698 0.76396 0.0
C1314 C 0.77195 0.17133 0.84927 0.0
C1315 C 0.77149 0.1839 0.86464 0.0
C1316 C 0.76434 0.18899 0.83009 0.0
C1317 C 0.75832 0.18201 0.78026 0.0
C1318 C 0.78881 0.19275 0.006 0.0
C1319 C 0.79801 0.20797 0.00268 0.0
C1320 C 0.77963 0.18499 0.9623 0.0
C1321 C 0.77947 0.19227 0.91426 0.0
C1322 C 0.788 0.20758 0.91232 0.0
C1323 C 0.79714 0.21535 0.95609 0.0
H1324 H 0.76089 0.55547 0.97656 0.0
H1325 H 0.78841 0.60231 0.98688 0.0
H1326 H 0.77722 0.55466 0.90754 0.0
H1327 H 0.80421 0.60167 0.91646 0.0
H1328 H 0.83547 0.59794 0.80693 0.0
H1329 H 0.82164 0.59565 0.88997 0.0
H1330 H 0.78289 0.5605 0.81478 0.0
H1331 H 0.79696 0.5623 0.7334 0.0
C1332 C 0.77046 0.56557 0.96423 0.0
C1333 C 0.77334 0.57895 0.98698 0.0
C1334 C 0.77977 0.56514 0.92441 0.0
C1335 C 0.79204 0.57811 0.90594 0.0
C1336 C 0.79508 0.59141 0.93013 0.0
C1337 C 0.78592 0.5918 0.97038 0.0
C1338 C 0.82405 0.58958 0.80866 0.0
C1339 C 0.81726 0.58039 0.76359 0.0
C1340 C 0.81607 0.58832 0.85608 0.0
C1341 C 0.80104 0.57803 0.85903 0.0
C1342 C 0.79445 0.56844 0.81457 0.0
C1343 C 0.8025 0.56953 0.76759 0.0
H1344 H 0.4212 0.94193 0.65842 0.0
H1345 H 0.43115 0.90937 0.60021 0.0
H1346 H 0.43325 0.94319 0.74539 0.0
H1347 H 0.44404 0.91129 0.68469 0.0
H1348 H 0.46089 0.91077 0.85035 0.0
H1349 H 0.44378 0.90678 0.77646 0.0
H1350 H 0.45617 0.95244 0.78289 0.0
H1351 H 0.47238 0.956 0.85941 0.0
C1352 C 0.42597 0.93505 0.66434 0.0
C1353 C 0.42525 0.92557 0.62264 0.0
C1354 C 0.43301 0.93585 0.71398 0.0
C1355 C 0.43979 0.92743 0.72242 0.0
C1356 C 0.43874 0.91774 0.68073 0.0
C1357 C 0.43142 0.9167 0.63182 0.0
C1358 C 0.45975 0.91986 0.83629 0.0
C1359 C 0.46798 0.93369 0.86029 0.0
C1360 C 0.45003 0.91764 0.79357 0.0
C1361 C 0.44867 0.92932 0.77266 0.0
C1362 C 0.45666 0.94308 0.79806 0.0
C1363 C 0.46607 0.94519 0.8418 0.0
H1364 H 0.08339 0.5582 0.82069 0.0
H1365 H 0.05615 0.51785 0.90759 0.0
H1366 H 0.08565 0.54451 0.74489 0.0
H1367 H 0.05871 0.50419 0.83216 0.0
H1368 H 0.09363 0.51695 0.62578 0.0
H1369 H 0.09486 0.52901 0.71258 0.0
H1370 H 0.04901 0.49867 0.73977 0.0
H1371 H 0.04787 0.48644 0.65378 0.0
C1372 C 0.07813 0.54643 0.82419 0.0
C1373 C 0.06943 0.53912 0.86994 0.0
C1374 C 0.07949 0.53858 0.78077 0.0
C1375 C 0.07222 0.52324 0.78222 0.0
C1376 C 0.06421 0.51598 0.82936 0.0
C1377 C 0.06282 0.52383 0.87272 0.0
C1378 C 0.08387 0.51275 0.65068 0.0
C1379 C 0.07062 0.50083 0.63274 0.0
C1380 C 0.08456 0.5197 0.70027 0.0
C1381 C 0.07202 0.51487 0.73294 0.0
C1382 C 0.05892 0.50257 0.71597 0.0
C1383 C 0.05824 0.49561 0.66646 0.0
H1384 H 0.42871 0.52094 0.80755 0.0
H1385 H 0.46912 0.53628 0.89703 0.0
H1386 H 0.44217 0.53676 0.73109 0.0
H1387 H 0.48253 0.5524 0.82095 0.0
H1388 H 0.46912 0.57187 0.60908 0.0
H1389 H 0.45693 0.56128 0.69601 0.0
H1390 H 0.48872 0.54803 0.73034 0.0
H1391 H 0.50107 0.5589 0.64434 0.0
C1392 C 0.44042 0.52793 0.81147 0.0
C1393 C 0.44785 0.52718 0.85814 0.0
C1394 C 0.44815 0.53707 0.76765 0.0
C1395 C 0.46346 0.54572 0.76962 0.0
C1396 C 0.47077 0.54564 0.8177 0.0
C1397 C 0.46306 0.53646 0.86144 0.0
C1398 C 0.4736 0.56686 0.63557 0.0
C1399 C 0.48599 0.56611 0.61968 0.0
C1400 C 0.46658 0.56074 0.68525 0.0
C1401 C 0.47179 0.55374 0.72002 0.0
C1402 C 0.48451 0.55351 0.70496 0.0
C1403 C 0.49154 0.55965 0.65541 0.0
H1404 H 0.56824 0.80707 0.0139 0.0
H1405 H 0.59024 0.78907 0.92031 0.0
H1406 H 0.56516 0.79079 0.08973 0.0
H1407 H 0.58681 0.77253 -0.00431 0.0
H1408 H 0.55606 0.7554 0.21225 0.0
H1409 H 0.55426 0.76608 0.12566 0.0
H1410 H 0.59826 0.77673 0.08459 0.0
H1411 H 0.59993 0.76584 0.17004 0.0
C1412 C 0.57212 0.79942 0.00896 0.0
C1413 C 0.5797 0.79955 0.96137 0.0
C1414 C 0.57028 0.79001 0.0524 0.0
C1415 C 0.57591 0.78049 0.04904 0.0
C1416 C 0.58261 0.77995 -1e-05 0.0
C1417 C 0.58452 0.78939 0.95669 0.0
C1418 C 0.56525 0.75983 0.18427 0.0
C1419 C 0.57818 0.75989 0.19814 0.0
C1420 C 0.56424 0.76601 0.13483 0.0
C1421 C 0.57613 0.77232 0.0983 0.0
C1422 C 0.58881 0.7718 0.11134 0.0
C1423 C 0.58982 0.76565 0.16062 0.0
H1424 H 0.2326 0.84245 0.14126 0.0
H1425 H 0.22437 0.80037 0.19836 0.0
H1426 H 0.22157 0.8317 0.05295 0.0
H1427 H 0.21248 0.78939 0.11234 0.0
H1428 H 0.19645 0.77201 0.94616 0.0
H1429 H 0.21335 0.78559 0.02018 0.0
H1430 H 0.19891 0.81731 0.01467 0.0
H1431 H 0.18292 0.80427 0.93839 0.0
C1432 C 0.22842 0.8309 0.13481 0.0
C1433 C 0.22928 0.82224 0.17664 0.0
C1434 C 0.22199 0.82467 0.08437 0.0
C1435 C 0.21594 0.80958 0.0752 0.0
C1436 C 0.21721 0.80106 0.11693 0.0
C1437 C 0.22394 0.80735 0.16671 0.0
C1438 C 0.19713 0.78204 0.96031 0.0
C1439 C 0.18835 0.78705 0.93677 0.0
C1440 C 0.20672 0.78978 0.00311 0.0
C1441 C 0.20741 0.8025 0.02441 0.0
C1442 C 0.19895 0.80775 -0.0008 0.0
C1443 C 0.18966 0.8002 0.95552 0.0
H1444 H 0.17968 0.38372 0.91688 0.0
H1445 H 0.21981 0.413 0.00152 0.0
H1446 H 0.16568 0.3859 0.99202 0.0
H1447 H 0.20583 0.41487 0.07695 0.0
H1448 H 0.17796 0.42227 0.19482 0.0
H1449 H 0.18973 0.42332 0.10761 0.0
H1450 H 0.16057 0.37702 0.08554 0.0
H1451 H 0.14857 0.37606 0.17204 0.0
C1452 C 0.18553 0.39075 0.95117 0.0
C1453 C 0.20088 0.39808 0.95339 0.0
C1454 C 0.17749 0.39192 -0.00562 0.0
C1455 C 0.18462 0.40043 0.04074 0.0
C1456 C 0.19998 0.40833 0.04164 0.0
C1457 C 0.20801 0.40719 -0.00157 0.0
C1458 C 0.17394 0.41236 0.17096 0.0
C1459 C 0.16244 0.39905 0.19052 0.0
C1460 C 0.18073 0.41295 0.12111 0.0
C1461 C 0.1762 0.40024 0.08985 0.0
C1462 C 0.16424 0.38705 0.10828 0.0
C1463 C 0.15741 0.38648 0.15804 0.0
H1464 H 0.22076 0.41742 0.71562 0.0
H1465 H 0.23215 0.38616 0.65417 0.0
H1466 H 0.2088 0.41639 0.6296 0.0
H1467 H 0.22109 0.38586 0.56592 0.0
H1468 H 0.1823 0.37287 0.45055 0.0
H1469 H 0.19842 0.37641 0.52697 0.0
H1470 H 0.2094 0.42162 0.53814 0.0
H1471 H 0.19233 0.41762 0.46389 0.0
C1472 C 0.22102 0.41059 0.68302 0.0
C1473 C 0.22725 0.40175 0.69169 0.0
C1474 C 0.21425 0.41008 0.63325 0.0
C1475 C 0.21384 0.40097 0.59032 0.0
C1476 C 0.22081 0.39272 0.59826 0.0
C1477 C 0.22727 0.39296 0.64867 0.0
C1478 C 0.1883 0.38361 0.46895 0.0
C1479 C 0.18596 0.39494 0.45167 0.0
C1480 C 0.19767 0.38571 0.51273 0.0
C1481 C 0.20522 0.3993 0.53953 0.0
C1482 C 0.2035 0.41088 0.51979 0.0
C1483 C 0.19382 0.40866 0.47688 0.0
H1484 H 0.60051 0.83845 0.67387 0.0
H1485 H 0.55645 0.80462 0.71157 0.0
H1486 H 0.59963 0.82608 0.58863 0.0
H1487 H 0.55547 0.79233 0.62545 0.0
H1488 H 0.59188 0.80619 0.42213 0.0
H1489 H 0.58846 0.81904 0.49841 0.0
H1490 H 0.567 0.77884 0.591 0.0
H1491 H 0.57014 0.7659 0.51436 0.0
C1492 C 0.59055 0.82848 0.66353 0.0
C1493 C 0.5786 0.82245 0.69968 0.0
C1494 C 0.59 0.82144 0.61443 0.0
C1495 C 0.57749 0.80819 0.6003 0.0
C1496 C 0.56533 0.80243 0.63552 0.0
C1497 C 0.56587 0.8095 0.68468 0.0
C1498 C 0.58623 0.80003 0.45841 0.0
C1499 C 0.58144 0.78504 0.46236 0.0
C1500 C 0.58434 0.80742 0.50223 0.0
C1501 C 0.57763 0.80001 0.55102 0.0
C1502 C 0.57212 0.78486 0.55385 0.0
C1503 C 0.57399 0.77745 0.50996 0.0
H1504 H 0.15115 0.76719 0.65804 0.0
H1505 H 0.18146 0.75146 0.68011 0.0
H1506 H 0.16293 0.77845 0.57141 0.0
H1507 H 0.19298 0.76235 0.59274 0.0
H1508 H 0.22233 0.803 0.48673 0.0
H1509 H 0.20861 0.78694 0.56209 0.0
H1510 H 0.1682 0.77511 0.47786 0.0
H1511 H 0.18194 0.79152 0.40281 0.0
C1512 C 0.16014 0.76589 0.64383 0.0
C1513 C 0.1655 0.7586 0.67617 0.0
C1514 C 0.16685 0.77227 0.59399 0.0
C1515 C 0.17899 0.77141 0.57534 0.0
C1516 C 0.18383 0.76346 0.60642 0.0
C1517 C 0.17719 0.75716 0.65637 0.0
C1518 C 0.21053 0.79682 0.48377 0.0
C1519 C 0.20325 0.79869 0.43896 0.0
C1520 C 0.20264 0.78752 0.52695 0.0
C1521 C 0.18728 0.77981 0.52624 0.0
C1522 C 0.18001 0.78109 0.4801 0.0
C1523 C 0.18791 0.79043 0.43693 0.0
H1524 H 0.04943 0.55754 0.15294 0.0
H1525 H 0.09485 0.57109 0.12605 0.0
H1526 H 0.04985 0.54597 0.23877 0.0
H1527 H 0.09538 0.55978 0.2127 0.0
H1528 H 0.08215 0.51861 0.32037 0.0
H1529 H 0.08516 0.53486 0.24458 0.0
H1530 H 0.05936 0.54967 0.33142 0.0
H1531 H 0.05605 0.53316 0.40684 0.0
C1532 C 0.05958 0.55827 0.16583 0.0
C1533 C 0.07206 0.5651 0.13246 0.0
C1534 C 0.05985 0.55172 0.21526 0.0
C1535 C 0.07264 0.55189 0.23249 0.0
C1536 C 0.0853 0.55927 0.20018 0.0
C1537 C 0.08501 0.5658 0.15068 0.0
C1538 C 0.0773 0.52549 0.32377 0.0
C1539 C 0.0687 0.52443 0.36941 0.0
C1540 C 0.07909 0.53488 0.28035 0.0
C1541 C 0.07237 0.54346 0.2817 0.0
C1542 C 0.06445 0.543 0.32869 0.0
C1543 C 0.06263 0.53359 0.37205 0.0
H1544 H 0.43082 0.4878 0.14108 0.0
H1545 H 0.41605 0.51885 0.11842 0.0
H1546 H 0.44271 0.49983 0.2265 0.0
H1547 H 0.42771 0.53072 0.20459 0.0
H1548 H 0.4559 0.51876 0.39511 0.0
H1549 H 0.4393 0.50535 0.32015 0.0
H1550 H 0.45284 0.54589 0.23437 0.0
H1551 H 0.4692 0.55934 0.30969 0.0
C1552 C 0.42989 0.49704 0.15484 0.0
C1553 C 0.42263 0.50246 0.12273 0.0
C1554 C 0.43664 0.50389 0.204 0.0
C1555 C 0.43624 0.5163 0.22221 0.0
C1556 C 0.42841 0.52132 0.19126 0.0
C1557 C 0.42167 0.51448 0.14204 0.0
C1558 C 0.45519 0.52484 0.36064 0.0
C1559 C 0.464 0.54013 0.3582 0.0
C1560 C 0.44572 0.51713 0.31754 0.0
C1561 C 0.44485 0.52453 0.27103 0.0
C1562 C 0.45314 0.53986 0.26981 0.0
C1563 C 0.46259 0.54758 0.31293 0.0
H1564 H 0.46453 0.91063 0.09171 0.0
H1565 H 0.50694 0.93893 0.16271 0.0
H1566 H 0.45298 0.91023 0.17824 0.0
H1567 H 0.49553 0.93781 0.25083 0.0
H1568 H 0.46979 0.95048 0.36762 0.0
H1569 H 0.48265 0.94763 0.29073 0.0
H1570 H 0.44746 0.90318 0.26887 0.0
H1571 H 0.43418 0.90647 0.34405 0.0
C1572 C 0.4714 0.91647 0.12639 0.0
C1573 C 0.48661 0.92495 0.12043 0.0
C1574 C 0.46479 0.91617 0.17633 0.0
C1575 C 0.47327 0.92409 0.22186 0.0
C1576 C 0.48858 0.93188 0.21647 0.0
C1577 C 0.49516 0.93246 0.16611 0.0
C1578 C 0.46489 0.94003 0.34688 0.0
C1579 C 0.45091 0.92875 0.36148 0.0
C1580 C 0.47232 0.93833 0.3028 0.0
C1581 C 0.4661 0.92519 0.2729 0.0
C1582 C 0.45246 0.91359 0.28984 0.0
C1583 C 0.44488 0.91541 0.33324 0.0
H1584 H 0.20593 0.33232 0.91344 0.0
H1585 H 0.23867 0.36982 0.0025 0.0
H1586 H 0.20131 0.31725 -0.00517 0.0
H1587 H 0.23406 0.35467 0.08383 0.0
H1588 H 0.20093 0.3282 0.22583 0.0
H1589 H 0.21243 0.34338 0.14556 0.0
H1590 H 0.2111 0.30669 0.06255 0.0
H1591 H 0.1995 0.29141 0.14277 0.0
C1592 C 0.21238 0.33728 0.94995 0.0
C1593 C 0.22253 0.35232 0.95158 0.0
C1594 C 0.20978 0.32862 -0.00342 0.0
C1595 C 0.21723 0.33481 0.04592 0.0
C1596 C 0.22803 0.34964 0.04658 0.0
C1597 C 0.23071 0.35829 -0.00017 0.0
C1598 C 0.20335 0.32342 0.19095 0.0
C1599 C 0.19912 0.30853 0.19056 0.0
C1600 C 0.21003 0.33216 0.145 0.0
C1601 C 0.21255 0.32619 0.09753 0.0
C1602 C 0.20913 0.31154 0.09831 0.0
C1603 C 0.20255 0.30282 0.14443 0.0
H1604 H 0.65993 0.87362 0.21789 0.0
H1605 H 0.69614 0.9062 0.12292 0.0
H1606 H 0.6435 0.86966 0.14149 0.0
H1607 H 0.67961 0.90224 0.04651 0.0
H1608 H 0.61527 0.86859 0.00324 0.0
H1609 H 0.63211 0.88004 0.0799 0.0
H1610 H 0.66684 0.88069 0.98458 0.0
H1611 H 0.6501 0.86933 0.90799 0.0
C1612 C 0.66434 0.88017 0.1812 0.0
C1613 C 0.67939 0.89009 0.17632 0.0
C1614 C 0.65489 0.87796 0.13748 0.0
C1615 C 0.66029 0.88555 0.08778 0.0
C1616 C 0.67517 0.89612 0.0841 0.0
C1617 C 0.68462 0.89843 0.12803 0.0
C1618 C 0.62658 0.87149 -0.00187 0.0
C1619 C 0.6313 0.86788 0.94967 0.0
C1620 C 0.63619 0.87797 0.04219 0.0
C1621 C 0.65075 0.88114 0.03846 0.0
C1622 C 0.65571 0.87848 0.98864 0.0
C1623 C 0.64609 0.87188 0.9448 0.0
H1624 H 0.10647 0.76678 0.89212 0.0
H1625 H 0.13248 0.75663 0.00028 0.0
H1626 H 0.0943 0.77006 0.97125 0.0
H1627 H 0.12147 0.76112 0.07919 0.0
H1628 H 0.09943 0.76733 0.22073 0.0
H1629 H 0.10359 0.75634 0.13989 0.0
H1630 H 0.0983 0.78673 0.0366 0.0
H1631 H 0.09287 0.79659 0.1169 0.0
C1632 C 0.10953 0.76521 0.93294 0.0
C1633 C 0.12042 0.76149 0.94012 0.0
C1634 C 0.10269 0.76725 0.97852 0.0
C1635 C 0.10698 0.76615 0.03237 0.0
C1636 C 0.11754 0.76185 0.03898 0.0
C1637 C 0.124 0.75936 0.99348 0.0
C1638 C 0.09882 0.77135 0.18045 0.0
C1639 C 0.09588 0.78281 0.175 0.0
C1640 C 0.10139 0.76519 0.13395 0.0
C1641 C 0.10163 0.77077 0.08105 0.0
C1642 C 0.09802 0.78186 0.07595 0.0
C1643 C 0.09498 0.78764 0.12226 0.0
H1644 H 0.31731 0.19783 0.28505 0.0
H1645 H 0.28388 0.19986 0.38014 0.0
H1646 H 0.33473 0.20987 0.35934 0.0
H1647 H 0.30136 0.21191 0.45442 0.0
H1648 H 0.32953 0.20668 0.59388 0.0
H1649 H 0.31272 0.2015 0.5176 0.0
H1650 H 0.34832 0.23266 0.41687 0.0
H1651 H 0.36522 0.23791 0.49331 0.0
C1652 C 0.31375 0.20112 0.32127 0.0
C1653 C 0.29915 0.19772 0.32687 0.0
C1654 C 0.32376 0.20809 0.36374 0.0
C1655 C 0.31936 0.21171 0.41287 0.0
C1656 C 0.305 0.20911 0.41721 0.0
C1657 C 0.29502 0.20227 0.3745 0.0
C1658 C 0.33375 0.21263 0.55583 0.0
C1659 C 0.34874 0.2226 0.54955 0.0
C1660 C 0.32409 0.20973 0.51222 0.0
C1661 C 0.32923 0.21662 0.46119 0.0
C1662 C 0.34409 0.22711 0.45564 0.0
C1663 C 0.35374 0.23015 0.49952 0.0
H1664 H 0.78345 0.12212 0.55289 0.0
H1665 H 0.74897 0.12327 0.46164 0.0
H1666 H 0.78774 0.1101 0.47578 0.0
H1667 H 0.75326 0.11117 0.38462 0.0
H1668 H 0.78868 0.08278 0.33705 0.0
H1669 H 0.77772 0.08806 0.41555 0.0
H1670 H 0.77435 0.12066 0.32012 0.0
H1671 H 0.78523 0.11539 0.24169 0.0
C1672 C 0.77657 0.11953 0.51688 0.0
C1673 C 0.76599 0.12383 0.51324 0.0
C1674 C 0.77898 0.11256 0.47277 0.0
C1675 C 0.77092 0.10981 0.42394 0.0
C1676 C 0.75975 0.11331 0.4215 0.0
C1677 C 0.75726 0.12018 0.46579 0.0
C1678 C 0.78531 0.09085 0.3324 0.0
C1679 C 0.78797 0.09878 0.28323 0.0
C1680 C 0.77911 0.09392 0.3775 0.0
C1681 C 0.77529 0.10484 0.37415 0.0
C1682 C 0.77708 0.11209 0.3239 0.0
C1683 C 0.7834 0.10913 0.279 0.0
H1684 H 0.90548 0.70332 0.36043 0.0
H1685 H 0.87375 0.66754 0.2615 0.0
H1686 H 0.90078 0.68648 0.43654 0.0
H1687 H 0.8691 0.65079 0.33745 0.0
H1688 H 0.86692 0.65544 0.57076 0.0
H1689 H 0.87858 0.67287 0.49627 0.0
H1690 H 0.87978 0.63945 0.39859 0.0
H1691 H 0.86808 0.62194 0.47303 0.0
C1692 C 0.89772 0.69184 0.3545 0.0
C1693 C 0.88988 0.68679 0.30504 0.0
C1694 C 0.895 0.68222 0.3982 0.0
C1695 C 0.88453 0.66734 0.39305 0.0
C1696 C 0.87733 0.66217 0.34253 0.0
C1697 C 0.87993 0.6718 0.2991 0.0
C1698 C 0.86996 0.65187 0.53392 0.0
C1699 C 0.86639 0.63724 0.52765 0.0
C1700 C 0.87671 0.66189 0.4913 0.0
C1701 C 0.87995 0.65747 0.44138 0.0
C1702 C 0.87725 0.6431 0.43639 0.0
C1703 C 0.87062 0.63311 0.4792 0.0
H1704 H 0.7939 0.66244 0.74547 0.0
H1705 H 0.78037 0.69048 0.82312 0.0
H1706 H 0.77953 0.64329 0.81077 0.0
H1707 H 0.7655 0.67099 0.88786 0.0
H1708 H 0.75943 0.64047 0.03633 0.0
H1709 H 0.76936 0.65929 0.96543 0.0
H1710 H 0.75583 0.6259 0.84083 0.0
H1711 H 0.74648 0.60721 0.91179 0.0
C1712 C 0.78763 0.66444 0.77586 0.0
C1713 C 0.78839 0.67806 0.7792 0.0
C1714 C 0.77927 0.65338 0.81324 0.0
C1715 C 0.77133 0.65556 0.85477 0.0
C1716 C 0.77164 0.669 0.8569 0.0
C1717 C 0.78008 0.68014 0.81954 0.0
C1718 C 0.75841 0.63717 0.99372 0.0
C1719 C 0.75236 0.62239 0.97965 0.0
C1720 C 0.76403 0.64795 0.95298 0.0
C1721 C 0.76358 0.64414 0.89735 0.0
C1722 C 0.7567 0.62926 0.8833 0.0
C1723 C 0.75125 0.61853 0.92397 0.0
H1724 H 0.35664 0.12535 0.00324 0.0
H1725 H 0.325 0.11707 0.13046 0.0
H1726 H 0.33692 0.11222 0.93748 0.0
H1727 H 0.30527 0.10328 0.06576 0.0
H1728 H 0.2975 0.08127 0.83456 0.0
H1729 H 0.3168 0.09037 0.90412 0.0
H1730 H 0.29493 0.10931 0.99305 0.0
H1731 H 0.27556 0.09973 0.92545 0.0
C1732 C 0.34545 0.12038 0.01747 0.0
C1733 C 0.34235 0.1224 0.0718 0.0
C1734 C 0.33412 0.1128 0.97979 0.0
C1735 C 0.31945 0.10688 -0.0041 0.0
C1736 C 0.31642 0.10806 0.05133 0.0
C1737 C 0.32773 0.11587 0.08864 0.0
C1738 C 0.29683 0.0873 0.86928 0.0
C1739 C 0.285 0.08974 0.87462 0.0
C1740 C 0.3079 0.09257 0.90905 0.0
C1741 C 0.30742 0.10052 0.95462 0.0
C1742 C 0.29554 0.10293 0.95953 0.0
C1743 C 0.28445 0.09753 0.92034 0.0
H1744 H 0.90406 0.2009 0.82667 0.0
H1745 H 0.86913 0.20142 0.73623 0.0
H1746 H 0.89976 0.21302 0.90359 0.0
H1747 H 0.86484 0.21347 0.81325 0.0
H1748 H 0.86798 0.20877 0.0473 0.0
H1749 H 0.87875 0.20345 0.9687 0.0
H1750 H 0.8749 0.23569 0.8728 0.0
H1751 H 0.86405 0.24104 0.95151 0.0
C1752 C 0.89566 0.20385 0.82268 0.0
C1753 C 0.88682 0.20002 0.77548 0.0
C1754 C 0.89317 0.21074 0.8669 0.0
C1755 C 0.88189 0.21407 0.86466 0.0
C1756 C 0.87369 0.21113 0.81609 0.0
C1757 C 0.8761 0.20414 0.77203 0.0
C1758 C 0.86968 0.21494 0.00984 0.0
C1759 C 0.86501 0.22522 0.00556 0.0
C1760 C 0.87594 0.21195 0.96484 0.0
C1761 C 0.87757 0.21908 0.91444 0.0
C1762 C 0.87364 0.22993 0.91099 0.0
C1763 C 0.8675 0.23303 0.9562 0.0
H1764 H 0.67092 0.77693 0.69315 0.0
H1765 H 0.70466 0.79506 0.56938 0.0
H1766 H 0.6523 0.76863 0.62143 0.0
H1767 H 0.68614 0.78635 0.4978 0.0
H1768 H 0.65116 0.79003 0.3995 0.0
H1769 H 0.6698 0.79401 0.46615 0.0
H1770 H 0.64027 0.75287 0.54386 0.0
H1771 H 0.62131 0.74904 0.47762 0.0
C1772 C 0.67435 0.77885 0.65059 0.0
C1773 C 0.68923 0.78682 0.6369 0.0
C1774 C 0.66368 0.77404 0.60943 0.0
C1775 C 0.66772 0.777 0.5538 0.0
C1776 C 0.68264 0.78419 0.54023 0.0
C1777 C 0.69326 0.78912 0.58127 0.0
C1778 C 0.64864 0.78172 0.43031 0.0
C1779 C 0.63468 0.76926 0.43333 0.0
C1780 C 0.65941 0.78396 0.46846 0.0
C1781 C 0.65656 0.77377 0.51054 0.0
C1782 C 0.64277 0.76103 0.51243 0.0
C1783 C 0.63194 0.75879 0.4742 0.0
H1784 H 0.20336 0.90435 0.63493 0.0
H1785 H 0.20791 0.8707 0.71779 0.0
H1786 H 0.21401 0.90057 0.55219 0.0
H1787 H 0.21846 0.8669 0.63499 0.0
H1788 H 0.20715 0.86874 0.40501 0.0
H1789 H 0.2036 0.87961 0.48743 0.0
H1790 H 0.23874 0.87714 0.56747 0.0
H1791 H 0.24228 0.86618 0.48518 0.0
C1792 C 0.20692 0.89637 0.63599 0.0
C1793 C 0.2046 0.88768 0.68284 0.0
C1794 C 0.21294 0.89416 0.58841 0.0
C1795 C 0.2169 0.88333 0.58685 0.0
C1796 C 0.21559 0.8754 0.63495 0.0
C1797 C 0.20948 0.87754 0.6824 0.0
C1798 C 0.21433 0.87079 0.43971 0.0
C1799 C 0.22486 0.8664 0.43866 0.0
C1800 C 0.21234 0.8771 0.48691 0.0
C1801 C 0.22081 0.87911 0.53414 0.0
C1802 C 0.23194 0.87555 0.53194 0.0
C1803 C 0.23399 0.86933 0.48464 0.0
H1804 H 0.11388 0.32952 0.41448 0.0
H1805 H 0.11828 0.36734 0.49966 0.0
H1806 H 0.10254 0.31464 0.49556 0.0
H1807 H 0.10682 0.35238 0.58066 0.0
H1808 H 0.11178 0.326 0.72722 0.0
H1809 H 0.11624 0.3411 0.64606 0.0
H1810 H 0.08165 0.30429 0.56033 0.0
H1811 H 0.0772 0.2891 0.64145 0.0
C1812 C 0.11214 0.3346 0.45002 0.0
C1813 C 0.11718 0.34967 0.45073 0.0
C1814 C 0.10556 0.32605 0.49647 0.0
C1815 C 0.10391 0.33237 0.54472 0.0
C1816 C 0.10811 0.34724 0.54431 0.0
C1817 C 0.11462 0.35579 0.49774 0.0
C1818 C 0.1049 0.32119 0.69153 0.0
C1819 C 0.09426 0.30629 0.69068 0.0
C1820 C 0.10741 0.32987 0.64503 0.0
C1821 C 0.09939 0.32384 0.59657 0.0
C1822 C 0.08812 0.30919 0.59685 0.0
C1823 C 0.08554 0.30052 0.64349 0.0
H1824 H 0.00248 0.5423 0.9104 0.0
H1825 H 0.03905 0.57837 0.82888 0.0
H1826 H 0.98719 0.53892 0.83075 0.0
H1827 H 0.02365 0.57502 0.74935 0.0
H1828 H -0.00169 0.54507 0.59839 0.0
H1829 H 0.01334 0.55537 0.6799 0.0
H1830 H 0.97555 0.54904 0.77073 0.0
H1831 H 0.96041 0.53859 0.68926 0.0
C1832 C 0.00718 0.54972 0.87603 0.0
C1833 C 0.02205 0.56048 0.87582 0.0
C1834 C -0.00162 0.54783 0.83042 0.0
C1835 C 0.00425 0.55662 0.78351 0.0
C1836 C 0.01888 0.56796 0.78461 0.0
C1837 C 0.02767 0.5699 0.83035 0.0
C1838 C -0.00676 0.54617 0.63534 0.0
C1839 C 0.97811 0.54081 0.63742 0.0
C1840 C 0.00189 0.55215 0.68207 0.0
C1841 C -0.00441 0.55286 0.73197 0.0
C1842 C 0.98066 0.54843 0.73307 0.0
C1843 C 0.97202 0.54253 0.68623 0.0
H1844 H 0.44638 0.45713 0.90343 0.0
H1845 H 0.41163 0.45856 0.81527 0.0
H1846 H 0.45008 0.44487 0.82575 0.0
H1847 H 0.41533 0.4462 0.73761 0.0
H1848 H 0.45002 0.41705 0.6881 0.0
H1849 H 0.43946 0.42265 0.76694 0.0
H1850 H 0.43587 0.45504 0.67099 0.0
H1851 H 0.44633 0.44943 0.59213 0.0
C1852 C 0.43934 0.45458 0.86794 0.0
C1853 C 0.42883 0.45899 0.86538 0.0
C1854 C 0.4414 0.44746 0.82351 0.0
C1855 C 0.43306 0.44467 0.7754 0.0
C1856 C 0.42202 0.44836 0.77394 0.0
C1857 C 0.41987 0.45538 0.81857 0.0
C1858 C 0.44668 0.42513 0.68338 0.0
C1859 C 0.44919 0.43293 0.63395 0.0
C1860 C 0.4407 0.42839 0.72869 0.0
C1861 C 0.43698 0.43939 0.72534 0.0
C1862 C 0.43853 0.44644 0.6748 0.0
C1863 C 0.44461 0.44327 0.62963 0.0
H1864 H 0.53206 0.96483 0.81654 0.0
H1865 H 0.54646 -0.00203 0.94216 0.0
H1866 H 0.54477 0.98362 0.7473 0.0
H1867 H 0.55982 0.01675 0.87354 0.0
H1868 H 0.57276 0.02084 0.632 0.0
H1869 H 0.56609 0.00268 0.70504 0.0
H1870 H 0.55199 0.02699 0.80573 0.0
H1871 H 0.55913 0.04518 0.73438 0.0
C1872 C 0.53835 0.97611 0.8296 0.0
C1873 C 0.53808 0.97996 0.88461 0.0
C1874 C 0.54569 0.98691 0.78987 0.0
C1875 C 0.55309 0.00177 0.80453 0.0
C1876 C 0.55386 0.00546 0.86044 0.0
C1877 C 0.54631 0.9947 0.89992 0.0
C1878 C 0.56839 0.02233 0.67008 0.0
C1879 C 0.56646 0.03443 0.67739 0.0
C1880 C 0.56451 0.01191 0.71186 0.0
C1881 C 0.55855 0.01336 0.76157 0.0
C1882 C 0.55687 0.02562 0.76878 0.0
C1883 C 0.56084 0.03603 0.72745 0.0
H1884 H 0.44893 -0.00033 0.09044 0.0
H1885 H 0.44641 0.03413 0.17599 0.0
H1886 H 0.43747 0.98347 0.16832 0.0
H1887 H 0.43483 0.01782 0.25372 0.0
H1888 H 0.41207 0.95497 0.30902 0.0
H1889 H 0.41579 0.97019 0.22851 0.0
H1890 H 0.44565 0.00843 0.32119 0.0
H1891 H 0.44189 0.9933 0.40164 0.0
C1892 C 0.44561 0.00369 0.12524 0.0
C1893 C 0.4488 0.01828 0.12723 0.0
C1894 C 0.43896 0.99436 0.16984 0.0
C1895 C 0.43541 -0.00057 0.21747 0.0
C1896 C 0.43764 0.01368 0.21789 0.0
C1897 C 0.44421 0.02299 0.17317 0.0
C1898 C 0.41919 0.96666 0.31261 0.0
C1899 C 0.42682 0.9729 0.36164 0.0
C1900 C 0.42136 0.97536 0.26635 0.0
C1901 C 0.4311 0.99048 0.26834 0.0
C1902 C 0.43798 -0.00317 0.3184 0.0
C1903 C 0.43589 0.98813 0.36449 0.0
H1904 H 0.0003 0.45566 0.41165 0.0
H1905 H 0.03591 0.45408 0.33125 0.0
H1906 H 0.98475 0.44387 0.33247 0.0
H1907 H 0.02026 0.44215 0.25221 0.0
H1908 H 0.9573 0.41746 0.19196 0.0
H1909 H 0.9723 0.42192 0.2737 0.0
H1910 H 0.01064 0.45193 0.18178 0.0
H1911 H -0.00427 0.44741 0.10004 0.0
C1912 C 0.00473 0.45251 0.37765 0.0
C1913 C 0.01942 0.45601 0.37757 0.0
C1914 C -0.00423 0.44567 0.33232 0.0
C1915 C 0.00132 0.4422 0.28583 0.0
C1916 C 0.01574 0.44487 0.28714 0.0
C1917 C 0.02467 0.45165 0.33259 0.0
C1918 C 0.96898 0.42475 0.18879 0.0
C1919 C 0.97529 0.43222 0.13956 0.0
C1920 C 0.97755 0.42737 0.23577 0.0
C1921 C -0.00738 0.4374 0.23438 0.0
C1922 C -0.00093 0.44406 0.18417 0.0
C1923 C 0.9905 0.44152 0.13731 0.0
H1924 H 0.5379 0.54028 0.09698 0.0
H1925 H 0.56982 0.53446 0.18733 0.0
H1926 H 0.53443 0.55214 0.17642 0.0
H1927 H 0.56638 0.54646 0.26676 0.0
H1928 H 0.53406 0.54249 0.40835 0.0
H1929 H 0.54523 0.53772 0.32968 0.0
H1930 H 0.54511 0.57303 0.24111 0.0
H1931 H 0.53382 0.57778 0.31974 0.0
C1932 C 0.54442 0.54182 0.13333 0.0
C1933 C 0.55398 0.53623 0.13597 0.0
C1934 C 0.5425 0.54871 0.17883 0.0
C1935 C 0.55004 0.55012 0.22806 0.0
C1936 C 0.56029 0.54537 0.22959 0.0
C1937 C 0.5623 0.53856 0.18394 0.0
C1938 C 0.53671 0.54946 0.37263 0.0
C1939 C 0.53284 0.56037 0.37013 0.0
C1940 C 0.5432 0.54678 0.32757 0.0
C1941 C 0.5459 0.5549 0.27893 0.0
C1942 C 0.54297 0.56647 0.27778 0.0
C1943 C 0.53657 0.56922 0.323 0.0
loop_
_geom_bond_atom_site_label_1
_geom_bond_atom_site_label_2
_geom_bond_distance
_geom_bond_site_symmetry_2
_ccdc_geom_bond_type
C0 O1 1.306 . S
C0 O3 1.160 . S
O1 C0 1.306 . S
O1 Cd2 2.228 . S
Cd2 O1 2.228 . S
Cd2 O6 2.273 . S
Cd2 O10 2.277 . S
O3 C0 1.160 . S
O3 Cd4 2.203 . S
Cd4 O3 2.203 . S
Cd4 O6 2.411 . S
Cd4 O7 2.333 . S
Cd4 O8 2.352 . S
Cd4 O12 2.277 . S
Cd4 O13 2.356 . S
C5 O10 1.209 . S
C5 O12 1.226 . S
O6 Cd2 2.273 . S
O6 Cd4 2.411 . S
O6 C9 1.320 . S
O7 Cd4 2.333 . S
O7 C9 1.214 . S
O8 Cd4 2.352 . S
O8 C11 1.258 . S
C9 O6 1.320 . S
C9 O7 1.214 . S
O10 Cd2 2.277 . S
O10 C5 1.209 . S
C11 O8 1.258 . S
C11 O13 1.282 . S
O12 Cd4 2.277 . S
O12 C5 1.226 . S
O13 Cd4 2.356 . S
O13 C11 1.282 . S
C14 O15 1.306 . S
C14 O17 1.160 . S
O15 C14 1.306 . S
O15 Cd16 2.228 . S
Cd16 O15 2.228 . S
Cd16 O20 2.273 . S
Cd16 O24 2.277 . S
O17 C14 1.160 . S
O17 Cd18 2.203 . S
Cd18 O17 2.203 . S
Cd18 O20 2.411 . S
Cd18 O21 2.333 . S
Cd18 O22 2.352 . S
Cd18 O26 2.277 . S
Cd18 O27 2.356 . S
C19 O24 1.209 . S
C19 O26 1.226 . S
O20 Cd16 2.273 . S
O20 Cd18 2.411 . S
O20 C23 1.320 . S
O21 Cd18 2.333 . S
O21 C23 1.214 . S
O22 Cd18 2.352 . S
O22 C25 1.258 . S
C23 O20 1.320 . S
C23 O21 1.214 . S
O24 Cd16 2.277 . S
O24 C19 1.209 . S
C25 O22 1.258 . S
C25 O27 1.282 . S
O26 Cd18 2.277 . S
O26 C19 1.226 . S
O27 Cd18 2.356 . S
O27 C25 1.282 . S
C28 O29 1.306 . S
C28 O31 1.160 . S
O29 C28 1.306 . S
O29 Cd30 2.228 . S
Cd30 O29 2.228 . S
Cd30 O34 2.273 . S
Cd30 O38 2.277 . S
O31 C28 1.160 . S
O31 Cd32 2.203 . S
Cd32 O31 2.203 . S
Cd32 O34 2.411 . S
Cd32 O35 2.333 . S
Cd32 O36 2.352 . S
Cd32 O40 2.277 . S
Cd32 O41 2.356 . S
C33 O38 1.209 . S
C33 O40 1.226 . S
O34 Cd30 2.273 . S
O34 Cd32 2.411 . S
O34 C37 1.320 . S
O35 Cd32 2.333 . S
O35 C37 1.214 . S
O36 Cd32 2.352 . S
O36 C39 1.258 . S
C37 O34 1.320 . S
C37 O35 1.214 . S
O38 Cd30 2.277 . S
O38 C33 1.209 . S
C39 O36 1.258 . S
C39 O41 1.282 . S
O40 Cd32 2.277 . S
O40 C33 1.226 . S
O41 Cd32 2.356 . S
O41 C39 1.282 . S
C42 O43 1.306 . S
C42 O45 1.160 . S
O43 C42 1.306 . S
O43 Cd44 2.228 . S
Cd44 O43 2.228 . S
Cd44 O48 2.273 . S
Cd44 O52 2.277 . S
O45 C42 1.160 . S
O45 Cd46 2.203 . S
Cd46 O45 2.203 . S
Cd46 O48 2.411 . S
Cd46 O49 2.333 . S
Cd46 O50 2.352 . S
Cd46 O54 2.277 . S
Cd46 O55 2.356 . S
C47 O52 1.209 . S
C47 O54 1.226 . S
O48 Cd44 2.273 . S
O48 Cd46 2.411 . S
O48 C51 1.320 . S
O49 Cd46 2.333 . S
O49 C51 1.214 . S
O50 Cd46 2.352 . S
O50 C53 1.258 . S
C51 O48 1.320 . S
C51 O49 1.214 . S
O52 Cd44 2.277 . S
O52 C47 1.209 . S
C53 O50 1.258 . S
C53 O55 1.282 . S
O54 Cd46 2.277 . S
O54 C47 1.226 . S
O55 Cd46 2.356 . S
O55 C53 1.282 . S
C56 O57 1.306 . S
C56 O59 1.160 . S
O57 C56 1.306 . S
O57 Cd58 2.228 . S
Cd58 O57 2.228 . S
Cd58 O62 2.273 . S
Cd58 O66 2.277 . S
O59 C56 1.160 . S
O59 Cd60 2.203 . S
Cd60 O59 2.203 . S
Cd60 O62 2.411 . S
Cd60 O63 2.333 . S
Cd60 O64 2.352 . S
Cd60 O68 2.277 . S
Cd60 O69 2.356 . S
C61 O66 1.209 . S
C61 O68 1.226 . S
O62 Cd58 2.273 . S
O62 Cd60 2.411 . S
O62 C65 1.320 . S
O63 Cd60 2.333 . S
O63 C65 1.214 . S
O64 Cd60 2.352 . S
O64 C67 1.258 . S
C65 O62 1.320 . S
C65 O63 1.214 . S
O66 Cd58 2.277 . S
O66 C61 1.209 . S
C67 O64 1.258 . S
C67 O69 1.282 . S
O68 Cd60 2.277 . S
O68 C61 1.226 . S
O69 Cd60 2.356 . S
O69 C67 1.282 . S
C70 O71 1.306 . S
C70 O73 1.160 . S
O71 C70 1.306 . S
O71 Cd72 2.228 . S
Cd72 O71 2.228 . S
Cd72 O76 2.273 . S
Cd72 O80 2.277 . S
O73 C70 1.160 . S
O73 Cd74 2.203 . S
Cd74 O73 2.203 . S
Cd74 O76 2.411 . S
Cd74 O77 2.333 . S
Cd74 O78 2.352 . S
Cd74 O82 2.277 . S
Cd74 O83 2.356 . S
C75 O80 1.209 . S
C75 O82 1.226 . S
O76 Cd72 2.273 . S
O76 Cd74 2.411 . S
O76 C79 1.320 . S
O77 Cd74 2.333 . S
O77 C79 1.214 . S
O78 Cd74 2.352 . S
O78 C81 1.258 . S
C79 O76 1.320 . S
C79 O77 1.214 . S
O80 Cd72 2.277 . S
O80 C75 1.209 . S
C81 O78 1.258 . S
C81 O83 1.282 . S
O82 Cd74 2.277 . S
O82 C75 1.226 . S
O83 Cd74 2.356 . S
O83 C81 1.282 . S
C84 O85 1.306 . S
C84 O87 1.160 . S
O85 C84 1.306 . S
O85 Cd86 2.228 . S
Cd86 O85 2.228 . S
Cd86 O90 2.273 . S
Cd86 O94 2.277 . S
O87 C84 1.160 . S
O87 Cd88 2.203 . S
Cd88 O87 2.203 . S
Cd88 O90 2.411 . S
Cd88 O91 2.333 . S
Cd88 O92 2.352 . S
Cd88 O96 2.277 . S
Cd88 O97 2.356 . S
C89 O94 1.209 . S
C89 O96 1.226 . S
O90 Cd86 2.273 . S
O90 Cd88 2.411 . S
O90 C93 1.320 . S
O91 Cd88 2.333 . S
O91 C93 1.214 . S
O92 Cd88 2.352 . S
O92 C95 1.258 . S
C93 O90 1.320 . S
C93 O91 1.214 . S
O94 Cd86 2.277 . S
O94 C89 1.209 . S
C95 O92 1.258 . S
C95 O97 1.282 . S
O96 Cd88 2.277 . S
O96 C89 1.226 . S
O97 Cd88 2.356 . S
O97 C95 1.282 . S
C98 O99 1.306 . S
C98 O101 1.160 . S
O99 C98 1.306 . S
O99 Cd100 2.228 . S
Cd100 O99 2.228 . S
Cd100 O104 2.273 . S
Cd100 O108 2.277 . S
O101 C98 1.160 . S
O101 Cd102 2.203 . S
Cd102 O101 2.203 . S
Cd102 O104 2.411 . S
Cd102 O105 2.333 . S
Cd102 O106 2.352 . S
Cd102 O110 2.277 . S
Cd102 O111 2.356 . S
C103 O108 1.209 . S
C103 O110 1.226 . S
O104 Cd100 2.273 . S
O104 Cd102 2.411 . S
O104 C107 1.320 . S
O105 Cd102 2.333 . S
O105 C107 1.214 . S
O106 Cd102 2.352 . S
O106 C109 1.258 . S
C107 O104 1.320 . S
C107 O105 1.214 . S
O108 Cd100 2.277 . S
O108 C103 1.209 . S
C109 O106 1.258 . S
C109 O111 1.282 . S
O110 Cd102 2.277 . S
O110 C103 1.226 . S
O111 Cd102 2.356 . S
O111 C109 1.282 . S
C112 O113 1.306 . S
C112 O115 1.160 . S
O113 C112 1.306 . S
O113 Cd114 2.228 . S
Cd114 O113 2.228 . S
Cd114 O118 2.273 . S
Cd114 O122 2.277 . S
O115 C112 1.160 . S
O115 Cd116 2.203 . S
Cd116 O115 2.203 . S
Cd116 O118 2.411 . S
Cd116 O119 2.333 . S
Cd116 O120 2.352 . S
Cd116 O124 2.277 . S
Cd116 O125 2.356 . S
C117 O122 1.209 . S
C117 O124 1.226 . S
O118 Cd114 2.273 . S
O118 Cd116 2.411 . S
O118 C121 1.320 . S
O119 Cd116 2.333 . S
O119 C121 1.214 . S
O120 Cd116 2.352 . S
O120 C123 1.258 . S
C121 O118 1.320 . S
C121 O119 1.214 . S
O122 Cd114 2.277 . S
O122 C117 1.209 . S
C123 O120 1.258 . S
C123 O125 1.282 . S
O124 Cd116 2.277 . S
O124 C117 1.226 . S
O125 Cd116 2.356 . S
O125 C123 1.282 . S
C126 O127 1.306 . S
C126 O129 1.160 . S
O127 C126 1.306 . S
O127 Cd128 2.228 . S
Cd128 O127 2.228 . S
Cd128 O132 2.273 . S
Cd128 O136 2.277 . S
O129 C126 1.160 . S
O129 Cd130 2.203 . S
Cd130 O129 2.203 . S
Cd130 O132 2.411 . S
Cd130 O133 2.333 . S
Cd130 O134 2.352 . S
Cd130 O138 2.277 . S
Cd130 O139 2.356 . S
C131 O136 1.209 . S
C131 O138 1.226 . S
O132 Cd128 2.273 . S
O132 Cd130 2.411 . S
O132 C135 1.320 . S
O133 Cd130 2.333 . S
O133 C135 1.214 . S
O134 Cd130 2.352 . S
O134 C137 1.258 . S
C135 O132 1.320 . S
C135 O133 1.214 . S
O136 Cd128 2.277 . S
O136 C131 1.209 . S
C137 O134 1.258 . S
C137 O139 1.282 . S
O138 Cd130 2.277 . S
O138 C131 1.226 . S
O139 Cd130 2.356 . S
O139 C137 1.282 . S
C140 O141 1.306 . S
C140 O143 1.160 . S
O141 C140 1.306 . S
O141 Cd142 2.228 . S
Cd142 O141 2.228 . S
Cd142 O146 2.273 . S
Cd142 O150 2.277 . S
O143 C140 1.160 . S
O143 Cd144 2.203 . S
Cd144 O143 2.203 . S
Cd144 O146 2.411 . S
Cd144 O147 2.333 . S
Cd144 O148 2.352 . S
Cd144 O152 2.277 . S
Cd144 O153 2.356 . S
C145 O150 1.209 . S
C145 O152 1.226 . S
O146 Cd142 2.273 . S
O146 Cd144 2.411 . S
O146 C149 1.320 . S
O147 Cd144 2.333 . S
O147 C149 1.214 . S
O148 Cd144 2.352 . S
O148 C151 1.258 . S
C149 O146 1.320 . S
C149 O147 1.214 . S
O150 Cd142 2.277 . S
O150 C145 1.209 . S
C151 O148 1.258 . S
C151 O153 1.282 . S
O152 Cd144 2.277 . S
O152 C145 1.226 . S
O153 Cd144 2.356 . S
O153 C151 1.282 . S
C154 O155 1.306 . S
C154 O157 1.160 . S
O155 C154 1.306 . S
O155 Cd156 2.228 . S
Cd156 O155 2.228 . S
Cd156 O160 2.273 . S
Cd156 O164 2.277 . S
O157 C154 1.160 . S
O157 Cd158 2.203 . S
Cd158 O157 2.203 . S
Cd158 O160 2.411 . S
Cd158 O161 2.333 . S
Cd158 O162 2.352 . S
Cd158 O166 2.277 . S
Cd158 O167 2.356 . S
C159 O164 1.209 . S
C159 O166 1.226 . S
O160 Cd156 2.273 . S
O160 Cd158 2.411 . S
O160 C163 1.320 . S
O161 Cd158 2.333 . S
O161 C163 1.214 . S
O162 Cd158 2.352 . S
O162 C165 1.258 . S
C163 O160 1.320 . S
C163 O161 1.214 . S
O164 Cd156 2.277 . S
O164 C159 1.209 . S
C165 O162 1.258 . S
C165 O167 1.282 . S
O166 Cd158 2.277 . S
O166 C159 1.226 . S
O167 Cd158 2.356 . S
O167 C165 1.282 . S
C168 O169 1.306 . S
C168 O171 1.160 . S
O169 C168 1.306 . S
O169 Cd170 2.228 . S
Cd170 O169 2.228 . S
Cd170 O174 2.273 . S
Cd170 O178 2.277 . S
O171 C168 1.160 . S
O171 Cd172 2.203 . S
Cd172 O171 2.203 . S
Cd172 O174 2.411 . S
Cd172 O175 2.333 . S
Cd172 O176 2.352 . S
Cd172 O180 2.277 . S
Cd172 O181 2.356 . S
C173 O178 1.209 . S
C173 O180 1.226 . S
O174 Cd170 2.273 . S
O174 Cd172 2.411 . S
O174 C177 1.320 . S
O175 Cd172 2.333 . S
O175 C177 1.214 . S
O176 Cd172 2.352 . S
O176 C179 1.258 . S
C177 O174 1.320 . S
C177 O175 1.214 . S
O178 Cd170 2.277 . S
O178 C173 1.209 . S
C179 O176 1.258 . S
C179 O181 1.282 . S
O180 Cd172 2.277 . S
O180 C173 1.226 . S
O181 Cd172 2.356 . S
O181 C179 1.282 . S
C182 O183 1.306 . S
C182 O185 1.160 . S
O183 C182 1.306 . S
O183 Cd184 2.228 . S
Cd184 O183 2.228 . S
Cd184 O188 2.273 . S
Cd184 O192 2.277 . S
O185 C182 1.160 . S
O185 Cd186 2.203 . S
Cd186 O185 2.203 . S
Cd186 O188 2.411 . S
Cd186 O189 2.333 . S
Cd186 O190 2.352 . S
Cd186 O194 2.277 . S
Cd186 O195 2.356 . S
C187 O192 1.209 . S
C187 O194 1.226 . S
O188 Cd184 2.273 . S
O188 Cd186 2.411 . S
O188 C191 1.320 . S
O189 Cd186 2.333 . S
O189 C191 1.214 . S
O190 Cd186 2.352 . S
O190 C193 1.258 . S
C191 O188 1.320 . S
C191 O189 1.214 . S
O192 Cd184 2.277 . S
O192 C187 1.209 . S
C193 O190 1.258 . S
C193 O195 1.282 . S
O194 Cd186 2.277 . S
O194 C187 1.226 . S
O195 Cd186 2.356 . S
O195 C193 1.282 . S
C196 O197 1.306 . S
C196 O199 1.160 . S
O197 C196 1.306 . S
O197 Cd198 2.228 . S
Cd198 O197 2.228 . S
Cd198 O202 2.273 . S
Cd198 O206 2.277 . S
O199 C196 1.160 . S
O199 Cd200 2.203 . S
Cd200 O199 2.203 . S
Cd200 O202 2.411 . S
Cd200 O203 2.333 . S
Cd200 O204 2.352 . S
Cd200 O208 2.277 . S
Cd200 O209 2.356 . S
C201 O206 1.209 . S
C201 O208 1.226 . S
O202 Cd198 2.273 . S
O202 Cd200 2.411 . S
O202 C205 1.320 . S
O203 Cd200 2.333 . S
O203 C205 1.214 . S
O204 Cd200 2.352 . S
O204 C207 1.258 . S
C205 O202 1.320 . S
C205 O203 1.214 . S
O206 Cd198 2.277 . S
O206 C201 1.209 . S
C207 O204 1.258 . S
C207 O209 1.282 . S
O208 Cd200 2.277 . S
O208 C201 1.226 . S
O209 Cd200 2.356 . S
O209 C207 1.282 . S
C210 O211 1.306 . S
C210 O213 1.160 . S
O211 C210 1.306 . S
O211 Cd212 2.228 . S
Cd212 O211 2.228 . S
Cd212 O216 2.273 . S
Cd212 O220 2.277 . S
O213 C210 1.160 . S
O213 Cd214 2.203 . S
Cd214 O213 2.203 . S
Cd214 O216 2.411 . S
Cd214 O217 2.333 . S
Cd214 O218 2.352 . S
Cd214 O222 2.277 . S
Cd214 O223 2.356 . S
C215 O220 1.209 . S
C215 O222 1.226 . S
O216 Cd212 2.273 . S
O216 Cd214 2.411 . S
O216 C219 1.320 . S
O217 Cd214 2.333 . S
O217 C219 1.214 . S
O218 Cd214 2.352 . S
O218 C221 1.258 . S
C219 O216 1.320 . S
C219 O217 1.214 . S
O220 Cd212 2.277 . S
O220 C215 1.209 . S
C221 O218 1.258 . S
C221 O223 1.282 . S
O222 Cd214 2.277 . S
O222 C215 1.226 . S
O223 Cd214 2.356 . S
O223 C221 1.282 . S
C224 O225 1.306 . S
C224 O227 1.160 . S
O225 C224 1.306 . S
O225 Cd226 2.228 . S
Cd226 O225 2.228 . S
Cd226 O230 2.273 . S
Cd226 O234 2.277 . S
O227 C224 1.160 . S
O227 Cd228 2.203 . S
Cd228 O227 2.203 . S
Cd228 O230 2.411 . S
Cd228 O231 2.333 . S
Cd228 O232 2.352 . S
Cd228 O236 2.277 . S
Cd228 O237 2.356 . S
C229 O234 1.209 . S
C229 O236 1.226 . S
O230 Cd226 2.273 . S
O230 Cd228 2.411 . S
O230 C233 1.320 . S
O231 Cd228 2.333 . S
O231 C233 1.214 . S
O232 Cd228 2.352 . S
O232 C235 1.258 . S
C233 O230 1.320 . S
C233 O231 1.214 . S
O234 Cd226 2.277 . S
O234 C229 1.209 . S
C235 O232 1.258 . S
C235 O237 1.282 . S
O236 Cd228 2.277 . S
O236 C229 1.226 . S
O237 Cd228 2.356 . S
O237 C235 1.282 . S
C238 O239 1.306 . S
C238 O241 1.160 . S
O239 C238 1.306 . S
O239 Cd240 2.228 . S
Cd240 O239 2.228 . S
Cd240 O244 2.273 . S
Cd240 O248 2.277 . S
O241 C238 1.160 . S
O241 Cd242 2.203 . S
Cd242 O241 2.203 . S
Cd242 O244 2.411 . S
Cd242 O245 2.333 . S
Cd242 O246 2.352 . S
Cd242 O250 2.277 . S
Cd242 O251 2.356 . S
C243 O248 1.209 . S
C243 O250 1.226 . S
O244 Cd240 2.273 . S
O244 Cd242 2.411 . S
O244 C247 1.320 . S
O245 Cd242 2.333 . S
O245 C247 1.214 . S
O246 Cd242 2.352 . S
O246 C249 1.258 . S
C247 O244 1.320 . S
C247 O245 1.214 . S
O248 Cd240 2.277 . S
O248 C243 1.209 . S
C249 O246 1.258 . S
C249 O251 1.282 . S
O250 Cd242 2.277 . S
O250 C243 1.226 . S
O251 Cd242 2.356 . S
O251 C249 1.282 . S
C252 O253 1.306 . S
C252 O255 1.160 . S
O253 C252 1.306 . S
O253 Cd254 2.228 . S
Cd254 O253 2.228 . S
Cd254 O258 2.273 . S
Cd254 O262 2.277 . S
O255 C252 1.160 . S
O255 Cd256 2.203 . S
Cd256 O255 2.203 . S
Cd256 O258 2.411 . S
Cd256 O259 2.333 . S
Cd256 O260 2.352 . S
Cd256 O264 2.277 . S
Cd256 O265 2.356 . S
C257 O262 1.209 . S
C257 O264 1.226 . S
O258 Cd254 2.273 . S
O258 Cd256 2.411 . S
O258 C261 1.320 . S
O259 Cd256 2.333 . S
O259 C261 1.214 . S
O260 Cd256 2.352 . S
O260 C263 1.258 . S
C261 O258 1.320 . S
C261 O259 1.214 . S
O262 Cd254 2.277 . S
O262 C257 1.209 . S
C263 O260 1.258 . S
C263 O265 1.282 . S
O264 Cd256 2.277 . S
O264 C257 1.226 . S
O265 Cd256 2.356 . S
O265 C263 1.282 . S
C266 O267 1.306 . S
C266 O269 1.160 . S
O267 C266 1.306 . S
O267 Cd268 2.228 . S
Cd268 O267 2.228 . S
Cd268 O272 2.273 . S
Cd268 O276 2.277 . S
O269 C266 1.160 . S
O269 Cd270 2.203 . S
Cd270 O269 2.203 . S
Cd270 O272 2.411 . S
Cd270 O273 2.333 . S
Cd270 O274 2.352 . S
Cd270 O278 2.277 . S
Cd270 O279 2.356 . S
C271 O276 1.209 . S
C271 O278 1.226 . S
O272 Cd268 2.273 . S
O272 Cd270 2.411 . S
O272 C275 1.320 . S
O273 Cd270 2.333 . S
O273 C275 1.214 . S
O274 Cd270 2.352 . S
O274 C277 1.258 . S
C275 O272 1.320 . S
C275 O273 1.214 . S
O276 Cd268 2.277 . S
O276 C271 1.209 . S
C277 O274 1.258 . S
C277 O279 1.282 . S
O278 Cd270 2.277 . S
O278 C271 1.226 . S
O279 Cd270 2.356 . S
O279 C277 1.282 . S
C280 O281 1.306 . S
C280 O283 1.160 . S
O281 C280 1.306 . S
O281 Cd282 2.228 . S
Cd282 O281 2.228 . S
Cd282 O286 2.273 . S
Cd282 O290 2.277 . S
O283 C280 1.160 . S
O283 Cd284 2.203 . S
Cd284 O283 2.203 . S
Cd284 O286 2.411 . S
Cd284 O287 2.333 . S
Cd284 O288 2.352 . S
Cd284 O292 2.277 . S
Cd284 O293 2.356 . S
C285 O290 1.209 . S
C285 O292 1.226 . S
O286 Cd282 2.273 . S
O286 Cd284 2.411 . S
O286 C289 1.320 . S
O287 Cd284 2.333 . S
O287 C289 1.214 . S
O288 Cd284 2.352 . S
O288 C291 1.258 . S
C289 O286 1.320 . S
C289 O287 1.214 . S
O290 Cd282 2.277 . S
O290 C285 1.209 . S
C291 O288 1.258 . S
C291 O293 1.282 . S
O292 Cd284 2.277 . S
O292 C285 1.226 . S
O293 Cd284 2.356 . S
O293 C291 1.282 . S
C294 O295 1.306 . S
C294 O297 1.160 . S
O295 C294 1.306 . S
O295 Cd296 2.228 1_556 S
Cd296 O295 2.228 1_554 S
Cd296 O300 2.273 . S
Cd296 O304 2.277 1_554 S
O297 C294 1.160 . S
O297 Cd298 2.203 . S
Cd298 O297 2.203 . S
Cd298 O300 2.411 1_556 S
Cd298 O301 2.333 1_556 S
Cd298 O302 2.352 1_556 S
Cd298 O306 2.277 . S
Cd298 O307 2.356 . S
C299 O304 1.209 . S
C299 O306 1.226 . S
O300 Cd296 2.273 . S
O300 Cd298 2.411 1_554 S
O300 C303 1.320 . S
O301 Cd298 2.333 1_554 S
O301 C303 1.214 . S
O302 Cd298 2.352 1_554 S
O302 C305 1.258 . S
C303 O300 1.320 . S
C303 O301 1.214 . S
O304 Cd296 2.277 1_556 S
O304 C299 1.209 . S
C305 O302 1.258 . S
C305 O307 1.282 1_554 S
O306 Cd298 2.277 . S
O306 C299 1.226 . S
O307 Cd298 2.356 . S
O307 C305 1.282 1_556 S
C308 O309 1.306 . S
C308 O311 1.160 . S
O309 C308 1.306 . S
O309 Cd310 2.228 1_556 S
Cd310 O309 2.228 1_554 S
Cd310 O314 2.273 . S
Cd310 O318 2.277 1_554 S
O311 C308 1.160 . S
O311 Cd312 2.203 . S
Cd312 O311 2.203 . S
Cd312 O314 2.411 1_556 S
Cd312 O315 2.333 1_556 S
Cd312 O316 2.352 1_556 S
Cd312 O320 2.277 . S
Cd312 O321 2.356 . S
C313 O318 1.209 . S
C313 O320 1.226 . S
O314 Cd310 2.273 . S
O314 Cd312 2.411 1_554 S
O314 C317 1.320 . S
O315 Cd312 2.333 1_554 S
O315 C317 1.214 . S
O316 Cd312 2.352 1_554 S
O316 C319 1.258 . S
C317 O314 1.320 . S
C317 O315 1.214 . S
O318 Cd310 2.277 1_556 S
O318 C313 1.209 . S
C319 O316 1.258 . S
C319 O321 1.282 1_554 S
O320 Cd312 2.277 . S
O320 C313 1.226 . S
O321 Cd312 2.356 . S
O321 C319 1.282 1_556 S
C322 O323 1.306 . S
C322 O325 1.160 . S
O323 C322 1.306 . S
O323 Cd324 2.228 1_556 S
Cd324 O323 2.228 1_554 S
Cd324 O328 2.273 . S
Cd324 O332 2.277 1_554 S
O325 C322 1.160 . S
O325 Cd326 2.203 . S
Cd326 O325 2.203 . S
Cd326 O328 2.411 1_556 S
Cd326 O329 2.333 1_556 S
Cd326 O330 2.352 1_556 S
Cd326 O334 2.277 . S
Cd326 O335 2.356 . S
C327 O332 1.209 . S
C327 O334 1.226 . S
O328 Cd324 2.273 . S
O328 Cd326 2.411 1_554 S
O328 C331 1.320 . S
O329 Cd326 2.333 1_554 S
O329 C331 1.214 . S
O330 Cd326 2.352 1_554 S
O330 C333 1.258 . S
C331 O328 1.320 . S
C331 O329 1.214 . S
O332 Cd324 2.277 1_556 S
O332 C327 1.209 . S
C333 O330 1.258 . S
C333 O335 1.282 1_554 S
O334 Cd326 2.277 . S
O334 C327 1.226 . S
O335 Cd326 2.356 . S
O335 C333 1.282 1_556 S
C336 O337 1.306 . S
C336 O339 1.160 . S
O337 C336 1.306 . S
O337 Cd338 2.228 . S
Cd338 O337 2.228 . S
Cd338 O342 2.273 . S
Cd338 O346 2.277 . S
O339 C336 1.160 . S
O339 Cd340 2.203 . S
Cd340 O339 2.203 . S
Cd340 O342 2.411 . S
Cd340 O343 2.333 . S
Cd340 O344 2.352 . S
Cd340 O348 2.277 . S
Cd340 O349 2.356 . S
C341 O346 1.209 . S
C341 O348 1.226 . S
O342 Cd338 2.273 . S
O342 Cd340 2.411 . S
O342 C345 1.320 . S
O343 Cd340 2.333 . S
O343 C345 1.214 . S
O344 Cd340 2.352 . S
O344 C347 1.258 . S
C345 O342 1.320 . S
C345 O343 1.214 . S
O346 Cd338 2.277 . S
O346 C341 1.209 . S
C347 O344 1.258 . S
C347 O349 1.282 . S
O348 Cd340 2.277 . S
O348 C341 1.226 . S
O349 Cd340 2.356 . S
O349 C347 1.282 . S
C350 O351 1.306 . S
C350 O353 1.160 . S
O351 C350 1.306 . S
O351 Cd352 2.228 . S
Cd352 O351 2.228 . S
Cd352 O356 2.273 . S
Cd352 O360 2.277 . S
O353 C350 1.160 . S
O353 Cd354 2.203 . S
Cd354 O353 2.203 . S
Cd354 O356 2.411 . S
Cd354 O357 2.333 . S
Cd354 O358 2.352 . S
Cd354 O362 2.277 . S
Cd354 O363 2.356 . S
C355 O360 1.209 . S
C355 O362 1.226 . S
O356 Cd352 2.273 . S
O356 Cd354 2.411 . S
O356 C359 1.320 . S
O357 Cd354 2.333 . S
O357 C359 1.214 . S
O358 Cd354 2.352 . S
O358 C361 1.258 . S
C359 O356 1.320 . S
C359 O357 1.214 . S
O360 Cd352 2.277 . S
O360 C355 1.209 . S
C361 O358 1.258 . S
C361 O363 1.282 . S
O362 Cd354 2.277 . S
O362 C355 1.226 . S
O363 Cd354 2.356 . S
O363 C361 1.282 . S
C364 O365 1.306 . S
C364 O367 1.160 . S
O365 C364 1.306 . S
O365 Cd366 2.228 . S
Cd366 O365 2.228 . S
Cd366 O370 2.273 . S
Cd366 O374 2.277 . S
O367 C364 1.160 . S
O367 Cd368 2.203 . S
Cd368 O367 2.203 . S
Cd368 O370 2.411 . S
Cd368 O371 2.333 . S
Cd368 O372 2.352 . S
Cd368 O376 2.277 . S
Cd368 O377 2.356 . S
C369 O374 1.209 . S
C369 O376 1.226 . S
O370 Cd366 2.273 . S
O370 Cd368 2.411 . S
O370 C373 1.320 . S
O371 Cd368 2.333 . S
O371 C373 1.214 . S
O372 Cd368 2.352 . S
O372 C375 1.258 . S
C373 O370 1.320 . S
C373 O371 1.214 . S
O374 Cd366 2.277 . S
O374 C369 1.209 . S
C375 O372 1.258 . S
C375 O377 1.282 . S
O376 Cd368 2.277 . S
O376 C369 1.226 . S
O377 Cd368 2.356 . S
O377 C375 1.282 . S
C378 O379 1.306 . S
C378 O381 1.160 . S
O379 C378 1.306 . S
O379 Cd380 2.228 1_554 S
Cd380 O379 2.228 1_556 S
Cd380 O384 2.273 . S
Cd380 O388 2.277 1_556 S
O381 C378 1.160 . S
O381 Cd382 2.203 . S
Cd382 O381 2.203 . S
Cd382 O384 2.411 1_554 S
Cd382 O385 2.333 1_554 S
Cd382 O386 2.352 1_554 S
Cd382 O390 2.277 . S
Cd382 O391 2.356 . S
C383 O388 1.209 . S
C383 O390 1.226 . S
O384 Cd380 2.273 . S
O384 Cd382 2.411 1_556 S
O384 C387 1.320 . S
O385 Cd382 2.333 1_556 S
O385 C387 1.214 . S
O386 Cd382 2.352 1_556 S
O386 C389 1.258 . S
C387 O384 1.320 . S
C387 O385 1.214 . S
O388 Cd380 2.277 1_554 S
O388 C383 1.209 . S
C389 O386 1.258 . S
C389 O391 1.282 1_556 S
O390 Cd382 2.277 . S
O390 C383 1.226 . S
O391 Cd382 2.356 . S
O391 C389 1.282 1_554 S
C392 O393 1.306 . S
C392 O395 1.160 . S
O393 C392 1.306 . S
O393 Cd394 2.228 1_554 S
Cd394 O393 2.228 1_556 S
Cd394 O398 2.273 . S
Cd394 O402 2.277 1_556 S
O395 C392 1.160 . S
O395 Cd396 2.203 . S
Cd396 O395 2.203 . S
Cd396 O398 2.411 1_554 S
Cd396 O399 2.333 1_554 S
Cd396 O400 2.352 1_554 S
Cd396 O404 2.277 . S
Cd396 O405 2.356 . S
C397 O402 1.209 . S
C397 O404 1.226 . S
O398 Cd394 2.273 . S
O398 Cd396 2.411 1_556 S
O398 C401 1.320 . S
O399 Cd396 2.333 1_556 S
O399 C401 1.214 . S
O400 Cd396 2.352 1_556 S
O400 C403 1.258 . S
C401 O398 1.320 . S
C401 O399 1.214 . S
O402 Cd394 2.277 1_554 S
O402 C397 1.209 . S
C403 O400 1.258 . S
C403 O405 1.282 1_556 S
O404 Cd396 2.277 . S
O404 C397 1.226 . S
O405 Cd396 2.356 . S
O405 C403 1.282 1_554 S
C406 O407 1.306 . S
C406 O409 1.160 . S
O407 C406 1.306 . S
O407 Cd408 2.228 1_554 S
Cd408 O407 2.228 1_556 S
Cd408 O412 2.273 . S
Cd408 O416 2.277 1_556 S
O409 C406 1.160 . S
O409 Cd410 2.203 . S
Cd410 O409 2.203 . S
Cd410 O412 2.411 1_554 S
Cd410 O413 2.333 1_554 S
Cd410 O414 2.352 1_554 S
Cd410 O418 2.277 . S
Cd410 O419 2.356 . S
C411 O416 1.209 . S
C411 O418 1.226 . S
O412 Cd408 2.273 . S
O412 Cd410 2.411 1_556 S
O412 C415 1.320 . S
O413 Cd410 2.333 1_556 S
O413 C415 1.214 . S
O414 Cd410 2.352 1_556 S
O414 C417 1.258 . S
C415 O412 1.320 . S
C415 O413 1.214 . S
O416 Cd408 2.277 1_554 S
O416 C411 1.209 . S
C417 O414 1.258 . S
C417 O419 1.282 1_556 S
O418 Cd410 2.277 . S
O418 C411 1.226 . S
O419 Cd410 2.356 . S
O419 C417 1.282 1_554 S
C420 O421 1.306 . S
C420 O423 1.160 . S
O421 C420 1.306 . S
O421 Cd422 2.228 . S
Cd422 O421 2.228 . S
Cd422 O426 2.273 . S
Cd422 O430 2.277 . S
O423 C420 1.160 . S
O423 Cd424 2.203 . S
Cd424 O423 2.203 . S
Cd424 O426 2.411 . S
Cd424 O427 2.333 . S
Cd424 O428 2.352 . S
Cd424 O432 2.277 . S
Cd424 O433 2.356 . S
C425 O430 1.209 . S
C425 O432 1.226 . S
O426 Cd422 2.273 . S
O426 Cd424 2.411 . S
O426 C429 1.320 . S
O427 Cd424 2.333 . S
O427 C429 1.214 . S
O428 Cd424 2.352 . S
O428 C431 1.258 . S
C429 O426 1.320 . S
C429 O427 1.214 . S
O430 Cd422 2.277 . S
O430 C425 1.209 . S
C431 O428 1.258 . S
C431 O433 1.282 . S
O432 Cd424 2.277 . S
O432 C425 1.226 . S
O433 Cd424 2.356 . S
O433 C431 1.282 . S
C434 O435 1.306 . S
C434 O437 1.160 . S
O435 C434 1.306 . S
O435 Cd436 2.228 . S
Cd436 O435 2.228 . S
Cd436 O440 2.273 . S
Cd436 O444 2.277 . S
O437 C434 1.160 . S
O437 Cd438 2.203 . S
Cd438 O437 2.203 . S
Cd438 O440 2.411 . S
Cd438 O441 2.333 . S
Cd438 O442 2.352 . S
Cd438 O446 2.277 . S
Cd438 O447 2.356 . S
C439 O444 1.209 . S
C439 O446 1.226 . S
O440 Cd436 2.273 . S
O440 Cd438 2.411 . S
O440 C443 1.320 . S
O441 Cd438 2.333 . S
O441 C443 1.214 . S
O442 Cd438 2.352 . S
O442 C445 1.258 . S
C443 O440 1.320 . S
C443 O441 1.214 . S
O444 Cd436 2.277 . S
O444 C439 1.209 . S
C445 O442 1.258 . S
C445 O447 1.282 . S
O446 Cd438 2.277 . S
O446 C439 1.226 . S
O447 Cd438 2.356 . S
O447 C445 1.282 . S
C448 O449 1.306 . S
C448 O451 1.160 . S
O449 C448 1.306 . S
O449 Cd450 2.228 . S
Cd450 O449 2.228 . S
Cd450 O454 2.273 . S
Cd450 O458 2.277 . S
O451 C448 1.160 . S
O451 Cd452 2.203 . S
Cd452 O451 2.203 . S
Cd452 O454 2.411 . S
Cd452 O455 2.333 . S
Cd452 O456 2.352 . S
Cd452 O460 2.277 . S
Cd452 O461 2.356 . S
C453 O458 1.209 . S
C453 O460 1.226 . S
O454 Cd450 2.273 . S
O454 Cd452 2.411 . S
O454 C457 1.320 . S
O455 Cd452 2.333 . S
O455 C457 1.214 . S
O456 Cd452 2.352 . S
O456 C459 1.258 . S
C457 O454 1.320 . S
C457 O455 1.214 . S
O458 Cd450 2.277 . S
O458 C453 1.209 . S
C459 O456 1.258 . S
C459 O461 1.282 . S
O460 Cd452 2.277 . S
O460 C453 1.226 . S
O461 Cd452 2.356 . S
O461 C459 1.282 . S
C462 O463 1.306 . S
C462 O465 1.160 . S
O463 C462 1.306 . S
O463 Cd464 2.228 . S
Cd464 O463 2.228 . S
Cd464 O468 2.273 . S
Cd464 O472 2.277 . S
O465 C462 1.160 . S
O465 Cd466 2.203 . S
Cd466 O465 2.203 . S
Cd466 O468 2.411 . S
Cd466 O469 2.333 . S
Cd466 O470 2.352 . S
Cd466 O474 2.277 . S
Cd466 O475 2.356 . S
C467 O472 1.209 . S
C467 O474 1.226 . S
O468 Cd464 2.273 . S
O468 Cd466 2.411 . S
O468 C471 1.320 . S
O469 Cd466 2.333 . S
O469 C471 1.214 . S
O470 Cd466 2.352 . S
O470 C473 1.258 . S
C471 O468 1.320 . S
C471 O469 1.214 . S
O472 Cd464 2.277 . S
O472 C467 1.209 . S
C473 O470 1.258 . S
C473 O475 1.282 . S
O474 Cd466 2.277 . S
O474 C467 1.226 . S
O475 Cd466 2.356 . S
O475 C473 1.282 . S
C476 O477 1.306 . S
C476 O479 1.160 . S
O477 C476 1.306 . S
O477 Cd478 2.228 . S
Cd478 O477 2.228 . S
Cd478 O482 2.273 . S
Cd478 O486 2.277 . S
O479 C476 1.160 . S
O479 Cd480 2.203 . S
Cd480 O479 2.203 . S
Cd480 O482 2.411 . S
Cd480 O483 2.333 . S
Cd480 O484 2.352 . S
Cd480 O488 2.277 . S
Cd480 O489 2.356 . S
C481 O486 1.209 . S
C481 O488 1.226 . S
O482 Cd478 2.273 . S
O482 Cd480 2.411 . S
O482 C485 1.320 . S
O483 Cd480 2.333 . S
O483 C485 1.214 . S
O484 Cd480 2.352 . S
O484 C487 1.258 . S
C485 O482 1.320 . S
C485 O483 1.214 . S
O486 Cd478 2.277 . S
O486 C481 1.209 . S
C487 O484 1.258 . S
C487 O489 1.282 . S
O488 Cd480 2.277 . S
O488 C481 1.226 . S
O489 Cd480 2.356 . S
O489 C487 1.282 . S
C490 O491 1.306 . S
C490 O493 1.160 . S
O491 C490 1.306 . S
O491 Cd492 2.228 . S
Cd492 O491 2.228 . S
Cd492 O496 2.273 . S
Cd492 O500 2.277 . S
O493 C490 1.160 . S
O493 Cd494 2.203 . S
Cd494 O493 2.203 . S
Cd494 O496 2.411 . S
Cd494 O497 2.333 . S
Cd494 O498 2.352 . S
Cd494 O502 2.277 . S
Cd494 O503 2.356 . S
C495 O500 1.209 . S
C495 O502 1.226 . S
O496 Cd492 2.273 . S
O496 Cd494 2.411 . S
O496 C499 1.320 . S
O497 Cd494 2.333 . S
O497 C499 1.214 . S
O498 Cd494 2.352 . S
O498 C501 1.258 . S
C499 O496 1.320 . S
C499 O497 1.214 . S
O500 Cd492 2.277 . S
O500 C495 1.209 . S
C501 O498 1.258 . S
C501 O503 1.282 . S
O502 Cd494 2.277 . S
O502 C495 1.226 . S
O503 Cd494 2.356 . S
O503 C501 1.282 . S
H504 C512 0.950 . S
H505 C517 0.950 . S
H506 C514 0.950 . S
H507 C516 0.950 . S
H508 C518 0.950 . S
H509 C520 0.950 . S
H510 C522 0.950 . S
H511 C523 0.950 . S
C512 H504 0.950 . S
C512 C513 1.386 . S
C512 C514 1.391 . S
C513 C512 1.386 . S
C513 C517 1.393 . S
C514 H506 0.950 . S
C514 C512 1.391 . S
C514 C515 1.400 . S
C515 C514 1.400 . S
C515 C516 1.398 . S
C515 C521 1.491 . S
C516 H507 0.950 . S
C516 C515 1.398 . S
C516 C517 1.391 . S
C517 H505 0.950 . S
C517 C513 1.393 . S
C517 C516 1.391 . S
C518 H508 0.950 . S
C518 C519 1.386 . S
C518 C520 1.391 . S
C519 C518 1.386 . S
C519 C523 1.393 . S
C520 H509 0.950 . S
C520 C518 1.391 . S
C520 C521 1.400 . S
C521 C515 1.491 . S
C521 C520 1.400 . S
C521 C522 1.398 . S
C522 H510 0.950 . S
C522 C521 1.398 . S
C522 C523 1.391 . S
C523 H511 0.950 . S
C523 C519 1.393 . S
C523 C522 1.391 . S
H524 C532 0.950 . S
H525 C537 0.950 . S
H526 C534 0.950 . S
H527 C536 0.950 . S
H528 C538 0.950 . S
H529 C540 0.950 . S
H530 C542 0.950 . S
H531 C543 0.950 . S
C532 H524 0.950 . S
C532 C533 1.386 . S
C532 C534 1.391 . S
C533 C532 1.386 . S
C533 C537 1.393 . S
C534 H526 0.950 . S
C534 C532 1.391 . S
C534 C535 1.400 . S
C535 C534 1.400 . S
C535 C536 1.398 . S
C535 C541 1.491 1_545 S
C536 H527 0.950 . S
C536 C535 1.398 . S
C536 C537 1.391 . S
C537 H525 0.950 . S
C537 C533 1.393 . S
C537 C536 1.391 . S
C538 H528 0.950 . S
C538 C539 1.386 . S
C538 C540 1.391 . S
C539 C538 1.386 . S
C539 C543 1.393 . S
C540 H529 0.950 . S
C540 C538 1.391 . S
C540 C541 1.400 . S
C541 C535 1.491 1_565 S
C541 C540 1.400 . S
C541 C542 1.398 . S
C542 H530 0.950 . S
C542 C541 1.398 . S
C542 C543 1.391 . S
C543 H531 0.950 . S
C543 C539 1.393 . S
C543 C542 1.391 . S
H544 C552 0.950 . S
H545 C557 0.950 . S
H546 C554 0.950 . S
H547 C556 0.950 . S
H548 C558 0.950 . S
H549 C560 0.950 . S
H550 C562 0.950 . S
H551 C563 0.950 . S
C552 H544 0.950 . S
C552 C553 1.386 . S
C552 C554 1.391 . S
C553 C552 1.386 . S
C553 C557 1.393 . S
C554 H546 0.950 . S
C554 C552 1.391 . S
C554 C555 1.400 . S
C555 C554 1.400 . S
C555 C556 1.398 . S
C555 C561 1.491 1_655 S
C556 H547 0.950 . S
C556 C555 1.398 . S
C556 C557 1.391 . S
C557 H545 0.950 . S
C557 C553 1.393 . S
C557 C556 1.391 . S
C558 H548 0.950 . S
C558 C559 1.386 . S
C558 C560 1.391 . S
C559 C558 1.386 . S
C559 C563 1.393 . S
C560 H549 0.950 . S
C560 C558 1.391 . S
C560 C561 1.400 . S
C561 C555 1.491 1_455 S
C561 C560 1.400 . S
C561 C562 1.398 . S
C562 H550 0.950 . S
C562 C561 1.398 . S
C562 C563 1.391 . S
C563 H551 0.950 . S
C563 C559 1.393 . S
C563 C562 1.391 . S
H564 C572 0.950 . S
H565 C577 0.950 . S
H566 C574 0.950 . S
H567 C576 0.950 . S
H568 C578 0.950 . S
H569 C580 0.950 . S
H570 C582 0.950 . S
H571 C583 0.950 . S
C572 H564 0.950 . S
C572 C573 1.386 . S
C572 C574 1.391 . S
C573 C572 1.386 . S
C573 C577 1.393 . S
C574 H566 0.950 . S
C574 C572 1.391 . S
C574 C575 1.400 . S
C575 C574 1.400 . S
C575 C576 1.398 . S
C575 C581 1.491 . S
C576 H567 0.950 . S
C576 C575 1.398 . S
C576 C577 1.391 . S
C577 H565 0.950 . S
C577 C573 1.393 . S
C577 C576 1.391 . S
C578 H568 0.950 . S
C578 C579 1.386 . S
C578 C580 1.391 . S
C579 C578 1.386 . S
C579 C583 1.393 . S
C580 H569 0.950 . S
C580 C578 1.391 . S
C580 C581 1.400 . S
C581 C575 1.491 . S
C581 C580 1.400 . S
C581 C582 1.398 . S
C582 H570 0.950 . S
C582 C581 1.398 . S
C582 C583 1.391 . S
C583 H571 0.950 . S
C583 C579 1.393 . S
C583 C582 1.391 . S
H584 C592 0.950 . S
H585 C597 0.950 . S
H586 C594 0.950 . S
H587 C596 0.950 . S
H588 C598 0.950 . S
H589 C600 0.950 . S
H590 C602 0.950 . S
H591 C603 0.950 . S
C592 H584 0.950 . S
C592 C593 1.386 . S
C592 C594 1.391 . S
C593 C592 1.386 . S
C593 C597 1.393 . S
C594 H586 0.950 . S
C594 C592 1.391 . S
C594 C595 1.400 . S
C595 C594 1.400 . S
C595 C596 1.398 . S
C595 C601 1.491 1_545 S
C596 H587 0.950 . S
C596 C595 1.398 . S
C596 C597 1.391 . S
C597 H585 0.950 . S
C597 C593 1.393 . S
C597 C596 1.391 . S
C598 H588 0.950 . S
C598 C599 1.386 . S
C598 C600 1.391 . S
C599 C598 1.386 . S
C599 C603 1.393 . S
C600 H589 0.950 . S
C600 C598 1.391 . S
C600 C601 1.400 . S
C601 C595 1.491 1_565 S
C601 C600 1.400 . S
C601 C602 1.398 . S
C602 H590 0.950 . S
C602 C601 1.398 . S
C602 C603 1.391 . S
C603 H591 0.950 . S
C603 C599 1.393 . S
C603 C602 1.391 . S
H604 C612 0.950 . S
H605 C617 0.950 . S
H606 C614 0.950 . S
H607 C616 0.950 . S
H608 C618 0.950 . S
H609 C620 0.950 . S
H610 C622 0.950 . S
H611 C623 0.950 . S
C612 H604 0.950 . S
C612 C613 1.386 . S
C612 C614 1.391 . S
C613 C612 1.386 . S
C613 C617 1.393 . S
C614 H606 0.950 . S
C614 C612 1.391 . S
C614 C615 1.400 . S
C615 C614 1.400 . S
C615 C616 1.398 . S
C615 C621 1.491 1_455 S
C616 H607 0.950 . S
C616 C615 1.398 . S
C616 C617 1.391 . S
C617 H605 0.950 . S
C617 C613 1.393 . S
C617 C616 1.391 . S
C618 H608 0.950 . S
C618 C619 1.386 . S
C618 C620 1.391 . S
C619 C618 1.386 . S
C619 C623 1.393 . S
C620 H609 0.950 . S
C620 C618 1.391 . S
C620 C621 1.400 . S
C621 C615 1.491 1_655 S
C621 C620 1.400 . S
C621 C622 1.398 . S
C622 H610 0.950 . S
C622 C621 1.398 . S
C622 C623 1.391 . S
C623 H611 0.950 . S
C623 C619 1.393 . S
C623 C622 1.391 . S
H624 C632 0.950 . S
H625 C637 0.950 . S
H626 C634 0.950 . S
H627 C636 0.950 . S
H628 C638 0.950 . S
H629 C640 0.950 . S
H630 C642 0.950 . S
H631 C643 0.950 . S
C632 H624 0.950 . S
C632 C633 1.386 . S
C632 C634 1.391 . S
C633 C632 1.386 . S
C633 C637 1.393 . S
C634 H626 0.950 . S
C634 C632 1.391 . S
C634 C635 1.400 . S
C635 C634 1.400 . S
C635 C636 1.398 . S
C635 C641 1.491 . S
C636 H627 0.950 . S
C636 C635 1.398 . S
C636 C637 1.391 . S
C637 H625 0.950 . S
C637 C633 1.393 . S
C637 C636 1.391 . S
C638 H628 0.950 . S
C638 C639 1.386 . S
C638 C640 1.391 . S
C639 C638 1.386 . S
C639 C643 1.393 . S
C640 H629 0.950 . S
C640 C638 1.391 . S
C640 C641 1.400 . S
C641 C635 1.491 . S
C641 C640 1.400 . S
C641 C642 1.398 . S
C642 H630 0.950 . S
C642 C641 1.398 . S
C642 C643 1.391 . S
C643 H631 0.950 . S
C643 C639 1.393 . S
C643 C642 1.391 . S
H644 C652 0.950 . S
H645 C657 0.950 . S
H646 C654 0.950 . S
H647 C656 0.950 . S
H648 C658 0.950 . S
H649 C660 0.950 . S
H650 C662 0.950 . S
H651 C663 0.950 . S
C652 H644 0.950 . S
C652 C653 1.386 . S
C652 C654 1.391 . S
C653 C652 1.386 . S
C653 C657 1.393 . S
C654 H646 0.950 . S
C654 C652 1.391 . S
C654 C655 1.400 . S
C655 C654 1.400 . S
C655 C656 1.398 . S
C655 C661 1.491 . S
C656 H647 0.950 . S
C656 C655 1.398 . S
C656 C657 1.391 . S
C657 H645 0.950 . S
C657 C653 1.393 . S
C657 C656 1.391 . S
C658 H648 0.950 . S
C658 C659 1.386 . S
C658 C660 1.391 . S
C659 C658 1.386 . S
C659 C663 1.393 . S
C660 H649 0.950 . S
C660 C658 1.391 . S
C660 C661 1.400 . S
C661 C655 1.491 . S
C661 C660 1.400 . S
C661 C662 1.398 . S
C662 H650 0.950 . S
C662 C661 1.398 . S
C662 C663 1.391 . S
C663 H651 0.950 . S
C663 C659 1.393 . S
C663 C662 1.391 . S
H664 C672 0.950 . S
H665 C677 0.950 . S
H666 C674 0.950 . S
H667 C676 0.950 . S
H668 C678 0.950 . S
H669 C680 0.950 . S
H670 C682 0.950 . S
H671 C683 0.950 . S
C672 H664 0.950 . S
C672 C673 1.386 . S
C672 C674 1.391 . S
C673 C672 1.386 . S
C673 C677 1.393 . S
C674 H666 0.950 . S
C674 C672 1.391 . S
C674 C675 1.400 . S
C675 C674 1.400 . S
C675 C676 1.398 . S
C675 C681 1.491 . S
C676 H667 0.950 . S
C676 C675 1.398 . S
C676 C677 1.391 . S
C677 H665 0.950 . S
C677 C673 1.393 . S
C677 C676 1.391 . S
C678 H668 0.950 . S
C678 C679 1.386 . S
C678 C680 1.391 . S
C679 C678 1.386 . S
C679 C683 1.393 . S
C680 H669 0.950 . S
C680 C678 1.391 . S
C680 C681 1.400 . S
C681 C675 1.491 . S
C681 C680 1.400 . S
C681 C682 1.398 . S
C682 H670 0.950 . S
C682 C681 1.398 . S
C682 C683 1.391 . S
C683 H671 0.950 . S
C683 C679 1.393 . S
C683 C682 1.391 . S
H684 C692 0.950 . S
H685 C697 0.950 . S
H686 C694 0.950 . S
H687 C696 0.950 . S
H688 C698 0.950 1_556 S
H689 C700 0.950 . S
H690 C702 0.950 . S
H691 C703 0.950 . S
C692 H684 0.950 . S
C692 C693 1.386 . S
C692 C694 1.391 . S
C693 C692 1.386 . S
C693 C697 1.393 . S
C694 H686 0.950 . S
C694 C692 1.391 . S
C694 C695 1.400 . S
C695 C694 1.400 . S
C695 C696 1.398 . S
C695 C701 1.491 . S
C696 H687 0.950 . S
C696 C695 1.398 . S
C696 C697 1.391 . S
C697 H685 0.950 . S
C697 C693 1.393 . S
C697 C696 1.391 . S
C698 H688 0.950 1_554 S
C698 C699 1.386 . S
C698 C700 1.391 . S
C699 C698 1.386 . S
C699 C703 1.393 . S
C700 H689 0.950 . S
C700 C698 1.391 . S
C700 C701 1.400 . S
C701 C695 1.491 . S
C701 C700 1.400 . S
C701 C702 1.398 . S
C702 H690 0.950 . S
C702 C701 1.398 . S
C702 C703 1.391 . S
C703 H691 0.950 . S
C703 C699 1.393 . S
C703 C702 1.391 . S
H704 C712 0.950 . S
H705 C717 0.950 . S
H706 C714 0.950 . S
H707 C716 0.950 . S
H708 C718 0.950 . S
H709 C720 0.950 . S
H710 C722 0.950 . S
H711 C723 0.950 . S
C712 H704 0.950 . S
C712 C713 1.386 . S
C712 C714 1.391 . S
C713 C712 1.386 . S
C713 C717 1.393 . S
C714 H706 0.950 . S
C714 C712 1.391 . S
C714 C715 1.400 . S
C715 C714 1.400 . S
C715 C716 1.398 . S
C715 C721 1.491 . S
C716 H707 0.950 . S
C716 C715 1.398 . S
C716 C717 1.391 . S
C717 H705 0.950 . S
C717 C713 1.393 . S
C717 C716 1.391 . S
C718 H708 0.950 . S
C718 C719 1.386 . S
C718 C720 1.391 . S
C719 C718 1.386 . S
C719 C723 1.393 . S
C720 H709 0.950 . S
C720 C718 1.391 . S
C720 C721 1.400 . S
C721 C715 1.491 . S
C721 C720 1.400 . S
C721 C722 1.398 . S
C722 H710 0.950 . S
C722 C721 1.398 . S
C722 C723 1.391 . S
C723 H711 0.950 . S
C723 C719 1.393 . S
C723 C722 1.391 . S
H724 C732 0.950 . S
H725 C737 0.950 . S
H726 C734 0.950 . S
H727 C736 0.950 . S
H728 C738 0.945 1_556 S
H729 C740 0.950 . S
H730 C742 0.950 . S
H731 C743 0.950 . S
C732 H724 0.950 . S
C732 C733 1.386 . S
C732 C734 1.391 . S
C733 C732 1.386 . S
C733 C737 1.393 . S
C734 H726 0.950 . S
C734 C732 1.391 . S
C734 C735 1.400 . S
C735 C734 1.400 . S
C735 C736 1.398 . S
C735 C741 1.491 . S
C736 H727 0.950 . S
C736 C735 1.398 . S
C736 C737 1.391 . S
C737 H725 0.950 . S
C737 C733 1.393 . S
C737 C736 1.391 . S
C738 H728 0.945 1_554 S
C738 C739 1.386 . S
C738 C740 1.391 . S
C739 C738 1.386 . S
C739 C743 1.393 . S
C740 H729 0.950 . S
C740 C738 1.391 . S
C740 C741 1.400 . S
C741 C735 1.491 . S
C741 C740 1.400 . S
C741 C742 1.398 . S
C742 H730 0.950 . S
C742 C741 1.398 . S
C742 C743 1.391 . S
C743 H731 0.950 . S
C743 C739 1.393 . S
C743 C742 1.391 . S
H744 C752 0.950 . S
H745 C757 0.950 . S
H746 C754 0.950 . S
H747 C756 0.950 . S
H748 C758 0.950 . S
H749 C760 0.950 . S
H750 C762 0.950 . S
H751 C763 0.950 1_554 S
C752 H744 0.950 . S
C752 C753 1.386 . S
C752 C754 1.391 . S
C753 C752 1.386 . S
C753 C757 1.393 . S
C754 H746 0.950 . S
C754 C752 1.391 . S
C754 C755 1.400 . S
C755 C754 1.400 . S
C755 C756 1.398 . S
C755 C761 1.491 . S
C756 H747 0.950 . S
C756 C755 1.398 . S
C756 C757 1.391 . S
C757 H745 0.950 . S
C757 C753 1.393 . S
C757 C756 1.391 . S
C758 H748 0.950 . S
C758 C759 1.386 . S
C758 C760 1.391 . S
C759 C758 1.386 . S
C759 C763 1.393 . S
C760 H749 0.950 . S
C760 C758 1.391 . S
C760 C761 1.400 . S
C761 C755 1.491 . S
C761 C760 1.400 . S
C761 C762 1.398 . S
C762 H750 0.950 . S
C762 C761 1.398 . S
C762 C763 1.391 . S
C763 H751 0.950 1_556 S
C763 C759 1.393 . S
C763 C762 1.391 . S
H764 C772 0.950 . S
H765 C777 0.950 . S
H766 C774 0.950 . S
H767 C776 0.950 . S
H768 C778 0.950 . S
H769 C780 0.950 . S
H770 C782 0.950 . S
H771 C783 0.950 1_554 S
C772 H764 0.950 . S
C772 C773 1.386 . S
C772 C774 1.391 . S
C773 C772 1.386 . S
C773 C777 1.393 . S
C774 H766 0.950 . S
C774 C772 1.391 . S
C774 C775 1.400 . S
C775 C774 1.400 . S
C775 C776 1.398 . S
C775 C781 1.491 . S
C776 H767 0.950 . S
C776 C775 1.398 . S
C776 C777 1.391 . S
C777 H765 0.950 . S
C777 C773 1.393 . S
C777 C776 1.391 . S
C778 H768 0.950 . S
C778 C779 1.386 . S
C778 C780 1.391 . S
C779 C778 1.386 . S
C779 C783 1.393 . S
C780 H769 0.950 . S
C780 C778 1.391 . S
C780 C781 1.400 . S
C781 C775 1.491 . S
C781 C780 1.400 . S
C781 C782 1.398 . S
C782 H770 0.950 . S
C782 C781 1.398 . S
C782 C783 1.391 . S
C783 H771 0.950 1_556 S
C783 C779 1.393 . S
C783 C782 1.391 . S
H784 C792 0.950 . S
H785 C797 0.950 . S
H786 C794 0.950 . S
H787 C796 0.950 . S
H788 C798 0.950 . S
H789 C800 0.950 . S
H790 C802 0.950 . S
H791 C803 0.950 . S
C792 H784 0.950 . S
C792 C793 1.386 . S
C792 C794 1.391 . S
C793 C792 1.386 . S
C793 C797 1.393 . S
C794 H786 0.950 . S
C794 C792 1.391 . S
C794 C795 1.400 . S
C795 C794 1.400 . S
C795 C796 1.398 . S
C795 C801 1.491 . S
C796 H787 0.950 . S
C796 C795 1.398 . S
C796 C797 1.391 . S
C797 H785 0.950 . S
C797 C793 1.393 . S
C797 C796 1.391 . S
C798 H788 0.950 . S
C798 C799 1.386 . S
C798 C800 1.391 . S
C799 C798 1.386 . S
C799 C803 1.393 . S
C800 H789 0.950 . S
C800 C798 1.391 . S
C800 C801 1.400 . S
C801 C795 1.491 . S
C801 C800 1.400 . S
C801 C802 1.398 . S
C802 H790 0.950 . S
C802 C801 1.398 . S
C802 C803 1.391 . S
C803 H791 0.950 . S
C803 C799 1.393 . S
C803 C802 1.391 . S
H804 C812 0.950 . S
H805 C817 0.950 . S
H806 C814 0.950 . S
H807 C816 0.950 . S
H808 C818 0.950 . S
H809 C820 0.950 . S
H810 C822 0.950 . S
H811 C823 0.950 . S
C812 H804 0.950 . S
C812 C813 1.386 . S
C812 C814 1.391 . S
C813 C812 1.386 . S
C813 C817 1.393 . S
C814 H806 0.950 . S
C814 C812 1.391 . S
C814 C815 1.400 . S
C815 C814 1.400 . S
C815 C816 1.398 . S
C815 C821 1.491 . S
C816 H807 0.950 . S
C816 C815 1.398 . S
C816 C817 1.391 . S
C817 H805 0.950 . S
C817 C813 1.393 . S
C817 C816 1.391 . S
C818 H808 0.950 . S
C818 C819 1.386 . S
C818 C820 1.391 . S
C819 C818 1.386 . S
C819 C823 1.393 . S
C820 H809 0.950 . S
C820 C818 1.391 . S
C820 C821 1.400 . S
C821 C815 1.491 . S
C821 C820 1.400 . S
C821 C822 1.398 . S
C822 H810 0.950 . S
C822 C821 1.398 . S
C822 C823 1.391 . S
C823 H811 0.950 . S
C823 C819 1.393 . S
C823 C822 1.391 . S
H824 C832 0.950 . S
H825 C837 0.950 . S
H826 C834 0.950 . S
H827 C836 0.950 . S
H828 C838 0.950 . S
H829 C840 0.950 . S
H830 C842 0.950 . S
H831 C843 0.950 . S
C832 H824 0.950 . S
C832 C833 1.386 . S
C832 C834 1.391 . S
C833 C832 1.386 . S
C833 C837 1.393 . S
C834 H826 0.950 . S
C834 C832 1.391 . S
C834 C835 1.400 . S
C835 C834 1.400 . S
C835 C836 1.398 . S
C835 C841 1.491 . S
C836 H827 0.950 . S
C836 C835 1.398 . S
C836 C837 1.391 . S
C837 H825 0.950 . S
C837 C833 1.393 . S
C837 C836 1.391 . S
C838 H828 0.950 . S
C838 C839 1.386 . S
C838 C840 1.391 . S
C839 C838 1.386 . S
C839 C843 1.393 . S
C840 H829 0.950 . S
C840 C838 1.391 . S
C840 C841 1.400 . S
C841 C835 1.491 . S
C841 C840 1.400 . S
C841 C842 1.398 . S
C842 H830 0.950 . S
C842 C841 1.398 . S
C842 C843 1.391 . S
C843 H831 0.950 . S
C843 C839 1.393 . S
C843 C842 1.391 . S
H844 C852 0.950 . S
H845 C857 0.950 . S
H846 C854 0.950 . S
H847 C856 0.950 . S
H848 C858 0.950 . S
H849 C860 0.950 . S
H850 C862 0.950 . S
H851 C863 0.950 . S
C852 H844 0.950 . S
C852 C853 1.386 . S
C852 C854 1.391 . S
C853 C852 1.386 . S
C853 C857 1.393 . S
C854 H846 0.950 . S
C854 C852 1.391 . S
C854 C855 1.400 . S
C855 C854 1.400 . S
C855 C856 1.398 . S
C855 C861 1.491 . S
C856 H847 0.950 . S
C856 C855 1.398 . S
C856 C857 1.391 . S
C857 H845 0.950 . S
C857 C853 1.393 . S
C857 C856 1.391 . S
C858 H848 0.950 . S
C858 C859 1.386 . S
C858 C860 1.391 . S
C859 C858 1.386 . S
C859 C863 1.393 . S
C860 H849 0.950 . S
C860 C858 1.391 . S
C860 C861 1.400 . S
C861 C855 1.491 . S
C861 C860 1.400 . S
C861 C862 1.398 . S
C862 H850 0.950 . S
C862 C861 1.398 . S
C862 C863 1.391 . S
C863 H851 0.950 . S
C863 C859 1.393 . S
C863 C862 1.391 . S
H864 C872 0.950 . S
H865 C877 0.950 . S
H866 C874 0.950 . S
H867 C876 0.950 . S
H868 C878 0.950 . S
H869 C880 0.950 . S
H870 C882 0.950 . S
H871 C883 0.950 . S
C872 H864 0.950 . S
C872 C873 1.386 . S
C872 C874 1.391 . S
C873 C872 1.386 . S
C873 C877 1.393 . S
C874 H866 0.950 . S
C874 C872 1.391 . S
C874 C875 1.400 . S
C875 C874 1.400 . S
C875 C876 1.398 . S
C875 C881 1.491 . S
C876 H867 0.950 . S
C876 C875 1.398 . S
C876 C877 1.391 . S
C877 H865 0.950 . S
C877 C873 1.393 . S
C877 C876 1.391 . S
C878 H868 0.950 . S
C878 C879 1.386 . S
C878 C880 1.391 1_554 S
C879 C878 1.386 . S
C879 C883 1.393 1_554 S
C880 H869 0.950 . S
C880 C878 1.391 1_556 S
C880 C881 1.400 . S
C881 C875 1.491 . S
C881 C880 1.400 . S
C881 C882 1.398 . S
C882 H870 0.950 . S
C882 C881 1.398 . S
C882 C883 1.391 . S
C883 H871 0.950 . S
C883 C879 1.393 1_556 S
C883 C882 1.391 . S
H884 C892 0.950 . S
H885 C897 0.950 . S
H886 C894 0.950 . S
H887 C896 0.950 . S
H888 C898 0.950 . S
H889 C900 0.950 . S
H890 C902 0.950 . S
H891 C903 0.950 . S
C892 H884 0.950 . S
C892 C893 1.386 . S
C892 C894 1.391 1_554 S
C893 C892 1.386 . S
C893 C897 1.393 1_554 S
C894 H886 0.950 . S
C894 C892 1.391 1_556 S
C894 C895 1.400 . S
C895 C894 1.400 . S
C895 C896 1.398 . S
C895 C901 1.491 . S
C896 H887 0.950 . S
C896 C895 1.398 . S
C896 C897 1.391 . S
C897 H885 0.950 . S
C897 C893 1.393 1_556 S
C897 C896 1.391 . S
C898 H888 0.950 . S
C898 C899 1.386 . S
C898 C900 1.391 . S
C899 C898 1.386 . S
C899 C903 1.393 . S
C900 H889 0.950 . S
C900 C898 1.391 . S
C900 C901 1.400 . S
C901 C895 1.491 . S
C901 C900 1.400 . S
C901 C902 1.398 . S
C902 H890 0.950 . S
C902 C901 1.398 . S
C902 C903 1.391 . S
C903 H891 0.950 . S
C903 C899 1.393 . S
C903 C902 1.391 . S
H904 C912 0.950 . S
H905 C917 0.950 . S
H906 C914 0.950 . S
H907 C916 0.950 . S
H908 C918 0.950 . S
H909 C920 0.950 . S
H910 C922 0.950 . S
H911 C923 0.950 . S
C912 H904 0.950 . S
C912 C913 1.386 . S
C912 C914 1.391 1_554 S
C913 C912 1.386 . S
C913 C917 1.393 1_554 S
C914 H906 0.950 . S
C914 C912 1.391 1_556 S
C914 C915 1.400 . S
C915 C914 1.400 . S
C915 C916 1.398 . S
C915 C921 1.491 . S
C916 H907 0.950 . S
C916 C915 1.398 . S
C916 C917 1.391 . S
C917 H905 0.950 . S
C917 C913 1.393 1_556 S
C917 C916 1.391 . S
C918 H908 0.950 . S
C918 C919 1.386 . S
C918 C920 1.391 . S
C919 C918 1.386 . S
C919 C923 1.393 . S
C920 H909 0.950 . S
C920 C918 1.391 . S
C920 C921 1.400 . S
C921 C915 1.491 . S
C921 C920 1.400 . S
C921 C922 1.398 . S
C922 H910 0.950 . S
C922 C921 1.398 . S
C922 C923 1.391 . S
C923 H911 0.950 . S
C923 C919 1.393 . S
C923 C922 1.391 . S
H924 C932 0.950 . S
H925 C937 0.950 . S
H926 C934 0.950 . S
H927 C936 0.950 . S
H928 C938 0.950 . S
H929 C940 0.950 . S
H930 C942 0.950 . S
H931 C943 0.950 . S
C932 H924 0.950 . S
C932 C933 1.386 . S
C932 C934 1.391 . S
C933 C932 1.386 . S
C933 C937 1.393 . S
C934 H926 0.950 . S
C934 C932 1.391 . S
C934 C935 1.400 . S
C935 C934 1.400 . S
C935 C936 1.398 . S
C935 C941 1.491 . S
C936 H927 0.950 . S
C936 C935 1.398 . S
C936 C937 1.391 . S
C937 H925 0.950 . S
C937 C933 1.393 . S
C937 C936 1.391 . S
C938 H928 0.950 . S
C938 C939 1.386 . S
C938 C940 1.391 . S
C939 C938 1.386 . S
C939 C943 1.393 . S
C940 H929 0.950 . S
C940 C938 1.391 . S
C940 C941 1.400 . S
C941 C935 1.491 . S
C941 C940 1.400 . S
C941 C942 1.398 . S
C942 H930 0.950 . S
C942 C941 1.398 . S
C942 C943 1.391 . S
C943 H931 0.950 . S
C943 C939 1.393 . S
C943 C942 1.391 . S
H944 C952 0.950 . S
H945 C957 0.950 . S
H946 C954 0.950 . S
H947 C956 0.950 . S
H948 C958 0.950 . S
H949 C960 0.950 . S
H950 C962 0.950 . S
H951 C963 0.950 . S
C952 H944 0.950 . S
C952 C953 1.386 . S
C952 C954 1.391 . S
C953 C952 1.386 . S
C953 C957 1.393 . S
C954 H946 0.950 . S
C954 C952 1.391 . S
C954 C955 1.400 . S
C955 C954 1.400 . S
C955 C956 1.398 . S
C955 C961 1.491 . S
C956 H947 0.950 . S
C956 C955 1.398 . S
C956 C957 1.391 . S
C957 H945 0.950 . S
C957 C953 1.393 . S
C957 C956 1.391 . S
C958 H948 0.950 . S
C958 C959 1.386 . S
C958 C960 1.391 . S
C959 C958 1.386 . S
C959 C963 1.393 . S
C960 H949 0.950 . S
C960 C958 1.391 . S
C960 C961 1.400 . S
C961 C955 1.491 . S
C961 C960 1.400 . S
C961 C962 1.398 . S
C962 H950 0.950 . S
C962 C961 1.398 . S
C962 C963 1.391 . S
C963 H951 0.950 . S
C963 C959 1.393 . S
C963 C962 1.391 . S
H964 C972 0.950 . S
H965 C977 0.950 . S
H966 C974 0.950 . S
H967 C976 0.950 . S
H968 C978 0.950 . S
H969 C980 0.950 . S
H970 C982 0.950 . S
H971 C983 0.950 . S
C972 H964 0.950 . S
C972 C973 1.386 . S
C972 C974 1.391 . S
C973 C972 1.386 . S
C973 C977 1.393 . S
C974 H966 0.950 . S
C974 C972 1.391 . S
C974 C975 1.400 . S
C975 C974 1.400 . S
C975 C976 1.398 . S
C975 C981 1.491 . S
C976 H967 0.950 . S
C976 C975 1.398 . S
C976 C977 1.391 . S
C977 H965 0.950 . S
C977 C973 1.393 . S
C977 C976 1.391 . S
C978 H968 0.950 . S
C978 C979 1.386 . S
C978 C980 1.391 . S
C979 C978 1.386 . S
C979 C983 1.393 . S
C980 H969 0.950 . S
C980 C978 1.391 . S
C980 C981 1.400 . S
C981 C975 1.491 . S
C981 C980 1.400 . S
C981 C982 1.398 . S
C982 H970 0.950 . S
C982 C981 1.398 . S
C982 C983 1.391 . S
C983 H971 0.950 . S
C983 C979 1.393 . S
C983 C982 1.391 . S
H984 C992 0.950 . S
H985 C997 0.950 . S
H986 C994 0.950 . S
H987 C996 0.950 . S
H988 C998 0.950 . S
H989 C1000 0.950 . S
H990 C1002 0.950 . S
H991 C1003 0.950 . S
C992 H984 0.950 . S
C992 C993 1.386 1_554 S
C992 C994 1.391 . S
C993 C992 1.386 1_556 S
C993 C997 1.393 . S
C994 H986 0.950 . S
C994 C992 1.391 . S
C994 C995 1.400 . S
C995 C994 1.400 . S
C995 C996 1.398 . S
C995 C1001 1.491 . S
C996 H987 0.950 . S
C996 C995 1.398 . S
C996 C997 1.391 1_554 S
C997 H985 0.950 . S
C997 C993 1.393 . S
C997 C996 1.391 1_556 S
C998 H988 0.950 . S
C998 C999 1.386 . S
C998 C1000 1.391 . S
C999 C998 1.386 . S
C999 C1003 1.393 . S
C1000 H989 0.950 . S
C1000 C998 1.391 . S
C1000 C1001 1.400 . S
C1001 C995 1.491 . S
C1001 C1000 1.400 . S
C1001 C1002 1.398 . S
C1002 H990 0.950 . S
C1002 C1001 1.398 . S
C1002 C1003 1.391 . S
C1003 H991 0.950 . S
C1003 C999 1.393 . S
C1003 C1002 1.391 . S
H1004 C1012 0.950 . S
H1005 C1017 0.950 . S
H1006 C1014 0.950 . S
H1007 C1016 0.950 . S
H1008 C1018 0.950 . S
H1009 C1020 0.950 . S
H1010 C1022 0.950 . S
H1011 C1023 0.950 . S
C1012 H1004 0.950 . S
C1012 C1013 1.386 1_554 S
C1012 C1014 1.391 . S
C1013 C1012 1.386 1_556 S
C1013 C1017 1.393 . S
C1014 H1006 0.950 . S
C1014 C1012 1.391 . S
C1014 C1015 1.400 . S
C1015 C1014 1.400 . S
C1015 C1016 1.398 . S
C1015 C1021 1.491 . S
C1016 H1007 0.950 . S
C1016 C1015 1.398 . S
C1016 C1017 1.391 1_554 S
C1017 H1005 0.950 . S
C1017 C1013 1.393 . S
C1017 C1016 1.391 1_556 S
C1018 H1008 0.950 . S
C1018 C1019 1.386 . S
C1018 C1020 1.391 . S
C1019 C1018 1.386 . S
C1019 C1023 1.393 . S
C1020 H1009 0.950 . S
C1020 C1018 1.391 . S
C1020 C1021 1.400 . S
C1021 C1015 1.491 . S
C1021 C1020 1.400 . S
C1021 C1022 1.398 . S
C1022 H1010 0.950 . S
C1022 C1021 1.398 . S
C1022 C1023 1.391 . S
C1023 H1011 0.950 . S
C1023 C1019 1.393 . S
C1023 C1022 1.391 . S
H1024 C1032 0.950 . S
H1025 C1037 0.950 . S
H1026 C1034 0.950 . S
H1027 C1036 0.950 . S
H1028 C1038 0.950 . S
H1029 C1040 0.950 . S
H1030 C1042 0.950 . S
H1031 C1043 0.950 . S
C1032 H1024 0.950 . S
C1032 C1033 1.386 . S
C1032 C1034 1.391 . S
C1033 C1032 1.386 . S
C1033 C1037 1.393 . S
C1034 H1026 0.950 . S
C1034 C1032 1.391 . S
C1034 C1035 1.400 . S
C1035 C1034 1.400 . S
C1035 C1036 1.398 . S
C1035 C1041 1.491 . S
C1036 H1027 0.950 . S
C1036 C1035 1.398 . S
C1036 C1037 1.391 . S
C1037 H1025 0.950 . S
C1037 C1033 1.393 . S
C1037 C1036 1.391 . S
C1038 H1028 0.950 . S
C1038 C1039 1.386 . S
C1038 C1040 1.391 1_556 S
C1039 C1038 1.386 . S
C1039 C1043 1.393 1_556 S
C1040 H1029 0.950 . S
C1040 C1038 1.391 1_554 S
C1040 C1041 1.400 . S
C1041 C1035 1.491 . S
C1041 C1040 1.400 . S
C1041 C1042 1.398 . S
C1042 H1030 0.950 . S
C1042 C1041 1.398 . S
C1042 C1043 1.391 . S
C1043 H1031 0.950 . S
C1043 C1039 1.393 1_554 S
C1043 C1042 1.391 . S
H1044 C1052 0.950 . S
H1045 C1057 0.950 . S
H1046 C1054 0.950 . S
H1047 C1056 0.950 . S
H1048 C1058 0.950 . S
H1049 C1060 0.950 . S
H1050 C1062 0.950 . S
H1051 C1063 0.950 . S
C1052 H1044 0.950 . S
C1052 C1053 1.386 . S
C1052 C1054 1.391 . S
C1053 C1052 1.386 . S
C1053 C1057 1.393 . S
C1054 H1046 0.950 . S
C1054 C1052 1.391 . S
C1054 C1055 1.400 . S
C1055 C1054 1.400 . S
C1055 C1056 1.398 . S
C1055 C1061 1.491 . S
C1056 H1047 0.950 . S
C1056 C1055 1.398 . S
C1056 C1057 1.391 . S
C1057 H1045 0.950 . S
C1057 C1053 1.393 . S
C1057 C1056 1.391 . S
C1058 H1048 0.950 . S
C1058 C1059 1.386 . S
C1058 C1060 1.391 . S
C1059 C1058 1.386 . S
C1059 C1063 1.393 . S
C1060 H1049 0.950 . S
C1060 C1058 1.391 . S
C1060 C1061 1.400 . S
C1061 C1055 1.491 . S
C1061 C1060 1.400 . S
C1061 C1062 1.398 . S
C1062 H1050 0.950 . S
C1062 C1061 1.398 . S
C1062 C1063 1.391 . S
C1063 H1051 0.950 . S
C1063 C1059 1.393 . S
C1063 C1062 1.391 . S
H1064 C1072 0.950 . S
H1065 C1077 0.950 . S
H1066 C1074 0.950 . S
H1067 C1076 0.950 . S
H1068 C1078 0.950 . S
H1069 C1080 0.950 . S
H1070 C1082 0.950 . S
H1071 C1083 0.950 . S
C1072 H1064 0.950 . S
C1072 C1073 1.386 . S
C1072 C1074 1.391 . S
C1073 C1072 1.386 . S
C1073 C1077 1.393 . S
C1074 H1066 0.950 . S
C1074 C1072 1.391 . S
C1074 C1075 1.400 . S
C1075 C1074 1.400 . S
C1075 C1076 1.398 . S
C1075 C1081 1.491 . S
C1076 H1067 0.950 . S
C1076 C1075 1.398 . S
C1076 C1077 1.391 . S
C1077 H1065 0.950 . S
C1077 C1073 1.393 . S
C1077 C1076 1.391 . S
C1078 H1068 0.950 . S
C1078 C1079 1.386 . S
C1078 C1080 1.391 . S
C1079 C1078 1.386 . S
C1079 C1083 1.393 . S
C1080 H1069 0.950 . S
C1080 C1078 1.391 . S
C1080 C1081 1.400 . S
C1081 C1075 1.491 . S
C1081 C1080 1.400 . S
C1081 C1082 1.398 . S
C1082 H1070 0.950 . S
C1082 C1081 1.398 . S
C1082 C1083 1.391 . S
C1083 H1071 0.950 . S
C1083 C1079 1.393 . S
C1083 C1082 1.391 . S
H1084 C1092 0.950 . S
H1085 C1097 0.950 . S
H1086 C1094 0.950 . S
H1087 C1096 0.950 . S
H1088 C1098 0.950 . S
H1089 C1100 0.950 . S
H1090 C1102 0.950 . S
H1091 C1103 0.950 . S
C1092 H1084 0.950 . S
C1092 C1093 1.386 . S
C1092 C1094 1.391 . S
C1093 C1092 1.386 . S
C1093 C1097 1.393 . S
C1094 H1086 0.950 . S
C1094 C1092 1.391 . S
C1094 C1095 1.400 . S
C1095 C1094 1.400 . S
C1095 C1096 1.398 . S
C1095 C1101 1.491 . S
C1096 H1087 0.950 . S
C1096 C1095 1.398 . S
C1096 C1097 1.391 . S
C1097 H1085 0.950 . S
C1097 C1093 1.393 . S
C1097 C1096 1.391 . S
C1098 H1088 0.950 . S
C1098 C1099 1.386 . S
C1098 C1100 1.391 . S
C1099 C1098 1.386 . S
C1099 C1103 1.393 . S
C1100 H1089 0.950 . S
C1100 C1098 1.391 . S
C1100 C1101 1.400 . S
C1101 C1095 1.491 . S
C1101 C1100 1.400 . S
C1101 C1102 1.398 . S
C1102 H1090 0.950 . S
C1102 C1101 1.398 . S
C1102 C1103 1.391 . S
C1103 H1091 0.950 . S
C1103 C1099 1.393 . S
C1103 C1102 1.391 . S
H1104 C1112 0.950 . S
H1105 C1117 0.950 . S
H1106 C1114 0.950 . S
H1107 C1116 0.950 . S
H1108 C1118 0.950 . S
H1109 C1120 0.950 . S
H1110 C1122 0.950 . S
H1111 C1123 0.950 . S
C1112 H1104 0.950 . S
C1112 C1113 1.386 . S
C1112 C1114 1.391 . S
C1113 C1112 1.386 . S
C1113 C1117 1.393 . S
C1114 H1106 0.950 . S
C1114 C1112 1.391 . S
C1114 C1115 1.400 . S
C1115 C1114 1.400 . S
C1115 C1116 1.398 . S
C1115 C1121 1.491 . S
C1116 H1107 0.950 . S
C1116 C1115 1.398 . S
C1116 C1117 1.391 . S
C1117 H1105 0.950 . S
C1117 C1113 1.393 . S
C1117 C1116 1.391 . S
C1118 H1108 0.950 . S
C1118 C1119 1.386 . S
C1118 C1120 1.391 . S
C1119 C1118 1.386 . S
C1119 C1123 1.393 . S
C1120 H1109 0.950 . S
C1120 C1118 1.391 . S
C1120 C1121 1.400 . S
C1121 C1115 1.491 . S
C1121 C1120 1.400 . S
C1121 C1122 1.398 . S
C1122 H1110 0.950 . S
C1122 C1121 1.398 . S
C1122 C1123 1.391 . S
C1123 H1111 0.950 . S
C1123 C1119 1.393 . S
C1123 C1122 1.391 . S
H1124 C1132 0.950 . S
H1125 C1137 0.950 . S
H1126 C1134 0.950 . S
H1127 C1136 0.950 . S
H1128 C1138 0.950 . S
H1129 C1140 0.950 . S
H1130 C1142 0.950 . S
H1131 C1143 0.950 . S
C1132 H1124 0.950 . S
C1132 C1133 1.386 . S
C1132 C1134 1.391 . S
C1133 C1132 1.386 . S
C1133 C1137 1.393 . S
C1134 H1126 0.950 . S
C1134 C1132 1.391 . S
C1134 C1135 1.400 . S
C1135 C1134 1.400 . S
C1135 C1136 1.398 . S
C1135 C1141 1.491 . S
C1136 H1127 0.950 . S
C1136 C1135 1.398 . S
C1136 C1137 1.391 . S
C1137 H1125 0.950 . S
C1137 C1133 1.393 . S
C1137 C1136 1.391 . S
C1138 H1128 0.950 . S
C1138 C1139 1.386 . S
C1138 C1140 1.391 . S
C1139 C1138 1.386 . S
C1139 C1143 1.393 . S
C1140 H1129 0.950 . S
C1140 C1138 1.391 . S
C1140 C1141 1.400 . S
C1141 C1135 1.491 . S
C1141 C1140 1.400 . S
C1141 C1142 1.398 . S
C1142 H1130 0.950 . S
C1142 C1141 1.398 . S
C1142 C1143 1.391 . S
C1143 H1131 0.950 . S
C1143 C1139 1.393 . S
C1143 C1142 1.391 . S
H1144 C1152 0.950 . S
H1145 C1157 0.950 . S
H1146 C1154 0.950 . S
H1147 C1156 0.950 . S
H1148 C1158 0.950 . S
H1149 C1160 0.950 . S
H1150 C1162 0.950 . S
H1151 C1163 0.950 . S
C1152 H1144 0.950 . S
C1152 C1153 1.386 . S
C1152 C1154 1.391 . S
C1153 C1152 1.386 . S
C1153 C1157 1.393 . S
C1154 H1146 0.950 . S
C1154 C1152 1.391 . S
C1154 C1155 1.400 . S
C1155 C1154 1.400 . S
C1155 C1156 1.398 . S
C1155 C1161 1.491 . S
C1156 H1147 0.950 . S
C1156 C1155 1.398 . S
C1156 C1157 1.391 . S
C1157 H1145 0.950 . S
C1157 C1153 1.393 . S
C1157 C1156 1.391 . S
C1158 H1148 0.950 . S
C1158 C1159 1.386 . S
C1158 C1160 1.391 . S
C1159 C1158 1.386 . S
C1159 C1163 1.393 . S
C1160 H1149 0.950 . S
C1160 C1158 1.391 . S
C1160 C1161 1.400 . S
C1161 C1155 1.491 . S
C1161 C1160 1.400 . S
C1161 C1162 1.398 . S
C1162 H1150 0.950 . S
C1162 C1161 1.398 . S
C1162 C1163 1.391 . S
C1163 H1151 0.950 . S
C1163 C1159 1.393 . S
C1163 C1162 1.391 . S
H1164 C1172 0.950 . S
H1165 C1177 0.950 . S
H1166 C1174 0.950 . S
H1167 C1176 0.950 . S
H1168 C1178 0.950 . S
H1169 C1180 0.950 . S
H1170 C1182 0.950 . S
H1171 C1183 0.950 . S
C1172 H1164 0.950 . S
C1172 C1173 1.386 . S
C1172 C1174 1.391 . S
C1173 C1172 1.386 . S
C1173 C1177 1.393 . S
C1174 H1166 0.950 . S
C1174 C1172 1.391 . S
C1174 C1175 1.400 . S
C1175 C1174 1.400 . S
C1175 C1176 1.398 . S
C1175 C1181 1.491 . S
C1176 H1167 0.950 . S
C1176 C1175 1.398 . S
C1176 C1177 1.391 . S
C1177 H1165 0.950 . S
C1177 C1173 1.393 . S
C1177 C1176 1.391 . S
C1178 H1168 0.950 . S
C1178 C1179 1.386 . S
C1178 C1180 1.391 . S
C1179 C1178 1.386 . S
C1179 C1183 1.393 1_554 S
C1180 H1169 0.950 . S
C1180 C1178 1.391 . S
C1180 C1181 1.400 1_554 S
C1181 C1175 1.491 . S
C1181 C1180 1.400 1_556 S
C1181 C1182 1.398 . S
C1182 H1170 0.950 . S
C1182 C1181 1.398 . S
C1182 C1183 1.391 . S
C1183 H1171 0.950 . S
C1183 C1179 1.393 1_556 S
C1183 C1182 1.391 . S
H1184 C1192 0.950 . S
H1185 C1197 0.950 . S
H1186 C1194 0.950 . S
H1187 C1196 0.950 . S
H1188 C1198 0.950 . S
H1189 C1200 0.950 . S
H1190 C1202 0.950 . S
H1191 C1203 0.950 . S
C1192 H1184 0.950 . S
C1192 C1193 1.386 . S
C1192 C1194 1.391 1_554 S
C1193 C1192 1.386 . S
C1193 C1197 1.393 . S
C1194 H1186 0.950 . S
C1194 C1192 1.391 1_556 S
C1194 C1195 1.400 . S
C1195 C1194 1.400 . S
C1195 C1196 1.398 . S
C1195 C1201 1.491 . S
C1196 H1187 0.950 . S
C1196 C1195 1.398 . S
C1196 C1197 1.391 1_556 S
C1197 H1185 0.950 . S
C1197 C1193 1.393 . S
C1197 C1196 1.391 1_554 S
C1198 H1188 0.950 . S
C1198 C1199 1.386 . S
C1198 C1200 1.391 . S
C1199 C1198 1.386 . S
C1199 C1203 1.393 . S
C1200 H1189 0.950 . S
C1200 C1198 1.391 . S
C1200 C1201 1.400 . S
C1201 C1195 1.491 . S
C1201 C1200 1.400 . S
C1201 C1202 1.398 . S
C1202 H1190 0.950 . S
C1202 C1201 1.398 . S
C1202 C1203 1.391 . S
C1203 H1191 0.950 . S
C1203 C1199 1.393 . S
C1203 C1202 1.391 . S
H1204 C1212 0.950 . S
H1205 C1217 0.950 . S
H1206 C1214 0.950 . S
H1207 C1216 0.950 . S
H1208 C1218 0.950 . S
H1209 C1220 0.950 . S
H1210 C1222 0.950 . S
H1211 C1223 0.950 . S
C1212 H1204 0.950 . S
C1212 C1213 1.386 . S
C1212 C1214 1.391 . S
C1213 C1212 1.386 . S
C1213 C1217 1.393 . S
C1214 H1206 0.950 . S
C1214 C1212 1.391 . S
C1214 C1215 1.400 . S
C1215 C1214 1.400 . S
C1215 C1216 1.398 . S
C1215 C1221 1.491 . S
C1216 H1207 0.950 . S
C1216 C1215 1.398 . S
C1216 C1217 1.391 . S
C1217 H1205 0.950 . S
C1217 C1213 1.393 . S
C1217 C1216 1.391 . S
C1218 H1208 0.950 . S
C1218 C1219 1.386 . S
C1218 C1220 1.391 1_554 S
C1219 C1218 1.386 . S
C1219 C1223 1.393 . S
C1220 H1209 0.950 . S
C1220 C1218 1.391 1_556 S
C1220 C1221 1.400 . S
C1221 C1215 1.491 . S
C1221 C1220 1.400 . S
C1221 C1222 1.398 . S
C1222 H1210 0.950 . S
C1222 C1221 1.398 . S
C1222 C1223 1.391 1_556 S
C1223 H1211 0.950 . S
C1223 C1219 1.393 . S
C1223 C1222 1.391 1_554 S
H1224 C1232 0.950 . S
H1225 C1237 0.950 . S
H1226 C1234 0.950 . S
H1227 C1236 0.950 . S
H1228 C1238 0.950 . S
H1229 C1240 0.950 . S
H1230 C1242 0.950 . S
H1231 C1243 0.950 . S
C1232 H1224 0.950 . S
C1232 C1233 1.386 . S
C1232 C1234 1.391 . S
C1233 C1232 1.386 . S
C1233 C1237 1.393 . S
C1234 H1226 0.950 . S
C1234 C1232 1.391 . S
C1234 C1235 1.400 . S
C1235 C1234 1.400 . S
C1235 C1236 1.398 . S
C1235 C1241 1.491 . S
C1236 H1227 0.950 . S
C1236 C1235 1.398 . S
C1236 C1237 1.391 . S
C1237 H1225 0.950 . S
C1237 C1233 1.393 . S
C1237 C1236 1.391 . S
C1238 H1228 0.950 . S
C1238 C1239 1.386 . S
C1238 C1240 1.391 . S
C1239 C1238 1.386 . S
C1239 C1243 1.393 . S
C1240 H1229 0.950 . S
C1240 C1238 1.391 . S
C1240 C1241 1.400 . S
C1241 C1235 1.491 . S
C1241 C1240 1.400 . S
C1241 C1242 1.398 . S
C1242 H1230 0.950 . S
C1242 C1241 1.398 . S
C1242 C1243 1.391 . S
C1243 H1231 0.950 . S
C1243 C1239 1.393 . S
C1243 C1242 1.391 . S
H1244 C1252 0.950 . S
H1245 C1257 0.950 . S
H1246 C1254 0.950 . S
H1247 C1256 0.950 . S
H1248 C1258 0.950 . S
H1249 C1260 0.950 . S
H1250 C1262 0.950 . S
H1251 C1263 0.950 . S
C1252 H1244 0.950 . S
C1252 C1253 1.386 . S
C1252 C1254 1.391 . S
C1253 C1252 1.386 . S
C1253 C1257 1.393 . S
C1254 H1246 0.950 . S
C1254 C1252 1.391 . S
C1254 C1255 1.400 . S
C1255 C1254 1.400 . S
C1255 C1256 1.398 . S
C1255 C1261 1.491 . S
C1256 H1247 0.950 . S
C1256 C1255 1.398 . S
C1256 C1257 1.391 . S
C1257 H1245 0.950 . S
C1257 C1253 1.393 . S
C1257 C1256 1.391 . S
C1258 H1248 0.950 . S
C1258 C1259 1.386 . S
C1258 C1260 1.391 . S
C1259 C1258 1.386 . S
C1259 C1263 1.393 . S
C1260 H1249 0.950 . S
C1260 C1258 1.391 . S
C1260 C1261 1.400 . S
C1261 C1255 1.491 . S
C1261 C1260 1.400 . S
C1261 C1262 1.398 . S
C1262 H1250 0.950 . S
C1262 C1261 1.398 . S
C1262 C1263 1.391 . S
C1263 H1251 0.950 . S
C1263 C1259 1.393 . S
C1263 C1262 1.391 . S
H1264 C1272 0.950 . S
H1265 C1277 0.950 . S
H1266 C1274 0.950 . S
H1267 C1276 0.950 . S
H1268 C1278 0.950 . S
H1269 C1280 0.950 . S
H1270 C1282 0.950 . S
H1271 C1283 0.950 . S
C1272 H1264 0.950 . S
C1272 C1273 1.386 . S
C1272 C1274 1.391 . S
C1273 C1272 1.386 . S
C1273 C1277 1.393 . S
C1274 H1266 0.950 . S
C1274 C1272 1.391 . S
C1274 C1275 1.400 . S
C1275 C1274 1.400 . S
C1275 C1276 1.398 . S
C1275 C1281 1.491 . S
C1276 H1267 0.950 . S
C1276 C1275 1.398 . S
C1276 C1277 1.391 . S
C1277 H1265 0.950 . S
C1277 C1273 1.393 . S
C1277 C1276 1.391 . S
C1278 H1268 0.950 . S
C1278 C1279 1.386 . S
C1278 C1280 1.391 . S
C1279 C1278 1.386 . S
C1279 C1283 1.393 . S
C1280 H1269 0.950 . S
C1280 C1278 1.391 . S
C1280 C1281 1.400 . S
C1281 C1275 1.491 . S
C1281 C1280 1.400 . S
C1281 C1282 1.398 . S
C1282 H1270 0.950 . S
C1282 C1281 1.398 . S
C1282 C1283 1.391 . S
C1283 H1271 0.950 . S
C1283 C1279 1.393 . S
C1283 C1282 1.391 . S
H1284 C1292 0.950 . S
H1285 C1297 0.950 . S
H1286 C1294 0.950 . S
H1287 C1296 0.950 . S
H1288 C1298 0.950 . S
H1289 C1300 0.950 . S
H1290 C1302 0.950 . S
H1291 C1303 0.950 . S
C1292 H1284 0.950 . S
C1292 C1293 1.386 . S
C1292 C1294 1.391 . S
C1293 C1292 1.386 . S
C1293 C1297 1.393 . S
C1294 H1286 0.950 . S
C1294 C1292 1.391 . S
C1294 C1295 1.400 . S
C1295 C1294 1.400 . S
C1295 C1296 1.398 . S
C1295 C1301 1.491 . S
C1296 H1287 0.950 . S
C1296 C1295 1.398 . S
C1296 C1297 1.391 . S
C1297 H1285 0.950 . S
C1297 C1293 1.393 . S
C1297 C1296 1.391 . S
C1298 H1288 0.950 . S
C1298 C1299 1.386 . S
C1298 C1300 1.391 . S
C1299 C1298 1.386 . S
C1299 C1303 1.393 . S
C1300 H1289 0.950 . S
C1300 C1298 1.391 . S
C1300 C1301 1.400 . S
C1301 C1295 1.491 . S
C1301 C1300 1.400 . S
C1301 C1302 1.398 . S
C1302 H1290 0.950 . S
C1302 C1301 1.398 . S
C1302 C1303 1.391 . S
C1303 H1291 0.950 . S
C1303 C1299 1.393 . S
C1303 C1302 1.391 . S
H1304 C1312 0.950 . S
H1305 C1317 0.950 . S
H1306 C1314 0.950 . S
H1307 C1316 0.950 . S
H1308 C1318 0.950 . S
H1309 C1320 0.950 . S
H1310 C1322 0.950 . S
H1311 C1323 0.950 . S
C1312 H1304 0.950 . S
C1312 C1313 1.386 . S
C1312 C1314 1.391 . S
C1313 C1312 1.386 . S
C1313 C1317 1.393 . S
C1314 H1306 0.950 . S
C1314 C1312 1.391 . S
C1314 C1315 1.400 . S
C1315 C1314 1.400 . S
C1315 C1316 1.398 . S
C1315 C1321 1.491 . S
C1316 H1307 0.950 . S
C1316 C1315 1.398 . S
C1316 C1317 1.391 . S
C1317 H1305 0.950 . S
C1317 C1313 1.393 . S
C1317 C1316 1.391 . S
C1318 H1308 0.950 . S
C1318 C1319 1.386 . S
C1318 C1320 1.391 . S
C1319 C1318 1.386 . S
C1319 C1323 1.393 . S
C1320 H1309 0.950 . S
C1320 C1318 1.391 . S
C1320 C1321 1.400 . S
C1321 C1315 1.491 . S
C1321 C1320 1.400 . S
C1321 C1322 1.398 . S
C1322 H1310 0.950 . S
C1322 C1321 1.398 . S
C1322 C1323 1.391 . S
C1323 H1311 0.950 . S
C1323 C1319 1.393 . S
C1323 C1322 1.391 . S
H1324 C1332 0.950 . S
H1325 C1337 0.950 . S
H1326 C1334 0.950 . S
H1327 C1336 0.950 . S
H1328 C1338 0.950 . S
H1329 C1340 0.950 . S
H1330 C1342 0.950 . S
H1331 C1343 0.950 . S
C1332 H1324 0.950 . S
C1332 C1333 1.386 . S
C1332 C1334 1.391 . S
C1333 C1332 1.386 . S
C1333 C1337 1.393 . S
C1334 H1326 0.950 . S
C1334 C1332 1.391 . S
C1334 C1335 1.400 . S
C1335 C1334 1.400 . S
C1335 C1336 1.398 . S
C1335 C1341 1.491 . S
C1336 H1327 0.950 . S
C1336 C1335 1.398 . S
C1336 C1337 1.391 . S
C1337 H1325 0.950 . S
C1337 C1333 1.393 . S
C1337 C1336 1.391 . S
C1338 H1328 0.950 . S
C1338 C1339 1.386 . S
C1338 C1340 1.391 . S
C1339 C1338 1.386 . S
C1339 C1343 1.393 . S
C1340 H1329 0.950 . S
C1340 C1338 1.391 . S
C1340 C1341 1.400 . S
C1341 C1335 1.491 . S
C1341 C1340 1.400 . S
C1341 C1342 1.398 . S
C1342 H1330 0.950 . S
C1342 C1341 1.398 . S
C1342 C1343 1.391 . S
C1343 H1331 0.950 . S
C1343 C1339 1.393 . S
C1343 C1342 1.391 . S
H1344 C1352 0.950 . S
H1345 C1357 0.950 . S
H1346 C1354 0.950 . S
H1347 C1356 0.950 . S
H1348 C1358 0.950 . S
H1349 C1360 0.950 . S
H1350 C1362 0.950 . S
H1351 C1363 0.950 . S
C1352 H1344 0.950 . S
C1352 C1353 1.386 . S
C1352 C1354 1.391 . S
C1353 C1352 1.386 . S
C1353 C1357 1.393 . S
C1354 H1346 0.950 . S
C1354 C1352 1.391 . S
C1354 C1355 1.400 . S
C1355 C1354 1.400 . S
C1355 C1356 1.398 . S
C1355 C1361 1.491 . S
C1356 H1347 0.950 . S
C1356 C1355 1.398 . S
C1356 C1357 1.391 . S
C1357 H1345 0.950 . S
C1357 C1353 1.393 . S
C1357 C1356 1.391 . S
C1358 H1348 0.950 . S
C1358 C1359 1.386 . S
C1358 C1360 1.391 . S
C1359 C1358 1.386 . S
C1359 C1363 1.393 . S
C1360 H1349 0.950 . S
C1360 C1358 1.391 . S
C1360 C1361 1.400 . S
C1361 C1355 1.491 . S
C1361 C1360 1.400 . S
C1361 C1362 1.398 . S
C1362 H1350 0.950 . S
C1362 C1361 1.398 . S
C1362 C1363 1.391 . S
C1363 H1351 0.950 . S
C1363 C1359 1.393 . S
C1363 C1362 1.391 . S
H1364 C1372 0.950 . S
H1365 C1377 0.950 . S
H1366 C1374 0.950 . S
H1367 C1376 0.950 . S
H1368 C1378 0.950 . S
H1369 C1380 0.950 . S
H1370 C1382 0.950 . S
H1371 C1383 0.950 . S
C1372 H1364 0.950 . S
C1372 C1373 1.386 . S
C1372 C1374 1.391 . S
C1373 C1372 1.386 . S
C1373 C1377 1.393 . S
C1374 H1366 0.950 . S
C1374 C1372 1.391 . S
C1374 C1375 1.400 . S
C1375 C1374 1.400 . S
C1375 C1376 1.398 . S
C1375 C1381 1.491 . S
C1376 H1367 0.950 . S
C1376 C1375 1.398 . S
C1376 C1377 1.391 . S
C1377 H1365 0.950 . S
C1377 C1373 1.393 . S
C1377 C1376 1.391 . S
C1378 H1368 0.950 . S
C1378 C1379 1.386 . S
C1378 C1380 1.391 . S
C1379 C1378 1.386 . S
C1379 C1383 1.393 . S
C1380 H1369 0.950 . S
C1380 C1378 1.391 . S
C1380 C1381 1.400 . S
C1381 C1375 1.491 . S
C1381 C1380 1.400 . S
C1381 C1382 1.398 . S
C1382 H1370 0.950 . S
C1382 C1381 1.398 . S
C1382 C1383 1.391 . S
C1383 H1371 0.950 . S
C1383 C1379 1.393 . S
C1383 C1382 1.391 . S
H1384 C1392 0.950 . S
H1385 C1397 0.950 . S
H1386 C1394 0.950 . S
H1387 C1396 0.950 . S
H1388 C1398 0.950 . S
H1389 C1400 0.950 . S
H1390 C1402 0.950 . S
H1391 C1403 0.950 . S
C1392 H1384 0.950 . S
C1392 C1393 1.386 . S
C1392 C1394 1.391 . S
C1393 C1392 1.386 . S
C1393 C1397 1.393 . S
C1394 H1386 0.950 . S
C1394 C1392 1.391 . S
C1394 C1395 1.400 . S
C1395 C1394 1.400 . S
C1395 C1396 1.398 . S
C1395 C1401 1.491 . S
C1396 H1387 0.950 . S
C1396 C1395 1.398 . S
C1396 C1397 1.391 . S
C1397 H1385 0.950 . S
C1397 C1393 1.393 . S
C1397 C1396 1.391 . S
C1398 H1388 0.950 . S
C1398 C1399 1.386 . S
C1398 C1400 1.391 . S
C1399 C1398 1.386 . S
C1399 C1403 1.393 . S
C1400 H1389 0.950 . S
C1400 C1398 1.391 . S
C1400 C1401 1.400 . S
C1401 C1395 1.491 . S
C1401 C1400 1.400 . S
C1401 C1402 1.398 . S
C1402 H1390 0.950 . S
C1402 C1401 1.398 . S
C1402 C1403 1.391 . S
C1403 H1391 0.950 . S
C1403 C1399 1.393 . S
C1403 C1402 1.391 . S
H1404 C1412 0.950 . S
H1405 C1417 0.950 . S
H1406 C1414 0.950 . S
H1407 C1416 0.950 . S
H1408 C1418 0.950 . S
H1409 C1420 0.950 . S
H1410 C1422 0.950 . S
H1411 C1423 0.950 . S
C1412 H1404 0.950 . S
C1412 C1413 1.386 . S
C1412 C1414 1.391 . S
C1413 C1412 1.386 . S
C1413 C1417 1.393 . S
C1414 H1406 0.950 . S
C1414 C1412 1.391 . S
C1414 C1415 1.400 . S
C1415 C1414 1.400 . S
C1415 C1416 1.398 . S
C1415 C1421 1.491 . S
C1416 H1407 0.950 . S
C1416 C1415 1.398 . S
C1416 C1417 1.391 . S
C1417 H1405 0.950 . S
C1417 C1413 1.393 . S
C1417 C1416 1.391 . S
C1418 H1408 0.950 . S
C1418 C1419 1.386 . S
C1418 C1420 1.391 . S
C1419 C1418 1.386 . S
C1419 C1423 1.393 . S
C1420 H1409 0.950 . S
C1420 C1418 1.391 . S
C1420 C1421 1.400 . S
C1421 C1415 1.491 . S
C1421 C1420 1.400 . S
C1421 C1422 1.398 . S
C1422 H1410 0.950 . S
C1422 C1421 1.398 . S
C1422 C1423 1.391 . S
C1423 H1411 0.950 . S
C1423 C1419 1.393 . S
C1423 C1422 1.391 . S
H1424 C1432 0.950 . S
H1425 C1437 0.950 . S
H1426 C1434 0.950 . S
H1427 C1436 0.950 . S
H1428 C1438 0.950 . S
H1429 C1440 0.950 . S
H1430 C1442 0.950 . S
H1431 C1443 0.950 . S
C1432 H1424 0.950 . S
C1432 C1433 1.386 . S
C1432 C1434 1.391 . S
C1433 C1432 1.386 . S
C1433 C1437 1.393 . S
C1434 H1426 0.950 . S
C1434 C1432 1.391 . S
C1434 C1435 1.400 . S
C1435 C1434 1.400 . S
C1435 C1436 1.398 . S
C1435 C1441 1.491 . S
C1436 H1427 0.950 . S
C1436 C1435 1.398 . S
C1436 C1437 1.391 . S
C1437 H1425 0.950 . S
C1437 C1433 1.393 . S
C1437 C1436 1.391 . S
C1438 H1428 0.950 . S
C1438 C1439 1.386 . S
C1438 C1440 1.391 . S
C1439 C1438 1.386 . S
C1439 C1443 1.393 . S
C1440 H1429 0.950 . S
C1440 C1438 1.391 . S
C1440 C1441 1.400 . S
C1441 C1435 1.491 . S
C1441 C1440 1.400 . S
C1441 C1442 1.398 . S
C1442 H1430 0.950 . S
C1442 C1441 1.398 . S
C1442 C1443 1.391 . S
C1443 H1431 0.950 . S
C1443 C1439 1.393 . S
C1443 C1442 1.391 . S
H1444 C1452 0.950 . S
H1445 C1457 0.950 . S
H1446 C1454 0.950 . S
H1447 C1456 0.950 . S
H1448 C1458 0.950 . S
H1449 C1460 0.950 . S
H1450 C1462 0.950 . S
H1451 C1463 0.950 . S
C1452 H1444 0.950 . S
C1452 C1453 1.386 . S
C1452 C1454 1.391 . S
C1453 C1452 1.386 . S
C1453 C1457 1.393 . S
C1454 H1446 0.950 . S
C1454 C1452 1.391 . S
C1454 C1455 1.400 . S
C1455 C1454 1.400 . S
C1455 C1456 1.398 . S
C1455 C1461 1.491 . S
C1456 H1447 0.950 . S
C1456 C1455 1.398 . S
C1456 C1457 1.391 . S
C1457 H1445 0.950 . S
C1457 C1453 1.393 . S
C1457 C1456 1.391 . S
C1458 H1448 0.950 . S
C1458 C1459 1.386 . S
C1458 C1460 1.391 . S
C1459 C1458 1.386 . S
C1459 C1463 1.393 . S
C1460 H1449 0.950 . S
C1460 C1458 1.391 . S
C1460 C1461 1.400 . S
C1461 C1455 1.491 . S
C1461 C1460 1.400 . S
C1461 C1462 1.398 . S
C1462 H1450 0.950 . S
C1462 C1461 1.398 . S
C1462 C1463 1.391 . S
C1463 H1451 0.950 . S
C1463 C1459 1.393 . S
C1463 C1462 1.391 . S
H1464 C1472 0.950 . S
H1465 C1477 0.950 . S
H1466 C1474 0.950 . S
H1467 C1476 0.950 . S
H1468 C1478 0.950 . S
H1469 C1480 0.950 . S
H1470 C1482 0.950 . S
H1471 C1483 0.950 . S
C1472 H1464 0.950 . S
C1472 C1473 1.386 . S
C1472 C1474 1.391 . S
C1473 C1472 1.386 . S
C1473 C1477 1.393 . S
C1474 H1466 0.950 . S
C1474 C1472 1.391 . S
C1474 C1475 1.400 . S
C1475 C1474 1.400 . S
C1475 C1476 1.398 . S
C1475 C1481 1.491 . S
C1476 H1467 0.950 . S
C1476 C1475 1.398 . S
C1476 C1477 1.391 . S
C1477 H1465 0.950 . S
C1477 C1473 1.393 . S
C1477 C1476 1.391 . S
C1478 H1468 0.950 . S
C1478 C1479 1.386 . S
C1478 C1480 1.391 . S
C1479 C1478 1.386 . S
C1479 C1483 1.393 . S
C1480 H1469 0.950 . S
C1480 C1478 1.391 . S
C1480 C1481 1.400 . S
C1481 C1475 1.491 . S
C1481 C1480 1.400 . S
C1481 C1482 1.398 . S
C1482 H1470 0.950 . S
C1482 C1481 1.398 . S
C1482 C1483 1.391 . S
C1483 H1471 0.950 . S
C1483 C1479 1.393 . S
C1483 C1482 1.391 . S
H1484 C1492 0.950 . S
H1485 C1497 0.950 . S
H1486 C1494 0.950 . S
H1487 C1496 0.950 . S
H1488 C1498 0.950 . S
H1489 C1500 0.950 . S
H1490 C1502 0.950 . S
H1491 C1503 0.950 . S
C1492 H1484 0.950 . S
C1492 C1493 1.386 . S
C1492 C1494 1.391 . S
C1493 C1492 1.386 . S
C1493 C1497 1.393 . S
C1494 H1486 0.950 . S
C1494 C1492 1.391 . S
C1494 C1495 1.400 . S
C1495 C1494 1.400 . S
C1495 C1496 1.398 . S
C1495 C1501 1.491 . S
C1496 H1487 0.950 . S
C1496 C1495 1.398 . S
C1496 C1497 1.391 . S
C1497 H1485 0.950 . S
C1497 C1493 1.393 . S
C1497 C1496 1.391 . S
C1498 H1488 0.950 . S
C1498 C1499 1.386 . S
C1498 C1500 1.391 . S
C1499 C1498 1.386 . S
C1499 C1503 1.393 . S
C1500 H1489 0.950 . S
C1500 C1498 1.391 . S
C1500 C1501 1.400 . S
C1501 C1495 1.491 . S
C1501 C1500 1.400 . S
C1501 C1502 1.398 . S
C1502 H1490 0.950 . S
C1502 C1501 1.398 . S
C1502 C1503 1.391 . S
C1503 H1491 0.950 . S
C1503 C1499 1.393 . S
C1503 C1502 1.391 . S
H1504 C1512 0.950 . S
H1505 C1517 0.950 . S
H1506 C1514 0.950 . S
H1507 C1516 0.950 . S
H1508 C1518 0.950 . S
H1509 C1520 0.950 . S
H1510 C1522 0.950 . S
H1511 C1523 0.950 . S
C1512 H1504 0.950 . S
C1512 C1513 1.386 . S
C1512 C1514 1.391 . S
C1513 C1512 1.386 . S
C1513 C1517 1.393 . S
C1514 H1506 0.950 . S
C1514 C1512 1.391 . S
C1514 C1515 1.400 . S
C1515 C1514 1.400 . S
C1515 C1516 1.398 . S
C1515 C1521 1.491 . S
C1516 H1507 0.950 . S
C1516 C1515 1.398 . S
C1516 C1517 1.391 . S
C1517 H1505 0.950 . S
C1517 C1513 1.393 . S
C1517 C1516 1.391 . S
C1518 H1508 0.950 . S
C1518 C1519 1.386 . S
C1518 C1520 1.391 . S
C1519 C1518 1.386 . S
C1519 C1523 1.393 . S
C1520 H1509 0.950 . S
C1520 C1518 1.391 . S
C1520 C1521 1.400 . S
C1521 C1515 1.491 . S
C1521 C1520 1.400 . S
C1521 C1522 1.398 . S
C1522 H1510 0.950 . S
C1522 C1521 1.398 . S
C1522 C1523 1.391 . S
C1523 H1511 0.950 . S
C1523 C1519 1.393 . S
C1523 C1522 1.391 . S
H1524 C1532 0.950 . S
H1525 C1537 0.950 . S
H1526 C1534 0.950 . S
H1527 C1536 0.951 . S
H1528 C1538 0.950 . S
H1529 C1540 0.950 . S
H1530 C1542 0.950 . S
H1531 C1543 0.950 . S
C1532 H1524 0.950 . S
C1532 C1533 1.386 1_554 S
C1532 C1534 1.391 . S
C1533 C1532 1.386 1_556 S
C1533 C1537 1.393 . S
C1534 H1526 0.950 . S
C1534 C1532 1.391 . S
C1534 C1535 1.400 . S
C1535 C1534 1.400 . S
C1535 C1536 1.391 1_554 S
C1535 C1541 1.491 . S
C1536 H1527 0.951 . S
C1536 C1535 1.391 1_556 S
C1536 C1537 1.398 . S
C1537 H1525 0.950 . S
C1537 C1533 1.393 . S
C1537 C1536 1.398 . S
C1538 H1528 0.950 . S
C1538 C1539 1.386 . S
C1538 C1540 1.391 . S
C1539 C1538 1.386 . S
C1539 C1543 1.393 . S
C1540 H1529 0.950 . S
C1540 C1538 1.391 . S
C1540 C1541 1.400 . S
C1541 C1535 1.491 . S
C1541 C1540 1.400 . S
C1541 C1542 1.398 . S
C1542 H1530 0.950 . S
C1542 C1541 1.398 . S
C1542 C1543 1.391 . S
C1543 H1531 0.950 . S
C1543 C1539 1.393 . S
C1543 C1542 1.391 . S
H1544 C1552 0.950 . S
H1545 C1557 0.950 . S
H1546 C1554 0.949 1_556 S
H1547 C1556 0.950 . S
H1548 C1558 0.950 . S
H1549 C1560 0.950 . S
H1550 C1562 0.950 . S
H1551 C1563 0.950 . S
C1552 H1544 0.950 . S
C1552 C1553 1.386 . S
C1552 C1554 1.384 1_556 S
C1553 C1552 1.386 . S
C1553 C1557 1.393 1_556 S
C1554 H1546 0.949 1_554 S
C1554 C1552 1.384 1_554 S
C1554 C1555 1.407 . S
C1555 C1554 1.407 . S
C1555 C1556 1.398 . S
C1555 C1561 1.491 . S
C1556 H1547 0.950 . S
C1556 C1555 1.398 . S
C1556 C1557 1.391 . S
C1557 H1545 0.950 . S
C1557 C1553 1.393 1_554 S
C1557 C1556 1.391 . S
C1558 H1548 0.950 . S
C1558 C1559 1.386 . S
C1558 C1560 1.391 . S
C1559 C1558 1.386 . S
C1559 C1563 1.393 . S
C1560 H1549 0.950 . S
C1560 C1558 1.391 . S
C1560 C1561 1.400 . S
C1561 C1555 1.491 . S
C1561 C1560 1.400 . S
C1561 C1562 1.398 . S
C1562 H1550 0.950 . S
C1562 C1561 1.398 . S
C1562 C1563 1.391 . S
C1563 H1551 0.950 . S
C1563 C1559 1.393 . S
C1563 C1562 1.391 . S
H1564 C1572 0.950 . S
H1565 C1577 0.950 1_556 S
H1566 C1574 0.950 . S
H1567 C1576 0.950 . S
H1568 C1578 0.950 . S
H1569 C1580 0.950 . S
H1570 C1582 0.950 . S
H1571 C1583 0.950 . S
C1572 H1564 0.950 . S
C1572 C1573 1.386 . S
C1572 C1574 1.391 1_556 S
C1573 C1572 1.386 . S
C1573 C1577 1.393 1_556 S
C1574 H1566 0.950 . S
C1574 C1572 1.391 1_554 S
C1574 C1575 1.400 . S
C1575 C1574 1.400 . S
C1575 C1576 1.398 . S
C1575 C1581 1.491 . S
C1576 H1567 0.950 . S
C1576 C1575 1.398 . S
C1576 C1577 1.391 . S
C1577 H1565 0.950 1_554 S
C1577 C1573 1.393 1_554 S
C1577 C1576 1.391 . S
C1578 H1568 0.950 . S
C1578 C1579 1.386 . S
C1578 C1580 1.391 . S
C1579 C1578 1.386 . S
C1579 C1583 1.393 . S
C1580 H1569 0.950 . S
C1580 C1578 1.391 . S
C1580 C1581 1.400 . S
C1581 C1575 1.491 . S
C1581 C1580 1.400 . S
C1581 C1582 1.398 . S
C1582 H1570 0.950 . S
C1582 C1581 1.398 . S
C1582 C1583 1.391 . S
C1583 H1571 0.950 . S
C1583 C1579 1.393 . S
C1583 C1582 1.391 . S
H1584 C1592 0.950 . S
H1585 C1597 0.950 . S
H1586 C1594 0.950 . S
H1587 C1596 0.950 . S
H1588 C1598 0.950 . S
H1589 C1600 0.950 . S
H1590 C1602 0.950 . S
H1591 C1603 0.950 . S
C1592 H1584 0.950 . S
C1592 C1593 1.386 . S
C1592 C1594 1.391 . S
C1593 C1592 1.386 . S
C1593 C1597 1.393 . S
C1594 H1586 0.950 . S
C1594 C1592 1.391 . S
C1594 C1595 1.400 . S
C1595 C1594 1.400 . S
C1595 C1596 1.398 . S
C1595 C1601 1.491 . S
C1596 H1587 0.950 . S
C1596 C1595 1.398 . S
C1596 C1597 1.391 . S
C1597 H1585 0.950 . S
C1597 C1593 1.393 . S
C1597 C1596 1.391 . S
C1598 H1588 0.950 . S
C1598 C1599 1.386 . S
C1598 C1600 1.391 . S
C1599 C1598 1.386 . S
C1599 C1603 1.393 . S
C1600 H1589 0.950 . S
C1600 C1598 1.391 . S
C1600 C1601 1.400 . S
C1601 C1595 1.491 . S
C1601 C1600 1.400 . S
C1601 C1602 1.398 . S
C1602 H1590 0.950 . S
C1602 C1601 1.398 . S
C1602 C1603 1.391 . S
C1603 H1591 0.950 . S
C1603 C1599 1.393 . S
C1603 C1602 1.391 . S
H1604 C1612 0.950 . S
H1605 C1617 0.950 . S
H1606 C1614 0.950 . S
H1607 C1616 0.950 . S
H1608 C1618 0.950 1_556 S
H1609 C1620 0.950 1_556 S
H1610 C1622 0.950 . S
H1611 C1623 0.950 . S
C1612 H1604 0.950 . S
C1612 C1613 1.386 . S
C1612 C1614 1.391 . S
C1613 C1612 1.386 . S
C1613 C1617 1.393 . S
C1614 H1606 0.950 . S
C1614 C1612 1.391 . S
C1614 C1615 1.400 . S
C1615 C1614 1.400 . S
C1615 C1616 1.398 . S
C1615 C1621 1.491 . S
C1616 H1607 0.950 . S
C1616 C1615 1.398 . S
C1616 C1617 1.391 . S
C1617 H1605 0.950 . S
C1617 C1613 1.393 . S
C1617 C1616 1.391 . S
C1618 H1608 0.950 1_554 S
C1618 C1619 1.386 . S
C1618 C1620 1.391 . S
C1619 C1618 1.386 . S
C1619 C1623 1.393 . S
C1620 H1609 0.950 1_554 S
C1620 C1618 1.391 . S
C1620 C1621 1.400 . S
C1621 C1615 1.491 . S
C1621 C1620 1.400 . S
C1621 C1622 1.398 . S
C1622 H1610 0.950 . S
C1622 C1621 1.398 . S
C1622 C1623 1.391 . S
C1623 H1611 0.950 . S
C1623 C1619 1.393 . S
C1623 C1622 1.391 . S
H1624 C1632 0.950 1_556 S
H1625 C1637 0.950 . S
H1626 C1634 0.950 . S
H1627 C1636 0.950 . S
H1628 C1638 0.950 . S
H1629 C1640 0.950 . S
H1630 C1642 0.950 . S
H1631 C1643 0.950 . S
C1632 H1624 0.950 1_554 S
C1632 C1633 1.386 . S
C1632 C1634 1.391 . S
C1633 C1632 1.386 . S
C1633 C1637 1.393 . S
C1634 H1626 0.950 . S
C1634 C1632 1.391 . S
C1634 C1635 1.400 . S
C1635 C1634 1.400 . S
C1635 C1636 1.398 . S
C1635 C1641 1.491 . S
C1636 H1627 0.950 . S
C1636 C1635 1.398 . S
C1636 C1637 1.391 . S
C1637 H1625 0.950 . S
C1637 C1633 1.393 . S
C1637 C1636 1.391 . S
C1638 H1628 0.950 . S
C1638 C1639 1.386 . S
C1638 C1640 1.391 . S
C1639 C1638 1.386 . S
C1639 C1643 1.393 . S
C1640 H1629 0.950 . S
C1640 C1638 1.391 . S
C1640 C1641 1.400 . S
C1641 C1635 1.491 . S
C1641 C1640 1.400 . S
C1641 C1642 1.398 . S
C1642 H1630 0.950 . S
C1642 C1641 1.398 . S
C1642 C1643 1.391 . S
C1643 H1631 0.950 . S
C1643 C1639 1.393 . S
C1643 C1642 1.391 . S
H1644 C1652 0.950 . S
H1645 C1657 0.950 . S
H1646 C1654 0.950 . S
H1647 C1656 0.950 . S
H1648 C1658 0.950 . S
H1649 C1660 0.950 . S
H1650 C1662 0.950 . S
H1651 C1663 0.950 . S
C1652 H1644 0.950 . S
C1652 C1653 1.386 . S
C1652 C1654 1.391 . S
C1653 C1652 1.386 . S
C1653 C1657 1.393 . S
C1654 H1646 0.950 . S
C1654 C1652 1.391 . S
C1654 C1655 1.400 . S
C1655 C1654 1.400 . S
C1655 C1656 1.398 . S
C1655 C1661 1.491 . S
C1656 H1647 0.950 . S
C1656 C1655 1.398 . S
C1656 C1657 1.391 . S
C1657 H1645 0.950 . S
C1657 C1653 1.393 . S
C1657 C1656 1.391 . S
C1658 H1648 0.950 . S
C1658 C1659 1.386 . S
C1658 C1660 1.391 . S
C1659 C1658 1.386 . S
C1659 C1663 1.393 . S
C1660 H1649 0.950 . S
C1660 C1658 1.391 . S
C1660 C1661 1.400 . S
C1661 C1655 1.491 . S
C1661 C1660 1.400 . S
C1661 C1662 1.398 . S
C1662 H1650 0.950 . S
C1662 C1661 1.398 . S
C1662 C1663 1.391 . S
C1663 H1651 0.950 . S
C1663 C1659 1.393 . S
C1663 C1662 1.391 . S
H1664 C1672 0.950 . S
H1665 C1677 0.950 . S
H1666 C1674 0.950 . S
H1667 C1676 0.950 . S
H1668 C1678 0.950 . S
H1669 C1680 0.950 . S
H1670 C1682 0.950 . S
H1671 C1683 0.950 . S
C1672 H1664 0.950 . S
C1672 C1673 1.386 . S
C1672 C1674 1.391 . S
C1673 C1672 1.386 . S
C1673 C1677 1.393 . S
C1674 H1666 0.950 . S
C1674 C1672 1.391 . S
C1674 C1675 1.400 . S
C1675 C1674 1.400 . S
C1675 C1676 1.398 . S
C1675 C1681 1.491 . S
C1676 H1667 0.950 . S
C1676 C1675 1.398 . S
C1676 C1677 1.391 . S
C1677 H1665 0.950 . S
C1677 C1673 1.393 . S
C1677 C1676 1.391 . S
C1678 H1668 0.950 . S
C1678 C1679 1.386 . S
C1678 C1680 1.391 . S
C1679 C1678 1.386 . S
C1679 C1683 1.393 . S
C1680 H1669 0.950 . S
C1680 C1678 1.391 . S
C1680 C1681 1.400 . S
C1681 C1675 1.491 . S
C1681 C1680 1.400 . S
C1681 C1682 1.398 . S
C1682 H1670 0.950 . S
C1682 C1681 1.398 . S
C1682 C1683 1.391 . S
C1683 H1671 0.950 . S
C1683 C1679 1.393 . S
C1683 C1682 1.391 . S
H1684 C1692 0.950 . S
H1685 C1697 0.950 . S
H1686 C1694 0.950 . S
H1687 C1696 0.950 . S
H1688 C1698 0.950 . S
H1689 C1700 0.950 . S
H1690 C1702 0.950 . S
H1691 C1703 0.950 . S
C1692 H1684 0.950 . S
C1692 C1693 1.386 . S
C1692 C1694 1.391 . S
C1693 C1692 1.386 . S
C1693 C1697 1.393 . S
C1694 H1686 0.950 . S
C1694 C1692 1.391 . S
C1694 C1695 1.400 . S
C1695 C1694 1.400 . S
C1695 C1696 1.398 . S
C1695 C1701 1.491 . S
C1696 H1687 0.950 . S
C1696 C1695 1.398 . S
C1696 C1697 1.391 . S
C1697 H1685 0.950 . S
C1697 C1693 1.393 . S
C1697 C1696 1.391 . S
C1698 H1688 0.950 . S
C1698 C1699 1.386 . S
C1698 C1700 1.391 . S
C1699 C1698 1.386 . S
C1699 C1703 1.393 . S
C1700 H1689 0.950 . S
C1700 C1698 1.391 . S
C1700 C1701 1.400 . S
C1701 C1695 1.491 . S
C1701 C1700 1.400 . S
C1701 C1702 1.398 . S
C1702 H1690 0.950 . S
C1702 C1701 1.398 . S
C1702 C1703 1.391 . S
C1703 H1691 0.950 . S
C1703 C1699 1.393 . S
C1703 C1702 1.391 . S
H1704 C1712 0.950 . S
H1705 C1717 0.950 . S
H1706 C1714 0.950 . S
H1707 C1716 0.950 . S
H1708 C1718 0.950 . S
H1709 C1720 0.950 . S
H1710 C1722 0.950 . S
H1711 C1723 0.950 . S
C1712 H1704 0.950 . S
C1712 C1713 1.386 . S
C1712 C1714 1.391 . S
C1713 C1712 1.386 . S
C1713 C1717 1.393 . S
C1714 H1706 0.950 . S
C1714 C1712 1.391 . S
C1714 C1715 1.400 . S
C1715 C1714 1.400 . S
C1715 C1716 1.398 . S
C1715 C1721 1.491 . S
C1716 H1707 0.950 . S
C1716 C1715 1.398 . S
C1716 C1717 1.391 . S
C1717 H1705 0.950 . S
C1717 C1713 1.393 . S
C1717 C1716 1.391 . S
C1718 H1708 0.950 . S
C1718 C1719 1.386 . S
C1718 C1720 1.391 . S
C1719 C1718 1.386 . S
C1719 C1723 1.393 . S
C1720 H1709 0.950 . S
C1720 C1718 1.391 . S
C1720 C1721 1.400 . S
C1721 C1715 1.491 . S
C1721 C1720 1.400 . S
C1721 C1722 1.398 . S
C1722 H1710 0.950 . S
C1722 C1721 1.398 . S
C1722 C1723 1.391 . S
C1723 H1711 0.950 . S
C1723 C1719 1.393 . S
C1723 C1722 1.391 . S
H1724 C1732 0.950 . S
H1725 C1737 0.950 . S
H1726 C1734 0.950 . S
H1727 C1736 0.950 . S
H1728 C1738 0.950 . S
H1729 C1740 0.950 . S
H1730 C1742 0.950 . S
H1731 C1743 0.950 . S
C1732 H1724 0.950 . S
C1732 C1733 1.386 . S
C1732 C1734 1.391 . S
C1733 C1732 1.386 . S
C1733 C1737 1.393 . S
C1734 H1726 0.950 . S
C1734 C1732 1.391 . S
C1734 C1735 1.400 . S
C1735 C1734 1.400 . S
C1735 C1736 1.398 . S
C1735 C1741 1.491 . S
C1736 H1727 0.950 . S
C1736 C1735 1.398 . S
C1736 C1737 1.391 . S
C1737 H1725 0.950 . S
C1737 C1733 1.393 . S
C1737 C1736 1.391 . S
C1738 H1728 0.950 . S
C1738 C1739 1.386 . S
C1738 C1740 1.391 . S
C1739 C1738 1.386 . S
C1739 C1743 1.393 . S
C1740 H1729 0.950 . S
C1740 C1738 1.391 . S
C1740 C1741 1.400 . S
C1741 C1735 1.491 . S
C1741 C1740 1.400 . S
C1741 C1742 1.398 . S
C1742 H1730 0.950 . S
C1742 C1741 1.398 . S
C1742 C1743 1.391 . S
C1743 H1731 0.950 . S
C1743 C1739 1.393 . S
C1743 C1742 1.391 . S
H1744 C1752 0.950 . S
H1745 C1757 0.950 . S
H1746 C1754 0.950 . S
H1747 C1756 0.950 . S
H1748 C1758 0.950 1_554 S
H1749 C1760 0.950 1_554 S
H1750 C1762 0.950 . S
H1751 C1763 0.950 . S
C1752 H1744 0.950 . S
C1752 C1753 1.386 . S
C1752 C1754 1.391 . S
C1753 C1752 1.386 . S
C1753 C1757 1.393 . S
C1754 H1746 0.950 . S
C1754 C1752 1.391 . S
C1754 C1755 1.400 . S
C1755 C1754 1.400 . S
C1755 C1756 1.398 . S
C1755 C1761 1.491 . S
C1756 H1747 0.950 . S
C1756 C1755 1.398 . S
C1756 C1757 1.391 . S
C1757 H1745 0.950 . S
C1757 C1753 1.393 . S
C1757 C1756 1.391 . S
C1758 H1748 0.950 1_556 S
C1758 C1759 1.386 . S
C1758 C1760 1.391 . S
C1759 C1758 1.386 . S
C1759 C1763 1.393 . S
C1760 H1749 0.950 1_556 S
C1760 C1758 1.391 . S
C1760 C1761 1.400 . S
C1761 C1755 1.491 . S
C1761 C1760 1.400 . S
C1761 C1762 1.398 . S
C1762 H1750 0.950 . S
C1762 C1761 1.398 . S
C1762 C1763 1.391 . S
C1763 H1751 0.950 . S
C1763 C1759 1.393 . S
C1763 C1762 1.391 . S
H1764 C1772 0.950 . S
H1765 C1777 0.950 . S
H1766 C1774 0.950 . S
H1767 C1776 0.950 . S
H1768 C1778 0.950 . S
H1769 C1780 0.950 . S
H1770 C1782 0.950 . S
H1771 C1783 0.950 . S
C1772 H1764 0.950 . S
C1772 C1773 1.386 . S
C1772 C1774 1.391 . S
C1773 C1772 1.386 . S
C1773 C1777 1.393 . S
C1774 H1766 0.950 . S
C1774 C1772 1.391 . S
C1774 C1775 1.400 . S
C1775 C1774 1.400 . S
C1775 C1776 1.398 . S
C1775 C1781 1.491 . S
C1776 H1767 0.950 . S
C1776 C1775 1.398 . S
C1776 C1777 1.391 . S
C1777 H1765 0.950 . S
C1777 C1773 1.393 . S
C1777 C1776 1.391 . S
C1778 H1768 0.950 . S
C1778 C1779 1.386 . S
C1778 C1780 1.391 . S
C1779 C1778 1.386 . S
C1779 C1783 1.393 . S
C1780 H1769 0.950 . S
C1780 C1778 1.391 . S
C1780 C1781 1.400 . S
C1781 C1775 1.491 . S
C1781 C1780 1.400 . S
C1781 C1782 1.398 . S
C1782 H1770 0.950 . S
C1782 C1781 1.398 . S
C1782 C1783 1.391 . S
C1783 H1771 0.950 . S
C1783 C1779 1.393 . S
C1783 C1782 1.391 . S
H1784 C1792 0.950 . S
H1785 C1797 0.950 . S
H1786 C1794 0.950 . S
H1787 C1796 0.950 . S
H1788 C1798 0.950 . S
H1789 C1800 0.950 . S
H1790 C1802 0.950 . S
H1791 C1803 0.950 . S
C1792 H1784 0.950 . S
C1792 C1793 1.386 . S
C1792 C1794 1.391 . S
C1793 C1792 1.386 . S
C1793 C1797 1.393 . S
C1794 H1786 0.950 . S
C1794 C1792 1.391 . S
C1794 C1795 1.400 . S
C1795 C1794 1.400 . S
C1795 C1796 1.398 . S
C1795 C1801 1.491 . S
C1796 H1787 0.950 . S
C1796 C1795 1.398 . S
C1796 C1797 1.391 . S
C1797 H1785 0.950 . S
C1797 C1793 1.393 . S
C1797 C1796 1.391 . S
C1798 H1788 0.950 . S
C1798 C1799 1.386 . S
C1798 C1800 1.391 . S
C1799 C1798 1.386 . S
C1799 C1803 1.393 . S
C1800 H1789 0.950 . S
C1800 C1798 1.391 . S
C1800 C1801 1.400 . S
C1801 C1795 1.491 . S
C1801 C1800 1.400 . S
C1801 C1802 1.398 . S
C1802 H1790 0.950 . S
C1802 C1801 1.398 . S
C1802 C1803 1.391 . S
C1803 H1791 0.950 . S
C1803 C1799 1.393 . S
C1803 C1802 1.391 . S
H1804 C1812 0.950 . S
H1805 C1817 0.950 . S
H1806 C1814 0.950 . S
H1807 C1816 0.950 . S
H1808 C1818 0.950 . S
H1809 C1820 0.950 . S
H1810 C1822 0.950 . S
H1811 C1823 0.950 . S
C1812 H1804 0.950 . S
C1812 C1813 1.386 . S
C1812 C1814 1.391 . S
C1813 C1812 1.386 . S
C1813 C1817 1.393 . S
C1814 H1806 0.950 . S
C1814 C1812 1.391 . S
C1814 C1815 1.400 . S
C1815 C1814 1.400 . S
C1815 C1816 1.398 . S
C1815 C1821 1.491 . S
C1816 H1807 0.950 . S
C1816 C1815 1.398 . S
C1816 C1817 1.391 . S
C1817 H1805 0.950 . S
C1817 C1813 1.393 . S
C1817 C1816 1.391 . S
C1818 H1808 0.950 . S
C1818 C1819 1.386 . S
C1818 C1820 1.391 . S
C1819 C1818 1.386 . S
C1819 C1823 1.393 . S
C1820 H1809 0.950 . S
C1820 C1818 1.391 . S
C1820 C1821 1.400 . S
C1821 C1815 1.491 . S
C1821 C1820 1.400 . S
C1821 C1822 1.398 . S
C1822 H1810 0.950 . S
C1822 C1821 1.398 . S
C1822 C1823 1.391 . S
C1823 H1811 0.950 . S
C1823 C1819 1.393 . S
C1823 C1822 1.391 . S
H1824 C1832 0.950 . S
H1825 C1837 0.950 . S
H1826 C1834 0.950 . S
H1827 C1836 0.950 . S
H1828 C1838 0.950 . S
H1829 C1840 0.950 . S
H1830 C1842 0.950 . S
H1831 C1843 0.950 . S
C1832 H1824 0.950 . S
C1832 C1833 1.386 . S
C1832 C1834 1.391 . S
C1833 C1832 1.386 . S
C1833 C1837 1.393 . S
C1834 H1826 0.950 . S
C1834 C1832 1.391 . S
C1834 C1835 1.400 . S
C1835 C1834 1.400 . S
C1835 C1836 1.398 . S
C1835 C1841 1.491 1_455 S
C1836 H1827 0.950 . S
C1836 C1835 1.398 . S
C1836 C1837 1.391 . S
C1837 H1825 0.950 . S
C1837 C1833 1.393 . S
C1837 C1836 1.391 . S
C1838 H1828 0.950 . S
C1838 C1839 1.386 . S
C1838 C1840 1.391 . S
C1839 C1838 1.386 . S
C1839 C1843 1.393 . S
C1840 H1829 0.950 . S
C1840 C1838 1.391 . S
C1840 C1841 1.400 . S
C1841 C1835 1.491 1_655 S
C1841 C1840 1.400 . S
C1841 C1842 1.398 . S
C1842 H1830 0.950 . S
C1842 C1841 1.398 . S
C1842 C1843 1.391 . S
C1843 H1831 0.950 . S
C1843 C1839 1.393 . S
C1843 C1842 1.391 . S
H1844 C1852 0.950 . S
H1845 C1857 0.950 . S
H1846 C1854 0.950 . S
H1847 C1856 0.950 . S
H1848 C1858 0.950 . S
H1849 C1860 0.950 . S
H1850 C1862 0.950 . S
H1851 C1863 0.950 . S
C1852 H1844 0.950 . S
C1852 C1853 1.386 . S
C1852 C1854 1.391 . S
C1853 C1852 1.386 . S
C1853 C1857 1.393 . S
C1854 H1846 0.950 . S
C1854 C1852 1.391 . S
C1854 C1855 1.400 . S
C1855 C1854 1.400 . S
C1855 C1856 1.398 . S
C1855 C1861 1.491 . S
C1856 H1847 0.950 . S
C1856 C1855 1.398 . S
C1856 C1857 1.391 . S
C1857 H1845 0.950 . S
C1857 C1853 1.393 . S
C1857 C1856 1.391 . S
C1858 H1848 0.950 . S
C1858 C1859 1.386 . S
C1858 C1860 1.391 . S
C1859 C1858 1.386 . S
C1859 C1863 1.393 . S
C1860 H1849 0.950 . S
C1860 C1858 1.391 . S
C1860 C1861 1.400 . S
C1861 C1855 1.491 . S
C1861 C1860 1.400 . S
C1861 C1862 1.398 . S
C1862 H1850 0.950 . S
C1862 C1861 1.398 . S
C1862 C1863 1.391 . S
C1863 H1851 0.950 . S
C1863 C1859 1.393 . S
C1863 C1862 1.391 . S
H1864 C1872 0.950 . S
H1865 C1877 0.950 . S
H1866 C1874 0.950 . S
H1867 C1876 0.950 . S
H1868 C1878 0.950 . S
H1869 C1880 0.950 . S
H1870 C1882 0.950 . S
H1871 C1883 0.950 . S
C1872 H1864 0.950 . S
C1872 C1873 1.386 . S
C1872 C1874 1.391 . S
C1873 C1872 1.386 . S
C1873 C1877 1.393 . S
C1874 H1866 0.950 . S
C1874 C1872 1.391 . S
C1874 C1875 1.400 . S
C1875 C1874 1.400 . S
C1875 C1876 1.398 . S
C1875 C1881 1.491 1_565 S
C1876 H1867 0.950 . S
C1876 C1875 1.398 . S
C1876 C1877 1.391 . S
C1877 H1865 0.950 . S
C1877 C1873 1.393 . S
C1877 C1876 1.391 . S
C1878 H1868 0.950 . S
C1878 C1879 1.386 . S
C1878 C1880 1.391 . S
C1879 C1878 1.386 . S
C1879 C1883 1.393 . S
C1880 H1869 0.950 . S
C1880 C1878 1.391 . S
C1880 C1881 1.400 . S
C1881 C1875 1.491 1_545 S
C1881 C1880 1.400 . S
C1881 C1882 1.398 . S
C1882 H1870 0.950 . S
C1882 C1881 1.398 . S
C1882 C1883 1.391 . S
C1883 H1871 0.950 . S
C1883 C1879 1.393 . S
C1883 C1882 1.391 . S
H1884 C1892 0.950 . S
H1885 C1897 0.950 . S
H1886 C1894 0.950 . S
H1887 C1896 0.950 . S
H1888 C1898 0.950 . S
H1889 C1900 0.950 . S
H1890 C1902 0.950 . S
H1891 C1903 0.950 . S
C1892 H1884 0.950 . S
C1892 C1893 1.386 . S
C1892 C1894 1.391 . S
C1893 C1892 1.386 . S
C1893 C1897 1.393 . S
C1894 H1886 0.950 . S
C1894 C1892 1.391 . S
C1894 C1895 1.400 . S
C1895 C1894 1.400 . S
C1895 C1896 1.398 . S
C1895 C1901 1.491 1_545 S
C1896 H1887 0.950 . S
C1896 C1895 1.398 . S
C1896 C1897 1.391 . S
C1897 H1885 0.950 . S
C1897 C1893 1.393 . S
C1897 C1896 1.391 . S
C1898 H1888 0.950 . S
C1898 C1899 1.386 . S
C1898 C1900 1.391 . S
C1899 C1898 1.386 . S
C1899 C1903 1.393 . S
C1900 H1889 0.950 . S
C1900 C1898 1.391 . S
C1900 C1901 1.400 . S
C1901 C1895 1.491 1_565 S
C1901 C1900 1.400 . S
C1901 C1902 1.398 . S
C1902 H1890 0.950 . S
C1902 C1901 1.398 . S
C1902 C1903 1.391 . S
C1903 H1891 0.950 . S
C1903 C1899 1.393 . S
C1903 C1902 1.391 . S
H1904 C1912 0.950 . S
H1905 C1917 0.950 . S
H1906 C1914 0.950 . S
H1907 C1916 0.950 . S
H1908 C1918 0.950 . S
H1909 C1920 0.950 . S
H1910 C1922 0.950 . S
H1911 C1923 0.950 . S
C1912 H1904 0.950 . S
C1912 C1913 1.386 . S
C1912 C1914 1.391 . S
C1913 C1912 1.386 . S
C1913 C1917 1.393 . S
C1914 H1906 0.950 . S
C1914 C1912 1.391 . S
C1914 C1915 1.400 . S
C1915 C1914 1.400 . S
C1915 C1916 1.398 . S
C1915 C1921 1.491 1_455 S
C1916 H1907 0.950 . S
C1916 C1915 1.398 . S
C1916 C1917 1.391 . S
C1917 H1905 0.950 . S
C1917 C1913 1.393 . S
C1917 C1916 1.391 . S
C1918 H1908 0.950 . S
C1918 C1919 1.386 . S
C1918 C1920 1.391 . S
C1919 C1918 1.386 . S
C1919 C1923 1.393 . S
C1920 H1909 0.950 . S
C1920 C1918 1.391 . S
C1920 C1921 1.400 . S
C1921 C1915 1.491 1_655 S
C1921 C1920 1.400 . S
C1921 C1922 1.398 . S
C1922 H1910 0.950 . S
C1922 C1921 1.398 . S
C1922 C1923 1.391 . S
C1923 H1911 0.950 . S
C1923 C1919 1.393 . S
C1923 C1922 1.391 . S
H1924 C1932 0.950 . S
H1925 C1937 0.950 . S
H1926 C1934 0.950 . S
H1927 C1936 0.950 . S
H1928 C1938 0.950 . S
H1929 C1940 0.950 . S
H1930 C1942 0.950 . S
H1931 C1943 0.950 . S
C1932 H1924 0.950 . S
C1932 C1933 1.386 . S
C1932 C1934 1.391 . S
C1933 C1932 1.386 . S
C1933 C1937 1.393 . S
C1934 H1926 0.950 . S
C1934 C1932 1.391 . S
C1934 C1935 1.400 . S
C1935 C1934 1.400 . S
C1935 C1936 1.398 . S
C1935 C1941 1.491 . S
C1936 H1927 0.950 . S
C1936 C1935 1.398 . S
C1936 C1937 1.391 . S
C1937 H1925 0.950 . S
C1937 C1933 1.393 . S
C1937 C1936 1.391 . S
C1938 H1928 0.950 . S
C1938 C1939 1.386 . S
C1938 C1940 1.391 . S
C1939 C1938 1.386 . S
C1939 C1943 1.393 . S
C1940 H1929 0.950 . S
C1940 C1938 1.391 . S
C1940 C1941 1.400 . S
C1941 C1935 1.491 . S
C1941 C1940 1.400 . S
C1941 C1942 1.398 . S
C1942 H1930 0.950 . S
C1942 C1941 1.398 . S
C1942 C1943 1.391 . S
C1943 H1931 0.950 . S
C1943 C1939 1.393 . S
C1943 C1942 1.391 . S
C513 C53 1.114 . S
C519 C11 1.108 . S
C533 C67 1.109 . S
C539 C25 1.115 . S
C553 C81 1.114 . S
C559 C39 1.110 . S
C573 C95 1.107 . S
C579 C137 1.115 . S
C593 C109 1.107 . S
C599 C151 1.116 . S
C613 C165 1.113 . S
C619 C123 1.109 . S
C633 C179 1.107 . S
C639 C221 1.104 . S
C653 C193 1.103 . S
C659 C235 1.110 . S
C673 C207 1.101 . S
C679 C249 1.110 . S
C693 C263 1.100 . S
C699 C305 1.107 . S
C713 C319 1.106 . S
C719 C277 1.104 . S
C733 C291 1.103 . S
C739 C333 1.107 . S
C753 C347 1.100 . S
C759 C389 1.109 . S
C773 C361 1.100 . S
C779 C403 1.109 . S
C793 C417 1.105 . S
C799 C375 1.105 . S
C813 C473 1.104 . S
C819 C431 1.107 . S
C833 C487 1.105 . S
C839 C445 1.105 . S
C853 C501 1.105 . S
C859 C459 1.108 . S
C873 C163 1.538 . S
C879 C5 1.540 . S
C893 C19 1.533 . S
C899 C135 1.545 . S
C913 C33 1.533 . S
C919 C149 1.544 . S
C933 C107 1.551 . S
C939 C47 1.541 . S
C953 C61 1.540 . S
C959 C121 1.550 . S
C973 C93 1.550 . S
C979 C75 1.544 . S
C993 C89 1.534 . S
C999 C79 1.544 . S
C1013 C103 1.536 . S
C1019 C51 1.544 . S
C1033 C65 1.545 . S
C1039 C117 1.533 . S
C1053 C23 1.545 . S
C1059 C131 1.547 . S
C1073 C37 1.545 . S
C1079 C145 1.549 . S
C1093 C159 1.549 . S
C1099 C9 1.546 . S
C1113 C173 1.524 . S
C1119 C331 1.518 . S
C1133 C303 1.521 . S
C1139 C187 1.521 . S
C1153 C317 1.527 . S
C1159 C201 1.514 . S
C1173 C215 1.535 . S
C1179 C275 1.545 . S
C1193 C289 1.544 . S
C1199 C229 1.538 . S
C1213 C243 1.540 . S
C1219 C261 1.540 . S
C1233 C257 1.539 . S
C1239 C247 1.536 . S
C1253 C271 1.539 . S
C1259 C219 1.539 . S
C1273 C233 1.541 . S
C1279 C285 1.533 . S
C1293 C191 1.559 . S
C1299 C299 1.556 . S
C1313 C205 1.561 . S
C1319 C313 1.553 . S
C1333 C327 1.554 . S
C1339 C177 1.558 . S
C1353 C499 1.543 . S
C1359 C341 1.533 . S
C1373 C355 1.541 . S
C1379 C471 1.536 . S
C1393 C369 1.540 . S
C1399 C485 1.536 . S
C1413 C383 1.556 . S
C1419 C443 1.557 . S
C1433 C457 1.556 . S
C1439 C397 1.557 . S
C1453 C411 1.551 . S
C1459 C429 1.561 . S
C1473 C415 1.527 . S
C1479 C425 1.514 . S
C1493 C387 1.527 . S
C1499 C439 1.514 . S
C1513 C401 1.524 . S
C1519 C453 1.520 . S
C1533 C359 1.540 . S
C1539 C467 1.543 . S
C1553 C373 1.545 . S
C1559 C481 1.536 . S
C1573 C345 1.543 . S
C1579 C495 1.537 . S
C1593 C406 1.352 . S
C1599 C0 1.339 . S
C1613 C14 1.360 . S
C1619 C378 1.335 . S
C1633 C392 1.357 . S
C1639 C28 1.336 . S
C1653 C42 1.351 . S
C1659 C182 1.350 . S
C1673 C196 1.335 . S
C1679 C56 1.361 . S
C1693 C70 1.335 . S
C1699 C168 1.360 . S
C1713 C84 1.356 . S
C1719 C322 1.344 . S
C1733 C294 1.351 . S
C1739 C98 1.348 . S
C1753 C112 1.338 . S
C1759 C308 1.360 . S
C1773 C126 1.343 . S
C1779 C434 1.348 . S
C1793 C140 1.358 . S
C1799 C448 1.336 . S
C1813 C420 1.339 . S
C1819 C154 1.353 . S
C1833 C350 1.349 . S
C1839 C210 1.343 . S
C1853 C364 1.337 . S
C1859 C224 1.358 . S
C1873 C336 1.343 . S
C1879 C238 1.349 . S
C1893 C252 1.361 . S
C1899 C490 1.336 . S
C1913 C462 1.361 . S
C1919 C266 1.339 . S
C1933 C280 1.340 . S
C1939 C476 1.352 . S
