# Generated by pormake.
# Topology wgu, (5)-cn, num edge types: 1
# Building blocks:
#     Node 0, Type 0, BuildingBlock: XOMCOT_clean_sbu_0, # of connection points: 5
#     Node 1, Type 0, BuildingBlock: XOMCOT_clean_sbu_0, # of connection points: 5
#     Node 2, Type 0, BuildingBlock: XOMCOT_clean_sbu_0, # of connection points: 5
#     Node 3, Type 0, BuildingBlock: XOMCOT_clean_sbu_0, # of connection points: 5
#     Node 4, Type 0, BuildingBlock: XOMCOT_clean_sbu_0, # of connection points: 5
#     Node 5, Type 0, BuildingBlock: XOMCOT_clean_sbu_0, # of connection points: 5
#     Node 6, Type 0, BuildingBlock: XOMCOT_clean_sbu_0, # of connection points: 5
#     Node 7, Type 0, BuildingBlock: XOMCOT_clean_sbu_0, # of connection points: 5
#     Edge 8, Type (0, 0), BuildingBlock: CIFDUS_clean_linker_0, # of connection points: 2
#     Edge 9, Type (0, 0), BuildingBlock: CIFDUS_clean_linker_0, # of connection points: 2
#     Edge 10, Type (0, 0), BuildingBlock: CIFDUS_clean_linker_0, # of connection points: 2
#     Edge 11, Type (0, 0), BuildingBlock: CIFDUS_clean_linker_0, # of connection points: 2
#     Edge 12, Type (0, 0), BuildingBlock: CIFDUS_clean_linker_0, # of connection points: 2
#     Edge 13, Type (0, 0), BuildingBlock: CIFDUS_clean_linker_0, # of connection points: 2
#     Edge 14, Type (0, 0), BuildingBlock: CIFDUS_clean_linker_0, # of connection points: 2
#     Edge 15, Type (0, 0), BuildingBlock: CIFDUS_clean_linker_0, # of connection points: 2
#     Edge 16, Type (0, 0), BuildingBlock: CIFDUS_clean_linker_0, # of connection points: 2
#     Edge 17, Type (0, 0), BuildingBlock: CIFDUS_clean_linker_0, # of connection points: 2
#     Edge 18, Type (0, 0), BuildingBlock: CIFDUS_clean_linker_0, # of connection points: 2
#     Edge 19, Type (0, 0), BuildingBlock: CIFDUS_clean_linker_0, # of connection points: 2
#     Edge 20, Type (0, 0), BuildingBlock: CIFDUS_clean_linker_0, # of connection points: 2
#     Edge 21, Type (0, 0), BuildingBlock: CIFDUS_clean_linker_0, # of connection points: 2
#     Edge 22, Type (0, 0), BuildingBlock: CIFDUS_clean_linker_0, # of connection points: 2
#     Edge 23, Type (0, 0), BuildingBlock: CIFDUS_clean_linker_0, # of connection points: 2
#     Edge 24, Type (0, 0), BuildingBlock: CIFDUS_clean_linker_0, # of connection points: 2
#     Edge 25, Type (0, 0), BuildingBlock: CIFDUS_clean_linker_0, # of connection points: 2
#     Edge 26, Type (0, 0), BuildingBlock: CIFDUS_clean_linker_0, # of connection points: 2
#     Edge 27, Type (0, 0), BuildingBlock: CIFDUS_clean_linker_0, # of connection points: 2
# Relax obj value: 0.170
# Max RMSD: 0.153
# Mean RMSD: 0.153
data_MOF--net-wgu--node1-XOMCOT_clean_sbu_0--edge1-CIFDUS_clean_linker_0
_symmetry_space_group_name_H-M    P1
_symmetry_Int_Tables_number       1
_symmetry_cell_setting            triclinic
loop_
_symmetry_equiv_pos_as_xyz
'x, y, z'
_cell_length_a     29.002107
_cell_length_b     29.054842
_cell_length_c     26.05097
_cell_angle_alpha  90.107608
_cell_angle_beta   89.664091
_cell_angle_gamma 89.9446
loop_
_atom_site_label
_atom_site_type_symbol
_atom_site_fract_x
_atom_site_fract_y
_atom_site_fract_z
_atom_type_partial_charge
Co0 Co 0.32414 0.3746 0.08733 0.0
C1 C 0.34724 0.28327 0.04982 0.0
C2 C 0.39796 0.30638 0.10346 0.0
C3 C 0.40561 0.26038 0.09336 0.0
N4 N 0.36191 0.32089 0.07516 0.0
N5 N 0.37322 0.24606 0.06016 0.0
H6 H 0.31567 0.28218 0.02788 0.0
H7 H 0.41517 0.32687 0.13228 0.0
C8 C 0.41956 0.41489 0.06081 0.0
O9 O 0.43472 0.37565 0.0423 0.0
N10 N 0.28511 0.42775 0.10046 0.0
C11 C 0.25022 0.43179 0.13475 0.0
C12 C 0.23077 0.47461 0.13009 0.0
C13 C 0.28623 0.46839 0.07541 0.0
N14 N 0.25325 0.49759 0.0927 0.0
C15 C 0.26019 0.37193 1.00578 0.0
C16 C 0.32257 0.36129 0.92618 0.0
C17 C 0.2756 0.35363 0.91665 0.0
C18 C 0.24413 0.36086 0.95689 0.0
C19 C 0.33718 0.37252 0.97576 0.0
N20 N 0.30627 0.37592 1.0153 0.0
H21 H 0.23558 0.37437 0.03697 0.0
H22 H 0.37345 0.37532 0.9824 0.0
H23 H 0.23882 0.40573 0.16136 0.0
H24 H 0.30999 0.47593 0.04437 0.0
O25 O 0.27649 0.33344 0.11087 0.0
O26 O 0.32982 0.36431 0.16083 0.0
O27 O 0.37794 0.41896 0.07726 0.0
C28 C 0.29455 0.33674 0.15621 0.0
H29 H 0.43024 0.23829 0.11238 0.0
H30 H 0.20245 0.48789 0.15297 0.0
H31 H 0.34807 0.3569 0.89603 0.0
H32 H 0.20757 0.35512 0.95163 0.0
Co33 Co 0.64226 0.31711 0.60467 0.0
C34 C 0.73727 0.33523 0.57486 0.0
C35 C 0.70626 0.39739 0.60318 0.0
C36 C 0.75157 0.4064 0.59006 0.0
N37 N 0.6975 0.35273 0.5933 0.0
N38 N 0.77094 0.36711 0.57247 0.0
H39 H 0.74117 0.29971 0.56306 0.0
H40 H 0.68208 0.42171 0.61937 0.0
C41 C 0.58867 0.40328 0.61227 0.0
O42 O 0.60226 0.40446 0.66021 0.0
N43 N 0.58722 0.28039 0.61549 0.0
C44 C 0.58207 0.24324 0.64615 0.0
C45 C 0.53893 0.22507 0.63902 0.0
C46 C 0.547 0.28403 0.58999 0.0
N47 N 0.517 0.25066 0.6037 0.0
C48 C 0.65206 0.2486 0.52736 0.0
C49 C 0.66221 0.30807 0.44531 0.0
C50 C 0.67042 0.26085 0.4375 0.0
C51 C 0.66409 0.23096 0.47923 0.0
C52 C 0.65032 0.32436 0.49426 0.0
N53 N 0.64643 0.29473 0.53465 0.0
H54 H 0.64938 0.22534 0.55957 0.0
H55 H 0.64666 0.361 0.50024 0.0
H56 H 0.6079 0.22905 0.67124 0.0
H57 H 0.54043 0.30941 0.56059 0.0
O58 O 0.67976 0.27058 0.63759 0.0
O59 O 0.64629 0.32873 0.67791 0.0
O60 O 0.60206 0.37058 0.5828 0.0
C61 C 0.67215 0.29224 0.68048 0.0
H62 H 0.7691 0.43904 0.59428 0.0
H63 H 0.52483 0.19518 0.65823 0.0
H64 H 0.66595 0.33245 0.41418 0.0
H65 H 0.67049 0.19438 0.47552 0.0
Co66 Co 0.71706 0.64311 0.0778 0.0
C67 C 0.69721 0.73508 0.03934 0.0
C68 C 0.63599 0.70571 0.0721 0.0
C69 C 0.62685 0.75053 0.05806 0.0
N70 N 0.68018 0.69618 0.06024 0.0
N71 N 0.66552 0.76917 0.0376 0.0
H72 H 0.73277 0.73839 0.02729 0.0
H73 H 0.61253 0.68286 0.09173 0.0
C74 C 0.63189 0.58824 0.08805 0.0
O75 O 0.62954 0.60534 0.13462 0.0
N76 N 0.75549 0.5904 0.09499 0.0
C77 C 0.78866 0.58872 0.13115 0.0
C78 C 0.80883 0.54615 0.1304 0.0
C79 C 0.75665 0.54849 0.07214 0.0
N80 N 0.78879 0.52074 0.0935 0.0
C81 C 0.78708 0.64849 0.99996 0.0
C82 C 0.72741 0.64786 0.91745 0.0
C83 C 0.77448 0.6559 0.90818 0.0
C84 C 0.80457 0.65528 0.9503 0.0
C85 C 0.7114 0.64116 0.96757 0.0
N86 N 0.74101 0.64228 1.00807 0.0
H87 H 0.81029 0.64969 0.03227 0.0
H88 H 0.67474 0.63759 0.97402 0.0
H89 H 0.79887 0.61644 0.15618 0.0
H90 H 0.73455 0.53855 0.04068 0.0
O91 O 0.76105 0.68501 0.10993 0.0
O92 O 0.70232 0.6522 0.1496 0.0
O93 O 0.66531 0.59954 0.05829 0.0
C94 C 0.73727 0.67986 0.15212 0.0
H95 H 0.59475 0.76848 0.06511 0.0
H96 H 0.83707 0.53512 0.15444 0.0
H97 H 0.70263 0.64885 0.88654 0.0
H98 H 0.84122 0.66073 0.94511 0.0
Co99 Co 0.37907 0.71292 0.59417 0.0
C100 C 0.28784 0.69082 0.55492 0.0
C101 C 0.30891 0.6408 0.61042 0.0
C102 C 0.26332 0.63298 0.59847 0.0
N103 N 0.32452 0.67642 0.58206 0.0
N104 N 0.25021 0.66488 0.56403 0.0
H105 H 0.28779 0.72169 0.53174 0.0
H106 H 0.32844 0.62363 0.64002 0.0
C107 C 0.4183 0.61637 0.57121 0.0
O108 O 0.37934 0.60134 0.55212 0.0
N109 N 0.43334 0.75041 0.60707 0.0
C110 C 0.44419 0.77382 0.6502 0.0
C111 C 0.48617 0.79492 0.64328 0.0
C112 C 0.4693 0.75737 0.57477 0.0
N113 N 0.50178 0.7847 0.59581 0.0
C114 C 0.37589 0.77527 0.511 0.0
C115 C 0.36831 0.71113 0.4332 0.0
C116 C 0.35861 0.75745 0.4225 0.0
C117 C 0.36448 0.78992 0.46172 0.0
C118 C 0.37983 0.69794 0.48312 0.0
N119 N 0.38146 0.72964 0.5218 0.0
H120 H 0.37741 0.8005 0.54147 0.0
H121 H 0.38421 0.66203 0.49075 0.0
H122 H 0.42355 0.77567 0.68476 0.0
H123 H 0.47199 0.74224 0.53687 0.0
O124 O 0.33883 0.76198 0.61668 0.0
O125 O 0.36729 0.70801 0.66746 0.0
O126 O 0.42259 0.6583 0.58594 0.0
C127 C 0.34077 0.74401 0.66219 0.0
H128 H 0.24066 0.60818 0.61657 0.0
H129 H 0.50361 0.8166 0.67085 0.0
H130 H 0.36509 0.68497 0.40377 0.0
H131 H 0.3573 0.82605 0.45544 0.0
Co132 Co 0.8177 0.14896 0.99605 0.0
C133 C 0.83916 0.24568 0.97007 0.0
C134 C 0.89671 0.21202 1.00497 0.0
C135 C 0.90469 0.25871 1.00468 0.0
N136 N 0.85505 0.20371 0.98409 0.0
N137 N 0.86818 0.2798 0.98328 0.0
H138 H 0.80427 0.25223 0.95767 0.0
H139 H 0.91746 0.18703 0.02503 0.0
C140 C 0.88926 0.07457 0.0276 0.0
O141 O 0.85908 0.0469 0.04904 0.0
N142 N 0.77892 0.09585 1.00843 0.0
C143 C 0.73964 0.09716 0.0363 0.0
C144 C 0.71911 0.05469 0.03478 0.0
C145 C 0.78089 0.05282 0.98864 0.0
N146 N 0.74514 0.02669 1.00518 0.0
C147 C 0.78696 0.21029 0.07433 0.0
C148 C 0.80867 0.15726 0.15862 0.0
C149 C 0.78658 0.1997 0.16614 0.0
C150 C 0.77631 0.22655 0.12331 0.0
C151 C 0.82004 0.14279 0.10869 0.0
N152 N 0.80886 0.16909 0.06712 0.0
H153 H 0.77624 0.2306 0.04199 0.0
H154 H 0.83626 0.10991 0.10384 0.0
H155 H 0.72667 0.12709 0.05645 0.0
H156 H 0.80813 0.04073 0.96342 0.0
O157 O 0.76476 0.17888 0.96592 0.0
O158 O 0.8162 0.13724 0.92304 0.0
O159 O 0.87712 0.11396 1.01021 0.0
C160 C 0.77954 0.16307 0.92203 0.0
H161 H 0.9325 0.27614 0.02429 0.0
H162 H 0.68817 0.04472 0.05536 0.0
H163 H 0.81689 0.13546 0.19099 0.0
H164 H 0.75856 0.25919 0.12751 0.0
Co165 Co 0.8819 0.82098 0.47467 0.0
C166 C 0.79068 0.83847 0.51865 0.0
C167 C 0.80721 0.89047 0.46336 0.0
C168 C 0.76174 0.89595 0.4784 0.0
N169 N 0.82538 0.85444 0.48896 0.0
N170 N 0.75189 0.86334 0.51341 0.0
H171 H 0.79245 0.80707 0.54081 0.0
H172 H 0.82437 0.90944 0.43325 0.0
C173 C 0.92926 0.911 0.47001 0.0
O174 O 0.91068 0.91547 0.42451 0.0
N175 N 0.93782 0.78623 0.46084 0.0
C176 C 0.94349 0.75057 0.428 0.0
C177 C 0.98668 0.73222 0.43454 0.0
C178 C 0.97785 0.78889 0.48692 0.0
N179 N 1.00814 0.75622 0.47161 0.0
C180 C 0.87781 0.75098 0.55196 0.0
C181 C 0.87505 0.80997 0.63544 0.0
C182 C 0.86991 0.76251 0.64403 0.0
C183 C 0.87214 0.73286 0.60138 0.0
C184 C 0.88087 0.82663 0.58551 0.0
N185 N 0.88138 0.79729 0.54449 0.0
H186 H 0.87825 0.72791 0.51936 0.0
H187 H 0.88248 0.8634 0.57971 0.0
H188 H 0.91787 0.73731 0.40201 0.0
H189 H 0.98389 0.81275 0.51811 0.0
O190 O 0.84465 0.77443 0.44068 0.0
O191 O 0.87613 0.83456 0.40226 0.0
O192 O 0.92099 0.87506 0.49674 0.0
C193 C 0.85076 0.79792 0.39862 0.0
H194 H 0.73739 0.92073 0.46345 0.0
H195 H 1.00103 0.70306 0.414 0.0
H196 H 0.87273 0.8344 0.66679 0.0
H197 H 0.86908 0.69596 0.60599 0.0
Co198 Co 0.20722 0.87768 0.99477 0.0
C199 C 0.19371 0.78248 0.02782 0.0
C200 C 0.13018 0.81195 1.0015 0.0
C201 C 0.12276 0.76621 1.01298 0.0
N202 N 0.17464 0.82186 1.01101 0.0
N203 N 0.1629 0.74777 0.02912 0.0
H204 H 0.22972 0.77925 0.03784 0.0
H205 H 0.10544 0.8357 0.98545 0.0
C206 C 0.13011 0.94359 0.98449 0.0
O207 O 0.14791 0.95414 0.93955 0.0
N208 N 0.2403 0.93391 0.97805 0.0
C209 C 0.27086 0.94066 0.9394 0.0
C210 C 0.28994 0.98359 0.94438 0.0
C211 C 0.241 0.97329 1.00568 0.0
N212 N 0.27128 1.00392 0.98603 0.0
C213 C 0.2752 0.884 0.07228 0.0
C214 C 0.21701 0.86783 0.15479 0.0
C215 C 0.26484 0.86881 0.16271 0.0
C216 C 0.29391 0.87838 0.12101 0.0
C217 C 0.19955 0.87466 0.10539 0.0
N218 N 0.22877 0.88135 0.06482 0.0
H219 H 0.29822 0.8885 0.03989 0.0
H220 H 0.16282 0.87194 0.09923 0.0
H221 H 0.27998 0.91614 0.9099 0.0
H222 H 0.22116 0.97869 0.04051 0.0
O223 O 0.25679 0.84105 0.96758 0.0
O224 O 0.19706 0.86519 0.92214 0.0
O225 O 0.15022 0.91407 1.01283 0.0
C226 C 0.23499 0.84095 0.92424 0.0
H227 H 0.09086 0.74756 1.00765 0.0
H228 H 0.31578 0.99868 0.91943 0.0
H229 H 0.19349 0.86061 0.1862 0.0
H230 H 0.33103 0.87889 0.12544 0.0
Co231 Co 0.14318 0.21703 0.48575 0.0
C232 C 0.23472 0.19403 0.52386 0.0
C233 C 0.21125 0.14287 0.47072 0.0
C234 C 0.25675 0.13398 0.48207 0.0
N235 N 0.19722 0.1799 0.49799 0.0
N236 N 0.27137 0.16655 0.51505 0.0
H237 H 0.2359 0.22553 0.54606 0.0
H238 H 0.19068 0.12531 0.44226 0.0
C239 C 0.10259 0.12164 0.51177 0.0
O240 O 0.14099 0.10658 0.53214 0.0
N241 N 0.08926 0.25469 0.47251 0.0
C242 C 0.08397 0.28945 0.4387 0.0
C243 C 0.04049 0.30777 0.44472 0.0
C244 C 0.04891 0.25237 0.49836 0.0
N245 N 0.01856 0.28445 0.48229 0.0
C246 C 0.13957 0.28139 0.56741 0.0
C247 C 0.15514 0.22112 0.6473 0.0
C248 C 0.15593 0.26861 0.65705 0.0
C249 C 0.14661 0.29877 0.61665 0.0
C250 C 0.1469 0.20505 0.59744 0.0
N251 N 0.1405 0.23514 0.55788 0.0
H252 H 0.13575 0.30546 0.53616 0.0
H253 H 0.14893 0.16874 0.59053 0.0
H254 H 0.10973 0.3015 0.41185 0.0
H255 H 0.04256 0.2286 0.52954 0.0
O256 O 0.18385 0.26528 0.46285 0.0
O257 O 0.15465 0.2112 0.41249 0.0
O258 O 0.09938 0.16293 0.4949 0.0
C259 C 0.18169 0.24681 0.41747 0.0
H260 H 0.27829 0.10778 0.46458 0.0
H261 H 0.02614 0.33598 0.42293 0.0
H262 H 0.16222 0.1967 0.67762 0.0
H263 H 0.14749 0.33571 0.62236 0.0
H264 H 0.35567 0.04097 0.98921 0.0
H265 H 0.21319 0.06656 0.02724 0.0
H266 H 0.23247 0.14503 0.05453 0.0
H267 H 0.28972 0.20699 0.064 0.0
H268 H 0.43257 0.18051 0.02895 0.0
H269 H 0.41363 0.10129 1.00383 0.0
C270 C 0.32896 0.06386 1.00346 0.0
C271 C 0.28304 0.04853 1.00575 0.0
C272 C 0.34043 0.10851 1.01925 0.0
C273 C 0.24873 0.07785 0.02534 0.0
C274 C 0.25973 0.12263 0.0406 0.0
C275 C 0.31652 0.1838 0.05056 0.0
C276 C 0.36231 0.19934 0.04726 0.0
C277 C 0.30536 0.13846 0.03705 0.0
C278 C 0.39714 0.16896 0.03135 0.0
C279 C 0.38627 0.12392 1.017 0.0
H280 H 0.97249 0.36517 0.48327 0.0
H281 H 0.96131 0.22216 0.52592 0.0
H282 H 0.88371 0.2357 0.55932 0.0
H283 H 0.81895 0.28778 0.57555 0.0
H284 H 0.82868 0.43034 0.53079 0.0
H285 H 0.90721 0.41743 0.49933 0.0
C286 C 0.95293 0.33687 0.49942 0.0
C287 C 0.97273 0.29268 0.50196 0.0
C288 C 0.9082 0.34486 0.51833 0.0
C289 C 0.94718 0.2566 0.52398 0.0
C290 C 0.90269 0.26426 0.54285 0.0
C291 C 0.83797 0.31598 0.55843 0.0
C292 C 0.81773 0.35992 0.55522 0.0
C293 C 0.88284 0.3082 0.54006 0.0
C294 C 0.84348 0.39629 0.53412 0.0
C295 C 0.8883 0.38884 0.51583 0.0
H296 H 0.66432 0.98229 0.99844 0.0
H297 H 0.81132 0.96108 1.00108 0.0
H298 H 0.79967 0.87785 1.00779 0.0
H299 H 0.74769 0.81281 0.0225 0.0
H300 H 0.60018 0.8342 1.01879 0.0
H301 H 0.61221 0.91585 1.00376 0.0
C302 C 0.69376 0.95932 0.99994 0.0
C303 C 0.73859 0.97778 0.9998 0.0
C304 C 0.68673 0.91171 1.00455 0.0
C305 C 0.77651 0.94769 1.00082 0.0
C306 C 0.7698 0.90016 1.00518 0.0
C307 C 0.71792 0.83477 1.01763 0.0
C308 C 0.67291 0.81676 0.02305 0.0
C309 C 0.72502 0.88193 1.0085 0.0
C310 C 0.63521 0.8467 1.01637 0.0
C311 C 0.64202 0.89359 1.00736 0.0
H312 H 0.04697 0.67323 0.48445 0.0
H313 H 0.07014 0.81856 0.50492 0.0
H314 H 0.14835 0.80303 0.53557 0.0
H315 H 0.21045 0.7479 0.55465 0.0
H316 H 0.18632 0.6025 0.53678 0.0
H317 H 0.10787 0.61801 0.50677 0.0
C318 C 0.06929 0.70144 0.49539 0.0
C319 C 0.05318 0.74699 0.49196 0.0
C320 C 0.11386 0.69216 0.51323 0.0
C321 C 0.0819 0.78326 0.50742 0.0
C322 C 0.12658 0.77438 0.52465 0.0
C323 C 0.18805 0.71973 0.54372 0.0
C324 C 0.20408 0.67414 0.54709 0.0
C325 C 0.14301 0.72898 0.52729 0.0
C326 C 0.1745 0.63778 0.53429 0.0
C327 C 0.12984 0.64668 0.51711 0.0
H328 H 0.78805 0.48068 0.99933 0.0
H329 H 0.81733 0.45554 0.15901 0.0
H330 H 0.84686 0.37935 0.13816 0.0
H331 H 0.86606 0.32028 0.07488 0.0
H332 H 0.83421 0.34128 0.91566 0.0
H333 H 0.80406 0.41864 0.93549 0.0
C334 C 0.80038 0.45821 0.02945 0.0
C335 C 0.80111 0.47405 0.08057 0.0
C336 C 0.81747 0.41405 1.01712 0.0
C337 C 0.81728 0.44457 0.11928 0.0
C338 C 0.83413 0.40095 0.10744 0.0
C339 C 0.85326 0.34226 0.04451 0.0
C340 C 0.85354 0.32613 0.99376 0.0
C341 C 0.8351 0.38566 0.05651 0.0
C342 C 0.83511 0.3538 0.95482 0.0
C343 C 0.81768 0.3977 0.96627 0.0
H344 H 0.5821 0.79906 0.64373 0.0
H345 H 0.51663 0.80539 0.49588 0.0
H346 H 0.5883 0.83382 0.4571 0.0
H347 H 0.67045 0.85581 0.46544 0.0
H348 H 0.73628 0.84486 0.61256 0.0
H349 H 0.66356 0.82012 0.65197 0.0
C350 C 0.58349 0.80701 0.60311 0.0
C351 C 0.54418 0.80033 0.57272 0.0
C352 C 0.6248 0.82283 0.58118 0.0
C353 C 0.54662 0.8099 0.51992 0.0
C354 C 0.58746 0.82643 0.49785 0.0
C355 C 0.66838 0.84863 0.50621 0.0
C356 C 0.70814 0.85262 0.53644 0.0
C357 C 0.62681 0.83302 0.52812 0.0
C358 C 0.70578 0.84218 0.58895 0.0
C359 C 0.66438 0.82794 0.61131 0.0
H360 H 0.17134 0.54111 0.0965 0.0
H361 H 0.31326 0.55799 0.04974 0.0
H362 H 0.29735 0.63738 0.02439 0.0
H363 H 0.24356 0.70241 1.01795 0.0
H364 H 0.10237 0.68599 0.0677 0.0
H365 H 0.11762 0.60575 0.08967 0.0
C366 C 0.19894 0.56221 0.08121 0.0
C367 C 0.24354 0.54368 0.07547 0.0
C368 C 0.18968 0.60786 0.06738 0.0
C369 C 0.27858 0.57123 0.05425 0.0
C370 C 0.26956 0.61672 0.04008 0.0
C371 C 0.21624 0.68149 0.03414 0.0
C372 C 0.17194 0.70035 0.0416 0.0
C373 C 0.22534 0.6355 0.04697 0.0
C374 C 0.13665 0.67229 0.06132 0.0
C375 C 0.1454 0.62647 0.07408 0.0
H376 H 0.31334 0.24844 0.52475 0.0
H377 H 0.33413 0.10228 0.54033 0.0
H378 H 0.41347 0.11547 0.56855 0.0
H379 H 0.4761 0.16881 0.58994 0.0
H380 H 0.45578 0.31498 0.57307 0.0
H381 H 0.37685 0.30173 0.54369 0.0
C382 C 0.33516 0.21958 0.53484 0.0
C383 C 0.31796 0.17446 0.53123 0.0
C384 C 0.38065 0.22749 0.55046 0.0
C385 C 0.34685 0.13723 0.54294 0.0
C386 C 0.39202 0.14479 0.55912 0.0
C387 C 0.45425 0.19773 0.58012 0.0
C388 C 0.47145 0.24281 0.58411 0.0
C389 C 0.40916 0.18979 0.56324 0.0
C390 C 0.44327 0.27999 0.57006 0.0
C391 C 0.39814 0.27242 0.55358 0.0
H392 H 0.54399 0.58406 0.12299 0.0
H393 H 0.6379 0.51934 1.01607 0.0
H394 H 0.57959 0.46085 0.99638 0.0
H395 H 0.5036 0.42544 1.01409 0.0
H396 H 0.40928 0.49259 0.11904 0.0
H397 H 0.46597 0.55298 0.13463 0.0
C398 C 0.55164 0.55731 0.0951 0.0
C399 C 0.59543 0.55572 0.07144 0.0
C400 C 0.5179 0.52416 0.08378 0.0
C401 C 0.6045 0.52132 0.03479 0.0
C402 C 0.57122 0.48777 0.02375 0.0
C403 C 0.49529 0.45346 0.04011 0.0
C404 C 0.45229 0.45405 0.06583 0.0
C405 C 0.52806 0.48841 0.04868 0.0
C406 C 0.442 0.49104 0.09883 0.0
C407 C 0.47451 0.52558 0.10792 0.0
H408 H 0.58235 0.49099 0.64688 0.0
H409 H 0.5243 0.39758 0.53594 0.0
H410 H 0.46728 0.45592 0.51184 0.0
H411 H 0.43109 0.53207 0.52628 0.0
H412 H 0.49207 0.62618 0.63483 0.0
H413 H 0.55093 0.56919 0.65549 0.0
C414 C 0.55739 0.4835 0.61716 0.0
C415 C 0.55724 0.43985 0.5936 0.0
C416 C 0.52515 0.51735 0.60316 0.0
C417 C 0.52517 0.4309 0.55462 0.0
C418 C 0.49244 0.46421 0.54102 0.0
C419 C 0.45747 0.54025 0.55418 0.0
C420 C 0.45676 0.5833 0.57932 0.0
C421 C 0.49165 0.50734 0.56561 0.0
C422 C 0.49163 0.59344 0.61488 0.0
C423 C 0.52526 0.56074 0.6269 0.0
H424 H 0.09048 0.02315 0.95088 0.0
H425 H 0.06952 0.91055 0.0561 0.0
H426 H 0.99406 0.94164 0.0802 0.0
H427 H 0.93227 0.99915 0.06863 0.0
H428 H 0.95497 0.11341 0.96584 0.0
H429 H 0.03124 0.08362 0.94413 0.0
C430 C 0.06946 1.00549 0.97921 0.0
C431 C 0.08557 0.96433 1.00127 0.0
C432 C 0.02624 0.02391 0.99344 0.0
C433 C 0.05807 0.94227 0.03846 0.0
C434 C 0.01479 0.95999 0.0522 0.0
C435 C 0.95401 0.01777 0.04179 0.0
C436 C 0.93748 0.0584 1.01877 0.0
C437 C 0.99826 1.00056 0.02957 0.0
C438 C 0.96651 0.08212 0.98432 0.0
C439 C 1.01022 0.06498 0.97163 0.0
H440 H 0.93442 1.00007 0.43941 0.0
H441 H 0.99749 0.90222 0.54168 0.0
H442 H 0.05569 0.95934 0.5654 0.0
H443 H 0.09128 0.03579 0.55308 0.0
H444 H 0.02605 0.13407 0.45267 0.0
H445 H 0.966 0.07825 0.43268 0.0
C446 C 0.96073 0.9913 0.46715 0.0
C447 C 0.96184 0.94676 0.48836 0.0
C448 C 0.99383 0.02441 0.48086 0.0
C449 C 0.9958 0.93621 0.52478 0.0
C450 C 0.02922 0.96884 0.53819 0.0
C451 C 0.06376 0.04516 0.5271 0.0
C452 C 0.06365 0.08905 0.50402 0.0
C453 C 0.02899 1.01285 0.51589 0.0
C454 C 0.02729 0.10062 0.47092 0.0
C455 C 0.99291 0.06861 0.45929 0.0
H456 H 0.30601 0.35445 0.2581 0.0
H457 H 0.23489 0.26496 0.15268 0.0
H458 H 0.19465 0.22804 0.22403 0.0
H459 H 0.17708 0.22319 0.31632 0.0
H460 H 0.2465 0.31426 0.42157 0.0
H461 H 0.28976 0.34835 0.35069 0.0
C462 C 0.28206 0.32656 0.25089 0.0
C463 C 0.27339 0.31255 0.20026 0.0
C464 C 0.25838 0.30592 0.29211 0.0
C465 C 0.24199 0.27658 0.19137 0.0
C466 C 0.21891 0.25542 0.23214 0.0
C467 C 0.20179 0.25037 0.3237 0.0
C468 C 0.20833 0.26628 0.37408 0.0
C469 C 0.22637 0.27018 0.28264 0.0
C470 C 0.24052 0.30154 0.38306 0.0
C471 C 0.2654 0.32105 0.34256 0.0
H472 H 0.72249 0.2358 0.90732 0.0
H473 H 0.79309 0.12646 0.82662 0.0
H474 H 0.76616 0.15696 0.74463 0.0
H475 H 0.72453 0.21601 0.69583 0.0
H476 H 0.65604 0.32675 0.77648 0.0
H477 H 0.68061 0.29464 0.85855 0.0
C478 C 0.73149 0.21829 0.87183 0.0
C479 C 0.75948 0.17873 0.87304 0.0
C480 C 0.71679 0.23663 0.82482 0.0
C481 C 0.77143 0.15686 0.8267 0.0
C482 C 0.75621 0.1744 0.77981 0.0
C483 C 0.71506 0.2332 0.73135 0.0
C484 C 0.68861 0.2738 0.73002 0.0
C485 C 0.72932 0.21455 0.77839 0.0
C486 C 0.67655 0.29557 0.7764 0.0
C487 C 0.69044 0.27714 0.82337 0.0
H488 H 0.78361 0.73453 0.381 0.0
H489 H 0.87757 0.82641 0.30349 0.0
H490 H 0.85063 0.79879 0.22028 0.0
H491 H 0.80159 0.7468 0.16915 0.0
H492 H 0.70552 0.65732 0.24713 0.0
H493 H 0.73178 0.68577 0.33003 0.0
C494 C 0.79808 0.74855 0.34587 0.0
C495 C 0.8327 0.78226 0.34847 0.0
C496 C 0.78201 0.73291 0.29805 0.0
C497 C 0.85082 0.80043 0.3026 0.0
C498 C 0.83551 0.78459 0.25493 0.0
C499 C 0.7863 0.73374 0.20431 0.0
C500 C 0.75179 0.69986 0.20186 0.0
C501 C 0.8013 0.7506 0.25213 0.0
C502 C 0.73209 0.68348 0.2478 0.0
C503 C 0.74718 0.69962 0.29535 0.0
H504 H 0.21962 0.85572 0.82215 0.0
H505 H 0.29476 0.76968 0.92745 0.0
H506 H 0.33283 0.7307 0.85595 0.0
H507 H 0.34773 0.72322 0.76356 0.0
H508 H 0.27504 0.81085 0.65777 0.0
H509 H 0.23328 0.84681 0.72896 0.0
C510 C 0.24394 0.8281 0.82924 0.0
C511 C 0.25446 0.8157 0.8799 0.0
C512 C 0.26651 0.80628 0.78782 0.0
C513 C 0.28634 0.78011 0.88871 0.0
C514 C 0.30816 0.75774 0.84786 0.0
C515 C 0.32258 0.75001 0.75611 0.0
C516 C 0.3147 0.76445 0.70554 0.0
C517 C 0.29903 0.77094 0.79727 0.0
C518 C 0.28203 0.79929 0.69646 0.0
C519 C 0.25802 0.81986 0.73714 0.0
H520 H 0.83943 0.71948 0.88016 0.0
H521 H 0.74695 0.61817 0.81676 0.0
H522 H 0.76902 0.64128 0.73005 0.0
H523 H 0.81168 0.69272 0.67205 0.0
H524 H 0.9063 0.79211 0.73534 0.0
H525 H 0.88633 0.76709 0.822 0.0
C526 C 0.82469 0.70179 0.84747 0.0
C527 C 0.79127 0.66725 0.85533 0.0
C528 C 0.83765 0.71515 0.79749 0.0
C529 C 0.77213 0.64537 0.81215 0.0
C530 C 0.7849 0.65843 0.76241 0.0
C531 C 0.82864 0.70842 0.70465 0.0
C532 C 0.86031 0.74457 0.69681 0.0
C533 C 0.8172 0.69367 0.75459 0.0
C534 C 0.88122 0.76483 0.73994 0.0
C535 C 0.87 0.75035 0.78965 0.0
H536 H 0.37791 0.83402 0.36552 0.0
H537 H 0.29233 0.71257 0.36803 0.0
H538 H 0.25454 0.73727 0.28936 0.0
H539 H 0.2452 0.79362 0.21996 0.0
H540 H 0.33088 0.91473 0.21661 0.0
H541 H 0.36856 0.89046 0.29599 0.0
C542 C 0.35094 0.81301 0.34889 0.0
C543 C 0.33825 0.77135 0.37257 0.0
C544 C 0.32896 0.82764 0.3038 0.0
C545 C 0.30349 0.74433 0.35016 0.0
C546 C 0.28145 0.75867 0.30543 0.0
C547 C 0.27166 0.81497 0.2371 0.0
C548 C 0.28497 0.8561 0.2129 0.0
C549 C 0.29372 0.80036 0.28208 0.0
C550 C 0.32003 0.88298 0.23474 0.0
C551 C 0.34163 0.86906 0.27997 0.0
H552 H 0.23142 0.24494 0.71196 0.0
H553 H 0.11336 0.33517 0.7143 0.0
H554 H 0.14034 0.37032 0.79415 0.0
H555 H 0.1984 0.37635 0.8624 0.0
H556 H 0.31686 0.28632 0.85926 0.0
H557 H 0.28932 0.25084 0.78027 0.0
C558 C 0.21131 0.27183 0.73044 0.0
C559 C 0.17025 0.28715 0.70764 0.0
C560 C 0.2275 0.29245 0.77574 0.0
C561 C 0.14503 0.32276 0.73127 0.0
C562 C 0.1605 0.34291 0.7768 0.0
C563 C 0.21812 0.34888 0.84452 0.0
C564 C 0.25981 0.3343 0.86673 0.0
C565 C 0.20188 0.32826 0.7992 0.0
C566 C 0.28514 0.29893 0.84263 0.0
C567 C 0.26917 0.27822 0.79768 0.0
H568 H 0.72998 0.15613 0.23355 0.0
H569 H 0.80947 0.28 0.21305 0.0
H570 H 0.78071 0.30997 0.29515 0.0
H571 H 0.7321 0.30133 0.372 0.0
H572 H 0.64827 0.17959 0.38968 0.0
H573 H 0.67975 0.14833 0.30986 0.0
C574 C 0.74136 0.18939 0.24757 0.0
C575 C 0.77214 0.21567 0.21784 0.0
C576 C 0.72366 0.2069 0.2941 0.0
C577 C 0.78599 0.25914 0.23564 0.0
C578 C 0.76943 0.2763 0.28239 0.0
C579 C 0.72011 0.26827 0.35813 0.0
C580 C 0.68777 0.24297 0.38716 0.0
C581 C 0.73788 0.25069 0.31171 0.0
C582 C 0.67353 0.19969 0.36875 0.0
C583 C 0.6914 0.18178 0.3229 0.0
loop_
_geom_bond_atom_site_label_1
_geom_bond_atom_site_label_2
_geom_bond_distance
_geom_bond_site_symmetry_2
_ccdc_geom_bond_type
Co0 N4 2.148 . S
Co0 N10 2.128 . S
Co0 N20 2.194 1_554 S
Co0 O25 2.351 . S
Co0 O26 2.155 . S
Co0 O27 2.096 . S
C1 N4 1.301 . S
C1 N5 1.328 . S
C1 H6 0.930 . S
C2 C3 1.333 . S
C2 N4 1.317 . S
C2 H7 0.930 . S
C3 C2 1.333 . S
C3 N5 1.350 . S
C3 H29 0.931 . S
N4 Co0 2.148 . S
N4 C1 1.301 . S
N4 C2 1.317 . S
N5 C1 1.328 . S
N5 C3 1.350 . S
H6 C1 0.930 . S
H7 C2 0.930 . S
C8 O9 1.224 1_554 S
C8 O27 1.247 . S
O9 C8 1.224 1_556 S
N10 Co0 2.128 . S
N10 C11 1.355 . S
N10 C13 1.311 . S
C11 N10 1.355 . S
C11 C12 1.363 . S
C11 H23 0.929 . S
C12 C11 1.363 . S
C12 N14 1.375 . S
C12 H30 0.931 . S
C13 N10 1.311 . S
C13 N14 1.347 . S
C13 H24 0.929 . S
N14 C12 1.375 . S
N14 C13 1.347 . S
C15 C18 1.365 . S
C15 N20 1.328 . S
C15 H21 0.929 1_556 S
C16 C17 1.362 . S
C16 C19 1.378 . S
C16 H31 0.929 . S
C17 C16 1.362 . S
C17 C18 1.366 . S
C18 C15 1.365 . S
C18 C17 1.366 . S
C18 H32 0.930 . S
C19 C16 1.378 . S
C19 N20 1.315 . S
C19 H22 0.930 . S
N20 Co0 2.194 1_556 S
N20 C15 1.328 . S
N20 C19 1.315 . S
H21 C15 0.929 1_554 S
H22 C19 0.930 . S
H23 C11 0.929 . S
H24 C13 0.929 . S
O25 Co0 2.351 . S
O25 C28 1.244 . S
O26 Co0 2.155 . S
O26 C28 1.240 . S
O27 Co0 2.096 . S
O27 C8 1.247 . S
C28 O25 1.244 . S
C28 O26 1.240 . S
H29 C3 0.931 . S
H30 C12 0.931 . S
H31 C16 0.929 . S
H32 C18 0.930 . S
Co33 N37 2.148 . S
Co33 N43 2.128 . S
Co33 N53 2.194 . S
Co33 O58 2.351 . S
Co33 O59 2.155 . S
Co33 O60 2.096 . S
C34 N37 1.301 . S
C34 N38 1.328 . S
C34 H39 0.930 . S
C35 C36 1.333 . S
C35 N37 1.317 . S
C35 H40 0.930 . S
C36 C35 1.333 . S
C36 N38 1.350 . S
C36 H62 0.931 . S
N37 Co33 2.148 . S
N37 C34 1.301 . S
N37 C35 1.317 . S
N38 C34 1.328 . S
N38 C36 1.350 . S
H39 C34 0.930 . S
H40 C35 0.930 . S
C41 O42 1.224 . S
C41 O60 1.247 . S
O42 C41 1.224 . S
N43 Co33 2.128 . S
N43 C44 1.355 . S
N43 C46 1.311 . S
C44 N43 1.355 . S
C44 C45 1.363 . S
C44 H56 0.929 . S
C45 C44 1.363 . S
C45 N47 1.375 . S
C45 H63 0.931 . S
C46 N43 1.311 . S
C46 N47 1.347 . S
C46 H57 0.929 . S
N47 C45 1.375 . S
N47 C46 1.347 . S
C48 C51 1.365 . S
C48 N53 1.328 . S
C48 H54 0.929 . S
C49 C50 1.362 . S
C49 C52 1.378 . S
C49 H64 0.929 . S
C50 C49 1.362 . S
C50 C51 1.366 . S
C51 C48 1.365 . S
C51 C50 1.366 . S
C51 H65 0.930 . S
C52 C49 1.378 . S
C52 N53 1.315 . S
C52 H55 0.930 . S
N53 Co33 2.194 . S
N53 C48 1.328 . S
N53 C52 1.315 . S
H54 C48 0.929 . S
H55 C52 0.930 . S
H56 C44 0.929 . S
H57 C46 0.929 . S
O58 Co33 2.351 . S
O58 C61 1.244 . S
O59 Co33 2.155 . S
O59 C61 1.240 . S
O60 Co33 2.096 . S
O60 C41 1.247 . S
C61 O58 1.244 . S
C61 O59 1.240 . S
H62 C36 0.931 . S
H63 C45 0.931 . S
H64 C49 0.929 . S
H65 C51 0.930 . S
Co66 N70 2.148 . S
Co66 N76 2.128 . S
Co66 N86 2.194 1_554 S
Co66 O91 2.351 . S
Co66 O92 2.155 . S
Co66 O93 2.096 . S
C67 N70 1.301 . S
C67 N71 1.328 . S
C67 H72 0.930 . S
C68 C69 1.333 . S
C68 N70 1.317 . S
C68 H73 0.930 . S
C69 C68 1.333 . S
C69 N71 1.350 . S
C69 H95 0.931 . S
N70 Co66 2.148 . S
N70 C67 1.301 . S
N70 C68 1.317 . S
N71 C67 1.328 . S
N71 C69 1.350 . S
H72 C67 0.930 . S
H73 C68 0.930 . S
C74 O75 1.224 1_554 S
C74 O93 1.247 . S
O75 C74 1.224 1_556 S
N76 Co66 2.128 . S
N76 C77 1.355 . S
N76 C79 1.311 . S
C77 N76 1.355 . S
C77 C78 1.363 . S
C77 H89 0.929 . S
C78 C77 1.363 . S
C78 N80 1.375 . S
C78 H96 0.931 . S
C79 N76 1.311 . S
C79 N80 1.347 . S
C79 H90 0.929 . S
N80 C78 1.375 . S
N80 C79 1.347 . S
C81 C84 1.365 . S
C81 N86 1.328 . S
C81 H87 0.929 1_556 S
C82 C83 1.362 . S
C82 C85 1.378 . S
C82 H97 0.929 . S
C83 C82 1.362 . S
C83 C84 1.366 . S
C84 C81 1.365 . S
C84 C83 1.366 . S
C84 H98 0.930 . S
C85 C82 1.378 . S
C85 N86 1.315 . S
C85 H88 0.930 . S
N86 Co66 2.194 1_556 S
N86 C81 1.328 . S
N86 C85 1.315 . S
H87 C81 0.929 1_554 S
H88 C85 0.930 . S
H89 C77 0.929 . S
H90 C79 0.929 . S
O91 Co66 2.351 . S
O91 C94 1.244 . S
O92 Co66 2.155 . S
O92 C94 1.240 . S
O93 Co66 2.096 . S
O93 C74 1.247 . S
C94 O91 1.244 . S
C94 O92 1.240 . S
H95 C69 0.931 . S
H96 C78 0.931 . S
H97 C82 0.929 . S
H98 C84 0.930 . S
Co99 N103 2.148 . S
Co99 N109 2.128 . S
Co99 N119 2.194 . S
Co99 O124 2.351 . S
Co99 O125 2.155 . S
Co99 O126 2.096 . S
C100 N103 1.301 . S
C100 N104 1.328 . S
C100 H105 0.930 . S
C101 C102 1.333 . S
C101 N103 1.317 . S
C101 H106 0.930 . S
C102 C101 1.333 . S
C102 N104 1.350 . S
C102 H128 0.931 . S
N103 Co99 2.148 . S
N103 C100 1.301 . S
N103 C101 1.317 . S
N104 C100 1.328 . S
N104 C102 1.350 . S
H105 C100 0.930 . S
H106 C101 0.930 . S
C107 O108 1.224 . S
C107 O126 1.247 . S
O108 C107 1.224 . S
N109 Co99 2.128 . S
N109 C110 1.355 . S
N109 C112 1.311 . S
C110 N109 1.355 . S
C110 C111 1.363 . S
C110 H122 0.929 . S
C111 C110 1.363 . S
C111 N113 1.375 . S
C111 H129 0.931 . S
C112 N109 1.311 . S
C112 N113 1.347 . S
C112 H123 0.929 . S
N113 C111 1.375 . S
N113 C112 1.347 . S
C114 C117 1.365 . S
C114 N119 1.328 . S
C114 H120 0.929 . S
C115 C116 1.362 . S
C115 C118 1.378 . S
C115 H130 0.929 . S
C116 C115 1.362 . S
C116 C117 1.366 . S
C117 C114 1.365 . S
C117 C116 1.366 . S
C117 H131 0.930 . S
C118 C115 1.378 . S
C118 N119 1.315 . S
C118 H121 0.930 . S
N119 Co99 2.194 . S
N119 C114 1.328 . S
N119 C118 1.315 . S
H120 C114 0.929 . S
H121 C118 0.930 . S
H122 C110 0.929 . S
H123 C112 0.929 . S
O124 Co99 2.351 . S
O124 C127 1.244 . S
O125 Co99 2.155 . S
O125 C127 1.240 . S
O126 Co99 2.096 . S
O126 C107 1.247 . S
C127 O124 1.244 . S
C127 O125 1.240 . S
H128 C102 0.931 . S
H129 C111 0.931 . S
H130 C115 0.929 . S
H131 C117 0.930 . S
Co132 N136 2.148 . S
Co132 N142 2.128 . S
Co132 N152 2.194 1_556 S
Co132 O157 2.351 . S
Co132 O158 2.155 . S
Co132 O159 2.096 . S
C133 N136 1.301 . S
C133 N137 1.328 . S
C133 H138 0.930 . S
C134 C135 1.333 . S
C134 N136 1.317 . S
C134 H139 0.930 . S
C135 C134 1.333 . S
C135 N137 1.350 . S
C135 H161 0.931 . S
N136 Co132 2.148 . S
N136 C133 1.301 . S
N136 C134 1.317 . S
N137 C133 1.328 . S
N137 C135 1.350 . S
H138 C133 0.930 . S
H139 C134 0.930 . S
C140 O141 1.224 . S
C140 O159 1.247 1_554 S
O141 C140 1.224 . S
N142 Co132 2.128 . S
N142 C143 1.355 1_556 S
N142 C145 1.311 1_545 S
C143 N142 1.355 1_554 S
C143 C144 1.363 1_545 S
C143 H155 0.929 . S
C144 C143 1.363 1_565 S
C144 N146 1.377 . S
C144 H162 0.931 . S
C145 N142 1.311 1_565 S
C145 N146 1.346 1_556 S
C145 H156 0.929 . S
N146 C144 1.377 . S
N146 C145 1.346 1_554 S
C147 C150 1.365 . S
C147 N152 1.328 . S
C147 H153 0.929 . S
C148 C149 1.362 . S
C148 C151 1.378 . S
C148 H163 0.929 . S
C149 C148 1.362 . S
C149 C150 1.366 . S
C150 C147 1.365 . S
C150 C149 1.366 . S
C150 H164 0.930 . S
C151 C148 1.378 . S
C151 N152 1.315 . S
C151 H154 0.930 . S
N152 Co132 2.194 1_554 S
N152 C147 1.328 . S
N152 C151 1.315 . S
H153 C147 0.929 . S
H154 C151 0.930 . S
H155 C143 0.929 . S
H156 C145 0.929 . S
O157 Co132 2.351 . S
O157 C160 1.244 . S
O158 Co132 2.155 . S
O158 C160 1.240 . S
O159 Co132 2.096 . S
O159 C140 1.247 1_556 S
C160 O157 1.244 . S
C160 O158 1.240 . S
H161 C135 0.931 . S
H162 C144 0.931 . S
H163 C148 0.929 . S
H164 C150 0.930 . S
Co165 N169 2.148 . S
Co165 N175 2.128 . S
Co165 N185 2.194 . S
Co165 O190 2.351 . S
Co165 O191 2.155 . S
Co165 O192 2.096 . S
C166 N169 1.301 . S
C166 N170 1.328 . S
C166 H171 0.930 . S
C167 C168 1.333 . S
C167 N169 1.317 . S
C167 H172 0.930 . S
C168 C167 1.333 . S
C168 N170 1.350 . S
C168 H194 0.931 . S
N169 Co165 2.148 . S
N169 C166 1.301 . S
N169 C167 1.317 . S
N170 C166 1.328 . S
N170 C168 1.350 . S
H171 C166 0.930 . S
H172 C167 0.930 . S
C173 O174 1.224 . S
C173 O192 1.247 . S
O174 C173 1.224 . S
N175 Co165 2.128 . S
N175 C176 1.355 . S
N175 C178 1.311 1_655 S
C176 N175 1.355 . S
C176 C177 1.363 1_655 S
C176 H188 0.929 . S
C177 C176 1.363 1_455 S
C177 N179 1.375 . S
C177 H195 0.931 . S
C178 N175 1.311 1_455 S
C178 N179 1.347 . S
C178 H189 0.929 . S
N179 C177 1.375 . S
N179 C178 1.347 . S
C180 C183 1.365 . S
C180 N185 1.328 . S
C180 H186 0.929 . S
C181 C182 1.362 . S
C181 C184 1.378 . S
C181 H196 0.929 . S
C182 C181 1.362 . S
C182 C183 1.366 . S
C183 C180 1.365 . S
C183 C182 1.366 . S
C183 H197 0.930 . S
C184 C181 1.378 . S
C184 N185 1.315 . S
C184 H187 0.930 . S
N185 Co165 2.194 . S
N185 C180 1.328 . S
N185 C184 1.315 . S
H186 C180 0.929 . S
H187 C184 0.930 . S
H188 C176 0.929 . S
H189 C178 0.929 . S
O190 Co165 2.351 . S
O190 C193 1.244 . S
O191 Co165 2.155 . S
O191 C193 1.240 . S
O192 Co165 2.096 . S
O192 C173 1.247 . S
C193 O190 1.244 . S
C193 O191 1.240 . S
H194 C168 0.931 . S
H195 C177 0.931 . S
H196 C181 0.929 . S
H197 C183 0.930 . S
Co198 N202 2.148 . S
Co198 N208 2.128 . S
Co198 N218 2.194 1_556 S
Co198 O223 2.351 . S
Co198 O224 2.155 . S
Co198 O225 2.096 . S
C199 N202 1.301 . S
C199 N203 1.328 . S
C199 H204 0.930 . S
C200 C201 1.333 . S
C200 N202 1.317 . S
C200 H205 0.930 . S
C201 C200 1.333 . S
C201 N203 1.350 . S
C201 H227 0.931 . S
N202 Co198 2.148 . S
N202 C199 1.301 . S
N202 C200 1.317 . S
N203 C199 1.328 . S
N203 C201 1.350 . S
H204 C199 0.930 . S
H205 C200 0.930 . S
C206 O207 1.224 . S
C206 O225 1.247 1_554 S
O207 C206 1.224 . S
N208 Co198 2.128 . S
N208 C209 1.355 1_556 S
N208 C211 1.311 1_565 S
C209 N208 1.355 1_554 S
C209 C210 1.363 1_565 S
C209 H221 0.929 . S
C210 C209 1.363 1_545 S
C210 N212 1.377 . S
C210 H228 0.931 . S
C211 N208 1.311 1_545 S
C211 N212 1.346 1_556 S
C211 H222 0.929 . S
N212 C210 1.377 . S
N212 C211 1.346 1_554 S
C213 C216 1.365 . S
C213 N218 1.328 . S
C213 H219 0.929 . S
C214 C215 1.362 . S
C214 C217 1.378 . S
C214 H229 0.929 . S
C215 C214 1.362 . S
C215 C216 1.366 . S
C216 C213 1.365 . S
C216 C215 1.366 . S
C216 H230 0.930 . S
C217 C214 1.378 . S
C217 N218 1.315 . S
C217 H220 0.930 . S
N218 Co198 2.194 1_554 S
N218 C213 1.328 . S
N218 C217 1.315 . S
H219 C213 0.929 . S
H220 C217 0.930 . S
H221 C209 0.929 . S
H222 C211 0.929 . S
O223 Co198 2.351 . S
O223 C226 1.244 . S
O224 Co198 2.155 . S
O224 C226 1.240 . S
O225 Co198 2.096 . S
O225 C206 1.247 1_556 S
C226 O223 1.244 . S
C226 O224 1.240 . S
H227 C201 0.931 . S
H228 C210 0.931 . S
H229 C214 0.929 . S
H230 C216 0.930 . S
Co231 N235 2.148 . S
Co231 N241 2.128 . S
Co231 N251 2.194 . S
Co231 O256 2.351 . S
Co231 O257 2.155 . S
Co231 O258 2.096 . S
C232 N235 1.301 . S
C232 N236 1.328 . S
C232 H237 0.930 . S
C233 C234 1.333 . S
C233 N235 1.317 . S
C233 H238 0.930 . S
C234 C233 1.333 . S
C234 N236 1.350 . S
C234 H260 0.931 . S
N235 Co231 2.148 . S
N235 C232 1.301 . S
N235 C233 1.317 . S
N236 C232 1.328 . S
N236 C234 1.350 . S
H237 C232 0.930 . S
H238 C233 0.930 . S
C239 O240 1.224 . S
C239 O258 1.247 . S
O240 C239 1.224 . S
N241 Co231 2.128 . S
N241 C242 1.355 . S
N241 C244 1.311 1_455 S
C242 N241 1.355 . S
C242 C243 1.363 1_455 S
C242 H254 0.929 . S
C243 C242 1.363 1_655 S
C243 N245 1.375 . S
C243 H261 0.931 . S
C244 N241 1.311 1_655 S
C244 N245 1.347 . S
C244 H255 0.929 . S
N245 C243 1.375 . S
N245 C244 1.347 . S
C246 C249 1.365 . S
C246 N251 1.328 . S
C246 H252 0.929 . S
C247 C248 1.362 . S
C247 C250 1.378 . S
C247 H262 0.929 . S
C248 C247 1.362 . S
C248 C249 1.366 . S
C249 C246 1.365 . S
C249 C248 1.366 . S
C249 H263 0.930 . S
C250 C247 1.378 . S
C250 N251 1.315 . S
C250 H253 0.930 . S
N251 Co231 2.194 . S
N251 C246 1.328 . S
N251 C250 1.315 . S
H252 C246 0.929 . S
H253 C250 0.930 . S
H254 C242 0.929 . S
H255 C244 0.929 . S
O256 Co231 2.351 . S
O256 C259 1.244 . S
O257 Co231 2.155 . S
O257 C259 1.240 . S
O258 Co231 2.096 . S
O258 C239 1.247 . S
C259 O256 1.244 . S
C259 O257 1.240 . S
H260 C234 0.931 . S
H261 C243 0.931 . S
H262 C247 0.929 . S
H263 C249 0.930 . S
H264 C270 0.930 1_556 S
H265 C273 0.930 . S
H266 C274 0.930 . S
H267 C275 0.930 . S
H268 C278 0.930 . S
H269 C279 0.930 . S
C270 H264 0.930 1_554 S
C270 C271 1.355 . S
C270 C272 1.415 . S
C271 C270 1.355 . S
C271 C273 1.419 . S
C272 C270 1.415 . S
C272 C277 1.425 . S
C272 C279 1.409 . S
C273 H265 0.930 . S
C273 C271 1.419 . S
C273 C274 1.362 . S
C274 H266 0.930 . S
C274 C273 1.362 . S
C274 C277 1.409 . S
C275 H267 0.930 . S
C275 C276 1.355 . S
C275 C277 1.415 . S
C276 C275 1.355 . S
C276 C278 1.419 . S
C277 C272 1.425 . S
C277 C274 1.409 . S
C277 C275 1.415 . S
C278 H268 0.930 . S
C278 C276 1.419 . S
C278 C279 1.362 . S
C279 H269 0.930 . S
C279 C272 1.409 . S
C279 C278 1.362 . S
H280 C286 0.930 . S
H281 C289 0.930 . S
H282 C290 0.930 . S
H283 C291 0.930 . S
H284 C294 0.930 . S
H285 C295 0.930 . S
C286 H280 0.930 . S
C286 C287 1.355 . S
C286 C288 1.415 . S
C287 C286 1.355 . S
C287 C289 1.419 . S
C288 C286 1.415 . S
C288 C293 1.425 . S
C288 C295 1.409 . S
C289 H281 0.930 . S
C289 C287 1.419 . S
C289 C290 1.362 . S
C290 H282 0.930 . S
C290 C289 1.362 . S
C290 C293 1.409 . S
C291 H283 0.930 . S
C291 C292 1.355 . S
C291 C293 1.415 . S
C292 C291 1.355 . S
C292 C294 1.419 . S
C293 C288 1.425 . S
C293 C290 1.409 . S
C293 C291 1.415 . S
C294 H284 0.930 . S
C294 C292 1.419 . S
C294 C295 1.362 . S
C295 H285 0.930 . S
C295 C288 1.409 . S
C295 C294 1.362 . S
H296 C302 0.930 . S
H297 C305 0.930 . S
H298 C306 0.930 . S
H299 C307 0.930 . S
H300 C310 0.930 . S
H301 C311 0.930 . S
C302 H296 0.930 . S
C302 C303 1.355 . S
C302 C304 1.415 . S
C303 C302 1.355 . S
C303 C305 1.419 . S
C304 C302 1.415 . S
C304 C309 1.425 . S
C304 C311 1.409 . S
C305 H297 0.930 . S
C305 C303 1.419 . S
C305 C306 1.362 . S
C306 H298 0.930 . S
C306 C305 1.362 . S
C306 C309 1.409 . S
C307 H299 0.930 . S
C307 C308 1.355 . S
C307 C309 1.415 . S
C308 C307 1.355 . S
C308 C310 1.419 . S
C309 C304 1.425 . S
C309 C306 1.409 . S
C309 C307 1.415 . S
C310 H300 0.930 . S
C310 C308 1.419 . S
C310 C311 1.362 . S
C311 H301 0.930 . S
C311 C304 1.409 . S
C311 C310 1.362 . S
H312 C318 0.930 . S
H313 C321 0.930 . S
H314 C322 0.930 . S
H315 C323 0.930 . S
H316 C326 0.930 . S
H317 C327 0.930 . S
C318 H312 0.930 . S
C318 C319 1.355 . S
C318 C320 1.415 . S
C319 C318 1.355 . S
C319 C321 1.419 . S
C320 C318 1.415 . S
C320 C325 1.425 . S
C320 C327 1.409 . S
C321 H313 0.930 . S
C321 C319 1.419 . S
C321 C322 1.362 . S
C322 H314 0.930 . S
C322 C321 1.362 . S
C322 C325 1.409 . S
C323 H315 0.930 . S
C323 C324 1.355 . S
C323 C325 1.415 . S
C324 C323 1.355 . S
C324 C326 1.419 . S
C325 C320 1.425 . S
C325 C322 1.409 . S
C325 C323 1.415 . S
C326 H316 0.930 . S
C326 C324 1.419 . S
C326 C327 1.362 . S
C327 H317 0.930 . S
C327 C320 1.409 . S
C327 C326 1.362 . S
H328 C334 0.930 . S
H329 C337 0.930 . S
H330 C338 0.930 . S
H331 C339 0.930 . S
H332 C342 0.930 . S
H333 C343 0.930 . S
C334 H328 0.930 . S
C334 C335 1.355 . S
C334 C336 1.415 . S
C335 C334 1.355 . S
C335 C337 1.419 . S
C336 C334 1.415 . S
C336 C341 1.425 . S
C336 C343 1.409 1_554 S
C337 H329 0.930 . S
C337 C335 1.419 . S
C337 C338 1.362 . S
C338 H330 0.930 . S
C338 C337 1.362 . S
C338 C341 1.409 . S
C339 H331 0.930 . S
C339 C340 1.355 . S
C339 C341 1.415 1_556 S
C340 C339 1.355 . S
C340 C342 1.419 . S
C341 C336 1.425 . S
C341 C338 1.409 . S
C341 C339 1.415 1_554 S
C342 H332 0.930 . S
C342 C340 1.419 . S
C342 C343 1.362 . S
C343 H333 0.930 . S
C343 C336 1.409 1_556 S
C343 C342 1.362 . S
H344 C350 0.930 . S
H345 C353 0.930 . S
H346 C354 0.930 . S
H347 C355 0.930 . S
H348 C358 0.930 . S
H349 C359 0.930 . S
C350 H344 0.930 . S
C350 C351 1.355 . S
C350 C352 1.415 . S
C351 C350 1.355 . S
C351 C353 1.419 . S
C352 C350 1.415 . S
C352 C357 1.425 . S
C352 C359 1.409 . S
C353 H345 0.930 . S
C353 C351 1.419 . S
C353 C354 1.362 . S
C354 H346 0.930 . S
C354 C353 1.362 . S
C354 C357 1.409 . S
C355 H347 0.930 . S
C355 C356 1.355 . S
C355 C357 1.415 . S
C356 C355 1.355 . S
C356 C358 1.419 . S
C357 C352 1.425 . S
C357 C354 1.409 . S
C357 C355 1.415 . S
C358 H348 0.930 . S
C358 C356 1.419 . S
C358 C359 1.362 . S
C359 H349 0.930 . S
C359 C352 1.409 . S
C359 C358 1.362 . S
H360 C366 0.930 1_556 S
H361 C369 0.930 . S
H362 C370 0.930 . S
H363 C371 0.930 . S
H364 C374 0.930 . S
H365 C375 0.930 . S
C366 H360 0.930 1_554 S
C366 C367 1.355 . S
C366 C368 1.416 . S
C367 C366 1.355 . S
C367 C369 1.419 . S
C368 C366 1.416 . S
C368 C373 1.428 . S
C368 C375 1.405 1_554 S
C369 H361 0.930 . S
C369 C367 1.419 . S
C369 C370 1.362 . S
C370 H362 0.930 . S
C370 C369 1.362 . S
C370 C373 1.409 . S
C371 H363 0.930 . S
C371 C372 1.355 1_554 S
C371 C373 1.415 . S
C372 C371 1.355 1_556 S
C372 C374 1.419 . S
C373 C368 1.428 . S
C373 C370 1.409 . S
C373 C371 1.415 . S
C374 H364 0.930 . S
C374 C372 1.419 . S
C374 C375 1.362 . S
C375 H365 0.930 . S
C375 C368 1.405 1_556 S
C375 C374 1.362 . S
H376 C382 0.930 . S
H377 C385 0.930 . S
H378 C386 0.930 . S
H379 C387 0.930 . S
H380 C390 0.930 . S
H381 C391 0.930 . S
C382 H376 0.930 . S
C382 C383 1.355 . S
C382 C384 1.415 . S
C383 C382 1.355 . S
C383 C385 1.419 . S
C384 C382 1.415 . S
C384 C389 1.425 . S
C384 C391 1.409 . S
C385 H377 0.930 . S
C385 C383 1.419 . S
C385 C386 1.362 . S
C386 H378 0.930 . S
C386 C385 1.362 . S
C386 C389 1.409 . S
C387 H379 0.930 . S
C387 C388 1.355 . S
C387 C389 1.415 . S
C388 C387 1.355 . S
C388 C390 1.419 . S
C389 C384 1.425 . S
C389 C386 1.409 . S
C389 C387 1.415 . S
C390 H380 0.930 . S
C390 C388 1.419 . S
C390 C391 1.362 . S
C391 H381 0.930 . S
C391 C384 1.409 . S
C391 C390 1.362 . S
H392 C398 0.930 . S
H393 C401 0.941 . S
H394 C402 0.930 . S
H395 C403 0.930 1_556 S
H396 C406 0.930 . S
H397 C407 0.930 . S
C398 H392 0.930 . S
C398 C399 1.355 . S
C398 C400 1.415 . S
C399 C398 1.355 . S
C399 C401 1.405 1_554 S
C400 C398 1.415 . S
C400 C405 1.425 . S
C400 C407 1.409 . S
C401 H393 0.941 . S
C401 C399 1.405 1_556 S
C401 C402 1.365 . S
C402 H394 0.930 . S
C402 C401 1.365 . S
C402 C405 1.409 1_556 S
C403 H395 0.930 1_554 S
C403 C404 1.355 . S
C403 C405 1.415 . S
C404 C403 1.355 . S
C404 C406 1.419 . S
C405 C400 1.425 . S
C405 C402 1.409 1_554 S
C405 C403 1.415 . S
C406 H396 0.930 . S
C406 C404 1.419 . S
C406 C407 1.362 . S
C407 H397 0.930 . S
C407 C400 1.409 . S
C407 C406 1.362 . S
H408 C414 0.930 . S
H409 C417 0.930 . S
H410 C418 0.930 . S
H411 C419 0.930 . S
H412 C422 0.930 . S
H413 C423 0.930 . S
C414 H408 0.930 . S
C414 C415 1.355 . S
C414 C416 1.415 . S
C415 C414 1.355 . S
C415 C417 1.419 . S
C416 C414 1.415 . S
C416 C421 1.425 . S
C416 C423 1.409 . S
C417 H409 0.930 . S
C417 C415 1.419 . S
C417 C418 1.362 . S
C418 H410 0.930 . S
C418 C417 1.362 . S
C418 C421 1.409 . S
C419 H411 0.930 . S
C419 C420 1.355 . S
C419 C421 1.415 . S
C420 C419 1.355 . S
C420 C422 1.419 . S
C421 C416 1.425 . S
C421 C418 1.409 . S
C421 C419 1.415 . S
C422 H412 0.930 . S
C422 C420 1.419 . S
C422 C423 1.362 . S
C423 H413 0.930 . S
C423 C416 1.409 . S
C423 C422 1.362 . S
H424 C430 0.930 . S
H425 C433 0.930 . S
H426 C434 0.930 1_655 S
H427 C435 0.930 . S
H428 C438 0.930 . S
H429 C439 0.930 1_455 S
C430 H424 0.930 . S
C430 C431 1.355 1_545 S
C430 C432 1.415 . S
C431 C430 1.355 1_565 S
C431 C433 1.419 1_554 S
C432 C430 1.415 . S
C432 C437 1.425 1_444 S
C432 C439 1.409 1_455 S
C433 H425 0.930 . S
C433 C431 1.419 1_556 S
C433 C434 1.362 . S
C434 H426 0.930 1_455 S
C434 C433 1.362 . S
C434 C437 1.409 1_455 S
C435 H427 0.930 . S
C435 C436 1.355 1_566 S
C435 C437 1.415 . S
C436 C435 1.355 1_544 S
C436 C438 1.419 . S
C437 C432 1.425 1_666 S
C437 C434 1.409 1_655 S
C437 C435 1.415 . S
C438 H428 0.930 . S
C438 C436 1.419 . S
C438 C439 1.362 . S
C439 H429 0.930 1_655 S
C439 C432 1.409 1_655 S
C439 C438 1.362 . S
H440 C446 0.930 . S
H441 C449 0.930 . S
H442 C450 0.930 . S
H443 C451 0.930 . S
H444 C454 0.930 . S
H445 C455 0.930 . S
C446 H440 0.930 . S
C446 C447 1.355 . S
C446 C448 1.415 . S
C447 C446 1.355 . S
C447 C449 1.419 1_655 S
C448 C446 1.415 . S
C448 C453 1.425 1_665 S
C448 C455 1.409 1_565 S
C449 H441 0.930 . S
C449 C447 1.419 1_455 S
C449 C450 1.362 . S
C450 H442 0.930 . S
C450 C449 1.362 . S
C450 C453 1.409 1_565 S
C451 H443 0.930 . S
C451 C452 1.355 . S
C451 C453 1.415 . S
C452 C451 1.355 . S
C452 C454 1.419 1_455 S
C453 C448 1.425 1_445 S
C453 C450 1.409 1_545 S
C453 C451 1.415 . S
C454 H444 0.930 . S
C454 C452 1.419 1_655 S
C454 C455 1.362 . S
C455 H445 0.930 . S
C455 C448 1.409 1_545 S
C455 C454 1.362 . S
H456 C462 0.930 . S
H457 C465 0.930 . S
H458 C466 0.930 . S
H459 C467 0.930 . S
H460 C470 0.930 . S
H461 C471 0.930 . S
C462 H456 0.930 . S
C462 C463 1.355 . S
C462 C464 1.415 . S
C463 C462 1.355 . S
C463 C465 1.419 . S
C464 C462 1.415 . S
C464 C469 1.425 . S
C464 C471 1.409 . S
C465 H457 0.930 . S
C465 C463 1.419 . S
C465 C466 1.362 . S
C466 H458 0.930 . S
C466 C465 1.362 . S
C466 C469 1.409 . S
C467 H459 0.930 . S
C467 C468 1.355 . S
C467 C469 1.415 . S
C468 C467 1.355 . S
C468 C470 1.419 . S
C469 C464 1.425 . S
C469 C466 1.409 . S
C469 C467 1.415 . S
C470 H460 0.930 . S
C470 C468 1.419 . S
C470 C471 1.362 . S
C471 H461 0.930 . S
C471 C464 1.409 . S
C471 C470 1.362 . S
H472 C478 0.930 . S
H473 C481 0.930 . S
H474 C482 0.930 . S
H475 C483 0.930 . S
H476 C486 0.930 . S
H477 C487 0.930 . S
C478 H472 0.930 . S
C478 C479 1.355 . S
C478 C480 1.415 . S
C479 C478 1.355 . S
C479 C481 1.419 . S
C480 C478 1.415 . S
C480 C485 1.425 . S
C480 C487 1.409 . S
C481 H473 0.930 . S
C481 C479 1.419 . S
C481 C482 1.362 . S
C482 H474 0.930 . S
C482 C481 1.362 . S
C482 C485 1.409 . S
C483 H475 0.930 . S
C483 C484 1.355 . S
C483 C485 1.415 . S
C484 C483 1.355 . S
C484 C486 1.419 . S
C485 C480 1.425 . S
C485 C482 1.409 . S
C485 C483 1.415 . S
C486 H476 0.930 . S
C486 C484 1.419 . S
C486 C487 1.362 . S
C487 H477 0.930 . S
C487 C480 1.409 . S
C487 C486 1.362 . S
H488 C494 0.930 . S
H489 C497 0.930 . S
H490 C498 0.930 . S
H491 C499 0.930 . S
H492 C502 0.930 . S
H493 C503 0.930 . S
C494 H488 0.930 . S
C494 C495 1.355 . S
C494 C496 1.415 . S
C495 C494 1.355 . S
C495 C497 1.419 . S
C496 C494 1.415 . S
C496 C501 1.425 . S
C496 C503 1.409 . S
C497 H489 0.930 . S
C497 C495 1.419 . S
C497 C498 1.362 . S
C498 H490 0.930 . S
C498 C497 1.362 . S
C498 C501 1.409 . S
C499 H491 0.930 . S
C499 C500 1.355 . S
C499 C501 1.415 . S
C500 C499 1.355 . S
C500 C502 1.419 . S
C501 C496 1.425 . S
C501 C498 1.409 . S
C501 C499 1.415 . S
C502 H492 0.930 . S
C502 C500 1.419 . S
C502 C503 1.362 . S
C503 H493 0.930 . S
C503 C496 1.409 . S
C503 C502 1.362 . S
H504 C510 0.930 . S
H505 C513 0.930 . S
H506 C514 0.930 . S
H507 C515 0.930 . S
H508 C518 0.930 . S
H509 C519 0.930 . S
C510 H504 0.930 . S
C510 C511 1.355 . S
C510 C512 1.415 . S
C511 C510 1.355 . S
C511 C513 1.419 . S
C512 C510 1.415 . S
C512 C517 1.425 . S
C512 C519 1.409 . S
C513 H505 0.930 . S
C513 C511 1.419 . S
C513 C514 1.362 . S
C514 H506 0.930 . S
C514 C513 1.362 . S
C514 C517 1.409 . S
C515 H507 0.930 . S
C515 C516 1.355 . S
C515 C517 1.415 . S
C516 C515 1.355 . S
C516 C518 1.419 . S
C517 C512 1.425 . S
C517 C514 1.409 . S
C517 C515 1.415 . S
C518 H508 0.930 . S
C518 C516 1.419 . S
C518 C519 1.362 . S
C519 H509 0.930 . S
C519 C512 1.409 . S
C519 C518 1.362 . S
H520 C526 0.930 . S
H521 C529 0.930 . S
H522 C530 0.930 . S
H523 C531 0.930 . S
H524 C534 0.930 . S
H525 C535 0.930 . S
C526 H520 0.930 . S
C526 C527 1.355 . S
C526 C528 1.415 . S
C527 C526 1.355 . S
C527 C529 1.419 . S
C528 C526 1.415 . S
C528 C533 1.425 . S
C528 C535 1.409 . S
C529 H521 0.930 . S
C529 C527 1.419 . S
C529 C530 1.362 . S
C530 H522 0.930 . S
C530 C529 1.362 . S
C530 C533 1.409 . S
C531 H523 0.930 . S
C531 C532 1.355 . S
C531 C533 1.415 . S
C532 C531 1.355 . S
C532 C534 1.419 . S
C533 C528 1.425 . S
C533 C530 1.409 . S
C533 C531 1.415 . S
C534 H524 0.930 . S
C534 C532 1.419 . S
C534 C535 1.362 . S
C535 H525 0.930 . S
C535 C528 1.409 . S
C535 C534 1.362 . S
H536 C542 0.930 . S
H537 C545 0.930 . S
H538 C546 0.930 . S
H539 C547 0.930 . S
H540 C550 0.930 . S
H541 C551 0.930 . S
C542 H536 0.930 . S
C542 C543 1.355 . S
C542 C544 1.415 . S
C543 C542 1.355 . S
C543 C545 1.419 . S
C544 C542 1.415 . S
C544 C549 1.425 . S
C544 C551 1.409 . S
C545 H537 0.930 . S
C545 C543 1.419 . S
C545 C546 1.362 . S
C546 H538 0.930 . S
C546 C545 1.362 . S
C546 C549 1.409 . S
C547 H539 0.930 . S
C547 C548 1.355 . S
C547 C549 1.415 . S
C548 C547 1.355 . S
C548 C550 1.419 . S
C549 C544 1.425 . S
C549 C546 1.409 . S
C549 C547 1.415 . S
C550 H540 0.930 . S
C550 C548 1.419 . S
C550 C551 1.362 . S
C551 H541 0.930 . S
C551 C544 1.409 . S
C551 C550 1.362 . S
H552 C558 0.930 . S
H553 C561 0.930 . S
H554 C562 0.930 . S
H555 C563 0.930 . S
H556 C566 0.930 . S
H557 C567 0.930 . S
C558 H552 0.930 . S
C558 C559 1.355 . S
C558 C560 1.415 . S
C559 C558 1.355 . S
C559 C561 1.419 . S
C560 C558 1.415 . S
C560 C565 1.425 . S
C560 C567 1.409 . S
C561 H553 0.930 . S
C561 C559 1.419 . S
C561 C562 1.362 . S
C562 H554 0.930 . S
C562 C561 1.362 . S
C562 C565 1.409 . S
C563 H555 0.930 . S
C563 C564 1.355 . S
C563 C565 1.415 . S
C564 C563 1.355 . S
C564 C566 1.419 . S
C565 C560 1.425 . S
C565 C562 1.409 . S
C565 C563 1.415 . S
C566 H556 0.930 . S
C566 C564 1.419 . S
C566 C567 1.362 . S
C567 H557 0.930 . S
C567 C560 1.409 . S
C567 C566 1.362 . S
H568 C574 0.930 . S
H569 C577 0.930 . S
H570 C578 0.930 . S
H571 C579 0.930 . S
H572 C582 0.930 . S
H573 C583 0.930 . S
C574 H568 0.930 . S
C574 C575 1.355 . S
C574 C576 1.415 . S
C575 C574 1.355 . S
C575 C577 1.419 . S
C576 C574 1.415 . S
C576 C581 1.425 . S
C576 C583 1.409 . S
C577 H569 0.930 . S
C577 C575 1.419 . S
C577 C578 1.362 . S
C578 H570 0.930 . S
C578 C577 1.362 . S
C578 C581 1.409 . S
C579 H571 0.930 . S
C579 C580 1.355 . S
C579 C581 1.415 . S
C580 C579 1.355 . S
C580 C582 1.419 . S
C581 C576 1.425 . S
C581 C578 1.409 . S
C581 C579 1.415 . S
C582 H572 0.930 . S
C582 C580 1.419 . S
C582 C583 1.362 . S
C583 H573 0.930 . S
C583 C576 1.409 . S
C583 C582 1.362 . S
C271 N212 0.888 . S
C276 N5 0.827 . S
C287 N245 0.904 . S
C292 N38 0.838 . S
C303 N146 0.895 . S
C308 N71 0.830 . S
C319 N179 0.917 . S
C324 N104 0.870 . S
C335 N80 0.836 . S
C340 N137 0.906 . S
C351 N113 0.835 . S
C356 N170 0.833 . S
C367 N14 0.916 . S
C372 N203 0.857 . S
C383 N236 0.911 . S
C388 N47 0.852 . S
C399 C74 2.483 . S
C404 C8 2.485 . S
C415 C41 2.487 . S
C420 C107 2.482 . S
C431 C206 2.486 . S
C436 C140 2.486 . S
C447 C173 2.487 . S
C452 C239 2.482 . S
C463 C28 1.947 . S
C468 C259 1.959 . S
C479 C160 1.959 . S
C484 C61 1.939 . S
C495 C193 1.955 . S
C500 C94 1.939 . S
C511 C226 1.943 . S
C516 C127 1.960 . S
C527 C83 1.149 . S
C532 C182 1.178 . S
C543 C116 1.131 . S
C548 C215 1.146 . S
C559 C248 1.153 . S
C564 C17 1.127 . S
C575 C149 1.125 . S
C580 C50 1.156 . S
