# Generated by pormake.
# Topology pcl, (4)-cn, num edge types: 1
# Building blocks:
#     Node 0, Type 0, BuildingBlock: QUQFOY_clean_sbu_3, # of connection points: 4
#     Node 1, Type 0, BuildingBlock: QUQFOY_clean_sbu_3, # of connection points: 4
#     Node 2, Type 0, BuildingBlock: QUQFOY_clean_sbu_3, # of connection points: 4
#     Node 3, Type 0, BuildingBlock: QUQFOY_clean_sbu_3, # of connection points: 4
#     Node 4, Type 0, BuildingBlock: QUQFOY_clean_sbu_3, # of connection points: 4
#     Node 5, Type 0, BuildingBlock: QUQFOY_clean_sbu_3, # of connection points: 4
#     Node 6, Type 0, BuildingBlock: QUQFOY_clean_sbu_3, # of connection points: 4
#     Node 7, Type 0, BuildingBlock: QUQFOY_clean_sbu_3, # of connection points: 4
#     Node 8, Type 0, BuildingBlock: QUQFOY_clean_sbu_3, # of connection points: 4
#     Node 9, Type 0, BuildingBlock: QUQFOY_clean_sbu_3, # of connection points: 4
#     Node 10, Type 0, BuildingBlock: QUQFOY_clean_sbu_3, # of connection points: 4
#     Node 11, Type 0, BuildingBlock: QUQFOY_clean_sbu_3, # of connection points: 4
#     Node 12, Type 0, BuildingBlock: QUQFOY_clean_sbu_3, # of connection points: 4
#     Node 13, Type 0, BuildingBlock: QUQFOY_clean_sbu_3, # of connection points: 4
#     Node 14, Type 0, BuildingBlock: QUQFOY_clean_sbu_3, # of connection points: 4
#     Node 15, Type 0, BuildingBlock: QUQFOY_clean_sbu_3, # of connection points: 4
#     Edge 16, Type (0, 0), BuildingBlock: TEMPAE_clean_linker_10, # of connection points: 2
#     Edge 17, Type (0, 0), BuildingBlock: TEMPAE_clean_linker_10, # of connection points: 2
#     Edge 18, Type (0, 0), BuildingBlock: TEMPAE_clean_linker_10, # of connection points: 2
#     Edge 19, Type (0, 0), BuildingBlock: TEMPAE_clean_linker_10, # of connection points: 2
#     Edge 20, Type (0, 0), BuildingBlock: TEMPAE_clean_linker_10, # of connection points: 2
#     Edge 21, Type (0, 0), BuildingBlock: TEMPAE_clean_linker_10, # of connection points: 2
#     Edge 22, Type (0, 0), BuildingBlock: TEMPAE_clean_linker_10, # of connection points: 2
#     Edge 23, Type (0, 0), BuildingBlock: TEMPAE_clean_linker_10, # of connection points: 2
#     Edge 24, Type (0, 0), BuildingBlock: TEMPAE_clean_linker_10, # of connection points: 2
#     Edge 25, Type (0, 0), BuildingBlock: TEMPAE_clean_linker_10, # of connection points: 2
#     Edge 26, Type (0, 0), BuildingBlock: TEMPAE_clean_linker_10, # of connection points: 2
#     Edge 27, Type (0, 0), BuildingBlock: TEMPAE_clean_linker_10, # of connection points: 2
#     Edge 28, Type (0, 0), BuildingBlock: TEMPAE_clean_linker_10, # of connection points: 2
#     Edge 29, Type (0, 0), BuildingBlock: TEMPAE_clean_linker_10, # of connection points: 2
#     Edge 30, Type (0, 0), BuildingBlock: TEMPAE_clean_linker_10, # of connection points: 2
#     Edge 31, Type (0, 0), BuildingBlock: TEMPAE_clean_linker_10, # of connection points: 2
#     Edge 32, Type (0, 0), BuildingBlock: TEMPAE_clean_linker_10, # of connection points: 2
#     Edge 33, Type (0, 0), BuildingBlock: TEMPAE_clean_linker_10, # of connection points: 2
#     Edge 34, Type (0, 0), BuildingBlock: TEMPAE_clean_linker_10, # of connection points: 2
#     Edge 35, Type (0, 0), BuildingBlock: TEMPAE_clean_linker_10, # of connection points: 2
#     Edge 36, Type (0, 0), BuildingBlock: TEMPAE_clean_linker_10, # of connection points: 2
#     Edge 37, Type (0, 0), BuildingBlock: TEMPAE_clean_linker_10, # of connection points: 2
#     Edge 38, Type (0, 0), BuildingBlock: TEMPAE_clean_linker_10, # of connection points: 2
#     Edge 39, Type (0, 0), BuildingBlock: TEMPAE_clean_linker_10, # of connection points: 2
#     Edge 40, Type (0, 0), BuildingBlock: TEMPAE_clean_linker_10, # of connection points: 2
#     Edge 41, Type (0, 0), BuildingBlock: TEMPAE_clean_linker_10, # of connection points: 2
#     Edge 42, Type (0, 0), BuildingBlock: TEMPAE_clean_linker_10, # of connection points: 2
#     Edge 43, Type (0, 0), BuildingBlock: TEMPAE_clean_linker_10, # of connection points: 2
#     Edge 44, Type (0, 0), BuildingBlock: TEMPAE_clean_linker_10, # of connection points: 2
#     Edge 45, Type (0, 0), BuildingBlock: TEMPAE_clean_linker_10, # of connection points: 2
#     Edge 46, Type (0, 0), BuildingBlock: TEMPAE_clean_linker_10, # of connection points: 2
#     Edge 47, Type (0, 0), BuildingBlock: TEMPAE_clean_linker_10, # of connection points: 2
# Relax obj value: 0.063
# Max RMSD: 0.050
# Mean RMSD: 0.047
data_MOF--net-pcl--node1-QUQFOY_clean_sbu_3--edge1-TEMPAE_clean_linker_10
_symmetry_space_group_name_H-M    P1
_symmetry_Int_Tables_number       1
_symmetry_cell_setting            triclinic
loop_
_symmetry_equiv_pos_as_xyz
'x, y, z'
_cell_length_a     54.818835
_cell_length_b     43.668349
_cell_length_c     45.280312
_cell_angle_alpha  89.95495
_cell_angle_beta   90.023021
_cell_angle_gamma 90.019511
loop_
_atom_site_label
_atom_site_type_symbol
_atom_site_fract_x
_atom_site_fract_y
_atom_site_fract_z
_atom_type_partial_charge
C0 C 0.14149 0.40802 0.06321 0.0
O1 O 0.13472 0.40997 0.08996 0.0
Cd2 Cd 0.13109 0.36657 0.12216 0.0
O3 O 0.14692 0.38226 0.05185 0.0
Cd4 Cd 0.14879 0.3277 0.06506 0.0
C5 C 0.0888 0.32636 0.08085 0.0
O6 O 0.16507 0.33406 0.11334 0.0
O7 O 0.15001 0.28937 0.10493 0.0
O8 O 0.18808 0.32022 0.04307 0.0
C9 C 0.16114 0.30714 0.12255 0.0
O10 O 0.09451 0.34085 0.10429 0.0
C11 C 0.18085 0.30206 0.02309 0.0
O12 O 0.10478 0.32016 0.06132 0.0
O13 O 0.1582 0.29594 0.02205 0.0
C14 C 0.83988 0.57609 0.57479 0.0
O15 O 0.84072 0.5766 0.60279 0.0
Cd16 Cd 0.848 0.6241 0.62778 0.0
O17 O 0.83962 0.60071 0.55974 0.0
Cd18 Cd 0.83683 0.65668 0.56475 0.0
C19 C 0.89537 0.65405 0.5845 0.0
O20 O 0.81677 0.65743 0.61105 0.0
O21 O 0.83397 0.70013 0.5998 0.0
O22 O 0.79957 0.65311 0.53794 0.0
C23 C 0.82088 0.68504 0.61778 0.0
O24 O 0.88736 0.64248 0.60851 0.0
C25 C 0.80493 0.67264 0.51827 0.0
O26 O 0.88095 0.66046 0.56329 0.0
O27 O 0.82613 0.68455 0.51935 0.0
C28 C 0.13135 0.58591 0.92301 0.0
O29 O 0.1255 0.58094 0.89631 0.0
Cd30 Cd 0.12293 0.62174 0.86098 0.0
O31 O 0.13597 0.61291 0.93196 0.0
Cd32 Cd 0.13857 0.66631 0.91519 0.0
C33 C 0.07931 0.66544 0.89695 0.0
O34 O 0.1578 0.65304 0.86961 0.0
O35 O 0.14558 0.69971 0.87198 0.0
O36 O 0.17205 0.66463 0.94935 0.0
C37 C 0.1563 0.67897 0.85732 0.0
O38 O 0.08596 0.64925 0.87496 0.0
C39 C 0.16892 0.69134 0.95956 0.0
O40 O 0.09446 0.67323 0.91693 0.0
O41 O 0.15117 0.70678 0.94928 0.0
C42 C 0.8287 0.40062 0.43595 0.0
O43 O 0.83135 0.41053 0.40979 0.0
Cd44 Cd 0.84602 0.3781 0.37128 0.0
O45 O 0.83038 0.37217 0.44171 0.0
Cd46 Cd 0.83446 0.32233 0.4165 0.0
C47 C 0.89325 0.3401 0.40794 0.0
O48 O 0.81939 0.33546 0.3686 0.0
O49 O 0.84082 0.29407 0.37047 0.0
O50 O 0.79588 0.30244 0.43247 0.0
C51 C 0.82836 0.31271 0.35508 0.0
O52 O 0.88566 0.36017 0.38963 0.0
C53 C 0.80462 0.28314 0.4505 0.0
O54 O 0.87847 0.32269 0.42169 0.0
O55 O 0.8277 0.28162 0.45283 0.0
C56 C 0.84325 0.63919 0.8247 0.0
O57 O 0.85216 0.61241 0.82635 0.0
Cd58 Cd 0.86131 0.58719 0.87213 0.0
O59 O 0.83815 0.65407 0.84798 0.0
Cd60 Cd 0.84004 0.64739 0.90149 0.0
C61 C 0.90094 0.64002 0.90197 0.0
O62 O 0.8277 0.59426 0.90469 0.0
O63 O 0.84408 0.61364 0.94395 0.0
O64 O 0.79902 0.66477 0.90951 0.0
C65 C 0.83326 0.59127 0.93173 0.0
O66 O 0.89698 0.61325 0.8919 0.0
C67 C 0.8049 0.68987 0.92155 0.0
O68 O 0.8835 0.65886 0.90579 0.0
O69 O 0.82748 0.6957 0.9244 0.0
C70 C 0.1293 0.34901 0.33134 0.0
O71 O 0.12159 0.3763 0.33388 0.0
Cd72 Cd 0.11302 0.39816 0.38106 0.0
O73 O 0.13377 0.33291 0.35411 0.0
Cd74 Cd 0.13427 0.33577 0.40815 0.0
C75 C 0.07368 0.34228 0.40728 0.0
O76 O 0.14813 0.38836 0.41096 0.0
O77 O 0.13533 0.36846 0.45177 0.0
O78 O 0.17233 0.31029 0.39901 0.0
C79 C 0.14507 0.39096 0.43857 0.0
O80 O 0.07755 0.36917 0.39749 0.0
C81 C 0.17052 0.29127 0.42003 0.0
O82 O 0.09104 0.32366 0.41228 0.0
O83 O 0.15131 0.29249 0.43574 0.0
C84 C 0.85698 0.35712 0.14142 0.0
O85 O 0.86448 0.38402 0.13588 0.0
Cd86 Cd 0.87023 0.40151 0.08617 0.0
O87 O 0.85189 0.33873 0.12056 0.0
Cd88 Cd 0.85022 0.33578 0.06661 0.0
C89 C 0.91054 0.34571 0.0622 0.0
O90 O 0.83448 0.38701 0.05958 0.0
O91 O 0.84721 0.36421 0.02026 0.0
O92 O 0.81318 0.30919 0.0788 0.0
C93 C 0.83688 0.38726 0.03177 0.0
O94 O 0.90578 0.37353 0.06841 0.0
C95 C 0.81521 0.28873 0.05913 0.0
O96 O 0.89376 0.32552 0.06204 0.0
O97 O 0.83424 0.2895 0.04307 0.0
C98 C 0.13609 0.6316 0.64549 0.0
O99 O 0.12886 0.60426 0.64167 0.0
Cd100 Cd 0.12045 0.58316 0.59395 0.0
O101 O 0.1394 0.64938 0.6236 0.0
Cd102 Cd 0.13657 0.64902 0.56949 0.0
C103 C 0.07638 0.635 0.57211 0.0
O104 O 0.15337 0.59813 0.56276 0.0
O105 O 0.13674 0.61855 0.52435 0.0
O106 O 0.17337 0.67873 0.57446 0.0
C107 C 0.14858 0.59643 0.53545 0.0
O108 O 0.08261 0.60772 0.57867 0.0
C109 C 0.1683 0.69784 0.55429 0.0
O110 O 0.0923 0.65611 0.56957 0.0
O111 O 0.14782 0.69484 0.54141 0.0
C112 C 0.62588 0.91161 0.05965 0.0
O113 O 0.61988 0.91265 0.0867 0.0
Cd114 Cd 0.6217 0.86914 0.11887 0.0
O115 O 0.63333 0.8868 0.048 0.0
Cd116 Cd 0.64083 0.83302 0.06132 0.0
C117 C 0.582 0.82291 0.07987 0.0
O118 O 0.65862 0.84288 0.10833 0.0
O119 O 0.64731 0.79616 0.10192 0.0
O120 O 0.67951 0.83392 0.03669 0.0
C121 C 0.65789 0.81579 0.11815 0.0
O122 O 0.58736 0.83783 0.10317 0.0
C123 C 0.67479 0.81243 0.01879 0.0
O124 O 0.59755 0.81942 0.05922 0.0
O125 O 0.65355 0.80077 0.01979 0.0
C126 C 0.3584 0.09317 0.55269 0.0
O127 O 0.36197 0.09168 0.58036 0.0
Cd128 Cd 0.35893 0.13561 0.61176 0.0
O129 O 0.35309 0.1185 0.54028 0.0
Cd130 Cd 0.34617 0.17306 0.55148 0.0
C131 C 0.40334 0.17944 0.57721 0.0
O132 O 0.32374 0.16236 0.59529 0.0
O133 O 0.33446 0.20938 0.59098 0.0
O134 O 0.3147 0.16685 0.51496 0.0
C135 C 0.32314 0.18917 0.6057 0.0
O136 O 0.3954 0.16511 0.59979 0.0
C137 C 0.31736 0.19305 0.50332 0.0
O138 O 0.38988 0.18364 0.55461 0.0
O139 O 0.33443 0.20982 0.51333 0.0
C140 C 0.62186 0.09945 0.93174 0.0
O141 O 0.61796 0.09642 0.90425 0.0
Cd142 Cd 0.62167 0.13857 0.87072 0.0
O143 O 0.62792 0.12526 0.94254 0.0
Cd144 Cd 0.63623 0.17874 0.92869 0.0
C145 C 0.57883 0.18566 0.90413 0.0
O146 O 0.65785 0.16446 0.88528 0.0
O147 O 0.64883 0.21222 0.88713 0.0
O148 O 0.66732 0.17132 0.96536 0.0
C149 C 0.65933 0.19059 0.87345 0.0
O150 O 0.58611 0.1699 0.88215 0.0
C151 C 0.66618 0.19809 0.97604 0.0
O152 O 0.59275 0.19069 0.92616 0.0
O153 O 0.65023 0.21606 0.96524 0.0
C154 C 0.35824 0.90549 0.42469 0.0
O155 O 0.36437 0.90873 0.39783 0.0
Cd156 Cd 0.3611 0.86882 0.3619 0.0
O157 O 0.34991 0.88008 0.43415 0.0
Cd158 Cd 0.34062 0.82806 0.41599 0.0
C159 C 0.39917 0.81723 0.39682 0.0
O160 O 0.3229 0.84468 0.37032 0.0
O161 O 0.33126 0.7967 0.37212 0.0
O162 O 0.30578 0.83178 0.44849 0.0
C163 C 0.3222 0.81887 0.35774 0.0
O164 O 0.39423 0.83415 0.37467 0.0
C165 C 0.30747 0.80472 0.45847 0.0
O166 O 0.38359 0.81294 0.4173 0.0
O167 O 0.32518 0.78857 0.44924 0.0
C168 C 0.34551 0.13657 0.81318 0.0
O169 O 0.35696 0.11138 0.815 0.0
Cd170 Cd 0.3681 0.08868 0.86136 0.0
O171 O 0.33936 0.15097 0.83636 0.0
Cd172 Cd 0.34286 0.14532 0.88981 0.0
C173 C 0.40398 0.14558 0.89056 0.0
O174 O 0.33376 0.09108 0.89385 0.0
O175 O 0.34893 0.11269 0.93274 0.0
O176 O 0.30096 0.15972 0.89742 0.0
C177 C 0.33916 0.08931 0.92103 0.0
O178 O 0.40209 0.11835 0.88077 0.0
C179 C 0.30566 0.18485 0.91016 0.0
O180 O 0.38514 0.16219 0.89407 0.0
O181 O 0.32796 0.192 0.91341 0.0
C182 C 0.63625 0.85296 0.33031 0.0
O183 O 0.62647 0.87888 0.33485 0.0
Cd184 Cd 0.61518 0.89642 0.38315 0.0
O185 O 0.64083 0.83504 0.35171 0.0
Cd186 Cd 0.63709 0.83306 0.40536 0.0
C187 C 0.57612 0.83819 0.40416 0.0
O188 O 0.64774 0.88553 0.41634 0.0
O189 O 0.63122 0.85973 0.45195 0.0
O190 O 0.6786 0.81741 0.41184 0.0
C191 C 0.64152 0.88418 0.44329 0.0
O192 O 0.57992 0.86611 0.39739 0.0
C193 C 0.67385 0.79041 0.42024 0.0
O194 O 0.59379 0.81942 0.40665 0.0
O195 O 0.65155 0.7826 0.42176 0.0
C196 C 0.34586 0.8603 0.14454 0.0
O197 O 0.35512 0.88644 0.13954 0.0
Cd198 Cd 0.36469 0.90373 0.09066 0.0
O199 O 0.34121 0.84202 0.12343 0.0
Cd200 Cd 0.34385 0.8396 0.06943 0.0
C201 C 0.4046 0.84631 0.07014 0.0
O202 O 0.33052 0.89174 0.06008 0.0
O203 O 0.34568 0.86749 0.02287 0.0
O204 O 0.30501 0.81455 0.07541 0.0
C205 C 0.33524 0.89128 0.0327 0.0
O206 O 0.4004 0.87438 0.07589 0.0
C207 C 0.30892 0.79379 0.05645 0.0
O208 O 0.38722 0.82701 0.06875 0.0
O209 O 0.32962 0.79377 0.04383 0.0
C210 C 0.63798 0.12965 0.66761 0.0
O211 O 0.6261 0.10472 0.66664 0.0
Cd212 Cd 0.6133 0.08097 0.62153 0.0
O213 O 0.64398 0.14336 0.64394 0.0
Cd214 Cd 0.63921 0.13571 0.59067 0.0
C215 C 0.57823 0.13862 0.59202 0.0
O216 O 0.6463 0.08082 0.58722 0.0
O217 O 0.62975 0.1026 0.54922 0.0
O218 O 0.6815 0.1467 0.58095 0.0
C219 C 0.63943 0.07894 0.56052 0.0
O220 O 0.57985 0.11157 0.60237 0.0
C221 C 0.67766 0.17108 0.5665 0.0
O222 O 0.59729 0.15465 0.58757 0.0
O223 O 0.65564 0.1797 0.56365 0.0
C224 C 0.04601 0.32189 0.09867 0.0
C225 C 0.06281 0.31921 0.07549 0.0
C226 C 0.0209 0.32048 0.09337 0.0
C227 C 0.01237 0.3163 0.06415 0.0
C228 C 0.0292 0.31104 0.04101 0.0
C229 C 0.05432 0.31256 0.04696 0.0
C230 C 0.00354 0.32588 0.11876 0.0
C231 C 0.02076 0.30607 0.00966 0.0
C232 C 0.94378 0.30629 0.06013 0.0
C233 C 0.93626 0.33688 0.05742 0.0
C234 C 0.96868 0.29869 0.06027 0.0
C235 C 0.98628 0.32227 0.05762 0.0
C236 C 0.97869 0.3528 0.0526 0.0
C237 C 0.95379 0.35972 0.05258 0.0
C238 C 0.97612 0.26582 0.06523 0.0
C239 C -0.00313 0.37861 0.04936 0.0
H240 H 0.05244 0.32646 0.12088 0.0
H241 H 0.06722 0.3102 0.02896 0.0
H242 H -0.00529 0.34858 0.11612 0.0
H243 H 0.9889 0.30835 0.11885 0.0
H244 H 0.01296 0.32537 0.14049 0.0
H245 H 0.03547 0.2964 -0.00439 0.0
H246 H 0.00478 0.29049 0.00897 0.0
H247 H 0.01502 0.32829 2e-05 0.0
H248 H 0.93031 0.28848 0.06366 0.0
H249 H 0.9481 0.38333 0.04992 0.0
H250 H 0.98224 0.26291 0.08841 0.0
H251 H -0.00838 0.2595 0.05071 0.0
H252 H 0.96077 0.24975 0.06115 0.0
H253 H 0.00639 0.3823 0.07071 0.0
H254 H 0.98804 0.40046 0.04273 0.0
H255 H 0.01091 0.3727 0.03269 0.0
C256 C 0.93215 0.6631 0.55276 0.0
C257 C 0.92199 0.6583 0.58083 0.0
C258 C 0.95754 0.66347 0.54873 0.0
C259 C 0.97304 0.65911 0.57339 0.0
C260 C 0.96289 0.65615 0.60198 0.0
C261 C 0.9375 0.65569 0.60534 0.0
C262 C 0.96772 0.66673 0.51792 0.0
C263 C 0.97882 0.65176 0.62888 0.0
C264 C 0.03334 0.61804 0.56564 0.0
C265 C 0.05012 0.64205 0.56893 0.0
C266 C 0.0082 0.62359 0.56563 0.0
C267 C -0.00043 0.6539 0.56917 0.0
C268 C 0.01637 0.67845 0.57114 0.0
C269 C 0.04152 0.67224 0.5709 0.0
C270 C -0.00912 0.59678 0.56314 0.0
C271 C 0.00779 0.71105 0.57492 0.0
H272 H 0.92029 0.66527 0.53371 0.0
H273 H 0.92981 0.65242 0.62717 0.0
H274 H 0.9829 0.68353 0.51757 0.0
H275 H 0.97524 0.64441 0.51058 0.0
H276 H 0.95359 0.67408 0.50182 0.0
H277 H 0.96824 0.65297 0.64977 0.0
H278 H 0.98786 0.62905 0.62776 0.0
H279 H -0.00661 0.66938 0.62953 0.0
H280 H 0.03983 0.59469 0.5637 0.0
H281 H 0.0544 0.6909 0.5734 0.0
H282 H 0.97725 0.60104 0.5455 0.0
H283 H 0.98075 0.59397 0.58418 0.0
H284 H 0.00051 0.57499 0.55822 0.0
H285 H -0.00656 0.7166 0.55849 0.0
H286 H 0.02294 0.72778 0.57258 0.0
H287 H -0.0004 0.71383 0.59716 0.0
C288 C 0.94437 0.62688 0.91123 0.0
C289 C 0.92638 0.64938 0.90777 0.0
C290 C 0.96905 0.63475 0.91304 0.0
C291 C 0.97595 0.66593 0.9111 0.0
C292 C 0.95782 0.68893 0.90941 0.0
C293 C 0.93313 0.68037 0.90786 0.0
C294 C 0.9878 0.60949 0.91528 0.0
C295 C 0.96451 0.72239 0.90742 0.0
C296 C 0.04289 0.67694 0.92836 0.0
C297 C 0.05312 0.67246 0.9003 0.0
C298 C 0.01747 0.6774 0.93215 0.0
C299 C 0.00213 0.67353 0.90726 0.0
C300 C 0.01243 0.67192 0.87865 0.0
C301 C 0.03781 0.67125 0.87554 0.0
C302 C 0.00714 0.67942 0.96297 0.0
C303 C -0.00329 0.66827 0.85147 0.0
H304 H 0.93922 0.60291 0.91169 0.0
H305 H 0.91927 0.69786 0.9053 0.0
H306 H -0.00162 0.60825 0.89442 0.0
H307 H 0.00087 0.61436 0.93338 0.0
H308 H 0.97934 0.58675 0.91935 0.0
H309 H 0.94854 0.73747 0.91147 0.0
H310 H 0.97907 0.72816 0.92349 0.0
H311 H 0.97169 0.72739 0.88502 0.0
H312 H 0.05467 0.67804 0.94757 0.0
H313 H 0.04567 0.66836 0.85375 0.0
H314 H 0.00137 0.65627 0.9703 0.0
H315 H -0.0092 0.69441 0.96347 0.0
H316 H 0.02078 0.68828 0.97897 0.0
H317 H 0.98864 0.64496 0.85123 0.0
H318 H 0.00729 0.67147 0.83077 0.0
H319 H 0.98146 0.68494 0.85172 0.0
C320 C 0.03439 0.32599 0.38613 0.0
C321 C 0.04837 0.33259 0.41113 0.0
C322 C 0.00905 0.32277 0.38824 0.0
C323 C -0.00245 0.32691 0.41596 0.0
C324 C 0.01186 0.33179 0.44159 0.0
C325 C 0.03727 0.33458 0.43884 0.0
C326 C -0.00554 0.31723 0.36045 0.0
C327 C 0.00026 0.33649 0.47146 0.0
C328 C 0.93495 0.36233 0.40891 0.0
C329 C 0.91971 0.3369 0.41273 0.0
C330 C 0.96029 0.35954 0.41138 0.0
C331 C 0.97066 0.33045 0.41714 0.0
C332 C 0.95535 0.3048 0.4218 0.0
C333 C 0.92994 0.30841 0.41984 0.0
C334 C 0.976 0.38761 0.40687 0.0
C335 C 0.96581 0.27338 0.42752 0.0
H336 H 0.0432 0.32475 0.36472 0.0
H337 H 0.04829 0.34008 0.45802 0.0
H338 H 0.98065 0.29905 0.36413 0.0
H339 H 0.98455 0.33845 0.35432 0.0
H340 H 0.00624 0.31047 0.34159 0.0
H341 H 0.01387 0.33539 0.48961 0.0
H342 H -0.00865 0.3593 0.47206 0.0
H343 H 0.98592 0.31907 0.47554 0.0
H344 H 0.92703 0.38445 0.40378 0.0
H345 H 0.91814 0.2887 0.42269 0.0
H346 H 0.98693 0.38501 0.38641 0.0
H347 H 0.98897 0.39023 0.42551 0.0
H348 H 0.965 0.40889 0.40501 0.0
H349 H 0.97546 0.26524 0.40747 0.0
H350 H 0.95148 0.25643 0.43336 0.0
H351 H 0.97941 0.27428 0.44565 0.0
C352 C 0.43641 0.80514 0.06536 0.0
C353 C 0.43018 0.83631 0.06621 0.0
C354 C 0.46097 0.7959 0.06435 0.0
C355 C 0.47956 0.8184 0.0643 0.0
C356 C 0.47328 0.84984 0.06363 0.0
C357 C 0.44872 0.85836 0.06456 0.0
C358 C 0.46697 0.76219 0.06473 0.0
C359 C 0.49254 0.87464 0.06338 0.0
C360 C 0.54095 0.81143 0.10036 0.0
C361 C 0.55642 0.81313 0.07578 0.0
C362 C 0.51563 0.80978 0.09688 0.0
C363 C 0.50559 0.80992 0.06809 0.0
C364 C 0.5212 0.80812 0.04325 0.0
C365 C 0.54656 0.80973 0.04739 0.0
C366 C 0.49965 0.81124 0.124 0.0
C367 C 0.51115 0.80758 0.01223 0.0
H368 H 0.42218 0.78794 0.06643 0.0
H369 H 0.44411 0.8825 0.06474 0.0
H370 H 0.48208 0.75697 0.04923 0.0
H371 H 0.4731 0.75554 0.08719 0.0
H372 H 0.45092 0.74791 0.05883 0.0
H373 H 0.48457 0.8979 0.06104 0.0
H374 H 0.50313 0.87384 0.08426 0.0
H375 H 0.50552 0.87088 0.04496 0.0
H376 H 0.54853 0.81335 0.12241 0.0
H377 H 0.55846 0.8107 0.02829 0.0
H378 H 0.48433 0.79475 0.12228 0.0
H379 H 0.49168 0.83453 0.12591 0.0
H380 H 0.51003 0.80629 0.14453 0.0
H381 H 0.49482 0.79264 0.0108 0.0
H382 H 0.52497 0.79949 -0.00392 0.0
H383 H 0.50551 0.83107 0.00582 0.0
C384 C 0.55001 0.18266 0.58139 0.0
C385 C 0.55376 0.15114 0.58545 0.0
C386 C 0.52638 0.19445 0.57715 0.0
C387 C 0.50624 0.17416 0.57691 0.0
C388 C 0.51012 0.14224 0.57975 0.0
C389 C 0.53377 0.13119 0.58406 0.0
C390 C 0.52293 0.22859 0.57416 0.0
C391 C 0.48917 0.11969 0.57931 0.0
C392 C 0.44254 0.19 0.60285 0.0
C393 C 0.42952 0.18733 0.57633 0.0
C394 C 0.46806 0.18938 0.60307 0.0
C395 C 0.48078 0.18569 0.57612 0.0
C396 C 0.46783 0.18656 0.54906 0.0
C397 C 0.44222 0.18748 0.54947 0.0
C398 C 0.48118 0.18919 0.63239 0.0
C399 C 0.48078 0.18314 0.51985 0.0
H400 H 0.56541 0.1982 0.58236 0.0
H401 H 0.53654 0.10676 0.58672 0.0
H402 H 0.50976 0.23396 0.55628 0.0
H403 H 0.51531 0.23783 0.59502 0.0
H404 H 0.5404 0.24055 0.56952 0.0
H405 H 0.49548 0.09553 0.58011 0.0
H406 H 0.47708 0.12381 0.59855 0.0
H407 H 0.47807 0.12288 0.55905 0.0
H408 H 0.43275 0.19056 0.62365 0.0
H409 H 0.43223 0.18568 0.52887 0.0
H410 H 0.49784 0.20356 0.63145 0.0
H411 H 0.48692 0.16545 0.63771 0.0
H412 H 0.46936 0.1976 0.65059 0.0
H413 H 0.49807 0.19634 0.51962 0.0
H414 H 0.46917 0.19084 0.50114 0.0
H415 H 0.48541 0.15867 0.51635 0.0
C416 C 0.54033 0.1943 0.93235 0.0
C417 C 0.55279 0.19402 0.90532 0.0
C418 C 0.51473 0.19328 0.9331 0.0
C419 C 0.50156 0.19221 0.90622 0.0
C420 C 0.51403 0.19583 0.87908 0.0
C421 C 0.53954 0.19652 0.87896 0.0
C422 C 0.50206 0.18996 0.9625 0.0
C423 C 0.50064 0.19547 0.84993 0.0
C424 C 0.44841 0.13781 0.89883 0.0
C425 C 0.4285 0.15785 0.89731 0.0
C426 C 0.4721 0.14878 0.90311 0.0
C427 C 0.47608 0.1807 0.90581 0.0
C428 C 0.45601 0.20106 0.90556 0.0
C429 C 0.43236 0.18937 0.90133 0.0
C430 C 0.49299 0.12618 0.90358 0.0
C431 C 0.45954 0.2352 0.90846 0.0
H432 H 0.55052 0.19258 0.95282 0.0
H433 H 0.54916 0.19691 0.85804 0.0
H434 H 0.48471 0.20302 0.96286 0.0
H435 H 0.49757 0.16548 0.96625 0.0
H436 H 0.51379 0.19787 0.981 0.0
H437 H 0.51232 0.20371 0.83151 0.0
H438 H 0.4948 0.1717 0.84489 0.0
H439 H 0.48403 0.2099 0.85098 0.0
H440 H 0.44556 0.11339 0.89619 0.0
H441 H 0.41703 0.205 0.90029 0.0
H442 H 0.50423 0.1295 0.92371 0.0
H443 H 0.50498 0.13011 0.8842 0.0
H444 H 0.48662 0.10204 0.90304 0.0
H445 H 0.47289 0.24057 0.92614 0.0
H446 H 0.44213 0.24718 0.91333 0.0
H447 H 0.46696 0.24443 0.88747 0.0
C448 C 0.43455 0.80129 0.42817 0.0
C449 C 0.42445 0.80607 0.40009 0.0
C450 C 0.45993 0.79883 0.43181 0.0
C451 C 0.47529 0.80117 0.40677 0.0
C452 C 0.46491 0.80216 0.37817 0.0
C453 C 0.43959 0.8047 0.37518 0.0
C454 C 0.47031 0.79705 0.46262 0.0
C455 C 0.4806 0.80412 0.35082 0.0
C456 C 0.53206 0.84971 0.4107 0.0
C457 C 0.55065 0.82783 0.40825 0.0
C458 C 0.50755 0.84104 0.41178 0.0
C459 C 0.50135 0.8096 0.41039 0.0
C460 C 0.52001 0.78721 0.40953 0.0
C461 C 0.54454 0.79661 0.40844 0.0
C462 C 0.48825 0.86575 0.41297 0.0
C463 C 0.5141 0.75349 0.40832 0.0
H464 H 0.4229 0.80198 0.4475 0.0
H465 H 0.43178 0.80767 0.35336 0.0
H466 H 0.48655 0.7819 0.46329 0.0
H467 H 0.47619 0.82023 0.46968 0.0
H468 H 0.4566 0.78852 0.47871 0.0
H469 H 0.46994 0.79972 0.33039 0.0
H470 H 0.48866 0.82739 0.34925 0.0
H471 H 0.49584 0.78748 0.35196 0.0
H472 H 0.53662 0.87387 0.41108 0.0
H473 H 0.55883 0.77955 0.40672 0.0
H474 H 0.47549 0.8614 0.43151 0.0
H475 H 0.47743 0.86552 0.39225 0.0
H476 H 0.4962 0.88897 0.41578 0.0
H477 H 0.49879 0.74777 0.42336 0.0
H478 H 0.53014 0.73919 0.41425 0.0
H479 H 0.50838 0.74736 0.38558 0.0
C480 C 0.17787 0.31792 0.17214 0.0
C481 C 0.16175 0.30117 0.15445 0.0
C482 C 0.17446 0.31964 0.20268 0.0
C483 C 0.1542 0.30463 0.21554 0.0
C484 C 0.13941 0.28508 0.19819 0.0
C485 C 0.14349 0.2834 0.16767 0.0
C486 C 0.191 0.34012 0.2206 0.0
C487 C 0.11771 0.2686 0.21118 0.0
C488 C 0.1483 0.30952 0.29875 0.0
C489 C 0.13417 0.33616 0.30182 0.0
C490 C 0.15444 0.29826 0.27074 0.0
C491 C 0.14608 0.31393 0.24537 0.0
C492 C 0.13106 0.34014 0.24835 0.0
C493 C 0.12539 0.35103 0.27657 0.0
C494 C 0.17061 0.27039 0.26832 0.0
C495 C 0.12155 0.35727 0.22171 0.0
H496 H 0.19218 0.33135 0.16184 0.0
H497 H 0.13101 0.27039 0.15397 0.0
H498 H 0.18134 0.36182 0.22568 0.0
H499 H 0.19586 0.32915 0.24189 0.0
H500 H 0.20806 0.3458 0.20853 0.0
H501 H 0.11115 0.24997 0.19649 0.0
H502 H 0.12219 0.25876 0.2331 0.0
H503 H 0.10259 0.28517 0.21434 0.0
H504 H 0.15517 0.29793 0.31822 0.0
H505 H 0.11428 0.37142 0.27883 0.0
H506 H 0.18877 0.2773 0.25982 0.0
H507 H 0.16285 0.25372 0.25241 0.0
H508 H 0.17317 0.2588 0.28996 0.0
H509 H 0.13704 0.3673 0.20923 0.0
H510 H 0.10887 0.37604 0.22787 0.0
H511 H 0.11187 0.34135 0.20664 0.0
C512 C 0.79965 0.68102 0.66557 0.0
C513 C 0.81833 0.6942 0.64879 0.0
C514 C 0.80142 0.67952 0.69633 0.0
C515 C 0.82255 0.69119 0.7103 0.0
C516 C 0.83977 0.70823 0.69377 0.0
C517 C 0.83739 0.70968 0.66296 0.0
C518 C 0.78232 0.66183 0.71326 0.0
C519 C 0.86233 0.72146 0.70799 0.0
C520 C 0.82686 0.68176 0.79339 0.0
C521 C 0.83875 0.65334 0.79556 0.0
C522 C 0.822 0.69503 0.76579 0.0
C523 C 0.82919 0.67943 0.73989 0.0
C524 C 0.84171 0.65111 0.74198 0.0
C525 C 0.84628 0.63841 0.76979 0.0
C526 C 0.8086 0.72519 0.76435 0.0
C527 C 0.84983 0.63382 0.71478 0.0
H528 H 0.78474 0.66941 0.65448 0.0
H529 H 0.85182 0.72 0.64995 0.0
H530 H 0.78928 0.63846 0.71798 0.0
H531 H 0.77829 0.67298 0.7347 0.0
H532 H 0.76508 0.65965 0.70052 0.0
H533 H 0.87072 0.73952 0.69399 0.0
H534 H 0.85811 0.73126 0.72999 0.0
H535 H 0.87595 0.70295 0.7112 0.0
H536 H 0.82101 0.6935 0.81325 0.0
H537 H 0.85564 0.6166 0.77129 0.0
H538 H 0.78975 0.72126 0.75631 0.0
H539 H 0.81758 0.74099 0.74853 0.0
H540 H 0.80758 0.73652 0.78628 0.0
H541 H 0.83368 0.62714 0.70146 0.0
H542 H 0.86025 0.61277 0.72032 0.0
H543 H 0.86146 0.64866 0.70073 0.0
C544 C 0.17527 0.66138 0.8107 0.0
C545 C 0.1592 0.68126 0.82513 0.0
C546 C 0.17422 0.6576 0.78004 0.0
C547 C 0.15626 0.67359 0.76371 0.0
C548 C 0.14136 0.69559 0.77788 0.0
C549 C 0.14319 0.69941 0.80854 0.0
C550 C 0.19088 0.63454 0.76557 0.0
C551 C 0.12187 0.7129 0.76125 0.0
C552 C 0.15661 0.66786 0.68014 0.0
C553 C 0.14091 0.64291 0.67559 0.0
C554 C 0.1618 0.67832 0.70874 0.0
C555 C 0.15062 0.66381 0.73315 0.0
C556 C 0.13436 0.63904 0.72861 0.0
C557 C 0.1299 0.62868 0.69987 0.0
C558 C 0.17957 0.70439 0.71287 0.0
C559 C 0.12177 0.62329 0.75415 0.0
H560 H 0.1878 0.64755 0.82359 0.0
H561 H 0.13068 0.71474 0.81973 0.0
H562 H 0.18037 0.61354 0.76022 0.0
H563 H 0.19831 0.64372 0.74457 0.0
H564 H 0.20633 0.62803 0.78018 0.0
H565 H 0.11455 0.73239 0.77428 0.0
H566 H 0.12901 0.72175 0.73998 0.0
H567 H 0.10657 0.69712 0.75608 0.0
H568 H 0.16526 0.67881 0.66136 0.0
H569 H 0.1176 0.60958 0.69639 0.0
H570 H 0.1956 0.69633 0.72566 0.0
H571 H 0.17097 0.72307 0.72578 0.0
H572 H 0.18604 0.71389 0.6915 0.0
H573 H 0.13553 0.6124 0.76873 0.0
H574 H 0.10874 0.6054 0.74669 0.0
H575 H 0.11169 0.64033 0.76761 0.0
C576 C 0.83879 0.32131 0.17829 0.0
C577 C 0.85308 0.34725 0.17224 0.0
C578 C 0.83387 0.31242 0.20741 0.0
C579 C 0.84373 0.32968 0.23095 0.0
C580 C 0.85867 0.35541 0.22501 0.0
C581 C 0.86303 0.36404 0.19567 0.0
C582 C 0.81762 0.28508 0.21298 0.0
C583 C 0.86975 0.37413 0.24965 0.0
C584 C 0.8142 0.3317 0.30628 0.0
C585 C 0.82989 0.31288 0.32262 0.0
C586 C 0.81778 0.33612 0.27597 0.0
C587 C 0.83773 0.32169 0.26189 0.0
C588 C 0.8529 0.30144 0.27796 0.0
C589 C 0.84867 0.29707 0.3082 0.0
C590 C 0.80094 0.35743 0.25937 0.0
C591 C 0.87443 0.28582 0.26364 0.0
H592 H 0.83095 0.3083 0.16025 0.0
H593 H 0.87421 0.38396 0.1911 0.0
H594 H 0.82704 0.26828 0.2274 0.0
H595 H 0.80088 0.29249 0.22475 0.0
H596 H 0.81216 0.27342 0.19221 0.0
H597 H 0.88192 0.39252 0.24127 0.0
H598 H 0.85507 0.38481 0.26298 0.0
H599 H 0.8804 0.35911 0.26465 0.0
H600 H 0.79956 0.34376 0.31739 0.0
H601 H 0.86088 0.28257 0.32081 0.0
H602 H 0.79428 0.34634 0.23885 0.0
H603 H 0.81106 0.37835 0.25277 0.0
H604 H 0.78495 0.3644 0.27284 0.0
H605 H 0.86876 0.27418 0.24299 0.0
H606 H 0.88308 0.2687 0.27848 0.0
H607 H 0.88831 0.30322 0.25757 0.0
C608 C 0.65792 0.81834 0.29515 0.0
C609 C 0.64213 0.84314 0.29999 0.0
C610 C 0.66355 0.80867 0.26643 0.0
C611 C 0.65287 0.82396 0.24216 0.0
C612 C 0.63671 0.84879 0.24693 0.0
C613 C 0.63169 0.85823 0.27581 0.0
C614 C 0.68111 0.78243 0.26205 0.0
C615 C 0.62477 0.86549 0.2215 0.0
C616 C 0.67802 0.82908 0.16524 0.0
C617 C 0.66144 0.81065 0.14988 0.0
C618 C 0.67712 0.83119 0.19603 0.0
C619 C 0.65884 0.81492 0.21152 0.0
C620 C 0.64364 0.79395 0.19635 0.0
C621 C 0.64528 0.79185 0.16552 0.0
C622 C 0.69407 0.85318 0.21154 0.0
C623 C 0.62389 0.77626 0.21213 0.0
H624 H 0.66613 0.80666 0.31381 0.0
H625 H 0.61934 0.87724 0.27945 0.0
H626 H 0.67241 0.76412 0.24875 0.0
H627 H 0.69731 0.79045 0.24956 0.0
H628 H 0.68735 0.77245 0.28333 0.0
H629 H 0.61196 0.88356 0.22907 0.0
H630 H 0.63891 0.87634 0.20744 0.0
H631 H 0.61457 0.84906 0.20746 0.0
H632 H 0.69068 0.84338 0.15302 0.0
H633 H 0.6324 0.77763 0.15359 0.0
H634 H 0.70098 0.84315 0.23245 0.0
H635 H 0.68396 0.87438 0.21721 0.0
H636 H 0.70987 0.85956 0.19746 0.0
H637 H 0.63071 0.76678 0.2333 0.0
H638 H 0.61672 0.75719 0.19841 0.0
H639 H 0.60856 0.79194 0.21735 0.0
C640 C 0.32242 0.17357 0.78163 0.0
C641 C 0.33929 0.14949 0.78402 0.0
C642 C 0.31619 0.18582 0.754 0.0
C643 C 0.32728 0.17383 0.72834 0.0
C644 C 0.34461 0.14987 0.73067 0.0
C645 C 0.35028 0.13786 0.75848 0.0
C646 C 0.29748 0.21111 0.75222 0.0
C647 C 0.35703 0.13667 0.70372 0.0
C648 C 0.30218 0.17295 0.65139 0.0
C649 C 0.31828 0.19313 0.63735 0.0
C650 C 0.30293 0.16897 0.68202 0.0
C651 C 0.32049 0.18525 0.69868 0.0
C652 C 0.33475 0.20828 0.68502 0.0
C653 C 0.33333 0.21215 0.65433 0.0
C654 C 0.28695 0.14476 0.69592 0.0
C655 C 0.35361 0.2262 0.70208 0.0
H656 H 0.3138 0.18259 0.80132 0.0
H657 H 0.36346 0.11944 0.76022 0.0
H658 H 0.30487 0.23086 0.73967 0.0
H659 H 0.28115 0.20285 0.74012 0.0
H660 H 0.29167 0.21917 0.7744 0.0
H661 H 0.37074 0.11893 0.70951 0.0
H662 H 0.34325 0.12621 0.68888 0.0
H663 H 0.36629 0.15513 0.69114 0.0
H664 H 0.29034 0.15851 0.63817 0.0
H665 H 0.34577 0.22783 0.64348 0.0
H666 H 0.27987 0.15253 0.71759 0.0
H667 H 0.29789 0.12376 0.69978 0.0
H668 H 0.27128 0.1387 0.68149 0.0
H669 H 0.34657 0.23301 0.72407 0.0
H670 H 0.35945 0.24708 0.68995 0.0
H671 H 0.3699 0.21158 0.7057 0.0
C672 C 0.68027 0.17108 0.82897 0.0
C673 C 0.66452 0.19256 0.84169 0.0
C674 C 0.67988 0.16563 0.79854 0.0
C675 C 0.66299 0.18173 0.78072 0.0
C676 C 0.64905 0.20585 0.793 0.0
C677 C 0.65013 0.21119 0.8235 0.0
C678 C 0.6955 0.14024 0.78615 0.0
C679 C 0.63085 0.22356 0.7747 0.0
C680 C 0.66193 0.16671 0.69819 0.0
C681 C 0.64448 0.14323 0.69639 0.0
C682 C 0.66817 0.17974 0.72548 0.0
C683 C 0.65645 0.16922 0.75137 0.0
C684 C 0.63863 0.14579 0.74961 0.0
C685 C 0.63299 0.13294 0.72216 0.0
C686 C 0.68746 0.20439 0.72669 0.0
C687 C 0.62554 0.13414 0.77678 0.0
H688 H 0.69159 0.15691 0.84311 0.0
H689 H 0.63792 0.22783 0.83334 0.0
H690 H 0.68414 0.11947 0.78297 0.0
H691 H 0.7031 0.14673 0.76432 0.0
H692 H 0.71079 0.13432 0.80122 0.0
H693 H 0.62518 0.24509 0.7858 0.0
H694 H 0.63844 0.22923 0.75266 0.0
H695 H 0.61437 0.20924 0.7712 0.0
H696 H 0.67093 0.17469 0.67831 0.0
H697 H 0.61937 0.11499 0.72087 0.0
H698 H 0.70316 0.19634 0.74008 0.0
H699 H 0.68015 0.22514 0.73766 0.0
H700 H 0.69418 0.21082 0.70439 0.0
H701 H 0.63886 0.12386 0.79235 0.0
H702 H 0.61153 0.11661 0.7714 0.0
H703 H 0.61649 0.1534 0.7884 0.0
C704 C 0.35238 0.86449 0.19881 0.0
C705 C 0.34013 0.85098 0.17503 0.0
C706 C 0.3472 0.85574 0.22789 0.0
C707 C 0.32894 0.83346 0.23326 0.0
C708 C 0.31638 0.81987 0.20936 0.0
C709 C 0.32231 0.82858 0.18043 0.0
C710 C 0.36129 0.87036 0.25287 0.0
C711 C 0.29646 0.79655 0.21437 0.0
C712 C 0.33377 0.79738 0.30887 0.0
C713 C 0.31934 0.81745 0.3255 0.0
C714 C 0.33595 0.80109 0.27824 0.0
C715 C 0.32296 0.82497 0.26409 0.0
C716 C 0.30656 0.84332 0.28046 0.0
C717 C 0.30517 0.83956 0.31111 0.0
C718 C 0.35383 0.78129 0.26156 0.0
C719 C 0.2919 0.86846 0.26599 0.0
H720 H 0.36628 0.88163 0.19466 0.0
H721 H 0.31267 0.81826 0.16205 0.0
H722 H 0.34866 0.88323 0.26742 0.0
H723 H 0.37012 0.85242 0.26657 0.0
H724 H 0.37559 0.88635 0.24483 0.0
H725 H 0.28858 0.78798 0.19333 0.0
H726 H 0.30367 0.77679 0.22706 0.0
H727 H 0.28162 0.80686 0.22773 0.0
H728 H 0.34485 0.78036 0.32002 0.0
H729 H 0.29388 0.85492 0.32403 0.0
H730 H 0.37009 0.79515 0.25565 0.0
H731 H 0.34567 0.77287 0.24068 0.0
H732 H 0.35995 0.76131 0.27483 0.0
H733 H 0.30416 0.8878 0.26023 0.0
H734 H 0.2773 0.87724 0.28073 0.0
H735 H 0.28346 0.86019 0.2452 0.0
C736 C 0.2882 0.23573 0.92302 0.0
C737 C 0.28599 0.20383 0.92218 0.0
C738 C 0.26987 0.2537 0.93587 0.0
C739 C 0.24957 0.23915 0.94917 0.0
C740 C 0.24711 0.20693 0.94781 0.0
C741 C 0.26519 0.18968 0.93379 0.0
C742 C 0.27259 0.2881 0.93603 0.0
C743 C 0.22616 0.19051 0.96265 0.0
C744 C 0.22106 0.27825 0.0149 0.0
C745 C 0.19846 0.28723 0.00347 0.0
C746 C 0.2379 0.26267 -0.00267 0.0
C747 C 0.23231 0.25709 0.9673 0.0
C748 C 0.20984 0.26718 0.95532 0.0
C749 C 0.19285 0.28163 0.97382 0.0
C750 C 0.26131 0.25131 0.01117 0.0
C751 C 0.20374 0.26257 0.92311 0.0
H752 H 0.30422 0.24658 0.91365 0.0
H753 H 0.26364 0.16492 0.93319 0.0
H754 H 0.25528 0.29918 0.92914 0.0
H755 H 0.27675 0.29606 0.95873 0.0
H756 H 0.28745 0.29594 0.92114 0.0
H757 H 0.22643 0.16545 0.95841 0.0
H758 H 0.22708 0.19429 0.98687 0.0
H759 H 0.20848 0.19983 0.9549 0.0
H760 H 0.22521 0.28247 0.03797 0.0
H761 H 0.17538 0.28893 0.96507 0.0
H762 H 0.27726 0.26133 -0.00038 0.0
H763 H 0.26256 0.22606 0.00885 0.0
H764 H 0.26261 0.25717 0.03499 0.0
H765 H 0.21877 0.2714 0.90907 0.0
H766 H 0.18653 0.27425 0.91673 0.0
H767 H 0.20184 0.23778 0.91833 0.0
C768 C 0.79227 0.69822 0.47123 0.0
C769 C 0.7861 0.6835 0.49766 0.0
C770 C 0.77415 0.7119 0.45371 0.0
C771 C 0.74967 0.71185 0.46369 0.0
C772 C 0.74328 0.69571 0.48965 0.0
C773 C 0.76155 0.68125 0.50601 0.0
C774 C 0.7814 0.7278 0.42544 0.0
C775 C 0.71754 0.69594 0.50162 0.0
C776 C 0.71134 0.78188 0.44894 0.0
C777 C 0.69354 0.7702 0.42995 0.0
C778 C 0.73002 0.76316 0.45962 0.0
C779 C 0.73143 0.73238 0.44997 0.0
C780 C 0.71411 0.72088 0.42957 0.0
C781 C 0.69489 0.73983 0.4203 0.0
C782 C 0.74758 0.77602 0.48219 0.0
C783 C 0.71574 0.68859 0.41789 0.0
H784 H 0.81124 0.6996 0.46459 0.0
H785 H 0.75674 0.66991 0.52651 0.0
H786 H 0.76788 0.72318 0.40774 0.0
H787 H 0.78187 0.75291 0.42906 0.0
H788 H 0.79972 0.72042 0.41775 0.0
H789 H 0.71533 0.68046 0.52092 0.0
H790 H 0.71268 0.71954 0.50855 0.0
H791 H 0.70435 0.68897 0.48433 0.0
H792 H 0.7101 0.80547 0.4563 0.0
H793 H 0.68119 0.73115 0.40519 0.0
H794 H 0.76657 0.77431 0.47395 0.0
H795 H 0.74649 0.76247 0.5029 0.0
H796 H 0.74373 0.80038 0.48749 0.0
H797 H 0.73461 0.68362 0.41039 0.0
H798 H 0.70298 0.68463 0.39922 0.0
H799 H 0.71136 0.67207 0.43572 0.0
C800 C 0.26857 0.76933 0.06537 0.0
C801 C 0.28925 0.77285 0.04748 0.0
C802 C 0.24807 0.75338 0.05515 0.0
C803 C 0.24819 0.74135 0.02618 0.0
C804 C 0.2695 0.74348 0.00861 0.0
C805 C 0.28992 0.75898 0.01964 0.0
C806 C 0.22591 0.75074 0.07478 0.0
C807 C 0.27023 0.73106 0.97749 0.0
C808 C 0.20185 0.68504 -0.00319 0.0
C809 C 0.18656 0.70445 0.98049 0.0
C810 C 0.22119 0.69692 0.01346 0.0
C811 C 0.22555 0.72882 0.01312 0.0
C812 C 0.20938 0.74864 -0.00208 0.0
C813 C 0.18986 0.73618 0.98199 0.0
C814 C 0.23764 0.67522 0.03013 0.0
C815 C 0.2136 0.78281 -0.0031 0.0
H816 H 0.26814 0.77982 0.08706 0.0
H817 H 0.30589 0.76173 0.00576 0.0
H818 H 0.21124 0.76589 0.06632 0.0
H819 H 0.21874 0.72697 0.07458 0.0
H820 H 0.22997 0.75736 0.09795 0.0
H821 H 0.28861 0.73318 0.96736 0.0
H822 H 0.26481 0.7066 0.97727 0.0
H823 H 0.25697 0.7437 0.96353 0.0
H824 H 0.19911 0.66047 -0.00408 0.0
H825 H 0.17805 0.75116 0.96933 0.0
H826 H 0.24118 0.68388 0.05276 0.0
H827 H 0.25549 0.67359 0.01871 0.0
H828 H 0.22972 0.65185 0.03172 0.0
H829 H 0.21554 0.79209 0.01957 0.0
H830 H 0.19853 0.79515 0.9856 0.0
H831 H 0.23087 0.78768 0.98499 0.0
C832 C 0.69658 0.21908 0.54751 0.0
C833 C 0.69788 0.18747 0.55228 0.0
C834 C 0.71551 0.2345 0.53293 0.0
C835 C 0.73563 0.21759 0.52203 0.0
C836 C 0.73707 0.18569 0.52706 0.0
C837 C 0.71832 0.17107 0.54259 0.0
C838 C 0.71375 0.26873 0.52868 0.0
C839 C 0.75784 0.16678 0.51492 0.0
C840 C 0.76691 0.25259 0.45578 0.0
C841 C 0.78831 0.26413 0.4684 0.0
C842 C 0.74999 0.23647 0.47288 0.0
C843 C 0.75424 0.23292 0.50352 0.0
C844 C 0.77595 0.24441 0.51636 0.0
C845 C 0.79302 0.25948 0.49843 0.0
C846 C 0.72745 0.22361 0.45823 0.0
C847 C 0.78067 0.2418 0.54912 0.0
H848 H 0.68082 0.23172 0.55528 0.0
H849 H 0.71918 0.14653 0.54613 0.0
H850 H 0.7309 0.27995 0.53595 0.0
H851 H 0.71129 0.27405 0.50491 0.0
H852 H 0.69826 0.27883 0.54113 0.0
H853 H 0.75669 0.14238 0.52176 0.0
H854 H 0.75767 0.16786 0.49043 0.0
H855 H 0.7756 0.17616 0.52238 0.0
H856 H 0.76344 0.25621 0.43245 0.0
H857 H 0.80951 0.26886 0.50812 0.0
H858 H 0.71098 0.2353 0.46687 0.0
H859 H 0.72557 0.19888 0.46344 0.0
H860 H 0.72785 0.22641 0.43385 0.0
H861 H 0.76616 0.25406 0.56145 0.0
H862 H 0.79864 0.25152 0.55551 0.0
H863 H 0.78002 0.21747 0.55612 0.0
C864 C 0.68876 0.78567 0.97314 0.0
C865 C 0.69414 0.79948 0.00023 0.0
C866 C 0.7071 0.77091 0.9569 0.0
C867 C 0.73093 0.76889 0.96885 0.0
C868 C 0.73652 0.78357 -0.00415 0.0
C869 C 0.71811 0.79921 0.01094 0.0
C870 C 0.70079 0.75653 0.92757 0.0
C871 C 0.76146 0.78099 0.00987 0.0
C872 C 0.76765 0.69821 0.95084 0.0
C873 C 0.78608 0.71034 0.93303 0.0
C874 C 0.74951 0.7171 0.96255 0.0
C875 C 0.74931 0.7486 0.95511 0.0
C876 C 0.76746 0.76074 0.93617 0.0
C877 C 0.78607 0.74148 0.92584 0.0
C878 C 0.73101 0.70351 0.98356 0.0
C879 C 0.76717 0.79394 0.92688 0.0
H880 H 0.67021 0.78618 0.96481 0.0
H881 H 0.72219 0.80974 0.03205 0.0
H882 H 0.71497 0.76199 0.91088 0.0
H883 H 0.70017 0.73127 0.92994 0.0
H884 H 0.6828 0.76443 0.9192 0.0
H885 H 0.76309 0.79502 0.03024 0.0
H886 H 0.76511 0.75671 0.01566 0.0
H887 H 0.77581 0.78828 -0.00586 0.0
H888 H 0.76787 0.67401 0.95629 0.0
H889 H 0.80027 0.75055 0.91164 0.0
H890 H 0.71233 0.7065 0.97464 0.0
H891 H 0.73178 0.71566 0.00507 0.0
H892 H 0.73415 0.67872 0.98755 0.0
H893 H 0.749 0.80001 0.91775 0.0
H894 H 0.7813 0.79908 0.91001 0.0
H895 H 0.77035 0.80885 0.94631 0.0
C896 C 0.29614 0.23638 0.47864 0.0
C897 C 0.29914 0.20477 0.48227 0.0
C898 C 0.27546 0.24809 0.4644 0.0
C899 C 0.25771 0.22761 0.45316 0.0
C900 C 0.26179 0.19567 0.45438 0.0
C901 C 0.28242 0.18459 0.46919 0.0
C902 C 0.27171 0.28235 0.4635 0.0
C903 C 0.24359 0.17319 0.44189 0.0
C904 C 0.19345 0.25882 0.45569 0.0
C905 C 0.19095 0.27069 0.42715 0.0
C906 C 0.21482 0.24356 0.46411 0.0
C907 C 0.23383 0.23967 0.44325 0.0
C908 C 0.23065 0.24967 0.41381 0.0
C909 C 0.20928 0.26538 0.40616 0.0
C910 C 0.21763 0.23326 0.49579 0.0
C911 C 0.25025 0.24515 0.39081 0.0
H912 H 0.30904 0.25203 0.48871 0.0
H913 H 0.28486 0.16008 0.47169 0.0
H914 H 0.26706 0.2899 0.4408 0.0
H915 H 0.25618 0.28861 0.47801 0.0
H916 H 0.28812 0.29512 0.47097 0.0
H917 H 0.25135 0.14976 0.44012 0.0
H918 H 0.22735 0.17218 0.45647 0.0
H919 H 0.2373 0.18062 0.41973 0.0
H920 H 0.17929 0.26293 0.47192 0.0
H921 H 0.20724 0.27427 0.38393 0.0
H922 H 0.23251 0.24645 0.50649 0.0
H923 H 0.22279 0.20872 0.49667 0.0
H924 H 0.20065 0.23652 0.50879 0.0
H925 H 0.2658 0.26065 0.39553 0.0
H926 H 0.24351 0.25009 0.36816 0.0
H927 H 0.25729 0.22135 0.39149 0.0
C928 C 0.79252 0.25416 0.02525 0.0
C929 C 0.79486 0.26764 0.05313 0.0
C930 C 0.77079 0.23961 0.01703 0.0
C931 C 0.75124 0.2381 0.03744 0.0
C932 C 0.75435 0.24924 0.06649 0.0
C933 C 0.77611 0.26418 0.07394 0.0
C934 C 0.76813 0.22794 0.98579 0.0
C935 C 0.73418 0.24717 0.0891 0.0
C936 C 0.68978 0.23994 -0.00011 0.0
C937 C 0.68477 0.20865 -0.00283 0.0
C938 C 0.71082 0.24998 0.01453 0.0
C939 C 0.72687 0.22814 0.02711 0.0
C940 C 0.72072 0.19672 0.02674 0.0
C941 C 0.69979 0.18728 0.01151 0.0
C942 C 0.71679 0.28375 0.0145 0.0
C943 C 0.73703 0.17289 0.04068 0.0
H944 H 0.80701 0.25677 0.00916 0.0
H945 H 0.77803 0.27427 0.09569 0.0
H946 H 0.76136 0.20401 0.98583 0.0
H947 H 0.7545 0.24208 0.97384 0.0
H948 H 0.78561 0.22876 0.97341 0.0
H949 H 0.74094 0.25177 0.1118 0.0
H950 H 0.71985 0.26425 0.0838 0.0
H951 H 0.72552 0.22421 0.08866 0.0
H952 H 0.67818 0.25649 0.98886 0.0
H953 H 0.69577 0.16304 0.00973 0.0
H954 H 0.73315 0.28788 0.00061 0.0
H955 H 0.72119 0.29161 0.03717 0.0
H956 H 0.70154 0.29787 0.0058 0.0
H957 H 0.75332 0.16935 0.02657 0.0
H958 H 0.72756 0.15054 0.04325 0.0
H959 H 0.74353 0.1806 0.06266 0.0
C960 C 0.20662 0.72717 0.56257 0.0
C961 C 0.18663 0.72027 0.54442 0.0
C962 C 0.2263 0.74433 0.5518 0.0
C963 C 0.2261 0.7542 0.52205 0.0
C964 C 0.20534 0.74878 0.50416 0.0
C965 C 0.18569 0.73208 0.5157 0.0
C966 C 0.24785 0.75037 0.57173 0.0
C967 C 0.20456 0.75879 0.47223 0.0
C968 C 0.27153 0.81143 0.49158 0.0
C969 C 0.28845 0.79198 0.47791 0.0
C970 C 0.25162 0.79948 0.50724 0.0
C971 C 0.24842 0.76738 0.50869 0.0
C972 C 0.26595 0.74765 0.49585 0.0
C973 C 0.28591 0.76022 0.48082 0.0
C974 C 0.23361 0.82116 0.5213 0.0
C975 C 0.26304 0.71325 0.4968 0.0
H976 H 0.20725 0.7183 0.58492 0.0
H977 H 0.17027 0.72671 0.50162 0.0
H978 H 0.26348 0.73598 0.56473 0.0
H979 H 0.25368 0.77464 0.57004 0.0
H980 H 0.2437 0.74511 0.59521 0.0
H981 H 0.1864 0.75487 0.46202 0.0
H982 H 0.20915 0.78344 0.4703 0.0
H983 H 0.21841 0.74585 0.45944 0.0
H984 H 0.27357 0.83604 0.48955 0.0
H985 H 0.29893 0.74513 0.47021 0.0
H986 H 0.23004 0.81437 0.54453 0.0
H987 H 0.21597 0.82002 0.50934 0.0
H988 H 0.24014 0.84524 0.52097 0.0
H989 H 0.26117 0.70534 0.51996 0.0
H990 H 0.27871 0.70114 0.48655 0.0
H991 H 0.24614 0.70656 0.48494 0.0
C992 C 0.14864 0.56273 0.96868 0.0
C993 C 0.13331 0.56023 0.944 0.0
C994 C 0.15097 0.53853 0.98879 0.0
C995 C 0.13717 0.51153 0.98443 0.0
C996 C 0.12145 0.50901 0.95974 0.0
C997 C 0.11993 0.5333 0.93956 0.0
C998 C 0.16834 0.54172 0.01451 0.0
C999 C 0.10609 0.48075 0.95477 0.0
C1000 C 0.15686 0.43678 0.01951 0.0
C1001 C 0.1417 0.43554 0.04439 0.0
C1002 C 0.15607 0.46187 0.00023 0.0
C1003 C 0.13927 0.48581 0.00564 0.0
C1004 C 0.12411 0.48484 0.03091 0.0
C1005 C 0.12573 0.45983 0.05024 0.0
C1006 C 0.17296 0.46255 0.97389 0.0
C1007 C 0.10567 0.50972 0.03704 0.0
H1008 H 0.15917 0.58347 0.97201 0.0
H1009 H 0.10795 0.53145 0.92059 0.0
H1010 H 0.15826 0.53954 0.03563 0.0
H1011 H 0.18205 0.52304 0.01391 0.0
H1012 H 0.17808 0.56404 0.01438 0.0
H1013 H 0.09424 0.48282 0.93496 0.0
H1014 H 0.11802 0.46045 0.95201 0.0
H1015 H 0.09439 0.47646 0.97433 0.0
H1016 H 0.16934 0.41808 0.01509 0.0
H1017 H 0.11384 0.45874 0.06933 0.0
H1018 H 0.18351 0.48424 0.97365 0.0
H1019 H 0.16215 0.46175 0.95319 0.0
H1020 H 0.18596 0.44304 0.97388 0.0
H1021 H 0.11489 0.53228 0.03849 0.0
H1022 H 0.09546 0.50569 0.05788 0.0
H1023 H 0.09242 0.51106 0.01855 0.0
C1024 C 0.85374 0.54169 0.53496 0.0
C1025 C 0.83839 0.54688 0.55907 0.0
C1026 C 0.8512 0.51533 0.51772 0.0
C1027 C 0.8322 0.49439 0.52414 0.0
C1028 C 0.81686 0.49932 0.54884 0.0
C1029 C 0.82043 0.52541 0.5664 0.0
C1030 C 0.86844 0.51036 0.49213 0.0
C1031 C 0.79599 0.47794 0.55579 0.0
C1032 C 0.81392 0.45035 0.4559 0.0
C1033 C 0.82621 0.42264 0.46029 0.0
C1034 C 0.81418 0.47313 0.47766 0.0
C1035 C 0.8278 0.46837 0.50385 0.0
C1036 C 0.83942 0.43992 0.50887 0.0
C1037 C 0.83815 0.41714 0.48714 0.0
C1038 C 0.80091 0.50285 0.47197 0.0
C1039 C 0.85467 0.43432 0.53613 0.0
H1040 H 0.86766 0.55843 0.52951 0.0
H1041 H 0.80842 0.52984 0.58494 0.0
H1042 H 0.87626 0.48694 0.49304 0.0
H1043 H 0.85834 0.51245 0.471 0.0
H1044 H 0.88365 0.52719 0.49199 0.0
H1045 H 0.78687 0.48382 0.57694 0.0
H1046 H 0.78229 0.47909 0.53777 0.0
H1047 H 0.80249 0.45393 0.55698 0.0
H1048 H 0.80452 0.45442 0.43519 0.0
H1049 H 0.84783 0.39575 0.4904 0.0
H1050 H 0.81433 0.52132 0.4676 0.0
H1051 H 0.79016 0.50965 0.49166 0.0
H1052 H 0.78843 0.50123 0.45269 0.0
H1053 H 0.87134 0.44871 0.5351 0.0
H1054 H 0.86029 0.40997 0.53821 0.0
H1055 H 0.84456 0.441 0.55632 0.0
C1056 C 0.84511 0.42095 0.98854 0.0
C1057 C 0.83228 0.41537 0.01474 0.0
C1058 C 0.8433 0.44928 0.97418 0.0
C1059 C 0.82784 0.47216 0.986 0.0
C1060 C 0.81372 0.46594 0.01145 0.0
C1061 C 0.81635 0.43768 0.02577 0.0
C1062 C 0.85892 0.45529 0.94732 0.0
C1063 C 0.79657 0.48953 0.02419 0.0
C1064 C 0.84544 0.5545 0.97105 0.0
C1065 C 0.83066 0.56156 0.94677 0.0
C1066 C 0.84453 0.52548 0.98416 0.0
C1067 C 0.82801 0.50334 0.97311 0.0
C1068 C 0.81241 0.51072 0.94927 0.0
C1069 C 0.81413 0.53971 0.93611 0.0
C1070 C 0.86175 0.51822 0.00927 0.0
C1071 C 0.79418 0.48789 0.93743 0.0
H1072 H 0.8575 0.40373 0.98004 0.0
H1073 H 0.80624 0.43321 0.04589 0.0
H1074 H 0.84754 0.46366 0.92874 0.0
H1075 H 0.87242 0.47348 0.95242 0.0
H1076 H 0.86892 0.43452 0.93999 0.0
H1077 H 0.78488 0.47986 0.04194 0.0
H1078 H 0.80724 0.50881 0.03354 0.0
H1079 H 0.78467 0.49907 0.00662 0.0
H1080 H 0.85833 0.57133 0.97921 0.0
H1081 H 0.80255 0.54528 0.91744 0.0
H1082 H 0.87374 0.4988 0.00303 0.0
H1083 H 0.85129 0.51107 0.02907 0.0
H1084 H 0.87341 0.53807 0.0153 0.0
H1085 H 0.8039 0.46798 0.92783 0.0
H1086 H 0.78222 0.49796 0.92016 0.0
H1087 H 0.78257 0.47909 0.95564 0.0
C1088 C 0.16511 0.44208 0.44134 0.0
C1089 C 0.14927 0.42034 0.45362 0.0
C1090 C 0.16799 0.47097 0.45437 0.0
C1091 C 0.15419 0.4784 0.47976 0.0
C1092 C 0.13856 0.45627 0.4926 0.0
C1093 C 0.13652 0.42732 0.47955 0.0
C1094 C 0.18531 0.49375 0.44058 0.0
C1095 C 0.12323 0.46357 0.5194 0.0
C1096 C 0.16881 0.54575 0.52934 0.0
C1097 C 0.15208 0.5676 0.51917 0.0
C1098 C 0.1706 0.517 0.51575 0.0
C1099 C 0.15484 0.50985 0.49198 0.0
C1100 C 0.13843 0.53218 0.48108 0.0
C1101 C 0.13746 0.56098 0.49462 0.0
C1102 C 0.18876 0.49398 0.52741 0.0
C1103 C 0.12106 0.52519 0.45606 0.0
H1104 H 0.17515 0.43655 0.42141 0.0
H1105 H 0.12419 0.41056 0.489 0.0
H1106 H 0.17485 0.51323 0.43124 0.0
H1107 H 0.19779 0.50321 0.45758 0.0
H1108 H 0.1964 0.48339 0.42265 0.0
H1109 H 0.11247 0.44354 0.52709 0.0
H1110 H 0.13501 0.47146 0.53781 0.0
H1111 H 0.11044 0.48251 0.51413 0.0
H1112 H 0.18027 0.55098 0.54819 0.0
H1113 H 0.12444 0.57781 0.48678 0.0
H1114 H 0.1996 0.4842 0.509 0.0
H1115 H 0.17894 0.47476 0.53815 0.0
H1116 H 0.20144 0.50425 0.54379 0.0
H1117 H 0.13127 0.51694 0.43649 0.0
H1118 H 0.11009 0.54548 0.44949 0.0
H1119 H 0.1084 0.50661 0.46281 0.0
C1120 C 0.60613 0.04725 0.94376 0.0
C1121 C 0.62051 0.07257 0.95134 0.0
C1122 C 0.60542 0.02124 0.96193 0.0
C1123 C 0.61994 0.02039 0.98778 0.0
C1124 C 0.63435 0.046 -0.00437 0.0
C1125 C 0.63423 0.07196 0.97747 0.0
C1126 C 0.5894 -0.00543 0.95331 0.0
C1127 C 0.65046 0.04565 0.0227 0.0
C1128 C 0.60745 0.96252 0.04835 0.0
C1129 C 0.62418 0.9394 0.04132 0.0
C1130 C 0.60544 0.98879 0.03069 0.0
C1131 C 0.62098 0.99221 0.00596 0.0
C1132 C 0.63804 0.96902 -0.00108 0.0
C1133 C 0.63922 0.94268 0.01651 0.0
C1134 C 0.58668 0.01279 0.03841 0.0
C1135 C 0.65529 0.97223 0.97309 0.0
H1136 H 0.59535 0.04782 0.92369 0.0
H1137 H 0.6455 0.09146 0.98328 0.0
H1138 H 0.60087 0.97433 0.94824 0.0
H1139 H 0.57731 0.98818 0.97198 0.0
H1140 H 0.57792 -0.00025 0.93371 0.0
H1141 H 0.66025 0.06768 0.02594 0.0
H1142 H 0.63943 0.04085 0.0427 0.0
H1143 H 0.66415 0.02704 0.02074 0.0
H1144 H 0.59564 0.95983 0.06738 0.0
H1145 H 0.65227 0.92488 0.01116 0.0
H1146 H 0.57454 0.01698 0.01921 0.0
H1147 H 0.59587 0.03477 0.04361 0.0
H1148 H 0.5753 0.00602 0.05763 0.0
H1149 H 0.64481 0.97483 0.95229 0.0
H1150 H 0.66765 0.95221 0.97085 0.0
H1151 H 0.66655 0.99317 0.97578 0.0
C1152 C 0.34476 0.93361 0.46967 0.0
C1153 C 0.36014 0.93172 0.44502 0.0
C1154 C 0.34525 0.95931 0.48816 0.0
C1155 C 0.36193 0.98327 0.4822 0.0
C1156 C 0.37815 0.98095 0.45799 0.0
C1157 C 0.37684 0.95533 0.43943 0.0
C1158 C 0.32734 0.96132 0.51342 0.0
C1159 C 0.39656 0.00576 0.45141 0.0
C1160 C 0.34628 0.06317 0.50838 0.0
C1161 C 0.3597 0.06515 0.53465 0.0
C1162 C 0.34672 0.03651 0.49124 0.0
C1163 C 0.36142 0.01156 0.50025 0.0
C1164 C 0.37535 0.0136 0.52651 0.0
C1165 C 0.37407 0.0403 0.54365 0.0
C1166 C 0.33121 0.03491 0.4637 0.0
C1167 C 0.39166 0.98767 0.53637 0.0
H1168 H 0.33175 0.91543 0.47394 0.0
H1169 H 0.38892 0.95374 0.42055 0.0
H1170 H 0.33714 0.96519 0.53452 0.0
H1171 H 0.31499 0.98115 0.50999 0.0
H1172 H 0.31607 0.94028 0.5156 0.0
H1173 H 0.40916 -0.00073 0.43325 0.0
H1174 H 0.38698 0.02713 0.44503 0.0
H1175 H 0.40749 0.0109 0.47143 0.0
H1176 H 0.33499 0.08228 0.50152 0.0
H1177 H 0.3846 0.04191 0.56386 0.0
H1178 H 0.31848 0.0152 0.46518 0.0
H1179 H 0.34292 0.03115 0.44408 0.0
H1180 H 0.32038 0.0561 0.46015 0.0
H1181 H 0.38061 0.96681 0.54044 0.0
H1182 H 0.4019 0.9933 0.55684 0.0
H1183 H 0.40492 0.98206 0.51868 0.0
C1184 C 0.34698 0.92265 0.98906 0.0
C1185 C 0.3327 0.91901 0.01447 0.0
C1186 C 0.34665 0.95018 0.97317 0.0
C1187 C 0.33125 0.97425 0.98261 0.0
C1188 C 0.31592 0.97015 0.00744 0.0
C1189 C 0.31705 0.94263 0.02332 0.0
C1190 C 0.36355 0.95394 0.94707 0.0
C1191 C 0.29884 -0.0049 0.01767 0.0
C1192 C 0.3503 0.055 0.96281 0.0
C1193 C 0.33635 0.06043 0.93743 0.0
C1194 C 0.34869 0.02703 0.97783 0.0
C1195 C 0.33233 0.00433 0.96754 0.0
C1196 C 0.31768 0.01003 0.94241 0.0
C1197 C 0.32008 0.03796 0.92741 0.0
C1198 C 0.36493 0.02149 0.00427 0.0
C1199 C 0.29965 0.98657 0.93126 0.0
H1200 H 0.35918 0.90444 0.98225 0.0
H1201 H 0.30584 0.93969 0.04285 0.0
H1202 H 0.35308 0.96087 0.9272 0.0
H1203 H 0.37692 0.97242 0.95171 0.0
H1204 H 0.37372 0.93259 0.94196 0.0
H1205 H 0.28654 0.98722 0.03563 0.0
H1206 H 0.30956 0.0149 0.02587 0.0
H1207 H 0.28755 0.00337 -0.00106 0.0
H1208 H 0.36296 0.07232 0.9705 0.0
H1209 H 0.30913 0.04228 0.9079 0.0
H1210 H 0.37686 0.00143 0.0001 0.0
H1211 H 0.35369 0.0161 0.02396 0.0
H1212 H 0.37662 0.04156 0.00943 0.0
H1213 H 0.30946 0.96569 0.92399 0.0
H1214 H 0.28863 -0.00469 0.91246 0.0
H1215 H 0.28712 0.97966 0.94932 0.0
C1216 C 0.65641 0.0265 0.55369 0.0
C1217 C 0.64078 0.04989 0.54416 0.0
C1218 C 0.65791 -0.00122 0.5382 0.0
C1219 C 0.64305 -0.0057 0.51302 0.0
C1220 C 0.6271 0.01777 0.50345 0.0
C1221 C 0.62634 0.04545 0.519 0.0
C1222 C 0.67546 0.97441 0.54863 0.0
C1223 C 0.61071 0.01358 0.47693 0.0
C1224 C 0.65893 0.9354 0.4549 0.0
C1225 C 0.64324 0.91131 0.46244 0.0
C1226 C 0.65972 0.96219 0.47186 0.0
C1227 C 0.64408 0.96505 0.49655 0.0
C1228 C 0.62853 0.94055 0.50461 0.0
C1229 C 0.62848 0.91378 0.48758 0.0
C1230 C 0.67686 0.98766 0.46299 0.0
C1231 C 0.61134 0.94305 0.53055 0.0
H1232 H 0.66771 0.03001 0.57305 0.0
H1233 H 0.61414 0.06347 0.51169 0.0
H1234 H 0.66534 0.95319 0.55425 0.0
H1235 H 0.6884 0.96858 0.53066 0.0
H1236 H 0.68606 0.98177 0.5683 0.0
H1237 H 0.59898 0.03387 0.4728 0.0
H1238 H 0.62187 0.00928 0.45693 0.0
H1239 H 0.59882 0.99328 0.48019 0.0
H1240 H 0.67051 0.93339 0.43559 0.0
H1241 H 0.61627 0.89519 0.49338 0.0
H1242 H 0.68821 -0.0053 0.48212 0.0
H1243 H 0.66621 0.00799 0.45594 0.0
H1244 H 0.68912 0.98087 0.44459 0.0
H1245 H 0.6216 0.94893 0.55088 0.0
H1246 H 0.60106 0.9215 0.5345 0.0
H1247 H 0.59807 0.96179 0.52655 0.0
loop_
_geom_bond_atom_site_label_1
_geom_bond_atom_site_label_2
_geom_bond_distance
_geom_bond_site_symmetry_2
_ccdc_geom_bond_type
C0 O1 1.306 . S
C0 O3 1.160 . S
O1 C0 1.306 . S
O1 Cd2 2.228 . S
Cd2 O1 2.228 . S
Cd2 O6 2.273 . S
Cd2 O10 2.277 . S
O3 C0 1.160 . S
O3 Cd4 2.203 . S
Cd4 O3 2.203 . S
Cd4 O6 2.411 . S
Cd4 O7 2.333 . S
Cd4 O8 2.352 . S
Cd4 O12 2.277 . S
Cd4 O13 2.356 . S
C5 O10 1.209 . S
C5 O12 1.226 . S
O6 Cd2 2.273 . S
O6 Cd4 2.411 . S
O6 C9 1.320 . S
O7 Cd4 2.333 . S
O7 C9 1.214 . S
O8 Cd4 2.352 . S
O8 C11 1.258 . S
C9 O6 1.320 . S
C9 O7 1.214 . S
O10 Cd2 2.277 . S
O10 C5 1.209 . S
C11 O8 1.258 . S
C11 O13 1.282 . S
O12 Cd4 2.277 . S
O12 C5 1.226 . S
O13 Cd4 2.356 . S
O13 C11 1.282 . S
C14 O15 1.306 . S
C14 O17 1.160 . S
O15 C14 1.306 . S
O15 Cd16 2.228 . S
Cd16 O15 2.228 . S
Cd16 O20 2.273 . S
Cd16 O24 2.277 . S
O17 C14 1.160 . S
O17 Cd18 2.203 . S
Cd18 O17 2.203 . S
Cd18 O20 2.411 . S
Cd18 O21 2.333 . S
Cd18 O22 2.352 . S
Cd18 O26 2.277 . S
Cd18 O27 2.356 . S
C19 O24 1.209 . S
C19 O26 1.226 . S
O20 Cd16 2.273 . S
O20 Cd18 2.411 . S
O20 C23 1.320 . S
O21 Cd18 2.333 . S
O21 C23 1.214 . S
O22 Cd18 2.352 . S
O22 C25 1.258 . S
C23 O20 1.320 . S
C23 O21 1.214 . S
O24 Cd16 2.277 . S
O24 C19 1.209 . S
C25 O22 1.258 . S
C25 O27 1.282 . S
O26 Cd18 2.277 . S
O26 C19 1.226 . S
O27 Cd18 2.356 . S
O27 C25 1.282 . S
C28 O29 1.306 . S
C28 O31 1.160 . S
O29 C28 1.306 . S
O29 Cd30 2.228 . S
Cd30 O29 2.228 . S
Cd30 O34 2.273 . S
Cd30 O38 2.277 . S
O31 C28 1.160 . S
O31 Cd32 2.203 . S
Cd32 O31 2.203 . S
Cd32 O34 2.411 . S
Cd32 O35 2.333 . S
Cd32 O36 2.352 . S
Cd32 O40 2.277 . S
Cd32 O41 2.356 . S
C33 O38 1.209 . S
C33 O40 1.226 . S
O34 Cd30 2.273 . S
O34 Cd32 2.411 . S
O34 C37 1.320 . S
O35 Cd32 2.333 . S
O35 C37 1.214 . S
O36 Cd32 2.352 . S
O36 C39 1.258 . S
C37 O34 1.320 . S
C37 O35 1.214 . S
O38 Cd30 2.277 . S
O38 C33 1.209 . S
C39 O36 1.258 . S
C39 O41 1.282 . S
O40 Cd32 2.277 . S
O40 C33 1.226 . S
O41 Cd32 2.356 . S
O41 C39 1.282 . S
C42 O43 1.306 . S
C42 O45 1.160 . S
O43 C42 1.306 . S
O43 Cd44 2.228 . S
Cd44 O43 2.228 . S
Cd44 O48 2.273 . S
Cd44 O52 2.277 . S
O45 C42 1.160 . S
O45 Cd46 2.203 . S
Cd46 O45 2.203 . S
Cd46 O48 2.411 . S
Cd46 O49 2.333 . S
Cd46 O50 2.352 . S
Cd46 O54 2.277 . S
Cd46 O55 2.356 . S
C47 O52 1.209 . S
C47 O54 1.226 . S
O48 Cd44 2.273 . S
O48 Cd46 2.411 . S
O48 C51 1.320 . S
O49 Cd46 2.333 . S
O49 C51 1.214 . S
O50 Cd46 2.352 . S
O50 C53 1.258 . S
C51 O48 1.320 . S
C51 O49 1.214 . S
O52 Cd44 2.277 . S
O52 C47 1.209 . S
C53 O50 1.258 . S
C53 O55 1.282 . S
O54 Cd46 2.277 . S
O54 C47 1.226 . S
O55 Cd46 2.356 . S
O55 C53 1.282 . S
C56 O57 1.306 . S
C56 O59 1.160 . S
O57 C56 1.306 . S
O57 Cd58 2.228 . S
Cd58 O57 2.228 . S
Cd58 O62 2.273 . S
Cd58 O66 2.277 . S
O59 C56 1.160 . S
O59 Cd60 2.203 . S
Cd60 O59 2.203 . S
Cd60 O62 2.411 . S
Cd60 O63 2.333 . S
Cd60 O64 2.352 . S
Cd60 O68 2.277 . S
Cd60 O69 2.356 . S
C61 O66 1.209 . S
C61 O68 1.226 . S
O62 Cd58 2.273 . S
O62 Cd60 2.411 . S
O62 C65 1.320 . S
O63 Cd60 2.333 . S
O63 C65 1.214 . S
O64 Cd60 2.352 . S
O64 C67 1.258 . S
C65 O62 1.320 . S
C65 O63 1.214 . S
O66 Cd58 2.277 . S
O66 C61 1.209 . S
C67 O64 1.258 . S
C67 O69 1.282 . S
O68 Cd60 2.277 . S
O68 C61 1.226 . S
O69 Cd60 2.356 . S
O69 C67 1.282 . S
C70 O71 1.306 . S
C70 O73 1.160 . S
O71 C70 1.306 . S
O71 Cd72 2.228 . S
Cd72 O71 2.228 . S
Cd72 O76 2.273 . S
Cd72 O80 2.277 . S
O73 C70 1.160 . S
O73 Cd74 2.203 . S
Cd74 O73 2.203 . S
Cd74 O76 2.411 . S
Cd74 O77 2.333 . S
Cd74 O78 2.352 . S
Cd74 O82 2.277 . S
Cd74 O83 2.356 . S
C75 O80 1.209 . S
C75 O82 1.226 . S
O76 Cd72 2.273 . S
O76 Cd74 2.411 . S
O76 C79 1.320 . S
O77 Cd74 2.333 . S
O77 C79 1.214 . S
O78 Cd74 2.352 . S
O78 C81 1.258 . S
C79 O76 1.320 . S
C79 O77 1.214 . S
O80 Cd72 2.277 . S
O80 C75 1.209 . S
C81 O78 1.258 . S
C81 O83 1.282 . S
O82 Cd74 2.277 . S
O82 C75 1.226 . S
O83 Cd74 2.356 . S
O83 C81 1.282 . S
C84 O85 1.306 . S
C84 O87 1.160 . S
O85 C84 1.306 . S
O85 Cd86 2.228 . S
Cd86 O85 2.228 . S
Cd86 O90 2.273 . S
Cd86 O94 2.277 . S
O87 C84 1.160 . S
O87 Cd88 2.203 . S
Cd88 O87 2.203 . S
Cd88 O90 2.411 . S
Cd88 O91 2.333 . S
Cd88 O92 2.352 . S
Cd88 O96 2.277 . S
Cd88 O97 2.356 . S
C89 O94 1.209 . S
C89 O96 1.226 . S
O90 Cd86 2.273 . S
O90 Cd88 2.411 . S
O90 C93 1.320 . S
O91 Cd88 2.333 . S
O91 C93 1.214 . S
O92 Cd88 2.352 . S
O92 C95 1.258 . S
C93 O90 1.320 . S
C93 O91 1.214 . S
O94 Cd86 2.277 . S
O94 C89 1.209 . S
C95 O92 1.258 . S
C95 O97 1.282 . S
O96 Cd88 2.277 . S
O96 C89 1.226 . S
O97 Cd88 2.356 . S
O97 C95 1.282 . S
C98 O99 1.306 . S
C98 O101 1.160 . S
O99 C98 1.306 . S
O99 Cd100 2.228 . S
Cd100 O99 2.228 . S
Cd100 O104 2.273 . S
Cd100 O108 2.277 . S
O101 C98 1.160 . S
O101 Cd102 2.203 . S
Cd102 O101 2.203 . S
Cd102 O104 2.411 . S
Cd102 O105 2.333 . S
Cd102 O106 2.352 . S
Cd102 O110 2.277 . S
Cd102 O111 2.356 . S
C103 O108 1.209 . S
C103 O110 1.226 . S
O104 Cd100 2.273 . S
O104 Cd102 2.411 . S
O104 C107 1.320 . S
O105 Cd102 2.333 . S
O105 C107 1.214 . S
O106 Cd102 2.352 . S
O106 C109 1.258 . S
C107 O104 1.320 . S
C107 O105 1.214 . S
O108 Cd100 2.277 . S
O108 C103 1.209 . S
C109 O106 1.258 . S
C109 O111 1.282 . S
O110 Cd102 2.277 . S
O110 C103 1.226 . S
O111 Cd102 2.356 . S
O111 C109 1.282 . S
C112 O113 1.306 . S
C112 O115 1.160 . S
O113 C112 1.306 . S
O113 Cd114 2.228 . S
Cd114 O113 2.228 . S
Cd114 O118 2.273 . S
Cd114 O122 2.277 . S
O115 C112 1.160 . S
O115 Cd116 2.203 . S
Cd116 O115 2.203 . S
Cd116 O118 2.411 . S
Cd116 O119 2.333 . S
Cd116 O120 2.352 . S
Cd116 O124 2.277 . S
Cd116 O125 2.356 . S
C117 O122 1.209 . S
C117 O124 1.226 . S
O118 Cd114 2.273 . S
O118 Cd116 2.411 . S
O118 C121 1.320 . S
O119 Cd116 2.333 . S
O119 C121 1.214 . S
O120 Cd116 2.352 . S
O120 C123 1.258 . S
C121 O118 1.320 . S
C121 O119 1.214 . S
O122 Cd114 2.277 . S
O122 C117 1.209 . S
C123 O120 1.258 . S
C123 O125 1.282 . S
O124 Cd116 2.277 . S
O124 C117 1.226 . S
O125 Cd116 2.356 . S
O125 C123 1.282 . S
C126 O127 1.306 . S
C126 O129 1.160 . S
O127 C126 1.306 . S
O127 Cd128 2.228 . S
Cd128 O127 2.228 . S
Cd128 O132 2.273 . S
Cd128 O136 2.277 . S
O129 C126 1.160 . S
O129 Cd130 2.203 . S
Cd130 O129 2.203 . S
Cd130 O132 2.411 . S
Cd130 O133 2.333 . S
Cd130 O134 2.352 . S
Cd130 O138 2.277 . S
Cd130 O139 2.356 . S
C131 O136 1.209 . S
C131 O138 1.226 . S
O132 Cd128 2.273 . S
O132 Cd130 2.411 . S
O132 C135 1.320 . S
O133 Cd130 2.333 . S
O133 C135 1.214 . S
O134 Cd130 2.352 . S
O134 C137 1.258 . S
C135 O132 1.320 . S
C135 O133 1.214 . S
O136 Cd128 2.277 . S
O136 C131 1.209 . S
C137 O134 1.258 . S
C137 O139 1.282 . S
O138 Cd130 2.277 . S
O138 C131 1.226 . S
O139 Cd130 2.356 . S
O139 C137 1.282 . S
C140 O141 1.306 . S
C140 O143 1.160 . S
O141 C140 1.306 . S
O141 Cd142 2.228 . S
Cd142 O141 2.228 . S
Cd142 O146 2.273 . S
Cd142 O150 2.277 . S
O143 C140 1.160 . S
O143 Cd144 2.203 . S
Cd144 O143 2.203 . S
Cd144 O146 2.411 . S
Cd144 O147 2.333 . S
Cd144 O148 2.352 . S
Cd144 O152 2.277 . S
Cd144 O153 2.356 . S
C145 O150 1.209 . S
C145 O152 1.226 . S
O146 Cd142 2.273 . S
O146 Cd144 2.411 . S
O146 C149 1.320 . S
O147 Cd144 2.333 . S
O147 C149 1.214 . S
O148 Cd144 2.352 . S
O148 C151 1.258 . S
C149 O146 1.320 . S
C149 O147 1.214 . S
O150 Cd142 2.277 . S
O150 C145 1.209 . S
C151 O148 1.258 . S
C151 O153 1.282 . S
O152 Cd144 2.277 . S
O152 C145 1.226 . S
O153 Cd144 2.356 . S
O153 C151 1.282 . S
C154 O155 1.306 . S
C154 O157 1.160 . S
O155 C154 1.306 . S
O155 Cd156 2.228 . S
Cd156 O155 2.228 . S
Cd156 O160 2.273 . S
Cd156 O164 2.277 . S
O157 C154 1.160 . S
O157 Cd158 2.203 . S
Cd158 O157 2.203 . S
Cd158 O160 2.411 . S
Cd158 O161 2.333 . S
Cd158 O162 2.352 . S
Cd158 O166 2.277 . S
Cd158 O167 2.356 . S
C159 O164 1.209 . S
C159 O166 1.226 . S
O160 Cd156 2.273 . S
O160 Cd158 2.411 . S
O160 C163 1.320 . S
O161 Cd158 2.333 . S
O161 C163 1.214 . S
O162 Cd158 2.352 . S
O162 C165 1.258 . S
C163 O160 1.320 . S
C163 O161 1.214 . S
O164 Cd156 2.277 . S
O164 C159 1.209 . S
C165 O162 1.258 . S
C165 O167 1.282 . S
O166 Cd158 2.277 . S
O166 C159 1.226 . S
O167 Cd158 2.356 . S
O167 C165 1.282 . S
C168 O169 1.306 . S
C168 O171 1.160 . S
O169 C168 1.306 . S
O169 Cd170 2.228 . S
Cd170 O169 2.228 . S
Cd170 O174 2.273 . S
Cd170 O178 2.277 . S
O171 C168 1.160 . S
O171 Cd172 2.203 . S
Cd172 O171 2.203 . S
Cd172 O174 2.411 . S
Cd172 O175 2.333 . S
Cd172 O176 2.352 . S
Cd172 O180 2.277 . S
Cd172 O181 2.356 . S
C173 O178 1.209 . S
C173 O180 1.226 . S
O174 Cd170 2.273 . S
O174 Cd172 2.411 . S
O174 C177 1.320 . S
O175 Cd172 2.333 . S
O175 C177 1.214 . S
O176 Cd172 2.352 . S
O176 C179 1.258 . S
C177 O174 1.320 . S
C177 O175 1.214 . S
O178 Cd170 2.277 . S
O178 C173 1.209 . S
C179 O176 1.258 . S
C179 O181 1.282 . S
O180 Cd172 2.277 . S
O180 C173 1.226 . S
O181 Cd172 2.356 . S
O181 C179 1.282 . S
C182 O183 1.306 . S
C182 O185 1.160 . S
O183 C182 1.306 . S
O183 Cd184 2.228 . S
Cd184 O183 2.228 . S
Cd184 O188 2.273 . S
Cd184 O192 2.277 . S
O185 C182 1.160 . S
O185 Cd186 2.203 . S
Cd186 O185 2.203 . S
Cd186 O188 2.411 . S
Cd186 O189 2.333 . S
Cd186 O190 2.352 . S
Cd186 O194 2.277 . S
Cd186 O195 2.356 . S
C187 O192 1.209 . S
C187 O194 1.226 . S
O188 Cd184 2.273 . S
O188 Cd186 2.411 . S
O188 C191 1.320 . S
O189 Cd186 2.333 . S
O189 C191 1.214 . S
O190 Cd186 2.352 . S
O190 C193 1.258 . S
C191 O188 1.320 . S
C191 O189 1.214 . S
O192 Cd184 2.277 . S
O192 C187 1.209 . S
C193 O190 1.258 . S
C193 O195 1.282 . S
O194 Cd186 2.277 . S
O194 C187 1.226 . S
O195 Cd186 2.356 . S
O195 C193 1.282 . S
C196 O197 1.306 . S
C196 O199 1.160 . S
O197 C196 1.306 . S
O197 Cd198 2.228 . S
Cd198 O197 2.228 . S
Cd198 O202 2.273 . S
Cd198 O206 2.277 . S
O199 C196 1.160 . S
O199 Cd200 2.203 . S
Cd200 O199 2.203 . S
Cd200 O202 2.411 . S
Cd200 O203 2.333 . S
Cd200 O204 2.352 . S
Cd200 O208 2.277 . S
Cd200 O209 2.356 . S
C201 O206 1.209 . S
C201 O208 1.226 . S
O202 Cd198 2.273 . S
O202 Cd200 2.411 . S
O202 C205 1.320 . S
O203 Cd200 2.333 . S
O203 C205 1.214 . S
O204 Cd200 2.352 . S
O204 C207 1.258 . S
C205 O202 1.320 . S
C205 O203 1.214 . S
O206 Cd198 2.277 . S
O206 C201 1.209 . S
C207 O204 1.258 . S
C207 O209 1.282 . S
O208 Cd200 2.277 . S
O208 C201 1.226 . S
O209 Cd200 2.356 . S
O209 C207 1.282 . S
C210 O211 1.306 . S
C210 O213 1.160 . S
O211 C210 1.306 . S
O211 Cd212 2.228 . S
Cd212 O211 2.228 . S
Cd212 O216 2.273 . S
Cd212 O220 2.277 . S
O213 C210 1.160 . S
O213 Cd214 2.203 . S
Cd214 O213 2.203 . S
Cd214 O216 2.411 . S
Cd214 O217 2.333 . S
Cd214 O218 2.352 . S
Cd214 O222 2.277 . S
Cd214 O223 2.356 . S
C215 O220 1.209 . S
C215 O222 1.226 . S
O216 Cd212 2.273 . S
O216 Cd214 2.411 . S
O216 C219 1.320 . S
O217 Cd214 2.333 . S
O217 C219 1.214 . S
O218 Cd214 2.352 . S
O218 C221 1.258 . S
C219 O216 1.320 . S
C219 O217 1.214 . S
O220 Cd212 2.277 . S
O220 C215 1.209 . S
C221 O218 1.258 . S
C221 O223 1.282 . S
O222 Cd214 2.277 . S
O222 C215 1.226 . S
O223 Cd214 2.356 . S
O223 C221 1.282 . S
C224 C225 1.391 . S
C224 C226 1.394 . S
C224 H240 0.931 . S
C225 C224 1.391 . S
C225 C229 1.376 . S
C226 C224 1.394 . S
C226 C227 1.369 . S
C226 C230 1.531 . S
C227 C226 1.369 . S
C227 C228 1.410 . S
C227 C235 1.503 1_455 S
C228 C227 1.410 . S
C228 C229 1.392 . S
C228 C231 1.511 . S
C229 C225 1.376 . S
C229 C228 1.392 . S
C229 H241 0.929 . S
C230 C226 1.531 . S
C230 H242 0.960 1_455 S
C230 H243 0.962 . S
C230 H244 0.960 . S
C231 C228 1.511 . S
C231 H245 0.961 . S
C231 H246 0.961 1_455 S
C231 H247 0.961 . S
C232 C233 1.370 . S
C232 C234 1.363 . S
C232 H248 0.931 . S
C233 C232 1.370 . S
C233 C237 1.408 . S
C234 C232 1.363 . S
C234 C235 1.370 . S
C234 C238 1.524 . S
C235 C227 1.503 1_655 S
C235 C234 1.370 . S
C235 C236 1.403 . S
C236 C235 1.403 . S
C236 C237 1.404 . S
C236 C239 1.539 . S
C237 C233 1.408 . S
C237 C236 1.404 . S
C237 H249 0.930 . S
C238 C234 1.524 . S
C238 H250 0.956 . S
C238 H251 0.961 . S
C238 H252 0.961 . S
C239 C236 1.539 . S
C239 H253 0.958 . S
C239 H254 0.961 . S
C239 H255 0.960 . S
H240 C224 0.931 . S
H241 C229 0.929 . S
H242 C230 0.960 1_655 S
H243 C230 0.962 . S
H244 C230 0.960 . S
H245 C231 0.961 . S
H246 C231 0.961 1_655 S
H247 C231 0.961 . S
H248 C232 0.931 . S
H249 C237 0.930 . S
H250 C238 0.956 . S
H251 C238 0.961 . S
H252 C238 0.961 . S
H253 C239 0.958 . S
H254 C239 0.961 . S
H255 C239 0.960 . S
C256 C257 1.391 . S
C256 C258 1.394 . S
C256 H272 0.931 . S
C257 C256 1.391 . S
C257 C261 1.376 . S
C258 C256 1.394 . S
C258 C259 1.369 . S
C258 C262 1.531 . S
C259 C258 1.369 . S
C259 C260 1.410 . S
C259 C267 1.503 1_655 S
C260 C259 1.410 . S
C260 C261 1.392 . S
C260 C263 1.511 . S
C261 C257 1.376 . S
C261 C260 1.392 . S
C261 H273 0.929 . S
C262 C258 1.531 . S
C262 H274 0.960 1_655 S
C262 H275 0.962 . S
C262 H276 0.960 . S
C263 C260 1.511 . S
C263 H277 0.961 . S
C263 H278 0.961 1_655 S
C263 H279 0.961 . S
C264 C265 1.370 . S
C264 C266 1.363 . S
C264 H280 0.931 . S
C265 C264 1.370 . S
C265 C269 1.408 . S
C266 C264 1.363 . S
C266 C267 1.370 . S
C266 C270 1.524 . S
C267 C259 1.503 1_455 S
C267 C266 1.370 . S
C267 C268 1.403 . S
C268 C267 1.403 . S
C268 C269 1.404 . S
C268 C271 1.539 . S
C269 C265 1.408 . S
C269 C268 1.404 . S
C269 H281 0.930 . S
C270 C266 1.524 . S
C270 H282 0.956 . S
C270 H283 0.961 . S
C270 H284 0.961 . S
C271 C268 1.539 . S
C271 H285 0.958 . S
C271 H286 0.961 . S
C271 H287 0.960 . S
H272 C256 0.931 . S
H273 C261 0.929 . S
H274 C262 0.960 1_455 S
H275 C262 0.962 . S
H276 C262 0.960 . S
H277 C263 0.961 . S
H278 C263 0.961 1_455 S
H279 C263 0.961 . S
H280 C264 0.931 . S
H281 C269 0.930 . S
H282 C270 0.956 . S
H283 C270 0.961 . S
H284 C270 0.961 . S
H285 C271 0.958 . S
H286 C271 0.961 . S
H287 C271 0.960 . S
C288 C289 1.391 . S
C288 C290 1.394 . S
C288 H304 0.931 . S
C289 C288 1.391 . S
C289 C293 1.376 . S
C290 C288 1.394 . S
C290 C291 1.369 . S
C290 C294 1.531 . S
C291 C290 1.369 . S
C291 C292 1.410 . S
C291 C299 1.503 1_655 S
C292 C291 1.410 . S
C292 C293 1.392 . S
C292 C295 1.511 . S
C293 C289 1.376 . S
C293 C292 1.392 . S
C293 H305 0.929 . S
C294 C290 1.531 . S
C294 H306 1.001 . S
C294 H307 0.962 . S
C294 H308 0.960 . S
C295 C292 1.511 . S
C295 H309 0.961 . S
C295 H310 0.986 . S
C295 H311 0.961 . S
C296 C297 1.370 . S
C296 C298 1.363 . S
C296 H312 0.931 . S
C297 C296 1.370 . S
C297 C301 1.408 . S
C298 C296 1.363 . S
C298 C299 1.370 . S
C298 C302 1.524 . S
C299 C291 1.503 1_455 S
C299 C298 1.370 . S
C299 C300 1.403 . S
C300 C299 1.403 . S
C300 C301 1.404 . S
C300 C303 1.539 . S
C301 C297 1.408 . S
C301 C300 1.404 . S
C301 H313 0.930 . S
C302 C298 1.524 . S
C302 H314 0.956 1_455 S
C302 H315 0.961 1_455 S
C302 H316 0.961 . S
C303 C300 1.539 . S
C303 H317 0.958 . S
C303 H318 0.961 . S
C303 H319 0.960 1_455 S
H304 C288 0.931 . S
H305 C293 0.929 . S
H306 C294 1.001 . S
H307 C294 0.962 . S
H308 C294 0.960 . S
H309 C295 0.961 . S
H310 C295 0.986 . S
H311 C295 0.961 . S
H312 C296 0.931 . S
H313 C301 0.930 . S
H314 C302 0.956 1_655 S
H315 C302 0.961 1_655 S
H316 C302 0.961 . S
H317 C303 0.958 . S
H318 C303 0.961 . S
H319 C303 0.960 1_655 S
C320 C321 1.391 . S
C320 C322 1.394 . S
C320 H336 0.931 . S
C321 C320 1.391 . S
C321 C325 1.376 . S
C322 C320 1.394 . S
C322 C323 1.369 . S
C322 C326 1.531 . S
C323 C322 1.369 . S
C323 C324 1.410 . S
C323 C331 1.503 1_455 S
C324 C323 1.410 . S
C324 C325 1.392 . S
C324 C327 1.511 . S
C325 C321 1.376 . S
C325 C324 1.392 . S
C325 H337 0.929 . S
C326 C322 1.531 . S
C326 H338 0.960 . S
C326 H339 0.962 . S
C326 H340 0.960 . S
C327 C324 1.511 . S
C327 H341 0.961 . S
C327 H342 0.994 . S
C327 H343 0.961 . S
C328 C329 1.370 . S
C328 C330 1.363 . S
C328 H344 0.931 . S
C329 C328 1.370 . S
C329 C333 1.408 . S
C330 C328 1.363 . S
C330 C331 1.370 . S
C330 C334 1.524 . S
C331 C323 1.503 1_655 S
C331 C330 1.370 . S
C331 C332 1.403 . S
C332 C331 1.403 . S
C332 C333 1.404 . S
C332 C335 1.539 . S
C333 C329 1.408 . S
C333 C332 1.404 . S
C333 H345 0.930 . S
C334 C330 1.524 . S
C334 H346 0.956 1_655 S
C334 H347 0.961 1_655 S
C334 H348 0.961 . S
C335 C332 1.539 . S
C335 H349 0.958 . S
C335 H350 0.961 . S
C335 H351 0.960 1_655 S
H336 C320 0.931 . S
H337 C325 0.929 . S
H338 C326 0.960 . S
H339 C326 0.962 . S
H340 C326 0.960 . S
H341 C327 0.961 . S
H342 C327 0.994 . S
H343 C327 0.961 . S
H344 C328 0.931 . S
H345 C333 0.930 . S
H346 C334 0.956 1_455 S
H347 C334 0.961 1_455 S
H348 C334 0.961 . S
H349 C335 0.958 . S
H350 C335 0.961 . S
H351 C335 0.960 1_455 S
C352 C353 1.391 . S
C352 C354 1.394 . S
C352 H368 0.931 . S
C353 C352 1.391 . S
C353 C357 1.376 . S
C354 C352 1.394 . S
C354 C355 1.369 . S
C354 C358 1.531 . S
C355 C354 1.369 . S
C355 C356 1.410 . S
C355 C363 1.503 . S
C356 C355 1.410 . S
C356 C357 1.392 . S
C356 C359 1.511 . S
C357 C353 1.376 . S
C357 C356 1.392 . S
C357 H369 0.929 . S
C358 C354 1.531 . S
C358 H370 0.960 . S
C358 H371 0.962 . S
C358 H372 0.960 . S
C359 C356 1.511 . S
C359 H373 0.961 . S
C359 H374 0.961 . S
C359 H375 0.961 . S
C360 C361 1.370 . S
C360 C362 1.363 . S
C360 H376 0.931 . S
C361 C360 1.370 . S
C361 C365 1.408 . S
C362 C360 1.363 . S
C362 C363 1.370 . S
C362 C366 1.524 . S
C363 C355 1.503 . S
C363 C362 1.370 . S
C363 C364 1.403 . S
C364 C363 1.403 . S
C364 C365 1.404 . S
C364 C367 1.539 . S
C365 C361 1.408 . S
C365 C364 1.404 . S
C365 H377 0.930 . S
C366 C362 1.524 . S
C366 H378 0.956 . S
C366 H379 0.961 . S
C366 H380 0.961 . S
C367 C364 1.539 . S
C367 H381 0.958 . S
C367 H382 0.961 . S
C367 H383 0.960 . S
H368 C352 0.931 . S
H369 C357 0.929 . S
H370 C358 0.960 . S
H371 C358 0.962 . S
H372 C358 0.960 . S
H373 C359 0.961 . S
H374 C359 0.961 . S
H375 C359 0.961 . S
H376 C360 0.931 . S
H377 C365 0.930 . S
H378 C366 0.956 . S
H379 C366 0.961 . S
H380 C366 0.961 . S
H381 C367 0.958 . S
H382 C367 0.961 . S
H383 C367 0.960 . S
C384 C385 1.391 . S
C384 C386 1.394 . S
C384 H400 0.931 . S
C385 C384 1.391 . S
C385 C389 1.376 . S
C386 C384 1.394 . S
C386 C387 1.369 . S
C386 C390 1.531 . S
C387 C386 1.369 . S
C387 C388 1.410 . S
C387 C395 1.503 . S
C388 C387 1.410 . S
C388 C389 1.392 . S
C388 C391 1.511 . S
C389 C385 1.376 . S
C389 C388 1.392 . S
C389 H401 0.929 . S
C390 C386 1.531 . S
C390 H402 0.960 . S
C390 H403 0.962 . S
C390 H404 0.960 . S
C391 C388 1.511 . S
C391 H405 0.961 . S
C391 H406 0.961 . S
C391 H407 0.961 . S
C392 C393 1.370 . S
C392 C394 1.363 . S
C392 H408 0.931 . S
C393 C392 1.370 . S
C393 C397 1.408 . S
C394 C392 1.363 . S
C394 C395 1.370 . S
C394 C398 1.524 . S
C395 C387 1.503 . S
C395 C394 1.370 . S
C395 C396 1.403 . S
C396 C395 1.403 . S
C396 C397 1.404 . S
C396 C399 1.539 . S
C397 C393 1.408 . S
C397 C396 1.404 . S
C397 H409 0.930 . S
C398 C394 1.524 . S
C398 H410 0.956 . S
C398 H411 0.961 . S
C398 H412 0.961 . S
C399 C396 1.539 . S
C399 H413 0.958 . S
C399 H414 0.961 . S
C399 H415 0.960 . S
H400 C384 0.931 . S
H401 C389 0.929 . S
H402 C390 0.960 . S
H403 C390 0.962 . S
H404 C390 0.960 . S
H405 C391 0.961 . S
H406 C391 0.961 . S
H407 C391 0.961 . S
H408 C392 0.931 . S
H409 C397 0.930 . S
H410 C398 0.956 . S
H411 C398 0.961 . S
H412 C398 0.961 . S
H413 C399 0.958 . S
H414 C399 0.961 . S
H415 C399 0.960 . S
C416 C417 1.391 . S
C416 C418 1.394 . S
C416 H432 0.931 . S
C417 C416 1.391 . S
C417 C421 1.376 . S
C418 C416 1.394 . S
C418 C419 1.369 . S
C418 C422 1.531 . S
C419 C418 1.369 . S
C419 C420 1.410 . S
C419 C427 1.503 . S
C420 C419 1.410 . S
C420 C421 1.392 . S
C420 C423 1.511 . S
C421 C417 1.376 . S
C421 C420 1.392 . S
C421 H433 0.929 . S
C422 C418 1.531 . S
C422 H434 0.960 . S
C422 H435 0.962 . S
C422 H436 0.960 . S
C423 C420 1.511 . S
C423 H437 0.961 . S
C423 H438 0.961 . S
C423 H439 0.961 . S
C424 C425 1.370 . S
C424 C426 1.363 . S
C424 H440 0.931 . S
C425 C424 1.370 . S
C425 C429 1.408 . S
C426 C424 1.363 . S
C426 C427 1.370 . S
C426 C430 1.524 . S
C427 C419 1.503 . S
C427 C426 1.370 . S
C427 C428 1.403 . S
C428 C427 1.403 . S
C428 C429 1.404 . S
C428 C431 1.539 . S
C429 C425 1.408 . S
C429 C428 1.404 . S
C429 H441 0.930 . S
C430 C426 1.524 . S
C430 H442 0.956 . S
C430 H443 0.961 . S
C430 H444 0.961 . S
C431 C428 1.539 . S
C431 H445 0.958 . S
C431 H446 0.961 . S
C431 H447 0.960 . S
H432 C416 0.931 . S
H433 C421 0.929 . S
H434 C422 0.960 . S
H435 C422 0.962 . S
H436 C422 0.960 . S
H437 C423 0.961 . S
H438 C423 0.961 . S
H439 C423 0.961 . S
H440 C424 0.931 . S
H441 C429 0.930 . S
H442 C430 0.956 . S
H443 C430 0.961 . S
H444 C430 0.961 . S
H445 C431 0.958 . S
H446 C431 0.961 . S
H447 C431 0.960 . S
C448 C449 1.391 . S
C448 C450 1.394 . S
C448 H464 0.931 . S
C449 C448 1.391 . S
C449 C453 1.376 . S
C450 C448 1.394 . S
C450 C451 1.369 . S
C450 C454 1.531 . S
C451 C450 1.369 . S
C451 C452 1.410 . S
C451 C459 1.503 . S
C452 C451 1.410 . S
C452 C453 1.392 . S
C452 C455 1.511 . S
C453 C449 1.376 . S
C453 C452 1.392 . S
C453 H465 0.929 . S
C454 C450 1.531 . S
C454 H466 0.960 . S
C454 H467 0.962 . S
C454 H468 0.960 . S
C455 C452 1.511 . S
C455 H469 0.961 . S
C455 H470 0.961 . S
C455 H471 0.961 . S
C456 C457 1.370 . S
C456 C458 1.363 . S
C456 H472 0.931 . S
C457 C456 1.370 . S
C457 C461 1.408 . S
C458 C456 1.363 . S
C458 C459 1.370 . S
C458 C462 1.524 . S
C459 C451 1.503 . S
C459 C458 1.370 . S
C459 C460 1.403 . S
C460 C459 1.403 . S
C460 C461 1.404 . S
C460 C463 1.539 . S
C461 C457 1.408 . S
C461 C460 1.404 . S
C461 H473 0.930 . S
C462 C458 1.524 . S
C462 H474 0.956 . S
C462 H475 0.961 . S
C462 H476 0.961 . S
C463 C460 1.539 . S
C463 H477 0.958 . S
C463 H478 0.961 . S
C463 H479 0.960 . S
H464 C448 0.931 . S
H465 C453 0.929 . S
H466 C454 0.960 . S
H467 C454 0.962 . S
H468 C454 0.960 . S
H469 C455 0.961 . S
H470 C455 0.961 . S
H471 C455 0.961 . S
H472 C456 0.931 . S
H473 C461 0.930 . S
H474 C462 0.956 . S
H475 C462 0.961 . S
H476 C462 0.961 . S
H477 C463 0.958 . S
H478 C463 0.961 . S
H479 C463 0.960 . S
C480 C481 1.391 . S
C480 C482 1.394 . S
C480 H496 0.931 . S
C481 C480 1.391 . S
C481 C485 1.376 . S
C482 C480 1.394 . S
C482 C483 1.369 . S
C482 C486 1.531 . S
C483 C482 1.369 . S
C483 C484 1.410 . S
C483 C491 1.503 . S
C484 C483 1.410 . S
C484 C485 1.392 . S
C484 C487 1.511 . S
C485 C481 1.376 . S
C485 C484 1.392 . S
C485 H497 0.929 . S
C486 C482 1.531 . S
C486 H498 0.960 . S
C486 H499 0.962 . S
C486 H500 0.960 . S
C487 C484 1.511 . S
C487 H501 0.961 . S
C487 H502 0.961 . S
C487 H503 0.961 . S
C488 C489 1.370 . S
C488 C490 1.363 . S
C488 H504 0.931 . S
C489 C488 1.370 . S
C489 C493 1.408 . S
C490 C488 1.363 . S
C490 C491 1.370 . S
C490 C494 1.524 . S
C491 C483 1.503 . S
C491 C490 1.370 . S
C491 C492 1.403 . S
C492 C491 1.403 . S
C492 C493 1.404 . S
C492 C495 1.539 . S
C493 C489 1.408 . S
C493 C492 1.404 . S
C493 H505 0.930 . S
C494 C490 1.524 . S
C494 H506 0.956 . S
C494 H507 0.961 . S
C494 H508 0.961 . S
C495 C492 1.539 . S
C495 H509 0.958 . S
C495 H510 0.961 . S
C495 H511 0.960 . S
H496 C480 0.931 . S
H497 C485 0.929 . S
H498 C486 0.960 . S
H499 C486 0.962 . S
H500 C486 0.960 . S
H501 C487 0.961 . S
H502 C487 0.961 . S
H503 C487 0.961 . S
H504 C488 0.931 . S
H505 C493 0.930 . S
H506 C494 0.956 . S
H507 C494 0.961 . S
H508 C494 0.961 . S
H509 C495 0.958 . S
H510 C495 0.961 . S
H511 C495 0.960 . S
C512 C513 1.391 . S
C512 C514 1.394 . S
C512 H528 0.931 . S
C513 C512 1.391 . S
C513 C517 1.376 . S
C514 C512 1.394 . S
C514 C515 1.369 . S
C514 C518 1.531 . S
C515 C514 1.369 . S
C515 C516 1.410 . S
C515 C523 1.503 . S
C516 C515 1.410 . S
C516 C517 1.392 . S
C516 C519 1.511 . S
C517 C513 1.376 . S
C517 C516 1.392 . S
C517 H529 0.929 . S
C518 C514 1.531 . S
C518 H530 0.960 . S
C518 H531 0.962 . S
C518 H532 0.960 . S
C519 C516 1.511 . S
C519 H533 0.961 . S
C519 H534 0.961 . S
C519 H535 0.961 . S
C520 C521 1.370 . S
C520 C522 1.363 . S
C520 H536 0.931 . S
C521 C520 1.370 . S
C521 C525 1.408 . S
C522 C520 1.363 . S
C522 C523 1.370 . S
C522 C526 1.524 . S
C523 C515 1.503 . S
C523 C522 1.370 . S
C523 C524 1.403 . S
C524 C523 1.403 . S
C524 C525 1.404 . S
C524 C527 1.539 . S
C525 C521 1.408 . S
C525 C524 1.404 . S
C525 H537 0.930 . S
C526 C522 1.524 . S
C526 H538 0.956 . S
C526 H539 0.961 . S
C526 H540 0.961 . S
C527 C524 1.539 . S
C527 H541 0.958 . S
C527 H542 0.961 . S
C527 H543 0.960 . S
H528 C512 0.931 . S
H529 C517 0.929 . S
H530 C518 0.960 . S
H531 C518 0.962 . S
H532 C518 0.960 . S
H533 C519 0.961 . S
H534 C519 0.961 . S
H535 C519 0.961 . S
H536 C520 0.931 . S
H537 C525 0.930 . S
H538 C526 0.956 . S
H539 C526 0.961 . S
H540 C526 0.961 . S
H541 C527 0.958 . S
H542 C527 0.961 . S
H543 C527 0.960 . S
C544 C545 1.391 . S
C544 C546 1.394 . S
C544 H560 0.931 . S
C545 C544 1.391 . S
C545 C549 1.376 . S
C546 C544 1.394 . S
C546 C547 1.369 . S
C546 C550 1.531 . S
C547 C546 1.369 . S
C547 C548 1.410 . S
C547 C555 1.503 . S
C548 C547 1.410 . S
C548 C549 1.392 . S
C548 C551 1.511 . S
C549 C545 1.376 . S
C549 C548 1.392 . S
C549 H561 0.929 . S
C550 C546 1.531 . S
C550 H562 0.960 . S
C550 H563 0.962 . S
C550 H564 0.960 . S
C551 C548 1.511 . S
C551 H565 0.961 . S
C551 H566 0.961 . S
C551 H567 0.961 . S
C552 C553 1.370 . S
C552 C554 1.363 . S
C552 H568 0.931 . S
C553 C552 1.370 . S
C553 C557 1.408 . S
C554 C552 1.363 . S
C554 C555 1.370 . S
C554 C558 1.524 . S
C555 C547 1.503 . S
C555 C554 1.370 . S
C555 C556 1.403 . S
C556 C555 1.403 . S
C556 C557 1.404 . S
C556 C559 1.539 . S
C557 C553 1.408 . S
C557 C556 1.404 . S
C557 H569 0.930 . S
C558 C554 1.524 . S
C558 H570 0.956 . S
C558 H571 0.961 . S
C558 H572 0.961 . S
C559 C556 1.539 . S
C559 H573 0.958 . S
C559 H574 0.961 . S
C559 H575 0.960 . S
H560 C544 0.931 . S
H561 C549 0.929 . S
H562 C550 0.960 . S
H563 C550 0.962 . S
H564 C550 0.960 . S
H565 C551 0.961 . S
H566 C551 0.961 . S
H567 C551 0.961 . S
H568 C552 0.931 . S
H569 C557 0.930 . S
H570 C558 0.956 . S
H571 C558 0.961 . S
H572 C558 0.961 . S
H573 C559 0.958 . S
H574 C559 0.961 . S
H575 C559 0.960 . S
C576 C577 1.391 . S
C576 C578 1.394 . S
C576 H592 0.931 . S
C577 C576 1.391 . S
C577 C581 1.376 . S
C578 C576 1.394 . S
C578 C579 1.369 . S
C578 C582 1.531 . S
C579 C578 1.369 . S
C579 C580 1.410 . S
C579 C587 1.503 . S
C580 C579 1.410 . S
C580 C581 1.392 . S
C580 C583 1.511 . S
C581 C577 1.376 . S
C581 C580 1.392 . S
C581 H593 0.929 . S
C582 C578 1.531 . S
C582 H594 0.960 . S
C582 H595 0.962 . S
C582 H596 0.960 . S
C583 C580 1.511 . S
C583 H597 0.961 . S
C583 H598 0.961 . S
C583 H599 0.961 . S
C584 C585 1.370 . S
C584 C586 1.363 . S
C584 H600 0.931 . S
C585 C584 1.370 . S
C585 C589 1.408 . S
C586 C584 1.363 . S
C586 C587 1.370 . S
C586 C590 1.524 . S
C587 C579 1.503 . S
C587 C586 1.370 . S
C587 C588 1.403 . S
C588 C587 1.403 . S
C588 C589 1.404 . S
C588 C591 1.539 . S
C589 C585 1.408 . S
C589 C588 1.404 . S
C589 H601 0.930 . S
C590 C586 1.524 . S
C590 H602 0.956 . S
C590 H603 0.961 . S
C590 H604 0.961 . S
C591 C588 1.539 . S
C591 H605 0.958 . S
C591 H606 0.961 . S
C591 H607 0.960 . S
H592 C576 0.931 . S
H593 C581 0.929 . S
H594 C582 0.960 . S
H595 C582 0.962 . S
H596 C582 0.960 . S
H597 C583 0.961 . S
H598 C583 0.961 . S
H599 C583 0.961 . S
H600 C584 0.931 . S
H601 C589 0.930 . S
H602 C590 0.956 . S
H603 C590 0.961 . S
H604 C590 0.961 . S
H605 C591 0.958 . S
H606 C591 0.961 . S
H607 C591 0.960 . S
C608 C609 1.391 . S
C608 C610 1.394 . S
C608 H624 0.931 . S
C609 C608 1.391 . S
C609 C613 1.376 . S
C610 C608 1.394 . S
C610 C611 1.369 . S
C610 C614 1.531 . S
C611 C610 1.369 . S
C611 C612 1.410 . S
C611 C619 1.503 . S
C612 C611 1.410 . S
C612 C613 1.392 . S
C612 C615 1.511 . S
C613 C609 1.376 . S
C613 C612 1.392 . S
C613 H625 0.929 . S
C614 C610 1.531 . S
C614 H626 0.960 . S
C614 H627 0.962 . S
C614 H628 0.960 . S
C615 C612 1.511 . S
C615 H629 0.961 . S
C615 H630 0.961 . S
C615 H631 0.961 . S
C616 C617 1.370 . S
C616 C618 1.363 . S
C616 H632 0.931 . S
C617 C616 1.370 . S
C617 C621 1.408 . S
C618 C616 1.363 . S
C618 C619 1.370 . S
C618 C622 1.524 . S
C619 C611 1.503 . S
C619 C618 1.370 . S
C619 C620 1.403 . S
C620 C619 1.403 . S
C620 C621 1.404 . S
C620 C623 1.539 . S
C621 C617 1.408 . S
C621 C620 1.404 . S
C621 H633 0.930 . S
C622 C618 1.524 . S
C622 H634 0.956 . S
C622 H635 0.961 . S
C622 H636 0.961 . S
C623 C620 1.539 . S
C623 H637 0.958 . S
C623 H638 0.961 . S
C623 H639 0.960 . S
H624 C608 0.931 . S
H625 C613 0.929 . S
H626 C614 0.960 . S
H627 C614 0.962 . S
H628 C614 0.960 . S
H629 C615 0.961 . S
H630 C615 0.961 . S
H631 C615 0.961 . S
H632 C616 0.931 . S
H633 C621 0.930 . S
H634 C622 0.956 . S
H635 C622 0.961 . S
H636 C622 0.961 . S
H637 C623 0.958 . S
H638 C623 0.961 . S
H639 C623 0.960 . S
C640 C641 1.391 . S
C640 C642 1.394 . S
C640 H656 0.931 . S
C641 C640 1.391 . S
C641 C645 1.376 . S
C642 C640 1.394 . S
C642 C643 1.369 . S
C642 C646 1.531 . S
C643 C642 1.369 . S
C643 C644 1.410 . S
C643 C651 1.503 . S
C644 C643 1.410 . S
C644 C645 1.392 . S
C644 C647 1.511 . S
C645 C641 1.376 . S
C645 C644 1.392 . S
C645 H657 0.929 . S
C646 C642 1.531 . S
C646 H658 0.960 . S
C646 H659 0.962 . S
C646 H660 0.960 . S
C647 C644 1.511 . S
C647 H661 0.961 . S
C647 H662 0.961 . S
C647 H663 0.961 . S
C648 C649 1.370 . S
C648 C650 1.363 . S
C648 H664 0.931 . S
C649 C648 1.370 . S
C649 C653 1.408 . S
C650 C648 1.363 . S
C650 C651 1.370 . S
C650 C654 1.524 . S
C651 C643 1.503 . S
C651 C650 1.370 . S
C651 C652 1.403 . S
C652 C651 1.403 . S
C652 C653 1.404 . S
C652 C655 1.539 . S
C653 C649 1.408 . S
C653 C652 1.404 . S
C653 H665 0.930 . S
C654 C650 1.524 . S
C654 H666 0.956 . S
C654 H667 0.961 . S
C654 H668 0.961 . S
C655 C652 1.539 . S
C655 H669 0.958 . S
C655 H670 0.961 . S
C655 H671 0.960 . S
H656 C640 0.931 . S
H657 C645 0.929 . S
H658 C646 0.960 . S
H659 C646 0.962 . S
H660 C646 0.960 . S
H661 C647 0.961 . S
H662 C647 0.961 . S
H663 C647 0.961 . S
H664 C648 0.931 . S
H665 C653 0.930 . S
H666 C654 0.956 . S
H667 C654 0.961 . S
H668 C654 0.961 . S
H669 C655 0.958 . S
H670 C655 0.961 . S
H671 C655 0.960 . S
C672 C673 1.391 . S
C672 C674 1.394 . S
C672 H688 0.931 . S
C673 C672 1.391 . S
C673 C677 1.376 . S
C674 C672 1.394 . S
C674 C675 1.369 . S
C674 C678 1.531 . S
C675 C674 1.369 . S
C675 C676 1.410 . S
C675 C683 1.503 . S
C676 C675 1.410 . S
C676 C677 1.392 . S
C676 C679 1.511 . S
C677 C673 1.376 . S
C677 C676 1.392 . S
C677 H689 0.929 . S
C678 C674 1.531 . S
C678 H690 0.960 . S
C678 H691 0.962 . S
C678 H692 0.960 . S
C679 C676 1.511 . S
C679 H693 0.961 . S
C679 H694 0.961 . S
C679 H695 0.961 . S
C680 C681 1.370 . S
C680 C682 1.363 . S
C680 H696 0.931 . S
C681 C680 1.370 . S
C681 C685 1.408 . S
C682 C680 1.363 . S
C682 C683 1.370 . S
C682 C686 1.524 . S
C683 C675 1.503 . S
C683 C682 1.370 . S
C683 C684 1.403 . S
C684 C683 1.403 . S
C684 C685 1.404 . S
C684 C687 1.539 . S
C685 C681 1.408 . S
C685 C684 1.404 . S
C685 H697 0.930 . S
C686 C682 1.524 . S
C686 H698 0.956 . S
C686 H699 0.961 . S
C686 H700 0.961 . S
C687 C684 1.539 . S
C687 H701 0.958 . S
C687 H702 0.961 . S
C687 H703 0.960 . S
H688 C672 0.931 . S
H689 C677 0.929 . S
H690 C678 0.960 . S
H691 C678 0.962 . S
H692 C678 0.960 . S
H693 C679 0.961 . S
H694 C679 0.961 . S
H695 C679 0.961 . S
H696 C680 0.931 . S
H697 C685 0.930 . S
H698 C686 0.956 . S
H699 C686 0.961 . S
H700 C686 0.961 . S
H701 C687 0.958 . S
H702 C687 0.961 . S
H703 C687 0.960 . S
C704 C705 1.391 . S
C704 C706 1.394 . S
C704 H720 0.931 . S
C705 C704 1.391 . S
C705 C709 1.376 . S
C706 C704 1.394 . S
C706 C707 1.369 . S
C706 C710 1.531 . S
C707 C706 1.369 . S
C707 C708 1.410 . S
C707 C715 1.503 . S
C708 C707 1.410 . S
C708 C709 1.392 . S
C708 C711 1.511 . S
C709 C705 1.376 . S
C709 C708 1.392 . S
C709 H721 0.929 . S
C710 C706 1.531 . S
C710 H722 0.960 . S
C710 H723 0.962 . S
C710 H724 0.960 . S
C711 C708 1.511 . S
C711 H725 0.961 . S
C711 H726 0.961 . S
C711 H727 0.961 . S
C712 C713 1.370 . S
C712 C714 1.363 . S
C712 H728 0.931 . S
C713 C712 1.370 . S
C713 C717 1.408 . S
C714 C712 1.363 . S
C714 C715 1.370 . S
C714 C718 1.524 . S
C715 C707 1.503 . S
C715 C714 1.370 . S
C715 C716 1.403 . S
C716 C715 1.403 . S
C716 C717 1.404 . S
C716 C719 1.539 . S
C717 C713 1.408 . S
C717 C716 1.404 . S
C717 H729 0.930 . S
C718 C714 1.524 . S
C718 H730 0.956 . S
C718 H731 0.961 . S
C718 H732 0.961 . S
C719 C716 1.539 . S
C719 H733 0.958 . S
C719 H734 0.961 . S
C719 H735 0.960 . S
H720 C704 0.931 . S
H721 C709 0.929 . S
H722 C710 0.960 . S
H723 C710 0.962 . S
H724 C710 0.960 . S
H725 C711 0.961 . S
H726 C711 0.961 . S
H727 C711 0.961 . S
H728 C712 0.931 . S
H729 C717 0.930 . S
H730 C718 0.956 . S
H731 C718 0.961 . S
H732 C718 0.961 . S
H733 C719 0.958 . S
H734 C719 0.961 . S
H735 C719 0.960 . S
C736 C737 1.391 . S
C736 C738 1.394 . S
C736 H752 0.931 . S
C737 C736 1.391 . S
C737 C741 1.376 . S
C738 C736 1.394 . S
C738 C739 1.369 . S
C738 C742 1.531 . S
C739 C738 1.369 . S
C739 C740 1.410 . S
C739 C747 1.503 1_556 S
C740 C739 1.410 . S
C740 C741 1.392 . S
C740 C743 1.522 . S
C741 C737 1.376 . S
C741 C740 1.392 . S
C741 H753 0.929 . S
C742 C738 1.531 . S
C742 H754 0.960 . S
C742 H755 0.962 . S
C742 H756 0.960 . S
C743 C740 1.522 . S
C743 H757 0.954 1_556 S
C743 H758 0.940 1_556 S
C743 H759 0.978 . S
C744 C745 1.370 . S
C744 C746 1.363 . S
C744 H760 0.931 . S
C745 C744 1.370 . S
C745 C749 1.408 . S
C746 C744 1.363 . S
C746 C747 1.370 . S
C746 C750 1.524 . S
C747 C739 1.503 1_554 S
C747 C746 1.370 . S
C747 C748 1.403 1_554 S
C748 C747 1.403 1_556 S
C748 C749 1.404 1_556 S
C748 C751 1.539 . S
C749 C745 1.408 . S
C749 C748 1.404 1_554 S
C749 H761 0.932 . S
C750 C746 1.524 . S
C750 H762 0.956 . S
C750 H763 0.961 . S
C750 H764 0.961 . S
C751 C748 1.539 . S
C751 H765 0.958 . S
C751 H766 0.961 . S
C751 H767 0.960 . S
H752 C736 0.931 . S
H753 C741 0.929 . S
H754 C742 0.960 . S
H755 C742 0.962 . S
H756 C742 0.960 . S
H757 C743 0.954 1_554 S
H758 C743 0.940 1_554 S
H759 C743 0.978 . S
H760 C744 0.931 . S
H761 C749 0.932 . S
H762 C750 0.956 . S
H763 C750 0.961 . S
H764 C750 0.961 . S
H765 C751 0.958 . S
H766 C751 0.961 . S
H767 C751 0.960 . S
C768 C769 1.391 . S
C768 C770 1.394 . S
C768 H784 0.931 . S
C769 C768 1.391 . S
C769 C773 1.376 . S
C770 C768 1.394 . S
C770 C771 1.369 . S
C770 C774 1.531 . S
C771 C770 1.369 . S
C771 C772 1.410 . S
C771 C779 1.503 . S
C772 C771 1.410 . S
C772 C773 1.392 . S
C772 C775 1.511 . S
C773 C769 1.376 . S
C773 C772 1.392 . S
C773 H785 0.929 . S
C774 C770 1.531 . S
C774 H786 0.960 . S
C774 H787 0.962 . S
C774 H788 0.960 . S
C775 C772 1.511 . S
C775 H789 0.961 . S
C775 H790 0.961 . S
C775 H791 0.961 . S
C776 C777 1.370 . S
C776 C778 1.363 . S
C776 H792 0.931 . S
C777 C776 1.370 . S
C777 C781 1.408 . S
C778 C776 1.363 . S
C778 C779 1.370 . S
C778 C782 1.524 . S
C779 C771 1.503 . S
C779 C778 1.370 . S
C779 C780 1.403 . S
C780 C779 1.403 . S
C780 C781 1.404 . S
C780 C783 1.539 . S
C781 C777 1.408 . S
C781 C780 1.404 . S
C781 H793 0.930 . S
C782 C778 1.524 . S
C782 H794 0.956 . S
C782 H795 0.961 . S
C782 H796 0.961 . S
C783 C780 1.539 . S
C783 H797 0.958 . S
C783 H798 0.961 . S
C783 H799 0.960 . S
H784 C768 0.931 . S
H785 C773 0.929 . S
H786 C774 0.960 . S
H787 C774 0.962 . S
H788 C774 0.960 . S
H789 C775 0.961 . S
H790 C775 0.961 . S
H791 C775 0.961 . S
H792 C776 0.931 . S
H793 C781 0.930 . S
H794 C782 0.956 . S
H795 C782 0.961 . S
H796 C782 0.961 . S
H797 C783 0.958 . S
H798 C783 0.961 . S
H799 C783 0.960 . S
C800 C801 1.391 . S
C800 C802 1.394 . S
C800 H816 0.931 . S
C801 C800 1.391 . S
C801 C805 1.376 . S
C802 C800 1.394 . S
C802 C803 1.369 . S
C802 C806 1.531 . S
C803 C802 1.369 . S
C803 C804 1.410 1_554 S
C803 C811 1.503 1_554 S
C804 C803 1.410 1_556 S
C804 C805 1.392 1_556 S
C804 C807 1.511 . S
C805 C801 1.376 . S
C805 C804 1.392 1_554 S
C805 H817 0.929 . S
C806 C802 1.531 . S
C806 H818 0.960 . S
C806 H819 0.962 . S
C806 H820 0.960 . S
C807 C804 1.511 . S
C807 H821 0.961 . S
C807 H822 0.961 . S
C807 H823 0.961 . S
C808 C809 1.370 . S
C808 C810 1.363 . S
C808 H824 0.931 . S
C809 C808 1.370 . S
C809 C813 1.408 . S
C810 C808 1.363 . S
C810 C811 1.370 . S
C810 C814 1.524 1_556 S
C811 C803 1.503 1_556 S
C811 C810 1.370 . S
C811 C812 1.403 . S
C812 C811 1.403 . S
C812 C813 1.404 . S
C812 C815 1.539 . S
C813 C809 1.408 . S
C813 C812 1.404 . S
C813 H825 0.930 . S
C814 C810 1.524 1_554 S
C814 H826 0.956 . S
C814 H827 0.961 . S
C814 H828 0.961 . S
C815 C812 1.539 . S
C815 H829 0.958 . S
C815 H830 0.961 . S
C815 H831 0.960 . S
H816 C800 0.931 . S
H817 C805 0.929 . S
H818 C806 0.960 . S
H819 C806 0.962 . S
H820 C806 0.960 . S
H821 C807 0.961 . S
H822 C807 0.961 . S
H823 C807 0.961 . S
H824 C808 0.931 . S
H825 C813 0.930 . S
H826 C814 0.956 . S
H827 C814 0.961 . S
H828 C814 0.961 . S
H829 C815 0.958 . S
H830 C815 0.961 . S
H831 C815 0.960 . S
C832 C833 1.391 . S
C832 C834 1.394 . S
C832 H848 0.931 . S
C833 C832 1.391 . S
C833 C837 1.376 . S
C834 C832 1.394 . S
C834 C835 1.369 . S
C834 C838 1.531 . S
C835 C834 1.369 . S
C835 C836 1.410 . S
C835 C843 1.503 . S
C836 C835 1.410 . S
C836 C837 1.392 . S
C836 C839 1.511 . S
C837 C833 1.376 . S
C837 C836 1.392 . S
C837 H849 0.929 . S
C838 C834 1.531 . S
C838 H850 0.960 . S
C838 H851 0.962 . S
C838 H852 0.960 . S
C839 C836 1.511 . S
C839 H853 0.961 . S
C839 H854 0.961 . S
C839 H855 0.961 . S
C840 C841 1.370 . S
C840 C842 1.363 . S
C840 H856 0.931 . S
C841 C840 1.370 . S
C841 C845 1.408 . S
C842 C840 1.363 . S
C842 C843 1.370 . S
C842 C846 1.524 . S
C843 C835 1.503 . S
C843 C842 1.370 . S
C843 C844 1.403 . S
C844 C843 1.403 . S
C844 C845 1.404 . S
C844 C847 1.539 . S
C845 C841 1.408 . S
C845 C844 1.404 . S
C845 H857 0.930 . S
C846 C842 1.524 . S
C846 H858 0.956 . S
C846 H859 0.961 . S
C846 H860 0.961 . S
C847 C844 1.539 . S
C847 H861 0.958 . S
C847 H862 0.961 . S
C847 H863 0.960 . S
H848 C832 0.931 . S
H849 C837 0.929 . S
H850 C838 0.960 . S
H851 C838 0.962 . S
H852 C838 0.960 . S
H853 C839 0.961 . S
H854 C839 0.961 . S
H855 C839 0.961 . S
H856 C840 0.931 . S
H857 C845 0.930 . S
H858 C846 0.956 . S
H859 C846 0.961 . S
H860 C846 0.961 . S
H861 C847 0.958 . S
H862 C847 0.961 . S
H863 C847 0.960 . S
C864 C865 1.391 . S
C864 C866 1.394 1_554 S
C864 H880 0.943 . S
C865 C864 1.391 . S
C865 C869 1.376 . S
C866 C864 1.394 1_556 S
C866 C867 1.369 1_556 S
C866 C870 1.531 . S
C867 C866 1.369 1_554 S
C867 C868 1.410 . S
C867 C875 1.503 1_554 S
C868 C867 1.410 . S
C868 C869 1.392 . S
C868 C871 1.511 . S
C869 C865 1.376 . S
C869 C868 1.392 . S
C869 H881 0.929 . S
C870 C866 1.531 . S
C870 H882 0.960 . S
C870 H883 0.962 . S
C870 H884 0.960 . S
C871 C868 1.511 . S
C871 H885 0.961 . S
C871 H886 0.961 . S
C871 H887 0.961 . S
C872 C873 1.370 . S
C872 C874 1.363 . S
C872 H888 0.931 . S
C873 C872 1.370 . S
C873 C877 1.408 . S
C874 C872 1.363 . S
C874 C875 1.370 . S
C874 C878 1.524 1_556 S
C875 C867 1.503 1_556 S
C875 C874 1.370 . S
C875 C876 1.403 . S
C876 C875 1.403 . S
C876 C877 1.404 . S
C876 C879 1.539 . S
C877 C873 1.408 . S
C877 C876 1.404 . S
C877 H889 0.930 . S
C878 C874 1.524 1_554 S
C878 H890 0.956 . S
C878 H891 0.961 . S
C878 H892 0.961 . S
C879 C876 1.539 . S
C879 H893 0.958 . S
C879 H894 0.961 . S
C879 H895 0.960 . S
H880 C864 0.943 . S
H881 C869 0.929 . S
H882 C870 0.960 . S
H883 C870 0.962 . S
H884 C870 0.960 . S
H885 C871 0.961 . S
H886 C871 0.961 . S
H887 C871 0.961 . S
H888 C872 0.931 . S
H889 C877 0.930 . S
H890 C878 0.956 . S
H891 C878 0.961 . S
H892 C878 0.961 . S
H893 C879 0.958 . S
H894 C879 0.961 . S
H895 C879 0.960 . S
C896 C897 1.391 . S
C896 C898 1.394 . S
C896 H912 0.931 . S
C897 C896 1.391 . S
C897 C901 1.376 . S
C898 C896 1.394 . S
C898 C899 1.369 . S
C898 C902 1.531 . S
C899 C898 1.369 . S
C899 C900 1.410 . S
C899 C907 1.503 . S
C900 C899 1.410 . S
C900 C901 1.392 . S
C900 C903 1.511 . S
C901 C897 1.376 . S
C901 C900 1.392 . S
C901 H913 0.929 . S
C902 C898 1.531 . S
C902 H914 0.960 . S
C902 H915 0.962 . S
C902 H916 0.960 . S
C903 C900 1.511 . S
C903 H917 0.961 . S
C903 H918 0.961 . S
C903 H919 0.961 . S
C904 C905 1.370 . S
C904 C906 1.363 . S
C904 H920 0.931 . S
C905 C904 1.370 . S
C905 C909 1.408 . S
C906 C904 1.363 . S
C906 C907 1.370 . S
C906 C910 1.524 . S
C907 C899 1.503 . S
C907 C906 1.370 . S
C907 C908 1.403 . S
C908 C907 1.403 . S
C908 C909 1.404 . S
C908 C911 1.539 . S
C909 C905 1.408 . S
C909 C908 1.404 . S
C909 H921 0.930 . S
C910 C906 1.524 . S
C910 H922 0.956 . S
C910 H923 0.961 . S
C910 H924 0.961 . S
C911 C908 1.539 . S
C911 H925 0.958 . S
C911 H926 0.961 . S
C911 H927 0.960 . S
H912 C896 0.931 . S
H913 C901 0.929 . S
H914 C902 0.960 . S
H915 C902 0.962 . S
H916 C902 0.960 . S
H917 C903 0.961 . S
H918 C903 0.961 . S
H919 C903 0.961 . S
H920 C904 0.931 . S
H921 C909 0.930 . S
H922 C910 0.956 . S
H923 C910 0.961 . S
H924 C910 0.961 . S
H925 C911 0.958 . S
H926 C911 0.961 . S
H927 C911 0.960 . S
C928 C929 1.391 . S
C928 C930 1.394 . S
C928 H944 0.931 . S
C929 C928 1.391 . S
C929 C933 1.376 . S
C930 C928 1.394 . S
C930 C931 1.369 . S
C930 C934 1.531 1_554 S
C931 C930 1.369 . S
C931 C932 1.410 . S
C931 C939 1.503 1_554 S
C932 C931 1.410 . S
C932 C933 1.392 . S
C932 C935 1.511 . S
C933 C929 1.376 . S
C933 C932 1.392 . S
C933 H945 0.929 . S
C934 C930 1.531 1_556 S
C934 H946 0.960 . S
C934 H947 0.962 . S
C934 H948 0.960 . S
C935 C932 1.511 . S
C935 H949 0.961 . S
C935 H950 0.961 . S
C935 H951 0.961 . S
C936 C937 1.370 . S
C936 C938 1.363 . S
C936 H952 0.931 . S
C937 C936 1.370 . S
C937 C941 1.408 . S
C938 C936 1.363 . S
C938 C939 1.370 . S
C938 C942 1.524 . S
C939 C931 1.503 1_556 S
C939 C938 1.370 . S
C939 C940 1.403 1_556 S
C940 C939 1.403 1_554 S
C940 C941 1.404 1_554 S
C940 C943 1.539 . S
C941 C937 1.408 . S
C941 C940 1.404 1_556 S
C941 H953 0.930 . S
C942 C938 1.524 . S
C942 H954 0.956 . S
C942 H955 0.961 . S
C942 H956 0.961 . S
C943 C940 1.539 . S
C943 H957 0.958 . S
C943 H958 0.961 . S
C943 H959 0.960 . S
H944 C928 0.931 . S
H945 C933 0.929 . S
H946 C934 0.960 . S
H947 C934 0.962 . S
H948 C934 0.960 . S
H949 C935 0.961 . S
H950 C935 0.961 . S
H951 C935 0.961 . S
H952 C936 0.931 . S
H953 C941 0.930 . S
H954 C942 0.956 . S
H955 C942 0.961 . S
H956 C942 0.961 . S
H957 C943 0.958 . S
H958 C943 0.961 . S
H959 C943 0.960 . S
C960 C961 1.391 . S
C960 C962 1.394 . S
C960 H976 0.931 . S
C961 C960 1.391 . S
C961 C965 1.376 . S
C962 C960 1.394 . S
C962 C963 1.369 . S
C962 C966 1.531 . S
C963 C962 1.369 . S
C963 C964 1.410 . S
C963 C971 1.503 . S
C964 C963 1.410 . S
C964 C965 1.392 . S
C964 C967 1.511 . S
C965 C961 1.376 . S
C965 C964 1.392 . S
C965 H977 0.929 . S
C966 C962 1.531 . S
C966 H978 0.960 . S
C966 H979 0.962 . S
C966 H980 0.960 . S
C967 C964 1.511 . S
C967 H981 0.961 . S
C967 H982 0.961 . S
C967 H983 0.961 . S
C968 C969 1.370 . S
C968 C970 1.363 . S
C968 H984 0.931 . S
C969 C968 1.370 . S
C969 C973 1.408 . S
C970 C968 1.363 . S
C970 C971 1.370 . S
C970 C974 1.524 . S
C971 C963 1.503 . S
C971 C970 1.370 . S
C971 C972 1.403 . S
C972 C971 1.403 . S
C972 C973 1.404 . S
C972 C975 1.539 . S
C973 C969 1.408 . S
C973 C972 1.404 . S
C973 H985 0.930 . S
C974 C970 1.524 . S
C974 H986 0.956 . S
C974 H987 0.961 . S
C974 H988 0.961 . S
C975 C972 1.539 . S
C975 H989 0.958 . S
C975 H990 0.961 . S
C975 H991 0.960 . S
H976 C960 0.931 . S
H977 C965 0.929 . S
H978 C966 0.960 . S
H979 C966 0.962 . S
H980 C966 0.960 . S
H981 C967 0.961 . S
H982 C967 0.961 . S
H983 C967 0.961 . S
H984 C968 0.931 . S
H985 C973 0.930 . S
H986 C974 0.956 . S
H987 C974 0.961 . S
H988 C974 0.961 . S
H989 C975 0.958 . S
H990 C975 0.961 . S
H991 C975 0.960 . S
C992 C993 1.391 . S
C992 C994 1.394 1_556 S
C992 H1008 0.931 1_556 S
C993 C992 1.391 . S
C993 C997 1.376 . S
C994 C992 1.394 1_554 S
C994 C995 1.369 1_554 S
C994 C998 1.531 . S
C995 C994 1.369 1_556 S
C995 C996 1.410 . S
C995 C1003 1.503 1_556 S
C996 C995 1.410 . S
C996 C997 1.392 . S
C996 C999 1.511 . S
C997 C993 1.376 . S
C997 C996 1.392 . S
C997 H1009 0.929 . S
C998 C994 1.531 . S
C998 H1010 0.960 . S
C998 H1011 0.962 . S
C998 H1012 0.960 . S
C999 C996 1.511 . S
C999 H1013 0.961 . S
C999 H1014 0.961 . S
C999 H1015 0.961 . S
C1000 C1001 1.370 . S
C1000 C1002 1.363 1_554 S
C1000 H1016 0.931 . S
C1001 C1000 1.370 . S
C1001 C1005 1.408 . S
C1002 C1000 1.363 1_556 S
C1002 C1003 1.370 1_556 S
C1002 C1006 1.524 . S
C1003 C995 1.503 1_554 S
C1003 C1002 1.370 1_554 S
C1003 C1004 1.403 . S
C1004 C1003 1.403 . S
C1004 C1005 1.404 . S
C1004 C1007 1.539 . S
C1005 C1001 1.408 . S
C1005 C1004 1.404 . S
C1005 H1017 0.930 . S
C1006 C1002 1.524 . S
C1006 H1018 0.956 . S
C1006 H1019 0.961 . S
C1006 H1020 0.961 . S
C1007 C1004 1.539 . S
C1007 H1021 0.958 . S
C1007 H1022 0.961 . S
C1007 H1023 0.960 . S
H1008 C992 0.931 1_554 S
H1009 C997 0.929 . S
H1010 C998 0.960 . S
H1011 C998 0.962 . S
H1012 C998 0.960 . S
H1013 C999 0.961 . S
H1014 C999 0.961 . S
H1015 C999 0.961 . S
H1016 C1000 0.931 . S
H1017 C1005 0.930 . S
H1018 C1006 0.956 . S
H1019 C1006 0.961 . S
H1020 C1006 0.961 . S
H1021 C1007 0.958 . S
H1022 C1007 0.961 . S
H1023 C1007 0.960 . S
C1024 C1025 1.391 . S
C1024 C1026 1.394 . S
C1024 H1040 0.931 . S
C1025 C1024 1.391 . S
C1025 C1029 1.376 . S
C1026 C1024 1.394 . S
C1026 C1027 1.369 . S
C1026 C1030 1.531 . S
C1027 C1026 1.369 . S
C1027 C1028 1.410 . S
C1027 C1035 1.503 . S
C1028 C1027 1.410 . S
C1028 C1029 1.392 . S
C1028 C1031 1.511 . S
C1029 C1025 1.376 . S
C1029 C1028 1.392 . S
C1029 H1041 0.929 . S
C1030 C1026 1.531 . S
C1030 H1042 0.960 . S
C1030 H1043 0.962 . S
C1030 H1044 0.960 . S
C1031 C1028 1.511 . S
C1031 H1045 0.961 . S
C1031 H1046 0.961 . S
C1031 H1047 0.961 . S
C1032 C1033 1.370 . S
C1032 C1034 1.363 . S
C1032 H1048 0.931 . S
C1033 C1032 1.370 . S
C1033 C1037 1.408 . S
C1034 C1032 1.363 . S
C1034 C1035 1.370 . S
C1034 C1038 1.524 . S
C1035 C1027 1.503 . S
C1035 C1034 1.370 . S
C1035 C1036 1.403 . S
C1036 C1035 1.403 . S
C1036 C1037 1.404 . S
C1036 C1039 1.539 . S
C1037 C1033 1.408 . S
C1037 C1036 1.404 . S
C1037 H1049 0.930 . S
C1038 C1034 1.524 . S
C1038 H1050 0.956 . S
C1038 H1051 0.961 . S
C1038 H1052 0.961 . S
C1039 C1036 1.539 . S
C1039 H1053 0.958 . S
C1039 H1054 0.961 . S
C1039 H1055 0.960 . S
H1040 C1024 0.931 . S
H1041 C1029 0.929 . S
H1042 C1030 0.960 . S
H1043 C1030 0.962 . S
H1044 C1030 0.960 . S
H1045 C1031 0.961 . S
H1046 C1031 0.961 . S
H1047 C1031 0.961 . S
H1048 C1032 0.931 . S
H1049 C1037 0.930 . S
H1050 C1038 0.956 . S
H1051 C1038 0.961 . S
H1052 C1038 0.961 . S
H1053 C1039 0.958 . S
H1054 C1039 0.961 . S
H1055 C1039 0.960 . S
C1056 C1057 1.391 . S
C1056 C1058 1.394 1_554 S
C1056 H1072 0.931 1_554 S
C1057 C1056 1.391 . S
C1057 C1061 1.376 . S
C1058 C1056 1.394 1_556 S
C1058 C1059 1.369 1_556 S
C1058 C1062 1.531 . S
C1059 C1058 1.369 1_554 S
C1059 C1060 1.410 . S
C1059 C1067 1.503 1_554 S
C1060 C1059 1.410 . S
C1060 C1061 1.392 . S
C1060 C1063 1.511 . S
C1061 C1057 1.376 . S
C1061 C1060 1.392 . S
C1061 H1073 0.929 . S
C1062 C1058 1.531 . S
C1062 H1074 0.960 . S
C1062 H1075 0.962 . S
C1062 H1076 0.960 . S
C1063 C1060 1.511 . S
C1063 H1077 0.961 . S
C1063 H1078 0.961 . S
C1063 H1079 0.961 . S
C1064 C1065 1.370 . S
C1064 C1066 1.373 . S
C1064 H1080 0.931 . S
C1065 C1064 1.370 . S
C1065 C1069 1.408 . S
C1066 C1064 1.373 . S
C1066 C1067 1.378 . S
C1066 C1070 1.507 1_556 S
C1067 C1059 1.503 1_556 S
C1067 C1066 1.378 . S
C1067 C1068 1.403 . S
C1068 C1067 1.403 . S
C1068 C1069 1.404 . S
C1068 C1071 1.539 . S
C1069 C1065 1.408 . S
C1069 C1068 1.404 . S
C1069 H1081 0.930 . S
C1070 C1066 1.507 1_554 S
C1070 H1082 0.956 . S
C1070 H1083 0.961 . S
C1070 H1084 0.961 . S
C1071 C1068 1.539 . S
C1071 H1085 0.958 . S
C1071 H1086 0.961 . S
C1071 H1087 0.960 . S
H1072 C1056 0.931 1_556 S
H1073 C1061 0.929 . S
H1074 C1062 0.960 . S
H1075 C1062 0.962 . S
H1076 C1062 0.960 . S
H1077 C1063 0.961 . S
H1078 C1063 0.961 . S
H1079 C1063 0.961 . S
H1080 C1064 0.931 . S
H1081 C1069 0.930 . S
H1082 C1070 0.956 . S
H1083 C1070 0.961 . S
H1084 C1070 0.961 . S
H1085 C1071 0.958 . S
H1086 C1071 0.961 . S
H1087 C1071 0.960 . S
C1088 C1089 1.391 . S
C1088 C1090 1.394 . S
C1088 H1104 0.931 . S
C1089 C1088 1.391 . S
C1089 C1093 1.376 . S
C1090 C1088 1.394 . S
C1090 C1091 1.369 . S
C1090 C1094 1.531 . S
C1091 C1090 1.369 . S
C1091 C1092 1.410 . S
C1091 C1099 1.503 . S
C1092 C1091 1.410 . S
C1092 C1093 1.392 . S
C1092 C1095 1.511 . S
C1093 C1089 1.376 . S
C1093 C1092 1.392 . S
C1093 H1105 0.929 . S
C1094 C1090 1.531 . S
C1094 H1106 0.960 . S
C1094 H1107 0.962 . S
C1094 H1108 0.960 . S
C1095 C1092 1.511 . S
C1095 H1109 0.961 . S
C1095 H1110 0.961 . S
C1095 H1111 0.961 . S
C1096 C1097 1.370 . S
C1096 C1098 1.363 . S
C1096 H1112 0.931 . S
C1097 C1096 1.370 . S
C1097 C1101 1.408 . S
C1098 C1096 1.363 . S
C1098 C1099 1.370 . S
C1098 C1102 1.524 . S
C1099 C1091 1.503 . S
C1099 C1098 1.370 . S
C1099 C1100 1.403 . S
C1100 C1099 1.403 . S
C1100 C1101 1.404 . S
C1100 C1103 1.539 . S
C1101 C1097 1.408 . S
C1101 C1100 1.404 . S
C1101 H1113 0.930 . S
C1102 C1098 1.524 . S
C1102 H1114 0.956 . S
C1102 H1115 0.961 . S
C1102 H1116 0.961 . S
C1103 C1100 1.539 . S
C1103 H1117 0.958 . S
C1103 H1118 0.961 . S
C1103 H1119 0.960 . S
H1104 C1088 0.931 . S
H1105 C1093 0.929 . S
H1106 C1094 0.960 . S
H1107 C1094 0.962 . S
H1108 C1094 0.960 . S
H1109 C1095 0.961 . S
H1110 C1095 0.961 . S
H1111 C1095 0.961 . S
H1112 C1096 0.931 . S
H1113 C1101 0.930 . S
H1114 C1102 0.956 . S
H1115 C1102 0.961 . S
H1116 C1102 0.961 . S
H1117 C1103 0.958 . S
H1118 C1103 0.961 . S
H1119 C1103 0.960 . S
C1120 C1121 1.391 . S
C1120 C1122 1.394 . S
C1120 H1136 0.931 . S
C1121 C1120 1.391 . S
C1121 C1125 1.376 . S
C1122 C1120 1.394 . S
C1122 C1123 1.369 . S
C1122 C1126 1.521 1_545 S
C1123 C1122 1.369 . S
C1123 C1124 1.410 . S
C1123 C1131 1.503 1_546 S
C1124 C1123 1.410 . S
C1124 C1125 1.392 . S
C1124 C1127 1.511 1_556 S
C1125 C1121 1.376 . S
C1125 C1124 1.392 . S
C1125 H1137 0.929 . S
C1126 C1122 1.521 1_565 S
C1126 H1138 0.974 . S
C1126 H1139 0.961 1_565 S
C1126 H1140 0.957 1_565 S
C1127 C1124 1.511 1_554 S
C1127 H1141 0.961 . S
C1127 H1142 0.961 . S
C1127 H1143 0.961 . S
C1128 C1129 1.370 . S
C1128 C1130 1.363 . S
C1128 H1144 0.931 . S
C1129 C1128 1.370 . S
C1129 C1133 1.408 . S
C1130 C1128 1.363 . S
C1130 C1131 1.370 . S
C1130 C1134 1.524 1_565 S
C1131 C1123 1.503 1_564 S
C1131 C1130 1.370 . S
C1131 C1132 1.403 1_554 S
C1132 C1131 1.403 1_556 S
C1132 C1133 1.404 1_556 S
C1132 C1135 1.539 . S
C1133 C1129 1.408 . S
C1133 C1132 1.404 1_554 S
C1133 H1145 0.930 1_554 S
C1134 C1130 1.524 1_545 S
C1134 H1146 0.956 . S
C1134 H1147 0.961 . S
C1134 H1148 0.966 . S
C1135 C1132 1.539 . S
C1135 H1149 0.958 . S
C1135 H1150 0.961 . S
C1135 H1151 0.960 . S
H1136 C1120 0.931 . S
H1137 C1125 0.929 . S
H1138 C1126 0.974 . S
H1139 C1126 0.961 1_545 S
H1140 C1126 0.957 1_545 S
H1141 C1127 0.961 . S
H1142 C1127 0.961 . S
H1143 C1127 0.961 . S
H1144 C1128 0.931 . S
H1145 C1133 0.930 1_556 S
H1146 C1134 0.956 . S
H1147 C1134 0.961 . S
H1148 C1134 0.966 . S
H1149 C1135 0.958 . S
H1150 C1135 0.961 . S
H1151 C1135 0.960 . S
C1152 C1153 1.391 . S
C1152 C1154 1.394 . S
C1152 H1168 0.931 . S
C1153 C1152 1.391 . S
C1153 C1157 1.376 . S
C1154 C1152 1.394 . S
C1154 C1155 1.369 . S
C1154 C1158 1.531 . S
C1155 C1154 1.369 . S
C1155 C1156 1.410 . S
C1155 C1163 1.503 1_565 S
C1156 C1155 1.410 . S
C1156 C1157 1.392 . S
C1156 C1159 1.511 . S
C1157 C1153 1.376 . S
C1157 C1156 1.392 . S
C1157 H1169 0.929 . S
C1158 C1154 1.531 . S
C1158 H1170 0.960 . S
C1158 H1171 0.962 . S
C1158 H1172 0.960 . S
C1159 C1156 1.511 . S
C1159 H1173 0.961 . S
C1159 H1174 0.961 1_565 S
C1159 H1175 0.961 . S
C1160 C1161 1.370 . S
C1160 C1162 1.363 . S
C1160 H1176 0.931 . S
C1161 C1160 1.370 . S
C1161 C1165 1.408 . S
C1162 C1160 1.363 . S
C1162 C1163 1.370 . S
C1162 C1166 1.524 . S
C1163 C1155 1.503 1_545 S
C1163 C1162 1.370 . S
C1163 C1164 1.403 . S
C1164 C1163 1.403 . S
C1164 C1165 1.404 . S
C1164 C1167 1.539 1_545 S
C1165 C1161 1.408 . S
C1165 C1164 1.404 . S
C1165 H1177 0.930 . S
C1166 C1162 1.524 . S
C1166 H1178 0.956 . S
C1166 H1179 0.961 . S
C1166 H1180 0.961 . S
C1167 C1164 1.539 1_565 S
C1167 H1181 0.958 . S
C1167 H1182 0.961 1_565 S
C1167 H1183 0.960 . S
H1168 C1152 0.931 . S
H1169 C1157 0.929 . S
H1170 C1158 0.960 . S
H1171 C1158 0.962 . S
H1172 C1158 0.960 . S
H1173 C1159 0.961 . S
H1174 C1159 0.961 1_545 S
H1175 C1159 0.961 . S
H1176 C1160 0.931 . S
H1177 C1165 0.930 . S
H1178 C1166 0.956 . S
H1179 C1166 0.961 . S
H1180 C1166 0.961 . S
H1181 C1167 0.958 . S
H1182 C1167 0.961 1_545 S
H1183 C1167 0.960 . S
C1184 C1185 1.391 . S
C1184 C1186 1.394 . S
C1184 H1200 0.931 . S
C1185 C1184 1.391 . S
C1185 C1189 1.376 . S
C1186 C1184 1.394 . S
C1186 C1187 1.370 . S
C1186 C1190 1.531 1_554 S
C1187 C1186 1.370 . S
C1187 C1188 1.420 . S
C1187 C1195 1.494 1_564 S
C1188 C1187 1.420 . S
C1188 C1189 1.392 . S
C1188 C1191 1.511 . S
C1189 C1185 1.376 . S
C1189 C1188 1.392 . S
C1189 H1201 0.929 . S
C1190 C1186 1.531 1_556 S
C1190 H1202 0.960 . S
C1190 H1203 0.962 1_556 S
C1190 H1204 0.960 . S
C1191 C1188 1.511 . S
C1191 H1205 0.961 . S
C1191 H1206 0.961 1_565 S
C1191 H1207 0.961 1_554 S
C1192 C1193 1.370 . S
C1192 C1194 1.363 1_556 S
C1192 H1208 0.931 1_556 S
C1193 C1192 1.370 . S
C1193 C1197 1.408 . S
C1194 C1192 1.363 1_554 S
C1194 C1195 1.370 1_554 S
C1194 C1198 1.524 . S
C1195 C1187 1.494 1_546 S
C1195 C1194 1.370 1_556 S
C1195 C1196 1.403 . S
C1196 C1195 1.403 . S
C1196 C1197 1.404 . S
C1196 C1199 1.539 1_545 S
C1197 C1193 1.408 . S
C1197 C1196 1.404 . S
C1197 H1209 0.930 . S
C1198 C1194 1.524 . S
C1198 H1210 0.956 . S
C1198 H1211 0.961 . S
C1198 H1212 0.961 . S
C1199 C1196 1.539 1_565 S
C1199 H1213 0.958 . S
C1199 H1214 0.961 1_565 S
C1199 H1215 0.960 . S
H1200 C1184 0.931 . S
H1201 C1189 0.929 . S
H1202 C1190 0.960 . S
H1203 C1190 0.962 1_554 S
H1204 C1190 0.960 . S
H1205 C1191 0.961 . S
H1206 C1191 0.961 1_545 S
H1207 C1191 0.961 1_556 S
H1208 C1192 0.931 1_554 S
H1209 C1197 0.930 . S
H1210 C1198 0.956 . S
H1211 C1198 0.961 . S
H1212 C1198 0.961 . S
H1213 C1199 0.958 . S
H1214 C1199 0.961 1_545 S
H1215 C1199 0.960 . S
C1216 C1217 1.391 . S
C1216 C1218 1.394 . S
C1216 H1232 0.931 . S
C1217 C1216 1.391 . S
C1217 C1221 1.376 . S
C1218 C1216 1.394 . S
C1218 C1219 1.369 . S
C1218 C1222 1.531 . S
C1219 C1218 1.369 . S
C1219 C1220 1.410 . S
C1219 C1227 1.503 1_545 S
C1220 C1219 1.410 . S
C1220 C1221 1.392 . S
C1220 C1223 1.511 . S
C1221 C1217 1.376 . S
C1221 C1220 1.392 . S
C1221 H1233 0.929 . S
C1222 C1218 1.531 . S
C1222 H1234 0.960 1_545 S
C1222 H1235 0.962 . S
C1222 H1236 0.960 . S
C1223 C1220 1.511 . S
C1223 H1237 0.961 . S
C1223 H1238 0.961 . S
C1223 H1239 0.961 . S
C1224 C1225 1.370 . S
C1224 C1226 1.363 . S
C1224 H1240 0.931 . S
C1225 C1224 1.370 . S
C1225 C1229 1.408 . S
C1226 C1224 1.363 . S
C1226 C1227 1.370 . S
C1226 C1230 1.524 1_565 S
C1227 C1219 1.503 1_565 S
C1227 C1226 1.370 . S
C1227 C1228 1.403 . S
C1228 C1227 1.403 . S
C1228 C1229 1.404 . S
C1228 C1231 1.539 . S
C1229 C1225 1.408 . S
C1229 C1228 1.404 . S
C1229 H1241 0.930 . S
C1230 C1226 1.524 1_545 S
C1230 H1242 0.956 . S
C1230 H1243 0.961 . S
C1230 H1244 0.961 . S
C1231 C1228 1.539 . S
C1231 H1245 0.958 . S
C1231 H1246 0.961 . S
C1231 H1247 0.960 . S
H1232 C1216 0.931 . S
H1233 C1221 0.929 . S
H1234 C1222 0.960 1_565 S
H1235 C1222 0.962 . S
H1236 C1222 0.960 . S
H1237 C1223 0.961 . S
H1238 C1223 0.961 . S
H1239 C1223 0.961 . S
H1240 C1224 0.931 . S
H1241 C1229 0.930 . S
H1242 C1230 0.956 . S
H1243 C1230 0.961 . S
H1244 C1230 0.961 . S
H1245 C1231 0.958 . S
H1246 C1231 0.961 . S
H1247 C1231 0.960 . S
C225 C5 1.433 . S
C233 C89 1.442 . S
C257 C19 1.446 . S
C265 C103 1.447 . S
C289 C61 1.434 . S
C297 C33 1.442 . S
C321 C75 1.448 . S
C329 C47 1.449 . S
C353 C201 1.442 . S
C361 C117 1.445 . S
C385 C215 1.447 . S
C393 C131 1.447 . S
C417 C145 1.451 . S
C425 C173 1.450 . S
C449 C159 1.448 . S
C457 C187 1.449 . S
C481 C9 1.481 . S
C489 C70 1.455 . S
C513 C23 1.480 . S
C521 C56 1.455 . S
C545 C37 1.480 . S
C553 C98 1.455 . S
C577 C84 1.464 . S
C585 C51 1.486 . S
C609 C182 1.439 . S
C617 C121 1.486 . S
C641 C168 1.465 . S
C649 C135 1.486 . S
C673 C149 1.480 . S
C681 C210 1.455 . S
C705 C196 1.453 . S
C713 C163 1.488 . S
C737 C179 1.407 . S
C745 C11 1.398 . S
C769 C25 1.396 . S
C777 C193 1.399 . S
C801 C207 1.384 . S
C809 C39 1.404 . S
C833 C221 1.406 . S
C841 C53 1.399 . S
C865 C123 1.398 . S
C873 C67 1.398 . S
C897 C137 1.391 . S
C905 C81 1.401 . S
C929 C95 1.404 . S
C937 C151 1.400 . S
C961 C109 1.380 . S
C969 C165 1.405 . S
C993 C28 1.444 . S
C1001 C0 1.438 . S
C1025 C14 1.422 . S
C1033 C42 1.449 . S
C1057 C93 1.500 . S
C1065 C65 1.503 . S
C1089 C79 1.498 . S
C1097 C107 1.501 . S
C1121 C140 1.435 . S
C1129 C112 1.454 . S
C1153 C154 1.450 . S
C1161 C126 1.438 . S
C1185 C205 1.498 . S
C1193 C177 1.503 . S
C1217 C219 1.497 . S
C1225 C191 1.501 . S
