# Generated by pormake.
# Topology whj, (6)-cn, num edge types: 1
# Building blocks:
#     Node 0, Type 0, BuildingBlock: IZENUY_clean_sbu_0, # of connection points: 6
#     Node 1, Type 0, BuildingBlock: IZENUY_clean_sbu_0, # of connection points: 6
#     Node 2, Type 0, BuildingBlock: IZENUY_clean_sbu_0, # of connection points: 6
#     Node 3, Type 0, BuildingBlock: IZENUY_clean_sbu_0, # of connection points: 6
#     Node 4, Type 0, BuildingBlock: IZENUY_clean_sbu_0, # of connection points: 6
#     Node 5, Type 0, BuildingBlock: IZENUY_clean_sbu_0, # of connection points: 6
#     Node 6, Type 0, BuildingBlock: IZENUY_clean_sbu_0, # of connection points: 6
#     Node 7, Type 0, BuildingBlock: IZENUY_clean_sbu_0, # of connection points: 6
#     Node 8, Type 0, BuildingBlock: IZENUY_clean_sbu_0, # of connection points: 6
#     Node 9, Type 0, BuildingBlock: IZENUY_clean_sbu_0, # of connection points: 6
#     Node 10, Type 0, BuildingBlock: IZENUY_clean_sbu_0, # of connection points: 6
#     Node 11, Type 0, BuildingBlock: IZENUY_clean_sbu_0, # of connection points: 6
#     Node 12, Type 0, BuildingBlock: IZENUY_clean_sbu_0, # of connection points: 6
#     Node 13, Type 0, BuildingBlock: IZENUY_clean_sbu_0, # of connection points: 6
#     Node 14, Type 0, BuildingBlock: IZENUY_clean_sbu_0, # of connection points: 6
#     Node 15, Type 0, BuildingBlock: IZENUY_clean_sbu_0, # of connection points: 6
#     Edge 16, Type (0, 0), BuildingBlock: OJICUG_clean_linker_0, # of connection points: 2
#     Edge 17, Type (0, 0), BuildingBlock: OJICUG_clean_linker_0, # of connection points: 2
#     Edge 18, Type (0, 0), BuildingBlock: OJICUG_clean_linker_0, # of connection points: 2
#     Edge 19, Type (0, 0), BuildingBlock: OJICUG_clean_linker_0, # of connection points: 2
#     Edge 20, Type (0, 0), BuildingBlock: OJICUG_clean_linker_0, # of connection points: 2
#     Edge 21, Type (0, 0), BuildingBlock: OJICUG_clean_linker_0, # of connection points: 2
#     Edge 22, Type (0, 0), BuildingBlock: OJICUG_clean_linker_0, # of connection points: 2
#     Edge 23, Type (0, 0), BuildingBlock: OJICUG_clean_linker_0, # of connection points: 2
#     Edge 24, Type (0, 0), BuildingBlock: OJICUG_clean_linker_0, # of connection points: 2
#     Edge 25, Type (0, 0), BuildingBlock: OJICUG_clean_linker_0, # of connection points: 2
#     Edge 26, Type (0, 0), BuildingBlock: OJICUG_clean_linker_0, # of connection points: 2
#     Edge 27, Type (0, 0), BuildingBlock: OJICUG_clean_linker_0, # of connection points: 2
#     Edge 28, Type (0, 0), BuildingBlock: OJICUG_clean_linker_0, # of connection points: 2
#     Edge 29, Type (0, 0), BuildingBlock: OJICUG_clean_linker_0, # of connection points: 2
#     Edge 30, Type (0, 0), BuildingBlock: OJICUG_clean_linker_0, # of connection points: 2
#     Edge 31, Type (0, 0), BuildingBlock: OJICUG_clean_linker_0, # of connection points: 2
#     Edge 32, Type (0, 0), BuildingBlock: OJICUG_clean_linker_0, # of connection points: 2
#     Edge 33, Type (0, 0), BuildingBlock: OJICUG_clean_linker_0, # of connection points: 2
#     Edge 34, Type (0, 0), BuildingBlock: OJICUG_clean_linker_0, # of connection points: 2
#     Edge 35, Type (0, 0), BuildingBlock: OJICUG_clean_linker_0, # of connection points: 2
#     Edge 36, Type (0, 0), BuildingBlock: OJICUG_clean_linker_0, # of connection points: 2
#     Edge 37, Type (0, 0), BuildingBlock: OJICUG_clean_linker_0, # of connection points: 2
#     Edge 38, Type (0, 0), BuildingBlock: OJICUG_clean_linker_0, # of connection points: 2
#     Edge 39, Type (0, 0), BuildingBlock: OJICUG_clean_linker_0, # of connection points: 2
#     Edge 40, Type (0, 0), BuildingBlock: OJICUG_clean_linker_0, # of connection points: 2
#     Edge 41, Type (0, 0), BuildingBlock: OJICUG_clean_linker_0, # of connection points: 2
#     Edge 42, Type (0, 0), BuildingBlock: OJICUG_clean_linker_0, # of connection points: 2
#     Edge 43, Type (0, 0), BuildingBlock: OJICUG_clean_linker_0, # of connection points: 2
#     Edge 44, Type (0, 0), BuildingBlock: OJICUG_clean_linker_0, # of connection points: 2
#     Edge 45, Type (0, 0), BuildingBlock: OJICUG_clean_linker_0, # of connection points: 2
#     Edge 46, Type (0, 0), BuildingBlock: OJICUG_clean_linker_0, # of connection points: 2
#     Edge 47, Type (0, 0), BuildingBlock: OJICUG_clean_linker_0, # of connection points: 2
#     Edge 48, Type (0, 0), BuildingBlock: OJICUG_clean_linker_0, # of connection points: 2
#     Edge 49, Type (0, 0), BuildingBlock: OJICUG_clean_linker_0, # of connection points: 2
#     Edge 50, Type (0, 0), BuildingBlock: OJICUG_clean_linker_0, # of connection points: 2
#     Edge 51, Type (0, 0), BuildingBlock: OJICUG_clean_linker_0, # of connection points: 2
#     Edge 52, Type (0, 0), BuildingBlock: OJICUG_clean_linker_0, # of connection points: 2
#     Edge 53, Type (0, 0), BuildingBlock: OJICUG_clean_linker_0, # of connection points: 2
#     Edge 54, Type (0, 0), BuildingBlock: OJICUG_clean_linker_0, # of connection points: 2
#     Edge 55, Type (0, 0), BuildingBlock: OJICUG_clean_linker_0, # of connection points: 2
#     Edge 56, Type (0, 0), BuildingBlock: OJICUG_clean_linker_0, # of connection points: 2
#     Edge 57, Type (0, 0), BuildingBlock: OJICUG_clean_linker_0, # of connection points: 2
#     Edge 58, Type (0, 0), BuildingBlock: OJICUG_clean_linker_0, # of connection points: 2
#     Edge 59, Type (0, 0), BuildingBlock: OJICUG_clean_linker_0, # of connection points: 2
#     Edge 60, Type (0, 0), BuildingBlock: OJICUG_clean_linker_0, # of connection points: 2
#     Edge 61, Type (0, 0), BuildingBlock: OJICUG_clean_linker_0, # of connection points: 2
#     Edge 62, Type (0, 0), BuildingBlock: OJICUG_clean_linker_0, # of connection points: 2
#     Edge 63, Type (0, 0), BuildingBlock: OJICUG_clean_linker_0, # of connection points: 2
# Relax obj value: 0.269
# Max RMSD: 0.261
# Mean RMSD: 0.261
data_MOF--net-whj--node1-IZENUY_clean_sbu_0--edge1-OJICUG_clean_linker_0
_symmetry_space_group_name_H-M    P1
_symmetry_Int_Tables_number       1
_symmetry_cell_setting            triclinic
loop_
_symmetry_equiv_pos_as_xyz
'x, y, z'
_cell_length_a     26.877266
_cell_length_b     26.917529
_cell_length_c     35.011164
_cell_angle_alpha  89.924499
_cell_angle_beta   90.01868
_cell_angle_gamma 89.736902
loop_
_atom_site_label
_atom_site_type_symbol
_atom_site_fract_x
_atom_site_fract_y
_atom_site_fract_z
_atom_type_partial_charge
Fe0 Fe 0.71392 1.01308 0.08307 0.0
Fe1 Fe 0.63788 0.0783 0.12441 0.0
O2 O 0.69995 0.06646 0.1105 0.0
Fe3 Fe 0.74749 0.10913 0.12345 0.0
O4 O 0.78525 0.09864 0.08015 0.0
O5 O 0.73891 0.05036 0.04412 0.0
O6 O 0.65385 1.01217 0.05737 0.0
C7 C 0.62037 0.04511 0.05318 0.0
C8 C 0.79489 1.01994 0.13546 0.0
O9 O 0.61721 0.08091 0.07585 0.0
C10 C 0.68305 0.10856 0.18881 0.0
O11 O 0.68996 0.97164 0.11974 0.0
O12 O 0.62019 1.0123 0.12935 0.0
O13 O 0.78197 0.06131 0.1499 0.0
O14 O 0.77559 1.00451 0.10457 0.0
C15 C 0.67172 0.17053 0.09936 0.0
O16 O 0.6553 0.07663 0.17379 0.0
O17 O 0.71726 0.12884 0.16913 0.0
C18 C 0.64569 0.97266 0.13184 0.0
O19 O 0.64328 0.14633 0.12129 0.0
O20 O 0.71683 0.15809 0.09642 0.0
C21 C 0.7729 0.08231 0.04751 0.0
Fe22 Fe 0.44765 0.74571 0.12434 0.0
Fe23 Fe 0.53954 0.70512 0.08206 0.0
O24 O 0.48706 0.69524 0.11141 0.0
Fe25 Fe 0.47233 0.63461 0.12662 0.0
O26 O 0.40429 0.64428 0.12392 0.0
O27 O 0.39653 0.71796 0.09833 0.0
O28 O 0.45949 0.7815 0.08064 0.0
C29 C 0.47062 0.76588 0.04759 0.0
C30 C 0.4443 0.68201 0.19007 0.0
O31 O 0.50062 0.72993 0.04358 0.0
C32 C 0.57905 0.63684 0.13142 0.0
O33 O 0.49842 0.77744 0.14915 0.0
O34 O 0.55161 0.7672 0.10148 0.0
O35 O 0.47608 0.65335 0.17564 0.0
O36 O 0.42665 0.71771 0.17036 0.0
C37 C 0.50276 0.61222 0.05587 0.0
O38 O 0.58157 0.68058 0.11829 0.0
O39 O 0.538 0.61351 0.13083 0.0
C40 C 0.53882 0.78867 0.1323 0.0
O41 O 0.53719 0.64404 0.05829 0.0
O42 O 0.46713 0.61286 0.07871 0.0
C43 C 0.38186 0.67373 0.10139 0.0
Fe44 Fe 0.82627 0.44448 0.12087 0.0
Fe45 Fe 0.84765 0.54702 0.08492 0.0
O46 O 0.8683 0.49357 0.1102 0.0
Fe47 Fe 0.93202 0.48872 0.12322 0.0
O48 O 0.93974 0.43429 0.0939 0.0
O49 O 0.87249 0.39435 0.11231 0.0
O50 O 0.80973 0.43656 0.07097 0.0
C51 C 0.79456 0.46978 0.04846 0.0
C52 C 0.88373 0.44324 0.18582 0.0
O53 O 0.79986 0.51517 0.05664 0.0
C54 C 0.91777 0.58646 0.13855 0.0
O55 O 0.77233 0.48709 0.12945 0.0
O56 O 0.80351 0.56218 0.12203 0.0
O57 O 0.92125 0.45138 0.16529 0.0
O58 O 0.84018 0.44659 0.17222 0.0
C59 C 0.93663 0.5288 0.0506 0.0
O60 O 0.89154 0.58926 0.10846 0.0
O61 O 0.92936 0.54458 0.15261 0.0
C62 C 0.7686 0.53424 0.13275 0.0
O63 O 0.8906 0.53501 0.04572 0.0
O64 O 0.95485 0.52417 0.08337 0.0
C65 C 0.91344 0.39572 0.09408 0.0
Fe66 Fe 1.01554 0.85198 0.08369 0.0
Fe67 Fe 0.07053 0.92998 0.1308 0.0
O68 O 0.06701 0.86798 0.11275 0.0
Fe69 Fe 0.11551 0.82475 0.12253 0.0
O70 O 0.12511 0.80887 0.073 0.0
O71 O 0.049 0.80991 0.0508 0.0
O72 O 0.0296 0.90221 0.05015 0.0
C73 C 0.02949 0.94713 0.06024 0.0
C74 C 1.02534 0.76799 0.12945 0.0
O75 O 0.03195 0.95821 0.09475 0.0
C76 C 0.12085 0.87738 0.18873 0.0
O77 O 0.97212 0.89039 0.11197 0.0
O78 O 1.01529 0.92101 0.16042 0.0
O79 O 0.07265 0.77168 0.13032 0.0
O80 O 0.99838 0.80126 0.11452 0.0
C81 C 0.16219 0.91429 0.09797 0.0
O82 O 0.11108 0.91644 0.17077 0.0
O83 O 0.11294 0.8356 0.17399 0.0
C84 C 0.97373 0.9104 0.14498 0.0
O85 O 0.12401 0.9417 0.10082 0.0
O86 O 0.16469 0.87186 0.11439 0.0
C87 C 0.09461 0.79936 0.04691 0.0
Fe88 Fe 0.20768 0.04244 0.44025 0.0
Fe89 Fe 0.12811 0.98672 0.39463 0.0
O90 O 0.1904 0.99075 0.41178 0.0
Fe91 Fe 0.23384 0.94253 0.40187 0.0
O92 O 0.2468 0.93185 0.45176 0.0
O93 O 0.25277 1.00888 0.47095 0.0
O94 O 0.16043 0.02794 0.4758 0.0
C95 C 0.1151 1.02282 0.46761 0.0
C96 C 0.29076 0.03281 0.39532 0.0
O97 O 0.1009 1.0211 0.43354 0.0
C98 C 0.18233 0.94059 0.335 0.0
O99 O 0.1662 0.08591 0.41472 0.0
O100 O 0.13412 0.04372 0.36666 0.0
O101 O 0.28752 0.98554 0.39656 0.0
O102 O 0.25567 0.06009 0.40701 0.0
C103 C 0.145 0.89314 0.42346 0.0
O104 O 0.14273 0.94982 0.35276 0.0
O105 O 0.22421 0.9471 0.35037 0.0
C106 C 0.14406 0.08488 0.38258 0.0
O107 O 0.11786 0.93139 0.42247 0.0
O108 O 0.18746 0.89228 0.4073 0.0
C109 C 0.2594 0.96285 0.47661 0.0
Fe110 Fe 0.51523 0.20763 0.44039 0.0
Fe111 Fe 0.58402 0.1337 0.40025 0.0
O112 O 0.56949 0.19548 0.41344 0.0
Fe113 Fe 0.6105 0.2444 0.40058 0.0
O114 O 0.59843 0.28167 0.44381 0.0
O115 O 0.55102 0.23394 0.4795 0.0
O116 O 0.51631 0.14798 0.46628 0.0
C117 C 0.55045 0.11594 0.47123 0.0
C118 C 0.51979 0.2889 0.38813 0.0
O119 O 0.58715 0.11416 0.44919 0.0
C120 C 0.61154 0.1802 0.33531 0.0
O121 O 0.4754 0.18183 0.40344 0.0
O122 O 0.51864 0.11328 0.39566 0.0
O123 O 0.56174 0.27735 0.37389 0.0
O124 O 0.50456 0.26878 0.41877 0.0
C125 C 0.67449 0.17105 0.42534 0.0
O126 O 0.58189 0.15015 0.35066 0.0
O127 O 0.63116 0.21477 0.35498 0.0
C128 C 0.47798 0.13711 0.39264 0.0
O129 O 0.65194 0.14191 0.40303 0.0
O130 O 0.66019 0.21554 0.42801 0.0
C131 C 0.58212 0.26869 0.47634 0.0
Fe132 Fe 0.42551 0.56353 0.39023 0.0
Fe133 Fe 0.32085 0.60957 0.40055 0.0
O134 O 0.36404 0.56056 0.40921 0.0
Fe135 Fe 0.34806 0.50936 0.43852 0.0
O136 O 0.39818 0.52358 0.47187 0.0
O137 O 0.45459 0.52706 0.42717 0.0
O138 O 0.4381 0.61811 0.41877 0.0
C139 C 0.41114 0.6565 0.42167 0.0
C140 C 0.40684 0.4661 0.37822 0.0
O141 O 0.36854 0.65877 0.4056 0.0
C142 C 0.26262 0.51965 0.39591 0.0
O143 O 0.40973 0.60129 0.3492 0.0
O144 O 0.32831 0.60593 0.3487 0.0
O145 O 0.38678 0.46533 0.41117 0.0
O146 O 0.41661 0.50721 0.36198 0.0
C147 C 0.29819 0.5892 0.47611 0.0
O148 O 0.26648 0.56699 0.39603 0.0
O149 O 0.2976 0.4922 0.40756 0.0
C150 C 0.36964 0.60976 0.33198 0.0
O151 O 0.30941 0.62003 0.4507 0.0
O152 O 0.30556 0.54326 0.4709 0.0
C153 C 0.44316 0.52387 0.46167 0.0
Fe154 Fe 0.96934 0.41928 0.40209 0.0
Fe155 Fe 0.94148 0.30901 0.40026 0.0
O156 O 0.98284 0.35697 0.41436 0.0
Fe157 Fe 0.03616 0.3433 0.44212 0.0
O158 O 0.03565 0.4021 0.4685 0.0
O159 O 0.96549 0.43706 0.45134 0.0
O160 O 0.9014 0.41218 0.40386 0.0
C161 C 0.87772 0.38268 0.42517 0.0
C162 C 0.07544 0.41453 0.39561 0.0
O163 O 0.89125 0.33785 0.42723 0.0
C164 C 0.0318 0.26321 0.38905 0.0
O165 O 0.97208 0.40458 0.35227 0.0
O166 O 0.92237 0.34004 0.35482 0.0
O167 O 0.07754 0.36951 0.4061 0.0
O168 O 0.035 0.43872 0.39854 0.0
C169 C 0.9664 0.28339 0.4762 0.0
O170 O 0.9906 0.27589 0.374 0.0
O171 O 0.04629 0.28246 0.42016 0.0
C172 C 0.94257 0.37518 0.33609 0.0
O173 O 0.95208 0.27068 0.44309 0.0
O174 O 0.99844 0.31711 0.48036 0.0
C175 C 1.00182 0.43421 0.47367 0.0
Fe176 Fe 0.31318 0.94613 0.89841 0.0
Fe177 Fe 0.42409 0.97216 0.89836 0.0
O178 O 0.36218 0.98717 0.91104 0.0
Fe179 Fe 0.34993 0.04192 0.93723 0.0
O180 O 0.32295 1.00704 0.97659 0.0
O181 O 0.27535 0.95938 0.94107 0.0
O182 O 0.34159 0.89703 0.92675 0.0
C183 C 0.38608 0.88238 0.92435 0.0
C184 C 0.26881 0.0364 0.88455 0.0
O185 O 0.41565 0.90443 0.90202 0.0
C186 C 0.42121 0.07785 0.88945 0.0
O187 O 0.34338 0.92419 0.85341 0.0
O188 O 0.40797 0.97336 0.8487 0.0
O189 O 0.2889 0.0524 0.91498 0.0
O190 O 0.28066 0.99429 0.87084 0.0
C191 C 0.44143 1.00689 0.96904 0.0
O192 O 0.44486 0.03723 0.89306 0.0
O193 O 0.37633 0.08082 0.89995 0.0
C194 C 0.37891 0.94239 0.83389 0.0
O195 O 0.44323 0.96991 0.94738 0.0
O196 O 0.40951 0.04107 0.96358 0.0
C197 C 0.28807 0.97607 0.97349 0.0
Fe198 Fe 0.56749 0.42736 0.89896 0.0
Fe199 Fe 0.51311 0.34452 0.94186 0.0
O200 O 0.56471 0.3643 0.91419 0.0
Fe201 Fe 0.61404 0.32249 0.9033 0.0
O202 O 0.66333 0.36948 0.91034 0.0
O203 O 0.62244 0.43719 0.92738 0.0
O204 O 0.53221 0.45166 0.93858 0.0
C205 C 0.53057 0.43559 0.97216 0.0
C206 C 0.61568 0.37739 0.83797 0.0
O207 O 0.52642 0.38988 0.97899 0.0
C208 C 0.52483 0.26442 0.89443 0.0
O209 O 0.51065 0.42167 0.87061 0.0
O210 O 0.46891 0.38642 0.9176 0.0
O211 O 0.60982 0.33466 0.85207 0.0
O212 O 0.60505 0.41576 0.8568 0.0
C213 C 0.59343 0.29318 0.97723 0.0
O214 O 0.49673 0.29831 0.90696 0.0
O215 O 0.57209 0.26834 0.89623 0.0
C216 C 0.46955 0.41027 0.8862 0.0
O217 O 0.5473 0.2986 0.97121 0.0
O218 O 0.62452 0.30737 0.95289 0.0
C219 C 0.6613 0.41082 0.92795 0.0
Fe220 Fe 0.24624 0.6151 0.89987 0.0
Fe221 Fe 0.13532 0.5897 0.89724 0.0
O222 O 0.19625 0.57543 0.91269 0.0
Fe223 Fe 0.20666 0.52303 0.94211 0.0
O224 O 0.23079 0.56164 0.98069 0.0
O225 O 0.28155 0.60436 0.94412 0.0
O226 O 0.21704 0.66639 0.92507 0.0
C227 C 0.17252 0.68061 0.92155 0.0
C228 C 0.29043 0.52383 0.89199 0.0
O229 O 0.14394 0.6576 0.89894 0.0
C230 C 0.13881 0.48323 0.8931 0.0
O231 O 0.21882 0.63421 0.85321 0.0
O232 O 0.15407 0.58523 0.84826 0.0
O233 O 0.26917 0.51108 0.9229 0.0
O234 O 0.27936 0.56455 0.87557 0.0
C235 C 0.11294 0.5597 0.96796 0.0
O236 O 0.1149 0.52408 0.89373 0.0
O237 O 0.18283 0.48107 0.90581 0.0
C238 C 0.18528 0.61375 0.83308 0.0
O239 O 0.11358 0.59546 0.94521 0.0
O240 O 0.14524 0.52537 0.96565 0.0
C241 C 0.26616 0.59204 0.97703 0.0
Fe242 Fe 0.05131 0.20834 0.93585 0.0
Fe243 Fe 0.94848 0.23526 0.90223 0.0
O244 O 0.99814 0.19207 0.90885 0.0
Fe245 Fe 0.99392 0.13054 0.8903 0.0
O246 O 0.03218 0.10165 0.92631 0.0
O247 O 0.03902 0.15874 0.97026 0.0
O248 O 1.01967 0.25138 0.96876 0.0
C249 C 0.97427 0.25853 0.97643 0.0
C250 C 0.09109 0.14839 0.87504 0.0
O251 O 0.94117 0.24643 0.95298 0.0
C252 C 0.94462 0.18673 0.83353 0.0
O253 O 0.06637 0.25842 0.90364 0.0
O254 O 0.99065 0.28964 0.89639 0.0
O255 O 0.04903 0.13862 0.86022 0.0
O256 O 0.09364 0.16913 0.90759 0.0
C257 C 0.90236 0.14534 0.92464 0.0
O258 O 0.94911 0.22796 0.85027 0.0
O259 O 0.95421 0.14655 0.85032 0.0
C260 C 0.03791 0.29372 0.89395 0.0
O261 O 0.8995 0.18785 0.90869 0.0
O262 O 0.94056 0.11829 0.92061 0.0
C263 C 0.03771 0.11362 0.96053 0.0
Fe264 Fe 0.91931 0.08203 0.62974 0.0
Fe265 Fe 0.84843 1.0159 0.58438 0.0
O266 O 0.85869 0.06823 0.61365 0.0
Fe267 Fe 0.80836 0.10841 0.62585 0.0
O268 O 0.83729 0.15856 0.59952 0.0
O269 O 0.91068 0.15001 0.62574 0.0
O270 O 0.94328 0.08568 0.58235 0.0
C271 C 0.94294 0.0504 0.55924 0.0
C272 C 0.87081 0.11224 0.69217 0.0
O273 O 0.90976 1.01723 0.56098 0.0
C274 C 0.76442 1.01782 0.63424 0.0
O275 O 0.93898 1.01627 0.63513 0.0
O276 O 0.87181 0.9737 0.62084 0.0
O277 O 0.83583 0.13006 0.67184 0.0
O278 O 0.89901 0.07958 0.67848 0.0
C279 C 0.78886 0.08511 0.54918 0.0
O280 O 0.78592 1.00483 0.60347 0.0
O281 O 0.77566 0.05833 0.65088 0.0
C282 C 0.91504 0.97564 0.63505 0.0
O283 O 0.82469 0.0549 0.54555 0.0
O284 O 0.77285 0.09637 0.58208 0.0
C285 C 0.88198 0.17214 0.60241 0.0
Fe286 Fe 0.5421 0.84249 0.58226 0.0
Fe287 Fe 0.44511 0.80774 0.62095 0.0
O288 O 0.48793 0.85562 0.60918 0.0
Fe289 Fe 0.47548 0.9173 0.62367 0.0
O290 O 0.47363 0.93867 0.57525 0.0
O291 O 0.54322 0.90292 0.55737 0.0
O292 O 0.50578 0.8183 0.5425 0.0
C293 C 0.47341 0.78458 0.54496 0.0
C294 C 0.58112 0.90994 0.63221 0.0
O295 O 0.45632 0.77135 0.57716 0.0
C296 C 0.44605 0.8692 0.68745 0.0
O297 O 0.55058 0.78048 0.60301 0.0
O298 O 0.49256 0.77266 0.64733 0.0
O299 O 0.54136 0.93521 0.62936 0.0
O300 O 0.58265 0.86589 0.61978 0.0
C301 C 0.3835 0.88383 0.5977 0.0
O302 O 0.42502 0.83645 0.66692 0.0
O303 O 0.47647 0.89908 0.67289 0.0
C304 C 0.53449 0.76047 0.63344 0.0
O305 O 0.39635 0.83899 0.59407 0.0
O306 O 0.40742 0.9118 0.62008 0.0
C307 C 0.51009 0.93614 0.55304 0.0
Fe308 Fe 0.62711 0.48582 0.63319 0.0
Fe309 Fe 0.70437 0.54051 0.58492 0.0
O310 O 0.68892 0.48958 0.61466 0.0
Fe311 Fe 0.73265 0.44166 0.62462 0.0
O312 O 0.68564 0.39191 0.61817 0.0
O313 O 0.61557 0.43166 0.60404 0.0
O314 O 0.59807 0.52298 0.59667 0.0
C315 C 0.60917 0.52563 0.56214 0.0
C316 C 0.68139 0.4383 0.69159 0.0
O317 O 0.65408 0.52559 0.55187 0.0
C318 C 0.78961 0.53217 0.62881 0.0
O319 O 0.63569 0.54181 0.66188 0.0
O320 O 0.6657 0.58412 0.61272 0.0
O321 O 0.72295 0.44588 0.67619 0.0
O322 O 0.64183 0.44659 0.67373 0.0
C323 C 0.75671 0.46083 0.54879 0.0
O324 O 0.75517 0.55876 0.6152 0.0
O325 O 0.78598 0.48492 0.63037 0.0
C326 C 0.64575 0.58305 0.64577 0.0
O327 O 0.74658 0.50653 0.55237 0.0
O328 O 0.74702 0.43076 0.57509 0.0
C329 C 0.6433 0.39373 0.60152 0.0
Fe330 Fe 1.01355 0.70675 0.58196 0.0
Fe331 Fe 0.11058 0.74263 0.62012 0.0
O332 O 0.06817 0.69431 0.60861 0.0
Fe333 Fe 0.08159 0.63264 0.62269 0.0
O334 O 0.08338 0.61203 0.57409 0.0
O335 O 1.01276 0.64656 0.55739 0.0
O336 O 0.04931 0.73086 0.54203 0.0
C337 C 0.08196 0.76427 0.54419 0.0
C338 C 0.97577 0.63823 0.63125 0.0
O339 O 0.099 0.77824 0.57616 0.0
C340 C 0.11235 0.67928 0.68622 0.0
O341 O 1.00461 0.7688 0.60203 0.0
O342 O 0.0629 0.77814 0.64599 0.0
O343 O 1.01604 0.61383 0.62832 0.0
O344 O 0.9737 0.68281 0.61982 0.0
C345 C 0.17326 0.66711 0.5969 0.0
O346 O 0.13103 0.71406 0.66618 0.0
O347 O 0.08078 0.65041 0.67194 0.0
C348 C 1.02137 0.79063 0.63136 0.0
O349 O 0.15979 0.71178 0.59336 0.0
O350 O 0.14955 0.63868 0.61905 0.0
C351 C 0.04629 0.61405 0.55245 0.0
C352 C 0.69281 0.16635 0.24607 0.0
C353 C 0.66693 0.12873 0.22648 0.0
H354 H 0.69565 0.21297 0.29613 0.0
C355 C 0.62181 0.11174 0.24198 0.0
H356 H 0.72732 0.18077 0.2347 0.0
C357 C 0.60327 0.13089 0.27589 0.0
C358 C 0.62945 0.16719 0.29636 0.0
H359 H 0.60003 0.08344 0.22782 0.0
H360 H 0.56848 0.11609 0.28651 0.0
C361 C 0.67433 0.18527 0.28092 0.0
C362 C 0.38929 0.69513 0.24827 0.0
C363 C 0.41852 0.66403 0.22495 0.0
H364 H 0.34903 0.70163 0.30132 0.0
C365 C 0.42233 0.61327 0.23443 0.0
H366 H 0.38505 0.73417 0.24142 0.0
C367 C 0.40058 0.59469 0.26745 0.0
C368 C 0.37443 0.62614 0.29214 0.0
H369 H 0.44331 0.58766 0.21676 0.0
H370 H 0.40712 0.55615 0.27508 0.0
C371 C 0.36779 0.67635 0.28199 0.0
C372 C 0.88009 0.37447 0.28145 0.0
C373 C 0.92628 0.3889 0.29695 0.0
H374 H 0.82906 0.38119 0.23397 0.0
C375 C 0.95586 0.42224 0.27625 0.0
H376 H 0.8561 0.34938 0.29703 0.0
C377 C 0.94008 0.44103 0.24141 0.0
C378 C 0.89437 0.42675 0.22543 0.0
H379 H 0.99149 0.43449 0.28716 0.0
H380 H 0.9644 0.4667 0.22665 0.0
C381 C 0.86415 0.39338 0.24582 0.0
C382 C 0.14255 0.87662 0.29446 0.0
C383 C 0.17731 0.91541 0.29799 0.0
H384 H 0.09811 0.83268 0.25641 0.0
C385 C 0.19978 0.93468 0.26522 0.0
H386 H 0.12486 0.86118 0.31961 0.0
C387 C 0.18391 0.91883 0.22923 0.0
C388 C 0.14617 0.88291 0.22568 0.0
H389 H 0.22634 0.96471 0.26731 0.0
H390 H 0.19893 0.93687 0.20408 0.0
C391 C 0.1274 0.86007 0.25849 0.0
C392 C 0.36411 0.88861 0.7752 0.0
C393 C 0.39467 0.92023 0.79691 0.0
H394 H 0.35639 0.84675 0.72304 0.0
C395 C 0.44323 0.92964 0.78388 0.0
H396 H 0.3268 0.88002 0.78474 0.0
C397 C 0.4603 0.90986 0.74973 0.0
C398 C 0.42933 0.88049 0.72686 0.0
H399 H 0.46861 0.9527 0.8 0.0
H400 H 0.49767 0.91911 0.74062 0.0
C401 C 0.38126 0.86904 0.74021 0.0
C402 C 0.62832 0.35764 0.76876 0.0
C403 C 0.64143 0.38478 0.80125 0.0
H404 H 0.63164 0.35392 0.70766 0.0
C405 C 0.67569 0.42407 0.79776 0.0
H406 H 0.60204 0.32734 0.77076 0.0
C407 C 0.6935 0.43857 0.76196 0.0
C408 C 0.67665 0.41442 0.72915 0.0
H409 H 0.68675 0.44527 0.82262 0.0
H410 H 0.71698 0.47106 0.75972 0.0
C411 C 0.64537 0.3728 0.73285 0.0
C412 C 0.14523 0.59857 0.77073 0.0
C413 C 0.17457 0.62972 0.79343 0.0
H414 H 0.10233 0.58987 0.72047 0.0
C415 C 0.18607 0.67761 0.7798 0.0
H416 H 0.13598 0.56135 0.78013 0.0
C417 C 0.16642 0.69449 0.74474 0.0
C418 C 0.13468 0.66382 0.72324 0.0
H419 H 0.2083 0.70262 0.7969 0.0
H420 H 0.17494 0.73169 0.735 0.0
C421 C 0.1254 0.61535 0.73648 0.0
C422 C 0.95892 0.15808 0.76823 0.0
C423 C 0.92721 0.18227 0.7939 0.0
H424 H 0.96597 0.11702 0.71673 0.0
C425 C 0.87643 0.1873 0.7847 0.0
H426 H 0.99794 0.1528 0.77508 0.0
C427 C 0.85744 0.16605 0.75096 0.0
C428 C 0.88894 0.13862 0.7267 0.0
H429 H 0.85101 0.20454 0.80475 0.0
H430 H 0.81801 0.16886 0.7449 0.0
C431 C 0.94015 0.13657 0.73518 0.0
C432 C 0.56497 0.9872 0.01779 0.0
C433 C 0.57674 0.03574 0.02898 0.0
H434 H 0.51164 0.93966 0.99146 0.0
C435 C 0.54259 0.07441 0.02178 0.0
H436 H 0.59006 0.95653 0.02371 0.0
C437 C 0.49733 0.06469 1.004 0.0
C438 C 0.48546 1.01614 0.99288 0.0
H439 H 0.55059 0.11221 0.03034 0.0
H440 H 0.47227 0.09541 0.99816 0.0
C441 C 0.51967 0.97747 0.99999 0.0
C442 C 0.4702 0.53316 0.02969 0.0
C443 C 0.51035 0.56597 0.03471 0.0
H444 H 0.44606 0.46338 1.00714 0.0
C445 C 0.5584 0.55106 0.02404 0.0
H446 H 0.43277 0.54363 0.03804 0.0
C447 C 0.56586 0.50472 1.00746 0.0
C448 C 0.52553 0.4728 1.00157 0.0
H449 H 0.59013 0.57505 0.02846 0.0
H450 H 0.60268 0.49481 0.99736 0.0
C451 C 0.4778 0.48681 0.01315 0.0
C452 C 0.03284 0.59127 0.99386 0.0
C453 C 0.06601 0.55134 0.98808 0.0
H454 H 0.96275 0.61459 0.01696 0.0
C455 C 0.05097 0.50288 0.99693 0.0
H456 H 0.04336 0.62898 0.98673 0.0
C457 C 1.00436 0.49479 0.01289 0.0
C458 C 0.97234 0.53493 0.02018 0.0
H459 H 0.07517 0.47131 0.99171 0.0
H460 H 0.9946 0.45755 0.02194 0.0
C461 C 0.98624 0.58307 1.00992 0.0
C462 C 0.05744 1.02607 0.97512 0.0
C463 C 0.04027 0.07282 0.98777 0.0
H464 H 0.06602 0.94867 0.98793 0.0
C465 C 1.01785 0.07731 0.0235 0.0
H466 H 0.07471 1.02189 0.94732 0.0
C467 C 1.01201 0.03533 0.04614 0.0
C468 C 0.02885 0.9885 0.03339 0.0
H469 H 1.00323 0.11267 0.03326 0.0
H470 H 0.9945 0.03956 0.07384 0.0
C471 C 0.05162 0.98407 0.99776 0.0
C472 C 0.07197 0.06763 0.51935 0.0
C473 C 0.07624 1.02571 0.49619 0.0
H474 H 1.02508 0.1095 0.55643 0.0
C475 C 0.03708 0.99153 0.49396 0.0
H476 H 0.10141 0.09497 0.5204 0.0
C477 C 0.99325 0.99976 0.51402 0.0
C478 C 0.98792 0.04262 0.53628 0.0
H479 H 0.0398 0.95929 0.47553 0.0
H480 H 0.96352 0.97289 0.51174 0.0
C481 C 1.0279 0.07624 0.53916 0.0
C482 C 0.49206 0.06024 0.50561 0.0
C483 C 0.54085 0.07173 0.49463 0.0
H484 H 0.44375 1.00708 0.53119 0.0
C485 C 0.57919 0.03704 0.50131 0.0
H486 H 0.46157 0.08572 0.50008 0.0
C487 C 0.56886 0.99158 0.51855 0.0
C488 C 0.52006 0.98017 0.52955 0.0
H489 H 0.61715 0.04482 0.49283 0.0
H490 H 0.59928 0.96604 0.52413 0.0
C491 C 0.48174 1.01482 0.52279 0.0
C492 C 0.57281 0.50819 0.49873 0.0
C493 C 0.56793 0.52802 0.5353 0.0
H494 H 0.53564 0.48914 0.44715 0.0
C495 C 0.52104 0.54437 0.54841 0.0
H496 H 0.60832 0.49437 0.48852 0.0
C497 C 0.47934 0.5407 0.52522 0.0
C498 C 0.48424 0.52098 0.48862 0.0
H499 H 0.51651 0.55977 0.57679 0.0
H500 H 0.44384 0.55457 0.53542 0.0
C501 C 0.53111 0.50451 0.47554 0.0
C502 C 0.07301 0.5344 0.5234 0.0
C503 C 0.03533 0.56965 0.53002 0.0
H504 H 0.0916 0.46286 0.50149 0.0
C505 C 0.98603 0.55869 0.52005 0.0
H506 H 0.11132 0.54182 0.53113 0.0
C507 C 0.9746 0.51312 0.50374 0.0
C508 C 1.01234 0.47797 0.49695 0.0
H509 H 0.95608 0.58476 0.52563 0.0
H510 H 0.93634 0.50572 0.49586 0.0
C511 C 0.06159 0.48883 0.50714 0.0
C512 C 0.56928 0.92378 0.15069 0.0
C513 C 0.62026 0.92486 0.14106 0.0
H514 H 0.50331 0.87936 0.15649 0.0
C515 C 0.64514 0.87933 0.13557 0.0
H516 H 0.54886 0.95803 0.15529 0.0
C517 C 0.61896 0.83452 0.13613 0.0
C518 C 0.56736 0.83378 0.14279 0.0
H519 H 0.68433 0.87839 0.12839 0.0
H520 H 0.63866 0.80051 0.12913 0.0
C521 C 0.54313 0.87864 0.15172 0.0
C522 C 0.62861 0.55714 0.13858 0.0
C523 C 0.62639 0.6095 0.13979 0.0
H524 H 0.67506 0.49199 0.13571 0.0
C525 C 0.67111 0.63566 0.14448 0.0
H526 H 0.59498 0.53567 0.13485 0.0
C527 C 0.7169 0.6106 0.14531 0.0
C528 C 0.71958 0.55854 0.14113 0.0
H529 H 0.67097 0.67586 0.14585 0.0
H530 H 0.75052 0.6325 0.14722 0.0
C531 C 0.67465 0.53197 0.13915 0.0
C532 C 1.02499 0.67606 0.14588 0.0
C533 C 0.99966 0.72171 0.14212 0.0
H534 H 1.01842 0.59647 0.14883 0.0
C535 C 0.94739 0.72193 0.14563 0.0
H536 H 0.06512 0.67443 0.14334 0.0
C537 C 0.9209 0.67758 0.14864 0.0
C538 C 0.94581 0.63173 0.14899 0.0
H539 H 0.92645 0.75631 0.14352 0.0
H540 H 0.88059 0.67896 0.14801 0.0
C541 C 0.99823 0.63139 0.14936 0.0
C542 C 0.88171 0.91161 0.14982 0.0
C543 C 0.92708 0.93531 0.15743 0.0
H544 H 0.80419 0.92008 0.13753 0.0
C545 C 0.92641 0.98649 0.1659 0.0
H546 H 0.88104 0.87236 0.14297 0.0
C547 C 0.88197 1.01419 0.16261 0.0
C548 C 0.8378 0.991 0.15067 0.0
H549 H 0.96089 1.006 0.17115 0.0
H550 H 0.88324 0.05417 0.16587 0.0
C551 C 0.83772 0.93908 0.1464 0.0
C552 C 0.14131 0.17703 0.37862 0.0
C553 C 0.11832 0.13145 0.37074 0.0
H554 H 0.13182 0.25463 0.38945 0.0
C555 C 0.06746 0.13161 0.36082 0.0
H556 H 0.18032 0.17818 0.3864 0.0
C557 C 0.03924 0.17586 0.36278 0.0
C558 C 0.06161 0.22041 0.37468 0.0
H559 H 0.04851 0.09696 0.35517 0.0
H560 H 0.99938 0.17422 0.35844 0.0
C561 C 0.11339 0.22085 0.3805 0.0
C562 C 0.38559 0.13526 0.38155 0.0
C563 C 0.43091 0.10949 0.38525 0.0
H564 H 0.3062 0.1313 0.38085 0.0
C565 C 0.42978 0.05711 0.38663 0.0
H566 H 0.38488 0.17546 0.38007 0.0
C567 C 0.38431 0.03152 0.38722 0.0
C568 C 0.33892 0.05771 0.38638 0.0
H569 H 0.46393 0.03592 0.38952 0.0
H570 H 0.38477 0.99152 0.39063 0.0
C571 C 0.34032 0.10977 0.38202 0.0
C572 C 0.40967 0.37404 0.37508 0.0
C573 C 0.43246 0.41954 0.36649 0.0
H574 H 0.41958 0.29694 0.38784 0.0
C575 C 0.48349 0.41946 0.35716 0.0
H576 H 0.37056 0.37289 0.38256 0.0
C577 C 0.51199 0.37555 0.36043 0.0
C578 C 0.48979 0.33127 0.37316 0.0
H579 H 0.50233 0.45408 0.35111 0.0
H580 H 0.5519 0.37736 0.35641 0.0
C581 C 0.43791 0.33055 0.37837 0.0
C582 C 0.12347 0.49464 0.38918 0.0
C583 C 0.12253 0.44219 0.38817 0.0
H584 H 0.16822 0.56056 0.39216 0.0
C585 C 0.16787 0.41663 0.38423 0.0
H586 H 0.08928 0.51573 0.39221 0.0
C587 C 0.21298 0.44243 0.38389 0.0
C588 C 0.21426 0.4946 0.38777 0.0
H589 H 0.16873 0.37642 0.38302 0.0
H590 H 0.24716 0.42103 0.38241 0.0
C591 C 0.1688 0.52054 0.38904 0.0
C592 C 0.42349 0.16976 0.8772 0.0
C593 C 0.44916 0.12461 0.882 0.0
H594 H 0.42739 0.24902 0.87629 0.0
C595 C 0.50152 0.12578 0.88475 0.0
H596 H 0.38332 0.17038 0.87463 0.0
C597 C 0.52704 0.17122 0.88585 0.0
C598 C 0.50075 0.21645 0.88416 0.0
H599 H 0.52262 0.09174 0.8885 0.0
H600 H 0.56688 0.17086 0.89053 0.0
C601 C 0.44891 0.21497 0.87817 0.0
C602 C 0.33335 0.4419 0.88745 0.0
C603 C 0.3336 0.49308 0.87942 0.0
H604 H 0.37602 0.37527 0.89444 0.0
C605 C 0.37778 0.51444 0.86553 0.0
H606 H 0.29983 0.42416 0.8978 0.0
C607 C 0.42196 0.48606 0.86355 0.0
C608 C 0.42243 0.43594 0.8753 0.0
H609 H 0.37922 0.55382 0.85928 0.0
H610 H 0.45638 0.50446 0.8561 0.0
C611 C 0.37705 0.41375 0.88534 0.0
C612 C 0.03469 0.38757 0.88775 0.0
C613 C 0.06175 0.34275 0.88588 0.0
H614 H 0.03762 0.46717 0.89116 0.0
C615 C 0.1138 0.3454 0.88123 0.0
H616 H 0.99469 0.38714 0.89148 0.0
C617 C 0.13842 0.39113 0.88129 0.0
C618 C 0.11181 0.4358 0.88569 0.0
H619 H 0.13606 0.31184 0.87933 0.0
H620 H 0.17866 0.3913 0.87947 0.0
C621 C 0.05942 0.43356 0.88758 0.0
C622 C 0.22678 0.11759 0.87264 0.0
C623 C 0.22597 0.06557 0.86926 0.0
H624 H 0.18444 0.18501 0.87533 0.0
C625 C 0.18118 0.0427 0.85826 0.0
H626 H 0.26072 0.13638 0.88083 0.0
C627 C 0.13702 0.07092 0.85496 0.0
C628 C 0.13718 0.12237 0.86245 0.0
H629 H 0.17927 1.00266 0.85575 0.0
H630 H 0.10217 0.05174 0.85048 0.0
C631 C 0.18307 0.14558 0.86918 0.0
C632 C 0.9161 0.88257 0.64075 0.0
C633 C 0.94148 0.92797 0.64386 0.0
H634 H 0.92172 0.80356 0.63516 0.0
C635 C 0.99336 0.92656 0.65021 0.0
H636 H 0.87624 0.88186 0.63623 0.0
C637 C 1.01955 0.88112 0.65007 0.0
C638 C 0.99437 0.83631 0.6434 0.0
H639 H 1.01424 0.9607 0.6528 0.0
H640 H 0.05976 0.88149 0.65208 0.0
C641 C 0.9422 0.8375 0.64031 0.0
C642 C 0.62907 0.98669 0.65141 0.0
C643 C 0.62858 0.93565 0.64212 0.0
H644 H 0.6729 0.05299 0.65722 0.0
C645 C 0.67447 0.91106 0.63756 0.0
H646 H 0.59451 1.0069 0.65531 0.0
C647 C 0.71914 0.93754 0.63862 0.0
C648 C 0.71934 0.98918 0.64479 0.0
H649 H 0.67586 0.87185 0.63069 0.0
H650 H 0.75351 0.91804 0.63225 0.0
C651 C 0.67404 1.01316 0.65287 0.0
C652 C 0.54073 0.67391 0.66137 0.0
C653 C 0.56368 0.71795 0.64895 0.0
H654 H 0.54961 0.59541 0.67114 0.0
C655 C 0.61573 0.71848 0.64508 0.0
H656 H 0.50067 0.67232 0.66442 0.0
C657 C 0.64364 0.67494 0.64938 0.0
C658 C 0.62025 0.6296 0.6575 0.0
H659 H 0.63457 0.75196 0.63593 0.0
H660 H 0.68304 0.67586 0.64282 0.0
C661 C 0.56887 0.62992 0.66554 0.0
C662 C 0.88302 0.63624 0.64087 0.0
C663 C 0.92865 0.61077 0.6389 0.0
H664 H 0.80371 0.63145 0.6403 0.0
C665 C 0.92801 0.5583 0.63941 0.0
H666 H 0.8819 0.67648 0.64085 0.0
C667 C 0.88285 0.53217 0.63888 0.0
C668 C 0.83726 0.5579 0.63793 0.0
H669 H 0.9624 0.53727 0.63794 0.0
H670 H 0.88378 0.49203 0.63689 0.0
C671 C 0.83805 0.61021 0.6405 0.0
C672 C 0.59901 0.21223 0.06667 0.0
C673 C 0.65074 0.20843 0.07279 0.0
H674 H 0.54012 0.24163 0.03167 0.0
C675 C 0.68262 0.23613 0.04926 0.0
H676 H 0.57332 0.1911 0.08404 0.0
C677 C 0.66364 0.26471 0.01922 0.0
C678 C 0.61217 0.26647 1.0117 0.0
H679 H 0.72258 0.2343 0.0531 0.0
H680 H 0.6897 0.28436 1.00117 0.0
C681 C 0.57993 0.24095 0.03646 0.0
C682 C 0.29825 0.58602 0.04491 0.0
C683 C 0.29127 0.61334 1.01101 0.0
H684 H 0.3329 0.58337 0.10034 0.0
C685 C 0.30995 0.66187 1.00901 0.0
H686 H 0.2842 0.54849 0.04725 0.0
C687 C 0.33608 0.68231 0.03959 0.0
C688 C 0.34569 0.65437 0.07281 0.0
H689 H 0.30489 0.68402 0.98343 0.0
H690 H 0.35086 0.71938 0.03626 0.0
C691 C 0.3259 0.60608 0.07534 0.0
C692 C 0.89493 0.32231 0.05218 0.0
C693 C 0.92984 0.35345 0.06983 0.0
H694 H 0.88146 0.26813 1.00864 0.0
C695 C 0.98024 0.34896 0.05935 0.0
H696 H 0.8558 0.32518 0.05929 0.0
C697 C 0.99505 0.31609 0.03052 0.0
C698 C 0.95972 0.2874 1.01097 0.0
H699 H 1.00811 0.37246 0.07236 0.0
H700 H 0.03387 0.31517 0.02225 0.0
C701 C 0.90966 0.2899 0.02288 0.0
C702 C 0.24417 0.99493 0.0353 0.0
C703 C 0.26002 0.96031 1.0078 0.0
H704 H 0.19973 1.0076 0.08548 0.0
C705 C 0.24769 0.91008 0.01273 0.0
H706 H 0.25302 0.03393 0.03207 0.0
C707 C 0.21983 0.89474 0.04432 0.0
C708 C 0.20138 0.92952 0.07062 0.0
H709 H 0.25908 0.88265 0.99185 0.0
H710 H 0.21016 0.85602 0.04691 0.0
C711 C 0.21406 0.97983 0.06594 0.0
C712 C 0.07787 0.84419 0.45545 0.0
C713 C 0.12885 0.8516 0.44822 0.0
H714 H 1.02303 0.80958 0.4912 0.0
C715 C 0.16394 0.8256 0.47036 0.0
H716 H 0.04996 0.86396 0.43898 0.0
C717 C 0.14852 0.79627 0.50118 0.0
C718 C 0.09769 0.79077 0.50937 0.0
H719 H 0.20334 0.83058 0.46548 0.0
H720 H 0.17633 0.77881 0.5192 0.0
C721 C 0.06242 0.81336 0.48539 0.0
C722 C 0.75981 0.08253 0.48034 0.0
C723 C 0.764 0.10759 0.51542 0.0
H724 H 0.7276 0.08268 0.424 0.0
C725 C 0.74263 0.15506 0.51892 0.0
H726 H 0.77592 0.04587 0.47683 0.0
C727 C 0.71672 0.17664 0.4886 0.0
C728 C 0.71009 0.15091 0.45409 0.0
H729 H 0.74549 0.17557 0.54544 0.0
H730 H 0.69968 0.21263 0.49306 0.0
C731 C 0.73236 0.10369 0.4501 0.0
C732 C 0.40756 0.75288 0.50061 0.0
C733 C 0.45815 0.75697 0.51025 0.0
H734 H 0.3533 0.72046 0.46331 0.0
C735 C 0.49359 0.73248 0.48754 0.0
H736 H 0.37953 0.77166 0.51756 0.0
C737 C 0.47849 0.70188 0.45726 0.0
C738 C 0.4277 0.69646 0.4482 0.0
H739 H 0.5328 0.73501 0.4944 0.0
H740 H 0.50653 0.68118 0.44168 0.0
C741 C 0.39259 0.72377 0.46944 0.0
C742 C 0.82844 0.4534 0.45454 0.0
C743 C 0.84024 0.40232 0.45275 0.0
H744 H 0.79259 0.5122 0.48594 0.0
C745 C 0.82143 0.37092 0.48129 0.0
H746 H 0.8427 0.47884 0.43325 0.0
C747 C 0.79391 0.39011 0.51172 0.0
C748 C 0.78318 0.44129 0.51437 0.0
H749 H 0.82998 0.33157 0.48128 0.0
H750 H 0.78266 0.36461 0.53394 0.0
C751 C 0.79998 0.47264 0.48491 0.0
C752 C 0.47348 0.79555 0.97893 0.0
C753 C 0.44838 0.79143 0.01404 0.0
H754 H 0.4737 0.8281 0.92273 0.0
C755 C 0.40116 0.81345 0.01772 0.0
H756 H 0.50994 0.77893 0.97528 0.0
C757 C 0.37991 0.83995 0.98755 0.0
C758 C 0.40571 0.84642 0.95302 0.0
H759 H 0.38063 0.81065 0.04426 0.0
H760 H 0.34416 0.85751 0.99213 0.0
C761 C 0.45265 0.82349 0.94885 0.0
C762 C 0.73365 0.39173 0.97101 0.0
C763 C 0.70259 0.42688 0.95312 0.0
H764 H 0.78666 0.37751 0.01556 0.0
C765 C 0.70572 0.47689 0.96445 0.0
H766 H 0.73192 0.3529 0.9631 0.0
C767 C 0.737 0.49104 0.99438 0.0
C768 C 0.76559 0.45544 0.01405 0.0
H769 H 0.68232 0.50492 0.95122 0.0
H770 H 0.73708 0.52963 1.00312 0.0
C771 C 0.76459 0.4058 1.00136 0.0
C772 C 0.16503 0.76439 1.0081 0.0
C773 C 0.11361 0.77331 0.01202 0.0
H774 H 0.22369 0.73077 0.97622 0.0
C775 C 0.08172 0.75537 0.98326 0.0
H776 H 0.19102 0.7766 0.02966 0.0
C777 C 0.10079 0.72756 0.95239 0.0
C778 C 0.15223 0.71761 0.94936 0.0
H779 H 0.04193 0.76132 0.98525 0.0
H780 H 0.07504 0.71225 0.93178 0.0
C781 C 0.18399 0.73767 0.97719 0.0
C782 C 0.80824 0.14879 1.00542 0.0
C783 C 0.80168 0.09807 0.01342 0.0
H784 H 0.84294 0.2034 0.96967 0.0
C785 C 0.82452 0.06285 0.98951 0.0
H786 H 0.79086 0.17669 0.02333 0.0
C787 C 0.85562 0.07811 0.9595 0.0
C788 C 0.86305 0.12894 0.95185 0.0
H789 H 0.82016 1.02352 0.99512 0.0
H790 H 0.87482 0.05011 0.94281 0.0
C791 C 0.83779 0.16404 0.97454 0.0
C792 C 0.89595 0.24025 0.50835 0.0
C793 C 0.94493 0.25792 0.51005 0.0
H794 H 0.83735 0.20168 0.5364 0.0
C795 C 0.97214 0.25108 0.54405 0.0
H796 H 0.87375 0.24541 0.4828 0.0
C797 C 0.95139 0.22487 0.57497 0.0
C798 C 0.90251 0.2064 0.57289 0.0
H799 H 1.00996 0.26448 0.54624 0.0
H800 H 0.97393 0.21816 0.60012 0.0
C801 C 0.87486 0.21552 0.53941 0.0
C802 C 0.31756 0.8734 0.54788 0.0
C803 C 0.34513 0.90505 0.57159 0.0
H804 H 0.26947 0.86661 0.49984 0.0
C805 C 0.34066 0.95679 0.56604 0.0
H806 H 0.31985 0.83345 0.55127 0.0
C807 C 0.3114 0.97612 0.53615 0.0
C808 C 0.28609 0.94408 0.51115 0.0
H809 H 0.3617 0.98233 0.58356 0.0
H810 H 0.31026 1.01593 0.53173 0.0
C811 C 0.28862 0.89258 0.51815 0.0
C812 C 0.57832 0.34124 0.56946 0.0
C813 C 0.62858 0.3544 0.57411 0.0
H814 H 0.52437 0.30237 0.53546 0.0
C815 C 0.66345 0.33671 0.54751 0.0
H816 H 0.55044 0.35498 0.58919 0.0
C817 C 0.64821 0.30922 0.51568 0.0
C818 C 0.59799 0.29652 0.51077 0.0
H819 H 0.70213 0.34672 0.55004 0.0
H820 H 0.6757 0.29837 0.49465 0.0
C821 C 0.56335 0.31154 0.53859 0.0
C822 C 0.21755 0.59476 0.56579 0.0
C823 C 0.21214 0.64646 0.57097 0.0
H824 H 0.24888 0.53586 0.53189 0.0
C825 C 0.23929 0.67838 0.54713 0.0
H826 H 0.19693 0.56899 0.58344 0.0
C827 C 0.26858 0.65943 0.51751 0.0
C828 C 0.2719 0.60792 0.51082 0.0
H829 H 0.23636 0.71831 0.55029 0.0
H830 H 0.28727 0.68555 0.499 0.0
C831 C 0.24717 0.57569 0.53607 0.0
loop_
_geom_bond_atom_site_label_1
_geom_bond_atom_site_label_2
_geom_bond_distance
_geom_bond_site_symmetry_2
_ccdc_geom_bond_type
Fe0 O2 1.918 1_565 S
Fe0 O5 1.997 1_565 S
Fe0 O6 2.002 . S
Fe0 O11 1.976 . S
Fe0 O14 1.996 . S
Fe1 O2 1.918 . S
Fe1 O9 1.997 . S
Fe1 O12 1.996 1_545 S
Fe1 O16 1.976 . S
Fe1 O19 2.002 . S
O2 Fe0 1.918 1_545 S
O2 Fe1 1.918 . S
O2 Fe3 1.918 . S
Fe3 O2 1.918 . S
Fe3 O4 2.002 . S
Fe3 O13 1.976 . S
Fe3 O17 1.996 . S
Fe3 O20 1.997 . S
O4 Fe3 2.002 . S
O4 C21 1.295 . S
O5 Fe0 1.997 1_545 S
O5 C21 1.235 . S
O6 Fe0 2.002 . S
O6 C7 1.295 1_565 S
C7 O6 1.295 1_545 S
C7 O9 1.235 . S
C8 O13 1.287 1_565 S
C8 O14 1.255 . S
O9 Fe1 1.997 . S
O9 C7 1.235 . S
C10 O16 1.287 . S
C10 O17 1.255 . S
O11 Fe0 1.976 . S
O11 C18 1.287 . S
O12 Fe1 1.996 1_565 S
O12 C18 1.255 . S
O13 Fe3 1.976 . S
O13 C8 1.287 1_545 S
O14 Fe0 1.996 . S
O14 C8 1.255 . S
C15 O19 1.295 . S
C15 O20 1.235 . S
O16 Fe1 1.976 . S
O16 C10 1.287 . S
O17 Fe3 1.996 . S
O17 C10 1.255 . S
C18 O11 1.287 . S
C18 O12 1.255 . S
O19 Fe1 2.002 . S
O19 C15 1.295 . S
O20 Fe3 1.997 . S
O20 C15 1.235 . S
C21 O4 1.295 . S
C21 O5 1.235 . S
Fe22 O24 1.918 . S
Fe22 O27 1.997 . S
Fe22 O28 2.002 . S
Fe22 O33 1.976 . S
Fe22 O36 1.996 . S
Fe23 O24 1.918 . S
Fe23 O31 1.997 . S
Fe23 O34 1.996 . S
Fe23 O38 1.976 . S
Fe23 O41 2.002 . S
O24 Fe22 1.918 . S
O24 Fe23 1.918 . S
O24 Fe25 1.918 . S
Fe25 O24 1.918 . S
Fe25 O26 2.002 . S
Fe25 O35 1.976 . S
Fe25 O39 1.996 . S
Fe25 O42 1.997 . S
O26 Fe25 2.002 . S
O26 C43 1.295 . S
O27 Fe22 1.997 . S
O27 C43 1.235 . S
O28 Fe22 2.002 . S
O28 C29 1.295 . S
C29 O28 1.295 . S
C29 O31 1.235 . S
C30 O35 1.287 . S
C30 O36 1.255 . S
O31 Fe23 1.997 . S
O31 C29 1.235 . S
C32 O38 1.287 . S
C32 O39 1.255 . S
O33 Fe22 1.976 . S
O33 C40 1.287 . S
O34 Fe23 1.996 . S
O34 C40 1.255 . S
O35 Fe25 1.976 . S
O35 C30 1.287 . S
O36 Fe22 1.996 . S
O36 C30 1.255 . S
C37 O41 1.295 . S
C37 O42 1.235 . S
O38 Fe23 1.976 . S
O38 C32 1.287 . S
O39 Fe25 1.996 . S
O39 C32 1.255 . S
C40 O33 1.287 . S
C40 O34 1.255 . S
O41 Fe23 2.002 . S
O41 C37 1.295 . S
O42 Fe25 1.997 . S
O42 C37 1.235 . S
C43 O26 1.295 . S
C43 O27 1.235 . S
Fe44 O46 1.918 . S
Fe44 O49 1.997 . S
Fe44 O50 2.002 . S
Fe44 O55 1.976 . S
Fe44 O58 1.996 . S
Fe45 O46 1.918 . S
Fe45 O53 1.997 . S
Fe45 O56 1.996 . S
Fe45 O60 1.976 . S
Fe45 O63 2.002 . S
O46 Fe44 1.918 . S
O46 Fe45 1.918 . S
O46 Fe47 1.918 . S
Fe47 O46 1.918 . S
Fe47 O48 2.002 . S
Fe47 O57 1.976 . S
Fe47 O61 1.996 . S
Fe47 O64 1.997 . S
O48 Fe47 2.002 . S
O48 C65 1.295 . S
O49 Fe44 1.997 . S
O49 C65 1.235 . S
O50 Fe44 2.002 . S
O50 C51 1.295 . S
C51 O50 1.295 . S
C51 O53 1.235 . S
C52 O57 1.287 . S
C52 O58 1.255 . S
O53 Fe45 1.997 . S
O53 C51 1.235 . S
C54 O60 1.287 . S
C54 O61 1.255 . S
O55 Fe44 1.976 . S
O55 C62 1.287 . S
O56 Fe45 1.996 . S
O56 C62 1.255 . S
O57 Fe47 1.976 . S
O57 C52 1.287 . S
O58 Fe44 1.996 . S
O58 C52 1.255 . S
C59 O63 1.295 . S
C59 O64 1.235 . S
O60 Fe45 1.976 . S
O60 C54 1.287 . S
O61 Fe47 1.996 . S
O61 C54 1.255 . S
C62 O55 1.287 . S
C62 O56 1.255 . S
O63 Fe45 2.002 . S
O63 C59 1.295 . S
O64 Fe47 1.997 . S
O64 C59 1.235 . S
C65 O48 1.295 . S
C65 O49 1.235 . S
Fe66 O68 1.918 1_655 S
Fe66 O71 1.997 1_655 S
Fe66 O72 2.002 . S
Fe66 O77 1.976 . S
Fe66 O80 1.996 . S
Fe67 O68 1.918 . S
Fe67 O75 1.997 . S
Fe67 O78 1.996 1_455 S
Fe67 O82 1.976 . S
Fe67 O85 2.002 . S
O68 Fe66 1.918 1_455 S
O68 Fe67 1.918 . S
O68 Fe69 1.918 . S
Fe69 O68 1.918 . S
Fe69 O70 2.002 . S
Fe69 O79 1.976 . S
Fe69 O83 1.996 . S
Fe69 O86 1.997 . S
O70 Fe69 2.002 . S
O70 C87 1.295 . S
O71 Fe66 1.997 1_455 S
O71 C87 1.235 . S
O72 Fe66 2.002 . S
O72 C73 1.295 1_655 S
C73 O72 1.295 1_455 S
C73 O75 1.235 . S
C74 O79 1.287 1_655 S
C74 O80 1.255 . S
O75 Fe67 1.997 . S
O75 C73 1.235 . S
C76 O82 1.287 . S
C76 O83 1.255 . S
O77 Fe66 1.976 . S
O77 C84 1.287 . S
O78 Fe67 1.996 1_655 S
O78 C84 1.255 . S
O79 Fe69 1.976 . S
O79 C74 1.287 1_455 S
O80 Fe66 1.996 . S
O80 C74 1.255 . S
C81 O85 1.295 . S
C81 O86 1.235 . S
O82 Fe67 1.976 . S
O82 C76 1.287 . S
O83 Fe69 1.996 . S
O83 C76 1.255 . S
C84 O77 1.287 . S
C84 O78 1.255 . S
O85 Fe67 2.002 . S
O85 C81 1.295 . S
O86 Fe69 1.997 . S
O86 C81 1.235 . S
C87 O70 1.295 . S
C87 O71 1.235 . S
Fe88 O90 1.918 1_545 S
Fe88 O93 1.997 1_545 S
Fe88 O94 2.002 . S
Fe88 O99 1.976 . S
Fe88 O102 1.996 . S
Fe89 O90 1.918 . S
Fe89 O97 1.997 . S
Fe89 O100 1.996 1_565 S
Fe89 O104 1.976 . S
Fe89 O107 2.002 . S
O90 Fe88 1.918 1_565 S
O90 Fe89 1.918 . S
O90 Fe91 1.918 . S
Fe91 O90 1.918 . S
Fe91 O92 2.002 . S
Fe91 O101 1.976 . S
Fe91 O105 1.996 . S
Fe91 O108 1.997 . S
O92 Fe91 2.002 . S
O92 C109 1.295 . S
O93 Fe88 1.997 1_565 S
O93 C109 1.235 . S
O94 Fe88 2.002 . S
O94 C95 1.295 1_545 S
C95 O94 1.295 1_565 S
C95 O97 1.235 . S
C96 O101 1.287 1_545 S
C96 O102 1.255 . S
O97 Fe89 1.997 . S
O97 C95 1.235 . S
C98 O104 1.287 . S
C98 O105 1.255 . S
O99 Fe88 1.976 . S
O99 C106 1.287 . S
O100 Fe89 1.996 1_545 S
O100 C106 1.255 . S
O101 Fe91 1.976 . S
O101 C96 1.287 1_565 S
O102 Fe88 1.996 . S
O102 C96 1.255 . S
C103 O107 1.295 . S
C103 O108 1.235 . S
O104 Fe89 1.976 . S
O104 C98 1.287 . S
O105 Fe91 1.996 . S
O105 C98 1.255 . S
C106 O99 1.287 . S
C106 O100 1.255 . S
O107 Fe89 2.002 . S
O107 C103 1.295 . S
O108 Fe91 1.997 . S
O108 C103 1.235 . S
C109 O92 1.295 . S
C109 O93 1.235 . S
Fe110 O112 1.918 . S
Fe110 O115 1.997 . S
Fe110 O116 2.002 . S
Fe110 O121 1.976 . S
Fe110 O124 1.996 . S
Fe111 O112 1.918 . S
Fe111 O119 1.997 . S
Fe111 O122 1.996 . S
Fe111 O126 1.976 . S
Fe111 O129 2.002 . S
O112 Fe110 1.918 . S
O112 Fe111 1.918 . S
O112 Fe113 1.918 . S
Fe113 O112 1.918 . S
Fe113 O114 2.002 . S
Fe113 O123 1.976 . S
Fe113 O127 1.996 . S
Fe113 O130 1.997 . S
O114 Fe113 2.002 . S
O114 C131 1.295 . S
O115 Fe110 1.997 . S
O115 C131 1.235 . S
O116 Fe110 2.002 . S
O116 C117 1.295 . S
C117 O116 1.295 . S
C117 O119 1.235 . S
C118 O123 1.287 . S
C118 O124 1.255 . S
O119 Fe111 1.997 . S
O119 C117 1.235 . S
C120 O126 1.287 . S
C120 O127 1.255 . S
O121 Fe110 1.976 . S
O121 C128 1.287 . S
O122 Fe111 1.996 . S
O122 C128 1.255 . S
O123 Fe113 1.976 . S
O123 C118 1.287 . S
O124 Fe110 1.996 . S
O124 C118 1.255 . S
C125 O129 1.295 . S
C125 O130 1.235 . S
O126 Fe111 1.976 . S
O126 C120 1.287 . S
O127 Fe113 1.996 . S
O127 C120 1.255 . S
C128 O121 1.287 . S
C128 O122 1.255 . S
O129 Fe111 2.002 . S
O129 C125 1.295 . S
O130 Fe113 1.997 . S
O130 C125 1.235 . S
C131 O114 1.295 . S
C131 O115 1.235 . S
Fe132 O134 1.918 . S
Fe132 O137 1.997 . S
Fe132 O138 2.002 . S
Fe132 O143 1.976 . S
Fe132 O146 1.996 . S
Fe133 O134 1.918 . S
Fe133 O141 1.997 . S
Fe133 O144 1.996 . S
Fe133 O148 1.976 . S
Fe133 O151 2.002 . S
O134 Fe132 1.918 . S
O134 Fe133 1.918 . S
O134 Fe135 1.918 . S
Fe135 O134 1.918 . S
Fe135 O136 2.002 . S
Fe135 O145 1.976 . S
Fe135 O149 1.996 . S
Fe135 O152 1.997 . S
O136 Fe135 2.002 . S
O136 C153 1.295 . S
O137 Fe132 1.997 . S
O137 C153 1.235 . S
O138 Fe132 2.002 . S
O138 C139 1.295 . S
C139 O138 1.295 . S
C139 O141 1.235 . S
C140 O145 1.287 . S
C140 O146 1.255 . S
O141 Fe133 1.997 . S
O141 C139 1.235 . S
C142 O148 1.287 . S
C142 O149 1.255 . S
O143 Fe132 1.976 . S
O143 C150 1.287 . S
O144 Fe133 1.996 . S
O144 C150 1.255 . S
O145 Fe135 1.976 . S
O145 C140 1.287 . S
O146 Fe132 1.996 . S
O146 C140 1.255 . S
C147 O151 1.295 . S
C147 O152 1.235 . S
O148 Fe133 1.976 . S
O148 C142 1.287 . S
O149 Fe135 1.996 . S
O149 C142 1.255 . S
C150 O143 1.287 . S
C150 O144 1.255 . S
O151 Fe133 2.002 . S
O151 C147 1.295 . S
O152 Fe135 1.997 . S
O152 C147 1.235 . S
C153 O136 1.295 . S
C153 O137 1.235 . S
Fe154 O156 1.918 . S
Fe154 O159 1.997 . S
Fe154 O160 2.002 . S
Fe154 O165 1.976 . S
Fe154 O168 1.996 1_655 S
Fe155 O156 1.918 . S
Fe155 O163 1.997 . S
Fe155 O166 1.996 . S
Fe155 O170 1.976 . S
Fe155 O173 2.002 . S
O156 Fe154 1.918 . S
O156 Fe155 1.918 . S
O156 Fe157 1.918 1_655 S
Fe157 O156 1.918 1_455 S
Fe157 O158 2.002 . S
Fe157 O167 1.976 . S
Fe157 O171 1.996 . S
Fe157 O174 1.997 1_455 S
O158 Fe157 2.002 . S
O158 C175 1.295 1_455 S
O159 Fe154 1.997 . S
O159 C175 1.235 . S
O160 Fe154 2.002 . S
O160 C161 1.295 . S
C161 O160 1.295 . S
C161 O163 1.235 . S
C162 O167 1.287 . S
C162 O168 1.255 . S
O163 Fe155 1.997 . S
O163 C161 1.235 . S
C164 O170 1.287 1_455 S
C164 O171 1.255 . S
O165 Fe154 1.976 . S
O165 C172 1.287 . S
O166 Fe155 1.996 . S
O166 C172 1.255 . S
O167 Fe157 1.976 . S
O167 C162 1.287 . S
O168 Fe154 1.996 1_455 S
O168 C162 1.255 . S
C169 O173 1.295 . S
C169 O174 1.235 . S
O170 Fe155 1.976 . S
O170 C164 1.287 1_655 S
O171 Fe157 1.996 . S
O171 C164 1.255 . S
C172 O165 1.287 . S
C172 O166 1.255 . S
O173 Fe155 2.002 . S
O173 C169 1.295 . S
O174 Fe157 1.997 1_655 S
O174 C169 1.235 . S
C175 O158 1.295 1_655 S
C175 O159 1.235 . S
Fe176 O178 1.918 . S
Fe176 O181 1.997 . S
Fe176 O182 2.002 . S
Fe176 O187 1.976 . S
Fe176 O190 1.996 . S
Fe177 O178 1.918 . S
Fe177 O185 1.997 . S
Fe177 O188 1.996 . S
Fe177 O192 1.976 1_565 S
Fe177 O195 2.002 . S
O178 Fe176 1.918 . S
O178 Fe177 1.918 . S
O178 Fe179 1.918 1_565 S
Fe179 O178 1.918 1_545 S
Fe179 O180 2.002 1_545 S
Fe179 O189 1.976 . S
Fe179 O193 1.996 . S
Fe179 O196 1.997 . S
O180 Fe179 2.002 1_565 S
O180 C197 1.295 . S
O181 Fe176 1.997 . S
O181 C197 1.235 . S
O182 Fe176 2.002 . S
O182 C183 1.295 . S
C183 O182 1.295 . S
C183 O185 1.235 . S
C184 O189 1.287 . S
C184 O190 1.255 1_545 S
O185 Fe177 1.997 . S
O185 C183 1.235 . S
C186 O192 1.287 . S
C186 O193 1.255 . S
O187 Fe176 1.976 . S
O187 C194 1.287 . S
O188 Fe177 1.996 . S
O188 C194 1.255 . S
O189 Fe179 1.976 . S
O189 C184 1.287 . S
O190 Fe176 1.996 . S
O190 C184 1.255 1_565 S
C191 O195 1.295 . S
C191 O196 1.235 1_565 S
O192 Fe177 1.976 1_545 S
O192 C186 1.287 . S
O193 Fe179 1.996 . S
O193 C186 1.255 . S
C194 O187 1.287 . S
C194 O188 1.255 . S
O195 Fe177 2.002 . S
O195 C191 1.295 . S
O196 Fe179 1.997 . S
O196 C191 1.235 1_545 S
C197 O180 1.295 . S
C197 O181 1.235 . S
Fe198 O200 1.918 . S
Fe198 O203 1.997 . S
Fe198 O204 2.002 . S
Fe198 O209 1.976 . S
Fe198 O212 1.996 . S
Fe199 O200 1.918 . S
Fe199 O207 1.997 . S
Fe199 O210 1.996 . S
Fe199 O214 1.976 . S
Fe199 O217 2.002 . S
O200 Fe198 1.918 . S
O200 Fe199 1.918 . S
O200 Fe201 1.918 . S
Fe201 O200 1.918 . S
Fe201 O202 2.002 . S
Fe201 O211 1.976 . S
Fe201 O215 1.996 . S
Fe201 O218 1.997 . S
O202 Fe201 2.002 . S
O202 C219 1.295 . S
O203 Fe198 1.997 . S
O203 C219 1.235 . S
O204 Fe198 2.002 . S
O204 C205 1.295 . S
C205 O204 1.295 . S
C205 O207 1.235 . S
C206 O211 1.287 . S
C206 O212 1.255 . S
O207 Fe199 1.997 . S
O207 C205 1.235 . S
C208 O214 1.287 . S
C208 O215 1.255 . S
O209 Fe198 1.976 . S
O209 C216 1.287 . S
O210 Fe199 1.996 . S
O210 C216 1.255 . S
O211 Fe201 1.976 . S
O211 C206 1.287 . S
O212 Fe198 1.996 . S
O212 C206 1.255 . S
C213 O217 1.295 . S
C213 O218 1.235 . S
O214 Fe199 1.976 . S
O214 C208 1.287 . S
O215 Fe201 1.996 . S
O215 C208 1.255 . S
C216 O209 1.287 . S
C216 O210 1.255 . S
O217 Fe199 2.002 . S
O217 C213 1.295 . S
O218 Fe201 1.997 . S
O218 C213 1.235 . S
C219 O202 1.295 . S
C219 O203 1.235 . S
Fe220 O222 1.918 . S
Fe220 O225 1.997 . S
Fe220 O226 2.002 . S
Fe220 O231 1.976 . S
Fe220 O234 1.996 . S
Fe221 O222 1.918 . S
Fe221 O229 1.997 . S
Fe221 O232 1.996 . S
Fe221 O236 1.976 . S
Fe221 O239 2.002 . S
O222 Fe220 1.918 . S
O222 Fe221 1.918 . S
O222 Fe223 1.918 . S
Fe223 O222 1.918 . S
Fe223 O224 2.002 . S
Fe223 O233 1.976 . S
Fe223 O237 1.996 . S
Fe223 O240 1.997 . S
O224 Fe223 2.002 . S
O224 C241 1.295 . S
O225 Fe220 1.997 . S
O225 C241 1.235 . S
O226 Fe220 2.002 . S
O226 C227 1.295 . S
C227 O226 1.295 . S
C227 O229 1.235 . S
C228 O233 1.287 . S
C228 O234 1.255 . S
O229 Fe221 1.997 . S
O229 C227 1.235 . S
C230 O236 1.287 . S
C230 O237 1.255 . S
O231 Fe220 1.976 . S
O231 C238 1.287 . S
O232 Fe221 1.996 . S
O232 C238 1.255 . S
O233 Fe223 1.976 . S
O233 C228 1.287 . S
O234 Fe220 1.996 . S
O234 C228 1.255 . S
C235 O239 1.295 . S
C235 O240 1.235 . S
O236 Fe221 1.976 . S
O236 C230 1.287 . S
O237 Fe223 1.996 . S
O237 C230 1.255 . S
C238 O231 1.287 . S
C238 O232 1.255 . S
O239 Fe221 2.002 . S
O239 C235 1.295 . S
O240 Fe223 1.997 . S
O240 C235 1.235 . S
C241 O224 1.295 . S
C241 O225 1.235 . S
Fe242 O244 1.918 1_455 S
Fe242 O247 1.997 . S
Fe242 O248 2.002 1_455 S
Fe242 O253 1.976 . S
Fe242 O256 1.996 . S
Fe243 O244 1.918 . S
Fe243 O251 1.997 . S
Fe243 O254 1.996 . S
Fe243 O258 1.976 . S
Fe243 O261 2.002 . S
O244 Fe242 1.918 1_655 S
O244 Fe243 1.918 . S
O244 Fe245 1.918 . S
Fe245 O244 1.918 . S
Fe245 O246 2.002 . S
Fe245 O255 1.976 1_655 S
Fe245 O259 1.996 . S
Fe245 O262 1.997 . S
O246 Fe245 2.002 . S
O246 C263 1.295 . S
O247 Fe242 1.997 . S
O247 C263 1.235 1_455 S
O248 Fe242 2.002 1_655 S
O248 C249 1.295 . S
C249 O248 1.295 . S
C249 O251 1.235 . S
C250 O255 1.287 . S
C250 O256 1.255 . S
O251 Fe243 1.997 . S
O251 C249 1.235 . S
C252 O258 1.287 . S
C252 O259 1.255 . S
O253 Fe242 1.976 . S
O253 C260 1.287 . S
O254 Fe243 1.996 . S
O254 C260 1.255 1_655 S
O255 Fe245 1.976 1_455 S
O255 C250 1.287 . S
O256 Fe242 1.996 . S
O256 C250 1.255 . S
C257 O261 1.295 . S
C257 O262 1.235 . S
O258 Fe243 1.976 . S
O258 C252 1.287 . S
O259 Fe245 1.996 . S
O259 C252 1.255 . S
C260 O253 1.287 . S
C260 O254 1.255 1_455 S
O261 Fe243 2.002 . S
O261 C257 1.295 . S
O262 Fe245 1.997 . S
O262 C257 1.235 . S
C263 O246 1.295 . S
C263 O247 1.235 1_655 S
Fe264 O266 1.918 . S
Fe264 O269 1.997 . S
Fe264 O270 2.002 . S
Fe264 O275 1.976 1_545 S
Fe264 O278 1.996 . S
Fe265 O266 1.918 1_565 S
Fe265 O273 1.997 . S
Fe265 O276 1.996 . S
Fe265 O280 1.976 . S
Fe265 O283 2.002 1_565 S
O266 Fe264 1.918 . S
O266 Fe265 1.918 1_545 S
O266 Fe267 1.918 . S
Fe267 O266 1.918 . S
Fe267 O268 2.002 . S
Fe267 O277 1.976 . S
Fe267 O281 1.996 . S
Fe267 O284 1.997 . S
O268 Fe267 2.002 . S
O268 C285 1.295 . S
O269 Fe264 1.997 . S
O269 C285 1.235 . S
O270 Fe264 2.002 . S
O270 C271 1.295 . S
C271 O270 1.295 . S
C271 O273 1.235 1_545 S
C272 O277 1.287 . S
C272 O278 1.255 . S
O273 Fe265 1.997 . S
O273 C271 1.235 1_565 S
C274 O280 1.287 . S
C274 O281 1.255 1_565 S
O275 Fe264 1.976 1_565 S
O275 C282 1.287 . S
O276 Fe265 1.996 . S
O276 C282 1.255 . S
O277 Fe267 1.976 . S
O277 C272 1.287 . S
O278 Fe264 1.996 . S
O278 C272 1.255 . S
C279 O283 1.295 . S
C279 O284 1.235 . S
O280 Fe265 1.976 . S
O280 C274 1.287 . S
O281 Fe267 1.996 . S
O281 C274 1.255 1_545 S
C282 O275 1.287 . S
C282 O276 1.255 . S
O283 Fe265 2.002 1_545 S
O283 C279 1.295 . S
O284 Fe267 1.997 . S
O284 C279 1.235 . S
C285 O268 1.295 . S
C285 O269 1.235 . S
Fe286 O288 1.918 . S
Fe286 O291 1.997 . S
Fe286 O292 2.002 . S
Fe286 O297 1.976 . S
Fe286 O300 1.996 . S
Fe287 O288 1.918 . S
Fe287 O295 1.997 . S
Fe287 O298 1.996 . S
Fe287 O302 1.976 . S
Fe287 O305 2.002 . S
O288 Fe286 1.918 . S
O288 Fe287 1.918 . S
O288 Fe289 1.918 . S
Fe289 O288 1.918 . S
Fe289 O290 2.002 . S
Fe289 O299 1.976 . S
Fe289 O303 1.996 . S
Fe289 O306 1.997 . S
O290 Fe289 2.002 . S
O290 C307 1.295 . S
O291 Fe286 1.997 . S
O291 C307 1.235 . S
O292 Fe286 2.002 . S
O292 C293 1.295 . S
C293 O292 1.295 . S
C293 O295 1.235 . S
C294 O299 1.287 . S
C294 O300 1.255 . S
O295 Fe287 1.997 . S
O295 C293 1.235 . S
C296 O302 1.287 . S
C296 O303 1.255 . S
O297 Fe286 1.976 . S
O297 C304 1.287 . S
O298 Fe287 1.996 . S
O298 C304 1.255 . S
O299 Fe289 1.976 . S
O299 C294 1.287 . S
O300 Fe286 1.996 . S
O300 C294 1.255 . S
C301 O305 1.295 . S
C301 O306 1.235 . S
O302 Fe287 1.976 . S
O302 C296 1.287 . S
O303 Fe289 1.996 . S
O303 C296 1.255 . S
C304 O297 1.287 . S
C304 O298 1.255 . S
O305 Fe287 2.002 . S
O305 C301 1.295 . S
O306 Fe289 1.997 . S
O306 C301 1.235 . S
C307 O290 1.295 . S
C307 O291 1.235 . S
Fe308 O310 1.918 . S
Fe308 O313 1.997 . S
Fe308 O314 2.002 . S
Fe308 O319 1.976 . S
Fe308 O322 1.996 . S
Fe309 O310 1.918 . S
Fe309 O317 1.997 . S
Fe309 O320 1.996 . S
Fe309 O324 1.976 . S
Fe309 O327 2.002 . S
O310 Fe308 1.918 . S
O310 Fe309 1.918 . S
O310 Fe311 1.918 . S
Fe311 O310 1.918 . S
Fe311 O312 2.002 . S
Fe311 O321 1.976 . S
Fe311 O325 1.996 . S
Fe311 O328 1.997 . S
O312 Fe311 2.002 . S
O312 C329 1.295 . S
O313 Fe308 1.997 . S
O313 C329 1.235 . S
O314 Fe308 2.002 . S
O314 C315 1.295 . S
C315 O314 1.295 . S
C315 O317 1.235 . S
C316 O321 1.287 . S
C316 O322 1.255 . S
O317 Fe309 1.997 . S
O317 C315 1.235 . S
C318 O324 1.287 . S
C318 O325 1.255 . S
O319 Fe308 1.976 . S
O319 C326 1.287 . S
O320 Fe309 1.996 . S
O320 C326 1.255 . S
O321 Fe311 1.976 . S
O321 C316 1.287 . S
O322 Fe308 1.996 . S
O322 C316 1.255 . S
C323 O327 1.295 . S
C323 O328 1.235 . S
O324 Fe309 1.976 . S
O324 C318 1.287 . S
O325 Fe311 1.996 . S
O325 C318 1.255 . S
C326 O319 1.287 . S
C326 O320 1.255 . S
O327 Fe309 2.002 . S
O327 C323 1.295 . S
O328 Fe311 1.997 . S
O328 C323 1.235 . S
C329 O312 1.295 . S
C329 O313 1.235 . S
Fe330 O332 1.918 1_655 S
Fe330 O335 1.997 . S
Fe330 O336 2.002 1_655 S
Fe330 O341 1.976 . S
Fe330 O344 1.996 . S
Fe331 O332 1.918 . S
Fe331 O339 1.997 . S
Fe331 O342 1.996 . S
Fe331 O346 1.976 . S
Fe331 O349 2.002 . S
O332 Fe330 1.918 1_455 S
O332 Fe331 1.918 . S
O332 Fe333 1.918 . S
Fe333 O332 1.918 . S
Fe333 O334 2.002 . S
Fe333 O343 1.976 1_455 S
Fe333 O347 1.996 . S
Fe333 O350 1.997 . S
O334 Fe333 2.002 . S
O334 C351 1.295 . S
O335 Fe330 1.997 . S
O335 C351 1.235 1_655 S
O336 Fe330 2.002 1_455 S
O336 C337 1.295 . S
C337 O336 1.295 . S
C337 O339 1.235 . S
C338 O343 1.287 . S
C338 O344 1.255 . S
O339 Fe331 1.997 . S
O339 C337 1.235 . S
C340 O346 1.287 . S
C340 O347 1.255 . S
O341 Fe330 1.976 . S
O341 C348 1.287 . S
O342 Fe331 1.996 . S
O342 C348 1.255 1_455 S
O343 Fe333 1.976 1_655 S
O343 C338 1.287 . S
O344 Fe330 1.996 . S
O344 C338 1.255 . S
C345 O349 1.295 . S
C345 O350 1.235 . S
O346 Fe331 1.976 . S
O346 C340 1.287 . S
O347 Fe333 1.996 . S
O347 C340 1.255 . S
C348 O341 1.287 . S
C348 O342 1.255 1_655 S
O349 Fe331 2.002 . S
O349 C345 1.295 . S
O350 Fe333 1.997 . S
O350 C345 1.235 . S
C351 O334 1.295 . S
C351 O335 1.235 1_455 S
C352 C353 1.387 . S
C352 H356 0.950 . S
C352 C361 1.390 . S
C353 C352 1.387 . S
C353 C355 1.387 . S
H354 C361 0.950 . S
C355 C353 1.387 . S
C355 C357 1.390 . S
C355 H359 0.950 . S
H356 C352 0.950 . S
C357 C355 1.390 . S
C357 C358 1.387 . S
C357 H360 0.950 . S
C358 C357 1.387 . S
C358 C361 1.387 . S
H359 C355 0.950 . S
H360 C357 0.950 . S
C361 C352 1.390 . S
C361 H354 0.950 . S
C361 C358 1.387 . S
C362 C363 1.387 . S
C362 H366 0.950 . S
C362 C371 1.390 . S
C363 C362 1.387 . S
C363 C365 1.387 . S
H364 C371 0.950 . S
C365 C363 1.387 . S
C365 C367 1.390 . S
C365 H369 0.950 . S
H366 C362 0.950 . S
C367 C365 1.390 . S
C367 C368 1.387 . S
C367 H370 0.950 . S
C368 C367 1.387 . S
C368 C371 1.387 . S
H369 C365 0.950 . S
H370 C367 0.950 . S
C371 C362 1.390 . S
C371 H364 0.950 . S
C371 C368 1.387 . S
C372 C373 1.387 . S
C372 H376 0.950 . S
C372 C381 1.390 . S
C373 C372 1.387 . S
C373 C375 1.387 . S
H374 C381 0.950 . S
C375 C373 1.387 . S
C375 C377 1.390 . S
C375 H379 0.950 . S
H376 C372 0.950 . S
C377 C375 1.390 . S
C377 C378 1.387 . S
C377 H380 0.950 . S
C378 C377 1.387 . S
C378 C381 1.387 . S
H379 C375 0.950 . S
H380 C377 0.950 . S
C381 C372 1.390 . S
C381 H374 0.950 . S
C381 C378 1.387 . S
C382 C383 1.387 . S
C382 H386 0.950 . S
C382 C391 1.390 . S
C383 C382 1.387 . S
C383 C385 1.387 . S
H384 C391 0.950 . S
C385 C383 1.387 . S
C385 C387 1.390 . S
C385 H389 0.950 . S
H386 C382 0.950 . S
C387 C385 1.390 . S
C387 C388 1.387 . S
C387 H390 0.950 . S
C388 C387 1.387 . S
C388 C391 1.387 . S
H389 C385 0.950 . S
H390 C387 0.950 . S
C391 C382 1.390 . S
C391 H384 0.950 . S
C391 C388 1.387 . S
C392 C393 1.387 . S
C392 H396 0.950 . S
C392 C401 1.390 . S
C393 C392 1.387 . S
C393 C395 1.387 . S
H394 C401 0.950 . S
C395 C393 1.387 . S
C395 C397 1.390 . S
C395 H399 0.950 . S
H396 C392 0.950 . S
C397 C395 1.390 . S
C397 C398 1.387 . S
C397 H400 0.950 . S
C398 C397 1.387 . S
C398 C401 1.387 . S
H399 C395 0.950 . S
H400 C397 0.950 . S
C401 C392 1.390 . S
C401 H394 0.950 . S
C401 C398 1.387 . S
C402 C403 1.387 . S
C402 H406 0.950 . S
C402 C411 1.390 . S
C403 C402 1.387 . S
C403 C405 1.387 . S
H404 C411 0.950 . S
C405 C403 1.387 . S
C405 C407 1.390 . S
C405 H409 0.950 . S
H406 C402 0.950 . S
C407 C405 1.390 . S
C407 C408 1.387 . S
C407 H410 0.950 . S
C408 C407 1.387 . S
C408 C411 1.387 . S
H409 C405 0.950 . S
H410 C407 0.950 . S
C411 C402 1.390 . S
C411 H404 0.950 . S
C411 C408 1.387 . S
C412 C413 1.387 . S
C412 H416 0.950 . S
C412 C421 1.390 . S
C413 C412 1.387 . S
C413 C415 1.387 . S
H414 C421 0.950 . S
C415 C413 1.387 . S
C415 C417 1.390 . S
C415 H419 0.950 . S
H416 C412 0.950 . S
C417 C415 1.390 . S
C417 C418 1.387 . S
C417 H420 0.950 . S
C418 C417 1.387 . S
C418 C421 1.387 . S
H419 C415 0.950 . S
H420 C417 0.950 . S
C421 C412 1.390 . S
C421 H414 0.950 . S
C421 C418 1.387 . S
C422 C423 1.387 . S
C422 H426 0.950 . S
C422 C431 1.390 . S
C423 C422 1.387 . S
C423 C425 1.387 . S
H424 C431 0.950 . S
C425 C423 1.387 . S
C425 C427 1.390 . S
C425 H429 0.950 . S
H426 C422 0.950 . S
C427 C425 1.390 . S
C427 C428 1.387 . S
C427 H430 0.950 . S
C428 C427 1.387 . S
C428 C431 1.387 . S
H429 C425 0.950 . S
H430 C427 0.950 . S
C431 C422 1.390 . S
C431 H424 0.950 . S
C431 C428 1.387 . S
C432 C433 1.387 1_565 S
C432 H436 0.950 . S
C432 C441 1.390 . S
C433 C432 1.387 1_545 S
C433 C435 1.387 1_554 S
H434 C441 0.950 . S
C435 C433 1.387 1_556 S
C435 C437 1.390 . S
C435 H439 0.950 . S
H436 C432 0.950 . S
C437 C435 1.390 . S
C437 C438 1.387 1_545 S
C437 H440 0.950 . S
C438 C437 1.387 1_565 S
C438 C441 1.387 1_556 S
H439 C435 0.950 . S
H440 C437 0.950 . S
C441 C432 1.390 . S
C441 H434 0.950 . S
C441 C438 1.387 1_554 S
C442 C443 1.387 1_556 S
C442 H446 0.950 . S
C442 C451 1.390 . S
C443 C442 1.387 1_554 S
C443 C445 1.387 . S
H444 C451 0.950 . S
C445 C443 1.387 . S
C445 C447 1.390 . S
C445 H449 0.950 . S
H446 C442 0.950 . S
C447 C445 1.390 . S
C447 C448 1.387 1_554 S
C447 H450 0.950 . S
C448 C447 1.387 1_556 S
C448 C451 1.387 . S
H449 C445 0.950 . S
H450 C447 0.950 . S
C451 C442 1.390 . S
C451 H444 0.950 . S
C451 C448 1.387 . S
C452 C453 1.387 1_554 S
C452 H456 0.950 . S
C452 C461 1.390 1_455 S
C453 C452 1.387 1_556 S
C453 C455 1.387 . S
H454 C461 0.950 . S
C455 C453 1.387 . S
C455 C457 1.390 1_455 S
C455 H459 0.950 . S
H456 C452 0.950 . S
C457 C455 1.390 1_655 S
C457 C458 1.387 1_556 S
C457 H460 0.950 . S
C458 C457 1.387 1_554 S
C458 C461 1.387 . S
H459 C455 0.950 . S
H460 C457 0.950 . S
C461 C452 1.390 1_655 S
C461 H454 0.950 . S
C461 C458 1.387 . S
C462 C463 1.387 1_454 S
C462 H466 0.950 . S
C462 C471 1.390 1_545 S
C463 C462 1.387 1_656 S
C463 C465 1.387 . S
H464 C471 0.950 . S
C465 C463 1.387 . S
C465 C467 1.390 1_545 S
C465 H469 0.950 . S
H466 C462 0.950 . S
C467 C465 1.390 1_565 S
C467 C468 1.387 1_656 S
C467 H470 0.950 . S
C468 C467 1.387 1_454 S
C468 C471 1.387 . S
H469 C465 0.950 . S
H470 C467 0.950 . S
C471 C462 1.390 1_565 S
C471 H464 0.950 . S
C471 C468 1.387 . S
C472 C473 1.387 1_545 S
C472 H476 0.950 . S
C472 C481 1.390 1_455 S
C473 C472 1.387 1_565 S
C473 C475 1.387 . S
H474 C481 0.950 . S
C475 C473 1.387 . S
C475 C477 1.390 1_455 S
C475 H479 0.950 . S
H476 C472 0.950 . S
C477 C475 1.390 1_655 S
C477 C478 1.387 1_565 S
C477 H480 0.950 . S
C478 C477 1.387 1_545 S
C478 C481 1.387 . S
H479 C475 0.950 . S
H480 C477 0.950 . S
C481 C472 1.390 1_655 S
C481 H474 0.950 . S
C481 C478 1.387 . S
C482 C483 1.387 . S
C482 H486 0.950 . S
C482 C491 1.390 1_545 S
C483 C482 1.387 . S
C483 C485 1.387 . S
H484 C491 0.950 . S
C485 C483 1.387 . S
C485 C487 1.390 1_545 S
C485 H489 0.950 . S
H486 C482 0.950 . S
C487 C485 1.390 1_565 S
C487 C488 1.387 . S
C487 H490 0.950 . S
C488 C487 1.387 . S
C488 C491 1.387 . S
H489 C485 0.950 . S
H490 C487 0.950 . S
C491 C482 1.390 1_565 S
C491 H484 0.950 . S
C491 C488 1.387 . S
C492 C493 1.387 . S
C492 H496 0.950 . S
C492 C501 1.390 . S
C493 C492 1.387 . S
C493 C495 1.387 . S
H494 C501 0.950 . S
C495 C493 1.387 . S
C495 C497 1.390 . S
C495 H499 0.950 . S
H496 C492 0.950 . S
C497 C495 1.390 . S
C497 C498 1.387 . S
C497 H500 0.950 . S
C498 C497 1.387 . S
C498 C501 1.387 . S
H499 C495 0.950 . S
H500 C497 0.950 . S
C501 C492 1.390 . S
C501 H494 0.950 . S
C501 C498 1.387 . S
C502 C503 1.387 . S
C502 H506 0.950 . S
C502 C511 1.390 1_455 S
C503 C502 1.387 . S
C503 C505 1.387 . S
H504 C511 0.950 . S
C505 C503 1.387 . S
C505 C507 1.390 1_455 S
C505 H509 0.950 . S
H506 C502 0.950 . S
C507 C505 1.390 1_655 S
C507 C508 1.387 . S
C507 H510 0.950 . S
C508 C507 1.387 . S
C508 C511 1.387 . S
H509 C505 0.950 . S
H510 C507 0.950 . S
C511 C502 1.390 1_655 S
C511 H504 0.950 . S
C511 C508 1.387 . S
C512 C513 1.387 . S
C512 H516 0.950 . S
C512 C521 1.390 . S
C513 C512 1.387 . S
C513 C515 1.387 . S
H514 C521 0.950 . S
C515 C513 1.387 . S
C515 C517 1.390 . S
C515 H519 0.950 . S
H516 C512 0.950 . S
C517 C515 1.390 . S
C517 C518 1.387 . S
C517 H520 0.950 . S
C518 C517 1.387 . S
C518 C521 1.387 . S
H519 C515 0.950 . S
H520 C517 0.950 . S
C521 C512 1.390 . S
C521 H514 0.950 . S
C521 C518 1.387 . S
C522 C523 1.387 . S
C522 H526 0.950 . S
C522 C531 1.390 . S
C523 C522 1.387 . S
C523 C525 1.387 . S
H524 C531 0.950 . S
C525 C523 1.387 . S
C525 C527 1.390 . S
C525 H529 0.950 . S
H526 C522 0.950 . S
C527 C525 1.390 . S
C527 C528 1.387 . S
C527 H530 0.950 . S
C528 C527 1.387 . S
C528 C531 1.387 . S
H529 C525 0.950 . S
H530 C527 0.950 . S
C531 C522 1.390 . S
C531 H524 0.950 . S
C531 C528 1.387 . S
C532 C533 1.387 . S
C532 H536 0.950 . S
C532 C541 1.390 . S
C533 C532 1.387 . S
C533 C535 1.387 . S
H534 C541 0.950 . S
C535 C533 1.387 . S
C535 C537 1.390 . S
C535 H539 0.950 . S
H536 C532 0.950 . S
C537 C535 1.390 . S
C537 C538 1.387 . S
C537 H540 0.950 . S
C538 C537 1.387 . S
C538 C541 1.387 . S
H539 C535 0.950 . S
H540 C537 0.950 . S
C541 C532 1.390 . S
C541 H534 0.950 . S
C541 C538 1.387 . S
C542 C543 1.387 . S
C542 H546 0.950 . S
C542 C551 1.390 . S
C543 C542 1.387 . S
C543 C545 1.387 . S
H544 C551 0.950 . S
C545 C543 1.387 . S
C545 C547 1.390 . S
C545 H549 0.950 . S
H546 C542 0.950 . S
C547 C545 1.390 . S
C547 C548 1.387 . S
C547 H550 0.950 . S
C548 C547 1.387 . S
C548 C551 1.387 . S
H549 C545 0.950 . S
H550 C547 0.950 . S
C551 C542 1.390 . S
C551 H544 0.950 . S
C551 C548 1.387 . S
C552 C553 1.387 . S
C552 H556 0.950 . S
C552 C561 1.390 . S
C553 C552 1.387 . S
C553 C555 1.387 . S
H554 C561 0.950 . S
C555 C553 1.387 . S
C555 C557 1.390 . S
C555 H559 0.950 . S
H556 C552 0.950 . S
C557 C555 1.390 . S
C557 C558 1.387 . S
C557 H560 0.950 . S
C558 C557 1.387 . S
C558 C561 1.387 . S
H559 C555 0.950 . S
H560 C557 0.950 . S
C561 C552 1.390 . S
C561 H554 0.950 . S
C561 C558 1.387 . S
C562 C563 1.387 . S
C562 H566 0.950 . S
C562 C571 1.390 . S
C563 C562 1.387 . S
C563 C565 1.387 . S
H564 C571 0.950 . S
C565 C563 1.387 . S
C565 C567 1.390 . S
C565 H569 0.950 . S
H566 C562 0.950 . S
C567 C565 1.390 . S
C567 C568 1.387 . S
C567 H570 0.950 . S
C568 C567 1.387 . S
C568 C571 1.387 . S
H569 C565 0.950 . S
H570 C567 0.950 . S
C571 C562 1.390 . S
C571 H564 0.950 . S
C571 C568 1.387 . S
C572 C573 1.387 . S
C572 H576 0.950 . S
C572 C581 1.390 . S
C573 C572 1.387 . S
C573 C575 1.387 . S
H574 C581 0.950 . S
C575 C573 1.387 . S
C575 C577 1.390 . S
C575 H579 0.950 . S
H576 C572 0.950 . S
C577 C575 1.390 . S
C577 C578 1.387 . S
C577 H580 0.950 . S
C578 C577 1.387 . S
C578 C581 1.387 . S
H579 C575 0.950 . S
H580 C577 0.950 . S
C581 C572 1.390 . S
C581 H574 0.950 . S
C581 C578 1.387 . S
C582 C583 1.387 . S
C582 H586 0.950 . S
C582 C591 1.390 . S
C583 C582 1.387 . S
C583 C585 1.387 . S
H584 C591 0.950 . S
C585 C583 1.387 . S
C585 C587 1.390 . S
C585 H589 0.950 . S
H586 C582 0.950 . S
C587 C585 1.390 . S
C587 C588 1.387 . S
C587 H590 0.950 . S
C588 C587 1.387 . S
C588 C591 1.387 . S
H589 C585 0.950 . S
H590 C587 0.950 . S
C591 C582 1.390 . S
C591 H584 0.950 . S
C591 C588 1.387 . S
C592 C593 1.387 . S
C592 H596 0.950 . S
C592 C601 1.390 . S
C593 C592 1.387 . S
C593 C595 1.387 . S
H594 C601 0.950 . S
C595 C593 1.387 . S
C595 C597 1.390 . S
C595 H599 0.950 . S
H596 C592 0.950 . S
C597 C595 1.390 . S
C597 C598 1.387 . S
C597 H600 0.950 . S
C598 C597 1.387 . S
C598 C601 1.387 . S
H599 C595 0.950 . S
H600 C597 0.950 . S
C601 C592 1.390 . S
C601 H594 0.950 . S
C601 C598 1.387 . S
C602 C603 1.387 . S
C602 H606 0.950 . S
C602 C611 1.390 . S
C603 C602 1.387 . S
C603 C605 1.387 . S
H604 C611 0.950 . S
C605 C603 1.387 . S
C605 C607 1.390 . S
C605 H609 0.950 . S
H606 C602 0.950 . S
C607 C605 1.390 . S
C607 C608 1.387 . S
C607 H610 0.950 . S
C608 C607 1.387 . S
C608 C611 1.387 . S
H609 C605 0.950 . S
H610 C607 0.950 . S
C611 C602 1.390 . S
C611 H604 0.950 . S
C611 C608 1.387 . S
C612 C613 1.387 . S
C612 H616 0.950 . S
C612 C621 1.390 . S
C613 C612 1.387 . S
C613 C615 1.387 . S
H614 C621 0.950 . S
C615 C613 1.387 . S
C615 C617 1.390 . S
C615 H619 0.950 . S
H616 C612 0.950 . S
C617 C615 1.390 . S
C617 C618 1.387 . S
C617 H620 0.950 . S
C618 C617 1.387 . S
C618 C621 1.387 . S
H619 C615 0.950 . S
H620 C617 0.950 . S
C621 C612 1.390 . S
C621 H614 0.950 . S
C621 C618 1.387 . S
C622 C623 1.387 . S
C622 H626 0.950 . S
C622 C631 1.390 . S
C623 C622 1.387 . S
C623 C625 1.387 . S
H624 C631 0.950 . S
C625 C623 1.387 . S
C625 C627 1.390 . S
C625 H629 0.950 . S
H626 C622 0.950 . S
C627 C625 1.390 . S
C627 C628 1.387 . S
C627 H630 0.950 . S
C628 C627 1.387 . S
C628 C631 1.387 . S
H629 C625 0.950 . S
H630 C627 0.950 . S
C631 C622 1.390 . S
C631 H624 0.950 . S
C631 C628 1.387 . S
C632 C633 1.387 . S
C632 H636 0.950 . S
C632 C641 1.390 . S
C633 C632 1.387 . S
C633 C635 1.387 . S
H634 C641 0.950 . S
C635 C633 1.387 . S
C635 C637 1.390 . S
C635 H639 0.950 . S
H636 C632 0.950 . S
C637 C635 1.390 . S
C637 C638 1.387 . S
C637 H640 0.950 . S
C638 C637 1.387 . S
C638 C641 1.387 . S
H639 C635 0.950 . S
H640 C637 0.950 . S
C641 C632 1.390 . S
C641 H634 0.950 . S
C641 C638 1.387 . S
C642 C643 1.387 . S
C642 H646 0.950 . S
C642 C651 1.390 . S
C643 C642 1.387 . S
C643 C645 1.387 . S
H644 C651 0.950 . S
C645 C643 1.387 . S
C645 C647 1.390 . S
C645 H649 0.950 . S
H646 C642 0.950 . S
C647 C645 1.390 . S
C647 C648 1.387 . S
C647 H650 0.950 . S
C648 C647 1.387 . S
C648 C651 1.387 . S
H649 C645 0.950 . S
H650 C647 0.950 . S
C651 C642 1.390 . S
C651 H644 0.950 . S
C651 C648 1.387 . S
C652 C653 1.387 . S
C652 H656 0.950 . S
C652 C661 1.390 . S
C653 C652 1.387 . S
C653 C655 1.387 . S
H654 C661 0.950 . S
C655 C653 1.387 . S
C655 C657 1.390 . S
C655 H659 0.950 . S
H656 C652 0.950 . S
C657 C655 1.390 . S
C657 C658 1.387 . S
C657 H660 0.950 . S
C658 C657 1.387 . S
C658 C661 1.387 . S
H659 C655 0.950 . S
H660 C657 0.950 . S
C661 C652 1.390 . S
C661 H654 0.950 . S
C661 C658 1.387 . S
C662 C663 1.387 . S
C662 H666 0.950 . S
C662 C671 1.390 . S
C663 C662 1.387 . S
C663 C665 1.387 . S
H664 C671 0.950 . S
C665 C663 1.387 . S
C665 C667 1.390 . S
C665 H669 0.950 . S
H666 C662 0.950 . S
C667 C665 1.390 . S
C667 C668 1.387 . S
C667 H670 0.950 . S
C668 C667 1.387 . S
C668 C671 1.387 . S
H669 C665 0.950 . S
H670 C667 0.950 . S
C671 C662 1.390 . S
C671 H664 0.950 . S
C671 C668 1.387 . S
C672 C673 1.387 . S
C672 H676 0.950 . S
C672 C681 1.390 . S
C673 C672 1.387 . S
C673 C675 1.387 . S
H674 C681 0.950 1_556 S
C675 C673 1.387 . S
C675 C677 1.390 . S
C675 H679 0.950 . S
H676 C672 0.950 . S
C677 C675 1.390 . S
C677 C678 1.387 . S
C677 H680 0.950 . S
C678 C677 1.387 . S
C678 C681 1.387 . S
H679 C675 0.950 . S
H680 C677 0.950 . S
C681 C672 1.390 . S
C681 H674 0.950 1_554 S
C681 C678 1.387 . S
C682 C683 1.387 . S
C682 H686 0.950 . S
C682 C691 1.390 . S
C683 C682 1.387 . S
C683 C685 1.387 . S
H684 C691 0.950 . S
C685 C683 1.387 . S
C685 C687 1.390 . S
C685 H689 0.950 1_554 S
H686 C682 0.950 . S
C687 C685 1.390 . S
C687 C688 1.387 . S
C687 H690 0.950 . S
C688 C687 1.387 . S
C688 C691 1.387 . S
H689 C685 0.950 1_556 S
H690 C687 0.950 . S
C691 C682 1.390 . S
C691 H684 0.950 . S
C691 C688 1.387 . S
C692 C693 1.387 . S
C692 H696 0.950 . S
C692 C701 1.390 . S
C693 C692 1.387 . S
C693 C695 1.387 . S
H694 C701 0.950 . S
C695 C693 1.387 . S
C695 C697 1.390 . S
C695 H699 0.950 . S
H696 C692 0.950 . S
C697 C695 1.390 . S
C697 C698 1.387 . S
C697 H700 0.950 . S
C698 C697 1.387 . S
C698 C701 1.387 . S
H699 C695 0.950 . S
H700 C697 0.950 . S
C701 C692 1.390 . S
C701 H694 0.950 . S
C701 C698 1.387 . S
C702 C703 1.387 . S
C702 H706 0.950 . S
C702 C711 1.390 . S
C703 C702 1.387 . S
C703 C705 1.387 . S
H704 C711 0.950 . S
C705 C703 1.387 . S
C705 C707 1.390 . S
C705 H709 0.950 1_554 S
H706 C702 0.950 . S
C707 C705 1.390 . S
C707 C708 1.387 . S
C707 H710 0.950 . S
C708 C707 1.387 . S
C708 C711 1.387 . S
H709 C705 0.950 1_556 S
H710 C707 0.950 . S
C711 C702 1.390 . S
C711 H704 0.950 . S
C711 C708 1.387 . S
C712 C713 1.387 . S
C712 H716 0.950 . S
C712 C721 1.390 . S
C713 C712 1.387 . S
C713 C715 1.387 . S
H714 C721 0.950 . S
C715 C713 1.387 . S
C715 C717 1.390 . S
C715 H719 0.950 . S
H716 C712 0.950 . S
C717 C715 1.390 . S
C717 C718 1.387 . S
C717 H720 0.950 . S
C718 C717 1.387 . S
C718 C721 1.387 . S
H719 C715 0.950 . S
H720 C717 0.950 . S
C721 C712 1.390 . S
C721 H714 0.950 . S
C721 C718 1.387 . S
C722 C723 1.387 . S
C722 H726 0.950 . S
C722 C731 1.390 . S
C723 C722 1.387 . S
C723 C725 1.387 . S
H724 C731 0.950 . S
C725 C723 1.387 . S
C725 C727 1.390 . S
C725 H729 0.950 . S
H726 C722 0.950 . S
C727 C725 1.390 . S
C727 C728 1.387 . S
C727 H730 0.950 . S
C728 C727 1.387 . S
C728 C731 1.387 . S
H729 C725 0.950 . S
H730 C727 0.950 . S
C731 C722 1.390 . S
C731 H724 0.950 . S
C731 C728 1.387 . S
C732 C733 1.387 . S
C732 H736 0.950 . S
C732 C741 1.390 . S
C733 C732 1.387 . S
C733 C735 1.387 . S
H734 C741 0.950 . S
C735 C733 1.387 . S
C735 C737 1.390 . S
C735 H739 0.950 . S
H736 C732 0.950 . S
C737 C735 1.390 . S
C737 C738 1.387 . S
C737 H740 0.950 . S
C738 C737 1.387 . S
C738 C741 1.387 . S
H739 C735 0.950 . S
H740 C737 0.950 . S
C741 C732 1.390 . S
C741 H734 0.950 . S
C741 C738 1.387 . S
C742 C743 1.387 . S
C742 H746 0.950 . S
C742 C751 1.390 . S
C743 C742 1.387 . S
C743 C745 1.387 . S
H744 C751 0.950 . S
C745 C743 1.387 . S
C745 C747 1.390 . S
C745 H749 0.950 . S
H746 C742 0.950 . S
C747 C745 1.390 . S
C747 C748 1.387 . S
C747 H750 0.950 . S
C748 C747 1.387 . S
C748 C751 1.387 . S
H749 C745 0.950 . S
H750 C747 0.950 . S
C751 C742 1.390 . S
C751 H744 0.950 . S
C751 C748 1.387 . S
C752 C753 1.387 . S
C752 H756 0.950 . S
C752 C761 1.390 . S
C753 C752 1.387 . S
C753 C755 1.387 1_556 S
H754 C761 0.950 . S
C755 C753 1.387 1_554 S
C755 C757 1.390 1_554 S
C755 H759 0.950 . S
H756 C752 0.950 . S
C757 C755 1.390 1_556 S
C757 C758 1.387 . S
C757 H760 0.950 . S
C758 C757 1.387 . S
C758 C761 1.387 . S
H759 C755 0.950 . S
H760 C757 0.950 . S
C761 C752 1.390 . S
C761 H754 0.950 . S
C761 C758 1.387 . S
C762 C763 1.387 . S
C762 H766 0.950 . S
C762 C771 1.390 . S
C763 C762 1.387 . S
C763 C765 1.387 . S
H764 C771 0.950 . S
C765 C763 1.387 . S
C765 C767 1.390 . S
C765 H769 0.950 . S
H766 C762 0.950 . S
C767 C765 1.390 . S
C767 C768 1.387 . S
C767 H770 0.950 1_556 S
C768 C767 1.387 . S
C768 C771 1.387 . S
H769 C765 0.950 . S
H770 C767 0.950 1_554 S
C771 C762 1.390 . S
C771 H764 0.950 . S
C771 C768 1.387 . S
C772 C773 1.387 . S
C772 H776 0.950 . S
C772 C781 1.390 . S
C773 C772 1.387 . S
C773 C775 1.387 . S
H774 C781 0.950 . S
C775 C773 1.387 . S
C775 C777 1.390 . S
C775 H779 0.950 . S
H776 C772 0.950 . S
C777 C775 1.390 . S
C777 C778 1.387 . S
C777 H780 0.950 . S
C778 C777 1.387 . S
C778 C781 1.387 . S
H779 C775 0.950 . S
H780 C777 0.950 . S
C781 C772 1.390 . S
C781 H774 0.950 . S
C781 C778 1.387 . S
C782 C783 1.387 . S
C782 H786 0.950 1_556 S
C782 C791 1.390 . S
C783 C782 1.387 . S
C783 C785 1.387 . S
H784 C791 0.950 . S
C785 C783 1.387 . S
C785 C787 1.390 . S
C785 H789 0.950 . S
H786 C782 0.950 1_554 S
C787 C785 1.390 . S
C787 C788 1.387 . S
C787 H790 0.950 . S
C788 C787 1.387 . S
C788 C791 1.387 . S
H789 C785 0.950 . S
H790 C787 0.950 . S
C791 C782 1.390 . S
C791 H784 0.950 . S
C791 C788 1.387 . S
C792 C793 1.387 . S
C792 H796 0.950 . S
C792 C801 1.390 . S
C793 C792 1.387 . S
C793 C795 1.387 . S
H794 C801 0.950 . S
C795 C793 1.387 . S
C795 C797 1.390 . S
C795 H799 0.950 . S
H796 C792 0.950 . S
C797 C795 1.390 . S
C797 C798 1.387 . S
C797 H800 0.950 . S
C798 C797 1.387 . S
C798 C801 1.387 . S
H799 C795 0.950 . S
H800 C797 0.950 . S
C801 C792 1.390 . S
C801 H794 0.950 . S
C801 C798 1.387 . S
C802 C803 1.387 . S
C802 H806 0.950 . S
C802 C811 1.390 . S
C803 C802 1.387 . S
C803 C805 1.387 . S
H804 C811 0.950 . S
C805 C803 1.387 . S
C805 C807 1.390 . S
C805 H809 0.950 . S
H806 C802 0.950 . S
C807 C805 1.390 . S
C807 C808 1.387 . S
C807 H810 0.950 . S
C808 C807 1.387 . S
C808 C811 1.387 . S
H809 C805 0.950 . S
H810 C807 0.950 . S
C811 C802 1.390 . S
C811 H804 0.950 . S
C811 C808 1.387 . S
C812 C813 1.387 . S
C812 H816 0.950 . S
C812 C821 1.390 . S
C813 C812 1.387 . S
C813 C815 1.387 . S
H814 C821 0.950 . S
C815 C813 1.387 . S
C815 C817 1.390 . S
C815 H819 0.950 . S
H816 C812 0.950 . S
C817 C815 1.390 . S
C817 C818 1.387 . S
C817 H820 0.950 . S
C818 C817 1.387 . S
C818 C821 1.387 . S
H819 C815 0.950 . S
H820 C817 0.950 . S
C821 C812 1.390 . S
C821 H814 0.950 . S
C821 C818 1.387 . S
C822 C823 1.387 . S
C822 H826 0.950 . S
C822 C831 1.390 . S
C823 C822 1.387 . S
C823 C825 1.387 . S
H824 C831 0.950 . S
C825 C823 1.387 . S
C825 C827 1.390 . S
C825 H829 0.950 . S
H826 C822 0.950 . S
C827 C825 1.390 . S
C827 C828 1.387 . S
C827 H830 0.950 . S
C828 C827 1.387 . S
C828 C831 1.387 . S
H829 C825 0.950 . S
H830 C827 0.950 . S
C831 C822 1.390 . S
C831 H824 0.950 . S
C831 C828 1.387 . S
C353 C10 1.410 . S
C358 C120 1.410 . S
C363 C30 1.409 . S
C368 C150 1.409 . S
C373 C172 1.410 . S
C378 C52 1.410 . S
C383 C98 1.409 . S
C388 C76 1.409 . S
C393 C194 1.402 . S
C398 C296 1.403 . S
C403 C206 1.403 . S
C408 C316 1.402 . S
C413 C238 1.404 . S
C418 C340 1.403 . S
C423 C252 1.403 . S
C428 C272 1.403 . S
C433 C7 1.089 . S
C438 C191 1.080 . S
C443 C37 1.085 . S
C448 C205 1.074 . S
C453 C235 1.080 . S
C458 C59 1.090 . S
C463 C263 1.075 . S
C468 C73 1.085 . S
C473 C95 1.090 . S
C478 C271 1.080 . S
C483 C117 1.087 . S
C488 C307 1.077 . S
C493 C315 1.080 . S
C498 C153 1.090 . S
C503 C351 1.077 . S
C508 C175 1.087 . S
C513 C18 1.601 . S
C518 C40 1.567 . S
C523 C32 1.602 . S
C528 C62 1.567 . S
C533 C74 1.567 . S
C538 C54 1.602 . S
C543 C84 1.601 . S
C548 C8 1.568 . S
C553 C106 1.601 . S
C558 C164 1.568 . S
C563 C128 1.601 . S
C568 C96 1.568 . S
C573 C140 1.601 . S
C578 C118 1.568 . S
C583 C162 1.601 . S
C588 C142 1.568 . S
C593 C186 1.592 . S
C598 C208 1.566 . S
C603 C228 1.566 . S
C608 C216 1.591 . S
C613 C260 1.566 . S
C618 C230 1.592 . S
C623 C184 1.566 . S
C628 C250 1.591 . S
C633 C282 1.592 . S
C638 C348 1.566 . S
C643 C294 1.592 . S
C648 C274 1.566 . S
C653 C304 1.566 . S
C658 C326 1.592 . S
C663 C338 1.591 . S
C668 C318 1.566 . S
C673 C15 1.632 . S
C678 C213 1.684 1_554 S
C683 C241 1.685 1_554 S
C688 C43 1.632 . S
C693 C65 1.634 . S
C698 C249 1.684 1_554 S
C703 C197 1.685 1_554 S
C708 C81 1.631 . S
C713 C103 1.632 . S
C718 C337 1.685 . S
C723 C279 1.685 . S
C728 C125 1.632 . S
C733 C293 1.684 . S
C738 C139 1.633 . S
C743 C161 1.631 . S
C748 C323 1.685 . S
C753 C29 1.686 1_556 S
C758 C183 1.632 . S
C763 C219 1.630 . S
C768 C51 1.686 1_556 S
C773 C87 1.686 1_556 S
C778 C227 1.630 . S
C783 C21 1.687 1_556 S
C788 C257 1.630 . S
C793 C169 1.687 . S
C798 C285 1.632 . S
C803 C301 1.630 . S
C808 C109 1.687 . S
C813 C329 1.631 . S
C818 C131 1.686 . S
C823 C345 1.633 . S
C828 C147 1.686 . S
