# Generated by pormake.
# Topology ilc, (8)-cn, num edge types: 1
# Building blocks:
#     Node 0, Type 0, BuildingBlock: XADDAJ01_clean_sbu_3, # of connection points: 8
#     Node 1, Type 0, BuildingBlock: XADDAJ01_clean_sbu_3, # of connection points: 8
#     Node 2, Type 0, BuildingBlock: XADDAJ01_clean_sbu_3, # of connection points: 8
#     Edge 3, Type (0, 0), BuildingBlock: XIVTED_clean_linker_0, # of connection points: 2
#     Edge 4, Type (0, 0), BuildingBlock: XIVTED_clean_linker_0, # of connection points: 2
#     Edge 5, Type (0, 0), BuildingBlock: XIVTED_clean_linker_0, # of connection points: 2
#     Edge 6, Type (0, 0), BuildingBlock: XIVTED_clean_linker_0, # of connection points: 2
#     Edge 7, Type (0, 0), BuildingBlock: XIVTED_clean_linker_0, # of connection points: 2
#     Edge 8, Type (0, 0), BuildingBlock: XIVTED_clean_linker_0, # of connection points: 2
#     Edge 9, Type (0, 0), BuildingBlock: XIVTED_clean_linker_0, # of connection points: 2
#     Edge 10, Type (0, 0), BuildingBlock: XIVTED_clean_linker_0, # of connection points: 2
#     Edge 11, Type (0, 0), BuildingBlock: XIVTED_clean_linker_0, # of connection points: 2
#     Edge 12, Type (0, 0), BuildingBlock: XIVTED_clean_linker_0, # of connection points: 2
#     Edge 13, Type (0, 0), BuildingBlock: XIVTED_clean_linker_0, # of connection points: 2
#     Edge 14, Type (0, 0), BuildingBlock: XIVTED_clean_linker_0, # of connection points: 2
# Relax obj value: 0.163
# Max RMSD: 0.201
# Mean RMSD: 0.201
data_MOF--net-ilc--node1-XADDAJ01_clean_sbu_3--edge1-XIVTED_clean_linker_0
_symmetry_space_group_name_H-M    P1
_symmetry_Int_Tables_number       1
_symmetry_cell_setting            triclinic
loop_
_symmetry_equiv_pos_as_xyz
'x, y, z'
_cell_length_a     22.436235
_cell_length_b     30.82928
_cell_length_c     19.371857
_cell_angle_alpha  100.947
_cell_angle_beta   75.177173
_cell_angle_gamma 142.9414
loop_
_atom_site_label
_atom_site_type_symbol
_atom_site_fract_x
_atom_site_fract_y
_atom_site_fract_z
_atom_type_partial_charge
C0 C 0.11241 1.01135 0.15922 0.0
C1 C 1.03251 0.98653 0.21073 0.0
C2 C 0.98321 0.93668 0.26449 0.0
C3 C 1.01643 0.91334 0.26655 0.0
C4 C 0.09842 0.93983 0.21767 0.0
C5 C 0.14674 0.98902 0.16364 0.0
O6 O 0.971 0.04385 0.10827 0.0
Tb7 Tb 0.12396 0.11013 0.06164 0.0
Tb8 Tb 0.9583 0.97436 0.95685 0.0
O9 O 0.18249 0.20076 0.12522 0.0
O10 O 0.90053 0.93844 0.06831 0.0
O11 O 0.20582 0.12349 0.11824 0.0
C12 C 0.90577 1.01249 0.91876 0.0
O13 O 0.1012 1.02911 0.05303 0.0
O14 O 0.11165 0.04249 0.90669 0.0
O15 O 0.19411 0.15129 0.95199 0.0
C16 C 0.15861 0.05945 0.10027 0.0
C17 C 0.94077 0.86646 0.892 0.0
O18 O 0.99678 0.89466 0.93951 0.0
C19 C 0.90227 0.97472 0.11824 0.0
C20 C 0.18717 0.11313 0.90076 0.0
O21 O 0.9091 0.88798 0.88911 0.0
C22 C 0.91016 1.03141 0.85086 0.0
C23 C 0.97127 0.11881 0.77307 0.0
C24 C 0.96773 0.10179 0.83781 0.0
C25 C 0.85373 0.97815 0.79937 0.0
C26 C 0.85484 0.99449 0.73598 0.0
C27 C 0.91451 0.06484 0.72346 0.0
C28 C 0.15247 0.2235 0.12279 0.0
O29 O 0.09401 0.19461 0.07711 0.0
O30 O 0.84722 0.94507 0.92667 0.0
O31 O 0.99071 0.05815 0.94212 0.0
H32 H 1.01013 1.00696 0.20939 0.0
H33 H 0.98346 0.87838 0.31017 0.0
H34 H 0.21064 1.00995 0.12573 0.0
H35 H 1.01005 0.14298 0.87718 0.0
H36 H 0.80845 0.92378 0.80834 0.0
H37 H 0.91804 0.07843 0.67359 0.0
C38 C 0.87763 0.37563 0.53015 0.0
C39 C 0.7961 0.34092 0.58676 0.0
C40 C 0.78384 0.31318 0.64607 0.0
C41 C 0.85261 0.31977 0.64815 0.0
C42 C 0.93628 0.35652 0.59444 0.0
C43 C 0.9478 0.38326 0.53417 0.0
O44 O 0.7202 0.3959 0.41348 0.0
Tb45 Tb 0.86931 0.46478 0.43171 0.0
Tb46 Tb 0.65672 0.32299 0.2649 0.0
O47 O 0.89189 0.53325 0.51546 0.0
O48 O 0.58993 0.2824 0.37516 0.0
O49 O 0.96336 0.47226 0.45628 0.0
C50 C 0.61444 0.37045 0.23285 0.0
O51 O 0.80512 0.36824 0.4504 0.0
O52 O 0.80133 0.3985 0.296 0.0
O53 O 0.94588 0.50867 0.32234 0.0
C54 C 0.88841 0.40201 0.4659 0.0
C55 C 0.64347 0.2188 0.1906 0.0
O56 O 0.71138 0.25273 0.22947 0.0
C57 C 0.63852 0.32619 0.42779 0.0
C58 C 0.89013 0.46428 0.27301 0.0
O59 O 0.60673 0.23758 0.19455 0.0
C60 C 0.55628 0.3474 0.18021 0.0
C61 C 0.51215 0.37122 0.10503 0.0
C62 C 0.5608 0.39166 0.16044 0.0
C63 C 0.50217 0.28251 0.14526 0.0
C64 C 0.46147 0.26451 0.08535 0.0
C65 C 0.46402 0.30832 0.06779 0.0
C66 C 0.86767 0.55976 0.51068 0.0
O67 O 0.83153 0.54497 0.45441 0.0
O68 O 0.56143 0.32373 0.28549 0.0
O69 O 0.6997 0.39737 0.2057 0.0
H70 H 0.74319 0.33624 0.58513 0.0
H71 H 0.84106 0.29594 0.69281 0.0
H72 H 1.01061 0.40983 0.49099 0.0
H73 H 0.60266 0.44184 0.18745 0.0
H74 H 0.4983 0.24882 0.16246 0.0
H75 H 0.43661 0.29781 0.02081 0.0
C76 C 0.50986 0.70157 0.83574 0.0
C77 C 0.55142 0.75733 0.88353 0.0
C78 C 0.58857 0.76704 0.94065 0.0
C79 C 0.59035 0.72328 0.94599 0.0
C80 C 0.55278 0.66902 0.89716 0.0
C81 C 0.51027 0.65712 0.84241 0.0
O82 O 0.28069 0.66746 0.72858 0.0
Tb83 Tb 0.42356 0.74198 0.76079 0.0
Tb84 Tb 0.22454 0.61457 0.59904 0.0
O85 O 0.46573 0.81976 0.84054 0.0
O86 O 0.13464 0.56061 0.70287 0.0
O87 O 0.52056 0.74271 0.73751 0.0
C88 C 0.21779 0.6856 0.567 0.0
O89 O 0.37419 0.65952 0.8078 0.0
O90 O 0.37564 0.68024 0.6068 0.0
O91 O 0.49554 0.79118 0.65385 0.0
C92 C 0.46096 0.68832 0.78229 0.0
C93 C 0.23233 0.52425 0.51629 0.0
O94 O 0.26468 0.53604 0.57353 0.0
C95 C 0.18988 0.60282 0.75251 0.0
C96 C 0.45502 0.75072 0.5977 0.0
O97 O 0.20709 0.55022 0.51265 0.0
C98 C 0.26736 0.73647 0.51025 0.0
C99 C 0.28122 0.80771 0.45128 0.0
C100 C 0.23034 0.75634 0.50357 0.0
C101 C 0.35248 0.76583 0.46279 0.0
C102 C 0.40288 0.81666 0.41006 0.0
C103 C 0.36776 0.83821 0.40605 0.0
C104 C 0.43213 0.84091 0.84479 0.0
O105 O 0.37289 0.81377 0.80079 0.0
O106 O 0.15641 0.61842 0.54848 0.0
O107 O 0.27695 0.70919 0.60859 0.0
H108 H 0.55049 0.79105 0.87767 0.0
H109 H 0.61395 0.72722 0.99161 0.0
H110 H 0.47703 0.61342 0.80595 0.0
H111 H 0.16252 0.7319 0.53838 0.0
H112 H 0.3776 0.74764 0.46588 0.0
H113 H 0.40254 0.87435 0.36304 0.0
H114 H 0.84532 0.89981 0.68581 0.0
H115 H 0.81362 0.80475 0.33362 0.0
H116 H 0.7497 0.97109 0.65244 0.0
H117 H 0.9795 1.02084 0.33464 0.0
H118 H 0.72675 0.78465 0.45528 0.0
H119 H 0.82099 0.85277 0.56501 0.0
C120 C 0.81522 0.90294 0.65437 0.0
C121 C 0.80337 0.94198 0.67808 0.0
C122 C 0.78021 0.83554 0.42769 0.0
C123 C 0.77859 0.89051 0.53992 0.0
C124 C 0.83009 0.84737 0.35861 0.0
C125 C 0.90718 0.91575 0.32501 0.0
C126 C 0.80588 0.89187 0.46224 0.0
C127 C 0.92224 0.96782 0.35867 0.0
C128 C 0.80161 0.87624 0.58528 0.0
C129 C 0.7639 0.94405 0.63494 0.0
N130 N 0.87314 0.95514 0.42609 0.0
N131 N 0.7579 0.92213 0.56657 0.0
H132 H 0.58094 0.21286 0.65151 0.0
H133 H 0.52751 0.21534 0.06779 0.0
H134 H 0.80527 0.33916 0.78431 0.0
H135 H 0.34489 0.19116 0.97778 0.0
H136 H 0.56271 0.18617 0.95505 0.0
H137 H 0.45087 0.15339 0.7611 0.0
C138 C 0.60266 0.22804 0.70334 0.0
C139 C 0.70369 0.28032 0.70899 0.0
C140 C 0.51293 0.18573 0.96038 0.0
C141 C 0.55688 0.21108 0.8319 0.0
C142 C 0.49138 0.20193 0.02586 0.0
C143 C 0.44025 0.21291 0.03179 0.0
C144 C 0.48749 0.18396 0.90007 0.0
C145 C 0.39355 0.19105 0.97405 0.0
C146 C 0.52867 0.19354 0.7652 0.0
C147 C 0.7282 0.29795 0.77712 0.0
N148 N 0.42295 0.18168 0.90894 0.0
N149 N 0.65546 0.26316 0.83549 0.0
H150 H 0.50098 0.79983 0.99099 0.0
H151 H 0.57434 0.94915 0.34243 0.0
H152 H 0.72257 0.83939 0.03064 0.0
H153 H 0.40254 0.73107 0.33971 0.0
H154 H 0.65934 0.96828 0.21978 0.0
H155 H 0.50079 0.84417 0.10909 0.0
C156 C 0.5526 0.82021 0.02273 0.0
C157 C 0.60994 0.81359 1.001 0.0
C158 C 0.60512 0.91729 0.24748 0.0
C159 C 0.60725 0.86251 0.13637 0.0
C160 C 0.55683 0.90615 0.31705 0.0
C161 C 0.47916 0.83767 0.35046 0.0
C162 C 0.57725 0.86021 0.21294 0.0
C163 C 0.46106 0.78442 0.31603 0.0
C164 C 0.55193 0.84536 0.09035 0.0
C165 C 0.67396 0.84049 0.04588 0.0
N166 N 0.50874 0.7965 0.24838 0.0
N167 N 0.66759 0.86088 0.11264 0.0
H168 H 0.37266 0.93907 0.45076 0.0
H169 H 1.00159 0.80659 0.21969 0.0
H170 H 0.10399 0.71607 0.40735 0.0
H171 H 0.27865 1.02976 0.25456 0.0
H172 H 0.04018 0.77201 0.28425 0.0
H173 H 0.33452 0.97272 0.38399 0.0
C174 C 0.30367 0.89707 0.42914 0.0
C175 C 0.24087 0.82478 0.43479 0.0
C176 C 0.09356 0.82862 0.27674 0.0
C177 C 0.19895 0.86279 0.35577 0.0
C178 C 0.07241 0.84832 0.23881 0.0
C179 C 0.1375 0.92103 0.23162 0.0
C180 C 0.17994 0.8821 0.30825 0.0
C181 C 0.2273 0.97319 0.25835 0.0
C182 C 0.2829 0.91629 0.38991 0.0
C183 C 0.15344 0.7723 0.40488 0.0
N184 N 0.24529 0.95265 0.29648 0.0
N185 N 0.13558 0.79243 0.36579 0.0
H186 H 0.27866 0.46364 0.50786 0.0
H187 H 0.10588 0.28386 0.13034 0.0
H188 H 0.17068 0.49053 0.38909 0.0
H189 H 0.2494 0.28026 0.23627 0.0
H190 H 0.12955 0.35989 0.22414 0.0
H191 H 0.26663 0.39527 0.40971 0.0
C192 C 0.25275 0.45544 0.46102 0.0
C193 C 0.22558 0.48293 0.4568 0.0
C194 C 0.15639 0.34283 0.22672 0.0
C195 C 0.21181 0.40458 0.34388 0.0
C196 C 0.14302 0.29944 0.17306 0.0
C197 C 0.17509 0.27517 0.17561 0.0
C198 C 0.20163 0.36188 0.28378 0.0
C199 C 0.22309 0.29741 0.23221 0.0
C200 C 0.246 0.41638 0.4049 0.0
C201 C 0.1922 0.47025 0.39481 0.0
N202 N 0.23422 0.33903 0.28428 0.0
N203 N 0.18602 0.43187 0.34093 0.0
H204 H 0.58947 0.88799 0.55151 0.0
H205 H 0.76666 0.83735 0.16629 0.0
H206 H 0.45251 0.68578 0.47869 0.0
H207 H 0.87954 1.0328 0.2289 0.0
H208 H 0.65157 0.78113 0.28086 0.0
H209 H 0.69569 0.94216 0.43337 0.0
C210 C 0.58142 0.85497 0.51049 0.0
C211 C 0.5128 0.78256 0.52504 0.0
C212 C 0.70125 0.83623 0.26941 0.0
C213 C 0.63446 0.84407 0.39021 0.0
C214 C 0.76719 0.86842 0.20405 0.0
C215 C 0.83241 0.93976 0.18764 0.0
C216 C 0.7016 0.87596 0.31938 0.0
C217 C 0.8304 0.9776 0.23903 0.0
C218 C 0.64206 0.88585 0.44315 0.0
C219 C 0.50461 0.7419 0.46986 0.0
N220 N 0.7663 0.94533 0.30256 0.0
N221 N 0.56535 0.77336 0.40516 0.0
H222 H 0.98722 0.30428 0.51067 0.0
H223 H 0.11376 0.20356 0.6558 0.0
H224 H 1.03596 0.41709 0.70516 0.0
H225 H 0.95188 0.19361 0.84498 0.0
H226 H 0.15224 0.291 0.6017 0.0
H227 H 0.04374 0.27327 0.55415 0.0
C228 C 1.01418 0.32527 0.56102 0.0
C229 C 1.0063 0.36278 0.60462 0.0
C230 C 0.11061 0.27114 0.65572 0.0
C231 C 0.06763 0.32571 0.65593 0.0
C232 C 0.08989 0.22214 0.6871 0.0
C233 C 1.0284 0.19064 0.75468 0.0
C234 C 0.07041 0.28934 0.69255 0.0
C235 C 0.99934 0.21647 0.79287 0.0
C236 C 0.04592 0.30725 0.5862 0.0
C237 C 0.0406 0.38771 0.67017 0.0
N238 N 1.01922 0.26352 0.76077 0.0
N239 N 0.06636 0.36664 0.69494 0.0
H240 H 0.94998 0.60859 0.6313 0.0
H241 H 0.83869 0.8041 0.7801 0.0
H242 H 0.80775 0.61129 0.52197 0.0
H243 H 0.9995 0.81418 0.88197 0.0
H244 H 0.81836 0.72783 0.68861 0.0
H245 H 0.96269 0.67963 0.72626 0.0
C246 C 0.92131 0.624 0.62723 0.0
C247 C 0.8776 0.60375 0.56848 0.0
C248 C 0.85793 0.74661 0.73106 0.0
C249 C 0.8916 0.68503 0.6773 0.0
C250 C 0.86939 0.79009 0.78347 0.0
C251 C 0.92147 0.81609 0.83871 0.0
C252 C 0.8988 0.72884 0.73374 0.0
C253 C 0.95916 0.79574 0.84032 0.0
C254 C 0.92858 0.6646 0.68152 0.0
C255 C 0.84211 0.62561 0.56612 0.0
N256 N 0.94739 0.75365 0.78861 0.0
N257 N 0.84976 0.66486 0.61964 0.0
H258 H 0.49059 0.18713 0.47344 0.0
H259 H 0.36511 0.25856 0.86914 0.0
H260 H 0.67678 0.40054 0.55146 0.0
H261 H 0.18923 0.04868 0.78456 0.0
H262 H 0.4898 0.31371 0.75846 0.0
H263 H 0.39133 0.13761 0.59295 0.0
C264 C 0.51145 0.22371 0.51605 0.0
C265 C 0.59124 0.29796 0.50228 0.0
C266 C 0.424 0.25561 0.7645 0.0
C267 C 0.47646 0.2415 0.63943 0.0
C268 C 0.35268 0.22412 0.8275 0.0
C269 C 0.26598 0.14884 0.83599 0.0
C270 C 0.40794 0.21141 0.70964 0.0
C271 C 0.25438 0.1069 0.78055 0.0
C272 C 0.45443 0.19539 0.58436 0.0
C273 C 0.61556 0.3429 0.55973 0.0
N274 N 0.32392 0.1387 0.71982 0.0
N275 N 0.55741 0.31388 0.62571 0.0
H276 H 0.67742 0.51817 0.0815 0.0
H277 H 0.39104 0.52174 0.91009 0.0
H278 H 0.3632 0.32966 0.06648 0.0
H279 H 0.70697 0.70936 0.91998 0.0
H280 H 0.38093 0.44879 0.9614 0.0
H281 H 0.69019 0.58945 0.02233 0.0
C282 C 0.61067 0.49201 0.06704 0.0
C283 C 0.51891 0.41777 0.07921 0.0
C284 C 0.45286 0.50577 0.95139 0.0
C285 C 0.53334 0.49852 1.00985 0.0
C286 C 0.45879 0.54711 0.92113 0.0
C287 C 0.54996 0.62156 0.91074 0.0
C288 C 0.53871 0.53926 0.97144 0.0
C289 C 0.63525 0.65206 0.92725 0.0
C290 C 0.61821 0.53249 0.03238 0.0
C291 C 0.43531 0.3866 0.05806 0.0
N292 N 0.6274 0.61101 0.95738 0.0
N293 N 0.44451 0.4269 0.02431 0.0
H294 H 0.36692 0.88959 0.87091 0.0
H295 H 0.71864 0.17696 0.15933 0.0
H296 H 0.56198 0.915 0.93943 0.0
H297 H 0.49174 0.128 0.11225 0.0
H298 H 0.66574 0.08367 0.0774 0.0
H299 H 0.41577 0.9794 0.95642 0.0
C300 C 0.42 0.91396 0.90399 0.0
C301 C 0.46049 0.89466 0.89772 0.0
C302 C 0.62758 0.09338 0.0849 0.0
C303 C 0.51711 0.99813 0.99611 0.0
C304 C 0.65774 0.14672 0.13173 0.0
C305 C 0.61047 0.16117 0.14211 0.0
C306 C 0.54964 0.05412 0.04781 0.0
C307 C 0.53172 0.11986 0.10498 0.0
C308 C 0.44777 0.96528 0.95299 0.0
C309 C 0.52887 0.92818 0.94228 0.0
N310 N 0.50413 0.06854 0.05937 0.0
N311 N 0.55524 0.9784 0.98936 0.0
H312 H 1.00972 0.46835 0.8098 0.0
H313 H 0.06482 0.59955 0.21458 0.0
H314 H 0.27466 0.68577 0.86939 0.0
H315 H 0.80862 0.37865 0.15666 0.0
H316 H 0.14007 0.63289 0.08814 0.0
H317 H 0.93396 0.43445 0.9361 0.0
C318 C 0.05273 0.50883 0.8495 0.0
C319 C 0.14933 0.58005 0.82892 0.0
C320 C 0.06703 0.57716 0.10296 0.0
C321 C 0.06199 0.54186 0.97392 0.0
C322 C 1.02367 0.55813 0.17521 0.0
C323 C 0.92975 0.48619 0.19634 0.0
C324 C 1.01638 0.52386 0.05118 0.0
C325 C 0.88047 0.43481 0.14289 0.0
C326 C 1.00908 0.4895 0.92169 0.0
C327 C 0.20074 0.63027 0.88276 0.0
N328 N 0.92441 0.45458 0.07288 0.0
N329 N 0.15637 0.61035 0.95268 0.0
loop_
_geom_bond_atom_site_label_1
_geom_bond_atom_site_label_2
_geom_bond_distance
_geom_bond_site_symmetry_2
_ccdc_geom_bond_type
C0 C1 1.386 . S
C0 C5 1.384 1_545 S
C0 C16 1.497 . S
C1 C0 1.386 . S
C1 C2 1.393 1_545 S
C1 H32 0.932 . S
C2 C1 1.393 1_565 S
C2 C3 1.387 . S
C3 C2 1.387 . S
C3 C4 1.392 . S
C3 H33 0.930 . S
C4 C3 1.392 . S
C4 C5 1.402 . S
C5 C0 1.384 1_565 S
C5 C4 1.402 . S
C5 H34 0.930 . S
O6 Tb7 2.288 1_655 S
O6 C19 1.257 1_545 S
Tb7 O6 2.288 1_455 S
Tb7 O9 2.303 . S
Tb7 O11 2.430 . S
Tb7 O13 2.459 . S
Tb7 O15 2.301 1_554 S
Tb7 C16 2.808 . S
Tb8 O10 2.301 1_556 S
Tb8 C12 2.808 . S
Tb8 O14 2.288 1_655 S
Tb8 O21 2.303 . S
Tb8 O30 2.430 . S
Tb8 O31 2.459 . S
O9 Tb7 2.303 . S
O9 C28 1.255 . S
O10 Tb8 2.301 1_554 S
O10 C19 1.237 . S
O11 Tb7 2.430 . S
O11 C16 1.248 . S
C12 Tb8 2.808 . S
C12 C22 1.497 . S
C12 O30 1.248 . S
C12 O31 1.260 . S
O13 Tb7 2.459 . S
O13 C16 1.260 . S
O14 Tb8 2.288 1_455 S
O14 C20 1.257 1_565 S
O15 Tb7 2.301 1_556 S
O15 C20 1.237 . S
C16 C0 1.497 . S
C16 Tb7 2.808 . S
C16 O11 1.248 . S
C16 O13 1.260 . S
C17 O18 1.255 . S
C17 O21 1.255 . S
O18 C17 1.255 . S
C19 O6 1.257 1_565 S
C19 O10 1.237 . S
C20 O14 1.257 1_545 S
C20 O15 1.237 . S
O21 Tb8 2.303 . S
O21 C17 1.255 . S
C22 C12 1.497 . S
C22 C24 1.384 1_565 S
C22 C25 1.386 . S
C23 C24 1.402 . S
C23 C27 1.392 . S
C24 C22 1.384 1_545 S
C24 C23 1.402 . S
C24 H35 0.930 . S
C25 C22 1.386 . S
C25 C26 1.393 1_565 S
C25 H36 0.932 . S
C26 C25 1.393 1_545 S
C26 C27 1.387 . S
C27 C23 1.392 . S
C27 C26 1.387 . S
C27 H37 0.930 . S
C28 O9 1.255 . S
C28 O29 1.255 . S
O29 C28 1.255 . S
O30 Tb8 2.430 . S
O30 C12 1.248 . S
O31 Tb8 2.459 . S
O31 C12 1.260 . S
H32 C1 0.932 . S
H33 C3 0.930 . S
H34 C5 0.930 . S
H35 C24 0.930 . S
H36 C25 0.932 . S
H37 C27 0.930 . S
C38 C39 1.386 . S
C38 C43 1.384 . S
C38 C54 1.497 . S
C39 C38 1.386 . S
C39 C40 1.393 . S
C39 H70 0.932 . S
C40 C39 1.393 . S
C40 C41 1.387 . S
C41 C40 1.387 . S
C41 C42 1.392 . S
C41 H71 0.930 . S
C42 C41 1.392 . S
C42 C43 1.402 . S
C43 C38 1.384 . S
C43 C42 1.402 . S
C43 H72 0.930 . S
O44 Tb45 2.288 . S
O44 C57 1.257 . S
Tb45 O44 2.288 . S
Tb45 O47 2.303 . S
Tb45 O49 2.430 . S
Tb45 O51 2.459 . S
Tb45 O53 2.301 . S
Tb45 C54 2.808 . S
Tb46 O48 2.301 . S
Tb46 C50 2.808 . S
Tb46 O52 2.288 . S
Tb46 O59 2.303 . S
Tb46 O68 2.430 . S
Tb46 O69 2.459 . S
O47 Tb45 2.303 . S
O47 C66 1.255 . S
O48 Tb46 2.301 . S
O48 C57 1.237 . S
O49 Tb45 2.430 . S
O49 C54 1.248 . S
C50 Tb46 2.808 . S
C50 C60 1.497 . S
C50 O68 1.248 . S
C50 O69 1.260 . S
O51 Tb45 2.459 . S
O51 C54 1.260 . S
O52 Tb46 2.288 . S
O52 C58 1.257 . S
O53 Tb45 2.301 . S
O53 C58 1.237 . S
C54 C38 1.497 . S
C54 Tb45 2.808 . S
C54 O49 1.248 . S
C54 O51 1.260 . S
C55 O56 1.255 . S
C55 O59 1.255 . S
O56 C55 1.255 . S
C57 O44 1.257 . S
C57 O48 1.237 . S
C58 O52 1.257 . S
C58 O53 1.237 . S
O59 Tb46 2.303 . S
O59 C55 1.255 . S
C60 C50 1.497 . S
C60 C62 1.384 . S
C60 C63 1.386 . S
C61 C62 1.402 . S
C61 C65 1.392 . S
C62 C60 1.384 . S
C62 C61 1.402 . S
C62 H73 0.930 . S
C63 C60 1.386 . S
C63 C64 1.393 . S
C63 H74 0.932 . S
C64 C63 1.393 . S
C64 C65 1.387 . S
C65 C61 1.392 . S
C65 C64 1.387 . S
C65 H75 0.930 . S
C66 O47 1.255 . S
C66 O67 1.255 . S
O67 C66 1.255 . S
O68 Tb46 2.430 . S
O68 C50 1.248 . S
O69 Tb46 2.459 . S
O69 C50 1.260 . S
H70 C39 0.932 . S
H71 C41 0.930 . S
H72 C43 0.930 . S
H73 C62 0.930 . S
H74 C63 0.932 . S
H75 C65 0.930 . S
C76 C77 1.386 . S
C76 C81 1.384 . S
C76 C92 1.497 . S
C77 C76 1.386 . S
C77 C78 1.393 . S
C77 H108 0.932 . S
C78 C77 1.393 . S
C78 C79 1.387 . S
C79 C78 1.387 . S
C79 C80 1.392 . S
C79 H109 0.930 . S
C80 C79 1.392 . S
C80 C81 1.402 . S
C81 C76 1.384 . S
C81 C80 1.402 . S
C81 H110 0.930 . S
O82 Tb83 2.288 . S
O82 C95 1.257 . S
Tb83 O82 2.288 . S
Tb83 O85 2.303 . S
Tb83 O87 2.430 . S
Tb83 O89 2.459 . S
Tb83 O91 2.301 . S
Tb83 C92 2.808 . S
Tb84 O86 2.301 . S
Tb84 C88 2.808 . S
Tb84 O90 2.288 . S
Tb84 O97 2.303 . S
Tb84 O106 2.430 . S
Tb84 O107 2.459 . S
O85 Tb83 2.303 . S
O85 C104 1.255 . S
O86 Tb84 2.301 . S
O86 C95 1.237 . S
O87 Tb83 2.430 . S
O87 C92 1.248 . S
C88 Tb84 2.808 . S
C88 C98 1.497 . S
C88 O106 1.248 . S
C88 O107 1.260 . S
O89 Tb83 2.459 . S
O89 C92 1.260 . S
O90 Tb84 2.288 . S
O90 C96 1.257 . S
O91 Tb83 2.301 . S
O91 C96 1.237 . S
C92 C76 1.497 . S
C92 Tb83 2.808 . S
C92 O87 1.248 . S
C92 O89 1.260 . S
C93 O94 1.255 . S
C93 O97 1.255 . S
O94 C93 1.255 . S
C95 O82 1.257 . S
C95 O86 1.237 . S
C96 O90 1.257 . S
C96 O91 1.237 . S
O97 Tb84 2.303 . S
O97 C93 1.255 . S
C98 C88 1.497 . S
C98 C100 1.384 . S
C98 C101 1.386 . S
C99 C100 1.402 . S
C99 C103 1.392 . S
C100 C98 1.384 . S
C100 C99 1.402 . S
C100 H111 0.930 . S
C101 C98 1.386 . S
C101 C102 1.393 . S
C101 H112 0.932 . S
C102 C101 1.393 . S
C102 C103 1.387 . S
C103 C99 1.392 . S
C103 C102 1.387 . S
C103 H113 0.930 . S
C104 O85 1.255 . S
C104 O105 1.255 . S
O105 C104 1.255 . S
O106 Tb84 2.430 . S
O106 C88 1.248 . S
O107 Tb84 2.459 . S
O107 C88 1.260 . S
H108 C77 0.932 . S
H109 C79 0.930 . S
H110 C81 0.930 . S
H111 C100 0.930 . S
H112 C101 0.932 . S
H113 C103 0.930 . S
H114 C120 0.930 1_455 S
H115 C124 0.930 1_655 S
H116 C129 0.929 . S
H117 C127 0.929 . S
H118 C122 0.929 . S
H119 C128 0.929 . S
C120 H114 0.930 1_655 S
C120 C121 1.367 . S
C120 C128 1.378 1_655 S
C121 C120 1.367 . S
C121 C129 1.433 1_545 S
C122 H118 0.929 . S
C122 C124 1.378 1_655 S
C122 C126 1.350 1_655 S
C123 C126 1.463 1_645 S
C123 C128 1.350 1_655 S
C123 N131 1.427 1_545 S
C124 H115 0.930 1_455 S
C124 C122 1.378 1_455 S
C124 C125 1.367 . S
C125 C124 1.367 . S
C125 C127 1.433 1_565 S
C126 C122 1.350 1_455 S
C126 C123 1.463 1_465 S
C126 N130 1.427 1_565 S
C127 H117 0.929 . S
C127 C125 1.433 1_545 S
C127 N130 1.384 . S
C128 H119 0.929 . S
C128 C120 1.378 1_455 S
C128 C123 1.350 1_455 S
C129 H116 0.929 . S
C129 C121 1.433 1_565 S
C129 N131 1.384 . S
N130 C126 1.427 1_545 S
N130 C127 1.384 . S
N131 C123 1.427 1_565 S
N131 C129 1.384 . S
H132 C138 0.930 . S
H133 C142 0.930 1_554 S
H134 C147 0.929 . S
H135 C145 0.929 . S
H136 C140 0.929 . S
H137 C146 0.929 . S
C138 H132 0.930 . S
C138 C139 1.367 . S
C138 C146 1.378 . S
C139 C138 1.367 . S
C139 C147 1.433 . S
C140 H136 0.929 . S
C140 C142 1.378 . S
C140 C144 1.350 . S
C141 C144 1.463 . S
C141 C146 1.350 . S
C141 N149 1.427 . S
C142 H133 0.930 1_556 S
C142 C140 1.378 . S
C142 C143 1.367 . S
C143 C142 1.367 . S
C143 C145 1.433 . S
C144 C140 1.350 . S
C144 C141 1.463 . S
C144 N148 1.427 . S
C145 H135 0.929 . S
C145 C143 1.433 . S
C145 N148 1.384 . S
C146 H137 0.929 . S
C146 C138 1.378 . S
C146 C141 1.350 . S
C147 H134 0.929 . S
C147 C139 1.433 . S
C147 N149 1.384 . S
N148 C144 1.427 . S
N148 C145 1.384 . S
N149 C141 1.427 . S
N149 C147 1.384 . S
H150 C156 0.930 1_556 S
H151 C160 0.930 . S
H152 C165 0.929 . S
H153 C163 0.929 . S
H154 C158 0.929 . S
H155 C164 0.929 . S
C156 H150 0.930 1_554 S
C156 C157 1.367 . S
C156 C164 1.378 . S
C157 C156 1.367 . S
C157 C165 1.433 . S
C158 H154 0.929 . S
C158 C160 1.378 . S
C158 C162 1.350 . S
C159 C162 1.463 . S
C159 C164 1.350 . S
C159 N167 1.427 . S
C160 H151 0.930 . S
C160 C158 1.378 . S
C160 C161 1.367 . S
C161 C160 1.367 . S
C161 C163 1.433 . S
C162 C158 1.350 . S
C162 C159 1.463 . S
C162 N166 1.427 . S
C163 H153 0.929 . S
C163 C161 1.433 . S
C163 N166 1.384 . S
C164 H155 0.929 . S
C164 C156 1.378 . S
C164 C159 1.350 . S
C165 H152 0.929 . S
C165 C157 1.433 . S
C165 N167 1.384 . S
N166 C162 1.427 . S
N166 C163 1.384 . S
N167 C159 1.427 . S
N167 C165 1.384 . S
H168 C174 0.930 . S
H169 C178 0.930 1_655 S
H170 C183 0.929 . S
H171 C181 0.929 . S
H172 C176 0.929 . S
H173 C182 0.929 . S
C174 H168 0.930 . S
C174 C175 1.367 . S
C174 C182 1.378 . S
C175 C174 1.367 . S
C175 C183 1.433 . S
C176 H172 0.929 . S
C176 C178 1.378 . S
C176 C180 1.350 . S
C177 C180 1.463 . S
C177 C182 1.350 . S
C177 N185 1.427 . S
C178 H169 0.930 1_455 S
C178 C176 1.378 . S
C178 C179 1.367 . S
C179 C178 1.367 . S
C179 C181 1.433 . S
C180 C176 1.350 . S
C180 C177 1.463 . S
C180 N184 1.427 . S
C181 H171 0.929 . S
C181 C179 1.433 . S
C181 N184 1.384 . S
C182 H173 0.929 . S
C182 C174 1.378 . S
C182 C177 1.350 . S
C183 H170 0.929 . S
C183 C175 1.433 . S
C183 N185 1.384 . S
N184 C180 1.427 . S
N184 C181 1.384 . S
N185 C177 1.427 . S
N185 C183 1.384 . S
H186 C192 0.930 . S
H187 C196 0.930 1_655 S
H188 C201 0.929 . S
H189 C199 0.929 . S
H190 C194 0.929 . S
H191 C200 0.929 . S
C192 H186 0.930 . S
C192 C193 1.367 . S
C192 C200 1.378 . S
C193 C192 1.367 . S
C193 C201 1.433 . S
C194 H190 0.929 . S
C194 C196 1.378 . S
C194 C198 1.350 . S
C195 C198 1.463 . S
C195 C200 1.350 . S
C195 N203 1.427 . S
C196 H187 0.930 1_455 S
C196 C194 1.378 . S
C196 C197 1.367 . S
C197 C196 1.367 . S
C197 C199 1.433 . S
C198 C194 1.350 . S
C198 C195 1.463 . S
C198 N202 1.427 . S
C199 H189 0.929 . S
C199 C197 1.433 . S
C199 N202 1.384 . S
C200 H191 0.929 . S
C200 C192 1.378 . S
C200 C195 1.350 . S
C201 H188 0.929 . S
C201 C193 1.433 . S
C201 N203 1.384 . S
N202 C198 1.427 . S
N202 C199 1.384 . S
N203 C195 1.427 . S
N203 C201 1.384 . S
H204 C210 0.930 . S
H205 C214 0.930 . S
H206 C219 0.929 . S
H207 C217 0.929 . S
H208 C212 0.929 . S
H209 C218 0.929 . S
C210 H204 0.930 . S
C210 C211 1.367 . S
C210 C218 1.378 . S
C211 C210 1.367 . S
C211 C219 1.433 . S
C212 H208 0.929 . S
C212 C214 1.378 . S
C212 C216 1.350 . S
C213 C216 1.463 . S
C213 C218 1.350 . S
C213 N221 1.427 . S
C214 H205 0.930 . S
C214 C212 1.378 . S
C214 C215 1.367 . S
C215 C214 1.367 . S
C215 C217 1.433 . S
C216 C212 1.350 . S
C216 C213 1.463 . S
C216 N220 1.427 . S
C217 H207 0.929 . S
C217 C215 1.433 . S
C217 N220 1.384 . S
C218 H209 0.929 . S
C218 C210 1.378 . S
C218 C213 1.350 . S
C219 H206 0.929 . S
C219 C211 1.433 . S
C219 N221 1.384 . S
N220 C216 1.427 . S
N220 C217 1.384 . S
N221 C213 1.427 . S
N221 C219 1.384 . S
H222 C228 0.930 . S
H223 C232 0.930 . S
H224 C237 0.929 . S
H225 C235 0.929 . S
H226 C230 0.929 . S
H227 C236 0.929 . S
C228 H222 0.930 . S
C228 C229 1.367 . S
C228 C236 1.378 . S
C229 C228 1.367 . S
C229 C237 1.433 . S
C230 H226 0.929 . S
C230 C232 1.378 . S
C230 C234 1.350 . S
C231 C234 1.463 . S
C231 C236 1.350 . S
C231 N239 1.427 . S
C232 H223 0.930 . S
C232 C230 1.378 . S
C232 C233 1.367 . S
C233 C232 1.367 . S
C233 C235 1.433 . S
C234 C230 1.350 . S
C234 C231 1.463 . S
C234 N238 1.427 . S
C235 H225 0.929 . S
C235 C233 1.433 . S
C235 N238 1.384 . S
C236 H227 0.929 . S
C236 C228 1.378 . S
C236 C231 1.350 . S
C237 H224 0.929 . S
C237 C229 1.433 . S
C237 N239 1.384 . S
N238 C234 1.427 . S
N238 C235 1.384 . S
N239 C231 1.427 . S
N239 C237 1.384 . S
H240 C246 0.930 . S
H241 C250 0.930 . S
H242 C255 0.929 . S
H243 C253 0.929 1_455 S
H244 C248 0.929 . S
H245 C254 0.929 . S
C246 H240 0.930 . S
C246 C247 1.367 . S
C246 C254 1.378 . S
C247 C246 1.367 . S
C247 C255 1.433 . S
C248 H244 0.929 . S
C248 C250 1.378 . S
C248 C252 1.350 . S
C249 C252 1.463 . S
C249 C254 1.350 . S
C249 N257 1.427 . S
C250 H241 0.930 . S
C250 C248 1.378 . S
C250 C251 1.367 . S
C251 C250 1.367 . S
C251 C253 1.433 . S
C252 C248 1.350 . S
C252 C249 1.463 . S
C252 N256 1.427 . S
C253 H243 0.929 1_655 S
C253 C251 1.433 . S
C253 N256 1.384 . S
C254 H245 0.929 . S
C254 C246 1.378 . S
C254 C249 1.350 . S
C255 H242 0.929 . S
C255 C247 1.433 . S
C255 N257 1.384 . S
N256 C252 1.427 . S
N256 C253 1.384 . S
N257 C249 1.427 . S
N257 C255 1.384 . S
H258 C264 0.930 . S
H259 C268 0.930 . S
H260 C273 0.929 . S
H261 C271 0.929 . S
H262 C266 0.929 . S
H263 C272 0.929 . S
C264 H258 0.930 . S
C264 C265 1.367 . S
C264 C272 1.378 . S
C265 C264 1.367 . S
C265 C273 1.433 . S
C266 H262 0.929 . S
C266 C268 1.378 . S
C266 C270 1.350 . S
C267 C270 1.463 . S
C267 C272 1.350 . S
C267 N275 1.427 . S
C268 H259 0.930 . S
C268 C266 1.378 . S
C268 C269 1.367 . S
C269 C268 1.367 . S
C269 C271 1.433 . S
C270 C266 1.350 . S
C270 C267 1.463 . S
C270 N274 1.427 . S
C271 H261 0.929 . S
C271 C269 1.433 . S
C271 N274 1.384 . S
C272 H263 0.929 . S
C272 C264 1.378 . S
C272 C267 1.350 . S
C273 H260 0.929 . S
C273 C265 1.433 . S
C273 N275 1.384 . S
N274 C270 1.427 . S
N274 C271 1.384 . S
N275 C267 1.427 . S
N275 C273 1.384 . S
H276 C282 0.930 . S
H277 C286 0.930 . S
H278 C291 0.929 . S
H279 C289 0.929 . S
H280 C284 0.929 . S
H281 C290 0.929 . S
C282 H276 0.930 . S
C282 C283 1.367 . S
C282 C290 1.378 1_554 S
C283 C282 1.367 . S
C283 C291 1.433 . S
C284 H280 0.929 . S
C284 C286 1.378 1_554 S
C284 C288 1.350 1_554 S
C285 C288 1.463 1_554 S
C285 C290 1.350 1_554 S
C285 N293 1.427 . S
C286 H277 0.930 . S
C286 C284 1.378 1_556 S
C286 C287 1.367 . S
C287 C286 1.367 . S
C287 C289 1.433 . S
C288 C284 1.350 1_556 S
C288 C285 1.463 1_556 S
C288 N292 1.427 . S
C289 H279 0.929 . S
C289 C287 1.433 . S
C289 N292 1.384 . S
C290 H281 0.929 . S
C290 C282 1.378 1_556 S
C290 C285 1.350 1_556 S
C291 H278 0.929 . S
C291 C283 1.433 . S
C291 N293 1.384 . S
N292 C288 1.427 . S
N292 C289 1.384 . S
N293 C285 1.427 . S
N293 C291 1.384 . S
H294 C300 0.930 . S
H295 C304 0.930 . S
H296 C309 0.929 . S
H297 C307 0.929 . S
H298 C302 0.929 1_556 S
H299 C308 0.929 1_554 S
C300 H294 0.930 . S
C300 C301 1.367 . S
C300 C308 1.378 . S
C301 C300 1.367 . S
C301 C309 1.433 . S
C302 H298 0.929 1_554 S
C302 C304 1.378 . S
C302 C306 1.350 . S
C303 C306 1.463 1_566 S
C303 C308 1.350 . S
C303 N311 1.427 . S
C304 H295 0.930 . S
C304 C302 1.378 . S
C304 C305 1.367 . S
C305 C304 1.367 . S
C305 C307 1.433 . S
C306 C302 1.350 . S
C306 C303 1.463 1_544 S
C306 N310 1.427 . S
C307 H297 0.929 . S
C307 C305 1.433 . S
C307 N310 1.384 . S
C308 H299 0.929 1_556 S
C308 C300 1.378 . S
C308 C303 1.350 . S
C309 H296 0.929 . S
C309 C301 1.433 . S
C309 N311 1.384 . S
N310 C306 1.427 . S
N310 C307 1.384 . S
N311 C303 1.427 . S
N311 C309 1.384 . S
H312 C318 0.930 . S
H313 C322 0.930 . S
H314 C327 0.929 . S
H315 C325 0.929 . S
H316 C320 0.929 . S
H317 C326 0.929 . S
C318 H312 0.930 . S
C318 C319 1.367 . S
C318 C326 1.378 . S
C319 C318 1.367 . S
C319 C327 1.433 . S
C320 H316 0.929 . S
C320 C322 1.378 . S
C320 C324 1.350 . S
C321 C324 1.463 1_456 S
C321 C326 1.350 . S
C321 N329 1.427 1_455 S
C322 H313 0.930 . S
C322 C320 1.378 . S
C322 C323 1.367 . S
C323 C322 1.367 . S
C323 C325 1.433 . S
C324 C320 1.350 . S
C324 C321 1.463 1_654 S
C324 N328 1.427 1_655 S
C325 H315 0.929 . S
C325 C323 1.433 . S
C325 N328 1.384 1_655 S
C326 H317 0.929 . S
C326 C318 1.378 . S
C326 C321 1.350 . S
C327 H314 0.929 . S
C327 C319 1.433 . S
C327 N329 1.384 1_455 S
N328 C324 1.427 1_455 S
N328 C325 1.384 1_455 S
N329 C321 1.427 1_655 S
N329 C327 1.384 1_655 S
C121 C26 0.738 . S
C125 C2 0.738 . S
C139 C40 0.730 . S
C143 C64 0.730 1_556 S
C157 C78 0.730 1_554 S
C161 C102 0.730 . S
C175 C99 2.416 . S
C179 C4 2.416 . S
C193 C93 1.318 . S
C197 C28 1.316 . S
C211 C96 1.585 . S
C215 C19 1.584 . S
C229 C42 2.406 . S
C233 C23 2.406 . S
C247 C66 1.299 . S
C251 C17 1.301 . S
C265 C57 1.584 . S
C269 C20 1.585 . S
C283 C61 2.405 . S
C287 C80 2.405 . S
C301 C104 1.319 . S
C305 C55 1.319 . S
C319 C95 1.585 . S
C323 C58 1.585 . S
