# Generated by pormake.
# Topology vmb, (5)-cn, num edge types: 1
# Building blocks:
#     Node 0, Type 0, BuildingBlock: BEQFEK_clean_sbu_0, # of connection points: 5
#     Node 1, Type 0, BuildingBlock: BEQFEK_clean_sbu_0, # of connection points: 5
#     Node 2, Type 0, BuildingBlock: BEQFEK_clean_sbu_0, # of connection points: 5
#     Node 3, Type 0, BuildingBlock: BEQFEK_clean_sbu_0, # of connection points: 5
#     Node 4, Type 0, BuildingBlock: BEQFEK_clean_sbu_0, # of connection points: 5
#     Node 5, Type 0, BuildingBlock: BEQFEK_clean_sbu_0, # of connection points: 5
#     Node 6, Type 0, BuildingBlock: BEQFEK_clean_sbu_0, # of connection points: 5
#     Node 7, Type 0, BuildingBlock: BEQFEK_clean_sbu_0, # of connection points: 5
#     Edge 8, Type (0, 0), BuildingBlock: AJUNOK_clean_linker_0, # of connection points: 2
#     Edge 9, Type (0, 0), BuildingBlock: AJUNOK_clean_linker_0, # of connection points: 2
#     Edge 10, Type (0, 0), BuildingBlock: AJUNOK_clean_linker_0, # of connection points: 2
#     Edge 11, Type (0, 0), BuildingBlock: AJUNOK_clean_linker_0, # of connection points: 2
#     Edge 12, Type (0, 0), BuildingBlock: AJUNOK_clean_linker_0, # of connection points: 2
#     Edge 13, Type (0, 0), BuildingBlock: AJUNOK_clean_linker_0, # of connection points: 2
#     Edge 14, Type (0, 0), BuildingBlock: AJUNOK_clean_linker_0, # of connection points: 2
#     Edge 15, Type (0, 0), BuildingBlock: AJUNOK_clean_linker_0, # of connection points: 2
#     Edge 16, Type (0, 0), BuildingBlock: AJUNOK_clean_linker_0, # of connection points: 2
#     Edge 17, Type (0, 0), BuildingBlock: AJUNOK_clean_linker_0, # of connection points: 2
#     Edge 18, Type (0, 0), BuildingBlock: AJUNOK_clean_linker_0, # of connection points: 2
#     Edge 19, Type (0, 0), BuildingBlock: AJUNOK_clean_linker_0, # of connection points: 2
#     Edge 20, Type (0, 0), BuildingBlock: AJUNOK_clean_linker_0, # of connection points: 2
#     Edge 21, Type (0, 0), BuildingBlock: AJUNOK_clean_linker_0, # of connection points: 2
#     Edge 22, Type (0, 0), BuildingBlock: AJUNOK_clean_linker_0, # of connection points: 2
#     Edge 23, Type (0, 0), BuildingBlock: AJUNOK_clean_linker_0, # of connection points: 2
#     Edge 24, Type (0, 0), BuildingBlock: AJUNOK_clean_linker_0, # of connection points: 2
#     Edge 25, Type (0, 0), BuildingBlock: AJUNOK_clean_linker_0, # of connection points: 2
#     Edge 26, Type (0, 0), BuildingBlock: AJUNOK_clean_linker_0, # of connection points: 2
#     Edge 27, Type (0, 0), BuildingBlock: AJUNOK_clean_linker_0, # of connection points: 2
# Relax obj value: 0.031
# Max RMSD: 0.082
# Mean RMSD: 0.082
data_MOF--net-vmb--node1-BEQFEK_clean_sbu_0--edge1-AJUNOK_clean_linker_0
_symmetry_space_group_name_H-M    P1
_symmetry_Int_Tables_number       1
_symmetry_cell_setting            triclinic
loop_
_symmetry_equiv_pos_as_xyz
'x, y, z'
_cell_length_a     32.535194
_cell_length_b     29.41602
_cell_length_c     22.144979
_cell_angle_alpha  90.046232
_cell_angle_beta   111.84311
_cell_angle_gamma 89.962771
loop_
_atom_site_label
_atom_site_type_symbol
_atom_site_fract_x
_atom_site_fract_y
_atom_site_fract_z
_atom_type_partial_charge
Co0 Co 0.19083 0.07521 0.37486 0.0
Co1 Co 0.29392 0.05791 0.42867 0.0
C2 C 0.23831 0.01158 0.48841 0.0
O3 O 0.20431 0.0323 0.44953 0.0
O4 O 0.27622 0.01639 0.48474 0.0
C5 C 0.10501 0.03889 0.31133 0.0
O6 O 0.12835 0.00119 0.32404 0.0
C7 C 0.38371 0.01832 0.46633 0.0
C8 C 0.42171 0.07818 0.45613 0.0
C9 C 0.42582 0.03265 0.47293 0.0
N10 N 0.35592 0.05386 0.44627 0.0
N11 N 0.3789 0.08949 0.44037 0.0
C12 C 0.37038 0.9728 0.48304 0.0
H13 H 0.33538 0.96551 0.45212 0.0
H14 H 0.39211 0.94537 0.47765 0.0
H15 H 0.3732 0.97341 0.53453 0.0
C16 C 0.20203 0.05196 0.25093 0.0
N17 N 0.21822 0.05758 0.31603 0.0
N18 N 0.26073 0.04783 0.33911 0.0
C19 C 0.27264 0.0342 0.2898 0.0
C20 C 0.23585 0.03644 0.2321 0.0
C21 C 0.15602 0.0647 0.20713 0.0
H22 H 0.14492 0.09514 0.22648 0.0
H23 H 0.13315 0.03631 0.20506 0.0
H24 H 0.15439 0.07172 0.15704 0.0
O25 O 0.21266 0.13531 0.41271 0.0
O26 O 0.2847 0.12061 0.4537 0.0
H27 H 0.34129 0.0458 0.30971 0.0
H28 H 0.31811 -0.00116 0.25488 0.0
C29 C 0.31779 0.01685 0.29869 0.0
H30 H 0.32919 -0.00698 0.34032 0.0
H31 H 0.36529 0.12162 0.42551 0.0
O32 O 0.1251 0.07654 0.32933 0.0
C33 C 0.25238 0.1475 0.44526 0.0
Co34 Co 0.8242 0.07136 0.12975 0.0
Co35 Co 0.7195 0.07078 0.07781 0.0
C36 C 0.76962 0.02059 0.00914 0.0
O37 O 0.80716 0.03201 0.05113 0.0
O38 O 0.73344 0.03251 0.01443 0.0
C39 C 0.91318 0.03614 0.17093 0.0
O40 O 0.89294 0.00134 0.13497 0.0
C41 C 0.62927 0.0346 0.04199 0.0
C42 C 0.59268 0.09538 0.053 0.0
C43 C 0.58785 0.04951 0.03797 0.0
N44 N 0.65735 0.06998 0.05915 0.0
N45 N 0.63515 0.10632 0.06492 0.0
C46 C 0.64302 0.987 0.03492 0.0
H47 H 0.67896 0.98243 0.06322 0.0
H48 H 0.62368 0.9622 0.05137 0.0
H49 H 0.63667 0.98036 0.98288 0.0
C50 C 0.81105 0.03809 0.24866 0.0
N51 N 0.79535 0.05261 0.18639 0.0
N52 N 0.75182 0.05392 0.16502 0.0
C53 C 0.7385 0.04165 0.21338 0.0
C54 C 0.77544 0.03047 0.26773 0.0
C55 C 0.859 0.02945 0.28735 0.0
H56 H 0.8774 0.06205 0.29514 0.0
H57 H 0.87257 0.00667 0.25939 0.0
H58 H 0.86424 0.01355 0.33502 0.0
O59 O 0.80724 0.13498 0.09774 0.0
O60 O 0.73396 0.13253 0.06247 0.0
H61 H 0.67669 0.07679 0.18745 0.0
H62 H 0.68924 0.04104 0.25779 0.0
C63 C 0.69152 0.04394 0.20919 0.0
H64 H 0.6722 0.01605 0.17766 0.0
H65 H 0.64928 0.13835 0.0787 0.0
O66 O 0.89005 0.06975 0.17608 0.0
C67 C 0.7695 0.15402 0.07114 0.0
Co68 Co 0.82527 0.91047 0.63236 0.0
Co69 Co 0.72077 0.90765 0.57627 0.0
C70 C 0.77304 0.95864 0.51023 0.0
O71 O 0.81035 0.94968 0.55454 0.0
O72 O 0.73682 0.94484 0.51356 0.0
C73 C 0.91344 0.94682 0.68037 0.0
O74 O 0.89322 0.98299 0.64813 0.0
C75 C 0.63105 0.94561 0.54144 0.0
C76 C 0.59176 0.88362 0.53759 0.0
C77 C 0.58859 0.93047 0.53167 0.0
N78 N 0.65817 0.90939 0.55415 0.0
N79 N 0.6344 0.87244 0.55127 0.0
C80 C 0.6456 -0.00681 0.5359 0.0
H81 H 0.66936 -0.00688 0.51076 0.0
H82 H 0.66302 0.00735 0.58532 0.0
H83 H 0.61701 0.01527 0.50885 0.0
C84 C 0.80868 0.94344 0.7487 0.0
N85 N 0.79452 0.9287 0.68659 0.0
N86 N 0.7511 0.92516 0.66395 0.0
C87 C 0.73639 0.93571 0.71159 0.0
C88 C 0.77222 0.94852 0.7666 0.0
C89 C 0.85596 0.95454 0.78839 0.0
H90 H 0.86909 0.97747 0.76016 0.0
H91 H 0.85971 0.97139 0.83492 0.0
H92 H 0.87586 0.92283 0.79845 0.0
O93 O 0.80941 0.84697 0.59962 0.0
O94 O 0.73601 0.84557 0.56315 0.0
H95 H 0.68742 0.92787 0.75553 0.0
H96 H 0.66882 0.95747 0.67878 0.0
C97 C 0.68961 0.92907 0.70673 0.0
H98 H 0.67636 0.89685 0.68091 0.0
H99 H 0.64741 0.83958 0.55941 0.0
O100 O 0.89055 0.9119 0.68087 0.0
C101 C 0.77274 0.82604 0.57282 0.0
Co102 Co 0.19064 0.90286 0.87262 0.0
Co103 Co 0.29353 0.91978 0.92891 0.0
C104 C 0.23732 0.96469 0.9887 0.0
O105 O 0.20384 0.94438 0.94817 0.0
O106 O 0.27554 0.96083 0.98576 0.0
C107 C 0.10547 0.94092 0.81529 0.0
O108 O 0.12936 0.97806 0.83298 0.0
C109 C 0.38333 0.95913 0.97018 0.0
C110 C 0.42097 0.90092 0.95382 0.0
C111 C 0.4254 0.94569 0.97468 0.0
N112 N 0.35563 0.92375 0.94801 0.0
N113 N 0.37842 0.88902 0.93882 0.0
C114 C 0.3684 0.00556 0.98088 0.0
H115 H 0.33354 0.01126 0.94788 0.0
H116 H 0.38994 0.03224 0.97291 0.0
H117 H 0.3697 0.00804 0.03155 0.0
C118 C 0.20291 0.92675 0.75002 0.0
N119 N 0.21856 0.92112 0.81508 0.0
N120 N 0.26122 0.93014 0.83893 0.0
C121 C 0.27388 0.94278 0.78993 0.0
C122 C 0.23743 0.94054 0.73173 0.0
C123 C 0.15626 0.91688 0.7059 0.0
H124 H 0.14339 0.8872 0.72423 0.0
H125 H 0.13523 0.94678 0.70497 0.0
H126 H 0.15412 0.9099 0.65555 0.0
O127 O 0.21175 0.84227 0.90909 0.0
O128 O 0.28377 0.85687 0.95245 0.0
H129 H 0.34244 0.93018 0.81013 0.0
H130 H 0.31995 0.97762 0.75594 0.0
C131 C 0.31934 0.95947 0.79946 0.0
H132 H 0.33099 0.98302 0.84142 0.0
H133 H 0.36469 0.85737 0.9212 0.0
O134 O 0.12516 0.90269 0.82714 0.0
C135 C 0.25129 0.82993 0.94243 0.0
Co136 Co 0.70434 0.57052 0.38516 0.0
Co137 Co 0.80874 0.56416 0.43585 0.0
C138 C 0.757 0.51407 0.50114 0.0
O139 O 0.71986 0.52729 0.45985 0.0
O140 O 0.79351 0.52535 0.49668 0.0
C141 C 0.61555 0.53566 0.32745 0.0
O142 O 0.63562 0.49634 0.3452 0.0
C143 C 0.89936 0.52693 0.47015 0.0
C144 C 0.93606 0.58904 0.46474 0.0
C145 C 0.941 0.54289 0.47728 0.0
N146 N 0.87084 0.56208 0.45341 0.0
N147 N 0.89311 0.59908 0.45055 0.0
C148 C 0.88741 0.47941 0.48148 0.0
H149 H 0.85378 0.47801 0.48283 0.0
H150 H 0.88821 0.457 0.44168 0.0
H151 H 0.91203 0.46616 0.52774 0.0
C152 C 0.71541 0.5495 0.26054 0.0
N153 N 0.73192 0.55588 0.3255 0.0
N154 N 0.77521 0.551 0.34734 0.0
C155 C 0.78749 0.5401 0.29735 0.0
C156 C 0.75006 0.5394 0.2404 0.0
C157 C 0.66763 0.55529 0.21819 0.0
H158 H 0.6536 0.58494 0.23486 0.0
H159 H 0.64908 0.52447 0.22188 0.0
H160 H 0.66333 0.56037 0.16654 0.0
O161 O 0.72371 0.63129 0.42353 0.0
O162 O 0.79687 0.62637 0.4572 0.0
H163 H 0.8552 0.55736 0.31775 0.0
H164 H 0.83508 0.51076 0.26084 0.0
C165 C 0.83363 0.52685 0.30527 0.0
H166 H 0.84652 0.50218 0.34557 0.0
H167 H 0.87891 0.63127 0.43864 0.0
O168 O 0.63872 0.57174 0.33999 0.0
C169 C 0.76209 0.64854 0.45156 0.0
Co170 Co 0.33556 0.57309 0.12945 0.0
Co171 Co 0.23129 0.56648 0.07832 0.0
C172 C 0.28312 0.51849 0.011 0.0
O173 O 0.3201 0.53152 0.05288 0.0
O174 O 0.24641 0.52932 0.01529 0.0
C175 C 0.42389 0.5372 0.18545 0.0
O176 O 0.40329 0.49824 0.16682 0.0
C177 C 0.14129 0.52806 0.04343 0.0
C178 C 0.10315 0.58956 0.04689 0.0
C179 C 0.09916 0.5433 0.03496 0.0
N180 N 0.16912 0.56374 0.06016 0.0
N181 N 0.14602 0.60038 0.06194 0.0
C182 C 0.1544 0.48088 0.03259 0.0
H183 H 0.19018 0.47913 0.04134 0.0
H184 H 0.1472 0.4568 0.06584 0.0
H185 H 0.1346 0.47011 0.98203 0.0
C186 C 0.32481 0.54647 0.25238 0.0
N187 N 0.30803 0.55567 0.18814 0.0
N188 N 0.26474 0.55077 0.16617 0.0
C189 C 0.2527 0.53722 0.2154 0.0
C190 C 0.29038 0.534 0.2718 0.0
C191 C 0.37245 0.55272 0.29511 0.0
H192 H 0.38558 0.584 0.28085 0.0
H193 H 0.39189 0.52335 0.28886 0.0
H194 H 0.37669 0.55519 0.34711 0.0
O195 O 0.31646 0.63492 0.0947 0.0
O196 O 0.24336 0.62965 0.06087 0.0
H197 H 0.18504 0.55584 0.19287 0.0
H198 H 0.20409 0.51063 0.25217 0.0
C199 C 0.20626 0.52513 0.20733 0.0
H200 H 0.1934 0.49956 0.16815 0.0
H201 H 0.15956 0.63286 0.07351 0.0
O202 O 0.40118 0.57359 0.17441 0.0
C203 C 0.27809 0.65239 0.06792 0.0
Co204 Co 0.33739 0.4039 0.63457 0.0
Co205 Co 0.23374 0.41321 0.57442 0.0
C206 C 0.29019 0.45962 0.51431 0.0
O207 O 0.32481 0.44241 0.55664 0.0
O208 O 0.25204 0.45332 0.51653 0.0
C209 C 0.42328 0.44187 0.68739 0.0
O210 O 0.40092 0.4786 0.66074 0.0
C211 C 0.14481 0.45353 0.53763 0.0
C212 C 0.10468 0.39285 0.53752 0.0
C213 C 0.10228 0.43954 0.5293 0.0
N214 N 0.17131 0.4168 0.55183 0.0
N215 N 0.14703 0.38063 0.55102 0.0
C216 C 0.15994 0.50033 0.52918 0.0
H217 H 0.18043 0.49871 0.49893 0.0
H218 H 0.18104 0.51421 0.57735 0.0
H219 H 0.13155 0.52348 0.50561 0.0
C220 C 0.32191 0.43668 0.75208 0.0
N221 N 0.3074 0.42456 0.68876 0.0
N222 N 0.26388 0.42667 0.66405 0.0
C223 C 0.24926 0.43891 0.71124 0.0
C224 C 0.28549 0.44643 0.76837 0.0
C225 C 0.3698 0.44128 0.79462 0.0
H226 H 0.38745 0.40922 0.79345 0.0
H227 H 0.38464 0.46888 0.77537 0.0
H228 H 0.37465 0.44972 0.84555 0.0
O229 O 0.31878 0.3413 0.60213 0.0
O230 O 0.24602 0.35042 0.55614 0.0
H231 H 0.18472 0.40874 0.67744 0.0
H232 H 0.19767 0.44122 0.75106 0.0
C233 C 0.2015 0.43974 0.70337 0.0
H234 H 0.18514 0.46983 0.67425 0.0
H235 H 0.15954 0.34763 0.56082 0.0
O236 O 0.40249 0.40462 0.68257 0.0
C237 C 0.28036 0.32574 0.56924 0.0
Co238 Co 0.70204 0.41075 0.88027 0.0
Co239 Co 0.80632 0.41537 0.94054 0.0
C240 C 0.75035 0.46771 0.99739 0.0
O241 O 0.71498 0.45152 0.95553 0.0
O242 O 0.7883 0.45815 0.99631 0.0
C243 C 0.61426 0.44623 0.82973 0.0
O244 O 0.63469 0.48286 0.86023 0.0
C245 C 0.89538 0.45469 0.97353 0.0
C246 C 0.93571 0.39291 0.98091 0.0
C247 C 0.93805 0.43989 0.98404 0.0
N248 N 0.8689 0.41809 0.96305 0.0
N249 N 0.89329 0.38129 0.96805 0.0
C250 C 0.88011 0.50236 0.97648 0.0
H251 H 0.85796 0.50309 0.00418 0.0
H252 H 0.86071 0.51447 0.9265 0.0
H253 H 0.9084 0.52564 0.99998 0.0
C254 C 0.71859 0.43938 0.76267 0.0
N255 N 0.73283 0.42782 0.82607 0.0
N256 N 0.77638 0.42703 0.85026 0.0
C257 C 0.79124 0.4364 0.80238 0.0
C258 C 0.75521 0.44534 0.7455 0.0
C259 C 0.67096 0.44718 0.72109 0.0
H260 H 0.65664 0.47202 0.74545 0.0
H261 H 0.66669 0.46051 0.67234 0.0
H262 H 0.65244 0.41482 0.71578 0.0
O263 O 0.71975 0.34924 0.91677 0.0
O264 O 0.79302 0.35366 0.96209 0.0
H265 H 0.84199 0.43122 0.76133 0.0
H266 H 0.85707 0.46323 0.83592 0.0
C267 C 0.83875 0.43306 0.80942 0.0
H268 H 0.85393 0.40224 0.83765 0.0
H269 H 0.88084 0.3482 0.96178 0.0
O270 O 0.63698 0.41078 0.83109 0.0
C271 C 0.75718 0.33171 0.95008 0.0
C272 C 0.26418 0.0199 0.08174 0.0
C273 C 0.23283 0.98745 0.04576 0.0
C274 C 0.26387 0.03709 0.14076 0.0
C275 C 0.23277 0.0218 0.16646 0.0
H276 H 0.28969 0.0314 0.06489 0.0
H277 H 0.28885 0.06165 0.16733 0.0
S278 S 0.14414 0.93681 0.09229 0.0
N279 N 0.16917 0.94146 0.04003 0.0
N280 N 0.17021 0.97225 0.15205 0.0
C281 C 0.20079 -0.00987 0.13052 0.0
C282 C 0.20045 0.9733 0.06993 0.0
C283 C 0.80132 0.03168 0.38968 0.0
C284 C 0.7756 0.01165 0.3298 0.0
C285 C 0.80012 0.01488 0.44842 0.0
C286 C 0.77224 0.97841 0.44867 0.0
H287 H 0.82221 0.06062 0.39104 0.0
H288 H 0.82078 0.03068 0.49377 0.0
S289 S 0.70171 0.91175 0.30538 0.0
N290 N 0.72462 0.95109 0.27498 0.0
N291 N 0.72048 0.92116 0.38454 0.0
C292 C 0.74672 0.958 0.38912 0.0
C293 C 0.74888 0.97422 0.32986 0.0
C294 C 0.79891 0.9484 0.88868 0.0
C295 C 0.77084 0.96622 0.82849 0.0
C296 C 0.79797 0.96541 0.94747 0.0
C297 C 0.76796 -0.00022 0.94766 0.0
H298 H 0.82184 0.92127 0.89032 0.0
H299 H 0.82075 0.95162 0.99296 0.0
S300 S 0.68943 0.05956 0.80332 0.0
N301 N 0.71436 0.02209 0.77307 0.0
N302 N 0.71064 0.05208 0.88289 0.0
C303 C 0.73948 0.0175 0.88778 0.0
C304 C 0.74137 0.00118 0.82832 0.0
C305 C 0.20306 0.98499 0.62927 0.0
C306 C 0.23508 0.95352 0.66588 0.0
C307 C 0.20276 0.00144 0.56977 0.0
C308 C 0.23487 0.98743 0.54505 0.0
H309 H 0.17914 -0.00154 0.64797 0.0
H310 H 0.17855 0.02713 0.54478 0.0
S311 S 0.32181 0.90041 0.61798 0.0
N312 N 0.29623 0.90464 0.66971 0.0
N313 N 0.29679 0.93675 0.55885 0.0
C314 C 0.26568 0.95417 0.57966 0.0
C315 C 0.26552 0.93694 0.63984 0.0
C316 C 0.71732 0.49217 0.14045 0.0
C317 C 0.7473 0.52613 0.17447 0.0
C318 C 0.71708 0.47538 0.08121 0.0
C319 C 0.74742 0.49133 0.05446 0.0
H320 H 0.69503 0.47714 0.16097 0.0
H321 H 0.69444 0.448 0.05793 0.0
S322 S 0.82856 0.58436 0.12005 0.0
N323 N 0.80432 0.57916 0.17332 0.0
N324 N 0.80553 0.54568 0.06339 0.0
C325 C 0.77632 0.5266 0.08653 0.0
C326 C 0.77581 0.54452 0.14618 0.0
C327 C 0.26576 0.53579 0.36661 0.0
C328 C 0.29339 0.51753 0.33659 0.0
C329 C 0.26546 0.51772 0.42514 0.0
C330 C 0.29375 0.4817 0.4565 0.0
H331 H 0.24354 0.56359 0.34393 0.0
H332 H 0.24272 0.53174 0.44567 0.0
S333 S 0.37212 0.42177 0.39752 0.0
N334 N 0.34886 0.46083 0.34177 0.0
N335 N 0.35022 0.42852 0.45324 0.0
C336 C 0.32253 0.46418 0.42795 0.0
C337 C 0.32196 0.48176 0.36769 0.0
C338 C 0.30704 0.45958 0.94884 0.0
C339 C 0.28229 0.49858 0.94956 0.0
C340 C 0.30766 0.44235 0.88991 0.0
C341 C 0.2848 0.46455 0.83049 0.0
H342 H 0.3256 0.44216 0.99385 0.0
H343 H 0.32607 0.41149 0.89082 0.0
S344 S 0.21872 0.57035 0.808 0.0
N345 N 0.23569 0.5597 0.88671 0.0
N346 N 0.23914 0.52909 0.77696 0.0
C347 C 0.26088 0.50416 0.83118 0.0
C348 C 0.25913 0.5208 0.89054 0.0
C349 C 0.73047 0.44136 0.62363 0.0
C350 C 0.75634 0.46203 0.68303 0.0
C351 C 0.73095 0.45773 0.56424 0.0
C352 C 0.75841 0.49425 0.56292 0.0
H353 H 0.70962 0.41255 0.62309 0.0
H354 H 0.70996 0.4417 0.51928 0.0
S355 S 0.83001 0.56184 0.70441 0.0
N356 N 0.80755 0.52287 0.73607 0.0
N357 N 0.8106 0.55172 0.62543 0.0
C358 C 0.78454 0.51491 0.62198 0.0
C359 C 0.78304 0.49921 0.68186 0.0
C360 C 0.50808 0.94264 0.46897 0.0
C361 C 0.54758 0.95708 0.51822 0.0
C362 C 0.4685 0.96685 0.45519 0.0
C363 C 0.46701 0.00593 0.49081 0.0
H364 H 0.50796 0.91285 0.4401 0.0
H365 H 0.43912 0.95548 0.41546 0.0
S366 S 0.56005 0.05523 0.6289 0.0
N367 N 0.58186 0.01085 0.60609 0.0
N368 N 0.50762 0.05696 0.57903 0.0
C369 C 0.50601 0.0203 0.54083 0.0
C370 C 0.54626 -0.00442 0.55507 0.0
C371 C 0.49302 0.96849 0.9547 0.0
C372 C 0.46655 0.97275 0.99226 0.0
C373 C 0.53247 -0.00688 0.97002 0.0
C374 C 0.54687 0.02279 0.02354 0.0
H375 H 0.48287 0.94635 0.91257 0.0
H376 H 0.55137 0.98951 0.93906 0.0
S377 S 0.49258 0.04217 0.14178 0.0
N378 N 0.45983 0.00575 0.08885 0.0
N379 N 0.53328 0.05316 0.11644 0.0
C380 C 0.52121 0.02682 0.06216 0.0
C381 C 0.48125 0.00142 0.04694 0.0
C382 C 0.98269 0.47737 0.45643 0.0
C383 C 0.98232 0.5168 0.49208 0.0
C384 C 0.02184 0.45279 0.46869 0.0
C385 C 0.062 0.46712 0.51646 0.0
H386 H 0.95277 0.46592 0.41787 0.0
H387 H 0.02081 0.42263 0.44003 0.0
S388 S 0.07772 0.56616 0.62653 0.0
N389 N 0.02484 0.56816 0.57866 0.0
N390 N 0.09837 0.52131 0.60284 0.0
C391 C 0.06193 0.5061 0.55313 0.0
C392 C 0.02209 0.53124 0.54042 0.0
C393 C 0.05738 0.47875 0.05786 0.0
C394 C 0.05817 0.51658 0.01963 0.0
C395 C 0.01824 0.45417 0.0458 0.0
C396 C 0.97852 0.46693 0.99566 0.0
H397 H 0.08686 0.46874 0.09839 0.0
H398 H 0.01889 0.4254 0.07668 0.0
S399 S 0.96426 0.5612 0.87844 0.0
N400 N 0.01665 0.5646 0.92807 0.0
N401 N 0.94324 0.51769 0.9043 0.0
C402 C 0.97912 0.50417 0.95626 0.0
C403 C 0.01892 0.52931 0.96876 0.0
C404 C 0.02967 0.07461 0.27724 0.0
C405 C 0.05635 0.03755 0.2747 0.0
C406 C 0.98355 0.07379 0.2438 0.0
C407 C 0.96219 0.03604 0.20583 0.0
H408 H 0.04441 0.10437 0.30594 0.0
H409 H 0.96457 0.10309 0.24787 0.0
S410 S 0.01748 0.93118 0.1802 0.0
N411 N 0.05823 0.96262 0.2293 0.0
N412 N 0.97194 0.96107 0.1663 0.0
C413 C 0.98866 -0.00102 0.20217 0.0
C414 C 0.03557 -0.00027 0.23658 0.0
C415 C 0.03094 0.90356 0.76797 0.0
C416 C 0.05656 0.94354 0.7813 0.0
C417 C 0.98477 0.90502 0.736 0.0
C418 C 0.96226 0.94648 0.71544 0.0
H419 H 0.04658 0.87072 0.7824 0.0
H420 H 0.96668 0.87323 0.72673 0.0
S421 S 0.01359 0.06116 0.73945 0.0
N422 N 0.05563 0.02607 0.7721 0.0
N423 N 0.96911 0.02869 0.71188 0.0
C424 C 0.9874 0.98676 0.72863 0.0
C425 C 0.03441 0.98533 0.76157 0.0
C426 C 0.49621 0.49724 0.2412 0.0
C427 C 0.47271 0.53823 0.22129 0.0
C428 C 0.54215 0.49689 0.27555 0.0
C429 C 0.56675 0.53751 0.2914 0.0
H430 H 0.47904 0.46494 0.23052 0.0
H431 H 0.55842 0.46431 0.28965 0.0
S432 S 0.52129 0.65426 0.24984 0.0
N433 N 0.47772 0.62075 0.21964 0.0
N434 N 0.56394 0.62011 0.28392 0.0
C435 C 0.54372 0.57884 0.27163 0.0
C436 C 0.49682 0.5792 0.23674 0.0
C437 C 0.54328 0.40514 0.76957 0.0
C438 C 0.56557 0.44624 0.79361 0.0
C439 C 0.4973 0.40402 0.73577 0.0
C440 C 0.47178 0.44401 0.72391 0.0
H441 H 0.56139 0.3734 0.77717 0.0
H442 H 0.48174 0.37154 0.71825 0.0
S443 S 0.51368 0.56047 0.77717 0.0
N444 N 0.55824 0.52802 0.80365 0.0
N445 N 0.47204 0.52586 0.73983 0.0
C446 C 0.49355 0.48536 0.74762 0.0
C447 C 0.54033 0.48648 0.78254 0.0
C448 C 0.23196 0.26285 0.50554 0.0
C449 C 0.2749 0.27927 0.54108 0.0
C450 C 0.22518 0.22067 0.47426 0.0
C451 C 0.26099 0.19282 0.47713 0.0
H452 H 0.20302 0.28284 0.50118 0.0
H453 H 0.1914 0.20986 0.44778 0.0
S454 S 0.38031 0.21956 0.56425 0.0
N455 N 0.35398 0.26406 0.57764 0.0
N456 N 0.34134 0.18463 0.51901 0.0
C457 C 0.30424 0.20857 0.5129 0.0
C458 C 0.31115 0.25171 0.54486 0.0
C459 C 0.80028 0.26389 0.00847 0.0
C460 C 0.75924 0.28624 0.97984 0.0
C461 C 0.8036 0.22186 0.03963 0.0
C462 C 0.76605 0.20049 0.04364 0.0
H463 H 0.83021 0.27883 0.0066 0.0
H464 H 0.8358 0.20573 0.05971 0.0
S465 S 0.65103 0.24602 0.97982 0.0
N466 N 0.68043 0.28455 0.95965 0.0
N467 N 0.68655 0.20597 0.0184 0.0
C468 C 0.72486 0.22292 0.01623 0.0
C469 C 0.72147 0.26556 0.98419 0.0
C470 C 0.72808 0.71876 0.47596 0.0
C471 C 0.76641 0.69393 0.48252 0.0
C472 C 0.73067 0.76062 0.50692 0.0
C473 C 0.77173 0.77975 0.54576 0.0
H474 H 0.69556 0.70587 0.44666 0.0
H475 H 0.69994 0.77835 0.4993 0.0
S476 S 0.88228 0.72786 0.58078 0.0
N477 N 0.84702 0.69103 0.53242 0.0
N478 N 0.85176 0.77001 0.59036 0.0
C479 C 0.81045 0.75516 0.55342 0.0
C480 C 0.80783 0.7123 0.52182 0.0
C481 C 0.22352 0.75821 0.97436 0.0
C482 C 0.25947 0.78455 0.97397 0.0
C483 C 0.23009 0.71627 0.00626 0.0
C484 C 0.27292 0.6986 0.03906 0.0
H485 H 0.18984 0.77013 0.95025 0.0
H486 H 0.20107 0.69744 0.00451 0.0
S487 S 0.37858 0.75402 0.05251 0.0
N488 N 0.33977 0.78985 0.00929 0.0
N489 N 0.35206 0.71098 0.06917 0.0
C490 C 0.30931 0.72462 0.03931 0.0
C491 C 0.3026 0.76749 0.00677 0.0
loop_
_geom_bond_atom_site_label_1
_geom_bond_atom_site_label_2
_geom_bond_distance
_geom_bond_site_symmetry_2
_ccdc_geom_bond_type
Co0 O3 1.970 . S
Co0 N17 1.989 . S
Co0 O25 1.967 . S
Co0 O32 1.920 . S
Co1 O4 1.966 . S
Co1 N10 2.022 . S
Co1 N18 1.993 . S
Co1 O26 1.941 . S
C2 O3 1.258 . S
C2 O4 1.263 . S
O3 Co0 1.970 . S
O3 C2 1.258 . S
O4 Co1 1.966 . S
O4 C2 1.263 . S
C5 O6 1.235 . S
C5 O32 1.289 . S
O6 C5 1.235 . S
C7 C9 1.400 . S
C7 N10 1.351 . S
C7 C12 1.501 1_545 S
C8 C9 1.387 . S
C8 N11 1.341 . S
C9 C7 1.400 . S
C9 C8 1.387 . S
N10 Co1 2.022 . S
N10 C7 1.351 . S
N10 N11 1.365 . S
N11 C8 1.341 . S
N11 N10 1.365 . S
N11 H31 0.862 . S
C12 C7 1.501 1_565 S
C12 H13 0.961 1_565 S
C12 H14 0.961 . S
C12 H15 0.960 . S
H13 C12 0.961 1_545 S
H14 C12 0.961 . S
H15 C12 0.960 . S
C16 N17 1.342 . S
C16 C20 1.401 . S
C16 C21 1.499 . S
N17 Co0 1.989 . S
N17 C16 1.342 . S
N17 N18 1.388 . S
N18 Co1 1.993 . S
N18 N17 1.388 . S
N18 C19 1.346 . S
C19 N18 1.346 . S
C19 C20 1.396 . S
C19 C29 1.510 . S
C20 C16 1.401 . S
C20 C19 1.396 . S
C21 C16 1.499 . S
C21 H22 0.959 . S
C21 H23 0.960 . S
C21 H24 0.961 . S
H22 C21 0.959 . S
H23 C21 0.960 . S
H24 C21 0.961 . S
O25 Co0 1.967 . S
O25 C33 1.258 . S
O26 Co1 1.941 . S
O26 C33 1.266 . S
H27 C29 0.959 . S
H28 C29 0.961 1_565 S
C29 C19 1.510 . S
C29 H27 0.959 . S
C29 H28 0.961 1_545 S
C29 H30 0.960 . S
H30 C29 0.960 . S
H31 N11 0.862 . S
O32 Co0 1.920 . S
O32 C5 1.289 . S
C33 O25 1.258 . S
C33 O26 1.266 . S
Co34 O37 1.970 . S
Co34 N51 1.989 . S
Co34 O59 1.967 . S
Co34 O66 1.920 . S
Co35 O38 1.966 . S
Co35 N44 2.022 . S
Co35 N52 1.993 . S
Co35 O60 1.941 . S
C36 O37 1.258 . S
C36 O38 1.263 . S
O37 Co34 1.970 . S
O37 C36 1.258 . S
O38 Co35 1.966 . S
O38 C36 1.263 . S
C39 O40 1.235 . S
C39 O66 1.289 . S
O40 C39 1.235 . S
C41 C43 1.400 . S
C41 N44 1.351 . S
C41 C46 1.501 1_544 S
C42 C43 1.387 . S
C42 N45 1.341 . S
C43 C41 1.400 . S
C43 C42 1.387 . S
N44 Co35 2.022 . S
N44 C41 1.351 . S
N44 N45 1.365 . S
N45 C42 1.341 . S
N45 N44 1.365 . S
N45 H65 0.862 . S
C46 C41 1.501 1_566 S
C46 H47 0.961 1_565 S
C46 H48 0.961 . S
C46 H49 0.960 . S
H47 C46 0.961 1_545 S
H48 C46 0.961 . S
H49 C46 0.960 . S
C50 N51 1.342 . S
C50 C54 1.401 . S
C50 C55 1.499 . S
N51 Co34 1.989 . S
N51 C50 1.342 . S
N51 N52 1.388 . S
N52 Co35 1.993 . S
N52 N51 1.388 . S
N52 C53 1.346 . S
C53 N52 1.346 . S
C53 C54 1.396 . S
C53 C63 1.510 . S
C54 C50 1.401 . S
C54 C53 1.396 . S
C55 C50 1.499 . S
C55 H56 0.959 . S
C55 H57 0.960 . S
C55 H58 0.961 . S
H56 C55 0.959 . S
H57 C55 0.960 . S
H58 C55 0.961 . S
O59 Co34 1.967 . S
O59 C67 1.258 . S
O60 Co35 1.941 . S
O60 C67 1.266 . S
H61 C63 0.959 . S
H62 C63 0.961 1_565 S
C63 C53 1.510 . S
C63 H61 0.959 . S
C63 H62 0.961 1_545 S
C63 H64 0.960 . S
H64 C63 0.960 . S
H65 N45 0.862 . S
O66 Co34 1.920 . S
O66 C39 1.289 . S
C67 O59 1.258 . S
C67 O60 1.266 . S
Co68 O71 1.970 . S
Co68 N85 1.989 . S
Co68 O93 1.967 . S
Co68 O100 1.920 . S
Co69 O72 1.966 . S
Co69 N78 2.022 . S
Co69 N86 1.993 . S
Co69 O94 1.941 . S
C70 O71 1.258 . S
C70 O72 1.263 . S
O71 Co68 1.970 . S
O71 C70 1.258 . S
O72 Co69 1.966 . S
O72 C70 1.263 . S
C73 O74 1.235 . S
C73 O100 1.289 . S
O74 C73 1.235 . S
C75 C77 1.400 . S
C75 N78 1.351 . S
C75 C80 1.501 1_565 S
C76 C77 1.387 . S
C76 N79 1.341 . S
C77 C75 1.400 . S
C77 C76 1.387 . S
N78 Co69 2.022 . S
N78 C75 1.351 . S
N78 N79 1.365 . S
N79 C76 1.341 . S
N79 N78 1.365 . S
N79 H99 0.862 . S
C80 C75 1.501 1_545 S
C80 H81 0.961 1_545 S
C80 H82 0.961 . S
C80 H83 0.960 . S
H81 C80 0.961 1_565 S
H82 C80 0.961 . S
H83 C80 0.960 . S
C84 N85 1.342 . S
C84 C88 1.401 . S
C84 C89 1.499 . S
N85 Co68 1.989 . S
N85 C84 1.342 . S
N85 N86 1.388 . S
N86 Co69 1.993 . S
N86 N85 1.388 . S
N86 C87 1.346 . S
C87 N86 1.346 . S
C87 C88 1.396 . S
C87 C97 1.510 . S
C88 C84 1.401 . S
C88 C87 1.396 . S
C89 C84 1.499 . S
C89 H90 0.959 . S
C89 H91 0.960 . S
C89 H92 0.961 . S
H90 C89 0.959 . S
H91 C89 0.960 . S
H92 C89 0.961 . S
O93 Co68 1.967 . S
O93 C101 1.258 . S
O94 Co69 1.941 . S
O94 C101 1.266 . S
H95 C97 0.959 . S
H96 C97 0.961 1_545 S
C97 C87 1.510 . S
C97 H95 0.959 . S
C97 H96 0.961 1_565 S
C97 H98 0.960 . S
H98 C97 0.960 . S
H99 N79 0.862 . S
O100 Co68 1.920 . S
O100 C73 1.289 . S
C101 O93 1.258 . S
C101 O94 1.266 . S
Co102 O105 1.970 . S
Co102 N119 1.989 . S
Co102 O127 1.967 . S
Co102 O134 1.920 . S
Co103 O106 1.966 . S
Co103 N112 2.022 . S
Co103 N120 1.993 . S
Co103 O128 1.941 . S
C104 O105 1.258 . S
C104 O106 1.263 . S
O105 Co102 1.970 . S
O105 C104 1.258 . S
O106 Co103 1.966 . S
O106 C104 1.263 . S
C107 O108 1.235 . S
C107 O134 1.289 . S
O108 C107 1.235 . S
C109 C111 1.400 . S
C109 N112 1.351 . S
C109 C114 1.501 1_566 S
C110 C111 1.387 . S
C110 N113 1.341 . S
C111 C109 1.400 . S
C111 C110 1.387 . S
N112 Co103 2.022 . S
N112 C109 1.351 . S
N112 N113 1.365 . S
N113 C110 1.341 . S
N113 N112 1.365 . S
N113 H133 0.862 . S
C114 C109 1.501 1_544 S
C114 H115 0.961 1_545 S
C114 H116 0.961 . S
C114 H117 0.960 . S
H115 C114 0.961 1_565 S
H116 C114 0.961 . S
H117 C114 0.960 . S
C118 N119 1.342 . S
C118 C122 1.401 . S
C118 C123 1.499 . S
N119 Co102 1.989 . S
N119 C118 1.342 . S
N119 N120 1.388 . S
N120 Co103 1.993 . S
N120 N119 1.388 . S
N120 C121 1.346 . S
C121 N120 1.346 . S
C121 C122 1.396 . S
C121 C131 1.510 . S
C122 C118 1.401 . S
C122 C121 1.396 . S
C123 C118 1.499 . S
C123 H124 0.959 . S
C123 H125 0.960 . S
C123 H126 0.961 . S
H124 C123 0.959 . S
H125 C123 0.960 . S
H126 C123 0.961 . S
O127 Co102 1.967 . S
O127 C135 1.258 . S
O128 Co103 1.941 . S
O128 C135 1.266 . S
H129 C131 0.959 . S
H130 C131 0.961 1_545 S
C131 C121 1.510 . S
C131 H129 0.959 . S
C131 H130 0.961 1_565 S
C131 H132 0.960 . S
H132 C131 0.960 . S
H133 N113 0.862 . S
O134 Co102 1.920 . S
O134 C107 1.289 . S
C135 O127 1.258 . S
C135 O128 1.266 . S
Co136 O139 1.970 . S
Co136 N153 1.989 . S
Co136 O161 1.967 . S
Co136 O168 1.920 . S
Co137 O140 1.966 . S
Co137 N146 2.022 . S
Co137 N154 1.993 . S
Co137 O162 1.941 . S
C138 O139 1.258 . S
C138 O140 1.263 . S
O139 Co136 1.970 . S
O139 C138 1.258 . S
O140 Co137 1.966 . S
O140 C138 1.263 . S
C141 O142 1.235 . S
C141 O168 1.289 . S
O142 C141 1.235 . S
C143 C145 1.400 . S
C143 N146 1.351 . S
C143 C148 1.501 . S
C144 C145 1.387 . S
C144 N147 1.341 . S
C145 C143 1.400 . S
C145 C144 1.387 . S
N146 Co137 2.022 . S
N146 C143 1.351 . S
N146 N147 1.365 . S
N147 C144 1.341 . S
N147 N146 1.365 . S
N147 H167 0.862 . S
C148 C143 1.501 . S
C148 H149 0.961 . S
C148 H150 0.961 . S
C148 H151 0.960 . S
H149 C148 0.961 . S
H150 C148 0.961 . S
H151 C148 0.960 . S
C152 N153 1.342 . S
C152 C156 1.401 . S
C152 C157 1.499 . S
N153 Co136 1.989 . S
N153 C152 1.342 . S
N153 N154 1.388 . S
N154 Co137 1.993 . S
N154 N153 1.388 . S
N154 C155 1.346 . S
C155 N154 1.346 . S
C155 C156 1.396 . S
C155 C165 1.510 . S
C156 C152 1.401 . S
C156 C155 1.396 . S
C157 C152 1.499 . S
C157 H158 0.959 . S
C157 H159 0.960 . S
C157 H160 0.961 . S
H158 C157 0.959 . S
H159 C157 0.960 . S
H160 C157 0.961 . S
O161 Co136 1.967 . S
O161 C169 1.258 . S
O162 Co137 1.941 . S
O162 C169 1.266 . S
H163 C165 0.959 . S
H164 C165 0.961 . S
C165 C155 1.510 . S
C165 H163 0.959 . S
C165 H164 0.961 . S
C165 H166 0.960 . S
H166 C165 0.960 . S
H167 N147 0.862 . S
O168 Co136 1.920 . S
O168 C141 1.289 . S
C169 O161 1.258 . S
C169 O162 1.266 . S
Co170 O173 1.970 . S
Co170 N187 1.989 . S
Co170 O195 1.967 . S
Co170 O202 1.920 . S
Co171 O174 1.966 . S
Co171 N180 2.022 . S
Co171 N188 1.993 . S
Co171 O196 1.941 . S
C172 O173 1.258 . S
C172 O174 1.263 . S
O173 Co170 1.970 . S
O173 C172 1.258 . S
O174 Co171 1.966 . S
O174 C172 1.263 . S
C175 O176 1.235 . S
C175 O202 1.289 . S
O176 C175 1.235 . S
C177 C179 1.400 . S
C177 N180 1.351 . S
C177 C182 1.501 1_554 S
C178 C179 1.387 . S
C178 N181 1.341 . S
C179 C177 1.400 . S
C179 C178 1.387 . S
N180 Co171 2.022 . S
N180 C177 1.351 . S
N180 N181 1.365 . S
N181 C178 1.341 . S
N181 N180 1.365 . S
N181 H201 0.862 . S
C182 C177 1.501 1_556 S
C182 H183 0.961 . S
C182 H184 0.961 . S
C182 H185 0.960 . S
H183 C182 0.961 . S
H184 C182 0.961 . S
H185 C182 0.960 . S
C186 N187 1.342 . S
C186 C190 1.401 . S
C186 C191 1.499 . S
N187 Co170 1.989 . S
N187 C186 1.342 . S
N187 N188 1.388 . S
N188 Co171 1.993 . S
N188 N187 1.388 . S
N188 C189 1.346 . S
C189 N188 1.346 . S
C189 C190 1.396 . S
C189 C199 1.510 . S
C190 C186 1.401 . S
C190 C189 1.396 . S
C191 C186 1.499 . S
C191 H192 0.959 . S
C191 H193 0.960 . S
C191 H194 0.961 . S
H192 C191 0.959 . S
H193 C191 0.960 . S
H194 C191 0.961 . S
O195 Co170 1.967 . S
O195 C203 1.258 . S
O196 Co171 1.941 . S
O196 C203 1.266 . S
H197 C199 0.959 . S
H198 C199 0.961 . S
C199 C189 1.510 . S
C199 H197 0.959 . S
C199 H198 0.961 . S
C199 H200 0.960 . S
H200 C199 0.960 . S
H201 N181 0.862 . S
O202 Co170 1.920 . S
O202 C175 1.289 . S
C203 O195 1.258 . S
C203 O196 1.266 . S
Co204 O207 1.970 . S
Co204 N221 1.989 . S
Co204 O229 1.967 . S
Co204 O236 1.920 . S
Co205 O208 1.966 . S
Co205 N214 2.022 . S
Co205 N222 1.993 . S
Co205 O230 1.941 . S
C206 O207 1.258 . S
C206 O208 1.263 . S
O207 Co204 1.970 . S
O207 C206 1.258 . S
O208 Co205 1.966 . S
O208 C206 1.263 . S
C209 O210 1.235 . S
C209 O236 1.289 . S
O210 C209 1.235 . S
C211 C213 1.400 . S
C211 N214 1.351 . S
C211 C216 1.501 . S
C212 C213 1.387 . S
C212 N215 1.341 . S
C213 C211 1.400 . S
C213 C212 1.387 . S
N214 Co205 2.022 . S
N214 C211 1.351 . S
N214 N215 1.365 . S
N215 C212 1.341 . S
N215 N214 1.365 . S
N215 H235 0.862 . S
C216 C211 1.501 . S
C216 H217 0.961 . S
C216 H218 0.961 . S
C216 H219 0.960 . S
H217 C216 0.961 . S
H218 C216 0.961 . S
H219 C216 0.960 . S
C220 N221 1.342 . S
C220 C224 1.401 . S
C220 C225 1.499 . S
N221 Co204 1.989 . S
N221 C220 1.342 . S
N221 N222 1.388 . S
N222 Co205 1.993 . S
N222 N221 1.388 . S
N222 C223 1.346 . S
C223 N222 1.346 . S
C223 C224 1.396 . S
C223 C233 1.510 . S
C224 C220 1.401 . S
C224 C223 1.396 . S
C225 C220 1.499 . S
C225 H226 0.959 . S
C225 H227 0.960 . S
C225 H228 0.961 . S
H226 C225 0.959 . S
H227 C225 0.960 . S
H228 C225 0.961 . S
O229 Co204 1.967 . S
O229 C237 1.258 . S
O230 Co205 1.941 . S
O230 C237 1.266 . S
H231 C233 0.959 . S
H232 C233 0.961 . S
C233 C223 1.510 . S
C233 H231 0.959 . S
C233 H232 0.961 . S
C233 H234 0.960 . S
H234 C233 0.960 . S
H235 N215 0.862 . S
O236 Co204 1.920 . S
O236 C209 1.289 . S
C237 O229 1.258 . S
C237 O230 1.266 . S
Co238 O241 1.970 . S
Co238 N255 1.989 . S
Co238 O263 1.967 . S
Co238 O270 1.920 . S
Co239 O242 1.966 . S
Co239 N248 2.022 . S
Co239 N256 1.993 . S
Co239 O264 1.941 . S
C240 O241 1.258 . S
C240 O242 1.263 . S
O241 Co238 1.970 . S
O241 C240 1.258 . S
O242 Co239 1.966 . S
O242 C240 1.263 . S
C243 O244 1.235 . S
C243 O270 1.289 . S
O244 C243 1.235 . S
C245 C247 1.400 . S
C245 N248 1.351 . S
C245 C250 1.501 1_556 S
C246 C247 1.387 . S
C246 N249 1.341 . S
C247 C245 1.400 . S
C247 C246 1.387 . S
N248 Co239 2.022 . S
N248 C245 1.351 . S
N248 N249 1.365 . S
N249 C246 1.341 . S
N249 N248 1.365 . S
N249 H269 0.862 . S
C250 C245 1.501 1_554 S
C250 H251 0.961 . S
C250 H252 0.961 . S
C250 H253 0.960 . S
H251 C250 0.961 . S
H252 C250 0.961 . S
H253 C250 0.960 . S
C254 N255 1.342 . S
C254 C258 1.401 . S
C254 C259 1.499 . S
N255 Co238 1.989 . S
N255 C254 1.342 . S
N255 N256 1.388 . S
N256 Co239 1.993 . S
N256 N255 1.388 . S
N256 C257 1.346 . S
C257 N256 1.346 . S
C257 C258 1.396 . S
C257 C267 1.510 . S
C258 C254 1.401 . S
C258 C257 1.396 . S
C259 C254 1.499 . S
C259 H260 0.959 . S
C259 H261 0.960 . S
C259 H262 0.961 . S
H260 C259 0.959 . S
H261 C259 0.960 . S
H262 C259 0.961 . S
O263 Co238 1.967 . S
O263 C271 1.258 . S
O264 Co239 1.941 . S
O264 C271 1.266 . S
H265 C267 0.959 . S
H266 C267 0.961 . S
C267 C257 1.510 . S
C267 H265 0.959 . S
C267 H266 0.961 . S
C267 H268 0.960 . S
H268 C267 0.960 . S
H269 N249 0.862 . S
O270 Co238 1.920 . S
O270 C243 1.289 . S
C271 O263 1.258 . S
C271 O264 1.266 . S
C272 C273 1.369 1_545 S
C272 C274 1.419 . S
C272 H276 0.930 . S
C273 C272 1.369 1_565 S
C273 C282 1.429 . S
C274 C272 1.419 . S
C274 C275 1.363 . S
C274 H277 0.929 . S
C275 C274 1.363 . S
C275 C281 1.428 1_545 S
H276 C272 0.930 . S
H277 C274 0.929 . S
S278 N279 1.613 . S
S278 N280 1.610 . S
N279 S278 1.613 . S
N279 C282 1.350 . S
N280 S278 1.610 . S
N280 C281 1.351 . S
C281 C275 1.428 1_565 S
C281 N280 1.351 . S
C281 C282 1.434 . S
C282 C273 1.429 . S
C282 N279 1.350 . S
C282 C281 1.434 . S
C283 C284 1.369 . S
C283 C285 1.419 . S
C283 H287 0.930 . S
C284 C283 1.369 . S
C284 C293 1.429 1_545 S
C285 C283 1.419 . S
C285 C286 1.363 1_545 S
C285 H288 0.929 . S
C286 C285 1.363 1_565 S
C286 C292 1.428 . S
H287 C283 0.930 . S
H288 C285 0.929 . S
S289 N290 1.613 . S
S289 N291 1.610 . S
N290 S289 1.613 . S
N290 C293 1.350 . S
N291 S289 1.610 . S
N291 C292 1.351 . S
C292 C286 1.428 . S
C292 N291 1.351 . S
C292 C293 1.434 . S
C293 C284 1.429 1_565 S
C293 N290 1.350 . S
C293 C292 1.434 . S
C294 C295 1.369 . S
C294 C296 1.419 . S
C294 H298 0.930 . S
C295 C294 1.369 . S
C295 C304 1.429 1_565 S
C296 C294 1.419 . S
C296 C297 1.363 1_565 S
C296 H299 0.929 . S
C297 C296 1.363 1_545 S
C297 C303 1.428 . S
H298 C294 0.930 . S
H299 C296 0.929 . S
S300 N301 1.613 . S
S300 N302 1.610 . S
N301 S300 1.613 . S
N301 C304 1.350 . S
N302 S300 1.610 . S
N302 C303 1.351 . S
C303 C297 1.428 . S
C303 N302 1.351 . S
C303 C304 1.434 . S
C304 C295 1.429 1_545 S
C304 N301 1.350 . S
C304 C303 1.434 . S
C305 C306 1.369 . S
C305 C307 1.419 1_565 S
C305 H309 0.930 . S
C306 C305 1.369 . S
C306 C315 1.429 . S
C307 C305 1.419 1_545 S
C307 C308 1.363 . S
C307 H310 0.929 . S
C308 C307 1.363 . S
C308 C314 1.428 . S
H309 C305 0.930 . S
H310 C307 0.929 . S
S311 N312 1.613 1_545 S
S311 N313 1.610 . S
N312 S311 1.613 1_565 S
N312 C315 1.350 . S
N313 S311 1.610 . S
N313 C314 1.351 . S
C314 C308 1.428 . S
C314 N313 1.351 . S
C314 C315 1.434 1_545 S
C315 C306 1.429 . S
C315 N312 1.350 . S
C315 C314 1.434 1_565 S
C316 C317 1.369 . S
C316 C318 1.419 . S
C316 H320 0.930 . S
C317 C316 1.369 . S
C317 C326 1.429 . S
C318 C316 1.419 . S
C318 C319 1.363 . S
C318 H321 0.929 . S
C319 C318 1.363 . S
C319 C325 1.428 . S
H320 C316 0.930 . S
H321 C318 0.929 . S
S322 N323 1.613 . S
S322 N324 1.610 . S
N323 S322 1.613 . S
N323 C326 1.350 . S
N324 S322 1.610 . S
N324 C325 1.351 . S
C325 C319 1.428 . S
C325 N324 1.351 . S
C325 C326 1.434 . S
C326 C317 1.429 . S
C326 N323 1.350 . S
C326 C325 1.434 . S
C327 C328 1.369 . S
C327 C329 1.419 . S
C327 H331 0.930 . S
C328 C327 1.369 . S
C328 C337 1.429 . S
C329 C327 1.419 . S
C329 C330 1.363 . S
C329 H332 0.929 . S
C330 C329 1.363 . S
C330 C336 1.428 . S
H331 C327 0.930 . S
H332 C329 0.929 . S
S333 N334 1.613 . S
S333 N335 1.610 . S
N334 S333 1.613 . S
N334 C337 1.350 . S
N335 S333 1.610 . S
N335 C336 1.351 . S
C336 C330 1.428 . S
C336 N335 1.351 . S
C336 C337 1.434 . S
C337 C328 1.429 . S
C337 N334 1.350 . S
C337 C336 1.434 . S
C338 C339 1.369 . S
C338 C340 1.419 . S
C338 H342 0.930 . S
C339 C338 1.369 . S
C339 C348 1.429 . S
C340 C338 1.419 . S
C340 C341 1.363 . S
C340 H343 0.929 . S
C341 C340 1.363 . S
C341 C347 1.428 . S
H342 C338 0.930 . S
H343 C340 0.929 . S
S344 N345 1.613 . S
S344 N346 1.610 . S
N345 S344 1.613 . S
N345 C348 1.350 . S
N346 S344 1.610 . S
N346 C347 1.351 . S
C347 C341 1.428 . S
C347 N346 1.351 . S
C347 C348 1.434 . S
C348 C339 1.429 . S
C348 N345 1.350 . S
C348 C347 1.434 . S
C349 C350 1.369 . S
C349 C351 1.419 . S
C349 H353 0.930 . S
C350 C349 1.369 . S
C350 C359 1.429 . S
C351 C349 1.419 . S
C351 C352 1.363 . S
C351 H354 0.929 . S
C352 C351 1.363 . S
C352 C358 1.428 . S
H353 C349 0.930 . S
H354 C351 0.929 . S
S355 N356 1.613 . S
S355 N357 1.610 . S
N356 S355 1.613 . S
N356 C359 1.350 . S
N357 S355 1.610 . S
N357 C358 1.351 . S
C358 C352 1.428 . S
C358 N357 1.351 . S
C358 C359 1.434 . S
C359 C350 1.429 . S
C359 N356 1.350 . S
C359 C358 1.434 . S
C360 C361 1.369 . S
C360 C362 1.419 . S
C360 H364 0.930 . S
C361 C360 1.369 . S
C361 C370 1.429 1_565 S
C362 C360 1.419 . S
C362 C363 1.363 1_565 S
C362 H365 0.929 . S
C363 C362 1.363 1_545 S
C363 C369 1.428 . S
H364 C360 0.930 . S
H365 C362 0.929 . S
S366 N367 1.613 . S
S366 N368 1.610 . S
N367 S366 1.613 . S
N367 C370 1.350 . S
N368 S366 1.610 . S
N368 C369 1.351 . S
C369 C363 1.428 . S
C369 N368 1.351 . S
C369 C370 1.434 . S
C370 C361 1.429 1_545 S
C370 N367 1.350 . S
C370 C369 1.434 . S
C371 C372 1.369 1_545 S
C371 C373 1.419 . S
C371 H375 0.930 . S
C372 C371 1.369 1_565 S
C372 C381 1.429 1_556 S
C373 C371 1.419 . S
C373 C374 1.363 1_556 S
C373 H376 0.929 . S
C374 C373 1.363 1_554 S
C374 C380 1.428 1_545 S
H375 C371 0.930 . S
H376 C373 0.929 . S
S377 N378 1.613 . S
S377 N379 1.610 . S
N378 S377 1.613 . S
N378 C381 1.350 . S
N379 S377 1.610 . S
N379 C380 1.351 . S
C380 C374 1.428 1_565 S
C380 N379 1.351 . S
C380 C381 1.434 . S
C381 C372 1.429 1_554 S
C381 N378 1.350 . S
C381 C380 1.434 . S
C382 C383 1.369 . S
C382 C384 1.419 1_655 S
C382 H386 0.930 . S
C383 C382 1.369 . S
C383 C392 1.429 . S
C384 C382 1.419 1_455 S
C384 C385 1.363 . S
C384 H387 0.929 . S
C385 C384 1.363 . S
C385 C391 1.428 . S
H386 C382 0.930 . S
H387 C384 0.929 . S
S388 N389 1.613 1_455 S
S388 N390 1.610 . S
N389 S388 1.613 1_655 S
N389 C392 1.350 . S
N390 S388 1.610 . S
N390 C391 1.351 . S
C391 C385 1.428 . S
C391 N390 1.351 . S
C391 C392 1.434 1_455 S
C392 C383 1.429 . S
C392 N389 1.350 . S
C392 C391 1.434 1_655 S
C393 C394 1.369 . S
C393 C395 1.419 1_455 S
C393 H397 0.930 . S
C394 C393 1.369 . S
C394 C403 1.429 1_554 S
C395 C393 1.419 1_655 S
C395 C396 1.363 1_554 S
C395 H398 0.929 . S
C396 C395 1.363 1_556 S
C396 C402 1.428 . S
H397 C393 0.930 . S
H398 C395 0.929 . S
S399 N400 1.613 1_655 S
S399 N401 1.610 . S
N400 S399 1.613 1_455 S
N400 C403 1.350 . S
N401 S399 1.610 . S
N401 C402 1.351 . S
C402 C396 1.428 . S
C402 N401 1.351 . S
C402 C403 1.434 1_655 S
C403 C394 1.429 1_556 S
C403 N400 1.350 . S
C403 C402 1.434 1_455 S
C404 C405 1.369 . S
C404 C406 1.419 1_455 S
C404 H408 0.930 . S
C405 C404 1.369 . S
C405 C414 1.429 . S
C406 C404 1.419 1_655 S
C406 C407 1.363 . S
C406 H409 0.929 . S
C407 C406 1.363 . S
C407 C413 1.428 . S
H408 C404 0.930 . S
H409 C406 0.929 . S
S410 N411 1.613 . S
S410 N412 1.610 1_455 S
N411 S410 1.613 . S
N411 C414 1.350 . S
N412 S410 1.610 1_655 S
N412 C413 1.351 . S
C413 C407 1.428 . S
C413 N412 1.351 . S
C413 C414 1.434 1_655 S
C414 C405 1.429 . S
C414 N411 1.350 . S
C414 C413 1.434 1_455 S
C415 C416 1.369 . S
C415 C417 1.419 1_455 S
C415 H419 0.930 . S
C416 C415 1.369 . S
C416 C425 1.429 . S
C417 C415 1.419 1_655 S
C417 C418 1.363 . S
C417 H420 0.929 . S
C418 C417 1.363 . S
C418 C424 1.428 . S
H419 C415 0.930 . S
H420 C417 0.929 . S
S421 N422 1.613 1_655 S
S421 N423 1.610 . S
N422 S421 1.613 1_455 S
N422 C425 1.350 1_545 S
N423 S421 1.610 . S
N423 C424 1.351 1_545 S
C424 C418 1.428 . S
C424 N423 1.351 1_565 S
C424 C425 1.434 1_655 S
C425 C416 1.429 . S
C425 N422 1.350 1_565 S
C425 C424 1.434 1_455 S
C426 C427 1.369 . S
C426 C428 1.419 . S
C426 H430 0.930 . S
C427 C426 1.369 . S
C427 C436 1.429 . S
C428 C426 1.419 . S
C428 C429 1.363 . S
C428 H431 0.929 . S
C429 C428 1.363 . S
C429 C435 1.428 . S
H430 C426 0.930 . S
H431 C428 0.929 . S
S432 N433 1.613 . S
S432 N434 1.610 . S
N433 S432 1.613 . S
N433 C436 1.350 . S
N434 S432 1.610 . S
N434 C435 1.351 . S
C435 C429 1.428 . S
C435 N434 1.351 . S
C435 C436 1.434 . S
C436 C427 1.429 . S
C436 N433 1.350 . S
C436 C435 1.434 . S
C437 C438 1.369 . S
C437 C439 1.419 . S
C437 H441 0.930 . S
C438 C437 1.369 . S
C438 C447 1.429 . S
C439 C437 1.419 . S
C439 C440 1.363 . S
C439 H442 0.929 . S
C440 C439 1.363 . S
C440 C446 1.428 . S
H441 C437 0.930 . S
H442 C439 0.929 . S
S443 N444 1.613 . S
S443 N445 1.610 . S
N444 S443 1.613 . S
N444 C447 1.350 . S
N445 S443 1.610 . S
N445 C446 1.351 . S
C446 C440 1.428 . S
C446 N445 1.351 . S
C446 C447 1.434 . S
C447 C438 1.429 . S
C447 N444 1.350 . S
C447 C446 1.434 . S
C448 C449 1.369 . S
C448 C450 1.419 . S
C448 H452 0.930 . S
C449 C448 1.369 . S
C449 C458 1.429 . S
C450 C448 1.419 . S
C450 C451 1.363 . S
C450 H453 0.929 . S
C451 C450 1.363 . S
C451 C457 1.428 . S
H452 C448 0.930 . S
H453 C450 0.929 . S
S454 N455 1.613 . S
S454 N456 1.610 . S
N455 S454 1.613 . S
N455 C458 1.350 . S
N456 S454 1.610 . S
N456 C457 1.351 . S
C457 C451 1.428 . S
C457 N456 1.351 . S
C457 C458 1.434 . S
C458 C449 1.429 . S
C458 N455 1.350 . S
C458 C457 1.434 . S
C459 C460 1.369 . S
C459 C461 1.419 1_556 S
C459 H463 0.930 . S
C460 C459 1.369 . S
C460 C469 1.429 . S
C461 C459 1.419 1_554 S
C461 C462 1.363 . S
C461 H464 0.929 . S
C462 C461 1.363 . S
C462 C468 1.428 . S
H463 C459 0.930 . S
H464 C461 0.929 . S
S465 N466 1.613 . S
S465 N467 1.610 1_556 S
N466 S465 1.613 . S
N466 C469 1.350 . S
N467 S465 1.610 1_554 S
N467 C468 1.351 . S
C468 C462 1.428 . S
C468 N467 1.351 . S
C468 C469 1.434 1_554 S
C469 C460 1.429 . S
C469 N466 1.350 . S
C469 C468 1.434 1_556 S
C470 C471 1.369 . S
C470 C472 1.419 . S
C470 H474 0.930 . S
C471 C470 1.369 . S
C471 C480 1.429 . S
C472 C470 1.419 . S
C472 C473 1.363 . S
C472 H475 0.929 . S
C473 C472 1.363 . S
C473 C479 1.428 . S
H474 C470 0.930 . S
H475 C472 0.929 . S
S476 N477 1.613 . S
S476 N478 1.610 . S
N477 S476 1.613 . S
N477 C480 1.350 . S
N478 S476 1.610 . S
N478 C479 1.351 . S
C479 C473 1.428 . S
C479 N478 1.351 . S
C479 C480 1.434 . S
C480 C471 1.429 . S
C480 N477 1.350 . S
C480 C479 1.434 . S
C481 C482 1.369 . S
C481 C483 1.419 1_556 S
C481 H485 0.930 . S
C482 C481 1.369 . S
C482 C491 1.429 . S
C483 C481 1.419 1_554 S
C483 C484 1.363 . S
C483 H486 0.929 . S
C484 C483 1.363 . S
C484 C490 1.428 . S
H485 C481 0.930 . S
H486 C483 0.929 . S
S487 N488 1.613 . S
S487 N489 1.610 1_556 S
N488 S487 1.613 . S
N488 C491 1.350 . S
N489 S487 1.610 1_554 S
N489 C490 1.351 . S
C490 C484 1.428 . S
C490 N489 1.351 . S
C490 C491 1.434 1_554 S
C491 C482 1.429 . S
C491 N488 1.350 . S
C491 C490 1.434 1_556 S
C273 C104 1.389 1_554 S
C275 C20 1.384 . S
C284 C54 1.382 . S
C286 C70 1.390 . S
C295 C88 1.382 . S
C297 C36 1.389 1_556 S
C306 C122 1.383 . S
C308 C2 1.390 . S
C317 C156 1.385 . S
C319 C240 1.390 1_554 S
C328 C190 1.382 . S
C330 C206 1.389 . S
C339 C172 1.390 1_556 S
C341 C224 1.382 . S
C350 C258 1.382 . S
C352 C138 1.390 . S
C361 C77 1.365 . S
C363 C9 1.360 . S
C372 C111 1.366 . S
C374 C43 1.360 . S
C383 C145 1.357 . S
C385 C213 1.367 . S
C394 C179 1.357 . S
C396 C247 1.367 . S
C405 C5 1.592 . S
C407 C39 1.594 . S
C416 C107 1.593 . S
C418 C73 1.591 . S
C427 C175 1.595 . S
C429 C141 1.593 . S
C438 C243 1.594 . S
C440 C209 1.592 . S
C449 C237 1.575 . S
C451 C33 1.572 . S
C460 C271 1.573 . S
C462 C67 1.574 . S
C471 C169 1.571 . S
C473 C101 1.576 . S
C482 C135 1.575 . S
C484 C203 1.573 . S
