# Generated by pormake.
# Topology xfd, (7)-cn, num edge types: 1
# Building blocks:
#     Node 0, Type 0, BuildingBlock: HICVOG_clean_sbu_0, # of connection points: 7
#     Node 1, Type 0, BuildingBlock: HICVOG_clean_sbu_0, # of connection points: 7
#     Node 2, Type 0, BuildingBlock: HICVOG_clean_sbu_0, # of connection points: 7
#     Node 3, Type 0, BuildingBlock: HICVOG_clean_sbu_0, # of connection points: 7
#     Node 4, Type 0, BuildingBlock: HICVOG_clean_sbu_0, # of connection points: 7
#     Node 5, Type 0, BuildingBlock: HICVOG_clean_sbu_0, # of connection points: 7
#     Node 6, Type 0, BuildingBlock: HICVOG_clean_sbu_0, # of connection points: 7
#     Node 7, Type 0, BuildingBlock: HICVOG_clean_sbu_0, # of connection points: 7
#     Node 8, Type 0, BuildingBlock: HICVOG_clean_sbu_0, # of connection points: 7
#     Node 9, Type 0, BuildingBlock: HICVOG_clean_sbu_0, # of connection points: 7
#     Node 10, Type 0, BuildingBlock: HICVOG_clean_sbu_0, # of connection points: 7
#     Node 11, Type 0, BuildingBlock: HICVOG_clean_sbu_0, # of connection points: 7
#     Node 12, Type 0, BuildingBlock: HICVOG_clean_sbu_0, # of connection points: 7
#     Node 13, Type 0, BuildingBlock: HICVOG_clean_sbu_0, # of connection points: 7
#     Node 14, Type 0, BuildingBlock: HICVOG_clean_sbu_0, # of connection points: 7
#     Node 15, Type 0, BuildingBlock: HICVOG_clean_sbu_0, # of connection points: 7
#     Edge 16, Type (0, 0), BuildingBlock: XIVTED_clean_linker_0, # of connection points: 2
#     Edge 17, Type (0, 0), BuildingBlock: XIVTED_clean_linker_0, # of connection points: 2
#     Edge 18, Type (0, 0), BuildingBlock: XIVTED_clean_linker_0, # of connection points: 2
#     Edge 19, Type (0, 0), BuildingBlock: XIVTED_clean_linker_0, # of connection points: 2
#     Edge 20, Type (0, 0), BuildingBlock: XIVTED_clean_linker_0, # of connection points: 2
#     Edge 21, Type (0, 0), BuildingBlock: XIVTED_clean_linker_0, # of connection points: 2
#     Edge 22, Type (0, 0), BuildingBlock: XIVTED_clean_linker_0, # of connection points: 2
#     Edge 23, Type (0, 0), BuildingBlock: XIVTED_clean_linker_0, # of connection points: 2
#     Edge 24, Type (0, 0), BuildingBlock: XIVTED_clean_linker_0, # of connection points: 2
#     Edge 25, Type (0, 0), BuildingBlock: XIVTED_clean_linker_0, # of connection points: 2
#     Edge 26, Type (0, 0), BuildingBlock: XIVTED_clean_linker_0, # of connection points: 2
#     Edge 27, Type (0, 0), BuildingBlock: XIVTED_clean_linker_0, # of connection points: 2
#     Edge 28, Type (0, 0), BuildingBlock: XIVTED_clean_linker_0, # of connection points: 2
#     Edge 29, Type (0, 0), BuildingBlock: XIVTED_clean_linker_0, # of connection points: 2
#     Edge 30, Type (0, 0), BuildingBlock: XIVTED_clean_linker_0, # of connection points: 2
#     Edge 31, Type (0, 0), BuildingBlock: XIVTED_clean_linker_0, # of connection points: 2
#     Edge 32, Type (0, 0), BuildingBlock: XIVTED_clean_linker_0, # of connection points: 2
#     Edge 33, Type (0, 0), BuildingBlock: XIVTED_clean_linker_0, # of connection points: 2
#     Edge 34, Type (0, 0), BuildingBlock: XIVTED_clean_linker_0, # of connection points: 2
#     Edge 35, Type (0, 0), BuildingBlock: XIVTED_clean_linker_0, # of connection points: 2
#     Edge 36, Type (0, 0), BuildingBlock: XIVTED_clean_linker_0, # of connection points: 2
#     Edge 37, Type (0, 0), BuildingBlock: XIVTED_clean_linker_0, # of connection points: 2
#     Edge 38, Type (0, 0), BuildingBlock: XIVTED_clean_linker_0, # of connection points: 2
#     Edge 39, Type (0, 0), BuildingBlock: XIVTED_clean_linker_0, # of connection points: 2
#     Edge 40, Type (0, 0), BuildingBlock: XIVTED_clean_linker_0, # of connection points: 2
#     Edge 41, Type (0, 0), BuildingBlock: XIVTED_clean_linker_0, # of connection points: 2
#     Edge 42, Type (0, 0), BuildingBlock: XIVTED_clean_linker_0, # of connection points: 2
#     Edge 43, Type (0, 0), BuildingBlock: XIVTED_clean_linker_0, # of connection points: 2
#     Edge 44, Type (0, 0), BuildingBlock: XIVTED_clean_linker_0, # of connection points: 2
#     Edge 45, Type (0, 0), BuildingBlock: XIVTED_clean_linker_0, # of connection points: 2
#     Edge 46, Type (0, 0), BuildingBlock: XIVTED_clean_linker_0, # of connection points: 2
#     Edge 47, Type (0, 0), BuildingBlock: XIVTED_clean_linker_0, # of connection points: 2
#     Edge 48, Type (0, 0), BuildingBlock: XIVTED_clean_linker_0, # of connection points: 2
#     Edge 49, Type (0, 0), BuildingBlock: XIVTED_clean_linker_0, # of connection points: 2
#     Edge 50, Type (0, 0), BuildingBlock: XIVTED_clean_linker_0, # of connection points: 2
#     Edge 51, Type (0, 0), BuildingBlock: XIVTED_clean_linker_0, # of connection points: 2
#     Edge 52, Type (0, 0), BuildingBlock: XIVTED_clean_linker_0, # of connection points: 2
#     Edge 53, Type (0, 0), BuildingBlock: XIVTED_clean_linker_0, # of connection points: 2
#     Edge 54, Type (0, 0), BuildingBlock: XIVTED_clean_linker_0, # of connection points: 2
#     Edge 55, Type (0, 0), BuildingBlock: XIVTED_clean_linker_0, # of connection points: 2
#     Edge 56, Type (0, 0), BuildingBlock: XIVTED_clean_linker_0, # of connection points: 2
#     Edge 57, Type (0, 0), BuildingBlock: XIVTED_clean_linker_0, # of connection points: 2
#     Edge 58, Type (0, 0), BuildingBlock: XIVTED_clean_linker_0, # of connection points: 2
#     Edge 59, Type (0, 0), BuildingBlock: XIVTED_clean_linker_0, # of connection points: 2
#     Edge 60, Type (0, 0), BuildingBlock: XIVTED_clean_linker_0, # of connection points: 2
#     Edge 61, Type (0, 0), BuildingBlock: XIVTED_clean_linker_0, # of connection points: 2
#     Edge 62, Type (0, 0), BuildingBlock: XIVTED_clean_linker_0, # of connection points: 2
#     Edge 63, Type (0, 0), BuildingBlock: XIVTED_clean_linker_0, # of connection points: 2
#     Edge 64, Type (0, 0), BuildingBlock: XIVTED_clean_linker_0, # of connection points: 2
#     Edge 65, Type (0, 0), BuildingBlock: XIVTED_clean_linker_0, # of connection points: 2
#     Edge 66, Type (0, 0), BuildingBlock: XIVTED_clean_linker_0, # of connection points: 2
#     Edge 67, Type (0, 0), BuildingBlock: XIVTED_clean_linker_0, # of connection points: 2
#     Edge 68, Type (0, 0), BuildingBlock: XIVTED_clean_linker_0, # of connection points: 2
#     Edge 69, Type (0, 0), BuildingBlock: XIVTED_clean_linker_0, # of connection points: 2
#     Edge 70, Type (0, 0), BuildingBlock: XIVTED_clean_linker_0, # of connection points: 2
#     Edge 71, Type (0, 0), BuildingBlock: XIVTED_clean_linker_0, # of connection points: 2
# Relax obj value: 0.483
# Max RMSD: 0.265
# Mean RMSD: 0.265
data_MOF--net-xfd--node1-HICVOG_clean_sbu_0--edge1-XIVTED_clean_linker_0
_symmetry_space_group_name_H-M    P1
_symmetry_Int_Tables_number       1
_symmetry_cell_setting            triclinic
loop_
_symmetry_equiv_pos_as_xyz
'x, y, z'
_cell_length_a     43.423983
_cell_length_b     43.453884
_cell_length_c     21.294874
_cell_angle_alpha  89.967103
_cell_angle_beta   90.05465
_cell_angle_gamma 89.770916
loop_
_atom_site_label
_atom_site_type_symbol
_atom_site_fract_x
_atom_site_fract_y
_atom_site_fract_z
_atom_type_partial_charge
Zn0 Zn 0.96046 0.58563 0.38015 0.0
C1 C 0.02541 0.52274 0.42876 0.0
N2 N 1.00197 0.50301 0.42199 0.0
C3 C 0.97771 0.5214 0.4102 0.0
N4 N 0.98603 0.55148 0.41009 0.0
N5 N 0.0161 0.55204 0.4212 0.0
C6 C 0.07381 0.57461 0.28889 0.0
O7 O 0.04979 0.55957 0.26772 0.0
O8 O 0.9178 0.58695 0.42152 0.0
Zn9 Zn 0.04512 0.58573 0.41814 0.0
N10 N 0.95593 0.57887 0.29196 0.0
C11 C 0.97907 0.57663 0.19129 0.0
C12 C 0.98024 0.58512 0.25421 0.0
C13 C 0.9301 0.56522 0.26955 0.0
N14 N 0.95341 0.5627 0.16881 0.0
C15 C 0.92862 0.5566 0.20602 0.0
O16 O 0.02704 0.62794 0.4161 0.0
C17 C 1.00241 0.64286 0.4056 0.0
O18 O 0.97741 0.62915 0.39206 0.0
H19 H 1.00055 0.59593 0.27345 0.0
H20 H 0.91187 0.55992 0.30214 0.0
C21 C 0.10133 0.59299 0.48367 0.0
C22 C 0.12085 0.59406 0.53612 0.0
C23 C 0.07913 0.57823 0.60045 0.0
C24 C 0.05983 0.57734 0.54817 0.0
N25 N 0.07139 0.58456 0.49088 0.0
N26 N 0.10909 0.58651 0.59334 0.0
H27 H 0.10967 0.59934 0.43767 0.0
C28 C 0.90014 0.60769 0.39893 0.0
O29 O 0.91016 0.6239 0.35105 0.0
O30 O 0.07406 0.58452 0.34488 0.0
H31 H 0.03584 0.5712 0.5531 0.0
H32 H 0.99836 0.58105 0.1605 0.0
H33 H 0.07014 0.57308 0.64651 0.0
Zn34 Zn 0.68329 0.70276 0.62902 0.0
C35 C 0.74798 0.76661 0.67211 0.0
N36 N 0.76719 0.74285 0.66255 0.0
C37 C 0.74815 0.71915 0.65174 0.0
N38 N 0.71824 0.72812 0.65474 0.0
N39 N 0.71836 0.75808 0.66695 0.0
C40 C 0.69716 0.80677 0.53133 0.0
O41 O 0.70907 0.77922 0.52364 0.0
O42 O 0.6808 0.66175 0.67675 0.0
Zn43 Zn 0.68549 0.78838 0.6625 0.0
N44 N 0.68941 0.6939 0.54187 0.0
C45 C 0.68861 0.71047 0.43575 0.0
C46 C 0.68116 0.71529 0.49854 0.0
C47 C 0.7036 0.66724 0.52511 0.0
N48 N 0.70307 0.68399 0.41893 0.0
C49 C 0.71076 0.66194 0.46181 0.0
O50 O 0.64282 0.77158 0.66123 0.0
C51 C 0.62738 0.74733 0.65152 0.0
O52 O 0.64052 0.72181 0.639 0.0
H53 H 0.66932 0.73603 0.51298 0.0
H54 H 0.71004 0.65102 0.56132 0.0
C55 C 0.67705 0.84544 0.7242 0.0
C56 C 0.67534 0.86567 0.77544 0.0
C57 C 0.69317 0.82556 0.84216 0.0
C58 C 0.69453 0.8055 0.79118 0.0
N59 N 0.68676 0.81595 0.7332 0.0
N60 N 0.68364 0.85509 0.83326 0.0
H61 H 0.67002 0.85278 0.67779 0.0
C62 C 0.65966 0.6442 0.65595 0.0
O63 O 0.64366 0.65352 0.60705 0.0
O64 O 0.68817 0.81496 0.58545 0.0
H65 H 0.70146 0.78177 0.79764 0.0
H66 H 0.68264 0.72742 0.40052 0.0
H67 H 0.69887 0.81746 0.88871 0.0
Zn68 Zn 0.56156 0.42536 0.87864 0.0
C69 C 0.49239 0.48859 0.88404 0.0
N70 N 0.51591 0.50845 0.88204 0.0
C71 C 0.54112 0.49059 0.88693 0.0
N72 N 0.53332 0.46046 0.89287 0.0
N73 N 0.50271 0.45958 0.89173 0.0
C74 C 0.4453 0.42933 0.78216 0.0
O75 O 0.47426 0.43239 0.76561 0.0
O76 O 0.59914 0.42304 0.93709 0.0
Zn77 Zn 0.47467 0.42545 0.90076 0.0
N78 N 0.5768 0.43168 0.7956 0.0
C79 C 0.56525 0.43635 0.68704 0.0
C80 C 0.55667 0.42777 0.74749 0.0
C81 C 0.6056 0.44282 0.78592 0.0
N82 N 0.59374 0.44811 0.67734 0.0
C83 C 0.61433 0.45164 0.72513 0.0
O84 O 0.49243 0.38399 0.8858 0.0
C85 C 0.51713 0.36877 0.87908 0.0
O86 O 0.54323 0.38202 0.87783 0.0
H87 H 0.53385 0.41903 0.75661 0.0
H88 H 0.62087 0.44602 0.82552 0.0
C89 C 0.43126 0.41907 0.00314 0.0
C90 C 0.42382 0.41294 0.06624 0.0
C91 C 0.47685 0.41748 0.09286 0.0
C92 C 0.48392 0.42387 0.03054 0.0
N93 N 0.46113 0.424 0.98684 0.0
N94 N 0.44724 0.41152 0.10884 0.0
H95 H 0.4137 0.41896 0.96705 0.0
C96 C 0.59838 0.40688 0.987 0.0
O97 O 0.57184 0.39556 0.0053 0.0
O98 O 0.43877 0.42779 0.84028 0.0
H99 H 0.50757 0.42742 0.01642 0.0
H100 H 0.54937 0.43388 0.64822 0.0
H101 H 0.49481 0.41654 0.12805 0.0
Zn102 Zn 0.83683 0.3093 0.13835 0.0
C103 C 0.77642 0.2401 0.17097 0.0
N104 N 0.75525 0.26258 0.17 0.0
C105 C 0.77212 0.28826 0.16497 0.0
N106 N 0.80286 0.28179 0.16281 0.0
N107 N 0.80508 0.25132 0.16684 0.0
C108 C 0.82708 0.19614 0.03171 0.0
O109 O 0.81422 0.22186 0.01247 0.0
O110 O 0.84016 0.34963 0.18843 0.0
Zn111 Zn 0.83944 0.22287 0.16056 0.0
N112 N 0.82908 0.31857 0.05206 0.0
C113 C 0.82429 0.2997 0.94807 0.0
C114 C 0.83339 0.29549 0.01011 0.0
C115 C 0.81685 0.3461 0.03467 0.0
N116 N 0.81182 0.32707 0.93054 0.0
C117 C 0.80777 0.35066 0.97198 0.0
O118 O 0.88092 0.24107 0.15532 0.0
C119 C 0.8953 0.26614 0.14908 0.0
O120 O 0.88095 0.29159 0.14316 0.0
H121 H 0.84319 0.27385 0.02542 0.0
H122 H 0.81308 0.36343 0.07019 0.0
C123 C 0.85087 0.16707 0.22549 0.0
C124 C 0.85328 0.14757 0.27773 0.0
C125 C 0.83655 0.18861 0.34309 0.0
C126 C 0.83393 0.20782 0.29093 0.0
N127 N 0.84094 0.19659 0.23322 0.0
N128 N 0.84602 0.15899 0.33538 0.0
H129 H 0.85726 0.159 0.17924 0.0
C130 C 0.86319 0.36495 0.16851 0.0
O131 O 0.87794 0.35462 0.11891 0.0
O132 O 0.83666 0.19387 0.08779 0.0
H133 H 0.82666 0.23151 0.29626 0.0
H134 H 0.82716 0.28144 0.91403 0.0
H135 H 0.83166 0.1974 0.38947 0.0
Zn136 Zn 0.04431 0.42968 0.61662 0.0
C137 C 0.9831 0.50046 0.60594 0.0
N138 N 0.00766 0.51652 0.62529 0.0
C139 C 0.02985 0.49512 0.62992 0.0
N140 N 0.01947 0.46699 0.61433 0.0
N141 N 0.98989 0.47002 0.59897 0.0
C142 C 0.90719 0.41226 0.54802 0.0
O143 O 0.91487 0.3938 0.59439 0.0
O144 O 0.08039 0.4317 0.67743 0.0
Zn145 Zn 0.96137 0.43498 0.59813 0.0
N146 N 0.05885 0.42135 0.53206 0.0
C147 C 0.04509 0.41199 0.42567 0.0
C148 C 0.03695 0.42039 0.48653 0.0
C149 C 0.08893 0.41509 0.5187 0.0
N150 N 0.07493 0.40527 0.41253 0.0
C151 C 0.09745 0.40724 0.45692 0.0
O152 O 0.98068 0.39197 0.58499 0.0
C153 C 1.00168 0.37748 0.61463 0.0
O154 O 0.02226 0.39163 0.64527 0.0
H155 H 0.01321 0.42553 0.49785 0.0
H156 H 0.10597 0.41607 0.55577 0.0
C157 C 0.91575 0.44619 0.69298 0.0
C158 C 0.90663 0.45292 0.75459 0.0
C159 C 0.95687 0.44025 0.79067 0.0
C160 C 0.96581 0.43363 0.72942 0.0
N161 N 0.94518 0.43687 0.6819 0.0
N162 N 0.92759 0.44971 0.80182 0.0
H163 H 0.90017 0.44986 0.65405 0.0
C164 C 0.07487 0.43496 0.73575 0.0
O165 O 0.04651 0.44081 0.75362 0.0
O166 O 0.92448 0.43533 0.53636 0.0
H167 H 0.98929 0.42716 0.71934 0.0
H168 H 0.0278 0.41061 0.38919 0.0
H169 H 0.97311 0.43814 0.829 0.0
Zn170 Zn 0.83664 0.71058 0.84166 0.0
C171 C 0.77634 0.77983 0.87263 0.0
N172 N 0.75511 0.75762 0.86839 0.0
C173 C 0.77142 0.73292 0.85005 0.0
N174 N 0.8018 0.7396 0.84333 0.0
N175 N 0.80462 0.76924 0.85769 0.0
C176 C 0.83572 0.82443 0.97679 0.0
O177 O 0.83062 0.79606 0.99523 0.0
O178 O 0.83442 0.67345 0.78159 0.0
Zn179 Zn 0.84206 0.7933 0.85949 0.0
N180 N 0.83522 0.69357 0.92418 0.0
C181 C 0.83126 0.70274 0.03372 0.0
C182 C 0.83719 0.71334 0.97332 0.0
C183 C 0.82796 0.66347 0.9326 0.0
N184 N 0.82373 0.67276 0.04227 0.0
C185 C 0.82183 0.65263 0.99335 0.0
O186 O 0.87995 0.77066 0.8896 0.0
C187 C 0.89433 0.74946 0.86082 0.0
O188 O 0.88011 0.72859 0.83056 0.0
H189 H 0.84222 0.73732 0.96518 0.0
H190 H 0.82565 0.64867 0.89213 0.0
C191 C 0.8548 0.83758 0.75999 0.0
C192 C 0.86368 0.84578 0.69863 0.0
C193 C 0.86516 0.79276 0.67124 0.0
C194 C 0.85533 0.78492 0.7313 0.0
N195 N 0.85099 0.80731 0.7749 0.0
N196 N 0.86953 0.82281 0.65668 0.0
H197 H 0.85116 0.85501 0.79551 0.0
C198 C 0.85064 0.67238 0.73173 0.0
O199 O 0.86375 0.69778 0.71188 0.0
O200 O 0.83932 0.82971 0.91851 0.0
H201 H 0.85183 0.76108 0.74365 0.0
H202 H 0.83237 0.71821 0.07344 0.0
H203 H 0.86947 0.77511 0.63652 0.0
Zn204 Zn 0.47591 0.58491 0.0738 0.0
C205 C 0.54362 0.52003 0.07874 0.0
N206 N 0.51862 0.50192 0.07623 0.0
C207 C 0.49518 0.5219 0.07029 0.0
N208 N 0.5051 0.5511 0.06938 0.0
N209 N 0.53562 0.55028 0.07421 0.0
C210 C 0.60224 0.60163 0.98792 0.0
O211 O 0.57596 0.61166 0.96496 0.0
O212 O 0.44725 0.58287 0.14753 0.0
Zn213 Zn 0.56276 0.58521 0.09302 0.0
N214 N 0.44923 0.5853 0.00172 0.0
C215 C 0.44088 0.58107 0.89198 0.0
C216 C 0.4604 0.57879 0.94374 0.0
C217 C 0.41945 0.59433 0.01016 0.0
N218 N 0.41102 0.58968 0.90036 0.0
C219 C 0.39963 0.59641 0.95833 0.0
O220 O 0.54443 0.62874 0.08737 0.0
C221 C 0.51834 0.64194 0.08154 0.0
O222 O 0.49379 0.62654 0.07671 0.0
H223 H 0.48428 0.57221 0.93788 0.0
H224 H 0.41142 0.60028 0.05665 0.0
C225 C 0.60386 0.56786 0.19039 0.0
C226 C 0.61175 0.55999 0.2523 0.0
C227 C 0.56153 0.57495 0.28539 0.0
C228 C 0.55404 0.58303 0.224 0.0
N229 N 0.57523 0.57898 0.17794 0.0
N230 N 0.5901 0.56377 0.29805 0.0
H231 H 0.61968 0.56429 0.15193 0.0
C232 C 0.4504 0.57534 0.20472 0.0
O233 O 0.47687 0.56431 0.22461 0.0
O234 O 0.602 0.58691 0.03968 0.0
H235 H 0.53136 0.5917 0.21256 0.0
H236 H 0.44961 0.57652 0.8454 0.0
H237 H 0.54486 0.57759 0.32272 0.0
Zn238 Zn 0.68445 0.22049 0.33214 0.0
C239 C 0.75157 0.28609 0.33987 0.0
N240 N 0.76871 0.26052 0.34624 0.0
C241 C 0.74811 0.23762 0.34656 0.0
N242 N 0.71932 0.24859 0.3387 0.0
N243 N 0.72102 0.27921 0.33609 0.0
C244 C 0.66089 0.36491 0.3191 0.0
O245 O 0.64566 0.35627 0.36937 0.0
O246 O 0.68615 0.18473 0.39355 0.0
Zn247 Zn 0.6867 0.30827 0.35496 0.0
N248 N 0.68022 0.20594 0.24616 0.0
C249 C 0.67027 0.22178 0.14121 0.0
C250 C 0.67891 0.22869 0.20251 0.0
C251 C 0.67407 0.17612 0.23043 0.0
N252 N 0.66357 0.19228 0.12577 0.0
C253 C 0.66603 0.1688 0.16795 0.0
O254 O 0.64297 0.29032 0.35682 0.0
C255 C 0.62933 0.26443 0.35639 0.0
O256 O 0.6441 0.23953 0.34918 0.0
H257 H 0.68324 0.25227 0.2161 0.0
H258 H 0.67477 0.15847 0.26628 0.0
C259 C 0.70662 0.34914 0.45284 0.0
C260 C 0.71578 0.35583 0.51464 0.0
C261 C 0.70013 0.30571 0.54599 0.0
C262 C 0.69098 0.29935 0.48479 0.0
N263 N 0.69483 0.32095 0.4395 0.0
N264 N 0.71222 0.33369 0.55941 0.0
H265 H 0.71002 0.36542 0.41512 0.0
C266 C 0.68849 0.19052 0.45191 0.0
O267 O 0.69325 0.21903 0.46967 0.0
O268 O 0.68282 0.34758 0.29992 0.0
H269 H 0.68158 0.27716 0.47281 0.0
H270 H 0.66838 0.2398 0.10633 0.0
H271 H 0.69764 0.28863 0.58259 0.0
Zn272 Zn 0.34089 0.2059 0.35522 0.0
C273 C 0.27912 0.27544 0.33849 0.0
N274 N 0.25853 0.25259 0.34136 0.0
C275 C 0.27595 0.22704 0.33986 0.0
N276 N 0.30643 0.23398 0.33656 0.0
N277 N 0.30797 0.26448 0.33458 0.0
C278 C 0.3366 0.32258 0.44458 0.0
O279 O 0.33106 0.29418 0.46224 0.0
O280 O 0.34246 0.16792 0.29944 0.0
Zn281 Zn 0.3422 0.29221 0.32619 0.0
N282 N 0.33396 0.19257 0.43946 0.0
C283 C 0.32929 0.20664 0.54668 0.0
C284 C 0.33796 0.21374 0.48553 0.0
C285 C 0.32268 0.16409 0.45192 0.0
N286 N 0.31742 0.17846 0.55917 0.0
C287 C 0.31381 0.15677 0.51354 0.0
O288 O 0.38314 0.27396 0.34196 0.0
C289 C 0.39817 0.24937 0.35123 0.0
O290 O 0.38471 0.22345 0.35507 0.0
H291 H 0.34696 0.2362 0.47423 0.0
H292 H 0.31936 0.14808 0.41368 0.0
C293 C 0.34867 0.33588 0.22466 0.0
C294 C 0.35455 0.34377 0.16174 0.0
C295 C 0.34996 0.29098 0.13373 0.0
C296 C 0.34383 0.28346 0.19596 0.0
N297 N 0.34385 0.30592 0.24025 0.0
N298 N 0.35583 0.3207 0.11844 0.0
H299 H 0.34887 0.35317 0.2612 0.0
C300 C 0.35726 0.16886 0.24794 0.0
O301 O 0.36749 0.19555 0.22799 0.0
O302 O 0.34016 0.3282 0.38644 0.0
H303 H 0.34027 0.25973 0.20949 0.0
H304 H 0.33184 0.22336 0.58391 0.0
H305 H 0.35076 0.27329 0.09804 0.0
Zn306 Zn 0.18189 0.72237 0.85667 0.0
C307 C 0.24708 0.78898 0.8467 0.0
N308 N 0.26521 0.7639 0.85062 0.0
C309 C 0.24533 0.74036 0.85146 0.0
N310 N 0.21606 0.75048 0.84786 0.0
N311 N 0.21686 0.781 0.84376 0.0
C312 C 0.15897 0.86574 0.81251 0.0
O313 O 0.14345 0.86046 0.86431 0.0
O314 O 0.18575 0.69382 0.93027 0.0
Zn315 Zn 0.18189 0.80934 0.85633 0.0
N316 N 0.18134 0.69568 0.78521 0.0
C317 C 0.18511 0.68726 0.67543 0.0
C318 C 0.18763 0.70676 0.72706 0.0
C319 C 0.17274 0.66594 0.7941 0.0
N320 N 0.17686 0.65741 0.68426 0.0
C321 C 0.17073 0.64611 0.74253 0.0
O322 O 0.13853 0.7912 0.85262 0.0
C323 C 0.12476 0.76552 0.85735 0.0
O324 O 0.13944 0.74032 0.86136 0.0
H325 H 0.19397 0.73062 0.72089 0.0
H326 H 0.16697 0.65795 0.84072 0.0
C327 C 0.1996 0.8525 0.95145 0.0
C328 C 0.20711 0.86081 0.0132 0.0
C329 C 0.19015 0.8118 0.04853 0.0
C330 C 0.18241 0.80386 0.98726 0.0
N331 N 0.18764 0.82418 0.94011 0.0
N332 N 0.20219 0.84001 0.06004 0.0
H333 H 0.20425 0.86776 0.91251 0.0
C334 C 0.19041 0.6989 0.98811 0.0
O335 O 0.19656 0.72696 0.00709 0.0
O336 O 0.17956 0.84635 0.7958 0.0
H337 H 0.17314 0.7814 0.97676 0.0
H338 H 0.18927 0.69592 0.62863 0.0
H339 H 0.18658 0.79576 0.08667 0.0
Zn340 Zn 0.18494 0.20648 0.14207 0.0
C341 C 0.24641 0.27493 0.1687 0.0
N342 N 0.2668 0.25204 0.16006 0.0
C343 C 0.24942 0.22662 0.15784 0.0
N344 N 0.21906 0.23376 0.16528 0.0
N345 N 0.21753 0.26415 0.17326 0.0
C346 C 0.1881 0.32453 0.06792 0.0
O347 O 0.19593 0.29683 0.04908 0.0
O348 O 0.18249 0.16651 0.19343 0.0
Zn349 Zn 0.18274 0.29231 0.18534 0.0
N350 N 0.19308 0.19604 0.05625 0.0
C351 C 0.1979 0.21302 0.9508 0.0
C352 C 0.18888 0.21838 0.01251 0.0
C353 C 0.20532 0.16821 0.04092 0.0
N354 N 0.21006 0.18524 0.93527 0.0
C355 C 0.21399 0.16241 0.97853 0.0
O356 O 0.14169 0.27415 0.16856 0.0
C357 C 0.12713 0.24992 0.15442 0.0
O358 O 0.14116 0.22457 0.14468 0.0
H359 H 0.17925 0.24035 0.02603 0.0
H360 H 0.2091 0.15138 0.07749 0.0
C361 C 0.17431 0.33441 0.29221 0.0
C362 C 0.16819 0.34034 0.35627 0.0
C363 C 0.17507 0.28696 0.37769 0.0
C364 C 0.18163 0.28147 0.31476 0.0
N365 N 0.18063 0.30507 0.27302 0.0
N366 N 0.16794 0.31593 0.3965 0.0
H367 H 0.1733 0.35273 0.25781 0.0
C368 C 0.16106 0.14898 0.17368 0.0
O369 O 0.14514 0.15788 0.12434 0.0
O370 O 0.18359 0.32909 0.12623 0.0
H371 H 0.18624 0.2583 0.29861 0.0
H372 H 0.19512 0.23068 0.91541 0.0
H373 H 0.17503 0.26824 0.41119 0.0
Zn374 Zn 0.33893 0.71758 0.64442 0.0
C375 C 0.27364 0.78453 0.65508 0.0
N376 N 0.25556 0.7595 0.65334 0.0
C377 C 0.27552 0.73586 0.65227 0.0
N378 N 0.30475 0.74589 0.65358 0.0
N379 N 0.3039 0.77645 0.65607 0.0
C380 C 0.35511 0.8446 0.7434 0.0
O381 O 0.36619 0.81876 0.76637 0.0
O382 O 0.33687 0.68995 0.56899 0.0
Zn383 Zn 0.33822 0.80458 0.63858 0.0
N384 N 0.33965 0.69007 0.71466 0.0
C385 C 0.33777 0.68171 0.82459 0.0
C386 C 0.33403 0.70111 0.7731 0.0
C387 C 0.34878 0.66042 0.70533 0.0
N388 N 0.34659 0.65199 0.81543 0.0
C389 C 0.35209 0.64066 0.75691 0.0
O390 O 0.38201 0.78712 0.64282 0.0
C391 C 0.39563 0.76112 0.64366 0.0
O392 O 0.38059 0.7362 0.64357 0.0
H393 H 0.32753 0.72495 0.77959 0.0
H394 H 0.35423 0.65256 0.65844 0.0
C395 C 0.31975 0.84629 0.54369 0.0
C396 C 0.3111 0.85473 0.48254 0.0
C397 C 0.32604 0.80497 0.4467 0.0
C398 C 0.33492 0.79698 0.50737 0.0
N399 N 0.33127 0.81768 0.55442 0.0
N400 N 0.31451 0.83356 0.43574 0.0
H401 H 0.31645 0.86165 0.58298 0.0
C402 C 0.32994 0.69379 0.51164 0.0
O403 O 0.31961 0.72062 0.49239 0.0
O404 O 0.33958 0.84368 0.69264 0.0
H405 H 0.34392 0.7743 0.51753 0.0
H406 H 0.33444 0.69049 0.87154 0.0
H407 H 0.32837 0.78869 0.40858 0.0
Zn408 Zn 0.46013 0.07977 0.88066 0.0
C409 C 0.5316 0.01904 0.88494 0.0
N410 N 0.50898 0.99818 0.88398 0.0
C411 C 0.48336 0.01504 0.8922 0.0
N412 N 0.48977 0.0456 0.89734 0.0
N413 N 0.52037 0.04763 0.89395 0.0
C414 C 0.57835 0.0795 0.78414 0.0
O415 O 0.5498 0.07498 0.76612 0.0
O416 O 0.42124 0.08427 0.93744 0.0
Zn417 Zn 0.54807 0.08239 0.90322 0.0
N418 N 0.44647 0.07105 0.79698 0.0
C419 C 0.46099 0.06358 0.69064 0.0
C420 C 0.46804 0.07325 0.75118 0.0
C421 C 0.41777 0.06017 0.78483 0.0
N422 N 0.4324 0.05268 0.6783 0.0
C423 C 0.41033 0.05068 0.72361 0.0
O424 O 0.52897 0.12292 0.88745 0.0
C425 C 0.50396 0.13743 0.87917 0.0
O426 O 0.47822 0.1235 0.87736 0.0
H427 H 0.49073 0.08173 0.7623 0.0
H428 H 0.40151 0.05796 0.82293 0.0
C429 C 0.59188 0.09186 0.00512 0.0
C430 C 0.59954 0.09772 0.06837 0.0
C431 C 0.54725 0.08891 0.09642 0.0
C432 C 0.54003 0.08273 0.03403 0.0
N433 N 0.5623 0.0847 0.98951 0.0
N434 N 0.57652 0.09672 0.11182 0.0
H435 H 0.60908 0.09355 0.96854 0.0
C436 C 0.40436 0.10662 0.91829 0.0
O437 O 0.4131 0.12134 0.86746 0.0
O438 O 0.58412 0.08131 0.84259 0.0
H439 H 0.51659 0.07749 0.02064 0.0
H440 H 0.47801 0.0648 0.65368 0.0
H441 H 0.52965 0.08801 0.13226 0.0
Zn442 Zn 0.06209 0.9314 0.39278 0.0
C443 C 0.99331 0.9942 0.40692 0.0
N444 N 0.01685 0.01403 0.40381 0.0
C445 C 0.04207 0.99613 0.40725 0.0
N446 N 0.0343 0.96599 0.41312 0.0
N447 N 1.00365 0.96513 0.41396 0.0
C448 C 0.94402 0.93493 0.30874 0.0
O449 O 0.97257 0.93882 0.29034 0.0
O450 O 0.10188 0.92798 0.44553 0.0
Zn451 Zn 0.97534 0.93089 0.42572 0.0
N452 N 0.07354 0.93891 0.30721 0.0
C453 C 0.05691 0.9443 0.20155 0.0
C454 C 0.05135 0.93508 0.26305 0.0
C455 C 0.10154 0.95074 0.29237 0.0
N456 N 0.08471 0.9564 0.18665 0.0
C457 C 0.10741 0.95987 0.23029 0.0
O458 O 0.99306 0.88923 0.41086 0.0
C459 C 0.01779 0.8744 0.40119 0.0
O460 O 0.04349 0.88812 0.39542 0.0
H461 H 0.02933 0.92563 0.27615 0.0
H462 H 0.11839 0.95412 0.32908 0.0
C463 C 0.9336 0.92242 0.5319 0.0
C464 C 0.92761 0.91749 0.5962 0.0
C465 C 0.98034 0.92767 0.61845 0.0
C466 C 0.9859 0.93299 0.5551 0.0
N467 N 0.96264 0.92986 0.51297 0.0
N468 N 0.95166 0.91951 0.63714 0.0
H469 H 0.91562 0.91966 0.49716 0.0
C470 C 0.11862 0.90562 0.42647 0.0
O471 O 0.10919 0.89 0.3773 0.0
O472 O 0.93852 0.93285 0.36722 0.0
H473 H 0.00889 0.93841 0.53911 0.0
H474 H 0.03934 0.94184 0.16588 0.0
H475 H 0.99878 0.92941 0.65244 0.0
Zn476 Zn 0.54304 0.92709 0.09602 0.0
C477 C 0.47942 0.99556 0.08704 0.0
N478 N 0.50544 0.01218 0.08657 0.0
C479 C 0.52752 0.99062 0.0879 0.0
N480 N 0.51582 0.96214 0.0897 0.0
N481 N 0.48532 0.96477 0.08918 0.0
C482 C 0.39732 0.91027 0.08119 0.0
O483 O 0.40589 0.89348 0.12955 0.0
O484 O 0.56741 0.92467 0.1776 0.0
Zn485 Zn 0.45656 0.93136 0.1107 0.0
N486 N 0.5725 0.92848 0.02869 0.0
C487 C 0.58196 0.93308 0.91934 0.0
C488 C 0.5618 0.93444 0.97001 0.0
C489 C 0.60252 0.92075 0.03889 0.0
N490 N 0.612 0.92572 0.92935 0.0
C491 C 0.623 0.91943 0.98789 0.0
O492 O 0.47235 0.88681 0.09902 0.0
C493 C 0.49752 0.87279 0.08718 0.0
O494 O 0.52277 0.88711 0.08412 0.0
H495 H 0.53771 0.9398 0.96277 0.0
H496 H 0.61015 0.91512 0.08591 0.0
C497 C 0.41988 0.94933 0.21548 0.0
C498 C 0.41499 0.95826 0.2781 0.0
C499 C 0.46696 0.94481 0.30139 0.0
C500 C 0.47149 0.93591 0.23932 0.0
N501 N 0.44787 0.93827 0.19785 0.0
N502 N 0.43893 0.95558 0.31926 0.0
H503 H 0.40242 0.95254 0.18005 0.0
C504 C 0.5614 0.90245 0.21448 0.0
O505 O 0.53664 0.88595 0.20453 0.0
O506 O 0.41565 0.93111 0.06157 0.0
H507 H 0.49386 0.92821 0.22359 0.0
H508 H 0.57362 0.93726 0.87226 0.0
H509 H 0.48556 0.9433 0.33509 0.0
Zn510 Zn 0.97519 0.09217 0.59925 0.0
C511 C 0.0393 0.02414 0.58813 0.0
N512 N 0.01335 0.00748 0.58771 0.0
C513 C 0.99102 0.0288 0.58957 0.0
N514 N 1.00258 0.05736 0.59113 0.0
N515 N 0.03306 0.05489 0.58979 0.0
C516 C 0.11984 0.10871 0.564 0.0
O517 O 0.11567 0.12427 0.6162 0.0
O518 O 0.94622 0.08861 0.67179 0.0
Zn519 Zn 0.06208 0.08871 0.60581 0.0
N520 N 0.94899 0.09338 0.52677 0.0
C521 C 0.9416 0.08819 0.41692 0.0
C522 C 0.96078 0.08692 0.46928 0.0
C523 C 0.91883 0.10114 0.53428 0.0
N524 N 0.91135 0.09554 0.42435 0.0
C525 C 0.89931 0.102 0.48189 0.0
O526 O 0.04524 0.13289 0.60225 0.0
C527 C 0.01978 0.14745 0.60472 0.0
O528 O 0.99414 0.13368 0.6058 0.0
H529 H 0.98488 0.081 0.46429 0.0
H530 H 0.91018 0.1067 0.58053 0.0
C531 C 0.10417 0.07026 0.70298 0.0
C532 C 0.11186 0.06261 0.76504 0.0
C533 C 0.06235 0.07963 0.79813 0.0
C534 C 0.05503 0.08754 0.73655 0.0
N535 N 0.07589 0.08231 0.69031 0.0
N536 N 0.09051 0.06749 0.81091 0.0
H537 H 0.11987 0.06556 0.66479 0.0
C538 C 0.95031 0.0809 0.72861 0.0
O539 O 0.9776 0.0715 0.7473 0.0
O540 O 0.09927 0.08962 0.54676 0.0
H541 H 0.03264 0.09694 0.72509 0.0
H542 H 0.95079 0.08363 0.3707 0.0
H543 H 0.04587 0.08318 0.83551 0.0
H544 H 0.17006 0.64073 0.96284 0.0
H545 H 0.12551 0.60695 0.31926 0.0
H546 H 0.19237 0.70122 0.11706 0.0
H547 H 0.07832 0.56665 0.16091 0.0
H548 H 0.16108 0.63195 0.24728 0.0
H549 H 0.14783 0.60435 0.03716 0.0
C550 C 0.17079 0.64619 0.01245 0.0
C551 C 0.1826 0.67443 0.03367 0.0
C552 C 0.14319 0.61732 0.22836 0.0
C553 C 0.1572 0.63268 0.1188 0.0
C554 C 0.12284 0.60295 0.26935 0.0
C555 C 0.09844 0.58508 0.24601 0.0
C556 C 0.13934 0.61371 0.16347 0.0
C557 C 0.09654 0.58046 0.18094 0.0
C558 C 0.15798 0.62539 0.05474 0.0
C559 C 0.18319 0.67995 0.09853 0.0
N560 N 0.11653 0.595 0.14181 0.0
N561 N 0.17033 0.65939 0.1388 0.0
H562 H 0.68237 0.86804 0.52741 0.0
H563 H 0.56985 0.84337 0.25041 0.0
H564 H 0.68723 0.78668 0.41168 0.0
H565 H 0.60688 0.93448 0.27709 0.0
H566 H 0.60963 0.82267 0.31918 0.0
H567 H 0.65355 0.89428 0.44366 0.0
C568 C 0.67801 0.85596 0.48383 0.0
C569 C 0.68686 0.82501 0.47667 0.0
C570 C 0.60917 0.84718 0.30981 0.0
C571 C 0.65344 0.85455 0.38212 0.0
C572 C 0.58623 0.85911 0.27123 0.0
C573 C 0.5849 0.89076 0.25859 0.0
C574 C 0.63059 0.86705 0.33737 0.0
C575 C 0.60709 0.90995 0.28605 0.0
C576 C 0.66161 0.87095 0.43623 0.0
C577 C 0.68074 0.81046 0.4193 0.0
N578 N 0.62888 0.89783 0.32517 0.0
N579 N 0.66374 0.82512 0.37479 0.0
H580 H 0.38853 0.40289 0.79755 0.0
H581 H 0.36613 0.3777 0.42816 0.0
H582 H 0.44891 0.44023 0.65613 0.0
H583 H 0.32411 0.32087 0.57029 0.0
H584 H 0.3864 0.41111 0.51087 0.0
H585 H 0.35492 0.38338 0.71424 0.0
C586 C 0.39439 0.40756 0.74904 0.0
C587 C 0.42182 0.42276 0.73367 0.0
C588 C 0.37233 0.3916 0.52384 0.0
C589 C 0.38355 0.40046 0.63833 0.0
C590 C 0.36061 0.3726 0.47665 0.0
C591 C 0.34383 0.34616 0.49244 0.0
C592 C 0.36702 0.38424 0.58716 0.0
C593 C 0.33735 0.34075 0.55607 0.0
C594 C 0.37528 0.39627 0.70154 0.0
C595 C 0.42822 0.4282 0.67002 0.0
N596 N 0.34922 0.35942 0.60114 0.0
N597 N 0.40941 0.4168 0.62468 0.0
H598 H 0.81817 0.19482 0.90388 0.0
H599 H 0.95123 0.07362 0.85682 0.0
H600 H 0.8567 0.14199 0.05703 0.0
H601 H 0.89334 0.10502 0.70448 0.0
H602 H 0.91399 0.09483 0.93144 0.0
H603 H 0.84206 0.15896 0.82982 0.0
C604 C 0.83116 0.17541 0.92197 0.0
C605 C 0.83596 0.17181 0.98667 0.0
C606 C 0.90921 0.0966 0.88165 0.0
C607 C 0.86369 0.13099 0.9024 0.0
C608 C 0.93048 0.08448 0.83907 0.0
C609 C 0.92574 0.0881 0.77436 0.0
C610 C 0.8833 0.11277 0.85924 0.0
C611 C 0.89826 0.10216 0.754 0.0
C612 C 0.84482 0.15493 0.8797 0.0
C613 C 0.85284 0.14605 0.00748 0.0
N614 N 0.87838 0.11449 0.79626 0.0
N615 N 0.86656 0.12698 0.96547 0.0
H616 H 0.15605 0.37841 0.08652 0.0
H617 H 0.13073 0.40631 0.71815 0.0
H618 H 0.19958 0.32421 0.94162 0.0
H619 H 0.07258 0.44492 0.86247 0.0
H620 H 0.16455 0.38528 0.79983 0.0
H621 H 0.13402 0.41185 0.00536 0.0
C622 C 0.16148 0.37386 0.03775 0.0
C623 C 0.17935 0.34818 0.02084 0.0
C624 C 0.14461 0.39872 0.81357 0.0
C625 C 0.15406 0.38631 0.92769 0.0
C626 C 0.12537 0.41089 0.76694 0.0
C627 C 0.09851 0.42704 0.78348 0.0
C628 C 0.13706 0.4029 0.87719 0.0
C629 C 0.09281 0.43227 0.84753 0.0
C630 C 0.14875 0.39288 0.99141 0.0
C631 C 0.18561 0.3435 0.95682 0.0
N632 N 0.11172 0.41999 0.89199 0.0
N633 N 0.17276 0.36217 0.91261 0.0
H634 H 0.86339 0.8804 0.95868 0.0
H635 H 0.88835 0.9066 0.32697 0.0
H636 H 0.82372 0.82305 0.10274 0.0
H637 H 0.94538 0.94662 0.18286 0.0
H638 H 0.85436 0.88616 0.24524 0.0
H639 H 0.88305 0.91478 0.04031 0.0
C640 C 0.85826 0.87536 0.00738 0.0
C641 C 0.84237 0.8485 0.02401 0.0
C642 C 0.87404 0.89985 0.23161 0.0
C643 C 0.86489 0.88768 0.11754 0.0
C644 C 0.89336 0.91167 0.27824 0.0
C645 C 0.92002 0.92788 0.2616 0.0
C646 C 0.88135 0.9045 0.16802 0.0
C647 C 0.92534 0.9338 0.19771 0.0
C648 C 0.86962 0.89493 0.05396 0.0
C649 C 0.83631 0.84323 0.08787 0.0
N650 N 0.90638 0.92184 0.15323 0.0
N651 N 0.84786 0.86243 0.13234 0.0
H652 H 0.3566 0.63804 0.537 0.0
H653 H 0.39535 0.60315 0.178 0.0
H654 H 0.32508 0.69461 0.38277 0.0
H655 H 0.4497 0.56906 0.33335 0.0
H656 H 0.35957 0.62648 0.25232 0.0
H657 H 0.38036 0.60285 0.46208 0.0
C658 C 0.35422 0.64288 0.48732 0.0
C659 C 0.33927 0.66973 0.46619 0.0
C660 C 0.3791 0.61356 0.2701 0.0
C661 C 0.36646 0.62929 0.38029 0.0
C662 C 0.39957 0.60013 0.22777 0.0
C663 C 0.42598 0.58456 0.24947 0.0
C664 C 0.38485 0.61124 0.33468 0.0
C665 C 0.42989 0.58114 0.3145 0.0
C666 C 0.36791 0.62274 0.44465 0.0
C667 C 0.33667 0.67444 0.40122 0.0
N668 N 0.4097 0.59467 0.35488 0.0
N669 N 0.35044 0.65457 0.36053 0.0
H670 H 0.63357 0.10872 0.80245 0.0
H671 H 0.66007 0.13487 0.43415 0.0
H672 H 0.5766 0.06903 0.65772 0.0
H673 H 0.69885 0.19268 0.57846 0.0
H674 H 0.63924 0.10116 0.51581 0.0
H675 H 0.66722 0.12993 0.721 0.0
C676 C 0.62848 0.10392 0.75363 0.0
C677 C 0.60198 0.08745 0.7368 0.0
C678 C 0.6527 0.12098 0.52953 0.0
C679 C 0.64031 0.11172 0.6435 0.0
C680 C 0.66475 0.14015 0.48294 0.0
C681 C 0.68083 0.1669 0.49954 0.0
C682 C 0.65697 0.12848 0.59314 0.0
C683 C 0.6862 0.17254 0.56356 0.0
C684 C 0.64761 0.11618 0.70716 0.0
C685 C 0.59655 0.08196 0.67277 0.0
N686 N 0.67406 0.15368 0.60801 0.0
N687 N 0.61536 0.09429 0.62847 0.0
H688 H 0.88602 0.4922 0.84559 0.0
H689 H 0.81531 0.40899 0.02405 0.0
H690 H 0.85343 0.43165 0.6999 0.0
H691 H 0.77486 0.3626 0.86498 0.0
H692 H 0.81653 0.45579 0.96484 0.0
H693 H 0.83651 0.48787 0.89801 0.0
C694 C 0.86816 0.47841 0.82406 0.0
C695 C 0.87447 0.46061 0.77069 0.0
C696 C 0.80674 0.43579 0.94246 0.0
C697 C 0.81884 0.45338 0.83291 0.0
C698 C 0.80586 0.40859 0.97709 0.0
C699 C 0.79716 0.38097 0.94789 0.0
C700 C 0.80034 0.43485 0.87762 0.0
C701 C 0.78387 0.38289 0.88795 0.0
C702 C 0.83986 0.47562 0.85438 0.0
C703 C 0.85009 0.44465 0.74268 0.0
N704 N 0.78685 0.4091 0.85389 0.0
N705 N 0.82363 0.44053 0.77534 0.0
H706 H 0.27582 0.14111 0.61052 0.0
H707 H 0.39262 0.01422 0.6255 0.0
H708 H 0.32772 0.10075 0.45849 0.0
H709 H 0.35486 0.06749 0.77839 0.0
H710 H 0.34425 0.02055 0.56877 0.0
H711 H 0.27773 0.09192 0.66553 0.0
C712 C 0.28678 0.12166 0.58772 0.0
C713 C 0.30346 0.12562 0.53188 0.0
C714 C 0.34611 0.02981 0.61586 0.0
C715 C 0.3063 0.06974 0.59505 0.0
C716 C 0.37385 0.02637 0.64818 0.0
C717 C 0.37861 0.04222 0.70479 0.0
C718 C 0.32373 0.05013 0.63959 0.0
C719 C 0.35299 0.05614 0.73341 0.0
C720 C 0.28764 0.09347 0.61896 0.0
C721 C 0.31577 0.09932 0.5029 0.0
N722 N 0.32693 0.0607 0.69947 0.0
N723 N 0.31787 0.07267 0.53588 0.0
H724 H 0.70703 0.60427 0.51818 0.0
H725 H 0.667 0.57163 0.19069 0.0
H726 H 0.74239 0.65004 0.35344 0.0
H727 H 0.63005 0.52745 0.35583 0.0
H728 H 0.71622 0.57591 0.2428 0.0
H729 H 0.70554 0.55653 0.4603 0.0
C730 C 0.71556 0.60434 0.47051 0.0
C731 C 0.72266 0.63189 0.43911 0.0
C732 C 0.69768 0.56432 0.26712 0.0
C733 C 0.71937 0.57727 0.37188 0.0
C734 C 0.66925 0.56179 0.23713 0.0
C735 C 0.64354 0.55111 0.27067 0.0
C736 C 0.69979 0.55754 0.33154 0.0
C737 C 0.64875 0.53779 0.32976 0.0
C738 C 0.71465 0.57675 0.43717 0.0
C739 C 0.73466 0.62971 0.37815 0.0
N740 N 0.67602 0.54237 0.35935 0.0
N741 N 0.73155 0.60309 0.34557 0.0
H742 H 0.12157 0.99901 0.1339 0.0
H743 H 0.19266 0.91566 0.95424 0.0
H744 H 0.16436 0.94416 0.27882 0.0
H745 H 0.24394 0.87864 0.11071 0.0
H746 H 0.18893 0.96425 0.00765 0.0
H747 H 0.16932 0.99716 0.07434 0.0
C748 C 0.14123 0.98704 0.15376 0.0
C749 C 0.13826 0.96985 0.2092 0.0
C750 C 0.20181 0.94607 0.03039 0.0
C751 C 0.19217 0.96574 0.13949 0.0
C752 C 0.20417 0.91798 -0.00091 0.0
C753 C 0.21674 0.89236 0.03014 0.0
C754 C 0.21088 0.94783 0.09388 0.0
C755 C 0.2322 0.89736 0.08699 0.0
C756 C 0.16854 0.98572 0.11939 0.0
C757 C 0.16493 0.9565 0.23473 0.0
N758 N 0.22795 0.92426 0.11814 0.0
N759 N 0.1905 0.95383 0.19861 0.0
H760 H 0.84149 0.60127 0.92721 0.0
H761 H 0.86838 0.5541 0.25343 0.0
H762 H 0.78878 0.62817 0.09008 0.0
H763 H 0.92278 0.52851 0.0916 0.0
H764 H 0.82278 0.55302 0.18911 0.0
H765 H 0.84972 0.55104 0.97388 0.0
C766 C 0.83063 0.59642 0.97182 0.0
C767 C 0.81615 0.61972 0.00686 0.0
C768 C 0.84458 0.54675 0.16784 0.0
C769 C 0.82697 0.5627 0.06165 0.0
C770 C 0.87105 0.54749 0.20486 0.0
C771 C 0.90019 0.54401 0.17679 0.0
C772 C 0.84756 0.54408 0.10238 0.0
C773 C 0.9011 0.53376 0.1143 0.0
C774 C 0.83541 0.56751 -0.00133 0.0
C775 C 0.80182 0.61144 0.0633 0.0
N776 N 0.87531 0.5353 0.07844 0.0
N777 N 0.80846 0.58389 0.0901 0.0
H778 H 0.24898 0.14805 0.87584 0.0
H779 H 0.12897 0.02599 0.86354 0.0
H780 H 0.20165 0.10538 0.03118 0.0
H781 H 0.16715 0.07709 0.70842 0.0
H782 H 0.17821 0.0299 0.91791 0.0
H783 H 0.24473 0.10008 0.81732 0.0
C784 C 0.23855 0.12835 0.89853 0.0
C785 C 0.22372 0.13148 0.95673 0.0
C786 C 0.17622 0.03927 0.8709 0.0
C787 C 0.21814 0.07697 0.8896 0.0
C788 C 0.14799 0.03717 0.83996 0.0
C789 C 0.14334 0.05298 0.78329 0.0
C790 C 0.19915 0.05846 0.84596 0.0
C791 C 0.16913 0.06573 0.75345 0.0
C792 C 0.23631 0.10084 0.86518 0.0
C793 C 0.21212 0.10476 0.98517 0.0
N794 N 0.1957 0.06916 0.78618 0.0
N795 N 0.20861 0.07887 0.95041 0.0
H796 H 0.63216 0.49367 0.63686 0.0
H797 H 0.70335 0.41233 0.45913 0.0
H798 H 0.669 0.43351 0.77963 0.0
H799 H 0.75205 0.37121 0.61491 0.0
H800 H 0.70056 0.45996 0.51568 0.0
H801 H 0.68187 0.49282 0.58401 0.0
C802 C 0.65095 0.48073 0.65772 0.0
C803 C 0.64587 0.46184 0.71009 0.0
C804 C 0.71267 0.44104 0.53768 0.0
C805 C 0.70179 0.45872 0.64746 0.0
C806 C 0.71443 0.41343 0.50458 0.0
C807 C 0.72588 0.38691 0.53432 0.0
C808 C 0.721 0.44146 0.60168 0.0
C809 C 0.74099 0.39058 0.59206 0.0
C810 C 0.67935 0.47998 0.62719 0.0
C811 C 0.67136 0.44719 0.73745 0.0
N812 N 0.73717 0.41705 0.62496 0.0
N813 N 0.69801 0.44505 0.70455 0.0
H814 H 0.32233 0.90932 0.54713 0.0
H815 H 0.35688 0.95219 0.22204 0.0
H816 H 0.27832 0.87414 0.38009 0.0
H817 H 0.40139 0.98689 0.38922 0.0
H818 H 0.30908 0.94934 0.27881 0.0
H819 H 0.32697 0.95892 0.49707 0.0
C820 C 0.31262 0.912 0.50068 0.0
C821 C 0.30199 0.88666 0.4659 0.0
C822 C 0.32908 0.95845 0.30279 0.0
C823 C 0.30886 0.94335 0.40743 0.0
C824 C 0.35683 0.96005 0.27014 0.0
C825 C 0.38416 0.96755 0.30217 0.0
C826 C 0.32909 0.96287 0.36812 0.0
C827 C 0.38142 0.97881 0.36371 0.0
C828 C 0.31535 0.94067 0.47187 0.0
C829 C 0.2887 0.89251 0.40702 0.0
N830 N 0.35465 0.97506 0.39549 0.0
N831 N 0.29353 0.91999 0.37855 0.0
H832 H 0.19449 0.41313 0.50056 0.0
H833 H 0.04688 0.50289 0.31819 0.0
H834 H 0.12149 0.37731 0.29392 0.0
H835 H 0.07382 0.51674 0.51029 0.0
H836 H 0.09341 0.47243 0.30073 0.0
H837 H 0.16064 0.46583 0.48409 0.0
C838 C 0.17725 0.4137 0.46308 0.0
C839 C 0.15931 0.37271 0.37825 0.0
C840 C 0.08975 0.48285 0.34631 0.0
C841 C 0.13057 0.44997 0.39359 0.0
C842 C 0.06336 0.50042 0.35613 0.0
C843 C 0.05689 0.51229 0.41578 0.0
C844 C 0.1093 0.47644 0.39705 0.0
C845 C 0.07835 0.50792 0.46384 0.0
C846 C 0.15707 0.44685 0.45209 0.0
C847 C 0.13179 0.38991 0.3323 0.0
N848 N 0.10349 0.48973 0.45387 0.0
N849 N 0.12164 0.42413 0.34442 0.0
H850 H 0.76736 0.78859 0.56154 0.0
H851 H 0.85233 0.94274 0.74197 0.0
H852 H 0.75507 0.81413 0.75489 0.0
H853 H 0.89242 0.86742 0.53459 0.0
H854 H 0.80038 0.90467 0.72692 0.0
H855 H 0.79644 0.83574 0.54376 0.0
C856 C 0.76984 0.80486 0.59972 0.0
C857 C 0.75859 0.79797 0.65966 0.0
C858 C 0.81955 0.90189 0.69504 0.0
C859 C 0.7926 0.85119 0.64031 0.0
C860 C 0.85247 0.92503 0.70549 0.0
C861 C 0.89575 0.90748 0.61792 0.0
C862 C 0.81781 0.87353 0.63581 0.0
C863 C 0.87923 0.87751 0.57244 0.0
C864 C 0.78656 0.83161 0.58966 0.0
C865 C 0.76305 0.81916 0.70805 0.0
N866 N 0.84477 0.86518 0.58552 0.0
N867 N 0.78023 0.8448 0.69765 0.0
H868 H 0.48989 0.50127 0.76111 0.0
H869 H 0.40485 0.62474 0.69645 0.0
H870 H 0.43113 0.49184 0.92229 0.0
H871 H 0.32997 0.58606 0.80193 0.0
H872 H 0.43311 0.57687 0.70753 0.0
H873 H 0.44861 0.52766 0.70539 0.0
C874 C 0.46808 0.50481 0.78478 0.0
C875 C 0.4644 0.49614 0.84773 0.0
C876 C 0.4101 0.57803 0.7267 0.0
C877 C 0.4177 0.52832 0.78572 0.0
C878 C 0.39398 0.60567 0.72046 0.0
C879 C 0.3655 0.60953 0.75011 0.0
C880 C 0.39775 0.55403 0.76337 0.0
C881 C 0.35254 0.58419 0.78089 0.0
C882 C 0.44461 0.52021 0.75316 0.0
C883 C 0.43543 0.50008 0.87532 0.0
N884 N 0.36908 0.5577 0.78828 0.0
N885 N 0.4133 0.51675 0.84474 0.0
H886 H 0.63379 0.14499 0.00298 0.0
H887 H 0.77936 0.1853 0.23504 0.0
H888 H 0.67527 0.07306 0.20729 0.0
H889 H 0.75418 0.22556 0.05789 0.0
H890 H 0.75087 0.13857 0.20658 0.0
H891 H 0.69089 0.16511 0.01892 0.0
C892 C 0.64753 0.13482 0.04003 0.0
C893 C 0.63229 0.10684 0.08637 0.0
C894 C 0.75252 0.15713 0.17285 0.0
C895 C 0.71002 0.13521 0.1066 0.0
C896 C 0.76859 0.18378 0.18951 0.0
C897 C 0.76816 0.20924 0.14952 0.0
C898 C 0.73605 0.15651 0.1159 0.0
C899 C 0.75449 0.20638 0.09041 0.0
C900 C 0.68397 0.14694 0.05055 0.0
C901 C 0.67519 0.09003 0.16932 0.0
N902 N 0.73861 0.18067 0.07574 0.0
N903 N 0.70489 0.10969 0.15808 0.0
H904 H 0.19642 0.59182 0.70325 0.0
H905 H 0.09073 0.48722 0.59491 0.0
H906 H 0.11715 0.62913 0.79804 0.0
H907 H 0.03287 0.51784 0.74668 0.0
H908 H 0.13397 0.5152 0.64154 0.0
H909 H 0.1701 0.54198 0.69502 0.0
C910 C 0.17351 0.58934 0.72257 0.0
C911 C 0.1584 0.6147 0.74922 0.0
C912 C 0.11225 0.51487 0.66628 0.0
C913 C 0.12792 0.55843 0.73891 0.0
C914 C 0.08745 0.49919 0.63894 0.0
C915 C 0.05811 0.50154 0.6657 0.0
C916 C 0.10726 0.53281 0.72064 0.0
C917 C 0.05509 0.5163 0.7238 0.0
C918 C 0.15846 0.56098 0.7178 0.0
C919 C 0.12936 0.61023 0.77604 0.0
N920 N 0.07915 0.53188 0.74865 0.0
N921 N 0.11486 0.58284 0.76912 0.0
H922 H 0.75727 0.78164 0.9921 0.0
H923 H 0.67521 0.94192 0.93347 0.0
H924 H 0.77933 0.8412 0.83703 0.0
H925 H 0.64349 0.87032 0.05717 0.0
H926 H 0.72488 0.91485 0.9236 0.0
H927 H 0.72951 0.82377 0.0423 0.0
C928 C 0.75689 0.80397 0.96938 0.0
C929 C 0.76967 0.80777 0.90948 0.0
C930 C 0.70721 0.90541 0.95374 0.0
C931 C 0.73694 0.85583 0.96555 0.0
C932 C 0.67891 0.92072 0.95917 0.0
C933 C 0.65499 0.90786 0.99463 0.0
C934 C 0.71138 0.87691 0.98361 0.0
C935 C 0.66119 0.88097 0.02885 0.0
C936 C 0.74093 0.82799 -0.00206 0.0
C937 C 0.76892 0.83714 0.88235 0.0
N938 N 0.68854 0.86609 0.02147 0.0
N939 N 0.75202 0.85998 0.90987 0.0
H940 H 0.40101 0.37778 0.22838 0.0
H941 H 0.4412 0.52374 0.00325 0.0
H942 H 0.32711 0.42149 0.02858 0.0
H943 H 0.479 0.50015 0.18346 0.0
H944 H 0.39396 0.49566 0.03004 0.0
H945 H 0.41953 0.43553 0.21688 0.0
C946 C 0.39044 0.39186 0.19235 0.0
C947 C 0.36281 0.37672 0.14492 0.0
C948 C 0.41206 0.49755 0.06477 0.0
C949 C 0.38914 0.45544 0.13074 0.0
C950 C 0.43905 0.51335 0.04901 0.0
C951 C 0.46406 0.51315 0.09026 0.0
C952 C 0.41057 0.48157 0.12221 0.0
C953 C 0.46032 0.50005 0.14972 0.0
C954 C 0.40148 0.42876 0.18479 0.0
C955 C 0.34464 0.42074 0.06552 0.0
N956 N 0.43429 0.4844 0.16354 0.0
N957 N 0.36361 0.45067 0.07907 0.0
H958 H 0.84744 0.07623 0.43189 0.0
H959 H 0.76476 0.23751 0.46738 0.0
H960 H 0.87797 0.1527 0.54381 0.0
H961 H 0.74603 0.1754 0.31489 0.0
H962 H 0.79024 0.19603 0.52427 0.0
H963 H 0.79741 0.10231 0.41678 0.0
C964 C 0.8434 0.09835 0.45373 0.0
C965 C 0.86713 0.11302 0.48667 0.0
C966 C 0.78026 0.19117 0.47872 0.0
C967 C 0.81027 0.14242 0.47117 0.0
C968 C 0.76578 0.21486 0.44614 0.0
C969 C 0.75502 0.21016 0.38482 0.0
C970 C 0.78496 0.16277 0.44898 0.0
C971 C 0.75588 0.18028 0.36035 0.0
C972 C 0.81488 0.113 0.44571 0.0
C973 C 0.86046 0.14082 0.51706 0.0
N974 N 0.77158 0.15775 0.39176 0.0
N975 N 0.83287 0.15488 0.50755 0.0
H976 H 0.84655 0.61434 0.78383 0.0
H977 H 0.95685 0.53934 0.52322 0.0
H978 H 0.87853 0.66176 0.61841 0.0
H979 H 0.94519 0.50118 0.70714 0.0
H980 H 0.91955 0.57931 0.54852 0.0
H981 H 0.87194 0.56719 0.74633 0.0
C982 C 0.85833 0.61474 0.73903 0.0
C983 C 0.86059 0.64227 0.70455 0.0
C984 C 0.92325 0.56091 0.58184 0.0
C985 C 0.88996 0.58829 0.66158 0.0
C986 C 0.94445 0.53774 0.56693 0.0
C987 C 0.95235 0.51507 0.61093 0.0
C988 C 0.90926 0.56144 0.6413 0.0
C989 C 0.93767 0.51622 0.66969 0.0
C990 C 0.87304 0.58783 0.71789 0.0
C991 C 0.8764 0.64127 0.647 0.0
N992 N 0.91679 0.53884 0.68312 0.0
N993 N 0.89061 0.61492 0.62771 0.0
H994 H 0.12371 0.11472 0.43576 0.0
H995 H 0.27379 0.2141 0.4622 0.0
H996 H 0.17763 0.12032 0.60536 0.0
H997 H 0.24189 0.182 0.28301 0.0
H998 H 0.24017 0.17751 0.51437 0.0
H999 H 0.16658 0.13815 0.37784 0.0
C1000 C 0.14501 0.1197 0.4602 0.0
C1001 C 0.1472 0.11566 0.52538 0.0
C1002 C 0.24127 0.17741 0.46357 0.0
C1003 C 0.19655 0.1413 0.45896 0.0
C1004 C 0.26112 0.19783 0.43378 0.0
C1005 C 0.26286 0.19907 0.36818 0.0
C1006 C 0.2213 0.15926 0.42756 0.0
C1007 C 0.24303 0.18006 0.33357 0.0
C1008 C 0.16953 0.13285 0.42699 0.0
C1009 C 0.17501 0.1232 0.55511 0.0
N1010 N 0.22284 0.16109 0.36364 0.0
N1011 N 0.19849 0.13576 0.52181 0.0
H1012 H 0.54861 0.51743 0.20343 0.0
H1013 H 0.68631 0.39428 0.21472 0.0
H1014 H 0.59589 0.4906 0.03459 0.0
H1015 H 0.61159 0.40108 0.34716 0.0
H1016 H 0.66357 0.43759 0.15513 0.0
H1017 H 0.58305 0.48471 0.26448 0.0
C1018 C 0.56732 0.50576 0.17955 0.0
C1019 C 0.57044 0.50814 0.11425 0.0
C1020 C 0.65239 0.42956 0.1975 0.0
C1021 C 0.60873 0.46834 0.18352 0.0
C1022 C 0.66521 0.40469 0.23121 0.0
C1023 C 0.65038 0.39312 0.2849 0.0
C1024 C 0.62506 0.44348 0.21891 0.0
C1025 C 0.62373 0.40855 0.30553 0.0
C1026 C 0.5866 0.4865 0.21427 0.0
C1027 C 0.59367 0.49059 0.08518 0.0
N1028 N 0.61201 0.43265 0.27259 0.0
N1029 N 0.61188 0.47124 0.11996 0.0
H1030 H 0.34944 0.87826 0.1287 0.0
H1031 H 0.27664 0.83942 0.7958 0.0
H1032 H 0.3495 0.9087 0.94433 0.0
H1033 H 0.24893 0.79813 0.97028 0.0
H1034 H 0.30748 0.87697 0.85479 0.0
H1035 H 0.3066 0.8555 0.07305 0.0
C1036 C 0.34647 0.88391 0.0795 0.0
C1037 C 0.36814 0.90246 0.04841 0.0
C1038 C 0.29368 0.86043 0.8802 0.0
C1039 C 0.31811 0.87619 0.98349 0.0
C1040 C 0.27562 0.83935 0.84647 0.0
C1041 C 0.25847 0.81694 0.87835 0.0
C1042 C 0.29535 0.85828 0.94608 0.0
C1043 C 0.26037 0.81612 0.94405 0.0
C1044 C 0.32181 0.87078 0.04768 0.0
C1045 C 0.36393 0.91031 0.98491 0.0
N1046 N 0.27839 0.83634 0.97555 0.0
N1047 N 0.33863 0.89714 0.95424 0.0
H1048 H 0.9213 0.38629 0.1603 0.0
H1049 H 0.97818 0.51558 0.28594 0.0
H1050 H 0.8353 0.40471 0.2545 0.0
H1051 H 0.92368 0.49389 0.44863 0.0
H1052 H 0.94596 0.48201 0.22268 0.0
H1053 H 0.9446 0.42867 0.21597 0.0
C1054 C 0.9071 0.39947 0.19241 0.0
C1055 C 0.87622 0.39166 0.20291 0.0
C1056 C 0.94067 0.48471 0.27206 0.0
C1057 C 0.90298 0.44135 0.26664 0.0
C1058 C 0.9586 0.50451 0.30781 0.0
C1059 C 0.95265 0.50862 0.37179 0.0
C1060 C 0.91758 0.46725 0.30109 0.0
C1061 C 0.92816 0.49222 0.39874 0.0
C1062 C 0.92047 0.42395 0.22403 0.0
C1063 C 0.85934 0.40945 0.24617 0.0
N1064 N 0.91155 0.47196 0.36327 0.0
N1065 N 0.873 0.43345 0.27693 0.0
H1066 H 0.25619 0.22499 0.03338 0.0
H1067 H 0.373 0.08149 0.021 0.0
H1068 H 0.27563 0.17181 0.19931 0.0
H1069 H 0.37116 0.15816 0.8924 0.0
H1070 H 0.32983 0.10539 0.07935 0.0
H1071 H 0.28923 0.19083 0.97268 0.0
C1072 C 0.26641 0.20522 0.05654 0.0
C1073 C 0.26171 0.20037 0.12091 0.0
C1074 C 0.33893 0.11675 0.03812 0.0
C1075 C 0.30179 0.16202 0.05219 0.0
C1076 C 0.3637 0.10324 0.00507 0.0
C1077 C 0.37655 0.11815 0.95266 0.0
C1078 C 0.32655 0.14501 0.01758 0.0
C1079 C 0.36264 0.14581 0.93293 0.0
C1080 C 0.28581 0.186 0.02207 0.0
C1081 C 0.27727 0.17549 0.14924 0.0
N1082 N 0.33873 0.15823 0.9653 0.0
N1083 N 0.29676 0.15728 0.11479 0.0
H1084 H 0.68171 0.61871 0.76739 0.0
H1085 H 0.54866 0.49224 0.76338 0.0
H1086 H 0.61729 0.60257 0.61685 0.0
H1087 H 0.59271 0.51931 0.93554 0.0
H1088 H 0.58461 0.52354 0.70454 0.0
H1089 H 0.6595 0.57482 0.82483 0.0
C1090 C 0.663 0.60606 0.74639 0.0
C1091 C 0.65062 0.6152 0.68819 0.0
C1092 C 0.5872 0.52215 0.75505 0.0
C1093 C 0.62586 0.56451 0.75249 0.0
C1094 C 0.56703 0.50365 0.78858 0.0
C1095 C 0.56884 0.50165 0.8541 0.0
C1096 C 0.60883 0.54013 0.78718 0.0
C1097 C 0.5916 0.51895 0.8848 0.0
C1098 C 0.65048 0.5809 0.77903 0.0
C1099 C 0.62722 0.59703 0.66214 0.0
N1100 N 0.61065 0.53774 0.85108 0.0
N1101 N 0.61556 0.57288 0.69453 0.0
H1102 H 0.24644 0.83562 0.70872 0.0
H1103 H 0.15136 0.93357 0.5236 0.0
H1104 H 0.26808 0.7933 0.53168 0.0
H1105 H 0.15161 0.85358 0.40395 0.0
H1106 H 0.19439 0.91104 0.58374 0.0
H1107 H 0.21308 0.87268 0.65381 0.0
C1108 C 0.24563 0.83532 0.65804 0.0
C1109 C 0.26155 0.81254 0.62433 0.0
C1110 C 0.18477 0.89841 0.54461 0.0
C1111 C 0.22179 0.85331 0.56137 0.0
C1112 C 0.15995 0.91112 0.51075 0.0
C1113 C 0.14672 0.89489 0.46044 0.0
C1114 C 0.19688 0.86964 0.52671 0.0
C1115 C 0.16043 0.86683 0.44301 0.0
C1116 C 0.22619 0.85621 0.62662 0.0
C1117 C 0.25743 0.81143 0.55907 0.0
N1118 N 0.18456 0.85521 0.47598 0.0
N1119 N 0.2378 0.83119 0.52998 0.0
H1120 H 0.53675 1.00543 0.76283 0.0
H1121 H 0.6233 0.88143 0.71109 0.0
H1122 H 0.59199 0.01766 0.92857 0.0
H1123 H 0.69469 0.92006 0.82662 0.0
H1124 H 0.59462 0.92906 0.71895 0.0
H1125 H 0.57908 0.97782 0.71333 0.0
C1126 C 0.55808 1.00241 0.78866 0.0
C1127 C 0.56043 0.01223 0.85112 0.0
C1128 C 0.61701 0.92796 0.74109 0.0
C1129 C 0.60813 0.97844 0.7967 0.0
C1130 C 0.63341 0.90041 0.73669 0.0
C1131 C 0.66114 0.89661 0.76944 0.0
C1132 C 0.62831 0.95209 0.77872 0.0
C1133 C 0.67282 0.92186 0.80268 0.0
C1134 C 0.5821 0.98618 0.76076 0.0
C1135 C 0.58876 0.00877 0.88173 0.0
N1136 N 0.65609 0.94836 0.80762 0.0
N1137 N 0.61139 0.99133 0.85484 0.0
H1138 H 0.23797 0.3321 0.22425 0.0
H1139 H 0.38843 0.36756 -0.00068 0.0
H1140 H 0.26972 0.28805 0.05559 0.0
H1141 H 0.3477 0.44015 0.20334 0.0
H1142 H 0.33047 0.34991 0.01211 0.0
H1143 H 0.26722 0.37867 0.19484 0.0
C1144 C 0.2508 0.33254 0.18078 0.0
C1145 C 0.25379 0.30581 0.1448 0.0
C1146 C 0.33784 0.36743 0.04482 0.0
C1147 C 0.28528 0.35864 0.10865 0.0
C1148 C 0.37486 0.37797 0.03628 0.0
C1149 C 0.39089 0.4049 0.08412 0.0
C1150 C 0.3118 0.37966 0.10025 0.0
C1151 C 0.34784 0.42297 0.16579 0.0
C1152 C 0.26701 0.35914 0.16332 0.0
C1153 C 0.26837 0.30783 0.08642 0.0
N1154 N 0.31746 0.40459 0.15266 0.0
N1155 N 0.28395 0.33356 0.0707 0.0
H1156 H 0.98971 1.00569 0.28363 0.0
H1157 H 0.90702 0.13146 0.22077 0.0
H1158 H 0.93278 0.99955 0.44812 0.0
H1159 H 0.8309 0.09313 0.323 0.0
H1160 H 0.93509 0.08349 0.23373 0.0
H1161 H 0.94863 0.03307 0.22911 0.0
C1162 C 0.96828 0.01002 0.30817 0.0
C1163 C 0.96507 1.0019 0.37156 0.0
C1164 C 0.91186 0.08482 0.25182 0.0
C1165 C 0.91862 0.035 0.31069 0.0
C1166 C 0.89587 0.11249 0.24456 0.0
C1167 C 0.86703 0.11646 0.2727 0.0
C1168 C 0.89903 0.06091 0.28801 0.0
C1169 C 0.85374 0.09121 0.30325 0.0
C1170 C 0.94494 0.02595 0.27722 0.0
C1171 C 0.93662 0.00707 0.4005 0.0
N1172 N 0.87013 0.0647 0.31163 0.0
N1173 N 0.91459 0.02408 0.37033 0.0
H1174 H 0.27336 0.67681 0.70109 0.0
H1175 H 0.1408 0.64335 0.46721 0.0
H1176 H 0.25622 0.72989 0.53381 0.0
H1177 H 0.17308 0.57324 0.59426 0.0
H1178 H 0.18944 0.67013 0.47898 0.0
H1179 H 0.24481 0.63358 0.6542 0.0
C1180 C 0.2644 0.67894 0.65385 0.0
C1181 C 0.26642 0.70694 0.62158 0.0
C1182 C 0.1863 0.64863 0.50383 0.0
C1183 C 0.23361 0.65834 0.56821 0.0
C1184 C 0.15842 0.63321 0.49681 0.0
C1185 C 0.15249 0.6066 0.53193 0.0
C1186 C 0.20825 0.63779 0.54733 0.0
C1187 C 0.17628 0.59463 0.56932 0.0
C1188 C 0.24823 0.65431 0.62689 0.0
C1189 C 0.25457 0.70873 0.56049 0.0
N1190 N 0.20289 0.61066 0.57744 0.0
N1191 N 0.23823 0.68505 0.53628 0.0
H1192 H 0.69722 0.09346 0.03269 0.0
H1193 H 0.54576 0.00793 0.2033 0.0
H1194 H 0.61987 0.13182 0.23134 0.0
H1195 H 0.57938 0.9921 0.01647 0.0
H1196 H 0.59286 0.03626 0.22791 0.0
H1197 H 0.66495 0.04039 0.05213 0.0
C1198 C 0.67943 0.09321 0.06907 0.0
C1199 C 0.65853 0.13576 0.1492 0.0
C1200 C 0.5905 0.0257 0.18211 0.0
C1201 C 0.63312 0.05746 0.13905 0.0
C1202 C 0.56372 0.00954 0.16816 0.0
C1203 C 0.55889 0.99824 0.10743 0.0
C1204 C 0.61208 0.03104 0.13442 0.0
C1205 C 0.58247 1.00086 0.06337 0.0
C1206 C 0.66034 0.05993 0.08216 0.0
C1207 C 0.63114 0.11874 0.19471 0.0
N1208 N 0.60793 0.01763 0.0772 0.0
N1209 N 0.62256 0.08405 0.1851 0.0
H1210 H 0.2614 0.28381 0.45748 0.0
H1211 H 0.12748 0.3609 0.52294 0.0
H1212 H 0.2819 0.33431 0.28943 0.0
H1213 H 0.17404 0.43717 0.32655 0.0
H1214 H 0.16425 0.36381 0.48565 0.0
H1215 H 0.23412 0.32813 0.49882 0.0
C1216 C 0.26004 0.30453 0.42923 0.0
C1217 C 0.27167 0.30499 0.36803 0.0
C1218 C 0.18528 0.35947 0.47657 0.0
C1219 C 0.23829 0.35488 0.4126 0.0
C1220 C 0.14626 0.37051 0.48715 0.0
C1221 C 0.13078 0.39948 0.44135 0.0
C1222 C 0.21064 0.37415 0.42289 0.0
C1223 C 0.17419 0.41941 0.363 0.0
C1224 C 0.24423 0.32984 0.45255 0.0
C1225 C 0.27078 0.33259 0.33458 0.0
N1226 N 0.2046 0.4006 0.37388 0.0
N1227 N 0.25299 0.35627 0.35603 0.0
H1228 H 0.93426 0.0308 0.53234 0.0
H1229 H 0.90847 0.8817 0.7615 0.0
H1230 H 0.97983 0.00816 0.70562 0.0
H1231 H 0.84925 0.90777 0.6182 0.0
H1232 H 0.92471 0.94019 0.74772 0.0
H1233 H 0.89002 0.9995 0.56494 0.0
C1234 C 0.93443 0.0199 0.57791 0.0
C1235 C 0.96083 0.02076 0.6153 0.0
C1236 C 0.90635 0.93245 0.71732 0.0
C1237 C 0.91086 0.98567 0.65371 0.0
C1238 C 0.89675 0.89541 0.72635 0.0
C1239 C 0.86877 0.87947 0.6812 0.0
C1240 C 0.89172 0.95804 0.66403 0.0
C1241 C 0.84752 0.92107 0.60352 0.0
C1242 C 0.90917 1.00228 0.59698 0.0
C1243 C 0.95993 0.00734 0.67496 0.0
N1244 N 0.86552 0.95156 0.61509 0.0
N1245 N 0.93559 0.98987 0.69188 0.0
H1246 H 0.26383 0.73464 0.97075 0.0
H1247 H 0.34624 0.57374 0.90875 0.0
H1248 H 0.24809 0.68111 0.80381 0.0
H1249 H 0.38098 0.64756 0.02283 0.0
H1250 H 0.29715 0.60207 0.89682 0.0
H1251 H 0.29166 0.69135 0.01713 0.0
C1252 C 0.26561 0.71333 0.94453 0.0
C1253 C 0.25428 0.71148 0.88302 0.0
C1254 C 0.31534 0.61167 0.9255 0.0
C1255 C 0.28662 0.66204 0.93532 0.0
C1256 C 0.34336 0.59581 0.9315 0.0
C1257 C 0.368 0.60903 0.96424 0.0
C1258 C 0.31201 0.64074 0.95337 0.0
C1259 C 0.36274 0.63672 0.99625 0.0
C1260 C 0.28146 0.68865 0.97103 0.0
C1261 C 0.25689 0.68342 0.85109 0.0
N1262 N 0.33552 0.65187 0.98917 0.0
N1263 N 0.27338 0.65983 0.8772 0.0
H1264 H 0.38934 0.16298 0.13809 0.0
H1265 H 0.45484 1.00018 0.20279 0.0
H1266 H 0.3501 0.10898 0.28802 0.0
H1267 H 0.44487 0.03324 0.01395 0.0
H1268 H 0.41742 0.0386 0.23837 0.0
H1269 H 0.41307 0.11637 0.09574 0.0
C1270 C 0.38522 0.14127 0.16156 0.0
C1271 C 0.3677 0.14001 0.21688 0.0
C1272 C 0.42223 0.03651 0.18865 0.0
C1273 C 0.39454 0.08635 0.16776 0.0
C1274 C 0.44275 0.01377 0.16806 0.0
C1275 C 0.45049 0.01123 0.10436 0.0
C1276 C 0.41114 0.05841 0.14574 0.0
C1277 C 0.43779 0.03282 0.06262 0.0
C1278 C 0.3987 0.11463 0.13713 0.0
C1279 C 0.36332 0.11108 0.24516 0.0
N1280 N 0.41918 0.05575 0.08415 0.0
N1281 N 0.37695 0.08543 0.22071 0.0
H1282 H 0.73186 0.70625 0.77017 0.0
H1283 H 0.66111 0.59713 0.03628 0.0
H1284 H 0.77283 0.69535 0.95193 0.0
H1285 H 0.61069 0.63132 0.87589 0.0
H1286 H 0.70776 0.62195 0.99554 0.0
H1287 H 0.69285 0.66867 0.79811 0.0
C1288 C 0.73418 0.69404 0.81397 0.0
C1289 C 0.75727 0.70224 0.85659 0.0
C1290 C 0.68653 0.62368 0.96901 0.0
C1291 C 0.71176 0.65946 0.8906 0.0
C1292 C 0.6599 0.60939 0.99203 0.0
C1293 C 0.63175 0.61228 0.95976 0.0
C1294 C 0.6851 0.64085 0.91309 0.0
C1295 C 0.63169 0.62862 0.9028 0.0
C1296 C 0.7115 0.67283 0.83055 0.0
C1297 C 0.75722 0.68779 0.91563 0.0
N1298 N 0.65778 0.64243 0.88169 0.0
N1299 N 0.73488 0.66712 0.93096 0.0
H1300 H 0.14196 0.92145 0.85718 0.0
H1301 H 0.07627 0.98258 0.52895 0.0
H1302 H 0.1564 0.87277 0.68335 0.0
H1303 H 0.05856 0.02428 0.70769 0.0
H1304 H 0.11066 0.94562 0.58067 0.0
H1305 H 0.11954 0.9643 0.79888 0.0
C1306 C 0.14078 0.92 0.80643 0.0
C1307 C 0.15095 0.89346 0.77511 0.0
C1308 C 0.1013 0.96439 0.6077 0.0
C1309 C 0.12436 0.94234 0.70763 0.0
C1310 C 0.08179 0.98573 0.57808 0.0
C1311 C 0.06726 0.00902 0.61294 0.0
C1312 C 0.10634 0.96624 0.67276 0.0
C1313 C 0.07208 0.0093 0.67798 0.0
C1314 C 0.12784 0.94446 0.77308 0.0
C1315 C 0.14903 0.89291 0.70926 0.0
N1316 N 0.09141 0.98865 0.70559 0.0
N1317 N 0.13552 0.91681 0.67769 0.0
H1318 H 0.78355 0.33083 0.27611 0.0
H1319 H 0.85286 0.39555 0.59807 0.0
H1320 H 0.75655 0.30187 0.46085 0.0
H1321 H 0.89652 0.41154 0.41949 0.0
H1322 H 0.80929 0.37217 0.54429 0.0
H1323 H 0.81764 0.36923 0.32364 0.0
C1324 C 0.78308 0.33399 0.32644 0.0
C1325 C 0.7648 0.315 0.36448 0.0
C1326 C 0.82811 0.38113 0.51647 0.0
C1327 C 0.80525 0.35786 0.41926 0.0
C1328 C 0.85293 0.3947 0.54721 0.0
C1329 C 0.87839 0.40543 0.51325 0.0
C1330 C 0.82875 0.37758 0.45095 0.0
C1331 C 0.87724 0.40375 0.44739 0.0
C1332 C 0.80306 0.3556 0.35358 0.0
C1333 C 0.76813 0.31775 0.42973 0.0
N1334 N 0.85303 0.38955 0.41831 0.0
N1335 N 0.78759 0.33883 0.45492 0.0
H1336 H 0.44547 0.98319 0.96933 0.0
H1337 H 0.35315 0.90223 0.68906 0.0
H1338 H 0.45918 0.00797 0.7762 0.0
H1339 H 0.3819 0.85515 0.8578 0.0
H1340 H 0.37777 0.94939 0.72822 0.0
H1341 H 0.40823 0.94462 0.93626 0.0
C1342 C 0.43888 0.98222 0.92041 0.0
C1343 C 0.45354 1.00089 0.87598 0.0
C1344 C 0.37828 0.92877 0.75685 0.0
C1345 C 0.41176 0.95537 0.83724 0.0
C1346 C 0.36409 0.9019 0.73479 0.0
C1347 C 0.36553 0.87453 0.77004 0.0
C1348 C 0.39359 0.92846 0.815 0.0
C1349 C 0.38032 0.87554 0.82874 0.0
C1350 C 0.41801 0.95963 0.90135 0.0
C1351 C 0.44647 0.99602 0.81233 0.0
N1352 N 0.39387 0.90192 0.84911 0.0
N1353 N 0.42599 0.97395 0.7948 0.0
H1354 H 0.77115 0.66243 0.68679 0.0
H1355 H 0.86001 0.65222 0.36118 0.0
H1356 H 0.75499 0.72141 0.52756 0.0
H1357 H 0.87181 0.58324 0.50494 0.0
H1358 H 0.81623 0.67278 0.41792 0.0
H1359 H 0.80304 0.62864 0.61969 0.0
C1360 C 0.7733 0.66748 0.63717 0.0
C1361 C 0.75957 0.69399 0.61183 0.0
C1362 C 0.82827 0.65311 0.43743 0.0
C1363 C 0.79689 0.65664 0.53593 0.0
C1364 C 0.85342 0.64126 0.40482 0.0
C1365 C 0.87062 0.61666 0.42951 0.0
C1366 C 0.8202 0.64069 0.49605 0.0
C1367 C 0.86022 0.60309 0.48558 0.0
C1368 C 0.79171 0.64845 0.59907 0.0
C1369 C 0.76444 0.70063 0.54828 0.0
N1370 N 0.83604 0.61565 0.5177 0.0
N1371 N 0.78268 0.68222 0.51276 0.0
H1372 H 0.18739 0.12109 0.27829 0.0
H1373 H 0.09566 0.01995 0.45812 0.0
H1374 H 0.1137 0.11092 0.14411 0.0
H1375 H 0.04859 1.00306 0.28371 0.0
H1376 H 0.13238 0.05279 0.40209 0.0
H1377 H 0.16651 0.07724 0.33782 0.0
C1378 C 0.16682 0.10974 0.26151 0.0
C1379 C 0.15173 0.12045 0.20728 0.0
C1380 C 0.11491 0.04085 0.37544 0.0
C1381 C 0.12767 0.07035 0.27476 0.0
C1382 C 0.09407 0.02177 0.40758 0.0
C1383 C 0.06991 0.00748 0.37501 0.0
C1384 C 0.11093 0.04615 0.31058 0.0
C1385 C 0.06758 0.0126 0.3102 0.0
C1386 C 0.15483 0.08474 0.2956 0.0
C1387 C 0.12585 0.10413 0.18634 0.0
N1388 N 0.08759 0.03149 0.28043 0.0
N1389 N 0.11464 0.08024 0.22021 0.0
H1390 H 0.76722 0.30786 0.04478 0.0
H1391 H 0.60443 0.37755 0.10003 0.0
H1392 H 0.73432 0.32578 0.23111 0.0
H1393 H 0.6583 0.41125 0.9445 0.0
H1394 H 0.65088 0.35415 0.14437 0.0
H1395 H 0.72844 0.34352 0.00272 0.0
C1396 C 0.75353 0.32126 0.07726 0.0
C1397 C 0.75639 0.31639 0.14221 0.0
C1398 C 0.65265 0.3672 0.10118 0.0
C1399 C 0.70883 0.35375 0.09395 0.0
C1400 C 0.62609 0.38049 0.07562 0.0
C1401 C 0.62733 0.39649 0.01836 0.0
C1402 C 0.68088 0.36984 0.06958 0.0
C1403 C 0.65622 0.39934 0.98896 0.0
C1404 C 0.73063 0.34079 0.05309 0.0
C1405 C 0.73472 0.33074 0.18141 0.0
N1406 N 0.68179 0.38584 0.01449 0.0
N1407 N 0.71168 0.3483 0.15669 0.0
H1408 H 0.06559 0.83238 0.39987 0.0
H1409 H 0.9549 0.68466 0.39119 0.0
H1410 H 0.9663 0.83822 0.39815 0.0
H1411 H 0.05322 0.67936 0.42034 0.0
H1412 H 0.95871 0.74091 0.38852 0.0
H1413 H 0.06171 0.77613 0.40111 0.0
C1414 C 0.043 0.8219 0.39941 0.0
C1415 C 0.01627 0.8402 0.39902 0.0
C1416 C 0.97943 0.7274 0.39562 0.0
C1417 C 0.01163 0.7757 0.40056 0.0
C1418 C 0.97725 0.69525 0.3972 0.0
C1419 C 1.00374 0.6771 0.40607 0.0
C1420 C 0.00832 0.74158 0.40252 0.0
C1421 C 0.0321 0.69226 0.41352 0.0
C1422 C 0.04078 0.78975 0.40037 0.0
C1423 C 0.9876 0.82518 0.39867 0.0
N1424 N 0.03363 0.7235 0.41138 0.0
N1425 N 0.98606 0.79393 0.39942 0.0
H1426 H 0.43162 0.70944 0.63635 0.0
H1427 H 0.59164 0.79867 0.67041 0.0
H1428 H 0.43789 0.8082 0.65447 0.0
H1429 H 0.58488 0.70108 0.63493 0.0
H1430 H 0.53558 0.80238 0.66897 0.0
H1431 H 0.48755 0.70597 0.63955 0.0
C1432 C 0.44471 0.73048 0.64101 0.0
C1433 C 0.42983 0.75923 0.64509 0.0
C1434 C 0.54633 0.78015 0.66155 0.0
C1435 C 0.49437 0.75526 0.64893 0.0
C1436 C 0.57843 0.77794 0.66248 0.0
C1437 C 0.59318 0.74947 0.65269 0.0
C1438 C 0.52864 0.7537 0.65093 0.0
C1439 C 0.57464 0.72352 0.64265 0.0
C1440 C 0.47677 0.72842 0.64278 0.0
C1441 C 0.44826 0.78557 0.65101 0.0
N1442 N 0.54339 0.72628 0.64202 0.0
N1443 N 0.47953 0.78294 0.65284 0.0
H1444 H 0.46493 0.33361 0.87599 0.0
H1445 H 0.55555 0.17304 0.87185 0.0
H1446 H 0.5641 0.32594 0.87216 0.0
H1447 H 0.45631 0.17985 0.87469 0.0
H1448 H 0.55877 0.22885 0.86843 0.0
H1449 H 0.46124 0.2777 0.87222 0.0
C1450 C 0.48601 0.32022 0.87417 0.0
C1451 C 0.51495 0.33469 0.87454 0.0
C1452 C 0.53626 0.21823 0.86958 0.0
C1453 C 0.51071 0.27025 0.87026 0.0
C1454 C 0.53433 0.18623 0.87156 0.0
C1455 C 0.50554 0.17152 0.8738 0.0
C1456 C 0.50923 0.236 0.86996 0.0
C1457 C 0.47898 0.19008 0.873 0.0
C1458 C 0.48381 0.2882 0.87201 0.0
C1459 C 0.54132 0.31593 0.87197 0.0
N1460 N 0.48148 0.22134 0.8714 0.0
N1461 N 0.53855 0.28473 0.87013 0.0
H1462 H 0.0853 0.20277 0.14001 0.0
H1463 H 0.93692 0.3142 0.14699 0.0
H1464 H 0.09074 0.30148 0.16014 0.0
H1465 H 0.93212 0.21495 0.14891 0.0
H1466 H 0.99334 0.31036 0.14615 0.0
H1467 H 0.02902 0.20706 0.13708 0.0
C1468 C 0.07474 0.22533 0.14356 0.0
C1469 C 0.09293 0.25175 0.15048 0.0
C1470 C 0.97987 0.28945 0.14672 0.0
C1471 C 0.02838 0.25687 0.14717 0.0
C1472 C 0.94764 0.29165 0.14713 0.0
C1473 C 0.92959 0.26491 0.14812 0.0
C1474 C 0.9942 0.26031 0.14695 0.0
C1475 C 0.94491 0.23628 0.14833 0.0
C1476 C 0.04257 0.22778 0.14205 0.0
C1477 C 0.07779 0.2804 0.15499 0.0
N1478 N 0.97617 0.23478 0.14769 0.0
N1479 N 0.04652 0.28217 0.15325 0.0
H1480 H 0.99468 0.33987 0.51255 0.0
H1481 H 0.99189 0.18256 0.69315 0.0
H1482 H 0.01287 0.33809 0.71155 0.0
H1483 H 0.04556 0.18915 0.52363 0.0
H1484 H 0.98767 0.23898 0.69573 0.0
H1485 H 1.00125 0.28344 0.50959 0.0
C1486 C 0.99963 0.32753 0.55564 0.0
C1487 C 1.00308 0.34349 0.61247 0.0
C1488 C 1.00048 0.22803 0.65821 0.0
C1489 C 0.0102 0.27945 0.60946 0.0
C1490 C 1.00293 0.19599 0.65672 0.0
C1491 C 0.01939 0.18139 0.60851 0.0
C1492 C 0.01363 0.24551 0.60988 0.0
C1493 C 0.03303 0.19969 0.56198 0.0
C1494 C 1.00366 0.29553 0.55378 0.0
C1495 C 0.00998 0.32656 0.66687 0.0
N1496 N 0.02948 0.2309 0.56325 0.0
N1497 N 0.01292 0.2954 0.66422 0.0
H1498 H 0.08397 0.79628 0.78122 0.0
H1499 H 0.93223 0.75678 0.96162 0.0
H1500 H 0.08828 0.73191 0.93512 0.0
H1501 H 0.93351 0.74469 0.76078 0.0
H1502 H 0.98878 0.76075 0.96095 0.0
H1503 H 0.02735 0.79116 0.78041 0.0
C1504 C 0.07296 0.78139 0.81519 0.0
C1505 C 0.09069 0.76448 0.85833 0.0
C1506 C 0.97659 0.75714 0.91718 0.0
C1507 C 0.02646 0.75908 0.85839 0.0
C1508 C 0.94448 0.75486 0.91749 0.0
C1509 C 0.92837 0.75003 0.86126 0.0
C1510 C 0.99253 0.75579 0.85998 0.0
C1511 C 0.94523 0.74797 0.80518 0.0
C1512 C 0.04084 0.77832 0.81437 0.0
C1513 C 0.07538 0.74526 0.90105 0.0
N1514 N 0.97644 0.75129 0.80576 0.0
N1515 N 0.04411 0.74336 0.90058 0.0
H1516 H 0.56481 0.68502 0.08016 0.0
H1517 H 0.45012 0.83044 0.09507 0.0
H1518 H 0.46572 0.67681 0.0813 0.0
H1519 H 0.54848 0.83711 0.0681 0.0
H1520 H 0.45499 0.77409 0.09236 0.0
H1521 H 0.55909 0.74111 0.07898 0.0
C1522 C 0.54189 0.69495 0.0802 0.0
C1523 C 0.51578 0.67606 0.08083 0.0
C1524 C 0.47543 0.788 0.08679 0.0
C1525 C 0.50898 0.74032 0.07955 0.0
C1526 C 0.47264 0.82016 0.08823 0.0
C1527 C 0.49886 0.83869 0.0819 0.0
C1528 C 0.50467 0.77431 0.07936 0.0
C1529 C 0.52751 0.82396 0.07327 0.0
C1530 C 0.5386 0.727 0.07939 0.0
C1531 C 0.4866 0.69035 0.08073 0.0
N1532 N 0.52961 0.79281 0.07256 0.0
N1533 N 0.48401 0.72153 0.08026 0.0
H1534 H 0.59431 0.21258 0.36673 0.0
H1535 H 0.43307 0.3016 0.3518 0.0
H1536 H 0.58641 0.31159 0.35747 0.0
H1537 H 0.44117 0.20264 0.36251 0.0
H1538 H 0.48887 0.30569 0.35731 0.0
H1539 H 0.53847 0.20878 0.36909 0.0
C1540 C 0.58087 0.23363 0.36541 0.0
C1541 C 0.59526 0.26253 0.36159 0.0
C1542 C 0.47851 0.28307 0.35864 0.0
C1543 C 0.53082 0.25815 0.36418 0.0
C1544 C 0.44654 0.28064 0.35543 0.0
C1545 C 0.43222 0.25164 0.35648 0.0
C1546 C 0.49659 0.25635 0.36283 0.0
C1547 C 0.45109 0.22545 0.3615 0.0
C1548 C 0.54887 0.23136 0.36677 0.0
C1549 C 0.57642 0.28885 0.36038 0.0
N1550 N 0.48228 0.22843 0.36429 0.0
N1551 N 0.54518 0.28601 0.36139 0.0
loop_
_geom_bond_atom_site_label_1
_geom_bond_atom_site_label_2
_geom_bond_distance
_geom_bond_site_symmetry_2
_ccdc_geom_bond_type
Zn0 N4 2.020 . S
Zn0 O8 2.019 . S
Zn0 N10 2.119 . S
Zn0 O18 1.975 . S
C1 N2 1.334 . S
C1 N5 1.336 . S
N2 C1 1.334 . S
N2 C3 1.334 1_455 S
C3 N2 1.334 1_655 S
C3 N4 1.336 . S
N4 Zn0 2.020 . S
N4 C3 1.336 . S
N4 N5 1.354 1_655 S
N5 C1 1.336 . S
N5 N4 1.354 1_455 S
N5 Zn9 2.020 . S
C6 O7 1.244 . S
C6 O30 1.257 . S
O7 C6 1.244 . S
O8 Zn0 2.019 . S
O8 C28 1.257 . S
Zn9 N5 2.020 . S
Zn9 O16 1.975 . S
Zn9 N25 2.119 . S
Zn9 O30 2.019 . S
N10 Zn0 2.119 . S
N10 C12 1.334 . S
N10 C13 1.328 . S
C11 C12 1.391 . S
C11 N14 1.329 . S
C11 H32 0.930 . S
C12 N10 1.334 . S
C12 C11 1.391 . S
C12 H19 0.930 . S
C13 N10 1.328 . S
C13 C15 1.392 . S
C13 H20 0.930 . S
N14 C11 1.329 . S
N14 C15 1.331 . S
C15 C13 1.392 . S
C15 N14 1.331 . S
O16 Zn9 1.975 . S
O16 C17 1.252 . S
C17 O16 1.252 . S
C17 O18 1.252 1_455 S
O18 Zn0 1.975 . S
O18 C17 1.252 1_655 S
H19 C12 0.930 . S
H20 C13 0.930 . S
C21 C22 1.392 . S
C21 N25 1.328 . S
C21 H27 0.930 . S
C22 C21 1.392 . S
C22 N26 1.331 . S
C23 C24 1.391 . S
C23 N26 1.329 . S
C23 H33 0.930 . S
C24 C23 1.391 . S
C24 N25 1.334 . S
C24 H31 0.930 . S
N25 Zn9 2.119 . S
N25 C21 1.328 . S
N25 C24 1.334 . S
N26 C22 1.331 . S
N26 C23 1.329 . S
H27 C21 0.930 . S
C28 O8 1.257 . S
C28 O29 1.244 . S
O29 C28 1.244 . S
O30 C6 1.257 . S
O30 Zn9 2.019 . S
H31 C24 0.930 . S
H32 C11 0.930 . S
H33 C23 0.930 . S
Zn34 N38 2.020 . S
Zn34 O42 2.019 . S
Zn34 N44 2.119 . S
Zn34 O52 1.975 . S
C35 N36 1.334 . S
C35 N39 1.336 . S
N36 C35 1.334 . S
N36 C37 1.334 . S
C37 N36 1.334 . S
C37 N38 1.336 . S
N38 Zn34 2.020 . S
N38 C37 1.336 . S
N38 N39 1.354 . S
N39 C35 1.336 . S
N39 N38 1.354 . S
N39 Zn43 2.020 . S
C40 O41 1.244 . S
C40 O64 1.257 . S
O41 C40 1.244 . S
O42 Zn34 2.019 . S
O42 C62 1.257 . S
Zn43 N39 2.020 . S
Zn43 O50 1.975 . S
Zn43 N59 2.119 . S
Zn43 O64 2.019 . S
N44 Zn34 2.119 . S
N44 C46 1.334 . S
N44 C47 1.328 . S
C45 C46 1.391 . S
C45 N48 1.329 . S
C45 H66 0.930 . S
C46 N44 1.334 . S
C46 C45 1.391 . S
C46 H53 0.930 . S
C47 N44 1.328 . S
C47 C49 1.392 . S
C47 H54 0.930 . S
N48 C45 1.329 . S
N48 C49 1.331 . S
C49 C47 1.392 . S
C49 N48 1.331 . S
O50 Zn43 1.975 . S
O50 C51 1.252 . S
C51 O50 1.252 . S
C51 O52 1.252 . S
O52 Zn34 1.975 . S
O52 C51 1.252 . S
H53 C46 0.930 . S
H54 C47 0.930 . S
C55 C56 1.392 . S
C55 N59 1.328 . S
C55 H61 0.930 . S
C56 C55 1.392 . S
C56 N60 1.331 . S
C57 C58 1.391 . S
C57 N60 1.329 . S
C57 H67 0.930 . S
C58 C57 1.391 . S
C58 N59 1.334 . S
C58 H65 0.930 . S
N59 Zn43 2.119 . S
N59 C55 1.328 . S
N59 C58 1.334 . S
N60 C56 1.331 . S
N60 C57 1.329 . S
H61 C55 0.930 . S
C62 O42 1.257 . S
C62 O63 1.244 . S
O63 C62 1.244 . S
O64 C40 1.257 . S
O64 Zn43 2.019 . S
H65 C58 0.930 . S
H66 C45 0.930 . S
H67 C57 0.930 . S
Zn68 N72 2.020 . S
Zn68 O76 2.019 . S
Zn68 N78 2.119 . S
Zn68 O86 1.975 . S
C69 N70 1.334 . S
C69 N73 1.336 . S
N70 C69 1.334 . S
N70 C71 1.334 . S
C71 N70 1.334 . S
C71 N72 1.336 . S
N72 Zn68 2.020 . S
N72 C71 1.336 . S
N72 N73 1.354 . S
N73 C69 1.336 . S
N73 N72 1.354 . S
N73 Zn77 2.020 . S
C74 O75 1.244 . S
C74 O98 1.257 . S
O75 C74 1.244 . S
O76 Zn68 2.019 . S
O76 C96 1.257 1_556 S
Zn77 N73 2.020 . S
Zn77 O84 1.975 . S
Zn77 N93 2.119 1_556 S
Zn77 O98 2.019 . S
N78 Zn68 2.119 . S
N78 C80 1.334 . S
N78 C81 1.328 . S
C79 C80 1.391 . S
C79 N82 1.329 . S
C79 H100 0.930 . S
C80 N78 1.334 . S
C80 C79 1.391 . S
C80 H87 0.930 . S
C81 N78 1.328 . S
C81 C83 1.392 . S
C81 H88 0.930 . S
N82 C79 1.329 . S
N82 C83 1.331 . S
C83 C81 1.392 . S
C83 N82 1.331 . S
O84 Zn77 1.975 . S
O84 C85 1.252 . S
C85 O84 1.252 . S
C85 O86 1.252 . S
O86 Zn68 1.975 . S
O86 C85 1.252 . S
H87 C80 0.930 . S
H88 C81 0.930 . S
C89 C90 1.392 . S
C89 N93 1.328 . S
C89 H95 0.930 1_554 S
C90 C89 1.392 . S
C90 N94 1.331 . S
C91 C92 1.391 . S
C91 N94 1.329 . S
C91 H101 0.930 . S
C92 C91 1.391 . S
C92 N93 1.334 . S
C92 H99 0.930 . S
N93 Zn77 2.119 1_554 S
N93 C89 1.328 . S
N93 C92 1.334 . S
N94 C90 1.331 . S
N94 C91 1.329 . S
H95 C89 0.930 1_556 S
C96 O76 1.257 1_554 S
C96 O97 1.244 . S
O97 C96 1.244 . S
O98 C74 1.257 . S
O98 Zn77 2.019 . S
H99 C92 0.930 . S
H100 C79 0.930 . S
H101 C91 0.930 . S
Zn102 N106 2.020 . S
Zn102 O110 2.019 . S
Zn102 N112 2.119 . S
Zn102 O120 1.975 . S
C103 N104 1.334 . S
C103 N107 1.336 . S
N104 C103 1.334 . S
N104 C105 1.334 . S
C105 N104 1.334 . S
C105 N106 1.336 . S
N106 Zn102 2.020 . S
N106 C105 1.336 . S
N106 N107 1.354 . S
N107 C103 1.336 . S
N107 N106 1.354 . S
N107 Zn111 2.020 . S
C108 O109 1.244 . S
C108 O132 1.257 . S
O109 C108 1.244 . S
O110 Zn102 2.019 . S
O110 C130 1.257 . S
Zn111 N107 2.020 . S
Zn111 O118 1.975 . S
Zn111 N127 2.119 . S
Zn111 O132 2.019 . S
N112 Zn102 2.119 . S
N112 C114 1.334 . S
N112 C115 1.328 . S
C113 C114 1.391 1_556 S
C113 N116 1.329 . S
C113 H134 0.930 . S
C114 N112 1.334 . S
C114 C113 1.391 1_554 S
C114 H121 0.930 . S
C115 N112 1.328 . S
C115 C117 1.392 . S
C115 H122 0.930 . S
N116 C113 1.329 . S
N116 C117 1.331 1_556 S
C117 C115 1.392 . S
C117 N116 1.331 1_554 S
O118 Zn111 1.975 . S
O118 C119 1.252 . S
C119 O118 1.252 . S
C119 O120 1.252 . S
O120 Zn102 1.975 . S
O120 C119 1.252 . S
H121 C114 0.930 . S
H122 C115 0.930 . S
C123 C124 1.392 . S
C123 N127 1.328 . S
C123 H129 0.930 . S
C124 C123 1.392 . S
C124 N128 1.331 . S
C125 C126 1.391 . S
C125 N128 1.329 . S
C125 H135 0.930 . S
C126 C125 1.391 . S
C126 N127 1.334 . S
C126 H133 0.930 . S
N127 Zn111 2.119 . S
N127 C123 1.328 . S
N127 C126 1.334 . S
N128 C124 1.331 . S
N128 C125 1.329 . S
H129 C123 0.930 . S
C130 O110 1.257 . S
C130 O131 1.244 . S
O131 C130 1.244 . S
O132 C108 1.257 . S
O132 Zn111 2.019 . S
H133 C126 0.930 . S
H134 C113 0.930 . S
H135 C125 0.930 . S
Zn136 N140 2.020 . S
Zn136 O144 2.019 . S
Zn136 N146 2.119 . S
Zn136 O154 1.975 . S
C137 N138 1.334 1_655 S
C137 N141 1.336 . S
N138 C137 1.334 1_455 S
N138 C139 1.334 . S
C139 N138 1.334 . S
C139 N140 1.336 . S
N140 Zn136 2.020 . S
N140 C139 1.336 . S
N140 N141 1.354 1_455 S
N141 C137 1.336 . S
N141 N140 1.354 1_655 S
N141 Zn145 2.020 . S
C142 O143 1.244 . S
C142 O166 1.257 . S
O143 C142 1.244 . S
O144 Zn136 2.019 . S
O144 C164 1.257 . S
Zn145 N141 2.020 . S
Zn145 O152 1.975 . S
Zn145 N161 2.119 . S
Zn145 O166 2.019 . S
N146 Zn136 2.119 . S
N146 C148 1.334 . S
N146 C149 1.328 . S
C147 C148 1.391 . S
C147 N150 1.329 . S
C147 H168 0.930 . S
C148 N146 1.334 . S
C148 C147 1.391 . S
C148 H155 0.930 . S
C149 N146 1.328 . S
C149 C151 1.392 . S
C149 H156 0.930 . S
N150 C147 1.329 . S
N150 C151 1.331 . S
C151 C149 1.392 . S
C151 N150 1.331 . S
O152 Zn145 1.975 . S
O152 C153 1.252 1_655 S
C153 O152 1.252 1_455 S
C153 O154 1.252 . S
O154 Zn136 1.975 . S
O154 C153 1.252 . S
H155 C148 0.930 . S
H156 C149 0.930 . S
C157 C158 1.392 . S
C157 N161 1.328 . S
C157 H163 0.930 . S
C158 C157 1.392 . S
C158 N162 1.331 . S
C159 C160 1.391 . S
C159 N162 1.329 . S
C159 H169 0.930 . S
C160 C159 1.391 . S
C160 N161 1.334 . S
C160 H167 0.930 . S
N161 Zn145 2.119 . S
N161 C157 1.328 . S
N161 C160 1.334 . S
N162 C158 1.331 . S
N162 C159 1.329 . S
H163 C157 0.930 . S
C164 O144 1.257 . S
C164 O165 1.244 . S
O165 C164 1.244 . S
O166 C142 1.257 . S
O166 Zn145 2.019 . S
H167 C160 0.930 . S
H168 C147 0.930 . S
H169 C159 0.930 . S
Zn170 N174 2.020 . S
Zn170 O178 2.019 . S
Zn170 N180 2.119 . S
Zn170 O188 1.975 . S
C171 N172 1.334 . S
C171 N175 1.336 . S
N172 C171 1.334 . S
N172 C173 1.334 . S
C173 N172 1.334 . S
C173 N174 1.336 . S
N174 Zn170 2.020 . S
N174 C173 1.336 . S
N174 N175 1.354 . S
N175 C171 1.336 . S
N175 N174 1.354 . S
N175 Zn179 2.020 . S
C176 O177 1.244 . S
C176 O200 1.257 . S
O177 C176 1.244 . S
O178 Zn170 2.019 . S
O178 C198 1.257 . S
Zn179 N175 2.020 . S
Zn179 O186 1.975 . S
Zn179 N195 2.119 . S
Zn179 O200 2.019 . S
N180 Zn170 2.119 . S
N180 C182 1.334 . S
N180 C183 1.328 . S
C181 C182 1.391 1_554 S
C181 N184 1.329 . S
C181 H202 0.930 . S
C182 N180 1.334 . S
C182 C181 1.391 1_556 S
C182 H189 0.930 . S
C183 N180 1.328 . S
C183 C185 1.392 . S
C183 H190 0.930 . S
N184 C181 1.329 . S
N184 C185 1.331 1_554 S
C185 C183 1.392 . S
C185 N184 1.331 1_556 S
O186 Zn179 1.975 . S
O186 C187 1.252 . S
C187 O186 1.252 . S
C187 O188 1.252 . S
O188 Zn170 1.975 . S
O188 C187 1.252 . S
H189 C182 0.930 . S
H190 C183 0.930 . S
C191 C192 1.392 . S
C191 N195 1.328 . S
C191 H197 0.930 . S
C192 C191 1.392 . S
C192 N196 1.331 . S
C193 C194 1.391 . S
C193 N196 1.329 . S
C193 H203 0.930 . S
C194 C193 1.391 . S
C194 N195 1.334 . S
C194 H201 0.930 . S
N195 Zn179 2.119 . S
N195 C191 1.328 . S
N195 C194 1.334 . S
N196 C192 1.331 . S
N196 C193 1.329 . S
H197 C191 0.930 . S
C198 O178 1.257 . S
C198 O199 1.244 . S
O199 C198 1.244 . S
O200 C176 1.257 . S
O200 Zn179 2.019 . S
H201 C194 0.930 . S
H202 C181 0.930 . S
H203 C193 0.930 . S
Zn204 N208 2.020 . S
Zn204 O212 2.019 . S
Zn204 N214 2.119 1_554 S
Zn204 O222 1.975 . S
C205 N206 1.334 . S
C205 N209 1.336 . S
N206 C205 1.334 . S
N206 C207 1.334 . S
C207 N206 1.334 . S
C207 N208 1.336 . S
N208 Zn204 2.020 . S
N208 C207 1.336 . S
N208 N209 1.354 . S
N209 C205 1.336 . S
N209 N208 1.354 . S
N209 Zn213 2.020 . S
C210 O211 1.244 . S
C210 O234 1.257 1_556 S
O211 C210 1.244 . S
O212 Zn204 2.019 . S
O212 C232 1.257 . S
Zn213 N209 2.020 . S
Zn213 O220 1.975 . S
Zn213 N229 2.119 . S
Zn213 O234 2.019 . S
N214 Zn204 2.119 1_556 S
N214 C216 1.334 . S
N214 C217 1.328 . S
C215 C216 1.391 . S
C215 N218 1.329 . S
C215 H236 0.930 . S
C216 N214 1.334 . S
C216 C215 1.391 . S
C216 H223 0.930 . S
C217 N214 1.328 . S
C217 C219 1.392 . S
C217 H224 0.930 1_556 S
N218 C215 1.329 . S
N218 C219 1.331 . S
C219 C217 1.392 . S
C219 N218 1.331 . S
O220 Zn213 1.975 . S
O220 C221 1.252 . S
C221 O220 1.252 . S
C221 O222 1.252 . S
O222 Zn204 1.975 . S
O222 C221 1.252 . S
H223 C216 0.930 . S
H224 C217 0.930 1_554 S
C225 C226 1.392 . S
C225 N229 1.328 . S
C225 H231 0.930 . S
C226 C225 1.392 . S
C226 N230 1.331 . S
C227 C228 1.391 . S
C227 N230 1.329 . S
C227 H237 0.930 . S
C228 C227 1.391 . S
C228 N229 1.334 . S
C228 H235 0.930 . S
N229 Zn213 2.119 . S
N229 C225 1.328 . S
N229 C228 1.334 . S
N230 C226 1.331 . S
N230 C227 1.329 . S
H231 C225 0.930 . S
C232 O212 1.257 . S
C232 O233 1.244 . S
O233 C232 1.244 . S
O234 C210 1.257 1_554 S
O234 Zn213 2.019 . S
H235 C228 0.930 . S
H236 C215 0.930 . S
H237 C227 0.930 . S
Zn238 N242 2.020 . S
Zn238 O246 2.019 . S
Zn238 N248 2.119 . S
Zn238 O256 1.975 . S
C239 N240 1.334 . S
C239 N243 1.336 . S
N240 C239 1.334 . S
N240 C241 1.334 . S
C241 N240 1.334 . S
C241 N242 1.336 . S
N242 Zn238 2.020 . S
N242 C241 1.336 . S
N242 N243 1.354 . S
N243 C239 1.336 . S
N243 N242 1.354 . S
N243 Zn247 2.020 . S
C244 O245 1.244 . S
C244 O268 1.257 . S
O245 C244 1.244 . S
O246 Zn238 2.019 . S
O246 C266 1.257 . S
Zn247 N243 2.020 . S
Zn247 O254 1.975 . S
Zn247 N263 2.119 . S
Zn247 O268 2.019 . S
N248 Zn238 2.119 . S
N248 C250 1.334 . S
N248 C251 1.328 . S
C249 C250 1.391 . S
C249 N252 1.329 . S
C249 H270 0.930 . S
C250 N248 1.334 . S
C250 C249 1.391 . S
C250 H257 0.930 . S
C251 N248 1.328 . S
C251 C253 1.392 . S
C251 H258 0.930 . S
N252 C249 1.329 . S
N252 C253 1.331 . S
C253 C251 1.392 . S
C253 N252 1.331 . S
O254 Zn247 1.975 . S
O254 C255 1.252 . S
C255 O254 1.252 . S
C255 O256 1.252 . S
O256 Zn238 1.975 . S
O256 C255 1.252 . S
H257 C250 0.930 . S
H258 C251 0.930 . S
C259 C260 1.392 . S
C259 N263 1.328 . S
C259 H265 0.930 . S
C260 C259 1.392 . S
C260 N264 1.331 . S
C261 C262 1.391 . S
C261 N264 1.329 . S
C261 H271 0.930 . S
C262 C261 1.391 . S
C262 N263 1.334 . S
C262 H269 0.930 . S
N263 Zn247 2.119 . S
N263 C259 1.328 . S
N263 C262 1.334 . S
N264 C260 1.331 . S
N264 C261 1.329 . S
H265 C259 0.930 . S
C266 O246 1.257 . S
C266 O267 1.244 . S
O267 C266 1.244 . S
O268 C244 1.257 . S
O268 Zn247 2.019 . S
H269 C262 0.930 . S
H270 C249 0.930 . S
H271 C261 0.930 . S
Zn272 N276 2.020 . S
Zn272 O280 2.019 . S
Zn272 N282 2.119 . S
Zn272 O290 1.975 . S
C273 N274 1.334 . S
C273 N277 1.336 . S
N274 C273 1.334 . S
N274 C275 1.334 . S
C275 N274 1.334 . S
C275 N276 1.336 . S
N276 Zn272 2.020 . S
N276 C275 1.336 . S
N276 N277 1.354 . S
N277 C273 1.336 . S
N277 N276 1.354 . S
N277 Zn281 2.020 . S
C278 O279 1.244 . S
C278 O302 1.257 . S
O279 C278 1.244 . S
O280 Zn272 2.019 . S
O280 C300 1.257 . S
Zn281 N277 2.020 . S
Zn281 O288 1.975 . S
Zn281 N297 2.119 . S
Zn281 O302 2.019 . S
N282 Zn272 2.119 . S
N282 C284 1.334 . S
N282 C285 1.328 . S
C283 C284 1.391 . S
C283 N286 1.329 . S
C283 H304 0.930 . S
C284 N282 1.334 . S
C284 C283 1.391 . S
C284 H291 0.930 . S
C285 N282 1.328 . S
C285 C287 1.392 . S
C285 H292 0.930 . S
N286 C283 1.329 . S
N286 C287 1.331 . S
C287 C285 1.392 . S
C287 N286 1.331 . S
O288 Zn281 1.975 . S
O288 C289 1.252 . S
C289 O288 1.252 . S
C289 O290 1.252 . S
O290 Zn272 1.975 . S
O290 C289 1.252 . S
H291 C284 0.930 . S
H292 C285 0.930 . S
C293 C294 1.392 . S
C293 N297 1.328 . S
C293 H299 0.930 . S
C294 C293 1.392 . S
C294 N298 1.331 . S
C295 C296 1.391 . S
C295 N298 1.329 . S
C295 H305 0.930 . S
C296 C295 1.391 . S
C296 N297 1.334 . S
C296 H303 0.930 . S
N297 Zn281 2.119 . S
N297 C293 1.328 . S
N297 C296 1.334 . S
N298 C294 1.331 . S
N298 C295 1.329 . S
H299 C293 0.930 . S
C300 O280 1.257 . S
C300 O301 1.244 . S
O301 C300 1.244 . S
O302 C278 1.257 . S
O302 Zn281 2.019 . S
H303 C296 0.930 . S
H304 C283 0.930 . S
H305 C295 0.930 . S
Zn306 N310 2.020 . S
Zn306 O314 2.019 . S
Zn306 N316 2.119 . S
Zn306 O324 1.975 . S
C307 N308 1.334 . S
C307 N311 1.336 . S
N308 C307 1.334 . S
N308 C309 1.334 . S
C309 N308 1.334 . S
C309 N310 1.336 . S
N310 Zn306 2.020 . S
N310 C309 1.336 . S
N310 N311 1.354 . S
N311 C307 1.336 . S
N311 N310 1.354 . S
N311 Zn315 2.020 . S
C312 O313 1.244 . S
C312 O336 1.257 . S
O313 C312 1.244 . S
O314 Zn306 2.019 . S
O314 C334 1.257 . S
Zn315 N311 2.020 . S
Zn315 O322 1.975 . S
Zn315 N331 2.119 . S
Zn315 O336 2.019 . S
N316 Zn306 2.119 . S
N316 C318 1.334 . S
N316 C319 1.328 . S
C317 C318 1.391 . S
C317 N320 1.329 . S
C317 H338 0.930 . S
C318 N316 1.334 . S
C318 C317 1.391 . S
C318 H325 0.930 . S
C319 N316 1.328 . S
C319 C321 1.392 . S
C319 H326 0.930 . S
N320 C317 1.329 . S
N320 C321 1.331 . S
C321 C319 1.392 . S
C321 N320 1.331 . S
O322 Zn315 1.975 . S
O322 C323 1.252 . S
C323 O322 1.252 . S
C323 O324 1.252 . S
O324 Zn306 1.975 . S
O324 C323 1.252 . S
H325 C318 0.930 . S
H326 C319 0.930 . S
C327 C328 1.392 . S
C327 N331 1.328 . S
C327 H333 0.930 . S
C328 C327 1.392 . S
C328 N332 1.331 1_556 S
C329 C330 1.391 1_554 S
C329 N332 1.329 . S
C329 H339 0.930 . S
C330 C329 1.391 1_556 S
C330 N331 1.334 . S
C330 H337 0.930 . S
N331 Zn315 2.119 . S
N331 C327 1.328 . S
N331 C330 1.334 . S
N332 C328 1.331 1_554 S
N332 C329 1.329 . S
H333 C327 0.930 . S
C334 O314 1.257 . S
C334 O335 1.244 . S
O335 C334 1.244 . S
O336 C312 1.257 . S
O336 Zn315 2.019 . S
H337 C330 0.930 . S
H338 C317 0.930 . S
H339 C329 0.930 . S
Zn340 N344 2.020 . S
Zn340 O348 2.019 . S
Zn340 N350 2.119 . S
Zn340 O358 1.975 . S
C341 N342 1.334 . S
C341 N345 1.336 . S
N342 C341 1.334 . S
N342 C343 1.334 . S
C343 N342 1.334 . S
C343 N344 1.336 . S
N344 Zn340 2.020 . S
N344 C343 1.336 . S
N344 N345 1.354 . S
N345 C341 1.336 . S
N345 N344 1.354 . S
N345 Zn349 2.020 . S
C346 O347 1.244 . S
C346 O370 1.257 . S
O347 C346 1.244 . S
O348 Zn340 2.019 . S
O348 C368 1.257 . S
Zn349 N345 2.020 . S
Zn349 O356 1.975 . S
Zn349 N365 2.119 . S
Zn349 O370 2.019 . S
N350 Zn340 2.119 . S
N350 C352 1.334 . S
N350 C353 1.328 . S
C351 C352 1.391 1_556 S
C351 N354 1.329 . S
C351 H372 0.930 . S
C352 N350 1.334 . S
C352 C351 1.391 1_554 S
C352 H359 0.930 . S
C353 N350 1.328 . S
C353 C355 1.392 . S
C353 H360 0.930 . S
N354 C351 1.329 . S
N354 C355 1.331 1_556 S
C355 C353 1.392 . S
C355 N354 1.331 1_554 S
O356 Zn349 1.975 . S
O356 C357 1.252 . S
C357 O356 1.252 . S
C357 O358 1.252 . S
O358 Zn340 1.975 . S
O358 C357 1.252 . S
H359 C352 0.930 . S
H360 C353 0.930 . S
C361 C362 1.392 . S
C361 N365 1.328 . S
C361 H367 0.930 . S
C362 C361 1.392 . S
C362 N366 1.331 . S
C363 C364 1.391 . S
C363 N366 1.329 . S
C363 H373 0.930 . S
C364 C363 1.391 . S
C364 N365 1.334 . S
C364 H371 0.930 . S
N365 Zn349 2.119 . S
N365 C361 1.328 . S
N365 C364 1.334 . S
N366 C362 1.331 . S
N366 C363 1.329 . S
H367 C361 0.930 . S
C368 O348 1.257 . S
C368 O369 1.244 . S
O369 C368 1.244 . S
O370 C346 1.257 . S
O370 Zn349 2.019 . S
H371 C364 0.930 . S
H372 C351 0.930 . S
H373 C363 0.930 . S
Zn374 N378 2.020 . S
Zn374 O382 2.019 . S
Zn374 N384 2.119 . S
Zn374 O392 1.975 . S
C375 N376 1.334 . S
C375 N379 1.336 . S
N376 C375 1.334 . S
N376 C377 1.334 . S
C377 N376 1.334 . S
C377 N378 1.336 . S
N378 Zn374 2.020 . S
N378 C377 1.336 . S
N378 N379 1.354 . S
N379 C375 1.336 . S
N379 N378 1.354 . S
N379 Zn383 2.020 . S
C380 O381 1.244 . S
C380 O404 1.257 . S
O381 C380 1.244 . S
O382 Zn374 2.019 . S
O382 C402 1.257 . S
Zn383 N379 2.020 . S
Zn383 O390 1.975 . S
Zn383 N399 2.119 . S
Zn383 O404 2.019 . S
N384 Zn374 2.119 . S
N384 C386 1.334 . S
N384 C387 1.328 . S
C385 C386 1.391 . S
C385 N388 1.329 . S
C385 H406 0.930 . S
C386 N384 1.334 . S
C386 C385 1.391 . S
C386 H393 0.930 . S
C387 N384 1.328 . S
C387 C389 1.392 . S
C387 H394 0.930 . S
N388 C385 1.329 . S
N388 C389 1.331 . S
C389 C387 1.392 . S
C389 N388 1.331 . S
O390 Zn383 1.975 . S
O390 C391 1.252 . S
C391 O390 1.252 . S
C391 O392 1.252 . S
O392 Zn374 1.975 . S
O392 C391 1.252 . S
H393 C386 0.930 . S
H394 C387 0.930 . S
C395 C396 1.392 . S
C395 N399 1.328 . S
C395 H401 0.930 . S
C396 C395 1.392 . S
C396 N400 1.331 . S
C397 C398 1.391 . S
C397 N400 1.329 . S
C397 H407 0.930 . S
C398 C397 1.391 . S
C398 N399 1.334 . S
C398 H405 0.930 . S
N399 Zn383 2.119 . S
N399 C395 1.328 . S
N399 C398 1.334 . S
N400 C396 1.331 . S
N400 C397 1.329 . S
H401 C395 0.930 . S
C402 O382 1.257 . S
C402 O403 1.244 . S
O403 C402 1.244 . S
O404 C380 1.257 . S
O404 Zn383 2.019 . S
H405 C398 0.930 . S
H406 C385 0.930 . S
H407 C397 0.930 . S
Zn408 N412 2.020 . S
Zn408 O416 2.019 . S
Zn408 N418 2.119 . S
Zn408 O426 1.975 . S
C409 N410 1.334 . S
C409 N413 1.336 . S
N410 C409 1.334 . S
N410 C411 1.334 . S
C411 N410 1.334 . S
C411 N412 1.336 . S
N412 Zn408 2.020 . S
N412 C411 1.336 . S
N412 N413 1.354 . S
N413 C409 1.336 . S
N413 N412 1.354 . S
N413 Zn417 2.020 . S
C414 O415 1.244 . S
C414 O438 1.257 . S
O415 C414 1.244 . S
O416 Zn408 2.019 . S
O416 C436 1.257 1_556 S
Zn417 N413 2.020 . S
Zn417 O424 1.975 . S
Zn417 N433 2.119 1_556 S
Zn417 O438 2.019 . S
N418 Zn408 2.119 . S
N418 C420 1.334 . S
N418 C421 1.328 . S
C419 C420 1.391 . S
C419 N422 1.329 . S
C419 H440 0.930 . S
C420 N418 1.334 . S
C420 C419 1.391 . S
C420 H427 0.930 . S
C421 N418 1.328 . S
C421 C423 1.392 . S
C421 H428 0.930 . S
N422 C419 1.329 . S
N422 C423 1.331 . S
C423 C421 1.392 . S
C423 N422 1.331 . S
O424 Zn417 1.975 . S
O424 C425 1.252 . S
C425 O424 1.252 . S
C425 O426 1.252 . S
O426 Zn408 1.975 . S
O426 C425 1.252 . S
H427 C420 0.930 . S
H428 C421 0.930 . S
C429 C430 1.392 . S
C429 N433 1.328 . S
C429 H435 0.930 1_554 S
C430 C429 1.392 . S
C430 N434 1.331 . S
C431 C432 1.391 . S
C431 N434 1.329 . S
C431 H441 0.930 . S
C432 C431 1.391 . S
C432 N433 1.334 . S
C432 H439 0.930 . S
N433 Zn417 2.119 1_554 S
N433 C429 1.328 . S
N433 C432 1.334 . S
N434 C430 1.331 . S
N434 C431 1.329 . S
H435 C429 0.930 1_556 S
C436 O416 1.257 1_554 S
C436 O437 1.244 . S
O437 C436 1.244 . S
O438 C414 1.257 . S
O438 Zn417 2.019 . S
H439 C432 0.930 . S
H440 C419 0.930 . S
H441 C431 0.930 . S
Zn442 N446 2.020 . S
Zn442 O450 2.019 . S
Zn442 N452 2.119 . S
Zn442 O460 1.975 . S
C443 N444 1.334 1_655 S
C443 N447 1.336 . S
N444 C443 1.334 1_455 S
N444 C445 1.334 . S
C445 N444 1.334 . S
C445 N446 1.336 . S
N446 Zn442 2.020 . S
N446 C445 1.336 . S
N446 N447 1.354 1_455 S
N447 C443 1.336 . S
N447 N446 1.354 1_655 S
N447 Zn451 2.020 . S
C448 O449 1.244 . S
C448 O472 1.257 . S
O449 C448 1.244 . S
O450 Zn442 2.019 . S
O450 C470 1.257 . S
Zn451 N447 2.020 . S
Zn451 O458 1.975 . S
Zn451 N467 2.119 . S
Zn451 O472 2.019 . S
N452 Zn442 2.119 . S
N452 C454 1.334 . S
N452 C455 1.328 . S
C453 C454 1.391 . S
C453 N456 1.329 . S
C453 H474 0.930 . S
C454 N452 1.334 . S
C454 C453 1.391 . S
C454 H461 0.930 . S
C455 N452 1.328 . S
C455 C457 1.392 . S
C455 H462 0.930 . S
N456 C453 1.329 . S
N456 C457 1.331 . S
C457 C455 1.392 . S
C457 N456 1.331 . S
O458 Zn451 1.975 . S
O458 C459 1.252 1_655 S
C459 O458 1.252 1_455 S
C459 O460 1.252 . S
O460 Zn442 1.975 . S
O460 C459 1.252 . S
H461 C454 0.930 . S
H462 C455 0.930 . S
C463 C464 1.392 . S
C463 N467 1.328 . S
C463 H469 0.930 . S
C464 C463 1.392 . S
C464 N468 1.331 . S
C465 C466 1.391 . S
C465 N468 1.329 . S
C465 H475 0.930 . S
C466 C465 1.391 . S
C466 N467 1.334 . S
C466 H473 0.930 . S
N467 Zn451 2.119 . S
N467 C463 1.328 . S
N467 C466 1.334 . S
N468 C464 1.331 . S
N468 C465 1.329 . S
H469 C463 0.930 . S
C470 O450 1.257 . S
C470 O471 1.244 . S
O471 C470 1.244 . S
O472 C448 1.257 . S
O472 Zn451 2.019 . S
H473 C466 0.930 . S
H474 C453 0.930 . S
H475 C465 0.930 . S
Zn476 N480 2.020 . S
Zn476 O484 2.019 . S
Zn476 N486 2.119 1_554 S
Zn476 O494 1.975 . S
C477 N478 1.334 . S
C477 N481 1.336 . S
N478 C477 1.334 . S
N478 C479 1.334 . S
C479 N478 1.334 . S
C479 N480 1.336 . S
N480 Zn476 2.020 . S
N480 C479 1.336 . S
N480 N481 1.354 . S
N481 C477 1.336 . S
N481 N480 1.354 . S
N481 Zn485 2.020 . S
C482 O483 1.244 . S
C482 O506 1.257 1_556 S
O483 C482 1.244 . S
O484 Zn476 2.019 . S
O484 C504 1.257 . S
Zn485 N481 2.020 . S
Zn485 O492 1.975 . S
Zn485 N501 2.119 . S
Zn485 O506 2.019 . S
N486 Zn476 2.119 1_556 S
N486 C488 1.334 . S
N486 C489 1.328 . S
C487 C488 1.391 . S
C487 N490 1.329 . S
C487 H508 0.930 . S
C488 N486 1.334 . S
C488 C487 1.391 . S
C488 H495 0.930 . S
C489 N486 1.328 . S
C489 C491 1.392 . S
C489 H496 0.930 1_556 S
N490 C487 1.329 . S
N490 C491 1.331 . S
C491 C489 1.392 . S
C491 N490 1.331 . S
O492 Zn485 1.975 . S
O492 C493 1.252 . S
C493 O492 1.252 . S
C493 O494 1.252 . S
O494 Zn476 1.975 . S
O494 C493 1.252 . S
H495 C488 0.930 . S
H496 C489 0.930 1_554 S
C497 C498 1.392 . S
C497 N501 1.328 . S
C497 H503 0.930 . S
C498 C497 1.392 . S
C498 N502 1.331 . S
C499 C500 1.391 . S
C499 N502 1.329 . S
C499 H509 0.930 . S
C500 C499 1.391 . S
C500 N501 1.334 . S
C500 H507 0.930 . S
N501 Zn485 2.119 . S
N501 C497 1.328 . S
N501 C500 1.334 . S
N502 C498 1.331 . S
N502 C499 1.329 . S
H503 C497 0.930 . S
C504 O484 1.257 . S
C504 O505 1.244 . S
O505 C504 1.244 . S
O506 C482 1.257 1_554 S
O506 Zn485 2.019 . S
H507 C500 0.930 . S
H508 C487 0.930 . S
H509 C499 0.930 . S
Zn510 N514 2.020 . S
Zn510 O518 2.019 . S
Zn510 N520 2.119 . S
Zn510 O528 1.975 . S
C511 N512 1.334 . S
C511 N515 1.336 . S
N512 C511 1.334 . S
N512 C513 1.334 1_455 S
C513 N512 1.334 1_655 S
C513 N514 1.336 . S
N514 Zn510 2.020 . S
N514 C513 1.336 . S
N514 N515 1.354 1_655 S
N515 C511 1.336 . S
N515 N514 1.354 1_455 S
N515 Zn519 2.020 . S
C516 O517 1.244 . S
C516 O540 1.257 . S
O517 C516 1.244 . S
O518 Zn510 2.019 . S
O518 C538 1.257 . S
Zn519 N515 2.020 . S
Zn519 O526 1.975 . S
Zn519 N535 2.119 . S
Zn519 O540 2.019 . S
N520 Zn510 2.119 . S
N520 C522 1.334 . S
N520 C523 1.328 . S
C521 C522 1.391 . S
C521 N524 1.329 . S
C521 H542 0.930 . S
C522 N520 1.334 . S
C522 C521 1.391 . S
C522 H529 0.930 . S
C523 N520 1.328 . S
C523 C525 1.392 . S
C523 H530 0.930 . S
N524 C521 1.329 . S
N524 C525 1.331 . S
C525 C523 1.392 . S
C525 N524 1.331 . S
O526 Zn519 1.975 . S
O526 C527 1.252 . S
C527 O526 1.252 . S
C527 O528 1.252 1_455 S
O528 Zn510 1.975 . S
O528 C527 1.252 1_655 S
H529 C522 0.930 . S
H530 C523 0.930 . S
C531 C532 1.392 . S
C531 N535 1.328 . S
C531 H537 0.930 . S
C532 C531 1.392 . S
C532 N536 1.331 . S
C533 C534 1.391 . S
C533 N536 1.329 . S
C533 H543 0.930 . S
C534 C533 1.391 . S
C534 N535 1.334 . S
C534 H541 0.930 . S
N535 Zn519 2.119 . S
N535 C531 1.328 . S
N535 C534 1.334 . S
N536 C532 1.331 . S
N536 C533 1.329 . S
H537 C531 0.930 . S
C538 O518 1.257 . S
C538 O539 1.244 . S
O539 C538 1.244 . S
O540 C516 1.257 . S
O540 Zn519 2.019 . S
H541 C534 0.930 . S
H542 C521 0.930 . S
H543 C533 0.930 . S
H544 C550 0.930 . S
H545 C554 0.930 . S
H546 C559 0.929 . S
H547 C557 0.929 . S
H548 C552 0.929 . S
H549 C558 0.929 . S
C550 H544 0.930 . S
C550 C551 1.367 . S
C550 C558 1.378 1_556 S
C551 C550 1.367 . S
C551 C559 1.433 1_556 S
C552 H548 0.929 . S
C552 C554 1.378 . S
C552 C556 1.350 . S
C553 C556 1.463 . S
C553 C558 1.350 . S
C553 N561 1.427 . S
C554 H545 0.930 . S
C554 C552 1.378 . S
C554 C555 1.367 . S
C555 C554 1.367 . S
C555 C557 1.433 . S
C556 C552 1.350 . S
C556 C553 1.463 . S
C556 N560 1.427 . S
C557 H547 0.929 . S
C557 C555 1.433 . S
C557 N560 1.384 . S
C558 H549 0.929 . S
C558 C550 1.378 1_554 S
C558 C553 1.350 . S
C559 H546 0.929 . S
C559 C551 1.433 1_554 S
C559 N561 1.384 . S
N560 C556 1.427 . S
N560 C557 1.384 . S
N561 C553 1.427 . S
N561 C559 1.384 . S
H562 C568 0.930 . S
H563 C572 0.930 . S
H564 C577 0.929 . S
H565 C575 0.929 . S
H566 C570 0.929 . S
H567 C576 0.929 . S
C568 H562 0.930 . S
C568 C569 1.367 . S
C568 C576 1.378 . S
C569 C568 1.367 . S
C569 C577 1.433 . S
C570 H566 0.929 . S
C570 C572 1.378 . S
C570 C574 1.350 . S
C571 C574 1.463 . S
C571 C576 1.350 . S
C571 N579 1.427 . S
C572 H563 0.930 . S
C572 C570 1.378 . S
C572 C573 1.367 . S
C573 C572 1.367 . S
C573 C575 1.433 . S
C574 C570 1.350 . S
C574 C571 1.463 . S
C574 N578 1.427 . S
C575 H565 0.929 . S
C575 C573 1.433 . S
C575 N578 1.384 . S
C576 H567 0.929 . S
C576 C568 1.378 . S
C576 C571 1.350 . S
C577 H564 0.929 . S
C577 C569 1.433 . S
C577 N579 1.384 . S
N578 C574 1.427 . S
N578 C575 1.384 . S
N579 C571 1.427 . S
N579 C577 1.384 . S
H580 C586 0.930 . S
H581 C590 0.930 . S
H582 C595 0.929 . S
H583 C593 0.929 . S
H584 C588 0.929 . S
H585 C594 0.929 . S
C586 H580 0.930 . S
C586 C587 1.367 . S
C586 C594 1.378 . S
C587 C586 1.367 . S
C587 C595 1.433 . S
C588 H584 0.929 . S
C588 C590 1.378 . S
C588 C592 1.350 . S
C589 C592 1.463 . S
C589 C594 1.350 . S
C589 N597 1.427 . S
C590 H581 0.930 . S
C590 C588 1.378 . S
C590 C591 1.367 . S
C591 C590 1.367 . S
C591 C593 1.433 . S
C592 C588 1.350 . S
C592 C589 1.463 . S
C592 N596 1.427 . S
C593 H583 0.929 . S
C593 C591 1.433 . S
C593 N596 1.384 . S
C594 H585 0.929 . S
C594 C586 1.378 . S
C594 C589 1.350 . S
C595 H582 0.929 . S
C595 C587 1.433 . S
C595 N597 1.384 . S
N596 C592 1.427 . S
N596 C593 1.384 . S
N597 C589 1.427 . S
N597 C595 1.384 . S
H598 C604 0.930 . S
H599 C608 0.930 . S
H600 C613 0.929 . S
H601 C611 0.929 . S
H602 C606 0.929 . S
H603 C612 0.929 . S
C604 H598 0.930 . S
C604 C605 1.367 1_556 S
C604 C612 1.378 . S
C605 C604 1.367 1_554 S
C605 C613 1.433 . S
C606 H602 0.929 . S
C606 C608 1.378 . S
C606 C610 1.350 . S
C607 C610 1.463 . S
C607 C612 1.350 . S
C607 N615 1.427 . S
C608 H599 0.930 . S
C608 C606 1.378 . S
C608 C609 1.367 . S
C609 C608 1.367 . S
C609 C611 1.433 . S
C610 C606 1.350 . S
C610 C607 1.463 . S
C610 N614 1.427 . S
C611 H601 0.929 . S
C611 C609 1.433 . S
C611 N614 1.384 . S
C612 H603 0.929 . S
C612 C604 1.378 . S
C612 C607 1.350 . S
C613 H600 0.929 . S
C613 C605 1.433 . S
C613 N615 1.384 1_554 S
N614 C610 1.427 . S
N614 C611 1.384 . S
N615 C607 1.427 . S
N615 C613 1.384 1_556 S
H616 C622 0.930 . S
H617 C626 0.930 . S
H618 C631 0.929 . S
H619 C629 0.929 . S
H620 C624 0.929 . S
H621 C630 0.929 . S
C622 H616 0.930 . S
C622 C623 1.367 . S
C622 C630 1.378 1_554 S
C623 C622 1.367 . S
C623 C631 1.433 1_554 S
C624 H620 0.929 . S
C624 C626 1.378 . S
C624 C628 1.350 . S
C625 C628 1.463 . S
C625 C630 1.350 . S
C625 N633 1.427 . S
C626 H617 0.930 . S
C626 C624 1.378 . S
C626 C627 1.367 . S
C627 C626 1.367 . S
C627 C629 1.433 . S
C628 C624 1.350 . S
C628 C625 1.463 . S
C628 N632 1.427 . S
C629 H619 0.929 . S
C629 C627 1.433 . S
C629 N632 1.384 . S
C630 H621 0.929 . S
C630 C622 1.378 1_556 S
C630 C625 1.350 . S
C631 H618 0.929 . S
C631 C623 1.433 1_556 S
C631 N633 1.384 . S
N632 C628 1.427 . S
N632 C629 1.384 . S
N633 C625 1.427 . S
N633 C631 1.384 . S
H634 C640 0.930 1_556 S
H635 C644 0.930 . S
H636 C649 0.929 1_556 S
H637 C647 0.929 . S
H638 C642 0.929 . S
H639 C648 0.929 . S
C640 H634 0.930 1_554 S
C640 C641 1.367 1_554 S
C640 C648 1.378 . S
C641 C640 1.367 1_556 S
C641 C649 1.433 1_556 S
C642 H638 0.929 . S
C642 C644 1.378 . S
C642 C646 1.350 . S
C643 C646 1.463 . S
C643 C648 1.350 . S
C643 N651 1.427 . S
C644 H635 0.930 . S
C644 C642 1.378 . S
C644 C645 1.367 . S
C645 C644 1.367 . S
C645 C647 1.433 . S
C646 C642 1.350 . S
C646 C643 1.463 . S
C646 N650 1.427 . S
C647 H637 0.929 . S
C647 C645 1.433 . S
C647 N650 1.384 . S
C648 H639 0.929 . S
C648 C640 1.378 . S
C648 C643 1.350 . S
C649 H636 0.929 1_554 S
C649 C641 1.433 1_554 S
C649 N651 1.384 . S
N650 C646 1.427 . S
N650 C647 1.384 . S
N651 C643 1.427 . S
N651 C649 1.384 . S
H652 C658 0.930 . S
H653 C662 0.930 . S
H654 C667 0.929 . S
H655 C665 0.929 . S
H656 C660 0.929 . S
H657 C666 0.929 . S
C658 H652 0.930 . S
C658 C659 1.367 . S
C658 C666 1.378 . S
C659 C658 1.367 . S
C659 C667 1.433 . S
C660 H656 0.929 . S
C660 C662 1.378 . S
C660 C664 1.350 . S
C661 C664 1.463 . S
C661 C666 1.350 . S
C661 N669 1.427 . S
C662 H653 0.930 . S
C662 C660 1.378 . S
C662 C663 1.367 . S
C663 C662 1.367 . S
C663 C665 1.433 . S
C664 C660 1.350 . S
C664 C661 1.463 . S
C664 N668 1.427 . S
C665 H655 0.929 . S
C665 C663 1.433 . S
C665 N668 1.384 . S
C666 H657 0.929 . S
C666 C658 1.378 . S
C666 C661 1.350 . S
C667 H654 0.929 . S
C667 C659 1.433 . S
C667 N669 1.384 . S
N668 C664 1.427 . S
N668 C665 1.384 . S
N669 C661 1.427 . S
N669 C667 1.384 . S
H670 C676 0.930 . S
H671 C680 0.930 . S
H672 C685 0.929 . S
H673 C683 0.929 . S
H674 C678 0.929 . S
H675 C684 0.929 . S
C676 H670 0.930 . S
C676 C677 1.367 . S
C676 C684 1.378 . S
C677 C676 1.367 . S
C677 C685 1.433 . S
C678 H674 0.929 . S
C678 C680 1.378 . S
C678 C682 1.350 . S
C679 C682 1.463 . S
C679 C684 1.350 . S
C679 N687 1.427 . S
C680 H671 0.930 . S
C680 C678 1.378 . S
C680 C681 1.367 . S
C681 C680 1.367 . S
C681 C683 1.433 . S
C682 C678 1.350 . S
C682 C679 1.463 . S
C682 N686 1.427 . S
C683 H673 0.929 . S
C683 C681 1.433 . S
C683 N686 1.384 . S
C684 H675 0.929 . S
C684 C676 1.378 . S
C684 C679 1.350 . S
C685 H672 0.929 . S
C685 C677 1.433 . S
C685 N687 1.384 . S
N686 C682 1.427 . S
N686 C683 1.384 . S
N687 C679 1.427 . S
N687 C685 1.384 . S
H688 C694 0.930 . S
H689 C698 0.930 1_554 S
H690 C703 0.929 . S
H691 C701 0.929 . S
H692 C696 0.929 . S
H693 C702 0.929 . S
C694 H688 0.930 . S
C694 C695 1.367 . S
C694 C702 1.378 . S
C695 C694 1.367 . S
C695 C703 1.433 . S
C696 H692 0.929 . S
C696 C698 1.378 . S
C696 C700 1.350 . S
C697 C700 1.463 . S
C697 C702 1.350 . S
C697 N705 1.427 . S
C698 H689 0.930 1_556 S
C698 C696 1.378 . S
C698 C699 1.367 1_556 S
C699 C698 1.367 1_554 S
C699 C701 1.433 . S
C700 C696 1.350 . S
C700 C697 1.463 . S
C700 N704 1.427 . S
C701 H691 0.929 . S
C701 C699 1.433 . S
C701 N704 1.384 1_554 S
C702 H693 0.929 . S
C702 C694 1.378 . S
C702 C697 1.350 . S
C703 H690 0.929 . S
C703 C695 1.433 . S
C703 N705 1.384 . S
N704 C700 1.427 . S
N704 C701 1.384 1_556 S
N705 C697 1.427 . S
N705 C703 1.384 . S
H706 C712 0.930 . S
H707 C716 0.930 . S
H708 C721 0.929 . S
H709 C719 0.929 . S
H710 C714 0.929 . S
H711 C720 0.929 . S
C712 H706 0.930 . S
C712 C713 1.367 . S
C712 C720 1.378 . S
C713 C712 1.367 . S
C713 C721 1.433 . S
C714 H710 0.929 . S
C714 C716 1.378 . S
C714 C718 1.350 . S
C715 C718 1.463 . S
C715 C720 1.350 . S
C715 N723 1.427 . S
C716 H707 0.930 . S
C716 C714 1.378 . S
C716 C717 1.367 . S
C717 C716 1.367 . S
C717 C719 1.433 . S
C718 C714 1.350 . S
C718 C715 1.463 . S
C718 N722 1.427 . S
C719 H709 0.929 . S
C719 C717 1.433 . S
C719 N722 1.384 . S
C720 H711 0.929 . S
C720 C712 1.378 . S
C720 C715 1.350 . S
C721 H708 0.929 . S
C721 C713 1.433 . S
C721 N723 1.384 . S
N722 C718 1.427 . S
N722 C719 1.384 . S
N723 C715 1.427 . S
N723 C721 1.384 . S
H724 C730 0.930 . S
H725 C734 0.930 . S
H726 C739 0.929 . S
H727 C737 0.929 . S
H728 C732 0.929 . S
H729 C738 0.929 . S
C730 H724 0.930 . S
C730 C731 1.367 . S
C730 C738 1.378 . S
C731 C730 1.367 . S
C731 C739 1.433 . S
C732 H728 0.929 . S
C732 C734 1.378 . S
C732 C736 1.350 . S
C733 C736 1.463 . S
C733 C738 1.350 . S
C733 N741 1.427 . S
C734 H725 0.930 . S
C734 C732 1.378 . S
C734 C735 1.367 . S
C735 C734 1.367 . S
C735 C737 1.433 . S
C736 C732 1.350 . S
C736 C733 1.463 . S
C736 N740 1.427 . S
C737 H727 0.929 . S
C737 C735 1.433 . S
C737 N740 1.384 . S
C738 H729 0.929 . S
C738 C730 1.378 . S
C738 C733 1.350 . S
C739 H726 0.929 . S
C739 C731 1.433 . S
C739 N741 1.384 . S
N740 C736 1.427 . S
N740 C737 1.384 . S
N741 C733 1.427 . S
N741 C739 1.384 . S
H742 C748 0.930 . S
H743 C752 0.930 . S
H744 C757 0.929 . S
H745 C755 0.929 1_556 S
H746 C750 0.929 . S
H747 C756 0.929 . S
C748 H742 0.930 . S
C748 C749 1.367 . S
C748 C756 1.378 . S
C749 C748 1.367 . S
C749 C757 1.433 . S
C750 H746 0.929 . S
C750 C752 1.378 1_554 S
C750 C754 1.350 . S
C751 C754 1.463 . S
C751 C756 1.350 . S
C751 N759 1.427 . S
C752 H743 0.930 . S
C752 C750 1.378 1_556 S
C752 C753 1.367 . S
C753 C752 1.367 . S
C753 C755 1.433 1_556 S
C754 C750 1.350 . S
C754 C751 1.463 . S
C754 N758 1.427 . S
C755 H745 0.929 1_554 S
C755 C753 1.433 1_554 S
C755 N758 1.384 . S
C756 H747 0.929 . S
C756 C748 1.378 . S
C756 C751 1.350 . S
C757 H744 0.929 . S
C757 C749 1.433 . S
C757 N759 1.384 . S
N758 C754 1.427 . S
N758 C755 1.384 . S
N759 C751 1.427 . S
N759 C757 1.384 . S
H760 C766 0.930 . S
H761 C770 0.930 . S
H762 C775 0.929 1_556 S
H763 C773 0.929 . S
H764 C768 0.929 . S
H765 C774 0.929 . S
C766 H760 0.930 . S
C766 C767 1.367 . S
C766 C774 1.378 1_556 S
C767 C766 1.367 . S
C767 C775 1.433 1_556 S
C768 H764 0.929 . S
C768 C770 1.378 . S
C768 C772 1.350 . S
C769 C772 1.463 . S
C769 C774 1.350 . S
C769 N777 1.427 . S
C770 H761 0.930 . S
C770 C768 1.378 . S
C770 C771 1.367 . S
C771 C770 1.367 . S
C771 C773 1.433 . S
C772 C768 1.350 . S
C772 C769 1.463 . S
C772 N776 1.427 . S
C773 H763 0.929 . S
C773 C771 1.433 . S
C773 N776 1.384 . S
C774 H765 0.929 . S
C774 C766 1.378 1_554 S
C774 C769 1.350 . S
C775 H762 0.929 1_554 S
C775 C767 1.433 1_554 S
C775 N777 1.384 . S
N776 C772 1.427 . S
N776 C773 1.384 . S
N777 C769 1.427 . S
N777 C775 1.384 . S
H778 C784 0.930 . S
H779 C788 0.930 . S
H780 C793 0.929 . S
H781 C791 0.929 . S
H782 C786 0.929 . S
H783 C792 0.929 . S
C784 H778 0.930 . S
C784 C785 1.367 1_556 S
C784 C792 1.378 . S
C785 C784 1.367 1_554 S
C785 C793 1.433 . S
C786 H782 0.929 . S
C786 C788 1.378 . S
C786 C790 1.350 . S
C787 C790 1.463 . S
C787 C792 1.350 . S
C787 N795 1.427 . S
C788 H779 0.930 . S
C788 C786 1.378 . S
C788 C789 1.367 . S
C789 C788 1.367 . S
C789 C791 1.433 . S
C790 C786 1.350 . S
C790 C787 1.463 . S
C790 N794 1.427 . S
C791 H781 0.929 . S
C791 C789 1.433 . S
C791 N794 1.384 . S
C792 H783 0.929 . S
C792 C784 1.378 . S
C792 C787 1.350 . S
C793 H780 0.929 . S
C793 C785 1.433 . S
C793 N795 1.384 1_554 S
N794 C790 1.427 . S
N794 C791 1.384 . S
N795 C787 1.427 . S
N795 C793 1.384 1_556 S
H796 C802 0.930 . S
H797 C806 0.930 . S
H798 C811 0.929 . S
H799 C809 0.929 . S
H800 C804 0.929 . S
H801 C810 0.929 . S
C802 H796 0.930 . S
C802 C803 1.367 . S
C802 C810 1.378 . S
C803 C802 1.367 . S
C803 C811 1.433 . S
C804 H800 0.929 . S
C804 C806 1.378 . S
C804 C808 1.350 . S
C805 C808 1.463 . S
C805 C810 1.350 . S
C805 N813 1.427 . S
C806 H797 0.930 . S
C806 C804 1.378 . S
C806 C807 1.367 . S
C807 C806 1.367 . S
C807 C809 1.433 . S
C808 C804 1.350 . S
C808 C805 1.463 . S
C808 N812 1.427 . S
C809 H799 0.929 . S
C809 C807 1.433 . S
C809 N812 1.384 . S
C810 H801 0.929 . S
C810 C802 1.378 . S
C810 C805 1.350 . S
C811 H798 0.929 . S
C811 C803 1.433 . S
C811 N813 1.384 . S
N812 C808 1.427 . S
N812 C809 1.384 . S
N813 C805 1.427 . S
N813 C811 1.384 . S
H814 C820 0.930 . S
H815 C824 0.930 . S
H816 C829 0.929 . S
H817 C827 0.929 . S
H818 C822 0.929 . S
H819 C828 0.929 . S
C820 H814 0.930 . S
C820 C821 1.367 . S
C820 C828 1.378 . S
C821 C820 1.367 . S
C821 C829 1.433 . S
C822 H818 0.929 . S
C822 C824 1.378 . S
C822 C826 1.350 . S
C823 C826 1.463 . S
C823 C828 1.350 . S
C823 N831 1.427 . S
C824 H815 0.930 . S
C824 C822 1.378 . S
C824 C825 1.367 . S
C825 C824 1.367 . S
C825 C827 1.433 . S
C826 C822 1.350 . S
C826 C823 1.463 . S
C826 N830 1.427 . S
C827 H817 0.929 . S
C827 C825 1.433 . S
C827 N830 1.384 . S
C828 H819 0.929 . S
C828 C820 1.378 . S
C828 C823 1.350 . S
C829 H816 0.929 . S
C829 C821 1.433 . S
C829 N831 1.384 . S
N830 C826 1.427 . S
N830 C827 1.384 . S
N831 C823 1.427 . S
N831 C829 1.384 . S
H832 C838 0.930 . S
H833 C842 0.930 . S
H834 C847 0.929 . S
H835 C845 0.929 . S
H836 C840 0.929 . S
H837 C846 0.929 . S
C838 H832 0.930 . S
C838 C839 1.367 . S
C838 C846 1.378 . S
C839 C838 1.367 . S
C839 C847 1.433 . S
C840 H836 0.929 . S
C840 C842 1.378 . S
C840 C844 1.350 . S
C841 C844 1.463 . S
C841 C846 1.350 . S
C841 N849 1.427 . S
C842 H833 0.930 . S
C842 C840 1.378 . S
C842 C843 1.367 . S
C843 C842 1.367 . S
C843 C845 1.433 . S
C844 C840 1.350 . S
C844 C841 1.463 . S
C844 N848 1.427 . S
C845 H835 0.929 . S
C845 C843 1.433 . S
C845 N848 1.384 . S
C846 H837 0.929 . S
C846 C838 1.378 . S
C846 C841 1.350 . S
C847 H834 0.929 . S
C847 C839 1.433 . S
C847 N849 1.384 . S
N848 C844 1.427 . S
N848 C845 1.384 . S
N849 C841 1.427 . S
N849 C847 1.384 . S
H850 C856 0.930 . S
H851 C860 0.930 . S
H852 C865 0.929 . S
H853 C863 0.929 . S
H854 C858 0.929 . S
H855 C864 0.929 . S
C856 H850 0.930 . S
C856 C857 1.367 . S
C856 C864 1.378 . S
C857 C856 1.367 . S
C857 C865 1.433 . S
C858 H854 0.929 . S
C858 C860 1.378 . S
C858 C862 1.350 . S
C859 C862 1.463 . S
C859 C864 1.350 . S
C859 N867 1.427 . S
C860 H851 0.930 . S
C860 C858 1.378 . S
C860 C861 1.367 . S
C861 C860 1.367 . S
C861 C863 1.433 . S
C862 C858 1.350 . S
C862 C859 1.463 . S
C862 N866 1.427 . S
C863 H853 0.929 . S
C863 C861 1.433 . S
C863 N866 1.384 . S
C864 H855 0.929 . S
C864 C856 1.378 . S
C864 C859 1.350 . S
C865 H852 0.929 . S
C865 C857 1.433 . S
C865 N867 1.384 . S
N866 C862 1.427 . S
N866 C863 1.384 . S
N867 C859 1.427 . S
N867 C865 1.384 . S
H868 C874 0.930 . S
H869 C878 0.930 . S
H870 C883 0.929 . S
H871 C881 0.929 . S
H872 C876 0.929 . S
H873 C882 0.929 . S
C874 H868 0.930 . S
C874 C875 1.367 . S
C874 C882 1.378 . S
C875 C874 1.367 . S
C875 C883 1.433 . S
C876 H872 0.929 . S
C876 C878 1.378 . S
C876 C880 1.350 . S
C877 C880 1.463 . S
C877 C882 1.350 . S
C877 N885 1.427 . S
C878 H869 0.930 . S
C878 C876 1.378 . S
C878 C879 1.367 . S
C879 C878 1.367 . S
C879 C881 1.433 . S
C880 C876 1.350 . S
C880 C877 1.463 . S
C880 N884 1.427 . S
C881 H871 0.929 . S
C881 C879 1.433 . S
C881 N884 1.384 . S
C882 H873 0.929 . S
C882 C874 1.378 . S
C882 C877 1.350 . S
C883 H870 0.929 . S
C883 C875 1.433 . S
C883 N885 1.384 . S
N884 C880 1.427 . S
N884 C881 1.384 . S
N885 C877 1.427 . S
N885 C883 1.384 . S
H886 C892 0.930 . S
H887 C896 0.930 . S
H888 C901 0.929 . S
H889 C899 0.929 . S
H890 C894 0.929 . S
H891 C900 0.929 . S
C892 H886 0.930 . S
C892 C893 1.367 . S
C892 C900 1.378 . S
C893 C892 1.367 . S
C893 C901 1.433 . S
C894 H890 0.929 . S
C894 C896 1.378 . S
C894 C898 1.350 . S
C895 C898 1.463 . S
C895 C900 1.350 . S
C895 N903 1.427 . S
C896 H887 0.930 . S
C896 C894 1.378 . S
C896 C897 1.367 . S
C897 C896 1.367 . S
C897 C899 1.433 . S
C898 C894 1.350 . S
C898 C895 1.463 . S
C898 N902 1.427 . S
C899 H889 0.929 . S
C899 C897 1.433 . S
C899 N902 1.384 . S
C900 H891 0.929 . S
C900 C892 1.378 . S
C900 C895 1.350 . S
C901 H888 0.929 . S
C901 C893 1.433 . S
C901 N903 1.384 . S
N902 C898 1.427 . S
N902 C899 1.384 . S
N903 C895 1.427 . S
N903 C901 1.384 . S
H904 C910 0.930 . S
H905 C914 0.930 . S
H906 C919 0.929 . S
H907 C917 0.929 . S
H908 C912 0.929 . S
H909 C918 0.929 . S
C910 H904 0.930 . S
C910 C911 1.367 . S
C910 C918 1.378 . S
C911 C910 1.367 . S
C911 C919 1.433 . S
C912 H908 0.929 . S
C912 C914 1.378 . S
C912 C916 1.350 . S
C913 C916 1.463 . S
C913 C918 1.350 . S
C913 N921 1.427 . S
C914 H905 0.930 . S
C914 C912 1.378 . S
C914 C915 1.367 . S
C915 C914 1.367 . S
C915 C917 1.433 . S
C916 C912 1.350 . S
C916 C913 1.463 . S
C916 N920 1.427 . S
C917 H907 0.929 . S
C917 C915 1.433 . S
C917 N920 1.384 . S
C918 H909 0.929 . S
C918 C910 1.378 . S
C918 C913 1.350 . S
C919 H906 0.929 . S
C919 C911 1.433 . S
C919 N921 1.384 . S
N920 C916 1.427 . S
N920 C917 1.384 . S
N921 C913 1.427 . S
N921 C919 1.384 . S
H922 C928 0.930 . S
H923 C932 0.930 . S
H924 C937 0.929 . S
H925 C935 0.929 . S
H926 C930 0.929 . S
H927 C936 0.929 . S
C928 H922 0.930 . S
C928 C929 1.367 . S
C928 C936 1.378 . S
C929 C928 1.367 . S
C929 C937 1.433 . S
C930 H926 0.929 . S
C930 C932 1.378 . S
C930 C934 1.350 . S
C931 C934 1.463 . S
C931 C936 1.350 . S
C931 N939 1.427 . S
C932 H923 0.930 . S
C932 C930 1.378 . S
C932 C933 1.367 . S
C933 C932 1.367 . S
C933 C935 1.433 . S
C934 C930 1.350 . S
C934 C931 1.463 . S
C934 N938 1.427 . S
C935 H925 0.929 . S
C935 C933 1.433 . S
C935 N938 1.384 . S
C936 H927 0.929 . S
C936 C928 1.378 . S
C936 C931 1.350 . S
C937 H924 0.929 . S
C937 C929 1.433 . S
C937 N939 1.384 . S
N938 C934 1.427 . S
N938 C935 1.384 . S
N939 C931 1.427 . S
N939 C937 1.384 . S
H940 C946 0.930 . S
H941 C950 0.930 . S
H942 C955 0.929 . S
H943 C953 0.929 . S
H944 C948 0.929 . S
H945 C954 0.929 . S
C946 H940 0.930 . S
C946 C947 1.367 . S
C946 C954 1.378 . S
C947 C946 1.367 . S
C947 C955 1.433 . S
C948 H944 0.929 . S
C948 C950 1.378 . S
C948 C952 1.350 . S
C949 C952 1.463 . S
C949 C954 1.350 . S
C949 N957 1.427 . S
C950 H941 0.930 . S
C950 C948 1.378 . S
C950 C951 1.367 . S
C951 C950 1.367 . S
C951 C953 1.433 . S
C952 C948 1.350 . S
C952 C949 1.463 . S
C952 N956 1.427 . S
C953 H943 0.929 . S
C953 C951 1.433 . S
C953 N956 1.384 . S
C954 H945 0.929 . S
C954 C946 1.378 . S
C954 C949 1.350 . S
C955 H942 0.929 . S
C955 C947 1.433 . S
C955 N957 1.384 . S
N956 C952 1.427 . S
N956 C953 1.384 . S
N957 C949 1.427 . S
N957 C955 1.384 . S
H958 C964 0.930 . S
H959 C968 0.930 . S
H960 C973 0.929 . S
H961 C971 0.929 . S
H962 C966 0.929 . S
H963 C972 0.929 . S
C964 H958 0.930 . S
C964 C965 1.367 . S
C964 C972 1.378 . S
C965 C964 1.367 . S
C965 C973 1.433 . S
C966 H962 0.929 . S
C966 C968 1.378 . S
C966 C970 1.350 . S
C967 C970 1.463 . S
C967 C972 1.350 . S
C967 N975 1.427 . S
C968 H959 0.930 . S
C968 C966 1.378 . S
C968 C969 1.367 . S
C969 C968 1.367 . S
C969 C971 1.433 . S
C970 C966 1.350 . S
C970 C967 1.463 . S
C970 N974 1.427 . S
C971 H961 0.929 . S
C971 C969 1.433 . S
C971 N974 1.384 . S
C972 H963 0.929 . S
C972 C964 1.378 . S
C972 C967 1.350 . S
C973 H960 0.929 . S
C973 C965 1.433 . S
C973 N975 1.384 . S
N974 C970 1.427 . S
N974 C971 1.384 . S
N975 C967 1.427 . S
N975 C973 1.384 . S
H976 C982 0.930 . S
H977 C986 0.930 . S
H978 C991 0.929 . S
H979 C989 0.929 . S
H980 C984 0.929 . S
H981 C990 0.929 . S
C982 H976 0.930 . S
C982 C983 1.367 . S
C982 C990 1.378 . S
C983 C982 1.367 . S
C983 C991 1.433 . S
C984 H980 0.929 . S
C984 C986 1.378 . S
C984 C988 1.350 . S
C985 C988 1.463 . S
C985 C990 1.350 . S
C985 N993 1.427 . S
C986 H977 0.930 . S
C986 C984 1.378 . S
C986 C987 1.367 . S
C987 C986 1.367 . S
C987 C989 1.433 . S
C988 C984 1.350 . S
C988 C985 1.463 . S
C988 N992 1.427 . S
C989 H979 0.929 . S
C989 C987 1.433 . S
C989 N992 1.384 . S
C990 H981 0.929 . S
C990 C982 1.378 . S
C990 C985 1.350 . S
C991 H978 0.929 . S
C991 C983 1.433 . S
C991 N993 1.384 . S
N992 C988 1.427 . S
N992 C989 1.384 . S
N993 C985 1.427 . S
N993 C991 1.384 . S
H994 C1000 0.930 . S
H995 C1004 0.930 . S
H996 C1009 0.929 . S
H997 C1007 0.929 . S
H998 C1002 0.929 . S
H999 C1008 0.929 . S
C1000 H994 0.930 . S
C1000 C1001 1.367 . S
C1000 C1008 1.378 . S
C1001 C1000 1.367 . S
C1001 C1009 1.433 . S
C1002 H998 0.929 . S
C1002 C1004 1.378 . S
C1002 C1006 1.350 . S
C1003 C1006 1.463 . S
C1003 C1008 1.350 . S
C1003 N1011 1.427 . S
C1004 H995 0.930 . S
C1004 C1002 1.378 . S
C1004 C1005 1.367 . S
C1005 C1004 1.367 . S
C1005 C1007 1.433 . S
C1006 C1002 1.350 . S
C1006 C1003 1.463 . S
C1006 N1010 1.427 . S
C1007 H997 0.929 . S
C1007 C1005 1.433 . S
C1007 N1010 1.384 . S
C1008 H999 0.929 . S
C1008 C1000 1.378 . S
C1008 C1003 1.350 . S
C1009 H996 0.929 . S
C1009 C1001 1.433 . S
C1009 N1011 1.384 . S
N1010 C1006 1.427 . S
N1010 C1007 1.384 . S
N1011 C1003 1.427 . S
N1011 C1009 1.384 . S
H1012 C1018 0.930 . S
H1013 C1022 0.930 . S
H1014 C1027 0.929 . S
H1015 C1025 0.929 . S
H1016 C1020 0.929 . S
H1017 C1026 0.929 . S
C1018 H1012 0.930 . S
C1018 C1019 1.367 . S
C1018 C1026 1.378 . S
C1019 C1018 1.367 . S
C1019 C1027 1.433 . S
C1020 H1016 0.929 . S
C1020 C1022 1.378 . S
C1020 C1024 1.350 . S
C1021 C1024 1.463 . S
C1021 C1026 1.350 . S
C1021 N1029 1.427 . S
C1022 H1013 0.930 . S
C1022 C1020 1.378 . S
C1022 C1023 1.367 . S
C1023 C1022 1.367 . S
C1023 C1025 1.433 . S
C1024 C1020 1.350 . S
C1024 C1021 1.463 . S
C1024 N1028 1.427 . S
C1025 H1015 0.929 . S
C1025 C1023 1.433 . S
C1025 N1028 1.384 . S
C1026 H1017 0.929 . S
C1026 C1018 1.378 . S
C1026 C1021 1.350 . S
C1027 H1014 0.929 . S
C1027 C1019 1.433 . S
C1027 N1029 1.384 . S
N1028 C1024 1.427 . S
N1028 C1025 1.384 . S
N1029 C1021 1.427 . S
N1029 C1027 1.384 . S
H1030 C1036 0.930 1_554 S
H1031 C1040 0.930 . S
H1032 C1045 0.929 . S
H1033 C1043 0.929 . S
H1034 C1038 0.929 . S
H1035 C1044 0.929 . S
C1036 H1030 0.930 1_556 S
C1036 C1037 1.367 . S
C1036 C1044 1.378 . S
C1037 C1036 1.367 . S
C1037 C1045 1.433 . S
C1038 H1034 0.929 . S
C1038 C1040 1.378 . S
C1038 C1042 1.350 . S
C1039 C1042 1.463 . S
C1039 C1044 1.350 . S
C1039 N1047 1.427 . S
C1040 H1031 0.930 . S
C1040 C1038 1.378 . S
C1040 C1041 1.367 . S
C1041 C1040 1.367 . S
C1041 C1043 1.433 . S
C1042 C1038 1.350 . S
C1042 C1039 1.463 . S
C1042 N1046 1.427 . S
C1043 H1033 0.929 . S
C1043 C1041 1.433 . S
C1043 N1046 1.384 . S
C1044 H1035 0.929 . S
C1044 C1036 1.378 . S
C1044 C1039 1.350 . S
C1045 H1032 0.929 . S
C1045 C1037 1.433 . S
C1045 N1047 1.384 . S
N1046 C1042 1.427 . S
N1046 C1043 1.384 . S
N1047 C1039 1.427 . S
N1047 C1045 1.384 . S
H1048 C1054 0.930 . S
H1049 C1058 0.930 . S
H1050 C1063 0.929 . S
H1051 C1061 0.929 . S
H1052 C1056 0.929 . S
H1053 C1062 0.929 . S
C1054 H1048 0.930 . S
C1054 C1055 1.367 . S
C1054 C1062 1.378 . S
C1055 C1054 1.367 . S
C1055 C1063 1.433 . S
C1056 H1052 0.929 . S
C1056 C1058 1.378 . S
C1056 C1060 1.350 . S
C1057 C1060 1.463 . S
C1057 C1062 1.350 . S
C1057 N1065 1.427 . S
C1058 H1049 0.930 . S
C1058 C1056 1.378 . S
C1058 C1059 1.367 . S
C1059 C1058 1.367 . S
C1059 C1061 1.433 . S
C1060 C1056 1.350 . S
C1060 C1057 1.463 . S
C1060 N1064 1.427 . S
C1061 H1051 0.929 . S
C1061 C1059 1.433 . S
C1061 N1064 1.384 . S
C1062 H1053 0.929 . S
C1062 C1054 1.378 . S
C1062 C1057 1.350 . S
C1063 H1050 0.929 . S
C1063 C1055 1.433 . S
C1063 N1065 1.384 . S
N1064 C1060 1.427 . S
N1064 C1061 1.384 . S
N1065 C1057 1.427 . S
N1065 C1063 1.384 . S
H1066 C1072 0.930 . S
H1067 C1076 0.930 . S
H1068 C1081 0.929 . S
H1069 C1079 0.929 1_556 S
H1070 C1074 0.929 . S
H1071 C1080 0.929 . S
C1072 H1066 0.930 . S
C1072 C1073 1.367 . S
C1072 C1080 1.378 . S
C1073 C1072 1.367 . S
C1073 C1081 1.433 . S
C1074 H1070 0.929 . S
C1074 C1076 1.378 . S
C1074 C1078 1.350 . S
C1075 C1078 1.463 . S
C1075 C1080 1.350 . S
C1075 N1083 1.427 . S
C1076 H1067 0.930 . S
C1076 C1074 1.378 . S
C1076 C1077 1.367 . S
C1077 C1076 1.367 . S
C1077 C1079 1.433 . S
C1078 C1074 1.350 . S
C1078 C1075 1.463 . S
C1078 N1082 1.427 . S
C1079 H1069 0.929 1_554 S
C1079 C1077 1.433 . S
C1079 N1082 1.384 . S
C1080 H1071 0.929 . S
C1080 C1072 1.378 . S
C1080 C1075 1.350 . S
C1081 H1068 0.929 . S
C1081 C1073 1.433 . S
C1081 N1083 1.384 . S
N1082 C1078 1.427 . S
N1082 C1079 1.384 . S
N1083 C1075 1.427 . S
N1083 C1081 1.384 . S
H1084 C1090 0.930 . S
H1085 C1094 0.930 . S
H1086 C1099 0.929 . S
H1087 C1097 0.929 . S
H1088 C1092 0.929 . S
H1089 C1098 0.929 . S
C1090 H1084 0.930 . S
C1090 C1091 1.367 . S
C1090 C1098 1.378 . S
C1091 C1090 1.367 . S
C1091 C1099 1.433 . S
C1092 H1088 0.929 . S
C1092 C1094 1.378 . S
C1092 C1096 1.350 . S
C1093 C1096 1.463 . S
C1093 C1098 1.350 . S
C1093 N1101 1.427 . S
C1094 H1085 0.930 . S
C1094 C1092 1.378 . S
C1094 C1095 1.367 . S
C1095 C1094 1.367 . S
C1095 C1097 1.433 . S
C1096 C1092 1.350 . S
C1096 C1093 1.463 . S
C1096 N1100 1.427 . S
C1097 H1087 0.929 . S
C1097 C1095 1.433 . S
C1097 N1100 1.384 . S
C1098 H1089 0.929 . S
C1098 C1090 1.378 . S
C1098 C1093 1.350 . S
C1099 H1086 0.929 . S
C1099 C1091 1.433 . S
C1099 N1101 1.384 . S
N1100 C1096 1.427 . S
N1100 C1097 1.384 . S
N1101 C1093 1.427 . S
N1101 C1099 1.384 . S
H1102 C1108 0.930 . S
H1103 C1112 0.930 . S
H1104 C1117 0.929 . S
H1105 C1115 0.929 . S
H1106 C1110 0.929 . S
H1107 C1116 0.929 . S
C1108 H1102 0.930 . S
C1108 C1109 1.367 . S
C1108 C1116 1.378 . S
C1109 C1108 1.367 . S
C1109 C1117 1.433 . S
C1110 H1106 0.929 . S
C1110 C1112 1.378 . S
C1110 C1114 1.350 . S
C1111 C1114 1.463 . S
C1111 C1116 1.350 . S
C1111 N1119 1.427 . S
C1112 H1103 0.930 . S
C1112 C1110 1.378 . S
C1112 C1113 1.367 . S
C1113 C1112 1.367 . S
C1113 C1115 1.433 . S
C1114 C1110 1.350 . S
C1114 C1111 1.463 . S
C1114 N1118 1.427 . S
C1115 H1105 0.929 . S
C1115 C1113 1.433 . S
C1115 N1118 1.384 . S
C1116 H1107 0.929 . S
C1116 C1108 1.378 . S
C1116 C1111 1.350 . S
C1117 H1104 0.929 . S
C1117 C1109 1.433 . S
C1117 N1119 1.384 . S
N1118 C1114 1.427 . S
N1118 C1115 1.384 . S
N1119 C1111 1.427 . S
N1119 C1117 1.384 . S
H1120 C1126 0.928 . S
H1121 C1130 0.930 . S
H1122 C1135 0.929 . S
H1123 C1133 0.929 . S
H1124 C1128 0.929 . S
H1125 C1134 0.929 . S
C1126 H1120 0.928 . S
C1126 C1127 1.367 . S
C1126 C1134 1.381 1_545 S
C1127 C1126 1.367 . S
C1127 C1135 1.433 1_545 S
C1128 H1124 0.929 . S
C1128 C1130 1.378 . S
C1128 C1132 1.350 . S
C1129 C1132 1.463 . S
C1129 C1134 1.350 . S
C1129 N1137 1.427 . S
C1130 H1121 0.930 . S
C1130 C1128 1.378 . S
C1130 C1131 1.367 . S
C1131 C1130 1.367 . S
C1131 C1133 1.433 . S
C1132 C1128 1.350 . S
C1132 C1129 1.463 . S
C1132 N1136 1.427 . S
C1133 H1123 0.929 . S
C1133 C1131 1.433 . S
C1133 N1136 1.384 . S
C1134 H1125 0.929 . S
C1134 C1126 1.381 1_565 S
C1134 C1129 1.350 . S
C1135 H1122 0.929 . S
C1135 C1127 1.433 1_565 S
C1135 N1137 1.384 . S
N1136 C1132 1.427 . S
N1136 C1133 1.384 . S
N1137 C1129 1.427 . S
N1137 C1135 1.384 . S
H1138 C1144 0.930 . S
H1139 C1148 0.930 . S
H1140 C1153 0.929 . S
H1141 C1151 0.929 . S
H1142 C1146 0.929 . S
H1143 C1152 0.929 . S
C1144 H1138 0.930 . S
C1144 C1145 1.367 . S
C1144 C1152 1.378 . S
C1145 C1144 1.367 . S
C1145 C1153 1.433 . S
C1146 H1142 0.929 . S
C1146 C1148 1.378 . S
C1146 C1150 1.350 . S
C1147 C1150 1.463 . S
C1147 C1152 1.350 . S
C1147 N1155 1.427 . S
C1148 H1139 0.930 . S
C1148 C1146 1.378 . S
C1148 C1149 1.367 . S
C1149 C1148 1.367 . S
C1149 C1151 1.433 . S
C1150 C1146 1.350 . S
C1150 C1147 1.463 . S
C1150 N1154 1.427 . S
C1151 H1141 0.929 . S
C1151 C1149 1.433 . S
C1151 N1154 1.384 . S
C1152 H1143 0.929 . S
C1152 C1144 1.378 . S
C1152 C1147 1.350 . S
C1153 H1140 0.929 . S
C1153 C1145 1.433 . S
C1153 N1155 1.384 . S
N1154 C1150 1.427 . S
N1154 C1151 1.384 . S
N1155 C1147 1.427 . S
N1155 C1153 1.384 . S
H1156 C1162 0.930 1_565 S
H1157 C1166 0.930 . S
H1158 C1171 0.929 . S
H1159 C1169 0.929 . S
H1160 C1164 0.929 . S
H1161 C1170 0.929 . S
C1162 H1156 0.930 1_545 S
C1162 C1163 1.367 1_545 S
C1162 C1170 1.378 . S
C1163 C1162 1.367 1_565 S
C1163 C1171 1.433 1_565 S
C1164 H1160 0.929 . S
C1164 C1166 1.378 . S
C1164 C1168 1.350 . S
C1165 C1168 1.463 . S
C1165 C1170 1.350 . S
C1165 N1173 1.427 . S
C1166 H1157 0.930 . S
C1166 C1164 1.378 . S
C1166 C1167 1.367 . S
C1167 C1166 1.367 . S
C1167 C1169 1.433 . S
C1168 C1164 1.350 . S
C1168 C1165 1.463 . S
C1168 N1172 1.427 . S
C1169 H1159 0.929 . S
C1169 C1167 1.433 . S
C1169 N1172 1.384 . S
C1170 H1161 0.929 . S
C1170 C1162 1.378 . S
C1170 C1165 1.350 . S
C1171 H1158 0.929 . S
C1171 C1163 1.433 1_545 S
C1171 N1173 1.384 . S
N1172 C1168 1.427 . S
N1172 C1169 1.384 . S
N1173 C1165 1.427 . S
N1173 C1171 1.384 . S
H1174 C1180 0.930 . S
H1175 C1184 0.930 . S
H1176 C1189 0.929 . S
H1177 C1187 0.929 . S
H1178 C1182 0.929 . S
H1179 C1188 0.929 . S
C1180 H1174 0.930 . S
C1180 C1181 1.367 . S
C1180 C1188 1.378 . S
C1181 C1180 1.367 . S
C1181 C1189 1.433 . S
C1182 H1178 0.929 . S
C1182 C1184 1.378 . S
C1182 C1186 1.350 . S
C1183 C1186 1.463 . S
C1183 C1188 1.350 . S
C1183 N1191 1.427 . S
C1184 H1175 0.930 . S
C1184 C1182 1.378 . S
C1184 C1185 1.367 . S
C1185 C1184 1.367 . S
C1185 C1187 1.433 . S
C1186 C1182 1.350 . S
C1186 C1183 1.463 . S
C1186 N1190 1.427 . S
C1187 H1177 0.929 . S
C1187 C1185 1.433 . S
C1187 N1190 1.384 . S
C1188 H1179 0.929 . S
C1188 C1180 1.378 . S
C1188 C1183 1.350 . S
C1189 H1176 0.929 . S
C1189 C1181 1.433 . S
C1189 N1191 1.384 . S
N1190 C1186 1.427 . S
N1190 C1187 1.384 . S
N1191 C1183 1.427 . S
N1191 C1189 1.384 . S
H1192 C1198 0.930 . S
H1193 C1202 0.930 . S
H1194 C1207 0.929 . S
H1195 C1205 0.913 1_565 S
H1196 C1200 0.929 . S
H1197 C1206 0.929 . S
C1198 H1192 0.930 . S
C1198 C1199 1.367 . S
C1198 C1206 1.378 . S
C1199 C1198 1.367 . S
C1199 C1207 1.433 . S
C1200 H1196 0.929 . S
C1200 C1202 1.378 . S
C1200 C1204 1.350 . S
C1201 C1204 1.463 . S
C1201 C1206 1.350 . S
C1201 N1209 1.427 . S
C1202 H1193 0.930 . S
C1202 C1200 1.378 . S
C1202 C1203 1.352 1_545 S
C1203 C1202 1.352 1_565 S
C1203 C1205 1.424 1_565 S
C1204 C1200 1.350 . S
C1204 C1201 1.463 . S
C1204 N1208 1.427 . S
C1205 H1195 0.913 1_545 S
C1205 C1203 1.424 1_545 S
C1205 N1208 1.384 . S
C1206 H1197 0.929 . S
C1206 C1198 1.378 . S
C1206 C1201 1.350 . S
C1207 H1194 0.929 . S
C1207 C1199 1.433 . S
C1207 N1209 1.384 . S
N1208 C1204 1.427 . S
N1208 C1205 1.384 . S
N1209 C1201 1.427 . S
N1209 C1207 1.384 . S
H1210 C1216 0.930 . S
H1211 C1220 0.930 . S
H1212 C1225 0.929 . S
H1213 C1223 0.929 . S
H1214 C1218 0.929 . S
H1215 C1224 0.929 . S
C1216 H1210 0.930 . S
C1216 C1217 1.367 . S
C1216 C1224 1.378 . S
C1217 C1216 1.367 . S
C1217 C1225 1.433 . S
C1218 H1214 0.929 . S
C1218 C1220 1.378 . S
C1218 C1222 1.350 . S
C1219 C1222 1.463 . S
C1219 C1224 1.350 . S
C1219 N1227 1.427 . S
C1220 H1211 0.930 . S
C1220 C1218 1.378 . S
C1220 C1221 1.367 . S
C1221 C1220 1.367 . S
C1221 C1223 1.433 . S
C1222 C1218 1.350 . S
C1222 C1219 1.463 . S
C1222 N1226 1.427 . S
C1223 H1213 0.929 . S
C1223 C1221 1.433 . S
C1223 N1226 1.384 . S
C1224 H1215 0.929 . S
C1224 C1216 1.378 . S
C1224 C1219 1.350 . S
C1225 H1212 0.929 . S
C1225 C1217 1.433 . S
C1225 N1227 1.384 . S
N1226 C1222 1.427 . S
N1226 C1223 1.384 . S
N1227 C1219 1.427 . S
N1227 C1225 1.384 . S
H1228 C1234 0.930 . S
H1229 C1238 0.930 . S
H1230 C1243 0.929 . S
H1231 C1241 0.929 . S
H1232 C1236 0.929 . S
H1233 C1242 0.929 . S
C1234 H1228 0.930 . S
C1234 C1235 1.353 1_565 S
C1234 C1242 1.378 . S
C1235 C1234 1.353 1_545 S
C1235 C1243 1.421 1_545 S
C1236 H1232 0.929 . S
C1236 C1238 1.378 . S
C1236 C1240 1.350 . S
C1237 C1240 1.463 . S
C1237 C1242 1.350 . S
C1237 N1245 1.427 . S
C1238 H1229 0.930 . S
C1238 C1236 1.378 . S
C1238 C1239 1.367 . S
C1239 C1238 1.367 . S
C1239 C1241 1.433 . S
C1240 C1236 1.350 . S
C1240 C1237 1.463 . S
C1240 N1244 1.427 . S
C1241 H1231 0.929 . S
C1241 C1239 1.433 . S
C1241 N1244 1.384 . S
C1242 H1233 0.929 . S
C1242 C1234 1.378 . S
C1242 C1237 1.350 . S
C1243 H1230 0.929 . S
C1243 C1235 1.421 1_565 S
C1243 N1245 1.384 . S
N1244 C1240 1.427 . S
N1244 C1241 1.384 . S
N1245 C1237 1.427 . S
N1245 C1243 1.384 . S
H1246 C1252 0.930 . S
H1247 C1256 0.930 . S
H1248 C1261 0.929 . S
H1249 C1259 0.929 . S
H1250 C1254 0.929 . S
H1251 C1260 0.929 . S
C1252 H1246 0.930 . S
C1252 C1253 1.367 . S
C1252 C1260 1.378 . S
C1253 C1252 1.367 . S
C1253 C1261 1.433 . S
C1254 H1250 0.929 . S
C1254 C1256 1.378 . S
C1254 C1258 1.350 . S
C1255 C1258 1.463 . S
C1255 C1260 1.350 . S
C1255 N1263 1.427 . S
C1256 H1247 0.930 . S
C1256 C1254 1.378 . S
C1256 C1257 1.367 . S
C1257 C1256 1.367 . S
C1257 C1259 1.433 . S
C1258 C1254 1.350 . S
C1258 C1255 1.463 . S
C1258 N1262 1.427 . S
C1259 H1249 0.929 . S
C1259 C1257 1.433 . S
C1259 N1262 1.384 . S
C1260 H1251 0.929 . S
C1260 C1252 1.378 . S
C1260 C1255 1.350 . S
C1261 H1248 0.929 . S
C1261 C1253 1.433 . S
C1261 N1263 1.384 . S
N1262 C1258 1.427 . S
N1262 C1259 1.384 . S
N1263 C1255 1.427 . S
N1263 C1261 1.384 . S
H1264 C1270 0.930 . S
H1265 C1274 0.930 . S
H1266 C1279 0.929 . S
H1267 C1277 0.929 . S
H1268 C1272 0.929 . S
H1269 C1278 0.929 . S
C1270 H1264 0.930 . S
C1270 C1271 1.367 . S
C1270 C1278 1.378 . S
C1271 C1270 1.367 . S
C1271 C1279 1.433 . S
C1272 H1268 0.929 . S
C1272 C1274 1.378 . S
C1272 C1276 1.350 . S
C1273 C1276 1.463 . S
C1273 C1278 1.350 . S
C1273 N1281 1.427 . S
C1274 H1265 0.930 . S
C1274 C1272 1.378 . S
C1274 C1275 1.367 . S
C1275 C1274 1.367 . S
C1275 C1277 1.433 . S
C1276 C1272 1.350 . S
C1276 C1273 1.463 . S
C1276 N1280 1.427 . S
C1277 H1267 0.929 . S
C1277 C1275 1.433 . S
C1277 N1280 1.384 . S
C1278 H1269 0.929 . S
C1278 C1270 1.378 . S
C1278 C1273 1.350 . S
C1279 H1266 0.929 . S
C1279 C1271 1.433 . S
C1279 N1281 1.384 . S
N1280 C1276 1.427 . S
N1280 C1277 1.384 . S
N1281 C1273 1.427 . S
N1281 C1279 1.384 . S
H1282 C1288 0.930 . S
H1283 C1292 0.930 1_554 S
H1284 C1297 0.929 . S
H1285 C1295 0.929 . S
H1286 C1290 0.929 . S
H1287 C1296 0.929 . S
C1288 H1282 0.930 . S
C1288 C1289 1.367 . S
C1288 C1296 1.378 . S
C1289 C1288 1.367 . S
C1289 C1297 1.433 . S
C1290 H1286 0.929 . S
C1290 C1292 1.378 . S
C1290 C1294 1.350 . S
C1291 C1294 1.463 . S
C1291 C1296 1.350 . S
C1291 N1299 1.427 . S
C1292 H1283 0.930 1_556 S
C1292 C1290 1.378 . S
C1292 C1293 1.367 . S
C1293 C1292 1.367 . S
C1293 C1295 1.433 . S
C1294 C1290 1.350 . S
C1294 C1291 1.463 . S
C1294 N1298 1.427 . S
C1295 H1285 0.929 . S
C1295 C1293 1.433 . S
C1295 N1298 1.384 . S
C1296 H1287 0.929 . S
C1296 C1288 1.378 . S
C1296 C1291 1.350 . S
C1297 H1284 0.929 . S
C1297 C1289 1.433 . S
C1297 N1299 1.384 . S
N1298 C1294 1.427 . S
N1298 C1295 1.384 . S
N1299 C1291 1.427 . S
N1299 C1297 1.384 . S
H1300 C1306 0.930 . S
H1301 C1310 0.930 . S
H1302 C1315 0.929 . S
H1303 C1313 0.929 1_545 S
H1304 C1308 0.929 . S
H1305 C1314 0.929 . S
C1306 H1300 0.930 . S
C1306 C1307 1.367 . S
C1306 C1314 1.378 . S
C1307 C1306 1.367 . S
C1307 C1315 1.433 . S
C1308 H1304 0.929 . S
C1308 C1310 1.378 . S
C1308 C1312 1.350 . S
C1309 C1312 1.463 . S
C1309 C1314 1.350 . S
C1309 N1317 1.427 . S
C1310 H1301 0.930 . S
C1310 C1308 1.378 . S
C1310 C1311 1.367 . S
C1311 C1310 1.367 . S
C1311 C1313 1.433 . S
C1312 C1308 1.350 . S
C1312 C1309 1.463 . S
C1312 N1316 1.427 . S
C1313 H1303 0.929 1_565 S
C1313 C1311 1.433 . S
C1313 N1316 1.384 . S
C1314 H1305 0.929 . S
C1314 C1306 1.378 . S
C1314 C1309 1.350 . S
C1315 H1302 0.929 . S
C1315 C1307 1.433 . S
C1315 N1317 1.384 . S
N1316 C1312 1.427 . S
N1316 C1313 1.384 . S
N1317 C1309 1.427 . S
N1317 C1315 1.384 . S
H1318 C1324 0.930 . S
H1319 C1328 0.930 . S
H1320 C1333 0.929 . S
H1321 C1331 0.929 . S
H1322 C1326 0.929 . S
H1323 C1332 0.929 . S
C1324 H1318 0.930 . S
C1324 C1325 1.367 . S
C1324 C1332 1.378 . S
C1325 C1324 1.367 . S
C1325 C1333 1.433 . S
C1326 H1322 0.929 . S
C1326 C1328 1.378 . S
C1326 C1330 1.350 . S
C1327 C1330 1.463 . S
C1327 C1332 1.350 . S
C1327 N1335 1.427 . S
C1328 H1319 0.930 . S
C1328 C1326 1.378 . S
C1328 C1329 1.367 . S
C1329 C1328 1.367 . S
C1329 C1331 1.433 . S
C1330 C1326 1.350 . S
C1330 C1327 1.463 . S
C1330 N1334 1.427 . S
C1331 H1321 0.929 . S
C1331 C1329 1.433 . S
C1331 N1334 1.384 . S
C1332 H1323 0.929 . S
C1332 C1324 1.378 . S
C1332 C1327 1.350 . S
C1333 H1320 0.929 . S
C1333 C1325 1.433 . S
C1333 N1335 1.384 . S
N1334 C1330 1.427 . S
N1334 C1331 1.384 . S
N1335 C1327 1.427 . S
N1335 C1333 1.384 . S
H1336 C1342 0.930 . S
H1337 C1346 0.930 . S
H1338 C1351 0.929 1_545 S
H1339 C1349 0.929 . S
H1340 C1344 0.929 . S
H1341 C1350 0.929 . S
C1342 H1336 0.930 . S
C1342 C1343 1.367 . S
C1342 C1350 1.378 . S
C1343 C1342 1.367 . S
C1343 C1351 1.433 . S
C1344 H1340 0.929 . S
C1344 C1346 1.378 . S
C1344 C1348 1.350 . S
C1345 C1348 1.463 . S
C1345 C1350 1.350 . S
C1345 N1353 1.427 . S
C1346 H1337 0.930 . S
C1346 C1344 1.378 . S
C1346 C1347 1.367 . S
C1347 C1346 1.367 . S
C1347 C1349 1.433 . S
C1348 C1344 1.350 . S
C1348 C1345 1.463 . S
C1348 N1352 1.427 . S
C1349 H1339 0.929 . S
C1349 C1347 1.433 . S
C1349 N1352 1.384 . S
C1350 H1341 0.929 . S
C1350 C1342 1.378 . S
C1350 C1345 1.350 . S
C1351 H1338 0.929 1_565 S
C1351 C1343 1.433 . S
C1351 N1353 1.384 . S
N1352 C1348 1.427 . S
N1352 C1349 1.384 . S
N1353 C1345 1.427 . S
N1353 C1351 1.384 . S
H1354 C1360 0.930 . S
H1355 C1364 0.930 . S
H1356 C1369 0.929 . S
H1357 C1367 0.929 . S
H1358 C1362 0.929 . S
H1359 C1368 0.929 . S
C1360 H1354 0.930 . S
C1360 C1361 1.367 . S
C1360 C1368 1.378 . S
C1361 C1360 1.367 . S
C1361 C1369 1.433 . S
C1362 H1358 0.929 . S
C1362 C1364 1.378 . S
C1362 C1366 1.350 . S
C1363 C1366 1.463 . S
C1363 C1368 1.350 . S
C1363 N1371 1.427 . S
C1364 H1355 0.930 . S
C1364 C1362 1.378 . S
C1364 C1365 1.367 . S
C1365 C1364 1.367 . S
C1365 C1367 1.433 . S
C1366 C1362 1.350 . S
C1366 C1363 1.463 . S
C1366 N1370 1.427 . S
C1367 H1357 0.929 . S
C1367 C1365 1.433 . S
C1367 N1370 1.384 . S
C1368 H1359 0.929 . S
C1368 C1360 1.378 . S
C1368 C1363 1.350 . S
C1369 H1356 0.929 . S
C1369 C1361 1.433 . S
C1369 N1371 1.384 . S
N1370 C1366 1.427 . S
N1370 C1367 1.384 . S
N1371 C1363 1.427 . S
N1371 C1369 1.384 . S
H1372 C1378 0.930 . S
H1373 C1382 0.930 . S
H1374 C1387 0.929 . S
H1375 C1385 0.929 1_565 S
H1376 C1380 0.929 . S
H1377 C1386 0.929 . S
C1378 H1372 0.930 . S
C1378 C1379 1.367 . S
C1378 C1386 1.378 . S
C1379 C1378 1.367 . S
C1379 C1387 1.433 . S
C1380 H1376 0.929 . S
C1380 C1382 1.378 . S
C1380 C1384 1.350 . S
C1381 C1384 1.463 . S
C1381 C1386 1.350 . S
C1381 N1389 1.427 . S
C1382 H1373 0.930 . S
C1382 C1380 1.378 . S
C1382 C1383 1.367 . S
C1383 C1382 1.367 . S
C1383 C1385 1.433 . S
C1384 C1380 1.350 . S
C1384 C1381 1.463 . S
C1384 N1388 1.427 . S
C1385 H1375 0.929 1_545 S
C1385 C1383 1.433 . S
C1385 N1388 1.384 . S
C1386 H1377 0.929 . S
C1386 C1378 1.378 . S
C1386 C1381 1.350 . S
C1387 H1374 0.929 . S
C1387 C1379 1.433 . S
C1387 N1389 1.384 . S
N1388 C1384 1.427 . S
N1388 C1385 1.384 . S
N1389 C1381 1.427 . S
N1389 C1387 1.384 . S
H1390 C1396 0.930 . S
H1391 C1400 0.930 . S
H1392 C1405 0.929 . S
H1393 C1403 0.929 1_556 S
H1394 C1398 0.929 . S
H1395 C1404 0.929 . S
C1396 H1390 0.930 . S
C1396 C1397 1.367 . S
C1396 C1404 1.378 . S
C1397 C1396 1.367 . S
C1397 C1405 1.433 . S
C1398 H1394 0.929 . S
C1398 C1400 1.378 . S
C1398 C1402 1.350 . S
C1399 C1402 1.463 . S
C1399 C1404 1.350 . S
C1399 N1407 1.427 . S
C1400 H1391 0.930 . S
C1400 C1398 1.378 . S
C1400 C1401 1.367 . S
C1401 C1400 1.367 . S
C1401 C1403 1.433 . S
C1402 C1398 1.350 . S
C1402 C1399 1.463 . S
C1402 N1406 1.427 . S
C1403 H1393 0.929 1_554 S
C1403 C1401 1.433 . S
C1403 N1406 1.384 . S
C1404 H1395 0.929 . S
C1404 C1396 1.378 . S
C1404 C1399 1.350 . S
C1405 H1392 0.929 . S
C1405 C1397 1.433 . S
C1405 N1407 1.384 . S
N1406 C1402 1.427 . S
N1406 C1403 1.384 . S
N1407 C1399 1.427 . S
N1407 C1405 1.384 . S
H1408 C1414 0.930 . S
H1409 C1418 0.930 . S
H1410 C1423 0.929 . S
H1411 C1421 0.929 . S
H1412 C1416 0.929 . S
H1413 C1422 0.929 . S
C1414 H1408 0.930 . S
C1414 C1415 1.367 . S
C1414 C1422 1.378 . S
C1415 C1414 1.367 . S
C1415 C1423 1.433 1_455 S
C1416 H1412 0.929 . S
C1416 C1418 1.378 . S
C1416 C1420 1.350 1_655 S
C1417 C1420 1.463 . S
C1417 C1422 1.350 . S
C1417 N1425 1.427 1_455 S
C1418 H1409 0.930 . S
C1418 C1416 1.378 . S
C1418 C1419 1.367 1_655 S
C1419 C1418 1.367 1_455 S
C1419 C1421 1.433 . S
C1420 C1416 1.350 1_455 S
C1420 C1417 1.463 . S
C1420 N1424 1.427 . S
C1421 H1411 0.929 . S
C1421 C1419 1.433 . S
C1421 N1424 1.384 . S
C1422 H1413 0.929 . S
C1422 C1414 1.378 . S
C1422 C1417 1.350 . S
C1423 H1410 0.929 . S
C1423 C1415 1.433 1_655 S
C1423 N1425 1.384 . S
N1424 C1420 1.427 . S
N1424 C1421 1.384 . S
N1425 C1417 1.427 1_655 S
N1425 C1423 1.384 . S
H1426 C1432 0.930 . S
H1427 C1436 0.930 . S
H1428 C1441 0.929 . S
H1429 C1439 0.929 . S
H1430 C1434 0.929 . S
H1431 C1440 0.929 . S
C1432 H1426 0.930 . S
C1432 C1433 1.367 . S
C1432 C1440 1.378 . S
C1433 C1432 1.367 . S
C1433 C1441 1.433 . S
C1434 H1430 0.929 . S
C1434 C1436 1.378 . S
C1434 C1438 1.350 . S
C1435 C1438 1.463 . S
C1435 C1440 1.350 . S
C1435 N1443 1.427 . S
C1436 H1427 0.930 . S
C1436 C1434 1.378 . S
C1436 C1437 1.367 . S
C1437 C1436 1.367 . S
C1437 C1439 1.433 . S
C1438 C1434 1.350 . S
C1438 C1435 1.463 . S
C1438 N1442 1.427 . S
C1439 H1429 0.929 . S
C1439 C1437 1.433 . S
C1439 N1442 1.384 . S
C1440 H1431 0.929 . S
C1440 C1432 1.378 . S
C1440 C1435 1.350 . S
C1441 H1428 0.929 . S
C1441 C1433 1.433 . S
C1441 N1443 1.384 . S
N1442 C1438 1.427 . S
N1442 C1439 1.384 . S
N1443 C1435 1.427 . S
N1443 C1441 1.384 . S
H1444 C1450 0.930 1_554 S
H1445 C1454 0.930 . S
H1446 C1459 0.929 . S
H1447 C1457 0.929 1_554 S
H1448 C1452 0.929 . S
H1449 C1458 0.929 1_554 S
C1450 H1444 0.930 1_556 S
C1450 C1451 1.367 . S
C1450 C1458 1.378 . S
C1451 C1450 1.367 . S
C1451 C1459 1.433 . S
C1452 H1448 0.929 . S
C1452 C1454 1.378 . S
C1452 C1456 1.350 . S
C1453 C1456 1.463 . S
C1453 C1458 1.350 . S
C1453 N1461 1.427 . S
C1454 H1445 0.930 . S
C1454 C1452 1.378 . S
C1454 C1455 1.367 . S
C1455 C1454 1.367 . S
C1455 C1457 1.433 . S
C1456 C1452 1.350 . S
C1456 C1453 1.463 . S
C1456 N1460 1.427 . S
C1457 H1447 0.929 1_556 S
C1457 C1455 1.433 . S
C1457 N1460 1.384 . S
C1458 H1449 0.929 1_556 S
C1458 C1450 1.378 . S
C1458 C1453 1.350 . S
C1459 H1446 0.929 . S
C1459 C1451 1.433 . S
C1459 N1461 1.384 . S
N1460 C1456 1.427 . S
N1460 C1457 1.384 . S
N1461 C1453 1.427 . S
N1461 C1459 1.384 . S
H1462 C1468 0.930 . S
H1463 C1472 0.930 . S
H1464 C1477 0.929 . S
H1465 C1475 0.929 . S
H1466 C1470 0.929 . S
H1467 C1476 0.929 . S
C1468 H1462 0.930 . S
C1468 C1469 1.367 . S
C1468 C1476 1.378 . S
C1469 C1468 1.367 . S
C1469 C1477 1.433 . S
C1470 H1466 0.929 . S
C1470 C1472 1.378 . S
C1470 C1474 1.350 . S
C1471 C1474 1.463 1_455 S
C1471 C1476 1.350 . S
C1471 N1479 1.427 . S
C1472 H1463 0.930 . S
C1472 C1470 1.378 . S
C1472 C1473 1.367 . S
C1473 C1472 1.367 . S
C1473 C1475 1.433 . S
C1474 C1470 1.350 . S
C1474 C1471 1.463 1_655 S
C1474 N1478 1.427 . S
C1475 H1465 0.929 . S
C1475 C1473 1.433 . S
C1475 N1478 1.384 . S
C1476 H1467 0.929 . S
C1476 C1468 1.378 . S
C1476 C1471 1.350 . S
C1477 H1464 0.929 . S
C1477 C1469 1.433 . S
C1477 N1479 1.384 . S
N1478 C1474 1.427 . S
N1478 C1475 1.384 . S
N1479 C1471 1.427 . S
N1479 C1477 1.384 . S
H1480 C1486 0.930 . S
H1481 C1490 0.932 . S
H1482 C1495 0.930 . S
H1483 C1493 0.929 . S
H1484 C1488 0.930 . S
H1485 C1494 0.929 . S
C1486 H1480 0.930 . S
C1486 C1487 1.367 . S
C1486 C1494 1.378 . S
C1487 C1486 1.367 . S
C1487 C1495 1.432 1_455 S
C1488 H1484 0.930 . S
C1488 C1490 1.378 . S
C1488 C1492 1.348 1_655 S
C1489 C1492 1.463 . S
C1489 C1494 1.350 . S
C1489 N1497 1.426 1_455 S
C1490 H1481 0.932 . S
C1490 C1488 1.378 . S
C1490 C1491 1.365 1_655 S
C1491 C1490 1.365 1_455 S
C1491 C1493 1.433 . S
C1492 C1488 1.348 1_455 S
C1492 C1489 1.463 . S
C1492 N1496 1.427 . S
C1493 H1483 0.929 . S
C1493 C1491 1.433 . S
C1493 N1496 1.384 . S
C1494 H1485 0.929 . S
C1494 C1486 1.378 . S
C1494 C1489 1.350 . S
C1495 H1482 0.930 . S
C1495 C1487 1.432 1_655 S
C1495 N1497 1.384 . S
N1496 C1492 1.427 . S
N1496 C1493 1.384 . S
N1497 C1489 1.426 1_655 S
N1497 C1495 1.384 . S
H1498 C1504 0.930 . S
H1499 C1508 0.930 . S
H1500 C1513 0.929 . S
H1501 C1511 0.929 . S
H1502 C1506 0.929 . S
H1503 C1512 0.929 . S
C1504 H1498 0.930 . S
C1504 C1505 1.367 . S
C1504 C1512 1.378 . S
C1505 C1504 1.367 . S
C1505 C1513 1.433 . S
C1506 H1502 0.929 . S
C1506 C1508 1.378 . S
C1506 C1510 1.350 . S
C1507 C1510 1.463 1_455 S
C1507 C1512 1.350 . S
C1507 N1515 1.427 . S
C1508 H1499 0.930 . S
C1508 C1506 1.378 . S
C1508 C1509 1.367 . S
C1509 C1508 1.367 . S
C1509 C1511 1.433 . S
C1510 C1506 1.350 . S
C1510 C1507 1.463 1_655 S
C1510 N1514 1.427 . S
C1511 H1501 0.929 . S
C1511 C1509 1.433 . S
C1511 N1514 1.384 . S
C1512 H1503 0.929 . S
C1512 C1504 1.378 . S
C1512 C1507 1.350 . S
C1513 H1500 0.929 . S
C1513 C1505 1.433 . S
C1513 N1515 1.384 . S
N1514 C1510 1.427 . S
N1514 C1511 1.384 . S
N1515 C1507 1.427 . S
N1515 C1513 1.384 . S
H1516 C1522 0.930 . S
H1517 C1526 0.930 1_556 S
H1518 C1531 0.929 1_556 S
H1519 C1529 0.929 . S
H1520 C1524 0.929 1_556 S
H1521 C1530 0.929 . S
C1522 H1516 0.930 . S
C1522 C1523 1.367 . S
C1522 C1530 1.378 . S
C1523 C1522 1.367 . S
C1523 C1531 1.433 . S
C1524 H1520 0.929 1_554 S
C1524 C1526 1.378 . S
C1524 C1528 1.350 . S
C1525 C1528 1.463 . S
C1525 C1530 1.350 . S
C1525 N1533 1.427 . S
C1526 H1517 0.930 1_554 S
C1526 C1524 1.378 . S
C1526 C1527 1.367 . S
C1527 C1526 1.367 . S
C1527 C1529 1.433 . S
C1528 C1524 1.350 . S
C1528 C1525 1.463 . S
C1528 N1532 1.427 . S
C1529 H1519 0.929 . S
C1529 C1527 1.433 . S
C1529 N1532 1.384 . S
C1530 H1521 0.929 . S
C1530 C1522 1.378 . S
C1530 C1525 1.350 . S
C1531 H1518 0.929 1_554 S
C1531 C1523 1.433 . S
C1531 N1533 1.384 . S
N1532 C1528 1.427 . S
N1532 C1529 1.384 . S
N1533 C1525 1.427 . S
N1533 C1531 1.384 . S
H1534 C1540 0.930 . S
H1535 C1544 0.930 . S
H1536 C1549 0.929 . S
H1537 C1547 0.929 . S
H1538 C1542 0.929 . S
H1539 C1548 0.929 . S
C1540 H1534 0.930 . S
C1540 C1541 1.367 . S
C1540 C1548 1.378 . S
C1541 C1540 1.367 . S
C1541 C1549 1.433 . S
C1542 H1538 0.929 . S
C1542 C1544 1.378 . S
C1542 C1546 1.350 . S
C1543 C1546 1.463 . S
C1543 C1548 1.350 . S
C1543 N1551 1.427 . S
C1544 H1535 0.930 . S
C1544 C1542 1.378 . S
C1544 C1545 1.367 . S
C1545 C1544 1.367 . S
C1545 C1547 1.433 . S
C1546 C1542 1.350 . S
C1546 C1543 1.463 . S
C1546 N1550 1.427 . S
C1547 H1537 0.929 . S
C1547 C1545 1.433 . S
C1547 N1550 1.384 . S
C1548 H1539 0.929 . S
C1548 C1540 1.378 . S
C1548 C1543 1.350 . S
C1549 H1536 0.929 . S
C1549 C1541 1.433 . S
C1549 N1551 1.384 . S
N1550 C1546 1.427 . S
N1550 C1547 1.384 . S
N1551 C1543 1.427 . S
N1551 C1549 1.384 . S
C551 C334 1.350 . S
C555 C6 1.341 . S
C569 C40 1.348 . S
C573 C504 1.334 . S
C587 C74 1.346 . S
C591 C278 1.348 . S
C605 C108 1.332 . S
C609 C538 1.341 . S
C623 C346 1.338 . S
C627 C164 1.350 . S
C641 C176 1.349 . S
C645 C448 1.336 . S
C659 C402 1.350 . S
C663 C232 1.338 . S
C677 C414 1.344 . S
C681 C266 1.350 . S
C695 C158 0.717 . S
C699 C117 0.678 . S
C713 C287 0.678 . S
C717 C423 0.686 . S
C731 C49 0.728 . S
C735 C226 0.710 . S
C749 C457 0.722 . S
C753 C328 0.683 . S
C767 C185 0.729 . S
C771 C15 0.704 . S
C785 C355 0.676 . S
C789 C532 0.689 . S
C803 C83 0.703 . S
C807 C260 0.673 . S
C821 C396 0.718 . S
C825 C498 0.724 . S
C839 C362 1.546 . S
C843 C1 1.566 . S
C857 C35 1.563 . S
C861 C464 1.549 . S
C875 C69 1.569 . S
C879 C389 1.542 . S
C893 C430 1.538 . S
C897 C103 1.570 . S
C911 C321 1.552 . S
C915 C139 1.557 . S
C929 C171 1.561 . S
C933 C491 1.551 . S
C947 C294 1.541 . S
C951 C207 1.566 . S
C965 C525 1.549 . S
C969 C241 1.563 . S
C983 C198 1.999 . S
C987 C137 1.981 . S
C1001 C516 2.000 . S
C1005 C275 1.984 . S
C1019 C205 1.976 . S
C1023 C244 2.006 . S
C1037 C482 1.997 . S
C1041 C307 1.984 . S
C1055 C130 1.996 . S
C1059 C3 1.987 . S
C1073 C343 1.975 . S
C1077 C436 2.007 . S
C1091 C62 2.004 . S
C1095 C71 1.978 . S
C1109 C375 1.977 . S
C1113 C470 2.003 . S
C1127 C409 1.568 . S
C1131 C56 1.543 . S
C1145 C341 1.565 . S
C1149 C90 1.542 . S
C1163 C443 1.567 . S
C1167 C124 1.544 . S
C1181 C377 1.571 . S
C1185 C22 1.537 . S
C1199 C253 1.549 . S
C1203 C479 1.582 . S
C1217 C273 1.568 . S
C1221 C151 1.543 . S
C1235 C513 1.585 . S
C1239 C192 1.544 . S
C1253 C309 1.556 . S
C1257 C219 1.554 . S
C1271 C300 2.006 . S
C1275 C477 1.977 1_545 S
C1289 C173 1.980 . S
C1293 C210 2.000 . S
C1307 C312 2.000 . S
C1311 C511 1.980 1_565 S
C1325 C239 1.980 . S
C1329 C142 2.000 . S
C1343 C411 1.978 1_565 S
C1347 C380 2.002 . S
C1361 C37 1.987 . S
C1365 C28 1.994 . S
C1379 C368 2.006 . S
C1383 C445 1.974 1_545 S
C1397 C105 1.980 . S
C1401 C96 2.004 . S
C1415 C459 1.670 . S
C1419 C17 1.670 . S
C1433 C391 1.668 . S
C1437 C51 1.672 . S
C1451 C85 1.671 . S
C1455 C425 1.669 . S
C1469 C357 1.671 . S
C1473 C119 1.669 . S
C1487 C153 1.672 . S
C1491 C527 1.668 . S
C1505 C323 1.672 . S
C1509 C187 1.668 . S
C1523 C221 1.669 . S
C1527 C493 1.672 . S
C1541 C255 1.671 . S
C1545 C289 1.669 . S
