# Generated by pormake.
# Topology vbj, (5)-cn, num edge types: 1
# Building blocks:
#     Node 0, Type 0, BuildingBlock: BEQFEK_clean_sbu_0, # of connection points: 5
#     Node 1, Type 0, BuildingBlock: BEQFEK_clean_sbu_0, # of connection points: 5
#     Node 2, Type 0, BuildingBlock: BEQFEK_clean_sbu_0, # of connection points: 5
#     Node 3, Type 0, BuildingBlock: BEQFEK_clean_sbu_0, # of connection points: 5
#     Node 4, Type 0, BuildingBlock: BEQFEK_clean_sbu_0, # of connection points: 5
#     Node 5, Type 0, BuildingBlock: BEQFEK_clean_sbu_0, # of connection points: 5
#     Node 6, Type 0, BuildingBlock: BEQFEK_clean_sbu_0, # of connection points: 5
#     Node 7, Type 0, BuildingBlock: BEQFEK_clean_sbu_0, # of connection points: 5
#     Node 8, Type 0, BuildingBlock: BEQFEK_clean_sbu_0, # of connection points: 5
#     Node 9, Type 0, BuildingBlock: BEQFEK_clean_sbu_0, # of connection points: 5
#     Node 10, Type 0, BuildingBlock: BEQFEK_clean_sbu_0, # of connection points: 5
#     Node 11, Type 0, BuildingBlock: BEQFEK_clean_sbu_0, # of connection points: 5
#     Node 12, Type 0, BuildingBlock: BEQFEK_clean_sbu_0, # of connection points: 5
#     Node 13, Type 0, BuildingBlock: BEQFEK_clean_sbu_0, # of connection points: 5
#     Node 14, Type 0, BuildingBlock: BEQFEK_clean_sbu_0, # of connection points: 5
#     Node 15, Type 0, BuildingBlock: BEQFEK_clean_sbu_0, # of connection points: 5
#     Edge 16, Type (0, 0), BuildingBlock: ZUJKAS_clean_linker_0, # of connection points: 2
#     Edge 17, Type (0, 0), BuildingBlock: ZUJKAS_clean_linker_0, # of connection points: 2
#     Edge 18, Type (0, 0), BuildingBlock: ZUJKAS_clean_linker_0, # of connection points: 2
#     Edge 19, Type (0, 0), BuildingBlock: ZUJKAS_clean_linker_0, # of connection points: 2
#     Edge 20, Type (0, 0), BuildingBlock: ZUJKAS_clean_linker_0, # of connection points: 2
#     Edge 21, Type (0, 0), BuildingBlock: ZUJKAS_clean_linker_0, # of connection points: 2
#     Edge 22, Type (0, 0), BuildingBlock: ZUJKAS_clean_linker_0, # of connection points: 2
#     Edge 23, Type (0, 0), BuildingBlock: ZUJKAS_clean_linker_0, # of connection points: 2
#     Edge 24, Type (0, 0), BuildingBlock: ZUJKAS_clean_linker_0, # of connection points: 2
#     Edge 25, Type (0, 0), BuildingBlock: ZUJKAS_clean_linker_0, # of connection points: 2
#     Edge 26, Type (0, 0), BuildingBlock: ZUJKAS_clean_linker_0, # of connection points: 2
#     Edge 27, Type (0, 0), BuildingBlock: ZUJKAS_clean_linker_0, # of connection points: 2
#     Edge 28, Type (0, 0), BuildingBlock: ZUJKAS_clean_linker_0, # of connection points: 2
#     Edge 29, Type (0, 0), BuildingBlock: ZUJKAS_clean_linker_0, # of connection points: 2
#     Edge 30, Type (0, 0), BuildingBlock: ZUJKAS_clean_linker_0, # of connection points: 2
#     Edge 31, Type (0, 0), BuildingBlock: ZUJKAS_clean_linker_0, # of connection points: 2
#     Edge 32, Type (0, 0), BuildingBlock: ZUJKAS_clean_linker_0, # of connection points: 2
#     Edge 33, Type (0, 0), BuildingBlock: ZUJKAS_clean_linker_0, # of connection points: 2
#     Edge 34, Type (0, 0), BuildingBlock: ZUJKAS_clean_linker_0, # of connection points: 2
#     Edge 35, Type (0, 0), BuildingBlock: ZUJKAS_clean_linker_0, # of connection points: 2
#     Edge 36, Type (0, 0), BuildingBlock: ZUJKAS_clean_linker_0, # of connection points: 2
#     Edge 37, Type (0, 0), BuildingBlock: ZUJKAS_clean_linker_0, # of connection points: 2
#     Edge 38, Type (0, 0), BuildingBlock: ZUJKAS_clean_linker_0, # of connection points: 2
#     Edge 39, Type (0, 0), BuildingBlock: ZUJKAS_clean_linker_0, # of connection points: 2
#     Edge 40, Type (0, 0), BuildingBlock: ZUJKAS_clean_linker_0, # of connection points: 2
#     Edge 41, Type (0, 0), BuildingBlock: ZUJKAS_clean_linker_0, # of connection points: 2
#     Edge 42, Type (0, 0), BuildingBlock: ZUJKAS_clean_linker_0, # of connection points: 2
#     Edge 43, Type (0, 0), BuildingBlock: ZUJKAS_clean_linker_0, # of connection points: 2
#     Edge 44, Type (0, 0), BuildingBlock: ZUJKAS_clean_linker_0, # of connection points: 2
#     Edge 45, Type (0, 0), BuildingBlock: ZUJKAS_clean_linker_0, # of connection points: 2
#     Edge 46, Type (0, 0), BuildingBlock: ZUJKAS_clean_linker_0, # of connection points: 2
#     Edge 47, Type (0, 0), BuildingBlock: ZUJKAS_clean_linker_0, # of connection points: 2
#     Edge 48, Type (0, 0), BuildingBlock: ZUJKAS_clean_linker_0, # of connection points: 2
#     Edge 49, Type (0, 0), BuildingBlock: ZUJKAS_clean_linker_0, # of connection points: 2
#     Edge 50, Type (0, 0), BuildingBlock: ZUJKAS_clean_linker_0, # of connection points: 2
#     Edge 51, Type (0, 0), BuildingBlock: ZUJKAS_clean_linker_0, # of connection points: 2
#     Edge 52, Type (0, 0), BuildingBlock: ZUJKAS_clean_linker_0, # of connection points: 2
#     Edge 53, Type (0, 0), BuildingBlock: ZUJKAS_clean_linker_0, # of connection points: 2
#     Edge 54, Type (0, 0), BuildingBlock: ZUJKAS_clean_linker_0, # of connection points: 2
#     Edge 55, Type (0, 0), BuildingBlock: ZUJKAS_clean_linker_0, # of connection points: 2
# Relax obj value: 0.124
# Max RMSD: 0.143
# Mean RMSD: 0.143
data_MOF--net-vbj--node1-BEQFEK_clean_sbu_0--edge1-ZUJKAS_clean_linker_0
_symmetry_space_group_name_H-M    P1
_symmetry_Int_Tables_number       1
_symmetry_cell_setting            triclinic
loop_
_symmetry_equiv_pos_as_xyz
'x, y, z'
_cell_length_a     32.668487
_cell_length_b     89.608526
_cell_length_c     58.285959
_cell_angle_alpha  89.991398
_cell_angle_beta   89.977648
_cell_angle_gamma 90.012098
loop_
_atom_site_label
_atom_site_type_symbol
_atom_site_fract_x
_atom_site_fract_y
_atom_site_fract_z
_atom_type_partial_charge
Co0 Co 0.09259 0.14958 0.10389 0.0
Co1 Co 0.09402 0.11538 0.09106 0.0
C2 C 0.08164 0.12596 0.13947 0.0
O3 O 0.08479 0.13962 0.13374 0.0
O4 O 0.08418 0.11556 0.12465 0.0
C5 C 0.06867 0.17698 0.12266 0.0
O6 O 0.04658 0.16771 0.13498 0.0
C7 C 0.12912 0.08519 0.09209 0.0
C8 C 0.09964 0.07462 0.06212 0.0
C9 C 0.12761 0.07196 0.07956 0.0
N10 N 0.10342 0.09508 0.0824 0.0
N11 N 0.08561 0.08864 0.06463 0.0
C12 C 0.15663 0.08895 0.11178 0.0
H13 H 0.16003 0.10123 0.1134 0.0
H14 H 0.18715 0.08372 0.10946 0.0
H15 H 0.14288 0.08465 0.12788 0.0
C16 C 0.17406 0.14838 0.08149 0.0
N17 N 0.13955 0.14184 0.08914 0.0
N18 N 0.13971 0.12764 0.08323 0.0
C19 C 0.17401 0.12479 0.07118 0.0
C20 C 0.19718 0.13776 0.06995 0.0
C21 C 0.18415 0.16449 0.08505 0.0
H22 H 0.1748 0.16798 0.10255 0.0
H23 H 0.21736 0.1666 0.08266 0.0
H24 H 0.16667 0.1713 0.07253 0.0
O25 O 0.04447 0.1464 0.08413 0.0
O26 O 0.04478 0.12247 0.07445 0.0
H27 H 0.20345 0.11214 0.0441 0.0
H28 H 0.19547 0.10225 0.07062 0.0
C29 C 0.18197 0.11049 0.05862 0.0
H30 H 0.15296 0.10594 0.05174 0.0
H31 H 0.06445 0.09393 0.05394 0.0
O32 O 0.09403 0.17166 0.10823 0.0
C33 C 0.0289 0.13543 0.0734 0.0
Co34 Co 0.39436 0.85662 0.1028 0.0
Co35 Co 0.38455 0.8903 0.08792 0.0
C36 C 0.41951 0.88198 0.13341 0.0
O37 O 0.41529 0.86816 0.12903 0.0
O38 O 0.40862 0.89193 0.11908 0.0
C39 C 0.42988 0.83101 0.12049 0.0
O40 O 0.45694 0.8413 0.12575 0.0
C41 C 0.34883 0.92049 0.08929 0.0
C42 C 0.36571 0.9292 0.05512 0.0
C43 C 0.34504 0.93294 0.07511 0.0
N44 N 0.3705 0.91001 0.07808 0.0
N45 N 0.38077 0.91534 0.05776 0.0
C46 C 0.32993 0.91798 0.11235 0.0
H47 H 0.32769 0.90585 0.11605 0.0
H48 H 0.29908 0.92314 0.11319 0.0
H49 H 0.34956 0.92316 0.12568 0.0
C50 C 0.30646 0.85614 0.09095 0.0
N51 N 0.34184 0.86347 0.0945 0.0
N52 N 0.33782 0.87743 0.08775 0.0
C53 C 0.2998 0.87935 0.07932 0.0
C54 C 0.2785 0.86597 0.08129 0.0
C55 C 0.30079 0.83983 0.09536 0.0
H56 H 0.31467 0.83683 0.1121 0.0
H57 H 0.26788 0.83675 0.09535 0.0
H58 H 0.31689 0.8334 0.08181 0.0
O59 O 0.43121 0.85883 0.07641 0.0
O60 O 0.42616 0.88258 0.06604 0.0
H61 H 0.26012 0.89058 0.05485 0.0
H62 H 0.27795 0.90183 0.07841 0.0
C63 C 0.2866 0.8929 0.06617 0.0
H64 H 0.31214 0.89696 0.05535 0.0
H65 H 0.39754 0.90942 0.04552 0.0
O66 O 0.39689 0.83496 0.11058 0.0
C67 C 0.44125 0.86959 0.06337 0.0
Co68 Co 0.58886 0.85685 0.38931 0.0
Co69 Co 0.60733 0.89038 0.40185 0.0
C70 C 0.57794 0.88151 0.35523 0.0
O71 O 0.57761 0.86774 0.36061 0.0
O72 O 0.58807 0.89149 0.36968 0.0
C73 C 0.59353 0.82571 0.37027 0.0
O74 O 0.62519 0.82917 0.35745 0.0
C75 C 0.64626 0.92044 0.40016 0.0
C76 C 0.62882 0.92911 0.43428 0.0
C77 C 0.64922 0.93289 0.41429 0.0
N78 N 0.62522 0.90977 0.41143 0.0
N79 N 0.61505 0.91506 0.43181 0.0
C80 C 0.66154 0.91897 0.37605 0.0
H81 H 0.64642 0.90957 0.36712 0.0
H82 H 0.69493 0.91674 0.37632 0.0
H83 H 0.6564 0.92951 0.36647 0.0
C84 C 0.67363 0.85326 0.40766 0.0
N85 N 0.64168 0.86165 0.40072 0.0
N86 N 0.64939 0.87578 0.40537 0.0
C87 C 0.68655 0.87681 0.41518 0.0
C88 C 0.70306 0.86261 0.41701 0.0
C89 C 0.67382 0.83657 0.40788 0.0
H90 H 0.64268 0.83229 0.41162 0.0
H91 H 0.68323 0.83247 0.39072 0.0
H92 H 0.69568 0.83217 0.42079 0.0
O93 O 0.54793 0.86192 0.41271 0.0
O94 O 0.56118 0.8853 0.4225 0.0
H95 H 0.68609 0.89568 0.43764 0.0
H96 H 0.73692 0.88947 0.42977 0.0
C97 C 0.70513 0.89107 0.42357 0.0
H98 H 0.70573 0.89926 0.40938 0.0
H99 H 0.59821 0.90913 0.444 0.0
O100 O 0.57813 0.83534 0.38374 0.0
C101 C 0.54046 0.87338 0.42482 0.0
Co102 Co 0.9033 0.15167 0.39578 0.0
Co103 Co 0.88928 0.11761 0.40749 0.0
C104 C 0.93051 0.12697 0.36422 0.0
O105 O 0.92638 0.14068 0.36939 0.0
O106 O 0.91757 0.1167 0.37744 0.0
C107 C 0.9362 0.17806 0.37701 0.0
O108 O 0.96093 0.16818 0.36783 0.0
C109 C 0.85597 0.08683 0.40388 0.0
C110 C 0.86737 0.07857 0.43902 0.0
C111 C 0.85151 0.0744 0.41794 0.0
N112 N 0.87334 0.09785 0.41623 0.0
N113 N 0.88008 0.09279 0.43719 0.0
C114 C 0.84561 0.08802 0.37892 0.0
H115 H 0.86257 0.0973 0.37076 0.0
H116 H 0.81242 0.09029 0.37701 0.0
H117 H 0.85257 0.07737 0.37001 0.0
C118 C 0.81426 0.15254 0.4052 0.0
N119 N 0.8494 0.145 0.40184 0.0
N120 N 0.84354 0.13079 0.40668 0.0
C121 C 0.80449 0.12889 0.41345 0.0
C122 C 0.78465 0.14257 0.41272 0.0
C123 C 0.81097 0.16917 0.40416 0.0
H124 H 0.83171 0.17415 0.41716 0.0
H125 H 0.82129 0.1731 0.38705 0.0
H126 H 0.77918 0.17301 0.40734 0.0
O127 O 0.93757 0.14842 0.42312 0.0
O128 O 0.92799 0.12452 0.4314 0.0
H129 H 0.80574 0.11076 0.43736 0.0
H130 H 0.75487 0.11559 0.42752 0.0
C131 C 0.78744 0.11452 0.42241 0.0
H132 H 0.78959 0.1059 0.40889 0.0
H133 H 0.89355 0.09904 0.45027 0.0
O134 O 0.9067 0.17355 0.38949 0.0
C135 C 0.94445 0.13709 0.43567 0.0
Co136 Co 0.89693 0.85678 0.8884 0.0
Co137 Co 0.88452 0.89059 0.90167 0.0
C138 C 0.9072 0.88138 0.85404 0.0
O139 O 0.9065 0.8676 0.85938 0.0
O140 O 0.90001 0.89149 0.86884 0.0
C141 C 0.92919 0.83052 0.8696 0.0
O142 O 0.95184 0.84057 0.85919 0.0
C143 C 0.85018 0.92096 0.89959 0.0
C144 C 0.86337 0.92931 0.93447 0.0
C145 C 0.84567 0.93336 0.91376 0.0
N146 N 0.86959 0.9102 0.91144 0.0
N147 N 0.8776 0.9153 0.93222 0.0
C148 C 0.83353 0.91876 0.87592 0.0
H149 H 0.82866 0.9067 0.87248 0.0
H150 H 0.80423 0.92486 0.87374 0.0
H151 H 0.85595 0.92307 0.86324 0.0
C152 C 0.81349 0.85475 0.908 0.0
N153 N 0.8463 0.86267 0.90113 0.0
N154 N 0.84087 0.87683 0.90639 0.0
C155 C 0.8043 0.87836 0.91676 0.0
C156 C 0.78585 0.86444 0.91823 0.0
C157 C 0.81104 0.83809 0.90683 0.0
H158 H 0.83821 0.83321 0.91544 0.0
H159 H 0.81193 0.83455 0.88859 0.0
H160 H 0.7828 0.83376 0.91504 0.0
O161 O 0.94088 0.86092 0.91052 0.0
O162 O 0.93191 0.88453 0.92075 0.0
H163 H 0.80758 0.89696 0.93969 0.0
H164 H 0.75589 0.89175 0.93188 0.0
C165 C 0.78778 0.89285 0.92558 0.0
H166 H 0.78817 0.90122 0.91162 0.0
H167 H 0.89245 0.90915 0.94496 0.0
O168 O 0.90057 0.83488 0.88281 0.0
C169 C 0.95111 0.87222 0.9224 0.0
Co170 Co 0.58959 0.15184 0.88328 0.0
Co171 Co 0.60814 0.11829 0.89539 0.0
C172 C 0.58815 0.12785 0.8475 0.0
O173 O 0.58522 0.14149 0.85345 0.0
O174 O 0.59629 0.11766 0.86205 0.0
C175 C 0.59393 0.18325 0.86554 0.0
O176 O 0.62501 0.17984 0.85224 0.0
C177 C 0.64934 0.08889 0.89422 0.0
C178 C 0.63176 0.0798 0.92806 0.0
C179 C 0.65382 0.07648 0.90839 0.0
N180 N 0.62583 0.09898 0.90514 0.0
N181 N 0.61526 0.09341 0.92528 0.0
C182 C 0.66907 0.09172 0.87147 0.0
H183 H 0.67196 0.1039 0.86838 0.0
H184 H 0.69973 0.0864 0.87068 0.0
H185 H 0.6496 0.08692 0.85774 0.0
C186 C 0.67031 0.15585 0.90638 0.0
N187 N 0.64009 0.14729 0.89773 0.0
N188 N 0.64815 0.13316 0.90215 0.0
C189 C 0.68404 0.13229 0.91341 0.0
C190 C 0.69935 0.14659 0.91633 0.0
C191 C 0.6704 0.17253 0.90586 0.0
H192 H 0.6765 0.17631 0.88807 0.0
H193 H 0.6943 0.17725 0.91727 0.0
H194 H 0.63987 0.1768 0.911 0.0
O195 O 0.54446 0.14582 0.90351 0.0
O196 O 0.55757 0.1224 0.91308 0.0
H197 H 0.72881 0.12018 0.93382 0.0
H198 H 0.70824 0.11028 0.90948 0.0
C199 C 0.70086 0.11819 0.92349 0.0
H200 H 0.67742 0.113 0.93468 0.0
H201 H 0.59703 0.09899 0.93723 0.0
O202 O 0.57873 0.17346 0.87883 0.0
C203 C 0.53544 0.13403 0.9145 0.0
Co204 Co 0.40168 0.15007 0.59432 0.0
Co205 Co 0.38725 0.11615 0.58277 0.0
C206 C 0.43381 0.12562 0.62446 0.0
O207 O 0.42935 0.13934 0.61932 0.0
O208 O 0.41873 0.11531 0.61198 0.0
C209 C 0.41062 0.17839 0.61881 0.0
O210 O 0.40499 0.1708 0.63784 0.0
C211 C 0.3511 0.0861 0.5882 0.0
C212 C 0.35493 0.07755 0.55271 0.0
C213 C 0.341 0.07393 0.57448 0.0
N214 N 0.36976 0.0964 0.57504 0.0
N215 N 0.3724 0.09112 0.55392 0.0
C216 C 0.34017 0.08856 0.61283 0.0
H217 H 0.34019 0.10067 0.61689 0.0
H218 H 0.30972 0.08368 0.61672 0.0
H219 H 0.36331 0.08301 0.62384 0.0
C220 C 0.31153 0.15076 0.59048 0.0
N221 N 0.34736 0.14338 0.59107 0.0
N222 N 0.34121 0.12929 0.58557 0.0
C223 C 0.30112 0.12733 0.58103 0.0
C224 C 0.28091 0.14083 0.58425 0.0
C225 C 0.30743 0.16718 0.59449 0.0
H226 H 0.32412 0.17029 0.61036 0.0
H227 H 0.27486 0.17054 0.5961 0.0
H228 H 0.32171 0.17328 0.57998 0.0
O229 O 0.43091 0.14691 0.56538 0.0
O230 O 0.42359 0.12288 0.55732 0.0
H231 H 0.25376 0.11556 0.56205 0.0
H232 H 0.27958 0.10488 0.58385 0.0
C233 C 0.28371 0.11349 0.57039 0.0
H234 H 0.30504 0.10915 0.55723 0.0
H235 H 0.38509 0.09697 0.54017 0.0
O236 O 0.40732 0.17183 0.59956 0.0
C237 C 0.43769 0.13575 0.55251 0.0
Co238 Co 0.09293 0.85703 0.60142 0.0
Co239 Co 0.10018 0.89082 0.58658 0.0
C240 C 0.06477 0.88197 0.63188 0.0
O241 O 0.07058 0.8682 0.62768 0.0
O242 O 0.07473 0.89201 0.61745 0.0
C243 C 0.06293 0.83047 0.6208 0.0
O244 O 0.03735 0.84016 0.62975 0.0
C245 C 0.13295 0.9213 0.58968 0.0
C246 C 0.12189 0.92992 0.55472 0.0
C247 C 0.13886 0.9337 0.57573 0.0
N248 N 0.11362 0.91072 0.5774 0.0
N249 N 0.10666 0.91602 0.55661 0.0
C250 C 0.14841 0.91892 0.61355 0.0
H251 H 0.15153 0.90681 0.61719 0.0
H252 H 0.17833 0.92457 0.616 0.0
H253 H 0.12614 0.92371 0.62589 0.0
C254 C 0.18142 0.85771 0.59087 0.0
N255 N 0.14507 0.86451 0.5937 0.0
N256 N 0.14802 0.87852 0.58702 0.0
C257 C 0.18633 0.88099 0.57936 0.0
C258 C 0.20894 0.86794 0.58178 0.0
C259 C 0.18864 0.84151 0.59551 0.0
H260 H 0.1741 0.83835 0.61202 0.0
H261 H 0.22184 0.83892 0.59614 0.0
H262 H 0.17408 0.8348 0.58174 0.0
O263 O 0.05656 0.85903 0.57477 0.0
O264 O 0.06017 0.88276 0.56405 0.0
H265 H 0.22684 0.89298 0.55613 0.0
H266 H 0.20484 0.90388 0.57898 0.0
C267 C 0.19892 0.89476 0.56656 0.0
H268 H 0.17401 0.89826 0.55488 0.0
H269 H 0.09243 0.90999 0.54352 0.0
O270 O 0.09229 0.83522 0.60843 0.0
C271 C 0.04613 0.8696 0.56145 0.0
Co272 Co 0.60236 0.65277 0.10648 0.0
Co273 Co 0.61555 0.61881 0.09385 0.0
C274 C 0.58724 0.62841 0.14053 0.0
O275 O 0.58912 0.64215 0.13511 0.0
O276 O 0.59589 0.6182 0.12613 0.0
C277 C 0.57717 0.68 0.12773 0.0
O278 O 0.56049 0.67074 0.14249 0.0
C279 C 0.65406 0.58883 0.09601 0.0
C280 C 0.63141 0.57887 0.06376 0.0
C281 C 0.6551 0.57584 0.08292 0.0
N282 N 0.63101 0.59901 0.08494 0.0
N283 N 0.61767 0.59295 0.06568 0.0
C284 C 0.67263 0.59132 0.11916 0.0
H285 H 0.65788 0.60086 0.12796 0.0
H286 H 0.70561 0.59395 0.11717 0.0
H287 H 0.66984 0.5811 0.12982 0.0
C288 C 0.68786 0.65449 0.09012 0.0
N289 N 0.65423 0.64663 0.09576 0.0
N290 N 0.65987 0.63249 0.09038 0.0
C291 C 0.69722 0.63096 0.08086 0.0
C292 C 0.71632 0.64482 0.08058 0.0
C293 C 0.6916 0.67102 0.09287 0.0
H294 H 0.68075 0.67432 0.11018 0.0
H295 H 0.72368 0.6748 0.09047 0.0
H296 H 0.67171 0.67661 0.08005 0.0
O297 O 0.56075 0.64855 0.08293 0.0
O298 O 0.57032 0.62488 0.0732 0.0
H299 H 0.68648 0.61206 0.05912 0.0
H300 H 0.7379 0.61918 0.05758 0.0
C301 C 0.71175 0.61702 0.06924 0.0
H302 H 0.72141 0.60884 0.08243 0.0
H303 H 0.59884 0.59841 0.05389 0.0
O304 O 0.59871 0.67477 0.11141 0.0
C305 C 0.5515 0.63723 0.07086 0.0
Co306 Co 0.90031 0.35632 0.10399 0.0
Co307 Co 0.88993 0.39033 0.09117 0.0
C308 C 0.91399 0.38077 0.13834 0.0
O309 O 0.91231 0.36701 0.13294 0.0
O310 O 0.90635 0.39098 0.12377 0.0
C311 C 0.93224 0.32973 0.12172 0.0
O312 O 0.95629 0.33959 0.13155 0.0
C313 C 0.85485 0.42063 0.09297 0.0
C314 C 0.87308 0.4296 0.05917 0.0
C315 C 0.85212 0.43324 0.07909 0.0
N316 N 0.87632 0.41013 0.08168 0.0
N317 N 0.88736 0.41561 0.06157 0.0
C318 C 0.83513 0.41803 0.11579 0.0
H319 H 0.83095 0.40589 0.11883 0.0
H320 H 0.8051 0.42379 0.11674 0.0
H321 H 0.85529 0.42251 0.12947 0.0
C322 C 0.81604 0.35523 0.08536 0.0
N323 N 0.84966 0.36278 0.09195 0.0
N324 N 0.84516 0.377 0.08675 0.0
C325 C 0.80841 0.37894 0.07674 0.0
C326 C 0.78866 0.36524 0.07568 0.0
C327 C 0.81148 0.33867 0.08721 0.0
H328 H 0.81992 0.33502 0.10477 0.0
H329 H 0.77972 0.33508 0.0833 0.0
H330 H 0.83293 0.33323 0.07503 0.0
O331 O 0.9437 0.36011 0.08133 0.0
O332 O 0.93692 0.38397 0.07205 0.0
H333 H 0.76716 0.39171 0.05501 0.0
H334 H 0.78832 0.40157 0.07921 0.0
C335 C 0.79492 0.39321 0.0657 0.0
H336 H 0.81981 0.39758 0.05467 0.0
H337 H 0.90424 0.40972 0.04934 0.0
O338 O 0.90281 0.33435 0.10931 0.0
C339 C 0.95492 0.37146 0.06987 0.0
Co340 Co 0.10558 0.35664 0.39104 0.0
Co341 Co 0.11314 0.39052 0.40512 0.0
C342 C 0.08089 0.38146 0.35932 0.0
O343 O 0.08609 0.36771 0.36394 0.0
O344 O 0.08948 0.3916 0.37383 0.0
C345 C 0.07756 0.3299 0.37094 0.0
O346 O 0.054 0.33948 0.36015 0.0
C347 C 0.1418 0.42161 0.40216 0.0
C348 C 0.13762 0.42886 0.43831 0.0
C349 C 0.14925 0.43364 0.41664 0.0
N350 N 0.12666 0.4103 0.41476 0.0
N351 N 0.12382 0.41477 0.4363 0.0
C352 C 0.15255 0.42025 0.37729 0.0
H353 H 0.15807 0.4084 0.37275 0.0
H354 H 0.18012 0.42698 0.37318 0.0
H355 H 0.12659 0.42441 0.36682 0.0
C356 C 0.19313 0.35692 0.40337 0.0
N357 N 0.15728 0.3639 0.3997 0.0
N358 N 0.16067 0.37806 0.40552 0.0
C359 C 0.19904 0.38051 0.41307 0.0
C360 C 0.22078 0.36722 0.41202 0.0
C361 C 0.19881 0.34042 0.40112 0.0
H362 H 0.17641 0.33462 0.41233 0.0
H363 H 0.19225 0.33704 0.38318 0.0
H364 H 0.23026 0.3369 0.40584 0.0
O365 O 0.06769 0.35894 0.41688 0.0
O366 O 0.07177 0.38273 0.42715 0.0
H367 H 0.19639 0.39829 0.4375 0.0
H368 H 0.24721 0.39476 0.42643 0.0
C369 C 0.2142 0.39515 0.42204 0.0
H370 H 0.20968 0.40387 0.40882 0.0
H371 H 0.11334 0.40807 0.44973 0.0
O372 O 0.10496 0.33481 0.38451 0.0
C373 C 0.05712 0.36968 0.42982 0.0
Co374 Co 0.38664 0.65362 0.39198 0.0
Co375 Co 0.37537 0.61971 0.40457 0.0
C376 C 0.41231 0.62932 0.35989 0.0
O377 O 0.40845 0.64308 0.36495 0.0
O378 O 0.40073 0.61909 0.37362 0.0
C379 C 0.39359 0.68236 0.36828 0.0
O380 O 0.3876 0.67506 0.34903 0.0
C381 C 0.34024 0.58951 0.40047 0.0
C382 C 0.3501 0.58067 0.43542 0.0
C383 C 0.33324 0.57712 0.4143 0.0
N384 N 0.36004 0.59987 0.41295 0.0
N385 N 0.36625 0.59443 0.43374 0.0
C386 C 0.32553 0.59209 0.3765 0.0
H387 H 0.3233 0.60423 0.37292 0.0
H388 H 0.29532 0.58669 0.37379 0.0
H389 H 0.34779 0.58714 0.3643 0.0
C390 C 0.29779 0.65404 0.40209 0.0
N391 N 0.33351 0.64682 0.39911 0.0
N392 N 0.32891 0.63269 0.40486 0.0
C393 C 0.29009 0.63053 0.41191 0.0
C394 C 0.26895 0.64395 0.41017 0.0
C395 C 0.29231 0.67043 0.39838 0.0
H396 H 0.30785 0.67659 0.41241 0.0
H397 H 0.30693 0.67374 0.38197 0.0
H398 H 0.25942 0.67353 0.39807 0.0
O399 O 0.42247 0.6503 0.41848 0.0
O400 O 0.41623 0.62641 0.4276 0.0
H401 H 0.29911 0.61233 0.43522 0.0
H402 H 0.24686 0.61829 0.43319 0.0
C403 C 0.27539 0.61652 0.42328 0.0
H404 H 0.26966 0.6079 0.41002 0.0
H405 H 0.38064 0.60028 0.44696 0.0
O406 O 0.39096 0.67549 0.3873 0.0
C407 C 0.4317 0.63924 0.43108 0.0
Co408 Co 0.40175 0.35793 0.88511 0.0
Co409 Co 0.39337 0.39221 0.89625 0.0
C410 C 0.41246 0.38085 0.84877 0.0
O411 O 0.41106 0.36723 0.85498 0.0
O412 O 0.4068 0.39142 0.86303 0.0
C413 C 0.40307 0.32815 0.8644 0.0
O414 O 0.39345 0.33467 0.84495 0.0
C415 C 0.35419 0.42197 0.89383 0.0
C416 C 0.3853 0.43366 0.92229 0.0
C417 C 0.35629 0.43559 0.90522 0.0
N418 N 0.38055 0.41245 0.9039 0.0
N419 N 0.39901 0.41954 0.92087 0.0
C420 C 0.32962 0.4183 0.87291 0.0
H421 H 0.34205 0.40829 0.8642 0.0
H422 H 0.29756 0.4159 0.87792 0.0
H423 H 0.32938 0.42793 0.86092 0.0
C424 C 0.31875 0.35758 0.90537 0.0
N425 N 0.35231 0.36486 0.89804 0.0
N426 N 0.34905 0.37913 0.90328 0.0
C427 C 0.31348 0.3813 0.91449 0.0
C428 C 0.29294 0.36777 0.91592 0.0
C429 C 0.3124 0.34114 0.9028 0.0
H430 H 0.3214 0.33762 0.88527 0.0
H431 H 0.28004 0.33799 0.90601 0.0
H432 H 0.33239 0.33519 0.91518 0.0
O433 O 0.44708 0.36258 0.90605 0.0
O434 O 0.44184 0.38656 0.91475 0.0
H435 H 0.28016 0.39348 0.9406 0.0
H436 H 0.28736 0.40315 0.91389 0.0
C437 C 0.30201 0.39552 0.92637 0.0
H438 H 0.32966 0.401 0.93344 0.0
H439 H 0.42117 0.41475 0.93145 0.0
O440 O 0.40491 0.33586 0.88268 0.0
C441 C 0.45968 0.37401 0.91681 0.0
Co442 Co 0.1036 0.65242 0.88921 0.0
Co443 Co 0.10965 0.61845 0.90312 0.0
C444 C 0.08342 0.62813 0.85608 0.0
O445 O 0.08832 0.64188 0.86078 0.0
O446 O 0.08992 0.61803 0.87098 0.0
C447 C 0.07487 0.67912 0.87024 0.0
O448 O 0.05074 0.66938 0.86021 0.0
C449 C 0.1455 0.58829 0.90088 0.0
C450 C 0.11593 0.57727 0.93047 0.0
C451 C 0.1429 0.57479 0.91252 0.0
N452 N 0.12137 0.59828 0.9116 0.0
N453 N 0.10388 0.59161 0.92929 0.0
C454 C 0.16809 0.59143 0.87906 0.0
H455 H 0.15674 0.60183 0.87095 0.0
H456 H 0.20111 0.59289 0.88282 0.0
H457 H 0.16483 0.5819 0.86703 0.0
C458 C 0.18975 0.65197 0.90511 0.0
N459 N 0.15427 0.64508 0.90007 0.0
N460 N 0.15645 0.631 0.90652 0.0
C461 C 0.19306 0.62862 0.91648 0.0
C462 C 0.21565 0.64175 0.91561 0.0
C463 C 0.1978 0.66813 0.90058 0.0
H464 H 0.18474 0.67133 0.88371 0.0
H465 H 0.2311 0.67059 0.90079 0.0
H466 H 0.18241 0.67492 0.91397 0.0
O467 O 0.06136 0.64948 0.91308 0.0
O468 O 0.06544 0.62569 0.92335 0.0
H469 H 0.22615 0.61723 0.94354 0.0
H470 H 0.21683 0.60641 0.91809 0.0
C471 C 0.20354 0.61484 0.92983 0.0
H472 H 0.17571 0.61014 0.93792 0.0
H473 H 0.08325 0.5968 0.9404 0.0
O474 O 0.10311 0.67439 0.88341 0.0
C475 C 0.04945 0.63857 0.92536 0.0
Co476 Co 0.88994 0.65188 0.60282 0.0
Co477 Co 0.87648 0.6178 0.59094 0.0
C478 C 0.90718 0.62766 0.63687 0.0
O479 O 0.90427 0.64139 0.63148 0.0
O480 O 0.89845 0.61738 0.62263 0.0
C481 C 0.92092 0.67857 0.62168 0.0
O482 O 0.94266 0.66882 0.63329 0.0
C483 C 0.84224 0.58702 0.59397 0.0
C484 C 0.85467 0.57891 0.55886 0.0
C485 C 0.83773 0.57467 0.57967 0.0
N486 N 0.86058 0.59803 0.58198 0.0
N487 N 0.86792 0.59305 0.56104 0.0
C488 C 0.83053 0.58823 0.61873 0.0
H489 H 0.84809 0.59714 0.62739 0.0
H490 H 0.79758 0.5911 0.62 0.0
H491 H 0.8357 0.57746 0.62768 0.0
C492 C 0.80425 0.65341 0.58649 0.0
N493 N 0.83774 0.64564 0.59268 0.0
N494 N 0.83188 0.63138 0.58821 0.0
C495 C 0.79437 0.62965 0.57906 0.0
C496 C 0.77572 0.64352 0.57754 0.0
C497 C 0.80211 0.67008 0.58658 0.0
H498 H 0.82744 0.67463 0.57598 0.0
H499 H 0.80659 0.67419 0.60436 0.0
H500 H 0.77243 0.67421 0.57985 0.0
O501 O 0.93077 0.64764 0.57881 0.0
O502 O 0.92023 0.62396 0.56939 0.0
H503 H 0.79627 0.61102 0.55615 0.0
H504 H 0.74515 0.61608 0.56525 0.0
C505 C 0.77754 0.61509 0.57074 0.0
H506 H 0.77922 0.60676 0.58473 0.0
H507 H 0.88208 0.59931 0.5482 0.0
O508 O 0.89369 0.67385 0.60785 0.0
C509 C 0.93911 0.63626 0.56665 0.0
Co510 Co 0.59905 0.35333 0.59566 0.0
Co511 Co 0.61771 0.38706 0.58493 0.0
C512 C 0.57042 0.37865 0.62607 0.0
O513 O 0.57357 0.36492 0.62076 0.0
O514 O 0.58644 0.3888 0.61373 0.0
C515 C 0.60391 0.32281 0.61697 0.0
O516 O 0.63519 0.32673 0.62976 0.0
C517 C 0.64989 0.41779 0.58936 0.0
C518 C 0.65746 0.42401 0.55291 0.0
C519 C 0.6632 0.42922 0.57505 0.0
N520 N 0.63718 0.40635 0.57619 0.0
N521 N 0.64133 0.41024 0.55445 0.0
C522 C 0.65255 0.4171 0.61496 0.0
H523 H 0.65501 0.40534 0.62077 0.0
H524 H 0.67924 0.42358 0.62125 0.0
H525 H 0.6243 0.42198 0.62241 0.0
C526 C 0.68839 0.35096 0.58643 0.0
N527 N 0.65435 0.35892 0.59112 0.0
N528 N 0.66212 0.37322 0.58799 0.0
C529 C 0.70177 0.37479 0.58223 0.0
C530 C 0.71959 0.36079 0.58069 0.0
C531 C 0.68893 0.33439 0.58323 0.0
H532 H 0.65803 0.33028 0.57855 0.0
H533 H 0.69843 0.32905 0.59955 0.0
H534 H 0.71119 0.33109 0.56977 0.0
O535 O 0.56976 0.35673 0.56697 0.0
O536 O 0.58075 0.38067 0.55953 0.0
H537 H 0.70947 0.39295 0.55883 0.0
H538 H 0.75521 0.38816 0.57451 0.0
C539 C 0.72143 0.38927 0.5757 0.0
H540 H 0.71414 0.39786 0.58873 0.0
H541 H 0.63398 0.40333 0.54063 0.0
O542 O 0.5886 0.33199 0.60275 0.0
C543 C 0.56484 0.36814 0.55436 0.0
H544 H 0.47609 0.15537 0.91739 0.0
H545 H 0.42018 0.15686 0.9451 0.0
H546 H 0.45822 0.11508 0.97494 0.0
H547 H 0.51449 0.11343 0.94724 0.0
H548 H 0.3559 0.13459 0.95345 0.0
H549 H 0.45439 0.14609 0.0293 0.0
H550 H 0.47182 0.14889 0.0002 0.0
H551 H 0.46858 0.13038 0.01179 0.0
C552 C 0.47256 0.14644 0.92977 0.0
C553 C 0.49986 0.1343 0.93017 0.0
C554 C 0.4406 0.14734 0.94557 0.0
C555 C 0.4356 0.1362 0.96219 0.0
C556 C 0.4621 0.12389 0.96239 0.0
H557 H 0.26559 0.12073 0.07238 0.0
H558 H 0.3248 0.12144 0.0466 0.0
C559 C 0.49399 0.12292 0.94647 0.0
C560 C 0.40236 0.13748 0.97921 0.0
H561 H 0.3836 0.14282 0.03621 0.0
C562 C 0.36182 0.13644 0.97154 0.0
C563 C 0.41048 0.1399 0.00272 0.0
C564 C 0.45363 0.1415 0.0116 0.0
C565 C 0.32894 0.13744 0.98692 0.0
C566 C 0.33699 0.13992 0.01048 0.0
C567 C 0.3776 0.14102 0.01812 0.0
C568 C 0.30358 0.14067 0.02755 0.0
C569 C 0.286 0.13536 0.97791 0.0
C570 C 0.27293 0.1516 0.02591 0.0
C571 C 0.23899 0.15113 0.04049 0.0
C572 C 0.23558 0.13981 0.05701 0.0
C573 C 0.26751 0.12947 0.05958 0.0
C574 C 0.30128 0.12989 0.04495 0.0
H575 H 0.28581 0.12997 0.96074 0.0
H576 H 0.26744 0.12845 0.98984 0.0
H577 H 0.27104 0.14642 0.97626 0.0
H578 H 0.27462 0.1602 0.01287 0.0
H579 H 0.21462 0.15918 0.03814 0.0
H580 H 0.97308 0.89176 0.95639 0.0
H581 H 0.02614 0.88825 0.9856 0.0
H582 H 0.05711 0.84559 0.95614 0.0
H583 H 0.00433 0.84892 0.92692 0.0
H584 H 0.03293 0.86132 0.01738 0.0
H585 H 0.16656 0.87098 0.95986 0.0
H586 H 0.11594 0.87785 0.95324 0.0
H587 H 0.12753 0.85842 0.94977 0.0
C588 C 0.99138 0.88168 0.956 0.0
C589 C 0.98457 0.87064 0.93928 0.0
C590 C 0.02145 0.87967 0.97276 0.0
C591 C 0.04537 0.86669 0.97289 0.0
C592 C 0.03896 0.85571 0.95617 0.0
H593 H 0.26256 0.84399 0.05038 0.0
H594 H 0.20146 0.84163 0.02637 0.0
C595 C 0.0088 0.85765 0.93951 0.0
C596 C 0.07723 0.86459 0.99049 0.0
H597 H 0.1806 0.86395 -0.00208 0.0
C598 C 0.06527 0.86187 0.01322 0.0
C599 C 0.11918 0.8652 0.98481 0.0
C600 C 0.13334 0.86836 0.96064 0.0
C601 C 0.09447 0.8597 0.03056 0.0
C602 C 0.13653 0.8606 0.02498 0.0
C603 C 0.14832 0.86316 0.00214 0.0
C604 C 0.16911 0.8599 0.04256 0.0
C605 C 0.08002 0.85631 0.05459 0.0
C606 C 0.17052 0.8706 0.06013 0.0
C607 C 0.20511 0.87179 0.07406 0.0
C608 C 0.23895 0.86246 0.07037 0.0
C609 C 0.23659 0.85118 0.05374 0.0
C610 C 0.20188 0.84991 0.03992 0.0
H611 H 0.049 0.85122 0.05453 0.0
H612 H 0.10141 0.84863 0.06353 0.0
H613 H 0.0783 0.86686 0.06451 0.0
H614 H 0.14604 0.87864 0.06217 0.0
H615 H 0.20649 0.88061 0.08676 0.0
H616 H 0.77032 0.8475 0.40186 0.0
H617 H 0.83442 0.84323 0.42318 0.0
H618 H 0.78157 0.8645 0.48266 0.0
H619 H 0.71789 0.86849 0.46163 0.0
H620 H 0.88329 0.86545 0.44105 0.0
H621 H 0.83347 0.82762 0.51038 0.0
H622 H 0.80361 0.83048 0.48468 0.0
H623 H 0.8001 0.84343 0.50825 0.0
C624 C 0.77242 0.85094 0.41964 0.0
C625 C 0.73969 0.85839 0.43019 0.0
C626 C 0.80886 0.84855 0.43174 0.0
C627 C 0.81251 0.85339 0.45457 0.0
C628 C 0.77914 0.86038 0.46524 0.0
H629 H 0.00335 0.88952 0.53506 0.0
H630 H 0.95116 0.88385 0.50631 0.0
C631 C 0.74296 0.86278 0.4532 0.0
C632 C 0.85202 0.85252 0.46686 0.0
H633 H 0.89248 0.84311 0.51874 0.0
C634 C 0.8857 0.86029 0.45784 0.0
C635 C 0.85533 0.84559 0.48855 0.0
C636 C 0.82128 0.83618 0.4984 0.0
C637 C 0.92167 0.86217 0.47066 0.0
C638 C 0.92348 0.85641 0.49324 0.0
C639 C 0.89085 0.84776 0.50158 0.0
C640 C 0.95769 0.85985 0.50904 0.0
C641 C 0.95704 0.87049 0.46002 0.0
C642 C 0.97819 0.84827 0.52041 0.0
C643 C 0.00741 0.85148 0.53714 0.0
C644 C 0.01679 0.86636 0.54281 0.0
C645 C 0.99696 0.87796 0.531 0.0
C646 C 0.96739 0.87472 0.51441 0.0
H647 H 0.95666 0.8695 0.44102 0.0
H648 H 0.95447 0.88251 0.46434 0.0
H649 H 0.98687 0.8663 0.46649 0.0
H650 H 0.97105 0.83672 0.51662 0.0
H651 H 0.02231 0.84227 0.5458 0.0
H652 H 0.71492 0.15272 0.39224 0.0
H653 H 0.6473 0.15587 0.41046 0.0
H654 H 0.69904 0.1428 0.47556 0.0
H655 H 0.76609 0.13991 0.45753 0.0
H656 H 0.60278 0.1337 0.43237 0.0
H657 H 0.63441 0.17985 0.49251 0.0
H658 H 0.66746 0.17568 0.4685 0.0
H659 H 0.67226 0.16546 0.495 0.0
C660 C 0.71167 0.15084 0.41051 0.0
C661 C 0.74523 0.14611 0.42362 0.0
C662 C 0.67326 0.15258 0.42085 0.0
C663 C 0.66836 0.14976 0.44441 0.0
C664 C 0.70231 0.14536 0.45749 0.0
H665 H 0.48272 0.11482 0.52943 0.0
H666 H 0.53296 0.11939 0.49912 0.0
C667 C 0.74047 0.14362 0.4472 0.0
C668 C 0.62753 0.15024 0.45534 0.0
H669 H 0.57941 0.16313 0.50321 0.0
C670 C 0.59719 0.14036 0.44758 0.0
C671 C 0.62001 0.15914 0.4749 0.0
C672 C 0.65015 0.17074 0.48305 0.0
C673 C 0.56059 0.1384 0.45986 0.0
C674 C 0.55482 0.14627 0.48065 0.0
C675 C 0.584 0.1569 0.48746 0.0
C676 C 0.5204 0.14308 0.4965 0.0
C677 C 0.52888 0.12776 0.45059 0.0
C678 C 0.49676 0.15485 0.50521 0.0
C679 C 0.46883 0.15232 0.52288 0.0
C680 C 0.46373 0.13793 0.53208 0.0
C681 C 0.48585 0.126 0.52258 0.0
C682 C 0.51433 0.12859 0.50511 0.0
H683 H 0.53055 0.12705 0.43158 0.0
H684 H 0.53478 0.11642 0.45752 0.0
H685 H 0.49744 0.13118 0.45557 0.0
H686 H 0.50094 0.16612 0.49887 0.0
H687 H 0.4519 0.16172 0.52972 0.0
H688 H 0.7716 0.87024 0.96296 0.0
H689 H 0.70791 0.86657 0.98416 0.0
H690 H 0.65299 0.84641 0.92437 0.0
H691 H 0.71695 0.85046 0.90284 0.0
H692 H 0.60493 0.8682 0.94323 0.0
H693 H 0.65615 0.82954 0.01112 0.0
H694 H 0.68927 0.84545 0.00938 0.0
H695 H 0.68567 0.83282 0.98541 0.0
C696 C 0.74602 0.86488 0.95446 0.0
C697 C 0.74877 0.86067 0.93135 0.0
C698 C 0.70984 0.86266 0.96661 0.0
C699 C 0.67596 0.856 0.95594 0.0
C700 C 0.67895 0.85145 0.93293 0.0
H701 H 0.467 0.84265 0.04711 0.0
H702 H 0.51885 0.83788 0.0179 0.0
C703 C 0.71532 0.85371 0.92072 0.0
C704 C 0.63673 0.85502 0.9685 0.0
H705 H 0.59693 0.8447 0.02015 0.0
C706 C 0.60281 0.86281 0.95985 0.0
C707 C 0.63379 0.84777 0.98997 0.0
C708 C 0.66808 0.83829 -0.00063 0.0
C709 C 0.56687 0.86435 0.97282 0.0
C710 C 0.56537 0.85823 0.99518 0.0
C711 C 0.59832 0.84962 0.00316 0.0
C712 C 0.53102 0.8612 0.01111 0.0
C713 C 0.53116 0.87265 0.96252 0.0
C714 C 0.52051 0.87592 0.01695 0.0
C715 C 0.49058 0.87871 0.03354 0.0
C716 C 0.47122 0.86681 0.04488 0.0
C717 C 0.48152 0.85208 0.0388 0.0
C718 C 0.51107 0.84932 0.02206 0.0
H719 H 0.53151 0.87195 0.94349 0.0
H720 H 0.5015 0.86822 0.96887 0.0
H721 H 0.53331 0.88462 0.96726 0.0
H722 H 0.53632 0.88527 0.0092 0.0
H723 H 0.48349 0.89017 0.03793 0.0
H724 H 0.69838 0.16171 0.95664 0.0
H725 H 0.75505 0.1639 0.98412 0.0
H726 H 0.8354 0.14188 0.93608 0.0
H727 H 0.77886 0.13981 0.90862 0.0
H728 H 0.79332 0.13818 0.00122 0.0
H729 H 0.90634 0.17626 0.96098 0.0
H730 H 0.85316 0.17575 0.9525 0.0
H731 H 0.88821 0.16182 0.94218 0.0
C732 C 0.72856 0.15784 0.95174 0.0
C733 C 0.73471 0.15072 0.9306 0.0
C734 C 0.76074 0.159 0.96742 0.0
C735 C 0.79943 0.15317 0.96202 0.0
C736 C 0.806 0.14672 0.94039 0.0
H737 H 0.98658 0.11512 0.04739 0.0
H738 H 0.92923 0.12008 0.02148 0.0
C739 C 0.77381 0.14551 0.92477 0.0
C740 C 0.8314 0.15207 0.97987 0.0
H741 H 0.9308 0.16087 0.99163 0.0
C742 C 0.82324 0.14329 -0.00071 0.0
C743 C 0.87026 0.15879 0.97729 0.0
C744 C 0.88001 0.1688 0.95722 0.0
C745 C 0.85342 0.14064 0.01587 0.0
C746 C 0.89282 0.14682 0.01277 0.0
C747 C 0.9006 0.15602 0.99378 0.0
C748 C 0.92655 0.14372 0.02896 0.0
C749 C 0.843 0.13124 0.03654 0.0
C750 C 0.94409 0.15539 0.04153 0.0
C751 C 0.97677 0.15261 0.05633 0.0
C752 C 0.99276 0.1381 0.05866 0.0
C753 C 0.9749 0.1264 0.04608 0.0
C754 C 0.94208 0.1292 0.03133 0.0
H755 H 0.80939 0.13039 0.03917 0.0
H756 H 0.85519 0.1198 0.034 0.0
H757 H 0.85713 0.13591 0.05231 0.0
H758 H 0.93252 0.16667 0.03985 0.0
H759 H 0.98981 0.16191 0.06569 0.0
H760 H 0.96191 0.11616 0.46847 0.0
H761 H 0.00985 0.11846 0.50046 0.0
H762 H 0.03845 0.16345 0.47957 0.0
H763 H 0.99008 0.16141 0.44788 0.0
H764 H 0.09093 0.12305 0.49617 0.0
H765 H 0.02377 0.16864 0.54809 0.0
H766 H 0.99522 0.15893 0.52616 0.0
H767 H 0.02998 0.1737 0.51851 0.0
C768 C 0.97805 0.12661 0.47082 0.0
C769 C 0.97225 0.13859 0.45556 0.0
C770 C 0.00531 0.12791 0.48915 0.0
C771 C 0.02715 0.14121 0.49262 0.0
C772 C 0.02108 0.15324 0.4776 0.0
H773 H 0.25627 0.16158 0.55321 0.0
H774 H 0.18905 0.16296 0.53468 0.0
C775 C 0.99371 0.15198 0.45933 0.0
C776 C 0.05931 0.14199 0.51044 0.0
H777 H 0.09467 0.16289 0.55532 0.0
C778 C 0.09137 0.13161 0.50933 0.0
C779 C 0.05982 0.1532 0.52757 0.0
C780 C 0.02512 0.16416 0.53033 0.0
C781 C 0.1247 0.13245 0.52435 0.0
C782 C 0.12586 0.14394 0.54092 0.0
C783 C 0.09349 0.15414 0.54249 0.0
C784 C 0.16193 0.14574 0.55579 0.0
C785 C 0.15922 0.12135 0.52199 0.0
C786 C 0.16801 0.13605 0.57435 0.0
C787 C 0.20621 0.13532 0.58501 0.0
C788 C 0.23865 0.14422 0.57711 0.0
C789 C 0.23153 0.15474 0.55974 0.0
C790 C 0.19328 0.15551 0.54914 0.0
H791 H 0.1549 0.11374 0.50715 0.0
H792 H 0.1888 0.12731 0.51991 0.0
H793 H 0.16134 0.11452 0.53784 0.0
H794 H 0.14408 0.12839 0.57956 0.0
H795 H 0.21122 0.12713 0.59839 0.0
H796 H 0.27915 0.88353 0.58867 0.0
H797 H 0.34082 0.88268 0.56468 0.0
H798 H 0.29135 0.84497 0.52798 0.0
H799 H 0.22913 0.84616 0.55132 0.0
H800 H 0.40062 0.86138 0.55174 0.0
H801 H 0.30003 0.87789 0.47921 0.0
H802 H 0.28305 0.87821 0.50865 0.0
H803 H 0.28498 0.86088 0.49314 0.0
C804 C 0.28203 0.87485 0.57582 0.0
C805 C 0.24946 0.86502 0.57159 0.0
C806 C 0.31715 0.87437 0.56218 0.0
C807 C 0.32006 0.86399 0.54426 0.0
C808 C 0.2892 0.85324 0.54148 0.0
H809 H 0.48363 0.85138 0.43032 0.0
H810 H 0.43189 0.84926 0.46036 0.0
C811 C 0.25394 0.85381 0.55497 0.0
C812 C 0.35295 0.86544 0.52701 0.0
H813 H 0.3692 0.87272 0.47025 0.0
C814 C 0.39387 0.86388 0.53393 0.0
C815 C 0.34389 0.86894 0.50388 0.0
C816 C 0.30066 0.87173 0.49576 0.0
C817 C 0.426 0.86533 0.51808 0.0
C818 C 0.41675 0.86851 0.49492 0.0
C819 C 0.37596 0.87021 0.48807 0.0
C820 C 0.44888 0.86981 0.47728 0.0
C821 C 0.46956 0.86323 0.526 0.0
C822 C 0.47499 0.88223 0.47676 0.0
C823 C 0.50443 0.88357 0.45947 0.0
C824 C 0.50819 0.87247 0.44253 0.0
C825 C 0.48165 0.86011 0.44312 0.0
C826 C 0.45213 0.85884 0.46028 0.0
H827 H 0.47121 0.85873 0.54375 0.0
H828 H 0.48605 0.85553 0.51427 0.0
H829 H 0.48566 0.87413 0.52559 0.0
H830 H 0.4724 0.89089 0.48964 0.0
H831 H 0.52448 0.8932 0.45953 0.0
H832 H 0.79154 0.63286 0.08758 0.0
H833 H 0.85198 0.63573 0.06299 0.0
H834 H 0.78676 0.66768 0.02141 0.0
H835 H 0.7262 0.66471 0.04588 0.0
H836 H 0.81777 0.64246 -0.00236 0.0
H837 H 0.93729 0.66927 0.05139 0.0
H838 H 0.91115 0.65392 0.06482 0.0
H839 H 0.88328 0.67059 0.05785 0.0
C840 C 0.79066 0.64078 0.07354 0.0
C841 C 0.75457 0.6486 0.06854 0.0
C842 C 0.82512 0.64247 0.05961 0.0
C843 C 0.82385 0.65202 0.04055 0.0
C844 C 0.78836 0.66037 0.03619 0.0
H845 H 0.01554 0.66514 0.93845 0.0
H846 H 0.96108 0.66916 0.9666 0.0
C847 C 0.75396 0.65872 0.05018 0.0
C848 C 0.85734 0.65172 0.02355 0.0
H849 H 0.95985 0.6576 0.01672 0.0
C850 C 0.84874 0.64593 0.00171 0.0
C851 C 0.89761 0.65626 0.02898 0.0
C852 C 0.90798 0.66298 0.05197 0.0
C853 C 0.87971 0.64414 0.98533 0.0
C854 C 0.92019 0.64818 0.99103 0.0
C855 C 0.92869 0.65441 0.01259 0.0
C856 C 0.95409 0.64578 0.97478 0.0
C857 C 0.86914 0.6378 0.96209 0.0
C858 C 0.96818 0.63129 0.97033 0.0
C859 C -0.00067 0.62892 0.95434 0.0
C860 C 0.01672 0.64103 0.94247 0.0
C861 C 0.00265 0.65556 0.94719 0.0
C862 C 0.9717 0.65791 0.96331 0.0
H863 H 0.83557 0.63759 0.95906 0.0
H864 H 0.88393 0.64444 0.94829 0.0
H865 H 0.88087 0.62621 0.96089 0.0
H866 H 0.95488 0.62181 0.97917 0.0
H867 H 0.0095 0.6176 0.95116 0.0
H868 H 0.71265 0.37628 0.08324 0.0
H869 H 0.65395 0.37495 0.05705 0.0
H870 H 0.72294 0.34624 0.01194 0.0
H871 H 0.78164 0.34755 0.03816 0.0
H872 H 0.69134 0.37405 0.99245 0.0
H873 H 0.57252 0.34077 0.03784 0.0
H874 H 0.59792 0.35488 0.05458 0.0
H875 H 0.62648 0.33916 0.04423 0.0
C876 C 0.71464 0.36933 0.06807 0.0
C877 C 0.75123 0.36195 0.06262 0.0
C878 C 0.68126 0.36856 0.05318 0.0
C879 C 0.68421 0.36044 0.03268 0.0
C880 C 0.72013 0.35248 0.02778 0.0
H881 H 0.50002 0.34835 0.9279 0.0
H882 H 0.55513 0.34517 0.95568 0.0
C883 C 0.75343 0.35315 0.04276 0.0
C884 C 0.6518 0.36174 0.0152 0.0
H885 H 0.55147 0.35391 0.00446 0.0
C886 C 0.6608 0.36957 0.99497 0.0
C887 C 0.61217 0.35588 0.01866 0.0
C888 C 0.60154 0.34709 0.03991 0.0
C889 C 0.63083 0.37191 0.97816 0.0
C890 C 0.59094 0.36634 0.98184 0.0
C891 C 0.58211 0.35827 0.00188 0.0
C892 C 0.55814 0.36852 0.9648 0.0
C893 C 0.64199 0.38023 0.95654 0.0
C894 C 0.54176 0.38275 0.96079 0.0
C895 C 0.5101 0.38465 0.94493 0.0
C896 C 0.49446 0.37233 0.93284 0.0
C897 C 0.51137 0.35811 0.93684 0.0
C898 C 0.54278 0.35623 0.95275 0.0
H899 H 0.67565 0.3814 0.95449 0.0
H900 H 0.62945 0.37444 0.94123 0.0
H901 H 0.62841 0.39158 0.95715 0.0
H902 H 0.55313 0.39234 0.97014 0.0
H903 H 0.49767 0.39573 0.94231 0.0
H904 H 0.29005 0.35642 0.39178 0.0
H905 H 0.35737 0.35275 0.41009 0.0
H906 H 0.30733 0.36797 0.47451 0.0
H907 H 0.24052 0.37138 0.45644 0.0
H908 H 0.40523 0.37473 0.43245 0.0
H909 H 0.36442 0.32887 0.49161 0.0
H910 H 0.33344 0.3337 0.46704 0.0
H911 H 0.32868 0.34402 0.49342 0.0
C912 C 0.29364 0.35877 0.4099 0.0
C913 C 0.26058 0.36418 0.42282 0.0
C914 C 0.33187 0.35673 0.42028 0.0
C915 C 0.33703 0.35991 0.44369 0.0
C916 C 0.30374 0.36518 0.45654 0.0
H917 H 0.52372 0.39014 0.53142 0.0
H918 H 0.47448 0.38689 0.50024 0.0
C919 C 0.26578 0.36722 0.44621 0.0
C920 C 0.37738 0.3585 0.45485 0.0
H921 H 0.42199 0.34413 0.50274 0.0
C922 C 0.40939 0.36781 0.44755 0.0
C923 C 0.38292 0.34926 0.47422 0.0
C924 C 0.35065 0.33828 0.48188 0.0
C925 C 0.44586 0.36889 0.46017 0.0
C926 C 0.44978 0.36068 0.48078 0.0
C927 C 0.41885 0.3506 0.4871 0.0
C928 C 0.48397 0.36303 0.49706 0.0
C929 C 0.47941 0.37898 0.45148 0.0
C930 C 0.50551 0.35073 0.50573 0.0
C931 C 0.53279 0.35252 0.5239 0.0
C932 C 0.53932 0.36668 0.53363 0.0
C933 C 0.51939 0.37912 0.52418 0.0
C934 C 0.49154 0.37728 0.50621 0.0
H935 H 0.47845 0.37992 0.43248 0.0
H936 H 0.47497 0.39034 0.45864 0.0
H937 H 0.51012 0.37488 0.45666 0.0
H938 H 0.5001 0.33964 0.49898 0.0
H939 H 0.5481 0.34274 0.53067 0.0
H940 H 0.19815 0.62963 0.39995 0.0
H941 H 0.13443 0.6304 0.42219 0.0
H942 H 0.18445 0.66551 0.46433 0.0
H943 H 0.24836 0.66461 0.44234 0.0
H944 H 0.14328 0.62461 0.47157 0.0
H945 H 0.06129 0.67759 0.45262 0.0
H946 H 0.09606 0.66896 0.43245 0.0
H947 H 0.11578 0.67887 0.4568 0.0
C948 C 0.1949 0.63782 0.41351 0.0
C949 C 0.22792 0.64703 0.41957 0.0
C950 C 0.15864 0.63826 0.42615 0.0
C951 C 0.15482 0.64805 0.44478 0.0
C952 C 0.18667 0.65805 0.44976 0.0
H953 H 0.99568 0.65842 0.56125 0.0
H954 H 0.04678 0.66086 0.53089 0.0
C955 C 0.22306 0.65755 0.43719 0.0
C956 C 0.12081 0.64615 0.46118 0.0
H957 H 0.03829 0.66365 0.48478 0.0
C958 C 0.11998 0.63305 0.47433 0.0
C959 C 0.09107 0.65731 0.46484 0.0
C960 C 0.09069 0.67147 0.45087 0.0
C961 C 0.09067 0.63094 0.49157 0.0
C962 C 0.06066 0.64207 0.49524 0.0
C963 C 0.06125 0.65512 0.48186 0.0
C964 C 0.02919 0.64055 0.51337 0.0
C965 C 0.09323 0.61708 0.50626 0.0
C966 C 0.00218 0.62837 0.5135 0.0
C967 C 0.97333 0.62681 0.53103 0.0
C968 C 0.9705 0.63758 0.5485 0.0
C969 C 0.99714 0.64991 0.54808 0.0
C970 C 0.02626 0.65136 0.5307 0.0
H971 H 0.12413 0.61192 0.5055 0.0
H972 H 0.08593 0.61961 0.52445 0.0
H973 H 0.07085 0.60873 0.49992 0.0
H974 H 0.00328 0.62009 0.49999 0.0
H975 H 0.95287 0.6173 0.53069 0.0
H976 H 0.28138 0.34778 0.95043 0.0
H977 H 0.22092 0.34553 0.97524 0.0
H978 H 0.15958 0.37943 0.93551 0.0
H979 H 0.21991 0.38165 0.91068 0.0
H980 H 0.19047 0.37141 0.00021 0.0
H981 H 0.07264 0.34542 0.94418 0.0
H982 H 0.12692 0.34362 0.93881 0.0
H983 H 0.10085 0.36063 0.93168 0.0
C984 C 0.25452 0.35443 0.94669 0.0
C985 C 0.2549 0.36483 0.9287 0.0
C986 C 0.22021 0.35319 0.96087 0.0
C987 C 0.18582 0.36223 0.95701 0.0
C988 C 0.18564 0.37221 0.93849 0.0
H989 H 0.99403 0.3936 0.04598 0.0
H990 H 0.05049 0.39078 0.01866 0.0
C991 C 0.22001 0.37352 0.92443 0.0
C992 C 0.15186 0.36238 0.97368 0.0
H993 H 0.04943 0.35591 0.97939 0.0
C994 C 0.15969 0.36791 -0.00424 0.0
C995 C 0.1119 0.35779 0.96771 0.0
C996 C 0.10242 0.35141 0.94437 0.0
C997 C 0.1282 0.36932 0.01193 0.0
C998 C 0.08806 0.36512 0.00576 0.0
C999 C 0.08034 0.35923 0.98389 0.0
C1000 C 0.05372 0.36677 0.02192 0.0
C1001 C 0.13785 0.37534 0.03549 0.0
C1002 C 0.03701 0.35416 0.03256 0.0
C1003 C 0.00506 0.35571 0.04826 0.0
C1004 C 0.98905 0.36991 0.05339 0.0
C1005 C 0.0057 0.38252 0.04245 0.0
C1006 C 0.0379 0.38095 0.02687 0.0
H1007 H 0.17133 0.37601 0.03865 0.0
H1008 H 0.12471 0.38671 0.03722 0.0
H1009 H 0.12371 0.3682 0.0489 0.0
H1010 H 0.04897 0.34314 0.02886 0.0
H1011 H 0.99281 0.34576 0.05629 0.0
H1012 H 0.2847 0.6251 0.91201 0.0
H1013 H 0.3457 0.6266 0.93633 0.0
H1014 H 0.29726 0.66613 0.96871 0.0
H1015 H 0.23544 0.66427 0.94513 0.0
H1016 H 0.40563 0.64776 0.9455 0.0
H1017 H 0.30829 0.63694 0.02194 0.0
H1018 H 0.28941 0.63504 0.99302 0.0
H1019 H 0.29393 0.65321 0.00588 0.0
C1020 C 0.28744 0.63421 0.92413 0.0
C1021 C 0.25537 0.64447 0.92692 0.0
C1022 C 0.32225 0.63509 0.93793 0.0
C1023 C 0.32549 0.64628 0.95464 0.0
C1024 C 0.29488 0.65723 0.95621 0.0
H1025 H 0.49846 0.66046 0.06506 0.0
H1026 H 0.4453 0.6631 0.03589 0.0
C1027 C 0.25987 0.65627 0.94255 0.0
C1028 C 0.35918 0.64573 0.97155 0.0
H1029 H 0.37851 0.64134 0.02871 0.0
C1030 C 0.39977 0.64638 0.9637 0.0
C1031 C 0.35132 0.64375 0.99525 0.0
C1032 C 0.30843 0.64204 0.00456 0.0
C1033 C 0.43278 0.64529 0.97902 0.0
C1034 C 0.42479 0.64341 0.00266 0.0
C1035 C 0.38431 0.64284 0.01053 0.0
C1036 C 0.458 0.64191 0.01964 0.0
C1037 C 0.47594 0.64626 0.96994 0.0
C1038 C 0.48227 0.62901 0.02023 0.0
C1039 C 0.51249 0.62738 0.03701 0.0
C1040 C 0.51893 0.63867 0.05339 0.0
C1041 C 0.4944 0.65157 0.05268 0.0
C1042 C 0.46406 0.65313 0.03602 0.0
H1043 H 0.47685 0.65038 0.95197 0.0
H1044 H 0.49471 0.65377 0.98085 0.0
H1045 H 0.49012 0.63501 0.97042 0.0
H1046 H 0.47751 0.62015 0.00788 0.0
H1047 H 0.5309 0.61733 0.03706 0.0
H1048 H 0.47351 0.61802 0.45551 0.0
H1049 H 0.52639 0.62221 0.4845 0.0
H1050 H 0.509 0.66978 0.47847 0.0
H1051 H 0.45713 0.66572 0.44907 0.0
H1052 H 0.58716 0.66288 0.47535 0.0
H1053 H 0.52216 0.63417 0.55099 0.0
H1054 H 0.5239 0.62208 0.5265 0.0
H1055 H 0.49197 0.63846 0.5259 0.0
C1056 C 0.48061 0.62936 0.46057 0.0
C1057 C 0.46133 0.64153 0.4499 0.0
C1058 C 0.51059 0.63174 0.47729 0.0
C1059 C 0.52119 0.64632 0.48391 0.0
C1060 C 0.50119 0.65845 0.47369 0.0
H1061 H 0.70606 0.65713 0.59273 0.0
H1062 H 0.64209 0.66074 0.571 0.0
C1063 C 0.47161 0.65609 0.45684 0.0
C1064 C 0.5557 0.64895 0.49986 0.0
H1065 H 0.59518 0.63844 0.55158 0.0
C1066 C 0.58857 0.65773 0.49218 0.0
C1067 C 0.55726 0.64251 0.522 0.0
C1068 C 0.5217 0.63392 0.53193 0.0
C1069 C 0.6239 0.65954 0.50549 0.0
C1070 C 0.62679 0.65208 0.52679 0.0
C1071 C 0.59305 0.64402 0.5351 0.0
C1072 C 0.66583 0.65124 0.53953 0.0
C1073 C 0.65807 0.66922 0.49641 0.0
C1074 C 0.70011 0.64479 0.52898 0.0
C1075 C 0.73626 0.64281 0.54124 0.0
C1076 C 0.73859 0.64708 0.56434 0.0
C1077 C 0.70473 0.65383 0.57486 0.0
C1078 C 0.66837 0.65583 0.56254 0.0
H1079 H 0.64615 0.67796 0.48465 0.0
H1080 H 0.67511 0.67472 0.51056 0.0
H1081 H 0.67979 0.66219 0.48653 0.0
H1082 H 0.69855 0.64087 0.51142 0.0
H1083 H 0.76216 0.63759 0.53284 0.0
H1084 H 0.03626 0.34267 0.4478 0.0
H1085 H 0.98517 0.33742 0.47725 0.0
H1086 H 0.95909 0.38446 0.48301 0.0
H1087 H 0.0113 0.38988 0.45401 0.0
H1088 H 0.96125 0.37055 0.52486 0.0
H1089 H 0.86401 0.33862 0.46393 0.0
H1090 H 0.91498 0.33147 0.46719 0.0
H1091 H 0.90719 0.34958 0.45462 0.0
C1092 C 0.01972 0.35192 0.45535 0.0
C1093 C 0.02737 0.36669 0.44835 0.0
C1094 C 0.99048 0.34888 0.47215 0.0
C1095 C 0.96775 0.36051 0.48193 0.0
C1096 C 0.97623 0.37532 0.47556 0.0
H1097 H 0.73216 0.36754 0.53631 0.0
H1098 H 0.7953 0.3649 0.51435 0.0
C1099 C 0.00594 0.3784 0.45896 0.0
C1100 C 0.93403 0.35728 0.49815 0.0
H1101 H 0.84059 0.34044 0.50194 0.0
C1102 C 0.93498 0.36387 0.51998 0.0
C1103 C 0.89983 0.34856 0.49162 0.0
C1104 C 0.8961 0.34175 0.46801 0.0
C1105 C 0.90191 0.36243 0.5352 0.0
C1106 C 0.86747 0.35391 0.52851 0.0
C1107 C 0.8673 0.34682 0.50706 0.0
C1108 C 0.8289 0.35415 0.54178 0.0
C1109 C 0.9031 0.37072 0.55773 0.0
C1110 C 0.82655 0.34862 0.56432 0.0
C1111 C 0.79033 0.35023 0.57698 0.0
C1112 C 0.75642 0.35737 0.56714 0.0
C1113 C 0.75828 0.36218 0.54428 0.0
C1114 C 0.7942 0.36062 0.53174 0.0
H1115 H 0.92911 0.37869 0.55863 0.0
H1116 H 0.87418 0.37699 0.56046 0.0
H1117 H 0.90641 0.3626 0.57198 0.0
H1118 H 0.85282 0.34333 0.5722 0.0
H1119 H 0.78918 0.34635 0.59458 0.0
H1120 H 0.15383 0.05354 0.0457 0.0
H1121 H 0.19227 0.0303 0.04929 0.0
H1122 H 0.19498 0.03555 0.12281 0.0
H1123 H 0.15509 0.05856 0.11943 0.0
H1124 H 0.26966 0.02585 0.06811 0.0
H1125 H 0.15141 0.99302 0.11477 0.0
H1126 H 0.13992 0.01045 0.10063 0.0
H1127 H 0.16587 0.01042 0.12779 0.0
C1128 C 0.16245 0.04975 0.06267 0.0
C1129 C 0.15188 0.05807 0.08225 0.0
C1130 C 0.18456 0.03648 0.06468 0.0
C1131 C 0.19627 0.03113 0.08632 0.0
C1132 C 0.18589 0.03939 0.10595 0.0
H1133 H 0.33293 0.94858 0.11554 0.0
H1134 H 0.29767 0.9725 0.12026 0.0
C1135 C 0.16366 0.0527 0.10395 0.0
C1136 C 0.2197 0.01698 0.088 0.0
H1137 H 0.21399 0.98091 0.1069 0.0
C1138 C 0.25758 0.01605 0.07671 0.0
C1139 C 0.20399 0.00423 0.09933 0.0
C1140 C 0.16294 0.00446 0.11119 0.0
C1141 C 0.27981 1.00267 0.07607 0.0
C1142 C 0.26348 0.9898 0.08673 0.0
C1143 C 0.22633 0.99081 0.09871 0.0
C1144 C 0.28334 0.97501 0.08425 0.0
C1145 C 0.3205 1.00235 0.06381 0.0
C1146 C 0.28622 0.96838 0.06253 0.0
C1147 C 0.30578 0.95465 0.05983 0.0
C1148 C 0.32262 0.94716 0.07881 0.0
C1149 C 0.31929 0.95376 0.10065 0.0
C1150 C 0.29952 0.96753 0.10336 0.0
H1151 H 0.33365 0.01373 0.06196 0.0
H1152 H 0.3428 0.99521 0.0731 0.0
H1153 H 0.31618 0.99765 0.04637 0.0
H1154 H 0.2734 0.97388 0.04762 0.0
H1155 H 0.30767 0.94988 0.04278 0.0
H1156 H 0.62043 0.96006 0.42657 0.0
H1157 H 0.6543 0.98424 0.42255 0.0
H1158 H 0.75677 0.96289 0.38933 0.0
H1159 H 0.72279 0.93869 0.39315 0.0
H1160 H 0.72569 0.99178 0.44199 0.0
H1161 H 0.73771 0.99855 0.34763 0.0
H1162 H 0.70461 0.98487 0.36081 0.0
H1163 H 0.75856 0.9813 0.35806 0.0
C1164 C 0.6499 0.96056 0.41808 0.0
C1165 C 0.66864 0.94752 0.40982 0.0
C1166 C 0.6692 0.97437 0.41577 0.0
C1167 C 0.7078 0.97542 0.40532 0.0
C1168 C 0.72647 0.96243 0.39684 0.0
H1169 H 0.87788 0.04746 0.43297 0.0
H1170 H 0.84446 0.02322 0.42827 0.0
C1171 C 0.70697 0.94858 0.39899 0.0
C1172 C 0.72975 0.98992 0.40521 0.0
H1173 H 0.77568 0.01573 0.37053 0.0
C1174 C 0.73646 0.99703 0.42634 0.0
C1175 C 0.74348 0.99683 0.38477 0.0
C1176 C 0.73542 0.99008 0.3615 0.0
C1177 C 0.75677 0.01077 0.42764 0.0
C1178 C 0.77174 0.01745 0.40731 0.0
C1179 C 0.7646 0.01048 0.38611 0.0
C1180 C 0.79434 0.03178 0.40788 0.0
C1181 C 0.76137 0.01815 0.4508 0.0
C1182 C 0.77814 0.04451 0.39718 0.0
C1183 C 0.79741 0.05836 0.39968 0.0
C1184 C 0.83331 0.05966 0.41282 0.0
C1185 C 0.85017 0.04679 0.42282 0.0
C1186 C 0.83108 0.03296 0.4202 0.0
H1187 H 0.73916 0.01365 0.46348 0.0
H1188 H 0.79265 0.01604 0.45744 0.0
H1189 H 0.75694 0.03041 0.44951 0.0
H1190 H 0.74972 0.04383 0.38767 0.0
H1191 H 0.78304 0.06811 0.39227 0.0
H1192 H 0.66579 0.06087 0.86804 0.0
H1193 H 0.69992 0.03666 0.86351 0.0
H1194 H 0.72542 0.03562 0.93601 0.0
H1195 H 0.69234 0.05989 0.94067 0.0
H1196 H 0.79214 0.0276 0.88809 0.0
H1197 H 0.64912 0.99678 0.90981 0.0
H1198 H 0.64821 0.01457 0.89518 0.0
H1199 H 0.66063 0.01377 0.9251 0.0
C1200 C 0.67971 0.05573 0.8829 0.0
C1201 C 0.67692 0.06244 0.90468 0.0
C1202 C 0.69884 0.04184 0.8803 0.0
C1203 C 0.71515 0.03445 0.89944 0.0
C1204 C 0.71304 0.04121 0.92106 0.0
H1205 H 0.80422 0.95049 0.94425 0.0
H1206 H 0.77272 0.97485 0.93793 0.0
C1207 C 0.69403 0.05505 0.92367 0.0
C1208 C 0.73265 0.01931 0.89738 0.0
H1209 H 0.71017 0.98278 0.90793 0.0
C1210 C 0.77425 0.01773 0.89204 0.0
C1211 C 0.70907 0.00658 0.90273 0.0
C1212 C 0.66418 0.00786 0.90847 0.0
C1213 C 0.79338 1.00368 0.89279 0.0
C1214 C 0.76997 0.99094 0.89871 0.0
C1215 C 0.72802 0.99254 0.90335 0.0
C1216 C 0.78889 0.97604 0.90198 0.0
C1217 C 0.83879 1.00269 0.88833 0.0
C1218 C 0.80823 0.96855 0.88381 0.0
C1219 C 0.82652 0.95461 0.88741 0.0
C1220 C 0.82528 0.94785 0.90919 0.0
C1221 C 0.80565 0.95537 0.92726 0.0
C1222 C 0.78749 0.96928 0.92367 0.0
H1223 H 0.8537 0.01383 0.88867 0.0
H1224 H 0.85387 0.99542 0.90124 0.0
H1225 H 0.84399 0.99772 0.87113 0.0
H1226 H 0.80932 0.97351 0.86687 0.0
H1227 H 0.84238 0.94936 0.87327 0.0
H1228 H 0.18903 0.94898 0.54709 0.0
H1229 H 0.22384 0.97271 0.55417 0.0
H1230 H 0.17248 0.97428 0.62227 0.0
H1231 H 0.13733 0.95048 0.61526 0.0
H1232 H 0.16313 1.00133 0.59323 0.0
H1233 H 0.32317 0.98083 0.59872 0.0
H1234 H 0.29428 0.97364 0.5749 0.0
H1235 H 0.27936 0.96892 0.60367 0.0
C1236 C 0.18539 0.95432 0.56364 0.0
C1237 C 0.16096 0.94776 0.58074 0.0
C1238 C 0.20547 0.96782 0.5677 0.0
C1239 C 0.2012 0.97511 0.58885 0.0
C1240 C 0.17655 0.9687 0.60594 0.0
H1241 H 0.34537 0.05677 0.61363 0.0
H1242 H 0.30915 0.03326 0.62127 0.0
C1243 C 0.15676 0.95506 0.60197 0.0
C1244 C 0.22094 0.98981 0.59239 0.0
H1245 H 0.31425 0.00698 0.59233 0.0
C1246 C 0.19616 1.00258 0.59343 0.0
C1247 C 0.26399 0.99138 0.59287 0.0
C1248 C 0.29187 0.97797 0.59269 0.0
C1249 C 0.2134 0.01694 0.59363 0.0
C1250 C 0.25645 0.01853 0.59265 0.0
C1251 C 0.28124 0.00574 0.59296 0.0
C1252 C 0.27614 0.03325 0.5891 0.0
C1253 C 0.18545 0.03033 0.59431 0.0
C1254 C 0.26971 0.04095 0.56848 0.0
C1255 C 0.29034 0.05429 0.56407 0.0
C1256 C 0.31764 0.06027 0.58027 0.0
C1257 C 0.32379 0.05264 0.60107 0.0
C1258 C 0.30336 0.03916 0.60538 0.0
H1259 H 0.15486 0.02741 0.60135 0.0
H1260 H 0.1989 0.03942 0.60483 0.0
H1261 H 0.1811 0.0346 0.5766 0.0
H1262 H 0.24943 0.03645 0.55551 0.0
H1263 H 0.2851 0.05988 0.54786 0.0
H1264 H 0.84279 0.44875 0.11972 0.0
H1265 H 0.80986 0.47305 0.12511 0.0
H1266 H 0.78261 0.47496 0.0528 0.0
H1267 H 0.81494 0.45066 0.04732 0.0
H1268 H 0.82015 0.50084 0.07021 0.0
H1269 H 0.68643 0.48354 0.12308 0.0
H1270 H 0.73591 0.47764 0.1331 0.0
H1271 H 0.71626 0.47039 0.1066 0.0
C1272 C 0.82882 0.45413 0.10508 0.0
C1273 C 0.83074 0.4476 0.08315 0.0
C1274 C 0.81024 0.46808 0.10817 0.0
C1275 C 0.79336 0.47572 0.08939 0.0
C1276 C 0.79533 0.46923 0.06753 0.0
H1277 H 0.62762 0.54827 0.07154 0.0
H1278 H 0.66291 0.52439 0.07581 0.0
C1279 C 0.81384 0.45534 0.06444 0.0
C1280 C 0.77489 0.49073 0.0921 0.0
H1281 H 0.69313 0.50923 0.11504 0.0
C1282 C 0.79257 0.50272 0.08017 0.0
C1283 C 0.73879 0.4931 0.10499 0.0
C1284 C 0.71791 0.48051 0.11758 0.0
C1285 C 0.77469 0.51696 0.08038 0.0
C1286 C 0.73843 0.51932 0.09315 0.0
C1287 C 0.72112 0.5074 0.10543 0.0
C1288 C 0.71627 0.53376 0.09238 0.0
C1289 C 0.7938 0.5292 0.06616 0.0
C1290 C 0.7343 0.54693 0.10062 0.0
C1291 C 0.71422 0.56065 0.09812 0.0
C1292 C 0.6756 0.56137 0.08752 0.0
C1293 C 0.65733 0.54809 0.07979 0.0
C1294 C 0.67735 0.53442 0.08231 0.0
H1295 H 0.81674 0.52479 0.05383 0.0
H1296 H 0.77003 0.5354 0.05644 0.0
H1297 H 0.80952 0.53722 0.07768 0.0
H1298 H 0.76424 0.54665 0.10858 0.0
H1299 H 0.72973 0.57066 0.10369 0.0
H1300 H 0.33431 0.56048 0.37462 0.0
H1301 H 0.29979 0.53654 0.3678 0.0
H1302 H 0.24862 0.53811 0.43596 0.0
H1303 H 0.28261 0.56199 0.44279 0.0
H1304 H 0.31186 0.51016 0.39549 0.0
H1305 H 0.14939 0.52799 0.39402 0.0
H1306 H 0.19132 0.54077 0.38909 0.0
H1307 H 0.17797 0.53532 0.41782 0.0
C1308 C 0.31489 0.5559 0.38791 0.0
C1309 C 0.31066 0.5632 0.40913 0.0
C1310 C 0.29546 0.54218 0.38406 0.0
C1311 C 0.27115 0.53569 0.40125 0.0
C1312 C 0.2666 0.54306 0.42231 0.0
H1313 H 0.20281 0.44902 0.44311 0.0
H1314 H 0.23318 0.47348 0.43559 0.0
C1315 C 0.28627 0.55665 0.42624 0.0
C1316 C 0.25283 0.52071 0.39809 0.0
H1317 H 0.16192 0.50199 0.40093 0.0
C1318 C 0.27905 0.50837 0.39626 0.0
C1319 C 0.21002 0.51842 0.39891 0.0
C1320 C 0.18045 0.53133 0.39985 0.0
C1321 C 0.26365 0.49374 0.39655 0.0
C1322 C 0.22103 0.49145 0.39887 0.0
C1323 C 0.19463 0.50379 0.39935 0.0
C1324 C 0.20363 0.47638 0.40268 0.0
C1325 C 0.29315 0.48084 0.39493 0.0
C1326 C 0.17641 0.47003 0.38682 0.0
C1327 C 0.15904 0.456 0.39107 0.0
C1328 C 0.16836 0.44822 0.41136 0.0
C1329 C 0.19525 0.45472 0.42728 0.0
C1330 C 0.21284 0.46864 0.42294 0.0
H1331 H 0.32276 0.48429 0.38719 0.0
H1332 H 0.2994 0.47651 0.41243 0.0
H1333 H 0.27998 0.47161 0.38458 0.0
H1334 H 0.16851 0.47595 0.37124 0.0
H1335 H 0.13758 0.45146 0.37878 0.0
H1336 H 0.38488 0.46393 0.9086 0.0
H1337 H 0.34596 0.48722 0.9055 0.0
H1338 H 0.23657 0.46219 0.89047 0.0
H1339 H 0.27513 0.43883 0.89375 0.0
H1340 H 0.28229 0.4963 0.86367 0.0
H1341 H 0.22474 0.49026 0.95329 0.0
H1342 H 0.27318 0.48237 0.94456 0.0
H1343 H 0.22636 0.47418 0.93469 0.0
C1344 C 0.35264 0.46339 0.90432 0.0
C1345 C 0.33321 0.44955 0.90106 0.0
C1346 C 0.33056 0.47669 0.90249 0.0
C1347 C 0.28857 0.47636 0.89765 0.0
C1348 C 0.26911 0.46261 0.89399 0.0
H1349 H 0.10961 0.54714 0.91584 0.0
H1350 H 0.1433 0.52307 0.90978 0.0
C1351 C 0.29128 0.44929 0.89566 0.0
C1352 C 0.26472 0.49037 0.89804 0.0
H1353 H 0.20579 0.51187 0.93322 0.0
C1354 C 0.26533 0.49973 0.87877 0.0
C1355 C 0.24265 0.49468 0.91777 0.0
C1356 C 0.24151 0.48493 0.93887 0.0
C1357 C 0.24425 0.51341 0.87875 0.0
C1358 C 0.22298 0.51795 0.89876 0.0
C1359 C 0.22208 0.50841 0.9179 0.0
C1360 C 0.20193 0.5326 0.90051 0.0
C1361 C 0.24449 0.52273 0.8572 0.0
C1362 C 0.22362 0.54599 0.89736 0.0
C1363 C 0.20428 0.55976 0.90062 0.0
C1364 C 0.16301 0.56038 0.90733 0.0
C1365 C 0.1414 0.54699 0.91054 0.0
C1366 C 0.1606 0.53324 0.90706 0.0
H1367 H 0.25073 0.51582 0.84177 0.0
H1368 H 0.21484 0.52858 0.85477 0.0
H1369 H 0.26906 0.53124 0.85847 0.0
H1370 H 0.25587 0.5458 0.89308 0.0
H1371 H 0.22215 0.56985 0.89883 0.0
H1372 H 0.86077 0.54818 0.56132 0.0
H1373 H 0.82935 0.52373 0.56675 0.0
H1374 H 0.74274 0.54283 0.61425 0.0
H1375 H 0.77254 0.56748 0.60794 0.0
H1376 H 0.81973 0.50642 0.60503 0.0
H1377 H 0.66816 0.52214 0.5689 0.0
H1378 H 0.71257 0.53398 0.56627 0.0
H1379 H 0.6847 0.53321 0.59285 0.0
C1380 C 0.83502 0.5472 0.57294 0.0
C1381 C 0.81968 0.5598 0.58447 0.0
C1382 C 0.81722 0.53319 0.57611 0.0
C1383 C 0.78349 0.53146 0.59077 0.0
C1384 C 0.76845 0.54394 0.60264 0.0
H1385 H 0.64123 0.44865 0.6094 0.0
H1386 H 0.67067 0.47339 0.61714 0.0
C1387 C 0.78611 0.55801 0.59935 0.0
C1388 C 0.76391 0.51658 0.59305 0.0
H1389 H 0.67581 0.49738 0.5817 0.0
C1390 C 0.78815 0.50448 0.60012 0.0
C1391 C 0.72265 0.51405 0.58666 0.0
C1392 C 0.69552 0.52648 0.57806 0.0
C1393 C 0.77258 0.48988 0.6004 0.0
C1394 C 0.73183 0.48733 0.59335 0.0
C1395 C 0.70703 0.49945 0.58719 0.0
C1396 C 0.7157 0.47206 0.59 0.0
C1397 C 0.80001 0.47723 0.60781 0.0
C1398 C 0.7312 0.46323 0.57215 0.0
C1399 C 0.71441 0.44922 0.56765 0.0
C1400 C 0.68204 0.4437 0.58107 0.0
C1401 C 0.66678 0.45248 0.59914 0.0
C1402 C 0.68335 0.46662 0.60347 0.0
H1403 H 0.8266 0.48129 0.61792 0.0
H1404 H 0.78275 0.46898 0.61823 0.0
H1405 H 0.81188 0.47142 0.59236 0.0
H1406 H 0.75574 0.46734 0.56134 0.0
H1407 H 0.72663 0.44271 0.55356 0.0
H1408 H 0.98411 0.31623 0.15185 0.0
H1409 H 0.00725 0.29033 0.15171 0.0
H1410 H 0.92891 0.28104 0.09389 0.0
H1411 H 0.90459 0.30692 0.09437 0.0
H1412 H 0.92708 0.25863 0.12429 0.0
H1413 H 0.08858 0.27345 0.10688 0.0
H1414 H 0.06962 0.28219 0.13243 0.0
H1415 H 0.04763 0.28689 0.10504 0.0
C1416 C 0.97156 0.30866 0.13918 0.0
C1417 C 0.94276 0.31366 0.12299 0.0
C1418 C 0.98513 0.29388 0.13899 0.0
C1419 C 0.9708 0.28383 0.12235 0.0
C1420 C 0.94077 0.28863 0.10674 0.0
H1421 H 0.08916 0.19858 0.09127 0.0
H1422 H 0.0656 0.22455 0.0906 0.0
C1423 C 0.9268 0.30341 0.10707 0.0
C1424 C 0.98712 0.26835 0.12134 0.0
H1425 H 0.07588 0.24825 0.11824 0.0
C1426 C 0.95959 0.25637 0.12283 0.0
C1427 C 0.02951 0.26536 0.11894 0.0
C1428 C 0.06049 0.27765 0.11548 0.0
C1429 C 0.97332 0.24151 0.12264 0.0
C1430 C 0.0159 0.23854 0.12159 0.0
C1431 C 0.04333 0.25051 0.11943 0.0
C1432 C 0.03245 0.2231 0.1227 0.0
C1433 C 0.94192 0.22915 0.12318 0.0
C1434 C 0.02302 0.21382 0.14136 0.0
C1435 C 0.03614 0.19898 0.14169 0.0
C1436 C 0.05965 0.19318 0.12356 0.0
C1437 C 0.0711 0.20271 0.1055 0.0
C1438 C 0.05753 0.21755 0.10506 0.0
H1439 H 0.91171 0.23304 0.11679 0.0
H1440 H 0.95182 0.21948 0.11264 0.0
H1441 H 0.93775 0.22533 0.14114 0.0
H1442 H 0.00489 0.21797 0.15555 0.0
H1443 H 0.02721 0.19198 0.15599 0.0
H1444 H 0.39606 0.80641 0.09978 0.0
H1445 H 0.42036 0.78057 0.10229 0.0
H1446 H 0.51142 0.79396 0.15178 0.0
H1447 H 0.48822 0.81975 0.14881 0.0
H1448 H 0.54499 0.77772 0.1188 0.0
H1449 H 0.40596 0.7488 0.15034 0.0
H1450 H 0.3973 0.75916 0.12446 0.0
H1451 H 0.41074 0.76886 0.15042 0.0
C1452 C 0.42077 0.80377 0.11148 0.0
C1453 C 0.44027 0.81511 0.12406 0.0
C1454 C 0.43457 0.78899 0.11296 0.0
C1455 C 0.46754 0.78527 0.12738 0.0
C1456 C 0.48602 0.79654 0.1405 0.0
H1457 H 0.54229 0.69526 0.16319 0.0
H1458 H 0.51821 0.72108 0.1633 0.0
C1459 C 0.47263 0.81128 0.13883 0.0
C1460 C 0.4847 0.76991 0.12783 0.0
H1461 H 0.4605 0.73336 0.1373 0.0
C1462 C 0.52653 0.76802 0.12296 0.0
C1463 C 0.46078 0.75727 0.13349 0.0
C1464 C 0.41631 0.7586 0.1402 0.0
C1465 C 0.54504 0.75389 0.12349 0.0
C1466 C 0.52081 0.74119 0.12837 0.0
C1467 C 0.47903 0.74307 0.13338 0.0
C1468 C 0.53812 0.72584 0.12864 0.0
C1469 C 0.59055 0.75279 0.11936 0.0
C1470 C 0.5578 0.71994 0.10921 0.0
C1471 C 0.57221 0.70523 0.10923 0.0
C1472 C 0.56646 0.69605 0.12854 0.0
C1473 C 0.5472 0.70204 0.14805 0.0
C1474 C 0.53327 0.71678 0.14811 0.0
H1475 H 0.60621 0.76356 0.12291 0.0
H1476 H 0.60463 0.74401 0.13022 0.0
H1477 H 0.5961 0.74994 0.10109 0.0
H1478 H 0.56106 0.72656 0.09378 0.0
H1479 H 0.58647 0.7009 0.09383 0.0
H1480 H 0.51313 0.81958 0.37656 0.0
H1481 H 0.4789 0.79549 0.37429 0.0
H1482 H 0.59396 0.77429 0.35815 0.0
H1483 H 0.62815 0.79873 0.3591 0.0
H1484 H 0.53574 0.76227 0.33359 0.0
H1485 H 0.48022 0.76482 0.423 0.0
H1486 H 0.46161 0.7804 0.40683 0.0
H1487 H 0.51584 0.77827 0.41164 0.0
C1488 C 0.53121 0.80979 0.37254 0.0
C1489 C 0.57343 0.81099 0.36831 0.0
C1490 C 0.51161 0.79598 0.37141 0.0
C1491 C 0.53399 0.78295 0.36682 0.0
C1492 C 0.57607 0.78416 0.36196 0.0
H1493 H 0.43923 0.69569 0.4014 0.0
H1494 H 0.47361 0.71974 0.39976 0.0
C1495 C 0.59561 0.7981 0.36254 0.0
C1496 C 0.51324 0.76816 0.36712 0.0
H1497 H 0.44927 0.74637 0.39911 0.0
C1498 C 0.51712 0.75872 0.348 0.0
C1499 C 0.48946 0.76337 0.38608 0.0
C1500 C 0.48692 0.77219 0.40812 0.0
C1501 C 0.49752 0.74475 0.3472 0.0
C1502 C 0.47188 0.74035 0.36563 0.0
C1503 C 0.46835 0.74977 0.3848 0.0
C1504 C 0.45024 0.7257 0.3662 0.0
C1505 C 0.50565 0.73472 0.32689 0.0
C1506 C 0.42491 0.72101 0.34806 0.0
C1507 C 0.40583 0.707 0.34874 0.0
C1508 C 0.41065 0.69766 0.36793 0.0
C1509 C 0.43459 0.70265 0.38643 0.0
C1510 C 0.4544 0.71643 0.38549 0.0
H1511 H 0.53495 0.73762 0.31828 0.0
H1512 H 0.50688 0.72282 0.3321 0.0
H1513 H 0.48075 0.73613 0.31413 0.0
H1514 H 0.41994 0.72813 0.33333 0.0
H1515 H 0.38735 0.70347 0.3343 0.0
H1516 H 0.03141 0.31558 0.33887 0.0
H1517 H 0.00764 0.28974 0.33966 0.0
H1518 H 0.07573 0.28212 0.40197 0.0
H1519 H 0.10078 0.30788 0.40086 0.0
H1520 H 0.0813 0.25871 0.37398 0.0
H1521 H 0.91843 0.27502 0.3814 0.0
H1522 H 0.94204 0.28261 0.35619 0.0
H1523 H 0.95964 0.2883 0.38414 0.0
C1524 C 0.04167 0.30836 0.35262 0.0
C1525 C 0.0677 0.3138 0.36991 0.0
C1526 C 0.02771 0.29363 0.35318 0.0
C1527 C 0.03882 0.28412 0.37127 0.0
C1528 C 0.06636 0.28931 0.38798 0.0
H1529 H 0.91115 0.20112 0.40461 0.0
H1530 H 0.93571 0.22698 0.4037 0.0
C1531 C 0.08079 0.30402 0.38728 0.0
C1532 C 0.02156 0.26881 0.37279 0.0
H1533 H 0.93159 0.24934 0.37335 0.0
C1534 C 0.04857 0.25667 0.37396 0.0
C1535 C 0.9788 0.26615 0.3733 0.0
C1536 C 0.94806 0.27872 0.37395 0.0
C1537 C 0.03407 0.24193 0.37502 0.0
C1538 C 0.99135 0.23923 0.37416 0.0
C1539 C 0.96432 0.25139 0.37362 0.0
C1540 C 0.97424 0.22387 0.37383 0.0
C1541 C 0.06477 0.22944 0.37748 0.0
C1542 C 0.98645 0.2137 0.35686 0.0
C1543 C 0.97285 0.19894 0.3575 0.0
C1544 C 0.94603 0.19411 0.37485 0.0
C1545 C 0.93181 0.20452 0.39104 0.0
C1546 C 0.94593 0.21928 0.39057 0.0
H1547 H 0.09394 0.23348 0.38507 0.0
H1548 H 0.05262 0.2203 0.3884 0.0
H1549 H 0.07184 0.22482 0.36027 0.0
H1550 H 0.00713 0.21711 0.34331 0.0
H1551 H 0.98392 0.19123 0.34459 0.0
H1552 H 0.97815 0.81741 0.8376 0.0
H1553 H 0.00226 0.79163 0.83667 0.0
H1554 H 0.93193 0.7819 0.89753 0.0
H1555 H 0.90655 0.80761 0.89809 0.0
H1556 H 0.04799 0.77751 0.8673 0.0
H1557 H 0.90121 0.74714 0.85788 0.0
H1558 H 0.9051 0.76706 0.85406 0.0
H1559 H 0.90197 0.7592 0.88243 0.0
C1560 C 0.96727 0.80973 0.85059 0.0
C1561 C 0.9403 0.81454 0.86787 0.0
C1562 C 0.98122 0.795 0.85008 0.0
C1563 C 0.96869 0.78475 0.8669 0.0
C1564 C 0.94132 0.78948 0.88404 0.0
H1565 H 0.09883 0.70192 0.89868 0.0
H1566 H 0.075 0.72783 0.89783 0.0
C1567 C 0.92692 0.80419 0.8844 0.0
C1568 C 0.98591 0.76938 0.867 0.0
H1569 H 0.95975 0.7325 0.86689 0.0
C1570 C 0.02868 0.76766 0.86709 0.0
C1571 C 0.96078 0.75652 0.8665 0.0
C1572 C 0.91474 0.75754 0.86498 0.0
C1573 C 0.04699 0.75347 0.86679 0.0
C1574 C 0.02185 0.74062 0.86704 0.0
C1575 C 0.97908 0.74234 0.86687 0.0
C1576 C 0.03895 0.72523 0.8669 0.0
C1577 C 0.09305 0.75244 0.86561 0.0
C1578 C 0.0265 0.71509 0.84993 0.0
C1579 C 0.03955 0.70026 0.8506 0.0
C1580 C 0.06556 0.69524 0.86819 0.0
C1581 C 0.07918 0.70549 0.88477 0.0
C1582 C 0.06565 0.72033 0.88425 0.0
H1583 H 0.10682 0.76287 0.85877 0.0
H1584 H 0.10536 0.75065 0.88314 0.0
H1585 H 0.10292 0.74297 0.85464 0.0
H1586 H 0.006 0.71859 0.83635 0.0
H1587 H 0.02857 0.69265 0.83754 0.0
H1588 H 0.51451 0.18973 0.87467 0.0
H1589 H 0.48031 0.21381 0.87234 0.0
H1590 H 0.59411 0.23453 0.85221 0.0
H1591 H 0.62805 0.2101 0.85323 0.0
H1592 H 0.48906 0.23739 0.89566 0.0
H1593 H 0.52157 0.25249 0.80544 0.0
H1594 H 0.53241 0.23419 0.81676 0.0
H1595 H 0.56768 0.24937 0.82138 0.0
C1596 C 0.53225 0.19939 0.86958 0.0
C1597 C 0.57397 0.19803 0.86408 0.0
C1598 C 0.51262 0.21319 0.86824 0.0
C1599 C 0.53432 0.22604 0.86177 0.0
C1600 C 0.57627 0.22475 0.85655 0.0
H1601 H 0.45008 0.31478 0.89703 0.0
H1602 H 0.48044 0.29001 0.89599 0.0
C1603 C 0.59578 0.21082 0.85734 0.0
C1604 C 0.51308 0.24076 0.86159 0.0
H1605 H 0.4953 0.27193 0.82931 0.0
C1606 C 0.49022 0.24487 0.88103 0.0
C1607 C 0.5138 0.25047 0.84241 0.0
C1608 C 0.53481 0.24634 0.82024 0.0
C1609 C 0.46851 0.25836 0.88194 0.0
C1610 C 0.47119 0.26846 0.86331 0.0
C1611 C 0.49354 0.26429 0.84372 0.0
C1612 C 0.45184 0.2835 0.864 0.0
C1613 C 0.44216 0.26141 0.90271 0.0
C1614 C 0.42659 0.28841 0.84597 0.0
C1615 C 0.40991 0.30282 0.84623 0.0
C1616 C 0.41783 0.31252 0.86465 0.0
C1617 C 0.44271 0.30751 0.88277 0.0
C1618 C 0.45998 0.29327 0.88227 0.0
H1619 H 0.43183 0.25086 0.91089 0.0
H1620 H 0.46035 0.26764 0.91562 0.0
H1621 H 0.41472 0.2681 0.89821 0.0
H1622 H 0.41999 0.28113 0.83161 0.0
H1623 H 0.39106 0.30639 0.83197 0.0
H1624 H 0.45447 0.1925 0.58566 0.0
H1625 H 0.48761 0.21677 0.58773 0.0
H1626 H 0.43642 0.22372 0.65518 0.0
H1627 H 0.40506 0.19886 0.65372 0.0
H1628 H 0.46123 0.24319 0.58973 0.0
H1629 H 0.55162 0.23396 0.66879 0.0
H1630 H 0.52389 0.21912 0.65486 0.0
H1631 H 0.49775 0.23191 0.6737 0.0
C1632 C 0.45014 0.19919 0.60095 0.0
C1633 C 0.42723 0.19374 0.61958 0.0
C1634 C 0.46924 0.21309 0.60214 0.0
C1635 C 0.46536 0.22203 0.6218 0.0
C1636 C 0.44114 0.21686 0.64013 0.0
H1637 H 0.52328 0.31649 0.61283 0.0
H1638 H 0.48985 0.29224 0.61564 0.0
C1639 C 0.42278 0.20273 0.63917 0.0
C1640 C 0.48604 0.23685 0.62257 0.0
H1641 H 0.55028 0.2588 0.65428 0.0
C1642 C 0.48086 0.24653 0.60383 0.0
C1643 C 0.51235 0.24119 0.64073 0.0
C1644 C 0.52212 0.23093 0.66052 0.0
C1645 C 0.50107 0.26031 0.60267 0.0
C1646 C 0.52562 0.265 0.62137 0.0
C1647 C 0.53107 0.25532 0.64008 0.0
C1648 C 0.54579 0.2799 0.62173 0.0
C1649 C 0.49683 0.26942 0.58099 0.0
C1650 C 0.58812 0.28125 0.62576 0.0
C1651 C 0.60719 0.29527 0.62492 0.0
C1652 C 0.58427 0.30807 0.61968 0.0
C1653 C 0.54183 0.30675 0.61641 0.0
C1654 C 0.52271 0.29286 0.61785 0.0
H1655 H 0.48953 0.26223 0.566 0.0
H1656 H 0.47128 0.27746 0.58305 0.0
H1657 H 0.52527 0.27572 0.57712 0.0
H1658 H 0.60656 0.27143 0.62903 0.0
H1659 H 0.63993 0.29602 0.62761 0.0
H1660 H 0.90096 0.70071 0.59119 0.0
H1661 H 0.92681 0.72638 0.59075 0.0
H1662 H 0.99077 0.71832 0.65429 0.0
H1663 H 0.96627 0.69258 0.65443 0.0
H1664 H 0.91938 0.74958 0.61886 0.0
H1665 H 0.08271 0.73344 0.61496 0.0
H1666 H 0.04184 0.72013 0.61114 0.0
H1667 H 0.05745 0.72567 0.63953 0.0
C1668 C 0.92031 0.70445 0.60514 0.0
C1669 C 0.93194 0.69458 0.62272 0.0
C1670 C 0.93517 0.7191 0.60483 0.0
C1671 C 0.96172 0.72416 0.62214 0.0
C1672 C 0.97153 0.71454 0.64033 0.0
H1673 H 0.01381 0.81684 0.65215 0.0
H1674 H 0.99106 0.7909 0.6524 0.0
C1675 C 0.95715 0.69986 0.6405 0.0
C1676 C 0.97903 0.7395 0.62127 0.0
H1677 H 0.06882 0.75904 0.62337 0.0
C1678 C 0.95207 0.75164 0.61971 0.0
C1679 C 0.02177 0.7422 0.62188 0.0
C1680 C 0.05262 0.72966 0.62171 0.0
C1681 C 0.96653 0.76639 0.61937 0.0
C1682 C 0.00912 0.76912 0.62135 0.0
C1683 C 0.03617 0.75697 0.62225 0.0
C1684 C 0.02607 0.78449 0.62245 0.0
C1685 C 0.93599 0.77889 0.61646 0.0
C1686 C 0.05539 0.78931 0.60642 0.0
C1687 C 0.06919 0.80411 0.60654 0.0
C1688 C 0.0537 0.81434 0.62263 0.0
C1689 C 0.02593 0.80928 0.63934 0.0
C1690 C 0.01259 0.79448 0.63938 0.0
H1691 H 0.90741 0.77491 0.60813 0.0
H1692 H 0.92767 0.78337 0.63358 0.0
H1693 H 0.94888 0.78813 0.60601 0.0
H1694 H 0.06658 0.78175 0.59334 0.0
H1695 H 0.09058 0.80769 0.59344 0.0
H1696 H 0.0693 0.09824 0.15834 0.0
H1697 H 0.05135 0.09247 0.19821 0.0
H1698 H 0.05731 0.13926 0.21513 0.0
H1699 H 0.07546 0.14516 0.17562 0.0
H1700 H 0.09629 0.11932 0.24758 0.0
H1701 H 0.93657 0.10278 0.22514 0.0
H1702 H 0.97804 0.09371 0.21034 0.0
H1703 H 0.96845 0.11317 0.20551 0.0
C1704 C 0.06703 0.1073 0.17059 0.0
C1705 C 0.07343 0.12219 0.16374 0.0
C1706 C 0.05669 0.10397 0.19331 0.0
C1707 C 0.05262 0.11547 0.20945 0.0
C1708 C 0.0603 0.13024 0.20285 0.0
H1709 H 0.96971 0.14578 0.33477 0.0
H1710 H 0.00324 0.1396 0.29877 0.0
C1711 C 0.07054 0.13359 0.18023 0.0
C1712 C 0.03865 0.11246 0.23309 0.0
H1713 H 0.95219 0.10548 0.26413 0.0
C1714 C 0.06503 0.116 0.25126 0.0
C1715 C -0.00205 0.10801 0.23776 0.0
C1716 C 0.96836 0.10425 0.21874 0.0
C1717 C 0.05106 0.11604 0.27399 0.0
C1718 C 0.00956 0.11268 0.27849 0.0
C1719 C 0.98397 0.10809 0.26052 0.0
C1720 C 0.99083 0.11593 0.301 0.0
C1721 C 0.0804 0.12022 0.2929 0.0
C1722 C 0.9719 0.10467 0.31393 0.0
C1723 C 0.95247 0.10817 0.33465 0.0
C1724 C 0.95126 0.12302 0.3425 0.0
C1725 C 0.97011 0.13423 0.32933 0.0
C1726 C 0.98963 0.13071 0.3088 0.0
H1727 H 0.11254 0.1177 0.28802 0.0
H1728 H 0.07818 0.1324 0.29617 0.0
H1729 H 0.07302 0.11424 0.30907 0.0
H1730 H 0.97212 0.09322 0.30797 0.0
H1731 H 0.93808 0.09929 0.34435 0.0
H1732 H 0.42692 0.9101 0.15191 0.0
H1733 H 0.46038 0.91689 0.18822 0.0
H1734 H 0.48883 0.87058 0.20041 0.0
H1735 H 0.45584 0.86369 0.16459 0.0
H1736 H 0.44028 0.90505 0.2338 0.0
H1737 H 0.59981 0.89286 0.20806 0.0
H1738 H 0.5596 0.89648 0.18749 0.0
H1739 H 0.56493 0.87826 0.20014 0.0
C1740 C 0.44046 0.90139 0.16232 0.0
C1741 C 0.43883 0.88636 0.15532 0.0
C1742 C 0.45954 0.9053 0.18298 0.0
C1743 C 0.47767 0.89425 0.19666 0.0
C1744 C 0.47572 0.87929 0.1898 0.0
H1745 H 0.56028 0.86316 0.31929 0.0
H1746 H 0.53917 0.87023 0.28072 0.0
C1747 C 0.45654 0.87537 0.16938 0.0
C1748 C 0.49718 0.8979 0.21877 0.0
H1749 H 0.58474 0.89096 0.24868 0.0
C1750 C 0.47219 0.90246 0.23704 0.0
C1751 C 0.53884 0.89458 0.22278 0.0
C1752 C 0.56747 0.89042 0.20351 0.0
C1753 C 0.48694 0.9024 0.25965 0.0
C1754 C 0.52759 0.89776 0.26382 0.0
C1755 C 0.55348 0.89442 0.24535 0.0
C1756 C 0.54167 0.89399 0.28713 0.0
C1757 C 0.45822 0.90611 0.2791 0.0
C1758 C 0.55033 0.90507 0.30337 0.0
C1759 C 0.56254 0.90107 0.32555 0.0
C1760 C 0.56605 0.88592 0.33172 0.0
C1761 C 0.55773 0.87491 0.31519 0.0
C1762 C 0.54577 0.87892 0.29311 0.0
H1763 H 0.427 0.90897 0.27295 0.0
H1764 H 0.45601 0.89649 0.29104 0.0
H1765 H 0.47048 0.91573 0.28893 0.0
H1766 H 0.54752 0.91676 0.29892 0.0
H1767 H 0.56886 0.90982 0.33786 0.0
H1768 H 0.92067 0.90946 0.83675 0.0
H1769 H 0.93929 0.91608 0.79725 0.0
H1770 H 0.93437 0.86963 0.77814 0.0
H1771 H 0.9159 0.8629 0.81725 0.0
H1772 H 0.00961 0.90507 0.77327 0.0
H1773 H 0.86609 0.8907 0.72814 0.0
H1774 H 0.86808 0.89417 0.75868 0.0
H1775 H 0.88223 0.8762 0.74737 0.0
C1776 C 0.9232 0.90068 0.82407 0.0
C1777 C 0.91687 0.88564 0.83015 0.0
C1778 C 0.93376 0.90449 0.80155 0.0
C1779 C 0.93747 0.89336 0.78478 0.0
C1780 C 0.93077 0.8784 0.79076 0.0
H1781 H 0.03514 0.86334 0.66484 0.0
H1782 H 0.00202 0.87003 0.70076 0.0
C1783 C 0.92054 0.87457 0.81319 0.0
C1784 C 0.95137 0.89694 0.76133 0.0
H1785 H 0.9283 0.88959 0.70545 0.0
C1786 C 0.99154 0.90214 0.75833 0.0
C1787 C 0.92749 0.89321 0.74196 0.0
C1788 C 0.88341 0.8884 0.74416 0.0
C1789 C 0.00974 0.90234 0.73652 0.0
C1790 C 0.98692 0.89734 0.71744 0.0
C1791 C 0.94572 0.89333 0.72022 0.0
C1792 C 0.00686 0.89384 0.6954 0.0
C1793 C 0.05412 0.90675 0.73421 0.0
C1794 C 0.02054 0.90509 0.68054 0.0
C1795 C 0.03963 0.90131 0.65983 0.0
C1796 C 0.04524 0.88622 0.65381 0.0
C1797 C 0.03142 0.87506 0.66888 0.0
C1798 C 0.01234 0.87884 0.68941 0.0
H1799 H 0.06811 0.90971 0.75098 0.0
H1800 H 0.07184 0.89745 0.72648 0.0
H1801 H 0.05675 0.9165 0.72257 0.0
H1802 H 0.01632 0.91674 0.68492 0.0
H1803 H 0.04992 0.91017 0.64858 0.0
H1804 H 0.57648 0.14668 0.8113 0.0
H1805 H 0.55971 0.14009 0.77184 0.0
H1806 H 0.56622 0.09335 0.78897 0.0
H1807 H 0.58305 0.0998 0.82875 0.0
H1808 H 0.60479 0.12041 0.7394 0.0
H1809 H 0.44785 0.1008 0.76232 0.0
H1810 H 0.47708 0.1126 0.78134 0.0
H1811 H 0.49105 0.09339 0.77777 0.0
C1812 C 0.5746 0.13498 0.80674 0.0
C1813 C 0.58071 0.12377 0.82326 0.0
C1814 C 0.56517 0.13125 0.78415 0.0
C1815 C 0.56145 0.11626 0.77763 0.0
C1816 C 0.56865 0.10498 0.79381 0.0
H1817 H 0.44345 0.09806 0.64454 0.0
H1818 H 0.48009 0.09233 0.68024 0.0
C1819 C 0.57831 0.10871 0.81648 0.0
C1820 C 0.54808 0.11273 0.75407 0.0
H1821 H 0.46248 0.10413 0.72331 0.0
C1822 C 0.57398 0.11655 0.7358 0.0
C1823 C 0.50803 0.10754 0.74953 0.0
C1824 C 0.47912 0.10336 0.76868 0.0
C1825 C 0.56 0.11614 0.71308 0.0
C1826 C 0.51887 0.11214 0.70868 0.0
C1827 C 0.49395 0.10725 0.72679 0.0
C1828 C 0.4995 0.11509 0.68621 0.0
C1829 C 0.58895 0.12053 0.69408 0.0
C1830 C 0.49795 0.12977 0.67799 0.0
C1831 C 0.47706 0.13309 0.65782 0.0
C1832 C 0.45697 0.12178 0.64545 0.0
C1833 C 0.45875 0.10701 0.65362 0.0
C1834 C 0.47967 0.10371 0.67396 0.0
H1835 H 0.62119 0.11805 0.6988 0.0
H1836 H 0.58152 0.11464 0.67784 0.0
H1837 H 0.58655 0.13273 0.69106 0.0
H1838 H 0.5121 0.13878 0.68751 0.0
H1839 H 0.47629 0.14459 0.6521 0.0
H1840 H 0.44531 0.64813 0.32812 0.0
H1841 H 0.47871 0.64159 0.29214 0.0
H1842 H 0.45697 0.59492 0.30532 0.0
H1843 H 0.42314 0.60132 0.34162 0.0
H1844 H 0.54992 0.62043 0.28811 0.0
H1845 H 0.41061 0.60443 0.23846 0.0
H1846 H 0.40723 0.61645 0.26327 0.0
H1847 H 0.41829 0.59701 0.26689 0.0
C1848 C 0.44739 0.63646 0.32343 0.0
C1849 C 0.43155 0.62525 0.33779 0.0
C1850 C 0.46659 0.63276 0.30288 0.0
C1851 C 0.47015 0.61781 0.29616 0.0
C1852 C 0.45424 0.60653 0.31025 0.0
H1853 H 0.56699 0.60068 0.1572 0.0
H1854 H 0.54278 0.59457 0.19597 0.0
C1855 C 0.43504 0.61022 0.33096 0.0
C1856 C 0.49106 0.61433 0.2744 0.0
H1857 H 0.47183 0.60756 0.21785 0.0
C1858 C 0.5331 0.61729 0.27281 0.0
C1859 C 0.46899 0.61009 0.25461 0.0
C1860 C 0.42374 0.60681 0.25566 0.0
C1861 C 0.55321 0.61703 0.25159 0.0
C1862 C 0.53043 0.614 0.23153 0.0
C1863 C 0.48909 0.60992 0.23332 0.0
C1864 C 0.54726 0.61721 0.20855 0.0
C1865 C 0.59828 0.62065 0.25069 0.0
C1866 C 0.55733 0.63196 0.20287 0.0
C1867 C 0.57077 0.63551 0.18087 0.0
C1868 C 0.57435 0.62436 0.16403 0.0
C1869 C 0.56465 0.60951 0.16981 0.0
C1870 C 0.55084 0.60599 0.1919 0.0
H1871 H 0.6136 0.61795 0.26719 0.0
H1872 H 0.61374 0.61444 0.23665 0.0
H1873 H 0.6022 0.63277 0.24748 0.0
H1874 H 0.55399 0.64082 0.21539 0.0
H1875 H 0.57802 0.64704 0.17706 0.0
H1876 H 0.07173 0.36332 0.32223 0.0
H1877 H 0.04384 0.36972 0.28477 0.0
H1878 H 0.02492 0.41509 0.30698 0.0
H1879 H 0.05331 0.40884 0.34481 0.0
H1880 H 0.95397 0.39826 0.28475 0.0
H1881 H 0.09864 0.3979 0.2348 0.0
H1882 H 0.09303 0.38254 0.25441 0.0
H1883 H 0.09712 0.40122 0.26539 0.0
C1884 C 0.06184 0.3747 0.31923 0.0
C1885 C 0.06468 0.38558 0.33653 0.0
C1886 C 0.04612 0.37834 0.29777 0.0
C1887 C 0.03281 0.39288 0.29317 0.0
C1888 C 0.03539 0.40382 0.31028 0.0
H1889 H 0.93107 0.40874 0.15489 0.0
H1890 H 0.95762 0.41517 0.193 0.0
C1891 C 0.05157 0.40023 0.33182 0.0
C1892 C 0.01462 0.39618 0.27061 0.0
H1893 H 0.03648 0.39407 0.21352 0.0
C1894 C 0.972 0.39779 0.26914 0.0
C1895 C 0.0384 0.39557 0.25039 0.0
C1896 C 0.08441 0.39434 0.25123 0.0
C1897 C 0.95223 0.39763 0.24778 0.0
C1898 C 0.97583 0.39588 0.22769 0.0
C1899 C 0.01861 0.39538 0.22909 0.0
C1900 C 0.95663 0.39247 0.2055 0.0
C1901 C 0.90619 0.39843 0.24673 0.0
C1902 C 0.94723 0.37761 0.20023 0.0
C1903 C 0.93246 0.37387 0.17856 0.0
C1904 C 0.92677 0.38496 0.1618 0.0
C1905 C 0.93515 0.39994 0.16741 0.0
C1906 C 0.95026 0.40365 0.18912 0.0
H1907 H 0.8926 0.4017 0.26347 0.0
H1908 H 0.8965 0.40656 0.23341 0.0
H1909 H 0.89386 0.38734 0.24179 0.0
H1910 H 0.95225 0.36887 0.21276 0.0
H1911 H 0.92619 0.36224 0.17486 0.0
H1912 H 0.42243 0.36129 0.81333 0.0
H1913 H 0.44071 0.36701 0.77375 0.0
H1914 H 0.44091 0.41404 0.78936 0.0
H1915 H 0.42269 0.40847 0.82925 0.0
H1916 H 0.39911 0.38668 0.74061 0.0
H1917 H 0.55778 0.40442 0.76331 0.0
H1918 H 0.52673 0.3936 0.78281 0.0
H1919 H 0.51545 0.41294 0.77813 0.0
C1920 C 0.42617 0.37287 0.80842 0.0
C1921 C 0.4215 0.38442 0.82453 0.0
C1922 C 0.43644 0.37611 0.78576 0.0
C1923 C 0.44242 0.39091 0.77879 0.0
C1924 C 0.43677 0.40253 0.79457 0.0
H1925 H 0.56263 0.40637 0.64571 0.0
H1926 H 0.52615 0.41269 0.68118 0.0
C1927 C 0.42634 0.39932 0.8173 0.0
C1928 C 0.45639 0.39387 0.75516 0.0
H1929 H 0.54295 0.40102 0.72437 0.0
C1930 C 0.4303 0.39011 0.73697 0.0
C1931 C 0.49694 0.39849 0.75057 0.0
C1932 C 0.52611 0.40256 0.76965 0.0
C1933 C 0.44448 0.39003 0.71428 0.0
C1934 C 0.48597 0.39349 0.70988 0.0
C1935 C 0.51119 0.39831 0.72788 0.0
C1936 C 0.50518 0.39016 0.68752 0.0
C1937 C 0.41533 0.38573 0.69534 0.0
C1938 C 0.50578 0.3754 0.67958 0.0
C1939 C 0.52663 0.37174 0.65953 0.0
C1940 C 0.54756 0.38277 0.64702 0.0
C1941 C 0.54671 0.39762 0.65492 0.0
C1942 C 0.52586 0.40126 0.67512 0.0
H1943 H 0.38324 0.38855 0.69995 0.0
H1944 H 0.42327 0.39139 0.67898 0.0
H1945 H 0.41691 0.37349 0.69259 0.0
H1946 H 0.49093 0.36659 0.68925 0.0
H1947 H 0.52667 0.3602 0.65399 0.0
H1948 H 0.05078 0.60139 0.84255 0.0
H1949 H 0.02132 0.59529 0.80499 0.0
H1950 H 0.05292 0.63915 0.78027 0.0
H1951 H 0.08186 0.64544 0.81765 0.0
H1952 H 0.95499 0.61483 0.78335 0.0
H1953 H 0.09539 0.60739 0.73077 0.0
H1954 H 0.09456 0.60459 0.7615 0.0
H1955 H 0.09581 0.62315 0.7499 0.0
C1956 C 0.05187 0.60967 0.82903 0.0
C1957 C 0.0685 0.62392 0.83307 0.0
C1958 C 0.03504 0.60616 0.80765 0.0
C1959 C 0.03539 0.61674 0.78996 0.0
C1960 C 0.05287 0.6308 0.79373 0.0
H1961 H 0.91325 0.64591 0.67409 0.0
H1962 H 0.94104 0.63982 0.7118 0.0
C1963 C 0.06918 0.63439 0.81512 0.0
C1964 C 0.01485 0.61372 0.76796 0.0
H1965 H 0.03316 0.61227 0.71043 0.0
C1966 C 0.97195 0.61391 0.76741 0.0
C1967 C 0.03722 0.61245 0.74732 0.0
C1968 C 0.08333 0.61175 0.74728 0.0
C1969 C 0.95083 0.61391 0.74648 0.0
C1970 C 0.97334 0.61372 0.7258 0.0
C1971 C 0.0161 0.61247 0.7264 0.0
C1972 C 0.95357 0.61673 0.70357 0.0
C1973 C 0.90474 0.61477 0.74655 0.0
C1974 C 0.95157 0.60571 0.68655 0.0
C1975 C 0.93542 0.60912 0.66496 0.0
C1976 C 0.92184 0.62368 0.66004 0.0
C1977 C 0.92358 0.63461 0.6773 0.0
C1978 C 0.93921 0.63115 0.69888 0.0
H1979 H 0.89172 0.61122 0.7633 0.0
H1980 H 0.89521 0.62647 0.74332 0.0
H1981 H 0.89162 0.6077 0.73274 0.0
H1982 H 0.96288 0.59456 0.68992 0.0
H1983 H 0.93454 0.60047 0.65199 0.0
loop_
_geom_bond_atom_site_label_1
_geom_bond_atom_site_label_2
_geom_bond_distance
_geom_bond_site_symmetry_2
_ccdc_geom_bond_type
Co0 O3 1.970 . S
Co0 N17 1.989 . S
Co0 O25 1.967 . S
Co0 O32 1.920 . S
Co1 O4 1.966 . S
Co1 N10 2.022 . S
Co1 N18 1.993 . S
Co1 O26 1.941 . S
C2 O3 1.258 . S
C2 O4 1.263 . S
O3 Co0 1.970 . S
O3 C2 1.258 . S
O4 Co1 1.966 . S
O4 C2 1.263 . S
C5 O6 1.235 . S
C5 O32 1.289 . S
O6 C5 1.235 . S
C7 C9 1.400 . S
C7 N10 1.351 . S
C7 C12 1.501 . S
C8 C9 1.387 . S
C8 N11 1.341 . S
C9 C7 1.400 . S
C9 C8 1.387 . S
N10 Co1 2.022 . S
N10 C7 1.351 . S
N10 N11 1.365 . S
N11 C8 1.341 . S
N11 N10 1.365 . S
N11 H31 0.862 . S
C12 C7 1.501 . S
C12 H13 0.961 . S
C12 H14 0.961 . S
C12 H15 0.960 . S
H13 C12 0.961 . S
H14 C12 0.961 . S
H15 C12 0.960 . S
C16 N17 1.342 . S
C16 C20 1.401 . S
C16 C21 1.499 . S
N17 Co0 1.989 . S
N17 C16 1.342 . S
N17 N18 1.388 . S
N18 Co1 1.993 . S
N18 N17 1.388 . S
N18 C19 1.346 . S
C19 N18 1.346 . S
C19 C20 1.396 . S
C19 C29 1.510 . S
C20 C16 1.401 . S
C20 C19 1.396 . S
C21 C16 1.499 . S
C21 H22 0.959 . S
C21 H23 0.960 . S
C21 H24 0.961 . S
H22 C21 0.959 . S
H23 C21 0.960 . S
H24 C21 0.961 . S
O25 Co0 1.967 . S
O25 C33 1.258 . S
O26 Co1 1.941 . S
O26 C33 1.266 . S
H27 C29 0.959 . S
H28 C29 0.961 . S
C29 C19 1.510 . S
C29 H27 0.959 . S
C29 H28 0.961 . S
C29 H30 0.960 . S
H30 C29 0.960 . S
H31 N11 0.862 . S
O32 Co0 1.920 . S
O32 C5 1.289 . S
C33 O25 1.258 . S
C33 O26 1.266 . S
Co34 O37 1.970 . S
Co34 N51 1.989 . S
Co34 O59 1.967 . S
Co34 O66 1.920 . S
Co35 O38 1.966 . S
Co35 N44 2.022 . S
Co35 N52 1.993 . S
Co35 O60 1.941 . S
C36 O37 1.258 . S
C36 O38 1.263 . S
O37 Co34 1.970 . S
O37 C36 1.258 . S
O38 Co35 1.966 . S
O38 C36 1.263 . S
C39 O40 1.235 . S
C39 O66 1.289 . S
O40 C39 1.235 . S
C41 C43 1.400 . S
C41 N44 1.351 . S
C41 C46 1.501 . S
C42 C43 1.387 . S
C42 N45 1.341 . S
C43 C41 1.400 . S
C43 C42 1.387 . S
N44 Co35 2.022 . S
N44 C41 1.351 . S
N44 N45 1.365 . S
N45 C42 1.341 . S
N45 N44 1.365 . S
N45 H65 0.862 . S
C46 C41 1.501 . S
C46 H47 0.961 . S
C46 H48 0.961 . S
C46 H49 0.960 . S
H47 C46 0.961 . S
H48 C46 0.961 . S
H49 C46 0.960 . S
C50 N51 1.342 . S
C50 C54 1.401 . S
C50 C55 1.499 . S
N51 Co34 1.989 . S
N51 C50 1.342 . S
N51 N52 1.388 . S
N52 Co35 1.993 . S
N52 N51 1.388 . S
N52 C53 1.346 . S
C53 N52 1.346 . S
C53 C54 1.396 . S
C53 C63 1.510 . S
C54 C50 1.401 . S
C54 C53 1.396 . S
C55 C50 1.499 . S
C55 H56 0.959 . S
C55 H57 0.960 . S
C55 H58 0.961 . S
H56 C55 0.959 . S
H57 C55 0.960 . S
H58 C55 0.961 . S
O59 Co34 1.967 . S
O59 C67 1.258 . S
O60 Co35 1.941 . S
O60 C67 1.266 . S
H61 C63 0.959 . S
H62 C63 0.961 . S
C63 C53 1.510 . S
C63 H61 0.959 . S
C63 H62 0.961 . S
C63 H64 0.960 . S
H64 C63 0.960 . S
H65 N45 0.862 . S
O66 Co34 1.920 . S
O66 C39 1.289 . S
C67 O59 1.258 . S
C67 O60 1.266 . S
Co68 O71 1.970 . S
Co68 N85 1.989 . S
Co68 O93 1.967 . S
Co68 O100 1.920 . S
Co69 O72 1.966 . S
Co69 N78 2.022 . S
Co69 N86 1.993 . S
Co69 O94 1.941 . S
C70 O71 1.258 . S
C70 O72 1.263 . S
O71 Co68 1.970 . S
O71 C70 1.258 . S
O72 Co69 1.966 . S
O72 C70 1.263 . S
C73 O74 1.235 . S
C73 O100 1.289 . S
O74 C73 1.235 . S
C75 C77 1.400 . S
C75 N78 1.351 . S
C75 C80 1.501 . S
C76 C77 1.387 . S
C76 N79 1.341 . S
C77 C75 1.400 . S
C77 C76 1.387 . S
N78 Co69 2.022 . S
N78 C75 1.351 . S
N78 N79 1.365 . S
N79 C76 1.341 . S
N79 N78 1.365 . S
N79 H99 0.862 . S
C80 C75 1.501 . S
C80 H81 0.961 . S
C80 H82 0.961 . S
C80 H83 0.960 . S
H81 C80 0.961 . S
H82 C80 0.961 . S
H83 C80 0.960 . S
C84 N85 1.342 . S
C84 C88 1.401 . S
C84 C89 1.499 . S
N85 Co68 1.989 . S
N85 C84 1.342 . S
N85 N86 1.388 . S
N86 Co69 1.993 . S
N86 N85 1.388 . S
N86 C87 1.346 . S
C87 N86 1.346 . S
C87 C88 1.396 . S
C87 C97 1.510 . S
C88 C84 1.401 . S
C88 C87 1.396 . S
C89 C84 1.499 . S
C89 H90 0.959 . S
C89 H91 0.960 . S
C89 H92 0.961 . S
H90 C89 0.959 . S
H91 C89 0.960 . S
H92 C89 0.961 . S
O93 Co68 1.967 . S
O93 C101 1.258 . S
O94 Co69 1.941 . S
O94 C101 1.266 . S
H95 C97 0.959 . S
H96 C97 0.961 . S
C97 C87 1.510 . S
C97 H95 0.959 . S
C97 H96 0.961 . S
C97 H98 0.960 . S
H98 C97 0.960 . S
H99 N79 0.862 . S
O100 Co68 1.920 . S
O100 C73 1.289 . S
C101 O93 1.258 . S
C101 O94 1.266 . S
Co102 O105 1.970 . S
Co102 N119 1.989 . S
Co102 O127 1.967 . S
Co102 O134 1.920 . S
Co103 O106 1.966 . S
Co103 N112 2.022 . S
Co103 N120 1.993 . S
Co103 O128 1.941 . S
C104 O105 1.258 . S
C104 O106 1.263 . S
O105 Co102 1.970 . S
O105 C104 1.258 . S
O106 Co103 1.966 . S
O106 C104 1.263 . S
C107 O108 1.235 . S
C107 O134 1.289 . S
O108 C107 1.235 . S
C109 C111 1.400 . S
C109 N112 1.351 . S
C109 C114 1.501 . S
C110 C111 1.387 . S
C110 N113 1.341 . S
C111 C109 1.400 . S
C111 C110 1.387 . S
N112 Co103 2.022 . S
N112 C109 1.351 . S
N112 N113 1.365 . S
N113 C110 1.341 . S
N113 N112 1.365 . S
N113 H133 0.862 . S
C114 C109 1.501 . S
C114 H115 0.961 . S
C114 H116 0.961 . S
C114 H117 0.960 . S
H115 C114 0.961 . S
H116 C114 0.961 . S
H117 C114 0.960 . S
C118 N119 1.342 . S
C118 C122 1.401 . S
C118 C123 1.499 . S
N119 Co102 1.989 . S
N119 C118 1.342 . S
N119 N120 1.388 . S
N120 Co103 1.993 . S
N120 N119 1.388 . S
N120 C121 1.346 . S
C121 N120 1.346 . S
C121 C122 1.396 . S
C121 C131 1.510 . S
C122 C118 1.401 . S
C122 C121 1.396 . S
C123 C118 1.499 . S
C123 H124 0.959 . S
C123 H125 0.960 . S
C123 H126 0.961 . S
H124 C123 0.959 . S
H125 C123 0.960 . S
H126 C123 0.961 . S
O127 Co102 1.967 . S
O127 C135 1.258 . S
O128 Co103 1.941 . S
O128 C135 1.266 . S
H129 C131 0.959 . S
H130 C131 0.961 . S
C131 C121 1.510 . S
C131 H129 0.959 . S
C131 H130 0.961 . S
C131 H132 0.960 . S
H132 C131 0.960 . S
H133 N113 0.862 . S
O134 Co102 1.920 . S
O134 C107 1.289 . S
C135 O127 1.258 . S
C135 O128 1.266 . S
Co136 O139 1.970 . S
Co136 N153 1.989 . S
Co136 O161 1.967 . S
Co136 O168 1.920 . S
Co137 O140 1.966 . S
Co137 N146 2.022 . S
Co137 N154 1.993 . S
Co137 O162 1.941 . S
C138 O139 1.258 . S
C138 O140 1.263 . S
O139 Co136 1.970 . S
O139 C138 1.258 . S
O140 Co137 1.966 . S
O140 C138 1.263 . S
C141 O142 1.235 . S
C141 O168 1.289 . S
O142 C141 1.235 . S
C143 C145 1.400 . S
C143 N146 1.351 . S
C143 C148 1.501 . S
C144 C145 1.387 . S
C144 N147 1.341 . S
C145 C143 1.400 . S
C145 C144 1.387 . S
N146 Co137 2.022 . S
N146 C143 1.351 . S
N146 N147 1.365 . S
N147 C144 1.341 . S
N147 N146 1.365 . S
N147 H167 0.862 . S
C148 C143 1.501 . S
C148 H149 0.961 . S
C148 H150 0.961 . S
C148 H151 0.960 . S
H149 C148 0.961 . S
H150 C148 0.961 . S
H151 C148 0.960 . S
C152 N153 1.342 . S
C152 C156 1.401 . S
C152 C157 1.499 . S
N153 Co136 1.989 . S
N153 C152 1.342 . S
N153 N154 1.388 . S
N154 Co137 1.993 . S
N154 N153 1.388 . S
N154 C155 1.346 . S
C155 N154 1.346 . S
C155 C156 1.396 . S
C155 C165 1.510 . S
C156 C152 1.401 . S
C156 C155 1.396 . S
C157 C152 1.499 . S
C157 H158 0.959 . S
C157 H159 0.960 . S
C157 H160 0.961 . S
H158 C157 0.959 . S
H159 C157 0.960 . S
H160 C157 0.961 . S
O161 Co136 1.967 . S
O161 C169 1.258 . S
O162 Co137 1.941 . S
O162 C169 1.266 . S
H163 C165 0.959 . S
H164 C165 0.961 . S
C165 C155 1.510 . S
C165 H163 0.959 . S
C165 H164 0.961 . S
C165 H166 0.960 . S
H166 C165 0.960 . S
H167 N147 0.862 . S
O168 Co136 1.920 . S
O168 C141 1.289 . S
C169 O161 1.258 . S
C169 O162 1.266 . S
Co170 O173 1.970 . S
Co170 N187 1.989 . S
Co170 O195 1.967 . S
Co170 O202 1.920 . S
Co171 O174 1.966 . S
Co171 N180 2.022 . S
Co171 N188 1.993 . S
Co171 O196 1.941 . S
C172 O173 1.258 . S
C172 O174 1.263 . S
O173 Co170 1.970 . S
O173 C172 1.258 . S
O174 Co171 1.966 . S
O174 C172 1.263 . S
C175 O176 1.235 . S
C175 O202 1.289 . S
O176 C175 1.235 . S
C177 C179 1.400 . S
C177 N180 1.351 . S
C177 C182 1.501 . S
C178 C179 1.387 . S
C178 N181 1.341 . S
C179 C177 1.400 . S
C179 C178 1.387 . S
N180 Co171 2.022 . S
N180 C177 1.351 . S
N180 N181 1.365 . S
N181 C178 1.341 . S
N181 N180 1.365 . S
N181 H201 0.862 . S
C182 C177 1.501 . S
C182 H183 0.961 . S
C182 H184 0.961 . S
C182 H185 0.960 . S
H183 C182 0.961 . S
H184 C182 0.961 . S
H185 C182 0.960 . S
C186 N187 1.342 . S
C186 C190 1.401 . S
C186 C191 1.499 . S
N187 Co170 1.989 . S
N187 C186 1.342 . S
N187 N188 1.388 . S
N188 Co171 1.993 . S
N188 N187 1.388 . S
N188 C189 1.346 . S
C189 N188 1.346 . S
C189 C190 1.396 . S
C189 C199 1.510 . S
C190 C186 1.401 . S
C190 C189 1.396 . S
C191 C186 1.499 . S
C191 H192 0.959 . S
C191 H193 0.960 . S
C191 H194 0.961 . S
H192 C191 0.959 . S
H193 C191 0.960 . S
H194 C191 0.961 . S
O195 Co170 1.967 . S
O195 C203 1.258 . S
O196 Co171 1.941 . S
O196 C203 1.266 . S
H197 C199 0.959 . S
H198 C199 0.961 . S
C199 C189 1.510 . S
C199 H197 0.959 . S
C199 H198 0.961 . S
C199 H200 0.960 . S
H200 C199 0.960 . S
H201 N181 0.862 . S
O202 Co170 1.920 . S
O202 C175 1.289 . S
C203 O195 1.258 . S
C203 O196 1.266 . S
Co204 O207 1.970 . S
Co204 N221 1.989 . S
Co204 O229 1.967 . S
Co204 O236 1.920 . S
Co205 O208 1.966 . S
Co205 N214 2.022 . S
Co205 N222 1.993 . S
Co205 O230 1.941 . S
C206 O207 1.258 . S
C206 O208 1.263 . S
O207 Co204 1.970 . S
O207 C206 1.258 . S
O208 Co205 1.966 . S
O208 C206 1.263 . S
C209 O210 1.235 . S
C209 O236 1.289 . S
O210 C209 1.235 . S
C211 C213 1.400 . S
C211 N214 1.351 . S
C211 C216 1.501 . S
C212 C213 1.387 . S
C212 N215 1.341 . S
C213 C211 1.400 . S
C213 C212 1.387 . S
N214 Co205 2.022 . S
N214 C211 1.351 . S
N214 N215 1.365 . S
N215 C212 1.341 . S
N215 N214 1.365 . S
N215 H235 0.862 . S
C216 C211 1.501 . S
C216 H217 0.961 . S
C216 H218 0.961 . S
C216 H219 0.960 . S
H217 C216 0.961 . S
H218 C216 0.961 . S
H219 C216 0.960 . S
C220 N221 1.342 . S
C220 C224 1.401 . S
C220 C225 1.499 . S
N221 Co204 1.989 . S
N221 C220 1.342 . S
N221 N222 1.388 . S
N222 Co205 1.993 . S
N222 N221 1.388 . S
N222 C223 1.346 . S
C223 N222 1.346 . S
C223 C224 1.396 . S
C223 C233 1.510 . S
C224 C220 1.401 . S
C224 C223 1.396 . S
C225 C220 1.499 . S
C225 H226 0.959 . S
C225 H227 0.960 . S
C225 H228 0.961 . S
H226 C225 0.959 . S
H227 C225 0.960 . S
H228 C225 0.961 . S
O229 Co204 1.967 . S
O229 C237 1.258 . S
O230 Co205 1.941 . S
O230 C237 1.266 . S
H231 C233 0.959 . S
H232 C233 0.961 . S
C233 C223 1.510 . S
C233 H231 0.959 . S
C233 H232 0.961 . S
C233 H234 0.960 . S
H234 C233 0.960 . S
H235 N215 0.862 . S
O236 Co204 1.920 . S
O236 C209 1.289 . S
C237 O229 1.258 . S
C237 O230 1.266 . S
Co238 O241 1.970 . S
Co238 N255 1.989 . S
Co238 O263 1.967 . S
Co238 O270 1.920 . S
Co239 O242 1.966 . S
Co239 N248 2.022 . S
Co239 N256 1.993 . S
Co239 O264 1.941 . S
C240 O241 1.258 . S
C240 O242 1.263 . S
O241 Co238 1.970 . S
O241 C240 1.258 . S
O242 Co239 1.966 . S
O242 C240 1.263 . S
C243 O244 1.235 . S
C243 O270 1.289 . S
O244 C243 1.235 . S
C245 C247 1.400 . S
C245 N248 1.351 . S
C245 C250 1.501 . S
C246 C247 1.387 . S
C246 N249 1.341 . S
C247 C245 1.400 . S
C247 C246 1.387 . S
N248 Co239 2.022 . S
N248 C245 1.351 . S
N248 N249 1.365 . S
N249 C246 1.341 . S
N249 N248 1.365 . S
N249 H269 0.862 . S
C250 C245 1.501 . S
C250 H251 0.961 . S
C250 H252 0.961 . S
C250 H253 0.960 . S
H251 C250 0.961 . S
H252 C250 0.961 . S
H253 C250 0.960 . S
C254 N255 1.342 . S
C254 C258 1.401 . S
C254 C259 1.499 . S
N255 Co238 1.989 . S
N255 C254 1.342 . S
N255 N256 1.388 . S
N256 Co239 1.993 . S
N256 N255 1.388 . S
N256 C257 1.346 . S
C257 N256 1.346 . S
C257 C258 1.396 . S
C257 C267 1.510 . S
C258 C254 1.401 . S
C258 C257 1.396 . S
C259 C254 1.499 . S
C259 H260 0.959 . S
C259 H261 0.960 . S
C259 H262 0.961 . S
H260 C259 0.959 . S
H261 C259 0.960 . S
H262 C259 0.961 . S
O263 Co238 1.967 . S
O263 C271 1.258 . S
O264 Co239 1.941 . S
O264 C271 1.266 . S
H265 C267 0.959 . S
H266 C267 0.961 . S
C267 C257 1.510 . S
C267 H265 0.959 . S
C267 H266 0.961 . S
C267 H268 0.960 . S
H268 C267 0.960 . S
H269 N249 0.862 . S
O270 Co238 1.920 . S
O270 C243 1.289 . S
C271 O263 1.258 . S
C271 O264 1.266 . S
Co272 O275 1.970 . S
Co272 N289 1.989 . S
Co272 O297 1.967 . S
Co272 O304 1.920 . S
Co273 O276 1.966 . S
Co273 N282 2.022 . S
Co273 N290 1.993 . S
Co273 O298 1.941 . S
C274 O275 1.258 . S
C274 O276 1.263 . S
O275 Co272 1.970 . S
O275 C274 1.258 . S
O276 Co273 1.966 . S
O276 C274 1.263 . S
C277 O278 1.235 . S
C277 O304 1.289 . S
O278 C277 1.235 . S
C279 C281 1.400 . S
C279 N282 1.351 . S
C279 C284 1.501 . S
C280 C281 1.387 . S
C280 N283 1.341 . S
C281 C279 1.400 . S
C281 C280 1.387 . S
N282 Co273 2.022 . S
N282 C279 1.351 . S
N282 N283 1.365 . S
N283 C280 1.341 . S
N283 N282 1.365 . S
N283 H303 0.862 . S
C284 C279 1.501 . S
C284 H285 0.961 . S
C284 H286 0.961 . S
C284 H287 0.960 . S
H285 C284 0.961 . S
H286 C284 0.961 . S
H287 C284 0.960 . S
C288 N289 1.342 . S
C288 C292 1.401 . S
C288 C293 1.499 . S
N289 Co272 1.989 . S
N289 C288 1.342 . S
N289 N290 1.388 . S
N290 Co273 1.993 . S
N290 N289 1.388 . S
N290 C291 1.346 . S
C291 N290 1.346 . S
C291 C292 1.396 . S
C291 C301 1.510 . S
C292 C288 1.401 . S
C292 C291 1.396 . S
C293 C288 1.499 . S
C293 H294 0.959 . S
C293 H295 0.960 . S
C293 H296 0.961 . S
H294 C293 0.959 . S
H295 C293 0.960 . S
H296 C293 0.961 . S
O297 Co272 1.967 . S
O297 C305 1.258 . S
O298 Co273 1.941 . S
O298 C305 1.266 . S
H299 C301 0.959 . S
H300 C301 0.961 . S
C301 C291 1.510 . S
C301 H299 0.959 . S
C301 H300 0.961 . S
C301 H302 0.960 . S
H302 C301 0.960 . S
H303 N283 0.862 . S
O304 Co272 1.920 . S
O304 C277 1.289 . S
C305 O297 1.258 . S
C305 O298 1.266 . S
Co306 O309 1.970 . S
Co306 N323 1.989 . S
Co306 O331 1.967 . S
Co306 O338 1.920 . S
Co307 O310 1.966 . S
Co307 N316 2.022 . S
Co307 N324 1.993 . S
Co307 O332 1.941 . S
C308 O309 1.258 . S
C308 O310 1.263 . S
O309 Co306 1.970 . S
O309 C308 1.258 . S
O310 Co307 1.966 . S
O310 C308 1.263 . S
C311 O312 1.235 . S
C311 O338 1.289 . S
O312 C311 1.235 . S
C313 C315 1.400 . S
C313 N316 1.351 . S
C313 C318 1.501 . S
C314 C315 1.387 . S
C314 N317 1.341 . S
C315 C313 1.400 . S
C315 C314 1.387 . S
N316 Co307 2.022 . S
N316 C313 1.351 . S
N316 N317 1.365 . S
N317 C314 1.341 . S
N317 N316 1.365 . S
N317 H337 0.862 . S
C318 C313 1.501 . S
C318 H319 0.961 . S
C318 H320 0.961 . S
C318 H321 0.960 . S
H319 C318 0.961 . S
H320 C318 0.961 . S
H321 C318 0.960 . S
C322 N323 1.342 . S
C322 C326 1.401 . S
C322 C327 1.499 . S
N323 Co306 1.989 . S
N323 C322 1.342 . S
N323 N324 1.388 . S
N324 Co307 1.993 . S
N324 N323 1.388 . S
N324 C325 1.346 . S
C325 N324 1.346 . S
C325 C326 1.396 . S
C325 C335 1.510 . S
C326 C322 1.401 . S
C326 C325 1.396 . S
C327 C322 1.499 . S
C327 H328 0.959 . S
C327 H329 0.960 . S
C327 H330 0.961 . S
H328 C327 0.959 . S
H329 C327 0.960 . S
H330 C327 0.961 . S
O331 Co306 1.967 . S
O331 C339 1.258 . S
O332 Co307 1.941 . S
O332 C339 1.266 . S
H333 C335 0.959 . S
H334 C335 0.961 . S
C335 C325 1.510 . S
C335 H333 0.959 . S
C335 H334 0.961 . S
C335 H336 0.960 . S
H336 C335 0.960 . S
H337 N317 0.862 . S
O338 Co306 1.920 . S
O338 C311 1.289 . S
C339 O331 1.258 . S
C339 O332 1.266 . S
Co340 O343 1.970 . S
Co340 N357 1.989 . S
Co340 O365 1.967 . S
Co340 O372 1.920 . S
Co341 O344 1.966 . S
Co341 N350 2.022 . S
Co341 N358 1.993 . S
Co341 O366 1.941 . S
C342 O343 1.258 . S
C342 O344 1.263 . S
O343 Co340 1.970 . S
O343 C342 1.258 . S
O344 Co341 1.966 . S
O344 C342 1.263 . S
C345 O346 1.235 . S
C345 O372 1.289 . S
O346 C345 1.235 . S
C347 C349 1.400 . S
C347 N350 1.351 . S
C347 C352 1.501 . S
C348 C349 1.387 . S
C348 N351 1.341 . S
C349 C347 1.400 . S
C349 C348 1.387 . S
N350 Co341 2.022 . S
N350 C347 1.351 . S
N350 N351 1.365 . S
N351 C348 1.341 . S
N351 N350 1.365 . S
N351 H371 0.862 . S
C352 C347 1.501 . S
C352 H353 0.961 . S
C352 H354 0.961 . S
C352 H355 0.960 . S
H353 C352 0.961 . S
H354 C352 0.961 . S
H355 C352 0.960 . S
C356 N357 1.342 . S
C356 C360 1.401 . S
C356 C361 1.499 . S
N357 Co340 1.989 . S
N357 C356 1.342 . S
N357 N358 1.388 . S
N358 Co341 1.993 . S
N358 N357 1.388 . S
N358 C359 1.346 . S
C359 N358 1.346 . S
C359 C360 1.396 . S
C359 C369 1.510 . S
C360 C356 1.401 . S
C360 C359 1.396 . S
C361 C356 1.499 . S
C361 H362 0.959 . S
C361 H363 0.960 . S
C361 H364 0.961 . S
H362 C361 0.959 . S
H363 C361 0.960 . S
H364 C361 0.961 . S
O365 Co340 1.967 . S
O365 C373 1.258 . S
O366 Co341 1.941 . S
O366 C373 1.266 . S
H367 C369 0.959 . S
H368 C369 0.961 . S
C369 C359 1.510 . S
C369 H367 0.959 . S
C369 H368 0.961 . S
C369 H370 0.960 . S
H370 C369 0.960 . S
H371 N351 0.862 . S
O372 Co340 1.920 . S
O372 C345 1.289 . S
C373 O365 1.258 . S
C373 O366 1.266 . S
Co374 O377 1.970 . S
Co374 N391 1.989 . S
Co374 O399 1.967 . S
Co374 O406 1.920 . S
Co375 O378 1.966 . S
Co375 N384 2.022 . S
Co375 N392 1.993 . S
Co375 O400 1.941 . S
C376 O377 1.258 . S
C376 O378 1.263 . S
O377 Co374 1.970 . S
O377 C376 1.258 . S
O378 Co375 1.966 . S
O378 C376 1.263 . S
C379 O380 1.235 . S
C379 O406 1.289 . S
O380 C379 1.235 . S
C381 C383 1.400 . S
C381 N384 1.351 . S
C381 C386 1.501 . S
C382 C383 1.387 . S
C382 N385 1.341 . S
C383 C381 1.400 . S
C383 C382 1.387 . S
N384 Co375 2.022 . S
N384 C381 1.351 . S
N384 N385 1.365 . S
N385 C382 1.341 . S
N385 N384 1.365 . S
N385 H405 0.862 . S
C386 C381 1.501 . S
C386 H387 0.961 . S
C386 H388 0.961 . S
C386 H389 0.960 . S
H387 C386 0.961 . S
H388 C386 0.961 . S
H389 C386 0.960 . S
C390 N391 1.342 . S
C390 C394 1.401 . S
C390 C395 1.499 . S
N391 Co374 1.989 . S
N391 C390 1.342 . S
N391 N392 1.388 . S
N392 Co375 1.993 . S
N392 N391 1.388 . S
N392 C393 1.346 . S
C393 N392 1.346 . S
C393 C394 1.396 . S
C393 C403 1.510 . S
C394 C390 1.401 . S
C394 C393 1.396 . S
C395 C390 1.499 . S
C395 H396 0.959 . S
C395 H397 0.960 . S
C395 H398 0.961 . S
H396 C395 0.959 . S
H397 C395 0.960 . S
H398 C395 0.961 . S
O399 Co374 1.967 . S
O399 C407 1.258 . S
O400 Co375 1.941 . S
O400 C407 1.266 . S
H401 C403 0.959 . S
H402 C403 0.961 . S
C403 C393 1.510 . S
C403 H401 0.959 . S
C403 H402 0.961 . S
C403 H404 0.960 . S
H404 C403 0.960 . S
H405 N385 0.862 . S
O406 Co374 1.920 . S
O406 C379 1.289 . S
C407 O399 1.258 . S
C407 O400 1.266 . S
Co408 O411 1.970 . S
Co408 N425 1.989 . S
Co408 O433 1.967 . S
Co408 O440 1.920 . S
Co409 O412 1.966 . S
Co409 N418 2.022 . S
Co409 N426 1.993 . S
Co409 O434 1.941 . S
C410 O411 1.258 . S
C410 O412 1.263 . S
O411 Co408 1.970 . S
O411 C410 1.258 . S
O412 Co409 1.966 . S
O412 C410 1.263 . S
C413 O414 1.235 . S
C413 O440 1.289 . S
O414 C413 1.235 . S
C415 C417 1.400 . S
C415 N418 1.351 . S
C415 C420 1.501 . S
C416 C417 1.387 . S
C416 N419 1.341 . S
C417 C415 1.400 . S
C417 C416 1.387 . S
N418 Co409 2.022 . S
N418 C415 1.351 . S
N418 N419 1.365 . S
N419 C416 1.341 . S
N419 N418 1.365 . S
N419 H439 0.862 . S
C420 C415 1.501 . S
C420 H421 0.961 . S
C420 H422 0.961 . S
C420 H423 0.960 . S
H421 C420 0.961 . S
H422 C420 0.961 . S
H423 C420 0.960 . S
C424 N425 1.342 . S
C424 C428 1.401 . S
C424 C429 1.499 . S
N425 Co408 1.989 . S
N425 C424 1.342 . S
N425 N426 1.388 . S
N426 Co409 1.993 . S
N426 N425 1.388 . S
N426 C427 1.346 . S
C427 N426 1.346 . S
C427 C428 1.396 . S
C427 C437 1.510 . S
C428 C424 1.401 . S
C428 C427 1.396 . S
C429 C424 1.499 . S
C429 H430 0.959 . S
C429 H431 0.960 . S
C429 H432 0.961 . S
H430 C429 0.959 . S
H431 C429 0.960 . S
H432 C429 0.961 . S
O433 Co408 1.967 . S
O433 C441 1.258 . S
O434 Co409 1.941 . S
O434 C441 1.266 . S
H435 C437 0.959 . S
H436 C437 0.961 . S
C437 C427 1.510 . S
C437 H435 0.959 . S
C437 H436 0.961 . S
C437 H438 0.960 . S
H438 C437 0.960 . S
H439 N419 0.862 . S
O440 Co408 1.920 . S
O440 C413 1.289 . S
C441 O433 1.258 . S
C441 O434 1.266 . S
Co442 O445 1.970 . S
Co442 N459 1.989 . S
Co442 O467 1.967 . S
Co442 O474 1.920 . S
Co443 O446 1.966 . S
Co443 N452 2.022 . S
Co443 N460 1.993 . S
Co443 O468 1.941 . S
C444 O445 1.258 . S
C444 O446 1.263 . S
O445 Co442 1.970 . S
O445 C444 1.258 . S
O446 Co443 1.966 . S
O446 C444 1.263 . S
C447 O448 1.235 . S
C447 O474 1.289 . S
O448 C447 1.235 . S
C449 C451 1.400 . S
C449 N452 1.351 . S
C449 C454 1.501 . S
C450 C451 1.387 . S
C450 N453 1.341 . S
C451 C449 1.400 . S
C451 C450 1.387 . S
N452 Co443 2.022 . S
N452 C449 1.351 . S
N452 N453 1.365 . S
N453 C450 1.341 . S
N453 N452 1.365 . S
N453 H473 0.862 . S
C454 C449 1.501 . S
C454 H455 0.961 . S
C454 H456 0.961 . S
C454 H457 0.960 . S
H455 C454 0.961 . S
H456 C454 0.961 . S
H457 C454 0.960 . S
C458 N459 1.342 . S
C458 C462 1.401 . S
C458 C463 1.499 . S
N459 Co442 1.989 . S
N459 C458 1.342 . S
N459 N460 1.388 . S
N460 Co443 1.993 . S
N460 N459 1.388 . S
N460 C461 1.346 . S
C461 N460 1.346 . S
C461 C462 1.396 . S
C461 C471 1.510 . S
C462 C458 1.401 . S
C462 C461 1.396 . S
C463 C458 1.499 . S
C463 H464 0.959 . S
C463 H465 0.960 . S
C463 H466 0.961 . S
H464 C463 0.959 . S
H465 C463 0.960 . S
H466 C463 0.961 . S
O467 Co442 1.967 . S
O467 C475 1.258 . S
O468 Co443 1.941 . S
O468 C475 1.266 . S
H469 C471 0.959 . S
H470 C471 0.961 . S
C471 C461 1.510 . S
C471 H469 0.959 . S
C471 H470 0.961 . S
C471 H472 0.960 . S
H472 C471 0.960 . S
H473 N453 0.862 . S
O474 Co442 1.920 . S
O474 C447 1.289 . S
C475 O467 1.258 . S
C475 O468 1.266 . S
Co476 O479 1.970 . S
Co476 N493 1.989 . S
Co476 O501 1.967 . S
Co476 O508 1.920 . S
Co477 O480 1.966 . S
Co477 N486 2.022 . S
Co477 N494 1.993 . S
Co477 O502 1.941 . S
C478 O479 1.258 . S
C478 O480 1.263 . S
O479 Co476 1.970 . S
O479 C478 1.258 . S
O480 Co477 1.966 . S
O480 C478 1.263 . S
C481 O482 1.235 . S
C481 O508 1.289 . S
O482 C481 1.235 . S
C483 C485 1.400 . S
C483 N486 1.351 . S
C483 C488 1.501 . S
C484 C485 1.387 . S
C484 N487 1.341 . S
C485 C483 1.400 . S
C485 C484 1.387 . S
N486 Co477 2.022 . S
N486 C483 1.351 . S
N486 N487 1.365 . S
N487 C484 1.341 . S
N487 N486 1.365 . S
N487 H507 0.862 . S
C488 C483 1.501 . S
C488 H489 0.961 . S
C488 H490 0.961 . S
C488 H491 0.960 . S
H489 C488 0.961 . S
H490 C488 0.961 . S
H491 C488 0.960 . S
C492 N493 1.342 . S
C492 C496 1.401 . S
C492 C497 1.499 . S
N493 Co476 1.989 . S
N493 C492 1.342 . S
N493 N494 1.388 . S
N494 Co477 1.993 . S
N494 N493 1.388 . S
N494 C495 1.346 . S
C495 N494 1.346 . S
C495 C496 1.396 . S
C495 C505 1.510 . S
C496 C492 1.401 . S
C496 C495 1.396 . S
C497 C492 1.499 . S
C497 H498 0.959 . S
C497 H499 0.960 . S
C497 H500 0.961 . S
H498 C497 0.959 . S
H499 C497 0.960 . S
H500 C497 0.961 . S
O501 Co476 1.967 . S
O501 C509 1.258 . S
O502 Co477 1.941 . S
O502 C509 1.266 . S
H503 C505 0.959 . S
H504 C505 0.961 . S
C505 C495 1.510 . S
C505 H503 0.959 . S
C505 H504 0.961 . S
C505 H506 0.960 . S
H506 C505 0.960 . S
H507 N487 0.862 . S
O508 Co476 1.920 . S
O508 C481 1.289 . S
C509 O501 1.258 . S
C509 O502 1.266 . S
Co510 O513 1.970 . S
Co510 N527 1.989 . S
Co510 O535 1.967 . S
Co510 O542 1.920 . S
Co511 O514 1.966 . S
Co511 N520 2.022 . S
Co511 N528 1.993 . S
Co511 O536 1.941 . S
C512 O513 1.258 . S
C512 O514 1.263 . S
O513 Co510 1.970 . S
O513 C512 1.258 . S
O514 Co511 1.966 . S
O514 C512 1.263 . S
C515 O516 1.235 . S
C515 O542 1.289 . S
O516 C515 1.235 . S
C517 C519 1.400 . S
C517 N520 1.351 . S
C517 C522 1.501 . S
C518 C519 1.387 . S
C518 N521 1.341 . S
C519 C517 1.400 . S
C519 C518 1.387 . S
N520 Co511 2.022 . S
N520 C517 1.351 . S
N520 N521 1.365 . S
N521 C518 1.341 . S
N521 N520 1.365 . S
N521 H541 0.862 . S
C522 C517 1.501 . S
C522 H523 0.961 . S
C522 H524 0.961 . S
C522 H525 0.960 . S
H523 C522 0.961 . S
H524 C522 0.961 . S
H525 C522 0.960 . S
C526 N527 1.342 . S
C526 C530 1.401 . S
C526 C531 1.499 . S
N527 Co510 1.989 . S
N527 C526 1.342 . S
N527 N528 1.388 . S
N528 Co511 1.993 . S
N528 N527 1.388 . S
N528 C529 1.346 . S
C529 N528 1.346 . S
C529 C530 1.396 . S
C529 C539 1.510 . S
C530 C526 1.401 . S
C530 C529 1.396 . S
C531 C526 1.499 . S
C531 H532 0.959 . S
C531 H533 0.960 . S
C531 H534 0.961 . S
H532 C531 0.959 . S
H533 C531 0.960 . S
H534 C531 0.961 . S
O535 Co510 1.967 . S
O535 C543 1.258 . S
O536 Co511 1.941 . S
O536 C543 1.266 . S
H537 C539 0.959 . S
H538 C539 0.961 . S
C539 C529 1.510 . S
C539 H537 0.959 . S
C539 H538 0.961 . S
C539 H540 0.960 . S
H540 C539 0.960 . S
H541 N521 0.862 . S
O542 Co510 1.920 . S
O542 C515 1.289 . S
C543 O535 1.258 . S
C543 O536 1.266 . S
H544 C552 0.929 . S
H545 C554 0.930 . S
H546 C556 0.930 . S
H547 C559 0.929 . S
H548 C562 0.930 . S
H549 C564 0.960 . S
H550 C564 0.960 . S
H551 C564 0.960 . S
C552 H544 0.929 . S
C552 C553 1.377 . S
C552 C554 1.384 . S
C553 C552 1.377 . S
C553 C559 1.390 . S
C554 H545 0.930 . S
C554 C552 1.384 . S
C554 C555 1.372 . S
C555 C554 1.372 . S
C555 C556 1.400 . S
C555 C560 1.490 . S
C556 H546 0.930 . S
C556 C555 1.400 . S
C556 C559 1.386 . S
H557 C573 0.930 . S
H558 C574 0.931 . S
C559 H547 0.929 . S
C559 C553 1.390 . S
C559 C556 1.386 . S
C560 C555 1.490 . S
C560 C562 1.395 . S
C560 C563 1.403 1_556 S
H561 C567 0.930 . S
C562 H548 0.930 . S
C562 C560 1.395 . S
C562 C565 1.403 . S
C563 C560 1.403 1_554 S
C563 C564 1.524 . S
C563 C567 1.400 . S
C564 H549 0.960 . S
C564 H550 0.960 . S
C564 H551 0.960 . S
C564 C563 1.524 . S
C565 C562 1.403 . S
C565 C566 1.392 1_556 S
C565 C569 1.495 . S
C566 C565 1.392 1_554 S
C566 C567 1.385 . S
C566 C568 1.478 . S
C567 H561 0.930 . S
C567 C563 1.400 . S
C567 C566 1.385 . S
C568 C566 1.478 . S
C568 C570 1.381 . S
C568 C574 1.383 . S
C569 C565 1.495 . S
C569 H575 0.959 . S
C569 H576 0.961 . S
C569 H577 0.960 . S
C570 C568 1.381 . S
C570 C571 1.394 . S
C570 H578 0.930 . S
C571 C570 1.394 . S
C571 C572 1.383 . S
C571 H579 0.929 . S
C572 C571 1.383 . S
C572 C573 1.377 . S
C573 H557 0.930 . S
C573 C572 1.377 . S
C573 C574 1.379 . S
C574 H558 0.931 . S
C574 C568 1.383 . S
C574 C573 1.379 . S
H575 C569 0.959 . S
H576 C569 0.961 . S
H577 C569 0.960 . S
H578 C570 0.930 . S
H579 C571 0.929 . S
H580 C588 0.929 . S
H581 C590 0.930 . S
H582 C592 0.930 . S
H583 C595 0.929 . S
H584 C598 0.930 . S
H585 C600 0.960 . S
H586 C600 0.960 . S
H587 C600 0.960 . S
C588 H580 0.929 . S
C588 C589 1.377 . S
C588 C590 1.384 1_655 S
C589 C588 1.377 . S
C589 C595 1.390 1_655 S
C590 H581 0.930 . S
C590 C588 1.384 1_455 S
C590 C591 1.372 . S
C591 C590 1.372 . S
C591 C592 1.400 . S
C591 C596 1.490 . S
C592 H582 0.930 . S
C592 C591 1.400 . S
C592 C595 1.386 . S
H593 C609 0.930 . S
H594 C610 0.931 . S
C595 H583 0.929 . S
C595 C589 1.390 1_455 S
C595 C592 1.386 . S
C596 C591 1.490 . S
C596 C598 1.395 1_556 S
C596 C599 1.403 . S
H597 C603 0.930 . S
C598 H584 0.930 . S
C598 C596 1.395 1_554 S
C598 C601 1.403 . S
C599 C596 1.403 . S
C599 C600 1.524 . S
C599 C603 1.400 . S
C600 H585 0.960 . S
C600 H586 0.960 . S
C600 H587 0.960 . S
C600 C599 1.524 . S
C601 C598 1.403 . S
C601 C602 1.392 . S
C601 C605 1.495 . S
C602 C601 1.392 . S
C602 C603 1.385 1_554 S
C602 C604 1.478 . S
C603 H597 0.930 . S
C603 C599 1.400 . S
C603 C602 1.385 1_556 S
C604 C602 1.478 . S
C604 C606 1.381 . S
C604 C610 1.383 . S
C605 C601 1.495 . S
C605 H611 0.959 . S
C605 H612 0.961 . S
C605 H613 0.960 . S
C606 C604 1.381 . S
C606 C607 1.394 . S
C606 H614 0.930 . S
C607 C606 1.394 . S
C607 C608 1.383 . S
C607 H615 0.929 . S
C608 C607 1.383 . S
C608 C609 1.377 . S
C609 H593 0.930 . S
C609 C608 1.377 . S
C609 C610 1.379 . S
C610 H594 0.931 . S
C610 C604 1.383 . S
C610 C609 1.379 . S
H611 C605 0.959 . S
H612 C605 0.961 . S
H613 C605 0.960 . S
H614 C606 0.930 . S
H615 C607 0.929 . S
H616 C624 0.929 . S
H617 C626 0.930 . S
H618 C628 0.930 . S
H619 C631 0.929 . S
H620 C634 0.930 . S
H621 C636 0.960 . S
H622 C636 0.960 . S
H623 C636 0.960 . S
C624 H616 0.929 . S
C624 C625 1.377 . S
C624 C626 1.384 . S
C625 C624 1.377 . S
C625 C631 1.390 . S
C626 H617 0.930 . S
C626 C624 1.384 . S
C626 C627 1.372 . S
C627 C626 1.372 . S
C627 C628 1.400 . S
C627 C632 1.490 . S
C628 H618 0.930 . S
C628 C627 1.400 . S
C628 C631 1.386 . S
H629 C645 0.930 . S
H630 C646 0.931 . S
C631 H619 0.929 . S
C631 C625 1.390 . S
C631 C628 1.386 . S
C632 C627 1.490 . S
C632 C634 1.395 . S
C632 C635 1.403 . S
H633 C639 0.930 . S
C634 H620 0.930 . S
C634 C632 1.395 . S
C634 C637 1.403 . S
C635 C632 1.403 . S
C635 C636 1.524 . S
C635 C639 1.400 . S
C636 H621 0.960 . S
C636 H622 0.960 . S
C636 H623 0.960 . S
C636 C635 1.524 . S
C637 C634 1.403 . S
C637 C638 1.392 . S
C637 C641 1.495 . S
C638 C637 1.392 . S
C638 C639 1.385 . S
C638 C640 1.478 . S
C639 H633 0.930 . S
C639 C635 1.400 . S
C639 C638 1.385 . S
C640 C638 1.478 . S
C640 C642 1.381 . S
C640 C646 1.383 . S
C641 C637 1.495 . S
C641 H647 0.959 . S
C641 H648 0.961 . S
C641 H649 0.960 . S
C642 C640 1.381 . S
C642 C643 1.394 1_655 S
C642 H650 0.930 . S
C643 C642 1.394 1_455 S
C643 C644 1.383 . S
C643 H651 0.929 . S
C644 C643 1.383 . S
C644 C645 1.377 1_455 S
C645 H629 0.930 . S
C645 C644 1.377 1_655 S
C645 C646 1.379 . S
C646 H630 0.931 . S
C646 C640 1.383 . S
C646 C645 1.379 . S
H647 C641 0.959 . S
H648 C641 0.961 . S
H649 C641 0.960 . S
H650 C642 0.930 . S
H651 C643 0.929 . S
H652 C660 0.929 . S
H653 C662 0.930 . S
H654 C664 0.930 . S
H655 C667 0.929 . S
H656 C670 0.930 . S
H657 C672 0.960 . S
H658 C672 0.960 . S
H659 C672 0.960 . S
C660 H652 0.929 . S
C660 C661 1.377 . S
C660 C662 1.384 . S
C661 C660 1.377 . S
C661 C667 1.390 . S
C662 H653 0.930 . S
C662 C660 1.384 . S
C662 C663 1.372 . S
C663 C662 1.372 . S
C663 C664 1.400 . S
C663 C668 1.490 . S
C664 H654 0.930 . S
C664 C663 1.400 . S
C664 C667 1.386 . S
H665 C681 0.930 . S
H666 C682 0.931 . S
C667 H655 0.929 . S
C667 C661 1.390 . S
C667 C664 1.386 . S
C668 C663 1.490 . S
C668 C670 1.395 . S
C668 C671 1.403 . S
H669 C675 0.930 . S
C670 H656 0.930 . S
C670 C668 1.395 . S
C670 C673 1.403 . S
C671 C668 1.403 . S
C671 C672 1.524 . S
C671 C675 1.400 . S
C672 H657 0.960 . S
C672 H658 0.960 . S
C672 H659 0.960 . S
C672 C671 1.524 . S
C673 C670 1.403 . S
C673 C674 1.392 . S
C673 C677 1.495 . S
C674 C673 1.392 . S
C674 C675 1.385 . S
C674 C676 1.478 . S
C675 H669 0.930 . S
C675 C671 1.400 . S
C675 C674 1.385 . S
C676 C674 1.478 . S
C676 C678 1.381 . S
C676 C682 1.383 . S
C677 C673 1.495 . S
C677 H683 0.959 . S
C677 H684 0.961 . S
C677 H685 0.960 . S
C678 C676 1.381 . S
C678 C679 1.394 . S
C678 H686 0.930 . S
C679 C678 1.394 . S
C679 C680 1.383 . S
C679 H687 0.929 . S
C680 C679 1.383 . S
C680 C681 1.377 . S
C681 H665 0.930 . S
C681 C680 1.377 . S
C681 C682 1.379 . S
C682 H666 0.931 . S
C682 C676 1.383 . S
C682 C681 1.379 . S
H683 C677 0.959 . S
H684 C677 0.961 . S
H685 C677 0.960 . S
H686 C678 0.930 . S
H687 C679 0.929 . S
H688 C696 0.929 . S
H689 C698 0.930 . S
H690 C700 0.930 . S
H691 C703 0.929 . S
H692 C706 0.930 . S
H693 C708 0.960 . S
H694 C708 0.960 . S
H695 C708 0.960 . S
C696 H688 0.929 . S
C696 C697 1.377 . S
C696 C698 1.384 . S
C697 C696 1.377 . S
C697 C703 1.390 . S
C698 H689 0.930 . S
C698 C696 1.384 . S
C698 C699 1.372 . S
C699 C698 1.372 . S
C699 C700 1.400 . S
C699 C704 1.490 . S
C700 H690 0.930 . S
C700 C699 1.400 . S
C700 C703 1.386 . S
H701 C717 0.930 . S
H702 C718 0.931 . S
C703 H691 0.929 . S
C703 C697 1.390 . S
C703 C700 1.386 . S
C704 C699 1.490 . S
C704 C706 1.395 . S
C704 C707 1.403 1_556 S
H705 C711 0.930 . S
C706 H692 0.930 . S
C706 C704 1.395 . S
C706 C709 1.403 . S
C707 C704 1.403 1_554 S
C707 C708 1.524 . S
C707 C711 1.400 . S
C708 H693 0.960 . S
C708 H694 0.960 . S
C708 H695 0.960 . S
C708 C707 1.524 . S
C709 C706 1.403 . S
C709 C710 1.392 1_556 S
C709 C713 1.495 . S
C710 C709 1.392 1_554 S
C710 C711 1.385 . S
C710 C712 1.478 . S
C711 H705 0.930 . S
C711 C707 1.400 . S
C711 C710 1.385 . S
C712 C710 1.478 . S
C712 C714 1.381 . S
C712 C718 1.383 . S
C713 C709 1.495 . S
C713 H719 0.959 . S
C713 H720 0.961 . S
C713 H721 0.960 . S
C714 C712 1.381 . S
C714 C715 1.394 . S
C714 H722 0.930 . S
C715 C714 1.394 . S
C715 C716 1.383 . S
C715 H723 0.929 . S
C716 C715 1.383 . S
C716 C717 1.377 . S
C717 H701 0.930 . S
C717 C716 1.377 . S
C717 C718 1.379 . S
C718 H702 0.931 . S
C718 C712 1.383 . S
C718 C717 1.379 . S
H719 C713 0.959 . S
H720 C713 0.961 . S
H721 C713 0.960 . S
H722 C714 0.930 . S
H723 C715 0.929 . S
H724 C732 0.929 . S
H725 C734 0.930 . S
H726 C736 0.930 . S
H727 C739 0.929 . S
H728 C742 0.930 . S
H729 C744 0.960 . S
H730 C744 0.960 . S
H731 C744 0.960 . S
C732 H724 0.929 . S
C732 C733 1.377 . S
C732 C734 1.384 . S
C733 C732 1.377 . S
C733 C739 1.390 . S
C734 H725 0.930 . S
C734 C732 1.384 . S
C734 C735 1.372 . S
C735 C734 1.372 . S
C735 C736 1.400 . S
C735 C740 1.490 . S
C736 H726 0.930 . S
C736 C735 1.400 . S
C736 C739 1.386 . S
H737 C753 0.930 1_455 S
H738 C754 0.931 . S
C739 H727 0.929 . S
C739 C733 1.390 . S
C739 C736 1.386 . S
C740 C735 1.490 . S
C740 C742 1.395 1_556 S
C740 C743 1.403 . S
H741 C747 0.920 1_556 S
C742 H728 0.930 . S
C742 C740 1.395 1_554 S
C742 C745 1.403 . S
C743 C740 1.403 . S
C743 C744 1.524 . S
C743 C747 1.377 1_556 S
C744 H729 0.960 . S
C744 H730 0.960 . S
C744 H731 0.960 . S
C744 C743 1.524 . S
C745 C742 1.403 . S
C745 C746 1.392 . S
C745 C749 1.495 . S
C746 C745 1.392 . S
C746 C747 1.418 . S
C746 C748 1.478 . S
C747 H741 0.920 1_554 S
C747 C743 1.377 1_554 S
C747 C746 1.418 . S
C748 C746 1.478 . S
C748 C750 1.381 . S
C748 C754 1.383 . S
C749 C745 1.495 . S
C749 H755 0.959 . S
C749 H756 0.961 . S
C749 H757 0.960 . S
C750 C748 1.381 . S
C750 C751 1.394 . S
C750 H758 0.930 . S
C751 C750 1.394 . S
C751 C752 1.375 1_655 S
C751 H759 0.929 . S
C752 C751 1.375 1_455 S
C752 C753 1.375 1_455 S
C753 H737 0.930 1_655 S
C753 C752 1.375 1_655 S
C753 C754 1.379 . S
C754 H738 0.931 . S
C754 C748 1.383 . S
C754 C753 1.379 . S
H755 C749 0.959 . S
H756 C749 0.961 . S
H757 C749 0.960 . S
H758 C750 0.930 . S
H759 C751 0.929 . S
H760 C768 0.929 1_655 S
H761 C770 0.930 . S
H762 C772 0.930 . S
H763 C775 0.929 . S
H764 C778 0.930 . S
H765 C780 0.960 . S
H766 C780 0.960 . S
H767 C780 0.960 . S
C768 H760 0.929 1_455 S
C768 C769 1.377 1_455 S
C768 C770 1.384 . S
C769 C768 1.377 1_655 S
C769 C775 1.390 1_655 S
C770 H761 0.930 . S
C770 C768 1.384 . S
C770 C771 1.372 . S
C771 C770 1.372 . S
C771 C772 1.400 . S
C771 C776 1.490 . S
C772 H762 0.930 . S
C772 C771 1.400 . S
C772 C775 1.386 . S
H773 C789 0.930 . S
H774 C790 0.931 . S
C775 H763 0.929 . S
C775 C769 1.390 1_455 S
C775 C772 1.386 . S
C776 C771 1.490 . S
C776 C778 1.395 . S
C776 C779 1.403 . S
H777 C783 0.930 . S
C778 H764 0.930 . S
C778 C776 1.395 . S
C778 C781 1.403 . S
C779 C776 1.403 . S
C779 C780 1.524 . S
C779 C783 1.400 . S
C780 H765 0.960 . S
C780 H766 0.960 . S
C780 H767 0.960 . S
C780 C779 1.524 . S
C781 C778 1.403 . S
C781 C782 1.392 . S
C781 C785 1.495 . S
C782 C781 1.392 . S
C782 C783 1.385 . S
C782 C784 1.478 . S
C783 H777 0.930 . S
C783 C779 1.400 . S
C783 C782 1.385 . S
C784 C782 1.478 . S
C784 C786 1.381 . S
C784 C790 1.383 . S
C785 C781 1.495 . S
C785 H791 0.959 . S
C785 H792 0.961 . S
C785 H793 0.960 . S
C786 C784 1.381 . S
C786 C787 1.394 . S
C786 H794 0.930 . S
C787 C786 1.394 . S
C787 C788 1.383 . S
C787 H795 0.929 . S
C788 C787 1.383 . S
C788 C789 1.377 . S
C789 H773 0.930 . S
C789 C788 1.377 . S
C789 C790 1.379 . S
C790 H774 0.931 . S
C790 C784 1.383 . S
C790 C789 1.379 . S
H791 C785 0.959 . S
H792 C785 0.961 . S
H793 C785 0.960 . S
H794 C786 0.930 . S
H795 C787 0.929 . S
H796 C804 0.929 . S
H797 C806 0.930 . S
H798 C808 0.930 . S
H799 C811 0.929 . S
H800 C814 0.930 . S
H801 C816 0.960 . S
H802 C816 0.960 . S
H803 C816 0.960 . S
C804 H796 0.929 . S
C804 C805 1.377 . S
C804 C806 1.384 . S
C805 C804 1.377 . S
C805 C811 1.390 . S
C806 H797 0.930 . S
C806 C804 1.384 . S
C806 C807 1.372 . S
C807 C806 1.372 . S
C807 C808 1.400 . S
C807 C812 1.490 . S
C808 H798 0.930 . S
C808 C807 1.400 . S
C808 C811 1.386 . S
H809 C825 0.930 . S
H810 C826 0.931 . S
C811 H799 0.929 . S
C811 C805 1.390 . S
C811 C808 1.386 . S
C812 C807 1.490 . S
C812 C814 1.395 . S
C812 C815 1.403 . S
H813 C819 0.930 . S
C814 H800 0.930 . S
C814 C812 1.395 . S
C814 C817 1.403 . S
C815 C812 1.403 . S
C815 C816 1.524 . S
C815 C819 1.400 . S
C816 H801 0.960 . S
C816 H802 0.960 . S
C816 H803 0.960 . S
C816 C815 1.524 . S
C817 C814 1.403 . S
C817 C818 1.392 . S
C817 C821 1.495 . S
C818 C817 1.392 . S
C818 C819 1.385 . S
C818 C820 1.478 . S
C819 H813 0.930 . S
C819 C815 1.400 . S
C819 C818 1.385 . S
C820 C818 1.478 . S
C820 C822 1.381 . S
C820 C826 1.383 . S
C821 C817 1.495 . S
C821 H827 0.959 . S
C821 H828 0.961 . S
C821 H829 0.960 . S
C822 C820 1.381 . S
C822 C823 1.394 . S
C822 H830 0.930 . S
C823 C822 1.394 . S
C823 C824 1.383 . S
C823 H831 0.929 . S
C824 C823 1.383 . S
C824 C825 1.377 . S
C825 H809 0.930 . S
C825 C824 1.377 . S
C825 C826 1.379 . S
C826 H810 0.931 . S
C826 C820 1.383 . S
C826 C825 1.379 . S
H827 C821 0.959 . S
H828 C821 0.961 . S
H829 C821 0.960 . S
H830 C822 0.930 . S
H831 C823 0.929 . S
H832 C840 0.929 . S
H833 C842 0.930 . S
H834 C844 0.930 . S
H835 C847 0.929 . S
H836 C850 0.930 . S
H837 C852 0.960 . S
H838 C852 0.960 . S
H839 C852 0.960 . S
C840 H832 0.929 . S
C840 C841 1.377 . S
C840 C842 1.384 . S
C841 C840 1.377 . S
C841 C847 1.390 . S
C842 H833 0.930 . S
C842 C840 1.384 . S
C842 C843 1.372 . S
C843 C842 1.372 . S
C843 C844 1.400 . S
C843 C848 1.490 . S
C844 H834 0.930 . S
C844 C843 1.400 . S
C844 C847 1.386 . S
H845 C861 0.930 . S
H846 C862 0.931 . S
C847 H835 0.929 . S
C847 C841 1.390 . S
C847 C844 1.386 . S
C848 C843 1.490 . S
C848 C850 1.395 1_554 S
C848 C851 1.403 . S
H849 C855 0.930 . S
C850 H836 0.930 . S
C850 C848 1.395 1_556 S
C850 C853 1.403 . S
C851 C848 1.403 . S
C851 C852 1.524 . S
C851 C855 1.400 1_554 S
C852 H837 0.960 . S
C852 H838 0.960 . S
C852 H839 0.960 . S
C852 C851 1.524 . S
C853 C850 1.403 . S
C853 C854 1.392 . S
C853 C857 1.495 . S
C854 C853 1.392 . S
C854 C855 1.385 . S
C854 C856 1.478 . S
C855 H849 0.930 . S
C855 C851 1.400 1_556 S
C855 C854 1.385 . S
C856 C854 1.478 . S
C856 C858 1.381 . S
C856 C862 1.383 . S
C857 C853 1.495 . S
C857 H863 0.959 . S
C857 H864 0.961 . S
C857 H865 0.960 . S
C858 C856 1.381 . S
C858 C859 1.394 . S
C858 H866 0.930 . S
C859 C858 1.394 . S
C859 C860 1.378 1_655 S
C859 H867 0.929 1_655 S
C860 C859 1.378 1_455 S
C860 C861 1.367 1_455 S
C861 H845 0.930 . S
C861 C860 1.367 1_655 S
C861 C862 1.379 . S
C862 H846 0.931 . S
C862 C856 1.383 . S
C862 C861 1.379 . S
H863 C857 0.959 . S
H864 C857 0.961 . S
H865 C857 0.960 . S
H866 C858 0.930 . S
H867 C859 0.929 1_455 S
H868 C876 0.929 . S
H869 C878 0.930 . S
H870 C880 0.930 . S
H871 C883 0.929 . S
H872 C886 0.930 . S
H873 C888 0.960 . S
H874 C888 0.960 . S
H875 C888 0.960 . S
C876 H868 0.929 . S
C876 C877 1.377 . S
C876 C878 1.384 . S
C877 C876 1.377 . S
C877 C883 1.390 . S
C878 H869 0.930 . S
C878 C876 1.384 . S
C878 C879 1.372 . S
C879 C878 1.372 . S
C879 C880 1.400 . S
C879 C884 1.490 . S
C880 H870 0.930 . S
C880 C879 1.400 . S
C880 C883 1.386 . S
H881 C897 0.930 . S
H882 C898 0.931 . S
C883 H871 0.929 . S
C883 C877 1.390 . S
C883 C880 1.386 . S
C884 C879 1.490 . S
C884 C886 1.395 1_554 S
C884 C887 1.403 . S
H885 C891 0.930 . S
C886 H872 0.930 . S
C886 C884 1.395 1_556 S
C886 C889 1.403 . S
C887 C884 1.403 . S
C887 C888 1.524 . S
C887 C891 1.400 1_554 S
C888 H873 0.960 . S
C888 H874 0.960 . S
C888 H875 0.960 . S
C888 C887 1.524 . S
C889 C886 1.403 . S
C889 C890 1.392 . S
C889 C893 1.495 . S
C890 C889 1.392 . S
C890 C891 1.385 . S
C890 C892 1.478 . S
C891 H885 0.930 . S
C891 C887 1.400 1_556 S
C891 C890 1.385 . S
C892 C890 1.478 . S
C892 C894 1.381 . S
C892 C898 1.383 . S
C893 C889 1.495 . S
C893 H899 0.959 . S
C893 H900 0.961 . S
C893 H901 0.960 . S
C894 C892 1.381 . S
C894 C895 1.394 . S
C894 H902 0.930 . S
C895 C894 1.394 . S
C895 C896 1.383 . S
C895 H903 0.929 . S
C896 C895 1.383 . S
C896 C897 1.377 . S
C897 H881 0.930 . S
C897 C896 1.377 . S
C897 C898 1.379 . S
C898 H882 0.931 . S
C898 C892 1.383 . S
C898 C897 1.379 . S
H899 C893 0.959 . S
H900 C893 0.961 . S
H901 C893 0.960 . S
H902 C894 0.930 . S
H903 C895 0.929 . S
H904 C912 0.929 . S
H905 C914 0.930 . S
H906 C916 0.930 . S
H907 C919 0.929 . S
H908 C922 0.930 . S
H909 C924 0.960 . S
H910 C924 0.960 . S
H911 C924 0.960 . S
C912 H904 0.929 . S
C912 C913 1.377 . S
C912 C914 1.384 . S
C913 C912 1.377 . S
C913 C919 1.390 . S
C914 H905 0.930 . S
C914 C912 1.384 . S
C914 C915 1.372 . S
C915 C914 1.372 . S
C915 C916 1.400 . S
C915 C920 1.490 . S
C916 H906 0.930 . S
C916 C915 1.400 . S
C916 C919 1.386 . S
H917 C933 0.930 . S
H918 C934 0.931 . S
C919 H907 0.929 . S
C919 C913 1.390 . S
C919 C916 1.386 . S
C920 C915 1.490 . S
C920 C922 1.395 . S
C920 C923 1.403 . S
H921 C927 0.930 . S
C922 H908 0.930 . S
C922 C920 1.395 . S
C922 C925 1.403 . S
C923 C920 1.403 . S
C923 C924 1.524 . S
C923 C927 1.400 . S
C924 H909 0.960 . S
C924 H910 0.960 . S
C924 H911 0.960 . S
C924 C923 1.524 . S
C925 C922 1.403 . S
C925 C926 1.392 . S
C925 C929 1.495 . S
C926 C925 1.392 . S
C926 C927 1.385 . S
C926 C928 1.478 . S
C927 H921 0.930 . S
C927 C923 1.400 . S
C927 C926 1.385 . S
C928 C926 1.478 . S
C928 C930 1.381 . S
C928 C934 1.383 . S
C929 C925 1.495 . S
C929 H935 0.959 . S
C929 H936 0.961 . S
C929 H937 0.960 . S
C930 C928 1.381 . S
C930 C931 1.394 . S
C930 H938 0.930 . S
C931 C930 1.394 . S
C931 C932 1.383 . S
C931 H939 0.929 . S
C932 C931 1.383 . S
C932 C933 1.377 . S
C933 H917 0.930 . S
C933 C932 1.377 . S
C933 C934 1.379 . S
C934 H918 0.931 . S
C934 C928 1.383 . S
C934 C933 1.379 . S
H935 C929 0.959 . S
H936 C929 0.961 . S
H937 C929 0.960 . S
H938 C930 0.930 . S
H939 C931 0.929 . S
H940 C948 0.929 . S
H941 C950 0.930 . S
H942 C952 0.930 . S
H943 C955 0.929 . S
H944 C958 0.930 . S
H945 C960 0.960 . S
H946 C960 0.960 . S
H947 C960 0.960 . S
C948 H940 0.929 . S
C948 C949 1.377 . S
C948 C950 1.384 . S
C949 C948 1.377 . S
C949 C955 1.390 . S
C950 H941 0.930 . S
C950 C948 1.384 . S
C950 C951 1.372 . S
C951 C950 1.372 . S
C951 C952 1.400 . S
C951 C956 1.490 . S
C952 H942 0.930 . S
C952 C951 1.400 . S
C952 C955 1.386 . S
H953 C969 0.930 . S
H954 C970 0.931 . S
C955 H943 0.929 . S
C955 C949 1.390 . S
C955 C952 1.386 . S
C956 C951 1.490 . S
C956 C958 1.395 . S
C956 C959 1.403 . S
H957 C963 0.930 . S
C958 H944 0.930 . S
C958 C956 1.395 . S
C958 C961 1.403 . S
C959 C956 1.403 . S
C959 C960 1.524 . S
C959 C963 1.400 . S
C960 H945 0.960 . S
C960 H946 0.960 . S
C960 H947 0.960 . S
C960 C959 1.524 . S
C961 C958 1.403 . S
C961 C962 1.392 . S
C961 C965 1.495 . S
C962 C961 1.392 . S
C962 C963 1.385 . S
C962 C964 1.478 . S
C963 H957 0.930 . S
C963 C959 1.400 . S
C963 C962 1.385 . S
C964 C962 1.478 . S
C964 C966 1.381 . S
C964 C970 1.383 . S
C965 C961 1.495 . S
C965 H971 0.959 . S
C965 H972 0.961 . S
C965 H973 0.960 . S
C966 C964 1.381 . S
C966 C967 1.394 1_455 S
C966 H974 0.930 . S
C967 C966 1.394 1_655 S
C967 C968 1.383 . S
C967 H975 0.929 . S
C968 C967 1.383 . S
C968 C969 1.377 1_655 S
C969 H953 0.930 . S
C969 C968 1.377 1_455 S
C969 C970 1.379 . S
C970 H954 0.931 . S
C970 C964 1.383 . S
C970 C969 1.379 . S
H971 C965 0.959 . S
H972 C965 0.961 . S
H973 C965 0.960 . S
H974 C966 0.930 . S
H975 C967 0.929 . S
H976 C984 0.929 . S
H977 C986 0.930 . S
H978 C988 0.930 . S
H979 C991 0.929 . S
H980 C994 0.930 . S
H981 C996 0.960 . S
H982 C996 0.960 . S
H983 C996 0.960 . S
C984 H976 0.929 . S
C984 C985 1.377 . S
C984 C986 1.384 . S
C985 C984 1.377 . S
C985 C991 1.390 . S
C986 H977 0.930 . S
C986 C984 1.384 . S
C986 C987 1.372 . S
C987 C986 1.372 . S
C987 C988 1.400 . S
C987 C992 1.490 . S
C988 H978 0.930 . S
C988 C987 1.400 . S
C988 C991 1.386 . S
H989 C1005 0.930 1_655 S
H990 C1006 0.931 . S
C991 H979 0.929 . S
C991 C985 1.390 . S
C991 C988 1.386 . S
C992 C987 1.490 . S
C992 C994 1.395 1_556 S
C992 C995 1.403 . S
H993 C999 0.933 . S
C994 H980 0.930 . S
C994 C992 1.395 1_554 S
C994 C997 1.403 . S
C995 C992 1.403 . S
C995 C996 1.524 . S
C995 C999 1.405 . S
C996 H981 0.960 . S
C996 H982 0.960 . S
C996 H983 0.960 . S
C996 C995 1.524 . S
C997 C994 1.403 . S
C997 C998 1.392 . S
C997 C1001 1.495 . S
C998 C997 1.392 . S
C998 C999 1.377 1_554 S
C998 C1000 1.478 . S
C999 H993 0.933 . S
C999 C995 1.405 . S
C999 C998 1.377 1_556 S
C1000 C998 1.478 . S
C1000 C1002 1.381 . S
C1000 C1006 1.383 . S
C1001 C997 1.495 . S
C1001 H1007 0.959 . S
C1001 H1008 0.961 . S
C1001 H1009 0.960 . S
C1002 C1000 1.381 . S
C1002 C1003 1.394 . S
C1002 H1010 0.930 . S
C1003 C1002 1.394 . S
C1003 C1004 1.377 1_455 S
C1003 H1011 0.929 . S
C1004 C1003 1.377 1_655 S
C1004 C1005 1.374 1_655 S
C1005 H989 0.930 1_455 S
C1005 C1004 1.374 1_455 S
C1005 C1006 1.379 . S
C1006 H990 0.931 . S
C1006 C1000 1.383 . S
C1006 C1005 1.379 . S
H1007 C1001 0.959 . S
H1008 C1001 0.961 . S
H1009 C1001 0.960 . S
H1010 C1002 0.930 . S
H1011 C1003 0.929 . S
H1012 C1020 0.929 . S
H1013 C1022 0.930 . S
H1014 C1024 0.930 . S
H1015 C1027 0.929 . S
H1016 C1030 0.930 . S
H1017 C1032 0.960 . S
H1018 C1032 0.960 . S
H1019 C1032 0.960 . S
C1020 H1012 0.929 . S
C1020 C1021 1.377 . S
C1020 C1022 1.384 . S
C1021 C1020 1.377 . S
C1021 C1027 1.390 . S
C1022 H1013 0.930 . S
C1022 C1020 1.384 . S
C1022 C1023 1.372 . S
C1023 C1022 1.372 . S
C1023 C1024 1.400 . S
C1023 C1028 1.490 . S
C1024 H1014 0.930 . S
C1024 C1023 1.400 . S
C1024 C1027 1.386 . S
H1025 C1041 0.930 . S
H1026 C1042 0.931 . S
C1027 H1015 0.929 . S
C1027 C1021 1.390 . S
C1027 C1024 1.386 . S
C1028 C1023 1.490 . S
C1028 C1030 1.395 . S
C1028 C1031 1.403 1_556 S
H1029 C1035 0.930 . S
C1030 H1016 0.930 . S
C1030 C1028 1.395 . S
C1030 C1033 1.403 . S
C1031 C1028 1.403 1_554 S
C1031 C1032 1.524 . S
C1031 C1035 1.400 . S
C1032 H1017 0.960 . S
C1032 H1018 0.960 . S
C1032 H1019 0.960 . S
C1032 C1031 1.524 . S
C1033 C1030 1.403 . S
C1033 C1034 1.392 1_556 S
C1033 C1037 1.495 . S
C1034 C1033 1.392 1_554 S
C1034 C1035 1.385 . S
C1034 C1036 1.478 . S
C1035 H1029 0.930 . S
C1035 C1031 1.400 . S
C1035 C1034 1.385 . S
C1036 C1034 1.478 . S
C1036 C1038 1.381 . S
C1036 C1042 1.383 . S
C1037 C1033 1.495 . S
C1037 H1043 0.959 . S
C1037 H1044 0.961 . S
C1037 H1045 0.960 . S
C1038 C1036 1.381 . S
C1038 C1039 1.394 . S
C1038 H1046 0.930 . S
C1039 C1038 1.394 . S
C1039 C1040 1.383 . S
C1039 H1047 0.929 . S
C1040 C1039 1.383 . S
C1040 C1041 1.377 . S
C1041 H1025 0.930 . S
C1041 C1040 1.377 . S
C1041 C1042 1.379 . S
C1042 H1026 0.931 . S
C1042 C1036 1.383 . S
C1042 C1041 1.379 . S
H1043 C1037 0.959 . S
H1044 C1037 0.961 . S
H1045 C1037 0.960 . S
H1046 C1038 0.930 . S
H1047 C1039 0.929 . S
H1048 C1056 0.929 . S
H1049 C1058 0.930 . S
H1050 C1060 0.930 . S
H1051 C1063 0.929 . S
H1052 C1066 0.930 . S
H1053 C1068 0.960 . S
H1054 C1068 0.960 . S
H1055 C1068 0.960 . S
C1056 H1048 0.929 . S
C1056 C1057 1.377 . S
C1056 C1058 1.384 . S
C1057 C1056 1.377 . S
C1057 C1063 1.390 . S
C1058 H1049 0.930 . S
C1058 C1056 1.384 . S
C1058 C1059 1.372 . S
C1059 C1058 1.372 . S
C1059 C1060 1.400 . S
C1059 C1064 1.490 . S
C1060 H1050 0.930 . S
C1060 C1059 1.400 . S
C1060 C1063 1.386 . S
H1061 C1077 0.930 . S
H1062 C1078 0.931 . S
C1063 H1051 0.929 . S
C1063 C1057 1.390 . S
C1063 C1060 1.386 . S
C1064 C1059 1.490 . S
C1064 C1066 1.395 . S
C1064 C1067 1.403 . S
H1065 C1071 0.930 . S
C1066 H1052 0.930 . S
C1066 C1064 1.395 . S
C1066 C1069 1.403 . S
C1067 C1064 1.403 . S
C1067 C1068 1.524 . S
C1067 C1071 1.400 . S
C1068 H1053 0.960 . S
C1068 H1054 0.960 . S
C1068 H1055 0.960 . S
C1068 C1067 1.524 . S
C1069 C1066 1.403 . S
C1069 C1070 1.392 . S
C1069 C1073 1.495 . S
C1070 C1069 1.392 . S
C1070 C1071 1.385 . S
C1070 C1072 1.478 . S
C1071 H1065 0.930 . S
C1071 C1067 1.400 . S
C1071 C1070 1.385 . S
C1072 C1070 1.478 . S
C1072 C1074 1.381 . S
C1072 C1078 1.383 . S
C1073 C1069 1.495 . S
C1073 H1079 0.959 . S
C1073 H1080 0.961 . S
C1073 H1081 0.960 . S
C1074 C1072 1.381 . S
C1074 C1075 1.394 . S
C1074 H1082 0.930 . S
C1075 C1074 1.394 . S
C1075 C1076 1.383 . S
C1075 H1083 0.929 . S
C1076 C1075 1.383 . S
C1076 C1077 1.377 . S
C1077 H1061 0.930 . S
C1077 C1076 1.377 . S
C1077 C1078 1.379 . S
C1078 H1062 0.931 . S
C1078 C1072 1.383 . S
C1078 C1077 1.379 . S
H1079 C1073 0.959 . S
H1080 C1073 0.961 . S
H1081 C1073 0.960 . S
H1082 C1074 0.930 . S
H1083 C1075 0.929 . S
H1084 C1092 0.929 1_455 S
H1085 C1094 0.930 . S
H1086 C1096 0.930 . S
H1087 C1099 0.929 . S
H1088 C1102 0.930 . S
H1089 C1104 0.960 . S
H1090 C1104 0.960 . S
H1091 C1104 0.960 . S
C1092 H1084 0.929 1_655 S
C1092 C1093 1.377 1_655 S
C1092 C1094 1.384 . S
C1093 C1092 1.377 1_455 S
C1093 C1099 1.390 1_455 S
C1094 H1085 0.930 . S
C1094 C1092 1.384 . S
C1094 C1095 1.372 . S
C1095 C1094 1.372 . S
C1095 C1096 1.400 . S
C1095 C1100 1.490 . S
C1096 H1086 0.930 . S
C1096 C1095 1.400 . S
C1096 C1099 1.386 . S
H1097 C1113 0.930 . S
H1098 C1114 0.931 . S
C1099 H1087 0.929 . S
C1099 C1093 1.390 1_655 S
C1099 C1096 1.386 . S
C1100 C1095 1.490 . S
C1100 C1102 1.395 . S
C1100 C1103 1.403 . S
H1101 C1107 0.930 . S
C1102 H1088 0.930 . S
C1102 C1100 1.395 . S
C1102 C1105 1.403 . S
C1103 C1100 1.403 . S
C1103 C1104 1.524 . S
C1103 C1107 1.400 . S
C1104 H1089 0.960 . S
C1104 H1090 0.960 . S
C1104 H1091 0.960 . S
C1104 C1103 1.524 . S
C1105 C1102 1.403 . S
C1105 C1106 1.392 . S
C1105 C1109 1.495 . S
C1106 C1105 1.392 . S
C1106 C1107 1.385 . S
C1106 C1108 1.478 . S
C1107 H1101 0.930 . S
C1107 C1103 1.400 . S
C1107 C1106 1.385 . S
C1108 C1106 1.478 . S
C1108 C1110 1.381 . S
C1108 C1114 1.383 . S
C1109 C1105 1.495 . S
C1109 H1115 0.959 . S
C1109 H1116 0.961 . S
C1109 H1117 0.960 . S
C1110 C1108 1.381 . S
C1110 C1111 1.394 . S
C1110 H1118 0.930 . S
C1111 C1110 1.394 . S
C1111 C1112 1.383 . S
C1111 H1119 0.929 . S
C1112 C1111 1.383 . S
C1112 C1113 1.377 . S
C1113 H1097 0.930 . S
C1113 C1112 1.377 . S
C1113 C1114 1.379 . S
C1114 H1098 0.931 . S
C1114 C1108 1.383 . S
C1114 C1113 1.379 . S
H1115 C1109 0.959 . S
H1116 C1109 0.961 . S
H1117 C1109 0.960 . S
H1118 C1110 0.930 . S
H1119 C1111 0.929 . S
H1120 C1128 0.929 . S
H1121 C1130 0.930 . S
H1122 C1132 0.930 . S
H1123 C1135 0.929 . S
H1124 C1138 0.930 . S
H1125 C1140 0.960 1_565 S
H1126 C1140 0.960 . S
H1127 C1140 0.960 . S
C1128 H1120 0.929 . S
C1128 C1129 1.377 . S
C1128 C1130 1.384 . S
C1129 C1128 1.377 . S
C1129 C1135 1.390 . S
C1130 H1121 0.930 . S
C1130 C1128 1.384 . S
C1130 C1131 1.372 . S
C1131 C1130 1.372 . S
C1131 C1132 1.400 . S
C1131 C1136 1.490 . S
C1132 H1122 0.930 . S
C1132 C1131 1.400 . S
C1132 C1135 1.386 . S
H1133 C1149 0.930 . S
H1134 C1150 0.931 . S
C1135 H1123 0.929 . S
C1135 C1129 1.390 . S
C1135 C1132 1.386 . S
C1136 C1131 1.490 . S
C1136 C1138 1.395 . S
C1136 C1139 1.403 . S
H1137 C1143 0.930 . S
C1138 H1124 0.930 . S
C1138 C1136 1.395 . S
C1138 C1141 1.403 1_545 S
C1139 C1136 1.403 . S
C1139 C1140 1.524 . S
C1139 C1143 1.400 1_545 S
C1140 H1125 0.960 1_545 S
C1140 H1126 0.960 . S
C1140 H1127 0.960 . S
C1140 C1139 1.524 . S
C1141 C1138 1.403 1_565 S
C1141 C1142 1.392 . S
C1141 C1145 1.495 . S
C1142 C1141 1.392 . S
C1142 C1143 1.385 . S
C1142 C1144 1.478 . S
C1143 H1137 0.930 . S
C1143 C1139 1.400 1_565 S
C1143 C1142 1.385 . S
C1144 C1142 1.478 . S
C1144 C1146 1.381 . S
C1144 C1150 1.383 . S
C1145 C1141 1.495 . S
C1145 H1151 0.959 1_565 S
C1145 H1152 0.961 . S
C1145 H1153 0.960 . S
C1146 C1144 1.381 . S
C1146 C1147 1.394 . S
C1146 H1154 0.930 . S
C1147 C1146 1.394 . S
C1147 C1148 1.383 . S
C1147 H1155 0.929 . S
C1148 C1147 1.383 . S
C1148 C1149 1.377 . S
C1149 H1133 0.930 . S
C1149 C1148 1.377 . S
C1149 C1150 1.379 . S
C1150 H1134 0.931 . S
C1150 C1144 1.383 . S
C1150 C1149 1.379 . S
H1151 C1145 0.959 1_545 S
H1152 C1145 0.961 . S
H1153 C1145 0.960 . S
H1154 C1146 0.930 . S
H1155 C1147 0.929 . S
H1156 C1164 0.929 . S
H1157 C1166 0.930 . S
H1158 C1168 0.930 . S
H1159 C1171 0.929 . S
H1160 C1174 0.930 . S
H1161 C1176 0.960 . S
H1162 C1176 0.960 . S
H1163 C1176 0.960 . S
C1164 H1156 0.929 . S
C1164 C1165 1.377 . S
C1164 C1166 1.384 . S
C1165 C1164 1.377 . S
C1165 C1171 1.390 . S
C1166 H1157 0.930 . S
C1166 C1164 1.384 . S
C1166 C1167 1.372 . S
C1167 C1166 1.372 . S
C1167 C1168 1.400 . S
C1167 C1172 1.490 . S
C1168 H1158 0.930 . S
C1168 C1167 1.400 . S
C1168 C1171 1.386 . S
H1169 C1185 0.930 . S
H1170 C1186 0.931 . S
C1171 H1159 0.929 . S
C1171 C1165 1.390 . S
C1171 C1168 1.386 . S
C1172 C1167 1.490 . S
C1172 C1174 1.395 . S
C1172 C1175 1.403 . S
H1173 C1179 0.930 . S
C1174 H1160 0.930 . S
C1174 C1172 1.395 . S
C1174 C1177 1.403 1_565 S
C1175 C1172 1.403 . S
C1175 C1176 1.524 . S
C1175 C1179 1.400 1_565 S
C1176 H1161 0.960 . S
C1176 H1162 0.960 . S
C1176 H1163 0.960 . S
C1176 C1175 1.524 . S
C1177 C1174 1.403 1_545 S
C1177 C1178 1.392 . S
C1177 C1181 1.495 . S
C1178 C1177 1.392 . S
C1178 C1179 1.385 . S
C1178 C1180 1.478 . S
C1179 H1173 0.930 . S
C1179 C1175 1.400 1_545 S
C1179 C1178 1.385 . S
C1180 C1178 1.478 . S
C1180 C1182 1.381 . S
C1180 C1186 1.383 . S
C1181 C1177 1.495 . S
C1181 H1187 0.959 . S
C1181 H1188 0.961 . S
C1181 H1189 0.960 . S
C1182 C1180 1.381 . S
C1182 C1183 1.394 . S
C1182 H1190 0.930 . S
C1183 C1182 1.394 . S
C1183 C1184 1.383 . S
C1183 H1191 0.929 . S
C1184 C1183 1.383 . S
C1184 C1185 1.377 . S
C1185 H1169 0.930 . S
C1185 C1184 1.377 . S
C1185 C1186 1.379 . S
C1186 H1170 0.931 . S
C1186 C1180 1.383 . S
C1186 C1185 1.379 . S
H1187 C1181 0.959 . S
H1188 C1181 0.961 . S
H1189 C1181 0.960 . S
H1190 C1182 0.930 . S
H1191 C1183 0.929 . S
H1192 C1200 0.929 . S
H1193 C1202 0.930 . S
H1194 C1204 0.930 . S
H1195 C1207 0.929 . S
H1196 C1210 0.930 . S
H1197 C1212 0.960 1_565 S
H1198 C1212 0.960 . S
H1199 C1212 0.960 . S
C1200 H1192 0.929 . S
C1200 C1201 1.377 . S
C1200 C1202 1.384 . S
C1201 C1200 1.377 . S
C1201 C1207 1.390 . S
C1202 H1193 0.930 . S
C1202 C1200 1.384 . S
C1202 C1203 1.372 . S
C1203 C1202 1.372 . S
C1203 C1204 1.400 . S
C1203 C1208 1.490 . S
C1204 H1194 0.930 . S
C1204 C1203 1.400 . S
C1204 C1207 1.386 . S
H1205 C1221 0.930 . S
H1206 C1222 0.931 . S
C1207 H1195 0.929 . S
C1207 C1201 1.390 . S
C1207 C1204 1.386 . S
C1208 C1203 1.490 . S
C1208 C1210 1.395 . S
C1208 C1211 1.403 . S
H1209 C1215 0.930 . S
C1210 H1196 0.930 . S
C1210 C1208 1.395 . S
C1210 C1213 1.403 1_545 S
C1211 C1208 1.403 . S
C1211 C1212 1.524 . S
C1211 C1215 1.400 1_545 S
C1212 H1197 0.960 1_545 S
C1212 H1198 0.960 . S
C1212 H1199 0.960 . S
C1212 C1211 1.524 . S
C1213 C1210 1.403 1_565 S
C1213 C1214 1.392 . S
C1213 C1217 1.495 . S
C1214 C1213 1.392 . S
C1214 C1215 1.385 . S
C1214 C1216 1.478 . S
C1215 H1209 0.930 . S
C1215 C1211 1.400 1_565 S
C1215 C1214 1.385 . S
C1216 C1214 1.478 . S
C1216 C1218 1.381 . S
C1216 C1222 1.383 . S
C1217 C1213 1.495 . S
C1217 H1223 0.959 1_565 S
C1217 H1224 0.961 . S
C1217 H1225 0.960 . S
C1218 C1216 1.381 . S
C1218 C1219 1.394 . S
C1218 H1226 0.930 . S
C1219 C1218 1.394 . S
C1219 C1220 1.383 . S
C1219 H1227 0.929 . S
C1220 C1219 1.383 . S
C1220 C1221 1.377 . S
C1221 H1205 0.930 . S
C1221 C1220 1.377 . S
C1221 C1222 1.379 . S
C1222 H1206 0.931 . S
C1222 C1216 1.383 . S
C1222 C1221 1.379 . S
H1223 C1217 0.959 1_545 S
H1224 C1217 0.961 . S
H1225 C1217 0.960 . S
H1226 C1218 0.930 . S
H1227 C1219 0.929 . S
H1228 C1236 0.929 . S
H1229 C1238 0.930 . S
H1230 C1240 0.930 . S
H1231 C1243 0.929 . S
H1232 C1246 0.930 . S
H1233 C1248 0.960 . S
H1234 C1248 0.960 . S
H1235 C1248 0.960 . S
C1236 H1228 0.929 . S
C1236 C1237 1.377 . S
C1236 C1238 1.384 . S
C1237 C1236 1.377 . S
C1237 C1243 1.390 . S
C1238 H1229 0.930 . S
C1238 C1236 1.384 . S
C1238 C1239 1.372 . S
C1239 C1238 1.372 . S
C1239 C1240 1.400 . S
C1239 C1244 1.490 . S
C1240 H1230 0.930 . S
C1240 C1239 1.400 . S
C1240 C1243 1.386 . S
H1241 C1257 0.930 . S
H1242 C1258 0.931 . S
C1243 H1231 0.929 . S
C1243 C1237 1.390 . S
C1243 C1240 1.386 . S
C1244 C1239 1.490 . S
C1244 C1246 1.395 . S
C1244 C1247 1.403 . S
H1245 C1251 0.930 . S
C1246 H1232 0.930 . S
C1246 C1244 1.395 . S
C1246 C1249 1.403 1_565 S
C1247 C1244 1.403 . S
C1247 C1248 1.524 . S
C1247 C1251 1.400 1_565 S
C1248 H1233 0.960 . S
C1248 H1234 0.960 . S
C1248 H1235 0.960 . S
C1248 C1247 1.524 . S
C1249 C1246 1.403 1_545 S
C1249 C1250 1.392 . S
C1249 C1253 1.495 . S
C1250 C1249 1.392 . S
C1250 C1251 1.385 . S
C1250 C1252 1.478 . S
C1251 H1245 0.930 . S
C1251 C1247 1.400 1_545 S
C1251 C1250 1.385 . S
C1252 C1250 1.478 . S
C1252 C1254 1.381 . S
C1252 C1258 1.383 . S
C1253 C1249 1.495 . S
C1253 H1259 0.959 . S
C1253 H1260 0.961 . S
C1253 H1261 0.960 . S
C1254 C1252 1.381 . S
C1254 C1255 1.394 . S
C1254 H1262 0.930 . S
C1255 C1254 1.394 . S
C1255 C1256 1.383 . S
C1255 H1263 0.929 . S
C1256 C1255 1.383 . S
C1256 C1257 1.377 . S
C1257 H1241 0.930 . S
C1257 C1256 1.377 . S
C1257 C1258 1.379 . S
C1258 H1242 0.931 . S
C1258 C1252 1.383 . S
C1258 C1257 1.379 . S
H1259 C1253 0.959 . S
H1260 C1253 0.961 . S
H1261 C1253 0.960 . S
H1262 C1254 0.930 . S
H1263 C1255 0.929 . S
H1264 C1272 0.929 . S
H1265 C1274 0.930 . S
H1266 C1276 0.930 . S
H1267 C1279 0.929 . S
H1268 C1282 0.930 . S
H1269 C1284 0.960 . S
H1270 C1284 0.960 . S
H1271 C1284 0.960 . S
C1272 H1264 0.929 . S
C1272 C1273 1.377 . S
C1272 C1274 1.384 . S
C1273 C1272 1.377 . S
C1273 C1279 1.390 . S
C1274 H1265 0.930 . S
C1274 C1272 1.384 . S
C1274 C1275 1.372 . S
C1275 C1274 1.372 . S
C1275 C1276 1.400 . S
C1275 C1280 1.490 . S
C1276 H1266 0.930 . S
C1276 C1275 1.400 . S
C1276 C1279 1.386 . S
H1277 C1293 0.930 . S
H1278 C1294 0.931 . S
C1279 H1267 0.929 . S
C1279 C1273 1.390 . S
C1279 C1276 1.386 . S
C1280 C1275 1.490 . S
C1280 C1282 1.395 . S
C1280 C1283 1.403 . S
H1281 C1287 0.930 . S
C1282 H1268 0.930 . S
C1282 C1280 1.395 . S
C1282 C1285 1.403 . S
C1283 C1280 1.403 . S
C1283 C1284 1.524 . S
C1283 C1287 1.400 . S
C1284 H1269 0.960 . S
C1284 H1270 0.960 . S
C1284 H1271 0.960 . S
C1284 C1283 1.524 . S
C1285 C1282 1.403 . S
C1285 C1286 1.392 . S
C1285 C1289 1.495 . S
C1286 C1285 1.392 . S
C1286 C1287 1.385 . S
C1286 C1288 1.478 . S
C1287 H1281 0.930 . S
C1287 C1283 1.400 . S
C1287 C1286 1.385 . S
C1288 C1286 1.478 . S
C1288 C1290 1.381 . S
C1288 C1294 1.383 . S
C1289 C1285 1.495 . S
C1289 H1295 0.959 . S
C1289 H1296 0.961 . S
C1289 H1297 0.960 . S
C1290 C1288 1.381 . S
C1290 C1291 1.394 . S
C1290 H1298 0.930 . S
C1291 C1290 1.394 . S
C1291 C1292 1.383 . S
C1291 H1299 0.929 . S
C1292 C1291 1.383 . S
C1292 C1293 1.377 . S
C1293 H1277 0.930 . S
C1293 C1292 1.377 . S
C1293 C1294 1.379 . S
C1294 H1278 0.931 . S
C1294 C1288 1.383 . S
C1294 C1293 1.379 . S
H1295 C1289 0.959 . S
H1296 C1289 0.961 . S
H1297 C1289 0.960 . S
H1298 C1290 0.930 . S
H1299 C1291 0.929 . S
H1300 C1308 0.929 . S
H1301 C1310 0.930 . S
H1302 C1312 0.930 . S
H1303 C1315 0.929 . S
H1304 C1318 0.930 . S
H1305 C1320 0.960 . S
H1306 C1320 0.960 . S
H1307 C1320 0.960 . S
C1308 H1300 0.929 . S
C1308 C1309 1.377 . S
C1308 C1310 1.384 . S
C1309 C1308 1.377 . S
C1309 C1315 1.390 . S
C1310 H1301 0.930 . S
C1310 C1308 1.384 . S
C1310 C1311 1.372 . S
C1311 C1310 1.372 . S
C1311 C1312 1.400 . S
C1311 C1316 1.490 . S
C1312 H1302 0.930 . S
C1312 C1311 1.400 . S
C1312 C1315 1.386 . S
H1313 C1329 0.930 . S
H1314 C1330 0.931 . S
C1315 H1303 0.929 . S
C1315 C1309 1.390 . S
C1315 C1312 1.386 . S
C1316 C1311 1.490 . S
C1316 C1318 1.395 . S
C1316 C1319 1.403 . S
H1317 C1323 0.930 . S
C1318 H1304 0.930 . S
C1318 C1316 1.395 . S
C1318 C1321 1.403 . S
C1319 C1316 1.403 . S
C1319 C1320 1.524 . S
C1319 C1323 1.400 . S
C1320 H1305 0.960 . S
C1320 H1306 0.960 . S
C1320 H1307 0.960 . S
C1320 C1319 1.524 . S
C1321 C1318 1.403 . S
C1321 C1322 1.392 . S
C1321 C1325 1.495 . S
C1322 C1321 1.392 . S
C1322 C1323 1.385 . S
C1322 C1324 1.478 . S
C1323 H1317 0.930 . S
C1323 C1319 1.400 . S
C1323 C1322 1.385 . S
C1324 C1322 1.478 . S
C1324 C1326 1.381 . S
C1324 C1330 1.383 . S
C1325 C1321 1.495 . S
C1325 H1331 0.959 . S
C1325 H1332 0.961 . S
C1325 H1333 0.960 . S
C1326 C1324 1.381 . S
C1326 C1327 1.394 . S
C1326 H1334 0.930 . S
C1327 C1326 1.394 . S
C1327 C1328 1.383 . S
C1327 H1335 0.929 . S
C1328 C1327 1.383 . S
C1328 C1329 1.377 . S
C1329 H1313 0.930 . S
C1329 C1328 1.377 . S
C1329 C1330 1.379 . S
C1330 H1314 0.931 . S
C1330 C1324 1.383 . S
C1330 C1329 1.379 . S
H1331 C1325 0.959 . S
H1332 C1325 0.961 . S
H1333 C1325 0.960 . S
H1334 C1326 0.930 . S
H1335 C1327 0.929 . S
H1336 C1344 0.929 . S
H1337 C1346 0.930 . S
H1338 C1348 0.930 . S
H1339 C1351 0.929 . S
H1340 C1354 0.930 . S
H1341 C1356 0.960 . S
H1342 C1356 0.960 . S
H1343 C1356 0.960 . S
C1344 H1336 0.929 . S
C1344 C1345 1.377 . S
C1344 C1346 1.384 . S
C1345 C1344 1.377 . S
C1345 C1351 1.390 . S
C1346 H1337 0.930 . S
C1346 C1344 1.384 . S
C1346 C1347 1.372 . S
C1347 C1346 1.372 . S
C1347 C1348 1.400 . S
C1347 C1352 1.490 . S
C1348 H1338 0.930 . S
C1348 C1347 1.400 . S
C1348 C1351 1.386 . S
H1349 C1365 0.930 . S
H1350 C1366 0.931 . S
C1351 H1339 0.929 . S
C1351 C1345 1.390 . S
C1351 C1348 1.386 . S
C1352 C1347 1.490 . S
C1352 C1354 1.395 . S
C1352 C1355 1.403 . S
H1353 C1359 0.930 . S
C1354 H1340 0.930 . S
C1354 C1352 1.395 . S
C1354 C1357 1.403 . S
C1355 C1352 1.403 . S
C1355 C1356 1.524 . S
C1355 C1359 1.400 . S
C1356 H1341 0.960 . S
C1356 H1342 0.960 . S
C1356 H1343 0.960 . S
C1356 C1355 1.524 . S
C1357 C1354 1.403 . S
C1357 C1358 1.392 . S
C1357 C1361 1.495 . S
C1358 C1357 1.392 . S
C1358 C1359 1.385 . S
C1358 C1360 1.478 . S
C1359 H1353 0.930 . S
C1359 C1355 1.400 . S
C1359 C1358 1.385 . S
C1360 C1358 1.478 . S
C1360 C1362 1.381 . S
C1360 C1366 1.383 . S
C1361 C1357 1.495 . S
C1361 H1367 0.959 . S
C1361 H1368 0.961 . S
C1361 H1369 0.960 . S
C1362 C1360 1.381 . S
C1362 C1363 1.394 . S
C1362 H1370 0.930 . S
C1363 C1362 1.394 . S
C1363 C1364 1.383 . S
C1363 H1371 0.929 . S
C1364 C1363 1.383 . S
C1364 C1365 1.377 . S
C1365 H1349 0.930 . S
C1365 C1364 1.377 . S
C1365 C1366 1.379 . S
C1366 H1350 0.931 . S
C1366 C1360 1.383 . S
C1366 C1365 1.379 . S
H1367 C1361 0.959 . S
H1368 C1361 0.961 . S
H1369 C1361 0.960 . S
H1370 C1362 0.930 . S
H1371 C1363 0.929 . S
H1372 C1380 0.929 . S
H1373 C1382 0.930 . S
H1374 C1384 0.930 . S
H1375 C1387 0.929 . S
H1376 C1390 0.930 . S
H1377 C1392 0.960 . S
H1378 C1392 0.960 . S
H1379 C1392 0.960 . S
C1380 H1372 0.929 . S
C1380 C1381 1.377 . S
C1380 C1382 1.384 . S
C1381 C1380 1.377 . S
C1381 C1387 1.390 . S
C1382 H1373 0.930 . S
C1382 C1380 1.384 . S
C1382 C1383 1.372 . S
C1383 C1382 1.372 . S
C1383 C1384 1.400 . S
C1383 C1388 1.490 . S
C1384 H1374 0.930 . S
C1384 C1383 1.400 . S
C1384 C1387 1.386 . S
H1385 C1401 0.930 . S
H1386 C1402 0.931 . S
C1387 H1375 0.929 . S
C1387 C1381 1.390 . S
C1387 C1384 1.386 . S
C1388 C1383 1.490 . S
C1388 C1390 1.395 . S
C1388 C1391 1.403 . S
H1389 C1395 0.930 . S
C1390 H1376 0.930 . S
C1390 C1388 1.395 . S
C1390 C1393 1.403 . S
C1391 C1388 1.403 . S
C1391 C1392 1.524 . S
C1391 C1395 1.400 . S
C1392 H1377 0.960 . S
C1392 H1378 0.960 . S
C1392 H1379 0.960 . S
C1392 C1391 1.524 . S
C1393 C1390 1.403 . S
C1393 C1394 1.392 . S
C1393 C1397 1.495 . S
C1394 C1393 1.392 . S
C1394 C1395 1.385 . S
C1394 C1396 1.478 . S
C1395 H1389 0.930 . S
C1395 C1391 1.400 . S
C1395 C1394 1.385 . S
C1396 C1394 1.478 . S
C1396 C1398 1.381 . S
C1396 C1402 1.383 . S
C1397 C1393 1.495 . S
C1397 H1403 0.959 . S
C1397 H1404 0.961 . S
C1397 H1405 0.960 . S
C1398 C1396 1.381 . S
C1398 C1399 1.394 . S
C1398 H1406 0.930 . S
C1399 C1398 1.394 . S
C1399 C1400 1.383 . S
C1399 H1407 0.929 . S
C1400 C1399 1.383 . S
C1400 C1401 1.377 . S
C1401 H1385 0.930 . S
C1401 C1400 1.377 . S
C1401 C1402 1.379 . S
C1402 H1386 0.931 . S
C1402 C1396 1.383 . S
C1402 C1401 1.379 . S
H1403 C1397 0.959 . S
H1404 C1397 0.961 . S
H1405 C1397 0.960 . S
H1406 C1398 0.930 . S
H1407 C1399 0.929 . S
H1408 C1416 0.929 . S
H1409 C1418 0.930 . S
H1410 C1420 0.930 . S
H1411 C1423 0.929 . S
H1412 C1426 0.930 . S
H1413 C1428 0.960 . S
H1414 C1428 0.960 . S
H1415 C1428 0.960 . S
C1416 H1408 0.929 . S
C1416 C1417 1.377 . S
C1416 C1418 1.384 . S
C1417 C1416 1.377 . S
C1417 C1423 1.390 . S
C1418 H1409 0.930 . S
C1418 C1416 1.384 . S
C1418 C1419 1.372 . S
C1419 C1418 1.372 . S
C1419 C1420 1.400 . S
C1419 C1424 1.490 . S
C1420 H1410 0.930 . S
C1420 C1419 1.400 . S
C1420 C1423 1.386 . S
H1421 C1437 0.930 . S
H1422 C1438 0.931 . S
C1423 H1411 0.929 . S
C1423 C1417 1.390 . S
C1423 C1420 1.386 . S
C1424 C1419 1.490 . S
C1424 C1426 1.395 . S
C1424 C1427 1.403 1_655 S
H1425 C1431 0.930 . S
C1426 H1412 0.930 . S
C1426 C1424 1.395 . S
C1426 C1429 1.403 . S
C1427 C1424 1.403 1_455 S
C1427 C1428 1.524 . S
C1427 C1431 1.400 . S
C1428 H1413 0.960 . S
C1428 H1414 0.960 . S
C1428 H1415 0.960 . S
C1428 C1427 1.524 . S
C1429 C1426 1.403 . S
C1429 C1430 1.392 1_655 S
C1429 C1433 1.495 . S
C1430 C1429 1.392 1_455 S
C1430 C1431 1.385 . S
C1430 C1432 1.478 . S
C1431 H1425 0.930 . S
C1431 C1427 1.400 . S
C1431 C1430 1.385 . S
C1432 C1430 1.478 . S
C1432 C1434 1.381 . S
C1432 C1438 1.383 . S
C1433 C1429 1.495 . S
C1433 H1439 0.959 . S
C1433 H1440 0.961 . S
C1433 H1441 0.960 . S
C1434 C1432 1.381 . S
C1434 C1435 1.394 . S
C1434 H1442 0.930 . S
C1435 C1434 1.394 . S
C1435 C1436 1.383 . S
C1435 H1443 0.929 . S
C1436 C1435 1.383 . S
C1436 C1437 1.377 . S
C1437 H1421 0.930 . S
C1437 C1436 1.377 . S
C1437 C1438 1.379 . S
C1438 H1422 0.931 . S
C1438 C1432 1.383 . S
C1438 C1437 1.379 . S
H1439 C1433 0.959 . S
H1440 C1433 0.961 . S
H1441 C1433 0.960 . S
H1442 C1434 0.930 . S
H1443 C1435 0.929 . S
H1444 C1452 0.929 . S
H1445 C1454 0.930 . S
H1446 C1456 0.930 . S
H1447 C1459 0.929 . S
H1448 C1462 0.930 . S
H1449 C1464 0.960 . S
H1450 C1464 0.960 . S
H1451 C1464 0.960 . S
C1452 H1444 0.929 . S
C1452 C1453 1.377 . S
C1452 C1454 1.384 . S
C1453 C1452 1.377 . S
C1453 C1459 1.390 . S
C1454 H1445 0.930 . S
C1454 C1452 1.384 . S
C1454 C1455 1.372 . S
C1455 C1454 1.372 . S
C1455 C1456 1.400 . S
C1455 C1460 1.490 . S
C1456 H1446 0.930 . S
C1456 C1455 1.400 . S
C1456 C1459 1.386 . S
H1457 C1473 0.930 . S
H1458 C1474 0.931 . S
C1459 H1447 0.929 . S
C1459 C1453 1.390 . S
C1459 C1456 1.386 . S
C1460 C1455 1.490 . S
C1460 C1462 1.395 . S
C1460 C1463 1.403 . S
H1461 C1467 0.930 . S
C1462 H1448 0.930 . S
C1462 C1460 1.395 . S
C1462 C1465 1.403 . S
C1463 C1460 1.403 . S
C1463 C1464 1.524 . S
C1463 C1467 1.400 . S
C1464 H1449 0.960 . S
C1464 H1450 0.960 . S
C1464 H1451 0.960 . S
C1464 C1463 1.524 . S
C1465 C1462 1.403 . S
C1465 C1466 1.392 . S
C1465 C1469 1.495 . S
C1466 C1465 1.392 . S
C1466 C1467 1.385 . S
C1466 C1468 1.478 . S
C1467 H1461 0.930 . S
C1467 C1463 1.400 . S
C1467 C1466 1.385 . S
C1468 C1466 1.478 . S
C1468 C1470 1.381 . S
C1468 C1474 1.383 . S
C1469 C1465 1.495 . S
C1469 H1475 0.959 . S
C1469 H1476 0.961 . S
C1469 H1477 0.960 . S
C1470 C1468 1.381 . S
C1470 C1471 1.394 . S
C1470 H1478 0.930 . S
C1471 C1470 1.394 . S
C1471 C1472 1.383 . S
C1471 H1479 0.929 . S
C1472 C1471 1.383 . S
C1472 C1473 1.377 . S
C1473 H1457 0.930 . S
C1473 C1472 1.377 . S
C1473 C1474 1.379 . S
C1474 H1458 0.931 . S
C1474 C1468 1.383 . S
C1474 C1473 1.379 . S
H1475 C1469 0.959 . S
H1476 C1469 0.961 . S
H1477 C1469 0.960 . S
H1478 C1470 0.930 . S
H1479 C1471 0.929 . S
H1480 C1488 0.929 . S
H1481 C1490 0.930 . S
H1482 C1492 0.930 . S
H1483 C1495 0.929 . S
H1484 C1498 0.930 . S
H1485 C1500 0.960 . S
H1486 C1500 0.960 . S
H1487 C1500 0.960 . S
C1488 H1480 0.929 . S
C1488 C1489 1.377 . S
C1488 C1490 1.384 . S
C1489 C1488 1.377 . S
C1489 C1495 1.390 . S
C1490 H1481 0.930 . S
C1490 C1488 1.384 . S
C1490 C1491 1.372 . S
C1491 C1490 1.372 . S
C1491 C1492 1.400 . S
C1491 C1496 1.490 . S
C1492 H1482 0.930 . S
C1492 C1491 1.400 . S
C1492 C1495 1.386 . S
H1493 C1509 0.930 . S
H1494 C1510 0.931 . S
C1495 H1483 0.929 . S
C1495 C1489 1.390 . S
C1495 C1492 1.386 . S
C1496 C1491 1.490 . S
C1496 C1498 1.395 . S
C1496 C1499 1.403 . S
H1497 C1503 0.930 . S
C1498 H1484 0.930 . S
C1498 C1496 1.395 . S
C1498 C1501 1.403 . S
C1499 C1496 1.403 . S
C1499 C1500 1.524 . S
C1499 C1503 1.400 . S
C1500 H1485 0.960 . S
C1500 H1486 0.960 . S
C1500 H1487 0.960 . S
C1500 C1499 1.524 . S
C1501 C1498 1.403 . S
C1501 C1502 1.392 . S
C1501 C1505 1.495 . S
C1502 C1501 1.392 . S
C1502 C1503 1.385 . S
C1502 C1504 1.478 . S
C1503 H1497 0.930 . S
C1503 C1499 1.400 . S
C1503 C1502 1.385 . S
C1504 C1502 1.478 . S
C1504 C1506 1.381 . S
C1504 C1510 1.383 . S
C1505 C1501 1.495 . S
C1505 H1511 0.959 . S
C1505 H1512 0.961 . S
C1505 H1513 0.960 . S
C1506 C1504 1.381 . S
C1506 C1507 1.394 . S
C1506 H1514 0.930 . S
C1507 C1506 1.394 . S
C1507 C1508 1.383 . S
C1507 H1515 0.929 . S
C1508 C1507 1.383 . S
C1508 C1509 1.377 . S
C1509 H1493 0.930 . S
C1509 C1508 1.377 . S
C1509 C1510 1.379 . S
C1510 H1494 0.931 . S
C1510 C1504 1.383 . S
C1510 C1509 1.379 . S
H1511 C1505 0.959 . S
H1512 C1505 0.961 . S
H1513 C1505 0.960 . S
H1514 C1506 0.930 . S
H1515 C1507 0.929 . S
H1516 C1524 0.929 . S
H1517 C1526 0.930 . S
H1518 C1528 0.930 . S
H1519 C1531 0.929 . S
H1520 C1534 0.930 . S
H1521 C1536 0.960 . S
H1522 C1536 0.960 . S
H1523 C1536 0.960 . S
C1524 H1516 0.929 . S
C1524 C1525 1.377 . S
C1524 C1526 1.384 . S
C1525 C1524 1.377 . S
C1525 C1531 1.390 . S
C1526 H1517 0.930 . S
C1526 C1524 1.384 . S
C1526 C1527 1.372 . S
C1527 C1526 1.372 . S
C1527 C1528 1.400 . S
C1527 C1532 1.490 . S
C1528 H1518 0.930 . S
C1528 C1527 1.400 . S
C1528 C1531 1.386 . S
H1529 C1545 0.930 . S
H1530 C1546 0.931 . S
C1531 H1519 0.929 . S
C1531 C1525 1.390 . S
C1531 C1528 1.386 . S
C1532 C1527 1.490 . S
C1532 C1534 1.395 . S
C1532 C1535 1.403 1_455 S
H1533 C1539 0.930 . S
C1534 H1520 0.930 . S
C1534 C1532 1.395 . S
C1534 C1537 1.403 . S
C1535 C1532 1.403 1_655 S
C1535 C1536 1.524 . S
C1535 C1539 1.400 . S
C1536 H1521 0.960 . S
C1536 H1522 0.960 . S
C1536 H1523 0.960 . S
C1536 C1535 1.524 . S
C1537 C1534 1.403 . S
C1537 C1538 1.392 1_455 S
C1537 C1541 1.495 . S
C1538 C1537 1.392 1_655 S
C1538 C1539 1.385 . S
C1538 C1540 1.478 . S
C1539 H1533 0.930 . S
C1539 C1535 1.400 . S
C1539 C1538 1.385 . S
C1540 C1538 1.478 . S
C1540 C1542 1.381 . S
C1540 C1546 1.383 . S
C1541 C1537 1.495 . S
C1541 H1547 0.959 . S
C1541 H1548 0.961 . S
C1541 H1549 0.960 . S
C1542 C1540 1.381 . S
C1542 C1543 1.394 . S
C1542 H1550 0.930 . S
C1543 C1542 1.394 . S
C1543 C1544 1.383 . S
C1543 H1551 0.929 . S
C1544 C1543 1.383 . S
C1544 C1545 1.377 . S
C1545 H1529 0.930 . S
C1545 C1544 1.377 . S
C1545 C1546 1.379 . S
C1546 H1530 0.931 . S
C1546 C1540 1.383 . S
C1546 C1545 1.379 . S
H1547 C1541 0.959 . S
H1548 C1541 0.961 . S
H1549 C1541 0.960 . S
H1550 C1542 0.930 . S
H1551 C1543 0.929 . S
H1552 C1560 0.929 . S
H1553 C1562 0.930 . S
H1554 C1564 0.930 . S
H1555 C1567 0.929 . S
H1556 C1570 0.930 . S
H1557 C1572 0.960 . S
H1558 C1572 0.960 . S
H1559 C1572 0.960 . S
C1560 H1552 0.929 . S
C1560 C1561 1.377 . S
C1560 C1562 1.384 . S
C1561 C1560 1.377 . S
C1561 C1567 1.390 . S
C1562 H1553 0.930 . S
C1562 C1560 1.384 . S
C1562 C1563 1.372 . S
C1563 C1562 1.372 . S
C1563 C1564 1.400 . S
C1563 C1568 1.490 . S
C1564 H1554 0.930 . S
C1564 C1563 1.400 . S
C1564 C1567 1.386 . S
H1565 C1581 0.930 . S
H1566 C1582 0.931 . S
C1567 H1555 0.929 . S
C1567 C1561 1.390 . S
C1567 C1564 1.386 . S
C1568 C1563 1.490 . S
C1568 C1570 1.395 1_655 S
C1568 C1571 1.403 . S
H1569 C1575 0.930 . S
C1570 H1556 0.930 . S
C1570 C1568 1.395 1_455 S
C1570 C1573 1.403 . S
C1571 C1568 1.403 . S
C1571 C1572 1.524 . S
C1571 C1575 1.400 . S
C1572 H1557 0.960 . S
C1572 H1558 0.960 . S
C1572 H1559 0.960 . S
C1572 C1571 1.524 . S
C1573 C1570 1.403 . S
C1573 C1574 1.392 . S
C1573 C1577 1.495 . S
C1574 C1573 1.392 . S
C1574 C1575 1.385 1_455 S
C1574 C1576 1.478 . S
C1575 H1569 0.930 . S
C1575 C1571 1.400 . S
C1575 C1574 1.385 1_655 S
C1576 C1574 1.478 . S
C1576 C1578 1.381 . S
C1576 C1582 1.383 . S
C1577 C1573 1.495 . S
C1577 H1583 0.959 . S
C1577 H1584 0.961 . S
C1577 H1585 0.960 . S
C1578 C1576 1.381 . S
C1578 C1579 1.394 . S
C1578 H1586 0.930 . S
C1579 C1578 1.394 . S
C1579 C1580 1.383 . S
C1579 H1587 0.929 . S
C1580 C1579 1.383 . S
C1580 C1581 1.377 . S
C1581 H1565 0.930 . S
C1581 C1580 1.377 . S
C1581 C1582 1.379 . S
C1582 H1566 0.931 . S
C1582 C1576 1.383 . S
C1582 C1581 1.379 . S
H1583 C1577 0.959 . S
H1584 C1577 0.961 . S
H1585 C1577 0.960 . S
H1586 C1578 0.930 . S
H1587 C1579 0.929 . S
H1588 C1596 0.929 . S
H1589 C1598 0.930 . S
H1590 C1600 0.930 . S
H1591 C1603 0.929 . S
H1592 C1606 0.930 . S
H1593 C1608 0.960 . S
H1594 C1608 0.960 . S
H1595 C1608 0.960 . S
C1596 H1588 0.929 . S
C1596 C1597 1.377 . S
C1596 C1598 1.384 . S
C1597 C1596 1.377 . S
C1597 C1603 1.390 . S
C1598 H1589 0.930 . S
C1598 C1596 1.384 . S
C1598 C1599 1.372 . S
C1599 C1598 1.372 . S
C1599 C1600 1.400 . S
C1599 C1604 1.490 . S
C1600 H1590 0.930 . S
C1600 C1599 1.400 . S
C1600 C1603 1.386 . S
H1601 C1617 0.930 . S
H1602 C1618 0.931 . S
C1603 H1591 0.929 . S
C1603 C1597 1.390 . S
C1603 C1600 1.386 . S
C1604 C1599 1.490 . S
C1604 C1606 1.395 . S
C1604 C1607 1.403 . S
H1605 C1611 0.930 . S
C1606 H1592 0.930 . S
C1606 C1604 1.395 . S
C1606 C1609 1.403 . S
C1607 C1604 1.403 . S
C1607 C1608 1.524 . S
C1607 C1611 1.400 . S
C1608 H1593 0.960 . S
C1608 H1594 0.960 . S
C1608 H1595 0.960 . S
C1608 C1607 1.524 . S
C1609 C1606 1.403 . S
C1609 C1610 1.392 . S
C1609 C1613 1.495 . S
C1610 C1609 1.392 . S
C1610 C1611 1.385 . S
C1610 C1612 1.478 . S
C1611 H1605 0.930 . S
C1611 C1607 1.400 . S
C1611 C1610 1.385 . S
C1612 C1610 1.478 . S
C1612 C1614 1.381 . S
C1612 C1618 1.383 . S
C1613 C1609 1.495 . S
C1613 H1619 0.959 . S
C1613 H1620 0.961 . S
C1613 H1621 0.960 . S
C1614 C1612 1.381 . S
C1614 C1615 1.394 . S
C1614 H1622 0.930 . S
C1615 C1614 1.394 . S
C1615 C1616 1.383 . S
C1615 H1623 0.929 . S
C1616 C1615 1.383 . S
C1616 C1617 1.377 . S
C1617 H1601 0.930 . S
C1617 C1616 1.377 . S
C1617 C1618 1.379 . S
C1618 H1602 0.931 . S
C1618 C1612 1.383 . S
C1618 C1617 1.379 . S
H1619 C1613 0.959 . S
H1620 C1613 0.961 . S
H1621 C1613 0.960 . S
H1622 C1614 0.930 . S
H1623 C1615 0.929 . S
H1624 C1632 0.929 . S
H1625 C1634 0.930 . S
H1626 C1636 0.930 . S
H1627 C1639 0.929 . S
H1628 C1642 0.930 . S
H1629 C1644 0.960 . S
H1630 C1644 0.960 . S
H1631 C1644 0.960 . S
C1632 H1624 0.929 . S
C1632 C1633 1.377 . S
C1632 C1634 1.384 . S
C1633 C1632 1.377 . S
C1633 C1639 1.390 . S
C1634 H1625 0.930 . S
C1634 C1632 1.384 . S
C1634 C1635 1.372 . S
C1635 C1634 1.372 . S
C1635 C1636 1.400 . S
C1635 C1640 1.490 . S
C1636 H1626 0.930 . S
C1636 C1635 1.400 . S
C1636 C1639 1.386 . S
H1637 C1653 0.930 . S
H1638 C1654 0.931 . S
C1639 H1627 0.929 . S
C1639 C1633 1.390 . S
C1639 C1636 1.386 . S
C1640 C1635 1.490 . S
C1640 C1642 1.395 . S
C1640 C1643 1.403 . S
H1641 C1647 0.930 . S
C1642 H1628 0.930 . S
C1642 C1640 1.395 . S
C1642 C1645 1.403 . S
C1643 C1640 1.403 . S
C1643 C1644 1.524 . S
C1643 C1647 1.400 . S
C1644 H1629 0.960 . S
C1644 H1630 0.960 . S
C1644 H1631 0.960 . S
C1644 C1643 1.524 . S
C1645 C1642 1.403 . S
C1645 C1646 1.392 . S
C1645 C1649 1.495 . S
C1646 C1645 1.392 . S
C1646 C1647 1.385 . S
C1646 C1648 1.478 . S
C1647 H1641 0.930 . S
C1647 C1643 1.400 . S
C1647 C1646 1.385 . S
C1648 C1646 1.478 . S
C1648 C1650 1.381 . S
C1648 C1654 1.383 . S
C1649 C1645 1.495 . S
C1649 H1655 0.959 . S
C1649 H1656 0.961 . S
C1649 H1657 0.960 . S
C1650 C1648 1.381 . S
C1650 C1651 1.394 . S
C1650 H1658 0.930 . S
C1651 C1650 1.394 . S
C1651 C1652 1.383 . S
C1651 H1659 0.929 . S
C1652 C1651 1.383 . S
C1652 C1653 1.377 . S
C1653 H1637 0.930 . S
C1653 C1652 1.377 . S
C1653 C1654 1.379 . S
C1654 H1638 0.931 . S
C1654 C1648 1.383 . S
C1654 C1653 1.379 . S
H1655 C1649 0.959 . S
H1656 C1649 0.961 . S
H1657 C1649 0.960 . S
H1658 C1650 0.930 . S
H1659 C1651 0.929 . S
H1660 C1668 0.929 . S
H1661 C1670 0.930 . S
H1662 C1672 0.930 . S
H1663 C1675 0.929 . S
H1664 C1678 0.930 . S
H1665 C1680 0.960 . S
H1666 C1680 0.960 . S
H1667 C1680 0.960 . S
C1668 H1660 0.929 . S
C1668 C1669 1.377 . S
C1668 C1670 1.384 . S
C1669 C1668 1.377 . S
C1669 C1675 1.390 . S
C1670 H1661 0.930 . S
C1670 C1668 1.384 . S
C1670 C1671 1.372 . S
C1671 C1670 1.372 . S
C1671 C1672 1.400 . S
C1671 C1676 1.490 . S
C1672 H1662 0.930 . S
C1672 C1671 1.400 . S
C1672 C1675 1.386 . S
H1673 C1689 0.930 . S
H1674 C1690 0.931 . S
C1675 H1663 0.929 . S
C1675 C1669 1.390 . S
C1675 C1672 1.386 . S
C1676 C1671 1.490 . S
C1676 C1678 1.395 . S
C1676 C1679 1.403 1_655 S
H1677 C1683 0.930 . S
C1678 H1664 0.930 . S
C1678 C1676 1.395 . S
C1678 C1681 1.403 . S
C1679 C1676 1.403 1_455 S
C1679 C1680 1.524 . S
C1679 C1683 1.400 . S
C1680 H1665 0.960 . S
C1680 H1666 0.960 . S
C1680 H1667 0.960 . S
C1680 C1679 1.524 . S
C1681 C1678 1.403 . S
C1681 C1682 1.392 1_655 S
C1681 C1685 1.495 . S
C1682 C1681 1.392 1_455 S
C1682 C1683 1.385 . S
C1682 C1684 1.478 . S
C1683 H1677 0.930 . S
C1683 C1679 1.400 . S
C1683 C1682 1.385 . S
C1684 C1682 1.478 . S
C1684 C1686 1.381 . S
C1684 C1690 1.383 . S
C1685 C1681 1.495 . S
C1685 H1691 0.959 . S
C1685 H1692 0.961 . S
C1685 H1693 0.960 . S
C1686 C1684 1.381 . S
C1686 C1687 1.394 . S
C1686 H1694 0.930 . S
C1687 C1686 1.394 . S
C1687 C1688 1.383 . S
C1687 H1695 0.929 . S
C1688 C1687 1.383 . S
C1688 C1689 1.377 . S
C1689 H1673 0.930 . S
C1689 C1688 1.377 . S
C1689 C1690 1.379 . S
C1690 H1674 0.931 . S
C1690 C1684 1.383 . S
C1690 C1689 1.379 . S
H1691 C1685 0.959 . S
H1692 C1685 0.961 . S
H1693 C1685 0.960 . S
H1694 C1686 0.930 . S
H1695 C1687 0.929 . S
H1696 C1704 0.929 . S
H1697 C1706 0.930 . S
H1698 C1708 0.930 1_655 S
H1699 C1711 0.929 1_655 S
H1700 C1714 0.930 . S
H1701 C1716 0.960 . S
H1702 C1716 0.957 1_455 S
H1703 C1716 0.960 . S
C1704 H1696 0.929 . S
C1704 C1705 1.377 . S
C1704 C1706 1.384 . S
C1705 C1704 1.377 . S
C1705 C1711 1.390 . S
C1706 H1697 0.930 . S
C1706 C1704 1.384 . S
C1706 C1707 1.372 . S
C1707 C1706 1.372 . S
C1707 C1708 1.400 . S
C1707 C1712 1.490 . S
C1708 H1698 0.930 1_455 S
C1708 C1707 1.400 . S
C1708 C1711 1.386 . S
H1709 C1725 0.930 . S
H1710 C1726 0.931 . S
C1711 H1699 0.929 1_455 S
C1711 C1705 1.390 . S
C1711 C1708 1.386 . S
C1712 C1707 1.490 . S
C1712 C1714 1.395 . S
C1712 C1715 1.403 1_455 S
H1713 C1719 0.930 . S
C1714 H1700 0.930 . S
C1714 C1712 1.395 . S
C1714 C1717 1.403 . S
C1715 C1712 1.403 1_655 S
C1715 C1716 1.524 . S
C1715 C1719 1.400 . S
C1716 H1701 0.960 . S
C1716 H1702 0.957 1_655 S
C1716 H1703 0.960 . S
C1716 C1715 1.524 . S
C1717 C1714 1.403 . S
C1717 C1718 1.392 1_455 S
C1717 C1721 1.495 . S
C1718 C1717 1.392 1_655 S
C1718 C1719 1.385 . S
C1718 C1720 1.478 . S
C1719 H1713 0.930 . S
C1719 C1715 1.400 . S
C1719 C1718 1.385 . S
C1720 C1718 1.478 . S
C1720 C1722 1.375 1_655 S
C1720 C1726 1.383 . S
C1721 C1717 1.495 . S
C1721 H1727 0.959 . S
C1721 H1728 0.961 . S
C1721 H1729 0.960 . S
C1722 C1720 1.375 1_455 S
C1722 C1723 1.391 1_455 S
C1722 H1730 0.940 . S
C1723 C1722 1.391 1_655 S
C1723 C1724 1.383 . S
C1723 H1731 0.929 1_655 S
C1724 C1723 1.383 . S
C1724 C1725 1.377 . S
C1725 H1709 0.930 . S
C1725 C1724 1.377 . S
C1725 C1726 1.379 . S
C1726 H1710 0.931 . S
C1726 C1720 1.383 . S
C1726 C1725 1.379 . S
H1727 C1721 0.959 . S
H1728 C1721 0.961 . S
H1729 C1721 0.960 . S
H1730 C1722 0.940 . S
H1731 C1723 0.929 1_455 S
H1732 C1740 0.929 . S
H1733 C1742 0.930 . S
H1734 C1744 0.930 . S
H1735 C1747 0.929 . S
H1736 C1750 0.930 . S
H1737 C1752 0.960 . S
H1738 C1752 0.960 . S
H1739 C1752 0.960 . S
C1740 H1732 0.929 . S
C1740 C1741 1.377 . S
C1740 C1742 1.384 . S
C1741 C1740 1.377 . S
C1741 C1747 1.390 . S
C1742 H1733 0.930 . S
C1742 C1740 1.384 . S
C1742 C1743 1.372 . S
C1743 C1742 1.372 . S
C1743 C1744 1.400 . S
C1743 C1748 1.490 . S
C1744 H1734 0.930 . S
C1744 C1743 1.400 . S
C1744 C1747 1.386 . S
H1745 C1761 0.930 . S
H1746 C1762 0.931 . S
C1747 H1735 0.929 . S
C1747 C1741 1.390 . S
C1747 C1744 1.386 . S
C1748 C1743 1.490 . S
C1748 C1750 1.395 . S
C1748 C1751 1.403 . S
H1749 C1755 0.930 . S
C1750 H1736 0.930 . S
C1750 C1748 1.395 . S
C1750 C1753 1.403 . S
C1751 C1748 1.403 . S
C1751 C1752 1.524 . S
C1751 C1755 1.400 . S
C1752 H1737 0.960 . S
C1752 H1738 0.960 . S
C1752 H1739 0.960 . S
C1752 C1751 1.524 . S
C1753 C1750 1.403 . S
C1753 C1754 1.392 . S
C1753 C1757 1.495 . S
C1754 C1753 1.392 . S
C1754 C1755 1.385 . S
C1754 C1756 1.478 . S
C1755 H1749 0.930 . S
C1755 C1751 1.400 . S
C1755 C1754 1.385 . S
C1756 C1754 1.478 . S
C1756 C1758 1.381 . S
C1756 C1762 1.383 . S
C1757 C1753 1.495 . S
C1757 H1763 0.959 . S
C1757 H1764 0.961 . S
C1757 H1765 0.960 . S
C1758 C1756 1.381 . S
C1758 C1759 1.394 . S
C1758 H1766 0.930 . S
C1759 C1758 1.394 . S
C1759 C1760 1.383 . S
C1759 H1767 0.929 . S
C1760 C1759 1.383 . S
C1760 C1761 1.377 . S
C1761 H1745 0.930 . S
C1761 C1760 1.377 . S
C1761 C1762 1.379 . S
C1762 H1746 0.931 . S
C1762 C1756 1.383 . S
C1762 C1761 1.379 . S
H1763 C1757 0.959 . S
H1764 C1757 0.961 . S
H1765 C1757 0.960 . S
H1766 C1758 0.930 . S
H1767 C1759 0.929 . S
H1768 C1776 0.929 . S
H1769 C1778 0.930 . S
H1770 C1780 0.930 . S
H1771 C1783 0.929 . S
H1772 C1786 0.930 . S
H1773 C1788 0.960 . S
H1774 C1788 0.960 . S
H1775 C1788 0.960 . S
C1776 H1768 0.929 . S
C1776 C1777 1.377 . S
C1776 C1778 1.384 . S
C1777 C1776 1.377 . S
C1777 C1783 1.390 . S
C1778 H1769 0.930 . S
C1778 C1776 1.384 . S
C1778 C1779 1.372 . S
C1779 C1778 1.372 . S
C1779 C1780 1.400 . S
C1779 C1784 1.490 . S
C1780 H1770 0.930 . S
C1780 C1779 1.400 . S
C1780 C1783 1.386 . S
H1781 C1797 0.930 . S
H1782 C1798 0.931 . S
C1783 H1771 0.929 . S
C1783 C1777 1.390 . S
C1783 C1780 1.386 . S
C1784 C1779 1.490 . S
C1784 C1786 1.395 1_655 S
C1784 C1787 1.403 . S
H1785 C1791 0.930 . S
C1786 H1772 0.930 . S
C1786 C1784 1.395 1_455 S
C1786 C1789 1.403 . S
C1787 C1784 1.403 . S
C1787 C1788 1.524 . S
C1787 C1791 1.400 . S
C1788 H1773 0.960 . S
C1788 H1774 0.960 . S
C1788 H1775 0.960 . S
C1788 C1787 1.524 . S
C1789 C1786 1.403 . S
C1789 C1790 1.392 . S
C1789 C1793 1.495 . S
C1790 C1789 1.392 . S
C1790 C1791 1.385 1_455 S
C1790 C1792 1.478 . S
C1791 H1785 0.930 . S
C1791 C1787 1.400 . S
C1791 C1790 1.385 1_655 S
C1792 C1790 1.478 . S
C1792 C1794 1.381 . S
C1792 C1798 1.383 . S
C1793 C1789 1.495 . S
C1793 H1799 0.959 . S
C1793 H1800 0.961 . S
C1793 H1801 0.960 . S
C1794 C1792 1.381 . S
C1794 C1795 1.394 . S
C1794 H1802 0.930 . S
C1795 C1794 1.394 . S
C1795 C1796 1.383 . S
C1795 H1803 0.929 . S
C1796 C1795 1.383 . S
C1796 C1797 1.377 . S
C1797 H1781 0.930 . S
C1797 C1796 1.377 . S
C1797 C1798 1.379 . S
C1798 H1782 0.931 . S
C1798 C1792 1.383 . S
C1798 C1797 1.379 . S
H1799 C1793 0.959 . S
H1800 C1793 0.961 . S
H1801 C1793 0.960 . S
H1802 C1794 0.930 . S
H1803 C1795 0.929 . S
H1804 C1812 0.929 . S
H1805 C1814 0.930 . S
H1806 C1816 0.930 . S
H1807 C1819 0.929 . S
H1808 C1822 0.930 . S
H1809 C1824 0.960 . S
H1810 C1824 0.960 . S
H1811 C1824 0.960 . S
C1812 H1804 0.929 . S
C1812 C1813 1.377 . S
C1812 C1814 1.384 . S
C1813 C1812 1.377 . S
C1813 C1819 1.390 . S
C1814 H1805 0.930 . S
C1814 C1812 1.384 . S
C1814 C1815 1.372 . S
C1815 C1814 1.372 . S
C1815 C1816 1.400 . S
C1815 C1820 1.490 . S
C1816 H1806 0.930 . S
C1816 C1815 1.400 . S
C1816 C1819 1.386 . S
H1817 C1833 0.930 . S
H1818 C1834 0.931 . S
C1819 H1807 0.929 . S
C1819 C1813 1.390 . S
C1819 C1816 1.386 . S
C1820 C1815 1.490 . S
C1820 C1822 1.395 . S
C1820 C1823 1.403 . S
H1821 C1827 0.930 . S
C1822 H1808 0.930 . S
C1822 C1820 1.395 . S
C1822 C1825 1.403 . S
C1823 C1820 1.403 . S
C1823 C1824 1.524 . S
C1823 C1827 1.400 . S
C1824 H1809 0.960 . S
C1824 H1810 0.960 . S
C1824 H1811 0.960 . S
C1824 C1823 1.524 . S
C1825 C1822 1.403 . S
C1825 C1826 1.392 . S
C1825 C1829 1.495 . S
C1826 C1825 1.392 . S
C1826 C1827 1.385 . S
C1826 C1828 1.478 . S
C1827 H1821 0.930 . S
C1827 C1823 1.400 . S
C1827 C1826 1.385 . S
C1828 C1826 1.478 . S
C1828 C1830 1.381 . S
C1828 C1834 1.383 . S
C1829 C1825 1.495 . S
C1829 H1835 0.959 . S
C1829 H1836 0.961 . S
C1829 H1837 0.960 . S
C1830 C1828 1.381 . S
C1830 C1831 1.394 . S
C1830 H1838 0.930 . S
C1831 C1830 1.394 . S
C1831 C1832 1.383 . S
C1831 H1839 0.929 . S
C1832 C1831 1.383 . S
C1832 C1833 1.377 . S
C1833 H1817 0.930 . S
C1833 C1832 1.377 . S
C1833 C1834 1.379 . S
C1834 H1818 0.931 . S
C1834 C1828 1.383 . S
C1834 C1833 1.379 . S
H1835 C1829 0.959 . S
H1836 C1829 0.961 . S
H1837 C1829 0.960 . S
H1838 C1830 0.930 . S
H1839 C1831 0.929 . S
H1840 C1848 0.929 . S
H1841 C1850 0.930 . S
H1842 C1852 0.930 . S
H1843 C1855 0.929 . S
H1844 C1858 0.930 . S
H1845 C1860 0.960 . S
H1846 C1860 0.960 . S
H1847 C1860 0.960 . S
C1848 H1840 0.929 . S
C1848 C1849 1.377 . S
C1848 C1850 1.384 . S
C1849 C1848 1.377 . S
C1849 C1855 1.390 . S
C1850 H1841 0.930 . S
C1850 C1848 1.384 . S
C1850 C1851 1.372 . S
C1851 C1850 1.372 . S
C1851 C1852 1.400 . S
C1851 C1856 1.490 . S
C1852 H1842 0.930 . S
C1852 C1851 1.400 . S
C1852 C1855 1.386 . S
H1853 C1869 0.930 . S
H1854 C1870 0.931 . S
C1855 H1843 0.929 . S
C1855 C1849 1.390 . S
C1855 C1852 1.386 . S
C1856 C1851 1.490 . S
C1856 C1858 1.395 . S
C1856 C1859 1.403 . S
H1857 C1863 0.930 . S
C1858 H1844 0.930 . S
C1858 C1856 1.395 . S
C1858 C1861 1.403 . S
C1859 C1856 1.403 . S
C1859 C1860 1.524 . S
C1859 C1863 1.400 . S
C1860 H1845 0.960 . S
C1860 H1846 0.960 . S
C1860 H1847 0.960 . S
C1860 C1859 1.524 . S
C1861 C1858 1.403 . S
C1861 C1862 1.392 . S
C1861 C1865 1.495 . S
C1862 C1861 1.392 . S
C1862 C1863 1.385 . S
C1862 C1864 1.478 . S
C1863 H1857 0.930 . S
C1863 C1859 1.400 . S
C1863 C1862 1.385 . S
C1864 C1862 1.478 . S
C1864 C1866 1.381 . S
C1864 C1870 1.383 . S
C1865 C1861 1.495 . S
C1865 H1871 0.959 . S
C1865 H1872 0.961 . S
C1865 H1873 0.960 . S
C1866 C1864 1.381 . S
C1866 C1867 1.394 . S
C1866 H1874 0.930 . S
C1867 C1866 1.394 . S
C1867 C1868 1.383 . S
C1867 H1875 0.929 . S
C1868 C1867 1.383 . S
C1868 C1869 1.377 . S
C1869 H1853 0.930 . S
C1869 C1868 1.377 . S
C1869 C1870 1.379 . S
C1870 H1854 0.931 . S
C1870 C1864 1.383 . S
C1870 C1869 1.379 . S
H1871 C1865 0.959 . S
H1872 C1865 0.961 . S
H1873 C1865 0.960 . S
H1874 C1866 0.930 . S
H1875 C1867 0.929 . S
H1876 C1884 0.929 . S
H1877 C1886 0.930 1_655 S
H1878 C1888 0.930 . S
H1879 C1891 0.929 . S
H1880 C1894 0.930 . S
H1881 C1896 0.960 . S
H1882 C1896 0.960 . S
H1883 C1896 0.960 . S
C1884 H1876 0.929 . S
C1884 C1885 1.377 . S
C1884 C1886 1.384 . S
C1885 C1884 1.377 . S
C1885 C1891 1.390 . S
C1886 H1877 0.930 1_455 S
C1886 C1884 1.384 . S
C1886 C1887 1.372 . S
C1887 C1886 1.372 . S
C1887 C1888 1.400 . S
C1887 C1892 1.490 . S
C1888 H1878 0.930 . S
C1888 C1887 1.400 . S
C1888 C1891 1.386 . S
H1889 C1905 0.930 . S
H1890 C1906 0.931 1_455 S
C1891 H1879 0.929 . S
C1891 C1885 1.390 . S
C1891 C1888 1.386 . S
C1892 C1887 1.490 . S
C1892 C1894 1.395 1_455 S
C1892 C1895 1.403 . S
H1893 C1899 0.930 . S
C1894 H1880 0.930 . S
C1894 C1892 1.395 1_655 S
C1894 C1897 1.403 . S
C1895 C1892 1.403 . S
C1895 C1896 1.524 . S
C1895 C1899 1.400 . S
C1896 H1881 0.960 . S
C1896 H1882 0.960 . S
C1896 H1883 0.960 . S
C1896 C1895 1.524 . S
C1897 C1894 1.403 . S
C1897 C1898 1.392 . S
C1897 C1901 1.495 . S
C1898 C1897 1.392 . S
C1898 C1899 1.385 1_655 S
C1898 C1900 1.478 . S
C1899 H1893 0.930 . S
C1899 C1895 1.400 . S
C1899 C1898 1.385 1_455 S
C1900 C1898 1.478 . S
C1900 C1902 1.381 . S
C1900 C1906 1.383 . S
C1901 C1897 1.495 . S
C1901 H1907 0.959 . S
C1901 H1908 0.961 . S
C1901 H1909 0.960 . S
C1902 C1900 1.381 . S
C1902 C1903 1.394 . S
C1902 H1910 0.930 . S
C1903 C1902 1.394 . S
C1903 C1904 1.383 . S
C1903 H1911 0.929 . S
C1904 C1903 1.383 . S
C1904 C1905 1.377 . S
C1905 H1889 0.930 . S
C1905 C1904 1.377 . S
C1905 C1906 1.379 . S
C1906 H1890 0.931 1_655 S
C1906 C1900 1.383 . S
C1906 C1905 1.379 . S
H1907 C1901 0.959 . S
H1908 C1901 0.961 . S
H1909 C1901 0.960 . S
H1910 C1902 0.930 . S
H1911 C1903 0.929 . S
H1912 C1920 0.929 . S
H1913 C1922 0.930 . S
H1914 C1924 0.930 . S
H1915 C1927 0.929 . S
H1916 C1930 0.930 . S
H1917 C1932 0.960 . S
H1918 C1932 0.960 . S
H1919 C1932 0.960 . S
C1920 H1912 0.929 . S
C1920 C1921 1.377 . S
C1920 C1922 1.384 . S
C1921 C1920 1.377 . S
C1921 C1927 1.390 . S
C1922 H1913 0.930 . S
C1922 C1920 1.384 . S
C1922 C1923 1.372 . S
C1923 C1922 1.372 . S
C1923 C1924 1.400 . S
C1923 C1928 1.490 . S
C1924 H1914 0.930 . S
C1924 C1923 1.400 . S
C1924 C1927 1.386 . S
H1925 C1941 0.930 . S
H1926 C1942 0.931 . S
C1927 H1915 0.929 . S
C1927 C1921 1.390 . S
C1927 C1924 1.386 . S
C1928 C1923 1.490 . S
C1928 C1930 1.395 . S
C1928 C1931 1.403 . S
H1929 C1935 0.930 . S
C1930 H1916 0.930 . S
C1930 C1928 1.395 . S
C1930 C1933 1.403 . S
C1931 C1928 1.403 . S
C1931 C1932 1.524 . S
C1931 C1935 1.400 . S
C1932 H1917 0.960 . S
C1932 H1918 0.960 . S
C1932 H1919 0.960 . S
C1932 C1931 1.524 . S
C1933 C1930 1.403 . S
C1933 C1934 1.392 . S
C1933 C1937 1.495 . S
C1934 C1933 1.392 . S
C1934 C1935 1.385 . S
C1934 C1936 1.478 . S
C1935 H1929 0.930 . S
C1935 C1931 1.400 . S
C1935 C1934 1.385 . S
C1936 C1934 1.478 . S
C1936 C1938 1.381 . S
C1936 C1942 1.383 . S
C1937 C1933 1.495 . S
C1937 H1943 0.959 . S
C1937 H1944 0.961 . S
C1937 H1945 0.960 . S
C1938 C1936 1.381 . S
C1938 C1939 1.394 . S
C1938 H1946 0.930 . S
C1939 C1938 1.394 . S
C1939 C1940 1.383 . S
C1939 H1947 0.929 . S
C1940 C1939 1.383 . S
C1940 C1941 1.377 . S
C1941 H1925 0.930 . S
C1941 C1940 1.377 . S
C1941 C1942 1.379 . S
C1942 H1926 0.931 . S
C1942 C1936 1.383 . S
C1942 C1941 1.379 . S
H1943 C1937 0.959 . S
H1944 C1937 0.961 . S
H1945 C1937 0.960 . S
H1946 C1938 0.930 . S
H1947 C1939 0.929 . S
H1948 C1956 0.929 . S
H1949 C1958 0.930 . S
H1950 C1960 0.930 . S
H1951 C1963 0.929 . S
H1952 C1966 0.930 . S
H1953 C1968 0.960 . S
H1954 C1968 0.960 . S
H1955 C1968 0.960 . S
C1956 H1948 0.929 . S
C1956 C1957 1.377 . S
C1956 C1958 1.384 . S
C1957 C1956 1.377 . S
C1957 C1963 1.390 . S
C1958 H1949 0.930 . S
C1958 C1956 1.384 . S
C1958 C1959 1.372 . S
C1959 C1958 1.372 . S
C1959 C1960 1.400 . S
C1959 C1964 1.490 . S
C1960 H1950 0.930 . S
C1960 C1959 1.400 . S
C1960 C1963 1.386 . S
H1961 C1977 0.930 . S
H1962 C1978 0.931 . S
C1963 H1951 0.929 . S
C1963 C1957 1.390 . S
C1963 C1960 1.386 . S
C1964 C1959 1.490 . S
C1964 C1966 1.395 1_455 S
C1964 C1967 1.403 . S
H1965 C1971 0.930 . S
C1966 H1952 0.930 . S
C1966 C1964 1.395 1_655 S
C1966 C1969 1.403 . S
C1967 C1964 1.403 . S
C1967 C1968 1.524 . S
C1967 C1971 1.400 . S
C1968 H1953 0.960 . S
C1968 H1954 0.960 . S
C1968 H1955 0.960 . S
C1968 C1967 1.524 . S
C1969 C1966 1.403 . S
C1969 C1970 1.392 . S
C1969 C1973 1.495 . S
C1970 C1969 1.392 . S
C1970 C1971 1.385 1_655 S
C1970 C1972 1.478 . S
C1971 H1965 0.930 . S
C1971 C1967 1.400 . S
C1971 C1970 1.385 1_455 S
C1972 C1970 1.478 . S
C1972 C1974 1.381 . S
C1972 C1978 1.383 . S
C1973 C1969 1.495 . S
C1973 H1979 0.959 . S
C1973 H1980 0.961 . S
C1973 H1981 0.960 . S
C1974 C1972 1.381 . S
C1974 C1975 1.394 . S
C1974 H1982 0.930 . S
C1975 C1974 1.394 . S
C1975 C1976 1.383 . S
C1975 H1983 0.929 . S
C1976 C1975 1.383 . S
C1976 C1977 1.377 . S
C1977 H1961 0.930 . S
C1977 C1976 1.377 . S
C1977 C1978 1.379 . S
C1978 H1962 0.931 . S
C1978 C1972 1.383 . S
C1978 C1977 1.379 . S
H1979 C1973 0.959 . S
H1980 C1973 0.961 . S
H1981 C1973 0.960 . S
H1982 C1974 0.930 . S
H1983 C1975 0.929 . S
C553 C203 0.993 . S
C572 C20 0.986 . S
C589 C169 0.997 . S
C608 C54 1.000 . S
C625 C88 0.997 . S
C644 C271 0.995 . S
C661 C122 0.997 . S
C680 C237 0.989 . S
C697 C156 0.992 . S
C716 C67 0.990 . S
C733 C190 0.997 . S
C752 C33 1.015 . S
C769 C135 0.995 . S
C788 C224 0.983 . S
C805 C258 0.992 . S
C824 C101 0.988 . S
C841 C292 0.993 . S
C860 C475 1.021 . S
C877 C326 0.994 . S
C896 C441 1.005 . S
C913 C360 0.997 . S
C932 C543 0.994 . S
C949 C394 0.996 . S
C968 C509 1.001 . S
C985 C428 0.997 . S
C1004 C339 1.011 . S
C1021 C462 0.991 . S
C1040 C305 0.984 . S
C1057 C407 0.997 . S
C1076 C496 0.998 . S
C1093 C373 0.995 . S
C1112 C530 0.998 . S
C1129 C9 1.429 . S
C1148 C43 1.409 . S
C1165 C77 1.436 . S
C1184 C111 1.405 . S
C1201 C179 1.436 . S
C1220 C145 1.435 . S
C1237 C247 1.432 . S
C1256 C213 1.432 . S
C1273 C315 1.440 . S
C1292 C281 1.433 . S
C1309 C383 1.440 . S
C1328 C349 1.449 . S
C1345 C417 1.428 . S
C1364 C451 1.461 . S
C1381 C485 1.429 . S
C1400 C519 1.450 . S
C1417 C311 1.576 . S
C1436 C5 1.566 . S
C1453 C39 1.580 . S
C1472 C277 1.585 . S
C1489 C73 1.577 . S
C1508 C379 1.568 . S
C1525 C345 1.576 . S
C1544 C107 1.565 . S
C1561 C141 1.578 . S
C1580 C447 1.577 . S
C1597 C175 1.576 . S
C1616 C413 1.585 . S
C1633 C209 1.576 . S
C1652 C515 1.578 . S
C1669 C481 1.578 . S
C1688 C243 1.570 . S
C1705 C2 1.373 . S
C1724 C104 1.364 . S
C1741 C36 1.373 . S
C1760 C70 1.373 . S
C1777 C138 1.373 . S
C1796 C240 1.367 . S
C1813 C172 1.373 . S
C1832 C206 1.363 . S
C1849 C376 1.372 . S
C1868 C274 1.363 . S
C1885 C342 1.371 . S
C1904 C308 1.371 . S
C1921 C410 1.371 . S
C1940 C512 1.370 . S
C1957 C444 1.373 . S
C1976 C478 1.367 . S
