# Generated by pormake.
# Topology zfm, (5)-cn, num edge types: 1
# Building blocks:
#     Node 0, Type 0, BuildingBlock: BEQFEK_clean_sbu_0, # of connection points: 5
#     Node 1, Type 0, BuildingBlock: BEQFEK_clean_sbu_0, # of connection points: 5
#     Node 2, Type 0, BuildingBlock: BEQFEK_clean_sbu_0, # of connection points: 5
#     Node 3, Type 0, BuildingBlock: BEQFEK_clean_sbu_0, # of connection points: 5
#     Node 4, Type 0, BuildingBlock: BEQFEK_clean_sbu_0, # of connection points: 5
#     Node 5, Type 0, BuildingBlock: BEQFEK_clean_sbu_0, # of connection points: 5
#     Node 6, Type 0, BuildingBlock: BEQFEK_clean_sbu_0, # of connection points: 5
#     Node 7, Type 0, BuildingBlock: BEQFEK_clean_sbu_0, # of connection points: 5
#     Node 8, Type 0, BuildingBlock: BEQFEK_clean_sbu_0, # of connection points: 5
#     Node 9, Type 0, BuildingBlock: BEQFEK_clean_sbu_0, # of connection points: 5
#     Node 10, Type 0, BuildingBlock: BEQFEK_clean_sbu_0, # of connection points: 5
#     Node 11, Type 0, BuildingBlock: BEQFEK_clean_sbu_0, # of connection points: 5
#     Node 12, Type 0, BuildingBlock: BEQFEK_clean_sbu_0, # of connection points: 5
#     Node 13, Type 0, BuildingBlock: BEQFEK_clean_sbu_0, # of connection points: 5
#     Node 14, Type 0, BuildingBlock: BEQFEK_clean_sbu_0, # of connection points: 5
#     Node 15, Type 0, BuildingBlock: BEQFEK_clean_sbu_0, # of connection points: 5
#     Edge 16, Type (0, 0), BuildingBlock: UVAHIK_clean_linker_0, # of connection points: 2
#     Edge 17, Type (0, 0), BuildingBlock: UVAHIK_clean_linker_0, # of connection points: 2
#     Edge 18, Type (0, 0), BuildingBlock: UVAHIK_clean_linker_0, # of connection points: 2
#     Edge 19, Type (0, 0), BuildingBlock: UVAHIK_clean_linker_0, # of connection points: 2
#     Edge 20, Type (0, 0), BuildingBlock: UVAHIK_clean_linker_0, # of connection points: 2
#     Edge 21, Type (0, 0), BuildingBlock: UVAHIK_clean_linker_0, # of connection points: 2
#     Edge 22, Type (0, 0), BuildingBlock: UVAHIK_clean_linker_0, # of connection points: 2
#     Edge 23, Type (0, 0), BuildingBlock: UVAHIK_clean_linker_0, # of connection points: 2
#     Edge 24, Type (0, 0), BuildingBlock: UVAHIK_clean_linker_0, # of connection points: 2
#     Edge 25, Type (0, 0), BuildingBlock: UVAHIK_clean_linker_0, # of connection points: 2
#     Edge 26, Type (0, 0), BuildingBlock: UVAHIK_clean_linker_0, # of connection points: 2
#     Edge 27, Type (0, 0), BuildingBlock: UVAHIK_clean_linker_0, # of connection points: 2
#     Edge 28, Type (0, 0), BuildingBlock: UVAHIK_clean_linker_0, # of connection points: 2
#     Edge 29, Type (0, 0), BuildingBlock: UVAHIK_clean_linker_0, # of connection points: 2
#     Edge 30, Type (0, 0), BuildingBlock: UVAHIK_clean_linker_0, # of connection points: 2
#     Edge 31, Type (0, 0), BuildingBlock: UVAHIK_clean_linker_0, # of connection points: 2
#     Edge 32, Type (0, 0), BuildingBlock: UVAHIK_clean_linker_0, # of connection points: 2
#     Edge 33, Type (0, 0), BuildingBlock: UVAHIK_clean_linker_0, # of connection points: 2
#     Edge 34, Type (0, 0), BuildingBlock: UVAHIK_clean_linker_0, # of connection points: 2
#     Edge 35, Type (0, 0), BuildingBlock: UVAHIK_clean_linker_0, # of connection points: 2
#     Edge 36, Type (0, 0), BuildingBlock: UVAHIK_clean_linker_0, # of connection points: 2
#     Edge 37, Type (0, 0), BuildingBlock: UVAHIK_clean_linker_0, # of connection points: 2
#     Edge 38, Type (0, 0), BuildingBlock: UVAHIK_clean_linker_0, # of connection points: 2
#     Edge 39, Type (0, 0), BuildingBlock: UVAHIK_clean_linker_0, # of connection points: 2
#     Edge 40, Type (0, 0), BuildingBlock: UVAHIK_clean_linker_0, # of connection points: 2
#     Edge 41, Type (0, 0), BuildingBlock: UVAHIK_clean_linker_0, # of connection points: 2
#     Edge 42, Type (0, 0), BuildingBlock: UVAHIK_clean_linker_0, # of connection points: 2
#     Edge 43, Type (0, 0), BuildingBlock: UVAHIK_clean_linker_0, # of connection points: 2
#     Edge 44, Type (0, 0), BuildingBlock: UVAHIK_clean_linker_0, # of connection points: 2
#     Edge 45, Type (0, 0), BuildingBlock: UVAHIK_clean_linker_0, # of connection points: 2
#     Edge 46, Type (0, 0), BuildingBlock: UVAHIK_clean_linker_0, # of connection points: 2
#     Edge 47, Type (0, 0), BuildingBlock: UVAHIK_clean_linker_0, # of connection points: 2
#     Edge 48, Type (0, 0), BuildingBlock: UVAHIK_clean_linker_0, # of connection points: 2
#     Edge 49, Type (0, 0), BuildingBlock: UVAHIK_clean_linker_0, # of connection points: 2
#     Edge 50, Type (0, 0), BuildingBlock: UVAHIK_clean_linker_0, # of connection points: 2
#     Edge 51, Type (0, 0), BuildingBlock: UVAHIK_clean_linker_0, # of connection points: 2
#     Edge 52, Type (0, 0), BuildingBlock: UVAHIK_clean_linker_0, # of connection points: 2
#     Edge 53, Type (0, 0), BuildingBlock: UVAHIK_clean_linker_0, # of connection points: 2
#     Edge 54, Type (0, 0), BuildingBlock: UVAHIK_clean_linker_0, # of connection points: 2
#     Edge 55, Type (0, 0), BuildingBlock: UVAHIK_clean_linker_0, # of connection points: 2
# Relax obj value: 0.146
# Max RMSD: 0.197
# Mean RMSD: 0.197
data_MOF--net-zfm--node1-BEQFEK_clean_sbu_0--edge1-UVAHIK_clean_linker_0
_symmetry_space_group_name_H-M    P1
_symmetry_Int_Tables_number       1
_symmetry_cell_setting            triclinic
loop_
_symmetry_equiv_pos_as_xyz
'x, y, z'
_cell_length_a     36.254654
_cell_length_b     36.252847
_cell_length_c     93.946152
_cell_angle_alpha  90.008595
_cell_angle_beta   90.002231
_cell_angle_gamma 90.037647
loop_
_atom_site_label
_atom_site_type_symbol
_atom_site_fract_x
_atom_site_fract_y
_atom_site_fract_z
_atom_type_partial_charge
Co0 Co 0.45636 0.08264 0.14664 0.0
Co1 Co 0.45859 0.08941 0.11321 0.0
C2 C 0.42371 0.0246 0.12772 0.0
O3 O 0.4319 0.03705 0.13998 0.0
O4 O 0.43255 0.04198 0.11644 0.0
C5 C 0.46564 0.04768 0.17368 0.0
O6 O 0.46767 0.01781 0.1658 0.0
C7 C 0.47229 0.06859 0.0835 0.0
C8 C 0.47426 0.1228 0.07278 0.0
C9 C 0.47682 0.08519 0.07028 0.0
N10 N 0.46709 0.09515 0.09328 0.0
N11 N 0.46819 0.12748 0.0868 0.0
C12 C 0.47545 0.0285 0.08708 0.0
H13 H 0.48581 0.02506 0.09812 0.0
H14 H 0.49427 0.01422 0.07957 0.0
H15 H 0.44775 0.01557 0.08641 0.0
C16 C 0.53719 0.09012 0.14262 0.0
N17 N 0.50248 0.08926 0.13753 0.0
N18 N 0.50346 0.09233 0.12357 0.0
C19 C 0.53885 0.09564 0.11936 0.0
C20 C 0.56135 0.09441 0.1313 0.0
C21 C 0.54701 0.08588 0.158 0.0
H22 H 0.52956 0.10446 0.16452 0.0
H23 H 0.54136 0.05709 0.16135 0.0
H24 H 0.57653 0.0923 0.15993 0.0
O25 O 0.42233 0.12427 0.14259 0.0
O26 O 0.42444 0.12893 0.11903 0.0
H27 H 0.53851 0.12105 0.09883 0.0
H28 H 0.58138 0.09823 0.10311 0.0
C29 C 0.55096 0.09674 0.10414 0.0
H30 H 0.54105 0.07161 0.09861 0.0
H31 H 0.46491 0.15275 0.09197 0.0
O32 O 0.46187 0.07885 0.16764 0.0
C33 C 0.41191 0.13942 0.13103 0.0
Co34 Co 0.41521 0.4604 0.64759 0.0
Co35 Co 0.40468 0.45927 0.61424 0.0
C36 C 0.47037 0.42448 0.62845 0.0
O37 O 0.45961 0.43389 0.64083 0.0
O38 O 0.45188 0.43303 0.61741 0.0
C39 C 0.45046 0.46703 0.67495 0.0
O40 O 0.48073 0.46304 0.66742 0.0
C41 C 0.42519 0.47302 0.58459 0.0
C42 C 0.37192 0.46775 0.57335 0.0
C43 C 0.40914 0.47452 0.57117 0.0
N44 N 0.39875 0.46552 0.59418 0.0
N45 N 0.36697 0.46227 0.5874 0.0
C46 C 0.46443 0.48081 0.5885 0.0
H47 H 0.46603 0.49163 0.59953 0.0
H48 H 0.47689 0.50098 0.58102 0.0
H49 H 0.48044 0.45477 0.58801 0.0
C50 C 0.4091 0.54114 0.64221 0.0
N51 N 0.409 0.50581 0.63773 0.0
N52 N 0.40331 0.50511 0.6239 0.0
C53 C 0.39861 0.53985 0.61918 0.0
C54 C 0.40244 0.56399 0.63058 0.0
C55 C 0.41826 0.55249 0.65711 0.0
H56 H 0.44225 0.5364 0.66095 0.0
H57 H 0.42491 0.58228 0.65785 0.0
H58 H 0.39448 0.54618 0.66414 0.0
O59 O 0.37242 0.42671 0.64446 0.0
O60 O 0.36512 0.42653 0.62099 0.0
H61 H 0.37748 0.57787 0.60335 0.0
H62 H 0.4135 0.54713 0.59734 0.0
C63 C 0.38864 0.54947 0.60416 0.0
H64 H 0.36751 0.52997 0.60017 0.0
H65 H 0.34191 0.45642 0.59238 0.0
O66 O 0.4195 0.46792 0.66858 0.0
C67 C 0.35578 0.4154 0.63332 0.0
Co68 Co 0.04078 0.41304 0.14701 0.0
Co69 Co 0.03947 0.41578 0.11349 0.0
C70 C 0.07688 0.4744 0.12989 0.0
O71 O 0.0687 0.45778 0.14141 0.0
O72 O 0.06626 0.46208 0.11787 0.0
C73 C 0.02966 0.4463 0.17405 0.0
O74 O 0.02724 0.47616 0.16619 0.0
C75 C 0.03017 0.43814 0.08344 0.0
C76 C 0.02129 0.38419 0.07301 0.0
C77 C 0.02379 0.42166 0.07031 0.0
N78 N 0.03102 0.41157 0.09344 0.0
N79 N 0.0257 0.37943 0.08712 0.0
C80 C 0.03836 0.47784 0.08646 0.0
H81 H 0.067 0.48011 0.09051 0.0
H82 H 0.01963 0.488 0.09494 0.0
H83 H 0.03588 0.49542 0.07687 0.0
C84 C 0.96041 0.4058 0.14251 0.0
N85 N 0.99497 0.40998 0.13755 0.0
N86 N 0.99406 0.4129 0.1236 0.0
C87 C 0.95864 0.41186 0.11925 0.0
C88 C 0.93603 0.40699 0.13109 0.0
C89 C 0.95144 0.39872 0.15782 0.0
H90 H 0.97316 0.38133 0.16271 0.0
H91 H 0.95058 0.42539 0.16361 0.0
H92 H 0.92439 0.38469 0.15897 0.0
O93 O 0.07185 0.37043 0.14232 0.0
O94 O 0.0728 0.37413 0.11872 0.0
H95 H 0.95054 0.3926 0.09798 0.0
H96 H 0.91751 0.42704 0.10356 0.0
C97 C 0.94679 0.41836 0.10419 0.0
H98 H 0.9641 0.44019 0.09935 0.0
H99 H 0.02527 0.35418 0.09245 0.0
O100 O 0.03448 0.4153 0.168 0.0
C101 C 0.08322 0.35895 0.13029 0.0
Co102 Co 0.0803 0.04068 0.64777 0.0
Co103 Co 0.08548 0.04307 0.61419 0.0
C104 C 0.02282 0.07824 0.62998 0.0
O105 O 0.03614 0.06836 0.64191 0.0
O106 O 0.03862 0.0697 0.61833 0.0
C107 C 0.04619 0.03261 0.67509 0.0
O108 O 0.01586 0.03546 0.66752 0.0
C109 C 0.06486 0.02703 0.58429 0.0
C110 C 0.1167 0.04057 0.57309 0.0
C111 C 0.08086 0.02857 0.57081 0.0
N112 N 0.09022 0.03744 0.59397 0.0
N113 N 0.12113 0.04537 0.58719 0.0
C114 C 0.02572 0.01781 0.58793 0.0
H115 H 0.01862 0.02754 0.59875 0.0
H116 H 0.02206 0.98744 0.58773 0.0
H117 H 0.00662 0.0302 0.58003 0.0
C118 C 0.08595 0.9604 0.642 0.0
N119 N 0.08458 0.99571 0.63758 0.0
N120 N 0.08832 0.99672 0.62365 0.0
C121 C 0.09347 0.9621 0.6188 0.0
C122 C 0.09183 0.9378 0.63024 0.0
C123 C 0.07917 0.9488 0.65706 0.0
H124 H 0.05555 0.96447 0.66144 0.0
H125 H 0.07292 0.91895 0.6579 0.0
H126 H 0.10387 0.95533 0.66357 0.0
O127 O 0.12326 0.07342 0.64419 0.0
O128 O 0.1259 0.07573 0.62058 0.0
H129 H 0.11582 0.92533 0.60282 0.0
H130 H 0.07697 0.95288 0.59726 0.0
C131 C 0.10262 0.95283 0.60368 0.0
H132 H 0.12172 0.97375 0.59926 0.0
H133 H 0.1452 0.05447 0.59217 0.0
O134 O 0.07721 0.03273 0.66875 0.0
C135 C 0.13776 0.08564 0.63276 0.0
Co136 Co 0.4542 0.41848 0.85563 0.0
Co137 Co 0.45739 0.41731 0.88925 0.0
C138 C 0.42137 0.47909 0.87369 0.0
O139 O 0.42917 0.46471 0.86168 0.0
O140 O 0.43109 0.46386 0.88531 0.0
C141 C 0.4669 0.4506 0.82826 0.0
O142 O 0.47294 0.48032 0.83592 0.0
C143 C 0.46807 0.43827 0.91948 0.0
C144 C 0.4802 0.38413 0.92922 0.0
C145 C 0.47672 0.4213 0.93233 0.0
N146 N 0.46708 0.4123 0.90924 0.0
N147 N 0.47423 0.38002 0.91516 0.0
C148 C 0.45831 0.47786 0.91699 0.0
H149 H 0.43077 0.47932 0.91191 0.0
H150 H 0.47855 0.49029 0.90954 0.0
H151 H 0.45731 0.49401 0.92699 0.0
C152 C 0.53482 0.40828 0.85952 0.0
N153 N 0.50049 0.41275 0.86472 0.0
N154 N 0.50204 0.41434 0.8787 0.0
C155 C 0.53757 0.41228 0.88283 0.0
C156 C 0.55962 0.40789 0.87082 0.0
C157 C 0.54321 0.40275 0.84407 0.0
H158 H 0.52098 0.38637 0.83899 0.0
H159 H 0.54454 0.43002 0.83873 0.0
H160 H 0.56992 0.38832 0.84258 0.0
O161 O 0.42101 0.37715 0.86042 0.0
O162 O 0.42319 0.3766 0.88405 0.0
H163 H 0.5469 0.39187 0.90387 0.0
H164 H 0.57945 0.42678 0.89833 0.0
C165 C 0.55018 0.41799 0.89785 0.0
H166 H 0.53314 0.43952 0.903 0.0
H167 H 0.47511 0.35515 0.90958 0.0
O168 O 0.45928 0.42048 0.83455 0.0
C169 C 0.41079 0.36388 0.87234 0.0
Co170 Co 0.08432 0.45648 0.3539 0.0
Co171 Co 0.08095 0.45823 0.38742 0.0
C172 C 0.0221 0.42148 0.3709 0.0
O173 O 0.039 0.4293 0.3594 0.0
O174 O 0.03437 0.43209 0.38293 0.0
C175 C 0.05183 0.46842 0.32681 0.0
O176 O 0.02201 0.47186 0.33464 0.0
C177 C 0.05883 0.46671 0.41756 0.0
C178 C 0.11231 0.48009 0.42763 0.0
C179 C 0.07519 0.47516 0.43055 0.0
N180 N 0.08509 0.46716 0.40744 0.0
N181 N 0.11697 0.47506 0.41355 0.0
C182 C 0.01973 0.45553 0.41483 0.0
H183 H 0.01952 0.42778 0.40988 0.0
H184 H 0.00701 0.47507 0.40718 0.0
H185 H 0.00311 0.45431 0.42471 0.0
C186 C 0.09257 0.53691 0.35832 0.0
N187 N 0.08792 0.5024 0.3633 0.0
N188 N 0.0846 0.50345 0.37723 0.0
C189 C 0.08575 0.53889 0.38155 0.0
C190 C 0.09126 0.56138 0.36972 0.0
C191 C 0.10002 0.54577 0.34303 0.0
H192 H 0.11715 0.52378 0.33818 0.0
H193 H 0.07346 0.54705 0.33718 0.0
H194 H 0.11447 0.5726 0.34192 0.0
O195 O 0.12621 0.42459 0.35881 0.0
O196 O 0.12216 0.42417 0.3824 0.0
H197 H 0.1042 0.5483 0.40284 0.0
H198 H 0.06898 0.58003 0.39696 0.0
C199 C 0.07849 0.55099 0.39653 0.0
H200 H 0.05703 0.53323 0.40138 0.0
H201 H 0.14194 0.47706 0.40809 0.0
O202 O 0.0826 0.46263 0.3329 0.0
C203 C 0.13727 0.4132 0.37089 0.0
Co204 Co 0.0412 0.08616 0.85523 0.0
Co205 Co 0.03992 0.08329 0.88872 0.0
C206 C 0.0767 0.02438 0.87219 0.0
O207 O 0.06843 0.04081 0.86064 0.0
O208 O 0.0665 0.03706 0.8842 0.0
C209 C 0.02727 0.05422 0.82811 0.0
O210 O 0.02159 0.02472 0.83594 0.0
C211 C 0.02963 0.05955 0.91851 0.0
C212 C 0.02351 0.11313 0.92946 0.0
C213 C 0.02435 0.0754 0.93185 0.0
N214 N 0.03201 0.08671 0.9088 0.0
N215 N 0.0284 0.11865 0.91543 0.0
C216 C 0.02947 0.01943 0.91476 0.0
H217 H 0.05803 0.00859 0.91544 0.0
H218 H 0.01945 0.01546 0.9037 0.0
H219 H 0.01166 0.0036 0.92218 0.0
C220 C 0.96072 0.09435 0.85981 0.0
N221 N 0.9953 0.08971 0.86472 0.0
N222 N 0.99445 0.08681 0.87867 0.0
C223 C 0.9591 0.08844 0.88308 0.0
C224 C 0.93643 0.0936 0.87127 0.0
C225 C 0.95162 0.10147 0.84452 0.0
H226 H 0.97363 0.11833 0.83953 0.0
H227 H 0.94998 0.07477 0.83878 0.0
H228 H 0.92487 0.11606 0.84343 0.0
O229 O 0.07313 0.12821 0.86007 0.0
O230 O 0.07357 0.1248 0.88367 0.0
H231 H 0.95235 0.1079 0.90439 0.0
H232 H 0.91777 0.0748 0.89893 0.0
C233 C 0.94733 0.08237 0.89817 0.0
H234 H 0.9638 0.05983 0.90292 0.0
H235 H 0.02918 0.14423 0.91035 0.0
O236 O 0.03508 0.08453 0.83423 0.0
C237 C 0.08444 0.13969 0.87211 0.0
Co238 Co 0.40956 0.04089 0.35368 0.0
Co239 Co 0.41412 0.04023 0.38715 0.0
C240 C 0.47258 0.0761 0.37014 0.0
O241 O 0.45532 0.06805 0.35874 0.0
O242 O 0.46056 0.06598 0.38227 0.0
C243 C 0.44061 0.02597 0.32656 0.0
O244 O 0.47023 0.02055 0.33434 0.0
C245 C 0.4375 0.03296 0.41717 0.0
C246 C 0.38437 0.02081 0.42772 0.0
C247 C 0.42166 0.02554 0.43033 0.0
N248 N 0.41078 0.03217 0.40724 0.0
N249 N 0.37911 0.02498 0.41363 0.0
C250 C 0.47658 0.04358 0.41407 0.0
H251 H 0.47687 0.07148 0.40925 0.0
H252 H 0.48843 0.0241 0.40619 0.0
H253 H 0.49392 0.04423 0.42377 0.0
C254 C 0.40152 0.96047 0.35859 0.0
N255 N 0.4062 0.99522 0.36332 0.0
N256 N 0.41006 0.99471 0.37724 0.0
C257 C 0.40926 0.95946 0.38178 0.0
C258 C 0.4034 0.93647 0.37012 0.0
C259 C 0.39361 0.9509 0.34339 0.0
H260 H 0.37651 0.97276 0.33843 0.0
H261 H 0.42001 0.94908 0.33746 0.0
H262 H 0.37896 0.92411 0.34255 0.0
O263 O 0.36792 0.07312 0.35866 0.0
O264 O 0.37276 0.07408 0.38222 0.0
H265 H 0.39201 0.95094 0.40328 0.0
H266 H 0.42704 0.91906 0.39733 0.0
C267 C 0.41738 0.94804 0.39677 0.0
H268 H 0.43903 0.96608 0.40133 0.0
H269 H 0.35386 0.02296 0.40835 0.0
O270 O 0.41045 0.03409 0.33271 0.0
C271 C 0.35726 0.08477 0.37076 0.0
Co272 Co 0.54149 0.91625 0.8548 0.0
Co273 Co 0.5408 0.91715 0.88828 0.0
C274 C 0.57545 0.97819 0.87209 0.0
O275 O 0.56699 0.96246 0.86041 0.0
O276 O 0.56628 0.96424 0.88401 0.0
C277 C 0.56146 0.92987 0.82641 0.0
O278 O 0.592 0.94009 0.83282 0.0
C279 C 0.53036 0.93955 0.91818 0.0
C280 C 0.52453 0.88553 0.92883 0.0
C281 C 0.52501 0.92317 0.93141 0.0
N282 N 0.53312 0.91276 0.90833 0.0
N283 N 0.5297 0.88056 0.91478 0.0
C284 C 0.52976 0.97981 0.91466 0.0
H285 H 0.51937 0.98409 0.90367 0.0
H286 H 0.51206 0.99521 0.92224 0.0
H287 H 0.55826 0.99089 0.91527 0.0
C288 C 0.46146 0.90604 0.85942 0.0
N289 N 0.49599 0.91079 0.86434 0.0
N290 N 0.49524 0.91293 0.87831 0.0
C291 C 0.45992 0.91066 0.88273 0.0
C292 C 0.43722 0.90594 0.8709 0.0
C293 C 0.45244 0.90009 0.84404 0.0
H294 H 0.47389 0.88258 0.83903 0.0
H295 H 0.45227 0.92711 0.83849 0.0
H296 H 0.42515 0.88665 0.84272 0.0
O297 O 0.57486 0.87518 0.85926 0.0
O298 O 0.57547 0.8768 0.88288 0.0
H299 H 0.45353 0.89041 0.90395 0.0
H300 H 0.41851 0.92321 0.8987 0.0
C301 C 0.44815 0.91608 0.89787 0.0
H302 H 0.46438 0.93867 0.90272 0.0
H303 H 0.5307 0.85517 0.90955 0.0
O304 O 0.53475 0.91795 0.83387 0.0
C305 C 0.58664 0.86315 0.87114 0.0
Co306 Co 0.58579 0.54148 0.35609 0.0
Co307 Co 0.58266 0.53875 0.38959 0.0
C308 C 0.52415 0.57662 0.37321 0.0
O309 O 0.54068 0.56871 0.36165 0.0
O310 O 0.53664 0.56592 0.38518 0.0
C311 C 0.55341 0.52976 0.32895 0.0
O312 O 0.52377 0.52514 0.3368 0.0
C313 C 0.55832 0.52706 0.41924 0.0
C314 C 0.61167 0.5206 0.43032 0.0
C315 C 0.57389 0.52127 0.4326 0.0
N316 N 0.58569 0.52989 0.40962 0.0
N317 N 0.61748 0.52606 0.41633 0.0
C318 C 0.51828 0.52703 0.41535 0.0
H319 H 0.51459 0.51759 0.40421 0.0
H320 H 0.50233 0.50881 0.42258 0.0
H321 H 0.50738 0.55553 0.41621 0.0
C322 C 0.59315 0.46089 0.36009 0.0
N323 N 0.58887 0.49523 0.36527 0.0
N324 N 0.58594 0.4937 0.37922 0.0
C325 C 0.58726 0.4581 0.38334 0.0
C326 C 0.59213 0.43602 0.37135 0.0
C327 C 0.60014 0.45253 0.34472 0.0
H328 H 0.61753 0.47444 0.33995 0.0
H329 H 0.57344 0.45188 0.33895 0.0
H330 H 0.61412 0.42553 0.3434 0.0
O331 O 0.62806 0.57279 0.3612 0.0
O332 O 0.62457 0.57223 0.38481 0.0
H333 H 0.60674 0.45045 0.4046 0.0
H334 H 0.57384 0.41594 0.3989 0.0
C335 C 0.58124 0.44558 0.39835 0.0
H336 H 0.55863 0.46174 0.40322 0.0
H337 H 0.64317 0.5271 0.41134 0.0
O338 O 0.58407 0.53614 0.33505 0.0
C339 C 0.63962 0.58344 0.37332 0.0
Co340 Co 0.95789 0.58484 0.85445 0.0
Co341 Co 0.95656 0.58805 0.88806 0.0
C342 C 0.91989 0.52687 0.87194 0.0
O343 O 0.92961 0.54079 0.86009 0.0
O344 O 0.92904 0.54181 0.88369 0.0
C345 C 0.96589 0.55146 0.82704 0.0
O346 O 0.96339 0.52101 0.83456 0.0
C347 C 0.97256 0.56617 0.91782 0.0
C348 C 0.96024 0.61798 0.92924 0.0
C349 C 0.97144 0.58183 0.93136 0.0
N350 N 0.96264 0.592 0.90825 0.0
N351 N 0.95545 0.62289 0.91518 0.0
C352 C 0.98088 0.52695 0.91401 0.0
H353 H 0.97087 0.52033 0.90318 0.0
H354 H 0.01116 0.52267 0.91414 0.0
H355 H 0.96817 0.5079 0.92185 0.0
C356 C 0.03846 0.58928 0.85995 0.0
N357 N 0.00324 0.5879 0.8645 0.0
N358 N 0.00265 0.59072 0.87846 0.0
C359 C 0.03743 0.59525 0.88322 0.0
C360 C 0.06142 0.59417 0.87168 0.0
C361 C 0.0496 0.58353 0.84477 0.0
H362 H 0.03425 0.55977 0.84032 0.0
H363 H 0.07953 0.57798 0.8437 0.0
H364 H 0.04224 0.60837 0.83848 0.0
O365 O 0.92594 0.62815 0.8585 0.0
O366 O 0.9247 0.62934 0.88214 0.0
H367 H 0.02671 0.6227 0.90301 0.0
H368 H 0.07492 0.61604 0.8993 0.0
C369 C 0.04715 0.60342 0.89839 0.0
H370 H 0.04662 0.57744 0.90461 0.0
H371 H 0.94683 0.64727 0.9103 0.0
O372 O 0.96546 0.58241 0.83344 0.0
C373 C 0.91455 0.64217 0.87015 0.0
Co374 Co 0.91239 0.95551 0.35455 0.0
Co375 Co 0.91714 0.95753 0.3881 0.0
C376 C 0.97604 0.92204 0.3712 0.0
O377 O 0.95858 0.92954 0.3598 0.0
O378 O 0.96399 0.93231 0.38331 0.0
C379 C 0.94281 0.96999 0.32718 0.0
O380 O 0.97238 0.97674 0.33484 0.0
C381 C 0.94035 0.96713 0.41813 0.0
C382 C 0.88655 0.97581 0.42868 0.0
C383 C 0.92406 0.97344 0.43131 0.0
N384 N 0.91363 0.96618 0.40819 0.0
N385 N 0.88158 0.9714 0.41459 0.0
C386 C 0.98002 0.95906 0.41503 0.0
H387 H 0.9822 0.93076 0.41064 0.0
H388 H 0.99026 0.97845 0.40679 0.0
H389 H 0.99756 0.96078 0.42466 0.0
C390 C 0.90317 0.0359 0.35902 0.0
N391 N 0.90829 0.00144 0.36397 0.0
N392 N 0.91214 0.00258 0.37789 0.0
C393 C 0.91081 0.03801 0.3822 0.0
C394 C 0.90472 0.06042 0.3704 0.0
C395 C 0.89523 0.0447 0.34376 0.0
H396 H 0.87842 0.02241 0.33893 0.0
H397 H 0.92164 0.04661 0.33784 0.0
H398 H 0.88028 0.07127 0.34274 0.0
O399 O 0.87146 0.92259 0.3598 0.0
O400 O 0.87645 0.92258 0.38336 0.0
H401 H 0.89331 0.04651 0.40368 0.0
H402 H 0.92727 0.07944 0.39759 0.0
C403 C 0.91855 0.05014 0.39715 0.0
H404 H 0.94077 0.03295 0.40177 0.0
H405 H 0.85624 0.97171 0.40932 0.0
O406 O 0.913 0.96129 0.33348 0.0
C407 C 0.86113 0.91111 0.37197 0.0
Co408 Co 0.54169 0.58593 0.14894 0.0
Co409 Co 0.54117 0.58321 0.11537 0.0
C410 C 0.57602 0.52338 0.13196 0.0
O411 O 0.56822 0.54018 0.14348 0.0
O412 O 0.56609 0.53612 0.11992 0.0
C413 C 0.52809 0.55379 0.17607 0.0
O414 O 0.52364 0.52401 0.16828 0.0
C415 C 0.53392 0.56163 0.08507 0.0
C416 C 0.52027 0.61513 0.07511 0.0
C417 C 0.52558 0.57811 0.0721 0.0
N418 N 0.533 0.58769 0.09528 0.0
N419 N 0.52498 0.61959 0.08922 0.0
C420 C 0.54537 0.52258 0.08772 0.0
H421 H 0.57266 0.52254 0.09304 0.0
H422 H 0.5253 0.50927 0.09502 0.0
H423 H 0.5477 0.5064 0.07776 0.0
C424 C 0.46152 0.59497 0.14409 0.0
N425 N 0.49619 0.59038 0.13929 0.0
N426 N 0.49565 0.58734 0.12534 0.0
C427 C 0.46037 0.58856 0.12084 0.0
C428 C 0.43746 0.59386 0.13256 0.0
C429 C 0.4521 0.60194 0.15937 0.0
H430 H 0.47395 0.61887 0.16443 0.0
H431 H 0.45052 0.57519 0.16507 0.0
H432 H 0.42526 0.61639 0.16039 0.0
O433 O 0.5744 0.62739 0.14432 0.0
O434 O 0.57592 0.6237 0.12073 0.0
H435 H 0.45145 0.60693 0.09951 0.0
H436 H 0.41985 0.5714 0.10523 0.0
C437 C 0.44879 0.58119 0.10581 0.0
H438 H 0.46686 0.5599 0.10103 0.0
H439 H 0.52258 0.64444 0.09475 0.0
O440 O 0.535 0.58427 0.16992 0.0
C441 C 0.58658 0.63844 0.13235 0.0
Co442 Co 0.91659 0.54333 0.64674 0.0
Co443 Co 0.91441 0.54085 0.61318 0.0
C444 C 0.97633 0.57724 0.62853 0.0
O445 O 0.96236 0.56909 0.64057 0.0
O446 O 0.96088 0.56752 0.61695 0.0
C447 C 0.94966 0.53103 0.67394 0.0
O448 O 0.97936 0.52578 0.66619 0.0
C449 C 0.93464 0.53067 0.58293 0.0
C450 C 0.88024 0.51919 0.57326 0.0
C451 C 0.9174 0.52245 0.57009 0.0
N452 N 0.90883 0.53163 0.59321 0.0
N453 N 0.87639 0.52488 0.58734 0.0
C454 C 0.97435 0.54006 0.58538 0.0
H455 H 0.97613 0.5678 0.59028 0.0
H456 H 0.9865 0.52001 0.59297 0.0
H457 H 0.99056 0.54047 0.57539 0.0
C458 C 0.90663 0.46274 0.64267 0.0
N459 N 0.91096 0.49717 0.63756 0.0
N460 N 0.91209 0.49594 0.62357 0.0
C461 C 0.90985 0.4605 0.61934 0.0
C462 C 0.90583 0.43818 0.63129 0.0
C463 C 0.90146 0.45404 0.65812 0.0
H464 H 0.88518 0.47615 0.66331 0.0
H465 H 0.92886 0.45271 0.66336 0.0
H466 H 0.8871 0.42728 0.65959 0.0
O467 O 0.87472 0.57603 0.64231 0.0
O468 O 0.87365 0.57454 0.61869 0.0
H469 H 0.88857 0.45184 0.59838 0.0
H470 H 0.92345 0.41893 0.6036 0.0
C471 C 0.91489 0.44823 0.60424 0.0
H472 H 0.93635 0.46528 0.59903 0.0
H473 H 0.85159 0.52407 0.59297 0.0
O474 O 0.91924 0.53793 0.66775 0.0
C475 C 0.86107 0.58643 0.63049 0.0
Co476 Co 0.96015 0.91601 0.14667 0.0
Co477 Co 0.96097 0.90581 0.11331 0.0
C478 C 0.9243 0.97073 0.12732 0.0
O479 O 0.93334 0.95997 0.13973 0.0
O480 O 0.93363 0.95252 0.1163 0.0
C481 C 0.96471 0.95162 0.17399 0.0
O482 O 0.96089 0.98167 0.16632 0.0
C483 C 0.97597 0.9267 0.08381 0.0
C484 C 0.97207 0.87343 0.07249 0.0
C485 C 0.97838 0.91076 0.07039 0.0
N486 N 0.96841 0.90009 0.09333 0.0
N487 N 0.96599 0.86831 0.0865 0.0
C488 C 0.98291 0.96604 0.08782 0.0
H489 H 0.99321 0.96773 0.09893 0.0
H490 H 0.00319 0.97891 0.08049 0.0
H491 H 0.95662 0.98161 0.08718 0.0
C492 C 0.04124 0.91098 0.14195 0.0
N493 N 0.00617 0.91063 0.13719 0.0
N494 N 0.0063 0.90512 0.12334 0.0
C495 C 0.04133 0.90076 0.1189 0.0
C496 C 0.06478 0.90465 0.13051 0.0
C497 C 0.05167 0.9199 0.15698 0.0
H498 H 0.04528 0.89587 0.16387 0.0
H499 H 0.03509 0.94361 0.16078 0.0
H500 H 0.08133 0.92689 0.15797 0.0
O501 O 0.92736 0.87269 0.1432 0.0
O502 O 0.92872 0.86555 0.11972 0.0
H503 H 0.03279 0.86951 0.09984 0.0
H504 H 0.08038 0.87999 0.10337 0.0
C505 C 0.05184 0.89086 0.10397 0.0
H506 H 0.04958 0.91567 0.09712 0.0
H507 H 0.96026 0.84312 0.0914 0.0
O508 O 0.96636 0.92052 0.16773 0.0
C509 C 0.91707 0.8559 0.13195 0.0
Co510 Co 0.57901 0.95558 0.64529 0.0
Co511 Co 0.58638 0.95903 0.61185 0.0
C512 C 0.5212 0.92382 0.62608 0.0
O513 O 0.53318 0.93208 0.63841 0.0
O514 O 0.53903 0.93259 0.6149 0.0
C515 C 0.55669 0.93714 0.67331 0.0
O516 O 0.5399 0.9104 0.66645 0.0
C517 C 0.56683 0.97266 0.58186 0.0
C518 C 0.62176 0.97914 0.57195 0.0
C519 C 0.58434 0.97957 0.56897 0.0
N520 N 0.59277 0.96891 0.592 0.0
N521 N 0.62552 0.97272 0.58599 0.0
C522 C 0.52655 0.96651 0.5845 0.0
H523 H 0.52244 0.93793 0.58838 0.0
H524 H 0.51692 0.98556 0.59296 0.0
H525 H 0.50963 0.97006 0.57479 0.0
C526 C 0.58664 0.03625 0.64186 0.0
N527 N 0.58586 0.00185 0.63648 0.0
N528 N 0.58885 0.0035 0.62253 0.0
C529 C 0.5919 0.03913 0.6186 0.0
C530 C 0.59077 0.061 0.63072 0.0
C531 C 0.58257 0.04501 0.65734 0.0
H532 H 0.60319 0.02905 0.66352 0.0
H533 H 0.55477 0.03632 0.66097 0.0
H534 H 0.58639 0.07488 0.65946 0.0
O535 O 0.62057 0.92179 0.6411 0.0
O536 O 0.62608 0.92483 0.61758 0.0
H537 H 0.61804 0.04219 0.59826 0.0
H538 H 0.59122 0.08256 0.60268 0.0
C539 C 0.59245 0.05206 0.60347 0.0
H540 H 0.56857 0.04016 0.5977 0.0
H541 H 0.65046 0.97086 0.59149 0.0
O542 O 0.57548 0.96058 0.66631 0.0
C543 C 0.63621 0.91192 0.62957 0.0
C544 C 0.46592 0.01007 0.19605 0.0
C545 C 0.46571 0.04481 0.1894 0.0
C546 C 0.46396 0.0072 0.21086 0.0
C547 C 0.4347 0.05938 0.24272 0.0
H548 H 0.49095 0.98503 0.26292 0.0
C549 C 0.41134 0.03026 0.30242 0.0
C550 C 0.44294 0.02484 0.31083 0.0
C551 C 0.41402 0.03128 0.28758 0.0
C552 C 0.47522 0.0061 0.25746 0.0
H553 H 0.4642 0.10384 0.19315 0.0
H554 H 0.46137 0.09884 0.21901 0.0
H555 H 0.49748 0.99084 0.2372 0.0
H556 H 0.50204 0.0156 0.31022 0.0
H557 H 0.50676 0.01785 0.28439 0.0
H558 H 0.41314 0.07526 0.263 0.0
C559 C 0.46234 0.07377 0.21275 0.0
C560 C 0.47867 0.00917 0.24269 0.0
C561 C 0.46421 0.07664 0.19792 0.0
C562 C 0.47713 0.01974 0.30406 0.0
C563 C 0.47982 0.02085 0.28923 0.0
C564 C 0.4313 0.05634 0.25749 0.0
C565 C 0.46185 0.039 0.21939 0.0
C566 C 0.45848 0.03588 0.23513 0.0
C567 C 0.44836 0.02696 0.2808 0.0
C568 C 0.45152 0.02968 0.26505 0.0
H569 H 0.46693 0.98498 0.1898 0.0
H570 H 0.46321 0.97998 0.2156 0.0
H571 H 0.41838 0.07994 0.23723 0.0
H572 H 0.38454 0.03408 0.30729 0.0
H573 H 0.38914 0.03543 0.2814 0.0
C574 C 0.47391 0.48634 0.80557 0.0
C575 C 0.46727 0.45261 0.8125 0.0
C576 C 0.47269 0.48867 0.79072 0.0
C577 C 0.4347 0.44129 0.75911 0.0
H578 H 0.50565 0.50113 0.73858 0.0
C579 C 0.42003 0.47087 0.69893 0.0
C580 C 0.45236 0.46856 0.69071 0.0
C581 C 0.42186 0.47025 0.7138 0.0
C582 C 0.48573 0.48414 0.74415 0.0
H583 H 0.45478 0.3947 0.80921 0.0
H584 H 0.45303 0.3987 0.7833 0.0
H585 H 0.5099 0.49614 0.76442 0.0
H586 H 0.51201 0.46445 0.69171 0.0
H587 H 0.51513 0.46314 0.7176 0.0
H588 H 0.41097 0.42871 0.73882 0.0
C589 C 0.45864 0.42349 0.78937 0.0
C590 C 0.48795 0.48158 0.75898 0.0
C591 C 0.45989 0.42115 0.80422 0.0
C592 C 0.48656 0.46634 0.69771 0.0
C593 C 0.48838 0.46577 0.71257 0.0
C594 C 0.43245 0.44391 0.74429 0.0
C595 C 0.46478 0.45733 0.78243 0.0
C596 C 0.46251 0.46005 0.76664 0.0
C597 C 0.45604 0.46739 0.7208 0.0
C598 C 0.45798 0.46531 0.73662 0.0
H599 H 0.4796 0.51114 0.81161 0.0
H600 H 0.47716 0.51524 0.78574 0.0
H601 H 0.41439 0.42482 0.76469 0.0
H602 H 0.39324 0.47274 0.69388 0.0
H603 H 0.39646 0.47208 0.71983 0.0
C604 C 0.01445 0.46916 0.30441 0.0
C605 C 0.04915 0.46901 0.31109 0.0
C606 C 0.0117 0.46762 0.28959 0.0
C607 C 0.06308 0.48506 0.25652 0.0
H608 H 0.99257 0.41711 0.23982 0.0
C609 C 0.03019 0.48385 0.19641 0.0
C610 C 0.02914 0.44912 0.18977 0.0
C611 C 0.03181 0.48665 0.21123 0.0
C612 C 0.01247 0.4361 0.24433 0.0
H613 H 0.10822 0.46798 0.30742 0.0
H614 H 0.10336 0.46551 0.2815 0.0
H615 H 0.99767 0.42172 0.26569 0.0
H616 H 0.02812 0.39007 0.1935 0.0
H617 H 0.03072 0.39502 0.21941 0.0
H618 H 0.07808 0.49924 0.23516 0.0
C619 C 0.07831 0.46684 0.28776 0.0
C620 C 0.01516 0.43899 0.25913 0.0
C621 C 0.08107 0.46809 0.3026 0.0
C622 C 0.02894 0.41724 0.19829 0.0
C623 C 0.03027 0.42006 0.21313 0.0
C624 C 0.06018 0.48239 0.24172 0.0
C625 C 0.04358 0.46619 0.28111 0.0
C626 C 0.04054 0.46345 0.26538 0.0
C627 C 0.03211 0.4548 0.21975 0.0
C628 C 0.03489 0.45783 0.23547 0.0
H629 H 0.98931 0.46989 0.31063 0.0
H630 H 0.98457 0.46763 0.28476 0.0
H631 H 0.08273 0.50431 0.26104 0.0
H632 H 0.03035 0.50896 0.19017 0.0
H633 H 0.03273 0.5138 0.21604 0.0
C634 C 0.02063 0.01753 0.80565 0.0
C635 C 0.02675 0.05163 0.81238 0.0
C636 C 0.02209 0.01459 0.79083 0.0
C637 C 0.06008 0.06116 0.75908 0.0
H638 H 0.9907 -0.00086 0.7387 0.0
C639 C 0.07642 0.0298 0.69911 0.0
C640 C 0.04416 0.03125 0.69083 0.0
C641 C 0.07436 0.03075 0.71398 0.0
C642 C 0.01018 0.01672 0.74422 0.0
H643 H 0.0384 0.10958 0.80876 0.0
H644 H 0.04049 0.10452 0.78289 0.0
H645 H 0.98569 0.00527 0.76448 0.0
H646 H 0.98442 0.03413 0.69169 0.0
H647 H 0.9809 0.03608 0.71755 0.0
H648 H 0.08407 0.07326 0.7388 0.0
C649 C 0.03517 0.07992 0.78909 0.0
C650 C 0.00753 0.01995 0.75902 0.0
C651 C 0.03371 0.08286 0.80392 0.0
C652 C 0.00982 0.0329 0.69774 0.0
C653 C 0.00777 0.03383 0.71259 0.0
C654 C 0.06275 0.05791 0.74429 0.0
C655 C 0.02968 0.04568 0.78237 0.0
C656 C 0.03239 0.04228 0.76662 0.0
C657 C 0.04002 0.03311 0.72089 0.0
C658 C 0.03777 0.03573 0.73667 0.0
H659 H 0.01528 0.9929 0.81184 0.0
H660 H 0.01811 0.98773 0.78601 0.0
H661 H 0.07997 0.07823 0.76462 0.0
H662 H 0.10331 0.02839 0.69413 0.0
H663 H 0.09971 0.02961 0.72007 0.0
C664 C 0.52905 0.9154 0.80348 0.0
C665 C 0.55849 0.93225 0.81074 0.0
C666 C 0.52696 0.9171 0.78863 0.0
C667 C 0.55824 0.97066 0.75772 0.0
H668 H 0.54151 0.88031 0.7366 0.0
C669 C 0.57822 0.96216 0.69678 0.0
C670 C 0.55452 0.93903 0.68901 0.0
C671 C 0.57714 0.96246 0.71166 0.0
C672 C 0.54559 0.90595 0.74231 0.0
H673 H 0.60843 0.9646 0.80814 0.0
H674 H 0.60449 0.96782 0.78226 0.0
H675 H 0.54158 0.87894 0.76253 0.0
H676 H 0.51024 0.89901 0.69073 0.0
H677 H 0.50756 0.90033 0.71658 0.0
H678 H 0.56183 0.99785 0.73757 0.0
C679 C 0.5831 0.95332 0.78805 0.0
C680 C 0.54572 0.90508 0.75717 0.0
C681 C 0.58544 0.95125 0.80287 0.0
C682 C 0.52914 0.91688 0.69641 0.0
C683 C 0.52777 0.91746 0.71125 0.0
C684 C 0.55772 0.97162 0.74285 0.0
C685 C 0.55397 0.93609 0.78078 0.0
C686 C 0.55231 0.93736 0.76502 0.0
C687 C 0.55204 0.93992 0.71909 0.0
C688 C 0.55163 0.93922 0.73494 0.0
H689 H 0.50785 0.90057 0.80925 0.0
H690 H 0.50407 0.90379 0.78328 0.0
H691 H 0.56299 0.99604 0.76353 0.0
H692 H 0.59818 0.97947 0.69138 0.0
H693 H 0.59659 0.97974 0.71732 0.0
C694 C 0.58227 0.53335 0.30471 0.0
C695 C 0.55062 0.52961 0.31322 0.0
C696 C 0.57929 0.53502 0.28988 0.0
C697 C 0.51565 0.51439 0.25996 0.0
H698 H 0.57744 0.58383 0.23954 0.0
C699 C 0.52445 0.51688 0.19856 0.0
C700 C 0.52755 0.55133 0.1918 0.0
C701 C 0.52618 0.51418 0.21338 0.0
C702 C 0.55971 0.56455 0.24508 0.0
H703 H 0.49101 0.52427 0.31281 0.0
H704 H 0.48578 0.52772 0.28702 0.0
H705 H 0.58276 0.57889 0.2653 0.0
H706 H 0.53388 0.61012 0.19536 0.0
H707 H 0.53625 0.60548 0.22123 0.0
H708 H 0.49194 0.50073 0.23978 0.0
C709 C 0.51299 0.52881 0.29176 0.0
C710 C 0.56314 0.56132 0.25985 0.0
C711 C 0.51599 0.52702 0.30657 0.0
C712 C 0.53161 0.58313 0.20022 0.0
C713 C 0.53323 0.58043 0.21506 0.0
C714 C 0.51215 0.51768 0.2452 0.0
C715 C 0.54457 0.5331 0.28322 0.0
C716 C 0.54118 0.53618 0.26748 0.0
C717 C 0.53091 0.54588 0.22182 0.0
C718 C 0.53415 0.54278 0.23757 0.0
H719 H 0.60939 0.53523 0.30949 0.0
H720 H 0.60424 0.5377 0.28363 0.0
H721 H 0.49854 0.49449 0.26547 0.0
H722 H 0.52142 0.49182 0.19239 0.0
H723 H 0.52474 0.48708 0.2182 0.0
C724 C 0.9861 0.52585 0.69653 0.0
C725 C 0.95202 0.53103 0.68968 0.0
C726 C 0.98869 0.5277 0.71136 0.0
C727 C 0.94055 0.56515 0.74286 0.0
H728 H 0.00291 0.497 0.76364 0.0
C729 C 0.96895 0.58191 0.80306 0.0
C730 C 0.96767 0.54959 0.8113 0.0
C731 C 0.96869 0.57993 0.78818 0.0
C732 C 0.98524 0.51614 0.75801 0.0
H733 H 0.89376 0.54147 0.69309 0.0
H734 H 0.89823 0.54427 0.71896 0.0
H735 H 0.99794 0.49181 0.73783 0.0
H736 H 0.96573 0.4898 0.81037 0.0
H737 H 0.96497 0.4864 0.7845 0.0
H738 H 0.92719 0.58896 0.76306 0.0
C739 C 0.92308 0.53937 0.71285 0.0
C740 C 0.98268 0.51339 0.74319 0.0
C741 C 0.92048 0.53751 0.69802 0.0
C742 C 0.96681 0.51526 0.80435 0.0
C743 C 0.96657 0.51328 0.7895 0.0
C744 C 0.94314 0.56792 0.75767 0.0
C745 C 0.95726 0.53478 0.71969 0.0
C746 C 0.96018 0.53778 0.73545 0.0
C747 C 0.9672 0.54558 0.78123 0.0
C748 C 0.9654 0.54336 0.76543 0.0
H749 H 0.01096 0.52089 0.69043 0.0
H750 H 0.01551 0.5244 0.71628 0.0
H751 H 0.92334 0.58467 0.73721 0.0
H752 H 0.96977 0.6088 0.80808 0.0
H753 H 0.96971 0.60532 0.78212 0.0
C754 C 0.97832 0.97845 0.30452 0.0
C755 C 0.94481 0.9706 0.31142 0.0
C756 C 0.98082 0.97726 0.28968 0.0
C757 C 0.93525 0.93726 0.25806 0.0
H758 H 0.99354 0.00956 0.23757 0.0
C759 C 0.96782 0.92189 0.19812 0.0
C760 C 0.96518 0.95392 0.18974 0.0
C761 C 0.9663 0.9241 0.21298 0.0
C762 C 0.97697 0.98927 0.24312 0.0
H763 H 0.88741 0.95606 0.30807 0.0
H764 H 0.89168 0.95438 0.28216 0.0
H765 H 0.98752 0.01429 0.26335 0.0
H766 H 0.95942 0.01347 0.19047 0.0
H767 H 0.9565 0.01725 0.21631 0.0
H768 H 0.92411 0.91266 0.2378 0.0
C769 C 0.9162 0.96091 0.28825 0.0
C770 C 0.97382 0.99176 0.25792 0.0
C771 C 0.91368 0.96212 0.30311 0.0
C772 C 0.96163 0.98824 0.19658 0.0
C773 C 0.96013 0.99044 0.21142 0.0
C774 C 0.93843 0.93474 0.24326 0.0
C775 C 0.94987 0.9682 0.28136 0.0
C776 C 0.9529 0.96581 0.26558 0.0
C777 C 0.96216 0.95839 0.21981 0.0
C778 C 0.95931 0.96073 0.2356 0.0
H779 H 0.00286 0.98501 0.31059 0.0
H780 H 0.00728 0.98262 0.28474 0.0
H781 H 0.91927 0.91655 0.26364 0.0
H782 H 0.97071 0.89502 0.1932 0.0
H783 H 0.96849 0.89892 0.21912 0.0
C784 C 0.4651 0.03478 0.05251 0.0
C785 C 0.48295 0.06779 0.05622 0.0
C786 C 0.47029 0.01918 0.03905 0.0
C787 C 0.49942 0.04255 0.00243 0.0
H788 H 0.50973 0.93658 0.99849 0.0
C789 C 0.53939 0.97296 0.94922 0.0
C790 C 0.52012 0.94072 0.94552 0.0
C791 C 0.53509 0.98868 0.96271 0.0
C792 C 0.50652 0.96619 0.9994 0.0
H793 H 0.51971 0.11071 0.04871 0.0
H794 H 0.52918 0.08331 0.02526 0.0
H795 H 0.5021 0.96351 0.02209 0.0
H796 H 0.48188 0.89922 0.95315 0.0
H797 H 0.47425 0.92669 0.97668 0.0
H798 H 0.50392 0.04519 0.97972 0.0
C799 C 0.51098 0.06954 0.0327 0.0
C800 C 0.50213 0.98163 0.01292 0.0
C801 C 0.5057 0.08516 0.04615 0.0
C802 C 0.49699 0.92417 0.95568 0.0
C803 C 0.49274 0.93982 0.96917 0.0
C804 C 0.50388 0.02711 0.9889 0.0
C805 C 0.4933 0.03637 0.02898 0.0
C806 C 0.49844 0.01999 0.0146 0.0
C807 C 0.51173 0.97227 0.97284 0.0
C808 C 0.50737 0.98874 0.98723 0.0
H809 H 0.44631 0.02144 0.05983 0.0
H810 H 0.45561 0.99406 0.03643 0.0
H811 H 0.49607 0.07214 0.00331 0.0
H812 H 0.55852 0.98561 0.94185 0.0
H813 H 0.55069 0.01326 0.96531 0.0
C814 C 0.57239 0.49421 0.45705 0.0
C815 C 0.55569 0.51643 0.44662 0.0
C816 C 0.55644 0.49032 0.4705 0.0
C817 C 0.46857 0.49942 0.4898 0.0
H818 H 0.53116 0.50409 0.52323 0.0
C819 C 0.40806 0.50129 0.54667 0.0
C820 C 0.42679 0.48116 0.55719 0.0
C821 C 0.42388 0.50668 0.53326 0.0
C822 C 0.51331 0.50226 0.51401 0.0
H823 H 0.51001 0.55356 0.44249 0.0
H824 H 0.48168 0.546 0.46583 0.0
H825 H 0.55835 0.51088 0.49964 0.0
H826 H 0.47604 0.44934 0.56167 0.0
H827 H 0.50362 0.45854 0.53832 0.0
H828 H 0.42359 0.49027 0.50411 0.0
C829 C 0.50674 0.53096 0.46346 0.0
C830 C 0.52892 0.50621 0.50049 0.0
C831 C 0.52284 0.53502 0.45002 0.0
C832 C 0.46148 0.46609 0.55398 0.0
C833 C 0.47723 0.47127 0.54054 0.0
C834 C 0.45297 0.49524 0.50332 0.0
C835 C 0.52343 0.50865 0.47387 0.0
C836 C 0.50674 0.50477 0.48823 0.0
C837 C 0.45862 0.49161 0.53 0.0
C838 C 0.47515 0.49656 0.5156 0.0
H839 H 0.59779 0.47963 0.45478 0.0
H840 H 0.5698 0.47266 0.47824 0.0
H841 H 0.45082 0.49773 0.48055 0.0
H842 H 0.38123 0.51314 0.54886 0.0
H843 H 0.40895 0.52289 0.52548 0.0
C844 C 0.00444 0.53664 0.94736 0.0
C845 C 0.97812 0.56468 0.94547 0.0
C846 C 0.01035 0.52116 0.96081 0.0
C847 C -0.00063 0.54026 0.99907 0.0
H848 H 0.00561 0.43405 0.00324 0.0
C849 C 0.99725 0.4697 0.05414 0.0
C850 C 0.02022 0.43902 0.05616 0.0
C851 C 0.99306 0.4852 0.04061 0.0
C852 C 0.00447 0.46379 0.00225 0.0
H853 H 0.93811 0.59908 0.95634 0.0
H854 H 0.94861 0.57227 0.97977 0.0
H855 H 0.99716 0.46085 0.97965 0.0
H856 H 0.05611 0.39982 0.04568 0.0
H857 H 0.04948 0.42722 0.02206 0.0
H858 H 0.00696 0.54335 0.02162 0.0
C859 C 0.96459 0.56216 0.97085 0.0
C860 C -0.00045 0.47912 0.98873 0.0
C861 C 0.95852 0.57744 0.95741 0.0
C862 C 0.03844 0.42369 0.04439 0.0
C863 C 0.03444 0.43926 0.03087 0.0
C864 C 0.00451 0.52497 0.01258 0.0
C865 C 0.99049 0.53377 0.9727 0.0
C866 C 0.99673 0.51751 0.987 0.0
C867 C 0.01165 0.47021 0.0288 0.0
C868 C 0.00692 0.48652 0.01436 0.0
H869 H 0.02121 0.52717 0.93859 0.0
H870 H 0.03102 0.49981 0.96196 0.0
H871 H 0.99785 0.56999 0.99806 0.0
H872 H 0.98187 0.48123 0.06297 0.0
H873 H 0.97461 0.50846 0.03937 0.0
C874 C 0.07718 0.04117 0.5447 0.0
C875 C 0.06426 0.02152 0.5566 0.0
C876 C 0.06241 0.03479 0.53118 0.0
C877 C 0.98023 0.99882 0.51297 0.0
H878 H 0.04536 0.99158 0.48035 0.0
C879 C 0.92605 0.95894 0.45724 0.0
C880 C 0.94153 0.97697 0.44545 0.0
C881 C 0.94146 0.96315 0.47079 0.0
C882 C 0.02672 0.99398 0.4893 0.0
H883 H 0.02706 0.97795 0.56333 0.0
H884 H 0.00053 0.96766 0.53985 0.0
H885 H 0.0713 0.00131 0.504 0.0
H886 H 0.98399 0.01507 0.43863 0.0
H887 H 0.01091 0.02274 0.46227 0.0
H888 H 0.93559 0.99216 0.49831 0.0
C889 C 0.02162 0.9886 0.54108 0.0
C890 C 0.04162 -0.00053 0.50287 0.0
C891 C 0.03661 0.99481 0.5546 0.0
C892 C 0.97232 -0.00015 0.44747 0.0
C893 C 0.98763 0.00428 0.46103 0.0
C894 C 0.96529 0.99358 0.49939 0.0
C895 C 0.03436 0.00854 0.52922 0.0
C896 C 0.01854 0.00202 0.51485 0.0
C897 C 0.9724 0.98599 0.47288 0.0
C898 C 0.98834 0.99114 0.48737 0.0
H899 H 0.09855 0.06186 0.54584 0.0
H900 H 0.07262 0.05082 0.52228 0.0
H901 H 0.9617 0.00115 0.52197 0.0
H902 H 0.90212 0.94132 0.45596 0.0
H903 H 0.92924 0.94827 0.4796 0.0
C904 C 0.53597 0.5794 0.04584 0.0
C905 C 0.52203 0.56109 0.05786 0.0
C906 C 0.53174 0.56419 0.03226 0.0
C907 C 0.51172 0.47636 0.01366 0.0
H908 H 0.48759 0.54056 0.98198 0.0
C909 C 0.46791 0.41991 0.95868 0.0
C910 C 0.48176 0.43794 0.94658 0.0
C911 C 0.47316 0.43491 0.97224 0.0
C912 C 0.49473 0.5223 0.99068 0.0
H913 H 0.49077 0.51367 0.06504 0.0
H914 H 0.48354 0.48687 0.04136 0.0
H915 H 0.49604 0.56676 0.00566 0.0
H916 H 0.51412 0.48446 0.93924 0.0
H917 H 0.52294 0.51101 0.9629 0.0
H918 H 0.51026 0.43189 0.99867 0.0
C919 C 0.49878 0.51242 0.04244 0.0
C920 C 0.4996 0.53732 0.00426 0.0
C921 C 0.50306 0.52765 0.05602 0.0
C922 C 0.50182 0.47078 0.94833 0.0
C923 C 0.50705 0.48584 0.96188 0.0
C924 C 0.50681 0.46134 1.00008 0.0
C925 C 0.51307 0.53051 0.03039 0.0
C926 C 0.50813 0.51454 0.01592 0.0
C927 C 0.49271 0.46812 0.974 0.0
C928 C 0.49821 0.48412 0.98843 0.0
H929 H 0.55045 0.6054 0.04696 0.0
H930 H 0.54338 0.5787 0.02324 0.0
H931 H 0.51883 0.45809 0.02235 0.0
H932 H 0.45263 0.39436 0.95763 0.0
H933 H 0.4615 0.4207 0.98133 0.0
C934 C 0.96629 0.49693 0.55399 0.0
C935 C 0.93386 0.51754 0.55582 0.0
C936 C 0.98134 0.49201 0.54043 0.0
C937 C 0.95739 0.49426 0.50223 0.0
H938 H 0.06305 0.50381 0.49697 0.0
C939 C 0.02489 0.49837 0.44651 0.0
C940 C 0.05799 0.47885 0.44474 0.0
C941 C 0.00946 0.50268 0.46005 0.0
C942 C 0.03354 0.50061 0.49828 0.0
H943 H 0.8909 0.54789 0.54492 0.0
H944 H 0.91724 0.53952 0.52119 0.0
H945 H 0.03657 0.51184 0.52062 0.0
H946 H 0.10152 0.44944 0.45568 0.0
H947 H 0.07446 0.45651 0.47933 0.0
H948 H 0.95436 0.48297 0.47989 0.0
C949 C 0.93114 0.52723 0.53023 0.0
C950 C 0.01837 0.50523 0.51184 0.0
C951 C 0.91615 0.53219 0.5438 0.0
C952 C 0.07579 0.46436 0.45676 0.0
C953 C 0.06038 0.4686 0.4703 0.0
C954 C 0.97257 0.48958 0.48867 0.0
C955 C 0.96401 0.50721 0.52839 0.0
C956 C 0.98012 0.50213 0.51397 0.0
C957 C 0.02702 0.48782 0.47211 0.0
C958 C 0.01084 0.49271 0.48653 0.0
H959 H 0.97968 0.48404 0.56301 0.0
H960 H 0.00622 0.47573 0.53934 0.0
H961 H 0.92787 0.49115 0.50355 0.0
H962 H 0.01133 0.51104 0.43748 0.0
H963 H 0.98417 0.51833 0.4611 0.0
C964 C 0.9978 0.07411 0.95638 0.0
C965 C 0.01999 0.05745 0.94593 0.0
C966 C 0.99422 0.05827 0.96987 0.0
C967 C 0.00425 0.97054 0.98919 0.0
H968 H 0.00792 0.03327 0.0226 0.0
C969 C 0.00608 0.91022 0.04606 0.0
C970 C 0.9853 0.92861 0.05648 0.0
C971 C 0.01164 0.92614 0.03268 0.0
C972 C 0.0064 0.01539 0.01338 0.0
H973 H 0.05745 0.01207 0.94179 0.0
H974 H 0.0505 0.98394 0.9652 0.0
H975 H 0.01463 0.06048 0.99901 0.0
H976 H 0.95259 0.97735 0.06083 0.0
H977 H 0.96214 0.00513 0.03753 0.0
H978 H 0.99551 0.9255 0.0035 0.0
C979 C 0.03522 0.00886 0.96282 0.0
C980 C 0.0103 0.031 0.99986 0.0
C981 C 0.03894 0.02483 0.94935 0.0
C982 C 0.96983 0.96308 0.05321 0.0
C983 C 0.9752 0.97893 0.03981 0.0
C984 C 0.00015 0.95493 0.0027 0.0
C985 C 0.01287 0.02545 0.97324 0.0
C986 C 0.00918 0.00876 0.98761 0.0
C987 C 0.99612 0.96064 0.02936 0.0
C988 C 0.00111 0.97717 0.01498 0.0
H989 H 0.98296 0.09935 0.9541 0.0
H990 H 0.97653 0.07154 0.97761 0.0
H991 H 0.0028 0.95274 0.97994 0.0
H992 H 0.01825 0.88355 0.04829 0.0
H993 H 0.02829 0.91147 0.02497 0.0
C994 C 0.58368 0.96898 0.54273 0.0
C995 C 0.56794 0.98568 0.55476 0.0
C996 C 0.56844 0.97455 0.52924 0.0
C997 C 0.48205 0.00126 0.51149 0.0
H998 H 0.54507 0.01745 0.47873 0.0
C999 C 0.42288 0.0389 0.45636 0.0
C1000 C 0.4395 0.02268 0.44441 0.0
C1001 C 0.43896 0.0355 0.46981 0.0
C1002 C 0.5271 0.01254 0.48774 0.0
H1003 H 0.52577 0.02359 0.56202 0.0
H1004 H 0.49856 0.03278 0.53849 0.0
H1005 H 0.5726 0.00964 0.50223 0.0
H1006 H 0.48471 0.98841 0.43722 0.0
H1007 H 0.51293 0.98236 0.4607 0.0
H1008 H 0.43656 0.0037 0.49703 0.0
C1009 C 0.52206 0.01454 0.53953 0.0
C1010 C 0.54288 0.00812 0.5012 0.0
C1011 C 0.53744 0.00909 0.55301 0.0
C1012 C 0.47208 0.00231 0.44618 0.0
C1013 C 0.48814 0.99877 0.45964 0.0
C1014 C 0.46627 0.00553 0.49802 0.0
C1015 C 0.53726 0.99716 0.52751 0.0
C1016 C 0.52053 0.00239 0.51322 0.0
C1017 C 0.47178 0.01535 0.47162 0.0
C1018 C 0.48859 0.01118 0.48597 0.0
H1019 H 0.60748 0.95112 0.54379 0.0
H1020 H 0.58067 0.96063 0.5202 0.0
H1021 H 0.46412 0.99635 0.52052 0.0
H1022 H 0.39758 0.05453 0.45526 0.0
H1023 H 0.42582 0.04892 0.47877 0.0
C1024 C 0.62424 0.11963 0.12641 0.0
C1025 C 0.60179 0.09098 0.1315 0.0
C1026 C 0.66244 0.11477 0.12542 0.0
C1027 C 0.74508 0.097 0.13296 0.0
H1028 H 0.77365 0.0094 0.11197 0.0
C1029 C 0.8833 0.01891 0.13803 0.0
C1030 C 0.89711 0.00097 0.12586 0.0
C1031 C 0.85107 0.03993 0.13723 0.0
C1032 C 0.76622 0.03432 0.11765 0.0
H1033 H 0.60094 0.03536 0.13983 0.0
H1034 H 0.66772 0.0265 0.13787 0.0
H1035 H 0.7086 0.02499 0.1143 0.0
H1036 H 0.89043 0.99485 0.10301 0.0
H1037 H 0.83414 0.03137 0.10169 0.0
H1038 H 0.80291 0.10532 0.13683 0.0
C1039 C 0.65591 0.05272 0.13473 0.0
C1040 C 0.72899 0.04296 0.11911 0.0
C1041 C 0.61791 0.0578 0.13592 0.0
C1042 C 0.88029 0.00781 0.11263 0.0
C1043 C 0.84797 0.02865 0.11186 0.0
C1044 C 0.78251 0.08799 0.1317 0.0
C1045 C 0.6784 0.08095 0.12929 0.0
C1046 C 0.71807 0.07398 0.12696 0.0
C1047 C 0.83208 0.04329 0.12427 0.0
C1048 C 0.79335 0.05629 0.12416 0.0
H1049 H 0.6121 0.1454 0.12293 0.0
H1050 H 0.67931 0.13683 0.12116 0.0
H1051 H 0.73717 0.12108 0.13907 0.0
H1052 H 0.8958 0.01458 0.14837 0.0
H1053 H 0.83944 0.05092 0.14697 0.0
C1054 C 0.46731 0.89105 0.63692 0.0
C1055 C 0.48971 0.89801 0.62501 0.0
C1056 C 0.44394 0.86038 0.63718 0.0
C1057 C 0.41065 0.78028 0.61523 0.0
H1058 H 0.42339 0.72724 0.65075 0.0
C1059 C 0.42233 0.62312 0.61937 0.0
C1060 C 0.40245 0.6048 0.63006 0.0
C1061 C 0.42256 0.66154 0.6187 0.0
C1062 C 0.41894 0.74192 0.64086 0.0
H1063 H 0.50258 0.88024 0.60353 0.0
H1064 H 0.46305 0.82644 0.60412 0.0
H1065 H 0.44052 0.79194 0.6494 0.0
H1066 H 0.367 0.61213 0.6484 0.0
H1067 H 0.3688 0.67985 0.64763 0.0
H1068 H 0.39173 0.72898 0.6065 0.0
C1069 C 0.4628 0.84473 0.61322 0.0
C1070 C 0.42856 0.77917 0.64006 0.0
C1071 C 0.48572 0.87568 0.61289 0.0
C1072 C 0.38288 0.62566 0.64015 0.0
C1073 C 0.38367 0.66424 0.63964 0.0
C1074 C 0.40159 0.74285 0.61599 0.0
C1075 C 0.4429 0.83572 0.62562 0.0
C1076 C 0.4257 0.79856 0.62711 0.0
C1077 C 0.40346 0.68247 0.62888 0.0
C1078 C 0.40671 0.72314 0.6287 0.0
H1079 H 0.46936 0.90809 0.64636 0.0
H1080 H 0.42818 0.85497 0.64675 0.0
H1081 H 0.40722 0.79446 0.60518 0.0
H1082 H 0.43824 0.60774 0.61162 0.0
H1083 H 0.43866 0.67493 0.61047 0.0
C1084 C 0.87559 0.42504 0.14186 0.0
C1085 C 0.89521 0.40517 0.13152 0.0
C1086 C 0.83711 0.42458 0.142 0.0
C1087 C 0.76019 0.42192 0.11855 0.0
H1088 H 0.70206 0.40615 0.15266 0.0
C1089 C 0.61104 0.47203 0.12016 0.0
C1090 C 0.60227 0.49212 0.13249 0.0
C1091 C 0.64165 0.44854 0.11996 0.0
C1092 C 0.71782 0.4108 0.14304 0.0
H1093 H 0.89002 0.3683 0.11346 0.0
H1094 H 0.82236 0.36918 0.11322 0.0
H1095 H 0.76761 0.39071 0.15263 0.0
H1096 H 0.61674 0.5006 0.15468 0.0
H1097 H 0.67035 0.46124 0.15421 0.0
H1098 H 0.7118 0.44496 0.10925 0.0
C1099 C 0.83698 0.3846 0.12133 0.0
C1100 C 0.75526 0.40169 0.14302 0.0
C1101 C 0.87556 0.38439 0.1214 0.0
C1102 C 0.62277 0.48575 0.14495 0.0
C1103 C 0.6536 0.46279 0.14469 0.0
C1104 C 0.72296 0.43176 0.11864 0.0
C1105 C 0.81749 0.40482 0.13161 0.0
C1106 C 0.77693 0.40817 0.13091 0.0
C1107 C 0.66441 0.44506 0.13203 0.0
C1108 C 0.70153 0.42751 0.13105 0.0
H1109 H 0.88994 0.44183 0.14963 0.0
H1110 H 0.82263 0.44089 0.14988 0.0
H1111 H 0.77647 0.42739 0.10911 0.0
H1112 H 0.59538 0.47576 0.11045 0.0
H1113 H 0.64841 0.43447 0.11013 0.0
C1114 C 0.01367 0.62445 0.61563 0.0
C1115 C 0.00744 0.60367 0.62802 0.0
C1116 C 0.03651 0.65542 0.61597 0.0
C1117 C 0.06736 0.72442 0.64224 0.0
H1118 H 0.10852 0.76984 0.60841 0.0
C1119 C 0.11444 0.87731 0.63992 0.0
C1120 C 0.09374 0.89699 0.62981 0.0
C1121 C 0.11431 0.83872 0.63992 0.0
C1122 C 0.09752 0.75727 0.61798 0.0
H1123 H 0.02356 0.59661 0.65007 0.0
H1124 H 0.06476 0.64978 0.65053 0.0
H1125 H 0.09307 0.70427 0.60817 0.0
H1126 H 0.05732 0.89184 0.61163 0.0
H1127 H 0.05834 0.82453 0.61126 0.0
H1128 H 0.07169 0.77774 0.65194 0.0
C1129 C 0.05077 0.64311 0.64068 0.0
C1130 C 0.0884 0.71981 0.61784 0.0
C1131 C 0.02739 0.6124 0.6404 0.0
C1132 C 0.07399 0.87743 0.61941 0.0
C1133 C 0.07453 0.83895 0.6192 0.0
C1134 C 0.07721 0.76166 0.64245 0.0
C1135 C 0.0542 0.66608 0.62867 0.0
C1136 C 0.07166 0.70325 0.62977 0.0
C1137 C 0.09424 0.81928 0.62957 0.0
C1138 C 0.091 0.77868 0.63016 0.0
H1139 H 0.99871 0.61862 0.60591 0.0
H1140 H 0.03797 0.67238 0.60651 0.0
H1141 H 0.05414 0.71305 0.65159 0.0
H1142 H 0.13041 0.89176 0.64792 0.0
H1143 H 0.12968 0.82404 0.64802 0.0
C1144 C 0.61978 0.38409 0.88025 0.0
C1145 C 0.60041 0.40551 0.87027 0.0
C1146 C 0.65832 0.38481 0.88064 0.0
C1147 C 0.74162 0.40294 0.86056 0.0
H1148 H 0.77979 0.45208 0.89412 0.0
C1149 C 0.87414 0.48738 0.85923 0.0
C1150 C 0.89284 0.49625 0.87188 0.0
C1151 C 0.84316 0.46461 0.85949 0.0
C1152 C 0.77017 0.43727 0.88483 0.0
H1153 H 0.60619 0.44336 0.85254 0.0
H1154 H 0.67359 0.44313 0.8528 0.0
H1155 H 0.71555 0.43301 0.89341 0.0
H1156 H 0.89608 0.48489 0.8945 0.0
H1157 H 0.84295 0.44359 0.89487 0.0
H1158 H 0.79595 0.4069 0.85191 0.0
C1159 C 0.65883 0.42611 0.86038 0.0
C1160 C 0.73317 0.42659 0.88443 0.0
C1161 C 0.62032 0.42611 0.86021 0.0
C1162 C 0.88192 0.47903 0.8846 0.0
C1163 C 0.85122 0.4556 0.88482 0.0
C1164 C 0.77888 0.41277 0.86108 0.0
C1165 C 0.67807 0.4061 0.87078 0.0
C1166 C 0.71836 0.41062 0.8721 0.0
C1167 C 0.83039 0.44946 0.87237 0.0
C1168 C 0.79331 0.43158 0.87298 0.0
H1169 H 0.60512 0.3674 0.88796 0.0
H1170 H 0.67271 0.36919 0.88876 0.0
H1171 H 0.73069 0.39033 0.85099 0.0
H1172 H 0.88181 0.50003 0.84921 0.0
H1173 H 0.82793 0.4611 0.84967 0.0
C1174 C 0.0742 0.62215 0.35893 0.0
C1175 C 0.09352 0.60219 0.36933 0.0
C1176 C 0.07469 0.66066 0.35899 0.0
C1177 C 0.07655 0.73655 0.38307 0.0
H1178 H 0.09263 0.79652 0.34947 0.0
C1179 C 0.02713 0.88602 0.38274 0.0
C1180 C 0.0072 0.89569 0.37047 0.0
C1181 C 0.05042 0.85525 0.38269 0.0
C1182 C 0.08788 0.78024 0.35895 0.0
H1183 H 0.12963 0.6068 0.38764 0.0
H1184 H 0.12885 0.67441 0.38818 0.0
H1185 H 0.10795 0.73095 0.34896 0.0
H1186 H 0.9989 0.88264 0.34814 0.0
H1187 H 0.03787 0.82876 0.34816 0.0
H1188 H 0.05358 0.78446 0.39276 0.0
C1189 C 0.11378 0.66008 0.37989 0.0
C1190 C 0.09691 0.74277 0.35866 0.0
C1191 C 0.11394 0.62151 0.37965 0.0
C1192 C 0.01359 0.87592 0.35784 0.0
C1193 C 0.03634 0.84493 0.35783 0.0
C1194 C 0.06679 0.7738 0.38328 0.0
C1195 C 0.09394 0.67993 0.36961 0.0
C1196 C 0.09037 0.72046 0.37059 0.0
C1197 C 0.05386 0.83321 0.37041 0.0
C1198 C 0.07118 0.79592 0.37107 0.0
H1199 H 0.05771 0.60806 0.351 0.0
H1200 H 0.0587 0.6754 0.35108 0.0
H1201 H 0.07103 0.71977 0.39237 0.0
H1202 H 0.02336 0.90106 0.39259 0.0
H1203 H 0.06434 0.84779 0.39247 0.0
C1204 C 0.87638 0.11683 0.88111 0.0
C1205 C 0.89561 0.09588 0.87094 0.0
C1206 C 0.83781 0.11652 0.88145 0.0
C1207 C 0.75482 0.09995 0.86067 0.0
H1208 H 0.71404 0.05349 0.89433 0.0
C1209 C 0.62103 0.01744 0.85914 0.0
C1210 C 0.60183 0.00942 0.87176 0.0
C1211 C 0.65215 0.04004 0.85938 0.0
C1212 C 0.72442 0.06758 0.88499 0.0
H1213 H 0.88953 0.05914 0.85288 0.0
H1214 H 0.82217 0.06002 0.85306 0.0
H1215 H 0.77869 0.07115 0.89393 0.0
H1216 H 0.59765 0.02249 0.89423 0.0
H1217 H 0.65098 0.06347 0.89453 0.0
H1218 H 0.70083 0.09656 0.85165 0.0
C1219 C 0.83702 0.07641 0.86083 0.0
C1220 C 0.76166 0.07745 0.88477 0.0
C1221 C 0.87553 0.07599 0.86071 0.0
C1222 C 0.61219 0.02763 0.88435 0.0
C1223 C 0.64304 0.05086 0.88454 0.0
C1224 C 0.71734 0.09089 0.86099 0.0
C1225 C 0.81788 0.09611 0.87135 0.0
C1226 C 0.77741 0.09242 0.87243 0.0
C1227 C 0.66455 0.05587 0.8722 0.0
C1228 C 0.70195 0.07307 0.87293 0.0
H1229 H 0.89118 0.13299 0.88895 0.0
H1230 H 0.82354 0.13192 0.88965 0.0
H1231 H 0.76642 0.11183 0.85108 0.0
H1232 H 0.61377 0.00409 0.84921 0.0
H1233 H 0.66785 0.04276 0.84963 0.0
C1234 C 0.42082 0.87545 0.35961 0.0
C1235 C 0.40163 0.89563 0.37 0.0
C1236 C 0.42111 0.83695 0.36 0.0
C1237 C 0.42278 0.76276 0.38472 0.0
H1238 H 0.40497 0.70003 0.35201 0.0
C1239 C 0.47474 0.6139 0.38524 0.0
C1240 C 0.49332 0.6034 0.37275 0.0
C1241 C 0.45128 0.64456 0.38523 0.0
C1242 C 0.41025 0.71709 0.36124 0.0
H1243 H 0.36646 0.89136 0.38858 0.0
H1244 H 0.36868 0.82383 0.38969 0.0
H1245 H 0.38816 0.76519 0.35102 0.0
H1246 H 0.4993 0.61499 0.35019 0.0
H1247 H 0.46011 0.6687 0.35028 0.0
H1248 H 0.44774 0.71609 0.39458 0.0
C1249 C 0.38302 0.83798 0.38118 0.0
C1250 C 0.40035 0.75432 0.36068 0.0
C1251 C 0.38204 0.8765 0.3806 0.0
C1252 C 0.48565 0.62237 0.36005 0.0
C1253 C 0.46274 0.65324 0.36008 0.0
C1254 C 0.43343 0.72576 0.38519 0.0
C1255 C 0.40282 0.81794 0.37094 0.0
C1256 C 0.40744 0.77761 0.37228 0.0
C1257 C 0.44634 0.66566 0.37278 0.0
C1258 C 0.4284 0.70267 0.37328 0.0
H1259 H 0.43669 0.88939 0.35146 0.0
H1260 H 0.43703 0.82206 0.35211 0.0
H1261 H 0.42876 0.78033 0.39376 0.0
H1262 H 0.47963 0.59956 0.39517 0.0
H1263 H 0.43831 0.6526 0.39513 0.0
C1264 C 0.12318 0.98663 0.85909 0.0
C1265 C 0.10352 0.99359 0.87169 0.0
C1266 C 0.15418 0.96388 0.8592 0.0
C1267 C 0.22545 0.93348 0.88471 0.0
H1268 H 0.26727 0.8908 0.85047 0.0
C1269 C 0.3769 0.88264 0.8805 0.0
C1270 C 0.39638 0.90407 0.87054 0.0
C1271 C 0.33833 0.88334 0.88084 0.0
C1272 C 0.2557 0.90221 0.86015 0.0
H1273 H 0.09857 0.9788 0.89398 0.0
H1274 H 0.15178 0.9377 0.89405 0.0
H1275 H 0.20193 0.90705 0.85103 0.0
H1276 H 0.39076 0.9422 0.85291 0.0
H1277 H 0.32342 0.94198 0.85306 0.0
H1278 H 0.27954 0.92853 0.89372 0.0
C1279 C 0.14422 0.95113 0.88419 0.0
C1280 C 0.21838 0.91184 0.86047 0.0
C1281 C 0.11346 0.97445 0.88412 0.0
C1282 C 0.37656 0.92491 0.86054 0.0
C1283 C 0.33806 0.92489 0.86065 0.0
C1284 C 0.26254 0.92306 0.88447 0.0
C1285 C 0.16602 0.94691 0.87188 0.0
C1286 C 0.20311 0.92913 0.87254 0.0
C1287 C 0.31867 0.90465 0.87095 0.0
C1288 C 0.27823 0.90867 0.87202 0.0
H1289 H 0.11627 0.00077 0.84929 0.0
H1290 H 0.17018 0.96183 0.84951 0.0
H1291 H 0.21513 0.94711 0.89415 0.0
H1292 H 0.39151 0.86582 0.88818 0.0
H1293 H 0.32385 0.86753 0.88887 0.0
C1294 C 0.50892 0.12356 0.35696 0.0
C1295 C 0.50357 0.10266 0.36939 0.0
C1296 C 0.53192 0.1544 0.35707 0.0
C1297 C 0.56569 0.22294 0.38299 0.0
H1298 H 0.60472 0.268 0.34871 0.0
C1299 C 0.61474 0.375 0.38048 0.0
C1300 C 0.59372 0.39522 0.37063 0.0
C1301 C 0.61407 0.33642 0.38034 0.0
C1302 C 0.5943 0.25554 0.35839 0.0
H1303 H 0.52162 0.0952 0.39119 0.0
H1304 H 0.56297 0.14825 0.39125 0.0
H1305 H 0.58829 0.20267 0.3486 0.0
H1306 H 0.55629 0.391 0.35271 0.0
H1307 H 0.55636 0.3237 0.3521 0.0
H1308 H 0.57161 0.27612 0.39268 0.0
C1309 C 0.54811 0.14177 0.38157 0.0
C1310 C 0.58463 0.21822 0.35833 0.0
C1311 C 0.52458 0.11115 0.38152 0.0
C1312 C 0.57323 0.37619 0.36029 0.0
C1313 C 0.5732 0.33771 0.35995 0.0
C1314 C 0.57609 0.26004 0.38311 0.0
C1315 C 0.55071 0.16483 0.36955 0.0
C1316 C 0.56866 0.2018 0.37045 0.0
C1317 C 0.59312 0.3175 0.37011 0.0
C1318 C 0.58913 0.27696 0.37067 0.0
H1319 H 0.4933 0.11777 0.34738 0.0
H1320 H 0.53276 0.17141 0.34761 0.0
H1321 H 0.5531 0.21169 0.39249 0.0
H1322 H 0.63132 0.38901 0.3884 0.0
H1323 H 0.62966 0.32134 0.38827 0.0
C1324 C 0.12189 0.57538 0.88213 0.0
C1325 C 0.10223 0.59591 0.87198 0.0
C1326 C 0.16035 0.57608 0.88232 0.0
C1327 C 0.23767 0.58013 0.85935 0.0
H1328 H 0.29469 0.59643 0.89371 0.0
C1329 C 0.38673 0.53024 0.8617 0.0
C1330 C 0.39524 0.51041 0.87413 0.0
C1331 C 0.35617 0.55376 0.86134 0.0
C1332 C 0.27926 0.59164 0.88401 0.0
H1333 H 0.10729 0.63399 0.85431 0.0
H1334 H 0.17503 0.63347 0.85414 0.0
H1335 H 0.22906 0.6115 0.89337 0.0
H1336 H 0.3801 0.50206 0.89623 0.0
H1337 H 0.32657 0.54152 0.8955 0.0
H1338 H 0.28643 0.55721 0.8503 0.0
C1339 C 0.16041 0.61742 0.86206 0.0
C1340 C 0.24177 0.60057 0.88382 0.0
C1341 C 0.12181 0.61742 0.86209 0.0
C1342 C 0.37443 0.51693 0.88648 0.0
C1343 C 0.3436 0.53989 0.88606 0.0
C1344 C 0.27495 0.57045 0.85962 0.0
C1345 C 0.17992 0.5967 0.87218 0.0
C1346 C 0.22051 0.59386 0.87162 0.0
C1347 C 0.33311 0.55742 0.87332 0.0
C1348 C 0.29598 0.57487 0.87213 0.0
H1349 H 0.10755 0.5581 0.88973 0.0
H1350 H 0.17487 0.55939 0.89007 0.0
H1351 H 0.22168 0.57449 0.84985 0.0
H1352 H 0.40256 0.5262 0.85205 0.0
H1353 H 0.34965 0.56764 0.85145 0.0
C1354 C 0.97158 0.38509 0.38269 0.0
C1355 C 0.99129 0.39464 0.37034 0.0
C1356 C 0.94838 0.35422 0.38277 0.0
C1357 C 0.91017 0.2791 0.35927 0.0
H1358 H 0.92686 0.21893 0.39277 0.0
C1359 C 0.92197 0.12095 0.35945 0.0
C1360 C 0.90274 0.10124 0.36996 0.0
C1361 C 0.92188 0.15946 0.35946 0.0
C1362 C 0.92137 0.23563 0.38345 0.0
H1363 H -0.00056 0.38113 0.34805 0.0
H1364 H 0.96058 0.32709 0.3483 0.0
H1365 H 0.94501 0.28346 0.39299 0.0
H1366 H 0.86719 0.10631 0.38841 0.0
H1367 H 0.86866 0.17394 0.38885 0.0
H1368 H 0.88936 0.22989 0.34943 0.0
C1369 C 0.96221 0.34344 0.35792 0.0
C1370 C 0.93156 0.27279 0.38356 0.0
C1371 C 0.98489 0.37452 0.35779 0.0
C1372 C 0.88279 0.12083 0.38032 0.0
C1373 C 0.88336 0.1594 0.38052 0.0
C1374 C 0.9007 0.24173 0.35907 0.0
C1375 C 0.94479 0.33196 0.37055 0.0
C1376 C 0.92722 0.29478 0.37131 0.0
C1377 C 0.90313 0.17899 0.37014 0.0
C1378 C 0.90716 0.2195 0.37103 0.0
H1379 H 0.97537 0.40039 0.39248 0.0
H1380 H 0.93457 0.34691 0.39259 0.0
H1381 H 0.90545 0.2953 0.34976 0.0
H1382 H 0.93813 0.10666 0.35148 0.0
H1383 H 0.93782 0.17398 0.35147 0.0
C1384 C 0.11403 0.52435 0.11809 0.0
C1385 C 0.10388 0.50506 0.13046 0.0
C1386 C 0.14482 0.54767 0.11814 0.0
C1387 C 0.21835 0.58709 0.1421 0.0
H1388 H 0.28045 0.57016 0.10913 0.0
C1389 C 0.37656 0.57583 0.14302 0.0
C1390 C 0.39662 0.59557 0.13275 0.0
C1391 C 0.33806 0.57565 0.14273 0.0
C1392 C 0.2632 0.57571 0.11831 0.0
H1393 H 0.11628 0.49766 0.15289 0.0
H1394 H 0.1702 0.53665 0.15287 0.0
H1395 H 0.21608 0.55146 0.10846 0.0
H1396 H 0.39216 0.6317 0.11445 0.0
H1397 H 0.32458 0.62972 0.11351 0.0
H1398 H 0.26687 0.60846 0.15226 0.0
C1399 C 0.15436 0.53466 0.14313 0.0
C1400 C 0.22614 0.56521 0.11793 0.0
C1401 C 0.12336 0.51188 0.14313 0.0
C1402 C 0.37738 0.61573 0.12235 0.0
C1403 C 0.33884 0.61487 0.12187 0.0
C1404 C 0.25563 0.59685 0.14256 0.0
C1405 C 0.16639 0.55178 0.13052 0.0
C1406 C 0.20346 0.56964 0.12998 0.0
C1407 C 0.31892 0.59462 0.13201 0.0
C1408 C 0.27852 0.59031 0.1308 0.0
H1409 H 0.09926 0.5202 0.10821 0.0
H1410 H 0.15258 0.56121 0.10832 0.0
H1411 H 0.20161 0.59191 0.15145 0.0
H1412 H 0.39057 0.55948 0.151 0.0
H1413 H 0.32326 0.55935 0.15054 0.0
C1414 C 0.97545 0.11611 0.61705 0.0
C1415 C 0.99194 0.10495 0.62988 0.0
C1416 C 0.95197 0.14674 0.61673 0.0
C1417 C 0.90804 0.21869 0.64034 0.0
H1418 H 0.93065 0.28266 0.60843 0.0
C1419 C 0.92386 0.37714 0.64162 0.0
C1420 C 0.90314 0.3974 0.63172 0.0
C1421 C 0.92348 0.33863 0.64135 0.0
C1422 C 0.92357 0.26486 0.61729 0.0
H1423 H 0.99424 0.11535 0.65262 0.0
H1424 H 0.95527 0.16911 0.65201 0.0
H1425 H 0.9492 0.2183 0.60764 0.0
H1426 H 0.86444 0.39333 0.61419 0.0
H1427 H 0.86562 0.32573 0.61318 0.0
H1428 H 0.88552 0.26683 0.65042 0.0
C1429 C 0.95938 0.15415 0.64217 0.0
C1430 C 0.93394 0.2278 0.61683 0.0
C1431 C 0.98219 0.12323 0.64252 0.0
C1432 C 0.88124 0.37839 0.62177 0.0
C1433 C 0.8816 0.33985 0.62126 0.0
C1434 C 0.89853 0.25602 0.64091 0.0
C1435 C 0.94507 0.16726 0.6292 0.0
C1436 C 0.92741 0.20441 0.62855 0.0
C1437 C 0.90298 0.31977 0.63098 0.0
C1438 C 0.90708 0.27949 0.62953 0.0
H1439 H 0.98198 0.10225 0.60715 0.0
H1440 H 0.94059 0.15524 0.6066 0.0
H1441 H 0.90152 0.20145 0.6494 0.0
H1442 H 0.94145 0.39098 0.64926 0.0
H1443 H 0.94058 0.32358 0.64881 0.0
C1444 C 0.1259 0.8851 0.14059 0.0
C1445 C 0.1056 0.90471 0.13034 0.0
C1446 C 0.1645 0.88583 0.14038 0.0
C1447 C 0.24427 0.90305 0.11734 0.0
H1448 H 0.2916 0.94373 0.15082 0.0
C1449 C 0.37652 0.98792 0.11451 0.0
C1450 C 0.39815 0.99288 0.12676 0.0
C1451 C 0.34581 0.96468 0.11481 0.0
C1452 C 0.27933 0.93127 0.14148 0.0
H1453 H 0.10956 0.94055 0.11195 0.0
H1454 H 0.1768 0.94081 0.1113 0.0
H1455 H 0.22691 0.92639 0.15183 0.0
H1456 H 0.40742 0.97385 0.14835 0.0
H1457 H 0.35477 0.93207 0.14869 0.0
H1458 H 0.29636 0.90834 0.10686 0.0
C1459 C 0.16294 0.92475 0.11943 0.0
C1460 C 0.2421 0.92153 0.14208 0.0
C1461 C 0.12451 0.92461 0.11981 0.0
C1462 C 0.39086 0.97109 0.13881 0.0
C1463 C 0.36047 0.94736 0.13904 0.0
C1464 C 0.28169 0.91219 0.11679 0.0
C1465 C 0.18329 0.90557 0.12975 0.0
C1466 C 0.22394 0.90872 0.12987 0.0
C1467 C 0.3364 0.94539 0.12731 0.0
C1468 C 0.29934 0.92792 0.12868 0.0
H1469 H 0.11193 0.86921 0.14873 0.0
H1470 H 0.17968 0.87094 0.14848 0.0
H1471 H 0.23087 0.89275 0.10783 0.0
H1472 H 0.38143 0.00421 0.10503 0.0
H1473 H 0.328 0.96419 0.10557 0.0
C1474 C 0.5085 0.38134 0.6138 0.0
C1475 C 0.5009 0.39758 0.62708 0.0
C1476 C 0.52932 0.34903 0.613 0.0
C1477 C 0.58706 0.28223 0.63282 0.0
H1478 H 0.52376 0.2097 0.61471 0.0
C1479 C 0.55515 0.11786 0.63599 0.0
C1480 C 0.58791 0.10147 0.63126 0.0
C1481 C 0.55062 0.15599 0.63511 0.0
C1482 C 0.54182 0.2297 0.61971 0.0
H1483 H 0.5133 0.39537 0.64968 0.0
H1484 H 0.54963 0.33899 0.64823 0.0
H1485 H 0.50898 0.27502 0.61269 0.0
H1486 H 0.64214 0.1114 0.62243 0.0
H1487 H 0.63455 0.17881 0.62123 0.0
H1488 H 0.61946 0.23621 0.64003 0.0
C1489 C 0.53922 0.35107 0.63847 0.0
C1490 C 0.53364 0.26708 0.61844 0.0
C1491 C 0.51822 0.38331 0.6393 0.0
C1492 C 0.6167 0.12374 0.62616 0.0
C1493 C 0.61241 0.16206 0.6255 0.0
C1494 C 0.59564 0.24465 0.63389 0.0
C1495 C 0.54319 0.33257 0.62543 0.0
C1496 C 0.55573 0.29371 0.62519 0.0
C1497 C 0.579 0.17832 0.62968 0.0
C1498 C 0.5725 0.21814 0.62762 0.0
H1499 H 0.49608 0.39187 0.60414 0.0
H1500 H 0.53254 0.33559 0.60278 0.0
H1501 H 0.60445 0.30223 0.63815 0.0
H1502 H 0.53259 0.10104 0.63988 0.0
H1503 H 0.5247 0.16805 0.63846 0.0
C1504 C 0.12996 0.32151 0.11697 0.0
C1505 C 0.11249 0.3305 0.12987 0.0
C1506 C 0.16142 0.29927 0.11688 0.0
C1507 C 0.21665 0.23433 0.13855 0.0
H1508 H 0.29805 0.27094 0.11576 0.0
C1509 C 0.36298 0.17468 0.1441 0.0
C1510 C 0.38144 0.1666 0.13131 0.0
C1511 C 0.33082 0.19589 0.14402 0.0
C1512 C 0.2755 0.26017 0.12208 0.0
H1513 H 0.11314 0.32126 0.15271 0.0
H1514 H 0.16795 0.28263 0.15252 0.0
H1515 H 0.23865 0.30231 0.11492 0.0
H1516 H 0.38153 0.17617 0.10849 0.0
H1517 H 0.32549 0.21293 0.10837 0.0
H1518 H 0.25353 0.1922 0.14571 0.0
C1519 C 0.15734 0.29272 0.14248 0.0
C1520 C 0.24142 0.27804 0.12156 0.0
C1521 C 0.12594 0.31501 0.14258 0.0
C1522 C 0.36803 0.18178 0.11854 0.0
C1523 C 0.33591 0.20299 0.11847 0.0
C1524 C 0.25073 0.21643 0.13906 0.0
C1525 C 0.17599 0.28544 0.12967 0.0
C1526 C 0.21163 0.26535 0.1298 0.0
C1527 C 0.31647 0.20956 0.13115 0.0
C1528 C 0.28057 0.2292 0.13085 0.0
H1529 H 0.12025 0.33279 0.10697 0.0
H1530 H 0.17482 0.29354 0.10681 0.0
H1531 H 0.19412 0.22367 0.1449 0.0
H1532 H 0.3726 0.16356 0.15414 0.0
H1533 H 0.31683 0.20109 0.154 0.0
C1534 C 0.17677 0.12985 0.64682 0.0
C1535 C 0.16557 0.11555 0.63358 0.0
C1536 C 0.19812 0.16195 0.64752 0.0
C1537 C 0.21503 0.2459 0.62701 0.0
H1538 H 0.29852 0.26037 0.65217 0.0
C1539 C 0.31195 0.37069 0.62212 0.0
C1540 C 0.32807 0.38548 0.63448 0.0
C1541 C 0.29012 0.33905 0.62283 0.0
C1542 C 0.27485 0.257 0.64527 0.0
H1543 H 0.17013 0.12255 0.61068 0.0
H1544 H 0.20733 0.17833 0.61196 0.0
H1545 H 0.26703 0.20077 0.65171 0.0
H1546 H 0.33218 0.37958 0.65742 0.0
H1547 H 0.29329 0.3247 0.65868 0.0
H1548 H 0.2224 0.30198 0.62061 0.0
C1549 C 0.19908 0.16503 0.62179 0.0
C1550 C 0.25699 0.22279 0.64495 0.0
C1551 C 0.17797 0.13288 0.62107 0.0
C1552 C 0.32031 0.36887 0.64768 0.0
C1553 C 0.29831 0.33719 0.64839 0.0
C1554 C 0.23265 0.28011 0.62739 0.0
C1555 C 0.20849 0.18045 0.63501 0.0
C1556 C 0.22722 0.21678 0.63567 0.0
C1557 C 0.28362 0.32147 0.63593 0.0
C1558 C 0.26308 0.28597 0.63638 0.0
H1559 H 0.16779 0.11716 0.65667 0.0
H1560 H 0.20501 0.17324 0.65787 0.0
H1561 H 0.19162 0.24231 0.61997 0.0
H1562 H 0.31732 0.38268 0.61177 0.0
H1563 H 0.27962 0.32754 0.61299 0.0
C1564 C 0.36415 0.32432 0.8599 0.0
C1565 C 0.38089 0.336 0.87263 0.0
C1566 C 0.33271 0.30205 0.86021 0.0
C1567 C 0.25452 0.27865 0.88352 0.0
H1568 H 0.23727 0.20162 0.85568 0.0
C1569 C 0.13038 0.17785 0.88563 0.0
C1570 C 0.11412 0.16778 0.87259 0.0
C1571 C 0.16204 0.19987 0.8859 0.0
C1572 C 0.2415 0.22337 0.86342 0.0
H1573 H 0.37871 0.33179 0.89567 0.0
H1574 H 0.32418 0.29245 0.89617 0.0
H1575 H 0.2961 0.23414 0.85585 0.0
H1576 H 0.1172 0.1749 0.84967 0.0
H1577 H 0.17208 0.21358 0.8502 0.0
H1578 H 0.19985 0.26773 0.8911 0.0
C1579 C 0.33498 0.30118 0.88596 0.0
C1580 C 0.27525 0.24192 0.86354 0.0
C1581 C 0.36643 0.32348 0.88566 0.0
C1582 C 0.12911 0.18186 0.8599 0.0
C1583 C 0.16076 0.20379 0.86018 0.0
C1584 C 0.22076 0.26001 0.88342 0.0
C1585 C 0.31732 0.29087 0.87325 0.0
C1586 C 0.2821 0.26991 0.87354 0.0
C1587 C 0.17812 0.21224 0.87315 0.0
C1588 C 0.2138 0.23233 0.8733 0.0
H1589 H 0.37448 0.33344 0.84967 0.0
H1590 H 0.31965 0.29485 0.85022 0.0
H1591 H 0.25868 0.30049 0.89123 0.0
H1592 H 0.11957 0.16754 0.89561 0.0
H1593 H 0.17483 0.20583 0.89606 0.0
C1594 C 0.31564 0.13036 0.35882 0.0
C1595 C 0.32929 0.11449 0.37142 0.0
C1596 C 0.29353 0.16184 0.35933 0.0
C1597 C 0.274 0.24157 0.38244 0.0
H1598 H 0.1944 0.25835 0.35566 0.0
C1599 C 0.17522 0.36745 0.38457 0.0
C1600 C 0.16495 0.3832 0.37147 0.0
C1601 C 0.19665 0.33542 0.38496 0.0
C1602 C 0.21684 0.2542 0.36311 0.0
H1603 H 0.32861 0.11815 0.39448 0.0
H1604 H 0.28941 0.1727 0.39535 0.0
H1605 H 0.22582 0.19897 0.35591 0.0
H1606 H 0.17113 0.3788 0.34853 0.0
H1607 H 0.20865 0.3232 0.34927 0.0
H1608 H 0.26474 0.29688 0.38966 0.0
C1609 C 0.29656 0.16124 0.38507 0.0
C1610 C 0.23478 0.22016 0.36327 0.0
C1611 C 0.31877 0.12977 0.38456 0.0
C1612 C 0.17828 0.36733 0.35881 0.0
C1613 C 0.19954 0.33527 0.35921 0.0
C1614 C 0.2559 0.2756 0.38232 0.0
C1615 C 0.28439 0.17812 0.37244 0.0
C1616 C 0.26379 0.21352 0.37286 0.0
C1617 C 0.20813 0.31845 0.37226 0.0
C1618 C 0.22736 0.28237 0.37255 0.0
H1619 H 0.3232 0.11938 0.3485 0.0
H1620 H 0.28491 0.17428 0.34939 0.0
H1621 H 0.29662 0.23759 0.38981 0.0
H1622 H 0.1655 0.37897 0.39452 0.0
H1623 H 0.20282 0.32304 0.39518 0.0
C1624 C 0.63483 0.82642 0.884 0.0
C1625 C 0.61705 0.83589 0.87121 0.0
C1626 C 0.6669 0.80506 0.88384 0.0
C1627 C 0.74412 0.78096 0.86012 0.0
H1628 H 0.76507 0.70683 0.88872 0.0
C1629 C 0.86792 0.68037 0.85704 0.0
C1630 C 0.88546 0.67082 0.86987 0.0
C1631 C 0.83649 0.70268 0.85711 0.0
C1632 C 0.75984 0.72782 0.88077 0.0
H1633 H 0.61796 0.8285 0.84827 0.0
H1634 H 0.67346 0.79076 0.84804 0.0
H1635 H 0.70589 0.73865 0.88901 0.0
H1636 H 0.88513 0.67938 0.89275 0.0
H1637 H 0.8307 0.71861 0.89282 0.0
H1638 H 0.79807 0.76998 0.85186 0.0
C1639 C 0.66307 0.80059 0.85817 0.0
C1640 C 0.72588 0.74596 0.88092 0.0
C1641 C 0.63105 0.82196 0.85832 0.0
C1642 C 0.87213 0.68586 0.88268 0.0
C1643 C 0.84075 0.70813 0.88274 0.0
C1644 C 0.77809 0.76277 0.85997 0.0
C1645 C 0.68183 0.79262 0.87089 0.0
C1646 C 0.71761 0.77272 0.87059 0.0
C1647 C 0.82198 0.71593 0.87002 0.0
C1648 C 0.78634 0.73604 0.87031 0.0
H1649 H 0.62486 0.8367 0.89412 0.0
H1650 H 0.68079 0.79957 0.89382 0.0
H1651 H 0.73888 0.80193 0.85217 0.0
H1652 H 0.87742 0.66927 0.84698 0.0
H1653 H 0.82258 0.70811 0.84713 0.0
C1654 C 0.82409 0.86529 0.38602 0.0
C1655 C 0.83401 0.88059 0.37279 0.0
C1656 C 0.803 0.83303 0.38667 0.0
C1657 C 0.7827 0.75069 0.36539 0.0
H1658 H 0.70285 0.73536 0.39219 0.0
C1659 C 0.68226 0.62813 0.36139 0.0
C1660 C 0.6682 0.61262 0.37399 0.0
C1661 C 0.70497 0.6592 0.36188 0.0
C1662 C 0.72551 0.73896 0.38481 0.0
H1663 H 0.8277 0.875 0.3499 0.0
H1664 H 0.79076 0.819 0.35109 0.0
H1665 H 0.7351 0.79447 0.39174 0.0
H1666 H 0.6688 0.61648 0.39705 0.0
H1667 H 0.70903 0.67037 0.39789 0.0
H1668 H 0.77331 0.69529 0.35846 0.0
C1669 C 0.79987 0.83163 0.36093 0.0
C1670 C 0.74383 0.7729 0.38451 0.0
C1671 C 0.82079 0.86392 0.36027 0.0
C1672 C 0.67895 0.62782 0.38713 0.0
C1673 C 0.70176 0.65891 0.38761 0.0
C1674 C 0.76453 0.71674 0.36573 0.0
C1675 C 0.79152 0.81536 0.37411 0.0
C1676 C 0.77233 0.77924 0.37469 0.0
C1677 C 0.71433 0.67545 0.37498 0.0
C1678 C 0.73545 0.71059 0.37533 0.0
H1679 H 0.83375 0.87742 0.39587 0.0
H1680 H 0.79702 0.8211 0.39698 0.0
H1681 H 0.80511 0.7545 0.35791 0.0
H1682 H 0.67457 0.61719 0.35108 0.0
H1683 H 0.71387 0.67138 0.35193 0.0
C1684 C 0.62972 0.68169 0.14484 0.0
C1685 C 0.61695 0.66579 0.1321 0.0
C1686 C 0.66177 0.70308 0.14497 0.0
C1687 C 0.72738 0.75353 0.12184 0.0
H1688 H 0.79631 0.73425 0.15254 0.0
C1689 C 0.87501 0.81016 0.12034 0.0
C1690 C 0.88742 0.82784 0.13278 0.0
C1691 C 0.84314 0.78857 0.12055 0.0
C1692 C 0.77723 0.74012 0.14397 0.0
H1693 H 0.62698 0.66146 0.10938 0.0
H1694 H 0.68297 0.69852 0.10965 0.0
H1695 H 0.73672 0.70295 0.15224 0.0
H1696 H 0.87722 0.83477 0.15539 0.0
H1697 H 0.82154 0.79699 0.15572 0.0
H1698 H 0.76797 0.79054 0.11353 0.0
C1699 C 0.66808 0.69464 0.11953 0.0
C1700 C 0.74303 0.72233 0.14381 0.0
C1701 C 0.63597 0.67331 0.11938 0.0
C1702 C 0.86845 0.82158 0.14562 0.0
C1703 C 0.83653 0.7999 0.14582 0.0
C1704 C 0.76159 0.77122 0.12198 0.0
C1705 C 0.68181 0.70905 0.13238 0.0
C1706 C 0.71771 0.72882 0.13273 0.0
C1707 C 0.82298 0.78406 0.13319 0.0
C1708 C 0.78694 0.76465 0.13302 0.0
H1709 H 0.61563 0.6767 0.15482 0.0
H1710 H 0.67118 0.71446 0.155 0.0
H1711 H 0.70833 0.75953 0.11326 0.0
H1712 H 0.8891 0.81408 0.11029 0.0
H1713 H 0.83382 0.77604 0.11072 0.0
C1714 C 0.81975 0.63078 0.6433 0.0
C1715 C 0.83295 0.61604 0.63043 0.0
C1716 C 0.79738 0.66212 0.64331 0.0
C1717 C 0.7394 0.72156 0.62034 0.0
H1718 H 0.76383 0.79678 0.64818 0.0
C1719 C 0.67833 0.86759 0.61717 0.0
C1720 C 0.66388 0.88191 0.62992 0.0
C1721 C 0.70033 0.83601 0.6173 0.0
C1722 C 0.75651 0.77593 0.64042 0.0
H1723 H 0.83147 0.62175 0.60742 0.0
H1724 H 0.79276 0.67652 0.60748 0.0
H1725 H 0.79688 0.73823 0.64837 0.0
H1726 H 0.66285 0.87524 0.65288 0.0
H1727 H 0.70129 0.82015 0.65308 0.0
H1728 H 0.69917 0.75941 0.61235 0.0
C1729 C 0.79949 0.66372 0.61756 0.0
C1730 C 0.77531 0.74232 0.64056 0.0
C1731 C 0.8218 0.63232 0.61754 0.0
C1732 C 0.67347 0.86496 0.64286 0.0
C1733 C 0.69558 0.83341 0.64299 0.0
C1734 C 0.72068 0.75521 0.62019 0.0
C1735 C 0.78773 0.67946 0.63046 0.0
C1736 C 0.76696 0.71474 0.63052 0.0
C1737 C 0.70851 0.81812 0.63019 0.0
C1738 C 0.72906 0.78276 0.63021 0.0
H1739 H 0.82758 0.61881 0.65342 0.0
H1740 H 0.78812 0.67314 0.65341 0.0
H1741 H 0.73199 0.70073 0.61259 0.0
H1742 H 0.67168 0.88003 0.607 0.0
H1743 H 0.71048 0.82523 0.60729 0.0
loop_
_geom_bond_atom_site_label_1
_geom_bond_atom_site_label_2
_geom_bond_distance
_geom_bond_site_symmetry_2
_ccdc_geom_bond_type
Co0 O3 1.970 . S
Co0 N17 1.989 . S
Co0 O25 1.967 . S
Co0 O32 1.920 . S
Co1 O4 1.966 . S
Co1 N10 2.022 . S
Co1 N18 1.993 . S
Co1 O26 1.941 . S
C2 O3 1.258 . S
C2 O4 1.263 . S
O3 Co0 1.970 . S
O3 C2 1.258 . S
O4 Co1 1.966 . S
O4 C2 1.263 . S
C5 O6 1.235 . S
C5 O32 1.289 . S
O6 C5 1.235 . S
C7 C9 1.400 . S
C7 N10 1.351 . S
C7 C12 1.501 . S
C8 C9 1.387 . S
C8 N11 1.341 . S
C9 C7 1.400 . S
C9 C8 1.387 . S
N10 Co1 2.022 . S
N10 C7 1.351 . S
N10 N11 1.365 . S
N11 C8 1.341 . S
N11 N10 1.365 . S
N11 H31 0.862 . S
C12 C7 1.501 . S
C12 H13 0.961 . S
C12 H14 0.961 1_545 S
C12 H15 0.960 . S
H13 C12 0.961 . S
H14 C12 0.961 1_565 S
H15 C12 0.960 . S
C16 N17 1.342 . S
C16 C20 1.401 . S
C16 C21 1.499 . S
N17 Co0 1.989 . S
N17 C16 1.342 . S
N17 N18 1.388 . S
N18 Co1 1.993 . S
N18 N17 1.388 . S
N18 C19 1.346 . S
C19 N18 1.346 . S
C19 C20 1.396 . S
C19 C29 1.510 . S
C20 C16 1.401 . S
C20 C19 1.396 . S
C21 C16 1.499 . S
C21 H22 0.959 . S
C21 H23 0.960 . S
C21 H24 0.961 . S
H22 C21 0.959 . S
H23 C21 0.960 . S
H24 C21 0.961 . S
O25 Co0 1.967 . S
O25 C33 1.258 . S
O26 Co1 1.941 . S
O26 C33 1.266 . S
H27 C29 0.959 . S
H28 C29 0.961 . S
C29 C19 1.510 . S
C29 H27 0.959 . S
C29 H28 0.961 . S
C29 H30 0.960 . S
H30 C29 0.960 . S
H31 N11 0.862 . S
O32 Co0 1.920 . S
O32 C5 1.289 . S
C33 O25 1.258 . S
C33 O26 1.266 . S
Co34 O37 1.970 . S
Co34 N51 1.989 . S
Co34 O59 1.967 . S
Co34 O66 1.920 . S
Co35 O38 1.966 . S
Co35 N44 2.022 . S
Co35 N52 1.993 . S
Co35 O60 1.941 . S
C36 O37 1.258 . S
C36 O38 1.263 . S
O37 Co34 1.970 . S
O37 C36 1.258 . S
O38 Co35 1.966 . S
O38 C36 1.263 . S
C39 O40 1.235 . S
C39 O66 1.289 . S
O40 C39 1.235 . S
C41 C43 1.400 . S
C41 N44 1.351 . S
C41 C46 1.501 . S
C42 C43 1.387 . S
C42 N45 1.341 . S
C43 C41 1.400 . S
C43 C42 1.387 . S
N44 Co35 2.022 . S
N44 C41 1.351 . S
N44 N45 1.365 . S
N45 C42 1.341 . S
N45 N44 1.365 . S
N45 H65 0.862 . S
C46 C41 1.501 . S
C46 H47 0.961 . S
C46 H48 0.961 . S
C46 H49 0.960 . S
H47 C46 0.961 . S
H48 C46 0.961 . S
H49 C46 0.960 . S
C50 N51 1.342 . S
C50 C54 1.401 . S
C50 C55 1.499 . S
N51 Co34 1.989 . S
N51 C50 1.342 . S
N51 N52 1.388 . S
N52 Co35 1.993 . S
N52 N51 1.388 . S
N52 C53 1.346 . S
C53 N52 1.346 . S
C53 C54 1.396 . S
C53 C63 1.510 . S
C54 C50 1.401 . S
C54 C53 1.396 . S
C55 C50 1.499 . S
C55 H56 0.959 . S
C55 H57 0.960 . S
C55 H58 0.961 . S
H56 C55 0.959 . S
H57 C55 0.960 . S
H58 C55 0.961 . S
O59 Co34 1.967 . S
O59 C67 1.258 . S
O60 Co35 1.941 . S
O60 C67 1.266 . S
H61 C63 0.959 . S
H62 C63 0.961 . S
C63 C53 1.510 . S
C63 H61 0.959 . S
C63 H62 0.961 . S
C63 H64 0.960 . S
H64 C63 0.960 . S
H65 N45 0.862 . S
O66 Co34 1.920 . S
O66 C39 1.289 . S
C67 O59 1.258 . S
C67 O60 1.266 . S
Co68 O71 1.970 . S
Co68 N85 1.989 . S
Co68 O93 1.967 . S
Co68 O100 1.920 . S
Co69 O72 1.966 . S
Co69 N78 2.022 . S
Co69 N86 1.993 . S
Co69 O94 1.941 . S
C70 O71 1.258 . S
C70 O72 1.263 . S
O71 Co68 1.970 . S
O71 C70 1.258 . S
O72 Co69 1.966 . S
O72 C70 1.263 . S
C73 O74 1.235 . S
C73 O100 1.289 . S
O74 C73 1.235 . S
C75 C77 1.400 . S
C75 N78 1.351 . S
C75 C80 1.501 . S
C76 C77 1.387 . S
C76 N79 1.341 . S
C77 C75 1.400 . S
C77 C76 1.387 . S
N78 Co69 2.022 . S
N78 C75 1.351 . S
N78 N79 1.365 . S
N79 C76 1.341 . S
N79 N78 1.365 . S
N79 H99 0.862 . S
C80 C75 1.501 . S
C80 H81 0.961 . S
C80 H82 0.961 . S
C80 H83 0.960 . S
H81 C80 0.961 . S
H82 C80 0.961 . S
H83 C80 0.960 . S
C84 N85 1.342 . S
C84 C88 1.401 1_455 S
C84 C89 1.499 1_455 S
N85 Co68 1.989 . S
N85 C84 1.342 . S
N85 N86 1.388 . S
N86 Co69 1.993 . S
N86 N85 1.388 . S
N86 C87 1.347 . S
C87 N86 1.347 . S
C87 C88 1.395 1_455 S
C87 C97 1.510 1_455 S
C88 C84 1.401 1_655 S
C88 C87 1.395 1_655 S
C89 C84 1.499 1_655 S
C89 H90 0.959 1_655 S
C89 H91 0.960 . S
C89 H92 0.961 . S
H90 C89 0.959 1_455 S
H91 C89 0.960 . S
H92 C89 0.961 . S
O93 Co68 1.967 . S
O93 C101 1.258 . S
O94 Co69 1.941 . S
O94 C101 1.266 . S
H95 C97 0.959 . S
H96 C97 0.961 . S
C97 C87 1.510 1_655 S
C97 H95 0.959 . S
C97 H96 0.961 . S
C97 H98 0.960 1_655 S
H98 C97 0.960 1_455 S
H99 N79 0.862 . S
O100 Co68 1.920 . S
O100 C73 1.289 . S
C101 O93 1.258 . S
C101 O94 1.266 . S
Co102 O105 1.970 . S
Co102 N119 1.989 . S
Co102 O127 1.967 . S
Co102 O134 1.920 . S
Co103 O106 1.966 . S
Co103 N112 2.022 . S
Co103 N120 1.993 . S
Co103 O128 1.941 . S
C104 O105 1.258 . S
C104 O106 1.263 . S
O105 Co102 1.970 . S
O105 C104 1.258 . S
O106 Co103 1.966 . S
O106 C104 1.263 . S
C107 O108 1.235 . S
C107 O134 1.289 . S
O108 C107 1.235 . S
C109 C111 1.400 . S
C109 N112 1.351 . S
C109 C114 1.501 . S
C110 C111 1.387 . S
C110 N113 1.341 . S
C111 C109 1.400 . S
C111 C110 1.387 . S
N112 Co103 2.022 . S
N112 C109 1.351 . S
N112 N113 1.365 . S
N113 C110 1.341 . S
N113 N112 1.365 . S
N113 H133 0.862 . S
C114 C109 1.501 . S
C114 H115 0.961 . S
C114 H116 0.961 1_455 S
C114 H117 0.960 . S
H115 C114 0.961 . S
H116 C114 0.961 1_655 S
H117 C114 0.960 . S
C118 N119 1.342 . S
C118 C122 1.401 1_545 S
C118 C123 1.499 1_545 S
N119 Co102 1.989 . S
N119 C118 1.342 . S
N119 N120 1.388 . S
N120 Co103 1.993 . S
N120 N119 1.388 . S
N120 C121 1.347 . S
C121 N120 1.347 . S
C121 C122 1.395 1_545 S
C121 C131 1.510 1_545 S
C122 C118 1.401 1_565 S
C122 C121 1.395 1_565 S
C123 C118 1.499 1_565 S
C123 H124 0.959 1_565 S
C123 H125 0.960 . S
C123 H126 0.961 . S
H124 C123 0.959 1_545 S
H125 C123 0.960 . S
H126 C123 0.961 . S
O127 Co102 1.967 . S
O127 C135 1.258 . S
O128 Co103 1.941 . S
O128 C135 1.266 . S
H129 C131 0.959 . S
H130 C131 0.961 . S
C131 C121 1.510 1_565 S
C131 H129 0.959 . S
C131 H130 0.961 . S
C131 H132 0.960 1_565 S
H132 C131 0.960 1_545 S
H133 N113 0.862 . S
O134 Co102 1.920 . S
O134 C107 1.289 . S
C135 O127 1.258 . S
C135 O128 1.266 . S
Co136 O139 1.970 . S
Co136 N153 1.989 . S
Co136 O161 1.967 . S
Co136 O168 1.920 . S
Co137 O140 1.966 . S
Co137 N146 2.022 . S
Co137 N154 1.993 . S
Co137 O162 1.941 . S
C138 O139 1.258 . S
C138 O140 1.263 . S
O139 Co136 1.970 . S
O139 C138 1.258 . S
O140 Co137 1.966 . S
O140 C138 1.263 . S
C141 O142 1.235 . S
C141 O168 1.289 . S
O142 C141 1.235 . S
C143 C145 1.400 . S
C143 N146 1.351 . S
C143 C148 1.501 . S
C144 C145 1.387 . S
C144 N147 1.341 . S
C145 C143 1.400 . S
C145 C144 1.387 . S
N146 Co137 2.022 . S
N146 C143 1.351 . S
N146 N147 1.365 . S
N147 C144 1.341 . S
N147 N146 1.365 . S
N147 H167 0.862 . S
C148 C143 1.501 . S
C148 H149 0.961 . S
C148 H150 0.961 . S
C148 H151 0.960 . S
H149 C148 0.961 . S
H150 C148 0.961 . S
H151 C148 0.960 . S
C152 N153 1.342 . S
C152 C156 1.401 . S
C152 C157 1.499 . S
N153 Co136 1.989 . S
N153 C152 1.342 . S
N153 N154 1.388 . S
N154 Co137 1.993 . S
N154 N153 1.388 . S
N154 C155 1.346 . S
C155 N154 1.346 . S
C155 C156 1.396 . S
C155 C165 1.510 . S
C156 C152 1.401 . S
C156 C155 1.396 . S
C157 C152 1.499 . S
C157 H158 0.959 . S
C157 H159 0.960 . S
C157 H160 0.961 . S
H158 C157 0.959 . S
H159 C157 0.960 . S
H160 C157 0.961 . S
O161 Co136 1.967 . S
O161 C169 1.258 . S
O162 Co137 1.941 . S
O162 C169 1.266 . S
H163 C165 0.959 . S
H164 C165 0.961 . S
C165 C155 1.510 . S
C165 H163 0.959 . S
C165 H164 0.961 . S
C165 H166 0.960 . S
H166 C165 0.960 . S
H167 N147 0.862 . S
O168 Co136 1.920 . S
O168 C141 1.289 . S
C169 O161 1.258 . S
C169 O162 1.266 . S
Co170 O173 1.970 . S
Co170 N187 1.989 . S
Co170 O195 1.967 . S
Co170 O202 1.920 . S
Co171 O174 1.966 . S
Co171 N180 2.022 . S
Co171 N188 1.993 . S
Co171 O196 1.941 . S
C172 O173 1.258 . S
C172 O174 1.263 . S
O173 Co170 1.970 . S
O173 C172 1.258 . S
O174 Co171 1.966 . S
O174 C172 1.263 . S
C175 O176 1.235 . S
C175 O202 1.289 . S
O176 C175 1.235 . S
C177 C179 1.400 . S
C177 N180 1.351 . S
C177 C182 1.501 . S
C178 C179 1.387 . S
C178 N181 1.341 . S
C179 C177 1.400 . S
C179 C178 1.387 . S
N180 Co171 2.022 . S
N180 C177 1.351 . S
N180 N181 1.365 . S
N181 C178 1.341 . S
N181 N180 1.365 . S
N181 H201 0.862 . S
C182 C177 1.501 . S
C182 H183 0.961 . S
C182 H184 0.961 1_455 S
C182 H185 0.960 . S
H183 C182 0.961 . S
H184 C182 0.961 1_655 S
H185 C182 0.960 . S
C186 N187 1.342 . S
C186 C190 1.401 . S
C186 C191 1.499 . S
N187 Co170 1.989 . S
N187 C186 1.342 . S
N187 N188 1.388 . S
N188 Co171 1.993 . S
N188 N187 1.388 . S
N188 C189 1.346 . S
C189 N188 1.346 . S
C189 C190 1.396 . S
C189 C199 1.510 . S
C190 C186 1.401 . S
C190 C189 1.396 . S
C191 C186 1.499 . S
C191 H192 0.959 . S
C191 H193 0.960 . S
C191 H194 0.961 . S
H192 C191 0.959 . S
H193 C191 0.960 . S
H194 C191 0.961 . S
O195 Co170 1.967 . S
O195 C203 1.258 . S
O196 Co171 1.941 . S
O196 C203 1.266 . S
H197 C199 0.959 . S
H198 C199 0.961 . S
C199 C189 1.510 . S
C199 H197 0.959 . S
C199 H198 0.961 . S
C199 H200 0.960 . S
H200 C199 0.960 . S
H201 N181 0.862 . S
O202 Co170 1.920 . S
O202 C175 1.289 . S
C203 O195 1.258 . S
C203 O196 1.266 . S
Co204 O207 1.970 . S
Co204 N221 1.989 . S
Co204 O229 1.967 . S
Co204 O236 1.920 . S
Co205 O208 1.966 . S
Co205 N214 2.022 . S
Co205 N222 1.993 . S
Co205 O230 1.941 . S
C206 O207 1.258 . S
C206 O208 1.263 . S
O207 Co204 1.970 . S
O207 C206 1.258 . S
O208 Co205 1.966 . S
O208 C206 1.263 . S
C209 O210 1.235 . S
C209 O236 1.289 . S
O210 C209 1.235 . S
C211 C213 1.400 . S
C211 N214 1.351 . S
C211 C216 1.501 . S
C212 C213 1.387 . S
C212 N215 1.341 . S
C213 C211 1.400 . S
C213 C212 1.387 . S
N214 Co205 2.022 . S
N214 C211 1.351 . S
N214 N215 1.365 . S
N215 C212 1.341 . S
N215 N214 1.365 . S
N215 H235 0.862 . S
C216 C211 1.501 . S
C216 H217 0.961 . S
C216 H218 0.961 1_545 S
C216 H219 0.960 . S
H217 C216 0.961 . S
H218 C216 0.961 1_565 S
H219 C216 0.960 . S
C220 N221 1.342 . S
C220 C224 1.401 1_455 S
C220 C225 1.499 1_455 S
N221 Co204 1.989 . S
N221 C220 1.342 . S
N221 N222 1.388 . S
N222 Co205 1.993 . S
N222 N221 1.388 . S
N222 C223 1.347 . S
C223 N222 1.347 . S
C223 C224 1.395 1_455 S
C223 C233 1.510 1_455 S
C224 C220 1.401 1_655 S
C224 C223 1.395 1_655 S
C225 C220 1.499 1_655 S
C225 H226 0.959 1_655 S
C225 H227 0.960 . S
C225 H228 0.961 . S
H226 C225 0.959 1_455 S
H227 C225 0.960 . S
H228 C225 0.961 . S
O229 Co204 1.967 . S
O229 C237 1.258 . S
O230 Co205 1.941 . S
O230 C237 1.266 . S
H231 C233 0.959 . S
H232 C233 0.961 . S
C233 C223 1.510 1_655 S
C233 H231 0.959 . S
C233 H232 0.961 . S
C233 H234 0.960 1_655 S
H234 C233 0.960 1_455 S
H235 N215 0.862 . S
O236 Co204 1.920 . S
O236 C209 1.289 . S
C237 O229 1.258 . S
C237 O230 1.266 . S
Co238 O241 1.970 . S
Co238 N255 1.989 . S
Co238 O263 1.967 . S
Co238 O270 1.920 . S
Co239 O242 1.966 . S
Co239 N248 2.022 . S
Co239 N256 1.993 . S
Co239 O264 1.941 . S
C240 O241 1.258 . S
C240 O242 1.263 . S
O241 Co238 1.970 . S
O241 C240 1.258 . S
O242 Co239 1.966 . S
O242 C240 1.263 . S
C243 O244 1.235 . S
C243 O270 1.289 . S
O244 C243 1.235 . S
C245 C247 1.400 . S
C245 N248 1.351 . S
C245 C250 1.501 . S
C246 C247 1.387 . S
C246 N249 1.341 . S
C247 C245 1.400 . S
C247 C246 1.387 . S
N248 Co239 2.022 . S
N248 C245 1.351 . S
N248 N249 1.365 . S
N249 C246 1.341 . S
N249 N248 1.365 . S
N249 H269 0.862 . S
C250 C245 1.501 . S
C250 H251 0.961 . S
C250 H252 0.961 . S
C250 H253 0.960 . S
H251 C250 0.961 . S
H252 C250 0.961 . S
H253 C250 0.960 . S
C254 N255 1.342 . S
C254 C258 1.401 1_545 S
C254 C259 1.499 1_545 S
N255 Co238 1.989 . S
N255 C254 1.342 . S
N255 N256 1.388 . S
N256 Co239 1.993 . S
N256 N255 1.388 . S
N256 C257 1.347 . S
C257 N256 1.347 . S
C257 C258 1.395 1_545 S
C257 C267 1.510 1_545 S
C258 C254 1.401 1_565 S
C258 C257 1.395 1_565 S
C259 C254 1.499 1_565 S
C259 H260 0.959 1_565 S
C259 H261 0.960 . S
C259 H262 0.961 . S
H260 C259 0.959 1_545 S
H261 C259 0.960 . S
H262 C259 0.961 . S
O263 Co238 1.967 . S
O263 C271 1.258 . S
O264 Co239 1.941 . S
O264 C271 1.266 . S
H265 C267 0.959 . S
H266 C267 0.961 . S
C267 C257 1.510 1_565 S
C267 H265 0.959 . S
C267 H266 0.961 . S
C267 H268 0.960 1_565 S
H268 C267 0.960 1_545 S
H269 N249 0.862 . S
O270 Co238 1.920 . S
O270 C243 1.289 . S
C271 O263 1.258 . S
C271 O264 1.266 . S
Co272 O275 1.970 . S
Co272 N289 1.989 . S
Co272 O297 1.967 . S
Co272 O304 1.920 . S
Co273 O276 1.966 . S
Co273 N282 2.022 . S
Co273 N290 1.993 . S
Co273 O298 1.941 . S
C274 O275 1.258 . S
C274 O276 1.263 . S
O275 Co272 1.970 . S
O275 C274 1.258 . S
O276 Co273 1.966 . S
O276 C274 1.263 . S
C277 O278 1.235 . S
C277 O304 1.289 . S
O278 C277 1.235 . S
C279 C281 1.400 . S
C279 N282 1.351 . S
C279 C284 1.501 . S
C280 C281 1.387 . S
C280 N283 1.341 . S
C281 C279 1.400 . S
C281 C280 1.387 . S
N282 Co273 2.022 . S
N282 C279 1.351 . S
N282 N283 1.365 . S
N283 C280 1.341 . S
N283 N282 1.365 . S
N283 H303 0.862 . S
C284 C279 1.501 . S
C284 H285 0.961 . S
C284 H286 0.961 1_565 S
C284 H287 0.960 . S
H285 C284 0.961 . S
H286 C284 0.961 1_545 S
H287 C284 0.960 . S
C288 N289 1.342 . S
C288 C292 1.401 . S
C288 C293 1.499 . S
N289 Co272 1.989 . S
N289 C288 1.342 . S
N289 N290 1.388 . S
N290 Co273 1.993 . S
N290 N289 1.388 . S
N290 C291 1.346 . S
C291 N290 1.346 . S
C291 C292 1.396 . S
C291 C301 1.510 . S
C292 C288 1.401 . S
C292 C291 1.396 . S
C293 C288 1.499 . S
C293 H294 0.959 . S
C293 H295 0.960 . S
C293 H296 0.961 . S
H294 C293 0.959 . S
H295 C293 0.960 . S
H296 C293 0.961 . S
O297 Co272 1.967 . S
O297 C305 1.258 . S
O298 Co273 1.941 . S
O298 C305 1.266 . S
H299 C301 0.959 . S
H300 C301 0.961 . S
C301 C291 1.510 . S
C301 H299 0.959 . S
C301 H300 0.961 . S
C301 H302 0.960 . S
H302 C301 0.960 . S
H303 N283 0.862 . S
O304 Co272 1.920 . S
O304 C277 1.289 . S
C305 O297 1.258 . S
C305 O298 1.266 . S
Co306 O309 1.970 . S
Co306 N323 1.989 . S
Co306 O331 1.967 . S
Co306 O338 1.920 . S
Co307 O310 1.966 . S
Co307 N316 2.022 . S
Co307 N324 1.993 . S
Co307 O332 1.941 . S
C308 O309 1.258 . S
C308 O310 1.263 . S
O309 Co306 1.970 . S
O309 C308 1.258 . S
O310 Co307 1.966 . S
O310 C308 1.263 . S
C311 O312 1.235 . S
C311 O338 1.289 . S
O312 C311 1.235 . S
C313 C315 1.400 . S
C313 N316 1.351 . S
C313 C318 1.501 . S
C314 C315 1.387 . S
C314 N317 1.341 . S
C315 C313 1.400 . S
C315 C314 1.387 . S
N316 Co307 2.022 . S
N316 C313 1.351 . S
N316 N317 1.365 . S
N317 C314 1.341 . S
N317 N316 1.365 . S
N317 H337 0.862 . S
C318 C313 1.501 . S
C318 H319 0.961 . S
C318 H320 0.961 . S
C318 H321 0.960 . S
H319 C318 0.961 . S
H320 C318 0.961 . S
H321 C318 0.960 . S
C322 N323 1.342 . S
C322 C326 1.401 . S
C322 C327 1.499 . S
N323 Co306 1.989 . S
N323 C322 1.342 . S
N323 N324 1.388 . S
N324 Co307 1.993 . S
N324 N323 1.388 . S
N324 C325 1.346 . S
C325 N324 1.346 . S
C325 C326 1.396 . S
C325 C335 1.510 . S
C326 C322 1.401 . S
C326 C325 1.396 . S
C327 C322 1.499 . S
C327 H328 0.959 . S
C327 H329 0.960 . S
C327 H330 0.961 . S
H328 C327 0.959 . S
H329 C327 0.960 . S
H330 C327 0.961 . S
O331 Co306 1.967 . S
O331 C339 1.258 . S
O332 Co307 1.941 . S
O332 C339 1.266 . S
H333 C335 0.959 . S
H334 C335 0.961 . S
C335 C325 1.510 . S
C335 H333 0.959 . S
C335 H334 0.961 . S
C335 H336 0.960 . S
H336 C335 0.960 . S
H337 N317 0.862 . S
O338 Co306 1.920 . S
O338 C311 1.289 . S
C339 O331 1.258 . S
C339 O332 1.266 . S
Co340 O343 1.970 . S
Co340 N357 1.989 . S
Co340 O365 1.967 . S
Co340 O372 1.920 . S
Co341 O344 1.966 . S
Co341 N350 2.022 . S
Co341 N358 1.993 . S
Co341 O366 1.941 . S
C342 O343 1.258 . S
C342 O344 1.263 . S
O343 Co340 1.970 . S
O343 C342 1.258 . S
O344 Co341 1.966 . S
O344 C342 1.263 . S
C345 O346 1.235 . S
C345 O372 1.289 . S
O346 C345 1.235 . S
C347 C349 1.400 . S
C347 N350 1.351 . S
C347 C352 1.501 . S
C348 C349 1.387 . S
C348 N351 1.341 . S
C349 C347 1.400 . S
C349 C348 1.387 . S
N350 Co341 2.022 . S
N350 C347 1.351 . S
N350 N351 1.365 . S
N351 C348 1.341 . S
N351 N350 1.365 . S
N351 H371 0.862 . S
C352 C347 1.501 . S
C352 H353 0.961 . S
C352 H354 0.961 . S
C352 H355 0.960 . S
H353 C352 0.961 . S
H354 C352 0.961 . S
H355 C352 0.960 . S
C356 N357 1.342 . S
C356 C360 1.401 1_655 S
C356 C361 1.499 1_655 S
N357 Co340 1.989 . S
N357 C356 1.342 . S
N357 N358 1.388 . S
N358 Co341 1.993 . S
N358 N357 1.388 . S
N358 C359 1.347 . S
C359 N358 1.347 . S
C359 C360 1.395 1_655 S
C359 C369 1.510 1_655 S
C360 C356 1.401 1_455 S
C360 C359 1.395 1_455 S
C361 C356 1.499 1_455 S
C361 H362 0.959 1_455 S
C361 H363 0.960 . S
C361 H364 0.961 . S
H362 C361 0.959 1_655 S
H363 C361 0.960 . S
H364 C361 0.961 . S
O365 Co340 1.967 . S
O365 C373 1.258 . S
O366 Co341 1.941 . S
O366 C373 1.266 . S
H367 C369 0.959 . S
H368 C369 0.961 . S
C369 C359 1.510 1_455 S
C369 H367 0.959 . S
C369 H368 0.961 . S
C369 H370 0.960 1_455 S
H370 C369 0.960 1_655 S
H371 N351 0.862 . S
O372 Co340 1.920 . S
O372 C345 1.289 . S
C373 O365 1.258 . S
C373 O366 1.266 . S
Co374 O377 1.970 . S
Co374 N391 1.989 . S
Co374 O399 1.967 . S
Co374 O406 1.920 . S
Co375 O378 1.966 . S
Co375 N384 2.022 . S
Co375 N392 1.993 . S
Co375 O400 1.941 . S
C376 O377 1.258 . S
C376 O378 1.263 . S
O377 Co374 1.970 . S
O377 C376 1.258 . S
O378 Co375 1.966 . S
O378 C376 1.263 . S
C379 O380 1.235 . S
C379 O406 1.289 . S
O380 C379 1.235 . S
C381 C383 1.400 . S
C381 N384 1.351 . S
C381 C386 1.501 . S
C382 C383 1.387 . S
C382 N385 1.341 . S
C383 C381 1.400 . S
C383 C382 1.387 . S
N384 Co375 2.022 . S
N384 C381 1.351 . S
N384 N385 1.365 . S
N385 C382 1.341 . S
N385 N384 1.365 . S
N385 H405 0.862 . S
C386 C381 1.501 . S
C386 H387 0.961 . S
C386 H388 0.961 1_655 S
C386 H389 0.960 . S
H387 C386 0.961 . S
H388 C386 0.961 1_455 S
H389 C386 0.960 . S
C390 N391 1.342 . S
C390 C394 1.401 1_565 S
C390 C395 1.499 1_565 S
N391 Co374 1.989 . S
N391 C390 1.342 . S
N391 N392 1.388 . S
N392 Co375 1.993 . S
N392 N391 1.388 . S
N392 C393 1.347 . S
C393 N392 1.347 . S
C393 C394 1.395 1_565 S
C393 C403 1.510 1_565 S
C394 C390 1.401 1_545 S
C394 C393 1.395 1_545 S
C395 C390 1.499 1_545 S
C395 H396 0.959 1_545 S
C395 H397 0.960 . S
C395 H398 0.961 . S
H396 C395 0.959 1_565 S
H397 C395 0.960 . S
H398 C395 0.961 . S
O399 Co374 1.967 . S
O399 C407 1.258 . S
O400 Co375 1.941 . S
O400 C407 1.266 . S
H401 C403 0.959 . S
H402 C403 0.961 . S
C403 C393 1.510 1_545 S
C403 H401 0.959 . S
C403 H402 0.961 . S
C403 H404 0.960 1_545 S
H404 C403 0.960 1_565 S
H405 N385 0.862 . S
O406 Co374 1.920 . S
O406 C379 1.289 . S
C407 O399 1.258 . S
C407 O400 1.266 . S
Co408 O411 1.970 . S
Co408 N425 1.989 . S
Co408 O433 1.967 . S
Co408 O440 1.920 . S
Co409 O412 1.966 . S
Co409 N418 2.022 . S
Co409 N426 1.993 . S
Co409 O434 1.941 . S
C410 O411 1.258 . S
C410 O412 1.263 . S
O411 Co408 1.970 . S
O411 C410 1.258 . S
O412 Co409 1.966 . S
O412 C410 1.263 . S
C413 O414 1.235 . S
C413 O440 1.289 . S
O414 C413 1.235 . S
C415 C417 1.400 . S
C415 N418 1.351 . S
C415 C420 1.501 . S
C416 C417 1.387 . S
C416 N419 1.341 . S
C417 C415 1.400 . S
C417 C416 1.387 . S
N418 Co409 2.022 . S
N418 C415 1.351 . S
N418 N419 1.365 . S
N419 C416 1.341 . S
N419 N418 1.365 . S
N419 H439 0.862 . S
C420 C415 1.501 . S
C420 H421 0.961 . S
C420 H422 0.961 . S
C420 H423 0.960 . S
H421 C420 0.961 . S
H422 C420 0.961 . S
H423 C420 0.960 . S
C424 N425 1.342 . S
C424 C428 1.401 . S
C424 C429 1.499 . S
N425 Co408 1.989 . S
N425 C424 1.342 . S
N425 N426 1.388 . S
N426 Co409 1.993 . S
N426 N425 1.388 . S
N426 C427 1.346 . S
C427 N426 1.346 . S
C427 C428 1.396 . S
C427 C437 1.510 . S
C428 C424 1.401 . S
C428 C427 1.396 . S
C429 C424 1.499 . S
C429 H430 0.959 . S
C429 H431 0.960 . S
C429 H432 0.961 . S
H430 C429 0.959 . S
H431 C429 0.960 . S
H432 C429 0.961 . S
O433 Co408 1.967 . S
O433 C441 1.258 . S
O434 Co409 1.941 . S
O434 C441 1.266 . S
H435 C437 0.959 . S
H436 C437 0.961 . S
C437 C427 1.510 . S
C437 H435 0.959 . S
C437 H436 0.961 . S
C437 H438 0.960 . S
H438 C437 0.960 . S
H439 N419 0.862 . S
O440 Co408 1.920 . S
O440 C413 1.289 . S
C441 O433 1.258 . S
C441 O434 1.266 . S
Co442 O445 1.970 . S
Co442 N459 1.989 . S
Co442 O467 1.967 . S
Co442 O474 1.920 . S
Co443 O446 1.966 . S
Co443 N452 2.022 . S
Co443 N460 1.993 . S
Co443 O468 1.941 . S
C444 O445 1.258 . S
C444 O446 1.263 . S
O445 Co442 1.970 . S
O445 C444 1.258 . S
O446 Co443 1.966 . S
O446 C444 1.263 . S
C447 O448 1.235 . S
C447 O474 1.289 . S
O448 C447 1.235 . S
C449 C451 1.400 . S
C449 N452 1.351 . S
C449 C454 1.501 . S
C450 C451 1.387 . S
C450 N453 1.341 . S
C451 C449 1.400 . S
C451 C450 1.387 . S
N452 Co443 2.022 . S
N452 C449 1.351 . S
N452 N453 1.365 . S
N453 C450 1.341 . S
N453 N452 1.365 . S
N453 H473 0.862 . S
C454 C449 1.501 . S
C454 H455 0.961 . S
C454 H456 0.961 1_655 S
C454 H457 0.960 . S
H455 C454 0.961 . S
H456 C454 0.961 1_455 S
H457 C454 0.960 . S
C458 N459 1.342 . S
C458 C462 1.401 . S
C458 C463 1.499 . S
N459 Co442 1.989 . S
N459 C458 1.342 . S
N459 N460 1.388 . S
N460 Co443 1.993 . S
N460 N459 1.388 . S
N460 C461 1.346 . S
C461 N460 1.346 . S
C461 C462 1.396 . S
C461 C471 1.510 . S
C462 C458 1.401 . S
C462 C461 1.396 . S
C463 C458 1.499 . S
C463 H464 0.959 . S
C463 H465 0.960 . S
C463 H466 0.961 . S
H464 C463 0.959 . S
H465 C463 0.960 . S
H466 C463 0.961 . S
O467 Co442 1.967 . S
O467 C475 1.258 . S
O468 Co443 1.941 . S
O468 C475 1.266 . S
H469 C471 0.959 . S
H470 C471 0.961 . S
C471 C461 1.510 . S
C471 H469 0.959 . S
C471 H470 0.961 . S
C471 H472 0.960 . S
H472 C471 0.960 . S
H473 N453 0.862 . S
O474 Co442 1.920 . S
O474 C447 1.289 . S
C475 O467 1.258 . S
C475 O468 1.266 . S
Co476 O479 1.970 . S
Co476 N493 1.989 . S
Co476 O501 1.967 . S
Co476 O508 1.920 . S
Co477 O480 1.966 . S
Co477 N486 2.022 . S
Co477 N494 1.993 . S
Co477 O502 1.941 . S
C478 O479 1.258 . S
C478 O480 1.263 . S
O479 Co476 1.970 . S
O479 C478 1.258 . S
O480 Co477 1.966 . S
O480 C478 1.263 . S
C481 O482 1.235 . S
C481 O508 1.289 . S
O482 C481 1.235 . S
C483 C485 1.400 . S
C483 N486 1.351 . S
C483 C488 1.501 . S
C484 C485 1.387 . S
C484 N487 1.341 . S
C485 C483 1.400 . S
C485 C484 1.387 . S
N486 Co477 2.022 . S
N486 C483 1.351 . S
N486 N487 1.365 . S
N487 C484 1.341 . S
N487 N486 1.365 . S
N487 H507 0.862 . S
C488 C483 1.501 . S
C488 H489 0.961 . S
C488 H490 0.961 1_565 S
C488 H491 0.960 . S
H489 C488 0.961 . S
H490 C488 0.961 1_545 S
H491 C488 0.960 . S
C492 N493 1.342 . S
C492 C496 1.401 1_655 S
C492 C497 1.499 1_655 S
N493 Co476 1.989 . S
N493 C492 1.342 . S
N493 N494 1.388 . S
N494 Co477 1.993 . S
N494 N493 1.388 . S
N494 C495 1.347 . S
C495 N494 1.347 . S
C495 C496 1.395 1_655 S
C495 C505 1.510 1_655 S
C496 C492 1.401 1_455 S
C496 C495 1.395 1_455 S
C497 C492 1.499 1_455 S
C497 H498 0.959 1_455 S
C497 H499 0.960 . S
C497 H500 0.961 . S
H498 C497 0.959 1_655 S
H499 C497 0.960 . S
H500 C497 0.961 . S
O501 Co476 1.967 . S
O501 C509 1.258 . S
O502 Co477 1.941 . S
O502 C509 1.266 . S
H503 C505 0.959 . S
H504 C505 0.961 . S
C505 C495 1.510 1_455 S
C505 H503 0.959 . S
C505 H504 0.961 . S
C505 H506 0.960 1_455 S
H506 C505 0.960 1_655 S
H507 N487 0.862 . S
O508 Co476 1.920 . S
O508 C481 1.289 . S
C509 O501 1.258 . S
C509 O502 1.266 . S
Co510 O513 1.970 . S
Co510 N527 1.989 . S
Co510 O535 1.967 . S
Co510 O542 1.920 . S
Co511 O514 1.966 . S
Co511 N520 2.022 . S
Co511 N528 1.993 . S
Co511 O536 1.941 . S
C512 O513 1.258 . S
C512 O514 1.263 . S
O513 Co510 1.970 . S
O513 C512 1.258 . S
O514 Co511 1.966 . S
O514 C512 1.263 . S
C515 O516 1.235 . S
C515 O542 1.289 . S
O516 C515 1.235 . S
C517 C519 1.400 . S
C517 N520 1.351 . S
C517 C522 1.501 . S
C518 C519 1.387 . S
C518 N521 1.341 . S
C519 C517 1.400 . S
C519 C518 1.387 . S
N520 Co511 2.022 . S
N520 C517 1.351 . S
N520 N521 1.365 . S
N521 C518 1.341 . S
N521 N520 1.365 . S
N521 H541 0.862 . S
C522 C517 1.501 . S
C522 H523 0.961 . S
C522 H524 0.961 . S
C522 H525 0.960 . S
H523 C522 0.961 . S
H524 C522 0.961 . S
H525 C522 0.960 . S
C526 N527 1.342 . S
C526 C530 1.401 1_565 S
C526 C531 1.499 1_565 S
N527 Co510 1.989 . S
N527 C526 1.342 . S
N527 N528 1.388 . S
N528 Co511 1.993 . S
N528 N527 1.388 . S
N528 C529 1.347 . S
C529 N528 1.347 . S
C529 C530 1.395 1_565 S
C529 C539 1.510 1_565 S
C530 C526 1.401 1_545 S
C530 C529 1.395 1_545 S
C531 C526 1.499 1_545 S
C531 H532 0.959 1_545 S
C531 H533 0.960 . S
C531 H534 0.961 . S
H532 C531 0.959 1_565 S
H533 C531 0.960 . S
H534 C531 0.961 . S
O535 Co510 1.967 . S
O535 C543 1.258 . S
O536 Co511 1.941 . S
O536 C543 1.266 . S
H537 C539 0.959 . S
H538 C539 0.961 . S
C539 C529 1.510 1_545 S
C539 H537 0.959 . S
C539 H538 0.961 . S
C539 H540 0.960 1_545 S
H540 C539 0.960 1_565 S
H541 N521 0.862 . S
O542 Co510 1.920 . S
O542 C515 1.289 . S
C543 O535 1.258 . S
C543 O536 1.266 . S
C544 C545 1.349 . S
C544 C546 1.327 . S
C544 H569 0.950 . S
C545 C544 1.349 . S
C545 C561 1.349 . S
C546 C544 1.327 . S
C546 C565 1.429 . S
C546 H570 0.950 . S
C547 C564 1.574 . S
C547 C566 1.368 . S
C547 H571 0.949 . S
H548 C552 0.949 . S
C549 C550 1.349 . S
C549 C551 1.327 . S
C549 H572 0.950 . S
C550 C549 1.349 . S
C550 C562 1.349 . S
C551 C549 1.327 . S
C551 C567 1.429 . S
C551 H573 0.950 . S
C552 H548 0.949 . S
C552 C560 1.574 . S
C552 C568 1.368 . S
H553 C561 0.950 . S
H554 C559 0.950 . S
H555 C560 0.949 . S
H556 C562 0.950 . S
H557 C563 0.950 . S
H558 C564 0.949 . S
C559 H554 0.950 . S
C559 C561 1.327 . S
C559 C565 1.429 . S
C560 C552 1.574 . S
C560 H555 0.949 . S
C560 C566 1.368 . S
C561 C545 1.349 . S
C561 H553 0.950 . S
C561 C559 1.327 . S
C562 C550 1.349 . S
C562 H556 0.950 . S
C562 C563 1.327 . S
C563 H557 0.950 . S
C563 C562 1.327 . S
C563 C567 1.429 . S
C564 C547 1.574 . S
C564 H558 0.949 . S
C564 C568 1.368 . S
C565 C546 1.429 . S
C565 C559 1.429 . S
C565 C566 1.523 . S
C566 C547 1.368 . S
C566 C560 1.368 . S
C566 C565 1.523 . S
C567 C551 1.429 . S
C567 C563 1.429 . S
C567 C568 1.523 . S
C568 C552 1.368 . S
C568 C564 1.368 . S
C568 C567 1.523 . S
H569 C544 0.950 . S
H570 C546 0.950 . S
H571 C547 0.949 . S
H572 C549 0.950 . S
H573 C551 0.950 . S
C574 C575 1.349 . S
C574 C576 1.327 . S
C574 H599 0.950 . S
C575 C574 1.349 . S
C575 C591 1.349 . S
C576 C574 1.327 . S
C576 C595 1.429 . S
C576 H600 0.950 . S
C577 C594 1.574 . S
C577 C596 1.368 . S
C577 H601 0.949 . S
H578 C582 0.949 . S
C579 C580 1.349 . S
C579 C581 1.327 . S
C579 H602 0.950 . S
C580 C579 1.349 . S
C580 C592 1.349 . S
C581 C579 1.327 . S
C581 C597 1.429 . S
C581 H603 0.950 . S
C582 H578 0.949 . S
C582 C590 1.574 . S
C582 C598 1.368 . S
H583 C591 0.950 . S
H584 C589 0.950 . S
H585 C590 0.949 . S
H586 C592 0.950 . S
H587 C593 0.950 . S
H588 C594 0.949 . S
C589 H584 0.950 . S
C589 C591 1.327 . S
C589 C595 1.429 . S
C590 C582 1.574 . S
C590 H585 0.949 . S
C590 C596 1.368 . S
C591 C575 1.349 . S
C591 H583 0.950 . S
C591 C589 1.327 . S
C592 C580 1.349 . S
C592 H586 0.950 . S
C592 C593 1.327 . S
C593 H587 0.950 . S
C593 C592 1.327 . S
C593 C597 1.429 . S
C594 C577 1.574 . S
C594 H588 0.949 . S
C594 C598 1.368 . S
C595 C576 1.429 . S
C595 C589 1.429 . S
C595 C596 1.523 . S
C596 C577 1.368 . S
C596 C590 1.368 . S
C596 C595 1.523 . S
C597 C581 1.429 . S
C597 C593 1.429 . S
C597 C598 1.523 . S
C598 C582 1.368 . S
C598 C594 1.368 . S
C598 C597 1.523 . S
H599 C574 0.950 . S
H600 C576 0.950 . S
H601 C577 0.949 . S
H602 C579 0.950 . S
H603 C581 0.950 . S
C604 C605 1.349 . S
C604 C606 1.327 . S
C604 H629 0.950 . S
C605 C604 1.349 . S
C605 C621 1.349 . S
C606 C604 1.327 . S
C606 C625 1.429 . S
C606 H630 0.950 . S
C607 C624 1.574 . S
C607 C626 1.368 . S
C607 H631 0.949 . S
H608 C612 0.949 . S
C609 C610 1.349 . S
C609 C611 1.327 . S
C609 H632 0.950 . S
C610 C609 1.349 . S
C610 C622 1.349 . S
C611 C609 1.327 . S
C611 C627 1.429 . S
C611 H633 0.950 . S
C612 H608 0.949 . S
C612 C620 1.574 . S
C612 C628 1.368 . S
H613 C621 0.950 . S
H614 C619 0.950 . S
H615 C620 0.949 . S
H616 C622 0.950 . S
H617 C623 0.950 . S
H618 C624 0.949 . S
C619 H614 0.950 . S
C619 C621 1.327 . S
C619 C625 1.429 . S
C620 C612 1.574 . S
C620 H615 0.949 . S
C620 C626 1.368 . S
C621 C605 1.349 . S
C621 H613 0.950 . S
C621 C619 1.327 . S
C622 C610 1.349 . S
C622 H616 0.950 . S
C622 C623 1.327 . S
C623 H617 0.950 . S
C623 C622 1.327 . S
C623 C627 1.429 . S
C624 C607 1.574 . S
C624 H618 0.949 . S
C624 C628 1.368 . S
C625 C606 1.429 . S
C625 C619 1.429 . S
C625 C626 1.523 . S
C626 C607 1.368 . S
C626 C620 1.368 . S
C626 C625 1.523 . S
C627 C611 1.429 . S
C627 C623 1.429 . S
C627 C628 1.523 . S
C628 C612 1.368 . S
C628 C624 1.368 . S
C628 C627 1.523 . S
H629 C604 0.950 . S
H630 C606 0.950 . S
H631 C607 0.949 . S
H632 C609 0.950 . S
H633 C611 0.950 . S
C634 C635 1.349 . S
C634 C636 1.327 . S
C634 H659 0.950 . S
C635 C634 1.349 . S
C635 C651 1.349 . S
C636 C634 1.327 . S
C636 C655 1.429 . S
C636 H660 0.950 . S
C637 C654 1.574 . S
C637 C656 1.368 . S
C637 H661 0.949 . S
H638 C642 0.949 . S
C639 C640 1.349 . S
C639 C641 1.327 . S
C639 H662 0.950 . S
C640 C639 1.349 . S
C640 C652 1.349 . S
C641 C639 1.327 . S
C641 C657 1.429 . S
C641 H663 0.950 . S
C642 H638 0.949 . S
C642 C650 1.574 . S
C642 C658 1.368 . S
H643 C651 0.950 . S
H644 C649 0.950 . S
H645 C650 0.949 . S
H646 C652 0.950 . S
H647 C653 0.950 . S
H648 C654 0.949 . S
C649 H644 0.950 . S
C649 C651 1.327 . S
C649 C655 1.429 . S
C650 C642 1.574 . S
C650 H645 0.949 . S
C650 C656 1.368 . S
C651 C635 1.349 . S
C651 H643 0.950 . S
C651 C649 1.327 . S
C652 C640 1.349 . S
C652 H646 0.950 . S
C652 C653 1.327 . S
C653 H647 0.950 . S
C653 C652 1.327 . S
C653 C657 1.429 . S
C654 C637 1.574 . S
C654 H648 0.949 . S
C654 C658 1.368 . S
C655 C636 1.429 . S
C655 C649 1.429 . S
C655 C656 1.523 . S
C656 C637 1.368 . S
C656 C650 1.368 . S
C656 C655 1.523 . S
C657 C641 1.429 . S
C657 C653 1.429 . S
C657 C658 1.523 . S
C658 C642 1.368 . S
C658 C654 1.368 . S
C658 C657 1.523 . S
H659 C634 0.950 . S
H660 C636 0.950 . S
H661 C637 0.949 . S
H662 C639 0.950 . S
H663 C641 0.950 . S
C664 C665 1.349 . S
C664 C666 1.327 . S
C664 H689 0.950 . S
C665 C664 1.349 . S
C665 C681 1.349 . S
C666 C664 1.327 . S
C666 C685 1.429 . S
C666 H690 0.950 . S
C667 C684 1.574 . S
C667 C686 1.368 . S
C667 H691 0.949 . S
H668 C672 0.949 . S
C669 C670 1.349 . S
C669 C671 1.327 . S
C669 H692 0.950 . S
C670 C669 1.349 . S
C670 C682 1.349 . S
C671 C669 1.327 . S
C671 C687 1.429 . S
C671 H693 0.950 . S
C672 H668 0.949 . S
C672 C680 1.574 . S
C672 C688 1.368 . S
H673 C681 0.950 . S
H674 C679 0.950 . S
H675 C680 0.949 . S
H676 C682 0.950 . S
H677 C683 0.950 . S
H678 C684 0.949 . S
C679 H674 0.950 . S
C679 C681 1.327 . S
C679 C685 1.429 . S
C680 C672 1.574 . S
C680 H675 0.949 . S
C680 C686 1.368 . S
C681 C665 1.349 . S
C681 H673 0.950 . S
C681 C679 1.327 . S
C682 C670 1.349 . S
C682 H676 0.950 . S
C682 C683 1.327 . S
C683 H677 0.950 . S
C683 C682 1.327 . S
C683 C687 1.429 . S
C684 C667 1.574 . S
C684 H678 0.949 . S
C684 C688 1.368 . S
C685 C666 1.429 . S
C685 C679 1.429 . S
C685 C686 1.523 . S
C686 C667 1.368 . S
C686 C680 1.368 . S
C686 C685 1.523 . S
C687 C671 1.429 . S
C687 C683 1.429 . S
C687 C688 1.523 . S
C688 C672 1.368 . S
C688 C684 1.368 . S
C688 C687 1.523 . S
H689 C664 0.950 . S
H690 C666 0.950 . S
H691 C667 0.949 . S
H692 C669 0.950 . S
H693 C671 0.950 . S
C694 C695 1.349 . S
C694 C696 1.327 . S
C694 H719 0.950 . S
C695 C694 1.349 . S
C695 C711 1.349 . S
C696 C694 1.327 . S
C696 C715 1.429 . S
C696 H720 0.950 . S
C697 C714 1.574 . S
C697 C716 1.368 . S
C697 H721 0.949 . S
H698 C702 0.949 . S
C699 C700 1.349 . S
C699 C701 1.327 . S
C699 H722 0.950 . S
C700 C699 1.349 . S
C700 C712 1.349 . S
C701 C699 1.327 . S
C701 C717 1.429 . S
C701 H723 0.950 . S
C702 H698 0.949 . S
C702 C710 1.574 . S
C702 C718 1.368 . S
H703 C711 0.950 . S
H704 C709 0.950 . S
H705 C710 0.949 . S
H706 C712 0.950 . S
H707 C713 0.950 . S
H708 C714 0.949 . S
C709 H704 0.950 . S
C709 C711 1.327 . S
C709 C715 1.429 . S
C710 C702 1.574 . S
C710 H705 0.949 . S
C710 C716 1.368 . S
C711 C695 1.349 . S
C711 H703 0.950 . S
C711 C709 1.327 . S
C712 C700 1.349 . S
C712 H706 0.950 . S
C712 C713 1.327 . S
C713 H707 0.950 . S
C713 C712 1.327 . S
C713 C717 1.429 . S
C714 C697 1.574 . S
C714 H708 0.949 . S
C714 C718 1.368 . S
C715 C696 1.429 . S
C715 C709 1.429 . S
C715 C716 1.523 . S
C716 C697 1.368 . S
C716 C710 1.368 . S
C716 C715 1.523 . S
C717 C701 1.429 . S
C717 C713 1.429 . S
C717 C718 1.523 . S
C718 C702 1.368 . S
C718 C714 1.368 . S
C718 C717 1.523 . S
H719 C694 0.950 . S
H720 C696 0.950 . S
H721 C697 0.949 . S
H722 C699 0.950 . S
H723 C701 0.950 . S
C724 C725 1.349 . S
C724 C726 1.327 . S
C724 H749 0.950 . S
C725 C724 1.349 . S
C725 C741 1.349 . S
C726 C724 1.327 . S
C726 C745 1.429 . S
C726 H750 0.950 . S
C727 C744 1.574 . S
C727 C746 1.368 . S
C727 H751 0.949 . S
H728 C732 0.949 . S
C729 C730 1.349 . S
C729 C731 1.327 . S
C729 H752 0.950 . S
C730 C729 1.349 . S
C730 C742 1.349 . S
C731 C729 1.327 . S
C731 C747 1.429 . S
C731 H753 0.950 . S
C732 H728 0.949 . S
C732 C740 1.574 . S
C732 C748 1.368 . S
H733 C741 0.950 . S
H734 C739 0.950 . S
H735 C740 0.949 . S
H736 C742 0.950 . S
H737 C743 0.950 . S
H738 C744 0.949 . S
C739 H734 0.950 . S
C739 C741 1.327 . S
C739 C745 1.429 . S
C740 C732 1.574 . S
C740 H735 0.949 . S
C740 C746 1.368 . S
C741 C725 1.349 . S
C741 H733 0.950 . S
C741 C739 1.327 . S
C742 C730 1.349 . S
C742 H736 0.950 . S
C742 C743 1.327 . S
C743 H737 0.950 . S
C743 C742 1.327 . S
C743 C747 1.429 . S
C744 C727 1.574 . S
C744 H738 0.949 . S
C744 C748 1.368 . S
C745 C726 1.429 . S
C745 C739 1.429 . S
C745 C746 1.523 . S
C746 C727 1.368 . S
C746 C740 1.368 . S
C746 C745 1.523 . S
C747 C731 1.429 . S
C747 C743 1.429 . S
C747 C748 1.523 . S
C748 C732 1.368 . S
C748 C744 1.368 . S
C748 C747 1.523 . S
H749 C724 0.950 . S
H750 C726 0.950 . S
H751 C727 0.949 . S
H752 C729 0.950 . S
H753 C731 0.950 . S
C754 C755 1.349 . S
C754 C756 1.327 . S
C754 H779 0.950 . S
C755 C754 1.349 . S
C755 C771 1.349 . S
C756 C754 1.327 . S
C756 C775 1.429 . S
C756 H780 0.950 . S
C757 C774 1.574 . S
C757 C776 1.368 . S
C757 H781 0.949 . S
H758 C762 0.949 . S
C759 C760 1.349 . S
C759 C761 1.327 . S
C759 H782 0.950 . S
C760 C759 1.349 . S
C760 C772 1.349 . S
C761 C759 1.327 . S
C761 C777 1.429 . S
C761 H783 0.950 . S
C762 H758 0.949 . S
C762 C770 1.574 . S
C762 C778 1.368 . S
H763 C771 0.950 . S
H764 C769 0.950 . S
H765 C770 0.949 . S
H766 C772 0.950 . S
H767 C773 0.950 . S
H768 C774 0.949 . S
C769 H764 0.950 . S
C769 C771 1.327 . S
C769 C775 1.429 . S
C770 C762 1.574 . S
C770 H765 0.949 . S
C770 C776 1.368 . S
C771 C755 1.349 . S
C771 H763 0.950 . S
C771 C769 1.327 . S
C772 C760 1.349 . S
C772 H766 0.950 . S
C772 C773 1.327 . S
C773 H767 0.950 . S
C773 C772 1.327 . S
C773 C777 1.429 . S
C774 C757 1.574 . S
C774 H768 0.949 . S
C774 C778 1.368 . S
C775 C756 1.429 . S
C775 C769 1.429 . S
C775 C776 1.523 . S
C776 C757 1.368 . S
C776 C770 1.368 . S
C776 C775 1.523 . S
C777 C761 1.429 . S
C777 C773 1.429 . S
C777 C778 1.523 . S
C778 C762 1.368 . S
C778 C774 1.368 . S
C778 C777 1.523 . S
H779 C754 0.950 . S
H780 C756 0.950 . S
H781 C757 0.949 . S
H782 C759 0.950 . S
H783 C761 0.950 . S
C784 C785 1.349 1_565 S
C784 C786 1.327 . S
C784 H809 0.950 . S
C785 C784 1.349 1_545 S
C785 C801 1.349 . S
C786 C784 1.327 . S
C786 C805 1.429 1_565 S
C786 H810 0.950 . S
C787 C804 1.574 1_554 S
C787 C806 1.368 . S
C787 H811 0.949 . S
H788 C792 0.949 . S
C789 C790 1.349 1_545 S
C789 C791 1.327 . S
C789 H812 0.950 . S
C790 C789 1.349 1_565 S
C790 C802 1.349 . S
C791 C789 1.327 . S
C791 C807 1.429 1_545 S
C791 H813 0.950 . S
C792 H788 0.949 . S
C792 C800 1.574 1_556 S
C792 C808 1.368 . S
H793 C801 0.950 . S
H794 C799 0.950 . S
H795 C800 0.949 . S
H796 C802 0.950 . S
H797 C803 0.950 . S
H798 C804 0.949 . S
C799 H794 0.950 . S
C799 C801 1.327 . S
C799 C805 1.429 . S
C800 C792 1.574 1_554 S
C800 H795 0.949 . S
C800 C806 1.368 1_565 S
C801 C785 1.349 . S
C801 H793 0.950 . S
C801 C799 1.327 . S
C802 C790 1.349 . S
C802 H796 0.950 . S
C802 C803 1.327 . S
C803 H797 0.950 . S
C803 C802 1.327 . S
C803 C807 1.429 . S
C804 C787 1.574 1_556 S
C804 H798 0.949 . S
C804 C808 1.368 1_545 S
C805 C786 1.429 1_545 S
C805 C799 1.429 . S
C805 C806 1.523 . S
C806 C787 1.368 . S
C806 C800 1.368 1_545 S
C806 C805 1.523 . S
C807 C791 1.429 1_565 S
C807 C803 1.429 . S
C807 C808 1.523 . S
C808 C792 1.368 . S
C808 C804 1.368 1_565 S
C808 C807 1.523 . S
H809 C784 0.950 . S
H810 C786 0.950 . S
H811 C787 0.949 . S
H812 C789 0.950 . S
H813 C791 0.950 . S
C814 C815 1.349 . S
C814 C816 1.327 . S
C814 H839 0.950 . S
C815 C814 1.349 . S
C815 C831 1.349 . S
C816 C814 1.327 . S
C816 C835 1.429 . S
C816 H840 0.950 . S
C817 C834 1.574 . S
C817 C836 1.368 . S
C817 H841 0.949 . S
H818 C822 0.949 . S
C819 C820 1.349 . S
C819 C821 1.327 . S
C819 H842 0.950 . S
C820 C819 1.349 . S
C820 C832 1.349 . S
C821 C819 1.327 . S
C821 C837 1.429 . S
C821 H843 0.950 . S
C822 H818 0.949 . S
C822 C830 1.574 . S
C822 C838 1.368 . S
H823 C831 0.950 . S
H824 C829 0.950 . S
H825 C830 0.949 . S
H826 C832 0.950 . S
H827 C833 0.950 . S
H828 C834 0.949 . S
C829 H824 0.950 . S
C829 C831 1.327 . S
C829 C835 1.429 . S
C830 C822 1.574 . S
C830 H825 0.949 . S
C830 C836 1.368 . S
C831 C815 1.349 . S
C831 H823 0.950 . S
C831 C829 1.327 . S
C832 C820 1.349 . S
C832 H826 0.950 . S
C832 C833 1.327 . S
C833 H827 0.950 . S
C833 C832 1.327 . S
C833 C837 1.429 . S
C834 C817 1.574 . S
C834 H828 0.949 . S
C834 C838 1.368 . S
C835 C816 1.429 . S
C835 C829 1.429 . S
C835 C836 1.523 . S
C836 C817 1.368 . S
C836 C830 1.368 . S
C836 C835 1.523 . S
C837 C821 1.429 . S
C837 C833 1.429 . S
C837 C838 1.523 . S
C838 C822 1.368 . S
C838 C834 1.368 . S
C838 C837 1.523 . S
H839 C814 0.950 . S
H840 C816 0.950 . S
H841 C817 0.949 . S
H842 C819 0.950 . S
H843 C821 0.950 . S
C844 C845 1.349 . S
C844 C846 1.327 . S
C844 H869 0.950 . S
C845 C844 1.349 . S
C845 C861 1.349 . S
C846 C844 1.327 . S
C846 C865 1.429 . S
C846 H870 0.950 . S
C847 C864 1.574 1_656 S
C847 C866 1.368 . S
C847 H871 0.949 . S
H848 C852 0.949 . S
C849 C850 1.349 . S
C849 C851 1.327 . S
C849 H872 0.950 . S
C850 C849 1.349 . S
C850 C862 1.349 . S
C851 C849 1.327 . S
C851 C867 1.429 . S
C851 H873 0.950 . S
C852 H848 0.949 . S
C852 C860 1.574 1_454 S
C852 C868 1.368 . S
H853 C861 0.950 . S
H854 C859 0.950 . S
H855 C860 0.949 . S
H856 C862 0.950 . S
H857 C863 0.950 . S
H858 C864 0.949 . S
C859 H854 0.950 . S
C859 C861 1.327 . S
C859 C865 1.429 . S
C860 C852 1.574 1_656 S
C860 H855 0.949 . S
C860 C866 1.368 . S
C861 C845 1.349 . S
C861 H853 0.950 . S
C861 C859 1.327 . S
C862 C850 1.349 . S
C862 H856 0.950 . S
C862 C863 1.327 . S
C863 H857 0.950 . S
C863 C862 1.327 . S
C863 C867 1.429 . S
C864 C847 1.574 1_454 S
C864 H858 0.949 . S
C864 C868 1.368 . S
C865 C846 1.429 . S
C865 C859 1.429 . S
C865 C866 1.523 . S
C866 C847 1.368 . S
C866 C860 1.368 . S
C866 C865 1.523 . S
C867 C851 1.429 . S
C867 C863 1.429 . S
C867 C868 1.523 . S
C868 C852 1.368 . S
C868 C864 1.368 . S
C868 C867 1.523 . S
H869 C844 0.950 . S
H870 C846 0.950 . S
H871 C847 0.949 . S
H872 C849 0.950 . S
H873 C851 0.950 . S
C874 C875 1.349 . S
C874 C876 1.327 . S
C874 H899 0.950 . S
C875 C874 1.349 . S
C875 C891 1.349 1_455 S
C876 C874 1.327 . S
C876 C895 1.429 . S
C876 H900 0.950 . S
C877 C894 1.581 . S
C877 C896 1.362 1_665 S
C877 H901 0.949 . S
H878 C882 0.949 . S
C879 C880 1.349 . S
C879 C881 1.327 . S
C879 H902 0.950 . S
C880 C879 1.349 . S
C880 C892 1.349 1_655 S
C881 C879 1.327 . S
C881 C897 1.429 . S
C881 H903 0.950 . S
C882 H878 0.949 . S
C882 C890 1.581 . S
C882 C898 1.362 1_445 S
H883 C891 0.950 . S
H884 C889 0.950 . S
H885 C890 0.949 . S
H886 C892 0.950 . S
H887 C893 0.950 . S
H888 C894 0.949 . S
C889 H884 0.950 . S
C889 C891 1.327 . S
C889 C895 1.429 1_655 S
C890 C882 1.581 . S
C890 H885 0.949 . S
C890 C896 1.368 . S
C891 C875 1.349 1_655 S
C891 H883 0.950 . S
C891 C889 1.327 . S
C892 C880 1.349 1_455 S
C892 H886 0.950 . S
C892 C893 1.327 . S
C893 H887 0.950 . S
C893 C892 1.327 . S
C893 C897 1.429 1_455 S
C894 C877 1.581 . S
C894 H888 0.949 . S
C894 C898 1.368 . S
C895 C876 1.429 . S
C895 C889 1.429 1_455 S
C895 C896 1.523 . S
C896 C877 1.362 1_445 S
C896 C890 1.368 . S
C896 C895 1.523 . S
C897 C881 1.429 . S
C897 C893 1.429 1_655 S
C897 C898 1.523 . S
C898 C882 1.362 1_665 S
C898 C894 1.368 . S
C898 C897 1.523 . S
H899 C874 0.950 . S
H900 C876 0.950 . S
H901 C877 0.949 . S
H902 C879 0.950 . S
H903 C881 0.950 . S
C904 C905 1.349 . S
C904 C906 1.327 . S
C904 H929 0.950 . S
C905 C904 1.349 . S
C905 C921 1.349 . S
C906 C904 1.327 . S
C906 C925 1.429 . S
C906 H930 0.950 . S
C907 C924 1.574 1_554 S
C907 C926 1.368 . S
C907 H931 0.949 . S
H908 C912 0.949 . S
C909 C910 1.349 . S
C909 C911 1.327 . S
C909 H932 0.950 . S
C910 C909 1.349 . S
C910 C922 1.349 . S
C911 C909 1.327 . S
C911 C927 1.429 . S
C911 H933 0.950 . S
C912 H908 0.949 . S
C912 C920 1.574 1_556 S
C912 C928 1.368 . S
H913 C921 0.950 . S
H914 C919 0.950 . S
H915 C920 0.949 . S
H916 C922 0.950 . S
H917 C923 0.950 . S
H918 C924 0.949 . S
C919 H914 0.950 . S
C919 C921 1.327 . S
C919 C925 1.429 . S
C920 C912 1.574 1_554 S
C920 H915 0.949 . S
C920 C926 1.368 . S
C921 C905 1.349 . S
C921 H913 0.950 . S
C921 C919 1.327 . S
C922 C910 1.349 . S
C922 H916 0.950 . S
C922 C923 1.327 . S
C923 H917 0.950 . S
C923 C922 1.327 . S
C923 C927 1.429 . S
C924 C907 1.574 1_556 S
C924 H918 0.949 . S
C924 C928 1.368 . S
C925 C906 1.429 . S
C925 C919 1.429 . S
C925 C926 1.523 . S
C926 C907 1.368 . S
C926 C920 1.368 . S
C926 C925 1.523 . S
C927 C911 1.429 . S
C927 C923 1.429 . S
C927 C928 1.523 . S
C928 C912 1.368 . S
C928 C924 1.368 . S
C928 C927 1.523 . S
H929 C904 0.950 . S
H930 C906 0.950 . S
H931 C907 0.949 . S
H932 C909 0.950 . S
H933 C911 0.950 . S
C934 C935 1.349 . S
C934 C936 1.324 1_655 S
C934 H959 0.950 1_655 S
C935 C934 1.349 . S
C935 C951 1.349 . S
C936 C934 1.324 1_455 S
C936 C955 1.422 1_455 S
C936 H960 0.961 . S
C937 C954 1.574 . S
C937 C956 1.368 . S
C937 H961 0.949 . S
H938 C942 0.949 . S
C939 C940 1.349 . S
C939 C941 1.324 1_455 S
C939 H962 0.950 1_455 S
C940 C939 1.349 . S
C940 C952 1.349 . S
C941 C939 1.324 1_655 S
C941 C957 1.422 1_655 S
C941 H963 0.961 . S
C942 H938 0.949 . S
C942 C950 1.574 . S
C942 C958 1.368 . S
H943 C951 0.950 . S
H944 C949 0.950 . S
H945 C950 0.949 . S
H946 C952 0.950 . S
H947 C953 0.950 . S
H948 C954 0.949 . S
C949 H944 0.950 . S
C949 C951 1.327 . S
C949 C955 1.429 . S
C950 C942 1.574 . S
C950 H945 0.949 . S
C950 C956 1.368 1_455 S
C951 C935 1.349 . S
C951 H943 0.950 . S
C951 C949 1.327 . S
C952 C940 1.349 . S
C952 H946 0.950 . S
C952 C953 1.327 . S
C953 H947 0.950 . S
C953 C952 1.327 . S
C953 C957 1.429 . S
C954 C937 1.574 . S
C954 H948 0.949 . S
C954 C958 1.368 1_655 S
C955 C936 1.422 1_655 S
C955 C949 1.429 . S
C955 C956 1.523 . S
C956 C937 1.368 . S
C956 C950 1.368 1_655 S
C956 C955 1.523 . S
C957 C941 1.422 1_455 S
C957 C953 1.429 . S
C957 C958 1.523 . S
C958 C942 1.368 . S
C958 C954 1.368 1_455 S
C958 C957 1.523 . S
H959 C934 0.950 1_455 S
H960 C936 0.961 . S
H961 C937 0.949 . S
H962 C939 0.950 1_655 S
H963 C941 0.961 . S
C964 C965 1.349 . S
C964 C966 1.327 . S
C964 H989 0.950 1_455 S
C965 C964 1.349 . S
C965 C981 1.349 . S
C966 C964 1.327 . S
C966 C985 1.429 . S
C966 H990 0.950 1_455 S
C967 C984 1.574 1_556 S
C967 C986 1.368 1_565 S
C967 H991 0.949 . S
H968 C972 0.949 . S
C969 C970 1.349 . S
C969 C971 1.327 . S
C969 H992 0.950 1_655 S
C970 C969 1.349 . S
C970 C982 1.349 . S
C971 C969 1.327 . S
C971 C987 1.429 . S
C971 H993 0.950 1_655 S
C972 H968 0.949 . S
C972 C980 1.574 1_554 S
C972 C988 1.368 1_545 S
H973 C981 0.950 . S
H974 C979 0.948 1_565 S
H975 C980 0.949 . S
H976 C982 0.950 . S
H977 C983 0.948 1_545 S
H978 C984 0.949 . S
C979 H974 0.948 1_545 S
C979 C981 1.327 . S
C979 C985 1.429 . S
C980 C972 1.574 1_556 S
C980 H975 0.949 . S
C980 C986 1.368 1_655 S
C981 C965 1.349 . S
C981 H973 0.950 . S
C981 C979 1.327 . S
C982 C970 1.349 . S
C982 H976 0.950 . S
C982 C983 1.327 . S
C983 H977 0.948 1_565 S
C983 C982 1.327 . S
C983 C987 1.429 . S
C984 C967 1.574 1_554 S
C984 H978 0.949 . S
C984 C988 1.368 1_455 S
C985 C966 1.429 . S
C985 C979 1.429 . S
C985 C986 1.523 . S
C986 C967 1.368 1_545 S
C986 C980 1.368 1_455 S
C986 C985 1.523 . S
C987 C971 1.429 . S
C987 C983 1.429 . S
C987 C988 1.523 . S
C988 C972 1.368 1_565 S
C988 C984 1.368 1_655 S
C988 C987 1.523 . S
H989 C964 0.950 1_655 S
H990 C966 0.950 1_655 S
H991 C967 0.949 . S
H992 C969 0.950 1_455 S
H993 C971 0.950 1_455 S
C994 C995 1.349 . S
C994 C996 1.327 . S
C994 H1019 0.950 . S
C995 C994 1.349 . S
C995 C1011 1.349 . S
C996 C994 1.327 . S
C996 C1015 1.429 . S
C996 H1020 0.950 . S
C997 C1014 1.574 1_565 S
C997 C1016 1.368 . S
C997 H1021 0.949 . S
H998 C1002 0.949 . S
C999 C1000 1.349 . S
C999 C1001 1.327 . S
C999 H1022 0.950 . S
C1000 C999 1.349 . S
C1000 C1012 1.349 . S
C1001 C999 1.327 . S
C1001 C1017 1.429 . S
C1001 H1023 0.950 . S
C1002 H998 0.949 . S
C1002 C1010 1.574 1_545 S
C1002 C1018 1.368 . S
H1003 C1011 0.950 . S
H1004 C1009 0.950 . S
H1005 C1010 0.949 . S
H1006 C1012 0.950 . S
H1007 C1013 0.950 . S
H1008 C1014 0.949 . S
C1009 H1004 0.950 . S
C1009 C1011 1.327 . S
C1009 C1015 1.429 . S
C1010 C1002 1.574 1_565 S
C1010 H1005 0.949 . S
C1010 C1016 1.368 . S
C1011 C995 1.349 . S
C1011 H1003 0.950 . S
C1011 C1009 1.327 . S
C1012 C1000 1.349 . S
C1012 H1006 0.950 . S
C1012 C1013 1.327 . S
C1013 H1007 0.950 . S
C1013 C1012 1.327 . S
C1013 C1017 1.429 . S
C1014 C997 1.574 1_545 S
C1014 H1008 0.949 . S
C1014 C1018 1.368 . S
C1015 C996 1.429 . S
C1015 C1009 1.429 . S
C1015 C1016 1.523 . S
C1016 C997 1.368 . S
C1016 C1010 1.368 . S
C1016 C1015 1.523 . S
C1017 C1001 1.429 . S
C1017 C1013 1.429 . S
C1017 C1018 1.523 . S
C1018 C1002 1.368 . S
C1018 C1014 1.368 . S
C1018 C1017 1.523 . S
H1019 C994 0.950 . S
H1020 C996 0.950 . S
H1021 C997 0.949 . S
H1022 C999 0.950 . S
H1023 C1001 0.950 . S
C1024 C1025 1.349 . S
C1024 C1026 1.327 . S
C1024 H1049 0.950 . S
C1025 C1024 1.349 . S
C1025 C1041 1.349 . S
C1026 C1024 1.327 . S
C1026 C1045 1.429 . S
C1026 H1050 0.950 . S
C1027 C1044 1.574 1_545 S
C1027 C1046 1.368 . S
C1027 H1051 0.949 1_545 S
H1028 C1032 0.949 . S
C1029 C1030 1.349 . S
C1029 C1031 1.327 . S
C1029 H1052 0.950 . S
C1030 C1029 1.349 . S
C1030 C1042 1.349 . S
C1031 C1029 1.327 . S
C1031 C1047 1.429 . S
C1031 H1053 0.950 . S
C1032 H1028 0.949 . S
C1032 C1040 1.574 . S
C1032 C1048 1.368 . S
H1033 C1041 0.950 . S
H1034 C1039 0.950 . S
H1035 C1040 0.949 . S
H1036 C1042 0.950 1_545 S
H1037 C1043 0.950 . S
H1038 C1044 0.949 . S
C1039 H1034 0.950 . S
C1039 C1041 1.327 . S
C1039 C1045 1.429 . S
C1040 C1032 1.574 . S
C1040 H1035 0.949 . S
C1040 C1046 1.368 . S
C1041 C1025 1.349 . S
C1041 H1033 0.950 . S
C1041 C1039 1.327 . S
C1042 C1030 1.349 . S
C1042 H1036 0.950 1_565 S
C1042 C1043 1.327 1_565 S
C1043 H1037 0.950 . S
C1043 C1042 1.327 1_545 S
C1043 C1047 1.429 1_545 S
C1044 C1027 1.574 1_565 S
C1044 H1038 0.949 . S
C1044 C1048 1.368 1_565 S
C1045 C1026 1.429 . S
C1045 C1039 1.429 . S
C1045 C1046 1.523 . S
C1046 C1027 1.368 . S
C1046 C1040 1.368 . S
C1046 C1045 1.523 . S
C1047 C1031 1.429 . S
C1047 C1043 1.429 1_565 S
C1047 C1048 1.523 1_565 S
C1048 C1032 1.368 . S
C1048 C1044 1.368 1_545 S
C1048 C1047 1.523 1_545 S
H1049 C1024 0.950 . S
H1050 C1026 0.950 . S
H1051 C1027 0.949 1_565 S
H1052 C1029 0.950 . S
H1053 C1031 0.950 . S
C1054 C1055 1.349 . S
C1054 C1056 1.327 . S
C1054 H1079 0.950 . S
C1055 C1054 1.349 . S
C1055 C1071 1.349 . S
C1056 C1054 1.327 . S
C1056 C1075 1.429 . S
C1056 H1080 0.950 . S
C1057 C1074 1.574 . S
C1057 C1076 1.368 . S
C1057 H1081 0.949 . S
H1058 C1062 0.949 . S
C1059 C1060 1.349 . S
C1059 C1061 1.327 . S
C1059 H1082 0.950 . S
C1060 C1059 1.349 . S
C1060 C1072 1.349 . S
C1061 C1059 1.327 . S
C1061 C1077 1.429 . S
C1061 H1083 0.950 . S
C1062 H1058 0.949 . S
C1062 C1070 1.574 . S
C1062 C1078 1.368 . S
H1063 C1071 0.950 . S
H1064 C1069 0.950 . S
H1065 C1070 0.949 . S
H1066 C1072 0.950 . S
H1067 C1073 0.950 . S
H1068 C1074 0.949 . S
C1069 H1064 0.950 . S
C1069 C1071 1.327 . S
C1069 C1075 1.429 . S
C1070 C1062 1.574 . S
C1070 H1065 0.949 . S
C1070 C1076 1.368 . S
C1071 C1055 1.349 . S
C1071 H1063 0.950 . S
C1071 C1069 1.327 . S
C1072 C1060 1.349 . S
C1072 H1066 0.950 . S
C1072 C1073 1.327 . S
C1073 H1067 0.950 . S
C1073 C1072 1.327 . S
C1073 C1077 1.429 . S
C1074 C1057 1.574 . S
C1074 H1068 0.949 . S
C1074 C1078 1.368 . S
C1075 C1056 1.429 . S
C1075 C1069 1.429 . S
C1075 C1076 1.523 . S
C1076 C1057 1.368 . S
C1076 C1070 1.368 . S
C1076 C1075 1.523 . S
C1077 C1061 1.429 . S
C1077 C1073 1.429 . S
C1077 C1078 1.523 . S
C1078 C1062 1.368 . S
C1078 C1074 1.368 . S
C1078 C1077 1.523 . S
H1079 C1054 0.950 . S
H1080 C1056 0.950 . S
H1081 C1057 0.949 . S
H1082 C1059 0.950 . S
H1083 C1061 0.950 . S
C1084 C1085 1.349 . S
C1084 C1086 1.327 . S
C1084 H1109 0.950 . S
C1085 C1084 1.349 . S
C1085 C1101 1.349 . S
C1086 C1084 1.327 . S
C1086 C1105 1.429 . S
C1086 H1110 0.950 . S
C1087 C1104 1.574 . S
C1087 C1106 1.368 . S
C1087 H1111 0.949 . S
H1088 C1092 0.949 . S
C1089 C1090 1.349 . S
C1089 C1091 1.327 . S
C1089 H1112 0.950 . S
C1090 C1089 1.349 . S
C1090 C1102 1.349 . S
C1091 C1089 1.327 . S
C1091 C1107 1.429 . S
C1091 H1113 0.950 . S
C1092 H1088 0.949 . S
C1092 C1100 1.574 . S
C1092 C1108 1.368 . S
H1093 C1101 0.950 . S
H1094 C1099 0.950 . S
H1095 C1100 0.949 . S
H1096 C1102 0.950 . S
H1097 C1103 0.950 . S
H1098 C1104 0.949 . S
C1099 H1094 0.950 . S
C1099 C1101 1.327 . S
C1099 C1105 1.429 . S
C1100 C1092 1.574 . S
C1100 H1095 0.949 . S
C1100 C1106 1.368 . S
C1101 C1085 1.349 . S
C1101 H1093 0.950 . S
C1101 C1099 1.327 . S
C1102 C1090 1.349 . S
C1102 H1096 0.950 . S
C1102 C1103 1.327 . S
C1103 H1097 0.950 . S
C1103 C1102 1.327 . S
C1103 C1107 1.429 . S
C1104 C1087 1.574 . S
C1104 H1098 0.949 . S
C1104 C1108 1.368 . S
C1105 C1086 1.429 . S
C1105 C1099 1.429 . S
C1105 C1106 1.523 . S
C1106 C1087 1.368 . S
C1106 C1100 1.368 . S
C1106 C1105 1.523 . S
C1107 C1091 1.429 . S
C1107 C1103 1.429 . S
C1107 C1108 1.523 . S
C1108 C1092 1.368 . S
C1108 C1104 1.368 . S
C1108 C1107 1.523 . S
H1109 C1084 0.950 . S
H1110 C1086 0.950 . S
H1111 C1087 0.949 . S
H1112 C1089 0.950 . S
H1113 C1091 0.950 . S
C1114 C1115 1.349 . S
C1114 C1116 1.327 . S
C1114 H1139 0.950 . S
C1115 C1114 1.349 . S
C1115 C1131 1.349 . S
C1116 C1114 1.327 . S
C1116 C1135 1.429 . S
C1116 H1140 0.950 . S
C1117 C1134 1.574 . S
C1117 C1136 1.368 . S
C1117 H1141 0.949 . S
H1118 C1122 0.952 . S
C1119 C1120 1.349 . S
C1119 C1121 1.327 . S
C1119 H1142 0.950 . S
C1120 C1119 1.349 . S
C1120 C1132 1.349 . S
C1121 C1119 1.327 . S
C1121 C1137 1.429 . S
C1121 H1143 0.950 . S
C1122 H1118 0.952 . S
C1122 C1130 1.574 1_455 S
C1122 C1138 1.368 . S
H1123 C1131 0.949 1_455 S
H1124 C1129 0.950 . S
H1125 C1130 0.949 . S
H1126 C1132 0.950 . S
H1127 C1133 0.950 . S
H1128 C1134 0.949 . S
C1129 H1124 0.950 . S
C1129 C1131 1.327 1_455 S
C1129 C1135 1.429 1_455 S
C1130 C1122 1.574 1_655 S
C1130 H1125 0.949 . S
C1130 C1136 1.368 1_655 S
C1131 C1115 1.349 . S
C1131 H1123 0.949 1_655 S
C1131 C1129 1.327 1_655 S
C1132 C1120 1.349 . S
C1132 H1126 0.950 . S
C1132 C1133 1.327 . S
C1133 H1127 0.950 . S
C1133 C1132 1.327 . S
C1133 C1137 1.429 . S
C1134 C1117 1.574 . S
C1134 H1128 0.949 . S
C1134 C1138 1.368 . S
C1135 C1116 1.429 . S
C1135 C1129 1.429 1_655 S
C1135 C1136 1.523 1_655 S
C1136 C1117 1.368 . S
C1136 C1130 1.368 1_455 S
C1136 C1135 1.523 1_455 S
C1137 C1121 1.429 . S
C1137 C1133 1.429 . S
C1137 C1138 1.523 . S
C1138 C1122 1.368 . S
C1138 C1134 1.368 . S
C1138 C1137 1.523 . S
H1139 C1114 0.950 . S
H1140 C1116 0.950 . S
H1141 C1117 0.949 . S
H1142 C1119 0.950 . S
H1143 C1121 0.950 . S
C1144 C1145 1.349 . S
C1144 C1146 1.327 . S
C1144 H1169 0.950 . S
C1145 C1144 1.349 . S
C1145 C1161 1.349 . S
C1146 C1144 1.327 . S
C1146 C1165 1.429 . S
C1146 H1170 0.950 . S
C1147 C1164 1.574 . S
C1147 C1166 1.368 . S
C1147 H1171 0.949 . S
H1148 C1152 0.949 . S
C1149 C1150 1.349 . S
C1149 C1151 1.327 . S
C1149 H1172 0.950 . S
C1150 C1149 1.349 . S
C1150 C1162 1.349 . S
C1151 C1149 1.327 . S
C1151 C1167 1.429 . S
C1151 H1173 0.950 . S
C1152 H1148 0.949 . S
C1152 C1160 1.574 . S
C1152 C1168 1.368 . S
H1153 C1161 0.950 . S
H1154 C1159 0.950 . S
H1155 C1160 0.949 . S
H1156 C1162 0.950 . S
H1157 C1163 0.950 . S
H1158 C1164 0.949 . S
C1159 H1154 0.950 . S
C1159 C1161 1.327 . S
C1159 C1165 1.429 . S
C1160 C1152 1.574 . S
C1160 H1155 0.949 . S
C1160 C1166 1.368 . S
C1161 C1145 1.349 . S
C1161 H1153 0.950 . S
C1161 C1159 1.327 . S
C1162 C1150 1.349 . S
C1162 H1156 0.950 . S
C1162 C1163 1.327 . S
C1163 H1157 0.950 . S
C1163 C1162 1.327 . S
C1163 C1167 1.429 . S
C1164 C1147 1.574 . S
C1164 H1158 0.949 . S
C1164 C1168 1.368 . S
C1165 C1146 1.429 . S
C1165 C1159 1.429 . S
C1165 C1166 1.523 . S
C1166 C1147 1.368 . S
C1166 C1160 1.368 . S
C1166 C1165 1.523 . S
C1167 C1151 1.429 . S
C1167 C1163 1.429 . S
C1167 C1168 1.523 . S
C1168 C1152 1.368 . S
C1168 C1164 1.368 . S
C1168 C1167 1.523 . S
H1169 C1144 0.950 . S
H1170 C1146 0.950 . S
H1171 C1147 0.949 . S
H1172 C1149 0.950 . S
H1173 C1151 0.950 . S
C1174 C1175 1.349 . S
C1174 C1176 1.327 . S
C1174 H1199 0.950 . S
C1175 C1174 1.349 . S
C1175 C1191 1.349 . S
C1176 C1174 1.327 . S
C1176 C1195 1.429 . S
C1176 H1200 0.950 . S
C1177 C1194 1.574 . S
C1177 C1196 1.368 . S
C1177 H1201 0.949 . S
H1178 C1182 0.949 . S
C1179 C1180 1.364 . S
C1179 C1181 1.321 1_655 S
C1179 H1202 0.941 1_655 S
C1180 C1179 1.364 . S
C1180 C1192 1.349 . S
C1181 C1179 1.321 1_455 S
C1181 C1197 1.429 1_455 S
C1181 H1203 0.950 . S
C1182 H1178 0.949 . S
C1182 C1190 1.570 1_655 S
C1182 C1198 1.368 1_655 S
H1183 C1191 0.950 . S
H1184 C1189 0.950 . S
H1185 C1190 0.945 1_655 S
H1186 C1192 0.950 . S
H1187 C1193 0.950 . S
H1188 C1194 0.949 . S
C1189 H1184 0.950 . S
C1189 C1191 1.327 . S
C1189 C1195 1.429 . S
C1190 C1182 1.570 1_455 S
C1190 H1185 0.945 1_455 S
C1190 C1196 1.376 . S
C1191 C1175 1.349 . S
C1191 H1183 0.950 . S
C1191 C1189 1.327 . S
C1192 C1180 1.349 . S
C1192 H1186 0.950 . S
C1192 C1193 1.327 . S
C1193 H1187 0.950 . S
C1193 C1192 1.327 . S
C1193 C1197 1.429 . S
C1194 C1177 1.574 . S
C1194 H1188 0.949 . S
C1194 C1198 1.368 . S
C1195 C1176 1.429 . S
C1195 C1189 1.429 . S
C1195 C1196 1.523 . S
C1196 C1177 1.368 . S
C1196 C1190 1.376 . S
C1196 C1195 1.523 . S
C1197 C1181 1.429 1_655 S
C1197 C1193 1.429 . S
C1197 C1198 1.523 1_655 S
C1198 C1182 1.368 1_455 S
C1198 C1194 1.368 . S
C1198 C1197 1.523 1_455 S
H1199 C1174 0.950 . S
H1200 C1176 0.950 . S
H1201 C1177 0.949 . S
H1202 C1179 0.941 1_455 S
H1203 C1181 0.950 . S
C1204 C1205 1.349 . S
C1204 C1206 1.327 . S
C1204 H1229 0.950 . S
C1205 C1204 1.349 . S
C1205 C1221 1.349 . S
C1206 C1204 1.327 . S
C1206 C1225 1.429 . S
C1206 H1230 0.950 . S
C1207 C1224 1.574 . S
C1207 C1226 1.368 1_565 S
C1207 H1231 0.949 . S
H1208 C1212 0.949 . S
C1209 C1210 1.349 . S
C1209 C1211 1.327 . S
C1209 H1232 0.950 . S
C1210 C1209 1.349 . S
C1210 C1222 1.349 1_565 S
C1211 C1209 1.327 . S
C1211 C1227 1.429 . S
C1211 H1233 0.950 . S
C1212 H1208 0.949 . S
C1212 C1220 1.574 . S
C1212 C1228 1.368 . S
H1213 C1221 0.950 . S
H1214 C1219 0.950 1_565 S
H1215 C1220 0.949 . S
H1216 C1222 0.950 . S
H1217 C1223 0.950 . S
H1218 C1224 0.949 . S
C1219 H1214 0.950 1_545 S
C1219 C1221 1.327 . S
C1219 C1225 1.429 . S
C1220 C1212 1.574 . S
C1220 H1215 0.949 . S
C1220 C1226 1.368 . S
C1221 C1205 1.349 . S
C1221 H1213 0.950 . S
C1221 C1219 1.327 . S
C1222 C1210 1.349 1_545 S
C1222 H1216 0.950 . S
C1222 C1223 1.327 . S
C1223 H1217 0.950 . S
C1223 C1222 1.327 . S
C1223 C1227 1.429 1_545 S
C1224 C1207 1.574 . S
C1224 H1218 0.949 . S
C1224 C1228 1.368 1_565 S
C1225 C1206 1.429 . S
C1225 C1219 1.429 . S
C1225 C1226 1.523 . S
C1226 C1207 1.368 1_545 S
C1226 C1220 1.368 . S
C1226 C1225 1.523 . S
C1227 C1211 1.429 . S
C1227 C1223 1.429 1_565 S
C1227 C1228 1.523 1_565 S
C1228 C1212 1.368 . S
C1228 C1224 1.368 1_545 S
C1228 C1227 1.523 1_545 S
H1229 C1204 0.950 . S
H1230 C1206 0.950 . S
H1231 C1207 0.949 . S
H1232 C1209 0.950 . S
H1233 C1211 0.950 . S
C1234 C1235 1.349 . S
C1234 C1236 1.327 . S
C1234 H1259 0.950 . S
C1235 C1234 1.349 . S
C1235 C1251 1.349 . S
C1236 C1234 1.327 . S
C1236 C1255 1.429 . S
C1236 H1260 0.950 . S
C1237 C1254 1.574 . S
C1237 C1256 1.368 . S
C1237 H1261 0.949 . S
H1238 C1242 0.949 . S
C1239 C1240 1.349 . S
C1239 C1241 1.327 . S
C1239 H1262 0.950 . S
C1240 C1239 1.349 . S
C1240 C1252 1.349 . S
C1241 C1239 1.327 . S
C1241 C1257 1.429 . S
C1241 H1263 0.950 . S
C1242 H1238 0.949 . S
C1242 C1250 1.574 . S
C1242 C1258 1.368 . S
H1243 C1251 0.950 . S
H1244 C1249 0.950 . S
H1245 C1250 0.949 . S
H1246 C1252 0.950 . S
H1247 C1253 0.950 . S
H1248 C1254 0.949 . S
C1249 H1244 0.950 . S
C1249 C1251 1.327 . S
C1249 C1255 1.429 . S
C1250 C1242 1.574 . S
C1250 H1245 0.949 . S
C1250 C1256 1.368 . S
C1251 C1235 1.349 . S
C1251 H1243 0.950 . S
C1251 C1249 1.327 . S
C1252 C1240 1.349 . S
C1252 H1246 0.950 . S
C1252 C1253 1.327 . S
C1253 H1247 0.950 . S
C1253 C1252 1.327 . S
C1253 C1257 1.429 . S
C1254 C1237 1.574 . S
C1254 H1248 0.949 . S
C1254 C1258 1.368 . S
C1255 C1236 1.429 . S
C1255 C1249 1.429 . S
C1255 C1256 1.523 . S
C1256 C1237 1.368 . S
C1256 C1250 1.368 . S
C1256 C1255 1.523 . S
C1257 C1241 1.429 . S
C1257 C1253 1.429 . S
C1257 C1258 1.523 . S
C1258 C1242 1.368 . S
C1258 C1254 1.368 . S
C1258 C1257 1.523 . S
H1259 C1234 0.950 . S
H1260 C1236 0.950 . S
H1261 C1237 0.949 . S
H1262 C1239 0.950 . S
H1263 C1241 0.950 . S
C1264 C1265 1.349 . S
C1264 C1266 1.327 . S
C1264 H1289 0.950 . S
C1265 C1264 1.349 . S
C1265 C1281 1.333 1_545 S
C1266 C1264 1.327 . S
C1266 C1285 1.429 . S
C1266 H1290 0.950 . S
C1267 C1284 1.574 . S
C1267 C1286 1.368 . S
C1267 H1291 0.949 . S
H1268 C1272 0.949 . S
C1269 C1270 1.349 . S
C1269 C1271 1.327 . S
C1269 H1292 0.950 . S
C1270 C1269 1.349 . S
C1270 C1282 1.349 . S
C1271 C1269 1.327 . S
C1271 C1287 1.429 . S
C1271 H1293 0.950 . S
C1272 H1268 0.949 . S
C1272 C1280 1.574 . S
C1272 C1288 1.368 1_545 S
H1273 C1281 0.960 . S
H1274 C1279 0.950 . S
H1275 C1280 0.949 . S
H1276 C1282 0.950 . S
H1277 C1283 0.950 . S
H1278 C1284 0.949 . S
C1279 H1274 0.950 . S
C1279 C1281 1.334 . S
C1279 C1285 1.429 1_565 S
C1280 C1272 1.574 . S
C1280 H1275 0.949 . S
C1280 C1286 1.368 1_545 S
C1281 C1265 1.333 1_565 S
C1281 H1273 0.960 . S
C1281 C1279 1.334 . S
C1282 C1270 1.349 . S
C1282 H1276 0.950 . S
C1282 C1283 1.327 . S
C1283 H1277 0.950 . S
C1283 C1282 1.327 . S
C1283 C1287 1.429 . S
C1284 C1267 1.574 . S
C1284 H1278 0.949 . S
C1284 C1288 1.368 . S
C1285 C1266 1.429 . S
C1285 C1279 1.429 1_545 S
C1285 C1286 1.523 1_545 S
C1286 C1267 1.368 . S
C1286 C1280 1.368 1_565 S
C1286 C1285 1.523 1_565 S
C1287 C1271 1.429 . S
C1287 C1283 1.429 . S
C1287 C1288 1.523 . S
C1288 C1272 1.368 1_565 S
C1288 C1284 1.368 . S
C1288 C1287 1.523 . S
H1289 C1264 0.950 . S
H1290 C1266 0.950 . S
H1291 C1267 0.949 . S
H1292 C1269 0.950 . S
H1293 C1271 0.950 . S
C1294 C1295 1.349 . S
C1294 C1296 1.327 . S
C1294 H1319 0.950 . S
C1295 C1294 1.349 . S
C1295 C1311 1.349 . S
C1296 C1294 1.327 . S
C1296 C1315 1.429 . S
C1296 H1320 0.950 . S
C1297 C1314 1.574 . S
C1297 C1316 1.368 . S
C1297 H1321 0.949 . S
H1298 C1302 0.949 . S
C1299 C1300 1.349 . S
C1299 C1301 1.327 . S
C1299 H1322 0.950 . S
C1300 C1299 1.349 . S
C1300 C1312 1.349 . S
C1301 C1299 1.327 . S
C1301 C1317 1.429 . S
C1301 H1323 0.950 . S
C1302 H1298 0.949 . S
C1302 C1310 1.574 . S
C1302 C1318 1.368 . S
H1303 C1311 0.950 . S
H1304 C1309 0.950 . S
H1305 C1310 0.949 . S
H1306 C1312 0.950 . S
H1307 C1313 0.950 . S
H1308 C1314 0.949 . S
C1309 H1304 0.950 . S
C1309 C1311 1.327 . S
C1309 C1315 1.429 . S
C1310 C1302 1.574 . S
C1310 H1305 0.949 . S
C1310 C1316 1.368 . S
C1311 C1295 1.349 . S
C1311 H1303 0.950 . S
C1311 C1309 1.327 . S
C1312 C1300 1.349 . S
C1312 H1306 0.950 . S
C1312 C1313 1.327 . S
C1313 H1307 0.950 . S
C1313 C1312 1.327 . S
C1313 C1317 1.429 . S
C1314 C1297 1.574 . S
C1314 H1308 0.949 . S
C1314 C1318 1.368 . S
C1315 C1296 1.429 . S
C1315 C1309 1.429 . S
C1315 C1316 1.523 . S
C1316 C1297 1.368 . S
C1316 C1310 1.368 . S
C1316 C1315 1.523 . S
C1317 C1301 1.429 . S
C1317 C1313 1.429 . S
C1317 C1318 1.523 . S
C1318 C1302 1.368 . S
C1318 C1314 1.368 . S
C1318 C1317 1.523 . S
H1319 C1294 0.950 . S
H1320 C1296 0.950 . S
H1321 C1297 0.949 . S
H1322 C1299 0.950 . S
H1323 C1301 0.950 . S
C1324 C1325 1.349 . S
C1324 C1326 1.327 . S
C1324 H1349 0.950 . S
C1325 C1324 1.349 . S
C1325 C1341 1.349 . S
C1326 C1324 1.327 . S
C1326 C1345 1.429 . S
C1326 H1350 0.950 . S
C1327 C1344 1.574 . S
C1327 C1346 1.368 . S
C1327 H1351 0.949 . S
H1328 C1332 0.949 . S
C1329 C1330 1.349 . S
C1329 C1331 1.327 . S
C1329 H1352 0.950 . S
C1330 C1329 1.349 . S
C1330 C1342 1.349 . S
C1331 C1329 1.327 . S
C1331 C1347 1.429 . S
C1331 H1353 0.950 . S
C1332 H1328 0.949 . S
C1332 C1340 1.574 . S
C1332 C1348 1.368 . S
H1333 C1341 0.950 . S
H1334 C1339 0.950 . S
H1335 C1340 0.949 . S
H1336 C1342 0.950 . S
H1337 C1343 0.950 . S
H1338 C1344 0.949 . S
C1339 H1334 0.950 . S
C1339 C1341 1.327 . S
C1339 C1345 1.429 . S
C1340 C1332 1.574 . S
C1340 H1335 0.949 . S
C1340 C1346 1.368 . S
C1341 C1325 1.349 . S
C1341 H1333 0.950 . S
C1341 C1339 1.327 . S
C1342 C1330 1.349 . S
C1342 H1336 0.950 . S
C1342 C1343 1.327 . S
C1343 H1337 0.950 . S
C1343 C1342 1.327 . S
C1343 C1347 1.429 . S
C1344 C1327 1.574 . S
C1344 H1338 0.949 . S
C1344 C1348 1.368 . S
C1345 C1326 1.429 . S
C1345 C1339 1.429 . S
C1345 C1346 1.523 . S
C1346 C1327 1.368 . S
C1346 C1340 1.368 . S
C1346 C1345 1.523 . S
C1347 C1331 1.429 . S
C1347 C1343 1.429 . S
C1347 C1348 1.523 . S
C1348 C1332 1.368 . S
C1348 C1344 1.368 . S
C1348 C1347 1.523 . S
H1349 C1324 0.950 . S
H1350 C1326 0.950 . S
H1351 C1327 0.949 . S
H1352 C1329 0.950 . S
H1353 C1331 0.950 . S
C1354 C1355 1.349 . S
C1354 C1356 1.327 1_455 S
C1354 H1379 0.950 1_455 S
C1355 C1354 1.349 . S
C1355 C1371 1.349 . S
C1356 C1354 1.327 1_655 S
C1356 C1375 1.429 1_655 S
C1356 H1380 0.950 . S
C1357 C1374 1.574 1_455 S
C1357 C1376 1.368 1_455 S
C1357 H1381 0.949 . S
H1358 C1362 0.949 . S
C1359 C1360 1.349 . S
C1359 C1361 1.327 . S
C1359 H1382 0.950 . S
C1360 C1359 1.349 . S
C1360 C1372 1.349 . S
C1361 C1359 1.327 . S
C1361 C1377 1.429 . S
C1361 H1383 0.950 . S
C1362 H1358 0.949 . S
C1362 C1370 1.574 . S
C1362 C1378 1.368 . S
H1363 C1371 0.950 . S
H1364 C1369 0.950 . S
H1365 C1370 0.949 . S
H1366 C1372 0.950 . S
H1367 C1373 0.950 . S
H1368 C1374 0.949 1_455 S
C1369 H1364 0.950 . S
C1369 C1371 1.327 . S
C1369 C1375 1.429 . S
C1370 C1362 1.574 . S
C1370 H1365 0.949 . S
C1370 C1376 1.368 . S
C1371 C1355 1.349 . S
C1371 H1363 0.950 . S
C1371 C1369 1.327 . S
C1372 C1360 1.349 . S
C1372 H1366 0.950 . S
C1372 C1373 1.327 . S
C1373 H1367 0.950 . S
C1373 C1372 1.327 . S
C1373 C1377 1.429 . S
C1374 C1357 1.574 1_655 S
C1374 H1368 0.949 1_655 S
C1374 C1378 1.368 . S
C1375 C1356 1.429 1_455 S
C1375 C1369 1.429 . S
C1375 C1376 1.523 1_455 S
C1376 C1357 1.368 1_655 S
C1376 C1370 1.368 . S
C1376 C1375 1.523 1_655 S
C1377 C1361 1.429 . S
C1377 C1373 1.429 . S
C1377 C1378 1.523 . S
C1378 C1362 1.368 . S
C1378 C1374 1.368 . S
C1378 C1377 1.523 . S
H1379 C1354 0.950 1_655 S
H1380 C1356 0.950 . S
H1381 C1357 0.949 . S
H1382 C1359 0.950 . S
H1383 C1361 0.950 . S
C1384 C1385 1.349 . S
C1384 C1386 1.327 . S
C1384 H1409 0.950 . S
C1385 C1384 1.349 . S
C1385 C1401 1.349 . S
C1386 C1384 1.327 . S
C1386 C1405 1.429 . S
C1386 H1410 0.950 . S
C1387 C1404 1.574 . S
C1387 C1406 1.368 . S
C1387 H1411 0.949 . S
H1388 C1392 0.949 . S
C1389 C1390 1.349 . S
C1389 C1391 1.327 . S
C1389 H1412 0.950 . S
C1390 C1389 1.349 . S
C1390 C1402 1.349 . S
C1391 C1389 1.327 . S
C1391 C1407 1.429 . S
C1391 H1413 0.950 . S
C1392 H1388 0.949 . S
C1392 C1400 1.574 . S
C1392 C1408 1.368 . S
H1393 C1401 0.950 . S
H1394 C1399 0.950 . S
H1395 C1400 0.949 . S
H1396 C1402 0.950 . S
H1397 C1403 0.950 . S
H1398 C1404 0.949 . S
C1399 H1394 0.950 . S
C1399 C1401 1.327 . S
C1399 C1405 1.429 . S
C1400 C1392 1.574 . S
C1400 H1395 0.949 . S
C1400 C1406 1.368 . S
C1401 C1385 1.349 . S
C1401 H1393 0.950 . S
C1401 C1399 1.327 . S
C1402 C1390 1.349 . S
C1402 H1396 0.950 . S
C1402 C1403 1.327 . S
C1403 H1397 0.950 . S
C1403 C1402 1.327 . S
C1403 C1407 1.429 . S
C1404 C1387 1.574 . S
C1404 H1398 0.949 . S
C1404 C1408 1.368 . S
C1405 C1386 1.429 . S
C1405 C1399 1.429 . S
C1405 C1406 1.523 . S
C1406 C1387 1.368 . S
C1406 C1400 1.368 . S
C1406 C1405 1.523 . S
C1407 C1391 1.429 . S
C1407 C1403 1.429 . S
C1407 C1408 1.523 . S
C1408 C1392 1.368 . S
C1408 C1404 1.368 . S
C1408 C1407 1.523 . S
H1409 C1384 0.950 . S
H1410 C1386 0.950 . S
H1411 C1387 0.949 . S
H1412 C1389 0.950 . S
H1413 C1391 0.950 . S
C1414 C1415 1.349 . S
C1414 C1416 1.327 1_455 S
C1414 H1439 0.950 1_455 S
C1415 C1414 1.349 . S
C1415 C1431 1.349 . S
C1416 C1414 1.327 1_655 S
C1416 C1435 1.429 1_655 S
C1416 H1440 0.950 . S
C1417 C1434 1.568 1_455 S
C1417 C1436 1.368 1_455 S
C1417 H1441 0.949 . S
H1418 C1422 0.949 . S
C1419 C1420 1.349 . S
C1419 C1421 1.327 . S
C1419 H1442 0.950 . S
C1420 C1419 1.349 . S
C1420 C1432 1.349 . S
C1421 C1419 1.327 . S
C1421 C1437 1.429 . S
C1421 H1443 0.950 . S
C1422 H1418 0.949 . S
C1422 C1430 1.574 . S
C1422 C1438 1.368 . S
H1423 C1431 0.950 . S
H1424 C1429 0.950 . S
H1425 C1430 0.949 . S
H1426 C1432 0.950 . S
H1427 C1433 0.950 . S
H1428 C1434 0.942 1_455 S
C1429 H1424 0.950 . S
C1429 C1431 1.327 . S
C1429 C1435 1.429 . S
C1430 C1422 1.574 . S
C1430 H1425 0.949 . S
C1430 C1436 1.368 . S
C1431 C1415 1.349 . S
C1431 H1423 0.950 . S
C1431 C1429 1.327 . S
C1432 C1420 1.349 . S
C1432 H1426 0.950 . S
C1432 C1433 1.327 . S
C1433 H1427 0.950 . S
C1433 C1432 1.327 . S
C1433 C1437 1.429 . S
C1434 C1417 1.568 1_655 S
C1434 H1428 0.942 1_655 S
C1434 C1438 1.383 . S
C1435 C1416 1.429 1_455 S
C1435 C1429 1.429 . S
C1435 C1436 1.523 1_455 S
C1436 C1417 1.368 1_655 S
C1436 C1430 1.368 . S
C1436 C1435 1.523 1_655 S
C1437 C1421 1.429 . S
C1437 C1433 1.429 . S
C1437 C1438 1.523 . S
C1438 C1422 1.368 . S
C1438 C1434 1.383 . S
C1438 C1437 1.523 . S
H1439 C1414 0.950 1_655 S
H1440 C1416 0.950 . S
H1441 C1417 0.949 . S
H1442 C1419 0.950 . S
H1443 C1421 0.950 . S
C1444 C1445 1.349 . S
C1444 C1446 1.327 . S
C1444 H1469 0.950 . S
C1445 C1444 1.349 . S
C1445 C1461 1.349 . S
C1446 C1444 1.327 . S
C1446 C1465 1.429 . S
C1446 H1470 0.950 . S
C1447 C1464 1.574 . S
C1447 C1466 1.368 1_545 S
C1447 H1471 0.949 . S
H1448 C1452 0.949 . S
C1449 C1450 1.349 . S
C1449 C1451 1.327 . S
C1449 H1472 0.950 . S
C1450 C1449 1.349 . S
C1450 C1462 1.349 1_545 S
C1451 C1449 1.327 . S
C1451 C1467 1.429 . S
C1451 H1473 0.950 . S
C1452 H1448 0.949 . S
C1452 C1460 1.574 . S
C1452 C1468 1.368 . S
H1453 C1461 0.950 . S
H1454 C1459 0.950 1_545 S
H1455 C1460 0.949 . S
H1456 C1462 0.950 . S
H1457 C1463 0.950 . S
H1458 C1464 0.949 . S
C1459 H1454 0.950 1_565 S
C1459 C1461 1.327 . S
C1459 C1465 1.429 . S
C1460 C1452 1.574 . S
C1460 H1455 0.949 . S
C1460 C1466 1.368 . S
C1461 C1445 1.349 . S
C1461 H1453 0.950 . S
C1461 C1459 1.327 . S
C1462 C1450 1.349 1_565 S
C1462 H1456 0.950 . S
C1462 C1463 1.327 . S
C1463 H1457 0.950 . S
C1463 C1462 1.327 . S
C1463 C1467 1.429 1_565 S
C1464 C1447 1.574 . S
C1464 H1458 0.949 . S
C1464 C1468 1.368 1_545 S
C1465 C1446 1.429 . S
C1465 C1459 1.429 . S
C1465 C1466 1.523 . S
C1466 C1447 1.368 1_565 S
C1466 C1460 1.368 . S
C1466 C1465 1.523 . S
C1467 C1451 1.429 . S
C1467 C1463 1.429 1_545 S
C1467 C1468 1.523 1_545 S
C1468 C1452 1.368 . S
C1468 C1464 1.368 1_565 S
C1468 C1467 1.523 1_565 S
H1469 C1444 0.950 . S
H1470 C1446 0.950 . S
H1471 C1447 0.949 . S
H1472 C1449 0.950 . S
H1473 C1451 0.950 . S
C1474 C1475 1.349 . S
C1474 C1476 1.327 . S
C1474 H1499 0.950 . S
C1475 C1474 1.349 . S
C1475 C1491 1.349 . S
C1476 C1474 1.327 . S
C1476 C1495 1.429 . S
C1476 H1500 0.950 . S
C1477 C1494 1.574 . S
C1477 C1496 1.368 . S
C1477 H1501 0.949 . S
H1478 C1482 0.949 . S
C1479 C1480 1.349 . S
C1479 C1481 1.327 . S
C1479 H1502 0.950 . S
C1480 C1479 1.349 . S
C1480 C1492 1.349 . S
C1481 C1479 1.327 . S
C1481 C1497 1.429 . S
C1481 H1503 0.950 . S
C1482 H1478 0.949 . S
C1482 C1490 1.574 . S
C1482 C1498 1.368 . S
H1483 C1491 0.950 . S
H1484 C1489 0.950 . S
H1485 C1490 0.949 . S
H1486 C1492 0.950 . S
H1487 C1493 0.950 . S
H1488 C1494 0.949 . S
C1489 H1484 0.950 . S
C1489 C1491 1.327 . S
C1489 C1495 1.429 . S
C1490 C1482 1.574 . S
C1490 H1485 0.949 . S
C1490 C1496 1.368 . S
C1491 C1475 1.349 . S
C1491 H1483 0.950 . S
C1491 C1489 1.327 . S
C1492 C1480 1.349 . S
C1492 H1486 0.950 . S
C1492 C1493 1.327 . S
C1493 H1487 0.950 . S
C1493 C1492 1.327 . S
C1493 C1497 1.429 . S
C1494 C1477 1.574 . S
C1494 H1488 0.949 . S
C1494 C1498 1.368 . S
C1495 C1476 1.429 . S
C1495 C1489 1.429 . S
C1495 C1496 1.523 . S
C1496 C1477 1.368 . S
C1496 C1490 1.368 . S
C1496 C1495 1.523 . S
C1497 C1481 1.429 . S
C1497 C1493 1.429 . S
C1497 C1498 1.523 . S
C1498 C1482 1.368 . S
C1498 C1494 1.368 . S
C1498 C1497 1.523 . S
H1499 C1474 0.950 . S
H1500 C1476 0.950 . S
H1501 C1477 0.949 . S
H1502 C1479 0.950 . S
H1503 C1481 0.950 . S
C1504 C1505 1.349 . S
C1504 C1506 1.327 . S
C1504 H1529 0.950 . S
C1505 C1504 1.349 . S
C1505 C1521 1.349 . S
C1506 C1504 1.327 . S
C1506 C1525 1.429 . S
C1506 H1530 0.950 . S
C1507 C1524 1.574 . S
C1507 C1526 1.368 . S
C1507 H1531 0.949 . S
H1508 C1512 0.949 . S
C1509 C1510 1.349 . S
C1509 C1511 1.327 . S
C1509 H1532 0.950 . S
C1510 C1509 1.349 . S
C1510 C1522 1.349 . S
C1511 C1509 1.327 . S
C1511 C1527 1.429 . S
C1511 H1533 0.950 . S
C1512 H1508 0.949 . S
C1512 C1520 1.574 . S
C1512 C1528 1.368 . S
H1513 C1521 0.950 . S
H1514 C1519 0.950 . S
H1515 C1520 0.949 . S
H1516 C1522 0.950 . S
H1517 C1523 0.950 . S
H1518 C1524 0.949 . S
C1519 H1514 0.950 . S
C1519 C1521 1.327 . S
C1519 C1525 1.429 . S
C1520 C1512 1.574 . S
C1520 H1515 0.949 . S
C1520 C1526 1.368 . S
C1521 C1505 1.349 . S
C1521 H1513 0.950 . S
C1521 C1519 1.327 . S
C1522 C1510 1.349 . S
C1522 H1516 0.950 . S
C1522 C1523 1.327 . S
C1523 H1517 0.950 . S
C1523 C1522 1.327 . S
C1523 C1527 1.429 . S
C1524 C1507 1.574 . S
C1524 H1518 0.949 . S
C1524 C1528 1.368 . S
C1525 C1506 1.429 . S
C1525 C1519 1.429 . S
C1525 C1526 1.523 . S
C1526 C1507 1.368 . S
C1526 C1520 1.368 . S
C1526 C1525 1.523 . S
C1527 C1511 1.429 . S
C1527 C1523 1.429 . S
C1527 C1528 1.523 . S
C1528 C1512 1.368 . S
C1528 C1524 1.368 . S
C1528 C1527 1.523 . S
H1529 C1504 0.950 . S
H1530 C1506 0.950 . S
H1531 C1507 0.949 . S
H1532 C1509 0.950 . S
H1533 C1511 0.950 . S
C1534 C1535 1.349 . S
C1534 C1536 1.327 . S
C1534 H1559 0.950 . S
C1535 C1534 1.349 . S
C1535 C1551 1.349 . S
C1536 C1534 1.327 . S
C1536 C1555 1.429 . S
C1536 H1560 0.950 . S
C1537 C1554 1.574 . S
C1537 C1556 1.368 . S
C1537 H1561 0.949 . S
H1538 C1542 0.949 . S
C1539 C1540 1.349 . S
C1539 C1541 1.327 . S
C1539 H1562 0.950 . S
C1540 C1539 1.349 . S
C1540 C1552 1.349 . S
C1541 C1539 1.327 . S
C1541 C1557 1.429 . S
C1541 H1563 0.950 . S
C1542 H1538 0.949 . S
C1542 C1550 1.574 . S
C1542 C1558 1.368 . S
H1543 C1551 0.950 . S
H1544 C1549 0.950 . S
H1545 C1550 0.949 . S
H1546 C1552 0.950 . S
H1547 C1553 0.950 . S
H1548 C1554 0.949 . S
C1549 H1544 0.950 . S
C1549 C1551 1.327 . S
C1549 C1555 1.429 . S
C1550 C1542 1.574 . S
C1550 H1545 0.949 . S
C1550 C1556 1.368 . S
C1551 C1535 1.349 . S
C1551 H1543 0.950 . S
C1551 C1549 1.327 . S
C1552 C1540 1.349 . S
C1552 H1546 0.950 . S
C1552 C1553 1.327 . S
C1553 H1547 0.950 . S
C1553 C1552 1.327 . S
C1553 C1557 1.429 . S
C1554 C1537 1.574 . S
C1554 H1548 0.949 . S
C1554 C1558 1.368 . S
C1555 C1536 1.429 . S
C1555 C1549 1.429 . S
C1555 C1556 1.523 . S
C1556 C1537 1.368 . S
C1556 C1550 1.368 . S
C1556 C1555 1.523 . S
C1557 C1541 1.429 . S
C1557 C1553 1.429 . S
C1557 C1558 1.523 . S
C1558 C1542 1.368 . S
C1558 C1554 1.368 . S
C1558 C1557 1.523 . S
H1559 C1534 0.950 . S
H1560 C1536 0.950 . S
H1561 C1537 0.949 . S
H1562 C1539 0.950 . S
H1563 C1541 0.950 . S
C1564 C1565 1.349 . S
C1564 C1566 1.327 . S
C1564 H1589 0.950 . S
C1565 C1564 1.349 . S
C1565 C1581 1.349 . S
C1566 C1564 1.327 . S
C1566 C1585 1.429 . S
C1566 H1590 0.950 . S
C1567 C1584 1.574 . S
C1567 C1586 1.368 . S
C1567 H1591 0.949 . S
H1568 C1572 0.949 . S
C1569 C1570 1.349 . S
C1569 C1571 1.327 . S
C1569 H1592 0.950 . S
C1570 C1569 1.349 . S
C1570 C1582 1.349 . S
C1571 C1569 1.327 . S
C1571 C1587 1.429 . S
C1571 H1593 0.950 . S
C1572 H1568 0.949 . S
C1572 C1580 1.574 . S
C1572 C1588 1.368 . S
H1573 C1581 0.950 . S
H1574 C1579 0.950 . S
H1575 C1580 0.949 . S
H1576 C1582 0.950 . S
H1577 C1583 0.950 . S
H1578 C1584 0.949 . S
C1579 H1574 0.950 . S
C1579 C1581 1.327 . S
C1579 C1585 1.429 . S
C1580 C1572 1.574 . S
C1580 H1575 0.949 . S
C1580 C1586 1.368 . S
C1581 C1565 1.349 . S
C1581 H1573 0.950 . S
C1581 C1579 1.327 . S
C1582 C1570 1.349 . S
C1582 H1576 0.950 . S
C1582 C1583 1.327 . S
C1583 H1577 0.950 . S
C1583 C1582 1.327 . S
C1583 C1587 1.429 . S
C1584 C1567 1.574 . S
C1584 H1578 0.949 . S
C1584 C1588 1.368 . S
C1585 C1566 1.429 . S
C1585 C1579 1.429 . S
C1585 C1586 1.523 . S
C1586 C1567 1.368 . S
C1586 C1580 1.368 . S
C1586 C1585 1.523 . S
C1587 C1571 1.429 . S
C1587 C1583 1.429 . S
C1587 C1588 1.523 . S
C1588 C1572 1.368 . S
C1588 C1584 1.368 . S
C1588 C1587 1.523 . S
H1589 C1564 0.950 . S
H1590 C1566 0.950 . S
H1591 C1567 0.949 . S
H1592 C1569 0.950 . S
H1593 C1571 0.950 . S
C1594 C1595 1.349 . S
C1594 C1596 1.327 . S
C1594 H1619 0.950 . S
C1595 C1594 1.349 . S
C1595 C1611 1.349 . S
C1596 C1594 1.327 . S
C1596 C1615 1.429 . S
C1596 H1620 0.950 . S
C1597 C1614 1.574 . S
C1597 C1616 1.368 . S
C1597 H1621 0.949 . S
H1598 C1602 0.949 . S
C1599 C1600 1.349 . S
C1599 C1601 1.327 . S
C1599 H1622 0.950 . S
C1600 C1599 1.349 . S
C1600 C1612 1.349 . S
C1601 C1599 1.327 . S
C1601 C1617 1.429 . S
C1601 H1623 0.950 . S
C1602 H1598 0.949 . S
C1602 C1610 1.574 . S
C1602 C1618 1.368 . S
H1603 C1611 0.950 . S
H1604 C1609 0.950 . S
H1605 C1610 0.949 . S
H1606 C1612 0.950 . S
H1607 C1613 0.950 . S
H1608 C1614 0.949 . S
C1609 H1604 0.950 . S
C1609 C1611 1.327 . S
C1609 C1615 1.429 . S
C1610 C1602 1.574 . S
C1610 H1605 0.949 . S
C1610 C1616 1.368 . S
C1611 C1595 1.349 . S
C1611 H1603 0.950 . S
C1611 C1609 1.327 . S
C1612 C1600 1.349 . S
C1612 H1606 0.950 . S
C1612 C1613 1.327 . S
C1613 H1607 0.950 . S
C1613 C1612 1.327 . S
C1613 C1617 1.429 . S
C1614 C1597 1.574 . S
C1614 H1608 0.949 . S
C1614 C1618 1.368 . S
C1615 C1596 1.429 . S
C1615 C1609 1.429 . S
C1615 C1616 1.523 . S
C1616 C1597 1.368 . S
C1616 C1610 1.368 . S
C1616 C1615 1.523 . S
C1617 C1601 1.429 . S
C1617 C1613 1.429 . S
C1617 C1618 1.523 . S
C1618 C1602 1.368 . S
C1618 C1614 1.368 . S
C1618 C1617 1.523 . S
H1619 C1594 0.950 . S
H1620 C1596 0.950 . S
H1621 C1597 0.949 . S
H1622 C1599 0.950 . S
H1623 C1601 0.950 . S
C1624 C1625 1.349 . S
C1624 C1626 1.327 . S
C1624 H1649 0.950 . S
C1625 C1624 1.349 . S
C1625 C1641 1.349 . S
C1626 C1624 1.327 . S
C1626 C1645 1.429 . S
C1626 H1650 0.950 . S
C1627 C1644 1.574 . S
C1627 C1646 1.368 . S
C1627 H1651 0.949 . S
H1628 C1632 0.949 . S
C1629 C1630 1.349 . S
C1629 C1631 1.327 . S
C1629 H1652 0.950 . S
C1630 C1629 1.349 . S
C1630 C1642 1.349 . S
C1631 C1629 1.327 . S
C1631 C1647 1.429 . S
C1631 H1653 0.950 . S
C1632 H1628 0.949 . S
C1632 C1640 1.574 . S
C1632 C1648 1.368 . S
H1633 C1641 0.950 . S
H1634 C1639 0.950 . S
H1635 C1640 0.949 . S
H1636 C1642 0.950 . S
H1637 C1643 0.950 . S
H1638 C1644 0.949 . S
C1639 H1634 0.950 . S
C1639 C1641 1.327 . S
C1639 C1645 1.429 . S
C1640 C1632 1.574 . S
C1640 H1635 0.949 . S
C1640 C1646 1.368 . S
C1641 C1625 1.349 . S
C1641 H1633 0.950 . S
C1641 C1639 1.327 . S
C1642 C1630 1.349 . S
C1642 H1636 0.950 . S
C1642 C1643 1.327 . S
C1643 H1637 0.950 . S
C1643 C1642 1.327 . S
C1643 C1647 1.429 . S
C1644 C1627 1.574 . S
C1644 H1638 0.949 . S
C1644 C1648 1.368 . S
C1645 C1626 1.429 . S
C1645 C1639 1.429 . S
C1645 C1646 1.523 . S
C1646 C1627 1.368 . S
C1646 C1640 1.368 . S
C1646 C1645 1.523 . S
C1647 C1631 1.429 . S
C1647 C1643 1.429 . S
C1647 C1648 1.523 . S
C1648 C1632 1.368 . S
C1648 C1644 1.368 . S
C1648 C1647 1.523 . S
H1649 C1624 0.950 . S
H1650 C1626 0.950 . S
H1651 C1627 0.949 . S
H1652 C1629 0.950 . S
H1653 C1631 0.950 . S
C1654 C1655 1.349 . S
C1654 C1656 1.327 . S
C1654 H1679 0.950 . S
C1655 C1654 1.349 . S
C1655 C1671 1.349 . S
C1656 C1654 1.327 . S
C1656 C1675 1.429 . S
C1656 H1680 0.950 . S
C1657 C1674 1.574 . S
C1657 C1676 1.368 . S
C1657 H1681 0.949 . S
H1658 C1662 0.949 . S
C1659 C1660 1.349 . S
C1659 C1661 1.327 . S
C1659 H1682 0.950 . S
C1660 C1659 1.349 . S
C1660 C1672 1.349 . S
C1661 C1659 1.327 . S
C1661 C1677 1.429 . S
C1661 H1683 0.950 . S
C1662 H1658 0.949 . S
C1662 C1670 1.574 . S
C1662 C1678 1.368 . S
H1663 C1671 0.950 . S
H1664 C1669 0.950 . S
H1665 C1670 0.949 . S
H1666 C1672 0.950 . S
H1667 C1673 0.950 . S
H1668 C1674 0.949 . S
C1669 H1664 0.950 . S
C1669 C1671 1.327 . S
C1669 C1675 1.429 . S
C1670 C1662 1.574 . S
C1670 H1665 0.949 . S
C1670 C1676 1.368 . S
C1671 C1655 1.349 . S
C1671 H1663 0.950 . S
C1671 C1669 1.327 . S
C1672 C1660 1.349 . S
C1672 H1666 0.950 . S
C1672 C1673 1.327 . S
C1673 H1667 0.950 . S
C1673 C1672 1.327 . S
C1673 C1677 1.429 . S
C1674 C1657 1.574 . S
C1674 H1668 0.949 . S
C1674 C1678 1.368 . S
C1675 C1656 1.429 . S
C1675 C1669 1.429 . S
C1675 C1676 1.523 . S
C1676 C1657 1.368 . S
C1676 C1670 1.368 . S
C1676 C1675 1.523 . S
C1677 C1661 1.429 . S
C1677 C1673 1.429 . S
C1677 C1678 1.523 . S
C1678 C1662 1.368 . S
C1678 C1674 1.368 . S
C1678 C1677 1.523 . S
H1679 C1654 0.950 . S
H1680 C1656 0.950 . S
H1681 C1657 0.949 . S
H1682 C1659 0.950 . S
H1683 C1661 0.950 . S
C1684 C1685 1.349 . S
C1684 C1686 1.327 . S
C1684 H1709 0.950 . S
C1685 C1684 1.349 . S
C1685 C1701 1.349 . S
C1686 C1684 1.327 . S
C1686 C1705 1.429 . S
C1686 H1710 0.950 . S
C1687 C1704 1.574 . S
C1687 C1706 1.368 . S
C1687 H1711 0.949 . S
H1688 C1692 0.949 . S
C1689 C1690 1.349 . S
C1689 C1691 1.327 . S
C1689 H1712 0.950 . S
C1690 C1689 1.349 . S
C1690 C1702 1.349 . S
C1691 C1689 1.327 . S
C1691 C1707 1.429 . S
C1691 H1713 0.950 . S
C1692 H1688 0.949 . S
C1692 C1700 1.574 . S
C1692 C1708 1.368 . S
H1693 C1701 0.950 . S
H1694 C1699 0.950 . S
H1695 C1700 0.949 . S
H1696 C1702 0.950 . S
H1697 C1703 0.950 . S
H1698 C1704 0.949 . S
C1699 H1694 0.950 . S
C1699 C1701 1.327 . S
C1699 C1705 1.429 . S
C1700 C1692 1.574 . S
C1700 H1695 0.949 . S
C1700 C1706 1.368 . S
C1701 C1685 1.349 . S
C1701 H1693 0.950 . S
C1701 C1699 1.327 . S
C1702 C1690 1.349 . S
C1702 H1696 0.950 . S
C1702 C1703 1.327 . S
C1703 H1697 0.950 . S
C1703 C1702 1.327 . S
C1703 C1707 1.429 . S
C1704 C1687 1.574 . S
C1704 H1698 0.949 . S
C1704 C1708 1.368 . S
C1705 C1686 1.429 . S
C1705 C1699 1.429 . S
C1705 C1706 1.523 . S
C1706 C1687 1.368 . S
C1706 C1700 1.368 . S
C1706 C1705 1.523 . S
C1707 C1691 1.429 . S
C1707 C1703 1.429 . S
C1707 C1708 1.523 . S
C1708 C1692 1.368 . S
C1708 C1704 1.368 . S
C1708 C1707 1.523 . S
H1709 C1684 0.950 . S
H1710 C1686 0.950 . S
H1711 C1687 0.949 . S
H1712 C1689 0.950 . S
H1713 C1691 0.950 . S
C1714 C1715 1.349 . S
C1714 C1716 1.327 . S
C1714 H1739 0.950 . S
C1715 C1714 1.349 . S
C1715 C1731 1.349 . S
C1716 C1714 1.327 . S
C1716 C1735 1.429 . S
C1716 H1740 0.950 . S
C1717 C1734 1.574 . S
C1717 C1736 1.368 . S
C1717 H1741 0.949 . S
H1718 C1722 0.949 . S
C1719 C1720 1.349 . S
C1719 C1721 1.327 . S
C1719 H1742 0.950 . S
C1720 C1719 1.349 . S
C1720 C1732 1.349 . S
C1721 C1719 1.327 . S
C1721 C1737 1.429 . S
C1721 H1743 0.950 . S
C1722 H1718 0.949 . S
C1722 C1730 1.574 . S
C1722 C1738 1.368 . S
H1723 C1731 0.950 . S
H1724 C1729 0.950 . S
H1725 C1730 0.949 . S
H1726 C1732 0.950 . S
H1727 C1733 0.950 . S
H1728 C1734 0.949 . S
C1729 H1724 0.950 . S
C1729 C1731 1.327 . S
C1729 C1735 1.429 . S
C1730 C1722 1.574 . S
C1730 H1725 0.949 . S
C1730 C1736 1.368 . S
C1731 C1715 1.349 . S
C1731 H1723 0.950 . S
C1731 C1729 1.327 . S
C1732 C1720 1.349 . S
C1732 H1726 0.950 . S
C1732 C1733 1.327 . S
C1733 H1727 0.950 . S
C1733 C1732 1.327 . S
C1733 C1737 1.429 . S
C1734 C1717 1.574 . S
C1734 H1728 0.949 . S
C1734 C1738 1.368 . S
C1735 C1716 1.429 . S
C1735 C1729 1.429 . S
C1735 C1736 1.523 . S
C1736 C1717 1.368 . S
C1736 C1730 1.368 . S
C1736 C1735 1.523 . S
C1737 C1721 1.429 . S
C1737 C1733 1.429 . S
C1737 C1738 1.523 . S
C1738 C1722 1.368 . S
C1738 C1734 1.368 . S
C1738 C1737 1.523 . S
H1739 C1714 0.950 . S
H1740 C1716 0.950 . S
H1741 C1717 0.949 . S
H1742 C1719 0.950 . S
H1743 C1721 0.950 . S
C545 C5 1.540 . S
C550 C243 1.540 . S
C575 C141 1.540 . S
C580 C39 1.540 . S
C605 C175 1.540 . S
C610 C73 1.540 . S
C635 C209 1.540 . S
C640 C107 1.540 . S
C665 C277 1.540 . S
C670 C515 1.540 . S
C695 C311 1.540 . S
C700 C413 1.540 . S
C725 C447 1.540 . S
C730 C345 1.540 . S
C755 C379 1.540 . S
C760 C481 1.540 . S
C785 C9 1.518 . S
C790 C281 1.518 . S
C815 C315 1.518 . S
C820 C43 1.518 . S
C845 C349 1.518 . S
C850 C77 1.518 . S
C875 C111 1.518 . S
C880 C383 1.518 . S
C905 C417 1.518 . S
C910 C145 1.518 . S
C935 C451 1.518 . S
C940 C179 1.518 . S
C965 C213 1.518 . S
C970 C485 1.518 . S
C995 C519 1.518 . S
C1000 C247 1.518 . S
C1025 C20 0.772 . S
C1030 C478 0.772 . S
C1055 C512 0.772 . S
C1060 C54 0.772 . S
C1085 C88 0.772 . S
C1090 C410 0.772 . S
C1115 C444 0.772 . S
C1120 C122 0.772 . S
C1145 C156 0.772 . S
C1150 C342 0.772 . S
C1175 C190 0.772 . S
C1180 C376 0.772 . S
C1205 C224 0.772 . S
C1210 C274 0.772 . S
C1235 C258 0.772 . S
C1240 C308 0.772 . S
C1265 C206 0.772 . S
C1270 C292 0.772 . S
C1295 C240 0.772 . S
C1300 C326 0.772 . S
C1325 C360 0.772 . S
C1330 C138 0.772 . S
C1355 C172 0.772 . S
C1360 C394 0.772 . S
C1385 C70 0.772 . S
C1390 C428 0.772 . S
C1415 C104 0.772 . S
C1420 C462 0.772 . S
C1445 C496 0.772 . S
C1450 C2 0.772 . S
C1475 C36 0.772 . S
C1480 C530 0.772 . S
C1505 C101 1.027 . S
C1510 C33 1.027 . S
C1535 C135 1.027 . S
C1540 C67 1.027 . S
C1565 C169 1.027 . S
C1570 C237 1.027 . S
C1595 C271 1.027 . S
C1600 C203 1.027 . S
C1625 C305 1.027 . S
C1630 C373 1.027 . S
C1655 C407 1.027 . S
C1660 C339 1.027 . S
C1685 C441 1.027 . S
C1690 C509 1.027 . S
C1715 C475 1.027 . S
C1720 C543 1.027 . S
