# Generated by pormake.
# Topology wkf, (6)-cn, num edge types: 1
# Building blocks:
#     Node 0, Type 0, BuildingBlock: MAKGUD_clean_sbu_1, # of connection points: 6
#     Node 1, Type 0, BuildingBlock: MAKGUD_clean_sbu_1, # of connection points: 6
#     Node 2, Type 0, BuildingBlock: MAKGUD_clean_sbu_1, # of connection points: 6
#     Node 3, Type 0, BuildingBlock: MAKGUD_clean_sbu_1, # of connection points: 6
#     Node 4, Type 0, BuildingBlock: MAKGUD_clean_sbu_1, # of connection points: 6
#     Node 5, Type 0, BuildingBlock: MAKGUD_clean_sbu_1, # of connection points: 6
#     Node 6, Type 0, BuildingBlock: MAKGUD_clean_sbu_1, # of connection points: 6
#     Node 7, Type 0, BuildingBlock: MAKGUD_clean_sbu_1, # of connection points: 6
#     Node 8, Type 0, BuildingBlock: MAKGUD_clean_sbu_1, # of connection points: 6
#     Node 9, Type 0, BuildingBlock: MAKGUD_clean_sbu_1, # of connection points: 6
#     Node 10, Type 0, BuildingBlock: MAKGUD_clean_sbu_1, # of connection points: 6
#     Node 11, Type 0, BuildingBlock: MAKGUD_clean_sbu_1, # of connection points: 6
#     Edge 12, Type (0, 0), BuildingBlock: OJICUG_clean_linker_0, # of connection points: 2
#     Edge 13, Type (0, 0), BuildingBlock: OJICUG_clean_linker_0, # of connection points: 2
#     Edge 14, Type (0, 0), BuildingBlock: OJICUG_clean_linker_0, # of connection points: 2
#     Edge 15, Type (0, 0), BuildingBlock: OJICUG_clean_linker_0, # of connection points: 2
#     Edge 16, Type (0, 0), BuildingBlock: OJICUG_clean_linker_0, # of connection points: 2
#     Edge 17, Type (0, 0), BuildingBlock: OJICUG_clean_linker_0, # of connection points: 2
#     Edge 18, Type (0, 0), BuildingBlock: OJICUG_clean_linker_0, # of connection points: 2
#     Edge 19, Type (0, 0), BuildingBlock: OJICUG_clean_linker_0, # of connection points: 2
#     Edge 20, Type (0, 0), BuildingBlock: OJICUG_clean_linker_0, # of connection points: 2
#     Edge 21, Type (0, 0), BuildingBlock: OJICUG_clean_linker_0, # of connection points: 2
#     Edge 22, Type (0, 0), BuildingBlock: OJICUG_clean_linker_0, # of connection points: 2
#     Edge 23, Type (0, 0), BuildingBlock: OJICUG_clean_linker_0, # of connection points: 2
#     Edge 24, Type (0, 0), BuildingBlock: OJICUG_clean_linker_0, # of connection points: 2
#     Edge 25, Type (0, 0), BuildingBlock: OJICUG_clean_linker_0, # of connection points: 2
#     Edge 26, Type (0, 0), BuildingBlock: OJICUG_clean_linker_0, # of connection points: 2
#     Edge 27, Type (0, 0), BuildingBlock: OJICUG_clean_linker_0, # of connection points: 2
#     Edge 28, Type (0, 0), BuildingBlock: OJICUG_clean_linker_0, # of connection points: 2
#     Edge 29, Type (0, 0), BuildingBlock: OJICUG_clean_linker_0, # of connection points: 2
#     Edge 30, Type (0, 0), BuildingBlock: OJICUG_clean_linker_0, # of connection points: 2
#     Edge 31, Type (0, 0), BuildingBlock: OJICUG_clean_linker_0, # of connection points: 2
#     Edge 32, Type (0, 0), BuildingBlock: OJICUG_clean_linker_0, # of connection points: 2
#     Edge 33, Type (0, 0), BuildingBlock: OJICUG_clean_linker_0, # of connection points: 2
#     Edge 34, Type (0, 0), BuildingBlock: OJICUG_clean_linker_0, # of connection points: 2
#     Edge 35, Type (0, 0), BuildingBlock: OJICUG_clean_linker_0, # of connection points: 2
#     Edge 36, Type (0, 0), BuildingBlock: OJICUG_clean_linker_0, # of connection points: 2
#     Edge 37, Type (0, 0), BuildingBlock: OJICUG_clean_linker_0, # of connection points: 2
#     Edge 38, Type (0, 0), BuildingBlock: OJICUG_clean_linker_0, # of connection points: 2
#     Edge 39, Type (0, 0), BuildingBlock: OJICUG_clean_linker_0, # of connection points: 2
#     Edge 40, Type (0, 0), BuildingBlock: OJICUG_clean_linker_0, # of connection points: 2
#     Edge 41, Type (0, 0), BuildingBlock: OJICUG_clean_linker_0, # of connection points: 2
#     Edge 42, Type (0, 0), BuildingBlock: OJICUG_clean_linker_0, # of connection points: 2
#     Edge 43, Type (0, 0), BuildingBlock: OJICUG_clean_linker_0, # of connection points: 2
#     Edge 44, Type (0, 0), BuildingBlock: OJICUG_clean_linker_0, # of connection points: 2
#     Edge 45, Type (0, 0), BuildingBlock: OJICUG_clean_linker_0, # of connection points: 2
#     Edge 46, Type (0, 0), BuildingBlock: OJICUG_clean_linker_0, # of connection points: 2
#     Edge 47, Type (0, 0), BuildingBlock: OJICUG_clean_linker_0, # of connection points: 2
# Relax obj value: 0.051
# Max RMSD: 0.165
# Mean RMSD: 0.163
data_MOF--net-wkf--node1-MAKGUD_clean_sbu_1--edge1-OJICUG_clean_linker_0
_symmetry_space_group_name_H-M    P1
_symmetry_Int_Tables_number       1
_symmetry_cell_setting            triclinic
loop_
_symmetry_equiv_pos_as_xyz
'x, y, z'
_cell_length_a     21.043567
_cell_length_b     20.987178
_cell_length_c     67.581915
_cell_angle_alpha  90.142662
_cell_angle_beta   90.038481
_cell_angle_gamma 119.98819
loop_
_atom_site_label
_atom_site_type_symbol
_atom_site_fract_x
_atom_site_fract_y
_atom_site_fract_z
_atom_type_partial_charge
O0 O 0.58528 0.24784 0.41473 0.0
Tb1 Tb 0.54551 0.14342 0.39953 0.0
C2 C 0.56094 0.18541 0.35613 0.0
O3 O 0.43016 0.97174 0.3801 0.0
Tb4 Tb 0.51458 1.02493 0.35755 0.0
C5 C 0.4418 0.975 0.32366 0.0
O6 O 0.48983 1.02901 0.40907 0.0
O7 O 0.57726 0.96922 0.36091 0.0
C8 C 0.54174 0.89693 0.36194 0.0
O9 O 0.4706 0.86246 0.36503 0.0
O10 O 0.51796 0.17315 0.37133 0.0
O11 O 0.58739 0.14163 0.35307 0.0
O12 O 0.65953 0.17405 0.40506 0.0
C13 C 0.43656 0.97294 0.39949 0.0
C14 C 0.5281 0.22831 0.42569 0.0
O15 O 0.42332 1.00427 0.33787 0.0
O16 O 0.50126 0.97461 0.3285 0.0
C17 C 0.71344 0.23554 0.39772 0.0
O18 O 0.69908 0.26682 0.38291 0.0
O19 O 0.47958 0.15996 0.42203 0.0
O20 O 0.59505 0.46898 0.49502 0.0
Tb21 Tb 0.55897 0.48231 0.52414 0.0
C22 C 0.53337 0.40448 0.56615 0.0
O23 O 0.41435 0.48505 0.53791 0.0
Tb24 Tb 0.47158 0.51313 0.56615 0.0
C25 C 0.36953 0.49562 0.59223 0.0
O26 O 0.51493 0.55503 0.51968 0.0
O27 O 0.55499 0.62745 0.5717 0.0
C28 C 0.54738 0.68148 0.56441 0.0
O29 O 0.50168 0.66712 0.5496 0.0
O30 O 0.52812 0.39794 0.54676 0.0
O31 O 0.53048 0.45778 0.57571 0.0
O32 O 0.67734 0.54479 0.52741 0.0
C33 C 0.44481 0.52825 0.52274 0.0
C34 C 0.53533 0.40903 0.49027 0.0
O35 O 0.40702 0.55287 0.58125 0.0
O36 O 0.38938 0.44708 0.58863 0.0
C37 C 0.71365 0.50889 0.52847 0.0
O38 O 0.67668 0.4376 0.5316 0.0
O39 O 0.48814 0.39031 0.50457 0.0
O40 O 1.01461 0.35953 0.75567 0.0
Tb41 Tb 1.03002 0.4408 0.7329 0.0
C42 C 0.98673 0.41232 0.68951 0.0
O43 O 0.19956 0.49377 0.71318 0.0
Tb44 Tb 0.14705 0.52578 0.69058 0.0
C45 C 0.19641 0.50248 0.65668 0.0
O46 O 0.14473 0.50009 0.74211 0.0
O47 O 0.20317 0.64431 0.69416 0.0
C48 C 0.27526 0.68062 0.69526 0.0
O49 O 0.30937 0.64341 0.69826 0.0
O50 O 0.9993 0.38219 0.70481 0.0
O51 O 1.0306 0.48231 0.68618 0.0
O52 O 0.99932 0.52448 0.73833 0.0
C53 C 0.19987 0.50134 0.73253 0.0
C54 C 0.94641 0.3396 0.7593 0.0
O55 O 0.16759 0.45487 0.67089 0.0
O56 O 0.19663 0.56243 0.66153 0.0
C57 C 0.93771 0.51665 0.731 0.0
O58 O 0.90613 0.4704 0.71626 0.0
O59 O 0.92634 0.37652 0.74817 0.0
O60 O 0.70782 0.16878 0.82875 0.0
Tb61 Tb 0.69466 0.12003 0.85793 0.0
C62 C 0.77375 0.17224 0.90003 0.0
O63 O 0.69195 0.97184 0.87154 0.0
Tb64 Tb 0.66481 1.00122 0.89987 0.0
C65 C 0.6821 0.91556 0.9257 0.0
O66 O 0.62187 1.00312 0.85349 0.0
O67 O 0.5512 0.97148 0.90564 0.0
C68 C 0.49666 0.90996 0.8984 0.0
O69 O 0.51005 0.87789 0.88355 0.0
O70 O 0.77895 0.17432 0.88059 0.0
O71 O 0.72157 0.11562 0.90962 0.0
O72 O 0.63228 0.17628 0.86095 0.0
C73 C 0.64873 0.95959 0.85636 0.0
C74 C 0.76755 0.16866 0.8241 0.0
O75 O 0.62496 0.89636 0.91469 0.0
O76 O 0.73066 0.98399 0.92226 0.0
C77 C 0.668 0.2486 0.86198 0.0
O78 O 0.73912 0.28298 0.86518 0.0
O79 O 0.78628 0.14038 0.83848 0.0
O80 O 0.79408 0.5816 0.0818 0.0
Tb81 Tb 0.73338 0.62372 0.06583 0.0
C82 C 0.76464 0.61068 0.02248 0.0
O83 O 0.68657 0.74424 0.04621 0.0
Tb84 Tb 0.65301 0.66008 0.02332 0.0
C85 C 0.67544 0.73359 0.98964 0.0
O86 O 0.67454 0.67988 0.07485 0.0
O87 O 0.53504 0.59823 0.0271 0.0
C88 C 0.49909 0.63437 0.02857 0.0
O89 O 0.53646 0.70561 0.03189 0.0
O90 O 0.79385 0.65193 0.03814 0.0
O91 O 0.6954 0.58615 0.01859 0.0
O92 O 0.64904 0.50935 0.07067 0.0
C93 C 0.67607 0.73551 0.06543 0.0
C94 C 0.83223 0.639 0.09277 0.0
O95 O 0.72348 0.7516 1.00374 0.0
O96 O 0.61552 0.67416 0.99447 0.0
C97 C 0.65705 0.45544 0.06339 0.0
O98 O 0.70322 0.47001 0.04873 0.0
O99 O 0.81484 0.689 0.08869 0.0
O100 O 1.00717 0.57392 0.16201 0.0
Tb101 Tb 1.0595 0.61287 0.19075 0.0
C102 C 1.00797 0.63912 0.23268 0.0
O103 O 0.20743 0.75718 0.20466 0.0
Tb104 Tb 0.17755 0.6992 0.23275 0.0
C105 C 0.26191 0.80124 0.25904 0.0
O106 O 0.17582 0.65686 0.18591 0.0
O107 O 0.20853 0.61577 0.2381 0.0
C108 C 0.26998 0.62353 0.23071 0.0
O109 O 0.30087 0.66916 0.21589 0.0
O110 O 1.00782 0.64599 0.21334 0.0
O111 O 1.06329 0.64049 0.24221 0.0
O112 O 1.00423 0.49451 0.19452 0.0
C113 C 0.21979 0.7269 0.18931 0.0
C114 C 1.00737 0.63366 0.15702 0.0
O115 O 0.28152 0.76359 0.24801 0.0
O116 O 0.19377 0.78156 0.25538 0.0
C117 C 0.93219 0.4579 0.19582 0.0
O118 O 0.898 0.49489 0.19907 0.0
O119 O 1.03789 0.68252 0.17096 0.0
O120 O 0.92562 0.58803 0.4285 0.0
Tb121 Tb 1.02954 0.62784 0.44378 0.0
C122 C 0.98716 0.61312 0.48715 0.0
O123 O 0.20008 0.74379 0.46331 0.0
Tb124 Tb 0.1472 0.6593 0.48589 0.0
C125 C 0.19684 0.73238 0.51978 0.0
O126 O 0.14382 0.68313 0.43436 0.0
O127 O 0.20336 0.59698 0.48248 0.0
C128 C 0.27547 0.63298 0.48145 0.0
O129 O 0.3095 0.70433 0.47844 0.0
O130 O 0.99972 0.65602 0.4719 0.0
O131 O 1.03069 0.58656 0.49034 0.0
O132 O 0.99861 0.51333 0.43835 0.0
C133 C 0.19951 0.7368 0.44394 0.0
C134 C 0.94535 0.64526 0.4175 0.0
O135 O 0.16827 0.75121 0.5055 0.0
O136 O 0.1967 0.67241 0.51501 0.0
C137 C 0.93712 0.45952 0.44569 0.0
O138 O 0.90595 0.47426 0.46046 0.0
O139 O 1.01352 0.69383 0.42119 0.0
O140 O 0.59513 0.16609 0.68179 0.0
Tb141 Tb 0.55788 0.11538 0.65279 0.0
C142 C 0.53264 0.16754 0.6108 0.0
O143 O 0.41375 0.96741 0.63885 0.0
Tb144 Tb 0.47147 0.99721 0.61075 0.0
C145 C 0.3698 0.91265 0.58445 0.0
O146 O 0.51411 0.99868 0.65735 0.0
O147 O 0.55495 0.96652 0.60538 0.0
C148 C 0.54725 0.90483 0.61266 0.0
O149 O 0.5014 0.87335 0.62738 0.0
O150 O 0.52636 0.16827 0.63016 0.0
O151 O 0.53047 0.11163 0.60127 0.0
O152 O 0.67602 0.17075 0.64933 0.0
C153 C 0.44411 0.95493 0.65412 0.0
C154 C 0.53541 0.16593 0.68663 0.0
O155 O 0.40733 0.89297 0.59545 0.0
O156 O 0.3894 0.98098 0.58815 0.0
C157 C 0.71266 0.24299 0.64814 0.0
O158 O 0.67598 0.27752 0.64498 0.0
O159 O 0.48758 0.13654 0.67244 0.0
O160 O 0.48165 0.36128 0.75452 0.0
Tb161 Tb 0.54793 0.44415 0.777 0.0
C162 C 0.56309 0.41764 0.82051 0.0
O163 O 0.43214 0.49906 0.79624 0.0
Tb164 Tb 0.517 0.53203 0.81881 0.0
C165 C 0.44416 0.51191 0.85248 0.0
O166 O 0.49208 0.50254 0.76735 0.0
O167 O 0.58045 0.65037 0.81505 0.0
C168 C 0.54538 0.68744 0.81369 0.0
O169 O 0.47437 0.65091 0.8103 0.0
O170 O 0.52019 0.38707 0.80522 0.0
O171 O 0.5892 0.48779 0.82378 0.0
O172 O 0.66203 0.5273 0.77147 0.0
C173 C 0.43854 0.50466 0.77687 0.0
C174 C 0.52991 0.34116 0.75096 0.0
O175 O 0.42625 0.46258 0.83868 0.0
O176 O 0.50326 0.57168 0.84739 0.0
C177 C 0.71583 0.51965 0.77886 0.0
O178 O 0.70148 0.47442 0.79376 0.0
O179 O 0.58716 0.3789 0.76197 0.0
O180 O 1.01312 0.46939 0.01541 0.0
Tb181 Tb 1.06474 0.48335 0.98659 0.0
C182 C 1.01223 0.40857 0.94449 0.0
O183 O 0.21418 0.49287 0.97144 0.0
Tb184 Tb 0.18066 0.52117 0.94393 0.0
C185 C 0.26374 0.50667 0.9167 0.0
O186 O 0.18081 0.55732 0.99136 0.0
O187 O 0.21057 0.63577 0.93934 0.0
C188 C 0.27249 0.6894 0.94666 0.0
O189 O 0.30394 0.67437 0.96129 0.0
O190 O 1.01499 0.39932 0.96365 0.0
O191 O 1.06553 0.46479 0.93509 0.0
O192 O 1.00829 0.54501 0.98264 0.0
C193 C 0.22589 0.53337 0.98725 0.0
C194 C 1.01355 0.40984 0.02026 0.0
O195 O 0.197 0.4561 0.92101 0.0
O196 O 0.28259 0.56418 0.92759 0.0
C197 C 0.93629 0.50874 0.98124 0.0
O198 O 0.90267 0.43741 0.97808 0.0
O199 O 1.0436 0.39173 0.00619 0.0
O200 O 0.81929 0.15991 0.08775 0.0
Tb201 Tb 0.73665 0.14298 0.1102 0.0
C202 C 0.76284 0.18478 0.15369 0.0
O203 O 0.6784 0.97019 0.12949 0.0
Tb204 Tb 0.64839 1.02447 0.15217 0.0
C205 C 0.67254 0.97549 0.186 0.0
O206 O 0.67862 1.02859 0.1005 0.0
O207 O 0.52994 0.96851 0.14911 0.0
C208 C 0.49342 0.8962 0.14802 0.0
O209 O 0.53014 0.86173 0.14478 0.0
O210 O 0.7935 0.17225 0.13849 0.0
O211 O 0.69262 0.14144 0.15663 0.0
O212 O 0.65272 0.17286 0.10458 0.0
C213 C 0.67459 0.97203 0.11007 0.0
C214 C 0.83887 0.22829 0.08425 0.0
O215 O 0.71946 1.00368 0.17163 0.0
O216 O 0.61281 0.97565 0.18134 0.0
C217 C 0.65988 0.23452 0.11182 0.0
O218 O 0.70555 0.2666 0.12661 0.0
O219 O 0.80107 0.24764 0.09528 0.0
O220 O 0.70626 0.57798 0.348 0.0
Tb221 Tb 0.69323 0.6143 0.3189 0.0
C222 C 0.77136 0.6398 0.27698 0.0
O223 O 0.68991 0.75894 0.305 0.0
Tb224 Tb 0.66247 0.70127 0.27678 0.0
C225 C 0.6802 0.80335 0.25062 0.0
O226 O 0.62036 0.65808 0.32325 0.0
O227 O 0.5484 0.61777 0.27118 0.0
C228 C 0.49452 0.62538 0.27853 0.0
O229 O 0.50892 0.67127 0.29334 0.0
O230 O 0.77772 0.64544 0.29637 0.0
O231 O 0.71816 0.64236 0.26737 0.0
O232 O 0.63075 0.49568 0.31554 0.0
C233 C 0.64686 0.72833 0.32019 0.0
C234 C 0.76579 0.63799 0.35284 0.0
O235 O 0.62315 0.76611 0.26165 0.0
O236 O 0.72844 0.78326 0.25422 0.0
C237 C 0.66638 0.45909 0.31455 0.0
O238 O 0.73756 0.49598 0.31153 0.0
O239 O 0.78447 0.68544 0.33859 0.0
C240 C 0.38159 0.86718 0.27626 0.0
C241 C 0.30926 0.85305 0.27437 0.0
H242 H 0.4803 0.91758 0.29333 0.0
C243 C 0.28248 0.88486 0.28788 0.0
H244 H 0.40372 0.84359 0.26597 0.0
C245 C 0.32675 0.92769 0.3036 0.0
C246 C 0.39797 0.93882 0.30593 0.0
H247 H 0.22683 0.87468 0.28666 0.0
H248 H 0.30444 0.94973 0.3143 0.0
C249 C 0.42549 0.9096 0.2919 0.0
C250 C 0.58362 0.39264 0.45845 0.0
C251 C 0.52732 0.36498 0.47254 0.0
H252 H 0.62727 0.37078 0.43249 0.0
C253 C 0.46737 0.29343 0.47027 0.0
H254 H 0.63033 0.4477 0.45984 0.0
C255 C 0.46564 0.24897 0.45454 0.0
C256 C 0.52382 0.27588 0.44099 0.0
H257 H 0.42335 0.271 0.48101 0.0
H258 H 0.4203 0.19308 0.45338 0.0
C259 C 0.58186 0.34854 0.44282 0.0
C260 C 0.26126 0.55124 0.62495 0.0
C261 C 0.23236 0.4946 0.63897 0.0
H262 H 0.32686 0.59523 0.59908 0.0
C263 C 0.24366 0.43442 0.63666 0.0
H264 H 0.25314 0.59813 0.62637 0.0
C265 C 0.28632 0.4328 0.62098 0.0
C266 C 0.31782 0.49129 0.60749 0.0
H267 H 0.22187 0.39014 0.64735 0.0
H268 H 0.29663 0.38727 0.61979 0.0
C269 C 0.30351 0.54957 0.60935 0.0
C270 C 0.92677 0.25796 0.78843 0.0
C271 C 0.89943 0.28837 0.77469 0.0
H272 H 0.90551 0.19492 0.81509 0.0
C273 C 0.82682 0.27353 0.77641 0.0
H274 H 0.98264 0.26871 0.78736 0.0
C275 C 0.78319 0.23183 0.79209 0.0
C276 C 0.81125 0.20404 0.80635 0.0
H277 H 0.80423 0.29602 0.76594 0.0
H278 H 0.72814 0.22329 0.79337 0.0
C279 C 0.88277 0.21585 0.80421 0.0
C280 C 0.62779 0.79523 0.94261 0.0
C281 C 0.6863 0.86762 0.94083 0.0
H282 H 0.57911 0.69601 0.95945 0.0
C283 C 0.74499 0.89393 0.95427 0.0
H284 H 0.58196 0.77344 0.93238 0.0
C285 C 0.74341 0.84916 0.96983 0.0
C286 C 0.68306 0.7779 0.97206 0.0
H287 H 0.79071 0.9496 0.95314 0.0
H288 H 0.78791 0.87115 0.98048 0.0
C289 C 0.62614 0.75084 0.95809 0.0
C290 C 0.93764 0.58159 0.12601 0.0
C291 C 0.96987 0.64026 0.13948 0.0
H292 H 0.86908 0.53581 0.10063 0.0
C293 C 0.96084 0.70164 0.13679 0.0
H294 H 0.94382 0.53366 0.12775 0.0
C295 C 0.9176 0.70286 0.12118 0.0
C296 C 0.88323 0.64272 0.10818 0.0
H297 H 0.98517 0.74747 0.14706 0.0
H298 H 0.90946 0.74965 0.11963 0.0
C299 C 0.89476 0.58283 0.11051 0.0
C300 C 0.28682 0.89222 0.55557 0.0
C301 C 0.31817 0.86522 0.56911 0.0
H302 H 0.22253 0.87036 0.52909 0.0
C303 C 0.30379 0.79258 0.56725 0.0
H304 H 0.2972 0.94811 0.55676 0.0
C305 C 0.26157 0.74858 0.55159 0.0
C306 C 0.23282 0.77633 0.53752 0.0
H307 H 0.32703 0.77027 0.57756 0.0
H308 H 0.25337 0.69352 0.55018 0.0
C309 C 0.24421 0.84787 0.53982 0.0
C310 C 0.46797 0.21385 0.70659 0.0
C311 C 0.52793 0.20246 0.70431 0.0
H312 H 0.42131 0.26742 0.72342 0.0
C313 C 0.5847 0.23177 0.71832 0.0
H314 H 0.42359 0.19175 0.6959 0.0
C315 C 0.58335 0.27453 0.7339 0.0
C316 C 0.52528 0.28893 0.73574 0.0
H317 H 0.63143 0.22358 0.71693 0.0
H318 H 0.62909 0.29819 0.74417 0.0
C319 C 0.46668 0.25704 0.72225 0.0
C320 C 0.28593 0.44245 0.88847 0.0
C321 C 0.3109 0.50324 0.90122 0.0
H322 H 0.30954 0.39719 0.86283 0.0
C323 C 0.38152 0.5639 0.89863 0.0
H324 H 0.23164 0.39507 0.89024 0.0
C325 C 0.42563 0.56509 0.88316 0.0
C326 C 0.40003 0.50563 0.86997 0.0
H327 H 0.40222 0.61147 0.90829 0.0
H328 H 0.4791 0.61354 0.88122 0.0
C329 C 0.33039 0.44363 0.87289 0.0
C330 C 0.90435 0.34845 0.06724 0.0
C331 C 0.89071 0.27608 0.06908 0.0
H332 H 0.95458 0.44756 0.05036 0.0
C333 C 0.92313 0.24966 0.05567 0.0
H334 H 0.88028 0.37032 0.07745 0.0
C335 C 0.96615 0.29432 0.0401 0.0
C336 C 0.97687 0.36558 0.03783 0.0
H337 H 0.91336 0.19401 0.05685 0.0
H338 H 0.98873 0.27227 0.02949 0.0
C339 C 0.94694 0.39273 0.05175 0.0
C340 C 0.62681 0.86996 0.23359 0.0
C341 C 0.68452 0.85497 0.23531 0.0
H342 H 0.57845 0.92058 0.21665 0.0
C343 C 0.7423 0.88555 0.22162 0.0
H344 H 0.58172 0.84734 0.24401 0.0
C345 C 0.74046 0.92793 0.20588 0.0
C346 C 0.68079 0.93986 0.20373 0.0
H347 H 0.78738 0.87469 0.22269 0.0
H348 H 0.78414 0.94897 0.19504 0.0
C349 C 0.62493 0.91194 0.21794 0.0
C350 C 0.82566 0.59131 0.4003 0.0
C351 C 0.89809 0.64953 0.40218 0.0
H352 H 0.72694 0.54268 0.38323 0.0
C353 C 0.92504 0.70789 0.38864 0.0
H354 H 0.80338 0.54576 0.41061 0.0
C355 C 0.88085 0.70617 0.3729 0.0
C356 C 0.80953 0.64602 0.37059 0.0
H357 H 0.98076 0.75337 0.38984 0.0
H358 H 0.90331 0.75033 0.36218 0.0
C359 C 0.78183 0.58954 0.38465 0.0
C360 C 0.56417 0.73687 0.34547 0.0
C361 C 0.62521 0.77192 0.33288 0.0
H362 H 0.49018 0.7492 0.36474 0.0
C363 C 0.66367 0.84914 0.3319 0.0
H364 H 0.53358 0.67747 0.34662 0.0
C365 C 0.63963 0.89031 0.34256 0.0
C366 C 0.57591 0.85504 0.35419 0.0
H367 H 0.71141 0.87782 0.3225 0.0
H368 H 0.66884 0.94952 0.34081 0.0
C369 C 0.53946 0.778 0.35591 0.0
C370 C 0.81845 0.60663 0.50916 0.0
C371 C 0.78963 0.54283 0.52082 0.0
H372 H 0.90296 0.67827 0.48919 0.0
C373 C 0.8298 0.50606 0.52267 0.0
H374 H 0.78877 0.63607 0.50731 0.0
C375 C 0.8956 0.53056 0.51234 0.0
C376 C 0.92197 0.59169 0.49974 0.0
H377 H 0.80904 0.45671 0.53153 0.0
H378 H 0.92409 0.49974 0.5136 0.0
C379 C 0.88361 0.63046 0.49861 0.0
C380 C 0.43532 0.86308 0.67924 0.0
C381 C 0.40052 0.88961 0.66669 0.0
H382 H 0.42271 0.77614 0.69833 0.0
C383 C 0.32351 0.85125 0.6656 0.0
H384 H 0.49456 0.89159 0.68046 0.0
C385 C 0.28228 0.78588 0.67611 0.0
C386 C 0.31728 0.75686 0.6877 0.0
H387 H 0.29503 0.87074 0.65623 0.0
H388 H 0.22323 0.7562 0.67429 0.0
C389 C 0.39413 0.79707 0.68952 0.0
C390 C 0.64569 0.40887 0.84581 0.0
C391 C 0.58472 0.37395 0.83311 0.0
H392 H 0.71957 0.39635 0.8651 0.0
C393 C 0.54634 0.29673 0.83192 0.0
H394 H 0.67623 0.46826 0.84712 0.0
C395 C 0.57034 0.25546 0.8425 0.0
C396 C 0.63395 0.2906 0.85425 0.0
H397 H 0.49867 0.26814 0.82243 0.0
H398 H 0.54119 0.19627 0.8406 0.0
C399 C 0.67037 0.36764 0.85616 0.0
C400 C 0.3295 0.51536 0.99814 0.0
C401 C 0.29099 0.5538 0.99981 0.0
H402 H 0.42435 0.50919 0.00644 0.0
C403 C 0.31706 0.61367 0.01296 0.0
H404 H 0.31034 0.46849 0.98828 0.0
C405 C 0.38281 0.63739 0.0233 0.0
C406 C 0.42312 0.60097 0.02092 0.0
H407 H 0.28839 0.6442 0.01463 0.0
H408 H 0.40346 0.68591 0.03258 0.0
C409 C 0.39454 0.53829 0.00871 0.0
C410 C 0.92491 0.35284 0.17633 0.0
C411 C 0.89006 0.38172 0.18805 0.0
H412 H 0.91195 0.26847 0.1561 0.0
C413 C 0.81319 0.34159 0.18979 0.0
H414 H 0.98396 0.38243 0.17458 0.0
C415 C 0.77186 0.27593 0.17924 0.0
C416 C 0.80652 0.24963 0.16654 0.0
H417 H 0.7847 0.36238 0.1987 0.0
H418 H 0.71261 0.24754 0.18039 0.0
C419 C 0.88355 0.2878 0.16557 0.0
C420 C 0.39452 0.63601 0.48734 0.0
C421 C 0.31765 0.59897 0.48905 0.0
H422 H 0.49509 0.64242 0.49652 0.0
C423 C 0.28277 0.53476 0.50055 0.0
H424 H 0.42303 0.68568 0.47861 0.0
C425 C 0.32412 0.5108 0.51109 0.0
C426 C 0.40115 0.54983 0.51012 0.0
H427 H 0.22371 0.50508 0.50228 0.0
H428 H 0.29571 0.46265 0.52039 0.0
C429 C 0.43584 0.61138 0.49766 0.0
C430 C 0.8293 0.3619 0.65388 0.0
C431 C 0.78875 0.28493 0.6558 0.0
H432 H 0.92403 0.46257 0.66291 0.0
C433 C 0.81731 0.2499 0.66755 0.0
H434 H 0.80872 0.39051 0.64495 0.0
C435 C 0.88262 0.29127 0.67811 0.0
C436 C 0.92135 0.36845 0.67692 0.0
H437 H 0.78734 0.19076 0.66945 0.0
H438 H 0.90178 0.26281 0.68761 0.0
C439 C 0.89523 0.40321 0.66422 0.0
C440 C 0.66628 0.85643 0.84436 0.0
C441 C 0.62769 0.895 0.8434 0.0
H442 H 0.67197 0.76174 0.83522 0.0
C443 C 0.56716 0.86937 0.83057 0.0
H444 H 0.71369 0.87523 0.85392 0.0
C445 C 0.54297 0.80398 0.81989 0.0
C446 C 0.57941 0.76344 0.82161 0.0
H447 H 0.53653 0.89809 0.82942 0.0
H448 H 0.494 0.78371 0.81088 0.0
C449 C 0.64274 0.79166 0.83347 0.0
C450 C 0.88592 0.62878 0.01135 0.0
C451 C 0.80901 0.58994 0.0099 0.0
H452 H 0.9868 0.63503 1.0029 0.0
C453 C 0.77506 0.52941 0.99697 0.0
H454 H 0.91374 0.67616 0.02103 0.0
C455 C 0.81695 0.50546 0.98665 0.0
C456 C 0.89368 0.54227 0.98883 0.0
H457 H 0.71589 0.49857 0.99548 0.0
H458 H 0.78901 0.45646 0.97755 0.0
C459 C 0.92787 0.60559 1.0008 0.0
C460 C 0.37692 0.77725 0.15369 0.0
C461 C 0.41749 0.85423 0.15571 0.0
H462 H 0.28227 0.67658 0.16259 0.0
C463 C 0.38907 0.88928 0.16755 0.0
H464 H 0.39738 0.74861 0.14469 0.0
C465 C 0.32386 0.84792 0.17808 0.0
C466 C 0.28506 0.77073 0.17676 0.0
H467 H 0.41907 0.94842 0.16953 0.0
H468 H 0.30482 0.87642 0.18763 0.0
C469 C 0.31108 0.73595 0.16399 0.0
C470 C 0.66869 0.34252 0.32055 0.0
C471 C 0.63218 0.383 0.32226 0.0
H472 H 0.67452 0.24797 0.3298 0.0
C473 C 0.56832 0.35443 0.33384 0.0
H474 H 0.71808 0.3631 0.31175 0.0
C475 C 0.54418 0.28923 0.34445 0.0
C476 C 0.5827 0.25059 0.34348 0.0
H477 H 0.53906 0.38434 0.33557 0.0
H478 H 0.49633 0.27008 0.35381 0.0
C479 C 0.64389 0.27669 0.33094 0.0
C480 C 0.26254 0.79357 0.41172 0.0
C481 C 0.26227 0.79483 0.43252 0.0
H482 H 0.31738 0.84796 0.38507 0.0
C483 C 0.32175 0.85374 0.44237 0.0
H484 H 0.21796 0.74916 0.4036 0.0
C485 C 0.37894 0.91072 0.43173 0.0
C486 C 0.37831 0.91037 0.41093 0.0
H487 H 0.32382 0.8566 0.45838 0.0
H488 H 0.42304 0.95561 0.43985 0.0
C489 C 0.31977 0.85051 0.40108 0.0
C490 C 0.53819 0.34713 0.59843 0.0
C491 C 0.53781 0.34629 0.57763 0.0
H492 H 0.53729 0.29219 0.62514 0.0
C493 C 0.53909 0.28759 0.56784 0.0
H494 H 0.53743 0.39137 0.60652 0.0
C495 C 0.53884 0.23038 0.57854 0.0
C496 C 0.53739 0.23031 0.59933 0.0
H497 H 0.53918 0.28505 0.55183 0.0
H498 H 0.53863 0.18565 0.57045 0.0
C499 C 0.53802 0.28997 0.60913 0.0
C500 C 0.32169 0.50986 0.7753 0.0
C501 C 0.3799 0.50834 0.76543 0.0
H502 H 0.21977 0.50902 0.77283 0.0
C503 C 0.37978 0.50778 0.74463 0.0
H504 H 0.3199 0.51069 0.79131 0.0
C505 C 0.32215 0.50694 0.73402 0.0
C506 C 0.26302 0.5066 0.7439 0.0
H507 H 0.4236 0.50679 0.7365 0.0
H508 H 0.32363 0.50552 0.71801 0.0
C509 C 0.26406 0.50898 0.76469 0.0
C510 C 0.88869 0.29636 0.90171 0.0
C511 C 0.83227 0.23487 0.91151 0.0
H512 H 0.98923 0.39913 0.90428 0.0
C513 C 0.83414 0.23288 0.93228 0.0
H514 H 0.8891 0.3002 0.88573 0.0
C515 C 0.89174 0.28984 0.94292 0.0
C516 C 0.94912 0.35042 0.9331 0.0
H517 H 0.79176 0.18669 0.94037 0.0
H518 H 0.89163 0.28569 0.95889 0.0
C519 C 0.94631 0.35336 0.91236 0.0
C520 C 0.66628 0.84817 0.10833 0.0
C521 C 0.6703 0.90933 0.09856 0.0
H522 H 0.66474 0.74563 0.1057 0.0
C523 C 0.6729 0.91093 0.07778 0.0
H524 H 0.66383 0.84465 0.12433 0.0
C525 C 0.67334 0.8539 0.06709 0.0
C526 C 0.67122 0.79367 0.07688 0.0
H527 H 0.67585 0.95685 0.06971 0.0
H528 H 0.6764 0.85774 0.0511 0.0
C529 C 0.66672 0.79112 0.09764 0.0
C530 C 0.82904 0.63451 0.2448 0.0
C531 C 0.82953 0.63513 0.2656 0.0
H532 H 0.88415 0.63485 0.21818 0.0
C533 C 0.88783 0.63376 0.27548 0.0
H534 H 0.78513 0.63532 0.23665 0.0
C535 C 0.94496 0.63364 0.26488 0.0
C536 C 0.94536 0.63483 0.24408 0.0
H537 H 0.8901 0.63384 0.2915 0.0
H538 H 0.98937 0.63377 0.27302 0.0
C539 C 0.88613 0.63433 0.23419 0.0
C540 C 0.8322 0.33028 0.44232 0.0
C541 C 0.89149 0.39236 0.43365 0.0
H542 H 0.73038 0.23032 0.43772 0.0
C543 C 0.89792 0.39493 0.4129 0.0
H544 H 0.82559 0.32677 0.45825 0.0
C545 C 0.84253 0.34034 0.4011 0.0
C546 C 0.7804 0.28113 0.40977 0.0
H547 H 0.94248 0.44219 0.4057 0.0
H548 H 0.84616 0.34686 0.38517 0.0
C549 C 0.77768 0.27481 0.43052 0.0
C550 C 0.57145 0.79982 0.60917 0.0
C551 C 0.56868 0.85932 0.60057 0.0
H552 H 0.56954 0.69789 0.60443 0.0
C553 C 0.57253 0.86608 0.57983 0.0
H554 H 0.56836 0.79295 0.62509 0.0
C555 C 0.57168 0.81077 0.56795 0.0
C556 C 0.56874 0.74841 0.57655 0.0
H557 H 0.56985 0.91083 0.57269 0.0
H558 H 0.56877 0.81464 0.55203 0.0
C559 C 0.57236 0.74539 0.59729 0.0
C560 C 0.84451 0.54308 0.7755 0.0
C561 C 0.78241 0.54024 0.7668 0.0
H562 H 0.94397 0.54049 0.77096 0.0
C563 C 0.77926 0.54315 0.74604 0.0
H564 H 0.84846 0.54068 0.79144 0.0
C565 C 0.83331 0.54153 0.73427 0.0
C566 C 0.89256 0.53872 0.74298 0.0
H567 H 0.73197 0.54038 0.73882 0.0
H568 H 0.82635 0.53795 0.71834 0.0
C569 C 0.89944 0.54321 0.76372 0.0
C570 C 0.43312 0.87252 0.93126 0.0
C571 C 0.42986 0.86534 0.91051 0.0
H572 H 0.38543 0.82206 0.95905 0.0
C573 C 0.36711 0.80624 0.90192 0.0
H574 H 0.48089 0.91695 0.9384 0.0
C575 C 0.31158 0.75259 0.91379 0.0
C576 C 0.31844 0.75594 0.93453 0.0
H577 H 0.36303 0.79905 0.886 0.0
H578 H 0.2665 0.70533 0.90664 0.0
C579 C 0.37843 0.81796 0.94313 0.0
C580 C 0.63381 0.27193 0.07893 0.0
C581 C 0.63783 0.2793 0.09966 0.0
H582 H 0.63672 0.32233 0.05109 0.0
C583 C 0.63451 0.33872 0.10821 0.0
H584 H 0.63689 0.22724 0.07182 0.0
C585 C 0.63287 0.39249 0.0963 0.0
C586 C 0.63628 0.38891 0.07555 0.0
H587 H 0.63772 0.34605 0.12413 0.0
H588 H 0.63528 0.43997 0.1034 0.0
C589 C 0.63392 0.3266 0.06701 0.0
C590 C 0.42995 0.59953 0.24577 0.0
C591 C 0.42743 0.60354 0.26652 0.0
H592 H 0.38166 0.60271 0.21807 0.0
C593 C 0.36531 0.6005 0.27523 0.0
H594 H 0.47724 0.60241 0.23854 0.0
C595 C 0.30971 0.59915 0.26347 0.0
C596 C 0.31591 0.60258 0.24272 0.0
H597 H 0.36182 0.6037 0.29117 0.0
H598 H 0.26516 0.60177 0.2707 0.0
C599 C 0.37521 0.59992 0.234 0.0
loop_
_geom_bond_atom_site_label_1
_geom_bond_atom_site_label_2
_geom_bond_distance
_geom_bond_site_symmetry_2
_ccdc_geom_bond_type
O0 Tb1 2.506 . S
O0 C14 1.265 . S
Tb1 O0 2.506 . S
Tb1 O6 2.312 1_545 S
Tb1 O10 2.271 . S
Tb1 O12 2.338 . S
Tb1 O19 2.441 . S
C2 O10 1.252 . S
C2 O11 1.253 . S
O3 Tb4 2.271 . S
O3 C13 1.252 . S
Tb4 O3 2.271 . S
Tb4 O7 2.338 . S
Tb4 O11 2.312 1_565 S
Tb4 O15 2.441 . S
Tb4 O16 2.506 . S
C5 O15 1.244 . S
C5 O16 1.265 . S
O6 Tb1 2.312 1_565 S
O6 C13 1.253 . S
O7 Tb4 2.338 . S
O7 C8 1.258 . S
C8 O7 1.258 . S
C8 O9 1.251 . S
O9 C8 1.251 . S
O10 Tb1 2.271 . S
O10 C2 1.252 . S
O11 C2 1.253 . S
O11 Tb4 2.312 1_545 S
O12 Tb1 2.338 . S
O12 C17 1.258 . S
C13 O3 1.252 . S
C13 O6 1.253 . S
C14 O0 1.265 . S
C14 O19 1.244 . S
O15 Tb4 2.441 . S
O15 C5 1.244 . S
O16 Tb4 2.506 . S
O16 C5 1.265 . S
C17 O12 1.258 . S
C17 O18 1.251 . S
O18 C17 1.251 . S
O19 Tb1 2.441 . S
O19 C14 1.244 . S
O20 Tb21 2.506 . S
O20 C34 1.265 . S
Tb21 O20 2.506 . S
Tb21 O26 2.312 . S
Tb21 O30 2.271 . S
Tb21 O32 2.338 . S
Tb21 O39 2.441 . S
C22 O30 1.252 . S
C22 O31 1.253 . S
O23 Tb24 2.271 . S
O23 C33 1.252 . S
Tb24 O23 2.271 . S
Tb24 O27 2.338 . S
Tb24 O31 2.312 . S
Tb24 O35 2.441 . S
Tb24 O36 2.506 . S
C25 O35 1.244 . S
C25 O36 1.265 . S
O26 Tb21 2.312 . S
O26 C33 1.253 . S
O27 Tb24 2.338 . S
O27 C28 1.258 . S
C28 O27 1.258 . S
C28 O29 1.251 . S
O29 C28 1.251 . S
O30 Tb21 2.271 . S
O30 C22 1.252 . S
O31 C22 1.253 . S
O31 Tb24 2.312 . S
O32 Tb21 2.338 . S
O32 C37 1.258 . S
C33 O23 1.252 . S
C33 O26 1.253 . S
C34 O20 1.265 . S
C34 O39 1.244 . S
O35 Tb24 2.441 . S
O35 C25 1.244 . S
O36 Tb24 2.506 . S
O36 C25 1.265 . S
C37 O32 1.258 . S
C37 O38 1.251 . S
O38 C37 1.251 . S
O39 Tb21 2.441 . S
O39 C34 1.244 . S
O40 Tb41 2.506 . S
O40 C54 1.265 . S
Tb41 O40 2.506 . S
Tb41 O46 2.312 1_655 S
Tb41 O50 2.271 . S
Tb41 O52 2.338 . S
Tb41 O59 2.441 . S
C42 O50 1.252 . S
C42 O51 1.253 . S
O43 Tb44 2.271 . S
O43 C53 1.252 . S
Tb44 O43 2.271 . S
Tb44 O47 2.338 . S
Tb44 O51 2.312 1_455 S
Tb44 O55 2.441 . S
Tb44 O56 2.506 . S
C45 O55 1.244 . S
C45 O56 1.265 . S
O46 Tb41 2.312 1_455 S
O46 C53 1.253 . S
O47 Tb44 2.338 . S
O47 C48 1.258 . S
C48 O47 1.258 . S
C48 O49 1.251 . S
O49 C48 1.251 . S
O50 Tb41 2.271 . S
O50 C42 1.252 . S
O51 C42 1.253 . S
O51 Tb44 2.312 1_655 S
O52 Tb41 2.338 . S
O52 C57 1.258 . S
C53 O43 1.252 . S
C53 O46 1.253 . S
C54 O40 1.265 . S
C54 O59 1.244 . S
O55 Tb44 2.441 . S
O55 C45 1.244 . S
O56 Tb44 2.506 . S
O56 C45 1.265 . S
C57 O52 1.258 . S
C57 O58 1.251 . S
O58 C57 1.251 . S
O59 Tb41 2.441 . S
O59 C54 1.244 . S
O60 Tb61 2.506 . S
O60 C74 1.265 . S
Tb61 O60 2.506 . S
Tb61 O66 2.312 1_545 S
Tb61 O70 2.271 . S
Tb61 O72 2.338 . S
Tb61 O79 2.441 . S
C62 O70 1.252 . S
C62 O71 1.253 . S
O63 Tb64 2.271 . S
O63 C73 1.252 . S
Tb64 O63 2.271 . S
Tb64 O67 2.338 . S
Tb64 O71 2.312 1_565 S
Tb64 O75 2.441 . S
Tb64 O76 2.506 . S
C65 O75 1.244 . S
C65 O76 1.265 . S
O66 Tb61 2.312 1_565 S
O66 C73 1.253 . S
O67 Tb64 2.338 . S
O67 C68 1.258 . S
C68 O67 1.258 . S
C68 O69 1.251 . S
O69 C68 1.251 . S
O70 Tb61 2.271 . S
O70 C62 1.252 . S
O71 C62 1.253 . S
O71 Tb64 2.312 1_545 S
O72 Tb61 2.338 . S
O72 C77 1.258 . S
C73 O63 1.252 . S
C73 O66 1.253 . S
C74 O60 1.265 . S
C74 O79 1.244 . S
O75 Tb64 2.441 . S
O75 C65 1.244 . S
O76 Tb64 2.506 . S
O76 C65 1.265 . S
C77 O72 1.258 . S
C77 O78 1.251 . S
O78 C77 1.251 . S
O79 Tb61 2.441 . S
O79 C74 1.244 . S
O80 Tb81 2.506 . S
O80 C94 1.265 . S
Tb81 O80 2.506 . S
Tb81 O86 2.312 . S
Tb81 O90 2.271 . S
Tb81 O92 2.338 . S
Tb81 O99 2.441 . S
C82 O90 1.252 . S
C82 O91 1.253 . S
O83 Tb84 2.271 . S
O83 C93 1.252 . S
Tb84 O83 2.271 . S
Tb84 O87 2.338 . S
Tb84 O91 2.312 . S
Tb84 O95 2.441 . S
Tb84 O96 2.506 1_554 S
C85 O95 1.244 1_556 S
C85 O96 1.265 . S
O86 Tb81 2.312 . S
O86 C93 1.253 . S
O87 Tb84 2.338 . S
O87 C88 1.258 . S
C88 O87 1.258 . S
C88 O89 1.251 . S
O89 C88 1.251 . S
O90 Tb81 2.271 . S
O90 C82 1.252 . S
O91 C82 1.253 . S
O91 Tb84 2.312 . S
O92 Tb81 2.338 . S
O92 C97 1.258 . S
C93 O83 1.252 . S
C93 O86 1.253 . S
C94 O80 1.265 . S
C94 O99 1.244 . S
O95 Tb84 2.441 . S
O95 C85 1.244 1_554 S
O96 Tb84 2.506 1_556 S
O96 C85 1.265 . S
C97 O92 1.258 . S
C97 O98 1.251 . S
O98 C97 1.251 . S
O99 Tb81 2.441 . S
O99 C94 1.244 . S
O100 Tb101 2.506 . S
O100 C114 1.265 . S
Tb101 O100 2.506 . S
Tb101 O106 2.312 1_655 S
Tb101 O110 2.271 . S
Tb101 O112 2.338 . S
Tb101 O119 2.441 . S
C102 O110 1.252 . S
C102 O111 1.253 . S
O103 Tb104 2.271 . S
O103 C113 1.252 . S
Tb104 O103 2.271 . S
Tb104 O107 2.338 . S
Tb104 O111 2.312 1_455 S
Tb104 O115 2.441 . S
Tb104 O116 2.506 . S
C105 O115 1.244 . S
C105 O116 1.265 . S
O106 Tb101 2.312 1_455 S
O106 C113 1.253 . S
O107 Tb104 2.338 . S
O107 C108 1.258 . S
C108 O107 1.258 . S
C108 O109 1.251 . S
O109 C108 1.251 . S
O110 Tb101 2.271 . S
O110 C102 1.252 . S
O111 C102 1.253 . S
O111 Tb104 2.312 1_655 S
O112 Tb101 2.338 . S
O112 C117 1.258 . S
C113 O103 1.252 . S
C113 O106 1.253 . S
C114 O100 1.265 . S
C114 O119 1.244 . S
O115 Tb104 2.441 . S
O115 C105 1.244 . S
O116 Tb104 2.506 . S
O116 C105 1.265 . S
C117 O112 1.258 . S
C117 O118 1.251 . S
O118 C117 1.251 . S
O119 Tb101 2.441 . S
O119 C114 1.244 . S
O120 Tb121 2.506 . S
O120 C134 1.265 . S
Tb121 O120 2.506 . S
Tb121 O126 2.312 1_655 S
Tb121 O130 2.271 . S
Tb121 O132 2.338 . S
Tb121 O139 2.441 . S
C122 O130 1.252 . S
C122 O131 1.253 . S
O123 Tb124 2.271 . S
O123 C133 1.252 . S
Tb124 O123 2.271 . S
Tb124 O127 2.338 . S
Tb124 O131 2.312 1_455 S
Tb124 O135 2.441 . S
Tb124 O136 2.506 . S
C125 O135 1.244 . S
C125 O136 1.265 . S
O126 Tb121 2.312 1_455 S
O126 C133 1.253 . S
O127 Tb124 2.338 . S
O127 C128 1.258 . S
C128 O127 1.258 . S
C128 O129 1.251 . S
O129 C128 1.251 . S
O130 Tb121 2.271 . S
O130 C122 1.252 . S
O131 C122 1.253 . S
O131 Tb124 2.312 1_655 S
O132 Tb121 2.338 . S
O132 C137 1.258 . S
C133 O123 1.252 . S
C133 O126 1.253 . S
C134 O120 1.265 . S
C134 O139 1.244 . S
O135 Tb124 2.441 . S
O135 C125 1.244 . S
O136 Tb124 2.506 . S
O136 C125 1.265 . S
C137 O132 1.258 . S
C137 O138 1.251 . S
O138 C137 1.251 . S
O139 Tb121 2.441 . S
O139 C134 1.244 . S
O140 Tb141 2.506 . S
O140 C154 1.265 . S
Tb141 O140 2.506 . S
Tb141 O146 2.312 1_545 S
Tb141 O150 2.271 . S
Tb141 O152 2.338 . S
Tb141 O159 2.441 . S
C142 O150 1.252 . S
C142 O151 1.253 . S
O143 Tb144 2.271 . S
O143 C153 1.252 . S
Tb144 O143 2.271 . S
Tb144 O147 2.338 . S
Tb144 O151 2.312 1_565 S
Tb144 O155 2.441 . S
Tb144 O156 2.506 . S
C145 O155 1.244 . S
C145 O156 1.265 . S
O146 Tb141 2.312 1_565 S
O146 C153 1.253 . S
O147 Tb144 2.338 . S
O147 C148 1.258 . S
C148 O147 1.258 . S
C148 O149 1.251 . S
O149 C148 1.251 . S
O150 Tb141 2.271 . S
O150 C142 1.252 . S
O151 C142 1.253 . S
O151 Tb144 2.312 1_545 S
O152 Tb141 2.338 . S
O152 C157 1.258 . S
C153 O143 1.252 . S
C153 O146 1.253 . S
C154 O140 1.265 . S
C154 O159 1.244 . S
O155 Tb144 2.441 . S
O155 C145 1.244 . S
O156 Tb144 2.506 . S
O156 C145 1.265 . S
C157 O152 1.258 . S
C157 O158 1.251 . S
O158 C157 1.251 . S
O159 Tb141 2.441 . S
O159 C154 1.244 . S
O160 Tb161 2.506 . S
O160 C174 1.265 . S
Tb161 O160 2.506 . S
Tb161 O166 2.312 . S
Tb161 O170 2.271 . S
Tb161 O172 2.338 . S
Tb161 O179 2.441 . S
C162 O170 1.252 . S
C162 O171 1.253 . S
O163 Tb164 2.271 . S
O163 C173 1.252 . S
Tb164 O163 2.271 . S
Tb164 O167 2.338 . S
Tb164 O171 2.312 . S
Tb164 O175 2.441 . S
Tb164 O176 2.506 . S
C165 O175 1.244 . S
C165 O176 1.265 . S
O166 Tb161 2.312 . S
O166 C173 1.253 . S
O167 Tb164 2.338 . S
O167 C168 1.258 . S
C168 O167 1.258 . S
C168 O169 1.251 . S
O169 C168 1.251 . S
O170 Tb161 2.271 . S
O170 C162 1.252 . S
O171 C162 1.253 . S
O171 Tb164 2.312 . S
O172 Tb161 2.338 . S
O172 C177 1.258 . S
C173 O163 1.252 . S
C173 O166 1.253 . S
C174 O160 1.265 . S
C174 O179 1.244 . S
O175 Tb164 2.441 . S
O175 C165 1.244 . S
O176 Tb164 2.506 . S
O176 C165 1.265 . S
C177 O172 1.258 . S
C177 O178 1.251 . S
O178 C177 1.251 . S
O179 Tb161 2.441 . S
O179 C174 1.244 . S
O180 Tb181 2.506 1_554 S
O180 C194 1.265 . S
Tb181 O180 2.506 1_556 S
Tb181 O186 2.312 1_655 S
Tb181 O190 2.271 . S
Tb181 O192 2.338 1_556 S
Tb181 O199 2.437 1_556 S
C182 O190 1.252 . S
C182 O191 1.253 . S
O183 Tb184 2.271 . S
O183 C193 1.252 . S
Tb184 O183 2.271 . S
Tb184 O187 2.338 . S
Tb184 O191 2.312 1_455 S
Tb184 O195 2.441 . S
Tb184 O196 2.506 . S
C185 O195 1.244 . S
C185 O196 1.265 . S
O186 Tb181 2.312 1_455 S
O186 C193 1.253 . S
O187 Tb184 2.338 . S
O187 C188 1.258 . S
C188 O187 1.258 . S
C188 O189 1.251 . S
O189 C188 1.251 . S
O190 Tb181 2.271 . S
O190 C182 1.252 . S
O191 C182 1.253 . S
O191 Tb184 2.312 1_655 S
O192 Tb181 2.338 1_554 S
O192 C197 1.258 1_554 S
C193 O183 1.252 . S
C193 O186 1.253 . S
C194 O180 1.265 . S
C194 O199 1.295 . S
O195 Tb184 2.441 . S
O195 C185 1.244 . S
O196 Tb184 2.506 . S
O196 C185 1.265 . S
C197 O192 1.258 1_556 S
C197 O198 1.251 . S
O198 C197 1.251 . S
O199 Tb181 2.437 1_554 S
O199 C194 1.295 . S
O200 Tb201 2.506 . S
O200 C214 1.265 . S
Tb201 O200 2.506 . S
Tb201 O206 2.312 1_545 S
Tb201 O210 2.271 . S
Tb201 O212 2.338 . S
Tb201 O219 2.441 . S
C202 O210 1.252 . S
C202 O211 1.253 . S
O203 Tb204 2.271 . S
O203 C213 1.252 . S
Tb204 O203 2.271 . S
Tb204 O207 2.338 . S
Tb204 O211 2.312 1_565 S
Tb204 O215 2.441 . S
Tb204 O216 2.506 . S
C205 O215 1.244 . S
C205 O216 1.265 . S
O206 Tb201 2.312 1_565 S
O206 C213 1.253 . S
O207 Tb204 2.338 . S
O207 C208 1.258 . S
C208 O207 1.258 . S
C208 O209 1.251 . S
O209 C208 1.251 . S
O210 Tb201 2.271 . S
O210 C202 1.252 . S
O211 C202 1.253 . S
O211 Tb204 2.312 1_545 S
O212 Tb201 2.338 . S
O212 C217 1.258 . S
C213 O203 1.252 . S
C213 O206 1.253 . S
C214 O200 1.265 . S
C214 O219 1.244 . S
O215 Tb204 2.441 . S
O215 C205 1.244 . S
O216 Tb204 2.506 . S
O216 C205 1.265 . S
C217 O212 1.258 . S
C217 O218 1.251 . S
O218 C217 1.251 . S
O219 Tb201 2.441 . S
O219 C214 1.244 . S
O220 Tb221 2.506 . S
O220 C234 1.265 . S
Tb221 O220 2.506 . S
Tb221 O226 2.312 . S
Tb221 O230 2.271 . S
Tb221 O232 2.338 . S
Tb221 O239 2.441 . S
C222 O230 1.252 . S
C222 O231 1.253 . S
O223 Tb224 2.271 . S
O223 C233 1.252 . S
Tb224 O223 2.271 . S
Tb224 O227 2.338 . S
Tb224 O231 2.312 . S
Tb224 O235 2.441 . S
Tb224 O236 2.506 . S
C225 O235 1.244 . S
C225 O236 1.265 . S
O226 Tb221 2.312 . S
O226 C233 1.253 . S
O227 Tb224 2.338 . S
O227 C228 1.258 . S
C228 O227 1.258 . S
C228 O229 1.251 . S
O229 C228 1.251 . S
O230 Tb221 2.271 . S
O230 C222 1.252 . S
O231 C222 1.253 . S
O231 Tb224 2.312 . S
O232 Tb221 2.338 . S
O232 C237 1.258 . S
C233 O223 1.252 . S
C233 O226 1.253 . S
C234 O220 1.265 . S
C234 O239 1.244 . S
O235 Tb224 2.441 . S
O235 C225 1.244 . S
O236 Tb224 2.506 . S
O236 C225 1.265 . S
C237 O232 1.258 . S
C237 O238 1.251 . S
O238 C237 1.251 . S
O239 Tb221 2.441 . S
O239 C234 1.244 . S
C240 C241 1.387 . S
C240 H244 0.950 . S
C240 C249 1.390 . S
C241 C240 1.387 . S
C241 C243 1.387 . S
H242 C249 0.950 . S
C243 C241 1.387 . S
C243 C245 1.390 . S
C243 H247 0.950 . S
H244 C240 0.950 . S
C245 C243 1.390 . S
C245 C246 1.387 . S
C245 H248 0.950 . S
C246 C245 1.387 . S
C246 C249 1.387 . S
H247 C243 0.950 . S
H248 C245 0.950 . S
C249 C240 1.390 . S
C249 H242 0.950 . S
C249 C246 1.387 . S
C250 C251 1.387 . S
C250 H254 0.950 . S
C250 C259 1.390 . S
C251 C250 1.387 . S
C251 C253 1.387 . S
H252 C259 0.950 . S
C253 C251 1.387 . S
C253 C255 1.390 . S
C253 H257 0.950 . S
H254 C250 0.950 . S
C255 C253 1.390 . S
C255 C256 1.387 . S
C255 H258 0.950 . S
C256 C255 1.387 . S
C256 C259 1.387 . S
H257 C253 0.950 . S
H258 C255 0.950 . S
C259 C250 1.390 . S
C259 H252 0.950 . S
C259 C256 1.387 . S
C260 C261 1.387 . S
C260 H264 0.950 . S
C260 C269 1.390 . S
C261 C260 1.387 . S
C261 C263 1.387 . S
H262 C269 0.950 . S
C263 C261 1.387 . S
C263 C265 1.390 . S
C263 H267 0.950 . S
H264 C260 0.950 . S
C265 C263 1.390 . S
C265 C266 1.387 . S
C265 H268 0.950 . S
C266 C265 1.387 . S
C266 C269 1.387 . S
H267 C263 0.950 . S
H268 C265 0.950 . S
C269 C260 1.390 . S
C269 H262 0.950 . S
C269 C266 1.387 . S
C270 C271 1.387 . S
C270 H274 0.950 . S
C270 C279 1.390 . S
C271 C270 1.387 . S
C271 C273 1.387 . S
H272 C279 0.950 . S
C273 C271 1.387 . S
C273 C275 1.390 . S
C273 H277 0.950 . S
H274 C270 0.950 . S
C275 C273 1.390 . S
C275 C276 1.387 . S
C275 H278 0.950 . S
C276 C275 1.387 . S
C276 C279 1.387 . S
H277 C273 0.950 . S
H278 C275 0.950 . S
C279 C270 1.390 . S
C279 H272 0.950 . S
C279 C276 1.387 . S
C280 C281 1.387 . S
C280 H284 0.950 . S
C280 C289 1.390 . S
C281 C280 1.387 . S
C281 C283 1.387 . S
H282 C289 0.950 . S
C283 C281 1.387 . S
C283 C285 1.390 . S
C283 H287 0.950 . S
H284 C280 0.950 . S
C285 C283 1.390 . S
C285 C286 1.387 . S
C285 H288 0.950 . S
C286 C285 1.387 . S
C286 C289 1.387 . S
H287 C283 0.950 . S
H288 C285 0.950 . S
C289 C280 1.390 . S
C289 H282 0.950 . S
C289 C286 1.387 . S
C290 C291 1.387 . S
C290 H294 0.950 . S
C290 C299 1.390 . S
C291 C290 1.387 . S
C291 C293 1.387 . S
H292 C299 0.950 . S
C293 C291 1.387 . S
C293 C295 1.390 . S
C293 H297 0.950 . S
H294 C290 0.950 . S
C295 C293 1.390 . S
C295 C296 1.387 . S
C295 H298 0.950 . S
C296 C295 1.387 . S
C296 C299 1.387 . S
H297 C293 0.950 . S
H298 C295 0.950 . S
C299 C290 1.390 . S
C299 H292 0.950 . S
C299 C296 1.387 . S
C300 C301 1.387 . S
C300 H304 0.950 . S
C300 C309 1.390 . S
C301 C300 1.387 . S
C301 C303 1.387 . S
H302 C309 0.950 . S
C303 C301 1.387 . S
C303 C305 1.390 . S
C303 H307 0.950 . S
H304 C300 0.950 . S
C305 C303 1.390 . S
C305 C306 1.387 . S
C305 H308 0.950 . S
C306 C305 1.387 . S
C306 C309 1.387 . S
H307 C303 0.950 . S
H308 C305 0.950 . S
C309 C300 1.390 . S
C309 H302 0.950 . S
C309 C306 1.387 . S
C310 C311 1.387 . S
C310 H314 0.950 . S
C310 C319 1.390 . S
C311 C310 1.387 . S
C311 C313 1.387 . S
H312 C319 0.950 . S
C313 C311 1.387 . S
C313 C315 1.390 . S
C313 H317 0.950 . S
H314 C310 0.950 . S
C315 C313 1.390 . S
C315 C316 1.387 . S
C315 H318 0.950 . S
C316 C315 1.387 . S
C316 C319 1.387 . S
H317 C313 0.950 . S
H318 C315 0.950 . S
C319 C310 1.390 . S
C319 H312 0.950 . S
C319 C316 1.387 . S
C320 C321 1.387 . S
C320 H324 0.950 . S
C320 C329 1.390 . S
C321 C320 1.387 . S
C321 C323 1.387 . S
H322 C329 0.950 . S
C323 C321 1.387 . S
C323 C325 1.390 . S
C323 H327 0.950 . S
H324 C320 0.950 . S
C325 C323 1.390 . S
C325 C326 1.387 . S
C325 H328 0.950 . S
C326 C325 1.387 . S
C326 C329 1.387 . S
H327 C323 0.950 . S
H328 C325 0.950 . S
C329 C320 1.390 . S
C329 H322 0.950 . S
C329 C326 1.387 . S
C330 C331 1.387 . S
C330 H334 0.950 . S
C330 C339 1.390 . S
C331 C330 1.387 . S
C331 C333 1.387 . S
H332 C339 0.950 . S
C333 C331 1.387 . S
C333 C335 1.390 . S
C333 H337 0.950 . S
H334 C330 0.950 . S
C335 C333 1.390 . S
C335 C336 1.387 . S
C335 H338 0.950 . S
C336 C335 1.387 . S
C336 C339 1.387 . S
H337 C333 0.950 . S
H338 C335 0.950 . S
C339 C330 1.390 . S
C339 H332 0.950 . S
C339 C336 1.387 . S
C340 C341 1.387 . S
C340 H344 0.950 . S
C340 C349 1.390 . S
C341 C340 1.387 . S
C341 C343 1.387 . S
H342 C349 0.950 . S
C343 C341 1.387 . S
C343 C345 1.390 . S
C343 H347 0.950 . S
H344 C340 0.950 . S
C345 C343 1.390 . S
C345 C346 1.387 . S
C345 H348 0.950 . S
C346 C345 1.387 . S
C346 C349 1.387 . S
H347 C343 0.950 . S
H348 C345 0.950 . S
C349 C340 1.390 . S
C349 H342 0.950 . S
C349 C346 1.387 . S
C350 C351 1.387 . S
C350 H354 0.950 . S
C350 C359 1.390 . S
C351 C350 1.387 . S
C351 C353 1.387 . S
H352 C359 0.950 . S
C353 C351 1.387 . S
C353 C355 1.390 . S
C353 H357 0.950 . S
H354 C350 0.950 . S
C355 C353 1.390 . S
C355 C356 1.387 . S
C355 H358 0.950 . S
C356 C355 1.387 . S
C356 C359 1.387 . S
H357 C353 0.950 . S
H358 C355 0.950 . S
C359 C350 1.390 . S
C359 H352 0.950 . S
C359 C356 1.387 . S
C360 C361 1.387 . S
C360 H364 0.950 . S
C360 C369 1.390 . S
C361 C360 1.387 . S
C361 C363 1.387 . S
H362 C369 0.950 . S
C363 C361 1.387 . S
C363 C365 1.390 . S
C363 H367 0.950 . S
H364 C360 0.950 . S
C365 C363 1.390 . S
C365 C366 1.387 . S
C365 H368 0.950 . S
C366 C365 1.387 . S
C366 C369 1.387 . S
H367 C363 0.950 . S
H368 C365 0.950 . S
C369 C360 1.390 . S
C369 H362 0.950 . S
C369 C366 1.387 . S
C370 C371 1.387 . S
C370 H374 0.950 . S
C370 C379 1.390 . S
C371 C370 1.387 . S
C371 C373 1.387 . S
H372 C379 0.950 . S
C373 C371 1.387 . S
C373 C375 1.390 . S
C373 H377 0.950 . S
H374 C370 0.950 . S
C375 C373 1.390 . S
C375 C376 1.387 . S
C375 H378 0.950 . S
C376 C375 1.387 . S
C376 C379 1.387 . S
H377 C373 0.950 . S
H378 C375 0.950 . S
C379 C370 1.390 . S
C379 H372 0.950 . S
C379 C376 1.387 . S
C380 C381 1.387 . S
C380 H384 0.950 . S
C380 C389 1.390 . S
C381 C380 1.387 . S
C381 C383 1.387 . S
H382 C389 0.950 . S
C383 C381 1.387 . S
C383 C385 1.390 . S
C383 H387 0.950 . S
H384 C380 0.950 . S
C385 C383 1.390 . S
C385 C386 1.387 . S
C385 H388 0.950 . S
C386 C385 1.387 . S
C386 C389 1.387 . S
H387 C383 0.950 . S
H388 C385 0.950 . S
C389 C380 1.390 . S
C389 H382 0.950 . S
C389 C386 1.387 . S
C390 C391 1.387 . S
C390 H394 0.950 . S
C390 C399 1.390 . S
C391 C390 1.387 . S
C391 C393 1.387 . S
H392 C399 0.950 . S
C393 C391 1.387 . S
C393 C395 1.390 . S
C393 H397 0.950 . S
H394 C390 0.950 . S
C395 C393 1.390 . S
C395 C396 1.387 . S
C395 H398 0.950 . S
C396 C395 1.387 . S
C396 C399 1.387 . S
H397 C393 0.950 . S
H398 C395 0.950 . S
C399 C390 1.390 . S
C399 H392 0.950 . S
C399 C396 1.387 . S
C400 C401 1.387 . S
C400 H404 0.950 . S
C400 C409 1.390 1_556 S
C401 C400 1.387 . S
C401 C403 1.387 . S
H402 C409 0.950 . S
C403 C401 1.387 . S
C403 C405 1.390 . S
C403 H407 0.950 . S
H404 C400 0.950 . S
C405 C403 1.390 . S
C405 C406 1.387 1_556 S
C405 H408 0.950 . S
C406 C405 1.387 1_554 S
C406 C409 1.387 . S
H407 C403 0.950 . S
H408 C405 0.950 . S
C409 C400 1.390 1_554 S
C409 H402 0.950 . S
C409 C406 1.387 . S
C410 C411 1.387 . S
C410 H414 0.950 . S
C410 C419 1.390 . S
C411 C410 1.387 . S
C411 C413 1.387 . S
H412 C419 0.950 . S
C413 C411 1.387 . S
C413 C415 1.390 . S
C413 H417 0.950 . S
H414 C410 0.950 . S
C415 C413 1.390 . S
C415 C416 1.387 . S
C415 H418 0.950 . S
C416 C415 1.387 . S
C416 C419 1.387 . S
H417 C413 0.950 . S
H418 C415 0.950 . S
C419 C410 1.390 . S
C419 H412 0.950 . S
C419 C416 1.387 . S
C420 C421 1.387 . S
C420 H424 0.950 . S
C420 C429 1.390 . S
C421 C420 1.387 . S
C421 C423 1.387 . S
H422 C429 0.950 . S
C423 C421 1.387 . S
C423 C425 1.390 . S
C423 H427 0.950 . S
H424 C420 0.950 . S
C425 C423 1.390 . S
C425 C426 1.387 . S
C425 H428 0.950 . S
C426 C425 1.387 . S
C426 C429 1.387 . S
H427 C423 0.950 . S
H428 C425 0.950 . S
C429 C420 1.390 . S
C429 H422 0.950 . S
C429 C426 1.387 . S
C430 C431 1.387 . S
C430 H434 0.950 . S
C430 C439 1.390 . S
C431 C430 1.387 . S
C431 C433 1.387 . S
H432 C439 0.950 . S
C433 C431 1.387 . S
C433 C435 1.390 . S
C433 H437 0.950 . S
H434 C430 0.950 . S
C435 C433 1.390 . S
C435 C436 1.387 . S
C435 H438 0.950 . S
C436 C435 1.387 . S
C436 C439 1.387 . S
H437 C433 0.950 . S
H438 C435 0.950 . S
C439 C430 1.390 . S
C439 H432 0.950 . S
C439 C436 1.387 . S
C440 C441 1.387 . S
C440 H444 0.950 . S
C440 C449 1.390 . S
C441 C440 1.387 . S
C441 C443 1.387 . S
H442 C449 0.950 . S
C443 C441 1.387 . S
C443 C445 1.390 . S
C443 H447 0.950 . S
H444 C440 0.950 . S
C445 C443 1.390 . S
C445 C446 1.387 . S
C445 H448 0.950 . S
C446 C445 1.387 . S
C446 C449 1.387 . S
H447 C443 0.950 . S
H448 C445 0.950 . S
C449 C440 1.390 . S
C449 H442 0.950 . S
C449 C446 1.387 . S
C450 C451 1.387 . S
C450 H454 0.950 . S
C450 C459 1.390 . S
C451 C450 1.387 . S
C451 C453 1.387 1_554 S
H452 C459 0.950 . S
C453 C451 1.387 1_556 S
C453 C455 1.390 . S
C453 H457 0.950 . S
H454 C450 0.950 . S
C455 C453 1.390 . S
C455 C456 1.417 . S
C455 H458 0.950 . S
C456 C455 1.417 . S
C456 C459 1.337 1_556 S
H457 C453 0.950 . S
H458 C455 0.950 . S
C459 C450 1.390 . S
C459 H452 0.950 . S
C459 C456 1.337 1_554 S
C460 C461 1.387 . S
C460 H464 0.950 . S
C460 C469 1.390 . S
C461 C460 1.387 . S
C461 C463 1.387 . S
H462 C469 0.950 . S
C463 C461 1.387 . S
C463 C465 1.390 . S
C463 H467 0.950 . S
H464 C460 0.950 . S
C465 C463 1.390 . S
C465 C466 1.387 . S
C465 H468 0.950 . S
C466 C465 1.387 . S
C466 C469 1.387 . S
H467 C463 0.950 . S
H468 C465 0.950 . S
C469 C460 1.390 . S
C469 H462 0.950 . S
C469 C466 1.387 . S
C470 C471 1.387 . S
C470 H474 0.950 . S
C470 C479 1.390 . S
C471 C470 1.387 . S
C471 C473 1.387 . S
H472 C479 0.950 . S
C473 C471 1.387 . S
C473 C475 1.390 . S
C473 H477 0.950 . S
H474 C470 0.950 . S
C475 C473 1.390 . S
C475 C476 1.387 . S
C475 H478 0.950 . S
C476 C475 1.387 . S
C476 C479 1.387 . S
H477 C473 0.950 . S
H478 C475 0.950 . S
C479 C470 1.390 . S
C479 H472 0.950 . S
C479 C476 1.387 . S
C480 C481 1.387 . S
C480 H484 0.950 . S
C480 C489 1.390 . S
C481 C480 1.387 . S
C481 C483 1.387 . S
H482 C489 0.950 . S
C483 C481 1.387 . S
C483 C485 1.390 . S
C483 H487 0.950 . S
H484 C480 0.950 . S
C485 C483 1.390 . S
C485 C486 1.387 . S
C485 H488 0.950 . S
C486 C485 1.387 . S
C486 C489 1.387 . S
H487 C483 0.950 . S
H488 C485 0.950 . S
C489 C480 1.390 . S
C489 H482 0.950 . S
C489 C486 1.387 . S
C490 C491 1.387 . S
C490 H494 0.950 . S
C490 C499 1.390 . S
C491 C490 1.387 . S
C491 C493 1.387 . S
H492 C499 0.950 . S
C493 C491 1.387 . S
C493 C495 1.390 . S
C493 H497 0.950 . S
H494 C490 0.950 . S
C495 C493 1.390 . S
C495 C496 1.387 . S
C495 H498 0.950 . S
C496 C495 1.387 . S
C496 C499 1.387 . S
H497 C493 0.950 . S
H498 C495 0.950 . S
C499 C490 1.390 . S
C499 H492 0.950 . S
C499 C496 1.387 . S
C500 C501 1.387 . S
C500 H504 0.950 . S
C500 C509 1.390 . S
C501 C500 1.387 . S
C501 C503 1.387 . S
H502 C509 0.950 . S
C503 C501 1.387 . S
C503 C505 1.390 . S
C503 H507 0.950 . S
H504 C500 0.950 . S
C505 C503 1.390 . S
C505 C506 1.387 . S
C505 H508 0.950 . S
C506 C505 1.387 . S
C506 C509 1.387 . S
H507 C503 0.950 . S
H508 C505 0.950 . S
C509 C500 1.390 . S
C509 H502 0.950 . S
C509 C506 1.387 . S
C510 C511 1.387 . S
C510 H514 0.950 . S
C510 C519 1.390 . S
C511 C510 1.387 . S
C511 C513 1.387 . S
H512 C519 0.950 . S
C513 C511 1.387 . S
C513 C515 1.390 . S
C513 H517 0.950 . S
H514 C510 0.950 . S
C515 C513 1.390 . S
C515 C516 1.387 . S
C515 H518 0.950 . S
C516 C515 1.387 . S
C516 C519 1.387 . S
H517 C513 0.950 . S
H518 C515 0.950 . S
C519 C510 1.390 . S
C519 H512 0.950 . S
C519 C516 1.387 . S
C520 C521 1.387 . S
C520 H524 0.950 . S
C520 C529 1.390 . S
C521 C520 1.387 . S
C521 C523 1.387 . S
H522 C529 0.950 . S
C523 C521 1.387 . S
C523 C525 1.390 . S
C523 H527 0.950 . S
H524 C520 0.950 . S
C525 C523 1.390 . S
C525 C526 1.387 . S
C525 H528 0.950 . S
C526 C525 1.387 . S
C526 C529 1.387 . S
H527 C523 0.950 . S
H528 C525 0.950 . S
C529 C520 1.390 . S
C529 H522 0.950 . S
C529 C526 1.387 . S
C530 C531 1.387 . S
C530 H534 0.950 . S
C530 C539 1.390 . S
C531 C530 1.387 . S
C531 C533 1.387 . S
H532 C539 0.950 . S
C533 C531 1.387 . S
C533 C535 1.390 . S
C533 H537 0.950 . S
H534 C530 0.950 . S
C535 C533 1.390 . S
C535 C536 1.387 . S
C535 H538 0.950 . S
C536 C535 1.387 . S
C536 C539 1.387 . S
H537 C533 0.950 . S
H538 C535 0.950 . S
C539 C530 1.390 . S
C539 H532 0.950 . S
C539 C536 1.387 . S
C540 C541 1.387 . S
C540 H544 0.950 . S
C540 C549 1.390 . S
C541 C540 1.387 . S
C541 C543 1.387 . S
H542 C549 0.950 . S
C543 C541 1.387 . S
C543 C545 1.390 . S
C543 H547 0.950 . S
H544 C540 0.950 . S
C545 C543 1.390 . S
C545 C546 1.387 . S
C545 H548 0.950 . S
C546 C545 1.387 . S
C546 C549 1.387 . S
H547 C543 0.950 . S
H548 C545 0.950 . S
C549 C540 1.390 . S
C549 H542 0.950 . S
C549 C546 1.387 . S
C550 C551 1.387 . S
C550 H554 0.950 . S
C550 C559 1.390 . S
C551 C550 1.387 . S
C551 C553 1.387 . S
H552 C559 0.950 . S
C553 C551 1.387 . S
C553 C555 1.390 . S
C553 H557 0.950 . S
H554 C550 0.950 . S
C555 C553 1.390 . S
C555 C556 1.387 . S
C555 H558 0.950 . S
C556 C555 1.387 . S
C556 C559 1.387 . S
H557 C553 0.950 . S
H558 C555 0.950 . S
C559 C550 1.390 . S
C559 H552 0.950 . S
C559 C556 1.387 . S
C560 C561 1.387 . S
C560 H564 0.950 . S
C560 C569 1.390 . S
C561 C560 1.387 . S
C561 C563 1.387 . S
H562 C569 0.950 . S
C563 C561 1.387 . S
C563 C565 1.390 . S
C563 H567 0.950 . S
H564 C560 0.950 . S
C565 C563 1.390 . S
C565 C566 1.387 . S
C565 H568 0.950 . S
C566 C565 1.387 . S
C566 C569 1.387 . S
H567 C563 0.950 . S
H568 C565 0.950 . S
C569 C560 1.390 . S
C569 H562 0.950 . S
C569 C566 1.387 . S
C570 C571 1.387 . S
C570 H574 0.950 . S
C570 C579 1.390 . S
C571 C570 1.387 . S
C571 C573 1.387 . S
H572 C579 0.950 . S
C573 C571 1.387 . S
C573 C575 1.390 . S
C573 H577 0.950 . S
H574 C570 0.950 . S
C575 C573 1.390 . S
C575 C576 1.387 . S
C575 H578 0.950 . S
C576 C575 1.387 . S
C576 C579 1.387 . S
H577 C573 0.950 . S
H578 C575 0.950 . S
C579 C570 1.390 . S
C579 H572 0.950 . S
C579 C576 1.387 . S
C580 C581 1.387 . S
C580 H584 0.950 . S
C580 C589 1.390 . S
C581 C580 1.387 . S
C581 C583 1.387 . S
H582 C589 0.950 . S
C583 C581 1.387 . S
C583 C585 1.390 . S
C583 H587 0.950 . S
H584 C580 0.950 . S
C585 C583 1.390 . S
C585 C586 1.387 . S
C585 H588 0.950 . S
C586 C585 1.387 . S
C586 C589 1.387 . S
H587 C583 0.950 . S
H588 C585 0.950 . S
C589 C580 1.390 . S
C589 H582 0.950 . S
C589 C586 1.387 . S
C590 C591 1.387 . S
C590 H594 0.950 . S
C590 C599 1.390 . S
C591 C590 1.387 . S
C591 C593 1.387 . S
H592 C599 0.950 . S
C593 C591 1.387 . S
C593 C595 1.390 . S
C593 H597 0.950 . S
H594 C590 0.950 . S
C595 C593 1.390 . S
C595 C596 1.387 . S
C595 H598 0.950 . S
C596 C595 1.387 . S
C596 C599 1.387 . S
H597 C593 0.950 . S
H598 C595 0.950 . S
C599 C590 1.390 . S
C599 H592 0.950 . S
C599 C596 1.387 . S
C241 C105 1.427 . S
C246 C5 1.423 . S
C251 C34 1.331 . S
C256 C14 1.334 . S
C261 C45 1.468 . S
C266 C25 1.484 . S
C271 C54 1.426 . S
C276 C74 1.423 . S
C281 C65 1.336 . S
C286 C85 1.329 . S
C291 C114 1.469 . S
C296 C94 1.484 . S
C301 C145 1.425 . S
C306 C125 1.423 . S
C311 C154 1.469 . S
C316 C174 1.484 . S
C321 C185 1.338 . S
C326 C165 1.332 . S
C331 C214 1.425 . S
C336 C194 1.422 . S
C341 C225 1.483 . S
C346 C205 1.470 . S
C351 C134 1.336 . S
C356 C234 1.330 . S
C361 C233 2.147 . S
C366 C8 2.106 . S
C371 C37 1.838 . S
C376 C122 1.883 . S
C381 C153 1.984 . S
C386 C48 1.952 . S
C391 C162 2.147 . S
C396 C77 2.106 . S
C401 C193 1.885 . S
C406 C88 1.836 . S
C411 C117 1.953 . S
C416 C202 1.981 . S
C421 C128 2.104 . S
C426 C33 2.149 . S
C431 C157 1.951 . S
C436 C42 1.983 . S
C441 C73 1.884 . S
C446 C168 1.836 . S
C451 C82 2.145 . S
C456 C197 2.126 . S
C461 C208 1.951 . S
C466 C113 1.982 . S
C471 C237 1.839 . S
C476 C2 1.884 . S
C481 C133 3.050 . S
C486 C13 3.051 . S
C491 C22 2.664 . S
C496 C142 2.677 . S
C501 C173 2.663 . S
C506 C53 2.678 . S
C511 C62 3.048 . S
C516 C182 3.052 . S
C521 C213 2.675 . S
C526 C93 2.666 . S
C531 C222 2.663 . S
C536 C102 2.678 . S
C541 C137 1.202 . S
C546 C17 1.203 . S
C551 C148 1.424 . S
C556 C28 1.436 . S
C561 C177 1.438 . S
C566 C57 1.425 . S
C571 C68 1.205 . S
C576 C188 1.200 . S
C581 C217 1.428 . S
C586 C97 1.434 . S
C591 C228 1.436 . S
C596 C108 1.423 . S
