# Generated by pormake.
# Topology wgw, (6)-cn, num edge types: 1
# Building blocks:
#     Node 0, Type 0, BuildingBlock: OJICUG_clean_sbu_0, # of connection points: 6
#     Node 1, Type 0, BuildingBlock: OJICUG_clean_sbu_0, # of connection points: 6
#     Node 2, Type 0, BuildingBlock: OJICUG_clean_sbu_0, # of connection points: 6
#     Node 3, Type 0, BuildingBlock: OJICUG_clean_sbu_0, # of connection points: 6
#     Node 4, Type 0, BuildingBlock: OJICUG_clean_sbu_0, # of connection points: 6
#     Node 5, Type 0, BuildingBlock: OJICUG_clean_sbu_0, # of connection points: 6
#     Node 6, Type 0, BuildingBlock: OJICUG_clean_sbu_0, # of connection points: 6
#     Node 7, Type 0, BuildingBlock: OJICUG_clean_sbu_0, # of connection points: 6
#     Edge 8, Type (0, 0), BuildingBlock: AJUNOK_clean_linker_0, # of connection points: 2
#     Edge 9, Type (0, 0), BuildingBlock: AJUNOK_clean_linker_0, # of connection points: 2
#     Edge 10, Type (0, 0), BuildingBlock: AJUNOK_clean_linker_0, # of connection points: 2
#     Edge 11, Type (0, 0), BuildingBlock: AJUNOK_clean_linker_0, # of connection points: 2
#     Edge 12, Type (0, 0), BuildingBlock: AJUNOK_clean_linker_0, # of connection points: 2
#     Edge 13, Type (0, 0), BuildingBlock: AJUNOK_clean_linker_0, # of connection points: 2
#     Edge 14, Type (0, 0), BuildingBlock: AJUNOK_clean_linker_0, # of connection points: 2
#     Edge 15, Type (0, 0), BuildingBlock: AJUNOK_clean_linker_0, # of connection points: 2
#     Edge 16, Type (0, 0), BuildingBlock: AJUNOK_clean_linker_0, # of connection points: 2
#     Edge 17, Type (0, 0), BuildingBlock: AJUNOK_clean_linker_0, # of connection points: 2
#     Edge 18, Type (0, 0), BuildingBlock: AJUNOK_clean_linker_0, # of connection points: 2
#     Edge 19, Type (0, 0), BuildingBlock: AJUNOK_clean_linker_0, # of connection points: 2
#     Edge 20, Type (0, 0), BuildingBlock: AJUNOK_clean_linker_0, # of connection points: 2
#     Edge 21, Type (0, 0), BuildingBlock: AJUNOK_clean_linker_0, # of connection points: 2
#     Edge 22, Type (0, 0), BuildingBlock: AJUNOK_clean_linker_0, # of connection points: 2
#     Edge 23, Type (0, 0), BuildingBlock: AJUNOK_clean_linker_0, # of connection points: 2
#     Edge 24, Type (0, 0), BuildingBlock: AJUNOK_clean_linker_0, # of connection points: 2
#     Edge 25, Type (0, 0), BuildingBlock: AJUNOK_clean_linker_0, # of connection points: 2
#     Edge 26, Type (0, 0), BuildingBlock: AJUNOK_clean_linker_0, # of connection points: 2
#     Edge 27, Type (0, 0), BuildingBlock: AJUNOK_clean_linker_0, # of connection points: 2
#     Edge 28, Type (0, 0), BuildingBlock: AJUNOK_clean_linker_0, # of connection points: 2
#     Edge 29, Type (0, 0), BuildingBlock: AJUNOK_clean_linker_0, # of connection points: 2
#     Edge 30, Type (0, 0), BuildingBlock: AJUNOK_clean_linker_0, # of connection points: 2
#     Edge 31, Type (0, 0), BuildingBlock: AJUNOK_clean_linker_0, # of connection points: 2
# Relax obj value: 0.221
# Max RMSD: 0.288
# Mean RMSD: 0.288
data_MOF--net-wgw--node1-OJICUG_clean_sbu_0--edge1-AJUNOK_clean_linker_0
_symmetry_space_group_name_H-M    P1
_symmetry_Int_Tables_number       1
_symmetry_cell_setting            triclinic
loop_
_symmetry_equiv_pos_as_xyz
'x, y, z'
_cell_length_a     22.031626
_cell_length_b     22.012294
_cell_length_c     32.835738
_cell_angle_alpha  90.01356
_cell_angle_beta   89.994267
_cell_angle_gamma 90.016685
loop_
_atom_site_label
_atom_site_type_symbol
_atom_site_fract_x
_atom_site_fract_y
_atom_site_fract_z
_atom_type_partial_charge
Sc0 Sc 0.13238 0.48057 0.14428 0.0
Sc1 Sc 0.05483 0.45125 0.23517 0.0
Sc2 Sc 0.01613 0.37322 0.14497 0.0
O3 O 0.06787 0.43434 0.17493 0.0
C4 C 0.03851 0.46435 0.07162 0.0
C5 C 0.07194 0.58275 0.19517 0.0
C6 C 0.92147 0.45085 0.19646 0.0
C7 C 0.19256 0.47203 0.2336 0.0
C8 C 0.15534 0.34141 0.12235 0.0
C9 C 0.02375 0.31135 0.23314 0.0
O10 O 0.08658 0.48565 0.08692 0.0
O11 O 0.06484 0.54698 0.22519 0.0
O12 O 0.93309 0.41741 0.16559 0.0
O13 O 0.18939 0.48761 0.19653 0.0
O14 O 0.09885 0.32749 0.1245 0.0
O15 O 0.04078 0.3578 0.25293 0.0
O16 O 0.17501 0.39528 0.12864 0.0
O17 O 0.14948 0.44483 0.2517 0.0
O18 O 0.01427 0.31186 0.19511 0.0
O19 O 0.09043 0.56589 0.16022 0.0
O20 O 0.00714 0.42453 0.0897 0.0
O21 O 0.96021 0.46306 0.22395 0.0
Sc22 Sc 0.11608 0.0125 0.65129 0.0
Sc23 Sc 0.02177 0.0261 0.73743 0.0
Sc24 Sc 0.0048 0.12743 0.65527 0.0
O25 O 0.0477 0.05553 0.68145 0.0
C26 C 0.14677 0.15448 0.6415 0.0
C27 C 0.16228 0.00197 0.74365 0.0
C28 C 0.00443 0.16735 0.74887 0.0
C29 C 0.04036 0.90275 0.68691 0.0
C30 C 0.03009 0.04745 0.57648 0.0
C31 C 0.89552 0.05219 0.6922 0.0
O32 O 0.16336 0.09882 0.64327 0.0
O33 O 0.11325 0.01844 0.76074 0.0
O34 O -0.0004 0.17729 0.71102 0.0
O35 O 0.07346 0.92407 0.65844 0.0
O36 O 0.00092 0.0878 0.5957 0.0
O37 O 0.92796 0.02812 0.71983 0.0
O38 O 0.07359 0.01834 0.59251 0.0
O39 O 0.02267 0.93396 0.7172 0.0
O40 O 0.91574 0.08967 0.66603 0.0
O41 O 0.16815 -0.00332 0.7054 0.0
O42 O 0.09126 0.17074 0.64366 0.0
O43 O 0.01538 0.11547 0.76396 0.0
Sc44 Sc 0.47926 0.12066 0.14819 0.0
Sc45 Sc 0.45286 0.03667 0.2382 0.0
Sc46 Sc 0.36386 0.01095 0.15108 0.0
O47 O 0.43173 0.05669 0.1793 0.0
C48 C 0.3394 0.15002 0.12745 0.0
C49 C 0.48027 0.17787 0.23771 0.0
C50 C 0.31184 0.02613 0.24222 0.0
C51 C 0.58093 0.04261 0.19326 0.0
C52 C 0.45396 0.02675 0.07615 0.0
C53 C 0.42873 0.90628 0.19899 0.0
O54 O 0.3951 0.16602 0.1306 0.0
O55 O 0.4682 0.12928 0.25674 0.0
O56 O 0.30856 0.01178 0.20481 0.0
O57 O 0.56533 0.07849 0.16455 0.0
O58 O 0.4091 0.00216 0.09365 0.0
O59 O 0.44334 0.9415 0.2279 0.0
O60 O 0.48339 0.06997 0.09228 0.0
O61 O 0.54549 0.02606 0.22164 0.0
O62 O 0.40216 0.92374 0.16673 0.0
O63 O 0.48417 0.18104 0.19926 0.0
O64 O 0.32174 0.09559 0.13359 0.0
O65 O 0.36073 0.0422 0.25961 0.0
Sc66 Sc 0.48124 0.36024 0.6581 0.0
Sc67 Sc 0.46976 0.46473 0.73949 0.0
Sc68 Sc 0.37517 0.47965 0.65359 0.0
O69 O 0.44183 0.43463 0.68388 0.0
C70 C 0.46191 0.44272 0.57956 0.0
C71 C 0.59348 0.43321 0.69397 0.0
C72 C 0.45289 0.58813 0.68936 0.0
C73 C 0.47907 0.32283 0.75218 0.0
C74 C 0.33913 0.33902 0.64241 0.0
C75 C 0.32964 0.48919 0.7461 0.0
O76 O 0.48754 0.39958 0.59841 0.0
O77 O 0.56203 0.4596 0.72102 0.0
O78 O 0.4179 0.56757 0.66177 0.0
O79 O 0.48181 0.31145 0.71437 0.0
O80 O 0.32609 0.39546 0.64386 0.0
O81 O 0.37952 0.47594 0.76319 0.0
O82 O 0.3934 0.31939 0.6457 0.0
O83 O 0.47384 0.3759 0.76675 0.0
O84 O 0.32256 0.49234 0.7078 0.0
O85 O 0.57208 0.39467 0.66887 0.0
O86 O 0.42012 0.47442 0.59556 0.0
O87 O 0.47173 0.55646 0.71902 0.0
Sc88 Sc 0.51969 0.61732 0.34959 0.0
Sc89 Sc 0.54774 0.5453 0.25663 0.0
Sc90 Sc 0.63494 0.50847 0.34326 0.0
O91 O 0.56803 0.55718 0.3164 0.0
C92 C 0.65915 0.64874 0.36746 0.0
C93 C 0.51649 0.68172 0.26177 0.0
C94 C 0.68904 0.525 0.2532 0.0
C95 C 0.41816 0.55032 0.30104 0.0
C96 C 0.5478 0.52222 0.41994 0.0
C97 C 0.56036 0.41077 0.29248 0.0
O98 O 0.6035 0.66446 0.36363 0.0
O99 O 0.54418 0.64079 0.24186 0.0
O100 O 0.69238 0.51163 0.29066 0.0
O101 O 0.43543 0.57129 0.33531 0.0
O102 O 0.58901 0.4946 0.40051 0.0
O103 O 0.54538 0.4496 0.26571 0.0
O104 O 0.5216 0.56844 0.40556 0.0
O105 O 0.45271 0.54544 0.2702 0.0
O106 O 0.5938 0.42332 0.32318 0.0
O107 O 0.50484 0.67668 0.29935 0.0
O108 O 0.67716 0.5936 0.36321 0.0
O109 O 0.64032 0.54125 0.23584 0.0
Sc110 Sc 0.87119 0.5133 0.83651 0.0
Sc111 Sc 0.96736 0.52561 0.75106 0.0
Sc112 Sc 0.98312 0.6277 0.8332 0.0
O113 O 0.94025 0.55578 0.80676 0.0
C114 C 0.84174 0.65508 0.84934 0.0
C115 C 0.82631 0.50367 0.7442 0.0
C116 C 0.98139 0.66702 0.73912 0.0
C117 C 0.94772 0.40274 0.80156 0.0
C118 C 0.95797 0.54512 0.91126 0.0
C119 C 0.09302 0.55385 0.79558 0.0
O120 O 0.82607 0.59933 0.84745 0.0
O121 O 0.87725 0.51338 0.72756 0.0
O122 O 0.98761 0.67693 0.77698 0.0
O123 O 0.91029 0.42407 0.82741 0.0
O124 O 0.98583 0.58737 0.89283 0.0
O125 O 0.06001 0.53144 0.7678 0.0
O126 O 0.9155 0.51515 0.89469 0.0
O127 O 0.97002 0.43366 0.77251 0.0
O128 O 0.07286 0.58942 0.82301 0.0
O129 O 0.81795 0.50304 0.7824 0.0
O130 O 0.89678 0.67228 0.84515 0.0
O131 O 0.97043 0.61499 0.72412 0.0
Sc132 Sc 0.86511 0.98254 0.33827 0.0
Sc133 Sc 0.94814 0.94565 0.25133 0.0
Sc134 Sc 0.98108 0.87445 0.3443 0.0
O135 O 0.93108 0.93328 0.31132 0.0
C136 C 0.95221 0.96864 0.415 0.0
C137 C 0.9333 0.07966 0.28616 0.0
C138 C 0.07828 0.95102 0.29507 0.0
C139 C 0.81029 0.96283 0.24826 0.0
C140 C 0.84085 0.84312 0.36303 0.0
C141 C 0.98627 0.80891 0.25744 0.0
O142 O 0.90756 0.9925 0.39691 0.0
O143 O 0.93676 0.04178 0.25704 0.0
O144 O 0.06437 0.92098 0.32707 0.0
O145 O 0.81034 0.9852 0.2839 0.0
O146 O 0.89713 0.82811 0.36112 0.0
O147 O 0.96428 0.85187 0.23654 0.0
O148 O 0.82186 0.89735 0.35611 0.0
O149 O 0.85546 0.93556 0.23295 0.0
O150 O 0.99327 0.81205 0.29558 0.0
O151 O 0.91051 0.06615 0.3207 0.0
O152 O 0.9824 0.92601 0.39923 0.0
O153 O 0.04176 0.95933 0.26553 0.0
Sc154 Sc 0.50807 0.86409 0.83688 0.0
Sc155 Sc 0.52174 0.9655 0.75454 0.0
Sc156 Sc 0.61673 0.98115 0.84003 0.0
O157 O 0.54892 0.93665 0.81037 0.0
C158 C 0.53098 0.94617 0.91487 0.0
C159 C 0.39643 0.93723 0.79913 0.0
C160 C 0.53945 0.08901 0.80487 0.0
C161 C 0.51 0.82303 0.74373 0.0
C162 C 0.65095 0.84119 0.85217 0.0
C163 C 0.66111 0.99051 0.74728 0.0
O164 O 0.50039 0.90698 0.89541 0.0
O165 O 0.42868 0.96469 0.77295 0.0
O166 O 0.57147 0.0679 0.83386 0.0
O167 O 0.50929 0.81236 0.78168 0.0
O168 O 0.66649 0.89667 0.84741 0.0
O169 O 0.61275 0.9713 0.7307 0.0
O170 O 0.59557 0.82401 0.85143 0.0
O171 O 0.51372 0.87591 0.72864 0.0
O172 O 0.66686 -0.00153 0.78533 0.0
O173 O 0.41727 0.89757 0.82369 0.0
O174 O 0.57597 0.97346 0.89923 0.0
O175 O 0.52375 0.05801 0.77399 0.0
C176 C 0.32678 0.48341 0.3064 0.0
C177 C 0.35395 0.53789 0.29335 0.0
C178 C 0.27233 0.46281 0.28854 0.0
C179 C 0.24497 0.49574 0.25672 0.0
H180 H 0.34968 0.45479 0.3284 0.0
H181 H 0.25376 0.41943 0.29788 0.0
S182 S 0.29634 0.64442 0.21527 0.0
N183 N 0.34762 0.62621 0.24972 0.0
N184 N 0.2464 0.58863 0.21617 0.0
C185 C 0.27029 0.55215 0.24554 0.0
C186 C 0.32463 0.57292 0.26386 0.0
C187 C 0.91667 0.29503 0.79504 0.0
C188 C 0.96276 0.33777 0.80212 0.0
C189 C 0.93104 0.23627 0.78169 0.0
C190 C 0.99176 0.21874 0.77571 0.0
H191 H 0.86943 0.3087 0.79599 0.0
H192 H 0.89446 0.20612 0.77278 0.0
S193 S 0.12857 0.31055 0.79682 0.0
N194 N 0.07116 0.35617 0.8076 0.0
N195 N 0.09794 0.24558 0.78226 0.0
C196 C 0.03808 0.25906 0.7864 0.0
C197 C 0.02355 0.3188 0.79978 0.0
C198 C 0.20304 0.04653 0.25001 0.0
C199 C 0.25571 0.01994 0.26577 0.0
C200 C 0.1459 0.02672 0.26236 0.0
C201 C 0.13913 0.97872 0.29043 0.0
H202 H 0.206 0.08003 0.22588 0.0
H203 H 0.10675 0.04692 0.24778 0.0
S204 S 0.26385 0.90091 0.34531 0.0
N205 N 0.29871 0.949 0.31452 0.0
N206 N 0.19037 0.91082 0.3377 0.0
C207 C 0.19155 0.95566 0.30931 0.0
C208 C 0.25019 0.97645 0.29687 0.0
C209 C 0.44495 0.22345 0.77702 0.0
C210 C 0.48692 0.27106 0.77951 0.0
C211 C 0.46064 0.16512 0.78981 0.0
C212 C 0.51888 0.15252 0.80522 0.0
H213 H 0.40179 0.23013 0.76182 0.0
H214 H 0.42883 0.12856 0.78421 0.0
S215 S 0.64258 0.26365 0.82174 0.0
N216 N 0.58671 0.30402 0.80186 0.0
N217 N 0.61645 0.19353 0.82603 0.0
C218 C 0.5592 0.20095 0.81151 0.0
C219 C 0.5431 0.26065 0.79847 0.0
C220 C 0.75053 0.46361 0.20513 0.0
C221 C 0.74422 0.51625 0.22906 0.0
C222 C 0.80796 0.44442 0.19166 0.0
C223 C 0.8604 0.47734 0.2021 0.0
H224 H 0.71157 0.43476 0.19942 0.0
H225 H 0.81171 0.40154 0.17567 0.0
S226 S 0.86546 0.62414 0.25806 0.0
N227 N 0.79309 0.60455 0.25845 0.0
N228 N 0.9008 0.57008 0.23247 0.0
C229 C 0.85348 0.53303 0.22289 0.0
C230 C 0.79535 0.55204 0.23669 0.0
C231 C 0.96254 0.82503 0.70152 0.0
C232 C 0.02101 0.83866 0.6868 0.0
C233 C 0.94725 0.76643 0.7141 0.0
C234 C 0.98989 0.71939 0.71225 0.0
H235 H 0.93004 0.86106 0.70665 0.0
H236 H 0.90365 0.75909 0.7286 0.0
S237 S 0.14713 0.72949 0.67286 0.0
N238 N 0.12003 0.79913 0.66792 0.0
N239 N 0.09118 0.68826 0.69189 0.0
C240 C 0.04675 0.73088 0.69444 0.0
C241 C 0.06236 0.79084 0.68147 0.0
C242 C 0.65098 0.95822 0.20968 0.0
C243 C 0.64299 0.01819 0.19551 0.0
C244 C 0.70757 0.93782 0.22326 0.0
C245 C 0.75778 0.97669 0.22274 0.0
H246 H 0.61227 0.92817 0.21289 0.0
H247 H 0.71101 0.89316 0.23696 0.0
S248 S 0.76276 0.13498 0.1846 0.0
N249 N 0.69132 0.114 0.17835 0.0
N250 N 0.79816 0.07544 0.20396 0.0
C251 C 0.75172 0.03486 0.20564 0.0
C252 C 0.69409 0.05567 0.19173 0.0
C253 C 0.53044 0.66636 0.7033 0.0
C254 C 0.47156 0.6523 0.68953 0.0
C255 C 0.54492 0.72461 0.71703 0.0
C256 C 0.50125 0.77081 0.71683 0.0
H257 H 0.56409 0.63082 0.70668 0.0
H258 H 0.58897 0.73233 0.7308 0.0
S259 S 0.34291 0.75953 0.67973 0.0
N260 N 0.37109 0.69065 0.67309 0.0
N261 N 0.39882 0.80102 0.69855 0.0
C262 C 0.44408 0.75913 0.6996 0.0
C263 C 0.4291 0.69949 0.68582 0.0
C264 C 0.73121 0.52936 0.70863 0.0
C265 C 0.77491 0.48589 0.71889 0.0
C266 C 0.67349 0.5113 0.69581 0.0
C267 C 0.65795 0.44936 0.69321 0.0
H268 H 0.74011 0.57723 0.71355 0.0
H269 H 0.63927 0.54591 0.69101 0.0
S270 S 0.75892 0.31857 0.71352 0.0
N271 N 0.80142 0.37894 0.72267 0.0
N272 N 0.69223 0.34486 0.69866 0.0
C273 C 0.70292 0.40562 0.70013 0.0
C274 C 0.76175 0.42404 0.71319 0.0
C275 C 0.00712 0.67434 0.18647 0.0
C276 C 0.0589 0.64664 0.20323 0.0
C277 C 0.98439 0.72873 0.20296 0.0
C278 C 0.01268 0.75583 0.23679 0.0
H279 H 0.98196 0.65188 0.16245 0.0
H280 H 0.9429 0.74774 0.19068 0.0
S281 S 0.15478 0.70482 0.28717 0.0
N282 N 0.14077 0.65265 0.25233 0.0
N283 N 0.0997 0.75516 0.28265 0.0
C284 C 0.06697 0.73046 0.25163 0.0
C285 C 0.08965 0.67561 0.23501 0.0
C286 C 0.79123 0.08399 0.70919 0.0
C287 C 0.83037 0.03932 0.69381 0.0
C288 C 0.73345 0.06829 0.72345 0.0
C289 C 0.71304 0.00779 0.72202 0.0
H290 H 0.80721 0.13013 0.71349 0.0
H291 H 0.70611 0.1029 0.73813 0.0
S292 S 0.79555 0.87608 0.67941 0.0
N293 N 0.84305 0.93372 0.67417 0.0
N294 N 0.73355 0.90444 0.70042 0.0
C295 C 0.74966 0.96384 0.70348 0.0
C296 C 0.80881 0.97963 0.6895 0.0
C297 C 0.49491 0.81592 0.19033 0.0
C298 C 0.44133 0.84201 0.20571 0.0
C299 C 0.51828 0.76203 0.20717 0.0
C300 C 0.48945 0.73431 0.24056 0.0
H301 H 0.52081 0.83931 0.16707 0.0
H302 H 0.56075 0.74414 0.19568 0.0
S303 S 0.34414 0.78268 0.28836 0.0
N304 N 0.35719 0.8339 0.25276 0.0
N305 N 0.40131 0.73449 0.28564 0.0
C306 C 0.43396 0.75874 0.25446 0.0
C307 C 0.40983 0.81223 0.2367 0.0
C308 C 0.22831 0.45918 0.76878 0.0
C309 C 0.27599 0.50089 0.77093 0.0
C310 C 0.16995 0.47592 0.78045 0.0
C311 C 0.15708 0.53483 0.79476 0.0
H312 H 0.23519 0.41496 0.75496 0.0
H313 H 0.13364 0.44394 0.77507 0.0
S314 S 0.26822 0.65927 0.80868 0.0
N315 N 0.30874 0.60215 0.79051 0.0
N316 N 0.19797 0.63365 0.81314 0.0
C317 C 0.20541 0.5756 0.80005 0.0
C318 C 0.26527 0.55855 0.78783 0.0
C319 C 0.02786 0.19993 0.23456 0.0
C320 C 0.01085 0.25379 0.25413 0.0
C321 C 0.00369 0.14434 0.2464 0.0
C322 C 0.96121 0.13986 0.27842 0.0
H323 H 0.05788 0.20112 0.20839 0.0
H324 H 0.0172 0.10469 0.22912 0.0
S325 S 0.90655 0.26753 0.34228 0.0
N326 N 0.95279 0.2998 0.30904 0.0
N327 N 0.90735 0.19402 0.33195 0.0
C328 C 0.94689 0.19294 0.30024 0.0
C329 C 0.97176 0.25024 0.28795 0.0
C330 C 0.29249 0.9062 0.77993 0.0
C331 C 0.331 0.94959 0.79758 0.0
C332 C 0.23513 0.92292 0.7653 0.0
C333 C 0.21436 0.98318 0.76851 0.0
H334 H 0.30877 0.86053 0.77419 0.0
H335 H 0.20838 0.88939 0.74908 0.0
S336 S 0.29532 0.11166 0.81663 0.0
N337 N 0.34273 0.05377 0.82069 0.0
N338 N 0.23404 0.08478 0.79385 0.0
C339 C 0.25032 0.02569 0.78907 0.0
C340 C 0.30907 0.00892 0.80344 0.0
C341 C 0.56888 0.29685 0.29501 0.0
C342 C 0.53455 0.34932 0.28697 0.0
C343 C 0.54849 0.23952 0.28186 0.0
C344 C 0.49333 0.23349 0.2606 0.0
H345 H 0.61326 0.30057 0.30899 0.0
H346 H 0.57782 0.20048 0.28587 0.0
S347 S 0.38213 0.35479 0.23839 0.0
N348 N 0.43863 0.38983 0.26165 0.0
N349 N 0.40196 0.28255 0.23619 0.0
C350 C 0.45674 0.28463 0.25524 0.0
C351 C 0.4769 0.34251 0.26876 0.0
C352 C 0.26386 0.30555 0.11911 0.0
C353 C 0.20132 0.29186 0.11689 0.0
C354 C 0.30812 0.25968 0.12058 0.0
C355 C 0.29218 0.19771 0.11987 0.0
H356 H 0.27904 0.35223 0.12137 0.0
H357 H 0.35513 0.2732 0.12392 0.0
S358 S 0.13529 0.13679 0.10962 0.0
N359 N 0.12632 0.21118 0.11064 0.0
N360 N 0.20908 0.12526 0.11318 0.0
C361 C 0.23002 0.18328 0.11536 0.0
C362 C 0.18486 0.23011 0.1139 0.0
C363 C 0.25413 0.18906 0.62747 0.0
C364 C 0.19426 0.20306 0.63934 0.0
C365 C 0.3002 0.23341 0.62758 0.0
C366 C 0.28856 0.29384 0.63954 0.0
H367 H 0.26579 0.14326 0.61829 0.0
H368 H 0.34553 0.21994 0.61854 0.0
S369 S 0.14037 0.35373 0.67596 0.0
N370 N 0.12663 0.28191 0.66492 0.0
N371 N 0.21263 0.36461 0.665 0.0
C372 C 0.22882 0.30854 0.65139 0.0
C373 C 0.18196 0.26344 0.65134 0.0
C374 C 0.81115 0.73241 0.36421 0.0
C375 C 0.79499 0.79384 0.37004 0.0
C376 C 0.76763 0.68565 0.36546 0.0
C377 C 0.70573 0.69791 0.37271 0.0
H378 H 0.85753 0.72027 0.35689 0.0
H379 H 0.78252 0.63977 0.35896 0.0
S380 S 0.64046 0.85015 0.39518 0.0
N381 N 0.71318 0.86351 0.3871 0.0
N382 N 0.63174 0.77614 0.38966 0.0
C383 C 0.68947 0.75881 0.3808 0.0
C384 C 0.73384 0.80647 0.3794 0.0
C385 C 0.7605 0.80858 0.84687 0.0
C386 C 0.6996 0.79386 0.85575 0.0
C387 C 0.80618 0.76396 0.84611 0.0
C388 C 0.79329 0.70236 0.85415 0.0
H389 H 0.77297 0.85478 0.83922 0.0
H390 H 0.85174 0.77787 0.83793 0.0
S391 S 0.64231 0.64018 0.88297 0.0
N392 N 0.6299 0.71327 0.87561 0.0
N393 N 0.71531 0.62988 0.87415 0.0
C394 C 0.733 0.6873 0.86458 0.0
C395 C 0.68644 0.73277 0.86539 0.0
C396 C 0.95387 0.47461 0.97108 0.0
C397 C 0.97757 0.52761 0.95299 0.0
C398 C 0.97359 0.45484 0.00937 0.0
C399 C 0.01803 0.48703 0.03129 0.0
H400 H 0.92029 0.44736 0.95537 0.0
H401 H 0.95427 0.4134 0.02156 0.0
S402 S 0.09196 0.63103 -0.00097 0.0
N403 N 0.04613 0.6136 0.96104 0.0
N404 N 0.08316 0.57644 0.03295 0.0
C405 C 0.04138 0.5408 0.01401 0.0
C406 C 0.02117 0.56106 0.97497 0.0
C407 C 0.03711 0.98026 0.51528 0.0
C408 C 0.01062 0.03082 0.53456 0.0
C409 C 0.01776 0.96087 0.4769 0.0
C410 C 0.97098 0.99108 0.45582 0.0
H411 H 0.07274 0.95458 0.53011 0.0
H412 H 0.03971 0.92136 0.46387 0.0
S413 S 0.88812 0.12793 0.4918 0.0
N414 N 0.93607 0.11218 0.52894 0.0
N415 N 0.89979 0.07566 0.45664 0.0
C416 C 0.94452 0.04236 0.47436 0.0
C417 C 0.9643 0.06222 0.51366 0.0
C418 C 0.53788 0.01498 0.97538 0.0
C419 C 0.51188 0.96356 0.95671 0.0
C420 C 0.51895 0.03474 0.01383 0.0
C421 C 0.47313 0.00403 0.03547 0.0
H422 H 0.57272 0.04104 0.95999 0.0
H423 H 0.54027 0.07491 0.02643 0.0
S424 S 0.39237 0.86468 0.00125 0.0
N425 N 0.43924 0.88082 0.96359 0.0
N426 N 0.40365 0.91783 0.03587 0.0
C427 C 0.44732 0.95184 0.01751 0.0
C428 C 0.46666 0.93168 0.97822 0.0
C429 C 0.47903 0.52919 0.48028 0.0
C430 C 0.52738 0.49959 0.46039 0.0
C431 C 0.4577 0.50958 0.51812 0.0
C432 C 0.48366 0.45942 0.53812 0.0
H433 H 0.4571 0.56824 0.46664 0.0
H434 H 0.42076 0.53473 0.5319 0.0
S435 S 0.61071 0.36469 0.49898 0.0
N436 N 0.60011 0.41648 0.46335 0.0
N437 N 0.56013 0.37954 0.5347 0.0
C438 C 0.53172 0.42872 0.51849 0.0
C439 C 0.55352 0.4488 0.47969 0.0
loop_
_geom_bond_atom_site_label_1
_geom_bond_atom_site_label_2
_geom_bond_distance
_geom_bond_site_symmetry_2
_ccdc_geom_bond_type
Sc0 O3 2.025 . S
Sc0 O10 2.105 . S
Sc0 O13 2.105 . S
Sc0 O16 2.105 . S
Sc0 O19 2.105 . S
Sc1 O3 2.025 . S
Sc1 O11 2.105 . S
Sc1 O15 2.105 . S
Sc1 O17 2.105 . S
Sc1 O21 2.105 1_455 S
Sc2 O3 2.025 . S
Sc2 O12 2.105 1_455 S
Sc2 O14 2.105 . S
Sc2 O18 2.105 . S
Sc2 O20 2.105 1_455 S
O3 Sc0 2.025 . S
O3 Sc1 2.025 . S
O3 Sc2 2.025 . S
C4 O10 1.268 . S
C4 O20 1.267 1_455 S
C5 O11 1.268 . S
C5 O19 1.268 . S
C6 O12 1.268 . S
C6 O21 1.268 . S
C7 O13 1.268 . S
C7 O17 1.268 . S
C8 O14 1.268 . S
C8 O16 1.268 . S
C9 O15 1.268 . S
C9 O18 1.268 . S
O10 Sc0 2.105 . S
O10 C4 1.268 . S
O11 Sc1 2.105 . S
O11 C5 1.268 . S
O12 Sc2 2.105 1_655 S
O12 C6 1.268 . S
O13 Sc0 2.105 . S
O13 C7 1.268 . S
O14 Sc2 2.105 . S
O14 C8 1.268 . S
O15 Sc1 2.105 . S
O15 C9 1.268 . S
O16 Sc0 2.105 . S
O16 C8 1.268 . S
O17 Sc1 2.105 . S
O17 C7 1.268 . S
O18 Sc2 2.105 . S
O18 C9 1.268 . S
O19 Sc0 2.105 . S
O19 C5 1.268 . S
O20 Sc2 2.105 1_655 S
O20 C4 1.267 1_655 S
O21 Sc1 2.105 1_655 S
O21 C6 1.268 . S
Sc22 O25 2.025 . S
Sc22 O32 2.105 . S
Sc22 O35 2.105 1_545 S
Sc22 O38 2.105 1_545 S
Sc22 O41 2.105 . S
Sc23 O25 2.025 . S
Sc23 O33 2.105 . S
Sc23 O37 2.105 1_455 S
Sc23 O39 2.105 1_545 S
Sc23 O43 2.105 . S
Sc24 O25 2.025 . S
Sc24 O34 2.105 . S
Sc24 O36 2.105 1_455 S
Sc24 O40 2.105 1_455 S
Sc24 O42 2.105 . S
O25 Sc22 2.025 . S
O25 Sc23 2.025 . S
O25 Sc24 2.025 . S
C26 O32 1.268 . S
C26 O42 1.268 . S
C27 O33 1.268 . S
C27 O41 1.268 . S
C28 O34 1.268 . S
C28 O43 1.268 . S
C29 O35 1.268 . S
C29 O39 1.268 . S
C30 O36 1.267 1_455 S
C30 O38 1.267 1_545 S
C31 O37 1.268 . S
C31 O40 1.268 . S
O32 Sc22 2.105 . S
O32 C26 1.268 . S
O33 Sc23 2.105 . S
O33 C27 1.268 . S
O34 Sc24 2.105 . S
O34 C28 1.268 . S
O35 Sc22 2.105 1_565 S
O35 C29 1.268 . S
O36 Sc24 2.105 1_655 S
O36 C30 1.267 1_655 S
O37 Sc23 2.105 1_655 S
O37 C31 1.268 . S
O38 Sc22 2.105 1_565 S
O38 C30 1.267 1_565 S
O39 Sc23 2.105 1_565 S
O39 C29 1.268 . S
O40 Sc24 2.105 1_655 S
O40 C31 1.268 . S
O41 Sc22 2.105 . S
O41 C27 1.268 . S
O42 Sc24 2.105 . S
O42 C26 1.268 . S
O43 Sc23 2.105 . S
O43 C28 1.268 . S
Sc44 O47 2.025 . S
Sc44 O54 2.105 . S
Sc44 O57 2.105 . S
Sc44 O60 2.105 . S
Sc44 O63 2.105 . S
Sc45 O47 2.025 . S
Sc45 O55 2.105 . S
Sc45 O59 2.105 1_545 S
Sc45 O61 2.105 . S
Sc45 O65 2.105 . S
Sc46 O47 2.025 . S
Sc46 O56 2.105 . S
Sc46 O58 2.105 1_545 S
Sc46 O62 2.105 1_545 S
Sc46 O64 2.105 . S
O47 Sc44 2.025 . S
O47 Sc45 2.025 . S
O47 Sc46 2.025 . S
C48 O54 1.268 . S
C48 O64 1.268 . S
C49 O55 1.268 . S
C49 O63 1.268 . S
C50 O56 1.268 . S
C50 O65 1.268 . S
C51 O57 1.268 . S
C51 O61 1.268 . S
C52 O58 1.267 1_545 S
C52 O60 1.268 . S
C53 O59 1.268 . S
C53 O62 1.268 . S
O54 Sc44 2.105 . S
O54 C48 1.268 . S
O55 Sc45 2.105 . S
O55 C49 1.268 . S
O56 Sc46 2.105 . S
O56 C50 1.268 . S
O57 Sc44 2.105 . S
O57 C51 1.268 . S
O58 Sc46 2.105 1_565 S
O58 C52 1.267 1_565 S
O59 Sc45 2.105 1_565 S
O59 C53 1.268 . S
O60 Sc44 2.105 . S
O60 C52 1.268 . S
O61 Sc45 2.105 . S
O61 C51 1.268 . S
O62 Sc46 2.105 1_565 S
O62 C53 1.268 . S
O63 Sc44 2.105 . S
O63 C49 1.268 . S
O64 Sc46 2.105 . S
O64 C48 1.268 . S
O65 Sc45 2.105 . S
O65 C50 1.268 . S
Sc66 O69 2.025 . S
Sc66 O76 2.105 . S
Sc66 O79 2.105 . S
Sc66 O82 2.105 . S
Sc66 O85 2.105 . S
Sc67 O69 2.025 . S
Sc67 O77 2.105 . S
Sc67 O81 2.105 . S
Sc67 O83 2.105 . S
Sc67 O87 2.105 . S
Sc68 O69 2.025 . S
Sc68 O78 2.105 . S
Sc68 O80 2.105 . S
Sc68 O84 2.105 . S
Sc68 O86 2.105 . S
O69 Sc66 2.025 . S
O69 Sc67 2.025 . S
O69 Sc68 2.025 . S
C70 O76 1.268 . S
C70 O86 1.268 . S
C71 O77 1.268 . S
C71 O85 1.268 . S
C72 O78 1.268 . S
C72 O87 1.268 . S
C73 O79 1.268 . S
C73 O83 1.268 . S
C74 O80 1.268 . S
C74 O82 1.268 . S
C75 O81 1.268 . S
C75 O84 1.268 . S
O76 Sc66 2.105 . S
O76 C70 1.268 . S
O77 Sc67 2.105 . S
O77 C71 1.268 . S
O78 Sc68 2.105 . S
O78 C72 1.268 . S
O79 Sc66 2.105 . S
O79 C73 1.268 . S
O80 Sc68 2.105 . S
O80 C74 1.268 . S
O81 Sc67 2.105 . S
O81 C75 1.268 . S
O82 Sc66 2.105 . S
O82 C74 1.268 . S
O83 Sc67 2.105 . S
O83 C73 1.268 . S
O84 Sc68 2.105 . S
O84 C75 1.268 . S
O85 Sc66 2.105 . S
O85 C71 1.268 . S
O86 Sc68 2.105 . S
O86 C70 1.268 . S
O87 Sc67 2.105 . S
O87 C72 1.268 . S
Sc88 O91 2.025 . S
Sc88 O98 2.105 . S
Sc88 O101 2.105 . S
Sc88 O104 2.105 . S
Sc88 O107 2.105 . S
Sc89 O91 2.025 . S
Sc89 O99 2.105 . S
Sc89 O103 2.105 . S
Sc89 O105 2.105 . S
Sc89 O109 2.105 . S
Sc90 O91 2.025 . S
Sc90 O100 2.105 . S
Sc90 O102 2.105 . S
Sc90 O106 2.105 . S
Sc90 O108 2.105 . S
O91 Sc88 2.025 . S
O91 Sc89 2.025 . S
O91 Sc90 2.025 . S
C92 O98 1.268 . S
C92 O108 1.268 . S
C93 O99 1.268 . S
C93 O107 1.268 . S
C94 O100 1.268 . S
C94 O109 1.268 . S
C95 O101 1.268 . S
C95 O105 1.268 . S
C96 O102 1.268 . S
C96 O104 1.268 . S
C97 O103 1.268 . S
C97 O106 1.268 . S
O98 Sc88 2.105 . S
O98 C92 1.268 . S
O99 Sc89 2.105 . S
O99 C93 1.268 . S
O100 Sc90 2.105 . S
O100 C94 1.268 . S
O101 Sc88 2.105 . S
O101 C95 1.268 . S
O102 Sc90 2.105 . S
O102 C96 1.268 . S
O103 Sc89 2.105 . S
O103 C97 1.268 . S
O104 Sc88 2.105 . S
O104 C96 1.268 . S
O105 Sc89 2.105 . S
O105 C95 1.268 . S
O106 Sc90 2.105 . S
O106 C97 1.268 . S
O107 Sc88 2.105 . S
O107 C93 1.268 . S
O108 Sc90 2.105 . S
O108 C92 1.268 . S
O109 Sc89 2.105 . S
O109 C94 1.268 . S
Sc110 O113 2.025 . S
Sc110 O120 2.105 . S
Sc110 O123 2.105 . S
Sc110 O126 2.105 . S
Sc110 O129 2.105 . S
Sc111 O113 2.025 . S
Sc111 O121 2.105 . S
Sc111 O125 2.105 1_655 S
Sc111 O127 2.105 . S
Sc111 O131 2.105 . S
Sc112 O113 2.025 . S
Sc112 O122 2.105 . S
Sc112 O124 2.105 1_655 S
Sc112 O128 2.105 1_655 S
Sc112 O130 2.105 . S
O113 Sc110 2.025 . S
O113 Sc111 2.025 . S
O113 Sc112 2.025 . S
C114 O120 1.268 . S
C114 O130 1.268 . S
C115 O121 1.268 . S
C115 O129 1.268 . S
C116 O122 1.268 . S
C116 O131 1.268 . S
C117 O123 1.268 . S
C117 O127 1.268 . S
C118 O124 1.267 1_655 S
C118 O126 1.268 . S
C119 O125 1.268 . S
C119 O128 1.268 . S
O120 Sc110 2.105 . S
O120 C114 1.268 . S
O121 Sc111 2.105 . S
O121 C115 1.268 . S
O122 Sc112 2.105 . S
O122 C116 1.268 . S
O123 Sc110 2.105 . S
O123 C117 1.268 . S
O124 Sc112 2.105 1_455 S
O124 C118 1.267 1_455 S
O125 Sc111 2.105 1_455 S
O125 C119 1.268 . S
O126 Sc110 2.105 . S
O126 C118 1.268 . S
O127 Sc111 2.105 . S
O127 C117 1.268 . S
O128 Sc112 2.105 1_455 S
O128 C119 1.268 . S
O129 Sc110 2.105 . S
O129 C115 1.268 . S
O130 Sc112 2.105 . S
O130 C114 1.268 . S
O131 Sc111 2.105 . S
O131 C116 1.268 . S
Sc132 O135 2.025 . S
Sc132 O142 2.105 1_565 S
Sc132 O145 2.105 . S
Sc132 O148 2.105 . S
Sc132 O151 2.105 1_565 S
Sc133 O135 2.025 . S
Sc133 O143 2.105 1_565 S
Sc133 O147 2.105 . S
Sc133 O149 2.105 . S
Sc133 O153 2.105 1_655 S
Sc134 O135 2.025 . S
Sc134 O144 2.105 1_655 S
Sc134 O146 2.105 . S
Sc134 O150 2.105 . S
Sc134 O152 2.105 1_655 S
O135 Sc132 2.025 . S
O135 Sc133 2.025 . S
O135 Sc134 2.025 . S
C136 O142 1.267 1_565 S
C136 O152 1.267 1_655 S
C137 O143 1.268 . S
C137 O151 1.268 . S
C138 O144 1.268 . S
C138 O153 1.268 . S
C139 O145 1.268 . S
C139 O149 1.268 . S
C140 O146 1.268 . S
C140 O148 1.268 . S
C141 O147 1.268 . S
C141 O150 1.268 . S
O142 Sc132 2.105 1_545 S
O142 C136 1.267 1_545 S
O143 Sc133 2.105 1_545 S
O143 C137 1.268 . S
O144 Sc134 2.105 1_455 S
O144 C138 1.268 . S
O145 Sc132 2.105 . S
O145 C139 1.268 . S
O146 Sc134 2.105 . S
O146 C140 1.268 . S
O147 Sc133 2.105 . S
O147 C141 1.268 . S
O148 Sc132 2.105 . S
O148 C140 1.268 . S
O149 Sc133 2.105 . S
O149 C139 1.268 . S
O150 Sc134 2.105 . S
O150 C141 1.268 . S
O151 Sc132 2.105 1_545 S
O151 C137 1.268 . S
O152 Sc134 2.105 1_455 S
O152 C136 1.267 1_455 S
O153 Sc133 2.105 1_455 S
O153 C138 1.268 . S
Sc154 O157 2.025 . S
Sc154 O164 2.105 . S
Sc154 O167 2.105 . S
Sc154 O170 2.105 . S
Sc154 O173 2.105 . S
Sc155 O157 2.025 . S
Sc155 O165 2.105 . S
Sc155 O169 2.105 . S
Sc155 O171 2.105 . S
Sc155 O175 2.105 1_565 S
Sc156 O157 2.025 . S
Sc156 O166 2.105 1_565 S
Sc156 O168 2.105 . S
Sc156 O172 2.105 . S
Sc156 O174 2.105 1_565 S
O157 Sc154 2.025 . S
O157 Sc155 2.025 . S
O157 Sc156 2.025 . S
C158 O164 1.268 . S
C158 O174 1.267 1_565 S
C159 O165 1.268 . S
C159 O173 1.268 . S
C160 O166 1.268 . S
C160 O175 1.268 . S
C161 O167 1.268 . S
C161 O171 1.268 . S
C162 O168 1.268 . S
C162 O170 1.268 . S
C163 O169 1.268 . S
C163 O172 1.268 . S
O164 Sc154 2.105 . S
O164 C158 1.268 . S
O165 Sc155 2.105 . S
O165 C159 1.268 . S
O166 Sc156 2.105 1_545 S
O166 C160 1.268 . S
O167 Sc154 2.105 . S
O167 C161 1.268 . S
O168 Sc156 2.105 . S
O168 C162 1.268 . S
O169 Sc155 2.105 . S
O169 C163 1.268 . S
O170 Sc154 2.105 . S
O170 C162 1.268 . S
O171 Sc155 2.105 . S
O171 C161 1.268 . S
O172 Sc156 2.105 . S
O172 C163 1.268 . S
O173 Sc154 2.105 . S
O173 C159 1.268 . S
O174 Sc156 2.105 1_545 S
O174 C158 1.267 1_545 S
O175 Sc155 2.105 1_545 S
O175 C160 1.268 . S
C176 C177 1.369 . S
C176 C178 1.419 . S
C176 H180 0.930 . S
C177 C176 1.369 . S
C177 C186 1.429 . S
C178 C176 1.419 . S
C178 C179 1.363 . S
C178 H181 0.929 . S
C179 C178 1.363 . S
C179 C185 1.428 . S
H180 C176 0.930 . S
H181 C178 0.929 . S
S182 N183 1.613 . S
S182 N184 1.610 . S
N183 S182 1.613 . S
N183 C186 1.350 . S
N184 S182 1.610 . S
N184 C185 1.351 . S
C185 C179 1.428 . S
C185 N184 1.351 . S
C185 C186 1.434 . S
C186 C177 1.429 . S
C186 N183 1.350 . S
C186 C185 1.434 . S
C187 C188 1.369 . S
C187 C189 1.419 . S
C187 H191 0.930 . S
C188 C187 1.369 . S
C188 C197 1.429 1_655 S
C189 C187 1.419 . S
C189 C190 1.363 1_655 S
C189 H192 0.929 . S
C190 C189 1.363 1_455 S
C190 C196 1.428 . S
H191 C187 0.930 . S
H192 C189 0.929 . S
S193 N194 1.613 . S
S193 N195 1.610 . S
N194 S193 1.613 . S
N194 C197 1.350 . S
N195 S193 1.610 . S
N195 C196 1.351 . S
C196 C190 1.428 . S
C196 N195 1.351 . S
C196 C197 1.434 . S
C197 C188 1.429 1_455 S
C197 N194 1.350 . S
C197 C196 1.434 . S
C198 C199 1.369 . S
C198 C200 1.419 . S
C198 H202 0.930 . S
C199 C198 1.369 . S
C199 C208 1.429 1_545 S
C200 C198 1.419 . S
C200 C201 1.363 1_545 S
C200 H203 0.929 . S
C201 C200 1.363 1_565 S
C201 C207 1.428 . S
H202 C198 0.930 . S
H203 C200 0.929 . S
S204 N205 1.613 . S
S204 N206 1.610 . S
N205 S204 1.613 . S
N205 C208 1.350 . S
N206 S204 1.610 . S
N206 C207 1.351 . S
C207 C201 1.428 . S
C207 N206 1.351 . S
C207 C208 1.434 . S
C208 C199 1.429 1_565 S
C208 N205 1.350 . S
C208 C207 1.434 . S
C209 C210 1.369 . S
C209 C211 1.419 . S
C209 H213 0.930 . S
C210 C209 1.369 . S
C210 C219 1.429 . S
C211 C209 1.419 . S
C211 C212 1.363 . S
C211 H214 0.929 . S
C212 C211 1.363 . S
C212 C218 1.428 . S
H213 C209 0.930 . S
H214 C211 0.929 . S
S215 N216 1.613 . S
S215 N217 1.610 . S
N216 S215 1.613 . S
N216 C219 1.350 . S
N217 S215 1.610 . S
N217 C218 1.351 . S
C218 C212 1.428 . S
C218 N217 1.351 . S
C218 C219 1.434 . S
C219 C210 1.429 . S
C219 N216 1.350 . S
C219 C218 1.434 . S
C220 C221 1.369 . S
C220 C222 1.419 . S
C220 H224 0.930 . S
C221 C220 1.369 . S
C221 C230 1.429 . S
C222 C220 1.419 . S
C222 C223 1.363 . S
C222 H225 0.929 . S
C223 C222 1.363 . S
C223 C229 1.428 . S
H224 C220 0.930 . S
H225 C222 0.929 . S
S226 N227 1.613 . S
S226 N228 1.610 . S
N227 S226 1.613 . S
N227 C230 1.350 . S
N228 S226 1.610 . S
N228 C229 1.351 . S
C229 C223 1.428 . S
C229 N228 1.351 . S
C229 C230 1.434 . S
C230 C221 1.429 . S
C230 N227 1.350 . S
C230 C229 1.434 . S
C231 C232 1.369 1_655 S
C231 C233 1.419 . S
C231 H235 0.930 . S
C232 C231 1.369 1_455 S
C232 C241 1.429 . S
C233 C231 1.419 . S
C233 C234 1.363 . S
C233 H236 0.929 . S
C234 C233 1.363 . S
C234 C240 1.428 1_655 S
H235 C231 0.930 . S
H236 C233 0.929 . S
S237 N238 1.613 . S
S237 N239 1.610 . S
N238 S237 1.613 . S
N238 C241 1.350 . S
N239 S237 1.610 . S
N239 C240 1.351 . S
C240 C234 1.428 1_455 S
C240 N239 1.351 . S
C240 C241 1.434 . S
C241 C232 1.429 . S
C241 N238 1.350 . S
C241 C240 1.434 . S
C242 C243 1.369 1_565 S
C242 C244 1.419 . S
C242 H246 0.930 . S
C243 C242 1.369 1_545 S
C243 C252 1.429 . S
C244 C242 1.419 . S
C244 C245 1.363 . S
C244 H247 0.929 . S
C245 C244 1.363 . S
C245 C251 1.428 1_565 S
H246 C242 0.930 . S
H247 C244 0.929 . S
S248 N249 1.613 . S
S248 N250 1.610 . S
N249 S248 1.613 . S
N249 C252 1.350 . S
N250 S248 1.610 . S
N250 C251 1.351 . S
C251 C245 1.428 1_545 S
C251 N250 1.351 . S
C251 C252 1.434 . S
C252 C243 1.429 . S
C252 N249 1.350 . S
C252 C251 1.434 . S
C253 C254 1.369 . S
C253 C255 1.419 . S
C253 H257 0.930 . S
C254 C253 1.369 . S
C254 C263 1.429 . S
C255 C253 1.419 . S
C255 C256 1.363 . S
C255 H258 0.929 . S
C256 C255 1.363 . S
C256 C262 1.428 . S
H257 C253 0.930 . S
H258 C255 0.929 . S
S259 N260 1.613 . S
S259 N261 1.610 . S
N260 S259 1.613 . S
N260 C263 1.350 . S
N261 S259 1.610 . S
N261 C262 1.351 . S
C262 C256 1.428 . S
C262 N261 1.351 . S
C262 C263 1.434 . S
C263 C254 1.429 . S
C263 N260 1.350 . S
C263 C262 1.434 . S
C264 C265 1.369 . S
C264 C266 1.419 . S
C264 H268 0.930 . S
C265 C264 1.369 . S
C265 C274 1.429 . S
C266 C264 1.419 . S
C266 C267 1.363 . S
C266 H269 0.929 . S
C267 C266 1.363 . S
C267 C273 1.428 . S
H268 C264 0.930 . S
H269 C266 0.929 . S
S270 N271 1.613 . S
S270 N272 1.610 . S
N271 S270 1.613 . S
N271 C274 1.350 . S
N272 S270 1.610 . S
N272 C273 1.351 . S
C273 C267 1.428 . S
C273 N272 1.351 . S
C273 C274 1.434 . S
C274 C265 1.429 . S
C274 N271 1.350 . S
C274 C273 1.434 . S
C275 C276 1.369 1_655 S
C275 C277 1.419 . S
C275 H279 0.930 . S
C276 C275 1.369 1_455 S
C276 C285 1.429 . S
C277 C275 1.419 . S
C277 C278 1.363 . S
C277 H280 0.929 . S
C278 C277 1.363 . S
C278 C284 1.428 1_655 S
H279 C275 0.930 . S
H280 C277 0.929 . S
S281 N282 1.613 . S
S281 N283 1.610 . S
N282 S281 1.613 . S
N282 C285 1.350 . S
N283 S281 1.610 . S
N283 C284 1.351 . S
C284 C278 1.428 1_455 S
C284 N283 1.351 . S
C284 C285 1.434 . S
C285 C276 1.429 . S
C285 N282 1.350 . S
C285 C284 1.434 . S
C286 C287 1.369 . S
C286 C288 1.419 . S
C286 H290 0.930 . S
C287 C286 1.369 . S
C287 C296 1.429 1_545 S
C288 C286 1.419 . S
C288 C289 1.363 1_545 S
C288 H291 0.929 . S
C289 C288 1.363 1_565 S
C289 C295 1.428 . S
H290 C286 0.930 . S
H291 C288 0.929 . S
S292 N293 1.613 . S
S292 N294 1.610 . S
N293 S292 1.613 . S
N293 C296 1.350 . S
N294 S292 1.610 . S
N294 C295 1.351 . S
C295 C289 1.428 . S
C295 N294 1.351 . S
C295 C296 1.434 . S
C296 C287 1.429 1_565 S
C296 N293 1.350 . S
C296 C295 1.434 . S
C297 C298 1.369 . S
C297 C299 1.419 . S
C297 H301 0.930 . S
C298 C297 1.369 . S
C298 C307 1.429 . S
C299 C297 1.419 . S
C299 C300 1.363 . S
C299 H302 0.929 . S
C300 C299 1.363 . S
C300 C306 1.428 . S
H301 C297 0.930 . S
H302 C299 0.929 . S
S303 N304 1.613 . S
S303 N305 1.610 . S
N304 S303 1.613 . S
N304 C307 1.350 . S
N305 S303 1.610 . S
N305 C306 1.351 . S
C306 C300 1.428 . S
C306 N305 1.351 . S
C306 C307 1.434 . S
C307 C298 1.429 . S
C307 N304 1.350 . S
C307 C306 1.434 . S
C308 C309 1.369 . S
C308 C310 1.419 . S
C308 H312 0.930 . S
C309 C308 1.369 . S
C309 C318 1.429 . S
C310 C308 1.419 . S
C310 C311 1.363 . S
C310 H313 0.929 . S
C311 C310 1.363 . S
C311 C317 1.428 . S
H312 C308 0.930 . S
H313 C310 0.929 . S
S314 N315 1.613 . S
S314 N316 1.610 . S
N315 S314 1.613 . S
N315 C318 1.350 . S
N316 S314 1.610 . S
N316 C317 1.351 . S
C317 C311 1.428 . S
C317 N316 1.351 . S
C317 C318 1.434 . S
C318 C309 1.429 . S
C318 N315 1.350 . S
C318 C317 1.434 . S
C319 C320 1.369 . S
C319 C321 1.419 1_455 S
C319 H323 0.930 . S
C320 C319 1.369 . S
C320 C329 1.429 1_455 S
C321 C319 1.419 1_655 S
C321 C322 1.363 . S
C321 H324 0.929 . S
C322 C321 1.363 . S
C322 C328 1.428 . S
H323 C319 0.930 . S
H324 C321 0.929 . S
S325 N326 1.613 1_655 S
S325 N327 1.610 . S
N326 S325 1.613 1_455 S
N326 C329 1.350 1_455 S
N327 S325 1.610 . S
N327 C328 1.351 . S
C328 C322 1.428 . S
C328 N327 1.351 . S
C328 C329 1.434 . S
C329 C320 1.429 1_655 S
C329 N326 1.350 1_655 S
C329 C328 1.434 . S
C330 C331 1.369 . S
C330 C332 1.419 . S
C330 H334 0.930 . S
C331 C330 1.369 . S
C331 C340 1.429 1_565 S
C332 C330 1.419 . S
C332 C333 1.363 1_565 S
C332 H335 0.929 . S
C333 C332 1.363 1_545 S
C333 C339 1.428 . S
H334 C330 0.930 . S
H335 C332 0.929 . S
S336 N337 1.613 . S
S336 N338 1.610 . S
N337 S336 1.613 . S
N337 C340 1.350 . S
N338 S336 1.610 . S
N338 C339 1.351 . S
C339 C333 1.428 . S
C339 N338 1.351 . S
C339 C340 1.434 . S
C340 C331 1.429 1_545 S
C340 N337 1.350 . S
C340 C339 1.434 . S
C341 C342 1.369 . S
C341 C343 1.419 . S
C341 H345 0.930 . S
C342 C341 1.369 . S
C342 C351 1.429 . S
C343 C341 1.419 . S
C343 C344 1.363 . S
C343 H346 0.929 . S
C344 C343 1.363 . S
C344 C350 1.428 . S
H345 C341 0.930 . S
H346 C343 0.929 . S
S347 N348 1.613 . S
S347 N349 1.610 . S
N348 S347 1.613 . S
N348 C351 1.350 . S
N349 S347 1.610 . S
N349 C350 1.351 . S
C350 C344 1.428 . S
C350 N349 1.351 . S
C350 C351 1.434 . S
C351 C342 1.429 . S
C351 N348 1.350 . S
C351 C350 1.434 . S
C352 C353 1.369 . S
C352 C354 1.419 . S
C352 H356 0.930 . S
C353 C352 1.369 . S
C353 C362 1.429 . S
C354 C352 1.419 . S
C354 C355 1.363 . S
C354 H357 0.929 . S
C355 C354 1.363 . S
C355 C361 1.428 . S
H356 C352 0.930 . S
H357 C354 0.929 . S
S358 N359 1.613 . S
S358 N360 1.610 . S
N359 S358 1.613 . S
N359 C362 1.350 . S
N360 S358 1.610 . S
N360 C361 1.351 . S
C361 C355 1.428 . S
C361 N360 1.351 . S
C361 C362 1.434 . S
C362 C353 1.429 . S
C362 N359 1.350 . S
C362 C361 1.434 . S
C363 C364 1.369 . S
C363 C365 1.419 . S
C363 H367 0.930 . S
C364 C363 1.369 . S
C364 C373 1.429 . S
C365 C363 1.419 . S
C365 C366 1.363 . S
C365 H368 0.929 . S
C366 C365 1.363 . S
C366 C372 1.428 . S
H367 C363 0.930 . S
H368 C365 0.929 . S
S369 N370 1.613 . S
S369 N371 1.610 . S
N370 S369 1.613 . S
N370 C373 1.350 . S
N371 S369 1.610 . S
N371 C372 1.351 . S
C372 C366 1.428 . S
C372 N371 1.351 . S
C372 C373 1.434 . S
C373 C364 1.429 . S
C373 N370 1.350 . S
C373 C372 1.434 . S
C374 C375 1.369 . S
C374 C376 1.419 . S
C374 H378 0.930 . S
C375 C374 1.369 . S
C375 C384 1.429 . S
C376 C374 1.419 . S
C376 C377 1.363 . S
C376 H379 0.929 . S
C377 C376 1.363 . S
C377 C383 1.428 . S
H378 C374 0.930 . S
H379 C376 0.929 . S
S380 N381 1.613 . S
S380 N382 1.610 . S
N381 S380 1.613 . S
N381 C384 1.350 . S
N382 S380 1.610 . S
N382 C383 1.351 . S
C383 C377 1.428 . S
C383 N382 1.351 . S
C383 C384 1.434 . S
C384 C375 1.429 . S
C384 N381 1.350 . S
C384 C383 1.434 . S
C385 C386 1.369 . S
C385 C387 1.419 . S
C385 H389 0.930 . S
C386 C385 1.369 . S
C386 C395 1.429 . S
C387 C385 1.419 . S
C387 C388 1.363 . S
C387 H390 0.929 . S
C388 C387 1.363 . S
C388 C394 1.428 . S
H389 C385 0.930 . S
H390 C387 0.929 . S
S391 N392 1.613 . S
S391 N393 1.610 . S
N392 S391 1.613 . S
N392 C395 1.350 . S
N393 S391 1.610 . S
N393 C394 1.351 . S
C394 C388 1.428 . S
C394 N393 1.351 . S
C394 C395 1.434 . S
C395 C386 1.429 . S
C395 N392 1.350 . S
C395 C394 1.434 . S
C396 C397 1.369 1_455 S
C396 C398 1.419 1_556 S
C396 H400 0.930 . S
C397 C396 1.369 1_655 S
C397 C406 1.429 . S
C398 C396 1.419 1_554 S
C398 C399 1.363 . S
C398 H401 0.929 . S
C399 C398 1.363 . S
C399 C405 1.428 1_455 S
H400 C396 0.930 . S
H401 C398 0.929 . S
S402 N403 1.613 1_554 S
S402 N404 1.610 . S
N403 S402 1.613 1_556 S
N403 C406 1.350 . S
N404 S402 1.610 . S
N404 C405 1.351 . S
C405 C399 1.428 1_655 S
C405 N404 1.351 . S
C405 C406 1.434 1_554 S
C406 C397 1.429 . S
C406 N403 1.350 . S
C406 C405 1.434 1_556 S
C407 C408 1.369 1_665 S
C407 C409 1.419 . S
C407 H411 0.930 . S
C408 C407 1.369 1_445 S
C408 C417 1.429 . S
C409 C407 1.419 . S
C409 C410 1.363 . S
C409 H412 0.929 . S
C410 C409 1.363 . S
C410 C416 1.428 1_665 S
H411 C407 0.930 . S
H412 C409 0.929 . S
S413 N414 1.613 . S
S413 N415 1.610 . S
N414 S413 1.613 . S
N414 C417 1.350 . S
N415 S413 1.610 . S
N415 C416 1.351 . S
C416 C410 1.428 1_445 S
C416 N415 1.351 . S
C416 C417 1.434 . S
C417 C408 1.429 . S
C417 N414 1.350 . S
C417 C416 1.434 . S
C418 C419 1.369 1_545 S
C418 C420 1.419 1_556 S
C418 H422 0.930 . S
C419 C418 1.369 1_565 S
C419 C428 1.429 . S
C420 C418 1.419 1_554 S
C420 C421 1.363 . S
C420 H423 0.929 . S
C421 C420 1.363 . S
C421 C427 1.428 1_545 S
H422 C418 0.930 . S
H423 C420 0.929 . S
S424 N425 1.613 1_554 S
S424 N426 1.610 . S
N425 S424 1.613 1_556 S
N425 C428 1.350 . S
N426 S424 1.610 . S
N426 C427 1.351 . S
C427 C421 1.428 1_565 S
C427 N426 1.351 . S
C427 C428 1.434 1_554 S
C428 C419 1.429 . S
C428 N425 1.350 . S
C428 C427 1.434 1_556 S
C429 C430 1.369 . S
C429 C431 1.419 . S
C429 H433 0.930 . S
C430 C429 1.369 . S
C430 C439 1.429 . S
C431 C429 1.419 . S
C431 C432 1.363 . S
C431 H434 0.929 . S
C432 C431 1.363 . S
C432 C438 1.428 . S
H433 C429 0.930 . S
H434 C431 0.929 . S
S435 N436 1.613 . S
S435 N437 1.610 . S
N436 S435 1.613 . S
N436 C439 1.350 . S
N437 S435 1.610 . S
N437 C438 1.351 . S
C438 C432 1.428 . S
C438 N437 1.351 . S
C438 C439 1.434 . S
C439 C430 1.429 . S
C439 N436 1.350 . S
C439 C438 1.434 . S
C177 C95 1.447 . S
C179 C7 1.401 . S
C188 C117 1.446 . S
C190 C28 1.409 . S
C199 C50 1.401 . S
C201 C138 1.448 . S
C210 C73 1.400 . S
C212 C160 1.448 . S
C221 C94 1.407 . S
C223 C6 1.449 . S
C232 C29 1.450 . S
C234 C116 1.404 . S
C243 C51 1.449 . S
C245 C139 1.402 . S
C254 C72 1.450 . S
C256 C161 1.407 . S
C265 C115 1.401 . S
C267 C71 1.448 . S
C276 C5 1.443 . S
C278 C141 1.402 . S
C287 C31 1.447 . S
C289 C163 1.409 . S
C298 C53 1.443 . S
C300 C93 1.403 . S
C309 C75 1.408 . S
C311 C119 1.449 . S
C320 C9 1.408 . S
C322 C137 1.449 . S
C331 C159 1.446 . S
C333 C27 1.409 . S
C342 C97 1.444 . S
C344 C49 1.408 . S
C353 C8 1.736 . S
C355 C48 1.737 . S
C364 C26 1.737 . S
C366 C74 1.737 . S
C375 C140 1.738 . S
C377 C92 1.738 . S
C386 C162 1.739 . S
C388 C114 1.738 . S
C397 C118 1.440 . S
C399 C4 1.445 . S
C408 C30 1.439 . S
C410 C136 1.446 . S
C419 C158 1.439 . S
C421 C52 1.446 . S
C430 C96 1.446 . S
C432 C70 1.440 . S
