# Generated by pormake.
# Topology noo, (5)-cn, num edge types: 1
# Building blocks:
#     Node 0, Type 0, BuildingBlock: XOMCOT_clean_sbu_0, # of connection points: 5
#     Node 1, Type 0, BuildingBlock: XOMCOT_clean_sbu_0, # of connection points: 5
#     Node 2, Type 0, BuildingBlock: XOMCOT_clean_sbu_0, # of connection points: 5
#     Node 3, Type 0, BuildingBlock: XOMCOT_clean_sbu_0, # of connection points: 5
#     Node 4, Type 0, BuildingBlock: XOMCOT_clean_sbu_0, # of connection points: 5
#     Node 5, Type 0, BuildingBlock: XOMCOT_clean_sbu_0, # of connection points: 5
#     Node 6, Type 0, BuildingBlock: XOMCOT_clean_sbu_0, # of connection points: 5
#     Node 7, Type 0, BuildingBlock: XOMCOT_clean_sbu_0, # of connection points: 5
#     Edge 8, Type (0, 0), BuildingBlock: MIFKUJ_clean_linker_0, # of connection points: 2
#     Edge 9, Type (0, 0), BuildingBlock: MIFKUJ_clean_linker_0, # of connection points: 2
#     Edge 10, Type (0, 0), BuildingBlock: MIFKUJ_clean_linker_0, # of connection points: 2
#     Edge 11, Type (0, 0), BuildingBlock: MIFKUJ_clean_linker_0, # of connection points: 2
#     Edge 12, Type (0, 0), BuildingBlock: MIFKUJ_clean_linker_0, # of connection points: 2
#     Edge 13, Type (0, 0), BuildingBlock: MIFKUJ_clean_linker_0, # of connection points: 2
#     Edge 14, Type (0, 0), BuildingBlock: MIFKUJ_clean_linker_0, # of connection points: 2
#     Edge 15, Type (0, 0), BuildingBlock: MIFKUJ_clean_linker_0, # of connection points: 2
#     Edge 16, Type (0, 0), BuildingBlock: MIFKUJ_clean_linker_0, # of connection points: 2
#     Edge 17, Type (0, 0), BuildingBlock: MIFKUJ_clean_linker_0, # of connection points: 2
#     Edge 18, Type (0, 0), BuildingBlock: MIFKUJ_clean_linker_0, # of connection points: 2
#     Edge 19, Type (0, 0), BuildingBlock: MIFKUJ_clean_linker_0, # of connection points: 2
#     Edge 20, Type (0, 0), BuildingBlock: MIFKUJ_clean_linker_0, # of connection points: 2
#     Edge 21, Type (0, 0), BuildingBlock: MIFKUJ_clean_linker_0, # of connection points: 2
#     Edge 22, Type (0, 0), BuildingBlock: MIFKUJ_clean_linker_0, # of connection points: 2
#     Edge 23, Type (0, 0), BuildingBlock: MIFKUJ_clean_linker_0, # of connection points: 2
#     Edge 24, Type (0, 0), BuildingBlock: MIFKUJ_clean_linker_0, # of connection points: 2
#     Edge 25, Type (0, 0), BuildingBlock: MIFKUJ_clean_linker_0, # of connection points: 2
#     Edge 26, Type (0, 0), BuildingBlock: MIFKUJ_clean_linker_0, # of connection points: 2
#     Edge 27, Type (0, 0), BuildingBlock: MIFKUJ_clean_linker_0, # of connection points: 2
# Relax obj value: 0.060
# Max RMSD: 0.114
# Mean RMSD: 0.114
data_MOF--net-noo--node1-XOMCOT_clean_sbu_0--edge1-MIFKUJ_clean_linker_0
_symmetry_space_group_name_H-M    P1
_symmetry_Int_Tables_number       1
_symmetry_cell_setting            triclinic
loop_
_symmetry_equiv_pos_as_xyz
'x, y, z'
_cell_length_a     50.219289
_cell_length_b     50.135228
_cell_length_c     38.048585
_cell_angle_alpha  89.995785
_cell_angle_beta   89.946397
_cell_angle_gamma 90.058469
loop_
_atom_site_label
_atom_site_type_symbol
_atom_site_fract_x
_atom_site_fract_y
_atom_site_fract_z
_atom_type_partial_charge
Co0 Co 0.43482 0.21623 0.04092 0.0
C1 C 0.45776 0.16122 0.04943 0.0
C2 C 0.48301 0.19171 0.07062 0.0
C3 C 0.49512 0.16734 0.07555 0.0
N4 N 0.4597 0.18801 0.05385 0.0
N5 N 0.47931 0.14808 0.06212 0.0
H6 H 0.44105 0.15142 0.0372 0.0
H7 H 0.49063 0.21083 0.0791 0.0
C8 C 0.47104 0.26257 0.01595 0.0
O9 O 0.45172 0.27431 0.9987 0.0
N10 N 0.4092 0.24416 0.02829 0.0
C11 C 0.38845 0.24024 0.00645 0.0
C12 C 0.37409 0.26332 1.00356 0.0
C13 C 0.40631 0.26976 0.03969 0.0
N14 N 0.38536 0.28219 0.02395 0.0
C15 C 0.41577 0.18044 0.98794 0.0
C16 C 0.43978 0.20327 0.93006 0.0
C17 C 0.42139 0.18249 0.92473 0.0
C18 C 0.41002 0.17065 0.95449 0.0
C19 C 0.44518 0.21246 0.96431 0.0
N20 N 0.43263 0.20156 0.99288 0.0
H21 H 0.40555 0.17141 0.00981 0.0
H22 H 0.45896 0.22866 0.96721 0.0
H23 H 0.38355 0.2217 0.99364 0.0
H24 H 0.41971 0.27928 0.05809 0.0
O25 O 0.40591 0.19631 0.06238 0.0
O26 O 0.43112 0.22531 0.09052 0.0
O27 O 0.46725 0.23978 0.03045 0.0
C28 C 0.41183 0.20798 0.0918 0.0
H29 H 0.51397 0.16412 0.08862 0.0
H30 H 0.35631 0.26583 0.98785 0.0
H31 H 0.44926 0.21301 0.90793 0.0
H32 H 0.39629 0.15408 0.95207 0.0
Co33 Co 0.79693 0.43476 0.04591 0.0
C34 C 0.85208 0.45722 0.05186 0.0
C35 C 0.82219 0.48484 0.06908 0.0
C36 C 0.84678 0.49684 0.07215 0.0
N37 N 0.82539 0.46012 0.05589 0.0
N38 N 0.86561 0.47951 0.0613 0.0
H39 H 0.86147 0.43932 0.04208 0.0
H40 H 0.80331 0.49355 0.07638 0.0
C41 C 0.74997 0.46954 0.02033 0.0
O42 O 0.73886 0.44959 1.00348 0.0
N43 N 0.76885 0.40859 0.03625 0.0
C44 C 0.77256 0.3861 0.01742 0.0
C45 C 0.74975 0.37104 0.01813 0.0
C46 C 0.7436 0.40642 0.04902 0.0
N47 N 0.73141 0.38375 0.03774 0.0
C48 C 0.83067 0.41374 0.99187 0.0
C49 C 0.8095 0.44021 0.93487 0.0
C50 C 0.82997 0.42162 0.92907 0.0
C51 C 0.84064 0.40859 0.95834 0.0
C52 C 0.80013 0.445 0.96918 0.0
N53 N 0.81026 0.43134 0.99732 0.0
H54 H 0.83922 0.40279 0.0134 0.0
H55 H 0.78484 0.4597 0.97249 0.0
H56 H 0.79084 0.38046 0.00453 0.0
H57 H 0.73442 0.42096 0.0662 0.0
O58 O 0.81763 0.40661 0.06771 0.0
O59 O 0.78939 0.43244 0.09615 0.0
O60 O 0.77273 0.46658 0.03509 0.0
C61 C 0.80677 0.41322 0.0974 0.0
H62 H 0.85052 0.51668 0.08221 0.0
H63 H 0.74677 0.35214 0.00493 0.0
H64 H 0.8009 0.45115 0.91312 0.0
H65 H 0.85621 0.39382 0.95541 0.0
Co66 Co 0.57814 0.79709 0.03331 0.0
C67 C 0.55584 0.85216 0.04428 0.0
C68 C 0.52865 0.8214 0.05995 0.0
C69 C 0.51684 0.84578 0.06582 0.0
N70 N 0.55297 0.82525 0.04584 0.0
N71 N 0.53389 0.8652 0.05589 0.0
H72 H 0.57353 0.86215 0.03504 0.0
H73 H 0.52016 0.80217 0.06624 0.0
C74 C 0.54232 0.75007 0.0089 0.0
O75 O 0.56205 0.73758 0.99341 0.0
N76 N 0.60415 0.76941 0.02124 0.0
C77 C 0.62514 0.7737 0.99992 0.0
C78 C 0.6401 0.75095 0.99771 0.0
C79 C 0.60746 0.74397 0.03303 0.0
N80 N 0.62892 0.73189 0.01796 0.0
C81 C 0.59579 0.83375 0.98021 0.0
C82 C 0.57505 0.80823 0.92213 0.0
C83 C 0.59096 0.83094 0.91699 0.0
C84 C 0.60096 0.84392 0.94671 0.0
C85 C 0.56984 0.79896 0.95636 0.0
N86 N 0.5805 0.81144 0.98511 0.0
H87 H 0.6053 0.84342 1.00213 0.0
H88 H 0.5578 0.78143 0.95912 0.0
H89 H 0.62977 0.79234 0.9871 0.0
H90 H 0.594 0.7343 0.05127 0.0
O91 O 0.60674 0.81739 0.05466 0.0
O92 O 0.58155 0.78837 0.083 0.0
O93 O 0.54594 0.77324 0.02246 0.0
C94 C 0.60066 0.80592 0.0842 0.0
H95 H 0.49735 0.84892 0.07722 0.0
H96 H 0.65819 0.74887 0.9825 0.0
H97 H 0.56681 0.7976 0.89987 0.0
H98 H 0.61375 0.86122 0.9441 0.0
Co99 Co 0.21555 0.57904 0.03899 0.0
C100 C 0.16176 0.5553 0.05334 0.0
C101 C 0.19077 0.52513 0.04235 0.0
C102 C 0.16635 0.51307 0.0469 0.0
N103 N 0.18807 0.55173 0.04634 0.0
N104 N 0.14799 0.53201 0.05366 0.0
H105 H 0.15271 0.57457 0.05764 0.0
H106 H 0.20893 0.51488 0.03546 0.0
C107 C 0.25875 0.5401 0.05063 0.0
O108 O 0.26003 0.55101 0.08191 0.0
N109 N 0.24227 0.60677 0.03106 0.0
C110 C 0.23605 0.63117 0.01875 0.0
C111 C 0.2587 0.64646 0.01695 0.0
C112 C 0.26905 0.60752 0.03632 0.0
N113 N 0.27953 0.63175 0.02804 0.0
C114 C 0.17975 0.59163 0.98346 0.0
C115 C 0.21388 0.58291 0.92768 0.0
C116 C 0.18818 0.59286 0.92069 0.0
C117 C 0.17114 0.59704 0.94938 0.0
C118 C 0.22179 0.5777 0.96253 0.0
N119 N 0.20471 0.58209 0.9899 0.0
H120 H 0.16642 0.59601 0.0049 0.0
H121 H 0.24184 0.57088 0.96751 0.0
H122 H 0.2162 0.63749 0.01155 0.0
H123 H 0.28062 0.59109 0.04645 0.0
O124 O 0.19205 0.60597 0.05906 0.0
O125 O 0.22037 0.58193 0.08968 0.0
O126 O 0.24257 0.54977 0.02784 0.0
C127 C 0.20203 0.60016 0.08954 0.0
H128 H 0.16234 0.49198 0.04396 0.0
H129 H 0.25979 0.66686 0.00774 0.0
H130 H 0.22783 0.57932 0.9065 0.0
H131 H 0.15145 0.6054 0.94582 0.0
Co132 Co 0.93545 0.29633 0.47218 0.0
C133 C 0.95825 0.35168 0.46936 0.0
C134 C 0.98464 0.32232 0.44781 0.0
C135 C 0.99663 0.34697 0.44531 0.0
N136 N 0.96067 0.32514 0.4632 0.0
N137 N 0.98012 0.36555 0.45896 0.0
H138 H 0.94091 0.36073 0.48111 0.0
H139 H 0.99276 0.30364 0.43852 0.0
C140 C 0.97055 0.24905 0.49599 0.0
O141 O 0.95071 0.23699 0.51189 0.0
N142 N 0.90952 0.26781 0.48077 0.0
C143 C 0.88701 0.27089 0.49972 0.0
C144 C 0.8722 0.24791 0.49814 0.0
C145 C 0.90759 0.24281 0.46703 0.0
N146 N 0.88509 0.23012 0.47785 0.0
C147 C 0.91375 0.32897 0.52681 0.0
C148 C 0.93877 0.30611 0.58383 0.0
C149 C 0.91952 0.32594 0.58986 0.0
C150 C 0.90752 0.33773 0.56057 0.0
C151 C 0.94453 0.29783 0.54925 0.0
N152 N 0.93152 0.30875 0.5211 0.0
H153 H 0.90345 0.33827 0.50527 0.0
H154 H 0.95921 0.28253 0.54573 0.0
H155 H 0.88118 0.28883 0.5133 0.0
H156 H 0.92221 0.23414 0.44951 0.0
O157 O 0.90736 0.3172 0.45067 0.0
O158 O 0.93351 0.28954 0.42173 0.0
O159 O 0.96739 0.2723 0.48259 0.0
C160 C 0.91419 0.30683 0.42077 0.0
H161 H 0.01586 0.35087 0.43355 0.0
H162 H 0.85336 0.24444 0.51125 0.0
H163 H 0.9488 0.29656 0.60562 0.0
H164 H 0.89314 0.35366 0.56361 0.0
Co165 Co 0.7164 0.93561 0.46022 0.0
C166 C 0.66163 0.9585 0.46238 0.0
C167 C 0.69005 0.9856 0.43988 0.0
C168 C 0.66532 0.99744 0.43933 0.0
N169 N 0.68781 0.96129 0.45456 0.0
N170 N 0.64736 0.98046 0.45347 0.0
H171 H 0.65324 0.94076 0.47423 0.0
H172 H 0.70831 0.99394 0.42955 0.0
C173 C 0.76202 0.97031 0.48989 0.0
O174 O 0.7703 0.95136 0.51107 0.0
N175 N 0.74496 0.90907 0.46551 0.0
C176 C 0.74072 0.8833 0.47419 0.0
C177 C 0.76432 0.86966 0.47353 0.0
C178 C 0.77157 0.91035 0.45858 0.0
N179 N 0.78386 0.88651 0.46387 0.0
C180 C 0.69094 0.90834 0.51723 0.0
C181 C 0.70205 0.94398 0.57044 0.0
C182 C 0.68879 0.9201 0.5789 0.0
C183 C 0.68283 0.90255 0.55143 0.0
C184 C 0.71003 0.94898 0.53552 0.0
N185 N 0.70559 0.93059 0.50955 0.0
H186 H 0.68495 0.89473 0.49686 0.0
H187 H 0.71927 0.96785 0.52963 0.0
H188 H 0.72164 0.87438 0.47955 0.0
H189 H 0.78165 0.92803 0.44914 0.0
O190 O 0.69404 0.90862 0.43842 0.0
O191 O 0.72142 0.93504 0.40938 0.0
O192 O 0.74142 0.96669 0.47066 0.0
C193 C 0.7037 0.91609 0.40833 0.0
H194 H 0.66084 0.01683 0.42832 0.0
H195 H 0.7669 0.84875 0.47978 0.0
H196 H 0.70644 0.95857 0.59062 0.0
H197 H 0.6715 0.8845 0.55615 0.0
Co198 Co 0.07647 0.71836 0.46625 0.0
C199 C 0.05366 0.66334 0.46843 0.0
C200 C 0.02628 0.69193 0.44711 0.0
C201 C 0.01444 0.66715 0.4465 0.0
N202 N 0.05076 0.68964 0.46113 0.0
N203 N 0.0316 0.64908 0.4599 0.0
H204 H 0.07154 0.65484 0.4796 0.0
H205 H 0.01784 0.71025 0.43716 0.0
C206 C 0.04234 0.76433 0.49646 0.0
O207 O 0.06162 0.77308 0.51674 0.0
N208 N 0.10303 0.74696 0.47093 0.0
C209 C 0.12877 0.74276 0.47946 0.0
C210 C 0.14257 0.76631 0.47772 0.0
C211 C 0.10185 0.77347 0.46315 0.0
N212 N 0.12577 0.78573 0.46766 0.0
C213 C 0.10442 0.69176 0.52155 0.0
C214 C 0.07146 0.70452 0.57704 0.0
C215 C 0.09499 0.69025 0.58395 0.0
C216 C 0.11111 0.68344 0.55534 0.0
C217 C 0.06546 0.7126 0.54243 0.0
N218 N 0.08255 0.70726 0.51526 0.0
H219 H 0.11715 0.6854 0.5004 0.0
H220 H 0.04689 0.72271 0.53782 0.0
H221 H 0.13754 0.72369 0.4854 0.0
H222 H 0.08419 0.78346 0.45362 0.0
O223 O 0.10303 0.69628 0.44324 0.0
O224 O 0.07596 0.72372 0.4155 0.0
O225 O 0.04561 0.7433 0.47785 0.0
C226 C 0.09494 0.70613 0.41358 0.0
H227 H 0.99494 0.66271 0.43593 0.0
H228 H 0.16352 0.76898 0.48345 0.0
H229 H 0.05794 0.70965 0.59815 0.0
H230 H 0.12879 0.67137 0.55886 0.0
Co231 Co 0.29696 0.07885 0.46759 0.0
C232 C 0.35156 0.05534 0.46319 0.0
C233 C 0.3219 0.03006 0.44002 0.0
C234 C 0.34633 0.01778 0.43697 0.0
N235 N 0.32508 0.05348 0.45676 0.0
N236 N 0.36506 0.03362 0.45161 0.0
H237 H 0.36079 0.07214 0.47614 0.0
H238 H 0.30313 0.02253 0.43025 0.0
C239 C 0.25037 0.04405 0.4941 0.0
O240 O 0.2407 0.06347 0.51342 0.0
N241 N 0.26906 0.10494 0.47814 0.0
C242 C 0.27284 0.12731 0.49719 0.0
C243 C 0.24996 0.1422 0.49708 0.0
C244 C 0.24368 0.107 0.46592 0.0
N245 N 0.2315 0.12955 0.47756 0.0
C246 C 0.3299 0.10013 0.52231 0.0
C247 C 0.31195 0.06957 0.57773 0.0
C248 C 0.33114 0.08938 0.58434 0.0
C249 C 0.34022 0.10447 0.55582 0.0
C250 C 0.30223 0.06564 0.5434 0.0
N251 N 0.31057 0.08143 0.51615 0.0
H252 H 0.33733 0.11253 0.5014 0.0
H253 H 0.28825 0.04974 0.53927 0.0
H254 H 0.29116 0.1331 0.50975 0.0
H255 H 0.23446 0.09252 0.44868 0.0
O256 O 0.31791 0.10707 0.44615 0.0
O257 O 0.28917 0.08197 0.4175 0.0
O258 O 0.27242 0.04718 0.47759 0.0
C259 C 0.30679 0.10101 0.41645 0.0
H260 H 0.35002 0.99883 0.42427 0.0
H261 H 0.2471 0.16099 0.51058 0.0
H262 H 0.30472 0.05699 0.59883 0.0
H263 H 0.35482 0.12015 0.5594 0.0
H264 H 0.5705 0.90519 0.06243 0.0
H265 H 0.56183 0.95331 0.06384 0.0
H266 H 0.47761 0.93819 0.05397 0.0
H267 H 0.4862 0.89035 0.05166 0.0
H268 H 0.49078 0.97743 0.01202 0.0
H269 H 0.50692 0.95667 0.13261 0.0
H270 H 0.53103 0.93998 0.18453 0.0
H271 H 0.59472 0.99512 0.16454 0.0
H272 H 0.57122 0.01184 0.11206 0.0
H273 H 0.44342 0.10726 0.05767 0.0
H274 H 0.45294 0.05941 0.05666 0.0
H275 H 0.537 0.07602 0.06387 0.0
H276 H 0.52768 0.12374 0.06482 0.0
H277 H 0.52431 0.03621 0.10699 0.0
H278 H 0.50666 0.05663 0.9853 0.0
H279 H 0.48003 0.07433 0.93608 0.0
H280 H 0.41681 0.01974 0.9609 0.0
H281 H 0.44293 1.00194 0.01051 0.0
C282 C 0.55016 0.91211 0.06031 0.0
C283 C 0.52907 0.89374 0.05698 0.0
C284 C 0.54517 0.93969 0.06146 0.0
C285 C 0.51898 0.94958 0.05931 0.0
C286 C 0.49799 0.93124 0.05574 0.0
C287 C 0.50293 0.90376 0.05472 0.0
C288 C 0.51328 0.97893 0.06017 0.0
C289 C 0.49791 0.99017 0.03305 0.0
C290 C 0.52286 0.99588 0.0872 0.0
C291 C 0.53741 0.98533 0.11815 0.0
C292 C 0.52621 0.96504 0.13902 0.0
C293 C 0.53972 0.95565 0.16865 0.0
C294 C 0.56433 0.96656 0.1779 0.0
C295 C 0.57559 0.98678 0.15742 0.0
C296 C 0.56221 0.99618 0.12769 0.0
C297 C 0.46395 0.10081 0.05872 0.0
C298 C 0.48473 0.11962 0.06132 0.0
C299 C 0.4694 0.07333 0.05818 0.0
C300 C 0.49577 0.06391 0.05985 0.0
C301 C 0.51649 0.08262 0.06266 0.0
C302 C 0.51107 0.11004 0.0633 0.0
C303 C 0.50187 0.03464 0.05885 0.0
C304 C 0.51731 0.02344 0.08591 0.0
C305 C 0.4922 0.01767 0.03194 0.0
C306 C 0.47665 0.02813 1.00182 0.0
C307 C 0.48702 0.04852 0.98038 0.0
C308 C 0.47202 0.05855 0.9524 0.0
C309 C 0.44671 0.04822 0.94546 0.0
C310 C 0.4364 0.02775 0.96635 0.0
C311 C 0.4513 0.01766 0.99437 0.0
H312 H 0.43508 0.05606 0.9239 0.0
H313 H 0.57476 0.95926 0.20085 0.0
H314 H 0.89042 0.52667 0.04936 0.0
H315 H 0.93831 0.53547 0.04887 0.0
H316 H 0.95371 0.45242 0.06986 0.0
H317 H 0.90555 0.44349 0.07046 0.0
H318 H 0.98406 0.48704 0.11223 0.0
H319 H 0.96422 0.47572 0.98975 0.0
H320 H 0.94007 0.48423 0.9345 0.0
H321 H 0.96379 0.5665 0.93776 0.0
H322 H 0.98777 0.55857 0.99336 0.0
H323 H 0.12262 0.48691 0.07512 0.0
H324 H 0.0748 0.47877 0.07736 0.0
H325 H 0.06008 0.55964 0.04415 0.0
H326 H 0.10813 0.5677 0.04071 0.0
H327 H 0.02905 0.52646 0.00833 0.0
H328 H 0.04807 0.53921 0.12989 0.0
H329 H 0.07123 0.53247 0.18633 0.0
H330 H 0.04856 0.44988 0.18606 0.0
H331 H 0.0254 0.45609 0.12948 0.0
C332 C 0.90395 0.51025 0.05398 0.0
C333 C 0.89406 0.48435 0.06 0.0
C334 C 0.93139 0.5153 0.05348 0.0
C335 C 0.94975 0.49462 0.05916 0.0
C336 C 0.93999 0.46872 0.06536 0.0
C337 C 0.91246 0.46359 0.06544 0.0
C338 C 0.97902 0.50022 0.05884 0.0
C339 C 0.99398 0.49527 0.08933 0.0
C340 C 0.99191 0.5118 0.02939 0.0
C341 C 0.97757 0.51661 0.99592 0.0
C342 C 0.9641 0.49568 0.97886 0.0
C343 C 0.95048 0.50039 0.94744 0.0
C344 C 0.95034 0.52591 0.93268 0.0
C345 C 0.96388 0.54676 0.94926 0.0
C346 C 0.97751 0.54216 0.98071 0.0
C347 C 0.10932 0.50303 0.06818 0.0
C348 C 0.11949 0.52797 0.05756 0.0
C349 C 0.08182 0.49839 0.06984 0.0
C350 C 0.0636 0.51861 0.0612 0.0
C351 C 0.07362 0.54366 0.05099 0.0
C352 C 0.1012 0.54834 0.04934 0.0
C353 C 0.03422 0.51324 0.06175 0.0
C354 C 0.0192 0.51823 0.03129 0.0
C355 C 0.02122 0.50193 0.09135 0.0
C356 C 0.03523 0.49806 0.12527 0.0
C357 C 0.04822 0.51957 0.14172 0.0
C358 C 0.0613 0.51585 0.17376 0.0
C359 C 0.06147 0.49074 0.18968 0.0
C360 C 0.04845 0.46931 0.17366 0.0
C361 C 0.0353 0.47292 0.14164 0.0
H362 H 0.07161 0.48791 0.21449 0.0
H363 H 0.93979 0.52951 0.90834 0.0
H364 H 0.94358 0.40566 0.46539 0.0
H365 H 0.95237 0.45361 0.46818 0.0
H366 H 0.03666 0.43865 0.45992 0.0
H367 H 0.02816 0.39082 0.4585 0.0
H368 H 0.02864 0.47657 0.50646 0.0
H369 H 0.99841 0.46037 0.38862 0.0
H370 H 0.96757 0.44411 0.34297 0.0
H371 H 0.90642 0.4961 0.382 0.0
H372 H 0.9368 0.51242 0.4282 0.0
H373 H 0.06863 0.60928 0.45936 0.0
H374 H 0.06028 0.56112 0.46122 0.0
H375 H 0.9759 0.57584 0.46921 0.0
H376 H 0.98411 0.62376 0.46718 0.0
H377 H 0.98407 0.53798 0.42304 0.0
H378 H 0.0148 0.55462 0.54063 0.0
H379 H 0.04607 0.57115 0.5856 0.0
H380 H 0.10667 0.51853 0.54655 0.0
H381 H 0.07586 0.50194 0.50102 0.0
C382 C 0.96401 0.41246 0.46451 0.0
C383 C 0.98509 0.39407 0.46138 0.0
C384 C 0.96903 0.44003 0.46577 0.0
C385 C 0.99521 0.44999 0.4637 0.0
C386 C 0.01627 0.43166 0.46139 0.0
C387 C 0.0113 0.40416 0.4602 0.0
C388 C 1.00077 0.4794 0.46361 0.0
C389 C 0.01909 0.48992 0.48793 0.0
C390 C 0.98807 0.49713 0.43993 0.0
C391 C 0.9698 0.48742 0.41209 0.0
C392 C 0.97832 0.46819 0.38763 0.0
C393 C 0.96093 0.45898 0.36163 0.0
C394 C 0.93502 0.46901 0.35965 0.0
C395 C 0.92648 0.48832 0.3836 0.0
C396 C 0.94378 0.49757 0.40968 0.0
C397 C 0.04834 0.60228 0.46194 0.0
C398 C 0.02707 0.62056 0.46296 0.0
C399 C 0.04354 0.57466 0.46299 0.0
C400 C 0.01739 0.56461 0.46556 0.0
C401 C 0.99623 0.58288 0.46699 0.0
C402 C 1.00099 0.61041 0.46577 0.0
C403 C 0.01186 0.5352 0.46598 0.0
C404 C 0.99357 0.52466 0.44166 0.0
C405 C 0.02463 0.51748 0.48962 0.0
C406 C 0.0431 0.52723 0.5172 0.0
C407 C 0.03485 0.5467 0.54148 0.0
C408 C 0.05249 0.55606 0.5671 0.0
C409 C 0.07837 0.54595 0.56887 0.0
C410 C 0.08663 0.52638 0.54511 0.0
C411 C 0.06909 0.51697 0.51942 0.0
H412 H 0.092 0.55324 0.5887 0.0
H413 H 0.92159 0.46186 0.3395 0.0
H414 H 0.60774 0.94319 0.45591 0.0
H415 H 0.55967 0.9514 0.4585 0.0
H416 H 0.57412 0.03617 0.46044 0.0
H417 H 0.622 0.02812 0.45887 0.0
H418 H 0.53522 0.02395 0.50529 0.0
H419 H 0.55498 1.0036 0.38447 0.0
H420 H 0.57272 0.97648 0.33572 0.0
H421 H 0.51999 0.91237 0.3635 0.0
H422 H 0.50217 0.939 0.41274 0.0
H423 H 0.40566 0.0696 0.45683 0.0
H424 H 0.4534 0.06005 0.45956 0.0
H425 H 0.43681 0.97573 0.45473 0.0
H426 H 0.38921 0.98511 0.45189 0.0
H427 H 0.47668 0.98686 0.41242 0.0
H428 H 0.4559 0.00764 0.53232 0.0
H429 H 0.43786 0.03492 0.58072 0.0
H430 H 0.49226 0.0981 0.55491 0.0
H431 H 0.51037 0.07134 0.50601 0.0
C432 C 0.60073 0.96357 0.45731 0.0
C433 C 0.61892 0.98497 0.45682 0.0
C434 C 0.57316 0.96827 0.45847 0.0
C435 C 0.56308 0.99447 0.45914 0.0
C436 C 0.58123 0.01578 0.45976 0.0
C437 C 0.60872 0.01112 0.45853 0.0
C438 C 0.53374 0.99984 0.45849 0.0
C439 C 0.52249 0.01604 0.48476 0.0
C440 C 0.51684 0.98917 0.43217 0.0
C441 C 0.52745 0.97318 0.40251 0.0
C442 C 0.54731 0.98364 0.38035 0.0
C443 C 0.55736 0.96838 0.3526 0.0
C444 C 0.54755 0.94269 0.34658 0.0
C445 C 0.52761 0.93225 0.36824 0.0
C446 C 0.51751 0.94743 0.39605 0.0
C447 C 0.41211 0.04901 0.4567 0.0
C448 C 0.39338 0.02817 0.45407 0.0
C449 C 0.43951 0.04355 0.45826 0.0
C450 C 0.4489 0.01709 0.45767 0.0
C451 C 0.43024 0.9963 0.45509 0.0
C452 C 0.4029 1.00174 0.45337 0.0
C453 C 0.4781 0.011 0.45922 0.0
C454 C 0.48935 0.99468 0.43307 0.0
C455 C 0.49497 0.02155 0.48568 0.0
C456 C 0.48431 0.03758 0.51529 0.0
C457 C 0.46389 0.02742 0.53681 0.0
C458 C 0.45367 0.04278 0.56436 0.0
C459 C 0.46386 0.06826 0.57083 0.0
C460 C 0.48436 0.07838 0.54984 0.0
C461 C 0.49462 0.06312 0.52222 0.0
H462 H 0.4559 0.08012 0.59215 0.0
H463 H 0.55535 0.9309 0.32509 0.0
H464 H 0.297 0.51867 0.09276 0.0
H465 H 0.32051 0.47667 0.08631 0.0
H466 H 0.28112 0.46292 0.98729 0.0
H467 H 0.25672 0.50518 0.99408 0.0
H468 H 0.28021 0.41875 0.02533 0.0
H469 H 0.34903 0.47971 0.99335 0.0
H470 H 0.37826 0.51897 0.99945 0.0
H471 H 0.41026 0.48702 0.0952 0.0
H472 H 0.38094 0.44772 0.08995 0.0
H473 H 0.35986 0.31038 0.97343 0.0
H474 H 0.3409 0.35479 0.97785 0.0
H475 H 0.37215 0.36257 0.08278 0.0
H476 H 0.39105 0.31725 0.07876 0.0
H477 H 0.37781 0.40969 0.0417 0.0
H478 H 0.30806 0.34881 0.0731 0.0
H479 H 0.2791 0.30948 0.06558 0.0
H480 H 0.24924 0.34169 0.96877 0.0
H481 H 0.27833 0.38104 0.97544 0.0
C482 C 0.29338 0.50696 0.06933 0.0
C483 C 0.27486 0.51552 0.04389 0.0
C484 C 0.30709 0.48284 0.06559 0.0
C485 C 0.30302 0.46652 0.0361 0.0
C486 C 0.28477 0.4751 0.0103 0.0
C487 C 0.27092 0.49938 0.01407 0.0
C488 C 0.31693 0.44008 0.03334 0.0
C489 C 0.30161 0.41693 0.02831 0.0
C490 C 0.34485 0.4373 0.03821 0.0
C491 C 0.3626 0.46087 0.04141 0.0
C492 C 0.36215 0.48114 0.01585 0.0
C493 C 0.37876 0.50339 0.01913 0.0
C494 C 0.39606 0.50552 0.04774 0.0
C495 C 0.39683 0.48536 0.07307 0.0
C496 C 0.38024 0.46308 0.06994 0.0
C497 C 0.36261 0.32126 0.9977 0.0
C498 C 0.37655 0.30976 0.02609 0.0
C499 C 0.35179 0.34687 1.00008 0.0
C500 C 0.35455 0.36198 0.03086 0.0
C501 C 0.36956 0.35125 0.05878 0.0
C502 C 0.38042 0.32535 0.05646 0.0
C503 C 0.34104 0.38855 0.03366 0.0
C504 C 0.35643 0.41164 0.0387 0.0
C505 C 0.3132 0.39134 0.02861 0.0
C506 C 0.29556 0.36776 0.02462 0.0
C507 C 0.29547 0.34741 0.05006 0.0
C508 C 0.27901 0.32513 0.04598 0.0
C509 C 0.26239 0.32306 0.01668 0.0
C510 C 0.26215 0.3433 0.99144 0.0
C511 C 0.2786 0.36561 0.99537 0.0
H512 H 0.24965 0.30579 0.01357 0.0
H513 H 0.40891 0.52277 0.05023 0.0
H514 H 0.48362 0.31458 1.0008 0.0
H515 H 0.52634 0.33725 0.00782 0.0
H516 H 0.56178 0.26387 0.04391 0.0
H517 H 0.51876 0.2413 0.03806 0.0
H518 H 0.57958 0.30178 0.0828 0.0
H519 H 0.57224 0.29192 0.95794 0.0
H520 H 0.55128 0.29605 0.89962 0.0
H521 H 0.55059 0.38133 0.90991 0.0
H522 H 0.57126 0.37769 0.96853 0.0
H523 H 0.71595 0.33339 0.05167 0.0
H524 H 0.67054 0.31572 0.05173 0.0
H525 H 0.63985 0.39491 0.03438 0.0
H526 H 0.68569 0.41272 0.03453 0.0
H527 H 0.61872 0.35704 0.98774 0.0
H528 H 0.62981 0.36554 0.11212 0.0
H529 H 0.65251 0.35972 0.16902 0.0
H530 H 0.64804 0.27463 0.15767 0.0
H531 H 0.62564 0.27993 0.10042 0.0
C532 C 0.50052 0.30315 0.01001 0.0
C533 C 0.49762 0.27598 0.01866 0.0
C534 C 0.5251 0.31619 0.01391 0.0
C535 C 0.54771 0.30234 0.02592 0.0
C536 C 0.54483 0.27518 0.0346 0.0
C537 C 0.52014 0.2622 0.0311 0.0
C538 C 0.57416 0.31618 0.02994 0.0
C539 C 0.58819 0.31357 0.06176 0.0
C540 C 0.58545 0.33226 1.00301 0.0
C541 C 0.57303 0.33451 0.96778 0.0
C542 C 0.56743 0.31154 0.94788 0.0
C543 C 0.55564 0.3138 0.91475 0.0
C544 C 0.54953 0.33893 0.90111 0.0
C545 C 0.55529 0.36187 0.92054 0.0
C546 C 0.56706 0.35973 0.95371 0.0
C547 C 0.69949 0.34711 0.04848 0.0
C548 C 0.70441 0.37447 0.04327 0.0
C549 C 0.67349 0.33699 0.04856 0.0
C550 C 0.65159 0.3539 0.04313 0.0
C551 C 0.65635 0.38141 0.03868 0.0
C552 C 0.6825 0.39164 0.03912 0.0
C553 C 0.62407 0.34241 0.04039 0.0
C554 C 0.60992 0.3454 0.0088 0.0
C555 C 0.61285 0.32641 0.06733 0.0
C556 C 0.62623 0.32314 0.10182 0.0
C557 C 0.63385 0.34558 0.12161 0.0
C558 C 0.64663 0.34238 0.15396 0.0
C559 C 0.65177 0.31682 0.16692 0.0
C560 C 0.64407 0.29441 0.14759 0.0
C561 C 0.6313 0.29751 0.1152 0.0
H562 H 0.66166 0.31438 0.19197 0.0
H563 H 0.5404 0.34064 0.87546 0.0
H564 H 0.6199 0.69551 0.07068 0.0
H565 H 0.63724 0.64966 0.07411 0.0
H566 H 0.67652 0.66041 0.97425 0.0
H567 H 0.65841 0.70491 0.96987 0.0
H568 H 0.65731 0.6141 0.97407 0.0
H569 H 0.70945 0.66365 0.05803 0.0
H570 H 0.71673 0.6917 0.11042 0.0
H571 H 0.68049 0.63183 0.17554 0.0
H572 H 0.67271 0.60356 0.12343 0.0
H573 H 0.77059 0.51845 0.03915 0.0
H574 H 0.74769 0.56151 0.04122 0.0
H575 H 0.67483 0.5235 0.00811 0.0
H576 H 0.69781 0.48063 0.00499 0.0
H577 H 0.70892 0.5824 0.0769 0.0
H578 H 0.63665 0.56521 0.96072 0.0
H579 H 0.63459 0.53998 0.90509 0.0
H580 H 0.71997 0.54007 0.89882 0.0
H581 H 0.72251 0.56557 0.95415 0.0
C582 C 0.63203 0.68799 0.04936 0.0
C583 C 0.63803 0.70438 0.02031 0.0
C584 C 0.64218 0.66178 0.05147 0.0
C585 C 0.65866 0.65142 0.02465 0.0
C586 C 0.66402 0.66763 0.99543 0.0
C587 C 0.65382 0.69349 0.9932 0.0
C588 C 0.67061 0.62393 0.02633 0.0
C589 C 0.66841 0.6072 0.99676 0.0
C590 C 0.68557 0.61471 0.05551 0.0
C591 C 0.69023 0.63165 0.08681 0.0
C592 C 0.70286 0.65656 0.0835 0.0
C593 C 0.70711 0.67248 0.11313 0.0
C594 C 0.699 0.66359 0.14627 0.0
C595 C 0.6867 0.63872 0.14985 0.0
C596 C 0.68238 0.62273 0.12028 0.0
C597 C 0.7497 0.51923 0.03224 0.0
C598 C 0.73619 0.49597 0.02158 0.0
C599 C 0.73654 0.54394 0.03358 0.0
C600 C 0.70947 0.5461 0.02444 0.0
C601 C 0.69581 0.52273 0.01457 0.0
C602 C 0.70903 0.4981 0.01284 0.0
C603 C 0.69574 0.57276 0.02454 0.0
C604 C 0.69757 0.58924 0.05441 0.0
C605 C 0.68106 0.58216 0.99521 0.0
C606 C 0.67975 0.56702 0.96177 0.0
C607 C 0.65497 0.5599 0.9474 0.0
C608 C 0.65372 0.54555 0.91593 0.0
C609 C 0.67714 0.53834 0.8985 0.0
C610 C 0.70185 0.54557 0.91242 0.0
C611 C 0.70321 0.55994 0.94385 0.0
H612 H 0.67613 0.52722 0.87416 0.0
H613 H 0.70231 0.67594 0.16919 0.0
H614 H 0.29606 0.68144 0.04472 0.0
H615 H 0.34122 0.69917 0.0421 0.0
H616 H 0.37077 0.62151 0.01303 0.0
H617 H 0.32514 0.60348 0.01621 0.0
H618 H 0.40537 0.64565 0.05659 0.0
H619 H 0.36127 0.67132 0.95088 0.0
H620 H 0.32535 0.69046 0.91468 0.0
H621 H 0.33743 0.76692 0.96298 0.0
H622 H 0.37319 0.74814 0.99985 0.0
H623 H 0.52927 0.69821 0.99337 0.0
H624 H 0.48573 0.6765 0.99744 0.0
H625 H 0.45071 0.75047 0.03197 0.0
H626 H 0.4942 0.7724 0.02768 0.0
H627 H 0.41966 0.72627 0.98327 0.0
H628 H 0.46357 0.6996 0.08983 0.0
H629 H 0.49971 0.67994 0.12516 0.0
H630 H 0.48854 0.60466 0.0734 0.0
H631 H 0.45256 0.62398 0.03738 0.0
C632 C 0.31213 0.66805 0.03781 0.0
C633 C 0.30685 0.64108 0.03015 0.0
C634 C 0.33805 0.67827 0.03624 0.0
C635 C 0.35955 0.66197 0.02641 0.0
C636 C 0.3546 0.63465 0.02038 0.0
C637 C 0.32851 0.6243 0.02228 0.0
C638 C 0.38681 0.67384 0.0217 0.0
C639 C 0.40853 0.66301 0.04009 0.0
C640 C 0.39115 0.69683 1.00063 0.0
C641 C 0.36976 0.70826 0.97834 0.0
C642 C 0.35615 0.69217 0.95395 0.0
C643 C 0.33583 0.70296 0.93329 0.0
C644 C 0.32908 0.72988 0.93658 0.0
C645 C 0.34267 0.74607 0.96048 0.0
C646 C 0.36298 0.73537 0.98125 0.0
C647 C 0.51233 0.70996 1.00173 0.0
C648 C 0.51544 0.73714 0.01033 0.0
C649 C 0.48739 0.69741 0.00428 0.0
C650 C 0.46481 0.71166 0.01546 0.0
C651 C 0.46775 0.73892 0.02342 0.0
C652 C 0.49274 0.75145 0.02109 0.0
C653 C 0.43814 0.6983 0.01849 0.0
C654 C 0.41652 0.70885 0.99968 0.0
C655 C 0.434 0.67498 0.03896 0.0
C656 C 0.45557 0.66332 0.06064 0.0
C657 C 0.46897 0.67891 0.08577 0.0
C658 C 0.4894 0.66782 0.10596 0.0
C659 C 0.49647 0.64109 0.10145 0.0
C660 C 0.48307 0.62537 0.07681 0.0
C661 C 0.46265 0.63638 0.05652 0.0
H662 H 0.51229 0.63254 0.11712 0.0
H663 H 0.31334 0.73819 0.92056 0.0
H664 H 0.8139 0.98102 0.50811 0.0
H665 H 0.83812 0.02321 0.50233 0.0
H666 H 0.76707 0.06092 0.46252 0.0
H667 H 0.74327 0.01853 0.46675 0.0
H668 H 0.80529 0.07846 0.42629 0.0
H669 H 0.7939 0.06946 0.55109 0.0
H670 H 0.79725 0.04749 0.60892 0.0
H671 H 0.88245 0.04565 0.5996 0.0
H672 H 0.87958 0.06733 0.54149 0.0
H673 H 0.835 0.21433 0.46349 0.0
H674 H 0.81793 0.16865 0.4617 0.0
H675 H 0.89737 0.13851 0.47778 0.0
H676 H 0.91458 0.18464 0.47936 0.0
H677 H 0.85925 0.1158 0.52369 0.0
H678 H 0.86877 0.13005 0.3998 0.0
H679 H 0.86311 0.15463 0.34418 0.0
H680 H 0.77814 0.14911 0.35447 0.0
H681 H 0.78327 0.12483 0.41044 0.0
C682 C 0.8034 0.99835 0.4983 0.0
C683 C 0.77656 0.99631 0.48802 0.0
C684 C 0.81728 0.02261 0.49512 0.0
C685 C 0.8045 0.04572 0.48244 0.0
C686 C 0.77763 0.04361 0.47228 0.0
C687 C 0.76392 0.01927 0.47484 0.0
C688 C 0.81897 0.07197 0.4793 0.0
C689 C 0.81683 0.08662 0.44784 0.0
C690 C 0.83473 0.08275 0.50687 0.0
C691 C 0.83651 0.06973 0.54179 0.0
C692 C 0.81334 0.06419 0.56127 0.0
C693 C 0.81515 0.05182 0.59411 0.0
C694 C 0.84005 0.0451 0.60787 0.0
C695 C 0.86318 0.05081 0.58887 0.0
C696 C 0.86148 0.06316 0.556 0.0
C697 C 0.8489 0.19796 0.46604 0.0
C698 C 0.87616 0.2031 0.47138 0.0
C699 C 0.83913 0.1718 0.465 0.0
C700 C 0.85629 0.14997 0.46954 0.0
C701 C 0.88369 0.15496 0.47415 0.0
C702 C 0.89357 0.18128 0.47469 0.0
C703 C 0.84515 0.12222 0.47102 0.0
C704 C 0.84789 0.10738 0.50213 0.0
C705 C 0.82957 0.11148 0.44339 0.0
C706 C 0.82642 0.12577 0.40947 0.0
C707 C 0.84887 0.13422 0.39033 0.0
C708 C 0.84576 0.14809 0.35871 0.0
C709 C 0.82028 0.15348 0.34583 0.0
C710 C 0.79786 0.14493 0.36448 0.0
C711 C 0.80086 0.13109 0.39614 0.0
H712 H 0.81792 0.16424 0.32137 0.0
H713 H 0.84141 0.03552 0.6333 0.0
H714 H 0.99484 0.74687 0.46938 0.0
H715 H 0.95337 0.77159 0.46261 0.0
H716 H 0.9896 0.84058 0.51055 0.0
H717 H 0.03115 0.81555 0.51829 0.0
H718 H 0.94036 0.83669 0.53303 0.0
H719 H 0.97967 0.83505 0.41872 0.0
H720 H 1.00042 0.81463 0.36649 0.0
H721 H 0.93002 0.76786 0.34884 0.0
H722 H 0.90897 0.78773 0.40125 0.0
H723 H 0.82728 0.91619 0.48223 0.0
H724 H 0.87371 0.90041 0.48576 0.0
H725 H 0.84948 0.82414 0.44417 0.0
H726 H 0.80372 0.83996 0.44 0.0
H727 H 0.89572 0.83731 0.41682 0.0
H728 H 0.85855 0.83612 0.53453 0.0
H729 H 0.83796 0.85654 0.58689 0.0
H730 H 0.90475 0.90949 0.5974 0.0
H731 H 0.92558 0.88957 0.54482 0.0
C732 C 0.99408 0.76729 0.47855 0.0
C733 C 0.01656 0.77919 0.49416 0.0
C734 C 0.97027 0.78154 0.47448 0.0
C735 C 0.96828 0.80833 0.48525 0.0
C736 C 0.99048 0.82005 0.50176 0.0
C737 C 0.0143 0.80567 0.50619 0.0
C738 C 0.94311 0.8239 0.4791 0.0
C739 C 0.9309 0.83718 0.50743 0.0
C740 C 0.93033 0.82454 0.44584 0.0
C741 C 0.94282 0.81275 0.41407 0.0
C742 C 0.96867 0.8203 0.40381 0.0
C743 C 0.98048 0.80883 0.37417 0.0
C744 C 0.96656 0.78992 0.3544 0.0
C745 C 0.94078 0.7825 0.36418 0.0
C746 C 0.92888 0.79389 0.39383 0.0
C747 C 0.83207 0.8963 0.47317 0.0
C748 C 0.81174 0.87928 0.46107 0.0
C749 C 0.85856 0.88713 0.47556 0.0
C750 C 0.86523 0.8608 0.46583 0.0
C751 C 0.84508 0.84443 0.45205 0.0
C752 C 0.81879 0.85349 0.4498 0.0
C753 C 0.8927 0.84956 0.47089 0.0
C754 C 0.90536 0.83708 0.44232 0.0
C755 C 0.90589 0.84974 0.50385 0.0
C756 C 0.89346 0.86158 0.53554 0.0
C757 C 0.86875 0.85224 0.54788 0.0
C758 C 0.85705 0.8637 0.57761 0.0
C759 C 0.87 0.88436 0.5954 0.0
C760 C 0.89472 0.89353 0.58356 0.0
C761 C 0.90648 0.88215 0.55381 0.0
H762 H 0.86091 0.89321 0.61841 0.0
H763 H 0.97575 0.78106 0.33147 0.0
H764 H 0.266 0.99796 0.46073 0.0
H765 H 0.24131 0.95623 0.45455 0.0
H766 H 0.17646 0.98926 0.51471 0.0
H767 H 0.20128 0.03102 0.52149 0.0
H768 H 0.18423 0.93921 0.53413 0.0
H769 H 0.17336 0.98275 0.42355 0.0
H770 H 0.18762 1.00582 0.36947 0.0
H771 H 0.23267 0.93699 0.33841 0.0
H772 H 0.21898 0.91362 0.39257 0.0
H773 H 0.09839 0.82938 0.49008 0.0
H774 H 0.11535 0.87555 0.49265 0.0
H775 H 0.18738 0.85062 0.44037 0.0
H776 H 0.1705 0.80491 0.43784 0.0
H777 H 0.17158 0.89885 0.41628 0.0
H778 H 0.18499 0.85705 0.52924 0.0
H779 H 0.17066 0.83407 0.58337 0.0
H780 H 0.12003 0.90015 0.60948 0.0
H781 H 0.1338 0.92337 0.5552 0.0
C782 C 0.24651 0.99644 0.47273 0.0
C783 C 0.2357 0.01809 0.49151 0.0
C784 C 0.23227 0.97249 0.469 0.0
C785 C 0.20667 0.96953 0.4836 0.0
C786 C 0.19606 0.99091 0.50302 0.0
C787 C 0.21034 0.01487 0.50686 0.0
C788 C 0.19111 0.94417 0.47862 0.0
C789 C 0.18109 0.93069 0.50825 0.0
C790 C 0.18713 0.9326 0.44498 0.0
C791 C 0.19531 0.94652 0.41228 0.0
C792 C 0.18646 0.9726 0.40531 0.0
C793 C 0.19442 0.98572 0.37463 0.0
C794 C 0.21109 0.9729 0.35056 0.0
C795 C 0.21978 0.9469 0.3571 0.0
C796 C 0.2119 0.9337 0.38777 0.0
C797 C 0.11753 0.83399 0.47844 0.0
C798 C 0.13313 0.81352 0.46382 0.0
C799 C 0.12737 0.8603 0.48022 0.0
C800 C 0.1529 0.86665 0.46713 0.0
C801 C 0.16772 0.84641 0.45077 0.0
C802 C 0.15807 0.82023 0.44937 0.0
C803 C 0.16502 0.8938 0.47178 0.0
C804 C 0.17446 0.90758 0.44209 0.0
C805 C 0.16838 0.90567 0.50532 0.0
C806 C 0.16017 0.89179 0.53798 0.0
C807 C 0.17063 0.86658 0.54638 0.0
C808 C 0.16264 0.85353 0.57711 0.0
C809 C 0.14438 0.8656 0.59979 0.0
C810 C 0.13413 0.89079 0.59184 0.0
C811 C 0.14202 0.90391 0.56111 0.0
H812 H 0.13823 0.85547 0.62358 0.0
H813 H 0.21723 0.98309 0.32682 0.0
H814 H 0.98136 0.19573 0.50256 0.0
H815 H 0.02401 0.17301 0.49516 0.0
H816 H 0.06248 0.24871 0.47656 0.0
H817 H 0.01954 0.27136 0.48231 0.0
H818 H 0.08225 0.21551 0.43335 0.0
H819 H 0.06672 0.21028 0.55802 0.0
H820 H 0.04165 0.19918 0.61186 0.0
H821 H 0.04116 0.11646 0.58262 0.0
H822 H 0.06597 0.12712 0.52839 0.0
H823 H 0.21587 0.18069 0.46981 0.0
H824 H 0.17049 0.19784 0.469 0.0
H825 H 0.13996 0.11746 0.47226 0.0
H826 H 0.1859 0.10012 0.47371 0.0
H827 H 0.11493 0.14945 0.52018 0.0
H828 H 0.13481 0.15552 0.39747 0.0
H829 H 0.16162 0.16777 0.34558 0.0
H830 H 0.15548 0.25057 0.37321 0.0
H831 H 0.12896 0.2388 0.42556 0.0
C832 C 0.99893 0.20759 0.49714 0.0
C833 C 0.99695 0.23545 0.4933 0.0
C834 C 0.02346 0.19453 0.49304 0.0
C835 C 0.0469 0.20901 0.48589 0.0
C836 C 0.04489 0.23689 0.48205 0.0
C837 C 0.02026 0.24991 0.48551 0.0
C838 C 0.07335 0.19522 0.4819 0.0
C839 C 0.08943 0.20131 0.45265 0.0
C840 C 0.08276 0.17599 0.50634 0.0
C841 C 0.06795 0.16954 0.53899 0.0
C842 C 0.06111 0.18975 0.56297 0.0
C843 C 0.04697 0.18354 0.59357 0.0
C844 C 0.03975 0.15715 0.6006 0.0
C845 C 0.04673 0.1369 0.57711 0.0
C846 C 0.06085 0.14301 0.54646 0.0
C847 C 0.19954 0.16659 0.47003 0.0
C848 C 0.20457 0.139 0.47192 0.0
C849 C 0.17349 0.17645 0.46935 0.0
C850 C 0.15158 0.15904 0.47035 0.0
C851 C 0.15646 0.13136 0.4714 0.0
C852 C 0.18271 0.12142 0.47187 0.0
C853 C 0.12385 0.17009 0.472 0.0
C854 C 0.10758 0.16349 0.50079 0.0
C855 C 0.11438 0.18906 0.44736 0.0
C856 C 0.13003 0.19624 0.41559 0.0
C857 C 0.1393 0.17633 0.3926 0.0
C858 C 0.15444 0.18319 0.36309 0.0
C859 C 0.16029 0.20993 0.35614 0.0
C860 C 0.15094 0.22987 0.37863 0.0
C861 C 0.13582 0.22311 0.4082 0.0
H862 H 0.17204 0.2152 0.3333 0.0
H863 H 0.0288 0.15238 0.6243 0.0
H864 H 0.42386 0.22416 0.15892 0.0
H865 H 0.40411 0.20823 0.21403 0.0
H866 H 0.3503 0.15799 0.15556 0.0
H867 H 0.36979 0.17394 0.10049 0.0
H868 H 0.32484 0.18123 0.21048 0.0
H869 H 0.40569 0.13219 0.19263 0.0
H870 H 0.45378 0.12672 0.18171 0.0
H871 H 0.4714 0.1687 0.27729 0.0
H872 H 0.42338 0.17479 0.28849 0.0
H873 H 0.28858 0.09159 0.34943 0.0
H874 H 0.3045 0.11176 0.29455 0.0
H875 H 0.35981 0.16024 0.35321 0.0
H876 H 0.34423 0.14 0.40792 0.0
H877 H 0.3841 0.13848 0.29815 0.0
H878 H 0.30281 0.18669 0.31656 0.0
H879 H 0.25464 0.19183 0.32716 0.0
H880 H 0.23767 0.15093 0.23059 0.0
H881 H 0.28576 0.14521 0.21965 0.0
C882 C 0.40764 0.20994 0.15778 0.0
C883 C 0.3985 0.20027 0.12525 0.0
C884 C 0.39643 0.20073 0.18934 0.0
C885 C 0.37588 0.18161 0.18908 0.0
C886 C 0.36612 0.17269 0.15656 0.0
C887 C 0.37736 0.1818 0.12504 0.0
C888 C 0.36523 0.17018 0.22256 0.0
C889 C 0.33777 0.17164 0.22948 0.0
C890 C 0.38206 0.15799 0.24774 0.0
C891 C 0.41095 0.15419 0.2412 0.0
C892 C 0.41982 0.14044 0.21118 0.0
C893 C 0.44707 0.1372 0.20496 0.0
C894 C 0.46564 0.14742 0.22874 0.0
C895 C 0.45699 0.16083 0.25885 0.0
C896 C 0.42977 0.16418 0.26516 0.0
C897 C 0.30398 0.1067 0.35064 0.0
C898 C 0.31507 0.11419 0.38312 0.0
C899 C 0.31303 0.1183 0.31923 0.0
C900 C 0.33329 0.13773 0.31961 0.0
C901 C 0.34421 0.14531 0.35208 0.0
C902 C 0.33518 0.13377 0.38343 0.0
C903 C 0.34369 0.14965 0.28625 0.0
C904 C 0.37115 0.14818 0.27927 0.0
C905 C 0.32683 0.16177 0.26104 0.0
C906 C 0.2979 0.16529 0.26746 0.0
C907 C 0.28881 0.1786 0.29772 0.0
C908 C 0.26152 0.18166 0.30377 0.0
C909 C 0.2431 0.17165 0.27962 0.0
C910 C 0.25195 0.15863 0.24931 0.0
C911 C 0.27923 0.1555 0.24315 0.0
H912 H 0.22198 0.17403 0.28435 0.0
H913 H 0.48672 0.14489 0.22389 0.0
H914 H 0.79197 0.42618 0.16484 0.0
H915 H 0.80852 0.4067 0.21977 0.0
H916 H 0.85753 0.35221 0.16056 0.0
H917 H 0.84094 0.37139 0.10576 0.0
H918 H 0.83482 0.32691 0.21509 0.0
H919 H 0.8838 0.40786 0.19781 0.0
H920 H 0.89004 0.45606 0.1879 0.0
H921 H 0.84954 0.47318 0.28473 0.0
H922 H 0.84263 0.42506 0.29492 0.0
H923 H 0.92437 0.28956 0.35345 0.0
H924 H 0.90456 0.30606 0.29868 0.0
H925 H 0.85553 0.36047 0.358 0.0
H926 H 0.87533 0.34428 0.41257 0.0
H927 H 0.87796 0.38546 0.30339 0.0
H928 H 0.82952 0.30383 0.32065 0.0
H929 H 0.82446 0.25547 0.33045 0.0
H930 H 0.86534 0.23947 0.23357 0.0
H931 H 0.87098 0.28776 0.22342 0.0
C932 C 0.8061 0.40991 0.16354 0.0
C933 C 0.81517 0.40042 0.13087 0.0
C934 C 0.81567 0.39886 0.19498 0.0
C935 C 0.83456 0.37814 0.19443 0.0
C936 C 0.84301 0.36816 0.16179 0.0
C937 C 0.83353 0.37922 0.13042 0.0
C938 C 0.84605 0.36726 0.2277 0.0
C939 C 0.84449 0.3397 0.23422 0.0
C940 C 0.85838 0.3839 0.25304 0.0
C941 C 0.86241 0.41286 0.24691 0.0
C942 C 0.87599 0.42191 0.21682 0.0
C943 C 0.87969 0.44921 0.21118 0.0
C944 C 0.87012 0.46768 0.23562 0.0
C945 C 0.85688 0.45886 0.26579 0.0
C946 C 0.85307 0.43157 0.2715 0.0
C947 C 0.90923 0.3049 0.35482 0.0
C948 C 0.90141 0.31553 0.38744 0.0
C949 C 0.89785 0.31428 0.32347 0.0
C950 C 0.87837 0.33445 0.32411 0.0
C951 C 0.87051 0.34495 0.35671 0.0
C952 C 0.8818 0.33557 0.38796 0.0
C953 C 0.86659 0.34513 0.29092 0.0
C954 C 0.86818 0.37268 0.28435 0.0
C955 C 0.8544 0.32846 0.26552 0.0
C956 C 0.8509 0.29942 0.27146 0.0
C957 C 0.83761 0.29 0.30157 0.0
C958 C 0.83461 0.2626 0.30716 0.0
C959 C 0.84463 0.2444 0.2827 0.0
C960 C 0.85762 0.25358 0.25252 0.0
C961 C 0.8607 0.28097 0.24682 0.0
H962 H 0.84229 0.2232 0.28708 0.0
H963 H 0.87303 0.48881 0.23122 0.0
H964 H 0.66612 0.8772 0.39975 0.0
H965 H 0.64958 0.85799 0.34496 0.0
H966 H 0.70291 0.90846 0.2859 0.0
H967 H 0.71932 0.92812 0.34086 0.0
H968 H 0.65437 0.90709 0.25542 0.0
H969 H 0.71619 0.84182 0.29839 0.0
H970 H 0.7356 0.81113 0.34204 0.0
H971 H 0.66192 0.76778 0.34723 0.0
H972 H 0.64194 0.79845 0.30395 0.0
H973 H 0.64208 0.84061 0.09272 0.0
H974 H 0.66059 0.85774 0.1476 0.0
H975 H 0.60639 0.80817 0.20659 0.0
H976 H 0.58803 0.79053 0.15153 0.0
H977 H 0.65527 0.80909 0.23694 0.0
H978 H 0.59353 0.87396 0.19332 0.0
H979 H 0.57504 0.90283 0.14689 0.0
H980 H 0.64844 0.94665 0.14233 0.0
H981 H 0.66762 0.91764 0.18817 0.0
C982 C 0.67444 0.88419 0.37514 0.0
C983 C 0.69421 0.90411 0.37477 0.0
C984 C 0.66498 0.87311 0.34374 0.0
C985 C 0.67517 0.88147 0.31112 0.0
C986 C 0.69472 0.90159 0.31065 0.0
C987 C 0.7042 0.91273 0.34212 0.0
C988 C 0.66543 0.86916 0.27767 0.0
C989 C 0.65491 0.88569 0.25125 0.0
C990 C 0.66548 0.84116 0.27231 0.0
C991 C 0.6775 0.82259 0.29818 0.0
C992 C 0.70407 0.82586 0.30903 0.0
C993 C 0.71518 0.80845 0.33368 0.0
C994 C 0.69998 0.78756 0.34746 0.0
C995 C 0.67366 0.78399 0.33656 0.0
C996 C 0.66244 0.80136 0.31195 0.0
C997 C 0.63424 0.83311 0.11734 0.0
C998 C 0.61345 0.81428 0.11769 0.0
C999 C 0.64478 0.84305 0.14877 0.0
C1000 C 0.63459 0.83466 0.18137 0.0
C1001 C 0.61453 0.81507 0.18183 0.0
C1002 C 0.60403 0.805 0.15031 0.0
C1003 C 0.6443 0.847 0.21476 0.0
C1004 C 0.65473 0.83049 0.24117 0.0
C1005 C 0.6441 0.875 0.22012 0.0
C1006 C 0.63213 0.89342 0.19394 0.0
C1007 C 0.60578 0.88968 0.18232 0.0
C1008 C 0.5952 0.90601 0.15603 0.0
C1009 C 0.61064 0.9264 0.14147 0.0
C1010 C 0.63657 0.93073 0.1535 0.0
C1011 C 0.64731 0.91435 0.17965 0.0
H1012 H 0.60244 0.93894 0.12101 0.0
H1013 H 0.70862 0.7741 0.36654 0.0
H1014 H 0.13652 0.67196 0.40346 0.0
H1015 H 0.15461 0.65559 0.34789 0.0
H1016 H 0.09721 0.70263 0.29093 0.0
H1017 H 0.07884 0.71906 0.3467 0.0
H1018 H 0.10124 0.65183 0.26424 0.0
H1019 H 0.16135 0.72243 0.2951 0.0
H1020 H 0.19193 0.74728 0.3338 0.0
H1021 H 0.24328 0.67902 0.3401 0.0
H1022 H 0.21279 0.65362 0.30183 0.0
H1023 H 0.16179 0.63648 0.09656 0.0
H1024 H 0.14407 0.65576 0.15081 0.0
H1025 H 0.20158 0.61136 0.21119 0.0
H1026 H 0.2196 0.59219 0.15691 0.0
H1027 H 0.19714 0.66181 0.23546 0.0
H1028 H 0.1376 0.59098 0.20533 0.0
H1029 H 0.10772 0.56567 0.16624 0.0
H1030 H 0.05536 0.63311 0.15931 0.0
H1031 H 0.0853 0.65909 0.19768 0.0
C1032 C 0.12777 0.67895 0.37914 0.0
C1033 C 0.10629 0.69694 0.37956 0.0
C1034 C 0.1382 0.66959 0.34732 0.0
C1035 C 0.12747 0.67802 0.3151 0.0
C1036 C 0.10587 0.69585 0.31541 0.0
C1037 C 0.09547 0.70533 0.34731 0.0
C1038 C 0.13879 0.66808 0.28124 0.0
C1039 C 0.12212 0.65439 0.25769 0.0
C1040 C 0.1662 0.67076 0.273 0.0
C1041 C 0.18466 0.68604 0.29585 0.0
C1042 C 0.17906 0.71265 0.30495 0.0
C1043 C 0.19639 0.72685 0.32678 0.0
C1044 C 0.2195 0.71472 0.33947 0.0
C1045 C 0.22536 0.68838 0.33028 0.0
C1046 C 0.20807 0.67408 0.30849 0.0
C1047 C 0.17078 0.63091 0.12136 0.0
C1048 C 0.19208 0.61272 0.12239 0.0
C1049 C 0.16053 0.64187 0.15241 0.0
C1050 C 0.17124 0.6348 0.18523 0.0
C1051 C 0.19293 0.61711 0.18624 0.0
C1052 C 0.20317 0.60611 0.15518 0.0
C1053 C 0.15961 0.64555 0.21846 0.0
C1054 C 0.17623 0.65934 0.24192 0.0
C1055 C 0.13219 0.64282 0.22668 0.0
C1056 C 0.11387 0.62709 0.20411 0.0
C1057 C 0.11983 0.6005 0.19526 0.0
C1058 C 0.10286 0.58602 0.17324 0.0
C1059 C 0.07966 0.59778 0.16027 0.0
C1060 C 0.07336 0.62404 0.16935 0.0
C1061 C 0.09033 0.63866 0.19122 0.0
H1062 H 0.06656 0.58655 0.14321 0.0
H1063 H 0.2329 0.72574 0.35637 0.0
H1064 H 0.59008 0.88215 0.89187 0.0
H1065 H 0.60614 0.89845 0.83491 0.0
H1066 H 0.62569 0.818 0.80443 0.0
H1067 H 0.60945 0.80155 0.86134 0.0
H1068 H 0.66736 0.85476 0.79268 0.0
H1069 H 0.57399 0.84647 0.76799 0.0
H1070 H 0.52607 0.85398 0.77793 0.0
H1071 H 0.5377 0.9385 0.76784 0.0
H1072 H 0.58581 0.93152 0.75834 0.0
H1073 H 0.69247 0.87166 0.61142 0.0
H1074 H 0.67583 0.85869 0.66914 0.0
H1075 H 0.65019 0.93948 0.68811 0.0
H1076 H 0.66631 0.95252 0.62955 0.0
H1077 H 0.61193 0.90466 0.7072 0.0
H1078 H 0.70458 0.91373 0.73037 0.0
H1079 H 0.75273 0.90713 0.72126 0.0
H1080 H 0.74313 0.82272 0.73568 0.0
H1081 H 0.69483 0.82876 0.74437 0.0
C1082 C 0.59759 0.8679 0.87291 0.0
C1083 C 0.59841 0.84053 0.88113 0.0
C1084 C 0.60671 0.87724 0.84032 0.0
C1085 C 0.61713 0.85948 0.8153 0.0
C1086 C 0.61775 0.8321 0.82328 0.0
C1087 C 0.60825 0.82269 0.8557 0.0
C1088 C 0.62811 0.86956 0.7813 0.0
C1089 C 0.65516 0.86535 0.77377 0.0
C1090 C 0.61246 0.88422 0.75712 0.0
C1091 C 0.58356 0.88849 0.76285 0.0
C1092 C 0.56638 0.86668 0.76823 0.0
C1093 C 0.53917 0.87084 0.77371 0.0
C1094 C 0.52886 0.89671 0.77363 0.0
C1095 C 0.54573 0.91848 0.76797 0.0
C1096 C 0.57297 0.91443 0.76251 0.0
C1097 C 0.6833 0.88675 0.6278 0.0
C1098 C 0.68065 0.91315 0.61565 0.0
C1099 C 0.67397 0.87932 0.66104 0.0
C1100 C 0.66188 0.89809 0.68331 0.0
C1101 C 0.65946 0.92459 0.67151 0.0
C1102 C 0.66891 0.9321 0.63813 0.0
C1103 C 0.6512 0.88965 0.71833 0.0
C1104 C 0.62421 0.89418 0.72613 0.0
C1105 C 0.66697 0.87544 0.74292 0.0
C1106 C 0.69602 0.87168 0.7377 0.0
C1107 C 0.71269 0.89373 0.73131 0.0
C1108 C 0.74002 0.8901 0.72627 0.0
C1109 C 0.75097 0.86452 0.7278 0.0
C1110 C 0.73461 0.84252 0.73446 0.0
C1111 C 0.70726 0.84604 0.73948 0.0
H1112 H 0.77214 0.86175 0.72391 0.0
H1113 H 0.50778 0.89989 0.77786 0.0
H1114 H 0.14487 0.69133 0.61262 0.0
H1115 H 0.15943 0.67388 0.66921 0.0
H1116 H 0.0784 0.653 0.69483 0.0
H1117 H 0.0636 0.67036 0.63769 0.0
H1118 H 0.10418 0.674 0.7516 0.0
H1119 H 0.12127 0.60522 0.66828 0.0
H1120 H 0.1385 0.58549 0.61346 0.0
H1121 H 0.21833 0.60586 0.64371 0.0
H1122 H 0.20152 0.62607 0.69854 0.0
H1123 H 0.13829 0.58694 0.89193 0.0
H1124 H 0.12214 0.60321 0.83542 0.0
H1125 H 0.20104 0.63071 0.80937 0.0
H1126 H 0.21734 0.6152 0.86653 0.0
H1127 H 0.17517 0.60518 0.7529 0.0
H1128 H 0.15672 0.67461 0.83662 0.0
H1129 H 0.13845 0.69323 0.89154 0.0
H1130 H 0.05965 0.66987 0.86037 0.0
H1131 H 0.07752 0.65073 0.80546 0.0
C1132 C 0.13007 0.68296 0.63016 0.0
C1133 C 0.10306 0.68193 0.62022 0.0
C1134 C 0.13846 0.67298 0.66262 0.0
C1135 C 0.12015 0.66157 0.68614 0.0
C1136 C 0.09298 0.66155 0.67709 0.0
C1137 C 0.08451 0.67158 0.64444 0.0
C1138 C 0.12966 0.64936 0.71973 0.0
C1139 C 0.1194 0.65866 0.75181 0.0
C1140 C 0.14987 0.62961 0.72024 0.0
C1141 C 0.1601 0.61739 0.68738 0.0
C1142 C 0.14248 0.60568 0.66312 0.0
C1143 C 0.15217 0.59438 0.63207 0.0
C1144 C 0.17949 0.59448 0.62506 0.0
C1145 C 0.19717 0.60583 0.64916 0.0
C1146 C 0.18758 0.61718 0.68025 0.0
C1147 C 0.1523 0.59657 0.8744 0.0
C1148 C 0.17914 0.60003 0.8843 0.0
C1149 C 0.14298 0.60579 0.84192 0.0
C1150 C 0.16024 0.61857 0.81827 0.0
C1151 C 0.1873 0.62099 0.82721 0.0
C1152 C 0.19663 0.61194 0.85991 0.0
C1153 C 0.14983 0.62996 0.78469 0.0
C1154 C 0.15992 0.62047 0.75263 0.0
C1155 C 0.12931 0.64936 0.7842 0.0
C1156 C 0.1185 0.66099 0.8171 0.0
C1157 C 0.13552 0.67324 0.84161 0.0
C1158 C 0.12524 0.68392 0.87271 0.0
C1159 C 0.09791 0.68267 0.87949 0.0
C1160 C 0.08081 0.67079 0.85511 0.0
C1161 C 0.09101 0.66003 0.82398 0.0
H1162 H 0.08999 0.69096 0.90358 0.0
H1163 H 0.18696 0.58572 0.60101 0.0
H1164 H 0.30308 0.09172 0.64641 0.0
H1165 H 0.3193 0.10605 0.70414 0.0
H1166 H 0.39838 0.11541 0.66159 0.0
H1167 H 0.3825 0.10036 0.60423 0.0
H1168 H 0.40115 0.0949 0.72602 0.0
H1169 H 0.35659 0.1692 0.67268 0.0
H1170 H 0.31922 0.19266 0.64428 0.0
H1171 H 0.27045 0.17915 0.73533 0.0
H1172 H 0.30744 0.15527 0.7641 0.0
H1173 H 0.45229 0.17639 0.86506 0.0
H1174 H 0.43817 0.16026 0.80711 0.0
H1175 H 0.35776 0.15164 0.84537 0.0
H1176 H 0.37141 0.16865 0.90252 0.0
H1177 H 0.3566 0.17217 0.78225 0.0
H1178 H 0.4014 0.09749 0.83547 0.0
H1179 H 0.43904 0.07433 0.86364 0.0
H1180 H 0.48767 0.08887 0.77278 0.0
H1181 H 0.45041 0.11247 0.74421 0.0
C1182 C 0.32402 0.09635 0.64948 0.0
C1183 C 0.34139 0.09514 0.62048 0.0
C1184 C 0.33324 0.10483 0.68246 0.0
C1185 C 0.36001 0.11238 0.68719 0.0
C1186 C 0.37762 0.10994 0.65869 0.0
C1187 C 0.36843 0.10149 0.62577 0.0
C1188 C 0.36953 0.12365 0.72137 0.0
C1189 C 0.39157 0.11198 0.73811 0.0
C1190 C 0.35693 0.14576 0.73755 0.0
C1191 C 0.3347 0.16021 0.72039 0.0
C1192 C 0.33784 0.17106 0.68654 0.0
C1193 C 0.31673 0.18445 0.67039 0.0
C1194 C 0.29245 0.18733 0.68795 0.0
C1195 C 0.28926 0.17687 0.72174 0.0
C1196 C 0.31029 0.16342 0.73799 0.0
C1197 C 0.43156 0.17132 0.86103 0.0
C1198 C 0.41312 0.17355 0.88877 0.0
C1199 C 0.42353 0.16181 0.82793 0.0
C1200 C 0.39691 0.15423 0.82185 0.0
C1201 C 0.37841 0.15713 0.84926 0.0
C1202 C 0.38637 0.16665 0.88218 0.0
C1203 C 0.38808 0.14326 0.78717 0.0
C1204 C 0.36619 0.15506 0.77024 0.0
C1205 C 0.40085 0.1213 0.77082 0.0
C1206 C 0.42321 0.10698 0.78786 0.0
C1207 C 0.42018 0.09592 0.8216 0.0
C1208 C 0.44144 0.08269 0.83763 0.0
C1209 C 0.46575 0.08019 0.82007 0.0
C1210 C 0.46884 0.09086 0.78638 0.0
C1211 C 0.44765 0.10415 0.77025 0.0
H1212 H 0.48218 0.06994 0.83254 0.0
H1213 H 0.27614 0.19771 0.67541 0.0
H1214 H 0.86919 0.3364 0.61358 0.0
H1215 H 0.85556 0.35347 0.6708 0.0
H1216 H 0.9371 0.35136 0.70603 0.0
H1217 H 0.95102 0.33429 0.64833 0.0
H1218 H 0.90313 0.33364 0.75689 0.0
H1219 H 0.90852 0.4101 0.68189 0.0
H1220 H 0.89948 0.43674 0.62876 0.0
H1221 H 0.8157 0.43469 0.65128 0.0
H1222 H 0.82421 0.40769 0.7043 0.0
H1223 H 0.88155 0.41317 0.90807 0.0
H1224 H 0.89747 0.39771 0.85094 0.0
H1225 H 0.81719 0.3995 0.81093 0.0
H1226 H 0.80105 0.41492 0.86827 0.0
H1227 H 0.85189 0.41813 0.76258 0.0
H1228 H 0.84617 0.34082 0.83641 0.0
H1229 H 0.85486 0.31381 0.88933 0.0
H1230 H 0.93889 0.3172 0.86885 0.0
H1231 H 0.93073 0.34457 0.81605 0.0
C1232 C 0.88434 0.33968 0.63335 0.0
C1233 C 0.91132 0.33433 0.62603 0.0
C1234 C 0.87647 0.34945 0.66617 0.0
C1235 C 0.89533 0.35428 0.69262 0.0
C1236 C 0.92217 0.34797 0.686 0.0
C1237 C 0.9301 0.33812 0.65302 0.0
C1238 C 0.88688 0.36616 0.72689 0.0
C1239 C 0.89231 0.35233 0.75815 0.0
C1240 C 0.87217 0.39027 0.72864 0.0
C1241 C 0.867 0.40667 0.69691 0.0
C1242 C 0.88815 0.41516 0.67538 0.0
C1243 C 0.88312 0.43035 0.6453 0.0
C1244 C 0.85702 0.43735 0.6366 0.0
C1245 C 0.8359 0.42923 0.65803 0.0
C1246 C 0.84082 0.414 0.68811 0.0
C1247 C 0.86722 0.41027 0.88717 0.0
C1248 C 0.83992 0.41502 0.89302 0.0
C1249 C 0.87638 0.4014 0.85444 0.0
C1250 C 0.85851 0.39688 0.8267 0.0
C1251 C 0.8314 0.4027 0.83192 0.0
C1252 C 0.82219 0.41164 0.86472 0.0
C1253 C 0.86806 0.38557 0.79258 0.0
C1254 C 0.8628 0.39949 0.76134 0.0
C1255 C 0.88289 0.36153 0.79085 0.0
C1256 C 0.88785 0.34497 0.82248 0.0
C1257 C 0.86652 0.33598 0.84334 0.0
C1258 C 0.87134 0.32058 0.8733 0.0
C1259 C 0.89741 0.31386 0.8825 0.0
C1260 C 0.91871 0.32246 0.86172 0.0
C1261 C 0.91399 0.3379 0.83176 0.0
H1262 H 0.90111 0.30193 0.9057 0.0
H1263 H 0.85317 0.44911 0.61331 0.0
loop_
_geom_bond_atom_site_label_1
_geom_bond_atom_site_label_2
_geom_bond_distance
_geom_bond_site_symmetry_2
_ccdc_geom_bond_type
Co0 N4 2.148 . S
Co0 N10 2.128 . S
Co0 N20 2.194 1_554 S
Co0 O25 2.351 . S
Co0 O26 2.155 . S
Co0 O27 2.096 . S
C1 N4 1.301 . S
C1 N5 1.328 . S
C1 H6 0.930 . S
C2 C3 1.333 . S
C2 N4 1.317 . S
C2 H7 0.930 . S
C3 C2 1.333 . S
C3 N5 1.350 . S
C3 H29 0.931 . S
N4 Co0 2.148 . S
N4 C1 1.301 . S
N4 C2 1.317 . S
N5 C1 1.328 . S
N5 C3 1.350 . S
H6 C1 0.930 . S
H7 C2 0.930 . S
C8 O9 1.224 1_554 S
C8 O27 1.247 . S
O9 C8 1.224 1_556 S
N10 Co0 2.128 . S
N10 C11 1.355 . S
N10 C13 1.311 . S
C11 N10 1.355 . S
C11 C12 1.363 . S
C11 H23 0.929 . S
C12 C11 1.363 . S
C12 N14 1.375 . S
C12 H30 0.931 . S
C13 N10 1.311 . S
C13 N14 1.347 . S
C13 H24 0.929 . S
N14 C12 1.375 . S
N14 C13 1.347 . S
C15 C18 1.365 . S
C15 N20 1.328 . S
C15 H21 0.929 1_556 S
C16 C17 1.362 . S
C16 C19 1.378 . S
C16 H31 0.929 . S
C17 C16 1.362 . S
C17 C18 1.366 . S
C18 C15 1.365 . S
C18 C17 1.366 . S
C18 H32 0.930 . S
C19 C16 1.378 . S
C19 N20 1.315 . S
C19 H22 0.930 . S
N20 Co0 2.194 1_556 S
N20 C15 1.328 . S
N20 C19 1.315 . S
H21 C15 0.929 1_554 S
H22 C19 0.930 . S
H23 C11 0.929 . S
H24 C13 0.929 . S
O25 Co0 2.351 . S
O25 C28 1.244 . S
O26 Co0 2.155 . S
O26 C28 1.240 . S
O27 Co0 2.096 . S
O27 C8 1.247 . S
C28 O25 1.244 . S
C28 O26 1.240 . S
H29 C3 0.931 . S
H30 C12 0.931 . S
H31 C16 0.929 . S
H32 C18 0.930 . S
Co33 N37 2.148 . S
Co33 N43 2.128 . S
Co33 N53 2.194 1_554 S
Co33 O58 2.351 . S
Co33 O59 2.155 . S
Co33 O60 2.096 . S
C34 N37 1.301 . S
C34 N38 1.328 . S
C34 H39 0.930 . S
C35 C36 1.333 . S
C35 N37 1.317 . S
C35 H40 0.930 . S
C36 C35 1.333 . S
C36 N38 1.350 . S
C36 H62 0.931 . S
N37 Co33 2.148 . S
N37 C34 1.301 . S
N37 C35 1.317 . S
N38 C34 1.328 . S
N38 C36 1.350 . S
H39 C34 0.930 . S
H40 C35 0.930 . S
C41 O42 1.224 1_554 S
C41 O60 1.247 . S
O42 C41 1.224 1_556 S
N43 Co33 2.128 . S
N43 C44 1.355 . S
N43 C46 1.311 . S
C44 N43 1.355 . S
C44 C45 1.363 . S
C44 H56 0.929 . S
C45 C44 1.363 . S
C45 N47 1.375 . S
C45 H63 0.931 . S
C46 N43 1.311 . S
C46 N47 1.347 . S
C46 H57 0.929 . S
N47 C45 1.375 . S
N47 C46 1.347 . S
C48 C51 1.365 . S
C48 N53 1.328 . S
C48 H54 0.929 1_556 S
C49 C50 1.362 . S
C49 C52 1.378 . S
C49 H64 0.929 . S
C50 C49 1.362 . S
C50 C51 1.366 . S
C51 C48 1.365 . S
C51 C50 1.366 . S
C51 H65 0.930 . S
C52 C49 1.378 . S
C52 N53 1.315 . S
C52 H55 0.930 . S
N53 Co33 2.194 1_556 S
N53 C48 1.328 . S
N53 C52 1.315 . S
H54 C48 0.929 1_554 S
H55 C52 0.930 . S
H56 C44 0.929 . S
H57 C46 0.929 . S
O58 Co33 2.351 . S
O58 C61 1.244 . S
O59 Co33 2.155 . S
O59 C61 1.240 . S
O60 Co33 2.096 . S
O60 C41 1.247 . S
C61 O58 1.244 . S
C61 O59 1.240 . S
H62 C36 0.931 . S
H63 C45 0.931 . S
H64 C49 0.929 . S
H65 C51 0.930 . S
Co66 N70 2.148 . S
Co66 N76 2.128 . S
Co66 N86 2.194 1_554 S
Co66 O91 2.351 . S
Co66 O92 2.155 . S
Co66 O93 2.096 . S
C67 N70 1.301 . S
C67 N71 1.328 . S
C67 H72 0.930 . S
C68 C69 1.333 . S
C68 N70 1.317 . S
C68 H73 0.930 . S
C69 C68 1.333 . S
C69 N71 1.350 . S
C69 H95 0.931 . S
N70 Co66 2.148 . S
N70 C67 1.301 . S
N70 C68 1.317 . S
N71 C67 1.328 . S
N71 C69 1.350 . S
H72 C67 0.930 . S
H73 C68 0.930 . S
C74 O75 1.224 1_554 S
C74 O93 1.247 . S
O75 C74 1.224 1_556 S
N76 Co66 2.128 . S
N76 C77 1.355 . S
N76 C79 1.311 . S
C77 N76 1.355 . S
C77 C78 1.363 . S
C77 H89 0.929 . S
C78 C77 1.363 . S
C78 N80 1.375 . S
C78 H96 0.931 . S
C79 N76 1.311 . S
C79 N80 1.347 . S
C79 H90 0.929 . S
N80 C78 1.375 . S
N80 C79 1.347 . S
C81 C84 1.365 . S
C81 N86 1.328 . S
C81 H87 0.929 1_556 S
C82 C83 1.362 . S
C82 C85 1.378 . S
C82 H97 0.929 . S
C83 C82 1.362 . S
C83 C84 1.366 . S
C84 C81 1.365 . S
C84 C83 1.366 . S
C84 H98 0.930 . S
C85 C82 1.378 . S
C85 N86 1.315 . S
C85 H88 0.930 . S
N86 Co66 2.194 1_556 S
N86 C81 1.328 . S
N86 C85 1.315 . S
H87 C81 0.929 1_554 S
H88 C85 0.930 . S
H89 C77 0.929 . S
H90 C79 0.929 . S
O91 Co66 2.351 . S
O91 C94 1.244 . S
O92 Co66 2.155 . S
O92 C94 1.240 . S
O93 Co66 2.096 . S
O93 C74 1.247 . S
C94 O91 1.244 . S
C94 O92 1.240 . S
H95 C69 0.931 . S
H96 C78 0.931 . S
H97 C82 0.929 . S
H98 C84 0.930 . S
Co99 N103 2.148 . S
Co99 N109 2.128 . S
Co99 N119 2.194 1_554 S
Co99 O124 2.351 . S
Co99 O125 2.155 . S
Co99 O126 2.096 . S
C100 N103 1.301 . S
C100 N104 1.328 . S
C100 H105 0.930 . S
C101 C102 1.333 . S
C101 N103 1.317 . S
C101 H106 0.930 . S
C102 C101 1.333 . S
C102 N104 1.350 . S
C102 H128 0.931 . S
N103 Co99 2.148 . S
N103 C100 1.301 . S
N103 C101 1.317 . S
N104 C100 1.328 . S
N104 C102 1.350 . S
H105 C100 0.930 . S
H106 C101 0.930 . S
C107 O108 1.224 1_554 S
C107 O126 1.247 . S
O108 C107 1.224 1_556 S
N109 Co99 2.128 . S
N109 C110 1.355 . S
N109 C112 1.311 . S
C110 N109 1.355 . S
C110 C111 1.363 . S
C110 H122 0.929 . S
C111 C110 1.363 . S
C111 N113 1.375 . S
C111 H129 0.931 . S
C112 N109 1.311 . S
C112 N113 1.347 . S
C112 H123 0.929 . S
N113 C111 1.375 . S
N113 C112 1.347 . S
C114 C117 1.365 . S
C114 N119 1.328 . S
C114 H120 0.929 1_556 S
C115 C116 1.362 . S
C115 C118 1.378 . S
C115 H130 0.929 . S
C116 C115 1.362 . S
C116 C117 1.366 . S
C117 C114 1.365 . S
C117 C116 1.366 . S
C117 H131 0.930 . S
C118 C115 1.378 . S
C118 N119 1.315 . S
C118 H121 0.930 . S
N119 Co99 2.194 1_556 S
N119 C114 1.328 . S
N119 C118 1.315 . S
H120 C114 0.929 1_554 S
H121 C118 0.930 . S
H122 C110 0.929 . S
H123 C112 0.929 . S
O124 Co99 2.351 . S
O124 C127 1.244 . S
O125 Co99 2.155 . S
O125 C127 1.240 . S
O126 Co99 2.096 . S
O126 C107 1.247 . S
C127 O124 1.244 . S
C127 O125 1.240 . S
H128 C102 0.931 . S
H129 C111 0.931 . S
H130 C115 0.929 . S
H131 C117 0.930 . S
Co132 N136 2.148 . S
Co132 N142 2.128 . S
Co132 N152 2.194 . S
Co132 O157 2.351 . S
Co132 O158 2.155 . S
Co132 O159 2.096 . S
C133 N136 1.301 . S
C133 N137 1.328 . S
C133 H138 0.930 . S
C134 C135 1.333 . S
C134 N136 1.317 . S
C134 H139 0.930 . S
C135 C134 1.333 . S
C135 N137 1.350 . S
C135 H161 0.931 1_655 S
N136 Co132 2.148 . S
N136 C133 1.301 . S
N136 C134 1.317 . S
N137 C133 1.328 . S
N137 C135 1.350 . S
H138 C133 0.930 . S
H139 C134 0.930 . S
C140 O141 1.224 . S
C140 O159 1.247 . S
O141 C140 1.224 . S
N142 Co132 2.128 . S
N142 C143 1.355 . S
N142 C145 1.311 . S
C143 N142 1.355 . S
C143 C144 1.363 . S
C143 H155 0.929 . S
C144 C143 1.363 . S
C144 N146 1.375 . S
C144 H162 0.931 . S
C145 N142 1.311 . S
C145 N146 1.347 . S
C145 H156 0.929 . S
N146 C144 1.375 . S
N146 C145 1.347 . S
C147 C150 1.365 . S
C147 N152 1.328 . S
C147 H153 0.929 . S
C148 C149 1.362 . S
C148 C151 1.378 . S
C148 H163 0.929 . S
C149 C148 1.362 . S
C149 C150 1.366 . S
C150 C147 1.365 . S
C150 C149 1.366 . S
C150 H164 0.930 . S
C151 C148 1.378 . S
C151 N152 1.315 . S
C151 H154 0.930 . S
N152 Co132 2.194 . S
N152 C147 1.328 . S
N152 C151 1.315 . S
H153 C147 0.929 . S
H154 C151 0.930 . S
H155 C143 0.929 . S
H156 C145 0.929 . S
O157 Co132 2.351 . S
O157 C160 1.244 . S
O158 Co132 2.155 . S
O158 C160 1.240 . S
O159 Co132 2.096 . S
O159 C140 1.247 . S
C160 O157 1.244 . S
C160 O158 1.240 . S
H161 C135 0.931 1_455 S
H162 C144 0.931 . S
H163 C148 0.929 . S
H164 C150 0.930 . S
Co165 N169 2.148 . S
Co165 N175 2.128 . S
Co165 N185 2.194 . S
Co165 O190 2.351 . S
Co165 O191 2.155 . S
Co165 O192 2.096 . S
C166 N169 1.301 . S
C166 N170 1.328 . S
C166 H171 0.930 . S
C167 C168 1.333 . S
C167 N169 1.317 . S
C167 H172 0.930 . S
C168 C167 1.333 . S
C168 N170 1.350 . S
C168 H194 0.931 1_565 S
N169 Co165 2.148 . S
N169 C166 1.301 . S
N169 C167 1.317 . S
N170 C166 1.328 . S
N170 C168 1.350 . S
H171 C166 0.930 . S
H172 C167 0.930 . S
C173 O174 1.224 . S
C173 O192 1.247 . S
O174 C173 1.224 . S
N175 Co165 2.128 . S
N175 C176 1.355 . S
N175 C178 1.311 . S
C176 N175 1.355 . S
C176 C177 1.363 . S
C176 H188 0.929 . S
C177 C176 1.363 . S
C177 N179 1.375 . S
C177 H195 0.931 . S
C178 N175 1.311 . S
C178 N179 1.347 . S
C178 H189 0.929 . S
N179 C177 1.375 . S
N179 C178 1.347 . S
C180 C183 1.365 . S
C180 N185 1.328 . S
C180 H186 0.929 . S
C181 C182 1.362 . S
C181 C184 1.378 . S
C181 H196 0.929 . S
C182 C181 1.362 . S
C182 C183 1.366 . S
C183 C180 1.365 . S
C183 C182 1.366 . S
C183 H197 0.930 . S
C184 C181 1.378 . S
C184 N185 1.315 . S
C184 H187 0.930 . S
N185 Co165 2.194 . S
N185 C180 1.328 . S
N185 C184 1.315 . S
H186 C180 0.929 . S
H187 C184 0.930 . S
H188 C176 0.929 . S
H189 C178 0.929 . S
O190 Co165 2.351 . S
O190 C193 1.244 . S
O191 Co165 2.155 . S
O191 C193 1.240 . S
O192 Co165 2.096 . S
O192 C173 1.247 . S
C193 O190 1.244 . S
C193 O191 1.240 . S
H194 C168 0.931 1_545 S
H195 C177 0.931 . S
H196 C181 0.929 . S
H197 C183 0.930 . S
Co198 N202 2.148 . S
Co198 N208 2.128 . S
Co198 N218 2.194 . S
Co198 O223 2.351 . S
Co198 O224 2.155 . S
Co198 O225 2.096 . S
C199 N202 1.301 . S
C199 N203 1.328 . S
C199 H204 0.930 . S
C200 C201 1.333 . S
C200 N202 1.317 . S
C200 H205 0.930 . S
C201 C200 1.333 . S
C201 N203 1.350 . S
C201 H227 0.931 1_455 S
N202 Co198 2.148 . S
N202 C199 1.301 . S
N202 C200 1.317 . S
N203 C199 1.328 . S
N203 C201 1.350 . S
H204 C199 0.930 . S
H205 C200 0.930 . S
C206 O207 1.224 . S
C206 O225 1.247 . S
O207 C206 1.224 . S
N208 Co198 2.128 . S
N208 C209 1.355 . S
N208 C211 1.311 . S
C209 N208 1.355 . S
C209 C210 1.363 . S
C209 H221 0.929 . S
C210 C209 1.363 . S
C210 N212 1.375 . S
C210 H228 0.931 . S
C211 N208 1.311 . S
C211 N212 1.347 . S
C211 H222 0.929 . S
N212 C210 1.375 . S
N212 C211 1.347 . S
C213 C216 1.365 . S
C213 N218 1.328 . S
C213 H219 0.929 . S
C214 C215 1.362 . S
C214 C217 1.378 . S
C214 H229 0.929 . S
C215 C214 1.362 . S
C215 C216 1.366 . S
C216 C213 1.365 . S
C216 C215 1.366 . S
C216 H230 0.930 . S
C217 C214 1.378 . S
C217 N218 1.315 . S
C217 H220 0.930 . S
N218 Co198 2.194 . S
N218 C213 1.328 . S
N218 C217 1.315 . S
H219 C213 0.929 . S
H220 C217 0.930 . S
H221 C209 0.929 . S
H222 C211 0.929 . S
O223 Co198 2.351 . S
O223 C226 1.244 . S
O224 Co198 2.155 . S
O224 C226 1.240 . S
O225 Co198 2.096 . S
O225 C206 1.247 . S
C226 O223 1.244 . S
C226 O224 1.240 . S
H227 C201 0.931 1_655 S
H228 C210 0.931 . S
H229 C214 0.929 . S
H230 C216 0.930 . S
Co231 N235 2.148 . S
Co231 N241 2.128 . S
Co231 N251 2.194 . S
Co231 O256 2.351 . S
Co231 O257 2.155 . S
Co231 O258 2.096 . S
C232 N235 1.301 . S
C232 N236 1.328 . S
C232 H237 0.930 . S
C233 C234 1.333 . S
C233 N235 1.317 . S
C233 H238 0.930 . S
C234 C233 1.333 . S
C234 N236 1.350 . S
C234 H260 0.931 1_545 S
N235 Co231 2.148 . S
N235 C232 1.301 . S
N235 C233 1.317 . S
N236 C232 1.328 . S
N236 C234 1.350 . S
H237 C232 0.930 . S
H238 C233 0.930 . S
C239 O240 1.224 . S
C239 O258 1.247 . S
O240 C239 1.224 . S
N241 Co231 2.128 . S
N241 C242 1.355 . S
N241 C244 1.311 . S
C242 N241 1.355 . S
C242 C243 1.363 . S
C242 H254 0.929 . S
C243 C242 1.363 . S
C243 N245 1.375 . S
C243 H261 0.931 . S
C244 N241 1.311 . S
C244 N245 1.347 . S
C244 H255 0.929 . S
N245 C243 1.375 . S
N245 C244 1.347 . S
C246 C249 1.365 . S
C246 N251 1.328 . S
C246 H252 0.929 . S
C247 C248 1.362 . S
C247 C250 1.378 . S
C247 H262 0.929 . S
C248 C247 1.362 . S
C248 C249 1.366 . S
C249 C246 1.365 . S
C249 C248 1.366 . S
C249 H263 0.930 . S
C250 C247 1.378 . S
C250 N251 1.315 . S
C250 H253 0.930 . S
N251 Co231 2.194 . S
N251 C246 1.328 . S
N251 C250 1.315 . S
H252 C246 0.929 . S
H253 C250 0.930 . S
H254 C242 0.929 . S
H255 C244 0.929 . S
O256 Co231 2.351 . S
O256 C259 1.244 . S
O257 Co231 2.155 . S
O257 C259 1.240 . S
O258 Co231 2.096 . S
O258 C239 1.247 . S
C259 O256 1.244 . S
C259 O257 1.240 . S
H260 C234 0.931 1_565 S
H261 C243 0.931 . S
H262 C247 0.929 . S
H263 C249 0.930 . S
H264 C282 0.951 . S
H265 C284 0.951 . S
H266 C286 0.950 . S
H267 C287 0.950 . S
H268 C289 0.949 1_556 S
H269 C292 0.950 . S
H270 C293 0.950 . S
H271 C295 0.958 . S
H272 C296 0.950 1_545 S
H273 C297 0.951 . S
H274 C299 0.951 . S
H275 C301 0.950 . S
H276 C302 0.950 . S
H277 C304 0.950 . S
H278 C307 0.950 . S
H279 C308 0.950 . S
H280 C310 0.958 . S
H281 C311 0.950 1_565 S
C282 H264 0.951 . S
C282 C283 1.366 . S
C282 C284 1.388 . S
C283 C282 1.366 . S
C283 C287 1.385 . S
C284 H265 0.951 . S
C284 C282 1.388 . S
C284 C285 1.366 . S
C285 C284 1.366 . S
C285 C286 1.414 . S
C285 C288 1.499 . S
C286 H266 0.950 . S
C286 C285 1.414 . S
C286 C287 1.374 . S
C287 H267 0.950 . S
C287 C283 1.385 . S
C287 C286 1.374 . S
C288 C285 1.499 . S
C288 C289 1.373 . S
C288 C290 1.389 . S
C289 H268 0.949 1_554 S
C289 C288 1.373 . S
C289 C305 1.377 1_565 S
C290 C288 1.389 . S
C290 C291 1.524 . S
C290 C304 1.377 1_565 S
C291 C290 1.524 . S
C291 C292 1.397 . S
C291 C296 1.363 . S
C292 H269 0.950 . S
C292 C291 1.397 . S
C292 C293 1.334 . S
C293 H270 0.950 . S
C293 C292 1.334 . S
C293 C294 1.287 . S
C294 C293 1.287 . S
C294 C295 1.524 . S
C294 H313 0.913 . S
C295 H271 0.958 . S
C295 C294 1.524 . S
C295 C296 1.415 . S
C296 H272 0.950 1_565 S
C296 C291 1.363 . S
C296 C295 1.415 . S
C297 H273 0.951 . S
C297 C298 1.366 . S
C297 C299 1.388 . S
C298 C297 1.366 . S
C298 C302 1.385 . S
C299 H274 0.951 . S
C299 C297 1.388 . S
C299 C300 1.366 . S
C300 C299 1.366 . S
C300 C301 1.414 . S
C300 C303 1.499 . S
C301 H275 0.950 . S
C301 C300 1.414 . S
C301 C302 1.374 . S
C302 H276 0.950 . S
C302 C298 1.385 . S
C302 C301 1.374 . S
C303 C300 1.499 . S
C303 C304 1.373 . S
C303 C305 1.389 . S
C304 H277 0.950 . S
C304 C290 1.377 1_545 S
C304 C303 1.373 . S
C305 C289 1.377 1_545 S
C305 C303 1.389 . S
C305 C306 1.524 1_554 S
C306 C305 1.524 1_556 S
C306 C307 1.397 . S
C306 C311 1.363 . S
C307 H278 0.950 . S
C307 C306 1.397 . S
C307 C308 1.334 . S
C308 H279 0.950 . S
C308 C307 1.334 . S
C308 C309 1.287 . S
C309 C308 1.287 . S
C309 C310 1.524 . S
C309 H312 0.999 . S
C310 H280 0.958 . S
C310 C309 1.524 . S
C310 C311 1.415 . S
C311 H281 0.950 1_545 S
C311 C306 1.363 . S
C311 C310 1.415 . S
H312 C309 0.999 . S
H313 C294 0.913 . S
H314 C332 0.951 . S
H315 C334 0.951 . S
H316 C336 0.950 . S
H317 C337 0.950 . S
H318 C339 0.950 . S
H319 C342 0.950 . S
H320 C343 0.950 . S
H321 C345 0.950 . S
H322 C346 0.950 . S
H323 C347 0.951 . S
H324 C349 0.951 . S
H325 C351 0.950 . S
H326 C352 0.950 . S
H327 C354 0.950 1_556 S
H328 C357 0.950 . S
H329 C358 0.950 . S
H330 C360 0.950 . S
H331 C361 0.950 . S
C332 H314 0.951 . S
C332 C333 1.366 . S
C332 C334 1.388 . S
C333 C332 1.366 . S
C333 C337 1.385 . S
C334 H315 0.951 . S
C334 C332 1.388 . S
C334 C335 1.366 . S
C335 C334 1.366 . S
C335 C336 1.414 . S
C335 C338 1.499 . S
C336 H316 0.950 . S
C336 C335 1.414 . S
C336 C337 1.374 . S
C337 H317 0.950 . S
C337 C333 1.385 . S
C337 C336 1.374 . S
C338 C335 1.499 . S
C338 C339 1.373 . S
C338 C340 1.389 . S
C339 H318 0.950 . S
C339 C338 1.373 . S
C339 C355 1.377 1_655 S
C340 C338 1.389 . S
C340 C341 1.524 1_554 S
C340 C354 1.377 1_655 S
C341 C340 1.524 1_556 S
C341 C342 1.397 . S
C341 C346 1.363 . S
C342 H319 0.950 . S
C342 C341 1.397 . S
C342 C343 1.334 . S
C343 H320 0.950 . S
C343 C342 1.334 . S
C343 C344 1.287 . S
C344 C343 1.287 . S
C344 C345 1.524 . S
C344 H363 0.913 . S
C345 H321 0.950 . S
C345 C344 1.524 . S
C345 C346 1.415 . S
C346 H322 0.950 . S
C346 C341 1.363 . S
C346 C345 1.415 . S
C347 H323 0.951 . S
C347 C348 1.366 . S
C347 C349 1.388 . S
C348 C347 1.366 . S
C348 C352 1.385 . S
C349 H324 0.951 . S
C349 C347 1.388 . S
C349 C350 1.366 . S
C350 C349 1.366 . S
C350 C351 1.414 . S
C350 C353 1.499 . S
C351 H325 0.950 . S
C351 C350 1.414 . S
C351 C352 1.374 . S
C352 H326 0.950 . S
C352 C348 1.385 . S
C352 C351 1.374 . S
C353 C350 1.499 . S
C353 C354 1.373 . S
C353 C355 1.389 . S
C354 H327 0.950 1_554 S
C354 C340 1.377 1_455 S
C354 C353 1.373 . S
C355 C339 1.377 1_455 S
C355 C353 1.389 . S
C355 C356 1.524 . S
C356 C355 1.524 . S
C356 C357 1.397 . S
C356 C361 1.363 . S
C357 H328 0.950 . S
C357 C356 1.397 . S
C357 C358 1.334 . S
C358 H329 0.950 . S
C358 C357 1.334 . S
C358 C359 1.287 . S
C359 C358 1.287 . S
C359 C360 1.524 . S
C359 H362 0.999 . S
C360 H330 0.950 . S
C360 C359 1.524 . S
C360 C361 1.415 . S
C361 H331 0.950 . S
C361 C356 1.363 . S
C361 C360 1.415 . S
H362 C359 0.999 . S
H363 C344 0.913 . S
H364 C382 0.951 . S
H365 C384 0.951 . S
H366 C386 0.947 . S
H367 C387 0.950 1_455 S
H368 C389 0.950 . S
H369 C392 0.950 . S
H370 C393 0.950 . S
H371 C395 0.950 . S
H372 C396 0.950 . S
H373 C397 0.951 . S
H374 C399 0.951 . S
H375 C401 0.947 . S
H376 C402 0.950 1_655 S
H377 C404 0.950 . S
H378 C407 0.950 . S
H379 C408 0.950 . S
H380 C410 0.950 . S
H381 C411 0.950 . S
C382 H364 0.951 . S
C382 C383 1.366 . S
C382 C384 1.388 . S
C383 C382 1.366 . S
C383 C387 1.385 . S
C384 H365 0.951 . S
C384 C382 1.388 . S
C384 C385 1.366 . S
C385 C384 1.366 . S
C385 C386 1.417 1_655 S
C385 C388 1.499 . S
C386 H366 0.947 . S
C386 C385 1.417 1_455 S
C386 C387 1.375 1_455 S
C387 H367 0.950 1_655 S
C387 C383 1.385 . S
C387 C386 1.375 1_655 S
C388 C385 1.499 . S
C388 C389 1.373 1_655 S
C388 C390 1.389 . S
C389 H368 0.950 . S
C389 C388 1.373 1_455 S
C389 C405 1.377 . S
C390 C388 1.389 . S
C390 C391 1.524 . S
C390 C404 1.377 . S
C391 C390 1.524 . S
C391 C392 1.397 . S
C391 C396 1.363 . S
C392 H369 0.950 . S
C392 C391 1.397 . S
C392 C393 1.334 . S
C393 H370 0.950 . S
C393 C392 1.334 . S
C393 C394 1.287 . S
C394 C393 1.287 . S
C394 C395 1.524 . S
C394 H413 0.913 . S
C395 H371 0.950 . S
C395 C394 1.524 . S
C395 C396 1.415 . S
C396 H372 0.950 . S
C396 C391 1.363 . S
C396 C395 1.415 . S
C397 H373 0.951 . S
C397 C398 1.366 . S
C397 C399 1.388 . S
C398 C397 1.366 . S
C398 C402 1.385 . S
C399 H374 0.951 . S
C399 C397 1.388 . S
C399 C400 1.366 . S
C400 C399 1.366 . S
C400 C401 1.417 1_455 S
C400 C403 1.499 . S
C401 H375 0.947 . S
C401 C400 1.417 1_655 S
C401 C402 1.375 1_655 S
C402 H376 0.950 1_455 S
C402 C398 1.385 . S
C402 C401 1.375 1_455 S
C403 C400 1.499 . S
C403 C404 1.373 1_455 S
C403 C405 1.389 . S
C404 H377 0.950 . S
C404 C390 1.377 . S
C404 C403 1.373 1_655 S
C405 C389 1.377 . S
C405 C403 1.389 . S
C405 C406 1.524 . S
C406 C405 1.524 . S
C406 C407 1.397 . S
C406 C411 1.363 . S
C407 H378 0.950 . S
C407 C406 1.397 . S
C407 C408 1.334 . S
C408 H379 0.950 . S
C408 C407 1.334 . S
C408 C409 1.287 . S
C409 C408 1.287 . S
C409 C410 1.524 . S
C409 H412 0.999 . S
C410 H380 0.950 . S
C410 C409 1.524 . S
C410 C411 1.415 . S
C411 H381 0.950 . S
C411 C406 1.363 . S
C411 C410 1.415 . S
H412 C409 0.999 . S
H413 C394 0.913 . S
H414 C432 0.951 . S
H415 C434 0.951 . S
H416 C436 0.950 . S
H417 C437 0.950 1_545 S
H418 C439 0.950 . S
H419 C442 0.950 . S
H420 C443 0.950 . S
H421 C445 0.950 . S
H422 C446 0.950 . S
H423 C447 0.951 . S
H424 C449 0.951 . S
H425 C451 0.950 . S
H426 C452 0.950 1_565 S
H427 C454 0.950 . S
H428 C457 0.950 . S
H429 C458 0.950 . S
H430 C460 0.950 . S
H431 C461 0.950 . S
C432 H414 0.951 . S
C432 C433 1.366 . S
C432 C434 1.388 . S
C433 C432 1.366 . S
C433 C437 1.385 . S
C434 H415 0.951 . S
C434 C432 1.388 . S
C434 C435 1.366 . S
C435 C434 1.366 . S
C435 C436 1.414 1_565 S
C435 C438 1.499 . S
C436 H416 0.950 . S
C436 C435 1.414 1_545 S
C436 C437 1.374 1_545 S
C437 H417 0.950 1_565 S
C437 C433 1.385 . S
C437 C436 1.374 1_565 S
C438 C435 1.499 . S
C438 C439 1.373 1_565 S
C438 C440 1.389 . S
C439 H418 0.950 . S
C439 C438 1.373 1_545 S
C439 C455 1.377 . S
C440 C438 1.389 . S
C440 C441 1.524 . S
C440 C454 1.377 . S
C441 C440 1.524 . S
C441 C442 1.397 . S
C441 C446 1.363 . S
C442 H419 0.950 . S
C442 C441 1.397 . S
C442 C443 1.334 . S
C443 H420 0.950 . S
C443 C442 1.334 . S
C443 C444 1.287 . S
C444 C443 1.287 . S
C444 C445 1.524 . S
C444 H463 0.913 . S
C445 H421 0.950 . S
C445 C444 1.524 . S
C445 C446 1.415 . S
C446 H422 0.950 . S
C446 C441 1.363 . S
C446 C445 1.415 . S
C447 H423 0.951 . S
C447 C448 1.366 . S
C447 C449 1.388 . S
C448 C447 1.366 . S
C448 C452 1.385 . S
C449 H424 0.951 . S
C449 C447 1.388 . S
C449 C450 1.366 . S
C450 C449 1.366 . S
C450 C451 1.414 1_545 S
C450 C453 1.499 . S
C451 H425 0.950 . S
C451 C450 1.414 1_565 S
C451 C452 1.374 1_565 S
C452 H426 0.950 1_545 S
C452 C448 1.385 . S
C452 C451 1.374 1_545 S
C453 C450 1.499 . S
C453 C454 1.373 1_545 S
C453 C455 1.389 . S
C454 H427 0.950 . S
C454 C440 1.377 . S
C454 C453 1.373 1_565 S
C455 C439 1.377 . S
C455 C453 1.389 . S
C455 C456 1.524 . S
C456 C455 1.524 . S
C456 C457 1.397 . S
C456 C461 1.363 . S
C457 H428 0.950 . S
C457 C456 1.397 . S
C457 C458 1.334 . S
C458 H429 0.950 . S
C458 C457 1.334 . S
C458 C459 1.287 . S
C459 C458 1.287 . S
C459 C460 1.524 . S
C459 H462 0.999 . S
C460 H430 0.950 . S
C460 C459 1.524 . S
C460 C461 1.415 . S
C461 H431 0.950 . S
C461 C456 1.363 . S
C461 C460 1.415 . S
H462 C459 0.999 . S
H463 C444 0.913 . S
H464 C482 0.951 . S
H465 C484 0.951 . S
H466 C486 0.950 1_556 S
H467 C487 0.950 1_556 S
H468 C489 0.950 . S
H469 C492 0.950 . S
H470 C493 0.950 . S
H471 C495 0.950 . S
H472 C496 0.950 . S
H473 C497 0.951 1_556 S
H474 C499 0.951 1_556 S
H475 C501 0.950 . S
H476 C502 0.950 . S
H477 C504 0.950 . S
H478 C507 0.950 . S
H479 C508 0.950 . S
H480 C510 0.950 . S
H481 C511 0.950 1_556 S
C482 H464 0.951 . S
C482 C483 1.366 . S
C482 C484 1.388 . S
C483 C482 1.366 . S
C483 C487 1.385 . S
C484 H465 0.951 . S
C484 C482 1.388 . S
C484 C485 1.366 . S
C485 C484 1.366 . S
C485 C486 1.414 . S
C485 C488 1.499 . S
C486 H466 0.950 1_554 S
C486 C485 1.414 . S
C486 C487 1.374 . S
C487 H467 0.950 1_554 S
C487 C483 1.385 . S
C487 C486 1.374 . S
C488 C485 1.499 . S
C488 C489 1.373 . S
C488 C490 1.389 . S
C489 H468 0.950 . S
C489 C488 1.373 . S
C489 C505 1.377 . S
C490 C488 1.389 . S
C490 C491 1.524 . S
C490 C504 1.377 . S
C491 C490 1.524 . S
C491 C492 1.397 1_554 S
C491 C496 1.363 . S
C492 H469 0.950 . S
C492 C491 1.397 1_556 S
C492 C493 1.334 . S
C493 H470 0.950 . S
C493 C492 1.334 . S
C493 C494 1.287 . S
C494 C493 1.287 . S
C494 C495 1.524 1_556 S
C494 H513 0.913 . S
C495 H471 0.950 . S
C495 C494 1.524 1_554 S
C495 C496 1.415 . S
C496 H472 0.950 . S
C496 C491 1.363 . S
C496 C495 1.415 . S
C497 H473 0.951 1_554 S
C497 C498 1.366 . S
C497 C499 1.388 . S
C498 C497 1.366 . S
C498 C502 1.385 . S
C499 H474 0.951 1_554 S
C499 C497 1.388 . S
C499 C500 1.366 . S
C500 C499 1.366 . S
C500 C501 1.414 . S
C500 C503 1.499 . S
C501 H475 0.950 . S
C501 C500 1.414 . S
C501 C502 1.374 . S
C502 H476 0.950 . S
C502 C498 1.385 . S
C502 C501 1.374 . S
C503 C500 1.499 . S
C503 C504 1.373 . S
C503 C505 1.389 . S
C504 H477 0.950 . S
C504 C490 1.377 . S
C504 C503 1.373 . S
C505 C489 1.377 . S
C505 C503 1.389 . S
C505 C506 1.524 . S
C506 C505 1.524 . S
C506 C507 1.397 . S
C506 C511 1.363 . S
C507 H478 0.950 . S
C507 C506 1.397 . S
C507 C508 1.334 . S
C508 H479 0.950 . S
C508 C507 1.334 . S
C508 C509 1.287 . S
C509 C508 1.287 . S
C509 C510 1.524 . S
C509 H512 0.999 . S
C510 H480 0.950 . S
C510 C509 1.524 . S
C510 C511 1.415 . S
C511 H481 0.950 1_554 S
C511 C506 1.363 . S
C511 C510 1.415 . S
H512 C509 0.999 . S
H513 C494 0.913 . S
H514 C532 0.951 . S
H515 C534 0.951 . S
H516 C536 0.950 . S
H517 C537 0.950 . S
H518 C539 0.950 . S
H519 C542 0.950 . S
H520 C543 0.950 . S
H521 C545 0.950 . S
H522 C546 0.950 . S
H523 C547 0.951 . S
H524 C549 0.951 . S
H525 C551 0.950 . S
H526 C552 0.950 . S
H527 C554 0.950 1_556 S
H528 C557 0.950 . S
H529 C558 0.950 . S
H530 C560 0.950 . S
H531 C561 0.950 . S
C532 H514 0.951 . S
C532 C533 1.366 . S
C532 C534 1.388 . S
C533 C532 1.366 . S
C533 C537 1.385 . S
C534 H515 0.951 . S
C534 C532 1.388 . S
C534 C535 1.366 . S
C535 C534 1.366 . S
C535 C536 1.414 . S
C535 C538 1.499 . S
C536 H516 0.950 . S
C536 C535 1.414 . S
C536 C537 1.374 . S
C537 H517 0.950 . S
C537 C533 1.385 . S
C537 C536 1.374 . S
C538 C535 1.499 . S
C538 C539 1.373 . S
C538 C540 1.389 . S
C539 H518 0.950 . S
C539 C538 1.373 . S
C539 C555 1.377 . S
C540 C538 1.389 . S
C540 C541 1.524 1_554 S
C540 C554 1.377 . S
C541 C540 1.524 1_556 S
C541 C542 1.397 . S
C541 C546 1.363 . S
C542 H519 0.950 . S
C542 C541 1.397 . S
C542 C543 1.334 . S
C543 H520 0.950 . S
C543 C542 1.334 . S
C543 C544 1.287 . S
C544 C543 1.287 . S
C544 C545 1.524 . S
C544 H563 0.913 . S
C545 H521 0.950 . S
C545 C544 1.524 . S
C545 C546 1.415 . S
C546 H522 0.950 . S
C546 C541 1.363 . S
C546 C545 1.415 . S
C547 H523 0.951 . S
C547 C548 1.366 . S
C547 C549 1.388 . S
C548 C547 1.366 . S
C548 C552 1.385 . S
C549 H524 0.951 . S
C549 C547 1.388 . S
C549 C550 1.366 . S
C550 C549 1.366 . S
C550 C551 1.414 . S
C550 C553 1.499 . S
C551 H525 0.950 . S
C551 C550 1.414 . S
C551 C552 1.374 . S
C552 H526 0.950 . S
C552 C548 1.385 . S
C552 C551 1.374 . S
C553 C550 1.499 . S
C553 C554 1.373 . S
C553 C555 1.389 . S
C554 H527 0.950 1_554 S
C554 C540 1.377 . S
C554 C553 1.373 . S
C555 C539 1.377 . S
C555 C553 1.389 . S
C555 C556 1.524 . S
C556 C555 1.524 . S
C556 C557 1.397 . S
C556 C561 1.363 . S
C557 H528 0.950 . S
C557 C556 1.397 . S
C557 C558 1.334 . S
C558 H529 0.950 . S
C558 C557 1.334 . S
C558 C559 1.287 . S
C559 C558 1.287 . S
C559 C560 1.524 . S
C559 H562 0.999 . S
C560 H530 0.950 . S
C560 C559 1.524 . S
C560 C561 1.415 . S
C561 H531 0.950 . S
C561 C556 1.363 . S
C561 C560 1.415 . S
H562 C559 0.999 . S
H563 C544 0.913 . S
H564 C582 0.951 . S
H565 C584 0.951 . S
H566 C586 0.950 1_556 S
H567 C587 0.950 1_556 S
H568 C589 0.950 . S
H569 C592 0.950 . S
H570 C593 0.950 . S
H571 C595 0.950 . S
H572 C596 0.950 . S
H573 C597 0.951 1_556 S
H574 C599 0.951 1_556 S
H575 C601 0.950 . S
H576 C602 0.950 . S
H577 C604 0.950 . S
H578 C607 0.950 . S
H579 C608 0.950 . S
H580 C610 0.950 . S
H581 C611 0.950 . S
C582 H564 0.951 . S
C582 C583 1.366 . S
C582 C584 1.388 . S
C583 C582 1.366 . S
C583 C587 1.385 . S
C584 H565 0.951 . S
C584 C582 1.388 . S
C584 C585 1.366 . S
C585 C584 1.366 . S
C585 C586 1.414 . S
C585 C588 1.499 . S
C586 H566 0.950 1_554 S
C586 C585 1.414 . S
C586 C587 1.374 . S
C587 H567 0.950 1_554 S
C587 C583 1.385 . S
C587 C586 1.374 . S
C588 C585 1.499 . S
C588 C589 1.373 1_554 S
C588 C590 1.389 . S
C589 H568 0.950 . S
C589 C588 1.373 1_556 S
C589 C605 1.377 . S
C590 C588 1.389 . S
C590 C591 1.524 . S
C590 C604 1.377 . S
C591 C590 1.524 . S
C591 C592 1.397 . S
C591 C596 1.363 . S
C592 H569 0.950 . S
C592 C591 1.397 . S
C592 C593 1.334 . S
C593 H570 0.950 . S
C593 C592 1.334 . S
C593 C594 1.287 . S
C594 C593 1.287 . S
C594 C595 1.524 . S
C594 H613 0.913 . S
C595 H571 0.950 . S
C595 C594 1.524 . S
C595 C596 1.415 . S
C596 H572 0.950 . S
C596 C591 1.363 . S
C596 C595 1.415 . S
C597 H573 0.951 1_554 S
C597 C598 1.366 . S
C597 C599 1.388 . S
C598 C597 1.366 . S
C598 C602 1.385 . S
C599 H574 0.951 1_554 S
C599 C597 1.388 . S
C599 C600 1.366 . S
C600 C599 1.366 . S
C600 C601 1.414 . S
C600 C603 1.499 . S
C601 H575 0.950 . S
C601 C600 1.414 . S
C601 C602 1.374 . S
C602 H576 0.950 . S
C602 C598 1.385 . S
C602 C601 1.374 . S
C603 C600 1.499 . S
C603 C604 1.373 . S
C603 C605 1.389 1_554 S
C604 H577 0.950 . S
C604 C590 1.377 . S
C604 C603 1.373 . S
C605 C589 1.377 . S
C605 C603 1.389 1_556 S
C605 C606 1.524 . S
C606 C605 1.524 . S
C606 C607 1.397 . S
C606 C611 1.363 . S
C607 H578 0.950 . S
C607 C606 1.397 . S
C607 C608 1.334 . S
C608 H579 0.950 . S
C608 C607 1.334 . S
C608 C609 1.287 . S
C609 C608 1.287 . S
C609 C610 1.524 . S
C609 H612 0.999 . S
C610 H580 0.950 . S
C610 C609 1.524 . S
C610 C611 1.415 . S
C611 H581 0.950 . S
C611 C606 1.363 . S
C611 C610 1.415 . S
H612 C609 0.999 . S
H613 C594 0.913 . S
H614 C632 0.951 . S
H615 C634 0.951 . S
H616 C636 0.950 . S
H617 C637 0.950 . S
H618 C639 0.950 . S
H619 C642 0.950 . S
H620 C643 0.950 . S
H621 C645 0.950 . S
H622 C646 0.950 . S
H623 C647 0.951 . S
H624 C649 0.951 . S
H625 C651 0.950 . S
H626 C652 0.950 . S
H627 C654 0.950 . S
H628 C657 0.950 . S
H629 C658 0.950 . S
H630 C660 0.950 . S
H631 C661 0.950 . S
C632 H614 0.951 . S
C632 C633 1.366 . S
C632 C634 1.388 . S
C633 C632 1.366 . S
C633 C637 1.385 . S
C634 H615 0.951 . S
C634 C632 1.388 . S
C634 C635 1.366 . S
C635 C634 1.366 . S
C635 C636 1.414 . S
C635 C638 1.499 . S
C636 H616 0.950 . S
C636 C635 1.414 . S
C636 C637 1.374 . S
C637 H617 0.950 . S
C637 C633 1.385 . S
C637 C636 1.374 . S
C638 C635 1.499 . S
C638 C639 1.373 . S
C638 C640 1.389 1_554 S
C639 H618 0.950 . S
C639 C638 1.373 . S
C639 C655 1.377 . S
C640 C638 1.389 1_556 S
C640 C641 1.524 . S
C640 C654 1.377 . S
C641 C640 1.524 . S
C641 C642 1.397 . S
C641 C646 1.363 . S
C642 H619 0.950 . S
C642 C641 1.397 . S
C642 C643 1.334 . S
C643 H620 0.950 . S
C643 C642 1.334 . S
C643 C644 1.287 . S
C644 C643 1.287 . S
C644 C645 1.524 . S
C644 H663 0.913 . S
C645 H621 0.950 . S
C645 C644 1.524 . S
C645 C646 1.415 . S
C646 H622 0.950 . S
C646 C641 1.363 . S
C646 C645 1.415 . S
C647 H623 0.951 . S
C647 C648 1.366 . S
C647 C649 1.388 . S
C648 C647 1.366 . S
C648 C652 1.385 . S
C649 H624 0.951 . S
C649 C647 1.388 . S
C649 C650 1.366 . S
C650 C649 1.366 . S
C650 C651 1.414 . S
C650 C653 1.499 . S
C651 H625 0.950 . S
C651 C650 1.414 . S
C651 C652 1.374 . S
C652 H626 0.950 . S
C652 C648 1.385 . S
C652 C651 1.374 . S
C653 C650 1.499 . S
C653 C654 1.373 1_554 S
C653 C655 1.389 . S
C654 H627 0.950 . S
C654 C640 1.377 . S
C654 C653 1.373 1_556 S
C655 C639 1.377 . S
C655 C653 1.389 . S
C655 C656 1.524 . S
C656 C655 1.524 . S
C656 C657 1.397 . S
C656 C661 1.363 . S
C657 H628 0.950 . S
C657 C656 1.397 . S
C657 C658 1.334 . S
C658 H629 0.950 . S
C658 C657 1.334 . S
C658 C659 1.287 . S
C659 C658 1.287 . S
C659 C660 1.524 . S
C659 H662 0.999 . S
C660 H630 0.950 . S
C660 C659 1.524 . S
C660 C661 1.415 . S
C661 H631 0.950 . S
C661 C656 1.363 . S
C661 C660 1.415 . S
H662 C659 0.999 . S
H663 C644 0.913 . S
H664 C682 0.951 . S
H665 C684 0.951 . S
H666 C686 0.950 . S
H667 C687 0.950 . S
H668 C689 0.950 . S
H669 C692 0.950 . S
H670 C693 0.950 . S
H671 C695 0.950 . S
H672 C696 0.950 . S
H673 C697 0.951 . S
H674 C699 0.951 . S
H675 C701 0.950 . S
H676 C702 0.950 . S
H677 C704 0.950 . S
H678 C707 0.950 . S
H679 C708 0.950 . S
H680 C710 0.950 . S
H681 C711 0.950 . S
C682 H664 0.951 . S
C682 C683 1.366 . S
C682 C684 1.388 1_565 S
C683 C682 1.366 . S
C683 C687 1.385 1_565 S
C684 H665 0.951 . S
C684 C682 1.388 1_545 S
C684 C685 1.366 . S
C685 C684 1.366 . S
C685 C686 1.414 . S
C685 C688 1.499 . S
C686 H666 0.950 . S
C686 C685 1.414 . S
C686 C687 1.374 . S
C687 H667 0.950 . S
C687 C683 1.385 1_545 S
C687 C686 1.374 . S
C688 C685 1.499 . S
C688 C689 1.373 . S
C688 C690 1.389 . S
C689 H668 0.950 . S
C689 C688 1.373 . S
C689 C705 1.377 . S
C690 C688 1.389 . S
C690 C691 1.524 . S
C690 C704 1.377 . S
C691 C690 1.524 . S
C691 C692 1.397 . S
C691 C696 1.363 . S
C692 H669 0.950 . S
C692 C691 1.397 . S
C692 C693 1.334 . S
C693 H670 0.950 . S
C693 C692 1.334 . S
C693 C694 1.287 . S
C694 C693 1.287 . S
C694 C695 1.524 . S
C694 H713 0.913 . S
C695 H671 0.950 . S
C695 C694 1.524 . S
C695 C696 1.415 . S
C696 H672 0.950 . S
C696 C691 1.363 . S
C696 C695 1.415 . S
C697 H673 0.951 . S
C697 C698 1.366 . S
C697 C699 1.388 . S
C698 C697 1.366 . S
C698 C702 1.385 . S
C699 H674 0.951 . S
C699 C697 1.388 . S
C699 C700 1.366 . S
C700 C699 1.366 . S
C700 C701 1.414 . S
C700 C703 1.499 . S
C701 H675 0.950 . S
C701 C700 1.414 . S
C701 C702 1.374 . S
C702 H676 0.950 . S
C702 C698 1.385 . S
C702 C701 1.374 . S
C703 C700 1.499 . S
C703 C704 1.373 . S
C703 C705 1.389 . S
C704 H677 0.950 . S
C704 C690 1.377 . S
C704 C703 1.373 . S
C705 C689 1.377 . S
C705 C703 1.389 . S
C705 C706 1.524 . S
C706 C705 1.524 . S
C706 C707 1.397 . S
C706 C711 1.363 . S
C707 H678 0.950 . S
C707 C706 1.397 . S
C707 C708 1.334 . S
C708 H679 0.950 . S
C708 C707 1.334 . S
C708 C709 1.287 . S
C709 C708 1.287 . S
C709 C710 1.524 . S
C709 H712 0.999 . S
C710 H680 0.950 . S
C710 C709 1.524 . S
C710 C711 1.415 . S
C711 H681 0.950 . S
C711 C706 1.363 . S
C711 C710 1.415 . S
H712 C709 0.999 . S
H713 C694 0.913 . S
H714 C732 0.951 . S
H715 C734 0.951 . S
H716 C736 0.950 . S
H717 C737 0.950 . S
H718 C739 0.950 . S
H719 C742 0.950 . S
H720 C743 0.950 . S
H721 C745 0.950 . S
H722 C746 0.950 . S
H723 C747 0.951 . S
H724 C749 0.951 . S
H725 C751 0.950 . S
H726 C752 0.950 . S
H727 C754 0.950 . S
H728 C757 0.950 . S
H729 C758 0.950 . S
H730 C760 0.950 . S
H731 C761 0.950 . S
C732 H714 0.951 . S
C732 C733 1.366 1_655 S
C732 C734 1.388 . S
C733 C732 1.366 1_455 S
C733 C737 1.385 . S
C734 H715 0.951 . S
C734 C732 1.388 . S
C734 C735 1.366 . S
C735 C734 1.366 . S
C735 C736 1.414 . S
C735 C738 1.499 . S
C736 H716 0.950 . S
C736 C735 1.414 . S
C736 C737 1.374 1_655 S
C737 H717 0.950 . S
C737 C733 1.385 . S
C737 C736 1.374 1_455 S
C738 C735 1.499 . S
C738 C739 1.373 . S
C738 C740 1.389 . S
C739 H718 0.950 . S
C739 C738 1.373 . S
C739 C755 1.377 . S
C740 C738 1.389 . S
C740 C741 1.524 . S
C740 C754 1.377 . S
C741 C740 1.524 . S
C741 C742 1.397 . S
C741 C746 1.363 . S
C742 H719 0.950 . S
C742 C741 1.397 . S
C742 C743 1.334 . S
C743 H720 0.950 . S
C743 C742 1.334 . S
C743 C744 1.287 . S
C744 C743 1.287 . S
C744 C745 1.524 . S
C744 H763 0.913 . S
C745 H721 0.950 . S
C745 C744 1.524 . S
C745 C746 1.415 . S
C746 H722 0.950 . S
C746 C741 1.363 . S
C746 C745 1.415 . S
C747 H723 0.951 . S
C747 C748 1.366 . S
C747 C749 1.388 . S
C748 C747 1.366 . S
C748 C752 1.385 . S
C749 H724 0.951 . S
C749 C747 1.388 . S
C749 C750 1.366 . S
C750 C749 1.366 . S
C750 C751 1.414 . S
C750 C753 1.499 . S
C751 H725 0.950 . S
C751 C750 1.414 . S
C751 C752 1.374 . S
C752 H726 0.950 . S
C752 C748 1.385 . S
C752 C751 1.374 . S
C753 C750 1.499 . S
C753 C754 1.373 . S
C753 C755 1.389 . S
C754 H727 0.950 . S
C754 C740 1.377 . S
C754 C753 1.373 . S
C755 C739 1.377 . S
C755 C753 1.389 . S
C755 C756 1.524 . S
C756 C755 1.524 . S
C756 C757 1.397 . S
C756 C761 1.363 . S
C757 H728 0.950 . S
C757 C756 1.397 . S
C757 C758 1.334 . S
C758 H729 0.950 . S
C758 C757 1.334 . S
C758 C759 1.287 . S
C759 C758 1.287 . S
C759 C760 1.524 . S
C759 H762 0.999 . S
C760 H730 0.950 . S
C760 C759 1.524 . S
C760 C761 1.415 . S
C761 H731 0.950 . S
C761 C756 1.363 . S
C761 C760 1.415 . S
H762 C759 0.999 . S
H763 C744 0.913 . S
H764 C782 0.951 . S
H765 C784 0.951 . S
H766 C786 0.950 . S
H767 C787 0.932 1_545 S
H768 C789 0.950 . S
H769 C792 0.950 . S
H770 C793 0.950 1_545 S
H771 C795 0.950 . S
H772 C796 0.950 . S
H773 C797 0.951 . S
H774 C799 0.951 . S
H775 C801 0.950 . S
H776 C802 0.950 . S
H777 C804 0.950 . S
H778 C807 0.950 . S
H779 C808 0.950 . S
H780 C810 0.950 . S
H781 C811 0.950 . S
C782 H764 0.951 . S
C782 C783 1.366 1_565 S
C782 C784 1.388 . S
C783 C782 1.366 1_545 S
C783 C787 1.377 1_545 S
C784 H765 0.951 . S
C784 C782 1.388 . S
C784 C785 1.366 . S
C785 C784 1.366 . S
C785 C786 1.414 . S
C785 C788 1.499 . S
C786 H766 0.950 . S
C786 C785 1.414 . S
C786 C787 1.400 . S
C787 H767 0.932 1_565 S
C787 C783 1.377 1_565 S
C787 C786 1.400 . S
C788 C785 1.499 . S
C788 C789 1.373 . S
C788 C790 1.389 . S
C789 H768 0.950 . S
C789 C788 1.373 . S
C789 C805 1.377 . S
C790 C788 1.389 . S
C790 C791 1.524 . S
C790 C804 1.377 . S
C791 C790 1.524 . S
C791 C792 1.397 . S
C791 C796 1.363 . S
C792 H769 0.950 . S
C792 C791 1.397 . S
C792 C793 1.334 . S
C793 H770 0.950 1_565 S
C793 C792 1.334 . S
C793 C794 1.287 . S
C794 C793 1.287 . S
C794 C795 1.524 . S
C794 H813 0.913 . S
C795 H771 0.950 . S
C795 C794 1.524 . S
C795 C796 1.415 . S
C796 H772 0.950 . S
C796 C791 1.363 . S
C796 C795 1.415 . S
C797 H773 0.951 . S
C797 C798 1.366 . S
C797 C799 1.388 . S
C798 C797 1.366 . S
C798 C802 1.385 . S
C799 H774 0.951 . S
C799 C797 1.388 . S
C799 C800 1.366 . S
C800 C799 1.366 . S
C800 C801 1.414 . S
C800 C803 1.499 . S
C801 H775 0.950 . S
C801 C800 1.414 . S
C801 C802 1.374 . S
C802 H776 0.950 . S
C802 C798 1.385 . S
C802 C801 1.374 . S
C803 C800 1.499 . S
C803 C804 1.373 . S
C803 C805 1.389 . S
C804 H777 0.950 . S
C804 C790 1.377 . S
C804 C803 1.373 . S
C805 C789 1.377 . S
C805 C803 1.389 . S
C805 C806 1.524 . S
C806 C805 1.524 . S
C806 C807 1.397 . S
C806 C811 1.363 . S
C807 H778 0.950 . S
C807 C806 1.397 . S
C807 C808 1.334 . S
C808 H779 0.950 . S
C808 C807 1.334 . S
C808 C809 1.287 . S
C809 C808 1.287 . S
C809 C810 1.524 . S
C809 H812 0.999 . S
C810 H780 0.950 . S
C810 C809 1.524 . S
C810 C811 1.415 . S
C811 H781 0.950 . S
C811 C806 1.363 . S
C811 C810 1.415 . S
H812 C809 0.999 . S
H813 C794 0.913 . S
H814 C832 0.951 . S
H815 C834 0.951 . S
H816 C836 0.950 . S
H817 C837 0.950 . S
H818 C839 0.950 . S
H819 C842 0.950 . S
H820 C843 0.950 1_655 S
H821 C845 0.950 . S
H822 C846 0.950 . S
H823 C847 0.951 . S
H824 C849 0.951 . S
H825 C851 0.950 . S
H826 C852 0.950 . S
H827 C854 0.950 . S
H828 C857 0.950 . S
H829 C858 0.950 . S
H830 C860 0.950 . S
H831 C861 0.950 . S
C832 H814 0.951 . S
C832 C833 1.366 . S
C832 C834 1.388 1_655 S
C833 C832 1.366 . S
C833 C837 1.385 1_655 S
C834 H815 0.951 . S
C834 C832 1.388 1_455 S
C834 C835 1.366 . S
C835 C834 1.366 . S
C835 C836 1.414 . S
C835 C838 1.499 . S
C836 H816 0.950 . S
C836 C835 1.414 . S
C836 C837 1.374 . S
C837 H817 0.950 . S
C837 C833 1.385 1_455 S
C837 C836 1.374 . S
C838 C835 1.499 . S
C838 C839 1.373 . S
C838 C840 1.389 . S
C839 H818 0.950 . S
C839 C838 1.373 . S
C839 C855 1.377 . S
C840 C838 1.389 . S
C840 C841 1.524 . S
C840 C854 1.377 . S
C841 C840 1.524 . S
C841 C842 1.397 . S
C841 C846 1.363 . S
C842 H819 0.950 . S
C842 C841 1.397 . S
C842 C843 1.334 . S
C843 H820 0.950 1_455 S
C843 C842 1.334 . S
C843 C844 1.281 1_455 S
C844 C843 1.281 1_655 S
C844 C845 1.508 1_655 S
C844 H863 0.939 . S
C845 H821 0.950 . S
C845 C844 1.508 1_455 S
C845 C846 1.415 . S
C846 H822 0.950 . S
C846 C841 1.363 . S
C846 C845 1.415 . S
C847 H823 0.951 . S
C847 C848 1.366 . S
C847 C849 1.388 . S
C848 C847 1.366 . S
C848 C852 1.385 . S
C849 H824 0.951 . S
C849 C847 1.388 . S
C849 C850 1.366 . S
C850 C849 1.366 . S
C850 C851 1.414 . S
C850 C853 1.499 . S
C851 H825 0.950 . S
C851 C850 1.414 . S
C851 C852 1.374 . S
C852 H826 0.950 . S
C852 C848 1.385 . S
C852 C851 1.374 . S
C853 C850 1.499 . S
C853 C854 1.373 . S
C853 C855 1.389 . S
C854 H827 0.950 . S
C854 C840 1.377 . S
C854 C853 1.373 . S
C855 C839 1.377 . S
C855 C853 1.389 . S
C855 C856 1.524 . S
C856 C855 1.524 . S
C856 C857 1.397 . S
C856 C861 1.363 . S
C857 H828 0.950 . S
C857 C856 1.397 . S
C857 C858 1.334 . S
C858 H829 0.950 . S
C858 C857 1.334 . S
C858 C859 1.287 . S
C859 C858 1.287 . S
C859 C860 1.524 . S
C859 H862 0.999 . S
C860 H830 0.950 . S
C860 C859 1.524 . S
C860 C861 1.415 . S
C861 H831 0.950 . S
C861 C856 1.363 . S
C861 C860 1.415 . S
H862 C859 0.999 . S
H863 C844 0.939 . S
H864 C882 0.951 . S
H865 C884 0.951 . S
H866 C886 0.950 . S
H867 C887 0.950 . S
H868 C889 0.950 . S
H869 C892 0.950 . S
H870 C893 0.950 . S
H871 C895 0.950 . S
H872 C896 0.950 . S
H873 C897 0.951 . S
H874 C899 0.951 . S
H875 C901 0.950 . S
H876 C902 0.950 . S
H877 C904 0.950 . S
H878 C907 0.950 . S
H879 C908 0.950 . S
H880 C910 0.950 . S
H881 C911 0.950 . S
C882 H864 0.951 . S
C882 C883 1.366 . S
C882 C884 1.388 . S
C883 C882 1.366 . S
C883 C887 1.385 . S
C884 H865 0.951 . S
C884 C882 1.388 . S
C884 C885 1.366 . S
C885 C884 1.366 . S
C885 C886 1.414 . S
C885 C888 1.499 . S
C886 H866 0.950 . S
C886 C885 1.414 . S
C886 C887 1.374 . S
C887 H867 0.950 . S
C887 C883 1.385 . S
C887 C886 1.374 . S
C888 C885 1.499 . S
C888 C889 1.373 . S
C888 C890 1.389 . S
C889 H868 0.950 . S
C889 C888 1.373 . S
C889 C905 1.377 . S
C890 C888 1.389 . S
C890 C891 1.524 . S
C890 C904 1.377 . S
C891 C890 1.524 . S
C891 C892 1.397 . S
C891 C896 1.363 . S
C892 H869 0.950 . S
C892 C891 1.397 . S
C892 C893 1.334 . S
C893 H870 0.950 . S
C893 C892 1.334 . S
C893 C894 1.287 . S
C894 C893 1.287 . S
C894 C895 1.524 . S
C894 H913 0.913 . S
C895 H871 0.950 . S
C895 C894 1.524 . S
C895 C896 1.415 . S
C896 H872 0.950 . S
C896 C891 1.363 . S
C896 C895 1.415 . S
C897 H873 0.951 . S
C897 C898 1.366 . S
C897 C899 1.388 . S
C898 C897 1.366 . S
C898 C902 1.385 . S
C899 H874 0.951 . S
C899 C897 1.388 . S
C899 C900 1.366 . S
C900 C899 1.366 . S
C900 C901 1.414 . S
C900 C903 1.499 . S
C901 H875 0.950 . S
C901 C900 1.414 . S
C901 C902 1.374 . S
C902 H876 0.950 . S
C902 C898 1.385 . S
C902 C901 1.374 . S
C903 C900 1.499 . S
C903 C904 1.373 . S
C903 C905 1.389 . S
C904 H877 0.950 . S
C904 C890 1.377 . S
C904 C903 1.373 . S
C905 C889 1.377 . S
C905 C903 1.389 . S
C905 C906 1.524 . S
C906 C905 1.524 . S
C906 C907 1.397 . S
C906 C911 1.363 . S
C907 H878 0.950 . S
C907 C906 1.397 . S
C907 C908 1.334 . S
C908 H879 0.950 . S
C908 C907 1.334 . S
C908 C909 1.287 . S
C909 C908 1.287 . S
C909 C910 1.524 . S
C909 H912 0.999 . S
C910 H880 0.950 . S
C910 C909 1.524 . S
C910 C911 1.415 . S
C911 H881 0.950 . S
C911 C906 1.363 . S
C911 C910 1.415 . S
H912 C909 0.999 . S
H913 C894 0.913 . S
H914 C932 0.951 . S
H915 C934 0.951 . S
H916 C936 0.950 . S
H917 C937 0.950 . S
H918 C939 0.950 . S
H919 C942 0.950 . S
H920 C943 0.950 . S
H921 C945 0.950 . S
H922 C946 0.950 . S
H923 C947 0.951 . S
H924 C949 0.951 . S
H925 C951 0.950 . S
H926 C952 0.950 . S
H927 C954 0.950 . S
H928 C957 0.950 . S
H929 C958 0.950 . S
H930 C960 0.950 . S
H931 C961 0.950 . S
C932 H914 0.951 . S
C932 C933 1.366 . S
C932 C934 1.388 . S
C933 C932 1.366 . S
C933 C937 1.385 . S
C934 H915 0.951 . S
C934 C932 1.388 . S
C934 C935 1.366 . S
C935 C934 1.366 . S
C935 C936 1.414 . S
C935 C938 1.499 . S
C936 H916 0.950 . S
C936 C935 1.414 . S
C936 C937 1.374 . S
C937 H917 0.950 . S
C937 C933 1.385 . S
C937 C936 1.374 . S
C938 C935 1.499 . S
C938 C939 1.373 . S
C938 C940 1.389 . S
C939 H918 0.950 . S
C939 C938 1.373 . S
C939 C955 1.377 . S
C940 C938 1.389 . S
C940 C941 1.524 . S
C940 C954 1.377 . S
C941 C940 1.524 . S
C941 C942 1.397 . S
C941 C946 1.363 . S
C942 H919 0.950 . S
C942 C941 1.397 . S
C942 C943 1.334 . S
C943 H920 0.950 . S
C943 C942 1.334 . S
C943 C944 1.287 . S
C944 C943 1.287 . S
C944 C945 1.524 . S
C944 H963 0.913 . S
C945 H921 0.950 . S
C945 C944 1.524 . S
C945 C946 1.415 . S
C946 H922 0.950 . S
C946 C941 1.363 . S
C946 C945 1.415 . S
C947 H923 0.951 . S
C947 C948 1.366 . S
C947 C949 1.388 . S
C948 C947 1.366 . S
C948 C952 1.385 . S
C949 H924 0.951 . S
C949 C947 1.388 . S
C949 C950 1.366 . S
C950 C949 1.366 . S
C950 C951 1.414 . S
C950 C953 1.499 . S
C951 H925 0.950 . S
C951 C950 1.414 . S
C951 C952 1.374 . S
C952 H926 0.950 . S
C952 C948 1.385 . S
C952 C951 1.374 . S
C953 C950 1.499 . S
C953 C954 1.373 . S
C953 C955 1.389 . S
C954 H927 0.950 . S
C954 C940 1.377 . S
C954 C953 1.373 . S
C955 C939 1.377 . S
C955 C953 1.389 . S
C955 C956 1.524 . S
C956 C955 1.524 . S
C956 C957 1.397 . S
C956 C961 1.363 . S
C957 H928 0.950 . S
C957 C956 1.397 . S
C957 C958 1.334 . S
C958 H929 0.950 . S
C958 C957 1.334 . S
C958 C959 1.287 . S
C959 C958 1.287 . S
C959 C960 1.524 . S
C959 H962 0.999 . S
C960 H930 0.950 . S
C960 C959 1.524 . S
C960 C961 1.415 . S
C961 H931 0.950 . S
C961 C956 1.363 . S
C961 C960 1.415 . S
H962 C959 0.999 . S
H963 C944 0.913 . S
H964 C982 0.951 . S
H965 C984 0.951 . S
H966 C986 0.950 . S
H967 C987 0.950 . S
H968 C989 0.950 . S
H969 C992 0.950 . S
H970 C993 0.950 . S
H971 C995 0.950 . S
H972 C996 0.950 . S
H973 C997 0.951 . S
H974 C999 0.951 . S
H975 C1001 0.950 . S
H976 C1002 0.950 . S
H977 C1004 0.950 . S
H978 C1007 0.950 . S
H979 C1008 0.950 . S
H980 C1010 0.950 . S
H981 C1011 0.950 . S
C982 H964 0.951 . S
C982 C983 1.366 . S
C982 C984 1.388 . S
C983 C982 1.366 . S
C983 C987 1.385 . S
C984 H965 0.951 . S
C984 C982 1.388 . S
C984 C985 1.366 . S
C985 C984 1.366 . S
C985 C986 1.414 . S
C985 C988 1.499 . S
C986 H966 0.950 . S
C986 C985 1.414 . S
C986 C987 1.374 . S
C987 H967 0.950 . S
C987 C983 1.385 . S
C987 C986 1.374 . S
C988 C985 1.499 . S
C988 C989 1.373 . S
C988 C990 1.389 . S
C989 H968 0.950 . S
C989 C988 1.373 . S
C989 C1005 1.377 . S
C990 C988 1.389 . S
C990 C991 1.524 . S
C990 C1004 1.377 . S
C991 C990 1.524 . S
C991 C992 1.397 . S
C991 C996 1.363 . S
C992 H969 0.950 . S
C992 C991 1.397 . S
C992 C993 1.334 . S
C993 H970 0.950 . S
C993 C992 1.334 . S
C993 C994 1.287 . S
C994 C993 1.287 . S
C994 C995 1.524 . S
C994 H1013 0.913 . S
C995 H971 0.950 . S
C995 C994 1.524 . S
C995 C996 1.415 . S
C996 H972 0.950 . S
C996 C991 1.363 . S
C996 C995 1.415 . S
C997 H973 0.951 . S
C997 C998 1.366 . S
C997 C999 1.388 . S
C998 C997 1.366 . S
C998 C1002 1.385 . S
C999 H974 0.951 . S
C999 C997 1.388 . S
C999 C1000 1.366 . S
C1000 C999 1.366 . S
C1000 C1001 1.414 . S
C1000 C1003 1.499 . S
C1001 H975 0.950 . S
C1001 C1000 1.414 . S
C1001 C1002 1.374 . S
C1002 H976 0.950 . S
C1002 C998 1.385 . S
C1002 C1001 1.374 . S
C1003 C1000 1.499 . S
C1003 C1004 1.373 . S
C1003 C1005 1.389 . S
C1004 H977 0.950 . S
C1004 C990 1.377 . S
C1004 C1003 1.373 . S
C1005 C989 1.377 . S
C1005 C1003 1.389 . S
C1005 C1006 1.524 . S
C1006 C1005 1.524 . S
C1006 C1007 1.397 . S
C1006 C1011 1.363 . S
C1007 H978 0.950 . S
C1007 C1006 1.397 . S
C1007 C1008 1.334 . S
C1008 H979 0.950 . S
C1008 C1007 1.334 . S
C1008 C1009 1.287 . S
C1009 C1008 1.287 . S
C1009 C1010 1.524 . S
C1009 H1012 0.999 . S
C1010 H980 0.950 . S
C1010 C1009 1.524 . S
C1010 C1011 1.415 . S
C1011 H981 0.950 . S
C1011 C1006 1.363 . S
C1011 C1010 1.415 . S
H1012 C1009 0.999 . S
H1013 C994 0.913 . S
H1014 C1032 0.951 . S
H1015 C1034 0.951 . S
H1016 C1036 0.950 . S
H1017 C1037 0.950 . S
H1018 C1039 0.950 . S
H1019 C1042 0.950 . S
H1020 C1043 0.950 . S
H1021 C1045 0.950 . S
H1022 C1046 0.950 . S
H1023 C1047 0.951 . S
H1024 C1049 0.951 . S
H1025 C1051 0.950 . S
H1026 C1052 0.950 . S
H1027 C1054 0.950 . S
H1028 C1057 0.950 . S
H1029 C1058 0.950 . S
H1030 C1060 0.950 . S
H1031 C1061 0.950 . S
C1032 H1014 0.951 . S
C1032 C1033 1.366 . S
C1032 C1034 1.388 . S
C1033 C1032 1.366 . S
C1033 C1037 1.385 . S
C1034 H1015 0.951 . S
C1034 C1032 1.388 . S
C1034 C1035 1.366 . S
C1035 C1034 1.366 . S
C1035 C1036 1.414 . S
C1035 C1038 1.499 . S
C1036 H1016 0.950 . S
C1036 C1035 1.414 . S
C1036 C1037 1.374 . S
C1037 H1017 0.950 . S
C1037 C1033 1.385 . S
C1037 C1036 1.374 . S
C1038 C1035 1.499 . S
C1038 C1039 1.373 . S
C1038 C1040 1.389 . S
C1039 H1018 0.950 . S
C1039 C1038 1.373 . S
C1039 C1055 1.377 . S
C1040 C1038 1.389 . S
C1040 C1041 1.524 . S
C1040 C1054 1.377 . S
C1041 C1040 1.524 . S
C1041 C1042 1.397 . S
C1041 C1046 1.363 . S
C1042 H1019 0.950 . S
C1042 C1041 1.397 . S
C1042 C1043 1.334 . S
C1043 H1020 0.950 . S
C1043 C1042 1.334 . S
C1043 C1044 1.287 . S
C1044 C1043 1.287 . S
C1044 C1045 1.524 . S
C1044 H1063 0.913 . S
C1045 H1021 0.950 . S
C1045 C1044 1.524 . S
C1045 C1046 1.415 . S
C1046 H1022 0.950 . S
C1046 C1041 1.363 . S
C1046 C1045 1.415 . S
C1047 H1023 0.951 . S
C1047 C1048 1.366 . S
C1047 C1049 1.388 . S
C1048 C1047 1.366 . S
C1048 C1052 1.385 . S
C1049 H1024 0.951 . S
C1049 C1047 1.388 . S
C1049 C1050 1.366 . S
C1050 C1049 1.366 . S
C1050 C1051 1.414 . S
C1050 C1053 1.499 . S
C1051 H1025 0.950 . S
C1051 C1050 1.414 . S
C1051 C1052 1.374 . S
C1052 H1026 0.950 . S
C1052 C1048 1.385 . S
C1052 C1051 1.374 . S
C1053 C1050 1.499 . S
C1053 C1054 1.373 . S
C1053 C1055 1.389 . S
C1054 H1027 0.950 . S
C1054 C1040 1.377 . S
C1054 C1053 1.373 . S
C1055 C1039 1.377 . S
C1055 C1053 1.389 . S
C1055 C1056 1.524 . S
C1056 C1055 1.524 . S
C1056 C1057 1.397 . S
C1056 C1061 1.363 . S
C1057 H1028 0.950 . S
C1057 C1056 1.397 . S
C1057 C1058 1.334 . S
C1058 H1029 0.950 . S
C1058 C1057 1.334 . S
C1058 C1059 1.287 . S
C1059 C1058 1.287 . S
C1059 C1060 1.524 . S
C1059 H1062 0.999 . S
C1060 H1030 0.950 . S
C1060 C1059 1.524 . S
C1060 C1061 1.415 . S
C1061 H1031 0.950 . S
C1061 C1056 1.363 . S
C1061 C1060 1.415 . S
H1062 C1059 0.999 . S
H1063 C1044 0.913 . S
H1064 C1082 0.951 . S
H1065 C1084 0.951 . S
H1066 C1086 0.950 . S
H1067 C1087 0.950 . S
H1068 C1089 0.950 . S
H1069 C1092 0.950 . S
H1070 C1093 0.950 . S
H1071 C1095 0.950 . S
H1072 C1096 0.950 . S
H1073 C1097 0.951 . S
H1074 C1099 0.951 . S
H1075 C1101 0.950 . S
H1076 C1102 0.950 . S
H1077 C1104 0.950 . S
H1078 C1107 0.950 . S
H1079 C1108 0.950 . S
H1080 C1110 0.950 . S
H1081 C1111 0.950 . S
C1082 H1064 0.951 . S
C1082 C1083 1.366 . S
C1082 C1084 1.388 . S
C1083 C1082 1.366 . S
C1083 C1087 1.385 . S
C1084 H1065 0.951 . S
C1084 C1082 1.388 . S
C1084 C1085 1.366 . S
C1085 C1084 1.366 . S
C1085 C1086 1.414 . S
C1085 C1088 1.499 . S
C1086 H1066 0.950 . S
C1086 C1085 1.414 . S
C1086 C1087 1.374 . S
C1087 H1067 0.950 . S
C1087 C1083 1.385 . S
C1087 C1086 1.374 . S
C1088 C1085 1.499 . S
C1088 C1089 1.373 . S
C1088 C1090 1.389 . S
C1089 H1068 0.950 . S
C1089 C1088 1.373 . S
C1089 C1105 1.377 . S
C1090 C1088 1.389 . S
C1090 C1091 1.524 . S
C1090 C1104 1.377 . S
C1091 C1090 1.524 . S
C1091 C1092 1.397 . S
C1091 C1096 1.363 . S
C1092 H1069 0.950 . S
C1092 C1091 1.397 . S
C1092 C1093 1.334 . S
C1093 H1070 0.950 . S
C1093 C1092 1.334 . S
C1093 C1094 1.287 . S
C1094 C1093 1.287 . S
C1094 C1095 1.524 . S
C1094 H1113 0.913 . S
C1095 H1071 0.950 . S
C1095 C1094 1.524 . S
C1095 C1096 1.415 . S
C1096 H1072 0.950 . S
C1096 C1091 1.363 . S
C1096 C1095 1.415 . S
C1097 H1073 0.951 . S
C1097 C1098 1.366 . S
C1097 C1099 1.388 . S
C1098 C1097 1.366 . S
C1098 C1102 1.385 . S
C1099 H1074 0.951 . S
C1099 C1097 1.388 . S
C1099 C1100 1.366 . S
C1100 C1099 1.366 . S
C1100 C1101 1.414 . S
C1100 C1103 1.499 . S
C1101 H1075 0.950 . S
C1101 C1100 1.414 . S
C1101 C1102 1.374 . S
C1102 H1076 0.950 . S
C1102 C1098 1.385 . S
C1102 C1101 1.374 . S
C1103 C1100 1.499 . S
C1103 C1104 1.373 . S
C1103 C1105 1.389 . S
C1104 H1077 0.950 . S
C1104 C1090 1.377 . S
C1104 C1103 1.373 . S
C1105 C1089 1.377 . S
C1105 C1103 1.389 . S
C1105 C1106 1.524 . S
C1106 C1105 1.524 . S
C1106 C1107 1.397 . S
C1106 C1111 1.363 . S
C1107 H1078 0.950 . S
C1107 C1106 1.397 . S
C1107 C1108 1.334 . S
C1108 H1079 0.950 . S
C1108 C1107 1.334 . S
C1108 C1109 1.287 . S
C1109 C1108 1.287 . S
C1109 C1110 1.524 . S
C1109 H1112 0.999 . S
C1110 H1080 0.950 . S
C1110 C1109 1.524 . S
C1110 C1111 1.415 . S
C1111 H1081 0.950 . S
C1111 C1106 1.363 . S
C1111 C1110 1.415 . S
H1112 C1109 0.999 . S
H1113 C1094 0.913 . S
H1114 C1132 0.951 . S
H1115 C1134 0.951 . S
H1116 C1136 0.950 . S
H1117 C1137 0.950 . S
H1118 C1139 0.950 . S
H1119 C1142 0.950 . S
H1120 C1143 0.950 . S
H1121 C1145 0.950 . S
H1122 C1146 0.950 . S
H1123 C1147 0.951 . S
H1124 C1149 0.951 . S
H1125 C1151 0.950 . S
H1126 C1152 0.950 . S
H1127 C1154 0.950 . S
H1128 C1157 0.950 . S
H1129 C1158 0.950 . S
H1130 C1160 0.950 . S
H1131 C1161 0.950 . S
C1132 H1114 0.951 . S
C1132 C1133 1.366 . S
C1132 C1134 1.388 . S
C1133 C1132 1.366 . S
C1133 C1137 1.385 . S
C1134 H1115 0.951 . S
C1134 C1132 1.388 . S
C1134 C1135 1.366 . S
C1135 C1134 1.366 . S
C1135 C1136 1.414 . S
C1135 C1138 1.499 . S
C1136 H1116 0.950 . S
C1136 C1135 1.414 . S
C1136 C1137 1.374 . S
C1137 H1117 0.950 . S
C1137 C1133 1.385 . S
C1137 C1136 1.374 . S
C1138 C1135 1.499 . S
C1138 C1139 1.373 . S
C1138 C1140 1.389 . S
C1139 H1118 0.950 . S
C1139 C1138 1.373 . S
C1139 C1155 1.377 . S
C1140 C1138 1.389 . S
C1140 C1141 1.524 . S
C1140 C1154 1.377 . S
C1141 C1140 1.524 . S
C1141 C1142 1.397 . S
C1141 C1146 1.363 . S
C1142 H1119 0.950 . S
C1142 C1141 1.397 . S
C1142 C1143 1.334 . S
C1143 H1120 0.950 . S
C1143 C1142 1.334 . S
C1143 C1144 1.287 . S
C1144 C1143 1.287 . S
C1144 C1145 1.524 . S
C1144 H1163 0.913 . S
C1145 H1121 0.950 . S
C1145 C1144 1.524 . S
C1145 C1146 1.415 . S
C1146 H1122 0.950 . S
C1146 C1141 1.363 . S
C1146 C1145 1.415 . S
C1147 H1123 0.951 . S
C1147 C1148 1.366 . S
C1147 C1149 1.388 . S
C1148 C1147 1.366 . S
C1148 C1152 1.385 . S
C1149 H1124 0.951 . S
C1149 C1147 1.388 . S
C1149 C1150 1.366 . S
C1150 C1149 1.366 . S
C1150 C1151 1.414 . S
C1150 C1153 1.499 . S
C1151 H1125 0.950 . S
C1151 C1150 1.414 . S
C1151 C1152 1.374 . S
C1152 H1126 0.950 . S
C1152 C1148 1.385 . S
C1152 C1151 1.374 . S
C1153 C1150 1.499 . S
C1153 C1154 1.373 . S
C1153 C1155 1.389 . S
C1154 H1127 0.950 . S
C1154 C1140 1.377 . S
C1154 C1153 1.373 . S
C1155 C1139 1.377 . S
C1155 C1153 1.389 . S
C1155 C1156 1.524 . S
C1156 C1155 1.524 . S
C1156 C1157 1.397 . S
C1156 C1161 1.363 . S
C1157 H1128 0.950 . S
C1157 C1156 1.397 . S
C1157 C1158 1.334 . S
C1158 H1129 0.950 . S
C1158 C1157 1.334 . S
C1158 C1159 1.287 . S
C1159 C1158 1.287 . S
C1159 C1160 1.524 . S
C1159 H1162 0.999 . S
C1160 H1130 0.950 . S
C1160 C1159 1.524 . S
C1160 C1161 1.415 . S
C1161 H1131 0.950 . S
C1161 C1156 1.363 . S
C1161 C1160 1.415 . S
H1162 C1159 0.999 . S
H1163 C1144 0.913 . S
H1164 C1182 0.951 . S
H1165 C1184 0.951 . S
H1166 C1186 0.950 . S
H1167 C1187 0.950 . S
H1168 C1189 0.950 . S
H1169 C1192 0.950 . S
H1170 C1193 0.950 . S
H1171 C1195 0.950 . S
H1172 C1196 0.950 . S
H1173 C1197 0.951 . S
H1174 C1199 0.951 . S
H1175 C1201 0.950 . S
H1176 C1202 0.950 . S
H1177 C1204 0.950 . S
H1178 C1207 0.950 . S
H1179 C1208 0.950 . S
H1180 C1210 0.950 . S
H1181 C1211 0.950 . S
C1182 H1164 0.951 . S
C1182 C1183 1.366 . S
C1182 C1184 1.388 . S
C1183 C1182 1.366 . S
C1183 C1187 1.385 . S
C1184 H1165 0.951 . S
C1184 C1182 1.388 . S
C1184 C1185 1.366 . S
C1185 C1184 1.366 . S
C1185 C1186 1.414 . S
C1185 C1188 1.499 . S
C1186 H1166 0.950 . S
C1186 C1185 1.414 . S
C1186 C1187 1.374 . S
C1187 H1167 0.950 . S
C1187 C1183 1.385 . S
C1187 C1186 1.374 . S
C1188 C1185 1.499 . S
C1188 C1189 1.373 . S
C1188 C1190 1.389 . S
C1189 H1168 0.950 . S
C1189 C1188 1.373 . S
C1189 C1205 1.377 . S
C1190 C1188 1.389 . S
C1190 C1191 1.524 . S
C1190 C1204 1.377 . S
C1191 C1190 1.524 . S
C1191 C1192 1.397 . S
C1191 C1196 1.363 . S
C1192 H1169 0.950 . S
C1192 C1191 1.397 . S
C1192 C1193 1.334 . S
C1193 H1170 0.950 . S
C1193 C1192 1.334 . S
C1193 C1194 1.287 . S
C1194 C1193 1.287 . S
C1194 C1195 1.524 . S
C1194 H1213 0.913 . S
C1195 H1171 0.950 . S
C1195 C1194 1.524 . S
C1195 C1196 1.415 . S
C1196 H1172 0.950 . S
C1196 C1191 1.363 . S
C1196 C1195 1.415 . S
C1197 H1173 0.951 . S
C1197 C1198 1.366 . S
C1197 C1199 1.388 . S
C1198 C1197 1.366 . S
C1198 C1202 1.385 . S
C1199 H1174 0.951 . S
C1199 C1197 1.388 . S
C1199 C1200 1.366 . S
C1200 C1199 1.366 . S
C1200 C1201 1.414 . S
C1200 C1203 1.499 . S
C1201 H1175 0.950 . S
C1201 C1200 1.414 . S
C1201 C1202 1.374 . S
C1202 H1176 0.950 . S
C1202 C1198 1.385 . S
C1202 C1201 1.374 . S
C1203 C1200 1.499 . S
C1203 C1204 1.373 . S
C1203 C1205 1.389 . S
C1204 H1177 0.950 . S
C1204 C1190 1.377 . S
C1204 C1203 1.373 . S
C1205 C1189 1.377 . S
C1205 C1203 1.389 . S
C1205 C1206 1.524 . S
C1206 C1205 1.524 . S
C1206 C1207 1.397 . S
C1206 C1211 1.363 . S
C1207 H1178 0.950 . S
C1207 C1206 1.397 . S
C1207 C1208 1.334 . S
C1208 H1179 0.950 . S
C1208 C1207 1.334 . S
C1208 C1209 1.287 . S
C1209 C1208 1.287 . S
C1209 C1210 1.524 . S
C1209 H1212 0.999 . S
C1210 H1180 0.950 . S
C1210 C1209 1.524 . S
C1210 C1211 1.415 . S
C1211 H1181 0.950 . S
C1211 C1206 1.363 . S
C1211 C1210 1.415 . S
H1212 C1209 0.999 . S
H1213 C1194 0.913 . S
H1214 C1232 0.951 . S
H1215 C1234 0.951 . S
H1216 C1236 0.950 . S
H1217 C1237 0.950 . S
H1218 C1239 0.950 . S
H1219 C1242 0.950 . S
H1220 C1243 0.950 . S
H1221 C1245 0.950 . S
H1222 C1246 0.950 . S
H1223 C1247 0.951 . S
H1224 C1249 0.951 . S
H1225 C1251 0.950 . S
H1226 C1252 0.950 . S
H1227 C1254 0.950 . S
H1228 C1257 0.950 . S
H1229 C1258 0.950 . S
H1230 C1260 0.950 . S
H1231 C1261 0.950 . S
C1232 H1214 0.951 . S
C1232 C1233 1.366 . S
C1232 C1234 1.388 . S
C1233 C1232 1.366 . S
C1233 C1237 1.385 . S
C1234 H1215 0.951 . S
C1234 C1232 1.388 . S
C1234 C1235 1.366 . S
C1235 C1234 1.366 . S
C1235 C1236 1.414 . S
C1235 C1238 1.499 . S
C1236 H1216 0.950 . S
C1236 C1235 1.414 . S
C1236 C1237 1.374 . S
C1237 H1217 0.950 . S
C1237 C1233 1.385 . S
C1237 C1236 1.374 . S
C1238 C1235 1.499 . S
C1238 C1239 1.373 . S
C1238 C1240 1.389 . S
C1239 H1218 0.950 . S
C1239 C1238 1.373 . S
C1239 C1255 1.377 . S
C1240 C1238 1.389 . S
C1240 C1241 1.524 . S
C1240 C1254 1.377 . S
C1241 C1240 1.524 . S
C1241 C1242 1.397 . S
C1241 C1246 1.363 . S
C1242 H1219 0.950 . S
C1242 C1241 1.397 . S
C1242 C1243 1.334 . S
C1243 H1220 0.950 . S
C1243 C1242 1.334 . S
C1243 C1244 1.287 . S
C1244 C1243 1.287 . S
C1244 C1245 1.524 . S
C1244 H1263 0.913 . S
C1245 H1221 0.950 . S
C1245 C1244 1.524 . S
C1245 C1246 1.415 . S
C1246 H1222 0.950 . S
C1246 C1241 1.363 . S
C1246 C1245 1.415 . S
C1247 H1223 0.951 . S
C1247 C1248 1.366 . S
C1247 C1249 1.388 . S
C1248 C1247 1.366 . S
C1248 C1252 1.385 . S
C1249 H1224 0.951 . S
C1249 C1247 1.388 . S
C1249 C1250 1.366 . S
C1250 C1249 1.366 . S
C1250 C1251 1.414 . S
C1250 C1253 1.499 . S
C1251 H1225 0.950 . S
C1251 C1250 1.414 . S
C1251 C1252 1.374 . S
C1252 H1226 0.950 . S
C1252 C1248 1.385 . S
C1252 C1251 1.374 . S
C1253 C1250 1.499 . S
C1253 C1254 1.373 . S
C1253 C1255 1.389 . S
C1254 H1227 0.950 . S
C1254 C1240 1.377 . S
C1254 C1253 1.373 . S
C1255 C1239 1.377 . S
C1255 C1253 1.389 . S
C1255 C1256 1.524 . S
C1256 C1255 1.524 . S
C1256 C1257 1.397 . S
C1256 C1261 1.363 . S
C1257 H1228 0.950 . S
C1257 C1256 1.397 . S
C1257 C1258 1.334 . S
C1258 H1229 0.950 . S
C1258 C1257 1.334 . S
C1258 C1259 1.287 . S
C1259 C1258 1.287 . S
C1259 C1260 1.524 . S
C1259 H1262 0.999 . S
C1260 H1230 0.950 . S
C1260 C1259 1.524 . S
C1260 C1261 1.415 . S
C1261 H1231 0.950 . S
C1261 C1256 1.363 . S
C1261 C1260 1.415 . S
H1262 C1259 0.999 . S
H1263 C1244 0.913 . S
C283 N71 1.540 . S
C298 N5 1.540 . S
C333 N38 1.540 . S
C348 N104 1.540 . S
C383 N137 1.540 . S
C398 N203 1.540 . S
C433 N170 1.540 . S
C448 N236 1.540 . S
C483 C107 1.607 . S
C498 N14 1.548 . S
C533 C8 1.607 . S
C548 N47 1.547 . S
C583 N80 1.548 . S
C598 C41 1.607 . S
C633 N113 1.547 . S
C648 C74 1.607 . S
C683 C173 1.607 . S
C698 N146 1.547 . S
C733 C206 1.607 . S
C748 N179 1.547 . S
C783 C239 1.607 . S
C798 N212 1.548 . S
C833 C140 1.607 . S
C848 N245 1.548 . S
C883 C28 1.324 . S
C898 C259 1.324 . S
C933 C61 1.324 . S
C948 C160 1.324 . S
C983 C193 1.323 . S
C998 C94 1.323 . S
C1033 C226 1.323 . S
C1048 C127 1.323 . S
C1083 C83 1.418 . S
C1098 C182 1.417 . S
C1133 C215 1.418 . S
C1148 C116 1.417 . S
C1183 C248 1.417 . S
C1198 C17 1.418 . S
C1233 C149 1.418 . S
C1248 C50 1.417 . S
