# Generated by pormake.
# Topology unh, (4)-cn, num edge types: 1
# Building blocks:
#     Node 0, Type 0, BuildingBlock: GALJAG_clean_sbu_0, # of connection points: 4
#     Node 1, Type 0, BuildingBlock: GALJAG_clean_sbu_0, # of connection points: 4
#     Node 2, Type 0, BuildingBlock: GALJAG_clean_sbu_0, # of connection points: 4
#     Node 3, Type 0, BuildingBlock: GALJAG_clean_sbu_0, # of connection points: 4
#     Node 4, Type 0, BuildingBlock: GALJAG_clean_sbu_0, # of connection points: 4
#     Node 5, Type 0, BuildingBlock: GALJAG_clean_sbu_0, # of connection points: 4
#     Edge 6, Type (0, 0), BuildingBlock: FUNLAD_clean_linker_1, # of connection points: 2
#     Edge 7, Type (0, 0), BuildingBlock: FUNLAD_clean_linker_1, # of connection points: 2
#     Edge 8, Type (0, 0), BuildingBlock: FUNLAD_clean_linker_1, # of connection points: 2
#     Edge 9, Type (0, 0), BuildingBlock: FUNLAD_clean_linker_1, # of connection points: 2
#     Edge 10, Type (0, 0), BuildingBlock: FUNLAD_clean_linker_1, # of connection points: 2
#     Edge 11, Type (0, 0), BuildingBlock: FUNLAD_clean_linker_1, # of connection points: 2
#     Edge 12, Type (0, 0), BuildingBlock: FUNLAD_clean_linker_1, # of connection points: 2
#     Edge 13, Type (0, 0), BuildingBlock: FUNLAD_clean_linker_1, # of connection points: 2
#     Edge 14, Type (0, 0), BuildingBlock: FUNLAD_clean_linker_1, # of connection points: 2
#     Edge 15, Type (0, 0), BuildingBlock: FUNLAD_clean_linker_1, # of connection points: 2
#     Edge 16, Type (0, 0), BuildingBlock: FUNLAD_clean_linker_1, # of connection points: 2
#     Edge 17, Type (0, 0), BuildingBlock: FUNLAD_clean_linker_1, # of connection points: 2
# Relax obj value: 0.030
# Max RMSD: 0.132
# Mean RMSD: 0.132
data_MOF--net-unh--node1-GALJAG_clean_sbu_0--edge1-FUNLAD_clean_linker_1
_symmetry_space_group_name_H-M    P1
_symmetry_Int_Tables_number       1
_symmetry_cell_setting            triclinic
loop_
_symmetry_equiv_pos_as_xyz
'x, y, z'
_cell_length_a     47.19523
_cell_length_b     47.195073
_cell_length_c     21.030332
_cell_angle_alpha  89.991622
_cell_angle_beta   90.053802
_cell_angle_gamma 119.95203
loop_
_atom_site_label
_atom_site_type_symbol
_atom_site_fract_x
_atom_site_fract_y
_atom_site_fract_z
_atom_type_partial_charge
In0 In 0.13591 0.57298 0.09394 0.0
O1 O 0.10318 0.52694 0.0354 0.0
O2 O 0.10567 0.57175 0.00933 0.0
C3 C 0.17221 0.5558 0.16539 0.0
C4 C 0.09289 0.57188 0.17879 0.0
C5 C 0.18528 0.62405 0.03414 0.0
O6 O 0.16 0.542 0.11291 0.0
O7 O 0.16559 0.57749 0.18195 0.0
O8 O 0.16677 0.62774 0.07258 0.0
O9 O 0.17887 0.59498 0.02622 0.0
C10 C 0.09364 0.54166 0.99855 0.0
O11 O 0.11439 0.59826 0.1537 0.0
O12 O 0.09334 0.54653 0.16121 0.0
In13 In 0.57936 0.13853 0.23071 0.0
O14 O 0.59884 0.1121 0.16858 0.0
O15 O 0.54966 0.10103 0.15533 0.0
C16 C 0.6366 0.18269 0.28314 0.0
C17 C 0.54697 0.09542 0.32457 0.0
C18 C 0.56309 0.18048 0.17784 0.0
O19 O 0.6351 0.16421 0.23827 0.0
O20 O 0.60943 0.17904 0.30094 0.0
O21 O 0.55141 0.16648 0.23024 0.0
O22 O 0.58276 0.17323 0.15199 0.0
C23 C 0.57216 0.09547 0.13932 0.0
O24 O 0.53261 0.10452 0.28601 0.0
O25 O 0.57733 0.10841 0.31664 0.0
In26 In 0.42353 0.56443 0.41878 0.0
O27 O 0.47144 0.58811 0.36269 0.0
O28 O 0.43834 0.53706 0.35071 0.0
C29 C 0.4297 0.61741 0.48003 0.0
C30 C 0.42888 0.52716 0.50973 0.0
C31 C 0.37165 0.55097 0.34474 0.0
O32 O 0.4504 0.61949 0.43951 0.0
O33 O 0.40644 0.5889 0.48998 0.0
O34 O 0.3685 0.53764 0.39833 0.0
O35 O 0.40068 0.57049 0.32836 0.0
C36 C 0.46539 0.56167 0.33605 0.0
O37 O 0.404 0.51654 0.4744 0.0
O38 O 0.45045 0.55654 0.50017 0.0
In39 In 0.86267 0.43153 0.59399 0.0
O40 O 0.88063 0.40594 0.66214 0.0
O41 O 0.90485 0.45799 0.66281 0.0
C42 C 0.81464 0.38006 0.53179 0.0
C43 C 0.90635 0.46169 0.50021 0.0
C44 C 0.82595 0.45154 0.65626 0.0
O45 O 0.83304 0.37674 0.57116 0.0
O46 O 0.82037 0.40891 0.52435 0.0
O47 O 0.84087 0.46493 0.6055 0.0
O48 O 0.82995 0.42853 0.67603 0.0
C49 C 0.90309 0.43236 0.68526 0.0
O50 O 0.8956 0.47654 0.5335 0.0
O51 O 0.8951 0.43202 0.51405 0.0
In52 In 0.42112 0.86244 0.72814 0.0
O53 O 0.40035 0.87832 0.64577 0.0
O54 O 0.45179 0.90408 0.66052 0.0
C55 C 0.36562 0.82049 0.78896 0.0
C56 C 0.44994 0.90729 0.82067 0.0
C57 C 0.44072 0.82248 0.6779 0.0
O58 O 0.36625 0.83924 0.74555 0.0
O59 O 0.39283 0.82273 0.80145 0.0
O60 O 0.45738 0.84382 0.71907 0.0
O61 O 0.41442 0.82139 0.66199 0.0
C62 C 0.42792 0.90122 0.62849 0.0
O63 O 0.4623 0.89075 0.79994 0.0
O64 O 0.42321 0.90098 0.79543 0.0
In65 In 0.57123 0.43405 0.92246 0.0
O66 O 0.53052 0.42382 0.85089 0.0
O67 O 0.57166 0.47197 0.85571 0.0
C68 C 0.55524 0.37249 0.95367 0.0
C69 C 0.55298 0.45742 0.02115 0.0
C70 C 0.63304 0.45308 0.88724 0.0
O71 O 0.54741 0.37921 0.90066 0.0
O72 O 0.57027 0.3965 0.99069 0.0
O73 O 0.62638 0.4598 0.94132 0.0
O74 O 0.60878 0.43764 0.8509 0.0
C75 C 0.54436 0.45292 0.83073 0.0
O76 O 0.58108 0.47335 0.99658 0.0
O77 O 0.53451 0.42979 0.99675 0.0
H78 H 0.06449 0.54109 0.9169 0.0
C79 C 0.06945 0.52554 0.94767 0.0
H80 H 0.05548 0.47684 0.97223 0.0
H81 H 0.91427 0.43659 0.85827 0.0
H82 H 0.90198 0.42404 0.9701 0.0
H83 H 0.9459 0.43602 0.04746 0.0
H84 H 0.00243 0.46065 0.01332 0.0
C85 C 0.05214 0.49298 0.94013 0.0
C86 C 0.02539 0.47884 0.89212 0.0
C87 C 0.99238 0.46318 0.91245 0.0
C88 C 0.96702 0.45598 0.86769 0.0
C89 C 0.93444 0.44203 0.88986 0.0
C90 C 0.92705 0.43482 0.95405 0.0
C91 C 0.95177 0.44158 0.99762 0.0
C92 C 0.98412 0.45572 0.97739 0.0
H93 H 0.9237 0.41041 0.75054 0.0
C94 C 0.92599 0.43328 0.73402 0.0
H95 H 0.95277 0.48478 0.73896 0.0
H96 H 0.08537 0.50294 0.83644 0.0
H97 H 0.09777 0.51419 0.724 0.0
H98 H 0.05399 0.50234 0.64634 0.0
H99 H 0.99756 0.47901 0.68051 0.0
C100 C 0.94977 0.46187 0.75708 0.0
C101 C 0.97485 0.46403 0.80264 0.0
C102 C 0.00761 0.47744 0.78178 0.0
C103 C 0.03288 0.4846 0.82651 0.0
C104 C 0.06538 0.49775 0.80443 0.0
C105 C 0.07278 0.50411 0.74005 0.0
C106 C 0.04813 0.49741 0.69633 0.0
C107 C 0.01587 0.48415 0.71662 0.0
H108 H 0.45205 0.94484 0.88508 0.0
C109 C 0.46526 0.93264 0.86977 0.0
H110 H 0.50895 0.93077 0.87845 0.0
H111 H 0.58075 0.08016 0.96906 0.0
H112 H 0.60784 0.08431 0.86887 0.0
H113 H 0.59057 0.03575 0.80102 0.0
H114 H 0.5459 0.98275 0.83294 0.0
C115 C 0.49475 0.94172 0.8948 0.0
C116 C 0.50942 0.96905 0.94145 0.0
C117 C 0.53642 0.99952 0.92334 0.0
C118 C 0.54677 0.02739 0.96308 0.0
C119 C 0.57248 0.05797 0.94188 0.0
C120 C 0.58813 0.06076 0.88415 0.0
C121 C 0.57837 0.03343 0.84589 0.0
C122 C 0.55271 0.00315 0.86481 0.0
H123 H 0.58607 0.06377 0.08635 0.0
C124 C 0.56701 0.07003 0.09278 0.0
H125 H 0.51925 0.05928 0.06904 0.0
H126 H 0.4609 0.91286 0.99508 0.0
H127 H 0.43403 0.90822 0.09606 0.0
H128 H 0.45099 0.95666 0.16406 0.0
H129 H 0.4955 0.00974 0.13263 0.0
C130 C 0.53863 0.05358 0.06103 0.0
C131 C 0.53049 0.02439 0.02153 0.0
C132 C 0.50466 0.99345 0.04117 0.0
C133 C 0.49437 0.96569 0.0014 0.0
C134 C 0.46898 0.93494 0.02267 0.0
C135 C 0.45354 0.93188 0.08074 0.0
C136 C 0.46319 0.95912 0.11916 0.0
C137 C 0.48862 0.98953 0.1002 0.0
H138 H 0.51101 0.58172 0.27979 0.0
C139 C 0.48833 0.55959 0.29153 0.0
H140 H 0.45962 0.50846 0.27957 0.0
H141 H 0.54478 0.53646 0.01841 0.0
H142 H 0.51668 0.56465 0.98136 0.0
H143 H 0.48281 0.57611 0.05457 0.0
H144 H 0.47683 0.55951 0.16512 0.0
C145 C 0.4817 0.53082 0.26617 0.0
C146 C 0.50494 0.52758 0.22348 0.0
C147 C 0.50847 0.53795 0.15923 0.0
C148 C 0.5277 0.53104 0.11684 0.0
C149 C 0.53039 0.54104 0.05256 0.0
C150 C 0.51441 0.55724 0.03068 0.0
C151 C 0.49536 0.56371 0.07192 0.0
C152 C 0.49224 0.55415 0.1354 0.0
H153 H 0.51778 0.45354 0.0937 0.0
C154 C 0.54151 0.47006 0.0729 0.0
H155 H 0.58094 0.51873 0.06964 0.0
H156 H 0.50521 0.50672 0.34488 0.0
H157 H 0.53357 0.47876 0.3817 0.0
H158 H 0.56699 0.4669 0.30795 0.0
H159 H 0.57215 0.48287 0.1968 0.0
C160 C 0.55799 0.50134 0.09198 0.0
C161 C 0.5428 0.51336 0.1386 0.0
C162 C 0.54056 0.50441 0.20347 0.0
C163 C 0.52147 0.51141 0.24594 0.0
C164 C 0.51926 0.50183 0.31043 0.0
C165 C 0.53549 0.48586 0.33224 0.0
C166 C 0.5543 0.47917 0.29071 0.0
C167 C 0.55693 0.48832 0.22703 0.0
H168 H 0.93761 0.46186 0.42297 0.0
C169 C 0.93056 0.47722 0.44925 0.0
H170 H 0.93895 0.52525 0.46236 0.0
H171 H 0.08245 0.57569 0.34926 0.0
H172 H 0.09477 0.59501 0.45803 0.0
H173 H 0.0505 0.58217 0.53487 0.0
H174 H 0.99357 0.54975 0.50328 0.0
C175 C 0.94466 0.50916 0.43521 0.0
C176 C 0.97064 0.52322 0.38585 0.0
C177 C 0.0037 0.54337 0.40435 0.0
C178 C 0.02921 0.55115 0.35974 0.0
C179 C 0.06207 0.56964 0.38056 0.0
C180 C 0.0695 0.58077 0.44305 0.0
C181 C 0.04458 0.57351 0.48634 0.0
C182 C 0.01201 0.55489 0.46759 0.0
H183 H 0.06882 0.59301 0.23686 0.0
C184 C 0.06888 0.57062 0.22506 0.0
H185 H 0.04669 0.51968 0.23902 0.0
H186 H 0.90975 0.48976 0.3325 0.0
H187 H 0.89709 0.47182 0.22261 0.0
H188 H 0.94122 0.48481 0.14524 0.0
H189 H 0.99821 0.51598 0.17715 0.0
C190 C 0.04724 0.54221 0.2523 0.0
C191 C 0.02139 0.53925 0.29649 0.0
C192 C 0.98827 0.52125 0.27689 0.0
C193 C 0.96286 0.51344 0.32152 0.0
C194 C 0.92996 0.49566 0.30068 0.0
C195 C 0.92238 0.48543 0.23771 0.0
C196 C 0.94722 0.49277 0.19415 0.0
C197 C 0.97982 0.51054 0.21317 0.0
H198 H 0.54508 0.0672 0.40897 0.0
C199 C 0.53007 0.07064 0.374 0.0
H200 H 0.48217 0.05249 0.33809 0.0
H201 H 0.4519 0.91523 0.46067 0.0
H202 H 0.45272 0.90392 0.34847 0.0
H203 H 0.46699 0.94706 0.26834 0.0
H204 H 0.48022 0.00187 0.29979 0.0
C205 C 0.49754 0.0508 0.37466 0.0
C206 C 0.48281 0.02363 0.42142 0.0
C207 C 0.4737 0.99145 0.40189 0.0
C208 C 0.46527 0.96651 0.44813 0.0
C209 C 0.45792 0.93498 0.4276 0.0
C210 C 0.45842 0.92817 0.3633 0.0
C211 C 0.46643 0.95248 0.31813 0.0
C212 C 0.47404 0.98381 0.33687 0.0
H213 H 0.41037 0.91943 0.54942 0.0
C214 C 0.43183 0.92362 0.57622 0.0
H215 H 0.48246 0.9545 0.59123 0.0
H216 H 0.49446 0.08159 0.47326 0.0
H217 H 0.49285 0.09291 0.58553 0.0
H218 H 0.47845 0.04976 0.66599 0.0
H219 H 0.4655 0.99505 0.63474 0.0
C220 C 0.46119 0.94946 0.56281 0.0
C221 C 0.46555 0.97384 0.51359 0.0
C222 C 0.47282 0.00556 0.53272 0.0
C223 C 0.4813 0.03046 0.4865 0.0
C224 C 0.48838 0.06195 0.50671 0.0
C225 C 0.48738 0.06871 0.57089 0.0
C226 C 0.47926 0.04441 0.61619 0.0
C227 C 0.47199 0.01315 0.59762 0.0
H228 H 0.54362 0.49063 0.77082 0.0
C229 C 0.52963 0.46496 0.78411 0.0
H230 H 0.48506 0.42052 0.77206 0.0
H231 H 0.45294 0.53866 0.69447 0.0
H232 H 0.45468 0.54756 0.80847 0.0
H233 H 0.46958 0.51638 0.88213 0.0
H234 H 0.4829 0.47618 0.84221 0.0
C235 C 0.49942 0.44635 0.76045 0.0
C236 C 0.48533 0.46112 0.71731 0.0
C237 C 0.47678 0.48388 0.74158 0.0
C238 C 0.46786 0.50158 0.69922 0.0
C239 C 0.45999 0.52461 0.72458 0.0
C240 C 0.46079 0.52988 0.78991 0.0
C241 C 0.4692 0.51235 0.83138 0.0
C242 C 0.477 0.4895 0.8078 0.0
H243 H 0.41387 0.48094 0.56133 0.0
C244 C 0.43323 0.5062 0.55599 0.0
H245 H 0.4805 0.54267 0.58448 0.0
H246 H 0.49699 0.41679 0.65649 0.0
H247 H 0.49494 0.40751 0.54252 0.0
H248 H 0.48061 0.43902 0.46857 0.0
H249 H 0.46794 0.47967 0.50795 0.0
C250 C 0.46125 0.51729 0.5887 0.0
C251 C 0.46701 0.49611 0.63284 0.0
C252 C 0.47414 0.47226 0.60876 0.0
C253 C 0.48297 0.45448 0.65125 0.0
C254 C 0.49031 0.43106 0.62616 0.0
C255 C 0.48923 0.42551 0.56091 0.0
C256 C 0.48111 0.44321 0.51928 0.0
C257 C 0.47374 0.4664 0.5426 0.0
H258 H 0.20162 0.56071 0.2499 0.0
C259 C 0.19478 0.54957 0.20302 0.0
H260 H 0.20373 0.52327 0.13208 0.0
H261 H 0.33438 0.59598 0.32477 0.0
H262 H 0.34105 0.64676 0.28306 0.0
H263 H 0.30169 0.64664 0.20563 0.0
H264 H 0.25484 0.59577 0.1715 0.0
C265 C 0.21015 0.53454 0.17886 0.0
C266 C 0.23721 0.53418 0.21472 0.0
C267 C 0.26588 0.56405 0.2301 0.0
C268 C 0.28997 0.56397 0.27052 0.0
C269 C 0.31649 0.59438 0.29066 0.0
C270 C 0.32045 0.6238 0.26761 0.0
C271 C 0.2982 0.62375 0.22436 0.0
C272 C 0.27121 0.59433 0.20566 0.0
H273 H 0.34918 0.55654 0.2576 0.0
C274 C 0.34391 0.54633 0.30533 0.0
H275 H 0.30777 0.52311 0.37609 0.0
H276 H 0.18598 0.47272 0.19212 0.0
H277 H 0.18116 0.42157 0.2278 0.0
H278 H 0.22487 0.42117 0.29154 0.0
H279 H 0.27353 0.47191 0.32061 0.0
C280 C 0.31346 0.5335 0.32854 0.0
C281 C 0.28697 0.53382 0.29047 0.0
C282 C 0.25888 0.50393 0.27321 0.0
C283 C 0.23389 0.50412 0.23561 0.0
C284 C 0.20582 0.47395 0.22008 0.0
C285 C 0.20274 0.44442 0.24025 0.0
C286 C 0.22735 0.44419 0.27618 0.0
C287 C 0.25515 0.47351 0.29259 0.0
H288 H 0.68984 0.20606 0.29987 0.0
C289 C 0.66772 0.20624 0.31349 0.0
H290 H 0.64678 0.22712 0.37215 0.0
H291 H 0.75007 0.28434 0.58896 0.0
H292 H 0.70371 0.24035 0.64348 0.0
H293 H 0.6554 0.19985 0.58354 0.0
H294 H 0.653 0.20328 0.46883 0.0
C295 C 0.66906 0.22754 0.35744 0.0
C296 C 0.69976 0.25015 0.39184 0.0
C297 C 0.70113 0.24726 0.45881 0.0
C298 C 0.72923 0.27023 0.49329 0.0
C299 C 0.72949 0.26737 0.56032 0.0
C300 C 0.70304 0.24222 0.59226 0.0
C301 C 0.67583 0.21944 0.55852 0.0
C302 C 0.67474 0.22178 0.49263 0.0
H303 H 0.77285 0.35827 0.4663 0.0
C304 C 0.78842 0.35284 0.49602 0.0
H305 H 0.79826 0.31617 0.52802 0.0
H306 H 0.70461 0.26472 0.26422 0.0
H307 H 0.75241 0.30635 0.20942 0.0
H308 H 0.80313 0.34247 0.26824 0.0
H309 H 0.80591 0.33764 0.38267 0.0
C310 C 0.78345 0.32226 0.49757 0.0
C311 C 0.75605 0.29581 0.46069 0.0
C312 C 0.75553 0.2975 0.39335 0.0
C313 C 0.72697 0.27535 0.35902 0.0
C314 C 0.72617 0.27961 0.29246 0.0
C315 C 0.7534 0.30365 0.26036 0.0
C316 C 0.7819 0.32409 0.2935 0.0
C317 C 0.78308 0.3212 0.35921 0.0
H318 H 0.47497 0.80385 0.66443 0.0
C319 C 0.45106 0.80015 0.65148 0.0
H320 H 0.40759 0.77172 0.59962 0.0
H321 H 0.45565 0.70713 0.40145 0.0
H322 H 0.44876 0.74522 0.335 0.0
H323 H 0.43908 0.7874 0.38264 0.0
H324 H 0.43589 0.79151 0.49707 0.0
C325 C 0.43122 0.77501 0.61374 0.0
C326 C 0.44111 0.75214 0.58643 0.0
C327 C 0.44376 0.7506 0.51949 0.0
C328 C 0.44996 0.72668 0.49206 0.0
C329 C 0.45139 0.72504 0.42496 0.0
C330 C 0.44746 0.74677 0.38617 0.0
C331 C 0.44197 0.77048 0.41299 0.0
C332 C 0.4401 0.77249 0.47878 0.0
H333 H 0.41119 0.64132 0.54377 0.0
C334 C 0.43126 0.64582 0.51221 0.0
H335 H 0.47519 0.68161 0.46968 0.0
H336 H 0.43587 0.74685 0.71674 0.0
H337 H 0.44678 0.71147 0.78306 0.0
H338 H 0.46283 0.67377 0.73557 0.0
H339 H 0.46723 0.67074 0.62107 0.0
C340 C 0.45551 0.67662 0.50262 0.0
C341 C 0.45384 0.70455 0.53169 0.0
C342 C 0.45344 0.70756 0.59876 0.0
C343 C 0.44606 0.73067 0.62621 0.0
C344 C 0.443 0.73104 0.69319 0.0
C345 C 0.44895 0.71063 0.73195 0.0
C346 C 0.45785 0.6893 0.70521 0.0
C347 C 0.46006 0.68765 0.63944 0.0
H348 H 0.68502 0.46944 0.90646 0.0
C349 C 0.66612 0.45996 0.87008 0.0
H350 H 0.65301 0.44144 0.77696 0.0
H351 H 0.81521 0.50923 0.76832 0.0
H352 H 0.8178 0.56125 0.78651 0.0
H353 H 0.76769 0.56369 0.80826 0.0
H354 H 0.71482 0.5141 0.81325 0.0
C355 C 0.67231 0.452 0.81251 0.0
C356 C 0.70288 0.45135 0.79895 0.0
C357 C 0.73339 0.4807 0.79407 0.0
C358 C 0.76208 0.47941 0.77856 0.0
C359 C 0.79249 0.50891 0.77721 0.0
C360 C 0.79435 0.53892 0.78804 0.0
C361 C 0.76615 0.54028 0.8005 0.0
C362 C 0.73596 0.5116 0.80351 0.0
H363 H 0.79556 0.47491 0.65953 0.0
C364 C 0.80291 0.45991 0.68624 0.0
H365 H 0.7959 0.43174 0.76856 0.0
H366 H 0.64877 0.3904 0.81035 0.0
H367 H 0.64597 0.33855 0.79006 0.0
H368 H 0.69497 0.33645 0.75668 0.0
H369 H 0.74706 0.38607 0.74426 0.0
C370 C 0.78888 0.44718 0.74252 0.0
C371 C 0.75989 0.44891 0.76511 0.0
C372 C 0.72945 0.41953 0.77124 0.0
C373 C 0.70102 0.42076 0.78876 0.0
C374 C 0.67105 0.391 0.79579 0.0
C375 C 0.66908 0.361 0.78451 0.0
C376 C 0.69666 0.35982 0.76586 0.0
C377 C 0.72651 0.3886 0.75911 0.0
H378 H 0.31328 0.79896 0.81206 0.0
C379 C 0.33526 0.79783 0.82242 0.0
H380 H 0.3562 0.77502 0.87566 0.0
H381 H 0.25422 0.7175 0.0962 0.0
H382 H 0.30218 0.75901 0.15154 0.0
H383 H 0.35102 0.79876 0.09203 0.0
H384 H 0.35234 0.79704 0.97689 0.0
C385 C 0.33409 0.7757 0.86406 0.0
C386 C 0.3036 0.75309 0.89891 0.0
C387 C 0.30297 0.75493 0.96619 0.0
C388 C 0.27462 0.7324 0.00049 0.0
C389 C 0.27499 0.73421 0.06774 0.0
C390 C 0.30236 0.75793 0.10014 0.0
C391 C 0.32987 0.78028 0.06663 0.0
C392 C 0.33032 0.77895 0.00049 0.0
H393 H 0.22722 0.64516 0.9692 0.0
C394 C 0.21234 0.65111 -0.00025 0.0
H395 H 0.20489 0.68882 0.03508 0.0
H396 H 0.29727 0.74028 0.77041 0.0
H397 H 0.24812 0.70119 0.71516 0.0
H398 H 0.1972 0.66612 0.77415 0.0
H399 H 0.19554 0.66944 0.8891 0.0
C400 C 0.21889 0.68218 0.00359 0.0
C401 C 0.24684 0.70829 0.96741 0.0
C402 C 0.24681 0.70758 0.89996 0.0
C403 C 0.27556 0.72923 0.86571 0.0
C404 C 0.27566 0.72583 0.79876 0.0
C405 C 0.24764 0.70322 0.76638 0.0
C406 C 0.21903 0.68337 0.79959 0.0
C407 C 0.21848 0.68538 0.86559 0.0
H408 H 0.54083 0.32112 0.93224 0.0
C409 C 0.54981 0.3397 0.9692 0.0
H410 H 0.5682 0.3525 0.0625 0.0
H411 H 0.50508 0.19106 0.07011 0.0
H412 H 0.45228 0.18665 0.05138 0.0
H413 H 0.44804 0.23573 0.02909 0.0
H414 H 0.49659 0.2894 0.02421 0.0
C415 C 0.55826 0.33349 0.02636 0.0
C416 C 0.56 0.30341 0.03916 0.0
C417 C 0.53123 0.27239 0.04375 0.0
C418 C 0.53355 0.24426 0.05931 0.0
C419 C 0.50461 0.21336 0.06084 0.0
C420 C 0.47417 0.21046 0.04979 0.0
C421 C 0.47179 0.23808 0.03703 0.0
C422 C 0.49989 0.26875 0.03408 0.0
H423 H 0.54176 0.21274 0.18006 0.0
C424 C 0.55572 0.20494 0.15118 0.0
H425 H 0.58191 0.21173 0.066 0.0
H426 H 0.62011 0.3588 0.02916 0.0
H427 H 0.6727 0.36333 0.05 0.0
H428 H 0.67651 0.31511 0.08244 0.0
H429 H 0.6278 0.26205 0.09351 0.0
C430 C 0.56723 0.21887 0.09427 0.0
C431 C 0.5645 0.24746 0.07272 0.0
C432 C 0.59328 0.27839 0.06696 0.0
C433 C 0.59104 0.30632 0.04974 0.0
C434 C 0.62026 0.33684 0.04339 0.0
C435 C 0.65068 0.3398 0.05498 0.0
C436 C 0.65282 0.31265 0.07311 0.0
C437 C 0.62459 0.28228 0.07915 0.0
loop_
_geom_bond_atom_site_label_1
_geom_bond_atom_site_label_2
_geom_bond_distance
_geom_bond_site_symmetry_2
_ccdc_geom_bond_type
In0 O1 2.294 . S
In0 O2 2.326 . S
In0 O6 2.266 . S
In0 O7 2.326 . S
In0 O8 2.266 . S
In0 O9 2.326 . S
In0 O11 2.294 . S
In0 O12 2.326 . S
O1 In0 2.294 . S
O1 C10 1.240 1_554 S
O2 In0 2.326 . S
O2 C10 1.252 1_554 S
C3 O6 1.252 . S
C3 O7 1.260 . S
C4 O11 1.240 . S
C4 O12 1.252 . S
C5 O8 1.252 . S
C5 O9 1.260 . S
O6 In0 2.266 . S
O6 C3 1.252 . S
O7 In0 2.326 . S
O7 C3 1.260 . S
O8 In0 2.266 . S
O8 C5 1.252 . S
O9 In0 2.326 . S
O9 C5 1.260 . S
C10 O1 1.240 1_556 S
C10 O2 1.252 1_556 S
O11 In0 2.294 . S
O11 C4 1.240 . S
O12 In0 2.326 . S
O12 C4 1.252 . S
In13 O14 2.294 . S
In13 O15 2.326 . S
In13 O19 2.266 . S
In13 O20 2.326 . S
In13 O21 2.266 . S
In13 O22 2.326 . S
In13 O24 2.294 . S
In13 O25 2.326 . S
O14 In13 2.294 . S
O14 C23 1.240 . S
O15 In13 2.326 . S
O15 C23 1.252 . S
C16 O19 1.252 . S
C16 O20 1.260 . S
C17 O24 1.240 . S
C17 O25 1.252 . S
C18 O21 1.252 . S
C18 O22 1.260 . S
O19 In13 2.266 . S
O19 C16 1.252 . S
O20 In13 2.326 . S
O20 C16 1.260 . S
O21 In13 2.266 . S
O21 C18 1.252 . S
O22 In13 2.326 . S
O22 C18 1.260 . S
C23 O14 1.240 . S
C23 O15 1.252 . S
O24 In13 2.294 . S
O24 C17 1.240 . S
O25 In13 2.326 . S
O25 C17 1.252 . S
In26 O27 2.294 . S
In26 O28 2.326 . S
In26 O32 2.266 . S
In26 O33 2.326 . S
In26 O34 2.266 . S
In26 O35 2.326 . S
In26 O37 2.294 . S
In26 O38 2.326 . S
O27 In26 2.294 . S
O27 C36 1.240 . S
O28 In26 2.326 . S
O28 C36 1.252 . S
C29 O32 1.252 . S
C29 O33 1.260 . S
C30 O37 1.240 . S
C30 O38 1.252 . S
C31 O34 1.252 . S
C31 O35 1.260 . S
O32 In26 2.266 . S
O32 C29 1.252 . S
O33 In26 2.326 . S
O33 C29 1.260 . S
O34 In26 2.266 . S
O34 C31 1.252 . S
O35 In26 2.326 . S
O35 C31 1.260 . S
C36 O27 1.240 . S
C36 O28 1.252 . S
O37 In26 2.294 . S
O37 C30 1.240 . S
O38 In26 2.326 . S
O38 C30 1.252 . S
In39 O40 2.294 . S
In39 O41 2.326 . S
In39 O45 2.266 . S
In39 O46 2.326 . S
In39 O47 2.266 . S
In39 O48 2.326 . S
In39 O50 2.294 . S
In39 O51 2.326 . S
O40 In39 2.294 . S
O40 C49 1.240 . S
O41 In39 2.326 . S
O41 C49 1.252 . S
C42 O45 1.252 . S
C42 O46 1.260 . S
C43 O50 1.240 . S
C43 O51 1.252 . S
C44 O47 1.252 . S
C44 O48 1.260 . S
O45 In39 2.266 . S
O45 C42 1.252 . S
O46 In39 2.326 . S
O46 C42 1.260 . S
O47 In39 2.266 . S
O47 C44 1.252 . S
O48 In39 2.326 . S
O48 C44 1.260 . S
C49 O40 1.240 . S
C49 O41 1.252 . S
O50 In39 2.294 . S
O50 C43 1.240 . S
O51 In39 2.326 . S
O51 C43 1.252 . S
In52 O53 2.294 . S
In52 O54 2.326 . S
In52 O58 2.266 . S
In52 O59 2.326 . S
In52 O60 2.266 . S
In52 O61 2.326 . S
In52 O63 2.294 . S
In52 O64 2.326 . S
O53 In52 2.294 . S
O53 C62 1.240 . S
O54 In52 2.326 . S
O54 C62 1.252 . S
C55 O58 1.252 . S
C55 O59 1.260 . S
C56 O63 1.240 . S
C56 O64 1.252 . S
C57 O60 1.252 . S
C57 O61 1.260 . S
O58 In52 2.266 . S
O58 C55 1.252 . S
O59 In52 2.326 . S
O59 C55 1.260 . S
O60 In52 2.266 . S
O60 C57 1.252 . S
O61 In52 2.326 . S
O61 C57 1.260 . S
C62 O53 1.240 . S
C62 O54 1.252 . S
O63 In52 2.294 . S
O63 C56 1.240 . S
O64 In52 2.326 . S
O64 C56 1.252 . S
In65 O66 2.294 . S
In65 O67 2.326 . S
In65 O71 2.266 . S
In65 O72 2.326 . S
In65 O73 2.266 . S
In65 O74 2.326 . S
In65 O76 2.294 . S
In65 O77 2.326 . S
O66 In65 2.294 . S
O66 C75 1.240 . S
O67 In65 2.326 . S
O67 C75 1.252 . S
C68 O71 1.252 . S
C68 O72 1.260 . S
C69 O76 1.240 1_554 S
C69 O77 1.252 1_554 S
C70 O73 1.252 . S
C70 O74 1.260 . S
O71 In65 2.266 . S
O71 C68 1.252 . S
O72 In65 2.326 . S
O72 C68 1.260 . S
O73 In65 2.266 . S
O73 C70 1.252 . S
O74 In65 2.326 . S
O74 C70 1.260 . S
C75 O66 1.240 . S
C75 O67 1.252 . S
O76 In65 2.294 . S
O76 C69 1.240 1_556 S
O77 In65 2.326 . S
O77 C69 1.252 1_556 S
H78 C79 0.951 . S
C79 H78 0.951 . S
C79 C85 1.265 . S
H80 C85 0.950 . S
H81 C89 0.949 . S
H82 C90 0.950 . S
H83 C91 0.951 . S
H84 C92 0.951 . S
C85 C79 1.265 . S
C85 H80 0.950 . S
C85 C86 1.478 . S
C86 C85 1.478 . S
C86 C87 1.397 . S
C86 C103 1.394 . S
C87 C86 1.397 . S
C87 C88 1.438 1_455 S
C87 C92 1.429 . S
C88 C87 1.438 1_655 S
C88 C89 1.428 . S
C88 C101 1.394 . S
C89 H81 0.949 . S
C89 C88 1.428 . S
C89 C90 1.345 . S
C90 H82 0.950 . S
C90 C89 1.345 . S
C90 C91 1.424 . S
C91 H83 0.951 . S
C91 C90 1.424 . S
C91 C92 1.347 1_655 S
C92 H84 0.951 . S
C92 C87 1.429 . S
C92 C91 1.347 1_455 S
H93 C94 0.951 . S
C94 H93 0.951 . S
C94 C100 1.265 . S
H95 C100 0.950 . S
H96 C104 0.949 . S
H97 C105 0.950 . S
H98 C106 0.951 . S
H99 C107 0.951 . S
C100 C94 1.265 . S
C100 H95 0.950 . S
C100 C101 1.478 . S
C101 C88 1.394 . S
C101 C100 1.478 . S
C101 C102 1.397 . S
C102 C101 1.397 . S
C102 C103 1.438 1_655 S
C102 C107 1.429 . S
C103 C86 1.394 . S
C103 C102 1.438 1_455 S
C103 C104 1.428 . S
C104 H96 0.949 . S
C104 C103 1.428 . S
C104 C105 1.345 . S
C105 H97 0.950 . S
C105 C104 1.345 . S
C105 C106 1.424 . S
C106 H98 0.951 . S
C106 C105 1.424 . S
C106 C107 1.347 1_455 S
C107 H99 0.951 . S
C107 C102 1.429 . S
C107 C106 1.347 1_655 S
H108 C109 0.951 . S
C109 H108 0.951 . S
C109 C115 1.265 . S
H110 C115 0.950 . S
H111 C119 0.949 . S
H112 C120 0.950 . S
H113 C121 0.951 . S
H114 C122 0.951 . S
C115 C109 1.265 . S
C115 H110 0.950 . S
C115 C116 1.478 . S
C116 C115 1.478 . S
C116 C117 1.397 . S
C116 C133 1.394 . S
C117 C116 1.397 . S
C117 C118 1.438 1_566 S
C117 C122 1.429 . S
C118 C117 1.438 1_544 S
C118 C119 1.428 . S
C118 C131 1.394 . S
C119 H111 0.949 . S
C119 C118 1.428 . S
C119 C120 1.345 1_554 S
C120 H112 0.950 . S
C120 C119 1.345 1_556 S
C120 C121 1.424 . S
C121 H113 0.951 . S
C121 C120 1.424 . S
C121 C122 1.347 1_545 S
C122 H114 0.951 . S
C122 C117 1.429 . S
C122 C121 1.347 1_565 S
H123 C124 0.951 . S
C124 H123 0.951 . S
C124 C130 1.265 . S
H125 C130 0.950 . S
H126 C134 0.949 . S
H127 C135 0.950 . S
H128 C136 0.951 . S
H129 C137 0.951 . S
C130 C124 1.265 . S
C130 H125 0.950 . S
C130 C131 1.478 . S
C131 C118 1.394 . S
C131 C130 1.478 . S
C131 C132 1.397 . S
C132 C131 1.397 . S
C132 C133 1.438 1_544 S
C132 C137 1.429 . S
C133 C116 1.394 . S
C133 C132 1.438 1_566 S
C133 C134 1.428 . S
C134 H126 0.949 . S
C134 C133 1.428 . S
C134 C135 1.345 1_556 S
C135 H127 0.950 . S
C135 C134 1.345 1_554 S
C135 C136 1.424 . S
C136 H128 0.951 . S
C136 C135 1.424 . S
C136 C137 1.347 1_565 S
C137 H129 0.951 . S
C137 C132 1.429 . S
C137 C136 1.347 1_545 S
H138 C139 0.951 . S
C139 H138 0.951 . S
C139 C145 1.265 . S
H140 C145 0.950 . S
H141 C149 0.949 . S
H142 C150 0.950 1_556 S
H143 C151 0.951 . S
H144 C152 0.951 . S
C145 C139 1.265 . S
C145 H140 0.950 . S
C145 C146 1.478 . S
C146 C145 1.478 . S
C146 C147 1.397 . S
C146 C163 1.394 . S
C147 C146 1.397 . S
C147 C148 1.438 . S
C147 C152 1.429 . S
C148 C147 1.438 . S
C148 C149 1.428 . S
C148 C161 1.394 . S
C149 H141 0.949 . S
C149 C148 1.428 . S
C149 C150 1.345 . S
C150 H142 0.950 1_554 S
C150 C149 1.345 . S
C150 C151 1.424 . S
C151 H143 0.951 . S
C151 C150 1.424 . S
C151 C152 1.347 . S
C152 H144 0.951 . S
C152 C147 1.429 . S
C152 C151 1.347 . S
H153 C154 0.951 . S
C154 H153 0.951 . S
C154 C160 1.265 . S
H155 C160 0.950 . S
H156 C164 0.949 . S
H157 C165 0.950 . S
H158 C166 0.951 . S
H159 C167 0.951 . S
C160 C154 1.265 . S
C160 H155 0.950 . S
C160 C161 1.478 . S
C161 C148 1.394 . S
C161 C160 1.478 . S
C161 C162 1.397 . S
C162 C161 1.397 . S
C162 C163 1.438 . S
C162 C167 1.429 . S
C163 C146 1.394 . S
C163 C162 1.438 . S
C163 C164 1.428 . S
C164 H156 0.949 . S
C164 C163 1.428 . S
C164 C165 1.345 . S
C165 H157 0.950 . S
C165 C164 1.345 . S
C165 C166 1.424 . S
C166 H158 0.951 . S
C166 C165 1.424 . S
C166 C167 1.347 . S
C167 H159 0.951 . S
C167 C162 1.429 . S
C167 C166 1.347 . S
H168 C169 0.951 . S
C169 H168 0.951 . S
C169 C175 1.265 . S
H170 C175 0.950 . S
H171 C179 0.949 . S
H172 C180 0.950 . S
H173 C181 0.951 . S
H174 C182 0.951 . S
C175 C169 1.265 . S
C175 H170 0.950 . S
C175 C176 1.478 . S
C176 C175 1.478 . S
C176 C177 1.397 . S
C176 C193 1.394 . S
C177 C176 1.397 . S
C177 C178 1.438 1_655 S
C177 C182 1.429 . S
C178 C177 1.438 1_455 S
C178 C179 1.428 . S
C178 C191 1.394 . S
C179 H171 0.949 . S
C179 C178 1.428 . S
C179 C180 1.345 . S
C180 H172 0.950 . S
C180 C179 1.345 . S
C180 C181 1.424 . S
C181 H173 0.951 . S
C181 C180 1.424 . S
C181 C182 1.347 1_455 S
C182 H174 0.951 . S
C182 C177 1.429 . S
C182 C181 1.347 1_655 S
H183 C184 0.951 . S
C184 H183 0.951 . S
C184 C190 1.265 . S
H185 C190 0.950 . S
H186 C194 0.949 . S
H187 C195 0.950 . S
H188 C196 0.951 . S
H189 C197 0.951 . S
C190 C184 1.265 . S
C190 H185 0.950 . S
C190 C191 1.478 . S
C191 C178 1.394 . S
C191 C190 1.478 . S
C191 C192 1.397 . S
C192 C191 1.397 . S
C192 C193 1.438 1_455 S
C192 C197 1.429 . S
C193 C176 1.394 . S
C193 C192 1.438 1_655 S
C193 C194 1.428 . S
C194 H186 0.949 . S
C194 C193 1.428 . S
C194 C195 1.345 . S
C195 H187 0.950 . S
C195 C194 1.345 . S
C195 C196 1.424 . S
C196 H188 0.951 . S
C196 C195 1.424 . S
C196 C197 1.347 1_655 S
C197 H189 0.951 . S
C197 C192 1.429 . S
C197 C196 1.347 1_455 S
H198 C199 0.951 . S
C199 H198 0.951 . S
C199 C205 1.265 . S
H200 C205 0.950 . S
H201 C209 0.949 . S
H202 C210 0.950 . S
H203 C211 0.951 . S
H204 C212 0.951 . S
C205 C199 1.265 . S
C205 H200 0.950 . S
C205 C206 1.478 . S
C206 C205 1.478 . S
C206 C207 1.397 1_545 S
C206 C223 1.394 . S
C207 C206 1.397 1_565 S
C207 C208 1.438 . S
C207 C212 1.429 . S
C208 C207 1.438 . S
C208 C209 1.428 . S
C208 C221 1.394 . S
C209 H201 0.949 . S
C209 C208 1.428 . S
C209 C210 1.345 . S
C210 H202 0.950 . S
C210 C209 1.345 . S
C210 C211 1.424 . S
C211 H203 0.951 . S
C211 C210 1.424 . S
C211 C212 1.347 . S
C212 H204 0.951 . S
C212 C207 1.429 . S
C212 C211 1.347 . S
H213 C214 0.951 . S
C214 H213 0.951 . S
C214 C220 1.265 . S
H215 C220 0.950 . S
H216 C224 0.949 . S
H217 C225 0.950 . S
H218 C226 0.951 . S
H219 C227 0.951 . S
C220 C214 1.265 . S
C220 H215 0.950 . S
C220 C221 1.478 . S
C221 C208 1.394 . S
C221 C220 1.478 . S
C221 C222 1.397 1_565 S
C222 C221 1.397 1_545 S
C222 C223 1.438 . S
C222 C227 1.429 . S
C223 C206 1.394 . S
C223 C222 1.438 . S
C223 C224 1.428 . S
C224 H216 0.949 . S
C224 C223 1.428 . S
C224 C225 1.345 . S
C225 H217 0.950 . S
C225 C224 1.345 . S
C225 C226 1.424 . S
C226 H218 0.951 . S
C226 C225 1.424 . S
C226 C227 1.347 . S
C227 H219 0.951 . S
C227 C222 1.429 . S
C227 C226 1.347 . S
H228 C229 0.951 . S
C229 H228 0.951 . S
C229 C235 1.265 . S
H230 C235 0.950 . S
H231 C239 0.949 . S
H232 C240 0.950 . S
H233 C241 0.951 . S
H234 C242 0.951 . S
C235 C229 1.265 . S
C235 H230 0.950 . S
C235 C236 1.478 . S
C236 C235 1.478 . S
C236 C237 1.397 . S
C236 C253 1.394 . S
C237 C236 1.397 . S
C237 C238 1.438 . S
C237 C242 1.429 . S
C238 C237 1.438 . S
C238 C239 1.428 . S
C238 C251 1.394 . S
C239 H231 0.949 . S
C239 C238 1.428 . S
C239 C240 1.345 . S
C240 H232 0.950 . S
C240 C239 1.345 . S
C240 C241 1.424 . S
C241 H233 0.951 . S
C241 C240 1.424 . S
C241 C242 1.347 . S
C242 H234 0.951 . S
C242 C237 1.429 . S
C242 C241 1.347 . S
H243 C244 0.951 . S
C244 H243 0.951 . S
C244 C250 1.265 . S
H245 C250 0.950 . S
H246 C254 0.949 . S
H247 C255 0.950 . S
H248 C256 0.951 . S
H249 C257 0.951 . S
C250 C244 1.265 . S
C250 H245 0.950 . S
C250 C251 1.478 . S
C251 C238 1.394 . S
C251 C250 1.478 . S
C251 C252 1.397 . S
C252 C251 1.397 . S
C252 C253 1.438 . S
C252 C257 1.429 . S
C253 C236 1.394 . S
C253 C252 1.438 . S
C253 C254 1.428 . S
C254 H246 0.949 . S
C254 C253 1.428 . S
C254 C255 1.345 . S
C255 H247 0.950 . S
C255 C254 1.345 . S
C255 C256 1.424 . S
C256 H248 0.951 . S
C256 C255 1.424 . S
C256 C257 1.347 . S
C257 H249 0.951 . S
C257 C252 1.429 . S
C257 C256 1.347 . S
H258 C259 0.951 . S
C259 H258 0.951 . S
C259 C265 1.265 . S
H260 C265 0.950 . S
H261 C269 0.949 . S
H262 C270 0.950 . S
H263 C271 0.951 . S
H264 C272 0.951 . S
C265 C259 1.265 . S
C265 H260 0.950 . S
C265 C266 1.478 . S
C266 C265 1.478 . S
C266 C267 1.397 . S
C266 C283 1.394 . S
C267 C266 1.397 . S
C267 C268 1.438 . S
C267 C272 1.429 . S
C268 C267 1.438 . S
C268 C269 1.428 . S
C268 C281 1.394 . S
C269 H261 0.949 . S
C269 C268 1.428 . S
C269 C270 1.345 . S
C270 H262 0.950 . S
C270 C269 1.345 . S
C270 C271 1.424 . S
C271 H263 0.951 . S
C271 C270 1.424 . S
C271 C272 1.347 . S
C272 H264 0.951 . S
C272 C267 1.429 . S
C272 C271 1.347 . S
H273 C274 0.951 . S
C274 H273 0.951 . S
C274 C280 1.265 . S
H275 C280 0.950 . S
H276 C284 0.949 . S
H277 C285 0.950 . S
H278 C286 0.951 . S
H279 C287 0.951 . S
C280 C274 1.265 . S
C280 H275 0.950 . S
C280 C281 1.478 . S
C281 C268 1.394 . S
C281 C280 1.478 . S
C281 C282 1.397 . S
C282 C281 1.397 . S
C282 C283 1.438 . S
C282 C287 1.429 . S
C283 C266 1.394 . S
C283 C282 1.438 . S
C283 C284 1.428 . S
C284 H276 0.949 . S
C284 C283 1.428 . S
C284 C285 1.345 . S
C285 H277 0.950 . S
C285 C284 1.345 . S
C285 C286 1.424 . S
C286 H278 0.951 . S
C286 C285 1.424 . S
C286 C287 1.347 . S
C287 H279 0.951 . S
C287 C282 1.429 . S
C287 C286 1.347 . S
H288 C289 0.951 . S
C289 H288 0.951 . S
C289 C295 1.265 . S
H290 C295 0.950 . S
H291 C299 0.949 . S
H292 C300 0.950 . S
H293 C301 0.951 . S
H294 C302 0.951 . S
C295 C289 1.265 . S
C295 H290 0.950 . S
C295 C296 1.478 . S
C296 C295 1.478 . S
C296 C297 1.397 . S
C296 C313 1.394 . S
C297 C296 1.397 . S
C297 C298 1.438 . S
C297 C302 1.429 . S
C298 C297 1.438 . S
C298 C299 1.428 . S
C298 C311 1.394 . S
C299 H291 0.949 . S
C299 C298 1.428 . S
C299 C300 1.345 . S
C300 H292 0.950 . S
C300 C299 1.345 . S
C300 C301 1.424 . S
C301 H293 0.951 . S
C301 C300 1.424 . S
C301 C302 1.347 . S
C302 H294 0.951 . S
C302 C297 1.429 . S
C302 C301 1.347 . S
H303 C304 0.951 . S
C304 H303 0.951 . S
C304 C310 1.265 . S
H305 C310 0.950 . S
H306 C314 0.949 . S
H307 C315 0.950 . S
H308 C316 0.951 . S
H309 C317 0.951 . S
C310 C304 1.265 . S
C310 H305 0.950 . S
C310 C311 1.478 . S
C311 C298 1.394 . S
C311 C310 1.478 . S
C311 C312 1.397 . S
C312 C311 1.397 . S
C312 C313 1.438 . S
C312 C317 1.429 . S
C313 C296 1.394 . S
C313 C312 1.438 . S
C313 C314 1.428 . S
C314 H306 0.949 . S
C314 C313 1.428 . S
C314 C315 1.345 . S
C315 H307 0.950 . S
C315 C314 1.345 . S
C315 C316 1.424 . S
C316 H308 0.951 . S
C316 C315 1.424 . S
C316 C317 1.347 . S
C317 H309 0.951 . S
C317 C312 1.429 . S
C317 C316 1.347 . S
H318 C319 0.951 . S
C319 H318 0.951 . S
C319 C325 1.265 . S
H320 C325 0.950 . S
H321 C329 0.949 . S
H322 C330 0.950 . S
H323 C331 0.951 . S
H324 C332 0.951 . S
C325 C319 1.265 . S
C325 H320 0.950 . S
C325 C326 1.478 . S
C326 C325 1.478 . S
C326 C327 1.397 . S
C326 C343 1.394 . S
C327 C326 1.397 . S
C327 C328 1.438 . S
C327 C332 1.429 . S
C328 C327 1.438 . S
C328 C329 1.428 . S
C328 C341 1.394 . S
C329 H321 0.949 . S
C329 C328 1.428 . S
C329 C330 1.345 . S
C330 H322 0.950 . S
C330 C329 1.345 . S
C330 C331 1.424 . S
C331 H323 0.951 . S
C331 C330 1.424 . S
C331 C332 1.347 . S
C332 H324 0.951 . S
C332 C327 1.429 . S
C332 C331 1.347 . S
H333 C334 0.951 . S
C334 H333 0.951 . S
C334 C340 1.265 . S
H335 C340 0.950 . S
H336 C344 0.949 . S
H337 C345 0.950 . S
H338 C346 0.951 . S
H339 C347 0.951 . S
C340 C334 1.265 . S
C340 H335 0.950 . S
C340 C341 1.478 . S
C341 C328 1.394 . S
C341 C340 1.478 . S
C341 C342 1.397 . S
C342 C341 1.397 . S
C342 C343 1.438 . S
C342 C347 1.429 . S
C343 C326 1.394 . S
C343 C342 1.438 . S
C343 C344 1.428 . S
C344 H336 0.949 . S
C344 C343 1.428 . S
C344 C345 1.345 . S
C345 H337 0.950 . S
C345 C344 1.345 . S
C345 C346 1.424 . S
C346 H338 0.951 . S
C346 C345 1.424 . S
C346 C347 1.347 . S
C347 H339 0.951 . S
C347 C342 1.429 . S
C347 C346 1.347 . S
H348 C349 0.951 . S
C349 H348 0.951 . S
C349 C355 1.265 . S
H350 C355 0.950 . S
H351 C359 0.949 . S
H352 C360 0.950 . S
H353 C361 0.951 . S
H354 C362 0.951 . S
C355 C349 1.265 . S
C355 H350 0.950 . S
C355 C356 1.478 . S
C356 C355 1.478 . S
C356 C357 1.397 . S
C356 C373 1.394 . S
C357 C356 1.397 . S
C357 C358 1.438 . S
C357 C362 1.429 . S
C358 C357 1.438 . S
C358 C359 1.428 . S
C358 C371 1.394 . S
C359 H351 0.949 . S
C359 C358 1.428 . S
C359 C360 1.345 . S
C360 H352 0.950 . S
C360 C359 1.345 . S
C360 C361 1.424 . S
C361 H353 0.951 . S
C361 C360 1.424 . S
C361 C362 1.347 . S
C362 H354 0.951 . S
C362 C357 1.429 . S
C362 C361 1.347 . S
H363 C364 0.951 . S
C364 H363 0.951 . S
C364 C370 1.265 . S
H365 C370 0.950 . S
H366 C374 0.949 . S
H367 C375 0.950 . S
H368 C376 0.951 . S
H369 C377 0.951 . S
C370 C364 1.265 . S
C370 H365 0.950 . S
C370 C371 1.478 . S
C371 C358 1.394 . S
C371 C370 1.478 . S
C371 C372 1.397 . S
C372 C371 1.397 . S
C372 C373 1.438 . S
C372 C377 1.429 . S
C373 C356 1.394 . S
C373 C372 1.438 . S
C373 C374 1.428 . S
C374 H366 0.949 . S
C374 C373 1.428 . S
C374 C375 1.345 . S
C375 H367 0.950 . S
C375 C374 1.345 . S
C375 C376 1.424 . S
C376 H368 0.951 . S
C376 C375 1.424 . S
C376 C377 1.347 . S
C377 H369 0.951 . S
C377 C372 1.429 . S
C377 C376 1.347 . S
H378 C379 0.951 . S
C379 H378 0.951 . S
C379 C385 1.265 . S
H380 C385 0.950 . S
H381 C389 0.949 . S
H382 C390 0.950 . S
H383 C391 0.951 . S
H384 C392 0.951 . S
C385 C379 1.265 . S
C385 H380 0.950 . S
C385 C386 1.478 . S
C386 C385 1.478 . S
C386 C387 1.397 . S
C386 C403 1.394 . S
C387 C386 1.397 . S
C387 C388 1.438 . S
C387 C392 1.429 . S
C388 C387 1.438 . S
C388 C389 1.428 1_556 S
C388 C401 1.394 . S
C389 H381 0.949 . S
C389 C388 1.428 1_554 S
C389 C390 1.345 . S
C390 H382 0.950 . S
C390 C389 1.345 . S
C390 C391 1.424 . S
C391 H383 0.951 . S
C391 C390 1.424 . S
C391 C392 1.347 1_554 S
C392 H384 0.951 . S
C392 C387 1.429 . S
C392 C391 1.347 1_556 S
H393 C394 0.951 1_556 S
C394 H393 0.951 1_554 S
C394 C400 1.265 1_554 S
H395 C400 0.950 . S
H396 C404 0.949 . S
H397 C405 0.950 . S
H398 C406 0.951 . S
H399 C407 0.951 . S
C400 C394 1.265 1_556 S
C400 H395 0.950 . S
C400 C401 1.478 . S
C401 C388 1.394 . S
C401 C400 1.478 . S
C401 C402 1.397 . S
C402 C401 1.397 . S
C402 C403 1.438 . S
C402 C407 1.429 . S
C403 C386 1.394 . S
C403 C402 1.438 . S
C403 C404 1.428 . S
C404 H396 0.949 . S
C404 C403 1.428 . S
C404 C405 1.345 . S
C405 H397 0.950 . S
C405 C404 1.345 . S
C405 C406 1.424 . S
C406 H398 0.951 . S
C406 C405 1.424 . S
C406 C407 1.347 . S
C407 H399 0.951 . S
C407 C402 1.429 . S
C407 C406 1.347 . S
H408 C409 0.951 . S
C409 H408 0.951 . S
C409 C415 1.265 1_556 S
H410 C415 0.950 . S
H411 C419 0.949 . S
H412 C420 0.950 . S
H413 C421 0.951 . S
H414 C422 0.951 1_556 S
C415 C409 1.265 1_554 S
C415 H410 0.950 . S
C415 C416 1.478 . S
C416 C415 1.478 . S
C416 C417 1.397 . S
C416 C433 1.394 . S
C417 C416 1.397 . S
C417 C418 1.438 . S
C417 C422 1.429 . S
C418 C417 1.438 . S
C418 C419 1.428 . S
C418 C431 1.394 . S
C419 H411 0.949 . S
C419 C418 1.428 . S
C419 C420 1.345 . S
C420 H412 0.950 . S
C420 C419 1.345 . S
C420 C421 1.424 1_554 S
C421 H413 0.951 . S
C421 C420 1.424 1_556 S
C421 C422 1.347 1_556 S
C422 H414 0.951 1_554 S
C422 C417 1.429 . S
C422 C421 1.347 1_554 S
H423 C424 0.951 . S
C424 H423 0.951 . S
C424 C430 1.265 . S
H425 C430 0.950 . S
H426 C434 0.949 . S
H427 C435 0.950 . S
H428 C436 0.951 . S
H429 C437 0.951 . S
C430 C424 1.265 . S
C430 H425 0.950 . S
C430 C431 1.478 . S
C431 C418 1.394 . S
C431 C430 1.478 . S
C431 C432 1.397 . S
C432 C431 1.397 . S
C432 C433 1.438 . S
C432 C437 1.429 . S
C433 C416 1.394 . S
C433 C432 1.438 . S
C433 C434 1.428 . S
C434 H426 0.949 . S
C434 C433 1.428 . S
C434 C435 1.345 . S
C435 H427 0.950 . S
C435 C434 1.345 . S
C435 C436 1.424 . S
C436 H428 0.951 . S
C436 C435 1.424 . S
C436 C437 1.347 . S
C437 H429 0.951 . S
C437 C432 1.429 . S
C437 C436 1.347 . S
C79 C10 1.316 . S
C94 C49 1.336 . S
C109 C56 1.316 . S
C124 C23 1.335 . S
C139 C36 1.340 . S
C154 C69 1.316 . S
C169 C43 1.316 . S
C184 C4 1.334 . S
C199 C17 1.321 . S
C214 C62 1.345 . S
C229 C75 1.334 . S
C244 C30 1.344 . S
C259 C3 1.314 . S
C274 C31 1.309 . S
C289 C16 1.337 . S
C304 C42 1.303 . S
C319 C57 1.341 . S
C334 C29 1.307 . S
C349 C70 1.334 . S
C364 C44 1.334 . S
C379 C55 1.338 . S
C394 C5 1.304 . S
C409 C68 1.313 . S
C424 C18 1.343 . S
