# Generated by pormake.
# Topology afw, (4)-cn, num edge types: 1
# Building blocks:
#     Node 0, Type 0, BuildingBlock: QUQFOY_clean_sbu_3, # of connection points: 4
#     Node 1, Type 0, BuildingBlock: QUQFOY_clean_sbu_3, # of connection points: 4
#     Node 2, Type 0, BuildingBlock: QUQFOY_clean_sbu_3, # of connection points: 4
#     Node 3, Type 0, BuildingBlock: QUQFOY_clean_sbu_3, # of connection points: 4
#     Node 4, Type 0, BuildingBlock: QUQFOY_clean_sbu_3, # of connection points: 4
#     Node 5, Type 0, BuildingBlock: QUQFOY_clean_sbu_3, # of connection points: 4
#     Node 6, Type 0, BuildingBlock: QUQFOY_clean_sbu_3, # of connection points: 4
#     Node 7, Type 0, BuildingBlock: QUQFOY_clean_sbu_3, # of connection points: 4
#     Node 8, Type 0, BuildingBlock: QUQFOY_clean_sbu_3, # of connection points: 4
#     Edge 9, Type (0, 0), BuildingBlock: ZUJKAS_clean_linker_0, # of connection points: 2
#     Edge 10, Type (0, 0), BuildingBlock: ZUJKAS_clean_linker_0, # of connection points: 2
#     Edge 11, Type (0, 0), BuildingBlock: ZUJKAS_clean_linker_0, # of connection points: 2
#     Edge 12, Type (0, 0), BuildingBlock: ZUJKAS_clean_linker_0, # of connection points: 2
#     Edge 13, Type (0, 0), BuildingBlock: ZUJKAS_clean_linker_0, # of connection points: 2
#     Edge 14, Type (0, 0), BuildingBlock: ZUJKAS_clean_linker_0, # of connection points: 2
#     Edge 15, Type (0, 0), BuildingBlock: ZUJKAS_clean_linker_0, # of connection points: 2
#     Edge 16, Type (0, 0), BuildingBlock: ZUJKAS_clean_linker_0, # of connection points: 2
#     Edge 17, Type (0, 0), BuildingBlock: ZUJKAS_clean_linker_0, # of connection points: 2
#     Edge 18, Type (0, 0), BuildingBlock: ZUJKAS_clean_linker_0, # of connection points: 2
#     Edge 19, Type (0, 0), BuildingBlock: ZUJKAS_clean_linker_0, # of connection points: 2
#     Edge 20, Type (0, 0), BuildingBlock: ZUJKAS_clean_linker_0, # of connection points: 2
#     Edge 21, Type (0, 0), BuildingBlock: ZUJKAS_clean_linker_0, # of connection points: 2
#     Edge 22, Type (0, 0), BuildingBlock: ZUJKAS_clean_linker_0, # of connection points: 2
#     Edge 23, Type (0, 0), BuildingBlock: ZUJKAS_clean_linker_0, # of connection points: 2
#     Edge 24, Type (0, 0), BuildingBlock: ZUJKAS_clean_linker_0, # of connection points: 2
#     Edge 25, Type (0, 0), BuildingBlock: ZUJKAS_clean_linker_0, # of connection points: 2
#     Edge 26, Type (0, 0), BuildingBlock: ZUJKAS_clean_linker_0, # of connection points: 2
# Relax obj value: 0.197
# Max RMSD: 0.206
# Mean RMSD: 0.200
data_MOF--net-afw--node1-QUQFOY_clean_sbu_3--edge1-ZUJKAS_clean_linker_0
_symmetry_space_group_name_H-M    P1
_symmetry_Int_Tables_number       1
_symmetry_cell_setting            triclinic
loop_
_symmetry_equiv_pos_as_xyz
'x, y, z'
_cell_length_a     57.316735
_cell_length_b     57.99735
_cell_length_c     42.316017
_cell_angle_alpha  90.785642
_cell_angle_beta   91.059331
_cell_angle_gamma 119.9362
loop_
_atom_site_label
_atom_site_type_symbol
_atom_site_fract_x
_atom_site_fract_y
_atom_site_fract_z
_atom_type_partial_charge
C0 C 0.03401 0.17235 0.0511 0.0
O1 O 0.02347 0.17117 0.0776 0.0
Cd2 Cd -0.01202 0.18103 0.0845 0.0
O3 O 0.02671 0.18012 0.02677 0.0
Cd4 Cd -0.00404 0.19702 0.01259 0.0
C5 C 0.94266 0.1373 0.02812 0.0
O6 O 0.00313 0.22303 0.06083 0.0
O7 O 0.97009 0.21765 0.03037 0.0
O8 O 0.03326 0.22958 0.98314 0.0
C9 C -0.01492 0.22893 0.05461 0.0
O10 O 0.94892 0.14434 0.0571 0.0
C11 C 0.01937 0.22821 0.95875 0.0
O12 O 0.95722 0.15214 0.0063 0.0
O13 O -0.00559 0.21104 0.9586 0.0
C14 C 0.84579 0.80815 0.98124 0.0
O15 O 0.83604 0.80675 0.95363 0.0
Cd16 Cd 0.79326 0.80314 0.94415 0.0
O17 O 0.83244 0.80689 0.00559 0.0
Cd18 Cd 0.78743 0.79995 0.01899 0.0
C19 C 0.80186 0.85825 0.9864 0.0
O20 O 0.76452 0.76738 0.97707 0.0
O21 O 0.74045 0.78116 0.00018 0.0
O22 O 0.79024 0.77348 0.06092 0.0
C23 C 0.74165 0.76518 0.98045 0.0
O24 O 0.79929 0.84686 0.95957 0.0
C25 C 0.7793 0.78077 0.08155 0.0
O26 O 0.79969 0.84599 0.01186 0.0
O27 O 0.77297 0.79799 0.07344 0.0
C28 C 0.12276 0.92967 0.03671 0.0
O29 O 0.13045 0.93718 0.06524 0.0
Cd30 Cd 0.1731 0.97466 0.08093 0.0
O31 O 0.13793 0.94202 0.01394 0.0
Cd32 Cd 0.18305 0.97984 0.00381 0.0
C33 C 0.16763 0.02306 0.04037 0.0
O34 O 0.20327 0.96983 0.04726 0.0
O35 O 0.23029 0.00554 0.02344 0.0
O36 O 0.18459 0.95374 0.9597 0.0
C37 C 0.22674 -0.01046 0.04538 0.0
O38 O 0.16863 0.01314 0.06672 0.0
C39 C 0.19156 0.97198 0.93966 0.0
O40 O 0.17104 0.01382 0.01448 0.0
O41 O 0.19439 -0.00595 0.9495 0.0
C42 C 0.60098 0.46567 0.29232 0.0
O43 O 0.61071 0.47513 0.26576 0.0
Cd44 Cd 0.64893 0.51934 0.26244 0.0
O45 O 0.61004 0.48019 0.31733 0.0
Cd46 Cd 0.64283 0.52644 0.33344 0.0
C47 C 0.69267 0.51495 0.31566 0.0
O48 O 0.64115 0.5518 0.2885 0.0
O49 O 0.67562 0.57154 0.3208 0.0
O50 O 0.60666 0.52615 0.36171 0.0
C51 C 0.66223 0.57311 0.2976 0.0
O52 O 0.68664 0.51725 0.28719 0.0
C53 C 0.61976 0.5353 0.38767 0.0
O54 O 0.67876 0.51571 0.33835 0.0
O55 O 0.64372 0.53938 0.38902 0.0
C56 C 0.52925 0.14606 0.28642 0.0
O57 O 0.51711 0.14354 0.26008 0.0
Cd58 Cd 0.47188 0.13455 0.25476 0.0
O59 O 0.51707 0.14272 0.31234 0.0
Cd60 Cd 0.47125 0.12958 0.33068 0.0
C61 C 0.47706 0.18624 0.30202 0.0
O62 O 0.44794 0.09789 0.28804 0.0
O63 O 0.42277 0.10682 0.31678 0.0
O64 O 0.47913 0.10228 0.36712 0.0
C65 C 0.4245 0.09313 0.29432 0.0
O66 O 0.47372 0.17517 0.27481 0.0
C67 C 0.46812 0.10658 0.39045 0.0
O68 O 0.47825 0.17466 0.32688 0.0
O69 O 0.45989 0.12308 0.38663 0.0
C70 C 0.85125 0.39424 0.30714 0.0
O71 O 0.85355 0.38882 0.27855 0.0
Cd72 Cd 0.86426 0.35544 0.26191 0.0
O73 O 0.8552 0.38212 0.32965 0.0
Cd74 Cd 0.86779 0.34763 0.33735 0.0
C75 C 0.81194 0.30178 0.29641 0.0
O76 O 0.90056 0.36167 0.29611 0.0
O77 O 0.89143 0.32508 0.31829 0.0
O78 O 0.89291 0.37268 0.3842 0.0
C79 C 0.90478 0.34229 0.298 0.0
O80 O 0.82344 0.31306 0.27111 0.0
C81 C 0.88334 0.35281 0.40215 0.0
O82 O 0.82305 0.31134 0.32339 0.0
O83 O 0.86599 0.33044 0.38997 0.0
C84 C 0.36735 0.85724 0.7165 0.0
O85 O 0.35653 0.85736 0.74237 0.0
Cd86 Cd 0.31663 0.86142 0.74273 0.0
O87 O 0.35834 0.86102 0.69057 0.0
Cd88 Cd 0.32463 0.87139 0.66901 0.0
C89 C 0.27687 0.8101 0.68947 0.0
O90 O 0.32394 0.89894 0.71254 0.0
O91 O 0.29218 0.88593 0.67667 0.0
O92 O 0.36309 0.90498 0.6426 0.0
C93 C 0.30365 0.89982 0.70148 0.0
O94 O 0.28202 0.81992 0.71755 0.0
C95 C 0.35156 0.90132 0.61566 0.0
O96 O 0.29034 0.82396 0.66637 0.0
O97 O 0.32722 0.88257 0.61283 0.0
C98 C 0.17063 0.47945 0.64462 0.0
O99 O 0.15921 0.47687 0.61778 0.0
Cd100 Cd 0.11532 0.47243 0.61522 0.0
O101 O 0.15811 0.47762 0.66984 0.0
Cd102 Cd 0.11409 0.46771 0.68974 0.0
C103 C 0.12787 0.52712 0.66238 0.0
O104 O 0.08733 0.43599 0.64816 0.0
O105 O 0.0663 0.45008 0.67748 0.0
O106 O 0.12312 0.43931 0.7221 0.0
C107 C 0.06522 0.43409 0.656 0.0
O108 O 0.12347 0.51586 0.63513 0.0
C109 C 0.11334 0.44269 0.74719 0.0
O110 O 0.12669 0.51446 0.68723 0.0
O111 O 0.10458 0.45897 0.74626 0.0
C112 C 0.44977 0.61705 0.70714 0.0
O113 O 0.45667 0.6231 0.73609 0.0
Cd114 Cd 0.50057 0.65895 0.75128 0.0
O115 O 0.46645 0.62922 0.6856 0.0
Cd116 Cd 0.51357 0.66319 0.67736 0.0
C117 C 0.50103 0.70957 0.70803 0.0
O118 O 0.53161 0.65147 0.72236 0.0
O119 O 0.55911 0.68828 0.7003 0.0
O120 O 0.50882 0.62958 0.64008 0.0
C121 C 0.55523 0.67122 0.721 0.0
O122 O 0.50045 0.69907 0.73448 0.0
C123 C 0.52209 0.64519 0.61835 0.0
O124 O 0.50411 0.69972 0.6824 0.0
O125 O 0.53113 0.66992 0.62352 0.0
H126 H 0.15367 0.04408 0.0899 0.0
H127 H 0.13787 0.07612 0.08756 0.0
H128 H 0.15085 0.08316 0.98727 0.0
H129 H 0.16627 0.05076 0.98917 0.0
H130 H 0.16112 0.12901 0.06612 0.0
H131 H 0.07032 0.05802 -0.00587 0.0
H132 H 0.0918 0.04796 0.01398 0.0
H133 H 0.10214 0.06593 0.97791 0.0
C134 C 0.15341 0.05259 0.06736 0.0
C135 C 0.16086 0.04455 0.03963 0.0
C136 C 0.14444 0.07095 0.0661 0.0
C137 C 0.14278 0.08161 0.03716 0.0
C138 C 0.15152 0.07473 0.00972 0.0
H139 H 0.05823 0.1689 -0.00252 0.0
H140 H 0.08865 0.15099 -0.00775 0.0
C141 C 0.16038 0.05627 0.0109 0.0
C142 C 0.13035 0.09859 0.0356 0.0
H143 H 0.07451 0.09933 0.00769 0.0
C144 C 0.1423 0.12268 0.05315 0.0
C145 C 0.10582 0.09021 0.01861 0.0
C146 C 0.09157 0.06404 0.00027 0.0
C147 C 0.1301 0.13846 0.05454 0.0
C148 C 0.10517 0.12964 0.03836 0.0
C149 C 0.09369 0.10602 0.01998 0.0
C150 C 0.08946 0.14335 0.04204 0.0
C151 C 0.14388 0.16431 0.07346 0.0
C152 C 0.07994 0.14503 0.07179 0.0
C153 C 0.06251 0.15514 0.07488 0.0
C154 C 0.05414 0.16362 0.04819 0.0
C155 C 0.06427 0.16253 0.01851 0.0
C156 C 0.08167 0.15235 0.01546 0.0
H157 H 0.16589 0.17204 0.07621 0.0
H158 H 0.14061 0.17968 0.06217 0.0
H159 H 0.13542 0.16093 0.09744 0.0
H160 H 0.08523 0.13763 0.09248 0.0
H161 H 0.05508 0.15567 0.09807 0.0
H162 H 0.81919 0.89415 0.9388 0.0
H163 H 0.83624 0.94208 0.94366 0.0
H164 H 0.81707 0.93408 0.0424 0.0
H165 H 0.80056 0.88632 0.03801 0.0
H166 H 0.81496 0.9745 0.96468 0.0
H167 H 0.89866 -0.01538 0.04288 0.0
H168 H 0.87698 0.95457 0.02018 0.0
H169 H 0.86576 0.96165 0.05657 0.0
C170 C 0.81831 0.90253 0.96147 0.0
C171 C 0.80898 0.88651 0.98817 0.0
C172 C 0.82798 0.9299 0.96416 0.0
C173 C 0.82836 0.94162 -0.00649 0.0
C174 C 0.81744 0.92544 0.01969 0.0
H175 H 0.90551 0.1023 0.0682 0.0
H176 H 0.87359 0.05524 0.05773 0.0
C177 C 0.80801 0.89816 0.01711 0.0
C178 C 0.84213 0.97092 -0.00256 0.0
H179 H 0.89515 0.02314 0.03646 0.0
C180 C 0.8325 -0.01479 0.98035 0.0
C181 C 0.86518 -0.01523 0.01764 0.0
C182 C 0.87746 0.97069 0.03515 0.0
C183 C 0.84506 0.01307 0.98352 0.0
C184 C 0.86782 0.02677 0.0041 0.0
C185 C 0.87747 0.01246 0.02098 0.0
C186 C 0.88269 0.05606 0.00826 0.0
C187 C 0.8338 0.02765 0.96527 0.0
C188 C 0.89781 0.07224 0.98362 0.0
C189 C 0.91621 0.09924 0.98951 0.0
C190 C 0.9199 0.11034 0.02024 0.0
C191 C 0.90339 0.09437 0.04433 0.0
C192 C 0.88504 0.06747 0.0384 0.0
H193 H 0.8131 0.01395 0.95574 0.0
H194 H 0.83345 0.04324 0.98046 0.0
H195 H 0.84692 0.03764 0.9451 0.0
H196 H 0.89658 0.06369 0.9603 0.0
H197 H 0.92859 0.11098 0.97044 0.0
H198 H 0.87618 0.81951 0.03585 0.0
H199 H 0.92311 0.8303 0.04117 0.0
H200 H 0.92405 0.81561 0.94115 0.0
H201 H 0.87729 0.80529 0.93539 0.0
H202 H 0.95154 0.80298 0.02486 0.0
H203 H -0.01783 0.89412 0.95533 0.0
H204 H 0.94884 0.87482 0.9706 0.0
H205 H 0.95815 0.86321 0.93612 0.0
C206 C 0.88626 0.81832 0.01501 0.0
C207 C 0.87318 0.81203 0.9851 0.0
C208 C 0.91301 0.82435 0.01814 0.0
C209 C 0.92703 0.82409 -0.00853 0.0
C210 C 0.91361 0.81631 0.9619 0.0
H211 H 0.10126 0.90502 0.97947 0.0
H212 H 0.05406 0.87316 0.96654 0.0
C213 C 0.88693 0.81047 0.95868 0.0
C214 C 0.95628 0.83434 -0.00571 0.0
H215 H 0.01653 0.88732 0.9752 0.0
C216 C 0.96583 0.82126 0.01376 0.0
C217 C -0.02525 0.85817 0.97971 0.0
C218 C 0.96559 0.87358 0.95945 0.0
C219 C -0.00646 0.83174 0.01955 0.0
C220 C 0.01193 0.85608 0.00588 0.0
C221 C 0.00235 0.86857 0.98548 0.0
C222 C 0.04093 0.87061 0.01463 0.0
C223 C 0.00282 0.81685 0.04046 0.0
C224 C 0.04925 0.87922 0.04607 0.0
C225 C 0.07621 0.89739 0.05357 0.0
C226 C 0.09521 0.90753 0.02964 0.0
C227 C 0.08707 0.89778 -0.00159 0.0
C228 C 0.06014 0.87948 -0.00902 0.0
H229 H -0.01206 0.7952 0.03996 0.0
H230 H 0.02261 0.81974 0.0332 0.0
H231 H 0.00494 0.82434 0.06522 0.0
H232 H 0.03467 0.87314 0.06457 0.0
H233 H 0.08183 0.90451 0.07785 0.0
H234 H 0.84342 0.41014 0.36531 0.0
H235 H 0.82389 0.43835 0.37662 0.0
H236 H 0.81881 0.44992 0.27684 0.0
H237 H 0.83856 0.42205 0.26521 0.0
H238 H 0.83646 0.49702 0.31688 0.0
H239 H 0.74262 0.40874 0.35682 0.0
H240 H 0.77375 0.41559 0.37603 0.0
H241 H 0.76765 0.40552 0.33502 0.0
C242 C 0.83845 0.41893 0.34576 0.0
C243 C 0.84223 0.41356 0.3143 0.0
C244 C 0.82726 0.43499 0.3523 0.0
C245 C 0.8196 0.44583 0.32753 0.0
C246 C 0.82457 0.44163 0.29626 0.0
H247 H 0.72746 0.51434 0.27303 0.0
H248 H 0.76179 0.50199 0.28185 0.0
C249 C 0.83577 0.42562 0.28967 0.0
C250 C 0.80458 0.45993 0.33366 0.0
H251 H 0.74247 0.44888 0.35339 0.0
C252 C 0.81604 0.48666 0.3253 0.0
C253 C 0.77804 0.44635 0.34486 0.0
C254 C 0.7646 0.41742 0.35356 0.0
C255 C 0.80124 0.49993 0.32674 0.0
C256 C 0.77417 0.48587 0.33617 0.0
C257 C 0.76325 0.4596 0.34619 0.0
C258 C 0.75577 0.49667 0.33217 0.0
C259 C 0.81456 0.52869 0.31756 0.0
C260 C 0.74072 0.49751 0.35749 0.0
C261 C 0.72075 0.50433 0.35246 0.0
C262 C 0.71535 0.51014 0.32193 0.0
C263 C 0.73104 0.50998 0.29684 0.0
C264 C 0.75093 0.5032 0.3019 0.0
H265 H 0.83669 0.53889 0.32207 0.0
H266 H 0.81099 0.52969 0.29188 0.0
H267 H 0.8063 0.53962 0.33069 0.0
H268 H 0.74398 0.49225 0.38098 0.0
H269 H 0.70903 0.50427 0.37229 0.0
H270 H 0.4851 0.21701 0.35548 0.0
H271 H 0.49722 0.2639 0.35816 0.0
H272 H 0.4922 0.26457 0.25638 0.0
H273 H 0.4795 0.21782 0.25346 0.0
H274 H 0.54212 0.30323 0.33431 0.0
H275 H 0.45491 0.30525 0.27956 0.0
H276 H 0.45297 0.27486 0.2927 0.0
H277 H 0.4664 0.28787 0.25471 0.0
C278 C 0.48604 0.227 0.3337 0.0
C279 C 0.48145 0.21366 0.30425 0.0
C280 C 0.49293 0.25378 0.33528 0.0
C281 C 0.49524 0.26766 0.30749 0.0
C282 C 0.48984 0.25414 0.27817 0.0
H283 H 0.58011 0.42725 0.24508 0.0
H284 H 0.55108 0.37925 0.25103 0.0
C285 C 0.48283 0.2274 0.27656 0.0
C286 C 0.50648 0.29689 0.30872 0.0
H287 H 0.49735 0.3467 0.28001 0.0
C288 C 0.53209 0.31272 0.323 0.0
C289 C 0.49342 0.30926 0.2938 0.0
C290 C 0.46528 0.29339 0.27962 0.0
C291 C 0.54554 0.34053 0.32149 0.0
C292 C 0.5329 0.35283 0.30556 0.0
C293 C 0.50697 0.33713 0.29208 0.0
C294 C 0.54709 0.38193 0.30147 0.0
C295 C 0.57366 0.35652 0.33576 0.0
C296 C 0.55365 0.39925 0.32773 0.0
C297 C 0.57025 0.42664 0.32447 0.0
C298 C 0.58055 0.43716 0.29483 0.0
C299 C 0.57265 0.41981 0.26825 0.0
C300 C 0.55602 0.39239 0.27157 0.0
H301 H 0.58228 0.34376 0.34231 0.0
H302 H 0.58727 0.37161 0.319 0.0
H303 H 0.57316 0.36722 0.35745 0.0
H304 H 0.54667 0.3915 0.35093 0.0
H305 H 0.57572 0.43943 0.3454 0.0
H306 H 0.56026 0.15106 0.23593 0.0
H307 H 0.60888 0.16899 0.23614 0.0
H308 H 0.61239 0.17786 0.33776 0.0
H309 H 0.56365 0.15957 0.33791 0.0
H310 H 0.64364 0.21994 0.2584 0.0
H311 H 0.66243 0.14761 0.32223 0.0
H312 H 0.62972 0.13907 0.30565 0.0
H313 H 0.64133 0.15722 0.34275 0.0
C314 C 0.57126 0.15638 0.25841 0.0
C315 C 0.55812 0.15411 0.2869 0.0
C316 C 0.59903 0.16652 0.25846 0.0
C317 C 0.61414 0.17447 0.28696 0.0
C318 C 0.60099 0.17129 0.31556 0.0
H319 H 0.77787 0.27795 0.34493 0.0
H320 H 0.73038 0.24369 0.34078 0.0
C321 C 0.57316 0.16105 0.31556 0.0
C322 C 0.64385 0.18931 0.28636 0.0
H323 H 0.70062 0.19093 0.31538 0.0
C324 C 0.65613 0.21342 0.27044 0.0
C325 C 0.65996 0.1808 0.30237 0.0
C326 C 0.64772 0.15464 0.319 0.0
C327 C 0.68414 0.22977 0.27093 0.0
C328 C 0.70032 0.22145 0.28722 0.0
C329 C 0.6881 0.19711 0.30276 0.0
C330 C 0.72985 0.23877 0.28996 0.0
C331 C 0.69608 0.25635 0.25515 0.0
C332 C 0.74543 0.24654 0.26286 0.0
C333 C 0.7725 0.26634 0.26506 0.0
C334 C 0.78446 0.27844 0.29449 0.0
C335 C 0.76923 0.26919 0.32187 0.0
C336 C 0.74211 0.24955 0.31959 0.0
H337 H 0.6807 0.26221 0.24996 0.0
H338 H 0.71241 0.27223 0.27023 0.0
H339 H 0.70482 0.25514 0.23243 0.0
H340 H 0.73637 0.23804 0.23985 0.0
H341 H 0.78379 0.27273 0.24359 0.0
H342 H 0.39761 0.85978 0.6662 0.0
H343 H 0.42894 0.84294 0.66266 0.0
H344 H 0.41779 0.82265 0.76097 0.0
H345 H 0.38646 0.83966 0.76494 0.0
H346 H 0.47362 0.84551 0.7378 0.0
H347 H 0.39541 0.76033 0.66474 0.0
H348 H 0.40466 0.79305 0.6515 0.0
H349 H 0.38778 0.78183 0.68819 0.0
C350 C 0.40207 0.8521 0.68725 0.0
C351 C 0.3892 0.85068 0.71576 0.0
C352 C 0.42 0.84251 0.68514 0.0
C353 C 0.42529 0.83123 0.71142 0.0
C354 C 0.41385 0.83126 0.74042 0.0
H355 H 0.49326 0.73486 0.75816 0.0
H356 H 0.47961 0.7684 0.75675 0.0
C357 C 0.39592 0.84093 0.74261 0.0
C358 C 0.44063 0.81714 0.70789 0.0
H359 H 0.43603 0.76094 0.67509 0.0
C360 C 0.46557 0.82712 0.72394 0.0
C361 C 0.43003 0.79323 0.68967 0.0
C362 C 0.40292 0.78127 0.67268 0.0
C363 C 0.48013 0.81357 0.72245 0.0
C364 C 0.46911 0.78921 0.705 0.0
C365 C 0.44451 0.77969 0.68829 0.0
C366 C 0.48127 0.7719 0.70588 0.0
C367 C 0.50713 0.82545 0.73956 0.0
C368 C 0.48665 0.76257 0.6777 0.0
C369 C 0.49415 0.74304 0.67835 0.0
C370 C 0.49622 0.73239 0.70724 0.0
C371 C 0.49185 0.74258 0.73548 0.0
C372 C 0.48431 0.76202 0.73478 0.0
H373 H 0.51665 0.84743 0.74224 0.0
H374 H 0.5043 0.81723 0.76361 0.0
H375 H 0.52107 0.82067 0.72695 0.0
H376 H 0.4842 0.76981 0.65511 0.0
H377 H 0.49742 0.73568 0.65618 0.0
H378 H 0.24338 0.77615 0.73319 0.0
H379 H 0.21303 0.72829 0.72707 0.0
H380 H 0.23287 0.73135 0.6289 0.0
H381 H 0.26352 0.77955 0.63468 0.0
H382 H 0.17335 0.69688 0.64741 0.0
H383 H 0.24769 0.67897 0.71298 0.0
H384 H 0.23965 0.70238 0.73083 0.0
H385 H 0.25704 0.71009 0.69425 0.0
C386 C 0.24116 0.76681 0.71014 0.0
C387 C 0.25617 0.78169 0.68449 0.0
C388 C 0.22376 0.73944 0.70674 0.0
C389 C 0.221 0.72638 0.67767 0.0
C390 C 0.23484 0.7412 0.65155 0.0
H391 H 0.13889 0.5616 0.61407 0.0
H392 H 0.15866 0.60977 0.61802 0.0
C393 C 0.25235 0.76869 0.65492 0.0
C394 C 0.20515 0.69702 0.67538 0.0
H395 H 0.20575 0.64145 0.69941 0.0
C396 C 0.18036 0.68467 0.65867 0.0
C397 C 0.21441 0.68131 0.69029 0.0
C398 C 0.24123 0.69374 0.70795 0.0
C399 C 0.1643 0.65678 0.65685 0.0
C400 C 0.17367 0.64103 0.67159 0.0
C401 C 0.1985 0.65353 0.6883 0.0
C402 C 0.15875 0.61155 0.66915 0.0
C403 C 0.13727 0.64451 0.63972 0.0
C404 C 0.15235 0.59646 0.6966 0.0
C405 C 0.14135 0.56886 0.69446 0.0
C406 C 0.1366 0.55584 0.66479 0.0
C407 C 0.14216 0.57093 0.63732 0.0
C408 C 0.1533 0.59851 0.6395 0.0
H409 H 0.12956 0.65867 0.63856 0.0
H410 H 0.13939 0.6391 0.61511 0.0
H411 H 0.12217 0.6262 0.65137 0.0
H412 H 0.15652 0.60615 0.71974 0.0
H413 H 0.13728 0.55787 0.71608 0.0
H414 H 0.20115 0.48827 0.69839 0.0
H415 H 0.24923 0.50404 0.70267 0.0
H416 H 0.2527 0.50061 0.60109 0.0
H417 H 0.20444 0.48531 0.59642 0.0
H418 H 0.28237 0.48451 0.68189 0.0
H419 H 0.30492 0.57892 0.62412 0.0
H420 H 0.27174 0.55551 0.63726 0.0
H421 H 0.28396 0.54882 0.60149 0.0
C422 C 0.212 0.49062 0.67689 0.0
C423 C 0.19904 0.48597 0.64701 0.0
C424 C 0.23948 0.49952 0.67942 0.0
C425 C 0.25453 0.50388 0.65219 0.0
C426 C 0.24145 0.4978 0.62236 0.0
H427 H 0.42963 0.59732 0.64778 0.0
H428 H 0.38303 0.56565 0.63208 0.0
C429 C 0.2139 0.48902 0.61976 0.0
C430 C 0.28414 0.51678 0.6554 0.0
H431 H 0.34161 0.57544 0.64308 0.0
C432 C 0.29542 0.50426 0.67309 0.0
C433 C 0.30101 0.54257 0.64394 0.0
C434 C 0.28989 0.55742 0.62585 0.0
C435 C 0.32315 0.51716 0.68027 0.0
C436 C 0.33981 0.54329 0.66977 0.0
C437 C 0.3287 0.55535 0.65102 0.0
C438 C 0.36845 0.55943 0.67974 0.0
C439 C 0.33432 0.50287 0.6993 0.0
C440 C 0.37565 0.56625 0.7118 0.0
C441 C 0.40228 0.5844 0.72091 0.0
C442 C 0.42205 0.59622 0.69803 0.0
C443 C 0.41486 0.58871 0.66601 0.0
C444 C 0.38828 0.57054 0.65695 0.0
H445 H 0.32103 0.48092 0.69721 0.0
H446 H 0.35478 0.5081 0.69163 0.0
H447 H 0.33577 0.50881 0.72461 0.0
H448 H 0.36049 0.55834 0.72967 0.0
H449 H 0.40715 0.58979 0.74575 0.0
H450 H -0.00665 0.23612 0.90889 0.0
H451 H 0.01235 0.27353 0.87301 0.0
H452 H 0.09104 0.30235 0.91649 0.0
H453 H 0.07223 0.26527 0.95263 0.0
H454 H 0.07477 0.34051 0.91421 0.0
H455 H 0.06154 0.29018 0.79723 0.0
H456 H 0.0316 0.27682 0.81998 0.0
H457 H 0.05989 0.27411 0.83404 0.0
C458 C 0.0148 0.25009 0.91033 0.0
C459 C 0.03129 0.24782 0.93362 0.0
C460 C 0.02561 0.27143 0.88981 0.0
C461 C 0.05308 0.29061 0.89212 0.0
C462 C 0.06977 0.28774 0.91443 0.0
H463 H 0.13827 0.41424 0.75899 0.0
H464 H 0.12576 0.37942 0.79761 0.0
C465 C 0.05899 0.26649 0.93495 0.0
C466 C 0.06412 0.3147 0.87291 0.0
H467 H 0.07422 0.33589 0.79708 0.0
C468 C 0.0748 0.33957 0.88859 0.0
C469 C 0.06421 0.31332 0.83958 0.0
C470 C 0.05392 0.28721 0.82164 0.0
C471 C 0.08539 0.36319 0.87172 0.0
C472 C 0.08493 0.36174 0.83836 0.0
C473 C 0.07445 0.33688 0.82272 0.0
C474 C 0.09528 0.38567 0.81892 0.0
C475 C 0.09728 0.38945 0.88969 0.0
C476 C 0.08288 0.40132 0.81891 0.0
C477 C 0.09016 0.42146 0.79698 0.0
C478 C 0.10966 0.42588 0.77456 0.0
C479 C 0.12307 0.41118 0.77589 0.0
C480 C 0.11592 0.39125 0.79787 0.0
H481 H 0.10219 0.38765 0.91473 0.0
H482 H 0.11585 0.40477 0.87848 0.0
H483 H 0.08247 0.39647 0.88948 0.0
H484 H 0.06663 0.39706 0.83469 0.0
H485 H 0.07937 0.43236 0.79631 0.0
H486 H 0.73548 0.72362 0.94377 0.0
H487 H 0.702 0.70051 0.90108 0.0
H488 H 0.66504 0.74775 0.9226 0.0
H489 H 0.69783 0.77022 0.96611 0.0
H490 H 0.628 0.69685 0.90696 0.0
H491 H 0.70878 0.73755 0.81884 0.0
H492 H 0.71261 0.71734 0.84789 0.0
H493 H 0.71488 0.7483 0.85982 0.0
C494 C 0.71996 0.72878 0.93964 0.0
C495 C 0.7194 0.74893 0.95787 0.0
C496 C 0.70099 0.7157 0.91518 0.0
C497 C 0.68159 0.723 0.90819 0.0
C498 C 0.68003 0.74201 0.92753 0.0
H499 H 0.60115 0.71797 0.73525 0.0
H500 H 0.63198 0.72772 0.78048 0.0
C501 C 0.69874 0.75481 0.95233 0.0
C502 C 0.66384 0.71203 0.87974 0.0
H503 H 0.66451 0.70928 0.79921 0.0
C504 C 0.63591 0.69939 0.88337 0.0
C505 C 0.67438 0.71579 0.84905 0.0
C506 C 0.70429 0.7307 0.84353 0.0
C507 C 0.61814 0.69085 0.85706 0.0
C508 C 0.62867 0.69431 0.8264 0.0
C509 C 0.65657 0.70644 0.8228 0.0
C510 C 0.61126 0.68752 0.7977 0.0
C511 C 0.58843 0.67934 0.86237 0.0
C512 C 0.58995 0.66153 0.7919 0.0
C513 C 0.57208 0.65603 0.76633 0.0
C514 C 0.57562 0.67634 0.74587 0.0
C515 C 0.59791 0.70199 0.75065 0.0
C516 C 0.61552 0.70755 0.77648 0.0
H517 H 0.58457 0.68416 0.88653 0.0
H518 H 0.5793 0.6869 0.84494 0.0
H519 H 0.5781 0.65735 0.85954 0.0
H520 H 0.58681 0.64566 0.80752 0.0
H521 H 0.55522 0.63597 0.76289 0.0
H522 H 0.26505 0.91043 0.67943 0.0
H523 H 0.24419 0.93195 0.70832 0.0
H524 H 0.2955 0.94296 0.78978 0.0
H525 H 0.31696 0.92232 0.76076 0.0
H526 H 0.21536 0.91401 0.75839 0.0
H527 H 0.29977 0.01377 0.78961 0.0
H528 H 0.30242 -0.0073 0.75976 0.0
H529 H 0.30864 -0.01056 0.80097 0.0
C530 C 0.27219 0.91788 0.70333 0.0
C531 C 0.29258 0.91465 0.71792 0.0
C532 C 0.26031 0.93023 0.71974 0.0
C533 C 0.26859 0.93951 0.75101 0.0
C534 C 0.28935 0.93676 0.76535 0.0
H535 H 0.18928 0.9277 0.91391 0.0
H536 H 0.20383 0.92259 0.86198 0.0
C537 C 0.30142 0.92468 0.74886 0.0
C538 C 0.25356 0.94903 0.77012 0.0
H539 H 0.26317 -0.005 0.82745 0.0
C540 C 0.22571 0.93211 0.77288 0.0
C541 C 0.26676 0.973 0.78836 0.0
C542 C 0.29599 -0.00663 0.78419 0.0
C543 C 0.2113 0.9372 0.79565 0.0
C544 C 0.22531 0.95932 0.81669 0.0
C545 C 0.25253 0.97767 0.81177 0.0
C546 C 0.21337 0.96169 0.84638 0.0
C547 C 0.18145 0.91822 0.7977 0.0
C548 C 0.21425 -0.01445 0.85514 0.0
C549 C 0.20628 -0.01132 0.88517 0.0
C550 C 0.19748 0.96804 0.90691 0.0
C551 C 0.19587 0.94393 0.89768 0.0
C552 C 0.20391 0.94087 0.86782 0.0
H553 H 0.17232 0.90981 0.77395 0.0
H554 H 0.17808 0.90136 0.81273 0.0
H555 H 0.17092 0.92812 0.80804 0.0
H556 H 0.22175 0.00195 0.83904 0.0
H557 H 0.20772 0.00749 0.89166 0.0
H558 H 0.37209 0.08054 0.30039 0.0
H559 H 0.33501 0.05655 0.26165 0.0
H560 H 0.38812 0.04491 0.20092 0.0
H561 H 0.42494 0.06817 0.23966 0.0
H562 H 0.33495 0.07334 0.20275 0.0
H563 H 0.3216 0.97211 0.19617 0.0
H564 H 0.34019 -0.00455 0.2282 0.0
H565 H 0.35601 -0.00268 0.19121 0.0
C566 C 0.37568 0.0724 0.27904 0.0
C567 C 0.4014 0.07632 0.27293 0.0
C568 C 0.35452 0.05871 0.257 0.0
C569 C 0.35878 0.0487 0.22864 0.0
C570 C 0.38423 0.05189 0.22299 0.0
H571 H 0.27852 0.031 0.04869 0.0
H572 H 0.31042 0.0441 0.0937 0.0
C573 C 0.40532 0.06541 0.24505 0.0
C574 C 0.33764 0.03759 0.20342 0.0
H575 H 0.30387 -0.01522 0.15186 0.0
C576 C 0.32787 0.05383 0.19189 0.0
C577 C 0.32833 0.01207 0.1895 0.0
C578 C 0.33687 -0.00687 0.20214 0.0
C579 C 0.30966 0.04559 0.16608 0.0
C580 C 0.30158 0.02074 0.15098 0.0
C581 C 0.31057 0.00406 0.16318 0.0
C582 C 0.28342 0.01159 0.12279 0.0
C583 C 0.29914 0.06352 0.15535 0.0
C584 C 0.2583 -0.01168 0.12384 0.0
C585 C 0.24022 0.98063 0.09811 0.0
C586 C 0.24702 -0.00384 0.07096 0.0
C587 C 0.27267 0.01883 0.06944 0.0
C588 C 0.29082 0.0264 0.09514 0.0
H589 H 0.30135 0.07795 0.17434 0.0
H590 H 0.3108 0.07504 0.13492 0.0
H591 H 0.27758 0.05178 0.14779 0.0
H592 H 0.25236 0.97655 0.14493 0.0
H593 H 0.22062 0.96298 0.09991 0.0
H594 H 0.94818 0.24532 0.04723 0.0
H595 H 0.9387 0.27189 0.08474 0.0
H596 H 0.00121 0.27752 0.14824 0.0
H597 H 0.01114 0.25148 0.11074 0.0
H598 H 0.92128 0.25682 0.14385 0.0
H599 H 0.01619 0.3537 0.14983 0.0
H600 H 0.00836 0.32932 0.1184 0.0
H601 H 0.02172 0.32621 0.15592 0.0
C602 C 0.96014 0.25254 0.069 0.0
C603 C -0.01968 0.24625 0.07614 0.0
C604 C 0.95476 0.26776 0.09032 0.0
C605 C 0.96954 0.277 0.11901 0.0
C606 C -0.00996 0.27117 0.12588 0.0
H607 H 0.91659 0.30229 0.29634 0.0
H608 H 0.93428 0.28895 0.25193 0.0
C609 C -0.0045 0.25605 0.10456 0.0
C610 C 0.96169 0.29021 0.14324 0.0
H611 H -0.01363 0.34451 0.19324 0.0
C612 C 0.93541 0.27616 0.15434 0.0
C613 C -0.0199 0.31554 0.15665 0.0
C614 C 0.00808 0.33219 0.14436 0.0
C615 C 0.92732 0.28626 0.17941 0.0
C616 C 0.94622 0.31079 0.19412 0.0
C617 C 0.97215 0.32546 0.18219 0.0
C618 C 0.93924 0.3211 0.22227 0.0
C619 C 0.89865 0.27049 0.19009 0.0
C620 C 0.93755 0.34434 0.22071 0.0
C621 C 0.92761 0.35213 0.24613 0.0
C622 C 0.91925 0.33671 0.27336 0.0
C623 C 0.92259 0.31438 0.27552 0.0
C624 C 0.9326 0.30669 0.25019 0.0
H625 H 0.88514 0.25604 0.17148 0.0
H626 H 0.89805 0.25913 0.21125 0.0
H627 H 0.89071 0.28385 0.19659 0.0
H628 H 0.94278 0.35576 0.19935 0.0
H629 H 0.92536 0.3695 0.24386 0.0
H630 H 0.71069 0.61852 0.30587 0.0
H631 H 0.72858 0.65869 0.27495 0.0
H632 H 0.65391 0.62492 0.22043 0.0
H633 H 0.63612 0.58417 0.25072 0.0
H634 H 0.69552 0.64225 0.18353 0.0
H635 H 0.71708 0.72149 0.27266 0.0
H636 H 0.73238 0.70225 0.28381 0.0
H637 H 0.69622 0.68659 0.28069 0.0
C638 C 0.69792 0.61976 0.28757 0.0
C639 C 0.67206 0.59814 0.28053 0.0
C640 C 0.70808 0.64289 0.27016 0.0
C641 C 0.69241 0.64502 0.24578 0.0
C642 C 0.66626 0.62374 0.23933 0.0
H643 H 0.74284 0.78039 0.12259 0.0
H644 H 0.72224 0.74961 0.16591 0.0
C645 C 0.65616 0.60047 0.25654 0.0
C646 C 0.70451 0.66798 0.22463 0.0
H647 H 0.74058 0.73591 0.22359 0.0
C648 C 0.70502 0.66271 0.19229 0.0
C649 C 0.71672 0.69468 0.23601 0.0
C650 C 0.71533 0.70159 0.27016 0.0
C651 C 0.71822 0.68335 0.17117 0.0
C652 C 0.7319 0.70997 0.18285 0.0
C653 C 0.73052 0.71541 0.21493 0.0
C654 C 0.74772 0.73212 0.16166 0.0
C655 C 0.71748 0.67643 0.13649 0.0
C656 C 0.76974 0.73333 0.14625 0.0
C657 C 0.78134 0.75063 0.12142 0.0
C658 C 0.77129 0.76721 0.11192 0.0
C659 C 0.75092 0.76775 0.12937 0.0
C660 C 0.73913 0.75021 0.15408 0.0
H661 H 0.70058 0.65613 0.13039 0.0
H662 H 0.71543 0.69092 0.12149 0.0
H663 H 0.73655 0.677 0.13065 0.0
H664 H 0.77692 0.7198 0.15224 0.0
H665 H 0.79724 0.75003 0.10864 0.0
H666 H 0.01934 0.43724 0.65289 0.0
H667 H -0.01941 0.41218 0.61693 0.0
H668 H 0.01513 0.36532 0.58385 0.0
H669 H 0.0545 0.39113 0.61884 0.0
H670 H 0.00533 0.38773 0.53711 0.0
H671 H 0.91398 0.34085 0.60812 0.0
H672 H 0.93406 0.37553 0.61854 0.0
H673 H 0.94732 0.35359 0.62553 0.0
C674 C 0.01837 0.4212 0.63844 0.0
C675 C 0.04004 0.41635 0.63822 0.0
C676 C -0.00396 0.40665 0.61817 0.0
C677 C -0.00521 0.38664 0.59794 0.0
C678 C 0.01566 0.38062 0.59933 0.0
H679 H 0.87457 0.31282 0.44224 0.0
H680 H 0.89844 0.31741 0.49271 0.0
C681 C 0.03818 0.39546 0.61917 0.0
C682 C -0.02556 0.37555 0.57174 0.0
H683 H 0.90765 0.35057 0.5536 0.0
C684 C -0.01608 0.37902 0.54084 0.0
C685 C 0.94647 0.36404 0.57649 0.0
C686 C 0.93488 0.35803 0.60902 0.0
C687 C 0.96644 0.37277 0.51465 0.0
C688 C 0.93887 0.36337 0.51949 0.0
C689 C 0.92896 0.3583 0.55016 0.0
C690 C 0.92076 0.36041 0.49271 0.0
C691 C -0.02223 0.37707 0.48194 0.0
C692 C 0.9248 0.38315 0.47692 0.0
C693 C 0.91147 0.38064 0.44814 0.0
C694 C 0.89375 0.35533 0.43485 0.0
C695 C 0.88822 0.33257 0.4519 0.0
C696 C 0.90174 0.33512 0.48071 0.0
H697 H -0.00245 0.37786 0.48195 0.0
H698 H 0.96369 0.36099 0.46518 0.0
H699 H -0.01925 0.39628 0.47317 0.0
H700 H 0.93932 0.40283 0.48611 0.0
H701 H 0.91591 0.39852 0.4357 0.0
H702 H 0.64567 0.56429 0.44141 0.0
H703 H 0.62781 0.58256 0.48046 0.0
H704 H 0.55036 0.54263 0.43163 0.0
H705 H 0.56808 0.52465 0.39234 0.0
H706 H 0.57004 0.59676 0.44289 0.0
H707 H 0.57505 0.54667 0.55172 0.0
H708 H 0.60602 0.56344 0.53095 0.0
H709 H 0.57724 0.53517 0.51262 0.0
C710 C 0.62471 0.559 0.43937 0.0
C711 C 0.60828 0.5431 0.41381 0.0
C712 C 0.61454 0.56943 0.46168 0.0
C713 C 0.58777 0.56384 0.45891 0.0
C714 C 0.5711 0.54719 0.43408 0.0
H715 H 0.49811 0.59375 0.59763 0.0
H716 H 0.51321 0.5751 0.55612 0.0
C717 C 0.58124 0.53688 0.41174 0.0
C718 C 0.57745 0.57652 0.48072 0.0
H719 H 0.5644 0.58101 0.55809 0.0
C720 C 0.56873 0.5933 0.46809 0.0
C721 C 0.57567 0.57179 0.51347 0.0
C722 C 0.58376 0.55311 0.52805 0.0
C723 C 0.55827 0.60558 0.48746 0.0
C724 C 0.5569 0.60118 0.52027 0.0
C725 C 0.56561 0.58439 0.53287 0.0
C726 C 0.54586 0.61315 0.54211 0.0
C727 C 0.54828 0.62268 0.47262 0.0
C728 C 0.55879 0.64083 0.5473 0.0
C729 C 0.55006 0.65163 0.57094 0.0
C730 C 0.52852 0.63479 0.58987 0.0
C731 C 0.51488 0.60721 0.58353 0.0
C732 C 0.52349 0.5965 0.55988 0.0
H733 H 0.54498 0.61907 0.44664 0.0
H734 H 0.52914 0.61893 0.4832 0.0
H735 H 0.56347 0.64396 0.47702 0.0
H736 H 0.57634 0.65397 0.53407 0.0
H737 H 0.56103 0.67294 0.57547 0.0
H738 H 0.40504 0.93702 0.61255 0.0
H739 H 0.42701 0.97253 0.57477 0.0
H740 H 0.35127 0.94415 0.52396 0.0
H741 H 0.32915 0.90809 0.56141 0.0
H742 H 0.39414 0.95962 0.48458 0.0
H743 H 0.41715 0.03745 0.57691 0.0
H744 H 0.43028 0.01595 0.58641 0.0
H745 H 0.39444 0.00255 0.58305 0.0
C746 C 0.39311 0.93811 0.59309 0.0
C747 C 0.36532 0.91996 0.59007 0.0
C748 C 0.40565 0.95854 0.5717 0.0
C749 C 0.39059 0.96139 0.54718 0.0
C750 C 0.36316 0.94242 0.543 0.0
H751 H 0.43309 0.1008 0.4367 0.0
H752 H 0.41554 0.06639 0.47656 0.0
C753 C 0.35059 0.92179 0.56429 0.0
C754 C 0.40337 -0.01547 0.52639 0.0
H755 H 0.43707 0.0525 0.52708 0.0
C756 C 0.40349 0.97992 0.49382 0.0
C757 C 0.4151 0.01098 0.53853 0.0
C758 C 0.41404 0.0171 0.57309 0.0
C759 C 0.41551 0.00111 0.47304 0.0
C760 C 0.42827 0.02758 0.48535 0.0
C761 C 0.42767 0.03218 0.51784 0.0
C762 C 0.44154 0.05066 0.46454 0.0
C763 C 0.41392 -0.00506 0.43803 0.0
C764 C 0.4629 0.05404 0.44583 0.0
C765 C 0.47286 0.07355 0.42298 0.0
C766 C 0.46182 0.09021 0.4188 0.0
C767 C 0.44196 0.08823 0.43936 0.0
C768 C 0.43185 0.06853 0.46206 0.0
H769 H 0.39765 0.97433 0.43194 0.0
H770 H 0.4103 0.00903 0.42416 0.0
H771 H 0.43328 -0.00317 0.43072 0.0
H772 H 0.47114 0.04089 0.44803 0.0
H773 H 0.48837 0.07479 0.40769 0.0
loop_
_geom_bond_atom_site_label_1
_geom_bond_atom_site_label_2
_geom_bond_distance
_geom_bond_site_symmetry_2
_ccdc_geom_bond_type
C0 O1 1.306 . S
C0 O3 1.160 . S
O1 C0 1.306 . S
O1 Cd2 2.228 . S
Cd2 O1 2.228 . S
Cd2 O6 2.273 . S
Cd2 O10 2.277 1_455 S
O3 C0 1.160 . S
O3 Cd4 2.203 . S
Cd4 O3 2.203 . S
Cd4 O6 2.411 . S
Cd4 O7 2.333 1_455 S
Cd4 O8 2.352 1_554 S
Cd4 O12 2.277 1_454 S
Cd4 O13 2.356 1_554 S
C5 O10 1.209 . S
C5 O12 1.226 1_554 S
O6 Cd2 2.273 . S
O6 Cd4 2.411 . S
O6 C9 1.320 1_455 S
O7 Cd4 2.333 1_655 S
O7 C9 1.214 . S
O8 Cd4 2.352 1_556 S
O8 C11 1.258 . S
C9 O6 1.320 1_655 S
C9 O7 1.214 . S
O10 Cd2 2.277 1_655 S
O10 C5 1.209 . S
C11 O8 1.258 . S
C11 O13 1.282 . S
O12 Cd4 2.277 1_656 S
O12 C5 1.226 1_556 S
O13 Cd4 2.356 1_556 S
O13 C11 1.282 . S
C14 O15 1.306 1_554 S
C14 O17 1.160 . S
O15 C14 1.306 1_556 S
O15 Cd16 2.228 . S
Cd16 O15 2.228 . S
Cd16 O20 2.273 . S
Cd16 O24 2.272 1_556 S
O17 C14 1.160 . S
O17 Cd18 2.203 . S
Cd18 O17 2.203 . S
Cd18 O20 2.411 1_554 S
Cd18 O21 2.333 . S
Cd18 O22 2.352 . S
Cd18 O26 2.277 . S
Cd18 O27 2.356 . S
C19 O24 1.214 . S
C19 O26 1.226 . S
O20 Cd16 2.273 . S
O20 Cd18 2.411 1_556 S
O20 C23 1.320 . S
O21 Cd18 2.333 . S
O21 C23 1.214 1_554 S
O22 Cd18 2.352 . S
O22 C25 1.258 . S
C23 O20 1.320 . S
C23 O21 1.214 1_556 S
O24 Cd16 2.272 1_554 S
O24 C19 1.214 . S
C25 O22 1.258 . S
C25 O27 1.282 . S
O26 Cd18 2.277 . S
O26 C19 1.226 . S
O27 Cd18 2.356 . S
O27 C25 1.282 . S
C28 O29 1.306 . S
C28 O31 1.160 1_554 S
O29 C28 1.306 . S
O29 Cd30 2.228 1_565 S
Cd30 O29 2.228 1_545 S
Cd30 O34 2.273 . S
Cd30 O38 2.277 . S
O31 C28 1.160 1_556 S
O31 Cd32 2.203 1_566 S
Cd32 O31 2.203 1_544 S
Cd32 O34 2.411 . S
Cd32 O35 2.333 . S
Cd32 O36 2.352 1_544 S
Cd32 O40 2.277 1_554 S
Cd32 O41 2.356 1_554 S
C33 O38 1.209 . S
C33 O40 1.226 1_554 S
O34 Cd30 2.273 . S
O34 Cd32 2.411 . S
O34 C37 1.320 . S
O35 Cd32 2.333 . S
O35 C37 1.214 . S
O36 Cd32 2.352 1_566 S
O36 C39 1.258 . S
C37 O34 1.320 . S
C37 O35 1.214 . S
O38 Cd30 2.277 . S
O38 C33 1.209 . S
C39 O36 1.258 . S
C39 O41 1.282 1_565 S
O40 Cd32 2.277 1_556 S
O40 C33 1.226 1_556 S
O41 Cd32 2.356 1_556 S
O41 C39 1.282 1_545 S
C42 O43 1.306 . S
C42 O45 1.160 . S
O43 C42 1.306 . S
O43 Cd44 2.228 . S
Cd44 O43 2.228 . S
Cd44 O48 2.273 . S
Cd44 O52 2.277 . S
O45 C42 1.160 . S
O45 Cd46 2.203 . S
Cd46 O45 2.203 . S
Cd46 O48 2.411 . S
Cd46 O49 2.333 . S
Cd46 O50 2.352 . S
Cd46 O54 2.277 . S
Cd46 O55 2.356 . S
C47 O52 1.209 . S
C47 O54 1.226 . S
O48 Cd44 2.273 . S
O48 Cd46 2.411 . S
O48 C51 1.320 . S
O49 Cd46 2.333 . S
O49 C51 1.214 . S
O50 Cd46 2.352 . S
O50 C53 1.258 . S
C51 O48 1.320 . S
C51 O49 1.214 . S
O52 Cd44 2.277 . S
O52 C47 1.209 . S
C53 O50 1.258 . S
C53 O55 1.282 . S
O54 Cd46 2.277 . S
O54 C47 1.226 . S
O55 Cd46 2.356 . S
O55 C53 1.282 . S
C56 O57 1.306 . S
C56 O59 1.160 . S
O57 C56 1.306 . S
O57 Cd58 2.228 . S
Cd58 O57 2.228 . S
Cd58 O62 2.273 . S
Cd58 O66 2.277 . S
O59 C56 1.160 . S
O59 Cd60 2.203 . S
Cd60 O59 2.203 . S
Cd60 O62 2.411 . S
Cd60 O63 2.333 . S
Cd60 O64 2.352 . S
Cd60 O68 2.277 . S
Cd60 O69 2.356 . S
C61 O66 1.209 . S
C61 O68 1.226 . S
O62 Cd58 2.273 . S
O62 Cd60 2.411 . S
O62 C65 1.320 . S
O63 Cd60 2.333 . S
O63 C65 1.214 . S
O64 Cd60 2.352 . S
O64 C67 1.258 . S
C65 O62 1.320 . S
C65 O63 1.214 . S
O66 Cd58 2.277 . S
O66 C61 1.209 . S
C67 O64 1.258 . S
C67 O69 1.282 . S
O68 Cd60 2.277 . S
O68 C61 1.226 . S
O69 Cd60 2.356 . S
O69 C67 1.282 . S
C70 O71 1.306 . S
C70 O73 1.160 . S
O71 C70 1.306 . S
O71 Cd72 2.228 . S
Cd72 O71 2.228 . S
Cd72 O76 2.273 . S
Cd72 O80 2.277 . S
O73 C70 1.160 . S
O73 Cd74 2.203 . S
Cd74 O73 2.203 . S
Cd74 O76 2.411 . S
Cd74 O77 2.333 . S
Cd74 O78 2.352 . S
Cd74 O82 2.277 . S
Cd74 O83 2.356 . S
C75 O80 1.209 . S
C75 O82 1.226 . S
O76 Cd72 2.273 . S
O76 Cd74 2.411 . S
O76 C79 1.320 . S
O77 Cd74 2.333 . S
O77 C79 1.214 . S
O78 Cd74 2.352 . S
O78 C81 1.258 . S
C79 O76 1.320 . S
C79 O77 1.214 . S
O80 Cd72 2.277 . S
O80 C75 1.209 . S
C81 O78 1.258 . S
C81 O83 1.282 . S
O82 Cd74 2.277 . S
O82 C75 1.226 . S
O83 Cd74 2.356 . S
O83 C81 1.282 . S
C84 O85 1.306 . S
C84 O87 1.160 . S
O85 C84 1.306 . S
O85 Cd86 2.228 . S
Cd86 O85 2.228 . S
Cd86 O90 2.273 . S
Cd86 O94 2.277 . S
O87 C84 1.160 . S
O87 Cd88 2.203 . S
Cd88 O87 2.203 . S
Cd88 O90 2.411 . S
Cd88 O91 2.333 . S
Cd88 O92 2.352 . S
Cd88 O96 2.277 . S
Cd88 O97 2.356 . S
C89 O94 1.209 . S
C89 O96 1.226 . S
O90 Cd86 2.273 . S
O90 Cd88 2.411 . S
O90 C93 1.320 . S
O91 Cd88 2.333 . S
O91 C93 1.214 . S
O92 Cd88 2.352 . S
O92 C95 1.258 . S
C93 O90 1.320 . S
C93 O91 1.214 . S
O94 Cd86 2.277 . S
O94 C89 1.209 . S
C95 O92 1.258 . S
C95 O97 1.282 . S
O96 Cd88 2.277 . S
O96 C89 1.226 . S
O97 Cd88 2.356 . S
O97 C95 1.282 . S
C98 O99 1.306 . S
C98 O101 1.160 . S
O99 C98 1.306 . S
O99 Cd100 2.228 . S
Cd100 O99 2.228 . S
Cd100 O104 2.273 . S
Cd100 O108 2.277 . S
O101 C98 1.160 . S
O101 Cd102 2.203 . S
Cd102 O101 2.203 . S
Cd102 O104 2.411 . S
Cd102 O105 2.333 . S
Cd102 O106 2.352 . S
Cd102 O110 2.277 . S
Cd102 O111 2.356 . S
C103 O108 1.209 . S
C103 O110 1.226 . S
O104 Cd100 2.273 . S
O104 Cd102 2.411 . S
O104 C107 1.320 . S
O105 Cd102 2.333 . S
O105 C107 1.214 . S
O106 Cd102 2.352 . S
O106 C109 1.258 . S
C107 O104 1.320 . S
C107 O105 1.214 . S
O108 Cd100 2.277 . S
O108 C103 1.209 . S
C109 O106 1.258 . S
C109 O111 1.282 . S
O110 Cd102 2.277 . S
O110 C103 1.226 . S
O111 Cd102 2.356 . S
O111 C109 1.282 . S
C112 O113 1.306 . S
C112 O115 1.160 . S
O113 C112 1.306 . S
O113 Cd114 2.228 . S
Cd114 O113 2.228 . S
Cd114 O118 2.273 . S
Cd114 O122 2.277 . S
O115 C112 1.160 . S
O115 Cd116 2.203 . S
Cd116 O115 2.203 . S
Cd116 O118 2.411 . S
Cd116 O119 2.333 . S
Cd116 O120 2.352 . S
Cd116 O124 2.277 . S
Cd116 O125 2.356 . S
C117 O122 1.209 . S
C117 O124 1.226 . S
O118 Cd114 2.273 . S
O118 Cd116 2.411 . S
O118 C121 1.320 . S
O119 Cd116 2.333 . S
O119 C121 1.214 . S
O120 Cd116 2.352 . S
O120 C123 1.258 . S
C121 O118 1.320 . S
C121 O119 1.214 . S
O122 Cd114 2.277 . S
O122 C117 1.209 . S
C123 O120 1.258 . S
C123 O125 1.282 . S
O124 Cd116 2.277 . S
O124 C117 1.226 . S
O125 Cd116 2.356 . S
O125 C123 1.282 . S
H126 C134 0.929 . S
H127 C136 0.930 . S
H128 C138 0.930 . S
H129 C141 0.929 . S
H130 C144 0.930 . S
H131 C146 0.960 . S
H132 C146 0.960 1_554 S
H133 C146 0.960 . S
C134 H126 0.929 . S
C134 C135 1.377 . S
C134 C136 1.384 . S
C135 C134 1.377 . S
C135 C141 1.390 1_554 S
C136 H127 0.930 . S
C136 C134 1.384 . S
C136 C137 1.372 . S
C137 C136 1.372 . S
C137 C138 1.400 1_554 S
C137 C142 1.490 . S
C138 H128 0.930 . S
C138 C137 1.400 1_556 S
C138 C141 1.386 . S
H139 C155 0.930 . S
H140 C156 0.931 . S
C141 H129 0.929 . S
C141 C135 1.390 1_556 S
C141 C138 1.386 . S
C142 C137 1.490 . S
C142 C144 1.395 . S
C142 C145 1.403 . S
H143 C149 0.937 . S
C144 H130 0.930 . S
C144 C142 1.395 . S
C144 C147 1.403 . S
C145 C142 1.403 . S
C145 C146 1.524 1_554 S
C145 C149 1.400 . S
C146 H131 0.960 . S
C146 H132 0.960 1_556 S
C146 H133 0.960 . S
C146 C145 1.524 1_556 S
C147 C144 1.403 . S
C147 C148 1.392 . S
C147 C151 1.495 . S
C148 C147 1.392 . S
C148 C149 1.385 . S
C148 C150 1.478 . S
C149 H143 0.937 . S
C149 C145 1.400 . S
C149 C148 1.385 . S
C150 C148 1.478 . S
C150 C152 1.381 . S
C150 C156 1.383 1_554 S
C151 C147 1.495 . S
C151 H157 0.959 . S
C151 H158 0.961 . S
C151 H159 0.960 . S
C152 C150 1.381 . S
C152 C153 1.394 . S
C152 H160 0.930 . S
C153 C152 1.394 . S
C153 C154 1.383 . S
C153 H161 0.929 . S
C154 C153 1.383 . S
C154 C155 1.377 1_554 S
C155 H139 0.930 . S
C155 C154 1.377 1_556 S
C155 C156 1.379 . S
C156 H140 0.931 . S
C156 C150 1.383 1_556 S
C156 C155 1.379 . S
H157 C151 0.959 . S
H158 C151 0.961 . S
H159 C151 0.960 . S
H160 C152 0.930 . S
H161 C153 0.929 . S
H162 C170 0.929 . S
H163 C172 0.930 1_556 S
H164 C174 0.930 . S
H165 C177 0.929 . S
H166 C180 0.930 . S
H167 C182 0.960 1_545 S
H168 C182 0.960 . S
H169 C182 0.960 . S
C170 H162 0.929 . S
C170 C171 1.377 . S
C170 C172 1.384 . S
C171 C170 1.377 . S
C171 C177 1.390 . S
C172 H163 0.930 1_554 S
C172 C170 1.384 . S
C172 C173 1.372 . S
C173 C172 1.372 . S
C173 C174 1.400 . S
C173 C178 1.490 . S
C174 H164 0.930 . S
C174 C173 1.400 . S
C174 C177 1.386 . S
H175 C191 0.930 . S
H176 C192 0.931 . S
C177 H165 0.929 . S
C177 C171 1.390 . S
C177 C174 1.386 . S
C178 C173 1.490 . S
C178 C180 1.395 1_554 S
C178 C181 1.403 1_565 S
H179 C185 0.930 . S
C180 H166 0.930 . S
C180 C178 1.395 1_556 S
C180 C183 1.403 1_565 S
C181 C178 1.403 1_545 S
C181 C182 1.524 1_545 S
C181 C185 1.400 . S
C182 H167 0.960 1_565 S
C182 H168 0.960 . S
C182 H169 0.960 . S
C182 C181 1.524 1_565 S
C183 C180 1.403 1_545 S
C183 C184 1.392 1_556 S
C183 C187 1.495 . S
C184 C183 1.392 1_554 S
C184 C185 1.385 . S
C184 C186 1.478 . S
C185 H179 0.930 . S
C185 C181 1.400 . S
C185 C184 1.385 . S
C186 C184 1.478 . S
C186 C188 1.381 . S
C186 C192 1.383 . S
C187 C183 1.495 . S
C187 H193 0.959 . S
C187 H194 0.961 . S
C187 H195 0.960 . S
C188 C186 1.381 . S
C188 C189 1.394 . S
C188 H196 0.930 1_554 S
C189 C188 1.394 . S
C189 C190 1.383 . S
C189 H197 0.929 1_554 S
C190 C189 1.383 . S
C190 C191 1.377 . S
C191 H175 0.930 . S
C191 C190 1.377 . S
C191 C192 1.379 . S
C192 H176 0.931 . S
C192 C186 1.383 . S
C192 C191 1.379 . S
H193 C187 0.959 . S
H194 C187 0.961 . S
H195 C187 0.960 . S
H196 C188 0.930 1_556 S
H197 C189 0.929 1_556 S
H198 C206 0.929 . S
H199 C208 0.930 . S
H200 C210 0.930 . S
H201 C213 0.929 . S
H202 C216 0.932 . S
H203 C218 0.960 1_455 S
H204 C218 0.960 1_554 S
H205 C218 0.960 . S
C206 H198 0.929 . S
C206 C207 1.377 . S
C206 C208 1.384 . S
C207 C206 1.377 . S
C207 C213 1.390 1_554 S
C208 H199 0.930 . S
C208 C206 1.384 . S
C208 C209 1.372 . S
C209 C208 1.372 . S
C209 C210 1.400 1_554 S
C209 C214 1.490 . S
C210 H200 0.930 . S
C210 C209 1.400 1_556 S
C210 C213 1.386 . S
H211 C227 0.930 . S
H212 C228 0.931 . S
C213 H201 0.929 . S
C213 C207 1.390 1_556 S
C213 C210 1.386 . S
C214 C209 1.490 . S
C214 C216 1.408 . S
C214 C217 1.398 1_655 S
H215 C221 0.930 1_556 S
C216 H202 0.932 . S
C216 C214 1.408 . S
C216 C219 1.388 1_655 S
C217 C214 1.398 1_455 S
C217 C218 1.487 1_454 S
C217 C221 1.445 . S
C218 H203 0.960 1_655 S
C218 H204 0.960 1_556 S
C218 H205 0.960 . S
C218 C217 1.487 1_656 S
C219 C216 1.388 1_455 S
C219 C220 1.392 . S
C219 C223 1.495 . S
C220 C219 1.392 . S
C220 C221 1.385 . S
C220 C222 1.478 . S
C221 H215 0.930 1_554 S
C221 C217 1.445 . S
C221 C220 1.385 . S
C222 C220 1.478 . S
C222 C224 1.381 . S
C222 C228 1.383 1_554 S
C223 C219 1.495 . S
C223 H229 0.959 . S
C223 H230 0.961 . S
C223 H231 0.960 . S
C224 C222 1.381 . S
C224 C225 1.394 . S
C224 H232 0.930 . S
C225 C224 1.394 . S
C225 C226 1.383 . S
C225 H233 0.929 . S
C226 C225 1.383 . S
C226 C227 1.377 1_554 S
C227 H211 0.930 . S
C227 C226 1.377 1_556 S
C227 C228 1.379 . S
C228 H212 0.931 . S
C228 C222 1.383 1_556 S
C228 C227 1.379 . S
H229 C223 0.959 . S
H230 C223 0.961 . S
H231 C223 0.960 . S
H232 C224 0.930 . S
H233 C225 0.929 . S
H234 C242 0.929 . S
H235 C244 0.930 . S
H236 C246 0.930 . S
H237 C249 0.929 . S
H238 C252 0.930 . S
H239 C254 0.960 . S
H240 C254 0.960 . S
H241 C254 0.960 . S
C242 H234 0.929 . S
C242 C243 1.377 . S
C242 C244 1.384 . S
C243 C242 1.377 . S
C243 C249 1.390 . S
C244 H235 0.930 . S
C244 C242 1.384 . S
C244 C245 1.372 . S
C245 C244 1.372 . S
C245 C246 1.400 . S
C245 C250 1.490 . S
C246 H236 0.930 . S
C246 C245 1.400 . S
C246 C249 1.386 . S
H247 C263 0.930 . S
H248 C264 0.931 . S
C249 H237 0.929 . S
C249 C243 1.390 . S
C249 C246 1.386 . S
C250 C245 1.490 . S
C250 C252 1.395 . S
C250 C253 1.403 . S
H251 C257 0.930 . S
C252 H238 0.930 . S
C252 C250 1.395 . S
C252 C255 1.403 . S
C253 C250 1.403 . S
C253 C254 1.524 . S
C253 C257 1.400 . S
C254 H239 0.960 . S
C254 H240 0.960 . S
C254 H241 0.960 . S
C254 C253 1.524 . S
C255 C252 1.403 . S
C255 C256 1.392 . S
C255 C259 1.495 . S
C256 C255 1.392 . S
C256 C257 1.385 . S
C256 C258 1.478 . S
C257 H251 0.930 . S
C257 C253 1.400 . S
C257 C256 1.385 . S
C258 C256 1.478 . S
C258 C260 1.381 . S
C258 C264 1.383 . S
C259 C255 1.495 . S
C259 H265 0.959 . S
C259 H266 0.961 . S
C259 H267 0.960 . S
C260 C258 1.381 . S
C260 C261 1.394 . S
C260 H268 0.930 . S
C261 C260 1.394 . S
C261 C262 1.383 . S
C261 H269 0.929 . S
C262 C261 1.383 . S
C262 C263 1.377 . S
C263 H247 0.930 . S
C263 C262 1.377 . S
C263 C264 1.379 . S
C264 H248 0.931 . S
C264 C258 1.383 . S
C264 C263 1.379 . S
H265 C259 0.959 . S
H266 C259 0.961 . S
H267 C259 0.960 . S
H268 C260 0.930 . S
H269 C261 0.929 . S
H270 C278 0.929 . S
H271 C280 0.930 . S
H272 C282 0.930 . S
H273 C285 0.929 . S
H274 C288 0.930 . S
H275 C290 0.960 . S
H276 C290 0.960 . S
H277 C290 0.960 . S
C278 H270 0.929 . S
C278 C279 1.377 . S
C278 C280 1.384 . S
C279 C278 1.377 . S
C279 C285 1.390 . S
C280 H271 0.930 . S
C280 C278 1.384 . S
C280 C281 1.372 . S
C281 C280 1.372 . S
C281 C282 1.400 . S
C281 C286 1.490 . S
C282 H272 0.930 . S
C282 C281 1.400 . S
C282 C285 1.386 . S
H283 C299 0.930 . S
H284 C300 0.931 . S
C285 H273 0.929 . S
C285 C279 1.390 . S
C285 C282 1.386 . S
C286 C281 1.490 . S
C286 C288 1.395 . S
C286 C289 1.403 . S
H287 C293 0.930 . S
C288 H274 0.930 . S
C288 C286 1.395 . S
C288 C291 1.403 . S
C289 C286 1.403 . S
C289 C290 1.524 . S
C289 C293 1.400 . S
C290 H275 0.960 . S
C290 H276 0.960 . S
C290 H277 0.960 . S
C290 C289 1.524 . S
C291 C288 1.403 . S
C291 C292 1.392 . S
C291 C295 1.495 . S
C292 C291 1.392 . S
C292 C293 1.385 . S
C292 C294 1.478 . S
C293 H287 0.930 . S
C293 C289 1.400 . S
C293 C292 1.385 . S
C294 C292 1.478 . S
C294 C296 1.381 . S
C294 C300 1.383 . S
C295 C291 1.495 . S
C295 H301 0.959 . S
C295 H302 0.961 . S
C295 H303 0.960 . S
C296 C294 1.381 . S
C296 C297 1.394 . S
C296 H304 0.930 . S
C297 C296 1.394 . S
C297 C298 1.383 . S
C297 H305 0.929 . S
C298 C297 1.383 . S
C298 C299 1.377 . S
C299 H283 0.930 . S
C299 C298 1.377 . S
C299 C300 1.379 . S
C300 H284 0.931 . S
C300 C294 1.383 . S
C300 C299 1.379 . S
H301 C295 0.959 . S
H302 C295 0.961 . S
H303 C295 0.960 . S
H304 C296 0.930 . S
H305 C297 0.929 . S
H306 C314 0.929 . S
H307 C316 0.930 . S
H308 C318 0.930 . S
H309 C321 0.929 . S
H310 C324 0.930 . S
H311 C326 0.960 . S
H312 C326 0.960 . S
H313 C326 0.960 . S
C314 H306 0.929 . S
C314 C315 1.377 . S
C314 C316 1.384 . S
C315 C314 1.377 . S
C315 C321 1.390 . S
C316 H307 0.930 . S
C316 C314 1.384 . S
C316 C317 1.372 . S
C317 C316 1.372 . S
C317 C318 1.400 . S
C317 C322 1.490 . S
C318 H308 0.930 . S
C318 C317 1.400 . S
C318 C321 1.386 . S
H319 C335 0.930 . S
H320 C336 0.931 . S
C321 H309 0.929 . S
C321 C315 1.390 . S
C321 C318 1.386 . S
C322 C317 1.490 . S
C322 C324 1.395 . S
C322 C325 1.403 . S
H323 C329 0.930 . S
C324 H310 0.930 . S
C324 C322 1.395 . S
C324 C327 1.403 . S
C325 C322 1.403 . S
C325 C326 1.524 . S
C325 C329 1.400 . S
C326 H311 0.960 . S
C326 H312 0.960 . S
C326 H313 0.960 . S
C326 C325 1.524 . S
C327 C324 1.403 . S
C327 C328 1.392 . S
C327 C331 1.495 . S
C328 C327 1.392 . S
C328 C329 1.385 . S
C328 C330 1.478 . S
C329 H323 0.930 . S
C329 C325 1.400 . S
C329 C328 1.385 . S
C330 C328 1.478 . S
C330 C332 1.381 . S
C330 C336 1.383 . S
C331 C327 1.495 . S
C331 H337 0.959 . S
C331 H338 0.961 . S
C331 H339 0.960 . S
C332 C330 1.381 . S
C332 C333 1.394 . S
C332 H340 0.930 . S
C333 C332 1.394 . S
C333 C334 1.383 . S
C333 H341 0.929 . S
C334 C333 1.383 . S
C334 C335 1.377 . S
C335 H319 0.930 . S
C335 C334 1.377 . S
C335 C336 1.379 . S
C336 H320 0.931 . S
C336 C330 1.383 . S
C336 C335 1.379 . S
H337 C331 0.959 . S
H338 C331 0.961 . S
H339 C331 0.960 . S
H340 C332 0.930 . S
H341 C333 0.929 . S
H342 C350 0.929 . S
H343 C352 0.930 . S
H344 C354 0.930 . S
H345 C357 0.929 . S
H346 C360 0.930 . S
H347 C362 0.960 . S
H348 C362 0.960 . S
H349 C362 0.960 . S
C350 H342 0.929 . S
C350 C351 1.377 . S
C350 C352 1.384 . S
C351 C350 1.377 . S
C351 C357 1.390 . S
C352 H343 0.930 . S
C352 C350 1.384 . S
C352 C353 1.372 . S
C353 C352 1.372 . S
C353 C354 1.400 . S
C353 C358 1.490 . S
C354 H344 0.930 . S
C354 C353 1.400 . S
C354 C357 1.386 . S
H355 C371 0.930 . S
H356 C372 0.931 . S
C357 H345 0.929 . S
C357 C351 1.390 . S
C357 C354 1.386 . S
C358 C353 1.490 . S
C358 C360 1.395 . S
C358 C361 1.403 . S
H359 C365 0.930 . S
C360 H346 0.930 . S
C360 C358 1.395 . S
C360 C363 1.403 . S
C361 C358 1.403 . S
C361 C362 1.524 . S
C361 C365 1.400 . S
C362 H347 0.960 . S
C362 H348 0.960 . S
C362 H349 0.960 . S
C362 C361 1.524 . S
C363 C360 1.403 . S
C363 C364 1.392 . S
C363 C367 1.495 . S
C364 C363 1.392 . S
C364 C365 1.385 . S
C364 C366 1.478 . S
C365 H359 0.930 . S
C365 C361 1.400 . S
C365 C364 1.385 . S
C366 C364 1.478 . S
C366 C368 1.381 . S
C366 C372 1.383 . S
C367 C363 1.495 . S
C367 H373 0.959 . S
C367 H374 0.961 . S
C367 H375 0.960 . S
C368 C366 1.381 . S
C368 C369 1.394 . S
C368 H376 0.930 . S
C369 C368 1.394 . S
C369 C370 1.383 . S
C369 H377 0.929 . S
C370 C369 1.383 . S
C370 C371 1.377 . S
C371 H355 0.930 . S
C371 C370 1.377 . S
C371 C372 1.379 . S
C372 H356 0.931 . S
C372 C366 1.383 . S
C372 C371 1.379 . S
H373 C367 0.959 . S
H374 C367 0.961 . S
H375 C367 0.960 . S
H376 C368 0.930 . S
H377 C369 0.929 . S
H378 C386 0.929 . S
H379 C388 0.930 . S
H380 C390 0.930 . S
H381 C393 0.929 . S
H382 C396 0.930 . S
H383 C398 0.960 . S
H384 C398 0.960 . S
H385 C398 0.960 . S
C386 H378 0.929 . S
C386 C387 1.377 . S
C386 C388 1.384 . S
C387 C386 1.377 . S
C387 C393 1.390 . S
C388 H379 0.930 . S
C388 C386 1.384 . S
C388 C389 1.372 . S
C389 C388 1.372 . S
C389 C390 1.400 . S
C389 C394 1.490 . S
C390 H380 0.930 . S
C390 C389 1.400 . S
C390 C393 1.386 . S
H391 C407 0.930 . S
H392 C408 0.931 . S
C393 H381 0.929 . S
C393 C387 1.390 . S
C393 C390 1.386 . S
C394 C389 1.490 . S
C394 C396 1.395 . S
C394 C397 1.403 . S
H395 C401 0.930 . S
C396 H382 0.930 . S
C396 C394 1.395 . S
C396 C399 1.403 . S
C397 C394 1.403 . S
C397 C398 1.524 . S
C397 C401 1.400 . S
C398 H383 0.960 . S
C398 H384 0.960 . S
C398 H385 0.960 . S
C398 C397 1.524 . S
C399 C396 1.403 . S
C399 C400 1.392 . S
C399 C403 1.495 . S
C400 C399 1.392 . S
C400 C401 1.385 . S
C400 C402 1.478 . S
C401 H395 0.930 . S
C401 C397 1.400 . S
C401 C400 1.385 . S
C402 C400 1.478 . S
C402 C404 1.381 . S
C402 C408 1.383 . S
C403 C399 1.495 . S
C403 H409 0.959 . S
C403 H410 0.961 . S
C403 H411 0.960 . S
C404 C402 1.381 . S
C404 C405 1.394 . S
C404 H412 0.930 . S
C405 C404 1.394 . S
C405 C406 1.383 . S
C405 H413 0.929 . S
C406 C405 1.383 . S
C406 C407 1.377 . S
C407 H391 0.930 . S
C407 C406 1.377 . S
C407 C408 1.379 . S
C408 H392 0.931 . S
C408 C402 1.383 . S
C408 C407 1.379 . S
H409 C403 0.959 . S
H410 C403 0.961 . S
H411 C403 0.960 . S
H412 C404 0.930 . S
H413 C405 0.929 . S
H414 C422 0.929 . S
H415 C424 0.930 . S
H416 C426 0.930 . S
H417 C429 0.929 . S
H418 C432 0.930 . S
H419 C434 0.960 . S
H420 C434 0.960 . S
H421 C434 0.960 . S
C422 H414 0.929 . S
C422 C423 1.377 . S
C422 C424 1.384 . S
C423 C422 1.377 . S
C423 C429 1.390 . S
C424 H415 0.930 . S
C424 C422 1.384 . S
C424 C425 1.372 . S
C425 C424 1.372 . S
C425 C426 1.400 . S
C425 C430 1.490 . S
C426 H416 0.930 . S
C426 C425 1.400 . S
C426 C429 1.386 . S
H427 C443 0.930 . S
H428 C444 0.931 . S
C429 H417 0.929 . S
C429 C423 1.390 . S
C429 C426 1.386 . S
C430 C425 1.490 . S
C430 C432 1.395 . S
C430 C433 1.403 . S
H431 C437 0.930 . S
C432 H418 0.930 . S
C432 C430 1.395 . S
C432 C435 1.403 . S
C433 C430 1.403 . S
C433 C434 1.524 . S
C433 C437 1.400 . S
C434 H419 0.960 . S
C434 H420 0.960 . S
C434 H421 0.960 . S
C434 C433 1.524 . S
C435 C432 1.403 . S
C435 C436 1.392 . S
C435 C439 1.495 . S
C436 C435 1.392 . S
C436 C437 1.385 . S
C436 C438 1.478 . S
C437 H431 0.930 . S
C437 C433 1.400 . S
C437 C436 1.385 . S
C438 C436 1.478 . S
C438 C440 1.381 . S
C438 C444 1.383 . S
C439 C435 1.495 . S
C439 H445 0.959 . S
C439 H446 0.961 . S
C439 H447 0.960 . S
C440 C438 1.381 . S
C440 C441 1.394 . S
C440 H448 0.930 . S
C441 C440 1.394 . S
C441 C442 1.383 . S
C441 H449 0.929 . S
C442 C441 1.383 . S
C442 C443 1.377 . S
C443 H427 0.930 . S
C443 C442 1.377 . S
C443 C444 1.379 . S
C444 H428 0.931 . S
C444 C438 1.383 . S
C444 C443 1.379 . S
H445 C439 0.959 . S
H446 C439 0.961 . S
H447 C439 0.960 . S
H448 C440 0.930 . S
H449 C441 0.929 . S
H450 C458 0.929 . S
H451 C460 0.930 . S
H452 C462 0.930 . S
H453 C465 0.929 . S
H454 C468 0.930 . S
H455 C470 0.960 . S
H456 C470 0.960 . S
H457 C470 0.960 . S
C458 H450 0.929 . S
C458 C459 1.377 . S
C458 C460 1.384 . S
C459 C458 1.377 . S
C459 C465 1.390 . S
C460 H451 0.930 . S
C460 C458 1.384 . S
C460 C461 1.372 . S
C461 C460 1.372 . S
C461 C462 1.400 . S
C461 C466 1.490 . S
C462 H452 0.930 . S
C462 C461 1.400 . S
C462 C465 1.386 . S
H463 C479 0.930 . S
H464 C480 0.931 . S
C465 H453 0.929 . S
C465 C459 1.390 . S
C465 C462 1.386 . S
C466 C461 1.490 . S
C466 C468 1.395 . S
C466 C469 1.403 . S
H467 C473 0.930 . S
C468 H454 0.930 . S
C468 C466 1.395 . S
C468 C471 1.403 . S
C469 C466 1.403 . S
C469 C470 1.524 . S
C469 C473 1.400 . S
C470 H455 0.960 . S
C470 H456 0.960 . S
C470 H457 0.960 . S
C470 C469 1.524 . S
C471 C468 1.403 . S
C471 C472 1.392 . S
C471 C475 1.495 . S
C472 C471 1.392 . S
C472 C473 1.385 . S
C472 C474 1.478 . S
C473 H467 0.930 . S
C473 C469 1.400 . S
C473 C472 1.385 . S
C474 C472 1.478 . S
C474 C476 1.381 . S
C474 C480 1.383 . S
C475 C471 1.495 . S
C475 H481 0.959 . S
C475 H482 0.961 . S
C475 H483 0.960 . S
C476 C474 1.381 . S
C476 C477 1.394 . S
C476 H484 0.930 . S
C477 C476 1.394 . S
C477 C478 1.383 . S
C477 H485 0.929 . S
C478 C477 1.383 . S
C478 C479 1.377 . S
C479 H463 0.930 . S
C479 C478 1.377 . S
C479 C480 1.379 . S
C480 H464 0.931 . S
C480 C474 1.383 . S
C480 C479 1.379 . S
H481 C475 0.959 . S
H482 C475 0.961 . S
H483 C475 0.960 . S
H484 C476 0.930 . S
H485 C477 0.929 . S
H486 C494 0.929 . S
H487 C496 0.930 . S
H488 C498 0.930 . S
H489 C501 0.929 . S
H490 C504 0.930 . S
H491 C506 0.960 . S
H492 C506 0.960 . S
H493 C506 0.960 . S
C494 H486 0.929 . S
C494 C495 1.377 . S
C494 C496 1.384 . S
C495 C494 1.377 . S
C495 C501 1.390 . S
C496 H487 0.930 . S
C496 C494 1.384 . S
C496 C497 1.372 . S
C497 C496 1.372 . S
C497 C498 1.400 . S
C497 C502 1.490 . S
C498 H488 0.930 . S
C498 C497 1.400 . S
C498 C501 1.386 . S
H499 C515 0.930 . S
H500 C516 0.931 . S
C501 H489 0.929 . S
C501 C495 1.390 . S
C501 C498 1.386 . S
C502 C497 1.490 . S
C502 C504 1.395 . S
C502 C505 1.403 . S
H503 C509 0.930 . S
C504 H490 0.930 . S
C504 C502 1.395 . S
C504 C507 1.403 . S
C505 C502 1.403 . S
C505 C506 1.524 . S
C505 C509 1.400 . S
C506 H491 0.960 . S
C506 H492 0.960 . S
C506 H493 0.960 . S
C506 C505 1.524 . S
C507 C504 1.403 . S
C507 C508 1.392 . S
C507 C511 1.495 . S
C508 C507 1.392 . S
C508 C509 1.385 . S
C508 C510 1.478 . S
C509 H503 0.930 . S
C509 C505 1.400 . S
C509 C508 1.385 . S
C510 C508 1.478 . S
C510 C512 1.381 . S
C510 C516 1.383 . S
C511 C507 1.495 . S
C511 H517 0.959 . S
C511 H518 0.961 . S
C511 H519 0.960 . S
C512 C510 1.381 . S
C512 C513 1.394 . S
C512 H520 0.930 . S
C513 C512 1.394 . S
C513 C514 1.383 . S
C513 H521 0.929 . S
C514 C513 1.383 . S
C514 C515 1.377 . S
C515 H499 0.930 . S
C515 C514 1.377 . S
C515 C516 1.379 . S
C516 H500 0.931 . S
C516 C510 1.383 . S
C516 C515 1.379 . S
H517 C511 0.959 . S
H518 C511 0.961 . S
H519 C511 0.960 . S
H520 C512 0.930 . S
H521 C513 0.929 . S
H522 C530 0.929 . S
H523 C532 0.930 . S
H524 C534 0.930 . S
H525 C537 0.929 . S
H526 C540 0.930 . S
H527 C542 0.997 . S
H528 C542 0.960 . S
H529 C542 0.960 . S
C530 H522 0.929 . S
C530 C531 1.377 . S
C530 C532 1.384 . S
C531 C530 1.377 . S
C531 C537 1.390 . S
C532 H523 0.930 . S
C532 C530 1.384 . S
C532 C533 1.372 . S
C533 C532 1.372 . S
C533 C534 1.400 . S
C533 C538 1.490 . S
C534 H524 0.930 . S
C534 C533 1.400 . S
C534 C537 1.386 . S
H535 C551 0.930 . S
H536 C552 0.931 . S
C537 H525 0.929 . S
C537 C531 1.390 . S
C537 C534 1.386 . S
C538 C533 1.490 . S
C538 C540 1.395 . S
C538 C541 1.403 . S
H539 C545 0.930 . S
C540 H526 0.930 . S
C540 C538 1.395 . S
C540 C543 1.403 . S
C541 C538 1.403 . S
C541 C542 1.524 . S
C541 C545 1.400 . S
C542 H527 0.997 . S
C542 H528 0.960 . S
C542 H529 0.960 . S
C542 C541 1.524 . S
C543 C540 1.403 . S
C543 C544 1.392 . S
C543 C547 1.495 . S
C544 C543 1.392 . S
C544 C545 1.385 . S
C544 C546 1.478 . S
C545 H539 0.930 . S
C545 C541 1.400 . S
C545 C544 1.385 . S
C546 C544 1.478 . S
C546 C548 1.381 . S
C546 C552 1.383 . S
C547 C543 1.495 . S
C547 H553 0.959 . S
C547 H554 0.961 . S
C547 H555 0.960 . S
C548 C546 1.381 . S
C548 C549 1.394 . S
C548 H556 0.930 . S
C549 C548 1.394 . S
C549 C550 1.383 . S
C549 H557 0.929 . S
C550 C549 1.383 . S
C550 C551 1.377 . S
C551 H535 0.930 . S
C551 C550 1.377 . S
C551 C552 1.379 . S
C552 H536 0.931 . S
C552 C546 1.383 . S
C552 C551 1.379 . S
H553 C547 0.959 . S
H554 C547 0.961 . S
H555 C547 0.960 . S
H556 C548 0.930 . S
H557 C549 0.929 . S
H558 C566 0.929 . S
H559 C568 0.930 . S
H560 C570 0.930 . S
H561 C573 0.929 . S
H562 C576 0.930 . S
H563 C578 0.960 . S
H564 C578 0.960 . S
H565 C578 0.960 . S
C566 H558 0.929 . S
C566 C567 1.377 . S
C566 C568 1.384 . S
C567 C566 1.377 . S
C567 C573 1.390 . S
C568 H559 0.930 . S
C568 C566 1.384 . S
C568 C569 1.372 . S
C569 C568 1.372 . S
C569 C570 1.400 . S
C569 C574 1.490 . S
C570 H560 0.930 . S
C570 C569 1.400 . S
C570 C573 1.386 . S
H571 C587 0.930 . S
H572 C588 0.931 . S
C573 H561 0.929 . S
C573 C567 1.390 . S
C573 C570 1.386 . S
C574 C569 1.490 . S
C574 C576 1.395 . S
C574 C577 1.403 . S
H575 C581 0.930 . S
C576 H562 0.930 . S
C576 C574 1.395 . S
C576 C579 1.403 . S
C577 C574 1.403 . S
C577 C578 1.524 . S
C577 C581 1.400 . S
C578 H563 0.960 . S
C578 H564 0.960 . S
C578 H565 0.960 . S
C578 C577 1.524 . S
C579 C576 1.403 . S
C579 C580 1.392 . S
C579 C583 1.495 . S
C580 C579 1.392 . S
C580 C581 1.385 . S
C580 C582 1.478 . S
C581 H575 0.930 . S
C581 C577 1.400 . S
C581 C580 1.385 . S
C582 C580 1.478 . S
C582 C584 1.381 . S
C582 C588 1.383 . S
C583 C579 1.495 . S
C583 H589 0.959 . S
C583 H590 0.961 . S
C583 H591 0.960 . S
C584 C582 1.381 . S
C584 C585 1.394 . S
C584 H592 0.930 . S
C585 C584 1.394 . S
C585 C586 1.383 . S
C585 H593 0.929 . S
C586 C585 1.383 . S
C586 C587 1.377 . S
C587 H571 0.930 . S
C587 C586 1.377 . S
C587 C588 1.379 . S
C588 H572 0.931 . S
C588 C582 1.383 . S
C588 C587 1.379 . S
H589 C583 0.959 . S
H590 C583 0.961 . S
H591 C583 0.960 . S
H592 C584 0.930 . S
H593 C585 0.929 . S
H594 C602 0.929 . S
H595 C604 0.930 . S
H596 C606 0.930 . S
H597 C609 0.929 . S
H598 C612 0.930 . S
H599 C614 0.960 . S
H600 C614 0.960 . S
H601 C614 0.960 . S
C602 H594 0.929 . S
C602 C603 1.377 . S
C602 C604 1.384 . S
C603 C602 1.377 . S
C603 C609 1.390 . S
C604 H595 0.930 . S
C604 C602 1.384 . S
C604 C605 1.372 . S
C605 C604 1.372 . S
C605 C606 1.400 . S
C605 C610 1.490 . S
C606 H596 0.930 . S
C606 C605 1.400 . S
C606 C609 1.386 . S
H607 C623 0.930 . S
H608 C624 0.931 . S
C609 H597 0.929 . S
C609 C603 1.390 . S
C609 C606 1.386 . S
C610 C605 1.490 . S
C610 C612 1.395 . S
C610 C613 1.403 . S
H611 C617 0.930 . S
C612 H598 0.930 . S
C612 C610 1.395 . S
C612 C615 1.403 . S
C613 C610 1.403 . S
C613 C614 1.524 1_655 S
C613 C617 1.400 . S
C614 H599 0.960 . S
C614 H600 0.960 . S
C614 H601 0.960 . S
C614 C613 1.524 1_455 S
C615 C612 1.403 . S
C615 C616 1.392 . S
C615 C619 1.495 . S
C616 C615 1.392 . S
C616 C617 1.385 . S
C616 C618 1.478 . S
C617 H611 0.930 . S
C617 C613 1.400 . S
C617 C616 1.385 . S
C618 C616 1.478 . S
C618 C620 1.381 . S
C618 C624 1.383 . S
C619 C615 1.495 . S
C619 H625 0.959 . S
C619 H626 0.961 . S
C619 H627 0.960 . S
C620 C618 1.381 . S
C620 C621 1.394 . S
C620 H628 0.930 . S
C621 C620 1.394 . S
C621 C622 1.383 . S
C621 H629 0.929 . S
C622 C621 1.383 . S
C622 C623 1.377 . S
C623 H607 0.930 . S
C623 C622 1.377 . S
C623 C624 1.379 . S
C624 H608 0.931 . S
C624 C618 1.383 . S
C624 C623 1.379 . S
H625 C619 0.959 . S
H626 C619 0.961 . S
H627 C619 0.960 . S
H628 C620 0.930 . S
H629 C621 0.929 . S
H630 C638 0.929 . S
H631 C640 0.930 . S
H632 C642 0.930 . S
H633 C645 0.929 . S
H634 C648 0.930 . S
H635 C650 0.960 . S
H636 C650 0.960 . S
H637 C650 0.960 . S
C638 H630 0.929 . S
C638 C639 1.377 . S
C638 C640 1.384 . S
C639 C638 1.377 . S
C639 C645 1.390 . S
C640 H631 0.930 . S
C640 C638 1.384 . S
C640 C641 1.372 . S
C641 C640 1.372 . S
C641 C642 1.400 . S
C641 C646 1.490 . S
C642 H632 0.930 . S
C642 C641 1.400 . S
C642 C645 1.386 . S
H643 C659 0.930 . S
H644 C660 0.931 . S
C645 H633 0.929 . S
C645 C639 1.390 . S
C645 C642 1.386 . S
C646 C641 1.490 . S
C646 C648 1.395 . S
C646 C649 1.403 . S
H647 C653 0.930 . S
C648 H634 0.930 . S
C648 C646 1.395 . S
C648 C651 1.403 . S
C649 C646 1.403 . S
C649 C650 1.524 . S
C649 C653 1.400 . S
C650 H635 0.960 . S
C650 H636 0.960 . S
C650 H637 0.960 . S
C650 C649 1.524 . S
C651 C648 1.403 . S
C651 C652 1.392 . S
C651 C655 1.495 . S
C652 C651 1.392 . S
C652 C653 1.385 . S
C652 C654 1.478 . S
C653 H647 0.930 . S
C653 C649 1.400 . S
C653 C652 1.385 . S
C654 C652 1.478 . S
C654 C656 1.381 . S
C654 C660 1.383 . S
C655 C651 1.495 . S
C655 H661 0.959 . S
C655 H662 0.961 . S
C655 H663 0.960 . S
C656 C654 1.381 . S
C656 C657 1.394 . S
C656 H664 0.930 . S
C657 C656 1.394 . S
C657 C658 1.383 . S
C657 H665 0.929 . S
C658 C657 1.383 . S
C658 C659 1.377 . S
C659 H643 0.930 . S
C659 C658 1.377 . S
C659 C660 1.379 . S
C660 H644 0.931 . S
C660 C654 1.383 . S
C660 C659 1.379 . S
H661 C655 0.959 . S
H662 C655 0.961 . S
H663 C655 0.960 . S
H664 C656 0.930 . S
H665 C657 0.929 . S
H666 C674 0.929 . S
H667 C676 0.930 . S
H668 C678 0.930 . S
H669 C681 0.929 . S
H670 C684 0.930 . S
H671 C686 0.960 1_655 S
H672 C686 0.960 . S
H673 C686 0.960 . S
C674 H666 0.929 . S
C674 C675 1.377 . S
C674 C676 1.384 . S
C675 C674 1.377 . S
C675 C681 1.390 . S
C676 H667 0.930 . S
C676 C674 1.384 . S
C676 C677 1.372 . S
C677 C676 1.372 . S
C677 C678 1.400 . S
C677 C682 1.490 . S
C678 H668 0.930 . S
C678 C677 1.400 . S
C678 C681 1.386 . S
H679 C695 0.930 . S
H680 C696 0.931 . S
C681 H669 0.929 . S
C681 C675 1.390 . S
C681 C678 1.386 . S
C682 C677 1.490 . S
C682 C684 1.395 . S
C682 C685 1.403 . S
H683 C689 0.958 . S
C684 H670 0.930 . S
C684 C682 1.395 . S
C684 C687 1.403 . S
C685 C682 1.403 . S
C685 C686 1.524 . S
C685 C689 1.376 1_455 S
C686 H671 0.960 1_455 S
C686 H672 0.960 . S
C686 H673 0.960 . S
C686 C685 1.524 . S
C687 C684 1.403 . S
C687 C688 1.392 . S
C687 C691 1.495 . S
C688 C687 1.392 . S
C688 C689 1.385 1_455 S
C688 C690 1.478 1_455 S
C689 H683 0.958 . S
C689 C685 1.376 1_655 S
C689 C688 1.385 1_655 S
C690 C688 1.478 1_655 S
C690 C692 1.381 . S
C690 C696 1.383 . S
C691 C687 1.495 . S
C691 H697 0.959 . S
C691 H698 0.961 . S
C691 H699 0.960 . S
C692 C690 1.381 . S
C692 C693 1.394 . S
C692 H700 0.930 . S
C693 C692 1.394 . S
C693 C694 1.383 . S
C693 H701 0.929 . S
C694 C693 1.383 . S
C694 C695 1.377 . S
C695 H679 0.930 . S
C695 C694 1.377 . S
C695 C696 1.379 . S
C696 H680 0.931 . S
C696 C690 1.383 . S
C696 C695 1.379 . S
H697 C691 0.959 . S
H698 C691 0.961 . S
H699 C691 0.960 . S
H700 C692 0.930 . S
H701 C693 0.929 . S
H702 C710 0.929 . S
H703 C712 0.930 . S
H704 C714 0.930 . S
H705 C717 0.929 . S
H706 C720 0.930 . S
H707 C722 0.960 . S
H708 C722 0.960 . S
H709 C722 0.960 . S
C710 H702 0.929 . S
C710 C711 1.377 . S
C710 C712 1.384 . S
C711 C710 1.377 . S
C711 C717 1.390 . S
C712 H703 0.930 . S
C712 C710 1.384 . S
C712 C713 1.372 . S
C713 C712 1.372 . S
C713 C714 1.400 . S
C713 C718 1.490 . S
C714 H704 0.930 . S
C714 C713 1.400 . S
C714 C717 1.386 . S
H715 C731 0.930 . S
H716 C732 0.931 . S
C717 H705 0.929 . S
C717 C711 1.390 . S
C717 C714 1.386 . S
C718 C713 1.490 . S
C718 C720 1.395 . S
C718 C721 1.403 . S
H719 C725 0.930 . S
C720 H706 0.930 . S
C720 C718 1.395 . S
C720 C723 1.403 . S
C721 C718 1.403 . S
C721 C722 1.524 . S
C721 C725 1.400 . S
C722 H707 0.960 . S
C722 H708 0.960 . S
C722 H709 0.960 . S
C722 C721 1.524 . S
C723 C720 1.403 . S
C723 C724 1.392 . S
C723 C727 1.495 . S
C724 C723 1.392 . S
C724 C725 1.385 . S
C724 C726 1.478 . S
C725 H719 0.930 . S
C725 C721 1.400 . S
C725 C724 1.385 . S
C726 C724 1.478 . S
C726 C728 1.381 . S
C726 C732 1.383 . S
C727 C723 1.495 . S
C727 H733 0.959 . S
C727 H734 0.961 . S
C727 H735 0.960 . S
C728 C726 1.381 . S
C728 C729 1.394 . S
C728 H736 0.930 . S
C729 C728 1.394 . S
C729 C730 1.383 . S
C729 H737 0.929 . S
C730 C729 1.383 . S
C730 C731 1.377 . S
C731 H715 0.930 . S
C731 C730 1.377 . S
C731 C732 1.379 . S
C732 H716 0.931 . S
C732 C726 1.383 . S
C732 C731 1.379 . S
H733 C727 0.959 . S
H734 C727 0.961 . S
H735 C727 0.960 . S
H736 C728 0.930 . S
H737 C729 0.929 . S
H738 C746 0.929 . S
H739 C748 0.930 . S
H740 C750 0.930 . S
H741 C753 0.929 . S
H742 C756 0.930 . S
H743 C758 0.960 . S
H744 C758 0.960 . S
H745 C758 0.936 1_565 S
C746 H738 0.929 . S
C746 C747 1.377 . S
C746 C748 1.384 . S
C747 C746 1.377 . S
C747 C753 1.390 . S
C748 H739 0.930 . S
C748 C746 1.384 . S
C748 C749 1.372 . S
C749 C748 1.372 . S
C749 C750 1.400 . S
C749 C754 1.490 . S
C750 H740 0.930 . S
C750 C749 1.400 . S
C750 C753 1.386 . S
H751 C767 0.930 . S
H752 C768 0.931 . S
C753 H741 0.929 . S
C753 C747 1.390 . S
C753 C750 1.386 . S
C754 C749 1.490 . S
C754 C756 1.395 . S
C754 C757 1.403 1_565 S
H755 C761 0.930 . S
C756 H742 0.930 . S
C756 C754 1.395 . S
C756 C759 1.403 1_565 S
C757 C754 1.403 1_545 S
C757 C758 1.524 . S
C757 C761 1.400 . S
C758 H743 0.960 . S
C758 H744 0.960 . S
C758 H745 0.936 1_545 S
C758 C757 1.524 . S
C759 C756 1.403 1_545 S
C759 C760 1.392 . S
C759 C763 1.495 . S
C760 C759 1.392 . S
C760 C761 1.385 . S
C760 C762 1.478 . S
C761 H755 0.930 . S
C761 C757 1.400 . S
C761 C760 1.385 . S
C762 C760 1.478 . S
C762 C764 1.381 . S
C762 C768 1.383 . S
C763 C759 1.495 . S
C763 H769 0.959 . S
C763 H770 0.961 . S
C763 H771 0.960 . S
C764 C762 1.381 . S
C764 C765 1.394 . S
C764 H772 0.930 . S
C765 C764 1.394 . S
C765 C766 1.383 . S
C765 H773 0.929 . S
C766 C765 1.383 . S
C766 C767 1.377 . S
C767 H751 0.930 . S
C767 C766 1.377 . S
C767 C768 1.379 . S
C768 H752 0.931 . S
C768 C762 1.383 . S
C768 C767 1.379 . S
H769 C763 0.959 . S
H770 C763 0.961 . S
H771 C763 0.960 . S
H772 C764 0.930 . S
H773 C765 0.929 . S
C135 C33 0.869 . S
C154 C0 0.901 . S
C171 C19 0.893 . S
C190 C5 0.908 . S
C207 C14 0.852 . S
C226 C28 0.886 . S
C243 C70 0.842 . S
C262 C47 0.879 . S
C279 C61 0.825 . S
C298 C42 0.814 . S
C315 C56 0.878 . S
C334 C75 0.880 . S
C351 C84 0.812 . S
C370 C117 0.849 . S
C387 C89 0.826 . S
C406 C103 0.850 . S
C423 C98 0.787 . S
C442 C112 0.823 . S
C459 C11 1.348 . S
C478 C109 1.341 . S
C495 C23 1.394 . S
C514 C121 1.398 . S
C531 C93 1.366 . S
C550 C39 1.371 . S
C567 C65 1.345 . S
C586 C37 1.350 . S
C603 C9 1.398 . S
C622 C79 1.402 . S
C639 C51 1.377 . S
C658 C25 1.383 . S
C675 C107 1.365 . S
C694 C81 1.371 . S
C711 C53 1.343 . S
C730 C123 1.336 . S
C747 C95 1.393 . S
C766 C67 1.394 . S
