# Generated by pormake.
# Topology noy, (5)-cn, num edge types: 1
# Building blocks:
#     Node 0, Type 0, BuildingBlock: XOMCOT_clean_sbu_0, # of connection points: 5
#     Node 1, Type 0, BuildingBlock: XOMCOT_clean_sbu_0, # of connection points: 5
#     Node 2, Type 0, BuildingBlock: XOMCOT_clean_sbu_0, # of connection points: 5
#     Node 3, Type 0, BuildingBlock: XOMCOT_clean_sbu_0, # of connection points: 5
#     Node 4, Type 0, BuildingBlock: XOMCOT_clean_sbu_0, # of connection points: 5
#     Node 5, Type 0, BuildingBlock: XOMCOT_clean_sbu_0, # of connection points: 5
#     Node 6, Type 0, BuildingBlock: XOMCOT_clean_sbu_0, # of connection points: 5
#     Node 7, Type 0, BuildingBlock: XOMCOT_clean_sbu_0, # of connection points: 5
#     Edge 8, Type (0, 0), BuildingBlock: AJUNOK_clean_linker_0, # of connection points: 2
#     Edge 9, Type (0, 0), BuildingBlock: AJUNOK_clean_linker_0, # of connection points: 2
#     Edge 10, Type (0, 0), BuildingBlock: AJUNOK_clean_linker_0, # of connection points: 2
#     Edge 11, Type (0, 0), BuildingBlock: AJUNOK_clean_linker_0, # of connection points: 2
#     Edge 12, Type (0, 0), BuildingBlock: AJUNOK_clean_linker_0, # of connection points: 2
#     Edge 13, Type (0, 0), BuildingBlock: AJUNOK_clean_linker_0, # of connection points: 2
#     Edge 14, Type (0, 0), BuildingBlock: AJUNOK_clean_linker_0, # of connection points: 2
#     Edge 15, Type (0, 0), BuildingBlock: AJUNOK_clean_linker_0, # of connection points: 2
#     Edge 16, Type (0, 0), BuildingBlock: AJUNOK_clean_linker_0, # of connection points: 2
#     Edge 17, Type (0, 0), BuildingBlock: AJUNOK_clean_linker_0, # of connection points: 2
#     Edge 18, Type (0, 0), BuildingBlock: AJUNOK_clean_linker_0, # of connection points: 2
#     Edge 19, Type (0, 0), BuildingBlock: AJUNOK_clean_linker_0, # of connection points: 2
#     Edge 20, Type (0, 0), BuildingBlock: AJUNOK_clean_linker_0, # of connection points: 2
#     Edge 21, Type (0, 0), BuildingBlock: AJUNOK_clean_linker_0, # of connection points: 2
#     Edge 22, Type (0, 0), BuildingBlock: AJUNOK_clean_linker_0, # of connection points: 2
#     Edge 23, Type (0, 0), BuildingBlock: AJUNOK_clean_linker_0, # of connection points: 2
#     Edge 24, Type (0, 0), BuildingBlock: AJUNOK_clean_linker_0, # of connection points: 2
#     Edge 25, Type (0, 0), BuildingBlock: AJUNOK_clean_linker_0, # of connection points: 2
#     Edge 26, Type (0, 0), BuildingBlock: AJUNOK_clean_linker_0, # of connection points: 2
#     Edge 27, Type (0, 0), BuildingBlock: AJUNOK_clean_linker_0, # of connection points: 2
# Relax obj value: 0.208
# Max RMSD: 0.213
# Mean RMSD: 0.213
data_MOF--net-noy--node1-XOMCOT_clean_sbu_0--edge1-AJUNOK_clean_linker_0
_symmetry_space_group_name_H-M    P1
_symmetry_Int_Tables_number       1
_symmetry_cell_setting            triclinic
loop_
_symmetry_equiv_pos_as_xyz
'x, y, z'
_cell_length_a     37.52377
_cell_length_b     35.154745
_cell_length_c     15.038145
_cell_angle_alpha  89.954919
_cell_angle_beta   90.339547
_cell_angle_gamma 90.517837
loop_
_atom_site_label
_atom_site_type_symbol
_atom_site_fract_x
_atom_site_fract_y
_atom_site_fract_z
_atom_type_partial_charge
Co0 Co 0.32511 0.40006 0.36863 0.0
C1 C 0.33909 0.45458 0.21794 0.0
C2 C 0.29326 0.41868 0.19659 0.0
C3 C 0.29677 0.44237 0.12477 0.0
N4 N 0.31991 0.42583 0.25487 0.0
N5 N 0.3256 0.46485 0.13755 0.0
H6 H 0.36191 0.46806 0.24953 0.0
H7 H 0.27177 0.39851 0.20647 0.0
C8 C 0.30524 0.3201 0.31652 0.0
O9 O 0.33416 0.30829 0.35735 0.0
N10 N 0.32781 0.37389 0.484 0.0
C11 C 0.34935 0.3815 0.55439 0.0
C12 C 0.33816 0.3609 0.62691 0.0
C13 C 0.30291 0.34955 0.51711 0.0
N14 N 0.30885 0.34095 0.60355 0.0
C15 C 0.39999 0.38793 0.37955 0.0
C16 C 0.40882 0.35051 0.22018 0.0
C17 C 0.43866 0.3573 0.27489 0.0
C18 C 0.4338 0.3764 0.35505 0.0
C19 C 0.37486 0.36185 0.24873 0.0
N20 N 0.37061 0.37926 0.32945 0.0
H21 H 0.39814 0.40602 0.4364 0.0
H22 H 0.35222 0.35751 0.20504 0.0
H23 H 0.37045 0.40232 0.55673 0.0
H24 H 0.27963 0.33992 0.48051 0.0
O25 O 0.34409 0.44551 0.42088 0.0
O26 O 0.28661 0.43135 0.41752 0.0
O27 O 0.29723 0.35542 0.31776 0.0
C28 C 0.31203 0.45463 0.4431 0.0
H29 H 0.27832 0.44429 0.06934 0.0
H30 H 0.35022 0.36131 0.69246 0.0
H31 H 0.41181 0.33723 0.15574 0.0
H32 H 0.4564 0.38438 0.39647 0.0
Co33 Co 0.70495 0.65804 0.86134 0.0
C34 C 0.70256 0.60515 0.70306 0.0
C35 C 0.69833 0.6637 0.66619 0.0
C36 C 0.69803 0.64218 0.58993 0.0
N37 N 0.70108 0.64065 0.7379 0.0
N38 N 0.70034 0.6054 0.61331 0.0
H39 H 0.70719 0.57979 0.74098 0.0
H40 H 0.69777 0.69434 0.66798 0.0
C41 C 0.73221 0.73935 0.83638 0.0
O42 O 0.71204 0.75177 0.90117 0.0
N43 N 0.70934 0.67619 0.98385 0.0
C44 C 0.68448 0.67396 0.04818 0.0
C45 C 0.69636 0.69374 0.12169 0.0
C46 C 0.73683 0.69584 1.02135 0.0
N47 N 0.72904 0.70795 0.10436 0.0
C48 C 0.62948 0.66011 0.88229 0.0
C49 C 0.61498 0.72771 0.79728 0.0
C50 C 0.58667 0.70673 0.83385 0.0
C51 C 0.59447 0.67224 0.87536 0.0
C52 C 0.65004 0.71424 0.80495 0.0
N53 N 0.65734 0.68109 0.84943 0.0
H54 H 0.63353 0.63318 0.91438 0.0
H55 H 0.67052 0.73028 0.77209 0.0
H56 H 0.65906 0.65963 0.04255 0.0
H57 H 0.76114 0.70321 0.98673 0.0
O58 O 0.68954 0.60909 0.90428 0.0
O59 O 0.74589 0.62443 0.88281 0.0
O60 O 0.7316 0.70417 0.81524 0.0
C61 C 0.72251 0.59904 0.90822 0.0
H62 H 0.69684 0.65274 0.52233 0.0
H63 H 0.68174 0.69811 0.18262 0.0
H64 H 0.61007 0.75397 0.76175 0.0
H65 H 0.5735 0.6538 0.90022 0.0
Co66 Co 0.32243 0.65844 0.6839 0.0
C67 C 0.33939 0.60533 0.83484 0.0
C68 C 0.30327 0.64905 0.87336 0.0
C69 C 0.30803 0.62498 0.94431 0.0
N70 N 0.32292 0.63697 0.80414 0.0
N71 N 0.33042 0.59723 0.92006 0.0
H72 H 0.35701 0.58816 0.79554 0.0
H73 H 0.28544 0.67288 0.87251 0.0
C74 C 0.30089 0.73866 0.72207 0.0
O75 O 0.32788 0.74956 0.67264 0.0
N76 N 0.32014 0.67948 0.56274 0.0
C77 C 0.33833 0.66842 0.48987 0.0
C78 C 0.32666 0.6887 0.41689 0.0
C79 C 0.29614 0.70473 0.53069 0.0
N80 N 0.30048 0.71195 0.44317 0.0
C81 C 0.39596 0.67627 0.65724 0.0
C82 C 0.40692 0.71892 0.80915 0.0
C83 C 0.43635 0.71017 0.75577 0.0
C84 C 0.43019 0.68893 0.67838 0.0
C85 C 0.37297 0.70483 0.78646 0.0
N86 N 0.3676 0.68438 0.71003 0.0
H87 H 0.39296 0.6577 0.6011 0.0
H88 H 0.35122 0.70977 0.83157 0.0
H89 H 0.35783 0.64605 0.48789 0.0
H90 H 0.27481 0.71666 0.56928 0.0
O91 O 0.3426 0.61277 0.63869 0.0
O92 O 0.28464 0.62189 0.64964 0.0
O93 O 0.29368 0.70308 0.72997 0.0
C94 C 0.31069 0.59933 0.62764 0.0
H95 H 0.29432 0.62647 1.00736 0.0
H96 H 0.33661 0.6865 0.34968 0.0
H97 H 0.41007 0.73559 0.86918 0.0
H98 H 0.45202 0.68014 0.63652 0.0
Co99 Co 0.70851 0.40486 0.16584 0.0
C100 C 0.69959 0.46256 0.31537 0.0
C101 C 0.7495 0.43342 0.31522 0.0
C102 C 0.75072 0.46039 0.38096 0.0
N103 N 0.71736 0.43412 0.27428 0.0
N104 N 0.71937 0.47846 0.38131 0.0
H105 H 0.67402 0.47336 0.29516 0.0
H106 H 0.77136 0.41549 0.29565 0.0
C107 C 0.72564 0.34705 0.30194 0.0
O108 O 0.7024 0.36474 0.35181 0.0
N109 N 0.70258 0.37578 0.05752 0.0
C110 C 0.6767 0.37884 0.99543 0.0
C111 C 0.68476 0.35523 0.92506 0.0
C112 C 0.72581 0.35036 0.02472 0.0
N113 N 0.7155 0.33736 0.9442 0.0
C114 C 0.635 0.41461 0.20729 0.0
C115 C 0.61594 0.33851 0.21015 0.0
C116 C 0.58922 0.36599 0.21544 0.0
C117 C 0.59921 0.40438 0.21478 0.0
C118 C 0.65168 0.35005 0.20191 0.0
N119 N 0.66104 0.38783 0.20242 0.0
H120 H 0.64121 0.44429 0.19899 0.0
H121 H 0.6715 0.32856 0.19029 0.0
H122 H 0.65403 0.39751 1.00014 0.0
H123 H 0.75047 0.34264 0.05734 0.0
O124 O 0.69367 0.44965 0.10507 0.0
O125 O 0.7498 0.43098 0.11267 0.0
O126 O 0.73203 0.35939 0.22348 0.0
C127 C 0.72654 0.45548 0.0833 0.0
H128 H 0.77333 0.46725 0.42326 0.0
H129 H 0.66946 0.35167 0.86432 0.0
H130 H 0.60916 0.30851 0.20835 0.0
H131 H 0.57933 0.4265 0.21765 0.0
Co132 Co 0.82363 0.89997 0.36581 0.0
C133 C 0.84134 0.94827 0.20721 0.0
C134 C 0.80289 0.9046 0.17701 0.0
C135 C 0.80804 0.9262 0.10213 0.0
N136 N 0.82392 0.91811 0.24317 0.0
N137 N 0.83215 0.95369 0.12082 0.0
H138 H 0.85931 0.9667 0.24401 0.0
H139 H 0.78357 0.88182 0.18302 0.0
C140 C 0.8096 0.81731 0.31596 0.0
O141 O 0.83995 0.80721 0.35248 0.0
N142 N 0.82091 0.88207 0.48939 0.0
C143 C 0.83014 0.90186 0.56342 0.0
C144 C 0.81971 0.88192 0.63759 0.0
C145 C 0.80368 0.85088 0.52088 0.0
N146 N 0.80321 0.8498 0.61075 0.0
C147 C 0.89545 0.88394 0.41878 0.0
C148 C 0.91926 0.85716 0.25759 0.0
C149 C 0.94407 0.86265 0.32702 0.0
C150 C 0.93126 0.87506 0.40908 0.0
C151 C 0.88307 0.86515 0.27117 0.0
N152 N 0.87148 0.8789 0.35102 0.0
H153 H 0.88783 0.89694 0.48008 0.0
H154 H 0.86466 0.86134 0.21636 0.0
H155 H 0.84317 0.9294 0.56434 0.0
H156 H 0.78963 0.8305 0.47988 0.0
O157 O 0.83877 0.94942 0.40561 0.0
O158 O 0.78222 0.93193 0.38958 0.0
O159 O 0.79894 0.85173 0.32203 0.0
C160 C 0.8054 0.95832 0.41143 0.0
H161 H 0.79303 0.92369 0.04067 0.0
H162 H 0.8235 0.89063 0.70604 0.0
H163 H 0.92777 0.84855 0.19206 0.0
H164 H 0.94913 0.87967 0.46497 0.0
Co165 Co 0.20113 0.15808 0.86651 0.0
C166 C 0.20187 0.09927 0.71995 0.0
C167 C 0.19218 0.15603 0.67386 0.0
C168 C 0.19222 0.13227 0.60169 0.0
N169 N 0.19834 0.13565 0.74835 0.0
N170 N 0.19858 0.09669 0.63033 0.0
H171 H 0.20744 0.07535 0.76294 0.0
H172 H 0.18813 0.18638 0.67148 0.0
C173 C 0.22816 0.23908 0.83148 0.0
O174 O 0.20973 0.25225 0.89855 0.0
N175 N 0.20359 0.18095 0.98427 0.0
C176 C 0.17677 0.18308 0.04333 0.0
C177 C 0.18819 0.20364 0.11595 0.0
C178 C 0.23155 0.19885 0.0239 0.0
N179 N 0.22241 0.21403 0.10307 0.0
C180 C 0.12517 0.15448 0.87432 0.0
C181 C 0.1092 0.22416 0.80079 0.0
C182 C 0.08126 0.20067 0.83013 0.0
C183 C 0.08978 0.16539 0.86672 0.0
C184 C 0.14461 0.21205 0.80946 0.0
N185 N 0.15258 0.17788 0.84846 0.0
H186 H 0.12998 0.12682 0.90206 0.0
H187 H 0.16486 0.22998 0.78149 0.0
H188 H 0.15043 0.17111 0.03442 0.0
H189 H 0.25726 0.20293 0.99282 0.0
O190 O 0.18822 0.1106 0.92192 0.0
O191 O 0.24375 0.12816 0.89595 0.0
O192 O 0.226 0.20383 0.81036 0.0
C193 C 0.22177 0.10334 0.93018 0.0
H194 H 0.18785 0.14054 0.53315 0.0
H195 H 0.17231 0.21114 0.17309 0.0
H196 H 0.10382 0.25149 0.77054 0.0
H197 H 0.06909 0.14568 0.88761 0.0
Co198 Co 0.81583 0.15223 0.67898 0.0
C199 C 0.83306 0.09657 0.82258 0.0
C200 C 0.78735 0.13058 0.85214 0.0
C201 C 0.79285 0.10596 0.9215 0.0
N202 N 0.81266 0.12504 0.79046 0.0
N203 N 0.82142 0.08449 0.90297 0.0
H204 H 0.85556 0.08478 0.78772 0.0
H205 H 0.7656 0.15037 0.84633 0.0
C206 C 0.79458 0.23214 0.72729 0.0
O207 O 0.82023 0.24501 0.67598 0.0
N208 N 0.81721 0.17973 0.56632 0.0
C209 C 0.84358 0.184 0.50628 0.0
C210 C 0.83227 0.20809 0.43983 0.0
C211 C 0.78977 0.19986 0.53266 0.0
N212 N 0.79844 0.21826 0.45676 0.0
C213 C 0.89145 0.15898 0.67225 0.0
C214 C 0.90146 0.209 0.81163 0.0
C215 C 0.93099 0.19792 0.76127 0.0
C216 C 0.92561 0.17182 0.69249 0.0
C217 C 0.86727 0.19546 0.78841 0.0
N218 N 0.86236 0.17248 0.71577 0.0
H219 H 0.88878 0.1376 0.62145 0.0
H220 H 0.84509 0.20295 0.83003 0.0
H221 H 0.86954 0.1714 0.50936 0.0
H222 H 0.76428 0.20221 0.56541 0.0
O223 O 0.83253 0.10746 0.62048 0.0
O224 O 0.77557 0.12199 0.63176 0.0
O225 O 0.78938 0.19625 0.73566 0.0
C226 C 0.79978 0.09897 0.60157 0.0
H227 H 0.77613 0.10285 0.97956 0.0
H228 H 0.84854 0.21888 0.38612 0.0
H229 H 0.9048 0.22759 0.8685 0.0
H230 H 0.94787 0.16039 0.65588 0.0
Co231 Co 0.21232 0.90429 0.17468 0.0
C232 C 0.19872 0.95427 0.33269 0.0
C233 C 0.24682 0.92203 0.34357 0.0
C234 C 0.24474 0.94545 0.4162 0.0
N235 N 0.2178 0.92696 0.29172 0.0
N236 N 0.21454 0.96555 0.40956 0.0
H237 H 0.17513 0.96717 0.3045 0.0
H238 H 0.26932 0.90453 0.32667 0.0
C239 C 0.2274 0.82289 0.22493 0.0
O240 O 0.1989 0.81196 0.18029 0.0
N241 N 0.20963 0.88181 0.05528 0.0
C242 C 0.19494 0.89752 0.98149 0.0
C243 C 0.20421 0.8767 0.90783 0.0
C244 C 0.22895 0.85242 0.0236 0.0
N245 N 0.22531 0.84827 0.93493 0.0
C246 C 0.13807 0.88833 0.1492 0.0
C247 C 0.12451 0.85883 0.31594 0.0
C248 C 0.09621 0.86347 0.25573 0.0
C249 C 0.10339 0.87786 0.17128 0.0
C250 C 0.15929 0.86872 0.29009 0.0
N251 N 0.16576 0.88334 0.20726 0.0
H252 H 0.14201 0.90243 0.08679 0.0
H253 H 0.1808 0.86581 0.33766 0.0
H254 H 0.17992 0.9236 0.97975 0.0
H255 H 0.2476 0.83604 0.06243 0.0
O256 O 0.19545 0.95187 0.1296 0.0
O257 O 0.25241 0.93586 0.13346 0.0
O258 O 0.23767 0.85775 0.22344 0.0
C259 C 0.22828 0.9612 0.11396 0.0
H260 H 0.26516 0.94964 0.46653 0.0
H261 H 0.19718 0.88275 0.83937 0.0
H262 H 0.11965 0.84862 0.38278 0.0
H263 H 0.08195 0.88313 0.12437 0.0
C264 C 0.48959 0.36968 0.1729 0.0
C265 C 0.47569 0.34985 0.24621 0.0
C266 C 0.52653 0.37268 0.16002 0.0
C267 C 0.55079 0.35566 0.21954 0.0
H268 H 0.472 0.38546 0.1293 0.0
H269 H 0.53626 0.3901 0.10572 0.0
S270 S 0.52753 0.29655 0.41515 0.0
N271 N 0.48868 0.30982 0.37387 0.0
N272 N 0.55811 0.31525 0.34925 0.0
C273 C 0.5371 0.33317 0.28874 0.0
C274 C 0.49953 0.33036 0.30222 0.0
C275 C 0.53602 0.72781 0.73662 0.0
C276 C 0.54869 0.71771 0.82147 0.0
C277 C 0.49935 0.72867 0.71802 0.0
C278 C 0.47389 0.71894 0.78311 0.0
H279 H 0.55446 0.73244 0.68247 0.0
H280 H 0.49096 0.73481 0.65051 0.0
S281 S 0.4935 0.69758 1.02035 0.0
N282 N 0.533 0.7045 0.97514 0.0
N283 N 0.46431 0.70349 0.93912 0.0
C284 C 0.48623 0.71221 0.8703 0.0
C285 C 0.52355 0.71216 0.88959 0.0
C286 C 0.04326 0.88674 0.33658 0.0
C287 C 0.05862 0.85885 0.28287 0.0
C288 C 1.00643 0.8873 0.35094 0.0
C289 C 0.9834 0.85962 0.31313 0.0
H290 H 0.05966 0.90938 0.36435 0.0
H291 H 0.99587 0.91055 0.3896 0.0
S292 S 1.01156 0.77859 0.17254 0.0
N293 N 0.04893 0.80216 0.19391 0.0
N294 N 0.97969 0.80185 0.22417 0.0
C295 C 0.99883 0.8307 0.26162 0.0
C296 C 0.03641 0.83061 0.24584 0.0
C297 C 0.0185 0.20294 0.88592 0.0
C298 C 0.04305 0.21039 0.81725 0.0
C299 C 0.98164 0.20251 0.8696 0.0
C300 C 0.96807 0.20956 0.784 0.0
H301 H 0.02795 0.19505 0.95156 0.0
H302 H 0.96394 0.1937 0.92257 0.0
S303 S 0.02038 0.23694 0.58507 0.0
N304 N 0.05071 0.22939 0.66297 0.0
N305 N 0.98145 0.22966 0.6331 0.0
C306 C 0.99207 0.22074 0.71709 0.0
C307 C 0.02958 0.22096 0.7335 0.0
C308 C 0.34183 0.56557 0.06432 0.0
C309 C 0.33713 0.56319 0.97133 0.0
C310 C 0.34108 0.53289 0.1184 0.0
C311 C 0.3352 0.49665 0.08145 0.0
H312 H 0.34441 0.59316 0.09579 0.0
H313 H 0.3426 0.53626 0.18989 0.0
S314 S 0.32467 0.47429 0.84162 0.0
N315 N 0.32876 0.52109 0.84476 0.0
N316 N 0.32809 0.45985 0.9458 0.0
C317 C 0.33289 0.49364 0.98823 0.0
C318 C 0.33369 0.52683 0.93327 0.0
C319 C 0.73217 0.54455 0.42498 0.0
C320 C 0.71156 0.51124 0.43439 0.0
C321 C 0.72791 0.57545 0.48281 0.0
C322 C 0.70358 0.57365 0.55353 0.0
H323 H 0.75203 0.54637 0.37314 0.0
H324 H 0.74441 0.60057 0.47381 0.0
S325 S 0.64286 0.49301 0.60493 0.0
N326 N 0.66542 0.47848 0.51738 0.0
N327 N 0.65788 0.53628 0.62791 0.0
C328 C 0.68263 0.54059 0.56312 0.0
C329 C 0.68648 0.50944 0.50296 0.0
C330 C 0.75743 0.55232 1.00148 0.0
C331 C 0.73111 0.55974 0.93655 0.0
C332 C 0.75888 0.51656 0.04466 0.0
C333 C 0.73454 0.48732 0.02226 0.0
H334 H 0.77486 0.57507 0.02423 0.0
H335 H 0.77706 0.51288 0.10016 0.0
S336 S 0.66444 0.49047 0.84812 0.0
N337 N 0.68233 0.53348 0.84792 0.0
N338 N 0.68702 0.46646 0.92345 0.0
C339 C 0.71077 0.49342 0.95156 0.0
C340 C 0.70846 0.52964 0.9102 0.0
C341 C 0.2781 0.51358 0.491 0.0
C342 C 0.30693 0.48843 0.50099 0.0
C343 C 0.27776 0.54894 0.53638 0.0
C344 C 0.30626 0.55994 0.59268 0.0
H345 H 0.25682 0.50692 0.44446 0.0
H346 H 0.25623 0.56852 0.52344 0.0
S347 S 0.38515 0.50149 0.65086 0.0
N348 N 0.36224 0.47532 0.57953 0.0
N349 N 0.36195 0.54072 0.66229 0.0
C350 C 0.33378 0.53368 0.60713 0.0
C351 C 0.33402 0.49821 0.56196 0.0
C352 C 0.83302 0.0556 0.04917 0.0
C353 C 0.83299 0.05267 0.95583 0.0
C354 C 0.83585 1.02329 0.10331 0.0
C355 C 0.8385 0.98679 0.06622 0.0
H356 H 0.82878 0.08293 0.08038 0.0
H357 H 0.83308 1.02664 0.17424 0.0
S358 S 0.84408 0.9641 0.82587 0.0
N359 N 0.83919 1.01073 0.82872 0.0
N360 N 0.84488 0.94995 0.93068 0.0
C361 C 0.84123 0.98376 0.97315 0.0
C362 C 0.83848 1.01673 0.91789 0.0
C363 C 0.18579 1.02888 0.59648 0.0
C364 C 0.20239 0.06368 0.57444 0.0
C365 C 0.1884 0.99705 0.54009 0.0
C366 C 0.20766 0.99918 0.46034 0.0
H367 H 0.17057 1.02643 0.65718 0.0
H368 H 0.17593 0.97044 0.55946 0.0
S369 S 0.25886 0.08208 0.37697 0.0
N370 N 0.24048 0.09734 0.46972 0.0
N371 N 0.24552 0.03745 0.36538 0.0
C372 C 0.22479 0.03343 0.43858 0.0
C373 C 0.22207 0.06574 0.49517 0.0
C374 C 0.2523 0.04006 0.95106 0.0
C375 C 0.23269 0.07061 0.98569 0.0
C376 C 0.25402 1.00493 0.99696 0.0
C377 C 0.23606 0.99964 0.07819 0.0
H378 H 0.26401 0.04235 0.8856 0.0
H379 H 0.26699 0.9811 0.9655 0.0
S380 S 0.18499 0.07241 0.20072 0.0
N381 N 0.19838 0.09439 0.10968 0.0
N382 N 0.20104 1.02895 0.19421 0.0
C383 C 0.21869 1.03093 0.11562 0.0
C384 C 0.21715 0.0663 0.06976 0.0
C385 C 0.7706 0.03577 0.56411 0.0
C386 C 0.79263 0.06677 0.54042 0.0
C387 C 0.7721 1.00102 0.51678 0.0
C388 C 0.79588 0.99648 0.44532 0.0
H389 H 0.75425 0.03739 0.62307 0.0
H390 H 0.75678 0.97686 0.54055 0.0
S391 S 0.8553 0.07088 0.35099 0.0
N392 N 0.83544 0.09198 0.43492 0.0
N393 N 0.83906 1.0271 0.34888 0.0
C394 C 0.81592 1.02823 0.41794 0.0
C395 C 0.81407 0.06329 0.46475 0.0
C396 C 0.29787 0.25825 0.23428 0.0
C397 C 0.28318 0.29281 0.26374 0.0
C398 C 0.27812 0.23278 0.18082 0.0
C399 C 0.24276 0.24059 0.15636 0.0
H400 H 0.32507 0.25104 0.25135 0.0
H401 H 0.29035 0.2066 0.15928 0.0
S402 S 0.19188 0.32703 0.21395 0.0
N403 N 0.23097 0.33336 0.26293 0.0
N404 N 0.19411 0.28553 0.16308 0.0
C405 C 0.22774 0.2749 0.18518 0.0
C406 C 0.24787 0.30098 0.23867 0.0
C407 C 0.75193 0.80597 0.8 0.0
C408 C 0.7521 0.76689 0.77949 0.0
C409 C 0.76885 0.83278 0.74503 0.0
C410 C 0.7864 0.82169 0.66691 0.0
H411 H 0.73833 0.81613 0.85858 0.0
H412 H 0.76758 0.86256 0.76295 0.0
S413 S 0.79681 0.72298 0.58512 0.0
N414 N 0.77305 0.71845 0.67659 0.0
N415 N 0.80456 0.76901 0.57392 0.0
C416 C 0.78736 0.78278 0.64617 0.0
C417 C 0.77037 0.75537 0.70233 0.0
C418 C 0.23713 0.78234 0.88937 0.0
C419 C 0.24347 0.8215 0.87964 0.0
C420 C 0.25488 0.75581 0.8361 0.0
C421 C 0.28039 0.76748 0.77288 0.0
H422 H 0.21811 0.7723 0.93812 0.0
H423 H 0.24881 0.72596 0.84565 0.0
S424 S 0.30682 0.86769 0.72517 0.0
N425 N 0.27628 0.87111 0.80326 0.0
N426 N 0.31099 0.82174 0.70541 0.0
C427 C 0.28688 0.80691 0.76322 0.0
C428 C 0.26813 0.83379 0.81611 0.0
C429 C 0.73981 0.30351 0.42827 0.0
C430 C 0.74372 0.3128 0.33774 0.0
C431 C 0.75673 0.27194 0.46549 0.0
C432 C 0.7786 0.24833 0.41427 0.0
H433 H 0.7239 0.32105 0.47163 0.0
H434 H 0.75334 0.26664 0.53574 0.0
S435 S 0.79438 0.25726 0.17165 0.0
N436 N 0.76893 0.29385 0.19592 0.0
N437 N 0.8007 0.23436 0.26628 0.0
C438 C 0.78185 0.2564 0.32294 0.0
C439 C 0.76447 0.28864 0.28469 0.0
C440 C 0.78527 0.73031 0.17509 0.0
C441 C 0.74874 0.73511 0.15796 0.0
C442 C 0.80451 0.75645 0.22819 0.0
C443 C 0.7881 0.78886 0.26454 0.0
H444 H 0.79892 0.70596 0.14793 0.0
H445 H 0.83265 0.75157 0.23929 0.0
S446 S 0.69305 0.81496 0.23598 0.0
N447 N 0.69699 0.7749 0.17979 0.0
N448 N 0.73292 0.82413 0.27817 0.0
C449 C 0.75157 0.79403 0.24696 0.0
C450 C 0.73196 0.76716 0.19411 0.0
C451 C 0.2566 0.256 0.68538 0.0
C452 C 0.24857 0.26591 0.77387 0.0
C453 C 0.2755 0.28101 0.62947 0.0
C454 C 0.28771 0.31658 0.66029 0.0
H455 H 0.24804 0.22879 0.65869 0.0
H456 H 0.28132 0.27217 0.56217 0.0
S457 S 0.27325 0.35679 0.88517 0.0
N458 N 0.25395 0.31442 0.88871 0.0
N459 N 0.28954 0.36104 0.78385 0.0
C460 C 0.27973 0.32699 0.74821 0.0
C461 C 0.26014 0.30179 0.80484 0.0
C462 C 0.76094 0.24868 0.86568 0.0
C463 C 0.77351 0.25929 0.78097 0.0
C464 C 0.74223 0.27444 0.91912 0.0
C465 C 0.73449 0.31125 0.88862 0.0
H466 H 0.76632 0.2206 0.89184 0.0
H467 H 0.73348 0.26553 0.98445 0.0
S468 S 0.76114 0.35335 0.67307 0.0
N469 N 0.77739 0.30984 0.67068 0.0
N470 N 0.74067 0.35726 0.76956 0.0
C471 C 0.74643 0.32212 0.80411 0.0
C472 C 0.76636 0.2964 0.75073 0.0
C473 C 0.25357 0.75809 0.24868 0.0
C474 C 0.24667 0.79489 0.28074 0.0
C475 C 0.27136 0.73114 0.30173 0.0
C476 C 0.28196 0.73969 0.38955 0.0
H477 H 0.24551 0.75023 0.18182 0.0
H478 H 0.27642 0.70323 0.27442 0.0
S479 S 0.26866 0.83146 0.50579 0.0
N480 N 0.25087 0.83796 0.40641 0.0
N481 N 0.28405 0.78761 0.50584 0.0
C482 C 0.27476 0.77623 0.4225 0.0
C483 C 0.2572 0.80374 0.36816 0.0
loop_
_geom_bond_atom_site_label_1
_geom_bond_atom_site_label_2
_geom_bond_distance
_geom_bond_site_symmetry_2
_ccdc_geom_bond_type
Co0 N4 2.148 . S
Co0 N10 2.128 . S
Co0 N20 2.194 . S
Co0 O25 2.351 . S
Co0 O26 2.155 . S
Co0 O27 2.096 . S
C1 N4 1.301 . S
C1 N5 1.328 . S
C1 H6 0.930 . S
C2 C3 1.333 . S
C2 N4 1.317 . S
C2 H7 0.930 . S
C3 C2 1.333 . S
C3 N5 1.350 . S
C3 H29 0.931 . S
N4 Co0 2.148 . S
N4 C1 1.301 . S
N4 C2 1.317 . S
N5 C1 1.328 . S
N5 C3 1.350 . S
H6 C1 0.930 . S
H7 C2 0.930 . S
C8 O9 1.224 . S
C8 O27 1.247 . S
O9 C8 1.224 . S
N10 Co0 2.128 . S
N10 C11 1.355 . S
N10 C13 1.311 . S
C11 N10 1.355 . S
C11 C12 1.363 . S
C11 H23 0.929 . S
C12 C11 1.363 . S
C12 N14 1.375 . S
C12 H30 0.931 . S
C13 N10 1.311 . S
C13 N14 1.347 . S
C13 H24 0.929 . S
N14 C12 1.375 . S
N14 C13 1.347 . S
C15 C18 1.365 . S
C15 N20 1.328 . S
C15 H21 0.929 . S
C16 C17 1.362 . S
C16 C19 1.378 . S
C16 H31 0.929 . S
C17 C16 1.362 . S
C17 C18 1.366 . S
C18 C15 1.365 . S
C18 C17 1.366 . S
C18 H32 0.930 . S
C19 C16 1.378 . S
C19 N20 1.315 . S
C19 H22 0.930 . S
N20 Co0 2.194 . S
N20 C15 1.328 . S
N20 C19 1.315 . S
H21 C15 0.929 . S
H22 C19 0.930 . S
H23 C11 0.929 . S
H24 C13 0.929 . S
O25 Co0 2.351 . S
O25 C28 1.244 . S
O26 Co0 2.155 . S
O26 C28 1.240 . S
O27 Co0 2.096 . S
O27 C8 1.247 . S
C28 O25 1.244 . S
C28 O26 1.240 . S
H29 C3 0.931 . S
H30 C12 0.931 . S
H31 C16 0.929 . S
H32 C18 0.930 . S
Co33 N37 2.148 . S
Co33 N43 2.128 . S
Co33 N53 2.194 . S
Co33 O58 2.351 . S
Co33 O59 2.155 . S
Co33 O60 2.096 . S
C34 N37 1.301 . S
C34 N38 1.328 . S
C34 H39 0.930 . S
C35 C36 1.333 . S
C35 N37 1.317 . S
C35 H40 0.930 . S
C36 C35 1.333 . S
C36 N38 1.350 . S
C36 H62 0.931 . S
N37 Co33 2.148 . S
N37 C34 1.301 . S
N37 C35 1.317 . S
N38 C34 1.328 . S
N38 C36 1.350 . S
H39 C34 0.930 . S
H40 C35 0.930 . S
C41 O42 1.224 . S
C41 O60 1.247 . S
O42 C41 1.224 . S
N43 Co33 2.128 . S
N43 C44 1.355 . S
N43 C46 1.311 . S
C44 N43 1.355 . S
C44 C45 1.363 1_556 S
C44 H56 0.929 . S
C45 C44 1.363 1_554 S
C45 N47 1.375 1_554 S
C45 H63 0.931 . S
C46 N43 1.311 . S
C46 N47 1.347 . S
C46 H57 0.929 . S
N47 C45 1.375 1_556 S
N47 C46 1.347 . S
C48 C51 1.365 . S
C48 N53 1.328 . S
C48 H54 0.929 . S
C49 C50 1.362 . S
C49 C52 1.378 . S
C49 H64 0.929 . S
C50 C49 1.362 . S
C50 C51 1.366 . S
C51 C48 1.365 . S
C51 C50 1.366 . S
C51 H65 0.930 . S
C52 C49 1.378 . S
C52 N53 1.315 . S
C52 H55 0.930 . S
N53 Co33 2.194 . S
N53 C48 1.328 . S
N53 C52 1.315 . S
H54 C48 0.929 . S
H55 C52 0.930 . S
H56 C44 0.929 . S
H57 C46 0.929 . S
O58 Co33 2.351 . S
O58 C61 1.244 . S
O59 Co33 2.155 . S
O59 C61 1.240 . S
O60 Co33 2.096 . S
O60 C41 1.247 . S
C61 O58 1.244 . S
C61 O59 1.240 . S
H62 C36 0.931 . S
H63 C45 0.931 . S
H64 C49 0.929 . S
H65 C51 0.930 . S
Co66 N70 2.148 . S
Co66 N76 2.128 . S
Co66 N86 2.194 . S
Co66 O91 2.351 . S
Co66 O92 2.155 . S
Co66 O93 2.096 . S
C67 N70 1.301 . S
C67 N71 1.328 . S
C67 H72 0.930 . S
C68 C69 1.333 . S
C68 N70 1.317 . S
C68 H73 0.930 . S
C69 C68 1.333 . S
C69 N71 1.350 . S
C69 H95 0.931 . S
N70 Co66 2.148 . S
N70 C67 1.301 . S
N70 C68 1.317 . S
N71 C67 1.328 . S
N71 C69 1.350 . S
H72 C67 0.930 . S
H73 C68 0.930 . S
C74 O75 1.224 . S
C74 O93 1.247 . S
O75 C74 1.224 . S
N76 Co66 2.128 . S
N76 C77 1.355 . S
N76 C79 1.311 . S
C77 N76 1.355 . S
C77 C78 1.363 . S
C77 H89 0.929 . S
C78 C77 1.363 . S
C78 N80 1.375 . S
C78 H96 0.931 . S
C79 N76 1.311 . S
C79 N80 1.347 . S
C79 H90 0.929 . S
N80 C78 1.375 . S
N80 C79 1.347 . S
C81 C84 1.365 . S
C81 N86 1.328 . S
C81 H87 0.929 . S
C82 C83 1.362 . S
C82 C85 1.378 . S
C82 H97 0.929 . S
C83 C82 1.362 . S
C83 C84 1.366 . S
C84 C81 1.365 . S
C84 C83 1.366 . S
C84 H98 0.930 . S
C85 C82 1.378 . S
C85 N86 1.315 . S
C85 H88 0.930 . S
N86 Co66 2.194 . S
N86 C81 1.328 . S
N86 C85 1.315 . S
H87 C81 0.929 . S
H88 C85 0.930 . S
H89 C77 0.929 . S
H90 C79 0.929 . S
O91 Co66 2.351 . S
O91 C94 1.244 . S
O92 Co66 2.155 . S
O92 C94 1.240 . S
O93 Co66 2.096 . S
O93 C74 1.247 . S
C94 O91 1.244 . S
C94 O92 1.240 . S
H95 C69 0.931 . S
H96 C78 0.931 . S
H97 C82 0.929 . S
H98 C84 0.930 . S
Co99 N103 2.148 . S
Co99 N109 2.128 . S
Co99 N119 2.194 . S
Co99 O124 2.351 . S
Co99 O125 2.155 . S
Co99 O126 2.096 . S
C100 N103 1.301 . S
C100 N104 1.328 . S
C100 H105 0.930 . S
C101 C102 1.333 . S
C101 N103 1.317 . S
C101 H106 0.930 . S
C102 C101 1.333 . S
C102 N104 1.350 . S
C102 H128 0.931 . S
N103 Co99 2.148 . S
N103 C100 1.301 . S
N103 C101 1.317 . S
N104 C100 1.328 . S
N104 C102 1.350 . S
H105 C100 0.930 . S
H106 C101 0.930 . S
C107 O108 1.224 . S
C107 O126 1.247 . S
O108 C107 1.224 . S
N109 Co99 2.128 . S
N109 C110 1.355 . S
N109 C112 1.311 . S
C110 N109 1.355 . S
C110 C111 1.363 1_554 S
C110 H122 0.929 . S
C111 C110 1.363 1_556 S
C111 N113 1.375 1_556 S
C111 H129 0.931 . S
C112 N109 1.311 . S
C112 N113 1.347 . S
C112 H123 0.929 . S
N113 C111 1.375 1_554 S
N113 C112 1.347 . S
C114 C117 1.365 . S
C114 N119 1.328 . S
C114 H120 0.929 . S
C115 C116 1.362 . S
C115 C118 1.378 . S
C115 H130 0.929 . S
C116 C115 1.362 . S
C116 C117 1.366 . S
C117 C114 1.365 . S
C117 C116 1.366 . S
C117 H131 0.930 . S
C118 C115 1.378 . S
C118 N119 1.315 . S
C118 H121 0.930 . S
N119 Co99 2.194 . S
N119 C114 1.328 . S
N119 C118 1.315 . S
H120 C114 0.929 . S
H121 C118 0.930 . S
H122 C110 0.929 . S
H123 C112 0.929 . S
O124 Co99 2.351 . S
O124 C127 1.244 . S
O125 Co99 2.155 . S
O125 C127 1.240 . S
O126 Co99 2.096 . S
O126 C107 1.247 . S
C127 O124 1.244 . S
C127 O125 1.240 . S
H128 C102 0.931 . S
H129 C111 0.931 . S
H130 C115 0.929 . S
H131 C117 0.930 . S
Co132 N136 2.148 . S
Co132 N142 2.128 . S
Co132 N152 2.194 . S
Co132 O157 2.351 . S
Co132 O158 2.155 . S
Co132 O159 2.096 . S
C133 N136 1.301 . S
C133 N137 1.328 . S
C133 H138 0.930 . S
C134 C135 1.333 . S
C134 N136 1.317 . S
C134 H139 0.930 . S
C135 C134 1.333 . S
C135 N137 1.350 . S
C135 H161 0.931 . S
N136 Co132 2.148 . S
N136 C133 1.301 . S
N136 C134 1.317 . S
N137 C133 1.328 . S
N137 C135 1.350 . S
H138 C133 0.930 . S
H139 C134 0.930 . S
C140 O141 1.224 . S
C140 O159 1.247 . S
O141 C140 1.224 . S
N142 Co132 2.128 . S
N142 C143 1.355 . S
N142 C145 1.311 . S
C143 N142 1.355 . S
C143 C144 1.363 . S
C143 H155 0.929 . S
C144 C143 1.363 . S
C144 N146 1.375 . S
C144 H162 0.931 . S
C145 N142 1.311 . S
C145 N146 1.347 . S
C145 H156 0.929 . S
N146 C144 1.375 . S
N146 C145 1.347 . S
C147 C150 1.365 . S
C147 N152 1.328 . S
C147 H153 0.929 . S
C148 C149 1.362 . S
C148 C151 1.378 . S
C148 H163 0.929 . S
C149 C148 1.362 . S
C149 C150 1.366 . S
C150 C147 1.365 . S
C150 C149 1.366 . S
C150 H164 0.930 . S
C151 C148 1.378 . S
C151 N152 1.315 . S
C151 H154 0.930 . S
N152 Co132 2.194 . S
N152 C147 1.328 . S
N152 C151 1.315 . S
H153 C147 0.929 . S
H154 C151 0.930 . S
H155 C143 0.929 . S
H156 C145 0.929 . S
O157 Co132 2.351 . S
O157 C160 1.244 . S
O158 Co132 2.155 . S
O158 C160 1.240 . S
O159 Co132 2.096 . S
O159 C140 1.247 . S
C160 O157 1.244 . S
C160 O158 1.240 . S
H161 C135 0.931 . S
H162 C144 0.931 . S
H163 C148 0.929 . S
H164 C150 0.930 . S
Co165 N169 2.148 . S
Co165 N175 2.128 . S
Co165 N185 2.194 . S
Co165 O190 2.351 . S
Co165 O191 2.155 . S
Co165 O192 2.096 . S
C166 N169 1.301 . S
C166 N170 1.328 . S
C166 H171 0.930 . S
C167 C168 1.333 . S
C167 N169 1.317 . S
C167 H172 0.930 . S
C168 C167 1.333 . S
C168 N170 1.350 . S
C168 H194 0.931 . S
N169 Co165 2.148 . S
N169 C166 1.301 . S
N169 C167 1.317 . S
N170 C166 1.328 . S
N170 C168 1.350 . S
H171 C166 0.930 . S
H172 C167 0.930 . S
C173 O174 1.224 . S
C173 O192 1.247 . S
O174 C173 1.224 . S
N175 Co165 2.128 . S
N175 C176 1.355 . S
N175 C178 1.311 . S
C176 N175 1.355 . S
C176 C177 1.363 1_556 S
C176 H188 0.929 . S
C177 C176 1.363 1_554 S
C177 N179 1.375 1_554 S
C177 H195 0.931 . S
C178 N175 1.311 . S
C178 N179 1.347 . S
C178 H189 0.929 . S
N179 C177 1.375 1_556 S
N179 C178 1.347 . S
C180 C183 1.365 . S
C180 N185 1.328 . S
C180 H186 0.929 . S
C181 C182 1.362 . S
C181 C184 1.378 . S
C181 H196 0.929 . S
C182 C181 1.362 . S
C182 C183 1.366 . S
C183 C180 1.365 . S
C183 C182 1.366 . S
C183 H197 0.930 . S
C184 C181 1.378 . S
C184 N185 1.315 . S
C184 H187 0.930 . S
N185 Co165 2.194 . S
N185 C180 1.328 . S
N185 C184 1.315 . S
H186 C180 0.929 . S
H187 C184 0.930 . S
H188 C176 0.929 . S
H189 C178 0.929 . S
O190 Co165 2.351 . S
O190 C193 1.244 . S
O191 Co165 2.155 . S
O191 C193 1.240 . S
O192 Co165 2.096 . S
O192 C173 1.247 . S
C193 O190 1.244 . S
C193 O191 1.240 . S
H194 C168 0.931 . S
H195 C177 0.931 . S
H196 C181 0.929 . S
H197 C183 0.930 . S
Co198 N202 2.148 . S
Co198 N208 2.128 . S
Co198 N218 2.194 . S
Co198 O223 2.351 . S
Co198 O224 2.155 . S
Co198 O225 2.096 . S
C199 N202 1.301 . S
C199 N203 1.328 . S
C199 H204 0.930 . S
C200 C201 1.333 . S
C200 N202 1.317 . S
C200 H205 0.930 . S
C201 C200 1.333 . S
C201 N203 1.350 . S
C201 H227 0.931 . S
N202 Co198 2.148 . S
N202 C199 1.301 . S
N202 C200 1.317 . S
N203 C199 1.328 . S
N203 C201 1.350 . S
H204 C199 0.930 . S
H205 C200 0.930 . S
C206 O207 1.224 . S
C206 O225 1.247 . S
O207 C206 1.224 . S
N208 Co198 2.128 . S
N208 C209 1.355 . S
N208 C211 1.311 . S
C209 N208 1.355 . S
C209 C210 1.363 . S
C209 H221 0.929 . S
C210 C209 1.363 . S
C210 N212 1.375 . S
C210 H228 0.931 . S
C211 N208 1.311 . S
C211 N212 1.347 . S
C211 H222 0.929 . S
N212 C210 1.375 . S
N212 C211 1.347 . S
C213 C216 1.365 . S
C213 N218 1.328 . S
C213 H219 0.929 . S
C214 C215 1.362 . S
C214 C217 1.378 . S
C214 H229 0.929 . S
C215 C214 1.362 . S
C215 C216 1.366 . S
C216 C213 1.365 . S
C216 C215 1.366 . S
C216 H230 0.930 . S
C217 C214 1.378 . S
C217 N218 1.315 . S
C217 H220 0.930 . S
N218 Co198 2.194 . S
N218 C213 1.328 . S
N218 C217 1.315 . S
H219 C213 0.929 . S
H220 C217 0.930 . S
H221 C209 0.929 . S
H222 C211 0.929 . S
O223 Co198 2.351 . S
O223 C226 1.244 . S
O224 Co198 2.155 . S
O224 C226 1.240 . S
O225 Co198 2.096 . S
O225 C206 1.247 . S
C226 O223 1.244 . S
C226 O224 1.240 . S
H227 C201 0.931 . S
H228 C210 0.931 . S
H229 C214 0.929 . S
H230 C216 0.930 . S
Co231 N235 2.148 . S
Co231 N241 2.128 . S
Co231 N251 2.194 . S
Co231 O256 2.351 . S
Co231 O257 2.155 . S
Co231 O258 2.096 . S
C232 N235 1.301 . S
C232 N236 1.328 . S
C232 H237 0.930 . S
C233 C234 1.333 . S
C233 N235 1.317 . S
C233 H238 0.930 . S
C234 C233 1.333 . S
C234 N236 1.350 . S
C234 H260 0.931 . S
N235 Co231 2.148 . S
N235 C232 1.301 . S
N235 C233 1.317 . S
N236 C232 1.328 . S
N236 C234 1.350 . S
H237 C232 0.930 . S
H238 C233 0.930 . S
C239 O240 1.224 . S
C239 O258 1.247 . S
O240 C239 1.224 . S
N241 Co231 2.128 . S
N241 C242 1.355 . S
N241 C244 1.311 . S
C242 N241 1.355 . S
C242 C243 1.363 1_554 S
C242 H254 0.929 . S
C243 C242 1.363 1_556 S
C243 N245 1.375 1_556 S
C243 H261 0.931 . S
C244 N241 1.311 . S
C244 N245 1.347 . S
C244 H255 0.929 . S
N245 C243 1.375 1_554 S
N245 C244 1.347 . S
C246 C249 1.365 . S
C246 N251 1.328 . S
C246 H252 0.929 . S
C247 C248 1.362 . S
C247 C250 1.378 . S
C247 H262 0.929 . S
C248 C247 1.362 . S
C248 C249 1.366 . S
C249 C246 1.365 . S
C249 C248 1.366 . S
C249 H263 0.930 . S
C250 C247 1.378 . S
C250 N251 1.315 . S
C250 H253 0.930 . S
N251 Co231 2.194 . S
N251 C246 1.328 . S
N251 C250 1.315 . S
H252 C246 0.929 . S
H253 C250 0.930 . S
H254 C242 0.929 . S
H255 C244 0.929 . S
O256 Co231 2.351 . S
O256 C259 1.244 . S
O257 Co231 2.155 . S
O257 C259 1.240 . S
O258 Co231 2.096 . S
O258 C239 1.247 . S
C259 O256 1.244 . S
C259 O257 1.240 . S
H260 C234 0.931 . S
H261 C243 0.931 . S
H262 C247 0.929 . S
H263 C249 0.930 . S
C264 C265 1.369 . S
C264 C266 1.419 . S
C264 H268 0.930 . S
C265 C264 1.369 . S
C265 C274 1.429 . S
C266 C264 1.419 . S
C266 C267 1.363 . S
C266 H269 0.929 . S
C267 C266 1.363 . S
C267 C273 1.428 . S
H268 C264 0.930 . S
H269 C266 0.929 . S
S270 N271 1.613 . S
S270 N272 1.610 . S
N271 S270 1.613 . S
N271 C274 1.350 . S
N272 S270 1.610 . S
N272 C273 1.351 . S
C273 C267 1.428 . S
C273 N272 1.351 . S
C273 C274 1.434 . S
C274 C265 1.429 . S
C274 N271 1.350 . S
C274 C273 1.434 . S
C275 C276 1.369 . S
C275 C277 1.419 . S
C275 H279 0.930 . S
C276 C275 1.369 . S
C276 C285 1.429 . S
C277 C275 1.419 . S
C277 C278 1.363 . S
C277 H280 0.929 . S
C278 C277 1.363 . S
C278 C284 1.428 . S
H279 C275 0.930 . S
H280 C277 0.929 . S
S281 N282 1.613 . S
S281 N283 1.610 . S
N282 S281 1.613 . S
N282 C285 1.350 . S
N283 S281 1.610 . S
N283 C284 1.351 . S
C284 C278 1.428 . S
C284 N283 1.351 . S
C284 C285 1.434 . S
C285 C276 1.429 . S
C285 N282 1.350 . S
C285 C284 1.434 . S
C286 C287 1.369 . S
C286 C288 1.419 1_455 S
C286 H290 0.930 . S
C287 C286 1.369 . S
C287 C296 1.429 . S
C288 C286 1.419 1_655 S
C288 C289 1.363 . S
C288 H291 0.929 . S
C289 C288 1.363 . S
C289 C295 1.428 . S
H290 C286 0.930 . S
H291 C288 0.929 . S
S292 N293 1.613 . S
S292 N294 1.610 1_455 S
N293 S292 1.613 . S
N293 C296 1.350 . S
N294 S292 1.610 1_655 S
N294 C295 1.351 . S
C295 C289 1.428 . S
C295 N294 1.351 . S
C295 C296 1.434 1_655 S
C296 C287 1.429 . S
C296 N293 1.350 . S
C296 C295 1.434 1_455 S
C297 C298 1.369 . S
C297 C299 1.419 1_455 S
C297 H301 0.930 . S
C298 C297 1.369 . S
C298 C307 1.429 . S
C299 C297 1.419 1_655 S
C299 C300 1.363 . S
C299 H302 0.929 . S
C300 C299 1.363 . S
C300 C306 1.428 . S
H301 C297 0.930 . S
H302 C299 0.929 . S
S303 N304 1.613 . S
S303 N305 1.610 1_455 S
N304 S303 1.613 . S
N304 C307 1.350 . S
N305 S303 1.610 1_655 S
N305 C306 1.351 . S
C306 C300 1.428 . S
C306 N305 1.351 . S
C306 C307 1.434 1_655 S
C307 C298 1.429 . S
C307 N304 1.350 . S
C307 C306 1.434 1_455 S
C308 C309 1.369 1_554 S
C308 C310 1.419 . S
C308 H312 0.930 . S
C309 C308 1.369 1_556 S
C309 C318 1.429 . S
C310 C308 1.419 . S
C310 C311 1.363 . S
C310 H313 0.929 . S
C311 C310 1.363 . S
C311 C317 1.428 1_554 S
H312 C308 0.930 . S
H313 C310 0.929 . S
S314 N315 1.613 . S
S314 N316 1.610 . S
N315 S314 1.613 . S
N315 C318 1.350 . S
N316 S314 1.610 . S
N316 C317 1.351 . S
C317 C311 1.428 1_556 S
C317 N316 1.351 . S
C317 C318 1.434 . S
C318 C309 1.429 . S
C318 N315 1.350 . S
C318 C317 1.434 . S
C319 C320 1.369 . S
C319 C321 1.419 . S
C319 H323 0.930 . S
C320 C319 1.369 . S
C320 C329 1.429 . S
C321 C319 1.419 . S
C321 C322 1.363 . S
C321 H324 0.929 . S
C322 C321 1.363 . S
C322 C328 1.428 . S
H323 C319 0.930 . S
H324 C321 0.929 . S
S325 N326 1.613 . S
S325 N327 1.610 . S
N326 S325 1.613 . S
N326 C329 1.350 . S
N327 S325 1.610 . S
N327 C328 1.351 . S
C328 C322 1.428 . S
C328 N327 1.351 . S
C328 C329 1.434 . S
C329 C320 1.429 . S
C329 N326 1.350 . S
C329 C328 1.434 . S
C330 C331 1.369 1_554 S
C330 C332 1.419 . S
C330 H334 0.930 . S
C331 C330 1.369 1_556 S
C331 C340 1.429 . S
C332 C330 1.419 . S
C332 C333 1.363 . S
C332 H335 0.929 . S
C333 C332 1.363 . S
C333 C339 1.428 1_554 S
H334 C330 0.930 . S
H335 C332 0.929 . S
S336 N337 1.613 . S
S336 N338 1.610 . S
N337 S336 1.613 . S
N337 C340 1.350 . S
N338 S336 1.610 . S
N338 C339 1.351 . S
C339 C333 1.428 1_556 S
C339 N338 1.351 . S
C339 C340 1.434 . S
C340 C331 1.429 . S
C340 N337 1.350 . S
C340 C339 1.434 . S
C341 C342 1.369 . S
C341 C343 1.419 . S
C341 H345 0.930 . S
C342 C341 1.369 . S
C342 C351 1.429 . S
C343 C341 1.419 . S
C343 C344 1.363 . S
C343 H346 0.929 . S
C344 C343 1.363 . S
C344 C350 1.428 . S
H345 C341 0.930 . S
H346 C343 0.929 . S
S347 N348 1.613 . S
S347 N349 1.610 . S
N348 S347 1.613 . S
N348 C351 1.350 . S
N349 S347 1.610 . S
N349 C350 1.351 . S
C350 C344 1.428 . S
C350 N349 1.351 . S
C350 C351 1.434 . S
C351 C342 1.429 . S
C351 N348 1.350 . S
C351 C350 1.434 . S
C352 C353 1.369 1_554 S
C352 C354 1.419 . S
C352 H356 0.930 . S
C353 C352 1.369 1_556 S
C353 C362 1.429 1_545 S
C354 C352 1.419 . S
C354 C355 1.363 1_545 S
C354 H357 0.929 . S
C355 C354 1.363 1_565 S
C355 C361 1.428 1_554 S
H356 C352 0.930 . S
H357 C354 0.929 . S
S358 N359 1.613 . S
S358 N360 1.610 . S
N359 S358 1.613 . S
N359 C362 1.350 . S
N360 S358 1.610 . S
N360 C361 1.351 . S
C361 C355 1.428 1_556 S
C361 N360 1.351 . S
C361 C362 1.434 . S
C362 C353 1.429 1_565 S
C362 N359 1.350 . S
C362 C361 1.434 . S
C363 C364 1.369 1_565 S
C363 C365 1.419 . S
C363 H367 0.930 . S
C364 C363 1.369 1_545 S
C364 C373 1.429 . S
C365 C363 1.419 . S
C365 C366 1.363 . S
C365 H368 0.929 . S
C366 C365 1.363 . S
C366 C372 1.428 1_565 S
H367 C363 0.930 . S
H368 C365 0.929 . S
S369 N370 1.613 . S
S369 N371 1.610 . S
N370 S369 1.613 . S
N370 C373 1.350 . S
N371 S369 1.610 . S
N371 C372 1.351 . S
C372 C366 1.428 1_545 S
C372 N371 1.351 . S
C372 C373 1.434 . S
C373 C364 1.429 . S
C373 N370 1.350 . S
C373 C372 1.434 . S
C374 C375 1.369 . S
C374 C376 1.419 1_546 S
C374 H378 0.930 . S
C375 C374 1.369 . S
C375 C384 1.429 . S
C376 C374 1.419 1_564 S
C376 C377 1.363 . S
C376 H379 0.929 . S
C377 C376 1.363 . S
C377 C383 1.428 . S
H378 C374 0.930 . S
H379 C376 0.929 . S
S380 N381 1.613 1_554 S
S380 N382 1.610 1_545 S
N381 S380 1.613 1_556 S
N381 C384 1.350 . S
N382 S380 1.610 1_565 S
N382 C383 1.351 . S
C383 C377 1.428 . S
C383 N382 1.351 . S
C383 C384 1.434 1_564 S
C384 C375 1.429 . S
C384 N381 1.350 . S
C384 C383 1.434 1_546 S
C385 C386 1.369 . S
C385 C387 1.419 1_545 S
C385 H389 0.930 . S
C386 C385 1.369 . S
C386 C395 1.429 . S
C387 C385 1.419 1_565 S
C387 C388 1.363 . S
C387 H390 0.929 . S
C388 C387 1.363 . S
C388 C394 1.428 . S
H389 C385 0.930 . S
H390 C387 0.929 . S
S391 N392 1.613 . S
S391 N393 1.610 1_545 S
N392 S391 1.613 . S
N392 C395 1.350 . S
N393 S391 1.610 1_565 S
N393 C394 1.351 . S
C394 C388 1.428 . S
C394 N393 1.351 . S
C394 C395 1.434 1_565 S
C395 C386 1.429 . S
C395 N392 1.350 . S
C395 C394 1.434 1_545 S
C396 C397 1.369 . S
C396 C398 1.419 . S
C396 H400 0.930 . S
C397 C396 1.369 . S
C397 C406 1.429 . S
C398 C396 1.419 . S
C398 C399 1.363 . S
C398 H401 0.929 . S
C399 C398 1.363 . S
C399 C405 1.428 . S
H400 C396 0.930 . S
H401 C398 0.929 . S
S402 N403 1.613 1_556 S
S402 N404 1.610 . S
N403 S402 1.613 1_554 S
N403 C406 1.350 . S
N404 S402 1.610 . S
N404 C405 1.351 1_556 S
C405 C399 1.428 . S
C405 N404 1.351 1_554 S
C405 C406 1.434 . S
C406 C397 1.429 . S
C406 N403 1.350 . S
C406 C405 1.434 . S
C407 C408 1.369 . S
C407 C409 1.419 . S
C407 H411 0.930 . S
C408 C407 1.369 . S
C408 C417 1.429 . S
C409 C407 1.419 . S
C409 C410 1.363 . S
C409 H412 0.929 . S
C410 C409 1.363 . S
C410 C416 1.428 . S
H411 C407 0.930 . S
H412 C409 0.929 . S
S413 N414 1.613 . S
S413 N415 1.610 . S
N414 S413 1.613 . S
N414 C417 1.350 . S
N415 S413 1.610 . S
N415 C416 1.351 . S
C416 C410 1.428 . S
C416 N415 1.351 . S
C416 C417 1.434 . S
C417 C408 1.429 . S
C417 N414 1.350 . S
C417 C416 1.434 . S
C418 C419 1.369 . S
C418 C420 1.419 . S
C418 H422 0.930 1_556 S
C419 C418 1.369 . S
C419 C428 1.429 . S
C420 C418 1.419 . S
C420 C421 1.363 . S
C420 H423 0.929 . S
C421 C420 1.363 . S
C421 C427 1.428 . S
H422 C418 0.930 1_554 S
H423 C420 0.929 . S
S424 N425 1.613 . S
S424 N426 1.610 . S
N425 S424 1.613 . S
N425 C428 1.350 . S
N426 S424 1.610 . S
N426 C427 1.351 . S
C427 C421 1.428 . S
C427 N426 1.351 . S
C427 C428 1.434 . S
C428 C419 1.429 . S
C428 N425 1.350 . S
C428 C427 1.434 . S
C429 C430 1.369 . S
C429 C431 1.419 . S
C429 H433 0.930 . S
C430 C429 1.369 . S
C430 C439 1.429 . S
C431 C429 1.419 . S
C431 C432 1.363 . S
C431 H434 0.929 . S
C432 C431 1.363 . S
C432 C438 1.428 . S
H433 C429 0.930 . S
H434 C431 0.929 . S
S435 N436 1.613 . S
S435 N437 1.610 . S
N436 S435 1.613 . S
N436 C439 1.350 . S
N437 S435 1.610 . S
N437 C438 1.351 . S
C438 C432 1.428 . S
C438 N437 1.351 . S
C438 C439 1.434 . S
C439 C430 1.429 . S
C439 N436 1.350 . S
C439 C438 1.434 . S
C440 C441 1.369 . S
C440 C442 1.419 . S
C440 H444 0.930 . S
C441 C440 1.369 . S
C441 C450 1.429 . S
C442 C440 1.419 . S
C442 C443 1.363 . S
C442 H445 0.929 . S
C443 C442 1.363 . S
C443 C449 1.428 . S
H444 C440 0.930 . S
H445 C442 0.929 . S
S446 N447 1.613 . S
S446 N448 1.610 . S
N447 S446 1.613 . S
N447 C450 1.350 . S
N448 S446 1.610 . S
N448 C449 1.351 . S
C449 C443 1.428 . S
C449 N448 1.351 . S
C449 C450 1.434 . S
C450 C441 1.429 . S
C450 N447 1.350 . S
C450 C449 1.434 . S
C451 C452 1.369 . S
C451 C453 1.419 . S
C451 H455 0.930 . S
C452 C451 1.369 . S
C452 C461 1.429 . S
C453 C451 1.419 . S
C453 C454 1.363 . S
C453 H456 0.929 . S
C454 C453 1.363 . S
C454 C460 1.428 . S
H455 C451 0.930 . S
H456 C453 0.929 . S
S457 N458 1.613 . S
S457 N459 1.610 . S
N458 S457 1.613 . S
N458 C461 1.350 . S
N459 S457 1.610 . S
N459 C460 1.351 . S
C460 C454 1.428 . S
C460 N459 1.351 . S
C460 C461 1.434 . S
C461 C452 1.429 . S
C461 N458 1.350 . S
C461 C460 1.434 . S
C462 C463 1.369 . S
C462 C464 1.419 . S
C462 H466 0.930 . S
C463 C462 1.369 . S
C463 C472 1.429 . S
C464 C462 1.419 . S
C464 C465 1.363 . S
C464 H467 0.929 1_556 S
C465 C464 1.363 . S
C465 C471 1.428 . S
H466 C462 0.930 . S
H467 C464 0.929 1_554 S
S468 N469 1.613 . S
S468 N470 1.610 . S
N469 S468 1.613 . S
N469 C472 1.350 . S
N470 S468 1.610 . S
N470 C471 1.351 . S
C471 C465 1.428 . S
C471 N470 1.351 . S
C471 C472 1.434 . S
C472 C463 1.429 . S
C472 N469 1.350 . S
C472 C471 1.434 . S
C473 C474 1.369 . S
C473 C475 1.419 . S
C473 H477 0.930 . S
C474 C473 1.369 . S
C474 C483 1.429 . S
C475 C473 1.419 . S
C475 C476 1.363 . S
C475 H478 0.929 . S
C476 C475 1.363 . S
C476 C482 1.428 . S
H477 C473 0.930 . S
H478 C475 0.929 . S
S479 N480 1.613 . S
S479 N481 1.610 . S
N480 S479 1.613 . S
N480 C483 1.350 . S
N481 S479 1.610 . S
N481 C482 1.351 . S
C482 C476 1.428 . S
C482 N481 1.351 . S
C482 C483 1.434 . S
C483 C474 1.429 . S
C483 N480 1.350 . S
C483 C482 1.434 . S
C265 C17 1.530 . S
C267 C116 1.526 . S
C276 C50 1.531 . S
C278 C83 1.527 . S
C287 C248 1.531 . S
C289 C149 1.530 . S
C298 C182 1.527 . S
C300 C215 1.530 . S
C309 N71 1.134 . S
C311 N5 1.126 . S
C320 N104 1.133 . S
C322 N38 1.135 . S
C331 C61 1.712 . S
C333 C127 1.713 . S
C342 C28 1.714 . S
C344 C94 1.713 . S
C353 N203 1.136 . S
C355 N137 1.128 . S
C364 N170 1.124 . S
C366 N236 1.132 . S
C375 C193 1.712 . S
C377 C259 1.712 . S
C386 C226 1.712 . S
C388 C160 1.712 . S
C397 C8 1.421 . S
C399 N179 1.424 1_554 S
C408 C41 1.422 . S
C410 N146 1.420 . S
C419 N245 1.420 1_556 S
C421 C74 1.422 . S
C430 C107 1.417 . S
C432 N212 1.421 . S
C441 N47 1.424 1_554 S
C443 C140 1.422 . S
C452 C173 1.422 . S
C454 N14 1.420 . S
C463 C206 1.419 . S
C465 N113 1.420 1_556 S
C474 C239 1.419 . S
C476 N80 1.425 . S
