# Generated by pormake.
# Topology upb, (4)-cn, num edge types: 1
# Building blocks:
#     Node 0, Type 0, BuildingBlock: NAHDIM_clean_sbu_0, # of connection points: 4
#     Node 1, Type 0, BuildingBlock: NAHDIM_clean_sbu_0, # of connection points: 4
#     Node 2, Type 0, BuildingBlock: NAHDIM_clean_sbu_0, # of connection points: 4
#     Node 3, Type 0, BuildingBlock: NAHDIM_clean_sbu_0, # of connection points: 4
#     Node 4, Type 0, BuildingBlock: NAHDIM_clean_sbu_0, # of connection points: 4
#     Node 5, Type 0, BuildingBlock: NAHDIM_clean_sbu_0, # of connection points: 4
#     Node 6, Type 0, BuildingBlock: NAHDIM_clean_sbu_0, # of connection points: 4
#     Node 7, Type 0, BuildingBlock: NAHDIM_clean_sbu_0, # of connection points: 4
#     Node 8, Type 0, BuildingBlock: NAHDIM_clean_sbu_0, # of connection points: 4
#     Node 9, Type 0, BuildingBlock: NAHDIM_clean_sbu_0, # of connection points: 4
#     Node 10, Type 0, BuildingBlock: NAHDIM_clean_sbu_0, # of connection points: 4
#     Node 11, Type 0, BuildingBlock: NAHDIM_clean_sbu_0, # of connection points: 4
#     Node 12, Type 0, BuildingBlock: NAHDIM_clean_sbu_0, # of connection points: 4
#     Node 13, Type 0, BuildingBlock: NAHDIM_clean_sbu_0, # of connection points: 4
#     Node 14, Type 0, BuildingBlock: NAHDIM_clean_sbu_0, # of connection points: 4
#     Node 15, Type 0, BuildingBlock: NAHDIM_clean_sbu_0, # of connection points: 4
#     Edge 16, Type (0, 0), BuildingBlock: XUDNAN_clean_linker_2, # of connection points: 2
#     Edge 17, Type (0, 0), BuildingBlock: XUDNAN_clean_linker_2, # of connection points: 2
#     Edge 18, Type (0, 0), BuildingBlock: XUDNAN_clean_linker_2, # of connection points: 2
#     Edge 19, Type (0, 0), BuildingBlock: XUDNAN_clean_linker_2, # of connection points: 2
#     Edge 20, Type (0, 0), BuildingBlock: XUDNAN_clean_linker_2, # of connection points: 2
#     Edge 21, Type (0, 0), BuildingBlock: XUDNAN_clean_linker_2, # of connection points: 2
#     Edge 22, Type (0, 0), BuildingBlock: XUDNAN_clean_linker_2, # of connection points: 2
#     Edge 23, Type (0, 0), BuildingBlock: XUDNAN_clean_linker_2, # of connection points: 2
#     Edge 24, Type (0, 0), BuildingBlock: XUDNAN_clean_linker_2, # of connection points: 2
#     Edge 25, Type (0, 0), BuildingBlock: XUDNAN_clean_linker_2, # of connection points: 2
#     Edge 26, Type (0, 0), BuildingBlock: XUDNAN_clean_linker_2, # of connection points: 2
#     Edge 27, Type (0, 0), BuildingBlock: XUDNAN_clean_linker_2, # of connection points: 2
#     Edge 28, Type (0, 0), BuildingBlock: XUDNAN_clean_linker_2, # of connection points: 2
#     Edge 29, Type (0, 0), BuildingBlock: XUDNAN_clean_linker_2, # of connection points: 2
#     Edge 30, Type (0, 0), BuildingBlock: XUDNAN_clean_linker_2, # of connection points: 2
#     Edge 31, Type (0, 0), BuildingBlock: XUDNAN_clean_linker_2, # of connection points: 2
#     Edge 32, Type (0, 0), BuildingBlock: XUDNAN_clean_linker_2, # of connection points: 2
#     Edge 33, Type (0, 0), BuildingBlock: XUDNAN_clean_linker_2, # of connection points: 2
#     Edge 34, Type (0, 0), BuildingBlock: XUDNAN_clean_linker_2, # of connection points: 2
#     Edge 35, Type (0, 0), BuildingBlock: XUDNAN_clean_linker_2, # of connection points: 2
#     Edge 36, Type (0, 0), BuildingBlock: XUDNAN_clean_linker_2, # of connection points: 2
#     Edge 37, Type (0, 0), BuildingBlock: XUDNAN_clean_linker_2, # of connection points: 2
#     Edge 38, Type (0, 0), BuildingBlock: XUDNAN_clean_linker_2, # of connection points: 2
#     Edge 39, Type (0, 0), BuildingBlock: XUDNAN_clean_linker_2, # of connection points: 2
#     Edge 40, Type (0, 0), BuildingBlock: XUDNAN_clean_linker_2, # of connection points: 2
#     Edge 41, Type (0, 0), BuildingBlock: XUDNAN_clean_linker_2, # of connection points: 2
#     Edge 42, Type (0, 0), BuildingBlock: XUDNAN_clean_linker_2, # of connection points: 2
#     Edge 43, Type (0, 0), BuildingBlock: XUDNAN_clean_linker_2, # of connection points: 2
#     Edge 44, Type (0, 0), BuildingBlock: XUDNAN_clean_linker_2, # of connection points: 2
#     Edge 45, Type (0, 0), BuildingBlock: XUDNAN_clean_linker_2, # of connection points: 2
#     Edge 46, Type (0, 0), BuildingBlock: XUDNAN_clean_linker_2, # of connection points: 2
#     Edge 47, Type (0, 0), BuildingBlock: XUDNAN_clean_linker_2, # of connection points: 2
# Relax obj value: 0.223
# Max RMSD: 0.104
# Mean RMSD: 0.104
data_MOF--net-upb--node1-NAHDIM_clean_sbu_0--edge1-XUDNAN_clean_linker_2
_symmetry_space_group_name_H-M    P1
_symmetry_Int_Tables_number       1
_symmetry_cell_setting            triclinic
loop_
_symmetry_equiv_pos_as_xyz
'x, y, z'
_cell_length_a     39.402487
_cell_length_b     39.402749
_cell_length_c     45.048441
_cell_angle_alpha  89.997962
_cell_angle_beta   89.985092
_cell_angle_gamma 90.003266
loop_
_atom_site_label
_atom_site_type_symbol
_atom_site_fract_x
_atom_site_fract_y
_atom_site_fract_z
_atom_type_partial_charge
C0 C 0.03892 0.34029 0.30856 0.0
O1 O 0.05707 0.33202 0.33194 0.0
O2 O 0.99238 0.30056 0.37025 0.0
Zn3 Zn 0.00538 0.28293 0.32975 0.0
O4 O 0.04908 0.25624 0.33262 0.0
C5 C 0.96018 0.22895 0.33527 0.0
O6 O 0.97738 0.22754 0.36023 0.0
O7 O 0.01307 0.32241 0.30217 0.0
C8 C 0.05525 0.22993 0.31721 0.0
O9 O 0.03234 0.21897 0.29833 0.0
C10 C 0.01255 0.2994 0.39223 0.0
O11 O 0.04345 0.28772 0.38835 0.0
O12 O 0.96768 0.25184 0.31647 0.0
C13 C 0.66351 0.00116 0.31121 0.0
O14 O 0.65773 0.98855 0.33772 0.0
O15 O 0.72177 0.9985 0.37166 0.0
Zn16 Zn 0.73503 0.99924 0.32854 0.0
O17 O 0.76681 0.03857 0.32085 0.0
C18 C 0.78158 0.94666 0.33848 0.0
O19 O 0.78525 0.96513 0.36254 0.0
O20 O 0.69394 0.00596 0.30278 0.0
C21 C 0.78611 0.05071 0.34081 0.0
O22 O 0.78536 0.03761 0.36761 0.0
C23 C 0.70714 0.02298 0.38482 0.0
O24 O 0.69905 0.05031 0.36968 0.0
O25 O 0.75991 0.95581 0.31916 0.0
C26 C 0.97618 0.64723 0.31862 0.0
O27 O 0.96064 0.64993 0.34427 0.0
O28 O 9e-05 0.70109 0.38019 0.0
Zn29 Zn 0.00101 0.71253 0.3363 0.0
O30 O 0.96125 0.74307 0.32689 0.0
C31 C 0.05738 0.75685 0.34695 0.0
O32 O 0.04524 0.75529 0.37407 0.0
O33 O 0.99661 0.67051 0.31068 0.0
C34 C 0.95619 0.76942 0.34254 0.0
O35 O 0.97692 0.77607 0.36461 0.0
C36 C 0.97241 0.70015 0.39471 0.0
O37 O 0.94359 0.70506 0.38071 0.0
O38 O 0.04356 0.73912 0.32668 0.0
C39 C 0.33175 0.98066 0.30357 0.0
O40 O 0.33279 0.96668 0.32998 0.0
O41 O 0.27949 0.99909 0.36663 0.0
Zn42 Zn 0.26501 0.99966 0.32357 0.0
O43 O 0.23547 0.95883 0.31574 0.0
C44 C 0.24527 0.0694 0.32963 0.0
O45 O 0.27295 0.07029 0.34586 0.0
O46 O 0.30558 0.99749 0.29604 0.0
C47 C 0.21122 0.95201 0.33336 0.0
O48 O 0.20544 0.97228 0.35597 0.0
C49 C 0.28368 0.97165 0.38103 0.0
O50 O 0.27953 0.94246 0.3674 0.0
O51 O 0.23718 0.04185 0.31676 0.0
C52 C 0.00739 0.65503 0.68579 0.0
O53 O 0.99991 0.65074 0.65763 0.0
O54 O 0.98966 0.71438 0.62955 0.0
Zn55 Zn 0.9986 0.72671 0.67218 0.0
O56 O 0.04029 0.75593 0.67567 0.0
C57 C 0.92869 0.74446 0.67822 0.0
O58 O 0.92514 0.71542 0.66421 0.0
O59 O 0.00657 0.68476 0.69679 0.0
C60 C 0.04398 0.78245 0.65998 0.0
O61 O 0.02025 0.79061 0.64077 0.0
C62 C 0.01158 0.71154 0.60902 0.0
O63 O 0.04382 0.71645 0.61507 0.0
O64 O 0.95827 0.75392 0.68586 0.0
C65 C 0.31946 0.0499 0.68009 0.0
O66 O 0.30069 0.07003 0.66367 0.0
O67 O 0.28679 0.99574 0.6137 0.0
Zn68 Zn 0.27217 0.0051 0.65569 0.0
O69 O 0.23824 0.04357 0.65851 0.0
C70 C 0.22401 0.9544 0.65247 0.0
O71 O 0.21896 0.97258 0.62844 0.0
O72 O 0.31297 0.01827 0.68049 0.0
C73 C 0.21973 0.05596 0.63811 0.0
O74 O 0.22097 0.043 0.61127 0.0
C75 C 0.29463 0.01709 0.59372 0.0
O76 O 0.29426 0.04968 0.59984 0.0
O77 O 0.2479 0.96294 0.66996 0.0
C78 C 0.98542 0.34691 0.68218 0.0
O79 O 0.99501 0.3558 0.65535 0.0
O80 O 0.99059 0.29354 0.61812 0.0
Zn81 Zn 0.99117 0.2771 0.66033 0.0
O82 O 0.95286 0.24411 0.66691 0.0
C83 C 0.04787 0.23574 0.64601 0.0
O84 O 0.03317 0.23756 0.6199 0.0
O85 O 0.98392 0.3156 0.68888 0.0
C86 C 0.94502 0.22138 0.64813 0.0
O87 O 0.96191 0.21954 0.62304 0.0
C88 C 0.96435 0.30426 0.60472 0.0
O89 O 0.93547 0.30639 0.61919 0.0
O90 O 0.03503 0.25198 0.6677 0.0
C91 C 0.66357 0.96206 0.68154 0.0
O92 O 0.67119 0.94331 0.65835 0.0
O93 O 0.70887 0.99989 0.62053 0.0
Zn94 Zn 0.72436 0.99046 0.66239 0.0
O95 O 0.7497 0.94588 0.66436 0.0
C96 C 0.77846 0.03622 0.65629 0.0
O97 O 0.78195 0.0175 0.63235 0.0
O98 O 0.68326 0.98633 0.68852 0.0
C99 C 0.77695 0.94128 0.67892 0.0
O100 O 0.79044 0.96678 0.69352 0.0
C101 C 0.71619 0.98071 0.59878 0.0
O102 O 0.73365 0.95285 0.60357 0.0
O103 O 0.75472 0.02921 0.67441 0.0
C104 C 0.50353 0.83986 0.80513 0.0
O105 O 0.491 0.84681 0.83146 0.0
O106 O 0.49955 0.78539 0.86719 0.0
Zn107 Zn 0.49906 0.76958 0.82477 0.0
O108 O 0.53737 0.73623 0.81839 0.0
C109 C 0.44507 0.7254 0.83768 0.0
O110 O 0.46314 0.72358 0.86211 0.0
O111 O 0.50709 0.80905 0.79734 0.0
C112 C 0.54809 0.71713 0.83911 0.0
O113 O 0.53419 0.71927 0.86553 0.0
C114 C 0.52561 0.79786 0.8797 0.0
O115 O 0.55358 0.80193 0.86422 0.0
O116 O 0.45479 0.74519 0.81705 0.0
C117 C 0.15895 0.52693 0.81277 0.0
O118 O 0.16549 0.54604 0.83599 0.0
O119 O 0.19766 0.4971 0.87773 0.0
Zn120 Zn 0.21733 0.49899 0.83617 0.0
O121 O 0.24596 0.54087 0.83035 0.0
C122 C 0.25821 0.44247 0.85297 0.0
O123 O 0.24764 0.45282 0.87907 0.0
O124 O 0.17853 0.50208 0.80724 0.0
C125 C 0.2739 0.54489 0.84397 0.0
O126 O 0.28399 0.52158 0.86286 0.0
C127 C 0.20186 0.51944 0.89775 0.0
O128 O 0.21813 0.54758 0.89134 0.0
O129 O 0.24779 0.45782 0.82983 0.0
C130 C 0.46117 0.19497 0.80498 0.0
O131 O 0.4406 0.2117 0.82265 0.0
O132 O 0.51044 0.22034 0.8746 0.0
Zn133 Zn 0.50608 0.23947 0.83346 0.0
O134 O 0.46847 0.2738 0.8373 0.0
C135 C 0.57748 0.24847 0.83243 0.0
O136 O 0.57569 0.21785 0.8439 0.0
O137 O 0.49263 0.20212 0.80511 0.0
C138 C 0.45244 0.29114 0.8181 0.0
O139 O 0.46096 0.28913 0.78996 0.0
C140 C 0.51669 0.24247 0.89437 0.0
O141 O 0.52074 0.27424 0.88622 0.0
O142 O 0.5503 0.26268 0.82368 0.0
C143 C 0.83281 0.45873 0.81976 0.0
O144 O 0.82249 0.43559 0.83868 0.0
O145 O 0.78633 0.50711 0.88482 0.0
Zn146 Zn 0.77443 0.49235 0.84311 0.0
O147 O 0.74637 0.44908 0.84254 0.0
C148 C 0.71976 0.53682 0.84372 0.0
O149 O 0.71557 0.51945 0.86836 0.0
O150 O 0.81631 0.48635 0.81771 0.0
C151 C 0.74855 0.42538 0.8616 0.0
O152 O 0.76976 0.42843 0.88389 0.0
C153 C 0.80766 0.4951 0.90317 0.0
O154 O 0.82642 0.46886 0.89588 0.0
O155 O 0.7447 0.52954 0.82698 0.0
C156 C 0.53925 0.15925 0.18957 0.0
O157 O 0.55816 0.16706 0.16653 0.0
O158 O 0.51222 0.2112 0.13024 0.0
Zn159 Zn 0.51471 0.22284 0.17364 0.0
O160 O 0.55913 0.24748 0.17979 0.0
C161 C 0.44948 0.25605 0.16823 0.0
O162 O 0.44703 0.23676 0.14455 0.0
O163 O 0.51622 0.17988 0.1976 0.0
C164 C 0.56115 0.27859 0.18701 0.0
O165 O 0.53316 0.29588 0.19173 0.0
C166 C 0.51806 0.23489 0.11182 0.0
O167 O 0.5246 0.26549 0.1219 0.0
O168 O 0.47543 0.25331 0.18484 0.0
C169 C 0.83821 0.51271 0.18619 0.0
O170 O 0.84207 0.50401 0.15825 0.0
O171 O 0.77828 0.51021 0.12856 0.0
Zn172 Zn 0.7663 0.5097 0.17204 0.0
O173 O 0.73488 0.54889 0.18047 0.0
C174 C 0.75197 0.43725 0.17612 0.0
O175 O 0.78244 0.43361 0.1647 0.0
O176 O 0.80843 0.51525 0.19688 0.0
C177 C 0.70744 0.55121 0.1658 0.0
O178 O 0.70053 0.52798 0.14576 0.0
C179 C 0.7833 0.53839 0.11557 0.0
O180 O 0.78088 0.56665 0.13089 0.0
O181 O 0.74093 0.46687 0.1816 0.0
C182 C 0.47556 0.85541 0.16905 0.0
O183 O 0.47637 0.85732 0.13995 0.0
O184 O 0.50437 0.79799 0.11514 0.0
Zn185 Zn 0.4904 0.78532 0.15678 0.0
O186 O 0.44622 0.75937 0.15539 0.0
C187 C 0.53251 0.72834 0.15804 0.0
O188 O 0.51342 0.72248 0.13468 0.0
O189 O 0.48246 0.82728 0.18153 0.0
C190 C 0.43864 0.73582 0.1735 0.0
O191 O 0.46038 0.72739 0.19434 0.0
C192 C 0.48368 0.79663 0.09355 0.0
O193 O 0.45207 0.78767 0.09854 0.0
O194 O 0.52732 0.75518 0.17306 0.0
C195 C 0.16874 0.49771 0.1867 0.0
O196 O 0.16175 0.51505 0.16256 0.0
O197 O 0.22533 0.50036 0.12327 0.0
Zn198 Zn 0.23954 0.50003 0.1663 0.0
O199 O 0.27431 0.46331 0.17407 0.0
C200 C 0.25245 0.57187 0.16213 0.0
O201 O 0.22636 0.57071 0.144 0.0
O202 O 0.19942 0.49043 0.19267 0.0
C203 C 0.28259 0.44027 0.15568 0.0
O204 O 0.26843 0.43978 0.12931 0.0
C205 C 0.20469 0.4794 0.11169 0.0
O206 O 0.19171 0.45511 0.12814 0.0
O207 O 0.26162 0.54493 0.17541 0.0
H208 H 0.07316 0.16805 0.29398 0.0
H209 H 0.11092 0.25041 0.34886 0.0
H210 H 0.1649 0.2196 0.35569 0.0
H211 H 0.10868 0.10121 0.33686 0.0
H212 H 0.1187 0.07487 0.30533 0.0
H213 H 0.08381 0.10426 0.30337 0.0
H214 H 0.11028 0.13177 0.25651 0.0
H215 H 0.14532 0.10248 0.25836 0.0
H216 H 0.1532 0.14754 0.25795 0.0
H217 H 0.21407 0.17915 0.35781 0.0
H218 H 0.25417 0.13107 0.35651 0.0
H219 H 0.18407 0.07479 0.30073 0.0
C220 C 0.09288 0.17977 0.30722 0.0
C221 C 0.08785 0.21171 0.32079 0.0
C222 C 0.11418 0.22597 0.33822 0.0
C223 C 0.14498 0.20872 0.34217 0.0
C224 C 0.14905 0.17722 0.32858 0.0
C225 C 0.1237 0.16282 0.31152 0.0
C226 C 0.134 0.12804 0.30037 0.0
C227 C 0.10986 0.10048 0.3122 0.0
C228 C 0.13581 0.12744 0.26627 0.0
C229 C 0.16897 0.12501 0.31405 0.0
C230 C 0.17726 0.15375 0.33005 0.0
C231 C 0.20792 0.15656 0.34524 0.0
C232 C 0.23055 0.1291 0.34435 0.0
C233 C 0.22233 0.09915 0.32849 0.0
C234 C 0.19123 0.09737 0.31292 0.0
H235 H 0.9359 0.18095 0.37344 0.0
H236 H 0.92173 0.2215 0.28469 0.0
H237 H 0.87532 0.18026 0.27618 0.0
H238 H 0.92094 0.09367 0.3554 0.0
H239 H 0.89901 0.08483 0.38966 0.0
H240 H 0.93102 0.11742 0.38845 0.0
H241 H 0.88767 0.16114 0.40877 0.0
H242 H 0.85552 0.1287 0.41002 0.0
H243 H 0.848 0.1673 0.38959 0.0
H244 H 0.83054 0.13392 0.2776 0.0
H245 H 0.79085 0.08705 0.28893 0.0
H246 H 0.83462 0.07815 0.37703 0.0
C247 C 0.92314 0.18121 0.35215 0.0
C248 C 0.93248 0.20443 0.32969 0.0
C249 C 0.91499 0.20393 0.30222 0.0
C250 C 0.88863 0.18061 0.29719 0.0
C251 C 0.88008 0.15808 0.31988 0.0
C252 C 0.89682 0.15829 0.34682 0.0
C253 C 0.88277 0.13171 0.36771 0.0
C254 C 0.91006 0.10535 0.37576 0.0
C255 C 0.86758 0.14821 0.39567 0.0
C256 C 0.85546 0.1164 0.34833 0.0
C257 C 0.85429 0.13185 0.3208 0.0
C258 C 0.83121 0.1217 0.2991 0.0
C259 C 0.80879 0.09505 0.30575 0.0
C260 C 0.80957 0.07896 0.33389 0.0
C261 C 0.83325 0.08996 0.35536 0.0
H262 H 0.8335 0.92531 0.37377 0.0
H263 H 0.77947 0.9004 0.29267 0.0
H264 H 0.81764 0.85121 0.28503 0.0
H265 H 0.91602 0.90571 0.34724 0.0
H266 H 0.93044 0.88864 0.38215 0.0
H267 H 0.89803 0.92082 0.38158 0.0
H268 H 0.85801 0.88154 0.41173 0.0
H269 H 0.89034 0.84925 0.41246 0.0
H270 H 0.84878 0.83954 0.39806 0.0
H271 H 0.86277 0.80498 0.28633 0.0
H272 H 0.91116 0.76648 0.29599 0.0
H273 H 0.9352 0.82339 0.37578 0.0
C274 C 0.82945 0.90946 0.35446 0.0
C275 C 0.80344 0.91663 0.33385 0.0
C276 C 0.79923 0.89533 0.30878 0.0
C277 C 0.82075 0.86735 0.30428 0.0
C278 C 0.8463 0.86117 0.32502 0.0
C279 C 0.85068 0.88169 0.34959 0.0
C280 C 0.8804 0.87028 0.36829 0.0
C281 C 0.90784 0.89801 0.36989 0.0
C282 C 0.86867 0.85951 0.39947 0.0
C283 C 0.89229 0.84015 0.35036 0.0
C284 C 0.87228 0.83511 0.32555 0.0
C285 C 0.87858 0.80871 0.3057 0.0
C286 C 0.9061 0.78699 0.31137 0.0
C287 C 0.92701 0.79198 0.3366 0.0
C288 C 0.91981 0.81892 0.35625 0.0
H289 H 0.0804 0.80848 0.38194 0.0
H290 H 0.09423 0.76222 0.29533 0.0
H291 H 0.13636 0.8065 0.28257 0.0
H292 H 0.08353 0.89354 0.3571 0.0
H293 H 0.10558 0.90912 0.3894 0.0
H294 H 0.07846 0.87251 0.39237 0.0
H295 H 0.12835 0.8374 0.4139 0.0
H296 H 0.1556 0.87398 0.41119 0.0
H297 H 0.16765 0.83475 0.39352 0.0
H298 H 0.17624 0.85692 0.27917 0.0
H299 H 0.20969 0.90962 0.28504 0.0
H300 H 0.1674 0.92335 0.37321 0.0
C301 C 0.0926 0.8073 0.36041 0.0
C302 C 0.08423 0.78174 0.33969 0.0
C303 C 0.10038 0.7815 0.31159 0.0
C304 C 0.12432 0.80653 0.30416 0.0
C305 C 0.13161 0.83165 0.32502 0.0
C306 C 0.11617 0.83219 0.35256 0.0
C307 C 0.12724 0.86265 0.37057 0.0
C308 C 0.0969 0.88582 0.37777 0.0
C309 C 0.14582 0.85152 0.39897 0.0
C310 C 0.15125 0.87933 0.34883 0.0
C311 C 0.15368 0.86099 0.32276 0.0
C312 C 0.17451 0.87146 0.29949 0.0
C313 C 0.19339 0.90142 0.30302 0.0
C314 C 0.19102 0.92068 0.32952 0.0
C315 C 0.16959 0.90936 0.3526 0.0
H316 H 0.06299 0.83666 0.62583 0.0
H317 H 0.09377 0.77717 0.70234 0.0
H318 H 0.14386 0.8142 0.70885 0.0
H319 H 0.14727 0.85115 0.59723 0.0
H320 H 0.13777 0.89364 0.58496 0.0
H321 H 0.10463 0.8622 0.58639 0.0
H322 H 0.06891 0.9017 0.62021 0.0
H323 H 0.10194 0.93323 0.61891 0.0
H324 H 0.08711 0.91757 0.6542 0.0
H325 H 0.1901 0.8593 0.70762 0.0
H326 H 0.22898 0.90746 0.6977 0.0
H327 H 0.16765 0.93574 0.62157 0.0
C328 C 0.08025 0.83134 0.64395 0.0
C329 C 0.0744 0.80407 0.66361 0.0
C330 C 0.09774 0.79792 0.68696 0.0
C331 C 0.12625 0.81882 0.69087 0.0
C332 C 0.13117 0.84561 0.67114 0.0
C333 C 0.10887 0.85176 0.64805 0.0
C334 C 0.11978 0.88207 0.62985 0.0
C335 C 0.12785 0.87163 0.59771 0.0
C336 C 0.09283 0.91031 0.63087 0.0
C337 C 0.15156 0.89223 0.64642 0.0
C338 C 0.1578 0.87101 0.67019 0.0
C339 C 0.18554 0.87598 0.68897 0.0
C340 C 0.20745 0.90339 0.6832 0.0
C341 C 0.20145 0.92529 0.65883 0.0
C342 C 0.17313 0.9194 0.6403 0.0
H343 H 0.17544 0.08806 0.60038 0.0
H344 H 0.21308 0.08962 0.69098 0.0
H345 H 0.17512 0.13766 0.70239 0.0
H346 H 0.16682 0.17925 0.59196 0.0
H347 H 0.12845 0.17601 0.57037 0.0
H348 H 0.15948 0.14246 0.56904 0.0
H349 H 0.11346 0.09885 0.58445 0.0
H350 H 0.08231 0.13222 0.58574 0.0
H351 H 0.0893 0.10589 0.61788 0.0
H352 H 0.13146 0.18432 0.70444 0.0
H353 H 0.08495 0.22557 0.6969 0.0
H354 H 0.07662 0.19356 0.60495 0.0
C355 C 0.17586 0.09858 0.62259 0.0
C356 C 0.19723 0.08503 0.64477 0.0
C357 C 0.19689 0.09951 0.67359 0.0
C358 C 0.17548 0.12688 0.6803 0.0
C359 C 0.15465 0.13955 0.65794 0.0
C360 C 0.15469 0.1259 0.62966 0.0
C361 C 0.12924 0.14361 0.60986 0.0
C362 C 0.14707 0.16139 0.58377 0.0
C363 C 0.10197 0.11865 0.59885 0.0
C364 C 0.11463 0.16908 0.6315 0.0
C365 C 0.12969 0.16647 0.65909 0.0
C366 C 0.11962 0.18675 0.68288 0.0
C367 C 0.0932 0.2101 0.67839 0.0
C368 C 0.0772 0.21288 0.65034 0.0
C369 C 0.08843 0.19227 0.62662 0.0
H370 H 0.92472 0.16725 0.61432 0.0
H371 H 0.90393 0.21943 0.69726 0.0
H372 H 0.85928 0.17745 0.70882 0.0
H373 H 0.83837 0.14573 0.59712 0.0
H374 H 0.84912 0.10487 0.58178 0.0
H375 H 0.87928 0.13914 0.58014 0.0
H376 H 0.92388 0.10165 0.60687 0.0
H377 H 0.89382 0.06729 0.60868 0.0
H378 H 0.91351 0.08274 0.64216 0.0
H379 H 0.81672 0.12952 0.71122 0.0
H380 H 0.7794 0.07971 0.70398 0.0
H381 H 0.82884 0.05917 0.61971 0.0
C382 C 0.91076 0.16996 0.63489 0.0
C383 C 0.91782 0.19666 0.65486 0.0
C384 C 0.89898 0.19918 0.68159 0.0
C385 C 0.87358 0.17545 0.68837 0.0
C386 C 0.86738 0.14935 0.66824 0.0
C387 C 0.88543 0.1465 0.64204 0.0
C388 C 0.87394 0.11609 0.62418 0.0
C389 C 0.8593 0.12713 0.59403 0.0
C390 C 0.90302 0.09043 0.62026 0.0
C391 C 0.84655 0.1023 0.64438 0.0
C392 C 0.84311 0.12179 0.66969 0.0
C393 C 0.8192 0.11405 0.69149 0.0
C394 C 0.79814 0.08572 0.68719 0.0
C395 C 0.80121 0.06552 0.66131 0.0
C396 C 0.82588 0.074 0.63979 0.0
H397 H 0.84074 0.92496 0.69882 0.0
H398 H 0.75013 0.88115 0.6596 0.0
H399 H 0.77758 0.82485 0.65931 0.0
H400 H 0.89936 0.87751 0.65639 0.0
H401 H 0.92976 0.87272 0.68599 0.0
H402 H 0.90198 0.90896 0.68537 0.0
H403 H 0.88078 0.89397 0.73824 0.0
H404 H 0.90843 0.85755 0.73896 0.0
H405 H 0.86358 0.85236 0.74539 0.0
H406 H 0.81567 0.77393 0.6611 0.0
H407 H 0.86273 0.73267 0.66225 0.0
H408 H 0.92887 0.80976 0.69966 0.0
C409 C 0.82651 0.90346 0.6905 0.0
C410 C 0.79322 0.90743 0.67937 0.0
C411 C 0.77565 0.87873 0.66826 0.0
C412 C 0.79097 0.84661 0.66813 0.0
C413 C 0.82386 0.8436 0.67914 0.0
C414 C 0.8415 0.87125 0.69001 0.0
C415 C 0.87729 0.86153 0.69888 0.0
C416 C 0.90364 0.88135 0.68055 0.0
C417 C 0.88283 0.86666 0.73236 0.0
C418 C 0.87719 0.8242 0.69084 0.0
C419 C 0.84601 0.81429 0.67982 0.0
C420 C 0.84014 0.78133 0.66988 0.0
C421 C 0.86705 0.75806 0.67064 0.0
C422 C 0.89951 0.76791 0.6811 0.0
C423 C 0.90432 0.8013 0.6918 0.0
H424 H 0.57127 0.66806 0.87684 0.0
H425 H 0.58698 0.71012 0.78883 0.0
H426 H 0.63281 0.66842 0.77998 0.0
H427 H 0.65862 0.65165 0.8935 0.0
H428 H 0.64979 0.61264 0.91292 0.0
H429 H 0.61852 0.64594 0.91212 0.0
H430 H 0.57438 0.60397 0.89033 0.0
H431 H 0.60553 0.57055 0.89102 0.0
H432 H 0.5843 0.58105 0.8568 0.0
H433 H 0.67768 0.62208 0.78128 0.0
H434 H 0.7168 0.57454 0.79236 0.0
H435 H 0.67001 0.563 0.87903 0.0
C436 C 0.58435 0.66862 0.8557 0.0
C437 C 0.5756 0.6924 0.83356 0.0
C438 C 0.59326 0.69211 0.80614 0.0
C439 C 0.61933 0.66855 0.80091 0.0
C440 C 0.62727 0.64541 0.82327 0.0
C441 C 0.6102 0.64526 0.85007 0.0
C442 C 0.62325 0.61768 0.87041 0.0
C443 C 0.63845 0.6329 0.89891 0.0
C444 C 0.59519 0.59178 0.87755 0.0
C445 C 0.65043 0.60233 0.85091 0.0
C446 C 0.65252 0.61866 0.82383 0.0
C447 C 0.67619 0.60905 0.80239 0.0
C448 C 0.69829 0.58206 0.80887 0.0
C449 C 0.69638 0.56498 0.8365 0.0
C450 C 0.67203 0.57535 0.85763 0.0
H451 H 0.42658 0.67254 0.87313 0.0
H452 H 0.39658 0.7272 0.7937 0.0
H453 H 0.3479 0.68804 0.78744 0.0
H454 H 0.40831 0.59032 0.8458 0.0
H455 H 0.39338 0.57435 0.88096 0.0
H456 H 0.42437 0.60789 0.87997 0.0
H457 H 0.38517 0.64566 0.91231 0.0
H458 H 0.35405 0.61219 0.91346 0.0
H459 H 0.34228 0.65377 0.90032 0.0
H460 H 0.30287 0.642 0.78987 0.0
H461 H 0.26674 0.59187 0.79949 0.0
H462 H 0.32829 0.56696 0.87636 0.0
C463 C 0.40963 0.67658 0.85454 0.0
C464 C 0.41523 0.70306 0.83398 0.0
C465 C 0.39269 0.70712 0.80975 0.0
C466 C 0.36498 0.68505 0.80607 0.0
C467 C 0.36037 0.65905 0.82671 0.0
C468 C 0.38219 0.65471 0.8504 0.0
C469 C 0.37267 0.62407 0.86883 0.0
C470 C 0.40139 0.5976 0.86887 0.0
C471 C 0.36296 0.63456 0.90061 0.0
C472 C 0.34215 0.6116 0.85173 0.0
C473 C 0.3352 0.63224 0.82766 0.0
C474 C 0.3081 0.62568 0.80865 0.0
C475 C 0.28772 0.59718 0.81431 0.0
C476 C 0.29479 0.57545 0.83861 0.0
C477 C 0.32232 0.58296 0.85753 0.0
H478 H 0.29786 0.42316 0.80509 0.0
H479 H 0.27729 0.40062 0.89779 0.0
H480 H 0.32359 0.3589 0.89798 0.0
H481 H 0.32071 0.33571 0.7835 0.0
H482 H 0.3539 0.34934 0.75867 0.0
H483 H 0.3175 0.37611 0.76493 0.0
H484 H 0.3573 0.42529 0.78056 0.0
H485 H 0.39378 0.39861 0.77462 0.0
H486 H 0.38739 0.41866 0.81014 0.0
H487 H 0.37373 0.32305 0.88994 0.0
H488 H 0.42397 0.29168 0.87314 0.0
H489 H 0.41316 0.33563 0.78512 0.0
C490 C 0.30276 0.40899 0.82524 0.0
C491 C 0.28391 0.41518 0.85143 0.0
C492 C 0.29137 0.39643 0.87747 0.0
C493 C 0.31763 0.37262 0.87783 0.0
C494 C 0.3362 0.36766 0.85195 0.0
C495 C 0.32906 0.38497 0.82602 0.0
C496 C 0.3539 0.37527 0.80166 0.0
C497 C 0.33539 0.35808 0.77565 0.0
C498 C 0.3743 0.40631 0.79114 0.0
C499 C 0.37628 0.35025 0.81819 0.0
C500 C 0.36545 0.34636 0.84715 0.0
C501 C 0.38234 0.32558 0.86723 0.0
C502 C 0.411 0.30797 0.85744 0.0
C503 C 0.42256 0.31108 0.82775 0.0
C504 C 0.40488 0.33258 0.80789 0.0
H505 H 0.68985 0.41671 0.82973 0.0
H506 H 0.76174 0.36331 0.88579 0.0
H507 H 0.72835 0.31068 0.88019 0.0
H508 H 0.61648 0.37761 0.85969 0.0
H509 H 0.59386 0.37593 0.82494 0.0
H510 H 0.62505 0.40853 0.83114 0.0
H511 H 0.65688 0.38993 0.78348 0.0
H512 H 0.62586 0.35708 0.77724 0.0
H513 H 0.67027 0.34641 0.77952 0.0
H514 H 0.68661 0.26445 0.86974 0.0
H515 H 0.63648 0.22903 0.85935 0.0
H516 H 0.59019 0.31295 0.81174 0.0
C517 C 0.69875 0.39382 0.84052 0.0
C518 C 0.7285 0.39398 0.85803 0.0
C519 C 0.73901 0.36373 0.87229 0.0
C520 C 0.72035 0.33367 0.86907 0.0
C521 C 0.69111 0.33436 0.8517 0.0
C522 C 0.68014 0.3637 0.8379 0.0
C523 C 0.6465 0.35817 0.82234 0.0
C524 C 0.61885 0.38143 0.83531 0.0
C525 C 0.65011 0.36319 0.78864 0.0
C526 C 0.64003 0.32128 0.82995 0.0
C527 C 0.66638 0.3079 0.84645 0.0
C528 C 0.66587 0.27458 0.85674 0.0
C529 C 0.63727 0.25463 0.85063 0.0
C530 C 0.60936 0.26818 0.83473 0.0
C531 C 0.61116 0.30178 0.82381 0.0
H532 H 0.68528 0.43758 0.19308 0.0
H533 H 0.76732 0.36991 0.16786 0.0
H534 H 0.72815 0.32105 0.17136 0.0
H535 H 0.64301 0.37979 0.24508 0.0
H536 H 0.60125 0.39354 0.23404 0.0
H537 H 0.63651 0.42258 0.23211 0.0
H538 H 0.62384 0.43323 0.17642 0.0
H539 H 0.58866 0.4042 0.17814 0.0
H540 H 0.62193 0.39769 0.15127 0.0
H541 H 0.67895 0.28016 0.17443 0.0
H542 H 0.62372 0.2506 0.17633 0.0
H543 H 0.57415 0.34553 0.1991 0.0
C544 C 0.69524 0.41245 0.18875 0.0
C545 C 0.72945 0.40756 0.18031 0.0
C546 C 0.74126 0.37427 0.17446 0.0
C547 C 0.71921 0.34636 0.17644 0.0
C548 C 0.6855 0.35219 0.18437 0.0
C549 C 0.67362 0.38442 0.19052 0.0
C550 C 0.63591 0.3842 0.19693 0.0
C551 C 0.62876 0.3957 0.22895 0.0
C552 C 0.61645 0.40612 0.17434 0.0
C553 C 0.62824 0.34688 0.19288 0.0
C554 C 0.6572 0.32876 0.18591 0.0
C555 C 0.65616 0.29404 0.18012 0.0
C556 C 0.62465 0.27749 0.18123 0.0
C557 C 0.59458 0.29572 0.18792 0.0
C558 C 0.59664 0.3308 0.1941 0.0
H559 H 0.54789 0.66839 0.13072 0.0
H560 H 0.57996 0.73454 0.2025 0.0
H561 H 0.62764 0.69558 0.2134 0.0
H562 H 0.56827 0.58884 0.16697 0.0
H563 H 0.58249 0.56911 0.13308 0.0
H564 H 0.55037 0.60161 0.13188 0.0
H565 H 0.58709 0.63617 0.09489 0.0
H566 H 0.61935 0.60386 0.09605 0.0
H567 H 0.63002 0.6472 0.1048 0.0
H568 H 0.67331 0.65023 0.21486 0.0
H569 H 0.71234 0.60182 0.2075 0.0
H570 H 0.6494 0.56579 0.13495 0.0
C571 C 0.56475 0.67467 0.14889 0.0
C572 C 0.5602 0.70454 0.16576 0.0
C573 C 0.58292 0.71176 0.1893 0.0
C574 C 0.61007 0.6898 0.19564 0.0
C575 C 0.61398 0.66072 0.17832 0.0
C576 C 0.59182 0.65308 0.15553 0.0
C577 C 0.60183 0.62065 0.13982 0.0
C578 C 0.57409 0.59345 0.14315 0.0
C579 C 0.61007 0.62739 0.10695 0.0
C580 C 0.63335 0.61133 0.15712 0.0
C581 C 0.63997 0.63468 0.17928 0.0
C582 C 0.66824 0.6317 0.19769 0.0
C583 C 0.69029 0.60415 0.19331 0.0
C584 C 0.6839 0.57995 0.1707 0.0
C585 C 0.65495 0.5837 0.15253 0.0
H586 H 0.41956 0.67653 0.2007 0.0
H587 H 0.38404 0.75373 0.13937 0.0
H588 H 0.3302 0.72246 0.13322 0.0
H589 H 0.38668 0.60673 0.1612 0.0
H590 H 0.37535 0.58264 0.19374 0.0
H591 H 0.40973 0.61264 0.19539 0.0
H592 H 0.38046 0.64316 0.23947 0.0
H593 H 0.34589 0.61326 0.2379 0.0
H594 H 0.33747 0.65814 0.23543 0.0
H595 H 0.2815 0.6814 0.13175 0.0
H596 H 0.24279 0.63218 0.13307 0.0
H597 H 0.31054 0.58134 0.19474 0.0
C598 C 0.40028 0.68712 0.1863 0.0
C599 C 0.40593 0.71768 0.17065 0.0
C600 C 0.38026 0.73039 0.15163 0.0
C601 C 0.34953 0.71289 0.14809 0.0
C602 C 0.34487 0.68272 0.16368 0.0
C603 C 0.36957 0.66987 0.18234 0.0
C604 C 0.35913 0.63584 0.19503 0.0
C605 C 0.38421 0.60782 0.18577 0.0
C606 C 0.35552 0.63773 0.22897 0.0
C607 C 0.32496 0.63129 0.18019 0.0
C608 C 0.31701 0.65879 0.16248 0.0
C609 C 0.28733 0.65983 0.14571 0.0
C610 C 0.26548 0.63173 0.14663 0.0
C611 C 0.27356 0.60289 0.16404 0.0
C612 C 0.30347 0.60306 0.18138 0.0
H613 H 0.30364 0.38576 0.12261 0.0
H614 H 0.31872 0.43561 0.20756 0.0
H615 H 0.36121 0.39225 0.22115 0.0
H616 H 0.31179 0.29952 0.14956 0.0
H617 H 0.33391 0.28506 0.11689 0.0
H618 H 0.30401 0.31951 0.11421 0.0
H619 H 0.35047 0.35772 0.09086 0.0
H620 H 0.38044 0.32336 0.09338 0.0
H621 H 0.39005 0.36372 0.11023 0.0
H622 H 0.40386 0.34468 0.22457 0.0
H623 H 0.44333 0.29659 0.21746 0.0
H624 H 0.39919 0.27746 0.13076 0.0
C625 C 0.31575 0.38754 0.14413 0.0
C626 C 0.30783 0.41412 0.16401 0.0
C627 C 0.32433 0.41548 0.19195 0.0
C628 C 0.34847 0.39094 0.1999 0.0
C629 C 0.3557 0.36512 0.17974 0.0
C630 C 0.33978 0.36323 0.15246 0.0
C631 C 0.35258 0.33333 0.13458 0.0
C632 C 0.32386 0.30785 0.12846 0.0
C633 C 0.36939 0.34526 0.10555 0.0
C634 C 0.37844 0.31888 0.15594 0.0
C635 C 0.37986 0.33751 0.18189 0.0
C636 C 0.40279 0.32973 0.20444 0.0
C637 C 0.42509 0.30238 0.2002 0.0
C638 C 0.4242 0.28311 0.17366 0.0
C639 C 0.40025 0.29138 0.15147 0.0
H640 H 0.09897 0.37443 0.31102 0.0
H641 H 0.00417 0.36964 0.26219 0.0
H642 H 0.02472 0.415 0.22865 0.0
H643 H 0.11354 0.46627 0.30368 0.0
H644 H 0.15866 0.46076 0.29915 0.0
H645 H 0.13474 0.43106 0.32126 0.0
H646 H 0.15719 0.38138 0.289 0.0
H647 H 0.18118 0.41085 0.2669 0.0
H648 H 0.15126 0.38267 0.24933 0.0
H649 H 0.05774 0.45813 0.19833 0.0
H650 H 0.10129 0.49201 0.17214 0.0
H651 H 0.17442 0.46676 0.24069 0.0
C652 C 0.0822 0.3833 0.29363 0.0
C653 C 0.04987 0.36867 0.28933 0.0
C654 C 0.02901 0.38059 0.26594 0.0
C655 C 0.0404 0.40644 0.24689 0.0
C656 C 0.07266 0.42003 0.25157 0.0
C657 C 0.09325 0.40875 0.27437 0.0
C658 C 0.12789 0.4252 0.27328 0.0
C659 C 0.13406 0.44713 0.30099 0.0
C660 C 0.15602 0.39843 0.26938 0.0
C661 C 0.12399 0.4469 0.24584 0.0
C662 C 0.09181 0.44411 0.23387 0.0
C663 C 0.0829 0.46073 0.20768 0.0
C664 C 0.10779 0.48 0.193 0.0
C665 C 0.14125 0.48203 0.20438 0.0
C666 C 0.14905 0.46582 0.23148 0.0
H667 H 0.66666 0.02448 0.25427 0.0
H668 H 0.59728 0.01091 0.32813 0.0
H669 H 0.5537 0.04391 0.30129 0.0
H670 H 0.64917 0.10708 0.24139 0.0
H671 H 0.65215 0.10546 0.20149 0.0
H672 H 0.67515 0.07535 0.22362 0.0
H673 H 0.64621 0.02562 0.19572 0.0
H674 H 0.62326 0.05567 0.17319 0.0
H675 H 0.60055 0.02371 0.19381 0.0
H676 H 0.52194 0.08684 0.27044 0.0
H677 H 0.50393 0.13344 0.23718 0.0
H678 H 0.59388 0.11752 0.18336 0.0
C679 C 0.64195 0.02753 0.26445 0.0
C680 C 0.63537 0.01513 0.29327 0.0
C681 C 0.60283 0.01998 0.30596 0.0
C682 C 0.57789 0.0387 0.29088 0.0
C683 C 0.58575 0.05184 0.26296 0.0
C684 C 0.61684 0.04596 0.24968 0.0
C685 C 0.62037 0.06548 0.22094 0.0
C686 C 0.651 0.08977 0.22195 0.0
C687 C 0.62272 0.04116 0.19434 0.0
C688 C 0.58716 0.08465 0.22087 0.0
C689 C 0.56726 0.07617 0.24502 0.0
C690 C 0.53694 0.09309 0.25107 0.0
C691 C 0.52698 0.11962 0.23214 0.0
C692 C 0.5474 0.12897 0.20758 0.0
C693 C 0.57742 0.11066 0.20165 0.0
H694 H 0.83965 0.52772 0.24542 0.0
H695 H 0.90299 0.52493 0.16665 0.0
H696 H 0.94931 0.55264 0.19448 0.0
H697 H 0.86108 0.60727 0.26785 0.0
H698 H 0.86104 0.59869 0.30716 0.0
H699 H 0.8353 0.57349 0.28272 0.0
H700 H 0.86438 0.51871 0.30192 0.0
H701 H 0.89016 0.5438 0.32665 0.0
H702 H 0.90998 0.51522 0.30065 0.0
H703 H 0.98466 0.58931 0.22832 0.0
H704 H 0.00686 0.62914 0.2661 0.0
H705 H 0.92112 0.60577 0.32301 0.0
C706 C 0.86358 0.53208 0.23422 0.0
C707 C 0.86769 0.52418 0.20387 0.0
C708 C 0.8993 0.53058 0.18995 0.0
C709 C 0.9258 0.5463 0.20559 0.0
C710 C 0.92046 0.55487 0.23525 0.0
C711 C 0.89029 0.54747 0.24954 0.0
C712 C 0.88974 0.56179 0.28068 0.0
C713 C 0.86005 0.58679 0.28482 0.0
C714 C 0.88851 0.53317 0.30384 0.0
C715 C 0.92361 0.57982 0.2812 0.0
C716 C 0.94119 0.57528 0.25495 0.0
C717 C 0.97152 0.59237 0.24925 0.0
C718 C 0.98389 0.61502 0.27077 0.0
C719 C 0.96591 0.62031 0.2976 0.0
C720 C 0.93585 0.6018 0.30301 0.0
H721 H 0.38059 0.93193 0.30788 0.0
H722 H 0.34241 0.01053 0.24927 0.0
H723 H 0.38275 0.99202 0.21046 0.0
H724 H 0.47074 0.93231 0.28131 0.0
H725 H 0.47367 0.88681 0.28453 0.0
H726 H 0.44673 0.91038 0.30947 0.0
H727 H 0.39551 0.87299 0.29415 0.0
H728 H 0.42215 0.84946 0.26918 0.0
H729 H 0.38426 0.86972 0.25546 0.0
H730 H 0.42154 0.96036 0.17614 0.0
H731 H 0.45336 0.91685 0.14834 0.0
H732 H 0.46484 0.85794 0.22915 0.0
C733 C 0.38141 0.94598 0.28723 0.0
C734 C 0.35858 0.97287 0.28166 0.0
C735 C 0.35983 0.98998 0.25405 0.0
C736 C 0.38277 0.97975 0.23195 0.0
C737 C 0.40427 0.95245 0.23787 0.0
C738 C 0.40382 0.93586 0.2649 0.0
C739 C 0.42635 0.90474 0.26453 0.0
C740 C 0.45615 0.90882 0.28625 0.0
C741 C 0.40583 0.87234 0.27121 0.0
C742 C 0.43844 0.90554 0.23267 0.0
C743 C 0.42607 0.93367 0.21785 0.0
C744 C 0.4318 0.93854 0.18763 0.0
C745 C 0.44987 0.91361 0.17202 0.0
C746 C 0.46162 0.88396 0.18657 0.0
C747 C 0.45653 0.88046 0.21745 0.0
H748 H 0.11725 0.58179 0.81725 0.0
H749 H 0.13815 0.49403 0.76198 0.0
H750 H 0.09486 0.51363 0.72605 0.0
H751 H 0.02505 0.58819 0.80132 0.0
H752 H 0.02656 0.63391 0.80118 0.0
H753 H 0.05521 0.61017 0.82445 0.0
H754 H 0.10644 0.64081 0.80019 0.0
H755 H 0.07804 0.66456 0.77692 0.0
H756 H 0.11137 0.63954 0.76041 0.0
H757 H 0.05399 0.54644 0.69365 0.0
H758 H 0.02116 0.59023 0.66692 0.0
H759 H 0.02807 0.65639 0.74372 0.0
C760 C 0.11226 0.5662 0.79795 0.0
C761 C 0.13098 0.53629 0.79248 0.0
C762 C 0.12399 0.51696 0.76669 0.0
C763 C 0.09936 0.52783 0.74623 0.0
C764 C 0.08188 0.55791 0.75203 0.0
C765 C 0.088 0.57672 0.77737 0.0
C766 C 0.06839 0.60971 0.77723 0.0
C767 C 0.04225 0.61052 0.80255 0.0
C768 C 0.0925 0.64045 0.77876 0.0
C769 C 0.0512 0.60722 0.74733 0.0
C770 C 0.05874 0.57692 0.73332 0.0
C771 C 0.04753 0.57002 0.7046 0.0
C772 C 0.02889 0.59507 0.68959 0.0
C773 C 0.022 0.62676 0.70323 0.0
C774 C 0.03262 0.63236 0.73275 0.0
H775 H 0.39945 0.1956 0.77885 0.0
H776 H 0.49132 0.13575 0.78642 0.0
H777 H 0.46495 0.09044 0.75574 0.0
H778 H 0.3398 0.12854 0.78213 0.0
H779 H 0.31177 0.14686 0.75488 0.0
H780 H 0.33804 0.17394 0.7774 0.0
H781 H 0.36382 0.20109 0.73005 0.0
H782 H 0.33741 0.1743 0.70737 0.0
H783 H 0.38277 0.1742 0.70223 0.0
H784 H 0.4257 0.05003 0.72679 0.0
H785 H 0.38059 0.022 0.69695 0.0
H786 H 0.31759 0.11157 0.70606 0.0
C787 C 0.41405 0.17297 0.774 0.0
C788 C 0.4472 0.16885 0.78509 0.0
C789 C 0.46582 0.13923 0.77798 0.0
C790 C 0.451 0.11339 0.76076 0.0
C791 C 0.4179 0.11807 0.75047 0.0
C792 C 0.40001 0.14749 0.75641 0.0
C793 C 0.36541 0.1472 0.74206 0.0
C794 C 0.3371 0.14924 0.76552 0.0
C795 C 0.36218 0.17589 0.71906 0.0
C796 C 0.36629 0.11282 0.72735 0.0
C797 C 0.39649 0.09604 0.73268 0.0
C798 C 0.40216 0.06315 0.72219 0.0
C799 C 0.37644 0.04738 0.70545 0.0
C800 C 0.34595 0.06486 0.69904 0.0
C801 C 0.34092 0.09784 0.71028 0.0
H802 H 0.96016 0.33563 0.73775 0.0
H803 H 0.97716 0.4154 0.67298 0.0
H804 H 0.94515 0.45547 0.70458 0.0
H805 H 0.8773 0.35469 0.75205 0.0
H806 H 0.87845 0.345 0.79114 0.0
H807 H 0.90755 0.32443 0.76624 0.0
H808 H 0.95844 0.34579 0.79755 0.0
H809 H 0.92943 0.36623 0.82281 0.0
H810 H 0.96265 0.39048 0.80529 0.0
H811 H 0.90441 0.48437 0.73991 0.0
H812 H 0.85989 0.49967 0.77627 0.0
H813 H 0.87011 0.40051 0.81728 0.0
C814 C 0.95802 0.36175 0.73052 0.0
C815 C 0.97124 0.37237 0.70291 0.0
C816 C 0.96741 0.4067 0.69413 0.0
C817 C 0.94928 0.42966 0.71195 0.0
C818 C 0.93548 0.41796 0.73856 0.0
C819 C 0.94001 0.38486 0.74794 0.0
C820 C 0.92014 0.37757 0.77594 0.0
C821 C 0.89434 0.34874 0.77102 0.0
C822 C 0.9441 0.36955 0.80194 0.0
C823 C 0.90264 0.41133 0.78028 0.0
C824 C 0.91209 0.43451 0.75878 0.0
C825 C 0.89729 0.46662 0.75715 0.0
C826 C 0.87196 0.47504 0.77783 0.0
C827 C 0.86158 0.45133 0.79967 0.0
C828 C 0.87765 0.41936 0.80107 0.0
H829 H 0.62449 0.90515 0.67779 0.0
H830 H 0.63687 0.9981 0.72831 0.0
H831 H 0.59064 0.9801 0.76199 0.0
H832 H 0.5313 0.89653 0.68696 0.0
H833 H 0.53418 0.85105 0.69053 0.0
H834 H 0.56446 0.87366 0.66796 0.0
H835 H 0.61381 0.84735 0.69829 0.0
H836 H 0.58378 0.82471 0.72085 0.0
H837 H 0.61441 0.8524 0.73807 0.0
H838 H 0.54716 0.94911 0.79297 0.0
H839 H 0.51288 0.90674 0.82007 0.0
H840 H 0.53025 0.83395 0.74937 0.0
C841 C 0.617 0.92216 0.6955 0.0
C842 C 0.63412 0.95314 0.70032 0.0
C843 C 0.62398 0.9743 0.72414 0.0
C844 C 0.59765 0.96437 0.74328 0.0
C845 C 0.58171 0.93329 0.7382 0.0
C846 C 0.59105 0.91253 0.71485 0.0
C847 C 0.57253 0.87894 0.71583 0.0
C848 C 0.54923 0.87482 0.68871 0.0
C849 C 0.59763 0.84911 0.71843 0.0
C850 C 0.55214 0.88349 0.74398 0.0
C851 C 0.55721 0.91523 0.75628 0.0
C852 C 0.54265 0.92436 0.78333 0.0
C853 C 0.52318 0.90012 0.79855 0.0
C854 C 0.51886 0.86702 0.78684 0.0
C855 C 0.53285 0.85908 0.75883 0.0
H856 H 0.04732 0.29361 0.44455 0.0
H857 H 0.9499 0.32382 0.40812 0.0
H858 H 0.92812 0.33322 0.45887 0.0
H859 H 0.01523 0.24687 0.50384 0.0
H860 H 0.04787 0.25899 0.52978 0.0
H861 H 0.05689 0.25833 0.49065 0.0
H862 H 0.07596 0.32126 0.49295 0.0
H863 H 0.0671 0.32206 0.53219 0.0
H864 H 0.04752 0.35273 0.50794 0.0
H865 H 0.91549 0.3343 0.51382 0.0
H866 H 0.9133 0.32719 0.56834 0.0
H867 H 0.01912 0.29643 0.56815 0.0
C868 C 0.0216 0.30282 0.44716 0.0
C869 C 0.00036 0.30809 0.42234 0.0
C870 C 0.9667 0.31972 0.4268 0.0
C871 C 0.95411 0.32519 0.45554 0.0
C872 C 0.97555 0.3191 0.47955 0.0
C873 C 0.00864 0.30835 0.47562 0.0
C874 C 0.02585 0.30155 0.50503 0.0
C875 C 0.0371 0.26423 0.50746 0.0
C876 C 0.05588 0.32586 0.5098 0.0
C877 C 0.99703 0.30936 0.52611 0.0
C878 C 0.96829 0.31973 0.51107 0.0
C879 C 0.93797 0.32662 0.52586 0.0
C880 C 0.93695 0.32246 0.55681 0.0
C881 C 0.96604 0.31139 0.57253 0.0
C882 C 0.9965 0.30525 0.55687 0.0
H883 H 0.73183 0.94764 0.54708 0.0
H884 H 0.68129 0.03748 0.58119 0.0
H885 H 0.67025 0.0566 0.52989 0.0
H886 H 0.77364 0.98783 0.48794 0.0
H887 H 0.76897 0.95294 0.4624 0.0
H888 H 0.77038 0.94498 0.5017 0.0
H889 H 0.71263 0.91364 0.49869 0.0
H890 H 0.71109 0.92141 0.4593 0.0
H891 H 0.67651 0.93493 0.48268 0.0
H892 H 0.66827 0.0678 0.47476 0.0
H893 H 0.67503 0.06976 0.42021 0.0
H894 H 0.72662 0.97242 0.42274 0.0
C895 C 0.71801 0.9711 0.54383 0.0
C896 C 0.70736 0.99101 0.56817 0.0
C897 C 0.68963 0.02173 0.56288 0.0
C898 C 0.6832 0.0328 0.53382 0.0
C899 C 0.69452 0.01279 0.51033 0.0
C900 C 0.7114 0.98251 0.51503 0.0
C901 C 0.72225 0.96645 0.48604 0.0
C902 C 0.76111 0.96286 0.48444 0.0
C903 C 0.70456 0.93207 0.48141 0.0
C904 C 0.70941 0.99274 0.46432 0.0
C905 C 0.6933 0.01919 0.47869 0.0
C906 C 0.68054 0.04706 0.46323 0.0
C907 C 0.68455 0.04798 0.43228 0.0
C908 C 0.70124 0.02121 0.41719 0.0
C909 C 0.71349 0.99317 0.43354 0.0
H910 H 0.04975 0.71221 0.55787 0.0
H911 H 0.94762 0.69482 0.59086 0.0
H912 H 0.92754 0.68592 0.53968 0.0
H913 H 0.02592 0.7592 0.49479 0.0
H914 H 0.05817 0.74191 0.47078 0.0
H915 H 0.06535 0.74407 0.51018 0.0
H916 H 0.07733 0.67941 0.51141 0.0
H917 H 0.07023 0.67706 0.47195 0.0
H918 H 0.04621 0.65036 0.49674 0.0
H919 H 0.91747 0.68317 0.48517 0.0
H920 H 0.91823 0.68637 0.4305 0.0
H921 H 0.02684 0.70492 0.43253 0.0
C922 C 0.02328 0.70602 0.55437 0.0
C923 C 0.00029 0.70414 0.5784 0.0
C924 C 0.96574 0.69639 0.57283 0.0
C925 C 0.95407 0.69119 0.54383 0.0
C926 C 0.97726 0.69368 0.52063 0.0
C927 C 0.01115 0.70078 0.52551 0.0
C928 C 0.03036 0.70372 0.49648 0.0
C929 C 0.04585 0.73934 0.49286 0.0
C930 C 0.05765 0.67598 0.49401 0.0
C931 C 0.00181 0.69782 0.47456 0.0
C932 C 0.97145 0.69187 0.489 0.0
C933 C 0.94115 0.6874 0.47358 0.0
C934 C 0.94183 0.68936 0.44253 0.0
C935 C 0.97261 0.69569 0.42726 0.0
C936 C 0.00301 0.69956 0.44356 0.0
H937 H 0.2928 0.05416 0.54214 0.0
H938 H 0.30887 0.95237 0.57626 0.0
H939 H 0.31291 0.93057 0.5251 0.0
H940 H 0.23918 0.03066 0.48433 0.0
H941 H 0.25482 0.06131 0.45796 0.0
H942 H 0.25762 0.06991 0.4971 0.0
H943 H 0.32253 0.07905 0.4923 0.0
H944 H 0.31989 0.07066 0.45304 0.0
H945 H 0.34841 0.04628 0.47593 0.0
H946 H 0.3096 0.9188 0.47087 0.0
H947 H 0.29962 0.91795 0.41683 0.0
H948 H 0.28536 0.02724 0.41768 0.0
C949 C 0.29801 0.02744 0.53883 0.0
C950 C 0.30072 0.00499 0.56316 0.0
C951 C 0.30677 0.97005 0.55793 0.0
C952 C 0.30921 0.95742 0.52897 0.0
C953 C 0.30561 0.98006 0.50546 0.0
C954 C 0.3003 0.01435 0.51001 0.0
C955 C 0.29471 0.03274 0.4809 0.0
C956 C 0.25949 0.04963 0.48003 0.0
C957 C 0.32308 0.05872 0.47521 0.0
C958 C 0.29686 0.00329 0.45939 0.0
C959 C 0.3035 0.97319 0.474 0.0
C960 C 0.30484 0.94225 0.45909 0.0
C961 C 0.29902 0.94202 0.42842 0.0
C962 C 0.29184 0.97252 0.41302 0.0
C963 C 0.29116 0.00355 0.42876 0.0
H964 H 0.47218 0.78968 0.91771 0.0
H965 H 0.57777 0.82104 0.91467 0.0
H966 H 0.57751 0.82806 0.96921 0.0
H967 H 0.44584 0.84626 0.97816 0.0
H968 H 0.41778 0.81492 0.9939 0.0
H969 H 0.42563 0.81538 0.9545 0.0
H970 H 0.44478 0.7525 0.95682 0.0
H971 H 0.43715 0.75186 0.99619 0.0
H972 H 0.47833 0.74045 0.98191 0.0
H973 H 0.56681 0.82716 0.02446 0.0
H974 H 0.54636 0.8192 0.07584 0.0
H975 H 0.44778 0.78868 0.04205 0.0
C976 C 0.49515 0.79855 0.92839 0.0
C977 C 0.52499 0.80489 0.91192 0.0
C978 C 0.55457 0.81614 0.92683 0.0
C979 C 0.55466 0.82023 0.95779 0.0
C980 C 0.52492 0.81316 0.97339 0.0
C981 C 0.49567 0.80276 0.95915 0.0
C982 C 0.46757 0.7951 0.98102 0.0
C983 C 0.43743 0.81937 0.97663 0.0
C984 C 0.45632 0.75777 0.97885 0.0
C985 C 0.48577 0.80212 0.00991 0.0
C986 C 0.51875 0.81273 0.00508 0.0
C987 C 0.54092 0.81924 0.0285 0.0
C988 C 0.52909 0.81457 0.05759 0.0
C989 C 0.49543 0.80343 0.06296 0.0
C990 C 0.47353 0.79752 0.03872 0.0
H991 H 0.22206 0.55291 0.94799 0.0
H992 H 0.16207 0.46723 0.91772 0.0
H993 H 0.15245 0.45002 0.96976 0.0
H994 H 0.26441 0.50973 0.00403 0.0
H995 H 0.26515 0.54462 0.02991 0.0
H996 H 0.26361 0.55286 0.99066 0.0
H997 H 0.2092 0.58893 0.99773 0.0
H998 H 0.21072 0.58103 0.03711 0.0
H999 H 0.17302 0.5707 0.01633 0.0
H1000 H 0.15359 0.43934 0.02481 0.0
H1001 H 0.1653 0.43618 0.07864 0.0
H1002 H 0.22547 0.52825 0.07246 0.0
C1003 C 0.20618 0.53101 0.95229 0.0
C1004 C 0.19261 0.51155 0.9288 0.0
C1005 C 0.1726 0.48262 0.93538 0.0
C1006 C 0.16695 0.47267 0.96486 0.0
C1007 C 0.18145 0.49193 0.98748 0.0
C1008 C 0.20051 0.5206 0.98154 0.0
C1009 C 0.2154 0.53541 0.00967 0.0
C1010 C 0.25445 0.53565 0.00848 0.0
C1011 C 0.20123 0.57114 0.01555 0.0
C1012 C 0.2024 0.51015 0.03226 0.0
C1013 C 0.18255 0.48548 0.01911 0.0
C1014 C 0.16881 0.45872 0.03541 0.0
C1015 C 0.17566 0.4571 0.06595 0.0
C1016 C 0.19629 0.48194 0.07977 0.0
C1017 C 0.20952 0.5089 0.06262 0.0
H1018 H 0.52784 0.28081 0.06722 0.0
H1019 H 0.50679 0.17424 0.08343 0.0
H1020 H 0.50579 0.16383 0.0293 0.0
H1021 H 0.47395 0.28981 0.0042 0.0
H1022 H 0.50223 0.31838 0.98509 0.0
H1023 H 0.50205 0.31696 0.02502 0.0
H1024 H 0.56668 0.30455 0.02497 0.0
H1025 H 0.56705 0.30584 0.98501 0.0
H1026 H 0.58273 0.26889 0.00419 0.0
H1027 H 0.50626 0.16557 0.97304 0.0
H1028 H 0.50717 0.17957 0.91949 0.0
H1029 H 0.52801 0.28491 0.94117 0.0
C1030 C 0.5231 0.25523 0.05946 0.0
C1031 C 0.51743 0.22833 0.07954 0.0
C1032 C 0.51122 0.19525 0.06843 0.0
C1033 C 0.51065 0.18908 0.03774 0.0
C1034 C 0.51637 0.21624 0.01856 0.0
C1035 C 0.52244 0.24864 0.02903 0.0
C1036 C 0.52724 0.27361 0.00391 0.0
C1037 C 0.49972 0.30131 0.0046 0.0
C1038 C 0.56306 0.28912 0.00457 0.0
C1039 C 0.52276 0.25025 0.97761 0.0
C1040 C 0.51662 0.21723 0.98642 0.0
C1041 C 0.51116 0.19132 0.96588 0.0
C1042 C 0.51174 0.19951 0.93555 0.0
C1043 C 0.51769 0.23331 0.92616 0.0
C1044 C 0.52349 0.2588 0.94757 0.0
H1045 H 0.8189 0.46078 0.955 0.0
H1046 H 0.79725 0.56072 0.91944 0.0
H1047 H 0.79367 0.58372 0.97039 0.0
H1048 H 0.75937 0.46555 0.0125 0.0
H1049 H 0.78427 0.4424 0.03927 0.0
H1050 H 0.7901 0.43467 0.00024 0.0
H1051 H 0.85423 0.44809 0.00521 0.0
H1052 H 0.84864 0.45568 0.04436 0.0
H1053 H 0.86738 0.48793 0.02119 0.0
H1054 H 0.78913 0.59513 0.0248 0.0
H1055 H 0.78062 0.59368 0.07906 0.0
H1056 H 0.80161 0.48551 0.07928 0.0
C1057 C 0.81432 0.48766 0.95802 0.0
C1058 C 0.80888 0.50917 0.93343 0.0
C1059 C 0.80175 0.54397 0.9381 0.0
C1060 C 0.79978 0.55724 0.9669 0.0
C1061 C 0.8046 0.53526 0.99074 0.0
C1062 C 0.81154 0.50117 0.98666 0.0
C1063 C 0.8123 0.48242 0.01601 0.0
C1064 C 0.78487 0.45463 0.01705 0.0
C1065 C 0.84775 0.46767 0.02204 0.0
C1066 C 0.80419 0.51118 0.03715 0.0
C1067 C 0.80042 0.54154 0.02216 0.0
C1068 C 0.7922 0.57155 0.03683 0.0
C1069 C 0.78741 0.57047 0.06765 0.0
C1070 C 0.79037 0.53949 0.08337 0.0
C1071 C 0.79913 0.50956 0.06786 0.0
loop_
_geom_bond_atom_site_label_1
_geom_bond_atom_site_label_2
_geom_bond_distance
_geom_bond_site_symmetry_2
_ccdc_geom_bond_type
C0 O1 1.160 . S
C0 O7 1.185 . S
O1 C0 1.160 . S
O2 Zn3 1.899 . S
O2 C10 1.284 . S
Zn3 O2 1.899 . S
Zn3 O4 2.032 . S
Zn3 O7 2.086 . S
Zn3 O12 1.977 1_455 S
O4 Zn3 2.032 . S
O4 C8 1.278 . S
C5 O6 1.203 . S
C5 O12 1.267 . S
O6 C5 1.203 . S
O7 C0 1.185 . S
O7 Zn3 2.086 . S
C8 O4 1.278 . S
C8 O9 1.211 . S
O9 C8 1.211 . S
C10 O2 1.284 . S
C10 O11 1.273 . S
O11 C10 1.273 . S
O12 Zn3 1.977 1_655 S
O12 C5 1.267 . S
C13 O14 1.160 . S
C13 O20 1.185 . S
O14 C13 1.160 . S
O15 Zn16 1.899 . S
O15 C23 1.284 . S
Zn16 O15 1.899 . S
Zn16 O17 2.032 . S
Zn16 O20 2.086 . S
Zn16 O25 1.977 1_545 S
O17 Zn16 2.032 . S
O17 C21 1.278 . S
C18 O19 1.203 . S
C18 O25 1.267 . S
O19 C18 1.203 . S
O20 C13 1.185 . S
O20 Zn16 2.086 . S
C21 O17 1.278 . S
C21 O22 1.211 . S
O22 C21 1.211 . S
C23 O15 1.284 . S
C23 O24 1.273 . S
O24 C23 1.273 . S
O25 Zn16 1.977 1_565 S
O25 C18 1.267 . S
C26 O27 1.160 . S
C26 O33 1.185 . S
O27 C26 1.160 . S
O28 Zn29 1.899 . S
O28 C36 1.284 . S
Zn29 O28 1.899 . S
Zn29 O30 2.032 . S
Zn29 O33 2.086 . S
Zn29 O38 1.977 1_655 S
O30 Zn29 2.032 . S
O30 C34 1.278 . S
C31 O32 1.203 . S
C31 O38 1.267 . S
O32 C31 1.203 . S
O33 C26 1.185 . S
O33 Zn29 2.086 . S
C34 O30 1.278 . S
C34 O35 1.211 . S
O35 C34 1.211 . S
C36 O28 1.284 . S
C36 O37 1.273 . S
O37 C36 1.273 . S
O38 Zn29 1.977 1_455 S
O38 C31 1.267 . S
C39 O40 1.160 . S
C39 O46 1.185 . S
O40 C39 1.160 . S
O41 Zn42 1.899 . S
O41 C49 1.284 . S
Zn42 O41 1.899 . S
Zn42 O43 2.032 . S
Zn42 O46 2.086 . S
Zn42 O51 1.977 1_565 S
O43 Zn42 2.032 . S
O43 C47 1.278 . S
C44 O45 1.203 . S
C44 O51 1.267 . S
O45 C44 1.203 . S
O46 C39 1.185 . S
O46 Zn42 2.086 . S
C47 O43 1.278 . S
C47 O48 1.211 . S
O48 C47 1.211 . S
C49 O41 1.284 . S
C49 O50 1.273 . S
O50 C49 1.273 . S
O51 Zn42 1.977 1_545 S
O51 C44 1.267 . S
C52 O53 1.160 . S
C52 O59 1.185 . S
O53 C52 1.160 . S
O54 Zn55 1.899 . S
O54 C62 1.284 . S
Zn55 O54 1.899 . S
Zn55 O56 2.032 . S
Zn55 O59 2.086 . S
Zn55 O64 1.977 1_455 S
O56 Zn55 2.032 . S
O56 C60 1.278 . S
C57 O58 1.203 . S
C57 O64 1.267 . S
O58 C57 1.203 . S
O59 C52 1.185 . S
O59 Zn55 2.086 . S
C60 O56 1.278 . S
C60 O61 1.211 . S
O61 C60 1.211 . S
C62 O54 1.284 . S
C62 O63 1.273 . S
O63 C62 1.273 . S
O64 Zn55 1.977 1_655 S
O64 C57 1.267 . S
C65 O66 1.160 . S
C65 O72 1.185 . S
O66 C65 1.160 . S
O67 Zn68 1.899 . S
O67 C75 1.284 . S
Zn68 O67 1.899 . S
Zn68 O69 2.032 . S
Zn68 O72 2.086 . S
Zn68 O77 1.977 1_545 S
O69 Zn68 2.032 . S
O69 C73 1.278 . S
C70 O71 1.203 . S
C70 O77 1.267 . S
O71 C70 1.203 . S
O72 C65 1.185 . S
O72 Zn68 2.086 . S
C73 O69 1.278 . S
C73 O74 1.211 . S
O74 C73 1.211 . S
C75 O67 1.284 . S
C75 O76 1.273 . S
O76 C75 1.273 . S
O77 Zn68 1.977 1_565 S
O77 C70 1.267 . S
C78 O79 1.160 . S
C78 O85 1.185 . S
O79 C78 1.160 . S
O80 Zn81 1.899 . S
O80 C88 1.284 . S
Zn81 O80 1.899 . S
Zn81 O82 2.032 . S
Zn81 O85 2.086 . S
Zn81 O90 1.977 1_655 S
O82 Zn81 2.032 . S
O82 C86 1.278 . S
C83 O84 1.203 . S
C83 O90 1.267 . S
O84 C83 1.203 . S
O85 C78 1.185 . S
O85 Zn81 2.086 . S
C86 O82 1.278 . S
C86 O87 1.211 . S
O87 C86 1.211 . S
C88 O80 1.284 . S
C88 O89 1.273 . S
O89 C88 1.273 . S
O90 Zn81 1.977 1_455 S
O90 C83 1.267 . S
C91 O92 1.160 . S
C91 O98 1.185 . S
O92 C91 1.160 . S
O93 Zn94 1.899 . S
O93 C101 1.284 . S
Zn94 O93 1.899 . S
Zn94 O95 2.032 . S
Zn94 O98 2.086 . S
Zn94 O103 1.977 1_565 S
O95 Zn94 2.032 . S
O95 C99 1.278 . S
C96 O97 1.203 . S
C96 O103 1.267 . S
O97 C96 1.203 . S
O98 C91 1.185 . S
O98 Zn94 2.086 . S
C99 O95 1.278 . S
C99 O100 1.211 . S
O100 C99 1.211 . S
C101 O93 1.284 . S
C101 O102 1.273 . S
O102 C101 1.273 . S
O103 Zn94 1.977 1_545 S
O103 C96 1.267 . S
C104 O105 1.160 . S
C104 O111 1.185 . S
O105 C104 1.160 . S
O106 Zn107 1.899 . S
O106 C114 1.284 . S
Zn107 O106 1.899 . S
Zn107 O108 2.032 . S
Zn107 O111 2.086 . S
Zn107 O116 1.977 . S
O108 Zn107 2.032 . S
O108 C112 1.278 . S
C109 O110 1.203 . S
C109 O116 1.267 . S
O110 C109 1.203 . S
O111 C104 1.185 . S
O111 Zn107 2.086 . S
C112 O108 1.278 . S
C112 O113 1.211 . S
O113 C112 1.211 . S
C114 O106 1.284 . S
C114 O115 1.273 . S
O115 C114 1.273 . S
O116 Zn107 1.977 . S
O116 C109 1.267 . S
C117 O118 1.160 . S
C117 O124 1.185 . S
O118 C117 1.160 . S
O119 Zn120 1.899 . S
O119 C127 1.284 . S
Zn120 O119 1.899 . S
Zn120 O121 2.032 . S
Zn120 O124 2.086 . S
Zn120 O129 1.977 . S
O121 Zn120 2.032 . S
O121 C125 1.278 . S
C122 O123 1.203 . S
C122 O129 1.267 . S
O123 C122 1.203 . S
O124 C117 1.185 . S
O124 Zn120 2.086 . S
C125 O121 1.278 . S
C125 O126 1.211 . S
O126 C125 1.211 . S
C127 O119 1.284 . S
C127 O128 1.273 . S
O128 C127 1.273 . S
O129 Zn120 1.977 . S
O129 C122 1.267 . S
C130 O131 1.160 . S
C130 O137 1.185 . S
O131 C130 1.160 . S
O132 Zn133 1.899 . S
O132 C140 1.284 . S
Zn133 O132 1.899 . S
Zn133 O134 2.032 . S
Zn133 O137 2.086 . S
Zn133 O142 1.977 . S
O134 Zn133 2.032 . S
O134 C138 1.278 . S
C135 O136 1.203 . S
C135 O142 1.267 . S
O136 C135 1.203 . S
O137 C130 1.185 . S
O137 Zn133 2.086 . S
C138 O134 1.278 . S
C138 O139 1.211 . S
O139 C138 1.211 . S
C140 O132 1.284 . S
C140 O141 1.273 . S
O141 C140 1.273 . S
O142 Zn133 1.977 . S
O142 C135 1.267 . S
C143 O144 1.160 . S
C143 O150 1.185 . S
O144 C143 1.160 . S
O145 Zn146 1.899 . S
O145 C153 1.284 . S
Zn146 O145 1.899 . S
Zn146 O147 2.032 . S
Zn146 O150 2.086 . S
Zn146 O155 1.977 . S
O147 Zn146 2.032 . S
O147 C151 1.278 . S
C148 O149 1.203 . S
C148 O155 1.267 . S
O149 C148 1.203 . S
O150 C143 1.185 . S
O150 Zn146 2.086 . S
C151 O147 1.278 . S
C151 O152 1.211 . S
O152 C151 1.211 . S
C153 O145 1.284 . S
C153 O154 1.273 . S
O154 C153 1.273 . S
O155 Zn146 1.977 . S
O155 C148 1.267 . S
C156 O157 1.160 . S
C156 O163 1.185 . S
O157 C156 1.160 . S
O158 Zn159 1.899 . S
O158 C166 1.284 . S
Zn159 O158 1.899 . S
Zn159 O160 2.032 . S
Zn159 O163 2.086 . S
Zn159 O168 1.977 . S
O160 Zn159 2.032 . S
O160 C164 1.278 . S
C161 O162 1.203 . S
C161 O168 1.267 . S
O162 C161 1.203 . S
O163 C156 1.185 . S
O163 Zn159 2.086 . S
C164 O160 1.278 . S
C164 O165 1.211 . S
O165 C164 1.211 . S
C166 O158 1.284 . S
C166 O167 1.273 . S
O167 C166 1.273 . S
O168 Zn159 1.977 . S
O168 C161 1.267 . S
C169 O170 1.160 . S
C169 O176 1.185 . S
O170 C169 1.160 . S
O171 Zn172 1.899 . S
O171 C179 1.284 . S
Zn172 O171 1.899 . S
Zn172 O173 2.032 . S
Zn172 O176 2.086 . S
Zn172 O181 1.977 . S
O173 Zn172 2.032 . S
O173 C177 1.278 . S
C174 O175 1.203 . S
C174 O181 1.267 . S
O175 C174 1.203 . S
O176 C169 1.185 . S
O176 Zn172 2.086 . S
C177 O173 1.278 . S
C177 O178 1.211 . S
O178 C177 1.211 . S
C179 O171 1.284 . S
C179 O180 1.273 . S
O180 C179 1.273 . S
O181 Zn172 1.977 . S
O181 C174 1.267 . S
C182 O183 1.160 . S
C182 O189 1.185 . S
O183 C182 1.160 . S
O184 Zn185 1.899 . S
O184 C192 1.284 . S
Zn185 O184 1.899 . S
Zn185 O186 2.032 . S
Zn185 O189 2.086 . S
Zn185 O194 1.977 . S
O186 Zn185 2.032 . S
O186 C190 1.278 . S
C187 O188 1.203 . S
C187 O194 1.267 . S
O188 C187 1.203 . S
O189 C182 1.185 . S
O189 Zn185 2.086 . S
C190 O186 1.278 . S
C190 O191 1.211 . S
O191 C190 1.211 . S
C192 O184 1.284 . S
C192 O193 1.273 . S
O193 C192 1.273 . S
O194 Zn185 1.977 . S
O194 C187 1.267 . S
C195 O196 1.160 . S
C195 O202 1.185 . S
O196 C195 1.160 . S
O197 Zn198 1.899 . S
O197 C205 1.284 . S
Zn198 O197 1.899 . S
Zn198 O199 2.032 . S
Zn198 O202 2.086 . S
Zn198 O207 1.977 . S
O199 Zn198 2.032 . S
O199 C203 1.278 . S
C200 O201 1.203 . S
C200 O207 1.267 . S
O201 C200 1.203 . S
O202 C195 1.185 . S
O202 Zn198 2.086 . S
C203 O199 1.278 . S
C203 O204 1.211 . S
O204 C203 1.211 . S
C205 O197 1.284 . S
C205 O206 1.273 . S
O206 C205 1.273 . S
O207 Zn198 1.977 . S
O207 C200 1.267 . S
H208 C220 0.930 . S
H209 C222 0.930 . S
H210 C223 0.930 . S
H211 C227 0.959 . S
H212 C227 0.959 . S
H213 C227 0.961 . S
H214 C228 0.960 . S
H215 C228 0.961 . S
H216 C228 0.959 . S
H217 C231 0.929 . S
H218 C232 0.931 . S
H219 C234 0.930 . S
C220 H208 0.930 . S
C220 C221 1.399 . S
C220 C225 1.399 . S
C221 C220 1.399 . S
C221 C222 1.376 . S
C222 H209 0.930 . S
C222 C221 1.376 . S
C222 C223 1.388 . S
C223 H210 0.930 . S
C223 C222 1.388 . S
C223 C224 1.390 . S
C224 C223 1.390 . S
C224 C225 1.394 . S
C224 C230 1.465 . S
C225 C220 1.399 . S
C225 C224 1.394 . S
C225 C226 1.516 . S
C226 C225 1.516 . S
C226 C227 1.502 . S
C226 C228 1.561 . S
C226 C229 1.526 . S
C227 H211 0.959 . S
C227 H212 0.959 . S
C227 H213 0.961 . S
C227 C226 1.502 . S
C228 H214 0.960 . S
C228 H215 0.961 . S
C228 H216 0.959 . S
C228 C226 1.561 . S
C229 C226 1.526 . S
C229 C230 1.396 . S
C229 C234 1.390 . S
C230 C224 1.465 . S
C230 C229 1.396 . S
C230 C231 1.399 . S
C231 H217 0.929 . S
C231 C230 1.399 . S
C231 C232 1.385 . S
C232 H218 0.931 . S
C232 C231 1.385 . S
C232 C233 1.389 . S
C233 C232 1.389 . S
C233 C234 1.387 . S
C234 H219 0.930 . S
C234 C229 1.390 . S
C234 C233 1.387 . S
H235 C247 0.930 . S
H236 C249 0.930 . S
H237 C250 0.930 . S
H238 C254 0.959 . S
H239 C254 0.959 . S
H240 C254 0.961 . S
H241 C255 0.960 . S
H242 C255 0.961 . S
H243 C255 0.959 . S
H244 C258 0.929 . S
H245 C259 0.931 . S
H246 C261 0.930 . S
C247 H235 0.930 . S
C247 C248 1.399 . S
C247 C252 1.399 . S
C248 C247 1.399 . S
C248 C249 1.376 . S
C249 H236 0.930 . S
C249 C248 1.376 . S
C249 C250 1.388 . S
C250 H237 0.930 . S
C250 C249 1.388 . S
C250 C251 1.390 . S
C251 C250 1.390 . S
C251 C252 1.394 . S
C251 C257 1.465 . S
C252 C247 1.399 . S
C252 C251 1.394 . S
C252 C253 1.516 . S
C253 C252 1.516 . S
C253 C254 1.502 . S
C253 C255 1.561 . S
C253 C256 1.526 . S
C254 H238 0.959 . S
C254 H239 0.959 . S
C254 H240 0.961 . S
C254 C253 1.502 . S
C255 H241 0.960 . S
C255 H242 0.961 . S
C255 H243 0.959 . S
C255 C253 1.561 . S
C256 C253 1.526 . S
C256 C257 1.396 . S
C256 C261 1.390 . S
C257 C251 1.465 . S
C257 C256 1.396 . S
C257 C258 1.399 . S
C258 H244 0.929 . S
C258 C257 1.399 . S
C258 C259 1.385 . S
C259 H245 0.931 . S
C259 C258 1.385 . S
C259 C260 1.389 . S
C260 C259 1.389 . S
C260 C261 1.387 . S
C261 H246 0.930 . S
C261 C256 1.390 . S
C261 C260 1.387 . S
H262 C274 0.930 . S
H263 C276 0.930 . S
H264 C277 0.930 . S
H265 C281 0.959 . S
H266 C281 0.959 . S
H267 C281 0.961 . S
H268 C282 0.960 . S
H269 C282 0.961 . S
H270 C282 0.959 . S
H271 C285 0.929 . S
H272 C286 0.931 . S
H273 C288 0.930 . S
C274 H262 0.930 . S
C274 C275 1.399 . S
C274 C279 1.399 . S
C275 C274 1.399 . S
C275 C276 1.376 . S
C276 H263 0.930 . S
C276 C275 1.376 . S
C276 C277 1.388 . S
C277 H264 0.930 . S
C277 C276 1.388 . S
C277 C278 1.390 . S
C278 C277 1.390 . S
C278 C279 1.394 . S
C278 C284 1.465 . S
C279 C274 1.399 . S
C279 C278 1.394 . S
C279 C280 1.516 . S
C280 C279 1.516 . S
C280 C281 1.502 . S
C280 C282 1.561 . S
C280 C283 1.526 . S
C281 H265 0.959 . S
C281 H266 0.959 . S
C281 H267 0.961 . S
C281 C280 1.502 . S
C282 H268 0.960 . S
C282 H269 0.961 . S
C282 H270 0.959 . S
C282 C280 1.561 . S
C283 C280 1.526 . S
C283 C284 1.396 . S
C283 C288 1.390 . S
C284 C278 1.465 . S
C284 C283 1.396 . S
C284 C285 1.399 . S
C285 H271 0.929 . S
C285 C284 1.399 . S
C285 C286 1.385 . S
C286 H272 0.931 . S
C286 C285 1.385 . S
C286 C287 1.389 . S
C287 C286 1.389 . S
C287 C288 1.387 . S
C288 H273 0.930 . S
C288 C283 1.390 . S
C288 C287 1.387 . S
H289 C301 0.930 . S
H290 C303 0.930 . S
H291 C304 0.930 . S
H292 C308 0.959 . S
H293 C308 0.959 . S
H294 C308 0.961 . S
H295 C309 0.960 . S
H296 C309 0.961 . S
H297 C309 0.959 . S
H298 C312 0.929 . S
H299 C313 0.931 . S
H300 C315 0.930 . S
C301 H289 0.930 . S
C301 C302 1.399 . S
C301 C306 1.399 . S
C302 C301 1.399 . S
C302 C303 1.376 . S
C303 H290 0.930 . S
C303 C302 1.376 . S
C303 C304 1.388 . S
C304 H291 0.930 . S
C304 C303 1.388 . S
C304 C305 1.390 . S
C305 C304 1.390 . S
C305 C306 1.394 . S
C305 C311 1.465 . S
C306 C301 1.399 . S
C306 C305 1.394 . S
C306 C307 1.516 . S
C307 C306 1.516 . S
C307 C308 1.502 . S
C307 C309 1.561 . S
C307 C310 1.526 . S
C308 H292 0.959 . S
C308 H293 0.959 . S
C308 H294 0.961 . S
C308 C307 1.502 . S
C309 H295 0.960 . S
C309 H296 0.961 . S
C309 H297 0.959 . S
C309 C307 1.561 . S
C310 C307 1.526 . S
C310 C311 1.396 . S
C310 C315 1.390 . S
C311 C305 1.465 . S
C311 C310 1.396 . S
C311 C312 1.399 . S
C312 H298 0.929 . S
C312 C311 1.399 . S
C312 C313 1.385 . S
C313 H299 0.931 . S
C313 C312 1.385 . S
C313 C314 1.389 . S
C314 C313 1.389 . S
C314 C315 1.387 . S
C315 H300 0.930 . S
C315 C310 1.390 . S
C315 C314 1.387 . S
H316 C328 0.930 . S
H317 C330 0.930 . S
H318 C331 0.930 . S
H319 C335 0.959 . S
H320 C335 0.959 . S
H321 C335 0.961 . S
H322 C336 0.960 . S
H323 C336 0.961 . S
H324 C336 0.959 . S
H325 C339 0.929 . S
H326 C340 0.931 . S
H327 C342 0.930 . S
C328 H316 0.930 . S
C328 C329 1.399 . S
C328 C333 1.399 . S
C329 C328 1.399 . S
C329 C330 1.376 . S
C330 H317 0.930 . S
C330 C329 1.376 . S
C330 C331 1.388 . S
C331 H318 0.930 . S
C331 C330 1.388 . S
C331 C332 1.390 . S
C332 C331 1.390 . S
C332 C333 1.394 . S
C332 C338 1.465 . S
C333 C328 1.399 . S
C333 C332 1.394 . S
C333 C334 1.516 . S
C334 C333 1.516 . S
C334 C335 1.502 . S
C334 C336 1.561 . S
C334 C337 1.526 . S
C335 H319 0.959 . S
C335 H320 0.959 . S
C335 H321 0.961 . S
C335 C334 1.502 . S
C336 H322 0.960 . S
C336 H323 0.961 . S
C336 H324 0.959 . S
C336 C334 1.561 . S
C337 C334 1.526 . S
C337 C338 1.396 . S
C337 C342 1.390 . S
C338 C332 1.465 . S
C338 C337 1.396 . S
C338 C339 1.399 . S
C339 H325 0.929 . S
C339 C338 1.399 . S
C339 C340 1.385 . S
C340 H326 0.931 . S
C340 C339 1.385 . S
C340 C341 1.389 . S
C341 C340 1.389 . S
C341 C342 1.387 . S
C342 H327 0.930 . S
C342 C337 1.390 . S
C342 C341 1.387 . S
H343 C355 0.930 . S
H344 C357 0.930 . S
H345 C358 0.930 . S
H346 C362 0.959 . S
H347 C362 0.959 . S
H348 C362 0.961 . S
H349 C363 0.960 . S
H350 C363 0.961 . S
H351 C363 0.959 . S
H352 C366 0.929 . S
H353 C367 0.931 . S
H354 C369 0.930 . S
C355 H343 0.930 . S
C355 C356 1.399 . S
C355 C360 1.399 . S
C356 C355 1.399 . S
C356 C357 1.376 . S
C357 H344 0.930 . S
C357 C356 1.376 . S
C357 C358 1.388 . S
C358 H345 0.930 . S
C358 C357 1.388 . S
C358 C359 1.390 . S
C359 C358 1.390 . S
C359 C360 1.394 . S
C359 C365 1.465 . S
C360 C355 1.399 . S
C360 C359 1.394 . S
C360 C361 1.516 . S
C361 C360 1.516 . S
C361 C362 1.502 . S
C361 C363 1.561 . S
C361 C364 1.526 . S
C362 H346 0.959 . S
C362 H347 0.959 . S
C362 H348 0.961 . S
C362 C361 1.502 . S
C363 H349 0.960 . S
C363 H350 0.961 . S
C363 H351 0.959 . S
C363 C361 1.561 . S
C364 C361 1.526 . S
C364 C365 1.396 . S
C364 C369 1.390 . S
C365 C359 1.465 . S
C365 C364 1.396 . S
C365 C366 1.399 . S
C366 H352 0.929 . S
C366 C365 1.399 . S
C366 C367 1.385 . S
C367 H353 0.931 . S
C367 C366 1.385 . S
C367 C368 1.389 . S
C368 C367 1.389 . S
C368 C369 1.387 . S
C369 H354 0.930 . S
C369 C364 1.390 . S
C369 C368 1.387 . S
H370 C382 0.930 . S
H371 C384 0.930 . S
H372 C385 0.930 . S
H373 C389 0.959 . S
H374 C389 0.959 . S
H375 C389 0.961 . S
H376 C390 0.960 . S
H377 C390 0.961 . S
H378 C390 0.959 . S
H379 C393 0.929 . S
H380 C394 0.931 . S
H381 C396 0.930 . S
C382 H370 0.930 . S
C382 C383 1.399 . S
C382 C387 1.399 . S
C383 C382 1.399 . S
C383 C384 1.376 . S
C384 H371 0.930 . S
C384 C383 1.376 . S
C384 C385 1.388 . S
C385 H372 0.930 . S
C385 C384 1.388 . S
C385 C386 1.390 . S
C386 C385 1.390 . S
C386 C387 1.394 . S
C386 C392 1.465 . S
C387 C382 1.399 . S
C387 C386 1.394 . S
C387 C388 1.516 . S
C388 C387 1.516 . S
C388 C389 1.502 . S
C388 C390 1.561 . S
C388 C391 1.526 . S
C389 H373 0.959 . S
C389 H374 0.959 . S
C389 H375 0.961 . S
C389 C388 1.502 . S
C390 H376 0.960 . S
C390 H377 0.961 . S
C390 H378 0.959 . S
C390 C388 1.561 . S
C391 C388 1.526 . S
C391 C392 1.396 . S
C391 C396 1.390 . S
C392 C386 1.465 . S
C392 C391 1.396 . S
C392 C393 1.399 . S
C393 H379 0.929 . S
C393 C392 1.399 . S
C393 C394 1.385 . S
C394 H380 0.931 . S
C394 C393 1.385 . S
C394 C395 1.389 . S
C395 C394 1.389 . S
C395 C396 1.387 . S
C396 H381 0.930 . S
C396 C391 1.390 . S
C396 C395 1.387 . S
H397 C409 0.930 . S
H398 C411 0.930 . S
H399 C412 0.930 . S
H400 C416 0.959 . S
H401 C416 0.959 . S
H402 C416 0.961 . S
H403 C417 0.960 . S
H404 C417 0.961 . S
H405 C417 0.959 . S
H406 C420 0.929 . S
H407 C421 0.931 . S
H408 C423 0.930 . S
C409 H397 0.930 . S
C409 C410 1.399 . S
C409 C414 1.399 . S
C410 C409 1.399 . S
C410 C411 1.376 . S
C411 H398 0.930 . S
C411 C410 1.376 . S
C411 C412 1.388 . S
C412 H399 0.930 . S
C412 C411 1.388 . S
C412 C413 1.390 . S
C413 C412 1.390 . S
C413 C414 1.394 . S
C413 C419 1.465 . S
C414 C409 1.399 . S
C414 C413 1.394 . S
C414 C415 1.516 . S
C415 C414 1.516 . S
C415 C416 1.502 . S
C415 C417 1.561 . S
C415 C418 1.526 . S
C416 H400 0.959 . S
C416 H401 0.959 . S
C416 H402 0.961 . S
C416 C415 1.502 . S
C417 H403 0.960 . S
C417 H404 0.961 . S
C417 H405 0.959 . S
C417 C415 1.561 . S
C418 C415 1.526 . S
C418 C419 1.396 . S
C418 C423 1.390 . S
C419 C413 1.465 . S
C419 C418 1.396 . S
C419 C420 1.399 . S
C420 H406 0.929 . S
C420 C419 1.399 . S
C420 C421 1.385 . S
C421 H407 0.931 . S
C421 C420 1.385 . S
C421 C422 1.389 . S
C422 C421 1.389 . S
C422 C423 1.387 . S
C423 H408 0.930 . S
C423 C418 1.390 . S
C423 C422 1.387 . S
H424 C436 0.930 . S
H425 C438 0.930 . S
H426 C439 0.930 . S
H427 C443 0.959 . S
H428 C443 0.959 . S
H429 C443 0.961 . S
H430 C444 0.960 . S
H431 C444 0.961 . S
H432 C444 0.959 . S
H433 C447 0.929 . S
H434 C448 0.931 . S
H435 C450 0.930 . S
C436 H424 0.930 . S
C436 C437 1.399 . S
C436 C441 1.399 . S
C437 C436 1.399 . S
C437 C438 1.376 . S
C438 H425 0.930 . S
C438 C437 1.376 . S
C438 C439 1.388 . S
C439 H426 0.930 . S
C439 C438 1.388 . S
C439 C440 1.390 . S
C440 C439 1.390 . S
C440 C441 1.394 . S
C440 C446 1.465 . S
C441 C436 1.399 . S
C441 C440 1.394 . S
C441 C442 1.516 . S
C442 C441 1.516 . S
C442 C443 1.502 . S
C442 C444 1.561 . S
C442 C445 1.526 . S
C443 H427 0.959 . S
C443 H428 0.959 . S
C443 H429 0.961 . S
C443 C442 1.502 . S
C444 H430 0.960 . S
C444 H431 0.961 . S
C444 H432 0.959 . S
C444 C442 1.561 . S
C445 C442 1.526 . S
C445 C446 1.396 . S
C445 C450 1.390 . S
C446 C440 1.465 . S
C446 C445 1.396 . S
C446 C447 1.399 . S
C447 H433 0.929 . S
C447 C446 1.399 . S
C447 C448 1.385 . S
C448 H434 0.931 . S
C448 C447 1.385 . S
C448 C449 1.389 . S
C449 C448 1.389 . S
C449 C450 1.387 . S
C450 H435 0.930 . S
C450 C445 1.390 . S
C450 C449 1.387 . S
H451 C463 0.930 . S
H452 C465 0.930 . S
H453 C466 0.930 . S
H454 C470 0.959 . S
H455 C470 0.959 . S
H456 C470 0.961 . S
H457 C471 0.960 . S
H458 C471 0.961 . S
H459 C471 0.959 . S
H460 C474 0.929 . S
H461 C475 0.931 . S
H462 C477 0.930 . S
C463 H451 0.930 . S
C463 C464 1.399 . S
C463 C468 1.399 . S
C464 C463 1.399 . S
C464 C465 1.376 . S
C465 H452 0.930 . S
C465 C464 1.376 . S
C465 C466 1.388 . S
C466 H453 0.930 . S
C466 C465 1.388 . S
C466 C467 1.390 . S
C467 C466 1.390 . S
C467 C468 1.394 . S
C467 C473 1.465 . S
C468 C463 1.399 . S
C468 C467 1.394 . S
C468 C469 1.516 . S
C469 C468 1.516 . S
C469 C470 1.502 . S
C469 C471 1.561 . S
C469 C472 1.526 . S
C470 H454 0.959 . S
C470 H455 0.959 . S
C470 H456 0.961 . S
C470 C469 1.502 . S
C471 H457 0.960 . S
C471 H458 0.961 . S
C471 H459 0.959 . S
C471 C469 1.561 . S
C472 C469 1.526 . S
C472 C473 1.396 . S
C472 C477 1.390 . S
C473 C467 1.465 . S
C473 C472 1.396 . S
C473 C474 1.399 . S
C474 H460 0.929 . S
C474 C473 1.399 . S
C474 C475 1.385 . S
C475 H461 0.931 . S
C475 C474 1.385 . S
C475 C476 1.389 . S
C476 C475 1.389 . S
C476 C477 1.387 . S
C477 H462 0.930 . S
C477 C472 1.390 . S
C477 C476 1.387 . S
H478 C490 0.930 . S
H479 C492 0.930 . S
H480 C493 0.930 . S
H481 C497 0.959 . S
H482 C497 0.959 . S
H483 C497 0.961 . S
H484 C498 0.960 . S
H485 C498 0.961 . S
H486 C498 0.959 . S
H487 C501 0.929 . S
H488 C502 0.931 . S
H489 C504 0.930 . S
C490 H478 0.930 . S
C490 C491 1.399 . S
C490 C495 1.399 . S
C491 C490 1.399 . S
C491 C492 1.376 . S
C492 H479 0.930 . S
C492 C491 1.376 . S
C492 C493 1.388 . S
C493 H480 0.930 . S
C493 C492 1.388 . S
C493 C494 1.390 . S
C494 C493 1.390 . S
C494 C495 1.394 . S
C494 C500 1.465 . S
C495 C490 1.399 . S
C495 C494 1.394 . S
C495 C496 1.516 . S
C496 C495 1.516 . S
C496 C497 1.502 . S
C496 C498 1.561 . S
C496 C499 1.526 . S
C497 H481 0.959 . S
C497 H482 0.959 . S
C497 H483 0.961 . S
C497 C496 1.502 . S
C498 H484 0.960 . S
C498 H485 0.961 . S
C498 H486 0.959 . S
C498 C496 1.561 . S
C499 C496 1.526 . S
C499 C500 1.396 . S
C499 C504 1.390 . S
C500 C494 1.465 . S
C500 C499 1.396 . S
C500 C501 1.399 . S
C501 H487 0.929 . S
C501 C500 1.399 . S
C501 C502 1.385 . S
C502 H488 0.931 . S
C502 C501 1.385 . S
C502 C503 1.389 . S
C503 C502 1.389 . S
C503 C504 1.387 . S
C504 H489 0.930 . S
C504 C499 1.390 . S
C504 C503 1.387 . S
H505 C517 0.930 . S
H506 C519 0.930 . S
H507 C520 0.930 . S
H508 C524 0.959 . S
H509 C524 0.959 . S
H510 C524 0.961 . S
H511 C525 0.960 . S
H512 C525 0.961 . S
H513 C525 0.959 . S
H514 C528 0.929 . S
H515 C529 0.931 . S
H516 C531 0.930 . S
C517 H505 0.930 . S
C517 C518 1.399 . S
C517 C522 1.399 . S
C518 C517 1.399 . S
C518 C519 1.376 . S
C519 H506 0.930 . S
C519 C518 1.376 . S
C519 C520 1.388 . S
C520 H507 0.930 . S
C520 C519 1.388 . S
C520 C521 1.390 . S
C521 C520 1.390 . S
C521 C522 1.394 . S
C521 C527 1.465 . S
C522 C517 1.399 . S
C522 C521 1.394 . S
C522 C523 1.516 . S
C523 C522 1.516 . S
C523 C524 1.502 . S
C523 C525 1.561 . S
C523 C526 1.526 . S
C524 H508 0.959 . S
C524 H509 0.959 . S
C524 H510 0.961 . S
C524 C523 1.502 . S
C525 H511 0.960 . S
C525 H512 0.961 . S
C525 H513 0.959 . S
C525 C523 1.561 . S
C526 C523 1.526 . S
C526 C527 1.396 . S
C526 C531 1.390 . S
C527 C521 1.465 . S
C527 C526 1.396 . S
C527 C528 1.399 . S
C528 H514 0.929 . S
C528 C527 1.399 . S
C528 C529 1.385 . S
C529 H515 0.931 . S
C529 C528 1.385 . S
C529 C530 1.389 . S
C530 C529 1.389 . S
C530 C531 1.387 . S
C531 H516 0.930 . S
C531 C526 1.390 . S
C531 C530 1.387 . S
H532 C544 0.930 . S
H533 C546 0.930 . S
H534 C547 0.930 . S
H535 C551 0.959 . S
H536 C551 0.959 . S
H537 C551 0.961 . S
H538 C552 0.960 . S
H539 C552 0.961 . S
H540 C552 0.959 . S
H541 C555 0.929 . S
H542 C556 0.931 . S
H543 C558 0.930 . S
C544 H532 0.930 . S
C544 C545 1.399 . S
C544 C549 1.399 . S
C545 C544 1.399 . S
C545 C546 1.376 . S
C546 H533 0.930 . S
C546 C545 1.376 . S
C546 C547 1.388 . S
C547 H534 0.930 . S
C547 C546 1.388 . S
C547 C548 1.390 . S
C548 C547 1.390 . S
C548 C549 1.394 . S
C548 C554 1.465 . S
C549 C544 1.399 . S
C549 C548 1.394 . S
C549 C550 1.516 . S
C550 C549 1.516 . S
C550 C551 1.502 . S
C550 C552 1.561 . S
C550 C553 1.526 . S
C551 H535 0.959 . S
C551 H536 0.959 . S
C551 H537 0.961 . S
C551 C550 1.502 . S
C552 H538 0.960 . S
C552 H539 0.961 . S
C552 H540 0.959 . S
C552 C550 1.561 . S
C553 C550 1.526 . S
C553 C554 1.396 . S
C553 C558 1.390 . S
C554 C548 1.465 . S
C554 C553 1.396 . S
C554 C555 1.399 . S
C555 H541 0.929 . S
C555 C554 1.399 . S
C555 C556 1.385 . S
C556 H542 0.931 . S
C556 C555 1.385 . S
C556 C557 1.389 . S
C557 C556 1.389 . S
C557 C558 1.387 . S
C558 H543 0.930 . S
C558 C553 1.390 . S
C558 C557 1.387 . S
H559 C571 0.930 . S
H560 C573 0.930 . S
H561 C574 0.930 . S
H562 C578 0.959 . S
H563 C578 0.959 . S
H564 C578 0.961 . S
H565 C579 0.960 . S
H566 C579 0.961 . S
H567 C579 0.959 . S
H568 C582 0.929 . S
H569 C583 0.931 . S
H570 C585 0.930 . S
C571 H559 0.930 . S
C571 C572 1.399 . S
C571 C576 1.399 . S
C572 C571 1.399 . S
C572 C573 1.376 . S
C573 H560 0.930 . S
C573 C572 1.376 . S
C573 C574 1.388 . S
C574 H561 0.930 . S
C574 C573 1.388 . S
C574 C575 1.390 . S
C575 C574 1.390 . S
C575 C576 1.394 . S
C575 C581 1.465 . S
C576 C571 1.399 . S
C576 C575 1.394 . S
C576 C577 1.516 . S
C577 C576 1.516 . S
C577 C578 1.502 . S
C577 C579 1.561 . S
C577 C580 1.526 . S
C578 H562 0.959 . S
C578 H563 0.959 . S
C578 H564 0.961 . S
C578 C577 1.502 . S
C579 H565 0.960 . S
C579 H566 0.961 . S
C579 H567 0.959 . S
C579 C577 1.561 . S
C580 C577 1.526 . S
C580 C581 1.396 . S
C580 C585 1.390 . S
C581 C575 1.465 . S
C581 C580 1.396 . S
C581 C582 1.399 . S
C582 H568 0.929 . S
C582 C581 1.399 . S
C582 C583 1.385 . S
C583 H569 0.931 . S
C583 C582 1.385 . S
C583 C584 1.389 . S
C584 C583 1.389 . S
C584 C585 1.387 . S
C585 H570 0.930 . S
C585 C580 1.390 . S
C585 C584 1.387 . S
H586 C598 0.930 . S
H587 C600 0.930 . S
H588 C601 0.930 . S
H589 C605 0.959 . S
H590 C605 0.959 . S
H591 C605 0.961 . S
H592 C606 0.960 . S
H593 C606 0.961 . S
H594 C606 0.959 . S
H595 C609 0.929 . S
H596 C610 0.931 . S
H597 C612 0.930 . S
C598 H586 0.930 . S
C598 C599 1.399 . S
C598 C603 1.399 . S
C599 C598 1.399 . S
C599 C600 1.376 . S
C600 H587 0.930 . S
C600 C599 1.376 . S
C600 C601 1.388 . S
C601 H588 0.930 . S
C601 C600 1.388 . S
C601 C602 1.390 . S
C602 C601 1.390 . S
C602 C603 1.394 . S
C602 C608 1.465 . S
C603 C598 1.399 . S
C603 C602 1.394 . S
C603 C604 1.516 . S
C604 C603 1.516 . S
C604 C605 1.502 . S
C604 C606 1.561 . S
C604 C607 1.526 . S
C605 H589 0.959 . S
C605 H590 0.959 . S
C605 H591 0.961 . S
C605 C604 1.502 . S
C606 H592 0.960 . S
C606 H593 0.961 . S
C606 H594 0.959 . S
C606 C604 1.561 . S
C607 C604 1.526 . S
C607 C608 1.396 . S
C607 C612 1.390 . S
C608 C602 1.465 . S
C608 C607 1.396 . S
C608 C609 1.399 . S
C609 H595 0.929 . S
C609 C608 1.399 . S
C609 C610 1.385 . S
C610 H596 0.931 . S
C610 C609 1.385 . S
C610 C611 1.389 . S
C611 C610 1.389 . S
C611 C612 1.387 . S
C612 H597 0.930 . S
C612 C607 1.390 . S
C612 C611 1.387 . S
H613 C625 0.930 . S
H614 C627 0.930 . S
H615 C628 0.930 . S
H616 C632 0.959 . S
H617 C632 0.959 . S
H618 C632 0.961 . S
H619 C633 0.960 . S
H620 C633 0.961 . S
H621 C633 0.959 . S
H622 C636 0.929 . S
H623 C637 0.931 . S
H624 C639 0.930 . S
C625 H613 0.930 . S
C625 C626 1.399 . S
C625 C630 1.399 . S
C626 C625 1.399 . S
C626 C627 1.376 . S
C627 H614 0.930 . S
C627 C626 1.376 . S
C627 C628 1.388 . S
C628 H615 0.930 . S
C628 C627 1.388 . S
C628 C629 1.390 . S
C629 C628 1.390 . S
C629 C630 1.394 . S
C629 C635 1.465 . S
C630 C625 1.399 . S
C630 C629 1.394 . S
C630 C631 1.516 . S
C631 C630 1.516 . S
C631 C632 1.502 . S
C631 C633 1.561 . S
C631 C634 1.526 . S
C632 H616 0.959 . S
C632 H617 0.959 . S
C632 H618 0.961 . S
C632 C631 1.502 . S
C633 H619 0.960 . S
C633 H620 0.961 . S
C633 H621 0.959 . S
C633 C631 1.561 . S
C634 C631 1.526 . S
C634 C635 1.396 . S
C634 C639 1.390 . S
C635 C629 1.465 . S
C635 C634 1.396 . S
C635 C636 1.399 . S
C636 H622 0.929 . S
C636 C635 1.399 . S
C636 C637 1.385 . S
C637 H623 0.931 . S
C637 C636 1.385 . S
C637 C638 1.389 . S
C638 C637 1.389 . S
C638 C639 1.387 . S
C639 H624 0.930 . S
C639 C634 1.390 . S
C639 C638 1.387 . S
H640 C652 0.930 . S
H641 C654 0.930 . S
H642 C655 0.930 . S
H643 C659 0.959 . S
H644 C659 0.959 . S
H645 C659 0.961 . S
H646 C660 0.960 . S
H647 C660 0.961 . S
H648 C660 0.959 . S
H649 C663 0.929 . S
H650 C664 0.931 . S
H651 C666 0.930 . S
C652 H640 0.930 . S
C652 C653 1.399 . S
C652 C657 1.399 . S
C653 C652 1.399 . S
C653 C654 1.376 . S
C654 H641 0.930 . S
C654 C653 1.376 . S
C654 C655 1.388 . S
C655 H642 0.930 . S
C655 C654 1.388 . S
C655 C656 1.390 . S
C656 C655 1.390 . S
C656 C657 1.394 . S
C656 C662 1.465 . S
C657 C652 1.399 . S
C657 C656 1.394 . S
C657 C658 1.516 . S
C658 C657 1.516 . S
C658 C659 1.502 . S
C658 C660 1.561 . S
C658 C661 1.526 . S
C659 H643 0.959 . S
C659 H644 0.959 . S
C659 H645 0.961 . S
C659 C658 1.502 . S
C660 H646 0.960 . S
C660 H647 0.961 . S
C660 H648 0.959 . S
C660 C658 1.561 . S
C661 C658 1.526 . S
C661 C662 1.396 . S
C661 C666 1.390 . S
C662 C656 1.465 . S
C662 C661 1.396 . S
C662 C663 1.399 . S
C663 H649 0.929 . S
C663 C662 1.399 . S
C663 C664 1.385 . S
C664 H650 0.931 . S
C664 C663 1.385 . S
C664 C665 1.389 . S
C665 C664 1.389 . S
C665 C666 1.387 . S
C666 H651 0.930 . S
C666 C661 1.390 . S
C666 C665 1.387 . S
H667 C679 0.930 . S
H668 C681 0.930 . S
H669 C682 0.930 . S
H670 C686 0.959 . S
H671 C686 0.959 . S
H672 C686 0.961 . S
H673 C687 0.960 . S
H674 C687 0.961 . S
H675 C687 0.959 . S
H676 C690 0.929 . S
H677 C691 0.931 . S
H678 C693 0.930 . S
C679 H667 0.930 . S
C679 C680 1.399 . S
C679 C684 1.399 . S
C680 C679 1.399 . S
C680 C681 1.376 . S
C681 H668 0.930 . S
C681 C680 1.376 . S
C681 C682 1.388 . S
C682 H669 0.930 . S
C682 C681 1.388 . S
C682 C683 1.390 . S
C683 C682 1.390 . S
C683 C684 1.394 . S
C683 C689 1.465 . S
C684 C679 1.399 . S
C684 C683 1.394 . S
C684 C685 1.516 . S
C685 C684 1.516 . S
C685 C686 1.502 . S
C685 C687 1.561 . S
C685 C688 1.526 . S
C686 H670 0.959 . S
C686 H671 0.959 . S
C686 H672 0.961 . S
C686 C685 1.502 . S
C687 H673 0.960 . S
C687 H674 0.961 . S
C687 H675 0.959 . S
C687 C685 1.561 . S
C688 C685 1.526 . S
C688 C689 1.396 . S
C688 C693 1.390 . S
C689 C683 1.465 . S
C689 C688 1.396 . S
C689 C690 1.399 . S
C690 H676 0.929 . S
C690 C689 1.399 . S
C690 C691 1.385 . S
C691 H677 0.931 . S
C691 C690 1.385 . S
C691 C692 1.389 . S
C692 C691 1.389 . S
C692 C693 1.387 . S
C693 H678 0.930 . S
C693 C688 1.390 . S
C693 C692 1.387 . S
H694 C706 0.930 . S
H695 C708 0.930 . S
H696 C709 0.930 . S
H697 C713 0.959 . S
H698 C713 0.959 . S
H699 C713 0.961 . S
H700 C714 0.960 . S
H701 C714 0.961 . S
H702 C714 0.959 . S
H703 C717 0.929 . S
H704 C718 0.931 . S
H705 C720 0.930 . S
C706 H694 0.930 . S
C706 C707 1.399 . S
C706 C711 1.399 . S
C707 C706 1.399 . S
C707 C708 1.376 . S
C708 H695 0.930 . S
C708 C707 1.376 . S
C708 C709 1.388 . S
C709 H696 0.930 . S
C709 C708 1.388 . S
C709 C710 1.390 . S
C710 C709 1.390 . S
C710 C711 1.394 . S
C710 C716 1.465 . S
C711 C706 1.399 . S
C711 C710 1.394 . S
C711 C712 1.516 . S
C712 C711 1.516 . S
C712 C713 1.502 . S
C712 C714 1.561 . S
C712 C715 1.526 . S
C713 H697 0.959 . S
C713 H698 0.959 . S
C713 H699 0.961 . S
C713 C712 1.502 . S
C714 H700 0.960 . S
C714 H701 0.961 . S
C714 H702 0.959 . S
C714 C712 1.561 . S
C715 C712 1.526 . S
C715 C716 1.396 . S
C715 C720 1.390 . S
C716 C710 1.465 . S
C716 C715 1.396 . S
C716 C717 1.399 . S
C717 H703 0.929 . S
C717 C716 1.399 . S
C717 C718 1.385 . S
C718 H704 0.931 . S
C718 C717 1.385 . S
C718 C719 1.389 . S
C719 C718 1.389 . S
C719 C720 1.387 . S
C720 H705 0.930 . S
C720 C715 1.390 . S
C720 C719 1.387 . S
H721 C733 0.930 . S
H722 C735 0.930 . S
H723 C736 0.930 . S
H724 C740 0.959 . S
H725 C740 0.959 . S
H726 C740 0.961 . S
H727 C741 0.960 . S
H728 C741 0.961 . S
H729 C741 0.959 . S
H730 C744 0.929 . S
H731 C745 0.931 . S
H732 C747 0.930 . S
C733 H721 0.930 . S
C733 C734 1.399 . S
C733 C738 1.399 . S
C734 C733 1.399 . S
C734 C735 1.376 . S
C735 H722 0.930 . S
C735 C734 1.376 . S
C735 C736 1.388 . S
C736 H723 0.930 . S
C736 C735 1.388 . S
C736 C737 1.390 . S
C737 C736 1.390 . S
C737 C738 1.394 . S
C737 C743 1.465 . S
C738 C733 1.399 . S
C738 C737 1.394 . S
C738 C739 1.516 . S
C739 C738 1.516 . S
C739 C740 1.502 . S
C739 C741 1.561 . S
C739 C742 1.526 . S
C740 H724 0.959 . S
C740 H725 0.959 . S
C740 H726 0.961 . S
C740 C739 1.502 . S
C741 H727 0.960 . S
C741 H728 0.961 . S
C741 H729 0.959 . S
C741 C739 1.561 . S
C742 C739 1.526 . S
C742 C743 1.396 . S
C742 C747 1.390 . S
C743 C737 1.465 . S
C743 C742 1.396 . S
C743 C744 1.399 . S
C744 H730 0.929 . S
C744 C743 1.399 . S
C744 C745 1.385 . S
C745 H731 0.931 . S
C745 C744 1.385 . S
C745 C746 1.389 . S
C746 C745 1.389 . S
C746 C747 1.387 . S
C747 H732 0.930 . S
C747 C742 1.390 . S
C747 C746 1.387 . S
H748 C760 0.930 . S
H749 C762 0.930 . S
H750 C763 0.930 . S
H751 C767 0.959 . S
H752 C767 0.959 . S
H753 C767 0.961 . S
H754 C768 0.960 . S
H755 C768 0.961 . S
H756 C768 0.959 . S
H757 C771 0.929 . S
H758 C772 0.931 . S
H759 C774 0.930 . S
C760 H748 0.930 . S
C760 C761 1.399 . S
C760 C765 1.399 . S
C761 C760 1.399 . S
C761 C762 1.376 . S
C762 H749 0.930 . S
C762 C761 1.376 . S
C762 C763 1.388 . S
C763 H750 0.930 . S
C763 C762 1.388 . S
C763 C764 1.390 . S
C764 C763 1.390 . S
C764 C765 1.394 . S
C764 C770 1.465 . S
C765 C760 1.399 . S
C765 C764 1.394 . S
C765 C766 1.516 . S
C766 C765 1.516 . S
C766 C767 1.502 . S
C766 C768 1.561 . S
C766 C769 1.526 . S
C767 H751 0.959 . S
C767 H752 0.959 . S
C767 H753 0.961 . S
C767 C766 1.502 . S
C768 H754 0.960 . S
C768 H755 0.961 . S
C768 H756 0.959 . S
C768 C766 1.561 . S
C769 C766 1.526 . S
C769 C770 1.396 . S
C769 C774 1.390 . S
C770 C764 1.465 . S
C770 C769 1.396 . S
C770 C771 1.399 . S
C771 H757 0.929 . S
C771 C770 1.399 . S
C771 C772 1.385 . S
C772 H758 0.931 . S
C772 C771 1.385 . S
C772 C773 1.389 . S
C773 C772 1.389 . S
C773 C774 1.387 . S
C774 H759 0.930 . S
C774 C769 1.390 . S
C774 C773 1.387 . S
H775 C787 0.930 . S
H776 C789 0.930 . S
H777 C790 0.930 . S
H778 C794 0.959 . S
H779 C794 0.959 . S
H780 C794 0.961 . S
H781 C795 0.960 . S
H782 C795 0.961 . S
H783 C795 0.959 . S
H784 C798 0.929 . S
H785 C799 0.931 . S
H786 C801 0.930 . S
C787 H775 0.930 . S
C787 C788 1.399 . S
C787 C792 1.399 . S
C788 C787 1.399 . S
C788 C789 1.376 . S
C789 H776 0.930 . S
C789 C788 1.376 . S
C789 C790 1.388 . S
C790 H777 0.930 . S
C790 C789 1.388 . S
C790 C791 1.390 . S
C791 C790 1.390 . S
C791 C792 1.394 . S
C791 C797 1.465 . S
C792 C787 1.399 . S
C792 C791 1.394 . S
C792 C793 1.516 . S
C793 C792 1.516 . S
C793 C794 1.502 . S
C793 C795 1.561 . S
C793 C796 1.526 . S
C794 H778 0.959 . S
C794 H779 0.959 . S
C794 H780 0.961 . S
C794 C793 1.502 . S
C795 H781 0.960 . S
C795 H782 0.961 . S
C795 H783 0.959 . S
C795 C793 1.561 . S
C796 C793 1.526 . S
C796 C797 1.396 . S
C796 C801 1.390 . S
C797 C791 1.465 . S
C797 C796 1.396 . S
C797 C798 1.399 . S
C798 H784 0.929 . S
C798 C797 1.399 . S
C798 C799 1.385 . S
C799 H785 0.931 . S
C799 C798 1.385 . S
C799 C800 1.389 . S
C800 C799 1.389 . S
C800 C801 1.387 . S
C801 H786 0.930 . S
C801 C796 1.390 . S
C801 C800 1.387 . S
H802 C814 0.930 . S
H803 C816 0.930 . S
H804 C817 0.930 . S
H805 C821 0.959 . S
H806 C821 0.959 . S
H807 C821 0.961 . S
H808 C822 0.960 . S
H809 C822 0.961 . S
H810 C822 0.959 . S
H811 C825 0.929 . S
H812 C826 0.931 . S
H813 C828 0.930 . S
C814 H802 0.930 . S
C814 C815 1.399 . S
C814 C819 1.399 . S
C815 C814 1.399 . S
C815 C816 1.376 . S
C816 H803 0.930 . S
C816 C815 1.376 . S
C816 C817 1.388 . S
C817 H804 0.930 . S
C817 C816 1.388 . S
C817 C818 1.390 . S
C818 C817 1.390 . S
C818 C819 1.394 . S
C818 C824 1.465 . S
C819 C814 1.399 . S
C819 C818 1.394 . S
C819 C820 1.516 . S
C820 C819 1.516 . S
C820 C821 1.502 . S
C820 C822 1.561 . S
C820 C823 1.526 . S
C821 H805 0.959 . S
C821 H806 0.959 . S
C821 H807 0.961 . S
C821 C820 1.502 . S
C822 H808 0.960 . S
C822 H809 0.961 . S
C822 H810 0.959 . S
C822 C820 1.561 . S
C823 C820 1.526 . S
C823 C824 1.396 . S
C823 C828 1.390 . S
C824 C818 1.465 . S
C824 C823 1.396 . S
C824 C825 1.399 . S
C825 H811 0.929 . S
C825 C824 1.399 . S
C825 C826 1.385 . S
C826 H812 0.931 . S
C826 C825 1.385 . S
C826 C827 1.389 . S
C827 C826 1.389 . S
C827 C828 1.387 . S
C828 H813 0.930 . S
C828 C823 1.390 . S
C828 C827 1.387 . S
H829 C841 0.930 . S
H830 C843 0.930 . S
H831 C844 0.930 . S
H832 C848 0.959 . S
H833 C848 0.959 . S
H834 C848 0.961 . S
H835 C849 0.960 . S
H836 C849 0.961 . S
H837 C849 0.959 . S
H838 C852 0.929 . S
H839 C853 0.931 . S
H840 C855 0.930 . S
C841 H829 0.930 . S
C841 C842 1.399 . S
C841 C846 1.399 . S
C842 C841 1.399 . S
C842 C843 1.376 . S
C843 H830 0.930 . S
C843 C842 1.376 . S
C843 C844 1.388 . S
C844 H831 0.930 . S
C844 C843 1.388 . S
C844 C845 1.390 . S
C845 C844 1.390 . S
C845 C846 1.394 . S
C845 C851 1.465 . S
C846 C841 1.399 . S
C846 C845 1.394 . S
C846 C847 1.516 . S
C847 C846 1.516 . S
C847 C848 1.502 . S
C847 C849 1.561 . S
C847 C850 1.526 . S
C848 H832 0.959 . S
C848 H833 0.959 . S
C848 H834 0.961 . S
C848 C847 1.502 . S
C849 H835 0.960 . S
C849 H836 0.961 . S
C849 H837 0.959 . S
C849 C847 1.561 . S
C850 C847 1.526 . S
C850 C851 1.396 . S
C850 C855 1.390 . S
C851 C845 1.465 . S
C851 C850 1.396 . S
C851 C852 1.399 . S
C852 H838 0.929 . S
C852 C851 1.399 . S
C852 C853 1.385 . S
C853 H839 0.931 . S
C853 C852 1.385 . S
C853 C854 1.389 . S
C854 C853 1.389 . S
C854 C855 1.387 . S
C855 H840 0.930 . S
C855 C850 1.390 . S
C855 C854 1.387 . S
H856 C868 0.930 . S
H857 C870 0.930 . S
H858 C871 0.930 . S
H859 C875 0.959 . S
H860 C875 0.959 . S
H861 C875 0.961 . S
H862 C876 0.960 . S
H863 C876 0.961 . S
H864 C876 0.959 . S
H865 C879 0.929 . S
H866 C880 0.931 . S
H867 C882 0.930 . S
C868 H856 0.930 . S
C868 C869 1.399 . S
C868 C873 1.399 . S
C869 C868 1.399 . S
C869 C870 1.376 1_455 S
C870 H857 0.930 . S
C870 C869 1.376 1_655 S
C870 C871 1.388 . S
C871 H858 0.930 . S
C871 C870 1.388 . S
C871 C872 1.390 . S
C872 C871 1.390 . S
C872 C873 1.394 1_655 S
C872 C878 1.465 . S
C873 C868 1.399 . S
C873 C872 1.394 1_455 S
C873 C874 1.516 . S
C874 C873 1.516 . S
C874 C875 1.502 . S
C874 C876 1.561 1_455 S
C874 C877 1.526 . S
C875 H859 0.959 . S
C875 H860 0.959 . S
C875 H861 0.961 . S
C875 C874 1.502 . S
C876 H862 0.960 . S
C876 H863 0.961 . S
C876 H864 0.959 . S
C876 C874 1.561 1_655 S
C877 C874 1.526 . S
C877 C878 1.396 1_455 S
C877 C882 1.390 . S
C878 C872 1.465 . S
C878 C877 1.396 1_655 S
C878 C879 1.399 . S
C879 H865 0.929 . S
C879 C878 1.399 . S
C879 C880 1.385 . S
C880 H866 0.931 . S
C880 C879 1.385 . S
C880 C881 1.389 . S
C881 C880 1.389 . S
C881 C882 1.387 1_655 S
C882 H867 0.930 . S
C882 C877 1.390 . S
C882 C881 1.387 1_455 S
H883 C895 0.930 . S
H884 C897 0.930 . S
H885 C898 0.930 . S
H886 C902 0.959 . S
H887 C902 0.959 . S
H888 C902 0.961 . S
H889 C903 0.960 . S
H890 C903 0.961 . S
H891 C903 0.959 . S
H892 C906 0.929 . S
H893 C907 0.931 . S
H894 C909 0.930 . S
C895 H883 0.930 . S
C895 C896 1.399 . S
C895 C900 1.399 . S
C896 C895 1.399 . S
C896 C897 1.376 1_565 S
C897 H884 0.930 . S
C897 C896 1.376 1_545 S
C897 C898 1.388 . S
C898 H885 0.930 . S
C898 C897 1.388 . S
C898 C899 1.390 . S
C899 C898 1.390 . S
C899 C900 1.394 1_545 S
C899 C905 1.465 . S
C900 C895 1.399 . S
C900 C899 1.394 1_565 S
C900 C901 1.516 . S
C901 C900 1.516 . S
C901 C902 1.502 . S
C901 C903 1.561 . S
C901 C904 1.526 . S
C902 H886 0.959 . S
C902 H887 0.959 . S
C902 H888 0.961 . S
C902 C901 1.502 . S
C903 H889 0.960 . S
C903 H890 0.961 . S
C903 H891 0.959 . S
C903 C901 1.561 . S
C904 C901 1.526 . S
C904 C905 1.396 1_565 S
C904 C909 1.390 . S
C905 C899 1.465 . S
C905 C904 1.396 1_545 S
C905 C906 1.399 . S
C906 H892 0.929 . S
C906 C905 1.399 . S
C906 C907 1.385 . S
C907 H893 0.931 . S
C907 C906 1.385 . S
C907 C908 1.389 . S
C908 C907 1.389 . S
C908 C909 1.387 1_545 S
C909 H894 0.930 . S
C909 C904 1.390 . S
C909 C908 1.387 1_565 S
H910 C922 0.930 . S
H911 C924 0.930 . S
H912 C925 0.930 . S
H913 C929 0.959 . S
H914 C929 0.959 . S
H915 C929 0.961 . S
H916 C930 0.960 . S
H917 C930 0.961 . S
H918 C930 0.959 . S
H919 C933 0.929 . S
H920 C934 0.931 . S
H921 C936 0.930 . S
C922 H910 0.930 . S
C922 C923 1.399 . S
C922 C927 1.399 . S
C923 C922 1.399 . S
C923 C924 1.376 1_455 S
C924 H911 0.930 . S
C924 C923 1.376 1_655 S
C924 C925 1.388 . S
C925 H912 0.930 . S
C925 C924 1.388 . S
C925 C926 1.390 . S
C926 C925 1.390 . S
C926 C927 1.394 1_655 S
C926 C932 1.465 . S
C927 C922 1.399 . S
C927 C926 1.394 1_455 S
C927 C928 1.516 . S
C928 C927 1.516 . S
C928 C929 1.502 . S
C928 C930 1.561 1_455 S
C928 C931 1.530 . S
C929 H913 0.959 . S
C929 H914 0.959 . S
C929 H915 0.961 . S
C929 C928 1.502 . S
C930 H916 0.960 . S
C930 H917 0.961 . S
C930 H918 0.959 . S
C930 C928 1.561 1_655 S
C931 C928 1.530 . S
C931 C932 1.391 1_455 S
C931 C936 1.390 . S
C932 C926 1.465 . S
C932 C931 1.391 1_655 S
C932 C933 1.399 . S
C933 H919 0.929 . S
C933 C932 1.399 . S
C933 C934 1.385 . S
C934 H920 0.931 . S
C934 C933 1.385 . S
C934 C935 1.389 . S
C935 C934 1.389 . S
C935 C936 1.387 1_655 S
C936 H921 0.930 . S
C936 C931 1.390 . S
C936 C935 1.387 1_455 S
H937 C949 0.930 . S
H938 C951 0.930 . S
H939 C952 0.930 . S
H940 C956 0.959 . S
H941 C956 0.959 . S
H942 C956 0.961 . S
H943 C957 0.960 . S
H944 C957 0.961 . S
H945 C957 0.959 . S
H946 C960 0.929 . S
H947 C961 0.931 . S
H948 C963 0.930 . S
C949 H937 0.930 . S
C949 C950 1.399 . S
C949 C954 1.399 . S
C950 C949 1.399 . S
C950 C951 1.376 1_545 S
C951 H938 0.930 . S
C951 C950 1.376 1_565 S
C951 C952 1.388 . S
C952 H939 0.930 . S
C952 C951 1.388 . S
C952 C953 1.390 . S
C953 C952 1.390 . S
C953 C954 1.394 1_565 S
C953 C959 1.465 . S
C954 C949 1.399 . S
C954 C953 1.394 1_545 S
C954 C955 1.516 . S
C955 C954 1.516 . S
C955 C956 1.502 . S
C955 C957 1.561 . S
C955 C958 1.526 . S
C956 H940 0.959 . S
C956 H941 0.959 . S
C956 H942 0.961 . S
C956 C955 1.502 . S
C957 H943 0.960 . S
C957 H944 0.961 . S
C957 H945 0.959 . S
C957 C955 1.561 . S
C958 C955 1.526 . S
C958 C959 1.396 1_545 S
C958 C963 1.390 . S
C959 C953 1.465 . S
C959 C958 1.396 1_565 S
C959 C960 1.399 . S
C960 H946 0.929 . S
C960 C959 1.399 . S
C960 C961 1.385 . S
C961 H947 0.931 . S
C961 C960 1.385 . S
C961 C962 1.389 . S
C962 C961 1.389 . S
C962 C963 1.387 1_565 S
C963 H948 0.930 . S
C963 C958 1.390 . S
C963 C962 1.387 1_545 S
H964 C976 0.930 . S
H965 C978 0.930 . S
H966 C979 0.930 . S
H967 C983 0.959 . S
H968 C983 0.959 . S
H969 C983 0.961 1_556 S
H970 C984 0.960 . S
H971 C984 0.961 1_554 S
H972 C984 0.959 . S
H973 C987 0.929 . S
H974 C988 0.931 . S
H975 C990 0.930 . S
C976 H964 0.930 . S
C976 C977 1.399 . S
C976 C981 1.399 . S
C977 C976 1.399 . S
C977 C978 1.376 . S
C978 H965 0.930 . S
C978 C977 1.376 . S
C978 C979 1.388 . S
C979 H966 0.930 . S
C979 C978 1.388 . S
C979 C980 1.390 . S
C980 C979 1.390 . S
C980 C981 1.394 . S
C980 C986 1.465 1_556 S
C981 C976 1.399 . S
C981 C980 1.394 . S
C981 C982 1.524 . S
C982 C981 1.524 . S
C982 C983 1.501 1_556 S
C982 C984 1.562 . S
C982 C985 1.518 1_556 S
C983 H967 0.959 . S
C983 H968 0.959 . S
C983 H969 0.961 1_554 S
C983 C982 1.501 1_554 S
C984 H970 0.960 . S
C984 H971 0.961 1_556 S
C984 H972 0.959 . S
C984 C982 1.562 . S
C985 C982 1.518 1_554 S
C985 C986 1.396 . S
C985 C990 1.390 . S
C986 C980 1.465 1_554 S
C986 C985 1.396 . S
C986 C987 1.399 . S
C987 H973 0.929 . S
C987 C986 1.399 . S
C987 C988 1.385 . S
C988 H974 0.931 . S
C988 C987 1.385 . S
C988 C989 1.389 . S
C989 C988 1.389 . S
C989 C990 1.387 . S
C990 H975 0.930 . S
C990 C985 1.390 . S
C990 C989 1.387 . S
H991 C1003 0.930 . S
H992 C1005 0.930 . S
H993 C1006 0.930 . S
H994 C1010 0.959 . S
H995 C1010 0.959 . S
H996 C1010 0.961 1_556 S
H997 C1011 0.960 1_556 S
H998 C1011 0.961 . S
H999 C1011 0.959 . S
H1000 C1014 0.929 . S
H1001 C1015 0.931 . S
H1002 C1017 0.930 . S
C1003 H991 0.930 . S
C1003 C1004 1.399 . S
C1003 C1008 1.399 . S
C1004 C1003 1.399 . S
C1004 C1005 1.376 . S
C1005 H992 0.930 . S
C1005 C1004 1.376 . S
C1005 C1006 1.388 . S
C1006 H993 0.930 . S
C1006 C1005 1.388 . S
C1006 C1007 1.390 . S
C1007 C1006 1.390 . S
C1007 C1008 1.394 . S
C1007 C1013 1.465 1_556 S
C1008 C1003 1.399 . S
C1008 C1007 1.394 . S
C1008 C1009 1.516 1_556 S
C1009 C1008 1.516 1_554 S
C1009 C1010 1.502 . S
C1009 C1011 1.561 . S
C1009 C1012 1.526 . S
C1010 H994 0.959 . S
C1010 H995 0.959 . S
C1010 H996 0.961 1_554 S
C1010 C1009 1.502 . S
C1011 H997 0.960 1_554 S
C1011 H998 0.961 . S
C1011 H999 0.959 . S
C1011 C1009 1.561 . S
C1012 C1009 1.526 . S
C1012 C1013 1.396 . S
C1012 C1017 1.390 . S
C1013 C1007 1.465 1_554 S
C1013 C1012 1.396 . S
C1013 C1014 1.399 . S
C1014 H1000 0.929 . S
C1014 C1013 1.399 . S
C1014 C1015 1.385 . S
C1015 H1001 0.931 . S
C1015 C1014 1.385 . S
C1015 C1016 1.389 . S
C1016 C1015 1.389 . S
C1016 C1017 1.387 . S
C1017 H1002 0.930 . S
C1017 C1012 1.390 . S
C1017 C1016 1.387 . S
H1018 C1030 0.930 . S
H1019 C1032 0.930 . S
H1020 C1033 0.930 . S
H1021 C1037 0.962 . S
H1022 C1037 0.959 1_556 S
H1023 C1037 0.961 . S
H1024 C1038 0.960 1_554 S
H1025 C1038 0.961 . S
H1026 C1038 0.959 . S
H1027 C1041 0.929 . S
H1028 C1042 0.931 . S
H1029 C1044 0.930 . S
C1030 H1018 0.930 . S
C1030 C1031 1.399 . S
C1030 C1035 1.399 . S
C1031 C1030 1.399 . S
C1031 C1032 1.376 . S
C1032 H1019 0.930 . S
C1032 C1031 1.376 . S
C1032 C1033 1.388 . S
C1033 H1020 0.930 . S
C1033 C1032 1.388 . S
C1033 C1034 1.390 . S
C1034 C1033 1.390 . S
C1034 C1035 1.394 . S
C1034 C1040 1.465 1_554 S
C1035 C1030 1.399 . S
C1035 C1034 1.394 . S
C1035 C1036 1.528 . S
C1036 C1035 1.528 . S
C1036 C1037 1.502 . S
C1036 C1038 1.561 1_554 S
C1036 C1039 1.514 1_554 S
C1037 H1021 0.962 . S
C1037 H1022 0.959 1_554 S
C1037 H1023 0.961 . S
C1037 C1036 1.502 . S
C1038 H1024 0.960 1_556 S
C1038 H1025 0.961 . S
C1038 H1026 0.959 . S
C1038 C1036 1.561 1_556 S
C1039 C1036 1.514 1_556 S
C1039 C1040 1.396 . S
C1039 C1044 1.390 . S
C1040 C1034 1.465 1_556 S
C1040 C1039 1.396 . S
C1040 C1041 1.399 . S
C1041 H1027 0.929 . S
C1041 C1040 1.399 . S
C1041 C1042 1.385 . S
C1042 H1028 0.931 . S
C1042 C1041 1.385 . S
C1042 C1043 1.389 . S
C1043 C1042 1.389 . S
C1043 C1044 1.387 . S
C1044 H1029 0.930 . S
C1044 C1039 1.390 . S
C1044 C1043 1.387 . S
H1045 C1057 0.930 . S
H1046 C1059 0.930 . S
H1047 C1060 0.930 . S
H1048 C1064 0.959 . S
H1049 C1064 0.959 . S
H1050 C1064 0.961 1_556 S
H1051 C1065 0.960 1_556 S
H1052 C1065 0.961 . S
H1053 C1065 0.959 . S
H1054 C1068 0.929 . S
H1055 C1069 0.931 . S
H1056 C1071 0.930 . S
C1057 H1045 0.930 . S
C1057 C1058 1.399 . S
C1057 C1062 1.399 . S
C1058 C1057 1.399 . S
C1058 C1059 1.376 . S
C1059 H1046 0.930 . S
C1059 C1058 1.376 . S
C1059 C1060 1.388 . S
C1060 H1047 0.930 . S
C1060 C1059 1.388 . S
C1060 C1061 1.390 . S
C1061 C1060 1.390 . S
C1061 C1062 1.394 . S
C1061 C1067 1.465 1_556 S
C1062 C1057 1.399 . S
C1062 C1061 1.394 . S
C1062 C1063 1.516 1_556 S
C1063 C1062 1.516 1_554 S
C1063 C1064 1.502 . S
C1063 C1065 1.561 . S
C1063 C1066 1.526 . S
C1064 H1048 0.959 . S
C1064 H1049 0.959 . S
C1064 H1050 0.961 1_554 S
C1064 C1063 1.502 . S
C1065 H1051 0.960 1_554 S
C1065 H1052 0.961 . S
C1065 H1053 0.959 . S
C1065 C1063 1.561 . S
C1066 C1063 1.526 . S
C1066 C1067 1.396 . S
C1066 C1071 1.390 . S
C1067 C1061 1.465 1_554 S
C1067 C1066 1.396 . S
C1067 C1068 1.399 . S
C1068 H1054 0.929 . S
C1068 C1067 1.399 . S
C1068 C1069 1.385 . S
C1069 H1055 0.931 . S
C1069 C1068 1.385 . S
C1069 C1070 1.389 . S
C1070 C1069 1.389 . S
C1070 C1071 1.387 . S
C1071 H1056 0.930 . S
C1071 C1066 1.390 . S
C1071 C1070 1.387 . S
C221 C8 1.421 . S
C233 C44 1.305 . S
C248 C5 1.368 . S
C260 C21 1.403 . S
C275 C18 1.368 . S
C287 C34 1.404 . S
C302 C31 1.369 . S
C314 C47 1.400 . S
C329 C60 1.377 . S
C341 C70 1.346 . S
C356 C73 1.379 . S
C368 C83 1.350 . S
C383 C86 1.377 . S
C395 C96 1.346 . S
C410 C99 1.420 . S
C422 C57 1.298 . S
C437 C112 1.373 . S
C449 C148 1.337 . S
C464 C109 1.368 . S
C476 C125 1.398 . S
C491 C122 1.250 . S
C503 C138 1.391 . S
C518 C151 1.397 . S
C530 C135 1.253 . S
C545 C174 1.252 . S
C557 C164 1.384 . S
C572 C187 1.366 . S
C584 C177 1.407 . S
C599 C190 1.422 . S
C611 C200 1.322 . S
C626 C203 1.382 . S
C638 C161 1.355 . S
C653 C0 1.014 . S
C665 C195 1.018 . S
C680 C13 0.989 . S
C692 C156 1.075 . S
C707 C169 1.001 . S
C719 C26 1.081 . S
C734 C39 1.029 . S
C746 C182 1.005 . S
C761 C117 1.081 . S
C773 C52 0.999 . S
C788 C130 1.062 . S
C800 C65 1.046 . S
C815 C78 0.988 . S
C827 C143 1.071 . S
C842 C91 1.072 . S
C854 C104 0.989 . S
C869 C10 1.376 . S
C881 C88 1.349 . S
C896 C101 1.420 . S
C908 C23 1.376 . S
C923 C62 1.375 . S
C935 C36 1.349 . S
C950 C75 1.427 . S
C962 C49 1.393 . S
C977 C114 1.361 . S
C989 C192 1.352 . S
C1004 C127 1.422 . S
C1016 C205 1.380 . S
C1031 C166 1.401 . S
C1043 C140 1.427 . S
C1058 C153 1.425 . S
C1070 C179 1.386 . S
