# Generated by pormake.
# Topology uoh, (4)-cn, num edge types: 1
# Building blocks:
#     Node 0, Type 0, BuildingBlock: AZAVOO_clean_sbu_0, # of connection points: 4
#     Node 1, Type 0, BuildingBlock: AZAVOO_clean_sbu_0, # of connection points: 4
#     Node 2, Type 0, BuildingBlock: AZAVOO_clean_sbu_0, # of connection points: 4
#     Node 3, Type 0, BuildingBlock: AZAVOO_clean_sbu_0, # of connection points: 4
#     Node 4, Type 0, BuildingBlock: AZAVOO_clean_sbu_0, # of connection points: 4
#     Node 5, Type 0, BuildingBlock: AZAVOO_clean_sbu_0, # of connection points: 4
#     Node 6, Type 0, BuildingBlock: AZAVOO_clean_sbu_0, # of connection points: 4
#     Node 7, Type 0, BuildingBlock: AZAVOO_clean_sbu_0, # of connection points: 4
#     Node 8, Type 0, BuildingBlock: AZAVOO_clean_sbu_0, # of connection points: 4
#     Node 9, Type 0, BuildingBlock: AZAVOO_clean_sbu_0, # of connection points: 4
#     Node 10, Type 0, BuildingBlock: AZAVOO_clean_sbu_0, # of connection points: 4
#     Node 11, Type 0, BuildingBlock: AZAVOO_clean_sbu_0, # of connection points: 4
#     Node 12, Type 0, BuildingBlock: AZAVOO_clean_sbu_0, # of connection points: 4
#     Node 13, Type 0, BuildingBlock: AZAVOO_clean_sbu_0, # of connection points: 4
#     Node 14, Type 0, BuildingBlock: AZAVOO_clean_sbu_0, # of connection points: 4
#     Node 15, Type 0, BuildingBlock: AZAVOO_clean_sbu_0, # of connection points: 4
#     Node 16, Type 0, BuildingBlock: AZAVOO_clean_sbu_0, # of connection points: 4
#     Node 17, Type 0, BuildingBlock: AZAVOO_clean_sbu_0, # of connection points: 4
#     Node 18, Type 0, BuildingBlock: AZAVOO_clean_sbu_0, # of connection points: 4
#     Node 19, Type 0, BuildingBlock: AZAVOO_clean_sbu_0, # of connection points: 4
#     Node 20, Type 0, BuildingBlock: AZAVOO_clean_sbu_0, # of connection points: 4
#     Node 21, Type 0, BuildingBlock: AZAVOO_clean_sbu_0, # of connection points: 4
#     Node 22, Type 0, BuildingBlock: AZAVOO_clean_sbu_0, # of connection points: 4
#     Node 23, Type 0, BuildingBlock: AZAVOO_clean_sbu_0, # of connection points: 4
#     Node 24, Type 0, BuildingBlock: AZAVOO_clean_sbu_0, # of connection points: 4
#     Node 25, Type 0, BuildingBlock: AZAVOO_clean_sbu_0, # of connection points: 4
#     Node 26, Type 0, BuildingBlock: AZAVOO_clean_sbu_0, # of connection points: 4
#     Node 27, Type 0, BuildingBlock: AZAVOO_clean_sbu_0, # of connection points: 4
#     Node 28, Type 0, BuildingBlock: AZAVOO_clean_sbu_0, # of connection points: 4
#     Node 29, Type 0, BuildingBlock: AZAVOO_clean_sbu_0, # of connection points: 4
#     Node 30, Type 0, BuildingBlock: AZAVOO_clean_sbu_0, # of connection points: 4
#     Node 31, Type 0, BuildingBlock: AZAVOO_clean_sbu_0, # of connection points: 4
#     Node 32, Type 0, BuildingBlock: AZAVOO_clean_sbu_0, # of connection points: 4
#     Node 33, Type 0, BuildingBlock: AZAVOO_clean_sbu_0, # of connection points: 4
#     Node 34, Type 0, BuildingBlock: AZAVOO_clean_sbu_0, # of connection points: 4
#     Node 35, Type 0, BuildingBlock: AZAVOO_clean_sbu_0, # of connection points: 4
#     Edge 36, Type (0, 0), BuildingBlock: XIVTED_clean_linker_0, # of connection points: 2
#     Edge 37, Type (0, 0), BuildingBlock: XIVTED_clean_linker_0, # of connection points: 2
#     Edge 38, Type (0, 0), BuildingBlock: XIVTED_clean_linker_0, # of connection points: 2
#     Edge 39, Type (0, 0), BuildingBlock: XIVTED_clean_linker_0, # of connection points: 2
#     Edge 40, Type (0, 0), BuildingBlock: XIVTED_clean_linker_0, # of connection points: 2
#     Edge 41, Type (0, 0), BuildingBlock: XIVTED_clean_linker_0, # of connection points: 2
#     Edge 42, Type (0, 0), BuildingBlock: XIVTED_clean_linker_0, # of connection points: 2
#     Edge 43, Type (0, 0), BuildingBlock: XIVTED_clean_linker_0, # of connection points: 2
#     Edge 44, Type (0, 0), BuildingBlock: XIVTED_clean_linker_0, # of connection points: 2
#     Edge 45, Type (0, 0), BuildingBlock: XIVTED_clean_linker_0, # of connection points: 2
#     Edge 46, Type (0, 0), BuildingBlock: XIVTED_clean_linker_0, # of connection points: 2
#     Edge 47, Type (0, 0), BuildingBlock: XIVTED_clean_linker_0, # of connection points: 2
#     Edge 48, Type (0, 0), BuildingBlock: XIVTED_clean_linker_0, # of connection points: 2
#     Edge 49, Type (0, 0), BuildingBlock: XIVTED_clean_linker_0, # of connection points: 2
#     Edge 50, Type (0, 0), BuildingBlock: XIVTED_clean_linker_0, # of connection points: 2
#     Edge 51, Type (0, 0), BuildingBlock: XIVTED_clean_linker_0, # of connection points: 2
#     Edge 52, Type (0, 0), BuildingBlock: XIVTED_clean_linker_0, # of connection points: 2
#     Edge 53, Type (0, 0), BuildingBlock: XIVTED_clean_linker_0, # of connection points: 2
#     Edge 54, Type (0, 0), BuildingBlock: XIVTED_clean_linker_0, # of connection points: 2
#     Edge 55, Type (0, 0), BuildingBlock: XIVTED_clean_linker_0, # of connection points: 2
#     Edge 56, Type (0, 0), BuildingBlock: XIVTED_clean_linker_0, # of connection points: 2
#     Edge 57, Type (0, 0), BuildingBlock: XIVTED_clean_linker_0, # of connection points: 2
#     Edge 58, Type (0, 0), BuildingBlock: XIVTED_clean_linker_0, # of connection points: 2
#     Edge 59, Type (0, 0), BuildingBlock: XIVTED_clean_linker_0, # of connection points: 2
#     Edge 60, Type (0, 0), BuildingBlock: XIVTED_clean_linker_0, # of connection points: 2
#     Edge 61, Type (0, 0), BuildingBlock: XIVTED_clean_linker_0, # of connection points: 2
#     Edge 62, Type (0, 0), BuildingBlock: XIVTED_clean_linker_0, # of connection points: 2
#     Edge 63, Type (0, 0), BuildingBlock: XIVTED_clean_linker_0, # of connection points: 2
#     Edge 64, Type (0, 0), BuildingBlock: XIVTED_clean_linker_0, # of connection points: 2
#     Edge 65, Type (0, 0), BuildingBlock: XIVTED_clean_linker_0, # of connection points: 2
#     Edge 66, Type (0, 0), BuildingBlock: XIVTED_clean_linker_0, # of connection points: 2
#     Edge 67, Type (0, 0), BuildingBlock: XIVTED_clean_linker_0, # of connection points: 2
#     Edge 68, Type (0, 0), BuildingBlock: XIVTED_clean_linker_0, # of connection points: 2
#     Edge 69, Type (0, 0), BuildingBlock: XIVTED_clean_linker_0, # of connection points: 2
#     Edge 70, Type (0, 0), BuildingBlock: XIVTED_clean_linker_0, # of connection points: 2
#     Edge 71, Type (0, 0), BuildingBlock: XIVTED_clean_linker_0, # of connection points: 2
#     Edge 72, Type (0, 0), BuildingBlock: XIVTED_clean_linker_0, # of connection points: 2
#     Edge 73, Type (0, 0), BuildingBlock: XIVTED_clean_linker_0, # of connection points: 2
#     Edge 74, Type (0, 0), BuildingBlock: XIVTED_clean_linker_0, # of connection points: 2
#     Edge 75, Type (0, 0), BuildingBlock: XIVTED_clean_linker_0, # of connection points: 2
#     Edge 76, Type (0, 0), BuildingBlock: XIVTED_clean_linker_0, # of connection points: 2
#     Edge 77, Type (0, 0), BuildingBlock: XIVTED_clean_linker_0, # of connection points: 2
#     Edge 78, Type (0, 0), BuildingBlock: XIVTED_clean_linker_0, # of connection points: 2
#     Edge 79, Type (0, 0), BuildingBlock: XIVTED_clean_linker_0, # of connection points: 2
#     Edge 80, Type (0, 0), BuildingBlock: XIVTED_clean_linker_0, # of connection points: 2
#     Edge 81, Type (0, 0), BuildingBlock: XIVTED_clean_linker_0, # of connection points: 2
#     Edge 82, Type (0, 0), BuildingBlock: XIVTED_clean_linker_0, # of connection points: 2
#     Edge 83, Type (0, 0), BuildingBlock: XIVTED_clean_linker_0, # of connection points: 2
#     Edge 84, Type (0, 0), BuildingBlock: XIVTED_clean_linker_0, # of connection points: 2
#     Edge 85, Type (0, 0), BuildingBlock: XIVTED_clean_linker_0, # of connection points: 2
#     Edge 86, Type (0, 0), BuildingBlock: XIVTED_clean_linker_0, # of connection points: 2
#     Edge 87, Type (0, 0), BuildingBlock: XIVTED_clean_linker_0, # of connection points: 2
#     Edge 88, Type (0, 0), BuildingBlock: XIVTED_clean_linker_0, # of connection points: 2
#     Edge 89, Type (0, 0), BuildingBlock: XIVTED_clean_linker_0, # of connection points: 2
#     Edge 90, Type (0, 0), BuildingBlock: XIVTED_clean_linker_0, # of connection points: 2
#     Edge 91, Type (0, 0), BuildingBlock: XIVTED_clean_linker_0, # of connection points: 2
#     Edge 92, Type (0, 0), BuildingBlock: XIVTED_clean_linker_0, # of connection points: 2
#     Edge 93, Type (0, 0), BuildingBlock: XIVTED_clean_linker_0, # of connection points: 2
#     Edge 94, Type (0, 0), BuildingBlock: XIVTED_clean_linker_0, # of connection points: 2
#     Edge 95, Type (0, 0), BuildingBlock: XIVTED_clean_linker_0, # of connection points: 2
#     Edge 96, Type (0, 0), BuildingBlock: XIVTED_clean_linker_0, # of connection points: 2
#     Edge 97, Type (0, 0), BuildingBlock: XIVTED_clean_linker_0, # of connection points: 2
#     Edge 98, Type (0, 0), BuildingBlock: XIVTED_clean_linker_0, # of connection points: 2
#     Edge 99, Type (0, 0), BuildingBlock: XIVTED_clean_linker_0, # of connection points: 2
#     Edge 100, Type (0, 0), BuildingBlock: XIVTED_clean_linker_0, # of connection points: 2
#     Edge 101, Type (0, 0), BuildingBlock: XIVTED_clean_linker_0, # of connection points: 2
#     Edge 102, Type (0, 0), BuildingBlock: XIVTED_clean_linker_0, # of connection points: 2
#     Edge 103, Type (0, 0), BuildingBlock: XIVTED_clean_linker_0, # of connection points: 2
#     Edge 104, Type (0, 0), BuildingBlock: XIVTED_clean_linker_0, # of connection points: 2
#     Edge 105, Type (0, 0), BuildingBlock: XIVTED_clean_linker_0, # of connection points: 2
#     Edge 106, Type (0, 0), BuildingBlock: XIVTED_clean_linker_0, # of connection points: 2
#     Edge 107, Type (0, 0), BuildingBlock: XIVTED_clean_linker_0, # of connection points: 2
# Relax obj value: 0.294
# Max RMSD: 0.303
# Mean RMSD: 0.303
data_MOF--net-uoh--node1-AZAVOO_clean_sbu_0--edge1-XIVTED_clean_linker_0
_symmetry_space_group_name_H-M    P1
_symmetry_Int_Tables_number       1
_symmetry_cell_setting            triclinic
loop_
_symmetry_equiv_pos_as_xyz
'x, y, z'
_cell_length_a     85.830039
_cell_length_b     85.843261
_cell_length_c     27.289385
_cell_angle_alpha  89.991628
_cell_angle_beta   89.981641
_cell_angle_gamma 120.01725
loop_
_atom_site_label
_atom_site_type_symbol
_atom_site_fract_x
_atom_site_fract_y
_atom_site_fract_z
_atom_type_partial_charge
Mg0 Mg 0.24818 0.16763 0.28311 0.0
O1 O 0.27542 0.17312 0.25576 0.0
O2 O 0.29661 0.19135 0.30825 0.0
Mg3 Mg 0.28209 0.19569 0.3733 0.0
C4 C 0.29186 0.18234 0.26843 0.0
C5 C 0.22834 0.14083 0.19972 0.0
O6 O 0.22376 0.12996 0.23759 0.0
O7 O 0.25542 0.19612 0.26402 0.0
O8 O 0.27365 0.21239 0.32533 0.0
O9 O 0.24425 0.14345 0.32385 0.0
O10 O 0.2567 0.17078 0.35548 0.0
C11 C 0.26462 0.211 0.28668 0.0
C12 C 0.2519 0.15406 0.36072 0.0
O13 O 0.23758 0.15768 0.20671 0.0
Mg14 Mg 0.84596 0.08262 0.27116 0.0
O15 O 0.84615 0.10841 0.25264 0.0
O16 O 0.83302 0.11594 0.311 0.0
Mg17 Mg 0.82633 0.09512 0.37252 0.0
C18 C 0.84077 0.11873 0.26937 0.0
C19 C 0.86631 0.09601 0.17702 0.0
O20 O 0.87688 0.10692 0.21126 0.0
O21 O 0.81582 0.06695 0.25799 0.0
O22 O 0.80445 0.07266 0.32498 0.0
O23 O 0.87279 0.09778 0.30766 0.0
O24 O 0.84684 0.08862 0.3455 0.0
C25 C 0.80247 0.06438 0.2845 0.0
C26 C 0.86416 0.09752 0.34676 0.0
O27 O 0.85192 0.08194 0.18999 0.0
Mg28 Mg 0.91035 0.7425 0.28021 0.0
O29 O 0.88697 0.71468 0.26491 0.0
O30 O 0.88396 0.69497 0.32227 0.0
Mg31 Mg 0.90596 0.71175 0.37913 0.0
C32 C 0.87901 0.6988 0.28212 0.0
C33 C 0.8915 0.74653 0.19336 0.0
O34 O 0.88017 0.74194 0.23013 0.0
O35 O 0.92976 0.73294 0.25949 0.0
O36 O 0.92867 0.71668 0.32497 0.0
O37 O 0.89283 0.74969 0.32297 0.0
O38 O 0.90766 0.73727 0.35518 0.0
C39 C 0.93535 0.72392 0.28354 0.0
C40 C 0.89649 0.74302 0.36078 0.0
O41 O 0.90721 0.74912 0.20146 0.0
Mg42 Mg 0.14312 0.23036 0.2465 0.0
O43 O 0.14333 0.25638 0.26437 0.0
O44 O 0.15476 0.27525 0.20105 0.0
Mg45 Mg 0.16028 0.26027 0.13992 0.0
C46 C 0.14821 0.27155 0.24431 0.0
C47 C 0.1234 0.2124 0.3425 0.0
O48 O 0.11084 0.20343 0.30974 0.0
O49 O 0.17351 0.24473 0.25413 0.0
O50 O 0.18319 0.26065 0.18475 0.0
O51 O 0.1154 0.21842 0.21551 0.0
O52 O 0.14036 0.23424 0.17253 0.0
C53 C 0.18619 0.25505 0.22511 0.0
C54 C 0.12305 0.22597 0.17457 0.0
O55 O 0.1391 0.22381 0.32793 0.0
Mg56 Mg 0.75359 0.92006 0.22839 0.0
O57 O 0.72619 0.8957 0.24 0.0
O58 O 0.7077 0.89163 0.17811 0.0
Mg59 Mg 0.72521 0.91374 0.12219 0.0
C60 C 0.71082 0.88707 0.21987 0.0
C61 C 0.75838 0.92574 0.34645 0.0
O62 O 0.75667 0.94006 0.34239 0.0
O63 O 0.74202 0.93826 0.24302 0.0
O64 O 0.72722 0.93605 0.17346 0.0
O65 O 0.76291 0.90323 0.19122 0.0
O66 O 0.75078 0.91736 0.15292 0.0
C67 C 0.73307 0.94303 0.21567 0.0
C68 C 0.75746 0.90687 0.15084 0.0
O69 O 0.7584 0.91724 0.30841 0.0
Mg70 Mg 0.08276 0.83305 0.19574 0.0
O71 O 0.10619 0.82862 0.20988 0.0
O72 O 0.10954 0.81256 0.15128 0.0
Mg73 Mg 0.08756 0.80767 0.09472 0.0
C74 C 0.1143 0.82097 0.19201 0.0
C75 C 0.10181 0.85546 0.28304 0.0
O76 O 0.11311 0.86217 0.24619 0.0
O77 O 0.06356 0.80384 0.21515 0.0
O78 O 0.06514 0.78932 0.14877 0.0
O79 O 0.10014 0.85811 0.15406 0.0
O80 O 0.08547 0.83108 0.1205 0.0
C81 C 0.05832 0.78942 0.19039 0.0
C82 C 0.09652 0.84806 0.11567 0.0
O83 O 0.08602 0.84245 0.27499 0.0
Mg84 Mg 0.7525 0.84441 0.73125 0.0
O85 O 0.72536 0.84022 0.75572 0.0
O86 O 0.70534 0.82639 0.69613 0.0
Mg87 Mg 0.72055 0.82336 0.63081 0.0
C88 C 0.7094 0.83318 0.73906 0.0
C89 C 0.77237 0.86611 0.82223 0.0
O90 O 0.77998 0.87812 0.78728 0.0
O91 O 0.74217 0.81454 0.73986 0.0
O92 O 0.72495 0.80268 0.67327 0.0
O93 O 0.75963 0.87117 0.69975 0.0
O94 O 0.74629 0.84559 0.65849 0.0
C95 C 0.73242 0.80117 0.71209 0.0
C96 C 0.7523 0.86266 0.65954 0.0
O97 O 0.76113 0.84999 0.81066 0.0
Mg98 Mg 0.16524 0.91785 0.69618 0.0
O99 O 0.17023 0.89484 0.71139 0.0
O100 O 0.1875 0.89247 0.65456 0.0
Mg101 Mg 0.19255 0.91452 0.5981 0.0
C102 C 0.17855 0.88725 0.69442 0.0
C103 C 0.14193 0.89825 0.78181 0.0
O104 O 0.13566 0.88709 0.74459 0.0
O105 O 0.19399 0.93747 0.71826 0.0
O106 O 0.20981 0.93691 0.65363 0.0
O107 O 0.14089 0.90015 0.65258 0.0
O108 O 0.16826 0.91551 0.62122 0.0
C109 C 0.20883 0.94328 0.69517 0.0
C110 C 0.15143 0.90405 0.61514 0.0
O111 O 0.15492 0.91411 0.77455 0.0
Mg112 Mg 0.07403 0.23814 0.74688 0.0
O113 O 0.09957 0.26433 0.76168 0.0
O114 O 0.10635 0.28319 0.69895 0.0
Mg115 Mg 0.0851 0.26707 0.63962 0.0
C116 C 0.10956 0.27956 0.74186 0.0
C117 C 0.06768 0.21855 0.85082 0.0
O118 O 0.06035 0.20344 0.82588 0.0
O119 O 0.05764 0.25204 0.75568 0.0
O120 O 0.06271 0.26745 0.68566 0.0
O121 O 0.08996 0.22668 0.71394 0.0
O122 O 0.07859 0.24077 0.67212 0.0
C123 C 0.05465 0.26198 0.72684 0.0
C124 C 0.08784 0.23273 0.67245 0.0
O125 O 0.07335 0.23337 0.82842 0.0
Mg126 Mg 0.82755 0.74439 0.78049 0.0
O127 O 0.82058 0.71578 0.76429 0.0
O128 O 0.8032 0.69669 0.82199 0.0
Mg129 Mg 0.80007 0.71452 0.87977 0.0
C130 C 0.81163 0.69992 0.78137 0.0
C131 C 0.84957 0.7467 0.69327 0.0
O132 O 0.85536 0.74097 0.72972 0.0
O133 O 0.79904 0.73715 0.76079 0.0
O134 O 0.78347 0.72125 0.82631 0.0
O135 O 0.85185 0.74956 0.8226 0.0
O136 O 0.82487 0.73903 0.8554 0.0
C137 C 0.78441 0.72887 0.78525 0.0
C138 C 0.84152 0.74355 0.86063 0.0
O139 O 0.83737 0.75064 0.70163 0.0
Mg140 Mg 0.24165 0.08568 0.78918 0.0
O141 O 0.26915 0.11028 0.78233 0.0
O142 O 0.28699 0.1141 0.84561 0.0
Mg143 Mg 0.26869 0.0909 0.89811 0.0
C144 C 0.28422 0.11899 0.8039 0.0
C145 C 0.24094 0.10489 0.69777 0.0
O146 O 0.24327 0.11597 0.73389 0.0
O147 O 0.25385 0.06805 0.77437 0.0
O148 O 0.26803 0.0697 0.84477 0.0
O149 O 0.23133 0.10159 0.82739 0.0
O150 O 0.24341 0.08735 0.86516 0.0
C151 C 0.26279 0.06326 0.80177 0.0
C152 C 0.23651 0.09764 0.86771 0.0
O153 O 0.23838 0.08933 0.70792 0.0
Mg154 Mg 0.90702 0.16862 0.76941 0.0
O155 O 0.88392 0.17289 0.74894 0.0
O156 O 0.87931 0.18836 0.80688 0.0
Mg157 Mg 0.89879 0.19167 0.86955 0.0
C158 C 0.8756 0.18058 0.76519 0.0
C159 C 0.91348 0.15248 0.67095 0.0
O160 O 0.92066 0.14539 0.69936 0.0
O161 O 0.9268 0.19817 0.75696 0.0
O162 O 0.92349 0.21142 0.82363 0.0
O163 O 0.88831 0.14245 0.80537 0.0
O164 O 0.90169 0.16875 0.84324 0.0
C165 C 0.93158 0.21206 0.78365 0.0
C166 C 0.89091 0.15163 0.84526 0.0
O167 O 0.9078 0.16226 0.68953 0.0
Mg168 Mg 0.90725 0.4945 0.59614 0.0
O169 O 0.93575 0.50158 0.57688 0.0
O170 O 0.95527 0.51968 0.63278 0.0
Mg171 Mg 0.93816 0.52323 0.69187 0.0
C172 C 0.95176 0.5109 0.5927 0.0
C173 C 0.90347 0.47141 0.51006 0.0
O174 O 0.90947 0.46581 0.54632 0.0
O175 O 0.91376 0.52267 0.57493 0.0
O176 O 0.93057 0.53912 0.63808 0.0
O177 O 0.90308 0.47074 0.63917 0.0
O178 O 0.91365 0.4979 0.67068 0.0
C179 C 0.92231 0.53762 0.5978 0.0
C180 C 0.90955 0.48138 0.67643 0.0
O181 O 0.89995 0.48391 0.51815 0.0
Mg182 Mg 0.51595 0.41621 0.55595 0.0
O183 O 0.51417 0.44143 0.54439 0.0
O184 O 0.50502 0.44876 0.61258 0.0
Mg185 Mg 0.50273 0.42839 0.67098 0.0
C186 C 0.50983 0.45155 0.56768 0.0
C187 C 0.52322 0.40728 0.44648 0.0
O188 O 0.53057 0.39867 0.46711 0.0
O189 O 0.48547 0.39924 0.55769 0.0
O190 O 0.47845 0.40521 0.63161 0.0
O191 O 0.54476 0.43286 0.57879 0.0
O192 O 0.52146 0.4227 0.62931 0.0
C193 C 0.47399 0.39649 0.59125 0.0
C194 C 0.53854 0.43236 0.62235 0.0
O195 O 0.51637 0.41442 0.47314 0.0
Mg196 Mg 0.57572 0.08874 0.60554 0.0
O197 O 0.55398 0.06049 0.5861 0.0
O198 O 0.55225 0.04047 0.64074 0.0
Mg199 Mg 0.57314 0.05723 0.69996 0.0
C200 C 0.54704 0.04437 0.60116 0.0
C201 C 0.55637 0.09257 0.51962 0.0
O202 O 0.54498 0.08728 0.55638 0.0
O203 O 0.59713 0.08195 0.58369 0.0
O204 O 0.59675 0.06499 0.64651 0.0
O205 O 0.5564 0.09309 0.64943 0.0
O206 O 0.57279 0.08211 0.67983 0.0
C207 C 0.60353 0.07337 0.60637 0.0
C208 C 0.56052 0.08637 0.68624 0.0
O209 O 0.57237 0.09599 0.52759 0.0
Mg210 Mg 0.8035 0.5605 0.58027 0.0
O211 O 0.80458 0.58694 0.59617 0.0
O212 O 0.81396 0.60453 0.53 0.0
Mg213 Mg 0.81634 0.58753 0.46825 0.0
C214 C 0.80899 0.60177 0.5748 0.0
C215 C 0.7935 0.54299 0.68735 0.0
O216 O 0.78229 0.52801 0.66461 0.0
O217 O 0.83396 0.57488 0.57825 0.0
O218 O 0.84104 0.58863 0.50525 0.0
O219 O 0.77462 0.54785 0.55784 0.0
O220 O 0.79784 0.5624 0.5077 0.0
C221 C 0.84546 0.58411 0.54526 0.0
C222 C 0.78072 0.55432 0.51469 0.0
O223 O 0.80355 0.55699 0.66251 0.0
Mg224 Mg 0.42402 0.24848 0.59021 0.0
O225 O 0.39686 0.22566 0.61597 0.0
O226 O 0.37695 0.21938 0.55595 0.0
Mg227 Mg 0.39211 0.23675 0.48941 0.0
C228 C 0.38089 0.21681 0.5992 0.0
C229 C 0.44658 0.25127 0.68089 0.0
O230 O 0.45551 0.24859 0.64593 0.0
O231 O 0.41385 0.26823 0.59617 0.0
O232 O 0.397 0.26257 0.52882 0.0
O233 O 0.43159 0.22886 0.56126 0.0
O234 O 0.41771 0.24004 0.5179 0.0
C235 C 0.40446 0.2719 0.56717 0.0
C236 C 0.42412 0.22932 0.52049 0.0
O237 O 0.43314 0.25291 0.66947 0.0
Mg238 Mg 0.74982 0.19146 0.54177 0.0
O239 O 0.77387 0.18832 0.55935 0.0
O240 O 0.77927 0.17375 0.50038 0.0
Mg241 Mg 0.75886 0.16941 0.43944 0.0
C242 C 0.78285 0.18144 0.54219 0.0
C243 C 0.76514 0.21107 0.63589 0.0
O244 O 0.77659 0.2208 0.60146 0.0
O245 O 0.73142 0.16155 0.55465 0.0
O246 O 0.7353 0.14902 0.48721 0.0
O247 O 0.76726 0.21799 0.50555 0.0
O248 O 0.7554 0.19184 0.46716 0.0
C249 C 0.72736 0.14785 0.52781 0.0
C250 C 0.76586 0.20904 0.46614 0.0
O251 O 0.75015 0.19771 0.62317 0.0
Mg252 Mg 0.42567 0.1792 0.08297 0.0
O253 O 0.40026 0.18047 0.08794 0.0
O254 O 0.38359 0.17094 0.02054 0.0
Mg255 Mg 0.40111 0.16512 0.96741 0.0
C256 C 0.38619 0.17704 0.0642 0.0
C257 C 0.43603 0.18165 0.19945 0.0
O258 O 0.4496 0.17923 0.18889 0.0
O259 O 0.40969 0.14867 0.08756 0.0
O260 O 0.39696 0.14081 0.01336 0.0
O261 O 0.43991 0.20722 0.05338 0.0
O262 O 0.42663 0.18261 0.00763 0.0
C263 C 0.4003 0.13673 0.05561 0.0
C264 C 0.43535 0.19989 0.01041 0.0
O265 O 0.42616 0.18207 0.16544 0.0
Mg266 Mg 0.83771 0.24857 0.04311 0.0
O267 O 0.84044 0.22466 0.06417 0.0
O268 O 0.85506 0.2186 0.00684 0.0
Mg269 Mg 0.85931 0.23818 0.9434 0.0
C270 C 0.84733 0.2155 0.04855 0.0
C271 C 0.82296 0.2566 0.14235 0.0
O272 O 0.81695 0.26497 0.11461 0.0
O273 O 0.86758 0.26713 0.0549 0.0
O274 O 0.88002 0.26269 0.98813 0.0
O275 O 0.81117 0.23079 0.00767 0.0
O276 O 0.83738 0.24277 0.96942 0.0
C277 C 0.88122 0.27112 0.02787 0.0
C278 C 0.82014 0.23272 0.96775 0.0
O279 O 0.83169 0.24984 0.12311 0.0
Mg280 Mg 0.74018 0.5649 0.08272 0.0
O281 O 0.76599 0.59078 0.10089 0.0
O282 O 0.77452 0.60912 0.03626 0.0
Mg283 Mg 0.755 0.59335 0.97353 0.0
C284 C 0.77668 0.60575 0.08053 0.0
C285 C 0.73072 0.54534 0.18708 0.0
O286 O 0.7261 0.53056 0.16214 0.0
O287 O 0.72455 0.57972 0.08341 0.0
O288 O 0.73145 0.59427 0.01171 0.0
O289 O 0.75578 0.55188 0.05802 0.0
O290 O 0.74788 0.56755 0.00991 0.0
C291 C 0.72238 0.58935 0.05153 0.0
C292 C 0.7564 0.55886 0.01547 0.0
O293 O 0.73605 0.56006 0.16441 0.0
Mg294 Mg 0.48732 0.07777 0.10723 0.0
O295 O 0.48306 0.05001 0.0933 0.0
O296 O 0.46706 0.0305 0.1518 0.0
Mg297 Mg 0.462 0.04755 0.20819 0.0
C298 C 0.47554 0.03424 0.11119 0.0
C299 C 0.50956 0.08119 0.01917 0.0
O300 O 0.51633 0.07644 0.0555 0.0
O301 O 0.45814 0.06789 0.08819 0.0
O302 O 0.44369 0.05205 0.15494 0.0
O303 O 0.51243 0.08557 0.14864 0.0
O304 O 0.48541 0.07315 0.18248 0.0
C305 C 0.44378 0.05902 0.11342 0.0
C306 C 0.50243 0.07923 0.1872 0.0
O307 O 0.4966 0.08399 0.02792 0.0
Mg308 Mg 0.9155 0.4154 0.09713 0.0
O309 O 0.94261 0.44054 0.08832 0.0
O310 O 0.96142 0.44442 0.14917 0.0
Mg311 Mg 0.94461 0.42067 0.20138 0.0
C312 C 0.95791 0.44944 0.10868 0.0
C313 C 0.91214 0.43494 0.01046 0.0
O314 O 0.91533 0.44563 0.04816 0.0
O315 O 0.92798 0.39835 0.07704 0.0
O316 O 0.94347 0.40013 0.14485 0.0
O317 O 0.90519 0.43047 0.13943 0.0
O318 O 0.9187 0.41688 0.17288 0.0
C319 C 0.93759 0.39375 0.10215 0.0
C320 C 0.91151 0.42684 0.17806 0.0
O321 O 0.91034 0.41948 0.01768 0.0
Mg322 Mg 0.57974 0.48582 0.05266 0.0
O323 O 0.55473 0.48738 0.03425 0.0
O324 O 0.54732 0.49835 0.09855 0.0
Mg325 Mg 0.56665 0.50145 0.16101 0.0
C326 C 0.54474 0.49259 0.05448 0.0
C327 C 0.58923 0.47505 0.94941 0.0
O328 O 0.59471 0.46582 0.97541 0.0
O329 O 0.59676 0.51622 0.05029 0.0
O330 O 0.59063 0.52498 0.12132 0.0
O331 O 0.56293 0.45751 0.07866 0.0
O332 O 0.57234 0.48147 0.12604 0.0
C333 C 0.59955 0.52845 0.08137 0.0
C334 C 0.56304 0.46424 0.12124 0.0
O335 O 0.58334 0.48416 0.97106 0.0
Mg336 Mg 0.5701 0.82624 0.92634 0.0
O337 O 0.59695 0.82795 0.91914 0.0
O338 O 0.61434 0.83983 0.98449 0.0
Mg339 Mg 0.59599 0.84402 0.03867 0.0
C340 C 0.61172 0.8332 0.94143 0.0
C341 C 0.55724 0.82073 0.81195 0.0
O342 O 0.54279 0.82136 0.82447 0.0
O343 O 0.58331 0.85649 0.91839 0.0
O344 O 0.59678 0.86661 0.99095 0.0
O345 O 0.55868 0.79881 0.95821 0.0
O346 O 0.57059 0.82396 0.00181 0.0
C347 C 0.59218 0.8693 0.9486 0.0
C348 C 0.56324 0.80671 0.00048 0.0
O349 O 0.56851 0.82226 0.84438 0.0
Mg350 Mg 0.18225 0.75249 0.89353 0.0
O351 O 0.18145 0.77787 0.87535 0.0
O352 O 0.17191 0.78654 0.94024 0.0
Mg353 Mg 0.16914 0.76755 0.00344 0.0
C354 C 0.17705 0.78848 0.89562 0.0
C355 C 0.19264 0.74407 0.7881 0.0
O356 O 0.20363 0.74037 0.81227 0.0
O357 O 0.15175 0.73642 0.89478 0.0
O358 O 0.1446 0.74369 0.96674 0.0
O359 O 0.21106 0.76867 0.91698 0.0
O360 O 0.18766 0.76048 0.96601 0.0
C361 C 0.14019 0.73437 0.92739 0.0
C362 C 0.20481 0.76927 0.95972 0.0
O363 O 0.18256 0.74835 0.81157 0.0
Mg364 Mg 0.24012 0.41912 0.94245 0.0
O365 O 0.21681 0.39129 0.92824 0.0
O366 O 0.21312 0.37179 0.98684 0.0
Mg367 Mg 0.23485 0.38905 0.0441 0.0
C368 C 0.20858 0.3755 0.94585 0.0
C369 C 0.22121 0.42186 0.85405 0.0
O370 O 0.21015 0.41822 0.8911 0.0
O371 O 0.25946 0.40916 0.92454 0.0
O372 O 0.25764 0.39314 0.99133 0.0
O373 O 0.22246 0.42668 0.98313 0.0
O374 O 0.2373 0.41472 0.01802 0.0
C375 C 0.26464 0.40006 0.94985 0.0
C376 C 0.22615 0.42057 0.02205 0.0
O377 O 0.23697 0.42462 0.86246 0.0
Mg378 Mg 0.48358 0.90033 0.91773 0.0
O379 O 0.48329 0.92591 0.93806 0.0
O380 O 0.49514 0.94553 0.87652 0.0
Mg381 Mg 0.50129 0.93147 0.81418 0.0
C382 C 0.48823 0.94129 0.91931 0.0
C383 C 0.46351 0.88121 0.01235 0.0
O384 O 0.45107 0.87248 0.97912 0.0
O385 O 0.51388 0.91479 0.92678 0.0
O386 O 0.52408 0.93144 0.85879 0.0
O387 O 0.45607 0.88854 0.88589 0.0
O388 O 0.48114 0.90487 0.84385 0.0
C389 C 0.52678 0.92541 0.89879 0.0
C390 C 0.4638 0.89638 0.84529 0.0
O391 O 0.47921 0.89286 -0.00156 0.0
Mg392 Mg 0.09521 0.58922 0.91783 0.0
O393 O 0.06851 0.56497 0.94026 0.0
O394 O 0.04883 0.55839 0.87945 0.0
Mg395 Mg 0.06381 0.57751 0.81563 0.0
C396 C 0.05279 0.55549 0.92232 0.0
C397 C 0.11585 0.58956 0.01063 0.0
O398 O 0.12471 0.58638 0.97652 0.0
O399 O 0.0834 0.60751 0.92626 0.0
O400 O 0.06677 0.60197 0.85857 0.0
O401 O 0.10446 0.57121 0.88683 0.0
O402 O 0.08977 0.58175 0.84446 0.0
C403 C 0.0736 0.61086 0.89795 0.0
C404 C 0.0969 0.57163 0.84623 0.0
O405 O 0.10338 0.59257 -0.00209 0.0
Mg406 Mg 0.4132 0.50422 0.87315 0.0
O407 O 0.43631 0.49907 0.88288 0.0
O408 O 0.43926 0.48384 0.8213 0.0
Mg409 Mg 0.41687 0.48007 0.76728 0.0
C410 C 0.44427 0.49163 0.8628 0.0
C411 C 0.43326 0.52479 0.96204 0.0
O412 O 0.4443 0.53205 0.92487 0.0
O413 O 0.39364 0.47488 0.88988 0.0
O414 O 0.39458 0.46116 0.82102 0.0
O415 O 0.43078 0.52973 0.83353 0.0
O416 O 0.41518 0.50327 0.79716 0.0
C417 C 0.38802 0.4608 0.86339 0.0
C418 C 0.42651 0.52024 0.79385 0.0
O419 O 0.41725 0.51228 0.95369 0.0
Mg420 Mg 0.09029 0.5144 0.4124 0.0
O421 O 0.06398 0.51408 0.41841 0.0
O422 O 0.04745 0.50354 0.35097 0.0
Mg423 Mg 0.06556 0.49883 0.2974 0.0
C424 C 0.04967 0.50967 0.39455 0.0
C425 C 0.10445 0.52178 0.52438 0.0
O426 O 0.12004 0.52464 0.5078 0.0
O427 O 0.07567 0.48392 0.41789 0.0
O428 O 0.06288 0.47521 0.34397 0.0
O429 O 0.10329 0.54231 0.38208 0.0
O430 O 0.09072 0.5175 0.33709 0.0
C431 C 0.06665 0.47165 0.38637 0.0
C432 C 0.09883 0.53478 0.33931 0.0
O433 O 0.09152 0.5175 0.49482 0.0
Mg434 Mg 0.49745 0.58223 0.37655 0.0
O435 O 0.50339 0.55997 0.39529 0.0
O436 O 0.52039 0.55792 0.33675 0.0
Mg437 Mg 0.52423 0.57866 0.27772 0.0
C438 C 0.51207 0.55283 0.37759 0.0
C439 C 0.47152 0.57311 0.46305 0.0
O440 O 0.46045 0.56796 0.42558 0.0
O441 O 0.52616 0.60313 0.39503 0.0
O442 O 0.54156 0.60225 0.3299 0.0
O443 O 0.47278 0.56277 0.33629 0.0
O444 O 0.49962 0.57859 0.30214 0.0
C445 C 0.54077 0.60912 0.37077 0.0
C446 C 0.48288 0.56656 0.29788 0.0
O447 O 0.48834 0.58084 0.45513 0.0
Mg448 Mg 0.4117 0.90509 0.41562 0.0
O449 O 0.43678 0.93194 0.42647 0.0
O450 O 0.44229 0.95003 0.36262 0.0
Mg451 Mg 0.42032 0.93259 0.30622 0.0
C452 C 0.44622 0.947 0.40533 0.0
C453 C 0.40583 0.88777 0.5238 0.0
O454 O 0.39546 0.87198 0.50364 0.0
O455 O 0.39422 0.91781 0.42502 0.0
O456 O 0.3979 0.93218 0.35383 0.0
O457 O 0.42805 0.89425 0.38187 0.0
O458 O 0.4151 0.90688 0.34034 0.0
C459 C 0.39025 0.92688 0.39559 0.0
C460 C 0.42496 0.89949 0.3403 0.0
O461 O 0.41288 0.90182 0.49738 0.0
Mg462 Mg 0.15545 0.41153 0.44029 0.0
O463 O 0.14995 0.38362 0.42064 0.0
O464 O 0.13323 0.36394 0.47828 0.0
Mg465 Mg 0.12923 0.38043 0.53848 0.0
C466 C 0.14157 0.36765 0.4374 0.0
C467 C 0.18119 0.4281 0.3534 0.0
O468 O 0.19232 0.43368 0.39075 0.0
O469 O 0.12656 0.40339 0.42282 0.0
O470 O 0.11155 0.38683 0.48802 0.0
O471 O 0.18031 0.41699 0.47996 0.0
O472 O 0.1535 0.40547 0.51457 0.0
C473 C 0.11209 0.39464 0.44762 0.0
C474 C 0.17032 0.41049 0.51849 0.0
O475 O 0.16437 0.41944 0.36153 0.0
Mg476 Mg 0.57015 0.7538 0.42139 0.0
O477 O 0.59686 0.7781 0.39906 0.0
O478 O 0.61641 0.78466 0.46022 0.0
Mg479 Mg 0.60126 0.76567 0.52423 0.0
C480 C 0.61256 0.78751 0.41716 0.0
C481 C 0.54903 0.75256 0.32916 0.0
O482 O 0.53982 0.7551 0.36358 0.0
O483 O 0.5824 0.73593 0.41329 0.0
O484 O 0.59884 0.74137 0.48143 0.0
O485 O 0.56062 0.77164 0.45174 0.0
O486 O 0.57534 0.76124 0.49462 0.0
C487 C 0.59226 0.73269 0.44162 0.0
C488 C 0.56807 0.77123 0.49258 0.0
O489 O 0.56202 0.7503 0.34144 0.0
Mg490 Mg 0.24895 0.81751 0.39308 0.0
O491 O 0.22357 0.81826 0.37437 0.0
O492 O 0.21486 0.82793 0.43888 0.0
Mg493 Mg 0.23378 0.8308 0.50239 0.0
C494 C 0.21296 0.8227 0.39435 0.0
C495 C 0.2571 0.80667 0.28802 0.0
O496 O 0.26039 0.79545 0.3125 0.0
O497 O 0.26496 0.84801 0.39386 0.0
O498 O 0.25768 0.85531 0.46559 0.0
O499 O 0.23275 0.78874 0.4168 0.0
O500 O 0.24085 0.81218 0.46555 0.0
C501 C 0.26699 0.85963 0.4262 0.0
C502 C 0.23206 0.79501 0.45942 0.0
O503 O 0.25319 0.81708 0.31122 0.0
H504 H 0.23035 0.12554 0.88547 0.0
H505 H 0.21713 0.10622 0.17258 0.0
H506 H 0.23742 0.08481 0.95807 0.0
H507 H 0.23413 0.15892 0.11272 0.0
H508 H 0.2176 0.0954 0.09023 0.0
H509 H 0.22579 0.1356 0.96575 0.0
C510 C 0.23096 0.11875 0.91826 0.0
C511 C 0.23437 0.10441 0.91531 0.0
C512 C 0.22108 0.10929 0.09516 0.0
C513 C 0.2288 0.11553 0.0064 0.0
C514 C 0.22069 0.11546 0.14206 0.0
C515 C 0.2258 0.13356 0.14956 0.0
C516 C 0.22642 0.12125 0.05544 0.0
C517 C 0.23025 0.1449 0.10856 0.0
C518 C 0.22834 0.12447 0.96386 0.0
C519 C 0.23498 0.09602 0.95877 0.0
N520 N 0.23055 0.13857 0.06312 0.0
N521 N 0.23212 0.10165 0.00254 0.0
H522 H 0.89551 0.16763 0.93431 0.0
H523 H 0.84699 0.07817 0.09439 0.0
H524 H 0.87004 0.11544 0.86486 0.0
H525 H 0.89203 0.1285 0.14293 0.0
H526 H 0.85053 0.09108 0.01172 0.0
H527 H 0.88813 0.15302 0.01397 0.0
C528 C 0.88811 0.15308 0.93572 0.0
C529 C 0.88357 0.14275 0.8928 0.0
C530 C 0.85964 0.09915 0.04065 0.0
C531 C 0.87531 0.12592 0.9842 0.0
C532 C 0.8577 0.09181 0.08762 0.0
C533 C 0.86924 0.10227 0.12563 0.0
C534 C 0.87295 0.11711 0.03229 0.0
C535 C 0.88283 0.11989 0.11492 0.0
C536 C 0.88404 0.14474 0.9813 0.0
C537 C 0.8739 0.1239 0.89711 0.0
N538 N 0.88418 0.12678 0.06948 0.0
N539 N 0.87018 0.11603 0.94218 0.0
H540 H 0.90995 0.75304 0.1062 0.0
H541 H 0.82353 0.73321 0.9476 0.0
H542 H 0.85836 0.7402 0.1667 0.0
H543 H 0.87584 0.75154 0.8832 0.0
H544 H 0.83602 0.73371 0.02788 0.0
H545 H 0.89784 0.75133 0.02367 0.0
C546 C 0.89615 0.74997 0.10216 0.0
C547 C 0.88516 0.74678 0.14334 0.0
C548 C 0.84479 0.73756 0.99623 0.0
C549 C 0.87123 0.74461 0.04956 0.0
C550 C 0.83762 0.73717 0.95027 0.0
C551 C 0.84866 0.74235 0.90867 0.0
C552 C 0.86317 0.74322 0.00075 0.0
C553 C 0.86686 0.74747 0.91442 0.0
C554 C 0.88924 0.74894 0.05514 0.0
C555 C 0.86736 0.74278 0.13608 0.0
N556 N 0.87359 0.74785 0.95975 0.0
N557 N 0.86096 0.74178 0.09017 0.0
H558 H 0.08969 0.1979 0.38085 0.0
H559 H 0.11561 0.22583 0.65822 0.0
H560 H 0.14576 0.22641 0.42235 0.0
H561 H 0.07499 0.23187 0.5814 0.0
H562 H 0.12494 0.21888 0.57941 0.0
H563 H 0.08167 0.20188 0.46383 0.0
C564 C 0.10031 0.2047 0.40761 0.0
C565 C 0.11845 0.21203 0.3945 0.0
C566 C 0.11402 0.22177 0.58022 0.0
C567 C 0.10929 0.21652 0.48941 0.0
C568 C 0.10872 0.22573 0.62487 0.0
C569 C 0.09459 0.22951 0.62611 0.0
C570 C 0.10469 0.22107 0.53729 0.0
C571 C 0.08604 0.22918 0.58204 0.0
C572 C 0.09571 0.20705 0.4548 0.0
C573 C 0.13162 0.2207 0.43089 0.0
N574 N 0.0911 0.22484 0.53952 0.0
N575 N 0.12679 0.22279 0.47688 0.0
H576 H 0.76126 0.9403 0.43863 0.0
H577 H 0.73942 0.84836 0.56961 0.0
H578 H 0.75388 0.89264 0.36427 0.0
H579 H 0.76302 0.89853 0.64924 0.0
H580 H 0.74018 0.86426 0.49538 0.0
H581 H 0.75855 0.92524 0.51763 0.0
C582 C 0.75915 0.92677 0.43888 0.0
C583 C 0.75785 0.91775 0.3948 0.0
C584 C 0.74515 0.87183 0.52907 0.0
C585 C 0.75445 0.90049 0.48427 0.0
C586 C 0.7446 0.86271 0.57166 0.0
C587 C 0.75123 0.87213 0.6157 0.0
C588 C 0.75242 0.89055 0.53025 0.0
C589 C 0.75784 0.89078 0.61592 0.0
C590 C 0.75759 0.91821 0.48383 0.0
C591 C 0.75508 0.90021 0.39717 0.0
N592 N 0.75836 0.89945 0.57364 0.0
N593 N 0.75339 0.89218 0.44101 0.0
H594 H 0.1697 0.91098 0.52866 0.0
H595 H 0.08313 0.84445 0.37013 0.0
H596 H 0.11695 0.87835 0.59211 0.0
H597 H 0.1353 0.88158 0.30955 0.0
H598 H 0.09517 0.85535 0.45245 0.0
H599 H 0.15735 0.89854 0.44848 0.0
C600 C 0.15554 0.90108 0.5258 0.0
C601 C 0.14434 0.8957 0.56707 0.0
C602 C 0.10392 0.86109 0.42101 0.0
C603 C 0.13001 0.88153 0.47522 0.0
C604 C 0.09705 0.85492 0.37411 0.0
C605 C 0.10821 0.86215 0.33296 0.0
C606 C 0.12205 0.87449 0.42652 0.0
C607 C 0.12617 0.87562 0.34015 0.0
C608 C 0.14845 0.89403 0.47992 0.0
C609 C 0.12606 0.88289 0.56113 0.0
N610 N 0.13251 0.88132 0.38595 0.0
N611 N 0.11943 0.87626 0.51594 0.0
H612 H 0.75736 0.92006 0.06053 0.0
H613 H 0.76149 0.8452 0.9051 0.0
H614 H 0.76304 0.87854 0.13349 0.0
H615 H 0.78552 0.90029 0.85597 0.0
H616 H 0.75884 0.85494 0.98776 0.0
H617 H 0.76339 0.91035 0.98229 0.0
C618 C 0.75971 0.90878 0.06001 0.0
C619 C 0.75969 0.90006 0.10343 0.0
C620 C 0.76493 0.86486 0.95889 0.0
C621 C 0.76661 0.88895 0.0142 0.0
C622 C 0.76646 0.85935 0.91186 0.0
C623 C 0.7736 0.87195 0.87358 0.0
C624 C 0.7702 0.88296 0.9671 0.0
C625 C 0.77988 0.89011 0.88431 0.0
C626 C 0.76333 0.90338 0.01547 0.0
C627 C 0.76296 0.88561 0.10072 0.0
N628 N 0.77774 0.89503 0.92991 0.0
N629 N 0.76618 0.88038 0.05662 0.0
H630 H 0.12177 0.88297 0.0947 0.0
H631 H 0.11506 0.86488 0.80647 0.0
H632 H 0.08931 0.83091 0.02751 0.0
H633 H 0.15312 0.91613 0.86997 0.0
H634 H 0.10478 0.85288 0.88797 0.0
H635 H 0.13316 0.89587 0.01359 0.0
C636 C 0.11715 0.87423 0.06295 0.0
C637 C 0.10458 0.85583 0.06779 0.0
C638 C 0.11537 0.86676 0.88428 0.0
C639 C 0.11739 0.8705 0.97522 0.0
C640 C 0.12122 0.87367 0.83761 0.0
C641 C 0.135 0.89155 0.83139 0.0
C642 C 0.12329 0.87777 0.92529 0.0
C643 C 0.14244 0.90227 0.87319 0.0
C644 C 0.12363 0.88161 0.01673 0.0
C645 C 0.09903 0.84514 0.02555 0.0
N646 N 0.13649 0.89519 0.91855 0.0
N647 N 0.10541 0.85265 0.98105 0.0
H648 H 0.05983 0.19006 0.9122 0.0
H649 H 0.13094 0.25269 0.10861 0.0
H650 H 0.08515 0.24802 0.90952 0.0
H651 H 0.09088 0.19811 0.144 0.0
H652 H 0.11455 0.25072 0.03381 0.0
H653 H 0.07078 0.19191 0.9963 0.0
C654 C 0.06746 0.20312 0.92943 0.0
C655 C 0.0718 0.21891 0.90352 0.0
C656 C 0.10922 0.23919 0.05808 0.0
C657 C 0.08444 0.2211 -0.001 0.0
C658 C 0.11869 0.24027 0.10052 0.0
C659 C 0.11236 0.22545 0.13192 0.0
C660 C 0.09351 0.22304 0.04648 0.0
C661 C 0.09615 0.20981 0.12044 0.0
C662 C 0.07366 0.20416 0.97737 0.0
C663 C 0.08164 0.23548 0.92776 0.0
N664 N 0.08738 0.20888 0.07807 0.0
N665 N 0.08784 0.23614 0.9738 0.0
H666 H 0.90295 0.73145 0.44742 0.0
H667 H 0.83932 0.75536 0.60646 0.0
H668 H 0.87177 0.75316 0.38371 0.0
H669 H 0.87479 0.73812 0.66647 0.0
H670 H 0.84985 0.75373 0.52398 0.0
H671 H 0.89104 0.73223 0.52764 0.0
C672 C 0.89346 0.73624 0.45023 0.0
C673 C 0.88834 0.74225 0.40885 0.0
C674 C 0.85531 0.75035 0.55534 0.0
C675 C 0.8748 0.74342 0.50086 0.0
C676 C 0.84936 0.75134 0.60233 0.0
C677 C 0.8562 0.74689 0.64334 0.0
C678 C 0.86811 0.74482 0.54964 0.0
C679 C 0.86913 0.74168 0.63597 0.0
C680 C 0.88673 0.73678 0.49616 0.0
C681 C 0.87608 0.74842 0.41477 0.0
N682 N 0.87461 0.74077 0.5901 0.0
N683 N 0.86975 0.74891 0.46005 0.0
H684 H 0.23544 0.08574 0.61231 0.0
H685 H 0.26652 0.17296 0.44486 0.0
H686 H 0.25224 0.13903 0.66719 0.0
H687 H 0.24096 0.11912 0.38563 0.0
H688 H 0.26541 0.16076 0.52606 0.0
H689 H 0.24054 0.09768 0.52843 0.0
C690 C 0.24014 0.0999 0.60673 0.0
C691 C 0.24327 0.11137 0.64674 0.0
C692 C 0.26016 0.15159 0.49529 0.0
C693 C 0.24935 0.1251 0.55143 0.0
C694 C 0.2609 0.15858 0.44878 0.0
C695 C 0.2537 0.14703 0.40844 0.0
C696 C 0.25209 0.1329 0.50167 0.0
C697 C 0.24658 0.1285 0.41584 0.0
C698 C 0.24309 0.10671 0.55896 0.0
C699 C 0.24947 0.12963 0.63751 0.0
N700 N 0.2458 0.12196 0.46172 0.0
N701 N 0.25231 0.1359 0.59091 0.0
H702 H 0.89623 0.16275 0.60599 0.0
H703 H 0.89588 0.10243 0.38337 0.0
H704 H 0.92193 0.13059 0.61691 0.0
H705 H 0.8546 0.11612 0.40893 0.0
H706 H 0.91079 0.11811 0.45966 0.0
H707 H 0.88655 0.15146 0.52336 0.0
C708 C 0.90003 0.15345 0.59088 0.0
C709 C 0.9097 0.14739 0.61876 0.0
C710 C 0.89849 0.11768 0.44829 0.0
C711 C 0.89859 0.13445 0.52393 0.0
C712 C 0.89005 0.10883 0.4049 0.0
C713 C 0.87384 0.10775 0.39054 0.0
C714 C 0.89083 0.12579 0.4765 0.0
C715 C 0.8668 0.11625 0.41937 0.0
C716 C 0.89443 0.14698 0.5437 0.0
C717 C 0.91434 0.13546 0.59687 0.0
N718 N 0.87536 0.12495 0.46095 0.0
N719 N 0.90863 0.12925 0.55067 0.0
H720 H 0.92082 0.41903 0.26625 0.0
H721 H 0.89604 0.48244 0.42264 0.0
H722 H 0.89986 0.45049 0.20008 0.0
H723 H 0.90968 0.44447 0.48445 0.0
H724 H 0.89782 0.4718 0.34042 0.0
H725 H 0.91799 0.42965 0.34649 0.0
C726 C 0.91573 0.42828 0.26857 0.0
C727 C 0.91061 0.43392 0.22645 0.0
C728 C 0.90031 0.46577 0.37212 0.0
C729 C 0.90713 0.44603 0.31843 0.0
C730 C 0.89924 0.47179 0.41895 0.0
C731 C 0.90279 0.46438 0.46038 0.0
C732 C 0.90503 0.45236 0.36702 0.0
C733 C 0.90693 0.45066 0.4536 0.0
C734 C 0.914 0.43427 0.31448 0.0
C735 C 0.90396 0.44582 0.23173 0.0
N736 N 0.90801 0.44517 0.40788 0.0
N737 N 0.90241 0.4515 0.277 0.0
H738 H 0.5529 0.4288 0.13482 0.0
H739 H 0.53878 0.3963 0.37633 0.0
H740 H 0.55128 0.47318 0.2038 0.0
H741 H 0.51231 0.42745 0.39547 0.0
H742 H 0.54555 0.40686 0.2914 0.0
H743 H 0.54001 0.41089 0.20946 0.0
C744 C 0.54969 0.43471 0.16547 0.0
C745 C 0.55341 0.4526 0.16341 0.0
C746 C 0.53785 0.41098 0.31384 0.0
C747 C 0.53892 0.43237 0.24862 0.0
C748 C 0.53408 0.40505 0.36245 0.0
C749 C 0.52513 0.41113 0.39327 0.0
C750 C 0.53272 0.42316 0.2963 0.0
C751 C 0.51938 0.42249 0.37331 0.0
C752 C 0.54253 0.42456 0.20815 0.0
C753 C 0.54895 0.4596 0.20398 0.0
N754 N 0.52355 0.42837 0.32644 0.0
N755 N 0.54194 0.44947 0.24487 0.0
H756 H 0.57445 0.09848 0.432 0.0
H757 H 0.48522 0.06908 0.2753 0.0
H758 H 0.52277 0.08487 0.49336 0.0
H759 H 0.53771 0.09072 0.20888 0.0
H760 H 0.49886 0.07254 0.3556 0.0
H761 H 0.5615 0.09441 0.34961 0.0
C762 C 0.56047 0.09481 0.42816 0.0
C763 C 0.54967 0.09199 0.46956 0.0
C764 C 0.50742 0.07649 0.3235 0.0
C765 C 0.53478 0.08708 0.376 0.0
C766 C 0.49961 0.0744 0.27756 0.0
C767 C 0.51035 0.07966 0.23538 0.0
C768 C 0.52614 0.08391 0.32738 0.0
C769 C 0.52894 0.08654 0.24057 0.0
C770 C 0.55307 0.09241 0.38123 0.0
C771 C 0.53161 0.08716 0.46256 0.0
N772 N 0.53629 0.08854 0.28586 0.0
N773 N 0.52475 0.08479 0.41676 0.0
H774 H 0.81167 0.57335 0.74277 0.0
H775 H 0.75821 0.52905 0.99046 0.0
H776 H 0.77288 0.51664 0.75437 0.0
H777 H 0.77656 0.58378 0.94657 0.0
H778 H 0.77078 0.5245 0.91425 0.0
H779 H 0.80627 0.57717 0.82838 0.0
C780 C 0.80221 0.56161 0.76346 0.0
C781 C 0.79245 0.54467 0.74104 0.0
C782 C 0.77223 0.53755 0.92181 0.0
C783 C 0.78632 0.54906 0.83922 0.0
C784 C 0.76519 0.54018 0.9652 0.0
C785 C 0.76617 0.55673 0.97417 0.0
C786 C 0.78062 0.55173 0.88807 0.0
C787 C 0.77523 0.57072 0.94044 0.0
C788 C 0.79913 0.56386 0.81232 0.0
C789 C 0.78052 0.52998 0.77001 0.0
N790 N 0.78209 0.5679 0.89879 0.0
N791 N 0.77764 0.53253 0.81764 0.0
H792 H 0.46716 0.23784 0.71662 0.0
H793 H 0.43851 0.2331 0.99657 0.0
H794 H 0.43307 0.25876 0.7631 0.0
H795 H 0.44283 0.19109 0.92211 0.0
H796 H 0.44495 0.24966 0.9183 0.0
H797 H 0.46765 0.22843 0.80079 0.0
C798 C 0.46009 0.24081 0.74465 0.0
C799 C 0.44979 0.2488 0.73271 0.0
C800 C 0.44464 0.23689 0.91956 0.0
C801 C 0.4504 0.23814 0.82886 0.0
C802 C 0.441 0.2275 0.96392 0.0
C803 C 0.43999 0.21069 0.96535 0.0
C804 C 0.44778 0.22957 0.87724 0.0
C805 C 0.44329 0.20393 0.92229 0.0
C806 C 0.46032 0.23536 0.79257 0.0
C807 C 0.44096 0.25238 0.77069 0.0
N808 N 0.44711 0.21342 0.88001 0.0
N809 N 0.44132 0.24687 0.81719 0.0
H810 H 0.7462 0.19316 0.719 0.0
H811 H 0.83576 0.23509 0.87914 0.0
H812 H 0.7987 0.2342 0.66938 0.0
H813 H 0.78381 0.21428 0.94821 0.0
H814 H 0.82121 0.2282 0.79945 0.0
H815 H 0.75873 0.1957 0.80179 0.0
C816 C 0.76025 0.20279 0.72554 0.0
C817 C 0.7714 0.21351 0.68722 0.0
C818 C 0.81296 0.22501 0.83205 0.0
C819 C 0.78577 0.21604 0.7807 0.0
C820 C 0.82125 0.22881 0.87766 0.0
C821 C 0.81101 0.22547 0.92045 0.0
C822 C 0.79428 0.21781 0.82897 0.0
C823 C 0.79221 0.2172 0.91606 0.0
C824 C 0.76737 0.20415 0.77258 0.0
C825 C 0.78954 0.22568 0.69763 0.0
N826 N 0.7844 0.21378 0.87093 0.0
N827 N 0.79615 0.22649 0.74315 0.0
H828 H 0.4431 0.2118 0.50629 0.0
H829 H 0.40742 0.1842 0.23191 0.0
H830 H 0.40439 0.22266 0.43664 0.0
H831 H 0.45627 0.1867 0.28282 0.0
H832 H 0.40265 0.19249 0.31319 0.0
H833 H 0.44465 0.19708 0.43078 0.0
C834 C 0.43473 0.21086 0.47546 0.0
C835 C 0.42365 0.21857 0.47769 0.0
C836 C 0.41438 0.19116 0.30678 0.0
C837 C 0.42535 0.20178 0.39169 0.0
C838 C 0.41714 0.1864 0.26028 0.0
C839 C 0.43245 0.18501 0.25025 0.0
C840 C 0.427 0.1946 0.34387 0.0
C841 C 0.44438 0.18778 0.28884 0.0
C842 C 0.4357 0.20255 0.4324 0.0
C843 C 0.41317 0.21703 0.43665 0.0
N844 N 0.44149 0.19261 0.33402 0.0
N845 N 0.41432 0.20887 0.39538 0.0
H846 H 0.77474 0.24231 0.43176 0.0
H847 H 0.83015 0.23634 0.2052 0.0
H848 H 0.78129 0.19663 0.40134 0.0
H849 H 0.80364 0.26781 0.19822 0.0
H850 H 0.81836 0.22678 0.28753 0.0
H851 H 0.79102 0.2565 0.35552 0.0
C852 C 0.77971 0.23534 0.40917 0.0
C853 C 0.77644 0.21815 0.42222 0.0
C854 C 0.81524 0.23588 0.26811 0.0
C855 C 0.79517 0.23431 0.33626 0.0
C856 C 0.82201 0.24143 0.22112 0.0
C857 C 0.81767 0.25273 0.19442 0.0
C858 C 0.80415 0.24176 0.28893 0.0
C859 C 0.80716 0.25896 0.21732 0.0
C860 C 0.78889 0.24339 0.36581 0.0
C861 C 0.78313 0.20966 0.39201 0.0
N862 N 0.80065 0.2533 0.26334 0.0
N863 N 0.79222 0.21785 0.35047 0.0
H864 H 0.74965 0.52459 0.48576 0.0
H865 H 0.74157 0.5742 0.24773 0.0
H866 H 0.78472 0.58069 0.45243 0.0
H867 H 0.72415 0.51748 0.24951 0.0
H868 H 0.7495 0.57605 0.33403 0.0
H869 H 0.73274 0.52148 0.40994 0.0
C870 C 0.75351 0.5363 0.46295 0.0
C871 C 0.76868 0.55285 0.47458 0.0
C872 C 0.74371 0.56316 0.31567 0.0
C873 C 0.74951 0.54949 0.38905 0.0
C874 C 0.73915 0.56205 0.26639 0.0
C875 C 0.73253 0.54571 0.24102 0.0
C876 C 0.74158 0.54783 0.33998 0.0
C877 C 0.72945 0.53039 0.26747 0.0
C878 C 0.74397 0.5345 0.41979 0.0
C879 C 0.77329 0.56763 0.44406 0.0
N880 N 0.73422 0.53186 0.31553 0.0
N881 N 0.76378 0.5656 0.40257 0.0
H882 H 0.56724 0.07389 0.77097 0.0
H883 H 0.49895 0.09012 0.93343 0.0
H884 H 0.53374 0.09347 0.71057 0.0
H885 H 0.53534 0.07357 0.99075 0.0
H886 H 0.51021 0.09019 0.85071 0.0
H887 H 0.55398 0.07192 0.85113 0.0
C888 C 0.55697 0.07762 0.77446 0.0
C889 C 0.55161 0.08387 0.73406 0.0
C890 C 0.5157 0.08656 0.88151 0.0
C891 C 0.53649 0.08188 0.82601 0.0
C892 C 0.50932 0.08656 0.92865 0.0
C893 C 0.51628 0.08191 0.96902 0.0
C894 C 0.52905 0.08183 0.87495 0.0
C895 C 0.52962 0.07733 0.96079 0.0
C896 C 0.54944 0.07658 0.82036 0.0
C897 C 0.53829 0.08861 0.74085 0.0
N898 N 0.53555 0.0774 0.91477 0.0
N899 N 0.53122 0.0876 0.78609 0.0
H900 H 0.90353 0.44772 0.69841 0.0
H901 H 0.919 0.4684 0.98502 0.0
H902 H 0.92039 0.49967 0.76306 0.0
H903 H 0.90554 0.41692 0.92266 0.0
H904 H 0.91982 0.47993 0.90327 0.0
H905 H 0.90485 0.43618 0.7793 0.0
C906 C 0.90766 0.45674 0.72955 0.0
C907 C 0.91181 0.47468 0.72407 0.0
C908 C 0.91669 0.4661 0.90729 0.0
C909 C 0.91321 0.46154 0.81657 0.0
C910 C 0.91614 0.45946 0.95408 0.0
C911 C 0.9121 0.44162 0.96071 0.0
C912 C 0.91311 0.45484 0.86659 0.0
C913 C 0.90864 0.43074 0.91917 0.0
C914 C 0.90838 0.45013 0.77568 0.0
C915 C 0.91709 0.48577 0.76557 0.0
N916 N 0.90918 0.43753 0.87375 0.0
N917 N 0.91754 0.47898 0.8101 0.0
H918 H 0.53418 0.4552 0.68137 0.0
H919 H 0.59634 0.45354 0.88946 0.0
H920 H 0.56919 0.4336 0.6549 0.0
H921 H 0.57735 0.49159 0.8867 0.0
H922 H 0.58798 0.44678 0.8029 0.0
H923 H 0.55085 0.46939 0.75612 0.0
C924 C 0.54553 0.45363 0.69126 0.0
C925 C 0.55028 0.44315 0.66261 0.0
C926 C 0.58598 0.45684 0.82114 0.0
C927 C 0.56926 0.45904 0.74824 0.0
C928 C 0.59071 0.46068 0.87053 0.0
C929 C 0.58722 0.47289 0.89563 0.0
C930 C 0.57754 0.46512 0.79715 0.0
C931 C 0.58002 0.48185 0.86916 0.0
C932 C 0.55512 0.46179 0.73371 0.0
C933 C 0.56521 0.44165 0.67634 0.0
N934 N 0.57516 0.47757 0.82165 0.0
N935 N 0.57401 0.44924 0.71891 0.0
H936 H 0.58677 0.82073 0.77583 0.0
H937 H 0.54746 0.78695 0.50746 0.0
H938 H 0.53467 0.81211 0.732 0.0
H939 H 0.58819 0.77889 0.57604 0.0
H940 H 0.54573 0.80185 0.5824 0.0
H941 H 0.59072 0.81153 0.69489 0.0
C942 C 0.57616 0.817 0.74908 0.0
C943 C 0.5602 0.81692 0.76104 0.0
C944 C 0.55513 0.79692 0.58065 0.0
C945 C 0.56473 0.80632 0.66791 0.0
C946 C 0.5562 0.7885 0.53796 0.0
C947 C 0.56797 0.7816 0.53556 0.0
C948 C 0.56611 0.79865 0.62073 0.0
C949 C 0.5789 0.78391 0.57616 0.0
C950 C 0.57845 0.81172 0.70281 0.0
C951 C 0.5471 0.81221 0.72445 0.0
N952 N 0.5777 0.79222 0.61701 0.0
N953 N 0.54959 0.80693 0.67945 0.0
H954 H 0.23049 0.76373 0.48723 0.0
H955 H 0.17458 0.75549 0.72939 0.0
H956 H 0.21057 0.79942 0.5243 0.0
H957 H 0.21374 0.73794 0.72386 0.0
H958 H 0.18041 0.76395 0.6433 0.0
H959 H 0.21724 0.74689 0.5635 0.0
C960 C 0.22301 0.76776 0.51096 0.0
C961 C 0.22178 0.78308 0.50016 0.0
C962 C 0.18754 0.75802 0.66079 0.0
C963 C 0.2066 0.76397 0.58631 0.0
C964 C 0.18421 0.75313 0.70995 0.0
C965 C 0.19395 0.74629 0.73421 0.0
C966 C 0.20059 0.75594 0.63546 0.0
C967 C 0.20611 0.74339 0.70678 0.0
C968 C 0.21558 0.75826 0.55441 0.0
C969 C 0.21209 0.78789 0.53194 0.0
N970 N 0.20924 0.74841 0.65885 0.0
N971 N 0.20489 0.77839 0.57369 0.0
H972 H 0.2054 0.42071 0.53946 0.0
H973 H 0.18733 0.41302 0.82737 0.0
H974 H 0.15299 0.39931 0.60614 0.0
H975 H 0.23915 0.42694 0.76635 0.0
H976 H 0.17508 0.40863 0.74537 0.0
H977 H 0.21842 0.42304 0.62089 0.0
C978 C 0.19661 0.41629 0.57111 0.0
C979 C 0.17809 0.40988 0.56608 0.0
C980 C 0.18914 0.41264 0.74968 0.0
C981 C 0.19289 0.41271 0.65896 0.0
C982 C 0.19621 0.41527 0.79664 0.0
C983 C 0.21434 0.42042 0.80377 0.0
C984 C 0.20025 0.41525 0.70918 0.0
C985 C 0.22511 0.42303 0.76243 0.0
C986 C 0.20405 0.41767 0.61752 0.0
C987 C 0.16732 0.40435 0.60822 0.0
N988 N 0.2179 0.42045 0.7167 0.0
N989 N 0.17491 0.40602 0.65286 0.0
H990 H 0.48565 0.89468 0.09268 0.0
H991 H 0.41136 0.89805 0.24989 0.0
H992 H 0.42969 0.86646 0.05012 0.0
H993 H 0.45314 0.89333 0.32458 0.0
H994 H 0.42078 0.89107 0.17269 0.0
H995 H 0.47659 0.89777 0.17596 0.0
C996 C 0.47148 0.88889 0.10102 0.0
C997 C 0.4584 0.88044 0.06433 0.0
C998 C 0.42787 0.89153 0.206 0.0
C999 C 0.44814 0.88431 0.1585 0.0
C1000 C 0.42263 0.89568 0.24998 0.0
C1001 C 0.43152 0.89628 0.29362 0.0
C1002 C 0.44235 0.88833 0.20534 0.0
C1003 C 0.44595 0.89296 0.29162 0.0
C1004 C 0.46636 0.89065 0.14841 0.0
C1005 C 0.44024 0.87314 0.07711 0.0
N1006 N 0.45108 0.88927 0.24791 0.0
N1007 N 0.43567 0.87554 0.1229 0.0
H1008 H 0.13372 0.57337 0.04762 0.0
H1009 H 0.10336 0.56858 0.32553 0.0
H1010 H 0.10203 0.59729 0.09184 0.0
H1011 H 0.1047 0.52509 0.2501 0.0
H1012 H 0.11067 0.58539 0.24753 0.0
H1013 H 0.13198 0.56248 0.13121 0.0
C1014 C 0.12671 0.57666 0.07507 0.0
C1015 C 0.11776 0.58601 0.06259 0.0
C1016 C 0.10943 0.5722 0.24849 0.0
C1017 C 0.11581 0.57362 0.15811 0.0
C1018 C 0.10529 0.56266 0.29269 0.0
C1019 C 0.10328 0.54541 0.29389 0.0
C1020 C 0.1121 0.56457 0.20607 0.0
C1021 C 0.10592 0.53827 0.25056 0.0
C1022 C 0.12565 0.57035 0.12264 0.0
C1023 C 0.10892 0.58992 0.09985 0.0
N1024 N 0.1103 0.54793 0.20848 0.0
N1025 N 0.10804 0.58358 0.14605 0.0
H1026 H 0.46766 0.54823 0.98886 0.0
H1027 H 0.44804 0.54115 0.27633 0.0
H1028 H 0.41488 0.51338 0.0496 0.0
H1029 H 0.50056 0.57277 0.21073 0.0
H1030 H 0.43548 0.52971 0.19495 0.0
H1031 H 0.47967 0.55662 0.07101 0.0
C1032 C 0.45854 0.54238 0.01955 0.0
C1033 C 0.44019 0.53016 0.01231 0.0
C1034 C 0.44977 0.53903 0.19854 0.0
C1035 C 0.45398 0.53971 0.10708 0.0
C1036 C 0.45696 0.54553 0.24494 0.0
C1037 C 0.47537 0.55798 0.25027 0.0
C1038 C 0.46109 0.54511 0.15738 0.0
C1039 C 0.4863 0.5632 0.20844 0.0
C1040 C 0.46545 0.54713 0.06661 0.0
C1041 C 0.4291 0.52292 0.0536 0.0
N1042 N 0.47897 0.55682 0.1638 0.0
N1043 N 0.43617 0.52786 0.09939 0.0
H1044 H 0.11903 0.55795 0.82736 0.0
H1045 H 0.07422 0.51834 0.56725 0.0
H1046 H 0.07445 0.56148 0.76695 0.0
H1047 H 0.12931 0.53351 0.59937 0.0
H1048 H 0.07126 0.52758 0.64927 0.0
H1049 H 0.12013 0.54284 0.75208 0.0
C1050 C 0.10934 0.55536 0.79859 0.0
C1051 C 0.09669 0.5611 0.80325 0.0
C1052 C 0.08396 0.52878 0.63851 0.0
C1053 C 0.0978 0.54379 0.71778 0.0
C1054 C 0.08568 0.52346 0.59167 0.0
C1055 C 0.10216 0.5254 0.57607 0.0
C1056 C 0.09876 0.53602 0.67031 0.0
C1057 C 0.11643 0.53195 0.60972 0.0
C1058 C 0.11004 0.54683 0.75569 0.0
C1059 C 0.08451 0.55748 0.76486 0.0
N1060 N 0.11445 0.53717 0.65531 0.0
N1061 N 0.08537 0.54905 0.72378 0.0
H1062 H 0.45579 0.5534 0.77618 0.0
H1063 H 0.43703 0.54911 0.48967 0.0
H1064 H 0.41411 0.50631 0.70324 0.0
H1065 H 0.48993 0.58365 0.55003 0.0
H1066 H 0.42625 0.53678 0.57124 0.0
H1067 H 0.46676 0.56771 0.69603 0.0
C1068 C 0.44901 0.54606 0.74332 0.0
C1069 C 0.43406 0.52864 0.74618 0.0
C1070 C 0.4402 0.54713 0.5666 0.0
C1071 C 0.44626 0.545 0.65511 0.0
C1072 C 0.44634 0.55428 0.52016 0.0
C1073 C 0.46445 0.56734 0.51303 0.0
C1074 C 0.45218 0.55323 0.60627 0.0
C1075 C 0.47589 0.57351 0.55393 0.0
C1076 C 0.45526 0.55423 0.69776 0.0
C1077 C 0.42575 0.51972 0.70261 0.0
N1078 N 0.46956 0.56637 0.59896 0.0
N1079 N 0.43188 0.52806 0.65883 0.0
H1080 H 0.42932 0.87069 0.82291 0.0
H1081 H 0.42863 0.91846 0.57297 0.0
H1082 H 0.47388 0.92039 0.76971 0.0
H1083 H 0.39576 0.86098 0.59301 0.0
H1084 H 0.44067 0.921 0.65499 0.0
H1085 H 0.41262 0.86864 0.74773 0.0
C1086 C 0.43552 0.88125 0.79569 0.0
C1087 C 0.4531 0.89565 0.80224 0.0
C1088 C 0.43073 0.90785 0.64159 0.0
C1089 C 0.43409 0.89349 0.71713 0.0
C1090 C 0.42378 0.90635 0.59476 0.0
C1091 C 0.41133 0.88941 0.57572 0.0
C1092 C 0.42517 0.89234 0.66995 0.0
C1093 C 0.40546 0.87427 0.60606 0.0
C1094 C 0.42602 0.88001 0.75289 0.0
C1095 C 0.46052 0.90894 0.76594 0.0
N1096 N 0.41254 0.87607 0.65175 0.0
N1097 N 0.45098 0.90754 0.72498 0.0
H1098 H 0.21537 0.43743 0.32674 0.0
H1099 H 0.1972 0.42494 0.04008 0.0
H1100 H 0.16279 0.42067 0.26639 0.0
H1101 H 0.23759 0.41727 0.11249 0.0
H1102 H 0.18607 0.4278 0.12046 0.0
H1103 H 0.22589 0.43548 0.2452 0.0
C1104 C 0.20608 0.43356 0.29625 0.0
C1105 C 0.18814 0.42911 0.30338 0.0
C1106 C 0.1973 0.4254 0.11857 0.0
C1107 C 0.20012 0.4268 0.21013 0.0
C1108 C 0.20365 0.42376 0.07288 0.0
C1109 C 0.21832 0.42085 0.06978 0.0
C1110 C 0.20594 0.42448 0.16116 0.0
C1111 C 0.22619 0.41943 0.11328 0.0
C1112 C 0.21207 0.43231 0.24983 0.0
C1113 C 0.17671 0.42413 0.26248 0.0
N1114 N 0.22001 0.42142 0.15723 0.0
N1115 N 0.1829 0.4231 0.21744 0.0
H1116 H 0.55979 0.7734 0.01445 0.0
H1117 H 0.53051 0.76823 0.29329 0.0
H1118 H 0.55806 0.81662 0.09031 0.0
H1119 H 0.56291 0.74529 0.2474 0.0
H1120 H 0.53183 0.77916 0.20993 0.0
H1121 H 0.5533 0.75684 0.09261 0.0
C1122 C 0.55798 0.77934 0.04745 0.0
C1123 C 0.5596 0.79643 0.04628 0.0
C1124 C 0.53841 0.77149 0.21809 0.0
C1125 C 0.55169 0.77751 0.13433 0.0
C1126 C 0.53759 0.76515 0.2655 0.0
C1127 C 0.54686 0.75608 0.27742 0.0
C1128 C 0.54832 0.7685 0.18224 0.0
C1129 C 0.55577 0.75245 0.2398 0.0
C1130 C 0.55429 0.76992 0.09174 0.0
C1131 C 0.55712 0.80357 0.08982 0.0
N1132 N 0.55641 0.75879 0.19375 0.0
N1133 N 0.55317 0.79402 0.13203 0.0
H1134 H 0.26258 0.78498 0.22437 0.0
H1135 H 0.20078 0.7912 0.02371 0.0
H1136 H 0.24615 0.82501 0.22887 0.0
H1137 H 0.23561 0.77006 0.98865 0.0
H1138 H 0.21775 0.804 0.09907 0.0
H1139 H 0.25375 0.77955 0.13783 0.0
C1140 C 0.25741 0.79283 0.20704 0.0
C1141 C 0.25483 0.80525 0.23416 0.0
C1142 C 0.2219 0.79681 0.0746 0.0
C1143 C 0.24456 0.79897 0.13571 0.0
C1144 C 0.21214 0.78943 0.03179 0.0
C1145 C 0.21675 0.77946 0.00048 0.0
C1146 C 0.23606 0.79377 0.08678 0.0
C1147 C 0.23172 0.77773 0.01208 0.0
C1148 C 0.25242 0.78975 0.15767 0.0
C1149 C 0.24818 0.81513 0.20969 0.0
N1150 N 0.24068 0.78451 0.05497 0.0
N1151 N 0.24299 0.81154 0.16216 0.0
H1152 H 0.2143 0.26636 0.16062 0.0
H1153 H 0.25693 0.21866 0.1958 0.0
H1154 H 0.19982 0.25085 0.31167 0.0
H1155 H 0.2658 0.23726 0.34553 0.0
H1156 H 0.24436 0.238 0.17826 0.0
H1157 H 0.24117 0.26376 0.17204 0.0
C1158 C 0.21696 0.26282 0.19651 0.0
C1159 C 0.20449 0.25823 0.23489 0.0
C1160 C 0.24971 0.23845 0.21447 0.0
C1161 C 0.23499 0.25502 0.24776 0.0
C1162 C 0.25678 0.22729 0.22455 0.0
C1163 C 0.26214 0.22617 0.27232 0.0
C1164 C 0.24763 0.24821 0.25277 0.0
C1165 C 0.26171 0.23765 0.30824 0.0
C1166 C 0.23223 0.26121 0.2028 0.0
C1167 C 0.20881 0.25401 0.28073 0.0
N1168 N 0.25398 0.24777 0.29814 0.0
N1169 N 0.22358 0.25223 0.28569 0.0
H1170 H 0.73644 0.95765 0.30695 0.0
H1171 H 0.78972 0.04997 0.194 0.0
H1172 H 0.72947 0.96628 0.15465 0.0
H1173 H 0.77462 0.04402 0.34661 0.0
H1174 H 0.76386 0.02029 0.17778 0.0
H1175 H 0.74575 0.98902 0.3238 0.0
C1176 C 0.73635 0.96601 0.27732 0.0
C1177 C 0.7327 0.95951 0.2291 0.0
C1178 C 0.76586 0.02568 0.21458 0.0
C1179 C 0.74374 0.99547 0.24783 0.0
C1180 C 0.78068 0.0426 0.22384 0.0
C1181 C 0.78454 0.04924 0.27187 0.0
C1182 C 0.75523 0.01515 0.2539 0.0
C1183 C 0.77226 0.03928 0.30911 0.0
C1184 C 0.74163 0.98393 0.28695 0.0
C1185 C 0.7325 0.97082 0.19225 0.0
N1186 N 0.75844 0.02246 0.29963 0.0
N1187 N 0.73855 0.98845 0.20206 0.0
H1188 H 0.94856 0.72845 0.19017 0.0
H1189 H 0.04497 0.78027 0.28359 0.0
H1190 H 0.96057 0.72192 0.33976 0.0
H1191 H 0.03426 0.76135 0.13412 0.0
H1192 H 0.01457 0.75686 0.30605 0.0
H1193 H 0.97961 0.7379 0.16765 0.0
C1194 C 0.95761 0.72855 0.21799 0.0
C1195 C 0.9521 0.72471 0.26702 0.0
C1196 C 0.01904 0.75752 0.2686 0.0
C1197 C 0.98765 0.73593 0.24186 0.0
C1198 C 0.03636 0.77092 0.25576 0.0
C1199 C 0.04201 0.77295 0.20679 0.0
C1200 C 0.00718 0.74646 0.23194 0.0
C1201 C 0.03039 0.76037 0.17225 0.0
C1202 C 0.97531 0.7339 0.20514 0.0
C1203 C 0.96432 0.72491 0.30158 0.0
N1204 N 0.01332 0.74795 0.1852 0.0
N1205 N 0.9817 0.73097 0.28863 0.0
H1206 H 0.7567 0.7256 0.84199 0.0
H1207 H 0.72886 0.77583 0.64567 0.0
H1208 H 0.77738 0.73738 0.69414 0.0
H1209 H 0.73495 0.78765 0.80049 0.0
H1210 H 0.73472 0.75106 0.66047 0.0
H1211 H 0.73667 0.73727 0.82227 0.0
C1212 C 0.75664 0.73009 0.80492 0.0
C1213 C 0.76905 0.73094 0.76992 0.0
C1214 C 0.73428 0.75881 0.69124 0.0
C1215 C 0.74612 0.74413 0.7474 0.0
C1216 C 0.73088 0.77287 0.68294 0.0
C1217 C 0.73176 0.78397 0.72189 0.0
C1218 C 0.73821 0.75568 0.73884 0.0
C1219 C 0.73447 0.77958 0.76941 0.0
C1220 C 0.74525 0.7368 0.79387 0.0
C1221 C 0.76828 0.73683 0.72248 0.0
N1222 N 0.73779 0.76586 0.77653 0.0
N1223 N 0.75719 0.74347 0.71275 0.0
H1224 H 0.26618 0.03926 0.86011 0.0
H1225 H 0.23713 0.96873 0.64207 0.0
H1226 H 0.26257 0.05144 0.70848 0.0
H1227 H 0.21641 0.95554 0.78959 0.0
H1228 H 0.2585 -0.00067 0.66912 0.0
H1229 H 0.26028 0.00938 0.83558 0.0
C1230 C 0.26475 0.03589 0.8215 0.0
C1231 C 0.26443 0.04766 0.78631 0.0
C1232 C 0.24962 0.98954 0.69574 0.0
C1233 C 0.25782 0.01367 0.75833 0.0
C1234 C 0.23747 0.97207 0.68047 0.0
C1235 C 0.22471 0.95973 0.71349 0.0
C1236 C 0.24913 0.99454 0.74439 0.0
C1237 C 0.22579 0.96478 0.76279 0.0
C1238 C 0.26133 0.01882 0.80766 0.0
C1239 C 0.26255 0.0426 0.73684 0.0
N1240 N 0.23762 0.98191 0.77666 0.0
N1241 N 0.25905 0.02585 0.72433 0.0
H1242 H 0.95313 0.23976 0.84546 0.0
H1243 H 0.03973 0.26068 0.81637 0.0
H1244 H 0.94985 0.2214 0.69653 0.0
H1245 H 0.03434 0.2688 0.66265 0.0
H1246 H 0.01001 0.25682 0.83092 0.0
H1247 H 0.98516 0.261 0.83335 0.0
C1248 C 0.95901 0.2405 0.8098 0.0
C1249 C 0.94894 0.22835 0.77242 0.0
C1250 C 0.01556 0.26017 0.79428 0.0
C1251 C 0.98557 0.25226 0.75888 0.0
C1252 C 0.03251 0.26222 0.78592 0.0
C1253 C 0.03936 0.26472 0.73812 0.0
C1254 C 0.00526 0.26027 0.75436 0.0
C1255 C 0.02949 0.26672 0.70005 0.0
C1256 C 0.97735 0.2525 0.80315 0.0
C1257 C 0.95723 0.23015 0.7268 0.0
N1258 N 0.01268 0.26388 0.70875 0.0
N1259 N 0.97516 0.24164 0.72158 0.0
H1260 H 0.86378 0.58756 0.63001 0.0
H1261 H 0.93129 0.56881 0.64748 0.0
H1262 H 0.86859 0.58667 0.47281 0.0
H1263 H 0.90766 0.54103 0.5119 0.0
H1264 H 0.9194 0.58888 0.6314 0.0
H1265 H 0.89018 0.58419 0.63861 0.0
C1266 C 0.87076 0.58723 0.59729 0.0
C1267 C 0.86386 0.58712 0.55068 0.0
C1268 C 0.91704 0.57853 0.60492 0.0
C1269 C 0.89405 0.58316 0.56007 0.0
C1270 C 0.92395 0.56714 0.61379 0.0
C1271 C 0.91988 0.55276 0.58185 0.0
C1272 C 0.90599 0.57545 0.56394 0.0
C1273 C 0.91065 0.55157 0.5383 0.0
C1274 C 0.88596 0.58546 0.60216 0.0
C1275 C 0.87344 0.58671 0.50946 0.0
N1276 N 0.90372 0.56255 0.53106 0.0
N1277 N 0.88774 0.58416 0.51512 0.0
H1278 H 0.39918 0.29178 0.49772 0.0
H1279 H 0.44961 0.37878 0.66448 0.0
H1280 H 0.41131 0.29172 0.6512 0.0
H1281 H 0.45699 0.3776 0.50827 0.0
H1282 H 0.42425 0.34805 0.66023 0.0
H1283 H 0.40877 0.32376 0.50382 0.0
C1284 C 0.40328 0.29832 0.5331 0.0
C1285 C 0.40493 0.28922 0.57377 0.0
C1286 C 0.43112 0.35474 0.62673 0.0
C1287 C 0.41583 0.32567 0.58078 0.0
C1288 C 0.44557 0.37231 0.62901 0.0
C1289 C 0.45579 0.38057 0.58682 0.0
C1290 C 0.4268 0.34549 0.58196 0.0
C1291 C 0.44977 0.37156 0.54188 0.0
C1292 C 0.40881 0.31658 0.53642 0.0
C1293 C 0.41024 0.29835 0.61869 0.0
N1294 N 0.43586 0.35435 0.54075 0.0
N1295 N 0.4158 0.31618 0.62081 0.0
H1296 H 0.62742 0.0679 0.65966 0.0
H1297 H 0.71328 0.13577 0.61898 0.0
H1298 H 0.62002 0.08512 0.51716 0.0
H1299 H 0.7046 0.1211 0.46606 0.0
H1300 H 0.68333 0.11067 0.63741 0.0
H1301 H 0.65931 0.08019 0.64094 0.0
C1302 C 0.63236 0.07384 0.62395 0.0
C1303 C 0.62114 0.07597 0.59042 0.0
C1304 C 0.6882 0.11252 0.60006 0.0
C1305 C 0.65756 0.09021 0.56933 0.0
C1306 C 0.70524 0.12696 0.5895 0.0
C1307 C 0.71132 0.13061 0.54091 0.0
C1308 C 0.67705 0.10196 0.56156 0.0
C1309 C 0.7004 0.11876 0.50405 0.0
C1310 C 0.6506 0.08099 0.61357 0.0
C1311 C 0.62828 0.0836 0.54454 0.0
N1312 N 0.68355 0.10526 0.51493 0.0
N1313 N 0.64613 0.09069 0.53559 0.0
H1314 H 0.39851 0.12046 0.14351 0.0
H1315 H 0.43506 0.06588 0.02246 0.0
H1316 H 0.39287 0.11049 0.98771 0.0
H1317 H 0.41654 0.05575 0.17236 0.0
H1318 H 0.41502 0.07778 0.00642 0.0
H1319 H 0.40018 0.09313 0.15484 0.0
C1320 C 0.39715 0.11227 0.11182 0.0
C1321 C 0.39604 0.11802 0.0645 0.0
C1322 C 0.4149 0.07244 0.04246 0.0
C1323 C 0.39834 0.08697 0.07703 0.0
C1324 C 0.42637 0.06565 0.05161 0.0
C1325 C 0.42784 0.06029 0.09913 0.0
C1326 C 0.40527 0.07433 0.08144 0.0
C1327 C 0.41608 0.06004 0.13535 0.0
C1328 C 0.39804 0.09662 0.11829 0.0
C1329 C 0.39404 0.10673 0.02482 0.0
N1330 N 0.4057 0.06754 0.12618 0.0
N1331 N 0.39581 0.09203 0.03179 0.0
H1332 H 0.93289 0.38004 0.00914 0.0
H1333 H 0.90782 0.29281 0.96356 0.0
H1334 H 0.94522 0.3717 0.15683 0.0
H1335 H 0.89275 0.28824 0.11604 0.0
H1336 H 0.93023 0.32446 0.97701 0.0
H1337 H 0.92701 0.35003 0.98754 0.0
C1338 C 0.93492 0.37212 0.03662 0.0
C1339 C 0.93918 0.37825 0.08509 0.0
C1340 C 0.92223 0.31641 0.00764 0.0
C1341 C 0.93242 0.34384 0.06075 0.0
C1342 C 0.90957 0.2983 0.00019 0.0
C1343 C 0.89805 0.28804 0.0385 0.0
C1344 C 0.92336 0.32417 0.05372 0.0
C1345 C 0.90105 0.29581 0.08524 0.0
C1346 C 0.9317 0.355 0.02417 0.0
C1347 C 0.94175 0.36746 0.11913 0.0
N1348 N 0.91324 0.31351 0.09138 0.0
N1349 N 0.93776 0.35053 0.10671 0.0
H1350 H 0.70391 0.5954 0.97929 0.0
H1351 H 0.61831 0.55388 0.15147 0.0
H1352 H 0.70441 0.58811 0.13566 0.0
H1353 H 0.61786 0.54373 0.99641 0.0
H1354 H 0.64941 0.57839 0.14408 0.0
H1355 H 0.67283 0.58897 0.98541 0.0
C1356 C 0.69774 0.5931 0.01518 0.0
C1357 C 0.70655 0.59171 0.05687 0.0
C1358 C 0.6423 0.57114 0.11145 0.0
C1359 C 0.67107 0.58431 0.0639 0.0
C1360 C 0.62452 0.55717 0.11554 0.0
C1361 C 0.61569 0.54638 0.07472 0.0
C1362 C 0.65119 0.57433 0.06624 0.0
C1363 C 0.62436 0.55141 0.02907 0.0
C1364 C 0.67996 0.58935 0.01855 0.0
C1365 C 0.69792 0.58883 0.1024 0.0
N1366 N 0.64177 0.5648 0.02622 0.0
N1367 N 0.68051 0.58484 0.1046 0.0
H1368 H 0.55527 0.93697 0.83532 0.0
H1369 H 0.59048 0.88297 0.85941 0.0
H1370 H 0.53967 0.91991 0.98493 0.0
H1371 H 0.59704 0.89558 0.01375 0.0
H1372 H 0.58285 0.90638 0.84639 0.0
H1373 H 0.58102 0.93244 0.84557 0.0
C1374 C 0.55749 0.9327 0.87072 0.0
C1375 C 0.54491 0.92813 0.9088 0.0
C1376 C 0.58671 0.90464 0.88284 0.0
C1377 C 0.57403 0.92256 0.92024 0.0
C1378 C 0.59096 0.89112 0.89032 0.0
C1379 C 0.59389 0.88697 0.93791 0.0
C1380 C 0.58507 0.9138 0.92345 0.0
C1381 C 0.59455 0.8981 0.97651 0.0
C1382 C 0.57211 0.92996 0.87634 0.0
C1383 C 0.5487 0.92303 0.95409 0.0
N1384 N 0.58953 0.9106 0.96871 0.0
N1385 N 0.56274 0.92004 0.95825 0.0
H1386 H 0.06651 0.63034 0.83133 0.0
H1387 H 0.11634 0.71634 0.00135 0.0
H1388 H 0.07976 0.6297 0.98363 0.0
H1389 H 0.12264 0.71603 0.84447 0.0
H1390 H 0.09109 0.68551 -0.00313 0.0
H1391 H 0.07486 0.66192 0.83987 0.0
C1392 C 0.07058 0.63663 0.86702 0.0
C1393 C 0.07298 0.62755 0.90651 0.0
C1394 C 0.09767 0.69243 0.96331 0.0
C1395 C 0.08248 0.66357 0.9163 0.0
C1396 C 0.11204 0.71005 0.96574 0.0
C1397 C 0.12193 0.71855 0.92332 0.0
C1398 C 0.09312 0.6834 0.91817 0.0
C1399 C 0.11565 0.70978 0.8782 0.0
C1400 C 0.07539 0.65467 0.87174 0.0
C1401 C 0.07815 0.63635 0.95192 0.0
N1402 N 0.10183 0.69253 0.8769 0.0
N1403 N 0.08307 0.654 0.95537 0.0
H1404 H 0.27841 0.40419 0.85723 0.0
H1405 H 0.37435 0.45078 0.95607 0.0
H1406 H 0.28872 0.39661 0.00761 0.0
H1407 H 0.36357 0.43374 0.80505 0.0
H1408 H 0.34343 0.42826 0.97681 0.0
H1409 H 0.30913 0.41195 0.83623 0.0
C1410 C 0.287 0.40373 0.88558 0.0
C1411 C 0.28114 0.4001 0.93437 0.0
C1412 C 0.34797 0.4291 0.93936 0.0
C1413 C 0.31636 0.40934 0.9109 0.0
C1414 C 0.36561 0.44199 0.92751 0.0
C1415 C 0.37141 0.44438 0.87863 0.0
C1416 C 0.33597 0.41892 0.90184 0.0
C1417 C 0.35959 0.43249 0.84315 0.0
C1418 C 0.30452 0.4081 0.87358 0.0
C1419 C 0.29276 0.39951 0.96959 0.0
N1420 N 0.34225 0.42061 0.8552 0.0
N1421 N 0.31001 0.40461 0.95745 0.0
H1422 H 0.06581 0.45627 0.47505 0.0
H1423 H 0.10356 0.40179 0.35692 0.0
H1424 H 0.06018 0.44529 0.31973 0.0
H1425 H 0.08554 0.39255 0.50726 0.0
H1426 H 0.08359 0.41375 0.34048 0.0
H1427 H 0.06855 0.4296 0.48787 0.0
C1428 C 0.0647 0.448 0.44379 0.0
C1429 C 0.06323 0.45327 0.39615 0.0
C1430 C 0.08359 0.40862 0.37674 0.0
C1431 C 0.06674 0.42298 0.4104 0.0
C1432 C 0.09502 0.40181 0.38612 0.0
C1433 C 0.09652 0.39658 0.43376 0.0
C1434 C 0.07402 0.41066 0.4156 0.0
C1435 C 0.08498 0.39668 0.47011 0.0
C1436 C 0.06621 0.43272 0.45111 0.0
C1437 C 0.06158 0.4419 0.35705 0.0
N1438 N 0.07461 0.40417 0.46067 0.0
N1439 N 0.06391 0.42757 0.36486 0.0
H1440 H 0.54833 0.62393 0.46258 0.0
H1441 H 0.59169 0.71803 0.35243 0.0
H1442 H 0.56844 0.63375 0.31418 0.0
H1443 H 0.59599 0.71077 0.50728 0.0
H1444 H 0.58681 0.68786 0.33766 0.0
H1445 H 0.56904 0.65549 0.48199 0.0
C1446 C 0.55744 0.63263 0.43443 0.0
C1447 C 0.55637 0.62633 0.38642 0.0
C1448 C 0.58932 0.69303 0.37477 0.0
C1449 C 0.57977 0.66247 0.40804 0.0
C1450 C 0.59203 0.71023 0.38318 0.0
C1451 C 0.5939 0.71673 0.43119 0.0
C1452 C 0.58792 0.68211 0.41478 0.0
C1453 C 0.59444 0.70617 0.46971 0.0
C1454 C 0.5693 0.65064 0.44554 0.0
C1455 C 0.56864 0.6381 0.35152 0.0
N1456 N 0.59093 0.68914 0.46084 0.0
N1457 N 0.57948 0.65576 0.36263 0.0
H1458 H 0.37275 0.9219 0.48329 0.0
H1459 H 0.28437 0.87733 0.34251 0.0
H1460 H 0.37 0.93363 0.33076 0.0
H1461 H 0.28575 0.88333 0.49967 0.0
H1462 H 0.31487 0.90297 0.3379 0.0
H1463 H 0.34126 0.91353 0.49281 0.0
C1464 C 0.36568 0.92322 0.45212 0.0
C1465 C 0.37385 0.92788 0.40578 0.0
C1466 C 0.30835 0.89904 0.37334 0.0
C1467 C 0.33769 0.91791 0.41612 0.0
C1468 C 0.29093 0.88436 0.37594 0.0
C1469 C 0.28272 0.87791 0.42162 0.0
C1470 C 0.31778 0.90696 0.41683 0.0
C1471 C 0.2917 0.88769 0.46372 0.0
C1472 C 0.34766 0.91844 0.45756 0.0
C1473 C 0.36414 0.92971 0.36695 0.0
N1474 N 0.30898 0.9014 0.46047 0.0
N1475 N 0.34639 0.92416 0.3726 0.0
H1476 H 0.28688 0.16563 0.17939 0.0
H1477 H 0.39075 0.19605 0.14794 0.0
H1478 H 0.32844 0.1995 0.28207 0.0
H1479 H 0.35053 0.16419 0.03989 0.0
H1480 H 0.36806 0.19842 0.19508 0.0
H1481 H 0.30981 0.1657 0.12627 0.0
C1482 C 0.30082 0.17311 0.19083 0.0
C1483 C 0.30571 0.18252 0.23556 0.0
C1484 C 0.36414 0.19098 0.16096 0.0
C1485 C 0.33203 0.18265 0.17458 0.0
C1486 C 0.37712 0.1896 0.13388 0.0
C1487 C 0.37253 0.17976 0.08992 0.0
C1488 C 0.3463 0.18239 0.14439 0.0
C1489 C 0.35467 0.17188 0.07355 0.0
C1490 C 0.31391 0.17316 0.16032 0.0
C1491 C 0.324 0.19201 0.24813 0.0
N1492 N 0.34215 0.17324 0.10104 0.0
N1493 N 0.33646 0.19177 0.2179 0.0
H1494 H 0.8324 0.20609 0.13985 0.0
H1495 H 0.85712 0.12875 0.1796 0.0
H1496 H 0.8606 0.19256 0.03205 0.0
H1497 H 0.82924 0.14292 0.28677 0.0
H1498 H 0.85914 0.15236 0.12591 0.0
H1499 H 0.83155 0.18325 0.19412 0.0
C1500 C 0.83841 0.1983 0.12741 0.0
C1501 C 0.84658 0.20129 0.08104 0.0
C1502 C 0.85263 0.15036 0.16121 0.0
C1503 C 0.84566 0.17498 0.14367 0.0
C1504 C 0.85147 0.13687 0.19206 0.0
C1505 C 0.84292 0.13376 0.23792 0.0
C1506 C 0.84518 0.16087 0.17613 0.0
C1507 C 0.83593 0.14478 0.25184 0.0
C1508 C 0.83793 0.18524 0.15864 0.0
C1509 C 0.85414 0.19073 0.06733 0.0
N1510 N 0.83716 0.1578 0.221 0.0
N1511 N 0.85349 0.17804 0.09852 0.0
H1512 H 0.80146 0.64037 0.05401 0.0
H1513 H 0.8566 0.66312 0.30615 0.0
H1514 H 0.78683 0.60258 0.17355 0.0
H1515 H 0.86676 0.70216 0.19257 0.0
H1516 H 0.83175 0.64028 0.25703 0.0
H1517 H 0.82637 0.6628 0.10322 0.0
C1518 C 0.80347 0.63676 0.09053 0.0
C1519 C 0.79198 0.61954 0.10958 0.0
C1520 C 0.83944 0.65387 0.24299 0.0
C1521 C 0.82053 0.64519 0.16622 0.0
C1522 C 0.85364 0.66691 0.271 0.0
C1523 C 0.86382 0.68462 0.25361 0.0
C1524 C 0.83546 0.65857 0.19719 0.0
C1525 C 0.85932 0.68872 0.20769 0.0
C1526 C 0.8177 0.64959 0.11869 0.0
C1527 C 0.7953 0.61568 0.15727 0.0
N1528 N 0.84554 0.67582 0.18117 0.0
N1529 N 0.80926 0.62838 0.18389 0.0
H1530 H 0.15589 0.37041 0.34617 0.0
H1531 H 0.13374 0.26827 0.33596 0.0
H1532 H 0.12783 0.33198 0.46168 0.0
H1533 H 0.15851 0.3062 0.21736 0.0
H1534 H 0.1314 0.29126 0.38263 0.0
H1535 H 0.15688 0.34693 0.29884 0.0
C1536 C 0.1499 0.35702 0.36167 0.0
C1537 C 0.14179 0.35321 0.4082 0.0
C1538 C 0.13731 0.29454 0.34635 0.0
C1539 C 0.14293 0.32615 0.3538 0.0
C1540 C 0.13867 0.28141 0.31962 0.0
C1541 C 0.14639 0.28529 0.27257 0.0
C1542 C 0.14374 0.31171 0.32606 0.0
C1543 C 0.15248 0.30257 0.25342 0.0
C1544 C 0.15047 0.34359 0.33447 0.0
C1545 C 0.13423 0.33555 0.42606 0.0
N1546 N 0.15107 0.31513 0.28029 0.0
N1547 N 0.13503 0.32268 0.39888 0.0
H1548 H 0.60948 0.79827 0.32458 0.0
H1549 H 0.71337 0.87396 0.30878 0.0
H1550 H 0.64808 0.80985 0.44038 0.0
H1551 H 0.67515 0.8653 0.19413 0.0
H1552 H 0.68956 0.84972 0.35566 0.0
H1553 H 0.6332 0.82203 0.27509 0.0
C1554 C 0.62292 0.80579 0.33969 0.0
C1555 C 0.62675 0.80202 0.38688 0.0
C1556 C 0.68633 0.85306 0.32024 0.0
C1557 C 0.65398 0.82923 0.33016 0.0
C1558 C 0.69996 0.86693 0.29325 0.0
C1559 C 0.6963 0.87177 0.24728 0.0
C1560 C 0.66878 0.84381 0.30141 0.0
C1561 C 0.67861 0.86206 0.22935 0.0
C1562 C 0.63646 0.81936 0.31132 0.0
C1563 C 0.64444 0.81224 0.40434 0.0
N1564 N 0.66549 0.84856 0.25652 0.0
N1565 N 0.65736 0.82534 0.37598 0.0
H1566 H 0.20341 0.81009 0.30055 0.0
H1567 H 0.12665 0.83656 0.28152 0.0
H1568 H 0.18901 0.83384 0.41907 0.0
H1569 H 0.13594 0.80669 0.16907 0.0
H1570 H 0.15041 0.83682 0.33043 0.0
H1571 H 0.17965 0.8097 0.25061 0.0
C1572 C 0.19525 0.81521 0.3162 0.0
C1573 C 0.19826 0.82203 0.36425 0.0
C1574 C 0.14728 0.8302 0.29509 0.0
C1575 C 0.17102 0.82165 0.30688 0.0
C1576 C 0.1337 0.83006 0.26691 0.0
C1577 C 0.12921 0.82154 0.22091 0.0
C1578 C 0.15659 0.82182 0.27733 0.0
C1579 C 0.13891 0.8134 0.20425 0.0
C1580 C 0.18166 0.81496 0.28756 0.0
C1581 C 0.1872 0.82844 0.38235 0.0
N1582 N 0.15215 0.81374 0.23247 0.0
N1583 N 0.17412 0.82813 0.35361 0.0
H1584 H 0.71301 0.8471 0.83172 0.0
H1585 H 0.60871 0.81638 0.85448 0.0
H1586 H 0.6734 0.8184 0.71933 0.0
H1587 H 0.6475 0.8472 0.96676 0.0
H1588 H 0.63231 0.81583 0.80717 0.0
H1589 H 0.68939 0.84633 0.88349 0.0
C1590 C 0.69936 0.84062 0.81785 0.0
C1591 C 0.69522 0.83283 0.77088 0.0
C1592 C 0.63573 0.82269 0.84217 0.0
C1593 C 0.66813 0.83189 0.83025 0.0
C1594 C 0.62221 0.82301 0.86942 0.0
C1595 C 0.62611 0.83196 0.91474 0.0
C1596 C 0.65341 0.8314 0.86002 0.0
C1597 C 0.64388 0.84016 0.93204 0.0
C1598 C 0.68589 0.84019 0.84754 0.0
C1599 C 0.67729 0.82462 0.7551 0.0
N1600 N 0.65692 0.83976 0.90449 0.0
N1601 N 0.66444 0.82439 0.78468 0.0
H1602 H 0.1899 0.79837 0.80213 0.0
H1603 H 0.16241 0.87436 0.78313 0.0
H1604 H 0.16566 0.81219 0.92064 0.0
H1605 H 0.19362 0.86627 0.67225 0.0
H1606 H 0.16223 0.85059 0.83189 0.0
H1607 H 0.19029 0.82221 0.7526 0.0
C1608 C 0.18467 0.80642 0.81787 0.0
C1609 C 0.17772 0.80322 0.86578 0.0
C1610 C 0.16913 0.85399 0.79694 0.0
C1611 C 0.17809 0.83056 0.80889 0.0
C1612 C 0.16922 0.86757 0.76884 0.0
C1613 C 0.17809 0.8724 0.72333 0.0
C1614 C 0.1779 0.84502 0.77953 0.0
C1615 C 0.18664 0.86304 0.70705 0.0
C1616 C 0.18493 0.82006 0.78947 0.0
C1617 C 0.17117 0.81415 0.88401 0.0
N1618 N 0.18632 0.84978 0.73514 0.0
N1619 N 0.17147 0.82728 0.85548 0.0
H1620 H 0.19612 0.37927 0.85706 0.0
H1621 H 0.12126 0.27556 0.83172 0.0
H1622 H 0.18742 0.33928 0.96635 0.0
H1623 H 0.13254 0.31518 0.71903 0.0
H1624 H 0.14526 0.29861 0.88147 0.0
H1625 H 0.17263 0.35602 0.80695 0.0
C1626 C 0.18926 0.36559 0.87073 0.0
C1627 C 0.19383 0.36127 0.91625 0.0
C1628 C 0.14255 0.30227 0.84583 0.0
C1629 C 0.16676 0.33442 0.85836 0.0
C1630 C 0.12882 0.2891 0.81724 0.0
C1631 C 0.1248 0.29341 0.77095 0.0
C1632 C 0.15237 0.31997 0.82829 0.0
C1633 C 0.13514 0.31121 0.75436 0.0
C1634 C 0.17583 0.35228 0.84184 0.0
C1635 C 0.18438 0.34326 0.93164 0.0
N1636 N 0.1484 0.32383 0.78309 0.0
N1637 N 0.17129 0.33049 0.90273 0.0
H1638 H 0.79544 0.66388 0.80454 0.0
H1639 H 0.82067 0.63676 0.54756 0.0
H1640 H 0.82591 0.702 0.69043 0.0
H1641 H 0.79666 0.59976 0.66846 0.0
H1642 H 0.82092 0.66047 0.59775 0.0
H1643 H 0.79417 0.63977 0.75364 0.0
C1644 C 0.80187 0.6672 0.76891 0.0
C1645 C 0.8108 0.68502 0.7519 0.0
C1646 C 0.81558 0.64715 0.61324 0.0
C1647 C 0.80933 0.65751 0.69338 0.0
C1648 C 0.81539 0.63358 0.58452 0.0
C1649 C 0.80868 0.61622 0.60376 0.0
C1650 C 0.80895 0.64333 0.66149 0.0
C1651 C 0.80202 0.61294 0.65202 0.0
C1652 C 0.80114 0.65343 0.73986 0.0
C1653 C 0.81888 0.68849 0.70529 0.0
N1654 N 0.80234 0.62635 0.67917 0.0
N1655 N 0.81792 0.67488 0.67774 0.0
H1656 H 0.32007 0.13997 0.82953 0.0
H1657 H 0.34485 0.19641 0.57937 0.0
H1658 H 0.28162 0.13384 0.71821 0.0
H1659 H 0.38416 0.2059 0.69147 0.0
H1660 H 0.32153 0.17366 0.63145 0.0
H1661 H 0.34382 0.16461 0.78146 0.0
C1662 C 0.31658 0.14384 0.7953 0.0
C1663 C 0.2988 0.13471 0.77789 0.0
C1664 C 0.33525 0.18073 0.6448 0.0
C1665 C 0.32585 0.16275 0.72274 0.0
C1666 C 0.34861 0.19374 0.61495 0.0
C1667 C 0.36654 0.20309 0.63088 0.0
C1668 C 0.33979 0.17693 0.69102 0.0
C1669 C 0.37052 0.19902 0.67756 0.0
C1670 C 0.33014 0.15788 0.76784 0.0
C1671 C 0.29509 0.14034 0.73318 0.0
N1672 N 0.35726 0.18621 0.70592 0.0
N1673 N 0.30847 0.15389 0.70723 0.0
H1674 H 0.8548 0.19616 0.78315 0.0
H1675 H 0.80435 0.16675 0.52349 0.0
H1676 H 0.86475 0.16563 0.67428 0.0
H1677 H 0.79407 0.19705 0.63236 0.0
H1678 H 0.82696 0.16666 0.57787 0.0
H1679 H 0.83259 0.19683 0.72826 0.0
C1680 C 0.85231 0.18957 0.74786 0.0
C1681 C 0.86169 0.18083 0.73346 0.0
C1682 C 0.81976 0.17336 0.58977 0.0
C1683 C 0.83634 0.1816 0.67033 0.0
C1684 C 0.80688 0.17345 0.55864 0.0
C1685 C 0.79723 0.18188 0.57327 0.0
C1686 C 0.82304 0.18175 0.63587 0.0
C1687 C 0.80111 0.19033 0.6194 0.0
C1688 C 0.83964 0.18998 0.71647 0.0
C1689 C 0.85788 0.17253 0.68714 0.0
N1690 N 0.81366 0.19001 0.64901 0.0
N1691 N 0.84554 0.17314 0.65733 0.0
H1692 H 0.01445 0.49656 0.36576 0.0
H1693 H 0.98799 0.52848 0.61301 0.0
H1694 H 0.05192 0.52616 0.48181 0.0
H1695 H 0.94921 0.495 0.50373 0.0
H1696 H 0.01191 0.52932 0.56252 0.0
H1697 H 0.99061 0.49763 0.41265 0.0
C1698 C 0.01771 0.50339 0.4008 0.0
C1699 C 0.0352 0.51117 0.41991 0.0
C1700 C -0.00184 0.5218 0.54958 0.0
C1701 C 0.00804 0.51239 0.47377 0.0
C1702 C 0.98449 0.52131 0.57846 0.0
C1703 C 0.96653 0.51162 0.5628 0.0
C1704 C 0.99388 0.51256 0.50462 0.0
C1705 C 0.96284 0.50262 0.51749 0.0
C1706 C 0.00409 0.50394 0.42765 0.0
C1707 C 0.03862 0.51984 0.46563 0.0
N1708 N 0.97638 0.5033 0.49007 0.0
N1709 N 0.02519 0.52015 0.49095 0.0
H1710 H 0.52659 0.53195 0.35039 0.0
H1711 H 0.49937 0.47528 0.60033 0.0
H1712 H 0.49825 0.54035 0.46899 0.0
H1713 H 0.52177 0.46293 0.4744 0.0
H1714 H 0.50036 0.5003 0.5547 0.0
H1715 H 0.52649 0.50767 0.39739 0.0
C1716 C 0.52038 0.52873 0.3863 0.0
C1717 C 0.51238 0.53821 0.40563 0.0
C1718 C 0.50506 0.4921 0.53713 0.0
C1719 C 0.51223 0.51042 0.4597 0.0
C1720 C 0.50452 0.47782 0.56319 0.0
C1721 C 0.51045 0.46693 0.54122 0.0
C1722 C 0.51166 0.49556 0.48884 0.0
C1723 C 0.517 0.4709 0.49292 0.0
C1724 C 0.5203 0.51484 0.41311 0.0
C1725 C 0.50453 0.5334 0.45244 0.0
N1726 N 0.51742 0.48487 0.46844 0.0
N1727 N 0.50466 0.51986 0.47783 0.0
H1728 H 0.53385 0.04792 0.51307 0.0
H1729 H 0.45973 0.94378 0.49294 0.0
H1730 H 0.52733 0.00803 0.62021 0.0
H1731 H 0.46838 0.98263 0.38014 0.0
H1732 H 0.48454 0.96719 0.53943 0.0
H1733 H 0.51005 0.02434 0.46396 0.0
C1734 C 0.52744 0.0342 0.52638 0.0
C1735 C 0.53263 0.02999 0.57111 0.0
C1736 C 0.48108 0.97062 0.50447 0.0
C1737 C 0.50526 0.00286 0.51462 0.0
C1738 C 0.46686 0.95724 0.47775 0.0
C1739 C 0.46186 0.96122 0.43243 0.0
C1740 C 0.49043 0.98822 0.48607 0.0
C1741 C 0.47173 0.97893 0.41484 0.0
C1742 C 0.51384 0.02072 0.49814 0.0
C1743 C 0.5238 0.01193 0.58613 0.0
N1744 N 0.48551 0.9918 0.44181 0.0
N1745 N 0.51053 -0.00095 0.558 0.0
H1746 H 0.49109 0.0377 0.02162 0.0
H1747 H 0.47312 0.93698 0.01063 0.0
H1748 H 0.46329 -0.00122 0.13632 0.0
H1749 H 0.49793 0.97592 0.89426 0.0
H1750 H 0.46956 0.9592 0.05784 0.0
H1751 H 0.49383 0.01506 0.97551 0.0
C1752 C 0.48552 0.02437 0.03726 0.0
C1753 C 0.47693 0.02019 0.08316 0.0
C1754 C 0.47576 0.96285 0.02196 0.0
C1755 C 0.4801 0.99402 0.02995 0.0
C1756 C 0.47782 0.95019 0.99492 0.0
C1757 C 0.48587 0.95457 0.94828 0.0
C1758 C 0.48181 0.98005 0.00234 0.0
C1759 C 0.49166 0.9719 0.92996 0.0
C1760 C 0.4871 0.0114 0.01071 0.0
C1761 C 0.47 0.00261 0.10115 0.0
N1762 N 0.48954 0.98398 0.95704 0.0
N1763 N 0.47176 0.99016 0.0745 0.0
H1764 H 0.95427 0.46394 0.0234 0.0
H1765 H 0.05642 0.54406 0.01341 0.0
H1766 H 0.99325 0.47227 0.13546 0.0
H1767 H 0.01738 0.5327 0.899 0.0
H1768 H 0.03339 0.51886 0.06069 0.0
H1769 H 0.97708 0.49008 0.97992 0.0
C1770 C 0.96764 0.47127 0.03907 0.0
C1771 C 0.97182 0.46578 0.08327 0.0
C1772 C 0.02988 0.52191 0.02529 0.0
C1773 C -0.00181 0.49595 0.03306 0.0
C1774 C 0.04301 0.53632 -0.00179 0.0
C1775 C 0.03887 0.54052 0.95196 0.0
C1776 C 0.01246 0.51163 0.0061 0.0
C1777 C 0.02124 0.52998 0.93433 0.0
C1778 C 0.9807 0.48626 0.01403 0.0
C1779 C 0.98941 0.47596 0.10152 0.0
N1780 N 0.00873 0.51604 0.96138 0.0
N1781 N 0.00198 0.49055 0.07625 0.0
H1782 H 0.53415 0.47981 0.96104 0.0
H1783 H 0.45735 0.50649 0.95247 0.0
H1784 H 0.52146 0.50426 0.08138 0.0
H1785 H 0.46571 0.47748 0.83564 0.0
H1786 H 0.48159 0.50661 -0.00169 0.0
H1787 H 0.50992 0.47952 0.91337 0.0
C1788 C 0.52627 0.48511 0.97755 0.0
C1789 C 0.52989 0.49209 0.02545 0.0
C1790 C 0.47817 0.5002 0.96268 0.0
C1791 C 0.50213 0.49181 0.97077 0.0
C1792 C 0.46429 0.50014 0.93624 0.0
C1793 C 0.45939 0.49192 0.8899 0.0
C1794 C 0.48738 0.49201 0.94289 0.0
C1795 C 0.46899 0.48395 0.87116 0.0
C1796 C 0.51243 0.48492 0.95021 0.0
C1797 C 0.5192 0.49874 0.04472 0.0
N1798 N 0.48254 0.48419 0.89775 0.0
N1799 N 0.50585 0.49846 0.01729 0.0
loop_
_geom_bond_atom_site_label_1
_geom_bond_atom_site_label_2
_geom_bond_distance
_geom_bond_site_symmetry_2
_ccdc_geom_bond_type
Mg0 O1 2.028 . S
Mg0 O7 1.986 . S
Mg0 O9 2.114 . S
Mg0 O10 2.251 . S
Mg0 O13 2.010 . S
O1 Mg0 2.028 . S
O1 C4 1.250 . S
O2 Mg3 2.028 . S
O2 C4 1.248 . S
Mg3 O2 2.028 . S
Mg3 O8 2.032 . S
Mg3 O10 2.079 . S
C4 O1 1.250 . S
C4 O2 1.248 . S
C5 O6 1.264 . S
C5 O13 1.249 . S
O6 C5 1.264 . S
O7 Mg0 1.986 . S
O7 C11 1.246 . S
O8 Mg3 2.032 . S
O8 C11 1.259 . S
O9 Mg0 2.114 . S
O9 C12 1.252 . S
O10 Mg0 2.251 . S
O10 Mg3 2.079 . S
O10 C12 1.273 . S
C11 O7 1.246 . S
C11 O8 1.259 . S
C12 O9 1.252 . S
C12 O10 1.273 . S
O13 Mg0 2.010 . S
O13 C5 1.249 . S
Mg14 O15 2.028 . S
Mg14 O21 1.986 . S
Mg14 O23 2.114 . S
Mg14 O24 2.251 . S
Mg14 O27 2.010 . S
O15 Mg14 2.028 . S
O15 C18 1.250 . S
O16 Mg17 2.028 . S
O16 C18 1.248 . S
Mg17 O16 2.028 . S
Mg17 O22 2.032 . S
Mg17 O24 2.079 . S
C18 O15 1.250 . S
C18 O16 1.248 . S
C19 O20 1.264 . S
C19 O27 1.249 . S
O20 C19 1.264 . S
O21 Mg14 1.986 . S
O21 C25 1.246 . S
O22 Mg17 2.032 . S
O22 C25 1.259 . S
O23 Mg14 2.114 . S
O23 C26 1.252 . S
O24 Mg14 2.251 . S
O24 Mg17 2.079 . S
O24 C26 1.273 . S
C25 O21 1.246 . S
C25 O22 1.259 . S
C26 O23 1.252 . S
C26 O24 1.273 . S
O27 Mg14 2.010 . S
O27 C19 1.249 . S
Mg28 O29 2.028 . S
Mg28 O35 1.986 . S
Mg28 O37 2.114 . S
Mg28 O38 2.251 . S
Mg28 O41 2.010 . S
O29 Mg28 2.028 . S
O29 C32 1.250 . S
O30 Mg31 2.028 . S
O30 C32 1.248 . S
Mg31 O30 2.028 . S
Mg31 O36 2.032 . S
Mg31 O38 2.079 . S
C32 O29 1.250 . S
C32 O30 1.248 . S
C33 O34 1.264 . S
C33 O41 1.249 . S
O34 C33 1.264 . S
O35 Mg28 1.986 . S
O35 C39 1.246 . S
O36 Mg31 2.032 . S
O36 C39 1.259 . S
O37 Mg28 2.114 . S
O37 C40 1.252 . S
O38 Mg28 2.251 . S
O38 Mg31 2.079 . S
O38 C40 1.273 . S
C39 O35 1.246 . S
C39 O36 1.259 . S
C40 O37 1.252 . S
C40 O38 1.273 . S
O41 Mg28 2.010 . S
O41 C33 1.249 . S
Mg42 O43 2.028 . S
Mg42 O49 1.986 . S
Mg42 O51 2.114 . S
Mg42 O52 2.251 . S
Mg42 O55 2.010 . S
O43 Mg42 2.028 . S
O43 C46 1.250 . S
O44 Mg45 2.028 . S
O44 C46 1.248 . S
Mg45 O44 2.028 . S
Mg45 O50 2.032 . S
Mg45 O52 2.079 . S
C46 O43 1.250 . S
C46 O44 1.248 . S
C47 O48 1.264 . S
C47 O55 1.249 . S
O48 C47 1.264 . S
O49 Mg42 1.986 . S
O49 C53 1.246 . S
O50 Mg45 2.032 . S
O50 C53 1.259 . S
O51 Mg42 2.114 . S
O51 C54 1.252 . S
O52 Mg42 2.251 . S
O52 Mg45 2.079 . S
O52 C54 1.273 . S
C53 O49 1.246 . S
C53 O50 1.259 . S
C54 O51 1.252 . S
C54 O52 1.273 . S
O55 Mg42 2.010 . S
O55 C47 1.249 . S
Mg56 O57 2.028 . S
Mg56 O63 1.986 . S
Mg56 O65 2.114 . S
Mg56 O66 2.251 . S
Mg56 O69 2.010 . S
O57 Mg56 2.028 . S
O57 C60 1.250 . S
O58 Mg59 2.028 . S
O58 C60 1.248 . S
Mg59 O58 2.028 . S
Mg59 O64 2.032 . S
Mg59 O66 2.079 . S
C60 O57 1.250 . S
C60 O58 1.248 . S
C61 O62 1.264 . S
C61 O69 1.249 . S
O62 C61 1.264 . S
O63 Mg56 1.986 . S
O63 C67 1.246 . S
O64 Mg59 2.032 . S
O64 C67 1.259 . S
O65 Mg56 2.114 . S
O65 C68 1.252 . S
O66 Mg56 2.251 . S
O66 Mg59 2.079 . S
O66 C68 1.273 . S
C67 O63 1.246 . S
C67 O64 1.259 . S
C68 O65 1.252 . S
C68 O66 1.273 . S
O69 Mg56 2.010 . S
O69 C61 1.249 . S
Mg70 O71 2.028 . S
Mg70 O77 1.986 . S
Mg70 O79 2.114 . S
Mg70 O80 2.251 . S
Mg70 O83 2.010 . S
O71 Mg70 2.028 . S
O71 C74 1.250 . S
O72 Mg73 2.028 . S
O72 C74 1.248 . S
Mg73 O72 2.028 . S
Mg73 O78 2.032 . S
Mg73 O80 2.079 . S
C74 O71 1.250 . S
C74 O72 1.248 . S
C75 O76 1.264 . S
C75 O83 1.249 . S
O76 C75 1.264 . S
O77 Mg70 1.986 . S
O77 C81 1.246 . S
O78 Mg73 2.032 . S
O78 C81 1.259 . S
O79 Mg70 2.114 . S
O79 C82 1.252 . S
O80 Mg70 2.251 . S
O80 Mg73 2.079 . S
O80 C82 1.273 . S
C81 O77 1.246 . S
C81 O78 1.259 . S
C82 O79 1.252 . S
C82 O80 1.273 . S
O83 Mg70 2.010 . S
O83 C75 1.249 . S
Mg84 O85 2.028 . S
Mg84 O91 1.986 . S
Mg84 O93 2.114 . S
Mg84 O94 2.251 . S
Mg84 O97 2.010 . S
O85 Mg84 2.028 . S
O85 C88 1.250 . S
O86 Mg87 2.028 . S
O86 C88 1.248 . S
Mg87 O86 2.028 . S
Mg87 O92 2.032 . S
Mg87 O94 2.079 . S
C88 O85 1.250 . S
C88 O86 1.248 . S
C89 O90 1.264 . S
C89 O97 1.249 . S
O90 C89 1.264 . S
O91 Mg84 1.986 . S
O91 C95 1.246 . S
O92 Mg87 2.032 . S
O92 C95 1.259 . S
O93 Mg84 2.114 . S
O93 C96 1.252 . S
O94 Mg84 2.251 . S
O94 Mg87 2.079 . S
O94 C96 1.273 . S
C95 O91 1.246 . S
C95 O92 1.259 . S
C96 O93 1.252 . S
C96 O94 1.273 . S
O97 Mg84 2.010 . S
O97 C89 1.249 . S
Mg98 O99 2.028 . S
Mg98 O105 1.986 . S
Mg98 O107 2.114 . S
Mg98 O108 2.251 . S
Mg98 O111 2.010 . S
O99 Mg98 2.028 . S
O99 C102 1.250 . S
O100 Mg101 2.028 . S
O100 C102 1.248 . S
Mg101 O100 2.028 . S
Mg101 O106 2.032 . S
Mg101 O108 2.079 . S
C102 O99 1.250 . S
C102 O100 1.248 . S
C103 O104 1.264 . S
C103 O111 1.249 . S
O104 C103 1.264 . S
O105 Mg98 1.986 . S
O105 C109 1.246 . S
O106 Mg101 2.032 . S
O106 C109 1.259 . S
O107 Mg98 2.114 . S
O107 C110 1.252 . S
O108 Mg98 2.251 . S
O108 Mg101 2.079 . S
O108 C110 1.273 . S
C109 O105 1.246 . S
C109 O106 1.259 . S
C110 O107 1.252 . S
C110 O108 1.273 . S
O111 Mg98 2.010 . S
O111 C103 1.249 . S
Mg112 O113 2.028 . S
Mg112 O119 1.986 . S
Mg112 O121 2.114 . S
Mg112 O122 2.251 . S
Mg112 O125 2.010 . S
O113 Mg112 2.028 . S
O113 C116 1.250 . S
O114 Mg115 2.028 . S
O114 C116 1.248 . S
Mg115 O114 2.028 . S
Mg115 O120 2.032 . S
Mg115 O122 2.079 . S
C116 O113 1.250 . S
C116 O114 1.248 . S
C117 O118 1.264 . S
C117 O125 1.249 . S
O118 C117 1.264 . S
O119 Mg112 1.986 . S
O119 C123 1.246 . S
O120 Mg115 2.032 . S
O120 C123 1.259 . S
O121 Mg112 2.114 . S
O121 C124 1.252 . S
O122 Mg112 2.251 . S
O122 Mg115 2.079 . S
O122 C124 1.273 . S
C123 O119 1.246 . S
C123 O120 1.259 . S
C124 O121 1.252 . S
C124 O122 1.273 . S
O125 Mg112 2.010 . S
O125 C117 1.249 . S
Mg126 O127 2.028 . S
Mg126 O133 1.986 . S
Mg126 O135 2.114 . S
Mg126 O136 2.251 . S
Mg126 O139 2.010 . S
O127 Mg126 2.028 . S
O127 C130 1.250 . S
O128 Mg129 2.028 . S
O128 C130 1.248 . S
Mg129 O128 2.028 . S
Mg129 O134 2.032 . S
Mg129 O136 2.079 . S
C130 O127 1.250 . S
C130 O128 1.248 . S
C131 O132 1.264 . S
C131 O139 1.249 . S
O132 C131 1.264 . S
O133 Mg126 1.986 . S
O133 C137 1.246 . S
O134 Mg129 2.032 . S
O134 C137 1.259 . S
O135 Mg126 2.114 . S
O135 C138 1.252 . S
O136 Mg126 2.251 . S
O136 Mg129 2.079 . S
O136 C138 1.273 . S
C137 O133 1.246 . S
C137 O134 1.259 . S
C138 O135 1.252 . S
C138 O136 1.273 . S
O139 Mg126 2.010 . S
O139 C131 1.249 . S
Mg140 O141 2.028 . S
Mg140 O147 1.986 . S
Mg140 O149 2.114 . S
Mg140 O150 2.251 . S
Mg140 O153 2.010 . S
O141 Mg140 2.028 . S
O141 C144 1.250 . S
O142 Mg143 2.028 . S
O142 C144 1.248 . S
Mg143 O142 2.028 . S
Mg143 O148 2.032 . S
Mg143 O150 2.079 . S
C144 O141 1.250 . S
C144 O142 1.248 . S
C145 O146 1.264 . S
C145 O153 1.249 . S
O146 C145 1.264 . S
O147 Mg140 1.986 . S
O147 C151 1.246 . S
O148 Mg143 2.032 . S
O148 C151 1.259 . S
O149 Mg140 2.114 . S
O149 C152 1.252 . S
O150 Mg140 2.251 . S
O150 Mg143 2.079 . S
O150 C152 1.273 . S
C151 O147 1.246 . S
C151 O148 1.259 . S
C152 O149 1.252 . S
C152 O150 1.273 . S
O153 Mg140 2.010 . S
O153 C145 1.249 . S
Mg154 O155 2.028 . S
Mg154 O161 1.986 . S
Mg154 O163 2.114 . S
Mg154 O164 2.251 . S
Mg154 O167 2.010 . S
O155 Mg154 2.028 . S
O155 C158 1.250 . S
O156 Mg157 2.028 . S
O156 C158 1.248 . S
Mg157 O156 2.028 . S
Mg157 O162 2.032 . S
Mg157 O164 2.079 . S
C158 O155 1.250 . S
C158 O156 1.248 . S
C159 O160 1.264 . S
C159 O167 1.249 . S
O160 C159 1.264 . S
O161 Mg154 1.986 . S
O161 C165 1.246 . S
O162 Mg157 2.032 . S
O162 C165 1.259 . S
O163 Mg154 2.114 . S
O163 C166 1.252 . S
O164 Mg154 2.251 . S
O164 Mg157 2.079 . S
O164 C166 1.273 . S
C165 O161 1.246 . S
C165 O162 1.259 . S
C166 O163 1.252 . S
C166 O164 1.273 . S
O167 Mg154 2.010 . S
O167 C159 1.249 . S
Mg168 O169 2.028 . S
Mg168 O175 1.986 . S
Mg168 O177 2.114 . S
Mg168 O178 2.251 . S
Mg168 O181 2.010 . S
O169 Mg168 2.028 . S
O169 C172 1.250 . S
O170 Mg171 2.028 . S
O170 C172 1.248 . S
Mg171 O170 2.028 . S
Mg171 O176 2.032 . S
Mg171 O178 2.079 . S
C172 O169 1.250 . S
C172 O170 1.248 . S
C173 O174 1.264 . S
C173 O181 1.249 . S
O174 C173 1.264 . S
O175 Mg168 1.986 . S
O175 C179 1.246 . S
O176 Mg171 2.032 . S
O176 C179 1.259 . S
O177 Mg168 2.114 . S
O177 C180 1.252 . S
O178 Mg168 2.251 . S
O178 Mg171 2.079 . S
O178 C180 1.273 . S
C179 O175 1.246 . S
C179 O176 1.259 . S
C180 O177 1.252 . S
C180 O178 1.273 . S
O181 Mg168 2.010 . S
O181 C173 1.249 . S
Mg182 O183 2.028 . S
Mg182 O189 1.986 . S
Mg182 O191 2.114 . S
Mg182 O192 2.251 . S
Mg182 O195 2.010 . S
O183 Mg182 2.028 . S
O183 C186 1.250 . S
O184 Mg185 2.028 . S
O184 C186 1.248 . S
Mg185 O184 2.028 . S
Mg185 O190 2.032 . S
Mg185 O192 2.079 . S
C186 O183 1.250 . S
C186 O184 1.248 . S
C187 O188 1.264 . S
C187 O195 1.249 . S
O188 C187 1.264 . S
O189 Mg182 1.986 . S
O189 C193 1.246 . S
O190 Mg185 2.032 . S
O190 C193 1.259 . S
O191 Mg182 2.114 . S
O191 C194 1.252 . S
O192 Mg182 2.251 . S
O192 Mg185 2.079 . S
O192 C194 1.273 . S
C193 O189 1.246 . S
C193 O190 1.259 . S
C194 O191 1.252 . S
C194 O192 1.273 . S
O195 Mg182 2.010 . S
O195 C187 1.249 . S
Mg196 O197 2.028 . S
Mg196 O203 1.986 . S
Mg196 O205 2.114 . S
Mg196 O206 2.251 . S
Mg196 O209 2.010 . S
O197 Mg196 2.028 . S
O197 C200 1.250 . S
O198 Mg199 2.028 . S
O198 C200 1.248 . S
Mg199 O198 2.028 . S
Mg199 O204 2.032 . S
Mg199 O206 2.079 . S
C200 O197 1.250 . S
C200 O198 1.248 . S
C201 O202 1.264 . S
C201 O209 1.249 . S
O202 C201 1.264 . S
O203 Mg196 1.986 . S
O203 C207 1.246 . S
O204 Mg199 2.032 . S
O204 C207 1.259 . S
O205 Mg196 2.114 . S
O205 C208 1.252 . S
O206 Mg196 2.251 . S
O206 Mg199 2.079 . S
O206 C208 1.273 . S
C207 O203 1.246 . S
C207 O204 1.259 . S
C208 O205 1.252 . S
C208 O206 1.273 . S
O209 Mg196 2.010 . S
O209 C201 1.249 . S
Mg210 O211 2.028 . S
Mg210 O217 1.986 . S
Mg210 O219 2.114 . S
Mg210 O220 2.251 . S
Mg210 O223 2.010 . S
O211 Mg210 2.028 . S
O211 C214 1.250 . S
O212 Mg213 2.028 . S
O212 C214 1.248 . S
Mg213 O212 2.028 . S
Mg213 O218 2.032 . S
Mg213 O220 2.079 . S
C214 O211 1.250 . S
C214 O212 1.248 . S
C215 O216 1.264 . S
C215 O223 1.249 . S
O216 C215 1.264 . S
O217 Mg210 1.986 . S
O217 C221 1.246 . S
O218 Mg213 2.032 . S
O218 C221 1.259 . S
O219 Mg210 2.114 . S
O219 C222 1.252 . S
O220 Mg210 2.251 . S
O220 Mg213 2.079 . S
O220 C222 1.273 . S
C221 O217 1.246 . S
C221 O218 1.259 . S
C222 O219 1.252 . S
C222 O220 1.273 . S
O223 Mg210 2.010 . S
O223 C215 1.249 . S
Mg224 O225 2.028 . S
Mg224 O231 1.986 . S
Mg224 O233 2.114 . S
Mg224 O234 2.251 . S
Mg224 O237 2.010 . S
O225 Mg224 2.028 . S
O225 C228 1.250 . S
O226 Mg227 2.028 . S
O226 C228 1.248 . S
Mg227 O226 2.028 . S
Mg227 O232 2.032 . S
Mg227 O234 2.079 . S
C228 O225 1.250 . S
C228 O226 1.248 . S
C229 O230 1.264 . S
C229 O237 1.249 . S
O230 C229 1.264 . S
O231 Mg224 1.986 . S
O231 C235 1.246 . S
O232 Mg227 2.032 . S
O232 C235 1.259 . S
O233 Mg224 2.114 . S
O233 C236 1.252 . S
O234 Mg224 2.251 . S
O234 Mg227 2.079 . S
O234 C236 1.273 . S
C235 O231 1.246 . S
C235 O232 1.259 . S
C236 O233 1.252 . S
C236 O234 1.273 . S
O237 Mg224 2.010 . S
O237 C229 1.249 . S
Mg238 O239 2.028 . S
Mg238 O245 1.986 . S
Mg238 O247 2.114 . S
Mg238 O248 2.251 . S
Mg238 O251 2.010 . S
O239 Mg238 2.028 . S
O239 C242 1.250 . S
O240 Mg241 2.028 . S
O240 C242 1.248 . S
Mg241 O240 2.028 . S
Mg241 O246 2.032 . S
Mg241 O248 2.079 . S
C242 O239 1.250 . S
C242 O240 1.248 . S
C243 O244 1.264 . S
C243 O251 1.249 . S
O244 C243 1.264 . S
O245 Mg238 1.986 . S
O245 C249 1.246 . S
O246 Mg241 2.032 . S
O246 C249 1.259 . S
O247 Mg238 2.114 . S
O247 C250 1.252 . S
O248 Mg238 2.251 . S
O248 Mg241 2.079 . S
O248 C250 1.273 . S
C249 O245 1.246 . S
C249 O246 1.259 . S
C250 O247 1.252 . S
C250 O248 1.273 . S
O251 Mg238 2.010 . S
O251 C243 1.249 . S
Mg252 O253 2.028 . S
Mg252 O259 1.986 . S
Mg252 O261 2.114 . S
Mg252 O262 2.251 . S
Mg252 O265 2.010 . S
O253 Mg252 2.028 . S
O253 C256 1.250 . S
O254 Mg255 2.028 . S
O254 C256 1.248 . S
Mg255 O254 2.028 . S
Mg255 O260 2.032 . S
Mg255 O262 2.079 . S
C256 O253 1.250 . S
C256 O254 1.248 . S
C257 O258 1.264 . S
C257 O265 1.249 . S
O258 C257 1.264 . S
O259 Mg252 1.986 . S
O259 C263 1.246 . S
O260 Mg255 2.032 . S
O260 C263 1.259 . S
O261 Mg252 2.114 . S
O261 C264 1.252 . S
O262 Mg252 2.251 . S
O262 Mg255 2.079 . S
O262 C264 1.273 . S
C263 O259 1.246 . S
C263 O260 1.259 . S
C264 O261 1.252 . S
C264 O262 1.273 . S
O265 Mg252 2.010 . S
O265 C257 1.249 . S
Mg266 O267 2.028 . S
Mg266 O273 1.986 . S
Mg266 O275 2.114 . S
Mg266 O276 2.251 . S
Mg266 O279 2.010 . S
O267 Mg266 2.028 . S
O267 C270 1.250 . S
O268 Mg269 2.028 . S
O268 C270 1.248 . S
Mg269 O268 2.028 . S
Mg269 O274 2.032 . S
Mg269 O276 2.079 . S
C270 O267 1.250 . S
C270 O268 1.248 . S
C271 O272 1.264 . S
C271 O279 1.249 . S
O272 C271 1.264 . S
O273 Mg266 1.986 . S
O273 C277 1.246 . S
O274 Mg269 2.032 . S
O274 C277 1.259 . S
O275 Mg266 2.114 . S
O275 C278 1.252 . S
O276 Mg266 2.251 . S
O276 Mg269 2.079 . S
O276 C278 1.273 . S
C277 O273 1.246 . S
C277 O274 1.259 . S
C278 O275 1.252 . S
C278 O276 1.273 . S
O279 Mg266 2.010 . S
O279 C271 1.249 . S
Mg280 O281 2.028 . S
Mg280 O287 1.986 . S
Mg280 O289 2.114 . S
Mg280 O290 2.251 . S
Mg280 O293 2.010 . S
O281 Mg280 2.028 . S
O281 C284 1.250 . S
O282 Mg283 2.028 . S
O282 C284 1.248 . S
Mg283 O282 2.028 . S
Mg283 O288 2.032 . S
Mg283 O290 2.079 . S
C284 O281 1.250 . S
C284 O282 1.248 . S
C285 O286 1.264 . S
C285 O293 1.249 . S
O286 C285 1.264 . S
O287 Mg280 1.986 . S
O287 C291 1.246 . S
O288 Mg283 2.032 . S
O288 C291 1.259 . S
O289 Mg280 2.114 . S
O289 C292 1.252 . S
O290 Mg280 2.251 . S
O290 Mg283 2.079 . S
O290 C292 1.273 . S
C291 O287 1.246 . S
C291 O288 1.259 . S
C292 O289 1.252 . S
C292 O290 1.273 . S
O293 Mg280 2.010 . S
O293 C285 1.249 . S
Mg294 O295 2.028 . S
Mg294 O301 1.986 . S
Mg294 O303 2.114 . S
Mg294 O304 2.251 . S
Mg294 O307 2.010 1_554 S
O295 Mg294 2.028 . S
O295 C298 1.250 . S
O296 Mg297 2.028 . S
O296 C298 1.248 . S
Mg297 O296 2.028 . S
Mg297 O302 2.032 . S
Mg297 O304 2.079 . S
C298 O295 1.250 . S
C298 O296 1.248 . S
C299 O300 1.264 . S
C299 O307 1.249 . S
O300 C299 1.264 . S
O301 Mg294 1.986 . S
O301 C305 1.246 . S
O302 Mg297 2.032 . S
O302 C305 1.259 . S
O303 Mg294 2.114 . S
O303 C306 1.252 . S
O304 Mg294 2.251 . S
O304 Mg297 2.079 . S
O304 C306 1.273 . S
C305 O301 1.246 . S
C305 O302 1.259 . S
C306 O303 1.252 . S
C306 O304 1.273 . S
O307 Mg294 2.010 1_556 S
O307 C299 1.249 . S
Mg308 O309 2.028 . S
Mg308 O315 1.986 . S
Mg308 O317 2.114 . S
Mg308 O318 2.251 . S
Mg308 O321 2.010 1_554 S
O309 Mg308 2.028 . S
O309 C312 1.250 . S
O310 Mg311 2.028 . S
O310 C312 1.248 . S
Mg311 O310 2.028 . S
Mg311 O316 2.032 . S
Mg311 O318 2.079 . S
C312 O309 1.250 . S
C312 O310 1.248 . S
C313 O314 1.264 . S
C313 O321 1.249 . S
O314 C313 1.264 . S
O315 Mg308 1.986 . S
O315 C319 1.246 . S
O316 Mg311 2.032 . S
O316 C319 1.259 . S
O317 Mg308 2.114 . S
O317 C320 1.252 . S
O318 Mg308 2.251 . S
O318 Mg311 2.079 . S
O318 C320 1.273 . S
C319 O315 1.246 . S
C319 O316 1.259 . S
C320 O317 1.252 . S
C320 O318 1.273 . S
O321 Mg308 2.010 1_556 S
O321 C313 1.249 . S
Mg322 O323 2.028 . S
Mg322 O329 1.986 . S
Mg322 O331 2.114 . S
Mg322 O332 2.251 . S
Mg322 O335 2.010 1_554 S
O323 Mg322 2.028 . S
O323 C326 1.250 . S
O324 Mg325 2.028 . S
O324 C326 1.248 . S
Mg325 O324 2.028 . S
Mg325 O330 2.032 . S
Mg325 O332 2.079 . S
C326 O323 1.250 . S
C326 O324 1.248 . S
C327 O328 1.264 . S
C327 O335 1.249 . S
O328 C327 1.264 . S
O329 Mg322 1.986 . S
O329 C333 1.246 . S
O330 Mg325 2.032 . S
O330 C333 1.259 . S
O331 Mg322 2.114 . S
O331 C334 1.252 . S
O332 Mg322 2.251 . S
O332 Mg325 2.079 . S
O332 C334 1.273 . S
C333 O329 1.246 . S
C333 O330 1.259 . S
C334 O331 1.252 . S
C334 O332 1.273 . S
O335 Mg322 2.010 1_556 S
O335 C327 1.249 . S
Mg336 O337 2.028 . S
Mg336 O343 1.986 . S
Mg336 O345 2.114 . S
Mg336 O346 2.251 . S
Mg336 O349 2.010 . S
O337 Mg336 2.028 . S
O337 C340 1.250 . S
O338 Mg339 2.028 . S
O338 C340 1.248 . S
Mg339 O338 2.028 . S
Mg339 O344 2.032 . S
Mg339 O346 2.079 . S
C340 O337 1.250 . S
C340 O338 1.248 . S
C341 O342 1.264 . S
C341 O349 1.249 . S
O342 C341 1.264 . S
O343 Mg336 1.986 . S
O343 C347 1.246 . S
O344 Mg339 2.032 . S
O344 C347 1.259 . S
O345 Mg336 2.114 . S
O345 C348 1.252 . S
O346 Mg336 2.251 . S
O346 Mg339 2.079 . S
O346 C348 1.273 . S
C347 O343 1.246 . S
C347 O344 1.259 . S
C348 O345 1.252 . S
C348 O346 1.273 . S
O349 Mg336 2.010 . S
O349 C341 1.249 . S
Mg350 O351 2.028 . S
Mg350 O357 1.986 . S
Mg350 O359 2.114 . S
Mg350 O360 2.251 . S
Mg350 O363 2.010 . S
O351 Mg350 2.028 . S
O351 C354 1.250 . S
O352 Mg353 2.028 . S
O352 C354 1.248 . S
Mg353 O352 2.028 . S
Mg353 O358 2.032 . S
Mg353 O360 2.079 . S
C354 O351 1.250 . S
C354 O352 1.248 . S
C355 O356 1.264 . S
C355 O363 1.249 . S
O356 C355 1.264 . S
O357 Mg350 1.986 . S
O357 C361 1.246 . S
O358 Mg353 2.032 . S
O358 C361 1.259 . S
O359 Mg350 2.114 . S
O359 C362 1.252 . S
O360 Mg350 2.251 . S
O360 Mg353 2.079 . S
O360 C362 1.273 . S
C361 O357 1.246 . S
C361 O358 1.259 . S
C362 O359 1.252 . S
C362 O360 1.273 . S
O363 Mg350 2.010 . S
O363 C355 1.249 . S
Mg364 O365 2.028 . S
Mg364 O371 1.986 . S
Mg364 O373 2.114 . S
Mg364 O374 2.251 . S
Mg364 O377 2.010 . S
O365 Mg364 2.028 . S
O365 C368 1.250 . S
O366 Mg367 2.028 . S
O366 C368 1.248 . S
Mg367 O366 2.028 . S
Mg367 O372 2.032 . S
Mg367 O374 2.079 . S
C368 O365 1.250 . S
C368 O366 1.248 . S
C369 O370 1.264 . S
C369 O377 1.249 . S
O370 C369 1.264 . S
O371 Mg364 1.986 . S
O371 C375 1.246 . S
O372 Mg367 2.032 . S
O372 C375 1.259 . S
O373 Mg364 2.114 . S
O373 C376 1.252 . S
O374 Mg364 2.251 . S
O374 Mg367 2.079 . S
O374 C376 1.273 . S
C375 O371 1.246 . S
C375 O372 1.259 . S
C376 O373 1.252 . S
C376 O374 1.273 . S
O377 Mg364 2.010 . S
O377 C369 1.249 . S
Mg378 O379 2.028 . S
Mg378 O385 1.986 . S
Mg378 O387 2.114 . S
Mg378 O388 2.251 . S
Mg378 O391 2.010 1_556 S
O379 Mg378 2.028 . S
O379 C382 1.250 . S
O380 Mg381 2.028 . S
O380 C382 1.248 . S
Mg381 O380 2.028 . S
Mg381 O386 2.032 . S
Mg381 O388 2.079 . S
C382 O379 1.250 . S
C382 O380 1.248 . S
C383 O384 1.264 . S
C383 O391 1.249 . S
O384 C383 1.264 . S
O385 Mg378 1.986 . S
O385 C389 1.246 . S
O386 Mg381 2.032 . S
O386 C389 1.259 . S
O387 Mg378 2.114 . S
O387 C390 1.252 . S
O388 Mg378 2.251 . S
O388 Mg381 2.079 . S
O388 C390 1.273 . S
C389 O385 1.246 . S
C389 O386 1.259 . S
C390 O387 1.252 . S
C390 O388 1.273 . S
O391 Mg378 2.010 1_554 S
O391 C383 1.249 . S
Mg392 O393 2.028 . S
Mg392 O399 1.986 . S
Mg392 O401 2.114 . S
Mg392 O402 2.251 . S
Mg392 O405 2.010 1_556 S
O393 Mg392 2.028 . S
O393 C396 1.250 . S
O394 Mg395 2.028 . S
O394 C396 1.248 . S
Mg395 O394 2.028 . S
Mg395 O400 2.032 . S
Mg395 O402 2.079 . S
C396 O393 1.250 . S
C396 O394 1.248 . S
C397 O398 1.264 . S
C397 O405 1.249 . S
O398 C397 1.264 . S
O399 Mg392 1.986 . S
O399 C403 1.246 . S
O400 Mg395 2.032 . S
O400 C403 1.259 . S
O401 Mg392 2.114 . S
O401 C404 1.252 . S
O402 Mg392 2.251 . S
O402 Mg395 2.079 . S
O402 C404 1.273 . S
C403 O399 1.246 . S
C403 O400 1.259 . S
C404 O401 1.252 . S
C404 O402 1.273 . S
O405 Mg392 2.010 1_554 S
O405 C397 1.249 . S
Mg406 O407 2.028 . S
Mg406 O413 1.986 . S
Mg406 O415 2.114 . S
Mg406 O416 2.251 . S
Mg406 O419 2.010 1_556 S
O407 Mg406 2.028 . S
O407 C410 1.250 . S
O408 Mg409 2.028 . S
O408 C410 1.248 . S
Mg409 O408 2.028 . S
Mg409 O414 2.032 . S
Mg409 O416 2.079 . S
C410 O407 1.250 . S
C410 O408 1.248 . S
C411 O412 1.264 . S
C411 O419 1.249 . S
O412 C411 1.264 . S
O413 Mg406 1.986 . S
O413 C417 1.246 . S
O414 Mg409 2.032 . S
O414 C417 1.259 . S
O415 Mg406 2.114 . S
O415 C418 1.252 . S
O416 Mg406 2.251 . S
O416 Mg409 2.079 . S
O416 C418 1.273 . S
C417 O413 1.246 . S
C417 O414 1.259 . S
C418 O415 1.252 . S
C418 O416 1.273 . S
O419 Mg406 2.010 1_554 S
O419 C411 1.249 . S
Mg420 O421 2.028 . S
Mg420 O427 1.986 . S
Mg420 O429 2.114 . S
Mg420 O430 2.251 . S
Mg420 O433 2.010 . S
O421 Mg420 2.028 . S
O421 C424 1.250 . S
O422 Mg423 2.028 . S
O422 C424 1.248 . S
Mg423 O422 2.028 . S
Mg423 O428 2.032 . S
Mg423 O430 2.079 . S
C424 O421 1.250 . S
C424 O422 1.248 . S
C425 O426 1.264 . S
C425 O433 1.249 . S
O426 C425 1.264 . S
O427 Mg420 1.986 . S
O427 C431 1.246 . S
O428 Mg423 2.032 . S
O428 C431 1.259 . S
O429 Mg420 2.114 . S
O429 C432 1.252 . S
O430 Mg420 2.251 . S
O430 Mg423 2.079 . S
O430 C432 1.273 . S
C431 O427 1.246 . S
C431 O428 1.259 . S
C432 O429 1.252 . S
C432 O430 1.273 . S
O433 Mg420 2.010 . S
O433 C425 1.249 . S
Mg434 O435 2.028 . S
Mg434 O441 1.986 . S
Mg434 O443 2.114 . S
Mg434 O444 2.251 . S
Mg434 O447 2.010 . S
O435 Mg434 2.028 . S
O435 C438 1.250 . S
O436 Mg437 2.028 . S
O436 C438 1.248 . S
Mg437 O436 2.028 . S
Mg437 O442 2.032 . S
Mg437 O444 2.079 . S
C438 O435 1.250 . S
C438 O436 1.248 . S
C439 O440 1.264 . S
C439 O447 1.249 . S
O440 C439 1.264 . S
O441 Mg434 1.986 . S
O441 C445 1.246 . S
O442 Mg437 2.032 . S
O442 C445 1.259 . S
O443 Mg434 2.114 . S
O443 C446 1.252 . S
O444 Mg434 2.251 . S
O444 Mg437 2.079 . S
O444 C446 1.273 . S
C445 O441 1.246 . S
C445 O442 1.259 . S
C446 O443 1.252 . S
C446 O444 1.273 . S
O447 Mg434 2.010 . S
O447 C439 1.249 . S
Mg448 O449 2.028 . S
Mg448 O455 1.986 . S
Mg448 O457 2.114 . S
Mg448 O458 2.251 . S
Mg448 O461 2.010 . S
O449 Mg448 2.028 . S
O449 C452 1.250 . S
O450 Mg451 2.028 . S
O450 C452 1.248 . S
Mg451 O450 2.028 . S
Mg451 O456 2.032 . S
Mg451 O458 2.079 . S
C452 O449 1.250 . S
C452 O450 1.248 . S
C453 O454 1.264 . S
C453 O461 1.249 . S
O454 C453 1.264 . S
O455 Mg448 1.986 . S
O455 C459 1.246 . S
O456 Mg451 2.032 . S
O456 C459 1.259 . S
O457 Mg448 2.114 . S
O457 C460 1.252 . S
O458 Mg448 2.251 . S
O458 Mg451 2.079 . S
O458 C460 1.273 . S
C459 O455 1.246 . S
C459 O456 1.259 . S
C460 O457 1.252 . S
C460 O458 1.273 . S
O461 Mg448 2.010 . S
O461 C453 1.249 . S
Mg462 O463 2.028 . S
Mg462 O469 1.986 . S
Mg462 O471 2.114 . S
Mg462 O472 2.251 . S
Mg462 O475 2.010 . S
O463 Mg462 2.028 . S
O463 C466 1.250 . S
O464 Mg465 2.028 . S
O464 C466 1.248 . S
Mg465 O464 2.028 . S
Mg465 O470 2.032 . S
Mg465 O472 2.079 . S
C466 O463 1.250 . S
C466 O464 1.248 . S
C467 O468 1.264 . S
C467 O475 1.249 . S
O468 C467 1.264 . S
O469 Mg462 1.986 . S
O469 C473 1.246 . S
O470 Mg465 2.032 . S
O470 C473 1.259 . S
O471 Mg462 2.114 . S
O471 C474 1.252 . S
O472 Mg462 2.251 . S
O472 Mg465 2.079 . S
O472 C474 1.273 . S
C473 O469 1.246 . S
C473 O470 1.259 . S
C474 O471 1.252 . S
C474 O472 1.273 . S
O475 Mg462 2.010 . S
O475 C467 1.249 . S
Mg476 O477 2.028 . S
Mg476 O483 1.986 . S
Mg476 O485 2.114 . S
Mg476 O486 2.251 . S
Mg476 O489 2.010 . S
O477 Mg476 2.028 . S
O477 C480 1.250 . S
O478 Mg479 2.028 . S
O478 C480 1.248 . S
Mg479 O478 2.028 . S
Mg479 O484 2.032 . S
Mg479 O486 2.079 . S
C480 O477 1.250 . S
C480 O478 1.248 . S
C481 O482 1.264 . S
C481 O489 1.249 . S
O482 C481 1.264 . S
O483 Mg476 1.986 . S
O483 C487 1.246 . S
O484 Mg479 2.032 . S
O484 C487 1.259 . S
O485 Mg476 2.114 . S
O485 C488 1.252 . S
O486 Mg476 2.251 . S
O486 Mg479 2.079 . S
O486 C488 1.273 . S
C487 O483 1.246 . S
C487 O484 1.259 . S
C488 O485 1.252 . S
C488 O486 1.273 . S
O489 Mg476 2.010 . S
O489 C481 1.249 . S
Mg490 O491 2.028 . S
Mg490 O497 1.986 . S
Mg490 O499 2.114 . S
Mg490 O500 2.251 . S
Mg490 O503 2.010 . S
O491 Mg490 2.028 . S
O491 C494 1.250 . S
O492 Mg493 2.028 . S
O492 C494 1.248 . S
Mg493 O492 2.028 . S
Mg493 O498 2.032 . S
Mg493 O500 2.079 . S
C494 O491 1.250 . S
C494 O492 1.248 . S
C495 O496 1.264 . S
C495 O503 1.249 . S
O496 C495 1.264 . S
O497 Mg490 1.986 . S
O497 C501 1.246 . S
O498 Mg493 2.032 . S
O498 C501 1.259 . S
O499 Mg490 2.114 . S
O499 C502 1.252 . S
O500 Mg490 2.251 . S
O500 Mg493 2.079 . S
O500 C502 1.273 . S
C501 O497 1.246 . S
C501 O498 1.259 . S
C502 O499 1.252 . S
C502 O500 1.273 . S
O503 Mg490 2.010 . S
O503 C495 1.249 . S
H504 C510 0.930 . S
H505 C514 0.930 . S
H506 C519 0.929 . S
H507 C517 0.929 . S
H508 C512 0.929 . S
H509 C518 0.929 . S
C510 H504 0.930 . S
C510 C511 1.367 . S
C510 C518 1.378 . S
C511 C510 1.367 . S
C511 C519 1.433 . S
C512 H508 0.929 . S
C512 C514 1.378 1_556 S
C512 C516 1.350 . S
C513 C516 1.463 . S
C513 C518 1.350 . S
C513 N521 1.427 . S
C514 H505 0.930 . S
C514 C512 1.378 1_554 S
C514 C515 1.367 . S
C515 C514 1.367 . S
C515 C517 1.433 . S
C516 C512 1.350 . S
C516 C513 1.463 . S
C516 N520 1.427 . S
C517 H507 0.929 . S
C517 C515 1.433 . S
C517 N520 1.384 1_554 S
C518 H509 0.929 . S
C518 C510 1.378 . S
C518 C513 1.350 . S
C519 H506 0.929 . S
C519 C511 1.433 . S
C519 N521 1.384 . S
N520 C516 1.427 . S
N520 C517 1.384 1_556 S
N521 C513 1.427 . S
N521 C519 1.384 . S
H522 C528 0.930 . S
H523 C532 0.930 . S
H524 C537 0.929 . S
H525 C535 0.929 . S
H526 C530 0.929 . S
H527 C536 0.929 . S
C528 H522 0.930 . S
C528 C529 1.367 . S
C528 C536 1.378 . S
C529 C528 1.367 . S
C529 C537 1.433 . S
C530 H526 0.929 . S
C530 C532 1.378 1_556 S
C530 C534 1.350 . S
C531 C534 1.463 . S
C531 C536 1.350 . S
C531 N539 1.427 . S
C532 H523 0.930 . S
C532 C530 1.378 1_554 S
C532 C533 1.367 . S
C533 C532 1.367 . S
C533 C535 1.433 . S
C534 C530 1.350 . S
C534 C531 1.463 . S
C534 N538 1.427 . S
C535 H525 0.929 . S
C535 C533 1.433 . S
C535 N538 1.384 1_554 S
C536 H527 0.929 . S
C536 C528 1.378 . S
C536 C531 1.350 . S
C537 H524 0.929 . S
C537 C529 1.433 . S
C537 N539 1.384 . S
N538 C534 1.427 . S
N538 C535 1.384 1_556 S
N539 C531 1.427 . S
N539 C537 1.384 . S
H540 C546 0.930 . S
H541 C550 0.930 . S
H542 C555 0.929 . S
H543 C553 0.929 . S
H544 C548 0.929 . S
H545 C554 0.929 . S
C546 H540 0.930 . S
C546 C547 1.367 . S
C546 C554 1.378 1_554 S
C547 C546 1.367 . S
C547 C555 1.433 . S
C548 H544 0.929 . S
C548 C550 1.378 . S
C548 C552 1.350 . S
C549 C552 1.463 . S
C549 C554 1.350 . S
C549 N557 1.427 . S
C550 H541 0.930 . S
C550 C548 1.378 . S
C550 C551 1.367 . S
C551 C550 1.367 . S
C551 C553 1.433 . S
C552 C548 1.350 . S
C552 C549 1.463 . S
C552 N556 1.427 . S
C553 H543 0.929 . S
C553 C551 1.433 . S
C553 N556 1.384 . S
C554 H545 0.929 . S
C554 C546 1.378 1_556 S
C554 C549 1.350 . S
C555 H542 0.929 . S
C555 C547 1.433 . S
C555 N557 1.384 1_554 S
N556 C552 1.427 . S
N556 C553 1.384 . S
N557 C549 1.427 . S
N557 C555 1.384 1_556 S
H558 C564 0.930 . S
H559 C568 0.930 . S
H560 C573 0.929 . S
H561 C571 0.929 . S
H562 C566 0.929 . S
H563 C572 0.929 . S
C564 H558 0.930 . S
C564 C565 1.367 . S
C564 C572 1.378 . S
C565 C564 1.367 . S
C565 C573 1.433 . S
C566 H562 0.929 . S
C566 C568 1.378 . S
C566 C570 1.350 . S
C567 C570 1.463 . S
C567 C572 1.350 . S
C567 N575 1.427 . S
C568 H559 0.930 . S
C568 C566 1.378 . S
C568 C569 1.367 . S
C569 C568 1.367 . S
C569 C571 1.433 . S
C570 C566 1.350 . S
C570 C567 1.463 . S
C570 N574 1.427 . S
C571 H561 0.929 . S
C571 C569 1.433 . S
C571 N574 1.384 . S
C572 H563 0.929 . S
C572 C564 1.378 . S
C572 C567 1.350 . S
C573 H560 0.929 . S
C573 C565 1.433 . S
C573 N575 1.384 . S
N574 C570 1.427 . S
N574 C571 1.384 . S
N575 C567 1.427 . S
N575 C573 1.384 . S
H576 C582 0.930 . S
H577 C586 0.930 . S
H578 C591 0.929 . S
H579 C589 0.929 . S
H580 C584 0.929 . S
H581 C590 0.929 . S
C582 H576 0.930 . S
C582 C583 1.367 . S
C582 C590 1.378 . S
C583 C582 1.367 . S
C583 C591 1.433 . S
C584 H580 0.929 . S
C584 C586 1.378 . S
C584 C588 1.350 . S
C585 C588 1.463 . S
C585 C590 1.350 . S
C585 N593 1.427 . S
C586 H577 0.930 . S
C586 C584 1.378 . S
C586 C587 1.367 . S
C587 C586 1.367 . S
C587 C589 1.433 . S
C588 C584 1.350 . S
C588 C585 1.463 . S
C588 N592 1.427 . S
C589 H579 0.929 . S
C589 C587 1.433 . S
C589 N592 1.384 . S
C590 H581 0.929 . S
C590 C582 1.378 . S
C590 C585 1.350 . S
C591 H578 0.929 . S
C591 C583 1.433 . S
C591 N593 1.384 . S
N592 C588 1.427 . S
N592 C589 1.384 . S
N593 C585 1.427 . S
N593 C591 1.384 . S
H594 C600 0.930 . S
H595 C604 0.930 . S
H596 C609 0.929 . S
H597 C607 0.929 . S
H598 C602 0.929 . S
H599 C608 0.929 . S
C600 H594 0.930 . S
C600 C601 1.367 . S
C600 C608 1.378 . S
C601 C600 1.367 . S
C601 C609 1.433 . S
C602 H598 0.929 . S
C602 C604 1.378 . S
C602 C606 1.350 . S
C603 C606 1.463 . S
C603 C608 1.350 . S
C603 N611 1.427 . S
C604 H595 0.930 . S
C604 C602 1.378 . S
C604 C605 1.367 . S
C605 C604 1.367 . S
C605 C607 1.433 . S
C606 C602 1.350 . S
C606 C603 1.463 . S
C606 N610 1.427 . S
C607 H597 0.929 . S
C607 C605 1.433 . S
C607 N610 1.384 . S
C608 H599 0.929 . S
C608 C600 1.378 . S
C608 C603 1.350 . S
C609 H596 0.929 . S
C609 C601 1.433 . S
C609 N611 1.384 . S
N610 C606 1.427 . S
N610 C607 1.384 . S
N611 C603 1.427 . S
N611 C609 1.384 . S
H612 C618 0.930 . S
H613 C622 0.930 . S
H614 C627 0.929 . S
H615 C625 0.929 . S
H616 C620 0.929 . S
H617 C626 0.929 . S
C618 H612 0.930 . S
C618 C619 1.367 . S
C618 C626 1.378 . S
C619 C618 1.367 . S
C619 C627 1.433 . S
C620 H616 0.929 . S
C620 C622 1.378 1_554 S
C620 C624 1.350 . S
C621 C624 1.463 . S
C621 C626 1.350 . S
C621 N629 1.427 . S
C622 H613 0.930 . S
C622 C620 1.378 1_556 S
C622 C623 1.367 . S
C623 C622 1.367 . S
C623 C625 1.433 . S
C624 C620 1.350 . S
C624 C621 1.463 . S
C624 N628 1.427 . S
C625 H615 0.929 . S
C625 C623 1.433 . S
C625 N628 1.384 1_556 S
C626 H617 0.929 . S
C626 C618 1.378 . S
C626 C621 1.350 . S
C627 H614 0.929 . S
C627 C619 1.433 . S
C627 N629 1.384 . S
N628 C624 1.427 . S
N628 C625 1.384 1_554 S
N629 C621 1.427 . S
N629 C627 1.384 . S
H630 C636 0.930 . S
H631 C640 0.930 . S
H632 C645 0.929 . S
H633 C643 0.929 . S
H634 C638 0.929 . S
H635 C644 0.929 . S
C636 H630 0.930 . S
C636 C637 1.367 . S
C636 C644 1.378 . S
C637 C636 1.367 . S
C637 C645 1.433 . S
C638 H634 0.929 . S
C638 C640 1.378 1_554 S
C638 C642 1.350 . S
C639 C642 1.463 . S
C639 C644 1.350 . S
C639 N647 1.427 . S
C640 H631 0.930 . S
C640 C638 1.378 1_556 S
C640 C641 1.367 . S
C641 C640 1.367 . S
C641 C643 1.433 . S
C642 C638 1.350 . S
C642 C639 1.463 . S
C642 N646 1.427 . S
C643 H633 0.929 . S
C643 C641 1.433 . S
C643 N646 1.384 1_556 S
C644 H635 0.929 . S
C644 C636 1.378 . S
C644 C639 1.350 . S
C645 H632 0.929 . S
C645 C637 1.433 . S
C645 N647 1.384 . S
N646 C642 1.427 . S
N646 C643 1.384 1_554 S
N647 C639 1.427 . S
N647 C645 1.384 . S
H648 C654 0.930 . S
H649 C658 0.930 . S
H650 C663 0.929 . S
H651 C661 0.929 . S
H652 C656 0.929 . S
H653 C662 0.929 . S
C654 H648 0.930 . S
C654 C655 1.367 . S
C654 C662 1.378 1_556 S
C655 C654 1.367 . S
C655 C663 1.433 . S
C656 H652 0.929 . S
C656 C658 1.378 . S
C656 C660 1.350 . S
C657 C660 1.463 . S
C657 C662 1.350 . S
C657 N665 1.427 . S
C658 H649 0.930 . S
C658 C656 1.378 . S
C658 C659 1.367 . S
C659 C658 1.367 . S
C659 C661 1.433 . S
C660 C656 1.350 . S
C660 C657 1.463 . S
C660 N664 1.427 . S
C661 H651 0.929 . S
C661 C659 1.433 . S
C661 N664 1.384 . S
C662 H653 0.929 . S
C662 C654 1.378 1_554 S
C662 C657 1.350 . S
C663 H650 0.929 . S
C663 C655 1.433 . S
C663 N665 1.384 1_556 S
N664 C660 1.427 . S
N664 C661 1.384 . S
N665 C657 1.427 . S
N665 C663 1.384 1_554 S
H666 C672 0.930 . S
H667 C676 0.930 . S
H668 C681 0.929 . S
H669 C679 0.929 . S
H670 C674 0.929 . S
H671 C680 0.929 . S
C672 H666 0.930 . S
C672 C673 1.367 . S
C672 C680 1.378 . S
C673 C672 1.367 . S
C673 C681 1.433 . S
C674 H670 0.929 . S
C674 C676 1.378 . S
C674 C678 1.350 . S
C675 C678 1.463 . S
C675 C680 1.350 . S
C675 N683 1.427 . S
C676 H667 0.930 . S
C676 C674 1.378 . S
C676 C677 1.367 . S
C677 C676 1.367 . S
C677 C679 1.433 . S
C678 C674 1.350 . S
C678 C675 1.463 . S
C678 N682 1.427 . S
C679 H669 0.929 . S
C679 C677 1.433 . S
C679 N682 1.384 . S
C680 H671 0.929 . S
C680 C672 1.378 . S
C680 C675 1.350 . S
C681 H668 0.929 . S
C681 C673 1.433 . S
C681 N683 1.384 . S
N682 C678 1.427 . S
N682 C679 1.384 . S
N683 C675 1.427 . S
N683 C681 1.384 . S
H684 C690 0.930 . S
H685 C694 0.930 . S
H686 C699 0.929 . S
H687 C697 0.929 . S
H688 C692 0.929 . S
H689 C698 0.929 . S
C690 H684 0.930 . S
C690 C691 1.367 . S
C690 C698 1.378 . S
C691 C690 1.367 . S
C691 C699 1.433 . S
C692 H688 0.929 . S
C692 C694 1.378 . S
C692 C696 1.350 . S
C693 C696 1.463 . S
C693 C698 1.350 . S
C693 N701 1.427 . S
C694 H685 0.930 . S
C694 C692 1.378 . S
C694 C695 1.367 . S
C695 C694 1.367 . S
C695 C697 1.433 . S
C696 C692 1.350 . S
C696 C693 1.463 . S
C696 N700 1.427 . S
C697 H687 0.929 . S
C697 C695 1.433 . S
C697 N700 1.384 . S
C698 H689 0.929 . S
C698 C690 1.378 . S
C698 C693 1.350 . S
C699 H686 0.929 . S
C699 C691 1.433 . S
C699 N701 1.384 . S
N700 C696 1.427 . S
N700 C697 1.384 . S
N701 C693 1.427 . S
N701 C699 1.384 . S
H702 C708 0.930 . S
H703 C712 0.930 . S
H704 C717 0.929 . S
H705 C715 0.929 . S
H706 C710 0.929 . S
H707 C716 0.929 . S
C708 H702 0.930 . S
C708 C709 1.367 . S
C708 C716 1.378 . S
C709 C708 1.367 . S
C709 C717 1.433 . S
C710 H706 0.929 . S
C710 C712 1.378 . S
C710 C714 1.350 . S
C711 C714 1.463 . S
C711 C716 1.350 . S
C711 N719 1.427 . S
C712 H703 0.930 . S
C712 C710 1.378 . S
C712 C713 1.367 . S
C713 C712 1.367 . S
C713 C715 1.433 . S
C714 C710 1.350 . S
C714 C711 1.463 . S
C714 N718 1.427 . S
C715 H705 0.929 . S
C715 C713 1.433 . S
C715 N718 1.384 . S
C716 H707 0.929 . S
C716 C708 1.378 . S
C716 C711 1.350 . S
C717 H704 0.929 . S
C717 C709 1.433 . S
C717 N719 1.384 . S
N718 C714 1.427 . S
N718 C715 1.384 . S
N719 C711 1.427 . S
N719 C717 1.384 . S
H720 C726 0.930 . S
H721 C730 0.930 . S
H722 C735 0.929 . S
H723 C733 0.929 . S
H724 C728 0.929 . S
H725 C734 0.929 . S
C726 H720 0.930 . S
C726 C727 1.367 . S
C726 C734 1.378 . S
C727 C726 1.367 . S
C727 C735 1.433 . S
C728 H724 0.929 . S
C728 C730 1.378 . S
C728 C732 1.350 . S
C729 C732 1.463 . S
C729 C734 1.350 . S
C729 N737 1.427 . S
C730 H721 0.930 . S
C730 C728 1.378 . S
C730 C731 1.367 . S
C731 C730 1.367 . S
C731 C733 1.433 . S
C732 C728 1.350 . S
C732 C729 1.463 . S
C732 N736 1.427 . S
C733 H723 0.929 . S
C733 C731 1.433 . S
C733 N736 1.384 . S
C734 H725 0.929 . S
C734 C726 1.378 . S
C734 C729 1.350 . S
C735 H722 0.929 . S
C735 C727 1.433 . S
C735 N737 1.384 . S
N736 C732 1.427 . S
N736 C733 1.384 . S
N737 C729 1.427 . S
N737 C735 1.384 . S
H738 C744 0.930 . S
H739 C748 0.930 . S
H740 C753 0.929 . S
H741 C751 0.929 . S
H742 C746 0.929 . S
H743 C752 0.929 . S
C744 H738 0.930 . S
C744 C745 1.367 . S
C744 C752 1.378 . S
C745 C744 1.367 . S
C745 C753 1.433 . S
C746 H742 0.929 . S
C746 C748 1.378 . S
C746 C750 1.350 . S
C747 C750 1.463 . S
C747 C752 1.350 . S
C747 N755 1.427 . S
C748 H739 0.930 . S
C748 C746 1.378 . S
C748 C749 1.367 . S
C749 C748 1.367 . S
C749 C751 1.433 . S
C750 C746 1.350 . S
C750 C747 1.463 . S
C750 N754 1.427 . S
C751 H741 0.929 . S
C751 C749 1.433 . S
C751 N754 1.384 . S
C752 H743 0.929 . S
C752 C744 1.378 . S
C752 C747 1.350 . S
C753 H740 0.929 . S
C753 C745 1.433 . S
C753 N755 1.384 . S
N754 C750 1.427 . S
N754 C751 1.384 . S
N755 C747 1.427 . S
N755 C753 1.384 . S
H756 C762 0.930 . S
H757 C766 0.930 . S
H758 C771 0.929 . S
H759 C769 0.929 . S
H760 C764 0.929 . S
H761 C770 0.929 . S
C762 H756 0.930 . S
C762 C763 1.367 . S
C762 C770 1.378 . S
C763 C762 1.367 . S
C763 C771 1.433 . S
C764 H760 0.929 . S
C764 C766 1.378 . S
C764 C768 1.350 . S
C765 C768 1.463 . S
C765 C770 1.350 . S
C765 N773 1.427 . S
C766 H757 0.930 . S
C766 C764 1.378 . S
C766 C767 1.367 . S
C767 C766 1.367 . S
C767 C769 1.433 . S
C768 C764 1.350 . S
C768 C765 1.463 . S
C768 N772 1.427 . S
C769 H759 0.929 . S
C769 C767 1.433 . S
C769 N772 1.384 . S
C770 H761 0.929 . S
C770 C762 1.378 . S
C770 C765 1.350 . S
C771 H758 0.929 . S
C771 C763 1.433 . S
C771 N773 1.384 . S
N772 C768 1.427 . S
N772 C769 1.384 . S
N773 C765 1.427 . S
N773 C771 1.384 . S
H774 C780 0.930 . S
H775 C784 0.923 1_554 S
H776 C789 0.929 . S
H777 C787 0.929 1_554 S
H778 C782 0.929 . S
H779 C788 0.929 . S
C780 H774 0.930 . S
C780 C781 1.367 . S
C780 C788 1.378 . S
C781 C780 1.367 . S
C781 C789 1.433 . S
C782 H778 0.929 . S
C782 C784 1.392 . S
C782 C786 1.350 . S
C783 C786 1.463 . S
C783 C788 1.350 . S
C783 N791 1.427 . S
C784 H775 0.923 1_556 S
C784 C782 1.392 . S
C784 C785 1.361 1_556 S
C785 C784 1.361 1_554 S
C785 C787 1.433 1_554 S
C786 C782 1.350 . S
C786 C783 1.463 . S
C786 N790 1.427 . S
C787 H777 0.929 1_556 S
C787 C785 1.433 1_556 S
C787 N790 1.384 . S
C788 H779 0.929 . S
C788 C780 1.378 . S
C788 C783 1.350 . S
C789 H776 0.929 . S
C789 C781 1.433 . S
C789 N791 1.384 . S
N790 C786 1.427 . S
N790 C787 1.384 . S
N791 C783 1.427 . S
N791 C789 1.384 . S
H792 C798 0.930 . S
H793 C802 0.930 . S
H794 C807 0.929 . S
H795 C805 0.929 1_554 S
H796 C800 0.929 . S
H797 C806 0.929 . S
C798 H792 0.930 . S
C798 C799 1.367 . S
C798 C806 1.378 . S
C799 C798 1.367 . S
C799 C807 1.433 . S
C800 H796 0.929 . S
C800 C802 1.378 1_556 S
C800 C804 1.350 . S
C801 C804 1.463 . S
C801 C806 1.350 . S
C801 N809 1.427 . S
C802 H793 0.930 . S
C802 C800 1.378 1_554 S
C802 C803 1.367 . S
C803 C802 1.367 . S
C803 C805 1.433 1_554 S
C804 C800 1.350 . S
C804 C801 1.463 . S
C804 N808 1.427 . S
C805 H795 0.929 1_556 S
C805 C803 1.433 1_556 S
C805 N808 1.384 . S
C806 H797 0.929 . S
C806 C798 1.378 . S
C806 C801 1.350 . S
C807 H794 0.929 . S
C807 C799 1.433 . S
C807 N809 1.384 . S
N808 C804 1.427 . S
N808 C805 1.384 . S
N809 C801 1.427 . S
N809 C807 1.384 . S
H810 C816 0.930 . S
H811 C820 0.930 1_554 S
H812 C825 0.929 . S
H813 C823 0.929 . S
H814 C818 0.929 . S
H815 C824 0.929 . S
C816 H810 0.930 . S
C816 C817 1.367 . S
C816 C824 1.378 . S
C817 C816 1.367 . S
C817 C825 1.433 . S
C818 H814 0.929 . S
C818 C820 1.378 . S
C818 C822 1.350 . S
C819 C822 1.463 . S
C819 C824 1.350 . S
C819 N827 1.427 . S
C820 H811 0.930 1_556 S
C820 C818 1.378 . S
C820 C821 1.367 1_556 S
C821 C820 1.367 1_554 S
C821 C823 1.433 . S
C822 C818 1.350 . S
C822 C819 1.463 . S
C822 N826 1.427 . S
C823 H813 0.929 . S
C823 C821 1.433 . S
C823 N826 1.384 1_554 S
C824 H815 0.929 . S
C824 C816 1.378 . S
C824 C819 1.350 . S
C825 H812 0.929 . S
C825 C817 1.433 . S
C825 N827 1.384 . S
N826 C822 1.427 . S
N826 C823 1.384 1_556 S
N827 C819 1.427 . S
N827 C825 1.384 . S
H828 C834 0.930 . S
H829 C838 0.930 . S
H830 C843 0.929 . S
H831 C841 0.929 . S
H832 C836 0.929 . S
H833 C842 0.929 . S
C834 H828 0.930 . S
C834 C835 1.367 . S
C834 C842 1.378 . S
C835 C834 1.367 . S
C835 C843 1.433 . S
C836 H832 0.929 . S
C836 C838 1.378 . S
C836 C840 1.350 . S
C837 C840 1.463 . S
C837 C842 1.350 . S
C837 N845 1.427 . S
C838 H829 0.930 . S
C838 C836 1.378 . S
C838 C839 1.367 . S
C839 C838 1.367 . S
C839 C841 1.433 . S
C840 C836 1.350 . S
C840 C837 1.463 . S
C840 N844 1.427 . S
C841 H831 0.929 . S
C841 C839 1.433 . S
C841 N844 1.384 . S
C842 H833 0.929 . S
C842 C834 1.378 . S
C842 C837 1.350 . S
C843 H830 0.929 . S
C843 C835 1.433 . S
C843 N845 1.384 . S
N844 C840 1.427 . S
N844 C841 1.384 . S
N845 C837 1.427 . S
N845 C843 1.384 . S
H846 C852 0.930 . S
H847 C856 0.930 . S
H848 C861 0.929 . S
H849 C859 0.929 . S
H850 C854 0.929 . S
H851 C860 0.929 . S
C852 H846 0.930 . S
C852 C853 1.367 . S
C852 C860 1.378 . S
C853 C852 1.367 . S
C853 C861 1.433 . S
C854 H850 0.929 . S
C854 C856 1.378 . S
C854 C858 1.350 . S
C855 C858 1.463 . S
C855 C860 1.350 . S
C855 N863 1.427 . S
C856 H847 0.930 . S
C856 C854 1.378 . S
C856 C857 1.367 . S
C857 C856 1.367 . S
C857 C859 1.433 . S
C858 C854 1.350 . S
C858 C855 1.463 . S
C858 N862 1.427 . S
C859 H849 0.929 . S
C859 C857 1.433 . S
C859 N862 1.384 . S
C860 H851 0.929 . S
C860 C852 1.378 . S
C860 C855 1.350 . S
C861 H848 0.929 . S
C861 C853 1.433 . S
C861 N863 1.384 . S
N862 C858 1.427 . S
N862 C859 1.384 . S
N863 C855 1.427 . S
N863 C861 1.384 . S
H864 C870 0.930 . S
H865 C874 0.930 . S
H866 C879 0.929 . S
H867 C877 0.929 . S
H868 C872 0.929 . S
H869 C878 0.929 . S
C870 H864 0.930 . S
C870 C871 1.367 . S
C870 C878 1.378 . S
C871 C870 1.367 . S
C871 C879 1.433 . S
C872 H868 0.929 . S
C872 C874 1.378 . S
C872 C876 1.350 . S
C873 C876 1.463 . S
C873 C878 1.350 . S
C873 N881 1.427 . S
C874 H865 0.930 . S
C874 C872 1.378 . S
C874 C875 1.367 . S
C875 C874 1.367 . S
C875 C877 1.433 . S
C876 C872 1.350 . S
C876 C873 1.463 . S
C876 N880 1.427 . S
C877 H867 0.929 . S
C877 C875 1.433 . S
C877 N880 1.384 . S
C878 H869 0.929 . S
C878 C870 1.378 . S
C878 C873 1.350 . S
C879 H866 0.929 . S
C879 C871 1.433 . S
C879 N881 1.384 . S
N880 C876 1.427 . S
N880 C877 1.384 . S
N881 C873 1.427 . S
N881 C879 1.384 . S
H882 C888 0.930 . S
H883 C892 0.930 . S
H884 C897 0.929 . S
H885 C895 0.929 . S
H886 C890 0.929 . S
H887 C896 0.929 . S
C888 H882 0.930 . S
C888 C889 1.367 . S
C888 C896 1.378 . S
C889 C888 1.367 . S
C889 C897 1.433 . S
C890 H886 0.929 . S
C890 C892 1.378 . S
C890 C894 1.350 . S
C891 C894 1.463 . S
C891 C896 1.350 . S
C891 N899 1.427 . S
C892 H883 0.930 . S
C892 C890 1.378 . S
C892 C893 1.367 . S
C893 C892 1.367 . S
C893 C895 1.433 . S
C894 C890 1.350 . S
C894 C891 1.463 . S
C894 N898 1.427 . S
C895 H885 0.929 . S
C895 C893 1.433 . S
C895 N898 1.384 . S
C896 H887 0.929 . S
C896 C888 1.378 . S
C896 C891 1.350 . S
C897 H884 0.929 . S
C897 C889 1.433 . S
C897 N899 1.384 . S
N898 C894 1.427 . S
N898 C895 1.384 . S
N899 C891 1.427 . S
N899 C897 1.384 . S
H900 C906 0.930 . S
H901 C910 0.930 . S
H902 C915 0.929 . S
H903 C913 0.929 . S
H904 C908 0.929 . S
H905 C914 0.929 . S
C906 H900 0.930 . S
C906 C907 1.367 . S
C906 C914 1.378 . S
C907 C906 1.367 . S
C907 C915 1.433 . S
C908 H904 0.929 . S
C908 C910 1.378 . S
C908 C912 1.350 . S
C909 C912 1.463 . S
C909 C914 1.350 . S
C909 N917 1.427 . S
C910 H901 0.930 . S
C910 C908 1.378 . S
C910 C911 1.367 . S
C911 C910 1.367 . S
C911 C913 1.433 . S
C912 C908 1.350 . S
C912 C909 1.463 . S
C912 N916 1.427 . S
C913 H903 0.929 . S
C913 C911 1.433 . S
C913 N916 1.384 . S
C914 H905 0.929 . S
C914 C906 1.378 . S
C914 C909 1.350 . S
C915 H902 0.929 . S
C915 C907 1.433 . S
C915 N917 1.384 . S
N916 C912 1.427 . S
N916 C913 1.384 . S
N917 C909 1.427 . S
N917 C915 1.384 . S
H918 C924 0.930 . S
H919 C928 0.930 . S
H920 C933 0.929 . S
H921 C931 0.929 . S
H922 C926 0.929 . S
H923 C932 0.929 . S
C924 H918 0.930 . S
C924 C925 1.367 . S
C924 C932 1.378 . S
C925 C924 1.367 . S
C925 C933 1.433 . S
C926 H922 0.929 . S
C926 C928 1.378 . S
C926 C930 1.350 . S
C927 C930 1.463 . S
C927 C932 1.350 . S
C927 N935 1.427 . S
C928 H919 0.930 . S
C928 C926 1.378 . S
C928 C929 1.367 . S
C929 C928 1.367 . S
C929 C931 1.433 . S
C930 C926 1.350 . S
C930 C927 1.463 . S
C930 N934 1.427 . S
C931 H921 0.929 . S
C931 C929 1.433 . S
C931 N934 1.384 . S
C932 H923 0.929 . S
C932 C924 1.378 . S
C932 C927 1.350 . S
C933 H920 0.929 . S
C933 C925 1.433 . S
C933 N935 1.384 . S
N934 C930 1.427 . S
N934 C931 1.384 . S
N935 C927 1.427 . S
N935 C933 1.384 . S
H936 C942 0.930 . S
H937 C946 0.930 . S
H938 C951 0.929 . S
H939 C949 0.929 . S
H940 C944 0.929 . S
H941 C950 0.929 . S
C942 H936 0.930 . S
C942 C943 1.367 . S
C942 C950 1.378 . S
C943 C942 1.367 . S
C943 C951 1.433 . S
C944 H940 0.929 . S
C944 C946 1.378 . S
C944 C948 1.350 . S
C945 C948 1.463 . S
C945 C950 1.350 . S
C945 N953 1.427 . S
C946 H937 0.930 . S
C946 C944 1.378 . S
C946 C947 1.367 . S
C947 C946 1.367 . S
C947 C949 1.433 . S
C948 C944 1.350 . S
C948 C945 1.463 . S
C948 N952 1.427 . S
C949 H939 0.929 . S
C949 C947 1.433 . S
C949 N952 1.384 . S
C950 H941 0.929 . S
C950 C942 1.378 . S
C950 C945 1.350 . S
C951 H938 0.929 . S
C951 C943 1.433 . S
C951 N953 1.384 . S
N952 C948 1.427 . S
N952 C949 1.384 . S
N953 C945 1.427 . S
N953 C951 1.384 . S
H954 C960 0.930 . S
H955 C964 0.930 . S
H956 C969 0.929 . S
H957 C967 0.929 . S
H958 C962 0.929 . S
H959 C968 0.929 . S
C960 H954 0.930 . S
C960 C961 1.367 . S
C960 C968 1.378 . S
C961 C960 1.367 . S
C961 C969 1.433 . S
C962 H958 0.929 . S
C962 C964 1.378 . S
C962 C966 1.350 . S
C963 C966 1.463 . S
C963 C968 1.350 . S
C963 N971 1.427 . S
C964 H955 0.930 . S
C964 C962 1.378 . S
C964 C965 1.367 . S
C965 C964 1.367 . S
C965 C967 1.433 . S
C966 C962 1.350 . S
C966 C963 1.463 . S
C966 N970 1.427 . S
C967 H957 0.929 . S
C967 C965 1.433 . S
C967 N970 1.384 . S
C968 H959 0.929 . S
C968 C960 1.378 . S
C968 C963 1.350 . S
C969 H956 0.929 . S
C969 C961 1.433 . S
C969 N971 1.384 . S
N970 C966 1.427 . S
N970 C967 1.384 . S
N971 C963 1.427 . S
N971 C969 1.384 . S
H972 C978 0.930 . S
H973 C982 0.930 . S
H974 C987 0.929 . S
H975 C985 0.929 . S
H976 C980 0.929 . S
H977 C986 0.929 . S
C978 H972 0.930 . S
C978 C979 1.367 . S
C978 C986 1.378 . S
C979 C978 1.367 . S
C979 C987 1.433 . S
C980 H976 0.929 . S
C980 C982 1.378 . S
C980 C984 1.350 . S
C981 C984 1.463 . S
C981 C986 1.350 . S
C981 N989 1.427 . S
C982 H973 0.930 . S
C982 C980 1.378 . S
C982 C983 1.367 . S
C983 C982 1.367 . S
C983 C985 1.433 . S
C984 C980 1.350 . S
C984 C981 1.463 . S
C984 N988 1.427 . S
C985 H975 0.929 . S
C985 C983 1.433 . S
C985 N988 1.384 . S
C986 H977 0.929 . S
C986 C978 1.378 . S
C986 C981 1.350 . S
C987 H974 0.929 . S
C987 C979 1.433 . S
C987 N989 1.384 . S
N988 C984 1.427 . S
N988 C985 1.384 . S
N989 C981 1.427 . S
N989 C987 1.384 . S
H990 C996 0.930 . S
H991 C1000 0.930 . S
H992 C1005 0.929 . S
H993 C1003 0.929 . S
H994 C998 0.929 . S
H995 C1004 0.929 . S
C996 H990 0.930 . S
C996 C997 1.367 . S
C996 C1004 1.378 . S
C997 C996 1.367 . S
C997 C1005 1.433 . S
C998 H994 0.929 . S
C998 C1000 1.378 . S
C998 C1002 1.350 . S
C999 C1002 1.463 . S
C999 C1004 1.350 . S
C999 N1007 1.427 . S
C1000 H991 0.930 . S
C1000 C998 1.378 . S
C1000 C1001 1.367 . S
C1001 C1000 1.367 . S
C1001 C1003 1.433 . S
C1002 C998 1.350 . S
C1002 C999 1.463 . S
C1002 N1006 1.427 . S
C1003 H993 0.929 . S
C1003 C1001 1.433 . S
C1003 N1006 1.384 . S
C1004 H995 0.929 . S
C1004 C996 1.378 . S
C1004 C999 1.350 . S
C1005 H992 0.929 . S
C1005 C997 1.433 . S
C1005 N1007 1.384 . S
N1006 C1002 1.427 . S
N1006 C1003 1.384 . S
N1007 C999 1.427 . S
N1007 C1005 1.384 . S
H1008 C1014 0.930 . S
H1009 C1018 0.930 . S
H1010 C1023 0.929 . S
H1011 C1021 0.929 . S
H1012 C1016 0.929 . S
H1013 C1022 0.929 . S
C1014 H1008 0.930 . S
C1014 C1015 1.367 . S
C1014 C1022 1.378 . S
C1015 C1014 1.367 . S
C1015 C1023 1.433 . S
C1016 H1012 0.929 . S
C1016 C1018 1.378 . S
C1016 C1020 1.350 . S
C1017 C1020 1.463 . S
C1017 C1022 1.350 . S
C1017 N1025 1.427 . S
C1018 H1009 0.930 . S
C1018 C1016 1.378 . S
C1018 C1019 1.367 . S
C1019 C1018 1.367 . S
C1019 C1021 1.433 . S
C1020 C1016 1.350 . S
C1020 C1017 1.463 . S
C1020 N1024 1.427 . S
C1021 H1011 0.929 . S
C1021 C1019 1.433 . S
C1021 N1024 1.384 . S
C1022 H1013 0.929 . S
C1022 C1014 1.378 . S
C1022 C1017 1.350 . S
C1023 H1010 0.929 . S
C1023 C1015 1.433 . S
C1023 N1025 1.384 . S
N1024 C1020 1.427 . S
N1024 C1021 1.384 . S
N1025 C1017 1.427 . S
N1025 C1023 1.384 . S
H1026 C1032 0.930 . S
H1027 C1036 0.930 . S
H1028 C1041 0.929 . S
H1029 C1039 0.929 . S
H1030 C1034 0.929 . S
H1031 C1040 0.929 . S
C1032 H1026 0.930 . S
C1032 C1033 1.367 . S
C1032 C1040 1.378 . S
C1033 C1032 1.367 . S
C1033 C1041 1.433 . S
C1034 H1030 0.929 . S
C1034 C1036 1.378 . S
C1034 C1038 1.350 . S
C1035 C1038 1.463 . S
C1035 C1040 1.350 . S
C1035 N1043 1.427 . S
C1036 H1027 0.930 . S
C1036 C1034 1.378 . S
C1036 C1037 1.367 . S
C1037 C1036 1.367 . S
C1037 C1039 1.433 . S
C1038 C1034 1.350 . S
C1038 C1035 1.463 . S
C1038 N1042 1.427 . S
C1039 H1029 0.929 . S
C1039 C1037 1.433 . S
C1039 N1042 1.384 . S
C1040 H1031 0.929 . S
C1040 C1032 1.378 . S
C1040 C1035 1.350 . S
C1041 H1028 0.929 . S
C1041 C1033 1.433 . S
C1041 N1043 1.384 . S
N1042 C1038 1.427 . S
N1042 C1039 1.384 . S
N1043 C1035 1.427 . S
N1043 C1041 1.384 . S
H1044 C1050 0.930 . S
H1045 C1054 0.930 . S
H1046 C1059 0.929 . S
H1047 C1057 0.929 . S
H1048 C1052 0.929 . S
H1049 C1058 0.929 . S
C1050 H1044 0.930 . S
C1050 C1051 1.367 . S
C1050 C1058 1.378 . S
C1051 C1050 1.367 . S
C1051 C1059 1.433 . S
C1052 H1048 0.929 . S
C1052 C1054 1.378 . S
C1052 C1056 1.350 . S
C1053 C1056 1.463 . S
C1053 C1058 1.350 . S
C1053 N1061 1.427 . S
C1054 H1045 0.930 . S
C1054 C1052 1.378 . S
C1054 C1055 1.367 . S
C1055 C1054 1.367 . S
C1055 C1057 1.433 . S
C1056 C1052 1.350 . S
C1056 C1053 1.463 . S
C1056 N1060 1.427 . S
C1057 H1047 0.929 . S
C1057 C1055 1.433 . S
C1057 N1060 1.384 . S
C1058 H1049 0.929 . S
C1058 C1050 1.378 . S
C1058 C1053 1.350 . S
C1059 H1046 0.929 . S
C1059 C1051 1.433 . S
C1059 N1061 1.384 . S
N1060 C1056 1.427 . S
N1060 C1057 1.384 . S
N1061 C1053 1.427 . S
N1061 C1059 1.384 . S
H1062 C1068 0.930 . S
H1063 C1072 0.930 . S
H1064 C1077 0.929 . S
H1065 C1075 0.929 . S
H1066 C1070 0.929 . S
H1067 C1076 0.929 . S
C1068 H1062 0.930 . S
C1068 C1069 1.367 . S
C1068 C1076 1.378 . S
C1069 C1068 1.367 . S
C1069 C1077 1.433 . S
C1070 H1066 0.929 . S
C1070 C1072 1.378 . S
C1070 C1074 1.350 . S
C1071 C1074 1.463 . S
C1071 C1076 1.350 . S
C1071 N1079 1.427 . S
C1072 H1063 0.930 . S
C1072 C1070 1.378 . S
C1072 C1073 1.367 . S
C1073 C1072 1.367 . S
C1073 C1075 1.433 . S
C1074 C1070 1.350 . S
C1074 C1071 1.463 . S
C1074 N1078 1.427 . S
C1075 H1065 0.929 . S
C1075 C1073 1.433 . S
C1075 N1078 1.384 . S
C1076 H1067 0.929 . S
C1076 C1068 1.378 . S
C1076 C1071 1.350 . S
C1077 H1064 0.929 . S
C1077 C1069 1.433 . S
C1077 N1079 1.384 . S
N1078 C1074 1.427 . S
N1078 C1075 1.384 . S
N1079 C1071 1.427 . S
N1079 C1077 1.384 . S
H1080 C1086 0.930 . S
H1081 C1090 0.930 . S
H1082 C1095 0.929 . S
H1083 C1093 0.929 . S
H1084 C1088 0.929 . S
H1085 C1094 0.929 . S
C1086 H1080 0.930 . S
C1086 C1087 1.367 . S
C1086 C1094 1.378 . S
C1087 C1086 1.367 . S
C1087 C1095 1.433 . S
C1088 H1084 0.929 . S
C1088 C1090 1.378 . S
C1088 C1092 1.350 . S
C1089 C1092 1.463 . S
C1089 C1094 1.350 . S
C1089 N1097 1.427 . S
C1090 H1081 0.930 . S
C1090 C1088 1.378 . S
C1090 C1091 1.367 . S
C1091 C1090 1.367 . S
C1091 C1093 1.433 . S
C1092 C1088 1.350 . S
C1092 C1089 1.463 . S
C1092 N1096 1.427 . S
C1093 H1083 0.929 . S
C1093 C1091 1.433 . S
C1093 N1096 1.384 . S
C1094 H1085 0.929 . S
C1094 C1086 1.378 . S
C1094 C1089 1.350 . S
C1095 H1082 0.929 . S
C1095 C1087 1.433 . S
C1095 N1097 1.384 . S
N1096 C1092 1.427 . S
N1096 C1093 1.384 . S
N1097 C1089 1.427 . S
N1097 C1095 1.384 . S
H1098 C1104 0.930 . S
H1099 C1108 0.930 . S
H1100 C1113 0.929 . S
H1101 C1111 0.929 1_556 S
H1102 C1106 0.929 . S
H1103 C1112 0.929 . S
C1104 H1098 0.930 . S
C1104 C1105 1.367 . S
C1104 C1112 1.378 . S
C1105 C1104 1.367 . S
C1105 C1113 1.433 . S
C1106 H1102 0.929 . S
C1106 C1108 1.378 1_554 S
C1106 C1110 1.350 . S
C1107 C1110 1.463 . S
C1107 C1112 1.350 . S
C1107 N1115 1.427 . S
C1108 H1099 0.930 . S
C1108 C1106 1.378 1_556 S
C1108 C1109 1.367 . S
C1109 C1108 1.367 . S
C1109 C1111 1.433 1_556 S
C1110 C1106 1.350 . S
C1110 C1107 1.463 . S
C1110 N1114 1.427 . S
C1111 H1101 0.929 1_554 S
C1111 C1109 1.433 1_554 S
C1111 N1114 1.384 . S
C1112 H1103 0.929 . S
C1112 C1104 1.378 . S
C1112 C1107 1.350 . S
C1113 H1100 0.929 . S
C1113 C1105 1.433 . S
C1113 N1115 1.384 . S
N1114 C1110 1.427 . S
N1114 C1111 1.384 . S
N1115 C1107 1.427 . S
N1115 C1113 1.384 . S
H1116 C1122 0.940 . S
H1117 C1126 0.930 . S
H1118 C1131 0.929 1_556 S
H1119 C1129 0.929 . S
H1120 C1124 0.929 . S
H1121 C1130 0.929 . S
C1122 H1116 0.940 . S
C1122 C1123 1.373 . S
C1122 C1130 1.362 1_556 S
C1123 C1122 1.373 . S
C1123 C1131 1.433 1_556 S
C1124 H1120 0.929 . S
C1124 C1126 1.378 . S
C1124 C1128 1.350 . S
C1125 C1128 1.463 . S
C1125 C1130 1.350 . S
C1125 N1133 1.427 . S
C1126 H1117 0.930 . S
C1126 C1124 1.378 . S
C1126 C1127 1.367 . S
C1127 C1126 1.367 . S
C1127 C1129 1.433 . S
C1128 C1124 1.350 . S
C1128 C1125 1.463 . S
C1128 N1132 1.427 . S
C1129 H1119 0.929 . S
C1129 C1127 1.433 . S
C1129 N1132 1.384 . S
C1130 H1121 0.929 . S
C1130 C1122 1.362 1_554 S
C1130 C1125 1.350 . S
C1131 H1118 0.929 1_554 S
C1131 C1123 1.433 1_554 S
C1131 N1133 1.384 . S
N1132 C1128 1.427 . S
N1132 C1129 1.384 . S
N1133 C1125 1.427 . S
N1133 C1131 1.384 . S
H1134 C1140 0.930 . S
H1135 C1144 0.930 1_556 S
H1136 C1149 0.929 . S
H1137 C1147 0.925 1_556 S
H1138 C1142 0.929 . S
H1139 C1148 0.929 . S
C1140 H1134 0.930 . S
C1140 C1141 1.367 . S
C1140 C1148 1.378 . S
C1141 C1140 1.367 . S
C1141 C1149 1.433 . S
C1142 H1138 0.929 . S
C1142 C1144 1.378 . S
C1142 C1146 1.350 . S
C1143 C1146 1.463 . S
C1143 C1148 1.350 . S
C1143 N1151 1.427 . S
C1144 H1135 0.930 1_554 S
C1144 C1142 1.378 . S
C1144 C1145 1.367 1_554 S
C1145 C1144 1.367 1_556 S
C1145 C1147 1.430 1_556 S
C1146 C1142 1.350 . S
C1146 C1143 1.463 . S
C1146 N1150 1.427 . S
C1147 H1137 0.925 1_554 S
C1147 C1145 1.430 1_554 S
C1147 N1150 1.391 . S
C1148 H1139 0.929 . S
C1148 C1140 1.378 . S
C1148 C1143 1.350 . S
C1149 H1136 0.929 . S
C1149 C1141 1.433 . S
C1149 N1151 1.384 . S
N1150 C1146 1.427 . S
N1150 C1147 1.391 . S
N1151 C1143 1.427 . S
N1151 C1149 1.384 . S
H1152 C1158 0.930 . S
H1153 C1162 0.930 . S
H1154 C1167 0.929 . S
H1155 C1165 0.929 . S
H1156 C1160 0.929 . S
H1157 C1166 0.929 . S
C1158 H1152 0.930 . S
C1158 C1159 1.367 . S
C1158 C1166 1.378 . S
C1159 C1158 1.367 . S
C1159 C1167 1.433 . S
C1160 H1156 0.929 . S
C1160 C1162 1.378 . S
C1160 C1164 1.350 . S
C1161 C1164 1.463 . S
C1161 C1166 1.350 . S
C1161 N1169 1.427 . S
C1162 H1153 0.930 . S
C1162 C1160 1.378 . S
C1162 C1163 1.367 . S
C1163 C1162 1.367 . S
C1163 C1165 1.433 . S
C1164 C1160 1.350 . S
C1164 C1161 1.463 . S
C1164 N1168 1.427 . S
C1165 H1155 0.929 . S
C1165 C1163 1.433 . S
C1165 N1168 1.384 . S
C1166 H1157 0.929 . S
C1166 C1158 1.378 . S
C1166 C1161 1.350 . S
C1167 H1154 0.929 . S
C1167 C1159 1.433 . S
C1167 N1169 1.384 . S
N1168 C1164 1.427 . S
N1168 C1165 1.384 . S
N1169 C1161 1.427 . S
N1169 C1167 1.384 . S
H1170 C1176 0.930 . S
H1171 C1180 0.930 . S
H1172 C1185 0.929 . S
H1173 C1183 0.929 . S
H1174 C1178 0.929 . S
H1175 C1184 0.929 . S
C1176 H1170 0.930 . S
C1176 C1177 1.367 . S
C1176 C1184 1.378 . S
C1177 C1176 1.367 . S
C1177 C1185 1.433 . S
C1178 H1174 0.929 . S
C1178 C1180 1.378 . S
C1178 C1182 1.350 . S
C1179 C1182 1.463 1_565 S
C1179 C1184 1.350 . S
C1179 N1187 1.427 . S
C1180 H1171 0.930 . S
C1180 C1178 1.378 . S
C1180 C1181 1.367 . S
C1181 C1180 1.367 . S
C1181 C1183 1.433 . S
C1182 C1178 1.350 . S
C1182 C1179 1.463 1_545 S
C1182 N1186 1.427 . S
C1183 H1173 0.929 . S
C1183 C1181 1.433 . S
C1183 N1186 1.384 . S
C1184 H1175 0.929 . S
C1184 C1176 1.378 . S
C1184 C1179 1.350 . S
C1185 H1172 0.929 . S
C1185 C1177 1.433 . S
C1185 N1187 1.384 . S
N1186 C1182 1.427 . S
N1186 C1183 1.384 . S
N1187 C1179 1.427 . S
N1187 C1185 1.384 . S
H1188 C1194 0.930 . S
H1189 C1198 0.930 . S
H1190 C1203 0.929 . S
H1191 C1201 0.929 . S
H1192 C1196 0.929 . S
H1193 C1202 0.929 . S
C1194 H1188 0.930 . S
C1194 C1195 1.367 . S
C1194 C1202 1.378 . S
C1195 C1194 1.367 . S
C1195 C1203 1.433 . S
C1196 H1192 0.929 . S
C1196 C1198 1.378 . S
C1196 C1200 1.350 . S
C1197 C1200 1.463 1_655 S
C1197 C1202 1.350 . S
C1197 N1205 1.427 . S
C1198 H1189 0.930 . S
C1198 C1196 1.378 . S
C1198 C1199 1.367 . S
C1199 C1198 1.367 . S
C1199 C1201 1.433 . S
C1200 C1196 1.350 . S
C1200 C1197 1.463 1_455 S
C1200 N1204 1.427 . S
C1201 H1191 0.929 . S
C1201 C1199 1.433 . S
C1201 N1204 1.384 . S
C1202 H1193 0.929 . S
C1202 C1194 1.378 . S
C1202 C1197 1.350 . S
C1203 H1190 0.929 . S
C1203 C1195 1.433 . S
C1203 N1205 1.384 . S
N1204 C1200 1.427 . S
N1204 C1201 1.384 . S
N1205 C1197 1.427 . S
N1205 C1203 1.384 . S
H1206 C1212 0.930 . S
H1207 C1216 0.930 . S
H1208 C1221 0.929 . S
H1209 C1219 0.929 . S
H1210 C1214 0.929 . S
H1211 C1220 0.929 . S
C1212 H1206 0.930 . S
C1212 C1213 1.367 . S
C1212 C1220 1.378 . S
C1213 C1212 1.367 . S
C1213 C1221 1.433 . S
C1214 H1210 0.929 . S
C1214 C1216 1.378 . S
C1214 C1218 1.350 . S
C1215 C1218 1.463 . S
C1215 C1220 1.350 . S
C1215 N1223 1.427 . S
C1216 H1207 0.930 . S
C1216 C1214 1.378 . S
C1216 C1217 1.367 . S
C1217 C1216 1.367 . S
C1217 C1219 1.433 . S
C1218 C1214 1.350 . S
C1218 C1215 1.463 . S
C1218 N1222 1.427 . S
C1219 H1209 0.929 . S
C1219 C1217 1.433 . S
C1219 N1222 1.384 . S
C1220 H1211 0.929 . S
C1220 C1212 1.378 . S
C1220 C1215 1.350 . S
C1221 H1208 0.929 . S
C1221 C1213 1.433 . S
C1221 N1223 1.384 . S
N1222 C1218 1.427 . S
N1222 C1219 1.384 . S
N1223 C1215 1.427 . S
N1223 C1221 1.384 . S
H1224 C1230 0.930 . S
H1225 C1234 0.930 . S
H1226 C1239 0.929 . S
H1227 C1237 0.929 . S
H1228 C1232 0.929 . S
H1229 C1238 0.929 . S
C1230 H1224 0.930 . S
C1230 C1231 1.367 . S
C1230 C1238 1.378 . S
C1231 C1230 1.367 . S
C1231 C1239 1.433 . S
C1232 H1228 0.929 . S
C1232 C1234 1.378 . S
C1232 C1236 1.350 . S
C1233 C1236 1.463 1_545 S
C1233 C1238 1.350 . S
C1233 N1241 1.427 . S
C1234 H1225 0.930 . S
C1234 C1232 1.378 . S
C1234 C1235 1.367 . S
C1235 C1234 1.367 . S
C1235 C1237 1.433 . S
C1236 C1232 1.350 . S
C1236 C1233 1.463 1_565 S
C1236 N1240 1.427 . S
C1237 H1227 0.929 . S
C1237 C1235 1.433 . S
C1237 N1240 1.384 . S
C1238 H1229 0.929 . S
C1238 C1230 1.378 . S
C1238 C1233 1.350 . S
C1239 H1226 0.929 . S
C1239 C1231 1.433 . S
C1239 N1241 1.384 . S
N1240 C1236 1.427 . S
N1240 C1237 1.384 . S
N1241 C1233 1.427 . S
N1241 C1239 1.384 . S
H1242 C1248 0.930 . S
H1243 C1252 0.930 . S
H1244 C1257 0.929 . S
H1245 C1255 0.929 . S
H1246 C1250 0.929 . S
H1247 C1256 0.929 . S
C1248 H1242 0.930 . S
C1248 C1249 1.367 . S
C1248 C1256 1.378 . S
C1249 C1248 1.367 . S
C1249 C1257 1.433 . S
C1250 H1246 0.929 . S
C1250 C1252 1.378 . S
C1250 C1254 1.350 . S
C1251 C1254 1.463 1_655 S
C1251 C1256 1.350 . S
C1251 N1259 1.427 . S
C1252 H1243 0.930 . S
C1252 C1250 1.378 . S
C1252 C1253 1.367 . S
C1253 C1252 1.367 . S
C1253 C1255 1.433 . S
C1254 C1250 1.350 . S
C1254 C1251 1.463 1_455 S
C1254 N1258 1.427 . S
C1255 H1245 0.929 . S
C1255 C1253 1.433 . S
C1255 N1258 1.384 . S
C1256 H1247 0.929 . S
C1256 C1248 1.378 . S
C1256 C1251 1.350 . S
C1257 H1244 0.929 . S
C1257 C1249 1.433 . S
C1257 N1259 1.384 . S
N1258 C1254 1.427 . S
N1258 C1255 1.384 . S
N1259 C1251 1.427 . S
N1259 C1257 1.384 . S
H1260 C1266 0.930 . S
H1261 C1270 0.930 . S
H1262 C1275 0.929 . S
H1263 C1273 0.929 . S
H1264 C1268 0.929 . S
H1265 C1274 0.929 . S
C1266 H1260 0.930 . S
C1266 C1267 1.367 . S
C1266 C1274 1.378 . S
C1267 C1266 1.367 . S
C1267 C1275 1.433 . S
C1268 H1264 0.929 . S
C1268 C1270 1.378 . S
C1268 C1272 1.350 . S
C1269 C1272 1.463 . S
C1269 C1274 1.350 . S
C1269 N1277 1.427 . S
C1270 H1261 0.930 . S
C1270 C1268 1.378 . S
C1270 C1271 1.367 . S
C1271 C1270 1.367 . S
C1271 C1273 1.433 . S
C1272 C1268 1.350 . S
C1272 C1269 1.463 . S
C1272 N1276 1.427 . S
C1273 H1263 0.929 . S
C1273 C1271 1.433 . S
C1273 N1276 1.384 . S
C1274 H1265 0.929 . S
C1274 C1266 1.378 . S
C1274 C1269 1.350 . S
C1275 H1262 0.929 . S
C1275 C1267 1.433 . S
C1275 N1277 1.384 . S
N1276 C1272 1.427 . S
N1276 C1273 1.384 . S
N1277 C1269 1.427 . S
N1277 C1275 1.384 . S
H1278 C1284 0.930 . S
H1279 C1288 0.930 . S
H1280 C1293 0.929 . S
H1281 C1291 0.929 . S
H1282 C1286 0.929 . S
H1283 C1292 0.929 . S
C1284 H1278 0.930 . S
C1284 C1285 1.367 . S
C1284 C1292 1.378 . S
C1285 C1284 1.367 . S
C1285 C1293 1.433 . S
C1286 H1282 0.929 . S
C1286 C1288 1.378 . S
C1286 C1290 1.350 . S
C1287 C1290 1.463 . S
C1287 C1292 1.350 . S
C1287 N1295 1.427 . S
C1288 H1279 0.930 . S
C1288 C1286 1.378 . S
C1288 C1289 1.367 . S
C1289 C1288 1.367 . S
C1289 C1291 1.433 . S
C1290 C1286 1.350 . S
C1290 C1287 1.463 . S
C1290 N1294 1.427 . S
C1291 H1281 0.929 . S
C1291 C1289 1.433 . S
C1291 N1294 1.384 . S
C1292 H1283 0.929 . S
C1292 C1284 1.378 . S
C1292 C1287 1.350 . S
C1293 H1280 0.929 . S
C1293 C1285 1.433 . S
C1293 N1295 1.384 . S
N1294 C1290 1.427 . S
N1294 C1291 1.384 . S
N1295 C1287 1.427 . S
N1295 C1293 1.384 . S
H1296 C1302 0.930 . S
H1297 C1306 0.930 . S
H1298 C1311 0.929 . S
H1299 C1309 0.929 . S
H1300 C1304 0.929 . S
H1301 C1310 0.929 . S
C1302 H1296 0.930 . S
C1302 C1303 1.367 . S
C1302 C1310 1.378 . S
C1303 C1302 1.367 . S
C1303 C1311 1.433 . S
C1304 H1300 0.929 . S
C1304 C1306 1.378 . S
C1304 C1308 1.350 . S
C1305 C1308 1.463 . S
C1305 C1310 1.350 . S
C1305 N1313 1.427 . S
C1306 H1297 0.930 . S
C1306 C1304 1.378 . S
C1306 C1307 1.367 . S
C1307 C1306 1.367 . S
C1307 C1309 1.433 . S
C1308 C1304 1.350 . S
C1308 C1305 1.463 . S
C1308 N1312 1.427 . S
C1309 H1299 0.929 . S
C1309 C1307 1.433 . S
C1309 N1312 1.384 . S
C1310 H1301 0.929 . S
C1310 C1302 1.378 . S
C1310 C1305 1.350 . S
C1311 H1298 0.929 . S
C1311 C1303 1.433 . S
C1311 N1313 1.384 . S
N1312 C1308 1.427 . S
N1312 C1309 1.384 . S
N1313 C1305 1.427 . S
N1313 C1311 1.384 . S
H1314 C1320 0.930 . S
H1315 C1324 0.930 1_556 S
H1316 C1329 0.929 . S
H1317 C1327 0.929 . S
H1318 C1322 0.929 . S
H1319 C1328 0.929 . S
C1320 H1314 0.930 . S
C1320 C1321 1.367 . S
C1320 C1328 1.378 . S
C1321 C1320 1.367 . S
C1321 C1329 1.433 . S
C1322 H1318 0.929 . S
C1322 C1324 1.378 . S
C1322 C1326 1.350 . S
C1323 C1326 1.463 . S
C1323 C1328 1.350 . S
C1323 N1331 1.427 . S
C1324 H1315 0.930 1_554 S
C1324 C1322 1.378 . S
C1324 C1325 1.367 . S
C1325 C1324 1.367 . S
C1325 C1327 1.433 . S
C1326 C1322 1.350 . S
C1326 C1323 1.463 . S
C1326 N1330 1.427 . S
C1327 H1317 0.929 . S
C1327 C1325 1.433 . S
C1327 N1330 1.384 . S
C1328 H1319 0.929 . S
C1328 C1320 1.378 . S
C1328 C1323 1.350 . S
C1329 H1316 0.929 . S
C1329 C1321 1.433 . S
C1329 N1331 1.384 . S
N1330 C1326 1.427 . S
N1330 C1327 1.384 . S
N1331 C1323 1.427 . S
N1331 C1329 1.384 . S
H1332 C1338 0.930 . S
H1333 C1342 0.930 . S
H1334 C1347 0.929 1_556 S
H1335 C1345 0.929 . S
H1336 C1340 0.929 . S
H1337 C1346 0.929 . S
C1338 H1332 0.930 . S
C1338 C1339 1.367 . S
C1338 C1346 1.378 . S
C1339 C1338 1.367 . S
C1339 C1347 1.433 . S
C1340 H1336 0.929 . S
C1340 C1342 1.378 . S
C1340 C1344 1.350 . S
C1341 C1344 1.463 . S
C1341 C1346 1.350 . S
C1341 N1349 1.427 . S
C1342 H1333 0.930 . S
C1342 C1340 1.378 . S
C1342 C1343 1.367 . S
C1343 C1342 1.367 . S
C1343 C1345 1.433 . S
C1344 C1340 1.350 . S
C1344 C1341 1.463 . S
C1344 N1348 1.427 . S
C1345 H1335 0.929 . S
C1345 C1343 1.433 . S
C1345 N1348 1.384 . S
C1346 H1337 0.929 . S
C1346 C1338 1.378 . S
C1346 C1341 1.350 . S
C1347 H1334 0.929 1_554 S
C1347 C1339 1.433 . S
C1347 N1349 1.384 . S
N1348 C1344 1.427 . S
N1348 C1345 1.384 . S
N1349 C1341 1.427 . S
N1349 C1347 1.384 . S
H1350 C1356 0.930 . S
H1351 C1360 0.930 . S
H1352 C1365 0.929 . S
H1353 C1363 0.929 1_556 S
H1354 C1358 0.929 . S
H1355 C1364 0.929 . S
C1356 H1350 0.930 . S
C1356 C1357 1.367 . S
C1356 C1364 1.378 . S
C1357 C1356 1.367 . S
C1357 C1365 1.433 . S
C1358 H1354 0.929 . S
C1358 C1360 1.378 . S
C1358 C1362 1.350 . S
C1359 C1362 1.463 . S
C1359 C1364 1.350 . S
C1359 N1367 1.427 . S
C1360 H1351 0.930 . S
C1360 C1358 1.378 . S
C1360 C1361 1.367 . S
C1361 C1360 1.367 . S
C1361 C1363 1.433 . S
C1362 C1358 1.350 . S
C1362 C1359 1.463 . S
C1362 N1366 1.427 . S
C1363 H1353 0.929 1_554 S
C1363 C1361 1.433 . S
C1363 N1366 1.384 . S
C1364 H1355 0.929 . S
C1364 C1356 1.378 . S
C1364 C1359 1.350 . S
C1365 H1352 0.929 . S
C1365 C1357 1.433 . S
C1365 N1367 1.384 . S
N1366 C1362 1.427 . S
N1366 C1363 1.384 . S
N1367 C1359 1.427 . S
N1367 C1365 1.384 . S
H1368 C1374 0.930 . S
H1369 C1378 0.930 . S
H1370 C1383 0.929 . S
H1371 C1381 0.929 . S
H1372 C1376 0.929 . S
H1373 C1382 0.929 . S
C1374 H1368 0.930 . S
C1374 C1375 1.367 . S
C1374 C1382 1.378 . S
C1375 C1374 1.367 . S
C1375 C1383 1.433 . S
C1376 H1372 0.929 . S
C1376 C1378 1.378 . S
C1376 C1380 1.350 . S
C1377 C1380 1.463 . S
C1377 C1382 1.350 . S
C1377 N1385 1.427 . S
C1378 H1369 0.930 . S
C1378 C1376 1.378 . S
C1378 C1379 1.367 . S
C1379 C1378 1.367 . S
C1379 C1381 1.433 . S
C1380 C1376 1.350 . S
C1380 C1377 1.463 . S
C1380 N1384 1.427 . S
C1381 H1371 0.929 . S
C1381 C1379 1.433 . S
C1381 N1384 1.384 . S
C1382 H1373 0.929 . S
C1382 C1374 1.378 . S
C1382 C1377 1.350 . S
C1383 H1370 0.929 . S
C1383 C1375 1.433 . S
C1383 N1385 1.384 . S
N1384 C1380 1.427 . S
N1384 C1381 1.384 . S
N1385 C1377 1.427 . S
N1385 C1383 1.384 . S
H1386 C1392 0.930 . S
H1387 C1396 0.930 . S
H1388 C1401 0.929 1_554 S
H1389 C1399 0.929 . S
H1390 C1394 0.929 . S
H1391 C1400 0.929 . S
C1392 H1386 0.930 . S
C1392 C1393 1.367 . S
C1392 C1400 1.378 . S
C1393 C1392 1.367 . S
C1393 C1401 1.433 . S
C1394 H1390 0.929 . S
C1394 C1396 1.378 . S
C1394 C1398 1.350 . S
C1395 C1398 1.463 . S
C1395 C1400 1.350 . S
C1395 N1403 1.427 . S
C1396 H1387 0.930 . S
C1396 C1394 1.378 . S
C1396 C1397 1.367 . S
C1397 C1396 1.367 . S
C1397 C1399 1.433 . S
C1398 C1394 1.350 . S
C1398 C1395 1.463 . S
C1398 N1402 1.427 . S
C1399 H1389 0.929 . S
C1399 C1397 1.433 . S
C1399 N1402 1.384 . S
C1400 H1391 0.929 . S
C1400 C1392 1.378 . S
C1400 C1395 1.350 . S
C1401 H1388 0.929 1_556 S
C1401 C1393 1.433 . S
C1401 N1403 1.384 . S
N1402 C1398 1.427 . S
N1402 C1399 1.384 . S
N1403 C1395 1.427 . S
N1403 C1401 1.384 . S
H1404 C1410 0.930 . S
H1405 C1414 0.930 1_554 S
H1406 C1419 0.929 . S
H1407 C1417 0.929 . S
H1408 C1412 0.929 . S
H1409 C1418 0.929 . S
C1410 H1404 0.930 . S
C1410 C1411 1.367 . S
C1410 C1418 1.378 . S
C1411 C1410 1.367 . S
C1411 C1419 1.433 . S
C1412 H1408 0.929 . S
C1412 C1414 1.378 . S
C1412 C1416 1.350 . S
C1413 C1416 1.463 . S
C1413 C1418 1.350 . S
C1413 N1421 1.427 . S
C1414 H1405 0.930 1_556 S
C1414 C1412 1.378 . S
C1414 C1415 1.367 . S
C1415 C1414 1.367 . S
C1415 C1417 1.433 . S
C1416 C1412 1.350 . S
C1416 C1413 1.463 . S
C1416 N1420 1.427 . S
C1417 H1407 0.929 . S
C1417 C1415 1.433 . S
C1417 N1420 1.384 . S
C1418 H1409 0.929 . S
C1418 C1410 1.378 . S
C1418 C1413 1.350 . S
C1419 H1406 0.929 . S
C1419 C1411 1.433 . S
C1419 N1421 1.384 . S
N1420 C1416 1.427 . S
N1420 C1417 1.384 . S
N1421 C1413 1.427 . S
N1421 C1419 1.384 . S
H1422 C1428 0.930 . S
H1423 C1432 0.930 . S
H1424 C1437 0.929 . S
H1425 C1435 0.929 . S
H1426 C1430 0.929 . S
H1427 C1436 0.929 . S
C1428 H1422 0.930 . S
C1428 C1429 1.367 . S
C1428 C1436 1.378 . S
C1429 C1428 1.367 . S
C1429 C1437 1.433 . S
C1430 H1426 0.929 . S
C1430 C1432 1.378 . S
C1430 C1434 1.350 . S
C1431 C1434 1.463 . S
C1431 C1436 1.350 . S
C1431 N1439 1.427 . S
C1432 H1423 0.930 . S
C1432 C1430 1.378 . S
C1432 C1433 1.367 . S
C1433 C1432 1.367 . S
C1433 C1435 1.433 . S
C1434 C1430 1.350 . S
C1434 C1431 1.463 . S
C1434 N1438 1.427 . S
C1435 H1425 0.929 . S
C1435 C1433 1.433 . S
C1435 N1438 1.384 . S
C1436 H1427 0.929 . S
C1436 C1428 1.378 . S
C1436 C1431 1.350 . S
C1437 H1424 0.929 . S
C1437 C1429 1.433 . S
C1437 N1439 1.384 . S
N1438 C1434 1.427 . S
N1438 C1435 1.384 . S
N1439 C1431 1.427 . S
N1439 C1437 1.384 . S
H1440 C1446 0.930 . S
H1441 C1450 0.930 . S
H1442 C1455 0.929 . S
H1443 C1453 0.929 . S
H1444 C1448 0.929 . S
H1445 C1454 0.929 . S
C1446 H1440 0.930 . S
C1446 C1447 1.367 . S
C1446 C1454 1.378 . S
C1447 C1446 1.367 . S
C1447 C1455 1.433 . S
C1448 H1444 0.929 . S
C1448 C1450 1.378 . S
C1448 C1452 1.350 . S
C1449 C1452 1.463 . S
C1449 C1454 1.350 . S
C1449 N1457 1.427 . S
C1450 H1441 0.930 . S
C1450 C1448 1.378 . S
C1450 C1451 1.367 . S
C1451 C1450 1.367 . S
C1451 C1453 1.433 . S
C1452 C1448 1.350 . S
C1452 C1449 1.463 . S
C1452 N1456 1.427 . S
C1453 H1443 0.929 . S
C1453 C1451 1.433 . S
C1453 N1456 1.384 . S
C1454 H1445 0.929 . S
C1454 C1446 1.378 . S
C1454 C1449 1.350 . S
C1455 H1442 0.929 . S
C1455 C1447 1.433 . S
C1455 N1457 1.384 . S
N1456 C1452 1.427 . S
N1456 C1453 1.384 . S
N1457 C1449 1.427 . S
N1457 C1455 1.384 . S
H1458 C1464 0.930 . S
H1459 C1468 0.930 . S
H1460 C1473 0.929 . S
H1461 C1471 0.929 . S
H1462 C1466 0.929 . S
H1463 C1472 0.929 . S
C1464 H1458 0.930 . S
C1464 C1465 1.367 . S
C1464 C1472 1.378 . S
C1465 C1464 1.367 . S
C1465 C1473 1.433 . S
C1466 H1462 0.929 . S
C1466 C1468 1.378 . S
C1466 C1470 1.350 . S
C1467 C1470 1.463 . S
C1467 C1472 1.350 . S
C1467 N1475 1.427 . S
C1468 H1459 0.930 . S
C1468 C1466 1.378 . S
C1468 C1469 1.367 . S
C1469 C1468 1.367 . S
C1469 C1471 1.433 . S
C1470 C1466 1.350 . S
C1470 C1467 1.463 . S
C1470 N1474 1.427 . S
C1471 H1461 0.929 . S
C1471 C1469 1.433 . S
C1471 N1474 1.384 . S
C1472 H1463 0.929 . S
C1472 C1464 1.378 . S
C1472 C1467 1.350 . S
C1473 H1460 0.929 . S
C1473 C1465 1.433 . S
C1473 N1475 1.384 . S
N1474 C1470 1.427 . S
N1474 C1471 1.384 . S
N1475 C1467 1.427 . S
N1475 C1473 1.384 . S
H1476 C1482 0.930 . S
H1477 C1486 0.930 . S
H1478 C1491 0.929 . S
H1479 C1489 0.929 . S
H1480 C1484 0.929 . S
H1481 C1490 0.929 . S
C1482 H1476 0.930 . S
C1482 C1483 1.367 . S
C1482 C1490 1.378 . S
C1483 C1482 1.367 . S
C1483 C1491 1.433 . S
C1484 H1480 0.929 . S
C1484 C1486 1.378 . S
C1484 C1488 1.350 . S
C1485 C1488 1.463 . S
C1485 C1490 1.350 . S
C1485 N1493 1.427 . S
C1486 H1477 0.930 . S
C1486 C1484 1.378 . S
C1486 C1487 1.367 . S
C1487 C1486 1.367 . S
C1487 C1489 1.433 . S
C1488 C1484 1.350 . S
C1488 C1485 1.463 . S
C1488 N1492 1.427 . S
C1489 H1479 0.929 . S
C1489 C1487 1.433 . S
C1489 N1492 1.384 . S
C1490 H1481 0.929 . S
C1490 C1482 1.378 . S
C1490 C1485 1.350 . S
C1491 H1478 0.929 . S
C1491 C1483 1.433 . S
C1491 N1493 1.384 . S
N1492 C1488 1.427 . S
N1492 C1489 1.384 . S
N1493 C1485 1.427 . S
N1493 C1491 1.384 . S
H1494 C1500 0.930 . S
H1495 C1504 0.930 . S
H1496 C1509 0.929 . S
H1497 C1507 0.929 . S
H1498 C1502 0.929 . S
H1499 C1508 0.929 . S
C1500 H1494 0.930 . S
C1500 C1501 1.367 . S
C1500 C1508 1.378 . S
C1501 C1500 1.367 . S
C1501 C1509 1.433 . S
C1502 H1498 0.929 . S
C1502 C1504 1.378 . S
C1502 C1506 1.350 . S
C1503 C1506 1.463 . S
C1503 C1508 1.350 . S
C1503 N1511 1.427 . S
C1504 H1495 0.930 . S
C1504 C1502 1.378 . S
C1504 C1505 1.367 . S
C1505 C1504 1.367 . S
C1505 C1507 1.433 . S
C1506 C1502 1.350 . S
C1506 C1503 1.463 . S
C1506 N1510 1.427 . S
C1507 H1497 0.929 . S
C1507 C1505 1.433 . S
C1507 N1510 1.384 . S
C1508 H1499 0.929 . S
C1508 C1500 1.378 . S
C1508 C1503 1.350 . S
C1509 H1496 0.929 . S
C1509 C1501 1.433 . S
C1509 N1511 1.384 . S
N1510 C1506 1.427 . S
N1510 C1507 1.384 . S
N1511 C1503 1.427 . S
N1511 C1509 1.384 . S
H1512 C1518 0.930 . S
H1513 C1522 0.930 . S
H1514 C1527 0.929 . S
H1515 C1525 0.929 . S
H1516 C1520 0.929 . S
H1517 C1526 0.929 . S
C1518 H1512 0.930 . S
C1518 C1519 1.367 . S
C1518 C1526 1.378 . S
C1519 C1518 1.367 . S
C1519 C1527 1.433 . S
C1520 H1516 0.929 . S
C1520 C1522 1.378 . S
C1520 C1524 1.350 . S
C1521 C1524 1.463 . S
C1521 C1526 1.350 . S
C1521 N1529 1.427 . S
C1522 H1513 0.930 . S
C1522 C1520 1.378 . S
C1522 C1523 1.367 . S
C1523 C1522 1.367 . S
C1523 C1525 1.433 . S
C1524 C1520 1.350 . S
C1524 C1521 1.463 . S
C1524 N1528 1.427 . S
C1525 H1515 0.929 . S
C1525 C1523 1.433 . S
C1525 N1528 1.384 . S
C1526 H1517 0.929 . S
C1526 C1518 1.378 . S
C1526 C1521 1.350 . S
C1527 H1514 0.929 . S
C1527 C1519 1.433 . S
C1527 N1529 1.384 . S
N1528 C1524 1.427 . S
N1528 C1525 1.384 . S
N1529 C1521 1.427 . S
N1529 C1527 1.384 . S
H1530 C1536 0.930 . S
H1531 C1540 0.930 . S
H1532 C1545 0.929 . S
H1533 C1543 0.929 . S
H1534 C1538 0.929 . S
H1535 C1544 0.929 . S
C1536 H1530 0.930 . S
C1536 C1537 1.367 . S
C1536 C1544 1.378 . S
C1537 C1536 1.367 . S
C1537 C1545 1.433 . S
C1538 H1534 0.929 . S
C1538 C1540 1.378 . S
C1538 C1542 1.350 . S
C1539 C1542 1.463 . S
C1539 C1544 1.350 . S
C1539 N1547 1.427 . S
C1540 H1531 0.930 . S
C1540 C1538 1.378 . S
C1540 C1541 1.367 . S
C1541 C1540 1.367 . S
C1541 C1543 1.433 . S
C1542 C1538 1.350 . S
C1542 C1539 1.463 . S
C1542 N1546 1.427 . S
C1543 H1533 0.929 . S
C1543 C1541 1.433 . S
C1543 N1546 1.384 . S
C1544 H1535 0.929 . S
C1544 C1536 1.378 . S
C1544 C1539 1.350 . S
C1545 H1532 0.929 . S
C1545 C1537 1.433 . S
C1545 N1547 1.384 . S
N1546 C1542 1.427 . S
N1546 C1543 1.384 . S
N1547 C1539 1.427 . S
N1547 C1545 1.384 . S
H1548 C1554 0.930 . S
H1549 C1558 0.930 . S
H1550 C1563 0.929 . S
H1551 C1561 0.929 . S
H1552 C1556 0.929 . S
H1553 C1562 0.929 . S
C1554 H1548 0.930 . S
C1554 C1555 1.367 . S
C1554 C1562 1.378 . S
C1555 C1554 1.367 . S
C1555 C1563 1.433 . S
C1556 H1552 0.929 . S
C1556 C1558 1.378 . S
C1556 C1560 1.350 . S
C1557 C1560 1.463 . S
C1557 C1562 1.350 . S
C1557 N1565 1.427 . S
C1558 H1549 0.930 . S
C1558 C1556 1.378 . S
C1558 C1559 1.367 . S
C1559 C1558 1.367 . S
C1559 C1561 1.433 . S
C1560 C1556 1.350 . S
C1560 C1557 1.463 . S
C1560 N1564 1.427 . S
C1561 H1551 0.929 . S
C1561 C1559 1.433 . S
C1561 N1564 1.384 . S
C1562 H1553 0.929 . S
C1562 C1554 1.378 . S
C1562 C1557 1.350 . S
C1563 H1550 0.929 . S
C1563 C1555 1.433 . S
C1563 N1565 1.384 . S
N1564 C1560 1.427 . S
N1564 C1561 1.384 . S
N1565 C1557 1.427 . S
N1565 C1563 1.384 . S
H1566 C1572 0.930 . S
H1567 C1576 0.930 . S
H1568 C1581 0.929 . S
H1569 C1579 0.929 . S
H1570 C1574 0.929 . S
H1571 C1580 0.929 . S
C1572 H1566 0.930 . S
C1572 C1573 1.367 . S
C1572 C1580 1.378 . S
C1573 C1572 1.367 . S
C1573 C1581 1.433 . S
C1574 H1570 0.929 . S
C1574 C1576 1.378 . S
C1574 C1578 1.350 . S
C1575 C1578 1.463 . S
C1575 C1580 1.350 . S
C1575 N1583 1.427 . S
C1576 H1567 0.930 . S
C1576 C1574 1.378 . S
C1576 C1577 1.367 . S
C1577 C1576 1.367 . S
C1577 C1579 1.433 . S
C1578 C1574 1.350 . S
C1578 C1575 1.463 . S
C1578 N1582 1.427 . S
C1579 H1569 0.929 . S
C1579 C1577 1.433 . S
C1579 N1582 1.384 . S
C1580 H1571 0.929 . S
C1580 C1572 1.378 . S
C1580 C1575 1.350 . S
C1581 H1568 0.929 . S
C1581 C1573 1.433 . S
C1581 N1583 1.384 . S
N1582 C1578 1.427 . S
N1582 C1579 1.384 . S
N1583 C1575 1.427 . S
N1583 C1581 1.384 . S
H1584 C1590 0.930 . S
H1585 C1594 0.930 . S
H1586 C1599 0.929 . S
H1587 C1597 0.929 . S
H1588 C1592 0.929 . S
H1589 C1598 0.929 . S
C1590 H1584 0.930 . S
C1590 C1591 1.367 . S
C1590 C1598 1.378 . S
C1591 C1590 1.367 . S
C1591 C1599 1.433 . S
C1592 H1588 0.929 . S
C1592 C1594 1.378 . S
C1592 C1596 1.350 . S
C1593 C1596 1.463 . S
C1593 C1598 1.350 . S
C1593 N1601 1.427 . S
C1594 H1585 0.930 . S
C1594 C1592 1.378 . S
C1594 C1595 1.367 . S
C1595 C1594 1.367 . S
C1595 C1597 1.433 . S
C1596 C1592 1.350 . S
C1596 C1593 1.463 . S
C1596 N1600 1.427 . S
C1597 H1587 0.929 . S
C1597 C1595 1.433 . S
C1597 N1600 1.384 . S
C1598 H1589 0.929 . S
C1598 C1590 1.378 . S
C1598 C1593 1.350 . S
C1599 H1586 0.929 . S
C1599 C1591 1.433 . S
C1599 N1601 1.384 . S
N1600 C1596 1.427 . S
N1600 C1597 1.384 . S
N1601 C1593 1.427 . S
N1601 C1599 1.384 . S
H1602 C1608 0.930 . S
H1603 C1612 0.930 . S
H1604 C1617 0.929 . S
H1605 C1615 0.929 . S
H1606 C1610 0.929 . S
H1607 C1616 0.929 . S
C1608 H1602 0.930 . S
C1608 C1609 1.367 . S
C1608 C1616 1.378 . S
C1609 C1608 1.367 . S
C1609 C1617 1.433 . S
C1610 H1606 0.929 . S
C1610 C1612 1.378 . S
C1610 C1614 1.350 . S
C1611 C1614 1.463 . S
C1611 C1616 1.350 . S
C1611 N1619 1.427 . S
C1612 H1603 0.930 . S
C1612 C1610 1.378 . S
C1612 C1613 1.367 . S
C1613 C1612 1.367 . S
C1613 C1615 1.433 . S
C1614 C1610 1.350 . S
C1614 C1611 1.463 . S
C1614 N1618 1.427 . S
C1615 H1605 0.929 . S
C1615 C1613 1.433 . S
C1615 N1618 1.384 . S
C1616 H1607 0.929 . S
C1616 C1608 1.378 . S
C1616 C1611 1.350 . S
C1617 H1604 0.929 . S
C1617 C1609 1.433 . S
C1617 N1619 1.384 . S
N1618 C1614 1.427 . S
N1618 C1615 1.384 . S
N1619 C1611 1.427 . S
N1619 C1617 1.384 . S
H1620 C1626 0.930 . S
H1621 C1630 0.930 . S
H1622 C1635 0.929 . S
H1623 C1633 0.929 . S
H1624 C1628 0.929 . S
H1625 C1634 0.929 . S
C1626 H1620 0.930 . S
C1626 C1627 1.367 . S
C1626 C1634 1.378 . S
C1627 C1626 1.367 . S
C1627 C1635 1.433 . S
C1628 H1624 0.929 . S
C1628 C1630 1.378 . S
C1628 C1632 1.350 . S
C1629 C1632 1.463 . S
C1629 C1634 1.350 . S
C1629 N1637 1.427 . S
C1630 H1621 0.930 . S
C1630 C1628 1.378 . S
C1630 C1631 1.367 . S
C1631 C1630 1.367 . S
C1631 C1633 1.433 . S
C1632 C1628 1.350 . S
C1632 C1629 1.463 . S
C1632 N1636 1.427 . S
C1633 H1623 0.929 . S
C1633 C1631 1.433 . S
C1633 N1636 1.384 . S
C1634 H1625 0.929 . S
C1634 C1626 1.378 . S
C1634 C1629 1.350 . S
C1635 H1622 0.929 . S
C1635 C1627 1.433 . S
C1635 N1637 1.384 . S
N1636 C1632 1.427 . S
N1636 C1633 1.384 . S
N1637 C1629 1.427 . S
N1637 C1635 1.384 . S
H1638 C1644 0.930 . S
H1639 C1648 0.930 . S
H1640 C1653 0.929 . S
H1641 C1651 0.929 . S
H1642 C1646 0.929 . S
H1643 C1652 0.929 . S
C1644 H1638 0.930 . S
C1644 C1645 1.367 . S
C1644 C1652 1.378 . S
C1645 C1644 1.367 . S
C1645 C1653 1.433 . S
C1646 H1642 0.929 . S
C1646 C1648 1.378 . S
C1646 C1650 1.350 . S
C1647 C1650 1.463 . S
C1647 C1652 1.350 . S
C1647 N1655 1.427 . S
C1648 H1639 0.930 . S
C1648 C1646 1.378 . S
C1648 C1649 1.367 . S
C1649 C1648 1.367 . S
C1649 C1651 1.433 . S
C1650 C1646 1.350 . S
C1650 C1647 1.463 . S
C1650 N1654 1.427 . S
C1651 H1641 0.929 . S
C1651 C1649 1.433 . S
C1651 N1654 1.384 . S
C1652 H1643 0.929 . S
C1652 C1644 1.378 . S
C1652 C1647 1.350 . S
C1653 H1640 0.929 . S
C1653 C1645 1.433 . S
C1653 N1655 1.384 . S
N1654 C1650 1.427 . S
N1654 C1651 1.384 . S
N1655 C1647 1.427 . S
N1655 C1653 1.384 . S
H1656 C1662 0.930 . S
H1657 C1666 0.930 . S
H1658 C1671 0.929 . S
H1659 C1669 0.929 . S
H1660 C1664 0.929 . S
H1661 C1670 0.929 . S
C1662 H1656 0.930 . S
C1662 C1663 1.367 . S
C1662 C1670 1.378 . S
C1663 C1662 1.367 . S
C1663 C1671 1.433 . S
C1664 H1660 0.929 . S
C1664 C1666 1.378 . S
C1664 C1668 1.350 . S
C1665 C1668 1.463 . S
C1665 C1670 1.350 . S
C1665 N1673 1.427 . S
C1666 H1657 0.930 . S
C1666 C1664 1.378 . S
C1666 C1667 1.367 . S
C1667 C1666 1.367 . S
C1667 C1669 1.433 . S
C1668 C1664 1.350 . S
C1668 C1665 1.463 . S
C1668 N1672 1.427 . S
C1669 H1659 0.929 . S
C1669 C1667 1.433 . S
C1669 N1672 1.384 . S
C1670 H1661 0.929 . S
C1670 C1662 1.378 . S
C1670 C1665 1.350 . S
C1671 H1658 0.929 . S
C1671 C1663 1.433 . S
C1671 N1673 1.384 . S
N1672 C1668 1.427 . S
N1672 C1669 1.384 . S
N1673 C1665 1.427 . S
N1673 C1671 1.384 . S
H1674 C1680 0.930 . S
H1675 C1684 0.930 . S
H1676 C1689 0.929 . S
H1677 C1687 0.929 . S
H1678 C1682 0.929 . S
H1679 C1688 0.929 . S
C1680 H1674 0.930 . S
C1680 C1681 1.367 . S
C1680 C1688 1.378 . S
C1681 C1680 1.367 . S
C1681 C1689 1.433 . S
C1682 H1678 0.929 . S
C1682 C1684 1.378 . S
C1682 C1686 1.350 . S
C1683 C1686 1.463 . S
C1683 C1688 1.350 . S
C1683 N1691 1.427 . S
C1684 H1675 0.930 . S
C1684 C1682 1.378 . S
C1684 C1685 1.367 . S
C1685 C1684 1.367 . S
C1685 C1687 1.433 . S
C1686 C1682 1.350 . S
C1686 C1683 1.463 . S
C1686 N1690 1.427 . S
C1687 H1677 0.929 . S
C1687 C1685 1.433 . S
C1687 N1690 1.384 . S
C1688 H1679 0.929 . S
C1688 C1680 1.378 . S
C1688 C1683 1.350 . S
C1689 H1676 0.929 . S
C1689 C1681 1.433 . S
C1689 N1691 1.384 . S
N1690 C1686 1.427 . S
N1690 C1687 1.384 . S
N1691 C1683 1.427 . S
N1691 C1689 1.384 . S
H1692 C1698 0.930 . S
H1693 C1702 0.930 . S
H1694 C1707 0.929 . S
H1695 C1705 0.929 . S
H1696 C1700 0.929 . S
H1697 C1706 0.929 . S
C1698 H1692 0.930 . S
C1698 C1699 1.367 . S
C1698 C1706 1.378 . S
C1699 C1698 1.367 . S
C1699 C1707 1.433 . S
C1700 H1696 0.929 . S
C1700 C1702 1.378 . S
C1700 C1704 1.350 . S
C1701 C1704 1.463 1_455 S
C1701 C1706 1.350 . S
C1701 N1709 1.427 . S
C1702 H1693 0.930 . S
C1702 C1700 1.378 . S
C1702 C1703 1.367 . S
C1703 C1702 1.367 . S
C1703 C1705 1.433 . S
C1704 C1700 1.350 . S
C1704 C1701 1.463 1_655 S
C1704 N1708 1.427 . S
C1705 H1695 0.929 . S
C1705 C1703 1.433 . S
C1705 N1708 1.384 . S
C1706 H1697 0.929 . S
C1706 C1698 1.378 . S
C1706 C1701 1.350 . S
C1707 H1694 0.929 . S
C1707 C1699 1.433 . S
C1707 N1709 1.384 . S
N1708 C1704 1.427 . S
N1708 C1705 1.384 . S
N1709 C1701 1.427 . S
N1709 C1707 1.384 . S
H1710 C1716 0.930 . S
H1711 C1720 0.930 . S
H1712 C1725 0.929 . S
H1713 C1723 0.929 . S
H1714 C1718 0.929 . S
H1715 C1724 0.929 . S
C1716 H1710 0.930 . S
C1716 C1717 1.367 . S
C1716 C1724 1.378 . S
C1717 C1716 1.367 . S
C1717 C1725 1.433 . S
C1718 H1714 0.929 . S
C1718 C1720 1.378 . S
C1718 C1722 1.350 . S
C1719 C1722 1.463 . S
C1719 C1724 1.350 . S
C1719 N1727 1.427 . S
C1720 H1711 0.930 . S
C1720 C1718 1.378 . S
C1720 C1721 1.367 . S
C1721 C1720 1.367 . S
C1721 C1723 1.433 . S
C1722 C1718 1.350 . S
C1722 C1719 1.463 . S
C1722 N1726 1.427 . S
C1723 H1713 0.929 . S
C1723 C1721 1.433 . S
C1723 N1726 1.384 . S
C1724 H1715 0.929 . S
C1724 C1716 1.378 . S
C1724 C1719 1.350 . S
C1725 H1712 0.929 . S
C1725 C1717 1.433 . S
C1725 N1727 1.384 . S
N1726 C1722 1.427 . S
N1726 C1723 1.384 . S
N1727 C1719 1.427 . S
N1727 C1725 1.384 . S
H1728 C1734 0.930 . S
H1729 C1738 0.930 . S
H1730 C1743 0.929 . S
H1731 C1741 0.929 . S
H1732 C1736 0.929 . S
H1733 C1742 0.929 . S
C1734 H1728 0.930 . S
C1734 C1735 1.367 . S
C1734 C1742 1.378 . S
C1735 C1734 1.367 . S
C1735 C1743 1.433 . S
C1736 H1732 0.929 . S
C1736 C1738 1.378 . S
C1736 C1740 1.350 . S
C1737 C1740 1.463 1_545 S
C1737 C1742 1.350 . S
C1737 N1745 1.427 . S
C1738 H1729 0.930 . S
C1738 C1736 1.378 . S
C1738 C1739 1.367 . S
C1739 C1738 1.367 . S
C1739 C1741 1.433 . S
C1740 C1736 1.350 . S
C1740 C1737 1.463 1_565 S
C1740 N1744 1.427 . S
C1741 H1731 0.929 . S
C1741 C1739 1.433 . S
C1741 N1744 1.384 . S
C1742 H1733 0.929 . S
C1742 C1734 1.378 . S
C1742 C1737 1.350 . S
C1743 H1730 0.929 . S
C1743 C1735 1.433 . S
C1743 N1745 1.384 . S
N1744 C1740 1.427 . S
N1744 C1741 1.384 . S
N1745 C1737 1.427 . S
N1745 C1743 1.384 . S
H1746 C1752 0.930 . S
H1747 C1756 0.930 . S
H1748 C1761 0.929 . S
H1749 C1759 0.929 . S
H1750 C1754 0.929 . S
H1751 C1760 0.929 . S
C1752 H1746 0.930 . S
C1752 C1753 1.367 1_556 S
C1752 C1760 1.378 . S
C1753 C1752 1.367 1_554 S
C1753 C1761 1.433 . S
C1754 H1750 0.929 . S
C1754 C1756 1.378 . S
C1754 C1758 1.350 1_554 S
C1755 C1758 1.463 1_544 S
C1755 C1760 1.350 1_554 S
C1755 N1763 1.427 . S
C1756 H1747 0.930 . S
C1756 C1754 1.378 . S
C1756 C1757 1.367 1_554 S
C1757 C1756 1.367 1_556 S
C1757 C1759 1.433 . S
C1758 C1754 1.350 1_556 S
C1758 C1755 1.463 1_566 S
C1758 N1762 1.427 . S
C1759 H1749 0.929 . S
C1759 C1757 1.433 . S
C1759 N1762 1.384 . S
C1760 H1751 0.929 . S
C1760 C1752 1.378 . S
C1760 C1755 1.350 1_556 S
C1761 H1748 0.929 . S
C1761 C1753 1.433 . S
C1761 N1763 1.384 . S
N1762 C1758 1.427 . S
N1762 C1759 1.384 . S
N1763 C1755 1.427 . S
N1763 C1761 1.384 . S
H1764 C1770 0.930 . S
H1765 C1774 0.930 . S
H1766 C1779 0.929 . S
H1767 C1777 0.929 . S
H1768 C1772 0.929 . S
H1769 C1778 0.929 . S
C1770 H1764 0.930 . S
C1770 C1771 1.367 1_556 S
C1770 C1778 1.378 . S
C1771 C1770 1.367 1_554 S
C1771 C1779 1.433 . S
C1772 H1768 0.929 . S
C1772 C1774 1.378 . S
C1772 C1776 1.350 1_554 S
C1773 C1776 1.463 1_654 S
C1773 C1778 1.350 1_554 S
C1773 N1781 1.427 . S
C1774 H1765 0.930 . S
C1774 C1772 1.378 . S
C1774 C1775 1.367 1_554 S
C1775 C1774 1.367 1_556 S
C1775 C1777 1.433 . S
C1776 C1772 1.350 1_556 S
C1776 C1773 1.463 1_456 S
C1776 N1780 1.427 . S
C1777 H1767 0.929 . S
C1777 C1775 1.433 . S
C1777 N1780 1.384 . S
C1778 H1769 0.929 . S
C1778 C1770 1.378 . S
C1778 C1773 1.350 1_556 S
C1779 H1766 0.929 . S
C1779 C1771 1.433 . S
C1779 N1781 1.384 . S
N1780 C1776 1.427 . S
N1780 C1777 1.384 . S
N1781 C1773 1.427 . S
N1781 C1779 1.384 . S
H1782 C1788 0.930 . S
H1783 C1792 0.930 . S
H1784 C1797 0.929 . S
H1785 C1795 0.929 . S
H1786 C1790 0.929 . S
H1787 C1796 0.929 . S
C1788 H1782 0.930 . S
C1788 C1789 1.367 1_556 S
C1788 C1796 1.378 . S
C1789 C1788 1.367 1_554 S
C1789 C1797 1.433 . S
C1790 H1786 0.929 . S
C1790 C1792 1.378 . S
C1790 C1794 1.350 1_554 S
C1791 C1794 1.463 1_554 S
C1791 C1796 1.350 1_554 S
C1791 N1799 1.427 . S
C1792 H1783 0.930 . S
C1792 C1790 1.378 . S
C1792 C1793 1.367 1_554 S
C1793 C1792 1.367 1_556 S
C1793 C1795 1.433 . S
C1794 C1790 1.350 1_556 S
C1794 C1791 1.463 1_556 S
C1794 N1798 1.427 . S
C1795 H1785 0.929 . S
C1795 C1793 1.433 . S
C1795 N1798 1.384 . S
C1796 H1787 0.929 . S
C1796 C1788 1.378 . S
C1796 C1791 1.350 1_556 S
C1797 H1784 0.929 . S
C1797 C1789 1.433 . S
C1797 N1799 1.384 . S
N1798 C1794 1.427 . S
N1798 C1795 1.384 . S
N1799 C1791 1.427 . S
N1799 C1797 1.384 . S
C511 C152 1.075 . S
C515 C5 1.026 . S
C529 C166 1.059 . S
C533 C19 1.006 . S
C547 C33 1.002 . S
C551 C138 1.060 . S
C565 C47 1.014 . S
C569 C124 1.074 . S
C583 C61 1.006 . S
C587 C96 1.059 . S
C601 C110 1.060 . S
C605 C75 1.014 . S
C619 C68 1.061 . S
C623 C89 1.017 . S
C637 C82 1.075 . S
C641 C103 1.027 . S
C655 C117 1.003 . S
C659 C54 1.067 . S
C673 C40 1.062 . S
C677 C131 1.002 . S
C691 C145 1.001 . S
C695 C12 1.062 . S
C709 C159 1.023 . S
C713 C26 1.063 . S
C727 C320 1.059 . S
C731 C173 1.007 . S
C745 C334 1.075 . S
C749 C187 1.028 . S
C763 C201 1.002 . S
C767 C306 1.061 . S
C781 C215 1.031 . S
C785 C292 1.071 . S
C799 C229 1.017 . S
C803 C264 1.074 . S
C817 C243 1.006 . S
C821 C278 1.059 . S
C835 C236 1.066 . S
C839 C257 1.027 . S
C853 C250 1.070 . S
C857 C271 1.031 . S
C871 C222 1.064 . S
C875 C285 1.025 . S
C889 C208 1.060 . S
C893 C299 1.003 . S
C907 C180 1.076 . S
C911 C313 1.023 . S
C925 C194 1.068 . S
C929 C327 1.005 . S
C943 C341 1.028 . S
C947 C488 1.067 . S
C961 C502 1.067 . S
C965 C355 1.028 . S
C979 C474 1.070 . S
C983 C369 1.031 . S
C997 C383 1.004 . S
C1001 C460 1.060 . S
C1015 C397 1.014 . S
C1019 C432 1.074 . S
C1033 C411 1.029 . S
C1037 C446 1.068 . S
C1051 C404 1.072 . S
C1055 C425 1.031 . S
C1069 C418 1.074 . S
C1073 C439 1.016 . S
C1087 C390 1.067 . S
C1091 C453 1.029 . S
C1105 C467 1.030 . S
C1109 C376 1.074 . S
C1123 C348 1.074 . S
C1127 C481 1.016 . S
C1141 C495 1.002 . S
C1145 C362 1.064 . S
C1159 C53 1.249 . S
C1163 C11 1.249 . S
C1177 C67 1.260 . S
C1181 C25 1.261 . S
C1195 C39 1.260 . S
C1199 C81 1.260 . S
C1213 C137 1.246 . S
C1217 C95 1.246 . S
C1231 C151 1.246 . S
C1235 C109 1.246 . S
C1249 C165 1.257 . S
C1253 C123 1.256 . S
C1267 C221 1.258 . S
C1271 C179 1.259 . S
C1285 C235 1.246 . S
C1289 C193 1.246 . S
C1303 C207 1.250 . S
C1307 C249 1.249 . S
C1321 C263 1.260 . S
C1325 C305 1.260 . S
C1339 C319 1.247 . S
C1343 C277 1.247 . S
C1357 C291 1.245 . S
C1361 C333 1.246 . S
C1375 C389 1.253 . S
C1379 C347 1.252 . S
C1393 C403 1.246 . S
C1397 C361 1.246 . S
C1411 C375 1.261 . S
C1415 C417 1.261 . S
C1429 C431 1.261 . S
C1433 C473 1.261 . S
C1447 C445 1.259 . S
C1451 C487 1.258 . S
C1465 C459 1.260 . S
C1469 C501 1.260 . S
C1483 C4 1.298 . S
C1487 C256 1.298 . S
C1501 C270 1.308 . S
C1505 C18 1.308 . S
C1519 C284 1.306 . S
C1523 C32 1.306 . S
C1537 C466 1.298 . S
C1541 C46 1.298 . S
C1555 C480 1.312 . S
C1559 C60 1.312 . S
C1573 C494 1.312 . S
C1577 C74 1.312 . S
C1591 C88 1.299 . S
C1595 C340 1.299 . S
C1609 C354 1.305 . S
C1613 C102 1.305 . S
C1627 C368 1.313 . S
C1631 C116 1.312 . S
C1645 C130 1.307 . S
C1649 C214 1.307 . S
C1663 C144 1.306 . S
C1667 C228 1.306 . S
C1681 C158 1.311 . S
C1685 C242 1.311 . S
C1699 C424 1.312 . S
C1703 C172 1.312 . S
C1717 C438 1.305 . S
C1721 C186 1.305 . S
C1735 C200 1.313 . S
C1739 C452 1.313 . S
C1753 C298 1.304 . S
C1757 C382 1.304 . S
C1771 C312 1.305 . S
C1775 C396 1.305 . S
C1789 C326 1.312 . S
C1793 C410 1.312 . S
