# Generated by pormake.
# Topology vby, (6)-cn, num edge types: 1
# Building blocks:
#     Node 0, Type 0, BuildingBlock: BETDAH_clean_sbu_0, # of connection points: 6
#     Node 1, Type 0, BuildingBlock: BETDAH_clean_sbu_0, # of connection points: 6
#     Node 2, Type 0, BuildingBlock: BETDAH_clean_sbu_0, # of connection points: 6
#     Node 3, Type 0, BuildingBlock: BETDAH_clean_sbu_0, # of connection points: 6
#     Node 4, Type 0, BuildingBlock: BETDAH_clean_sbu_0, # of connection points: 6
#     Node 5, Type 0, BuildingBlock: BETDAH_clean_sbu_0, # of connection points: 6
#     Node 6, Type 0, BuildingBlock: BETDAH_clean_sbu_0, # of connection points: 6
#     Node 7, Type 0, BuildingBlock: BETDAH_clean_sbu_0, # of connection points: 6
#     Edge 8, Type (0, 0), BuildingBlock: OJICUG_clean_linker_0, # of connection points: 2
#     Edge 9, Type (0, 0), BuildingBlock: OJICUG_clean_linker_0, # of connection points: 2
#     Edge 10, Type (0, 0), BuildingBlock: OJICUG_clean_linker_0, # of connection points: 2
#     Edge 11, Type (0, 0), BuildingBlock: OJICUG_clean_linker_0, # of connection points: 2
#     Edge 12, Type (0, 0), BuildingBlock: OJICUG_clean_linker_0, # of connection points: 2
#     Edge 13, Type (0, 0), BuildingBlock: OJICUG_clean_linker_0, # of connection points: 2
#     Edge 14, Type (0, 0), BuildingBlock: OJICUG_clean_linker_0, # of connection points: 2
#     Edge 15, Type (0, 0), BuildingBlock: OJICUG_clean_linker_0, # of connection points: 2
#     Edge 16, Type (0, 0), BuildingBlock: OJICUG_clean_linker_0, # of connection points: 2
#     Edge 17, Type (0, 0), BuildingBlock: OJICUG_clean_linker_0, # of connection points: 2
#     Edge 18, Type (0, 0), BuildingBlock: OJICUG_clean_linker_0, # of connection points: 2
#     Edge 19, Type (0, 0), BuildingBlock: OJICUG_clean_linker_0, # of connection points: 2
#     Edge 20, Type (0, 0), BuildingBlock: OJICUG_clean_linker_0, # of connection points: 2
#     Edge 21, Type (0, 0), BuildingBlock: OJICUG_clean_linker_0, # of connection points: 2
#     Edge 22, Type (0, 0), BuildingBlock: OJICUG_clean_linker_0, # of connection points: 2
#     Edge 23, Type (0, 0), BuildingBlock: OJICUG_clean_linker_0, # of connection points: 2
#     Edge 24, Type (0, 0), BuildingBlock: OJICUG_clean_linker_0, # of connection points: 2
#     Edge 25, Type (0, 0), BuildingBlock: OJICUG_clean_linker_0, # of connection points: 2
#     Edge 26, Type (0, 0), BuildingBlock: OJICUG_clean_linker_0, # of connection points: 2
#     Edge 27, Type (0, 0), BuildingBlock: OJICUG_clean_linker_0, # of connection points: 2
#     Edge 28, Type (0, 0), BuildingBlock: OJICUG_clean_linker_0, # of connection points: 2
#     Edge 29, Type (0, 0), BuildingBlock: OJICUG_clean_linker_0, # of connection points: 2
#     Edge 30, Type (0, 0), BuildingBlock: OJICUG_clean_linker_0, # of connection points: 2
#     Edge 31, Type (0, 0), BuildingBlock: OJICUG_clean_linker_0, # of connection points: 2
# Relax obj value: 0.205
# Max RMSD: 0.226
# Mean RMSD: 0.226
data_MOF--net-vby--node1-BETDAH_clean_sbu_0--edge1-OJICUG_clean_linker_0
_symmetry_space_group_name_H-M    P1
_symmetry_Int_Tables_number       1
_symmetry_cell_setting            triclinic
loop_
_symmetry_equiv_pos_as_xyz
'x, y, z'
_cell_length_a     11.419369
_cell_length_b     87.455934
_cell_length_c     21.107911
_cell_angle_alpha  89.983369
_cell_angle_beta   85.97106
_cell_angle_gamma 89.984855
loop_
_atom_site_label
_atom_site_type_symbol
_atom_site_fract_x
_atom_site_fract_y
_atom_site_fract_z
_atom_type_partial_charge
Ho0 Ho 0.04956 0.40805 0.0171 0.0
Ho1 Ho 1.03511 0.3742 0.02296 0.0
C2 C 0.79765 0.39167 0.02318 0.0
C3 C 1.03521 0.43739 0.00787 0.0
C4 C 1.02458 0.45429 0.00556 0.0
C5 C 0.07351 0.46268 0.95347 0.0
C6 C 0.07469 0.47872 0.95508 0.0
C7 C 1.02684 0.48671 0.00882 0.0
C8 C 0.97499 0.47825 0.06005 0.0
C9 C 0.97394 0.46227 0.05845 0.0
C10 C 0.06945 0.39562 0.13342 0.0
C11 C 0.29254 0.39087 0.00897 0.0
C12 C 0.04405 0.34538 0.05206 0.0
C13 C 0.11197 0.33101 0.04387 0.0
C14 C 0.1349 0.3225 0.09799 0.0
C15 C 0.18364 0.30785 0.09221 0.0
C16 C 0.21027 0.30131 0.03202 0.0
C17 C 0.1912 0.31009 0.97772 0.0
C18 C 0.14238 0.32478 0.98355 0.0
C19 C 1.01868 0.38577 0.90467 0.0
O20 O 0.86128 0.40294 0.99696 0.0
O21 O 0.84883 0.38017 0.05062 0.0
O22 O 0.99461 0.42969 0.05763 0.0
O23 O 0.08012 0.42896 0.96095 0.0
O24 O 0.13579 0.40641 0.10941 0.0
O25 O 0.99564 0.39186 0.09469 0.0
O26 O 0.23161 0.3783 0.02396 0.0
O27 O 0.24031 0.40383 0.99613 0.0
O28 O 0.99316 0.35069 1.00309 0.0
O29 O 0.08593 0.35621 0.0867 0.0
O30 O 0.9608 0.37404 0.92725 0.0
O31 O 0.08873 0.39026 0.94438 0.0
H32 H 0.1135 0.45686 0.91212 0.0
H33 H 0.11388 0.48486 0.91438 0.0
H34 H 0.9386 0.48395 0.10252 0.0
H35 H 0.93618 0.45616 0.09962 0.0
H36 H 0.11167 0.32701 0.14502 0.0
H37 H 0.19908 0.30156 0.13504 0.0
H38 H 0.20981 0.3054 0.93061 0.0
H39 H 0.12511 0.33102 0.94088 0.0
Ho40 Ho 0.05061 0.66553 0.01482 0.0
Ho41 Ho 1.03616 0.6317 0.02055 0.0
C42 C 0.79312 0.64886 0.02897 0.0
C43 C 1.04114 0.69433 0.98557 0.0
C44 C 0.9737 0.70872 0.9948 0.0
C45 C 0.94468 0.717 0.94114 0.0
C46 C 0.89628 0.73166 0.94743 0.0
C47 C 0.87615 0.73844 0.00765 0.0
C48 C 0.90135 0.7299 0.06162 0.0
C49 C 0.94979 0.7152 0.05529 0.0
C50 C 0.06674 0.65406 0.1332 0.0
C51 C 0.28799 0.64806 0.01469 0.0
C52 C 0.05048 0.60234 0.0293 0.0
C53 C 0.06107 0.58545 0.03138 0.0
C54 C 1.01214 0.57702 0.08337 0.0
C55 C 1.01089 0.56098 0.08156 0.0
C56 C 0.05864 0.55303 0.02772 0.0
C57 C 0.1105 0.56152 0.97658 0.0
C58 C 0.11163 0.5775 0.97838 0.0
C59 C 1.0162 0.64424 0.9043 0.0
O60 O 0.85405 0.66143 0.01402 0.0
O61 O 0.8454 0.63589 0.04167 0.0
O62 O 0.09473 0.68902 0.03362 0.0
O63 O 0.99711 0.6835 0.95176 0.0
O64 O 0.12407 0.66582 0.11064 0.0
O65 O 0.99711 0.64945 0.09346 0.0
O66 O 0.22428 0.6368 0.04098 0.0
O67 O 0.23682 0.65953 0.98707 0.0
O68 O 0.09126 0.61009 0.9797 0.0
O69 O 1.00543 0.61074 0.07631 0.0
O70 O 0.9496 0.63347 0.92827 0.0
O71 O 0.09028 0.64787 0.94304 0.0
H72 H 0.96286 0.7123 0.89397 0.0
H73 H 0.87602 0.73777 0.90491 0.0
H74 H 0.88787 0.73478 0.10871 0.0
H75 H 0.97188 0.70915 0.0976 0.0
H76 H 0.97222 0.58281 0.12481 0.0
H77 H 0.97171 0.55482 0.1222 0.0
H78 H 0.14684 0.55584 0.93403 0.0
H79 H 0.14938 0.58363 0.93727 0.0
Ho80 Ho 1.03553 0.66565 0.52278 0.0
Ho81 Ho 0.05006 0.63178 0.51687 0.0
C82 C 0.293 0.64897 0.50851 0.0
C83 C 0.04408 0.69443 0.55243 0.0
C84 C 0.11178 0.70881 0.54463 0.0
C85 C 0.12652 0.71782 0.59844 0.0
C86 C 0.17559 0.73245 0.59239 0.0
C87 C 0.21085 0.73844 0.53218 0.0
C88 C 0.19954 0.72917 0.47836 0.0
C89 C 0.15048 0.7145 0.48448 0.0
C90 C 1.01916 0.65419 0.40445 0.0
C91 C 0.79814 0.64817 0.52265 0.0
C92 C 1.0359 0.60243 0.50798 0.0
C93 C 1.02539 0.58553 0.50586 0.0
C94 C 0.07406 0.57711 0.45377 0.0
C95 C 0.07524 0.56108 0.45551 0.0
C96 C 1.02766 0.55311 0.50938 0.0
C97 C 0.97611 0.56159 0.56062 0.0
C98 C 0.97505 0.57757 0.55889 0.0
C99 C 0.06996 0.64429 0.63314 0.0
O100 O 0.23207 0.66153 0.52355 0.0
O101 O 0.24077 0.636 0.49574 0.0
O102 O 0.9938 0.68918 0.50317 0.0
O103 O 0.08597 0.68356 0.58691 0.0
O104 O 0.96166 0.66594 0.42705 0.0
O105 O 0.08891 0.64957 0.44414 0.0
O106 O 0.86186 0.63689 0.49653 0.0
O107 O 0.84919 0.65966 0.55013 0.0
O108 O 0.99522 0.61015 0.55764 0.0
O109 O 0.0808 0.61084 0.46098 0.0
O110 O 0.13654 0.63351 0.60917 0.0
O111 O 0.99592 0.64794 0.59438 0.0
H112 H 0.09615 0.71375 0.64524 0.0
H113 H 0.18161 0.73928 0.63481 0.0
H114 H 0.22746 0.73331 0.43135 0.0
H115 H 0.14015 0.7078 0.44209 0.0
H116 H 0.11381 0.58291 0.41231 0.0
H117 H 0.11419 0.55492 0.4148 0.0
H118 H 0.93994 0.5559 0.60318 0.0
H119 H 0.93751 0.58368 0.60007 0.0
Ho120 Ho 1.03617 0.40809 0.52078 0.0
Ho121 Ho 0.05073 0.37426 0.51525 0.0
C122 C 0.28811 0.39172 0.51477 0.0
C123 C 0.05052 0.43745 0.52969 0.0
C124 C 0.06114 0.45435 0.53181 0.0
C125 C 1.01252 0.46276 0.5839 0.0
C126 C 1.01138 0.4788 0.58215 0.0
C127 C 0.05896 0.48677 0.52828 0.0
C128 C 0.11049 0.47828 0.47704 0.0
C129 C 0.1115 0.4623 0.47878 0.0
C130 C 1.01628 0.39562 0.40456 0.0
C131 C 0.79323 0.39093 0.52907 0.0
C132 C 1.04157 0.34542 0.48657 0.0
C133 C 0.97384 0.33105 0.4955 0.0
C134 C 0.94687 0.32268 0.44169 0.0
C135 C 0.89832 0.30803 0.44785 0.0
C136 C 0.87596 0.30134 0.50812 0.0
C137 C 0.8991 0.30997 0.56219 0.0
C138 C 0.9477 0.32465 0.55597 0.0
C139 C 0.06705 0.38586 0.63346 0.0
O140 O 0.22444 0.40299 0.54098 0.0
O141 O 0.23693 0.38023 0.48737 0.0
O142 O 0.09109 0.42972 0.48001 0.0
O143 O 1.00565 0.42904 0.5767 0.0
O144 O 0.9499 0.40642 0.42851 0.0
O145 O 0.09013 0.39188 0.44331 0.0
O146 O 0.85421 0.37836 0.51421 0.0
O147 O 0.84542 0.4039 0.54179 0.0
O148 O 0.09374 0.35077 0.53501 0.0
O149 O 0.99871 0.35622 0.45212 0.0
O150 O 0.1249 0.37412 0.61098 0.0
O151 O 0.99701 0.39034 0.59371 0.0
H152 H 0.97276 0.45696 0.62536 0.0
H153 H 0.97246 0.48496 0.62287 0.0
H154 H 0.14666 0.48397 0.43447 0.0
H155 H 0.14901 0.45618 0.4376 0.0
H156 H 0.9668 0.32731 0.39452 0.0
H157 H 0.87969 0.30186 0.40524 0.0
H158 H 0.88387 0.30515 0.60932 0.0
H159 H 0.96818 0.33077 0.5984 0.0
Ho160 Ho 0.55061 0.90808 0.01978 0.0
Ho161 Ho 0.53618 0.87426 0.02541 0.0
C162 C 0.29879 0.89172 0.02577 0.0
C163 C 0.53613 0.93743 0.01085 0.0
C164 C 0.5253 0.95432 0.00852 0.0
C165 C 0.57842 0.96277 0.95767 0.0
C166 C 0.57979 0.9788 0.9597 0.0
C167 C 0.52826 0.98673 0.01271 0.0
C168 C 0.47177 0.97822 0.06246 0.0
C169 C 0.47041 0.96225 0.06042 0.0
C170 C 0.57057 0.89562 0.13606 0.0
C171 C 0.79365 0.89093 0.01155 0.0
C172 C 0.54549 0.84542 0.0542 0.0
C173 C 0.61316 0.83105 0.04505 0.0
C174 C 0.64218 0.82278 0.09874 0.0
C175 C 0.69072 0.80813 0.09252 0.0
C176 C 0.71099 0.80134 0.03232 0.0
C177 C 0.68578 0.80987 0.97831 0.0
C178 C 0.6372 0.82456 0.98459 0.0
C179 C 0.51986 0.88584 0.90713 0.0
O180 O 0.36246 0.90297 0.99942 0.0
O181 O 0.35001 0.88025 0.05333 0.0
O182 O 0.49449 0.9297 0.0603 0.0
O183 O 0.58212 0.92903 0.9641 0.0
O184 O 0.63687 0.90642 0.11208 0.0
O185 O 0.49673 0.89188 0.09733 0.0
O186 O 0.73271 0.87835 0.0264 0.0
O187 O 0.7414 0.9039 0.99886 0.0
O188 O 0.49262 0.85078 0.00599 0.0
O189 O 0.58886 0.85622 0.08842 0.0
O190 O 0.46212 0.8741 0.92965 0.0
O191 O 0.58984 0.89034 0.94687 0.0
H192 H 0.62216 0.957 0.91724 0.0
H193 H 0.62478 0.98496 0.92069 0.0
H194 H 0.42917 0.98392 0.10342 0.0
H195 H 0.42852 0.9561 0.10041 0.0
H196 H 0.62388 0.82748 0.1459 0.0
H197 H 0.71097 0.80203 0.13505 0.0
H198 H 0.69934 0.80498 0.93124 0.0
H199 H 0.6151 0.8306 0.94224 0.0
Ho200 Ho 0.55127 0.16557 0.01746 0.0
Ho201 Ho 0.53687 0.13173 0.02341 0.0
C202 C 0.29383 0.1489 0.03174 0.0
C203 C 0.54225 0.19436 0.98782 0.0
C204 C 0.47464 0.20875 0.99612 0.0
C205 C 0.45173 0.21727 0.94205 0.0
C206 C 0.40319 0.23193 0.94791 0.0
C207 C 0.37676 0.23846 0.00814 0.0
C208 C 0.39582 0.22967 0.06239 0.0
C209 C 0.44444 0.21497 0.05648 0.0
C210 C 0.5676 0.15413 0.13585 0.0
C211 C 0.78866 0.1481 0.01764 0.0
C212 C 0.5512 0.10237 0.03231 0.0
C213 C 0.56195 0.08548 0.03463 0.0
C214 C 0.50879 0.07704 0.08547 0.0
C215 C 0.50737 0.061 0.08344 0.0
C216 C 0.55889 0.05308 0.03044 0.0
C217 C 0.61541 0.06158 0.98069 0.0
C218 C 0.61682 0.07756 0.98273 0.0
C219 C 0.5169 0.14423 0.9071 0.0
O220 O 0.35472 0.16147 0.01674 0.0
O221 O 0.34611 0.13593 0.04446 0.0
O222 O 0.59403 0.18909 0.03658 0.0
O223 O 0.49947 0.1835 0.95368 0.0
O224 O 0.62494 0.16589 0.11323 0.0
O225 O 0.49793 0.14951 0.09616 0.0
O226 O 0.72494 0.13684 0.04392 0.0
O227 O 0.73756 0.15957 0.98998 0.0
O228 O 0.59295 0.11011 0.98288 0.0
O229 O 0.50518 0.11077 0.07905 0.0
O230 O 0.4504 0.13345 0.93109 0.0
O231 O 0.59093 0.14788 0.94584 0.0
H232 H 0.47478 0.21277 0.895 0.0
H233 H 0.38774 0.23824 0.90512 0.0
H234 H 0.37734 0.23435 0.10952 0.0
H235 H 0.46171 0.20871 0.09911 0.0
H236 H 0.46506 0.08281 0.1259 0.0
H237 H 0.46236 0.05485 0.12245 0.0
H238 H 0.658 0.05589 0.93973 0.0
H239 H 0.65873 0.0837 0.94274 0.0
Ho240 Ho 0.53624 0.16554 0.52541 0.0
Ho241 Ho 0.55079 0.1317 0.51974 0.0
C242 C 0.79375 0.14886 0.51129 0.0
C243 C 0.54552 0.19434 0.55463 0.0
C244 C 0.61297 0.20873 0.54563 0.0
C245 C 0.6399 0.21711 0.5994 0.0
C246 C 0.68829 0.23177 0.59318 0.0
C247 C 0.71051 0.23846 0.53289 0.0
C248 C 0.68739 0.22982 0.47885 0.0
C249 C 0.63895 0.21512 0.48513 0.0
C250 C 0.52008 0.15406 0.40709 0.0
C251 C 0.29889 0.14807 0.52556 0.0
C252 C 0.53654 0.10234 0.51104 0.0
C253 C 0.52602 0.08544 0.50905 0.0
C254 C 0.5741 0.07701 0.45686 0.0
C255 C 0.57529 0.06098 0.45866 0.0
C256 C 0.52832 0.05302 0.51269 0.0
C257 C 0.47735 0.06151 0.56406 0.0
C258 C 0.47628 0.07749 0.56226 0.0
C259 C 0.5707 0.14424 0.63595 0.0
O260 O 0.73279 0.16143 0.52622 0.0
O261 O 0.74152 0.13589 0.4986 0.0
O262 O 0.49252 0.18904 0.50638 0.0
O263 O 0.58915 0.18351 0.58861 0.0
O264 O 0.4627 0.16583 0.42961 0.0
O265 O 0.58974 0.14945 0.44683 0.0
O266 O 0.36262 0.1368 0.49935 0.0
O267 O 0.35 0.15954 0.5531 0.0
O268 O 0.49597 0.11008 0.56068 0.0
O269 O 0.58136 0.11073 0.46397 0.0
O270 O 0.63732 0.13347 0.61201 0.0
O271 O 0.49662 0.14788 0.5972 0.0
H272 H 0.62011 0.21248 0.64658 0.0
H273 H 0.70691 0.23795 0.63577 0.0
H274 H 0.70252 0.23462 0.4317 0.0
H275 H 0.61851 0.20899 0.44272 0.0
H276 H 0.61337 0.0828 0.41525 0.0
H277 H 0.61376 0.05481 0.41785 0.0
H278 H 0.44166 0.05584 0.60675 0.0
H279 H 0.43921 0.08362 0.60352 0.0
Ho280 Ho 0.53722 0.90801 0.52347 0.0
Ho281 Ho 0.55178 0.87414 0.5177 0.0
C282 C 0.78921 0.89162 0.51748 0.0
C283 C 0.55141 0.93736 0.53257 0.0
C284 C 0.56194 0.95425 0.53475 0.0
C285 C 0.51384 0.96265 0.58702 0.0
C286 C 0.51268 0.97869 0.58537 0.0
C287 C 0.5597 0.98668 0.53142 0.0
C288 C 0.61067 0.97821 0.47998 0.0
C289 C 0.61171 0.96223 0.48162 0.0
C290 C 0.51737 0.89557 0.4072 0.0
C291 C 0.29431 0.89082 0.53166 0.0
C292 C 0.54336 0.84533 0.48859 0.0
C293 C 0.47546 0.83096 0.49635 0.0
C294 C 0.46072 0.82195 0.44252 0.0
C295 C 0.41155 0.80733 0.44854 0.0
C296 C 0.37622 0.80134 0.50874 0.0
C297 C 0.3875 0.8106 0.56257 0.0
C298 C 0.43663 0.82527 0.55647 0.0
C299 C 0.56828 0.88573 0.63591 0.0
O300 O 0.72555 0.90291 0.54357 0.0
O301 O 0.73809 0.88011 0.49015 0.0
O302 O 0.59183 0.92965 0.48279 0.0
O303 O 0.50677 0.92892 0.57958 0.0
O304 O 0.45099 0.90637 0.43117 0.0
O305 O 0.59118 0.89182 0.44595 0.0
O306 O 0.35527 0.87825 0.51667 0.0
O307 O 0.34651 0.90378 0.54449 0.0
O308 O 0.59287 0.85063 0.53801 0.0
O309 O 0.50219 0.85616 0.45367 0.0
O310 O 0.62626 0.87401 0.61336 0.0
O311 O 0.49817 0.89022 0.59621 0.0
H312 H 0.47453 0.95684 0.62856 0.0
H313 H 0.47419 0.98484 0.62622 0.0
H314 H 0.64638 0.98391 0.43734 0.0
H315 H 0.6488 0.95612 0.44031 0.0
H316 H 0.49117 0.82602 0.39573 0.0
H317 H 0.40555 0.8005 0.40611 0.0
H318 H 0.35951 0.80646 0.60956 0.0
H319 H 0.44696 0.83196 0.59888 0.0
C320 C 0.48073 0.3782 0.03484 0.0
C321 C 0.42236 0.39073 0.00984 0.0
H322 H 0.6443 0.36872 0.05933 0.0
C323 C 0.48877 0.40356 0.98887 0.0
H324 H 0.4324 0.36817 0.05176 0.0
C325 C 0.61041 0.40389 0.99325 0.0
C326 C 0.66853 0.39144 0.01908 0.0
H327 H 0.44679 0.41344 0.96937 0.0
H328 H 0.65868 0.41395 0.97671 0.0
C329 C 0.60232 0.37857 0.03959 0.0
C330 C 0.48334 0.66116 0.99835 0.0
C331 C 0.41711 0.64828 0.01885 0.0
H332 H 0.65326 0.67155 0.98619 0.0
C333 C 0.47521 0.63584 0.04471 0.0
H334 H 0.44137 0.67101 0.97858 0.0
C335 C 0.59686 0.63617 0.04911 0.0
C336 C 0.66329 0.64899 0.02813 0.0
H337 H 0.42693 0.62578 0.06125 0.0
H338 H 0.63884 0.62629 0.06862 0.0
C339 C 0.60492 0.66153 1.00311 0.0
C340 C 0.61093 0.63594 0.49272 0.0
C341 C 0.66902 0.64839 0.51849 0.0
H342 H 0.4473 0.62639 0.46893 0.0
C343 C 0.60278 0.66127 0.53892 0.0
H344 H 0.65923 0.62588 0.47623 0.0
C345 C 0.4812 0.66164 0.5342 0.0
C346 C 0.42284 0.6491 0.50929 0.0
H347 H 0.64474 0.67113 0.55862 0.0
H348 H 0.43286 0.67167 0.55108 0.0
C349 C 0.48927 0.63627 0.48836 0.0
C350 C 0.6051 0.37825 0.50323 0.0
C351 C 0.66341 0.3908 0.52817 0.0
H352 H 0.44158 0.36877 0.47877 0.0
C353 C 0.59694 0.40363 0.54904 0.0
H354 H 0.65348 0.36822 0.48639 0.0
C355 C 0.4753 0.40395 0.54463 0.0
C356 C 0.41724 0.3915 0.51887 0.0
H357 H 0.63887 0.41351 0.56849 0.0
H358 H 0.42698 0.41402 0.5611 0.0
C359 C 0.48351 0.37862 0.49846 0.0
C360 C 0.98184 0.87825 0.03743 0.0
C361 C 0.92348 0.89079 0.01242 0.0
H362 H 0.14541 0.86877 0.06194 0.0
C363 C 0.9899 0.90361 0.99145 0.0
H364 H 0.9335 0.86823 0.05435 0.0
C365 C 0.11155 0.90394 0.99583 0.0
C366 C 0.16966 0.8915 0.02167 0.0
H367 H 0.94792 0.91349 0.97194 0.0
H368 H 0.15982 0.914 0.97929 0.0
C369 C 0.10343 0.87862 0.04218 0.0
C370 C 0.10558 0.16157 0.00597 0.0
C371 C 0.16398 0.14904 0.03097 0.0
H372 H 0.942 0.17105 0.9815 0.0
C373 C 0.09758 0.13621 0.052 0.0
H374 H 0.1539 0.1716 0.98902 0.0
C375 C 0.97591 0.13589 0.04766 0.0
C376 C 0.91778 0.14833 0.0218 0.0
H377 H 0.13958 0.12634 0.0715 0.0
H378 H 0.92764 0.12583 0.06422 0.0
C379 C 0.98399 0.1612 1.00126 0.0
C380 C 0.11171 0.13584 0.4956 0.0
C381 C 0.16977 0.14829 0.5214 0.0
H382 H 0.94812 0.12629 0.47173 0.0
C383 C 0.10349 0.16117 0.54185 0.0
H384 H 0.16003 0.12578 0.4791 0.0
C385 C 0.98191 0.16154 0.53708 0.0
C386 C 0.92359 0.149 0.51212 0.0
H387 H 0.14542 0.17102 0.56157 0.0
H388 H 0.93353 0.17156 0.55396 0.0
C389 C 0.99006 0.13617 0.4912 0.0
C390 C 0.97642 0.90385 0.54732 0.0
C391 C 0.91833 0.8914 0.52158 0.0
H392 H 0.14003 0.9134 0.57112 0.0
C393 C 0.98456 0.87851 0.50117 0.0
H394 H 0.92813 0.91392 0.56379 0.0
C395 C 0.10615 0.87814 0.50591 0.0
C396 C 0.16449 0.89069 0.53081 0.0
H397 H 0.9426 0.86866 0.4815 0.0
H398 H 0.1545 0.86811 0.48906 0.0
C399 C 0.09807 0.90352 0.55169 0.0
C400 C 0.94887 0.52825 0.04654 0.0
C401 C 0.05119 0.53601 0.02369 0.0
H402 H 0.85973 0.5068 0.0585 0.0
C403 C 0.14489 0.5274 0.99523 0.0
H404 H 0.8741 0.5345 0.06762 0.0
C405 C 0.1365 0.51149 0.98978 0.0
C406 C 1.03421 0.50373 0.01268 0.0
H407 H 0.22563 0.53295 0.97783 0.0
H408 H 0.21128 0.50524 0.96871 0.0
C409 C 0.94048 0.51234 0.04109 0.0
C410 C 0.94958 0.51157 0.54738 0.0
C411 C 0.05168 0.50379 0.52432 0.0
H412 H 0.86071 0.53305 0.55948 0.0
C413 C 0.14532 0.51238 0.49571 0.0
H414 H 0.87486 0.50534 0.5686 0.0
C415 C 0.13705 0.5283 0.49026 0.0
C416 C 1.03495 0.53608 0.51332 0.0
H417 H 0.22592 0.50682 0.47816 0.0
H418 H 0.21177 0.53454 0.46904 0.0
C419 C 0.94131 0.52749 0.54193 0.0
C420 C 0.55693 1.01086 0.07509 0.0
C421 C 0.53589 1.00374 0.01713 0.0
H422 H 0.58227 0.03185 0.12464 0.0
C423 C 0.52277 1.013 0.96366 0.0
H424 H 0.5696 1.00409 0.11704 0.0
C425 C 0.53019 0.02895 0.96805 0.0
C426 C 0.55123 0.03607 0.02601 0.0
H427 H 0.50485 1.00795 0.91851 0.0
H428 H 0.51752 0.03571 0.92611 0.0
C429 C 0.56434 0.0268 0.07949 0.0
C430 C 0.63751 0.02821 0.49328 0.0
C431 C 0.53565 0.03599 0.51667 0.0
H432 H 0.72623 1.00673 0.48085 0.0
C433 C 0.4423 0.02741 0.5456 0.0
H434 H 0.71202 0.03445 0.47181 0.0
C435 C 0.4506 1.01149 0.551 0.0
C436 C 0.55244 1.0037 0.52758 0.0
H437 H 0.36188 0.03297 0.56342 0.0
H438 H 0.37608 1.00525 0.57246 0.0
C439 C 0.64581 1.01229 0.49868 0.0
C440 C 0.20681 0.27377 0.06729 0.0
C441 C 0.25368 0.28523 0.02608 0.0
H442 H 0.20699 0.25009 0.09344 0.0
C443 C 0.34094 0.28115 0.9788 0.0
H444 H 0.13795 0.27641 0.10352 0.0
C445 C 0.38037 0.26602 0.97295 0.0
C446 C 0.33348 0.25455 0.01415 0.0
H447 H 0.38019 0.28969 0.9468 0.0
H448 H 0.44923 0.26337 0.93671 0.0
C449 C 0.24625 0.25864 0.06144 0.0
C450 C 0.83635 0.78098 0.97661 0.0
C451 C 0.75412 0.78525 0.02617 0.0
H452 H 0.9404 0.76306 0.93249 0.0
C453 C 0.71186 0.77394 0.06945 0.0
H454 H 0.87202 0.7894 0.94292 0.0
C455 C 0.7509 0.7588 0.06341 0.0
C456 C 0.83311 0.75454 0.01384 0.0
H457 H 0.64684 0.77673 0.10753 0.0
H458 H 0.71523 0.75038 0.0971 0.0
C459 C 0.87538 0.76584 0.97057 0.0
C460 C 0.22014 0.76393 0.4763 0.0
C461 C 0.25474 0.75449 0.52564 0.0
H462 H 0.22871 0.7861 0.43306 0.0
C463 C 0.32869 0.76065 0.56971 0.0
H464 H 0.16149 0.75968 0.4422 0.0
C465 C 0.36693 0.77584 0.5646 0.0
C466 C 0.33232 0.78529 0.51527 0.0
H467 H 0.35838 0.75368 0.60783 0.0
H468 H 0.42558 0.78009 0.5987 0.0
C469 C 0.25839 0.77912 0.47119 0.0
C470 C 0.87658 0.27388 0.47173 0.0
C471 C 0.83278 0.28525 0.51429 0.0
H472 H 0.87433 0.25028 0.44469 0.0
C473 C 0.74889 0.28105 0.56316 0.0
H474 H 0.94286 0.27661 0.43422 0.0
C475 C 0.70976 0.26592 0.56922 0.0
C476 C 0.75358 0.25455 0.52667 0.0
H477 H 0.71202 0.28952 0.59627 0.0
H478 H 0.64349 0.26319 0.60674 0.0
C479 C 0.83744 0.25874 0.47779 0.0
C480 C 0.9435 0.39219 0.23377 0.0
C481 C 0.05577 0.39278 0.20223 0.0
H482 H 0.84337 0.39293 0.32371 0.0
C483 C 0.15506 0.39251 0.23783 0.0
H484 H 0.86571 0.39252 0.20722 0.0
C485 C 0.14231 0.39223 0.30422 0.0
C486 C 1.03003 0.39278 0.33576 0.0
H487 H 0.24242 0.39299 0.21429 0.0
H488 H 0.2201 0.39258 0.33078 0.0
C489 C 0.93075 0.39247 0.30017 0.0
C490 C 0.94239 0.65056 0.23425 0.0
C491 C 0.05399 0.65099 0.20196 0.0
H492 H 0.84447 0.65152 0.32485 0.0
C493 C 0.15415 0.65061 0.23694 0.0
H494 H 0.864 0.65103 0.20821 0.0
C495 C 0.14303 0.65037 0.30343 0.0
C496 C 1.03151 0.65108 0.33572 0.0
H497 H 0.24105 0.65103 0.21281 0.0
H498 H 0.22148 0.65067 0.32945 0.0
C499 C 0.93131 0.65088 0.30073 0.0
C500 C 0.14238 0.64767 0.80401 0.0
C501 C 1.03005 0.64709 0.83549 0.0
H502 H 0.24267 0.64695 0.71412 0.0
C503 C 0.93085 0.64739 0.79983 0.0
H504 H 0.22011 0.64734 0.83061 0.0
C505 C 0.94372 0.64768 0.73343 0.0
C506 C 0.05606 0.64712 0.70195 0.0
H507 H 0.84344 0.64691 0.82332 0.0
H508 H 0.86599 0.64734 0.70684 0.0
C509 C 0.15526 0.64741 0.73762 0.0
C510 C 0.15419 0.38931 0.73727 0.0
C511 C 0.05413 0.38894 0.7022 0.0
H512 H 0.22126 0.38923 0.82983 0.0
C513 C 0.94246 0.38941 0.7344 0.0
H514 H 0.24114 0.38886 0.71321 0.0
C515 C 0.93119 0.3891 0.80088 0.0
C516 C 1.03129 0.38888 0.83595 0.0
H517 H 0.86414 0.38896 0.70831 0.0
H518 H 0.84429 0.38849 0.82493 0.0
C519 C 0.14289 0.38956 0.80375 0.0
C520 C 0.44461 0.89218 0.2364 0.0
C521 C 0.55688 0.89277 0.20487 0.0
H522 H 0.34448 0.89289 0.32633 0.0
C523 C 0.65617 0.89249 0.24046 0.0
H524 H 0.36682 0.89251 0.20984 0.0
C525 C 0.64341 0.89219 0.30686 0.0
C526 C 0.53113 0.89274 0.33839 0.0
H527 H 0.74353 0.89298 0.21692 0.0
H528 H 0.7212 0.89254 0.33341 0.0
C529 C 0.43185 0.89244 0.30279 0.0
C530 C 0.44367 0.15037 0.23689 0.0
C531 C 0.5552 0.15103 0.20459 0.0
H532 H 0.34568 0.15109 0.3275 0.0
C533 C 0.65541 0.15081 0.23957 0.0
H534 H 0.36523 0.1507 0.21086 0.0
C535 C 0.64433 0.1505 0.30605 0.0
C536 C 0.53275 0.15098 0.33835 0.0
H537 H 0.74225 0.1514 0.21544 0.0
H538 H 0.72274 0.15094 0.33208 0.0
C539 C 0.43257 0.15063 0.30337 0.0
C540 C 0.64307 0.14767 0.80681 0.0
C541 C 0.53074 0.14707 0.83829 0.0
H542 H 0.74338 0.14694 0.71693 0.0
C543 C 0.43154 0.14735 0.80262 0.0
H544 H 0.7208 0.14735 0.83342 0.0
C545 C 0.44443 0.14762 0.73623 0.0
C546 C 0.55677 0.14708 0.70476 0.0
H547 H 0.34413 0.14686 0.82611 0.0
H548 H 0.3667 0.14727 0.70963 0.0
C549 C 0.65596 0.1474 0.74042 0.0
C550 C 0.44405 0.88953 0.73682 0.0
C551 C 0.55567 0.88884 0.70463 0.0
H552 H 0.34578 0.88883 0.82736 0.0
C553 C 0.65575 0.88907 0.73971 0.0
H554 H 0.3657 0.8892 0.71073 0.0
C555 C 0.64446 0.88938 0.80619 0.0
C556 C 0.53279 0.88892 0.83838 0.0
H557 H 0.74266 0.88846 0.71567 0.0
H558 H 0.72278 0.88894 0.83229 0.0
C559 C 0.43274 0.88928 0.80331 0.0
loop_
_geom_bond_atom_site_label_1
_geom_bond_atom_site_label_2
_geom_bond_distance
_geom_bond_site_symmetry_2
_ccdc_geom_bond_type
Ho0 C3 2.811 1_455 S
Ho0 O20 2.322 1_455 S
Ho0 O22 2.378 . S
Ho0 O23 2.524 1_454 S
Ho0 O24 2.381 . S
Ho0 O25 2.669 . S
Ho0 O27 2.346 . S
Ho0 O31 2.305 1_554 S
Ho1 C12 2.811 . S
Ho1 O21 2.346 1_455 S
Ho1 O25 2.305 . S
Ho1 O26 2.322 1_554 S
Ho1 O28 2.378 1_554 S
Ho1 O29 2.524 . S
Ho1 O30 2.381 1_554 S
Ho1 O31 2.669 1_554 S
C2 O20 1.259 . S
C2 O21 1.268 . S
C3 Ho0 2.811 1_655 S
C3 C4 1.488 . S
C3 O22 1.215 1_655 S
C3 O23 1.289 1_554 S
C4 C3 1.488 . S
C4 C5 1.348 1_554 S
C4 C9 1.413 . S
C5 C4 1.348 1_556 S
C5 C6 1.442 . S
C5 H32 0.930 . S
C6 C5 1.442 . S
C6 C7 1.381 1_556 S
C6 H33 0.931 . S
C7 C6 1.381 1_554 S
C7 C8 1.321 . S
C8 C7 1.321 . S
C8 C9 1.403 . S
C8 H34 0.934 . S
C9 C4 1.413 . S
C9 C8 1.403 . S
C9 H35 0.930 . S
C10 O24 1.275 . S
C10 O25 1.256 . S
C11 O26 1.259 1_554 S
C11 O27 1.268 . S
C12 Ho1 2.811 . S
C12 C13 1.488 . S
C12 O28 1.215 1_554 S
C12 O29 1.289 . S
C13 C12 1.488 . S
C13 C14 1.348 . S
C13 C18 1.413 1_554 S
C14 C13 1.348 . S
C14 C15 1.442 . S
C14 H36 0.930 . S
C15 C14 1.442 . S
C15 C16 1.381 . S
C15 H37 0.931 . S
C16 C15 1.381 . S
C16 C17 1.321 1_554 S
C17 C16 1.321 1_556 S
C17 C18 1.403 . S
C17 H38 0.934 . S
C18 C13 1.413 1_556 S
C18 C17 1.403 . S
C18 H39 0.930 . S
C19 O30 1.275 . S
C19 O31 1.256 . S
O20 Ho0 2.322 1_655 S
O20 C2 1.259 . S
O21 Ho1 2.346 1_655 S
O21 C2 1.268 . S
O22 Ho0 2.378 . S
O22 C3 1.215 1_455 S
O23 Ho0 2.524 1_656 S
O23 C3 1.289 1_556 S
O24 Ho0 2.381 . S
O24 C10 1.275 . S
O25 Ho0 2.669 . S
O25 Ho1 2.305 . S
O25 C10 1.256 . S
O26 Ho1 2.322 1_556 S
O26 C11 1.259 1_556 S
O27 Ho0 2.346 . S
O27 C11 1.268 . S
O28 Ho1 2.378 1_556 S
O28 C12 1.215 1_556 S
O29 Ho1 2.524 . S
O29 C12 1.289 . S
O30 Ho1 2.381 1_556 S
O30 C19 1.275 . S
O31 Ho0 2.305 1_556 S
O31 Ho1 2.669 1_556 S
O31 C19 1.256 . S
H32 C5 0.930 . S
H33 C6 0.931 . S
H34 C8 0.934 . S
H35 C9 0.930 . S
H36 C14 0.930 . S
H37 C15 0.931 . S
H38 C17 0.934 . S
H39 C18 0.930 . S
Ho40 C43 2.811 . S
Ho40 O60 2.322 . S
Ho40 O62 2.378 . S
Ho40 O63 2.524 1_554 S
Ho40 O64 2.381 . S
Ho40 O65 2.669 . S
Ho40 O67 2.346 1_655 S
Ho40 O71 2.305 1_554 S
Ho41 C52 2.811 1_655 S
Ho41 O61 2.346 . S
Ho41 O65 2.305 . S
Ho41 O66 2.322 1_654 S
Ho41 O68 2.378 1_554 S
Ho41 O69 2.524 1_655 S
Ho41 O70 2.381 1_554 S
Ho41 O71 2.669 1_554 S
C42 O60 1.259 . S
C42 O61 1.268 . S
C43 Ho40 2.811 . S
C43 C44 1.488 . S
C43 O62 1.215 . S
C43 O63 1.289 1_554 S
C44 C43 1.488 . S
C44 C45 1.348 1_554 S
C44 C49 1.413 . S
C45 C44 1.348 1_556 S
C45 C46 1.442 . S
C45 H72 0.930 . S
C46 C45 1.442 . S
C46 C47 1.381 1_556 S
C46 H73 0.931 . S
C47 C46 1.381 1_554 S
C47 C48 1.321 . S
C48 C47 1.321 . S
C48 C49 1.403 . S
C48 H74 0.934 . S
C49 C44 1.413 . S
C49 C48 1.403 . S
C49 H75 0.930 . S
C50 O64 1.275 . S
C50 O65 1.256 . S
C51 O66 1.259 1_554 S
C51 O67 1.268 . S
C52 Ho41 2.811 1_455 S
C52 C53 1.488 . S
C52 O68 1.215 1_454 S
C52 O69 1.289 . S
C53 C52 1.488 . S
C53 C54 1.348 . S
C53 C58 1.413 1_554 S
C54 C53 1.348 . S
C54 C55 1.442 . S
C54 H76 0.930 . S
C55 C54 1.442 . S
C55 C56 1.381 . S
C55 H77 0.931 . S
C56 C55 1.381 . S
C56 C57 1.321 1_554 S
C57 C56 1.321 1_556 S
C57 C58 1.403 . S
C57 H78 0.934 . S
C58 C53 1.413 1_556 S
C58 C57 1.403 . S
C58 H79 0.930 . S
C59 O70 1.275 . S
C59 O71 1.256 . S
O60 Ho40 2.322 . S
O60 C42 1.259 . S
O61 Ho41 2.346 . S
O61 C42 1.268 . S
O62 Ho40 2.378 . S
O62 C43 1.215 . S
O63 Ho40 2.524 1_556 S
O63 C43 1.289 1_556 S
O64 Ho40 2.381 . S
O64 C50 1.275 . S
O65 Ho40 2.669 . S
O65 Ho41 2.305 . S
O65 C50 1.256 . S
O66 Ho41 2.322 1_456 S
O66 C51 1.259 1_556 S
O67 Ho40 2.346 1_455 S
O67 C51 1.268 . S
O68 Ho41 2.378 1_556 S
O68 C52 1.215 1_656 S
O69 Ho41 2.524 1_455 S
O69 C52 1.289 . S
O70 Ho41 2.381 1_556 S
O70 C59 1.275 . S
O71 Ho40 2.305 1_556 S
O71 Ho41 2.669 1_556 S
O71 C59 1.256 . S
H72 C45 0.930 . S
H73 C46 0.931 . S
H74 C48 0.934 . S
H75 C49 0.930 . S
H76 C54 0.930 . S
H77 C55 0.931 . S
H78 C57 0.934 . S
H79 C58 0.930 . S
Ho80 C83 2.811 . S
Ho80 O100 2.322 . S
Ho80 O102 2.378 . S
Ho80 O103 2.524 . S
Ho80 O104 2.381 . S
Ho80 O105 2.669 . S
Ho80 O107 2.346 1_455 S
Ho80 O111 2.305 . S
Ho81 C92 2.811 1_455 S
Ho81 O101 2.346 . S
Ho81 O105 2.305 . S
Ho81 O106 2.322 1_455 S
Ho81 O108 2.378 . S
Ho81 O109 2.524 1_455 S
Ho81 O110 2.381 . S
Ho81 O111 2.669 . S
C82 O100 1.259 . S
C82 O101 1.268 . S
C83 Ho80 2.811 . S
C83 C84 1.488 . S
C83 O102 1.215 . S
C83 O103 1.289 . S
C84 C83 1.488 . S
C84 C85 1.348 . S
C84 C89 1.413 . S
C85 C84 1.348 . S
C85 C86 1.442 . S
C85 H112 0.930 . S
C86 C85 1.442 . S
C86 C87 1.381 . S
C86 H113 0.931 . S
C87 C86 1.381 . S
C87 C88 1.321 . S
C88 C87 1.321 . S
C88 C89 1.403 . S
C88 H114 0.934 . S
C89 C84 1.413 . S
C89 C88 1.403 . S
C89 H115 0.930 . S
C90 O104 1.275 . S
C90 O105 1.256 . S
C91 O106 1.259 . S
C91 O107 1.268 . S
C92 Ho81 2.811 1_655 S
C92 C93 1.488 . S
C92 O108 1.215 1_655 S
C92 O109 1.289 . S
C93 C92 1.488 . S
C93 C94 1.348 . S
C93 C98 1.413 . S
C94 C93 1.348 . S
C94 C95 1.442 . S
C94 H116 0.930 . S
C95 C94 1.442 . S
C95 C96 1.381 . S
C95 H117 0.931 . S
C96 C95 1.381 . S
C96 C97 1.321 . S
C97 C96 1.321 . S
C97 C98 1.403 . S
C97 H118 0.934 . S
C98 C93 1.413 . S
C98 C97 1.403 . S
C98 H119 0.930 . S
C99 O110 1.275 . S
C99 O111 1.256 . S
O100 Ho80 2.322 . S
O100 C82 1.259 . S
O101 Ho81 2.346 . S
O101 C82 1.268 . S
O102 Ho80 2.378 . S
O102 C83 1.215 . S
O103 Ho80 2.524 . S
O103 C83 1.289 . S
O104 Ho80 2.381 . S
O104 C90 1.275 . S
O105 Ho80 2.669 . S
O105 Ho81 2.305 . S
O105 C90 1.256 . S
O106 Ho81 2.322 1_655 S
O106 C91 1.259 . S
O107 Ho80 2.346 1_655 S
O107 C91 1.268 . S
O108 Ho81 2.378 . S
O108 C92 1.215 1_455 S
O109 Ho81 2.524 1_655 S
O109 C92 1.289 . S
O110 Ho81 2.381 . S
O110 C99 1.275 . S
O111 Ho80 2.305 . S
O111 Ho81 2.669 . S
O111 C99 1.256 . S
H112 C85 0.930 . S
H113 C86 0.931 . S
H114 C88 0.934 . S
H115 C89 0.930 . S
H116 C94 0.930 . S
H117 C95 0.931 . S
H118 C97 0.934 . S
H119 C98 0.930 . S
Ho120 C123 2.811 1_655 S
Ho120 O140 2.322 1_655 S
Ho120 O142 2.378 . S
Ho120 O143 2.524 1_655 S
Ho120 O144 2.381 . S
Ho120 O145 2.669 . S
Ho120 O147 2.346 . S
Ho120 O151 2.305 . S
Ho121 C132 2.811 . S
Ho121 O141 2.346 1_655 S
Ho121 O145 2.305 . S
Ho121 O146 2.322 . S
Ho121 O148 2.378 . S
Ho121 O149 2.524 . S
Ho121 O150 2.381 . S
Ho121 O151 2.669 . S
C122 O140 1.259 . S
C122 O141 1.268 . S
C123 Ho120 2.811 1_455 S
C123 C124 1.488 . S
C123 O142 1.215 1_455 S
C123 O143 1.289 . S
C124 C123 1.488 . S
C124 C125 1.348 . S
C124 C129 1.413 . S
C125 C124 1.348 . S
C125 C126 1.442 . S
C125 H152 0.930 . S
C126 C125 1.442 . S
C126 C127 1.381 . S
C126 H153 0.931 . S
C127 C126 1.381 . S
C127 C128 1.321 . S
C128 C127 1.321 . S
C128 C129 1.403 . S
C128 H154 0.934 . S
C129 C124 1.413 . S
C129 C128 1.403 . S
C129 H155 0.930 . S
C130 O144 1.275 . S
C130 O145 1.256 . S
C131 O146 1.259 . S
C131 O147 1.268 . S
C132 Ho121 2.811 . S
C132 C133 1.488 . S
C132 O148 1.215 . S
C132 O149 1.289 . S
C133 C132 1.488 . S
C133 C134 1.348 . S
C133 C138 1.413 . S
C134 C133 1.348 . S
C134 C135 1.442 . S
C134 H156 0.930 . S
C135 C134 1.442 . S
C135 C136 1.381 . S
C135 H157 0.931 . S
C136 C135 1.381 . S
C136 C137 1.321 . S
C137 C136 1.321 . S
C137 C138 1.403 . S
C137 H158 0.934 . S
C138 C133 1.413 . S
C138 C137 1.403 . S
C138 H159 0.930 . S
C139 O150 1.275 . S
C139 O151 1.256 . S
O140 Ho120 2.322 1_455 S
O140 C122 1.259 . S
O141 Ho121 2.346 1_455 S
O141 C122 1.268 . S
O142 Ho120 2.378 . S
O142 C123 1.215 1_655 S
O143 Ho120 2.524 1_455 S
O143 C123 1.289 . S
O144 Ho120 2.381 . S
O144 C130 1.275 . S
O145 Ho120 2.669 . S
O145 Ho121 2.305 . S
O145 C130 1.256 . S
O146 Ho121 2.322 . S
O146 C131 1.259 . S
O147 Ho120 2.346 . S
O147 C131 1.268 . S
O148 Ho121 2.378 . S
O148 C132 1.215 . S
O149 Ho121 2.524 . S
O149 C132 1.289 . S
O150 Ho121 2.381 . S
O150 C139 1.275 . S
O151 Ho120 2.305 . S
O151 Ho121 2.669 . S
O151 C139 1.256 . S
H152 C125 0.930 . S
H153 C126 0.931 . S
H154 C128 0.934 . S
H155 C129 0.930 . S
H156 C134 0.930 . S
H157 C135 0.931 . S
H158 C137 0.934 . S
H159 C138 0.930 . S
Ho160 C163 2.811 . S
Ho160 O180 2.322 . S
Ho160 O182 2.378 . S
Ho160 O183 2.524 1_554 S
Ho160 O184 2.381 . S
Ho160 O185 2.669 . S
Ho160 O187 2.346 . S
Ho160 O191 2.305 1_554 S
Ho161 C172 2.811 . S
Ho161 O181 2.346 . S
Ho161 O185 2.305 . S
Ho161 O186 2.322 1_554 S
Ho161 O188 2.378 1_554 S
Ho161 O189 2.524 . S
Ho161 O190 2.381 1_554 S
Ho161 O191 2.669 1_554 S
C162 O180 1.259 . S
C162 O181 1.268 . S
C163 Ho160 2.811 . S
C163 C164 1.488 . S
C163 O182 1.215 . S
C163 O183 1.289 1_554 S
C164 C163 1.488 . S
C164 C165 1.348 1_554 S
C164 C169 1.413 . S
C165 C164 1.348 1_556 S
C165 C166 1.442 . S
C165 H192 0.930 . S
C166 C165 1.442 . S
C166 C167 1.381 1_556 S
C166 H193 0.931 . S
C167 C166 1.381 1_554 S
C167 C168 1.321 . S
C168 C167 1.321 . S
C168 C169 1.403 . S
C168 H194 0.934 . S
C169 C164 1.413 . S
C169 C168 1.403 . S
C169 H195 0.930 . S
C170 O184 1.275 . S
C170 O185 1.256 . S
C171 O186 1.259 1_554 S
C171 O187 1.268 . S
C172 Ho161 2.811 . S
C172 C173 1.488 . S
C172 O188 1.215 1_554 S
C172 O189 1.289 . S
C173 C172 1.488 . S
C173 C174 1.348 . S
C173 C178 1.413 1_554 S
C174 C173 1.348 . S
C174 C175 1.442 . S
C174 H196 0.930 . S
C175 C174 1.442 . S
C175 C176 1.381 . S
C175 H197 0.931 . S
C176 C175 1.381 . S
C176 C177 1.321 1_554 S
C177 C176 1.321 1_556 S
C177 C178 1.403 . S
C177 H198 0.934 . S
C178 C173 1.413 1_556 S
C178 C177 1.403 . S
C178 H199 0.930 . S
C179 O190 1.275 . S
C179 O191 1.256 . S
O180 Ho160 2.322 . S
O180 C162 1.259 . S
O181 Ho161 2.346 . S
O181 C162 1.268 . S
O182 Ho160 2.378 . S
O182 C163 1.215 . S
O183 Ho160 2.524 1_556 S
O183 C163 1.289 1_556 S
O184 Ho160 2.381 . S
O184 C170 1.275 . S
O185 Ho160 2.669 . S
O185 Ho161 2.305 . S
O185 C170 1.256 . S
O186 Ho161 2.322 1_556 S
O186 C171 1.259 1_556 S
O187 Ho160 2.346 . S
O187 C171 1.268 . S
O188 Ho161 2.378 1_556 S
O188 C172 1.215 1_556 S
O189 Ho161 2.524 . S
O189 C172 1.289 . S
O190 Ho161 2.381 1_556 S
O190 C179 1.275 . S
O191 Ho160 2.305 1_556 S
O191 Ho161 2.669 1_556 S
O191 C179 1.256 . S
H192 C165 0.930 . S
H193 C166 0.931 . S
H194 C168 0.934 . S
H195 C169 0.930 . S
H196 C174 0.930 . S
H197 C175 0.931 . S
H198 C177 0.934 . S
H199 C178 0.930 . S
Ho200 C203 2.811 . S
Ho200 O220 2.322 . S
Ho200 O222 2.378 . S
Ho200 O223 2.524 1_554 S
Ho200 O224 2.381 . S
Ho200 O225 2.669 . S
Ho200 O227 2.346 . S
Ho200 O231 2.305 1_554 S
Ho201 C212 2.811 . S
Ho201 O221 2.346 . S
Ho201 O225 2.305 . S
Ho201 O226 2.322 1_554 S
Ho201 O228 2.378 1_554 S
Ho201 O229 2.524 . S
Ho201 O230 2.381 1_554 S
Ho201 O231 2.669 1_554 S
C202 O220 1.259 . S
C202 O221 1.268 . S
C203 Ho200 2.811 . S
C203 C204 1.488 . S
C203 O222 1.215 . S
C203 O223 1.289 1_554 S
C204 C203 1.488 . S
C204 C205 1.348 1_554 S
C204 C209 1.413 . S
C205 C204 1.348 1_556 S
C205 C206 1.442 . S
C205 H232 0.930 . S
C206 C205 1.442 . S
C206 C207 1.381 1_556 S
C206 H233 0.931 . S
C207 C206 1.381 1_554 S
C207 C208 1.321 . S
C208 C207 1.321 . S
C208 C209 1.403 . S
C208 H234 0.934 . S
C209 C204 1.413 . S
C209 C208 1.403 . S
C209 H235 0.930 . S
C210 O224 1.275 . S
C210 O225 1.256 . S
C211 O226 1.259 1_554 S
C211 O227 1.268 . S
C212 Ho201 2.811 . S
C212 C213 1.488 . S
C212 O228 1.215 1_554 S
C212 O229 1.289 . S
C213 C212 1.488 . S
C213 C214 1.348 . S
C213 C218 1.413 1_554 S
C214 C213 1.348 . S
C214 C215 1.442 . S
C214 H236 0.930 . S
C215 C214 1.442 . S
C215 C216 1.381 . S
C215 H237 0.931 . S
C216 C215 1.381 . S
C216 C217 1.321 1_554 S
C217 C216 1.321 1_556 S
C217 C218 1.403 . S
C217 H238 0.934 . S
C218 C213 1.413 1_556 S
C218 C217 1.403 . S
C218 H239 0.930 . S
C219 O230 1.275 . S
C219 O231 1.256 . S
O220 Ho200 2.322 . S
O220 C202 1.259 . S
O221 Ho201 2.346 . S
O221 C202 1.268 . S
O222 Ho200 2.378 . S
O222 C203 1.215 . S
O223 Ho200 2.524 1_556 S
O223 C203 1.289 1_556 S
O224 Ho200 2.381 . S
O224 C210 1.275 . S
O225 Ho200 2.669 . S
O225 Ho201 2.305 . S
O225 C210 1.256 . S
O226 Ho201 2.322 1_556 S
O226 C211 1.259 1_556 S
O227 Ho200 2.346 . S
O227 C211 1.268 . S
O228 Ho201 2.378 1_556 S
O228 C212 1.215 1_556 S
O229 Ho201 2.524 . S
O229 C212 1.289 . S
O230 Ho201 2.381 1_556 S
O230 C219 1.275 . S
O231 Ho200 2.305 1_556 S
O231 Ho201 2.669 1_556 S
O231 C219 1.256 . S
H232 C205 0.930 . S
H233 C206 0.931 . S
H234 C208 0.934 . S
H235 C209 0.930 . S
H236 C214 0.930 . S
H237 C215 0.931 . S
H238 C217 0.934 . S
H239 C218 0.930 . S
Ho240 C243 2.811 . S
Ho240 O260 2.322 . S
Ho240 O262 2.378 . S
Ho240 O263 2.524 . S
Ho240 O264 2.381 . S
Ho240 O265 2.669 . S
Ho240 O267 2.346 . S
Ho240 O271 2.305 . S
Ho241 C252 2.811 . S
Ho241 O261 2.346 . S
Ho241 O265 2.305 . S
Ho241 O266 2.322 . S
Ho241 O268 2.378 . S
Ho241 O269 2.524 . S
Ho241 O270 2.381 . S
Ho241 O271 2.669 . S
C242 O260 1.259 . S
C242 O261 1.268 . S
C243 Ho240 2.811 . S
C243 C244 1.488 . S
C243 O262 1.215 . S
C243 O263 1.289 . S
C244 C243 1.488 . S
C244 C245 1.348 . S
C244 C249 1.413 . S
C245 C244 1.348 . S
C245 C246 1.442 . S
C245 H272 0.930 . S
C246 C245 1.442 . S
C246 C247 1.381 . S
C246 H273 0.931 . S
C247 C246 1.381 . S
C247 C248 1.321 . S
C248 C247 1.321 . S
C248 C249 1.403 . S
C248 H274 0.934 . S
C249 C244 1.413 . S
C249 C248 1.403 . S
C249 H275 0.930 . S
C250 O264 1.275 . S
C250 O265 1.256 . S
C251 O266 1.259 . S
C251 O267 1.268 . S
C252 Ho241 2.811 . S
C252 C253 1.488 . S
C252 O268 1.215 . S
C252 O269 1.289 . S
C253 C252 1.488 . S
C253 C254 1.348 . S
C253 C258 1.413 . S
C254 C253 1.348 . S
C254 C255 1.442 . S
C254 H276 0.930 . S
C255 C254 1.442 . S
C255 C256 1.381 . S
C255 H277 0.931 . S
C256 C255 1.381 . S
C256 C257 1.321 . S
C257 C256 1.321 . S
C257 C258 1.403 . S
C257 H278 0.934 . S
C258 C253 1.413 . S
C258 C257 1.403 . S
C258 H279 0.930 . S
C259 O270 1.275 . S
C259 O271 1.256 . S
O260 Ho240 2.322 . S
O260 C242 1.259 . S
O261 Ho241 2.346 . S
O261 C242 1.268 . S
O262 Ho240 2.378 . S
O262 C243 1.215 . S
O263 Ho240 2.524 . S
O263 C243 1.289 . S
O264 Ho240 2.381 . S
O264 C250 1.275 . S
O265 Ho240 2.669 . S
O265 Ho241 2.305 . S
O265 C250 1.256 . S
O266 Ho241 2.322 . S
O266 C251 1.259 . S
O267 Ho240 2.346 . S
O267 C251 1.268 . S
O268 Ho241 2.378 . S
O268 C252 1.215 . S
O269 Ho241 2.524 . S
O269 C252 1.289 . S
O270 Ho241 2.381 . S
O270 C259 1.275 . S
O271 Ho240 2.305 . S
O271 Ho241 2.669 . S
O271 C259 1.256 . S
H272 C245 0.930 . S
H273 C246 0.931 . S
H274 C248 0.934 . S
H275 C249 0.930 . S
H276 C254 0.930 . S
H277 C255 0.931 . S
H278 C257 0.934 . S
H279 C258 0.930 . S
Ho280 C283 2.811 . S
Ho280 O300 2.322 . S
Ho280 O302 2.378 . S
Ho280 O303 2.524 . S
Ho280 O304 2.381 . S
Ho280 O305 2.669 . S
Ho280 O307 2.346 . S
Ho280 O311 2.305 . S
Ho281 C292 2.811 . S
Ho281 O301 2.346 . S
Ho281 O305 2.305 . S
Ho281 O306 2.322 . S
Ho281 O308 2.378 . S
Ho281 O309 2.524 . S
Ho281 O310 2.381 . S
Ho281 O311 2.669 . S
C282 O300 1.259 . S
C282 O301 1.268 . S
C283 Ho280 2.811 . S
C283 C284 1.488 . S
C283 O302 1.215 . S
C283 O303 1.289 . S
C284 C283 1.488 . S
C284 C285 1.348 . S
C284 C289 1.413 . S
C285 C284 1.348 . S
C285 C286 1.442 . S
C285 H312 0.930 . S
C286 C285 1.442 . S
C286 C287 1.381 . S
C286 H313 0.931 . S
C287 C286 1.381 . S
C287 C288 1.321 . S
C288 C287 1.321 . S
C288 C289 1.403 . S
C288 H314 0.934 . S
C289 C284 1.413 . S
C289 C288 1.403 . S
C289 H315 0.930 . S
C290 O304 1.275 . S
C290 O305 1.256 . S
C291 O306 1.259 . S
C291 O307 1.268 . S
C292 Ho281 2.811 . S
C292 C293 1.488 . S
C292 O308 1.215 . S
C292 O309 1.289 . S
C293 C292 1.488 . S
C293 C294 1.348 . S
C293 C298 1.413 . S
C294 C293 1.348 . S
C294 C295 1.442 . S
C294 H316 0.930 . S
C295 C294 1.442 . S
C295 C296 1.381 . S
C295 H317 0.931 . S
C296 C295 1.381 . S
C296 C297 1.321 . S
C297 C296 1.321 . S
C297 C298 1.403 . S
C297 H318 0.934 . S
C298 C293 1.413 . S
C298 C297 1.403 . S
C298 H319 0.930 . S
C299 O310 1.275 . S
C299 O311 1.256 . S
O300 Ho280 2.322 . S
O300 C282 1.259 . S
O301 Ho281 2.346 . S
O301 C282 1.268 . S
O302 Ho280 2.378 . S
O302 C283 1.215 . S
O303 Ho280 2.524 . S
O303 C283 1.289 . S
O304 Ho280 2.381 . S
O304 C290 1.275 . S
O305 Ho280 2.669 . S
O305 Ho281 2.305 . S
O305 C290 1.256 . S
O306 Ho281 2.322 . S
O306 C291 1.259 . S
O307 Ho280 2.346 . S
O307 C291 1.268 . S
O308 Ho281 2.378 . S
O308 C292 1.215 . S
O309 Ho281 2.524 . S
O309 C292 1.289 . S
O310 Ho281 2.381 . S
O310 C299 1.275 . S
O311 Ho280 2.305 . S
O311 Ho281 2.669 . S
O311 C299 1.256 . S
H312 C285 0.930 . S
H313 C286 0.931 . S
H314 C288 0.934 . S
H315 C289 0.930 . S
H316 C294 0.930 . S
H317 C295 0.931 . S
H318 C297 0.934 . S
H319 C298 0.930 . S
C320 C321 1.387 . S
C320 H324 0.950 . S
C320 C329 1.390 . S
C321 C320 1.387 . S
C321 C323 1.387 1_554 S
H322 C329 0.950 . S
C323 C321 1.387 1_556 S
C323 C325 1.390 . S
C323 H327 0.950 . S
H324 C320 0.950 . S
C325 C323 1.390 . S
C325 C326 1.387 1_556 S
C325 H328 0.950 . S
C326 C325 1.387 1_554 S
C326 C329 1.387 . S
H327 C323 0.950 . S
H328 C325 0.950 . S
C329 C320 1.390 . S
C329 H322 0.950 . S
C329 C326 1.387 . S
C330 C331 1.387 1_556 S
C330 H334 0.950 . S
C330 C339 1.390 . S
C331 C330 1.387 1_554 S
C331 C333 1.387 . S
H332 C339 0.950 . S
C333 C331 1.387 . S
C333 C335 1.390 . S
C333 H337 0.950 . S
H334 C330 0.950 . S
C335 C333 1.390 . S
C335 C336 1.387 . S
C335 H338 0.950 . S
C336 C335 1.387 . S
C336 C339 1.387 1_554 S
H337 C333 0.950 . S
H338 C335 0.950 . S
C339 C330 1.390 . S
C339 H332 0.950 . S
C339 C336 1.387 1_556 S
C340 C341 1.387 . S
C340 H344 0.950 . S
C340 C349 1.390 . S
C341 C340 1.387 . S
C341 C343 1.387 . S
H342 C349 0.950 . S
C343 C341 1.387 . S
C343 C345 1.390 . S
C343 H347 0.950 . S
H344 C340 0.950 . S
C345 C343 1.390 . S
C345 C346 1.387 . S
C345 H348 0.950 . S
C346 C345 1.387 . S
C346 C349 1.387 . S
H347 C343 0.950 . S
H348 C345 0.950 . S
C349 C340 1.390 . S
C349 H342 0.950 . S
C349 C346 1.387 . S
C350 C351 1.387 . S
C350 H354 0.950 . S
C350 C359 1.390 . S
C351 C350 1.387 . S
C351 C353 1.387 . S
H352 C359 0.950 . S
C353 C351 1.387 . S
C353 C355 1.390 . S
C353 H357 0.950 . S
H354 C350 0.950 . S
C355 C353 1.390 . S
C355 C356 1.387 . S
C355 H358 0.950 . S
C356 C355 1.387 . S
C356 C359 1.387 . S
H357 C353 0.950 . S
H358 C355 0.950 . S
C359 C350 1.390 . S
C359 H352 0.950 . S
C359 C356 1.387 . S
C360 C361 1.387 1_455 S
C360 H364 0.950 1_455 S
C360 C369 1.390 . S
C361 C360 1.387 1_655 S
C361 C363 1.387 1_654 S
H362 C369 0.950 . S
C363 C361 1.387 1_456 S
C363 C365 1.390 . S
C363 H367 0.950 1_455 S
H364 C360 0.950 1_655 S
C365 C363 1.390 . S
C365 C366 1.387 1_556 S
C365 H368 0.950 . S
C366 C365 1.387 1_554 S
C366 C369 1.387 . S
H367 C363 0.950 1_655 S
H368 C365 0.950 . S
C369 C360 1.390 . S
C369 H362 0.950 . S
C369 C366 1.387 . S
C370 C371 1.387 1_656 S
C370 H374 0.950 1_655 S
C370 C379 1.390 . S
C371 C370 1.387 1_454 S
C371 C373 1.387 . S
H372 C379 0.950 . S
C373 C371 1.387 . S
C373 C375 1.390 1_455 S
C373 H377 0.950 . S
H374 C370 0.950 1_455 S
C375 C373 1.390 1_655 S
C375 C376 1.387 . S
C375 H378 0.950 . S
C376 C375 1.387 . S
C376 C379 1.387 1_554 S
H377 C373 0.950 . S
H378 C375 0.950 . S
C379 C370 1.390 . S
C379 H372 0.950 . S
C379 C376 1.387 1_556 S
C380 C381 1.387 . S
C380 H384 0.950 . S
C380 C389 1.390 1_455 S
C381 C380 1.387 . S
C381 C383 1.387 . S
H382 C389 0.950 . S
C383 C381 1.387 . S
C383 C385 1.390 . S
C383 H387 0.950 . S
H384 C380 0.950 . S
C385 C383 1.390 . S
C385 C386 1.387 1_455 S
C385 H388 0.950 . S
C386 C385 1.387 1_655 S
C386 C389 1.387 . S
H387 C383 0.950 . S
H388 C385 0.950 . S
C389 C380 1.390 1_655 S
C389 H382 0.950 . S
C389 C386 1.387 . S
C390 C391 1.387 . S
C390 H394 0.950 . S
C390 C399 1.390 . S
C391 C390 1.387 . S
C391 C393 1.387 . S
H392 C399 0.950 1_455 S
C393 C391 1.387 . S
C393 C395 1.390 . S
C393 H397 0.950 . S
H394 C390 0.950 . S
C395 C393 1.390 . S
C395 C396 1.387 1_655 S
C395 H398 0.950 1_655 S
C396 C395 1.387 1_455 S
C396 C399 1.387 1_455 S
H397 C393 0.950 . S
H398 C395 0.950 1_455 S
C399 C390 1.390 . S
C399 H392 0.950 1_655 S
C399 C396 1.387 1_655 S
C400 C401 1.387 . S
C400 H404 0.950 . S
C400 C409 1.390 1_455 S
C401 C400 1.387 . S
C401 C403 1.387 1_554 S
H402 C409 0.950 . S
C403 C401 1.387 1_556 S
C403 C405 1.390 1_455 S
C403 H407 0.950 . S
H404 C400 0.950 . S
C405 C403 1.390 1_655 S
C405 C406 1.387 1_556 S
C405 H408 0.950 . S
C406 C405 1.387 1_554 S
C406 C409 1.387 . S
H407 C403 0.950 . S
H408 C405 0.950 . S
C409 C400 1.390 1_655 S
C409 H402 0.950 . S
C409 C406 1.387 . S
C410 C411 1.387 . S
C410 H414 0.950 . S
C410 C419 1.390 1_455 S
C411 C410 1.387 . S
C411 C413 1.387 . S
H412 C419 0.950 . S
C413 C411 1.387 . S
C413 C415 1.390 1_455 S
C413 H417 0.950 . S
H414 C410 0.950 . S
C415 C413 1.390 1_655 S
C415 C416 1.387 . S
C415 H418 0.950 . S
C416 C415 1.387 . S
C416 C419 1.387 . S
H417 C413 0.950 . S
H418 C415 0.950 . S
C419 C410 1.390 1_655 S
C419 H412 0.950 . S
C419 C416 1.387 . S
C420 C421 1.387 . S
C420 H424 0.950 . S
C420 C429 1.390 1_565 S
C421 C420 1.387 . S
C421 C423 1.387 1_554 S
H422 C429 0.950 . S
C423 C421 1.387 1_556 S
C423 C425 1.390 1_565 S
C423 H427 0.950 . S
H424 C420 0.950 . S
C425 C423 1.390 1_545 S
C425 C426 1.387 1_556 S
C425 H428 0.950 . S
C426 C425 1.387 1_554 S
C426 C429 1.387 . S
H427 C423 0.950 . S
H428 C425 0.950 . S
C429 C420 1.390 1_545 S
C429 H422 0.950 . S
C429 C426 1.387 . S
C430 C431 1.387 . S
C430 H434 0.950 . S
C430 C439 1.390 1_545 S
C431 C430 1.387 . S
C431 C433 1.387 . S
H432 C439 0.950 . S
C433 C431 1.387 . S
C433 C435 1.390 1_545 S
C433 H437 0.950 . S
H434 C430 0.950 . S
C435 C433 1.390 1_565 S
C435 C436 1.387 . S
C435 H438 0.950 . S
C436 C435 1.387 . S
C436 C439 1.387 . S
H437 C433 0.950 . S
H438 C435 0.950 . S
C439 C430 1.390 1_565 S
C439 H432 0.950 . S
C439 C436 1.387 . S
C440 C441 1.387 . S
C440 H444 0.950 . S
C440 C449 1.390 . S
C441 C440 1.387 . S
C441 C443 1.387 1_554 S
H442 C449 0.950 . S
C443 C441 1.387 1_556 S
C443 C445 1.390 . S
C443 H447 0.950 . S
H444 C440 0.950 . S
C445 C443 1.390 . S
C445 C446 1.387 1_556 S
C445 H448 0.950 . S
C446 C445 1.387 1_554 S
C446 C449 1.387 . S
H447 C443 0.950 . S
H448 C445 0.950 . S
C449 C440 1.390 . S
C449 H442 0.950 . S
C449 C446 1.387 . S
C450 C451 1.387 1_556 S
C450 H454 0.950 . S
C450 C459 1.390 . S
C451 C450 1.387 1_554 S
C451 C453 1.387 . S
H452 C459 0.950 . S
C453 C451 1.387 . S
C453 C455 1.390 . S
C453 H457 0.950 . S
H454 C450 0.950 . S
C455 C453 1.390 . S
C455 C456 1.387 . S
C455 H458 0.950 . S
C456 C455 1.387 . S
C456 C459 1.387 1_554 S
H457 C453 0.950 . S
H458 C455 0.950 . S
C459 C450 1.390 . S
C459 H452 0.950 . S
C459 C456 1.387 1_556 S
C460 C461 1.387 . S
C460 H464 0.950 . S
C460 C469 1.390 . S
C461 C460 1.387 . S
C461 C463 1.387 . S
H462 C469 0.950 . S
C463 C461 1.387 . S
C463 C465 1.390 . S
C463 H467 0.950 . S
H464 C460 0.950 . S
C465 C463 1.390 . S
C465 C466 1.387 . S
C465 H468 0.950 . S
C466 C465 1.387 . S
C466 C469 1.387 . S
H467 C463 0.950 . S
H468 C465 0.950 . S
C469 C460 1.390 . S
C469 H462 0.950 . S
C469 C466 1.387 . S
C470 C471 1.387 . S
C470 H474 0.950 . S
C470 C479 1.390 . S
C471 C470 1.387 . S
C471 C473 1.387 . S
H472 C479 0.950 . S
C473 C471 1.387 . S
C473 C475 1.390 . S
C473 H477 0.950 . S
H474 C470 0.950 . S
C475 C473 1.390 . S
C475 C476 1.387 . S
C475 H478 0.950 . S
C476 C475 1.387 . S
C476 C479 1.387 . S
H477 C473 0.950 . S
H478 C475 0.950 . S
C479 C470 1.390 . S
C479 H472 0.950 . S
C479 C476 1.387 . S
C480 C481 1.387 . S
C480 H484 0.950 . S
C480 C489 1.390 1_455 S
C481 C480 1.387 . S
C481 C483 1.387 . S
H482 C489 0.950 . S
C483 C481 1.387 . S
C483 C485 1.390 1_455 S
C483 H487 0.950 . S
H484 C480 0.950 . S
C485 C483 1.390 1_655 S
C485 C486 1.387 . S
C485 H488 0.950 . S
C486 C485 1.387 . S
C486 C489 1.387 . S
H487 C483 0.950 . S
H488 C485 0.950 . S
C489 C480 1.390 1_655 S
C489 H482 0.950 . S
C489 C486 1.387 . S
C490 C491 1.387 . S
C490 H494 0.950 . S
C490 C499 1.390 1_655 S
C491 C490 1.387 . S
C491 C493 1.387 . S
H492 C499 0.950 . S
C493 C491 1.387 . S
C493 C495 1.390 1_655 S
C493 H497 0.950 . S
H494 C490 0.950 . S
C495 C493 1.390 1_455 S
C495 C496 1.387 . S
C495 H498 0.950 . S
C496 C495 1.387 . S
C496 C499 1.387 . S
H497 C493 0.950 . S
H498 C495 0.950 . S
C499 C490 1.390 1_455 S
C499 H492 0.950 . S
C499 C496 1.387 . S
C500 C501 1.387 . S
C500 H504 0.950 . S
C500 C509 1.390 1_655 S
C501 C500 1.387 . S
C501 C503 1.387 . S
H502 C509 0.950 . S
C503 C501 1.387 . S
C503 C505 1.390 1_655 S
C503 H507 0.950 . S
H504 C500 0.950 . S
C505 C503 1.390 1_455 S
C505 C506 1.387 . S
C505 H508 0.950 . S
C506 C505 1.387 . S
C506 C509 1.387 . S
H507 C503 0.950 . S
H508 C505 0.950 . S
C509 C500 1.390 1_455 S
C509 H502 0.950 . S
C509 C506 1.387 . S
C510 C511 1.387 . S
C510 H514 0.950 . S
C510 C519 1.390 1_655 S
C511 C510 1.387 . S
C511 C513 1.387 . S
H512 C519 0.950 . S
C513 C511 1.387 . S
C513 C515 1.390 1_655 S
C513 H517 0.950 . S
H514 C510 0.950 . S
C515 C513 1.390 1_455 S
C515 C516 1.387 . S
C515 H518 0.950 . S
C516 C515 1.387 . S
C516 C519 1.387 . S
H517 C513 0.950 . S
H518 C515 0.950 . S
C519 C510 1.390 1_455 S
C519 H512 0.950 . S
C519 C516 1.387 . S
C520 C521 1.387 . S
C520 H524 0.950 . S
C520 C529 1.390 . S
C521 C520 1.387 . S
C521 C523 1.387 . S
H522 C529 0.950 . S
C523 C521 1.387 . S
C523 C525 1.390 . S
C523 H527 0.950 . S
H524 C520 0.950 . S
C525 C523 1.390 . S
C525 C526 1.387 . S
C525 H528 0.950 . S
C526 C525 1.387 . S
C526 C529 1.387 . S
H527 C523 0.950 . S
H528 C525 0.950 . S
C529 C520 1.390 . S
C529 H522 0.950 . S
C529 C526 1.387 . S
C530 C531 1.387 . S
C530 H534 0.950 . S
C530 C539 1.390 . S
C531 C530 1.387 . S
C531 C533 1.387 . S
H532 C539 0.950 . S
C533 C531 1.387 . S
C533 C535 1.390 . S
C533 H537 0.950 . S
H534 C530 0.950 . S
C535 C533 1.390 . S
C535 C536 1.387 . S
C535 H538 0.950 . S
C536 C535 1.387 . S
C536 C539 1.387 . S
H537 C533 0.950 . S
H538 C535 0.950 . S
C539 C530 1.390 . S
C539 H532 0.950 . S
C539 C536 1.387 . S
C540 C541 1.387 . S
C540 H544 0.950 . S
C540 C549 1.390 . S
C541 C540 1.387 . S
C541 C543 1.387 . S
H542 C549 0.950 . S
C543 C541 1.387 . S
C543 C545 1.390 . S
C543 H547 0.950 . S
H544 C540 0.950 . S
C545 C543 1.390 . S
C545 C546 1.387 . S
C545 H548 0.950 . S
C546 C545 1.387 . S
C546 C549 1.387 . S
H547 C543 0.950 . S
H548 C545 0.950 . S
C549 C540 1.390 . S
C549 H542 0.950 . S
C549 C546 1.387 . S
C550 C551 1.387 . S
C550 H554 0.950 . S
C550 C559 1.390 . S
C551 C550 1.387 . S
C551 C553 1.387 . S
H552 C559 0.950 . S
C553 C551 1.387 . S
C553 C555 1.390 . S
C553 H557 0.950 . S
H554 C550 0.950 . S
C555 C553 1.390 . S
C555 C556 1.387 . S
C555 H558 0.950 . S
C556 C555 1.387 . S
C556 C559 1.387 . S
H557 C553 0.950 . S
H558 C555 0.950 . S
C559 C550 1.390 . S
C559 H552 0.950 . S
C559 C556 1.387 . S
C321 C11 2.279 . S
C326 C2 2.279 . S
C331 C51 2.280 . S
C336 C42 2.280 . S
C341 C91 2.279 . S
C346 C82 2.279 . S
C351 C131 2.279 . S
C356 C122 2.279 . S
C361 C171 2.279 . S
C366 C162 2.279 . S
C371 C202 2.280 . S
C376 C211 2.280 . S
C381 C251 2.281 . S
C386 C242 2.281 . S
C391 C282 2.281 . S
C396 C291 2.281 . S
C401 C56 2.939 . S
C406 C7 2.939 . S
C411 C127 2.936 . S
C416 C96 2.936 . S
C421 C167 2.939 . S
C426 C216 2.939 . S
C431 C256 2.939 . S
C436 C287 2.939 . S
C441 C16 2.061 . S
C446 C207 2.061 . S
C451 C176 2.058 . S
C456 C47 2.058 . S
C461 C87 2.060 . S
C466 C296 2.060 . S
C471 C136 2.061 . S
C476 C247 2.061 . S
C481 C10 1.491 . S
C486 C130 1.491 . S
C491 C50 1.593 . S
C496 C90 1.593 . S
C501 C59 1.492 . S
C506 C99 1.492 . S
C511 C139 1.593 . S
C516 C19 1.593 . S
C521 C170 1.493 . S
C526 C290 1.493 . S
C531 C210 1.595 . S
C536 C250 1.595 . S
C541 C219 1.493 . S
C546 C259 1.493 . S
C551 C299 1.592 . S
C556 C179 1.592 . S
