# Generated by pormake.
# Topology tzs, (4)-cn, num edge types: 1
# Building blocks:
#     Node 0, Type 0, BuildingBlock: NAHDIM_clean_sbu_0, # of connection points: 4
#     Node 1, Type 0, BuildingBlock: NAHDIM_clean_sbu_0, # of connection points: 4
#     Node 2, Type 0, BuildingBlock: NAHDIM_clean_sbu_0, # of connection points: 4
#     Node 3, Type 0, BuildingBlock: NAHDIM_clean_sbu_0, # of connection points: 4
#     Node 4, Type 0, BuildingBlock: NAHDIM_clean_sbu_0, # of connection points: 4
#     Node 5, Type 0, BuildingBlock: NAHDIM_clean_sbu_0, # of connection points: 4
#     Node 6, Type 0, BuildingBlock: NAHDIM_clean_sbu_0, # of connection points: 4
#     Node 7, Type 0, BuildingBlock: NAHDIM_clean_sbu_0, # of connection points: 4
#     Node 8, Type 0, BuildingBlock: NAHDIM_clean_sbu_0, # of connection points: 4
#     Node 9, Type 0, BuildingBlock: NAHDIM_clean_sbu_0, # of connection points: 4
#     Node 10, Type 0, BuildingBlock: NAHDIM_clean_sbu_0, # of connection points: 4
#     Node 11, Type 0, BuildingBlock: NAHDIM_clean_sbu_0, # of connection points: 4
#     Node 12, Type 0, BuildingBlock: NAHDIM_clean_sbu_0, # of connection points: 4
#     Node 13, Type 0, BuildingBlock: NAHDIM_clean_sbu_0, # of connection points: 4
#     Node 14, Type 0, BuildingBlock: NAHDIM_clean_sbu_0, # of connection points: 4
#     Node 15, Type 0, BuildingBlock: NAHDIM_clean_sbu_0, # of connection points: 4
#     Edge 16, Type (0, 0), BuildingBlock: EYOCIG_clean_linker_4, # of connection points: 2
#     Edge 17, Type (0, 0), BuildingBlock: EYOCIG_clean_linker_4, # of connection points: 2
#     Edge 18, Type (0, 0), BuildingBlock: EYOCIG_clean_linker_4, # of connection points: 2
#     Edge 19, Type (0, 0), BuildingBlock: EYOCIG_clean_linker_4, # of connection points: 2
#     Edge 20, Type (0, 0), BuildingBlock: EYOCIG_clean_linker_4, # of connection points: 2
#     Edge 21, Type (0, 0), BuildingBlock: EYOCIG_clean_linker_4, # of connection points: 2
#     Edge 22, Type (0, 0), BuildingBlock: EYOCIG_clean_linker_4, # of connection points: 2
#     Edge 23, Type (0, 0), BuildingBlock: EYOCIG_clean_linker_4, # of connection points: 2
#     Edge 24, Type (0, 0), BuildingBlock: EYOCIG_clean_linker_4, # of connection points: 2
#     Edge 25, Type (0, 0), BuildingBlock: EYOCIG_clean_linker_4, # of connection points: 2
#     Edge 26, Type (0, 0), BuildingBlock: EYOCIG_clean_linker_4, # of connection points: 2
#     Edge 27, Type (0, 0), BuildingBlock: EYOCIG_clean_linker_4, # of connection points: 2
#     Edge 28, Type (0, 0), BuildingBlock: EYOCIG_clean_linker_4, # of connection points: 2
#     Edge 29, Type (0, 0), BuildingBlock: EYOCIG_clean_linker_4, # of connection points: 2
#     Edge 30, Type (0, 0), BuildingBlock: EYOCIG_clean_linker_4, # of connection points: 2
#     Edge 31, Type (0, 0), BuildingBlock: EYOCIG_clean_linker_4, # of connection points: 2
#     Edge 32, Type (0, 0), BuildingBlock: EYOCIG_clean_linker_4, # of connection points: 2
#     Edge 33, Type (0, 0), BuildingBlock: EYOCIG_clean_linker_4, # of connection points: 2
#     Edge 34, Type (0, 0), BuildingBlock: EYOCIG_clean_linker_4, # of connection points: 2
#     Edge 35, Type (0, 0), BuildingBlock: EYOCIG_clean_linker_4, # of connection points: 2
#     Edge 36, Type (0, 0), BuildingBlock: EYOCIG_clean_linker_4, # of connection points: 2
#     Edge 37, Type (0, 0), BuildingBlock: EYOCIG_clean_linker_4, # of connection points: 2
#     Edge 38, Type (0, 0), BuildingBlock: EYOCIG_clean_linker_4, # of connection points: 2
#     Edge 39, Type (0, 0), BuildingBlock: EYOCIG_clean_linker_4, # of connection points: 2
#     Edge 40, Type (0, 0), BuildingBlock: EYOCIG_clean_linker_4, # of connection points: 2
#     Edge 41, Type (0, 0), BuildingBlock: EYOCIG_clean_linker_4, # of connection points: 2
#     Edge 42, Type (0, 0), BuildingBlock: EYOCIG_clean_linker_4, # of connection points: 2
#     Edge 43, Type (0, 0), BuildingBlock: EYOCIG_clean_linker_4, # of connection points: 2
#     Edge 44, Type (0, 0), BuildingBlock: EYOCIG_clean_linker_4, # of connection points: 2
#     Edge 45, Type (0, 0), BuildingBlock: EYOCIG_clean_linker_4, # of connection points: 2
#     Edge 46, Type (0, 0), BuildingBlock: EYOCIG_clean_linker_4, # of connection points: 2
#     Edge 47, Type (0, 0), BuildingBlock: EYOCIG_clean_linker_4, # of connection points: 2
# Relax obj value: 0.068
# Max RMSD: 0.083
# Mean RMSD: 0.083
data_MOF--net-tzs--node1-NAHDIM_clean_sbu_0--edge1-EYOCIG_clean_linker_4
_symmetry_space_group_name_H-M    P1
_symmetry_Int_Tables_number       1
_symmetry_cell_setting            triclinic
loop_
_symmetry_equiv_pos_as_xyz
'x, y, z'
_cell_length_a     40.012388
_cell_length_b     40.008076
_cell_length_c     30.910191
_cell_angle_alpha  90.02953
_cell_angle_beta   90.067601
_cell_angle_gamma 90.027924
loop_
_atom_site_label
_atom_site_type_symbol
_atom_site_fract_x
_atom_site_fract_y
_atom_site_fract_z
_atom_type_partial_charge
C0 C 0.19883 0.31029 0.21432 0.0
O1 O 0.20964 0.33617 0.19234 0.0
O2 O 0.14665 0.38635 0.22482 0.0
Zn3 Zn 0.13563 0.34126 0.19857 0.0
O4 O 0.14003 0.34298 0.13327 0.0
C5 C 0.06686 0.35172 0.22071 0.0
O6 O 0.07505 0.38292 0.21323 0.0
O7 O 0.16781 0.30688 0.22156 0.0
C8 C 0.11502 0.344 0.10798 0.0
O9 O 0.08459 0.34382 0.12366 0.0
C10 C 0.1483 0.41287 0.20236 0.0
O11 O 0.14376 0.41161 0.16037 0.0
O12 O 0.08848 0.32875 0.21618 0.0
C13 C 0.66456 0.19915 0.21424 0.0
O14 O 0.63889 0.20992 0.19179 0.0
O15 O 0.58828 0.14692 0.22496 0.0
Zn16 Zn 0.63337 0.13594 0.19884 0.0
O17 O 0.63166 0.14035 0.13354 0.0
C18 C 0.62292 0.06713 0.22091 0.0
O19 O 0.59173 0.07526 0.21325 0.0
O20 O 0.66776 0.16815 0.2219 0.0
C21 C 0.63089 0.11535 0.10824 0.0
O22 O 0.63133 0.08491 0.12391 0.0
C23 C 0.56177 0.14849 0.20242 0.0
O24 O 0.56305 0.14391 0.16044 0.0
O25 O 0.64588 0.08881 0.21653 0.0
C26 C 0.77637 0.66515 0.21422 0.0
O27 O 0.76535 0.6395 0.19188 0.0
O28 O 0.82822 0.58858 0.22475 0.0
Zn29 Zn 0.83936 0.63364 0.19857 0.0
O30 O 0.83481 0.63197 0.13327 0.0
C31 C 0.90815 0.62288 0.2208 0.0
O32 O 0.8998 0.59167 0.21351 0.0
O33 O 0.80741 0.66821 0.2217 0.0
C34 C 0.85978 0.6305 0.10801 0.0
O35 O 0.89021 0.63017 0.12374 0.0
C36 C 0.82651 0.56205 0.20226 0.0
O37 O 0.83103 0.5633 0.16028 0.0
O38 O 0.88662 0.64593 0.21613 0.0
C39 C 0.31049 0.77609 0.21521 0.0
O40 O 0.33659 0.76505 0.19389 0.0
O41 O 0.38644 0.82843 0.22446 0.0
Zn42 Zn 0.34127 0.83931 0.19831 0.0
O43 O 0.34279 0.83465 0.13302 0.0
C44 C 0.3517 0.90817 0.22052 0.0
O45 O 0.38295 0.89999 0.21346 0.0
O46 O 0.30689 0.80722 0.2216 0.0
C47 C 0.34462 0.85958 0.10772 0.0
O48 O 0.34547 0.89002 0.12339 0.0
C49 C 0.41294 0.82692 0.20197 0.0
O50 O 0.41162 0.83152 0.16 0.0
O51 O 0.32876 0.88652 0.21572 0.0
C52 C 0.19877 0.66463 0.287 0.0
O53 O 0.20968 0.63882 0.30903 0.0
O54 O 0.14662 0.5884 0.27683 0.0
Zn55 Zn 0.1356 0.63353 0.30292 0.0
O56 O 0.14009 0.6319 0.36822 0.0
C57 C 0.06677 0.62285 0.28094 0.0
O58 O 0.07498 0.5917 0.2887 0.0
O59 O 0.16771 0.66795 0.27981 0.0
C60 C 0.1151 0.63102 0.3935 0.0
O61 O 0.08466 0.63134 0.3778 0.0
C62 C 0.14839 0.56194 0.2994 0.0
O63 O 0.14398 0.56329 0.3414 0.0
O64 O 0.08841 0.64587 0.28523 0.0
C65 C 0.31059 0.19875 0.2858 0.0
O66 O 0.33683 0.20972 0.30699 0.0
O67 O 0.38629 0.14646 0.27667 0.0
Zn68 Zn 0.34117 0.13553 0.30276 0.0
O69 O 0.34277 0.14017 0.36804 0.0
C70 C 0.35161 0.06672 0.28056 0.0
O71 O 0.38285 0.07496 0.28778 0.0
O72 O 0.30681 0.16763 0.27949 0.0
C73 C 0.34438 0.11524 0.39337 0.0
O74 O 0.34492 0.08478 0.37772 0.0
C75 C 0.41276 0.14843 0.29926 0.0
O76 O 0.41143 0.14429 0.3413 0.0
O77 O 0.32865 0.08832 0.28527 0.0
C78 C 0.77632 0.31085 0.28573 0.0
O79 O 0.76541 0.33706 0.30697 0.0
O80 O 0.82869 0.38658 0.2766 0.0
Zn81 Zn 0.83958 0.34143 0.30269 0.0
O82 O 0.835 0.34298 0.36797 0.0
C83 C 0.90839 0.35188 0.28073 0.0
O84 O 0.90021 0.3831 0.28808 0.0
O85 O 0.80742 0.30709 0.27939 0.0
C86 C 0.85996 0.3444 0.39333 0.0
O87 O 0.8904 0.3448 0.37772 0.0
C88 C 0.8265 0.413 0.2992 0.0
O89 O 0.83037 0.41163 0.3413 0.0
O90 O 0.88674 0.32891 0.28525 0.0
C91 C 0.6648 0.77668 0.28607 0.0
O92 O 0.63882 0.76556 0.30757 0.0
O93 O 0.5886 0.82868 0.27661 0.0
Zn94 Zn 0.63371 0.83973 0.30285 0.0
O95 O 0.63217 0.83501 0.36813 0.0
C96 C 0.62305 0.90858 0.28085 0.0
O97 O 0.59182 0.90026 0.28787 0.0
O98 O 0.66821 0.80781 0.27951 0.0
C99 C 0.63022 0.85991 0.3935 0.0
O100 O 0.62922 0.89036 0.37789 0.0
C101 C 0.56206 0.82715 0.29905 0.0
O102 O 0.56332 0.83184 0.34101 0.0
O103 O 0.64606 0.88702 0.28559 0.0
C104 C 0.81006 0.69854 0.78727 0.0
O105 O 0.83572 0.70943 0.80967 0.0
O106 O 0.88643 0.64647 0.77683 0.0
Zn107 Zn 0.84133 0.63543 0.80292 0.0
O108 O 0.84293 0.63999 0.86821 0.0
C109 C 0.85186 0.56664 0.78052 0.0
O110 O 0.8831 0.5749 0.78764 0.0
O111 O 0.8069 0.66751 0.77972 0.0
C112 C 0.84471 0.61504 0.89348 0.0
O113 O 0.84547 0.58461 0.87777 0.0
C114 C 0.91298 0.6479 0.79932 0.0
O115 O 0.91174 0.64312 0.84126 0.0
O116 O 0.82887 0.58821 0.78536 0.0
C117 C 0.27653 0.81018 0.7861 0.0
O118 O 0.26548 0.83611 0.80779 0.0
O119 O 0.32839 0.88648 0.77635 0.0
Zn120 Zn 0.33954 0.84143 0.80256 0.0
O121 O 0.33494 0.84307 0.86784 0.0
C122 C 0.40834 0.85231 0.78072 0.0
O123 O 0.40001 0.88347 0.78821 0.0
O124 O 0.30763 0.80685 0.7793 0.0
C125 C 0.35988 0.84428 0.89325 0.0
O126 O 0.39034 0.84436 0.8777 0.0
C127 C 0.3265 0.91298 0.79886 0.0
O128 O 0.33084 0.91172 0.84089 0.0
O129 O 0.3868 0.82923 0.78514 0.0
C130 C 0.16483 0.27613 0.78647 0.0
O131 O 0.13895 0.26504 0.8082 0.0
O132 O 0.08856 0.3281 0.77675 0.0
Zn133 Zn 0.13367 0.33918 0.80295 0.0
O134 O 0.13216 0.33456 0.86822 0.0
C135 C 0.12301 0.40794 0.78051 0.0
O136 O 0.09176 0.39959 0.7873 0.0
O137 O 0.16815 0.30723 0.77966 0.0
C138 C 0.12992 0.35949 0.8935 0.0
O139 O 0.1286 0.38989 0.8778 0.0
C140 C 0.06206 0.32634 0.79922 0.0
O141 O 0.06335 0.33078 0.84123 0.0
O142 O 0.14603 0.38644 0.78558 0.0
C143 C 0.69883 0.16454 0.7868 0.0
O144 O 0.70981 0.13856 0.80845 0.0
O145 O 0.64676 0.08843 0.77704 0.0
Zn146 Zn 0.6357 0.13353 0.80317 0.0
O147 O 0.64028 0.13195 0.86846 0.0
C148 C 0.5669 0.1228 0.78109 0.0
O149 O 0.57517 0.09162 0.7886 0.0
O150 O 0.66774 0.168 0.78 0.0
C151 C 0.61534 0.13056 0.89376 0.0
O152 O 0.58488 0.13025 0.87809 0.0
C153 C 0.64874 0.06197 0.79958 0.0
O154 O 0.64454 0.06329 0.84161 0.0
O155 O 0.58848 0.14584 0.78558 0.0
C156 C 0.81048 0.27605 0.71499 0.0
O157 O 0.83647 0.26504 0.69343 0.0
O158 O 0.88653 0.32829 0.72457 0.0
Zn159 Zn 0.84139 0.33922 0.69839 0.0
O160 O 0.84293 0.33457 0.63311 0.0
C161 C 0.85193 0.40805 0.72059 0.0
O162 O 0.88317 0.39981 0.71352 0.0
O163 O 0.80699 0.30716 0.72165 0.0
C164 C 0.84481 0.3595 0.60782 0.0
O165 O 0.84572 0.38993 0.62351 0.0
C166 C 0.91299 0.32628 0.70205 0.0
O167 O 0.91164 0.33035 0.65999 0.0
O168 O 0.82895 0.38645 0.7158 0.0
C169 C 0.6987 0.81044 0.71566 0.0
O170 O 0.70984 0.83664 0.69463 0.0
O171 O 0.64685 0.88648 0.72482 0.0
Zn172 Zn 0.63566 0.84141 0.6986 0.0
O173 O 0.64023 0.84299 0.63331 0.0
C174 C 0.56691 0.85229 0.72072 0.0
O175 O 0.57531 0.88348 0.71352 0.0
O176 O 0.66755 0.80684 0.72184 0.0
C177 C 0.61527 0.84473 0.60799 0.0
O178 O 0.58485 0.84546 0.62364 0.0
C179 C 0.64875 0.91298 0.70234 0.0
O180 O 0.64439 0.91171 0.66031 0.0
O181 O 0.58839 0.8292 0.71603 0.0
C182 C 0.16501 0.69837 0.71427 0.0
O183 O 0.13945 0.70929 0.69172 0.0
O184 O 0.08848 0.64634 0.72478 0.0
Zn185 Zn 0.13356 0.63534 0.69861 0.0
O186 O 0.13192 0.64002 0.63334 0.0
C187 C 0.12297 0.56649 0.72059 0.0
O188 O 0.09175 0.57473 0.71334 0.0
O189 O 0.16804 0.66736 0.7219 0.0
C190 C 0.13022 0.61512 0.60794 0.0
O191 O 0.12957 0.58465 0.62349 0.0
C192 C 0.06193 0.64786 0.70231 0.0
O193 O 0.06315 0.64318 0.66034 0.0
O194 O 0.14596 0.5881 0.71597 0.0
C195 C 0.27654 0.16489 0.71427 0.0
O196 O 0.26559 0.13927 0.69183 0.0
O197 O 0.32845 0.08845 0.72447 0.0
Zn198 Zn 0.33955 0.13356 0.69846 0.0
O199 O 0.33493 0.13204 0.63316 0.0
C200 C 0.40834 0.1228 0.72061 0.0
O201 O 0.40001 0.09161 0.71318 0.0
O202 O 0.30758 0.16801 0.72176 0.0
C203 C 0.35986 0.13063 0.60784 0.0
O204 O 0.39032 0.13026 0.6235 0.0
C205 C 0.32653 0.06199 0.70188 0.0
O206 O 0.33083 0.06333 0.65986 0.0
O207 O 0.3868 0.14585 0.71603 0.0
C208 C 0.26562 0.24179 0.25739 0.0
C209 C 0.28601 0.22195 0.27024 0.0
C210 C 0.242 0.26537 0.24256 0.0
C211 C 0.22211 0.28575 0.2298 0.0
C212 C 0.73319 0.2659 0.25732 0.0
C213 C 0.75307 0.28628 0.27017 0.0
C214 C 0.70956 0.24229 0.2425 0.0
C215 C 0.68915 0.22241 0.22973 0.0
C216 C 0.7335 0.71027 0.24264 0.0
C217 C 0.75329 0.68982 0.22982 0.0
C218 C 0.70991 0.73386 0.25752 0.0
C219 C 0.68948 0.75363 0.2704 0.0
C220 C 0.26545 0.73315 0.2437 0.0
C221 C 0.28587 0.75295 0.23083 0.0
C222 C 0.24182 0.70959 0.25859 0.0
C223 C 0.22196 0.68921 0.27142 0.0
C224 C 0.74152 0.76524 0.74407 0.0
C225 C 0.72176 0.78572 0.73124 0.0
C226 C 0.76507 0.74158 0.75889 0.0
C227 C 0.78546 0.72172 0.77169 0.0
C228 C 0.21007 0.74136 0.74276 0.0
C229 C 0.18964 0.72152 0.72991 0.0
C230 C 0.23365 0.765 0.75763 0.0
C231 C 0.25345 0.78547 0.77048 0.0
C232 C 0.20994 0.23333 0.75787 0.0
C233 C 0.18949 0.25307 0.77079 0.0
C234 C 0.23357 0.20981 0.74291 0.0
C235 C 0.2534 0.18945 0.72999 0.0
C236 C 0.74183 0.20953 0.75835 0.0
C237 C 0.72199 0.18913 0.7712 0.0
C238 C 0.76545 0.2331 0.74347 0.0
C239 C 0.78586 0.25291 0.7306 0.0
C240 C 0.12617 0.35107 0.97807 0.0
C241 C 0.12792 0.35443 0.93938 0.0
C242 C 0.12326 0.34807 0.02341 0.0
C243 C 0.11997 0.3462 0.0621 0.0
C244 C 0.62378 0.12662 0.97833 0.0
C245 C 0.6204 0.12843 0.93964 0.0
C246 C 0.6268 0.12364 0.02367 0.0
C247 C 0.62867 0.12031 0.06236 0.0
C248 C 0.84852 0.62345 0.97807 0.0
C249 C 0.84676 0.62008 0.93938 0.0
C250 C 0.85144 0.62647 0.02342 0.0
C251 C 0.85476 0.62833 0.06212 0.0
C252 C 0.34846 0.85115 0.02315 0.0
C253 C 0.34668 0.8545 0.06184 0.0
C254 C 0.35143 0.84819 0.9778 0.0
C255 C 0.3548 0.84639 0.93912 0.0
C256 C 0.12635 0.62372 0.5234 0.0
C257 C 0.12814 0.62026 0.56207 0.0
C258 C 0.12342 0.62683 0.47806 0.0
C259 C 0.1201 0.62875 0.43938 0.0
C260 C 0.35138 0.12671 0.52327 0.0
C261 C 0.35477 0.12851 0.56196 0.0
C262 C 0.34835 0.12371 0.47793 0.0
C263 C 0.34652 0.12033 0.43924 0.0
C264 C 0.85157 0.34819 0.4779 0.0
C265 C 0.85491 0.34644 0.43921 0.0
C266 C 0.84862 0.35111 0.52325 0.0
C267 C 0.84686 0.35443 0.56194 0.0
C268 C 0.6236 0.84852 0.52341 0.0
C269 C 0.6203 0.84676 0.56211 0.0
C270 C 0.62649 0.85145 0.47806 0.0
C271 C 0.62822 0.8548 0.43937 0.0
C272 C 0.154 0.50319 0.26111 0.0
C273 C 0.15144 0.53008 0.27842 0.0
C274 C 0.15398 0.47156 0.24082 0.0
C275 C 0.1514 0.44468 0.22346 0.0
C276 C 0.50307 0.15408 0.24073 0.0
C277 C 0.52994 0.15154 0.22343 0.0
C278 C 0.47146 0.15406 0.26098 0.0
C279 C 0.44459 0.1515 0.27829 0.0
C280 C 0.82088 0.50337 0.24066 0.0
C281 C 0.82344 0.53024 0.22334 0.0
C282 C 0.82089 0.47174 0.26093 0.0
C283 C 0.82345 0.44487 0.27825 0.0
C284 C 0.50335 0.82147 0.26059 0.0
C285 C 0.53024 0.82405 0.27792 0.0
C286 C 0.4717 0.82143 0.24033 0.0
C287 C 0.44479 0.82393 0.22302 0.0
C288 C 0.8408 0.50431 0.75678 0.0
C289 C 0.84407 0.5331 0.76752 0.0
C290 C 0.84084 0.47039 0.74419 0.0
C291 C 0.84415 0.4416 0.73351 0.0
C292 C 0.50457 0.84148 0.7444 0.0
C293 C 0.53335 0.84468 0.7337 0.0
C294 C 0.47067 0.8415 0.757 0.0
C295 C 0.44189 0.84471 0.7677 0.0
C296 C 0.13403 0.47027 0.75688 0.0
C297 C 0.13076 0.44149 0.76758 0.0
C298 C 0.13402 0.50418 0.74427 0.0
C299 C 0.13073 0.53295 0.73357 0.0
C300 C 0.47067 0.13368 0.74451 0.0
C301 C 0.44189 0.13045 0.73371 0.0
C302 C 0.50457 0.13368 0.7572 0.0
C303 C 0.53335 0.13045 0.76798 0.0
C304 C 0.65442 0.00326 0.76118 0.0
C305 C 0.65183 0.03013 0.77855 0.0
C306 C 0.65443 0.97165 0.74084 0.0
C307 C 0.65184 0.94479 0.72344 0.0
C308 C 0.97166 0.65353 0.76097 0.0
C309 C 0.94479 0.65097 0.77827 0.0
C310 C 0.00327 0.65351 0.74071 0.0
C311 C 0.03013 0.65094 0.72338 0.0
C312 C 0.32082 0.00326 0.74015 0.0
C313 C 0.32342 0.03014 0.72284 0.0
C314 C 0.32081 0.97165 0.76044 0.0
C315 C 0.3234 0.94479 0.77779 0.0
C316 C 0.00335 0.3207 0.76076 0.0
C317 C 0.03023 0.32327 0.77812 0.0
C318 C 0.97172 0.3207 0.74044 0.0
C319 C 0.94484 0.32324 0.72309 0.0
C320 C 0.34052 0.0044 0.25681 0.0
C321 C 0.34381 0.03318 0.26754 0.0
C322 C 0.34054 0.97048 0.24419 0.0
C323 C 0.34385 0.9417 0.23349 0.0
C324 C 0.97068 0.34076 0.25709 0.0
C325 C 0.94191 0.34409 0.26776 0.0
C326 C 0.00458 0.34071 0.2445 0.0
C327 C 0.03335 0.34396 0.23377 0.0
C328 C 0.63403 0.97095 0.25735 0.0
C329 C 0.63079 0.94215 0.26798 0.0
C330 C 0.634 0.00486 0.24477 0.0
C331 C 0.6307 0.03362 0.23402 0.0
C332 C 0.00444 0.63376 0.25711 0.0
C333 C 0.03323 0.63052 0.26785 0.0
C334 C 0.97052 0.63377 0.2445 0.0
C335 C 0.94172 0.63054 0.23379 0.0
loop_
_geom_bond_atom_site_label_1
_geom_bond_atom_site_label_2
_geom_bond_distance
_geom_bond_site_symmetry_2
_ccdc_geom_bond_type
C0 O1 1.160 . S
C0 O7 1.185 . S
O1 C0 1.160 . S
O2 Zn3 1.899 . S
O2 C10 1.284 . S
Zn3 O2 1.899 . S
Zn3 O4 2.032 . S
Zn3 O7 2.086 . S
Zn3 O12 1.977 . S
O4 Zn3 2.032 . S
O4 C8 1.278 . S
C5 O6 1.203 . S
C5 O12 1.267 . S
O6 C5 1.203 . S
O7 C0 1.185 . S
O7 Zn3 2.086 . S
C8 O4 1.278 . S
C8 O9 1.211 . S
O9 C8 1.211 . S
C10 O2 1.284 . S
C10 O11 1.273 . S
O11 C10 1.273 . S
O12 Zn3 1.977 . S
O12 C5 1.267 . S
C13 O14 1.160 . S
C13 O20 1.185 . S
O14 C13 1.160 . S
O15 Zn16 1.899 . S
O15 C23 1.284 . S
Zn16 O15 1.899 . S
Zn16 O17 2.032 . S
Zn16 O20 2.086 . S
Zn16 O25 1.977 . S
O17 Zn16 2.032 . S
O17 C21 1.278 . S
C18 O19 1.203 . S
C18 O25 1.267 . S
O19 C18 1.203 . S
O20 C13 1.185 . S
O20 Zn16 2.086 . S
C21 O17 1.278 . S
C21 O22 1.211 . S
O22 C21 1.211 . S
C23 O15 1.284 . S
C23 O24 1.273 . S
O24 C23 1.273 . S
O25 Zn16 1.977 . S
O25 C18 1.267 . S
C26 O27 1.160 . S
C26 O33 1.185 . S
O27 C26 1.160 . S
O28 Zn29 1.899 . S
O28 C36 1.284 . S
Zn29 O28 1.899 . S
Zn29 O30 2.032 . S
Zn29 O33 2.086 . S
Zn29 O38 1.977 . S
O30 Zn29 2.032 . S
O30 C34 1.278 . S
C31 O32 1.203 . S
C31 O38 1.267 . S
O32 C31 1.203 . S
O33 C26 1.185 . S
O33 Zn29 2.086 . S
C34 O30 1.278 . S
C34 O35 1.211 . S
O35 C34 1.211 . S
C36 O28 1.284 . S
C36 O37 1.273 . S
O37 C36 1.273 . S
O38 Zn29 1.977 . S
O38 C31 1.267 . S
C39 O40 1.160 . S
C39 O46 1.185 . S
O40 C39 1.160 . S
O41 Zn42 1.899 . S
O41 C49 1.284 . S
Zn42 O41 1.899 . S
Zn42 O43 2.032 . S
Zn42 O46 2.086 . S
Zn42 O51 1.977 . S
O43 Zn42 2.032 . S
O43 C47 1.278 . S
C44 O45 1.203 . S
C44 O51 1.267 . S
O45 C44 1.203 . S
O46 C39 1.185 . S
O46 Zn42 2.086 . S
C47 O43 1.278 . S
C47 O48 1.211 . S
O48 C47 1.211 . S
C49 O41 1.284 . S
C49 O50 1.273 . S
O50 C49 1.273 . S
O51 Zn42 1.977 . S
O51 C44 1.267 . S
C52 O53 1.160 . S
C52 O59 1.185 . S
O53 C52 1.160 . S
O54 Zn55 1.899 . S
O54 C62 1.284 . S
Zn55 O54 1.899 . S
Zn55 O56 2.032 . S
Zn55 O59 2.086 . S
Zn55 O64 1.977 . S
O56 Zn55 2.032 . S
O56 C60 1.278 . S
C57 O58 1.203 . S
C57 O64 1.267 . S
O58 C57 1.203 . S
O59 C52 1.185 . S
O59 Zn55 2.086 . S
C60 O56 1.278 . S
C60 O61 1.211 . S
O61 C60 1.211 . S
C62 O54 1.284 . S
C62 O63 1.273 . S
O63 C62 1.273 . S
O64 Zn55 1.977 . S
O64 C57 1.267 . S
C65 O66 1.160 . S
C65 O72 1.185 . S
O66 C65 1.160 . S
O67 Zn68 1.899 . S
O67 C75 1.284 . S
Zn68 O67 1.899 . S
Zn68 O69 2.032 . S
Zn68 O72 2.086 . S
Zn68 O77 1.977 . S
O69 Zn68 2.032 . S
O69 C73 1.278 . S
C70 O71 1.203 . S
C70 O77 1.267 . S
O71 C70 1.203 . S
O72 C65 1.185 . S
O72 Zn68 2.086 . S
C73 O69 1.278 . S
C73 O74 1.211 . S
O74 C73 1.211 . S
C75 O67 1.284 . S
C75 O76 1.273 . S
O76 C75 1.273 . S
O77 Zn68 1.977 . S
O77 C70 1.267 . S
C78 O79 1.160 . S
C78 O85 1.185 . S
O79 C78 1.160 . S
O80 Zn81 1.899 . S
O80 C88 1.284 . S
Zn81 O80 1.899 . S
Zn81 O82 2.032 . S
Zn81 O85 2.086 . S
Zn81 O90 1.977 . S
O82 Zn81 2.032 . S
O82 C86 1.278 . S
C83 O84 1.203 . S
C83 O90 1.267 . S
O84 C83 1.203 . S
O85 C78 1.185 . S
O85 Zn81 2.086 . S
C86 O82 1.278 . S
C86 O87 1.211 . S
O87 C86 1.211 . S
C88 O80 1.284 . S
C88 O89 1.273 . S
O89 C88 1.273 . S
O90 Zn81 1.977 . S
O90 C83 1.267 . S
C91 O92 1.160 . S
C91 O98 1.185 . S
O92 C91 1.160 . S
O93 Zn94 1.899 . S
O93 C101 1.284 . S
Zn94 O93 1.899 . S
Zn94 O95 2.032 . S
Zn94 O98 2.086 . S
Zn94 O103 1.977 . S
O95 Zn94 2.032 . S
O95 C99 1.278 . S
C96 O97 1.203 . S
C96 O103 1.267 . S
O97 C96 1.203 . S
O98 C91 1.185 . S
O98 Zn94 2.086 . S
C99 O95 1.278 . S
C99 O100 1.211 . S
O100 C99 1.211 . S
C101 O93 1.284 . S
C101 O102 1.273 . S
O102 C101 1.273 . S
O103 Zn94 1.977 . S
O103 C96 1.267 . S
C104 O105 1.160 . S
C104 O111 1.185 . S
O105 C104 1.160 . S
O106 Zn107 1.899 . S
O106 C114 1.284 . S
Zn107 O106 1.899 . S
Zn107 O108 2.032 . S
Zn107 O111 2.086 . S
Zn107 O116 1.977 . S
O108 Zn107 2.032 . S
O108 C112 1.278 . S
C109 O110 1.203 . S
C109 O116 1.267 . S
O110 C109 1.203 . S
O111 C104 1.185 . S
O111 Zn107 2.086 . S
C112 O108 1.278 . S
C112 O113 1.211 . S
O113 C112 1.211 . S
C114 O106 1.284 . S
C114 O115 1.273 . S
O115 C114 1.273 . S
O116 Zn107 1.977 . S
O116 C109 1.267 . S
C117 O118 1.160 . S
C117 O124 1.185 . S
O118 C117 1.160 . S
O119 Zn120 1.899 . S
O119 C127 1.284 . S
Zn120 O119 1.899 . S
Zn120 O121 2.032 . S
Zn120 O124 2.086 . S
Zn120 O129 1.977 . S
O121 Zn120 2.032 . S
O121 C125 1.278 . S
C122 O123 1.203 . S
C122 O129 1.267 . S
O123 C122 1.203 . S
O124 C117 1.185 . S
O124 Zn120 2.086 . S
C125 O121 1.278 . S
C125 O126 1.211 . S
O126 C125 1.211 . S
C127 O119 1.284 . S
C127 O128 1.273 . S
O128 C127 1.273 . S
O129 Zn120 1.977 . S
O129 C122 1.267 . S
C130 O131 1.160 . S
C130 O137 1.185 . S
O131 C130 1.160 . S
O132 Zn133 1.899 . S
O132 C140 1.284 . S
Zn133 O132 1.899 . S
Zn133 O134 2.032 . S
Zn133 O137 2.086 . S
Zn133 O142 1.977 . S
O134 Zn133 2.032 . S
O134 C138 1.278 . S
C135 O136 1.203 . S
C135 O142 1.267 . S
O136 C135 1.203 . S
O137 C130 1.185 . S
O137 Zn133 2.086 . S
C138 O134 1.278 . S
C138 O139 1.211 . S
O139 C138 1.211 . S
C140 O132 1.284 . S
C140 O141 1.273 . S
O141 C140 1.273 . S
O142 Zn133 1.977 . S
O142 C135 1.267 . S
C143 O144 1.160 . S
C143 O150 1.185 . S
O144 C143 1.160 . S
O145 Zn146 1.899 . S
O145 C153 1.284 . S
Zn146 O145 1.899 . S
Zn146 O147 2.032 . S
Zn146 O150 2.086 . S
Zn146 O155 1.977 . S
O147 Zn146 2.032 . S
O147 C151 1.278 . S
C148 O149 1.203 . S
C148 O155 1.267 . S
O149 C148 1.203 . S
O150 C143 1.185 . S
O150 Zn146 2.086 . S
C151 O147 1.278 . S
C151 O152 1.211 . S
O152 C151 1.211 . S
C153 O145 1.284 . S
C153 O154 1.273 . S
O154 C153 1.273 . S
O155 Zn146 1.977 . S
O155 C148 1.267 . S
C156 O157 1.160 . S
C156 O163 1.185 . S
O157 C156 1.160 . S
O158 Zn159 1.899 . S
O158 C166 1.284 . S
Zn159 O158 1.899 . S
Zn159 O160 2.032 . S
Zn159 O163 2.086 . S
Zn159 O168 1.977 . S
O160 Zn159 2.032 . S
O160 C164 1.278 . S
C161 O162 1.203 . S
C161 O168 1.267 . S
O162 C161 1.203 . S
O163 C156 1.185 . S
O163 Zn159 2.086 . S
C164 O160 1.278 . S
C164 O165 1.211 . S
O165 C164 1.211 . S
C166 O158 1.284 . S
C166 O167 1.273 . S
O167 C166 1.273 . S
O168 Zn159 1.977 . S
O168 C161 1.267 . S
C169 O170 1.160 . S
C169 O176 1.185 . S
O170 C169 1.160 . S
O171 Zn172 1.899 . S
O171 C179 1.284 . S
Zn172 O171 1.899 . S
Zn172 O173 2.032 . S
Zn172 O176 2.086 . S
Zn172 O181 1.977 . S
O173 Zn172 2.032 . S
O173 C177 1.278 . S
C174 O175 1.203 . S
C174 O181 1.267 . S
O175 C174 1.203 . S
O176 C169 1.185 . S
O176 Zn172 2.086 . S
C177 O173 1.278 . S
C177 O178 1.211 . S
O178 C177 1.211 . S
C179 O171 1.284 . S
C179 O180 1.273 . S
O180 C179 1.273 . S
O181 Zn172 1.977 . S
O181 C174 1.267 . S
C182 O183 1.160 . S
C182 O189 1.185 . S
O183 C182 1.160 . S
O184 Zn185 1.899 . S
O184 C192 1.284 . S
Zn185 O184 1.899 . S
Zn185 O186 2.032 . S
Zn185 O189 2.086 . S
Zn185 O194 1.977 . S
O186 Zn185 2.032 . S
O186 C190 1.278 . S
C187 O188 1.203 . S
C187 O194 1.267 . S
O188 C187 1.203 . S
O189 C182 1.185 . S
O189 Zn185 2.086 . S
C190 O186 1.278 . S
C190 O191 1.211 . S
O191 C190 1.211 . S
C192 O184 1.284 . S
C192 O193 1.273 . S
O193 C192 1.273 . S
O194 Zn185 1.977 . S
O194 C187 1.267 . S
C195 O196 1.160 . S
C195 O202 1.185 . S
O196 C195 1.160 . S
O197 Zn198 1.899 . S
O197 C205 1.284 . S
Zn198 O197 1.899 . S
Zn198 O199 2.032 . S
Zn198 O202 2.086 . S
Zn198 O207 1.977 . S
O199 Zn198 2.032 . S
O199 C203 1.278 . S
C200 O201 1.203 . S
C200 O207 1.267 . S
O201 C200 1.203 . S
O202 C195 1.185 . S
O202 Zn198 2.086 . S
C203 O199 1.278 . S
C203 O204 1.211 . S
O204 C203 1.211 . S
C205 O197 1.284 . S
C205 O206 1.273 . S
O206 C205 1.273 . S
O207 Zn198 1.977 . S
O207 C200 1.267 . S
C208 C209 1.170 . S
C208 C210 1.380 . S
C209 C208 1.170 . S
C210 C208 1.380 . S
C210 C211 1.170 . S
C211 C210 1.170 . S
C212 C213 1.170 . S
C212 C214 1.380 . S
C213 C212 1.170 . S
C214 C212 1.380 . S
C214 C215 1.170 . S
C215 C214 1.170 . S
C216 C217 1.170 . S
C216 C218 1.380 . S
C217 C216 1.170 . S
C218 C216 1.380 . S
C218 C219 1.170 . S
C219 C218 1.170 . S
C220 C221 1.170 . S
C220 C222 1.380 . S
C221 C220 1.170 . S
C222 C220 1.380 . S
C222 C223 1.170 . S
C223 C222 1.170 . S
C224 C225 1.170 . S
C224 C226 1.380 . S
C225 C224 1.170 . S
C226 C224 1.380 . S
C226 C227 1.170 . S
C227 C226 1.170 . S
C228 C229 1.170 . S
C228 C230 1.380 . S
C229 C228 1.170 . S
C230 C228 1.380 . S
C230 C231 1.170 . S
C231 C230 1.170 . S
C232 C233 1.170 . S
C232 C234 1.380 . S
C233 C232 1.170 . S
C234 C232 1.380 . S
C234 C235 1.170 . S
C235 C234 1.170 . S
C236 C237 1.170 . S
C236 C238 1.380 . S
C237 C236 1.170 . S
C238 C236 1.380 . S
C238 C239 1.170 . S
C239 C238 1.170 . S
C240 C241 1.170 . S
C240 C242 1.380 1_556 S
C241 C240 1.170 . S
C242 C240 1.380 1_554 S
C242 C243 1.170 . S
C243 C242 1.170 . S
C244 C245 1.170 . S
C244 C246 1.380 1_556 S
C245 C244 1.170 . S
C246 C244 1.380 1_554 S
C246 C247 1.170 . S
C247 C246 1.170 . S
C248 C249 1.170 . S
C248 C250 1.380 1_556 S
C249 C248 1.170 . S
C250 C248 1.380 1_554 S
C250 C251 1.170 . S
C251 C250 1.170 . S
C252 C253 1.170 . S
C252 C254 1.380 1_554 S
C253 C252 1.170 . S
C254 C252 1.380 1_556 S
C254 C255 1.170 . S
C255 C254 1.170 . S
C256 C257 1.170 . S
C256 C258 1.380 . S
C257 C256 1.170 . S
C258 C256 1.380 . S
C258 C259 1.170 . S
C259 C258 1.170 . S
C260 C261 1.170 . S
C260 C262 1.380 . S
C261 C260 1.170 . S
C262 C260 1.380 . S
C262 C263 1.170 . S
C263 C262 1.170 . S
C264 C265 1.170 . S
C264 C266 1.380 . S
C265 C264 1.170 . S
C266 C264 1.380 . S
C266 C267 1.170 . S
C267 C266 1.170 . S
C268 C269 1.170 . S
C268 C270 1.380 . S
C269 C268 1.170 . S
C270 C268 1.380 . S
C270 C271 1.170 . S
C271 C270 1.170 . S
C272 C273 1.170 . S
C272 C274 1.380 . S
C273 C272 1.170 . S
C274 C272 1.380 . S
C274 C275 1.170 . S
C275 C274 1.170 . S
C276 C277 1.170 . S
C276 C278 1.380 . S
C277 C276 1.170 . S
C278 C276 1.380 . S
C278 C279 1.170 . S
C279 C278 1.170 . S
C280 C281 1.170 . S
C280 C282 1.380 . S
C281 C280 1.170 . S
C282 C280 1.380 . S
C282 C283 1.170 . S
C283 C282 1.170 . S
C284 C285 1.170 . S
C284 C286 1.380 . S
C285 C284 1.170 . S
C286 C284 1.380 . S
C286 C287 1.170 . S
C287 C286 1.170 . S
C288 C289 1.170 . S
C288 C290 1.380 . S
C289 C288 1.170 . S
C290 C288 1.380 . S
C290 C291 1.170 . S
C291 C290 1.170 . S
C292 C293 1.170 . S
C292 C294 1.380 . S
C293 C292 1.170 . S
C294 C292 1.380 . S
C294 C295 1.170 . S
C295 C294 1.170 . S
C296 C297 1.170 . S
C296 C298 1.380 . S
C297 C296 1.170 . S
C298 C296 1.380 . S
C298 C299 1.170 . S
C299 C298 1.170 . S
C300 C301 1.170 . S
C300 C302 1.380 . S
C301 C300 1.170 . S
C302 C300 1.380 . S
C302 C303 1.170 . S
C303 C302 1.170 . S
C304 C305 1.170 . S
C304 C306 1.380 1_545 S
C305 C304 1.170 . S
C306 C304 1.380 1_565 S
C306 C307 1.170 . S
C307 C306 1.170 . S
C308 C309 1.170 . S
C308 C310 1.380 1_655 S
C309 C308 1.170 . S
C310 C308 1.380 1_455 S
C310 C311 1.170 . S
C311 C310 1.170 . S
C312 C313 1.170 . S
C312 C314 1.380 1_545 S
C313 C312 1.170 . S
C314 C312 1.380 1_565 S
C314 C315 1.170 . S
C315 C314 1.170 . S
C316 C317 1.170 . S
C316 C318 1.380 1_455 S
C317 C316 1.170 . S
C318 C316 1.380 1_655 S
C318 C319 1.170 . S
C319 C318 1.170 . S
C320 C321 1.170 . S
C320 C322 1.380 1_545 S
C321 C320 1.170 . S
C322 C320 1.380 1_565 S
C322 C323 1.170 . S
C323 C322 1.170 . S
C324 C325 1.170 . S
C324 C326 1.380 1_655 S
C325 C324 1.170 . S
C326 C324 1.380 1_455 S
C326 C327 1.170 . S
C327 C326 1.170 . S
C328 C329 1.170 . S
C328 C330 1.380 1_565 S
C329 C328 1.170 . S
C330 C328 1.380 1_545 S
C330 C331 1.170 . S
C331 C330 1.170 . S
C332 C333 1.170 . S
C332 C334 1.380 1_455 S
C333 C332 1.170 . S
C334 C332 1.380 1_655 S
C334 C335 1.170 . S
C335 C334 1.170 . S
C209 C65 1.286 . S
C211 C0 1.291 . S
C213 C78 1.289 . S
C215 C13 1.295 . S
C217 C26 1.311 . S
C219 C91 1.307 . S
C221 C39 1.284 . S
C223 C52 1.288 . S
C225 C169 1.290 . S
C227 C104 1.297 . S
C229 C182 1.311 . S
C231 C117 1.306 . S
C233 C130 1.309 . S
C235 C195 1.312 . S
C237 C143 1.285 . S
C239 C156 1.283 . S
C241 C138 1.481 . S
C243 C8 1.454 . S
C245 C151 1.479 . S
C247 C21 1.464 . S
C249 C112 1.478 . S
C251 C34 1.448 . S
C253 C47 1.479 . S
C255 C125 1.449 . S
C257 C190 1.479 . S
C259 C60 1.449 . S
C261 C203 1.471 . S
C263 C73 1.474 . S
C265 C86 1.449 . S
C267 C164 1.478 . S
C269 C177 1.458 . S
C271 C99 1.455 . S
C273 C62 1.377 . S
C275 C10 1.397 . S
C277 C23 1.393 . S
C279 C75 1.384 . S
C281 C36 1.387 . S
C283 C88 1.391 . S
C285 C101 1.388 . S
C287 C49 1.375 . S
C289 C109 1.422 . S
C291 C161 1.433 . S
C293 C174 1.412 . S
C295 C122 1.408 . S
C297 C135 1.441 . S
C299 C187 1.446 . S
C301 C200 1.420 . S
C303 C148 1.431 . S
C305 C153 1.380 . S
C307 C179 1.395 . S
C309 C114 1.379 . S
C311 C192 1.382 . S
C313 C205 1.376 . S
C315 C127 1.397 . S
C317 C140 1.390 . S
C319 C166 1.387 . S
C321 C70 1.440 . S
C323 C44 1.446 . S
C325 C83 1.446 . S
C327 C5 1.439 . S
C329 C96 1.438 . S
C331 C18 1.428 . S
C333 C57 1.426 . S
C335 C31 1.416 . S
