# Generated by pormake.
# Topology ulh, (4)-cn, num edge types: 1
# Building blocks:
#     Node 0, Type 0, BuildingBlock: QUQFOY_clean_sbu_1, # of connection points: 4
#     Node 1, Type 0, BuildingBlock: QUQFOY_clean_sbu_1, # of connection points: 4
#     Node 2, Type 0, BuildingBlock: QUQFOY_clean_sbu_1, # of connection points: 4
#     Node 3, Type 0, BuildingBlock: QUQFOY_clean_sbu_1, # of connection points: 4
#     Node 4, Type 0, BuildingBlock: QUQFOY_clean_sbu_1, # of connection points: 4
#     Node 5, Type 0, BuildingBlock: QUQFOY_clean_sbu_1, # of connection points: 4
#     Node 6, Type 0, BuildingBlock: QUQFOY_clean_sbu_1, # of connection points: 4
#     Node 7, Type 0, BuildingBlock: QUQFOY_clean_sbu_1, # of connection points: 4
#     Node 8, Type 0, BuildingBlock: QUQFOY_clean_sbu_1, # of connection points: 4
#     Node 9, Type 0, BuildingBlock: QUQFOY_clean_sbu_1, # of connection points: 4
#     Node 10, Type 0, BuildingBlock: QUQFOY_clean_sbu_1, # of connection points: 4
#     Node 11, Type 0, BuildingBlock: QUQFOY_clean_sbu_1, # of connection points: 4
#     Node 12, Type 0, BuildingBlock: QUQFOY_clean_sbu_1, # of connection points: 4
#     Node 13, Type 0, BuildingBlock: QUQFOY_clean_sbu_1, # of connection points: 4
#     Node 14, Type 0, BuildingBlock: QUQFOY_clean_sbu_1, # of connection points: 4
#     Node 15, Type 0, BuildingBlock: QUQFOY_clean_sbu_1, # of connection points: 4
#     Node 16, Type 0, BuildingBlock: QUQFOY_clean_sbu_1, # of connection points: 4
#     Node 17, Type 0, BuildingBlock: QUQFOY_clean_sbu_1, # of connection points: 4
#     Node 18, Type 0, BuildingBlock: QUQFOY_clean_sbu_1, # of connection points: 4
#     Node 19, Type 0, BuildingBlock: QUQFOY_clean_sbu_1, # of connection points: 4
#     Node 20, Type 0, BuildingBlock: QUQFOY_clean_sbu_1, # of connection points: 4
#     Node 21, Type 0, BuildingBlock: QUQFOY_clean_sbu_1, # of connection points: 4
#     Node 22, Type 0, BuildingBlock: QUQFOY_clean_sbu_1, # of connection points: 4
#     Node 23, Type 0, BuildingBlock: QUQFOY_clean_sbu_1, # of connection points: 4
#     Node 24, Type 0, BuildingBlock: QUQFOY_clean_sbu_1, # of connection points: 4
#     Node 25, Type 0, BuildingBlock: QUQFOY_clean_sbu_1, # of connection points: 4
#     Node 26, Type 0, BuildingBlock: QUQFOY_clean_sbu_1, # of connection points: 4
#     Node 27, Type 0, BuildingBlock: QUQFOY_clean_sbu_1, # of connection points: 4
#     Node 28, Type 0, BuildingBlock: QUQFOY_clean_sbu_1, # of connection points: 4
#     Node 29, Type 0, BuildingBlock: QUQFOY_clean_sbu_1, # of connection points: 4
#     Node 30, Type 0, BuildingBlock: QUQFOY_clean_sbu_1, # of connection points: 4
#     Node 31, Type 0, BuildingBlock: QUQFOY_clean_sbu_1, # of connection points: 4
#     Node 32, Type 0, BuildingBlock: QUQFOY_clean_sbu_1, # of connection points: 4
#     Node 33, Type 0, BuildingBlock: QUQFOY_clean_sbu_1, # of connection points: 4
#     Node 34, Type 0, BuildingBlock: QUQFOY_clean_sbu_1, # of connection points: 4
#     Node 35, Type 0, BuildingBlock: QUQFOY_clean_sbu_1, # of connection points: 4
#     Node 36, Type 0, BuildingBlock: QUQFOY_clean_sbu_1, # of connection points: 4
#     Node 37, Type 0, BuildingBlock: QUQFOY_clean_sbu_1, # of connection points: 4
#     Node 38, Type 0, BuildingBlock: QUQFOY_clean_sbu_1, # of connection points: 4
#     Node 39, Type 0, BuildingBlock: QUQFOY_clean_sbu_1, # of connection points: 4
#     Node 40, Type 0, BuildingBlock: QUQFOY_clean_sbu_1, # of connection points: 4
#     Node 41, Type 0, BuildingBlock: QUQFOY_clean_sbu_1, # of connection points: 4
#     Node 42, Type 0, BuildingBlock: QUQFOY_clean_sbu_1, # of connection points: 4
#     Node 43, Type 0, BuildingBlock: QUQFOY_clean_sbu_1, # of connection points: 4
#     Node 44, Type 0, BuildingBlock: QUQFOY_clean_sbu_1, # of connection points: 4
#     Node 45, Type 0, BuildingBlock: QUQFOY_clean_sbu_1, # of connection points: 4
#     Node 46, Type 0, BuildingBlock: QUQFOY_clean_sbu_1, # of connection points: 4
#     Node 47, Type 0, BuildingBlock: QUQFOY_clean_sbu_1, # of connection points: 4
#     Node 48, Type 0, BuildingBlock: QUQFOY_clean_sbu_1, # of connection points: 4
#     Node 49, Type 0, BuildingBlock: QUQFOY_clean_sbu_1, # of connection points: 4
#     Node 50, Type 0, BuildingBlock: QUQFOY_clean_sbu_1, # of connection points: 4
#     Node 51, Type 0, BuildingBlock: QUQFOY_clean_sbu_1, # of connection points: 4
#     Node 52, Type 0, BuildingBlock: QUQFOY_clean_sbu_1, # of connection points: 4
#     Node 53, Type 0, BuildingBlock: QUQFOY_clean_sbu_1, # of connection points: 4
#     Node 54, Type 0, BuildingBlock: QUQFOY_clean_sbu_1, # of connection points: 4
#     Node 55, Type 0, BuildingBlock: QUQFOY_clean_sbu_1, # of connection points: 4
#     Node 56, Type 0, BuildingBlock: QUQFOY_clean_sbu_1, # of connection points: 4
#     Node 57, Type 0, BuildingBlock: QUQFOY_clean_sbu_1, # of connection points: 4
#     Node 58, Type 0, BuildingBlock: QUQFOY_clean_sbu_1, # of connection points: 4
#     Node 59, Type 0, BuildingBlock: QUQFOY_clean_sbu_1, # of connection points: 4
#     Node 60, Type 0, BuildingBlock: QUQFOY_clean_sbu_1, # of connection points: 4
#     Node 61, Type 0, BuildingBlock: QUQFOY_clean_sbu_1, # of connection points: 4
#     Node 62, Type 0, BuildingBlock: QUQFOY_clean_sbu_1, # of connection points: 4
#     Node 63, Type 0, BuildingBlock: QUQFOY_clean_sbu_1, # of connection points: 4
#     Node 64, Type 0, BuildingBlock: QUQFOY_clean_sbu_1, # of connection points: 4
#     Node 65, Type 0, BuildingBlock: QUQFOY_clean_sbu_1, # of connection points: 4
#     Node 66, Type 0, BuildingBlock: QUQFOY_clean_sbu_1, # of connection points: 4
#     Node 67, Type 0, BuildingBlock: QUQFOY_clean_sbu_1, # of connection points: 4
#     Node 68, Type 0, BuildingBlock: QUQFOY_clean_sbu_1, # of connection points: 4
#     Node 69, Type 0, BuildingBlock: QUQFOY_clean_sbu_1, # of connection points: 4
#     Node 70, Type 0, BuildingBlock: QUQFOY_clean_sbu_1, # of connection points: 4
#     Node 71, Type 0, BuildingBlock: QUQFOY_clean_sbu_1, # of connection points: 4
#     Node 72, Type 0, BuildingBlock: QUQFOY_clean_sbu_1, # of connection points: 4
#     Node 73, Type 0, BuildingBlock: QUQFOY_clean_sbu_1, # of connection points: 4
#     Node 74, Type 0, BuildingBlock: QUQFOY_clean_sbu_1, # of connection points: 4
#     Node 75, Type 0, BuildingBlock: QUQFOY_clean_sbu_1, # of connection points: 4
#     Node 76, Type 0, BuildingBlock: QUQFOY_clean_sbu_1, # of connection points: 4
#     Node 77, Type 0, BuildingBlock: QUQFOY_clean_sbu_1, # of connection points: 4
#     Node 78, Type 0, BuildingBlock: QUQFOY_clean_sbu_1, # of connection points: 4
#     Node 79, Type 0, BuildingBlock: QUQFOY_clean_sbu_1, # of connection points: 4
#     Node 80, Type 0, BuildingBlock: QUQFOY_clean_sbu_1, # of connection points: 4
#     Node 81, Type 0, BuildingBlock: QUQFOY_clean_sbu_1, # of connection points: 4
#     Node 82, Type 0, BuildingBlock: QUQFOY_clean_sbu_1, # of connection points: 4
#     Node 83, Type 0, BuildingBlock: QUQFOY_clean_sbu_1, # of connection points: 4
#     Node 84, Type 0, BuildingBlock: QUQFOY_clean_sbu_1, # of connection points: 4
#     Node 85, Type 0, BuildingBlock: QUQFOY_clean_sbu_1, # of connection points: 4
#     Node 86, Type 0, BuildingBlock: QUQFOY_clean_sbu_1, # of connection points: 4
#     Node 87, Type 0, BuildingBlock: QUQFOY_clean_sbu_1, # of connection points: 4
#     Node 88, Type 0, BuildingBlock: QUQFOY_clean_sbu_1, # of connection points: 4
#     Node 89, Type 0, BuildingBlock: QUQFOY_clean_sbu_1, # of connection points: 4
#     Node 90, Type 0, BuildingBlock: QUQFOY_clean_sbu_1, # of connection points: 4
#     Node 91, Type 0, BuildingBlock: QUQFOY_clean_sbu_1, # of connection points: 4
#     Node 92, Type 0, BuildingBlock: QUQFOY_clean_sbu_1, # of connection points: 4
#     Node 93, Type 0, BuildingBlock: QUQFOY_clean_sbu_1, # of connection points: 4
#     Node 94, Type 0, BuildingBlock: QUQFOY_clean_sbu_1, # of connection points: 4
#     Node 95, Type 0, BuildingBlock: QUQFOY_clean_sbu_1, # of connection points: 4
#     Edge 96, Type (0, 0), BuildingBlock: KIFKEQ_clean_linker_1, # of connection points: 2
#     Edge 97, Type (0, 0), BuildingBlock: KIFKEQ_clean_linker_1, # of connection points: 2
#     Edge 98, Type (0, 0), BuildingBlock: KIFKEQ_clean_linker_1, # of connection points: 2
#     Edge 99, Type (0, 0), BuildingBlock: KIFKEQ_clean_linker_1, # of connection points: 2
#     Edge 100, Type (0, 0), BuildingBlock: KIFKEQ_clean_linker_1, # of connection points: 2
#     Edge 101, Type (0, 0), BuildingBlock: KIFKEQ_clean_linker_1, # of connection points: 2
#     Edge 102, Type (0, 0), BuildingBlock: KIFKEQ_clean_linker_1, # of connection points: 2
#     Edge 103, Type (0, 0), BuildingBlock: KIFKEQ_clean_linker_1, # of connection points: 2
#     Edge 104, Type (0, 0), BuildingBlock: KIFKEQ_clean_linker_1, # of connection points: 2
#     Edge 105, Type (0, 0), BuildingBlock: KIFKEQ_clean_linker_1, # of connection points: 2
#     Edge 106, Type (0, 0), BuildingBlock: KIFKEQ_clean_linker_1, # of connection points: 2
#     Edge 107, Type (0, 0), BuildingBlock: KIFKEQ_clean_linker_1, # of connection points: 2
#     Edge 108, Type (0, 0), BuildingBlock: KIFKEQ_clean_linker_1, # of connection points: 2
#     Edge 109, Type (0, 0), BuildingBlock: KIFKEQ_clean_linker_1, # of connection points: 2
#     Edge 110, Type (0, 0), BuildingBlock: KIFKEQ_clean_linker_1, # of connection points: 2
#     Edge 111, Type (0, 0), BuildingBlock: KIFKEQ_clean_linker_1, # of connection points: 2
#     Edge 112, Type (0, 0), BuildingBlock: KIFKEQ_clean_linker_1, # of connection points: 2
#     Edge 113, Type (0, 0), BuildingBlock: KIFKEQ_clean_linker_1, # of connection points: 2
#     Edge 114, Type (0, 0), BuildingBlock: KIFKEQ_clean_linker_1, # of connection points: 2
#     Edge 115, Type (0, 0), BuildingBlock: KIFKEQ_clean_linker_1, # of connection points: 2
#     Edge 116, Type (0, 0), BuildingBlock: KIFKEQ_clean_linker_1, # of connection points: 2
#     Edge 117, Type (0, 0), BuildingBlock: KIFKEQ_clean_linker_1, # of connection points: 2
#     Edge 118, Type (0, 0), BuildingBlock: KIFKEQ_clean_linker_1, # of connection points: 2
#     Edge 119, Type (0, 0), BuildingBlock: KIFKEQ_clean_linker_1, # of connection points: 2
#     Edge 120, Type (0, 0), BuildingBlock: KIFKEQ_clean_linker_1, # of connection points: 2
#     Edge 121, Type (0, 0), BuildingBlock: KIFKEQ_clean_linker_1, # of connection points: 2
#     Edge 122, Type (0, 0), BuildingBlock: KIFKEQ_clean_linker_1, # of connection points: 2
#     Edge 123, Type (0, 0), BuildingBlock: KIFKEQ_clean_linker_1, # of connection points: 2
#     Edge 124, Type (0, 0), BuildingBlock: KIFKEQ_clean_linker_1, # of connection points: 2
#     Edge 125, Type (0, 0), BuildingBlock: KIFKEQ_clean_linker_1, # of connection points: 2
#     Edge 126, Type (0, 0), BuildingBlock: KIFKEQ_clean_linker_1, # of connection points: 2
#     Edge 127, Type (0, 0), BuildingBlock: KIFKEQ_clean_linker_1, # of connection points: 2
#     Edge 128, Type (0, 0), BuildingBlock: KIFKEQ_clean_linker_1, # of connection points: 2
#     Edge 129, Type (0, 0), BuildingBlock: KIFKEQ_clean_linker_1, # of connection points: 2
#     Edge 130, Type (0, 0), BuildingBlock: KIFKEQ_clean_linker_1, # of connection points: 2
#     Edge 131, Type (0, 0), BuildingBlock: KIFKEQ_clean_linker_1, # of connection points: 2
#     Edge 132, Type (0, 0), BuildingBlock: KIFKEQ_clean_linker_1, # of connection points: 2
#     Edge 133, Type (0, 0), BuildingBlock: KIFKEQ_clean_linker_1, # of connection points: 2
#     Edge 134, Type (0, 0), BuildingBlock: KIFKEQ_clean_linker_1, # of connection points: 2
#     Edge 135, Type (0, 0), BuildingBlock: KIFKEQ_clean_linker_1, # of connection points: 2
#     Edge 136, Type (0, 0), BuildingBlock: KIFKEQ_clean_linker_1, # of connection points: 2
#     Edge 137, Type (0, 0), BuildingBlock: KIFKEQ_clean_linker_1, # of connection points: 2
#     Edge 138, Type (0, 0), BuildingBlock: KIFKEQ_clean_linker_1, # of connection points: 2
#     Edge 139, Type (0, 0), BuildingBlock: KIFKEQ_clean_linker_1, # of connection points: 2
#     Edge 140, Type (0, 0), BuildingBlock: KIFKEQ_clean_linker_1, # of connection points: 2
#     Edge 141, Type (0, 0), BuildingBlock: KIFKEQ_clean_linker_1, # of connection points: 2
#     Edge 142, Type (0, 0), BuildingBlock: KIFKEQ_clean_linker_1, # of connection points: 2
#     Edge 143, Type (0, 0), BuildingBlock: KIFKEQ_clean_linker_1, # of connection points: 2
#     Edge 144, Type (0, 0), BuildingBlock: KIFKEQ_clean_linker_1, # of connection points: 2
#     Edge 145, Type (0, 0), BuildingBlock: KIFKEQ_clean_linker_1, # of connection points: 2
#     Edge 146, Type (0, 0), BuildingBlock: KIFKEQ_clean_linker_1, # of connection points: 2
#     Edge 147, Type (0, 0), BuildingBlock: KIFKEQ_clean_linker_1, # of connection points: 2
#     Edge 148, Type (0, 0), BuildingBlock: KIFKEQ_clean_linker_1, # of connection points: 2
#     Edge 149, Type (0, 0), BuildingBlock: KIFKEQ_clean_linker_1, # of connection points: 2
#     Edge 150, Type (0, 0), BuildingBlock: KIFKEQ_clean_linker_1, # of connection points: 2
#     Edge 151, Type (0, 0), BuildingBlock: KIFKEQ_clean_linker_1, # of connection points: 2
#     Edge 152, Type (0, 0), BuildingBlock: KIFKEQ_clean_linker_1, # of connection points: 2
#     Edge 153, Type (0, 0), BuildingBlock: KIFKEQ_clean_linker_1, # of connection points: 2
#     Edge 154, Type (0, 0), BuildingBlock: KIFKEQ_clean_linker_1, # of connection points: 2
#     Edge 155, Type (0, 0), BuildingBlock: KIFKEQ_clean_linker_1, # of connection points: 2
#     Edge 156, Type (0, 0), BuildingBlock: KIFKEQ_clean_linker_1, # of connection points: 2
#     Edge 157, Type (0, 0), BuildingBlock: KIFKEQ_clean_linker_1, # of connection points: 2
#     Edge 158, Type (0, 0), BuildingBlock: KIFKEQ_clean_linker_1, # of connection points: 2
#     Edge 159, Type (0, 0), BuildingBlock: KIFKEQ_clean_linker_1, # of connection points: 2
#     Edge 160, Type (0, 0), BuildingBlock: KIFKEQ_clean_linker_1, # of connection points: 2
#     Edge 161, Type (0, 0), BuildingBlock: KIFKEQ_clean_linker_1, # of connection points: 2
#     Edge 162, Type (0, 0), BuildingBlock: KIFKEQ_clean_linker_1, # of connection points: 2
#     Edge 163, Type (0, 0), BuildingBlock: KIFKEQ_clean_linker_1, # of connection points: 2
#     Edge 164, Type (0, 0), BuildingBlock: KIFKEQ_clean_linker_1, # of connection points: 2
#     Edge 165, Type (0, 0), BuildingBlock: KIFKEQ_clean_linker_1, # of connection points: 2
#     Edge 166, Type (0, 0), BuildingBlock: KIFKEQ_clean_linker_1, # of connection points: 2
#     Edge 167, Type (0, 0), BuildingBlock: KIFKEQ_clean_linker_1, # of connection points: 2
#     Edge 168, Type (0, 0), BuildingBlock: KIFKEQ_clean_linker_1, # of connection points: 2
#     Edge 169, Type (0, 0), BuildingBlock: KIFKEQ_clean_linker_1, # of connection points: 2
#     Edge 170, Type (0, 0), BuildingBlock: KIFKEQ_clean_linker_1, # of connection points: 2
#     Edge 171, Type (0, 0), BuildingBlock: KIFKEQ_clean_linker_1, # of connection points: 2
#     Edge 172, Type (0, 0), BuildingBlock: KIFKEQ_clean_linker_1, # of connection points: 2
#     Edge 173, Type (0, 0), BuildingBlock: KIFKEQ_clean_linker_1, # of connection points: 2
#     Edge 174, Type (0, 0), BuildingBlock: KIFKEQ_clean_linker_1, # of connection points: 2
#     Edge 175, Type (0, 0), BuildingBlock: KIFKEQ_clean_linker_1, # of connection points: 2
#     Edge 176, Type (0, 0), BuildingBlock: KIFKEQ_clean_linker_1, # of connection points: 2
#     Edge 177, Type (0, 0), BuildingBlock: KIFKEQ_clean_linker_1, # of connection points: 2
#     Edge 178, Type (0, 0), BuildingBlock: KIFKEQ_clean_linker_1, # of connection points: 2
#     Edge 179, Type (0, 0), BuildingBlock: KIFKEQ_clean_linker_1, # of connection points: 2
#     Edge 180, Type (0, 0), BuildingBlock: KIFKEQ_clean_linker_1, # of connection points: 2
#     Edge 181, Type (0, 0), BuildingBlock: KIFKEQ_clean_linker_1, # of connection points: 2
#     Edge 182, Type (0, 0), BuildingBlock: KIFKEQ_clean_linker_1, # of connection points: 2
#     Edge 183, Type (0, 0), BuildingBlock: KIFKEQ_clean_linker_1, # of connection points: 2
#     Edge 184, Type (0, 0), BuildingBlock: KIFKEQ_clean_linker_1, # of connection points: 2
#     Edge 185, Type (0, 0), BuildingBlock: KIFKEQ_clean_linker_1, # of connection points: 2
#     Edge 186, Type (0, 0), BuildingBlock: KIFKEQ_clean_linker_1, # of connection points: 2
#     Edge 187, Type (0, 0), BuildingBlock: KIFKEQ_clean_linker_1, # of connection points: 2
#     Edge 188, Type (0, 0), BuildingBlock: KIFKEQ_clean_linker_1, # of connection points: 2
#     Edge 189, Type (0, 0), BuildingBlock: KIFKEQ_clean_linker_1, # of connection points: 2
#     Edge 190, Type (0, 0), BuildingBlock: KIFKEQ_clean_linker_1, # of connection points: 2
#     Edge 191, Type (0, 0), BuildingBlock: KIFKEQ_clean_linker_1, # of connection points: 2
#     Edge 192, Type (0, 0), BuildingBlock: KIFKEQ_clean_linker_1, # of connection points: 2
#     Edge 193, Type (0, 0), BuildingBlock: KIFKEQ_clean_linker_1, # of connection points: 2
#     Edge 194, Type (0, 0), BuildingBlock: KIFKEQ_clean_linker_1, # of connection points: 2
#     Edge 195, Type (0, 0), BuildingBlock: KIFKEQ_clean_linker_1, # of connection points: 2
#     Edge 196, Type (0, 0), BuildingBlock: KIFKEQ_clean_linker_1, # of connection points: 2
#     Edge 197, Type (0, 0), BuildingBlock: KIFKEQ_clean_linker_1, # of connection points: 2
#     Edge 198, Type (0, 0), BuildingBlock: KIFKEQ_clean_linker_1, # of connection points: 2
#     Edge 199, Type (0, 0), BuildingBlock: KIFKEQ_clean_linker_1, # of connection points: 2
#     Edge 200, Type (0, 0), BuildingBlock: KIFKEQ_clean_linker_1, # of connection points: 2
#     Edge 201, Type (0, 0), BuildingBlock: KIFKEQ_clean_linker_1, # of connection points: 2
#     Edge 202, Type (0, 0), BuildingBlock: KIFKEQ_clean_linker_1, # of connection points: 2
#     Edge 203, Type (0, 0), BuildingBlock: KIFKEQ_clean_linker_1, # of connection points: 2
#     Edge 204, Type (0, 0), BuildingBlock: KIFKEQ_clean_linker_1, # of connection points: 2
#     Edge 205, Type (0, 0), BuildingBlock: KIFKEQ_clean_linker_1, # of connection points: 2
#     Edge 206, Type (0, 0), BuildingBlock: KIFKEQ_clean_linker_1, # of connection points: 2
#     Edge 207, Type (0, 0), BuildingBlock: KIFKEQ_clean_linker_1, # of connection points: 2
#     Edge 208, Type (0, 0), BuildingBlock: KIFKEQ_clean_linker_1, # of connection points: 2
#     Edge 209, Type (0, 0), BuildingBlock: KIFKEQ_clean_linker_1, # of connection points: 2
#     Edge 210, Type (0, 0), BuildingBlock: KIFKEQ_clean_linker_1, # of connection points: 2
#     Edge 211, Type (0, 0), BuildingBlock: KIFKEQ_clean_linker_1, # of connection points: 2
#     Edge 212, Type (0, 0), BuildingBlock: KIFKEQ_clean_linker_1, # of connection points: 2
#     Edge 213, Type (0, 0), BuildingBlock: KIFKEQ_clean_linker_1, # of connection points: 2
#     Edge 214, Type (0, 0), BuildingBlock: KIFKEQ_clean_linker_1, # of connection points: 2
#     Edge 215, Type (0, 0), BuildingBlock: KIFKEQ_clean_linker_1, # of connection points: 2
#     Edge 216, Type (0, 0), BuildingBlock: KIFKEQ_clean_linker_1, # of connection points: 2
#     Edge 217, Type (0, 0), BuildingBlock: KIFKEQ_clean_linker_1, # of connection points: 2
#     Edge 218, Type (0, 0), BuildingBlock: KIFKEQ_clean_linker_1, # of connection points: 2
#     Edge 219, Type (0, 0), BuildingBlock: KIFKEQ_clean_linker_1, # of connection points: 2
#     Edge 220, Type (0, 0), BuildingBlock: KIFKEQ_clean_linker_1, # of connection points: 2
#     Edge 221, Type (0, 0), BuildingBlock: KIFKEQ_clean_linker_1, # of connection points: 2
#     Edge 222, Type (0, 0), BuildingBlock: KIFKEQ_clean_linker_1, # of connection points: 2
#     Edge 223, Type (0, 0), BuildingBlock: KIFKEQ_clean_linker_1, # of connection points: 2
#     Edge 224, Type (0, 0), BuildingBlock: KIFKEQ_clean_linker_1, # of connection points: 2
#     Edge 225, Type (0, 0), BuildingBlock: KIFKEQ_clean_linker_1, # of connection points: 2
#     Edge 226, Type (0, 0), BuildingBlock: KIFKEQ_clean_linker_1, # of connection points: 2
#     Edge 227, Type (0, 0), BuildingBlock: KIFKEQ_clean_linker_1, # of connection points: 2
#     Edge 228, Type (0, 0), BuildingBlock: KIFKEQ_clean_linker_1, # of connection points: 2
#     Edge 229, Type (0, 0), BuildingBlock: KIFKEQ_clean_linker_1, # of connection points: 2
#     Edge 230, Type (0, 0), BuildingBlock: KIFKEQ_clean_linker_1, # of connection points: 2
#     Edge 231, Type (0, 0), BuildingBlock: KIFKEQ_clean_linker_1, # of connection points: 2
#     Edge 232, Type (0, 0), BuildingBlock: KIFKEQ_clean_linker_1, # of connection points: 2
#     Edge 233, Type (0, 0), BuildingBlock: KIFKEQ_clean_linker_1, # of connection points: 2
#     Edge 234, Type (0, 0), BuildingBlock: KIFKEQ_clean_linker_1, # of connection points: 2
#     Edge 235, Type (0, 0), BuildingBlock: KIFKEQ_clean_linker_1, # of connection points: 2
#     Edge 236, Type (0, 0), BuildingBlock: KIFKEQ_clean_linker_1, # of connection points: 2
#     Edge 237, Type (0, 0), BuildingBlock: KIFKEQ_clean_linker_1, # of connection points: 2
#     Edge 238, Type (0, 0), BuildingBlock: KIFKEQ_clean_linker_1, # of connection points: 2
#     Edge 239, Type (0, 0), BuildingBlock: KIFKEQ_clean_linker_1, # of connection points: 2
#     Edge 240, Type (0, 0), BuildingBlock: KIFKEQ_clean_linker_1, # of connection points: 2
#     Edge 241, Type (0, 0), BuildingBlock: KIFKEQ_clean_linker_1, # of connection points: 2
#     Edge 242, Type (0, 0), BuildingBlock: KIFKEQ_clean_linker_1, # of connection points: 2
#     Edge 243, Type (0, 0), BuildingBlock: KIFKEQ_clean_linker_1, # of connection points: 2
#     Edge 244, Type (0, 0), BuildingBlock: KIFKEQ_clean_linker_1, # of connection points: 2
#     Edge 245, Type (0, 0), BuildingBlock: KIFKEQ_clean_linker_1, # of connection points: 2
#     Edge 246, Type (0, 0), BuildingBlock: KIFKEQ_clean_linker_1, # of connection points: 2
#     Edge 247, Type (0, 0), BuildingBlock: KIFKEQ_clean_linker_1, # of connection points: 2
#     Edge 248, Type (0, 0), BuildingBlock: KIFKEQ_clean_linker_1, # of connection points: 2
#     Edge 249, Type (0, 0), BuildingBlock: KIFKEQ_clean_linker_1, # of connection points: 2
#     Edge 250, Type (0, 0), BuildingBlock: KIFKEQ_clean_linker_1, # of connection points: 2
#     Edge 251, Type (0, 0), BuildingBlock: KIFKEQ_clean_linker_1, # of connection points: 2
#     Edge 252, Type (0, 0), BuildingBlock: KIFKEQ_clean_linker_1, # of connection points: 2
#     Edge 253, Type (0, 0), BuildingBlock: KIFKEQ_clean_linker_1, # of connection points: 2
#     Edge 254, Type (0, 0), BuildingBlock: KIFKEQ_clean_linker_1, # of connection points: 2
#     Edge 255, Type (0, 0), BuildingBlock: KIFKEQ_clean_linker_1, # of connection points: 2
#     Edge 256, Type (0, 0), BuildingBlock: KIFKEQ_clean_linker_1, # of connection points: 2
#     Edge 257, Type (0, 0), BuildingBlock: KIFKEQ_clean_linker_1, # of connection points: 2
#     Edge 258, Type (0, 0), BuildingBlock: KIFKEQ_clean_linker_1, # of connection points: 2
#     Edge 259, Type (0, 0), BuildingBlock: KIFKEQ_clean_linker_1, # of connection points: 2
#     Edge 260, Type (0, 0), BuildingBlock: KIFKEQ_clean_linker_1, # of connection points: 2
#     Edge 261, Type (0, 0), BuildingBlock: KIFKEQ_clean_linker_1, # of connection points: 2
#     Edge 262, Type (0, 0), BuildingBlock: KIFKEQ_clean_linker_1, # of connection points: 2
#     Edge 263, Type (0, 0), BuildingBlock: KIFKEQ_clean_linker_1, # of connection points: 2
#     Edge 264, Type (0, 0), BuildingBlock: KIFKEQ_clean_linker_1, # of connection points: 2
#     Edge 265, Type (0, 0), BuildingBlock: KIFKEQ_clean_linker_1, # of connection points: 2
#     Edge 266, Type (0, 0), BuildingBlock: KIFKEQ_clean_linker_1, # of connection points: 2
#     Edge 267, Type (0, 0), BuildingBlock: KIFKEQ_clean_linker_1, # of connection points: 2
#     Edge 268, Type (0, 0), BuildingBlock: KIFKEQ_clean_linker_1, # of connection points: 2
#     Edge 269, Type (0, 0), BuildingBlock: KIFKEQ_clean_linker_1, # of connection points: 2
#     Edge 270, Type (0, 0), BuildingBlock: KIFKEQ_clean_linker_1, # of connection points: 2
#     Edge 271, Type (0, 0), BuildingBlock: KIFKEQ_clean_linker_1, # of connection points: 2
#     Edge 272, Type (0, 0), BuildingBlock: KIFKEQ_clean_linker_1, # of connection points: 2
#     Edge 273, Type (0, 0), BuildingBlock: KIFKEQ_clean_linker_1, # of connection points: 2
#     Edge 274, Type (0, 0), BuildingBlock: KIFKEQ_clean_linker_1, # of connection points: 2
#     Edge 275, Type (0, 0), BuildingBlock: KIFKEQ_clean_linker_1, # of connection points: 2
#     Edge 276, Type (0, 0), BuildingBlock: KIFKEQ_clean_linker_1, # of connection points: 2
#     Edge 277, Type (0, 0), BuildingBlock: KIFKEQ_clean_linker_1, # of connection points: 2
#     Edge 278, Type (0, 0), BuildingBlock: KIFKEQ_clean_linker_1, # of connection points: 2
#     Edge 279, Type (0, 0), BuildingBlock: KIFKEQ_clean_linker_1, # of connection points: 2
#     Edge 280, Type (0, 0), BuildingBlock: KIFKEQ_clean_linker_1, # of connection points: 2
#     Edge 281, Type (0, 0), BuildingBlock: KIFKEQ_clean_linker_1, # of connection points: 2
#     Edge 282, Type (0, 0), BuildingBlock: KIFKEQ_clean_linker_1, # of connection points: 2
#     Edge 283, Type (0, 0), BuildingBlock: KIFKEQ_clean_linker_1, # of connection points: 2
#     Edge 284, Type (0, 0), BuildingBlock: KIFKEQ_clean_linker_1, # of connection points: 2
#     Edge 285, Type (0, 0), BuildingBlock: KIFKEQ_clean_linker_1, # of connection points: 2
#     Edge 286, Type (0, 0), BuildingBlock: KIFKEQ_clean_linker_1, # of connection points: 2
#     Edge 287, Type (0, 0), BuildingBlock: KIFKEQ_clean_linker_1, # of connection points: 2
# Relax obj value: 0.179
# Max RMSD: 0.199
# Mean RMSD: 0.199
data_MOF--net-ulh--node1-QUQFOY_clean_sbu_1--edge1-KIFKEQ_clean_linker_1
_symmetry_space_group_name_H-M    P1
_symmetry_Int_Tables_number       1
_symmetry_cell_setting            triclinic
loop_
_symmetry_equiv_pos_as_xyz
'x, y, z'
_cell_length_a     86.858351
_cell_length_b     86.92197
_cell_length_c     86.890358
_cell_angle_alpha  90.001714
_cell_angle_beta   89.979315
_cell_angle_gamma 90.01283
loop_
_atom_site_label
_atom_site_type_symbol
_atom_site_fract_x
_atom_site_fract_y
_atom_site_fract_z
_atom_type_partial_charge
O0 O 0.03857 0.31811 0.06758 0.0
Cd1 Cd 0.05161 0.31479 0.08706 0.0
Cd2 Cd 0.04287 0.34381 0.09157 0.0
O3 O 0.02727 0.33998 0.07375 0.0
O4 O 0.04936 0.29242 0.09257 0.0
O5 O 0.04026 0.31128 0.10706 0.0
C6 C 0.0414 0.29667 0.1044 0.0
C7 C 0.03934 0.35874 0.11382 0.0
C8 C 0.02905 0.32877 0.06445 0.0
C9 C 0.0762 0.33753 0.08261 0.0
O10 O 0.06497 0.34677 0.08402 0.0
O11 O 0.0742 0.32314 0.08477 0.0
O12 O 0.03846 0.36464 0.10024 0.0
O13 O 0.04052 0.34397 0.11481 0.0
O14 O 0.92531 0.32075 0.33015 0.0
Cd15 Cd 0.92399 0.29863 0.33809 0.0
Cd16 Cd 0.95457 0.3019 0.33618 0.0
O17 O 0.9501 0.32542 0.33359 0.0
O18 O 0.90232 0.29723 0.34566 0.0
O19 O 0.9224 0.29625 0.36123 0.0
C20 C 0.90764 0.29688 0.35951 0.0
C21 C 0.97163 0.29018 0.3537 0.0
C22 C 0.93663 0.32997 0.32993 0.0
C23 C 0.93848 0.28196 0.31239 0.0
O24 O 0.95043 0.28941 0.31642 0.0
O25 O 0.92644 0.28232 0.32075 0.0
O26 O 0.9766 0.29738 0.34168 0.0
O27 O 0.95698 0.29049 0.35635 0.0
O28 O 0.98357 0.19394 0.56483 0.0
Cd29 Cd 0.96927 0.20072 0.58246 0.0
Cd30 Cd 0.96981 0.16999 0.5883 0.0
O31 O 0.98577 0.16926 0.57046 0.0
O32 O 0.97454 0.22286 0.58652 0.0
O33 O 0.97842 0.20437 0.60355 0.0
C34 C 0.97995 0.21868 0.59971 0.0
C35 C 0.97101 0.15445 0.61041 0.0
C36 C 0.98896 0.18068 0.56184 0.0
C37 C 0.93982 0.18405 0.57715 0.0
O38 O 0.94755 0.17224 0.58085 0.0
O39 O 0.94588 0.1974 0.57755 0.0
O40 O 0.96946 0.14871 0.59684 0.0
O41 O 0.97313 0.16912 0.61145 0.0
O42 O 0.09519 0.19842 0.83027 0.0
Cd43 Cd 0.09709 0.22066 0.83768 0.0
Cd44 Cd 0.06618 0.21953 0.83265 0.0
O45 O 0.06989 0.19606 0.82843 0.0
O46 O 0.11831 0.22121 0.84646 0.0
O47 O 0.09746 0.22372 0.8608 0.0
C48 C 0.11224 0.22238 0.85994 0.0
C49 C 0.04801 0.2302 0.84973 0.0
C50 C 0.08338 0.19033 0.82743 0.0
C51 C 0.08552 0.23936 0.81136 0.0
O52 O 0.07246 0.23356 0.81456 0.0
O53 O 0.09712 0.23667 0.8199 0.0
O54 O 0.04392 0.22446 0.83665 0.0
O55 O 0.06235 0.22905 0.85357 0.0
O56 O 0.03854 0.70106 0.94942 0.0
Cd57 Cd 0.05126 0.70415 0.92963 0.0
Cd58 Cd 0.04193 0.67521 0.92519 0.0
O59 O 0.02676 0.67943 0.94328 0.0
O60 O 0.0493 0.72652 0.92401 0.0
O61 O 0.03953 0.70774 0.90987 0.0
C62 C 0.04104 0.72234 0.91237 0.0
C63 C 0.03773 0.65971 0.90347 0.0
C64 C 0.02884 0.69057 0.9526 0.0
C65 C 0.07561 0.68094 0.93299 0.0
O66 O 0.06419 0.67188 0.93202 0.0
O67 O 0.07376 0.69537 0.93106 0.0
O68 O 0.03696 0.65424 0.91723 0.0
O69 O 0.0391 0.67444 0.90201 0.0
O70 O 0.5945 0.31667 0.18378 0.0
Cd71 Cd 0.59193 0.29422 0.17729 0.0
Cd72 Cd 0.56288 0.30254 0.18231 0.0
O73 O 0.57067 0.32531 0.18223 0.0
O74 O 0.61314 0.28984 0.16945 0.0
O75 O 0.59291 0.29115 0.15417 0.0
C76 C 0.60767 0.29025 0.15568 0.0
C77 C 0.5461 0.29019 0.16501 0.0
C78 C 0.585 0.32775 0.18422 0.0
C79 C 0.57772 0.28181 0.20566 0.0
O80 O 0.56708 0.29149 0.20288 0.0
O81 O 0.58808 0.27913 0.19559 0.0
O82 O 0.5409 0.29922 0.17565 0.0
O83 O 0.56089 0.28893 0.16367 0.0
O84 O 0.98027 0.81803 0.45176 0.0
Cd85 Cd 0.96751 0.81523 0.43184 0.0
Cd86 Cd 0.97407 0.84471 0.43046 0.0
O87 O 0.99102 0.84042 0.44665 0.0
O88 O 0.97016 0.79293 0.42623 0.0
O89 O 0.97905 0.81196 0.41186 0.0
C90 C 0.97809 0.79733 0.41444 0.0
C91 C 0.97562 0.86092 0.40891 0.0
C92 C 0.98965 0.8287 0.45534 0.0
C93 C 0.94187 0.83567 0.43947 0.0
O94 O 0.95262 0.84551 0.44018 0.0
O95 O 0.94444 0.82226 0.43407 0.0
O96 O 0.97683 0.86616 0.42275 0.0
O97 O 0.97494 0.84618 0.40718 0.0
O98 O 0.42601 0.19801 0.69062 0.0
Cd99 Cd 0.42523 0.21998 0.68211 0.0
Cd100 Cd 0.45561 0.21597 0.68399 0.0
O101 O 0.45065 0.19261 0.68723 0.0
O102 O 0.40347 0.22153 0.67494 0.0
O103 O 0.42318 0.22198 0.65892 0.0
C104 C 0.40846 0.22152 0.66097 0.0
C105 C 0.47243 0.22692 0.66578 0.0
C106 C 0.43708 0.18851 0.69106 0.0
C107 C 0.44026 0.23696 0.7073 0.0
O108 O 0.452 0.22911 0.70343 0.0
O109 O 0.42816 0.23662 0.69902 0.0
O110 O 0.47757 0.21997 0.67788 0.0
O111 O 0.45771 0.22677 0.66348 0.0
O112 O 0.06552 0.03623 0.31813 0.0
Cd113 Cd 0.08469 0.04921 0.31289 0.0
Cd114 Cd 0.08988 0.04604 0.34382 0.0
O115 O 0.07096 0.0314 0.34253 0.0
O116 O 0.09015 0.0453 0.29075 0.0
O117 O 0.10467 0.03768 0.31023 0.0
C118 C 0.10212 0.03789 0.29555 0.0
C119 C 0.11055 0.04298 0.36101 0.0
C120 C 0.06214 0.02992 0.3309 0.0
C121 C 0.08196 0.07776 0.33157 0.0
O122 O 0.08425 0.06883 0.34287 0.0
O123 O 0.08233 0.07269 0.31782 0.0
O124 O 0.09658 0.04449 0.36571 0.0
O125 O 0.11277 0.04171 0.34637 0.0
O126 O 0.23304 0.31917 0.56847 0.0
Cd127 Cd 0.22091 0.33903 0.56406 0.0
Cd128 Cd 0.22722 0.34315 0.59456 0.0
O129 O 0.24194 0.32441 0.59168 0.0
O130 O 0.22449 0.34375 0.54171 0.0
O131 O 0.23284 0.3587 0.56056 0.0
C132 C 0.23234 0.35563 0.54599 0.0
C133 C 0.2306 0.36372 0.61182 0.0
C134 C 0.24114 0.31546 0.58008 0.0
C135 C 0.19414 0.33639 0.58455 0.0
O136 O 0.20438 0.33744 0.5949 0.0
O137 O 0.19768 0.3378 0.57038 0.0
O138 O 0.22982 0.34967 0.61645 0.0
O139 O 0.23122 0.36606 0.59715 0.0
O140 O 0.95115 0.47889 0.82072 0.0
Cd141 Cd 0.93085 0.467 0.81782 0.0
Cd142 Cd 0.92715 0.47564 0.84694 0.0
O143 O 0.94551 0.4905 0.84262 0.0
O144 O 0.92374 0.46943 0.79587 0.0
O145 O 0.91186 0.48012 0.81569 0.0
C146 C 0.91307 0.4785 0.80094 0.0
C147 C 0.90534 0.47972 0.86238 0.0
C148 C 0.9547 0.4883 0.83137 0.0
C149 C 0.93442 0.44212 0.84042 0.0
O150 O 0.93391 0.45332 0.84977 0.0
O151 O 0.93193 0.44433 0.82613 0.0
O152 O 0.91907 0.48027 0.86798 0.0
O153 O 0.904 0.47868 0.84761 0.0
O154 O 0.79082 0.20256 0.06658 0.0
Cd155 Cd 0.80327 0.18247 0.06385 0.0
Cd156 Cd 0.79744 0.18093 0.09339 0.0
O157 O 0.78052 0.1972 0.08915 0.0
O158 O 0.80032 0.17526 0.04201 0.0
O159 O 0.79074 0.16299 0.06214 0.0
C160 C 0.79181 0.16428 0.04734 0.0
C161 C 0.79582 0.15936 0.10957 0.0
C162 C 0.78167 0.20602 0.07749 0.0
C163 C 0.82941 0.18988 0.08389 0.0
O164 O 0.81894 0.19053 0.09404 0.0
O165 O 0.82645 0.18463 0.0705 0.0
O166 O 0.79471 0.17318 0.11485 0.0
O167 O 0.79649 0.15767 0.09482 0.0
O168 O 0.06721 0.97957 0.69875 0.0
Cd169 Cd 0.08727 0.96719 0.70105 0.0
Cd170 Cd 0.09081 0.97635 0.67217 0.0
O171 O 0.07305 0.99172 0.6772 0.0
O172 O 0.09508 0.96936 0.72281 0.0
O173 O 0.10633 0.9802 0.7027 0.0
C174 C 0.10556 0.9785 0.71746 0.0
C175 C 0.11293 0.98006 0.65706 0.0
C176 C 0.0639 0.98946 0.68848 0.0
C177 C 0.08274 0.94293 0.67792 0.0
O178 O 0.08323 0.95437 0.66886 0.0
O179 O 0.08571 0.94473 0.69219 0.0
O180 O 0.09929 0.98126 0.65132 0.0
O181 O 0.11404 0.97856 0.6718 0.0
O182 O 0.28916 0.31604 0.94918 0.0
Cd183 Cd 0.30152 0.33612 0.95191 0.0
Cd184 Cd 0.29574 0.33755 0.92221 0.0
O185 O 0.27897 0.32105 0.92648 0.0
O186 O 0.29876 0.34296 0.97395 0.0
O187 O 0.28889 0.35547 0.95414 0.0
C188 C 0.29011 0.35395 0.96889 0.0
C189 C 0.29377 0.36065 0.90843 0.0
C190 C 0.28013 0.31236 0.93825 0.0
C191 C 0.32768 0.32871 0.93164 0.0
O192 O 0.3173 0.32813 0.92138 0.0
O193 O 0.32463 0.3339 0.94504 0.0
O194 O 0.29243 0.3475 0.90165 0.0
O195 O 0.29501 0.36071 0.92325 0.0
O196 O 0.9508 0.53788 0.19605 0.0
Cd197 Cd 0.93083 0.55051 0.19824 0.0
Cd198 Cd 0.92947 0.54338 0.16891 0.0
O199 O 0.94546 0.52637 0.17407 0.0
O200 O 0.9237 0.54857 0.22032 0.0
O201 O 0.91155 0.53786 0.20072 0.0
C202 C 0.91287 0.5396 0.21543 0.0
C203 C 0.90591 0.54175 0.15585 0.0
C204 C 0.95424 0.52811 0.1857 0.0
C205 C 0.93895 0.57547 0.17688 0.0
O206 O 0.93964 0.56452 0.16724 0.0
O207 O 0.93321 0.57326 0.19023 0.0
O208 O 0.91879 0.53959 0.14874 0.0
O209 O 0.90636 0.5436 0.17059 0.0
O210 O 0.72787 0.20308 0.45034 0.0
Cd211 Cd 0.71593 0.18271 0.45318 0.0
Cd212 Cd 0.72142 0.18132 0.42347 0.0
O213 O 0.73786 0.19817 0.42752 0.0
O214 O 0.71937 0.17548 0.47497 0.0
O215 O 0.72892 0.16351 0.45466 0.0
C216 C 0.72804 0.16472 0.46947 0.0
C217 C 0.72345 0.1598 0.40725 0.0
C218 C 0.73669 0.20688 0.43927 0.0
C219 C 0.68933 0.18941 0.4334 0.0
O220 O 0.69962 0.1902 0.42308 0.0
O221 O 0.69263 0.18441 0.44681 0.0
O222 O 0.7241 0.17365 0.40197 0.0
O223 O 0.72306 0.15809 0.42201 0.0
O224 O 0.34909 0.08228 0.06489 0.0
Cd225 Cd 0.34494 0.08905 0.04282 0.0
Cd226 Cd 0.31646 0.08532 0.05296 0.0
O227 O 0.32605 0.085 0.07518 0.0
O228 O 0.36559 0.09736 0.03697 0.0
O229 O 0.34521 0.11219 0.04012 0.0
C230 C 0.3599 0.11101 0.03817 0.0
C231 C 0.29982 0.10317 0.0413 0.0
C232 C 0.34042 0.08232 0.07664 0.0
C233 C 0.32872 0.06154 0.03102 0.0
O234 O 0.31875 0.06485 0.04123 0.0
O235 O 0.33966 0.07089 0.02809 0.0
O236 O 0.29464 0.09302 0.05089 0.0
O237 O 0.31456 0.10387 0.0393 0.0
O238 O 0.84347 0.93717 0.44574 0.0
Cd239 Cd 0.84472 0.92992 0.46815 0.0
Cd240 Cd 0.81388 0.93319 0.46531 0.0
O241 O 0.81829 0.93651 0.44186 0.0
O242 O 0.86609 0.92155 0.4697 0.0
O243 O 0.84544 0.90683 0.47136 0.0
C244 C 0.86025 0.90796 0.47065 0.0
C245 C 0.79602 0.91615 0.4766 0.0
C246 C 0.83194 0.93872 0.4369 0.0
C247 C 0.83111 0.95625 0.48511 0.0
O248 O 0.81877 0.95237 0.47828 0.0
O249 O 0.84307 0.94784 0.48403 0.0
O250 O 0.79162 0.92862 0.46982 0.0
O251 O 0.81051 0.91279 0.47607 0.0
O252 O 0.31726 0.07345 0.73406 0.0
Cd253 Cd 0.33604 0.0689 0.72032 0.0
Cd254 Cd 0.34233 0.09848 0.72666 0.0
O255 O 0.32431 0.09647 0.74233 0.0
O256 O 0.34192 0.04659 0.72292 0.0
O257 O 0.356 0.06589 0.73169 0.0
C258 C 0.35368 0.05122 0.73078 0.0
C259 C 0.36586 0.11135 0.72986 0.0
C260 C 0.3148 0.08529 0.74231 0.0
C261 C 0.33221 0.09072 0.69425 0.0
O262 O 0.33485 0.10073 0.70455 0.0
O263 O 0.33322 0.07641 0.69743 0.0
O264 O 0.35293 0.11861 0.73047 0.0
O265 O 0.36541 0.09653 0.72892 0.0
O266 O 0.17364 0.5796 0.94794 0.0
Cd267 Cd 0.173 0.58817 0.96991 0.0
Cd268 Cd 0.20359 0.58576 0.96578 0.0
O269 O 0.19834 0.58244 0.94245 0.0
O270 O 0.15139 0.59584 0.97145 0.0
O271 O 0.17144 0.61141 0.97192 0.0
C272 C 0.15667 0.60969 0.97146 0.0
C273 C 0.22164 0.60301 0.97645 0.0
C274 C 0.18468 0.57886 0.93841 0.0
C275 C 0.18768 0.56278 0.9869 0.0
O276 O 0.19947 0.56652 0.97905 0.0
O277 O 0.17567 0.57118 0.98655 0.0
O278 O 0.22594 0.59061 0.96948 0.0
O279 O 0.20709 0.60621 0.97644 0.0
O280 O 0.20214 0.95167 0.22456 0.0
Cd281 Cd 0.18203 0.9535 0.21217 0.0
Cd282 Cd 0.17843 0.92496 0.2221 0.0
O283 O 0.19599 0.93062 0.2374 0.0
O284 O 0.17362 0.97501 0.21419 0.0
O285 O 0.16304 0.95466 0.22528 0.0
C286 C 0.16337 0.96942 0.22345 0.0
C287 C 0.15686 0.90929 0.22652 0.0
C288 C 0.20524 0.94174 0.23485 0.0
C289 C 0.18643 0.92983 0.18851 0.0
O290 O 0.18603 0.92109 0.2002 0.0
O291 O 0.18344 0.94413 0.18994 0.0
O292 O 0.17068 0.90405 0.22778 0.0
O293 O 0.15523 0.9239 0.22446 0.0
O294 O 0.67225 0.9323 0.06516 0.0
Cd295 Cd 0.67683 0.92522 0.04325 0.0
Cd296 Cd 0.70509 0.92926 0.05386 0.0
O297 O 0.6951 0.92997 0.0759 0.0
O298 O 0.6562 0.91713 0.03708 0.0
O299 O 0.67629 0.90204 0.04069 0.0
C300 C 0.66166 0.90341 0.03843 0.0
C301 C 0.72214 0.91138 0.04285 0.0
C302 C 0.6807 0.93258 0.07706 0.0
C303 C 0.69319 0.95264 0.03134 0.0
O304 O 0.70299 0.94954 0.04178 0.0
O305 O 0.68235 0.94319 0.02838 0.0
O306 O 0.727 0.92172 0.05239 0.0
O307 O 0.70745 0.91049 0.04054 0.0
O308 O 0.31328 0.4452 0.78736 0.0
Cd309 Cd 0.33259 0.45036 0.80023 0.0
Cd310 Cd 0.33702 0.41982 0.79742 0.0
O311 O 0.31869 0.42091 0.78211 0.0
O312 O 0.33823 0.47245 0.79609 0.0
O313 O 0.35255 0.45282 0.78854 0.0
C314 C 0.3501 0.4675 0.78861 0.0
C315 C 0.35898 0.40425 0.79497 0.0
C316 C 0.30987 0.43255 0.78082 0.0
C317 C 0.32846 0.43191 0.8288 0.0
O318 O 0.33014 0.42051 0.81988 0.0
O319 O 0.33008 0.44562 0.82382 0.0
O320 O 0.34534 0.39849 0.79594 0.0
O321 O 0.36013 0.41903 0.79393 0.0
O322 O 0.70272 0.06687 0.28994 0.0
Cd323 Cd 0.68246 0.0645 0.30204 0.0
Cd324 Cd 0.67825 0.09287 0.29173 0.0
O325 O 0.69633 0.0877 0.27686 0.0
O326 O 0.67507 0.04256 0.30039 0.0
O327 O 0.66366 0.0621 0.28874 0.0
C328 C 0.66466 0.04742 0.29092 0.0
C329 C 0.65628 0.10784 0.28705 0.0
C330 C 0.70581 0.07684 0.27967 0.0
C331 C 0.68553 0.0887 0.32551 0.0
O332 O 0.68519 0.09728 0.31371 0.0
O333 O 0.68309 0.07428 0.32418 0.0
O334 O 0.66996 0.11346 0.28576 0.0
O335 O 0.65506 0.09318 0.28915 0.0
O336 O 0.04073 0.81685 0.56757 0.0
Cd337 Cd 0.05289 0.81432 0.58776 0.0
Cd338 Cd 0.04385 0.84325 0.59144 0.0
O339 O 0.02871 0.83843 0.57348 0.0
O340 O 0.05059 0.7925 0.59532 0.0
O341 O 0.03983 0.81249 0.60684 0.0
C342 C 0.04149 0.79773 0.60589 0.0
C343 C 0.03984 0.85915 0.61291 0.0
C344 C 0.03099 0.82725 0.56424 0.0
C345 C 0.07737 0.83733 0.58371 0.0
O346 O 0.06598 0.84645 0.58423 0.0
O347 O 0.07545 0.82303 0.58642 0.0
O348 O 0.03888 0.86436 0.59906 0.0
O349 O 0.04129 0.84447 0.61463 0.0
O350 O 0.91992 0.8156 0.83401 0.0
Cd351 Cd 0.92479 0.79385 0.84157 0.0
Cd352 Cd 0.95261 0.80481 0.83621 0.0
O353 O 0.94265 0.82679 0.83566 0.0
O354 O 0.90488 0.78782 0.85157 0.0
O355 O 0.92618 0.79212 0.86473 0.0
C356 C 0.91154 0.78961 0.86472 0.0
C357 C 0.97086 0.79403 0.85306 0.0
C358 C 0.92817 0.82764 0.83329 0.0
C359 C 0.9396 0.78203 0.8136 0.0
O360 O 0.94905 0.79291 0.81608 0.0
O361 O 0.92972 0.77838 0.82384 0.0
O362 O 0.97508 0.80281 0.8418 0.0
O363 O 0.95626 0.7923 0.85538 0.0
O364 O 0.97795 0.70138 0.06521 0.0
Cd365 Cd 0.9664 0.70432 0.08573 0.0
Cd366 Cd 0.97406 0.67473 0.08892 0.0
O367 O 0.98876 0.67899 0.07041 0.0
O368 O 0.96944 0.7261 0.09306 0.0
O369 O 0.97982 0.7059 0.10456 0.0
C370 C 0.97848 0.72069 0.10357 0.0
C371 C 0.97825 0.65881 0.11027 0.0
C372 C 0.98695 0.69046 0.06144 0.0
C373 C 0.94066 0.68252 0.0829 0.0
O374 O 0.95147 0.67273 0.08289 0.0
O375 O 0.94349 0.69671 0.08529 0.0
O376 O 0.97837 0.65344 0.09645 0.0
O377 O 0.97755 0.67356 0.11193 0.0
O378 O 0.09807 0.70102 0.33445 0.0
Cd379 Cd 0.09564 0.72338 0.34119 0.0
Cd380 Cd 0.06621 0.71537 0.33703 0.0
O381 O 0.07411 0.69258 0.33553 0.0
O382 O 0.1164 0.72777 0.35014 0.0
O383 O 0.09535 0.7261 0.36431 0.0
C384 C 0.11016 0.72716 0.36359 0.0
C385 C 0.04831 0.72626 0.3542 0.0
C386 C 0.08845 0.69006 0.33354 0.0
C387 C 0.08064 0.73704 0.31386 0.0
O388 O 0.06973 0.72789 0.31723 0.0
O389 O 0.092 0.73863 0.32303 0.0
O390 O 0.04387 0.71814 0.34255 0.0
O391 O 0.06295 0.72723 0.35675 0.0
O392 O 0.03414 0.19248 0.45026 0.0
Cd393 Cd 0.04879 0.19902 0.43285 0.0
Cd394 Cd 0.04776 0.16826 0.4271 0.0
O395 O 0.03155 0.16781 0.44474 0.0
O396 O 0.04416 0.22144 0.42948 0.0
O397 O 0.03987 0.20365 0.41183 0.0
C398 C 0.03867 0.21784 0.41615 0.0
C399 C 0.04589 0.15479 0.40378 0.0
C400 C 0.02846 0.17934 0.45325 0.0
C401 C 0.07786 0.1815 0.43859 0.0
O402 O 0.06998 0.16978 0.43485 0.0
O403 O 0.07203 0.19496 0.43802 0.0
O404 O 0.04695 0.14772 0.41678 0.0
O405 O 0.04478 0.16961 0.40404 0.0
O406 O 0.59586 0.81988 0.691 0.0
Cd407 Cd 0.59521 0.79841 0.68137 0.0
Cd408 Cd 0.5656 0.80411 0.68265 0.0
O409 O 0.57233 0.82725 0.68485 0.0
O410 O 0.61625 0.7954 0.67246 0.0
O411 O 0.59536 0.7976 0.65813 0.0
C412 C 0.61017 0.79657 0.65896 0.0
C413 C 0.5491 0.79246 0.66455 0.0
C414 C 0.58565 0.83028 0.69026 0.0
C415 C 0.57902 0.78251 0.70627 0.0
O416 O 0.56816 0.79168 0.70274 0.0
O417 O 0.59079 0.78142 0.69757 0.0
O418 O 0.54374 0.80113 0.67539 0.0
O419 O 0.5639 0.79139 0.6633 0.0
O420 O 0.9787 0.31742 0.95193 0.0
Cd421 Cd 0.9662 0.31399 0.93211 0.0
Cd422 Cd 0.97339 0.34364 0.92838 0.0
O423 O 0.98858 0.3402 0.94663 0.0
O424 O 0.96959 0.29203 0.92572 0.0
O425 O 0.97788 0.31192 0.91214 0.0
C426 C 0.97735 0.29718 0.91411 0.0
C427 C 0.97693 0.35983 0.90703 0.0
C428 C 0.98739 0.32863 0.95557 0.0
C429 C 0.94023 0.33517 0.93612 0.0
O430 O 0.95086 0.34513 0.93503 0.0
O431 O 0.94319 0.32095 0.93409 0.0
O432 O 0.97693 0.36507 0.9209 0.0
O433 O 0.97663 0.34508 0.90528 0.0
O434 O 0.42366 0.70032 0.18871 0.0
Cd435 Cd 0.424 0.72193 0.17942 0.0
Cd436 Cd 0.454 0.71694 0.18143 0.0
O437 O 0.44781 0.69374 0.18417 0.0
O438 O 0.40284 0.72449 0.17067 0.0
O439 O 0.42367 0.72309 0.15615 0.0
C440 C 0.40884 0.72367 0.15711 0.0
C441 C 0.47096 0.72807 0.16341 0.0
C442 C 0.43427 0.6903 0.18872 0.0
C443 C 0.43947 0.73837 0.20466 0.0
O444 O 0.45081 0.7298 0.20116 0.0
O445 O 0.42763 0.73879 0.19599 0.0
O446 O 0.47604 0.71992 0.17477 0.0
O447 O 0.45619 0.72897 0.16167 0.0
O448 O 0.06709 0.53835 0.82059 0.0
Cd449 Cd 0.08651 0.55141 0.81703 0.0
Cd450 Cd 0.09089 0.54356 0.8464 0.0
O451 O 0.07314 0.52777 0.84286 0.0
O452 O 0.09193 0.54882 0.79463 0.0
O453 O 0.10648 0.54005 0.81358 0.0
C454 C 0.10378 0.54094 0.79897 0.0
C455 C 0.11409 0.54028 0.85981 0.0
C456 C 0.06393 0.52914 0.83151 0.0
C457 C 0.0819 0.57657 0.8393 0.0
O458 O 0.08326 0.56565 0.84892 0.0
O459 O 0.08416 0.57413 0.82499 0.0
O460 O 0.10097 0.53926 0.8667 0.0
O461 O 0.11403 0.5416 0.845 0.0
O462 O 0.22704 0.81693 0.06442 0.0
Cd463 Cd 0.21381 0.83634 0.06169 0.0
Cd464 Cd 0.22364 0.8411 0.09017 0.0
O465 O 0.23938 0.82363 0.08556 0.0
O466 O 0.21558 0.84235 0.03941 0.0
O467 O 0.22519 0.85631 0.05844 0.0
C468 C 0.22376 0.85399 0.04381 0.0
C469 C 0.22757 0.86318 0.10523 0.0
C470 C 0.23719 0.81416 0.07458 0.0
C471 C 0.19021 0.83176 0.08537 0.0
O472 O 0.20183 0.83319 0.09411 0.0
O473 O 0.19156 0.83402 0.07092 0.0
O474 O 0.22896 0.84954 0.11087 0.0
O475 O 0.2256 0.86436 0.09055 0.0
O476 O 0.95017 0.98198 0.3222 0.0
Cd477 Cd 0.93107 0.96847 0.31833 0.0
Cd478 Cd 0.9251 0.97643 0.34764 0.0
O479 O 0.94319 0.99187 0.34462 0.0
O480 O 0.92511 0.97041 0.29595 0.0
O481 O 0.9115 0.98034 0.31502 0.0
C482 C 0.91367 0.97885 0.30038 0.0
C483 C 0.90133 0.98006 0.35987 0.0
C484 C 0.95269 0.991 0.33345 0.0
C485 C 0.93417 0.94344 0.34143 0.0
O486 O 0.93226 0.95436 0.35093 0.0
O487 O 0.93295 0.94589 0.32699 0.0
O488 O 0.9141 0.98122 0.36737 0.0
O489 O 0.90211 0.9785 0.34511 0.0
O490 O 0.79078 0.70175 0.56892 0.0
Cd491 Cd 0.80271 0.68128 0.56684 0.0
Cd492 Cd 0.79612 0.68039 0.59614 0.0
O493 O 0.77948 0.69673 0.59109 0.0
O494 O 0.8 0.67352 0.5451 0.0
O495 O 0.78937 0.66235 0.56533 0.0
C496 C 0.79086 0.66312 0.55054 0.0
C497 C 0.79397 0.65804 0.61106 0.0
C498 C 0.78125 0.70545 0.57942 0.0
C499 C 0.8284 0.68844 0.58763 0.0
O500 O 0.81763 0.6898 0.59738 0.0
O501 O 0.82572 0.68273 0.57436 0.0
O502 O 0.7925 0.67153 0.61709 0.0
O503 O 0.79535 0.65718 0.59628 0.0
O504 O 0.06619 0.47729 0.20021 0.0
Cd505 Cd 0.08589 0.46465 0.20385 0.0
Cd506 Cd 0.0904 0.47253 0.17452 0.0
O507 O 0.07229 0.48785 0.17794 0.0
O508 O 0.09176 0.46775 0.22603 0.0
O509 O 0.10582 0.47631 0.20658 0.0
C510 C 0.10347 0.47562 0.22127 0.0
C511 C 0.11204 0.4762 0.15873 0.0
C512 C 0.06297 0.48637 0.18919 0.0
C513 C 0.08205 0.43927 0.18192 0.0
O514 O 0.0834 0.45018 0.1723 0.0
O515 O 0.08394 0.4418 0.19626 0.0
O516 O 0.09825 0.47652 0.1533 0.0
O517 O 0.11357 0.47547 0.17349 0.0
O518 O 0.28942 0.81736 0.44918 0.0
Cd519 Cd 0.30236 0.83685 0.45275 0.0
Cd520 Cd 0.29442 0.84125 0.42337 0.0
O521 O 0.27885 0.82332 0.42689 0.0
O522 O 0.29971 0.84232 0.47511 0.0
O523 O 0.291 0.85686 0.45612 0.0
C524 C 0.29188 0.85419 0.47074 0.0
C525 C 0.29088 0.86366 0.40871 0.0
C526 C 0.28028 0.81411 0.43823 0.0
C527 C 0.32754 0.83244 0.43054 0.0
O528 O 0.31661 0.8339 0.42095 0.0
O529 O 0.32512 0.8345 0.44488 0.0
O530 O 0.29024 0.85018 0.40256 0.0
O531 O 0.29195 0.86443 0.42351 0.0
O532 O 0.95103 0.03927 0.70166 0.0
Cd533 Cd 0.93056 0.05084 0.70493 0.0
Cd534 Cd 0.92721 0.04361 0.67506 0.0
O535 O 0.94579 0.02897 0.67903 0.0
O536 O 0.92356 0.0477 0.72677 0.0
O537 O 0.91156 0.03766 0.70668 0.0
C538 C 0.9128 0.03889 0.72147 0.0
C539 C 0.9067 0.0398 0.65789 0.0
C540 C 0.95479 0.03054 0.69052 0.0
C541 C 0.93332 0.07691 0.68364 0.0
O542 O 0.93314 0.06628 0.67365 0.0
O543 O 0.93111 0.07385 0.6978 0.0
O544 O 0.92081 0.03994 0.65331 0.0
O545 O 0.90425 0.03997 0.67255 0.0
O546 O 0.72762 0.70112 0.95328 0.0
Cd547 Cd 0.71438 0.68146 0.95551 0.0
Cd548 Cd 0.72198 0.67967 0.92665 0.0
O549 O 0.7394 0.69509 0.93165 0.0
O550 O 0.71663 0.67483 0.97757 0.0
O551 O 0.72575 0.66137 0.95798 0.0
C552 C 0.7246 0.66326 0.9727 0.0
C553 C 0.72355 0.65765 0.91119 0.0
C554 C 0.73773 0.70409 0.9431 0.0
C555 C 0.68976 0.68957 0.93412 0.0
O556 O 0.70095 0.69014 0.92476 0.0
O557 O 0.69164 0.68399 0.94757 0.0
O558 O 0.72553 0.67125 0.90559 0.0
O559 O 0.722 0.6564 0.92592 0.0
O560 O 0.35115 0.58368 0.5643 0.0
Cd561 Cd 0.34887 0.5905 0.54193 0.0
Cd562 Cd 0.31954 0.5864 0.54971 0.0
O563 O 0.32721 0.58519 0.57261 0.0
O564 O 0.36991 0.59894 0.53792 0.0
O565 O 0.34924 0.61364 0.5389 0.0
C566 C 0.36406 0.61256 0.53826 0.0
C567 C 0.30246 0.60387 0.53799 0.0
C568 C 0.34147 0.58287 0.57522 0.0
C569 C 0.33415 0.56273 0.52884 0.0
O570 O 0.32313 0.5662 0.53785 0.0
O571 O 0.34534 0.57207 0.52697 0.0
O572 O 0.29747 0.59301 0.54687 0.0
O573 O 0.31721 0.60543 0.53666 0.0
O574 O 0.84822 0.43305 0.95344 0.0
Cd575 Cd 0.84611 0.42585 0.97568 0.0
Cd576 Cd 0.81657 0.432 0.96903 0.0
O577 O 0.82397 0.43458 0.9461 0.0
O578 O 0.86697 0.41688 0.97921 0.0
O579 O 0.84596 0.40266 0.97851 0.0
C580 C 0.8608 0.4034 0.979 0.0
C581 C 0.79913 0.4143 0.97974 0.0
C582 C 0.83831 0.43554 0.94302 0.0
C583 C 0.83273 0.45346 0.99095 0.0
O584 O 0.82097 0.45093 0.98259 0.0
O585 O 0.84392 0.44397 0.99116 0.0
O586 O 0.79435 0.42593 0.97177 0.0
O587 O 0.81384 0.41211 0.9806 0.0
O588 O 0.318 0.57083 0.22626 0.0
Cd589 Cd 0.33828 0.56836 0.21425 0.0
Cd590 Cd 0.34196 0.59719 0.22385 0.0
O591 O 0.32387 0.59212 0.23883 0.0
O592 O 0.34571 0.54642 0.21615 0.0
O593 O 0.3571 0.56614 0.22749 0.0
C594 C 0.35618 0.55144 0.22547 0.0
C595 C 0.3648 0.61088 0.22813 0.0
C596 C 0.31461 0.58101 0.23622 0.0
C597 C 0.33481 0.592 0.19024 0.0
O598 O 0.33499 0.60095 0.20178 0.0
O599 O 0.33752 0.57768 0.19196 0.0
O600 O 0.35153 0.61742 0.22947 0.0
O601 O 0.36505 0.59617 0.22613 0.0
O602 O 0.16686 0.08489 0.45572 0.0
Cd603 Cd 0.16992 0.09172 0.47797 0.0
Cd604 Cd 0.19917 0.08838 0.46921 0.0
O605 O 0.19048 0.08747 0.44668 0.0
O606 O 0.14974 0.10172 0.48314 0.0
O607 O 0.17141 0.11474 0.48031 0.0
C608 C 0.15664 0.11482 0.48197 0.0
C609 C 0.2165 0.10582 0.48061 0.0
C610 C 0.17621 0.0847 0.4445 0.0
C611 C 0.18586 0.0644 0.49055 0.0
O612 O 0.19637 0.06808 0.48104 0.0
O613 O 0.17453 0.07346 0.49289 0.0
O614 O 0.2213 0.09521 0.47134 0.0
O615 O 0.20179 0.10717 0.48246 0.0
O616 O 0.19783 0.44357 0.73533 0.0
Cd617 Cd 0.17987 0.44873 0.72076 0.0
Cd618 Cd 0.17314 0.41894 0.72649 0.0
O619 O 0.19078 0.42025 0.74264 0.0
O620 O 0.17607 0.47141 0.72349 0.0
O621 O 0.15925 0.45361 0.73041 0.0
C622 C 0.16322 0.46795 0.73015 0.0
C623 C 0.14935 0.40643 0.72909 0.0
C624 C 0.20014 0.43153 0.7433 0.0
C625 C 0.18433 0.42734 0.69444 0.0
O626 O 0.18105 0.41719 0.70442 0.0
O627 O 0.18365 0.44161 0.69789 0.0
O628 O 0.16214 0.39894 0.72969 0.0
O629 O 0.15005 0.42126 0.72843 0.0
O630 O 0.66434 0.43401 0.56295 0.0
Cd631 Cd 0.66675 0.42677 0.54075 0.0
Cd632 Cd 0.69637 0.43277 0.54748 0.0
O633 O 0.68863 0.43508 0.57035 0.0
O634 O 0.6469 0.41569 0.53661 0.0
O635 O 0.66931 0.40381 0.53834 0.0
C636 C 0.65451 0.40296 0.53723 0.0
C637 C 0.71435 0.41552 0.53682 0.0
C638 C 0.6743 0.43628 0.57341 0.0
C639 C 0.68023 0.45441 0.52564 0.0
O640 O 0.69193 0.45177 0.53405 0.0
O641 O 0.66901 0.44495 0.52529 0.0
O642 O 0.71879 0.42714 0.54498 0.0
O643 O 0.6997 0.41309 0.53573 0.0
O644 O 0.31563 0.95289 0.28969 0.0
Cd645 Cd 0.33552 0.95509 0.30259 0.0
Cd646 Cd 0.33696 0.92593 0.29586 0.0
O647 O 0.32146 0.93089 0.27847 0.0
O648 O 0.34302 0.9769 0.30022 0.0
O649 O 0.35511 0.95685 0.29026 0.0
C650 C 0.35396 0.97163 0.29162 0.0
C651 C 0.35855 0.90976 0.29453 0.0
C652 C 0.31254 0.94244 0.27989 0.0
C653 C 0.32727 0.93436 0.32782 0.0
O654 O 0.3265 0.9247 0.31691 0.0
O655 O 0.33308 0.94764 0.32552 0.0
O656 O 0.34477 0.90456 0.29272 0.0
O657 O 0.36025 0.92448 0.29577 0.0
O658 O 0.70038 0.5686 0.79281 0.0
Cd659 Cd 0.68012 0.56593 0.80479 0.0
Cd660 Cd 0.67611 0.59474 0.79539 0.0
O661 O 0.69422 0.58988 0.78037 0.0
O662 O 0.67294 0.54398 0.80265 0.0
O663 O 0.66136 0.56371 0.79148 0.0
C664 C 0.66248 0.54899 0.79331 0.0
C665 C 0.65358 0.60892 0.79105 0.0
C666 C 0.70359 0.57885 0.78286 0.0
C667 C 0.68327 0.58934 0.829 0.0
O668 O 0.683 0.59836 0.81752 0.0
O669 O 0.68075 0.575 0.82717 0.0
O670 O 0.667 0.61519 0.78992 0.0
O671 O 0.65299 0.59419 0.79289 0.0
O672 O 0.53531 0.32069 0.56472 0.0
Cd673 Cd 0.54959 0.31451 0.58259 0.0
Cd674 Cd 0.54828 0.34539 0.5879 0.0
O675 O 0.53239 0.34538 0.57 0.0
O676 O 0.5447 0.29232 0.58689 0.0
O677 O 0.54036 0.31095 0.60367 0.0
C678 C 0.53912 0.29657 0.59999 0.0
C679 C 0.54677 0.36155 0.60954 0.0
C680 C 0.52958 0.33376 0.56152 0.0
C681 C 0.57868 0.33178 0.57725 0.0
O682 O 0.5706 0.34346 0.58057 0.0
O683 O 0.57297 0.31828 0.5779 0.0
O684 O 0.54814 0.36691 0.59579 0.0
O685 O 0.545 0.34688 0.61103 0.0
O686 O 0.42176 0.31497 0.83612 0.0
Cd687 Cd 0.42495 0.29278 0.84301 0.0
Cd688 Cd 0.45401 0.30169 0.83921 0.0
O689 O 0.44532 0.32422 0.83831 0.0
O690 O 0.40418 0.28773 0.85161 0.0
O691 O 0.42488 0.29026 0.86614 0.0
C692 C 0.41012 0.28875 0.86517 0.0
C693 C 0.47099 0.29033 0.85698 0.0
C694 C 0.431 0.32626 0.83578 0.0
C695 C 0.44069 0.28003 0.81562 0.0
O696 O 0.45116 0.28971 0.81897 0.0
O697 O 0.42956 0.2777 0.82492 0.0
O698 O 0.476 0.29945 0.84633 0.0
O699 O 0.45625 0.28859 0.85818 0.0
O700 O 0.47627 0.19954 0.06621 0.0
Cd701 Cd 0.46432 0.20232 0.08645 0.0
Cd702 Cd 0.47454 0.17409 0.09084 0.0
O703 O 0.49026 0.17961 0.07348 0.0
O704 O 0.46631 0.22422 0.09399 0.0
O705 O 0.47757 0.20439 0.10529 0.0
C706 C 0.47562 0.21912 0.10443 0.0
C707 C 0.47827 0.15965 0.11339 0.0
C708 C 0.48699 0.18992 0.06354 0.0
C709 C 0.44104 0.17841 0.08222 0.0
O710 O 0.45288 0.16987 0.08269 0.0
O711 O 0.44218 0.19271 0.08536 0.0
O712 O 0.48014 0.15364 0.09995 0.0
O713 O 0.47595 0.1743 0.11409 0.0
O714 O 0.59902 0.2017 0.33175 0.0
Cd715 Cd 0.59535 0.22345 0.34004 0.0
Cd716 Cd 0.5669 0.21389 0.33514 0.0
O717 O 0.57582 0.19154 0.33358 0.0
O718 O 0.61565 0.22841 0.34988 0.0
O719 O 0.59438 0.22464 0.36327 0.0
C720 C 0.60911 0.22662 0.36309 0.0
C721 C 0.54921 0.22463 0.35262 0.0
C722 C 0.59018 0.1901 0.33079 0.0
C723 C 0.58045 0.23662 0.31271 0.0
O724 O 0.5705 0.22621 0.31526 0.0
O725 O 0.59078 0.23954 0.32274 0.0
O726 O 0.54459 0.21636 0.34113 0.0
O727 O 0.56389 0.22588 0.35475 0.0
O728 O 0.53702 0.69985 0.45291 0.0
Cd729 Cd 0.55018 0.7048 0.43376 0.0
Cd730 Cd 0.54763 0.67405 0.42959 0.0
O731 O 0.53213 0.67543 0.44774 0.0
O732 O 0.54593 0.72676 0.42784 0.0
O733 O 0.53876 0.70688 0.41365 0.0
C734 C 0.53865 0.72159 0.41595 0.0
C735 C 0.54535 0.65734 0.40846 0.0
C736 C 0.53054 0.68718 0.45635 0.0
C737 C 0.57884 0.68666 0.43835 0.0
O738 O 0.57006 0.67516 0.43657 0.0
O739 O 0.57374 0.70031 0.43668 0.0
O740 O 0.54636 0.65232 0.42236 0.0
O741 O 0.54426 0.67203 0.40653 0.0
O742 O 0.09408 0.32126 0.6835 0.0
Cd743 Cd 0.09726 0.29898 0.67651 0.0
Cd744 Cd 0.06602 0.2989 0.6816 0.0
O745 O 0.0688 0.32237 0.68636 0.0
O746 O 0.11898 0.29993 0.6691 0.0
O747 O 0.09953 0.29543 0.65346 0.0
C748 C 0.11405 0.29805 0.65526 0.0
C749 C 0.04828 0.28789 0.66431 0.0
C750 C 0.08201 0.32875 0.68686 0.0
C751 C 0.08604 0.27978 0.70283 0.0
O752 O 0.07274 0.28481 0.69942 0.0
O753 O 0.09766 0.28324 0.69458 0.0
O754 O 0.04396 0.29333 0.67745 0.0
O755 O 0.0626 0.28955 0.66054 0.0
O756 O 0.47727 0.81847 0.95151 0.0
Cd757 Cd 0.46484 0.81559 0.93156 0.0
Cd758 Cd 0.47329 0.84472 0.9276 0.0
O759 O 0.48879 0.84028 0.94539 0.0
O760 O 0.46712 0.7936 0.9245 0.0
O761 O 0.47768 0.81335 0.91239 0.0
C762 C 0.47609 0.79861 0.91372 0.0
C763 C 0.47701 0.85943 0.90526 0.0
C764 C 0.48688 0.82906 0.95467 0.0
C765 C 0.44002 0.83829 0.93577 0.0
O766 O 0.45121 0.84765 0.93507 0.0
O767 O 0.4422 0.82401 0.9331 0.0
O768 O 0.47805 0.86547 0.91877 0.0
O769 O 0.47549 0.84468 0.90441 0.0
O770 O 0.92043 0.20225 0.18509 0.0
Cd771 Cd 0.92329 0.22422 0.17725 0.0
Cd772 Cd 0.95242 0.21583 0.18174 0.0
O773 O 0.94416 0.19324 0.18413 0.0
O774 O 0.90282 0.22864 0.16764 0.0
O775 O 0.92415 0.22605 0.15405 0.0
C776 C 0.90935 0.22747 0.15436 0.0
C777 C 0.97069 0.226 0.16451 0.0
C778 C 0.9298 0.19113 0.18647 0.0
C779 C 0.93824 0.23845 0.20417 0.0
O780 O 0.94894 0.22894 0.20114 0.0
O781 O 0.92704 0.24012 0.19483 0.0
O782 O 0.97487 0.21814 0.17642 0.0
O783 O 0.9561 0.22707 0.16173 0.0
O784 O 0.56756 0.04209 0.81778 0.0
Cd785 Cd 0.58738 0.05479 0.81527 0.0
Cd786 Cd 0.59158 0.04529 0.84403 0.0
O787 O 0.57396 0.02976 0.83906 0.0
O788 O 0.59455 0.0531 0.79324 0.0
O789 O 0.60665 0.04218 0.81279 0.0
C790 C 0.60535 0.04406 0.79808 0.0
C791 C 0.614 0.04131 0.8586 0.0
C792 C 0.56458 0.03203 0.82799 0.0
C793 C 0.58287 0.07863 0.83892 0.0
O794 O 0.58378 0.0671 0.84781 0.0
O795 O 0.58557 0.07708 0.82456 0.0
O796 O 0.60049 0.03992 0.86461 0.0
O797 O 0.61482 0.04336 0.84391 0.0
O798 O 0.72872 0.31746 0.06948 0.0
Cd799 Cd 0.71605 0.33742 0.06746 0.0
Cd800 Cd 0.72322 0.33874 0.09674 0.0
O801 O 0.74031 0.32291 0.09139 0.0
O802 O 0.7181 0.34478 0.04548 0.0
O803 O 0.72871 0.35672 0.06527 0.0
C804 C 0.72706 0.35553 0.05053 0.0
C805 C 0.72498 0.36197 0.11035 0.0
C806 C 0.73859 0.31412 0.07977 0.0
C807 C 0.69109 0.32926 0.08882 0.0
O808 O 0.70206 0.32852 0.09843 0.0
O809 O 0.69328 0.33504 0.07549 0.0
O810 O 0.72713 0.34892 0.11713 0.0
O811 O 0.72304 0.36188 0.09562 0.0
O812 O 0.4551 0.47936 0.31535 0.0
Cd813 Cd 0.43445 0.46811 0.31203 0.0
Cd814 Cd 0.43052 0.47629 0.34137 0.0
O815 O 0.44944 0.49048 0.33749 0.0
O816 O 0.42732 0.47117 0.2902 0.0
O817 O 0.41572 0.48163 0.31033 0.0
C818 C 0.41678 0.48022 0.29554 0.0
C819 C 0.40959 0.48103 0.35777 0.0
C820 C 0.45874 0.48835 0.32633 0.0
C821 C 0.43631 0.44263 0.33406 0.0
O822 O 0.43604 0.45358 0.34369 0.0
O823 O 0.43448 0.44529 0.31975 0.0
O824 O 0.42354 0.48082 0.36278 0.0
O825 O 0.40757 0.48038 0.34306 0.0
O826 O 0.28965 0.20174 0.57142 0.0
Cd827 Cd 0.30089 0.18103 0.5688 0.0
Cd828 Cd 0.29161 0.17778 0.59775 0.0
O829 O 0.2773 0.19644 0.59299 0.0
O830 O 0.29846 0.17375 0.54691 0.0
O831 O 0.28708 0.16254 0.56675 0.0
C832 C 0.28894 0.16349 0.552 0.0
C833 C 0.28684 0.15619 0.61322 0.0
C834 C 0.28004 0.20555 0.5818 0.0
C835 C 0.32548 0.18361 0.59184 0.0
O836 O 0.31409 0.1838 0.60097 0.0
O837 O 0.32343 0.18108 0.57753 0.0
O838 O 0.2864 0.16995 0.61874 0.0
O839 O 0.28805 0.15474 0.59848 0.0
O840 O 0.5674 0.97653 0.20207 0.0
Cd841 Cd 0.58734 0.96375 0.20419 0.0
Cd842 Cd 0.58869 0.97062 0.17503 0.0
O843 O 0.57304 0.98789 0.18009 0.0
O844 O 0.59482 0.96617 0.22602 0.0
O845 O 0.60685 0.9762 0.20595 0.0
C846 C 0.60569 0.97486 0.22073 0.0
C847 C 0.61047 0.97195 0.15909 0.0
C848 C 0.56418 0.98634 0.19168 0.0
C849 C 0.57909 0.93861 0.18339 0.0
O850 O 0.57831 0.94953 0.17376 0.0
O851 O 0.58491 0.94086 0.19668 0.0
O852 O 0.59675 0.97378 0.15372 0.0
O853 O 0.61199 0.97073 0.17383 0.0
O854 O 0.7868 0.31966 0.4475 0.0
Cd855 Cd 0.79905 0.33993 0.44952 0.0
Cd856 Cd 0.79198 0.34076 0.42035 0.0
O857 O 0.77489 0.32496 0.42572 0.0
O858 O 0.7968 0.34735 0.47146 0.0
O859 O 0.78596 0.35896 0.4516 0.0
C860 C 0.78764 0.3579 0.46634 0.0
C861 C 0.79092 0.36383 0.4065 0.0
C862 C 0.77689 0.31615 0.43729 0.0
C863 C 0.82411 0.3319 0.42838 0.0
O864 O 0.81307 0.33051 0.41893 0.0
O865 O 0.82189 0.33816 0.44149 0.0
O866 O 0.78848 0.35077 0.39983 0.0
O867 O 0.79255 0.36388 0.42127 0.0
O868 O 0.45058 0.53789 0.70107 0.0
Cd869 Cd 0.43049 0.55024 0.70351 0.0
Cd870 Cd 0.42711 0.54182 0.67435 0.0
O871 O 0.44489 0.52645 0.6791 0.0
O872 O 0.42249 0.54767 0.72513 0.0
O873 O 0.41129 0.53733 0.70473 0.0
C874 C 0.41195 0.53876 0.71953 0.0
C875 C 0.40571 0.53829 0.65824 0.0
C876 C 0.45397 0.52835 0.69049 0.0
C877 C 0.43496 0.57513 0.68107 0.0
O878 O 0.43448 0.56396 0.67169 0.0
O879 O 0.43211 0.57292 0.6953 0.0
O880 O 0.4196 0.53737 0.65308 0.0
O881 O 0.40392 0.53939 0.67295 0.0
O882 O 0.2305 0.19947 0.94879 0.0
Cd883 Cd 0.21824 0.17926 0.95136 0.0
Cd884 Cd 0.22467 0.17805 0.92195 0.0
O885 O 0.24162 0.19421 0.92658 0.0
O886 O 0.22056 0.17256 0.97347 0.0
O887 O 0.23094 0.16001 0.95393 0.0
C888 C 0.22937 0.16159 0.96864 0.0
C889 C 0.226 0.1551 0.90791 0.0
C890 C 0.23997 0.20304 0.93819 0.0
C891 C 0.19261 0.18678 0.93077 0.0
O892 O 0.20334 0.18786 0.92091 0.0
O893 O 0.19526 0.18106 0.94403 0.0
O894 O 0.22794 0.16827 0.9013 0.0
O895 O 0.2247 0.15489 0.92273 0.0
O896 O 0.85266 0.0848 0.56175 0.0
Cd897 Cd 0.84904 0.09227 0.53977 0.0
Cd898 Cd 0.82004 0.0885 0.54899 0.0
O899 O 0.82924 0.0871 0.57134 0.0
O900 O 0.86889 0.10283 0.53432 0.0
O901 O 0.84703 0.1153 0.53797 0.0
C902 C 0.86174 0.11575 0.53587 0.0
C903 C 0.80229 0.10594 0.53816 0.0
C904 C 0.84355 0.08423 0.57317 0.0
C905 C 0.83318 0.06509 0.52693 0.0
O906 O 0.82285 0.06845 0.53676 0.0
O907 O 0.8443 0.07437 0.52446 0.0
O908 O 0.79777 0.09515 0.54738 0.0
O909 O 0.81694 0.10747 0.53606 0.0
O910 O 0.34683 0.93338 0.95285 0.0
Cd911 Cd 0.34272 0.92599 0.97479 0.0
Cd912 Cd 0.31422 0.93115 0.96483 0.0
O913 O 0.32361 0.93292 0.94261 0.0
O914 O 0.36331 0.91733 0.98016 0.0
O915 O 0.34276 0.90276 0.97704 0.0
C916 C 0.35748 0.90376 0.97889 0.0
C917 C 0.2958 0.91389 0.97454 0.0
C918 C 0.33812 0.93475 0.94121 0.0
C919 C 0.32751 0.95334 0.98809 0.0
O920 O 0.31726 0.95061 0.97801 0.0
O921 O 0.33841 0.94376 0.99027 0.0
O922 O 0.29178 0.92565 0.96635 0.0
O923 O 0.31037 0.91128 0.9762 0.0
O924 O 0.81772 0.06776 0.22749 0.0
Cd925 Cd 0.83805 0.06559 0.21548 0.0
Cd926 Cd 0.8419 0.0941 0.22567 0.0
O927 O 0.8238 0.08875 0.24048 0.0
O928 O 0.84583 0.04381 0.21741 0.0
O929 O 0.85676 0.06372 0.22892 0.0
C930 C 0.85606 0.04899 0.22692 0.0
C931 C 0.86378 0.10923 0.23037 0.0
C932 C 0.81447 0.07774 0.2377 0.0
C933 C 0.83481 0.08959 0.19187 0.0
O934 O 0.83503 0.09826 0.20361 0.0
O935 O 0.83739 0.07521 0.19329 0.0
O936 O 0.85007 0.1148 0.23152 0.0
O937 O 0.86507 0.09456 0.22841 0.0
O938 O 0.67113 0.58452 0.44867 0.0
Cd939 Cd 0.66996 0.59143 0.47114 0.0
Cd940 Cd 0.70067 0.58604 0.46977 0.0
O941 O 0.69639 0.58228 0.44627 0.0
O942 O 0.64936 0.60166 0.47275 0.0
O943 O 0.67131 0.6144 0.47463 0.0
C944 C 0.65646 0.61464 0.47386 0.0
C945 C 0.71842 0.60324 0.48099 0.0
C946 C 0.68288 0.58155 0.44053 0.0
C947 C 0.68162 0.56436 0.48904 0.0
O948 O 0.69472 0.56755 0.48333 0.0
O949 O 0.67009 0.5731 0.4866 0.0
O950 O 0.72296 0.5909 0.47407 0.0
O951 O 0.70385 0.60634 0.48067 0.0
O952 O 0.70047 0.9523 0.72493 0.0
Cd953 Cd 0.6799 0.95532 0.71359 0.0
Cd954 Cd 0.67531 0.92732 0.72425 0.0
O955 O 0.69296 0.93294 0.73958 0.0
O956 O 0.67278 0.97735 0.71569 0.0
O957 O 0.66158 0.95779 0.72751 0.0
C958 C 0.66261 0.97248 0.72544 0.0
C959 C 0.65285 0.91295 0.72849 0.0
C960 C 0.70308 0.94293 0.73587 0.0
C961 C 0.68284 0.93106 0.69049 0.0
O962 O 0.68285 0.9227 0.70247 0.0
O963 O 0.6799 0.94541 0.69156 0.0
O964 O 0.66632 0.90697 0.73031 0.0
O965 O 0.65209 0.92758 0.72604 0.0
O966 O 0.17156 0.93461 0.56624 0.0
Cd967 Cd 0.17377 0.92738 0.54397 0.0
Cd968 Cd 0.20319 0.93205 0.55178 0.0
O969 O 0.19554 0.93429 0.57461 0.0
O970 O 0.15265 0.91912 0.5402 0.0
O971 O 0.17312 0.90416 0.54134 0.0
C972 C 0.15832 0.90543 0.5407 0.0
C973 C 0.22122 0.91483 0.54117 0.0
C974 C 0.18118 0.93616 0.57712 0.0
C975 C 0.18825 0.95473 0.52989 0.0
O976 O 0.19933 0.95153 0.53889 0.0
O977 O 0.17697 0.94544 0.52852 0.0
O978 O 0.22557 0.92675 0.54893 0.0
O979 O 0.20661 0.91204 0.5404 0.0
O980 O 0.81829 0.44563 0.28494 0.0
Cd981 Cd 0.83699 0.45091 0.29849 0.0
Cd982 Cd 0.84209 0.42049 0.29564 0.0
O983 O 0.82419 0.42144 0.27976 0.0
O984 O 0.8423 0.47317 0.29466 0.0
O985 O 0.85712 0.45386 0.28728 0.0
C986 C 0.85436 0.46848 0.28732 0.0
C987 C 0.86546 0.40735 0.29294 0.0
C988 C 0.8153 0.43299 0.27819 0.0
C989 C 0.83233 0.43193 0.32681 0.0
O990 O 0.8347 0.42057 0.31797 0.0
O991 O 0.83367 0.44569 0.32188 0.0
O992 O 0.85251 0.40011 0.29333 0.0
O993 O 0.86511 0.42221 0.29281 0.0
O994 O 0.20128 0.07358 0.78536 0.0
Cd995 Cd 0.18222 0.06857 0.79854 0.0
Cd996 Cd 0.17738 0.09912 0.79544 0.0
O997 O 0.19599 0.09796 0.78037 0.0
O998 O 0.17691 0.04628 0.79492 0.0
O999 O 0.16227 0.06552 0.78704 0.0
C1000 C 0.16496 0.05089 0.78736 0.0
C1001 C 0.15421 0.11238 0.79166 0.0
C1002 C 0.20471 0.08625 0.7789 0.0
C1003 C 0.18604 0.08771 0.82696 0.0
O1004 O 0.18378 0.09906 0.81808 0.0
O1005 O 0.18507 0.07394 0.82195 0.0
O1006 O 0.16717 0.11956 0.79258 0.0
O1007 O 0.1545 0.09752 0.79161 0.0
O1008 O 0.54074 0.81852 0.06557 0.0
Cd1009 Cd 0.55335 0.81568 0.08541 0.0
Cd1010 Cd 0.54471 0.8447 0.08951 0.0
O1011 O 0.52903 0.84017 0.0719 0.0
O1012 O 0.55112 0.79372 0.09265 0.0
O1013 O 0.54059 0.81355 0.10462 0.0
C1014 C 0.54218 0.79881 0.10341 0.0
C1015 C 0.54123 0.85894 0.1122 0.0
C1016 C 0.53098 0.82902 0.06254 0.0
C1017 C 0.57791 0.83863 0.08095 0.0
O1018 O 0.56663 0.84787 0.08173 0.0
O1019 O 0.5759 0.82435 0.08371 0.0
O1020 O 0.53991 0.86524 0.09883 0.0
O1021 O 0.54289 0.84419 0.11272 0.0
O1022 O 0.41808 0.81464 0.33394 0.0
Cd1023 Cd 0.42216 0.79255 0.34076 0.0
Cd1024 Cd 0.45069 0.80266 0.33706 0.0
O1025 O 0.44115 0.82487 0.33656 0.0
O1026 O 0.40156 0.78683 0.34932 0.0
O1027 O 0.42214 0.78981 0.3639 0.0
C1028 C 0.40742 0.78797 0.36292 0.0
C1029 C 0.4674 0.7913 0.35503 0.0
C1030 C 0.42679 0.82636 0.33387 0.0
C1031 C 0.43841 0.78072 0.31324 0.0
O1032 O 0.44842 0.79086 0.31663 0.0
O1033 O 0.42742 0.77782 0.32255 0.0
O1034 O 0.47252 0.80082 0.34478 0.0
O1035 O 0.45268 0.78916 0.35571 0.0
O1036 O 0.48287 0.69819 0.56825 0.0
Cd1037 Cd 0.46915 0.70229 0.58714 0.0
Cd1038 Cd 0.47565 0.67252 0.59284 0.0
O1039 O 0.49126 0.67509 0.57486 0.0
O1040 O 0.47176 0.72445 0.59336 0.0
O1041 O 0.48059 0.70494 0.60714 0.0
C1042 C 0.47968 0.71965 0.60502 0.0
C1043 C 0.47864 0.65683 0.61468 0.0
C1044 C 0.49121 0.68646 0.56559 0.0
C1045 C 0.44308 0.6807 0.58309 0.0
O1046 O 0.45343 0.67071 0.58548 0.0
O1047 O 0.44621 0.695 0.58427 0.0
O1048 O 0.47897 0.65128 0.60094 0.0
O1049 O 0.47825 0.67161 0.61608 0.0
O1050 O 0.59464 0.69998 0.82895 0.0
Cd1051 Cd 0.59393 0.72138 0.83871 0.0
Cd1052 Cd 0.56427 0.71569 0.83692 0.0
O1053 O 0.57095 0.69257 0.83446 0.0
O1054 O 0.61505 0.72421 0.84745 0.0
O1055 O 0.59427 0.72212 0.86198 0.0
C1056 C 0.60909 0.72303 0.861 0.0
C1057 C 0.54734 0.72695 0.85487 0.0
C1058 C 0.58439 0.68959 0.82933 0.0
C1059 C 0.57813 0.73752 0.81372 0.0
O1060 O 0.56717 0.72839 0.81705 0.0
O1061 O 0.5898 0.73848 0.82255 0.0
O1062 O 0.54225 0.7185 0.84374 0.0
O1063 O 0.56211 0.72802 0.85648 0.0
O1064 O 0.54352 0.19917 0.95378 0.0
Cd1065 Cd 0.55471 0.20213 0.93309 0.0
Cd1066 Cd 0.54354 0.17441 0.92843 0.0
O1067 O 0.5285 0.18007 0.94631 0.0
O1068 O 0.55264 0.22408 0.92573 0.0
O1069 O 0.54065 0.20442 0.91488 0.0
C1070 C 0.54282 0.21911 0.91568 0.0
C1071 C 0.53898 0.1598 0.90618 0.0
C1072 C 0.53248 0.18992 0.95646 0.0
C1073 C 0.57748 0.17758 0.93562 0.0
O1074 O 0.56536 0.16943 0.93572 0.0
O1075 O 0.57662 0.19195 0.93278 0.0
O1076 O 0.53725 0.15404 0.91975 0.0
O1077 O 0.54142 0.17441 0.90521 0.0
O1078 O 0.09981 0.81391 0.18515 0.0
Cd1079 Cd 0.09629 0.7919 0.17776 0.0
Cd1080 Cd 0.06754 0.80118 0.18187 0.0
O1081 O 0.07646 0.8236 0.18318 0.0
O1082 O 0.11701 0.78688 0.16904 0.0
O1083 O 0.09634 0.78958 0.15454 0.0
C1084 C 0.1111 0.78803 0.15547 0.0
C1085 C 0.05057 0.79019 0.1639 0.0
C1086 C 0.0908 0.82537 0.1858 0.0
C1087 C 0.08061 0.77899 0.20509 0.0
O1088 O 0.07025 0.78883 0.20191 0.0
O1089 O 0.09168 0.77665 0.19572 0.0
O1090 O 0.04557 0.79921 0.17464 0.0
O1091 O 0.0653 0.78837 0.16273 0.0
O1092 O 0.4844 0.32036 0.44959 0.0
Cd1093 Cd 0.47007 0.31399 0.43181 0.0
Cd1094 Cd 0.47155 0.34506 0.42628 0.0
O1095 O 0.48746 0.345 0.44415 0.0
O1096 O 0.47476 0.29162 0.42813 0.0
O1097 O 0.47935 0.30969 0.41083 0.0
C1098 C 0.48046 0.29543 0.41493 0.0
C1099 C 0.47309 0.36151 0.40485 0.0
C1100 C 0.49021 0.33342 0.4527 0.0
C1101 C 0.4411 0.33162 0.4371 0.0
O1102 O 0.44925 0.34322 0.43367 0.0
O1103 O 0.44671 0.31807 0.43652 0.0
O1104 O 0.47173 0.36668 0.41866 0.0
O1105 O 0.47482 0.34686 0.40316 0.0
O1106 O 0.92224 0.70148 0.69109 0.0
Cd1107 Cd 0.92429 0.7226 0.68091 0.0
Cd1108 Cd 0.95295 0.71489 0.68296 0.0
O1109 O 0.94472 0.69216 0.68385 0.0
O1110 O 0.90354 0.72645 0.67164 0.0
O1111 O 0.92443 0.72245 0.65767 0.0
C1112 C 0.90968 0.72423 0.65829 0.0
C1113 C 0.96994 0.72673 0.66542 0.0
C1114 C 0.93142 0.6902 0.68977 0.0
C1115 C 0.9402 0.73679 0.70649 0.0
O1116 O 0.95008 0.72637 0.70361 0.0
O1117 O 0.92958 0.73966 0.69679 0.0
O1118 O 0.97497 0.71745 0.67592 0.0
O1119 O 0.9552 0.72841 0.66424 0.0
O1120 O 0.57148 0.53806 0.32009 0.0
Cd1121 Cd 0.59105 0.55106 0.31735 0.0
Cd1122 Cd 0.59483 0.54208 0.34652 0.0
O1123 O 0.57713 0.52649 0.34197 0.0
O1124 O 0.59686 0.5493 0.29499 0.0
O1125 O 0.61091 0.5396 0.31387 0.0
C1126 C 0.60853 0.54112 0.29926 0.0
C1127 C 0.61798 0.53862 0.35987 0.0
C1128 C 0.56813 0.52836 0.33052 0.0
C1129 C 0.5866 0.57542 0.34047 0.0
O1130 O 0.5874 0.56413 0.34971 0.0
O1131 O 0.58909 0.57347 0.32612 0.0
O1132 O 0.60487 0.53709 0.3667 0.0
O1133 O 0.61793 0.54036 0.3451 0.0
O1134 O 0.72917 0.81706 0.56791 0.0
Cd1135 Cd 0.71617 0.8368 0.56506 0.0
Cd1136 Cd 0.72284 0.83865 0.59433 0.0
O1137 O 0.74007 0.82274 0.59009 0.0
O1138 O 0.71877 0.84265 0.5428 0.0
O1139 O 0.72756 0.85686 0.56199 0.0
C1140 C 0.72661 0.85444 0.54733 0.0
C1141 C 0.72407 0.86069 0.60983 0.0
C1142 C 0.73872 0.81382 0.57853 0.0
C1143 C 0.69076 0.82911 0.58579 0.0
O1144 O 0.70159 0.82857 0.59555 0.0
O1145 O 0.69318 0.83443 0.57232 0.0
O1146 O 0.7257 0.84708 0.6155 0.0
O1147 O 0.72315 0.86194 0.59504 0.0
O1148 O 0.45281 0.97946 0.81797 0.0
Cd1149 Cd 0.43264 0.96703 0.81565 0.0
Cd1150 Cd 0.4315 0.97327 0.84503 0.0
O1151 O 0.44763 0.99022 0.84037 0.0
O1152 O 0.42496 0.96988 0.79393 0.0
O1153 O 0.41328 0.97975 0.81428 0.0
C1154 C 0.41422 0.97857 0.79947 0.0
C1155 C 0.40964 0.97482 0.86086 0.0
C1156 C 0.45636 0.98884 0.82865 0.0
C1157 C 0.44041 0.94124 0.83595 0.0
O1158 O 0.44133 0.9519 0.84587 0.0
O1159 O 0.43474 0.94394 0.82268 0.0
O1160 O 0.42338 0.97615 0.86636 0.0
O1161 O 0.40821 0.97398 0.84609 0.0
O1162 O 0.29029 0.70284 0.06527 0.0
Cd1163 Cd 0.30306 0.68288 0.06288 0.0
Cd1164 Cd 0.29577 0.68145 0.09189 0.0
O1165 O 0.27872 0.69735 0.08714 0.0
O1166 O 0.30053 0.67654 0.04074 0.0
O1167 O 0.29134 0.66296 0.06021 0.0
C1168 C 0.29242 0.66502 0.04551 0.0
C1169 C 0.29401 0.65962 0.1076 0.0
C1170 C 0.28048 0.7062 0.07561 0.0
C1171 C 0.3281 0.69066 0.08398 0.0
O1172 O 0.31703 0.69146 0.09346 0.0
O1173 O 0.32596 0.68508 0.07056 0.0
O1174 O 0.29235 0.67331 0.11307 0.0
O1175 O 0.29529 0.65819 0.09286 0.0
O1176 O 0.56662 0.47774 0.70132 0.0
Cd1177 Cd 0.58712 0.46616 0.70408 0.0
Cd1178 Cd 0.59073 0.47501 0.67481 0.0
O1179 O 0.57213 0.48943 0.67944 0.0
O1180 O 0.59416 0.46853 0.72599 0.0
O1181 O 0.6059 0.47953 0.70623 0.0
C1182 C 0.60471 0.47776 0.72097 0.0
C1183 C 0.61155 0.47973 0.65823 0.0
C1184 C 0.563 0.48716 0.69072 0.0
C1185 C 0.58462 0.44125 0.68148 0.0
O1186 O 0.58482 0.45243 0.67211 0.0
O1187 O 0.58677 0.44353 0.6958 0.0
O1188 O 0.59753 0.47983 0.65339 0.0
O1189 O 0.61373 0.4788 0.6729 0.0
O1190 O 0.79366 0.81403 0.95421 0.0
Cd1191 Cd 0.80631 0.83401 0.95657 0.0
Cd1192 Cd 0.80005 0.83553 0.92709 0.0
O1193 O 0.78306 0.81947 0.93181 0.0
O1194 O 0.80358 0.84137 0.97839 0.0
O1195 O 0.79381 0.85348 0.95826 0.0
C1196 C 0.79498 0.85226 0.97305 0.0
C1197 C 0.79781 0.85725 0.91122 0.0
C1198 C 0.78425 0.8107 0.9435 0.0
C1199 C 0.83211 0.82652 0.93606 0.0
O1200 O 0.82151 0.82592 0.92605 0.0
O1201 O 0.82935 0.83175 0.9495 0.0
O1202 O 0.79671 0.84349 0.90578 0.0
O1203 O 0.79901 0.85877 0.92596 0.0
O1204 O 0.45337 0.04062 0.20245 0.0
Cd1205 Cd 0.43333 0.05328 0.20454 0.0
Cd1206 Cd 0.43201 0.04632 0.17543 0.0
O1207 O 0.44775 0.02917 0.18051 0.0
O1208 O 0.42578 0.05094 0.22636 0.0
O1209 O 0.41388 0.04074 0.2063 0.0
C1210 C 0.41495 0.0422 0.22108 0.0
C1211 C 0.41029 0.04467 0.15946 0.0
C1212 C 0.45663 0.03081 0.19207 0.0
C1213 C 0.4414 0.07842 0.18365 0.0
O1214 O 0.44225 0.06747 0.17405 0.0
O1215 O 0.43559 0.07616 0.19695 0.0
O1216 O 0.42405 0.04298 0.15413 0.0
O1217 O 0.40872 0.04597 0.17418 0.0
O1218 O 0.23059 0.70107 0.44783 0.0
Cd1219 Cd 0.21846 0.68084 0.45066 0.0
Cd1220 Cd 0.22366 0.67977 0.42086 0.0
O1221 O 0.24036 0.69641 0.42487 0.0
O1222 O 0.22162 0.67393 0.47262 0.0
O1223 O 0.23127 0.66155 0.45262 0.0
C1224 C 0.23026 0.663 0.4674 0.0
C1225 C 0.22541 0.65715 0.40626 0.0
C1226 C 0.23934 0.70497 0.43675 0.0
C1227 C 0.19182 0.68818 0.43102 0.0
O1228 O 0.20201 0.68898 0.42059 0.0
O1229 O 0.19517 0.68292 0.44432 0.0
O1230 O 0.22643 0.67054 0.39992 0.0
O1231 O 0.22468 0.65656 0.42111 0.0
O1232 O 0.84434 0.58212 0.07027 0.0
Cd1233 Cd 0.84525 0.58924 0.04786 0.0
Cd1234 Cd 0.81447 0.58362 0.05044 0.0
O1235 O 0.81925 0.57948 0.07375 0.0
O1236 O 0.8666 0.59755 0.04677 0.0
O1237 O 0.84613 0.61235 0.04439 0.0
C1238 C 0.8609 0.61117 0.04559 0.0
C1239 C 0.79587 0.6005 0.04028 0.0
C1240 C 0.833 0.57894 0.07889 0.0
C1241 C 0.83321 0.56255 0.02994 0.0
O1242 O 0.82033 0.56562 0.03617 0.0
O1243 O 0.84484 0.57119 0.03219 0.0
O1244 O 0.79203 0.58746 0.0463 0.0
O1245 O 0.81022 0.60445 0.04094 0.0
O1246 O 0.35564 0.43455 0.45254 0.0
Cd1247 Cd 0.35258 0.4266 0.47447 0.0
Cd1248 Cd 0.32336 0.43099 0.46594 0.0
O1249 O 0.3319 0.43364 0.44349 0.0
O1250 O 0.37233 0.41552 0.47913 0.0
O1251 O 0.3501 0.40357 0.47594 0.0
C1252 C 0.36486 0.40277 0.47765 0.0
C1253 C 0.30462 0.41401 0.47561 0.0
C1254 C 0.34626 0.43603 0.44142 0.0
C1255 C 0.33731 0.45333 0.48882 0.0
O1256 O 0.32665 0.45018 0.47932 0.0
O1257 O 0.34871 0.4442 0.49038 0.0
O1258 O 0.30078 0.42604 0.46775 0.0
O1259 O 0.31913 0.41097 0.4769 0.0
O1260 O 0.81524 0.56832 0.7303 0.0
Cd1261 Cd 0.83541 0.56585 0.71788 0.0
Cd1262 Cd 0.8368 0.59512 0.72432 0.0
O1263 O 0.82079 0.59046 0.74138 0.0
O1264 O 0.84265 0.54394 0.72049 0.0
O1265 O 0.85469 0.5639 0.73067 0.0
C1266 C 0.85346 0.54913 0.7293 0.0
C1267 C 0.85928 0.60995 0.72581 0.0
C1268 C 0.81188 0.5789 0.73986 0.0
C1269 C 0.82795 0.58657 0.69229 0.0
O1270 O 0.82689 0.59634 0.70307 0.0
O1271 O 0.83362 0.57328 0.69487 0.0
O1272 O 0.84584 0.61604 0.72753 0.0
O1273 O 0.86005 0.59516 0.72457 0.0
O1274 O 0.67451 0.07504 0.95158 0.0
Cd1275 Cd 0.67565 0.08524 0.97275 0.0
Cd1276 Cd 0.70486 0.08427 0.96607 0.0
O1277 O 0.69739 0.08209 0.9431 0.0
O1278 O 0.6543 0.09319 0.97591 0.0
O1279 O 0.67437 0.10851 0.97301 0.0
C1280 C 0.65963 0.10694 0.97418 0.0
C1281 C 0.72128 0.10274 0.9772 0.0
C1282 C 0.68418 0.07612 0.9407 0.0
C1283 C 0.6924 0.06079 0.98841 0.0
O1284 O 0.70285 0.06419 0.97872 0.0
O1285 O 0.68071 0.06952 0.98992 0.0
O1286 O 0.72663 0.09195 0.96846 0.0
O1287 O 0.70649 0.10371 0.97864 0.0
O1288 O 0.70343 0.4458 0.23216 0.0
Cd1289 Cd 0.68521 0.45182 0.21821 0.0
Cd1290 Cd 0.67962 0.42115 0.22075 0.0
O1291 O 0.69765 0.42143 0.23645 0.0
O1292 O 0.68161 0.47423 0.22252 0.0
O1293 O 0.66459 0.45616 0.22813 0.0
C1294 C 0.66867 0.47046 0.22879 0.0
C1295 C 0.65742 0.40592 0.223 0.0
C1296 C 0.70643 0.43298 0.23851 0.0
C1297 C 0.68959 0.43344 0.18965 0.0
O1298 O 0.68673 0.42206 0.19831 0.0
O1299 O 0.68889 0.44716 0.1948 0.0
O1300 O 0.67094 0.39996 0.22185 0.0
O1301 O 0.6565 0.4207 0.22419 0.0
O1302 O 0.16956 0.43396 0.06482 0.0
Cd1303 Cd 0.17259 0.42692 0.04261 0.0
Cd1304 Cd 0.20156 0.43081 0.05144 0.0
O1305 O 0.1931 0.43184 0.07405 0.0
O1306 O 0.1516 0.41878 0.03788 0.0
O1307 O 0.17194 0.40374 0.03991 0.0
C1308 C 0.15719 0.40507 0.03869 0.0
C1309 C 0.21845 0.41306 0.03994 0.0
C1310 C 0.1788 0.43444 0.07612 0.0
C1311 C 0.18812 0.4544 0.02984 0.0
O1312 O 0.19862 0.45106 0.03948 0.0
O1313 O 0.17703 0.44505 0.02751 0.0
O1314 O 0.22352 0.42369 0.04904 0.0
O1315 O 0.20369 0.41186 0.03829 0.0
O1316 O 0.81307 0.95008 0.79268 0.0
Cd1317 Cd 0.83399 0.95187 0.80393 0.0
Cd1318 Cd 0.83516 0.92386 0.79484 0.0
O1319 O 0.81955 0.93044 0.77801 0.0
O1320 O 0.84198 0.97357 0.80188 0.0
O1321 O 0.8524 0.95362 0.79 0.0
C1322 C 0.85198 0.96833 0.79216 0.0
C1323 C 0.85724 0.90846 0.79284 0.0
C1324 C 0.81002 0.941 0.78159 0.0
C1325 C 0.82698 0.92958 0.82765 0.0
O1326 O 0.82486 0.92121 0.81588 0.0
O1327 O 0.83365 0.94258 0.82627 0.0
O1328 O 0.84366 0.90295 0.79035 0.0
O1329 O 0.85843 0.92311 0.79498 0.0
O1330 O 0.20257 0.56829 0.28729 0.0
Cd1331 Cd 0.18303 0.56466 0.3004 0.0
Cd1332 Cd 0.18055 0.59447 0.2948 0.0
O1333 O 0.19717 0.59125 0.27797 0.0
O1334 O 0.17777 0.54232 0.29728 0.0
O1335 O 0.16277 0.56127 0.28937 0.0
C1336 C 0.16563 0.54668 0.28988 0.0
C1337 C 0.15843 0.60988 0.29313 0.0
C1338 C 0.20598 0.57955 0.27857 0.0
C1339 C 0.18997 0.58474 0.32673 0.0
O1340 O 0.18977 0.59512 0.31647 0.0
O1341 O 0.18572 0.57105 0.32357 0.0
O1342 O 0.17208 0.61567 0.29239 0.0
O1343 O 0.15725 0.59507 0.29344 0.0
H1344 H 0.01258 0.35192 0.05021 0.0
H1345 H 0.02889 0.30542 0.04361 0.0
H1346 H 1.00294 0.35215 0.0237 0.0
H1347 H 0.01977 0.30583 0.0173 0.0
H1348 H 0.98789 0.30511 0.97627 0.0
H1349 H 0.99674 0.30556 1.00268 0.0
H1350 H 0.01217 0.35246 0.99691 0.0
H1351 H 1.0028 0.35217 0.97031 0.0
C1352 C 0.01397 0.34171 0.0432 0.0
C1353 C 0.02146 0.32863 0.04911 0.0
C1354 C 1.00863 0.34191 0.02794 0.0
C1355 C 0.01062 0.32903 0.0183 0.0
C1356 C 0.01783 0.3159 0.02438 0.0
C1357 C 0.02313 0.31568 0.03953 0.0
C1358 C 0.99329 0.31553 0.98051 0.0
C1359 C 0.99466 0.32861 0.97107 0.0
C1360 C 0.99841 0.31576 0.99572 0.0
C1361 C 1.00517 0.32904 1.002 0.0
C1362 C 1.00682 0.34209 0.99252 0.0
C1363 C 1.00165 0.34187 0.9772 0.0
H1364 H 0.91552 0.25611 0.21775 0.0
H1365 H 0.96109 0.23776 0.22555 0.0
H1366 H 0.91525 0.26624 0.24409 0.0
H1367 H 0.96059 0.24728 0.25168 0.0
H1368 H 0.96235 0.27955 0.2922 0.0
H1369 H 0.96187 0.27028 0.26595 0.0
H1370 H 0.91393 0.25798 0.27099 0.0
H1371 H 0.91427 0.26786 0.29739 0.0
C1372 C 0.92552 0.25435 0.22499 0.0
C1373 C 0.93835 0.24618 0.21945 0.0
C1374 C 0.92528 0.25998 0.24016 0.0
C1375 C 0.93789 0.25756 0.25008 0.0
C1376 C 0.95076 0.2496 0.24438 0.0
C1377 C 0.95102 0.24406 0.22932 0.0
C1378 C 0.95168 0.27475 0.28784 0.0
C1379 C 0.93835 0.27442 0.29701 0.0
C1380 C 0.95144 0.26938 0.27271 0.0
C1381 C 0.93787 0.26335 0.26627 0.0
C1382 C 0.92454 0.26274 0.27549 0.0
C1383 C 0.92477 0.26821 0.29071 0.0
H1384 H 0.99011 0.15467 0.54402 0.0
H1385 H 1.00547 0.20186 0.54581 0.0
H1386 H 0.99843 0.15299 0.51717 0.0
H1387 H 0.01433 0.20007 0.51935 0.0
H1388 H 0.01153 0.20074 0.46847 0.0
H1389 H 1.00253 0.19963 0.49493 0.0
H1390 H 0.01888 0.1528 0.49856 0.0
H1391 H 0.02733 0.15378 0.4717 0.0
C1392 C 0.99569 0.16453 0.53882 0.0
C1393 C 0.99705 0.17843 0.547 0.0
C1394 C 1.0004 0.1636 0.5234 0.0
C1395 C 1.00669 0.17652 0.5159 0.0
C1396 C 1.00903 0.19004 0.52451 0.0
C1397 C 1.00415 0.19102 0.53979 0.0
C1398 C 0.0129 0.19009 0.47481 0.0
C1399 C 0.02017 0.17738 0.46802 0.0
C1400 C 1.00795 0.18951 0.49008 0.0
C1401 C 0.01039 0.17628 0.4991 0.0
C1402 C 0.01683 0.1632 0.49201 0.0
C1403 C 0.02161 0.16373 0.47659 0.0
H1404 H 0.06354 0.25478 0.79528 0.0
H1405 H 0.11144 0.24167 0.79347 0.0
H1406 H 0.06501 0.264 0.76892 0.0
H1407 H 0.11281 0.2503 0.76673 0.0
H1408 H 0.11137 0.2794 0.72167 0.0
H1409 H 0.11235 0.27074 0.74843 0.0
H1410 H 0.06599 0.25313 0.74426 0.0
H1411 H 0.06484 0.26238 0.7179 0.0
C1412 C 0.07445 0.254 0.78926 0.0
C1413 C 0.08735 0.24746 0.79646 0.0
C1414 C 0.07526 0.25909 0.77404 0.0
C1415 C 0.08892 0.25752 0.76545 0.0
C1416 C 0.10208 0.25171 0.77292 0.0
C1417 C 0.10132 0.2468 0.78829 0.0
C1418 C 0.10152 0.2734 0.72642 0.0
C1419 C 0.08799 0.27165 0.71771 0.0
C1420 C 0.10205 0.26848 0.7418 0.0
C1421 C 0.08911 0.26156 0.74872 0.0
C1422 C 0.076 0.2589 0.73957 0.0
C1423 C 0.07539 0.26401 0.72435 0.0
H1424 H 1.00281 0.66731 0.04666 0.0
H1425 H 0.98674 0.71396 0.04065 0.0
H1426 H 0.01221 0.66722 0.02009 0.0
H1427 H 0.99576 0.71374 0.01422 0.0
H1428 H 0.01236 0.66752 0.96687 0.0
H1429 H 1.00257 0.66735 0.99332 0.0
H1430 H 0.01924 0.71374 0.99967 0.0
H1431 H 0.02865 0.71403 0.97339 0.0
C1432 C 1.00139 0.67757 0.03975 0.0
C1433 C 0.99407 0.69066 0.04586 0.0
C1434 C 1.00661 0.67746 0.02446 0.0
C1435 C 1.00469 0.69045 0.01496 0.0
C1436 C 0.9976 0.70358 0.0212 0.0
C1437 C 0.99238 0.70369 0.0364 0.0
C1438 C 0.01371 0.67775 0.97386 0.0
C1439 C 0.02126 0.6908 0.96795 0.0
C1440 C 1.00827 0.67759 0.98908 0.0
C1441 C 0.01018 0.69051 0.99868 0.0
C1442 C 0.01741 0.70364 0.9926 0.0
C1443 C 0.02286 0.70379 0.97748 0.0
H1444 H 0.5919 0.25491 0.21453 0.0
H1445 H 0.5662 0.2936 0.23225 0.0
H1446 H 0.59364 0.24431 0.24071 0.0
H1447 H 0.56838 0.28324 0.25828 0.0
H1448 H 0.59201 0.26499 0.30415 0.0
H1449 H 0.59228 0.27612 0.27806 0.0
H1450 H 0.57071 0.23511 0.26029 0.0
H1451 H 0.56995 0.22424 0.28612 0.0
C1452 C 0.58668 0.26116 0.22398 0.0
C1453 C 0.57876 0.27499 0.22128 0.0
C1454 C 0.58772 0.25513 0.23893 0.0
C1455 C 0.58124 0.26306 0.25148 0.0
C1456 C 0.57359 0.277 0.24882 0.0
C1457 C 0.57222 0.28282 0.23389 0.0
C1458 C 0.5873 0.25842 0.29466 0.0
C1459 C 0.58081 0.24382 0.29723 0.0
C1460 C 0.58747 0.26475 0.27978 0.0
C1461 C 0.5816 0.25639 0.2672 0.0
C1462 C 0.57541 0.24173 0.26976 0.0
C1463 C 0.57487 0.2356 0.28459 0.0
H1464 H 0.03201 0.80417 0.54302 0.0
H1465 H 0.01399 0.84996 0.55009 0.0
H1466 H 0.02314 0.80467 0.51654 0.0
H1467 H 1.00474 0.85031 0.52348 0.0
H1468 H 0.99088 0.8044 0.47513 0.0
H1469 H 1.00003 0.80415 0.50152 0.0
H1470 H 0.01478 0.85139 0.49697 0.0
H1471 H 1.00525 0.85177 0.47046 0.0
C1472 C 0.02595 0.81429 0.539 0.0
C1473 C 0.02371 0.82702 0.54875 0.0
C1474 C 0.02083 0.81456 0.52377 0.0
C1475 C 0.01329 0.82756 0.51781 0.0
C1476 C 0.01072 0.8402 0.52763 0.0
C1477 C 0.01584 0.83992 0.54294 0.0
C1478 C 0.99623 0.81472 0.47965 0.0
C1479 C 0.99733 0.82811 0.47061 0.0
C1480 C 1.00151 0.81456 0.49483 0.0
C1481 C 1.00807 0.82778 0.50145 0.0
C1482 C 0.00956 0.84108 0.49231 0.0
C1483 C 1.00429 0.84123 0.47705 0.0
H1484 H 0.41603 0.25054 0.72265 0.0
H1485 H 0.46466 0.24083 0.72661 0.0
H1486 H 0.41601 0.26066 0.74896 0.0
H1487 H 0.46454 0.25044 0.75279 0.0
H1488 H 0.46298 0.28259 0.79368 0.0
H1489 H 0.46243 0.27342 0.76736 0.0
H1490 H 0.41836 0.2519 0.77564 0.0
H1491 H 0.41869 0.26155 0.80211 0.0
C1492 C 0.42674 0.25071 0.72904 0.0
C1493 C 0.44035 0.24491 0.72245 0.0
C1494 C 0.42669 0.25632 0.74419 0.0
C1495 C 0.44026 0.25629 0.75307 0.0
C1496 C 0.4539 0.25083 0.7463 0.0
C1497 C 0.45396 0.24526 0.73123 0.0
C1498 C 0.45318 0.2758 0.79 0.0
C1499 C 0.44089 0.27278 0.80011 0.0
C1500 C 0.4529 0.27049 0.77485 0.0
C1501 C 0.44035 0.26192 0.7693 0.0
C1502 C 0.42812 0.25866 0.77945 0.0
C1503 C 0.42839 0.26402 0.79469 0.0
H1504 H 0.97105 0.99521 0.35856 0.0
H1505 H 0.96853 1.00393 0.30979 0.0
H1506 H 0.99788 1.00345 0.35871 0.0
H1507 H 0.99489 0.01331 0.30996 0.0
H1508 H 0.04615 0.01394 0.3092 0.0
H1509 H 0.01969 1.00495 0.31063 0.0
H1510 H 0.01652 0.02203 0.35732 0.0
H1511 H 0.0434 0.02992 0.35611 0.0
C1512 C 0.97613 0.99939 0.34796 0.0
C1513 C 0.96773 0.99894 0.33416 0.0
C1514 C 0.99156 1.00412 0.348 0.0
C1515 C 0.99887 1.00884 0.33428 0.0
C1516 C 0.99002 0.00924 0.32068 0.0
C1517 C 0.97476 1.00412 0.32058 0.0
C1518 C 0.03985 0.01547 0.31986 0.0
C1519 C 0.04686 0.02255 0.33255 0.0
C1520 C 0.02454 0.01055 0.32063 0.0
C1521 C 0.01563 0.01303 0.33398 0.0
C1522 C 0.02288 0.01973 0.34686 0.0
C1523 C 0.03836 0.02427 0.3462 0.0
H1524 H 0.24332 0.2951 0.55636 0.0
H1525 H 0.25459 0.30027 0.60452 0.0
H1526 H 0.25188 0.26859 0.55709 0.0
H1527 H 0.26363 0.27356 0.60514 0.0
H1528 H 0.28291 0.22685 0.55898 0.0
H1529 H 0.27462 0.25347 0.55905 0.0
H1530 H 0.25378 0.24702 0.60373 0.0
H1531 H 0.2625 0.22022 0.60385 0.0
C1532 C 0.24785 0.29066 0.56709 0.0
C1533 C 0.24828 0.2999 0.58038 0.0
C1534 C 0.25281 0.2754 0.56749 0.0
C1535 C 0.25843 0.26887 0.58118 0.0
C1536 C 0.25917 0.27816 0.59444 0.0
C1537 C 0.25418 0.29352 0.59404 0.0
C1538 C 0.27645 0.231 0.56881 0.0
C1539 C 0.27334 0.2213 0.5814 0.0
C1540 C 0.27166 0.24633 0.56883 0.0
C1541 C 0.26353 0.25246 0.5814 0.0
C1542 C 0.2602 0.24274 0.59394 0.0
C1543 C 0.26502 0.22732 0.59393 0.0
H1544 H 0.96908 0.50519 0.8541 0.0
H1545 H 0.97608 0.48665 0.80848 0.0
H1546 H 0.99582 0.51419 0.8544 0.0
H1547 H 1.00263 0.49518 0.80897 0.0
H1548 H 0.04382 0.52721 0.8076 0.0
H1549 H 0.01747 0.51812 0.80792 0.0
H1550 H 0.02253 0.50462 0.85549 0.0
H1551 H 0.04908 0.51421 0.85531 0.0
C1552 C 0.97624 0.50315 0.8441 0.0
C1553 C 0.97035 0.49527 0.83124 0.0
C1554 C 0.99163 0.50812 0.84435 0.0
C1555 C 1.00143 0.50536 0.83173 0.0
C1556 C 0.99542 0.49769 0.81883 0.0
C1557 C 0.98012 0.49276 0.81857 0.0
C1558 C 0.03944 0.52217 0.81813 0.0
C1559 C 0.04864 0.52144 0.83143 0.0
C1560 C 0.02427 0.5169 0.81829 0.0
C1561 C 0.01779 0.51066 0.83174 0.0
C1562 C 0.02708 0.50955 0.84499 0.0
C1563 C 0.04236 0.51485 0.84483 0.0
H1564 H 0.78106 0.22681 0.05398 0.0
H1565 H 0.76546 0.22016 0.10074 0.0
H1566 H 0.77178 0.25315 0.05457 0.0
H1567 H 0.7558 0.24659 0.1012 0.0
H1568 H 0.73902 0.29419 0.05556 0.0
H1569 H 0.74856 0.26796 0.05506 0.0
H1570 H 0.76549 0.27313 0.10151 0.0
H1571 H 0.75556 0.29947 0.10216 0.0
C1572 C 0.77542 0.23088 0.06433 0.0
C1573 C 0.774 0.22131 0.07731 0.0
C1574 C 0.77007 0.24603 0.06466 0.0
C1575 C 0.76312 0.25206 0.07797 0.0
C1576 C 0.76133 0.24239 0.09084 0.0
C1577 C 0.76668 0.22717 0.09051 0.0
C1578 C 0.74493 0.28984 0.06565 0.0
C1579 C 0.74651 0.29899 0.07891 0.0
C1580 C 0.75043 0.27476 0.06534 0.0
C1581 C 0.75771 0.26835 0.07828 0.0
C1582 C 0.75971 0.27762 0.09143 0.0
C1583 C 0.7542 0.29279 0.09173 0.0
H1584 H 0.04352 0.98933 0.71232 0.0
H1585 H 0.04923 1.00622 0.66589 0.0
H1586 H 0.01719 0.99859 0.71256 0.0
H1587 H 0.02273 0.01587 0.66628 0.0
H1588 H 0.97586 0.03058 0.71379 0.0
H1589 H 1.00238 0.02183 0.71309 0.0
H1590 H 0.99607 1.00603 0.66639 0.0
H1591 H 0.96941 0.01515 0.66696 0.0
C1592 C 0.03924 0.99523 0.70221 0.0
C1593 C 0.04856 0.99703 0.68908 0.0
C1594 C 0.02409 1.00059 0.70238 0.0
C1595 C 0.01776 1.00793 0.68943 0.0
C1596 C 0.02716 0.01007 0.67638 0.0
C1597 C 0.04241 1.00472 0.67623 0.0
C1598 C 0.98003 0.02513 0.70338 0.0
C1599 C 0.97042 0.02354 0.69044 0.0
C1600 C 0.99529 0.02008 0.703 0.0
C1601 C 1.00143 0.01326 0.68967 0.0
C1602 C 0.99178 0.01143 0.67677 0.0
C1603 C 0.97644 0.01648 0.67716 0.0
H1604 H 0.2396 0.22363 0.96183 0.0
H1605 H 0.25649 0.21771 0.91542 0.0
H1606 H 0.24818 0.25017 0.96166 0.0
H1607 H 0.26554 0.24438 0.91542 0.0
H1608 H 0.27935 0.29215 0.9622 0.0
H1609 H 0.27073 0.26562 0.96205 0.0
H1610 H 0.25553 0.27071 0.91499 0.0
H1611 H 0.26463 0.29736 0.91499 0.0
C1612 C 0.24539 0.2279 0.95165 0.0
C1613 C 0.24736 0.21847 0.93864 0.0
C1614 C 0.25036 0.24318 0.95157 0.0
C1615 C 0.2575 0.2495 0.9385 0.0
C1616 C 0.25986 0.23997 0.9256 0.0
C1617 C 0.25486 0.22461 0.92567 0.0
C1618 C 0.27402 0.28772 0.95184 0.0
C1619 C 0.27269 0.29696 0.93861 0.0
C1620 C 0.26904 0.27246 0.95177 0.0
C1621 C 0.26249 0.26594 0.93849 0.0
C1622 C 0.26075 0.27527 0.92535 0.0
C1623 C 0.26577 0.29062 0.92541 0.0
H1624 H 0.04897 0.50213 0.16548 0.0
H1625 H 0.04167 0.48672 0.2122 0.0
H1626 H 0.02238 0.51147 0.16454 0.0
H1627 H 0.01525 0.49559 0.21111 0.0
H1628 H 0.97408 0.52777 0.20994 0.0
H1629 H 1.00042 0.5186 0.21051 0.0
H1630 H 0.99574 0.50187 0.16393 0.0
H1631 H 0.96925 0.5115 0.1632 0.0
C1632 C 0.04178 0.50087 0.17558 0.0
C1633 C 0.04753 0.49373 0.18893 0.0
C1634 C 0.02648 0.50603 0.17498 0.0
C1635 C 0.01661 0.50421 0.18772 0.0
C1636 C 0.02251 0.49736 0.20113 0.0
C1637 C 0.03772 0.49223 0.20174 0.0
C1638 C 0.97855 0.52199 0.19984 0.0
C1639 C 0.96948 0.52037 0.18653 0.0
C1640 C 0.99371 0.51669 0.20018 0.0
C1641 C 1.00028 0.50954 0.18725 0.0
C1642 C 0.99112 0.50753 0.17402 0.0
C1643 C 0.97586 0.51286 0.17368 0.0
H1644 H 0.73716 0.2275 0.46294 0.0
H1645 H 0.75205 0.22169 0.41583 0.0
H1646 H 0.74569 0.25408 0.46242 0.0
H1647 H 0.76098 0.24838 0.41545 0.0
H1648 H 0.77724 0.29602 0.46133 0.0
H1649 H 0.7684 0.26955 0.46171 0.0
H1650 H 0.75072 0.27467 0.41554 0.0
H1651 H 0.75997 0.30127 0.415 0.0
C1652 C 0.74249 0.23181 0.45252 0.0
C1653 C 0.74392 0.22238 0.43943 0.0
C1654 C 0.74741 0.24711 0.45224 0.0
C1655 C 0.75394 0.25345 0.43887 0.0
C1656 C 0.75575 0.24395 0.42587 0.0
C1657 C 0.75082 0.22858 0.42615 0.0
C1658 C 0.77131 0.29161 0.45129 0.0
C1659 C 0.76933 0.30083 0.43813 0.0
C1660 C 0.7662 0.27638 0.45153 0.0
C1661 C 0.75892 0.26989 0.43862 0.0
C1662 C 0.75651 0.27922 0.42559 0.0
C1663 C 0.76163 0.29453 0.42535 0.0
H1664 H 0.3509 0.96742 1.00418 0.0
H1665 H 0.30387 0.97387 0.98935 0.0
H1666 H 0.35124 0.99376 0.01422 0.0
H1667 H 0.3043 1.00005 0.9991 0.0
H1668 H 0.30535 0.04064 0.03234 0.0
H1669 H 0.30525 0.01427 0.02307 0.0
H1670 H 0.35079 0.02063 1.00416 0.0
H1671 H 0.35102 0.04714 0.0137 0.0
C1672 C 0.34058 0.97435 1.00324 0.0
C1673 C 0.32735 0.9685 0.99599 0.0
C1674 C 0.34085 0.98951 1.00881 0.0
C1675 C 0.32783 0.99906 1.00737 0.0
C1676 C 0.31449 0.99301 1.00052 0.0
C1677 C 0.31426 0.97796 0.9949 0.0
C1678 C 0.31532 0.03651 0.02609 0.0
C1679 C 0.32819 0.04607 0.02374 0.0
C1680 C 0.31525 0.02136 0.02075 0.0
C1681 C 0.32804 0.01529 0.01293 0.0
C1682 C 0.34084 0.02489 0.01033 0.0
C1683 C 0.34089 0.04014 0.01563 0.0
H1684 H 0.81104 0.04321 0.53032 0.0
H1685 H 0.85467 0.05141 0.50784 0.0
H1686 H 0.81128 0.01686 0.52146 0.0
H1687 H 0.85462 0.02483 0.49838 0.0
H1688 H 0.85628 0.97159 0.49705 0.0
H1689 H 0.85709 0.99806 0.50676 0.0
H1690 H 0.80815 1.00225 0.49892 0.0
H1691 H 0.80725 0.97597 0.48986 0.0
C1692 C 0.82061 0.03948 0.52326 0.0
C1693 C 0.83282 0.04954 0.51976 0.0
C1694 C 0.82072 0.02428 0.51811 0.0
C1695 C 0.83295 0.01864 0.50915 0.0
C1696 C 0.8451 0.02872 0.50542 0.0
C1697 C 0.84504 0.04402 0.51067 0.0
C1698 C 0.84568 0.97811 0.49767 0.0
C1699 C 0.8317 0.97157 0.49274 0.0
C1700 C 0.84617 0.99335 0.50304 0.0
C1701 C 0.8327 1.00237 0.5036 0.0
C1702 C 0.81874 0.99567 0.4989 0.0
C1703 C 0.81823 0.98052 0.49363 0.0
H1704 H 0.29721 0.11108 0.74568 0.0
H1705 H 0.29802 0.06249 0.75564 0.0
H1706 H 0.2702 0.11225 0.75327 0.0
H1707 H 0.27143 0.0637 0.76427 0.0
H1708 H 0.22029 0.06433 0.7629 0.0
H1709 H 0.24699 0.06504 0.75454 0.0
H1710 H 0.25101 0.11163 0.77164 0.0
H1711 H 0.22391 0.11112 0.77899 0.0
C1712 C 0.29173 0.10075 0.75 0.0
C1713 C 0.2997 0.08669 0.75006 0.0
C1714 C 0.27618 0.10138 0.75433 0.0
C1715 C 0.26835 0.088 0.75912 0.0
C1716 C 0.27676 0.07416 0.76011 0.0
C1717 C 0.29213 0.07348 0.75543 0.0
C1718 C 0.22683 0.07482 0.76455 0.0
C1719 C 0.22001 0.08768 0.77153 0.0
C1720 C 0.24226 0.07518 0.76 0.0
C1721 C 0.25147 0.08826 0.76274 0.0
C1722 C 0.2444 0.10136 0.76921 0.0
C1723 C 0.22881 0.10111 0.77341 0.0
H1724 H 0.16614 0.46786 0.01128 0.0
H1725 H 0.21021 0.47649 0.03268 0.0
H1726 H 0.16571 0.49435 1.0017 0.0
H1727 H 0.20954 0.50282 0.0236 0.0
H1728 H 0.21203 0.54353 0.99112 0.0
H1729 H 0.21184 0.51737 1.00071 0.0
H1730 H 0.16318 0.52108 0.01031 0.0
H1731 H 0.16327 0.54739 1.00018 0.0
C1732 C 0.17575 0.47532 0.01384 0.0
C1733 C 0.18823 0.46995 0.02267 0.0
C1734 C 0.17544 0.49058 1.00853 0.0
C1735 C 0.18758 0.50079 0.01191 0.0
C1736 C 0.20009 0.4953 0.02057 0.0
C1737 C 0.20042 0.48012 0.02582 0.0
C1738 C 0.20128 0.53889 0.99541 0.0
C1739 C 0.18767 0.54764 0.99488 0.0
C1740 C 0.20119 0.52383 1.00097 0.0
C1741 C 0.18749 0.51703 1.00627 0.0
C1742 C 0.1739 0.52587 1.00611 0.0
C1743 C 0.17399 0.54103 1.0005 0.0
H1744 H 0.29848 0.91944 0.26337 0.0
H1745 H 0.29235 0.96644 0.27838 0.0
H1746 H 0.27232 0.91944 0.25295 0.0
H1747 H 0.26627 0.96633 0.26822 0.0
H1748 H 0.22596 0.96532 0.23424 0.0
H1749 H 0.25213 0.96553 0.24415 0.0
H1750 H 0.24551 0.91994 0.26277 0.0
H1751 H 0.21925 0.9196 0.25261 0.0
C1752 C 0.29165 0.92983 0.26427 0.0
C1753 C 0.29755 0.94295 0.2717 0.0
C1754 C 0.27659 0.92976 0.25848 0.0
C1755 C 0.26714 0.94284 0.25988 0.0
C1756 C 0.27324 0.95609 0.26685 0.0
C1757 C 0.28822 0.95614 0.2727 0.0
C1758 C 0.22999 0.95537 0.24058 0.0
C1759 C 0.22046 0.94244 0.24263 0.0
C1760 C 0.24502 0.95551 0.24628 0.0
C1761 C 0.25097 0.94272 0.25416 0.0
C1762 C 0.24135 0.9299 0.25654 0.0
C1763 C 0.22624 0.92978 0.25088 0.0
H1764 H 0.71633 0.97382 0.03277 0.0
H1765 H 0.67104 0.96657 0.01354 0.0
H1766 H 0.71616 1.00018 0.02341 0.0
H1767 H 0.67098 0.99303 1.00393 0.0
H1768 H 0.66942 0.04596 1.00433 0.0
H1769 H 0.66978 0.01963 0.01425 0.0
H1770 H 0.71706 0.01482 0.99963 0.0
H1771 H 0.71679 0.04107 0.98995 0.0
C1772 C 0.7064 0.97778 0.02636 0.0
C1773 C 0.6937 0.96803 0.0239 0.0
C1774 C 0.70632 0.99292 0.02097 0.0
C1775 C 0.69352 0.99877 0.01301 0.0
C1776 C 0.68093 0.98895 0.01023 0.0
C1777 C 0.68104 0.97372 0.01557 0.0
C1778 C 0.67996 0.03937 1.00346 0.0
C1779 C 0.69308 0.04567 0.99635 0.0
C1780 C 0.6801 0.02421 1.00897 0.0
C1781 C 0.6934 0.01505 1.0076 0.0
C1782 C 0.70665 0.02155 1.00096 0.0
C1783 C 0.70648 0.03663 0.99539 0.0
H1784 H 0.29332 0.45476 0.7662 0.0
H1785 H 0.29149 0.40706 0.77975 0.0
H1786 H 0.26665 0.45349 0.75784 0.0
H1787 H 0.26443 0.40593 0.77237 0.0
H1788 H 0.2185 0.40616 0.7457 0.0
H1789 H 0.24541 0.40556 0.75373 0.0
H1790 H 0.24212 0.45328 0.76756 0.0
H1791 H 0.21564 0.454 0.75851 0.0
C1792 C 0.28719 0.44396 0.76731 0.0
C1793 C 0.29452 0.43101 0.77357 0.0
C1794 C 0.27177 0.44326 0.76276 0.0
C1795 C 0.26308 0.4297 0.76475 0.0
C1796 C 0.27064 0.41656 0.77052 0.0
C1797 C 0.28621 0.41718 0.77474 0.0
C1798 C 0.2235 0.4164 0.75076 0.0
C1799 C 0.215 0.43013 0.75148 0.0
C1800 C 0.23898 0.4161 0.75534 0.0
C1801 C 0.24623 0.42948 0.76102 0.0
C1802 C 0.23726 0.44289 0.76271 0.0
C1803 C 0.22195 0.44326 0.75779 0.0
H1804 H 0.72003 0.09959 0.26286 0.0
H1805 H 0.72672 0.05345 0.2801 0.0
H1806 H 0.74656 0.09978 0.25331 0.0
H1807 H 0.75311 0.05373 0.27077 0.0
H1808 H 0.794 0.05396 0.23743 0.0
H1809 H 0.76762 0.05379 0.24677 0.0
H1810 H 0.77329 0.10008 0.2639 0.0
H1811 H 0.79982 0.10035 0.25434 0.0
C1812 C 0.72707 0.08943 0.26446 0.0
C1813 C 0.72121 0.07649 0.27222 0.0
C1814 C 0.74233 0.08961 0.25916 0.0
C1815 C 0.752 0.07681 0.26138 0.0
C1816 C 0.74597 0.06375 0.26877 0.0
C1817 C 0.73081 0.0636 0.27414 0.0
C1818 C 0.78972 0.06408 0.24332 0.0
C1819 C 0.79908 0.07717 0.24514 0.0
C1820 C 0.77457 0.06396 0.2487 0.0
C1821 C 0.76829 0.07695 0.256 0.0
C1822 C 0.77772 0.08996 0.25813 0.0
C1823 C 0.79297 0.09004 0.25282 0.0
H1824 H 0.94949 0.79491 0.78695 0.0
H1825 H 0.9287 0.75348 0.80494 0.0
H1826 H 0.94865 0.78422 0.76104 0.0
H1827 H 0.92829 0.74258 0.77879 0.0
H1828 H 0.95287 0.72536 0.7327 0.0
H1829 H 0.95155 0.73589 0.75868 0.0
H1830 H 0.92593 0.77484 0.74168 0.0
H1831 H 0.92683 0.76407 0.71553 0.0
C1832 C 0.94484 0.78345 0.7854 0.0
C1833 C 0.93926 0.77497 0.79805 0.0
C1834 C 0.94424 0.77742 0.77052 0.0
C1835 C 0.93837 0.76264 0.76794 0.0
C1836 C 0.93288 0.75404 0.78053 0.0
C1837 C 0.93312 0.76025 0.79545 0.0
C1838 C 0.947 0.73621 0.73443 0.0
C1839 C 0.94006 0.74396 0.722 0.0
C1840 C 0.94612 0.74212 0.74935 0.0
C1841 C 0.93856 0.75609 0.75217 0.0
C1842 C 0.9318 0.76401 0.73977 0.0
C1843 C 0.93236 0.75789 0.72484 0.0
H1844 H 0.10425 0.75231 0.29907 0.0
H1845 H 0.05688 0.73819 0.29348 0.0
H1846 H 0.1044 0.76192 0.27255 0.0
H1847 H 0.05716 0.74738 0.26714 0.0
H1848 H 0.0575 0.77985 0.22627 0.0
H1849 H 0.05788 0.77073 0.25263 0.0
H1850 H 0.10358 0.75238 0.24574 0.0
H1851 H 0.10335 0.76191 0.21919 0.0
C1852 C 0.09384 0.7514 0.29228 0.0
C1853 C 0.08054 0.74453 0.29847 0.0
C1854 C 0.09398 0.75672 0.27701 0.0
C1855 C 0.08081 0.75536 0.26766 0.0
C1856 C 0.06747 0.74878 0.27401 0.0
C1857 C 0.06733 0.74347 0.28917 0.0
C1858 C 0.06761 0.77375 0.23026 0.0
C1859 C 0.08038 0.77159 0.22053 0.0
C1860 C 0.06781 0.76848 0.24543 0.0
C1861 C 0.08077 0.76084 0.25137 0.0
C1862 C 0.09348 0.7584 0.2416 0.0
C1863 C 0.09327 0.76368 0.22632 0.0
H1864 H 0.60188 0.76583 0.72056 0.0
H1865 H 0.55516 0.78181 0.72665 0.0
H1866 H 0.60166 0.75555 0.74677 0.0
H1867 H 0.5551 0.77196 0.75277 0.0
H1868 H 0.60133 0.75402 0.79976 0.0
H1869 H 0.60155 0.76437 0.77357 0.0
H1870 H 0.55486 0.74852 0.76702 0.0
H1871 H 0.5545 0.73861 0.79311 0.0
C1872 C 0.59152 0.76702 0.7274 0.0
C1873 C 0.57853 0.77462 0.72144 0.0
C1874 C 0.59146 0.7613 0.7425 0.0
C1875 C 0.5784 0.76301 0.75195 0.0
C1876 C 0.56532 0.77028 0.74582 0.0
C1877 C 0.56537 0.77598 0.73079 0.0
C1878 C 0.59104 0.75297 0.7928 0.0
C1879 C 0.57789 0.74551 0.7986 0.0
C1880 C 0.59123 0.75873 0.77771 0.0
C1881 C 0.57826 0.75719 0.76811 0.0
C1882 C 0.56501 0.75007 0.77409 0.0
C1883 C 0.56482 0.74434 0.7891 0.0
H1884 H 0.41536 0.75253 0.21962 0.0
H1885 H 0.46363 0.74155 0.22442 0.0
H1886 H 0.41508 0.76243 0.24599 0.0
H1887 H 0.46325 0.75105 0.25068 0.0
H1888 H 0.4612 0.78328 0.29181 0.0
H1889 H 0.46118 0.77422 0.2654 0.0
H1890 H 0.41682 0.75293 0.27264 0.0
H1891 H 0.41667 0.76237 0.2992 0.0
C1892 C 0.42595 0.7524 0.2262 0.0
C1893 C 0.43953 0.74628 0.21984 0.0
C1894 C 0.42573 0.75788 0.24139 0.0
C1895 C 0.43912 0.75744 0.25053 0.0
C1896 C 0.45276 0.75172 0.24398 0.0
C1897 C 0.45297 0.74623 0.22887 0.0
C1898 C 0.45146 0.77656 0.28788 0.0
C1899 C 0.43894 0.77354 0.29771 0.0
C1900 C 0.45148 0.77133 0.27268 0.0
C1901 C 0.43898 0.76288 0.26683 0.0
C1902 C 0.42654 0.7596 0.27671 0.0
C1903 C 0.42654 0.76484 0.29199 0.0
H1904 H 0.28016 0.72643 0.05164 0.0
H1905 H 0.26381 0.72075 0.09827 0.0
H1906 H 0.27078 0.75274 0.05149 0.0
H1907 H 0.25408 0.74717 0.09799 0.0
H1908 H 0.25405 0.80023 0.09751 0.0
H1909 H 0.26399 0.77386 0.09771 0.0
H1910 H 0.24723 0.76726 0.05138 0.0
H1911 H 0.23766 0.79348 0.05105 0.0
C1912 C 0.27434 0.73071 0.0618 0.0
C1913 C 0.27273 0.72142 0.07497 0.0
C1914 C 0.26894 0.74583 0.0617 0.0
C1915 C 0.26176 0.75213 0.07476 0.0
C1916 C 0.25978 0.74275 0.08782 0.0
C1917 C 0.26517 0.72754 0.08791 0.0
C1918 C 0.25274 0.79322 0.08729 0.0
C1919 C 0.24508 0.79901 0.07426 0.0
C1920 C 0.25824 0.77804 0.08747 0.0
C1921 C 0.2563 0.76839 0.0746 0.0
C1922 C 0.24905 0.77437 0.06145 0.0
C1923 C 0.24353 0.78945 0.06128 0.0
H1924 H 0.78169 0.72591 0.55561 0.0
H1925 H 0.76439 0.72012 0.60189 0.0
H1926 H 0.77257 0.75231 0.55544 0.0
H1927 H 0.75491 0.74661 0.60157 0.0
H1928 H 0.75493 0.79949 0.60167 0.0
H1929 H 0.76477 0.77311 0.60177 0.0
H1930 H 0.74937 0.76724 0.55488 0.0
H1931 H 0.73989 0.79351 0.55465 0.0
C1932 C 0.77573 0.73018 0.56569 0.0
C1933 C 0.77377 0.72082 0.57876 0.0
C1934 C 0.77047 0.74537 0.56558 0.0
C1935 C 0.76308 0.75166 0.57853 0.0
C1936 C 0.76078 0.74221 0.59149 0.0
C1937 C 0.76603 0.72695 0.5916 0.0
C1938 C 0.75389 0.79264 0.5913 0.0
C1939 C 0.74663 0.79866 0.57815 0.0
C1940 C 0.75935 0.77746 0.59143 0.0
C1941 C 0.75774 0.76798 0.57838 0.0
C1942 C 0.75092 0.7742 0.5651 0.0
C1943 C 0.74545 0.78931 0.56498 0.0
H1944 H 0.23967 0.72526 0.46063 0.0
H1945 H 0.25507 0.72004 0.41363 0.0
H1946 H 0.24837 0.75173 0.46064 0.0
H1947 H 0.26431 0.74666 0.41381 0.0
H1948 H 0.27988 0.79317 0.4615 0.0
H1949 H 0.27104 0.76677 0.4608 0.0
H1950 H 0.25496 0.77324 0.4142 0.0
H1951 H 0.26435 0.79982 0.41474 0.0
C1952 C 0.24516 0.72967 0.45034 0.0
C1953 C 0.24669 0.72043 0.43714 0.0
C1954 C 0.2502 0.74492 0.45036 0.0
C1955 C 0.25703 0.75142 0.43721 0.0
C1956 C 0.25889 0.74211 0.42407 0.0
C1957 C 0.25379 0.72678 0.42403 0.0
C1958 C 0.27433 0.78908 0.45111 0.0
C1959 C 0.27282 0.7987 0.43818 0.0
C1960 C 0.2692 0.77388 0.45073 0.0
C1961 C 0.26229 0.76778 0.43744 0.0
C1962 C 0.26043 0.77747 0.42457 0.0
C1963 C 0.26562 0.79278 0.42494 0.0
H1964 H 0.73831 0.72452 0.96691 0.0
H1965 H 0.75548 0.71773 0.92073 0.0
H1966 H 0.74875 0.75045 0.96703 0.0
H1967 H 0.76623 0.74374 0.92098 0.0
H1968 H 0.78302 0.79041 0.96743 0.0
H1969 H 0.77276 0.7644 0.9674 0.0
H1970 H 0.757 0.77057 0.92066 0.0
H1971 H 0.76758 0.79665 0.92057 0.0
C1972 C 0.74452 0.72846 0.95685 0.0
C1973 C 0.74604 0.719 0.9438 0.0
C1974 C 0.75054 0.74337 0.95694 0.0
C1975 C 0.75823 0.74924 0.94398 0.0
C1976 C 0.76014 0.73965 0.93106 0.0
C1977 C 0.75415 0.72467 0.93099 0.0
C1978 C 0.77723 0.78632 0.95717 0.0
C1979 C 0.77613 0.79566 0.94399 0.0
C1980 C 0.77133 0.77138 0.95717 0.0
C1981 C 0.76416 0.76533 0.94399 0.0
C1982 C 0.76269 0.77479 0.93092 0.0
C1983 C 0.76858 0.7898 0.93093 0.0
H1984 H 0.31185 0.54078 0.53055 0.0
H1985 H 0.35748 0.54874 0.51238 0.0
H1986 H 0.31315 0.51417 0.52244 0.0
H1987 H 0.35858 0.52192 0.50374 0.0
H1988 H 0.36076 0.46873 0.50382 0.0
H1989 H 0.36028 0.49532 0.51332 0.0
H1990 H 0.31258 0.49912 0.49979 0.0
H1991 H 0.31292 0.47277 0.49085 0.0
C1992 C 0.3221 0.53694 0.52459 0.0
C1993 C 0.33453 0.54701 0.52207 0.0
C1994 C 0.32284 0.5216 0.51991 0.0
C1995 C 0.33597 0.51582 0.51242 0.0
C1996 C 0.34836 0.52592 0.50966 0.0
C1997 C 0.34765 0.54135 0.51442 0.0
C1998 C 0.35011 0.47518 0.50318 0.0
C1999 C 0.33687 0.46856 0.49661 0.0
C2000 C 0.34989 0.49049 0.50842 0.0
C2001 C 0.33641 0.49943 0.50726 0.0
C2002 C 0.32312 0.4926 0.50106 0.0
C2003 C 0.32334 0.47742 0.49587 0.0
H2004 H 0.80962 0.47038 1.00352 0.0
H2005 H 0.85857 0.47083 0.99523 0.0
H2006 H 0.81079 0.49683 0.01249 0.0
H2007 H 0.85974 0.49772 1.00321 0.0
H2008 H 0.858 0.54328 0.03029 0.0
H2009 H 0.85861 0.51645 0.0221 0.0
H2010 H 0.8128 0.52142 1.00317 0.0
H2011 H 0.81195 0.54783 0.01235 0.0
C2012 C 0.82067 0.47616 1.00372 0.0
C2013 C 0.83399 0.46854 0.99873 0.0
C2014 C 0.82134 0.49146 1.00862 0.0
C2015 C 0.8353 0.49972 1.00824 0.0
C2016 C 0.84877 0.49183 1.00379 0.0
C2017 C 0.84814 0.47637 0.99923 0.0
C2018 C 0.8482 0.53866 0.02411 0.0
C2019 C 0.83491 0.54762 0.02197 0.0
C2020 C 0.84851 0.52323 0.01943 0.0
C2021 C 0.83562 0.51649 0.01222 0.0
C2022 C 0.82275 0.5259 0.00918 0.0
C2023 C 0.82232 0.54116 0.0142 0.0
H2024 H 0.30039 0.60303 0.25412 0.0
H2025 H 0.29344 0.55796 0.23431 0.0
H2026 H 0.27383 0.60281 0.26363 0.0
H2027 H 0.26705 0.55793 0.24339 0.0
H2028 H 0.22609 0.55564 0.27595 0.0
H2029 H 0.25239 0.55619 0.26656 0.0
H2030 H 0.24712 0.60404 0.25422 0.0
H2031 H 0.22069 0.6036 0.26404 0.0
C2032 C 0.29328 0.59304 0.25191 0.0
C2033 C 0.29912 0.5805 0.2435 0.0
C2034 C 0.278 0.59299 0.25719 0.0
C2035 C 0.26824 0.58038 0.25422 0.0
C2036 C 0.27422 0.56777 0.24606 0.0
C2037 C 0.28941 0.56781 0.2408 0.0
C2038 C 0.23042 0.56627 0.27109 0.0
C2039 C 0.22121 0.57957 0.27074 0.0
C2040 C 0.24555 0.56657 0.26566 0.0
C2041 C 0.25195 0.58017 0.25969 0.0
C2042 C 0.24264 0.59342 0.25897 0.0
C2043 C 0.22742 0.59311 0.2644 0.0
H2044 H 0.16418 0.96923 0.51507 0.0
H2045 H 0.2116 0.97556 0.52866 0.0
H2046 H 0.16334 0.99593 0.50603 0.0
H2047 H 0.21064 1.00205 0.52013 0.0
H2048 H 0.20934 0.04374 0.48914 0.0
H2049 H 0.20946 0.01715 0.49742 0.0
H2050 H 0.1636 0.02253 0.5159 0.0
H2051 H 0.16329 0.04933 0.50712 0.0
C2052 C 0.17446 0.97622 0.51597 0.0
C2053 C 0.18797 0.97018 0.52254 0.0
C2054 C 0.17392 0.99159 0.51098 0.0
C2055 C 0.1869 1.00121 0.5124 0.0
C2056 C 0.20046 0.995 0.51866 0.0
C2057 C 0.201 0.97974 0.5236 0.0
C2058 C 0.19928 0.03937 0.49508 0.0
C2059 C 0.18631 0.04876 0.49749 0.0
C2060 C 0.19938 0.02406 0.49988 0.0
C2061 C 0.18654 0.01762 0.50733 0.0
C2062 C 0.17361 0.02705 0.51001 0.0
C2063 C 0.17351 0.04247 0.50517 0.0
H2064 H 0.70251 0.54877 0.50637 0.0
H2065 H 0.65648 0.54549 0.48804 0.0
H2066 H 0.70113 0.52215 0.51482 0.0
H2067 H 0.65535 0.51847 0.49557 0.0
H2068 H 0.65459 0.47219 0.5216 0.0
H2069 H 0.65384 0.49925 0.5141 0.0
H2070 H 0.70274 0.49778 0.50471 0.0
H2071 H 0.70351 0.47115 0.51316 0.0
C2072 C 0.69202 0.54234 0.50427 0.0
C2073 C 0.6796 0.54922 0.49659 0.0
C2074 C 0.6913 0.52696 0.50887 0.0
C2075 C 0.67828 0.51785 0.50553 0.0
C2076 C 0.66556 0.525 0.49844 0.0
C2077 C 0.66617 0.54055 0.49415 0.0
C2078 C 0.6651 0.47764 0.51766 0.0
C2079 C 0.67912 0.46958 0.51799 0.0
C2080 C 0.6647 0.4932 0.51338 0.0
C2081 C 0.6783 0.50098 0.50909 0.0
C2082 C 0.69211 0.49249 0.50849 0.0
C2083 C 0.69255 0.4771 0.51309 0.0
H2084 H 0.71781 0.60147 0.76578 0.0
H2085 H 0.72451 0.5555 0.7835 0.0
H2086 H 0.74427 0.60146 0.75605 0.0
H2087 H 0.75083 0.55563 0.7741 0.0
H2088 H 0.7974 0.60198 0.75599 0.0
H2089 H 0.77102 0.60197 0.76588 0.0
H2090 H 0.76531 0.55508 0.75045 0.0
H2091 H 0.79159 0.55498 0.74087 0.0
C2092 C 0.72484 0.59132 0.76747 0.0
C2093 C 0.71898 0.57848 0.77539 0.0
C2094 C 0.74007 0.59138 0.76206 0.0
C2095 C 0.74973 0.57858 0.76438 0.0
C2096 C 0.74371 0.56564 0.77198 0.0
C2097 C 0.72858 0.56559 0.77741 0.0
C2098 C 0.79059 0.5916 0.75494 0.0
C2099 C 0.79666 0.57847 0.74767 0.0
C2100 C 0.7754 0.59166 0.76042 0.0
C2101 C 0.76599 0.57856 0.75885 0.0
C2102 C 0.77224 0.56533 0.75197 0.0
C2103 C 0.78735 0.56529 0.74646 0.0
H2104 H 0.51326 0.3121 0.54594 0.0
H2105 H 0.52835 0.35931 0.54311 0.0
H2106 H 0.5043 0.31329 0.51948 0.0
H2107 H 0.52004 0.36037 0.51626 0.0
H2108 H 0.49167 0.35913 0.47088 0.0
H2109 H 0.49999 0.36037 0.49771 0.0
H2110 H 0.51531 0.31312 0.49494 0.0
H2111 H 0.50633 0.31175 0.46849 0.0
C2112 C 0.51452 0.3228 0.53968 0.0
C2113 C 0.52153 0.33559 0.54661 0.0
C2114 C 0.50959 0.32344 0.5244 0.0
C2115 C 0.51183 0.33679 0.51549 0.0
C2116 C 0.5181 0.34988 0.5227 0.0
C2117 C 0.52283 0.34931 0.53813 0.0
C2118 C 0.49711 0.34912 0.47595 0.0
C2119 C 0.49827 0.33531 0.4676 0.0
C2120 C 0.50183 0.3498 0.49137 0.0
C2121 C 0.50799 0.33673 0.49871 0.0
C2122 C 0.51011 0.32327 0.48993 0.0
C2123 C 0.50517 0.32253 0.47465 0.0
H2124 H 0.54528 0.20041 0.983 0.0
H2125 H 0.50413 0.17879 0.96531 0.0
H2126 H 0.53467 0.19949 1.00898 0.0
H2127 H 0.49334 0.17829 0.99146 0.0
H2128 H 0.47529 0.20203 0.03721 0.0
H2129 H 0.48606 0.2011 0.01134 0.0
H2130 H 0.5258 0.17688 0.02861 0.0
H2131 H 0.5148 0.1774 0.0547 0.0
C2132 C 0.5339 0.19557 0.98462 0.0
C2133 C 0.52548 0.18978 0.97204 0.0
C2134 C 0.52792 0.19493 0.99954 0.0
C2135 C 0.51325 0.18877 1.00221 0.0
C2136 C 0.50471 0.1831 0.98967 0.0
C2137 C 0.51086 0.1834 0.97473 0.0
C2138 C 0.48637 0.19654 0.03558 0.0
C2139 C 0.49425 0.18987 0.04807 0.0
C2140 C 0.49243 0.19589 0.02071 0.0
C2141 C 0.50669 0.18886 0.01798 0.0
C2142 C 0.51475 0.18237 0.03044 0.0
C2143 C 0.50849 0.18269 0.04534 0.0
H2144 H 0.53005 0.66219 0.47532 0.0
H2145 H 0.51462 0.70922 0.47193 0.0
H2146 H 0.52201 0.66139 0.50216 0.0
H2147 H 0.5055 0.70822 0.49837 0.0
H2148 H 0.50468 0.7097 0.54954 0.0
H2149 H 0.51405 0.70905 0.52318 0.0
H2150 H 0.50318 0.66052 0.52067 0.0
H2151 H 0.49491 0.66111 0.54747 0.0
C2152 C 0.52448 0.67221 0.48021 0.0
C2153 C 0.52297 0.68577 0.47155 0.0
C2154 C 0.51985 0.67179 0.49566 0.0
C2155 C 0.51329 0.68483 0.50273 0.0
C2156 C 0.51099 0.69809 0.49366 0.0
C2157 C 0.51598 0.69862 0.47836 0.0
C2158 C 0.50464 0.69884 0.54341 0.0
C2159 C 0.49915 0.68545 0.55057 0.0
C2160 C 0.50976 0.69848 0.52816 0.0
C2161 C 0.50908 0.6848 0.51946 0.0
C2162 C 0.50406 0.67127 0.52689 0.0
C2163 C 0.49932 0.67157 0.54231 0.0
H2164 H 0.48727 0.80557 0.97543 0.0
H2165 H 0.50338 0.85215 0.96885 0.0
H2166 H 0.49694 0.80583 1.00161 0.0
H2167 H 0.51344 0.85227 0.99519 0.0
H2168 H 0.53049 0.80554 0.04178 0.0
H2169 H 0.52073 0.80583 0.01563 0.0
H2170 H 0.50421 0.85224 0.02218 0.0
H2171 H 0.51435 0.85208 0.04849 0.0
C2172 C 0.49307 0.81583 0.97949 0.0
C2173 C 0.49456 0.82883 0.96996 0.0
C2174 C 0.49866 0.81596 0.99455 0.0
C2175 C 0.50593 0.82909 1.00057 0.0
C2176 C 0.5077 0.84204 0.99098 0.0
C2177 C 0.50212 0.8419 0.97582 0.0
C2178 C 0.52466 0.8158 0.03776 0.0
C2179 C 0.5232 0.82879 0.04731 0.0
C2180 C 0.51902 0.81594 0.02271 0.0
C2181 C 0.51172 0.82907 0.01674 0.0
C2182 C 0.50996 0.842 0.02635 0.0
C2183 C 0.5156 0.84184 0.04149 0.0
H2184 H 0.47109 1.0049 0.85164 0.0
H2185 H 0.47652 0.98974 0.80459 0.0
H2186 H 0.49751 0.01468 0.85143 0.0
H2187 H 0.50284 0.99917 0.80451 0.0
H2188 H 0.5506 0.01485 0.85068 0.0
H2189 H 0.5242 1.00496 0.85081 0.0
H2190 H 0.51744 0.02264 0.80485 0.0
H2191 H 0.5437 0.03218 0.80459 0.0
C2192 C 0.47783 1.0038 0.84121 0.0
C2193 C 0.47162 0.99657 0.82812 0.0
C2194 C 0.49304 0.00922 0.84116 0.0
C2195 C 0.50236 1.00761 0.82799 0.0
C2196 C 0.49599 1.00074 0.81481 0.0
C2197 C 0.48085 0.9953 0.81487 0.0
C2198 C 0.54355 0.0164 0.84052 0.0
C2199 C 0.54932 0.02429 0.82762 0.0
C2200 C 0.52835 0.01091 0.84067 0.0
C2201 C 0.51864 0.0131 0.82788 0.0
C2202 C 0.52459 0.02062 0.81485 0.0
C2203 C 0.53969 0.02612 0.81472 0.0
H2204 H 0.55255 0.51296 0.35351 0.0
H2205 H 0.54891 0.52675 0.30588 0.0
H2206 H 0.52602 0.50336 0.35263 0.0
H2207 H 0.52257 0.51759 0.30512 0.0
H2208 H 0.4727 0.50479 0.34957 0.0
H2209 H 0.49951 0.51338 0.35078 0.0
H2210 H 0.50749 0.4946 0.30546 0.0
H2211 H 0.48083 0.4864 0.30408 0.0
C2212 C 0.54619 0.51376 0.34282 0.0
C2213 C 0.5529 0.52061 0.32976 0.0
C2214 C 0.53093 0.50845 0.34236 0.0
C2215 C 0.5221 0.50978 0.32882 0.0
C2216 C 0.52902 0.51621 0.3157 0.0
C2217 C 0.54417 0.52153 0.31616 0.0
C2218 C 0.48013 0.50268 0.3398 0.0
C2219 C 0.47453 0.49498 0.3267 0.0
C2220 C 0.49556 0.50743 0.34057 0.0
C2221 C 0.50571 0.50463 0.32825 0.0
C2222 C 0.50001 0.49712 0.3151 0.0
C2223 C 0.48466 0.49239 0.31433 0.0
H2224 H 0.54401 0.98719 0.21573 0.0
H2225 H 0.54991 1.00318 0.16901 0.0
H2226 H 0.51785 0.99705 0.21589 0.0
H2227 H 0.52366 0.01337 0.16929 0.0
H2228 H 0.47713 0.03044 0.21585 0.0
H2229 H 0.50334 0.02068 0.2158 0.0
H2230 H 0.497 1.00364 0.16954 0.0
H2231 H 0.47071 0.01371 0.16946 0.0
C2232 C 0.53982 0.99303 0.20555 0.0
C2233 C 0.54911 0.99438 0.19235 0.0
C2234 C 0.52478 0.99871 0.20566 0.0
C2235 C 0.51858 1.0059 0.19257 0.0
C2236 C 0.52799 1.00766 0.17949 0.0
C2237 C 0.54311 1.00201 0.1794 0.0
C2238 C 0.48122 0.02446 0.2057 0.0
C2239 C 0.47177 0.02287 0.19266 0.0
C2240 C 0.49629 0.01884 0.20569 0.0
C2241 C 0.50235 0.01148 0.19263 0.0
C2242 C 0.49278 0.00949 0.1797 0.0
C2243 C 0.47764 0.01508 0.17973 0.0
H2244 H 0.54203 0.48632 0.71407 0.0
H2245 H 0.54839 0.50355 0.66785 0.0
H2246 H 0.51554 0.49521 0.71383 0.0
H2247 H 0.52176 0.51278 0.66776 0.0
H2248 H 0.4744 0.52784 0.71429 0.0
H2249 H 0.50077 0.5186 0.71417 0.0
H2250 H 0.49512 0.50273 0.66741 0.0
H2251 H 0.46861 0.51231 0.66741 0.0
C2252 C 0.53785 0.49219 0.7039 0.0
C2253 C 0.54741 0.49423 0.69098 0.0
C2254 C 0.52262 0.49732 0.70379 0.0
C2255 C 0.51646 0.50466 0.69076 0.0
C2256 C 0.52607 0.50697 0.6779 0.0
C2257 C 0.54139 0.50185 0.67803 0.0
C2258 C 0.47867 0.52224 0.704 0.0
C2259 C 0.46933 0.52081 0.69086 0.0
C2260 C 0.49384 0.51691 0.70395 0.0
C2261 C 0.50013 0.50998 0.69076 0.0
C2262 C 0.49071 0.50821 0.67769 0.0
C2263 C 0.47545 0.51352 0.67776 0.0
H2264 H 0.71174 0.93142 0.76412 0.0
H2265 H 0.72964 0.9539 0.72352 0.0
H2266 H 0.73784 0.93085 0.77506 0.0
H2267 H 0.75555 0.9529 0.73426 0.0
H2268 H 0.8009 0.92948 0.75352 0.0
H2269 H 0.77481 0.92973 0.74259 0.0
H2270 H 0.75807 0.9535 0.78282 0.0
H2271 H 0.78402 0.95369 0.79356 0.0
C2272 C 0.7212 0.93622 0.75755 0.0
C2273 C 0.71859 0.94282 0.74302 0.0
C2274 C 0.7361 0.93588 0.76379 0.0
C2275 C 0.74867 0.94175 0.75543 0.0
C2276 C 0.74608 0.94819 0.74088 0.0
C2277 C 0.7312 0.94887 0.73482 0.0
C2278 C 0.79167 0.93487 0.75995 0.0
C2279 C 0.79457 0.94168 0.77433 0.0
C2280 C 0.77677 0.93498 0.75372 0.0
C2281 C 0.76445 0.94154 0.76195 0.0
C2282 C 0.76734 0.94826 0.77633 0.0
C2283 C 0.78224 0.94848 0.78237 0.0
H2284 H 0.79934 0.45527 0.26313 0.0
H2285 H 0.79713 0.40738 0.27598 0.0
H2286 H 0.77293 0.45412 0.25398 0.0
H2287 H 0.7703 0.40634 0.26767 0.0
H2288 H 0.72498 0.40758 0.23968 0.0
H2289 H 0.75179 0.40662 0.24807 0.0
H2290 H 0.74827 0.45365 0.26399 0.0
H2291 H 0.72188 0.45476 0.25477 0.0
C2292 C 0.7932 0.44444 0.26388 0.0
C2293 C 0.8003 0.43142 0.27026 0.0
C2294 C 0.77794 0.44381 0.25887 0.0
C2295 C 0.7692 0.43024 0.26044 0.0
C2296 C 0.77658 0.41699 0.26619 0.0
C2297 C 0.792 0.41756 0.27094 0.0
C2298 C 0.7299 0.41759 0.24524 0.0
C2299 C 0.72137 0.43127 0.24652 0.0
C2300 C 0.74531 0.41708 0.25003 0.0
C2301 C 0.75244 0.43017 0.25642 0.0
C2302 C 0.74346 0.44349 0.25861 0.0
C2303 C 0.72821 0.44409 0.25355 0.0
H2304 H 0.03037 0.2998 0.13389 0.0
H2305 H 0.03222 0.26783 0.09591 0.0
H2306 H 0.01419 0.28165 0.1483 0.0
H2307 H 0.01564 0.24999 0.11013 0.0
H2308 H 0.96778 0.23675 0.13492 0.0
H2309 H 0.98594 0.25295 0.12055 0.0
H2310 H 0.01727 0.25207 0.15902 0.0
H2311 H 0.99941 0.23547 0.1732 0.0
C2312 C 0.02743 0.28887 0.12866 0.0
C2313 C 0.03269 0.28524 0.11378 0.0
C2314 C 0.01817 0.27849 0.13691 0.0
C2315 C 0.0136 0.26443 0.13031 0.0
C2316 C 0.01893 0.26075 0.11548 0.0
C2317 C 0.02851 0.27094 0.1074 0.0
C2318 C 0.97864 0.23982 0.14022 0.0
C2319 C 0.98217 0.23471 0.15518 0.0
C2320 C 0.98903 0.24909 0.132 0.0
C2321 C 1.003 0.25382 0.1387 0.0
C2322 C 1.00657 0.24865 0.1536 0.0
C2323 C 0.99638 0.23905 0.16166 0.0
H2324 H 0.96674 0.27876 0.3828 0.0
H2325 H 1.00058 0.28021 0.34642 0.0
H2326 H 0.98374 0.262 0.39784 0.0
H2327 H 0.01735 0.26321 0.36131 0.0
H2328 H 0.03108 0.21636 0.38547 0.0
H2329 H 0.01554 0.23465 0.37063 0.0
H2330 H 0.01088 0.26338 0.41084 0.0
H2331 H 0.02666 0.24534 0.42559 0.0
C2332 C 0.97783 0.2756 0.37805 0.0
C2333 C 0.9823 0.28091 0.36342 0.0
C2334 C 0.98757 0.26601 0.38668 0.0
C2335 C 1.00187 0.26122 0.38073 0.0
C2336 C 1.00637 0.2666 0.36616 0.0
C2337 C 0.99679 0.27644 0.35768 0.0
C2338 C 0.02689 0.22666 0.3911 0.0
C2339 C 0.0302 0.22939 0.40671 0.0
C2340 C 0.018 0.23715 0.3826 0.0
C2341 C 0.01192 0.25044 0.38958 0.0
C2342 C 0.0153 0.2532 0.40516 0.0
C2343 C 0.02445 0.2429 0.41357 0.0
H2344 H 0.99138 0.24686 0.59162 0.0
H2345 H 0.98853 0.2154 0.62998 0.0
H2346 H 1.00738 0.26417 0.60698 0.0
H2347 H 1.00437 0.23289 0.64542 0.0
H2348 H 0.02015 0.27624 0.67232 0.0
H2349 H 1.00304 0.26004 0.65696 0.0
H2350 H 0.03451 0.26312 0.61865 0.0
H2351 H 0.0518 0.27917 0.6341 0.0
C2352 C 0.994 0.24371 0.60339 0.0
C2353 C 0.98862 0.22972 0.60957 0.0
C2354 C 1.00328 0.25359 0.61215 0.0
C2355 C 1.00719 0.2499 0.62741 0.0
C2356 C 1.00149 0.23612 0.63373 0.0
C2357 C 0.99243 0.22608 0.62487 0.0
C2358 C 0.02339 0.27359 0.66058 0.0
C2359 C 0.03737 0.27906 0.65445 0.0
C2360 C 0.01362 0.2642 0.65182 0.0
C2361 C 0.01742 0.26024 0.6366 0.0
C2362 C 0.0312 0.26603 0.63032 0.0
C2363 C 0.04112 0.2752 0.63918 0.0
H2364 H 0.98658 0.26782 0.92057 0.0
H2365 H 0.98891 0.30261 0.88519 0.0
H2366 H 1.00329 0.2511 0.90523 0.0
H2367 H 1.00532 0.28567 0.86968 0.0
H2368 H 0.0205 0.24262 0.8409 0.0
H2369 H 1.00287 0.25843 0.85614 0.0
H2370 H 0.03231 0.25316 0.89575 0.0
H2371 H 0.05023 0.23763 0.8804 0.0
C2372 C 0.99047 0.27182 0.90943 0.0
C2373 C 0.98635 0.28655 0.9041 0.0
C2374 C 1.00013 0.26228 0.9007 0.0
C2375 C 1.00565 0.26707 0.88627 0.0
C2376 C 1.0012 0.28162 0.88073 0.0
C2377 C 0.99181 0.29133 0.88962 0.0
C2378 C 0.02319 0.24472 0.85289 0.0
C2379 C 0.03678 0.2388 0.85944 0.0
C2380 C 0.01312 0.25387 0.86158 0.0
C2381 C 0.0162 0.25706 0.87713 0.0
C2382 C 0.02959 0.25083 0.88381 0.0
C2383 C 0.03985 0.24196 0.87501 0.0
H2384 H 0.02968 0.71932 0.88299 0.0
H2385 H 0.03246 0.75135 0.92086 0.0
H2386 H 0.01371 0.73774 0.86868 0.0
H2387 H 0.01607 0.76944 0.90676 0.0
H2388 H 0.96763 0.7823 0.88217 0.0
H2389 H 0.98573 0.76584 0.89629 0.0
H2390 H 0.01764 0.76826 0.85836 0.0
H2391 H 0.99983 0.78518 0.84444 0.0
C2392 C 0.02699 0.73031 0.88821 0.0
C2393 C 0.03244 0.73389 0.90304 0.0
C2394 C 0.01786 0.74085 0.88002 0.0
C2395 C 0.01362 0.755 0.88664 0.0
C2396 C 0.01913 0.75862 0.9014 0.0
C2397 C 0.02859 0.74828 0.90942 0.0
C2398 C 0.9786 0.77951 0.87694 0.0
C2399 C 0.98232 0.78516 0.86222 0.0
C2400 C 0.98895 0.77009 0.88502 0.0
C2401 C 1.00306 0.76573 0.87839 0.0
C2402 C 1.00683 0.77141 0.86372 0.0
C2403 C 0.99667 0.78118 0.85581 0.0
H2404 H 0.51461 0.29233 0.16278 0.0
H2405 H 0.55339 0.26641 0.14564 0.0
H2406 H 0.49707 0.27548 0.14856 0.0
H2407 H 0.53587 0.24958 0.13151 0.0
H2408 H 0.49958 0.21201 0.1236 0.0
H2409 H 0.51625 0.22959 0.13781 0.0
H2410 H 0.48948 0.26814 0.1216 0.0
H2411 H 0.47278 0.25052 0.10728 0.0
C2412 C 0.51942 0.28313 0.15589 0.0
C2413 C 0.53545 0.28077 0.15538 0.0
C2414 C 0.50935 0.27348 0.1477 0.0
C2415 C 0.51502 0.26108 0.13897 0.0
C2416 C 0.53107 0.25887 0.13828 0.0
C2417 C 0.54114 0.26863 0.14629 0.0
C2418 C 0.49713 0.22422 0.12316 0.0
C2419 C 0.48479 0.22981 0.11427 0.0
C2420 C 0.50679 0.23433 0.13121 0.0
C2421 C 0.50432 0.25032 0.13077 0.0
C2422 C 0.4917 0.2559 0.12226 0.0
C2423 C 0.48213 0.24579 0.11403 0.0
H2424 H 0.98917 0.80063 0.38498 0.0
H2425 H 0.98745 0.76856 0.42287 0.0
H2426 H 1.00536 0.78253 0.37049 0.0
H2427 H 1.00403 0.75079 0.40859 0.0
H2428 H 0.0517 0.73746 0.38356 0.0
H2429 H 0.03378 0.75392 0.39795 0.0
H2430 H 1.002 0.75274 0.35987 0.0
H2431 H 0.0196 0.73588 0.34568 0.0
C2432 C 0.99216 0.7897 0.39017 0.0
C2433 C 0.98692 0.78601 0.40505 0.0
C2434 C 1.00142 0.77935 0.38188 0.0
C2435 C 1.006 0.76528 0.38844 0.0
C2436 C 1.00073 0.76157 0.40327 0.0
C2437 C 0.99115 0.77172 0.41139 0.0
C2438 C 0.0408 0.74053 0.37835 0.0
C2439 C 0.03705 0.73525 0.36351 0.0
C2440 C 0.03056 0.74995 0.38658 0.0
C2441 C 0.01652 0.75466 0.38 0.0
C2442 C 0.01275 0.74935 0.3652 0.0
C2443 C 0.0228 0.7396 0.35713 0.0
H2444 H 0.53165 0.29937 0.6306 0.0
H2445 H 0.52686 0.26883 0.59171 0.0
H2446 H 0.51615 0.28173 0.64628 0.0
H2447 H 0.51111 0.25144 0.60729 0.0
H2448 H 0.46712 0.23743 0.63643 0.0
H2449 H 0.48398 0.25361 0.62058 0.0
H2450 H 0.51818 0.25334 0.65656 0.0
H2451 H 0.50155 0.23692 0.67226 0.0
C2452 C 0.52737 0.28887 0.62542 0.0
C2453 C 0.53057 0.2855 0.60992 0.0
C2454 C 0.51852 0.27876 0.63441 0.0
C2455 C 0.51236 0.26522 0.628 0.0
C2456 C 0.5156 0.26182 0.61252 0.0
C2457 C 0.52473 0.27175 0.60364 0.0
C2458 C 0.4783 0.24068 0.64089 0.0
C2459 C 0.48299 0.2358 0.6556 0.0
C2460 C 0.48796 0.24992 0.6318 0.0
C2461 C 0.50239 0.2548 0.63735 0.0
C2462 C 0.5071 0.24986 0.65201 0.0
C2463 C 0.4976 0.24035 0.66095 0.0
H2464 H 0.10255 0.03949 0.26403 0.0
H2465 H 0.12357 0.01579 0.3023 0.0
H2466 H 0.11693 0.02325 0.24607 0.0
H2467 H 0.13783 0.99949 0.28434 0.0
H2468 H 0.14541 0.96157 0.24809 0.0
H2469 H 0.13109 0.97864 0.26521 0.0
H2470 H 0.14435 0.01765 0.2375 0.0
H2471 H 0.15885 1.00058 0.22038 0.0
C2472 C 0.11033 0.03091 0.26862 0.0
C2473 C 0.1119 0.02898 0.28463 0.0
C2474 C 0.1186 0.02162 0.25831 0.0
C2475 C 0.12844 0.00998 0.26375 0.0
C2476 C 0.13019 1.00821 0.27976 0.0
C2477 C 0.12211 0.01766 0.29006 0.0
C2478 C 0.14516 0.97377 0.24552 0.0
C2479 C 0.15329 0.97968 0.23281 0.0
C2480 C 0.13706 0.98357 0.25544 0.0
C2481 C 0.13668 0.99954 0.25283 0.0
C2482 C 0.14437 1.00541 0.23983 0.0
C2483 C 0.15268 0.99561 0.23001 0.0
H2484 H 0.24359 0.38505 0.54885 0.0
H2485 H 0.24215 0.34648 0.51757 0.0
H2486 H 0.26015 0.39903 0.53071 0.0
H2487 H 0.25907 0.36028 0.49974 0.0
H2488 H 0.30699 0.38445 0.48645 0.0
H2489 H 0.28852 0.37048 0.50262 0.0
H2490 H 0.25771 0.40935 0.50118 0.0
H2491 H 0.2759 0.42315 0.48462 0.0
C2492 C 0.24672 0.3796 0.53808 0.0
C2493 C 0.24147 0.36468 0.53464 0.0
C2494 C 0.25619 0.3876 0.5277 0.0
C2495 C 0.26094 0.38072 0.51383 0.0
C2496 C 0.25564 0.36585 0.51036 0.0
C2497 C 0.24587 0.358 0.52054 0.0
C2498 C 0.29617 0.38992 0.48938 0.0
C2499 C 0.29289 0.40488 0.48414 0.0
C2500 C 0.28561 0.38193 0.49864 0.0
C2501 C 0.27171 0.38886 0.50322 0.0
C2502 C 0.26836 0.40375 0.49789 0.0
C2503 C 0.27873 0.41159 0.48831 0.0
H2504 H 0.87293 0.55642 0.75301 0.0
H2505 H 0.85579 0.51768 0.72706 0.0
H2506 H 0.88684 0.53889 0.77 0.0
H2507 H 0.86981 0.50013 0.74405 0.0
H2508 H 0.91062 0.47569 0.76953 0.0
H2509 H 0.89667 0.49245 0.7517 0.0
H2510 H 0.88009 0.51934 0.79003 0.0
H2511 H 0.89394 0.50259 0.80783 0.0
C2512 C 0.87226 0.54417 0.7508 0.0
C2513 C 0.86322 0.5385 0.73862 0.0
C2514 C 0.88014 0.5341 0.76065 0.0
C2515 C 0.87936 0.51807 0.7585 0.0
C2516 C 0.87072 0.5124 0.74602 0.0
C2517 C 0.86267 0.52248 0.73628 0.0
C2518 C 0.90387 0.48508 0.77417 0.0
C2519 C 0.90342 0.48774 0.79015 0.0
C2520 C 0.89585 0.49469 0.76394 0.0
C2521 C 0.88735 0.50735 0.76939 0.0
C2522 C 0.88669 0.50984 0.78539 0.0
C2523 C 0.89453 0.50013 0.79563 0.0
H2524 H 0.79401 0.16176 0.01591 0.0
H2525 H 0.76831 0.1446 0.05484 0.0
H2526 H 0.77722 0.14734 0.9985 0.0
H2527 H 0.7515 0.13028 0.03742 0.0
H2528 H 0.71389 0.12207 1.001 0.0
H2529 H 0.73137 0.13644 0.01769 0.0
H2530 H 0.77013 0.12028 0.99114 0.0
H2531 H 0.75265 0.10581 0.97446 0.0
C2532 C 0.78488 0.1548 0.02078 0.0
C2533 C 0.78256 0.15434 0.03681 0.0
C2534 C 0.77526 0.14652 0.01078 0.0
C2535 C 0.76291 0.13774 0.01652 0.0
C2536 C 0.76075 0.13709 0.03257 0.0
C2537 C 0.7705 0.14519 0.04258 0.0
C2538 C 0.72612 0.12169 0.99859 0.0
C2539 C 0.73182 0.11277 0.98633 0.0
C2540 C 0.73617 0.12983 1.00827 0.0
C2541 C 0.75219 0.12943 1.00586 0.0
C2542 C 0.75786 0.1209 0.99331 0.0
C2543 C 0.74783 0.11259 0.98375 0.0
H2544 H 0.16485 0.01933 0.78887 0.0
H2545 H 0.14376 0.05742 0.76497 0.0
H2546 H 0.15092 1.00127 0.77231 0.0
H2547 H 0.13 0.03938 0.74835 0.0
H2548 H 0.12358 1.00325 0.71008 0.0
H2549 H 0.13746 0.02038 0.7275 0.0
H2550 H 0.12354 0.99248 0.76615 0.0
H2551 H 0.10946 0.97537 0.74872 0.0
C2552 C 0.15714 0.02386 0.78019 0.0
C2553 C 0.15542 0.03986 0.7783 0.0
C2554 C 0.14915 0.01349 0.77071 0.0
C2555 C 0.13944 0.01886 0.75891 0.0
C2556 C 0.13754 0.03485 0.75719 0.0
C2557 C 0.14533 0.0452 0.76682 0.0
C2558 C 0.12359 1.00064 0.72227 0.0
C2559 C 0.11539 0.98788 0.72796 0.0
C2560 C 0.13144 0.01056 0.73228 0.0
C2561 C 0.13151 1.0079 0.74825 0.0
C2562 C 0.12376 0.99485 0.75392 0.0
C2563 C 0.11569 0.98504 0.74391 0.0
H2564 H 0.24985 0.41046 0.04285 0.0
H2565 H 0.21158 0.39416 0.01567 0.0
H2566 H 0.2677 0.39659 0.02602 0.0
H2567 H 0.2294 0.38042 0.99883 0.0
H2568 H 0.26659 0.37369 0.96177 0.0
H2569 H 0.24959 0.38746 0.97943 0.0
H2570 H 0.2752 0.36968 0.01808 0.0
H2571 H 0.29219 0.35578 1.0004 0.0
C2572 C 0.24522 0.4038 0.03339 0.0
C2573 C 0.22924 0.40343 0.03066 0.0
C2574 C 0.25546 0.39584 0.02374 0.0
C2575 C 0.25002 0.38749 0.01097 0.0
C2576 C 0.23402 0.3869 1.00842 0.0
C2577 C 0.22378 0.39468 0.01818 0.0
C2578 C 0.26872 0.37282 0.97402 0.0
C2579 C 0.28081 0.36361 0.97963 0.0
C2580 C 0.25887 0.38061 0.98416 0.0
C2581 C 0.26092 0.37959 1.0002 0.0
C2582 C 0.27331 0.37078 1.0058 0.0
C2583 C 0.28305 0.3628 0.99566 0.0
H2584 H 0.90984 0.54316 0.24675 0.0
H2585 H 0.89447 0.51494 0.20885 0.0
H2586 H 0.89604 0.52639 0.26477 0.0
H2587 H 0.88092 0.49813 0.22685 0.0
H2588 H 0.87548 0.4616 0.26496 0.0
H2589 H 0.88908 0.47938 0.24792 0.0
H2590 H 0.8684 0.51787 0.27148 0.0
H2591 H 0.85458 0.50007 0.28844 0.0
C2592 C 0.9034 0.53348 0.24224 0.0
C2593 C 0.90326 0.53045 0.22632 0.0
C2594 C 0.8955 0.52387 0.25257 0.0
C2595 C 0.88749 0.51082 0.24727 0.0
C2596 C 0.88713 0.50796 0.23134 0.0
C2597 C 0.8948 0.5177 0.221 0.0
C2598 C 0.87393 0.47385 0.26664 0.0
C2599 C 0.86392 0.47938 0.2781 0.0
C2600 C 0.88164 0.48405 0.25677 0.0
C2601 C 0.87974 0.50006 0.25825 0.0
C2602 C 0.87015 0.50562 0.27006 0.0
C2603 C 0.86222 0.4954 0.27977 0.0
H2604 H 0.77083 0.10763 0.54168 0.0
H2605 H 0.80817 0.12532 0.51404 0.0
H2606 H 0.75234 0.12131 0.52538 0.0
H2607 H 0.78972 0.13884 0.49775 0.0
H2608 H 0.75183 0.14559 0.46152 0.0
H2609 H 0.76938 0.13176 0.47858 0.0
H2610 H 0.74405 0.14817 0.51803 0.0
H2611 H 0.72651 0.16211 0.50096 0.0
C2612 C 0.77512 0.11454 0.53223 0.0
C2613 C 0.79103 0.11537 0.52922 0.0
C2614 C 0.76451 0.12239 0.52288 0.0
C2615 C 0.7695 0.13108 0.51014 0.0
C2616 C 0.78543 0.13209 0.50731 0.0
C2617 C 0.79604 0.12443 0.51676 0.0
C2618 C 0.74987 0.14613 0.47382 0.0
C2619 C 0.73771 0.15499 0.47983 0.0
C2620 C 0.76004 0.1383 0.48362 0.0
C2621 C 0.75823 0.13893 0.49972 0.0
C2622 C 0.74576 0.14737 0.50571 0.0
C2623 C 0.73571 0.15538 0.49591 0.0
H2624 H 0.22683 0.16022 1.00014 0.0
H2625 H 0.25283 0.14158 0.9621 0.0
H2626 H 0.2435 0.1465 0.01823 0.0
H2627 H 0.26948 0.12795 0.98017 0.0
H2628 H 0.30701 0.12154 0.01675 0.0
H2629 H 0.28944 0.13511 0.99956 0.0
H2630 H 0.25081 0.11985 0.02683 0.0
H2631 H 0.26842 0.10617 0.04406 0.0
C2632 C 0.23598 0.15307 0.99561 0.0
C2633 C 0.23845 0.15202 0.97963 0.0
C2634 C 0.24554 0.14519 1.006 0.0
C2635 C 0.25794 0.13623 1.00068 0.0
C2636 C 0.26019 0.13493 0.98469 0.0
C2637 C 0.25054 0.14265 0.97431 0.0
C2638 C 0.29479 0.12118 0.01921 0.0
C2639 C 0.28916 0.11274 0.03184 0.0
C2640 C 0.28469 0.12886 0.00924 0.0
C2641 C 0.26868 0.12847 0.0117 0.0
C2642 C 0.26307 0.12044 0.02461 0.0
C2643 C 0.27317 0.11259 0.03449 0.0
H2644 H 0.73795 0.8837 0.55125 0.0
H2645 H 0.73552 0.84672 0.51817 0.0
H2646 H 0.75402 0.89853 0.53337 0.0
H2647 H 0.75194 0.86137 0.50056 0.0
H2648 H 0.79889 0.88608 0.48596 0.0
H2649 H 0.78123 0.87134 0.50238 0.0
H2650 H 0.75086 0.91049 0.505 0.0
H2651 H 0.7682 0.92507 0.48825 0.0
C2652 C 0.74075 0.87878 0.54014 0.0
C2653 C 0.73535 0.86405 0.53612 0.0
C2654 C 0.74995 0.88727 0.52991 0.0
C2655 C 0.75429 0.88108 0.51558 0.0
C2656 C 0.74885 0.8664 0.51154 0.0
C2657 C 0.73935 0.85807 0.5216 0.0
C2658 C 0.78836 0.89147 0.48989 0.0
C2659 C 0.78494 0.90673 0.4857 0.0
C2660 C 0.77825 0.88304 0.49928 0.0
C2661 C 0.76468 0.88979 0.50502 0.0
C2662 C 0.76125 0.90501 0.50081 0.0
C2663 C 0.77115 0.91331 0.49113 0.0
H2664 H 0.35442 0.01966 0.72856 0.0
H2665 H 0.37466 0.05763 0.75339 0.0
H2666 H 0.36859 1.00152 0.74484 0.0
H2667 H 0.38864 0.03952 0.76972 0.0
H2668 H 0.39567 1.00281 0.80729 0.0
H2669 H 0.38149 0.01999 0.79014 0.0
H2670 H 0.39609 0.99314 0.75101 0.0
H2671 H 0.41046 0.976 0.76816 0.0
C2672 C 0.36199 0.02416 0.73738 0.0
C2673 C 0.3634 0.04014 0.73961 0.0
C2674 C 0.37012 0.01375 0.74671 0.0
C2675 C 0.37965 0.01905 0.75869 0.0
C2676 C 0.38124 0.03503 0.76074 0.0
C2677 C 0.37332 0.04543 0.75127 0.0
C2678 C 0.39575 1.00044 0.79505 0.0
C2679 C 0.40423 0.98798 0.78914 0.0
C2680 C 0.38771 0.01039 0.7852 0.0
C2681 C 0.38774 1.00804 0.76917 0.0
C2682 C 0.39578 0.99527 0.76329 0.0
C2683 C 0.40403 0.98544 0.77313 0.0
H2684 H 0.21891 0.63311 0.98581 0.0
H2685 H 0.24974 0.5942 0.98744 0.0
H2686 H 0.23693 0.64793 1.00178 0.0
H2687 H 0.26742 0.60885 1.00377 0.0
H2688 H 0.2808 0.63595 0.04993 0.0
H2689 H 0.2644 0.62105 0.03241 0.0
H2690 H 0.26659 0.65773 0.99907 0.0
H2691 H 0.28336 0.67242 0.01631 0.0
C2692 C 0.22955 0.62775 0.98949 0.0
C2693 C 0.23291 0.61249 0.98525 0.0
C2694 C 0.23986 0.63623 0.99863 0.0
C2695 C 0.25356 0.62952 1.00407 0.0
C2696 C 0.25693 0.6143 0.99981 0.0
C2697 C 0.24683 0.60596 0.99037 0.0
C2698 C 0.27796 0.64074 0.03878 0.0
C2699 C 0.2835 0.65534 0.0345 0.0
C2700 C 0.26857 0.63221 0.02876 0.0
C2701 C 0.26415 0.63826 0.01439 0.0
C2702 C 0.26973 0.65281 0.01009 0.0
C2703 C 0.27944 0.66116 0.01993 0.0
H2704 H 0.71577 0.89265 0.01832 0.0
H2705 H 0.75347 0.90869 0.04645 0.0
H2706 H 0.73393 0.87902 1.00176 0.0
H2707 H 0.77166 0.89496 0.02987 0.0
H2708 H 0.7967 0.85439 1.00455 0.0
H2709 H 0.77945 0.86832 0.0219 0.0
H2710 H 0.75438 0.88591 0.98281 0.0
H2711 H 0.77163 0.87205 0.96547 0.0
C2712 C 0.72792 0.89315 0.02109 0.0
C2713 C 0.73312 0.90178 0.03377 0.0
C2714 C 0.73836 0.88544 0.01149 0.0
C2715 C 0.7543 0.88599 0.01437 0.0
C2716 C 0.75947 0.89423 0.02733 0.0
C2717 C 0.74903 0.90211 0.03684 0.0
C2718 C 0.78763 0.86138 0.99964 0.0
C2719 C 0.7856 0.86208 0.98358 0.0
C2720 C 0.77773 0.86938 0.0096 0.0
C2721 C 0.76541 0.87814 1.00378 0.0
C2722 C 0.7636 0.87911 0.98771 0.0
C2723 C 0.7736 0.87126 0.97775 0.0
H2724 H 0.37128 0.46039 0.76632 0.0
H2725 H 0.35088 0.49904 0.78995 0.0
H2726 H 0.38565 0.47808 0.7498 0.0
H2727 H 0.36539 0.51672 0.7735 0.0
H2728 H 0.40759 0.54177 0.75071 0.0
H2729 H 0.39292 0.52485 0.76783 0.0
H2730 H 0.37925 0.49729 0.72886 0.0
H2731 H 0.39375 0.51425 0.71173 0.0
C2732 C 0.36998 0.47265 0.76812 0.0
C2733 C 0.35991 0.47826 0.77951 0.0
C2734 C 0.37813 0.4828 0.75855 0.0
C2735 C 0.37661 0.49884 0.76025 0.0
C2736 C 0.36688 0.50445 0.77192 0.0
C2737 C 0.35854 0.4943 0.78134 0.0
C2738 C 0.40131 0.5322 0.74576 0.0
C2739 C 0.40184 0.52942 0.72981 0.0
C2740 C 0.39289 0.52251 0.75559 0.0
C2741 C 0.385 0.50962 0.74975 0.0
C2742 C 0.38534 0.50699 0.73377 0.0
C2743 C 0.39355 0.51681 0.72393 0.0
H2744 H 0.62541 0.99831 0.21329 0.0
H2745 H 0.6079 0.97287 0.25222 0.0
H2746 H 0.63924 0.01547 0.23073 0.0
H2747 H 0.62181 0.99004 0.26967 0.0
H2748 H 0.66214 0.01606 0.29431 0.0
H2749 H 0.64846 0.99792 0.27765 0.0
H2750 H 0.63225 0.03573 0.24984 0.0
H2751 H 0.64583 0.05383 0.26648 0.0
C2752 C 0.62465 0.99624 0.22556 0.0
C2753 C 0.61552 0.98416 0.23131 0.0
C2754 C 0.63248 1.00619 0.23558 0.0
C2755 C 0.63154 1.00425 0.25164 0.0
C2756 C 0.62285 0.99185 0.25738 0.0
C2757 C 0.61486 0.982 0.24736 0.0
C2758 C 0.65552 0.02052 0.28475 0.0
C2759 C 0.6551 0.03644 0.28178 0.0
C2760 C 0.64767 0.01011 0.27519 0.0
C2761 C 0.63936 0.01533 0.26229 0.0
C2762 C 0.63872 0.03127 0.25952 0.0
C2763 C 0.6464 0.04168 0.26917 0.0
H2764 H 0.01754 0.80495 0.62511 0.0
H2765 H 0.04403 0.76631 0.60857 0.0
H2766 H 1.00062 0.78739 0.63909 0.0
H2767 H 0.02709 0.74873 0.62263 0.0
H2768 H 1.00142 0.72417 0.66317 0.0
H2769 H 0.01923 0.74104 0.6493 0.0
H2770 H 0.98082 0.76771 0.63257 0.0
H2771 H 0.96304 0.75086 0.64634 0.0
C2772 C 0.01988 0.79272 0.62458 0.0
C2773 C 0.0322 0.78709 0.61569 0.0
C2774 C 0.01007 0.78263 0.6325 0.0
C2775 C 0.01237 0.7666 0.6319 0.0
C2776 C 0.02499 0.76099 0.62341 0.0
C2777 C 0.0347 0.77109 0.61533 0.0
C2778 C 0.99676 0.73353 0.6564 0.0
C2779 C 0.98076 0.7361 0.65588 0.0
C2780 C 1.00698 0.74321 0.64843 0.0
C2781 C 1.0015 0.75585 0.6399 0.0
C2782 C 0.98549 0.75825 0.63919 0.0
C2783 C 0.97526 0.74847 0.647 0.0
H2784 H 0.05736 0.76651 0.14426 0.0
H2785 H 0.01914 0.7931 0.16164 0.0
H2786 H 0.03949 0.75003 0.13019 0.0
H2787 H 1.00124 0.77659 0.14747 0.0
H2788 H 0.97631 0.75209 0.10641 0.0
H2789 H 0.99342 0.76939 0.12059 0.0
H2790 H 0.01955 0.73036 0.13668 0.0
H2791 H 1.00245 0.71307 0.12259 0.0
C2792 C 0.04516 0.76896 0.14496 0.0
C2793 C 0.03972 0.78118 0.1541 0.0
C2794 C 0.03488 0.7594 0.13699 0.0
C2795 C 0.01889 0.76187 0.13779 0.0
C2796 C 0.01347 0.77438 0.14655 0.0
C2797 C 0.02375 0.78384 0.15468 0.0
C2798 C 0.9856 0.74718 0.1131 0.0
C2799 C 0.98796 0.73115 0.11334 0.0
C2800 C 0.99541 0.75711 0.12125 0.0
C2801 C 1.00796 0.7513 0.12968 0.0
C2802 C 0.01014 0.73526 0.13014 0.0
C2803 C 1.00023 0.72532 0.12215 0.0
H2804 H 0.50272 0.71312 0.62552 0.0
H2805 H 0.47722 0.75113 0.60624 0.0
H2806 H 0.51922 0.73121 0.63936 0.0
H2807 H 0.49366 0.76923 0.62024 0.0
H2808 H 0.5177 0.79477 0.6615 0.0
H2809 H 0.50036 0.77749 0.64752 0.0
H2810 H 0.53938 0.75094 0.63206 0.0
H2811 H 0.55671 0.76825 0.64587 0.0
C2812 C 0.50049 0.72532 0.62438 0.0
C2813 C 0.48859 0.73064 0.61476 0.0
C2814 C 0.51005 0.73571 0.63222 0.0
C2815 C 0.50787 0.7517 0.63083 0.0
C2816 C 0.49565 0.75701 0.62162 0.0
C2817 C 0.48622 0.74662 0.61358 0.0
C2818 C 0.5226 0.78536 0.65497 0.0
C2819 C 0.53863 0.78296 0.6548 0.0
C2820 C 0.51265 0.77545 0.64695 0.0
C2821 C 0.51845 0.76273 0.63877 0.0
C2822 C 0.5345 0.76049 0.6384 0.0
C2823 C 0.54445 0.77053 0.64621 0.0
H2824 H 0.46386 0.75125 0.14325 0.0
H2825 H 0.50246 0.7259 0.16159 0.0
H2826 H 0.48157 0.768 0.12921 0.0
H2827 H 0.52018 0.74261 0.1474 0.0
H2828 H 0.54496 0.7674 0.10614 0.0
H2829 H 0.52805 0.74973 0.12018 0.0
H2830 H 0.50113 0.78822 0.13627 0.0
H2831 H 0.51804 0.80587 0.1224 0.0
C2832 C 0.47611 0.74911 0.14415 0.0
C2833 C 0.4817 0.73719 0.15357 0.0
C2834 C 0.48628 0.75881 0.13619 0.0
C2835 C 0.50232 0.75675 0.13726 0.0
C2836 C 0.5079 0.7445 0.14627 0.0
C2837 C 0.49773 0.73493 0.15442 0.0
C2838 C 0.53554 0.77211 0.11282 0.0
C2839 C 0.53291 0.7881 0.11314 0.0
C2840 C 0.52585 0.76197 0.12088 0.0
C2841 C 0.51313 0.76752 0.12925 0.0
C2842 C 0.51068 0.78352 0.12977 0.0
C2843 C 0.52048 0.79366 0.12192 0.0
H2844 H 0.13299 0.52939 0.80251 0.0
H2845 H 0.09549 0.5318 0.77001 0.0
H2846 H 0.14724 0.51271 0.78475 0.0
H2847 H 0.10958 0.51478 0.7525 0.0
H2848 H 0.13291 0.46669 0.73919 0.0
H2849 H 0.11877 0.48547 0.75484 0.0
H2850 H 0.159 0.51451 0.75638 0.0
H2851 H 0.17301 0.49602 0.7404 0.0
C2852 C 0.12784 0.52648 0.79154 0.0
C2853 C 0.11313 0.53202 0.78767 0.0
C2854 C 0.13601 0.51693 0.78137 0.0
C2855 C 0.1295 0.51238 0.76725 0.0
C2856 C 0.11486 0.51803 0.76332 0.0
C2857 C 0.10685 0.52787 0.77332 0.0
C2858 C 0.13867 0.47719 0.74267 0.0
C2859 C 0.15408 0.47987 0.73845 0.0
C2860 C 0.13056 0.48794 0.75162 0.0
C2861 C 0.13779 0.50145 0.75689 0.0
C2862 C 0.15314 0.50419 0.75256 0.0
C2863 C 0.16112 0.49363 0.74331 0.0
H2864 H 0.23275 0.84579 0.01481 0.0
H2865 H 0.23509 0.88329 0.04732 0.0
H2866 H 0.24966 0.85997 0.99723 0.0
H2867 H 0.25157 0.89767 0.02941 0.0
H2868 H 0.26679 0.92256 0.98306 0.0
H2869 H 0.2485 0.90845 0.99927 0.0
H2870 H 0.27991 0.87011 1.00136 0.0
H2871 H 0.2985 0.88441 0.98558 0.0
C2872 C 0.23662 0.85718 0.01809 0.0
C2873 C 0.2325 0.86343 0.03246 0.0
C2874 C 0.24638 0.86523 1.00805 0.0
C2875 C 0.25194 0.8799 0.01197 0.0
C2876 C 0.24741 0.8864 0.02609 0.0
C2877 C 0.23797 0.87817 0.03632 0.0
C2878 C 0.26975 0.91105 0.98682 0.0
C2879 C 0.28411 0.90459 0.98296 0.0
C2880 C 0.25931 0.90304 0.99619 0.0
C2881 C 0.26279 0.88821 1.00158 0.0
C2882 C 0.27691 0.88151 0.99731 0.0
C2883 C 0.28754 0.88969 0.98828 0.0
H2884 H 0.91342 0.97648 0.2688 0.0
H2885 H 0.8929 1.00172 0.30638 0.0
H2886 H 0.89995 0.99304 0.25038 0.0
H2887 H 0.87959 0.01827 0.288 0.0
H2888 H 0.87414 0.05613 0.25167 0.0
H2889 H 0.88757 0.03853 0.26895 0.0
H2890 H 0.87301 1.00003 0.24118 0.0
H2891 H 0.85942 0.01766 0.22388 0.0
C2892 C 0.90591 0.98544 0.27315 0.0
C2893 C 0.90426 0.98773 0.2891 0.0
C2894 C 0.89819 0.99492 0.26257 0.0
C2895 C 0.88881 1.0071 0.2677 0.0
C2896 C 0.8869 0.00916 0.28365 0.0
C2897 C 0.89444 0.99956 0.2942 0.0
C2898 C 0.87392 0.04393 0.24911 0.0
C2899 C 0.86567 0.03835 0.23635 0.0
C2900 C 0.88152 0.03382 0.25912 0.0
C2901 C 0.88126 0.01784 0.25656 0.0
C2902 C 0.87348 0.01227 0.24348 0.0
C2903 C 0.86568 0.02239 0.23357 0.0
H2904 H 0.79411 0.65867 0.51939 0.0
H2905 H 0.76567 0.64573 0.55804 0.0
H2906 H 0.77695 0.6445 0.50207 0.0
H2907 H 0.74846 0.63177 0.54071 0.0
H2908 H 0.71178 0.62509 0.50274 0.0
H2909 H 0.72976 0.63902 0.51933 0.0
H2910 H 0.76799 0.61695 0.49658 0.0
H2911 H 0.75001 0.60285 0.48009 0.0
C2912 C 0.78429 0.6527 0.52422 0.0
C2913 C 0.78132 0.65333 0.54014 0.0
C2914 C 0.77445 0.64457 0.51428 0.0
C2915 C 0.76124 0.6371 0.51997 0.0
C2916 C 0.75842 0.63755 0.53592 0.0
C2917 C 0.76838 0.64544 0.54587 0.0
C2918 C 0.72402 0.62331 0.50115 0.0
C2919 C 0.72942 0.61284 0.49004 0.0
C2920 C 0.73433 0.6312 0.51076 0.0
C2921 C 0.75033 0.62903 0.50937 0.0
C2922 C 0.75576 0.61893 0.49793 0.0
C2923 C 0.74544 0.61084 0.48849 0.0
H2924 H 0.13283 0.48663 0.21712 0.0
H2925 H 0.09568 0.48548 0.25011 0.0
H2926 H 0.14774 0.5031 0.23457 0.0
H2927 H 0.1104 0.50232 0.26727 0.0
H2928 H 0.13577 0.54979 0.27989 0.0
H2929 H 0.12087 0.53174 0.26406 0.0
H2930 H 0.15933 0.50039 0.26357 0.0
H2931 H 0.17405 0.51813 0.27978 0.0
C2932 C 0.12789 0.4898 0.22811 0.0
C2933 C 0.1131 0.48464 0.23224 0.0
C2934 C 0.13642 0.49923 0.2381 0.0
C2935 C 0.1302 0.50405 0.25226 0.0
C2936 C 0.11545 0.49885 0.25641 0.0
C2937 C 0.10708 0.48912 0.24661 0.0
C2938 C 0.14097 0.53897 0.27657 0.0
C2939 C 0.15607 0.53538 0.2812 0.0
C2940 C 0.13244 0.52863 0.26752 0.0
C2941 C 0.13897 0.51467 0.26253 0.0
C2942 C 0.15403 0.51108 0.26718 0.0
C2943 C 0.16241 0.52121 0.27655 0.0
H2944 H 0.24987 0.92341 0.53138 0.0
H2945 H 0.21809 0.88523 0.53046 0.0
H2946 H 0.26761 0.90908 0.51479 0.0
H2947 H 0.23614 0.87072 0.51425 0.0
H2948 H 0.28228 0.84579 0.4995 0.0
H2949 H 0.26562 0.86013 0.51716 0.0
H2950 H 0.26474 0.89823 0.48541 0.0
H2951 H 0.28102 0.8837 0.46745 0.0
C2952 C 0.24677 0.91186 0.52786 0.0
C2953 C 0.23256 0.90545 0.53232 0.0
C2954 C 0.2569 0.90372 0.51826 0.0
C2955 C 0.25326 0.8888 0.5132 0.0
C2956 C 0.23928 0.88218 0.51802 0.0
C2957 C 0.22895 0.89049 0.5273 0.0
C2958 C 0.27867 0.85728 0.49633 0.0
C2959 C 0.28305 0.86361 0.48206 0.0
C2960 C 0.26903 0.86544 0.50641 0.0
C2961 C 0.26385 0.88029 0.50267 0.0
C2962 C 0.2686 0.88683 0.48863 0.0
C2963 C 0.27792 0.87851 0.47835 0.0
H2964 H 0.8554 0.99963 0.79518 0.0
H2965 H 0.87045 0.96108 0.76767 0.0
H2966 H 0.86964 0.01715 0.77833 0.0
H2967 H 0.88462 0.97858 0.75087 0.0
H2968 H 0.89291 0.01555 0.71408 0.0
H2969 H 0.87861 0.9988 0.73157 0.0
H2970 H 0.89637 0.02414 0.77042 0.0
H2971 H 0.91069 0.0409 0.75293 0.0
C2972 C 0.86186 0.99486 0.78564 0.0
C2973 C 0.86177 0.97891 0.78283 0.0
C2974 C 0.87004 1.00492 0.77598 0.0
C2975 C 0.87818 0.99931 0.76314 0.0
C2976 C 0.87829 0.98333 0.7605 0.0
C2977 C 0.87027 0.97328 0.77024 0.0
C2978 C 0.89366 0.01766 0.72634 0.0
C2979 C 0.90297 0.02961 0.73206 0.0
C2980 C 0.88556 1.00796 0.73639 0.0
C2981 C 0.88642 0.01002 0.75244 0.0
C2982 C 0.89537 0.02225 0.75814 0.0
C2983 C 0.90361 0.03186 0.74809 0.0
H2984 H 0.76829 0.59118 0.02843 0.0
H2985 H 0.79755 0.63112 0.03256 0.0
H2986 H 0.75029 0.60596 0.01259 0.0
H2987 H 0.77926 0.64601 0.01704 0.0
H2988 H 0.73309 0.66993 1.00224 0.0
H2989 H 0.74982 0.65496 0.01927 0.0
H2990 H 0.75281 0.61924 0.98495 0.0
H2991 H 0.73641 0.63439 0.96769 0.0
C2992 C 0.77078 0.60317 0.02616 0.0
C2993 C 0.78436 0.60997 0.03181 0.0
C2994 C 0.7605 0.6116 0.017 0.0
C2995 C 0.76336 0.62713 0.01356 0.0
C2996 C 0.77671 0.63408 0.01956 0.0
C2997 C 0.78719 0.62554 0.02843 0.0
C2998 C 0.73717 0.65881 0.99837 0.0
C2999 C 0.73336 0.65334 0.9836 0.0
C3000 C 0.74685 0.6503 1.00809 0.0
C3001 C 0.75266 0.63595 1.00344 0.0
C3002 C 0.74845 0.63024 0.98888 0.0
C3003 C 0.73907 0.63891 0.979 0.0
H3004 H 0.25408 0.64369 0.46 0.0
H3005 H 0.22825 0.66073 0.49888 0.0
H3006 H 0.27125 0.62987 0.47747 0.0
H3007 H 0.24538 0.64679 0.51636 0.0
H3008 H 0.271 0.606 0.54067 0.0
H3009 H 0.25309 0.61984 0.52389 0.0
H3010 H 0.29134 0.63675 0.49708 0.0
H3011 H 0.30924 0.62303 0.51388 0.0
C3012 C 0.25193 0.64436 0.47227 0.0
C3013 C 0.23973 0.65334 0.478 0.0
C3014 C 0.26188 0.63653 0.4823 0.0
C3015 C 0.25979 0.63729 0.49835 0.0
C3016 C 0.2473 0.64589 0.50407 0.0
C3017 C 0.23748 0.6539 0.49404 0.0
C3018 C 0.27561 0.6128 0.53129 0.0
C3019 C 0.2916 0.6134 0.52868 0.0
C3020 C 0.26533 0.62075 0.52168 0.0
C3021 C 0.27074 0.62933 0.50904 0.0
C3022 C 0.28675 0.6301 0.50657 0.0
C3023 C 0.29703 0.62234 0.51631 0.0
H3024 H 0.76757 0.41335 0.97765 0.0
H3025 H 0.80576 0.39373 1.00265 0.0
H3026 H 0.74954 0.39951 0.99435 0.0
H3027 H 0.78776 0.38007 0.01939 0.0
H3028 H 0.7514 0.37425 0.0575 0.0
H3029 H 0.76844 0.38786 0.03977 0.0
H3030 H 0.74111 0.37221 1.00138 0.0
H3031 H 0.72409 0.3584 0.01914 0.0
C3032 C 0.77213 0.40596 0.98659 0.0
C3033 C 0.78815 0.40466 0.98876 0.0
C3034 C 0.76179 0.39803 0.99616 0.0
C3035 C 0.76719 0.38879 1.00831 0.0
C3036 C 0.7832 0.38724 0.01028 0.0
C3037 C 0.79353 0.39498 1.00057 0.0
C3038 C 0.74889 0.37382 0.0453 0.0
C3039 C 0.73632 0.36521 0.03978 0.0
C3040 C 0.75876 0.38152 0.03511 0.0
C3041 C 0.75624 0.38102 0.01913 0.0
C3042 C 0.74337 0.37287 0.01362 0.0
C3043 C 0.73361 0.36495 0.02381 0.0
H3044 H 0.37555 0.55843 0.24928 0.0
H3045 H 0.35867 0.52002 0.22266 0.0
H3046 H 0.38967 0.54074 0.26589 0.0
H3047 H 0.37289 0.50229 0.23932 0.0
H3048 H 0.41412 0.4779 0.26413 0.0
H3049 H 0.39982 0.49475 0.2467 0.0
H3050 H 0.38327 0.52086 0.28558 0.0
H3051 H 0.3975 0.50402 0.303 0.0
C3052 C 0.37496 0.54622 0.24686 0.0
C3053 C 0.36595 0.54068 0.23459 0.0
C3054 C 0.38296 0.53605 0.25649 0.0
C3055 C 0.38232 0.52006 0.25405 0.0
C3056 C 0.37369 0.51453 0.2415 0.0
C3057 C 0.36552 0.52471 0.23195 0.0
C3058 C 0.40731 0.48714 0.26898 0.0
C3059 C 0.40698 0.48957 0.285 0.0
C3060 C 0.39908 0.49679 0.25897 0.0
C3061 C 0.39048 0.50926 0.2647 0.0
C3062 C 0.38994 0.51151 0.28074 0.0
C3063 C 0.39801 0.50176 0.29075 0.0
H3064 H 0.20991 0.12529 0.50448 0.0
H3065 H 0.24803 0.10736 0.47809 0.0
H3066 H 0.22791 0.13869 0.52137 0.0
H3067 H 0.26607 0.12085 0.49503 0.0
H3068 H 0.29168 0.16091 0.52059 0.0
H3069 H 0.27455 0.14736 0.50281 0.0
H3070 H 0.24731 0.13146 0.5412 0.0
H3071 H 0.26442 0.14493 0.55895 0.0
C3072 C 0.22213 0.12432 0.50216 0.0
C3073 C 0.22748 0.11522 0.48988 0.0
C3074 C 0.23247 0.13191 0.51196 0.0
C3075 C 0.24847 0.13075 0.50968 0.0
C3076 C 0.25383 0.12205 0.4971 0.0
C3077 C 0.24348 0.1143 0.48739 0.0
C3078 C 0.28214 0.15439 0.52526 0.0
C3079 C 0.27947 0.15403 0.54124 0.0
C3080 C 0.27232 0.1466 0.51505 0.0
C3081 C 0.25944 0.13842 0.52053 0.0
C3082 C 0.25697 0.13783 0.53654 0.0
C3083 C 0.26688 0.14545 0.54674 0.0
H3084 H 0.76301 0.37619 0.45926 0.0
H3085 H 0.79054 0.36098 0.49772 0.0
H3086 H 0.74575 0.38962 0.4769 0.0
H3087 H 0.77328 0.37461 0.5154 0.0
H3088 H 0.74595 0.41528 0.53899 0.0
H3089 H 0.76431 0.40178 0.52236 0.0
H3090 H 0.72656 0.38151 0.49725 0.0
H3091 H 0.70824 0.39482 0.5139 0.0
C3092 C 0.76552 0.37587 0.47146 0.0
C3093 C 0.77821 0.36748 0.47703 0.0
C3094 C 0.75552 0.38346 0.4816 0.0
C3095 C 0.75803 0.38309 0.4976 0.0
C3096 C 0.77103 0.37517 0.50315 0.0
C3097 C 0.78092 0.36736 0.49301 0.0
C3098 C 0.74156 0.40779 0.53004 0.0
C3099 C 0.72558 0.40614 0.52783 0.0
C3100 C 0.7521 0.40005 0.52051 0.0
C3101 C 0.74692 0.39068 0.50836 0.0
C3102 C 0.73095 0.3888 0.50635 0.0
C3103 C 0.72044 0.39634 0.51601 0.0
H3104 H 0.41218 0.04482 0.25247 0.0
H3105 H 0.39553 0.01845 0.21379 0.0
H3106 H 0.3979 0.02804 0.27003 0.0
H3107 H 0.38136 1.00167 0.23135 0.0
H3108 H 0.3736 0.96432 0.26804 0.0
H3109 H 0.38781 0.98186 0.25128 0.0
H3110 H 0.37091 0.02057 0.2774 0.0
H3111 H 0.3566 1.00302 0.29415 0.0
C3112 C 0.40535 0.03555 0.24769 0.0
C3113 C 0.40501 0.03304 0.23168 0.0
C3114 C 0.39715 0.02593 0.25777 0.0
C3115 C 0.38858 0.0134 0.25214 0.0
C3116 C 0.38801 0.01107 0.23611 0.0
C3117 C 0.39603 0.0208 0.22603 0.0
C3118 C 0.37303 0.97656 0.27034 0.0
C3119 C 0.36394 0.98222 0.2825 0.0
C3120 C 0.38108 0.98664 0.26062 0.0
C3121 C 0.38042 1.00266 0.26288 0.0
C3122 C 0.37173 1.00831 0.27534 0.0
C3123 C 0.36352 0.99823 0.28495 0.0
H3124 H 0.6069 0.47485 0.75236 0.0
H3125 H 0.62378 0.50196 0.71428 0.0
H3126 H 0.62047 0.49172 0.77036 0.0
H3127 H 0.63729 0.5188 0.73227 0.0
H3128 H 0.64337 0.55595 0.76927 0.0
H3129 H 0.62998 0.53822 0.7521 0.0
H3130 H 0.64702 0.49974 0.77847 0.0
H3131 H 0.66049 0.51751 0.79568 0.0
C3132 C 0.61363 0.4843 0.7478 0.0
C3133 C 0.61423 0.48702 0.73184 0.0
C3134 C 0.62143 0.49396 0.75814 0.0
C3135 C 0.62987 0.50671 0.75279 0.0
C3136 C 0.63072 0.50923 0.73681 0.0
C3137 C 0.62308 0.49947 0.72647 0.0
C3138 C 0.64415 0.54373 0.77153 0.0
C3139 C 0.65302 0.53819 0.7839 0.0
C3140 C 0.63658 0.53354 0.76158 0.0
C3141 C 0.63753 0.51753 0.76379 0.0
C3142 C 0.64599 0.512 0.77645 0.0
C3143 C 0.65372 0.52219 0.78632 0.0
H3144 H 0.46411 0.2667 0.87667 0.0
H3145 H 0.5025 0.29281 0.85891 0.0
H3146 H 0.48192 0.24994 0.89048 0.0
H3147 H 0.52034 0.276 0.87279 0.0
H3148 H 0.5457 0.25054 0.91304 0.0
H3149 H 0.52866 0.26835 0.89936 0.0
H3150 H 0.50127 0.23002 0.88363 0.0
H3151 H 0.51825 0.21227 0.8972 0.0
C3152 C 0.47634 0.26899 0.87583 0.0
C3153 C 0.48183 0.28115 0.86664 0.0
C3154 C 0.48658 0.25927 0.88365 0.0
C3155 C 0.5026 0.2615 0.88265 0.0
C3156 C 0.50809 0.27397 0.87388 0.0
C3157 C 0.49784 0.2836 0.8659 0.0
C3158 C 0.53613 0.2459 0.90653 0.0
C3159 C 0.53339 0.22993 0.90624 0.0
C3160 C 0.52636 0.25612 0.89867 0.0
C3161 C 0.51348 0.25066 0.89049 0.0
C3162 C 0.51093 0.23467 0.88999 0.0
C3163 C 0.52077 0.22446 0.89768 0.0
H3164 H 0.5197 0.23305 0.34545 0.0
H3165 H 0.55374 0.2366 0.38146 0.0
H3166 H 0.50234 0.24968 0.36023 0.0
H3167 H 0.53618 0.25288 0.39639 0.0
H3168 H 0.49274 0.26804 0.42427 0.0
H3169 H 0.50877 0.25023 0.40949 0.0
H3170 H 0.50377 0.27894 0.36932 0.0
H3171 H 0.48803 0.29706 0.38423 0.0
C3172 C 0.52339 0.23717 0.35662 0.0
C3173 C 0.53811 0.23343 0.36229 0.0
C3174 C 0.51348 0.24679 0.36502 0.0
C3175 C 0.5179 0.25262 0.37946 0.0
C3176 C 0.53242 0.24851 0.38534 0.0
C3177 C 0.54248 0.23919 0.37678 0.0
C3178 C 0.49493 0.27052 0.41225 0.0
C3179 C 0.48905 0.284 0.40543 0.0
C3180 C 0.5042 0.26035 0.40382 0.0
C3181 C 0.50756 0.26318 0.38825 0.0
C3182 C 0.50132 0.2764 0.38128 0.0
C3183 C 0.49233 0.28679 0.38982 0.0
H3184 H 0.49856 0.79523 0.35902 0.0
H3185 H 0.4606 0.76627 0.37287 0.0
H3186 H 0.51636 0.77866 0.37328 0.0
H3187 H 0.47838 0.7497 0.38695 0.0
H3188 H 0.51674 0.71396 0.39458 0.0
H3189 H 0.49982 0.73125 0.38023 0.0
H3190 H 0.52248 0.77043 0.40064 0.0
H3191 H 0.53935 0.75314 0.41512 0.0
C3192 C 0.49398 0.78542 0.36521 0.0
C3193 C 0.47811 0.78213 0.3648 0.0
C3194 C 0.50419 0.77593 0.37338 0.0
C3195 C 0.49883 0.76276 0.38115 0.0
C3196 C 0.48294 0.75962 0.38093 0.0
C3197 C 0.47272 0.76922 0.37296 0.0
C3198 C 0.51824 0.72626 0.3959 0.0
C3199 C 0.52943 0.73213 0.40602 0.0
C3200 C 0.50844 0.73618 0.38777 0.0
C3201 C 0.5097 0.75225 0.38937 0.0
C3202 C 0.52123 0.75813 0.39909 0.0
C3203 C 0.53089 0.74821 0.40741 0.0
H3204 H 0.55444 0.75049 0.8746 0.0
H3205 H 0.51584 0.72477 0.85677 0.0
H3206 H 0.53673 0.76749 0.88833 0.0
H3207 H 0.49813 0.74174 0.87062 0.0
H3208 H 0.47327 0.76719 0.91133 0.0
H3209 H 0.49018 0.74933 0.89757 0.0
H3210 H 0.51722 0.78758 0.88109 0.0
H3211 H 0.5003 0.80543 0.89471 0.0
C3212 C 0.54219 0.74832 0.87375 0.0
C3213 C 0.5366 0.73621 0.86456 0.0
C3214 C 0.53202 0.75817 0.88152 0.0
C3215 C 0.51598 0.75608 0.88049 0.0
C3216 C 0.5104 0.74366 0.87172 0.0
C3217 C 0.52057 0.73393 0.86377 0.0
C3218 C 0.48271 0.77181 0.90462 0.0
C3219 C 0.48537 0.78779 0.90413 0.0
C3220 C 0.49241 0.76156 0.89673 0.0
C3221 C 0.50517 0.76699 0.88833 0.0
C3222 C 0.50765 0.78298 0.88762 0.0
C3223 C 0.49784 0.79323 0.89532 0.0
H3224 H 0.66031 1.00394 0.72261 0.0
H3225 H 0.64422 0.96584 0.75014 0.0
H3226 H 0.64704 0.02191 0.73981 0.0
H3227 H 0.63106 0.98376 0.7673 0.0
H3228 H 0.62511 0.02042 0.80462 0.0
H3229 H 0.63856 1.00359 0.78659 0.0
H3230 H 0.62055 0.02986 0.7485 0.0
H3231 H 0.607 0.04672 0.76657 0.0
C3232 C 0.65383 0.99937 0.73222 0.0
C3233 C 0.65335 0.98341 0.73494 0.0
C3234 C 0.64621 0.00969 0.74209 0.0
C3235 C 0.63809 1.00432 0.75506 0.0
C3236 C 0.63739 0.98833 0.75758 0.0
C3237 C 0.64484 0.97803 0.74763 0.0
C3238 C 0.62414 0.02275 0.79242 0.0
C3239 C 0.61494 0.03497 0.78709 0.0
C3240 C 0.63175 0.01299 0.78205 0.0
C3241 C 0.63054 0.01525 0.76606 0.0
C3242 C 0.62179 0.0278 0.76073 0.0
C3243 C 0.61401 0.03747 0.7711 0.0
H3244 H 0.63825 0.4689 0.23739 0.0
H3245 H 0.67846 0.49794 0.24047 0.0
H3246 H 0.62392 0.48712 0.25353 0.0
H3247 H 0.66426 0.51586 0.2569 0.0
H3248 H 0.63752 0.52918 0.30299 0.0
H3249 H 0.65197 0.513 0.28494 0.0
H3250 H 0.61501 0.51663 0.25202 0.0
H3251 H 0.60072 0.53315 0.26984 0.0
C3252 C 0.644 0.4792 0.24141 0.0
C3253 C 0.65948 0.48198 0.23757 0.0
C3254 C 0.63579 0.48964 0.25062 0.0
C3255 C 0.643 0.5029 0.25652 0.0
C3256 C 0.65843 0.50572 0.25259 0.0
C3257 C 0.66652 0.49549 0.24309 0.0
C3258 C 0.63258 0.52672 0.29182 0.0
C3259 C 0.618 0.53254 0.28784 0.0
C3260 C 0.64085 0.51746 0.28148 0.0
C3261 C 0.63458 0.51349 0.26709 0.0
C3262 C 0.62009 0.51942 0.26305 0.0
C3263 C 0.61197 0.52898 0.27323 0.0
H3264 H 0.09901 0.32441 0.06449 0.0
H3265 H 0.08665 0.3661 0.08855 0.0
H3266 H 0.1201 0.3384 0.05149 0.0
H3267 H 0.10725 0.37982 0.07561 0.0
H3268 H 0.1261 0.40436 0.03484 0.0
H3269 H 0.10826 0.3854 0.04521 0.0
H3270 H 0.14634 0.35669 0.0589 0.0
H3271 H 0.16443 0.3758 0.04852 0.0
C3272 C 0.10104 0.33638 0.06732 0.0
C3273 C 0.09107 0.34419 0.07743 0.0
C3274 C 0.11301 0.34439 0.05981 0.0
C3275 C 0.11502 0.36027 0.06228 0.0
C3276 C 0.10574 0.36768 0.07322 0.0
C3277 C 0.09399 0.35976 0.0807 0.0
C3278 C 0.13074 0.39384 0.03966 0.0
C3279 C 0.14672 0.39172 0.04101 0.0
C3280 C 0.1205 0.383 0.04565 0.0
C3281 C 0.12594 0.36972 0.05309 0.0
C3282 C 0.14186 0.36684 0.05323 0.0
C3283 C 0.15218 0.37778 0.04726 0.0
H3284 H 0.93726 0.33778 0.30002 0.0
H3285 H 0.92763 0.35576 0.34521 0.0
H3286 H 0.92317 0.35921 0.2884 0.0
H3287 H 0.91371 0.37741 0.33363 0.0
H3288 H 0.89208 0.41711 0.30656 0.0
H3289 H 0.91401 0.40109 0.31434 0.0
H3290 H 0.8935 0.36213 0.29139 0.0
H3291 H 0.8715 0.37795 0.284 0.0
C3292 C 0.93282 0.34679 0.30741 0.0
C3293 C 0.93377 0.34534 0.32347 0.0
C3294 C 0.92462 0.35895 0.30078 0.0
C3295 C 0.91727 0.36992 0.31011 0.0
C3296 C 0.9194 0.36922 0.32615 0.0
C3297 C 0.92744 0.35691 0.33279 0.0
C3298 C 0.89249 0.40523 0.30283 0.0
C3299 C 0.88008 0.39876 0.29467 0.0
C3300 C 0.90498 0.39606 0.30737 0.0
C3301 C 0.90547 0.38038 0.30347 0.0
C3302 C 0.89354 0.37421 0.29443 0.0
C3303 C 0.88091 0.38326 0.29022 0.0
H3304 H 0.85254 0.1418 0.55083 0.0
H3305 H 0.89101 0.12223 0.52617 0.0
H3306 H 0.86894 0.16297 0.55955 0.0
H3307 H 0.90725 0.14364 0.53456 0.0
H3308 H 0.93174 0.18761 0.54729 0.0
H3309 H 0.91045 0.17426 0.53436 0.0
H3310 H 0.89297 0.15961 0.57847 0.0
H3311 H 0.91452 0.17247 0.59127 0.0
C3312 C 0.86434 0.14229 0.54681 0.0
C3313 C 0.8705 0.13029 0.53784 0.0
C3314 C 0.87373 0.15439 0.55188 0.0
C3315 C 0.88936 0.15494 0.54776 0.0
C3316 C 0.8952 0.14359 0.53781 0.0
C3317 C 0.88591 0.13131 0.53303 0.0
C3318 C 0.92293 0.18214 0.55422 0.0
C3319 C 0.92456 0.18131 0.57028 0.0
C3320 C 0.91087 0.17436 0.54682 0.0
C3321 C 0.90008 0.16588 0.55541 0.0
C3322 C 0.901 0.16619 0.57157 0.0
C3323 C 0.91326 0.17363 0.57891 0.0
H3324 H 0.14851 0.14175 0.78227 0.0
H3325 H 0.12715 0.1028 0.8045 0.0
H3326 H 0.12639 0.15773 0.78906 0.0
H3327 H 0.10517 0.11899 0.81173 0.0
H3328 H 0.09295 0.16488 0.8427 0.0
H3329 H 0.10658 0.14309 0.83113 0.0
H3330 H 0.09599 0.16054 0.78588 0.0
H3331 H 0.08195 0.18207 0.79753 0.0
C3332 C 0.13891 0.13652 0.78826 0.0
C3333 C 0.13956 0.12103 0.79283 0.0
C3334 C 0.12622 0.14565 0.79212 0.0
C3335 C 0.11407 0.1396 0.80094 0.0
C3336 C 0.11436 0.12392 0.8049 0.0
C3337 C 0.1269 0.11466 0.80068 0.0
C3338 C 0.0928 0.16354 0.83031 0.0
C3339 C 0.08612 0.17492 0.82099 0.0
C3340 C 0.10068 0.15115 0.82367 0.0
C3341 C 0.1024 0.15018 0.8076 0.0
C3342 C 0.0948 0.161 0.79828 0.0
C3343 C 0.08662 0.1732 0.80493 0.0
H3344 H 0.09861 0.69199 0.95212 0.0
H3345 H 0.08614 0.65354 0.92327 0.0
H3346 H 0.11982 0.67661 0.96317 0.0
H3347 H 0.10696 0.63842 0.93418 0.0
H3348 H 0.12538 0.60927 0.97229 0.0
H3349 H 0.1078 0.62888 0.9629 0.0
H3350 H 0.14593 0.65966 0.95495 0.0
H3351 H 0.16381 0.63984 0.96438 0.0
C3352 C 0.1007 0.6805 0.9478 0.0
C3353 C 0.09065 0.67392 0.93693 0.0
C3354 C 0.11274 0.67168 0.95418 0.0
C3355 C 0.11477 0.65621 0.94977 0.0
C3356 C 0.10546 0.65018 0.93804 0.0
C3357 C 0.09359 0.6589 0.93172 0.0
C3358 C 0.13008 0.62029 0.96885 0.0
C3359 C 0.14605 0.62288 0.96893 0.0
C3360 C 0.11998 0.63152 0.96341 0.0
C3361 C 0.12553 0.64569 0.95794 0.0
C3362 C 0.14136 0.64882 0.95907 0.0
C3363 C 0.15157 0.63747 0.96449 0.0
H3364 H 0.57405 0.34928 0.2048 0.0
H3365 H 0.61086 0.34015 0.17271 0.0
H3366 H 0.58938 0.37033 0.21616 0.0
H3367 H 0.62597 0.36088 0.18395 0.0
H3368 H 0.65614 0.37473 0.2239 0.0
H3369 H 0.6356 0.35832 0.21428 0.0
H3370 H 0.60687 0.39808 0.20685 0.0
H3371 H 0.62764 0.41478 0.21648 0.0
C3372 C 0.58509 0.35218 0.19978 0.0
C3373 C 0.59132 0.34309 0.18792 0.0
C3374 C 0.59388 0.36411 0.20634 0.0
C3375 C 0.60893 0.36697 0.20107 0.0
C3376 C 0.61448 0.35876 0.18834 0.0
C3377 C 0.60579 0.34696 0.18185 0.0
C3378 C 0.64536 0.38002 0.22057 0.0
C3379 C 0.64362 0.39609 0.22078 0.0
C3380 C 0.6336 0.37061 0.21503 0.0
C3381 C 0.61978 0.37699 0.20962 0.0
C3382 C 0.61745 0.39292 0.21096 0.0
C3383 C 0.62932 0.40243 0.21649 0.0
H3384 H 0.89087 0.90624 0.47681 0.0
H3385 H 0.85258 0.87889 0.46087 0.0
H3386 H 0.90841 0.88524 0.47097 0.0
H3387 H 0.87031 0.85769 0.45485 0.0
H3388 H 0.91381 0.83875 0.42518 0.0
H3389 H 0.89199 0.85387 0.43503 0.0
H3390 H 0.91521 0.85869 0.4787 0.0
H3391 H 0.93689 0.84391 0.46877 0.0
C3392 C 0.88616 0.89561 0.47232 0.0
C3393 C 0.87033 0.89423 0.46936 0.0
C3394 C 0.89622 0.88352 0.469 0.0
C3395 C 0.89077 0.86975 0.46245 0.0
C3396 C 0.87486 0.86817 0.45985 0.0
C3397 C 0.86471 0.88024 0.46342 0.0
C3398 C 0.91389 0.84252 0.43706 0.0
C3399 C 0.92695 0.84012 0.44627 0.0
C3400 C 0.90145 0.85123 0.4427 0.0
C3401 C 0.90199 0.8577 0.45758 0.0
C3402 C 0.91454 0.8541 0.46712 0.0
C3403 C 0.92689 0.84551 0.4615 0.0
H3404 H 0.39227 0.10177 0.71564 0.0
H3405 H 0.37209 0.14071 0.73896 0.0
H3406 H 0.41395 0.11789 0.70748 0.0
H3407 H 0.39383 0.15667 0.7311 0.0
H3408 H 0.43718 0.18146 0.72118 0.0
H3409 H 0.42305 0.16027 0.73323 0.0
H3410 H 0.41383 0.14107 0.68836 0.0
H3411 H 0.42784 0.16243 0.67637 0.0
C3412 C 0.3927 0.11363 0.71945 0.0
C3413 C 0.38046 0.11998 0.72794 0.0
C3414 C 0.40506 0.12287 0.71467 0.0
C3415 C 0.40559 0.13854 0.71862 0.0
C3416 C 0.39385 0.1446 0.728 0.0
C3417 C 0.38137 0.13547 0.73248 0.0
C3418 C 0.43274 0.1723 0.71397 0.0
C3419 C 0.43384 0.17336 0.69789 0.0
C3420 C 0.42451 0.16029 0.72084 0.0
C3421 C 0.41724 0.14907 0.71174 0.0
C3422 C 0.41944 0.14944 0.69569 0.0
C3423 C 0.42754 0.1616 0.68881 0.0
H3424 H 0.05717 0.16534 0.37631 0.0
H3425 H 0.03962 0.12453 0.3986 0.0
H3426 H 0.0654 0.14966 0.35424 0.0
H3427 H 0.04739 0.1091 0.37637 0.0
H3428 H 0.09804 0.0991 0.34747 0.0
H3429 H 0.08699 0.12084 0.36159 0.0
H3430 H 0.043 0.11237 0.34028 0.0
H3431 H 0.05423 0.09091 0.32566 0.0
C3432 C 0.05458 0.15315 0.37627 0.0
C3433 C 0.04777 0.14615 0.3892 0.0
C3434 C 0.05933 0.14421 0.36367 0.0
C3435 C 0.05691 0.12825 0.36364 0.0
C3436 C 0.04921 0.12143 0.37609 0.0
C3437 C 0.0448 0.13026 0.3888 0.0
C3438 C 0.08625 0.10245 0.34515 0.0
C3439 C 0.07706 0.09356 0.33526 0.0
C3440 C 0.07991 0.1148 0.35329 0.0
C3441 C 0.06419 0.11824 0.35195 0.0
C3442 C 0.0552 0.11002 0.34132 0.0
C3443 C 0.06165 0.09787 0.33287 0.0
H3444 H 0.1748 0.31339 0.57457 0.0
H3445 H 0.17877 0.35042 0.60737 0.0
H3446 H 0.15336 0.30247 0.58967 0.0
H3447 H 0.15761 0.33964 0.62227 0.0
H3448 H 0.14505 0.30192 0.65628 0.0
H3449 H 0.16176 0.31156 0.63602 0.0
H3450 H 0.12395 0.31054 0.6039 0.0
H3451 H 0.10687 0.30093 0.62441 0.0
C3452 C 0.17062 0.31956 0.58456 0.0
C3453 C 0.17839 0.33275 0.58982 0.0
C3454 C 0.15847 0.31326 0.59325 0.0
C3455 C 0.15407 0.3201 0.60725 0.0
C3456 C 0.16091 0.33406 0.61162 0.0
C3457 C 0.17293 0.34029 0.60302 0.0
C3458 C 0.14026 0.30346 0.64487 0.0
C3459 C 0.12456 0.3008 0.64204 0.0
C3460 C 0.14985 0.30904 0.63328 0.0
C3461 C 0.14406 0.31202 0.6185 0.0
C3462 C 0.12865 0.30837 0.61524 0.0
C3463 C 0.11893 0.30284 0.62696 0.0
H3464 H 0.92749 0.4312 0.86856 0.0
H3465 H 0.95223 0.41925 0.82715 0.0
H3466 H 0.93986 0.41018 0.88218 0.0
H3467 H 0.9647 0.3978 0.84101 0.0
H3468 H 0.96777 0.3531 0.87743 0.0
H3469 H 0.95743 0.37144 0.85854 0.0
H3470 H 0.96982 0.40903 0.88847 0.0
H3471 H 0.98012 0.39095 0.90719 0.0
C3472 C 0.93533 0.42383 0.86225 0.0
C3473 C 0.93898 0.42698 0.84681 0.0
C3474 C 0.9425 0.41185 0.8701 0.0
C3475 C 0.95351 0.40262 0.86275 0.0
C3476 C 0.95631 0.40485 0.84695 0.0
C3477 C 0.9491 0.41702 0.839 0.0
C3478 C 0.96874 0.36531 0.87973 0.0
C3479 C 0.9746 0.37055 0.89392 0.0
C3480 C 0.96278 0.37577 0.86892 0.0
C3481 C 0.96256 0.3916 0.8722 0.0
C3482 C 0.96962 0.39686 0.88577 0.0
C3483 C 0.97558 0.38648 0.89647 0.0
H3484 H 0.83477 0.22 0.08787 0.0
H3485 H 0.85687 0.17569 0.09014 0.0
H3486 H 0.8562 0.23157 0.10189 0.0
H3487 H 0.8784 0.18719 0.10441 0.0
H3488 H 0.9176 0.21412 0.12698 0.0
H3489 H 0.90039 0.20637 0.106 0.0
H3490 H 0.86232 0.22815 0.12939 0.0
H3491 H 0.87939 0.23577 0.15024 0.0
C3492 C 0.84455 0.21286 0.09088 0.0
C3493 C 0.84431 0.19702 0.08776 0.0
C3494 C 0.85673 0.21944 0.09906 0.0
C3495 C 0.86892 0.21028 0.10447 0.0
C3496 C 0.86925 0.1946 0.10031 0.0
C3497 C 0.85699 0.188 0.09208 0.0
C3498 C 0.90563 0.21759 0.12742 0.0
C3499 C 0.89986 0.22558 0.14028 0.0
C3500 C 0.89575 0.21302 0.11547 0.0
C3501 C 0.87997 0.21658 0.11601 0.0
C3502 C 0.87444 0.22534 0.12848 0.0
C3503 C 0.88422 0.22969 0.14048 0.0
H3504 H 0.03446 0.88999 0.61308 0.0
H3505 H 0.05097 0.85306 0.64196 0.0
H3506 H 0.04459 0.90872 0.63127 0.0
H3507 H 0.06118 0.87203 0.66026 0.0
H3508 H 0.06703 0.91884 0.69185 0.0
H3509 H 0.05435 0.89719 0.67848 0.0
H3510 H 0.07414 0.91236 0.63553 0.0
H3511 H 0.08673 0.93353 0.64863 0.0
C3512 C 0.03987 0.88584 0.62352 0.0
C3513 C 0.04207 0.87001 0.62594 0.0
C3514 C 0.04575 0.89659 0.63391 0.0
C3515 C 0.05395 0.89182 0.64701 0.0
C3516 C 0.05494 0.87601 0.65024 0.0
C3517 C 0.04905 0.86517 0.63976 0.0
C3518 C 0.06896 0.91725 0.67964 0.0
C3519 C 0.07774 0.928 0.67127 0.0
C3520 C 0.06162 0.90496 0.67199 0.0
C3521 C 0.06294 0.90338 0.6559 0.0
C3522 C 0.07258 0.91352 0.64786 0.0
C3523 C 0.07988 0.92561 0.65541 0.0
H3524 H 0.33232 0.2985 0.92763 0.0
H3525 H 0.35573 0.34219 0.92621 0.0
H3526 H 0.35408 0.28626 0.91474 0.0
H3527 H 0.3776 0.33001 0.91303 0.0
H3528 H 0.41722 0.30204 0.89287 0.0
H3529 H 0.39908 0.31038 0.9128 0.0
H3530 H 0.36189 0.28898 0.88772 0.0
H3531 H 0.3799 0.28075 0.8679 0.0
C3532 C 0.34241 0.30536 0.925 0.0
C3533 C 0.34248 0.32122 0.92804 0.0
C3534 C 0.35479 0.2984 0.91747 0.0
C3535 C 0.3675 0.30718 0.91265 0.0
C3536 C 0.36805 0.32289 0.91669 0.0
C3537 C 0.35558 0.32988 0.92428 0.0
C3538 C 0.40523 0.29875 0.89185 0.0
C3539 C 0.4 0.29071 0.8788 0.0
C3540 C 0.39483 0.30368 0.90319 0.0
C3541 C 0.37902 0.30043 0.90184 0.0
C3542 C 0.374 0.29157 0.88924 0.0
C3543 C 0.38433 0.28685 0.87784 0.0
H3544 H 0.96707 0.66525 0.13912 0.0
H3545 H 0.98451 0.62814 0.11107 0.0
H3546 H 0.95909 0.64662 0.15876 0.0
H3547 H 0.97654 0.60967 0.13048 0.0
H3548 H 0.96867 0.5786 0.16929 0.0
H3549 H 0.98084 0.60025 0.15628 0.0
H3550 H 0.93871 0.62631 0.16048 0.0
H3551 H 0.92665 0.60454 0.17399 0.0
C3552 C 0.96958 0.65317 0.13733 0.0
C3553 C 0.97647 0.64818 0.12353 0.0
C3554 C 0.96484 0.6425 0.1485 0.0
C3555 C 0.9671 0.62663 0.14621 0.0
C3556 C 0.97476 0.62179 0.13277 0.0
C3557 C 0.97933 0.6324 0.12158 0.0
C3558 C 0.96217 0.58915 0.16785 0.0
C3559 C 0.94676 0.58996 0.17265 0.0
C3560 C 0.96909 0.6015 0.16027 0.0
C3561 C 0.96069 0.61493 0.15706 0.0
C3562 C 0.94555 0.61617 0.16284 0.0
C3563 C 0.93862 0.60374 0.17059 0.0
H3564 H 0.68296 0.21947 0.43062 0.0
H3565 H 0.66251 0.17453 0.42619 0.0
H3566 H 0.66143 0.2308 0.41654 0.0
H3567 H 0.64085 0.18581 0.41196 0.0
H3568 H 0.60101 0.21233 0.39001 0.0
H3569 H 0.61821 0.20449 0.41096 0.0
H3570 H 0.65591 0.22791 0.3886 0.0
H3571 H 0.63886 0.23558 0.36771 0.0
C3572 C 0.67349 0.21212 0.42716 0.0
C3573 C 0.67423 0.19619 0.42969 0.0
C3574 C 0.66126 0.21857 0.41894 0.0
C3575 C 0.64951 0.2092 0.41295 0.0
C3576 C 0.64965 0.19337 0.41652 0.0
C3577 C 0.66198 0.1869 0.42474 0.0
C3578 C 0.61289 0.21613 0.38978 0.0
C3579 C 0.61857 0.2246 0.37719 0.0
C3580 C 0.62275 0.21152 0.40172 0.0
C3581 C 0.63844 0.21553 0.40145 0.0
C3582 C 0.64387 0.22475 0.38928 0.0
C3583 C 0.63409 0.22913 0.37726 0.0
H3584 H 0.36923 0.08959 0.08529 0.0
H3585 H 0.32846 0.06621 0.10148 0.0
H3586 H 0.38396 0.07892 0.10648 0.0
H3587 H 0.34347 0.05542 0.12308 0.0
H3588 H 0.3809 0.05464 0.16615 0.0
H3589 H 0.3616 0.06394 0.14767 0.0
H3590 H 0.39103 0.05006 0.11017 0.0
H3591 H 0.41017 0.04083 0.12838 0.0
C3592 C 0.36333 0.08237 0.09358 0.0
C3593 C 0.34772 0.07861 0.09161 0.0
C3594 C 0.37181 0.07618 0.10567 0.0
C3595 C 0.36496 0.06604 0.11619 0.0
C3596 C 0.34904 0.06314 0.11504 0.0
C3597 C 0.34045 0.06938 0.10277 0.0
C3598 C 0.38305 0.05321 0.15395 0.0
C3599 C 0.39718 0.04716 0.14874 0.0
C3600 C 0.372 0.05855 0.14341 0.0
C3601 C 0.37496 0.05799 0.12752 0.0
C3602 C 0.38856 0.05089 0.12237 0.0
C3603 C 0.39951 0.04554 0.13283 0.0
H3604 H 0.89397 0.98989 0.38882 0.0
H3605 H 0.87585 0.96447 0.35017 0.0
H3606 H 0.87236 0.98119 0.40463 0.0
H3607 H 0.85447 0.9554 0.36617 0.0
H3608 H 0.84436 0.92422 0.41219 0.0
H3609 H 0.85754 0.93683 0.39068 0.0
H3610 H 0.8417 0.98098 0.40691 0.0
H3611 H 0.82812 0.96826 0.42815 0.0
C3612 C 0.88515 0.98279 0.38358 0.0
C3613 C 0.88662 0.97788 0.36825 0.0
C3614 C 0.87276 0.97783 0.39263 0.0
C3615 C 0.86177 0.96757 0.38663 0.0
C3616 C 0.86277 0.96331 0.37107 0.0
C3617 C 0.87497 0.96858 0.3619 0.0
C3618 C 0.84302 0.93652 0.41064 0.0
C3619 C 0.83495 0.94525 0.42156 0.0
C3620 C 0.85064 0.94376 0.39841 0.0
C3621 C 0.85068 0.9599 0.39717 0.0
C3622 C 0.84181 0.96854 0.40758 0.0
C3623 C 0.83391 0.96125 0.4196 0.0
H3624 H 0.33954 0.11776 0.6809 0.0
H3625 H 0.31174 0.07715 0.67392 0.0
H3626 H 0.32592 0.13075 0.66023 0.0
H3627 H 0.29809 0.09036 0.65276 0.0
H3628 H 0.29586 0.12667 0.60604 0.0
H3629 H 0.30642 0.10762 0.62406 0.0
H3630 H 0.29411 0.13691 0.66214 0.0
H3631 H 0.2835 0.15581 0.64438 0.0
C3632 C 0.33075 0.11145 0.67468 0.0
C3633 C 0.32663 0.09646 0.67916 0.0
C3634 C 0.32291 0.11895 0.66289 0.0
C3635 C 0.31079 0.11166 0.65514 0.0
C3636 C 0.30738 0.09622 0.65866 0.0
C3637 C 0.31526 0.08865 0.67065 0.0
C3638 C 0.29488 0.12878 0.61828 0.0
C3639 C 0.28899 0.14288 0.62375 0.0
C3640 C 0.30097 0.11787 0.62857 0.0
C3641 C 0.30124 0.12093 0.64443 0.0
C3642 C 0.29413 0.13436 0.64994 0.0
C3643 C 0.28802 0.14516 0.63974 0.0
H3644 H 0.14079 0.55447 0.85098 0.0
H3645 H 0.11947 0.53132 0.88942 0.0
H3646 H 0.16206 0.56257 0.86766 0.0
H3647 H 0.14078 0.53914 0.90595 0.0
H3648 H 0.18377 0.54867 0.93174 0.0
H3649 H 0.16964 0.53678 0.91048 0.0
H3650 H 0.16199 0.58164 0.89061 0.0
H3651 H 0.17604 0.59348 0.91205 0.0
C3652 C 0.14088 0.5507 0.86286 0.0
C3653 C 0.12844 0.54225 0.86889 0.0
C3654 C 0.153 0.55545 0.87243 0.0
C3655 C 0.15309 0.55154 0.88812 0.0
C3656 C 0.14114 0.54223 0.89388 0.0
C3657 C 0.1289 0.53776 0.88441 0.0
C3658 C 0.17967 0.55589 0.92244 0.0
C3659 C 0.18126 0.57194 0.92332 0.0
C3660 C 0.17142 0.54912 0.91038 0.0
C3661 C 0.1646 0.55827 0.89892 0.0
C3662 C 0.16724 0.57426 0.89917 0.0
C3663 C 0.17536 0.58106 0.91137 0.0
H3664 H 0.18322 0.9001 0.18028 0.0
H3665 H 0.20101 0.94337 0.16348 0.0
H3666 H 0.19541 0.88671 0.15908 0.0
H3667 H 0.21328 0.92967 0.14178 0.0
H3668 H 0.21541 0.89168 0.09868 0.0
H3669 H 0.20571 0.91041 0.1175 0.0
H3670 H 0.22497 0.88323 0.15429 0.0
H3671 H 0.23457 0.86462 0.1357 0.0
C3672 C 0.18958 0.90682 0.17191 0.0
C3673 C 0.19131 0.9228 0.17371 0.0
C3674 C 0.19664 0.8991 0.15979 0.0
C3675 C 0.20562 0.90709 0.14902 0.0
C3676 C 0.20652 0.92323 0.15005 0.0
C3677 C 0.19944 0.93106 0.16237 0.0
C3678 C 0.21802 0.88999 0.11074 0.0
C3679 C 0.22558 0.87653 0.11571 0.0
C3680 C 0.21243 0.90071 0.1215 0.0
C3681 C 0.21432 0.89809 0.13734 0.0
C3682 C 0.22312 0.88539 0.14214 0.0
C3683 C 0.22868 0.87476 0.13147 0.0
H3684 H 0.61075 0.97557 0.12798 0.0
H3685 H 0.63971 0.96164 0.16591 0.0
H3686 H 0.62983 0.96599 0.10988 0.0
H3687 H 0.65895 0.95198 0.14756 0.0
H3688 H 0.69251 0.94852 0.10209 0.0
H3689 H 0.67737 0.95973 0.12339 0.0
H3690 H 0.63659 0.93737 0.10597 0.0
H3691 H 0.65143 0.92629 0.08509 0.0
C3692 C 0.62132 0.97075 0.13249 0.0
C3693 C 0.62358 0.96921 0.14842 0.0
C3694 C 0.63224 0.96519 0.12209 0.0
C3695 C 0.64574 0.95796 0.12732 0.0
C3696 C 0.64863 0.95746 0.14322 0.0
C3697 C 0.63761 0.96301 0.1537 0.0
C3698 C 0.6804 0.94571 0.10312 0.0
C3699 C 0.67312 0.93667 0.09182 0.0
C3700 C 0.67174 0.9522 0.11522 0.0
C3701 C 0.65572 0.94974 0.11607 0.0
C3702 C 0.64881 0.9398 0.10539 0.0
C3703 C 0.65737 0.93337 0.09347 0.0
H3704 H 0.2839 0.36628 0.87913 0.0
H3705 H 0.30871 0.38703 0.91685 0.0
H3706 H 0.29094 0.38793 0.86261 0.0
H3707 H 0.31611 0.40852 0.90013 0.0
H3708 H 0.34479 0.4218 0.85344 0.0
H3709 H 0.33416 0.40756 0.87535 0.0
H3710 H 0.28817 0.418 0.85981 0.0
H3711 H 0.29887 0.43257 0.83814 0.0
C3712 C 0.2906 0.37562 0.88398 0.0
C3713 C 0.29573 0.37494 0.89929 0.0
C3714 C 0.29459 0.38804 0.87453 0.0
C3715 C 0.30409 0.39992 0.88009 0.0
C3716 C 0.30877 0.39954 0.89556 0.0
C3717 C 0.30446 0.38727 0.90513 0.0
C3718 C 0.33244 0.42174 0.85522 0.0
C3719 C 0.32264 0.42859 0.84436 0.0
C3720 C 0.32634 0.4135 0.86768 0.0
C3721 C 0.31033 0.4116 0.86922 0.0
C3722 C 0.30054 0.41928 0.85889 0.0
C3723 C 0.30665 0.42778 0.84663 0.0
H3724 H 0.72603 0.16 0.37605 0.0
H3725 H 0.71493 0.13002 0.41413 0.0
H3726 H 0.71681 0.14064 0.35809 0.0
H3727 H 0.70561 0.11048 0.3959 0.0
H3728 H 0.7026 0.07735 0.34997 0.0
H3729 H 0.71354 0.09276 0.37121 0.0
H3730 H 0.68842 0.13243 0.35509 0.0
H3731 H 0.67763 0.11731 0.33425 0.0
C3732 C 0.72191 0.14915 0.38061 0.0
C3733 C 0.72106 0.14667 0.39656 0.0
C3734 C 0.71655 0.13807 0.37029 0.0
C3735 C 0.7102 0.12418 0.37561 0.0
C3736 C 0.71041 0.12111 0.39149 0.0
C3737 C 0.71577 0.13229 0.4019 0.0
C3738 C 0.69912 0.08924 0.3513 0.0
C3739 C 0.68939 0.09617 0.34036 0.0
C3740 C 0.70544 0.09807 0.36336 0.0
C3741 C 0.70213 0.11389 0.36453 0.0
C3742 C 0.6915 0.12038 0.35426 0.0
C3743 C 0.68523 0.11166 0.34237 0.0
H3744 H 0.12723 0.90456 0.53711 0.0
H3745 H 0.16579 0.87623 0.55057 0.0
H3746 H 0.10955 0.88549 0.5475 0.0
H3747 H 0.14785 0.85697 0.56099 0.0
H3748 H 0.10058 0.82437 0.56604 0.0
H3749 H 0.1218 0.83855 0.55347 0.0
H3750 H 0.10843 0.87971 0.57776 0.0
H3751 H 0.08766 0.86578 0.59024 0.0
C3752 C 0.13195 0.89407 0.5419 0.0
C3753 C 0.14795 0.89204 0.54316 0.0
C3754 C 0.1218 0.88317 0.54791 0.0
C3755 C 0.12735 0.8699 0.55529 0.0
C3756 C 0.14329 0.86712 0.55538 0.0
C3757 C 0.15353 0.87813 0.54937 0.0
C3758 C 0.10254 0.83631 0.56902 0.0
C3759 C 0.09238 0.844 0.57902 0.0
C3760 C 0.11458 0.84443 0.56176 0.0
C3761 C 0.11648 0.8603 0.56439 0.0
C3762 C 0.10703 0.86757 0.57527 0.0
C3763 C 0.09518 0.85955 0.58249 0.0
H3764 H 0.93981 0.85284 0.81747 0.0
H3765 H 0.89849 0.83495 0.83856 0.0
H3766 H 0.92453 0.87375 0.80578 0.0
H3767 H 0.88351 0.85542 0.82697 0.0
H3768 H 0.8581 0.87742 0.78858 0.0
H3769 H 0.87733 0.8595 0.79823 0.0
H3770 H 0.90557 0.89745 0.81328 0.0
H3771 H 0.88622 0.91559 0.80355 0.0
C3772 C 0.92761 0.85357 0.8199 0.0
C3773 C 0.92033 0.84214 0.82879 0.0
C3774 C 0.91886 0.86545 0.81314 0.0
C3775 C 0.90277 0.86594 0.81514 0.0
C3776 C 0.89581 0.85511 0.82488 0.0
C3777 C 0.90444 0.84342 0.8316 0.0
C3778 C 0.86853 0.88202 0.79362 0.0
C3779 C 0.87049 0.89796 0.79545 0.0
C3780 C 0.87953 0.87173 0.79922 0.0
C3781 C 0.89281 0.87708 0.80678 0.0
C3782 C 0.89543 0.89301 0.80754 0.0
C3783 C 0.88434 0.90338 0.80195 0.0
H3784 H 0.85259 0.64122 0.05155 0.0
H3785 H 0.89215 0.61177 0.04509 0.0
H3786 H 0.86965 0.66184 0.06088 0.0
H3787 H 0.90889 0.63216 0.05444 0.0
H3788 H 0.92742 0.65758 0.09536 0.0
H3789 H 0.90626 0.64272 0.08458 0.0
H3790 H 0.89799 0.6784 0.0511 0.0
H3791 H 0.91946 0.69348 0.06201 0.0
C3792 C 0.86491 0.63929 0.0517 0.0
C3793 C 0.871 0.62478 0.04775 0.0
C3794 C 0.87462 0.65107 0.05707 0.0
C3795 C 0.8905 0.64845 0.05858 0.0
C3796 C 0.89664 0.63438 0.05355 0.0
C3797 C 0.88703 0.62272 0.04816 0.0
C3798 C 0.92075 0.66254 0.08606 0.0
C3799 C 0.92507 0.67666 0.07951 0.0
C3800 C 0.90871 0.65399 0.07984 0.0
C3801 C 0.90071 0.65932 0.06688 0.0
C3802 C 0.90402 0.67408 0.06111 0.0
C3803 C 0.91619 0.68273 0.06742 0.0
H3804 H 0.07663 0.66835 0.3135 0.0
H3805 H 0.11495 0.67778 0.34368 0.0
H3806 H 0.09132 0.64699 0.30182 0.0
H3807 H 0.12941 0.65682 0.33208 0.0
H3808 H 0.15766 0.6411 0.29132 0.0
H3809 H 0.13783 0.6582 0.30124 0.0
H3810 H 0.1088 0.61926 0.31137 0.0
H3811 H 0.12885 0.60186 0.30148 0.0
C3812 C 0.0879 0.66551 0.31801 0.0
C3813 C 0.0947 0.67476 0.32943 0.0
C3814 C 0.09632 0.6534 0.31126 0.0
C3815 C 0.11158 0.65051 0.31589 0.0
C3816 C 0.11776 0.65896 0.32816 0.0
C3817 C 0.10944 0.6709 0.33485 0.0
C3818 C 0.14695 0.63612 0.29531 0.0
C3819 C 0.14495 0.62008 0.29576 0.0
C3820 C 0.1356 0.64594 0.30102 0.0
C3821 C 0.1219 0.64002 0.30723 0.0
C3822 C 0.11928 0.62408 0.30662 0.0
C3823 C 0.13075 0.61417 0.30094 0.0
H3824 H 0.12707 0.12072 0.49114 0.0
H3825 H 0.16547 0.1409 0.46688 0.0
H3826 H 0.11045 0.1416 0.48215 0.0
H3827 H 0.14869 0.1615 0.45752 0.0
H3828 H 0.10309 0.16914 0.42501 0.0
H3829 H 0.12462 0.15669 0.43825 0.0
H3830 H 0.107 0.17265 0.48185 0.0
H3831 H 0.08575 0.18562 0.46846 0.0
C3832 C 0.13206 0.12983 0.48425 0.0
C3833 C 0.14759 0.12914 0.47974 0.0
C3834 C 0.12255 0.1418 0.47912 0.0
C3835 C 0.12829 0.15313 0.46909 0.0
C3836 C 0.144 0.15292 0.46525 0.0
C3837 C 0.1536 0.14116 0.4707 0.0
C3838 C 0.10429 0.17064 0.43733 0.0
C3839 C 0.093 0.17861 0.44569 0.0
C3840 C 0.11654 0.16345 0.44493 0.0
C3841 C 0.11744 0.16367 0.46109 0.0
C3842 C 0.1066 0.17235 0.46939 0.0
C3843 C 0.09457 0.1799 0.46173 0.0
H3844 H 0.62518 0.91992 0.71501 0.0
H3845 H 0.64986 0.88295 0.73717 0.0
H3846 H 0.60506 0.90179 0.70717 0.0
H3847 H 0.6299 0.86493 0.72938 0.0
H3848 H 0.59003 0.83527 0.72039 0.0
H3849 H 0.60309 0.85714 0.73221 0.0
H3850 H 0.60423 0.88012 0.68815 0.0
H3851 H 0.59082 0.85817 0.67642 0.0
C3852 C 0.62611 0.90802 0.71858 0.0
C3853 C 0.63914 0.90288 0.72673 0.0
C3854 C 0.61466 0.89761 0.71394 0.0
C3855 C 0.61587 0.88188 0.71756 0.0
C3856 C 0.62846 0.87697 0.72651 0.0
C3857 C 0.63996 0.88731 0.73097 0.0
C3858 C 0.59256 0.84527 0.71337 0.0
C3859 C 0.58929 0.84516 0.69756 0.0
C3860 C 0.6002 0.85772 0.72009 0.0
C3861 C 0.60493 0.8703 0.7111 0.0
C3862 C 0.60065 0.87068 0.69544 0.0
C3863 C 0.59292 0.85816 0.68871 0.0
H3864 H 0.91964 0.32234 0.95668 0.0
H3865 H 0.92672 0.3614 0.92681 0.0
H3866 H 0.89831 0.33615 0.96944 0.0
H3867 H 0.90576 0.37499 0.93948 0.0
H3868 H 0.89185 0.40143 0.98247 0.0
H3869 H 0.90872 0.38157 0.97214 0.0
H3870 H 0.86927 0.35437 0.9593 0.0
H3871 H 0.85214 0.3744 0.9696 0.0
C3872 C 0.91627 0.33357 0.95246 0.0
C3873 C 0.92486 0.34084 0.9408 0.0
C3874 C 0.90418 0.34149 0.95982 0.0
C3875 C 0.90063 0.35669 0.95555 0.0
C3876 C 0.9084 0.36335 0.94307 0.0
C3877 C 0.92034 0.35552 0.93578 0.0
C3878 C 0.8867 0.39105 0.97787 0.0
C3879 C 0.87063 0.38961 0.97671 0.0
C3880 C 0.89638 0.37969 0.97195 0.0
C3881 C 0.89025 0.36656 0.96482 0.0
C3882 C 0.87424 0.36438 0.9648 0.0
C3883 C 0.86447 0.37584 0.97073 0.0
H3884 H 0.4271 0.663 0.17486 0.0
H3885 H 0.43186 0.68499 0.21904 0.0
H3886 H 0.41326 0.64159 0.18704 0.0
H3887 H 0.41811 0.66371 0.23127 0.0
H3888 H 0.36919 0.64079 0.23664 0.0
H3889 H 0.39006 0.65778 0.22869 0.0
H3890 H 0.41292 0.61962 0.20658 0.0
H3891 H 0.39205 0.60251 0.21471 0.0
C3892 C 0.4258 0.66287 0.18726 0.0
C3893 C 0.43074 0.67545 0.19608 0.0
C3894 C 0.41781 0.65068 0.19425 0.0
C3895 C 0.41445 0.65104 0.21012 0.0
C3896 C 0.42039 0.66316 0.21903 0.0
C3897 C 0.42841 0.67524 0.21206 0.0
C3898 C 0.37887 0.63592 0.23046 0.0
C3899 C 0.37894 0.6203 0.22632 0.0
C3900 C 0.39086 0.64566 0.22591 0.0
C3901 C 0.40313 0.64006 0.21691 0.0
C3902 C 0.40359 0.62428 0.21341 0.0
C3903 C 0.39169 0.61447 0.2182 0.0
H3904 H 0.08677 0.58765 0.86787 0.0
H3905 H 0.0646 0.59923 0.82491 0.0
H3906 H 0.07366 0.60882 0.8805 0.0
H3907 H 0.05145 0.62091 0.8378 0.0
H3908 H 0.04884 0.66628 0.87451 0.0
H3909 H 0.05924 0.64758 0.85602 0.0
H3910 H 0.0427 0.61045 0.88447 0.0
H3911 H 0.03231 0.6289 0.90281 0.0
C3912 C 0.0793 0.59491 0.86102 0.0
C3913 C 0.0766 0.59162 0.84541 0.0
C3914 C 0.07173 0.60701 0.86831 0.0
C3915 C 0.06129 0.61626 0.86021 0.0
C3916 C 0.05939 0.61384 0.8443 0.0
C3917 C 0.06698 0.60153 0.83693 0.0
C3918 C 0.04693 0.65413 0.87652 0.0
C3919 C 0.03991 0.64908 0.89026 0.0
C3920 C 0.05292 0.64345 0.86594 0.0
C3921 C 0.05199 0.62761 0.86898 0.0
C3922 C 0.04373 0.62262 0.88196 0.0
C3923 C 0.03774 0.63321 0.89245 0.0
H3924 H 0.18125 0.83711 0.11457 0.0
H3925 H 0.16661 0.81408 0.07303 0.0
H3926 H 0.16113 0.82421 0.129 0.0
H3927 H 0.146 0.80111 0.08775 0.0
H3928 H 0.10318 0.79803 0.12645 0.0
H3929 H 0.12083 0.80829 0.10687 0.0
H3930 H 0.15955 0.79419 0.13452 0.0
H3931 H 0.14214 0.78395 0.15394 0.0
C3932 C 0.17353 0.82947 0.10843 0.0
C3933 C 0.17566 0.82649 0.09267 0.0
C3934 C 0.16205 0.82201 0.11675 0.0
C3935 C 0.15226 0.81138 0.10958 0.0
C3936 C 0.15351 0.80918 0.09357 0.0
C3937 C 0.1652 0.81667 0.08514 0.0
C3938 C 0.11546 0.79666 0.1281 0.0
C3939 C 0.12125 0.79033 0.14188 0.0
C3940 C 0.12554 0.80257 0.11689 0.0
C3941 C 0.14152 0.80228 0.11933 0.0
C3942 C 0.14726 0.79476 0.13245 0.0
C3943 C 0.13726 0.78883 0.14356 0.0
H3944 H 0.97803 0.89212 0.4093 0.0
H3945 H 0.96645 0.85423 0.37926 0.0
H3946 H 0.96803 0.91017 0.39039 0.0
H3947 H 0.95646 0.87257 0.36015 0.0
H3948 H 0.95316 0.92109 0.32887 0.0
H3949 H 0.96509 0.89952 0.34302 0.0
H3950 H 0.93784 0.91085 0.38295 0.0
H3951 H 0.92596 0.93196 0.36903 0.0
C3952 C 0.9737 0.88763 0.39851 0.0
C3953 C 0.97288 0.8717 0.3959 0.0
C3954 C 0.96793 0.89799 0.38769 0.0
C3955 C 0.96127 0.89274 0.37392 0.0
C3956 C 0.96153 0.8769 0.37068 0.0
C3957 C 0.96727 0.86644 0.38162 0.0
C3958 C 0.94941 0.91861 0.34049 0.0
C3959 C 0.93875 0.92832 0.34789 0.0
C3960 C 0.95629 0.90637 0.3486 0.0
C3961 C 0.9526 0.90378 0.36417 0.0
C3962 C 0.94111 0.91277 0.37106 0.0
C3963 C 0.93426 0.92483 0.36304 0.0
H3964 H 0.83433 0.71829 0.59259 0.0
H3965 H 0.85562 0.67353 0.59347 0.0
H3966 H 0.85598 0.72905 0.60686 0.0
H3967 H 0.87737 0.68422 0.60807 0.0
H3968 H 0.91725 0.71037 0.63094 0.0
H3969 H 0.89968 0.70287 0.61016 0.0
H3970 H 0.86216 0.72495 0.63414 0.0
H3971 H 0.87958 0.73235 0.65477 0.0
C3972 C 0.84396 0.71088 0.5954 0.0
C3973 C 0.84343 0.69514 0.59181 0.0
C3974 C 0.85627 0.71699 0.60372 0.0
C3975 C 0.86829 0.70746 0.60884 0.0
C3976 C 0.86834 0.6919 0.60422 0.0
C3977 C 0.85595 0.68577 0.5958 0.0
C3978 C 0.90531 0.71391 0.63159 0.0
C3979 C 0.89981 0.72198 0.64452 0.0
C3980 C 0.89524 0.70949 0.61974 0.0
C3981 C 0.87951 0.71329 0.62047 0.0
C3982 C 0.87422 0.72199 0.63308 0.0
C3983 C 0.88421 0.7262 0.64496 0.0
H3984 H 0.04907 0.35088 0.14298 0.0
H3985 H 0.03553 0.38979 0.11516 0.0
H3986 H 0.05926 0.36856 0.16258 0.0
H3987 H 0.04575 0.4072 0.13458 0.0
H3988 H 0.08995 0.42734 0.15445 0.0
H3989 H 0.07735 0.40649 0.14071 0.0
H3990 H 0.05011 0.39611 0.18088 0.0
H3991 H 0.06275 0.41742 0.19485 0.0
C3992 C 0.04779 0.36315 0.14126 0.0
C3993 C 0.04164 0.36891 0.12739 0.0
C3994 C 0.05365 0.37324 0.15248 0.0
C3995 C 0.05345 0.3892 0.14996 0.0
C3996 C 0.04615 0.39493 0.13673 0.0
C3997 C 0.04027 0.38493 0.12561 0.0
C3998 C 0.08153 0.42042 0.16054 0.0
C3999 C 0.07726 0.42411 0.1757 0.0
C4000 C 0.07428 0.40853 0.15263 0.0
C4001 C 0.06258 0.39992 0.15965 0.0
C4002 C 0.05908 0.40267 0.17523 0.0
C4003 C 0.06638 0.41475 0.18323 0.0
H4004 H 0.33937 0.83939 0.40276 0.0
H4005 H 0.34917 0.81309 0.44376 0.0
H4006 H 0.35986 0.82608 0.38916 0.0
H4007 H 0.37014 0.79974 0.42994 0.0
H4008 H 0.41526 0.79751 0.3921 0.0
H4009 H 0.39761 0.80795 0.41156 0.0
H4010 H 0.35892 0.79458 0.38353 0.0
H4011 H 0.37632 0.78409 0.36422 0.0
C4012 C 0.34618 0.83101 0.409 0.0
C4013 C 0.34256 0.82721 0.4243 0.0
C4014 C 0.35786 0.82333 0.40116 0.0
C4015 C 0.36633 0.81168 0.40841 0.0
C4016 C 0.36367 0.80865 0.4241 0.0
C4017 C 0.35179 0.81636 0.43202 0.0
C4018 C 0.40298 0.79629 0.39035 0.0
C4019 C 0.39722 0.79013 0.37648 0.0
C4020 C 0.3929 0.8023 0.40149 0.0
C4021 C 0.37695 0.80225 0.3989 0.0
C4022 C 0.37119 0.79487 0.38572 0.0
C4023 C 0.38119 0.78883 0.37468 0.0
H4024 H 0.96862 0.12332 0.61111 0.0
H4025 H 0.96702 0.16327 0.64068 0.0
H4026 H 0.95907 0.10742 0.63205 0.0
H4027 H 0.9575 0.14703 0.66188 0.0
H4028 H 0.95587 0.09686 0.69333 0.0
H4029 H 0.96668 0.11794 0.67768 0.0
H4030 H 0.92992 0.11216 0.64483 0.0
H4031 H 0.91924 0.09134 0.66028 0.0
C4032 C 0.96655 0.12869 0.62217 0.0
C4033 C 0.96843 0.14462 0.62414 0.0
C4034 C 0.96104 0.11956 0.63415 0.0
C4035 C 0.95735 0.12607 0.64847 0.0
C4036 C 0.96025 0.14178 0.65092 0.0
C4037 C 0.96572 0.15102 0.6388 0.0
C4038 C 0.94974 0.10065 0.68316 0.0
C4039 C 0.93671 0.09255 0.678 0.0
C4040 C 0.95598 0.11259 0.67416 0.0
C4041 C 0.94922 0.11645 0.65997 0.0
C4042 C 0.9354 0.1093 0.65566 0.0
C4043 C 0.92923 0.09747 0.66456 0.0
H4044 H 0.60138 0.71195 0.88963 0.0
H4045 H 0.63973 0.72926 0.86315 0.0
H4046 H 0.61898 0.70539 0.91072 0.0
H4047 H 0.65716 0.72271 0.88399 0.0
H4048 H 0.68567 0.71882 0.92522 0.0
H4049 H 0.66438 0.72916 0.91018 0.0
H4050 H 0.64008 0.68606 0.91502 0.0
H4051 H 0.66145 0.67586 0.93052 0.0
C4052 C 0.6135 0.71464 0.88842 0.0
C4053 C 0.61915 0.72116 0.8747 0.0
C4054 C 0.62359 0.71075 0.90045 0.0
C4055 C 0.63949 0.71352 0.89909 0.0
C4056 C 0.64497 0.7206 0.88558 0.0
C4057 C 0.63497 0.72432 0.87356 0.0
C4058 C 0.67553 0.71175 0.92352 0.0
C4059 C 0.67513 0.6966 0.92908 0.0
C4060 C 0.6634 0.71761 0.91476 0.0
C4061 C 0.65065 0.70835 0.91111 0.0
C4062 C 0.6497 0.69353 0.91767 0.0
C4063 C 0.66189 0.68768 0.92659 0.0
H4064 H 0.36951 0.58912 0.58689 0.0
H4065 H 0.32736 0.56501 0.59756 0.0
H4066 H 0.38242 0.57617 0.60801 0.0
H4067 H 0.3405 0.552 0.61914 0.0
H4068 H 0.37632 0.54835 0.66465 0.0
H4069 H 0.35792 0.55916 0.6461 0.0
H4070 H 0.38777 0.54565 0.60882 0.0
H4071 H 0.40601 0.53484 0.62711 0.0
C4072 C 0.36288 0.5813 0.594 0.0
C4073 C 0.34744 0.57799 0.59045 0.0
C4074 C 0.37033 0.57381 0.60604 0.0
C4075 C 0.36256 0.56283 0.61496 0.0
C4076 C 0.34675 0.56036 0.61234 0.0
C4077 C 0.33923 0.56788 0.60009 0.0
C4078 C 0.3787 0.54722 0.65247 0.0
C4079 C 0.39275 0.54089 0.64738 0.0
C4080 C 0.36817 0.55345 0.64188 0.0
C4081 C 0.37158 0.55348 0.62608 0.0
C4082 C 0.38497 0.54597 0.62097 0.0
C4083 C 0.39539 0.53972 0.63147 0.0
H4084 H 0.82535 0.45621 0.92251 0.0
H4085 H 0.86514 0.42735 0.92978 0.0
H4086 H 0.83904 0.46939 0.90135 0.0
H4087 H 0.87863 0.4405 0.9091 0.0
H4088 H 0.90481 0.48256 0.89358 0.0
H4089 H 0.88558 0.47214 0.91112 0.0
H4090 H 0.85635 0.46064 0.87273 0.0
H4091 H 0.87575 0.47099 0.85492 0.0
C4092 C 0.83675 0.45235 0.91929 0.0
C4093 C 0.84421 0.44081 0.92788 0.0
C4094 C 0.84461 0.45996 0.90729 0.0
C4095 C 0.85997 0.45612 0.90386 0.0
C4096 C 0.86688 0.44383 0.91168 0.0
C4097 C 0.85911 0.43625 0.92348 0.0
C4098 C 0.89413 0.47823 0.88882 0.0
C4099 C 0.89194 0.47746 0.87281 0.0
C4100 C 0.88313 0.47224 0.89889 0.0
C4101 C 0.8696 0.46543 0.89324 0.0
C4102 C 0.86669 0.46585 0.87735 0.0
C4103 C 0.8778 0.47181 0.86719 0.0
H4104 H 0.28953 0.659 0.13857 0.0
H4105 H 0.30499 0.63069 0.10073 0.0
H4106 H 0.29948 0.64018 0.15673 0.0
H4107 H 0.31499 0.6117 0.11915 0.0
H4108 H 0.3186 0.57903 0.16603 0.0
H4109 H 0.30685 0.59321 0.14437 0.0
H4110 H 0.32935 0.63476 0.15961 0.0
H4111 H 0.34101 0.62084 0.18083 0.0
C4112 C 0.29472 0.64859 0.13409 0.0
C4113 C 0.29664 0.64647 0.11818 0.0
C4114 C 0.30047 0.63782 0.14452 0.0
C4115 C 0.30825 0.62464 0.13933 0.0
C4116 C 0.30906 0.62179 0.12343 0.0
C4117 C 0.30332 0.63266 0.11292 0.0
C4118 C 0.32136 0.59108 0.16442 0.0
C4119 C 0.33058 0.59887 0.17521 0.0
C4120 C 0.31456 0.59919 0.15213 0.0
C4121 C 0.31691 0.61515 0.1506 0.0
C4122 C 0.32706 0.62255 0.16073 0.0
C4123 C 0.3338 0.61454 0.17283 0.0
H4124 H 0.14812 0.09168 0.43352 0.0
H4125 H 0.18965 0.06715 0.42156 0.0
H4126 H 0.13466 0.07954 0.41226 0.0
H4127 H 0.17594 0.05484 0.39992 0.0
H4128 H 0.14056 0.05128 0.35494 0.0
H4129 H 0.15917 0.06148 0.37368 0.0
H4130 H 0.12786 0.05033 0.41058 0.0
H4131 H 0.1094 0.04027 0.39209 0.0
C4132 C 0.15448 0.08392 0.4261 0.0
C4133 C 0.1699 0.08026 0.42929 0.0
C4134 C 0.14672 0.07687 0.41399 0.0
C4135 C 0.15414 0.06595 0.4047 0.0
C4136 C 0.16994 0.06315 0.40701 0.0
C4137 C 0.17779 0.07026 0.41928 0.0
C4138 C 0.13789 0.05056 0.3671 0.0
C4139 C 0.12341 0.04515 0.37203 0.0
C4140 C 0.14852 0.05644 0.37779 0.0
C4141 C 0.14478 0.057 0.39352 0.0
C4142 C 0.13091 0.05032 0.39848 0.0
C4143 C 0.12036 0.04448 0.38789 0.0
H4144 H 0.22288 0.39393 0.60594 0.0
H4145 H 0.23186 0.3621 0.64304 0.0
H4146 H 0.21208 0.41235 0.62451 0.0
H4147 H 0.22104 0.38034 0.66133 0.0
H4148 H 0.17685 0.40066 0.68046 0.0
H4149 H 0.19046 0.38791 0.65964 0.0
H4150 H 0.21908 0.42796 0.6534 0.0
H4151 H 0.20541 0.44093 0.67469 0.0
C4152 C 0.22304 0.39106 0.61806 0.0
C4153 C 0.22808 0.37645 0.62298 0.0
C4154 C 0.21681 0.4016 0.62867 0.0
C4155 C 0.21552 0.39764 0.64429 0.0
C4156 C 0.22175 0.3836 0.64931 0.0
C4157 C 0.22799 0.37317 0.63882 0.0
C4158 C 0.18583 0.40695 0.6745 0.0
C4159 C 0.19015 0.42176 0.67936 0.0
C4160 C 0.19367 0.39958 0.66262 0.0
C4161 C 0.20602 0.40683 0.65515 0.0
C4162 C 0.20964 0.42212 0.65906 0.0
C4163 C 0.20176 0.42956 0.67115 0.0
H4164 H 0.64643 0.43023 0.58576 0.0
H4165 H 0.68867 0.45473 0.59513 0.0
H4166 H 0.634 0.44321 0.60714 0.0
H4167 H 0.67601 0.46775 0.61701 0.0
H4168 H 0.6413 0.4702 0.66375 0.0
H4169 H 0.65939 0.46002 0.64453 0.0
H4170 H 0.62846 0.47382 0.60827 0.0
H4171 H 0.61052 0.484 0.62723 0.0
C4172 C 0.65319 0.43819 0.59259 0.0
C4173 C 0.66851 0.44157 0.58861 0.0
C4174 C 0.64601 0.44568 0.6048 0.0
C4175 C 0.65394 0.45673 0.61349 0.0
C4176 C 0.66963 0.45934 0.61038 0.0
C4177 C 0.67688 0.45182 0.59796 0.0
C4178 C 0.63863 0.47156 0.65165 0.0
C4179 C 0.62435 0.47775 0.64704 0.0
C4180 C 0.64898 0.46569 0.64067 0.0
C4181 C 0.64517 0.4659 0.62496 0.0
C4182 C 0.63158 0.47333 0.62034 0.0
C4183 C 0.62132 0.47922 0.63122 0.0
H4184 H 0.28361 0.86637 0.37836 0.0
H4185 H 0.30268 0.89194 0.41645 0.0
H4186 H 0.29082 0.88695 0.36086 0.0
H4187 H 0.30995 0.91273 0.3988 0.0
H4188 H 0.34073 0.93007 0.35611 0.0
H4189 H 0.32949 0.91554 0.37763 0.0
H4190 H 0.28609 0.9135 0.35346 0.0
H4191 H 0.29744 0.92761 0.33202 0.0
C4192 C 0.28902 0.87657 0.38306 0.0
C4193 C 0.29253 0.8775 0.39881 0.0
C4194 C 0.29314 0.88843 0.37302 0.0
C4195 C 0.30102 0.90153 0.3784 0.0
C4196 C 0.30399 0.90277 0.39427 0.0
C4197 C 0.29968 0.89092 0.40439 0.0
C4198 C 0.32865 0.927 0.35574 0.0
C4199 C 0.3199 0.93 0.3425 0.0
C4200 C 0.3222 0.91863 0.36801 0.0
C4201 C 0.30694 0.91312 0.36716 0.0
C4202 C 0.29794 0.91729 0.35439 0.0
C4203 C 0.30438 0.92552 0.34218 0.0
H4204 H 0.69994 0.57659 0.85299 0.0
H4205 H 0.67631 0.61789 0.8387 0.0
H4206 H 0.71153 0.59092 0.87463 0.0
H4207 H 0.68783 0.63197 0.85991 0.0
H4208 H 0.72793 0.65677 0.88021 0.0
H4209 H 0.71805 0.6377 0.86225 0.0
H4210 H 0.70278 0.60949 0.90013 0.0
H4211 H 0.71267 0.62874 0.91835 0.0
C4212 C 0.69688 0.58854 0.85472 0.0
C4213 C 0.68736 0.59617 0.84407 0.0
C4214 C 0.70357 0.59674 0.867 0.0
C4215 C 0.70083 0.61262 0.86866 0.0
C4216 C 0.69039 0.61983 0.8587 0.0
C4217 C 0.68374 0.61172 0.8466 0.0
C4218 C 0.7228 0.64637 0.88479 0.0
C4219 C 0.72091 0.6444 0.90073 0.0
C4220 C 0.71711 0.63546 0.87448 0.0
C4221 C 0.70944 0.62227 0.87982 0.0
C4222 C 0.70864 0.61959 0.89574 0.0
C4223 C 0.71432 0.6306 0.90614 0.0
H4224 H 0.66473 0.377 0.55168 0.0
H4225 H 0.6254 0.39573 0.52778 0.0
H4226 H 0.64912 0.35507 0.56009 0.0
H4227 H 0.60998 0.37359 0.53582 0.0
H4228 H 0.58693 0.32885 0.54739 0.0
H4229 H 0.6079 0.34296 0.53479 0.0
H4230 H 0.62502 0.35703 0.57922 0.0
H4231 H 0.60377 0.34337 0.59171 0.0
C4232 C 0.65292 0.37617 0.54775 0.0
C4233 C 0.64627 0.38812 0.53909 0.0
C4234 C 0.64399 0.36365 0.55265 0.0
C4235 C 0.62835 0.36263 0.54862 0.0
C4236 C 0.62204 0.37399 0.53898 0.0
C4237 C 0.63086 0.38668 0.5344 0.0
C4238 C 0.59563 0.33433 0.55445 0.0
C4239 C 0.59395 0.33478 0.57052 0.0
C4240 C 0.6075 0.34256 0.54724 0.0
C4241 C 0.61806 0.35112 0.55602 0.0
C4242 C 0.61716 0.3504 0.57216 0.0
C4243 C 0.60508 0.34249 0.57934 0.0
H4244 H 0.44221 0.34813 0.81563 0.0
H4245 H 0.40427 0.3379 0.84603 0.0
H4246 H 0.42685 0.36887 0.80371 0.0
H4247 H 0.38915 0.35828 0.83425 0.0
H4248 H 0.35981 0.37302 0.79443 0.0
H4249 H 0.38001 0.35645 0.80447 0.0
H4250 H 0.40926 0.3959 0.81167 0.0
H4251 H 0.38884 0.41275 0.80161 0.0
C4252 C 0.43087 0.3507 0.82015 0.0
C4253 C 0.42438 0.3414 0.8317 0.0
C4254 C 0.42207 0.36245 0.81326 0.0
C4255 C 0.40673 0.3649 0.81787 0.0
C4256 C 0.40084 0.35645 0.83031 0.0
C4257 C 0.40955 0.34486 0.83712 0.0
C4258 C 0.37065 0.3782 0.7978 0.0
C4259 C 0.37262 0.39424 0.79739 0.0
C4260 C 0.3822 0.3687 0.8036 0.0
C4261 C 0.39606 0.37495 0.80909 0.0
C4262 C 0.39865 0.39083 0.80753 0.0
C4263 C 0.38697 0.40043 0.80174 0.0
H4264 H 0.43304 0.1486 0.08522 0.0
H4265 H 0.41639 0.19166 0.06681 0.0
H4266 H 0.41253 0.13493 0.07216 0.0
H4267 H 0.39541 0.17769 0.05366 0.0
H4268 H 0.35282 0.13973 0.04945 0.0
H4269 H 0.37117 0.15853 0.05983 0.0
H4270 H 0.40883 0.13106 0.04275 0.0
H4271 H 0.3907 0.11235 0.03247 0.0
C4272 C 0.42483 0.15521 0.07854 0.0
C4273 C 0.42647 0.17122 0.07691 0.0
C4274 C 0.41313 0.14733 0.07097 0.0
C4275 C 0.40264 0.15519 0.06155 0.0
C4276 C 0.40347 0.17135 0.06074 0.0
C4277 C 0.41538 0.17933 0.06834 0.0
C4278 C 0.36501 0.13798 0.04745 0.0
C4279 C 0.37031 0.12441 0.04032 0.0
C4280 C 0.37549 0.14874 0.05344 0.0
C4281 C 0.39141 0.14606 0.05239 0.0
C4282 C 0.39661 0.13326 0.04398 0.0
C4283 C 0.38621 0.12258 0.03801 0.0
H4284 H 0.61993 0.18163 0.33348 0.0
H4285 H 0.57643 0.16568 0.31543 0.0
H4286 H 0.63315 0.16084 0.32044 0.0
H4287 H 0.58994 0.14439 0.30231 0.0
H4288 H 0.62763 0.10114 0.2988 0.0
H4289 H 0.60903 0.1198 0.30899 0.0
H4290 H 0.6365 0.1569 0.29075 0.0
H4291 H 0.655 0.13846 0.28063 0.0
C4292 C 0.61312 0.17354 0.32688 0.0
C4293 C 0.59712 0.17546 0.32535 0.0
C4294 C 0.62075 0.16166 0.31932 0.0
C4295 C 0.61263 0.15125 0.31004 0.0
C4296 C 0.59648 0.15238 0.30929 0.0
C4297 C 0.58875 0.16447 0.31687 0.0
C4298 C 0.62941 0.11326 0.29649 0.0
C4299 C 0.64293 0.11832 0.28908 0.0
C4300 C 0.61876 0.12392 0.30237 0.0
C4301 C 0.62151 0.13978 0.30093 0.0
C4302 C 0.63424 0.14473 0.29225 0.0
C4303 C 0.64481 0.13415 0.28639 0.0
H4304 H 0.60385 0.67654 0.42256 0.0
H4305 H 0.58763 0.68771 0.46806 0.0
H4306 H 0.62553 0.66235 0.43373 0.0
H4307 H 0.60902 0.67315 0.47929 0.0
H4308 H 0.62693 0.62041 0.4827 0.0
H4309 H 0.61107 0.64256 0.47569 0.0
H4310 H 0.65008 0.66347 0.45317 0.0
H4311 H 0.66616 0.64148 0.46066 0.0
C4312 C 0.60539 0.6766 0.43493 0.0
C4313 C 0.59433 0.68351 0.44446 0.0
C4314 C 0.61771 0.6684 0.44134 0.0
C4315 C 0.6189 0.6666 0.45738 0.0
C4316 C 0.6084 0.67439 0.4669 0.0
C4317 C 0.59628 0.68287 0.46049 0.0
C4318 C 0.63224 0.62994 0.47667 0.0
C4319 C 0.64779 0.62924 0.47228 0.0
C4320 C 0.62317 0.64264 0.47268 0.0
C4321 C 0.62936 0.65473 0.46388 0.0
C4322 C 0.64506 0.65433 0.45999 0.0
C4323 C 0.65425 0.64179 0.46436 0.0
H4324 H 0.1239 0.41612 0.71341 0.0
H4325 H 0.14203 0.37748 0.73879 0.0
H4326 H 0.10259 0.40005 0.70422 0.0
H4327 H 0.12052 0.36162 0.73 0.0
H4328 H 0.07698 0.33748 0.71635 0.0
H4329 H 0.08978 0.35902 0.7294 0.0
H4330 H 0.10627 0.37563 0.6856 0.0
H4331 H 0.09394 0.35384 0.67272 0.0
C4332 C 0.12302 0.40438 0.7175 0.0
C4333 C 0.13466 0.39804 0.7268 0.0
C4334 C 0.11087 0.39518 0.71217 0.0
C4335 C 0.1099 0.3796 0.71639 0.0
C4336 C 0.12087 0.37363 0.72668 0.0
C4337 C 0.13322 0.3827 0.73168 0.0
C4338 C 0.08271 0.34617 0.70948 0.0
C4339 C 0.08427 0.34419 0.69351 0.0
C4340 C 0.09017 0.35838 0.71695 0.0
C4341 C 0.09904 0.36897 0.70851 0.0
C4342 C 0.09937 0.36776 0.69238 0.0
C4343 C 0.09225 0.35535 0.68498 0.0
H4344 H 0.35036 0.87523 0.96709 0.0
H4345 H 0.38812 0.9021 0.9851 0.0
H4346 H 0.36879 0.85639 0.95685 0.0
H4347 H 0.40631 0.88341 0.97485 0.0
H4348 H 0.42963 0.86707 0.93092 0.0
H4349 H 0.40841 0.87998 0.9437 0.0
H4350 H 0.39493 0.8373 0.96514 0.0
H4351 H 0.41665 0.82413 0.95231 0.0
C4352 C 0.36251 0.87685 0.96936 0.0
C4353 C 0.36778 0.89029 0.97675 0.0
C4354 C 0.37304 0.86607 0.96345 0.0
C4355 C 0.38894 0.86861 0.96486 0.0
C4356 C 0.39409 0.88128 0.97347 0.0
C4357 C 0.38365 0.89197 0.97937 0.0
C4358 C 0.42204 0.8603 0.93814 0.0
C4359 C 0.42494 0.8446 0.94074 0.0
C4360 C 0.40992 0.86774 0.94552 0.0
C4361 C 0.40027 0.85971 0.95566 0.0
C4362 C 0.40232 0.84374 0.95743 0.0
C4363 C 0.41464 0.83621 0.95002 0.0
H4364 H 0.90104 0.18063 0.18147 0.0
H4365 H 0.9436 0.16829 0.20401 0.0
H4366 H 0.88786 0.15983 0.19464 0.0
H4367 H 0.93016 0.14698 0.21722 0.0
H4368 H 0.89286 0.10232 0.21984 0.0
H4369 H 0.91172 0.12073 0.20962 0.0
H4370 H 0.88337 0.15828 0.22535 0.0
H4371 H 0.86464 0.14011 0.23556 0.0
C4372 C 0.90768 0.17327 0.18904 0.0
C4373 C 0.92335 0.17624 0.19182 0.0
C4374 C 0.90008 0.1614 0.19665 0.0
C4375 C 0.90791 0.15206 0.20721 0.0
C4376 C 0.92386 0.15414 0.2092 0.0
C4377 C 0.93155 0.16623 0.20157 0.0
C4378 C 0.89093 0.1145 0.22161 0.0
C4379 C 0.87712 0.11974 0.22834 0.0
C4380 C 0.90173 0.12502 0.21572 0.0
C4381 C 0.89884 0.14089 0.21647 0.0
C4382 C 0.88577 0.14608 0.22446 0.0
C4383 C 0.87506 0.13565 0.23036 0.0
H4384 H 0.55033 0.16701 0.87749 0.0
H4385 H 0.53323 0.12903 0.90463 0.0
H4386 H 0.56061 0.14875 0.85853 0.0
H4387 H 0.54348 0.111 0.8858 0.0
H4388 H 0.58673 0.08757 0.86836 0.0
H4389 H 0.57367 0.10817 0.8819 0.0
H4390 H 0.55351 0.12376 0.83931 0.0
H4391 H 0.56663 0.10265 0.82548 0.0
C4392 C 0.54829 0.15483 0.87916 0.0
C4393 C 0.54113 0.14947 0.89271 0.0
C4394 C 0.55421 0.1444 0.8683 0.0
C4395 C 0.55309 0.12849 0.87087 0.0
C4396 C 0.5447 0.12322 0.88366 0.0
C4397 C 0.53876 0.13357 0.89443 0.0
C4398 C 0.5797 0.09547 0.86175 0.0
C4399 C 0.57758 0.09334 0.84585 0.0
C4400 C 0.57214 0.10722 0.86956 0.0
C4401 C 0.56227 0.1173 0.86173 0.0
C4402 C 0.56096 0.11602 0.84562 0.0
C4403 C 0.56854 0.10404 0.83771 0.0
H4404 H 0.60118 0.30181 0.12699 0.0
H4405 H 0.63828 0.2837 0.15462 0.0
H4406 H 0.61979 0.30975 0.10729 0.0
H4407 H 0.65674 0.29165 0.13518 0.0
H4408 H 0.68776 0.29956 0.09633 0.0
H4409 H 0.66606 0.28752 0.10938 0.0
H4410 H 0.64029 0.32984 0.10547 0.0
H4411 H 0.6621 0.34176 0.0919 0.0
C4412 C 0.61325 0.29915 0.12868 0.0
C4413 C 0.61825 0.29208 0.14237 0.0
C4414 C 0.62392 0.30387 0.11747 0.0
C4415 C 0.63978 0.30141 0.11964 0.0
C4416 C 0.64462 0.29359 0.13297 0.0
C4417 C 0.63402 0.28903 0.14418 0.0
C4418 C 0.67726 0.30613 0.09784 0.0
C4419 C 0.67655 0.32155 0.09309 0.0
C4420 C 0.66487 0.29928 0.10545 0.0
C4421 C 0.65151 0.30777 0.10876 0.0
C4422 C 0.65037 0.32293 0.10304 0.0
C4423 C 0.66282 0.32977 0.09525 0.0
H4424 H 0.47259 0.39272 0.40542 0.0
H4425 H 0.46767 0.35417 0.37441 0.0
H4426 H 0.46325 0.40996 0.3855 0.0
H4427 H 0.4583 0.37173 0.35425 0.0
H4428 H 0.45649 0.4207 0.32312 0.0
H4429 H 0.46701 0.39912 0.33829 0.0
H4430 H 0.43442 0.40889 0.37447 0.0
H4431 H 0.42405 0.43017 0.35953 0.0
C4432 C 0.46982 0.38794 0.39425 0.0
C4433 C 0.4707 0.37202 0.39159 0.0
C4434 C 0.46441 0.39784 0.38285 0.0
C4435 C 0.45979 0.39212 0.36846 0.0
C4436 C 0.46175 0.37639 0.36529 0.0
C4437 C 0.46714 0.36638 0.37681 0.0
C4438 C 0.45121 0.41778 0.33403 0.0
C4439 C 0.43951 0.42711 0.34021 0.0
C4440 C 0.45729 0.40554 0.34274 0.0
C4441 C 0.45171 0.4026 0.35766 0.0
C4442 C 0.43909 0.41108 0.36311 0.0
C4443 C 0.43309 0.42319 0.35451 0.0
H4444 H 0.34904 0.20146 0.57997 0.0
H4445 H 0.33595 0.17412 0.61933 0.0
H4446 H 0.37073 0.21222 0.59484 0.0
H4447 H 0.3573 0.18472 0.63395 0.0
H4448 H 0.37722 0.22282 0.66199 0.0
H4449 H 0.35914 0.21329 0.64289 0.0
H4450 H 0.39658 0.20425 0.61154 0.0
H4451 H 0.41495 0.21385 0.63084 0.0
C4452 C 0.3511 0.19737 0.59156 0.0
C4453 C 0.34076 0.18705 0.59855 0.0
C4454 C 0.36342 0.2036 0.60009 0.0
C4455 C 0.36543 0.19957 0.61566 0.0
C4456 C 0.35582 0.1883 0.6221 0.0
C4457 C 0.34366 0.18214 0.61367 0.0
C4458 C 0.38166 0.2191 0.65094 0.0
C4459 C 0.39757 0.21893 0.64804 0.0
C4460 C 0.37128 0.21357 0.64001 0.0
C4461 C 0.3765 0.20774 0.62586 0.0
C4462 C 0.39228 0.20863 0.62239 0.0
C4463 C 0.40276 0.21415 0.63343 0.0
H4464 H 0.53385 0.88923 0.11559 0.0
H4465 H 0.55362 0.85081 0.14008 0.0
H4466 H 0.54146 0.9064 0.13633 0.0
H4467 H 0.56128 0.8681 0.161 0.0
H4468 H 0.59247 0.91046 0.17821 0.0
H4469 H 0.58088 0.88923 0.16356 0.0
H4470 H 0.5374 0.91332 0.16321 0.0
H4471 H 0.54908 0.93447 0.17748 0.0
C4472 C 0.5395 0.88438 0.12558 0.0
C4473 C 0.5431 0.86864 0.12616 0.0
C4474 C 0.54385 0.89423 0.13754 0.0
C4475 C 0.55205 0.88865 0.15036 0.0
C4476 C 0.55509 0.87278 0.15125 0.0
C4477 C 0.55056 0.86286 0.13933 0.0
C4478 C 0.5803 0.91086 0.1755 0.0
C4479 C 0.57161 0.924 0.17904 0.0
C4480 C 0.57365 0.89876 0.16706 0.0
C4481 C 0.55825 0.89969 0.16199 0.0
C4482 C 0.54934 0.91234 0.16667 0.0
C4483 C 0.55597 0.92438 0.175 0.0
H4484 H 0.85267 0.34546 0.42576 0.0
H4485 H 0.82846 0.30253 0.42015 0.0
H4486 H 0.87472 0.33479 0.41152 0.0
H4487 H 0.85035 0.29179 0.40633 0.0
H4488 H 0.87684 0.29145 0.36014 0.0
H4489 H 0.85859 0.29845 0.38014 0.0
H4490 H 0.89589 0.31454 0.40879 0.0
H4491 H 0.91433 0.30742 0.38856 0.0
C4492 C 0.85234 0.33357 0.42203 0.0
C4493 C 0.83892 0.3248 0.42401 0.0
C4494 C 0.86491 0.32746 0.41384 0.0
C4495 C 0.86417 0.31252 0.40754 0.0
C4496 C 0.85119 0.30342 0.41074 0.0
C4497 C 0.8387 0.30952 0.41877 0.0
C4498 C 0.88121 0.29619 0.37081 0.0
C4499 C 0.89704 0.29883 0.37276 0.0
C4500 C 0.87074 0.30018 0.38233 0.0
C4501 C 0.87577 0.30706 0.39611 0.0
C4502 C 0.89165 0.30932 0.39829 0.0
C4503 C 0.90221 0.30511 0.38678 0.0
H4504 H 0.48246 0.6258 0.61536 0.0
H4505 H 0.46842 0.66406 0.64383 0.0
H4506 H 0.47191 0.60795 0.63418 0.0
H4507 H 0.45784 0.64593 0.66283 0.0
H4508 H 0.45271 0.59788 0.69466 0.0
H4509 H 0.46548 0.61934 0.68104 0.0
H4510 H 0.44125 0.60714 0.63947 0.0
H4511 H 0.42857 0.58613 0.65285 0.0
C4512 C 0.47751 0.63042 0.62584 0.0
C4513 C 0.47612 0.64638 0.62798 0.0
C4514 C 0.47142 0.62017 0.6366 0.0
C4515 C 0.46384 0.62558 0.64981 0.0
C4516 C 0.46363 0.64148 0.65272 0.0
C4517 C 0.46972 0.65183 0.64186 0.0
C4518 C 0.44978 0.60016 0.68276 0.0
C4519 C 0.43975 0.59025 0.67478 0.0
C4520 C 0.45715 0.61233 0.67496 0.0
C4521 C 0.45459 0.61462 0.65913 0.0
C4522 C 0.44367 0.60543 0.65159 0.0
C4523 C 0.43635 0.59345 0.65929 0.0
H4524 H 0.10393 0.21135 0.88834 0.0
H4525 H 0.14274 0.22861 0.86254 0.0
H4526 H 0.12128 0.20412 0.90948 0.0
H4527 H 0.1599 0.22162 0.88353 0.0
H4528 H 0.18767 0.21663 0.92503 0.0
H4529 H 0.1661 0.22771 0.9109 0.0
H4530 H 0.14298 0.18374 0.91176 0.0
H4531 H 0.1647 0.1727 0.92618 0.0
C4532 C 0.11609 0.21397 0.88736 0.0
C4533 C 0.12199 0.22058 0.8738 0.0
C4534 C 0.12601 0.2097 0.89939 0.0
C4535 C 0.14195 0.2123 0.89819 0.0
C4536 C 0.14766 0.21962 0.88492 0.0
C4537 C 0.13784 0.2236 0.87285 0.0
C4538 C 0.1777 0.2095 0.92272 0.0
C4539 C 0.17775 0.19387 0.92675 0.0
C4540 C 0.16542 0.2158 0.91452 0.0
C4541 C 0.15295 0.20655 0.91 0.0
C4542 C 0.15239 0.19118 0.91515 0.0
C4543 C 0.16476 0.18486 0.92345 0.0
H4544 H 0.90802 0.03576 0.62689 0.0
H4545 H 0.87722 0.05018 0.66314 0.0
H4546 H 0.8905 0.04632 0.60778 0.0
H4547 H 0.85959 0.0609 0.64381 0.0
H4548 H 0.82936 0.06846 0.59703 0.0
H4549 H 0.84245 0.05548 0.61864 0.0
H4550 H 0.88569 0.07504 0.60396 0.0
H4551 H 0.87286 0.08786 0.58277 0.0
C4552 C 0.89731 0.04083 0.63078 0.0
C4553 C 0.89413 0.04227 0.64657 0.0
C4554 C 0.88731 0.04698 0.61982 0.0
C4555 C 0.87386 0.05477 0.62433 0.0
C4556 C 0.86991 0.05502 0.64002 0.0
C4557 C 0.87999 0.04882 0.65107 0.0
C4558 C 0.84158 0.07026 0.59871 0.0
C4559 C 0.85009 0.07905 0.58809 0.0
C4560 C 0.84907 0.06276 0.61099 0.0
C4561 C 0.86516 0.0639 0.61271 0.0
C4562 C 0.87337 0.07357 0.60269 0.0
C4563 C 0.86596 0.08102 0.5906 0.0
H4564 H 0.36667 0.92697 0.93202 0.0
H4565 H 0.32685 0.9529 0.91748 0.0
H4566 H 0.38182 0.93841 0.91154 0.0
H4567 H 0.34229 0.96444 0.89656 0.0
H4568 H 0.38002 0.96607 0.85351 0.0
H4569 H 0.36029 0.95643 0.87136 0.0
H4570 H 0.38983 0.96744 0.9097 0.0
H4571 H 0.40938 0.97705 0.89211 0.0
C4572 C 0.36105 0.93493 0.92424 0.0
C4573 C 0.34559 0.93916 0.92649 0.0
C4574 C 0.36978 0.94155 0.91255 0.0
C4575 C 0.36334 0.95259 0.90271 0.0
C4576 C 0.34755 0.95603 0.90409 0.0
C4577 C 0.33871 0.94936 0.91596 0.0
C4578 C 0.38212 0.96681 0.86577 0.0
C4579 C 0.39638 0.97217 0.87136 0.0
C4580 C 0.37082 0.96127 0.87596 0.0
C4581 C 0.37366 0.96094 0.89188 0.0
C4582 C 0.38743 0.96733 0.89746 0.0
C4583 C 0.39862 0.9729 0.88736 0.0
H4584 H 0.84193 0.1184 0.18309 0.0
H4585 H 0.81826 0.07767 0.16732 0.0
H4586 H 0.8309 0.13312 0.16209 0.0
H4587 H 0.80709 0.09267 0.14591 0.0
H4588 H 0.80536 0.12986 0.10282 0.0
H4589 H 0.81496 0.11062 0.1212 0.0
H4590 H 0.80216 0.14036 0.15883 0.0
H4591 H 0.79265 0.15944 0.14071 0.0
C4592 C 0.83457 0.11251 0.17493 0.0
C4593 C 0.83084 0.0969 0.17697 0.0
C4594 C 0.82816 0.12099 0.16295 0.0
C4595 C 0.81782 0.11415 0.15261 0.0
C4596 C 0.81495 0.09824 0.15382 0.0
C4597 C 0.82141 0.08965 0.16597 0.0
C4598 C 0.80423 0.1321 0.11503 0.0
C4599 C 0.79841 0.14629 0.12029 0.0
C4600 C 0.80975 0.12108 0.12553 0.0
C4601 C 0.80958 0.12414 0.14141 0.0
C4602 C 0.8027 0.13781 0.14663 0.0
C4603 C 0.79718 0.14873 0.13623 0.0
H4604 H 0.64337 0.5552 0.35171 0.0
H4605 H 0.6242 0.5286 0.38905 0.0
H4606 H 0.66349 0.56486 0.36893 0.0
H4607 H 0.64465 0.53788 0.40608 0.0
H4608 H 0.68857 0.55243 0.43099 0.0
H4609 H 0.6761 0.53944 0.40919 0.0
H4610 H 0.65731 0.58284 0.39417 0.0
H4611 H 0.66924 0.59565 0.41626 0.0
C4612 C 0.64379 0.55095 0.36342 0.0
C4613 C 0.63217 0.54114 0.36903 0.0
C4614 C 0.65526 0.55656 0.37328 0.0
C4615 C 0.65561 0.55212 0.38882 0.0
C4616 C 0.64473 0.54137 0.39411 0.0
C4617 C 0.63302 0.53608 0.38437 0.0
C4618 C 0.68233 0.55926 0.42263 0.0
C4619 C 0.68009 0.57508 0.42509 0.0
C4620 C 0.67507 0.55181 0.41028 0.0
C4621 C 0.66577 0.56014 0.4 0.0
C4622 C 0.66456 0.57617 0.4018 0.0
C4623 C 0.67145 0.58353 0.41438 0.0
H4624 H 0.67688 0.90174 0.68253 0.0
H4625 H 0.69881 0.94297 0.66555 0.0
H4626 H 0.68843 0.88693 0.66187 0.0
H4627 H 0.71049 0.92788 0.64448 0.0
H4628 H 0.71338 0.88961 0.60236 0.0
H4629 H 0.70317 0.90896 0.6203 0.0
H4630 H 0.71747 0.88082 0.6586 0.0
H4631 H 0.72759 0.86164 0.64092 0.0
C4632 C 0.68397 0.90772 0.67418 0.0
C4633 C 0.68707 0.92351 0.67578 0.0
C4634 C 0.69067 0.89919 0.66239 0.0
C4635 C 0.70067 0.90617 0.65181 0.0
C4636 C 0.7029 0.92221 0.65258 0.0
C4637 C 0.69615 0.93084 0.66455 0.0
C4638 C 0.71471 0.88777 0.61462 0.0
C4639 C 0.72113 0.87397 0.62021 0.0
C4640 C 0.70884 0.89885 0.62486 0.0
C4641 C 0.70925 0.89623 0.64081 0.0
C4642 C 0.71673 0.883 0.64634 0.0
C4643 C 0.7226 0.87203 0.63619 0.0
H4644 H 0.14233 0.97101 0.66481 0.0
H4645 H 0.11383 0.98295 0.62585 0.0
H4646 H 0.16188 0.96062 0.64721 0.0
H4647 H 0.13322 0.9725 0.60851 0.0
H4648 H 0.15377 0.9283 0.58922 0.0
H4649 H 0.13988 0.94127 0.60974 0.0
H4650 H 0.17985 0.96901 0.61956 0.0
H4651 H 0.19396 0.95599 0.59857 0.0
C4652 C 0.14043 0.97188 0.65253 0.0
C4653 C 0.1264 0.97766 0.64676 0.0
C4654 C 0.15163 0.96591 0.64248 0.0
C4655 C 0.14893 0.96558 0.62655 0.0
C4656 C 0.13551 0.9725 0.62077 0.0
C4657 C 0.12442 0.97852 0.63073 0.0
C4658 C 0.15978 0.9369 0.59595 0.0
C4659 C 0.17493 0.9412 0.59219 0.0
C4660 C 0.15178 0.94439 0.60765 0.0
C4661 C 0.15869 0.95633 0.616 0.0
C4662 C 0.17426 0.95986 0.6132 0.0
C4663 C 0.18235 0.95234 0.60131 0.0
H4664 H 0.80784 0.38901 0.41469 0.0
H4665 H 0.78142 0.37003 0.37713 0.0
H4666 H 0.81713 0.40955 0.39776 0.0
H4667 H 0.79037 0.39084 0.36038 0.0
H4668 H 0.80287 0.43543 0.33622 0.0
H4669 H 0.79061 0.42172 0.35767 0.0
H4670 H 0.83513 0.40567 0.3727 0.0
H4671 H 0.84725 0.41893 0.35096 0.0
C4672 C 0.80363 0.38949 0.40297 0.0
C4673 C 0.7939 0.37787 0.39724 0.0
C4674 C 0.80902 0.40121 0.39328 0.0
C4675 C 0.80447 0.40179 0.37778 0.0
C4676 C 0.79396 0.39076 0.37232 0.0
C4677 C 0.78886 0.37883 0.3819 0.0
C4678 C 0.81006 0.42953 0.34452 0.0
C4679 C 0.82603 0.42849 0.34218 0.0
C4680 C 0.80304 0.42154 0.35666 0.0
C4681 C 0.81192 0.41263 0.36682 0.0
C4682 C 0.82802 0.41259 0.36515 0.0
C4683 C 0.83499 0.42026 0.35279 0.0
H4684 H 0.17066 0.10151 0.85036 0.0
H4685 H 0.21502 0.08337 0.83754 0.0
H4686 H 0.18234 0.11451 0.8725 0.0
H4687 H 0.22686 0.09686 0.85937 0.0
H4688 H 0.23601 0.14904 0.87871 0.0
H4689 H 0.22728 0.12837 0.86168 0.0
H4690 H 0.19979 0.10954 0.89848 0.0
H4691 H 0.20892 0.12992 0.91572 0.0
C4692 C 0.18279 0.09979 0.85269 0.0
C4693 C 0.19189 0.09116 0.8425 0.0
C4694 C 0.1895 0.1073 0.86528 0.0
C4695 C 0.2055 0.10671 0.86761 0.0
C4696 C 0.21449 0.09743 0.85786 0.0
C4697 C 0.2077 0.08959 0.8455 0.0
C4698 C 0.22847 0.14023 0.8833 0.0
C4699 C 0.22319 0.1411 0.89856 0.0
C4700 C 0.2235 0.12839 0.87356 0.0
C4701 C 0.21285 0.11738 0.87878 0.0
C4702 C 0.20803 0.11786 0.8942 0.0
C4703 C 0.21333 0.12949 0.90407 0.0
H4704 H 0.58767 0.86781 0.08478 0.0
H4705 H 0.60176 0.8244 0.06511 0.0
H4706 H 0.60891 0.88064 0.07202 0.0
H4707 H 0.62352 0.8375 0.0523 0.0
H4708 H 0.66798 0.87461 0.04998 0.0
H4709 H 0.64902 0.85613 0.05991 0.0
H4710 H 0.61232 0.88416 0.04176 0.0
H4711 H 0.63104 0.90251 0.03187 0.0
C4712 C 0.59547 0.86093 0.07791 0.0
C4713 C 0.59288 0.8451 0.07582 0.0
C4714 C 0.60761 0.86833 0.07052 0.0
C4715 C 0.61761 0.86014 0.06087 0.0
C4716 C 0.61585 0.84408 0.05959 0.0
C4717 C 0.60349 0.83659 0.067 0.0
C4718 C 0.65589 0.87653 0.04762 0.0
C4719 C 0.65101 0.89017 0.04031 0.0
C4720 C 0.64506 0.86596 0.05335 0.0
C4721 C 0.62923 0.86889 0.05185 0.0
C4722 C 0.62446 0.88174 0.04327 0.0
C4723 C 0.63521 0.89223 0.03755 0.0
H4724 H 0.35854 0.87875 0.29038 0.0
H4725 H 0.38772 0.91614 0.30529 0.0
H4726 H 0.37725 0.86031 0.3 0.0
H4727 H 0.40659 0.89744 0.315 0.0
H4728 H 0.43932 0.85121 0.31825 0.0
H4729 H 0.42478 0.8729 0.30704 0.0
H4730 H 0.3834 0.85625 0.32892 0.0
H4731 H 0.39767 0.83498 0.34001 0.0
C4732 C 0.3691 0.88306 0.29542 0.0
C4733 C 0.37151 0.89894 0.29723 0.0
C4734 C 0.3798 0.87248 0.301 0.0
C4735 C 0.39323 0.87745 0.30852 0.0
C4736 C 0.39632 0.8933 0.30928 0.0
C4737 C 0.38551 0.90398 0.30371 0.0
C4738 C 0.42722 0.85249 0.32096 0.0
C4739 C 0.4196 0.8413 0.32986 0.0
C4740 C 0.4189 0.86482 0.31449 0.0
C4741 C 0.40289 0.86599 0.3168 0.0
C4742 C 0.39564 0.85542 0.32661 0.0
C4743 C 0.40386 0.84328 0.33304 0.0
H4744 H 0.39532 0.6136 0.53618 0.0
H4745 H 0.35588 0.64205 0.54659 0.0
H4746 H 0.41228 0.63325 0.54676 0.0
H4747 H 0.37312 0.66188 0.55712 0.0
H4748 H 0.42334 0.69321 0.56145 0.0
H4749 H 0.40246 0.67927 0.54809 0.0
H4750 H 0.40869 0.64079 0.57877 0.0
H4751 H 0.42914 0.65453 0.59208 0.0
C4752 C 0.39027 0.62423 0.54028 0.0
C4753 C 0.3742 0.62614 0.54068 0.0
C4754 C 0.40001 0.63548 0.54637 0.0
C4755 C 0.39397 0.64898 0.55287 0.0
C4756 C 0.37803 0.65157 0.55211 0.0
C4757 C 0.3682 0.64022 0.54606 0.0
C4758 C 0.41981 0.68203 0.56567 0.0
C4759 C 0.42792 0.67492 0.57776 0.0
C4760 C 0.40798 0.67403 0.55796 0.0
C4761 C 0.40422 0.65888 0.56228 0.0
C4762 C 0.41151 0.65238 0.57511 0.0
C4763 C 0.42317 0.66029 0.58277 0.0
H4764 H 0.58995 0.6617 0.84294 0.0
H4765 H 0.58878 0.68491 0.79915 0.0
H4766 H 0.60387 0.64014 0.83108 0.0
H4767 H 0.60242 0.66345 0.78721 0.0
H4768 H 0.65018 0.63902 0.7829 0.0
H4769 H 0.62963 0.65645 0.79056 0.0
H4770 H 0.60513 0.61865 0.81155 0.0
H4771 H 0.62579 0.6011 0.80378 0.0
C4772 C 0.59207 0.66185 0.83066 0.0
C4773 C 0.58817 0.67482 0.82189 0.0
C4774 C 0.60009 0.64956 0.82385 0.0
C4775 C 0.60444 0.65017 0.80821 0.0
C4776 C 0.59945 0.6627 0.7993 0.0
C4777 C 0.59149 0.67491 0.80608 0.0
C4778 C 0.64023 0.63433 0.78878 0.0
C4779 C 0.63964 0.61867 0.79271 0.0
C4780 C 0.6284 0.64432 0.79317 0.0
C4781 C 0.61574 0.63896 0.80175 0.0
C4782 C 0.61478 0.62315 0.80506 0.0
C4783 C 0.62654 0.61308 0.80046 0.0
H4784 H 0.60314 0.18915 0.9507 0.0
H4785 H 0.58466 0.148 0.92986 0.0
H4786 H 0.6244 0.17383 0.96168 0.0
H4787 H 0.60553 0.13298 0.94068 0.0
H4788 H 0.62856 0.10721 0.97817 0.0
H4789 H 0.61036 0.12627 0.96878 0.0
H4790 H 0.64791 0.15529 0.95416 0.0
H4791 H 0.66636 0.1361 0.96368 0.0
C4792 C 0.60382 0.17697 0.94815 0.0
C4793 C 0.59213 0.16975 0.93957 0.0
C4794 C 0.61591 0.1682 0.9545 0.0
C4795 C 0.61637 0.15214 0.95237 0.0
C4796 C 0.60527 0.14524 0.94288 0.0
C4797 C 0.59335 0.1539 0.93659 0.0
C4798 C 0.63301 0.11776 0.97325 0.0
C4799 C 0.64893 0.12001 0.97152 0.0
C4800 C 0.62256 0.12866 0.96778 0.0
C4801 C 0.62771 0.14213 0.96043 0.0
C4802 C 0.64362 0.145 0.95973 0.0
C4803 C 0.65416 0.13401 0.9652 0.0
H4804 H 0.15657 0.87856 0.23252 0.0
H4805 H 0.1277 0.91536 0.2157 0.0
H4806 H 0.1381 0.85977 0.22303 0.0
H4807 H 0.10911 0.89634 0.20615 0.0
H4808 H 0.0772 0.84963 0.2015 0.0
H4809 H 0.09085 0.87135 0.21376 0.0
H4810 H 0.13345 0.85581 0.19349 0.0
H4811 H 0.12008 0.83458 0.18131 0.0
C4812 C 0.14608 0.88268 0.22718 0.0
C4813 C 0.14375 0.89847 0.22469 0.0
C4814 C 0.13552 0.87189 0.22168 0.0
C4815 C 0.12234 0.8766 0.21358 0.0
C4816 C 0.1192 0.89241 0.21233 0.0
C4817 C 0.12985 0.90328 0.21783 0.0
C4818 C 0.08939 0.85115 0.19939 0.0
C4819 C 0.09759 0.84029 0.19059 0.0
C4820 C 0.0972 0.86348 0.20648 0.0
C4821 C 0.11327 0.86497 0.2049 0.0
C4822 C 0.12114 0.85471 0.19525 0.0
C4823 C 0.11343 0.84259 0.18818 0.0
H4824 H 0.39397 0.39554 0.48719 0.0
H4825 H 0.35502 0.37703 0.46252 0.0
H4826 H 0.40959 0.37363 0.47893 0.0
H4827 H 0.37081 0.35532 0.45391 0.0
H4828 H 0.41608 0.34339 0.42266 0.0
H4829 H 0.39491 0.35721 0.43511 0.0
H4830 H 0.41195 0.34318 0.47959 0.0
H4831 H 0.43285 0.32893 0.46702 0.0
C4832 C 0.38864 0.3866 0.48033 0.0
C4833 C 0.37326 0.38804 0.47552 0.0
C4834 C 0.39757 0.37403 0.47563 0.0
C4835 C 0.39143 0.36279 0.46573 0.0
C4836 C 0.37584 0.36381 0.46154 0.0
C4837 C 0.36679 0.3762 0.46654 0.0
C4838 C 0.41478 0.34258 0.43504 0.0
C4839 C 0.42585 0.33481 0.44386 0.0
C4840 C 0.40274 0.35057 0.44219 0.0
C4841 C 0.40183 0.35134 0.45834 0.0
C4842 C 0.41236 0.34277 0.46713 0.0
C4843 C 0.42419 0.33445 0.45994 0.0
H4844 H 0.88718 0.60208 0.7132 0.0
H4845 H 0.86221 0.64038 0.73264 0.0
H4846 H 0.90811 0.61951 0.70575 0.0
H4847 H 0.88294 0.65767 0.72525 0.0
H4848 H 0.92448 0.68555 0.71944 0.0
H4849 H 0.90977 0.66429 0.7303 0.0
H4850 H 0.91121 0.64099 0.68642 0.0
H4851 H 0.92633 0.66236 0.67564 0.0
C4852 C 0.8863 0.61414 0.71618 0.0
C4853 C 0.87303 0.61984 0.72354 0.0
C4854 C 0.89823 0.62414 0.71178 0.0
C4855 C 0.89723 0.63999 0.71489 0.0
C4856 C 0.88423 0.64551 0.72284 0.0
C4857 C 0.87228 0.63559 0.72705 0.0
C4858 C 0.92211 0.67562 0.71228 0.0
C4859 C 0.92659 0.67551 0.69676 0.0
C4860 C 0.91355 0.66352 0.71844 0.0
C4861 C 0.90905 0.65106 0.70917 0.0
C4862 C 0.91454 0.65038 0.6939 0.0
C4863 C 0.92325 0.66256 0.68772 0.0
H4864 H 0.55331 0.66407 0.37849 0.0
H4865 H 0.54323 0.62619 0.40906 0.0
H4866 H 0.56329 0.64581 0.35929 0.0
H4867 H 0.5531 0.6082 0.39004 0.0
H4868 H 0.59441 0.5863 0.36835 0.0
H4869 H 0.58246 0.60727 0.38242 0.0
H4870 H 0.55597 0.61946 0.34224 0.0
H4871 H 0.56807 0.5981 0.32791 0.0
C4872 C 0.55277 0.65186 0.38093 0.0
C4873 C 0.54767 0.64659 0.39539 0.0
C4874 C 0.55852 0.64144 0.36995 0.0
C4875 C 0.55924 0.62565 0.37334 0.0
C4876 C 0.55292 0.62035 0.38725 0.0
C4877 C 0.54721 0.63067 0.39813 0.0
C4878 C 0.58628 0.59362 0.36236 0.0
C4879 C 0.58206 0.59046 0.34708 0.0
C4880 C 0.57937 0.60557 0.37046 0.0
C4881 C 0.56802 0.61473 0.36354 0.0
C4882 C 0.56462 0.61247 0.34786 0.0
C4883 C 0.57161 0.60035 0.33965 0.0
H4884 H 0.66295 0.84351 0.58994 0.0
H4885 H 0.68577 0.79964 0.59342 0.0
H4886 H 0.64144 0.8335 0.60537 0.0
H4887 H 0.66435 0.78952 0.60849 0.0
H4888 H 0.64062 0.7896 0.65629 0.0
H4889 H 0.6579 0.79589 0.63519 0.0
H4890 H 0.61976 0.81443 0.60928 0.0
H4891 H 0.60233 0.80806 0.63058 0.0
C4892 C 0.66301 0.83155 0.59341 0.0
C4893 C 0.67591 0.82229 0.59043 0.0
C4894 C 0.65076 0.82581 0.60231 0.0
C4895 C 0.65131 0.81077 0.60839 0.0
C4896 C 0.66368 0.80122 0.60424 0.0
C4897 C 0.67587 0.80695 0.59546 0.0
C4898 C 0.63584 0.79475 0.646 0.0
C4899 C 0.62009 0.7983 0.64514 0.0
C4900 C 0.64574 0.79831 0.63383 0.0
C4901 C 0.64022 0.80567 0.6205 0.0
C4902 C 0.62438 0.80884 0.61942 0.0
C4903 C 0.61439 0.80507 0.63156 0.0
H4904 H 0.42651 0.91325 0.84062 0.0
H4905 H 0.47036 0.93642 0.8416 0.0
H4906 H 0.43778 0.89148 0.85472 0.0
H4907 H 0.48171 0.91475 0.85534 0.0
H4908 H 0.48488 0.88965 0.9025 0.0
H4909 H 0.47754 0.90737 0.88214 0.0
H4910 H 0.45709 0.86992 0.85667 0.0
H4911 H 0.46451 0.85206 0.87721 0.0
C4912 C 0.4387 0.91336 0.84326 0.0
C4913 C 0.44762 0.9264 0.83995 0.0
C4914 C 0.44516 0.90095 0.85139 0.0
C4915 C 0.46061 0.90148 0.85638 0.0
C4916 C 0.46974 0.91407 0.85192 0.0
C4917 C 0.46329 0.9264 0.8439 0.0
C4918 C 0.47915 0.8851 0.89241 0.0
C4919 C 0.47531 0.86943 0.8915 0.0
C4920 C 0.47496 0.89527 0.88067 0.0
C4921 C 0.46666 0.89009 0.86775 0.0
C4922 C 0.46337 0.8743 0.86651 0.0
C4923 C 0.46777 0.86405 0.87821 0.0
H4924 H 0.33275 0.72 0.09227 0.0
H4925 H 0.35614 0.67649 0.08788 0.0
H4926 H 0.35411 0.73015 0.10735 0.0
H4927 H 0.3776 0.68654 0.10336 0.0
H4928 H 0.41662 0.71247 0.12856 0.0
H4929 H 0.39908 0.7059 0.10741 0.0
H4930 H 0.36087 0.72354 0.13386 0.0
H4931 H 0.37824 0.73004 0.1548 0.0
C4932 C 0.34275 0.71277 0.09414 0.0
C4933 C 0.34288 0.69752 0.08883 0.0
C4934 C 0.35491 0.71852 0.10293 0.0
C4935 C 0.36745 0.70908 0.10683 0.0
C4936 C 0.36815 0.69415 0.1005 0.0
C4937 C 0.35592 0.68839 0.09158 0.0
C4938 C 0.40451 0.71522 0.12969 0.0
C4939 C 0.39883 0.72182 0.14337 0.0
C4940 C 0.39446 0.71133 0.11763 0.0
C4941 C 0.37857 0.7142 0.1189 0.0
C4942 C 0.37306 0.72135 0.13236 0.0
C4943 C 0.38303 0.72504 0.14443 0.0
H4944 H 0.54731 0.39277 0.60944 0.0
H4945 H 0.55234 0.35373 0.63981 0.0
H4946 H 0.55685 0.40968 0.62956 0.0
H4947 H 0.56193 0.37096 0.66017 0.0
H4948 H 0.5645 0.41916 0.69221 0.0
H4949 H 0.55365 0.39795 0.67672 0.0
H4950 H 0.58568 0.40847 0.64024 0.0
H4951 H 0.59635 0.42938 0.65549 0.0
C4952 C 0.55015 0.38781 0.62052 0.0
C4953 C 0.54924 0.37186 0.62293 0.0
C4954 C 0.55567 0.39752 0.63203 0.0
C4955 C 0.56039 0.39157 0.64629 0.0
C4956 C 0.5584 0.3758 0.64924 0.0
C4957 C 0.55289 0.36598 0.6376 0.0
C4958 C 0.56957 0.41648 0.68114 0.0
C4959 C 0.58121 0.42591 0.67499 0.0
C4960 C 0.56331 0.40446 0.67225 0.0
C4961 C 0.56863 0.40185 0.65718 0.0
C4962 C 0.58118 0.41042 0.65171 0.0
C4963 C 0.58737 0.42231 0.66049 0.0
H4964 H 0.85953 0.8407 0.92965 0.0
H4965 H 0.83736 0.79641 0.93182 0.0
H4966 H 0.88094 0.82925 0.91517 0.0
H4967 H 0.85869 0.78488 0.91763 0.0
H4968 H 0.88178 0.78067 0.86925 0.0
H4969 H 0.86483 0.78806 0.89028 0.0
H4970 H 0.90283 0.81039 0.91324 0.0
H4971 H 0.9199 0.80292 0.89207 0.0
C4972 C 0.85961 0.8284 0.92763 0.0
C4973 C 0.84695 0.81937 0.93198 0.0
C4974 C 0.87181 0.82183 0.91928 0.0
C4975 C 0.87143 0.80616 0.91506 0.0
C4976 C 0.85926 0.79699 0.92049 0.0
C4977 C 0.84713 0.80355 0.92877 0.0
C4978 C 0.88663 0.78681 0.87895 0.0
C4979 C 0.9022 0.7912 0.87895 0.0
C4980 C 0.87691 0.79103 0.89106 0.0
C4981 C 0.88244 0.7999 0.90345 0.0
C4982 C 0.89819 0.80367 0.90382 0.0
C4983 C 0.90799 0.79925 0.89176 0.0
H4984 H 0.42786 0.10662 0.17906 0.0
H4985 H 0.47126 0.0827 0.17711 0.0
H4986 H 0.43916 0.12813 0.1646 0.0
H4987 H 0.48268 0.10414 0.16309 0.0
H4988 H 0.48604 0.1294 0.11621 0.0
H4989 H 0.47863 0.11175 0.1366 0.0
H4990 H 0.45837 0.14933 0.16204 0.0
H4991 H 0.46578 0.1671 0.14144 0.0
C4992 C 0.43997 0.10628 0.17611 0.0
C4993 C 0.44874 0.09309 0.17925 0.0
C4994 C 0.44646 0.11855 0.16777 0.0
C4995 C 0.46179 0.11776 0.16244 0.0
C4996 C 0.47079 0.10502 0.16673 0.0
C4997 C 0.4643 0.09281 0.17492 0.0
C4998 C 0.48033 0.13399 0.1263 0.0
C4999 C 0.47653 0.14967 0.12716 0.0
C5000 C 0.47609 0.12386 0.13806 0.0
C5001 C 0.46783 0.12908 0.15099 0.0
C5002 C 0.4646 0.1449 0.15219 0.0
C5003 C 0.46899 0.1551 0.14045 0.0
H5004 H 0.1642 0.67416 0.42502 0.0
H5005 H 0.18642 0.71838 0.42798 0.0
H5006 H 0.1423 0.68609 0.41168 0.0
H5007 H 0.16465 0.73035 0.41485 0.0
H5008 H 0.14021 0.73543 0.36702 0.0
H5009 H 0.15783 0.72744 0.38729 0.0
H5010 H 0.1203 0.70556 0.41144 0.0
H5011 H 0.10254 0.71373 0.39109 0.0
C5012 C 0.16405 0.68652 0.42343 0.0
C5013 C 0.17684 0.69541 0.42767 0.0
C5014 C 0.15158 0.69336 0.41574 0.0
C5015 C 0.15183 0.70916 0.41204 0.0
C5016 C 0.16417 0.71815 0.41735 0.0
C5017 C 0.17655 0.71134 0.42502 0.0
C5018 C 0.13562 0.72929 0.37685 0.0
C5019 C 0.11998 0.72526 0.37744 0.0
C5020 C 0.14572 0.72471 0.38851 0.0
C5021 C 0.14049 0.71579 0.40098 0.0
C5022 C 0.1247 0.71233 0.40195 0.0
C5023 C 0.11451 0.71716 0.39037 0.0
H5024 H 0.87998 0.55697 0.16512 0.0
H5025 H 0.89924 0.53215 0.12662 0.0
H5026 H 0.85812 0.56479 0.14913 0.0
H5027 H 0.8772 0.53965 0.1108 0.0
H5028 H 0.83188 0.54914 0.08767 0.0
H5029 H 0.8469 0.53769 0.10865 0.0
H5030 H 0.85892 0.58309 0.12473 0.0
H5031 H 0.84429 0.59445 0.10349 0.0
C5032 C 0.87934 0.55281 0.15339 0.0
C5033 C 0.89138 0.54396 0.14712 0.0
C5034 C 0.86685 0.55736 0.14423 0.0
C5035 C 0.86595 0.55283 0.12874 0.0
C5036 C 0.8775 0.54319 0.12276 0.0
C5037 C 0.89015 0.53893 0.13179 0.0
C5038 C 0.83713 0.55663 0.09614 0.0
C5039 C 0.83666 0.57267 0.09421 0.0
C5040 C 0.84589 0.55009 0.10801 0.0
C5041 C 0.85413 0.55949 0.11828 0.0
C5042 C 0.85257 0.57556 0.11709 0.0
C5043 C 0.8441 0.58208 0.10503 0.0
H5044 H 0.33179 0.45267 0.41833 0.0
H5045 H 0.37541 0.4326 0.43123 0.0
H5046 H 0.34462 0.46619 0.39686 0.0
H5047 H 0.38797 0.44602 0.41025 0.0
H5048 H 0.40995 0.48614 0.38863 0.0
H5049 H 0.39204 0.47575 0.40751 0.0
H5050 H 0.36225 0.46009 0.37103 0.0
H5051 H 0.38026 0.47058 0.35192 0.0
C5052 C 0.34397 0.45086 0.41639 0.0
C5053 C 0.35261 0.44171 0.4266 0.0
C5054 C 0.35131 0.45867 0.40421 0.0
C5055 C 0.36735 0.45747 0.40219 0.0
C5056 C 0.37567 0.4475 0.41177 0.0
C5057 C 0.36842 0.43972 0.42375 0.0
C5058 C 0.39937 0.48092 0.38458 0.0
C5059 C 0.39665 0.47902 0.36876 0.0
C5060 C 0.38915 0.47489 0.39541 0.0
C5061 C 0.37593 0.46682 0.39071 0.0
C5062 C 0.37237 0.46622 0.37495 0.0
C5063 C 0.38267 0.47228 0.36403 0.0
H5064 H 0.84253 0.59119 0.66465 0.0
H5065 H 0.79825 0.59298 0.68694 0.0
H5066 H 0.83214 0.60606 0.64295 0.0
H5067 H 0.78777 0.6075 0.66534 0.0
H5068 H 0.78648 0.65525 0.64138 0.0
H5069 H 0.79322 0.63443 0.65883 0.0
H5070 H 0.8131 0.60899 0.62105 0.0
H5071 H 0.80627 0.62997 0.60345 0.0
C5072 C 0.83043 0.59416 0.66456 0.0
C5073 C 0.82114 0.59087 0.67736 0.0
C5074 C 0.82447 0.60274 0.65219 0.0
C5075 C 0.80918 0.60819 0.65254 0.0
C5076 C 0.79965 0.60373 0.66482 0.0
C5077 C 0.80559 0.59526 0.67711 0.0
C5078 C 0.792 0.6451 0.63671 0.0
C5079 C 0.79581 0.64428 0.62102 0.0
C5080 C 0.79584 0.6331 0.64671 0.0
C5081 C 0.80373 0.62001 0.64134 0.0
C5082 C 0.80711 0.61894 0.62555 0.0
C5083 C 0.80307 0.6309 0.61546 0.0
H5084 H 0.68008 0.09009 0.91263 0.0
H5085 H 0.67741 0.0464 0.93592 0.0
H5086 H 0.66566 0.07928 0.89083 0.0
H5087 H 0.66343 0.03547 0.91419 0.0
H5088 H 0.61659 0.0332 0.88878 0.0
H5089 H 0.63702 0.04009 0.90659 0.0
H5090 H 0.66293 0.06037 0.86932 0.0
H5091 H 0.64227 0.05348 0.85138 0.0
C5092 C 0.67699 0.07802 0.91277 0.0
C5093 C 0.67989 0.06904 0.92587 0.0
C5094 C 0.66868 0.07181 0.90034 0.0
C5095 C 0.66315 0.05655 0.90087 0.0
C5096 C 0.66723 0.04732 0.91351 0.0
C5097 C 0.67539 0.05353 0.92588 0.0
C5098 C 0.62678 0.03881 0.88428 0.0
C5099 C 0.62777 0.04277 0.86864 0.0
C5100 C 0.63856 0.04274 0.89451 0.0
C5101 C 0.65165 0.05084 0.88942 0.0
C5102 C 0.65296 0.05425 0.87364 0.0
C5103 C 0.64119 0.05015 0.86334 0.0
H5104 H 0.67352 0.42265 0.16519 0.0
H5105 H 0.71926 0.43437 0.18033 0.0
H5106 H 0.68434 0.40837 0.14343 0.0
H5107 H 0.73019 0.41973 0.15881 0.0
H5108 H 0.7096 0.38809 0.102 0.0
H5109 H 0.70213 0.40957 0.11866 0.0
H5110 H 0.72801 0.38958 0.15601 0.0
H5111 H 0.73515 0.36792 0.13953 0.0
C5112 C 0.68587 0.42276 0.16341 0.0
C5113 C 0.69556 0.42991 0.17418 0.0
C5114 C 0.69208 0.41451 0.15104 0.0
C5115 C 0.70812 0.41287 0.14948 0.0
C5116 C 0.7178 0.42081 0.15973 0.0
C5117 C 0.71156 0.42935 0.17192 0.0
C5118 C 0.71399 0.38845 0.11366 0.0
C5119 C 0.72294 0.37627 0.11947 0.0
C5120 C 0.70965 0.40072 0.1232 0.0
C5121 C 0.71449 0.40126 0.13862 0.0
C5122 C 0.72423 0.38956 0.14413 0.0
C5123 C 0.72828 0.37713 0.13471 0.0
H5124 H 0.14136 0.46621 0.16555 0.0
H5125 H 0.11244 0.48057 0.12775 0.0
H5126 H 0.1603 0.45612 0.14711 0.0
H5127 H 0.13122 0.47053 0.10957 0.0
H5128 H 0.15028 0.42816 0.08651 0.0
H5129 H 0.13673 0.4404 0.10765 0.0
H5130 H 0.17838 0.46385 0.12109 0.0
H5131 H 0.19219 0.45153 0.09949 0.0
C5132 C 0.13927 0.46769 0.15335 0.0
C5133 C 0.12528 0.47403 0.14812 0.0
C5134 C 0.1501 0.46187 0.14282 0.0
C5135 C 0.14706 0.46229 0.12695 0.0
C5136 C 0.13374 0.46985 0.12176 0.0
C5137 C 0.123 0.47566 0.1322 0.0
C5138 C 0.1567 0.43569 0.09411 0.0
C5139 C 0.17228 0.439 0.09123 0.0
C5140 C 0.14889 0.44277 0.10617 0.0
C5141 C 0.15641 0.45335 0.11576 0.0
C5142 C 0.17231 0.45581 0.11376 0.0
C5143 C 0.18022 0.44868 0.10151 0.0
H5144 H 0.80804 0.88649 0.91772 0.0
H5145 H 0.79137 0.85797 0.8806 0.0
H5146 H 0.81369 0.90711 0.89926 0.0
H5147 H 0.79708 0.87829 0.86233 0.0
H5148 H 0.79852 0.91857 0.83241 0.0
H5149 H 0.78935 0.90369 0.85428 0.0
H5150 H 0.83243 0.91177 0.87777 0.0
H5151 H 0.84143 0.92721 0.8558 0.0
C5152 C 0.80532 0.88472 0.90568 0.0
C5153 C 0.79921 0.87059 0.90063 0.0
C5154 C 0.80869 0.89648 0.8951 0.0
C5155 C 0.80583 0.8944 0.8793 0.0
C5156 C 0.79923 0.88044 0.87442 0.0
C5157 C 0.796 0.86871 0.88491 0.0
C5158 C 0.80587 0.91752 0.84243 0.0
C5159 C 0.8207 0.92396 0.84242 0.0
C5160 C 0.80067 0.90889 0.85492 0.0
C5161 C 0.81027 0.90621 0.86765 0.0
C5162 C 0.82472 0.91363 0.86816 0.0
C5163 C 0.82989 0.92249 0.85562 0.0
H5164 H 0.23293 0.65343 0.37603 0.0
H5165 H 0.21259 0.62952 0.41455 0.0
H5166 H 0.22588 0.63222 0.35911 0.0
H5167 H 0.20534 0.60824 0.39748 0.0
H5168 H 0.17526 0.59094 0.35388 0.0
H5169 H 0.18604 0.60597 0.37526 0.0
H5170 H 0.23077 0.60446 0.35364 0.0
H5171 H 0.21995 0.58958 0.3324 0.0
C5172 C 0.22721 0.6435 0.38095 0.0
C5173 C 0.22336 0.64317 0.39664 0.0
C5174 C 0.2232 0.6313 0.37125 0.0
C5175 C 0.21502 0.61852 0.37694 0.0
C5176 C 0.21158 0.61794 0.39275 0.0
C5177 C 0.21585 0.63008 0.40253 0.0
C5178 C 0.18752 0.59324 0.35412 0.0
C5179 C 0.19685 0.58891 0.34167 0.0
C5180 C 0.19369 0.60192 0.36629 0.0
C5181 C 0.20924 0.60658 0.36605 0.0
C5182 C 0.21874 0.60122 0.3541 0.0
C5183 C 0.21259 0.59254 0.34203 0.0
loop_
_geom_bond_atom_site_label_1
_geom_bond_atom_site_label_2
_geom_bond_distance
_geom_bond_site_symmetry_2
_ccdc_geom_bond_type
O0 Cd1 2.223 . S
O0 C8 1.315 . S
Cd1 O0 2.223 . S
Cd1 O4 2.297 . S
Cd1 O5 2.439 . S
Cd1 O11 2.240 . S
Cd2 O3 2.240 . S
Cd2 O10 2.223 . S
Cd2 O12 2.297 . S
Cd2 O13 2.439 . S
O3 Cd2 2.240 . S
O3 C8 1.279 . S
O4 Cd1 2.297 . S
O4 C6 1.247 . S
O5 Cd1 2.439 . S
O5 C6 1.208 . S
C6 O4 1.247 . S
C6 O5 1.208 . S
C7 O12 1.247 . S
C7 O13 1.208 . S
C8 O0 1.315 . S
C8 O3 1.279 . S
C9 O10 1.315 . S
C9 O11 1.279 . S
O10 Cd2 2.223 . S
O10 C9 1.315 . S
O11 Cd1 2.240 . S
O11 C9 1.279 . S
O12 Cd2 2.297 . S
O12 C7 1.247 . S
O13 Cd2 2.439 . S
O13 C7 1.208 . S
O14 Cd15 2.223 . S
O14 C22 1.315 . S
Cd15 O14 2.223 . S
Cd15 O18 2.297 . S
Cd15 O19 2.439 . S
Cd15 O25 2.240 . S
Cd16 O17 2.240 . S
Cd16 O24 2.223 . S
Cd16 O26 2.297 . S
Cd16 O27 2.439 . S
O17 Cd16 2.240 . S
O17 C22 1.279 . S
O18 Cd15 2.297 . S
O18 C20 1.247 . S
O19 Cd15 2.439 . S
O19 C20 1.208 . S
C20 O18 1.247 . S
C20 O19 1.208 . S
C21 O26 1.247 . S
C21 O27 1.208 . S
C22 O14 1.315 . S
C22 O17 1.279 . S
C23 O24 1.315 . S
C23 O25 1.279 . S
O24 Cd16 2.223 . S
O24 C23 1.315 . S
O25 Cd15 2.240 . S
O25 C23 1.279 . S
O26 Cd16 2.297 . S
O26 C21 1.247 . S
O27 Cd16 2.439 . S
O27 C21 1.208 . S
O28 Cd29 2.223 . S
O28 C36 1.315 . S
Cd29 O28 2.223 . S
Cd29 O32 2.297 . S
Cd29 O33 2.439 . S
Cd29 O39 2.240 . S
Cd30 O31 2.240 . S
Cd30 O38 2.223 . S
Cd30 O40 2.297 . S
Cd30 O41 2.439 . S
O31 Cd30 2.240 . S
O31 C36 1.279 . S
O32 Cd29 2.297 . S
O32 C34 1.247 . S
O33 Cd29 2.439 . S
O33 C34 1.208 . S
C34 O32 1.247 . S
C34 O33 1.208 . S
C35 O40 1.247 . S
C35 O41 1.208 . S
C36 O28 1.315 . S
C36 O31 1.279 . S
C37 O38 1.315 . S
C37 O39 1.279 . S
O38 Cd30 2.223 . S
O38 C37 1.315 . S
O39 Cd29 2.240 . S
O39 C37 1.279 . S
O40 Cd30 2.297 . S
O40 C35 1.247 . S
O41 Cd30 2.439 . S
O41 C35 1.208 . S
O42 Cd43 2.223 . S
O42 C50 1.315 . S
Cd43 O42 2.223 . S
Cd43 O46 2.297 . S
Cd43 O47 2.439 . S
Cd43 O53 2.240 . S
Cd44 O45 2.240 . S
Cd44 O52 2.223 . S
Cd44 O54 2.297 . S
Cd44 O55 2.439 . S
O45 Cd44 2.240 . S
O45 C50 1.279 . S
O46 Cd43 2.297 . S
O46 C48 1.247 . S
O47 Cd43 2.439 . S
O47 C48 1.208 . S
C48 O46 1.247 . S
C48 O47 1.208 . S
C49 O54 1.247 . S
C49 O55 1.208 . S
C50 O42 1.315 . S
C50 O45 1.279 . S
C51 O52 1.315 . S
C51 O53 1.279 . S
O52 Cd44 2.223 . S
O52 C51 1.315 . S
O53 Cd43 2.240 . S
O53 C51 1.279 . S
O54 Cd44 2.297 . S
O54 C49 1.247 . S
O55 Cd44 2.439 . S
O55 C49 1.208 . S
O56 Cd57 2.223 . S
O56 C64 1.315 . S
Cd57 O56 2.223 . S
Cd57 O60 2.297 . S
Cd57 O61 2.439 . S
Cd57 O67 2.240 . S
Cd58 O59 2.240 . S
Cd58 O66 2.223 . S
Cd58 O68 2.297 . S
Cd58 O69 2.439 . S
O59 Cd58 2.240 . S
O59 C64 1.279 . S
O60 Cd57 2.297 . S
O60 C62 1.247 . S
O61 Cd57 2.439 . S
O61 C62 1.208 . S
C62 O60 1.247 . S
C62 O61 1.208 . S
C63 O68 1.247 . S
C63 O69 1.208 . S
C64 O56 1.315 . S
C64 O59 1.279 . S
C65 O66 1.315 . S
C65 O67 1.279 . S
O66 Cd58 2.223 . S
O66 C65 1.315 . S
O67 Cd57 2.240 . S
O67 C65 1.279 . S
O68 Cd58 2.297 . S
O68 C63 1.247 . S
O69 Cd58 2.439 . S
O69 C63 1.208 . S
O70 Cd71 2.223 . S
O70 C78 1.315 . S
Cd71 O70 2.223 . S
Cd71 O74 2.297 . S
Cd71 O75 2.439 . S
Cd71 O81 2.240 . S
Cd72 O73 2.240 . S
Cd72 O80 2.223 . S
Cd72 O82 2.297 . S
Cd72 O83 2.439 . S
O73 Cd72 2.240 . S
O73 C78 1.279 . S
O74 Cd71 2.297 . S
O74 C76 1.247 . S
O75 Cd71 2.439 . S
O75 C76 1.208 . S
C76 O74 1.247 . S
C76 O75 1.208 . S
C77 O82 1.247 . S
C77 O83 1.208 . S
C78 O70 1.315 . S
C78 O73 1.279 . S
C79 O80 1.315 . S
C79 O81 1.279 . S
O80 Cd72 2.223 . S
O80 C79 1.315 . S
O81 Cd71 2.240 . S
O81 C79 1.279 . S
O82 Cd72 2.297 . S
O82 C77 1.247 . S
O83 Cd72 2.439 . S
O83 C77 1.208 . S
O84 Cd85 2.223 . S
O84 C92 1.315 . S
Cd85 O84 2.223 . S
Cd85 O88 2.297 . S
Cd85 O89 2.439 . S
Cd85 O95 2.240 . S
Cd86 O87 2.240 . S
Cd86 O94 2.223 . S
Cd86 O96 2.297 . S
Cd86 O97 2.439 . S
O87 Cd86 2.240 . S
O87 C92 1.279 . S
O88 Cd85 2.297 . S
O88 C90 1.247 . S
O89 Cd85 2.439 . S
O89 C90 1.208 . S
C90 O88 1.247 . S
C90 O89 1.208 . S
C91 O96 1.247 . S
C91 O97 1.208 . S
C92 O84 1.315 . S
C92 O87 1.279 . S
C93 O94 1.315 . S
C93 O95 1.279 . S
O94 Cd86 2.223 . S
O94 C93 1.315 . S
O95 Cd85 2.240 . S
O95 C93 1.279 . S
O96 Cd86 2.297 . S
O96 C91 1.247 . S
O97 Cd86 2.439 . S
O97 C91 1.208 . S
O98 Cd99 2.223 . S
O98 C106 1.315 . S
Cd99 O98 2.223 . S
Cd99 O102 2.297 . S
Cd99 O103 2.439 . S
Cd99 O109 2.240 . S
Cd100 O101 2.240 . S
Cd100 O108 2.223 . S
Cd100 O110 2.297 . S
Cd100 O111 2.439 . S
O101 Cd100 2.240 . S
O101 C106 1.279 . S
O102 Cd99 2.297 . S
O102 C104 1.247 . S
O103 Cd99 2.439 . S
O103 C104 1.208 . S
C104 O102 1.247 . S
C104 O103 1.208 . S
C105 O110 1.247 . S
C105 O111 1.208 . S
C106 O98 1.315 . S
C106 O101 1.279 . S
C107 O108 1.315 . S
C107 O109 1.279 . S
O108 Cd100 2.223 . S
O108 C107 1.315 . S
O109 Cd99 2.240 . S
O109 C107 1.279 . S
O110 Cd100 2.297 . S
O110 C105 1.247 . S
O111 Cd100 2.439 . S
O111 C105 1.208 . S
O112 Cd113 2.223 . S
O112 C120 1.315 . S
Cd113 O112 2.223 . S
Cd113 O116 2.297 . S
Cd113 O117 2.439 . S
Cd113 O123 2.240 . S
Cd114 O115 2.240 . S
Cd114 O122 2.223 . S
Cd114 O124 2.297 . S
Cd114 O125 2.439 . S
O115 Cd114 2.240 . S
O115 C120 1.279 . S
O116 Cd113 2.297 . S
O116 C118 1.247 . S
O117 Cd113 2.439 . S
O117 C118 1.208 . S
C118 O116 1.247 . S
C118 O117 1.208 . S
C119 O124 1.247 . S
C119 O125 1.208 . S
C120 O112 1.315 . S
C120 O115 1.279 . S
C121 O122 1.315 . S
C121 O123 1.279 . S
O122 Cd114 2.223 . S
O122 C121 1.315 . S
O123 Cd113 2.240 . S
O123 C121 1.279 . S
O124 Cd114 2.297 . S
O124 C119 1.247 . S
O125 Cd114 2.439 . S
O125 C119 1.208 . S
O126 Cd127 2.223 . S
O126 C134 1.315 . S
Cd127 O126 2.223 . S
Cd127 O130 2.297 . S
Cd127 O131 2.439 . S
Cd127 O137 2.240 . S
Cd128 O129 2.240 . S
Cd128 O136 2.223 . S
Cd128 O138 2.297 . S
Cd128 O139 2.439 . S
O129 Cd128 2.240 . S
O129 C134 1.279 . S
O130 Cd127 2.297 . S
O130 C132 1.247 . S
O131 Cd127 2.439 . S
O131 C132 1.208 . S
C132 O130 1.247 . S
C132 O131 1.208 . S
C133 O138 1.247 . S
C133 O139 1.208 . S
C134 O126 1.315 . S
C134 O129 1.279 . S
C135 O136 1.315 . S
C135 O137 1.279 . S
O136 Cd128 2.223 . S
O136 C135 1.315 . S
O137 Cd127 2.240 . S
O137 C135 1.279 . S
O138 Cd128 2.297 . S
O138 C133 1.247 . S
O139 Cd128 2.439 . S
O139 C133 1.208 . S
O140 Cd141 2.223 . S
O140 C148 1.315 . S
Cd141 O140 2.223 . S
Cd141 O144 2.297 . S
Cd141 O145 2.439 . S
Cd141 O151 2.240 . S
Cd142 O143 2.240 . S
Cd142 O150 2.223 . S
Cd142 O152 2.297 . S
Cd142 O153 2.439 . S
O143 Cd142 2.240 . S
O143 C148 1.279 . S
O144 Cd141 2.297 . S
O144 C146 1.247 . S
O145 Cd141 2.439 . S
O145 C146 1.208 . S
C146 O144 1.247 . S
C146 O145 1.208 . S
C147 O152 1.247 . S
C147 O153 1.208 . S
C148 O140 1.315 . S
C148 O143 1.279 . S
C149 O150 1.315 . S
C149 O151 1.279 . S
O150 Cd142 2.223 . S
O150 C149 1.315 . S
O151 Cd141 2.240 . S
O151 C149 1.279 . S
O152 Cd142 2.297 . S
O152 C147 1.247 . S
O153 Cd142 2.439 . S
O153 C147 1.208 . S
O154 Cd155 2.223 . S
O154 C162 1.315 . S
Cd155 O154 2.223 . S
Cd155 O158 2.297 . S
Cd155 O159 2.439 . S
Cd155 O165 2.240 . S
Cd156 O157 2.240 . S
Cd156 O164 2.223 . S
Cd156 O166 2.297 . S
Cd156 O167 2.439 . S
O157 Cd156 2.240 . S
O157 C162 1.279 . S
O158 Cd155 2.297 . S
O158 C160 1.247 . S
O159 Cd155 2.439 . S
O159 C160 1.208 . S
C160 O158 1.247 . S
C160 O159 1.208 . S
C161 O166 1.247 . S
C161 O167 1.208 . S
C162 O154 1.315 . S
C162 O157 1.279 . S
C163 O164 1.315 . S
C163 O165 1.279 . S
O164 Cd156 2.223 . S
O164 C163 1.315 . S
O165 Cd155 2.240 . S
O165 C163 1.279 . S
O166 Cd156 2.297 . S
O166 C161 1.247 . S
O167 Cd156 2.439 . S
O167 C161 1.208 . S
O168 Cd169 2.223 . S
O168 C176 1.315 . S
Cd169 O168 2.223 . S
Cd169 O172 2.297 . S
Cd169 O173 2.439 . S
Cd169 O179 2.240 . S
Cd170 O171 2.240 . S
Cd170 O178 2.223 . S
Cd170 O180 2.297 . S
Cd170 O181 2.439 . S
O171 Cd170 2.240 . S
O171 C176 1.279 . S
O172 Cd169 2.297 . S
O172 C174 1.247 . S
O173 Cd169 2.439 . S
O173 C174 1.208 . S
C174 O172 1.247 . S
C174 O173 1.208 . S
C175 O180 1.247 . S
C175 O181 1.208 . S
C176 O168 1.315 . S
C176 O171 1.279 . S
C177 O178 1.315 . S
C177 O179 1.279 . S
O178 Cd170 2.223 . S
O178 C177 1.315 . S
O179 Cd169 2.240 . S
O179 C177 1.279 . S
O180 Cd170 2.297 . S
O180 C175 1.247 . S
O181 Cd170 2.439 . S
O181 C175 1.208 . S
O182 Cd183 2.223 . S
O182 C190 1.315 . S
Cd183 O182 2.223 . S
Cd183 O186 2.297 . S
Cd183 O187 2.439 . S
Cd183 O193 2.240 . S
Cd184 O185 2.240 . S
Cd184 O192 2.223 . S
Cd184 O194 2.297 . S
Cd184 O195 2.439 . S
O185 Cd184 2.240 . S
O185 C190 1.279 . S
O186 Cd183 2.297 . S
O186 C188 1.247 . S
O187 Cd183 2.439 . S
O187 C188 1.208 . S
C188 O186 1.247 . S
C188 O187 1.208 . S
C189 O194 1.247 . S
C189 O195 1.208 . S
C190 O182 1.315 . S
C190 O185 1.279 . S
C191 O192 1.315 . S
C191 O193 1.279 . S
O192 Cd184 2.223 . S
O192 C191 1.315 . S
O193 Cd183 2.240 . S
O193 C191 1.279 . S
O194 Cd184 2.297 . S
O194 C189 1.247 . S
O195 Cd184 2.439 . S
O195 C189 1.208 . S
O196 Cd197 2.223 . S
O196 C204 1.315 . S
Cd197 O196 2.223 . S
Cd197 O200 2.297 . S
Cd197 O201 2.439 . S
Cd197 O207 2.240 . S
Cd198 O199 2.240 . S
Cd198 O206 2.223 . S
Cd198 O208 2.297 . S
Cd198 O209 2.439 . S
O199 Cd198 2.240 . S
O199 C204 1.279 . S
O200 Cd197 2.297 . S
O200 C202 1.247 . S
O201 Cd197 2.439 . S
O201 C202 1.208 . S
C202 O200 1.247 . S
C202 O201 1.208 . S
C203 O208 1.247 . S
C203 O209 1.208 . S
C204 O196 1.315 . S
C204 O199 1.279 . S
C205 O206 1.315 . S
C205 O207 1.279 . S
O206 Cd198 2.223 . S
O206 C205 1.315 . S
O207 Cd197 2.240 . S
O207 C205 1.279 . S
O208 Cd198 2.297 . S
O208 C203 1.247 . S
O209 Cd198 2.439 . S
O209 C203 1.208 . S
O210 Cd211 2.223 . S
O210 C218 1.315 . S
Cd211 O210 2.223 . S
Cd211 O214 2.297 . S
Cd211 O215 2.439 . S
Cd211 O221 2.240 . S
Cd212 O213 2.240 . S
Cd212 O220 2.223 . S
Cd212 O222 2.297 . S
Cd212 O223 2.439 . S
O213 Cd212 2.240 . S
O213 C218 1.279 . S
O214 Cd211 2.297 . S
O214 C216 1.247 . S
O215 Cd211 2.439 . S
O215 C216 1.208 . S
C216 O214 1.247 . S
C216 O215 1.208 . S
C217 O222 1.247 . S
C217 O223 1.208 . S
C218 O210 1.315 . S
C218 O213 1.279 . S
C219 O220 1.315 . S
C219 O221 1.279 . S
O220 Cd212 2.223 . S
O220 C219 1.315 . S
O221 Cd211 2.240 . S
O221 C219 1.279 . S
O222 Cd212 2.297 . S
O222 C217 1.247 . S
O223 Cd212 2.439 . S
O223 C217 1.208 . S
O224 Cd225 2.223 . S
O224 C232 1.315 . S
Cd225 O224 2.223 . S
Cd225 O228 2.297 . S
Cd225 O229 2.439 . S
Cd225 O235 2.240 . S
Cd226 O227 2.240 . S
Cd226 O234 2.223 . S
Cd226 O236 2.297 . S
Cd226 O237 2.439 . S
O227 Cd226 2.240 . S
O227 C232 1.279 . S
O228 Cd225 2.297 . S
O228 C230 1.247 . S
O229 Cd225 2.439 . S
O229 C230 1.208 . S
C230 O228 1.247 . S
C230 O229 1.208 . S
C231 O236 1.247 . S
C231 O237 1.208 . S
C232 O224 1.315 . S
C232 O227 1.279 . S
C233 O234 1.315 . S
C233 O235 1.279 . S
O234 Cd226 2.223 . S
O234 C233 1.315 . S
O235 Cd225 2.240 . S
O235 C233 1.279 . S
O236 Cd226 2.297 . S
O236 C231 1.247 . S
O237 Cd226 2.439 . S
O237 C231 1.208 . S
O238 Cd239 2.223 . S
O238 C246 1.315 . S
Cd239 O238 2.223 . S
Cd239 O242 2.297 . S
Cd239 O243 2.439 . S
Cd239 O249 2.240 . S
Cd240 O241 2.240 . S
Cd240 O248 2.223 . S
Cd240 O250 2.297 . S
Cd240 O251 2.439 . S
O241 Cd240 2.240 . S
O241 C246 1.279 . S
O242 Cd239 2.297 . S
O242 C244 1.247 . S
O243 Cd239 2.439 . S
O243 C244 1.208 . S
C244 O242 1.247 . S
C244 O243 1.208 . S
C245 O250 1.247 . S
C245 O251 1.208 . S
C246 O238 1.315 . S
C246 O241 1.279 . S
C247 O248 1.315 . S
C247 O249 1.279 . S
O248 Cd240 2.223 . S
O248 C247 1.315 . S
O249 Cd239 2.240 . S
O249 C247 1.279 . S
O250 Cd240 2.297 . S
O250 C245 1.247 . S
O251 Cd240 2.439 . S
O251 C245 1.208 . S
O252 Cd253 2.223 . S
O252 C260 1.315 . S
Cd253 O252 2.223 . S
Cd253 O256 2.297 . S
Cd253 O257 2.439 . S
Cd253 O263 2.240 . S
Cd254 O255 2.240 . S
Cd254 O262 2.223 . S
Cd254 O264 2.297 . S
Cd254 O265 2.439 . S
O255 Cd254 2.240 . S
O255 C260 1.279 . S
O256 Cd253 2.297 . S
O256 C258 1.247 . S
O257 Cd253 2.439 . S
O257 C258 1.208 . S
C258 O256 1.247 . S
C258 O257 1.208 . S
C259 O264 1.247 . S
C259 O265 1.208 . S
C260 O252 1.315 . S
C260 O255 1.279 . S
C261 O262 1.315 . S
C261 O263 1.279 . S
O262 Cd254 2.223 . S
O262 C261 1.315 . S
O263 Cd253 2.240 . S
O263 C261 1.279 . S
O264 Cd254 2.297 . S
O264 C259 1.247 . S
O265 Cd254 2.439 . S
O265 C259 1.208 . S
O266 Cd267 2.223 . S
O266 C274 1.315 . S
Cd267 O266 2.223 . S
Cd267 O270 2.297 . S
Cd267 O271 2.439 . S
Cd267 O277 2.240 . S
Cd268 O269 2.240 . S
Cd268 O276 2.223 . S
Cd268 O278 2.297 . S
Cd268 O279 2.439 . S
O269 Cd268 2.240 . S
O269 C274 1.279 . S
O270 Cd267 2.297 . S
O270 C272 1.247 . S
O271 Cd267 2.439 . S
O271 C272 1.208 . S
C272 O270 1.247 . S
C272 O271 1.208 . S
C273 O278 1.247 . S
C273 O279 1.208 . S
C274 O266 1.315 . S
C274 O269 1.279 . S
C275 O276 1.315 . S
C275 O277 1.279 . S
O276 Cd268 2.223 . S
O276 C275 1.315 . S
O277 Cd267 2.240 . S
O277 C275 1.279 . S
O278 Cd268 2.297 . S
O278 C273 1.247 . S
O279 Cd268 2.439 . S
O279 C273 1.208 . S
O280 Cd281 2.223 . S
O280 C288 1.315 . S
Cd281 O280 2.223 . S
Cd281 O284 2.297 . S
Cd281 O285 2.439 . S
Cd281 O291 2.240 . S
Cd282 O283 2.240 . S
Cd282 O290 2.223 . S
Cd282 O292 2.297 . S
Cd282 O293 2.439 . S
O283 Cd282 2.240 . S
O283 C288 1.279 . S
O284 Cd281 2.297 . S
O284 C286 1.247 . S
O285 Cd281 2.439 . S
O285 C286 1.208 . S
C286 O284 1.247 . S
C286 O285 1.208 . S
C287 O292 1.247 . S
C287 O293 1.208 . S
C288 O280 1.315 . S
C288 O283 1.279 . S
C289 O290 1.315 . S
C289 O291 1.279 . S
O290 Cd282 2.223 . S
O290 C289 1.315 . S
O291 Cd281 2.240 . S
O291 C289 1.279 . S
O292 Cd282 2.297 . S
O292 C287 1.247 . S
O293 Cd282 2.439 . S
O293 C287 1.208 . S
O294 Cd295 2.223 . S
O294 C302 1.315 . S
Cd295 O294 2.223 . S
Cd295 O298 2.297 . S
Cd295 O299 2.439 . S
Cd295 O305 2.240 . S
Cd296 O297 2.240 . S
Cd296 O304 2.223 . S
Cd296 O306 2.297 . S
Cd296 O307 2.439 . S
O297 Cd296 2.240 . S
O297 C302 1.279 . S
O298 Cd295 2.297 . S
O298 C300 1.247 . S
O299 Cd295 2.439 . S
O299 C300 1.208 . S
C300 O298 1.247 . S
C300 O299 1.208 . S
C301 O306 1.247 . S
C301 O307 1.208 . S
C302 O294 1.315 . S
C302 O297 1.279 . S
C303 O304 1.315 . S
C303 O305 1.279 . S
O304 Cd296 2.223 . S
O304 C303 1.315 . S
O305 Cd295 2.240 . S
O305 C303 1.279 . S
O306 Cd296 2.297 . S
O306 C301 1.247 . S
O307 Cd296 2.439 . S
O307 C301 1.208 . S
O308 Cd309 2.223 . S
O308 C316 1.315 . S
Cd309 O308 2.223 . S
Cd309 O312 2.297 . S
Cd309 O313 2.439 . S
Cd309 O319 2.240 . S
Cd310 O311 2.240 . S
Cd310 O318 2.223 . S
Cd310 O320 2.297 . S
Cd310 O321 2.439 . S
O311 Cd310 2.240 . S
O311 C316 1.279 . S
O312 Cd309 2.297 . S
O312 C314 1.247 . S
O313 Cd309 2.439 . S
O313 C314 1.208 . S
C314 O312 1.247 . S
C314 O313 1.208 . S
C315 O320 1.247 . S
C315 O321 1.208 . S
C316 O308 1.315 . S
C316 O311 1.279 . S
C317 O318 1.315 . S
C317 O319 1.279 . S
O318 Cd310 2.223 . S
O318 C317 1.315 . S
O319 Cd309 2.240 . S
O319 C317 1.279 . S
O320 Cd310 2.297 . S
O320 C315 1.247 . S
O321 Cd310 2.439 . S
O321 C315 1.208 . S
O322 Cd323 2.223 . S
O322 C330 1.315 . S
Cd323 O322 2.223 . S
Cd323 O326 2.297 . S
Cd323 O327 2.439 . S
Cd323 O333 2.240 . S
Cd324 O325 2.240 . S
Cd324 O332 2.223 . S
Cd324 O334 2.297 . S
Cd324 O335 2.439 . S
O325 Cd324 2.240 . S
O325 C330 1.279 . S
O326 Cd323 2.297 . S
O326 C328 1.247 . S
O327 Cd323 2.439 . S
O327 C328 1.208 . S
C328 O326 1.247 . S
C328 O327 1.208 . S
C329 O334 1.247 . S
C329 O335 1.208 . S
C330 O322 1.315 . S
C330 O325 1.279 . S
C331 O332 1.315 . S
C331 O333 1.279 . S
O332 Cd324 2.223 . S
O332 C331 1.315 . S
O333 Cd323 2.240 . S
O333 C331 1.279 . S
O334 Cd324 2.297 . S
O334 C329 1.247 . S
O335 Cd324 2.439 . S
O335 C329 1.208 . S
O336 Cd337 2.223 . S
O336 C344 1.315 . S
Cd337 O336 2.223 . S
Cd337 O340 2.297 . S
Cd337 O341 2.439 . S
Cd337 O347 2.240 . S
Cd338 O339 2.240 . S
Cd338 O346 2.223 . S
Cd338 O348 2.297 . S
Cd338 O349 2.439 . S
O339 Cd338 2.240 . S
O339 C344 1.279 . S
O340 Cd337 2.297 . S
O340 C342 1.247 . S
O341 Cd337 2.439 . S
O341 C342 1.208 . S
C342 O340 1.247 . S
C342 O341 1.208 . S
C343 O348 1.247 . S
C343 O349 1.208 . S
C344 O336 1.315 . S
C344 O339 1.279 . S
C345 O346 1.315 . S
C345 O347 1.279 . S
O346 Cd338 2.223 . S
O346 C345 1.315 . S
O347 Cd337 2.240 . S
O347 C345 1.279 . S
O348 Cd338 2.297 . S
O348 C343 1.247 . S
O349 Cd338 2.439 . S
O349 C343 1.208 . S
O350 Cd351 2.223 . S
O350 C358 1.315 . S
Cd351 O350 2.223 . S
Cd351 O354 2.297 . S
Cd351 O355 2.439 . S
Cd351 O361 2.240 . S
Cd352 O353 2.240 . S
Cd352 O360 2.223 . S
Cd352 O362 2.297 . S
Cd352 O363 2.439 . S
O353 Cd352 2.240 . S
O353 C358 1.279 . S
O354 Cd351 2.297 . S
O354 C356 1.247 . S
O355 Cd351 2.439 . S
O355 C356 1.208 . S
C356 O354 1.247 . S
C356 O355 1.208 . S
C357 O362 1.247 . S
C357 O363 1.208 . S
C358 O350 1.315 . S
C358 O353 1.279 . S
C359 O360 1.315 . S
C359 O361 1.279 . S
O360 Cd352 2.223 . S
O360 C359 1.315 . S
O361 Cd351 2.240 . S
O361 C359 1.279 . S
O362 Cd352 2.297 . S
O362 C357 1.247 . S
O363 Cd352 2.439 . S
O363 C357 1.208 . S
O364 Cd365 2.223 . S
O364 C372 1.315 . S
Cd365 O364 2.223 . S
Cd365 O368 2.297 . S
Cd365 O369 2.439 . S
Cd365 O375 2.240 . S
Cd366 O367 2.240 . S
Cd366 O374 2.223 . S
Cd366 O376 2.297 . S
Cd366 O377 2.439 . S
O367 Cd366 2.240 . S
O367 C372 1.279 . S
O368 Cd365 2.297 . S
O368 C370 1.247 . S
O369 Cd365 2.439 . S
O369 C370 1.208 . S
C370 O368 1.247 . S
C370 O369 1.208 . S
C371 O376 1.247 . S
C371 O377 1.208 . S
C372 O364 1.315 . S
C372 O367 1.279 . S
C373 O374 1.315 . S
C373 O375 1.279 . S
O374 Cd366 2.223 . S
O374 C373 1.315 . S
O375 Cd365 2.240 . S
O375 C373 1.279 . S
O376 Cd366 2.297 . S
O376 C371 1.247 . S
O377 Cd366 2.439 . S
O377 C371 1.208 . S
O378 Cd379 2.223 . S
O378 C386 1.315 . S
Cd379 O378 2.223 . S
Cd379 O382 2.297 . S
Cd379 O383 2.439 . S
Cd379 O389 2.240 . S
Cd380 O381 2.240 . S
Cd380 O388 2.223 . S
Cd380 O390 2.297 . S
Cd380 O391 2.439 . S
O381 Cd380 2.240 . S
O381 C386 1.279 . S
O382 Cd379 2.297 . S
O382 C384 1.247 . S
O383 Cd379 2.439 . S
O383 C384 1.208 . S
C384 O382 1.247 . S
C384 O383 1.208 . S
C385 O390 1.247 . S
C385 O391 1.208 . S
C386 O378 1.315 . S
C386 O381 1.279 . S
C387 O388 1.315 . S
C387 O389 1.279 . S
O388 Cd380 2.223 . S
O388 C387 1.315 . S
O389 Cd379 2.240 . S
O389 C387 1.279 . S
O390 Cd380 2.297 . S
O390 C385 1.247 . S
O391 Cd380 2.439 . S
O391 C385 1.208 . S
O392 Cd393 2.223 . S
O392 C400 1.315 . S
Cd393 O392 2.223 . S
Cd393 O396 2.297 . S
Cd393 O397 2.439 . S
Cd393 O403 2.240 . S
Cd394 O395 2.240 . S
Cd394 O402 2.223 . S
Cd394 O404 2.297 . S
Cd394 O405 2.439 . S
O395 Cd394 2.240 . S
O395 C400 1.279 . S
O396 Cd393 2.297 . S
O396 C398 1.247 . S
O397 Cd393 2.439 . S
O397 C398 1.208 . S
C398 O396 1.247 . S
C398 O397 1.208 . S
C399 O404 1.247 . S
C399 O405 1.208 . S
C400 O392 1.315 . S
C400 O395 1.279 . S
C401 O402 1.315 . S
C401 O403 1.279 . S
O402 Cd394 2.223 . S
O402 C401 1.315 . S
O403 Cd393 2.240 . S
O403 C401 1.279 . S
O404 Cd394 2.297 . S
O404 C399 1.247 . S
O405 Cd394 2.439 . S
O405 C399 1.208 . S
O406 Cd407 2.223 . S
O406 C414 1.315 . S
Cd407 O406 2.223 . S
Cd407 O410 2.297 . S
Cd407 O411 2.439 . S
Cd407 O417 2.240 . S
Cd408 O409 2.240 . S
Cd408 O416 2.223 . S
Cd408 O418 2.297 . S
Cd408 O419 2.439 . S
O409 Cd408 2.240 . S
O409 C414 1.279 . S
O410 Cd407 2.297 . S
O410 C412 1.247 . S
O411 Cd407 2.439 . S
O411 C412 1.208 . S
C412 O410 1.247 . S
C412 O411 1.208 . S
C413 O418 1.247 . S
C413 O419 1.208 . S
C414 O406 1.315 . S
C414 O409 1.279 . S
C415 O416 1.315 . S
C415 O417 1.279 . S
O416 Cd408 2.223 . S
O416 C415 1.315 . S
O417 Cd407 2.240 . S
O417 C415 1.279 . S
O418 Cd408 2.297 . S
O418 C413 1.247 . S
O419 Cd408 2.439 . S
O419 C413 1.208 . S
O420 Cd421 2.223 . S
O420 C428 1.315 . S
Cd421 O420 2.223 . S
Cd421 O424 2.297 . S
Cd421 O425 2.439 . S
Cd421 O431 2.240 . S
Cd422 O423 2.240 . S
Cd422 O430 2.223 . S
Cd422 O432 2.297 . S
Cd422 O433 2.439 . S
O423 Cd422 2.240 . S
O423 C428 1.279 . S
O424 Cd421 2.297 . S
O424 C426 1.247 . S
O425 Cd421 2.439 . S
O425 C426 1.208 . S
C426 O424 1.247 . S
C426 O425 1.208 . S
C427 O432 1.247 . S
C427 O433 1.208 . S
C428 O420 1.315 . S
C428 O423 1.279 . S
C429 O430 1.315 . S
C429 O431 1.279 . S
O430 Cd422 2.223 . S
O430 C429 1.315 . S
O431 Cd421 2.240 . S
O431 C429 1.279 . S
O432 Cd422 2.297 . S
O432 C427 1.247 . S
O433 Cd422 2.439 . S
O433 C427 1.208 . S
O434 Cd435 2.223 . S
O434 C442 1.315 . S
Cd435 O434 2.223 . S
Cd435 O438 2.297 . S
Cd435 O439 2.439 . S
Cd435 O445 2.240 . S
Cd436 O437 2.240 . S
Cd436 O444 2.223 . S
Cd436 O446 2.297 . S
Cd436 O447 2.439 . S
O437 Cd436 2.240 . S
O437 C442 1.279 . S
O438 Cd435 2.297 . S
O438 C440 1.247 . S
O439 Cd435 2.439 . S
O439 C440 1.208 . S
C440 O438 1.247 . S
C440 O439 1.208 . S
C441 O446 1.247 . S
C441 O447 1.208 . S
C442 O434 1.315 . S
C442 O437 1.279 . S
C443 O444 1.315 . S
C443 O445 1.279 . S
O444 Cd436 2.223 . S
O444 C443 1.315 . S
O445 Cd435 2.240 . S
O445 C443 1.279 . S
O446 Cd436 2.297 . S
O446 C441 1.247 . S
O447 Cd436 2.439 . S
O447 C441 1.208 . S
O448 Cd449 2.223 . S
O448 C456 1.315 . S
Cd449 O448 2.223 . S
Cd449 O452 2.297 . S
Cd449 O453 2.439 . S
Cd449 O459 2.240 . S
Cd450 O451 2.240 . S
Cd450 O458 2.223 . S
Cd450 O460 2.297 . S
Cd450 O461 2.439 . S
O451 Cd450 2.240 . S
O451 C456 1.279 . S
O452 Cd449 2.297 . S
O452 C454 1.247 . S
O453 Cd449 2.439 . S
O453 C454 1.208 . S
C454 O452 1.247 . S
C454 O453 1.208 . S
C455 O460 1.247 . S
C455 O461 1.208 . S
C456 O448 1.315 . S
C456 O451 1.279 . S
C457 O458 1.315 . S
C457 O459 1.279 . S
O458 Cd450 2.223 . S
O458 C457 1.315 . S
O459 Cd449 2.240 . S
O459 C457 1.279 . S
O460 Cd450 2.297 . S
O460 C455 1.247 . S
O461 Cd450 2.439 . S
O461 C455 1.208 . S
O462 Cd463 2.223 . S
O462 C470 1.315 . S
Cd463 O462 2.223 . S
Cd463 O466 2.297 . S
Cd463 O467 2.439 . S
Cd463 O473 2.240 . S
Cd464 O465 2.240 . S
Cd464 O472 2.223 . S
Cd464 O474 2.297 . S
Cd464 O475 2.439 . S
O465 Cd464 2.240 . S
O465 C470 1.279 . S
O466 Cd463 2.297 . S
O466 C468 1.247 . S
O467 Cd463 2.439 . S
O467 C468 1.208 . S
C468 O466 1.247 . S
C468 O467 1.208 . S
C469 O474 1.247 . S
C469 O475 1.208 . S
C470 O462 1.315 . S
C470 O465 1.279 . S
C471 O472 1.315 . S
C471 O473 1.279 . S
O472 Cd464 2.223 . S
O472 C471 1.315 . S
O473 Cd463 2.240 . S
O473 C471 1.279 . S
O474 Cd464 2.297 . S
O474 C469 1.247 . S
O475 Cd464 2.439 . S
O475 C469 1.208 . S
O476 Cd477 2.223 . S
O476 C484 1.315 . S
Cd477 O476 2.223 . S
Cd477 O480 2.297 . S
Cd477 O481 2.439 . S
Cd477 O487 2.240 . S
Cd478 O479 2.240 . S
Cd478 O486 2.223 . S
Cd478 O488 2.297 . S
Cd478 O489 2.439 . S
O479 Cd478 2.240 . S
O479 C484 1.279 . S
O480 Cd477 2.297 . S
O480 C482 1.247 . S
O481 Cd477 2.439 . S
O481 C482 1.208 . S
C482 O480 1.247 . S
C482 O481 1.208 . S
C483 O488 1.247 . S
C483 O489 1.208 . S
C484 O476 1.315 . S
C484 O479 1.279 . S
C485 O486 1.315 . S
C485 O487 1.279 . S
O486 Cd478 2.223 . S
O486 C485 1.315 . S
O487 Cd477 2.240 . S
O487 C485 1.279 . S
O488 Cd478 2.297 . S
O488 C483 1.247 . S
O489 Cd478 2.439 . S
O489 C483 1.208 . S
O490 Cd491 2.223 . S
O490 C498 1.315 . S
Cd491 O490 2.223 . S
Cd491 O494 2.297 . S
Cd491 O495 2.439 . S
Cd491 O501 2.240 . S
Cd492 O493 2.240 . S
Cd492 O500 2.223 . S
Cd492 O502 2.297 . S
Cd492 O503 2.439 . S
O493 Cd492 2.240 . S
O493 C498 1.279 . S
O494 Cd491 2.297 . S
O494 C496 1.247 . S
O495 Cd491 2.439 . S
O495 C496 1.208 . S
C496 O494 1.247 . S
C496 O495 1.208 . S
C497 O502 1.247 . S
C497 O503 1.208 . S
C498 O490 1.315 . S
C498 O493 1.279 . S
C499 O500 1.315 . S
C499 O501 1.279 . S
O500 Cd492 2.223 . S
O500 C499 1.315 . S
O501 Cd491 2.240 . S
O501 C499 1.279 . S
O502 Cd492 2.297 . S
O502 C497 1.247 . S
O503 Cd492 2.439 . S
O503 C497 1.208 . S
O504 Cd505 2.223 . S
O504 C512 1.315 . S
Cd505 O504 2.223 . S
Cd505 O508 2.297 . S
Cd505 O509 2.439 . S
Cd505 O515 2.240 . S
Cd506 O507 2.240 . S
Cd506 O514 2.223 . S
Cd506 O516 2.297 . S
Cd506 O517 2.439 . S
O507 Cd506 2.240 . S
O507 C512 1.279 . S
O508 Cd505 2.297 . S
O508 C510 1.247 . S
O509 Cd505 2.439 . S
O509 C510 1.208 . S
C510 O508 1.247 . S
C510 O509 1.208 . S
C511 O516 1.247 . S
C511 O517 1.208 . S
C512 O504 1.315 . S
C512 O507 1.279 . S
C513 O514 1.315 . S
C513 O515 1.279 . S
O514 Cd506 2.223 . S
O514 C513 1.315 . S
O515 Cd505 2.240 . S
O515 C513 1.279 . S
O516 Cd506 2.297 . S
O516 C511 1.247 . S
O517 Cd506 2.439 . S
O517 C511 1.208 . S
O518 Cd519 2.223 . S
O518 C526 1.315 . S
Cd519 O518 2.223 . S
Cd519 O522 2.297 . S
Cd519 O523 2.439 . S
Cd519 O529 2.240 . S
Cd520 O521 2.240 . S
Cd520 O528 2.223 . S
Cd520 O530 2.297 . S
Cd520 O531 2.439 . S
O521 Cd520 2.240 . S
O521 C526 1.279 . S
O522 Cd519 2.297 . S
O522 C524 1.247 . S
O523 Cd519 2.439 . S
O523 C524 1.208 . S
C524 O522 1.247 . S
C524 O523 1.208 . S
C525 O530 1.247 . S
C525 O531 1.208 . S
C526 O518 1.315 . S
C526 O521 1.279 . S
C527 O528 1.315 . S
C527 O529 1.279 . S
O528 Cd520 2.223 . S
O528 C527 1.315 . S
O529 Cd519 2.240 . S
O529 C527 1.279 . S
O530 Cd520 2.297 . S
O530 C525 1.247 . S
O531 Cd520 2.439 . S
O531 C525 1.208 . S
O532 Cd533 2.223 . S
O532 C540 1.315 . S
Cd533 O532 2.223 . S
Cd533 O536 2.297 . S
Cd533 O537 2.439 . S
Cd533 O543 2.240 . S
Cd534 O535 2.240 . S
Cd534 O542 2.223 . S
Cd534 O544 2.297 . S
Cd534 O545 2.439 . S
O535 Cd534 2.240 . S
O535 C540 1.279 . S
O536 Cd533 2.297 . S
O536 C538 1.247 . S
O537 Cd533 2.439 . S
O537 C538 1.208 . S
C538 O536 1.247 . S
C538 O537 1.208 . S
C539 O544 1.247 . S
C539 O545 1.208 . S
C540 O532 1.315 . S
C540 O535 1.279 . S
C541 O542 1.315 . S
C541 O543 1.279 . S
O542 Cd534 2.223 . S
O542 C541 1.315 . S
O543 Cd533 2.240 . S
O543 C541 1.279 . S
O544 Cd534 2.297 . S
O544 C539 1.247 . S
O545 Cd534 2.439 . S
O545 C539 1.208 . S
O546 Cd547 2.223 . S
O546 C554 1.315 . S
Cd547 O546 2.223 . S
Cd547 O550 2.297 . S
Cd547 O551 2.439 . S
Cd547 O557 2.240 . S
Cd548 O549 2.240 . S
Cd548 O556 2.223 . S
Cd548 O558 2.297 . S
Cd548 O559 2.439 . S
O549 Cd548 2.240 . S
O549 C554 1.279 . S
O550 Cd547 2.297 . S
O550 C552 1.247 . S
O551 Cd547 2.439 . S
O551 C552 1.208 . S
C552 O550 1.247 . S
C552 O551 1.208 . S
C553 O558 1.247 . S
C553 O559 1.208 . S
C554 O546 1.315 . S
C554 O549 1.279 . S
C555 O556 1.315 . S
C555 O557 1.279 . S
O556 Cd548 2.223 . S
O556 C555 1.315 . S
O557 Cd547 2.240 . S
O557 C555 1.279 . S
O558 Cd548 2.297 . S
O558 C553 1.247 . S
O559 Cd548 2.439 . S
O559 C553 1.208 . S
O560 Cd561 2.223 . S
O560 C568 1.315 . S
Cd561 O560 2.223 . S
Cd561 O564 2.297 . S
Cd561 O565 2.439 . S
Cd561 O571 2.240 . S
Cd562 O563 2.240 . S
Cd562 O570 2.223 . S
Cd562 O572 2.297 . S
Cd562 O573 2.439 . S
O563 Cd562 2.240 . S
O563 C568 1.279 . S
O564 Cd561 2.297 . S
O564 C566 1.247 . S
O565 Cd561 2.439 . S
O565 C566 1.208 . S
C566 O564 1.247 . S
C566 O565 1.208 . S
C567 O572 1.247 . S
C567 O573 1.208 . S
C568 O560 1.315 . S
C568 O563 1.279 . S
C569 O570 1.315 . S
C569 O571 1.279 . S
O570 Cd562 2.223 . S
O570 C569 1.315 . S
O571 Cd561 2.240 . S
O571 C569 1.279 . S
O572 Cd562 2.297 . S
O572 C567 1.247 . S
O573 Cd562 2.439 . S
O573 C567 1.208 . S
O574 Cd575 2.223 . S
O574 C582 1.315 . S
Cd575 O574 2.223 . S
Cd575 O578 2.297 . S
Cd575 O579 2.439 . S
Cd575 O585 2.240 . S
Cd576 O577 2.240 . S
Cd576 O584 2.223 . S
Cd576 O586 2.297 . S
Cd576 O587 2.439 . S
O577 Cd576 2.240 . S
O577 C582 1.279 . S
O578 Cd575 2.297 . S
O578 C580 1.247 . S
O579 Cd575 2.439 . S
O579 C580 1.208 . S
C580 O578 1.247 . S
C580 O579 1.208 . S
C581 O586 1.247 . S
C581 O587 1.208 . S
C582 O574 1.315 . S
C582 O577 1.279 . S
C583 O584 1.315 . S
C583 O585 1.279 . S
O584 Cd576 2.223 . S
O584 C583 1.315 . S
O585 Cd575 2.240 . S
O585 C583 1.279 . S
O586 Cd576 2.297 . S
O586 C581 1.247 . S
O587 Cd576 2.439 . S
O587 C581 1.208 . S
O588 Cd589 2.223 . S
O588 C596 1.315 . S
Cd589 O588 2.223 . S
Cd589 O592 2.297 . S
Cd589 O593 2.439 . S
Cd589 O599 2.240 . S
Cd590 O591 2.240 . S
Cd590 O598 2.223 . S
Cd590 O600 2.297 . S
Cd590 O601 2.439 . S
O591 Cd590 2.240 . S
O591 C596 1.279 . S
O592 Cd589 2.297 . S
O592 C594 1.247 . S
O593 Cd589 2.439 . S
O593 C594 1.208 . S
C594 O592 1.247 . S
C594 O593 1.208 . S
C595 O600 1.247 . S
C595 O601 1.208 . S
C596 O588 1.315 . S
C596 O591 1.279 . S
C597 O598 1.315 . S
C597 O599 1.279 . S
O598 Cd590 2.223 . S
O598 C597 1.315 . S
O599 Cd589 2.240 . S
O599 C597 1.279 . S
O600 Cd590 2.297 . S
O600 C595 1.247 . S
O601 Cd590 2.439 . S
O601 C595 1.208 . S
O602 Cd603 2.223 . S
O602 C610 1.315 . S
Cd603 O602 2.223 . S
Cd603 O606 2.297 . S
Cd603 O607 2.439 . S
Cd603 O613 2.240 . S
Cd604 O605 2.240 . S
Cd604 O612 2.223 . S
Cd604 O614 2.297 . S
Cd604 O615 2.439 . S
O605 Cd604 2.240 . S
O605 C610 1.279 . S
O606 Cd603 2.297 . S
O606 C608 1.247 . S
O607 Cd603 2.439 . S
O607 C608 1.208 . S
C608 O606 1.247 . S
C608 O607 1.208 . S
C609 O614 1.247 . S
C609 O615 1.208 . S
C610 O602 1.315 . S
C610 O605 1.279 . S
C611 O612 1.315 . S
C611 O613 1.279 . S
O612 Cd604 2.223 . S
O612 C611 1.315 . S
O613 Cd603 2.240 . S
O613 C611 1.279 . S
O614 Cd604 2.297 . S
O614 C609 1.247 . S
O615 Cd604 2.439 . S
O615 C609 1.208 . S
O616 Cd617 2.223 . S
O616 C624 1.315 . S
Cd617 O616 2.223 . S
Cd617 O620 2.297 . S
Cd617 O621 2.439 . S
Cd617 O627 2.240 . S
Cd618 O619 2.240 . S
Cd618 O626 2.223 . S
Cd618 O628 2.297 . S
Cd618 O629 2.439 . S
O619 Cd618 2.240 . S
O619 C624 1.279 . S
O620 Cd617 2.297 . S
O620 C622 1.247 . S
O621 Cd617 2.439 . S
O621 C622 1.208 . S
C622 O620 1.247 . S
C622 O621 1.208 . S
C623 O628 1.247 . S
C623 O629 1.208 . S
C624 O616 1.315 . S
C624 O619 1.279 . S
C625 O626 1.315 . S
C625 O627 1.279 . S
O626 Cd618 2.223 . S
O626 C625 1.315 . S
O627 Cd617 2.240 . S
O627 C625 1.279 . S
O628 Cd618 2.297 . S
O628 C623 1.247 . S
O629 Cd618 2.439 . S
O629 C623 1.208 . S
O630 Cd631 2.223 . S
O630 C638 1.315 . S
Cd631 O630 2.223 . S
Cd631 O634 2.297 . S
Cd631 O635 2.439 . S
Cd631 O641 2.240 . S
Cd632 O633 2.240 . S
Cd632 O640 2.223 . S
Cd632 O642 2.297 . S
Cd632 O643 2.439 . S
O633 Cd632 2.240 . S
O633 C638 1.279 . S
O634 Cd631 2.297 . S
O634 C636 1.247 . S
O635 Cd631 2.439 . S
O635 C636 1.208 . S
C636 O634 1.247 . S
C636 O635 1.208 . S
C637 O642 1.247 . S
C637 O643 1.208 . S
C638 O630 1.315 . S
C638 O633 1.279 . S
C639 O640 1.315 . S
C639 O641 1.279 . S
O640 Cd632 2.223 . S
O640 C639 1.315 . S
O641 Cd631 2.240 . S
O641 C639 1.279 . S
O642 Cd632 2.297 . S
O642 C637 1.247 . S
O643 Cd632 2.439 . S
O643 C637 1.208 . S
O644 Cd645 2.223 . S
O644 C652 1.315 . S
Cd645 O644 2.223 . S
Cd645 O648 2.297 . S
Cd645 O649 2.439 . S
Cd645 O655 2.240 . S
Cd646 O647 2.240 . S
Cd646 O654 2.223 . S
Cd646 O656 2.297 . S
Cd646 O657 2.439 . S
O647 Cd646 2.240 . S
O647 C652 1.279 . S
O648 Cd645 2.297 . S
O648 C650 1.247 . S
O649 Cd645 2.439 . S
O649 C650 1.208 . S
C650 O648 1.247 . S
C650 O649 1.208 . S
C651 O656 1.247 . S
C651 O657 1.208 . S
C652 O644 1.315 . S
C652 O647 1.279 . S
C653 O654 1.315 . S
C653 O655 1.279 . S
O654 Cd646 2.223 . S
O654 C653 1.315 . S
O655 Cd645 2.240 . S
O655 C653 1.279 . S
O656 Cd646 2.297 . S
O656 C651 1.247 . S
O657 Cd646 2.439 . S
O657 C651 1.208 . S
O658 Cd659 2.223 . S
O658 C666 1.315 . S
Cd659 O658 2.223 . S
Cd659 O662 2.297 . S
Cd659 O663 2.439 . S
Cd659 O669 2.240 . S
Cd660 O661 2.240 . S
Cd660 O668 2.223 . S
Cd660 O670 2.297 . S
Cd660 O671 2.439 . S
O661 Cd660 2.240 . S
O661 C666 1.279 . S
O662 Cd659 2.297 . S
O662 C664 1.247 . S
O663 Cd659 2.439 . S
O663 C664 1.208 . S
C664 O662 1.247 . S
C664 O663 1.208 . S
C665 O670 1.247 . S
C665 O671 1.208 . S
C666 O658 1.315 . S
C666 O661 1.279 . S
C667 O668 1.315 . S
C667 O669 1.279 . S
O668 Cd660 2.223 . S
O668 C667 1.315 . S
O669 Cd659 2.240 . S
O669 C667 1.279 . S
O670 Cd660 2.297 . S
O670 C665 1.247 . S
O671 Cd660 2.439 . S
O671 C665 1.208 . S
O672 Cd673 2.223 . S
O672 C680 1.315 . S
Cd673 O672 2.223 . S
Cd673 O676 2.297 . S
Cd673 O677 2.439 . S
Cd673 O683 2.240 . S
Cd674 O675 2.240 . S
Cd674 O682 2.223 . S
Cd674 O684 2.297 . S
Cd674 O685 2.439 . S
O675 Cd674 2.240 . S
O675 C680 1.279 . S
O676 Cd673 2.297 . S
O676 C678 1.247 . S
O677 Cd673 2.439 . S
O677 C678 1.208 . S
C678 O676 1.247 . S
C678 O677 1.208 . S
C679 O684 1.247 . S
C679 O685 1.208 . S
C680 O672 1.315 . S
C680 O675 1.279 . S
C681 O682 1.315 . S
C681 O683 1.279 . S
O682 Cd674 2.223 . S
O682 C681 1.315 . S
O683 Cd673 2.240 . S
O683 C681 1.279 . S
O684 Cd674 2.297 . S
O684 C679 1.247 . S
O685 Cd674 2.439 . S
O685 C679 1.208 . S
O686 Cd687 2.223 . S
O686 C694 1.315 . S
Cd687 O686 2.223 . S
Cd687 O690 2.297 . S
Cd687 O691 2.439 . S
Cd687 O697 2.240 . S
Cd688 O689 2.240 . S
Cd688 O696 2.223 . S
Cd688 O698 2.297 . S
Cd688 O699 2.439 . S
O689 Cd688 2.240 . S
O689 C694 1.279 . S
O690 Cd687 2.297 . S
O690 C692 1.247 . S
O691 Cd687 2.439 . S
O691 C692 1.208 . S
C692 O690 1.247 . S
C692 O691 1.208 . S
C693 O698 1.247 . S
C693 O699 1.208 . S
C694 O686 1.315 . S
C694 O689 1.279 . S
C695 O696 1.315 . S
C695 O697 1.279 . S
O696 Cd688 2.223 . S
O696 C695 1.315 . S
O697 Cd687 2.240 . S
O697 C695 1.279 . S
O698 Cd688 2.297 . S
O698 C693 1.247 . S
O699 Cd688 2.439 . S
O699 C693 1.208 . S
O700 Cd701 2.223 . S
O700 C708 1.315 . S
Cd701 O700 2.223 . S
Cd701 O704 2.297 . S
Cd701 O705 2.439 . S
Cd701 O711 2.240 . S
Cd702 O703 2.240 . S
Cd702 O710 2.223 . S
Cd702 O712 2.297 . S
Cd702 O713 2.439 . S
O703 Cd702 2.240 . S
O703 C708 1.279 . S
O704 Cd701 2.297 . S
O704 C706 1.247 . S
O705 Cd701 2.439 . S
O705 C706 1.208 . S
C706 O704 1.247 . S
C706 O705 1.208 . S
C707 O712 1.247 . S
C707 O713 1.208 . S
C708 O700 1.315 . S
C708 O703 1.279 . S
C709 O710 1.315 . S
C709 O711 1.279 . S
O710 Cd702 2.223 . S
O710 C709 1.315 . S
O711 Cd701 2.240 . S
O711 C709 1.279 . S
O712 Cd702 2.297 . S
O712 C707 1.247 . S
O713 Cd702 2.439 . S
O713 C707 1.208 . S
O714 Cd715 2.223 . S
O714 C722 1.315 . S
Cd715 O714 2.223 . S
Cd715 O718 2.297 . S
Cd715 O719 2.439 . S
Cd715 O725 2.240 . S
Cd716 O717 2.240 . S
Cd716 O724 2.223 . S
Cd716 O726 2.297 . S
Cd716 O727 2.439 . S
O717 Cd716 2.240 . S
O717 C722 1.279 . S
O718 Cd715 2.297 . S
O718 C720 1.247 . S
O719 Cd715 2.439 . S
O719 C720 1.208 . S
C720 O718 1.247 . S
C720 O719 1.208 . S
C721 O726 1.247 . S
C721 O727 1.208 . S
C722 O714 1.315 . S
C722 O717 1.279 . S
C723 O724 1.315 . S
C723 O725 1.279 . S
O724 Cd716 2.223 . S
O724 C723 1.315 . S
O725 Cd715 2.240 . S
O725 C723 1.279 . S
O726 Cd716 2.297 . S
O726 C721 1.247 . S
O727 Cd716 2.439 . S
O727 C721 1.208 . S
O728 Cd729 2.223 . S
O728 C736 1.315 . S
Cd729 O728 2.223 . S
Cd729 O732 2.297 . S
Cd729 O733 2.439 . S
Cd729 O739 2.240 . S
Cd730 O731 2.240 . S
Cd730 O738 2.223 . S
Cd730 O740 2.297 . S
Cd730 O741 2.439 . S
O731 Cd730 2.240 . S
O731 C736 1.279 . S
O732 Cd729 2.297 . S
O732 C734 1.247 . S
O733 Cd729 2.439 . S
O733 C734 1.208 . S
C734 O732 1.247 . S
C734 O733 1.208 . S
C735 O740 1.247 . S
C735 O741 1.208 . S
C736 O728 1.315 . S
C736 O731 1.279 . S
C737 O738 1.315 . S
C737 O739 1.279 . S
O738 Cd730 2.223 . S
O738 C737 1.315 . S
O739 Cd729 2.240 . S
O739 C737 1.279 . S
O740 Cd730 2.297 . S
O740 C735 1.247 . S
O741 Cd730 2.439 . S
O741 C735 1.208 . S
O742 Cd743 2.223 . S
O742 C750 1.315 . S
Cd743 O742 2.223 . S
Cd743 O746 2.297 . S
Cd743 O747 2.439 . S
Cd743 O753 2.240 . S
Cd744 O745 2.240 . S
Cd744 O752 2.223 . S
Cd744 O754 2.297 . S
Cd744 O755 2.439 . S
O745 Cd744 2.240 . S
O745 C750 1.279 . S
O746 Cd743 2.297 . S
O746 C748 1.247 . S
O747 Cd743 2.439 . S
O747 C748 1.208 . S
C748 O746 1.247 . S
C748 O747 1.208 . S
C749 O754 1.247 . S
C749 O755 1.208 . S
C750 O742 1.315 . S
C750 O745 1.279 . S
C751 O752 1.315 . S
C751 O753 1.279 . S
O752 Cd744 2.223 . S
O752 C751 1.315 . S
O753 Cd743 2.240 . S
O753 C751 1.279 . S
O754 Cd744 2.297 . S
O754 C749 1.247 . S
O755 Cd744 2.439 . S
O755 C749 1.208 . S
O756 Cd757 2.223 . S
O756 C764 1.315 . S
Cd757 O756 2.223 . S
Cd757 O760 2.297 . S
Cd757 O761 2.439 . S
Cd757 O767 2.240 . S
Cd758 O759 2.240 . S
Cd758 O766 2.223 . S
Cd758 O768 2.297 . S
Cd758 O769 2.439 . S
O759 Cd758 2.240 . S
O759 C764 1.279 . S
O760 Cd757 2.297 . S
O760 C762 1.247 . S
O761 Cd757 2.439 . S
O761 C762 1.208 . S
C762 O760 1.247 . S
C762 O761 1.208 . S
C763 O768 1.247 . S
C763 O769 1.208 . S
C764 O756 1.315 . S
C764 O759 1.279 . S
C765 O766 1.315 . S
C765 O767 1.279 . S
O766 Cd758 2.223 . S
O766 C765 1.315 . S
O767 Cd757 2.240 . S
O767 C765 1.279 . S
O768 Cd758 2.297 . S
O768 C763 1.247 . S
O769 Cd758 2.439 . S
O769 C763 1.208 . S
O770 Cd771 2.223 . S
O770 C778 1.315 . S
Cd771 O770 2.223 . S
Cd771 O774 2.297 . S
Cd771 O775 2.439 . S
Cd771 O781 2.240 . S
Cd772 O773 2.240 . S
Cd772 O780 2.223 . S
Cd772 O782 2.297 . S
Cd772 O783 2.439 . S
O773 Cd772 2.240 . S
O773 C778 1.279 . S
O774 Cd771 2.297 . S
O774 C776 1.247 . S
O775 Cd771 2.439 . S
O775 C776 1.208 . S
C776 O774 1.247 . S
C776 O775 1.208 . S
C777 O782 1.247 . S
C777 O783 1.208 . S
C778 O770 1.315 . S
C778 O773 1.279 . S
C779 O780 1.315 . S
C779 O781 1.279 . S
O780 Cd772 2.223 . S
O780 C779 1.315 . S
O781 Cd771 2.240 . S
O781 C779 1.279 . S
O782 Cd772 2.297 . S
O782 C777 1.247 . S
O783 Cd772 2.439 . S
O783 C777 1.208 . S
O784 Cd785 2.223 . S
O784 C792 1.315 . S
Cd785 O784 2.223 . S
Cd785 O788 2.297 . S
Cd785 O789 2.439 . S
Cd785 O795 2.240 . S
Cd786 O787 2.240 . S
Cd786 O794 2.223 . S
Cd786 O796 2.297 . S
Cd786 O797 2.439 . S
O787 Cd786 2.240 . S
O787 C792 1.279 . S
O788 Cd785 2.297 . S
O788 C790 1.247 . S
O789 Cd785 2.439 . S
O789 C790 1.208 . S
C790 O788 1.247 . S
C790 O789 1.208 . S
C791 O796 1.247 . S
C791 O797 1.208 . S
C792 O784 1.315 . S
C792 O787 1.279 . S
C793 O794 1.315 . S
C793 O795 1.279 . S
O794 Cd786 2.223 . S
O794 C793 1.315 . S
O795 Cd785 2.240 . S
O795 C793 1.279 . S
O796 Cd786 2.297 . S
O796 C791 1.247 . S
O797 Cd786 2.439 . S
O797 C791 1.208 . S
O798 Cd799 2.223 . S
O798 C806 1.315 . S
Cd799 O798 2.223 . S
Cd799 O802 2.297 . S
Cd799 O803 2.439 . S
Cd799 O809 2.240 . S
Cd800 O801 2.240 . S
Cd800 O808 2.223 . S
Cd800 O810 2.297 . S
Cd800 O811 2.439 . S
O801 Cd800 2.240 . S
O801 C806 1.279 . S
O802 Cd799 2.297 . S
O802 C804 1.247 . S
O803 Cd799 2.439 . S
O803 C804 1.208 . S
C804 O802 1.247 . S
C804 O803 1.208 . S
C805 O810 1.247 . S
C805 O811 1.208 . S
C806 O798 1.315 . S
C806 O801 1.279 . S
C807 O808 1.315 . S
C807 O809 1.279 . S
O808 Cd800 2.223 . S
O808 C807 1.315 . S
O809 Cd799 2.240 . S
O809 C807 1.279 . S
O810 Cd800 2.297 . S
O810 C805 1.247 . S
O811 Cd800 2.439 . S
O811 C805 1.208 . S
O812 Cd813 2.223 . S
O812 C820 1.315 . S
Cd813 O812 2.223 . S
Cd813 O816 2.297 . S
Cd813 O817 2.439 . S
Cd813 O823 2.240 . S
Cd814 O815 2.240 . S
Cd814 O822 2.223 . S
Cd814 O824 2.297 . S
Cd814 O825 2.439 . S
O815 Cd814 2.240 . S
O815 C820 1.279 . S
O816 Cd813 2.297 . S
O816 C818 1.247 . S
O817 Cd813 2.439 . S
O817 C818 1.208 . S
C818 O816 1.247 . S
C818 O817 1.208 . S
C819 O824 1.247 . S
C819 O825 1.208 . S
C820 O812 1.315 . S
C820 O815 1.279 . S
C821 O822 1.315 . S
C821 O823 1.279 . S
O822 Cd814 2.223 . S
O822 C821 1.315 . S
O823 Cd813 2.240 . S
O823 C821 1.279 . S
O824 Cd814 2.297 . S
O824 C819 1.247 . S
O825 Cd814 2.439 . S
O825 C819 1.208 . S
O826 Cd827 2.223 . S
O826 C834 1.315 . S
Cd827 O826 2.223 . S
Cd827 O830 2.297 . S
Cd827 O831 2.439 . S
Cd827 O837 2.240 . S
Cd828 O829 2.240 . S
Cd828 O836 2.223 . S
Cd828 O838 2.297 . S
Cd828 O839 2.439 . S
O829 Cd828 2.240 . S
O829 C834 1.279 . S
O830 Cd827 2.297 . S
O830 C832 1.247 . S
O831 Cd827 2.439 . S
O831 C832 1.208 . S
C832 O830 1.247 . S
C832 O831 1.208 . S
C833 O838 1.247 . S
C833 O839 1.208 . S
C834 O826 1.315 . S
C834 O829 1.279 . S
C835 O836 1.315 . S
C835 O837 1.279 . S
O836 Cd828 2.223 . S
O836 C835 1.315 . S
O837 Cd827 2.240 . S
O837 C835 1.279 . S
O838 Cd828 2.297 . S
O838 C833 1.247 . S
O839 Cd828 2.439 . S
O839 C833 1.208 . S
O840 Cd841 2.223 . S
O840 C848 1.315 . S
Cd841 O840 2.223 . S
Cd841 O844 2.297 . S
Cd841 O845 2.439 . S
Cd841 O851 2.240 . S
Cd842 O843 2.240 . S
Cd842 O850 2.223 . S
Cd842 O852 2.297 . S
Cd842 O853 2.439 . S
O843 Cd842 2.240 . S
O843 C848 1.279 . S
O844 Cd841 2.297 . S
O844 C846 1.247 . S
O845 Cd841 2.439 . S
O845 C846 1.208 . S
C846 O844 1.247 . S
C846 O845 1.208 . S
C847 O852 1.247 . S
C847 O853 1.208 . S
C848 O840 1.315 . S
C848 O843 1.279 . S
C849 O850 1.315 . S
C849 O851 1.279 . S
O850 Cd842 2.223 . S
O850 C849 1.315 . S
O851 Cd841 2.240 . S
O851 C849 1.279 . S
O852 Cd842 2.297 . S
O852 C847 1.247 . S
O853 Cd842 2.439 . S
O853 C847 1.208 . S
O854 Cd855 2.223 . S
O854 C862 1.315 . S
Cd855 O854 2.223 . S
Cd855 O858 2.297 . S
Cd855 O859 2.439 . S
Cd855 O865 2.240 . S
Cd856 O857 2.240 . S
Cd856 O864 2.223 . S
Cd856 O866 2.297 . S
Cd856 O867 2.439 . S
O857 Cd856 2.240 . S
O857 C862 1.279 . S
O858 Cd855 2.297 . S
O858 C860 1.247 . S
O859 Cd855 2.439 . S
O859 C860 1.208 . S
C860 O858 1.247 . S
C860 O859 1.208 . S
C861 O866 1.247 . S
C861 O867 1.208 . S
C862 O854 1.315 . S
C862 O857 1.279 . S
C863 O864 1.315 . S
C863 O865 1.279 . S
O864 Cd856 2.223 . S
O864 C863 1.315 . S
O865 Cd855 2.240 . S
O865 C863 1.279 . S
O866 Cd856 2.297 . S
O866 C861 1.247 . S
O867 Cd856 2.439 . S
O867 C861 1.208 . S
O868 Cd869 2.223 . S
O868 C876 1.315 . S
Cd869 O868 2.223 . S
Cd869 O872 2.297 . S
Cd869 O873 2.439 . S
Cd869 O879 2.240 . S
Cd870 O871 2.240 . S
Cd870 O878 2.223 . S
Cd870 O880 2.297 . S
Cd870 O881 2.439 . S
O871 Cd870 2.240 . S
O871 C876 1.279 . S
O872 Cd869 2.297 . S
O872 C874 1.247 . S
O873 Cd869 2.439 . S
O873 C874 1.208 . S
C874 O872 1.247 . S
C874 O873 1.208 . S
C875 O880 1.247 . S
C875 O881 1.208 . S
C876 O868 1.315 . S
C876 O871 1.279 . S
C877 O878 1.315 . S
C877 O879 1.279 . S
O878 Cd870 2.223 . S
O878 C877 1.315 . S
O879 Cd869 2.240 . S
O879 C877 1.279 . S
O880 Cd870 2.297 . S
O880 C875 1.247 . S
O881 Cd870 2.439 . S
O881 C875 1.208 . S
O882 Cd883 2.223 . S
O882 C890 1.315 . S
Cd883 O882 2.223 . S
Cd883 O886 2.297 . S
Cd883 O887 2.439 . S
Cd883 O893 2.240 . S
Cd884 O885 2.240 . S
Cd884 O892 2.223 . S
Cd884 O894 2.297 . S
Cd884 O895 2.439 . S
O885 Cd884 2.240 . S
O885 C890 1.279 . S
O886 Cd883 2.297 . S
O886 C888 1.247 . S
O887 Cd883 2.439 . S
O887 C888 1.208 . S
C888 O886 1.247 . S
C888 O887 1.208 . S
C889 O894 1.247 . S
C889 O895 1.208 . S
C890 O882 1.315 . S
C890 O885 1.279 . S
C891 O892 1.315 . S
C891 O893 1.279 . S
O892 Cd884 2.223 . S
O892 C891 1.315 . S
O893 Cd883 2.240 . S
O893 C891 1.279 . S
O894 Cd884 2.297 . S
O894 C889 1.247 . S
O895 Cd884 2.439 . S
O895 C889 1.208 . S
O896 Cd897 2.223 . S
O896 C904 1.315 . S
Cd897 O896 2.223 . S
Cd897 O900 2.297 . S
Cd897 O901 2.439 . S
Cd897 O907 2.240 . S
Cd898 O899 2.240 . S
Cd898 O906 2.223 . S
Cd898 O908 2.297 . S
Cd898 O909 2.439 . S
O899 Cd898 2.240 . S
O899 C904 1.279 . S
O900 Cd897 2.297 . S
O900 C902 1.247 . S
O901 Cd897 2.439 . S
O901 C902 1.208 . S
C902 O900 1.247 . S
C902 O901 1.208 . S
C903 O908 1.247 . S
C903 O909 1.208 . S
C904 O896 1.315 . S
C904 O899 1.279 . S
C905 O906 1.315 . S
C905 O907 1.279 . S
O906 Cd898 2.223 . S
O906 C905 1.315 . S
O907 Cd897 2.240 . S
O907 C905 1.279 . S
O908 Cd898 2.297 . S
O908 C903 1.247 . S
O909 Cd898 2.439 . S
O909 C903 1.208 . S
O910 Cd911 2.223 . S
O910 C918 1.315 . S
Cd911 O910 2.223 . S
Cd911 O914 2.297 . S
Cd911 O915 2.439 . S
Cd911 O921 2.240 . S
Cd912 O913 2.240 . S
Cd912 O920 2.223 . S
Cd912 O922 2.297 . S
Cd912 O923 2.439 . S
O913 Cd912 2.240 . S
O913 C918 1.279 . S
O914 Cd911 2.297 . S
O914 C916 1.247 . S
O915 Cd911 2.439 . S
O915 C916 1.208 . S
C916 O914 1.247 . S
C916 O915 1.208 . S
C917 O922 1.247 . S
C917 O923 1.208 . S
C918 O910 1.315 . S
C918 O913 1.279 . S
C919 O920 1.315 . S
C919 O921 1.279 . S
O920 Cd912 2.223 . S
O920 C919 1.315 . S
O921 Cd911 2.240 . S
O921 C919 1.279 . S
O922 Cd912 2.297 . S
O922 C917 1.247 . S
O923 Cd912 2.439 . S
O923 C917 1.208 . S
O924 Cd925 2.223 . S
O924 C932 1.315 . S
Cd925 O924 2.223 . S
Cd925 O928 2.297 . S
Cd925 O929 2.439 . S
Cd925 O935 2.240 . S
Cd926 O927 2.240 . S
Cd926 O934 2.223 . S
Cd926 O936 2.297 . S
Cd926 O937 2.439 . S
O927 Cd926 2.240 . S
O927 C932 1.279 . S
O928 Cd925 2.297 . S
O928 C930 1.247 . S
O929 Cd925 2.439 . S
O929 C930 1.208 . S
C930 O928 1.247 . S
C930 O929 1.208 . S
C931 O936 1.247 . S
C931 O937 1.208 . S
C932 O924 1.315 . S
C932 O927 1.279 . S
C933 O934 1.315 . S
C933 O935 1.279 . S
O934 Cd926 2.223 . S
O934 C933 1.315 . S
O935 Cd925 2.240 . S
O935 C933 1.279 . S
O936 Cd926 2.297 . S
O936 C931 1.247 . S
O937 Cd926 2.439 . S
O937 C931 1.208 . S
O938 Cd939 2.223 . S
O938 C946 1.315 . S
Cd939 O938 2.223 . S
Cd939 O942 2.297 . S
Cd939 O943 2.439 . S
Cd939 O949 2.240 . S
Cd940 O941 2.240 . S
Cd940 O948 2.223 . S
Cd940 O950 2.297 . S
Cd940 O951 2.439 . S
O941 Cd940 2.240 . S
O941 C946 1.279 . S
O942 Cd939 2.297 . S
O942 C944 1.247 . S
O943 Cd939 2.439 . S
O943 C944 1.208 . S
C944 O942 1.247 . S
C944 O943 1.208 . S
C945 O950 1.247 . S
C945 O951 1.208 . S
C946 O938 1.315 . S
C946 O941 1.279 . S
C947 O948 1.315 . S
C947 O949 1.279 . S
O948 Cd940 2.223 . S
O948 C947 1.315 . S
O949 Cd939 2.240 . S
O949 C947 1.279 . S
O950 Cd940 2.297 . S
O950 C945 1.247 . S
O951 Cd940 2.439 . S
O951 C945 1.208 . S
O952 Cd953 2.223 . S
O952 C960 1.315 . S
Cd953 O952 2.223 . S
Cd953 O956 2.297 . S
Cd953 O957 2.439 . S
Cd953 O963 2.240 . S
Cd954 O955 2.240 . S
Cd954 O962 2.223 . S
Cd954 O964 2.297 . S
Cd954 O965 2.439 . S
O955 Cd954 2.240 . S
O955 C960 1.279 . S
O956 Cd953 2.297 . S
O956 C958 1.247 . S
O957 Cd953 2.439 . S
O957 C958 1.208 . S
C958 O956 1.247 . S
C958 O957 1.208 . S
C959 O964 1.247 . S
C959 O965 1.208 . S
C960 O952 1.315 . S
C960 O955 1.279 . S
C961 O962 1.315 . S
C961 O963 1.279 . S
O962 Cd954 2.223 . S
O962 C961 1.315 . S
O963 Cd953 2.240 . S
O963 C961 1.279 . S
O964 Cd954 2.297 . S
O964 C959 1.247 . S
O965 Cd954 2.439 . S
O965 C959 1.208 . S
O966 Cd967 2.223 . S
O966 C974 1.315 . S
Cd967 O966 2.223 . S
Cd967 O970 2.297 . S
Cd967 O971 2.439 . S
Cd967 O977 2.240 . S
Cd968 O969 2.240 . S
Cd968 O976 2.223 . S
Cd968 O978 2.297 . S
Cd968 O979 2.439 . S
O969 Cd968 2.240 . S
O969 C974 1.279 . S
O970 Cd967 2.297 . S
O970 C972 1.247 . S
O971 Cd967 2.439 . S
O971 C972 1.208 . S
C972 O970 1.247 . S
C972 O971 1.208 . S
C973 O978 1.247 . S
C973 O979 1.208 . S
C974 O966 1.315 . S
C974 O969 1.279 . S
C975 O976 1.315 . S
C975 O977 1.279 . S
O976 Cd968 2.223 . S
O976 C975 1.315 . S
O977 Cd967 2.240 . S
O977 C975 1.279 . S
O978 Cd968 2.297 . S
O978 C973 1.247 . S
O979 Cd968 2.439 . S
O979 C973 1.208 . S
O980 Cd981 2.223 . S
O980 C988 1.315 . S
Cd981 O980 2.223 . S
Cd981 O984 2.297 . S
Cd981 O985 2.439 . S
Cd981 O991 2.240 . S
Cd982 O983 2.240 . S
Cd982 O990 2.223 . S
Cd982 O992 2.297 . S
Cd982 O993 2.439 . S
O983 Cd982 2.240 . S
O983 C988 1.279 . S
O984 Cd981 2.297 . S
O984 C986 1.247 . S
O985 Cd981 2.439 . S
O985 C986 1.208 . S
C986 O984 1.247 . S
C986 O985 1.208 . S
C987 O992 1.247 . S
C987 O993 1.208 . S
C988 O980 1.315 . S
C988 O983 1.279 . S
C989 O990 1.315 . S
C989 O991 1.279 . S
O990 Cd982 2.223 . S
O990 C989 1.315 . S
O991 Cd981 2.240 . S
O991 C989 1.279 . S
O992 Cd982 2.297 . S
O992 C987 1.247 . S
O993 Cd982 2.439 . S
O993 C987 1.208 . S
O994 Cd995 2.223 . S
O994 C1002 1.315 . S
Cd995 O994 2.223 . S
Cd995 O998 2.297 . S
Cd995 O999 2.439 . S
Cd995 O1005 2.240 . S
Cd996 O997 2.240 . S
Cd996 O1004 2.223 . S
Cd996 O1006 2.297 . S
Cd996 O1007 2.439 . S
O997 Cd996 2.240 . S
O997 C1002 1.279 . S
O998 Cd995 2.297 . S
O998 C1000 1.247 . S
O999 Cd995 2.439 . S
O999 C1000 1.208 . S
C1000 O998 1.247 . S
C1000 O999 1.208 . S
C1001 O1006 1.247 . S
C1001 O1007 1.208 . S
C1002 O994 1.315 . S
C1002 O997 1.279 . S
C1003 O1004 1.315 . S
C1003 O1005 1.279 . S
O1004 Cd996 2.223 . S
O1004 C1003 1.315 . S
O1005 Cd995 2.240 . S
O1005 C1003 1.279 . S
O1006 Cd996 2.297 . S
O1006 C1001 1.247 . S
O1007 Cd996 2.439 . S
O1007 C1001 1.208 . S
O1008 Cd1009 2.223 . S
O1008 C1016 1.315 . S
Cd1009 O1008 2.223 . S
Cd1009 O1012 2.297 . S
Cd1009 O1013 2.439 . S
Cd1009 O1019 2.240 . S
Cd1010 O1011 2.240 . S
Cd1010 O1018 2.223 . S
Cd1010 O1020 2.297 . S
Cd1010 O1021 2.439 . S
O1011 Cd1010 2.240 . S
O1011 C1016 1.279 . S
O1012 Cd1009 2.297 . S
O1012 C1014 1.247 . S
O1013 Cd1009 2.439 . S
O1013 C1014 1.208 . S
C1014 O1012 1.247 . S
C1014 O1013 1.208 . S
C1015 O1020 1.247 . S
C1015 O1021 1.208 . S
C1016 O1008 1.315 . S
C1016 O1011 1.279 . S
C1017 O1018 1.315 . S
C1017 O1019 1.279 . S
O1018 Cd1010 2.223 . S
O1018 C1017 1.315 . S
O1019 Cd1009 2.240 . S
O1019 C1017 1.279 . S
O1020 Cd1010 2.297 . S
O1020 C1015 1.247 . S
O1021 Cd1010 2.439 . S
O1021 C1015 1.208 . S
O1022 Cd1023 2.223 . S
O1022 C1030 1.315 . S
Cd1023 O1022 2.223 . S
Cd1023 O1026 2.297 . S
Cd1023 O1027 2.439 . S
Cd1023 O1033 2.240 . S
Cd1024 O1025 2.240 . S
Cd1024 O1032 2.223 . S
Cd1024 O1034 2.297 . S
Cd1024 O1035 2.439 . S
O1025 Cd1024 2.240 . S
O1025 C1030 1.279 . S
O1026 Cd1023 2.297 . S
O1026 C1028 1.247 . S
O1027 Cd1023 2.439 . S
O1027 C1028 1.208 . S
C1028 O1026 1.247 . S
C1028 O1027 1.208 . S
C1029 O1034 1.247 . S
C1029 O1035 1.208 . S
C1030 O1022 1.315 . S
C1030 O1025 1.279 . S
C1031 O1032 1.315 . S
C1031 O1033 1.279 . S
O1032 Cd1024 2.223 . S
O1032 C1031 1.315 . S
O1033 Cd1023 2.240 . S
O1033 C1031 1.279 . S
O1034 Cd1024 2.297 . S
O1034 C1029 1.247 . S
O1035 Cd1024 2.439 . S
O1035 C1029 1.208 . S
O1036 Cd1037 2.223 . S
O1036 C1044 1.315 . S
Cd1037 O1036 2.223 . S
Cd1037 O1040 2.297 . S
Cd1037 O1041 2.439 . S
Cd1037 O1047 2.240 . S
Cd1038 O1039 2.240 . S
Cd1038 O1046 2.223 . S
Cd1038 O1048 2.297 . S
Cd1038 O1049 2.439 . S
O1039 Cd1038 2.240 . S
O1039 C1044 1.279 . S
O1040 Cd1037 2.297 . S
O1040 C1042 1.247 . S
O1041 Cd1037 2.439 . S
O1041 C1042 1.208 . S
C1042 O1040 1.247 . S
C1042 O1041 1.208 . S
C1043 O1048 1.247 . S
C1043 O1049 1.208 . S
C1044 O1036 1.315 . S
C1044 O1039 1.279 . S
C1045 O1046 1.315 . S
C1045 O1047 1.279 . S
O1046 Cd1038 2.223 . S
O1046 C1045 1.315 . S
O1047 Cd1037 2.240 . S
O1047 C1045 1.279 . S
O1048 Cd1038 2.297 . S
O1048 C1043 1.247 . S
O1049 Cd1038 2.439 . S
O1049 C1043 1.208 . S
O1050 Cd1051 2.223 . S
O1050 C1058 1.315 . S
Cd1051 O1050 2.223 . S
Cd1051 O1054 2.297 . S
Cd1051 O1055 2.439 . S
Cd1051 O1061 2.240 . S
Cd1052 O1053 2.240 . S
Cd1052 O1060 2.223 . S
Cd1052 O1062 2.297 . S
Cd1052 O1063 2.439 . S
O1053 Cd1052 2.240 . S
O1053 C1058 1.279 . S
O1054 Cd1051 2.297 . S
O1054 C1056 1.247 . S
O1055 Cd1051 2.439 . S
O1055 C1056 1.208 . S
C1056 O1054 1.247 . S
C1056 O1055 1.208 . S
C1057 O1062 1.247 . S
C1057 O1063 1.208 . S
C1058 O1050 1.315 . S
C1058 O1053 1.279 . S
C1059 O1060 1.315 . S
C1059 O1061 1.279 . S
O1060 Cd1052 2.223 . S
O1060 C1059 1.315 . S
O1061 Cd1051 2.240 . S
O1061 C1059 1.279 . S
O1062 Cd1052 2.297 . S
O1062 C1057 1.247 . S
O1063 Cd1052 2.439 . S
O1063 C1057 1.208 . S
O1064 Cd1065 2.223 . S
O1064 C1072 1.315 . S
Cd1065 O1064 2.223 . S
Cd1065 O1068 2.297 . S
Cd1065 O1069 2.439 . S
Cd1065 O1075 2.240 . S
Cd1066 O1067 2.240 . S
Cd1066 O1074 2.223 . S
Cd1066 O1076 2.297 . S
Cd1066 O1077 2.439 . S
O1067 Cd1066 2.240 . S
O1067 C1072 1.279 . S
O1068 Cd1065 2.297 . S
O1068 C1070 1.247 . S
O1069 Cd1065 2.439 . S
O1069 C1070 1.208 . S
C1070 O1068 1.247 . S
C1070 O1069 1.208 . S
C1071 O1076 1.247 . S
C1071 O1077 1.208 . S
C1072 O1064 1.315 . S
C1072 O1067 1.279 . S
C1073 O1074 1.315 . S
C1073 O1075 1.279 . S
O1074 Cd1066 2.223 . S
O1074 C1073 1.315 . S
O1075 Cd1065 2.240 . S
O1075 C1073 1.279 . S
O1076 Cd1066 2.297 . S
O1076 C1071 1.247 . S
O1077 Cd1066 2.439 . S
O1077 C1071 1.208 . S
O1078 Cd1079 2.223 . S
O1078 C1086 1.315 . S
Cd1079 O1078 2.223 . S
Cd1079 O1082 2.297 . S
Cd1079 O1083 2.439 . S
Cd1079 O1089 2.240 . S
Cd1080 O1081 2.240 . S
Cd1080 O1088 2.223 . S
Cd1080 O1090 2.297 . S
Cd1080 O1091 2.439 . S
O1081 Cd1080 2.240 . S
O1081 C1086 1.279 . S
O1082 Cd1079 2.297 . S
O1082 C1084 1.247 . S
O1083 Cd1079 2.439 . S
O1083 C1084 1.208 . S
C1084 O1082 1.247 . S
C1084 O1083 1.208 . S
C1085 O1090 1.247 . S
C1085 O1091 1.208 . S
C1086 O1078 1.315 . S
C1086 O1081 1.279 . S
C1087 O1088 1.315 . S
C1087 O1089 1.279 . S
O1088 Cd1080 2.223 . S
O1088 C1087 1.315 . S
O1089 Cd1079 2.240 . S
O1089 C1087 1.279 . S
O1090 Cd1080 2.297 . S
O1090 C1085 1.247 . S
O1091 Cd1080 2.439 . S
O1091 C1085 1.208 . S
O1092 Cd1093 2.223 . S
O1092 C1100 1.315 . S
Cd1093 O1092 2.223 . S
Cd1093 O1096 2.297 . S
Cd1093 O1097 2.439 . S
Cd1093 O1103 2.240 . S
Cd1094 O1095 2.240 . S
Cd1094 O1102 2.223 . S
Cd1094 O1104 2.297 . S
Cd1094 O1105 2.439 . S
O1095 Cd1094 2.240 . S
O1095 C1100 1.279 . S
O1096 Cd1093 2.297 . S
O1096 C1098 1.247 . S
O1097 Cd1093 2.439 . S
O1097 C1098 1.208 . S
C1098 O1096 1.247 . S
C1098 O1097 1.208 . S
C1099 O1104 1.247 . S
C1099 O1105 1.208 . S
C1100 O1092 1.315 . S
C1100 O1095 1.279 . S
C1101 O1102 1.315 . S
C1101 O1103 1.279 . S
O1102 Cd1094 2.223 . S
O1102 C1101 1.315 . S
O1103 Cd1093 2.240 . S
O1103 C1101 1.279 . S
O1104 Cd1094 2.297 . S
O1104 C1099 1.247 . S
O1105 Cd1094 2.439 . S
O1105 C1099 1.208 . S
O1106 Cd1107 2.223 . S
O1106 C1114 1.315 . S
Cd1107 O1106 2.223 . S
Cd1107 O1110 2.297 . S
Cd1107 O1111 2.439 . S
Cd1107 O1117 2.240 . S
Cd1108 O1109 2.240 . S
Cd1108 O1116 2.223 . S
Cd1108 O1118 2.297 . S
Cd1108 O1119 2.439 . S
O1109 Cd1108 2.240 . S
O1109 C1114 1.279 . S
O1110 Cd1107 2.297 . S
O1110 C1112 1.247 . S
O1111 Cd1107 2.439 . S
O1111 C1112 1.208 . S
C1112 O1110 1.247 . S
C1112 O1111 1.208 . S
C1113 O1118 1.247 . S
C1113 O1119 1.208 . S
C1114 O1106 1.315 . S
C1114 O1109 1.279 . S
C1115 O1116 1.315 . S
C1115 O1117 1.279 . S
O1116 Cd1108 2.223 . S
O1116 C1115 1.315 . S
O1117 Cd1107 2.240 . S
O1117 C1115 1.279 . S
O1118 Cd1108 2.297 . S
O1118 C1113 1.247 . S
O1119 Cd1108 2.439 . S
O1119 C1113 1.208 . S
O1120 Cd1121 2.223 . S
O1120 C1128 1.315 . S
Cd1121 O1120 2.223 . S
Cd1121 O1124 2.297 . S
Cd1121 O1125 2.439 . S
Cd1121 O1131 2.240 . S
Cd1122 O1123 2.240 . S
Cd1122 O1130 2.223 . S
Cd1122 O1132 2.297 . S
Cd1122 O1133 2.439 . S
O1123 Cd1122 2.240 . S
O1123 C1128 1.279 . S
O1124 Cd1121 2.297 . S
O1124 C1126 1.247 . S
O1125 Cd1121 2.439 . S
O1125 C1126 1.208 . S
C1126 O1124 1.247 . S
C1126 O1125 1.208 . S
C1127 O1132 1.247 . S
C1127 O1133 1.208 . S
C1128 O1120 1.315 . S
C1128 O1123 1.279 . S
C1129 O1130 1.315 . S
C1129 O1131 1.279 . S
O1130 Cd1122 2.223 . S
O1130 C1129 1.315 . S
O1131 Cd1121 2.240 . S
O1131 C1129 1.279 . S
O1132 Cd1122 2.297 . S
O1132 C1127 1.247 . S
O1133 Cd1122 2.439 . S
O1133 C1127 1.208 . S
O1134 Cd1135 2.223 . S
O1134 C1142 1.315 . S
Cd1135 O1134 2.223 . S
Cd1135 O1138 2.297 . S
Cd1135 O1139 2.439 . S
Cd1135 O1145 2.240 . S
Cd1136 O1137 2.240 . S
Cd1136 O1144 2.223 . S
Cd1136 O1146 2.297 . S
Cd1136 O1147 2.439 . S
O1137 Cd1136 2.240 . S
O1137 C1142 1.279 . S
O1138 Cd1135 2.297 . S
O1138 C1140 1.247 . S
O1139 Cd1135 2.439 . S
O1139 C1140 1.208 . S
C1140 O1138 1.247 . S
C1140 O1139 1.208 . S
C1141 O1146 1.247 . S
C1141 O1147 1.208 . S
C1142 O1134 1.315 . S
C1142 O1137 1.279 . S
C1143 O1144 1.315 . S
C1143 O1145 1.279 . S
O1144 Cd1136 2.223 . S
O1144 C1143 1.315 . S
O1145 Cd1135 2.240 . S
O1145 C1143 1.279 . S
O1146 Cd1136 2.297 . S
O1146 C1141 1.247 . S
O1147 Cd1136 2.439 . S
O1147 C1141 1.208 . S
O1148 Cd1149 2.223 . S
O1148 C1156 1.315 . S
Cd1149 O1148 2.223 . S
Cd1149 O1152 2.297 . S
Cd1149 O1153 2.439 . S
Cd1149 O1159 2.240 . S
Cd1150 O1151 2.240 . S
Cd1150 O1158 2.223 . S
Cd1150 O1160 2.297 . S
Cd1150 O1161 2.439 . S
O1151 Cd1150 2.240 . S
O1151 C1156 1.279 . S
O1152 Cd1149 2.297 . S
O1152 C1154 1.247 . S
O1153 Cd1149 2.439 . S
O1153 C1154 1.208 . S
C1154 O1152 1.247 . S
C1154 O1153 1.208 . S
C1155 O1160 1.247 . S
C1155 O1161 1.208 . S
C1156 O1148 1.315 . S
C1156 O1151 1.279 . S
C1157 O1158 1.315 . S
C1157 O1159 1.279 . S
O1158 Cd1150 2.223 . S
O1158 C1157 1.315 . S
O1159 Cd1149 2.240 . S
O1159 C1157 1.279 . S
O1160 Cd1150 2.297 . S
O1160 C1155 1.247 . S
O1161 Cd1150 2.439 . S
O1161 C1155 1.208 . S
O1162 Cd1163 2.223 . S
O1162 C1170 1.315 . S
Cd1163 O1162 2.223 . S
Cd1163 O1166 2.297 . S
Cd1163 O1167 2.439 . S
Cd1163 O1173 2.240 . S
Cd1164 O1165 2.240 . S
Cd1164 O1172 2.223 . S
Cd1164 O1174 2.297 . S
Cd1164 O1175 2.439 . S
O1165 Cd1164 2.240 . S
O1165 C1170 1.279 . S
O1166 Cd1163 2.297 . S
O1166 C1168 1.247 . S
O1167 Cd1163 2.439 . S
O1167 C1168 1.208 . S
C1168 O1166 1.247 . S
C1168 O1167 1.208 . S
C1169 O1174 1.247 . S
C1169 O1175 1.208 . S
C1170 O1162 1.315 . S
C1170 O1165 1.279 . S
C1171 O1172 1.315 . S
C1171 O1173 1.279 . S
O1172 Cd1164 2.223 . S
O1172 C1171 1.315 . S
O1173 Cd1163 2.240 . S
O1173 C1171 1.279 . S
O1174 Cd1164 2.297 . S
O1174 C1169 1.247 . S
O1175 Cd1164 2.439 . S
O1175 C1169 1.208 . S
O1176 Cd1177 2.223 . S
O1176 C1184 1.315 . S
Cd1177 O1176 2.223 . S
Cd1177 O1180 2.297 . S
Cd1177 O1181 2.439 . S
Cd1177 O1187 2.240 . S
Cd1178 O1179 2.240 . S
Cd1178 O1186 2.223 . S
Cd1178 O1188 2.297 . S
Cd1178 O1189 2.439 . S
O1179 Cd1178 2.240 . S
O1179 C1184 1.279 . S
O1180 Cd1177 2.297 . S
O1180 C1182 1.247 . S
O1181 Cd1177 2.439 . S
O1181 C1182 1.208 . S
C1182 O1180 1.247 . S
C1182 O1181 1.208 . S
C1183 O1188 1.247 . S
C1183 O1189 1.208 . S
C1184 O1176 1.315 . S
C1184 O1179 1.279 . S
C1185 O1186 1.315 . S
C1185 O1187 1.279 . S
O1186 Cd1178 2.223 . S
O1186 C1185 1.315 . S
O1187 Cd1177 2.240 . S
O1187 C1185 1.279 . S
O1188 Cd1178 2.297 . S
O1188 C1183 1.247 . S
O1189 Cd1178 2.439 . S
O1189 C1183 1.208 . S
O1190 Cd1191 2.223 . S
O1190 C1198 1.315 . S
Cd1191 O1190 2.223 . S
Cd1191 O1194 2.297 . S
Cd1191 O1195 2.439 . S
Cd1191 O1201 2.240 . S
Cd1192 O1193 2.240 . S
Cd1192 O1200 2.223 . S
Cd1192 O1202 2.297 . S
Cd1192 O1203 2.439 . S
O1193 Cd1192 2.240 . S
O1193 C1198 1.279 . S
O1194 Cd1191 2.297 . S
O1194 C1196 1.247 . S
O1195 Cd1191 2.439 . S
O1195 C1196 1.208 . S
C1196 O1194 1.247 . S
C1196 O1195 1.208 . S
C1197 O1202 1.247 . S
C1197 O1203 1.208 . S
C1198 O1190 1.315 . S
C1198 O1193 1.279 . S
C1199 O1200 1.315 . S
C1199 O1201 1.279 . S
O1200 Cd1192 2.223 . S
O1200 C1199 1.315 . S
O1201 Cd1191 2.240 . S
O1201 C1199 1.279 . S
O1202 Cd1192 2.297 . S
O1202 C1197 1.247 . S
O1203 Cd1192 2.439 . S
O1203 C1197 1.208 . S
O1204 Cd1205 2.223 . S
O1204 C1212 1.315 . S
Cd1205 O1204 2.223 . S
Cd1205 O1208 2.297 . S
Cd1205 O1209 2.439 . S
Cd1205 O1215 2.240 . S
Cd1206 O1207 2.240 . S
Cd1206 O1214 2.223 . S
Cd1206 O1216 2.297 . S
Cd1206 O1217 2.439 . S
O1207 Cd1206 2.240 . S
O1207 C1212 1.279 . S
O1208 Cd1205 2.297 . S
O1208 C1210 1.247 . S
O1209 Cd1205 2.439 . S
O1209 C1210 1.208 . S
C1210 O1208 1.247 . S
C1210 O1209 1.208 . S
C1211 O1216 1.247 . S
C1211 O1217 1.208 . S
C1212 O1204 1.315 . S
C1212 O1207 1.279 . S
C1213 O1214 1.315 . S
C1213 O1215 1.279 . S
O1214 Cd1206 2.223 . S
O1214 C1213 1.315 . S
O1215 Cd1205 2.240 . S
O1215 C1213 1.279 . S
O1216 Cd1206 2.297 . S
O1216 C1211 1.247 . S
O1217 Cd1206 2.439 . S
O1217 C1211 1.208 . S
O1218 Cd1219 2.223 . S
O1218 C1226 1.315 . S
Cd1219 O1218 2.223 . S
Cd1219 O1222 2.297 . S
Cd1219 O1223 2.439 . S
Cd1219 O1229 2.240 . S
Cd1220 O1221 2.240 . S
Cd1220 O1228 2.223 . S
Cd1220 O1230 2.297 . S
Cd1220 O1231 2.439 . S
O1221 Cd1220 2.240 . S
O1221 C1226 1.279 . S
O1222 Cd1219 2.297 . S
O1222 C1224 1.247 . S
O1223 Cd1219 2.439 . S
O1223 C1224 1.208 . S
C1224 O1222 1.247 . S
C1224 O1223 1.208 . S
C1225 O1230 1.247 . S
C1225 O1231 1.208 . S
C1226 O1218 1.315 . S
C1226 O1221 1.279 . S
C1227 O1228 1.315 . S
C1227 O1229 1.279 . S
O1228 Cd1220 2.223 . S
O1228 C1227 1.315 . S
O1229 Cd1219 2.240 . S
O1229 C1227 1.279 . S
O1230 Cd1220 2.297 . S
O1230 C1225 1.247 . S
O1231 Cd1220 2.439 . S
O1231 C1225 1.208 . S
O1232 Cd1233 2.223 . S
O1232 C1240 1.315 . S
Cd1233 O1232 2.223 . S
Cd1233 O1236 2.297 . S
Cd1233 O1237 2.439 . S
Cd1233 O1243 2.240 . S
Cd1234 O1235 2.240 . S
Cd1234 O1242 2.223 . S
Cd1234 O1244 2.297 . S
Cd1234 O1245 2.439 . S
O1235 Cd1234 2.240 . S
O1235 C1240 1.279 . S
O1236 Cd1233 2.297 . S
O1236 C1238 1.247 . S
O1237 Cd1233 2.439 . S
O1237 C1238 1.208 . S
C1238 O1236 1.247 . S
C1238 O1237 1.208 . S
C1239 O1244 1.247 . S
C1239 O1245 1.208 . S
C1240 O1232 1.315 . S
C1240 O1235 1.279 . S
C1241 O1242 1.315 . S
C1241 O1243 1.279 . S
O1242 Cd1234 2.223 . S
O1242 C1241 1.315 . S
O1243 Cd1233 2.240 . S
O1243 C1241 1.279 . S
O1244 Cd1234 2.297 . S
O1244 C1239 1.247 . S
O1245 Cd1234 2.439 . S
O1245 C1239 1.208 . S
O1246 Cd1247 2.223 . S
O1246 C1254 1.315 . S
Cd1247 O1246 2.223 . S
Cd1247 O1250 2.297 . S
Cd1247 O1251 2.439 . S
Cd1247 O1257 2.240 . S
Cd1248 O1249 2.240 . S
Cd1248 O1256 2.223 . S
Cd1248 O1258 2.297 . S
Cd1248 O1259 2.439 . S
O1249 Cd1248 2.240 . S
O1249 C1254 1.279 . S
O1250 Cd1247 2.297 . S
O1250 C1252 1.247 . S
O1251 Cd1247 2.439 . S
O1251 C1252 1.208 . S
C1252 O1250 1.247 . S
C1252 O1251 1.208 . S
C1253 O1258 1.247 . S
C1253 O1259 1.208 . S
C1254 O1246 1.315 . S
C1254 O1249 1.279 . S
C1255 O1256 1.315 . S
C1255 O1257 1.279 . S
O1256 Cd1248 2.223 . S
O1256 C1255 1.315 . S
O1257 Cd1247 2.240 . S
O1257 C1255 1.279 . S
O1258 Cd1248 2.297 . S
O1258 C1253 1.247 . S
O1259 Cd1248 2.439 . S
O1259 C1253 1.208 . S
O1260 Cd1261 2.223 . S
O1260 C1268 1.315 . S
Cd1261 O1260 2.223 . S
Cd1261 O1264 2.297 . S
Cd1261 O1265 2.439 . S
Cd1261 O1271 2.240 . S
Cd1262 O1263 2.240 . S
Cd1262 O1270 2.223 . S
Cd1262 O1272 2.297 . S
Cd1262 O1273 2.439 . S
O1263 Cd1262 2.240 . S
O1263 C1268 1.279 . S
O1264 Cd1261 2.297 . S
O1264 C1266 1.247 . S
O1265 Cd1261 2.439 . S
O1265 C1266 1.208 . S
C1266 O1264 1.247 . S
C1266 O1265 1.208 . S
C1267 O1272 1.247 . S
C1267 O1273 1.208 . S
C1268 O1260 1.315 . S
C1268 O1263 1.279 . S
C1269 O1270 1.315 . S
C1269 O1271 1.279 . S
O1270 Cd1262 2.223 . S
O1270 C1269 1.315 . S
O1271 Cd1261 2.240 . S
O1271 C1269 1.279 . S
O1272 Cd1262 2.297 . S
O1272 C1267 1.247 . S
O1273 Cd1262 2.439 . S
O1273 C1267 1.208 . S
O1274 Cd1275 2.223 . S
O1274 C1282 1.315 . S
Cd1275 O1274 2.223 . S
Cd1275 O1278 2.297 . S
Cd1275 O1279 2.439 . S
Cd1275 O1285 2.240 . S
Cd1276 O1277 2.240 . S
Cd1276 O1284 2.223 . S
Cd1276 O1286 2.297 . S
Cd1276 O1287 2.439 . S
O1277 Cd1276 2.240 . S
O1277 C1282 1.279 . S
O1278 Cd1275 2.297 . S
O1278 C1280 1.247 . S
O1279 Cd1275 2.439 . S
O1279 C1280 1.208 . S
C1280 O1278 1.247 . S
C1280 O1279 1.208 . S
C1281 O1286 1.247 . S
C1281 O1287 1.208 . S
C1282 O1274 1.315 . S
C1282 O1277 1.279 . S
C1283 O1284 1.315 . S
C1283 O1285 1.279 . S
O1284 Cd1276 2.223 . S
O1284 C1283 1.315 . S
O1285 Cd1275 2.240 . S
O1285 C1283 1.279 . S
O1286 Cd1276 2.297 . S
O1286 C1281 1.247 . S
O1287 Cd1276 2.439 . S
O1287 C1281 1.208 . S
O1288 Cd1289 2.223 . S
O1288 C1296 1.315 . S
Cd1289 O1288 2.223 . S
Cd1289 O1292 2.297 . S
Cd1289 O1293 2.439 . S
Cd1289 O1299 2.240 . S
Cd1290 O1291 2.240 . S
Cd1290 O1298 2.223 . S
Cd1290 O1300 2.297 . S
Cd1290 O1301 2.439 . S
O1291 Cd1290 2.240 . S
O1291 C1296 1.279 . S
O1292 Cd1289 2.297 . S
O1292 C1294 1.247 . S
O1293 Cd1289 2.439 . S
O1293 C1294 1.208 . S
C1294 O1292 1.247 . S
C1294 O1293 1.208 . S
C1295 O1300 1.247 . S
C1295 O1301 1.208 . S
C1296 O1288 1.315 . S
C1296 O1291 1.279 . S
C1297 O1298 1.315 . S
C1297 O1299 1.279 . S
O1298 Cd1290 2.223 . S
O1298 C1297 1.315 . S
O1299 Cd1289 2.240 . S
O1299 C1297 1.279 . S
O1300 Cd1290 2.297 . S
O1300 C1295 1.247 . S
O1301 Cd1290 2.439 . S
O1301 C1295 1.208 . S
O1302 Cd1303 2.223 . S
O1302 C1310 1.315 . S
Cd1303 O1302 2.223 . S
Cd1303 O1306 2.297 . S
Cd1303 O1307 2.439 . S
Cd1303 O1313 2.240 . S
Cd1304 O1305 2.240 . S
Cd1304 O1312 2.223 . S
Cd1304 O1314 2.297 . S
Cd1304 O1315 2.439 . S
O1305 Cd1304 2.240 . S
O1305 C1310 1.279 . S
O1306 Cd1303 2.297 . S
O1306 C1308 1.247 . S
O1307 Cd1303 2.439 . S
O1307 C1308 1.208 . S
C1308 O1306 1.247 . S
C1308 O1307 1.208 . S
C1309 O1314 1.247 . S
C1309 O1315 1.208 . S
C1310 O1302 1.315 . S
C1310 O1305 1.279 . S
C1311 O1312 1.315 . S
C1311 O1313 1.279 . S
O1312 Cd1304 2.223 . S
O1312 C1311 1.315 . S
O1313 Cd1303 2.240 . S
O1313 C1311 1.279 . S
O1314 Cd1304 2.297 . S
O1314 C1309 1.247 . S
O1315 Cd1304 2.439 . S
O1315 C1309 1.208 . S
O1316 Cd1317 2.223 . S
O1316 C1324 1.315 . S
Cd1317 O1316 2.223 . S
Cd1317 O1320 2.297 . S
Cd1317 O1321 2.439 . S
Cd1317 O1327 2.240 . S
Cd1318 O1319 2.240 . S
Cd1318 O1326 2.223 . S
Cd1318 O1328 2.297 . S
Cd1318 O1329 2.439 . S
O1319 Cd1318 2.240 . S
O1319 C1324 1.279 . S
O1320 Cd1317 2.297 . S
O1320 C1322 1.247 . S
O1321 Cd1317 2.439 . S
O1321 C1322 1.208 . S
C1322 O1320 1.247 . S
C1322 O1321 1.208 . S
C1323 O1328 1.247 . S
C1323 O1329 1.208 . S
C1324 O1316 1.315 . S
C1324 O1319 1.279 . S
C1325 O1326 1.315 . S
C1325 O1327 1.279 . S
O1326 Cd1318 2.223 . S
O1326 C1325 1.315 . S
O1327 Cd1317 2.240 . S
O1327 C1325 1.279 . S
O1328 Cd1318 2.297 . S
O1328 C1323 1.247 . S
O1329 Cd1318 2.439 . S
O1329 C1323 1.208 . S
O1330 Cd1331 2.223 . S
O1330 C1338 1.315 . S
Cd1331 O1330 2.223 . S
Cd1331 O1334 2.297 . S
Cd1331 O1335 2.439 . S
Cd1331 O1341 2.240 . S
Cd1332 O1333 2.240 . S
Cd1332 O1340 2.223 . S
Cd1332 O1342 2.297 . S
Cd1332 O1343 2.439 . S
O1333 Cd1332 2.240 . S
O1333 C1338 1.279 . S
O1334 Cd1331 2.297 . S
O1334 C1336 1.247 . S
O1335 Cd1331 2.439 . S
O1335 C1336 1.208 . S
C1336 O1334 1.247 . S
C1336 O1335 1.208 . S
C1337 O1342 1.247 . S
C1337 O1343 1.208 . S
C1338 O1330 1.315 . S
C1338 O1333 1.279 . S
C1339 O1340 1.315 . S
C1339 O1341 1.279 . S
O1340 Cd1332 2.223 . S
O1340 C1339 1.315 . S
O1341 Cd1331 2.240 . S
O1341 C1339 1.279 . S
O1342 Cd1332 2.297 . S
O1342 C1337 1.247 . S
O1343 Cd1332 2.439 . S
O1343 C1337 1.208 . S
H1344 C1352 0.950 . S
H1345 C1357 0.950 . S
H1346 C1354 0.950 1_655 S
H1347 C1356 0.950 . S
H1348 C1358 0.950 . S
H1349 C1360 0.950 1_455 S
H1350 C1362 0.950 . S
H1351 C1363 0.950 . S
C1352 H1344 0.950 . S
C1352 C1353 1.386 . S
C1352 C1354 1.391 . S
C1353 C1352 1.386 . S
C1353 C1357 1.393 . S
C1354 H1346 0.950 1_455 S
C1354 C1352 1.391 . S
C1354 C1355 1.400 . S
C1355 C1354 1.400 . S
C1355 C1356 1.398 . S
C1355 C1361 1.491 1_454 S
C1356 H1347 0.950 . S
C1356 C1355 1.398 . S
C1356 C1357 1.391 . S
C1357 H1345 0.950 . S
C1357 C1353 1.393 . S
C1357 C1356 1.391 . S
C1358 H1348 0.950 . S
C1358 C1359 1.386 . S
C1358 C1360 1.391 . S
C1359 C1358 1.386 . S
C1359 C1363 1.393 . S
C1360 H1349 0.950 1_655 S
C1360 C1358 1.391 . S
C1360 C1361 1.400 . S
C1361 C1355 1.491 1_656 S
C1361 C1360 1.400 . S
C1361 C1362 1.398 . S
C1362 H1350 0.950 . S
C1362 C1361 1.398 . S
C1362 C1363 1.391 . S
C1363 H1351 0.950 . S
C1363 C1359 1.393 . S
C1363 C1362 1.391 . S
H1364 C1372 0.950 . S
H1365 C1377 0.950 . S
H1366 C1374 0.950 . S
H1367 C1376 0.950 . S
H1368 C1378 0.950 . S
H1369 C1380 0.950 . S
H1370 C1382 0.950 . S
H1371 C1383 0.950 . S
C1372 H1364 0.950 . S
C1372 C1373 1.386 . S
C1372 C1374 1.391 . S
C1373 C1372 1.386 . S
C1373 C1377 1.393 . S
C1374 H1366 0.950 . S
C1374 C1372 1.391 . S
C1374 C1375 1.400 . S
C1375 C1374 1.400 . S
C1375 C1376 1.398 . S
C1375 C1381 1.491 . S
C1376 H1367 0.950 . S
C1376 C1375 1.398 . S
C1376 C1377 1.391 . S
C1377 H1365 0.950 . S
C1377 C1373 1.393 . S
C1377 C1376 1.391 . S
C1378 H1368 0.950 . S
C1378 C1379 1.386 . S
C1378 C1380 1.391 . S
C1379 C1378 1.386 . S
C1379 C1383 1.393 . S
C1380 H1369 0.950 . S
C1380 C1378 1.391 . S
C1380 C1381 1.400 . S
C1381 C1375 1.491 . S
C1381 C1380 1.400 . S
C1381 C1382 1.398 . S
C1382 H1370 0.950 . S
C1382 C1381 1.398 . S
C1382 C1383 1.391 . S
C1383 H1371 0.950 . S
C1383 C1379 1.393 . S
C1383 C1382 1.391 . S
H1384 C1392 0.950 . S
H1385 C1397 0.950 1_455 S
H1386 C1394 0.950 . S
H1387 C1396 0.950 . S
H1388 C1398 0.950 . S
H1389 C1400 0.950 . S
H1390 C1402 0.950 . S
H1391 C1403 0.950 1_655 S
C1392 H1384 0.950 . S
C1392 C1393 1.386 . S
C1392 C1394 1.391 . S
C1393 C1392 1.386 . S
C1393 C1397 1.393 . S
C1394 H1386 0.950 . S
C1394 C1392 1.391 . S
C1394 C1395 1.400 . S
C1395 C1394 1.400 . S
C1395 C1396 1.398 1_655 S
C1395 C1401 1.491 1_655 S
C1396 H1387 0.950 . S
C1396 C1395 1.398 1_455 S
C1396 C1397 1.391 1_455 S
C1397 H1385 0.950 1_655 S
C1397 C1393 1.393 . S
C1397 C1396 1.391 1_655 S
C1398 H1388 0.950 . S
C1398 C1399 1.386 . S
C1398 C1400 1.391 . S
C1399 C1398 1.386 . S
C1399 C1403 1.393 . S
C1400 H1389 0.950 . S
C1400 C1398 1.391 . S
C1400 C1401 1.400 . S
C1401 C1395 1.491 1_455 S
C1401 C1400 1.400 . S
C1401 C1402 1.398 1_455 S
C1402 H1390 0.950 . S
C1402 C1401 1.398 1_655 S
C1402 C1403 1.391 1_655 S
C1403 H1391 0.950 1_455 S
C1403 C1399 1.393 . S
C1403 C1402 1.391 1_455 S
H1404 C1412 0.950 . S
H1405 C1417 0.950 . S
H1406 C1414 0.950 . S
H1407 C1416 0.950 . S
H1408 C1418 0.950 . S
H1409 C1420 0.950 . S
H1410 C1422 0.950 . S
H1411 C1423 0.950 . S
C1412 H1404 0.950 . S
C1412 C1413 1.386 . S
C1412 C1414 1.391 . S
C1413 C1412 1.386 . S
C1413 C1417 1.393 . S
C1414 H1406 0.950 . S
C1414 C1412 1.391 . S
C1414 C1415 1.400 . S
C1415 C1414 1.400 . S
C1415 C1416 1.398 . S
C1415 C1421 1.491 . S
C1416 H1407 0.950 . S
C1416 C1415 1.398 . S
C1416 C1417 1.391 . S
C1417 H1405 0.950 . S
C1417 C1413 1.393 . S
C1417 C1416 1.391 . S
C1418 H1408 0.950 . S
C1418 C1419 1.386 . S
C1418 C1420 1.391 . S
C1419 C1418 1.386 . S
C1419 C1423 1.393 . S
C1420 H1409 0.950 . S
C1420 C1418 1.391 . S
C1420 C1421 1.400 . S
C1421 C1415 1.491 . S
C1421 C1420 1.400 . S
C1421 C1422 1.398 . S
C1422 H1410 0.950 . S
C1422 C1421 1.398 . S
C1422 C1423 1.391 . S
C1423 H1411 0.950 . S
C1423 C1419 1.393 . S
C1423 C1422 1.391 . S
H1424 C1432 0.925 1_455 S
H1425 C1437 0.950 . S
H1426 C1434 0.950 . S
H1427 C1436 0.950 . S
H1428 C1438 0.925 1_655 S
H1429 C1440 0.950 . S
H1430 C1442 0.950 . S
H1431 C1443 0.950 . S
C1432 H1424 0.925 1_655 S
C1432 C1433 1.428 . S
C1432 C1434 1.375 1_655 S
C1433 C1432 1.428 . S
C1433 C1437 1.393 . S
C1434 H1426 0.950 . S
C1434 C1432 1.375 1_455 S
C1434 C1435 1.400 1_455 S
C1435 C1434 1.400 1_655 S
C1435 C1436 1.398 . S
C1435 C1441 1.491 1_654 S
C1436 H1427 0.950 . S
C1436 C1435 1.398 . S
C1436 C1437 1.391 . S
C1437 H1425 0.950 . S
C1437 C1433 1.393 . S
C1437 C1436 1.391 . S
C1438 H1428 0.925 1_455 S
C1438 C1439 1.428 . S
C1438 C1440 1.375 1_455 S
C1439 C1438 1.428 . S
C1439 C1443 1.393 . S
C1440 H1429 0.950 . S
C1440 C1438 1.375 1_655 S
C1440 C1441 1.400 1_655 S
C1441 C1435 1.491 1_456 S
C1441 C1440 1.400 1_455 S
C1441 C1442 1.398 . S
C1442 H1430 0.950 . S
C1442 C1441 1.398 . S
C1442 C1443 1.391 . S
C1443 H1431 0.950 . S
C1443 C1439 1.393 . S
C1443 C1442 1.391 . S
H1444 C1452 0.950 . S
H1445 C1457 0.950 . S
H1446 C1454 0.950 . S
H1447 C1456 0.950 . S
H1448 C1458 0.950 . S
H1449 C1460 0.950 . S
H1450 C1462 0.950 . S
H1451 C1463 0.950 . S
C1452 H1444 0.950 . S
C1452 C1453 1.386 . S
C1452 C1454 1.391 . S
C1453 C1452 1.386 . S
C1453 C1457 1.393 . S
C1454 H1446 0.950 . S
C1454 C1452 1.391 . S
C1454 C1455 1.400 . S
C1455 C1454 1.400 . S
C1455 C1456 1.398 . S
C1455 C1461 1.491 . S
C1456 H1447 0.950 . S
C1456 C1455 1.398 . S
C1456 C1457 1.391 . S
C1457 H1445 0.950 . S
C1457 C1453 1.393 . S
C1457 C1456 1.391 . S
C1458 H1448 0.950 . S
C1458 C1459 1.386 . S
C1458 C1460 1.391 . S
C1459 C1458 1.386 . S
C1459 C1463 1.393 . S
C1460 H1449 0.950 . S
C1460 C1458 1.391 . S
C1460 C1461 1.400 . S
C1461 C1455 1.491 . S
C1461 C1460 1.400 . S
C1461 C1462 1.398 . S
C1462 H1450 0.950 . S
C1462 C1461 1.398 . S
C1462 C1463 1.391 . S
C1463 H1451 0.950 . S
C1463 C1459 1.393 . S
C1463 C1462 1.391 . S
H1464 C1472 0.950 . S
H1465 C1477 0.953 . S
H1466 C1474 0.950 . S
H1467 C1476 0.950 . S
H1468 C1478 0.950 . S
H1469 C1480 0.950 . S
H1470 C1482 0.950 . S
H1471 C1483 0.953 . S
C1472 H1464 0.950 . S
C1472 C1473 1.386 . S
C1472 C1474 1.391 . S
C1473 C1472 1.386 . S
C1473 C1477 1.387 1_455 S
C1474 H1466 0.950 . S
C1474 C1472 1.391 . S
C1474 C1475 1.400 . S
C1475 C1474 1.400 . S
C1475 C1476 1.398 1_455 S
C1475 C1481 1.491 1_455 S
C1476 H1467 0.950 . S
C1476 C1475 1.398 1_655 S
C1476 C1477 1.393 . S
C1477 H1465 0.953 . S
C1477 C1473 1.387 1_655 S
C1477 C1476 1.393 . S
C1478 H1468 0.950 . S
C1478 C1479 1.386 . S
C1478 C1480 1.391 . S
C1479 C1478 1.386 . S
C1479 C1483 1.387 1_655 S
C1480 H1469 0.950 . S
C1480 C1478 1.391 . S
C1480 C1481 1.400 . S
C1481 C1475 1.491 1_655 S
C1481 C1480 1.400 . S
C1481 C1482 1.398 1_655 S
C1482 H1470 0.950 . S
C1482 C1481 1.398 1_455 S
C1482 C1483 1.393 . S
C1483 H1471 0.953 . S
C1483 C1479 1.387 1_455 S
C1483 C1482 1.393 . S
H1484 C1492 0.950 . S
H1485 C1497 0.950 . S
H1486 C1494 0.950 . S
H1487 C1496 0.950 . S
H1488 C1498 0.950 . S
H1489 C1500 0.950 . S
H1490 C1502 0.950 . S
H1491 C1503 0.950 . S
C1492 H1484 0.950 . S
C1492 C1493 1.386 . S
C1492 C1494 1.391 . S
C1493 C1492 1.386 . S
C1493 C1497 1.393 . S
C1494 H1486 0.950 . S
C1494 C1492 1.391 . S
C1494 C1495 1.400 . S
C1495 C1494 1.400 . S
C1495 C1496 1.398 . S
C1495 C1501 1.491 . S
C1496 H1487 0.950 . S
C1496 C1495 1.398 . S
C1496 C1497 1.391 . S
C1497 H1485 0.950 . S
C1497 C1493 1.393 . S
C1497 C1496 1.391 . S
C1498 H1488 0.950 . S
C1498 C1499 1.386 . S
C1498 C1500 1.391 . S
C1499 C1498 1.386 . S
C1499 C1503 1.393 . S
C1500 H1489 0.950 . S
C1500 C1498 1.391 . S
C1500 C1501 1.400 . S
C1501 C1495 1.491 . S
C1501 C1500 1.400 . S
C1501 C1502 1.398 . S
C1502 H1490 0.950 . S
C1502 C1501 1.398 . S
C1502 C1503 1.391 . S
C1503 H1491 0.950 . S
C1503 C1499 1.393 . S
C1503 C1502 1.391 . S
H1504 C1512 0.950 1_545 S
H1505 C1517 0.950 . S
H1506 C1514 0.950 . S
H1507 C1516 0.950 . S
H1508 C1518 0.950 1_565 S
H1509 C1520 0.950 . S
H1510 C1522 0.950 . S
H1511 C1523 0.950 . S
C1512 H1504 0.950 1_565 S
C1512 C1513 1.386 . S
C1512 C1514 1.391 1_565 S
C1513 C1512 1.386 . S
C1513 C1517 1.393 . S
C1514 H1506 0.950 . S
C1514 C1512 1.391 1_545 S
C1514 C1515 1.400 1_545 S
C1515 C1514 1.400 1_565 S
C1515 C1516 1.398 . S
C1515 C1521 1.491 1_665 S
C1516 H1507 0.950 . S
C1516 C1515 1.398 . S
C1516 C1517 1.391 . S
C1517 H1505 0.950 . S
C1517 C1513 1.393 . S
C1517 C1516 1.391 . S
C1518 H1508 0.950 1_545 S
C1518 C1519 1.386 . S
C1518 C1520 1.391 1_545 S
C1519 C1518 1.386 . S
C1519 C1523 1.393 . S
C1520 H1509 0.950 . S
C1520 C1518 1.391 1_565 S
C1520 C1521 1.400 1_565 S
C1521 C1515 1.491 1_445 S
C1521 C1520 1.400 1_545 S
C1521 C1522 1.398 . S
C1522 H1510 0.950 . S
C1522 C1521 1.398 . S
C1522 C1523 1.391 . S
C1523 H1511 0.950 . S
C1523 C1519 1.393 . S
C1523 C1522 1.391 . S
H1524 C1532 0.950 . S
H1525 C1537 0.950 . S
H1526 C1534 0.950 . S
H1527 C1536 0.950 . S
H1528 C1538 0.950 . S
H1529 C1540 0.950 . S
H1530 C1542 0.950 . S
H1531 C1543 0.950 . S
C1532 H1524 0.950 . S
C1532 C1533 1.386 . S
C1532 C1534 1.391 . S
C1533 C1532 1.386 . S
C1533 C1537 1.393 . S
C1534 H1526 0.950 . S
C1534 C1532 1.391 . S
C1534 C1535 1.400 . S
C1535 C1534 1.400 . S
C1535 C1536 1.398 . S
C1535 C1541 1.491 . S
C1536 H1527 0.950 . S
C1536 C1535 1.398 . S
C1536 C1537 1.391 . S
C1537 H1525 0.950 . S
C1537 C1533 1.393 . S
C1537 C1536 1.391 . S
C1538 H1528 0.950 . S
C1538 C1539 1.386 . S
C1538 C1540 1.391 . S
C1539 C1538 1.386 . S
C1539 C1543 1.393 . S
C1540 H1529 0.950 . S
C1540 C1538 1.391 . S
C1540 C1541 1.400 . S
C1541 C1535 1.491 . S
C1541 C1540 1.400 . S
C1541 C1542 1.398 . S
C1542 H1530 0.950 . S
C1542 C1541 1.398 . S
C1542 C1543 1.391 . S
C1543 H1531 0.950 . S
C1543 C1539 1.393 . S
C1543 C1542 1.391 . S
H1544 C1552 0.950 . S
H1545 C1557 0.950 . S
H1546 C1554 0.950 . S
H1547 C1556 0.950 . S
H1548 C1558 0.950 . S
H1549 C1560 0.950 . S
H1550 C1562 0.950 . S
H1551 C1563 0.950 . S
C1552 H1544 0.950 . S
C1552 C1553 1.386 . S
C1552 C1554 1.391 . S
C1553 C1552 1.386 . S
C1553 C1557 1.393 . S
C1554 H1546 0.950 . S
C1554 C1552 1.391 . S
C1554 C1555 1.400 . S
C1555 C1554 1.400 . S
C1555 C1556 1.398 . S
C1555 C1561 1.491 1_655 S
C1556 H1547 0.950 . S
C1556 C1555 1.398 . S
C1556 C1557 1.391 . S
C1557 H1545 0.950 . S
C1557 C1553 1.393 . S
C1557 C1556 1.391 . S
C1558 H1548 0.950 . S
C1558 C1559 1.386 . S
C1558 C1560 1.391 . S
C1559 C1558 1.386 . S
C1559 C1563 1.393 . S
C1560 H1549 0.950 . S
C1560 C1558 1.391 . S
C1560 C1561 1.400 . S
C1561 C1555 1.491 1_455 S
C1561 C1560 1.400 . S
C1561 C1562 1.398 . S
C1562 H1550 0.950 . S
C1562 C1561 1.398 . S
C1562 C1563 1.391 . S
C1563 H1551 0.950 . S
C1563 C1559 1.393 . S
C1563 C1562 1.391 . S
H1564 C1572 0.950 . S
H1565 C1577 0.950 . S
H1566 C1574 0.950 . S
H1567 C1576 0.950 . S
H1568 C1578 0.950 . S
H1569 C1580 0.950 . S
H1570 C1582 0.950 . S
H1571 C1583 0.950 . S
C1572 H1564 0.950 . S
C1572 C1573 1.386 . S
C1572 C1574 1.391 . S
C1573 C1572 1.386 . S
C1573 C1577 1.393 . S
C1574 H1566 0.950 . S
C1574 C1572 1.391 . S
C1574 C1575 1.400 . S
C1575 C1574 1.400 . S
C1575 C1576 1.398 . S
C1575 C1581 1.491 . S
C1576 H1567 0.950 . S
C1576 C1575 1.398 . S
C1576 C1577 1.391 . S
C1577 H1565 0.950 . S
C1577 C1573 1.393 . S
C1577 C1576 1.391 . S
C1578 H1568 0.950 . S
C1578 C1579 1.386 . S
C1578 C1580 1.391 . S
C1579 C1578 1.386 . S
C1579 C1583 1.393 . S
C1580 H1569 0.950 . S
C1580 C1578 1.391 . S
C1580 C1581 1.400 . S
C1581 C1575 1.491 . S
C1581 C1580 1.400 . S
C1581 C1582 1.398 . S
C1582 H1570 0.950 . S
C1582 C1581 1.398 . S
C1582 C1583 1.391 . S
C1583 H1571 0.950 . S
C1583 C1579 1.393 . S
C1583 C1582 1.391 . S
H1584 C1592 0.950 . S
H1585 C1597 0.953 1_545 S
H1586 C1594 0.950 . S
H1587 C1596 0.950 . S
H1588 C1598 0.950 . S
H1589 C1600 0.950 . S
H1590 C1602 0.950 . S
H1591 C1603 0.953 1_565 S
C1592 H1584 0.950 . S
C1592 C1593 1.386 . S
C1592 C1594 1.391 . S
C1593 C1592 1.386 . S
C1593 C1597 1.388 . S
C1594 H1586 0.950 . S
C1594 C1592 1.391 . S
C1594 C1595 1.400 . S
C1595 C1594 1.400 . S
C1595 C1596 1.398 1_565 S
C1595 C1601 1.491 1_465 S
C1596 H1587 0.950 . S
C1596 C1595 1.398 1_545 S
C1596 C1597 1.393 1_545 S
C1597 H1585 0.953 1_565 S
C1597 C1593 1.388 . S
C1597 C1596 1.393 1_565 S
C1598 H1588 0.950 . S
C1598 C1599 1.386 . S
C1598 C1600 1.391 . S
C1599 C1598 1.386 . S
C1599 C1603 1.388 . S
C1600 H1589 0.950 . S
C1600 C1598 1.391 . S
C1600 C1601 1.400 . S
C1601 C1595 1.491 1_645 S
C1601 C1600 1.400 . S
C1601 C1602 1.398 1_545 S
C1602 H1590 0.950 . S
C1602 C1601 1.398 1_565 S
C1602 C1603 1.393 1_565 S
C1603 H1591 0.953 1_545 S
C1603 C1599 1.388 . S
C1603 C1602 1.393 1_545 S
H1604 C1612 0.950 . S
H1605 C1617 0.950 . S
H1606 C1614 0.950 . S
H1607 C1616 0.950 . S
H1608 C1618 0.950 . S
H1609 C1620 0.950 . S
H1610 C1622 0.950 . S
H1611 C1623 0.950 . S
C1612 H1604 0.950 . S
C1612 C1613 1.386 . S
C1612 C1614 1.391 . S
C1613 C1612 1.386 . S
C1613 C1617 1.393 . S
C1614 H1606 0.950 . S
C1614 C1612 1.391 . S
C1614 C1615 1.400 . S
C1615 C1614 1.400 . S
C1615 C1616 1.398 . S
C1615 C1621 1.491 . S
C1616 H1607 0.950 . S
C1616 C1615 1.398 . S
C1616 C1617 1.391 . S
C1617 H1605 0.950 . S
C1617 C1613 1.393 . S
C1617 C1616 1.391 . S
C1618 H1608 0.950 . S
C1618 C1619 1.386 . S
C1618 C1620 1.391 . S
C1619 C1618 1.386 . S
C1619 C1623 1.393 . S
C1620 H1609 0.950 . S
C1620 C1618 1.391 . S
C1620 C1621 1.400 . S
C1621 C1615 1.491 . S
C1621 C1620 1.400 . S
C1621 C1622 1.398 . S
C1622 H1610 0.950 . S
C1622 C1621 1.398 . S
C1622 C1623 1.391 . S
C1623 H1611 0.950 . S
C1623 C1619 1.393 . S
C1623 C1622 1.391 . S
H1624 C1632 0.950 . S
H1625 C1637 0.950 . S
H1626 C1634 0.950 . S
H1627 C1636 0.950 . S
H1628 C1638 0.950 . S
H1629 C1640 0.950 . S
H1630 C1642 0.950 . S
H1631 C1643 0.950 . S
C1632 H1624 0.950 . S
C1632 C1633 1.386 . S
C1632 C1634 1.391 . S
C1633 C1632 1.386 . S
C1633 C1637 1.393 . S
C1634 H1626 0.950 . S
C1634 C1632 1.391 . S
C1634 C1635 1.400 . S
C1635 C1634 1.400 . S
C1635 C1636 1.398 . S
C1635 C1641 1.491 1_455 S
C1636 H1627 0.950 . S
C1636 C1635 1.398 . S
C1636 C1637 1.391 . S
C1637 H1625 0.950 . S
C1637 C1633 1.393 . S
C1637 C1636 1.391 . S
C1638 H1628 0.950 . S
C1638 C1639 1.386 . S
C1638 C1640 1.391 . S
C1639 C1638 1.386 . S
C1639 C1643 1.393 . S
C1640 H1629 0.950 . S
C1640 C1638 1.391 . S
C1640 C1641 1.400 . S
C1641 C1635 1.491 1_655 S
C1641 C1640 1.400 . S
C1641 C1642 1.398 . S
C1642 H1630 0.950 . S
C1642 C1641 1.398 . S
C1642 C1643 1.391 . S
C1643 H1631 0.950 . S
C1643 C1639 1.393 . S
C1643 C1642 1.391 . S
H1644 C1652 0.950 . S
H1645 C1657 0.950 . S
H1646 C1654 0.950 . S
H1647 C1656 0.950 . S
H1648 C1658 0.950 . S
H1649 C1660 0.950 . S
H1650 C1662 0.950 . S
H1651 C1663 0.950 . S
C1652 H1644 0.950 . S
C1652 C1653 1.386 . S
C1652 C1654 1.391 . S
C1653 C1652 1.386 . S
C1653 C1657 1.393 . S
C1654 H1646 0.950 . S
C1654 C1652 1.391 . S
C1654 C1655 1.400 . S
C1655 C1654 1.400 . S
C1655 C1656 1.398 . S
C1655 C1661 1.491 . S
C1656 H1647 0.950 . S
C1656 C1655 1.398 . S
C1656 C1657 1.391 . S
C1657 H1645 0.950 . S
C1657 C1653 1.393 . S
C1657 C1656 1.391 . S
C1658 H1648 0.950 . S
C1658 C1659 1.386 . S
C1658 C1660 1.391 . S
C1659 C1658 1.386 . S
C1659 C1663 1.393 . S
C1660 H1649 0.950 . S
C1660 C1658 1.391 . S
C1660 C1661 1.400 . S
C1661 C1655 1.491 . S
C1661 C1660 1.400 . S
C1661 C1662 1.398 . S
C1662 H1650 0.950 . S
C1662 C1661 1.398 . S
C1662 C1663 1.391 . S
C1663 H1651 0.950 . S
C1663 C1659 1.393 . S
C1663 C1662 1.391 . S
H1664 C1672 0.950 . S
H1665 C1677 0.950 . S
H1666 C1674 0.943 1_554 S
H1667 C1676 0.950 . S
H1668 C1678 0.950 . S
H1669 C1680 0.943 1_556 S
H1670 C1682 0.950 . S
H1671 C1683 0.950 . S
C1672 H1664 0.950 . S
C1672 C1673 1.386 . S
C1672 C1674 1.391 . S
C1673 C1672 1.386 . S
C1673 C1677 1.393 . S
C1674 H1666 0.943 1_556 S
C1674 C1672 1.391 . S
C1674 C1675 1.400 . S
C1675 C1674 1.400 . S
C1675 C1676 1.398 . S
C1675 C1681 1.491 1_566 S
C1676 H1667 0.950 . S
C1676 C1675 1.398 . S
C1676 C1677 1.391 . S
C1677 H1665 0.950 . S
C1677 C1673 1.393 . S
C1677 C1676 1.391 . S
C1678 H1668 0.950 . S
C1678 C1679 1.386 . S
C1678 C1680 1.391 . S
C1679 C1678 1.386 . S
C1679 C1683 1.393 . S
C1680 H1669 0.943 1_554 S
C1680 C1678 1.391 . S
C1680 C1681 1.400 . S
C1681 C1675 1.491 1_544 S
C1681 C1680 1.400 . S
C1681 C1682 1.398 . S
C1682 H1670 0.950 . S
C1682 C1681 1.398 . S
C1682 C1683 1.391 . S
C1683 H1671 0.950 . S
C1683 C1679 1.393 . S
C1683 C1682 1.391 . S
H1684 C1692 0.950 . S
H1685 C1697 0.950 . S
H1686 C1694 0.950 . S
H1687 C1696 0.950 . S
H1688 C1698 0.950 . S
H1689 C1700 0.950 . S
H1690 C1702 0.950 . S
H1691 C1703 0.950 . S
C1692 H1684 0.950 . S
C1692 C1693 1.386 . S
C1692 C1694 1.391 . S
C1693 C1692 1.386 . S
C1693 C1697 1.393 . S
C1694 H1686 0.950 . S
C1694 C1692 1.391 . S
C1694 C1695 1.400 . S
C1695 C1694 1.400 . S
C1695 C1696 1.398 . S
C1695 C1701 1.491 1_545 S
C1696 H1687 0.950 . S
C1696 C1695 1.398 . S
C1696 C1697 1.391 . S
C1697 H1685 0.950 . S
C1697 C1693 1.393 . S
C1697 C1696 1.391 . S
C1698 H1688 0.950 . S
C1698 C1699 1.386 . S
C1698 C1700 1.391 . S
C1699 C1698 1.386 . S
C1699 C1703 1.393 . S
C1700 H1689 0.950 . S
C1700 C1698 1.391 . S
C1700 C1701 1.400 . S
C1701 C1695 1.491 1_565 S
C1701 C1700 1.400 . S
C1701 C1702 1.398 . S
C1702 H1690 0.950 . S
C1702 C1701 1.398 . S
C1702 C1703 1.391 . S
C1703 H1691 0.950 . S
C1703 C1699 1.393 . S
C1703 C1702 1.391 . S
H1704 C1712 0.950 . S
H1705 C1717 0.950 . S
H1706 C1714 0.950 . S
H1707 C1716 0.950 . S
H1708 C1718 0.950 . S
H1709 C1720 0.950 . S
H1710 C1722 0.950 . S
H1711 C1723 0.950 . S
C1712 H1704 0.950 . S
C1712 C1713 1.386 . S
C1712 C1714 1.391 . S
C1713 C1712 1.386 . S
C1713 C1717 1.393 . S
C1714 H1706 0.950 . S
C1714 C1712 1.391 . S
C1714 C1715 1.400 . S
C1715 C1714 1.400 . S
C1715 C1716 1.398 . S
C1715 C1721 1.491 . S
C1716 H1707 0.950 . S
C1716 C1715 1.398 . S
C1716 C1717 1.391 . S
C1717 H1705 0.950 . S
C1717 C1713 1.393 . S
C1717 C1716 1.391 . S
C1718 H1708 0.950 . S
C1718 C1719 1.386 . S
C1718 C1720 1.391 . S
C1719 C1718 1.386 . S
C1719 C1723 1.393 . S
C1720 H1709 0.950 . S
C1720 C1718 1.391 . S
C1720 C1721 1.400 . S
C1721 C1715 1.491 . S
C1721 C1720 1.400 . S
C1721 C1722 1.398 . S
C1722 H1710 0.950 . S
C1722 C1721 1.398 . S
C1722 C1723 1.391 . S
C1723 H1711 0.950 . S
C1723 C1719 1.393 . S
C1723 C1722 1.391 . S
H1724 C1732 0.950 . S
H1725 C1737 0.950 . S
H1726 C1734 0.950 . S
H1727 C1736 0.976 . S
H1728 C1738 0.950 . S
H1729 C1740 0.950 . S
H1730 C1742 0.976 . S
H1731 C1743 0.950 . S
C1732 H1724 0.950 . S
C1732 C1733 1.386 . S
C1732 C1734 1.391 . S
C1733 C1732 1.386 . S
C1733 C1737 1.393 . S
C1734 H1726 0.950 . S
C1734 C1732 1.391 . S
C1734 C1735 1.400 . S
C1735 C1734 1.400 . S
C1735 C1736 1.389 1_554 S
C1735 C1741 1.491 1_554 S
C1736 H1727 0.976 . S
C1736 C1735 1.389 1_556 S
C1736 C1737 1.376 1_556 S
C1737 H1725 0.950 . S
C1737 C1733 1.393 . S
C1737 C1736 1.376 1_554 S
C1738 H1728 0.950 . S
C1738 C1739 1.386 . S
C1738 C1740 1.391 . S
C1739 C1738 1.386 . S
C1739 C1743 1.393 . S
C1740 H1729 0.950 . S
C1740 C1738 1.391 . S
C1740 C1741 1.400 . S
C1741 C1735 1.491 1_556 S
C1741 C1740 1.400 . S
C1741 C1742 1.389 1_556 S
C1742 H1730 0.976 . S
C1742 C1741 1.389 1_554 S
C1742 C1743 1.376 1_554 S
C1743 H1731 0.950 . S
C1743 C1739 1.393 . S
C1743 C1742 1.376 1_556 S
H1744 C1752 0.950 . S
H1745 C1757 0.950 . S
H1746 C1754 0.950 . S
H1747 C1756 0.950 . S
H1748 C1758 0.950 . S
H1749 C1760 0.950 . S
H1750 C1762 0.950 . S
H1751 C1763 0.950 . S
C1752 H1744 0.950 . S
C1752 C1753 1.386 . S
C1752 C1754 1.391 . S
C1753 C1752 1.386 . S
C1753 C1757 1.393 . S
C1754 H1746 0.950 . S
C1754 C1752 1.391 . S
C1754 C1755 1.400 . S
C1755 C1754 1.400 . S
C1755 C1756 1.398 . S
C1755 C1761 1.491 . S
C1756 H1747 0.950 . S
C1756 C1755 1.398 . S
C1756 C1757 1.391 . S
C1757 H1745 0.950 . S
C1757 C1753 1.393 . S
C1757 C1756 1.391 . S
C1758 H1748 0.950 . S
C1758 C1759 1.386 . S
C1758 C1760 1.391 . S
C1759 C1758 1.386 . S
C1759 C1763 1.393 . S
C1760 H1749 0.950 . S
C1760 C1758 1.391 . S
C1760 C1761 1.400 . S
C1761 C1755 1.491 . S
C1761 C1760 1.400 . S
C1761 C1762 1.398 . S
C1762 H1750 0.950 . S
C1762 C1761 1.398 . S
C1762 C1763 1.391 . S
C1763 H1751 0.950 . S
C1763 C1759 1.393 . S
C1763 C1762 1.391 . S
H1764 C1772 0.950 . S
H1765 C1777 0.950 . S
H1766 C1774 0.950 1_556 S
H1767 C1776 0.950 . S
H1768 C1778 0.950 . S
H1769 C1780 0.950 1_554 S
H1770 C1782 0.950 . S
H1771 C1783 0.950 . S
C1772 H1764 0.950 . S
C1772 C1773 1.386 . S
C1772 C1774 1.391 . S
C1773 C1772 1.386 . S
C1773 C1777 1.393 . S
C1774 H1766 0.950 1_554 S
C1774 C1772 1.391 . S
C1774 C1775 1.400 . S
C1775 C1774 1.400 . S
C1775 C1776 1.398 . S
C1775 C1781 1.491 1_564 S
C1776 H1767 0.950 . S
C1776 C1775 1.398 . S
C1776 C1777 1.391 . S
C1777 H1765 0.950 . S
C1777 C1773 1.393 . S
C1777 C1776 1.391 . S
C1778 H1768 0.950 . S
C1778 C1779 1.386 . S
C1778 C1780 1.391 . S
C1779 C1778 1.386 . S
C1779 C1783 1.393 . S
C1780 H1769 0.950 1_556 S
C1780 C1778 1.391 . S
C1780 C1781 1.400 . S
C1781 C1775 1.491 1_546 S
C1781 C1780 1.400 . S
C1781 C1782 1.398 . S
C1782 H1770 0.950 . S
C1782 C1781 1.398 . S
C1782 C1783 1.391 . S
C1783 H1771 0.950 . S
C1783 C1779 1.393 . S
C1783 C1782 1.391 . S
H1784 C1792 0.950 . S
H1785 C1797 0.950 . S
H1786 C1794 0.950 . S
H1787 C1796 0.950 . S
H1788 C1798 0.950 . S
H1789 C1800 0.950 . S
H1790 C1802 0.950 . S
H1791 C1803 0.950 . S
C1792 H1784 0.950 . S
C1792 C1793 1.386 . S
C1792 C1794 1.391 . S
C1793 C1792 1.386 . S
C1793 C1797 1.393 . S
C1794 H1786 0.950 . S
C1794 C1792 1.391 . S
C1794 C1795 1.400 . S
C1795 C1794 1.400 . S
C1795 C1796 1.398 . S
C1795 C1801 1.491 . S
C1796 H1787 0.950 . S
C1796 C1795 1.398 . S
C1796 C1797 1.391 . S
C1797 H1785 0.950 . S
C1797 C1793 1.393 . S
C1797 C1796 1.391 . S
C1798 H1788 0.950 . S
C1798 C1799 1.386 . S
C1798 C1800 1.391 . S
C1799 C1798 1.386 . S
C1799 C1803 1.393 . S
C1800 H1789 0.950 . S
C1800 C1798 1.391 . S
C1800 C1801 1.400 . S
C1801 C1795 1.491 . S
C1801 C1800 1.400 . S
C1801 C1802 1.398 . S
C1802 H1790 0.950 . S
C1802 C1801 1.398 . S
C1802 C1803 1.391 . S
C1803 H1791 0.950 . S
C1803 C1799 1.393 . S
C1803 C1802 1.391 . S
H1804 C1812 0.950 . S
H1805 C1817 0.950 . S
H1806 C1814 0.950 . S
H1807 C1816 0.950 . S
H1808 C1818 0.950 . S
H1809 C1820 0.950 . S
H1810 C1822 0.950 . S
H1811 C1823 0.950 . S
C1812 H1804 0.950 . S
C1812 C1813 1.386 . S
C1812 C1814 1.391 . S
C1813 C1812 1.386 . S
C1813 C1817 1.393 . S
C1814 H1806 0.950 . S
C1814 C1812 1.391 . S
C1814 C1815 1.400 . S
C1815 C1814 1.400 . S
C1815 C1816 1.398 . S
C1815 C1821 1.491 . S
C1816 H1807 0.950 . S
C1816 C1815 1.398 . S
C1816 C1817 1.391 . S
C1817 H1805 0.950 . S
C1817 C1813 1.393 . S
C1817 C1816 1.391 . S
C1818 H1808 0.950 . S
C1818 C1819 1.386 . S
C1818 C1820 1.391 . S
C1819 C1818 1.386 . S
C1819 C1823 1.393 . S
C1820 H1809 0.950 . S
C1820 C1818 1.391 . S
C1820 C1821 1.400 . S
C1821 C1815 1.491 . S
C1821 C1820 1.400 . S
C1821 C1822 1.398 . S
C1822 H1810 0.950 . S
C1822 C1821 1.398 . S
C1822 C1823 1.391 . S
C1823 H1811 0.950 . S
C1823 C1819 1.393 . S
C1823 C1822 1.391 . S
H1824 C1832 0.950 . S
H1825 C1837 0.950 . S
H1826 C1834 0.950 . S
H1827 C1836 0.950 . S
H1828 C1838 0.950 . S
H1829 C1840 0.950 . S
H1830 C1842 0.950 . S
H1831 C1843 0.950 . S
C1832 H1824 0.950 . S
C1832 C1833 1.386 . S
C1832 C1834 1.391 . S
C1833 C1832 1.386 . S
C1833 C1837 1.393 . S
C1834 H1826 0.950 . S
C1834 C1832 1.391 . S
C1834 C1835 1.400 . S
C1835 C1834 1.400 . S
C1835 C1836 1.398 . S
C1835 C1841 1.491 . S
C1836 H1827 0.950 . S
C1836 C1835 1.398 . S
C1836 C1837 1.391 . S
C1837 H1825 0.950 . S
C1837 C1833 1.393 . S
C1837 C1836 1.391 . S
C1838 H1828 0.950 . S
C1838 C1839 1.386 . S
C1838 C1840 1.391 . S
C1839 C1838 1.386 . S
C1839 C1843 1.393 . S
C1840 H1829 0.950 . S
C1840 C1838 1.391 . S
C1840 C1841 1.400 . S
C1841 C1835 1.491 . S
C1841 C1840 1.400 . S
C1841 C1842 1.398 . S
C1842 H1830 0.950 . S
C1842 C1841 1.398 . S
C1842 C1843 1.391 . S
C1843 H1831 0.950 . S
C1843 C1839 1.393 . S
C1843 C1842 1.391 . S
H1844 C1852 0.950 . S
H1845 C1857 0.950 . S
H1846 C1854 0.950 . S
H1847 C1856 0.950 . S
H1848 C1858 0.950 . S
H1849 C1860 0.950 . S
H1850 C1862 0.950 . S
H1851 C1863 0.950 . S
C1852 H1844 0.950 . S
C1852 C1853 1.386 . S
C1852 C1854 1.391 . S
C1853 C1852 1.386 . S
C1853 C1857 1.393 . S
C1854 H1846 0.950 . S
C1854 C1852 1.391 . S
C1854 C1855 1.400 . S
C1855 C1854 1.400 . S
C1855 C1856 1.398 . S
C1855 C1861 1.491 . S
C1856 H1847 0.950 . S
C1856 C1855 1.398 . S
C1856 C1857 1.391 . S
C1857 H1845 0.950 . S
C1857 C1853 1.393 . S
C1857 C1856 1.391 . S
C1858 H1848 0.950 . S
C1858 C1859 1.386 . S
C1858 C1860 1.391 . S
C1859 C1858 1.386 . S
C1859 C1863 1.393 . S
C1860 H1849 0.950 . S
C1860 C1858 1.391 . S
C1860 C1861 1.400 . S
C1861 C1855 1.491 . S
C1861 C1860 1.400 . S
C1861 C1862 1.398 . S
C1862 H1850 0.950 . S
C1862 C1861 1.398 . S
C1862 C1863 1.391 . S
C1863 H1851 0.950 . S
C1863 C1859 1.393 . S
C1863 C1862 1.391 . S
H1864 C1872 0.950 . S
H1865 C1877 0.950 . S
H1866 C1874 0.950 . S
H1867 C1876 0.950 . S
H1868 C1878 0.950 . S
H1869 C1880 0.950 . S
H1870 C1882 0.950 . S
H1871 C1883 0.950 . S
C1872 H1864 0.950 . S
C1872 C1873 1.386 . S
C1872 C1874 1.391 . S
C1873 C1872 1.386 . S
C1873 C1877 1.393 . S
C1874 H1866 0.950 . S
C1874 C1872 1.391 . S
C1874 C1875 1.400 . S
C1875 C1874 1.400 . S
C1875 C1876 1.398 . S
C1875 C1881 1.491 . S
C1876 H1867 0.950 . S
C1876 C1875 1.398 . S
C1876 C1877 1.391 . S
C1877 H1865 0.950 . S
C1877 C1873 1.393 . S
C1877 C1876 1.391 . S
C1878 H1868 0.950 . S
C1878 C1879 1.386 . S
C1878 C1880 1.391 . S
C1879 C1878 1.386 . S
C1879 C1883 1.393 . S
C1880 H1869 0.950 . S
C1880 C1878 1.391 . S
C1880 C1881 1.400 . S
C1881 C1875 1.491 . S
C1881 C1880 1.400 . S
C1881 C1882 1.398 . S
C1882 H1870 0.950 . S
C1882 C1881 1.398 . S
C1882 C1883 1.391 . S
C1883 H1871 0.950 . S
C1883 C1879 1.393 . S
C1883 C1882 1.391 . S
H1884 C1892 0.950 . S
H1885 C1897 0.950 . S
H1886 C1894 0.950 . S
H1887 C1896 0.950 . S
H1888 C1898 0.950 . S
H1889 C1900 0.950 . S
H1890 C1902 0.950 . S
H1891 C1903 0.950 . S
C1892 H1884 0.950 . S
C1892 C1893 1.386 . S
C1892 C1894 1.391 . S
C1893 C1892 1.386 . S
C1893 C1897 1.393 . S
C1894 H1886 0.950 . S
C1894 C1892 1.391 . S
C1894 C1895 1.400 . S
C1895 C1894 1.400 . S
C1895 C1896 1.398 . S
C1895 C1901 1.491 . S
C1896 H1887 0.950 . S
C1896 C1895 1.398 . S
C1896 C1897 1.391 . S
C1897 H1885 0.950 . S
C1897 C1893 1.393 . S
C1897 C1896 1.391 . S
C1898 H1888 0.950 . S
C1898 C1899 1.386 . S
C1898 C1900 1.391 . S
C1899 C1898 1.386 . S
C1899 C1903 1.393 . S
C1900 H1889 0.950 . S
C1900 C1898 1.391 . S
C1900 C1901 1.400 . S
C1901 C1895 1.491 . S
C1901 C1900 1.400 . S
C1901 C1902 1.398 . S
C1902 H1890 0.950 . S
C1902 C1901 1.398 . S
C1902 C1903 1.391 . S
C1903 H1891 0.950 . S
C1903 C1899 1.393 . S
C1903 C1902 1.391 . S
H1904 C1912 0.950 . S
H1905 C1917 0.950 . S
H1906 C1914 0.950 . S
H1907 C1916 0.950 . S
H1908 C1918 0.950 . S
H1909 C1920 0.950 . S
H1910 C1922 0.950 . S
H1911 C1923 0.950 . S
C1912 H1904 0.950 . S
C1912 C1913 1.386 . S
C1912 C1914 1.391 . S
C1913 C1912 1.386 . S
C1913 C1917 1.393 . S
C1914 H1906 0.950 . S
C1914 C1912 1.391 . S
C1914 C1915 1.400 . S
C1915 C1914 1.400 . S
C1915 C1916 1.398 . S
C1915 C1921 1.491 . S
C1916 H1907 0.950 . S
C1916 C1915 1.398 . S
C1916 C1917 1.391 . S
C1917 H1905 0.950 . S
C1917 C1913 1.393 . S
C1917 C1916 1.391 . S
C1918 H1908 0.950 . S
C1918 C1919 1.386 . S
C1918 C1920 1.391 . S
C1919 C1918 1.386 . S
C1919 C1923 1.393 . S
C1920 H1909 0.950 . S
C1920 C1918 1.391 . S
C1920 C1921 1.400 . S
C1921 C1915 1.491 . S
C1921 C1920 1.400 . S
C1921 C1922 1.398 . S
C1922 H1910 0.950 . S
C1922 C1921 1.398 . S
C1922 C1923 1.391 . S
C1923 H1911 0.950 . S
C1923 C1919 1.393 . S
C1923 C1922 1.391 . S
H1924 C1932 0.950 . S
H1925 C1937 0.950 . S
H1926 C1934 0.950 . S
H1927 C1936 0.950 . S
H1928 C1938 0.950 . S
H1929 C1940 0.950 . S
H1930 C1942 0.950 . S
H1931 C1943 0.950 . S
C1932 H1924 0.950 . S
C1932 C1933 1.386 . S
C1932 C1934 1.391 . S
C1933 C1932 1.386 . S
C1933 C1937 1.393 . S
C1934 H1926 0.950 . S
C1934 C1932 1.391 . S
C1934 C1935 1.400 . S
C1935 C1934 1.400 . S
C1935 C1936 1.398 . S
C1935 C1941 1.491 . S
C1936 H1927 0.950 . S
C1936 C1935 1.398 . S
C1936 C1937 1.391 . S
C1937 H1925 0.950 . S
C1937 C1933 1.393 . S
C1937 C1936 1.391 . S
C1938 H1928 0.950 . S
C1938 C1939 1.386 . S
C1938 C1940 1.391 . S
C1939 C1938 1.386 . S
C1939 C1943 1.393 . S
C1940 H1929 0.950 . S
C1940 C1938 1.391 . S
C1940 C1941 1.400 . S
C1941 C1935 1.491 . S
C1941 C1940 1.400 . S
C1941 C1942 1.398 . S
C1942 H1930 0.950 . S
C1942 C1941 1.398 . S
C1942 C1943 1.391 . S
C1943 H1931 0.950 . S
C1943 C1939 1.393 . S
C1943 C1942 1.391 . S
H1944 C1952 0.950 . S
H1945 C1957 0.950 . S
H1946 C1954 0.950 . S
H1947 C1956 0.950 . S
H1948 C1958 0.950 . S
H1949 C1960 0.950 . S
H1950 C1962 0.950 . S
H1951 C1963 0.950 . S
C1952 H1944 0.950 . S
C1952 C1953 1.386 . S
C1952 C1954 1.391 . S
C1953 C1952 1.386 . S
C1953 C1957 1.393 . S
C1954 H1946 0.950 . S
C1954 C1952 1.391 . S
C1954 C1955 1.400 . S
C1955 C1954 1.400 . S
C1955 C1956 1.398 . S
C1955 C1961 1.491 . S
C1956 H1947 0.950 . S
C1956 C1955 1.398 . S
C1956 C1957 1.391 . S
C1957 H1945 0.950 . S
C1957 C1953 1.393 . S
C1957 C1956 1.391 . S
C1958 H1948 0.950 . S
C1958 C1959 1.386 . S
C1958 C1960 1.391 . S
C1959 C1958 1.386 . S
C1959 C1963 1.393 . S
C1960 H1949 0.950 . S
C1960 C1958 1.391 . S
C1960 C1961 1.400 . S
C1961 C1955 1.491 . S
C1961 C1960 1.400 . S
C1961 C1962 1.398 . S
C1962 H1950 0.950 . S
C1962 C1961 1.398 . S
C1962 C1963 1.391 . S
C1963 H1951 0.950 . S
C1963 C1959 1.393 . S
C1963 C1962 1.391 . S
H1964 C1972 0.950 . S
H1965 C1977 0.950 . S
H1966 C1974 0.950 . S
H1967 C1976 0.950 . S
H1968 C1978 0.950 . S
H1969 C1980 0.950 . S
H1970 C1982 0.950 . S
H1971 C1983 0.950 . S
C1972 H1964 0.950 . S
C1972 C1973 1.386 . S
C1972 C1974 1.391 . S
C1973 C1972 1.386 . S
C1973 C1977 1.393 . S
C1974 H1966 0.950 . S
C1974 C1972 1.391 . S
C1974 C1975 1.400 . S
C1975 C1974 1.400 . S
C1975 C1976 1.398 . S
C1975 C1981 1.491 . S
C1976 H1967 0.950 . S
C1976 C1975 1.398 . S
C1976 C1977 1.391 . S
C1977 H1965 0.950 . S
C1977 C1973 1.393 . S
C1977 C1976 1.391 . S
C1978 H1968 0.950 . S
C1978 C1979 1.386 . S
C1978 C1980 1.391 . S
C1979 C1978 1.386 . S
C1979 C1983 1.393 . S
C1980 H1969 0.950 . S
C1980 C1978 1.391 . S
C1980 C1981 1.400 . S
C1981 C1975 1.491 . S
C1981 C1980 1.400 . S
C1981 C1982 1.398 . S
C1982 H1970 0.950 . S
C1982 C1981 1.398 . S
C1982 C1983 1.391 . S
C1983 H1971 0.950 . S
C1983 C1979 1.393 . S
C1983 C1982 1.391 . S
H1984 C1992 0.950 . S
H1985 C1997 0.950 . S
H1986 C1994 0.950 . S
H1987 C1996 0.950 . S
H1988 C1998 0.950 . S
H1989 C2000 0.950 . S
H1990 C2002 0.950 . S
H1991 C2003 0.950 . S
C1992 H1984 0.950 . S
C1992 C1993 1.386 . S
C1992 C1994 1.391 . S
C1993 C1992 1.386 . S
C1993 C1997 1.393 . S
C1994 H1986 0.950 . S
C1994 C1992 1.391 . S
C1994 C1995 1.400 . S
C1995 C1994 1.400 . S
C1995 C1996 1.398 . S
C1995 C2001 1.491 . S
C1996 H1987 0.950 . S
C1996 C1995 1.398 . S
C1996 C1997 1.391 . S
C1997 H1985 0.950 . S
C1997 C1993 1.393 . S
C1997 C1996 1.391 . S
C1998 H1988 0.950 . S
C1998 C1999 1.386 . S
C1998 C2000 1.391 . S
C1999 C1998 1.386 . S
C1999 C2003 1.393 . S
C2000 H1989 0.950 . S
C2000 C1998 1.391 . S
C2000 C2001 1.400 . S
C2001 C1995 1.491 . S
C2001 C2000 1.400 . S
C2001 C2002 1.398 . S
C2002 H1990 0.950 . S
C2002 C2001 1.398 . S
C2002 C2003 1.391 . S
C2003 H1991 0.950 . S
C2003 C1999 1.393 . S
C2003 C2002 1.391 . S
H2004 C2012 0.950 . S
H2005 C2017 0.950 1_554 S
H2006 C2014 0.950 . S
H2007 C2016 0.950 . S
H2008 C2018 0.950 . S
H2009 C2020 0.950 . S
H2010 C2022 0.950 . S
H2011 C2023 0.950 1_556 S
C2012 H2004 0.950 . S
C2012 C2013 1.386 . S
C2012 C2014 1.391 . S
C2013 C2012 1.386 . S
C2013 C2017 1.393 . S
C2014 H2006 0.950 . S
C2014 C2012 1.391 . S
C2014 C2015 1.400 . S
C2015 C2014 1.400 . S
C2015 C2016 1.398 1_556 S
C2015 C2021 1.491 1_556 S
C2016 H2007 0.950 . S
C2016 C2015 1.398 1_554 S
C2016 C2017 1.391 1_554 S
C2017 H2005 0.950 1_556 S
C2017 C2013 1.393 . S
C2017 C2016 1.391 1_556 S
C2018 H2008 0.950 . S
C2018 C2019 1.386 . S
C2018 C2020 1.391 . S
C2019 C2018 1.386 . S
C2019 C2023 1.393 . S
C2020 H2009 0.950 . S
C2020 C2018 1.391 . S
C2020 C2021 1.400 . S
C2021 C2015 1.491 1_554 S
C2021 C2020 1.400 . S
C2021 C2022 1.398 1_554 S
C2022 H2010 0.950 . S
C2022 C2021 1.398 1_556 S
C2022 C2023 1.391 1_556 S
C2023 H2011 0.950 1_554 S
C2023 C2019 1.393 . S
C2023 C2022 1.391 1_554 S
H2024 C2032 0.950 . S
H2025 C2037 0.950 . S
H2026 C2034 0.950 . S
H2027 C2036 0.950 . S
H2028 C2038 0.950 . S
H2029 C2040 0.950 . S
H2030 C2042 0.950 . S
H2031 C2043 0.950 . S
C2032 H2024 0.950 . S
C2032 C2033 1.386 . S
C2032 C2034 1.391 . S
C2033 C2032 1.386 . S
C2033 C2037 1.393 . S
C2034 H2026 0.950 . S
C2034 C2032 1.391 . S
C2034 C2035 1.400 . S
C2035 C2034 1.400 . S
C2035 C2036 1.398 . S
C2035 C2041 1.491 . S
C2036 H2027 0.950 . S
C2036 C2035 1.398 . S
C2036 C2037 1.391 . S
C2037 H2025 0.950 . S
C2037 C2033 1.393 . S
C2037 C2036 1.391 . S
C2038 H2028 0.950 . S
C2038 C2039 1.386 . S
C2038 C2040 1.391 . S
C2039 C2038 1.386 . S
C2039 C2043 1.393 . S
C2040 H2029 0.950 . S
C2040 C2038 1.391 . S
C2040 C2041 1.400 . S
C2041 C2035 1.491 . S
C2041 C2040 1.400 . S
C2041 C2042 1.398 . S
C2042 H2030 0.950 . S
C2042 C2041 1.398 . S
C2042 C2043 1.391 . S
C2043 H2031 0.950 . S
C2043 C2039 1.393 . S
C2043 C2042 1.391 . S
H2044 C2052 0.950 . S
H2045 C2057 0.950 . S
H2046 C2054 0.950 . S
H2047 C2056 0.950 . S
H2048 C2058 0.950 . S
H2049 C2060 0.950 . S
H2050 C2062 0.950 . S
H2051 C2063 0.950 . S
C2052 H2044 0.950 . S
C2052 C2053 1.386 . S
C2052 C2054 1.391 . S
C2053 C2052 1.386 . S
C2053 C2057 1.393 . S
C2054 H2046 0.950 . S
C2054 C2052 1.391 . S
C2054 C2055 1.400 . S
C2055 C2054 1.400 . S
C2055 C2056 1.398 . S
C2055 C2061 1.491 1_565 S
C2056 H2047 0.950 . S
C2056 C2055 1.398 . S
C2056 C2057 1.391 . S
C2057 H2045 0.950 . S
C2057 C2053 1.393 . S
C2057 C2056 1.391 . S
C2058 H2048 0.950 . S
C2058 C2059 1.386 . S
C2058 C2060 1.391 . S
C2059 C2058 1.386 . S
C2059 C2063 1.393 . S
C2060 H2049 0.950 . S
C2060 C2058 1.391 . S
C2060 C2061 1.400 . S
C2061 C2055 1.491 1_545 S
C2061 C2060 1.400 . S
C2061 C2062 1.398 . S
C2062 H2050 0.950 . S
C2062 C2061 1.398 . S
C2062 C2063 1.391 . S
C2063 H2051 0.950 . S
C2063 C2059 1.393 . S
C2063 C2062 1.391 . S
H2064 C2072 0.950 . S
H2065 C2077 0.950 . S
H2066 C2074 0.950 . S
H2067 C2076 0.950 . S
H2068 C2078 0.950 . S
H2069 C2080 0.950 . S
H2070 C2082 0.950 . S
H2071 C2083 0.950 . S
C2072 H2064 0.950 . S
C2072 C2073 1.386 . S
C2072 C2074 1.391 . S
C2073 C2072 1.386 . S
C2073 C2077 1.393 . S
C2074 H2066 0.950 . S
C2074 C2072 1.391 . S
C2074 C2075 1.400 . S
C2075 C2074 1.400 . S
C2075 C2076 1.398 . S
C2075 C2081 1.491 . S
C2076 H2067 0.950 . S
C2076 C2075 1.398 . S
C2076 C2077 1.391 . S
C2077 H2065 0.950 . S
C2077 C2073 1.393 . S
C2077 C2076 1.391 . S
C2078 H2068 0.950 . S
C2078 C2079 1.386 . S
C2078 C2080 1.391 . S
C2079 C2078 1.386 . S
C2079 C2083 1.393 . S
C2080 H2069 0.950 . S
C2080 C2078 1.391 . S
C2080 C2081 1.400 . S
C2081 C2075 1.491 . S
C2081 C2080 1.400 . S
C2081 C2082 1.398 . S
C2082 H2070 0.950 . S
C2082 C2081 1.398 . S
C2082 C2083 1.391 . S
C2083 H2071 0.950 . S
C2083 C2079 1.393 . S
C2083 C2082 1.391 . S
H2084 C2092 0.950 . S
H2085 C2097 0.950 . S
H2086 C2094 0.950 . S
H2087 C2096 0.950 . S
H2088 C2098 0.950 . S
H2089 C2100 0.950 . S
H2090 C2102 0.950 . S
H2091 C2103 0.950 . S
C2092 H2084 0.950 . S
C2092 C2093 1.386 . S
C2092 C2094 1.391 . S
C2093 C2092 1.386 . S
C2093 C2097 1.393 . S
C2094 H2086 0.950 . S
C2094 C2092 1.391 . S
C2094 C2095 1.400 . S
C2095 C2094 1.400 . S
C2095 C2096 1.398 . S
C2095 C2101 1.491 . S
C2096 H2087 0.950 . S
C2096 C2095 1.398 . S
C2096 C2097 1.391 . S
C2097 H2085 0.950 . S
C2097 C2093 1.393 . S
C2097 C2096 1.391 . S
C2098 H2088 0.950 . S
C2098 C2099 1.386 . S
C2098 C2100 1.391 . S
C2099 C2098 1.386 . S
C2099 C2103 1.393 . S
C2100 H2089 0.950 . S
C2100 C2098 1.391 . S
C2100 C2101 1.400 . S
C2101 C2095 1.491 . S
C2101 C2100 1.400 . S
C2101 C2102 1.398 . S
C2102 H2090 0.950 . S
C2102 C2101 1.398 . S
C2102 C2103 1.391 . S
C2103 H2091 0.950 . S
C2103 C2099 1.393 . S
C2103 C2102 1.391 . S
H2104 C2112 0.950 . S
H2105 C2117 0.950 . S
H2106 C2114 0.950 . S
H2107 C2116 0.950 . S
H2108 C2118 0.950 . S
H2109 C2120 0.950 . S
H2110 C2122 0.950 . S
H2111 C2123 0.950 . S
C2112 H2104 0.950 . S
C2112 C2113 1.386 . S
C2112 C2114 1.391 . S
C2113 C2112 1.386 . S
C2113 C2117 1.393 . S
C2114 H2106 0.950 . S
C2114 C2112 1.391 . S
C2114 C2115 1.400 . S
C2115 C2114 1.400 . S
C2115 C2116 1.398 . S
C2115 C2121 1.491 . S
C2116 H2107 0.950 . S
C2116 C2115 1.398 . S
C2116 C2117 1.391 . S
C2117 H2105 0.950 . S
C2117 C2113 1.393 . S
C2117 C2116 1.391 . S
C2118 H2108 0.950 . S
C2118 C2119 1.386 . S
C2118 C2120 1.391 . S
C2119 C2118 1.386 . S
C2119 C2123 1.393 . S
C2120 H2109 0.950 . S
C2120 C2118 1.391 . S
C2120 C2121 1.400 . S
C2121 C2115 1.491 . S
C2121 C2120 1.400 . S
C2121 C2122 1.398 . S
C2122 H2110 0.950 . S
C2122 C2121 1.398 . S
C2122 C2123 1.391 . S
C2123 H2111 0.950 . S
C2123 C2119 1.393 . S
C2123 C2122 1.391 . S
H2124 C2132 0.950 . S
H2125 C2137 0.950 . S
H2126 C2134 0.950 . S
H2127 C2136 0.950 . S
H2128 C2138 0.950 . S
H2129 C2140 0.950 . S
H2130 C2142 0.950 . S
H2131 C2143 0.950 . S
C2132 H2124 0.950 . S
C2132 C2133 1.386 . S
C2132 C2134 1.391 . S
C2133 C2132 1.386 . S
C2133 C2137 1.393 . S
C2134 H2126 0.950 . S
C2134 C2132 1.391 . S
C2134 C2135 1.400 . S
C2135 C2134 1.400 . S
C2135 C2136 1.398 . S
C2135 C2141 1.491 1_556 S
C2136 H2127 0.950 . S
C2136 C2135 1.398 . S
C2136 C2137 1.391 . S
C2137 H2125 0.950 . S
C2137 C2133 1.393 . S
C2137 C2136 1.391 . S
C2138 H2128 0.950 . S
C2138 C2139 1.386 . S
C2138 C2140 1.391 . S
C2139 C2138 1.386 . S
C2139 C2143 1.393 . S
C2140 H2129 0.950 . S
C2140 C2138 1.391 . S
C2140 C2141 1.400 . S
C2141 C2135 1.491 1_554 S
C2141 C2140 1.400 . S
C2141 C2142 1.398 . S
C2142 H2130 0.950 . S
C2142 C2141 1.398 . S
C2142 C2143 1.391 . S
C2143 H2131 0.950 . S
C2143 C2139 1.393 . S
C2143 C2142 1.391 . S
H2144 C2152 0.950 . S
H2145 C2157 0.950 . S
H2146 C2154 0.950 . S
H2147 C2156 0.950 . S
H2148 C2158 0.950 . S
H2149 C2160 0.950 . S
H2150 C2162 0.950 . S
H2151 C2163 0.950 . S
C2152 H2144 0.950 . S
C2152 C2153 1.386 . S
C2152 C2154 1.391 . S
C2153 C2152 1.386 . S
C2153 C2157 1.393 . S
C2154 H2146 0.950 . S
C2154 C2152 1.391 . S
C2154 C2155 1.400 . S
C2155 C2154 1.400 . S
C2155 C2156 1.398 . S
C2155 C2161 1.491 . S
C2156 H2147 0.950 . S
C2156 C2155 1.398 . S
C2156 C2157 1.391 . S
C2157 H2145 0.950 . S
C2157 C2153 1.393 . S
C2157 C2156 1.391 . S
C2158 H2148 0.950 . S
C2158 C2159 1.386 . S
C2158 C2160 1.391 . S
C2159 C2158 1.386 . S
C2159 C2163 1.393 . S
C2160 H2149 0.950 . S
C2160 C2158 1.391 . S
C2160 C2161 1.400 . S
C2161 C2155 1.491 . S
C2161 C2160 1.400 . S
C2161 C2162 1.398 . S
C2162 H2150 0.950 . S
C2162 C2161 1.398 . S
C2162 C2163 1.391 . S
C2163 H2151 0.950 . S
C2163 C2159 1.393 . S
C2163 C2162 1.391 . S
H2164 C2172 0.950 . S
H2165 C2177 0.950 . S
H2166 C2174 0.950 . S
H2167 C2176 0.950 . S
H2168 C2178 0.950 . S
H2169 C2180 0.950 . S
H2170 C2182 0.950 . S
H2171 C2183 0.950 . S
C2172 H2164 0.950 . S
C2172 C2173 1.386 . S
C2172 C2174 1.391 . S
C2173 C2172 1.386 . S
C2173 C2177 1.393 . S
C2174 H2166 0.950 . S
C2174 C2172 1.391 . S
C2174 C2175 1.400 . S
C2175 C2174 1.400 . S
C2175 C2176 1.398 . S
C2175 C2181 1.491 1_556 S
C2176 H2167 0.950 . S
C2176 C2175 1.398 . S
C2176 C2177 1.391 . S
C2177 H2165 0.950 . S
C2177 C2173 1.393 . S
C2177 C2176 1.391 . S
C2178 H2168 0.950 . S
C2178 C2179 1.386 . S
C2178 C2180 1.391 . S
C2179 C2178 1.386 . S
C2179 C2183 1.393 . S
C2180 H2169 0.950 . S
C2180 C2178 1.391 . S
C2180 C2181 1.400 . S
C2181 C2175 1.491 1_554 S
C2181 C2180 1.400 . S
C2181 C2182 1.398 . S
C2182 H2170 0.950 . S
C2182 C2181 1.398 . S
C2182 C2183 1.391 . S
C2183 H2171 0.950 . S
C2183 C2179 1.393 . S
C2183 C2182 1.391 . S
H2184 C2192 0.950 1_545 S
H2185 C2197 0.950 . S
H2186 C2194 0.950 . S
H2187 C2196 0.950 . S
H2188 C2198 0.950 1_565 S
H2189 C2200 0.950 . S
H2190 C2202 0.950 . S
H2191 C2203 0.950 . S
C2192 H2184 0.950 1_565 S
C2192 C2193 1.386 . S
C2192 C2194 1.391 1_565 S
C2193 C2192 1.386 . S
C2193 C2197 1.393 . S
C2194 H2186 0.950 . S
C2194 C2192 1.391 1_545 S
C2194 C2195 1.400 1_545 S
C2195 C2194 1.400 1_565 S
C2195 C2196 1.398 . S
C2195 C2201 1.491 1_565 S
C2196 H2187 0.950 . S
C2196 C2195 1.398 . S
C2196 C2197 1.391 . S
C2197 H2185 0.950 . S
C2197 C2193 1.393 . S
C2197 C2196 1.391 . S
C2198 H2188 0.950 1_545 S
C2198 C2199 1.386 . S
C2198 C2200 1.391 1_545 S
C2199 C2198 1.386 . S
C2199 C2203 1.393 . S
C2200 H2189 0.950 . S
C2200 C2198 1.391 1_565 S
C2200 C2201 1.400 1_565 S
C2201 C2195 1.491 1_545 S
C2201 C2200 1.400 1_545 S
C2201 C2202 1.398 . S
C2202 H2190 0.950 . S
C2202 C2201 1.398 . S
C2202 C2203 1.391 . S
C2203 H2191 0.950 . S
C2203 C2199 1.393 . S
C2203 C2202 1.391 . S
H2204 C2212 0.950 . S
H2205 C2217 0.950 . S
H2206 C2214 0.950 . S
H2207 C2216 0.950 . S
H2208 C2218 0.950 . S
H2209 C2220 0.950 . S
H2210 C2222 0.950 . S
H2211 C2223 0.950 . S
C2212 H2204 0.950 . S
C2212 C2213 1.386 . S
C2212 C2214 1.391 . S
C2213 C2212 1.386 . S
C2213 C2217 1.393 . S
C2214 H2206 0.950 . S
C2214 C2212 1.391 . S
C2214 C2215 1.400 . S
C2215 C2214 1.400 . S
C2215 C2216 1.398 . S
C2215 C2221 1.491 . S
C2216 H2207 0.950 . S
C2216 C2215 1.398 . S
C2216 C2217 1.391 . S
C2217 H2205 0.950 . S
C2217 C2213 1.393 . S
C2217 C2216 1.391 . S
C2218 H2208 0.950 . S
C2218 C2219 1.386 . S
C2218 C2220 1.391 . S
C2219 C2218 1.386 . S
C2219 C2223 1.393 . S
C2220 H2209 0.950 . S
C2220 C2218 1.391 . S
C2220 C2221 1.400 . S
C2221 C2215 1.491 . S
C2221 C2220 1.400 . S
C2221 C2222 1.398 . S
C2222 H2210 0.950 . S
C2222 C2221 1.398 . S
C2222 C2223 1.391 . S
C2223 H2211 0.950 . S
C2223 C2219 1.393 . S
C2223 C2222 1.391 . S
H2224 C2232 0.950 . S
H2225 C2237 0.922 1_545 S
H2226 C2234 0.950 . S
H2227 C2236 0.950 . S
H2228 C2238 0.950 . S
H2229 C2240 0.950 . S
H2230 C2242 0.950 . S
H2231 C2243 0.922 1_565 S
C2232 H2224 0.950 . S
C2232 C2233 1.386 . S
C2232 C2234 1.391 . S
C2233 C2232 1.386 . S
C2233 C2237 1.441 . S
C2234 H2226 0.950 . S
C2234 C2232 1.391 . S
C2234 C2235 1.400 . S
C2235 C2234 1.400 . S
C2235 C2236 1.398 1_565 S
C2235 C2241 1.491 1_565 S
C2236 H2227 0.950 . S
C2236 C2235 1.398 1_545 S
C2236 C2237 1.371 1_545 S
C2237 H2225 0.922 1_565 S
C2237 C2233 1.441 . S
C2237 C2236 1.371 1_565 S
C2238 H2228 0.950 . S
C2238 C2239 1.386 . S
C2238 C2240 1.391 . S
C2239 C2238 1.386 . S
C2239 C2243 1.441 . S
C2240 H2229 0.950 . S
C2240 C2238 1.391 . S
C2240 C2241 1.400 . S
C2241 C2235 1.491 1_545 S
C2241 C2240 1.400 . S
C2241 C2242 1.398 1_545 S
C2242 H2230 0.950 . S
C2242 C2241 1.398 1_565 S
C2242 C2243 1.371 1_565 S
C2243 H2231 0.922 1_545 S
C2243 C2239 1.441 . S
C2243 C2242 1.371 1_545 S
H2244 C2252 0.950 . S
H2245 C2257 0.950 . S
H2246 C2254 0.950 . S
H2247 C2256 0.950 . S
H2248 C2258 0.950 . S
H2249 C2260 0.950 . S
H2250 C2262 0.950 . S
H2251 C2263 0.950 . S
C2252 H2244 0.950 . S
C2252 C2253 1.386 . S
C2252 C2254 1.391 . S
C2253 C2252 1.386 . S
C2253 C2257 1.393 . S
C2254 H2246 0.950 . S
C2254 C2252 1.391 . S
C2254 C2255 1.400 . S
C2255 C2254 1.400 . S
C2255 C2256 1.398 . S
C2255 C2261 1.491 . S
C2256 H2247 0.950 . S
C2256 C2255 1.398 . S
C2256 C2257 1.391 . S
C2257 H2245 0.950 . S
C2257 C2253 1.393 . S
C2257 C2256 1.391 . S
C2258 H2248 0.950 . S
C2258 C2259 1.386 . S
C2258 C2260 1.391 . S
C2259 C2258 1.386 . S
C2259 C2263 1.393 . S
C2260 H2249 0.950 . S
C2260 C2258 1.391 . S
C2260 C2261 1.400 . S
C2261 C2255 1.491 . S
C2261 C2260 1.400 . S
C2261 C2262 1.398 . S
C2262 H2250 0.950 . S
C2262 C2261 1.398 . S
C2262 C2263 1.391 . S
C2263 H2251 0.950 . S
C2263 C2259 1.393 . S
C2263 C2262 1.391 . S
H2264 C2272 0.950 . S
H2265 C2277 0.950 . S
H2266 C2274 0.950 . S
H2267 C2276 0.950 . S
H2268 C2278 0.950 . S
H2269 C2280 0.950 . S
H2270 C2282 0.950 . S
H2271 C2283 0.950 . S
C2272 H2264 0.950 . S
C2272 C2273 1.386 . S
C2272 C2274 1.391 . S
C2273 C2272 1.386 . S
C2273 C2277 1.393 . S
C2274 H2266 0.950 . S
C2274 C2272 1.391 . S
C2274 C2275 1.400 . S
C2275 C2274 1.400 . S
C2275 C2276 1.398 . S
C2275 C2281 1.491 . S
C2276 H2267 0.950 . S
C2276 C2275 1.398 . S
C2276 C2277 1.391 . S
C2277 H2265 0.950 . S
C2277 C2273 1.393 . S
C2277 C2276 1.391 . S
C2278 H2268 0.950 . S
C2278 C2279 1.386 . S
C2278 C2280 1.391 . S
C2279 C2278 1.386 . S
C2279 C2283 1.393 . S
C2280 H2269 0.950 . S
C2280 C2278 1.391 . S
C2280 C2281 1.400 . S
C2281 C2275 1.491 . S
C2281 C2280 1.400 . S
C2281 C2282 1.398 . S
C2282 H2270 0.950 . S
C2282 C2281 1.398 . S
C2282 C2283 1.391 . S
C2283 H2271 0.950 . S
C2283 C2279 1.393 . S
C2283 C2282 1.391 . S
H2284 C2292 0.950 . S
H2285 C2297 0.950 . S
H2286 C2294 0.950 . S
H2287 C2296 0.950 . S
H2288 C2298 0.950 . S
H2289 C2300 0.950 . S
H2290 C2302 0.950 . S
H2291 C2303 0.950 . S
C2292 H2284 0.950 . S
C2292 C2293 1.386 . S
C2292 C2294 1.391 . S
C2293 C2292 1.386 . S
C2293 C2297 1.393 . S
C2294 H2286 0.950 . S
C2294 C2292 1.391 . S
C2294 C2295 1.400 . S
C2295 C2294 1.400 . S
C2295 C2296 1.398 . S
C2295 C2301 1.491 . S
C2296 H2287 0.950 . S
C2296 C2295 1.398 . S
C2296 C2297 1.391 . S
C2297 H2285 0.950 . S
C2297 C2293 1.393 . S
C2297 C2296 1.391 . S
C2298 H2288 0.950 . S
C2298 C2299 1.386 . S
C2298 C2300 1.391 . S
C2299 C2298 1.386 . S
C2299 C2303 1.393 . S
C2300 H2289 0.950 . S
C2300 C2298 1.391 . S
C2300 C2301 1.400 . S
C2301 C2295 1.491 . S
C2301 C2300 1.400 . S
C2301 C2302 1.398 . S
C2302 H2290 0.950 . S
C2302 C2301 1.398 . S
C2302 C2303 1.391 . S
C2303 H2291 0.950 . S
C2303 C2299 1.393 . S
C2303 C2302 1.391 . S
H2304 C2312 0.950 . S
H2305 C2317 0.950 . S
H2306 C2314 0.959 . S
H2307 C2316 0.950 . S
H2308 C2318 0.950 . S
H2309 C2320 0.950 . S
H2310 C2322 0.950 . S
H2311 C2323 0.950 . S
C2312 H2304 0.950 . S
C2312 C2313 1.386 . S
C2312 C2314 1.410 . S
C2313 C2312 1.386 . S
C2313 C2317 1.393 1_455 S
C2314 H2306 0.959 . S
C2314 C2312 1.410 . S
C2314 C2315 1.373 1_455 S
C2315 C2314 1.373 1_655 S
C2315 C2316 1.398 . S
C2315 C2321 1.491 . S
C2316 H2307 0.950 . S
C2316 C2315 1.398 . S
C2316 C2317 1.391 . S
C2317 H2305 0.950 . S
C2317 C2313 1.393 1_655 S
C2317 C2316 1.391 . S
C2318 H2308 0.950 . S
C2318 C2319 1.386 . S
C2318 C2320 1.391 . S
C2319 C2318 1.386 . S
C2319 C2323 1.393 . S
C2320 H2309 0.950 . S
C2320 C2318 1.391 . S
C2320 C2321 1.400 . S
C2321 C2315 1.491 . S
C2321 C2320 1.400 . S
C2321 C2322 1.398 . S
C2322 H2310 0.950 . S
C2322 C2321 1.398 . S
C2322 C2323 1.391 . S
C2323 H2311 0.950 . S
C2323 C2319 1.393 . S
C2323 C2322 1.391 . S
H2324 C2332 0.950 . S
H2325 C2337 0.950 . S
H2326 C2334 0.950 . S
H2327 C2336 0.950 . S
H2328 C2338 0.950 . S
H2329 C2340 0.950 . S
H2330 C2342 0.950 . S
H2331 C2343 0.951 . S
C2332 H2324 0.950 . S
C2332 C2333 1.386 . S
C2332 C2334 1.391 . S
C2333 C2332 1.386 . S
C2333 C2337 1.393 . S
C2334 H2326 0.950 . S
C2334 C2332 1.391 . S
C2334 C2335 1.400 . S
C2335 C2334 1.400 . S
C2335 C2336 1.398 . S
C2335 C2341 1.491 . S
C2336 H2327 0.950 . S
C2336 C2335 1.398 . S
C2336 C2337 1.391 . S
C2337 H2325 0.950 . S
C2337 C2333 1.393 . S
C2337 C2336 1.391 . S
C2338 H2328 0.950 . S
C2338 C2339 1.386 . S
C2338 C2340 1.391 1_455 S
C2339 C2338 1.386 . S
C2339 C2343 1.395 . S
C2340 H2329 0.950 . S
C2340 C2338 1.391 1_655 S
C2340 C2341 1.400 . S
C2341 C2335 1.491 . S
C2341 C2340 1.400 . S
C2341 C2342 1.398 . S
C2342 H2330 0.950 . S
C2342 C2341 1.398 . S
C2342 C2343 1.387 1_655 S
C2343 H2331 0.951 . S
C2343 C2339 1.395 . S
C2343 C2342 1.387 1_455 S
H2344 C2352 0.955 . S
H2345 C2357 0.950 . S
H2346 C2354 0.950 . S
H2347 C2356 0.950 . S
H2348 C2358 0.950 . S
H2349 C2360 0.950 . S
H2350 C2362 0.950 . S
H2351 C2363 0.950 . S
C2352 H2344 0.955 . S
C2352 C2353 1.386 1_455 S
C2352 C2354 1.391 . S
C2353 C2352 1.386 1_655 S
C2353 C2357 1.393 . S
C2354 H2346 0.950 . S
C2354 C2352 1.391 . S
C2354 C2355 1.400 . S
C2355 C2354 1.400 . S
C2355 C2356 1.398 . S
C2355 C2361 1.491 . S
C2356 H2347 0.950 . S
C2356 C2355 1.398 . S
C2356 C2357 1.391 1_455 S
C2357 H2345 0.950 . S
C2357 C2353 1.393 . S
C2357 C2356 1.391 1_655 S
C2358 H2348 0.950 . S
C2358 C2359 1.386 . S
C2358 C2360 1.391 . S
C2359 C2358 1.386 . S
C2359 C2363 1.393 . S
C2360 H2349 0.950 . S
C2360 C2358 1.391 . S
C2360 C2361 1.400 . S
C2361 C2355 1.491 . S
C2361 C2360 1.400 . S
C2361 C2362 1.398 . S
C2362 H2350 0.950 . S
C2362 C2361 1.398 . S
C2362 C2363 1.391 . S
C2363 H2351 0.950 . S
C2363 C2359 1.393 . S
C2363 C2362 1.391 . S
H2364 C2372 0.950 . S
H2365 C2377 0.950 . S
H2366 C2374 0.950 . S
H2367 C2376 0.950 . S
H2368 C2378 0.950 . S
H2369 C2380 0.950 . S
H2370 C2382 0.950 . S
H2371 C2383 0.950 . S
C2372 H2364 0.950 . S
C2372 C2373 1.386 . S
C2372 C2374 1.391 1_655 S
C2373 C2372 1.386 . S
C2373 C2377 1.393 . S
C2374 H2366 0.950 . S
C2374 C2372 1.391 1_455 S
C2374 C2375 1.400 . S
C2375 C2374 1.400 . S
C2375 C2376 1.398 . S
C2375 C2381 1.491 . S
C2376 H2367 0.950 . S
C2376 C2375 1.398 . S
C2376 C2377 1.391 1_455 S
C2377 H2365 0.950 . S
C2377 C2373 1.393 . S
C2377 C2376 1.391 1_655 S
C2378 H2368 0.950 . S
C2378 C2379 1.386 . S
C2378 C2380 1.391 . S
C2379 C2378 1.386 . S
C2379 C2383 1.393 . S
C2380 H2369 0.950 . S
C2380 C2378 1.391 . S
C2380 C2381 1.400 . S
C2381 C2375 1.491 . S
C2381 C2380 1.400 . S
C2381 C2382 1.398 . S
C2382 H2370 0.950 . S
C2382 C2381 1.398 . S
C2382 C2383 1.391 . S
C2383 H2371 0.950 . S
C2383 C2379 1.393 . S
C2383 C2382 1.391 . S
H2384 C2392 0.950 . S
H2385 C2397 0.950 . S
H2386 C2394 0.942 1_455 S
H2387 C2396 0.950 . S
H2388 C2398 0.950 . S
H2389 C2400 0.950 . S
H2390 C2402 0.950 . S
H2391 C2403 0.950 . S
C2392 H2384 0.950 . S
C2392 C2393 1.386 . S
C2392 C2394 1.368 1_455 S
C2393 C2392 1.386 . S
C2393 C2397 1.393 1_455 S
C2394 H2386 0.942 1_655 S
C2394 C2392 1.368 1_655 S
C2394 C2395 1.433 . S
C2395 C2394 1.433 . S
C2395 C2396 1.398 . S
C2395 C2401 1.491 . S
C2396 H2387 0.950 . S
C2396 C2395 1.398 . S
C2396 C2397 1.391 . S
C2397 H2385 0.950 . S
C2397 C2393 1.393 1_655 S
C2397 C2396 1.391 . S
C2398 H2388 0.950 . S
C2398 C2399 1.386 . S
C2398 C2400 1.391 . S
C2399 C2398 1.386 . S
C2399 C2403 1.393 . S
C2400 H2389 0.950 . S
C2400 C2398 1.391 . S
C2400 C2401 1.400 . S
C2401 C2395 1.491 . S
C2401 C2400 1.400 . S
C2401 C2402 1.398 . S
C2402 H2390 0.950 . S
C2402 C2401 1.398 . S
C2402 C2403 1.391 . S
C2403 H2391 0.950 . S
C2403 C2399 1.393 . S
C2403 C2402 1.391 . S
H2404 C2412 0.950 . S
H2405 C2417 0.950 . S
H2406 C2414 0.950 . S
H2407 C2416 0.950 . S
H2408 C2418 0.950 . S
H2409 C2420 0.950 . S
H2410 C2422 0.950 . S
H2411 C2423 0.950 . S
C2412 H2404 0.950 . S
C2412 C2413 1.386 . S
C2412 C2414 1.391 . S
C2413 C2412 1.386 . S
C2413 C2417 1.393 . S
C2414 H2406 0.950 . S
C2414 C2412 1.391 . S
C2414 C2415 1.400 . S
C2415 C2414 1.400 . S
C2415 C2416 1.398 . S
C2415 C2421 1.491 . S
C2416 H2407 0.950 . S
C2416 C2415 1.398 . S
C2416 C2417 1.391 . S
C2417 H2405 0.950 . S
C2417 C2413 1.393 . S
C2417 C2416 1.391 . S
C2418 H2408 0.950 . S
C2418 C2419 1.386 . S
C2418 C2420 1.391 . S
C2419 C2418 1.386 . S
C2419 C2423 1.393 . S
C2420 H2409 0.950 . S
C2420 C2418 1.391 . S
C2420 C2421 1.400 . S
C2421 C2415 1.491 . S
C2421 C2420 1.400 . S
C2421 C2422 1.398 . S
C2422 H2410 0.950 . S
C2422 C2421 1.398 . S
C2422 C2423 1.391 . S
C2423 H2411 0.950 . S
C2423 C2419 1.393 . S
C2423 C2422 1.391 . S
H2424 C2432 0.950 . S
H2425 C2437 0.950 . S
H2426 C2434 0.950 . S
H2427 C2436 0.950 . S
H2428 C2438 0.950 . S
H2429 C2440 0.950 . S
H2430 C2442 0.950 . S
H2431 C2443 0.950 . S
C2432 H2424 0.950 . S
C2432 C2433 1.386 . S
C2432 C2434 1.391 1_655 S
C2433 C2432 1.386 . S
C2433 C2437 1.393 1_655 S
C2434 H2426 0.950 . S
C2434 C2432 1.391 1_455 S
C2434 C2435 1.400 . S
C2435 C2434 1.400 . S
C2435 C2436 1.398 . S
C2435 C2441 1.491 . S
C2436 H2427 0.950 . S
C2436 C2435 1.398 . S
C2436 C2437 1.391 . S
C2437 H2425 0.950 . S
C2437 C2433 1.393 1_455 S
C2437 C2436 1.391 . S
C2438 H2428 0.950 . S
C2438 C2439 1.386 . S
C2438 C2440 1.391 . S
C2439 C2438 1.386 . S
C2439 C2443 1.393 . S
C2440 H2429 0.950 . S
C2440 C2438 1.391 . S
C2440 C2441 1.400 . S
C2441 C2435 1.491 . S
C2441 C2440 1.400 . S
C2441 C2442 1.398 . S
C2442 H2430 0.950 . S
C2442 C2441 1.398 . S
C2442 C2443 1.391 . S
C2443 H2431 0.950 . S
C2443 C2439 1.393 . S
C2443 C2442 1.391 . S
H2444 C2452 0.950 . S
H2445 C2457 0.950 . S
H2446 C2454 0.950 . S
H2447 C2456 0.950 . S
H2448 C2458 0.950 . S
H2449 C2460 0.950 . S
H2450 C2462 0.950 . S
H2451 C2463 0.950 . S
C2452 H2444 0.950 . S
C2452 C2453 1.386 . S
C2452 C2454 1.391 . S
C2453 C2452 1.386 . S
C2453 C2457 1.393 . S
C2454 H2446 0.950 . S
C2454 C2452 1.391 . S
C2454 C2455 1.400 . S
C2455 C2454 1.400 . S
C2455 C2456 1.398 . S
C2455 C2461 1.491 . S
C2456 H2447 0.950 . S
C2456 C2455 1.398 . S
C2456 C2457 1.391 . S
C2457 H2445 0.950 . S
C2457 C2453 1.393 . S
C2457 C2456 1.391 . S
C2458 H2448 0.950 . S
C2458 C2459 1.386 . S
C2458 C2460 1.391 . S
C2459 C2458 1.386 . S
C2459 C2463 1.393 . S
C2460 H2449 0.950 . S
C2460 C2458 1.391 . S
C2460 C2461 1.400 . S
C2461 C2455 1.491 . S
C2461 C2460 1.400 . S
C2461 C2462 1.398 . S
C2462 H2450 0.950 . S
C2462 C2461 1.398 . S
C2462 C2463 1.391 . S
C2463 H2451 0.950 . S
C2463 C2459 1.393 . S
C2463 C2462 1.391 . S
H2464 C2472 0.950 . S
H2465 C2477 0.950 . S
H2466 C2474 0.950 . S
H2467 C2476 0.950 . S
H2468 C2478 0.950 . S
H2469 C2480 0.950 . S
H2470 C2482 0.950 . S
H2471 C2483 0.950 . S
C2472 H2464 0.950 . S
C2472 C2473 1.386 . S
C2472 C2474 1.391 . S
C2473 C2472 1.386 . S
C2473 C2477 1.393 1_545 S
C2474 H2466 0.950 . S
C2474 C2472 1.391 . S
C2474 C2475 1.400 1_545 S
C2475 C2474 1.400 1_565 S
C2475 C2476 1.398 . S
C2475 C2481 1.491 . S
C2476 H2467 0.950 . S
C2476 C2475 1.398 . S
C2476 C2477 1.391 . S
C2477 H2465 0.950 . S
C2477 C2473 1.393 1_565 S
C2477 C2476 1.391 . S
C2478 H2468 0.950 . S
C2478 C2479 1.386 . S
C2478 C2480 1.391 . S
C2479 C2478 1.386 . S
C2479 C2483 1.393 . S
C2480 H2469 0.950 . S
C2480 C2478 1.391 . S
C2480 C2481 1.400 . S
C2481 C2475 1.491 . S
C2481 C2480 1.400 . S
C2481 C2482 1.398 . S
C2482 H2470 0.950 . S
C2482 C2481 1.398 . S
C2482 C2483 1.391 . S
C2483 H2471 0.950 . S
C2483 C2479 1.393 . S
C2483 C2482 1.391 . S
H2484 C2492 0.950 . S
H2485 C2497 0.950 . S
H2486 C2494 0.950 . S
H2487 C2496 0.950 . S
H2488 C2498 0.950 . S
H2489 C2500 0.950 . S
H2490 C2502 0.950 . S
H2491 C2503 0.950 . S
C2492 H2484 0.950 . S
C2492 C2493 1.386 . S
C2492 C2494 1.391 . S
C2493 C2492 1.386 . S
C2493 C2497 1.393 . S
C2494 H2486 0.950 . S
C2494 C2492 1.391 . S
C2494 C2495 1.400 . S
C2495 C2494 1.400 . S
C2495 C2496 1.398 . S
C2495 C2501 1.491 . S
C2496 H2487 0.950 . S
C2496 C2495 1.398 . S
C2496 C2497 1.391 . S
C2497 H2485 0.950 . S
C2497 C2493 1.393 . S
C2497 C2496 1.391 . S
C2498 H2488 0.950 . S
C2498 C2499 1.386 . S
C2498 C2500 1.391 . S
C2499 C2498 1.386 . S
C2499 C2503 1.393 . S
C2500 H2489 0.950 . S
C2500 C2498 1.391 . S
C2500 C2501 1.400 . S
C2501 C2495 1.491 . S
C2501 C2500 1.400 . S
C2501 C2502 1.398 . S
C2502 H2490 0.950 . S
C2502 C2501 1.398 . S
C2502 C2503 1.391 . S
C2503 H2491 0.950 . S
C2503 C2499 1.393 . S
C2503 C2502 1.391 . S
H2504 C2512 0.950 . S
H2505 C2517 0.950 . S
H2506 C2514 0.950 . S
H2507 C2516 0.950 . S
H2508 C2518 0.950 . S
H2509 C2520 0.950 . S
H2510 C2522 0.950 . S
H2511 C2523 0.950 . S
C2512 H2504 0.950 . S
C2512 C2513 1.386 . S
C2512 C2514 1.391 . S
C2513 C2512 1.386 . S
C2513 C2517 1.393 . S
C2514 H2506 0.950 . S
C2514 C2512 1.391 . S
C2514 C2515 1.400 . S
C2515 C2514 1.400 . S
C2515 C2516 1.398 . S
C2515 C2521 1.491 . S
C2516 H2507 0.950 . S
C2516 C2515 1.398 . S
C2516 C2517 1.391 . S
C2517 H2505 0.950 . S
C2517 C2513 1.393 . S
C2517 C2516 1.391 . S
C2518 H2508 0.950 . S
C2518 C2519 1.386 . S
C2518 C2520 1.391 . S
C2519 C2518 1.386 . S
C2519 C2523 1.393 . S
C2520 H2509 0.950 . S
C2520 C2518 1.391 . S
C2520 C2521 1.400 . S
C2521 C2515 1.491 . S
C2521 C2520 1.400 . S
C2521 C2522 1.398 . S
C2522 H2510 0.950 . S
C2522 C2521 1.398 . S
C2522 C2523 1.391 . S
C2523 H2511 0.950 . S
C2523 C2519 1.393 . S
C2523 C2522 1.391 . S
H2524 C2532 0.950 . S
H2525 C2537 0.950 . S
H2526 C2534 0.950 . S
H2527 C2536 0.950 . S
H2528 C2538 0.950 . S
H2529 C2540 0.950 . S
H2530 C2542 0.943 1_556 S
H2531 C2543 0.950 . S
C2532 H2524 0.950 . S
C2532 C2533 1.386 . S
C2532 C2534 1.391 . S
C2533 C2532 1.386 . S
C2533 C2537 1.393 . S
C2534 H2526 0.950 . S
C2534 C2532 1.391 . S
C2534 C2535 1.400 . S
C2535 C2534 1.400 . S
C2535 C2536 1.398 . S
C2535 C2541 1.491 . S
C2536 H2527 0.950 . S
C2536 C2535 1.398 . S
C2536 C2537 1.391 . S
C2537 H2525 0.950 . S
C2537 C2533 1.393 . S
C2537 C2536 1.391 . S
C2538 H2528 0.950 . S
C2538 C2539 1.386 1_554 S
C2538 C2540 1.391 . S
C2539 C2538 1.386 1_556 S
C2539 C2543 1.393 . S
C2540 H2529 0.950 . S
C2540 C2538 1.391 . S
C2540 C2541 1.400 . S
C2541 C2535 1.491 . S
C2541 C2540 1.400 . S
C2541 C2542 1.431 . S
C2542 H2530 0.943 1_554 S
C2542 C2541 1.431 . S
C2542 C2543 1.366 1_554 S
C2543 H2531 0.950 . S
C2543 C2539 1.393 . S
C2543 C2542 1.366 1_556 S
H2544 C2552 0.950 . S
H2545 C2557 0.950 . S
H2546 C2554 0.950 . S
H2547 C2556 0.950 . S
H2548 C2558 0.950 . S
H2549 C2560 0.950 . S
H2550 C2562 0.950 . S
H2551 C2563 0.950 . S
C2552 H2544 0.950 . S
C2552 C2553 1.386 . S
C2552 C2554 1.391 . S
C2553 C2552 1.386 . S
C2553 C2557 1.393 . S
C2554 H2546 0.950 . S
C2554 C2552 1.391 . S
C2554 C2555 1.400 . S
C2555 C2554 1.400 . S
C2555 C2556 1.398 . S
C2555 C2561 1.491 . S
C2556 H2547 0.950 . S
C2556 C2555 1.398 . S
C2556 C2557 1.391 . S
C2557 H2545 0.950 . S
C2557 C2553 1.393 . S
C2557 C2556 1.391 . S
C2558 H2548 0.950 . S
C2558 C2559 1.386 1_545 S
C2558 C2560 1.391 . S
C2559 C2558 1.386 1_565 S
C2559 C2563 1.393 . S
C2560 H2549 0.950 . S
C2560 C2558 1.391 . S
C2560 C2561 1.400 . S
C2561 C2555 1.491 . S
C2561 C2560 1.400 . S
C2561 C2562 1.398 1_545 S
C2562 H2550 0.950 . S
C2562 C2561 1.398 1_565 S
C2562 C2563 1.391 . S
C2563 H2551 0.950 . S
C2563 C2559 1.393 . S
C2563 C2562 1.391 . S
H2564 C2572 0.950 . S
H2565 C2577 0.950 . S
H2566 C2574 0.950 . S
H2567 C2576 0.950 . S
H2568 C2578 0.950 . S
H2569 C2580 0.950 . S
H2570 C2582 0.950 . S
H2571 C2583 0.950 . S
C2572 H2564 0.950 . S
C2572 C2573 1.386 . S
C2572 C2574 1.391 . S
C2573 C2572 1.386 . S
C2573 C2577 1.393 1_554 S
C2574 H2566 0.950 . S
C2574 C2572 1.391 . S
C2574 C2575 1.400 1_554 S
C2575 C2574 1.400 1_556 S
C2575 C2576 1.398 . S
C2575 C2581 1.491 . S
C2576 H2567 0.950 . S
C2576 C2575 1.398 . S
C2576 C2577 1.391 . S
C2577 H2565 0.950 . S
C2577 C2573 1.393 1_556 S
C2577 C2576 1.391 . S
C2578 H2568 0.950 . S
C2578 C2579 1.386 . S
C2578 C2580 1.391 . S
C2579 C2578 1.386 . S
C2579 C2583 1.393 . S
C2580 H2569 0.950 . S
C2580 C2578 1.391 . S
C2580 C2581 1.400 . S
C2581 C2575 1.491 . S
C2581 C2580 1.400 . S
C2581 C2582 1.398 . S
C2582 H2570 0.950 . S
C2582 C2581 1.398 . S
C2582 C2583 1.391 . S
C2583 H2571 0.950 . S
C2583 C2579 1.393 . S
C2583 C2582 1.391 . S
H2584 C2592 0.950 . S
H2585 C2597 0.950 . S
H2586 C2594 0.950 . S
H2587 C2596 0.950 . S
H2588 C2598 0.950 . S
H2589 C2600 0.950 . S
H2590 C2602 0.950 . S
H2591 C2603 0.950 . S
C2592 H2584 0.950 . S
C2592 C2593 1.386 . S
C2592 C2594 1.391 . S
C2593 C2592 1.386 . S
C2593 C2597 1.393 . S
C2594 H2586 0.950 . S
C2594 C2592 1.391 . S
C2594 C2595 1.400 . S
C2595 C2594 1.400 . S
C2595 C2596 1.398 . S
C2595 C2601 1.491 . S
C2596 H2587 0.950 . S
C2596 C2595 1.398 . S
C2596 C2597 1.391 . S
C2597 H2585 0.950 . S
C2597 C2593 1.393 . S
C2597 C2596 1.391 . S
C2598 H2588 0.950 . S
C2598 C2599 1.386 . S
C2598 C2600 1.391 . S
C2599 C2598 1.386 . S
C2599 C2603 1.393 . S
C2600 H2589 0.950 . S
C2600 C2598 1.391 . S
C2600 C2601 1.400 . S
C2601 C2595 1.491 . S
C2601 C2600 1.400 . S
C2601 C2602 1.398 . S
C2602 H2590 0.950 . S
C2602 C2601 1.398 . S
C2602 C2603 1.391 . S
C2603 H2591 0.950 . S
C2603 C2599 1.393 . S
C2603 C2602 1.391 . S
H2604 C2612 0.950 . S
H2605 C2617 0.950 . S
H2606 C2614 0.950 . S
H2607 C2616 0.950 . S
H2608 C2618 0.950 . S
H2609 C2620 0.950 . S
H2610 C2622 0.950 . S
H2611 C2623 0.950 . S
C2612 H2604 0.950 . S
C2612 C2613 1.386 . S
C2612 C2614 1.391 . S
C2613 C2612 1.386 . S
C2613 C2617 1.393 . S
C2614 H2606 0.950 . S
C2614 C2612 1.391 . S
C2614 C2615 1.400 . S
C2615 C2614 1.400 . S
C2615 C2616 1.398 . S
C2615 C2621 1.491 . S
C2616 H2607 0.950 . S
C2616 C2615 1.398 . S
C2616 C2617 1.391 . S
C2617 H2605 0.950 . S
C2617 C2613 1.393 . S
C2617 C2616 1.391 . S
C2618 H2608 0.950 . S
C2618 C2619 1.386 . S
C2618 C2620 1.391 . S
C2619 C2618 1.386 . S
C2619 C2623 1.393 . S
C2620 H2609 0.950 . S
C2620 C2618 1.391 . S
C2620 C2621 1.400 . S
C2621 C2615 1.491 . S
C2621 C2620 1.400 . S
C2621 C2622 1.398 . S
C2622 H2610 0.950 . S
C2622 C2621 1.398 . S
C2622 C2623 1.391 . S
C2623 H2611 0.950 . S
C2623 C2619 1.393 . S
C2623 C2622 1.391 . S
H2624 C2632 0.950 . S
H2625 C2637 0.950 . S
H2626 C2634 0.950 . S
H2627 C2636 0.950 . S
H2628 C2638 0.950 . S
H2629 C2640 0.950 . S
H2630 C2642 0.950 . S
H2631 C2643 0.950 . S
C2632 H2624 0.950 . S
C2632 C2633 1.386 . S
C2632 C2634 1.391 . S
C2633 C2632 1.386 . S
C2633 C2637 1.393 . S
C2634 H2626 0.950 . S
C2634 C2632 1.391 . S
C2634 C2635 1.400 . S
C2635 C2634 1.400 . S
C2635 C2636 1.398 . S
C2635 C2641 1.491 . S
C2636 H2627 0.950 . S
C2636 C2635 1.398 . S
C2636 C2637 1.391 . S
C2637 H2625 0.950 . S
C2637 C2633 1.393 . S
C2637 C2636 1.391 . S
C2638 H2628 0.950 . S
C2638 C2639 1.386 1_556 S
C2638 C2640 1.391 . S
C2639 C2638 1.386 1_554 S
C2639 C2643 1.393 . S
C2640 H2629 0.950 . S
C2640 C2638 1.391 . S
C2640 C2641 1.400 . S
C2641 C2635 1.491 . S
C2641 C2640 1.400 . S
C2641 C2642 1.398 . S
C2642 H2630 0.950 . S
C2642 C2641 1.398 . S
C2642 C2643 1.391 1_556 S
C2643 H2631 0.950 . S
C2643 C2639 1.393 . S
C2643 C2642 1.391 1_554 S
H2644 C2652 0.950 . S
H2645 C2657 0.950 . S
H2646 C2654 0.950 . S
H2647 C2656 0.950 . S
H2648 C2658 0.950 . S
H2649 C2660 0.950 . S
H2650 C2662 0.950 . S
H2651 C2663 0.950 . S
C2652 H2644 0.950 . S
C2652 C2653 1.386 . S
C2652 C2654 1.391 . S
C2653 C2652 1.386 . S
C2653 C2657 1.393 . S
C2654 H2646 0.950 . S
C2654 C2652 1.391 . S
C2654 C2655 1.400 . S
C2655 C2654 1.400 . S
C2655 C2656 1.398 . S
C2655 C2661 1.491 . S
C2656 H2647 0.950 . S
C2656 C2655 1.398 . S
C2656 C2657 1.391 . S
C2657 H2645 0.950 . S
C2657 C2653 1.393 . S
C2657 C2656 1.391 . S
C2658 H2648 0.950 . S
C2658 C2659 1.386 . S
C2658 C2660 1.391 . S
C2659 C2658 1.386 . S
C2659 C2663 1.393 . S
C2660 H2649 0.950 . S
C2660 C2658 1.391 . S
C2660 C2661 1.400 . S
C2661 C2655 1.491 . S
C2661 C2660 1.400 . S
C2661 C2662 1.398 . S
C2662 H2650 0.950 . S
C2662 C2661 1.398 . S
C2662 C2663 1.391 . S
C2663 H2651 0.950 . S
C2663 C2659 1.393 . S
C2663 C2662 1.391 . S
H2664 C2672 0.950 . S
H2665 C2677 0.950 . S
H2666 C2674 0.950 . S
H2667 C2676 0.950 . S
H2668 C2678 0.950 . S
H2669 C2680 0.950 . S
H2670 C2682 0.942 1_565 S
H2671 C2683 0.950 . S
C2672 H2664 0.950 . S
C2672 C2673 1.386 . S
C2672 C2674 1.391 . S
C2673 C2672 1.386 . S
C2673 C2677 1.393 . S
C2674 H2666 0.950 . S
C2674 C2672 1.391 . S
C2674 C2675 1.400 . S
C2675 C2674 1.400 . S
C2675 C2676 1.398 . S
C2675 C2681 1.491 . S
C2676 H2667 0.950 . S
C2676 C2675 1.398 . S
C2676 C2677 1.391 . S
C2677 H2665 0.950 . S
C2677 C2673 1.393 . S
C2677 C2676 1.391 . S
C2678 H2668 0.950 . S
C2678 C2679 1.386 1_545 S
C2678 C2680 1.391 . S
C2679 C2678 1.386 1_565 S
C2679 C2683 1.393 . S
C2680 H2669 0.950 . S
C2680 C2678 1.391 . S
C2680 C2681 1.400 . S
C2681 C2675 1.491 . S
C2681 C2680 1.400 . S
C2681 C2682 1.438 . S
C2682 H2670 0.942 1_545 S
C2682 C2681 1.438 . S
C2682 C2683 1.361 1_545 S
C2683 H2671 0.950 . S
C2683 C2679 1.393 . S
C2683 C2682 1.361 1_565 S
H2684 C2692 0.950 . S
H2685 C2697 0.950 . S
H2686 C2694 0.950 . S
H2687 C2696 0.950 . S
H2688 C2698 0.950 . S
H2689 C2700 0.950 . S
H2690 C2702 0.950 . S
H2691 C2703 0.950 . S
C2692 H2684 0.950 . S
C2692 C2693 1.386 . S
C2692 C2694 1.391 1_556 S
C2693 C2692 1.386 . S
C2693 C2697 1.393 1_556 S
C2694 H2686 0.950 . S
C2694 C2692 1.391 1_554 S
C2694 C2695 1.400 . S
C2695 C2694 1.400 . S
C2695 C2696 1.398 . S
C2695 C2701 1.491 . S
C2696 H2687 0.950 . S
C2696 C2695 1.398 . S
C2696 C2697 1.391 . S
C2697 H2685 0.950 . S
C2697 C2693 1.393 1_554 S
C2697 C2696 1.391 . S
C2698 H2688 0.950 . S
C2698 C2699 1.386 . S
C2698 C2700 1.391 . S
C2699 C2698 1.386 . S
C2699 C2703 1.393 . S
C2700 H2689 0.950 . S
C2700 C2698 1.391 . S
C2700 C2701 1.400 . S
C2701 C2695 1.491 . S
C2701 C2700 1.400 . S
C2701 C2702 1.398 . S
C2702 H2690 0.950 . S
C2702 C2701 1.398 . S
C2702 C2703 1.391 . S
C2703 H2691 0.950 . S
C2703 C2699 1.393 . S
C2703 C2702 1.391 . S
H2704 C2712 0.950 . S
H2705 C2717 0.950 . S
H2706 C2714 0.950 . S
H2707 C2716 0.950 . S
H2708 C2718 0.950 . S
H2709 C2720 0.950 . S
H2710 C2722 0.950 . S
H2711 C2723 0.950 . S
C2712 H2704 0.950 . S
C2712 C2713 1.386 1_556 S
C2712 C2714 1.391 . S
C2713 C2712 1.386 1_554 S
C2713 C2717 1.393 . S
C2714 H2706 0.950 . S
C2714 C2712 1.391 . S
C2714 C2715 1.400 . S
C2715 C2714 1.400 . S
C2715 C2716 1.398 . S
C2715 C2721 1.491 . S
C2716 H2707 0.950 . S
C2716 C2715 1.398 . S
C2716 C2717 1.391 1_556 S
C2717 H2705 0.950 . S
C2717 C2713 1.393 . S
C2717 C2716 1.391 1_554 S
C2718 H2708 0.950 . S
C2718 C2719 1.386 . S
C2718 C2720 1.391 . S
C2719 C2718 1.386 . S
C2719 C2723 1.393 . S
C2720 H2709 0.950 . S
C2720 C2718 1.391 . S
C2720 C2721 1.400 . S
C2721 C2715 1.491 . S
C2721 C2720 1.400 . S
C2721 C2722 1.398 . S
C2722 H2710 0.950 . S
C2722 C2721 1.398 . S
C2722 C2723 1.391 . S
C2723 H2711 0.950 . S
C2723 C2719 1.393 . S
C2723 C2722 1.391 . S
H2724 C2732 0.950 . S
H2725 C2737 0.950 . S
H2726 C2734 0.950 . S
H2727 C2736 0.950 . S
H2728 C2738 0.950 . S
H2729 C2740 0.950 . S
H2730 C2742 0.950 . S
H2731 C2743 0.950 . S
C2732 H2724 0.950 . S
C2732 C2733 1.386 . S
C2732 C2734 1.391 . S
C2733 C2732 1.386 . S
C2733 C2737 1.393 . S
C2734 H2726 0.950 . S
C2734 C2732 1.391 . S
C2734 C2735 1.400 . S
C2735 C2734 1.400 . S
C2735 C2736 1.398 . S
C2735 C2741 1.491 . S
C2736 H2727 0.950 . S
C2736 C2735 1.398 . S
C2736 C2737 1.391 . S
C2737 H2725 0.950 . S
C2737 C2733 1.393 . S
C2737 C2736 1.391 . S
C2738 H2728 0.950 . S
C2738 C2739 1.386 . S
C2738 C2740 1.391 . S
C2739 C2738 1.386 . S
C2739 C2743 1.393 . S
C2740 H2729 0.950 . S
C2740 C2738 1.391 . S
C2740 C2741 1.400 . S
C2741 C2735 1.491 . S
C2741 C2740 1.400 . S
C2741 C2742 1.398 . S
C2742 H2730 0.950 . S
C2742 C2741 1.398 . S
C2742 C2743 1.391 . S
C2743 H2731 0.950 . S
C2743 C2739 1.393 . S
C2743 C2742 1.391 . S
H2744 C2752 0.950 . S
H2745 C2757 0.950 . S
H2746 C2754 0.950 . S
H2747 C2756 0.950 . S
H2748 C2758 0.950 . S
H2749 C2760 0.950 . S
H2750 C2762 0.950 . S
H2751 C2763 0.950 . S
C2752 H2744 0.950 . S
C2752 C2753 1.386 1_545 S
C2752 C2754 1.391 . S
C2753 C2752 1.386 1_565 S
C2753 C2757 1.393 . S
C2754 H2746 0.950 . S
C2754 C2752 1.391 . S
C2754 C2755 1.400 . S
C2755 C2754 1.400 . S
C2755 C2756 1.398 1_545 S
C2755 C2761 1.491 . S
C2756 H2747 0.950 . S
C2756 C2755 1.398 1_565 S
C2756 C2757 1.391 . S
C2757 H2745 0.950 . S
C2757 C2753 1.393 . S
C2757 C2756 1.391 . S
C2758 H2748 0.950 . S
C2758 C2759 1.386 . S
C2758 C2760 1.391 . S
C2759 C2758 1.386 . S
C2759 C2763 1.393 . S
C2760 H2749 0.950 . S
C2760 C2758 1.391 . S
C2760 C2761 1.400 . S
C2761 C2755 1.491 . S
C2761 C2760 1.400 . S
C2761 C2762 1.398 . S
C2762 H2750 0.950 . S
C2762 C2761 1.398 . S
C2762 C2763 1.391 . S
C2763 H2751 0.950 . S
C2763 C2759 1.393 . S
C2763 C2762 1.391 . S
H2764 C2772 0.950 . S
H2765 C2777 0.950 . S
H2766 C2774 0.950 . S
H2767 C2776 0.942 1_455 S
H2768 C2778 0.950 . S
H2769 C2780 0.950 . S
H2770 C2782 0.950 . S
H2771 C2783 0.950 . S
C2772 H2764 0.950 . S
C2772 C2773 1.386 1_655 S
C2772 C2774 1.391 . S
C2773 C2772 1.386 1_455 S
C2773 C2777 1.393 . S
C2774 H2766 0.950 . S
C2774 C2772 1.391 . S
C2774 C2775 1.400 . S
C2775 C2774 1.400 . S
C2775 C2776 1.439 . S
C2775 C2781 1.491 . S
C2776 H2767 0.942 1_655 S
C2776 C2775 1.439 . S
C2776 C2777 1.360 1_655 S
C2777 H2765 0.950 . S
C2777 C2773 1.393 . S
C2777 C2776 1.360 1_455 S
C2778 H2768 0.950 . S
C2778 C2779 1.386 . S
C2778 C2780 1.391 . S
C2779 C2778 1.386 . S
C2779 C2783 1.393 . S
C2780 H2769 0.950 . S
C2780 C2778 1.391 . S
C2780 C2781 1.400 . S
C2781 C2775 1.491 . S
C2781 C2780 1.400 . S
C2781 C2782 1.398 . S
C2782 H2770 0.950 . S
C2782 C2781 1.398 . S
C2782 C2783 1.391 . S
C2783 H2771 0.950 . S
C2783 C2779 1.393 . S
C2783 C2782 1.391 . S
H2784 C2792 0.950 . S
H2785 C2797 0.950 . S
H2786 C2794 0.950 . S
H2787 C2796 0.950 . S
H2788 C2798 0.950 . S
H2789 C2800 0.959 . S
H2790 C2802 0.950 . S
H2791 C2803 0.950 . S
C2792 H2784 0.950 . S
C2792 C2793 1.386 . S
C2792 C2794 1.391 . S
C2793 C2792 1.386 . S
C2793 C2797 1.393 . S
C2794 H2786 0.950 . S
C2794 C2792 1.391 . S
C2794 C2795 1.400 . S
C2795 C2794 1.400 . S
C2795 C2796 1.398 . S
C2795 C2801 1.491 . S
C2796 H2787 0.950 . S
C2796 C2795 1.398 . S
C2796 C2797 1.391 . S
C2797 H2785 0.950 . S
C2797 C2793 1.393 . S
C2797 C2796 1.391 . S
C2798 H2788 0.950 . S
C2798 C2799 1.386 . S
C2798 C2800 1.410 . S
C2799 C2798 1.386 . S
C2799 C2803 1.393 1_655 S
C2800 H2789 0.959 . S
C2800 C2798 1.410 . S
C2800 C2801 1.374 1_655 S
C2801 C2795 1.491 . S
C2801 C2800 1.374 1_455 S
C2801 C2802 1.398 . S
C2802 H2790 0.950 . S
C2802 C2801 1.398 . S
C2802 C2803 1.391 . S
C2803 H2791 0.950 . S
C2803 C2799 1.393 1_455 S
C2803 C2802 1.391 . S
H2804 C2812 0.950 . S
H2805 C2817 0.950 . S
H2806 C2814 0.950 . S
H2807 C2816 0.950 . S
H2808 C2818 0.950 . S
H2809 C2820 0.950 . S
H2810 C2822 0.950 . S
H2811 C2823 0.950 . S
C2812 H2804 0.950 . S
C2812 C2813 1.386 . S
C2812 C2814 1.391 . S
C2813 C2812 1.386 . S
C2813 C2817 1.393 . S
C2814 H2806 0.950 . S
C2814 C2812 1.391 . S
C2814 C2815 1.400 . S
C2815 C2814 1.400 . S
C2815 C2816 1.398 . S
C2815 C2821 1.491 . S
C2816 H2807 0.950 . S
C2816 C2815 1.398 . S
C2816 C2817 1.391 . S
C2817 H2805 0.950 . S
C2817 C2813 1.393 . S
C2817 C2816 1.391 . S
C2818 H2808 0.950 . S
C2818 C2819 1.386 . S
C2818 C2820 1.391 . S
C2819 C2818 1.386 . S
C2819 C2823 1.393 . S
C2820 H2809 0.950 . S
C2820 C2818 1.391 . S
C2820 C2821 1.400 . S
C2821 C2815 1.491 . S
C2821 C2820 1.400 . S
C2821 C2822 1.398 . S
C2822 H2810 0.950 . S
C2822 C2821 1.398 . S
C2822 C2823 1.391 . S
C2823 H2811 0.950 . S
C2823 C2819 1.393 . S
C2823 C2822 1.391 . S
H2824 C2832 0.950 . S
H2825 C2837 0.950 . S
H2826 C2834 0.950 . S
H2827 C2836 0.950 . S
H2828 C2838 0.950 . S
H2829 C2840 0.950 . S
H2830 C2842 0.950 . S
H2831 C2843 0.950 . S
C2832 H2824 0.950 . S
C2832 C2833 1.386 . S
C2832 C2834 1.391 . S
C2833 C2832 1.386 . S
C2833 C2837 1.393 . S
C2834 H2826 0.950 . S
C2834 C2832 1.391 . S
C2834 C2835 1.400 . S
C2835 C2834 1.400 . S
C2835 C2836 1.398 . S
C2835 C2841 1.491 . S
C2836 H2827 0.950 . S
C2836 C2835 1.398 . S
C2836 C2837 1.391 . S
C2837 H2825 0.950 . S
C2837 C2833 1.393 . S
C2837 C2836 1.391 . S
C2838 H2828 0.950 . S
C2838 C2839 1.386 . S
C2838 C2840 1.391 . S
C2839 C2838 1.386 . S
C2839 C2843 1.393 . S
C2840 H2829 0.950 . S
C2840 C2838 1.391 . S
C2840 C2841 1.400 . S
C2841 C2835 1.491 . S
C2841 C2840 1.400 . S
C2841 C2842 1.398 . S
C2842 H2830 0.950 . S
C2842 C2841 1.398 . S
C2842 C2843 1.391 . S
C2843 H2831 0.950 . S
C2843 C2839 1.393 . S
C2843 C2842 1.391 . S
H2844 C2852 0.950 . S
H2845 C2857 0.950 . S
H2846 C2854 0.950 . S
H2847 C2856 0.950 . S
H2848 C2858 0.950 . S
H2849 C2860 0.950 . S
H2850 C2862 0.950 . S
H2851 C2863 0.950 . S
C2852 H2844 0.950 . S
C2852 C2853 1.386 . S
C2852 C2854 1.391 . S
C2853 C2852 1.386 . S
C2853 C2857 1.393 . S
C2854 H2846 0.950 . S
C2854 C2852 1.391 . S
C2854 C2855 1.400 . S
C2855 C2854 1.400 . S
C2855 C2856 1.398 . S
C2855 C2861 1.491 . S
C2856 H2847 0.950 . S
C2856 C2855 1.398 . S
C2856 C2857 1.391 . S
C2857 H2845 0.950 . S
C2857 C2853 1.393 . S
C2857 C2856 1.391 . S
C2858 H2848 0.950 . S
C2858 C2859 1.386 . S
C2858 C2860 1.391 . S
C2859 C2858 1.386 . S
C2859 C2863 1.393 . S
C2860 H2849 0.950 . S
C2860 C2858 1.391 . S
C2860 C2861 1.400 . S
C2861 C2855 1.491 . S
C2861 C2860 1.400 . S
C2861 C2862 1.398 . S
C2862 H2850 0.950 . S
C2862 C2861 1.398 . S
C2862 C2863 1.391 . S
C2863 H2851 0.950 . S
C2863 C2859 1.393 . S
C2863 C2862 1.391 . S
H2864 C2872 0.950 . S
H2865 C2877 0.950 . S
H2866 C2874 0.950 . S
H2867 C2876 0.950 . S
H2868 C2878 0.950 . S
H2869 C2880 0.950 . S
H2870 C2882 0.950 . S
H2871 C2883 0.950 . S
C2872 H2864 0.950 . S
C2872 C2873 1.386 . S
C2872 C2874 1.391 . S
C2873 C2872 1.386 . S
C2873 C2877 1.393 . S
C2874 H2866 0.950 . S
C2874 C2872 1.391 . S
C2874 C2875 1.400 . S
C2875 C2874 1.400 . S
C2875 C2876 1.398 . S
C2875 C2881 1.491 . S
C2876 H2867 0.950 . S
C2876 C2875 1.398 . S
C2876 C2877 1.391 . S
C2877 H2865 0.950 . S
C2877 C2873 1.393 . S
C2877 C2876 1.391 . S
C2878 H2868 0.950 . S
C2878 C2879 1.386 1_554 S
C2878 C2880 1.391 . S
C2879 C2878 1.386 1_556 S
C2879 C2883 1.393 . S
C2880 H2869 0.950 . S
C2880 C2878 1.391 . S
C2880 C2881 1.400 . S
C2881 C2875 1.491 . S
C2881 C2880 1.400 . S
C2881 C2882 1.398 . S
C2882 H2870 0.950 . S
C2882 C2881 1.398 . S
C2882 C2883 1.391 1_554 S
C2883 H2871 0.950 . S
C2883 C2879 1.393 . S
C2883 C2882 1.391 1_556 S
H2884 C2892 0.950 . S
H2885 C2897 0.950 1_565 S
H2886 C2894 0.950 . S
H2887 C2896 0.950 . S
H2888 C2898 0.950 . S
H2889 C2900 0.950 . S
H2890 C2902 0.950 . S
H2891 C2903 0.950 . S
C2892 H2884 0.950 . S
C2892 C2893 1.386 . S
C2892 C2894 1.391 1_565 S
C2893 C2892 1.386 . S
C2893 C2897 1.393 1_565 S
C2894 H2886 0.950 . S
C2894 C2892 1.391 1_545 S
C2894 C2895 1.400 . S
C2895 C2894 1.400 . S
C2895 C2896 1.398 . S
C2895 C2901 1.491 . S
C2896 H2887 0.950 . S
C2896 C2895 1.398 . S
C2896 C2897 1.391 . S
C2897 H2885 0.950 1_545 S
C2897 C2893 1.393 1_545 S
C2897 C2896 1.391 . S
C2898 H2888 0.950 . S
C2898 C2899 1.386 . S
C2898 C2900 1.391 . S
C2899 C2898 1.386 . S
C2899 C2903 1.393 . S
C2900 H2889 0.950 . S
C2900 C2898 1.391 . S
C2900 C2901 1.400 . S
C2901 C2895 1.491 . S
C2901 C2900 1.400 . S
C2901 C2902 1.398 . S
C2902 H2890 0.950 . S
C2902 C2901 1.398 . S
C2902 C2903 1.391 . S
C2903 H2891 0.950 . S
C2903 C2899 1.393 . S
C2903 C2902 1.391 . S
H2904 C2912 0.950 . S
H2905 C2917 0.950 . S
H2906 C2914 0.950 . S
H2907 C2916 0.950 . S
H2908 C2918 0.950 . S
H2909 C2920 0.950 . S
H2910 C2922 0.950 . S
H2911 C2923 0.950 . S
C2912 H2904 0.950 . S
C2912 C2913 1.386 . S
C2912 C2914 1.391 . S
C2913 C2912 1.386 . S
C2913 C2917 1.393 . S
C2914 H2906 0.950 . S
C2914 C2912 1.391 . S
C2914 C2915 1.400 . S
C2915 C2914 1.400 . S
C2915 C2916 1.398 . S
C2915 C2921 1.491 . S
C2916 H2907 0.950 . S
C2916 C2915 1.398 . S
C2916 C2917 1.391 . S
C2917 H2905 0.950 . S
C2917 C2913 1.393 . S
C2917 C2916 1.391 . S
C2918 H2908 0.950 . S
C2918 C2919 1.386 . S
C2918 C2920 1.391 . S
C2919 C2918 1.386 . S
C2919 C2923 1.393 . S
C2920 H2909 0.950 . S
C2920 C2918 1.391 . S
C2920 C2921 1.400 . S
C2921 C2915 1.491 . S
C2921 C2920 1.400 . S
C2921 C2922 1.398 . S
C2922 H2910 0.950 . S
C2922 C2921 1.398 . S
C2922 C2923 1.391 . S
C2923 H2911 0.950 . S
C2923 C2919 1.393 . S
C2923 C2922 1.391 . S
H2924 C2932 0.950 . S
H2925 C2937 0.950 . S
H2926 C2934 0.950 . S
H2927 C2936 0.950 . S
H2928 C2938 0.950 . S
H2929 C2940 0.950 . S
H2930 C2942 0.950 . S
H2931 C2943 0.950 . S
C2932 H2924 0.950 . S
C2932 C2933 1.386 . S
C2932 C2934 1.391 . S
C2933 C2932 1.386 . S
C2933 C2937 1.393 . S
C2934 H2926 0.950 . S
C2934 C2932 1.391 . S
C2934 C2935 1.400 . S
C2935 C2934 1.400 . S
C2935 C2936 1.398 . S
C2935 C2941 1.491 . S
C2936 H2927 0.950 . S
C2936 C2935 1.398 . S
C2936 C2937 1.391 . S
C2937 H2925 0.950 . S
C2937 C2933 1.393 . S
C2937 C2936 1.391 . S
C2938 H2928 0.950 . S
C2938 C2939 1.386 . S
C2938 C2940 1.391 . S
C2939 C2938 1.386 . S
C2939 C2943 1.393 . S
C2940 H2929 0.950 . S
C2940 C2938 1.391 . S
C2940 C2941 1.400 . S
C2941 C2935 1.491 . S
C2941 C2940 1.400 . S
C2941 C2942 1.398 . S
C2942 H2930 0.950 . S
C2942 C2941 1.398 . S
C2942 C2943 1.391 . S
C2943 H2931 0.950 . S
C2943 C2939 1.393 . S
C2943 C2942 1.391 . S
H2944 C2952 0.950 . S
H2945 C2957 0.950 . S
H2946 C2954 0.950 . S
H2947 C2956 0.950 . S
H2948 C2958 0.950 . S
H2949 C2960 0.950 . S
H2950 C2962 0.950 . S
H2951 C2963 0.950 . S
C2952 H2944 0.950 . S
C2952 C2953 1.386 . S
C2952 C2954 1.391 . S
C2953 C2952 1.386 . S
C2953 C2957 1.393 . S
C2954 H2946 0.950 . S
C2954 C2952 1.391 . S
C2954 C2955 1.400 . S
C2955 C2954 1.400 . S
C2955 C2956 1.398 . S
C2955 C2961 1.491 . S
C2956 H2947 0.950 . S
C2956 C2955 1.398 . S
C2956 C2957 1.391 . S
C2957 H2945 0.950 . S
C2957 C2953 1.393 . S
C2957 C2956 1.391 . S
C2958 H2948 0.950 . S
C2958 C2959 1.386 . S
C2958 C2960 1.391 . S
C2959 C2958 1.386 . S
C2959 C2963 1.393 . S
C2960 H2949 0.950 . S
C2960 C2958 1.391 . S
C2960 C2961 1.400 . S
C2961 C2955 1.491 . S
C2961 C2960 1.400 . S
C2961 C2962 1.398 . S
C2962 H2950 0.950 . S
C2962 C2961 1.398 . S
C2962 C2963 1.391 . S
C2963 H2951 0.950 . S
C2963 C2959 1.393 . S
C2963 C2962 1.391 . S
H2964 C2972 0.950 . S
H2965 C2977 0.950 . S
H2966 C2974 0.950 . S
H2967 C2976 0.950 . S
H2968 C2978 0.950 . S
H2969 C2980 0.950 . S
H2970 C2982 0.950 . S
H2971 C2983 0.950 . S
C2972 H2964 0.950 . S
C2972 C2973 1.386 . S
C2972 C2974 1.391 . S
C2973 C2972 1.386 . S
C2973 C2977 1.393 . S
C2974 H2966 0.950 . S
C2974 C2972 1.391 . S
C2974 C2975 1.400 . S
C2975 C2974 1.400 . S
C2975 C2976 1.398 . S
C2975 C2981 1.491 . S
C2976 H2967 0.950 . S
C2976 C2975 1.398 . S
C2976 C2977 1.391 . S
C2977 H2965 0.950 . S
C2977 C2973 1.393 . S
C2977 C2976 1.391 . S
C2978 H2968 0.950 . S
C2978 C2979 1.386 1_565 S
C2978 C2980 1.391 . S
C2979 C2978 1.386 1_545 S
C2979 C2983 1.393 . S
C2980 H2969 0.950 . S
C2980 C2978 1.391 . S
C2980 C2981 1.400 . S
C2981 C2975 1.491 . S
C2981 C2980 1.400 . S
C2981 C2982 1.398 . S
C2982 H2970 0.950 . S
C2982 C2981 1.398 . S
C2982 C2983 1.391 1_565 S
C2983 H2971 0.950 . S
C2983 C2979 1.393 . S
C2983 C2982 1.391 1_545 S
H2984 C2992 0.950 . S
H2985 C2997 0.950 . S
H2986 C2994 0.950 . S
H2987 C2996 0.950 . S
H2988 C2998 0.950 . S
H2989 C3000 0.950 . S
H2990 C3002 0.950 . S
H2991 C3003 0.950 . S
C2992 H2984 0.950 . S
C2992 C2993 1.386 . S
C2992 C2994 1.391 1_554 S
C2993 C2992 1.386 . S
C2993 C2997 1.393 . S
C2994 H2986 0.950 . S
C2994 C2992 1.391 1_556 S
C2994 C2995 1.400 . S
C2995 C2994 1.400 . S
C2995 C2996 1.398 . S
C2995 C3001 1.491 . S
C2996 H2987 0.950 . S
C2996 C2995 1.398 . S
C2996 C2997 1.391 1_556 S
C2997 H2985 0.950 . S
C2997 C2993 1.393 . S
C2997 C2996 1.391 1_554 S
C2998 H2988 0.950 . S
C2998 C2999 1.386 . S
C2998 C3000 1.391 . S
C2999 C2998 1.386 . S
C2999 C3003 1.393 . S
C3000 H2989 0.950 . S
C3000 C2998 1.391 . S
C3000 C3001 1.400 . S
C3001 C2995 1.491 . S
C3001 C3000 1.400 . S
C3001 C3002 1.398 . S
C3002 H2990 0.950 . S
C3002 C3001 1.398 . S
C3002 C3003 1.391 . S
C3003 H2991 0.950 . S
C3003 C2999 1.393 . S
C3003 C3002 1.391 . S
H3004 C3012 0.950 . S
H3005 C3017 0.950 . S
H3006 C3014 0.950 . S
H3007 C3016 0.950 . S
H3008 C3018 0.950 . S
H3009 C3020 0.950 . S
H3010 C3022 0.950 . S
H3011 C3023 0.950 . S
C3012 H3004 0.950 . S
C3012 C3013 1.386 . S
C3012 C3014 1.391 . S
C3013 C3012 1.386 . S
C3013 C3017 1.393 . S
C3014 H3006 0.950 . S
C3014 C3012 1.391 . S
C3014 C3015 1.400 . S
C3015 C3014 1.400 . S
C3015 C3016 1.398 . S
C3015 C3021 1.491 . S
C3016 H3007 0.950 . S
C3016 C3015 1.398 . S
C3016 C3017 1.391 . S
C3017 H3005 0.950 . S
C3017 C3013 1.393 . S
C3017 C3016 1.391 . S
C3018 H3008 0.950 . S
C3018 C3019 1.386 . S
C3018 C3020 1.391 . S
C3019 C3018 1.386 . S
C3019 C3023 1.393 . S
C3020 H3009 0.950 . S
C3020 C3018 1.391 . S
C3020 C3021 1.400 . S
C3021 C3015 1.491 . S
C3021 C3020 1.400 . S
C3021 C3022 1.398 . S
C3022 H3010 0.950 . S
C3022 C3021 1.398 . S
C3022 C3023 1.391 . S
C3023 H3011 0.950 . S
C3023 C3019 1.393 . S
C3023 C3022 1.391 . S
H3024 C3032 0.950 . S
H3025 C3037 0.950 . S
H3026 C3034 0.950 . S
H3027 C3036 0.950 . S
H3028 C3038 0.950 . S
H3029 C3040 0.950 . S
H3030 C3042 0.950 . S
H3031 C3043 0.950 . S
C3032 H3024 0.950 . S
C3032 C3033 1.386 . S
C3032 C3034 1.391 . S
C3033 C3032 1.386 . S
C3033 C3037 1.393 1_556 S
C3034 H3026 0.950 . S
C3034 C3032 1.391 . S
C3034 C3035 1.400 1_556 S
C3035 C3034 1.400 1_554 S
C3035 C3036 1.398 . S
C3035 C3041 1.491 . S
C3036 H3027 0.950 . S
C3036 C3035 1.398 . S
C3036 C3037 1.391 . S
C3037 H3025 0.950 . S
C3037 C3033 1.393 1_554 S
C3037 C3036 1.391 . S
C3038 H3028 0.950 . S
C3038 C3039 1.386 . S
C3038 C3040 1.391 . S
C3039 C3038 1.386 . S
C3039 C3043 1.393 . S
C3040 H3029 0.950 . S
C3040 C3038 1.391 . S
C3040 C3041 1.400 . S
C3041 C3035 1.491 . S
C3041 C3040 1.400 . S
C3041 C3042 1.398 . S
C3042 H3030 0.950 . S
C3042 C3041 1.398 . S
C3042 C3043 1.391 . S
C3043 H3031 0.950 . S
C3043 C3039 1.393 . S
C3043 C3042 1.391 . S
H3044 C3052 0.950 . S
H3045 C3057 0.950 . S
H3046 C3054 0.950 . S
H3047 C3056 0.950 . S
H3048 C3058 0.950 . S
H3049 C3060 0.950 . S
H3050 C3062 0.950 . S
H3051 C3063 0.950 . S
C3052 H3044 0.950 . S
C3052 C3053 1.386 . S
C3052 C3054 1.391 . S
C3053 C3052 1.386 . S
C3053 C3057 1.393 . S
C3054 H3046 0.950 . S
C3054 C3052 1.391 . S
C3054 C3055 1.400 . S
C3055 C3054 1.400 . S
C3055 C3056 1.398 . S
C3055 C3061 1.491 . S
C3056 H3047 0.950 . S
C3056 C3055 1.398 . S
C3056 C3057 1.391 . S
C3057 H3045 0.950 . S
C3057 C3053 1.393 . S
C3057 C3056 1.391 . S
C3058 H3048 0.950 . S
C3058 C3059 1.386 . S
C3058 C3060 1.391 . S
C3059 C3058 1.386 . S
C3059 C3063 1.393 . S
C3060 H3049 0.950 . S
C3060 C3058 1.391 . S
C3060 C3061 1.400 . S
C3061 C3055 1.491 . S
C3061 C3060 1.400 . S
C3061 C3062 1.398 . S
C3062 H3050 0.950 . S
C3062 C3061 1.398 . S
C3062 C3063 1.391 . S
C3063 H3051 0.950 . S
C3063 C3059 1.393 . S
C3063 C3062 1.391 . S
H3064 C3072 0.950 . S
H3065 C3077 0.950 . S
H3066 C3074 0.950 . S
H3067 C3076 0.950 . S
H3068 C3078 0.950 . S
H3069 C3080 0.950 . S
H3070 C3082 0.950 . S
H3071 C3083 0.950 . S
C3072 H3064 0.950 . S
C3072 C3073 1.386 . S
C3072 C3074 1.391 . S
C3073 C3072 1.386 . S
C3073 C3077 1.393 . S
C3074 H3066 0.950 . S
C3074 C3072 1.391 . S
C3074 C3075 1.400 . S
C3075 C3074 1.400 . S
C3075 C3076 1.398 . S
C3075 C3081 1.491 . S
C3076 H3067 0.950 . S
C3076 C3075 1.398 . S
C3076 C3077 1.391 . S
C3077 H3065 0.950 . S
C3077 C3073 1.393 . S
C3077 C3076 1.391 . S
C3078 H3068 0.950 . S
C3078 C3079 1.386 . S
C3078 C3080 1.391 . S
C3079 C3078 1.386 . S
C3079 C3083 1.393 . S
C3080 H3069 0.950 . S
C3080 C3078 1.391 . S
C3080 C3081 1.400 . S
C3081 C3075 1.491 . S
C3081 C3080 1.400 . S
C3081 C3082 1.398 . S
C3082 H3070 0.950 . S
C3082 C3081 1.398 . S
C3082 C3083 1.391 . S
C3083 H3071 0.950 . S
C3083 C3079 1.393 . S
C3083 C3082 1.391 . S
H3084 C3092 0.950 . S
H3085 C3097 0.950 . S
H3086 C3094 0.950 . S
H3087 C3096 0.950 . S
H3088 C3098 0.950 . S
H3089 C3100 0.950 . S
H3090 C3102 0.950 . S
H3091 C3103 0.950 . S
C3092 H3084 0.950 . S
C3092 C3093 1.386 . S
C3092 C3094 1.391 . S
C3093 C3092 1.386 . S
C3093 C3097 1.393 . S
C3094 H3086 0.950 . S
C3094 C3092 1.391 . S
C3094 C3095 1.400 . S
C3095 C3094 1.400 . S
C3095 C3096 1.398 . S
C3095 C3101 1.491 . S
C3096 H3087 0.950 . S
C3096 C3095 1.398 . S
C3096 C3097 1.391 . S
C3097 H3085 0.950 . S
C3097 C3093 1.393 . S
C3097 C3096 1.391 . S
C3098 H3088 0.950 . S
C3098 C3099 1.386 . S
C3098 C3100 1.391 . S
C3099 C3098 1.386 . S
C3099 C3103 1.393 . S
C3100 H3089 0.950 . S
C3100 C3098 1.391 . S
C3100 C3101 1.400 . S
C3101 C3095 1.491 . S
C3101 C3100 1.400 . S
C3101 C3102 1.398 . S
C3102 H3090 0.950 . S
C3102 C3101 1.398 . S
C3102 C3103 1.391 . S
C3103 H3091 0.950 . S
C3103 C3099 1.393 . S
C3103 C3102 1.391 . S
H3104 C3112 0.950 . S
H3105 C3117 0.950 . S
H3106 C3114 0.950 . S
H3107 C3116 0.950 . S
H3108 C3118 0.950 . S
H3109 C3120 0.950 . S
H3110 C3122 0.950 . S
H3111 C3123 0.950 . S
C3112 H3104 0.950 . S
C3112 C3113 1.386 . S
C3112 C3114 1.391 . S
C3113 C3112 1.386 . S
C3113 C3117 1.393 1_545 S
C3114 H3106 0.950 . S
C3114 C3112 1.391 . S
C3114 C3115 1.400 1_545 S
C3115 C3114 1.400 1_565 S
C3115 C3116 1.398 . S
C3115 C3121 1.491 . S
C3116 H3107 0.950 . S
C3116 C3115 1.398 . S
C3116 C3117 1.391 . S
C3117 H3105 0.950 . S
C3117 C3113 1.393 1_565 S
C3117 C3116 1.391 . S
C3118 H3108 0.950 . S
C3118 C3119 1.386 . S
C3118 C3120 1.391 . S
C3119 C3118 1.386 . S
C3119 C3123 1.393 . S
C3120 H3109 0.950 . S
C3120 C3118 1.391 . S
C3120 C3121 1.400 . S
C3121 C3115 1.491 . S
C3121 C3120 1.400 . S
C3121 C3122 1.398 . S
C3122 H3110 0.950 . S
C3122 C3121 1.398 . S
C3122 C3123 1.391 . S
C3123 H3111 0.950 . S
C3123 C3119 1.393 . S
C3123 C3122 1.391 . S
H3124 C3132 0.950 . S
H3125 C3137 0.950 . S
H3126 C3134 0.950 . S
H3127 C3136 0.950 . S
H3128 C3138 0.950 . S
H3129 C3140 0.950 . S
H3130 C3142 0.950 . S
H3131 C3143 0.950 . S
C3132 H3124 0.950 . S
C3132 C3133 1.386 . S
C3132 C3134 1.391 . S
C3133 C3132 1.386 . S
C3133 C3137 1.393 . S
C3134 H3126 0.950 . S
C3134 C3132 1.391 . S
C3134 C3135 1.400 . S
C3135 C3134 1.400 . S
C3135 C3136 1.398 . S
C3135 C3141 1.491 . S
C3136 H3127 0.950 . S
C3136 C3135 1.398 . S
C3136 C3137 1.391 . S
C3137 H3125 0.950 . S
C3137 C3133 1.393 . S
C3137 C3136 1.391 . S
C3138 H3128 0.950 . S
C3138 C3139 1.386 . S
C3138 C3140 1.391 . S
C3139 C3138 1.386 . S
C3139 C3143 1.393 . S
C3140 H3129 0.950 . S
C3140 C3138 1.391 . S
C3140 C3141 1.400 . S
C3141 C3135 1.491 . S
C3141 C3140 1.400 . S
C3141 C3142 1.398 . S
C3142 H3130 0.950 . S
C3142 C3141 1.398 . S
C3142 C3143 1.391 . S
C3143 H3131 0.950 . S
C3143 C3139 1.393 . S
C3143 C3142 1.391 . S
H3144 C3152 0.950 . S
H3145 C3157 0.950 . S
H3146 C3154 0.950 . S
H3147 C3156 0.950 . S
H3148 C3158 0.950 . S
H3149 C3160 0.950 . S
H3150 C3162 0.950 . S
H3151 C3163 0.950 . S
C3152 H3144 0.950 . S
C3152 C3153 1.386 . S
C3152 C3154 1.391 . S
C3153 C3152 1.386 . S
C3153 C3157 1.393 . S
C3154 H3146 0.950 . S
C3154 C3152 1.391 . S
C3154 C3155 1.400 . S
C3155 C3154 1.400 . S
C3155 C3156 1.398 . S
C3155 C3161 1.491 . S
C3156 H3147 0.950 . S
C3156 C3155 1.398 . S
C3156 C3157 1.391 . S
C3157 H3145 0.950 . S
C3157 C3153 1.393 . S
C3157 C3156 1.391 . S
C3158 H3148 0.950 . S
C3158 C3159 1.386 . S
C3158 C3160 1.391 . S
C3159 C3158 1.386 . S
C3159 C3163 1.393 . S
C3160 H3149 0.950 . S
C3160 C3158 1.391 . S
C3160 C3161 1.400 . S
C3161 C3155 1.491 . S
C3161 C3160 1.400 . S
C3161 C3162 1.398 . S
C3162 H3150 0.950 . S
C3162 C3161 1.398 . S
C3162 C3163 1.391 . S
C3163 H3151 0.950 . S
C3163 C3159 1.393 . S
C3163 C3162 1.391 . S
H3164 C3172 0.950 . S
H3165 C3177 0.950 . S
H3166 C3174 0.950 . S
H3167 C3176 0.950 . S
H3168 C3178 0.950 . S
H3169 C3180 0.950 . S
H3170 C3182 0.950 . S
H3171 C3183 0.950 . S
C3172 H3164 0.950 . S
C3172 C3173 1.386 . S
C3172 C3174 1.391 . S
C3173 C3172 1.386 . S
C3173 C3177 1.393 . S
C3174 H3166 0.950 . S
C3174 C3172 1.391 . S
C3174 C3175 1.400 . S
C3175 C3174 1.400 . S
C3175 C3176 1.398 . S
C3175 C3181 1.491 . S
C3176 H3167 0.950 . S
C3176 C3175 1.398 . S
C3176 C3177 1.391 . S
C3177 H3165 0.950 . S
C3177 C3173 1.393 . S
C3177 C3176 1.391 . S
C3178 H3168 0.950 . S
C3178 C3179 1.386 . S
C3178 C3180 1.391 . S
C3179 C3178 1.386 . S
C3179 C3183 1.393 . S
C3180 H3169 0.950 . S
C3180 C3178 1.391 . S
C3180 C3181 1.400 . S
C3181 C3175 1.491 . S
C3181 C3180 1.400 . S
C3181 C3182 1.398 . S
C3182 H3170 0.950 . S
C3182 C3181 1.398 . S
C3182 C3183 1.391 . S
C3183 H3171 0.950 . S
C3183 C3179 1.393 . S
C3183 C3182 1.391 . S
H3184 C3192 0.950 . S
H3185 C3197 0.950 . S
H3186 C3194 0.950 . S
H3187 C3196 0.950 . S
H3188 C3198 0.950 . S
H3189 C3200 0.950 . S
H3190 C3202 0.950 . S
H3191 C3203 0.950 . S
C3192 H3184 0.950 . S
C3192 C3193 1.386 . S
C3192 C3194 1.391 . S
C3193 C3192 1.386 . S
C3193 C3197 1.393 . S
C3194 H3186 0.950 . S
C3194 C3192 1.391 . S
C3194 C3195 1.400 . S
C3195 C3194 1.400 . S
C3195 C3196 1.398 . S
C3195 C3201 1.491 . S
C3196 H3187 0.950 . S
C3196 C3195 1.398 . S
C3196 C3197 1.391 . S
C3197 H3185 0.950 . S
C3197 C3193 1.393 . S
C3197 C3196 1.391 . S
C3198 H3188 0.950 . S
C3198 C3199 1.386 . S
C3198 C3200 1.391 . S
C3199 C3198 1.386 . S
C3199 C3203 1.393 . S
C3200 H3189 0.950 . S
C3200 C3198 1.391 . S
C3200 C3201 1.400 . S
C3201 C3195 1.491 . S
C3201 C3200 1.400 . S
C3201 C3202 1.398 . S
C3202 H3190 0.950 . S
C3202 C3201 1.398 . S
C3202 C3203 1.391 . S
C3203 H3191 0.950 . S
C3203 C3199 1.393 . S
C3203 C3202 1.391 . S
H3204 C3212 0.950 . S
H3205 C3217 0.950 . S
H3206 C3214 0.950 . S
H3207 C3216 0.950 . S
H3208 C3218 0.950 . S
H3209 C3220 0.950 . S
H3210 C3222 0.950 . S
H3211 C3223 0.950 . S
C3212 H3204 0.950 . S
C3212 C3213 1.386 . S
C3212 C3214 1.391 . S
C3213 C3212 1.386 . S
C3213 C3217 1.393 . S
C3214 H3206 0.950 . S
C3214 C3212 1.391 . S
C3214 C3215 1.400 . S
C3215 C3214 1.400 . S
C3215 C3216 1.398 . S
C3215 C3221 1.491 . S
C3216 H3207 0.950 . S
C3216 C3215 1.398 . S
C3216 C3217 1.391 . S
C3217 H3205 0.950 . S
C3217 C3213 1.393 . S
C3217 C3216 1.391 . S
C3218 H3208 0.950 . S
C3218 C3219 1.386 . S
C3218 C3220 1.391 . S
C3219 C3218 1.386 . S
C3219 C3223 1.393 . S
C3220 H3209 0.950 . S
C3220 C3218 1.391 . S
C3220 C3221 1.400 . S
C3221 C3215 1.491 . S
C3221 C3220 1.400 . S
C3221 C3222 1.398 . S
C3222 H3210 0.950 . S
C3222 C3221 1.398 . S
C3222 C3223 1.391 . S
C3223 H3211 0.950 . S
C3223 C3219 1.393 . S
C3223 C3222 1.391 . S
H3224 C3232 0.950 . S
H3225 C3237 0.950 . S
H3226 C3234 0.950 . S
H3227 C3236 0.950 . S
H3228 C3238 0.950 . S
H3229 C3240 0.950 . S
H3230 C3242 0.952 . S
H3231 C3243 0.950 . S
C3232 H3224 0.950 . S
C3232 C3233 1.386 . S
C3232 C3234 1.391 . S
C3233 C3232 1.386 . S
C3233 C3237 1.393 . S
C3234 H3226 0.950 . S
C3234 C3232 1.391 . S
C3234 C3235 1.400 . S
C3235 C3234 1.400 . S
C3235 C3236 1.398 . S
C3235 C3241 1.491 . S
C3236 H3227 0.950 . S
C3236 C3235 1.398 . S
C3236 C3237 1.391 . S
C3237 H3225 0.950 . S
C3237 C3233 1.393 . S
C3237 C3236 1.391 . S
C3238 H3228 0.950 . S
C3238 C3239 1.386 1_565 S
C3238 C3240 1.391 . S
C3239 C3238 1.386 1_545 S
C3239 C3243 1.393 . S
C3240 H3229 0.950 . S
C3240 C3238 1.391 . S
C3240 C3241 1.400 . S
C3241 C3235 1.491 . S
C3241 C3240 1.400 . S
C3241 C3242 1.398 . S
C3242 H3230 0.952 . S
C3242 C3241 1.398 . S
C3242 C3243 1.391 1_565 S
C3243 H3231 0.950 . S
C3243 C3239 1.393 . S
C3243 C3242 1.391 1_545 S
H3244 C3252 0.950 . S
H3245 C3257 0.950 . S
H3246 C3254 0.950 . S
H3247 C3256 0.950 . S
H3248 C3258 0.950 . S
H3249 C3260 0.950 . S
H3250 C3262 0.950 . S
H3251 C3263 0.950 . S
C3252 H3244 0.950 . S
C3252 C3253 1.386 . S
C3252 C3254 1.391 . S
C3253 C3252 1.386 . S
C3253 C3257 1.393 . S
C3254 H3246 0.950 . S
C3254 C3252 1.391 . S
C3254 C3255 1.400 . S
C3255 C3254 1.400 . S
C3255 C3256 1.398 . S
C3255 C3261 1.491 . S
C3256 H3247 0.950 . S
C3256 C3255 1.398 . S
C3256 C3257 1.391 . S
C3257 H3245 0.950 . S
C3257 C3253 1.393 . S
C3257 C3256 1.391 . S
C3258 H3248 0.950 . S
C3258 C3259 1.386 . S
C3258 C3260 1.391 . S
C3259 C3258 1.386 . S
C3259 C3263 1.393 . S
C3260 H3249 0.950 . S
C3260 C3258 1.391 . S
C3260 C3261 1.400 . S
C3261 C3255 1.491 . S
C3261 C3260 1.400 . S
C3261 C3262 1.398 . S
C3262 H3250 0.950 . S
C3262 C3261 1.398 . S
C3262 C3263 1.391 . S
C3263 H3251 0.950 . S
C3263 C3259 1.393 . S
C3263 C3262 1.391 . S
H3264 C3272 0.950 . S
H3265 C3277 0.950 . S
H3266 C3274 0.950 . S
H3267 C3276 0.950 . S
H3268 C3278 0.950 . S
H3269 C3280 0.950 . S
H3270 C3282 0.950 . S
H3271 C3283 0.950 . S
C3272 H3264 0.950 . S
C3272 C3273 1.386 . S
C3272 C3274 1.391 . S
C3273 C3272 1.386 . S
C3273 C3277 1.393 . S
C3274 H3266 0.950 . S
C3274 C3272 1.391 . S
C3274 C3275 1.400 . S
C3275 C3274 1.400 . S
C3275 C3276 1.398 . S
C3275 C3281 1.491 . S
C3276 H3267 0.950 . S
C3276 C3275 1.398 . S
C3276 C3277 1.391 . S
C3277 H3265 0.950 . S
C3277 C3273 1.393 . S
C3277 C3276 1.391 . S
C3278 H3268 0.950 . S
C3278 C3279 1.386 . S
C3278 C3280 1.391 . S
C3279 C3278 1.386 . S
C3279 C3283 1.393 . S
C3280 H3269 0.950 . S
C3280 C3278 1.391 . S
C3280 C3281 1.400 . S
C3281 C3275 1.491 . S
C3281 C3280 1.400 . S
C3281 C3282 1.398 . S
C3282 H3270 0.950 . S
C3282 C3281 1.398 . S
C3282 C3283 1.391 . S
C3283 H3271 0.950 . S
C3283 C3279 1.393 . S
C3283 C3282 1.391 . S
H3284 C3292 0.950 . S
H3285 C3297 0.950 . S
H3286 C3294 0.950 . S
H3287 C3296 0.950 . S
H3288 C3298 0.950 . S
H3289 C3300 0.950 . S
H3290 C3302 0.950 . S
H3291 C3303 0.950 . S
C3292 H3284 0.950 . S
C3292 C3293 1.386 . S
C3292 C3294 1.391 . S
C3293 C3292 1.386 . S
C3293 C3297 1.393 . S
C3294 H3286 0.950 . S
C3294 C3292 1.391 . S
C3294 C3295 1.400 . S
C3295 C3294 1.400 . S
C3295 C3296 1.398 . S
C3295 C3301 1.491 . S
C3296 H3287 0.950 . S
C3296 C3295 1.398 . S
C3296 C3297 1.391 . S
C3297 H3285 0.950 . S
C3297 C3293 1.393 . S
C3297 C3296 1.391 . S
C3298 H3288 0.950 . S
C3298 C3299 1.386 . S
C3298 C3300 1.391 . S
C3299 C3298 1.386 . S
C3299 C3303 1.393 . S
C3300 H3289 0.950 . S
C3300 C3298 1.391 . S
C3300 C3301 1.400 . S
C3301 C3295 1.491 . S
C3301 C3300 1.400 . S
C3301 C3302 1.398 . S
C3302 H3290 0.950 . S
C3302 C3301 1.398 . S
C3302 C3303 1.391 . S
C3303 H3291 0.950 . S
C3303 C3299 1.393 . S
C3303 C3302 1.391 . S
H3304 C3312 0.950 . S
H3305 C3317 0.950 . S
H3306 C3314 0.950 . S
H3307 C3316 0.950 . S
H3308 C3318 0.950 . S
H3309 C3320 0.950 . S
H3310 C3322 0.950 . S
H3311 C3323 0.950 . S
C3312 H3304 0.950 . S
C3312 C3313 1.386 . S
C3312 C3314 1.391 . S
C3313 C3312 1.386 . S
C3313 C3317 1.393 . S
C3314 H3306 0.950 . S
C3314 C3312 1.391 . S
C3314 C3315 1.400 . S
C3315 C3314 1.400 . S
C3315 C3316 1.398 . S
C3315 C3321 1.491 . S
C3316 H3307 0.950 . S
C3316 C3315 1.398 . S
C3316 C3317 1.391 . S
C3317 H3305 0.950 . S
C3317 C3313 1.393 . S
C3317 C3316 1.391 . S
C3318 H3308 0.950 . S
C3318 C3319 1.386 . S
C3318 C3320 1.391 . S
C3319 C3318 1.386 . S
C3319 C3323 1.393 . S
C3320 H3309 0.950 . S
C3320 C3318 1.391 . S
C3320 C3321 1.400 . S
C3321 C3315 1.491 . S
C3321 C3320 1.400 . S
C3321 C3322 1.398 . S
C3322 H3310 0.950 . S
C3322 C3321 1.398 . S
C3322 C3323 1.391 . S
C3323 H3311 0.950 . S
C3323 C3319 1.393 . S
C3323 C3322 1.391 . S
H3324 C3332 0.950 . S
H3325 C3337 0.950 . S
H3326 C3334 0.950 . S
H3327 C3336 0.950 . S
H3328 C3338 0.950 . S
H3329 C3340 0.950 . S
H3330 C3342 0.950 . S
H3331 C3343 0.950 . S
C3332 H3324 0.950 . S
C3332 C3333 1.386 . S
C3332 C3334 1.391 . S
C3333 C3332 1.386 . S
C3333 C3337 1.393 . S
C3334 H3326 0.950 . S
C3334 C3332 1.391 . S
C3334 C3335 1.400 . S
C3335 C3334 1.400 . S
C3335 C3336 1.398 . S
C3335 C3341 1.491 . S
C3336 H3327 0.950 . S
C3336 C3335 1.398 . S
C3336 C3337 1.391 . S
C3337 H3325 0.950 . S
C3337 C3333 1.393 . S
C3337 C3336 1.391 . S
C3338 H3328 0.950 . S
C3338 C3339 1.386 . S
C3338 C3340 1.391 . S
C3339 C3338 1.386 . S
C3339 C3343 1.393 . S
C3340 H3329 0.950 . S
C3340 C3338 1.391 . S
C3340 C3341 1.400 . S
C3341 C3335 1.491 . S
C3341 C3340 1.400 . S
C3341 C3342 1.398 . S
C3342 H3330 0.950 . S
C3342 C3341 1.398 . S
C3342 C3343 1.391 . S
C3343 H3331 0.950 . S
C3343 C3339 1.393 . S
C3343 C3342 1.391 . S
H3344 C3352 0.950 . S
H3345 C3357 0.950 . S
H3346 C3354 0.950 . S
H3347 C3356 0.950 . S
H3348 C3358 0.950 . S
H3349 C3360 0.950 . S
H3350 C3362 0.950 . S
H3351 C3363 0.950 . S
C3352 H3344 0.950 . S
C3352 C3353 1.386 . S
C3352 C3354 1.391 . S
C3353 C3352 1.386 . S
C3353 C3357 1.393 . S
C3354 H3346 0.950 . S
C3354 C3352 1.391 . S
C3354 C3355 1.400 . S
C3355 C3354 1.400 . S
C3355 C3356 1.398 . S
C3355 C3361 1.491 . S
C3356 H3347 0.950 . S
C3356 C3355 1.398 . S
C3356 C3357 1.391 . S
C3357 H3345 0.950 . S
C3357 C3353 1.393 . S
C3357 C3356 1.391 . S
C3358 H3348 0.950 . S
C3358 C3359 1.386 . S
C3358 C3360 1.391 . S
C3359 C3358 1.386 . S
C3359 C3363 1.393 . S
C3360 H3349 0.950 . S
C3360 C3358 1.391 . S
C3360 C3361 1.400 . S
C3361 C3355 1.491 . S
C3361 C3360 1.400 . S
C3361 C3362 1.398 . S
C3362 H3350 0.950 . S
C3362 C3361 1.398 . S
C3362 C3363 1.391 . S
C3363 H3351 0.950 . S
C3363 C3359 1.393 . S
C3363 C3362 1.391 . S
H3364 C3372 0.950 . S
H3365 C3377 0.950 . S
H3366 C3374 0.950 . S
H3367 C3376 0.950 . S
H3368 C3378 0.950 . S
H3369 C3380 0.950 . S
H3370 C3382 0.950 . S
H3371 C3383 0.950 . S
C3372 H3364 0.950 . S
C3372 C3373 1.386 . S
C3372 C3374 1.391 . S
C3373 C3372 1.386 . S
C3373 C3377 1.393 . S
C3374 H3366 0.950 . S
C3374 C3372 1.391 . S
C3374 C3375 1.400 . S
C3375 C3374 1.400 . S
C3375 C3376 1.398 . S
C3375 C3381 1.491 . S
C3376 H3367 0.950 . S
C3376 C3375 1.398 . S
C3376 C3377 1.391 . S
C3377 H3365 0.950 . S
C3377 C3373 1.393 . S
C3377 C3376 1.391 . S
C3378 H3368 0.950 . S
C3378 C3379 1.386 . S
C3378 C3380 1.391 . S
C3379 C3378 1.386 . S
C3379 C3383 1.393 . S
C3380 H3369 0.950 . S
C3380 C3378 1.391 . S
C3380 C3381 1.400 . S
C3381 C3375 1.491 . S
C3381 C3380 1.400 . S
C3381 C3382 1.398 . S
C3382 H3370 0.950 . S
C3382 C3381 1.398 . S
C3382 C3383 1.391 . S
C3383 H3371 0.950 . S
C3383 C3379 1.393 . S
C3383 C3382 1.391 . S
H3384 C3392 0.950 . S
H3385 C3397 0.950 . S
H3386 C3394 0.950 . S
H3387 C3396 0.950 . S
H3388 C3398 0.950 . S
H3389 C3400 0.950 . S
H3390 C3402 0.950 . S
H3391 C3403 0.950 . S
C3392 H3384 0.950 . S
C3392 C3393 1.386 . S
C3392 C3394 1.391 . S
C3393 C3392 1.386 . S
C3393 C3397 1.393 . S
C3394 H3386 0.950 . S
C3394 C3392 1.391 . S
C3394 C3395 1.400 . S
C3395 C3394 1.400 . S
C3395 C3396 1.398 . S
C3395 C3401 1.491 . S
C3396 H3387 0.950 . S
C3396 C3395 1.398 . S
C3396 C3397 1.391 . S
C3397 H3385 0.950 . S
C3397 C3393 1.393 . S
C3397 C3396 1.391 . S
C3398 H3388 0.950 . S
C3398 C3399 1.386 . S
C3398 C3400 1.391 . S
C3399 C3398 1.386 . S
C3399 C3403 1.393 . S
C3400 H3389 0.950 . S
C3400 C3398 1.391 . S
C3400 C3401 1.400 . S
C3401 C3395 1.491 . S
C3401 C3400 1.400 . S
C3401 C3402 1.398 . S
C3402 H3390 0.950 . S
C3402 C3401 1.398 . S
C3402 C3403 1.391 . S
C3403 H3391 0.950 . S
C3403 C3399 1.393 . S
C3403 C3402 1.391 . S
H3404 C3412 0.950 . S
H3405 C3417 0.950 . S
H3406 C3414 0.950 . S
H3407 C3416 0.950 . S
H3408 C3418 0.950 . S
H3409 C3420 0.950 . S
H3410 C3422 0.950 . S
H3411 C3423 0.950 . S
C3412 H3404 0.950 . S
C3412 C3413 1.386 . S
C3412 C3414 1.391 . S
C3413 C3412 1.386 . S
C3413 C3417 1.393 . S
C3414 H3406 0.950 . S
C3414 C3412 1.391 . S
C3414 C3415 1.400 . S
C3415 C3414 1.400 . S
C3415 C3416 1.398 . S
C3415 C3421 1.491 . S
C3416 H3407 0.950 . S
C3416 C3415 1.398 . S
C3416 C3417 1.391 . S
C3417 H3405 0.950 . S
C3417 C3413 1.393 . S
C3417 C3416 1.391 . S
C3418 H3408 0.950 . S
C3418 C3419 1.386 . S
C3418 C3420 1.391 . S
C3419 C3418 1.386 . S
C3419 C3423 1.393 . S
C3420 H3409 0.950 . S
C3420 C3418 1.391 . S
C3420 C3421 1.400 . S
C3421 C3415 1.491 . S
C3421 C3420 1.400 . S
C3421 C3422 1.398 . S
C3422 H3410 0.950 . S
C3422 C3421 1.398 . S
C3422 C3423 1.391 . S
C3423 H3411 0.950 . S
C3423 C3419 1.393 . S
C3423 C3422 1.391 . S
H3424 C3432 0.950 . S
H3425 C3437 0.950 . S
H3426 C3434 0.950 . S
H3427 C3436 0.950 . S
H3428 C3438 0.950 . S
H3429 C3440 0.950 . S
H3430 C3442 0.950 . S
H3431 C3443 0.950 . S
C3432 H3424 0.950 . S
C3432 C3433 1.386 . S
C3432 C3434 1.391 . S
C3433 C3432 1.386 . S
C3433 C3437 1.393 . S
C3434 H3426 0.950 . S
C3434 C3432 1.391 . S
C3434 C3435 1.400 . S
C3435 C3434 1.400 . S
C3435 C3436 1.398 . S
C3435 C3441 1.491 . S
C3436 H3427 0.950 . S
C3436 C3435 1.398 . S
C3436 C3437 1.391 . S
C3437 H3425 0.950 . S
C3437 C3433 1.393 . S
C3437 C3436 1.391 . S
C3438 H3428 0.950 . S
C3438 C3439 1.386 . S
C3438 C3440 1.391 . S
C3439 C3438 1.386 . S
C3439 C3443 1.393 . S
C3440 H3429 0.950 . S
C3440 C3438 1.391 . S
C3440 C3441 1.400 . S
C3441 C3435 1.491 . S
C3441 C3440 1.400 . S
C3441 C3442 1.398 . S
C3442 H3430 0.950 . S
C3442 C3441 1.398 . S
C3442 C3443 1.391 . S
C3443 H3431 0.950 . S
C3443 C3439 1.393 . S
C3443 C3442 1.391 . S
H3444 C3452 0.950 . S
H3445 C3457 0.950 . S
H3446 C3454 0.950 . S
H3447 C3456 0.950 . S
H3448 C3458 0.950 . S
H3449 C3460 0.950 . S
H3450 C3462 0.950 . S
H3451 C3463 0.950 . S
C3452 H3444 0.950 . S
C3452 C3453 1.386 . S
C3452 C3454 1.391 . S
C3453 C3452 1.386 . S
C3453 C3457 1.393 . S
C3454 H3446 0.950 . S
C3454 C3452 1.391 . S
C3454 C3455 1.400 . S
C3455 C3454 1.400 . S
C3455 C3456 1.398 . S
C3455 C3461 1.491 . S
C3456 H3447 0.950 . S
C3456 C3455 1.398 . S
C3456 C3457 1.391 . S
C3457 H3445 0.950 . S
C3457 C3453 1.393 . S
C3457 C3456 1.391 . S
C3458 H3448 0.950 . S
C3458 C3459 1.386 . S
C3458 C3460 1.391 . S
C3459 C3458 1.386 . S
C3459 C3463 1.393 . S
C3460 H3449 0.950 . S
C3460 C3458 1.391 . S
C3460 C3461 1.400 . S
C3461 C3455 1.491 . S
C3461 C3460 1.400 . S
C3461 C3462 1.398 . S
C3462 H3450 0.950 . S
C3462 C3461 1.398 . S
C3462 C3463 1.391 . S
C3463 H3451 0.950 . S
C3463 C3459 1.393 . S
C3463 C3462 1.391 . S
H3464 C3472 0.950 . S
H3465 C3477 0.950 . S
H3466 C3474 0.950 . S
H3467 C3476 0.950 . S
H3468 C3478 0.950 . S
H3469 C3480 0.950 . S
H3470 C3482 0.950 . S
H3471 C3483 0.950 . S
C3472 H3464 0.950 . S
C3472 C3473 1.386 . S
C3472 C3474 1.391 . S
C3473 C3472 1.386 . S
C3473 C3477 1.393 . S
C3474 H3466 0.950 . S
C3474 C3472 1.391 . S
C3474 C3475 1.400 . S
C3475 C3474 1.400 . S
C3475 C3476 1.398 . S
C3475 C3481 1.491 . S
C3476 H3467 0.950 . S
C3476 C3475 1.398 . S
C3476 C3477 1.391 . S
C3477 H3465 0.950 . S
C3477 C3473 1.393 . S
C3477 C3476 1.391 . S
C3478 H3468 0.950 . S
C3478 C3479 1.386 . S
C3478 C3480 1.391 . S
C3479 C3478 1.386 . S
C3479 C3483 1.393 . S
C3480 H3469 0.950 . S
C3480 C3478 1.391 . S
C3480 C3481 1.400 . S
C3481 C3475 1.491 . S
C3481 C3480 1.400 . S
C3481 C3482 1.398 . S
C3482 H3470 0.950 . S
C3482 C3481 1.398 . S
C3482 C3483 1.391 . S
C3483 H3471 0.950 . S
C3483 C3479 1.393 . S
C3483 C3482 1.391 . S
H3484 C3492 0.950 . S
H3485 C3497 0.950 . S
H3486 C3494 0.950 . S
H3487 C3496 0.950 . S
H3488 C3498 0.950 . S
H3489 C3500 0.950 . S
H3490 C3502 0.950 . S
H3491 C3503 0.950 . S
C3492 H3484 0.950 . S
C3492 C3493 1.386 . S
C3492 C3494 1.391 . S
C3493 C3492 1.386 . S
C3493 C3497 1.393 . S
C3494 H3486 0.950 . S
C3494 C3492 1.391 . S
C3494 C3495 1.400 . S
C3495 C3494 1.400 . S
C3495 C3496 1.398 . S
C3495 C3501 1.491 . S
C3496 H3487 0.950 . S
C3496 C3495 1.398 . S
C3496 C3497 1.391 . S
C3497 H3485 0.950 . S
C3497 C3493 1.393 . S
C3497 C3496 1.391 . S
C3498 H3488 0.950 . S
C3498 C3499 1.386 . S
C3498 C3500 1.391 . S
C3499 C3498 1.386 . S
C3499 C3503 1.393 . S
C3500 H3489 0.950 . S
C3500 C3498 1.391 . S
C3500 C3501 1.400 . S
C3501 C3495 1.491 . S
C3501 C3500 1.400 . S
C3501 C3502 1.398 . S
C3502 H3490 0.950 . S
C3502 C3501 1.398 . S
C3502 C3503 1.391 . S
C3503 H3491 0.950 . S
C3503 C3499 1.393 . S
C3503 C3502 1.391 . S
H3504 C3512 0.950 . S
H3505 C3517 0.950 . S
H3506 C3514 0.950 . S
H3507 C3516 0.950 . S
H3508 C3518 0.950 . S
H3509 C3520 0.950 . S
H3510 C3522 0.950 . S
H3511 C3523 0.950 . S
C3512 H3504 0.950 . S
C3512 C3513 1.386 . S
C3512 C3514 1.391 . S
C3513 C3512 1.386 . S
C3513 C3517 1.393 . S
C3514 H3506 0.950 . S
C3514 C3512 1.391 . S
C3514 C3515 1.400 . S
C3515 C3514 1.400 . S
C3515 C3516 1.398 . S
C3515 C3521 1.491 . S
C3516 H3507 0.950 . S
C3516 C3515 1.398 . S
C3516 C3517 1.391 . S
C3517 H3505 0.950 . S
C3517 C3513 1.393 . S
C3517 C3516 1.391 . S
C3518 H3508 0.950 . S
C3518 C3519 1.386 . S
C3518 C3520 1.391 . S
C3519 C3518 1.386 . S
C3519 C3523 1.393 . S
C3520 H3509 0.950 . S
C3520 C3518 1.391 . S
C3520 C3521 1.400 . S
C3521 C3515 1.491 . S
C3521 C3520 1.400 . S
C3521 C3522 1.398 . S
C3522 H3510 0.950 . S
C3522 C3521 1.398 . S
C3522 C3523 1.391 . S
C3523 H3511 0.950 . S
C3523 C3519 1.393 . S
C3523 C3522 1.391 . S
H3524 C3532 0.950 . S
H3525 C3537 0.950 . S
H3526 C3534 0.950 . S
H3527 C3536 0.950 . S
H3528 C3538 0.950 . S
H3529 C3540 0.950 . S
H3530 C3542 0.950 . S
H3531 C3543 0.950 . S
C3532 H3524 0.950 . S
C3532 C3533 1.386 . S
C3532 C3534 1.391 . S
C3533 C3532 1.386 . S
C3533 C3537 1.393 . S
C3534 H3526 0.950 . S
C3534 C3532 1.391 . S
C3534 C3535 1.400 . S
C3535 C3534 1.400 . S
C3535 C3536 1.398 . S
C3535 C3541 1.491 . S
C3536 H3527 0.950 . S
C3536 C3535 1.398 . S
C3536 C3537 1.391 . S
C3537 H3525 0.950 . S
C3537 C3533 1.393 . S
C3537 C3536 1.391 . S
C3538 H3528 0.950 . S
C3538 C3539 1.386 . S
C3538 C3540 1.391 . S
C3539 C3538 1.386 . S
C3539 C3543 1.393 . S
C3540 H3529 0.950 . S
C3540 C3538 1.391 . S
C3540 C3541 1.400 . S
C3541 C3535 1.491 . S
C3541 C3540 1.400 . S
C3541 C3542 1.398 . S
C3542 H3530 0.950 . S
C3542 C3541 1.398 . S
C3542 C3543 1.391 . S
C3543 H3531 0.950 . S
C3543 C3539 1.393 . S
C3543 C3542 1.391 . S
H3544 C3552 0.950 . S
H3545 C3557 0.950 . S
H3546 C3554 0.950 . S
H3547 C3556 0.950 . S
H3548 C3558 0.950 . S
H3549 C3560 0.950 . S
H3550 C3562 0.950 . S
H3551 C3563 0.950 . S
C3552 H3544 0.950 . S
C3552 C3553 1.386 . S
C3552 C3554 1.391 . S
C3553 C3552 1.386 . S
C3553 C3557 1.393 . S
C3554 H3546 0.950 . S
C3554 C3552 1.391 . S
C3554 C3555 1.400 . S
C3555 C3554 1.400 . S
C3555 C3556 1.398 . S
C3555 C3561 1.491 . S
C3556 H3547 0.950 . S
C3556 C3555 1.398 . S
C3556 C3557 1.391 . S
C3557 H3545 0.950 . S
C3557 C3553 1.393 . S
C3557 C3556 1.391 . S
C3558 H3548 0.950 . S
C3558 C3559 1.386 . S
C3558 C3560 1.391 . S
C3559 C3558 1.386 . S
C3559 C3563 1.393 . S
C3560 H3549 0.950 . S
C3560 C3558 1.391 . S
C3560 C3561 1.400 . S
C3561 C3555 1.491 . S
C3561 C3560 1.400 . S
C3561 C3562 1.398 . S
C3562 H3550 0.950 . S
C3562 C3561 1.398 . S
C3562 C3563 1.391 . S
C3563 H3551 0.950 . S
C3563 C3559 1.393 . S
C3563 C3562 1.391 . S
H3564 C3572 0.950 . S
H3565 C3577 0.950 . S
H3566 C3574 0.950 . S
H3567 C3576 0.950 . S
H3568 C3578 0.950 . S
H3569 C3580 0.950 . S
H3570 C3582 0.950 . S
H3571 C3583 0.950 . S
C3572 H3564 0.950 . S
C3572 C3573 1.386 . S
C3572 C3574 1.391 . S
C3573 C3572 1.386 . S
C3573 C3577 1.393 . S
C3574 H3566 0.950 . S
C3574 C3572 1.391 . S
C3574 C3575 1.400 . S
C3575 C3574 1.400 . S
C3575 C3576 1.398 . S
C3575 C3581 1.491 . S
C3576 H3567 0.950 . S
C3576 C3575 1.398 . S
C3576 C3577 1.391 . S
C3577 H3565 0.950 . S
C3577 C3573 1.393 . S
C3577 C3576 1.391 . S
C3578 H3568 0.950 . S
C3578 C3579 1.386 . S
C3578 C3580 1.391 . S
C3579 C3578 1.386 . S
C3579 C3583 1.393 . S
C3580 H3569 0.950 . S
C3580 C3578 1.391 . S
C3580 C3581 1.400 . S
C3581 C3575 1.491 . S
C3581 C3580 1.400 . S
C3581 C3582 1.398 . S
C3582 H3570 0.950 . S
C3582 C3581 1.398 . S
C3582 C3583 1.391 . S
C3583 H3571 0.950 . S
C3583 C3579 1.393 . S
C3583 C3582 1.391 . S
H3584 C3592 0.950 . S
H3585 C3597 0.950 . S
H3586 C3594 0.950 . S
H3587 C3596 0.950 . S
H3588 C3598 0.950 . S
H3589 C3600 0.950 . S
H3590 C3602 0.950 . S
H3591 C3603 0.950 . S
C3592 H3584 0.950 . S
C3592 C3593 1.386 . S
C3592 C3594 1.391 . S
C3593 C3592 1.386 . S
C3593 C3597 1.393 . S
C3594 H3586 0.950 . S
C3594 C3592 1.391 . S
C3594 C3595 1.400 . S
C3595 C3594 1.400 . S
C3595 C3596 1.398 . S
C3595 C3601 1.491 . S
C3596 H3587 0.950 . S
C3596 C3595 1.398 . S
C3596 C3597 1.391 . S
C3597 H3585 0.950 . S
C3597 C3593 1.393 . S
C3597 C3596 1.391 . S
C3598 H3588 0.950 . S
C3598 C3599 1.386 . S
C3598 C3600 1.391 . S
C3599 C3598 1.386 . S
C3599 C3603 1.393 . S
C3600 H3589 0.950 . S
C3600 C3598 1.391 . S
C3600 C3601 1.400 . S
C3601 C3595 1.491 . S
C3601 C3600 1.400 . S
C3601 C3602 1.398 . S
C3602 H3590 0.950 . S
C3602 C3601 1.398 . S
C3602 C3603 1.391 . S
C3603 H3591 0.950 . S
C3603 C3599 1.393 . S
C3603 C3602 1.391 . S
H3604 C3612 0.950 . S
H3605 C3617 0.950 . S
H3606 C3614 0.950 . S
H3607 C3616 0.950 . S
H3608 C3618 0.950 . S
H3609 C3620 0.950 . S
H3610 C3622 0.950 . S
H3611 C3623 0.950 . S
C3612 H3604 0.950 . S
C3612 C3613 1.386 . S
C3612 C3614 1.391 . S
C3613 C3612 1.386 . S
C3613 C3617 1.393 . S
C3614 H3606 0.950 . S
C3614 C3612 1.391 . S
C3614 C3615 1.400 . S
C3615 C3614 1.400 . S
C3615 C3616 1.398 . S
C3615 C3621 1.491 . S
C3616 H3607 0.950 . S
C3616 C3615 1.398 . S
C3616 C3617 1.391 . S
C3617 H3605 0.950 . S
C3617 C3613 1.393 . S
C3617 C3616 1.391 . S
C3618 H3608 0.950 . S
C3618 C3619 1.386 . S
C3618 C3620 1.391 . S
C3619 C3618 1.386 . S
C3619 C3623 1.393 . S
C3620 H3609 0.950 . S
C3620 C3618 1.391 . S
C3620 C3621 1.400 . S
C3621 C3615 1.491 . S
C3621 C3620 1.400 . S
C3621 C3622 1.398 . S
C3622 H3610 0.950 . S
C3622 C3621 1.398 . S
C3622 C3623 1.391 . S
C3623 H3611 0.950 . S
C3623 C3619 1.393 . S
C3623 C3622 1.391 . S
H3624 C3632 0.950 . S
H3625 C3637 0.950 . S
H3626 C3634 0.950 . S
H3627 C3636 0.950 . S
H3628 C3638 0.950 . S
H3629 C3640 0.950 . S
H3630 C3642 0.950 . S
H3631 C3643 0.950 . S
C3632 H3624 0.950 . S
C3632 C3633 1.386 . S
C3632 C3634 1.391 . S
C3633 C3632 1.386 . S
C3633 C3637 1.393 . S
C3634 H3626 0.950 . S
C3634 C3632 1.391 . S
C3634 C3635 1.400 . S
C3635 C3634 1.400 . S
C3635 C3636 1.398 . S
C3635 C3641 1.491 . S
C3636 H3627 0.950 . S
C3636 C3635 1.398 . S
C3636 C3637 1.391 . S
C3637 H3625 0.950 . S
C3637 C3633 1.393 . S
C3637 C3636 1.391 . S
C3638 H3628 0.950 . S
C3638 C3639 1.386 . S
C3638 C3640 1.391 . S
C3639 C3638 1.386 . S
C3639 C3643 1.393 . S
C3640 H3629 0.950 . S
C3640 C3638 1.391 . S
C3640 C3641 1.400 . S
C3641 C3635 1.491 . S
C3641 C3640 1.400 . S
C3641 C3642 1.398 . S
C3642 H3630 0.950 . S
C3642 C3641 1.398 . S
C3642 C3643 1.391 . S
C3643 H3631 0.950 . S
C3643 C3639 1.393 . S
C3643 C3642 1.391 . S
H3644 C3652 0.950 . S
H3645 C3657 0.950 . S
H3646 C3654 0.950 . S
H3647 C3656 0.950 . S
H3648 C3658 0.950 . S
H3649 C3660 0.950 . S
H3650 C3662 0.950 . S
H3651 C3663 0.950 . S
C3652 H3644 0.950 . S
C3652 C3653 1.386 . S
C3652 C3654 1.391 . S
C3653 C3652 1.386 . S
C3653 C3657 1.393 . S
C3654 H3646 0.950 . S
C3654 C3652 1.391 . S
C3654 C3655 1.400 . S
C3655 C3654 1.400 . S
C3655 C3656 1.398 . S
C3655 C3661 1.491 . S
C3656 H3647 0.950 . S
C3656 C3655 1.398 . S
C3656 C3657 1.391 . S
C3657 H3645 0.950 . S
C3657 C3653 1.393 . S
C3657 C3656 1.391 . S
C3658 H3648 0.950 . S
C3658 C3659 1.386 . S
C3658 C3660 1.391 . S
C3659 C3658 1.386 . S
C3659 C3663 1.393 . S
C3660 H3649 0.950 . S
C3660 C3658 1.391 . S
C3660 C3661 1.400 . S
C3661 C3655 1.491 . S
C3661 C3660 1.400 . S
C3661 C3662 1.398 . S
C3662 H3650 0.950 . S
C3662 C3661 1.398 . S
C3662 C3663 1.391 . S
C3663 H3651 0.950 . S
C3663 C3659 1.393 . S
C3663 C3662 1.391 . S
H3664 C3672 0.950 . S
H3665 C3677 0.950 . S
H3666 C3674 0.950 . S
H3667 C3676 0.950 . S
H3668 C3678 0.950 . S
H3669 C3680 0.950 . S
H3670 C3682 0.950 . S
H3671 C3683 0.950 . S
C3672 H3664 0.950 . S
C3672 C3673 1.386 . S
C3672 C3674 1.391 . S
C3673 C3672 1.386 . S
C3673 C3677 1.393 . S
C3674 H3666 0.950 . S
C3674 C3672 1.391 . S
C3674 C3675 1.400 . S
C3675 C3674 1.400 . S
C3675 C3676 1.398 . S
C3675 C3681 1.491 . S
C3676 H3667 0.950 . S
C3676 C3675 1.398 . S
C3676 C3677 1.391 . S
C3677 H3665 0.950 . S
C3677 C3673 1.393 . S
C3677 C3676 1.391 . S
C3678 H3668 0.950 . S
C3678 C3679 1.386 . S
C3678 C3680 1.391 . S
C3679 C3678 1.386 . S
C3679 C3683 1.393 . S
C3680 H3669 0.950 . S
C3680 C3678 1.391 . S
C3680 C3681 1.400 . S
C3681 C3675 1.491 . S
C3681 C3680 1.400 . S
C3681 C3682 1.398 . S
C3682 H3670 0.950 . S
C3682 C3681 1.398 . S
C3682 C3683 1.391 . S
C3683 H3671 0.950 . S
C3683 C3679 1.393 . S
C3683 C3682 1.391 . S
H3684 C3692 0.950 . S
H3685 C3697 0.950 . S
H3686 C3694 0.950 . S
H3687 C3696 0.950 . S
H3688 C3698 0.950 . S
H3689 C3700 0.950 . S
H3690 C3702 0.950 . S
H3691 C3703 0.950 . S
C3692 H3684 0.950 . S
C3692 C3693 1.386 . S
C3692 C3694 1.391 . S
C3693 C3692 1.386 . S
C3693 C3697 1.393 . S
C3694 H3686 0.950 . S
C3694 C3692 1.391 . S
C3694 C3695 1.400 . S
C3695 C3694 1.400 . S
C3695 C3696 1.398 . S
C3695 C3701 1.491 . S
C3696 H3687 0.950 . S
C3696 C3695 1.398 . S
C3696 C3697 1.391 . S
C3697 H3685 0.950 . S
C3697 C3693 1.393 . S
C3697 C3696 1.391 . S
C3698 H3688 0.950 . S
C3698 C3699 1.386 . S
C3698 C3700 1.391 . S
C3699 C3698 1.386 . S
C3699 C3703 1.393 . S
C3700 H3689 0.950 . S
C3700 C3698 1.391 . S
C3700 C3701 1.400 . S
C3701 C3695 1.491 . S
C3701 C3700 1.400 . S
C3701 C3702 1.398 . S
C3702 H3690 0.950 . S
C3702 C3701 1.398 . S
C3702 C3703 1.391 . S
C3703 H3691 0.950 . S
C3703 C3699 1.393 . S
C3703 C3702 1.391 . S
H3704 C3712 0.950 . S
H3705 C3717 0.950 . S
H3706 C3714 0.950 . S
H3707 C3716 0.950 . S
H3708 C3718 0.950 . S
H3709 C3720 0.950 . S
H3710 C3722 0.950 . S
H3711 C3723 0.950 . S
C3712 H3704 0.950 . S
C3712 C3713 1.386 . S
C3712 C3714 1.391 . S
C3713 C3712 1.386 . S
C3713 C3717 1.393 . S
C3714 H3706 0.950 . S
C3714 C3712 1.391 . S
C3714 C3715 1.400 . S
C3715 C3714 1.400 . S
C3715 C3716 1.398 . S
C3715 C3721 1.491 . S
C3716 H3707 0.950 . S
C3716 C3715 1.398 . S
C3716 C3717 1.391 . S
C3717 H3705 0.950 . S
C3717 C3713 1.393 . S
C3717 C3716 1.391 . S
C3718 H3708 0.950 . S
C3718 C3719 1.386 . S
C3718 C3720 1.391 . S
C3719 C3718 1.386 . S
C3719 C3723 1.393 . S
C3720 H3709 0.950 . S
C3720 C3718 1.391 . S
C3720 C3721 1.400 . S
C3721 C3715 1.491 . S
C3721 C3720 1.400 . S
C3721 C3722 1.398 . S
C3722 H3710 0.950 . S
C3722 C3721 1.398 . S
C3722 C3723 1.391 . S
C3723 H3711 0.950 . S
C3723 C3719 1.393 . S
C3723 C3722 1.391 . S
H3724 C3732 0.950 . S
H3725 C3737 0.950 . S
H3726 C3734 0.950 . S
H3727 C3736 0.950 . S
H3728 C3738 0.950 . S
H3729 C3740 0.950 . S
H3730 C3742 0.950 . S
H3731 C3743 0.950 . S
C3732 H3724 0.950 . S
C3732 C3733 1.386 . S
C3732 C3734 1.391 . S
C3733 C3732 1.386 . S
C3733 C3737 1.393 . S
C3734 H3726 0.950 . S
C3734 C3732 1.391 . S
C3734 C3735 1.400 . S
C3735 C3734 1.400 . S
C3735 C3736 1.398 . S
C3735 C3741 1.491 . S
C3736 H3727 0.950 . S
C3736 C3735 1.398 . S
C3736 C3737 1.391 . S
C3737 H3725 0.950 . S
C3737 C3733 1.393 . S
C3737 C3736 1.391 . S
C3738 H3728 0.950 . S
C3738 C3739 1.386 . S
C3738 C3740 1.391 . S
C3739 C3738 1.386 . S
C3739 C3743 1.393 . S
C3740 H3729 0.950 . S
C3740 C3738 1.391 . S
C3740 C3741 1.400 . S
C3741 C3735 1.491 . S
C3741 C3740 1.400 . S
C3741 C3742 1.398 . S
C3742 H3730 0.950 . S
C3742 C3741 1.398 . S
C3742 C3743 1.391 . S
C3743 H3731 0.950 . S
C3743 C3739 1.393 . S
C3743 C3742 1.391 . S
H3744 C3752 0.950 . S
H3745 C3757 0.950 . S
H3746 C3754 0.950 . S
H3747 C3756 0.950 . S
H3748 C3758 0.950 . S
H3749 C3760 0.950 . S
H3750 C3762 0.950 . S
H3751 C3763 0.950 . S
C3752 H3744 0.950 . S
C3752 C3753 1.386 . S
C3752 C3754 1.391 . S
C3753 C3752 1.386 . S
C3753 C3757 1.393 . S
C3754 H3746 0.950 . S
C3754 C3752 1.391 . S
C3754 C3755 1.400 . S
C3755 C3754 1.400 . S
C3755 C3756 1.398 . S
C3755 C3761 1.491 . S
C3756 H3747 0.950 . S
C3756 C3755 1.398 . S
C3756 C3757 1.391 . S
C3757 H3745 0.950 . S
C3757 C3753 1.393 . S
C3757 C3756 1.391 . S
C3758 H3748 0.950 . S
C3758 C3759 1.386 . S
C3758 C3760 1.391 . S
C3759 C3758 1.386 . S
C3759 C3763 1.393 . S
C3760 H3749 0.950 . S
C3760 C3758 1.391 . S
C3760 C3761 1.400 . S
C3761 C3755 1.491 . S
C3761 C3760 1.400 . S
C3761 C3762 1.398 . S
C3762 H3750 0.950 . S
C3762 C3761 1.398 . S
C3762 C3763 1.391 . S
C3763 H3751 0.950 . S
C3763 C3759 1.393 . S
C3763 C3762 1.391 . S
H3764 C3772 0.950 . S
H3765 C3777 0.950 . S
H3766 C3774 0.950 . S
H3767 C3776 0.950 . S
H3768 C3778 0.950 . S
H3769 C3780 0.950 . S
H3770 C3782 0.950 . S
H3771 C3783 0.950 . S
C3772 H3764 0.950 . S
C3772 C3773 1.386 . S
C3772 C3774 1.391 . S
C3773 C3772 1.386 . S
C3773 C3777 1.393 . S
C3774 H3766 0.950 . S
C3774 C3772 1.391 . S
C3774 C3775 1.400 . S
C3775 C3774 1.400 . S
C3775 C3776 1.398 . S
C3775 C3781 1.491 . S
C3776 H3767 0.950 . S
C3776 C3775 1.398 . S
C3776 C3777 1.391 . S
C3777 H3765 0.950 . S
C3777 C3773 1.393 . S
C3777 C3776 1.391 . S
C3778 H3768 0.950 . S
C3778 C3779 1.386 . S
C3778 C3780 1.391 . S
C3779 C3778 1.386 . S
C3779 C3783 1.393 . S
C3780 H3769 0.950 . S
C3780 C3778 1.391 . S
C3780 C3781 1.400 . S
C3781 C3775 1.491 . S
C3781 C3780 1.400 . S
C3781 C3782 1.398 . S
C3782 H3770 0.950 . S
C3782 C3781 1.398 . S
C3782 C3783 1.391 . S
C3783 H3771 0.950 . S
C3783 C3779 1.393 . S
C3783 C3782 1.391 . S
H3784 C3792 0.950 . S
H3785 C3797 0.950 . S
H3786 C3794 0.950 . S
H3787 C3796 0.950 . S
H3788 C3798 0.950 . S
H3789 C3800 0.950 . S
H3790 C3802 0.950 . S
H3791 C3803 0.950 . S
C3792 H3784 0.950 . S
C3792 C3793 1.386 . S
C3792 C3794 1.391 . S
C3793 C3792 1.386 . S
C3793 C3797 1.393 . S
C3794 H3786 0.950 . S
C3794 C3792 1.391 . S
C3794 C3795 1.400 . S
C3795 C3794 1.400 . S
C3795 C3796 1.398 . S
C3795 C3801 1.491 . S
C3796 H3787 0.950 . S
C3796 C3795 1.398 . S
C3796 C3797 1.391 . S
C3797 H3785 0.950 . S
C3797 C3793 1.393 . S
C3797 C3796 1.391 . S
C3798 H3788 0.950 . S
C3798 C3799 1.386 . S
C3798 C3800 1.391 . S
C3799 C3798 1.386 . S
C3799 C3803 1.393 . S
C3800 H3789 0.950 . S
C3800 C3798 1.391 . S
C3800 C3801 1.400 . S
C3801 C3795 1.491 . S
C3801 C3800 1.400 . S
C3801 C3802 1.398 . S
C3802 H3790 0.950 . S
C3802 C3801 1.398 . S
C3802 C3803 1.391 . S
C3803 H3791 0.950 . S
C3803 C3799 1.393 . S
C3803 C3802 1.391 . S
H3804 C3812 0.950 . S
H3805 C3817 0.950 . S
H3806 C3814 0.950 . S
H3807 C3816 0.950 . S
H3808 C3818 0.950 . S
H3809 C3820 0.950 . S
H3810 C3822 0.950 . S
H3811 C3823 0.950 . S
C3812 H3804 0.950 . S
C3812 C3813 1.386 . S
C3812 C3814 1.391 . S
C3813 C3812 1.386 . S
C3813 C3817 1.393 . S
C3814 H3806 0.950 . S
C3814 C3812 1.391 . S
C3814 C3815 1.400 . S
C3815 C3814 1.400 . S
C3815 C3816 1.398 . S
C3815 C3821 1.491 . S
C3816 H3807 0.950 . S
C3816 C3815 1.398 . S
C3816 C3817 1.391 . S
C3817 H3805 0.950 . S
C3817 C3813 1.393 . S
C3817 C3816 1.391 . S
C3818 H3808 0.950 . S
C3818 C3819 1.386 . S
C3818 C3820 1.391 . S
C3819 C3818 1.386 . S
C3819 C3823 1.393 . S
C3820 H3809 0.950 . S
C3820 C3818 1.391 . S
C3820 C3821 1.400 . S
C3821 C3815 1.491 . S
C3821 C3820 1.400 . S
C3821 C3822 1.398 . S
C3822 H3810 0.950 . S
C3822 C3821 1.398 . S
C3822 C3823 1.391 . S
C3823 H3811 0.950 . S
C3823 C3819 1.393 . S
C3823 C3822 1.391 . S
H3824 C3832 0.950 . S
H3825 C3837 0.950 . S
H3826 C3834 0.950 . S
H3827 C3836 0.950 . S
H3828 C3838 0.950 . S
H3829 C3840 0.950 . S
H3830 C3842 0.950 . S
H3831 C3843 0.950 . S
C3832 H3824 0.950 . S
C3832 C3833 1.386 . S
C3832 C3834 1.391 . S
C3833 C3832 1.386 . S
C3833 C3837 1.393 . S
C3834 H3826 0.950 . S
C3834 C3832 1.391 . S
C3834 C3835 1.400 . S
C3835 C3834 1.400 . S
C3835 C3836 1.398 . S
C3835 C3841 1.491 . S
C3836 H3827 0.950 . S
C3836 C3835 1.398 . S
C3836 C3837 1.391 . S
C3837 H3825 0.950 . S
C3837 C3833 1.393 . S
C3837 C3836 1.391 . S
C3838 H3828 0.950 . S
C3838 C3839 1.386 . S
C3838 C3840 1.391 . S
C3839 C3838 1.386 . S
C3839 C3843 1.393 . S
C3840 H3829 0.950 . S
C3840 C3838 1.391 . S
C3840 C3841 1.400 . S
C3841 C3835 1.491 . S
C3841 C3840 1.400 . S
C3841 C3842 1.398 . S
C3842 H3830 0.950 . S
C3842 C3841 1.398 . S
C3842 C3843 1.391 . S
C3843 H3831 0.950 . S
C3843 C3839 1.393 . S
C3843 C3842 1.391 . S
H3844 C3852 0.950 . S
H3845 C3857 0.950 . S
H3846 C3854 0.950 . S
H3847 C3856 0.950 . S
H3848 C3858 0.950 . S
H3849 C3860 0.950 . S
H3850 C3862 0.950 . S
H3851 C3863 0.950 . S
C3852 H3844 0.950 . S
C3852 C3853 1.386 . S
C3852 C3854 1.391 . S
C3853 C3852 1.386 . S
C3853 C3857 1.393 . S
C3854 H3846 0.950 . S
C3854 C3852 1.391 . S
C3854 C3855 1.400 . S
C3855 C3854 1.400 . S
C3855 C3856 1.398 . S
C3855 C3861 1.491 . S
C3856 H3847 0.950 . S
C3856 C3855 1.398 . S
C3856 C3857 1.391 . S
C3857 H3845 0.950 . S
C3857 C3853 1.393 . S
C3857 C3856 1.391 . S
C3858 H3848 0.950 . S
C3858 C3859 1.386 . S
C3858 C3860 1.391 . S
C3859 C3858 1.386 . S
C3859 C3863 1.393 . S
C3860 H3849 0.950 . S
C3860 C3858 1.391 . S
C3860 C3861 1.400 . S
C3861 C3855 1.491 . S
C3861 C3860 1.400 . S
C3861 C3862 1.398 . S
C3862 H3850 0.950 . S
C3862 C3861 1.398 . S
C3862 C3863 1.391 . S
C3863 H3851 0.950 . S
C3863 C3859 1.393 . S
C3863 C3862 1.391 . S
H3864 C3872 0.950 . S
H3865 C3877 0.950 . S
H3866 C3874 0.950 . S
H3867 C3876 0.950 . S
H3868 C3878 0.950 . S
H3869 C3880 0.950 . S
H3870 C3882 0.950 . S
H3871 C3883 0.950 . S
C3872 H3864 0.950 . S
C3872 C3873 1.386 . S
C3872 C3874 1.391 . S
C3873 C3872 1.386 . S
C3873 C3877 1.393 . S
C3874 H3866 0.950 . S
C3874 C3872 1.391 . S
C3874 C3875 1.400 . S
C3875 C3874 1.400 . S
C3875 C3876 1.398 . S
C3875 C3881 1.491 . S
C3876 H3867 0.950 . S
C3876 C3875 1.398 . S
C3876 C3877 1.391 . S
C3877 H3865 0.950 . S
C3877 C3873 1.393 . S
C3877 C3876 1.391 . S
C3878 H3868 0.950 . S
C3878 C3879 1.386 . S
C3878 C3880 1.391 . S
C3879 C3878 1.386 . S
C3879 C3883 1.393 . S
C3880 H3869 0.950 . S
C3880 C3878 1.391 . S
C3880 C3881 1.400 . S
C3881 C3875 1.491 . S
C3881 C3880 1.400 . S
C3881 C3882 1.398 . S
C3882 H3870 0.950 . S
C3882 C3881 1.398 . S
C3882 C3883 1.391 . S
C3883 H3871 0.950 . S
C3883 C3879 1.393 . S
C3883 C3882 1.391 . S
H3884 C3892 0.950 . S
H3885 C3897 0.950 . S
H3886 C3894 0.950 . S
H3887 C3896 0.950 . S
H3888 C3898 0.950 . S
H3889 C3900 0.950 . S
H3890 C3902 0.950 . S
H3891 C3903 0.950 . S
C3892 H3884 0.950 . S
C3892 C3893 1.386 . S
C3892 C3894 1.391 . S
C3893 C3892 1.386 . S
C3893 C3897 1.393 . S
C3894 H3886 0.950 . S
C3894 C3892 1.391 . S
C3894 C3895 1.400 . S
C3895 C3894 1.400 . S
C3895 C3896 1.398 . S
C3895 C3901 1.491 . S
C3896 H3887 0.950 . S
C3896 C3895 1.398 . S
C3896 C3897 1.391 . S
C3897 H3885 0.950 . S
C3897 C3893 1.393 . S
C3897 C3896 1.391 . S
C3898 H3888 0.950 . S
C3898 C3899 1.386 . S
C3898 C3900 1.391 . S
C3899 C3898 1.386 . S
C3899 C3903 1.393 . S
C3900 H3889 0.950 . S
C3900 C3898 1.391 . S
C3900 C3901 1.400 . S
C3901 C3895 1.491 . S
C3901 C3900 1.400 . S
C3901 C3902 1.398 . S
C3902 H3890 0.950 . S
C3902 C3901 1.398 . S
C3902 C3903 1.391 . S
C3903 H3891 0.950 . S
C3903 C3899 1.393 . S
C3903 C3902 1.391 . S
H3904 C3912 0.950 . S
H3905 C3917 0.950 . S
H3906 C3914 0.950 . S
H3907 C3916 0.950 . S
H3908 C3918 0.950 . S
H3909 C3920 0.950 . S
H3910 C3922 0.950 . S
H3911 C3923 0.950 . S
C3912 H3904 0.950 . S
C3912 C3913 1.386 . S
C3912 C3914 1.391 . S
C3913 C3912 1.386 . S
C3913 C3917 1.393 . S
C3914 H3906 0.950 . S
C3914 C3912 1.391 . S
C3914 C3915 1.400 . S
C3915 C3914 1.400 . S
C3915 C3916 1.398 . S
C3915 C3921 1.491 . S
C3916 H3907 0.950 . S
C3916 C3915 1.398 . S
C3916 C3917 1.391 . S
C3917 H3905 0.950 . S
C3917 C3913 1.393 . S
C3917 C3916 1.391 . S
C3918 H3908 0.950 . S
C3918 C3919 1.386 . S
C3918 C3920 1.391 . S
C3919 C3918 1.386 . S
C3919 C3923 1.393 . S
C3920 H3909 0.950 . S
C3920 C3918 1.391 . S
C3920 C3921 1.400 . S
C3921 C3915 1.491 . S
C3921 C3920 1.400 . S
C3921 C3922 1.398 . S
C3922 H3910 0.950 . S
C3922 C3921 1.398 . S
C3922 C3923 1.391 . S
C3923 H3911 0.950 . S
C3923 C3919 1.393 . S
C3923 C3922 1.391 . S
H3924 C3932 0.950 . S
H3925 C3937 0.950 . S
H3926 C3934 0.950 . S
H3927 C3936 0.950 . S
H3928 C3938 0.950 . S
H3929 C3940 0.950 . S
H3930 C3942 0.950 . S
H3931 C3943 0.950 . S
C3932 H3924 0.950 . S
C3932 C3933 1.386 . S
C3932 C3934 1.391 . S
C3933 C3932 1.386 . S
C3933 C3937 1.393 . S
C3934 H3926 0.950 . S
C3934 C3932 1.391 . S
C3934 C3935 1.400 . S
C3935 C3934 1.400 . S
C3935 C3936 1.398 . S
C3935 C3941 1.491 . S
C3936 H3927 0.950 . S
C3936 C3935 1.398 . S
C3936 C3937 1.391 . S
C3937 H3925 0.950 . S
C3937 C3933 1.393 . S
C3937 C3936 1.391 . S
C3938 H3928 0.950 . S
C3938 C3939 1.386 . S
C3938 C3940 1.391 . S
C3939 C3938 1.386 . S
C3939 C3943 1.393 . S
C3940 H3929 0.950 . S
C3940 C3938 1.391 . S
C3940 C3941 1.400 . S
C3941 C3935 1.491 . S
C3941 C3940 1.400 . S
C3941 C3942 1.398 . S
C3942 H3930 0.950 . S
C3942 C3941 1.398 . S
C3942 C3943 1.391 . S
C3943 H3931 0.950 . S
C3943 C3939 1.393 . S
C3943 C3942 1.391 . S
H3944 C3952 0.950 . S
H3945 C3957 0.950 . S
H3946 C3954 0.950 . S
H3947 C3956 0.950 . S
H3948 C3958 0.950 . S
H3949 C3960 0.950 . S
H3950 C3962 0.950 . S
H3951 C3963 0.950 . S
C3952 H3944 0.950 . S
C3952 C3953 1.386 . S
C3952 C3954 1.391 . S
C3953 C3952 1.386 . S
C3953 C3957 1.393 . S
C3954 H3946 0.950 . S
C3954 C3952 1.391 . S
C3954 C3955 1.400 . S
C3955 C3954 1.400 . S
C3955 C3956 1.398 . S
C3955 C3961 1.491 . S
C3956 H3947 0.950 . S
C3956 C3955 1.398 . S
C3956 C3957 1.391 . S
C3957 H3945 0.950 . S
C3957 C3953 1.393 . S
C3957 C3956 1.391 . S
C3958 H3948 0.950 . S
C3958 C3959 1.386 . S
C3958 C3960 1.391 . S
C3959 C3958 1.386 . S
C3959 C3963 1.393 . S
C3960 H3949 0.950 . S
C3960 C3958 1.391 . S
C3960 C3961 1.400 . S
C3961 C3955 1.491 . S
C3961 C3960 1.400 . S
C3961 C3962 1.398 . S
C3962 H3950 0.950 . S
C3962 C3961 1.398 . S
C3962 C3963 1.391 . S
C3963 H3951 0.950 . S
C3963 C3959 1.393 . S
C3963 C3962 1.391 . S
H3964 C3972 0.950 . S
H3965 C3977 0.950 . S
H3966 C3974 0.950 . S
H3967 C3976 0.950 . S
H3968 C3978 0.950 . S
H3969 C3980 0.950 . S
H3970 C3982 0.950 . S
H3971 C3983 0.950 . S
C3972 H3964 0.950 . S
C3972 C3973 1.386 . S
C3972 C3974 1.391 . S
C3973 C3972 1.386 . S
C3973 C3977 1.393 . S
C3974 H3966 0.950 . S
C3974 C3972 1.391 . S
C3974 C3975 1.400 . S
C3975 C3974 1.400 . S
C3975 C3976 1.398 . S
C3975 C3981 1.491 . S
C3976 H3967 0.950 . S
C3976 C3975 1.398 . S
C3976 C3977 1.391 . S
C3977 H3965 0.950 . S
C3977 C3973 1.393 . S
C3977 C3976 1.391 . S
C3978 H3968 0.950 . S
C3978 C3979 1.386 . S
C3978 C3980 1.391 . S
C3979 C3978 1.386 . S
C3979 C3983 1.393 . S
C3980 H3969 0.950 . S
C3980 C3978 1.391 . S
C3980 C3981 1.400 . S
C3981 C3975 1.491 . S
C3981 C3980 1.400 . S
C3981 C3982 1.398 . S
C3982 H3970 0.950 . S
C3982 C3981 1.398 . S
C3982 C3983 1.391 . S
C3983 H3971 0.950 . S
C3983 C3979 1.393 . S
C3983 C3982 1.391 . S
H3984 C3992 0.950 . S
H3985 C3997 0.950 . S
H3986 C3994 0.950 . S
H3987 C3996 0.950 . S
H3988 C3998 0.950 . S
H3989 C4000 0.950 . S
H3990 C4002 0.950 . S
H3991 C4003 0.950 . S
C3992 H3984 0.950 . S
C3992 C3993 1.386 . S
C3992 C3994 1.391 . S
C3993 C3992 1.386 . S
C3993 C3997 1.393 . S
C3994 H3986 0.950 . S
C3994 C3992 1.391 . S
C3994 C3995 1.400 . S
C3995 C3994 1.400 . S
C3995 C3996 1.398 . S
C3995 C4001 1.491 . S
C3996 H3987 0.950 . S
C3996 C3995 1.398 . S
C3996 C3997 1.391 . S
C3997 H3985 0.950 . S
C3997 C3993 1.393 . S
C3997 C3996 1.391 . S
C3998 H3988 0.950 . S
C3998 C3999 1.386 . S
C3998 C4000 1.391 . S
C3999 C3998 1.386 . S
C3999 C4003 1.393 . S
C4000 H3989 0.950 . S
C4000 C3998 1.391 . S
C4000 C4001 1.400 . S
C4001 C3995 1.491 . S
C4001 C4000 1.400 . S
C4001 C4002 1.398 . S
C4002 H3990 0.950 . S
C4002 C4001 1.398 . S
C4002 C4003 1.391 . S
C4003 H3991 0.950 . S
C4003 C3999 1.393 . S
C4003 C4002 1.391 . S
H4004 C4012 0.950 . S
H4005 C4017 0.950 . S
H4006 C4014 0.950 . S
H4007 C4016 0.950 . S
H4008 C4018 0.950 . S
H4009 C4020 0.950 . S
H4010 C4022 0.950 . S
H4011 C4023 0.950 . S
C4012 H4004 0.950 . S
C4012 C4013 1.386 . S
C4012 C4014 1.391 . S
C4013 C4012 1.386 . S
C4013 C4017 1.393 . S
C4014 H4006 0.950 . S
C4014 C4012 1.391 . S
C4014 C4015 1.400 . S
C4015 C4014 1.400 . S
C4015 C4016 1.398 . S
C4015 C4021 1.491 . S
C4016 H4007 0.950 . S
C4016 C4015 1.398 . S
C4016 C4017 1.391 . S
C4017 H4005 0.950 . S
C4017 C4013 1.393 . S
C4017 C4016 1.391 . S
C4018 H4008 0.950 . S
C4018 C4019 1.386 . S
C4018 C4020 1.391 . S
C4019 C4018 1.386 . S
C4019 C4023 1.393 . S
C4020 H4009 0.950 . S
C4020 C4018 1.391 . S
C4020 C4021 1.400 . S
C4021 C4015 1.491 . S
C4021 C4020 1.400 . S
C4021 C4022 1.398 . S
C4022 H4010 0.950 . S
C4022 C4021 1.398 . S
C4022 C4023 1.391 . S
C4023 H4011 0.950 . S
C4023 C4019 1.393 . S
C4023 C4022 1.391 . S
H4024 C4032 0.950 . S
H4025 C4037 0.950 . S
H4026 C4034 0.950 . S
H4027 C4036 0.950 . S
H4028 C4038 0.950 . S
H4029 C4040 0.950 . S
H4030 C4042 0.950 . S
H4031 C4043 0.950 . S
C4032 H4024 0.950 . S
C4032 C4033 1.386 . S
C4032 C4034 1.391 . S
C4033 C4032 1.386 . S
C4033 C4037 1.393 . S
C4034 H4026 0.950 . S
C4034 C4032 1.391 . S
C4034 C4035 1.400 . S
C4035 C4034 1.400 . S
C4035 C4036 1.398 . S
C4035 C4041 1.491 . S
C4036 H4027 0.950 . S
C4036 C4035 1.398 . S
C4036 C4037 1.391 . S
C4037 H4025 0.950 . S
C4037 C4033 1.393 . S
C4037 C4036 1.391 . S
C4038 H4028 0.950 . S
C4038 C4039 1.386 . S
C4038 C4040 1.391 . S
C4039 C4038 1.386 . S
C4039 C4043 1.393 . S
C4040 H4029 0.950 . S
C4040 C4038 1.391 . S
C4040 C4041 1.400 . S
C4041 C4035 1.491 . S
C4041 C4040 1.400 . S
C4041 C4042 1.398 . S
C4042 H4030 0.950 . S
C4042 C4041 1.398 . S
C4042 C4043 1.391 . S
C4043 H4031 0.950 . S
C4043 C4039 1.393 . S
C4043 C4042 1.391 . S
H4044 C4052 0.950 . S
H4045 C4057 0.950 . S
H4046 C4054 0.950 . S
H4047 C4056 0.950 . S
H4048 C4058 0.950 . S
H4049 C4060 0.950 . S
H4050 C4062 0.950 . S
H4051 C4063 0.950 . S
C4052 H4044 0.950 . S
C4052 C4053 1.386 . S
C4052 C4054 1.391 . S
C4053 C4052 1.386 . S
C4053 C4057 1.393 . S
C4054 H4046 0.950 . S
C4054 C4052 1.391 . S
C4054 C4055 1.400 . S
C4055 C4054 1.400 . S
C4055 C4056 1.398 . S
C4055 C4061 1.491 . S
C4056 H4047 0.950 . S
C4056 C4055 1.398 . S
C4056 C4057 1.391 . S
C4057 H4045 0.950 . S
C4057 C4053 1.393 . S
C4057 C4056 1.391 . S
C4058 H4048 0.950 . S
C4058 C4059 1.386 . S
C4058 C4060 1.391 . S
C4059 C4058 1.386 . S
C4059 C4063 1.393 . S
C4060 H4049 0.950 . S
C4060 C4058 1.391 . S
C4060 C4061 1.400 . S
C4061 C4055 1.491 . S
C4061 C4060 1.400 . S
C4061 C4062 1.398 . S
C4062 H4050 0.950 . S
C4062 C4061 1.398 . S
C4062 C4063 1.391 . S
C4063 H4051 0.950 . S
C4063 C4059 1.393 . S
C4063 C4062 1.391 . S
H4064 C4072 0.950 . S
H4065 C4077 0.950 . S
H4066 C4074 0.950 . S
H4067 C4076 0.950 . S
H4068 C4078 0.950 . S
H4069 C4080 0.950 . S
H4070 C4082 0.950 . S
H4071 C4083 0.950 . S
C4072 H4064 0.950 . S
C4072 C4073 1.386 . S
C4072 C4074 1.391 . S
C4073 C4072 1.386 . S
C4073 C4077 1.393 . S
C4074 H4066 0.950 . S
C4074 C4072 1.391 . S
C4074 C4075 1.400 . S
C4075 C4074 1.400 . S
C4075 C4076 1.398 . S
C4075 C4081 1.491 . S
C4076 H4067 0.950 . S
C4076 C4075 1.398 . S
C4076 C4077 1.391 . S
C4077 H4065 0.950 . S
C4077 C4073 1.393 . S
C4077 C4076 1.391 . S
C4078 H4068 0.950 . S
C4078 C4079 1.386 . S
C4078 C4080 1.391 . S
C4079 C4078 1.386 . S
C4079 C4083 1.393 . S
C4080 H4069 0.950 . S
C4080 C4078 1.391 . S
C4080 C4081 1.400 . S
C4081 C4075 1.491 . S
C4081 C4080 1.400 . S
C4081 C4082 1.398 . S
C4082 H4070 0.950 . S
C4082 C4081 1.398 . S
C4082 C4083 1.391 . S
C4083 H4071 0.950 . S
C4083 C4079 1.393 . S
C4083 C4082 1.391 . S
H4084 C4092 0.950 . S
H4085 C4097 0.950 . S
H4086 C4094 0.950 . S
H4087 C4096 0.950 . S
H4088 C4098 0.950 . S
H4089 C4100 0.950 . S
H4090 C4102 0.950 . S
H4091 C4103 0.950 . S
C4092 H4084 0.950 . S
C4092 C4093 1.386 . S
C4092 C4094 1.391 . S
C4093 C4092 1.386 . S
C4093 C4097 1.393 . S
C4094 H4086 0.950 . S
C4094 C4092 1.391 . S
C4094 C4095 1.400 . S
C4095 C4094 1.400 . S
C4095 C4096 1.398 . S
C4095 C4101 1.491 . S
C4096 H4087 0.950 . S
C4096 C4095 1.398 . S
C4096 C4097 1.391 . S
C4097 H4085 0.950 . S
C4097 C4093 1.393 . S
C4097 C4096 1.391 . S
C4098 H4088 0.950 . S
C4098 C4099 1.386 . S
C4098 C4100 1.391 . S
C4099 C4098 1.386 . S
C4099 C4103 1.393 . S
C4100 H4089 0.950 . S
C4100 C4098 1.391 . S
C4100 C4101 1.400 . S
C4101 C4095 1.491 . S
C4101 C4100 1.400 . S
C4101 C4102 1.398 . S
C4102 H4090 0.950 . S
C4102 C4101 1.398 . S
C4102 C4103 1.391 . S
C4103 H4091 0.950 . S
C4103 C4099 1.393 . S
C4103 C4102 1.391 . S
H4104 C4112 0.950 . S
H4105 C4117 0.950 . S
H4106 C4114 0.950 . S
H4107 C4116 0.950 . S
H4108 C4118 0.950 . S
H4109 C4120 0.950 . S
H4110 C4122 0.950 . S
H4111 C4123 0.950 . S
C4112 H4104 0.950 . S
C4112 C4113 1.386 . S
C4112 C4114 1.391 . S
C4113 C4112 1.386 . S
C4113 C4117 1.393 . S
C4114 H4106 0.950 . S
C4114 C4112 1.391 . S
C4114 C4115 1.400 . S
C4115 C4114 1.400 . S
C4115 C4116 1.398 . S
C4115 C4121 1.491 . S
C4116 H4107 0.950 . S
C4116 C4115 1.398 . S
C4116 C4117 1.391 . S
C4117 H4105 0.950 . S
C4117 C4113 1.393 . S
C4117 C4116 1.391 . S
C4118 H4108 0.950 . S
C4118 C4119 1.386 . S
C4118 C4120 1.391 . S
C4119 C4118 1.386 . S
C4119 C4123 1.393 . S
C4120 H4109 0.950 . S
C4120 C4118 1.391 . S
C4120 C4121 1.400 . S
C4121 C4115 1.491 . S
C4121 C4120 1.400 . S
C4121 C4122 1.398 . S
C4122 H4110 0.950 . S
C4122 C4121 1.398 . S
C4122 C4123 1.391 . S
C4123 H4111 0.950 . S
C4123 C4119 1.393 . S
C4123 C4122 1.391 . S
H4124 C4132 0.950 . S
H4125 C4137 0.950 . S
H4126 C4134 0.950 . S
H4127 C4136 0.950 . S
H4128 C4138 0.950 . S
H4129 C4140 0.950 . S
H4130 C4142 0.950 . S
H4131 C4143 0.950 . S
C4132 H4124 0.950 . S
C4132 C4133 1.386 . S
C4132 C4134 1.391 . S
C4133 C4132 1.386 . S
C4133 C4137 1.393 . S
C4134 H4126 0.950 . S
C4134 C4132 1.391 . S
C4134 C4135 1.400 . S
C4135 C4134 1.400 . S
C4135 C4136 1.398 . S
C4135 C4141 1.491 . S
C4136 H4127 0.950 . S
C4136 C4135 1.398 . S
C4136 C4137 1.391 . S
C4137 H4125 0.950 . S
C4137 C4133 1.393 . S
C4137 C4136 1.391 . S
C4138 H4128 0.950 . S
C4138 C4139 1.386 . S
C4138 C4140 1.391 . S
C4139 C4138 1.386 . S
C4139 C4143 1.393 . S
C4140 H4129 0.950 . S
C4140 C4138 1.391 . S
C4140 C4141 1.400 . S
C4141 C4135 1.491 . S
C4141 C4140 1.400 . S
C4141 C4142 1.398 . S
C4142 H4130 0.950 . S
C4142 C4141 1.398 . S
C4142 C4143 1.391 . S
C4143 H4131 0.950 . S
C4143 C4139 1.393 . S
C4143 C4142 1.391 . S
H4144 C4152 0.950 . S
H4145 C4157 0.950 . S
H4146 C4154 0.950 . S
H4147 C4156 0.950 . S
H4148 C4158 0.950 . S
H4149 C4160 0.950 . S
H4150 C4162 0.950 . S
H4151 C4163 0.950 . S
C4152 H4144 0.950 . S
C4152 C4153 1.386 . S
C4152 C4154 1.391 . S
C4153 C4152 1.386 . S
C4153 C4157 1.393 . S
C4154 H4146 0.950 . S
C4154 C4152 1.391 . S
C4154 C4155 1.400 . S
C4155 C4154 1.400 . S
C4155 C4156 1.398 . S
C4155 C4161 1.491 . S
C4156 H4147 0.950 . S
C4156 C4155 1.398 . S
C4156 C4157 1.391 . S
C4157 H4145 0.950 . S
C4157 C4153 1.393 . S
C4157 C4156 1.391 . S
C4158 H4148 0.950 . S
C4158 C4159 1.386 . S
C4158 C4160 1.391 . S
C4159 C4158 1.386 . S
C4159 C4163 1.393 . S
C4160 H4149 0.950 . S
C4160 C4158 1.391 . S
C4160 C4161 1.400 . S
C4161 C4155 1.491 . S
C4161 C4160 1.400 . S
C4161 C4162 1.398 . S
C4162 H4150 0.950 . S
C4162 C4161 1.398 . S
C4162 C4163 1.391 . S
C4163 H4151 0.950 . S
C4163 C4159 1.393 . S
C4163 C4162 1.391 . S
H4164 C4172 0.950 . S
H4165 C4177 0.950 . S
H4166 C4174 0.950 . S
H4167 C4176 0.950 . S
H4168 C4178 0.950 . S
H4169 C4180 0.950 . S
H4170 C4182 0.950 . S
H4171 C4183 0.950 . S
C4172 H4164 0.950 . S
C4172 C4173 1.386 . S
C4172 C4174 1.391 . S
C4173 C4172 1.386 . S
C4173 C4177 1.393 . S
C4174 H4166 0.950 . S
C4174 C4172 1.391 . S
C4174 C4175 1.400 . S
C4175 C4174 1.400 . S
C4175 C4176 1.398 . S
C4175 C4181 1.491 . S
C4176 H4167 0.950 . S
C4176 C4175 1.398 . S
C4176 C4177 1.391 . S
C4177 H4165 0.950 . S
C4177 C4173 1.393 . S
C4177 C4176 1.391 . S
C4178 H4168 0.950 . S
C4178 C4179 1.386 . S
C4178 C4180 1.391 . S
C4179 C4178 1.386 . S
C4179 C4183 1.393 . S
C4180 H4169 0.950 . S
C4180 C4178 1.391 . S
C4180 C4181 1.400 . S
C4181 C4175 1.491 . S
C4181 C4180 1.400 . S
C4181 C4182 1.398 . S
C4182 H4170 0.950 . S
C4182 C4181 1.398 . S
C4182 C4183 1.391 . S
C4183 H4171 0.950 . S
C4183 C4179 1.393 . S
C4183 C4182 1.391 . S
H4184 C4192 0.950 . S
H4185 C4197 0.950 . S
H4186 C4194 0.950 . S
H4187 C4196 0.950 . S
H4188 C4198 0.950 . S
H4189 C4200 0.950 . S
H4190 C4202 0.950 . S
H4191 C4203 0.950 . S
C4192 H4184 0.950 . S
C4192 C4193 1.386 . S
C4192 C4194 1.391 . S
C4193 C4192 1.386 . S
C4193 C4197 1.393 . S
C4194 H4186 0.950 . S
C4194 C4192 1.391 . S
C4194 C4195 1.400 . S
C4195 C4194 1.400 . S
C4195 C4196 1.398 . S
C4195 C4201 1.491 . S
C4196 H4187 0.950 . S
C4196 C4195 1.398 . S
C4196 C4197 1.391 . S
C4197 H4185 0.950 . S
C4197 C4193 1.393 . S
C4197 C4196 1.391 . S
C4198 H4188 0.950 . S
C4198 C4199 1.386 . S
C4198 C4200 1.391 . S
C4199 C4198 1.386 . S
C4199 C4203 1.393 . S
C4200 H4189 0.950 . S
C4200 C4198 1.391 . S
C4200 C4201 1.400 . S
C4201 C4195 1.491 . S
C4201 C4200 1.400 . S
C4201 C4202 1.398 . S
C4202 H4190 0.950 . S
C4202 C4201 1.398 . S
C4202 C4203 1.391 . S
C4203 H4191 0.950 . S
C4203 C4199 1.393 . S
C4203 C4202 1.391 . S
H4204 C4212 0.950 . S
H4205 C4217 0.950 . S
H4206 C4214 0.950 . S
H4207 C4216 0.950 . S
H4208 C4218 0.950 . S
H4209 C4220 0.950 . S
H4210 C4222 0.950 . S
H4211 C4223 0.950 . S
C4212 H4204 0.950 . S
C4212 C4213 1.386 . S
C4212 C4214 1.391 . S
C4213 C4212 1.386 . S
C4213 C4217 1.393 . S
C4214 H4206 0.950 . S
C4214 C4212 1.391 . S
C4214 C4215 1.400 . S
C4215 C4214 1.400 . S
C4215 C4216 1.398 . S
C4215 C4221 1.491 . S
C4216 H4207 0.950 . S
C4216 C4215 1.398 . S
C4216 C4217 1.391 . S
C4217 H4205 0.950 . S
C4217 C4213 1.393 . S
C4217 C4216 1.391 . S
C4218 H4208 0.950 . S
C4218 C4219 1.386 . S
C4218 C4220 1.391 . S
C4219 C4218 1.386 . S
C4219 C4223 1.393 . S
C4220 H4209 0.950 . S
C4220 C4218 1.391 . S
C4220 C4221 1.400 . S
C4221 C4215 1.491 . S
C4221 C4220 1.400 . S
C4221 C4222 1.398 . S
C4222 H4210 0.950 . S
C4222 C4221 1.398 . S
C4222 C4223 1.391 . S
C4223 H4211 0.950 . S
C4223 C4219 1.393 . S
C4223 C4222 1.391 . S
H4224 C4232 0.950 . S
H4225 C4237 0.950 . S
H4226 C4234 0.950 . S
H4227 C4236 0.950 . S
H4228 C4238 0.950 . S
H4229 C4240 0.950 . S
H4230 C4242 0.950 . S
H4231 C4243 0.950 . S
C4232 H4224 0.950 . S
C4232 C4233 1.386 . S
C4232 C4234 1.391 . S
C4233 C4232 1.386 . S
C4233 C4237 1.393 . S
C4234 H4226 0.950 . S
C4234 C4232 1.391 . S
C4234 C4235 1.400 . S
C4235 C4234 1.400 . S
C4235 C4236 1.398 . S
C4235 C4241 1.491 . S
C4236 H4227 0.950 . S
C4236 C4235 1.398 . S
C4236 C4237 1.391 . S
C4237 H4225 0.950 . S
C4237 C4233 1.393 . S
C4237 C4236 1.391 . S
C4238 H4228 0.950 . S
C4238 C4239 1.386 . S
C4238 C4240 1.391 . S
C4239 C4238 1.386 . S
C4239 C4243 1.393 . S
C4240 H4229 0.950 . S
C4240 C4238 1.391 . S
C4240 C4241 1.400 . S
C4241 C4235 1.491 . S
C4241 C4240 1.400 . S
C4241 C4242 1.398 . S
C4242 H4230 0.950 . S
C4242 C4241 1.398 . S
C4242 C4243 1.391 . S
C4243 H4231 0.950 . S
C4243 C4239 1.393 . S
C4243 C4242 1.391 . S
H4244 C4252 0.950 . S
H4245 C4257 0.950 . S
H4246 C4254 0.950 . S
H4247 C4256 0.950 . S
H4248 C4258 0.950 . S
H4249 C4260 0.950 . S
H4250 C4262 0.950 . S
H4251 C4263 0.950 . S
C4252 H4244 0.950 . S
C4252 C4253 1.386 . S
C4252 C4254 1.391 . S
C4253 C4252 1.386 . S
C4253 C4257 1.393 . S
C4254 H4246 0.950 . S
C4254 C4252 1.391 . S
C4254 C4255 1.400 . S
C4255 C4254 1.400 . S
C4255 C4256 1.398 . S
C4255 C4261 1.491 . S
C4256 H4247 0.950 . S
C4256 C4255 1.398 . S
C4256 C4257 1.391 . S
C4257 H4245 0.950 . S
C4257 C4253 1.393 . S
C4257 C4256 1.391 . S
C4258 H4248 0.950 . S
C4258 C4259 1.386 . S
C4258 C4260 1.391 . S
C4259 C4258 1.386 . S
C4259 C4263 1.393 . S
C4260 H4249 0.950 . S
C4260 C4258 1.391 . S
C4260 C4261 1.400 . S
C4261 C4255 1.491 . S
C4261 C4260 1.400 . S
C4261 C4262 1.398 . S
C4262 H4250 0.950 . S
C4262 C4261 1.398 . S
C4262 C4263 1.391 . S
C4263 H4251 0.950 . S
C4263 C4259 1.393 . S
C4263 C4262 1.391 . S
H4264 C4272 0.950 . S
H4265 C4277 0.950 . S
H4266 C4274 0.950 . S
H4267 C4276 0.950 . S
H4268 C4278 0.950 . S
H4269 C4280 0.950 . S
H4270 C4282 0.950 . S
H4271 C4283 0.950 . S
C4272 H4264 0.950 . S
C4272 C4273 1.386 . S
C4272 C4274 1.391 . S
C4273 C4272 1.386 . S
C4273 C4277 1.393 . S
C4274 H4266 0.950 . S
C4274 C4272 1.391 . S
C4274 C4275 1.400 . S
C4275 C4274 1.400 . S
C4275 C4276 1.398 . S
C4275 C4281 1.491 . S
C4276 H4267 0.950 . S
C4276 C4275 1.398 . S
C4276 C4277 1.391 . S
C4277 H4265 0.950 . S
C4277 C4273 1.393 . S
C4277 C4276 1.391 . S
C4278 H4268 0.950 . S
C4278 C4279 1.386 . S
C4278 C4280 1.391 . S
C4279 C4278 1.386 . S
C4279 C4283 1.393 . S
C4280 H4269 0.950 . S
C4280 C4278 1.391 . S
C4280 C4281 1.400 . S
C4281 C4275 1.491 . S
C4281 C4280 1.400 . S
C4281 C4282 1.398 . S
C4282 H4270 0.950 . S
C4282 C4281 1.398 . S
C4282 C4283 1.391 . S
C4283 H4271 0.950 . S
C4283 C4279 1.393 . S
C4283 C4282 1.391 . S
H4284 C4292 0.950 . S
H4285 C4297 0.950 . S
H4286 C4294 0.950 . S
H4287 C4296 0.950 . S
H4288 C4298 0.950 . S
H4289 C4300 0.950 . S
H4290 C4302 0.950 . S
H4291 C4303 0.950 . S
C4292 H4284 0.950 . S
C4292 C4293 1.386 . S
C4292 C4294 1.391 . S
C4293 C4292 1.386 . S
C4293 C4297 1.393 . S
C4294 H4286 0.950 . S
C4294 C4292 1.391 . S
C4294 C4295 1.400 . S
C4295 C4294 1.400 . S
C4295 C4296 1.398 . S
C4295 C4301 1.491 . S
C4296 H4287 0.950 . S
C4296 C4295 1.398 . S
C4296 C4297 1.391 . S
C4297 H4285 0.950 . S
C4297 C4293 1.393 . S
C4297 C4296 1.391 . S
C4298 H4288 0.950 . S
C4298 C4299 1.386 . S
C4298 C4300 1.391 . S
C4299 C4298 1.386 . S
C4299 C4303 1.393 . S
C4300 H4289 0.950 . S
C4300 C4298 1.391 . S
C4300 C4301 1.400 . S
C4301 C4295 1.491 . S
C4301 C4300 1.400 . S
C4301 C4302 1.398 . S
C4302 H4290 0.950 . S
C4302 C4301 1.398 . S
C4302 C4303 1.391 . S
C4303 H4291 0.950 . S
C4303 C4299 1.393 . S
C4303 C4302 1.391 . S
H4304 C4312 0.950 . S
H4305 C4317 0.950 . S
H4306 C4314 0.950 . S
H4307 C4316 0.950 . S
H4308 C4318 0.950 . S
H4309 C4320 0.950 . S
H4310 C4322 0.950 . S
H4311 C4323 0.950 . S
C4312 H4304 0.950 . S
C4312 C4313 1.386 . S
C4312 C4314 1.391 . S
C4313 C4312 1.386 . S
C4313 C4317 1.393 . S
C4314 H4306 0.950 . S
C4314 C4312 1.391 . S
C4314 C4315 1.400 . S
C4315 C4314 1.400 . S
C4315 C4316 1.398 . S
C4315 C4321 1.491 . S
C4316 H4307 0.950 . S
C4316 C4315 1.398 . S
C4316 C4317 1.391 . S
C4317 H4305 0.950 . S
C4317 C4313 1.393 . S
C4317 C4316 1.391 . S
C4318 H4308 0.950 . S
C4318 C4319 1.386 . S
C4318 C4320 1.391 . S
C4319 C4318 1.386 . S
C4319 C4323 1.393 . S
C4320 H4309 0.950 . S
C4320 C4318 1.391 . S
C4320 C4321 1.400 . S
C4321 C4315 1.491 . S
C4321 C4320 1.400 . S
C4321 C4322 1.398 . S
C4322 H4310 0.950 . S
C4322 C4321 1.398 . S
C4322 C4323 1.391 . S
C4323 H4311 0.950 . S
C4323 C4319 1.393 . S
C4323 C4322 1.391 . S
H4324 C4332 0.950 . S
H4325 C4337 0.950 . S
H4326 C4334 0.950 . S
H4327 C4336 0.950 . S
H4328 C4338 0.950 . S
H4329 C4340 0.950 . S
H4330 C4342 0.950 . S
H4331 C4343 0.950 . S
C4332 H4324 0.950 . S
C4332 C4333 1.386 . S
C4332 C4334 1.391 . S
C4333 C4332 1.386 . S
C4333 C4337 1.393 . S
C4334 H4326 0.950 . S
C4334 C4332 1.391 . S
C4334 C4335 1.400 . S
C4335 C4334 1.400 . S
C4335 C4336 1.398 . S
C4335 C4341 1.491 . S
C4336 H4327 0.950 . S
C4336 C4335 1.398 . S
C4336 C4337 1.391 . S
C4337 H4325 0.950 . S
C4337 C4333 1.393 . S
C4337 C4336 1.391 . S
C4338 H4328 0.950 . S
C4338 C4339 1.386 . S
C4338 C4340 1.391 . S
C4339 C4338 1.386 . S
C4339 C4343 1.393 . S
C4340 H4329 0.950 . S
C4340 C4338 1.391 . S
C4340 C4341 1.400 . S
C4341 C4335 1.491 . S
C4341 C4340 1.400 . S
C4341 C4342 1.398 . S
C4342 H4330 0.950 . S
C4342 C4341 1.398 . S
C4342 C4343 1.391 . S
C4343 H4331 0.950 . S
C4343 C4339 1.393 . S
C4343 C4342 1.391 . S
H4344 C4352 0.950 . S
H4345 C4357 0.950 . S
H4346 C4354 0.950 . S
H4347 C4356 0.950 . S
H4348 C4358 0.950 . S
H4349 C4360 0.950 . S
H4350 C4362 0.950 . S
H4351 C4363 0.950 . S
C4352 H4344 0.950 . S
C4352 C4353 1.386 . S
C4352 C4354 1.391 . S
C4353 C4352 1.386 . S
C4353 C4357 1.393 . S
C4354 H4346 0.950 . S
C4354 C4352 1.391 . S
C4354 C4355 1.400 . S
C4355 C4354 1.400 . S
C4355 C4356 1.398 . S
C4355 C4361 1.491 . S
C4356 H4347 0.950 . S
C4356 C4355 1.398 . S
C4356 C4357 1.391 . S
C4357 H4345 0.950 . S
C4357 C4353 1.393 . S
C4357 C4356 1.391 . S
C4358 H4348 0.950 . S
C4358 C4359 1.386 . S
C4358 C4360 1.391 . S
C4359 C4358 1.386 . S
C4359 C4363 1.393 . S
C4360 H4349 0.950 . S
C4360 C4358 1.391 . S
C4360 C4361 1.400 . S
C4361 C4355 1.491 . S
C4361 C4360 1.400 . S
C4361 C4362 1.398 . S
C4362 H4350 0.950 . S
C4362 C4361 1.398 . S
C4362 C4363 1.391 . S
C4363 H4351 0.950 . S
C4363 C4359 1.393 . S
C4363 C4362 1.391 . S
H4364 C4372 0.950 . S
H4365 C4377 0.950 . S
H4366 C4374 0.950 . S
H4367 C4376 0.950 . S
H4368 C4378 0.950 . S
H4369 C4380 0.950 . S
H4370 C4382 0.950 . S
H4371 C4383 0.950 . S
C4372 H4364 0.950 . S
C4372 C4373 1.386 . S
C4372 C4374 1.391 . S
C4373 C4372 1.386 . S
C4373 C4377 1.393 . S
C4374 H4366 0.950 . S
C4374 C4372 1.391 . S
C4374 C4375 1.400 . S
C4375 C4374 1.400 . S
C4375 C4376 1.398 . S
C4375 C4381 1.491 . S
C4376 H4367 0.950 . S
C4376 C4375 1.398 . S
C4376 C4377 1.391 . S
C4377 H4365 0.950 . S
C4377 C4373 1.393 . S
C4377 C4376 1.391 . S
C4378 H4368 0.950 . S
C4378 C4379 1.386 . S
C4378 C4380 1.391 . S
C4379 C4378 1.386 . S
C4379 C4383 1.393 . S
C4380 H4369 0.950 . S
C4380 C4378 1.391 . S
C4380 C4381 1.400 . S
C4381 C4375 1.491 . S
C4381 C4380 1.400 . S
C4381 C4382 1.398 . S
C4382 H4370 0.950 . S
C4382 C4381 1.398 . S
C4382 C4383 1.391 . S
C4383 H4371 0.950 . S
C4383 C4379 1.393 . S
C4383 C4382 1.391 . S
H4384 C4392 0.950 . S
H4385 C4397 0.950 . S
H4386 C4394 0.950 . S
H4387 C4396 0.950 . S
H4388 C4398 0.950 . S
H4389 C4400 0.950 . S
H4390 C4402 0.950 . S
H4391 C4403 0.950 . S
C4392 H4384 0.950 . S
C4392 C4393 1.386 . S
C4392 C4394 1.391 . S
C4393 C4392 1.386 . S
C4393 C4397 1.393 . S
C4394 H4386 0.950 . S
C4394 C4392 1.391 . S
C4394 C4395 1.400 . S
C4395 C4394 1.400 . S
C4395 C4396 1.398 . S
C4395 C4401 1.491 . S
C4396 H4387 0.950 . S
C4396 C4395 1.398 . S
C4396 C4397 1.391 . S
C4397 H4385 0.950 . S
C4397 C4393 1.393 . S
C4397 C4396 1.391 . S
C4398 H4388 0.950 . S
C4398 C4399 1.386 . S
C4398 C4400 1.391 . S
C4399 C4398 1.386 . S
C4399 C4403 1.393 . S
C4400 H4389 0.950 . S
C4400 C4398 1.391 . S
C4400 C4401 1.400 . S
C4401 C4395 1.491 . S
C4401 C4400 1.400 . S
C4401 C4402 1.398 . S
C4402 H4390 0.950 . S
C4402 C4401 1.398 . S
C4402 C4403 1.391 . S
C4403 H4391 0.950 . S
C4403 C4399 1.393 . S
C4403 C4402 1.391 . S
H4404 C4412 0.950 . S
H4405 C4417 0.950 . S
H4406 C4414 0.950 . S
H4407 C4416 0.950 . S
H4408 C4418 0.950 . S
H4409 C4420 0.950 . S
H4410 C4422 0.950 . S
H4411 C4423 0.950 . S
C4412 H4404 0.950 . S
C4412 C4413 1.386 . S
C4412 C4414 1.391 . S
C4413 C4412 1.386 . S
C4413 C4417 1.393 . S
C4414 H4406 0.950 . S
C4414 C4412 1.391 . S
C4414 C4415 1.400 . S
C4415 C4414 1.400 . S
C4415 C4416 1.398 . S
C4415 C4421 1.491 . S
C4416 H4407 0.950 . S
C4416 C4415 1.398 . S
C4416 C4417 1.391 . S
C4417 H4405 0.950 . S
C4417 C4413 1.393 . S
C4417 C4416 1.391 . S
C4418 H4408 0.950 . S
C4418 C4419 1.386 . S
C4418 C4420 1.391 . S
C4419 C4418 1.386 . S
C4419 C4423 1.393 . S
C4420 H4409 0.950 . S
C4420 C4418 1.391 . S
C4420 C4421 1.400 . S
C4421 C4415 1.491 . S
C4421 C4420 1.400 . S
C4421 C4422 1.398 . S
C4422 H4410 0.950 . S
C4422 C4421 1.398 . S
C4422 C4423 1.391 . S
C4423 H4411 0.950 . S
C4423 C4419 1.393 . S
C4423 C4422 1.391 . S
H4424 C4432 0.950 . S
H4425 C4437 0.950 . S
H4426 C4434 0.950 . S
H4427 C4436 0.950 . S
H4428 C4438 0.950 . S
H4429 C4440 0.950 . S
H4430 C4442 0.950 . S
H4431 C4443 0.950 . S
C4432 H4424 0.950 . S
C4432 C4433 1.386 . S
C4432 C4434 1.391 . S
C4433 C4432 1.386 . S
C4433 C4437 1.393 . S
C4434 H4426 0.950 . S
C4434 C4432 1.391 . S
C4434 C4435 1.400 . S
C4435 C4434 1.400 . S
C4435 C4436 1.398 . S
C4435 C4441 1.491 . S
C4436 H4427 0.950 . S
C4436 C4435 1.398 . S
C4436 C4437 1.391 . S
C4437 H4425 0.950 . S
C4437 C4433 1.393 . S
C4437 C4436 1.391 . S
C4438 H4428 0.950 . S
C4438 C4439 1.386 . S
C4438 C4440 1.391 . S
C4439 C4438 1.386 . S
C4439 C4443 1.393 . S
C4440 H4429 0.950 . S
C4440 C4438 1.391 . S
C4440 C4441 1.400 . S
C4441 C4435 1.491 . S
C4441 C4440 1.400 . S
C4441 C4442 1.398 . S
C4442 H4430 0.950 . S
C4442 C4441 1.398 . S
C4442 C4443 1.391 . S
C4443 H4431 0.950 . S
C4443 C4439 1.393 . S
C4443 C4442 1.391 . S
H4444 C4452 0.950 . S
H4445 C4457 0.950 . S
H4446 C4454 0.950 . S
H4447 C4456 0.950 . S
H4448 C4458 0.950 . S
H4449 C4460 0.950 . S
H4450 C4462 0.950 . S
H4451 C4463 0.950 . S
C4452 H4444 0.950 . S
C4452 C4453 1.386 . S
C4452 C4454 1.391 . S
C4453 C4452 1.386 . S
C4453 C4457 1.393 . S
C4454 H4446 0.950 . S
C4454 C4452 1.391 . S
C4454 C4455 1.400 . S
C4455 C4454 1.400 . S
C4455 C4456 1.398 . S
C4455 C4461 1.491 . S
C4456 H4447 0.950 . S
C4456 C4455 1.398 . S
C4456 C4457 1.391 . S
C4457 H4445 0.950 . S
C4457 C4453 1.393 . S
C4457 C4456 1.391 . S
C4458 H4448 0.950 . S
C4458 C4459 1.386 . S
C4458 C4460 1.391 . S
C4459 C4458 1.386 . S
C4459 C4463 1.393 . S
C4460 H4449 0.950 . S
C4460 C4458 1.391 . S
C4460 C4461 1.400 . S
C4461 C4455 1.491 . S
C4461 C4460 1.400 . S
C4461 C4462 1.398 . S
C4462 H4450 0.950 . S
C4462 C4461 1.398 . S
C4462 C4463 1.391 . S
C4463 H4451 0.950 . S
C4463 C4459 1.393 . S
C4463 C4462 1.391 . S
H4464 C4472 0.950 . S
H4465 C4477 0.950 . S
H4466 C4474 0.950 . S
H4467 C4476 0.950 . S
H4468 C4478 0.950 . S
H4469 C4480 0.950 . S
H4470 C4482 0.950 . S
H4471 C4483 0.950 . S
C4472 H4464 0.950 . S
C4472 C4473 1.386 . S
C4472 C4474 1.391 . S
C4473 C4472 1.386 . S
C4473 C4477 1.393 . S
C4474 H4466 0.950 . S
C4474 C4472 1.391 . S
C4474 C4475 1.400 . S
C4475 C4474 1.400 . S
C4475 C4476 1.398 . S
C4475 C4481 1.491 . S
C4476 H4467 0.950 . S
C4476 C4475 1.398 . S
C4476 C4477 1.391 . S
C4477 H4465 0.950 . S
C4477 C4473 1.393 . S
C4477 C4476 1.391 . S
C4478 H4468 0.950 . S
C4478 C4479 1.386 . S
C4478 C4480 1.391 . S
C4479 C4478 1.386 . S
C4479 C4483 1.393 . S
C4480 H4469 0.950 . S
C4480 C4478 1.391 . S
C4480 C4481 1.400 . S
C4481 C4475 1.491 . S
C4481 C4480 1.400 . S
C4481 C4482 1.398 . S
C4482 H4470 0.950 . S
C4482 C4481 1.398 . S
C4482 C4483 1.391 . S
C4483 H4471 0.950 . S
C4483 C4479 1.393 . S
C4483 C4482 1.391 . S
H4484 C4492 0.950 . S
H4485 C4497 0.950 . S
H4486 C4494 0.950 . S
H4487 C4496 0.950 . S
H4488 C4498 0.950 . S
H4489 C4500 0.950 . S
H4490 C4502 0.950 . S
H4491 C4503 0.950 . S
C4492 H4484 0.950 . S
C4492 C4493 1.386 . S
C4492 C4494 1.391 . S
C4493 C4492 1.386 . S
C4493 C4497 1.393 . S
C4494 H4486 0.950 . S
C4494 C4492 1.391 . S
C4494 C4495 1.400 . S
C4495 C4494 1.400 . S
C4495 C4496 1.398 . S
C4495 C4501 1.491 . S
C4496 H4487 0.950 . S
C4496 C4495 1.398 . S
C4496 C4497 1.391 . S
C4497 H4485 0.950 . S
C4497 C4493 1.393 . S
C4497 C4496 1.391 . S
C4498 H4488 0.950 . S
C4498 C4499 1.386 . S
C4498 C4500 1.391 . S
C4499 C4498 1.386 . S
C4499 C4503 1.393 . S
C4500 H4489 0.950 . S
C4500 C4498 1.391 . S
C4500 C4501 1.400 . S
C4501 C4495 1.491 . S
C4501 C4500 1.400 . S
C4501 C4502 1.398 . S
C4502 H4490 0.950 . S
C4502 C4501 1.398 . S
C4502 C4503 1.391 . S
C4503 H4491 0.950 . S
C4503 C4499 1.393 . S
C4503 C4502 1.391 . S
H4504 C4512 0.950 . S
H4505 C4517 0.950 . S
H4506 C4514 0.950 . S
H4507 C4516 0.950 . S
H4508 C4518 0.950 . S
H4509 C4520 0.950 . S
H4510 C4522 0.950 . S
H4511 C4523 0.950 . S
C4512 H4504 0.950 . S
C4512 C4513 1.386 . S
C4512 C4514 1.391 . S
C4513 C4512 1.386 . S
C4513 C4517 1.393 . S
C4514 H4506 0.950 . S
C4514 C4512 1.391 . S
C4514 C4515 1.400 . S
C4515 C4514 1.400 . S
C4515 C4516 1.398 . S
C4515 C4521 1.491 . S
C4516 H4507 0.950 . S
C4516 C4515 1.398 . S
C4516 C4517 1.391 . S
C4517 H4505 0.950 . S
C4517 C4513 1.393 . S
C4517 C4516 1.391 . S
C4518 H4508 0.950 . S
C4518 C4519 1.386 . S
C4518 C4520 1.391 . S
C4519 C4518 1.386 . S
C4519 C4523 1.393 . S
C4520 H4509 0.950 . S
C4520 C4518 1.391 . S
C4520 C4521 1.400 . S
C4521 C4515 1.491 . S
C4521 C4520 1.400 . S
C4521 C4522 1.398 . S
C4522 H4510 0.950 . S
C4522 C4521 1.398 . S
C4522 C4523 1.391 . S
C4523 H4511 0.950 . S
C4523 C4519 1.393 . S
C4523 C4522 1.391 . S
H4524 C4532 0.950 . S
H4525 C4537 0.950 . S
H4526 C4534 0.950 . S
H4527 C4536 0.950 . S
H4528 C4538 0.950 . S
H4529 C4540 0.950 . S
H4530 C4542 0.950 . S
H4531 C4543 0.950 . S
C4532 H4524 0.950 . S
C4532 C4533 1.386 . S
C4532 C4534 1.391 . S
C4533 C4532 1.386 . S
C4533 C4537 1.393 . S
C4534 H4526 0.950 . S
C4534 C4532 1.391 . S
C4534 C4535 1.400 . S
C4535 C4534 1.400 . S
C4535 C4536 1.398 . S
C4535 C4541 1.491 . S
C4536 H4527 0.950 . S
C4536 C4535 1.398 . S
C4536 C4537 1.391 . S
C4537 H4525 0.950 . S
C4537 C4533 1.393 . S
C4537 C4536 1.391 . S
C4538 H4528 0.950 . S
C4538 C4539 1.386 . S
C4538 C4540 1.391 . S
C4539 C4538 1.386 . S
C4539 C4543 1.393 . S
C4540 H4529 0.950 . S
C4540 C4538 1.391 . S
C4540 C4541 1.400 . S
C4541 C4535 1.491 . S
C4541 C4540 1.400 . S
C4541 C4542 1.398 . S
C4542 H4530 0.950 . S
C4542 C4541 1.398 . S
C4542 C4543 1.391 . S
C4543 H4531 0.950 . S
C4543 C4539 1.393 . S
C4543 C4542 1.391 . S
H4544 C4552 0.950 . S
H4545 C4557 0.950 . S
H4546 C4554 0.950 . S
H4547 C4556 0.950 . S
H4548 C4558 0.950 . S
H4549 C4560 0.950 . S
H4550 C4562 0.950 . S
H4551 C4563 0.950 . S
C4552 H4544 0.950 . S
C4552 C4553 1.386 . S
C4552 C4554 1.391 . S
C4553 C4552 1.386 . S
C4553 C4557 1.393 . S
C4554 H4546 0.950 . S
C4554 C4552 1.391 . S
C4554 C4555 1.400 . S
C4555 C4554 1.400 . S
C4555 C4556 1.398 . S
C4555 C4561 1.491 . S
C4556 H4547 0.950 . S
C4556 C4555 1.398 . S
C4556 C4557 1.391 . S
C4557 H4545 0.950 . S
C4557 C4553 1.393 . S
C4557 C4556 1.391 . S
C4558 H4548 0.950 . S
C4558 C4559 1.386 . S
C4558 C4560 1.391 . S
C4559 C4558 1.386 . S
C4559 C4563 1.393 . S
C4560 H4549 0.950 . S
C4560 C4558 1.391 . S
C4560 C4561 1.400 . S
C4561 C4555 1.491 . S
C4561 C4560 1.400 . S
C4561 C4562 1.398 . S
C4562 H4550 0.950 . S
C4562 C4561 1.398 . S
C4562 C4563 1.391 . S
C4563 H4551 0.950 . S
C4563 C4559 1.393 . S
C4563 C4562 1.391 . S
H4564 C4572 0.950 . S
H4565 C4577 0.950 . S
H4566 C4574 0.950 . S
H4567 C4576 0.950 . S
H4568 C4578 0.950 . S
H4569 C4580 0.950 . S
H4570 C4582 0.950 . S
H4571 C4583 0.950 . S
C4572 H4564 0.950 . S
C4572 C4573 1.386 . S
C4572 C4574 1.391 . S
C4573 C4572 1.386 . S
C4573 C4577 1.393 . S
C4574 H4566 0.950 . S
C4574 C4572 1.391 . S
C4574 C4575 1.400 . S
C4575 C4574 1.400 . S
C4575 C4576 1.398 . S
C4575 C4581 1.491 . S
C4576 H4567 0.950 . S
C4576 C4575 1.398 . S
C4576 C4577 1.391 . S
C4577 H4565 0.950 . S
C4577 C4573 1.393 . S
C4577 C4576 1.391 . S
C4578 H4568 0.950 . S
C4578 C4579 1.386 . S
C4578 C4580 1.391 . S
C4579 C4578 1.386 . S
C4579 C4583 1.393 . S
C4580 H4569 0.950 . S
C4580 C4578 1.391 . S
C4580 C4581 1.400 . S
C4581 C4575 1.491 . S
C4581 C4580 1.400 . S
C4581 C4582 1.398 . S
C4582 H4570 0.950 . S
C4582 C4581 1.398 . S
C4582 C4583 1.391 . S
C4583 H4571 0.950 . S
C4583 C4579 1.393 . S
C4583 C4582 1.391 . S
H4584 C4592 0.950 . S
H4585 C4597 0.950 . S
H4586 C4594 0.950 . S
H4587 C4596 0.950 . S
H4588 C4598 0.950 . S
H4589 C4600 0.950 . S
H4590 C4602 0.950 . S
H4591 C4603 0.950 . S
C4592 H4584 0.950 . S
C4592 C4593 1.386 . S
C4592 C4594 1.391 . S
C4593 C4592 1.386 . S
C4593 C4597 1.393 . S
C4594 H4586 0.950 . S
C4594 C4592 1.391 . S
C4594 C4595 1.400 . S
C4595 C4594 1.400 . S
C4595 C4596 1.398 . S
C4595 C4601 1.491 . S
C4596 H4587 0.950 . S
C4596 C4595 1.398 . S
C4596 C4597 1.391 . S
C4597 H4585 0.950 . S
C4597 C4593 1.393 . S
C4597 C4596 1.391 . S
C4598 H4588 0.950 . S
C4598 C4599 1.386 . S
C4598 C4600 1.391 . S
C4599 C4598 1.386 . S
C4599 C4603 1.393 . S
C4600 H4589 0.950 . S
C4600 C4598 1.391 . S
C4600 C4601 1.400 . S
C4601 C4595 1.491 . S
C4601 C4600 1.400 . S
C4601 C4602 1.398 . S
C4602 H4590 0.950 . S
C4602 C4601 1.398 . S
C4602 C4603 1.391 . S
C4603 H4591 0.950 . S
C4603 C4599 1.393 . S
C4603 C4602 1.391 . S
H4604 C4612 0.950 . S
H4605 C4617 0.950 . S
H4606 C4614 0.950 . S
H4607 C4616 0.950 . S
H4608 C4618 0.950 . S
H4609 C4620 0.950 . S
H4610 C4622 0.950 . S
H4611 C4623 0.950 . S
C4612 H4604 0.950 . S
C4612 C4613 1.386 . S
C4612 C4614 1.391 . S
C4613 C4612 1.386 . S
C4613 C4617 1.393 . S
C4614 H4606 0.950 . S
C4614 C4612 1.391 . S
C4614 C4615 1.400 . S
C4615 C4614 1.400 . S
C4615 C4616 1.398 . S
C4615 C4621 1.491 . S
C4616 H4607 0.950 . S
C4616 C4615 1.398 . S
C4616 C4617 1.391 . S
C4617 H4605 0.950 . S
C4617 C4613 1.393 . S
C4617 C4616 1.391 . S
C4618 H4608 0.950 . S
C4618 C4619 1.386 . S
C4618 C4620 1.391 . S
C4619 C4618 1.386 . S
C4619 C4623 1.393 . S
C4620 H4609 0.950 . S
C4620 C4618 1.391 . S
C4620 C4621 1.400 . S
C4621 C4615 1.491 . S
C4621 C4620 1.400 . S
C4621 C4622 1.398 . S
C4622 H4610 0.950 . S
C4622 C4621 1.398 . S
C4622 C4623 1.391 . S
C4623 H4611 0.950 . S
C4623 C4619 1.393 . S
C4623 C4622 1.391 . S
H4624 C4632 0.950 . S
H4625 C4637 0.950 . S
H4626 C4634 0.950 . S
H4627 C4636 0.950 . S
H4628 C4638 0.950 . S
H4629 C4640 0.950 . S
H4630 C4642 0.950 . S
H4631 C4643 0.950 . S
C4632 H4624 0.950 . S
C4632 C4633 1.386 . S
C4632 C4634 1.391 . S
C4633 C4632 1.386 . S
C4633 C4637 1.393 . S
C4634 H4626 0.950 . S
C4634 C4632 1.391 . S
C4634 C4635 1.400 . S
C4635 C4634 1.400 . S
C4635 C4636 1.398 . S
C4635 C4641 1.491 . S
C4636 H4627 0.950 . S
C4636 C4635 1.398 . S
C4636 C4637 1.391 . S
C4637 H4625 0.950 . S
C4637 C4633 1.393 . S
C4637 C4636 1.391 . S
C4638 H4628 0.950 . S
C4638 C4639 1.386 . S
C4638 C4640 1.391 . S
C4639 C4638 1.386 . S
C4639 C4643 1.393 . S
C4640 H4629 0.950 . S
C4640 C4638 1.391 . S
C4640 C4641 1.400 . S
C4641 C4635 1.491 . S
C4641 C4640 1.400 . S
C4641 C4642 1.398 . S
C4642 H4630 0.950 . S
C4642 C4641 1.398 . S
C4642 C4643 1.391 . S
C4643 H4631 0.950 . S
C4643 C4639 1.393 . S
C4643 C4642 1.391 . S
H4644 C4652 0.950 . S
H4645 C4657 0.950 . S
H4646 C4654 0.950 . S
H4647 C4656 0.950 . S
H4648 C4658 0.950 . S
H4649 C4660 0.950 . S
H4650 C4662 0.950 . S
H4651 C4663 0.950 . S
C4652 H4644 0.950 . S
C4652 C4653 1.386 . S
C4652 C4654 1.391 . S
C4653 C4652 1.386 . S
C4653 C4657 1.393 . S
C4654 H4646 0.950 . S
C4654 C4652 1.391 . S
C4654 C4655 1.400 . S
C4655 C4654 1.400 . S
C4655 C4656 1.398 . S
C4655 C4661 1.491 . S
C4656 H4647 0.950 . S
C4656 C4655 1.398 . S
C4656 C4657 1.391 . S
C4657 H4645 0.950 . S
C4657 C4653 1.393 . S
C4657 C4656 1.391 . S
C4658 H4648 0.950 . S
C4658 C4659 1.386 . S
C4658 C4660 1.391 . S
C4659 C4658 1.386 . S
C4659 C4663 1.393 . S
C4660 H4649 0.950 . S
C4660 C4658 1.391 . S
C4660 C4661 1.400 . S
C4661 C4655 1.491 . S
C4661 C4660 1.400 . S
C4661 C4662 1.398 . S
C4662 H4650 0.950 . S
C4662 C4661 1.398 . S
C4662 C4663 1.391 . S
C4663 H4651 0.950 . S
C4663 C4659 1.393 . S
C4663 C4662 1.391 . S
H4664 C4672 0.950 . S
H4665 C4677 0.950 . S
H4666 C4674 0.950 . S
H4667 C4676 0.950 . S
H4668 C4678 0.950 . S
H4669 C4680 0.950 . S
H4670 C4682 0.950 . S
H4671 C4683 0.950 . S
C4672 H4664 0.950 . S
C4672 C4673 1.386 . S
C4672 C4674 1.391 . S
C4673 C4672 1.386 . S
C4673 C4677 1.393 . S
C4674 H4666 0.950 . S
C4674 C4672 1.391 . S
C4674 C4675 1.400 . S
C4675 C4674 1.400 . S
C4675 C4676 1.398 . S
C4675 C4681 1.491 . S
C4676 H4667 0.950 . S
C4676 C4675 1.398 . S
C4676 C4677 1.391 . S
C4677 H4665 0.950 . S
C4677 C4673 1.393 . S
C4677 C4676 1.391 . S
C4678 H4668 0.950 . S
C4678 C4679 1.386 . S
C4678 C4680 1.391 . S
C4679 C4678 1.386 . S
C4679 C4683 1.393 . S
C4680 H4669 0.950 . S
C4680 C4678 1.391 . S
C4680 C4681 1.400 . S
C4681 C4675 1.491 . S
C4681 C4680 1.400 . S
C4681 C4682 1.398 . S
C4682 H4670 0.950 . S
C4682 C4681 1.398 . S
C4682 C4683 1.391 . S
C4683 H4671 0.950 . S
C4683 C4679 1.393 . S
C4683 C4682 1.391 . S
H4684 C4692 0.950 . S
H4685 C4697 0.950 . S
H4686 C4694 0.950 . S
H4687 C4696 0.950 . S
H4688 C4698 0.950 . S
H4689 C4700 0.950 . S
H4690 C4702 0.950 . S
H4691 C4703 0.950 . S
C4692 H4684 0.950 . S
C4692 C4693 1.386 . S
C4692 C4694 1.391 . S
C4693 C4692 1.386 . S
C4693 C4697 1.393 . S
C4694 H4686 0.950 . S
C4694 C4692 1.391 . S
C4694 C4695 1.400 . S
C4695 C4694 1.400 . S
C4695 C4696 1.398 . S
C4695 C4701 1.491 . S
C4696 H4687 0.950 . S
C4696 C4695 1.398 . S
C4696 C4697 1.391 . S
C4697 H4685 0.950 . S
C4697 C4693 1.393 . S
C4697 C4696 1.391 . S
C4698 H4688 0.950 . S
C4698 C4699 1.386 . S
C4698 C4700 1.391 . S
C4699 C4698 1.386 . S
C4699 C4703 1.393 . S
C4700 H4689 0.950 . S
C4700 C4698 1.391 . S
C4700 C4701 1.400 . S
C4701 C4695 1.491 . S
C4701 C4700 1.400 . S
C4701 C4702 1.398 . S
C4702 H4690 0.950 . S
C4702 C4701 1.398 . S
C4702 C4703 1.391 . S
C4703 H4691 0.950 . S
C4703 C4699 1.393 . S
C4703 C4702 1.391 . S
H4704 C4712 0.950 . S
H4705 C4717 0.950 . S
H4706 C4714 0.950 . S
H4707 C4716 0.950 . S
H4708 C4718 0.950 . S
H4709 C4720 0.950 . S
H4710 C4722 0.950 . S
H4711 C4723 0.950 . S
C4712 H4704 0.950 . S
C4712 C4713 1.386 . S
C4712 C4714 1.391 . S
C4713 C4712 1.386 . S
C4713 C4717 1.393 . S
C4714 H4706 0.950 . S
C4714 C4712 1.391 . S
C4714 C4715 1.400 . S
C4715 C4714 1.400 . S
C4715 C4716 1.398 . S
C4715 C4721 1.491 . S
C4716 H4707 0.950 . S
C4716 C4715 1.398 . S
C4716 C4717 1.391 . S
C4717 H4705 0.950 . S
C4717 C4713 1.393 . S
C4717 C4716 1.391 . S
C4718 H4708 0.950 . S
C4718 C4719 1.386 . S
C4718 C4720 1.391 . S
C4719 C4718 1.386 . S
C4719 C4723 1.393 . S
C4720 H4709 0.950 . S
C4720 C4718 1.391 . S
C4720 C4721 1.400 . S
C4721 C4715 1.491 . S
C4721 C4720 1.400 . S
C4721 C4722 1.398 . S
C4722 H4710 0.950 . S
C4722 C4721 1.398 . S
C4722 C4723 1.391 . S
C4723 H4711 0.950 . S
C4723 C4719 1.393 . S
C4723 C4722 1.391 . S
H4724 C4732 0.950 . S
H4725 C4737 0.950 . S
H4726 C4734 0.950 . S
H4727 C4736 0.950 . S
H4728 C4738 0.950 . S
H4729 C4740 0.950 . S
H4730 C4742 0.950 . S
H4731 C4743 0.950 . S
C4732 H4724 0.950 . S
C4732 C4733 1.386 . S
C4732 C4734 1.391 . S
C4733 C4732 1.386 . S
C4733 C4737 1.393 . S
C4734 H4726 0.950 . S
C4734 C4732 1.391 . S
C4734 C4735 1.400 . S
C4735 C4734 1.400 . S
C4735 C4736 1.398 . S
C4735 C4741 1.491 . S
C4736 H4727 0.950 . S
C4736 C4735 1.398 . S
C4736 C4737 1.391 . S
C4737 H4725 0.950 . S
C4737 C4733 1.393 . S
C4737 C4736 1.391 . S
C4738 H4728 0.950 . S
C4738 C4739 1.386 . S
C4738 C4740 1.391 . S
C4739 C4738 1.386 . S
C4739 C4743 1.393 . S
C4740 H4729 0.950 . S
C4740 C4738 1.391 . S
C4740 C4741 1.400 . S
C4741 C4735 1.491 . S
C4741 C4740 1.400 . S
C4741 C4742 1.398 . S
C4742 H4730 0.950 . S
C4742 C4741 1.398 . S
C4742 C4743 1.391 . S
C4743 H4731 0.950 . S
C4743 C4739 1.393 . S
C4743 C4742 1.391 . S
H4744 C4752 0.950 . S
H4745 C4757 0.950 . S
H4746 C4754 0.950 . S
H4747 C4756 0.950 . S
H4748 C4758 0.950 . S
H4749 C4760 0.950 . S
H4750 C4762 0.950 . S
H4751 C4763 0.950 . S
C4752 H4744 0.950 . S
C4752 C4753 1.386 . S
C4752 C4754 1.391 . S
C4753 C4752 1.386 . S
C4753 C4757 1.393 . S
C4754 H4746 0.950 . S
C4754 C4752 1.391 . S
C4754 C4755 1.400 . S
C4755 C4754 1.400 . S
C4755 C4756 1.398 . S
C4755 C4761 1.491 . S
C4756 H4747 0.950 . S
C4756 C4755 1.398 . S
C4756 C4757 1.391 . S
C4757 H4745 0.950 . S
C4757 C4753 1.393 . S
C4757 C4756 1.391 . S
C4758 H4748 0.950 . S
C4758 C4759 1.386 . S
C4758 C4760 1.391 . S
C4759 C4758 1.386 . S
C4759 C4763 1.393 . S
C4760 H4749 0.950 . S
C4760 C4758 1.391 . S
C4760 C4761 1.400 . S
C4761 C4755 1.491 . S
C4761 C4760 1.400 . S
C4761 C4762 1.398 . S
C4762 H4750 0.950 . S
C4762 C4761 1.398 . S
C4762 C4763 1.391 . S
C4763 H4751 0.950 . S
C4763 C4759 1.393 . S
C4763 C4762 1.391 . S
H4764 C4772 0.950 . S
H4765 C4777 0.950 . S
H4766 C4774 0.950 . S
H4767 C4776 0.950 . S
H4768 C4778 0.950 . S
H4769 C4780 0.950 . S
H4770 C4782 0.950 . S
H4771 C4783 0.950 . S
C4772 H4764 0.950 . S
C4772 C4773 1.386 . S
C4772 C4774 1.391 . S
C4773 C4772 1.386 . S
C4773 C4777 1.393 . S
C4774 H4766 0.950 . S
C4774 C4772 1.391 . S
C4774 C4775 1.400 . S
C4775 C4774 1.400 . S
C4775 C4776 1.398 . S
C4775 C4781 1.491 . S
C4776 H4767 0.950 . S
C4776 C4775 1.398 . S
C4776 C4777 1.391 . S
C4777 H4765 0.950 . S
C4777 C4773 1.393 . S
C4777 C4776 1.391 . S
C4778 H4768 0.950 . S
C4778 C4779 1.386 . S
C4778 C4780 1.391 . S
C4779 C4778 1.386 . S
C4779 C4783 1.393 . S
C4780 H4769 0.950 . S
C4780 C4778 1.391 . S
C4780 C4781 1.400 . S
C4781 C4775 1.491 . S
C4781 C4780 1.400 . S
C4781 C4782 1.398 . S
C4782 H4770 0.950 . S
C4782 C4781 1.398 . S
C4782 C4783 1.391 . S
C4783 H4771 0.950 . S
C4783 C4779 1.393 . S
C4783 C4782 1.391 . S
H4784 C4792 0.950 . S
H4785 C4797 0.950 . S
H4786 C4794 0.950 . S
H4787 C4796 0.950 . S
H4788 C4798 0.950 . S
H4789 C4800 0.950 . S
H4790 C4802 0.950 . S
H4791 C4803 0.950 . S
C4792 H4784 0.950 . S
C4792 C4793 1.386 . S
C4792 C4794 1.391 . S
C4793 C4792 1.386 . S
C4793 C4797 1.393 . S
C4794 H4786 0.950 . S
C4794 C4792 1.391 . S
C4794 C4795 1.400 . S
C4795 C4794 1.400 . S
C4795 C4796 1.398 . S
C4795 C4801 1.491 . S
C4796 H4787 0.950 . S
C4796 C4795 1.398 . S
C4796 C4797 1.391 . S
C4797 H4785 0.950 . S
C4797 C4793 1.393 . S
C4797 C4796 1.391 . S
C4798 H4788 0.950 . S
C4798 C4799 1.386 . S
C4798 C4800 1.391 . S
C4799 C4798 1.386 . S
C4799 C4803 1.393 . S
C4800 H4789 0.950 . S
C4800 C4798 1.391 . S
C4800 C4801 1.400 . S
C4801 C4795 1.491 . S
C4801 C4800 1.400 . S
C4801 C4802 1.398 . S
C4802 H4790 0.950 . S
C4802 C4801 1.398 . S
C4802 C4803 1.391 . S
C4803 H4791 0.950 . S
C4803 C4799 1.393 . S
C4803 C4802 1.391 . S
H4804 C4812 0.950 . S
H4805 C4817 0.950 . S
H4806 C4814 0.950 . S
H4807 C4816 0.950 . S
H4808 C4818 0.950 . S
H4809 C4820 0.950 . S
H4810 C4822 0.950 . S
H4811 C4823 0.950 . S
C4812 H4804 0.950 . S
C4812 C4813 1.386 . S
C4812 C4814 1.391 . S
C4813 C4812 1.386 . S
C4813 C4817 1.393 . S
C4814 H4806 0.950 . S
C4814 C4812 1.391 . S
C4814 C4815 1.400 . S
C4815 C4814 1.400 . S
C4815 C4816 1.398 . S
C4815 C4821 1.491 . S
C4816 H4807 0.950 . S
C4816 C4815 1.398 . S
C4816 C4817 1.391 . S
C4817 H4805 0.950 . S
C4817 C4813 1.393 . S
C4817 C4816 1.391 . S
C4818 H4808 0.950 . S
C4818 C4819 1.386 . S
C4818 C4820 1.391 . S
C4819 C4818 1.386 . S
C4819 C4823 1.393 . S
C4820 H4809 0.950 . S
C4820 C4818 1.391 . S
C4820 C4821 1.400 . S
C4821 C4815 1.491 . S
C4821 C4820 1.400 . S
C4821 C4822 1.398 . S
C4822 H4810 0.950 . S
C4822 C4821 1.398 . S
C4822 C4823 1.391 . S
C4823 H4811 0.950 . S
C4823 C4819 1.393 . S
C4823 C4822 1.391 . S
H4824 C4832 0.950 . S
H4825 C4837 0.950 . S
H4826 C4834 0.950 . S
H4827 C4836 0.950 . S
H4828 C4838 0.950 . S
H4829 C4840 0.950 . S
H4830 C4842 0.950 . S
H4831 C4843 0.950 . S
C4832 H4824 0.950 . S
C4832 C4833 1.386 . S
C4832 C4834 1.391 . S
C4833 C4832 1.386 . S
C4833 C4837 1.393 . S
C4834 H4826 0.950 . S
C4834 C4832 1.391 . S
C4834 C4835 1.400 . S
C4835 C4834 1.400 . S
C4835 C4836 1.398 . S
C4835 C4841 1.491 . S
C4836 H4827 0.950 . S
C4836 C4835 1.398 . S
C4836 C4837 1.391 . S
C4837 H4825 0.950 . S
C4837 C4833 1.393 . S
C4837 C4836 1.391 . S
C4838 H4828 0.950 . S
C4838 C4839 1.386 . S
C4838 C4840 1.391 . S
C4839 C4838 1.386 . S
C4839 C4843 1.393 . S
C4840 H4829 0.950 . S
C4840 C4838 1.391 . S
C4840 C4841 1.400 . S
C4841 C4835 1.491 . S
C4841 C4840 1.400 . S
C4841 C4842 1.398 . S
C4842 H4830 0.950 . S
C4842 C4841 1.398 . S
C4842 C4843 1.391 . S
C4843 H4831 0.950 . S
C4843 C4839 1.393 . S
C4843 C4842 1.391 . S
H4844 C4852 0.950 . S
H4845 C4857 0.950 . S
H4846 C4854 0.950 . S
H4847 C4856 0.950 . S
H4848 C4858 0.950 . S
H4849 C4860 0.950 . S
H4850 C4862 0.950 . S
H4851 C4863 0.950 . S
C4852 H4844 0.950 . S
C4852 C4853 1.386 . S
C4852 C4854 1.391 . S
C4853 C4852 1.386 . S
C4853 C4857 1.393 . S
C4854 H4846 0.950 . S
C4854 C4852 1.391 . S
C4854 C4855 1.400 . S
C4855 C4854 1.400 . S
C4855 C4856 1.398 . S
C4855 C4861 1.491 . S
C4856 H4847 0.950 . S
C4856 C4855 1.398 . S
C4856 C4857 1.391 . S
C4857 H4845 0.950 . S
C4857 C4853 1.393 . S
C4857 C4856 1.391 . S
C4858 H4848 0.950 . S
C4858 C4859 1.386 . S
C4858 C4860 1.391 . S
C4859 C4858 1.386 . S
C4859 C4863 1.393 . S
C4860 H4849 0.950 . S
C4860 C4858 1.391 . S
C4860 C4861 1.400 . S
C4861 C4855 1.491 . S
C4861 C4860 1.400 . S
C4861 C4862 1.398 . S
C4862 H4850 0.950 . S
C4862 C4861 1.398 . S
C4862 C4863 1.391 . S
C4863 H4851 0.950 . S
C4863 C4859 1.393 . S
C4863 C4862 1.391 . S
H4864 C4872 0.950 . S
H4865 C4877 0.950 . S
H4866 C4874 0.950 . S
H4867 C4876 0.950 . S
H4868 C4878 0.950 . S
H4869 C4880 0.950 . S
H4870 C4882 0.950 . S
H4871 C4883 0.950 . S
C4872 H4864 0.950 . S
C4872 C4873 1.386 . S
C4872 C4874 1.391 . S
C4873 C4872 1.386 . S
C4873 C4877 1.393 . S
C4874 H4866 0.950 . S
C4874 C4872 1.391 . S
C4874 C4875 1.400 . S
C4875 C4874 1.400 . S
C4875 C4876 1.398 . S
C4875 C4881 1.491 . S
C4876 H4867 0.950 . S
C4876 C4875 1.398 . S
C4876 C4877 1.391 . S
C4877 H4865 0.950 . S
C4877 C4873 1.393 . S
C4877 C4876 1.391 . S
C4878 H4868 0.950 . S
C4878 C4879 1.386 . S
C4878 C4880 1.391 . S
C4879 C4878 1.386 . S
C4879 C4883 1.393 . S
C4880 H4869 0.950 . S
C4880 C4878 1.391 . S
C4880 C4881 1.400 . S
C4881 C4875 1.491 . S
C4881 C4880 1.400 . S
C4881 C4882 1.398 . S
C4882 H4870 0.950 . S
C4882 C4881 1.398 . S
C4882 C4883 1.391 . S
C4883 H4871 0.950 . S
C4883 C4879 1.393 . S
C4883 C4882 1.391 . S
H4884 C4892 0.950 . S
H4885 C4897 0.950 . S
H4886 C4894 0.950 . S
H4887 C4896 0.950 . S
H4888 C4898 0.950 . S
H4889 C4900 0.950 . S
H4890 C4902 0.950 . S
H4891 C4903 0.950 . S
C4892 H4884 0.950 . S
C4892 C4893 1.386 . S
C4892 C4894 1.391 . S
C4893 C4892 1.386 . S
C4893 C4897 1.393 . S
C4894 H4886 0.950 . S
C4894 C4892 1.391 . S
C4894 C4895 1.400 . S
C4895 C4894 1.400 . S
C4895 C4896 1.398 . S
C4895 C4901 1.491 . S
C4896 H4887 0.950 . S
C4896 C4895 1.398 . S
C4896 C4897 1.391 . S
C4897 H4885 0.950 . S
C4897 C4893 1.393 . S
C4897 C4896 1.391 . S
C4898 H4888 0.950 . S
C4898 C4899 1.386 . S
C4898 C4900 1.391 . S
C4899 C4898 1.386 . S
C4899 C4903 1.393 . S
C4900 H4889 0.950 . S
C4900 C4898 1.391 . S
C4900 C4901 1.400 . S
C4901 C4895 1.491 . S
C4901 C4900 1.400 . S
C4901 C4902 1.398 . S
C4902 H4890 0.950 . S
C4902 C4901 1.398 . S
C4902 C4903 1.391 . S
C4903 H4891 0.950 . S
C4903 C4899 1.393 . S
C4903 C4902 1.391 . S
H4904 C4912 0.950 . S
H4905 C4917 0.950 . S
H4906 C4914 0.950 . S
H4907 C4916 0.950 . S
H4908 C4918 0.950 . S
H4909 C4920 0.950 . S
H4910 C4922 0.950 . S
H4911 C4923 0.950 . S
C4912 H4904 0.950 . S
C4912 C4913 1.386 . S
C4912 C4914 1.391 . S
C4913 C4912 1.386 . S
C4913 C4917 1.393 . S
C4914 H4906 0.950 . S
C4914 C4912 1.391 . S
C4914 C4915 1.400 . S
C4915 C4914 1.400 . S
C4915 C4916 1.398 . S
C4915 C4921 1.491 . S
C4916 H4907 0.950 . S
C4916 C4915 1.398 . S
C4916 C4917 1.391 . S
C4917 H4905 0.950 . S
C4917 C4913 1.393 . S
C4917 C4916 1.391 . S
C4918 H4908 0.950 . S
C4918 C4919 1.386 . S
C4918 C4920 1.391 . S
C4919 C4918 1.386 . S
C4919 C4923 1.393 . S
C4920 H4909 0.950 . S
C4920 C4918 1.391 . S
C4920 C4921 1.400 . S
C4921 C4915 1.491 . S
C4921 C4920 1.400 . S
C4921 C4922 1.398 . S
C4922 H4910 0.950 . S
C4922 C4921 1.398 . S
C4922 C4923 1.391 . S
C4923 H4911 0.950 . S
C4923 C4919 1.393 . S
C4923 C4922 1.391 . S
H4924 C4932 0.950 . S
H4925 C4937 0.950 . S
H4926 C4934 0.950 . S
H4927 C4936 0.950 . S
H4928 C4938 0.950 . S
H4929 C4940 0.950 . S
H4930 C4942 0.950 . S
H4931 C4943 0.950 . S
C4932 H4924 0.950 . S
C4932 C4933 1.386 . S
C4932 C4934 1.391 . S
C4933 C4932 1.386 . S
C4933 C4937 1.393 . S
C4934 H4926 0.950 . S
C4934 C4932 1.391 . S
C4934 C4935 1.400 . S
C4935 C4934 1.400 . S
C4935 C4936 1.398 . S
C4935 C4941 1.491 . S
C4936 H4927 0.950 . S
C4936 C4935 1.398 . S
C4936 C4937 1.391 . S
C4937 H4925 0.950 . S
C4937 C4933 1.393 . S
C4937 C4936 1.391 . S
C4938 H4928 0.950 . S
C4938 C4939 1.386 . S
C4938 C4940 1.391 . S
C4939 C4938 1.386 . S
C4939 C4943 1.393 . S
C4940 H4929 0.950 . S
C4940 C4938 1.391 . S
C4940 C4941 1.400 . S
C4941 C4935 1.491 . S
C4941 C4940 1.400 . S
C4941 C4942 1.398 . S
C4942 H4930 0.950 . S
C4942 C4941 1.398 . S
C4942 C4943 1.391 . S
C4943 H4931 0.950 . S
C4943 C4939 1.393 . S
C4943 C4942 1.391 . S
H4944 C4952 0.950 . S
H4945 C4957 0.950 . S
H4946 C4954 0.950 . S
H4947 C4956 0.950 . S
H4948 C4958 0.950 . S
H4949 C4960 0.950 . S
H4950 C4962 0.950 . S
H4951 C4963 0.950 . S
C4952 H4944 0.950 . S
C4952 C4953 1.386 . S
C4952 C4954 1.391 . S
C4953 C4952 1.386 . S
C4953 C4957 1.393 . S
C4954 H4946 0.950 . S
C4954 C4952 1.391 . S
C4954 C4955 1.400 . S
C4955 C4954 1.400 . S
C4955 C4956 1.398 . S
C4955 C4961 1.491 . S
C4956 H4947 0.950 . S
C4956 C4955 1.398 . S
C4956 C4957 1.391 . S
C4957 H4945 0.950 . S
C4957 C4953 1.393 . S
C4957 C4956 1.391 . S
C4958 H4948 0.950 . S
C4958 C4959 1.386 . S
C4958 C4960 1.391 . S
C4959 C4958 1.386 . S
C4959 C4963 1.393 . S
C4960 H4949 0.950 . S
C4960 C4958 1.391 . S
C4960 C4961 1.400 . S
C4961 C4955 1.491 . S
C4961 C4960 1.400 . S
C4961 C4962 1.398 . S
C4962 H4950 0.950 . S
C4962 C4961 1.398 . S
C4962 C4963 1.391 . S
C4963 H4951 0.950 . S
C4963 C4959 1.393 . S
C4963 C4962 1.391 . S
H4964 C4972 0.950 . S
H4965 C4977 0.950 . S
H4966 C4974 0.950 . S
H4967 C4976 0.950 . S
H4968 C4978 0.950 . S
H4969 C4980 0.950 . S
H4970 C4982 0.950 . S
H4971 C4983 0.950 . S
C4972 H4964 0.950 . S
C4972 C4973 1.386 . S
C4972 C4974 1.391 . S
C4973 C4972 1.386 . S
C4973 C4977 1.393 . S
C4974 H4966 0.950 . S
C4974 C4972 1.391 . S
C4974 C4975 1.400 . S
C4975 C4974 1.400 . S
C4975 C4976 1.398 . S
C4975 C4981 1.491 . S
C4976 H4967 0.950 . S
C4976 C4975 1.398 . S
C4976 C4977 1.391 . S
C4977 H4965 0.950 . S
C4977 C4973 1.393 . S
C4977 C4976 1.391 . S
C4978 H4968 0.950 . S
C4978 C4979 1.386 . S
C4978 C4980 1.391 . S
C4979 C4978 1.386 . S
C4979 C4983 1.393 . S
C4980 H4969 0.950 . S
C4980 C4978 1.391 . S
C4980 C4981 1.400 . S
C4981 C4975 1.491 . S
C4981 C4980 1.400 . S
C4981 C4982 1.398 . S
C4982 H4970 0.950 . S
C4982 C4981 1.398 . S
C4982 C4983 1.391 . S
C4983 H4971 0.950 . S
C4983 C4979 1.393 . S
C4983 C4982 1.391 . S
H4984 C4992 0.950 . S
H4985 C4997 0.950 . S
H4986 C4994 0.950 . S
H4987 C4996 0.950 . S
H4988 C4998 0.950 . S
H4989 C5000 0.950 . S
H4990 C5002 0.950 . S
H4991 C5003 0.950 . S
C4992 H4984 0.950 . S
C4992 C4993 1.386 . S
C4992 C4994 1.391 . S
C4993 C4992 1.386 . S
C4993 C4997 1.393 . S
C4994 H4986 0.950 . S
C4994 C4992 1.391 . S
C4994 C4995 1.400 . S
C4995 C4994 1.400 . S
C4995 C4996 1.398 . S
C4995 C5001 1.491 . S
C4996 H4987 0.950 . S
C4996 C4995 1.398 . S
C4996 C4997 1.391 . S
C4997 H4985 0.950 . S
C4997 C4993 1.393 . S
C4997 C4996 1.391 . S
C4998 H4988 0.950 . S
C4998 C4999 1.386 . S
C4998 C5000 1.391 . S
C4999 C4998 1.386 . S
C4999 C5003 1.393 . S
C5000 H4989 0.950 . S
C5000 C4998 1.391 . S
C5000 C5001 1.400 . S
C5001 C4995 1.491 . S
C5001 C5000 1.400 . S
C5001 C5002 1.398 . S
C5002 H4990 0.950 . S
C5002 C5001 1.398 . S
C5002 C5003 1.391 . S
C5003 H4991 0.950 . S
C5003 C4999 1.393 . S
C5003 C5002 1.391 . S
H5004 C5012 0.950 . S
H5005 C5017 0.950 . S
H5006 C5014 0.950 . S
H5007 C5016 0.950 . S
H5008 C5018 0.950 . S
H5009 C5020 0.950 . S
H5010 C5022 0.950 . S
H5011 C5023 0.950 . S
C5012 H5004 0.950 . S
C5012 C5013 1.386 . S
C5012 C5014 1.391 . S
C5013 C5012 1.386 . S
C5013 C5017 1.393 . S
C5014 H5006 0.950 . S
C5014 C5012 1.391 . S
C5014 C5015 1.400 . S
C5015 C5014 1.400 . S
C5015 C5016 1.398 . S
C5015 C5021 1.491 . S
C5016 H5007 0.950 . S
C5016 C5015 1.398 . S
C5016 C5017 1.391 . S
C5017 H5005 0.950 . S
C5017 C5013 1.393 . S
C5017 C5016 1.391 . S
C5018 H5008 0.950 . S
C5018 C5019 1.386 . S
C5018 C5020 1.391 . S
C5019 C5018 1.386 . S
C5019 C5023 1.393 . S
C5020 H5009 0.950 . S
C5020 C5018 1.391 . S
C5020 C5021 1.400 . S
C5021 C5015 1.491 . S
C5021 C5020 1.400 . S
C5021 C5022 1.398 . S
C5022 H5010 0.950 . S
C5022 C5021 1.398 . S
C5022 C5023 1.391 . S
C5023 H5011 0.950 . S
C5023 C5019 1.393 . S
C5023 C5022 1.391 . S
H5024 C5032 0.950 . S
H5025 C5037 0.950 . S
H5026 C5034 0.950 . S
H5027 C5036 0.950 . S
H5028 C5038 0.950 . S
H5029 C5040 0.950 . S
H5030 C5042 0.950 . S
H5031 C5043 0.950 . S
C5032 H5024 0.950 . S
C5032 C5033 1.386 . S
C5032 C5034 1.391 . S
C5033 C5032 1.386 . S
C5033 C5037 1.393 . S
C5034 H5026 0.950 . S
C5034 C5032 1.391 . S
C5034 C5035 1.400 . S
C5035 C5034 1.400 . S
C5035 C5036 1.398 . S
C5035 C5041 1.491 . S
C5036 H5027 0.950 . S
C5036 C5035 1.398 . S
C5036 C5037 1.391 . S
C5037 H5025 0.950 . S
C5037 C5033 1.393 . S
C5037 C5036 1.391 . S
C5038 H5028 0.950 . S
C5038 C5039 1.386 . S
C5038 C5040 1.391 . S
C5039 C5038 1.386 . S
C5039 C5043 1.393 . S
C5040 H5029 0.950 . S
C5040 C5038 1.391 . S
C5040 C5041 1.400 . S
C5041 C5035 1.491 . S
C5041 C5040 1.400 . S
C5041 C5042 1.398 . S
C5042 H5030 0.950 . S
C5042 C5041 1.398 . S
C5042 C5043 1.391 . S
C5043 H5031 0.950 . S
C5043 C5039 1.393 . S
C5043 C5042 1.391 . S
H5044 C5052 0.950 . S
H5045 C5057 0.950 . S
H5046 C5054 0.950 . S
H5047 C5056 0.950 . S
H5048 C5058 0.950 . S
H5049 C5060 0.950 . S
H5050 C5062 0.950 . S
H5051 C5063 0.950 . S
C5052 H5044 0.950 . S
C5052 C5053 1.386 . S
C5052 C5054 1.391 . S
C5053 C5052 1.386 . S
C5053 C5057 1.393 . S
C5054 H5046 0.950 . S
C5054 C5052 1.391 . S
C5054 C5055 1.400 . S
C5055 C5054 1.400 . S
C5055 C5056 1.398 . S
C5055 C5061 1.491 . S
C5056 H5047 0.950 . S
C5056 C5055 1.398 . S
C5056 C5057 1.391 . S
C5057 H5045 0.950 . S
C5057 C5053 1.393 . S
C5057 C5056 1.391 . S
C5058 H5048 0.950 . S
C5058 C5059 1.386 . S
C5058 C5060 1.391 . S
C5059 C5058 1.386 . S
C5059 C5063 1.393 . S
C5060 H5049 0.950 . S
C5060 C5058 1.391 . S
C5060 C5061 1.400 . S
C5061 C5055 1.491 . S
C5061 C5060 1.400 . S
C5061 C5062 1.398 . S
C5062 H5050 0.950 . S
C5062 C5061 1.398 . S
C5062 C5063 1.391 . S
C5063 H5051 0.950 . S
C5063 C5059 1.393 . S
C5063 C5062 1.391 . S
H5064 C5072 0.950 . S
H5065 C5077 0.950 . S
H5066 C5074 0.950 . S
H5067 C5076 0.950 . S
H5068 C5078 0.950 . S
H5069 C5080 0.950 . S
H5070 C5082 0.950 . S
H5071 C5083 0.950 . S
C5072 H5064 0.950 . S
C5072 C5073 1.386 . S
C5072 C5074 1.391 . S
C5073 C5072 1.386 . S
C5073 C5077 1.393 . S
C5074 H5066 0.950 . S
C5074 C5072 1.391 . S
C5074 C5075 1.400 . S
C5075 C5074 1.400 . S
C5075 C5076 1.398 . S
C5075 C5081 1.491 . S
C5076 H5067 0.950 . S
C5076 C5075 1.398 . S
C5076 C5077 1.391 . S
C5077 H5065 0.950 . S
C5077 C5073 1.393 . S
C5077 C5076 1.391 . S
C5078 H5068 0.950 . S
C5078 C5079 1.386 . S
C5078 C5080 1.391 . S
C5079 C5078 1.386 . S
C5079 C5083 1.393 . S
C5080 H5069 0.950 . S
C5080 C5078 1.391 . S
C5080 C5081 1.400 . S
C5081 C5075 1.491 . S
C5081 C5080 1.400 . S
C5081 C5082 1.398 . S
C5082 H5070 0.950 . S
C5082 C5081 1.398 . S
C5082 C5083 1.391 . S
C5083 H5071 0.950 . S
C5083 C5079 1.393 . S
C5083 C5082 1.391 . S
H5084 C5092 0.950 . S
H5085 C5097 0.950 . S
H5086 C5094 0.950 . S
H5087 C5096 0.950 . S
H5088 C5098 0.950 . S
H5089 C5100 0.950 . S
H5090 C5102 0.950 . S
H5091 C5103 0.950 . S
C5092 H5084 0.950 . S
C5092 C5093 1.386 . S
C5092 C5094 1.391 . S
C5093 C5092 1.386 . S
C5093 C5097 1.393 . S
C5094 H5086 0.950 . S
C5094 C5092 1.391 . S
C5094 C5095 1.400 . S
C5095 C5094 1.400 . S
C5095 C5096 1.398 . S
C5095 C5101 1.491 . S
C5096 H5087 0.950 . S
C5096 C5095 1.398 . S
C5096 C5097 1.391 . S
C5097 H5085 0.950 . S
C5097 C5093 1.393 . S
C5097 C5096 1.391 . S
C5098 H5088 0.950 . S
C5098 C5099 1.386 . S
C5098 C5100 1.391 . S
C5099 C5098 1.386 . S
C5099 C5103 1.393 . S
C5100 H5089 0.950 . S
C5100 C5098 1.391 . S
C5100 C5101 1.400 . S
C5101 C5095 1.491 . S
C5101 C5100 1.400 . S
C5101 C5102 1.398 . S
C5102 H5090 0.950 . S
C5102 C5101 1.398 . S
C5102 C5103 1.391 . S
C5103 H5091 0.950 . S
C5103 C5099 1.393 . S
C5103 C5102 1.391 . S
H5104 C5112 0.950 . S
H5105 C5117 0.950 . S
H5106 C5114 0.950 . S
H5107 C5116 0.950 . S
H5108 C5118 0.950 . S
H5109 C5120 0.950 . S
H5110 C5122 0.950 . S
H5111 C5123 0.950 . S
C5112 H5104 0.950 . S
C5112 C5113 1.386 . S
C5112 C5114 1.391 . S
C5113 C5112 1.386 . S
C5113 C5117 1.393 . S
C5114 H5106 0.950 . S
C5114 C5112 1.391 . S
C5114 C5115 1.400 . S
C5115 C5114 1.400 . S
C5115 C5116 1.398 . S
C5115 C5121 1.491 . S
C5116 H5107 0.950 . S
C5116 C5115 1.398 . S
C5116 C5117 1.391 . S
C5117 H5105 0.950 . S
C5117 C5113 1.393 . S
C5117 C5116 1.391 . S
C5118 H5108 0.950 . S
C5118 C5119 1.386 . S
C5118 C5120 1.391 . S
C5119 C5118 1.386 . S
C5119 C5123 1.393 . S
C5120 H5109 0.950 . S
C5120 C5118 1.391 . S
C5120 C5121 1.400 . S
C5121 C5115 1.491 . S
C5121 C5120 1.400 . S
C5121 C5122 1.398 . S
C5122 H5110 0.950 . S
C5122 C5121 1.398 . S
C5122 C5123 1.391 . S
C5123 H5111 0.950 . S
C5123 C5119 1.393 . S
C5123 C5122 1.391 . S
H5124 C5132 0.950 . S
H5125 C5137 0.950 . S
H5126 C5134 0.950 . S
H5127 C5136 0.950 . S
H5128 C5138 0.950 . S
H5129 C5140 0.950 . S
H5130 C5142 0.950 . S
H5131 C5143 0.950 . S
C5132 H5124 0.950 . S
C5132 C5133 1.386 . S
C5132 C5134 1.391 . S
C5133 C5132 1.386 . S
C5133 C5137 1.393 . S
C5134 H5126 0.950 . S
C5134 C5132 1.391 . S
C5134 C5135 1.400 . S
C5135 C5134 1.400 . S
C5135 C5136 1.398 . S
C5135 C5141 1.491 . S
C5136 H5127 0.950 . S
C5136 C5135 1.398 . S
C5136 C5137 1.391 . S
C5137 H5125 0.950 . S
C5137 C5133 1.393 . S
C5137 C5136 1.391 . S
C5138 H5128 0.950 . S
C5138 C5139 1.386 . S
C5138 C5140 1.391 . S
C5139 C5138 1.386 . S
C5139 C5143 1.393 . S
C5140 H5129 0.950 . S
C5140 C5138 1.391 . S
C5140 C5141 1.400 . S
C5141 C5135 1.491 . S
C5141 C5140 1.400 . S
C5141 C5142 1.398 . S
C5142 H5130 0.950 . S
C5142 C5141 1.398 . S
C5142 C5143 1.391 . S
C5143 H5131 0.950 . S
C5143 C5139 1.393 . S
C5143 C5142 1.391 . S
H5144 C5152 0.950 . S
H5145 C5157 0.950 . S
H5146 C5154 0.950 . S
H5147 C5156 0.950 . S
H5148 C5158 0.950 . S
H5149 C5160 0.950 . S
H5150 C5162 0.950 . S
H5151 C5163 0.950 . S
C5152 H5144 0.950 . S
C5152 C5153 1.386 . S
C5152 C5154 1.391 . S
C5153 C5152 1.386 . S
C5153 C5157 1.393 . S
C5154 H5146 0.950 . S
C5154 C5152 1.391 . S
C5154 C5155 1.400 . S
C5155 C5154 1.400 . S
C5155 C5156 1.398 . S
C5155 C5161 1.491 . S
C5156 H5147 0.950 . S
C5156 C5155 1.398 . S
C5156 C5157 1.391 . S
C5157 H5145 0.950 . S
C5157 C5153 1.393 . S
C5157 C5156 1.391 . S
C5158 H5148 0.950 . S
C5158 C5159 1.386 . S
C5158 C5160 1.391 . S
C5159 C5158 1.386 . S
C5159 C5163 1.393 . S
C5160 H5149 0.950 . S
C5160 C5158 1.391 . S
C5160 C5161 1.400 . S
C5161 C5155 1.491 . S
C5161 C5160 1.400 . S
C5161 C5162 1.398 . S
C5162 H5150 0.950 . S
C5162 C5161 1.398 . S
C5162 C5163 1.391 . S
C5163 H5151 0.950 . S
C5163 C5159 1.393 . S
C5163 C5162 1.391 . S
H5164 C5172 0.950 . S
H5165 C5177 0.950 . S
H5166 C5174 0.950 . S
H5167 C5176 0.950 . S
H5168 C5178 0.950 . S
H5169 C5180 0.950 . S
H5170 C5182 0.950 . S
H5171 C5183 0.950 . S
C5172 H5164 0.950 . S
C5172 C5173 1.386 . S
C5172 C5174 1.391 . S
C5173 C5172 1.386 . S
C5173 C5177 1.393 . S
C5174 H5166 0.950 . S
C5174 C5172 1.391 . S
C5174 C5175 1.400 . S
C5175 C5174 1.400 . S
C5175 C5176 1.398 . S
C5175 C5181 1.491 . S
C5176 H5167 0.950 . S
C5176 C5175 1.398 . S
C5176 C5177 1.391 . S
C5177 H5165 0.950 . S
C5177 C5173 1.393 . S
C5177 C5176 1.391 . S
C5178 H5168 0.950 . S
C5178 C5179 1.386 . S
C5178 C5180 1.391 . S
C5179 C5178 1.386 . S
C5179 C5183 1.393 . S
C5180 H5169 0.950 . S
C5180 C5178 1.391 . S
C5180 C5181 1.400 . S
C5181 C5175 1.491 . S
C5181 C5180 1.400 . S
C5181 C5182 1.398 . S
C5182 H5170 0.950 . S
C5182 C5181 1.398 . S
C5182 C5183 1.391 . S
C5183 H5171 0.950 . S
C5183 C5179 1.393 . S
C5183 C5182 1.391 . S
C1353 C8 1.762 . S
C1359 C428 1.759 . S
C1373 C779 1.757 . S
C1379 C23 1.764 . S
C1393 C36 1.756 . S
C1399 C400 1.766 . S
C1413 C51 1.757 . S
C1419 C751 1.766 . S
C1433 C372 1.767 . S
C1439 C64 1.756 . S
C1453 C79 1.765 . S
C1459 C723 1.756 . S
C1473 C344 1.756 . S
C1479 C92 1.767 . S
C1493 C107 1.760 . S
C1499 C695 1.761 . S
C1513 C484 1.764 . S
C1519 C120 1.757 . S
C1533 C134 1.757 . S
C1539 C834 1.766 . S
C1553 C148 1.763 . S
C1559 C456 1.758 . S
C1573 C162 1.756 . S
C1579 C806 1.766 . S
C1593 C176 1.757 . S
C1599 C540 1.766 . S
C1613 C890 1.757 . S
C1619 C190 1.766 . S
C1633 C512 1.757 . S
C1639 C204 1.765 . S
C1653 C218 1.756 . S
C1659 C862 1.766 . S
C1673 C919 1.761 . S
C1679 C233 1.760 . S
C1693 C905 1.761 . S
C1699 C247 1.763 . S
C1713 C260 1.765 . S
C1719 C1002 1.757 . S
C1733 C1311 1.757 . S
C1739 C275 1.764 . S
C1753 C652 1.764 . S
C1759 C288 1.757 . S
C1773 C303 1.764 . S
C1779 C1283 1.760 . S
C1793 C316 1.766 . S
C1799 C624 1.757 . S
C1813 C330 1.763 . S
C1819 C932 1.758 . S
C1833 C359 1.758 . S
C1839 C1115 1.766 . S
C1853 C387 1.757 . S
C1859 C1087 1.764 . S
C1873 C415 1.766 . S
C1879 C1059 1.756 . S
C1893 C443 1.763 . S
C1899 C1031 1.758 . S
C1913 C1170 1.761 . S
C1919 C470 1.763 . S
C1933 C498 1.763 . S
C1939 C1142 1.761 . S
C1953 C1226 1.756 . S
C1959 C526 1.766 . S
C1973 C554 1.756 . S
C1979 C1198 1.767 . S
C1993 C569 1.760 . S
C1999 C1255 1.764 . S
C2013 C583 1.758 . S
C2019 C1241 1.765 . S
C2033 C596 1.759 . S
C2039 C1338 1.762 . S
C2053 C975 1.757 . S
C2059 C611 1.765 . S
C2073 C947 1.766 . S
C2079 C639 1.757 . S
C2093 C666 1.766 . S
C2099 C1268 1.756 . S
C2113 C680 1.758 . S
C2119 C1100 1.766 . S
C2133 C1072 1.757 . S
C2139 C708 1.766 . S
C2153 C736 1.756 . S
C2159 C1044 1.766 . S
C2173 C764 1.756 . S
C2179 C1016 1.766 . S
C2193 C1156 1.765 . S
C2199 C792 1.756 . S
C2213 C1128 1.766 . S
C2219 C820 1.756 . S
C2233 C848 1.757 . S
C2239 C1212 1.766 . S
C2253 C1184 1.756 . S
C2259 C876 1.766 . S
C2273 C960 1.765 . S
C2279 C1324 1.756 . S
C2293 C988 1.758 . S
C2299 C1296 1.765 . S
C2313 C6 1.327 . S
C2319 C777 1.319 . S
C2333 C21 1.327 . S
C2339 C398 1.319 . S
C2353 C34 1.320 . S
C2359 C749 1.327 . S
C2373 C426 1.320 . S
C2379 C49 1.327 . S
C2393 C62 1.327 . S
C2399 C357 1.319 . S
C2413 C77 1.326 . S
C2419 C706 1.321 . S
C2433 C90 1.327 . S
C2439 C385 1.319 . S
C2453 C678 1.327 . S
C2459 C105 1.320 . S
C2473 C118 1.327 . S
C2479 C286 1.320 . S
C2493 C132 1.327 . S
C2499 C1253 1.319 . S
C2513 C1266 1.324 . S
C2519 C146 1.322 . S
C2533 C160 1.325 . S
C2539 C1281 1.321 . S
C2553 C1000 1.321 . S
C2559 C174 1.326 . S
C2573 C1309 1.326 . S
C2579 C188 1.321 . S
C2593 C202 1.327 . S
C2599 C986 1.320 . S
C2613 C903 1.325 . S
C2619 C216 1.321 . S
C2633 C888 1.326 . S
C2639 C231 1.320 . S
C2653 C1140 1.327 . S
C2659 C245 1.319 . S
C2673 C258 1.325 . S
C2679 C1154 1.321 . S
C2693 C273 1.327 . S
C2699 C1168 1.319 . S
C2713 C301 1.324 . S
C2719 C1196 1.322 . S
C2733 C314 1.323 . S
C2739 C874 1.324 . S
C2753 C846 1.321 . S
C2759 C328 1.326 . S
C2773 C342 1.324 . S
C2779 C1113 1.323 . S
C2793 C1085 1.322 . S
C2799 C370 1.324 . S
C2813 C1042 1.322 . S
C2819 C413 1.324 . S
C2833 C441 1.321 . S
C2839 C1014 1.325 . S
C2853 C454 1.327 . S
C2859 C622 1.319 . S
C2873 C468 1.319 . S
C2879 C917 1.327 . S
C2893 C482 1.321 . S
C2899 C930 1.326 . S
C2913 C496 1.326 . S
C2919 C945 1.321 . S
C2933 C510 1.327 . S
C2939 C1336 1.319 . S
C2953 C973 1.320 . S
C2959 C524 1.327 . S
C2973 C1322 1.326 . S
C2979 C538 1.321 . S
C2993 C1239 1.320 . S
C2999 C552 1.327 . S
C3013 C1224 1.325 . S
C3019 C567 1.321 . S
C3033 C581 1.326 . S
C3039 C804 1.321 . S
C3053 C594 1.321 . S
C3059 C818 1.325 . S
C3073 C609 1.321 . S
C3079 C832 1.325 . S
C3093 C860 1.324 . S
C3099 C637 1.323 . S
C3113 C1210 1.324 . S
C3119 C650 1.323 . S
C3133 C1182 1.326 . S
C3139 C664 1.321 . S
C3153 C693 1.325 . S
C3159 C1070 1.321 . S
C3173 C721 1.319 . S
C3179 C1098 1.327 . S
C3193 C1029 1.327 . S
C3199 C734 1.321 . S
C3213 C1057 1.322 . S
C3219 C762 1.324 . S
C3233 C958 1.326 . S
C3239 C790 1.321 . S
C3253 C1294 1.326 . S
C3259 C1126 1.320 . S
C3273 C9 0.976 . S
C3279 C1308 1.045 . S
C3293 C22 0.962 . S
C3299 C987 1.052 . S
C3313 C902 1.021 . S
C3319 C37 1.014 . S
C3333 C1001 1.053 . S
C3339 C50 0.960 . S
C3353 C65 0.972 . S
C3359 C272 1.048 . S
C3373 C78 0.973 . S
C3379 C1295 1.047 . S
C3393 C244 1.053 . S
C3399 C93 0.962 . S
C3413 C259 1.021 . S
C3419 C106 1.015 . S
C3433 C399 1.051 . S
C3439 C121 0.965 . S
C3453 C135 0.968 . S
C3459 C748 1.050 . S
C3473 C149 1.003 . S
C3479 C427 1.028 . S
C3493 C163 0.973 . S
C3499 C776 1.045 . S
C3513 C343 1.027 . S
C3519 C177 1.003 . S
C3533 C191 0.965 . S
C3539 C692 1.050 . S
C3553 C371 1.028 . S
C3559 C205 1.005 . S
C3573 C219 0.960 . S
C3579 C720 1.054 . S
C3593 C232 0.996 . S
C3599 C1211 1.031 . S
C3613 C483 1.053 . S
C3619 C246 0.961 . S
C3633 C261 1.011 . S
C3639 C833 1.023 . S
C3653 C455 1.030 . S
C3659 C274 1.002 . S
C3673 C289 1.013 . S
C3679 C469 1.022 . S
C3693 C847 1.043 . S
C3699 C302 0.976 . S
C3713 C189 1.050 . S
C3719 C317 0.965 . S
C3733 C217 1.024 . S
C3739 C331 1.009 . S
C3753 C972 1.031 . S
C3759 C345 0.997 . S
C3773 C358 0.963 . S
C3779 C1323 1.052 . S
C3793 C1238 1.041 . S
C3799 C373 0.984 . S
C3813 C386 0.982 . S
C3819 C1337 1.043 . S
C3833 C608 1.054 . S
C3839 C401 0.960 . S
C3853 C959 1.025 . S
C3859 C414 1.011 . S
C3873 C429 0.971 . S
C3879 C580 1.048 . S
C3893 C442 1.015 . S
C3899 C595 1.021 . S
C3913 C457 1.000 . S
C3919 C63 1.029 . S
C3933 C471 0.981 . S
C3939 C1084 1.040 . S
C3953 C91 1.036 . S
C3959 C485 0.988 . S
C3973 C499 0.965 . S
C3979 C1112 1.050 . S
C3993 C7 1.040 . S
C3999 C513 0.986 . S
C4013 C527 0.994 . S
C4019 C1028 1.033 . S
C4033 C35 1.038 . S
C4039 C541 0.984 . S
C4053 C1056 1.022 . S
C4059 C555 1.013 . S
C4073 C568 1.009 . S
C4079 C875 1.024 . S
C4093 C582 0.975 . S
C4099 C147 1.046 . S
C4113 C1169 1.047 . S
C4119 C597 0.970 . S
C4133 C610 1.009 . S
C4139 C119 1.024 . S
C4153 C133 1.038 . S
C4159 C625 0.990 . S
C4173 C638 0.995 . S
C4179 C1183 1.032 . S
C4193 C525 1.053 . S
C4199 C653 0.961 . S
C4213 C667 0.971 . S
C4219 C553 1.049 . S
C4233 C636 1.025 . S
C4239 C681 1.011 . S
C4253 C694 0.968 . S
C4259 C315 1.050 . S
C4273 C709 1.014 . S
C4279 C230 1.022 . S
C4293 C722 1.009 . S
C4299 C329 1.024 . S
C4313 C737 1.015 . S
C4319 C944 1.021 . S
C4333 C623 1.022 . S
C4339 C750 1.013 . S
C4353 C916 1.044 . S
C4359 C765 0.979 . S
C4373 C778 1.004 . S
C4379 C931 1.027 . S
C4393 C1071 1.041 . S
C4399 C793 0.984 . S
C4413 C76 1.029 . S
C4419 C807 1.004 . S
C4433 C1099 1.038 . S
C4439 C821 0.986 . S
C4453 C835 0.970 . S
C4459 C104 1.049 . S
C4473 C1015 1.053 . S
C4479 C849 0.963 . S
C4493 C863 1.001 . S
C4499 C20 1.031 . S
C4513 C1043 1.042 . S
C4519 C877 0.978 . S
C4533 C48 1.030 . S
C4539 C891 1.003 . S
C4553 C539 1.025 . S
C4559 C904 1.008 . S
C4573 C918 0.987 . S
C4579 C1155 1.036 . S
C4593 C933 0.985 . S
C4599 C161 1.038 . S
C4613 C1127 1.031 . S
C4619 C946 1.000 . S
C4633 C961 0.998 . S
C4639 C1141 1.030 . S
C4653 C175 1.035 . S
C4659 C974 0.994 . S
C4673 C861 1.021 . S
C4679 C989 1.015 . S
C4693 C1003 1.015 . S
C4699 C889 1.021 . S
C4713 C1017 1.012 . S
C4719 C300 1.022 . S
C4733 C651 1.046 . S
C4739 C1030 0.971 . S
C4753 C566 1.027 . S
C4759 C1045 1.005 . S
C4773 C1058 1.013 . S
C4779 C665 1.023 . S
C4793 C1073 0.971 . S
C4799 C1280 1.048 . S
C4813 C287 1.043 . S
C4819 C1086 0.976 . S
C4833 C1252 1.053 . S
C4839 C1101 0.960 . S
C4853 C1267 1.031 . S
C4859 C1114 1.001 . S
C4873 C735 1.049 . S
C4879 C1129 0.970 . S
C4893 C1143 0.992 . S
C4899 C412 1.036 . S
C4913 C1157 1.014 . S
C4919 C763 1.022 . S
C4933 C1171 0.963 . S
C4939 C440 1.052 . S
C4953 C679 1.041 . S
C4959 C1185 0.980 . S
C4973 C1199 1.013 . S
C4979 C356 1.023 . S
C4993 C1213 1.013 . S
C4999 C707 1.023 . S
C5013 C1227 0.995 . S
C5019 C384 1.035 . S
C5033 C203 1.024 . S
C5039 C1240 1.012 . S
C5053 C1254 0.989 . S
C5059 C819 1.038 . S
C5073 C1269 1.001 . S
C5079 C497 1.031 . S
C5093 C1282 0.994 . S
C5099 C791 1.035 . S
C5113 C1297 1.008 . S
C5119 C805 1.025 . S
C5133 C511 1.050 . S
C5139 C1310 0.968 . S
C5153 C1197 1.023 . S
C5159 C1325 1.012 . S
C5173 C1225 1.052 . S
C5179 C1339 0.962 . S
