# Generated by pormake.
# Topology smk, (6)-cn, num edge types: 1
# Building blocks:
#     Node 0, Type 0, BuildingBlock: IZENUY_clean_sbu_0, # of connection points: 6
#     Node 1, Type 0, BuildingBlock: IZENUY_clean_sbu_0, # of connection points: 6
#     Node 2, Type 0, BuildingBlock: IZENUY_clean_sbu_0, # of connection points: 6
#     Node 3, Type 0, BuildingBlock: IZENUY_clean_sbu_0, # of connection points: 6
#     Node 4, Type 0, BuildingBlock: IZENUY_clean_sbu_0, # of connection points: 6
#     Node 5, Type 0, BuildingBlock: IZENUY_clean_sbu_0, # of connection points: 6
#     Edge 6, Type (0, 0), BuildingBlock: CIFDUS_clean_linker_0, # of connection points: 2
#     Edge 7, Type (0, 0), BuildingBlock: CIFDUS_clean_linker_0, # of connection points: 2
#     Edge 8, Type (0, 0), BuildingBlock: CIFDUS_clean_linker_0, # of connection points: 2
#     Edge 9, Type (0, 0), BuildingBlock: CIFDUS_clean_linker_0, # of connection points: 2
#     Edge 10, Type (0, 0), BuildingBlock: CIFDUS_clean_linker_0, # of connection points: 2
#     Edge 11, Type (0, 0), BuildingBlock: CIFDUS_clean_linker_0, # of connection points: 2
#     Edge 12, Type (0, 0), BuildingBlock: CIFDUS_clean_linker_0, # of connection points: 2
#     Edge 13, Type (0, 0), BuildingBlock: CIFDUS_clean_linker_0, # of connection points: 2
#     Edge 14, Type (0, 0), BuildingBlock: CIFDUS_clean_linker_0, # of connection points: 2
#     Edge 15, Type (0, 0), BuildingBlock: CIFDUS_clean_linker_0, # of connection points: 2
#     Edge 16, Type (0, 0), BuildingBlock: CIFDUS_clean_linker_0, # of connection points: 2
#     Edge 17, Type (0, 0), BuildingBlock: CIFDUS_clean_linker_0, # of connection points: 2
#     Edge 18, Type (0, 0), BuildingBlock: CIFDUS_clean_linker_0, # of connection points: 2
#     Edge 19, Type (0, 0), BuildingBlock: CIFDUS_clean_linker_0, # of connection points: 2
#     Edge 20, Type (0, 0), BuildingBlock: CIFDUS_clean_linker_0, # of connection points: 2
#     Edge 21, Type (0, 0), BuildingBlock: CIFDUS_clean_linker_0, # of connection points: 2
#     Edge 22, Type (0, 0), BuildingBlock: CIFDUS_clean_linker_0, # of connection points: 2
#     Edge 23, Type (0, 0), BuildingBlock: CIFDUS_clean_linker_0, # of connection points: 2
# Relax obj value: 0.171
# Max RMSD: 0.207
# Mean RMSD: 0.207
data_MOF--net-smk--node1-IZENUY_clean_sbu_0--edge1-CIFDUS_clean_linker_0
_symmetry_space_group_name_H-M    P1
_symmetry_Int_Tables_number       1
_symmetry_cell_setting            triclinic
loop_
_symmetry_equiv_pos_as_xyz
'x, y, z'
_cell_length_a     37.020377
_cell_length_b     37.012977
_cell_length_c     13.328012
_cell_angle_alpha  90.208719
_cell_angle_beta   90.001924
_cell_angle_gamma 119.75607
loop_
_atom_site_label
_atom_site_type_symbol
_atom_site_fract_x
_atom_site_fract_y
_atom_site_fract_z
_atom_type_partial_charge
Fe0 Fe 0.47691 0.26263 0.68346 0.0
Fe1 Fe 0.39454 0.19441 0.58938 0.0
O2 O 0.44972 0.22275 0.59357 0.0
Fe3 Fe 0.47857 0.2112 0.50603 0.0
O4 O 0.50013 0.19424 0.60559 0.0
O5 O 0.51996 0.25099 0.69644 0.0
O6 O 0.4522 0.22747 0.78608 0.0
C7 C 0.41369 0.20447 0.79937 0.0
C8 C 0.5289 0.29865 0.52698 0.0
O9 O 0.3879 0.19395 0.72728 0.0
C10 C 0.42016 0.2126 0.38518 0.0
O11 O 0.43826 0.28036 0.68826 0.0
O12 O 0.39089 0.24109 0.5769 0.0
O13 O 0.52459 0.26336 0.50662 0.0
O14 O 0.50416 0.30155 0.58692 0.0
C15 C 0.40871 0.13142 0.53884 0.0
O16 O 0.39235 0.19106 0.44971 0.0
O17 O 0.45839 0.22796 0.40448 0.0
C18 C 0.4067 0.27213 0.63499 0.0
O19 O 0.39295 0.14475 0.6023 0.0
O20 O 0.43868 0.15667 0.4852 0.0
C21 C 0.52209 0.21848 0.67534 0.0
Fe22 Fe 0.22894 0.47363 0.8632 0.0
Fe23 Fe 0.22142 0.39138 0.78999 0.0
O24 O 0.24495 0.44643 0.78212 0.0
Fe25 Fe 0.28426 0.47477 0.69298 0.0
O26 O 0.32187 0.50523 0.78967 0.0
O27 O 0.27985 0.52187 0.86669 0.0
O28 O 0.24558 0.45636 0.97075 0.0
C29 C 0.2298 0.41861 0.99483 0.0
C30 C 0.23524 0.51448 0.69011 0.0
O31 O 0.21397 0.39003 0.92846 0.0
C32 C 0.23033 0.40768 0.58024 0.0
O33 O 0.17514 0.43092 0.87663 0.0
O34 O 0.16968 0.38412 0.76706 0.0
O35 O 0.26936 0.5151 0.67406 0.0
O36 O 0.21124 0.49216 0.75887 0.0
C37 C 0.30201 0.41145 0.75527 0.0
O38 O 0.22479 0.38354 0.65333 0.0
O39 O 0.24934 0.4466 0.59148 0.0
C40 C 0.15307 0.39971 0.82166 0.0
O41 O 0.27095 0.39399 0.81276 0.0
O42 O 0.30594 0.43943 0.69451 0.0
C43 C 0.31634 0.52866 0.84891 0.0
Fe44 Fe 0.84268 0.20881 0.91844 0.0
Fe45 Fe 0.82531 0.27613 0.8374 0.0
O46 O 0.81362 0.23518 0.92262 0.0
Fe47 Fe 0.77283 0.22148 1.01022 0.0
O48 O 0.80722 0.23128 0.11477 0.0
O49 O 0.8426 0.20211 0.05613 0.0
O50 O 0.892 0.25676 0.9343 0.0
C51 C 0.90544 0.2864 0.87309 0.0
C52 C 0.76512 0.14271 0.95943 0.0
O53 O 0.88024 0.29141 0.81928 0.0
C54 C 0.73753 0.23831 0.85274 0.0
O55 O 0.84667 0.21072 0.77898 0.0
O56 O 0.80984 0.24024 0.73359 0.0
O57 O 0.75586 0.16543 1.0124 0.0
O58 O 0.79654 0.15849 0.90305 0.0
C59 C 0.81605 0.3104 1.00825 0.0
O60 O 0.77278 0.26957 0.83552 0.0
O61 O 0.73456 0.21037 0.91144 0.0
C62 C 0.82538 0.21743 0.71412 0.0
O63 O 0.84096 0.31354 0.93943 0.0
O64 O 0.78353 0.27567 0.02595 0.0
C65 C 0.83097 0.21645 0.12828 0.0
Fe66 Fe 0.65286 0.84177 0.11101 0.0
Fe67 Fe 0.56789 0.81908 0.01842 0.0
O68 O 0.59811 0.80827 0.10318 0.0
Fe69 Fe 0.57286 0.76349 0.17921 0.0
O70 O 0.58998 0.79455 0.2915 0.0
O71 O 0.65563 0.83468 0.24855 0.0
O72 O 0.64743 0.88678 0.13956 0.0
C73 C 0.62928 0.90007 0.08327 0.0
C74 C 0.64961 0.76667 0.13224 0.0
O75 O 0.60189 0.87601 0.02134 0.0
C76 C 0.52919 0.73076 1.0084 0.0
O77 O 0.65897 0.85385 0.97457 0.0
O78 O 0.59571 0.81392 0.91343 0.0
O79 O 0.61681 0.75348 0.18399 0.0
O80 O 0.66342 0.79992 0.08294 0.0
C81 C 0.51658 0.79506 0.17903 0.0
O82 O 0.52784 0.76409 0.99774 0.0
O83 O 0.554 0.72927 0.07064 0.0
C84 C 0.6346 0.83487 0.90152 0.0
O85 O 0.53831 0.82458 0.12004 0.0
O86 O 0.5241 0.76537 0.19032 0.0
C87 C 0.6274 0.81867 0.31517 0.0
Fe88 Fe 0.83616 0.63873 0.2668 0.0
Fe89 Fe 0.76076 0.55622 0.19599 0.0
O90 O 0.80381 0.58378 0.27652 0.0
Fe91 Fe 0.81431 0.55573 0.36797 0.0
O92 O 0.80539 0.58385 0.46634 0.0
O93 O 0.84604 0.64657 0.40442 0.0
O94 O 0.79267 0.64789 0.28589 0.0
C95 C 0.75911 0.63086 0.23647 0.0
C96 C 0.89568 0.61849 0.31112 0.0
O97 O 0.74831 0.5982 0.1854 0.0
C98 C 0.79566 0.50293 0.21046 0.0
O99 O 0.83066 0.64 0.1284 0.0
O100 O 0.79386 0.57371 0.08747 0.0
O101 O 0.87059 0.59182 0.37235 0.0
O102 O 0.88271 0.63437 0.24676 0.0
C103 C 0.72604 0.51375 0.36656 0.0
O104 O 0.76542 0.50891 0.19151 0.0
O105 O 0.82349 0.52592 0.27263 0.0
C106 C 0.8161 0.61123 0.06263 0.0
O107 O 0.72446 0.5369 0.29998 0.0
O108 O 0.75987 0.51413 0.38349 0.0
C109 C 0.8258 0.62287 0.47712 0.0
Fe110 Fe 0.20235 0.81766 0.42101 0.0
Fe111 Fe 0.22689 0.75597 0.33238 0.0
O112 O 0.23342 0.7935 0.42399 0.0
Fe113 Fe 0.27171 0.80701 0.51805 0.0
O114 O 0.2329 0.78924 0.61542 0.0
O115 O 0.20025 0.82146 0.55983 0.0
O116 O 0.15454 0.76792 0.42918 0.0
C117 C 0.14378 0.73902 0.36571 0.0
C118 C 0.2766 0.88434 0.47717 0.0
O119 O 0.17079 0.73622 0.31304 0.0
C120 C 0.31456 0.80247 0.35817 0.0
O121 O 0.19938 0.81794 0.28165 0.0
O122 O 0.2403 0.79358 0.23368 0.0
O123 O 0.28268 0.86068 0.53402 0.0
O124 O 0.24784 0.86957 0.41265 0.0
C125 C 0.23926 0.71978 0.49464 0.0
O126 O 0.28194 0.76928 0.33255 0.0
O127 O 0.31307 0.82585 0.42524 0.0
C128 C 0.22191 0.81377 0.21577 0.0
O129 O 0.21362 0.71585 0.427 0.0
O130 O 0.26778 0.7556 0.52121 0.0
C131 C 0.20879 0.80365 0.63002 0.0
H132 H 0.37438 0.1505 0.25095 0.0
H133 H 0.44433 0.28382 0.28649 0.0
H134 H 0.44292 0.29281 0.10553 0.0
H135 H 0.43157 0.26299 0.93748 0.0
H136 H 0.36507 0.13009 0.89579 0.0
H137 H 0.35474 0.12031 0.07842 0.0
C138 C 0.38794 0.18139 0.21879 0.0
C139 C 0.40917 0.21657 0.2813 0.0
C140 C 0.38827 0.18626 0.11373 0.0
C141 C 0.4276 0.25648 0.23937 0.0
C142 C 0.42707 0.26159 0.13603 0.0
C143 C 0.41404 0.23189 0.9685 0.0
C144 C 0.39936 0.19728 0.90433 0.0
C145 C 0.40902 0.22676 0.07251 0.0
C146 C 0.37651 0.15712 0.94435 0.0
C147 C 0.37091 0.15162 0.04861 0.0
H148 H 0.18997 0.4275 0.44544 0.0
H149 H 0.25115 0.35536 0.48229 0.0
H150 H 0.25238 0.34737 0.29921 0.0
H151 H 0.24566 0.37109 0.12788 0.0
H152 H 0.18581 0.44513 0.09852 0.0
H153 H 0.17387 0.44178 0.27844 0.0
C154 C 0.20238 0.40893 0.41323 0.0
C155 C 0.22042 0.39207 0.47635 0.0
C156 C 0.20381 0.40544 0.30889 0.0
C157 C 0.23664 0.36819 0.43461 0.0
C158 C 0.23781 0.36412 0.32998 0.0
C159 C 0.22927 0.3856 0.16119 0.0
C160 C 0.21731 0.409 0.10078 0.0
C161 C 0.22299 0.38411 0.26609 0.0
C162 C 0.19593 0.42761 0.14417 0.0
C163 C 0.18903 0.42568 0.24696 0.0
H164 H 0.77308 0.17688 0.26717 0.0
H165 H 0.90575 0.242 0.22396 0.0
H166 H 0.91638 0.24223 0.4065 0.0
H167 H 0.88697 0.23277 0.57936 0.0
H168 H 0.75383 0.17044 0.61627 0.0
H169 H 0.74404 0.15931 0.4355 0.0
C170 C 0.80431 0.19036 0.29783 0.0
C171 C 0.83862 0.20974 0.23327 0.0
C172 C 0.80992 0.19087 0.40178 0.0
C173 C 0.87896 0.22687 0.27284 0.0
C174 C 0.88494 0.2272 0.37704 0.0
C175 C 0.85595 0.21553 0.54753 0.0
C176 C 0.82106 0.20213 0.61035 0.0
C177 C 0.8506 0.21051 0.44256 0.0
C178 C 0.78096 0.18069 0.56888 0.0
C179 C 0.77539 0.17462 0.46565 0.0
H180 H 0.67034 0.88407 0.44734 0.0
H181 H 0.60688 0.75027 0.42129 0.0
H182 H 0.60922 0.74369 0.60231 0.0
H183 H 0.61929 0.77493 0.76841 0.0
H184 H 0.68191 0.90811 0.80154 0.0
H185 H 0.69061 0.91627 0.61851 0.0
C186 C 0.65812 0.85371 0.48161 0.0
C187 C 0.63797 0.81766 0.42156 0.0
C188 C 0.65901 0.85003 0.5871 0.0
C189 C 0.62208 0.77839 0.46644 0.0
C190 C 0.62332 0.77455 0.56992 0.0
C191 C 0.63594 0.80574 0.73548 0.0
C192 C 0.64994 0.84082 0.79747 0.0
C193 C 0.64021 0.80999 0.63107 0.0
C194 C 0.6713 0.88067 0.75475 0.0
C195 C 0.67584 0.88527 0.65014 0.0
H196 H 0.766 0.60196 0.61305 0.0
H197 H 0.89843 0.67697 0.57407 0.0
H198 H 0.90807 0.68472 0.75701 0.0
H199 H 0.87855 0.66008 0.92881 0.0
H200 H 0.7455 0.58329 0.95962 0.0
H201 H 0.73626 0.58674 0.78023 0.0
C202 C 0.79685 0.62107 0.64475 0.0
C203 C 0.83142 0.63861 0.58099 0.0
C204 C 0.80204 0.62445 0.74898 0.0
C205 C 0.87131 0.66334 0.62217 0.0
C206 C 0.87682 0.66733 0.72675 0.0
C207 C 0.84766 0.64495 0.89595 0.0
C208 C 0.81281 0.62074 0.9567 0.0
C209 C 0.84247 0.64651 0.79119 0.0
C210 C 0.77283 0.6014 0.91379 0.0
C211 C 0.76744 0.60339 0.81127 0.0
H212 H 0.15732 0.78889 0.08449 0.0
H213 H 0.29029 0.86608 0.11291 0.0
H214 H 0.29702 0.87407 0.93096 0.0
H215 H 0.26662 0.8503 0.76451 0.0
H216 H 0.13443 0.77041 0.73096 0.0
H217 H 0.12543 0.77222 0.91371 0.0
C218 C 0.18745 0.80865 0.05053 0.0
C219 C 0.2233 0.82735 0.11145 0.0
C220 C 0.1912 0.81178 0.94509 0.0
C221 C 0.26237 0.85192 0.06712 0.0
C222 C 0.26624 0.85613 0.9632 0.0
C223 C 0.23576 0.83401 0.79733 0.0
C224 C 0.20123 0.81006 0.73545 0.0
C225 C 0.23114 0.83486 0.90153 0.0
C226 C 0.16135 0.78909 0.77777 0.0
C227 C 0.15633 0.79 0.88208 0.0
H228 H 0.3606 0.06561 0.65976 0.0
H229 H 0.40786 0.09675 0.35788 0.0
H230 H 0.36933 0.02343 0.3097 0.0
H231 H 0.32177 0.94978 0.35317 0.0
H232 H 0.27926 0.91833 0.65802 0.0
H233 H 0.3158 0.992 0.70504 0.0
C234 C 0.36251 0.05625 0.58361 0.0
C235 C 0.38707 0.08657 0.51273 0.0
C236 C 0.34083 1.01387 0.55668 0.0
C237 C 0.38949 0.07399 0.41433 0.0
C238 C 0.36725 0.03206 0.38639 0.0
C239 C 0.32043 0.95931 0.42951 0.0
C240 C 0.29771 0.92904 0.50192 0.0
C241 C 0.3427 1.00168 0.45679 0.0
C242 C 0.29661 0.94136 0.60117 0.0
C243 C 0.3175 0.9834 0.62808 0.0
H244 H 0.43586 0.3548 0.67939 0.0
H245 H 0.32314 0.23724 0.63712 0.0
H246 H 0.28136 0.2693 0.67849 0.0
H247 H 0.27614 0.3305 0.72509 0.0
H248 H 0.38709 0.45017 0.74972 0.0
H249 H 0.43025 0.41789 0.71757 0.0
C250 C 0.40217 0.33641 0.67896 0.0
C251 C 0.38268 0.29371 0.65487 0.0
C252 C 0.37801 0.35539 0.70041 0.0
C253 C 0.33897 0.27024 0.65412 0.0
C254 C 0.31497 0.28847 0.67845 0.0
C255 C 0.30982 0.34937 0.72466 0.0
C256 C 0.32858 0.39238 0.74196 0.0
C257 C 0.33408 0.33093 0.70179 0.0
C258 C 0.37212 0.41683 0.73794 0.0
C259 C 0.3967 0.3984 0.7192 0.0
H260 H 0.97021 0.29358 0.98678 0.0
H261 H 0.94253 0.33403 0.70828 0.0
H262 H 1.01618 0.37098 0.66502 0.0
H263 H 0.08922 0.39192 0.7055 0.0
H264 H 0.11728 0.3547 0.98726 0.0
H265 H 0.04316 0.31631 0.02972 0.0
C266 C 0.98031 0.3106 0.91682 0.0
C267 C 0.95072 0.31094 0.85112 0.0
C268 C 1.02294 0.33219 0.8925 0.0
C269 C 0.96451 0.33339 0.76087 0.0
C270 C 1.0067 0.35442 0.7356 0.0
C271 C 0.07882 0.37507 0.77563 0.0
C272 C 0.1082 0.37541 0.84268 0.0
C273 C 0.03623 0.35393 0.80054 0.0
C274 C 0.09485 0.35429 0.9343 0.0
C275 C 0.05258 0.33252 0.95867 0.0
H276 H 0.70918 0.95444 0.04346 0.0
H277 H 0.59026 0.94647 0.08731 0.0
H278 H 0.62152 0.02149 0.05463 0.0
H279 H 0.68348 0.08959 1.01118 0.0
H280 H 0.79998 0.09365 0.95039 0.0
H281 H 0.76902 0.02022 0.99115 0.0
C282 C 0.69029 0.96934 0.04711 0.0
C283 C 0.64783 0.94547 0.07014 0.0
C284 C 0.70804 1.01176 0.02392 0.0
C285 C 0.62323 0.9646 0.07129 0.0
C286 C 0.64107 1.00736 0.05216 0.0
C287 C 0.70188 0.07422 1.00639 0.0
C288 C 0.74398 0.09716 0.97739 0.0
C289 C 0.68352 0.03131 0.02784 0.0
C290 C 0.76741 0.07675 0.97117 0.0
C291 C 0.74983 0.03474 0.99521 0.0
H292 H 0.78473 0.71041 0.18144 0.0
H293 H 0.67625 0.59595 0.26781 0.0
H294 H 0.63238 0.62757 0.24288 0.0
H295 H 0.62487 0.68768 0.19442 0.0
H296 H 0.73272 0.80039 0.09451 0.0
H297 H 0.77663 0.76953 0.12512 0.0
C298 C 0.75156 0.69273 0.19592 0.0
C299 C 0.7337 0.6513 0.22831 0.0
C300 C 0.72636 0.71063 0.17755 0.0
C301 C 0.69058 0.62811 0.24402 0.0
C302 C 0.66553 0.6461 0.22932 0.0
C303 C 0.65795 0.70542 0.17888 0.0
C304 C 0.67539 0.74634 0.14234 0.0
C305 C 0.68303 0.68728 0.19551 0.0
C306 C 0.71832 0.76875 0.12197 0.0
C307 C 0.74357 0.75122 0.14014 0.0
H308 H 0.96182 0.64588 0.18129 0.0
H309 H 0.93045 0.63652 0.49534 0.0
H310 H 1.0039 0.67263 0.54061 0.0
H311 H 0.07757 0.70869 0.49168 0.0
H312 H 0.10998 0.71278 0.17979 0.0
H313 H 0.03625 0.67678 0.13313 0.0
C314 C 0.97124 0.65168 0.25942 0.0
C315 C 0.94073 0.63879 0.3347 0.0
C316 C 1.01385 0.67143 0.2855 0.0
C317 C 0.9533 0.64606 0.43588 0.0
C318 C 0.99535 0.6668 0.462 0.0
C319 C 0.06839 0.70132 0.41366 0.0
C320 C 0.09912 0.7134 0.33942 0.0
C321 C 0.02594 0.67982 0.38758 0.0
C322 C 0.08685 0.70346 0.23854 0.0
C323 C 0.04468 0.68311 0.21169 0.0
H324 H 0.5442 0.3785 0.49942 0.0
H325 H 0.60291 0.30271 0.49514 0.0
H326 H 0.66931 0.36311 0.45341 0.0
H327 H 0.71067 0.43672 0.41346 0.0
H328 H 0.65283 0.51299 0.40317 0.0
H329 H 0.58638 0.45348 0.4559 0.0
C330 C 0.5716 0.37539 0.4893 0.0
C331 C 0.56849 0.33611 0.49973 0.0
C332 C 0.60991 0.41036 0.46318 0.0
C333 C 0.60422 0.33243 0.48616 0.0
C334 C 0.64236 0.36701 0.46288 0.0
C335 C 0.68369 0.44052 0.42418 0.0
C336 C 0.6867 0.47925 0.40585 0.0
C337 C 0.64554 0.40603 0.4508 0.0
C338 C 0.65122 0.48344 0.41753 0.0
C339 C 0.61326 0.44942 0.44733 0.0
H340 H 0.29326 0.59041 0.62587 0.0
H341 H 0.16063 0.51079 0.65409 0.0
H342 H 0.14932 0.56647 0.58996 0.0
H343 H 0.17794 0.63964 0.5332 0.0
H344 H 0.31119 0.71938 0.52029 0.0
H345 H 0.32142 0.66202 0.57065 0.0
C346 C 0.26183 0.585 0.61665 0.0
C347 C 0.22783 0.5465 0.64382 0.0
C348 C 0.25571 0.61745 0.58328 0.0
C349 C 0.18732 0.54025 0.63341 0.0
C350 C 0.18086 0.57208 0.59698 0.0
C351 C 0.20908 0.64419 0.54119 0.0
C352 C 0.2437 0.68371 0.5238 0.0
C353 C 0.21489 0.61109 0.5729 0.0
C354 C 0.284 0.68938 0.53464 0.0
C355 C 0.28994 0.65656 0.56299 0.0
H356 H 0.65851 0.17356 0.81754 0.0
H357 H 0.73219 0.30767 0.82164 0.0
H358 H 0.67161 0.31309 0.77462 0.0
H359 H 0.5983 0.28042 0.72809 0.0
H360 H 0.52445 0.14677 0.70974 0.0
H361 H 0.58409 0.14042 0.76695 0.0
C362 C 0.66113 0.20387 0.80813 0.0
C363 C 0.6999 0.2401 0.82259 0.0
C364 C 0.62608 0.20689 0.77887 0.0
C365 C 0.70291 0.27923 0.80975 0.0
C366 C 0.6682 0.28244 0.78338 0.0
C367 C 0.59507 0.24986 0.73792 0.0
C368 C 0.55693 0.2141 0.71606 0.0
C369 C 0.62972 0.24656 0.76736 0.0
C370 C 0.55352 0.17475 0.72667 0.0
C371 C 0.58762 0.17114 0.75914 0.0
H372 H 0.44903 0.71083 0.98388 0.0
H373 H 0.53204 0.66145 0.94859 0.0
H374 H 0.47362 0.5943 0.89455 0.0
H375 H 0.39826 0.54921 0.86096 0.0
H376 H 0.31558 0.5985 0.90954 0.0
H377 H 0.37437 0.6658 0.95551 0.0
C378 C 0.45443 0.68554 0.96292 0.0
C379 C 0.49484 0.69122 0.96846 0.0
C380 C 0.42059 0.64679 0.93556 0.0
C381 C 0.5012 0.65784 0.94395 0.0
C382 C 0.4678 0.61946 0.91347 0.0
C383 C 0.39317 0.57469 0.88185 0.0
C384 C 0.35248 0.56866 0.88188 0.0
C385 C 0.42724 0.61345 0.90976 0.0
C386 C 0.34642 0.60199 0.90965 0.0
C387 C 0.38009 0.64067 0.93541 0.0
H388 H 0.86 0.4881 0.17489 0.0
H389 H 0.72611 0.43021 0.16571 0.0
H390 H 0.72073 0.3651 0.10894 0.0
H391 H 0.75362 0.32466 0.05865 0.0
H392 H 0.88736 0.38273 0.05376 0.0
H393 H 0.89333 0.44749 0.1196 0.0
C394 C 0.82973 0.46116 0.16046 0.0
C395 C 0.79356 0.46406 0.17424 0.0
C396 C 0.82681 0.42379 0.12564 0.0
C397 C 0.75449 0.429 0.15468 0.0
C398 C 0.75132 0.39162 0.12269 0.0
C399 C 0.78407 0.35135 0.07316 0.0
C400 C 0.82 0.34885 0.05275 0.0
C401 C 0.78721 0.38867 0.10768 0.0
C402 C 0.85927 0.38396 0.06947 0.0
C403 C 0.86267 0.42095 0.1069 0.0
H404 H 0.49743 0.85634 0.21575 0.0
H405 H 0.44687 0.72329 0.22939 0.0
H406 H 0.37994 0.71411 0.28296 0.0
H407 H 0.33516 0.74331 0.32286 0.0
H408 H 0.38556 0.87624 0.32162 0.0
H409 H 0.45312 0.88613 0.26596 0.0
C410 C 0.47177 0.82541 0.23095 0.0
C411 C 0.47717 0.79058 0.21842 0.0
C412 C 0.43329 0.82031 0.26323 0.0
C413 C 0.44373 0.75068 0.23912 0.0
C414 C 0.40531 0.74533 0.26921 0.0
C415 C 0.3609 0.77445 0.3098 0.0
C416 C 0.35538 0.809 0.32468 0.0
C417 C 0.39966 0.77983 0.28076 0.0
C418 C 0.38916 0.84921 0.30999 0.0
C419 C 0.4277 0.85482 0.27828 0.0
loop_
_geom_bond_atom_site_label_1
_geom_bond_atom_site_label_2
_geom_bond_distance
_geom_bond_site_symmetry_2
_ccdc_geom_bond_type
Fe0 O2 1.918 . S
Fe0 O5 1.997 . S
Fe0 O6 2.002 . S
Fe0 O11 1.976 . S
Fe0 O14 1.996 . S
Fe1 O2 1.918 . S
Fe1 O9 1.997 . S
Fe1 O12 1.996 . S
Fe1 O16 1.976 . S
Fe1 O19 2.002 . S
O2 Fe0 1.918 . S
O2 Fe1 1.918 . S
O2 Fe3 1.918 . S
Fe3 O2 1.918 . S
Fe3 O4 2.002 . S
Fe3 O13 1.976 . S
Fe3 O17 1.996 . S
Fe3 O20 1.997 . S
O4 Fe3 2.002 . S
O4 C21 1.295 . S
O5 Fe0 1.997 . S
O5 C21 1.235 . S
O6 Fe0 2.002 . S
O6 C7 1.295 . S
C7 O6 1.295 . S
C7 O9 1.235 . S
C8 O13 1.287 . S
C8 O14 1.255 . S
O9 Fe1 1.997 . S
O9 C7 1.235 . S
C10 O16 1.287 . S
C10 O17 1.255 . S
O11 Fe0 1.976 . S
O11 C18 1.287 . S
O12 Fe1 1.996 . S
O12 C18 1.255 . S
O13 Fe3 1.976 . S
O13 C8 1.287 . S
O14 Fe0 1.996 . S
O14 C8 1.255 . S
C15 O19 1.295 . S
C15 O20 1.235 . S
O16 Fe1 1.976 . S
O16 C10 1.287 . S
O17 Fe3 1.996 . S
O17 C10 1.255 . S
C18 O11 1.287 . S
C18 O12 1.255 . S
O19 Fe1 2.002 . S
O19 C15 1.295 . S
O20 Fe3 1.997 . S
O20 C15 1.235 . S
C21 O4 1.295 . S
C21 O5 1.235 . S
Fe22 O24 1.918 . S
Fe22 O27 1.997 . S
Fe22 O28 2.002 . S
Fe22 O33 1.976 . S
Fe22 O36 1.996 . S
Fe23 O24 1.918 . S
Fe23 O31 1.997 . S
Fe23 O34 1.996 . S
Fe23 O38 1.976 . S
Fe23 O41 2.002 . S
O24 Fe22 1.918 . S
O24 Fe23 1.918 . S
O24 Fe25 1.918 . S
Fe25 O24 1.918 . S
Fe25 O26 2.002 . S
Fe25 O35 1.976 . S
Fe25 O39 1.996 . S
Fe25 O42 1.997 . S
O26 Fe25 2.002 . S
O26 C43 1.295 . S
O27 Fe22 1.997 . S
O27 C43 1.235 . S
O28 Fe22 2.002 . S
O28 C29 1.295 . S
C29 O28 1.295 . S
C29 O31 1.235 . S
C30 O35 1.287 . S
C30 O36 1.255 . S
O31 Fe23 1.997 . S
O31 C29 1.235 . S
C32 O38 1.287 . S
C32 O39 1.255 . S
O33 Fe22 1.976 . S
O33 C40 1.287 . S
O34 Fe23 1.996 . S
O34 C40 1.255 . S
O35 Fe25 1.976 . S
O35 C30 1.287 . S
O36 Fe22 1.996 . S
O36 C30 1.255 . S
C37 O41 1.295 . S
C37 O42 1.235 . S
O38 Fe23 1.976 . S
O38 C32 1.287 . S
O39 Fe25 1.996 . S
O39 C32 1.255 . S
C40 O33 1.287 . S
C40 O34 1.255 . S
O41 Fe23 2.002 . S
O41 C37 1.295 . S
O42 Fe25 1.997 . S
O42 C37 1.235 . S
C43 O26 1.295 . S
C43 O27 1.235 . S
Fe44 O46 1.918 . S
Fe44 O49 1.997 1_556 S
Fe44 O50 2.002 . S
Fe44 O55 1.976 . S
Fe44 O58 1.996 . S
Fe45 O46 1.918 . S
Fe45 O53 1.997 . S
Fe45 O56 1.996 . S
Fe45 O60 1.976 . S
Fe45 O63 2.002 . S
O46 Fe44 1.918 . S
O46 Fe45 1.918 . S
O46 Fe47 1.918 1_556 S
Fe47 O46 1.918 1_554 S
Fe47 O48 2.002 . S
Fe47 O57 1.976 1_554 S
Fe47 O61 1.996 1_554 S
Fe47 O64 1.997 . S
O48 Fe47 2.002 . S
O48 C65 1.295 . S
O49 Fe44 1.997 1_554 S
O49 C65 1.235 . S
O50 Fe44 2.002 . S
O50 C51 1.295 . S
C51 O50 1.295 . S
C51 O53 1.235 . S
C52 O57 1.287 . S
C52 O58 1.255 . S
O53 Fe45 1.997 . S
O53 C51 1.235 . S
C54 O60 1.287 . S
C54 O61 1.255 . S
O55 Fe44 1.976 . S
O55 C62 1.287 . S
O56 Fe45 1.996 . S
O56 C62 1.255 . S
O57 Fe47 1.976 1_556 S
O57 C52 1.287 . S
O58 Fe44 1.996 . S
O58 C52 1.255 . S
C59 O63 1.295 . S
C59 O64 1.235 1_556 S
O60 Fe45 1.976 . S
O60 C54 1.287 . S
O61 Fe47 1.996 1_556 S
O61 C54 1.255 . S
C62 O55 1.287 . S
C62 O56 1.255 . S
O63 Fe45 2.002 . S
O63 C59 1.295 . S
O64 Fe47 1.997 . S
O64 C59 1.235 1_554 S
C65 O48 1.295 . S
C65 O49 1.235 . S
Fe66 O68 1.918 . S
Fe66 O71 1.997 . S
Fe66 O72 2.002 . S
Fe66 O77 1.976 1_554 S
Fe66 O80 1.996 . S
Fe67 O68 1.918 1_556 S
Fe67 O75 1.997 1_556 S
Fe67 O78 1.996 . S
Fe67 O82 1.976 . S
Fe67 O85 2.002 1_556 S
O68 Fe66 1.918 . S
O68 Fe67 1.918 1_554 S
O68 Fe69 1.918 . S
Fe69 O68 1.918 . S
Fe69 O70 2.002 . S
Fe69 O79 1.976 . S
Fe69 O83 1.996 . S
Fe69 O86 1.997 . S
O70 Fe69 2.002 . S
O70 C87 1.295 . S
O71 Fe66 1.997 . S
O71 C87 1.235 . S
O72 Fe66 2.002 . S
O72 C73 1.295 . S
C73 O72 1.295 . S
C73 O75 1.235 . S
C74 O79 1.287 . S
C74 O80 1.255 . S
O75 Fe67 1.997 1_554 S
O75 C73 1.235 . S
C76 O82 1.290 . S
C76 O83 1.247 1_556 S
O77 Fe66 1.976 1_556 S
O77 C84 1.287 . S
O78 Fe67 1.996 . S
O78 C84 1.255 . S
O79 Fe69 1.976 . S
O79 C74 1.287 . S
O80 Fe66 1.996 . S
O80 C74 1.255 . S
C81 O85 1.295 . S
C81 O86 1.235 . S
O82 Fe67 1.976 . S
O82 C76 1.290 . S
O83 Fe69 1.996 . S
O83 C76 1.247 1_554 S
C84 O77 1.287 . S
C84 O78 1.255 . S
O85 Fe67 2.002 1_554 S
O85 C81 1.295 . S
O86 Fe69 1.997 . S
O86 C81 1.235 . S
C87 O70 1.295 . S
C87 O71 1.235 . S
Fe88 O90 1.918 . S
Fe88 O93 1.997 . S
Fe88 O94 2.002 . S
Fe88 O99 1.976 . S
Fe88 O102 1.996 . S
Fe89 O90 1.918 . S
Fe89 O97 1.997 . S
Fe89 O100 1.996 . S
Fe89 O104 1.976 . S
Fe89 O107 2.002 . S
O90 Fe88 1.918 . S
O90 Fe89 1.918 . S
O90 Fe91 1.918 . S
Fe91 O90 1.918 . S
Fe91 O92 2.002 . S
Fe91 O101 1.976 . S
Fe91 O105 1.996 . S
Fe91 O108 1.997 . S
O92 Fe91 2.002 . S
O92 C109 1.295 . S
O93 Fe88 1.997 . S
O93 C109 1.235 . S
O94 Fe88 2.002 . S
O94 C95 1.295 . S
C95 O94 1.295 . S
C95 O97 1.235 . S
C96 O101 1.287 . S
C96 O102 1.255 . S
O97 Fe89 1.997 . S
O97 C95 1.235 . S
C98 O104 1.287 . S
C98 O105 1.255 . S
O99 Fe88 1.976 . S
O99 C106 1.287 . S
O100 Fe89 1.996 . S
O100 C106 1.255 . S
O101 Fe91 1.976 . S
O101 C96 1.287 . S
O102 Fe88 1.996 . S
O102 C96 1.255 . S
C103 O107 1.295 . S
C103 O108 1.235 . S
O104 Fe89 1.976 . S
O104 C98 1.287 . S
O105 Fe91 1.996 . S
O105 C98 1.255 . S
C106 O99 1.287 . S
C106 O100 1.255 . S
O107 Fe89 2.002 . S
O107 C103 1.295 . S
O108 Fe91 1.997 . S
O108 C103 1.235 . S
C109 O92 1.295 . S
C109 O93 1.235 . S
Fe110 O112 1.918 . S
Fe110 O115 1.997 . S
Fe110 O116 2.002 . S
Fe110 O121 1.976 . S
Fe110 O124 1.996 . S
Fe111 O112 1.918 . S
Fe111 O119 1.997 . S
Fe111 O122 1.996 . S
Fe111 O126 1.976 . S
Fe111 O129 2.002 . S
O112 Fe110 1.918 . S
O112 Fe111 1.918 . S
O112 Fe113 1.918 . S
Fe113 O112 1.918 . S
Fe113 O114 2.002 . S
Fe113 O123 1.976 . S
Fe113 O127 1.996 . S
Fe113 O130 1.997 . S
O114 Fe113 2.002 . S
O114 C131 1.295 . S
O115 Fe110 1.997 . S
O115 C131 1.235 . S
O116 Fe110 2.002 . S
O116 C117 1.295 . S
C117 O116 1.295 . S
C117 O119 1.235 . S
C118 O123 1.287 . S
C118 O124 1.255 . S
O119 Fe111 1.997 . S
O119 C117 1.235 . S
C120 O126 1.287 . S
C120 O127 1.255 . S
O121 Fe110 1.976 . S
O121 C128 1.287 . S
O122 Fe111 1.996 . S
O122 C128 1.255 . S
O123 Fe113 1.976 . S
O123 C118 1.287 . S
O124 Fe110 1.996 . S
O124 C118 1.255 . S
C125 O129 1.295 . S
C125 O130 1.235 . S
O126 Fe111 1.976 . S
O126 C120 1.287 . S
O127 Fe113 1.996 . S
O127 C120 1.255 . S
C128 O121 1.287 . S
C128 O122 1.255 . S
O129 Fe111 2.002 . S
O129 C125 1.295 . S
O130 Fe113 1.997 . S
O130 C125 1.235 . S
C131 O114 1.295 . S
C131 O115 1.235 . S
H132 C138 0.930 . S
H133 C141 0.930 . S
H134 C142 0.930 . S
H135 C143 0.930 . S
H136 C146 0.930 . S
H137 C147 0.930 . S
C138 H132 0.930 . S
C138 C139 1.355 . S
C138 C140 1.415 . S
C139 C138 1.355 . S
C139 C141 1.419 . S
C140 C138 1.415 . S
C140 C145 1.425 . S
C140 C147 1.409 . S
C141 H133 0.930 . S
C141 C139 1.419 . S
C141 C142 1.362 . S
C142 H134 0.930 . S
C142 C141 1.362 . S
C142 C145 1.409 . S
C143 H135 0.930 . S
C143 C144 1.355 . S
C143 C145 1.415 1_556 S
C144 C143 1.355 . S
C144 C146 1.419 . S
C145 C140 1.425 . S
C145 C142 1.409 . S
C145 C143 1.415 1_554 S
C146 H136 0.930 . S
C146 C144 1.419 . S
C146 C147 1.362 1_556 S
C147 H137 0.930 . S
C147 C140 1.409 . S
C147 C146 1.362 1_554 S
H148 C154 0.930 . S
H149 C157 0.930 . S
H150 C158 0.930 . S
H151 C159 0.930 . S
H152 C162 0.930 . S
H153 C163 0.930 . S
C154 H148 0.930 . S
C154 C155 1.355 . S
C154 C156 1.415 . S
C155 C154 1.355 . S
C155 C157 1.419 . S
C156 C154 1.415 . S
C156 C161 1.425 . S
C156 C163 1.409 . S
C157 H149 0.930 . S
C157 C155 1.419 . S
C157 C158 1.362 . S
C158 H150 0.930 . S
C158 C157 1.362 . S
C158 C161 1.409 . S
C159 H151 0.930 . S
C159 C160 1.355 . S
C159 C161 1.415 . S
C160 C159 1.355 . S
C160 C162 1.419 . S
C161 C156 1.425 . S
C161 C158 1.409 . S
C161 C159 1.415 . S
C162 H152 0.930 . S
C162 C160 1.419 . S
C162 C163 1.362 . S
C163 H153 0.930 . S
C163 C156 1.409 . S
C163 C162 1.362 . S
H164 C170 0.930 . S
H165 C173 0.930 . S
H166 C174 0.930 . S
H167 C175 0.930 . S
H168 C178 0.930 . S
H169 C179 0.930 . S
C170 H164 0.930 . S
C170 C171 1.355 . S
C170 C172 1.415 . S
C171 C170 1.355 . S
C171 C173 1.419 . S
C172 C170 1.415 . S
C172 C177 1.425 . S
C172 C179 1.409 . S
C173 H165 0.930 . S
C173 C171 1.419 . S
C173 C174 1.362 . S
C174 H166 0.930 . S
C174 C173 1.362 . S
C174 C177 1.409 . S
C175 H167 0.930 . S
C175 C176 1.355 . S
C175 C177 1.415 . S
C176 C175 1.355 . S
C176 C178 1.419 . S
C177 C172 1.425 . S
C177 C174 1.409 . S
C177 C175 1.415 . S
C178 H168 0.930 . S
C178 C176 1.419 . S
C178 C179 1.362 . S
C179 H169 0.930 . S
C179 C172 1.409 . S
C179 C178 1.362 . S
H180 C186 0.930 . S
H181 C189 0.930 . S
H182 C190 0.930 . S
H183 C191 0.930 . S
H184 C194 0.930 . S
H185 C195 0.930 . S
C186 H180 0.930 . S
C186 C187 1.355 . S
C186 C188 1.415 . S
C187 C186 1.355 . S
C187 C189 1.419 . S
C188 C186 1.415 . S
C188 C193 1.425 . S
C188 C195 1.409 . S
C189 H181 0.930 . S
C189 C187 1.419 . S
C189 C190 1.362 . S
C190 H182 0.930 . S
C190 C189 1.362 . S
C190 C193 1.409 . S
C191 H183 0.930 . S
C191 C192 1.355 . S
C191 C193 1.415 . S
C192 C191 1.355 . S
C192 C194 1.419 . S
C193 C188 1.425 . S
C193 C190 1.409 . S
C193 C191 1.415 . S
C194 H184 0.930 . S
C194 C192 1.419 . S
C194 C195 1.362 . S
C195 H185 0.930 . S
C195 C188 1.409 . S
C195 C194 1.362 . S
H196 C202 0.930 . S
H197 C205 0.930 . S
H198 C206 0.930 . S
H199 C207 0.930 . S
H200 C210 0.930 . S
H201 C211 0.930 . S
C202 H196 0.930 . S
C202 C203 1.355 . S
C202 C204 1.415 . S
C203 C202 1.355 . S
C203 C205 1.419 . S
C204 C202 1.415 . S
C204 C209 1.425 . S
C204 C211 1.409 . S
C205 H197 0.930 . S
C205 C203 1.419 . S
C205 C206 1.362 . S
C206 H198 0.930 . S
C206 C205 1.362 . S
C206 C209 1.409 . S
C207 H199 0.930 . S
C207 C208 1.355 . S
C207 C209 1.415 . S
C208 C207 1.355 . S
C208 C210 1.419 . S
C209 C204 1.425 . S
C209 C206 1.409 . S
C209 C207 1.415 . S
C210 H200 0.930 . S
C210 C208 1.419 . S
C210 C211 1.362 . S
C211 H201 0.930 . S
C211 C204 1.409 . S
C211 C210 1.362 . S
H212 C218 0.930 . S
H213 C221 0.930 . S
H214 C222 0.930 . S
H215 C223 0.930 . S
H216 C226 0.930 . S
H217 C227 0.930 . S
C218 H212 0.930 . S
C218 C219 1.355 . S
C218 C220 1.415 1_554 S
C219 C218 1.355 . S
C219 C221 1.419 . S
C220 C218 1.415 1_556 S
C220 C225 1.425 . S
C220 C227 1.409 . S
C221 H213 0.930 . S
C221 C219 1.419 . S
C221 C222 1.362 1_554 S
C222 H214 0.930 . S
C222 C221 1.362 1_556 S
C222 C225 1.409 . S
C223 H215 0.930 . S
C223 C224 1.355 . S
C223 C225 1.415 . S
C224 C223 1.355 . S
C224 C226 1.419 . S
C225 C220 1.425 . S
C225 C222 1.409 . S
C225 C223 1.415 . S
C226 H216 0.930 . S
C226 C224 1.419 . S
C226 C227 1.362 . S
C227 H217 0.930 . S
C227 C220 1.409 . S
C227 C226 1.362 . S
H228 C234 0.930 . S
H229 C237 0.930 . S
H230 C238 0.930 . S
H231 C239 0.930 . S
H232 C242 0.930 . S
H233 C243 0.930 . S
C234 H228 0.930 . S
C234 C235 1.355 . S
C234 C236 1.415 . S
C235 C234 1.355 . S
C235 C237 1.419 . S
C236 C234 1.415 . S
C236 C241 1.427 1_545 S
C236 C243 1.409 1_545 S
C237 H229 0.930 . S
C237 C235 1.419 . S
C237 C238 1.362 . S
C238 H230 0.930 . S
C238 C237 1.362 . S
C238 C241 1.389 1_545 S
C239 H231 0.930 . S
C239 C240 1.355 . S
C239 C241 1.433 . S
C240 C239 1.355 . S
C240 C242 1.419 . S
C241 C236 1.427 1_565 S
C241 C238 1.389 1_565 S
C241 C239 1.433 . S
C242 H232 0.930 . S
C242 C240 1.419 . S
C242 C243 1.362 . S
C243 H233 0.930 . S
C243 C236 1.409 1_565 S
C243 C242 1.362 . S
H244 C250 0.930 . S
H245 C253 0.930 . S
H246 C254 0.930 . S
H247 C255 0.930 . S
H248 C258 0.930 . S
H249 C259 0.930 . S
C250 H244 0.930 . S
C250 C251 1.355 . S
C250 C252 1.415 . S
C251 C250 1.355 . S
C251 C253 1.419 . S
C252 C250 1.415 . S
C252 C257 1.425 . S
C252 C259 1.409 . S
C253 H245 0.930 . S
C253 C251 1.419 . S
C253 C254 1.362 . S
C254 H246 0.930 . S
C254 C253 1.362 . S
C254 C257 1.409 . S
C255 H247 0.930 . S
C255 C256 1.355 . S
C255 C257 1.415 . S
C256 C255 1.355 . S
C256 C258 1.419 . S
C257 C252 1.425 . S
C257 C254 1.409 . S
C257 C255 1.415 . S
C258 H248 0.930 . S
C258 C256 1.419 . S
C258 C259 1.362 . S
C259 H249 0.930 . S
C259 C252 1.409 . S
C259 C258 1.362 . S
H260 C266 0.930 . S
H261 C269 0.930 . S
H262 C270 0.930 . S
H263 C271 0.930 . S
H264 C274 0.930 . S
H265 C275 0.930 1_554 S
C266 H260 0.930 . S
C266 C267 1.355 . S
C266 C268 1.415 . S
C267 C266 1.355 . S
C267 C269 1.419 . S
C268 C266 1.415 . S
C268 C273 1.425 1_655 S
C268 C275 1.409 1_655 S
C269 H261 0.930 . S
C269 C267 1.419 . S
C269 C270 1.362 . S
C270 H262 0.930 . S
C270 C269 1.362 . S
C270 C273 1.408 1_655 S
C271 H263 0.930 . S
C271 C272 1.355 . S
C271 C273 1.415 . S
C272 C271 1.355 . S
C272 C274 1.419 . S
C273 C268 1.425 1_455 S
C273 C270 1.408 1_455 S
C273 C271 1.415 . S
C274 H264 0.930 . S
C274 C272 1.419 . S
C274 C275 1.362 . S
C275 H265 0.930 1_556 S
C275 C268 1.409 1_455 S
C275 C274 1.362 . S
H276 C282 0.930 . S
H277 C285 0.930 . S
H278 C286 0.930 . S
H279 C287 0.930 . S
H280 C290 0.930 . S
H281 C291 0.930 . S
C282 H276 0.930 . S
C282 C283 1.355 . S
C282 C284 1.415 . S
C283 C282 1.355 . S
C283 C285 1.419 . S
C284 C282 1.415 . S
C284 C289 1.425 1_565 S
C284 C291 1.409 1_564 S
C285 H277 0.930 . S
C285 C283 1.419 . S
C285 C286 1.362 . S
C286 H278 0.930 . S
C286 C285 1.362 . S
C286 C289 1.409 1_565 S
C287 H279 0.930 . S
C287 C288 1.355 . S
C287 C289 1.415 1_556 S
C288 C287 1.355 . S
C288 C290 1.419 . S
C289 C284 1.425 1_545 S
C289 C286 1.409 1_545 S
C289 C287 1.415 1_554 S
C290 H280 0.930 . S
C290 C288 1.419 . S
C290 C291 1.362 . S
C291 H281 0.930 . S
C291 C284 1.409 1_546 S
C291 C290 1.362 . S
H292 C298 0.930 . S
H293 C301 0.930 . S
H294 C302 0.930 . S
H295 C303 0.930 . S
H296 C306 0.930 . S
H297 C307 0.930 . S
C298 H292 0.930 . S
C298 C299 1.355 . S
C298 C300 1.415 . S
C299 C298 1.355 . S
C299 C301 1.419 . S
C300 C298 1.415 . S
C300 C305 1.425 . S
C300 C307 1.409 . S
C301 H293 0.930 . S
C301 C299 1.419 . S
C301 C302 1.362 . S
C302 H294 0.930 . S
C302 C301 1.362 . S
C302 C305 1.409 . S
C303 H295 0.930 . S
C303 C304 1.355 . S
C303 C305 1.415 . S
C304 C303 1.355 . S
C304 C306 1.419 . S
C305 C300 1.425 . S
C305 C302 1.409 . S
C305 C303 1.415 . S
C306 H296 0.930 . S
C306 C304 1.419 . S
C306 C307 1.362 . S
C307 H297 0.930 . S
C307 C300 1.409 . S
C307 C306 1.362 . S
H308 C314 0.930 . S
H309 C317 0.930 . S
H310 C318 0.930 . S
H311 C319 0.930 . S
H312 C322 0.930 . S
H313 C323 0.930 . S
C314 H308 0.930 . S
C314 C315 1.355 . S
C314 C316 1.427 . S
C315 C314 1.355 . S
C315 C317 1.419 . S
C316 C314 1.427 . S
C316 C321 1.427 1_655 S
C316 C323 1.396 1_655 S
C317 H309 0.930 . S
C317 C315 1.419 . S
C317 C318 1.362 . S
C318 H310 0.930 . S
C318 C317 1.362 . S
C318 C321 1.409 1_655 S
C319 H311 0.930 . S
C319 C320 1.355 . S
C319 C321 1.415 . S
C320 C319 1.355 . S
C320 C322 1.419 . S
C321 C316 1.427 1_455 S
C321 C318 1.409 1_455 S
C321 C319 1.415 . S
C322 H312 0.930 . S
C322 C320 1.419 . S
C322 C323 1.362 . S
C323 H313 0.930 . S
C323 C316 1.396 1_455 S
C323 C322 1.362 . S
H324 C330 0.930 . S
H325 C333 0.930 . S
H326 C334 0.930 . S
H327 C335 0.930 . S
H328 C338 0.930 . S
H329 C339 0.930 . S
C330 H324 0.930 . S
C330 C331 1.355 . S
C330 C332 1.415 . S
C331 C330 1.355 . S
C331 C333 1.419 . S
C332 C330 1.415 . S
C332 C337 1.425 . S
C332 C339 1.409 . S
C333 H325 0.930 . S
C333 C331 1.419 . S
C333 C334 1.362 . S
C334 H326 0.930 . S
C334 C333 1.362 . S
C334 C337 1.409 . S
C335 H327 0.930 . S
C335 C336 1.355 . S
C335 C337 1.415 . S
C336 C335 1.355 . S
C336 C338 1.419 . S
C337 C332 1.425 . S
C337 C334 1.409 . S
C337 C335 1.415 . S
C338 H328 0.930 . S
C338 C336 1.419 . S
C338 C339 1.362 . S
C339 H329 0.930 . S
C339 C332 1.409 . S
C339 C338 1.362 . S
H340 C346 0.930 . S
H341 C349 0.930 . S
H342 C350 0.930 . S
H343 C351 0.930 . S
H344 C354 0.930 . S
H345 C355 0.930 . S
C346 H340 0.930 . S
C346 C347 1.355 . S
C346 C348 1.415 . S
C347 C346 1.355 . S
C347 C349 1.419 . S
C348 C346 1.415 . S
C348 C353 1.425 . S
C348 C355 1.409 . S
C349 H341 0.930 . S
C349 C347 1.419 . S
C349 C350 1.362 . S
C350 H342 0.930 . S
C350 C349 1.362 . S
C350 C353 1.409 . S
C351 H343 0.930 . S
C351 C352 1.355 . S
C351 C353 1.415 . S
C352 C351 1.355 . S
C352 C354 1.419 . S
C353 C348 1.425 . S
C353 C350 1.409 . S
C353 C351 1.415 . S
C354 H344 0.930 . S
C354 C352 1.419 . S
C354 C355 1.362 . S
C355 H345 0.930 . S
C355 C348 1.409 . S
C355 C354 1.362 . S
H356 C362 0.930 . S
H357 C365 0.930 . S
H358 C366 0.930 . S
H359 C367 0.930 . S
H360 C370 0.930 . S
H361 C371 0.930 . S
C362 H356 0.930 . S
C362 C363 1.355 . S
C362 C364 1.415 . S
C363 C362 1.355 . S
C363 C365 1.419 . S
C364 C362 1.415 . S
C364 C369 1.425 . S
C364 C371 1.409 . S
C365 H357 0.930 . S
C365 C363 1.419 . S
C365 C366 1.362 . S
C366 H358 0.930 . S
C366 C365 1.362 . S
C366 C369 1.409 . S
C367 H359 0.930 . S
C367 C368 1.355 . S
C367 C369 1.415 . S
C368 C367 1.355 . S
C368 C370 1.419 . S
C369 C364 1.425 . S
C369 C366 1.409 . S
C369 C367 1.415 . S
C370 H360 0.930 . S
C370 C368 1.419 . S
C370 C371 1.362 . S
C371 H361 0.930 . S
C371 C364 1.409 . S
C371 C370 1.362 . S
H372 C378 0.930 . S
H373 C381 0.930 1_554 S
H374 C382 0.930 . S
H375 C383 0.930 . S
H376 C386 0.930 . S
H377 C387 0.930 . S
C378 H372 0.930 . S
C378 C379 1.355 . S
C378 C380 1.415 . S
C379 C378 1.355 . S
C379 C381 1.419 . S
C380 C378 1.415 . S
C380 C385 1.425 . S
C380 C387 1.409 . S
C381 H373 0.930 1_556 S
C381 C379 1.419 . S
C381 C382 1.362 . S
C382 H374 0.930 . S
C382 C381 1.362 . S
C382 C385 1.409 . S
C383 H375 0.930 . S
C383 C384 1.355 . S
C383 C385 1.415 . S
C384 C383 1.355 . S
C384 C386 1.419 . S
C385 C380 1.425 . S
C385 C382 1.409 . S
C385 C383 1.415 . S
C386 H376 0.930 . S
C386 C384 1.419 . S
C386 C387 1.362 . S
C387 H377 0.930 . S
C387 C380 1.409 . S
C387 C386 1.362 . S
H388 C394 0.930 . S
H389 C397 0.930 . S
H390 C398 0.930 1_556 S
H391 C399 0.930 1_556 S
H392 C402 0.930 . S
H393 C403 0.930 . S
C394 H388 0.930 . S
C394 C395 1.355 . S
C394 C396 1.415 . S
C395 C394 1.355 . S
C395 C397 1.419 . S
C396 C394 1.415 . S
C396 C401 1.425 . S
C396 C403 1.409 . S
C397 H389 0.930 . S
C397 C395 1.419 . S
C397 C398 1.362 . S
C398 H390 0.930 1_554 S
C398 C397 1.362 . S
C398 C401 1.409 . S
C399 H391 0.930 1_554 S
C399 C400 1.355 . S
C399 C401 1.415 . S
C400 C399 1.355 . S
C400 C402 1.419 . S
C401 C396 1.425 . S
C401 C398 1.409 . S
C401 C399 1.415 . S
C402 H392 0.930 . S
C402 C400 1.419 . S
C402 C403 1.362 . S
C403 H393 0.930 . S
C403 C396 1.409 . S
C403 C402 1.362 . S
H404 C410 0.930 . S
H405 C413 0.930 . S
H406 C414 0.930 . S
H407 C415 0.930 . S
H408 C418 0.930 . S
H409 C419 0.930 . S
C410 H404 0.930 . S
C410 C411 1.355 . S
C410 C412 1.415 . S
C411 C410 1.355 . S
C411 C413 1.419 . S
C412 C410 1.415 . S
C412 C417 1.425 . S
C412 C419 1.409 . S
C413 H405 0.930 . S
C413 C411 1.419 . S
C413 C414 1.362 . S
C414 H406 0.930 . S
C414 C413 1.362 . S
C414 C417 1.409 . S
C415 H407 0.930 . S
C415 C416 1.355 . S
C415 C417 1.415 . S
C416 C415 1.355 . S
C416 C418 1.419 . S
C417 C412 1.425 . S
C417 C414 1.409 . S
C417 C415 1.415 . S
C418 H408 0.930 . S
C418 C416 1.419 . S
C418 C419 1.362 . S
C419 H409 0.930 . S
C419 C412 1.409 . S
C419 C418 1.362 . S
C139 C10 1.465 . S
C144 C7 1.507 . S
C155 C32 1.500 . S
C160 C29 1.445 1_554 S
C171 C65 1.507 . S
C176 C62 1.472 . S
C187 C87 1.444 . S
C192 C84 1.483 . S
C203 C109 1.493 . S
C208 C106 1.450 1_556 S
C219 C128 1.455 . S
C224 C131 1.501 . S
C235 C15 1.542 . S
C240 C118 1.569 . S
C251 C18 1.559 . S
C256 C37 1.569 . S
C267 C51 1.549 . S
C272 C40 1.562 . S
C283 C73 1.578 . S
C288 C52 1.563 . S
C299 C95 1.579 . S
C304 C74 1.563 . S
C315 C96 1.563 . S
C320 C117 1.547 . S
C331 C8 1.344 . S
C336 C103 1.353 . S
C347 C30 1.336 . S
C352 C125 1.303 . S
C363 C54 1.359 . S
C368 C21 1.351 . S
C379 C76 1.340 . S
C384 C43 1.304 . S
C395 C98 1.353 . S
C400 C59 1.357 1_554 S
C411 C81 1.357 . S
C416 C120 1.351 . S
