# Generated by pormake.
# Topology xfh, (7)-cn, num edge types: 1
# Building blocks:
#     Node 0, Type 0, BuildingBlock: HICVOG_clean_sbu_0, # of connection points: 7
#     Node 1, Type 0, BuildingBlock: HICVOG_clean_sbu_0, # of connection points: 7
#     Node 2, Type 0, BuildingBlock: HICVOG_clean_sbu_0, # of connection points: 7
#     Node 3, Type 0, BuildingBlock: HICVOG_clean_sbu_0, # of connection points: 7
#     Node 4, Type 0, BuildingBlock: HICVOG_clean_sbu_0, # of connection points: 7
#     Node 5, Type 0, BuildingBlock: HICVOG_clean_sbu_0, # of connection points: 7
#     Node 6, Type 0, BuildingBlock: HICVOG_clean_sbu_0, # of connection points: 7
#     Node 7, Type 0, BuildingBlock: HICVOG_clean_sbu_0, # of connection points: 7
#     Node 8, Type 0, BuildingBlock: HICVOG_clean_sbu_0, # of connection points: 7
#     Node 9, Type 0, BuildingBlock: HICVOG_clean_sbu_0, # of connection points: 7
#     Node 10, Type 0, BuildingBlock: HICVOG_clean_sbu_0, # of connection points: 7
#     Node 11, Type 0, BuildingBlock: HICVOG_clean_sbu_0, # of connection points: 7
#     Node 12, Type 0, BuildingBlock: HICVOG_clean_sbu_0, # of connection points: 7
#     Node 13, Type 0, BuildingBlock: HICVOG_clean_sbu_0, # of connection points: 7
#     Node 14, Type 0, BuildingBlock: HICVOG_clean_sbu_0, # of connection points: 7
#     Node 15, Type 0, BuildingBlock: HICVOG_clean_sbu_0, # of connection points: 7
#     Edge 16, Type (0, 0), None
#     Edge 17, Type (0, 0), None
#     Edge 18, Type (0, 0), None
#     Edge 19, Type (0, 0), None
#     Edge 20, Type (0, 0), None
#     Edge 21, Type (0, 0), None
#     Edge 22, Type (0, 0), None
#     Edge 23, Type (0, 0), None
#     Edge 24, Type (0, 0), None
#     Edge 25, Type (0, 0), None
#     Edge 26, Type (0, 0), None
#     Edge 27, Type (0, 0), None
#     Edge 28, Type (0, 0), None
#     Edge 29, Type (0, 0), None
#     Edge 30, Type (0, 0), None
#     Edge 31, Type (0, 0), None
#     Edge 32, Type (0, 0), None
#     Edge 33, Type (0, 0), None
#     Edge 34, Type (0, 0), None
#     Edge 35, Type (0, 0), None
#     Edge 36, Type (0, 0), None
#     Edge 37, Type (0, 0), None
#     Edge 38, Type (0, 0), None
#     Edge 39, Type (0, 0), None
#     Edge 40, Type (0, 0), None
#     Edge 41, Type (0, 0), None
#     Edge 42, Type (0, 0), None
#     Edge 43, Type (0, 0), None
#     Edge 44, Type (0, 0), None
#     Edge 45, Type (0, 0), None
#     Edge 46, Type (0, 0), None
#     Edge 47, Type (0, 0), None
#     Edge 48, Type (0, 0), None
#     Edge 49, Type (0, 0), None
#     Edge 50, Type (0, 0), None
#     Edge 51, Type (0, 0), None
#     Edge 52, Type (0, 0), None
#     Edge 53, Type (0, 0), None
#     Edge 54, Type (0, 0), None
#     Edge 55, Type (0, 0), None
#     Edge 56, Type (0, 0), None
#     Edge 57, Type (0, 0), None
#     Edge 58, Type (0, 0), None
#     Edge 59, Type (0, 0), None
#     Edge 60, Type (0, 0), None
#     Edge 61, Type (0, 0), None
#     Edge 62, Type (0, 0), None
#     Edge 63, Type (0, 0), None
#     Edge 64, Type (0, 0), None
#     Edge 65, Type (0, 0), None
#     Edge 66, Type (0, 0), None
#     Edge 67, Type (0, 0), None
#     Edge 68, Type (0, 0), None
#     Edge 69, Type (0, 0), None
#     Edge 70, Type (0, 0), None
#     Edge 71, Type (0, 0), None
# Relax obj value: 0.291
# Max RMSD: 0.234
# Mean RMSD: 0.234
data_MOF--net-xfh--node1-HICVOG_clean_sbu_0--edge1-none
_symmetry_space_group_name_H-M    P1
_symmetry_Int_Tables_number       1
_symmetry_cell_setting            triclinic
loop_
_symmetry_equiv_pos_as_xyz
'x, y, z'
_cell_length_a     14.822667
_cell_length_b     14.82254
_cell_length_c     35.097825
_cell_angle_alpha  89.998976
_cell_angle_beta   90.001678
_cell_angle_gamma 89.999526
loop_
_atom_site_label
_atom_site_type_symbol
_atom_site_fract_x
_atom_site_fract_y
_atom_site_fract_z
_atom_type_partial_charge
Zn0 Zn 0.44055 0.1407 0.10371 0.0
C1 C 0.58153 0.10594 0.00834 0.0
N2 N 0.6457 1.08373 0.03269 0.0
C3 C 0.61056 0.10826 0.06592 0.0
N4 N 0.52993 0.14865 0.0628 0.0
N5 N 0.50827 0.15063 0.02631 0.0
C6 C 0.24468 0.23184 0.97299 0.0
O7 O 0.18855 0.21142 0.00057 0.0
O8 O 0.49214 0.15133 0.15708 0.0
Zn9 Zn 0.37926 0.21556 0.03255 0.0
N10 N 0.41632 1.01775 0.09589 0.0
C11 C 0.42955 0.87136 0.06926 0.0
C12 C 0.44119 0.96378 0.06616 0.0
C13 C 0.37486 0.98473 0.12657 0.0
N14 N 0.38784 0.83858 0.10059 0.0
C15 C 0.35575 0.89405 0.12803 0.0
O16 O 0.28085 0.13169 0.05735 0.0
C17 C 0.25467 0.14958 0.09123 0.0
O18 O 0.31104 0.192 0.11146 0.0
H19 H 0.472 0.98999 0.04093 0.0
H20 H 0.35618 1.03026 0.1494 0.0
C21 C 0.31294 0.3799 0.08538 0.0
C22 C 0.33347 0.43779 0.1173 0.0
C23 C 0.48653 0.39515 0.11167 0.0
C24 C 0.46708 0.34243 0.0799 0.0
N25 N 0.38114 0.3292 0.06842 0.0
N26 N 0.41985 0.43973 0.12968 0.0
H27 H 0.244 0.37253 0.07575 0.0
C28 C 0.46767 0.20431 0.1834 0.0
O29 O 0.41099 0.26989 0.17587 0.0
O30 O 0.32812 0.24377 0.98037 0.0
H31 H 0.5197 0.30912 0.06481 0.0
H32 H 0.45288 0.82615 0.04716 0.0
H33 H 0.5547 0.40424 0.12153 0.0
Zn34 Zn 0.70554 0.6293 0.28255 0.0
C35 C 0.8129 0.86055 0.31594 0.0
N36 N 0.83744 0.89569 0.28271 0.0
C37 C 0.8152 0.83154 0.25836 0.0
N38 N 0.77058 0.75828 0.27635 0.0
N39 N 0.77241 0.77996 0.31283 0.0
C40 C 0.71692 0.71779 0.43342 0.0
O41 O 0.65125 0.6612 0.42591 0.0
O42 O 0.67737 0.57819 0.23036 0.0
Zn43 Zn 0.7805 0.69055 0.35373 0.0
N44 N 0.59188 0.63116 0.3184 0.0
C45 C 0.52602 0.73654 0.36168 0.0
C46 C 0.57868 0.71709 0.32989 0.0
C47 C 0.54124 0.56295 0.33538 0.0
N48 N 0.48145 0.66985 0.37969 0.0
C49 C 0.48338 0.58348 0.36731 0.0
O50 O 0.72913 0.56107 0.36148 0.0
C51 C 0.7715 0.50468 0.34124 0.0
O52 O 0.78936 0.53084 0.30736 0.0
H53 H 0.61196 0.76972 0.3148 0.0
H54 H 0.54861 0.49401 0.32575 0.0
C55 C 0.93645 0.62486 0.37656 0.0
C56 C 1.02714 0.6058 0.37803 0.0
C57 C 1.04983 0.67963 0.31926 0.0
C58 C 0.9574 0.69121 0.31616 0.0
N59 N 0.90343 0.66629 0.34587 0.0
N60 N 1.08261 0.63792 0.3506 0.0
H61 H 0.89092 0.60617 0.39939 0.0
C62 C 0.68918 0.49472 0.223 0.0
O63 O 0.70948 0.43859 0.2506 0.0
O64 O 0.76994 0.74213 0.40709 0.0
H65 H 0.9312 0.72205 0.29092 0.0
H66 H 0.51694 0.80471 0.37154 0.0
H67 H 0.09504 0.70299 0.29717 0.0
Zn68 Zn 0.23053 1.03042 0.60372 0.0
C69 C 0.08955 1.06514 0.50834 0.0
N70 N 1.02537 0.08731 0.53268 0.0
C71 C 1.0605 1.0628 0.56592 0.0
N72 N 0.14115 1.02244 0.5628 0.0
N73 N 0.16282 1.02047 0.52632 0.0
C74 C 0.42644 0.93932 0.47298 0.0
O75 O 0.48255 0.95974 0.50057 0.0
O76 O 0.17897 1.01977 0.65709 0.0
Zn77 Zn 0.29185 0.95557 0.53255 0.0
N78 N 0.25474 0.15338 0.59591 0.0
C79 C 0.24147 0.29978 0.56929 0.0
C80 C 0.22982 0.20736 0.5662 0.0
C81 C 0.29627 0.18638 0.62659 0.0
N82 N 0.28325 0.33254 0.60062 0.0
C83 C 0.3154 0.27706 0.62804 0.0
O84 O 0.39024 1.03945 0.55735 0.0
C85 C 0.41641 1.02155 0.59123 0.0
O86 O 0.36005 0.97912 0.61146 0.0
H87 H 0.19894 0.18117 0.54097 0.0
H88 H 0.31498 0.14084 0.6494 0.0
C89 C 0.3582 0.79122 0.58537 0.0
C90 C 0.33767 0.73332 0.61728 0.0
C91 C 0.1846 0.77594 0.61165 0.0
C92 C 0.20406 0.82866 0.57988 0.0
N93 N 0.29 0.84192 0.56841 0.0
N94 N 0.25129 0.73137 0.62966 0.0
H95 H 0.42715 0.7986 0.57574 0.0
C96 C 0.20342 0.96679 0.68341 0.0
O97 O 0.26007 0.90119 0.67589 0.0
O98 O 0.34299 0.92739 0.48036 0.0
H99 H 0.15143 0.86197 0.56479 0.0
H100 H 0.21811 0.345 0.5472 0.0
H101 H 0.11643 0.76683 0.6215 0.0
Zn102 Zn 0.89068 0.48052 0.85373 0.0
C103 C 0.85592 0.33956 0.75836 0.0
N104 N 0.83366 0.2754 0.7827 0.0
C105 C 0.85818 0.31053 0.81594 0.0
N106 N 0.8986 0.39115 0.81282 0.0
N107 N 0.90061 0.4128 0.77633 0.0
C108 C 0.98191 0.67636 0.723 0.0
O109 O 0.96153 0.73249 0.75059 0.0
O110 O 0.9013 0.42894 0.9071 0.0
Zn111 Zn 0.96557 0.54181 0.78256 0.0
N112 N 0.76773 0.50477 0.8459 0.0
C113 C 0.62136 0.49159 0.81926 0.0
C114 C 0.71378 0.47994 0.81617 0.0
C115 C 0.73471 0.54623 0.87659 0.0
N116 N 0.58857 0.53329 0.8506 0.0
C117 C 0.64404 0.56535 0.87804 0.0
O118 O 0.8817 0.64023 0.80736 0.0
C119 C 0.89958 0.6664 0.84124 0.0
O120 O 0.94199 0.61003 0.86147 0.0
H121 H 0.73999 0.44914 0.79093 0.0
H122 H 0.78024 0.56489 0.89942 0.0
C123 C 0.1299 0.60815 0.83538 0.0
C124 C 0.18776 0.58764 0.86731 0.0
C125 C 0.14505 0.43459 0.86173 0.0
C126 C 0.09237 0.45401 0.82994 0.0
N127 N 1.07918 0.53994 0.81844 0.0
N128 N 0.18965 0.50128 0.87972 0.0
H129 H 0.12257 0.67707 0.82573 0.0
C130 C 0.95425 0.4534 0.93342 0.0
O131 O 1.01982 0.51011 0.92591 0.0
O132 O 0.99379 0.59291 0.73037 0.0
H133 H 1.05904 0.40138 0.81487 0.0
H134 H 0.57615 0.46829 0.79715 0.0
H135 H 0.15411 0.36642 0.87161 0.0
Zn136 Zn 0.73052 1.03045 0.87393 0.0
C137 C 0.58959 1.06529 0.96929 0.0
N138 N 0.52538 0.08742 0.94495 0.0
C139 C 0.5605 1.06286 0.91172 0.0
N140 N 0.64115 1.02249 0.91484 0.0
N141 N 0.66283 1.02056 0.95133 0.0
C142 C 0.92642 0.9393 0.00465 0.0
O143 O 0.98254 0.95972 0.97707 0.0
O144 O 0.67893 1.01981 0.82056 0.0
Zn145 Zn 0.79184 0.95561 0.94509 0.0
N146 N 0.75474 0.15341 0.88174 0.0
C147 C 0.74152 0.29982 0.90835 0.0
C148 C 0.72985 0.2074 0.91145 0.0
C149 C 0.79625 0.1864 0.85106 0.0
N150 N 0.78329 0.33257 0.87702 0.0
C151 C 0.81538 0.27707 0.8496 0.0
O152 O 0.89024 1.03947 0.92029 0.0
C153 C 0.91641 1.02156 0.88641 0.0
O154 O 0.86004 0.97915 0.86618 0.0
H155 H 0.699 0.18122 0.93668 0.0
H156 H 0.81494 0.14085 0.82824 0.0
C157 C 0.85818 0.79127 0.89227 0.0
C158 C 0.83765 0.73336 0.86036 0.0
C159 C 0.68459 0.776 0.86597 0.0
C160 C 0.70403 0.82872 0.89774 0.0
N161 N 0.78997 0.84197 0.90922 0.0
N162 N 0.75128 0.73142 0.84797 0.0
H163 H 0.92711 0.79865 0.9019 0.0
C164 C 0.70341 0.96684 0.79424 0.0
O165 O 0.7601 0.90127 0.80176 0.0
O166 O 0.84297 0.92739 -0.00273 0.0
H167 H 0.6514 0.86203 0.91282 0.0
H168 H 0.71819 0.34505 0.93044 0.0
H169 H 0.61642 0.76689 0.85611 0.0
Zn170 Zn 0.46557 0.54178 0.69509 0.0
C171 C 0.35814 0.31055 0.66171 0.0
N172 N 0.33364 0.27538 0.69494 0.0
C173 C 0.35591 0.33953 0.71928 0.0
N174 N 0.40054 0.41279 0.70129 0.0
N175 N 0.39869 0.39112 0.6648 0.0
C176 C 0.4542 0.45333 0.54422 0.0
O177 O 0.51985 0.50994 0.55173 0.0
O178 O 0.49376 0.59289 0.74728 0.0
Zn179 Zn 0.3906 0.48051 0.62391 0.0
N180 N 0.57922 0.53995 0.65923 0.0
C181 C 0.64509 0.4346 0.61594 0.0
C182 C 0.59242 0.45402 0.64772 0.0
C183 C 0.62986 0.60817 0.64226 0.0
N184 N 0.68966 0.5013 0.59793 0.0
C185 C 0.68773 0.58767 0.61033 0.0
O186 O 0.44194 0.61 0.61615 0.0
C187 C 0.39957 0.66633 0.6364 0.0
O188 O 0.38173 0.64022 0.6703 0.0
H189 H 0.55913 0.40139 0.66281 0.0
H190 H 0.6225 0.67711 0.65189 0.0
C191 C 0.23463 0.54618 0.60107 0.0
C192 C 0.14395 0.56527 0.59961 0.0
C193 C 0.12127 0.49147 0.65839 0.0
C194 C 0.21369 0.47985 0.66148 0.0
N195 N 0.26766 0.50474 0.63176 0.0
N196 N 0.08848 0.53319 0.62705 0.0
H197 H 0.28016 0.56486 0.57825 0.0
C198 C 0.48195 0.67636 0.75464 0.0
O199 O 0.46167 0.73249 0.72704 0.0
O200 O 0.40119 0.42895 0.57054 0.0
H201 H 0.2399 0.44902 0.68672 0.0
H202 H 0.65417 0.36643 0.60607 0.0
H203 H 1.07606 0.46814 0.68049 0.0
Zn204 Zn 0.87925 0.21548 0.44511 0.0
C205 C 0.11062 0.10835 0.41173 0.0
N206 N 0.14572 1.08374 0.44496 0.0
C207 C 1.08149 0.10581 0.46929 0.0
N208 N 1.00824 0.15047 0.45132 0.0
N209 N 1.02997 0.14875 0.41483 0.0
C210 C 0.96769 0.20428 0.29423 0.0
O211 O 0.91106 0.26991 0.30175 0.0
O212 O 0.82813 0.24364 0.49729 0.0
Zn213 Zn 0.94058 0.14061 0.37393 0.0
N214 N 0.88109 0.32918 0.40927 0.0
C215 C 0.98649 0.39514 0.36602 0.0
C216 C 0.96704 0.34244 0.3978 0.0
C217 C 0.81288 0.37981 0.39228 0.0
N218 N 0.9198 0.43969 0.348 0.0
C219 C 0.83342 0.43773 0.36037 0.0
O220 O 0.81107 0.19191 0.36619 0.0
C221 C 0.75469 0.14952 0.38642 0.0
O222 O 0.78085 0.13165 0.4203 0.0
H223 H 1.01967 0.30919 0.4129 0.0
H224 H 0.74393 0.37239 0.40189 0.0
C225 C 0.87484 0.98467 0.35107 0.0
C226 C 0.85573 0.89399 0.3496 0.0
C227 C 0.92978 0.87118 0.40831 0.0
C228 C 0.94144 0.9636 0.41142 0.0
N229 N 0.91641 1.01763 0.38175 0.0
N230 N 0.88793 0.83847 0.37699 0.0
H231 H 0.85608 1.03024 0.32827 0.0
C232 C 0.74466 0.23179 0.50466 0.0
O233 O 0.68855 0.21143 0.47706 0.0
O234 O 0.9921 0.15128 0.32056 0.0
H235 H 0.9724 0.98975 0.43664 0.0
H236 H 1.05466 0.40427 0.35617 0.0
H237 H 0.9532 0.82593 0.43038 0.0
Zn238 Zn 0.28046 0.69061 0.1239 0.0
C239 C 0.3152 0.8316 0.21928 0.0
N240 N 0.33751 0.89574 0.19493 0.0
C241 C 0.31304 0.86055 0.16171 0.0
N242 N 0.27255 0.77998 0.16481 0.0
N243 N 0.27051 0.75835 0.2013 0.0
C244 C 0.18921 0.4948 0.25464 0.0
O245 O 0.20959 0.43866 0.22706 0.0
O246 O 0.26982 0.7422 0.07054 0.0
Zn247 Zn 0.20556 0.62934 0.19508 0.0
N248 N 0.4034 0.66637 0.13173 0.0
C249 C 0.54977 0.67952 0.15839 0.0
C250 C 0.45735 0.69117 0.16147 0.0
C251 C 0.43644 0.62492 0.10104 0.0
N252 N 0.58257 0.63783 0.12705 0.0
C253 C 0.52711 0.60579 0.0996 0.0
O254 O 0.28943 0.53091 0.17029 0.0
C255 C 0.27156 0.50479 0.1364 0.0
O256 O 0.22914 0.56111 0.11615 0.0
H257 H 0.43113 0.72195 0.18671 0.0
H258 H 0.39091 0.60627 0.07821 0.0
C259 C 1.04123 0.56298 0.14225 0.0
C260 C 0.98337 0.58347 0.11033 0.0
C261 C 1.02605 0.73653 0.11591 0.0
C262 C 1.07875 0.71711 0.14769 0.0
N263 N 0.09195 0.63119 0.15919 0.0
N264 N 0.98146 0.66983 0.09792 0.0
H265 H 1.04857 0.49405 0.15191 0.0
C266 C 0.21686 0.71772 0.04421 0.0
O267 O 0.1513 0.66102 0.05173 0.0
O268 O 0.17733 0.57825 0.24726 0.0
H269 H 0.11209 0.76974 0.16276 0.0
H270 H 0.59497 0.7028 0.1805 0.0
H271 H 1.01699 0.8047 0.10603 0.0
Zn272 Zn 0.94055 0.64067 0.60374 0.0
C273 C 1.08154 0.60589 0.50835 0.0
N274 N 0.14564 0.58352 0.53271 0.0
C275 C 0.11046 0.60797 0.56593 0.0
N276 N 1.02991 0.64852 0.56282 0.0
N277 N 1.0083 0.6506 0.52633 0.0
C278 C 0.74478 0.73203 0.473 0.0
O279 O 0.68862 0.71168 0.50058 0.0
O280 O 0.99217 0.65129 0.6571 0.0
Zn281 Zn 0.87932 0.7156 0.53256 0.0
N282 N 0.91626 0.51774 0.59592 0.0
C283 C 0.92934 0.37138 0.56925 0.0
C284 C 0.94101 0.4638 0.56617 0.0
C285 C 0.87483 0.48472 0.62661 0.0
N286 N 0.88767 0.33859 0.6006 0.0
C287 C 0.85567 0.39405 0.62806 0.0
O288 O 0.78086 0.63174 0.55734 0.0
C289 C 0.75473 0.64959 0.59123 0.0
O290 O 0.81105 0.692 0.61148 0.0
H291 H 0.97176 0.49002 0.54092 0.0
H292 H 0.85621 0.53025 0.64945 0.0
C293 C 0.81301 0.87991 0.5854 0.0
C294 C 0.83352 0.93774 0.61734 0.0
C295 C 0.98657 0.895 0.61176 0.0
C296 C 0.96714 0.84233 0.57997 0.0
N297 N 0.88121 0.82918 0.56846 0.0
N298 N 0.91988 0.93962 0.62975 0.0
H299 H 0.74409 0.8726 0.57574 0.0
C300 C 0.96768 0.70426 0.68342 0.0
O301 O 0.91092 0.76979 0.67592 0.0
O302 O 0.82824 0.74387 0.48038 0.0
H303 H 1.01976 0.80898 0.5649 0.0
H304 H 0.95259 0.32619 0.54713 0.0
H305 H 1.05473 0.90403 0.62164 0.0
Zn306 Zn 0.20558 0.12927 0.78253 0.0
C307 C 0.31283 0.36059 0.8159 0.0
N308 N 0.33742 0.39569 0.78267 0.0
C309 C 0.31531 0.33147 0.75834 0.0
N310 N 0.27064 0.25823 0.77632 0.0
N311 N 0.27239 0.27996 0.8128 0.0
C312 C 0.21681 0.21764 0.93341 0.0
O313 O 0.15126 0.16091 0.92589 0.0
O314 O 0.17739 1.07815 0.73035 0.0
Zn315 Zn 0.28048 0.19059 0.85372 0.0
N316 N 0.09192 0.13114 0.81839 0.0
C317 C 1.02605 0.23652 0.86167 0.0
C318 C 1.07871 0.21708 0.82988 0.0
C319 C 1.04127 1.06293 0.83537 0.0
N320 N 0.98147 0.16984 0.87967 0.0
C321 C 0.98339 1.08347 0.86729 0.0
O322 O 0.22919 1.06106 0.86145 0.0
C323 C 0.27157 1.00469 0.84121 0.0
O324 O 0.28942 1.03086 0.80733 0.0
H325 H 0.11198 0.26971 0.81478 0.0
H326 H 1.04865 0.99399 0.82575 0.0
C327 C 0.4364 0.12482 0.87659 0.0
C328 C 0.52706 0.10566 0.87805 0.0
C329 C 0.54988 0.17965 0.81933 0.0
C330 C 0.45747 0.19136 0.81622 0.0
N331 N 0.40344 0.16639 0.84591 0.0
N332 N 0.58259 0.1378 0.85065 0.0
H333 H 0.39083 0.1061 0.89939 0.0
C334 C 0.1892 0.99468 0.72299 0.0
O335 O 0.20953 0.93854 0.75058 0.0
O336 O 0.26978 0.24213 0.90709 0.0
H337 H 0.43132 0.2223 0.791 0.0
H338 H 1.01696 0.3047 0.87153 0.0
H339 H 0.59513 0.20302 0.79725 0.0
Zn340 Zn 0.73055 0.53044 0.10374 0.0
C341 C 0.58958 0.56524 0.00835 0.0
N342 N 0.52545 0.58757 0.03269 0.0
C343 C 0.56062 0.5631 0.06592 0.0
N344 N 0.64118 0.52258 0.06282 0.0
N345 N 0.66282 0.52053 0.02633 0.0
C346 C 0.92637 0.43916 0.973 0.0
O347 O 0.98251 0.45953 0.00058 0.0
O348 O 0.67895 0.51979 0.1571 0.0
Zn349 Zn 0.79181 0.45554 0.03255 0.0
N350 N 0.75481 0.65338 0.09593 0.0
C351 C 0.74171 0.79976 0.06928 0.0
C352 C 0.73002 0.70734 0.0662 0.0
C353 C 0.7963 0.68639 0.12662 0.0
N354 N 0.78343 0.83252 0.10062 0.0
C355 C 0.81547 0.77705 0.12807 0.0
O356 O 0.89024 0.53941 0.05734 0.0
C357 C 0.91636 0.52155 0.09123 0.0
O358 O 0.86005 0.47913 0.11148 0.0
H359 H 0.69922 0.68114 0.04096 0.0
H360 H 0.81494 0.64085 0.14945 0.0
C361 C 0.85813 0.29122 0.08539 0.0
C362 C 0.8376 0.23336 0.11731 0.0
C363 C 0.68456 0.27608 0.11172 0.0
C364 C 0.704 0.32877 0.07993 0.0
N365 N 0.78993 0.34194 0.06844 0.0
N366 N 0.75124 0.23147 0.12971 0.0
H367 H 0.92706 0.29855 0.07574 0.0
C368 C 0.70341 0.46682 0.18342 0.0
O369 O 0.76014 0.40127 0.17592 0.0
O370 O 0.84291 0.42731 0.98037 0.0
H371 H 0.65137 0.36211 0.06486 0.0
H372 H 0.71843 0.84496 0.04717 0.0
H373 H 0.61639 0.26704 0.12159 0.0
Zn374 Zn 0.39067 0.9806 0.35372 0.0
C375 C 0.35578 0.83968 0.25834 0.0
N376 N 0.33361 0.77549 0.28268 0.0
C377 C 0.35818 0.81061 0.31591 0.0
N378 N 0.39857 0.89124 0.31279 0.0
N379 N 0.40052 0.91291 0.27631 0.0
C380 C 0.48189 0.17644 0.22298 0.0
O381 O 0.46148 0.23259 0.25055 0.0
O382 O 0.40138 0.92902 0.40708 0.0
Zn383 Zn 0.46551 1.04188 0.28254 0.0
N384 N 0.26771 1.00484 0.34593 0.0
C385 C 0.1213 0.99164 0.31933 0.0
C386 C 0.21371 0.97995 0.31623 0.0
C387 C 0.23475 1.04639 0.37661 0.0
N388 N 0.08857 1.03344 0.35065 0.0
C389 C 0.14408 1.06556 0.37807 0.0
O390 O 0.38165 0.1403 0.30733 0.0
C391 C 0.39953 0.16648 0.34121 0.0
O392 O 0.44196 0.11013 0.36144 0.0
H393 H 0.23987 0.94907 0.291 0.0
H394 H 0.28031 1.06509 0.39942 0.0
C395 C 0.62984 0.10817 0.33537 0.0
C396 C 0.68773 0.08762 0.36728 0.0
C397 C 0.64504 0.93458 0.36167 0.0
C398 C 0.59235 0.95404 0.32989 0.0
N399 N 0.57913 1.03998 0.31841 0.0
N400 N 0.68964 1.00125 0.37967 0.0
H401 H 0.62249 0.17711 0.32574 0.0
C402 C 0.45433 0.95354 0.4334 0.0
O403 O 0.51984 1.01031 0.42589 0.0
O404 O 0.49375 0.09298 0.23035 0.0
H405 H 0.55903 0.90142 0.3148 0.0
H406 H 1.07606 0.96829 0.29724 0.0
H407 H 0.65412 0.8664 0.37153 0.0
Zn408 Zn 0.29179 0.4556 0.44509 0.0
C409 C 1.06064 0.56313 0.41172 0.0
N410 N 1.02548 0.58768 0.44494 0.0
C411 C 0.08963 0.56541 0.46928 0.0
N412 N 0.16286 0.52071 0.4513 0.0
N413 N 0.14118 0.52254 0.41481 0.0
C414 C 0.20344 0.46692 0.29422 0.0
O415 O 0.26016 0.40137 0.30173 0.0
O416 O 0.34286 0.42734 0.49727 0.0
Zn417 Zn 0.23055 0.53055 0.37391 0.0
N418 N 0.28991 0.34196 0.40922 0.0
C419 C 0.18456 0.27616 0.36591 0.0
C420 C 0.20399 0.32881 0.39771 0.0
C421 C 0.35812 0.29131 0.39225 0.0
N422 N 0.25125 0.23157 0.34791 0.0
C423 C 0.33761 0.23345 0.36032 0.0
O424 O 0.36005 0.47921 0.36616 0.0
C425 C 0.41638 0.52158 0.38642 0.0
O426 O 0.39027 0.53941 0.42032 0.0
H427 H 0.15136 0.36211 0.41279 0.0
H428 H 0.42706 0.29865 0.40189 0.0
C429 C 0.29628 0.68648 0.35104 0.0
C430 C 0.31542 0.77714 0.34958 0.0
C431 C 0.24162 0.7999 0.40835 0.0
C432 C 0.22995 0.70748 0.41145 0.0
N433 N 0.25481 0.65349 0.38174 0.0
N434 N 0.28337 0.83264 0.37701 0.0
H435 H 0.31495 0.64093 0.32822 0.0
C436 C 0.42633 0.4391 0.50464 0.0
O437 O 0.4825 0.4594 0.47706 0.0
O438 O 0.17897 0.5199 0.32054 0.0
H439 H 0.19911 0.68131 0.43669 0.0
H440 H 0.11639 0.26711 0.35603 0.0
H441 H 0.21831 0.84513 0.43045 0.0
Zn442 Zn 0.96551 1.04183 0.19511 0.0
C443 C 0.85817 0.81057 0.16174 0.0
N444 N 0.83362 0.77542 0.19497 0.0
C445 C 0.85579 0.83962 0.2193 0.0
N446 N 0.90046 0.91286 0.20132 0.0
N447 N 0.89868 0.89116 0.16483 0.0
C448 C 0.9543 0.95348 0.04423 0.0
O449 O 1.01984 1.0102 0.05175 0.0
O450 O 0.99371 0.09294 0.24729 0.0
Zn451 Zn 0.89061 0.98052 0.12391 0.0
N452 N 1.07917 1.03997 0.15924 0.0
C453 C 0.14507 0.9346 0.11597 0.0
C454 C 0.09238 0.95404 0.14776 0.0
C455 C 0.12981 0.10819 0.14227 0.0
N456 N 0.18964 1.00129 0.09797 0.0
C457 C 0.18771 0.08766 0.11035 0.0
O458 O 0.94189 0.11004 0.11617 0.0
C459 C 0.8995 0.16637 0.13643 0.0
O460 O 0.88167 0.14025 0.17032 0.0
H461 H 1.05911 0.90141 0.16285 0.0
H462 H 0.12242 0.17713 0.15189 0.0
C463 C 0.73467 1.04627 0.10104 0.0
C464 C 0.64401 1.06544 0.09958 0.0
C465 C 0.62121 0.99148 0.15831 0.0
C466 C 0.71362 0.97978 0.16142 0.0
N467 N 0.76764 1.00472 0.13173 0.0
N468 N 0.58849 1.03332 0.127 0.0
H469 H 0.78024 1.06498 0.07824 0.0
C470 C 0.9819 0.17641 0.25466 0.0
O471 O 0.96156 0.23256 0.22707 0.0
O472 O 0.90132 0.92898 0.07055 0.0
H473 H 0.73978 0.94886 0.18664 0.0
H474 H 0.15417 0.86643 0.10611 0.0
H475 H 0.57597 0.96813 0.1804 0.0
Zn476 Zn 0.4406 0.64066 0.8739 0.0
C477 C 0.58151 0.60577 0.96928 0.0
N478 N 0.64569 0.58353 0.94494 0.0
C479 C 0.61053 0.60804 0.91172 0.0
N480 N 0.52995 0.64853 0.91482 0.0
N481 N 0.5083 0.65053 0.95131 0.0
C482 C 0.24475 0.73195 0.00464 0.0
O483 O 0.18861 0.71157 0.97705 0.0
O484 O 0.4922 0.65132 0.82054 0.0
Zn485 Zn 0.37932 0.71553 0.94509 0.0
N486 N 0.41634 0.51771 0.88169 0.0
C487 C 0.42944 0.37131 0.90833 0.0
C488 C 0.44116 0.46372 0.91142 0.0
C489 C 0.37482 0.48472 0.85101 0.0
N490 N 0.38766 0.33857 0.877 0.0
C491 C 0.35561 0.39407 0.84956 0.0
O492 O 0.28089 0.63169 0.9203 0.0
C493 C 0.25477 0.64955 0.88641 0.0
O494 O 0.31109 0.69196 0.86616 0.0
H495 H 0.472 0.4899 0.93665 0.0
H496 H 0.35616 0.53027 0.82819 0.0
C497 C 0.31298 0.87986 0.89226 0.0
C498 C 0.33349 0.93773 0.86034 0.0
C499 C 0.48654 0.89502 0.86592 0.0
C500 C 0.46712 0.84233 0.8977 0.0
N501 N 0.38119 0.82914 0.9092 0.0
N502 N 0.41985 0.93963 0.84793 0.0
H503 H 0.24405 0.87252 0.9019 0.0
C504 C 0.46773 0.70428 0.79421 0.0
O505 O 0.41099 0.76983 0.80171 0.0
O506 O 0.32822 0.74378 -0.00273 0.0
H507 H 0.51974 0.80899 0.91278 0.0
H508 H 0.45272 0.32608 0.93043 0.0
H509 H 0.55471 0.90408 0.85604 0.0
Zn510 Zn 0.78044 0.19059 0.62392 0.0
C511 C 0.81533 0.3315 0.7193 0.0
N512 N 0.83752 0.39569 0.69496 0.0
C513 C 0.813 0.36054 0.66174 0.0
N514 N 0.77255 0.27994 0.66484 0.0
N515 N 0.77058 0.25827 0.70133 0.0
C516 C 0.68919 0.99472 0.75466 0.0
O517 O 0.70959 0.93858 0.72708 0.0
O518 O 0.7697 0.24215 0.57055 0.0
Zn519 Zn 0.7056 0.12929 0.6951 0.0
N520 N 0.90342 0.16638 0.6317 0.0
C521 C 1.04983 0.17951 0.65832 0.0
C522 C 0.95742 0.19124 0.66141 0.0
C523 C 0.93639 0.12482 0.60102 0.0
N524 N 1.08255 0.1377 0.627 0.0
C525 C 1.02704 0.10562 0.59957 0.0
O526 O 0.78948 1.03087 0.67032 0.0
C527 C 0.77162 1.00475 0.63644 0.0
O528 O 0.72918 1.06106 0.61619 0.0
H529 H 0.93125 0.22211 0.68664 0.0
H530 H 0.89083 0.10613 0.57821 0.0
C531 C 0.54127 1.06295 0.64227 0.0
C532 C 0.48338 1.08348 0.61035 0.0
C533 C 0.52607 0.23653 0.61594 0.0
C534 C 0.57877 0.21709 0.64772 0.0
N535 N 0.59198 0.13116 0.65921 0.0
N536 N 0.48147 0.16984 0.59795 0.0
H537 H 0.54863 0.99402 0.65191 0.0
C538 C 0.71676 0.21759 0.54424 0.0
O539 O 0.65128 0.16079 0.55175 0.0
O540 O 0.67734 1.07818 0.74729 0.0
H541 H 0.6121 0.26972 0.6628 0.0
H542 H 0.09506 0.20282 0.68041 0.0
H543 H 0.51699 0.3047 0.60608 0.0
loop_
_geom_bond_atom_site_label_1
_geom_bond_atom_site_label_2
_geom_bond_distance
_geom_bond_site_symmetry_2
_ccdc_geom_bond_type
Zn0 N4 2.020 1_565 S
Zn0 O8 2.019 . S
Zn0 N10 2.119 . S
Zn0 O18 1.975 1_565 S
C1 N2 1.334 . S
C1 N5 1.336 . S
N2 C1 1.334 . S
N2 C3 1.338 . S
C3 N2 1.338 . S
C3 N4 1.337 . S
N4 Zn0 2.020 1_545 S
N4 C3 1.337 . S
N4 N5 1.354 . S
N5 C1 1.336 . S
N5 N4 1.354 . S
N5 Zn9 2.020 . S
C6 O7 1.244 . S
C6 O30 1.257 1_556 S
O7 C6 1.244 . S
O8 Zn0 2.019 . S
O8 C28 1.257 . S
Zn9 N5 2.020 . S
Zn9 O16 1.975 . S
Zn9 N25 2.119 . S
Zn9 O30 2.019 . S
N10 Zn0 2.119 . S
N10 C12 1.334 . S
N10 C13 1.328 . S
C11 C12 1.391 . S
C11 N14 1.329 . S
C11 H32 0.930 . S
C12 N10 1.334 . S
C12 C11 1.391 . S
C12 H19 0.930 . S
C13 N10 1.328 . S
C13 C15 1.392 . S
C13 H20 0.930 . S
N14 C11 1.329 . S
N14 C15 1.331 . S
C15 C13 1.392 . S
C15 N14 1.331 . S
O16 Zn9 1.975 . S
O16 C17 1.252 . S
C17 O16 1.252 . S
C17 O18 1.252 . S
O18 Zn0 1.975 1_545 S
O18 C17 1.252 . S
H19 C12 0.930 . S
H20 C13 0.930 . S
C21 C22 1.392 . S
C21 N25 1.328 . S
C21 H27 0.930 . S
C22 C21 1.392 . S
C22 N26 1.331 . S
C23 C24 1.391 . S
C23 N26 1.329 . S
C23 H33 0.930 . S
C24 C23 1.391 . S
C24 N25 1.334 . S
C24 H31 0.930 . S
N25 Zn9 2.119 . S
N25 C21 1.328 . S
N25 C24 1.334 . S
N26 C22 1.331 . S
N26 C23 1.329 . S
H27 C21 0.930 . S
C28 O8 1.257 . S
C28 O29 1.244 1_565 S
O29 C28 1.244 1_545 S
O30 C6 1.257 1_554 S
O30 Zn9 2.019 . S
H31 C24 0.930 . S
H32 C11 0.930 . S
H33 C23 0.930 . S
Zn34 N38 2.020 . S
Zn34 O42 2.019 . S
Zn34 N44 2.119 . S
Zn34 O52 1.975 . S
C35 N36 1.334 . S
C35 N39 1.336 . S
N36 C35 1.334 . S
N36 C37 1.334 . S
C37 N36 1.334 . S
C37 N38 1.336 . S
N38 Zn34 2.020 . S
N38 C37 1.336 . S
N38 N39 1.354 . S
N39 C35 1.336 . S
N39 N38 1.354 . S
N39 Zn43 2.020 . S
C40 O41 1.244 . S
C40 O64 1.257 . S
O41 C40 1.244 . S
O42 Zn34 2.019 . S
O42 C62 1.257 . S
Zn43 N39 2.020 . S
Zn43 O50 1.975 . S
Zn43 N59 2.119 . S
Zn43 O64 2.019 . S
N44 Zn34 2.119 . S
N44 C46 1.334 . S
N44 C47 1.328 . S
C45 C46 1.391 . S
C45 N48 1.329 . S
C45 H66 0.930 . S
C46 N44 1.334 . S
C46 C45 1.391 . S
C46 H53 0.930 . S
C47 N44 1.328 . S
C47 C49 1.392 . S
C47 H54 0.930 . S
N48 C45 1.329 . S
N48 C49 1.331 . S
C49 C47 1.392 . S
C49 N48 1.331 . S
O50 Zn43 1.975 . S
O50 C51 1.252 . S
C51 O50 1.252 . S
C51 O52 1.252 . S
O52 Zn34 1.975 . S
O52 C51 1.252 . S
H53 C46 0.930 . S
H54 C47 0.930 . S
C55 C56 1.392 1_655 S
C55 N59 1.328 . S
C55 H61 0.930 . S
C56 C55 1.392 1_455 S
C56 N60 1.331 . S
C57 C58 1.391 . S
C57 N60 1.329 1_655 S
C57 H67 0.930 . S
C58 C57 1.391 . S
C58 N59 1.334 . S
C58 H65 0.930 . S
N59 Zn43 2.119 . S
N59 C55 1.328 . S
N59 C58 1.334 . S
N60 C56 1.331 . S
N60 C57 1.329 1_455 S
H61 C55 0.930 . S
C62 O42 1.257 . S
C62 O63 1.244 . S
O63 C62 1.244 . S
O64 C40 1.257 . S
O64 Zn43 2.019 . S
H65 C58 0.930 . S
H66 C45 0.930 . S
H67 C57 0.930 . S
Zn68 N72 2.020 1_545 S
Zn68 O76 2.019 . S
Zn68 N78 2.119 . S
Zn68 O86 1.975 1_545 S
C69 N70 1.334 1_455 S
C69 N73 1.336 . S
N70 C69 1.334 1_655 S
N70 C71 1.338 . S
C71 N70 1.338 . S
C71 N72 1.337 1_655 S
N72 Zn68 2.020 1_565 S
N72 C71 1.337 1_455 S
N72 N73 1.354 . S
N73 C69 1.336 . S
N73 N72 1.354 . S
N73 Zn77 2.020 . S
C74 O75 1.244 . S
C74 O98 1.257 . S
O75 C74 1.244 . S
O76 Zn68 2.019 . S
O76 C96 1.257 . S
Zn77 N73 2.020 . S
Zn77 O84 1.975 . S
Zn77 N93 2.119 . S
Zn77 O98 2.019 . S
N78 Zn68 2.119 . S
N78 C80 1.334 . S
N78 C81 1.328 . S
C79 C80 1.391 . S
C79 N82 1.329 . S
C79 H100 0.930 . S
C80 N78 1.334 . S
C80 C79 1.391 . S
C80 H87 0.930 . S
C81 N78 1.328 . S
C81 C83 1.392 . S
C81 H88 0.930 . S
N82 C79 1.329 . S
N82 C83 1.331 . S
C83 C81 1.392 . S
C83 N82 1.331 . S
O84 Zn77 1.975 . S
O84 C85 1.252 . S
C85 O84 1.252 . S
C85 O86 1.252 . S
O86 Zn68 1.975 1_565 S
O86 C85 1.252 . S
H87 C80 0.930 . S
H88 C81 0.930 . S
C89 C90 1.392 . S
C89 N93 1.328 . S
C89 H95 0.930 . S
C90 C89 1.392 . S
C90 N94 1.331 . S
C91 C92 1.391 . S
C91 N94 1.329 . S
C91 H101 0.930 . S
C92 C91 1.391 . S
C92 N93 1.334 . S
C92 H99 0.930 . S
N93 Zn77 2.119 . S
N93 C89 1.328 . S
N93 C92 1.334 . S
N94 C90 1.331 . S
N94 C91 1.329 . S
H95 C89 0.930 . S
C96 O76 1.257 . S
C96 O97 1.244 1_545 S
O97 C96 1.244 1_565 S
O98 C74 1.257 . S
O98 Zn77 2.019 . S
H99 C92 0.930 . S
H100 C79 0.930 . S
H101 C91 0.930 . S
Zn102 N106 2.020 . S
Zn102 O110 2.019 . S
Zn102 N112 2.119 . S
Zn102 O120 1.975 . S
C103 N104 1.334 . S
C103 N107 1.336 . S
N104 C103 1.334 . S
N104 C105 1.334 . S
C105 N104 1.334 . S
C105 N106 1.336 . S
N106 Zn102 2.020 . S
N106 C105 1.336 . S
N106 N107 1.354 . S
N107 C103 1.336 . S
N107 N106 1.354 . S
N107 Zn111 2.020 . S
C108 O109 1.244 . S
C108 O132 1.257 . S
O109 C108 1.244 . S
O110 Zn102 2.019 . S
O110 C130 1.257 . S
Zn111 N107 2.020 . S
Zn111 O118 1.975 . S
Zn111 N127 2.119 . S
Zn111 O132 2.019 . S
N112 Zn102 2.119 . S
N112 C114 1.334 . S
N112 C115 1.328 . S
C113 C114 1.391 . S
C113 N116 1.329 . S
C113 H134 0.930 . S
C114 N112 1.334 . S
C114 C113 1.391 . S
C114 H121 0.930 . S
C115 N112 1.328 . S
C115 C117 1.392 . S
C115 H122 0.930 . S
N116 C113 1.329 . S
N116 C117 1.331 . S
C117 C115 1.392 . S
C117 N116 1.331 . S
O118 Zn111 1.975 . S
O118 C119 1.252 . S
C119 O118 1.252 . S
C119 O120 1.252 . S
O120 Zn102 1.975 . S
O120 C119 1.252 . S
H121 C114 0.930 . S
H122 C115 0.930 . S
C123 C124 1.392 . S
C123 N127 1.328 1_455 S
C123 H129 0.930 . S
C124 C123 1.392 . S
C124 N128 1.331 . S
C125 C126 1.391 1_455 S
C125 N128 1.329 . S
C125 H135 0.930 . S
C126 C125 1.391 1_655 S
C126 N127 1.334 . S
C126 H133 0.930 . S
N127 Zn111 2.119 . S
N127 C123 1.328 1_655 S
N127 C126 1.334 . S
N128 C124 1.331 . S
N128 C125 1.329 . S
H129 C123 0.930 . S
C130 O110 1.257 . S
C130 O131 1.244 . S
O131 C130 1.244 . S
O132 C108 1.257 . S
O132 Zn111 2.019 . S
H133 C126 0.930 . S
H134 C113 0.930 . S
H135 C125 0.930 . S
Zn136 N140 2.020 1_545 S
Zn136 O144 2.019 . S
Zn136 N146 2.119 . S
Zn136 O154 1.975 1_545 S
C137 N138 1.334 . S
C137 N141 1.336 . S
N138 C137 1.334 . S
N138 C139 1.338 . S
C139 N138 1.338 . S
C139 N140 1.337 . S
N140 Zn136 2.020 1_565 S
N140 C139 1.337 . S
N140 N141 1.354 . S
N141 C137 1.336 . S
N141 N140 1.354 . S
N141 Zn145 2.020 . S
C142 O143 1.244 . S
C142 O166 1.257 1_554 S
O143 C142 1.244 . S
O144 Zn136 2.019 . S
O144 C164 1.257 . S
Zn145 N141 2.020 . S
Zn145 O152 1.975 . S
Zn145 N161 2.119 . S
Zn145 O166 2.019 . S
N146 Zn136 2.119 . S
N146 C148 1.334 . S
N146 C149 1.328 . S
C147 C148 1.391 . S
C147 N150 1.329 . S
C147 H168 0.930 . S
C148 N146 1.334 . S
C148 C147 1.391 . S
C148 H155 0.930 . S
C149 N146 1.328 . S
C149 C151 1.392 . S
C149 H156 0.930 . S
N150 C147 1.329 . S
N150 C151 1.331 . S
C151 C149 1.392 . S
C151 N150 1.331 . S
O152 Zn145 1.975 . S
O152 C153 1.252 . S
C153 O152 1.252 . S
C153 O154 1.252 . S
O154 Zn136 1.975 1_565 S
O154 C153 1.252 . S
H155 C148 0.930 . S
H156 C149 0.930 . S
C157 C158 1.392 . S
C157 N161 1.328 . S
C157 H163 0.930 . S
C158 C157 1.392 . S
C158 N162 1.331 . S
C159 C160 1.391 . S
C159 N162 1.329 . S
C159 H169 0.930 . S
C160 C159 1.391 . S
C160 N161 1.334 . S
C160 H167 0.930 . S
N161 Zn145 2.119 . S
N161 C157 1.328 . S
N161 C160 1.334 . S
N162 C158 1.331 . S
N162 C159 1.329 . S
H163 C157 0.930 . S
C164 O144 1.257 . S
C164 O165 1.244 1_545 S
O165 C164 1.244 1_565 S
O166 C142 1.257 1_556 S
O166 Zn145 2.019 . S
H167 C160 0.930 . S
H168 C147 0.930 . S
H169 C159 0.930 . S
Zn170 N174 2.020 . S
Zn170 O178 2.019 . S
Zn170 N180 2.119 . S
Zn170 O188 1.975 . S
C171 N172 1.334 . S
C171 N175 1.336 . S
N172 C171 1.334 . S
N172 C173 1.334 . S
C173 N172 1.334 . S
C173 N174 1.336 . S
N174 Zn170 2.020 . S
N174 C173 1.336 . S
N174 N175 1.354 . S
N175 C171 1.336 . S
N175 N174 1.354 . S
N175 Zn179 2.020 . S
C176 O177 1.244 . S
C176 O200 1.257 . S
O177 C176 1.244 . S
O178 Zn170 2.019 . S
O178 C198 1.257 . S
Zn179 N175 2.020 . S
Zn179 O186 1.975 . S
Zn179 N195 2.119 . S
Zn179 O200 2.019 . S
N180 Zn170 2.119 . S
N180 C182 1.334 . S
N180 C183 1.328 . S
C181 C182 1.391 . S
C181 N184 1.329 . S
C181 H202 0.930 . S
C182 N180 1.334 . S
C182 C181 1.391 . S
C182 H189 0.930 . S
C183 N180 1.328 . S
C183 C185 1.392 . S
C183 H190 0.930 . S
N184 C181 1.329 . S
N184 C185 1.331 . S
C185 C183 1.392 . S
C185 N184 1.331 . S
O186 Zn179 1.975 . S
O186 C187 1.252 . S
C187 O186 1.252 . S
C187 O188 1.252 . S
O188 Zn170 1.975 . S
O188 C187 1.252 . S
H189 C182 0.930 . S
H190 C183 0.930 . S
C191 C192 1.392 1_455 S
C191 N195 1.328 . S
C191 H197 0.930 . S
C192 C191 1.392 1_655 S
C192 N196 1.331 . S
C193 C194 1.391 . S
C193 N196 1.329 1_455 S
C193 H203 0.930 . S
C194 C193 1.391 . S
C194 N195 1.334 . S
C194 H201 0.930 . S
N195 Zn179 2.119 . S
N195 C191 1.328 . S
N195 C194 1.334 . S
N196 C192 1.331 . S
N196 C193 1.329 1_655 S
H197 C191 0.930 . S
C198 O178 1.257 . S
C198 O199 1.244 . S
O199 C198 1.244 . S
O200 C176 1.257 . S
O200 Zn179 2.019 . S
H201 C194 0.930 . S
H202 C181 0.930 . S
H203 C193 0.930 . S
Zn204 N208 2.020 . S
Zn204 O212 2.019 . S
Zn204 N214 2.119 . S
Zn204 O222 1.975 . S
C205 N206 1.338 . S
C205 N209 1.337 1_455 S
N206 C205 1.338 . S
N206 C207 1.334 1_455 S
C207 N206 1.334 1_655 S
C207 N208 1.336 . S
N208 Zn204 2.020 . S
N208 C207 1.336 . S
N208 N209 1.354 . S
N209 C205 1.337 1_655 S
N209 N208 1.354 . S
N209 Zn213 2.020 1_545 S
C210 O211 1.244 1_565 S
C210 O234 1.257 . S
O211 C210 1.244 1_545 S
O212 Zn204 2.019 . S
O212 C232 1.257 . S
Zn213 N209 2.020 1_565 S
Zn213 O220 1.975 1_565 S
Zn213 N229 2.119 . S
Zn213 O234 2.019 . S
N214 Zn204 2.119 . S
N214 C216 1.334 . S
N214 C217 1.328 . S
C215 C216 1.391 . S
C215 N218 1.329 . S
C215 H236 0.930 . S
C216 N214 1.334 . S
C216 C215 1.391 . S
C216 H223 0.930 . S
C217 N214 1.328 . S
C217 C219 1.392 . S
C217 H224 0.930 . S
N218 C215 1.329 . S
N218 C219 1.331 . S
C219 C217 1.392 . S
C219 N218 1.331 . S
O220 Zn213 1.975 1_545 S
O220 C221 1.252 . S
C221 O220 1.252 . S
C221 O222 1.252 . S
O222 Zn204 1.975 . S
O222 C221 1.252 . S
H223 C216 0.930 . S
H224 C217 0.930 . S
C225 C226 1.392 . S
C225 N229 1.328 . S
C225 H231 0.930 . S
C226 C225 1.392 . S
C226 N230 1.331 . S
C227 C228 1.391 . S
C227 N230 1.329 . S
C227 H237 0.930 . S
C228 C227 1.391 . S
C228 N229 1.334 . S
C228 H235 0.930 . S
N229 Zn213 2.119 . S
N229 C225 1.328 . S
N229 C228 1.334 . S
N230 C226 1.331 . S
N230 C227 1.329 . S
H231 C225 0.930 . S
C232 O212 1.257 . S
C232 O233 1.244 . S
O233 C232 1.244 . S
O234 C210 1.257 . S
O234 Zn213 2.019 . S
H235 C228 0.930 . S
H236 C215 0.930 . S
H237 C227 0.930 . S
Zn238 N242 2.020 . S
Zn238 O246 2.019 . S
Zn238 N248 2.119 . S
Zn238 O256 1.975 . S
C239 N240 1.334 . S
C239 N243 1.336 . S
N240 C239 1.334 . S
N240 C241 1.334 . S
C241 N240 1.334 . S
C241 N242 1.336 . S
N242 Zn238 2.020 . S
N242 C241 1.336 . S
N242 N243 1.354 . S
N243 C239 1.336 . S
N243 N242 1.354 . S
N243 Zn247 2.020 . S
C244 O245 1.244 . S
C244 O268 1.257 . S
O245 C244 1.244 . S
O246 Zn238 2.019 . S
O246 C266 1.257 . S
Zn247 N243 2.020 . S
Zn247 O254 1.975 . S
Zn247 N263 2.119 . S
Zn247 O268 2.019 . S
N248 Zn238 2.119 . S
N248 C250 1.334 . S
N248 C251 1.328 . S
C249 C250 1.391 . S
C249 N252 1.329 . S
C249 H270 0.930 . S
C250 N248 1.334 . S
C250 C249 1.391 . S
C250 H257 0.930 . S
C251 N248 1.328 . S
C251 C253 1.392 . S
C251 H258 0.930 . S
N252 C249 1.329 . S
N252 C253 1.331 . S
C253 C251 1.392 . S
C253 N252 1.331 . S
O254 Zn247 1.975 . S
O254 C255 1.252 . S
C255 O254 1.252 . S
C255 O256 1.252 . S
O256 Zn238 1.975 . S
O256 C255 1.252 . S
H257 C250 0.930 . S
H258 C251 0.930 . S
C259 C260 1.392 . S
C259 N263 1.328 1_655 S
C259 H265 0.930 . S
C260 C259 1.392 . S
C260 N264 1.331 . S
C261 C262 1.391 1_655 S
C261 N264 1.329 . S
C261 H271 0.930 . S
C262 C261 1.391 1_455 S
C262 N263 1.334 . S
C262 H269 0.930 . S
N263 Zn247 2.119 . S
N263 C259 1.328 1_455 S
N263 C262 1.334 . S
N264 C260 1.331 . S
N264 C261 1.329 . S
H265 C259 0.930 . S
C266 O246 1.257 . S
C266 O267 1.244 . S
O267 C266 1.244 . S
O268 C244 1.257 . S
O268 Zn247 2.019 . S
H269 C262 0.930 . S
H270 C249 0.930 . S
H271 C261 0.930 . S
Zn272 N276 2.020 . S
Zn272 O280 2.019 . S
Zn272 N282 2.119 . S
Zn272 O290 1.975 . S
C273 N274 1.334 1_655 S
C273 N277 1.336 . S
N274 C273 1.334 1_455 S
N274 C275 1.334 . S
C275 N274 1.334 . S
C275 N276 1.336 1_455 S
N276 Zn272 2.020 . S
N276 C275 1.336 1_655 S
N276 N277 1.354 . S
N277 C273 1.336 . S
N277 N276 1.354 . S
N277 Zn281 2.020 . S
C278 O279 1.244 . S
C278 O302 1.257 . S
O279 C278 1.244 . S
O280 Zn272 2.019 . S
O280 C300 1.257 . S
Zn281 N277 2.020 . S
Zn281 O288 1.975 . S
Zn281 N297 2.119 . S
Zn281 O302 2.019 . S
N282 Zn272 2.119 . S
N282 C284 1.334 . S
N282 C285 1.328 . S
C283 C284 1.391 . S
C283 N286 1.329 . S
C283 H304 0.930 . S
C284 N282 1.334 . S
C284 C283 1.391 . S
C284 H291 0.930 . S
C285 N282 1.328 . S
C285 C287 1.392 . S
C285 H292 0.930 . S
N286 C283 1.329 . S
N286 C287 1.331 . S
C287 C285 1.392 . S
C287 N286 1.331 . S
O288 Zn281 1.975 . S
O288 C289 1.252 . S
C289 O288 1.252 . S
C289 O290 1.252 . S
O290 Zn272 1.975 . S
O290 C289 1.252 . S
H291 C284 0.930 . S
H292 C285 0.930 . S
C293 C294 1.392 . S
C293 N297 1.328 . S
C293 H299 0.930 . S
C294 C293 1.392 . S
C294 N298 1.331 . S
C295 C296 1.391 . S
C295 N298 1.329 . S
C295 H305 0.930 . S
C296 C295 1.391 . S
C296 N297 1.334 . S
C296 H303 0.930 . S
N297 Zn281 2.119 . S
N297 C293 1.328 . S
N297 C296 1.334 . S
N298 C294 1.331 . S
N298 C295 1.329 . S
H299 C293 0.930 . S
C300 O280 1.257 . S
C300 O301 1.244 . S
O301 C300 1.244 . S
O302 C278 1.257 . S
O302 Zn281 2.019 . S
H303 C296 0.930 . S
H304 C283 0.930 . S
H305 C295 0.930 . S
Zn306 N310 2.020 . S
Zn306 O314 2.019 . S
Zn306 N316 2.119 . S
Zn306 O324 1.975 1_545 S
C307 N308 1.334 . S
C307 N311 1.336 . S
N308 C307 1.334 . S
N308 C309 1.334 . S
C309 N308 1.334 . S
C309 N310 1.336 . S
N310 Zn306 2.020 . S
N310 C309 1.336 . S
N310 N311 1.354 . S
N311 C307 1.336 . S
N311 N310 1.354 . S
N311 Zn315 2.020 . S
C312 O313 1.244 . S
C312 O336 1.257 . S
O313 C312 1.244 . S
O314 Zn306 2.019 . S
O314 C334 1.257 . S
Zn315 N311 2.020 . S
Zn315 O322 1.975 . S
Zn315 N331 2.119 . S
Zn315 O336 2.019 . S
N316 Zn306 2.119 . S
N316 C318 1.334 . S
N316 C319 1.328 1_455 S
C317 C318 1.391 1_655 S
C317 N320 1.329 . S
C317 H338 0.930 . S
C318 N316 1.334 . S
C318 C317 1.391 1_455 S
C318 H325 0.930 . S
C319 N316 1.328 1_655 S
C319 C321 1.392 . S
C319 H326 0.930 . S
N320 C317 1.329 . S
N320 C321 1.331 . S
C321 C319 1.392 . S
C321 N320 1.331 . S
O322 Zn315 1.975 . S
O322 C323 1.252 1_545 S
C323 O322 1.252 1_565 S
C323 O324 1.252 . S
O324 Zn306 1.975 1_565 S
O324 C323 1.252 . S
H325 C318 0.930 . S
H326 C319 0.930 . S
C327 C328 1.392 . S
C327 N331 1.328 . S
C327 H333 0.930 . S
C328 C327 1.392 . S
C328 N332 1.331 . S
C329 C330 1.391 . S
C329 N332 1.329 . S
C329 H339 0.930 . S
C330 C329 1.391 . S
C330 N331 1.334 . S
C330 H337 0.930 . S
N331 Zn315 2.119 . S
N331 C327 1.328 . S
N331 C330 1.334 . S
N332 C328 1.331 . S
N332 C329 1.329 . S
H333 C327 0.930 . S
C334 O314 1.257 . S
C334 O335 1.244 . S
O335 C334 1.244 . S
O336 C312 1.257 . S
O336 Zn315 2.019 . S
H337 C330 0.930 . S
H338 C317 0.930 . S
H339 C329 0.930 . S
Zn340 N344 2.020 . S
Zn340 O348 2.019 . S
Zn340 N350 2.119 . S
Zn340 O358 1.975 . S
C341 N342 1.334 . S
C341 N345 1.336 . S
N342 C341 1.334 . S
N342 C343 1.334 . S
C343 N342 1.334 . S
C343 N344 1.336 . S
N344 Zn340 2.020 . S
N344 C343 1.336 . S
N344 N345 1.354 . S
N345 C341 1.336 . S
N345 N344 1.354 . S
N345 Zn349 2.020 . S
C346 O347 1.244 . S
C346 O370 1.257 1_556 S
O347 C346 1.244 . S
O348 Zn340 2.019 . S
O348 C368 1.257 . S
Zn349 N345 2.020 . S
Zn349 O356 1.975 . S
Zn349 N365 2.119 . S
Zn349 O370 2.019 . S
N350 Zn340 2.119 . S
N350 C352 1.334 . S
N350 C353 1.328 . S
C351 C352 1.391 . S
C351 N354 1.329 . S
C351 H372 0.930 . S
C352 N350 1.334 . S
C352 C351 1.391 . S
C352 H359 0.930 . S
C353 N350 1.328 . S
C353 C355 1.392 . S
C353 H360 0.930 . S
N354 C351 1.329 . S
N354 C355 1.331 . S
C355 C353 1.392 . S
C355 N354 1.331 . S
O356 Zn349 1.975 . S
O356 C357 1.252 . S
C357 O356 1.252 . S
C357 O358 1.252 . S
O358 Zn340 1.975 . S
O358 C357 1.252 . S
H359 C352 0.930 . S
H360 C353 0.930 . S
C361 C362 1.392 . S
C361 N365 1.328 . S
C361 H367 0.930 . S
C362 C361 1.392 . S
C362 N366 1.331 . S
C363 C364 1.391 . S
C363 N366 1.329 . S
C363 H373 0.930 . S
C364 C363 1.391 . S
C364 N365 1.334 . S
C364 H371 0.930 . S
N365 Zn349 2.119 . S
N365 C361 1.328 . S
N365 C364 1.334 . S
N366 C362 1.331 . S
N366 C363 1.329 . S
H367 C361 0.930 . S
C368 O348 1.257 . S
C368 O369 1.244 . S
O369 C368 1.244 . S
O370 C346 1.257 1_554 S
O370 Zn349 2.019 . S
H371 C364 0.930 . S
H372 C351 0.930 . S
H373 C363 0.930 . S
Zn374 N378 2.020 . S
Zn374 O382 2.019 . S
Zn374 N384 2.119 . S
Zn374 O392 1.975 . S
C375 N376 1.334 . S
C375 N379 1.336 . S
N376 C375 1.334 . S
N376 C377 1.334 . S
C377 N376 1.334 . S
C377 N378 1.336 . S
N378 Zn374 2.020 . S
N378 C377 1.336 . S
N378 N379 1.354 . S
N379 C375 1.336 . S
N379 N378 1.354 . S
N379 Zn383 2.020 . S
C380 O381 1.244 . S
C380 O404 1.257 . S
O381 C380 1.244 . S
O382 Zn374 2.019 . S
O382 C402 1.257 . S
Zn383 N379 2.020 . S
Zn383 O390 1.975 1_565 S
Zn383 N399 2.119 . S
Zn383 O404 2.019 . S
N384 Zn374 2.119 . S
N384 C386 1.334 . S
N384 C387 1.328 . S
C385 C386 1.391 . S
C385 N388 1.329 1_455 S
C385 H406 0.930 . S
C386 N384 1.334 . S
C386 C385 1.391 . S
C386 H393 0.930 . S
C387 N384 1.328 . S
C387 C389 1.392 1_455 S
C387 H394 0.930 . S
N388 C385 1.329 1_655 S
N388 C389 1.331 . S
C389 C387 1.392 1_655 S
C389 N388 1.331 . S
O390 Zn383 1.975 1_545 S
O390 C391 1.252 . S
C391 O390 1.252 . S
C391 O392 1.252 1_545 S
O392 Zn374 1.975 . S
O392 C391 1.252 1_565 S
H393 C386 0.930 . S
H394 C387 0.930 . S
C395 C396 1.392 . S
C395 N399 1.328 . S
C395 H401 0.930 . S
C396 C395 1.392 . S
C396 N400 1.331 . S
C397 C398 1.391 . S
C397 N400 1.329 . S
C397 H407 0.930 . S
C398 C397 1.391 . S
C398 N399 1.334 . S
C398 H405 0.930 . S
N399 Zn383 2.119 . S
N399 C395 1.328 . S
N399 C398 1.334 . S
N400 C396 1.331 . S
N400 C397 1.329 . S
H401 C395 0.930 . S
C402 O382 1.257 . S
C402 O403 1.244 . S
O403 C402 1.244 . S
O404 C380 1.257 . S
O404 Zn383 2.019 . S
H405 C398 0.930 . S
H406 C385 0.930 . S
H407 C397 0.930 . S
Zn408 N412 2.020 . S
Zn408 O416 2.019 . S
Zn408 N418 2.119 . S
Zn408 O426 1.975 . S
C409 N410 1.334 . S
C409 N413 1.336 1_655 S
N410 C409 1.334 . S
N410 C411 1.334 1_655 S
C411 N410 1.334 1_455 S
C411 N412 1.336 . S
N412 Zn408 2.020 . S
N412 C411 1.336 . S
N412 N413 1.354 . S
N413 C409 1.336 1_455 S
N413 N412 1.354 . S
N413 Zn417 2.020 . S
C414 O415 1.244 . S
C414 O438 1.257 . S
O415 C414 1.244 . S
O416 Zn408 2.019 . S
O416 C436 1.257 . S
Zn417 N413 2.020 . S
Zn417 O424 1.975 . S
Zn417 N433 2.119 . S
Zn417 O438 2.019 . S
N418 Zn408 2.119 . S
N418 C420 1.334 . S
N418 C421 1.328 . S
C419 C420 1.391 . S
C419 N422 1.329 . S
C419 H440 0.930 . S
C420 N418 1.334 . S
C420 C419 1.391 . S
C420 H427 0.930 . S
C421 N418 1.328 . S
C421 C423 1.392 . S
C421 H428 0.930 . S
N422 C419 1.329 . S
N422 C423 1.331 . S
C423 C421 1.392 . S
C423 N422 1.331 . S
O424 Zn417 1.975 . S
O424 C425 1.252 . S
C425 O424 1.252 . S
C425 O426 1.252 . S
O426 Zn408 1.975 . S
O426 C425 1.252 . S
H427 C420 0.930 . S
H428 C421 0.930 . S
C429 C430 1.392 . S
C429 N433 1.328 . S
C429 H435 0.930 . S
C430 C429 1.392 . S
C430 N434 1.331 . S
C431 C432 1.391 . S
C431 N434 1.329 . S
C431 H441 0.930 . S
C432 C431 1.391 . S
C432 N433 1.334 . S
C432 H439 0.930 . S
N433 Zn417 2.119 . S
N433 C429 1.328 . S
N433 C432 1.334 . S
N434 C430 1.331 . S
N434 C431 1.329 . S
H435 C429 0.930 . S
C436 O416 1.257 . S
C436 O437 1.244 . S
O437 C436 1.244 . S
O438 C414 1.257 . S
O438 Zn417 2.019 . S
H439 C432 0.930 . S
H440 C419 0.930 . S
H441 C431 0.930 . S
Zn442 N446 2.020 . S
Zn442 O450 2.019 . S
Zn442 N452 2.119 . S
Zn442 O460 1.975 1_565 S
C443 N444 1.334 . S
C443 N447 1.336 . S
N444 C443 1.334 . S
N444 C445 1.334 . S
C445 N444 1.334 . S
C445 N446 1.336 . S
N446 Zn442 2.020 . S
N446 C445 1.336 . S
N446 N447 1.354 . S
N447 C443 1.336 . S
N447 N446 1.354 . S
N447 Zn451 2.020 . S
C448 O449 1.244 . S
C448 O472 1.257 . S
O449 C448 1.244 . S
O450 Zn442 2.019 . S
O450 C470 1.257 . S
Zn451 N447 2.020 . S
Zn451 O458 1.975 . S
Zn451 N467 2.119 . S
Zn451 O472 2.019 . S
N452 Zn442 2.119 . S
N452 C454 1.334 . S
N452 C455 1.328 1_655 S
C453 C454 1.391 1_455 S
C453 N456 1.329 . S
C453 H474 0.930 . S
C454 N452 1.334 . S
C454 C453 1.391 1_655 S
C454 H461 0.930 . S
C455 N452 1.328 1_455 S
C455 C457 1.392 . S
C455 H462 0.930 . S
N456 C453 1.329 . S
N456 C457 1.331 . S
C457 C455 1.392 . S
C457 N456 1.331 . S
O458 Zn451 1.975 . S
O458 C459 1.252 1_565 S
C459 O458 1.252 1_545 S
C459 O460 1.252 . S
O460 Zn442 1.975 1_545 S
O460 C459 1.252 . S
H461 C454 0.930 . S
H462 C455 0.930 . S
C463 C464 1.392 . S
C463 N467 1.328 . S
C463 H469 0.930 . S
C464 C463 1.392 . S
C464 N468 1.331 . S
C465 C466 1.391 . S
C465 N468 1.329 . S
C465 H475 0.930 . S
C466 C465 1.391 . S
C466 N467 1.334 . S
C466 H473 0.930 . S
N467 Zn451 2.119 . S
N467 C463 1.328 . S
N467 C466 1.334 . S
N468 C464 1.331 . S
N468 C465 1.329 . S
H469 C463 0.930 . S
C470 O450 1.257 . S
C470 O471 1.244 . S
O471 C470 1.244 . S
O472 C448 1.257 . S
O472 Zn451 2.019 . S
H473 C466 0.930 . S
H474 C453 0.930 . S
H475 C465 0.930 . S
Zn476 N480 2.020 . S
Zn476 O484 2.019 . S
Zn476 N486 2.119 . S
Zn476 O494 1.975 . S
C477 N478 1.334 . S
C477 N481 1.336 . S
N478 C477 1.334 . S
N478 C479 1.334 . S
C479 N478 1.334 . S
C479 N480 1.336 . S
N480 Zn476 2.020 . S
N480 C479 1.336 . S
N480 N481 1.354 . S
N481 C477 1.336 . S
N481 N480 1.354 . S
N481 Zn485 2.020 . S
C482 O483 1.244 . S
C482 O506 1.257 1_554 S
O483 C482 1.244 . S
O484 Zn476 2.019 . S
O484 C504 1.257 . S
Zn485 N481 2.020 . S
Zn485 O492 1.975 . S
Zn485 N501 2.119 . S
Zn485 O506 2.019 . S
N486 Zn476 2.119 . S
N486 C488 1.334 . S
N486 C489 1.328 . S
C487 C488 1.391 . S
C487 N490 1.329 . S
C487 H508 0.930 . S
C488 N486 1.334 . S
C488 C487 1.391 . S
C488 H495 0.930 . S
C489 N486 1.328 . S
C489 C491 1.392 . S
C489 H496 0.930 . S
N490 C487 1.329 . S
N490 C491 1.331 . S
C491 C489 1.392 . S
C491 N490 1.331 . S
O492 Zn485 1.975 . S
O492 C493 1.252 . S
C493 O492 1.252 . S
C493 O494 1.252 . S
O494 Zn476 1.975 . S
O494 C493 1.252 . S
H495 C488 0.930 . S
H496 C489 0.930 . S
C497 C498 1.392 . S
C497 N501 1.328 . S
C497 H503 0.930 . S
C498 C497 1.392 . S
C498 N502 1.331 . S
C499 C500 1.391 . S
C499 N502 1.329 . S
C499 H509 0.930 . S
C500 C499 1.391 . S
C500 N501 1.334 . S
C500 H507 0.930 . S
N501 Zn485 2.119 . S
N501 C497 1.328 . S
N501 C500 1.334 . S
N502 C498 1.331 . S
N502 C499 1.329 . S
H503 C497 0.930 . S
C504 O484 1.257 . S
C504 O505 1.244 . S
O505 C504 1.244 . S
O506 C482 1.257 1_556 S
O506 Zn485 2.019 . S
H507 C500 0.930 . S
H508 C487 0.930 . S
H509 C499 0.930 . S
Zn510 N514 2.020 . S
Zn510 O518 2.019 . S
Zn510 N520 2.119 . S
Zn510 O528 1.975 . S
C511 N512 1.334 . S
C511 N515 1.336 . S
N512 C511 1.334 . S
N512 C513 1.334 . S
C513 N512 1.334 . S
C513 N514 1.336 . S
N514 Zn510 2.020 . S
N514 C513 1.336 . S
N514 N515 1.354 . S
N515 C511 1.336 . S
N515 N514 1.354 . S
N515 Zn519 2.020 . S
C516 O517 1.244 . S
C516 O540 1.257 . S
O517 C516 1.244 . S
O518 Zn510 2.019 . S
O518 C538 1.257 . S
Zn519 N515 2.020 . S
Zn519 O526 1.975 1_545 S
Zn519 N535 2.119 . S
Zn519 O540 2.019 . S
N520 Zn510 2.119 . S
N520 C522 1.334 . S
N520 C523 1.328 . S
C521 C522 1.391 . S
C521 N524 1.329 1_655 S
C521 H542 0.930 . S
C522 N520 1.334 . S
C522 C521 1.391 . S
C522 H529 0.930 . S
C523 N520 1.328 . S
C523 C525 1.392 1_655 S
C523 H530 0.930 . S
N524 C521 1.329 1_455 S
N524 C525 1.331 . S
C525 C523 1.392 1_455 S
C525 N524 1.331 . S
O526 Zn519 1.975 1_565 S
O526 C527 1.252 . S
C527 O526 1.252 . S
C527 O528 1.252 1_565 S
O528 Zn510 1.975 . S
O528 C527 1.252 1_545 S
H529 C522 0.930 . S
H530 C523 0.930 . S
C531 C532 1.392 . S
C531 N535 1.328 . S
C531 H537 0.930 . S
C532 C531 1.392 . S
C532 N536 1.331 . S
C533 C534 1.391 . S
C533 N536 1.329 . S
C533 H543 0.930 . S
C534 C533 1.391 . S
C534 N535 1.334 . S
C534 H541 0.930 . S
N535 Zn519 2.119 . S
N535 C531 1.328 . S
N535 C534 1.334 . S
N536 C532 1.331 . S
N536 C533 1.329 . S
H537 C531 0.930 . S
C538 O518 1.257 . S
C538 O539 1.244 . S
O539 C538 1.244 . S
O540 C516 1.257 . S
O540 Zn519 2.019 . S
H541 C534 0.930 . S
H542 C521 0.930 . S
H543 C533 0.930 . S
C255 C22 3.329 . S
C425 C49 3.330 . S
C90 C187 3.329 . S
C493 C124 3.330 . S
C119 C158 3.329 . S
C185 C289 3.330 . S
C219 C51 3.329 . S
C357 C260 3.330 . S
C527 C294 3.329 . S
C321 C153 3.330 1_545 S
C459 C362 3.329 . S
C221 C396 3.330 1_545 S
C391 C423 3.329 . S
C457 C17 3.330 1_565 S
C498 C323 3.329 . S
C85 C532 3.330 1_565 S
C312 C6 0.561 . S
C62 C368 0.561 . S
C74 C402 0.561 . S
C108 C300 0.561 . S
C448 C142 0.561 . S
C198 C504 0.561 . S
C538 C232 0.561 . S
C244 C414 0.561 . S
C40 C278 0.561 . S
C96 C334 0.561 . S
C130 C346 0.561 . S
C28 C380 0.561 . S
C436 C176 0.561 . S
C210 C470 0.561 . S
C266 C482 0.561 . S
C516 C164 0.561 . S
C137 C1 4.578 1_566 S
C37 C445 4.578 . S
C207 C69 4.578 1_645 S
C511 C103 4.578 . S
C309 C173 4.578 . S
C239 C375 4.578 . S
C273 C411 4.578 1_655 S
C341 C477 4.578 1_554 S
C241 C15 1.243 . S
C409 C56 1.243 1_655 S
C83 C171 1.243 . S
C117 C479 1.243 . S
C151 C105 1.243 . S
C192 C275 1.243 1_655 S
C226 C35 1.243 . S
C343 C253 1.243 . S
C287 C513 1.243 . S
C139 C328 1.235 1_565 S
C443 C355 1.243 . S
C389 C205 1.235 1_665 S
C377 C430 1.243 . S
C3 C464 1.235 1_545 S
C491 C307 1.243 . S
C71 C525 1.235 1_665 S
