# Generated by pormake.
# Topology reo, (8)-cn, num edge types: 1
# Building blocks:
#     Node 0, Type 0, BuildingBlock: VETTIZ_charged_sbu_0, # of connection points: 8
#     Node 1, Type 0, BuildingBlock: VETTIZ_charged_sbu_0, # of connection points: 8
#     Node 2, Type 0, BuildingBlock: VETTIZ_charged_sbu_0, # of connection points: 8
#     Edge 3, Type (0, 0), BuildingBlock: MIFKUJ_clean_linker_0, # of connection points: 2
#     Edge 4, Type (0, 0), BuildingBlock: MIFKUJ_clean_linker_0, # of connection points: 2
#     Edge 5, Type (0, 0), BuildingBlock: MIFKUJ_clean_linker_0, # of connection points: 2
#     Edge 6, Type (0, 0), BuildingBlock: MIFKUJ_clean_linker_0, # of connection points: 2
#     Edge 7, Type (0, 0), BuildingBlock: MIFKUJ_clean_linker_0, # of connection points: 2
#     Edge 8, Type (0, 0), BuildingBlock: MIFKUJ_clean_linker_0, # of connection points: 2
#     Edge 9, Type (0, 0), BuildingBlock: MIFKUJ_clean_linker_0, # of connection points: 2
#     Edge 10, Type (0, 0), BuildingBlock: MIFKUJ_clean_linker_0, # of connection points: 2
#     Edge 11, Type (0, 0), BuildingBlock: MIFKUJ_clean_linker_0, # of connection points: 2
#     Edge 12, Type (0, 0), BuildingBlock: MIFKUJ_clean_linker_0, # of connection points: 2
#     Edge 13, Type (0, 0), BuildingBlock: MIFKUJ_clean_linker_0, # of connection points: 2
#     Edge 14, Type (0, 0), BuildingBlock: MIFKUJ_clean_linker_0, # of connection points: 2
# Relax obj value: 0.145
# Max RMSD: 0.165
# Mean RMSD: 0.165
data_MOF--net-reo--node1-VETTIZ_charged_sbu_0--edge1-MIFKUJ_clean_linker_0
_symmetry_space_group_name_H-M    P1
_symmetry_Int_Tables_number       1
_symmetry_cell_setting            triclinic
loop_
_symmetry_equiv_pos_as_xyz
'x, y, z'
_cell_length_a     29.540393
_cell_length_b     29.659576
_cell_length_c     30.193672
_cell_angle_alpha  90.121882
_cell_angle_beta   90.378744
_cell_angle_gamma 90.133487
loop_
_atom_site_label
_atom_site_type_symbol
_atom_site_fract_x
_atom_site_fract_y
_atom_site_fract_z
_atom_type_partial_charge
Fe0 Fe 0.01606 0.01461 0.44517 0.0
O1 O 0.01106 0.04914 0.50151 0.0
Fe2 Fe 0.03409 0.90399 0.47718 0.0
Fe3 Fe 0.97526 0.10482 0.50693 0.0
O4 O 0.99982 0.96042 0.48056 0.0
O5 O 0.99869 0.95966 0.48373 0.0
O6 O 0.01019 0.04836 0.50486 0.0
Fe7 Fe 0.99352 0.99406 0.54012 0.0
C8 C 0.04129 0.11526 0.43045 0.0
O9 O 0.94931 0.02391 0.43139 0.0
O10 O 0.94026 0.09651 0.44725 0.0
O11 O 0.97595 0.93322 0.57022 0.0
O12 O 0.9827 0.87842 0.51619 0.0
O13 O 1.00208 0.90108 0.41616 0.0
O14 O 0.01778 0.97249 0.38966 0.0
O15 O 0.92158 0.07743 0.54159 0.0
O16 O 0.92634 0.00445 0.52706 0.0
C17 C 0.00478 0.93082 0.38458 0.0
O18 O 0.06001 0.9838 0.55533 0.0
O19 O 0.06987 0.91183 0.53616 0.0
O20 O 0.03324 0.07517 0.41461 0.0
O21 O 0.02723 0.13013 0.46851 0.0
C22 C 0.92974 0.06131 0.42509 0.0
C23 C 0.90501 0.03785 0.54276 0.0
C24 C 0.00381 0.0782 0.60039 0.0
O25 O 0.00609 0.10796 0.56869 0.0
O26 O 0.99143 0.03634 0.59531 0.0
C27 C 0.96854 0.893 0.55432 0.0
O28 O 0.08695 0.93197 0.44177 0.0
O29 O 0.08347 0.00474 0.45741 0.0
C30 C 0.07963 0.94608 0.55999 0.0
C31 C 0.1039 0.97149 0.44042 0.0
Fe32 Fe 0.45087 1.00143 0.99205 0.0
O33 O 0.50092 0.99697 0.03661 0.0
Fe34 Fe 0.50396 0.05133 0.90213 0.0
Fe35 Fe 0.50306 0.95069 0.08303 0.0
O36 O 0.5015 0.00548 0.94872 0.0
O37 O 0.50626 0.00502 0.94866 0.0
O38 O 0.50542 0.99685 0.03664 0.0
Fe39 Fe 0.55617 0.00256 -0.00641 0.0
C40 C 0.41209 0.9989 0.08701 0.0
O41 O 0.44876 0.93285 0.98373 0.0
O42 O 0.45407 0.90961 0.05371 0.0
O43 O 0.60261 0.00761 0.94103 0.0
O44 O 0.5568 0.01332 0.87885 0.0
O45 O 0.451 0.01319 0.87746 0.0
O46 O 0.40509 0.00505 0.93857 0.0
O47 O 0.55312 0.91086 0.05566 0.0
O48 O 0.56084 0.93357 0.98587 0.0
C49 C 0.41293 0.00262 0.89618 0.0
O50 O 0.55549 0.07163 0.00119 0.0
O51 O 0.55387 0.09147 0.93038 0.0
O52 O 0.40458 0.99728 0.04445 0.0
O53 O 0.44985 0.98845 0.10668 0.0
C54 C 0.44073 0.90406 0.01378 0.0
C55 C 0.56745 0.90472 0.01639 0.0
C56 C 0.59289 0.00256 0.09015 0.0
O57 O 0.55518 0.98961 0.10819 0.0
O58 O 0.60144 1.00113 0.04779 0.0
C59 C 0.59517 0.00482 0.89842 0.0
O60 O 0.45479 0.0919 0.92995 0.0
O61 O 0.44886 0.0704 0.00024 0.0
C62 C 0.56572 0.09888 0.97037 0.0
C63 C 0.44187 0.09894 0.96955 0.0
Fe64 Fe 0.01089 0.45055 0.00122 0.0
O65 O 1.00263 0.50661 0.03673 0.0
Fe66 Fe 0.04858 0.48969 0.89938 0.0
Fe67 Fe 0.95867 0.51117 0.08525 0.0
O68 O 0.00582 0.49097 0.94872 0.0
O69 O 0.00465 0.49474 0.94787 0.0
O70 O 1.00134 0.51031 0.03587 0.0
Fe71 Fe 0.99659 0.55084 0.98344 0.0
C72 C 0.91655 0.43298 0.03141 0.0
O73 O 0.01609 0.41546 0.06081 0.0
O74 O 0.00508 0.46886 0.11544 0.0
O75 O 0.0653 0.56156 0.98654 0.0
O76 O 0.08487 0.54739 0.91678 0.0
O77 O 0.09598 0.45118 0.93244 0.0
O78 O 0.08038 0.45742 0.00418 0.0
O79 O 0.99011 0.57269 0.09697 0.0
O80 O 0.98966 0.60448 0.0271 0.0
C81 C 0.10697 0.44628 0.973 0.0
O82 O 0.99217 0.58618 0.92405 0.0
O83 O 1.00303 0.53307 0.86915 0.0
O84 O 0.9422 0.43953 -0.00161 0.0
O85 O 0.9237 0.4525 0.06851 0.0
C86 C 0.01968 0.43003 0.1014 0.0
C87 C 0.99341 0.60677 0.06995 0.0
C88 C 0.90027 0.55524 0.01139 0.0
O89 O 0.91061 0.54906 0.05198 0.0
O90 O 0.92707 0.54438 0.98025 0.0
C91 C 0.09202 0.56659 0.95406 0.0
O92 O 0.01626 0.42849 0.8876 0.0
O93 O 0.01762 0.39684 0.95752 0.0
C94 C 0.98926 0.57219 0.88326 0.0
C95 C 0.01297 0.39444 0.91472 0.0
H96 H 0.06418 0.35087 0.08539 0.0
H97 H 0.09337 0.29757 0.13981 0.0
H98 H 0.05197 0.38604 0.24557 0.0
H99 H 0.0236 0.44019 0.19151 0.0
H100 H 0.13159 0.34309 0.26552 0.0
H101 H 0.98205 0.30528 0.2099 0.0
H102 H 0.92535 0.28755 0.15207 0.0
H103 H 0.00378 0.17328 0.11111 0.0
H104 H 0.06131 0.19077 0.16835 0.0
H105 H 0.04488 0.20727 0.4375 0.0
H106 H 0.06906 0.25992 0.38044 0.0
H107 H 0.11451 0.1491 0.29975 0.0
H108 H 0.09054 0.09586 0.35682 0.0
H109 H 0.04879 0.19743 0.26047 0.0
H110 H 0.18934 0.2279 0.33093 0.0
H111 H 0.24152 0.2461 0.39247 0.0
H112 H 0.1763 0.37404 0.4101 0.0
H113 H 0.12323 0.35637 0.3491 0.0
C114 C 0.06176 0.35939 0.12019 0.0
C115 C 0.04077 0.3995 0.13411 0.0
C116 C 0.07867 0.32893 0.1512 0.0
C117 C 0.07424 0.3377 0.1966 0.0
C118 C 0.05573 0.37876 0.21061 0.0
C119 C 0.03916 0.40947 0.17963 0.0
C120 C 0.08361 0.30212 0.22943 0.0
C121 C 0.11362 0.31116 0.2646 0.0
C122 C 0.06077 0.2602 0.22744 0.0
C123 C 0.02629 0.24972 0.19294 0.0
C124 C 0.98741 0.27663 0.18828 0.0
C125 C 0.95509 0.26658 0.15567 0.0
C126 C 0.96104 0.22941 0.12782 0.0
C127 C 0.99928 0.20214 0.13261 0.0
C128 C 0.03176 0.21212 0.16511 0.0
C129 C 0.06125 0.19405 0.40825 0.0
C130 C 0.06464 0.14734 0.40104 0.0
C131 C 0.07536 0.22426 0.37577 0.0
C132 C 0.09337 0.2082 0.33587 0.0
C133 C 0.10056 0.16187 0.33036 0.0
C134 C 0.08649 0.13164 0.36278 0.0
C135 C 0.09618 0.23854 0.29732 0.0
C136 C 0.06803 0.22866 0.26098 0.0
C137 C 0.12024 0.27976 0.29875 0.0
C138 C 0.1521 0.29066 0.33551 0.0
C139 C 0.18586 0.25978 0.34814 0.0
C140 C 0.21566 0.27003 0.38289 0.0
C141 C 0.21219 0.31118 0.40521 0.0
C142 C 0.17895 0.34219 0.39277 0.0
C143 C 0.14904 0.33209 0.35804 0.0
H144 H 0.2353 0.31905 0.43212 0.0
H145 H 0.93594 0.22164 0.10264 0.0
H146 H 0.87031 0.13006 0.40491 0.0
H147 H 0.81394 0.13111 0.34455 0.0
H148 H 0.85878 0.99992 0.30171 0.0
H149 H 0.91403 0.99811 0.36146 0.0
H150 H 0.81822 0.12133 0.25003 0.0
H151 H 0.76779 0.93618 0.28263 0.0
H152 H 0.76674 0.8822 0.34469 0.0
H153 H 0.75359 0.99149 0.43717 0.0
H154 H 0.7539 0.04604 0.37564 0.0
H155 H 0.68354 0.01879 0.07404 0.0
H156 H 0.74149 0.04158 0.12847 0.0
H157 H 0.63926 0.0498 0.22948 0.0
H158 H 0.58182 0.02704 0.17626 0.0
H159 H 0.70645 0.99626 0.25417 0.0
H160 H 0.68968 0.1445 0.19444 0.0
H161 H 0.68817 0.20433 0.1379 0.0
H162 H 0.82642 0.17622 0.10502 0.0
H163 H 0.82881 0.11614 0.16149 0.0
C164 C 0.86812 0.10154 0.38254 0.0
C165 C 0.89605 0.06366 0.38862 0.0
C166 C 0.83624 0.10237 0.34791 0.0
C167 C 0.83204 0.06541 0.319 0.0
C168 C 0.86115 0.02855 0.32398 0.0
C169 C 0.89255 0.02752 0.35848 0.0
C170 C 0.79504 0.06298 0.28577 0.0
C171 C 0.79363 0.09413 0.25082 0.0
C172 C 0.76268 0.02783 0.28733 0.0
C173 C 0.76123 0.99519 0.32452 0.0
C174 C 0.7644 0.94866 0.31619 0.0
C175 C 0.76399 0.91797 0.35128 0.0
C176 C 0.76022 0.93341 0.39485 0.0
C177 C 0.75664 0.97958 0.40342 0.0
C178 C 0.75697 0.01039 0.36845 0.0
C179 C 0.67341 0.02591 0.10775 0.0
C180 C 0.62815 0.02004 0.12093 0.0
C181 C 0.70649 0.03921 0.13871 0.0
C182 C 0.69463 0.04713 0.18307 0.0
C183 C 0.6492 0.0435 0.19554 0.0
C184 C 0.6164 0.03018 0.16495 0.0
C185 C 0.72951 0.05437 0.21786 0.0
C186 C 0.73079 0.02369 0.25316 0.0
C187 C 0.76092 0.09046 0.21687 0.0
C188 C 0.75928 0.12553 0.18193 0.0
C189 C 0.71962 0.15072 0.17483 0.0
C190 C 0.71865 0.18479 0.14291 0.0
C191 C 0.75714 0.19401 0.11785 0.0
C192 C 0.79665 0.16905 0.12452 0.0
C193 C 0.79787 0.13507 0.15656 0.0
H194 H 0.7564 0.22061 0.09341 0.0
H195 H 0.76 0.90961 0.42197 0.0
H196 H 0.95109 0.86074 0.3588 0.0
H197 H 0.94594 0.82755 0.28487 0.0
H198 H 0.03286 0.93173 0.23405 0.0
H199 H 0.03833 0.96562 0.30793 0.0
H200 H 0.92485 0.85387 0.19546 0.0
H201 H 0.11411 0.87447 0.17841 0.0
H202 H 0.18414 0.88668 0.22209 0.0
H203 H 0.12404 0.82067 0.33375 0.0
H204 H 0.05395 0.80773 0.29057 0.0
H205 H 0.98112 0.68816 0.02914 0.0
H206 H 0.98505 0.76293 0.06321 0.0
H207 H 0.02274 0.70245 0.1879 0.0
H208 H 0.01915 0.62777 0.15439 0.0
H209 H 0.07253 0.7798 0.16756 0.0
H210 H 0.91298 0.7251 0.1662 0.0
H211 H 0.84418 0.70157 0.1253 0.0
H212 H 0.84391 0.82712 0.05472 0.0
H213 H 0.91278 0.85123 0.09512 0.0
C214 C 0.96836 0.87717 0.3317 0.0
C215 C 0.99575 0.9152 0.33916 0.0
C216 C 0.9649 0.85856 0.28944 0.0
C217 C 0.9892 0.87742 0.2543 0.0
C218 C 0.01384 0.91723 0.26094 0.0
C219 C 0.017 0.93623 0.30312 0.0
C220 C 0.9954 0.85052 0.21386 0.0
C221 C 0.95733 0.83851 0.18843 0.0
C222 C 0.03786 0.83085 0.20463 0.0
C223 C 0.07885 0.84053 0.23146 0.0
C224 C 0.11591 0.86271 0.21232 0.0
C225 C 0.15561 0.86958 0.2369 0.0
C226 C 0.15863 0.85408 0.28051 0.0
C227 C 0.12171 0.83242 0.2999 0.0
C228 C 0.08198 0.82542 0.27544 0.0
C229 C 0.99088 0.69079 0.06369 0.0
C230 C 0.99946 0.652 0.08929 0.0
C231 C 0.99304 0.73351 0.08295 0.0
C232 C 0.00403 0.73791 0.12789 0.0
C233 C 0.01437 0.69951 0.153 0.0
C234 C 0.01198 0.65687 0.13393 0.0
C235 C 1.00168 0.78171 0.15056 0.0
C236 C 0.04058 0.79702 0.17263 0.0
C237 C 0.95996 0.804 0.15683 0.0
C238 C 0.9181 0.78979 0.13337 0.0
C239 C 0.89825 0.7476 0.14188 0.0
C240 C 0.85923 0.73419 0.11883 0.0
C241 C 0.83964 0.76285 0.08746 0.0
C242 C 0.859 0.805 0.0791 0.0
C243 C 0.89799 0.81857 0.10208 0.0
H244 H 0.80941 0.75245 0.06973 0.0
H245 H 0.18953 0.85904 0.29938 0.0
H246 H 0.41235 0.06459 0.14909 0.0
H247 H 0.35648 0.07579 0.20761 0.0
H248 H 0.27456 0.96882 0.15166 0.0
H249 H 0.3292 0.95975 0.09159 0.0
H250 H 0.22196 0.02801 0.18544 0.0
H251 H 0.3568 0.9525 0.23771 0.0
H252 H 0.4388 0.94495 0.25176 0.0
H253 H 0.43689 0.06393 0.333 0.0
H254 H 0.35494 0.07249 0.31895 0.0
H255 H 0.12539 0.92037 0.36872 0.0
H256 H 0.17427 0.94133 0.30735 0.0
H257 H 0.21024 0.06495 0.37372 0.0
H258 H 0.15989 0.04522 0.4353 0.0
H259 H 0.28497 0.01224 0.33736 0.0
H260 H 0.14215 0.07236 0.29522 0.0
H261 H 0.06025 0.0752 0.27859 0.0
H262 H 0.07706 0.97627 0.17612 0.0
H263 H 0.1585 0.97164 0.19318 0.0
C264 C 0.38169 0.04446 0.1488 0.0
C265 C 0.37479 0.01127 0.11628 0.0
C266 C 0.35006 0.05053 0.18237 0.0
C267 C 0.31204 0.02218 0.18488 0.0
C268 C 0.30377 0.99095 0.1506 0.0
C269 C 0.33484 0.98576 0.11628 0.0
C270 C 0.28274 0.02243 0.22463 0.0
C271 C 0.23568 0.02419 0.21863 0.0
C272 C 0.30077 0.01872 0.26812 0.0
C273 C 0.34992 0.01342 0.27687 0.0
C274 C 0.37395 0.97719 0.25835 0.0
C275 C 0.42039 0.97272 0.26633 0.0
C276 C 0.44307 0.00402 0.29314 0.0
C277 C 0.4193 0.03977 0.31216 0.0
C278 C 0.37287 0.04445 0.30422 0.0
C279 C 0.14428 0.95166 0.37091 0.0
C280 C 0.13922 0.98093 0.40725 0.0
C281 C 0.17178 0.96365 0.33554 0.0
C282 C 0.19541 0.00456 0.33599 0.0
C283 C 0.192 0.03323 0.37283 0.0
C284 C 0.16356 0.02178 0.40801 0.0
C285 C 0.22424 0.01627 0.29788 0.0
C286 C 0.27124 0.01671 0.30423 0.0
C287 C 0.20608 0.02064 0.25459 0.0
C288 C 0.15651 0.02155 0.24578 0.0
C289 C 0.12821 0.0507 0.26968 0.0
C290 C 0.08188 0.05268 0.26011 0.0
C291 C 0.06349 0.02598 0.22634 0.0
C292 C 0.09134 0.99702 0.20226 0.0
C293 C 0.13755 0.99456 0.21202 0.0
H294 H 0.02765 0.02764 0.21888 0.0
H295 H 0.47903 1.00051 0.29927 0.0
H296 H 0.92474 0.90993 0.63219 0.0
H297 H 0.90236 0.85558 0.68749 0.0
H298 H 0.94104 0.74697 0.60055 0.0
H299 H 0.96179 0.80138 0.54371 0.0
H300 H 0.87239 0.72179 0.6581 0.0
H301 H 0.01981 0.79698 0.66419 0.0
H302 H 0.06456 0.86735 0.66357 0.0
H303 H 0.99954 0.91088 0.78296 0.0
H304 H 0.95366 0.84118 0.78371 0.0
H305 H 0.98385 0.56167 0.79317 0.0
H306 H 0.95847 0.61708 0.73896 0.0
H307 H 0.9261 0.70983 0.84428 0.0
H308 H 0.95168 0.65493 0.89888 0.0
H309 H 0.97974 0.7477 0.78293 0.0
H310 H 0.8422 0.6635 0.78355 0.0
H311 H 0.79435 0.59536 0.7803 0.0
H312 H 0.84023 0.56812 0.6483 0.0
H313 H 0.8889 0.63575 0.65097 0.0
C314 C 0.92688 0.87467 0.62381 0.0
C315 C 0.94601 0.86024 0.58371 0.0
C316 C 0.91395 0.84351 0.65563 0.0
C317 C 0.92106 0.79743 0.64839 0.0
C318 C 0.93549 0.78252 0.60675 0.0
C319 C 0.94775 0.81376 0.57446 0.0
C320 C 0.92255 0.76626 0.6863 0.0
C321 C 0.89578 0.72721 0.68546 0.0
C322 C 0.95273 0.77406 0.72217 0.0
C323 C 0.98304 0.81408 0.7238 0.0
C324 C 0.01508 0.82158 0.6903 0.0
C325 C 0.04038 0.86149 0.68973 0.0
C326 C 0.03458 0.89374 0.72299 0.0
C327 C 1.00377 0.88598 0.75708 0.0
C328 C 0.97813 0.84627 0.75762 0.0
C329 C 0.97084 0.5936 0.80495 0.0
C330 C 0.97035 0.60399 0.8504 0.0
C331 C 0.95605 0.62511 0.77389 0.0
C332 C 0.94019 0.66737 0.78772 0.0
C333 C 0.93823 0.67734 0.83304 0.0
C334 C 0.95302 0.6459 0.86414 0.0
C335 C 0.9299 0.70255 0.7547 0.0
C336 C 0.9555 0.74241 0.75624 0.0
C337 C 0.8989 0.6952 0.71947 0.0
C338 C 0.86945 0.65459 0.71759 0.0
C339 C 0.84235 0.64282 0.75394 0.0
C340 C 0.81503 0.6043 0.75218 0.0
C341 C 0.8143 0.57739 0.71415 0.0
C342 C 0.84083 0.589 0.67775 0.0
C343 C 0.86824 0.62746 0.67934 0.0
H344 H 0.79313 0.54757 0.71285 0.0
H345 H 0.05426 0.92455 0.72261 0.0
H346 H 0.42196 0.96256 0.81586 0.0
H347 H 0.36248 0.94269 0.76313 0.0
H348 H 0.26124 0.9877 0.85545 0.0
H349 H 0.32102 0.00695 0.90927 0.0
H350 H 0.23415 0.91177 0.81018 0.0
H351 H 0.29246 0.05704 0.77513 0.0
H352 H 0.3513 0.11405 0.76041 0.0
H353 H 0.39549 0.03844 0.64726 0.0
H354 H 0.33722 0.98064 0.66166 0.0
H355 H 0.07468 0.98709 0.63997 0.0
H356 H 0.12836 0.98226 0.70171 0.0
H357 H 0.21074 0.89043 0.62646 0.0
H358 H 0.156 0.89382 0.56466 0.0
H359 H 0.24604 0.98659 0.66387 0.0
H360 H 0.18422 0.8413 0.69895 0.0
H361 H 0.12698 0.78393 0.71759 0.0
H362 H 0.08835 0.86063 0.83193 0.0
H363 H 0.14491 0.91888 0.81359 0.0
C364 C 0.38705 0.96808 0.82516 0.0
C365 C 0.37617 0.98713 0.8664 0.0
C366 C 0.3531 0.95661 0.79497 0.0
C367 C 0.30758 0.96466 0.80501 0.0
C368 C 0.29626 0.98147 0.84703 0.0
C369 C 0.33038 0.99254 0.87764 0.0
C370 C 0.27249 0.95799 0.77036 0.0
C371 C 0.23653 0.92819 0.77823 0.0
C372 C 0.27584 0.97949 0.7287 0.0
C373 C 0.31076 0.01431 0.71972 0.0
C374 C 0.31494 0.05241 0.7473 0.0
C375 C 0.34815 0.08489 0.73898 0.0
C376 C 0.3772 0.07981 0.70299 0.0
C377 C 0.373 0.0423 0.67516 0.0
C378 C 0.33985 0.00969 0.68335 0.0
C379 C 0.10405 0.96554 0.63666 0.0
C380 C 0.11167 0.94131 0.59733 0.0
C381 C 0.1343 0.96242 0.67214 0.0
C382 C 0.17304 0.9356 0.66869 0.0
C383 C 0.18052 0.91074 0.62981 0.0
C384 C 0.14954 0.91293 0.59456 0.0
C385 C 0.20847 0.93922 0.70316 0.0
C386 C 0.24411 0.96936 0.69549 0.0
C387 C 0.20449 0.91824 0.74497 0.0
C388 C 0.16841 0.88482 0.75449 0.0
C389 C 0.163 0.84638 0.72762 0.0
C390 C 0.13095 0.81347 0.73837 0.0
C391 C 0.10416 0.81855 0.776 0.0
C392 C 0.10925 0.85665 0.80288 0.0
C393 C 0.14124 0.88965 0.79227 0.0
H394 H 0.07926 0.79311 0.78418 0.0
H395 H 0.40291 0.10499 0.6966 0.0
H396 H 0.01432 0.31337 0.9582 0.0
H397 H 0.00763 0.23815 0.9257 0.0
H398 H 0.9883 0.29735 0.79659 0.0
H399 H 0.99466 0.37255 0.82847 0.0
H400 H 0.93014 0.22495 0.81318 0.0
H401 H 0.09294 0.26618 0.83561 0.0
H402 H 0.15852 0.28174 0.88444 0.0
H403 H 0.14002 0.15396 0.94851 0.0
H404 H 0.07392 0.138 0.90049 0.0
H405 H 0.02913 0.16253 0.62718 0.0
H406 H 0.03127 0.19121 0.7026 0.0
H407 H 1.00196 0.05853 0.75302 0.0
H408 H 0.99928 0.02901 0.67729 0.0
H409 H 0.07364 0.13903 0.80127 0.0
H410 H 0.92159 0.09005 0.76657 0.0
H411 H 0.86309 0.07306 0.7107 0.0
H412 H 0.86033 0.21222 0.67172 0.0
H413 H 0.92067 0.2296 0.72611 0.0
C414 C 0.00814 0.3105 0.92291 0.0
C415 C 0.0055 0.34909 0.89577 0.0
C416 C 0.00431 0.26743 0.90455 0.0
C417 C 0.99768 0.2624 0.85889 0.0
C418 C 0.99326 0.30073 0.83204 0.0
C419 C 0.99722 0.34369 0.85026 0.0
C420 C 0.99847 0.21776 0.83756 0.0
C421 C 0.96103 0.20531 0.81152 0.0
C422 C 0.03833 0.19134 0.83654 0.0
C423 C 0.07813 0.20124 0.86502 0.0
C424 C 0.10265 0.24161 0.86037 0.0
C425 C 0.13994 0.25046 0.88786 0.0
C426 C 0.15322 0.21894 0.91973 0.0
C427 C 0.12952 0.17841 0.92396 0.0
C428 C 0.09215 0.16947 0.89667 0.0
C429 C 0.02397 0.13907 0.65412 0.0
C430 C 0.01278 0.09376 0.64606 0.0
C431 C 0.02567 0.15547 0.69723 0.0
C432 C 0.01639 0.12691 0.73293 0.0
C433 C 0.00919 0.08087 0.72561 0.0
C434 C 0.00729 0.06432 0.6823 0.0
C435 C 0.00612 0.14796 0.77569 0.0
C436 C 0.04171 0.15652 0.80532 0.0
C437 C 0.96432 0.17033 0.7807 0.0
C438 C 0.92579 0.16102 0.75024 0.0
C439 C 0.90864 0.11699 0.74595 0.0
C440 C 0.87522 0.10727 0.71443 0.0
C441 C 0.85781 0.14156 0.68767 0.0
C442 C 0.87381 0.18569 0.69249 0.0
C443 C 0.90775 0.19547 0.72359 0.0
H444 H 0.832 0.13397 0.66315 0.0
H445 H 0.18184 0.2258 0.94119 0.0
H446 H 0.68501 0.02677 0.90902 0.0
H447 H 0.74306 0.02396 0.85112 0.0
H448 H 0.64767 0.95884 0.76279 0.0
H449 H 0.59047 0.96071 0.82023 0.0
H450 H 0.72994 0.92738 0.74922 0.0
H451 H 0.65881 0.07357 0.76985 0.0
H452 H 0.64023 0.14144 0.81339 0.0
H453 H 0.78164 0.17263 0.82706 0.0
H454 H 0.80114 0.10405 0.78502 0.0
H455 H 0.82222 0.07821 0.55395 0.0
H456 H 0.76933 0.06531 0.61548 0.0
H457 H 0.86161 0.9678 0.67138 0.0
H458 H 0.91338 0.98071 0.6102 0.0
H459 H 0.77875 0.07924 0.70028 0.0
H460 H 0.80292 0.88558 0.72964 0.0
H461 H 0.81757 0.81652 0.68662 0.0
H462 H 0.76793 0.88081 0.56874 0.0
H463 H 0.75102 0.9496 0.61135 0.0
C464 C 0.67707 0.0106 0.8777 0.0
C465 C 0.63313 0.99462 0.86872 0.0
C466 C 0.71006 0.00929 0.84461 0.0
C467 C 0.69927 0.99205 0.80238 0.0
C468 C 0.65666 0.97254 0.79498 0.0
C469 C 0.6239 0.97387 0.82778 0.0
C470 C 0.72973 0.99833 0.76415 0.0
C471 C 0.74146 0.96045 0.73885 0.0
C472 C 0.74335 0.04173 0.75002 0.0
C473 C 0.73145 0.08333 0.77475 0.0
C474 C 0.68596 0.09465 0.78251 0.0
C475 C 0.67527 0.1332 0.80702 0.0
C476 C 0.70975 0.16117 0.82322 0.0
C477 C 0.75498 0.15077 0.81475 0.0
C478 C 0.76588 0.11199 0.79071 0.0
C479 C 0.83034 0.05331 0.57895 0.0
C480 C 0.87065 0.02858 0.57652 0.0
C481 C 0.80043 0.04612 0.6141 0.0
C482 C 0.81093 0.01463 0.64745 0.0
C483 C 0.85182 0.99089 0.64528 0.0
C484 C 0.88117 0.99777 0.61011 0.0
C485 C 0.78069 0.00806 0.68594 0.0
C486 C 0.76846 0.04596 0.71104 0.0
C487 C 0.76665 0.96461 0.69983 0.0
C488 C 0.7763 0.92315 0.67371 0.0
C489 C 0.7948 0.88496 0.69461 0.0
C490 C 0.80332 0.84575 0.67031 0.0
C491 C 0.79403 0.8444 0.62492 0.0
C492 C 0.77544 0.88201 0.60386 0.0
C493 C 0.76621 0.9211 0.62813 0.0
H494 H 0.80112 0.81415 0.6061 0.0
H495 H 0.70142 0.191 0.84217 0.0
H496 H 0.12634 0.39531 0.04669 0.0
H497 H 0.18715 0.33975 0.05452 0.0
H498 H 0.24208 0.38181 0.92912 0.0
H499 H 0.1809 0.43619 0.92063 0.0
H500 H 0.23122 0.29444 0.92973 0.0
H501 H 0.29595 0.40252 0.03238 0.0
H502 H 0.29472 0.45197 0.09814 0.0
H503 H 0.27008 0.33743 0.18141 0.0
H504 H 0.27064 0.28736 0.11605 0.0
H505 H 0.43116 0.17311 0.91716 0.0
H506 H 0.37814 0.23513 0.9266 0.0
H507 H 0.33445 0.17883 0.05079 0.0
H508 H 0.38828 0.11661 0.04194 0.0
H509 H 0.33697 0.27014 0.05561 0.0
H510 H 0.27219 0.1615 0.95912 0.0
H511 H 0.26715 0.10861 0.89617 0.0
H512 H 0.28222 0.21853 0.80513 0.0
H513 H 0.28816 0.27205 0.86757 0.0
C514 C 0.15202 0.39344 0.02134 0.0
C515 C 0.14857 0.42 0.9829 0.0
C516 C 0.18685 0.36161 0.02584 0.0
C517 C 0.21935 0.35637 0.99234 0.0
C518 C 0.21734 0.38485 0.95528 0.0
C519 C 0.18239 0.41615 0.95056 0.0
C520 C 0.2531 0.31897 -0.00648 0.0
C521 C 0.25466 0.28952 0.95708 0.0
C522 C 0.28255 0.31126 0.02994 0.0
C523 C 0.28298 0.34125 0.06928 0.0
C524 C 0.29003 0.38792 0.06468 0.0
C525 C 0.28949 0.41605 0.10189 0.0
C526 C 0.28224 0.39787 0.14391 0.0
C527 C 0.27567 0.35148 0.14884 0.0
C528 C 0.27616 0.3232 0.11173 0.0
C529 C 0.41071 0.17402 0.94679 0.0
C530 C 0.41375 0.13949 0.97854 0.0
C531 C 0.38023 0.20954 0.95208 0.0
C532 C 0.35152 0.21125 0.98895 0.0
C533 C 0.35605 0.17817 0.02195 0.0
C534 C 0.38687 0.14259 0.01681 0.0
C535 C 0.31546 0.24629 0.99137 0.0
C536 C 0.31336 0.27504 0.02839 0.0
C537 C 0.28454 0.25283 0.95591 0.0
C538 C 0.28127 0.22075 0.91811 0.0
C539 C 0.27495 0.17437 0.9257 0.0
C540 C 0.27181 0.14427 0.8901 0.0
C541 C 0.27453 0.16018 0.84668 0.0
C542 C 0.28023 0.20625 0.83878 0.0
C543 C 0.28348 0.23648 0.87428 0.0
H544 H 0.27211 0.13684 0.81916 0.0
H545 H 0.28178 0.41971 0.17267 0.0
H546 H 0.1678 0.57304 0.90214 0.0
H547 H 0.23128 0.62576 0.91026 0.0
H548 H 0.16691 0.68553 0.02396 0.0
H549 H 0.10451 0.63198 0.01706 0.0
H550 H 0.23976 0.71139 0.9043 0.0
H551 H 0.24075 0.72783 0.09602 0.0
H552 H 0.22429 0.68085 0.16133 0.0
H553 H 0.25238 0.56117 0.08619 0.0
H554 H 0.26952 0.60744 0.0206 0.0
H555 H 0.364 0.90707 0.96393 0.0
H556 H 0.30825 0.84737 0.95215 0.0
H557 H 0.39243 0.75513 0.02631 0.0
H558 H 0.44631 0.81636 0.04136 0.0
H559 H 0.31507 0.73894 0.04909 0.0
H560 H 0.37563 0.75986 0.90401 0.0
H561 H 0.39681 0.80124 0.83647 0.0
H562 H 0.25728 0.83344 0.81209 0.0
H563 H 0.23541 0.79405 0.88042 0.0
C564 C 0.16737 0.5972 0.92908 0.0
C565 C 0.13119 0.59791 0.95917 0.0
C566 C 0.20366 0.62749 0.93362 0.0
C567 C 0.2045 0.65942 0.96813 0.0
C568 C 0.16795 0.66059 -0.00226 0.0
C569 C 0.13206 0.62993 -0.00636 0.0
C570 C 0.24304 0.69197 0.97286 0.0
C571 C 0.25641 0.71733 0.93591 0.0
C572 C 0.26562 0.6992 0.01381 0.0
C573 C 0.25606 0.67113 0.05331 0.0
C574 C 0.24363 0.69151 0.09351 0.0
C575 C 0.23412 0.665 0.13055 0.0
C576 C 0.23717 0.61806 0.12787 0.0
C577 C 0.24988 0.59753 0.08818 0.0
C578 C 0.25945 0.62388 0.05105 0.0
C579 C 0.37076 0.87388 0.97735 0.0
C580 C 0.40968 0.86618 0.00325 0.0
C581 C 0.33892 0.83951 0.97033 0.0
C582 C 0.34617 0.79594 0.98734 0.0
C583 C 0.38565 0.7882 0.0127 0.0
C584 C 0.41669 0.8231 0.02111 0.0
C585 C 0.31183 0.75913 0.98053 0.0
C586 C 0.29898 0.73297 0.01722 0.0
C587 C 0.29071 0.75035 0.93891 0.0
C588 C 0.30394 0.77433 0.89775 0.0
C589 C 0.3495 0.77626 0.88458 0.0
C590 C 0.36165 0.79953 0.84619 0.0
C591 C 0.32847 0.8204 0.82024 0.0
C592 C 0.28304 0.81786 0.83252 0.0
C593 C 0.27075 0.79511 0.87113 0.0
H594 H 0.33791 0.83832 0.79049 0.0
H595 H 0.22975 0.5976 0.15658 0.0
H596 H 0.61613 0.14633 0.91095 0.0
H597 H 0.67424 0.20291 0.92628 0.0
H598 H 0.64679 0.19372 0.06596 0.0
H599 H 0.58887 0.13598 0.05111 0.0
H600 H 0.65817 0.2859 0.0303 0.0
H601 H 0.73175 0.14278 0.03605 0.0
H602 H 0.75024 0.06685 0.00858 0.0
H603 H 0.81222 0.12431 0.8935 0.0
H604 H 0.7929 0.20077 0.91963 0.0
H605 H 0.85728 0.4051 0.09562 0.0
H606 H 0.79778 0.348 0.08933 0.0
H607 H 0.83144 0.32716 0.95205 0.0
H608 H 0.89157 0.38356 0.9582 0.0
H609 H 0.81669 0.24789 0.99177 0.0
H610 H 0.74087 0.39005 0.98326 0.0
H611 H 0.72136 0.46643 0.00871 0.0
H612 H 0.66183 0.41142 0.12623 0.0
H613 H 0.68243 0.33462 0.10214 0.0
C614 C 0.62187 0.15662 0.94498 0.0
C615 C 0.59764 0.13658 0.97983 0.0
C616 C 0.65532 0.1889 0.95364 0.0
C617 C 0.66501 0.20233 -0.00274 0.0
C618 C 0.63984 0.18377 0.03208 0.0
C619 C 0.60678 0.15078 0.02352 0.0
C620 C 0.70279 0.23434 0.00614 0.0
C621 C 0.69296 0.27743 0.02263 0.0
C622 C 0.74799 0.22346 -0.00482 0.0
C623 C 0.76049 0.17759 0.97965 0.0
C624 C 0.74896 0.13931 0.00468 0.0
C625 C 0.75954 0.09614 0.98931 0.0
C626 C 0.78213 0.09076 0.94915 0.0
C627 C 0.79443 0.12858 0.92443 0.0
C628 C 0.78368 0.17185 0.93952 0.0
C629 C 0.85199 0.38856 0.06399 0.0
C630 C 0.8791 0.39942 0.02732 0.0
C631 C 0.81787 0.35583 0.06045 0.0
C632 C 0.8097 0.33346 0.02008 0.0
C633 C 0.83701 0.34386 0.98357 0.0
C634 C 0.87123 0.37646 0.98709 0.0
C635 C 0.77216 0.29994 0.01555 0.0
C636 C 0.78201 0.25643 -0.00022 0.0
C637 C 0.72689 0.31056 0.02692 0.0
C638 C 0.71366 0.3566 0.04112 0.0
C639 C 0.72395 0.39423 0.01471 0.0
C640 C 0.71268 0.43762 0.02889 0.0
C641 C 0.69031 0.44382 0.06906 0.0
C642 C 0.6792 0.40658 0.09514 0.0
C643 C 0.69077 0.3631 0.08129 0.0
H644 H 0.68154 0.47746 0.07994 0.0
H645 H 0.79025 0.05731 0.93726 0.0
H646 H 0.82666 0.56837 0.06405 0.0
H647 H 0.76587 0.62307 0.05406 0.0
H648 H 0.82064 0.6607 0.92734 0.0
H649 H 0.88187 0.60577 0.93714 0.0
H650 H 0.80425 0.7344 0.98009 0.0
H651 H 0.72106 0.6052 0.93158 0.0
H652 H 0.69 0.52801 0.9341 0.0
H653 H 0.62047 0.55941 0.05465 0.0
H654 H 0.65155 0.63665 0.05321 0.0
H655 H 0.62117 0.88764 0.94402 0.0
H656 H 0.67333 0.82443 0.93345 0.0
H657 H 0.63134 0.76771 0.05801 0.0
H658 H 0.57906 0.83032 0.06869 0.0
H659 H 0.6403 0.70261 -0.00345 0.0
H660 H 0.72843 0.8279 0.04985 0.0
H661 H 0.75807 0.90567 0.04894 0.0
H662 H 0.81911 0.88135 0.92247 0.0
H663 H 0.78911 0.80361 0.92227 0.0
C664 C 0.82534 0.58757 0.0336 0.0
C665 C 0.85918 0.58247 0.00136 0.0
C666 C 0.79044 0.61888 0.02789 0.0
C667 C 0.78845 0.64603 0.98988 0.0
C668 C 0.82136 0.64013 0.95694 0.0
C669 C 0.85615 0.60839 0.96242 0.0
C670 C 0.75372 0.68237 0.98629 0.0
C671 C 0.76831 0.72734 0.98267 0.0
C672 C 0.70686 0.67343 0.99088 0.0
C673 C 0.68886 0.62669 0.9924 0.0
C674 C 0.69948 0.59555 0.95886 0.0
C675 C 0.68175 0.55182 0.96001 0.0
C676 C 0.65316 0.53889 -0.00557 0.0
C677 C 0.64249 0.56954 0.02793 0.0
C678 C 0.66012 0.61331 0.02694 0.0
C679 C 0.62257 0.86143 0.96892 0.0
C680 C 0.59593 0.86432 0.00735 0.0
C681 C 0.65268 0.8254 0.96294 0.0
C682 C 0.65676 0.79146 -0.00481 0.0
C683 C 0.62895 0.79342 0.03267 0.0
C684 C 0.59909 0.82944 0.03879 0.0
C685 C 0.69086 0.7546 0.99092 0.0
C686 C 0.67618 0.70959 -0.00675 0.0
C687 C 0.73767 0.76352 0.98559 0.0
C688 C 0.75595 0.81015 0.98574 0.0
C689 C 0.74774 0.83929 0.02161 0.0
C690 C 0.76467 0.88334 0.02133 0.0
C691 C 0.7903 0.8985 0.98558 0.0
C692 C 0.79916 0.86959 0.95009 0.0
C693 C 0.78219 0.82553 0.95015 0.0
H694 H 0.80341 0.93261 0.98544 0.0
H695 H 0.63929 0.5051 -0.00485 0.0
loop_
_geom_bond_atom_site_label_1
_geom_bond_atom_site_label_2
_geom_bond_distance
_geom_bond_site_symmetry_2
_ccdc_geom_bond_type
Fe0 O1 1.906 . S
Fe0 O4 1.694 1_645 S
Fe0 O9 2.097 1_545 S
Fe0 O14 1.922 1_545 S
Fe0 O20 2.094 1_655 S
Fe0 O29 1.918 1_655 S
O1 Fe0 1.906 . S
O1 Fe3 1.715 . S
Fe2 O4 1.886 . S
Fe2 O5 1.715 . S
Fe2 O12 1.935 . S
Fe2 O13 2.077 . S
Fe2 O19 1.935 . S
Fe2 O28 2.077 . S
Fe3 O1 1.715 . S
Fe3 O6 1.886 . S
Fe3 O10 1.935 . S
Fe3 O15 2.077 . S
Fe3 O21 1.935 . S
Fe3 O25 2.077 . S
O4 Fe0 1.694 1_465 S
O4 Fe2 1.886 . S
O5 Fe2 1.715 . S
O5 Fe7 1.892 . S
O6 Fe3 1.886 . S
O6 Fe7 1.709 1_645 S
Fe7 O5 1.892 . S
Fe7 O6 1.709 1_465 S
Fe7 O11 2.089 1_455 S
Fe7 O16 1.937 1_455 S
Fe7 O18 2.077 1_565 S
Fe7 O26 1.923 1_565 S
C8 O20 1.381 1_655 S
C8 O21 1.421 . S
O9 Fe0 2.097 1_565 S
O9 C22 1.381 1_565 S
O10 Fe3 1.935 . S
O10 C22 1.421 . S
O11 Fe7 2.089 1_655 S
O11 C27 1.381 1_655 S
O12 Fe2 1.935 . S
O12 C27 1.421 . S
O13 Fe2 2.077 . S
O13 C17 1.381 . S
O14 Fe0 1.922 1_565 S
O14 C17 1.421 1_655 S
O15 Fe3 2.077 . S
O15 C23 1.381 . S
O16 Fe7 1.937 1_655 S
O16 C23 1.421 1_565 S
C17 O13 1.381 . S
C17 O14 1.421 1_455 S
O18 Fe7 2.077 1_545 S
O18 C30 1.381 1_545 S
O19 Fe2 1.935 . S
O19 C30 1.421 . S
O20 Fe0 2.094 1_455 S
O20 C8 1.381 1_455 S
O21 Fe3 1.935 . S
O21 C8 1.421 . S
C22 O9 1.381 1_545 S
C22 O10 1.421 . S
C23 O15 1.381 . S
C23 O16 1.421 1_545 S
C24 O25 1.381 . S
C24 O26 1.421 1_655 S
O25 Fe3 2.077 . S
O25 C24 1.381 . S
O26 Fe7 1.923 1_545 S
O26 C24 1.421 1_455 S
C27 O11 1.381 1_455 S
C27 O12 1.421 . S
O28 Fe2 2.077 . S
O28 C31 1.381 . S
O29 Fe0 1.918 1_455 S
O29 C31 1.421 1_545 S
C30 O18 1.381 1_565 S
C30 O19 1.421 . S
C31 O28 1.381 . S
C31 O29 1.421 1_565 S
Fe32 O33 1.906 . S
Fe32 O36 1.694 1_564 S
Fe32 O41 2.097 1_554 S
Fe32 O46 1.922 1_554 S
Fe32 O52 2.094 1_565 S
Fe32 O61 1.918 1_565 S
O33 Fe32 1.906 . S
O33 Fe35 1.715 . S
Fe34 O36 1.886 . S
Fe34 O37 1.715 . S
Fe34 O44 1.935 . S
Fe34 O45 2.077 . S
Fe34 O51 1.935 . S
Fe34 O60 2.077 . S
Fe35 O33 1.715 . S
Fe35 O38 1.886 . S
Fe35 O42 1.935 . S
Fe35 O47 2.077 . S
Fe35 O53 1.935 . S
Fe35 O57 2.077 . S
O36 Fe32 1.694 1_546 S
O36 Fe34 1.886 . S
O37 Fe34 1.715 . S
O37 Fe39 1.892 . S
O38 Fe35 1.886 . S
O38 Fe39 1.709 1_564 S
Fe39 O37 1.892 . S
Fe39 O38 1.709 1_546 S
Fe39 O43 2.089 1_545 S
Fe39 O48 1.937 1_545 S
Fe39 O50 2.077 1_556 S
Fe39 O58 1.923 1_556 S
C40 O52 1.381 1_565 S
C40 O53 1.421 . S
O41 Fe32 2.097 1_556 S
O41 C54 1.381 1_556 S
O42 Fe35 1.935 . S
O42 C54 1.421 . S
O43 Fe39 2.089 1_565 S
O43 C59 1.381 1_565 S
O44 Fe34 1.935 . S
O44 C59 1.421 . S
O45 Fe34 2.077 . S
O45 C49 1.381 . S
O46 Fe32 1.922 1_556 S
O46 C49 1.421 1_565 S
O47 Fe35 2.077 . S
O47 C55 1.381 . S
O48 Fe39 1.937 1_565 S
O48 C55 1.421 1_556 S
C49 O45 1.381 . S
C49 O46 1.421 1_545 S
O50 Fe39 2.077 1_554 S
O50 C62 1.381 1_554 S
O51 Fe34 1.935 . S
O51 C62 1.421 . S
O52 Fe32 2.094 1_545 S
O52 C40 1.381 1_545 S
O53 Fe35 1.935 . S
O53 C40 1.421 . S
C54 O41 1.381 1_554 S
C54 O42 1.421 . S
C55 O47 1.381 . S
C55 O48 1.421 1_554 S
C56 O57 1.381 . S
C56 O58 1.421 1_565 S
O57 Fe35 2.077 . S
O57 C56 1.381 . S
O58 Fe39 1.923 1_554 S
O58 C56 1.421 1_545 S
C59 O43 1.381 1_545 S
C59 O44 1.421 . S
O60 Fe34 2.077 . S
O60 C63 1.381 . S
O61 Fe32 1.918 1_545 S
O61 C63 1.421 1_554 S
C62 O50 1.381 1_556 S
C62 O51 1.421 . S
C63 O60 1.381 . S
C63 O61 1.421 1_556 S
Fe64 O65 1.906 . S
Fe64 O68 1.694 1_654 S
Fe64 O73 2.094 1_655 S
Fe64 O78 1.918 1_655 S
Fe64 O84 2.097 1_554 S
Fe64 O93 1.922 1_554 S
O65 Fe64 1.906 . S
O65 Fe67 1.715 . S
Fe66 O68 1.886 . S
Fe66 O69 1.715 . S
Fe66 O76 1.935 . S
Fe66 O77 2.077 . S
Fe66 O83 1.935 . S
Fe66 O92 2.077 . S
Fe67 O65 1.715 . S
Fe67 O70 1.886 . S
Fe67 O74 1.935 . S
Fe67 O79 2.077 . S
Fe67 O85 1.935 . S
Fe67 O89 2.077 . S
O68 Fe64 1.694 1_456 S
O68 Fe66 1.886 . S
O69 Fe66 1.715 . S
O69 Fe71 1.892 . S
O70 Fe67 1.886 . S
O70 Fe71 1.709 1_654 S
Fe71 O69 1.892 . S
Fe71 O70 1.709 1_456 S
Fe71 O75 2.077 1_556 S
Fe71 O80 1.923 1_556 S
Fe71 O82 2.089 1_455 S
Fe71 O90 1.937 1_455 S
C72 O84 1.381 1_554 S
C72 O85 1.421 . S
O73 Fe64 2.094 1_455 S
O73 C86 1.381 1_455 S
O74 Fe67 1.935 . S
O74 C86 1.421 . S
O75 Fe71 2.077 1_554 S
O75 C91 1.381 1_554 S
O76 Fe66 1.935 . S
O76 C91 1.421 . S
O77 Fe66 2.077 . S
O77 C81 1.381 . S
O78 Fe64 1.918 1_455 S
O78 C81 1.421 1_554 S
O79 Fe67 2.077 . S
O79 C87 1.381 . S
O80 Fe71 1.923 1_554 S
O80 C87 1.421 1_455 S
C81 O77 1.381 . S
C81 O78 1.421 1_556 S
O82 Fe71 2.089 1_655 S
O82 C94 1.381 1_655 S
O83 Fe66 1.935 . S
O83 C94 1.421 . S
O84 Fe64 2.097 1_556 S
O84 C72 1.381 1_556 S
O85 Fe67 1.935 . S
O85 C72 1.421 . S
C86 O73 1.381 1_655 S
C86 O74 1.421 . S
C87 O79 1.381 . S
C87 O80 1.421 1_655 S
C88 O89 1.381 . S
C88 O90 1.421 1_554 S
O89 Fe67 2.077 . S
O89 C88 1.381 . S
O90 Fe71 1.937 1_655 S
O90 C88 1.421 1_556 S
C91 O75 1.381 1_556 S
C91 O76 1.421 . S
O92 Fe66 2.077 . S
O92 C95 1.381 . S
O93 Fe64 1.922 1_556 S
O93 C95 1.421 1_655 S
C94 O82 1.381 1_455 S
C94 O83 1.421 . S
C95 O92 1.381 . S
C95 O93 1.421 1_455 S
H96 C114 0.951 . S
H97 C116 0.951 . S
H98 C118 0.950 . S
H99 C119 0.950 . S
H100 C121 0.950 . S
H101 C124 0.950 . S
H102 C125 0.950 . S
H103 C127 0.950 . S
H104 C128 0.950 . S
H105 C129 0.951 . S
H106 C131 0.951 . S
H107 C133 0.950 . S
H108 C134 0.950 . S
H109 C136 0.950 . S
H110 C139 0.950 . S
H111 C140 0.950 . S
H112 C142 0.950 . S
H113 C143 0.950 . S
C114 H96 0.951 . S
C114 C115 1.366 1_455 S
C114 C116 1.388 . S
C115 C114 1.366 1_655 S
C115 C119 1.385 . S
C116 H97 0.951 . S
C116 C114 1.388 . S
C116 C117 1.366 1_455 S
C117 C116 1.366 1_655 S
C117 C118 1.414 . S
C117 C120 1.499 . S
C118 H98 0.950 . S
C118 C117 1.414 . S
C118 C119 1.374 . S
C119 H99 0.950 . S
C119 C115 1.385 . S
C119 C118 1.374 . S
C120 C117 1.499 . S
C120 C121 1.373 1_655 S
C120 C122 1.389 . S
C121 H100 0.950 . S
C121 C120 1.373 1_455 S
C121 C137 1.377 . S
C122 C120 1.389 . S
C122 C123 1.524 . S
C122 C136 1.377 . S
C123 C122 1.524 . S
C123 C124 1.397 . S
C123 C128 1.363 . S
C124 H101 0.950 . S
C124 C123 1.397 . S
C124 C125 1.334 . S
C125 H102 0.950 . S
C125 C124 1.334 . S
C125 C126 1.287 . S
C126 C125 1.287 . S
C126 C127 1.524 . S
C126 H145 0.913 . S
C127 H103 0.950 . S
C127 C126 1.524 . S
C127 C128 1.415 . S
C128 H104 0.950 . S
C128 C123 1.363 . S
C128 C127 1.415 . S
C129 H105 0.951 . S
C129 C130 1.366 . S
C129 C131 1.388 . S
C130 C129 1.366 . S
C130 C134 1.385 1_655 S
C131 H106 0.951 . S
C131 C129 1.388 . S
C131 C132 1.366 1_655 S
C132 C131 1.366 1_455 S
C132 C133 1.414 . S
C132 C135 1.499 . S
C133 H107 0.950 . S
C133 C132 1.414 . S
C133 C134 1.374 . S
C134 H108 0.950 . S
C134 C130 1.385 1_455 S
C134 C133 1.374 . S
C135 C132 1.499 . S
C135 C136 1.373 1_455 S
C135 C137 1.389 . S
C136 H109 0.950 . S
C136 C122 1.377 . S
C136 C135 1.373 1_655 S
C137 C121 1.377 . S
C137 C135 1.389 . S
C137 C138 1.524 . S
C138 C137 1.524 . S
C138 C139 1.397 . S
C138 C143 1.363 . S
C139 H110 0.950 . S
C139 C138 1.397 . S
C139 C140 1.334 . S
C140 H111 0.950 . S
C140 C139 1.334 . S
C140 C141 1.287 . S
C141 C140 1.287 . S
C141 C142 1.524 . S
C141 H144 0.999 . S
C142 H112 0.950 . S
C142 C141 1.524 . S
C142 C143 1.415 . S
C143 H113 0.950 . S
C143 C138 1.363 . S
C143 C142 1.415 . S
H144 C141 0.999 . S
H145 C126 0.913 . S
H146 C164 0.951 . S
H147 C166 0.951 . S
H148 C168 0.950 . S
H149 C169 0.950 . S
H150 C171 0.950 . S
H151 C174 0.950 . S
H152 C175 0.950 . S
H153 C177 0.950 . S
H154 C178 0.950 . S
H155 C179 0.951 . S
H156 C181 0.951 . S
H157 C183 0.950 . S
H158 C184 0.950 . S
H159 C186 0.950 . S
H160 C189 0.950 . S
H161 C190 0.950 . S
H162 C192 0.950 . S
H163 C193 0.950 . S
C164 H146 0.951 . S
C164 C165 1.356 1_565 S
C164 C166 1.388 . S
C165 C164 1.356 1_545 S
C165 C169 1.394 . S
C166 H147 0.951 . S
C166 C164 1.388 . S
C166 C167 1.366 . S
C167 C166 1.366 . S
C167 C168 1.414 1_565 S
C167 C170 1.499 . S
C168 H148 0.950 . S
C168 C167 1.414 1_545 S
C168 C169 1.374 . S
C169 H149 0.950 . S
C169 C165 1.394 . S
C169 C168 1.374 . S
C170 C167 1.499 . S
C170 C171 1.373 1_565 S
C170 C172 1.389 . S
C171 H150 0.950 . S
C171 C170 1.373 1_545 S
C171 C187 1.377 . S
C172 C170 1.389 . S
C172 C173 1.524 . S
C172 C186 1.377 . S
C173 C172 1.524 . S
C173 C174 1.397 . S
C173 C178 1.363 . S
C174 H151 0.950 . S
C174 C173 1.397 . S
C174 C175 1.334 . S
C175 H152 0.950 . S
C175 C174 1.334 . S
C175 C176 1.287 . S
C176 C175 1.287 . S
C176 C177 1.524 . S
C176 H195 0.913 . S
C177 H153 0.950 . S
C177 C176 1.524 . S
C177 C178 1.415 . S
C178 H154 0.950 . S
C178 C173 1.363 . S
C178 C177 1.415 . S
C179 H155 0.951 . S
C179 C180 1.358 1_545 S
C179 C181 1.388 . S
C180 C179 1.358 1_565 S
C180 C184 1.392 . S
C181 H156 0.951 . S
C181 C179 1.388 . S
C181 C182 1.366 . S
C182 C181 1.366 . S
C182 C183 1.414 1_545 S
C182 C185 1.499 . S
C183 H157 0.950 . S
C183 C182 1.414 1_565 S
C183 C184 1.374 . S
C184 H158 0.950 . S
C184 C180 1.392 . S
C184 C183 1.374 . S
C185 C182 1.499 . S
C185 C186 1.373 1_545 S
C185 C187 1.389 . S
C186 H159 0.950 . S
C186 C172 1.377 . S
C186 C185 1.373 1_565 S
C187 C171 1.377 . S
C187 C185 1.389 . S
C187 C188 1.524 . S
C188 C187 1.524 . S
C188 C189 1.397 . S
C188 C193 1.363 . S
C189 H160 0.950 . S
C189 C188 1.397 . S
C189 C190 1.334 . S
C190 H161 0.950 . S
C190 C189 1.334 . S
C190 C191 1.287 . S
C191 C190 1.287 . S
C191 C192 1.524 . S
C191 H194 0.999 . S
C192 H162 0.950 . S
C192 C191 1.524 . S
C192 C193 1.415 . S
C193 H163 0.950 . S
C193 C188 1.363 . S
C193 C192 1.415 . S
H194 C191 0.999 . S
H195 C176 0.913 . S
H196 C214 0.951 . S
H197 C216 0.951 . S
H198 C218 0.950 . S
H199 C219 0.950 . S
H200 C221 0.950 . S
H201 C224 0.950 . S
H202 C225 0.950 . S
H203 C227 0.950 . S
H204 C228 0.950 . S
H205 C229 0.951 . S
H206 C231 0.951 . S
H207 C233 0.950 . S
H208 C234 0.950 . S
H209 C236 0.950 . S
H210 C239 0.950 . S
H211 C240 0.950 . S
H212 C242 0.950 . S
H213 C243 0.950 . S
C214 H196 0.951 . S
C214 C215 1.364 1_655 S
C214 C216 1.388 . S
C215 C214 1.364 1_455 S
C215 C219 1.387 . S
C216 H197 0.951 . S
C216 C214 1.388 . S
C216 C217 1.366 1_655 S
C217 C216 1.366 1_455 S
C217 C218 1.414 . S
C217 C220 1.499 . S
C218 H198 0.950 . S
C218 C217 1.414 . S
C218 C219 1.374 . S
C219 H199 0.950 . S
C219 C215 1.387 . S
C219 C218 1.374 . S
C220 C217 1.499 . S
C220 C221 1.373 1_455 S
C220 C222 1.389 . S
C221 H200 0.950 . S
C221 C220 1.373 1_655 S
C221 C237 1.377 . S
C222 C220 1.389 . S
C222 C223 1.524 . S
C222 C236 1.377 . S
C223 C222 1.524 . S
C223 C224 1.397 . S
C223 C228 1.363 . S
C224 H201 0.950 . S
C224 C223 1.397 . S
C224 C225 1.334 . S
C225 H202 0.950 . S
C225 C224 1.334 . S
C225 C226 1.287 . S
C226 C225 1.287 . S
C226 C227 1.524 . S
C226 H245 0.913 . S
C227 H203 0.950 . S
C227 C226 1.524 . S
C227 C228 1.415 . S
C228 H204 0.950 . S
C228 C223 1.363 . S
C228 C227 1.415 . S
C229 H205 0.951 . S
C229 C230 1.365 1_455 S
C229 C231 1.388 . S
C230 C229 1.365 1_655 S
C230 C234 1.386 . S
C231 H206 0.951 . S
C231 C229 1.388 . S
C231 C232 1.366 1_455 S
C232 C231 1.366 1_655 S
C232 C233 1.414 . S
C232 C235 1.499 . S
C233 H207 0.950 . S
C233 C232 1.414 . S
C233 C234 1.374 . S
C234 H208 0.950 . S
C234 C230 1.386 . S
C234 C233 1.374 . S
C235 C232 1.499 . S
C235 C236 1.373 1_655 S
C235 C237 1.389 . S
C236 H209 0.950 . S
C236 C222 1.377 . S
C236 C235 1.373 1_455 S
C237 C221 1.377 . S
C237 C235 1.389 . S
C237 C238 1.524 . S
C238 C237 1.524 . S
C238 C239 1.397 . S
C238 C243 1.363 . S
C239 H210 0.950 . S
C239 C238 1.397 . S
C239 C240 1.334 . S
C240 H211 0.950 . S
C240 C239 1.334 . S
C240 C241 1.287 . S
C241 C240 1.287 . S
C241 C242 1.524 . S
C241 H244 0.999 . S
C242 H212 0.950 . S
C242 C241 1.524 . S
C242 C243 1.415 . S
C243 H213 0.950 . S
C243 C238 1.363 . S
C243 C242 1.415 . S
H244 C241 0.999 . S
H245 C226 0.913 . S
H246 C264 0.951 . S
H247 C266 0.951 . S
H248 C268 0.950 . S
H249 C269 0.950 . S
H250 C271 0.950 . S
H251 C274 0.955 . S
H252 C275 0.950 . S
H253 C277 0.950 . S
H254 C278 0.950 . S
H255 C279 0.951 . S
H256 C281 0.951 . S
H257 C283 0.950 . S
H258 C284 0.950 . S
H259 C286 0.950 . S
H260 C289 0.950 . S
H261 C290 0.950 . S
H262 C292 0.950 . S
H263 C293 0.950 . S
C264 H246 0.951 . S
C264 C265 1.366 1_545 S
C264 C266 1.388 . S
C265 C264 1.366 1_565 S
C265 C269 1.385 . S
C266 H247 0.951 . S
C266 C264 1.388 . S
C266 C267 1.366 1_545 S
C267 C266 1.366 1_565 S
C267 C268 1.414 . S
C267 C270 1.499 . S
C268 H248 0.950 . S
C268 C267 1.414 . S
C268 C269 1.374 . S
C269 H249 0.950 . S
C269 C265 1.385 . S
C269 C268 1.374 . S
C270 C267 1.499 . S
C270 C271 1.373 . S
C270 C272 1.389 1_565 S
C271 H250 0.950 . S
C271 C270 1.373 . S
C271 C287 1.377 . S
C272 C270 1.389 1_545 S
C272 C273 1.524 . S
C272 C286 1.377 . S
C273 C272 1.524 . S
C273 C274 1.397 . S
C273 C278 1.363 . S
C274 H251 0.955 . S
C274 C273 1.397 . S
C274 C275 1.334 . S
C275 H252 0.950 . S
C275 C274 1.334 . S
C275 C276 1.287 . S
C276 C275 1.287 . S
C276 C277 1.524 . S
C276 H295 0.913 . S
C277 H253 0.950 . S
C277 C276 1.524 . S
C277 C278 1.415 . S
C278 H254 0.950 . S
C278 C273 1.363 . S
C278 C277 1.415 . S
C279 H255 0.951 . S
C279 C280 1.366 . S
C279 C281 1.388 . S
C280 C279 1.366 . S
C280 C284 1.385 1_565 S
C281 H256 0.951 . S
C281 C279 1.388 . S
C281 C282 1.366 . S
C282 C281 1.366 . S
C282 C283 1.414 1_565 S
C282 C285 1.498 1_565 S
C283 H257 0.950 . S
C283 C282 1.414 1_545 S
C283 C284 1.374 . S
C284 H258 0.950 . S
C284 C280 1.385 1_545 S
C284 C283 1.374 . S
C285 C282 1.498 1_545 S
C285 C286 1.377 . S
C285 C287 1.386 1_545 S
C286 H259 0.950 . S
C286 C272 1.377 . S
C286 C285 1.377 . S
C287 C271 1.377 . S
C287 C285 1.386 1_565 S
C287 C288 1.524 . S
C288 C287 1.524 . S
C288 C289 1.397 . S
C288 C293 1.363 . S
C289 H260 0.950 . S
C289 C288 1.397 . S
C289 C290 1.334 . S
C290 H261 0.950 . S
C290 C289 1.334 . S
C290 C291 1.287 . S
C291 C290 1.287 . S
C291 C292 1.524 . S
C291 H294 0.999 . S
C292 H262 0.950 . S
C292 C291 1.524 . S
C292 C293 1.415 . S
C293 H263 0.950 . S
C293 C288 1.363 . S
C293 C292 1.415 . S
H294 C291 0.999 . S
H295 C276 0.913 . S
H296 C314 0.951 . S
H297 C316 0.951 . S
H298 C318 0.950 . S
H299 C319 0.950 . S
H300 C321 0.950 . S
H301 C324 0.950 . S
H302 C325 0.950 . S
H303 C327 0.950 . S
H304 C328 0.950 1_655 S
H305 C329 0.951 . S
H306 C331 0.951 . S
H307 C333 0.950 . S
H308 C334 0.950 . S
H309 C336 0.950 . S
H310 C339 0.950 . S
H311 C340 0.950 . S
H312 C342 0.950 . S
H313 C343 0.950 1_455 S
C314 H296 0.951 . S
C314 C315 1.366 1_655 S
C314 C316 1.388 . S
C315 C314 1.366 1_455 S
C315 C319 1.385 . S
C316 H297 0.951 . S
C316 C314 1.388 . S
C316 C317 1.366 1_655 S
C317 C316 1.366 1_455 S
C317 C318 1.414 . S
C317 C320 1.499 . S
C318 H298 0.950 . S
C318 C317 1.414 . S
C318 C319 1.374 . S
C319 H299 0.950 . S
C319 C315 1.385 . S
C319 C318 1.374 . S
C320 C317 1.499 . S
C320 C321 1.373 1_455 S
C320 C322 1.389 . S
C321 H300 0.950 . S
C321 C320 1.373 1_655 S
C321 C337 1.377 . S
C322 C320 1.389 . S
C322 C323 1.524 . S
C322 C336 1.377 . S
C323 C322 1.524 . S
C323 C324 1.397 . S
C323 C328 1.363 . S
C324 H301 0.950 . S
C324 C323 1.397 . S
C324 C325 1.334 . S
C325 H302 0.950 . S
C325 C324 1.334 . S
C325 C326 1.287 . S
C326 C325 1.287 . S
C326 C327 1.524 . S
C326 H345 0.913 . S
C327 H303 0.950 . S
C327 C326 1.524 . S
C327 C328 1.415 . S
C328 H304 0.950 1_455 S
C328 C323 1.363 . S
C328 C327 1.415 . S
C329 H305 0.951 . S
C329 C330 1.366 . S
C329 C331 1.388 . S
C330 C329 1.366 . S
C330 C334 1.385 1_455 S
C331 H306 0.951 . S
C331 C329 1.388 . S
C331 C332 1.355 1_455 S
C332 C331 1.355 1_655 S
C332 C333 1.424 . S
C332 C335 1.499 . S
C333 H307 0.950 . S
C333 C332 1.424 . S
C333 C334 1.374 . S
C334 H308 0.950 . S
C334 C330 1.385 1_655 S
C334 C333 1.374 . S
C335 C332 1.499 . S
C335 C336 1.373 1_655 S
C335 C337 1.389 . S
C336 H309 0.950 . S
C336 C322 1.377 . S
C336 C335 1.373 1_455 S
C337 C321 1.377 . S
C337 C335 1.389 . S
C337 C338 1.524 . S
C338 C337 1.524 . S
C338 C339 1.397 . S
C338 C343 1.363 . S
C339 H310 0.950 . S
C339 C338 1.397 . S
C339 C340 1.334 . S
C340 H311 0.950 . S
C340 C339 1.334 . S
C340 C341 1.287 . S
C341 C340 1.287 . S
C341 C342 1.524 . S
C341 H344 0.999 . S
C342 H312 0.950 . S
C342 C341 1.524 . S
C342 C343 1.415 . S
C343 H313 0.950 1_655 S
C343 C338 1.363 . S
C343 C342 1.415 . S
H344 C341 0.999 . S
H345 C326 0.913 . S
H346 C364 0.951 . S
H347 C366 0.951 . S
H348 C368 0.950 . S
H349 C369 0.950 . S
H350 C371 0.950 . S
H351 C374 0.950 . S
H352 C375 0.950 . S
H353 C377 0.950 . S
H354 C378 0.950 . S
H355 C379 0.951 . S
H356 C381 0.951 . S
H357 C383 0.950 . S
H358 C384 0.950 . S
H359 C386 0.950 . S
H360 C389 0.950 . S
H361 C390 0.950 . S
H362 C392 0.950 . S
H363 C393 0.950 . S
C364 H346 0.951 . S
C364 C365 1.364 1_565 S
C364 C366 1.388 . S
C365 C364 1.364 1_545 S
C365 C369 1.388 . S
C366 H347 0.951 . S
C366 C364 1.388 . S
C366 C367 1.366 1_565 S
C367 C366 1.366 1_545 S
C367 C368 1.414 . S
C367 C370 1.499 . S
C368 H348 0.950 . S
C368 C367 1.414 . S
C368 C369 1.374 . S
C369 H349 0.950 . S
C369 C365 1.388 . S
C369 C368 1.374 . S
C370 C367 1.499 . S
C370 C371 1.373 1_545 S
C370 C372 1.389 . S
C371 H350 0.950 . S
C371 C370 1.373 1_565 S
C371 C387 1.377 . S
C372 C370 1.389 . S
C372 C373 1.524 . S
C372 C386 1.377 . S
C373 C372 1.524 . S
C373 C374 1.397 . S
C373 C378 1.363 . S
C374 H351 0.950 . S
C374 C373 1.397 . S
C374 C375 1.334 . S
C375 H352 0.950 . S
C375 C374 1.334 . S
C375 C376 1.287 . S
C376 C375 1.287 . S
C376 C377 1.524 . S
C376 H395 0.913 . S
C377 H353 0.950 . S
C377 C376 1.524 . S
C377 C378 1.415 . S
C378 H354 0.950 . S
C378 C373 1.363 . S
C378 C377 1.415 . S
C379 H355 0.951 . S
C379 C380 1.364 1_545 S
C379 C381 1.388 . S
C380 C379 1.364 1_565 S
C380 C384 1.387 . S
C381 H356 0.951 . S
C381 C379 1.388 . S
C381 C382 1.366 1_545 S
C382 C381 1.366 1_565 S
C382 C383 1.414 . S
C382 C385 1.499 . S
C383 H357 0.950 . S
C383 C382 1.414 . S
C383 C384 1.374 . S
C384 H358 0.950 . S
C384 C380 1.387 . S
C384 C383 1.374 . S
C385 C382 1.499 . S
C385 C386 1.373 1_565 S
C385 C387 1.389 . S
C386 H359 0.950 . S
C386 C372 1.377 . S
C386 C385 1.373 1_545 S
C387 C371 1.377 . S
C387 C385 1.389 . S
C387 C388 1.524 . S
C388 C387 1.524 . S
C388 C389 1.397 . S
C388 C393 1.363 . S
C389 H360 0.950 . S
C389 C388 1.397 . S
C389 C390 1.334 . S
C390 H361 0.950 . S
C390 C389 1.334 . S
C390 C391 1.287 . S
C391 C390 1.287 . S
C391 C392 1.524 . S
C391 H394 0.999 . S
C392 H362 0.950 . S
C392 C391 1.524 . S
C392 C393 1.415 . S
C393 H363 0.950 . S
C393 C388 1.363 . S
C393 C392 1.415 . S
H394 C391 0.999 . S
H395 C376 0.913 . S
H396 C414 0.951 . S
H397 C416 0.951 . S
H398 C418 0.950 . S
H399 C419 0.950 . S
H400 C421 0.950 . S
H401 C424 0.950 . S
H402 C425 0.950 . S
H403 C427 0.950 . S
H404 C428 0.950 . S
H405 C429 0.951 . S
H406 C431 0.951 . S
H407 C433 0.950 . S
H408 C434 0.950 . S
H409 C436 0.950 . S
H410 C439 0.950 . S
H411 C440 0.950 . S
H412 C442 0.950 . S
H413 C443 0.950 . S
C414 H396 0.951 . S
C414 C415 1.371 . S
C414 C416 1.388 . S
C415 C414 1.371 . S
C415 C419 1.380 1_455 S
C416 H397 0.951 . S
C416 C414 1.388 . S
C416 C417 1.366 . S
C417 C416 1.366 . S
C417 C418 1.414 1_455 S
C417 C420 1.499 . S
C418 H398 0.950 . S
C418 C417 1.414 1_655 S
C418 C419 1.374 . S
C419 H399 0.950 . S
C419 C415 1.380 1_655 S
C419 C418 1.374 . S
C420 C417 1.499 . S
C420 C421 1.373 1_455 S
C420 C422 1.389 . S
C421 H400 0.950 . S
C421 C420 1.373 1_655 S
C421 C437 1.377 . S
C422 C420 1.389 . S
C422 C423 1.524 . S
C422 C436 1.377 . S
C423 C422 1.524 . S
C423 C424 1.397 . S
C423 C428 1.363 . S
C424 H401 0.950 . S
C424 C423 1.397 . S
C424 C425 1.334 . S
C425 H402 0.950 . S
C425 C424 1.334 . S
C425 C426 1.287 . S
C426 C425 1.287 . S
C426 C427 1.524 . S
C426 H445 0.913 . S
C427 H403 0.950 . S
C427 C426 1.524 . S
C427 C428 1.415 . S
C428 H404 0.950 . S
C428 C423 1.363 . S
C428 C427 1.415 . S
C429 H405 0.951 . S
C429 C430 1.369 . S
C429 C431 1.388 . S
C430 C429 1.369 . S
C430 C434 1.382 1_655 S
C431 H406 0.951 . S
C431 C429 1.388 . S
C431 C432 1.366 . S
C432 C431 1.366 . S
C432 C433 1.414 1_655 S
C432 C435 1.499 . S
C433 H407 0.950 . S
C433 C432 1.414 1_455 S
C433 C434 1.374 . S
C434 H408 0.950 . S
C434 C430 1.382 1_455 S
C434 C433 1.374 . S
C435 C432 1.499 . S
C435 C436 1.373 1_655 S
C435 C437 1.389 . S
C436 H409 0.950 . S
C436 C422 1.377 . S
C436 C435 1.373 1_455 S
C437 C421 1.377 . S
C437 C435 1.389 . S
C437 C438 1.524 . S
C438 C437 1.524 . S
C438 C439 1.397 . S
C438 C443 1.363 . S
C439 H410 0.950 . S
C439 C438 1.397 . S
C439 C440 1.334 . S
C440 H411 0.950 . S
C440 C439 1.334 . S
C440 C441 1.287 . S
C441 C440 1.287 . S
C441 C442 1.524 . S
C441 H444 0.999 . S
C442 H412 0.950 . S
C442 C441 1.524 . S
C442 C443 1.415 . S
C443 H413 0.950 . S
C443 C438 1.363 . S
C443 C442 1.415 . S
H444 C441 0.999 . S
H445 C426 0.913 . S
H446 C464 0.951 . S
H447 C466 0.951 . S
H448 C468 0.951 . S
H449 C469 0.950 . S
H450 C471 0.950 . S
H451 C474 0.950 . S
H452 C475 0.950 . S
H453 C477 0.950 . S
H454 C478 0.950 . S
H455 C479 0.951 1_565 S
H456 C481 0.951 . S
H457 C483 0.950 . S
H458 C484 0.950 . S
H459 C486 0.950 . S
H460 C489 0.950 . S
H461 C490 0.950 . S
H462 C492 0.950 . S
H463 C493 0.950 . S
C464 H446 0.951 . S
C464 C465 1.366 . S
C464 C466 1.388 . S
C465 C464 1.366 . S
C465 C469 1.385 . S
C466 H447 0.951 . S
C466 C464 1.388 . S
C466 C467 1.366 . S
C467 C466 1.366 . S
C467 C468 1.414 . S
C467 C470 1.499 . S
C468 H448 0.951 . S
C468 C467 1.414 . S
C468 C469 1.374 . S
C469 H449 0.950 . S
C469 C465 1.385 . S
C469 C468 1.374 . S
C470 C467 1.499 . S
C470 C471 1.373 1_545 S
C470 C472 1.389 . S
C471 H450 0.950 . S
C471 C470 1.373 1_565 S
C471 C487 1.377 . S
C472 C470 1.389 . S
C472 C473 1.524 . S
C472 C486 1.377 . S
C473 C472 1.524 . S
C473 C474 1.397 . S
C473 C478 1.363 . S
C474 H451 0.950 . S
C474 C473 1.397 . S
C474 C475 1.334 . S
C475 H452 0.950 . S
C475 C474 1.334 . S
C475 C476 1.287 . S
C476 C475 1.287 . S
C476 C477 1.524 . S
C476 H495 0.913 . S
C477 H453 0.950 . S
C477 C476 1.524 . S
C477 C478 1.415 . S
C478 H454 0.950 . S
C478 C473 1.363 . S
C478 C477 1.415 . S
C479 H455 0.951 1_545 S
C479 C480 1.366 . S
C479 C481 1.388 1_545 S
C480 C479 1.366 . S
C480 C484 1.385 . S
C481 H456 0.951 . S
C481 C479 1.388 1_565 S
C481 C482 1.366 . S
C482 C481 1.366 . S
C482 C483 1.414 1_565 S
C482 C485 1.499 . S
C483 H457 0.950 . S
C483 C482 1.414 1_545 S
C483 C484 1.374 . S
C484 H458 0.950 . S
C484 C480 1.385 . S
C484 C483 1.374 . S
C485 C482 1.499 . S
C485 C486 1.373 1_565 S
C485 C487 1.389 . S
C486 H459 0.950 . S
C486 C472 1.377 . S
C486 C485 1.373 1_545 S
C487 C471 1.377 . S
C487 C485 1.389 . S
C487 C488 1.524 . S
C488 C487 1.524 . S
C488 C489 1.397 . S
C488 C493 1.363 . S
C489 H460 0.950 . S
C489 C488 1.397 . S
C489 C490 1.334 . S
C490 H461 0.950 . S
C490 C489 1.334 . S
C490 C491 1.287 . S
C491 C490 1.287 . S
C491 C492 1.524 . S
C491 H494 0.999 . S
C492 H462 0.950 . S
C492 C491 1.524 . S
C492 C493 1.415 . S
C493 H463 0.950 . S
C493 C488 1.363 . S
C493 C492 1.415 . S
H494 C491 0.999 . S
H495 C476 0.913 . S
H496 C514 0.951 . S
H497 C516 0.951 . S
H498 C518 0.950 . S
H499 C519 0.950 . S
H500 C521 0.950 . S
H501 C524 0.950 . S
H502 C525 0.950 . S
H503 C527 0.950 . S
H504 C528 0.950 . S
H505 C529 0.951 . S
H506 C531 0.951 . S
H507 C533 0.950 . S
H508 C534 0.950 . S
H509 C536 0.950 . S
H510 C539 0.950 . S
H511 C540 0.950 . S
H512 C542 0.950 . S
H513 C543 0.950 . S
C514 H496 0.951 . S
C514 C515 1.366 1_554 S
C514 C516 1.388 . S
C515 C514 1.366 1_556 S
C515 C519 1.385 . S
C516 H497 0.951 . S
C516 C514 1.388 . S
C516 C517 1.376 . S
C517 C516 1.376 . S
C517 C518 1.403 1_554 S
C517 C520 1.499 . S
C518 H498 0.950 . S
C518 C517 1.403 1_556 S
C518 C519 1.374 . S
C519 H499 0.950 . S
C519 C515 1.385 . S
C519 C518 1.374 . S
C520 C517 1.499 . S
C520 C521 1.371 1_554 S
C520 C522 1.392 . S
C521 H500 0.950 . S
C521 C520 1.371 1_556 S
C521 C537 1.377 . S
C522 C520 1.392 . S
C522 C523 1.524 . S
C522 C536 1.377 . S
C523 C522 1.524 . S
C523 C524 1.397 . S
C523 C528 1.363 . S
C524 H501 0.950 . S
C524 C523 1.397 . S
C524 C525 1.334 . S
C525 H502 0.950 . S
C525 C524 1.334 . S
C525 C526 1.287 . S
C526 C525 1.287 . S
C526 C527 1.524 . S
C526 H545 0.913 . S
C527 H503 0.950 . S
C527 C526 1.524 . S
C527 C528 1.415 . S
C528 H504 0.950 . S
C528 C523 1.363 . S
C528 C527 1.415 . S
C529 H505 0.951 . S
C529 C530 1.366 . S
C529 C531 1.388 . S
C530 C529 1.366 . S
C530 C534 1.385 1_556 S
C531 H506 0.951 . S
C531 C529 1.388 . S
C531 C532 1.366 . S
C532 C531 1.366 . S
C532 C533 1.414 1_556 S
C532 C535 1.499 . S
C533 H507 0.950 . S
C533 C532 1.414 1_554 S
C533 C534 1.374 . S
C534 H508 0.950 . S
C534 C530 1.385 1_554 S
C534 C533 1.374 . S
C535 C532 1.499 . S
C535 C536 1.373 1_556 S
C535 C537 1.389 . S
C536 H509 0.950 . S
C536 C522 1.377 . S
C536 C535 1.373 1_554 S
C537 C521 1.377 . S
C537 C535 1.389 . S
C537 C538 1.524 . S
C538 C537 1.524 . S
C538 C539 1.397 . S
C538 C543 1.363 . S
C539 H510 0.950 . S
C539 C538 1.397 . S
C539 C540 1.334 . S
C540 H511 0.950 . S
C540 C539 1.334 . S
C540 C541 1.287 . S
C541 C540 1.287 . S
C541 C542 1.524 . S
C541 H544 0.999 . S
C542 H512 0.950 . S
C542 C541 1.524 . S
C542 C543 1.415 . S
C543 H513 0.950 . S
C543 C538 1.363 . S
C543 C542 1.415 . S
H544 C541 0.999 . S
H545 C526 0.913 . S
H546 C564 0.951 . S
H547 C566 0.951 . S
H548 C568 0.950 . S
H549 C569 0.950 . S
H550 C571 0.950 . S
H551 C574 0.950 . S
H552 C575 0.950 . S
H553 C577 0.950 . S
H554 C578 0.950 . S
H555 C579 0.951 . S
H556 C581 0.951 . S
H557 C583 0.950 . S
H558 C584 0.950 . S
H559 C586 0.950 . S
H560 C589 0.950 . S
H561 C590 0.950 . S
H562 C592 0.950 . S
H563 C593 0.950 . S
C564 H546 0.951 . S
C564 C565 1.361 1_554 S
C564 C566 1.388 . S
C565 C564 1.361 1_556 S
C565 C569 1.390 . S
C566 H547 0.951 . S
C566 C564 1.388 . S
C566 C567 1.366 . S
C567 C566 1.366 . S
C567 C568 1.414 1_554 S
C567 C570 1.499 . S
C568 H548 0.950 . S
C568 C567 1.414 1_556 S
C568 C569 1.374 . S
C569 H549 0.950 . S
C569 C565 1.390 . S
C569 C568 1.374 . S
C570 C567 1.499 . S
C570 C571 1.373 1_554 S
C570 C572 1.389 . S
C571 H550 0.950 . S
C571 C570 1.373 1_556 S
C571 C587 1.377 . S
C572 C570 1.389 . S
C572 C573 1.524 . S
C572 C586 1.377 . S
C573 C572 1.524 . S
C573 C574 1.397 . S
C573 C578 1.363 . S
C574 H551 0.950 . S
C574 C573 1.397 . S
C574 C575 1.334 . S
C575 H552 0.950 . S
C575 C574 1.334 . S
C575 C576 1.287 . S
C576 C575 1.287 . S
C576 C577 1.524 . S
C576 H595 0.913 . S
C577 H553 0.950 . S
C577 C576 1.524 . S
C577 C578 1.415 . S
C578 H554 0.950 . S
C578 C573 1.363 . S
C578 C577 1.415 . S
C579 H555 0.951 . S
C579 C580 1.359 1_556 S
C579 C581 1.388 . S
C580 C579 1.359 1_554 S
C580 C584 1.391 . S
C581 H556 0.951 . S
C581 C579 1.388 . S
C581 C582 1.366 . S
C582 C581 1.366 . S
C582 C583 1.414 1_556 S
C582 C585 1.499 . S
C583 H557 0.950 . S
C583 C582 1.414 1_554 S
C583 C584 1.374 . S
C584 H558 0.950 . S
C584 C580 1.391 . S
C584 C583 1.374 . S
C585 C582 1.499 . S
C585 C586 1.373 1_556 S
C585 C587 1.389 . S
C586 H559 0.950 . S
C586 C572 1.377 . S
C586 C585 1.373 1_554 S
C587 C571 1.377 . S
C587 C585 1.389 . S
C587 C588 1.524 . S
C588 C587 1.524 . S
C588 C589 1.397 . S
C588 C593 1.363 . S
C589 H560 0.950 . S
C589 C588 1.397 . S
C589 C590 1.334 . S
C590 H561 0.950 . S
C590 C589 1.334 . S
C590 C591 1.287 . S
C591 C590 1.287 . S
C591 C592 1.524 . S
C591 H594 0.999 . S
C592 H562 0.950 . S
C592 C591 1.524 . S
C592 C593 1.415 . S
C593 H563 0.950 . S
C593 C588 1.363 . S
C593 C592 1.415 . S
H594 C591 0.999 . S
H595 C576 0.913 . S
H596 C614 0.951 . S
H597 C616 0.951 . S
H598 C618 0.950 . S
H599 C619 0.950 . S
H600 C621 0.950 . S
H601 C624 0.950 . S
H602 C625 0.950 . S
H603 C627 0.950 . S
H604 C628 0.950 1_556 S
H605 C629 0.951 . S
H606 C631 0.951 . S
H607 C633 0.950 . S
H608 C634 0.950 . S
H609 C636 0.950 . S
H610 C639 0.950 . S
H611 C640 0.950 . S
H612 C642 0.950 . S
H613 C643 0.950 1_554 S
C614 H596 0.951 . S
C614 C615 1.374 . S
C614 C616 1.388 . S
C615 C614 1.374 . S
C615 C619 1.376 1_556 S
C616 H597 0.951 . S
C616 C614 1.388 . S
C616 C617 1.366 1_556 S
C617 C616 1.366 1_554 S
C617 C618 1.414 . S
C617 C620 1.499 . S
C618 H598 0.950 . S
C618 C617 1.414 . S
C618 C619 1.374 . S
C619 H599 0.950 . S
C619 C615 1.376 1_554 S
C619 C618 1.374 . S
C620 C617 1.499 . S
C620 C621 1.373 1_554 S
C620 C622 1.389 . S
C621 H600 0.950 . S
C621 C620 1.373 1_556 S
C621 C637 1.377 . S
C622 C620 1.389 . S
C622 C623 1.524 . S
C622 C636 1.377 . S
C623 C622 1.524 . S
C623 C624 1.397 . S
C623 C628 1.363 . S
C624 H601 0.950 . S
C624 C623 1.397 . S
C624 C625 1.334 . S
C625 H602 0.950 . S
C625 C624 1.334 . S
C625 C626 1.287 . S
C626 C625 1.287 . S
C626 C627 1.524 . S
C626 H645 0.913 . S
C627 H603 0.950 . S
C627 C626 1.524 . S
C627 C628 1.415 . S
C628 H604 0.950 1_554 S
C628 C623 1.363 . S
C628 C627 1.415 . S
C629 H605 0.951 . S
C629 C630 1.377 . S
C629 C631 1.388 . S
C630 C629 1.377 . S
C630 C634 1.373 1_554 S
C631 H606 0.951 . S
C631 C629 1.388 . S
C631 C632 1.366 1_554 S
C632 C631 1.366 1_556 S
C632 C633 1.414 . S
C632 C635 1.499 . S
C633 H607 0.950 . S
C633 C632 1.414 . S
C633 C634 1.374 . S
C634 H608 0.950 . S
C634 C630 1.373 1_556 S
C634 C633 1.374 . S
C635 C632 1.499 . S
C635 C636 1.373 1_556 S
C635 C637 1.389 . S
C636 H609 0.950 . S
C636 C622 1.377 . S
C636 C635 1.373 1_554 S
C637 C621 1.377 . S
C637 C635 1.389 . S
C637 C638 1.524 . S
C638 C637 1.524 . S
C638 C639 1.397 . S
C638 C643 1.363 . S
C639 H610 0.950 . S
C639 C638 1.397 . S
C639 C640 1.334 . S
C640 H611 0.950 . S
C640 C639 1.334 . S
C640 C641 1.287 . S
C641 C640 1.287 . S
C641 C642 1.524 . S
C641 H644 0.999 . S
C642 H612 0.950 . S
C642 C641 1.524 . S
C642 C643 1.415 . S
C643 H613 0.950 1_556 S
C643 C638 1.363 . S
C643 C642 1.415 . S
H644 C641 0.999 . S
H645 C626 0.913 . S
H646 C664 0.951 . S
H647 C666 0.951 . S
H648 C668 0.950 . S
H649 C669 0.950 . S
H650 C671 0.950 . S
H651 C674 0.950 . S
H652 C675 0.950 . S
H653 C677 0.950 . S
H654 C678 0.950 . S
H655 C679 0.951 . S
H656 C681 0.951 . S
H657 C683 0.950 . S
H658 C684 0.950 . S
H659 C686 0.950 . S
H660 C689 0.950 . S
H661 C690 0.950 . S
H662 C692 0.950 . S
H663 C693 0.950 . S
C664 H646 0.951 . S
C664 C665 1.366 1_556 S
C664 C666 1.388 . S
C665 C664 1.366 1_554 S
C665 C669 1.385 . S
C666 H647 0.951 . S
C666 C664 1.388 . S
C666 C667 1.366 . S
C667 C666 1.366 . S
C667 C668 1.414 1_556 S
C667 C670 1.499 . S
C668 H648 0.950 . S
C668 C667 1.414 1_554 S
C668 C669 1.374 . S
C669 H649 0.950 . S
C669 C665 1.385 . S
C669 C668 1.374 . S
C670 C667 1.499 . S
C670 C671 1.373 1_556 S
C670 C672 1.389 . S
C671 H650 0.950 . S
C671 C670 1.373 1_554 S
C671 C687 1.377 . S
C672 C670 1.389 . S
C672 C673 1.524 . S
C672 C686 1.377 . S
C673 C672 1.524 . S
C673 C674 1.397 . S
C673 C678 1.363 . S
C674 H651 0.950 . S
C674 C673 1.397 . S
C674 C675 1.334 . S
C675 H652 0.950 . S
C675 C674 1.334 . S
C675 C676 1.287 . S
C676 C675 1.287 . S
C676 C677 1.524 . S
C676 H695 0.913 . S
C677 H653 0.950 . S
C677 C676 1.524 . S
C677 C678 1.415 . S
C678 H654 0.950 . S
C678 C673 1.363 . S
C678 C677 1.415 . S
C679 H655 0.951 . S
C679 C680 1.366 . S
C679 C681 1.388 . S
C680 C679 1.366 . S
C680 C684 1.385 1_554 S
C681 H656 0.951 . S
C681 C679 1.388 . S
C681 C682 1.366 . S
C682 C681 1.366 . S
C682 C683 1.414 1_554 S
C682 C685 1.499 . S
C683 H657 0.950 . S
C683 C682 1.414 1_556 S
C683 C684 1.374 . S
C684 H658 0.950 . S
C684 C680 1.385 1_556 S
C684 C683 1.374 . S
C685 C682 1.499 . S
C685 C686 1.373 1_554 S
C685 C687 1.389 . S
C686 H659 0.950 . S
C686 C672 1.377 . S
C686 C685 1.373 1_556 S
C687 C671 1.377 . S
C687 C685 1.389 . S
C687 C688 1.524 . S
C688 C687 1.524 . S
C688 C689 1.397 . S
C688 C693 1.363 . S
C689 H660 0.950 . S
C689 C688 1.397 . S
C689 C690 1.334 . S
C690 H661 0.950 . S
C690 C689 1.334 . S
C690 C691 1.287 . S
C691 C690 1.287 . S
C691 C692 1.524 . S
C691 H694 0.999 . S
C692 H662 0.950 . S
C692 C691 1.524 . S
C692 C693 1.415 . S
C693 H663 0.950 . S
C693 C688 1.363 . S
C693 C692 1.415 . S
H694 C691 0.999 . S
H695 C676 0.913 . S
C115 C86 1.094 . S
C130 C8 1.088 . S
C165 C22 1.050 . S
C180 C56 1.039 . S
C215 C17 1.042 . S
C230 C87 1.039 . S
C265 C40 1.092 . S
C280 C31 1.083 . S
C315 C27 1.094 . S
C330 C94 1.096 . S
C365 C49 1.042 . S
C380 C30 1.047 . S
C415 C95 1.042 . S
C430 C24 1.039 . S
C465 C59 1.094 . S
C480 C23 1.088 . S
C515 C81 1.085 . S
C530 C63 1.083 . S
C565 C91 1.048 . S
C580 C54 1.051 . S
C615 C62 1.048 . S
C630 C72 1.051 . S
C665 C88 1.085 . S
C680 C55 1.090 . S
