# Generated by pormake.
# Topology wjv, (5)-cn, num edge types: 1
# Building blocks:
#     Node 0, Type 0, BuildingBlock: XOMCOT_clean_sbu_0, # of connection points: 5
#     Node 1, Type 0, BuildingBlock: XOMCOT_clean_sbu_0, # of connection points: 5
#     Node 2, Type 0, BuildingBlock: XOMCOT_clean_sbu_0, # of connection points: 5
#     Node 3, Type 0, BuildingBlock: XOMCOT_clean_sbu_0, # of connection points: 5
#     Node 4, Type 0, BuildingBlock: XOMCOT_clean_sbu_0, # of connection points: 5
#     Node 5, Type 0, BuildingBlock: XOMCOT_clean_sbu_0, # of connection points: 5
#     Node 6, Type 0, BuildingBlock: XOMCOT_clean_sbu_0, # of connection points: 5
#     Node 7, Type 0, BuildingBlock: XOMCOT_clean_sbu_0, # of connection points: 5
#     Node 8, Type 0, BuildingBlock: XOMCOT_clean_sbu_0, # of connection points: 5
#     Node 9, Type 0, BuildingBlock: XOMCOT_clean_sbu_0, # of connection points: 5
#     Node 10, Type 0, BuildingBlock: XOMCOT_clean_sbu_0, # of connection points: 5
#     Node 11, Type 0, BuildingBlock: XOMCOT_clean_sbu_0, # of connection points: 5
#     Edge 12, Type (0, 0), BuildingBlock: EZIPEK_clean_linker_0, # of connection points: 2
#     Edge 13, Type (0, 0), BuildingBlock: EZIPEK_clean_linker_0, # of connection points: 2
#     Edge 14, Type (0, 0), BuildingBlock: EZIPEK_clean_linker_0, # of connection points: 2
#     Edge 15, Type (0, 0), BuildingBlock: EZIPEK_clean_linker_0, # of connection points: 2
#     Edge 16, Type (0, 0), BuildingBlock: EZIPEK_clean_linker_0, # of connection points: 2
#     Edge 17, Type (0, 0), BuildingBlock: EZIPEK_clean_linker_0, # of connection points: 2
#     Edge 18, Type (0, 0), BuildingBlock: EZIPEK_clean_linker_0, # of connection points: 2
#     Edge 19, Type (0, 0), BuildingBlock: EZIPEK_clean_linker_0, # of connection points: 2
#     Edge 20, Type (0, 0), BuildingBlock: EZIPEK_clean_linker_0, # of connection points: 2
#     Edge 21, Type (0, 0), BuildingBlock: EZIPEK_clean_linker_0, # of connection points: 2
#     Edge 22, Type (0, 0), BuildingBlock: EZIPEK_clean_linker_0, # of connection points: 2
#     Edge 23, Type (0, 0), BuildingBlock: EZIPEK_clean_linker_0, # of connection points: 2
#     Edge 24, Type (0, 0), BuildingBlock: EZIPEK_clean_linker_0, # of connection points: 2
#     Edge 25, Type (0, 0), BuildingBlock: EZIPEK_clean_linker_0, # of connection points: 2
#     Edge 26, Type (0, 0), BuildingBlock: EZIPEK_clean_linker_0, # of connection points: 2
#     Edge 27, Type (0, 0), BuildingBlock: EZIPEK_clean_linker_0, # of connection points: 2
#     Edge 28, Type (0, 0), BuildingBlock: EZIPEK_clean_linker_0, # of connection points: 2
#     Edge 29, Type (0, 0), BuildingBlock: EZIPEK_clean_linker_0, # of connection points: 2
#     Edge 30, Type (0, 0), BuildingBlock: EZIPEK_clean_linker_0, # of connection points: 2
#     Edge 31, Type (0, 0), BuildingBlock: EZIPEK_clean_linker_0, # of connection points: 2
#     Edge 32, Type (0, 0), BuildingBlock: EZIPEK_clean_linker_0, # of connection points: 2
#     Edge 33, Type (0, 0), BuildingBlock: EZIPEK_clean_linker_0, # of connection points: 2
#     Edge 34, Type (0, 0), BuildingBlock: EZIPEK_clean_linker_0, # of connection points: 2
#     Edge 35, Type (0, 0), BuildingBlock: EZIPEK_clean_linker_0, # of connection points: 2
#     Edge 36, Type (0, 0), BuildingBlock: EZIPEK_clean_linker_0, # of connection points: 2
#     Edge 37, Type (0, 0), BuildingBlock: EZIPEK_clean_linker_0, # of connection points: 2
#     Edge 38, Type (0, 0), BuildingBlock: EZIPEK_clean_linker_0, # of connection points: 2
#     Edge 39, Type (0, 0), BuildingBlock: EZIPEK_clean_linker_0, # of connection points: 2
#     Edge 40, Type (0, 0), BuildingBlock: EZIPEK_clean_linker_0, # of connection points: 2
#     Edge 41, Type (0, 0), BuildingBlock: EZIPEK_clean_linker_0, # of connection points: 2
# Relax obj value: 0.145
# Max RMSD: 0.185
# Mean RMSD: 0.185
data_MOF--net-wjv--node1-XOMCOT_clean_sbu_0--edge1-EZIPEK_clean_linker_0
_symmetry_space_group_name_H-M    P1
_symmetry_Int_Tables_number       1
_symmetry_cell_setting            triclinic
loop_
_symmetry_equiv_pos_as_xyz
'x, y, z'
_cell_length_a     28.216303
_cell_length_b     28.196137
_cell_length_c     39.227832
_cell_angle_alpha  89.807088
_cell_angle_beta   90.35539
_cell_angle_gamma 119.6981
loop_
_atom_site_label
_atom_site_type_symbol
_atom_site_fract_x
_atom_site_fract_y
_atom_site_fract_z
_atom_type_partial_charge
Co0 Co 0.20573 0.30056 0.19726 0.0
C1 C 0.18813 0.31564 0.12294 0.0
C2 C 0.16619 0.23351 0.13597 0.0
C3 C 0.15333 0.23438 0.10238 0.0
N4 N 0.18995 0.28465 0.14885 0.0
N5 N 0.1671 0.28588 0.09425 0.0
H6 H 0.19856 0.35781 0.12511 0.0
H7 H 0.15627 0.19724 0.15042 0.0
C8 C 0.25858 0.23534 0.17899 0.0
O9 O 0.27971 0.26677 0.15214 0.0
N10 N 0.21887 0.31337 0.24567 0.0
C11 C 0.24399 0.36202 0.26165 0.0
C12 C 0.25649 0.35417 0.2945 0.0
C13 C 0.21497 0.27645 0.26914 0.0
N14 N 0.2386 0.30046 0.299 0.0
C15 C 0.29208 0.40492 0.17089 0.0
C16 C 0.37644 0.39416 0.19918 0.0
C17 C 0.38908 0.43951 0.17891 0.0
C18 C 0.34641 0.44557 0.16508 0.0
C19 C 0.32217 0.35515 0.20446 0.0
N20 N 0.28057 0.35899 0.189 0.0
H21 H 0.2596 0.41123 0.16171 0.0
H22 H 0.31381 0.32187 0.22151 0.0
H23 H 0.25575 0.40082 0.24958 0.0
H24 H 0.19858 0.23346 0.26383 0.0
O25 O 0.16525 0.34026 0.19664 0.0
O26 O 0.13035 0.25151 0.20594 0.0
O27 O 0.23079 0.24529 0.20031 0.0
C28 C 0.12227 0.29271 0.20231 0.0
H29 H 0.13299 0.19952 0.08553 0.0
H30 H 0.2792 0.3857 0.31318 0.0
H31 H 0.40841 0.38932 0.21129 0.0
H32 H 0.35502 0.48152 0.15039 0.0
Co33 Co 0.90888 0.19122 0.52385 0.0
C34 C 0.87606 0.18789 0.45142 0.0
C35 C 0.94739 0.17929 0.45649 0.0
C36 C 0.93283 0.1741 0.42264 0.0
N37 N 0.9113 0.18706 0.47462 0.0
N38 N 0.88773 0.17877 0.41957 0.0
H39 H 0.84157 0.19298 0.4578 0.0
H40 H 0.98051 0.17502 0.46713 0.0
C41 C 0.03124 0.2546 0.53764 0.0
O42 O 0.02837 0.29289 0.55495 0.0
N43 N 0.90667 0.19517 0.57404 0.0
C44 C 0.86534 0.19229 0.59289 0.0
C45 C 0.88094 0.20184 0.62673 0.0
C46 C 0.94571 0.20361 0.59753 0.0
N47 N 0.93172 0.20934 0.62947 0.0
C48 C 0.8931 0.28472 0.53437 0.0
C49 C 0.98369 0.35676 0.49721 0.0
C50 C 0.95526 0.37682 0.51559 0.0
C51 C 0.90844 0.34018 0.53351 0.0
C52 C 0.96692 0.30131 0.49867 0.0
N53 N 0.92426 0.26649 0.51885 0.0
H54 H 0.85646 0.25682 0.5476 0.0
H55 H 0.98996 0.28686 0.48453 0.0
H56 H 0.8266 0.18505 0.58286 0.0
H57 H 0.98434 0.20676 0.59214 0.0
O58 O 0.82886 0.14958 0.52127 0.0
O59 O 0.88265 0.11377 0.52685 0.0
O60 O 0.98856 0.21474 0.52489 0.0
C61 C 0.83356 0.10575 0.52289 0.0
H62 H 0.95269 0.16567 0.40189 0.0
H63 H 0.85735 0.20431 0.64761 0.0
H64 H 0.01935 0.38398 0.48249 0.0
H65 H 0.88468 0.35449 0.54717 0.0
Co66 Co 0.71231 0.90451 0.8614 0.0
C67 C 0.68561 0.8908 0.78551 0.0
C68 C 0.76833 0.91352 0.79797 0.0
C69 C 0.76154 0.90551 0.76357 0.0
N70 N 0.72098 0.90427 0.81211 0.0
N71 N 0.7097 0.89099 0.75576 0.0
H72 H 0.64338 0.87995 0.7874 0.0
H73 H 0.80521 0.92359 0.81189 0.0
C74 C 0.78198 0.01992 0.84004 0.0
O75 O 0.74915 0.01028 0.81389 0.0
N76 N 0.70619 0.90504 0.91061 0.0
C77 C 0.66537 0.86776 0.93003 0.0
C78 C 0.67423 0.8858 0.96338 0.0
C79 C 0.73917 0.94526 0.93235 0.0
N80 N 0.72041 0.93463 0.96459 0.0
C81 C 0.60488 0.89088 0.84543 0.0
C82 C 0.62784 0.99174 0.87057 0.0
C83 C 0.5768 0.95846 0.85574 0.0
C84 C 0.56486 0.90685 0.84357 0.0
C85 C 0.66589 0.97401 0.87231 0.0
N86 N 0.65581 0.92563 0.85801 0.0
H87 H 0.59488 0.85054 0.83691 0.0
H88 H 0.70337 0.99946 0.88588 0.0
H89 H 0.63064 0.8309 0.9205 0.0
H90 H 0.77517 0.98259 0.92484 0.0
O91 O 0.66907 0.82454 0.86018 0.0
O92 O 0.75882 0.87273 0.86614 0.0
O93 O 0.77165 0.98312 0.8624 0.0
C94 C 0.71561 0.82525 0.86276 0.0
H95 H 0.79198 0.90886 0.74556 0.0
H96 H 0.64774 0.86584 0.98485 0.0
H97 H 0.63785 0.03091 0.88146 0.0
H98 H 0.52498 0.87912 0.83306 0.0
Co99 Co 0.80673 0.70896 0.19831 0.0
C100 C 0.82644 0.69494 0.12558 0.0
C101 C 0.84673 0.77733 0.13744 0.0
C102 C 0.85826 0.77522 0.10371 0.0
N103 N 0.82633 0.72702 0.15103 0.0
N104 N 0.84542 0.72361 0.09638 0.0
H105 H 0.81353 0.65202 0.12837 0.0
H106 H 0.85374 0.81337 0.15127 0.0
C107 C 0.73874 0.76515 0.20582 0.0
O108 O 0.69655 0.72161 0.2185 0.0
N109 N 0.78912 0.69249 0.24692 0.0
C110 C 0.79506 0.65539 0.26576 0.0
C111 C 0.78107 0.65744 0.29915 0.0
C112 C 0.77322 0.71764 0.26987 0.0
N113 N 0.76723 0.69655 0.30141 0.0
C114 C 0.70927 0.60192 0.20064 0.0
C115 C 0.65013 0.62756 0.15495 0.0
C116 C 0.62299 0.57971 0.17415 0.0
C117 C 0.65335 0.56579 0.19625 0.0
C118 C 0.70584 0.66267 0.16033 0.0
N119 N 0.73401 0.65139 0.18457 0.0
H120 H 0.73196 0.59083 0.2179 0.0
H121 H 0.72532 0.70098 0.14669 0.0
H122 H 0.80876 0.62839 0.25609 0.0
H123 H 0.76685 0.75136 0.26463 0.0
O124 O 0.84861 0.67055 0.19894 0.0
O125 O 0.88089 0.75812 0.21052 0.0
O126 O 0.78225 0.76462 0.19813 0.0
C127 C 0.89057 0.71808 0.20645 0.0
H128 H 0.87564 0.80907 0.08596 0.0
H129 H 0.78105 0.63236 0.3201 0.0
H130 H 0.62789 0.6391 0.13733 0.0
H131 H 0.63361 0.52829 0.21087 0.0
Co132 Co 0.08436 0.79582 0.52738 0.0
C133 C 0.10627 0.80224 0.45182 0.0
C134 C 0.03398 0.80512 0.46357 0.0
C135 C 0.04223 0.81213 0.42922 0.0
N136 N 0.07296 0.79704 0.47808 0.0
N137 N 0.08895 0.81262 0.42189 0.0
H138 H 0.1445 0.80262 0.45471 0.0
H139 H 0.00436 0.81129 0.477 0.0
C140 C 0.9619 0.73476 0.52176 0.0
O141 O 0.96439 0.70227 0.49876 0.0
N142 N 0.09335 0.79588 0.5766 0.0
C143 C 0.12076 0.77578 0.59411 0.0
C144 C 0.10316 0.76731 0.62754 0.0
C145 C 0.06078 0.80092 0.59987 0.0
N146 N 0.06479 0.78226 0.63091 0.0
C147 C 0.09511 0.70389 0.50392 0.0
C148 C 0.01433 0.62742 0.54552 0.0
C149 C 0.03874 0.60995 0.52163 0.0
C150 C 0.08037 0.64872 0.50103 0.0
C151 C 0.03005 0.68256 0.54738 0.0
N152 N 0.06814 0.71989 0.52572 0.0
H153 H 0.12822 0.7335 0.48872 0.0
H154 H 0.01043 0.69503 0.56581 0.0
H155 H 0.1479 0.76357 0.58276 0.0
H156 H 0.03132 0.81365 0.5937 0.0
O157 O 0.16354 0.83446 0.52098 0.0
O158 O 0.11344 0.87408 0.52831 0.0
O159 O 0.0054 0.77207 0.53547 0.0
C160 C 0.16134 0.87946 0.52315 0.0
H161 H 0.01962 0.82334 0.41167 0.0
H162 H 0.11515 0.74852 0.64738 0.0
H163 H 0.98276 0.59851 0.56227 0.0
H164 H 0.10107 0.63642 0.48293 0.0
Co165 Co 0.28984 0.09638 0.86365 0.0
C166 C 0.31341 0.10949 0.78731 0.0
C167 C 0.23172 0.08842 0.80079 0.0
C168 C 0.23694 0.09591 0.76633 0.0
N169 N 0.27944 0.09701 0.81438 0.0
N170 N 0.28814 0.10944 0.75784 0.0
H171 H 0.35542 0.11926 0.78864 0.0
H172 H 0.19558 0.07896 0.81511 0.0
C173 C 0.22 0.98113 0.84215 0.0
O174 O 0.25195 0.99101 0.81574 0.0
N175 N 0.29757 0.09523 0.91287 0.0
C176 C 0.33899 0.13233 0.9322 0.0
C177 C 0.33176 0.11349 0.96538 0.0
C178 C 0.26582 0.05433 0.93455 0.0
N179 N 0.28595 0.06437 0.96664 0.0
C180 C 0.39686 0.11059 0.8465 0.0
C181 C 0.37538 0.00988 0.87138 0.0
C182 C 0.42588 0.04344 0.85631 0.0
C183 C 0.43707 0.09497 0.84423 0.0
C184 C 0.33714 0.02727 0.87354 0.0
N185 N 0.34647 0.07562 0.85944 0.0
H186 H 0.40625 0.15081 0.83799 0.0
H187 H 0.30016 0.00156 0.88729 0.0
H188 H 0.37312 0.16956 0.92267 0.0
H189 H 0.22978 0.01691 0.92706 0.0
O190 O 0.33268 0.17642 0.86255 0.0
O191 O 0.24324 0.12788 0.86917 0.0
O192 O 0.2309 0.01776 0.86464 0.0
C193 C 0.28611 0.17548 0.86546 0.0
H194 H 0.20575 0.09258 0.74869 0.0
H195 H 0.35911 0.13319 0.98667 0.0
H196 H 0.36595 0.97075 0.88216 0.0
H197 H 0.47654 0.12288 0.83348 0.0
Co198 Co 0.69765 0.79516 0.52133 0.0
C199 C 0.6821 0.81744 0.59315 0.0
C200 C 0.7637 0.83348 0.58347 0.0
C201 C 0.76104 0.84708 0.6167 0.0
N202 N 0.71419 0.81447 0.56883 0.0
N203 N 0.70996 0.837 0.62262 0.0
H204 H 0.63998 0.80681 0.58921 0.0
H205 H 0.7998 0.83878 0.57063 0.0
C206 C 0.75529 0.72894 0.5133 0.0
O207 O 0.71265 0.68773 0.49893 0.0
N208 N 0.68286 0.77805 0.4725 0.0
C209 C 0.64435 0.78116 0.45339 0.0
C210 C 0.64881 0.76931 0.41986 0.0
C211 C 0.71146 0.76646 0.44958 0.0
N212 N 0.69093 0.75988 0.41778 0.0
C213 C 0.5914 0.69651 0.51801 0.0
C214 C 0.61826 0.63794 0.56333 0.0
C215 C 0.57077 0.61026 0.54374 0.0
C216 C 0.55617 0.64029 0.52185 0.0
C217 C 0.6525 0.69391 0.55845 0.0
N218 N 0.64071 0.72185 0.53435 0.0
H219 H 0.57967 0.71896 0.50103 0.0
H220 H 0.69059 0.71387 0.5724 0.0
H221 H 0.61509 0.79197 0.46292 0.0
H222 H 0.74732 0.76382 0.45507 0.0
O223 O 0.65801 0.83585 0.52012 0.0
O224 O 0.74611 0.86962 0.50979 0.0
O225 O 0.75401 0.77166 0.52221 0.0
C226 C 0.70536 0.87832 0.5132 0.0
H227 H 0.79436 0.86459 0.63492 0.0
H228 H 0.62342 0.76794 0.39866 0.0
H229 H 0.63023 0.61596 0.58088 0.0
H230 H 0.51881 0.62014 0.50703 0.0
Co231 Co 0.90356 0.7055 0.85598 0.0
C232 C 0.88252 0.68878 0.93116 0.0
C233 C 0.90836 0.77073 0.91447 0.0
C234 C 0.8994 0.7679 0.94892 0.0
N235 N 0.89752 0.72124 0.90322 0.0
N236 N 0.88317 0.71659 0.95934 0.0
H237 H 0.87161 0.64619 0.93102 0.0
H238 H 0.92213 0.8066 0.89862 0.0
C239 C 0.02326 0.771 0.84242 0.0
O240 O 0.02115 0.73069 0.82451 0.0
N241 N 0.91128 0.69273 0.80736 0.0
C242 C 0.90711 0.64775 0.79223 0.0
C243 C 0.92749 0.66049 0.75968 0.0
C244 C 0.93207 0.73156 0.78251 0.0
N245 N 0.94419 0.71342 0.75367 0.0
C246 C 0.88683 0.59626 0.86628 0.0
C247 C 0.98909 0.62847 0.89333 0.0
C248 C 0.95621 0.57405 0.88351 0.0
C249 C 0.90335 0.55731 0.87143 0.0
C250 C 0.97086 0.66578 0.88775 0.0
N251 N 0.92268 0.65054 0.87103 0.0
H252 H 0.84663 0.58332 0.85597 0.0
H253 H 0.99636 0.70717 0.89636 0.0
H254 H 0.89205 0.6082 0.8035 0.0
H255 H 0.94016 0.77284 0.78577 0.0
O256 O 0.82399 0.6621 0.85333 0.0
O257 O 0.873 0.75065 0.84276 0.0
O258 O 0.9812 0.76545 0.8577 0.0
C259 C 0.8252 0.70807 0.8465 0.0
H260 H 0.90515 0.80117 0.96533 0.0
H261 H 0.9311 0.63314 0.74192 0.0
H262 H 0.02921 0.64237 0.90423 0.0
H263 H 0.87608 0.51505 0.86469 0.0
Co264 Co 0.20599 0.91501 0.19006 0.0
C265 C 0.18733 0.88467 0.26442 0.0
C266 C 0.23099 0.9713 0.25709 0.0
C267 C 0.22461 0.96097 0.29136 0.0
N268 N 0.2084 0.92358 0.23979 0.0
N269 N 0.19543 0.9066 0.29602 0.0
H270 H 0.16334 0.84133 0.25948 0.0
H271 H 0.24941 0.0116 0.24602 0.0
C272 C 0.26761 0.03606 0.16973 0.0
O273 O 0.30237 0.03158 0.14968 0.0
N274 N 0.20374 0.90637 0.14009 0.0
C275 C 0.19967 0.86305 0.12278 0.0
C276 C 0.20594 0.87465 0.08834 0.0
C277 C 0.20977 0.94252 0.11523 0.0
N278 N 0.21302 0.92504 0.08387 0.0
C279 C 0.29328 0.88959 0.18011 0.0
C280 C 0.37591 0.98879 0.20378 0.0
C281 C 0.3896 0.95242 0.1891 0.0
C282 C 0.34778 0.90149 0.17794 0.0
C283 C 0.32156 0.97541 0.20535 0.0
N284 N 0.28087 0.9277 0.19189 0.0
H285 H 0.26133 0.85 0.1721 0.0
H286 H 0.31331 0.00523 0.21637 0.0
H287 H 0.19412 0.8258 0.13421 0.0
H288 H 0.21284 0.9815 0.11916 0.0
O289 O 0.16201 0.83551 0.19558 0.0
O290 O 0.12932 0.89194 0.1897 0.0
O291 O 0.23097 0.9949 0.1857 0.0
C292 C 0.11944 0.84244 0.19459 0.0
H293 H 0.23628 0.99127 0.3113 0.0
H294 H 0.20759 0.84918 0.06833 0.0
H295 H 0.40727 0.02805 0.21327 0.0
H296 H 0.35722 0.87179 0.16725 0.0
Co297 Co 0.29598 0.19166 0.51947 0.0
C298 C 0.3119 0.17583 0.59352 0.0
C299 C 0.23171 0.16219 0.5827 0.0
C300 C 0.23418 0.15134 0.61656 0.0
N301 N 0.28101 0.17977 0.56826 0.0
N302 N 0.28447 0.15966 0.62324 0.0
H303 H 0.3521 0.18107 0.59014 0.0
H304 H 0.19521 0.15471 0.56935 0.0
C305 C 0.23197 0.24779 0.53378 0.0
O306 O 0.26345 0.27201 0.56028 0.0
N307 N 0.30901 0.20175 0.47089 0.0
C308 C 0.3581 0.2247 0.45564 0.0
C309 C 0.35249 0.23887 0.4228 0.0
C310 C 0.27391 0.2006 0.44684 0.0
N311 N 0.29969 0.22421 0.41744 0.0
C312 C 0.40016 0.27899 0.54617 0.0
C313 C 0.39089 0.36228 0.51498 0.0
C314 C 0.43476 0.37574 0.53688 0.0
C315 C 0.44022 0.3336 0.55211 0.0
C316 C 0.35238 0.30776 0.50971 0.0
N317 N 0.3553 0.26671 0.52658 0.0
H318 H 0.40591 0.24696 0.55675 0.0
H319 H 0.3198 0.29873 0.49194 0.0
H320 H 0.39599 0.23457 0.46838 0.0
H321 H 0.23127 0.18683 0.45152 0.0
O322 O 0.33411 0.14969 0.52195 0.0
O323 O 0.24556 0.11575 0.51228 0.0
O324 O 0.24171 0.21759 0.51442 0.0
C325 C 0.28609 0.10695 0.51672 0.0
H326 H 0.20069 0.13515 0.63445 0.0
H327 H 0.38516 0.26098 0.40481 0.0
H328 H 0.3865 0.39381 0.50189 0.0
H329 H 0.47506 0.34283 0.5682 0.0
Co330 Co 0.09812 0.29622 0.8544 0.0
C331 C 0.11948 0.31302 0.92939 0.0
C332 C 0.09374 0.2309 0.9133 0.0
C333 C 0.10375 0.23451 0.94775 0.0
N334 N 0.10394 0.28007 0.90171 0.0
N335 N 0.11998 0.28599 0.95777 0.0
H336 H 0.13029 0.35557 0.92891 0.0
H337 H 0.08005 0.19486 0.89768 0.0
C338 C 0.97832 0.23035 0.8394 0.0
O339 O 0.9803 0.27014 0.82083 0.0
N340 N 0.09074 0.31019 0.80578 0.0
C341 C 0.09042 0.35399 0.79187 0.0
C342 C 0.06962 0.34173 0.75938 0.0
C343 C 0.07218 0.27265 0.78012 0.0
N344 N 0.05728 0.29034 0.75189 0.0
C345 C 0.11603 0.40556 0.86604 0.0
C346 C 0.01309 0.37348 0.89116 0.0
C347 C 0.04708 0.42832 0.88271 0.0
C348 C 0.1002 0.44489 0.87159 0.0
C349 C 0.03062 0.33581 0.88523 0.0
N350 N 0.0793 0.3512 0.86949 0.0
H351 H 0.1563 0.41837 0.8562 0.0
H352 H 0.0043 0.29414 0.89298 0.0
H353 H 0.10153 0.39199 0.80415 0.0
H354 H 0.06706 0.23223 0.78258 0.0
O355 O 0.17782 0.33917 0.85254 0.0
O356 O 0.12846 0.25091 0.84142 0.0
O357 O 0.02034 0.23629 0.85532 0.0
C358 C 0.17638 0.29311 0.84582 0.0
H359 H 0.09894 0.20172 0.96441 0.0
H360 H 0.06222 0.36817 0.74277 0.0
H361 H 0.9727 0.35962 0.90132 0.0
H362 H 0.12821 0.48737 0.86583 0.0
Co363 Co 0.81007 0.095 0.18371 0.0
C364 C 0.80503 0.12248 0.2571 0.0
C365 C 0.81607 0.05307 0.25175 0.0
C366 C 0.82041 0.06626 0.28562 0.0
N367 N 0.80534 0.08746 0.23349 0.0
N368 N 0.81431 0.11031 0.28896 0.0
H369 H 0.80306 0.15885 0.25116 0.0
H370 H 0.82514 0.02331 0.24127 0.0
C371 C 0.74839 0.97405 0.19459 0.0
O372 O 0.71611 0.9801 0.21599 0.0
N373 N 0.81602 0.1028 0.13439 0.0
C374 C 0.81499 0.1428 0.11602 0.0
C375 C 0.80729 0.12797 0.08209 0.0
C376 C 0.80935 0.06437 0.11127 0.0
N377 N 0.80289 0.0783 0.07935 0.0
C378 C 0.71535 0.10781 0.19807 0.0
C379 C 0.64402 0.01984 0.1584 0.0
C380 C 0.6231 0.04437 0.17967 0.0
C381 C 0.65928 0.09002 0.19893 0.0
C382 C 0.69978 0.03846 0.1586 0.0
N383 N 0.73453 0.07971 0.17988 0.0
H384 H 0.74289 0.1437 0.21219 0.0
H385 H 0.71428 0.01736 0.14267 0.0
H386 H 0.81514 0.17812 0.12679 0.0
H387 H 0.80436 0.02485 0.11773 0.0
O388 O 0.85147 0.17463 0.18919 0.0
O389 O 0.88714 0.12034 0.18712 0.0
O390 O 0.78536 0.01512 0.17876 0.0
C391 C 0.89501 0.16944 0.19055 0.0
H392 H 0.83111 0.04735 0.30609 0.0
H393 H 0.80067 0.14968 0.06147 0.0
H394 H 0.6172 0.98527 0.1426 0.0
H395 H 0.64425 0.11106 0.21477 0.0
C396 C 0.28678 0.22285 0.35497 0.0
C397 C 0.27813 0.23801 0.38775 0.0
C398 C 0.23162 0.28277 0.36103 0.0
C399 C 0.24872 0.27577 0.32851 0.0
N400 N 0.30214 0.24733 0.29533 0.0
N401 N 0.25079 0.29206 0.42144 0.0
C402 C 0.27857 0.24759 0.32556 0.0
C403 C 0.25236 0.27023 0.39076 0.0
N404 N 0.30213 0.18415 0.35198 0.0
N405 N 0.19491 0.30078 0.36343 0.0
H406 H 0.26859 0.28714 0.44344 0.0
H407 H 0.23703 0.31997 0.42424 0.0
H408 H 0.17795 0.30877 0.34196 0.0
H409 H 0.17714 0.30206 0.38637 0.0
H410 H 0.30447 0.16795 0.32862 0.0
H411 H 0.30667 0.16414 0.37311 0.0
H412 H 0.32843 0.23157 0.29273 0.0
H413 H 0.30035 0.26803 0.27378 0.0
C414 C 0.94986 0.19229 0.68905 0.0
C415 C 0.96614 0.22585 0.65967 0.0
C416 C 0.05093 0.28986 0.6891 0.0
C417 C 0.03024 0.26223 0.72043 0.0
N418 N 0.95492 0.18824 0.75032 0.0
N419 N 0.0277 0.31286 0.63446 0.0
C420 C 0.97855 0.21322 0.72045 0.0
C421 C 0.01585 0.27616 0.66025 0.0
N422 N 0.90734 0.14011 0.68681 0.0
N423 N 0.10433 0.3296 0.6871 0.0
H424 H 1.00025 0.30648 0.61475 0.0
H425 H 0.06141 0.3521 0.63494 0.0
H426 H 0.13117 0.33903 0.70768 0.0
H427 H 0.12288 0.34843 0.66424 0.0
H428 H 0.89661 0.11176 0.7065 0.0
H429 H 0.88636 0.1237 0.66402 0.0
H430 H 0.91475 0.15651 0.75208 0.0
H431 H 0.97395 0.20177 0.77369 0.0
C432 C 0.79349 0.98534 1.00732 0.0
C433 C 0.74164 0.97122 0.99341 0.0
C434 C 0.7283 0.0234 0.03846 0.0
C435 C 0.78228 0.04207 0.05033 0.0
N436 N 0.86907 0.04687 0.04376 0.0
N437 N 0.66495 0.98641 0.99105 0.0
C438 C 0.81571 0.02465 0.03408 0.0
C439 C 0.71047 0.99297 1.00769 0.0
N440 N 0.82046 0.95969 0.99566 0.0
N441 N 0.69328 0.03274 0.05739 0.0
H442 H 0.65203 0.96618 0.96774 0.0
H443 H 0.64342 0.00577 0.99854 0.0
H444 H 0.7043 0.05304 0.08072 0.0
H445 H 0.65189 0.01551 0.05169 0.0
H446 H 0.85608 0.96424 1.00678 0.0
H447 H 0.80459 0.93021 0.97649 0.0
H448 H 0.89727 0.04 0.03088 0.0
H449 H 0.8861 0.07579 0.0632 0.0
C450 C 0.78198 0.76371 0.34654 0.0
C451 C 0.74831 0.71223 0.33111 0.0
C452 C 0.67808 0.69113 0.37429 0.0
C453 C 0.7098 0.74427 0.38802 0.0
N454 N 0.78813 0.83405 0.38497 0.0
N455 N 0.66102 0.63072 0.3262 0.0
C456 C 0.76084 0.78143 0.3735 0.0
C457 C 0.69538 0.6769 0.3439 0.0
N458 N 0.83465 0.79476 0.33591 0.0
N459 N 0.63249 0.65371 0.39111 0.0
H460 H 0.67244 0.61972 0.30363 0.0
H461 H 0.62001 0.60594 0.33221 0.0
H462 H 0.61933 0.66283 0.41368 0.0
H463 H 0.61048 0.61263 0.38438 0.0
H464 H 0.86318 0.83049 0.34801 0.0
H465 H 0.85106 0.78227 0.31645 0.0
H466 H 0.82316 0.8648 0.37355 0.0
H467 H 0.77305 0.84797 0.40442 0.0
C468 C 0.97454 0.73402 0.66044 0.0
C469 C 0.03115 0.77339 0.66073 0.0
C470 C 0.0274 0.78333 0.72274 0.0
C471 C 0.97129 0.74238 0.72265 0.0
N472 N 0.88839 0.69178 0.69096 0.0
N473 N 0.10731 0.84574 0.68992 0.0
C474 C 0.94399 0.72223 0.69117 0.0
C475 C 0.05614 0.8013 0.6913 0.0
N476 N 0.95055 0.7055 0.6314 0.0
N477 N 0.05397 0.80341 0.75288 0.0
H478 H 0.12856 0.85974 0.66705 0.0
H479 H 0.12656 0.8715 0.71053 0.0
H480 H 0.03356 0.79488 0.77584 0.0
H481 H 0.09617 0.82727 0.75522 0.0
H482 H 0.91137 0.67184 0.63055 0.0
H483 H 0.97097 0.71319 0.6084 0.0
H484 H 0.86489 0.67953 0.66878 0.0
H485 H 0.86561 0.68362 0.71327 0.0
C486 C 0.29835 0.0056 1.00868 0.0
C487 C 0.26626 0.0273 0.99535 0.0
C488 C 0.19542 0.97479 0.03776 0.0
C489 C 0.23016 0.95793 0.05324 0.0
N490 N 0.31919 0.96637 0.05761 0.0
N491 N 0.18742 0.03846 0.99946 0.0
C492 C 0.28289 0.97571 0.03978 0.0
C493 C 0.21542 0.01328 1.01044 0.0
N494 N 0.34262 0.012 0.99093 0.0
N495 N 0.14297 0.95299 0.04888 0.0
H496 H 0.20161 0.0673 0.97989 0.0
H497 H 0.15265 0.03414 1.01141 0.0
H498 H 0.1276 0.92462 0.06871 0.0
H499 H 0.1137 0.95947 0.03681 0.0
H500 H 0.36472 0.99277 0.99768 0.0
H501 H 0.35383 0.03207 0.96749 0.0
H502 H 0.36003 0.98313 0.05083 0.0
H503 H 0.30992 0.94632 0.08106 0.0
C504 C 0.08818 0.28058 1.01646 0.0
C505 C 0.13117 0.3045 0.99262 0.0
C506 C 0.19868 0.33128 0.03853 0.0
C507 C 0.15573 0.3024 0.06191 0.0
N508 N 0.06079 0.2602 0.07583 0.0
N509 N 0.22523 0.36839 0.98146 0.0
C510 C 0.10067 0.28113 0.05167 0.0
C511 C 0.18586 0.33552 1.00394 0.0
N512 N 0.03563 0.25532 1.00474 0.0
N513 N 0.2514 0.35094 0.04895 0.0
H514 H 0.21598 0.37318 0.95642 0.0
H515 H 0.26556 0.39503 0.98836 0.0
H516 H 0.26185 0.34864 0.07419 0.0
H517 H 0.28449 0.36683 0.03243 0.0
H518 H 0.00154 0.23241 1.01982 0.0
H519 H 0.0264 0.25724 0.97912 0.0
H520 H 0.01973 0.2464 0.07096 0.0
H521 H 0.06972 0.25956 0.10161 0.0
C522 C 0.78777 0.1099 0.34818 0.0
C523 C 0.82206 0.13917 0.32068 0.0
C524 C 0.88616 0.20768 0.36083 0.0
C525 C 0.85832 0.17185 0.38808 0.0
N526 N 0.77996 0.09019 0.40869 0.0
N527 N 0.90206 0.2193 0.29999 0.0
C528 C 0.80746 0.12398 0.38219 0.0
C529 C 0.8701 0.18992 0.32666 0.0
N530 N 0.73673 0.06774 0.34123 0.0
N531 N 0.92857 0.25843 0.36811 0.0
H532 H 0.89002 0.20961 0.27472 0.0
H533 H 0.94121 0.25251 0.30279 0.0
H534 H 0.94023 0.27156 0.3932 0.0
H535 H 0.94868 0.28878 0.34992 0.0
H536 H 0.70746 0.04661 0.35977 0.0
H537 H 0.7223 0.05741 0.31623 0.0
H538 H 0.74663 0.05117 0.40564 0.0
H539 H 0.79156 0.10046 0.43398 0.0
C540 C 0.71069 0.91947 0.69688 0.0
C541 C 0.68774 0.87777 0.72171 0.0
C542 C 0.66263 0.80793 0.67774 0.0
C543 C 0.69212 0.84983 0.65374 0.0
N544 N 0.7356 0.94411 0.63749 0.0
N545 N 0.62656 0.78387 0.73523 0.0
C546 C 0.71246 0.90535 0.66234 0.0
C547 C 0.65797 0.82234 0.71178 0.0
N548 N 0.73359 0.97249 0.70733 0.0
N549 N 0.64287 0.75476 0.66842 0.0
H550 H 0.6219 0.79431 0.75992 0.0
H551 H 0.60127 0.74276 0.72958 0.0
H552 H 0.64553 0.74347 0.64352 0.0
H553 H 0.62598 0.72207 0.68534 0.0
H554 H 0.75451 0.00626 0.69158 0.0
H555 H 0.73082 0.9824 0.73261 0.0
H556 H 0.75038 0.98561 0.64114 0.0
H557 H 0.7383 0.93398 0.6123 0.0
C558 C 0.81937 0.67097 1.00662 0.0
C559 C 0.87351 0.69924 0.99442 0.0
C560 C 0.90787 0.72419 0.05286 0.0
C561 C 0.85381 0.70553 0.0639 0.0
N562 N 0.75743 0.65978 0.05265 0.0
N563 N 0.96972 0.74545 1.00495 0.0
C564 C 0.80914 0.67718 0.04133 0.0
C565 C 0.91798 0.7226 1.01753 0.0
N566 N 0.7781 0.63903 0.98474 0.0
N567 N 0.94916 0.7447 0.07636 0.0
H568 H 0.97708 0.74212 0.97925 0.0
H569 H 0.00494 0.76779 1.01941 0.0
H570 H 0.94197 0.7468 0.10222 0.0
H571 H 0.98958 0.75671 0.0709 0.0
H572 H 0.73774 0.61438 0.99215 0.0
H573 H 0.7856 0.63309 0.95961 0.0
H574 H 0.72327 0.64412 0.03681 0.0
H575 H 0.749 0.66361 0.07802 0.0
C576 C 0.14109 0.80956 0.37142 0.0
C577 C 0.12069 0.83716 0.39155 0.0
C578 C 0.1402 0.9024 0.34562 0.0
C579 C 0.16761 0.88015 0.3272 0.0
N580 N 0.20266 0.81766 0.32589 0.0
N581 N 0.12065 0.92153 0.40181 0.0
C582 C 0.17052 0.83497 0.34099 0.0
C583 C 0.12657 0.88735 0.37991 0.0
N584 N 0.13093 0.75873 0.38068 0.0
N585 N 0.12462 0.93585 0.32999 0.0
H586 H 0.11518 0.91394 0.42795 0.0
H587 H 0.12832 0.96034 0.3946 0.0
H588 H 0.12867 0.9433 0.30382 0.0
H589 H 0.10125 0.94992 0.34225 0.0
H590 H 0.14052 0.73465 0.36528 0.0
H591 H 0.10888 0.73905 0.40247 0.0
H592 H 0.20992 0.78793 0.33654 0.0
H593 H 0.22601 0.83664 0.30438 0.0
C594 C 0.28181 0.07798 0.69946 0.0
C595 C 0.30797 0.1206 0.72335 0.0
C596 C 0.33667 0.18813 0.67725 0.0
C597 C 0.30121 0.14593 0.65479 0.0
N598 N 0.24246 0.05059 0.64294 0.0
N599 N 0.36901 0.215 0.73557 0.0
C600 C 0.27555 0.09057 0.66527 0.0
C601 C 0.33934 0.17537 0.7122 0.0
N602 N 0.26144 0.02545 0.71038 0.0
N603 N 0.36568 0.24036 0.66526 0.0
H604 H 0.37424 0.20559 0.76049 0.0
H605 H 0.38894 0.25667 0.73058 0.0
H606 H 0.36266 0.25063 0.64011 0.0
H607 H 0.3944 0.27328 0.67944 0.0
H608 H 0.24448 0.99164 0.69433 0.0
H609 H 0.26596 0.01654 0.73567 0.0
H610 H 0.2173 0.00998 0.64979 0.0
H611 H 0.2386 0.05872 0.61743 0.0
C612 C 0.53572 0.50511 0.14845 0.0
C613 C 0.56235 0.54677 0.17324 0.0
C614 C 0.47417 0.52245 0.19925 0.0
C615 C 0.44747 0.4812 0.17424 0.0
N616 N 0.45031 0.43863 0.12182 0.0
N617 N 0.55743 0.60212 0.21833 0.0
C618 C 0.47758 0.47438 0.14773 0.0
C619 C 0.53163 0.55762 0.19742 0.0
N620 N 0.56619 0.49387 0.12639 0.0
N621 N 0.44473 0.52652 0.22552 0.0
H622 H 0.5996 0.62781 0.21855 0.0
H623 H 0.53702 0.61604 0.23378 0.0
H624 H 0.4023 0.50326 0.22682 0.0
H625 H 0.46227 0.55069 0.24699 0.0
H626 H 0.54994 0.46037 0.1101 0.0
H627 H 0.60871 0.51644 0.12576 0.0
H628 H 0.46906 0.43504 0.1 0.0
H629 H 0.40784 0.41523 0.12086 0.0
C630 C 0.95869 0.46167 0.49246 0.0
C631 C 0.97631 0.43657 0.51698 0.0
C632 C 0.0406 0.52616 0.54114 0.0
C633 C 0.01979 0.55077 0.51845 0.0
N634 N 0.95537 0.54266 0.47501 0.0
N635 N 0.02937 0.44283 0.56693 0.0
C636 C 0.97791 0.51872 0.49469 0.0
C637 C 0.01606 0.46828 0.54197 0.0
N638 N 0.92451 0.43108 0.46663 0.0
N639 N 0.08459 0.55838 0.56138 0.0
H640 H 0.01322 0.40062 0.56793 0.0
H641 H 0.0534 0.46287 0.58807 0.0
H642 H 0.10307 0.60087 0.56168 0.0
H643 H 0.10552 0.54367 0.57591 0.0
H644 H 0.91503 0.4477 0.44572 0.0
H645 H 0.90827 0.38891 0.46485 0.0
H646 H 0.92052 0.52082 0.46011 0.0
H647 H 0.96948 0.58456 0.47516 0.0
C648 C 0.48737 0.01576 0.88649 0.0
C649 C 0.46706 0.02466 0.85533 0.0
C650 C 0.52047 0.99192 0.8238 0.0
C651 C 0.53588 0.97762 0.85508 0.0
N652 N 0.52453 0.96573 0.91598 0.0
N653 N 0.45692 0.0125 0.79435 0.0
C654 C 0.51652 0.9866 0.88638 0.0
C655 C 0.48163 0.0104 0.82393 0.0
N656 N 0.4802 0.03665 0.91617 0.0
N657 N 0.54435 0.98981 0.79408 0.0
H658 H 0.4284 0.02579 0.79333 0.0
H659 H 0.46131 0.99687 0.7713 0.0
H660 H 0.57286 0.97656 0.79287 0.0
H661 H 0.53931 0.00544 0.7711 0.0
H662 H 0.49874 0.03618 0.93912 0.0
H663 H 0.46026 0.05941 0.91718 0.0
H664 H 0.50667 0.96624 0.93903 0.0
H665 H 0.54448 0.94295 0.91683 0.0
C666 C 0.51862 0.46179 0.519 0.0
C667 C 0.47511 0.43442 0.54235 0.0
C668 C 0.49485 0.52221 0.56734 0.0
C669 C 0.53876 0.54953 0.54424 0.0
N670 N 0.59884 0.54603 0.50207 0.0
N671 N 0.42684 0.43617 0.59226 0.0
C672 C 0.55266 0.51943 0.52134 0.0
C673 C 0.46494 0.46401 0.56772 0.0
N674 N 0.52591 0.43278 0.4937 0.0
N675 N 0.48084 0.55208 0.58815 0.0
H676 H 0.40399 0.39364 0.59294 0.0
H677 H 0.42063 0.45458 0.6134 0.0
H678 H 0.50286 0.59463 0.58916 0.0
H679 H 0.44576 0.53528 0.60296 0.0
H680 H 0.55207 0.45067 0.47318 0.0
H681 H 0.50344 0.39028 0.49216 0.0
H682 H 0.61485 0.52623 0.48784 0.0
H683 H 0.62361 0.58835 0.50204 0.0
C684 C 0.99349 0.52194 0.85222 0.0
C685 C 0.97883 0.53608 0.8836 0.0
C686 C 0.01544 0.48521 0.91469 0.0
C687 C 0.02531 0.46699 0.8832 0.0
N688 N 0.01434 0.45977 0.82202 0.0
N689 N 0.96873 0.52546 0.94452 0.0
C690 C 0.01176 0.48311 0.85195 0.0
C691 C 0.98789 0.51614 0.91484 0.0
N692 N 0.99187 0.5471 0.82271 0.0
N693 N 0.03375 0.47415 0.94436 0.0
H694 H 0.94843 0.54789 0.9455 0.0
H695 H 0.96889 0.50738 0.96767 0.0
H696 H 0.05403 0.45167 0.9451 0.0
H697 H 0.03295 0.4909 0.96781 0.0
H698 H 0.00798 0.54315 0.79977 0.0
H699 H 0.97887 0.57586 0.82166 0.0
H700 H 0.99898 0.46514 0.799 0.0
H701 H 0.02741 0.43112 0.82055 0.0
C702 C 0.53472 0.03285 0.1569 0.0
C703 C 0.56305 0.0204 0.18217 0.0
C704 C 0.47672 0.95939 0.21086 0.0
C705 C 0.44824 0.97003 0.18476 0.0
N706 N 0.44791 0.00911 0.13012 0.0
N707 N 0.56155 0.96547 0.22989 0.0
C708 C 0.47667 0.00439 0.15685 0.0
C709 C 0.53417 0.98176 0.20822 0.0
N710 N 0.56347 0.07302 0.13357 0.0
N711 N 0.44902 0.92938 0.23872 0.0
H712 H 0.60379 0.98195 0.22936 0.0
H713 H 0.54222 0.93299 0.24684 0.0
H714 H 0.40667 0.91055 0.24083 0.0
H715 H 0.46805 0.92569 0.26057 0.0
H716 H 0.54566 0.08827 0.11671 0.0
H717 H 0.60601 0.09427 0.1327 0.0
H718 H 0.46569 0.02911 0.10744 0.0
H719 H 0.40536 0.98903 0.12941 0.0
C720 C 0.03821 0.2902 0.17674 0.0
C721 C 0.06548 0.28273 0.20501 0.0
C722 C 0.97909 0.21187 0.22786 0.0
C723 C 0.95116 0.21536 0.19841 0.0
N724 N 0.95167 0.26665 0.14899 0.0
N725 N 0.06043 0.25515 0.26322 0.0
C726 C 0.97986 0.25812 0.17443 0.0
C727 C 0.03502 0.2501 0.2326 0.0
N728 N 0.06818 0.32585 0.15156 0.0
N729 N 0.95327 0.17009 0.2505 0.0
H730 H 0.10168 0.2835 0.26693 0.0
H731 H 0.03965 0.23593 0.28545 0.0
H732 H 0.91196 0.14242 0.24895 0.0
H733 H 0.97337 0.16137 0.26977 0.0
H734 H 0.052 0.33008 0.12861 0.0
H735 H 0.11023 0.35128 0.15355 0.0
H736 H 0.96911 0.29906 0.1319 0.0
H737 H 0.90947 0.24319 0.14641 0.0
C738 C 0.74958 0.96493 0.48216 0.0
C739 C 0.716 0.93536 0.50956 0.0
C740 C 0.7438 0.02201 0.53952 0.0
C741 C 0.78736 0.04922 0.51593 0.0
N742 N 0.83274 0.04358 0.46502 0.0
N743 N 0.67212 0.93496 0.5619 0.0
C744 C 0.78994 0.02007 0.48699 0.0
C745 C 0.70948 0.9638 0.53729 0.0
N746 N 0.74363 0.93924 0.45167 0.0
N747 N 0.7366 0.05143 0.56449 0.0
H748 H 0.64494 0.89326 0.55967 0.0
H749 H 0.66778 0.95174 0.58442 0.0
H750 H 0.76171 0.09346 0.56696 0.0
H751 H 0.70406 0.03528 0.58139 0.0
H752 H 0.76365 0.95964 0.42952 0.0
H753 H 0.71385 0.89849 0.44798 0.0
H754 H 0.84008 0.02202 0.44623 0.0
H755 H 0.86296 0.0839 0.46691 0.0
C756 C 0.72971 0.76211 0.82486 0.0
C757 C 0.72204 0.77624 0.85823 0.0
C758 C 0.75728 0.71887 0.88162 0.0
C759 C 0.77683 0.71604 0.84885 0.0
N760 N 0.7791 0.73179 0.78853 0.0
N761 N 0.72617 0.76657 0.91885 0.0
C762 C 0.76142 0.73596 0.82012 0.0
C763 C 0.73425 0.75331 0.88679 0.0
N764 N 0.70695 0.77419 0.79784 0.0
N765 N 0.76128 0.68911 0.90779 0.0
H766 H 0.70685 0.78939 0.92319 0.0
H767 H 0.74059 0.75711 0.94087 0.0
H768 H 0.7762 0.66232 0.90427 0.0
H769 H 0.74434 0.68633 0.93172 0.0
H770 H 0.70794 0.76229 0.77288 0.0
H771 H 0.68203 0.79131 0.8013 0.0
H772 H 0.77506 0.7511 0.76694 0.0
H773 H 0.79983 0.71027 0.78435 0.0
C774 C 0.97898 0.76527 0.23619 0.0
C775 C 0.94814 0.72984 0.20953 0.0
C776 C 0.03383 0.75305 0.18004 0.0
C777 C 0.06244 0.7984 0.20238 0.0
N778 N 0.05858 0.85004 0.2508 0.0
N779 N 0.94591 0.68487 0.15693 0.0
C780 C 0.03427 0.80473 0.23054 0.0
C781 C 0.97551 0.72117 0.18202 0.0
N782 N 0.95445 0.76214 0.26667 0.0
N783 N 0.06197 0.74149 0.15643 0.0
H784 H 0.90395 0.65899 0.1585 0.0
H785 H 0.96254 0.68121 0.13416 0.0
H786 H 0.10409 0.76475 0.15376 0.0
H787 H 0.04441 0.70647 0.14141 0.0
H788 H 0.97583 0.78377 0.28827 0.0
H789 H 0.91372 0.7331 0.27111 0.0
H790 H 0.03757 0.85877 0.26923 0.0
H791 H 0.09801 0.88184 0.24726 0.0
C792 C 0.22532 0.9608 0.48796 0.0
C793 C 0.21047 0.935 0.52024 0.0
C794 C 0.27349 0.02288 0.54694 0.0
C795 C 0.27525 0.04973 0.51597 0.0
N796 N 0.25642 0.04445 0.45577 0.0
N797 N 0.22473 0.94032 0.58093 0.0
C798 C 0.2527 0.01864 0.48599 0.0
C799 C 0.23654 0.96563 0.54992 0.0
N800 N 0.21542 0.93002 0.45941 0.0
N801 N 0.30719 0.05201 0.57316 0.0
H802 H 0.19968 0.89819 0.58351 0.0
H803 H 0.23824 0.96115 0.60394 0.0
H804 H 0.33563 0.09335 0.57077 0.0
H805 H 0.31115 0.03418 0.59549 0.0
H806 H 0.22802 0.94632 0.43512 0.0
H807 H 0.20234 0.88869 0.46128 0.0
H808 H 0.23494 0.02402 0.4339 0.0
H809 H 0.27953 0.0868 0.45314 0.0
C810 C 0.24311 0.28138 0.88248 0.0
C811 C 0.22436 0.28445 0.84928 0.0
C812 C 0.27214 0.23849 0.82673 0.0
C813 C 0.27904 0.22415 0.86037 0.0
N814 N 0.27284 0.23314 0.9208 0.0
N815 N 0.22319 0.26839 0.78913 0.0
C816 C 0.26581 0.24673 0.88845 0.0
C817 C 0.24032 0.26442 0.8211 0.0
N818 N 0.23888 0.3113 0.90826 0.0
N819 N 0.29588 0.22698 0.80029 0.0
H820 H 0.20245 0.2898 0.78426 0.0
H821 H 0.22757 0.24889 0.76788 0.0
H822 H 0.32103 0.21022 0.80438 0.0
H823 H 0.29551 0.23917 0.77525 0.0
H824 H 0.25514 0.31382 0.93252 0.0
H825 H 0.22464 0.33855 0.90409 0.0
H826 H 0.25768 0.24241 0.94238 0.0
H827 H 0.29194 0.21021 0.92578 0.0
C828 C 0.2138 0.13348 0.18322 0.0
C829 C 0.26229 0.18499 0.1823 0.0
C830 C 0.31592 0.13824 0.17857 0.0
C831 C 0.26702 0.08815 0.17267 0.0
N832 N 0.16935 0.0421 0.16148 0.0
N833 N 0.36056 0.23708 0.17902 0.0
C834 C 0.21598 0.08685 0.1728 0.0
C835 C 0.31374 0.18759 0.1797 0.0
N836 N 0.16541 0.12786 0.19433 0.0
N837 N 0.36373 0.13858 0.18513 0.0
H838 H 0.36115 0.27383 0.18345 0.0
H839 H 0.39845 0.2417 0.17276 0.0
H840 H 0.36672 0.10324 0.1863 0.0
H841 H 0.39933 0.17332 0.1929 0.0
H842 H 0.13104 0.0898 0.19843 0.0
H843 H 0.16027 0.15942 0.20359 0.0
H844 H 0.13296 0.04244 0.15743 0.0
H845 H 0.1677 0.00676 0.15246 0.0
C846 C 0.1827 0.30117 0.52825 0.0
C847 C 0.18106 0.25002 0.52899 0.0
C848 C 0.08294 0.20343 0.53814 0.0
C849 C 0.08329 0.25391 0.53506 0.0
N850 N 0.13223 0.34857 0.51747 0.0
N851 N 0.12509 0.15154 0.52123 0.0
C852 C 0.13287 0.30238 0.52745 0.0
C853 C 0.12998 0.20093 0.52937 0.0
N854 N 0.23172 0.34853 0.52758 0.0
N855 N 0.039 0.15788 0.55115 0.0
H856 H 0.15696 0.14554 0.51386 0.0
H857 H 0.08728 0.11646 0.51784 0.0
H858 H 0.00331 0.15625 0.55927 0.0
H859 H 0.04039 0.12266 0.55756 0.0
H860 H 0.23557 0.38685 0.53138 0.0
H861 H 0.26881 0.34933 0.52459 0.0
H862 H 0.16661 0.38339 0.50859 0.0
H863 H 0.09642 0.35033 0.51441 0.0
C864 C 0.8837 0.0769 0.84199 0.0
C865 C 0.83194 0.07367 0.84315 0.0
C866 C 0.87681 0.17344 0.84749 0.0
C867 C 0.92774 0.17666 0.841 0.0
N868 N 0.97738 0.13036 0.82494 0.0
N869 N 0.77835 0.11904 0.8448 0.0
C870 C 0.93069 0.12816 0.83652 0.0
C871 C 0.8282 0.12204 0.84502 0.0
N872 N 0.88866 0.03136 0.84599 0.0
N873 N 0.87496 0.21872 0.85794 0.0
H874 H 0.74164 0.0823 0.84585 0.0
H875 H 0.77338 0.15303 0.84169 0.0
H876 H 0.90975 0.25659 0.86166 0.0
H877 H 0.83949 0.21758 0.86638 0.0
H878 H 0.92615 0.03316 0.84957 0.0
H879 H 0.85592 0.99223 0.84916 0.0
H880 H 0.97913 0.09598 0.81713 0.0
H881 H 0.01292 0.16643 0.81943 0.0
C882 C 0.69648 0.87216 0.18658 0.0
C883 C 0.74678 0.92077 0.19271 0.0
C884 C 0.78752 0.86672 0.21196 0.0
C885 C 0.73923 0.81786 0.2029 0.0
N886 N 0.65215 0.77556 0.17355 0.0
N887 N 0.84541 0.96151 0.19936 0.0
C888 C 0.69463 0.82077 0.18808 0.0
C889 C 0.79398 0.91738 0.20139 0.0
N890 N 0.65076 0.87502 0.17854 0.0
N891 N 0.82677 0.86568 0.23208 0.0
H892 H 0.8546 9e-05 0.19109 0.0
H893 H 0.88036 0.95806 0.20217 0.0
H894 H 0.82406 0.83022 0.24195 0.0
H895 H 0.8594 0.90091 0.24231 0.0
H896 H 0.61177 0.84097 0.17814 0.0
H897 H 0.65153 0.91177 0.17365 0.0
H898 H 0.62136 0.77677 0.15946 0.0
H899 H 0.65031 0.73778 0.17244 0.0
C900 C 0.80961 0.68307 0.53014 0.0
C901 C 0.80778 0.72921 0.51699 0.0
C902 C 0.90711 0.7829 0.52104 0.0
C903 C 0.90965 0.73443 0.52677 0.0
N904 N 0.86275 0.63757 0.53792 0.0
N905 N 0.85781 0.81998 0.49207 0.0
C906 C 0.8606 0.68411 0.53148 0.0
C907 C 0.85729 0.77822 0.51023 0.0
N908 N 0.76368 0.63969 0.54313 0.0
N909 N 0.95111 0.83369 0.52623 0.0
H910 H 0.8232 0.81892 0.48199 0.0
H911 H 0.89381 0.8535 0.48353 0.0
H912 H 0.98828 0.84127 0.53632 0.0
H913 H 0.94818 0.8691 0.52495 0.0
H914 H 0.76393 0.6074 0.55593 0.0
H915 H 0.72619 0.63839 0.54437 0.0
H916 H 0.82852 0.59871 0.5372 0.0
H917 H 0.89924 0.63779 0.54286 0.0
C918 C 0.17368 0.87901 0.84713 0.0
C919 C 0.17012 0.92748 0.84535 0.0
C920 C 0.07117 0.87338 0.83952 0.0
C921 C 0.07396 0.82469 0.84396 0.0
N922 N 0.12708 0.78259 0.86079 0.0
N923 N 0.11383 0.97015 0.84894 0.0
C924 C 0.12504 0.82777 0.85012 0.0
C925 C 0.11847 0.9245 0.84471 0.0
N926 N 0.2234 0.88175 0.84639 0.0
N927 N 0.02435 0.87161 0.82827 0.0
H928 H 0.14673 0.00928 0.85181 0.0
H929 H 0.07654 0.96846 0.853 0.0
H930 H 0.9882 0.83585 0.8234 0.0
H931 H 0.02284 0.90613 0.82028 0.0
H932 H 0.22801 0.84758 0.84325 0.0
H933 H 0.26024 0.91842 0.84699 0.0
H934 H 0.16285 0.78374 0.86889 0.0
H935 H 0.09233 0.74499 0.86517 0.0
loop_
_geom_bond_atom_site_label_1
_geom_bond_atom_site_label_2
_geom_bond_distance
_geom_bond_site_symmetry_2
_ccdc_geom_bond_type
Co0 N4 2.148 . S
Co0 N10 2.128 . S
Co0 N20 2.194 . S
Co0 O25 2.351 . S
Co0 O26 2.155 . S
Co0 O27 2.096 . S
C1 N4 1.301 . S
C1 N5 1.328 . S
C1 H6 0.930 . S
C2 C3 1.333 . S
C2 N4 1.317 . S
C2 H7 0.930 . S
C3 C2 1.333 . S
C3 N5 1.350 . S
C3 H29 0.931 . S
N4 Co0 2.148 . S
N4 C1 1.301 . S
N4 C2 1.317 . S
N5 C1 1.328 . S
N5 C3 1.350 . S
H6 C1 0.930 . S
H7 C2 0.930 . S
C8 O9 1.224 . S
C8 O27 1.247 . S
O9 C8 1.224 . S
N10 Co0 2.128 . S
N10 C11 1.355 . S
N10 C13 1.311 . S
C11 N10 1.355 . S
C11 C12 1.363 . S
C11 H23 0.929 . S
C12 C11 1.363 . S
C12 N14 1.375 . S
C12 H30 0.931 . S
C13 N10 1.311 . S
C13 N14 1.347 . S
C13 H24 0.929 . S
N14 C12 1.375 . S
N14 C13 1.347 . S
C15 C18 1.365 . S
C15 N20 1.328 . S
C15 H21 0.929 . S
C16 C17 1.362 . S
C16 C19 1.378 . S
C16 H31 0.929 . S
C17 C16 1.362 . S
C17 C18 1.366 . S
C18 C15 1.365 . S
C18 C17 1.366 . S
C18 H32 0.930 . S
C19 C16 1.378 . S
C19 N20 1.315 . S
C19 H22 0.930 . S
N20 Co0 2.194 . S
N20 C15 1.328 . S
N20 C19 1.315 . S
H21 C15 0.929 . S
H22 C19 0.930 . S
H23 C11 0.929 . S
H24 C13 0.929 . S
O25 Co0 2.351 . S
O25 C28 1.244 . S
O26 Co0 2.155 . S
O26 C28 1.240 . S
O27 Co0 2.096 . S
O27 C8 1.247 . S
C28 O25 1.244 . S
C28 O26 1.240 . S
H29 C3 0.931 . S
H30 C12 0.931 . S
H31 C16 0.929 . S
H32 C18 0.930 . S
Co33 N37 2.148 . S
Co33 N43 2.128 . S
Co33 N53 2.194 . S
Co33 O58 2.351 . S
Co33 O59 2.155 . S
Co33 O60 2.096 . S
C34 N37 1.301 . S
C34 N38 1.328 . S
C34 H39 0.930 . S
C35 C36 1.333 . S
C35 N37 1.317 . S
C35 H40 0.930 . S
C36 C35 1.333 . S
C36 N38 1.350 . S
C36 H62 0.931 . S
N37 Co33 2.148 . S
N37 C34 1.301 . S
N37 C35 1.317 . S
N38 C34 1.328 . S
N38 C36 1.350 . S
H39 C34 0.930 . S
H40 C35 0.930 . S
C41 O42 1.224 . S
C41 O60 1.247 1_455 S
O42 C41 1.224 . S
N43 Co33 2.128 . S
N43 C44 1.355 . S
N43 C46 1.311 . S
C44 N43 1.355 . S
C44 C45 1.363 . S
C44 H56 0.929 . S
C45 C44 1.363 . S
C45 N47 1.375 . S
C45 H63 0.931 . S
C46 N43 1.311 . S
C46 N47 1.347 . S
C46 H57 0.929 . S
N47 C45 1.375 . S
N47 C46 1.347 . S
C48 C51 1.365 . S
C48 N53 1.328 . S
C48 H54 0.929 . S
C49 C50 1.362 . S
C49 C52 1.378 . S
C49 H64 0.929 . S
C50 C49 1.362 . S
C50 C51 1.366 . S
C51 C48 1.365 . S
C51 C50 1.366 . S
C51 H65 0.930 . S
C52 C49 1.378 . S
C52 N53 1.315 . S
C52 H55 0.930 . S
N53 Co33 2.194 . S
N53 C48 1.328 . S
N53 C52 1.315 . S
H54 C48 0.929 . S
H55 C52 0.930 . S
H56 C44 0.929 . S
H57 C46 0.929 . S
O58 Co33 2.351 . S
O58 C61 1.244 . S
O59 Co33 2.155 . S
O59 C61 1.240 . S
O60 Co33 2.096 . S
O60 C41 1.247 1_655 S
C61 O58 1.244 . S
C61 O59 1.240 . S
H62 C36 0.931 . S
H63 C45 0.931 . S
H64 C49 0.929 . S
H65 C51 0.930 . S
Co66 N70 2.148 . S
Co66 N76 2.128 . S
Co66 N86 2.194 . S
Co66 O91 2.351 . S
Co66 O92 2.155 . S
Co66 O93 2.096 . S
C67 N70 1.301 . S
C67 N71 1.328 . S
C67 H72 0.930 . S
C68 C69 1.333 . S
C68 N70 1.317 . S
C68 H73 0.930 . S
C69 C68 1.333 . S
C69 N71 1.350 . S
C69 H95 0.931 . S
N70 Co66 2.148 . S
N70 C67 1.301 . S
N70 C68 1.317 . S
N71 C67 1.328 . S
N71 C69 1.350 . S
H72 C67 0.930 . S
H73 C68 0.930 . S
C74 O75 1.224 . S
C74 O93 1.247 1_545 S
O75 C74 1.224 . S
N76 Co66 2.128 . S
N76 C77 1.355 . S
N76 C79 1.311 . S
C77 N76 1.355 . S
C77 C78 1.363 . S
C77 H89 0.929 . S
C78 C77 1.363 . S
C78 N80 1.375 . S
C78 H96 0.931 . S
C79 N76 1.311 . S
C79 N80 1.347 . S
C79 H90 0.929 . S
N80 C78 1.375 . S
N80 C79 1.347 . S
C81 C84 1.365 . S
C81 N86 1.328 . S
C81 H87 0.929 . S
C82 C83 1.362 . S
C82 C85 1.378 . S
C82 H97 0.929 . S
C83 C82 1.362 . S
C83 C84 1.366 . S
C84 C81 1.365 . S
C84 C83 1.366 . S
C84 H98 0.930 . S
C85 C82 1.378 . S
C85 N86 1.315 . S
C85 H88 0.930 . S
N86 Co66 2.194 . S
N86 C81 1.328 . S
N86 C85 1.315 . S
H87 C81 0.929 . S
H88 C85 0.930 . S
H89 C77 0.929 . S
H90 C79 0.929 . S
O91 Co66 2.351 . S
O91 C94 1.244 . S
O92 Co66 2.155 . S
O92 C94 1.240 . S
O93 Co66 2.096 . S
O93 C74 1.247 1_565 S
C94 O91 1.244 . S
C94 O92 1.240 . S
H95 C69 0.931 . S
H96 C78 0.931 . S
H97 C82 0.929 . S
H98 C84 0.930 . S
Co99 N103 2.148 . S
Co99 N109 2.128 . S
Co99 N119 2.194 . S
Co99 O124 2.351 . S
Co99 O125 2.155 . S
Co99 O126 2.096 . S
C100 N103 1.301 . S
C100 N104 1.328 . S
C100 H105 0.930 . S
C101 C102 1.333 . S
C101 N103 1.317 . S
C101 H106 0.930 . S
C102 C101 1.333 . S
C102 N104 1.350 . S
C102 H128 0.931 . S
N103 Co99 2.148 . S
N103 C100 1.301 . S
N103 C101 1.317 . S
N104 C100 1.328 . S
N104 C102 1.350 . S
H105 C100 0.930 . S
H106 C101 0.930 . S
C107 O108 1.224 . S
C107 O126 1.247 . S
O108 C107 1.224 . S
N109 Co99 2.128 . S
N109 C110 1.355 . S
N109 C112 1.311 . S
C110 N109 1.355 . S
C110 C111 1.363 . S
C110 H122 0.929 . S
C111 C110 1.363 . S
C111 N113 1.375 . S
C111 H129 0.931 . S
C112 N109 1.311 . S
C112 N113 1.347 . S
C112 H123 0.929 . S
N113 C111 1.375 . S
N113 C112 1.347 . S
C114 C117 1.365 . S
C114 N119 1.328 . S
C114 H120 0.929 . S
C115 C116 1.362 . S
C115 C118 1.378 . S
C115 H130 0.929 . S
C116 C115 1.362 . S
C116 C117 1.366 . S
C117 C114 1.365 . S
C117 C116 1.366 . S
C117 H131 0.930 . S
C118 C115 1.378 . S
C118 N119 1.315 . S
C118 H121 0.930 . S
N119 Co99 2.194 . S
N119 C114 1.328 . S
N119 C118 1.315 . S
H120 C114 0.929 . S
H121 C118 0.930 . S
H122 C110 0.929 . S
H123 C112 0.929 . S
O124 Co99 2.351 . S
O124 C127 1.244 . S
O125 Co99 2.155 . S
O125 C127 1.240 . S
O126 Co99 2.096 . S
O126 C107 1.247 . S
C127 O124 1.244 . S
C127 O125 1.240 . S
H128 C102 0.931 . S
H129 C111 0.931 . S
H130 C115 0.929 . S
H131 C117 0.930 . S
Co132 N136 2.148 . S
Co132 N142 2.128 . S
Co132 N152 2.194 . S
Co132 O157 2.351 . S
Co132 O158 2.155 . S
Co132 O159 2.096 . S
C133 N136 1.301 . S
C133 N137 1.328 . S
C133 H138 0.930 . S
C134 C135 1.333 . S
C134 N136 1.317 . S
C134 H139 0.930 . S
C135 C134 1.333 . S
C135 N137 1.350 . S
C135 H161 0.931 . S
N136 Co132 2.148 . S
N136 C133 1.301 . S
N136 C134 1.317 . S
N137 C133 1.328 . S
N137 C135 1.350 . S
H138 C133 0.930 . S
H139 C134 0.930 . S
C140 O141 1.224 . S
C140 O159 1.247 1_655 S
O141 C140 1.224 . S
N142 Co132 2.128 . S
N142 C143 1.355 . S
N142 C145 1.311 . S
C143 N142 1.355 . S
C143 C144 1.363 . S
C143 H155 0.929 . S
C144 C143 1.363 . S
C144 N146 1.375 . S
C144 H162 0.931 . S
C145 N142 1.311 . S
C145 N146 1.347 . S
C145 H156 0.929 . S
N146 C144 1.375 . S
N146 C145 1.347 . S
C147 C150 1.365 . S
C147 N152 1.328 . S
C147 H153 0.929 . S
C148 C149 1.362 . S
C148 C151 1.378 . S
C148 H163 0.929 . S
C149 C148 1.362 . S
C149 C150 1.366 . S
C150 C147 1.365 . S
C150 C149 1.366 . S
C150 H164 0.930 . S
C151 C148 1.378 . S
C151 N152 1.315 . S
C151 H154 0.930 . S
N152 Co132 2.194 . S
N152 C147 1.328 . S
N152 C151 1.315 . S
H153 C147 0.929 . S
H154 C151 0.930 . S
H155 C143 0.929 . S
H156 C145 0.929 . S
O157 Co132 2.351 . S
O157 C160 1.244 . S
O158 Co132 2.155 . S
O158 C160 1.240 . S
O159 Co132 2.096 . S
O159 C140 1.247 1_455 S
C160 O157 1.244 . S
C160 O158 1.240 . S
H161 C135 0.931 . S
H162 C144 0.931 . S
H163 C148 0.929 . S
H164 C150 0.930 . S
Co165 N169 2.148 . S
Co165 N175 2.128 . S
Co165 N185 2.194 . S
Co165 O190 2.351 . S
Co165 O191 2.155 . S
Co165 O192 2.096 . S
C166 N169 1.301 . S
C166 N170 1.328 . S
C166 H171 0.930 . S
C167 C168 1.333 . S
C167 N169 1.317 . S
C167 H172 0.930 . S
C168 C167 1.333 . S
C168 N170 1.350 . S
C168 H194 0.931 . S
N169 Co165 2.148 . S
N169 C166 1.301 . S
N169 C167 1.317 . S
N170 C166 1.328 . S
N170 C168 1.350 . S
H171 C166 0.930 . S
H172 C167 0.930 . S
C173 O174 1.224 . S
C173 O192 1.247 1_565 S
O174 C173 1.224 . S
N175 Co165 2.128 . S
N175 C176 1.355 . S
N175 C178 1.311 . S
C176 N175 1.355 . S
C176 C177 1.363 . S
C176 H188 0.929 . S
C177 C176 1.363 . S
C177 N179 1.375 . S
C177 H195 0.931 . S
C178 N175 1.311 . S
C178 N179 1.347 . S
C178 H189 0.929 . S
N179 C177 1.375 . S
N179 C178 1.347 . S
C180 C183 1.365 . S
C180 N185 1.328 . S
C180 H186 0.929 . S
C181 C182 1.362 . S
C181 C184 1.378 . S
C181 H196 0.929 . S
C182 C181 1.362 . S
C182 C183 1.366 . S
C183 C180 1.365 . S
C183 C182 1.366 . S
C183 H197 0.930 . S
C184 C181 1.378 . S
C184 N185 1.315 . S
C184 H187 0.930 . S
N185 Co165 2.194 . S
N185 C180 1.328 . S
N185 C184 1.315 . S
H186 C180 0.929 . S
H187 C184 0.930 . S
H188 C176 0.929 . S
H189 C178 0.929 . S
O190 Co165 2.351 . S
O190 C193 1.244 . S
O191 Co165 2.155 . S
O191 C193 1.240 . S
O192 Co165 2.096 . S
O192 C173 1.247 1_545 S
C193 O190 1.244 . S
C193 O191 1.240 . S
H194 C168 0.931 . S
H195 C177 0.931 . S
H196 C181 0.929 . S
H197 C183 0.930 . S
Co198 N202 2.148 . S
Co198 N208 2.128 . S
Co198 N218 2.194 . S
Co198 O223 2.351 . S
Co198 O224 2.155 . S
Co198 O225 2.096 . S
C199 N202 1.301 . S
C199 N203 1.328 . S
C199 H204 0.930 . S
C200 C201 1.333 . S
C200 N202 1.317 . S
C200 H205 0.930 . S
C201 C200 1.333 . S
C201 N203 1.350 . S
C201 H227 0.931 . S
N202 Co198 2.148 . S
N202 C199 1.301 . S
N202 C200 1.317 . S
N203 C199 1.328 . S
N203 C201 1.350 . S
H204 C199 0.930 . S
H205 C200 0.930 . S
C206 O207 1.224 . S
C206 O225 1.247 . S
O207 C206 1.224 . S
N208 Co198 2.128 . S
N208 C209 1.355 . S
N208 C211 1.311 . S
C209 N208 1.355 . S
C209 C210 1.363 . S
C209 H221 0.929 . S
C210 C209 1.363 . S
C210 N212 1.375 . S
C210 H228 0.931 . S
C211 N208 1.311 . S
C211 N212 1.347 . S
C211 H222 0.929 . S
N212 C210 1.375 . S
N212 C211 1.347 . S
C213 C216 1.365 . S
C213 N218 1.328 . S
C213 H219 0.929 . S
C214 C215 1.362 . S
C214 C217 1.378 . S
C214 H229 0.929 . S
C215 C214 1.362 . S
C215 C216 1.366 . S
C216 C213 1.365 . S
C216 C215 1.366 . S
C216 H230 0.930 . S
C217 C214 1.378 . S
C217 N218 1.315 . S
C217 H220 0.930 . S
N218 Co198 2.194 . S
N218 C213 1.328 . S
N218 C217 1.315 . S
H219 C213 0.929 . S
H220 C217 0.930 . S
H221 C209 0.929 . S
H222 C211 0.929 . S
O223 Co198 2.351 . S
O223 C226 1.244 . S
O224 Co198 2.155 . S
O224 C226 1.240 . S
O225 Co198 2.096 . S
O225 C206 1.247 . S
C226 O223 1.244 . S
C226 O224 1.240 . S
H227 C201 0.931 . S
H228 C210 0.931 . S
H229 C214 0.929 . S
H230 C216 0.930 . S
Co231 N235 2.148 . S
Co231 N241 2.128 . S
Co231 N251 2.194 . S
Co231 O256 2.351 . S
Co231 O257 2.155 . S
Co231 O258 2.096 . S
C232 N235 1.301 . S
C232 N236 1.328 . S
C232 H237 0.930 . S
C233 C234 1.333 . S
C233 N235 1.317 . S
C233 H238 0.930 . S
C234 C233 1.333 . S
C234 N236 1.350 . S
C234 H260 0.931 . S
N235 Co231 2.148 . S
N235 C232 1.301 . S
N235 C233 1.317 . S
N236 C232 1.328 . S
N236 C234 1.350 . S
H237 C232 0.930 . S
H238 C233 0.930 . S
C239 O240 1.224 . S
C239 O258 1.247 1_455 S
O240 C239 1.224 . S
N241 Co231 2.128 . S
N241 C242 1.355 . S
N241 C244 1.311 . S
C242 N241 1.355 . S
C242 C243 1.363 . S
C242 H254 0.929 . S
C243 C242 1.363 . S
C243 N245 1.375 . S
C243 H261 0.931 . S
C244 N241 1.311 . S
C244 N245 1.347 . S
C244 H255 0.929 . S
N245 C243 1.375 . S
N245 C244 1.347 . S
C246 C249 1.365 . S
C246 N251 1.328 . S
C246 H252 0.929 . S
C247 C248 1.362 . S
C247 C250 1.378 . S
C247 H262 0.929 . S
C248 C247 1.362 . S
C248 C249 1.366 . S
C249 C246 1.365 . S
C249 C248 1.366 . S
C249 H263 0.930 . S
C250 C247 1.378 . S
C250 N251 1.315 . S
C250 H253 0.930 . S
N251 Co231 2.194 . S
N251 C246 1.328 . S
N251 C250 1.315 . S
H252 C246 0.929 . S
H253 C250 0.930 . S
H254 C242 0.929 . S
H255 C244 0.929 . S
O256 Co231 2.351 . S
O256 C259 1.244 . S
O257 Co231 2.155 . S
O257 C259 1.240 . S
O258 Co231 2.096 . S
O258 C239 1.247 1_655 S
C259 O256 1.244 . S
C259 O257 1.240 . S
H260 C234 0.931 . S
H261 C243 0.931 . S
H262 C247 0.929 . S
H263 C249 0.930 . S
Co264 N268 2.148 . S
Co264 N274 2.128 . S
Co264 N284 2.194 . S
Co264 O289 2.351 . S
Co264 O290 2.155 . S
Co264 O291 2.096 . S
C265 N268 1.301 . S
C265 N269 1.328 . S
C265 H270 0.930 . S
C266 C267 1.333 . S
C266 N268 1.317 . S
C266 H271 0.930 . S
C267 C266 1.333 . S
C267 N269 1.350 . S
C267 H293 0.931 . S
N268 Co264 2.148 . S
N268 C265 1.301 . S
N268 C266 1.317 . S
N269 C265 1.328 . S
N269 C267 1.350 . S
H270 C265 0.930 . S
H271 C266 0.930 . S
C272 O273 1.224 . S
C272 O291 1.247 1_545 S
O273 C272 1.224 . S
N274 Co264 2.128 . S
N274 C275 1.355 . S
N274 C277 1.311 . S
C275 N274 1.355 . S
C275 C276 1.363 . S
C275 H287 0.929 . S
C276 C275 1.363 . S
C276 N278 1.375 . S
C276 H294 0.931 . S
C277 N274 1.311 . S
C277 N278 1.347 . S
C277 H288 0.929 . S
N278 C276 1.375 . S
N278 C277 1.347 . S
C279 C282 1.365 . S
C279 N284 1.328 . S
C279 H285 0.929 . S
C280 C281 1.362 . S
C280 C283 1.378 . S
C280 H295 0.929 . S
C281 C280 1.362 . S
C281 C282 1.366 . S
C282 C279 1.365 . S
C282 C281 1.366 . S
C282 H296 0.930 . S
C283 C280 1.378 . S
C283 N284 1.315 . S
C283 H286 0.930 . S
N284 Co264 2.194 . S
N284 C279 1.328 . S
N284 C283 1.315 . S
H285 C279 0.929 . S
H286 C283 0.930 . S
H287 C275 0.929 . S
H288 C277 0.929 . S
O289 Co264 2.351 . S
O289 C292 1.244 . S
O290 Co264 2.155 . S
O290 C292 1.240 . S
O291 Co264 2.096 . S
O291 C272 1.247 1_565 S
C292 O289 1.244 . S
C292 O290 1.240 . S
H293 C267 0.931 . S
H294 C276 0.931 . S
H295 C280 0.929 . S
H296 C282 0.930 . S
Co297 N301 2.148 . S
Co297 N307 2.128 . S
Co297 N317 2.194 . S
Co297 O322 2.351 . S
Co297 O323 2.155 . S
Co297 O324 2.096 . S
C298 N301 1.301 . S
C298 N302 1.328 . S
C298 H303 0.930 . S
C299 C300 1.333 . S
C299 N301 1.317 . S
C299 H304 0.930 . S
C300 C299 1.333 . S
C300 N302 1.350 . S
C300 H326 0.931 . S
N301 Co297 2.148 . S
N301 C298 1.301 . S
N301 C299 1.317 . S
N302 C298 1.328 . S
N302 C300 1.350 . S
H303 C298 0.930 . S
H304 C299 0.930 . S
C305 O306 1.224 . S
C305 O324 1.247 . S
O306 C305 1.224 . S
N307 Co297 2.128 . S
N307 C308 1.355 . S
N307 C310 1.311 . S
C308 N307 1.355 . S
C308 C309 1.363 . S
C308 H320 0.929 . S
C309 C308 1.363 . S
C309 N311 1.375 . S
C309 H327 0.931 . S
C310 N307 1.311 . S
C310 N311 1.347 . S
C310 H321 0.929 . S
N311 C309 1.375 . S
N311 C310 1.347 . S
C312 C315 1.365 . S
C312 N317 1.328 . S
C312 H318 0.929 . S
C313 C314 1.362 . S
C313 C316 1.378 . S
C313 H328 0.929 . S
C314 C313 1.362 . S
C314 C315 1.366 . S
C315 C312 1.365 . S
C315 C314 1.366 . S
C315 H329 0.930 . S
C316 C313 1.378 . S
C316 N317 1.315 . S
C316 H319 0.930 . S
N317 Co297 2.194 . S
N317 C312 1.328 . S
N317 C316 1.315 . S
H318 C312 0.929 . S
H319 C316 0.930 . S
H320 C308 0.929 . S
H321 C310 0.929 . S
O322 Co297 2.351 . S
O322 C325 1.244 . S
O323 Co297 2.155 . S
O323 C325 1.240 . S
O324 Co297 2.096 . S
O324 C305 1.247 . S
C325 O322 1.244 . S
C325 O323 1.240 . S
H326 C300 0.931 . S
H327 C309 0.931 . S
H328 C313 0.929 . S
H329 C315 0.930 . S
Co330 N334 2.148 . S
Co330 N340 2.128 . S
Co330 N350 2.194 . S
Co330 O355 2.351 . S
Co330 O356 2.155 . S
Co330 O357 2.096 . S
C331 N334 1.301 . S
C331 N335 1.328 . S
C331 H336 0.930 . S
C332 C333 1.333 . S
C332 N334 1.317 . S
C332 H337 0.930 . S
C333 C332 1.333 . S
C333 N335 1.350 . S
C333 H359 0.931 . S
N334 Co330 2.148 . S
N334 C331 1.301 . S
N334 C332 1.317 . S
N335 C331 1.328 . S
N335 C333 1.350 . S
H336 C331 0.930 . S
H337 C332 0.930 . S
C338 O339 1.224 . S
C338 O357 1.247 1_655 S
O339 C338 1.224 . S
N340 Co330 2.128 . S
N340 C341 1.355 . S
N340 C343 1.311 . S
C341 N340 1.355 . S
C341 C342 1.363 . S
C341 H353 0.929 . S
C342 C341 1.363 . S
C342 N344 1.375 . S
C342 H360 0.931 . S
C343 N340 1.311 . S
C343 N344 1.347 . S
C343 H354 0.929 . S
N344 C342 1.375 . S
N344 C343 1.347 . S
C345 C348 1.365 . S
C345 N350 1.328 . S
C345 H351 0.929 . S
C346 C347 1.362 . S
C346 C349 1.378 . S
C346 H361 0.929 . S
C347 C346 1.362 . S
C347 C348 1.366 . S
C348 C345 1.365 . S
C348 C347 1.366 . S
C348 H362 0.930 . S
C349 C346 1.378 . S
C349 N350 1.315 . S
C349 H352 0.930 . S
N350 Co330 2.194 . S
N350 C345 1.328 . S
N350 C349 1.315 . S
H351 C345 0.929 . S
H352 C349 0.930 . S
H353 C341 0.929 . S
H354 C343 0.929 . S
O355 Co330 2.351 . S
O355 C358 1.244 . S
O356 Co330 2.155 . S
O356 C358 1.240 . S
O357 Co330 2.096 . S
O357 C338 1.247 1_455 S
C358 O355 1.244 . S
C358 O356 1.240 . S
H359 C333 0.931 . S
H360 C342 0.931 . S
H361 C346 0.929 . S
H362 C348 0.930 . S
Co363 N367 2.148 . S
Co363 N373 2.128 . S
Co363 N383 2.194 . S
Co363 O388 2.351 . S
Co363 O389 2.155 . S
Co363 O390 2.096 . S
C364 N367 1.301 . S
C364 N368 1.328 . S
C364 H369 0.930 . S
C365 C366 1.333 . S
C365 N367 1.317 . S
C365 H370 0.930 . S
C366 C365 1.333 . S
C366 N368 1.350 . S
C366 H392 0.931 . S
N367 Co363 2.148 . S
N367 C364 1.301 . S
N367 C365 1.317 . S
N368 C364 1.328 . S
N368 C366 1.350 . S
H369 C364 0.930 . S
H370 C365 0.930 . S
C371 O372 1.224 . S
C371 O390 1.247 1_565 S
O372 C371 1.224 . S
N373 Co363 2.128 . S
N373 C374 1.355 . S
N373 C376 1.311 . S
C374 N373 1.355 . S
C374 C375 1.363 . S
C374 H386 0.929 . S
C375 C374 1.363 . S
C375 N377 1.375 . S
C375 H393 0.931 . S
C376 N373 1.311 . S
C376 N377 1.347 . S
C376 H387 0.929 . S
N377 C375 1.375 . S
N377 C376 1.347 . S
C378 C381 1.365 . S
C378 N383 1.328 . S
C378 H384 0.929 . S
C379 C380 1.362 . S
C379 C382 1.378 . S
C379 H394 0.929 . S
C380 C379 1.362 . S
C380 C381 1.366 . S
C381 C378 1.365 . S
C381 C380 1.366 . S
C381 H395 0.930 . S
C382 C379 1.378 . S
C382 N383 1.315 . S
C382 H385 0.930 . S
N383 Co363 2.194 . S
N383 C378 1.328 . S
N383 C382 1.315 . S
H384 C378 0.929 . S
H385 C382 0.930 . S
H386 C374 0.929 . S
H387 C376 0.929 . S
O388 Co363 2.351 . S
O388 C391 1.244 . S
O389 Co363 2.155 . S
O389 C391 1.240 . S
O390 Co363 2.096 . S
O390 C371 1.247 1_545 S
C391 O388 1.244 . S
C391 O389 1.240 . S
H392 C366 0.931 . S
H393 C375 0.931 . S
H394 C379 0.929 . S
H395 C381 0.930 . S
C396 C397 1.363 . S
C396 C402 1.379 . S
C396 N404 1.356 . S
C397 C396 1.363 . S
C397 C403 1.363 . S
C398 C399 1.363 . S
C398 C403 1.379 . S
C398 N405 1.356 . S
C399 C398 1.363 . S
C399 C402 1.363 . S
N400 C402 1.356 . S
N400 H412 0.984 . S
N400 H413 0.985 . S
N401 C403 1.356 . S
N401 H406 0.984 . S
N401 H407 0.985 . S
C402 C396 1.379 . S
C402 C399 1.363 . S
C402 N400 1.356 . S
C403 C397 1.363 . S
C403 C398 1.379 . S
C403 N401 1.356 . S
N404 C396 1.356 . S
N404 H410 0.984 . S
N404 H411 0.984 . S
N405 C398 1.356 . S
N405 H408 0.984 . S
N405 H409 0.985 . S
H406 N401 0.984 . S
H407 N401 0.985 . S
H408 N405 0.984 . S
H409 N405 0.985 . S
H410 N404 0.984 . S
H411 N404 0.984 . S
H412 N400 0.984 . S
H413 N400 0.985 . S
C414 C415 1.363 . S
C414 C420 1.379 . S
C414 N422 1.356 . S
C415 C414 1.363 . S
C415 C421 1.363 1_655 S
C416 C417 1.363 . S
C416 C421 1.379 . S
C416 N423 1.356 . S
C417 C416 1.363 . S
C417 C420 1.363 1_455 S
N418 C420 1.356 . S
N418 H430 0.984 . S
N418 H431 0.985 . S
N419 C421 1.356 . S
N419 H424 0.984 . S
N419 H425 0.985 . S
C420 C414 1.379 . S
C420 C417 1.363 1_655 S
C420 N418 1.356 . S
C421 C415 1.363 1_455 S
C421 C416 1.379 . S
C421 N419 1.356 . S
N422 C414 1.356 . S
N422 H428 0.984 . S
N422 H429 0.984 . S
N423 C416 1.356 . S
N423 H426 0.984 . S
N423 H427 0.985 . S
H424 N419 0.984 . S
H425 N419 0.985 . S
H426 N423 0.984 . S
H427 N423 0.985 . S
H428 N422 0.984 . S
H429 N422 0.984 . S
H430 N418 0.984 . S
H431 N418 0.985 . S
C432 C433 1.363 1_545 S
C432 C438 1.379 1_556 S
C432 N440 1.356 . S
C433 C432 1.363 1_565 S
C433 C439 1.363 . S
C434 C435 1.363 1_565 S
C434 C439 1.379 1_554 S
C434 N441 1.356 . S
C435 C434 1.363 1_545 S
C435 C438 1.363 . S
N436 C438 1.356 . S
N436 H448 0.984 . S
N436 H449 0.985 . S
N437 C439 1.356 . S
N437 H442 0.984 . S
N437 H443 0.985 . S
C438 C432 1.379 1_554 S
C438 C435 1.363 . S
C438 N436 1.356 . S
C439 C433 1.363 . S
C439 C434 1.379 1_556 S
C439 N437 1.356 . S
N440 C432 1.356 . S
N440 H446 0.984 . S
N440 H447 0.984 1_545 S
N441 C434 1.356 . S
N441 H444 0.984 1_565 S
N441 H445 0.985 . S
H442 N437 0.984 . S
H443 N437 0.985 . S
H444 N441 0.984 1_545 S
H445 N441 0.985 . S
H446 N440 0.984 . S
H447 N440 0.984 1_565 S
H448 N436 0.984 . S
H449 N436 0.985 . S
C450 C451 1.363 . S
C450 C456 1.379 . S
C450 N458 1.356 . S
C451 C450 1.363 . S
C451 C457 1.363 . S
C452 C453 1.363 . S
C452 C457 1.379 . S
C452 N459 1.356 . S
C453 C452 1.363 . S
C453 C456 1.363 . S
N454 C456 1.356 . S
N454 H466 0.984 . S
N454 H467 0.985 . S
N455 C457 1.356 . S
N455 H460 0.984 . S
N455 H461 0.985 . S
C456 C450 1.379 . S
C456 C453 1.363 . S
C456 N454 1.356 . S
C457 C451 1.363 . S
C457 C452 1.379 . S
C457 N455 1.356 . S
N458 C450 1.356 . S
N458 H464 0.984 . S
N458 H465 0.984 . S
N459 C452 1.356 . S
N459 H462 0.984 . S
N459 H463 0.985 . S
H460 N455 0.984 . S
H461 N455 0.985 . S
H462 N459 0.984 . S
H463 N459 0.985 . S
H464 N458 0.984 . S
H465 N458 0.984 . S
H466 N454 0.984 . S
H467 N454 0.985 . S
C468 C469 1.363 1_655 S
C468 C474 1.379 . S
C468 N476 1.356 . S
C469 C468 1.363 1_455 S
C469 C475 1.363 . S
C470 C471 1.363 1_455 S
C470 C475 1.379 . S
C470 N477 1.356 . S
C471 C470 1.363 1_655 S
C471 C474 1.363 . S
N472 C474 1.356 . S
N472 H484 0.984 . S
N472 H485 0.985 . S
N473 C475 1.356 . S
N473 H478 0.984 . S
N473 H479 0.985 . S
C474 C468 1.379 . S
C474 C471 1.363 . S
C474 N472 1.356 . S
C475 C469 1.363 . S
C475 C470 1.379 . S
C475 N473 1.356 . S
N476 C468 1.356 . S
N476 H482 0.984 . S
N476 H483 0.984 . S
N477 C470 1.356 . S
N477 H480 0.984 . S
N477 H481 0.985 . S
H478 N473 0.984 . S
H479 N473 0.985 . S
H480 N477 0.984 . S
H481 N477 0.985 . S
H482 N476 0.984 . S
H483 N476 0.984 . S
H484 N472 0.984 . S
H485 N472 0.985 . S
C486 C487 1.363 . S
C486 C492 1.379 1_556 S
C486 N494 1.356 . S
C487 C486 1.363 . S
C487 C493 1.363 1_545 S
C488 C489 1.363 . S
C488 C493 1.379 1_554 S
C488 N495 1.356 . S
C489 C488 1.363 . S
C489 C492 1.363 1_565 S
N490 C492 1.356 . S
N490 H502 0.984 . S
N490 H503 0.985 . S
N491 C493 1.356 . S
N491 H496 0.984 . S
N491 H497 0.985 . S
C492 C486 1.379 1_554 S
C492 C489 1.363 1_545 S
C492 N490 1.356 . S
C493 C487 1.363 1_565 S
C493 C488 1.379 1_556 S
C493 N491 1.356 . S
N494 C486 1.356 . S
N494 H500 0.984 . S
N494 H501 0.984 . S
N495 C488 1.356 . S
N495 H498 0.984 . S
N495 H499 0.985 . S
H496 N491 0.984 . S
H497 N491 0.985 . S
H498 N495 0.984 . S
H499 N495 0.985 . S
H500 N494 0.984 . S
H501 N494 0.984 . S
H502 N490 0.984 . S
H503 N490 0.985 . S
C504 C505 1.363 . S
C504 C510 1.379 1_556 S
C504 N512 1.356 . S
C505 C504 1.363 . S
C505 C511 1.363 . S
C506 C507 1.363 . S
C506 C511 1.379 1_554 S
C506 N513 1.356 . S
C507 C506 1.363 . S
C507 C510 1.363 . S
N508 C510 1.356 . S
N508 H520 0.984 . S
N508 H521 0.985 . S
N509 C511 1.356 . S
N509 H514 0.984 . S
N509 H515 0.985 . S
C510 C504 1.379 1_554 S
C510 C507 1.363 . S
C510 N508 1.356 . S
C511 C505 1.363 . S
C511 C506 1.379 1_556 S
C511 N509 1.356 . S
N512 C504 1.356 . S
N512 H518 0.984 . S
N512 H519 0.984 . S
N513 C506 1.356 . S
N513 H516 0.984 . S
N513 H517 0.985 . S
H514 N509 0.984 . S
H515 N509 0.985 . S
H516 N513 0.984 . S
H517 N513 0.985 . S
H518 N512 0.984 . S
H519 N512 0.984 . S
H520 N508 0.984 . S
H521 N508 0.985 . S
C522 C523 1.363 . S
C522 C528 1.379 . S
C522 N530 1.356 . S
C523 C522 1.363 . S
C523 C529 1.363 . S
C524 C525 1.363 . S
C524 C529 1.379 . S
C524 N531 1.356 . S
C525 C524 1.363 . S
C525 C528 1.363 . S
N526 C528 1.356 . S
N526 H538 0.984 . S
N526 H539 0.985 . S
N527 C529 1.356 . S
N527 H532 0.984 . S
N527 H533 0.985 . S
C528 C522 1.379 . S
C528 C525 1.363 . S
C528 N526 1.356 . S
C529 C523 1.363 . S
C529 C524 1.379 . S
C529 N527 1.356 . S
N530 C522 1.356 . S
N530 H536 0.984 . S
N530 H537 0.984 . S
N531 C524 1.356 . S
N531 H534 0.984 . S
N531 H535 0.985 . S
H532 N527 0.984 . S
H533 N527 0.985 . S
H534 N531 0.984 . S
H535 N531 0.985 . S
H536 N530 0.984 . S
H537 N530 0.984 . S
H538 N526 0.984 . S
H539 N526 0.985 . S
C540 C541 1.363 . S
C540 C546 1.379 . S
C540 N548 1.356 . S
C541 C540 1.363 . S
C541 C547 1.363 . S
C542 C543 1.363 . S
C542 C547 1.379 . S
C542 N549 1.356 . S
C543 C542 1.363 . S
C543 C546 1.363 . S
N544 C546 1.356 . S
N544 H556 0.984 . S
N544 H557 0.985 . S
N545 C547 1.356 . S
N545 H550 0.984 . S
N545 H551 0.985 . S
C546 C540 1.379 . S
C546 C543 1.363 . S
C546 N544 1.356 . S
C547 C541 1.363 . S
C547 C542 1.379 . S
C547 N545 1.356 . S
N548 C540 1.356 . S
N548 H554 0.984 . S
N548 H555 0.984 . S
N549 C542 1.356 . S
N549 H552 0.984 . S
N549 H553 0.985 . S
H550 N545 0.984 . S
H551 N545 0.985 . S
H552 N549 0.984 . S
H553 N549 0.985 . S
H554 N548 0.984 . S
H555 N548 0.984 . S
H556 N544 0.984 . S
H557 N544 0.985 . S
C558 C559 1.363 . S
C558 C564 1.379 1_556 S
C558 N566 1.356 . S
C559 C558 1.363 . S
C559 C565 1.363 . S
C560 C561 1.363 . S
C560 C565 1.379 1_554 S
C560 N567 1.356 . S
C561 C560 1.363 . S
C561 C564 1.363 . S
N562 C564 1.356 . S
N562 H574 0.984 . S
N562 H575 0.985 . S
N563 C565 1.356 . S
N563 H568 0.984 . S
N563 H569 0.985 . S
C564 C558 1.379 1_554 S
C564 C561 1.363 . S
C564 N562 1.356 . S
C565 C559 1.363 . S
C565 C560 1.379 1_556 S
C565 N563 1.356 . S
N566 C558 1.356 . S
N566 H572 0.984 . S
N566 H573 0.984 . S
N567 C560 1.356 . S
N567 H570 0.984 . S
N567 H571 0.985 . S
H568 N563 0.984 . S
H569 N563 0.985 . S
H570 N567 0.984 . S
H571 N567 0.985 . S
H572 N566 0.984 . S
H573 N566 0.984 . S
H574 N562 0.984 . S
H575 N562 0.985 . S
C576 C577 1.363 . S
C576 C582 1.379 . S
C576 N584 1.356 . S
C577 C576 1.363 . S
C577 C583 1.363 . S
C578 C579 1.363 . S
C578 C583 1.379 . S
C578 N585 1.356 . S
C579 C578 1.363 . S
C579 C582 1.363 . S
N580 C582 1.356 . S
N580 H592 0.984 . S
N580 H593 0.985 . S
N581 C583 1.356 . S
N581 H586 0.984 . S
N581 H587 0.985 . S
C582 C576 1.379 . S
C582 C579 1.363 . S
C582 N580 1.356 . S
C583 C577 1.363 . S
C583 C578 1.379 . S
C583 N581 1.356 . S
N584 C576 1.356 . S
N584 H590 0.984 . S
N584 H591 0.984 . S
N585 C578 1.356 . S
N585 H588 0.984 . S
N585 H589 0.985 . S
H586 N581 0.984 . S
H587 N581 0.985 . S
H588 N585 0.984 . S
H589 N585 0.985 . S
H590 N584 0.984 . S
H591 N584 0.984 . S
H592 N580 0.984 . S
H593 N580 0.985 . S
C594 C595 1.363 . S
C594 C600 1.379 . S
C594 N602 1.356 . S
C595 C594 1.363 . S
C595 C601 1.363 . S
C596 C597 1.363 . S
C596 C601 1.379 . S
C596 N603 1.356 . S
C597 C596 1.363 . S
C597 C600 1.363 . S
N598 C600 1.356 . S
N598 H610 0.984 . S
N598 H611 0.985 . S
N599 C601 1.356 . S
N599 H604 0.984 . S
N599 H605 0.985 . S
C600 C594 1.379 . S
C600 C597 1.363 . S
C600 N598 1.356 . S
C601 C595 1.363 . S
C601 C596 1.379 . S
C601 N599 1.356 . S
N602 C594 1.356 . S
N602 H608 0.984 . S
N602 H609 0.984 . S
N603 C596 1.356 . S
N603 H606 0.984 . S
N603 H607 0.985 . S
H604 N599 0.984 . S
H605 N599 0.985 . S
H606 N603 0.984 . S
H607 N603 0.985 . S
H608 N602 0.984 . S
H609 N602 0.984 . S
H610 N598 0.984 . S
H611 N598 0.985 . S
C612 C613 1.363 . S
C612 C618 1.379 . S
C612 N620 1.356 . S
C613 C612 1.363 . S
C613 C619 1.363 . S
C614 C615 1.363 . S
C614 C619 1.379 . S
C614 N621 1.356 . S
C615 C614 1.363 . S
C615 C618 1.363 . S
N616 C618 1.356 . S
N616 H628 0.984 . S
N616 H629 0.985 . S
N617 C619 1.356 . S
N617 H622 0.984 . S
N617 H623 0.985 . S
C618 C612 1.379 . S
C618 C615 1.363 . S
C618 N616 1.356 . S
C619 C613 1.363 . S
C619 C614 1.379 . S
C619 N617 1.356 . S
N620 C612 1.356 . S
N620 H626 0.984 . S
N620 H627 0.984 . S
N621 C614 1.356 . S
N621 H624 0.984 . S
N621 H625 0.985 . S
H622 N617 0.984 . S
H623 N617 0.985 . S
H624 N621 0.984 . S
H625 N621 0.985 . S
H626 N620 0.984 . S
H627 N620 0.984 . S
H628 N616 0.984 . S
H629 N616 0.985 . S
C630 C631 1.363 . S
C630 C636 1.379 1_655 S
C630 N638 1.356 . S
C631 C630 1.363 . S
C631 C637 1.363 . S
C632 C633 1.363 . S
C632 C637 1.379 1_455 S
C632 N639 1.356 . S
C633 C632 1.363 . S
C633 C636 1.363 . S
N634 C636 1.356 . S
N634 H646 0.984 . S
N634 H647 0.985 . S
N635 C637 1.356 . S
N635 H640 0.984 . S
N635 H641 0.985 . S
C636 C630 1.379 1_455 S
C636 C633 1.363 . S
C636 N634 1.356 . S
C637 C631 1.363 . S
C637 C632 1.379 1_655 S
C637 N635 1.356 . S
N638 C630 1.356 . S
N638 H644 0.984 . S
N638 H645 0.984 . S
N639 C632 1.356 . S
N639 H642 0.984 . S
N639 H643 0.985 . S
H640 N635 0.984 . S
H641 N635 0.985 . S
H642 N639 0.984 . S
H643 N639 0.985 . S
H644 N638 0.984 . S
H645 N638 0.984 . S
H646 N634 0.984 . S
H647 N634 0.985 . S
C648 C649 1.363 . S
C648 C654 1.379 1_545 S
C648 N656 1.356 . S
C649 C648 1.363 . S
C649 C655 1.363 . S
C650 C651 1.363 . S
C650 C655 1.379 1_565 S
C650 N657 1.356 . S
C651 C650 1.363 . S
C651 C654 1.363 . S
N652 C654 1.356 . S
N652 H664 0.984 . S
N652 H665 0.985 . S
N653 C655 1.356 . S
N653 H658 0.984 . S
N653 H659 0.985 . S
C654 C648 1.379 1_565 S
C654 C651 1.363 . S
C654 N652 1.356 . S
C655 C649 1.363 . S
C655 C650 1.379 1_545 S
C655 N653 1.356 . S
N656 C648 1.356 . S
N656 H662 0.984 . S
N656 H663 0.984 . S
N657 C650 1.356 . S
N657 H660 0.984 . S
N657 H661 0.985 . S
H658 N653 0.984 . S
H659 N653 0.985 . S
H660 N657 0.984 . S
H661 N657 0.985 . S
H662 N656 0.984 . S
H663 N656 0.984 . S
H664 N652 0.984 . S
H665 N652 0.985 . S
C666 C667 1.363 . S
C666 C672 1.379 . S
C666 N674 1.356 . S
C667 C666 1.363 . S
C667 C673 1.363 . S
C668 C669 1.363 . S
C668 C673 1.379 . S
C668 N675 1.356 . S
C669 C668 1.363 . S
C669 C672 1.363 . S
N670 C672 1.356 . S
N670 H682 0.984 . S
N670 H683 0.985 . S
N671 C673 1.356 . S
N671 H676 0.984 . S
N671 H677 0.985 . S
C672 C666 1.379 . S
C672 C669 1.363 . S
C672 N670 1.356 . S
C673 C667 1.363 . S
C673 C668 1.379 . S
C673 N671 1.356 . S
N674 C666 1.356 . S
N674 H680 0.984 . S
N674 H681 0.984 . S
N675 C668 1.356 . S
N675 H678 0.984 . S
N675 H679 0.985 . S
H676 N671 0.984 . S
H677 N671 0.985 . S
H678 N675 0.984 . S
H679 N675 0.985 . S
H680 N674 0.984 . S
H681 N674 0.984 . S
H682 N670 0.984 . S
H683 N670 0.985 . S
C684 C685 1.363 . S
C684 C690 1.379 1_655 S
C684 N692 1.356 . S
C685 C684 1.363 . S
C685 C691 1.363 . S
C686 C687 1.363 . S
C686 C691 1.379 1_455 S
C686 N693 1.356 . S
C687 C686 1.363 . S
C687 C690 1.363 . S
N688 C690 1.356 . S
N688 H700 0.984 . S
N688 H701 0.985 . S
N689 C691 1.356 . S
N689 H694 0.984 . S
N689 H695 0.985 . S
C690 C684 1.379 1_455 S
C690 C687 1.363 . S
C690 N688 1.356 . S
C691 C685 1.363 . S
C691 C686 1.379 1_655 S
C691 N689 1.356 . S
N692 C684 1.356 . S
N692 H698 0.984 . S
N692 H699 0.984 . S
N693 C686 1.356 . S
N693 H696 0.984 . S
N693 H697 0.985 . S
H694 N689 0.984 . S
H695 N689 0.985 . S
H696 N693 0.984 . S
H697 N693 0.985 . S
H698 N692 0.984 . S
H699 N692 0.984 . S
H700 N688 0.984 . S
H701 N688 0.985 . S
C702 C703 1.363 . S
C702 C708 1.379 1_545 S
C702 N710 1.356 . S
C703 C702 1.363 . S
C703 C709 1.363 . S
C704 C705 1.363 . S
C704 C709 1.379 1_565 S
C704 N711 1.356 . S
C705 C704 1.363 . S
C705 C708 1.363 . S
N706 C708 1.356 . S
N706 H718 0.984 . S
N706 H719 0.985 . S
N707 C709 1.356 . S
N707 H712 0.984 . S
N707 H713 0.985 . S
C708 C702 1.379 1_565 S
C708 C705 1.363 . S
C708 N706 1.356 . S
C709 C703 1.363 . S
C709 C704 1.379 1_545 S
C709 N707 1.356 . S
N710 C702 1.356 . S
N710 H716 0.984 . S
N710 H717 0.984 . S
N711 C704 1.356 . S
N711 H714 0.984 . S
N711 H715 0.985 . S
H712 N707 0.984 . S
H713 N707 0.985 . S
H714 N711 0.984 . S
H715 N711 0.985 . S
H716 N710 0.984 . S
H717 N710 0.984 . S
H718 N706 0.984 . S
H719 N706 0.985 . S
C720 C721 1.363 . S
C720 C726 1.379 1_455 S
C720 N728 1.356 . S
C721 C720 1.363 . S
C721 C727 1.363 . S
C722 C723 1.363 . S
C722 C727 1.379 1_655 S
C722 N729 1.356 . S
C723 C722 1.363 . S
C723 C726 1.363 . S
N724 C726 1.356 . S
N724 H736 0.984 . S
N724 H737 0.985 . S
N725 C727 1.356 . S
N725 H730 0.984 . S
N725 H731 0.985 . S
C726 C720 1.379 1_655 S
C726 C723 1.363 . S
C726 N724 1.356 . S
C727 C721 1.363 . S
C727 C722 1.379 1_455 S
C727 N725 1.356 . S
N728 C720 1.356 . S
N728 H734 0.984 . S
N728 H735 0.984 . S
N729 C722 1.356 . S
N729 H732 0.984 . S
N729 H733 0.985 . S
H730 N725 0.984 . S
H731 N725 0.985 . S
H732 N729 0.984 . S
H733 N729 0.985 . S
H734 N728 0.984 . S
H735 N728 0.984 . S
H736 N724 0.984 . S
H737 N724 0.985 . S
C738 C739 1.363 . S
C738 C744 1.379 1_565 S
C738 N746 1.356 . S
C739 C738 1.363 . S
C739 C745 1.363 . S
C740 C741 1.363 . S
C740 C745 1.379 1_545 S
C740 N747 1.356 . S
C741 C740 1.363 . S
C741 C744 1.363 . S
N742 C744 1.356 . S
N742 H754 0.984 . S
N742 H755 0.985 . S
N743 C745 1.356 . S
N743 H748 0.984 . S
N743 H749 0.985 . S
C744 C738 1.379 1_545 S
C744 C741 1.363 . S
C744 N742 1.356 . S
C745 C739 1.363 . S
C745 C740 1.379 1_565 S
C745 N743 1.356 . S
N746 C738 1.356 . S
N746 H752 0.984 . S
N746 H753 0.984 . S
N747 C740 1.356 . S
N747 H750 0.984 . S
N747 H751 0.985 . S
H748 N743 0.984 . S
H749 N743 0.985 . S
H750 N747 0.984 . S
H751 N747 0.985 . S
H752 N746 0.984 . S
H753 N746 0.984 . S
H754 N742 0.984 . S
H755 N742 0.985 . S
C756 C757 1.363 . S
C756 C762 1.379 . S
C756 N764 1.356 . S
C757 C756 1.363 . S
C757 C763 1.363 . S
C758 C759 1.363 . S
C758 C763 1.379 . S
C758 N765 1.356 . S
C759 C758 1.363 . S
C759 C762 1.363 . S
N760 C762 1.356 . S
N760 H772 0.984 . S
N760 H773 0.985 . S
N761 C763 1.356 . S
N761 H766 0.984 . S
N761 H767 0.985 . S
C762 C756 1.379 . S
C762 C759 1.363 . S
C762 N760 1.356 . S
C763 C757 1.363 . S
C763 C758 1.379 . S
C763 N761 1.356 . S
N764 C756 1.356 . S
N764 H770 0.984 . S
N764 H771 0.984 . S
N765 C758 1.356 . S
N765 H768 0.984 . S
N765 H769 0.985 . S
H766 N761 0.984 . S
H767 N761 0.985 . S
H768 N765 0.984 . S
H769 N765 0.985 . S
H770 N764 0.984 . S
H771 N764 0.984 . S
H772 N760 0.984 . S
H773 N760 0.985 . S
C774 C775 1.363 . S
C774 C780 1.379 1_655 S
C774 N782 1.356 . S
C775 C774 1.363 . S
C775 C781 1.363 . S
C776 C777 1.363 . S
C776 C781 1.379 1_455 S
C776 N783 1.356 . S
C777 C776 1.363 . S
C777 C780 1.363 . S
N778 C780 1.356 . S
N778 H790 0.984 . S
N778 H791 0.985 . S
N779 C781 1.356 . S
N779 H784 0.984 . S
N779 H785 0.985 . S
C780 C774 1.379 1_455 S
C780 C777 1.363 . S
C780 N778 1.356 . S
C781 C775 1.363 . S
C781 C776 1.379 1_655 S
C781 N779 1.356 . S
N782 C774 1.356 . S
N782 H788 0.984 . S
N782 H789 0.984 . S
N783 C776 1.356 . S
N783 H786 0.984 . S
N783 H787 0.985 . S
H784 N779 0.984 . S
H785 N779 0.985 . S
H786 N783 0.984 . S
H787 N783 0.985 . S
H788 N782 0.984 . S
H789 N782 0.984 . S
H790 N778 0.984 . S
H791 N778 0.985 . S
C792 C793 1.363 . S
C792 C798 1.379 1_565 S
C792 N800 1.356 . S
C793 C792 1.363 . S
C793 C799 1.363 . S
C794 C795 1.363 . S
C794 C799 1.379 1_545 S
C794 N801 1.356 . S
C795 C794 1.363 . S
C795 C798 1.363 . S
N796 C798 1.356 . S
N796 H808 0.984 . S
N796 H809 0.985 . S
N797 C799 1.356 . S
N797 H802 0.984 . S
N797 H803 0.985 . S
C798 C792 1.379 1_545 S
C798 C795 1.363 . S
C798 N796 1.356 . S
C799 C793 1.363 . S
C799 C794 1.379 1_565 S
C799 N797 1.356 . S
N800 C792 1.356 . S
N800 H806 0.984 . S
N800 H807 0.984 . S
N801 C794 1.356 . S
N801 H804 0.984 . S
N801 H805 0.985 . S
H802 N797 0.984 . S
H803 N797 0.985 . S
H804 N801 0.984 . S
H805 N801 0.985 . S
H806 N800 0.984 . S
H807 N800 0.984 . S
H808 N796 0.984 . S
H809 N796 0.985 . S
C810 C811 1.363 . S
C810 C816 1.379 . S
C810 N818 1.356 . S
C811 C810 1.363 . S
C811 C817 1.363 . S
C812 C813 1.363 . S
C812 C817 1.379 . S
C812 N819 1.356 . S
C813 C812 1.363 . S
C813 C816 1.363 . S
N814 C816 1.356 . S
N814 H826 0.984 . S
N814 H827 0.985 . S
N815 C817 1.356 . S
N815 H820 0.984 . S
N815 H821 0.985 . S
C816 C810 1.379 . S
C816 C813 1.363 . S
C816 N814 1.356 . S
C817 C811 1.363 . S
C817 C812 1.379 . S
C817 N815 1.356 . S
N818 C810 1.356 . S
N818 H824 0.984 . S
N818 H825 0.984 . S
N819 C812 1.356 . S
N819 H822 0.984 . S
N819 H823 0.985 . S
H820 N815 0.984 . S
H821 N815 0.985 . S
H822 N819 0.984 . S
H823 N819 0.985 . S
H824 N818 0.984 . S
H825 N818 0.984 . S
H826 N814 0.984 . S
H827 N814 0.985 . S
C828 C829 1.363 . S
C828 C834 1.379 . S
C828 N836 1.356 . S
C829 C828 1.363 . S
C829 C835 1.363 . S
C830 C831 1.363 . S
C830 C835 1.379 . S
C830 N837 1.356 . S
C831 C830 1.363 . S
C831 C834 1.363 . S
N832 C834 1.356 . S
N832 H844 0.984 . S
N832 H845 0.985 . S
N833 C835 1.356 . S
N833 H838 0.984 . S
N833 H839 0.985 . S
C834 C828 1.379 . S
C834 C831 1.363 . S
C834 N832 1.356 . S
C835 C829 1.363 . S
C835 C830 1.379 . S
C835 N833 1.356 . S
N836 C828 1.356 . S
N836 H842 0.984 . S
N836 H843 0.984 . S
N837 C830 1.356 . S
N837 H840 0.984 . S
N837 H841 0.985 . S
H838 N833 0.984 . S
H839 N833 0.985 . S
H840 N837 0.984 . S
H841 N837 0.985 . S
H842 N836 0.984 . S
H843 N836 0.984 . S
H844 N832 0.984 . S
H845 N832 0.985 . S
C846 C847 1.363 . S
C846 C852 1.379 . S
C846 N854 1.356 . S
C847 C846 1.363 . S
C847 C853 1.363 . S
C848 C849 1.363 . S
C848 C853 1.379 . S
C848 N855 1.356 . S
C849 C848 1.363 . S
C849 C852 1.363 . S
N850 C852 1.356 . S
N850 H862 0.984 . S
N850 H863 0.985 . S
N851 C853 1.356 . S
N851 H856 0.984 . S
N851 H857 0.985 . S
C852 C846 1.379 . S
C852 C849 1.363 . S
C852 N850 1.356 . S
C853 C847 1.363 . S
C853 C848 1.379 . S
C853 N851 1.356 . S
N854 C846 1.356 . S
N854 H860 0.984 . S
N854 H861 0.984 . S
N855 C848 1.356 . S
N855 H858 0.984 1_455 S
N855 H859 0.985 . S
H856 N851 0.984 . S
H857 N851 0.985 . S
H858 N855 0.984 1_655 S
H859 N855 0.985 . S
H860 N854 0.984 . S
H861 N854 0.984 . S
H862 N850 0.984 . S
H863 N850 0.985 . S
C864 C865 1.363 . S
C864 C870 1.379 . S
C864 N872 1.356 . S
C865 C864 1.363 . S
C865 C871 1.363 . S
C866 C867 1.363 . S
C866 C871 1.379 . S
C866 N873 1.356 . S
C867 C866 1.363 . S
C867 C870 1.363 . S
N868 C870 1.356 . S
N868 H880 0.984 . S
N868 H881 0.985 . S
N869 C871 1.356 . S
N869 H874 0.984 . S
N869 H875 0.985 . S
C870 C864 1.379 . S
C870 C867 1.363 . S
C870 N868 1.356 . S
C871 C865 1.363 . S
C871 C866 1.379 . S
C871 N869 1.356 . S
N872 C864 1.356 . S
N872 H878 0.984 . S
N872 H879 0.984 . S
N873 C866 1.356 . S
N873 H876 0.984 . S
N873 H877 0.985 . S
H874 N869 0.984 . S
H875 N869 0.985 . S
H876 N873 0.984 . S
H877 N873 0.985 . S
H878 N872 0.984 . S
H879 N872 0.984 . S
H880 N868 0.984 . S
H881 N868 0.985 . S
C882 C883 1.363 . S
C882 C888 1.379 . S
C882 N890 1.356 . S
C883 C882 1.363 . S
C883 C889 1.363 . S
C884 C885 1.363 . S
C884 C889 1.379 . S
C884 N891 1.356 . S
C885 C884 1.363 . S
C885 C888 1.363 . S
N886 C888 1.356 . S
N886 H898 0.984 . S
N886 H899 0.985 . S
N887 C889 1.356 . S
N887 H892 0.984 . S
N887 H893 0.985 . S
C888 C882 1.379 . S
C888 C885 1.363 . S
C888 N886 1.356 . S
C889 C883 1.363 . S
C889 C884 1.379 . S
C889 N887 1.356 . S
N890 C882 1.356 . S
N890 H896 0.984 . S
N890 H897 0.984 . S
N891 C884 1.356 . S
N891 H894 0.984 . S
N891 H895 0.985 . S
H892 N887 0.984 . S
H893 N887 0.985 . S
H894 N891 0.984 . S
H895 N891 0.985 . S
H896 N890 0.984 . S
H897 N890 0.984 . S
H898 N886 0.984 . S
H899 N886 0.985 . S
C900 C901 1.363 . S
C900 C906 1.379 . S
C900 N908 1.356 . S
C901 C900 1.363 . S
C901 C907 1.363 . S
C902 C903 1.363 . S
C902 C907 1.379 . S
C902 N909 1.356 . S
C903 C902 1.363 . S
C903 C906 1.363 . S
N904 C906 1.356 . S
N904 H916 0.984 . S
N904 H917 0.985 . S
N905 C907 1.356 . S
N905 H910 0.984 . S
N905 H911 0.985 . S
C906 C900 1.379 . S
C906 C903 1.363 . S
C906 N904 1.356 . S
C907 C901 1.363 . S
C907 C902 1.379 . S
C907 N905 1.356 . S
N908 C900 1.356 . S
N908 H914 0.984 . S
N908 H915 0.984 . S
N909 C902 1.356 . S
N909 H912 0.984 1_655 S
N909 H913 0.985 . S
H910 N905 0.984 . S
H911 N905 0.985 . S
H912 N909 0.984 1_455 S
H913 N909 0.985 . S
H914 N908 0.984 . S
H915 N908 0.984 . S
H916 N904 0.984 . S
H917 N904 0.985 . S
C918 C919 1.363 . S
C918 C924 1.379 . S
C918 N926 1.356 . S
C919 C918 1.363 . S
C919 C925 1.363 . S
C920 C921 1.363 . S
C920 C925 1.379 . S
C920 N927 1.356 . S
C921 C920 1.363 . S
C921 C924 1.363 . S
N922 C924 1.356 . S
N922 H934 0.984 . S
N922 H935 0.985 . S
N923 C925 1.356 . S
N923 H928 0.984 . S
N923 H929 0.985 . S
C924 C918 1.379 . S
C924 C921 1.363 . S
C924 N922 1.356 . S
C925 C919 1.363 . S
C925 C920 1.379 . S
C925 N923 1.356 . S
N926 C918 1.356 . S
N926 H932 0.984 . S
N926 H933 0.984 . S
N927 C920 1.356 . S
N927 H930 0.984 . S
N927 H931 0.985 . S
H928 N923 0.984 . S
H929 N923 0.985 . S
H930 N927 0.984 . S
H931 N927 0.985 . S
H932 N926 0.984 . S
H933 N926 0.984 . S
H934 N922 0.984 . S
H935 N922 0.985 . S
C397 N311 1.525 . S
C399 N14 1.525 . S
C415 N47 1.526 . S
C417 N344 1.526 . S
C433 N80 1.525 . S
C435 N377 1.525 . S
C451 N113 1.525 . S
C453 N212 1.525 . S
C469 N146 1.525 . S
C471 N245 1.525 . S
C487 N179 1.525 . S
C489 N278 1.525 . S
C505 N335 1.404 . S
C507 N5 1.404 . S
C523 N368 1.404 . S
C525 N38 1.404 . S
C541 N71 1.404 . S
C543 N203 1.404 . S
C559 N236 1.404 . S
C561 N104 1.404 . S
C577 N137 1.404 . S
C579 N269 1.404 . S
C595 N170 1.404 . S
C597 N302 1.404 . S
C613 C116 1.877 . S
C615 C17 1.877 . S
C631 C50 1.877 . S
C633 C149 1.877 . S
C649 C182 1.876 . S
C651 C83 1.876 . S
C667 C314 1.877 . S
C669 C215 1.877 . S
C685 C248 1.876 . S
C687 C347 1.876 . S
C703 C380 1.877 . S
C705 C281 1.877 . S
C721 C28 1.349 . S
C723 C391 1.350 . S
C739 C226 1.349 . S
C741 C61 1.350 . S
C757 C94 1.349 . S
C759 C259 1.349 . S
C775 C127 1.349 . S
C777 C292 1.350 . S
C793 C160 1.350 . S
C795 C325 1.349 . S
C811 C358 1.349 . S
C813 C193 1.349 . S
C829 C8 0.925 . S
C831 C272 0.925 . S
C847 C305 0.925 . S
C849 C41 0.925 . S
C865 C74 0.925 . S
C867 C338 0.925 . S
C883 C371 0.925 . S
C885 C107 0.925 . S
C901 C206 0.925 . S
C903 C140 0.925 . S
C919 C173 0.925 . S
C921 C239 0.925 . S
