# Generated by pormake.
# Topology umg, (4)-cn, num edge types: 1
# Building blocks:
#     Node 0, Type 0, BuildingBlock: KOZSID_clean_sbu_0, # of connection points: 4
#     Node 1, Type 0, BuildingBlock: KOZSID_clean_sbu_0, # of connection points: 4
#     Node 2, Type 0, BuildingBlock: KOZSID_clean_sbu_0, # of connection points: 4
#     Node 3, Type 0, BuildingBlock: KOZSID_clean_sbu_0, # of connection points: 4
#     Node 4, Type 0, BuildingBlock: KOZSID_clean_sbu_0, # of connection points: 4
#     Node 5, Type 0, BuildingBlock: KOZSID_clean_sbu_0, # of connection points: 4
#     Node 6, Type 0, BuildingBlock: KOZSID_clean_sbu_0, # of connection points: 4
#     Node 7, Type 0, BuildingBlock: KOZSID_clean_sbu_0, # of connection points: 4
#     Node 8, Type 0, BuildingBlock: KOZSID_clean_sbu_0, # of connection points: 4
#     Node 9, Type 0, BuildingBlock: KOZSID_clean_sbu_0, # of connection points: 4
#     Node 10, Type 0, BuildingBlock: KOZSID_clean_sbu_0, # of connection points: 4
#     Node 11, Type 0, BuildingBlock: KOZSID_clean_sbu_0, # of connection points: 4
#     Edge 12, Type (0, 0), BuildingBlock: KIFKEQ_clean_linker_1, # of connection points: 2
#     Edge 13, Type (0, 0), BuildingBlock: KIFKEQ_clean_linker_1, # of connection points: 2
#     Edge 14, Type (0, 0), BuildingBlock: KIFKEQ_clean_linker_1, # of connection points: 2
#     Edge 15, Type (0, 0), BuildingBlock: KIFKEQ_clean_linker_1, # of connection points: 2
#     Edge 16, Type (0, 0), BuildingBlock: KIFKEQ_clean_linker_1, # of connection points: 2
#     Edge 17, Type (0, 0), BuildingBlock: KIFKEQ_clean_linker_1, # of connection points: 2
#     Edge 18, Type (0, 0), BuildingBlock: KIFKEQ_clean_linker_1, # of connection points: 2
#     Edge 19, Type (0, 0), BuildingBlock: KIFKEQ_clean_linker_1, # of connection points: 2
#     Edge 20, Type (0, 0), BuildingBlock: KIFKEQ_clean_linker_1, # of connection points: 2
#     Edge 21, Type (0, 0), BuildingBlock: KIFKEQ_clean_linker_1, # of connection points: 2
#     Edge 22, Type (0, 0), BuildingBlock: KIFKEQ_clean_linker_1, # of connection points: 2
#     Edge 23, Type (0, 0), BuildingBlock: KIFKEQ_clean_linker_1, # of connection points: 2
#     Edge 24, Type (0, 0), BuildingBlock: KIFKEQ_clean_linker_1, # of connection points: 2
#     Edge 25, Type (0, 0), BuildingBlock: KIFKEQ_clean_linker_1, # of connection points: 2
#     Edge 26, Type (0, 0), BuildingBlock: KIFKEQ_clean_linker_1, # of connection points: 2
#     Edge 27, Type (0, 0), BuildingBlock: KIFKEQ_clean_linker_1, # of connection points: 2
#     Edge 28, Type (0, 0), BuildingBlock: KIFKEQ_clean_linker_1, # of connection points: 2
#     Edge 29, Type (0, 0), BuildingBlock: KIFKEQ_clean_linker_1, # of connection points: 2
#     Edge 30, Type (0, 0), BuildingBlock: KIFKEQ_clean_linker_1, # of connection points: 2
#     Edge 31, Type (0, 0), BuildingBlock: KIFKEQ_clean_linker_1, # of connection points: 2
#     Edge 32, Type (0, 0), BuildingBlock: KIFKEQ_clean_linker_1, # of connection points: 2
#     Edge 33, Type (0, 0), BuildingBlock: KIFKEQ_clean_linker_1, # of connection points: 2
#     Edge 34, Type (0, 0), BuildingBlock: KIFKEQ_clean_linker_1, # of connection points: 2
#     Edge 35, Type (0, 0), BuildingBlock: KIFKEQ_clean_linker_1, # of connection points: 2
# Relax obj value: 0.044
# Max RMSD: 0.153
# Mean RMSD: 0.153
data_MOF--net-umg--node1-KOZSID_clean_sbu_0--edge1-KIFKEQ_clean_linker_1
_symmetry_space_group_name_H-M    P1
_symmetry_Int_Tables_number       1
_symmetry_cell_setting            triclinic
loop_
_symmetry_equiv_pos_as_xyz
'x, y, z'
_cell_length_a     39.601854
_cell_length_b     39.633553
_cell_length_c     94.978289
_cell_angle_alpha  89.995114
_cell_angle_beta   90.005939
_cell_angle_gamma 120.18511
loop_
_atom_site_label
_atom_site_type_symbol
_atom_site_fract_x
_atom_site_fract_y
_atom_site_fract_z
_atom_type_partial_charge
C0 C 0.26615 0.53237 0.1239 0.0
C1 C 0.25639 0.50568 0.13477 0.0
C2 C 0.25199 0.47203 0.12883 0.0
C3 C 0.25936 0.48001 0.11471 0.0
N4 N 0.26798 0.5165 0.11144 0.0
Co5 Co 0.2802 0.53977 0.09229 0.0
N6 N 0.25645 0.48795 0.08296 0.0
C7 C 0.2485 0.45435 0.08929 0.0
C8 C 0.23262 0.42311 0.08023 0.0
C9 C 0.23093 0.43811 0.06738 0.0
C10 C 0.24612 0.47789 0.06928 0.0
N11 N 0.29287 0.56372 0.07325 0.0
C12 C 0.27952 0.54751 0.06041 0.0
C13 C 0.29793 0.57502 0.0498 0.0
C14 C 0.32366 0.60937 0.05625 0.0
C15 C 0.31975 0.60107 0.07037 0.0
N16 N 0.30411 0.59163 0.10157 0.0
C17 C 0.32971 0.62598 0.09565 0.0
C18 C 0.34097 0.65712 0.10455 0.0
C19 C 0.32132 0.64136 0.11687 0.0
C20 C 0.29922 0.60129 0.1148 0.0
N21 N 0.33117 0.54118 0.09278 0.0
C22 C 0.39943 0.5345 0.09395 0.0
C23 C 0.37695 0.52589 0.08162 0.0
C24 C 0.3434 0.52943 0.08125 0.0
C25 C 0.38711 0.54753 0.10562 0.0
C26 C 0.35327 0.55086 0.1048 0.0
N27 N 0.22889 0.537 0.09179 0.0
C28 C 0.18763 0.56425 0.08635 0.0
C29 C 0.15425 0.53038 0.09126 0.0
C30 C 0.15936 0.50003 0.09631 0.0
C31 C 0.19644 0.50374 0.09638 0.0
C32 C 0.22465 0.56712 0.08683 0.0
H33 H 0.19867 0.47935 0.10016 0.0
H34 H 0.24982 0.59366 0.08319 0.0
H35 H 0.32682 0.52157 0.07162 0.0
H36 H 0.34461 0.5606 0.11401 0.0
C37 C 0.25153 0.45262 0.10399 0.0
C38 C 0.27589 0.57318 0.12583 0.0
C39 C 0.25316 0.50566 0.05775 0.0
C40 C 0.33678 0.62847 0.08118 0.0
H41 H 0.25286 0.5101 0.14579 0.0
H42 H 0.24285 0.44456 0.13411 0.0
H43 H 0.2225 0.39285 0.08272 0.0
H44 H 0.22017 0.42172 0.0577 0.0
H45 H 0.294 0.57064 0.03854 0.0
H46 H 0.34242 0.63722 0.05124 0.0
H47 H 0.35981 0.68777 0.10218 0.0
H48 H 0.3231 0.65758 0.12628 0.0
H49 H 0.38442 0.51526 0.07232 0.0
H50 H 0.40351 0.55527 0.11536 0.0
H51 H 0.18532 0.58864 0.08241 0.0
H52 H 0.13462 0.47306 0.10002 0.0
C53 C 0.74172 0.25585 0.45729 0.0
C54 C 0.75196 0.23819 0.46773 0.0
C55 C 0.77518 0.22608 0.4615 0.0
C56 C 0.7778 0.23692 0.44765 0.0
N57 N 0.7582 0.25586 0.44469 0.0
Co58 Co 0.75156 0.27362 0.42557 0.0
N59 N 0.78175 0.25178 0.41603 0.0
C60 C 0.80063 0.23554 0.42246 0.0
C61 C 0.81902 0.22339 0.41324 0.0
C62 C 0.81146 0.23242 0.40015 0.0
C63 C 0.78879 0.24963 0.40212 0.0
N64 N 0.74331 0.29003 0.40648 0.0
C65 C 0.7532 0.28366 0.39348 0.0
C66 C 0.74152 0.30017 0.38302 0.0
C67 C 0.72313 0.31699 0.3896 0.0
C68 C 0.7247 0.30998 0.40363 0.0
N69 N 0.72216 0.29631 0.43507 0.0
C70 C 0.70796 0.31733 0.42889 0.0
C71 C 0.68836 0.32848 0.43789 0.0
C72 C 0.68972 0.31338 0.45062 0.0
C73 C 0.71029 0.29387 0.44864 0.0
N74 N 0.80202 0.3248 0.42782 0.0
C75 C 0.87687 0.39419 0.42826 0.0
C76 C 0.84403 0.39414 0.42269 0.0
C77 C 0.80724 0.35944 0.42254 0.0
C78 C 0.87088 0.3594 0.43421 0.0
C79 C 0.83385 0.32583 0.43402 0.0
N80 N 0.70217 0.22246 0.42332 0.0
C81 C 0.6325 0.18323 0.41863 0.0
C82 C 0.63296 0.14841 0.42094 0.0
C83 C 0.66878 0.1518 0.42448 0.0
C84 C 0.70241 0.18842 0.42556 0.0
C85 C 0.66725 0.21972 0.4198 0.0
H86 H 0.72835 0.18832 0.42834 0.0
H87 H 0.66545 0.24543 0.41785 0.0
H88 H 0.78364 0.36127 0.41793 0.0
H89 H 0.83219 0.30098 0.43886 0.0
C90 C 0.79739 0.22883 0.43704 0.0
C91 C 0.71617 0.27206 0.45985 0.0
C92 C 0.77381 0.26257 0.39045 0.0
C93 C 0.70947 0.32222 0.41436 0.0
H94 H 0.74316 0.23415 0.47867 0.0
H95 H 0.78801 0.21054 0.46644 0.0
H96 H 0.83512 0.20873 0.41571 0.0
H97 H 0.82102 0.22648 0.39026 0.0
H98 H 0.74593 0.30022 0.37177 0.0
H99 H 0.71019 0.33253 0.38474 0.0
H100 H 0.6734 0.34426 0.43537 0.0
H101 H 0.67606 0.31559 0.46017 0.0
H102 H 0.84685 0.42042 0.41806 0.0
H103 H 0.89487 0.35794 0.43907 0.0
H104 H 0.60562 0.18241 0.41578 0.0
H105 H 0.671 0.12619 0.42671 0.0
C106 C 0.49436 0.74024 0.79011 0.0
C107 C 0.52139 0.75718 0.80088 0.0
C108 C 0.55483 0.78679 0.79489 0.0
C109 C 0.5464 0.78634 0.78082 0.0
N110 N 0.50982 0.75828 0.77763 0.0
Co111 Co 0.48594 0.74722 0.75857 0.0
N112 N 0.53752 0.77621 0.74905 0.0
C113 C 0.57124 0.80215 0.75532 0.0
C114 C 0.60219 0.81851 0.74612 0.0
C115 C 0.58686 0.80225 0.73325 0.0
C116 C 0.54721 0.77687 0.73527 0.0
N117 N 0.46133 0.73566 0.73962 0.0
C118 C 0.47723 0.73919 0.72668 0.0
C119 C 0.44918 0.72935 0.71623 0.0
C120 C 0.41485 0.71973 0.72287 0.0
C121 C 0.42367 0.72423 0.73694 0.0
N122 N 0.43435 0.71859 0.76806 0.0
C123 C 0.39971 0.70948 0.76234 0.0
C124 C 0.3689 0.68941 0.77138 0.0
C125 C 0.38517 0.68571 0.78359 0.0
C126 C 0.42518 0.70389 0.78129 0.0
N127 N 0.48413 0.79654 0.75926 0.0
C128 C 0.49108 0.87161 0.76064 0.0
C129 C 0.49873 0.85755 0.74817 0.0
C130 C 0.49505 0.82042 0.7477 0.0
C131 C 0.47878 0.84632 0.77235 0.0
C132 C 0.4753 0.80908 0.77143 0.0
N133 N 0.48918 0.69896 0.75786 0.0
C134 C 0.46144 0.62993 0.75306 0.0
C135 C 0.49671 0.63146 0.75668 0.0
C136 C 0.52772 0.66768 0.76106 0.0
C137 C 0.5234 0.70065 0.76157 0.0
C138 C 0.45833 0.66389 0.75367 0.0
H139 H 0.54809 0.72767 0.76503 0.0
H140 H 0.43104 0.66183 0.75069 0.0
H141 H 0.50225 0.81167 0.73795 0.0
H142 H 0.46618 0.79076 0.78068 0.0
C143 C 0.5734 0.80647 0.77003 0.0
C144 C 0.45367 0.70866 0.79212 0.0
C145 C 0.5192 0.75644 0.72376 0.0
C146 C 0.39663 0.71369 0.74788 0.0
H147 H 0.51734 0.74896 0.81189 0.0
H148 H 0.58247 0.80527 0.80008 0.0
H149 H 0.63245 0.83913 0.74853 0.0
H150 H 0.60294 0.80875 0.72346 0.0
H151 H 0.4532 0.73013 0.70494 0.0
H152 H 0.38672 0.7101 0.71801 0.0
H153 H 0.33813 0.67732 0.76917 0.0
H154 H 0.36938 0.67126 0.79308 0.0
H155 H 0.50879 0.87556 0.73881 0.0
H156 H 0.47181 0.85511 0.78221 0.0
H157 H 0.43654 0.60286 0.74953 0.0
H158 H 0.55532 0.67067 0.76428 0.0
C159 C 0.76631 0.48974 0.12403 0.0
C160 C 0.77608 0.5164 0.13491 0.0
C161 C 0.78062 0.55011 0.12898 0.0
C162 C 0.7733 0.54219 0.11486 0.0
N163 N 0.76458 0.50568 0.11157 0.0
Co164 Co 0.75243 0.48249 0.09241 0.0
N165 N 0.77642 0.53437 0.08311 0.0
C166 C 0.78441 0.56797 0.08945 0.0
C167 C 0.80038 0.59924 0.0804 0.0
C168 C 0.80206 0.58426 0.06755 0.0
C169 C 0.78678 0.54447 0.06944 0.0
N170 N 0.73986 0.45862 0.07335 0.0
C171 C 0.75334 0.47487 0.06053 0.0
C172 C 0.73502 0.4474 0.0499 0.0
C173 C 0.7092 0.41304 0.05632 0.0
C174 C 0.71298 0.42129 0.07044 0.0
N175 N 0.72829 0.43059 0.10167 0.0
C176 C 0.70271 0.39628 0.09572 0.0
C177 C 0.69136 0.36508 0.1046 0.0
C178 C 0.71093 0.38075 0.11694 0.0
C179 C 0.73306 0.42084 0.11491 0.0
N180 N 0.70158 0.48131 0.09284 0.0
C181 C 0.6344 0.48984 0.09405 0.0
C182 C 0.64598 0.47588 0.10566 0.0
C183 C 0.67939 0.47179 0.10484 0.0
C184 C 0.6566 0.49769 0.08168 0.0
C185 C 0.68962 0.49327 0.08129 0.0
N186 N 0.80367 0.48507 0.09196 0.0
C187 C 0.84483 0.45774 0.08648 0.0
C188 C 0.87825 0.49155 0.0914 0.0
C189 C 0.8732 0.5219 0.0965 0.0
C190 C 0.83614 0.51826 0.09658 0.0
C191 C 0.80784 0.45494 0.08697 0.0
H192 H 0.83396 0.54266 0.10038 0.0
H193 H 0.78265 0.42845 0.08331 0.0
H194 H 0.68785 0.46191 0.11407 0.0
H195 H 0.70601 0.50061 0.07163 0.0
C196 C 0.78129 0.56965 0.10415 0.0
C197 C 0.75639 0.44888 0.12596 0.0
C198 C 0.7797 0.51674 0.05789 0.0
C199 C 0.6958 0.39386 0.08124 0.0
H200 H 0.77954 0.51191 0.14593 0.0
H201 H 0.78981 0.57758 0.13427 0.0
H202 H 0.81052 0.6295 0.0829 0.0
H203 H 0.81285 0.60068 0.05788 0.0
H204 H 0.73906 0.45182 0.03865 0.0
H205 H 0.69046 0.38522 0.0513 0.0
H206 H 0.67255 0.33445 0.1022 0.0
H207 H 0.70911 0.36444 0.12633 0.0
H208 H 0.63015 0.46928 0.11551 0.0
H209 H 0.64872 0.50746 0.07224 0.0
H210 H 0.84709 0.43336 0.0825 0.0
H211 H 0.89796 0.54882 0.10023 0.0
C212 C 0.28749 0.76349 0.45738 0.0
C213 C 0.27189 0.7763 0.46776 0.0
C214 C 0.24245 0.7798 0.46155 0.0
C215 C 0.24183 0.76942 0.44771 0.0
N216 N 0.26917 0.75977 0.44485 0.0
Co217 Co 0.28046 0.74624 0.42592 0.0
N218 N 0.25238 0.76902 0.416 0.0
C219 C 0.22662 0.77732 0.422 0.0
C220 C 0.21091 0.79194 0.41258 0.0
C221 C 0.22741 0.79233 0.39983 0.0
C222 C 0.25227 0.7777 0.40215 0.0
N223 N 0.29245 0.73261 0.40716 0.0
C224 C 0.28978 0.74494 0.3941 0.0
C225 C 0.29962 0.72624 0.38387 0.0
C226 C 0.30823 0.70119 0.39077 0.0
C227 C 0.3032 0.70582 0.40476 0.0
N228 N 0.30802 0.72295 0.4358 0.0
C229 C 0.31585 0.69627 0.43039 0.0
C230 C 0.33383 0.68413 0.4398 0.0
C231 C 0.33755 0.70446 0.45192 0.0
C232 C 0.32181 0.72819 0.44916 0.0
N233 N 0.23085 0.69546 0.42655 0.0
C234 C 0.15555 0.62799 0.42761 0.0
C235 C 0.1708 0.64856 0.41502 0.0
C236 C 0.20801 0.68195 0.41473 0.0
C237 C 0.1795 0.64154 0.43964 0.0
C238 C 0.21708 0.67492 0.43885 0.0
N239 N 0.329 0.7974 0.42523 0.0
C240 C 0.39786 0.83836 0.42012 0.0
C241 C 0.39671 0.87212 0.42393 0.0
C242 C 0.3608 0.86727 0.42836 0.0
C243 C 0.32766 0.8301 0.42889 0.0
C244 C 0.36378 0.80132 0.42092 0.0
H245 H 0.30074 0.82804 0.43221 0.0
H246 H 0.36548 0.77587 0.41802 0.0
H247 H 0.21766 0.69739 0.4049 0.0
H248 H 0.23464 0.68458 0.44829 0.0
C249 C 0.2222 0.77602 0.4367 0.0
C250 C 0.3183 0.75336 0.45972 0.0
C251 C 0.27285 0.76967 0.39085 0.0
C252 C 0.31226 0.68878 0.41593 0.0
H253 H 0.281 0.78303 0.47862 0.0
H254 H 0.22514 0.7908 0.46638 0.0
H255 H 0.19065 0.80207 0.41476 0.0
H256 H 0.22147 0.80185 0.38993 0.0
H257 H 0.29932 0.72926 0.37255 0.0
H258 H 0.31741 0.68215 0.38612 0.0
H259 H 0.34437 0.66407 0.43793 0.0
H260 H 0.35024 0.70194 0.46167 0.0
H261 H 0.15357 0.63971 0.40546 0.0
H262 H 0.16935 0.62642 0.4496 0.0
H263 H 0.42493 0.84044 0.41671 0.0
H264 H 0.35797 0.89221 0.43117 0.0
C265 C 0.53815 0.2844 0.79042 0.0
C266 C 0.51149 0.26747 0.8013 0.0
C267 C 0.47779 0.23794 0.79542 0.0
C268 C 0.4857 0.23843 0.7813 0.0
N269 N 0.52218 0.26644 0.77798 0.0
Co270 Co 0.54538 0.27743 0.75881 0.0
N271 N 0.49346 0.2487 0.74952 0.0
C272 C 0.45993 0.22281 0.7559 0.0
C273 C 0.42862 0.20687 0.74685 0.0
C274 C 0.44351 0.22341 0.73396 0.0
C275 C 0.48329 0.24848 0.73583 0.0
N276 N 0.56927 0.28883 0.73976 0.0
C277 C 0.55294 0.28559 0.72691 0.0
C278 C 0.5805 0.29503 0.7163 0.0
C279 C 0.61497 0.30419 0.72275 0.0
C280 C 0.60671 0.2998 0.73687 0.0
N281 N 0.59732 0.30586 0.76806 0.0
C282 C 0.63167 0.31471 0.76215 0.0
C283 C 0.66284 0.33465 0.77106 0.0
C284 C 0.6471 0.33851 0.78338 0.0
C285 C 0.60703 0.32054 0.78128 0.0
N286 N 0.54695 0.22798 0.75936 0.0
C287 C 0.53993 0.15287 0.76062 0.0
C288 C 0.53165 0.16679 0.74824 0.0
C289 C 0.53537 0.20395 0.74783 0.0
C290 C 0.5529 0.17832 0.77229 0.0
C291 C 0.5564 0.21556 0.77142 0.0
N292 N 0.54241 0.32584 0.75827 0.0
C293 C 0.5702 0.39487 0.75345 0.0
C294 C 0.53548 0.39375 0.75763 0.0
C295 C 0.50449 0.35754 0.76204 0.0
C296 C 0.50852 0.32439 0.7623 0.0
C297 C 0.57308 0.36076 0.75387 0.0
H298 H 0.48381 0.29738 0.76575 0.0
H299 H 0.60012 0.36263 0.75065 0.0
H300 H 0.52769 0.21264 0.73816 0.0
H301 H 0.56603 0.234 0.78064 0.0
C302 C 0.45828 0.21839 0.77061 0.0
C303 C 0.57896 0.31584 0.79228 0.0
C304 C 0.51095 0.26919 0.72425 0.0
C305 C 0.63416 0.31027 0.74767 0.0
H306 H 0.51597 0.27562 0.81231 0.0
H307 H 0.45034 0.21949 0.80072 0.0
H308 H 0.39839 0.18645 0.74938 0.0
H309 H 0.42704 0.21732 0.72429 0.0
H310 H 0.57605 0.29435 0.70505 0.0
H311 H 0.64285 0.31353 0.71774 0.0
H312 H 0.6935 0.34652 0.76871 0.0
H313 H 0.66328 0.35289 0.79282 0.0
H314 H 0.52107 0.14865 0.73893 0.0
H315 H 0.5604 0.16966 0.78207 0.0
H316 H 0.59526 0.42198 0.75004 0.0
H317 H 0.47674 0.35442 0.76512 0.0
C318 C 0.49945 0.76409 0.55174 0.0
C319 C 0.528 0.77714 0.54138 0.0
C320 C 0.56105 0.78086 0.5476 0.0
C321 C 0.55119 0.77036 0.56143 0.0
N322 N 0.51406 0.76042 0.56427 0.0
Co323 Co 0.48908 0.74663 0.58318 0.0
N324 N 0.54005 0.76962 0.59313 0.0
C325 C 0.57426 0.77817 0.58714 0.0
C326 C 0.60464 0.79291 0.59658 0.0
C327 C 0.58841 0.79312 0.60933 0.0
C328 C 0.54881 0.77828 0.60699 0.0
N329 N 0.4633 0.73278 0.60193 0.0
C330 C 0.47828 0.74514 0.615 0.0
C331 C 0.44962 0.72627 0.62521 0.0
C332 C 0.41588 0.70108 0.61829 0.0
C333 C 0.42564 0.70581 0.6043 0.0
N334 N 0.43812 0.72309 0.57328 0.0
C335 C 0.40348 0.69621 0.57867 0.0
C336 C 0.3733 0.68392 0.56924 0.0
C337 C 0.39 0.70436 0.55713 0.0
C338 C 0.42957 0.7283 0.55992 0.0
N339 N 0.48796 0.69593 0.58253 0.0
C340 C 0.49547 0.62839 0.58152 0.0
C341 C 0.50077 0.64899 0.5941 0.0
C342 C 0.49714 0.6824 0.59437 0.0
C343 C 0.48534 0.64204 0.56947 0.0
C344 C 0.48131 0.67544 0.57023 0.0
N345 N 0.49169 0.79773 0.58392 0.0
C346 C 0.46362 0.83837 0.58903 0.0
C347 C 0.49905 0.87251 0.58572 0.0
C348 C 0.53019 0.86782 0.58127 0.0
C349 C 0.52598 0.83066 0.58047 0.0
C350 C 0.46058 0.80139 0.58808 0.0
H351 H 0.55089 0.82879 0.57708 0.0
H352 H 0.43322 0.77578 0.59082 0.0
H353 H 0.5029 0.6978 0.6042 0.0
H354 H 0.47356 0.68511 0.56077 0.0
C355 C 0.57747 0.77704 0.57245 0.0
C356 C 0.45837 0.75367 0.54938 0.0
C357 C 0.52005 0.77009 0.61826 0.0
C358 C 0.39951 0.68867 0.59312 0.0
H359 H 0.52564 0.78388 0.53052 0.0
H360 H 0.58947 0.79207 0.54278 0.0
H361 H 0.63514 0.80326 0.59442 0.0
H362 H 0.60388 0.80271 0.61924 0.0
H363 H 0.4529 0.72928 0.63653 0.0
H364 H 0.38756 0.6819 0.62292 0.0
H365 H 0.3426 0.66368 0.57109 0.0
H366 H 0.37478 0.70177 0.54737 0.0
H367 H 0.50898 0.64012 0.60369 0.0
H368 H 0.4804 0.62697 0.55951 0.0
H369 H 0.43859 0.84015 0.59258 0.0
H370 H 0.55788 0.89276 0.57824 0.0
C371 C 0.74326 0.49392 0.88553 0.0
C372 C 0.75293 0.52248 0.87537 0.0
C373 C 0.77553 0.55762 0.88189 0.0
C374 C 0.77837 0.54863 0.89562 0.0
N375 N 0.7596 0.50984 0.89822 0.0
Co376 Co 0.75301 0.48457 0.91715 0.0
N377 N 0.78347 0.53619 0.92702 0.0
C378 C 0.80289 0.57162 0.92078 0.0
C379 C 0.82179 0.6018 0.93014 0.0
C380 C 0.81407 0.58462 0.94313 0.0
C381 C 0.79075 0.54477 0.94096 0.0
N382 N 0.74403 0.45899 0.93609 0.0
C383 C 0.75355 0.47467 0.94921 0.0
C384 C 0.74081 0.4459 0.9595 0.0
C385 C 0.72214 0.41093 0.95269 0.0
C386 C 0.72459 0.42023 0.93871 0.0
N387 N 0.72424 0.4328 0.90726 0.0
C388 C 0.71027 0.39729 0.91323 0.0
C389 C 0.69118 0.36683 0.90404 0.0
C390 C 0.69272 0.38377 0.89141 0.0
C391 C 0.71294 0.42389 0.8936 0.0
N392 N 0.80344 0.48426 0.91491 0.0
C393 C 0.87864 0.49117 0.91498 0.0
C394 C 0.84611 0.45855 0.92084 0.0
C395 C 0.80914 0.45575 0.92074 0.0
C396 C 0.8722 0.51899 0.90844 0.0
C397 C 0.83489 0.51475 0.90835 0.0
N398 N 0.70356 0.48601 0.91942 0.0
C399 C 0.63288 0.45399 0.92126 0.0
C400 C 0.63425 0.49003 0.92121 0.0
C401 C 0.67078 0.52375 0.92041 0.0
C402 C 0.70456 0.52113 0.91936 0.0
C403 C 0.66775 0.45265 0.92061 0.0
H404 H 0.73114 0.54817 0.91832 0.0
H405 H 0.66518 0.42442 0.921 0.0
H406 H 0.78578 0.43056 0.92564 0.0
H407 H 0.83262 0.53709 0.90303 0.0
C408 C 0.79858 0.57572 0.90634 0.0
C409 C 0.71867 0.45206 0.88256 0.0
C410 C 0.77506 0.51635 0.95248 0.0
C411 C 0.71042 0.3933 0.92777 0.0
H412 H 0.74431 0.5183 0.86441 0.0
H413 H 0.78808 0.58633 0.8772 0.0
H414 H 0.83809 0.63274 0.92784 0.0
H415 H 0.82381 0.59975 0.9531 0.0
H416 H 0.74482 0.44972 0.97077 0.0
H417 H 0.70869 0.38214 0.95737 0.0
H418 H 0.67614 0.33592 0.9064 0.0
H419 H 0.67915 0.36811 0.88181 0.0
H420 H 0.84934 0.43583 0.92589 0.0
H421 H 0.89601 0.54418 0.90334 0.0
H422 H 0.6051 0.42706 0.92195 0.0
H423 H 0.67326 0.55226 0.92021 0.0
C424 C 0.26743 0.73981 0.2189 0.0
C425 C 0.25745 0.75693 0.20819 0.0
C426 C 0.25366 0.78634 0.21427 0.0
C427 C 0.26158 0.78562 0.22833 0.0
N428 N 0.26999 0.75756 0.23143 0.0
Co429 Co 0.2828 0.74628 0.25046 0.0
N430 N 0.26031 0.77508 0.26007 0.0
C431 C 0.2526 0.80104 0.25387 0.0
C432 C 0.23807 0.81724 0.26312 0.0
C433 C 0.23709 0.80086 0.27596 0.0
C434 C 0.25131 0.7756 0.27387 0.0
N435 N 0.29583 0.73455 0.26938 0.0
C436 C 0.28356 0.73799 0.28235 0.0
C437 C 0.30172 0.72804 0.29276 0.0
C438 C 0.32631 0.71843 0.28607 0.0
C439 C 0.32197 0.72306 0.27201 0.0
N440 N 0.30564 0.71781 0.24087 0.0
C441 C 0.33095 0.70845 0.24658 0.0
C442 C 0.34147 0.68837 0.23751 0.0
C443 C 0.32162 0.68496 0.22529 0.0
C444 C 0.30015 0.70339 0.22759 0.0
N445 N 0.33406 0.79548 0.24979 0.0
C446 C 0.40237 0.87043 0.24839 0.0
C447 C 0.38066 0.85646 0.26087 0.0
C448 C 0.3471 0.81934 0.26136 0.0
C449 C 0.38937 0.84516 0.23668 0.0
C450 C 0.35548 0.80795 0.23762 0.0
N451 N 0.23121 0.69806 0.25112 0.0
C452 C 0.18977 0.629 0.25576 0.0
C453 C 0.15616 0.63028 0.25177 0.0
C454 C 0.16139 0.66653 0.24757 0.0
C455 C 0.19871 0.69966 0.24731 0.0
C456 C 0.2269 0.66308 0.25533 0.0
H457 H 0.20109 0.72675 0.24402 0.0
H458 H 0.25213 0.66114 0.25837 0.0
H459 H 0.33111 0.81057 0.2711 0.0
H460 H 0.34619 0.78959 0.22838 0.0
C461 C 0.25478 0.80556 0.23917 0.0
C462 C 0.27674 0.70857 0.21674 0.0
C463 C 0.25894 0.7552 0.28534 0.0
C464 C 0.33827 0.71251 0.26103 0.0
H465 H 0.2534 0.749 0.19716 0.0
H466 H 0.24463 0.80491 0.20914 0.0
H467 H 0.22849 0.83783 0.26076 0.0
H468 H 0.22757 0.80725 0.28577 0.0
H469 H 0.29852 0.72871 0.30405 0.0
H470 H 0.34472 0.7087 0.29088 0.0
H471 H 0.3599 0.67607 0.2397 0.0
H472 H 0.32282 0.67048 0.2158 0.0
H473 H 0.38871 0.87454 0.27021 0.0
H474 H 0.40522 0.85395 0.22683 0.0
H475 H 0.18759 0.60178 0.259 0.0
H476 H 0.13666 0.66964 0.24465 0.0
C477 C 0.53384 0.25551 0.5519 0.0
C478 C 0.50571 0.23784 0.5415 0.0
C479 C 0.47034 0.22545 0.54781 0.0
C480 C 0.47879 0.23615 0.56167 0.0
N481 N 0.51749 0.25528 0.56455 0.0
Co482 Co 0.54225 0.27274 0.58364 0.0
N483 N 0.4902 0.25031 0.59331 0.0
C484 C 0.45484 0.2338 0.58697 0.0
C485 C 0.42435 0.22134 0.59627 0.0
C486 C 0.44121 0.23047 0.60932 0.0
C487 C 0.48121 0.24806 0.60725 0.0
N488 N 0.5673 0.28896 0.6027 0.0
C489 C 0.5512 0.28247 0.61575 0.0
C490 C 0.57965 0.29904 0.62615 0.0
C491 C 0.61486 0.31607 0.61949 0.0
C492 C 0.60602 0.30912 0.60547 0.0
N493 N 0.59437 0.29597 0.57402 0.0
C494 C 0.6298 0.31706 0.58015 0.0
C495 C 0.6605 0.32855 0.57106 0.0
C496 C 0.6438 0.31355 0.55834 0.0
C497 C 0.60362 0.29375 0.56041 0.0
N498 N 0.54282 0.32383 0.58164 0.0
C499 C 0.53771 0.3933 0.58122 0.0
C500 C 0.5708 0.39336 0.58657 0.0
C501 C 0.57269 0.35863 0.58671 0.0
C502 C 0.50831 0.35824 0.57555 0.0
C503 C 0.51158 0.32465 0.57573 0.0
N504 N 0.54066 0.22166 0.58561 0.0
C505 C 0.57174 0.1828 0.58946 0.0
C506 C 0.53676 0.14798 0.58651 0.0
C507 C 0.50387 0.15107 0.58356 0.0
C508 C 0.50638 0.18749 0.58321 0.0
C509 C 0.57307 0.21912 0.58892 0.0
H510 H 0.47999 0.18716 0.58085 0.0
H511 H 0.60055 0.2449 0.59106 0.0
H512 H 0.59839 0.36059 0.59115 0.0
H513 H 0.48793 0.29961 0.5711 0.0
C514 C 0.45116 0.22744 0.57238 0.0
C515 C 0.57567 0.27179 0.54926 0.0
C516 C 0.5094 0.26131 0.61886 0.0
C517 C 0.6334 0.3217 0.59467 0.0
H518 H 0.51032 0.2339 0.53053 0.0
H519 H 0.44181 0.20973 0.54294 0.0
H520 H 0.39345 0.2065 0.59386 0.0
H521 H 0.42582 0.22441 0.61924 0.0
H522 H 0.57548 0.29906 0.63741 0.0
H523 H 0.64351 0.33177 0.62428 0.0
H524 H 0.69138 0.34446 0.57351 0.0
H525 H 0.65955 0.31599 0.54873 0.0
H526 H 0.59471 0.41978 0.59099 0.0
H527 H 0.48254 0.35659 0.5709 0.0
H528 H 0.59815 0.18218 0.59186 0.0
H529 H 0.47581 0.12525 0.58158 0.0
C530 C 0.29093 0.52946 0.88542 0.0
C531 C 0.28129 0.50083 0.87529 0.0
C532 C 0.25851 0.46574 0.88182 0.0
C533 C 0.25557 0.47483 0.89553 0.0
N534 N 0.27444 0.51362 0.8981 0.0
Co535 Co 0.28096 0.53887 0.91702 0.0
N536 N 0.24919 0.48733 0.92683 0.0
C537 C 0.22929 0.45203 0.92054 0.0
C538 C 0.20955 0.42186 0.92985 0.0
C539 C 0.21723 0.43894 0.94286 0.0
C540 C 0.24139 0.47871 0.94076 0.0
N541 N 0.2901 0.56436 0.93599 0.0
C542 C 0.28005 0.54863 0.94908 0.0
C543 C 0.29325 0.57736 0.9594 0.0
C544 C 0.31279 0.61234 0.95263 0.0
C545 C 0.31037 0.60308 0.93864 0.0
N546 N 0.31067 0.59063 0.90718 0.0
C547 C 0.32518 0.62615 0.9132 0.0
C548 C 0.3446 0.65662 0.90404 0.0
C549 C 0.34264 0.63966 0.89137 0.0
C550 C 0.32186 0.59953 0.89352 0.0
N551 N 0.23121 0.54033 0.91459 0.0
C552 C 0.15639 0.53481 0.91401 0.0
C553 C 0.18873 0.56618 0.92062 0.0
C554 C 0.22546 0.5684 0.92076 0.0
C555 C 0.16313 0.50731 0.90727 0.0
C556 C 0.20014 0.51086 0.90752 0.0
N557 N 0.32977 0.53618 0.91942 0.0
C558 C 0.40053 0.56629 0.92004 0.0
C559 C 0.39817 0.52965 0.92027 0.0
C560 C 0.36071 0.49677 0.92071 0.0
C561 C 0.32759 0.50057 0.92008 0.0
C562 C 0.36626 0.56889 0.9198 0.0
H563 H 0.30048 0.47384 0.91996 0.0
H564 H 0.36988 0.59759 0.91972 0.0
H565 H 0.24864 0.59288 0.92606 0.0
H566 H 0.20239 0.48863 0.90211 0.0
C567 C 0.23444 0.44789 0.90618 0.0
C568 C 0.31552 0.57131 0.88242 0.0
C569 C 0.2576 0.50695 0.95231 0.0
C570 C 0.32505 0.63003 0.92773 0.0
H571 H 0.28995 0.50494 0.86433 0.0
H572 H 0.24574 0.43701 0.87713 0.0
H573 H 0.19286 0.39097 0.92751 0.0
H574 H 0.20702 0.42376 0.95279 0.0
H575 H 0.28895 0.57352 0.97067 0.0
H576 H 0.32675 0.64111 0.95734 0.0
H577 H 0.36005 0.68752 0.90643 0.0
H578 H 0.35626 0.6553 0.88178 0.0
H579 H 0.18595 0.5891 0.9257 0.0
H580 H 0.1397 0.48211 0.90207 0.0
H581 H 0.42857 0.59297 0.91976 0.0
H582 H 0.35647 0.46765 0.92151 0.0
C583 C 0.76747 0.28338 0.21886 0.0
C584 C 0.77726 0.26642 0.20803 0.0
C585 C 0.78147 0.23712 0.214 0.0
C586 C 0.77397 0.23774 0.2281 0.0
N587 N 0.76545 0.26566 0.23134 0.0
Co588 Co 0.75298 0.27665 0.25045 0.0
N589 N 0.77622 0.24828 0.25986 0.0
C590 C 0.78394 0.22247 0.25356 0.0
C591 C 0.79937 0.20683 0.26266 0.0
C592 C 0.80097 0.22348 0.27551 0.0
C593 C 0.78617 0.24831 0.27356 0.0
N594 N 0.74026 0.28803 0.26946 0.0
C595 C 0.75335 0.28506 0.28234 0.0
C596 C 0.73511 0.29443 0.29289 0.0
C597 C 0.70972 0.3033 0.28638 0.0
C598 C 0.71366 0.2988 0.27228 0.0
N599 N 0.72942 0.30472 0.24108 0.0
C600 C 0.70387 0.31352 0.24694 0.0
C601 C 0.69273 0.33332 0.23798 0.0
C602 C 0.71241 0.33712 0.22568 0.0
C603 C 0.73443 0.31921 0.22783 0.0
N604 N 0.70199 0.22714 0.24988 0.0
C605 C 0.6351 0.15127 0.24842 0.0
C606 C 0.64686 0.17695 0.23685 0.0
C607 C 0.68018 0.21457 0.23779 0.0
C608 C 0.65676 0.16554 0.2609 0.0
C609 C 0.68964 0.20312 0.26141 0.0
N610 N 0.80433 0.32514 0.25104 0.0
C611 C 0.8455 0.39399 0.25612 0.0
C612 C 0.87931 0.39281 0.25237 0.0
C613 C 0.87424 0.35695 0.24774 0.0
C614 C 0.83694 0.32386 0.24716 0.0
C615 C 0.80841 0.35991 0.25543 0.0
H616 H 0.83466 0.29705 0.24356 0.0
H617 H 0.78307 0.36159 0.25852 0.0
H618 H 0.68894 0.23305 0.22859 0.0
H619 H 0.70572 0.21216 0.27115 0.0
C620 C 0.78128 0.2179 0.23885 0.0
C621 C 0.75781 0.31443 0.21686 0.0
C622 C 0.77912 0.26902 0.28508 0.0
C623 C 0.69679 0.30912 0.26142 0.0
H624 H 0.78091 0.27436 0.197 0.0
H625 H 0.79048 0.21869 0.20876 0.0
H626 H 0.80927 0.18654 0.2602 0.0
H627 H 0.8114 0.21763 0.28522 0.0
H628 H 0.73888 0.29394 0.30416 0.0
H629 H 0.69112 0.31257 0.29134 0.0
H630 H 0.67395 0.34514 0.24029 0.0
H631 H 0.71071 0.35146 0.21623 0.0
H632 H 0.63129 0.16767 0.22695 0.0
H633 H 0.6486 0.14766 0.27029 0.0
H634 H 0.84765 0.42083 0.25983 0.0
H635 H 0.89898 0.35435 0.24441 0.0
H636 H 0.19031 0.47801 0.9678 0.0
H637 H 0.31126 0.50993 0.97091 0.0
H638 H 0.18314 0.46832 0.99337 0.0
H639 H 0.30495 0.50165 0.99642 0.0
H640 H 0.28393 0.46999 0.0419 0.0
H641 H 0.27995 0.46093 0.01636 0.0
H642 H 0.20218 0.50759 0.01398 0.0
H643 H 0.20524 0.51503 0.03957 0.0
C644 C 0.21512 0.48214 0.97397 0.0
C645 C 0.25123 0.49436 0.96741 0.0
C646 C 0.21125 0.47711 0.98865 0.0
C647 C 0.24351 0.48441 0.99713 0.0
C648 C 0.27921 0.49509 0.99036 0.0
C649 C 0.28297 0.49996 0.97571 0.0
C650 C 0.2649 0.47691 0.03592 0.0
C651 C 0.24432 0.49254 0.04273 0.0
C652 C 0.26308 0.47238 0.02124 0.0
C653 C 0.24103 0.48385 0.01294 0.0
C654 C 0.21905 0.49785 0.01991 0.0
C655 C 0.22073 0.50216 0.0346 0.0
H656 H 0.84136 0.30001 0.37508 0.0
H657 H 0.71978 0.21229 0.37182 0.0
H658 H 0.84841 0.29815 0.34948 0.0
H659 H 0.72599 0.21095 0.34629 0.0
H660 H 0.74678 0.20183 0.30062 0.0
H661 H 0.7504 0.19553 0.32611 0.0
H662 H 0.82982 0.31991 0.32915 0.0
H663 H 0.82708 0.3255 0.3036 0.0
C664 C 0.8164 0.27967 0.36888 0.0
C665 C 0.78015 0.25599 0.3754 0.0
C666 C 0.8202 0.27892 0.35418 0.0
C667 C 0.78772 0.25461 0.34566 0.0
C668 C 0.75188 0.22966 0.35238 0.0
C669 C 0.74819 0.23036 0.36705 0.0
C670 C 0.76603 0.22751 0.30673 0.0
C671 C 0.78721 0.26405 0.30011 0.0
C672 C 0.76767 0.22409 0.32139 0.0
C673 C 0.79016 0.25724 0.32986 0.0
C674 C 0.81261 0.29356 0.32308 0.0
C675 C 0.8111 0.29689 0.30841 0.0
H676 H 0.51279 0.70233 0.70459 0.0
H677 H 0.55107 0.82456 0.7088 0.0
H678 H 0.52016 0.70977 0.67905 0.0
H679 H 0.55987 0.83275 0.68328 0.0
H680 H 0.512 0.81661 0.63753 0.0
H681 H 0.51921 0.81648 0.66309 0.0
H682 H 0.56058 0.73472 0.65884 0.0
H683 H 0.55192 0.73412 0.63331 0.0
C684 C 0.52412 0.73109 0.70004 0.0
C685 C 0.53195 0.76295 0.70868 0.0
C686 C 0.52837 0.73548 0.68537 0.0
C687 C 0.54049 0.77191 0.67894 0.0
C688 C 0.54996 0.80414 0.68774 0.0
C689 C 0.54555 0.79966 0.7024 0.0
C690 C 0.52357 0.79944 0.64209 0.0
C691 C 0.53197 0.77587 0.63344 0.0
C692 C 0.52777 0.7993 0.65676 0.0
C693 C 0.54041 0.77546 0.66318 0.0
C694 C 0.55029 0.75307 0.65438 0.0
C695 C 0.54593 0.75313 0.63972 0.0
H696 H 0.74849 0.55215 0.04214 0.0
H697 H 0.82776 0.50783 0.03963 0.0
H698 H 0.75231 0.5614 0.01661 0.0
H699 H 0.83071 0.51551 0.01405 0.0
H700 H 0.84241 0.54583 0.96794 0.0
H701 H 0.84955 0.55526 0.99352 0.0
H702 H 0.7274 0.52056 0.99664 0.0
H703 H 0.7211 0.51248 0.97112 0.0
C704 C 0.76761 0.54543 0.03613 0.0
C705 C 0.7884 0.52995 0.04288 0.0
C706 C 0.76935 0.55008 0.02145 0.0
C707 C 0.79154 0.53889 0.01311 0.0
C708 C 0.81372 0.52503 0.02002 0.0
C709 C 0.81211 0.52059 0.03471 0.0
C710 C 0.81751 0.54134 0.97413 0.0
C711 C 0.78131 0.52879 0.96759 0.0
C712 C 0.82137 0.54622 0.98881 0.0
C713 C 0.78902 0.53847 0.9973 0.0
C714 C 0.75321 0.52746 0.99056 0.0
C715 C 0.74945 0.52272 0.97591 0.0
H716 H 0.29569 0.8234 0.30025 0.0
H717 H 0.21126 0.70113 0.3046 0.0
H718 H 0.29534 0.83178 0.32577 0.0
H719 H 0.21161 0.70876 0.33014 0.0
H720 H 0.20467 0.7333 0.37587 0.0
H721 H 0.19637 0.73366 0.35035 0.0
H722 H 0.31985 0.81592 0.34596 0.0
H723 H 0.32742 0.8163 0.37151 0.0
C724 C 0.27628 0.79853 0.30668 0.0
C725 C 0.25295 0.76176 0.30044 0.0
C726 C 0.27649 0.80312 0.32134 0.0
C727 C 0.25367 0.77093 0.33018 0.0
C728 C 0.22916 0.73443 0.32379 0.0
C729 C 0.22887 0.72994 0.30912 0.0
C730 C 0.2297 0.75237 0.36944 0.0
C731 C 0.26657 0.77532 0.37568 0.0
C732 C 0.22514 0.75217 0.35478 0.0
C733 C 0.25744 0.77462 0.34594 0.0
C734 C 0.29408 0.79868 0.35232 0.0
C735 C 0.29856 0.79896 0.36699 0.0
H736 H 0.51912 0.32523 0.70565 0.0
H737 H 0.47598 0.20178 0.70881 0.0
H738 H 0.51077 0.31932 0.6801 0.0
H739 H 0.46604 0.19515 0.68333 0.0
H740 H 0.51348 0.21166 0.63764 0.0
H741 H 0.50599 0.21063 0.66316 0.0
H742 H 0.47044 0.29712 0.65975 0.0
H743 H 0.4793 0.29869 0.63415 0.0
C744 C 0.50651 0.29658 0.70088 0.0
C745 C 0.49765 0.26391 0.70923 0.0
C746 C 0.50166 0.29307 0.68621 0.0
C747 C 0.48788 0.25673 0.67948 0.0
C748 C 0.47727 0.22373 0.68801 0.0
C749 C 0.48233 0.22733 0.70267 0.0
C750 C 0.5031 0.22965 0.64236 0.0
C751 C 0.49667 0.255 0.63394 0.0
C752 C 0.49873 0.22912 0.65702 0.0
C753 C 0.48774 0.25395 0.66369 0.0
C754 C 0.4795 0.27799 0.6551 0.0
C755 C 0.48403 0.27857 0.64041 0.0
H756 H 0.21447 0.64181 0.20632 0.0
H757 H 0.33066 0.73299 0.19566 0.0
H758 H 0.21177 0.60673 0.18459 0.0
H759 H 0.32839 0.69818 0.17403 0.0
H760 H 0.33065 0.6044 0.14662 0.0
H761 H 0.3287 0.63734 0.16818 0.0
H762 H 0.21132 0.61002 0.15807 0.0
H763 H 0.21368 0.57722 0.13641 0.0
C764 C 0.23911 0.65464 0.19917 0.0
C765 C 0.27266 0.69018 0.20259 0.0
C766 C 0.23767 0.63455 0.18675 0.0
C767 C 0.27005 0.64931 0.17759 0.0
C768 C 0.30315 0.68555 0.18091 0.0
C769 C 0.30435 0.70577 0.1932 0.0
C770 C 0.30427 0.60499 0.14915 0.0
C771 C 0.27226 0.58815 0.13991 0.0
C772 C 0.30325 0.62422 0.16141 0.0
C773 C 0.27001 0.62684 0.16484 0.0
C774 C 0.23735 0.60853 0.15582 0.0
C775 C 0.23859 0.58965 0.14344 0.0
H776 H 0.65042 0.20911 0.47047 0.0
H777 H 0.73825 0.32726 0.4804 0.0
H778 H 0.61373 0.20663 0.49169 0.0
H779 H 0.70207 0.3251 0.50161 0.0
H780 H 0.60753 0.32634 0.52844 0.0
H781 H 0.64161 0.32437 0.50721 0.0
H782 H 0.61383 0.20712 0.5177 0.0
H783 H 0.57954 0.2094 0.53892 0.0
C784 C 0.66222 0.23423 0.47739 0.0
C785 C 0.69722 0.26829 0.47387 0.0
C786 C 0.6412 0.23293 0.48952 0.0
C787 C 0.65455 0.26586 0.49833 0.0
C788 C 0.6904 0.29943 0.49498 0.0
C789 C 0.71146 0.30059 0.48293 0.0
C790 C 0.60814 0.29995 0.52602 0.0
C791 C 0.59071 0.26793 0.53523 0.0
C792 C 0.6281 0.29892 0.51397 0.0
C793 C 0.63106 0.26575 0.51077 0.0
C794 C 0.61211 0.23308 0.51975 0.0
C795 C 0.59234 0.23426 0.53187 0.0
H796 H 0.44162 0.63771 0.80091 0.0
H797 H 0.43009 0.73516 0.81439 0.0
H798 H 0.40778 0.6017 0.82234 0.0
H799 H 0.39609 0.69943 0.83573 0.0
H800 H 0.2958 0.60846 0.86266 0.0
H801 H 0.33143 0.64154 0.84121 0.0
H802 H 0.41285 0.6013 0.84884 0.0
H803 H 0.37707 0.56846 0.87042 0.0
C804 C 0.43254 0.65168 0.80864 0.0
C805 C 0.43892 0.68938 0.80612 0.0
C806 C 0.41303 0.63106 0.82088 0.0
C807 C 0.39876 0.64742 0.83075 0.0
C808 C 0.40611 0.68562 0.82831 0.0
C809 C 0.42602 0.70635 0.81618 0.0
C810 C 0.32097 0.60625 0.85961 0.0
C811 C 0.33367 0.58592 0.8682 0.0
C812 C 0.34169 0.62554 0.84741 0.0
C813 C 0.37547 0.62467 0.84335 0.0
C814 C 0.38702 0.60264 0.85161 0.0
C815 C 0.36649 0.58369 0.86394 0.0
H816 H 0.70114 0.41603 0.14653 0.0
H817 H 0.81937 0.44668 0.13678 0.0
H818 H 0.70355 0.38345 0.16811 0.0
H819 H 0.8222 0.41422 0.15846 0.0
H820 H 0.81902 0.38222 0.20661 0.0
H821 H 0.82104 0.41706 0.1849 0.0
H822 H 0.70554 0.3237 0.17412 0.0
H823 H 0.70393 0.28916 0.19574 0.0
C824 C 0.72786 0.41623 0.14916 0.0
C825 C 0.76009 0.43391 0.14003 0.0
C826 C 0.72917 0.39723 0.16144 0.0
C827 C 0.76293 0.39569 0.165 0.0
C828 C 0.79577 0.41485 0.15611 0.0
C829 C 0.79425 0.43352 0.14371 0.0
C830 C 0.79449 0.36895 0.19941 0.0
C831 C 0.76145 0.33292 0.20276 0.0
C832 C 0.79553 0.38889 0.187 0.0
C833 C 0.76327 0.37349 0.17778 0.0
C834 C 0.73068 0.33682 0.18104 0.0
C835 C 0.72986 0.31677 0.19333 0.0
H836 H 0.41563 0.78964 0.54589 0.0
H837 H 0.46449 0.73138 0.52232 0.0
H838 H 0.38257 0.79332 0.52456 0.0
H839 H 0.43334 0.73711 0.50085 0.0
H840 H 0.39726 0.78982 0.46324 0.0
H841 H 0.43408 0.79367 0.48457 0.0
H842 H 0.32669 0.73662 0.50824 0.0
H843 H 0.28973 0.73073 0.48676 0.0
C844 C 0.42025 0.77866 0.53606 0.0
C845 C 0.44373 0.76128 0.53577 0.0
C846 C 0.40111 0.78054 0.52387 0.0
C847 C 0.40549 0.76574 0.51097 0.0
C848 C 0.42983 0.74933 0.51057 0.0
C849 C 0.44815 0.74652 0.52285 0.0
C850 C 0.38159 0.77869 0.47306 0.0
C851 C 0.34058 0.76102 0.47333 0.0
C852 C 0.40266 0.78067 0.48525 0.0
C853 C 0.38338 0.76568 0.49814 0.0
C854 C 0.3425 0.74899 0.49853 0.0
C855 C 0.32132 0.74609 0.48625 0.0
H856 H 0.73834 0.41547 0.86254 0.0
H857 H 0.65651 0.4544 0.87091 0.0
H858 H 0.70246 0.38268 0.84109 0.0
H859 H 0.62045 0.42184 0.84933 0.0
H860 H 0.59069 0.38638 0.80144 0.0
H861 H 0.62488 0.42204 0.82287 0.0
H862 H 0.63816 0.32472 0.83553 0.0
H863 H 0.60384 0.28936 0.81417 0.0
C864 C 0.71296 0.41749 0.85963 0.0
C865 C 0.70018 0.43743 0.86839 0.0
C866 C 0.69211 0.39837 0.84743 0.0
C867 C 0.65812 0.39904 0.84353 0.0
C868 C 0.64645 0.42067 0.85197 0.0
C869 C 0.66713 0.43945 0.8643 0.0
C870 C 0.60023 0.37244 0.809 0.0
C871 C 0.59422 0.33497 0.80627 0.0
C872 C 0.61994 0.39285 0.82124 0.0
C873 C 0.63473 0.37651 0.83091 0.0
C874 C 0.62775 0.33852 0.82826 0.0
C875 C 0.60768 0.31801 0.81613 0.0
H876 H 0.93321 0.51981 0.11242 0.0
H877 H 0.91437 0.47333 0.07026 0.0
H878 H 0.99935 0.52997 0.11218 0.0
H879 H 0.9809 0.48356 0.07 0.0
H880 H 0.11804 0.54878 0.0702 0.0
H881 H 0.0515 0.53854 0.07001 0.0
H882 H 0.03318 0.49167 0.11211 0.0
H883 H 0.09933 0.50185 0.11229 0.0
C884 C 0.94316 0.51172 0.10307 0.0
C885 C 0.91822 0.49574 0.09135 0.0
C886 C 0.98114 0.51737 0.10296 0.0
C887 C 0.99579 0.50773 0.09106 0.0
C888 C 0.97088 0.49169 0.07932 0.0
C889 C 0.93253 0.48544 0.07951 0.0
C890 C 0.0999 0.53657 0.07945 0.0
C891 C 0.11426 0.52615 0.09125 0.0
C892 C 0.06155 0.53031 0.07929 0.0
C893 C 0.03667 0.51414 0.09104 0.0
C894 C 0.05136 0.50438 0.1029 0.0
C895 C 0.08935 0.51003 0.10297 0.0
H896 H 0.62652 0.0808 0.41039 0.0
H897 H 0.55747 0.12522 0.42928 0.0
H898 H 0.57066 0.01504 0.41111 0.0
H899 H 0.50067 0.05934 0.42934 0.0
H900 H 0.4198 0.93243 0.44275 0.0
H901 H 0.475 0.99866 0.44118 0.0
H902 H 0.50904 0.96995 0.40178 0.0
H903 H 0.45392 0.90334 0.4035 0.0
C904 C 0.59932 0.07666 0.41465 0.0
C905 C 0.59696 0.10864 0.41995 0.0
C906 C 0.56693 0.03873 0.41489 0.0
C907 C 0.53081 0.03133 0.42038 0.0
C908 C 0.52804 0.0635 0.42527 0.0
C909 C 0.56058 0.10155 0.42505 0.0
C910 C 0.43893 0.94021 0.4337 0.0
C911 C 0.4321 0.91229 0.42322 0.0
C912 C 0.47065 0.97846 0.43276 0.0
C913 C 0.49669 0.99025 0.42129 0.0
C914 C 0.49011 0.96216 0.41088 0.0
C915 C 0.45841 0.92376 0.41186 0.0
H916 H 0.56556 0.45511 0.73859 0.0
H917 H 0.49508 0.41414 0.7762 0.0
H918 H 0.55572 0.51118 0.73784 0.0
H919 H 0.48513 0.46987 0.77541 0.0
H920 H 0.44329 0.55459 0.76331 0.0
H921 H 0.4526 0.49815 0.76311 0.0
H922 H 0.57128 0.57152 0.74887 0.0
H923 H 0.56153 0.62746 0.74858 0.0
C924 C 0.54827 0.45809 0.74679 0.0
C925 C 0.531 0.42948 0.7574 0.0
C926 C 0.54251 0.49042 0.74635 0.0
C927 C 0.51928 0.49534 0.7565 0.0
C928 C 0.50246 0.46698 0.76719 0.0
C929 C 0.50826 0.43478 0.76765 0.0
C930 C 0.47124 0.55869 0.75996 0.0
C931 C 0.50163 0.59604 0.75604 0.0
C932 C 0.4768 0.52624 0.76001 0.0
C933 C 0.51288 0.52988 0.75607 0.0
C934 C 0.54297 0.5671 0.75189 0.0
C935 C 0.53747 0.59951 0.75189 0.0
H936 H 0.56987 0.11818 0.60474 0.0
H937 H 0.49644 0.08778 0.56792 0.0
H938 H 0.56023 0.05216 0.60527 0.0
H939 H 0.48714 0.02233 0.56832 0.0
H940 H 0.44567 0.8961 0.57969 0.0
H941 H 0.45527 0.9619 0.5804 0.0
H942 H 0.57419 1.0068 0.59425 0.0
H943 H 0.56399 0.94096 0.5942 0.0
C944 C 0.55205 0.09764 0.59665 0.0
C945 C 0.53368 0.10851 0.58638 0.0
C946 C 0.54643 0.05958 0.59695 0.0
C947 C 0.52242 0.03125 0.58693 0.0
C948 C 0.50494 0.04261 0.57647 0.0
C949 C 0.51045 0.08046 0.5762 0.0
C950 C 0.47371 0.91985 0.58309 0.0
C951 C 0.50405 0.91277 0.58677 0.0
C952 C 0.47946 0.9579 0.58332 0.0
C953 C 0.51575 0.99025 0.58725 0.0
C954 C 0.54575 0.98298 0.59124 0.0
C955 C 0.54 0.94499 0.59103 0.0
H956 H 0.40519 0.46933 0.90891 0.0
H957 H 0.47282 0.57918 0.93069 0.0
H958 H 0.45944 0.45813 0.91011 0.0
H959 H 0.52901 0.56995 0.93049 0.0
H960 H 0.61559 0.52992 0.94014 0.0
H961 H 0.55935 0.53939 0.93998 0.0
H962 H 0.51782 0.47027 0.90193 0.0
H963 H 0.57274 0.45884 0.90286 0.0
C964 C 0.4316 0.49133 0.914 0.0
C965 C 0.43369 0.52491 0.91999 0.0
C966 C 0.46347 0.4852 0.9144 0.0
C967 C 0.49932 0.51293 0.92043 0.0
C968 C 0.50193 0.54721 0.92602 0.0
C969 C 0.46963 0.55295 0.9259 0.0
C970 C 0.59398 0.51633 0.93188 0.0
C971 C 0.59831 0.49326 0.92161 0.0
C972 C 0.56184 0.52218 0.93164 0.0
C973 C 0.53346 0.50593 0.92089 0.0
C974 C 0.53809 0.48274 0.91061 0.0
C975 C 0.56977 0.47616 0.91107 0.0
H976 H 0.12466 0.56933 0.27089 0.0
H977 H 0.09566 0.60985 0.23309 0.0
H978 H 0.0584 0.51323 0.27163 0.0
H979 H 0.02965 0.55404 0.23385 0.0
H980 H 0.90274 0.46955 0.24595 0.0
H981 H 0.96875 0.52615 0.24628 0.0
H982 H 1.01388 0.45289 0.2604 0.0
H983 H 0.94793 0.39681 0.26057 0.0
C984 C 0.10439 0.56619 0.26264 0.0
C985 C 0.11589 0.59462 0.25198 0.0
C986 C 0.06617 0.5339 0.26308 0.0
C987 C 0.03814 0.5289 0.25286 0.0
C988 C 0.04984 0.55708 0.24211 0.0
C989 C 0.08798 0.58926 0.24167 0.0
C990 C 0.92663 0.46555 0.24931 0.0
C991 C 0.91963 0.42824 0.25315 0.0
C992 C 0.96474 0.49805 0.24933 0.0
C993 C 0.99713 0.4944 0.25327 0.0
C994 C 0.98996 0.45723 0.25739 0.0
C995 C 0.95194 0.42478 0.25733 0.0
H996 H 0.62679 0.54832 0.08133 0.0
H997 H 0.56403 0.44834 0.10849 0.0
H998 H 0.57187 0.55951 0.08176 0.0
H999 H 0.50874 0.4596 0.10891 0.0
H1000 H 0.42698 0.50966 0.11622 0.0
H1001 H 0.48316 0.49984 0.1168 0.0
H1002 H 0.50788 0.53604 0.07335 0.0
H1003 H 0.45299 0.54734 0.07296 0.0
C1004 C 0.60114 0.5283 0.0873 0.0
C1005 C 0.60024 0.49704 0.09474 0.0
C1006 C 0.56933 0.53481 0.08755 0.0
C1007 C 0.53516 0.51039 0.09527 0.0
C1008 C 0.53443 0.47947 0.10294 0.0
C1009 C 0.56636 0.47293 0.10268 0.0
C1010 C 0.44464 0.51606 0.10682 0.0
C1011 C 0.43487 0.52935 0.09454 0.0
C1012 C 0.47679 0.50989 0.1071 0.0
C1013 C 0.50058 0.51699 0.09512 0.0
C1014 C 0.49094 0.53058 0.08289 0.0
C1015 C 0.45883 0.53664 0.08261 0.0
H1016 H 0.94518 0.39695 0.42112 0.0
H1017 H 0.9006 0.4713 0.43432 0.0
H1018 H 1.0115 0.4527 0.42127 0.0
H1019 H 0.96741 0.52754 0.43442 0.0
H1020 H 0.09822 0.60878 0.44767 0.0
H1021 H 0.03096 0.55361 0.44764 0.0
H1022 H 0.05303 0.51364 0.40832 0.0
H1023 H 0.12001 0.56839 0.4084 0.0
C1024 C 0.9495 0.42525 0.42407 0.0
C1025 C 0.9173 0.4294 0.42776 0.0
C1026 C 0.98765 0.45739 0.42406 0.0
C1027 C 0.99512 0.49485 0.42788 0.0
C1028 C 0.96295 0.49915 0.43154 0.0
C1029 C 0.92455 0.46695 0.43135 0.0
C1030 C 0.08883 0.58803 0.43908 0.0
C1031 C 0.11481 0.59322 0.42804 0.0
C1032 C 0.05005 0.55658 0.43898 0.0
C1033 C 0.03628 0.529 0.42796 0.0
C1034 C 0.06247 0.53398 0.41704 0.0
C1035 C 0.10095 0.56563 0.41704 0.0
H1036 H 0.51475 0.10051 0.78296 0.0
H1037 H 0.55228 0.11168 0.7397 0.0
H1038 H 0.50262 0.03366 0.78343 0.0
H1039 H 0.54009 0.04515 0.74016 0.0
H1040 H 0.47742 0.9123 0.7399 0.0
H1041 H 0.48966 0.97885 0.74033 0.0
H1042 H 0.52973 0.99131 0.78329 0.0
H1043 H 0.51753 0.92442 0.78285 0.0
C1044 C 0.52089 0.08907 0.77357 0.0
C1045 C 0.53431 0.11207 0.76126 0.0
C1046 C 0.51382 0.0504 0.77383 0.0
C1047 C 0.51986 0.0332 0.76179 0.0
C1048 C 0.53402 0.05653 0.74959 0.0
C1049 C 0.54111 0.09508 0.74933 0.0
C1050 C 0.48916 0.92912 0.74945 0.0
C1051 C 0.49668 0.91239 0.7613 0.0
C1052 C 0.49629 0.96768 0.74969 0.0
C1053 C 0.5112 0.99128 0.7618 0.0
C1054 C 0.51795 0.97435 0.77377 0.0
C1055 C 0.51084 0.93566 0.77352 0.0
H1056 H 0.47102 0.56887 0.60082 0.0
H1057 H 0.53319 0.6086 0.56148 0.0
H1058 H 0.48254 0.51388 0.60096 0.0
H1059 H 0.54459 0.55321 0.56157 0.0
H1060 H 0.59157 0.4703 0.57484 0.0
H1061 H 0.58165 0.52672 0.57463 0.0
H1062 H 0.46258 0.45264 0.58827 0.0
H1063 H 0.4725 0.3967 0.58852 0.0
C1064 C 0.48719 0.56594 0.59217 0.0
C1065 C 0.5011 0.59345 0.58114 0.0
C1066 C 0.49361 0.53412 0.59221 0.0
C1067 C 0.51461 0.52884 0.58129 0.0
C1068 C 0.52861 0.55635 0.57024 0.0
C1069 C 0.52168 0.58796 0.5701 0.0
C1070 C 0.56338 0.46613 0.57789 0.0
C1071 C 0.53286 0.4287 0.58165 0.0
C1072 C 0.55753 0.49846 0.57764 0.0
C1073 C 0.52122 0.49449 0.58141 0.0
C1074 C 0.49102 0.45715 0.58539 0.0
C1075 C 0.49666 0.42486 0.58544 0.0
H1076 H 0.12222 0.55802 0.93449 0.0
H1077 H 0.0976 0.5005 0.89401 0.0
H1078 H 0.05595 0.54755 0.93514 0.0
H1079 H 0.03115 0.48857 0.8951 0.0
H1080 H 0.9024 0.43793 0.90943 0.0
H1081 H 0.96915 0.44886 0.90942 0.0
H1082 H 1.01335 0.56835 0.92211 0.0
H1083 H 0.94685 0.55752 0.92202 0.0
C1084 C 0.10308 0.54341 0.92567 0.0
C1085 C 0.11596 0.52998 0.91425 0.0
C1086 C 0.06479 0.53716 0.9261 0.0
C1087 C 0.03789 0.51678 0.91525 0.0
C1088 C 0.05071 0.50367 0.9038 0.0
C1089 C 0.08909 0.51047 0.90323 0.0
C1090 C 0.92632 0.46643 0.91231 0.0
C1091 C 0.91911 0.49684 0.91566 0.0
C1092 C 0.96466 0.47282 0.91221 0.0
C1093 C 0.99682 0.50958 0.91572 0.0
C1094 C 0.98944 0.53965 0.91942 0.0
C1095 C 0.95125 0.53348 0.91927 0.0
H1096 H 0.45706 0.91086 0.26905 0.0
H1097 H 0.42834 0.92316 0.22622 0.0
H1098 H 0.51149 0.97746 0.26863 0.0
H1099 H 0.48423 0.98958 0.22557 0.0
H1100 H 0.56442 0.12217 0.23432 0.0
H1101 H 0.50955 0.05509 0.23379 0.0
H1102 H 0.57473 0.01861 0.25987 0.0
H1103 H 0.62907 0.08528 0.26046 0.0
C1104 C 0.46225 0.92764 0.25949 0.0
C1105 C 0.43767 0.91109 0.2477 0.0
C1106 C 0.49409 0.96602 0.25918 0.0
C1107 C 0.50284 0.98951 0.24705 0.0
C1108 C 0.4785 0.97291 0.23519 0.0
C1109 C 0.44655 0.93438 0.2355 0.0
C1110 C 0.56721 0.09983 0.23986 0.0
C1111 C 0.6014 0.10974 0.24758 0.0
C1112 C 0.53558 0.0611 0.23954 0.0
C1113 C 0.53708 0.0309 0.24689 0.0
C1114 C 0.57165 0.04081 0.25434 0.0
C1115 C 0.60309 0.07939 0.25469 0.0
loop_
_geom_bond_atom_site_label_1
_geom_bond_atom_site_label_2
_geom_bond_distance
_geom_bond_site_symmetry_2
_ccdc_geom_bond_type
C0 C1 1.443 . S
C0 N4 1.376 . S
C0 C38 1.389 . S
C1 C0 1.443 . S
C1 C2 1.340 . S
C1 H41 0.951 . S
C2 C1 1.340 . S
C2 C3 1.439 . S
C2 H42 0.950 . S
C3 C2 1.439 . S
C3 N4 1.374 . S
C3 C37 1.395 . S
N4 C0 1.376 . S
N4 C3 1.374 . S
N4 Co5 2.008 . S
Co5 N4 2.008 . S
Co5 N6 1.995 . S
Co5 N11 2.008 . S
Co5 N16 1.995 . S
Co5 N21 2.282 . S
Co5 N27 2.282 . S
N6 Co5 1.995 . S
N6 C7 1.376 . S
N6 C10 1.383 . S
C7 N6 1.376 . S
C7 C8 1.446 . S
C7 C37 1.391 . S
C8 C7 1.446 . S
C8 C9 1.339 . S
C8 H43 0.949 . S
C9 C8 1.339 . S
C9 C10 1.439 . S
C9 H44 0.950 . S
C10 N6 1.383 . S
C10 C9 1.439 . S
C10 C39 1.392 . S
N11 Co5 2.008 . S
N11 C12 1.376 . S
N11 C15 1.374 . S
C12 N11 1.376 . S
C12 C13 1.443 . S
C12 C39 1.389 . S
C13 C12 1.443 . S
C13 C14 1.340 . S
C13 H45 0.951 . S
C14 C13 1.340 . S
C14 C15 1.439 . S
C14 H46 0.950 . S
C15 N11 1.374 . S
C15 C14 1.439 . S
C15 C40 1.395 . S
N16 Co5 1.995 . S
N16 C17 1.376 . S
N16 C20 1.383 . S
C17 N16 1.376 . S
C17 C18 1.446 . S
C17 C40 1.391 . S
C18 C17 1.446 . S
C18 C19 1.339 . S
C18 H47 0.949 . S
C19 C18 1.339 . S
C19 C20 1.439 . S
C19 H48 0.950 . S
C20 N16 1.383 . S
C20 C19 1.439 . S
C20 C38 1.392 . S
N21 Co5 2.282 . S
N21 C24 1.332 . S
N21 C26 1.332 . S
C22 C23 1.386 . S
C22 C25 1.388 . S
C23 C22 1.386 . S
C23 C24 1.382 . S
C23 H49 0.950 . S
C24 N21 1.332 . S
C24 C23 1.382 . S
C24 H35 0.952 . S
C25 C22 1.388 . S
C25 C26 1.382 . S
C25 H50 0.950 . S
C26 N21 1.332 . S
C26 C25 1.382 . S
C26 H36 0.948 . S
N27 Co5 2.282 . S
N27 C31 1.332 . S
N27 C32 1.332 . S
C28 C29 1.388 . S
C28 C32 1.382 . S
C28 H51 0.950 . S
C29 C28 1.388 . S
C29 C30 1.386 . S
C30 C29 1.386 . S
C30 C31 1.382 . S
C30 H52 0.950 . S
C31 N27 1.332 . S
C31 C30 1.382 . S
C31 H33 0.952 . S
C32 N27 1.332 . S
C32 C28 1.382 . S
C32 H34 0.948 . S
H33 C31 0.952 . S
H34 C32 0.948 . S
H35 C24 0.952 . S
H36 C26 0.948 . S
C37 C3 1.395 . S
C37 C7 1.391 . S
C38 C0 1.389 . S
C38 C20 1.392 . S
C39 C10 1.392 . S
C39 C12 1.389 . S
C40 C15 1.395 . S
C40 C17 1.391 . S
H41 C1 0.951 . S
H42 C2 0.950 . S
H43 C8 0.949 . S
H44 C9 0.950 . S
H45 C13 0.951 . S
H46 C14 0.950 . S
H47 C18 0.949 . S
H48 C19 0.950 . S
H49 C23 0.950 . S
H50 C25 0.950 . S
H51 C28 0.950 . S
H52 C30 0.950 . S
C53 C54 1.443 . S
C53 N57 1.376 . S
C53 C91 1.389 . S
C54 C53 1.443 . S
C54 C55 1.340 . S
C54 H94 0.951 . S
C55 C54 1.340 . S
C55 C56 1.439 . S
C55 H95 0.950 . S
C56 C55 1.439 . S
C56 N57 1.374 . S
C56 C90 1.395 . S
N57 C53 1.376 . S
N57 C56 1.374 . S
N57 Co58 2.008 . S
Co58 N57 2.008 . S
Co58 N59 1.995 . S
Co58 N64 2.008 . S
Co58 N69 1.995 . S
Co58 N74 2.282 . S
Co58 N80 2.282 . S
N59 Co58 1.995 . S
N59 C60 1.376 . S
N59 C63 1.383 . S
C60 N59 1.376 . S
C60 C61 1.446 . S
C60 C90 1.391 . S
C61 C60 1.446 . S
C61 C62 1.339 . S
C61 H96 0.949 . S
C62 C61 1.339 . S
C62 C63 1.439 . S
C62 H97 0.950 . S
C63 N59 1.383 . S
C63 C62 1.439 . S
C63 C92 1.392 . S
N64 Co58 2.008 . S
N64 C65 1.376 . S
N64 C68 1.374 . S
C65 N64 1.376 . S
C65 C66 1.443 . S
C65 C92 1.389 . S
C66 C65 1.443 . S
C66 C67 1.340 . S
C66 H98 0.951 . S
C67 C66 1.340 . S
C67 C68 1.439 . S
C67 H99 0.950 . S
C68 N64 1.374 . S
C68 C67 1.439 . S
C68 C93 1.395 . S
N69 Co58 1.995 . S
N69 C70 1.376 . S
N69 C73 1.383 . S
C70 N69 1.376 . S
C70 C71 1.446 . S
C70 C93 1.391 . S
C71 C70 1.446 . S
C71 C72 1.339 . S
C71 H100 0.949 . S
C72 C71 1.339 . S
C72 C73 1.439 . S
C72 H101 0.950 . S
C73 N69 1.383 . S
C73 C72 1.439 . S
C73 C91 1.392 . S
N74 Co58 2.282 . S
N74 C77 1.332 . S
N74 C79 1.332 . S
C75 C76 1.386 . S
C75 C78 1.388 . S
C76 C75 1.386 . S
C76 C77 1.382 . S
C76 H102 0.950 . S
C77 N74 1.332 . S
C77 C76 1.382 . S
C77 H88 0.952 . S
C78 C75 1.388 . S
C78 C79 1.382 . S
C78 H103 0.950 . S
C79 N74 1.332 . S
C79 C78 1.382 . S
C79 H89 0.948 . S
N80 Co58 2.282 . S
N80 C84 1.332 . S
N80 C85 1.332 . S
C81 C82 1.388 . S
C81 C85 1.382 . S
C81 H104 0.950 . S
C82 C81 1.388 . S
C82 C83 1.386 . S
C83 C82 1.386 . S
C83 C84 1.382 . S
C83 H105 0.950 . S
C84 N80 1.332 . S
C84 C83 1.382 . S
C84 H86 0.952 . S
C85 N80 1.332 . S
C85 C81 1.382 . S
C85 H87 0.948 . S
H86 C84 0.952 . S
H87 C85 0.948 . S
H88 C77 0.952 . S
H89 C79 0.948 . S
C90 C56 1.395 . S
C90 C60 1.391 . S
C91 C53 1.389 . S
C91 C73 1.392 . S
C92 C63 1.392 . S
C92 C65 1.389 . S
C93 C68 1.395 . S
C93 C70 1.391 . S
H94 C54 0.951 . S
H95 C55 0.950 . S
H96 C61 0.949 . S
H97 C62 0.950 . S
H98 C66 0.951 . S
H99 C67 0.950 . S
H100 C71 0.949 . S
H101 C72 0.950 . S
H102 C76 0.950 . S
H103 C78 0.950 . S
H104 C81 0.950 . S
H105 C83 0.950 . S
C106 C107 1.443 . S
C106 N110 1.376 . S
C106 C144 1.389 . S
C107 C106 1.443 . S
C107 C108 1.340 . S
C107 H147 0.951 . S
C108 C107 1.340 . S
C108 C109 1.439 . S
C108 H148 0.950 . S
C109 C108 1.439 . S
C109 N110 1.374 . S
C109 C143 1.395 . S
N110 C106 1.376 . S
N110 C109 1.374 . S
N110 Co111 2.008 . S
Co111 N110 2.008 . S
Co111 N112 1.995 . S
Co111 N117 2.008 . S
Co111 N122 1.995 . S
Co111 N127 2.282 . S
Co111 N133 2.282 . S
N112 Co111 1.995 . S
N112 C113 1.376 . S
N112 C116 1.383 . S
C113 N112 1.376 . S
C113 C114 1.446 . S
C113 C143 1.391 . S
C114 C113 1.446 . S
C114 C115 1.339 . S
C114 H149 0.949 . S
C115 C114 1.339 . S
C115 C116 1.439 . S
C115 H150 0.950 . S
C116 N112 1.383 . S
C116 C115 1.439 . S
C116 C145 1.392 . S
N117 Co111 2.008 . S
N117 C118 1.376 . S
N117 C121 1.374 . S
C118 N117 1.376 . S
C118 C119 1.443 . S
C118 C145 1.389 . S
C119 C118 1.443 . S
C119 C120 1.340 . S
C119 H151 0.951 . S
C120 C119 1.340 . S
C120 C121 1.439 . S
C120 H152 0.950 . S
C121 N117 1.374 . S
C121 C120 1.439 . S
C121 C146 1.395 . S
N122 Co111 1.995 . S
N122 C123 1.376 . S
N122 C126 1.383 . S
C123 N122 1.376 . S
C123 C124 1.446 . S
C123 C146 1.391 . S
C124 C123 1.446 . S
C124 C125 1.339 . S
C124 H153 0.949 . S
C125 C124 1.339 . S
C125 C126 1.439 . S
C125 H154 0.950 . S
C126 N122 1.383 . S
C126 C125 1.439 . S
C126 C144 1.392 . S
N127 Co111 2.282 . S
N127 C130 1.332 . S
N127 C132 1.332 . S
C128 C129 1.386 . S
C128 C131 1.388 . S
C129 C128 1.386 . S
C129 C130 1.382 . S
C129 H155 0.950 . S
C130 N127 1.332 . S
C130 C129 1.382 . S
C130 H141 0.952 . S
C131 C128 1.388 . S
C131 C132 1.382 . S
C131 H156 0.950 . S
C132 N127 1.332 . S
C132 C131 1.382 . S
C132 H142 0.948 . S
N133 Co111 2.282 . S
N133 C137 1.332 . S
N133 C138 1.332 . S
C134 C135 1.388 . S
C134 C138 1.382 . S
C134 H157 0.950 . S
C135 C134 1.388 . S
C135 C136 1.386 . S
C136 C135 1.386 . S
C136 C137 1.382 . S
C136 H158 0.950 . S
C137 N133 1.332 . S
C137 C136 1.382 . S
C137 H139 0.952 . S
C138 N133 1.332 . S
C138 C134 1.382 . S
C138 H140 0.948 . S
H139 C137 0.952 . S
H140 C138 0.948 . S
H141 C130 0.952 . S
H142 C132 0.948 . S
C143 C109 1.395 . S
C143 C113 1.391 . S
C144 C106 1.389 . S
C144 C126 1.392 . S
C145 C116 1.392 . S
C145 C118 1.389 . S
C146 C121 1.395 . S
C146 C123 1.391 . S
H147 C107 0.951 . S
H148 C108 0.950 . S
H149 C114 0.949 . S
H150 C115 0.950 . S
H151 C119 0.951 . S
H152 C120 0.950 . S
H153 C124 0.949 . S
H154 C125 0.950 . S
H155 C129 0.950 . S
H156 C131 0.950 . S
H157 C134 0.950 . S
H158 C136 0.950 . S
C159 C160 1.443 . S
C159 N163 1.376 . S
C159 C197 1.389 . S
C160 C159 1.443 . S
C160 C161 1.340 . S
C160 H200 0.951 . S
C161 C160 1.340 . S
C161 C162 1.439 . S
C161 H201 0.950 . S
C162 C161 1.439 . S
C162 N163 1.374 . S
C162 C196 1.395 . S
N163 C159 1.376 . S
N163 C162 1.374 . S
N163 Co164 2.008 . S
Co164 N163 2.008 . S
Co164 N165 1.995 . S
Co164 N170 2.008 . S
Co164 N175 1.995 . S
Co164 N180 2.282 . S
Co164 N186 2.282 . S
N165 Co164 1.995 . S
N165 C166 1.376 . S
N165 C169 1.383 . S
C166 N165 1.376 . S
C166 C167 1.446 . S
C166 C196 1.391 . S
C167 C166 1.446 . S
C167 C168 1.339 . S
C167 H202 0.949 . S
C168 C167 1.339 . S
C168 C169 1.439 . S
C168 H203 0.950 . S
C169 N165 1.383 . S
C169 C168 1.439 . S
C169 C198 1.392 . S
N170 Co164 2.008 . S
N170 C171 1.376 . S
N170 C174 1.374 . S
C171 N170 1.376 . S
C171 C172 1.443 . S
C171 C198 1.389 . S
C172 C171 1.443 . S
C172 C173 1.340 . S
C172 H204 0.951 . S
C173 C172 1.340 . S
C173 C174 1.439 . S
C173 H205 0.950 . S
C174 N170 1.374 . S
C174 C173 1.439 . S
C174 C199 1.395 . S
N175 Co164 1.995 . S
N175 C176 1.376 . S
N175 C179 1.383 . S
C176 N175 1.376 . S
C176 C177 1.446 . S
C176 C199 1.391 . S
C177 C176 1.446 . S
C177 C178 1.339 . S
C177 H206 0.949 . S
C178 C177 1.339 . S
C178 C179 1.439 . S
C178 H207 0.950 . S
C179 N175 1.383 . S
C179 C178 1.439 . S
C179 C197 1.392 . S
N180 Co164 2.282 . S
N180 C183 1.332 . S
N180 C185 1.332 . S
C181 C182 1.386 . S
C181 C184 1.388 . S
C182 C181 1.386 . S
C182 C183 1.382 . S
C182 H208 0.950 . S
C183 N180 1.332 . S
C183 C182 1.382 . S
C183 H194 0.952 . S
C184 C181 1.388 . S
C184 C185 1.382 . S
C184 H209 0.950 . S
C185 N180 1.332 . S
C185 C184 1.382 . S
C185 H195 0.948 . S
N186 Co164 2.282 . S
N186 C190 1.332 . S
N186 C191 1.332 . S
C187 C188 1.388 . S
C187 C191 1.382 . S
C187 H210 0.950 . S
C188 C187 1.388 . S
C188 C189 1.386 . S
C189 C188 1.386 . S
C189 C190 1.382 . S
C189 H211 0.950 . S
C190 N186 1.332 . S
C190 C189 1.382 . S
C190 H192 0.952 . S
C191 N186 1.332 . S
C191 C187 1.382 . S
C191 H193 0.948 . S
H192 C190 0.952 . S
H193 C191 0.948 . S
H194 C183 0.952 . S
H195 C185 0.948 . S
C196 C162 1.395 . S
C196 C166 1.391 . S
C197 C159 1.389 . S
C197 C179 1.392 . S
C198 C169 1.392 . S
C198 C171 1.389 . S
C199 C174 1.395 . S
C199 C176 1.391 . S
H200 C160 0.951 . S
H201 C161 0.950 . S
H202 C167 0.949 . S
H203 C168 0.950 . S
H204 C172 0.951 . S
H205 C173 0.950 . S
H206 C177 0.949 . S
H207 C178 0.950 . S
H208 C182 0.950 . S
H209 C184 0.950 . S
H210 C187 0.950 . S
H211 C189 0.950 . S
C212 C213 1.443 . S
C212 N216 1.376 . S
C212 C250 1.389 . S
C213 C212 1.443 . S
C213 C214 1.340 . S
C213 H253 0.951 . S
C214 C213 1.340 . S
C214 C215 1.439 . S
C214 H254 0.950 . S
C215 C214 1.439 . S
C215 N216 1.374 . S
C215 C249 1.395 . S
N216 C212 1.376 . S
N216 C215 1.374 . S
N216 Co217 2.008 . S
Co217 N216 2.008 . S
Co217 N218 1.995 . S
Co217 N223 2.008 . S
Co217 N228 1.995 . S
Co217 N233 2.282 . S
Co217 N239 2.282 . S
N218 Co217 1.995 . S
N218 C219 1.376 . S
N218 C222 1.383 . S
C219 N218 1.376 . S
C219 C220 1.446 . S
C219 C249 1.391 . S
C220 C219 1.446 . S
C220 C221 1.339 . S
C220 H255 0.949 . S
C221 C220 1.339 . S
C221 C222 1.439 . S
C221 H256 0.950 . S
C222 N218 1.383 . S
C222 C221 1.439 . S
C222 C251 1.392 . S
N223 Co217 2.008 . S
N223 C224 1.376 . S
N223 C227 1.374 . S
C224 N223 1.376 . S
C224 C225 1.443 . S
C224 C251 1.389 . S
C225 C224 1.443 . S
C225 C226 1.340 . S
C225 H257 0.951 . S
C226 C225 1.340 . S
C226 C227 1.439 . S
C226 H258 0.950 . S
C227 N223 1.374 . S
C227 C226 1.439 . S
C227 C252 1.395 . S
N228 Co217 1.995 . S
N228 C229 1.376 . S
N228 C232 1.383 . S
C229 N228 1.376 . S
C229 C230 1.446 . S
C229 C252 1.391 . S
C230 C229 1.446 . S
C230 C231 1.339 . S
C230 H259 0.949 . S
C231 C230 1.339 . S
C231 C232 1.439 . S
C231 H260 0.950 . S
C232 N228 1.383 . S
C232 C231 1.439 . S
C232 C250 1.392 . S
N233 Co217 2.282 . S
N233 C236 1.332 . S
N233 C238 1.332 . S
C234 C235 1.386 . S
C234 C237 1.388 . S
C235 C234 1.386 . S
C235 C236 1.382 . S
C235 H261 0.950 . S
C236 N233 1.332 . S
C236 C235 1.382 . S
C236 H247 0.952 . S
C237 C234 1.388 . S
C237 C238 1.382 . S
C237 H262 0.950 . S
C238 N233 1.332 . S
C238 C237 1.382 . S
C238 H248 0.948 . S
N239 Co217 2.282 . S
N239 C243 1.332 . S
N239 C244 1.332 . S
C240 C241 1.388 . S
C240 C244 1.382 . S
C240 H263 0.950 . S
C241 C240 1.388 . S
C241 C242 1.386 . S
C242 C241 1.386 . S
C242 C243 1.382 . S
C242 H264 0.950 . S
C243 N239 1.332 . S
C243 C242 1.382 . S
C243 H245 0.952 . S
C244 N239 1.332 . S
C244 C240 1.382 . S
C244 H246 0.948 . S
H245 C243 0.952 . S
H246 C244 0.948 . S
H247 C236 0.952 . S
H248 C238 0.948 . S
C249 C215 1.395 . S
C249 C219 1.391 . S
C250 C212 1.389 . S
C250 C232 1.392 . S
C251 C222 1.392 . S
C251 C224 1.389 . S
C252 C227 1.395 . S
C252 C229 1.391 . S
H253 C213 0.951 . S
H254 C214 0.950 . S
H255 C220 0.949 . S
H256 C221 0.950 . S
H257 C225 0.951 . S
H258 C226 0.950 . S
H259 C230 0.949 . S
H260 C231 0.950 . S
H261 C235 0.950 . S
H262 C237 0.950 . S
H263 C240 0.950 . S
H264 C242 0.950 . S
C265 C266 1.443 . S
C265 N269 1.376 . S
C265 C303 1.389 . S
C266 C265 1.443 . S
C266 C267 1.340 . S
C266 H306 0.951 . S
C267 C266 1.340 . S
C267 C268 1.439 . S
C267 H307 0.950 . S
C268 C267 1.439 . S
C268 N269 1.374 . S
C268 C302 1.395 . S
N269 C265 1.376 . S
N269 C268 1.374 . S
N269 Co270 2.008 . S
Co270 N269 2.008 . S
Co270 N271 1.995 . S
Co270 N276 2.008 . S
Co270 N281 1.995 . S
Co270 N286 2.282 . S
Co270 N292 2.282 . S
N271 Co270 1.995 . S
N271 C272 1.376 . S
N271 C275 1.383 . S
C272 N271 1.376 . S
C272 C273 1.446 . S
C272 C302 1.391 . S
C273 C272 1.446 . S
C273 C274 1.339 . S
C273 H308 0.949 . S
C274 C273 1.339 . S
C274 C275 1.439 . S
C274 H309 0.950 . S
C275 N271 1.383 . S
C275 C274 1.439 . S
C275 C304 1.392 . S
N276 Co270 2.008 . S
N276 C277 1.376 . S
N276 C280 1.374 . S
C277 N276 1.376 . S
C277 C278 1.443 . S
C277 C304 1.389 . S
C278 C277 1.443 . S
C278 C279 1.340 . S
C278 H310 0.951 . S
C279 C278 1.340 . S
C279 C280 1.439 . S
C279 H311 0.950 . S
C280 N276 1.374 . S
C280 C279 1.439 . S
C280 C305 1.395 . S
N281 Co270 1.995 . S
N281 C282 1.376 . S
N281 C285 1.383 . S
C282 N281 1.376 . S
C282 C283 1.446 . S
C282 C305 1.391 . S
C283 C282 1.446 . S
C283 C284 1.339 . S
C283 H312 0.949 . S
C284 C283 1.339 . S
C284 C285 1.439 . S
C284 H313 0.950 . S
C285 N281 1.383 . S
C285 C284 1.439 . S
C285 C303 1.392 . S
N286 Co270 2.282 . S
N286 C289 1.332 . S
N286 C291 1.332 . S
C287 C288 1.386 . S
C287 C290 1.388 . S
C288 C287 1.386 . S
C288 C289 1.382 . S
C288 H314 0.950 . S
C289 N286 1.332 . S
C289 C288 1.382 . S
C289 H300 0.952 . S
C290 C287 1.388 . S
C290 C291 1.382 . S
C290 H315 0.950 . S
C291 N286 1.332 . S
C291 C290 1.382 . S
C291 H301 0.948 . S
N292 Co270 2.282 . S
N292 C296 1.332 . S
N292 C297 1.332 . S
C293 C294 1.388 . S
C293 C297 1.382 . S
C293 H316 0.950 . S
C294 C293 1.388 . S
C294 C295 1.386 . S
C295 C294 1.386 . S
C295 C296 1.382 . S
C295 H317 0.950 . S
C296 N292 1.332 . S
C296 C295 1.382 . S
C296 H298 0.952 . S
C297 N292 1.332 . S
C297 C293 1.382 . S
C297 H299 0.948 . S
H298 C296 0.952 . S
H299 C297 0.948 . S
H300 C289 0.952 . S
H301 C291 0.948 . S
C302 C268 1.395 . S
C302 C272 1.391 . S
C303 C265 1.389 . S
C303 C285 1.392 . S
C304 C275 1.392 . S
C304 C277 1.389 . S
C305 C280 1.395 . S
C305 C282 1.391 . S
H306 C266 0.951 . S
H307 C267 0.950 . S
H308 C273 0.949 . S
H309 C274 0.950 . S
H310 C278 0.951 . S
H311 C279 0.950 . S
H312 C283 0.949 . S
H313 C284 0.950 . S
H314 C288 0.950 . S
H315 C290 0.950 . S
H316 C293 0.950 . S
H317 C295 0.950 . S
C318 C319 1.443 . S
C318 N322 1.376 . S
C318 C356 1.389 . S
C319 C318 1.443 . S
C319 C320 1.340 . S
C319 H359 0.951 . S
C320 C319 1.340 . S
C320 C321 1.439 . S
C320 H360 0.950 . S
C321 C320 1.439 . S
C321 N322 1.374 . S
C321 C355 1.395 . S
N322 C318 1.376 . S
N322 C321 1.374 . S
N322 Co323 2.008 . S
Co323 N322 2.008 . S
Co323 N324 1.995 . S
Co323 N329 2.008 . S
Co323 N334 1.995 . S
Co323 N339 2.282 . S
Co323 N345 2.282 . S
N324 Co323 1.995 . S
N324 C325 1.376 . S
N324 C328 1.383 . S
C325 N324 1.376 . S
C325 C326 1.446 . S
C325 C355 1.391 . S
C326 C325 1.446 . S
C326 C327 1.339 . S
C326 H361 0.949 . S
C327 C326 1.339 . S
C327 C328 1.439 . S
C327 H362 0.950 . S
C328 N324 1.383 . S
C328 C327 1.439 . S
C328 C357 1.392 . S
N329 Co323 2.008 . S
N329 C330 1.376 . S
N329 C333 1.374 . S
C330 N329 1.376 . S
C330 C331 1.443 . S
C330 C357 1.389 . S
C331 C330 1.443 . S
C331 C332 1.340 . S
C331 H363 0.951 . S
C332 C331 1.340 . S
C332 C333 1.439 . S
C332 H364 0.950 . S
C333 N329 1.374 . S
C333 C332 1.439 . S
C333 C358 1.395 . S
N334 Co323 1.995 . S
N334 C335 1.376 . S
N334 C338 1.383 . S
C335 N334 1.376 . S
C335 C336 1.446 . S
C335 C358 1.391 . S
C336 C335 1.446 . S
C336 C337 1.339 . S
C336 H365 0.949 . S
C337 C336 1.339 . S
C337 C338 1.439 . S
C337 H366 0.950 . S
C338 N334 1.383 . S
C338 C337 1.439 . S
C338 C356 1.392 . S
N339 Co323 2.282 . S
N339 C342 1.332 . S
N339 C344 1.332 . S
C340 C341 1.386 . S
C340 C343 1.388 . S
C341 C340 1.386 . S
C341 C342 1.382 . S
C341 H367 0.950 . S
C342 N339 1.332 . S
C342 C341 1.382 . S
C342 H353 0.952 . S
C343 C340 1.388 . S
C343 C344 1.382 . S
C343 H368 0.950 . S
C344 N339 1.332 . S
C344 C343 1.382 . S
C344 H354 0.948 . S
N345 Co323 2.282 . S
N345 C349 1.332 . S
N345 C350 1.332 . S
C346 C347 1.388 . S
C346 C350 1.382 . S
C346 H369 0.950 . S
C347 C346 1.388 . S
C347 C348 1.386 . S
C348 C347 1.386 . S
C348 C349 1.382 . S
C348 H370 0.950 . S
C349 N345 1.332 . S
C349 C348 1.382 . S
C349 H351 0.952 . S
C350 N345 1.332 . S
C350 C346 1.382 . S
C350 H352 0.948 . S
H351 C349 0.952 . S
H352 C350 0.948 . S
H353 C342 0.952 . S
H354 C344 0.948 . S
C355 C321 1.395 . S
C355 C325 1.391 . S
C356 C318 1.389 . S
C356 C338 1.392 . S
C357 C328 1.392 . S
C357 C330 1.389 . S
C358 C333 1.395 . S
C358 C335 1.391 . S
H359 C319 0.951 . S
H360 C320 0.950 . S
H361 C326 0.949 . S
H362 C327 0.950 . S
H363 C331 0.951 . S
H364 C332 0.950 . S
H365 C336 0.949 . S
H366 C337 0.950 . S
H367 C341 0.950 . S
H368 C343 0.950 . S
H369 C346 0.950 . S
H370 C348 0.950 . S
C371 C372 1.443 . S
C371 N375 1.376 . S
C371 C409 1.389 . S
C372 C371 1.443 . S
C372 C373 1.340 . S
C372 H412 0.951 . S
C373 C372 1.340 . S
C373 C374 1.439 . S
C373 H413 0.950 . S
C374 C373 1.439 . S
C374 N375 1.374 . S
C374 C408 1.395 . S
N375 C371 1.376 . S
N375 C374 1.374 . S
N375 Co376 2.008 . S
Co376 N375 2.008 . S
Co376 N377 1.995 . S
Co376 N382 2.008 . S
Co376 N387 1.995 . S
Co376 N392 2.282 . S
Co376 N398 2.282 . S
N377 Co376 1.995 . S
N377 C378 1.376 . S
N377 C381 1.383 . S
C378 N377 1.376 . S
C378 C379 1.446 . S
C378 C408 1.391 . S
C379 C378 1.446 . S
C379 C380 1.339 . S
C379 H414 0.949 . S
C380 C379 1.339 . S
C380 C381 1.439 . S
C380 H415 0.950 . S
C381 N377 1.383 . S
C381 C380 1.439 . S
C381 C410 1.392 . S
N382 Co376 2.008 . S
N382 C383 1.376 . S
N382 C386 1.374 . S
C383 N382 1.376 . S
C383 C384 1.443 . S
C383 C410 1.389 . S
C384 C383 1.443 . S
C384 C385 1.340 . S
C384 H416 0.951 . S
C385 C384 1.340 . S
C385 C386 1.439 . S
C385 H417 0.950 . S
C386 N382 1.374 . S
C386 C385 1.439 . S
C386 C411 1.395 . S
N387 Co376 1.995 . S
N387 C388 1.376 . S
N387 C391 1.383 . S
C388 N387 1.376 . S
C388 C389 1.446 . S
C388 C411 1.391 . S
C389 C388 1.446 . S
C389 C390 1.339 . S
C389 H418 0.949 . S
C390 C389 1.339 . S
C390 C391 1.439 . S
C390 H419 0.950 . S
C391 N387 1.383 . S
C391 C390 1.439 . S
C391 C409 1.392 . S
N392 Co376 2.282 . S
N392 C395 1.332 . S
N392 C397 1.332 . S
C393 C394 1.386 . S
C393 C396 1.388 . S
C394 C393 1.386 . S
C394 C395 1.382 . S
C394 H420 0.950 . S
C395 N392 1.332 . S
C395 C394 1.382 . S
C395 H406 0.952 . S
C396 C393 1.388 . S
C396 C397 1.382 . S
C396 H421 0.950 . S
C397 N392 1.332 . S
C397 C396 1.382 . S
C397 H407 0.948 . S
N398 Co376 2.282 . S
N398 C402 1.332 . S
N398 C403 1.332 . S
C399 C400 1.388 . S
C399 C403 1.382 . S
C399 H422 0.950 . S
C400 C399 1.388 . S
C400 C401 1.386 . S
C401 C400 1.386 . S
C401 C402 1.382 . S
C401 H423 0.950 . S
C402 N398 1.332 . S
C402 C401 1.382 . S
C402 H404 0.952 . S
C403 N398 1.332 . S
C403 C399 1.382 . S
C403 H405 0.948 . S
H404 C402 0.952 . S
H405 C403 0.948 . S
H406 C395 0.952 . S
H407 C397 0.948 . S
C408 C374 1.395 . S
C408 C378 1.391 . S
C409 C371 1.389 . S
C409 C391 1.392 . S
C410 C381 1.392 . S
C410 C383 1.389 . S
C411 C386 1.395 . S
C411 C388 1.391 . S
H412 C372 0.951 . S
H413 C373 0.950 . S
H414 C379 0.949 . S
H415 C380 0.950 . S
H416 C384 0.951 . S
H417 C385 0.950 . S
H418 C389 0.949 . S
H419 C390 0.950 . S
H420 C394 0.950 . S
H421 C396 0.950 . S
H422 C399 0.950 . S
H423 C401 0.950 . S
C424 C425 1.443 . S
C424 N428 1.376 . S
C424 C462 1.389 . S
C425 C424 1.443 . S
C425 C426 1.340 . S
C425 H465 0.951 . S
C426 C425 1.340 . S
C426 C427 1.439 . S
C426 H466 0.950 . S
C427 C426 1.439 . S
C427 N428 1.374 . S
C427 C461 1.395 . S
N428 C424 1.376 . S
N428 C427 1.374 . S
N428 Co429 2.008 . S
Co429 N428 2.008 . S
Co429 N430 1.995 . S
Co429 N435 2.008 . S
Co429 N440 1.995 . S
Co429 N445 2.282 . S
Co429 N451 2.282 . S
N430 Co429 1.995 . S
N430 C431 1.376 . S
N430 C434 1.383 . S
C431 N430 1.376 . S
C431 C432 1.446 . S
C431 C461 1.391 . S
C432 C431 1.446 . S
C432 C433 1.339 . S
C432 H467 0.949 . S
C433 C432 1.339 . S
C433 C434 1.439 . S
C433 H468 0.950 . S
C434 N430 1.383 . S
C434 C433 1.439 . S
C434 C463 1.392 . S
N435 Co429 2.008 . S
N435 C436 1.376 . S
N435 C439 1.374 . S
C436 N435 1.376 . S
C436 C437 1.443 . S
C436 C463 1.389 . S
C437 C436 1.443 . S
C437 C438 1.340 . S
C437 H469 0.951 . S
C438 C437 1.340 . S
C438 C439 1.439 . S
C438 H470 0.950 . S
C439 N435 1.374 . S
C439 C438 1.439 . S
C439 C464 1.395 . S
N440 Co429 1.995 . S
N440 C441 1.376 . S
N440 C444 1.383 . S
C441 N440 1.376 . S
C441 C442 1.446 . S
C441 C464 1.391 . S
C442 C441 1.446 . S
C442 C443 1.339 . S
C442 H471 0.949 . S
C443 C442 1.339 . S
C443 C444 1.439 . S
C443 H472 0.950 . S
C444 N440 1.383 . S
C444 C443 1.439 . S
C444 C462 1.392 . S
N445 Co429 2.282 . S
N445 C448 1.332 . S
N445 C450 1.332 . S
C446 C447 1.386 . S
C446 C449 1.388 . S
C447 C446 1.386 . S
C447 C448 1.382 . S
C447 H473 0.950 . S
C448 N445 1.332 . S
C448 C447 1.382 . S
C448 H459 0.952 . S
C449 C446 1.388 . S
C449 C450 1.382 . S
C449 H474 0.950 . S
C450 N445 1.332 . S
C450 C449 1.382 . S
C450 H460 0.948 . S
N451 Co429 2.282 . S
N451 C455 1.332 . S
N451 C456 1.332 . S
C452 C453 1.388 . S
C452 C456 1.382 . S
C452 H475 0.950 . S
C453 C452 1.388 . S
C453 C454 1.386 . S
C454 C453 1.386 . S
C454 C455 1.382 . S
C454 H476 0.950 . S
C455 N451 1.332 . S
C455 C454 1.382 . S
C455 H457 0.952 . S
C456 N451 1.332 . S
C456 C452 1.382 . S
C456 H458 0.948 . S
H457 C455 0.952 . S
H458 C456 0.948 . S
H459 C448 0.952 . S
H460 C450 0.948 . S
C461 C427 1.395 . S
C461 C431 1.391 . S
C462 C424 1.389 . S
C462 C444 1.392 . S
C463 C434 1.392 . S
C463 C436 1.389 . S
C464 C439 1.395 . S
C464 C441 1.391 . S
H465 C425 0.951 . S
H466 C426 0.950 . S
H467 C432 0.949 . S
H468 C433 0.950 . S
H469 C437 0.951 . S
H470 C438 0.950 . S
H471 C442 0.949 . S
H472 C443 0.950 . S
H473 C447 0.950 . S
H474 C449 0.950 . S
H475 C452 0.950 . S
H476 C454 0.950 . S
C477 C478 1.443 . S
C477 N481 1.376 . S
C477 C515 1.389 . S
C478 C477 1.443 . S
C478 C479 1.340 . S
C478 H518 0.951 . S
C479 C478 1.340 . S
C479 C480 1.439 . S
C479 H519 0.950 . S
C480 C479 1.439 . S
C480 N481 1.374 . S
C480 C514 1.395 . S
N481 C477 1.376 . S
N481 C480 1.374 . S
N481 Co482 2.008 . S
Co482 N481 2.008 . S
Co482 N483 1.995 . S
Co482 N488 2.008 . S
Co482 N493 1.995 . S
Co482 N498 2.282 . S
Co482 N504 2.282 . S
N483 Co482 1.995 . S
N483 C484 1.376 . S
N483 C487 1.383 . S
C484 N483 1.376 . S
C484 C485 1.446 . S
C484 C514 1.391 . S
C485 C484 1.446 . S
C485 C486 1.339 . S
C485 H520 0.949 . S
C486 C485 1.339 . S
C486 C487 1.439 . S
C486 H521 0.950 . S
C487 N483 1.383 . S
C487 C486 1.439 . S
C487 C516 1.392 . S
N488 Co482 2.008 . S
N488 C489 1.376 . S
N488 C492 1.374 . S
C489 N488 1.376 . S
C489 C490 1.443 . S
C489 C516 1.389 . S
C490 C489 1.443 . S
C490 C491 1.340 . S
C490 H522 0.951 . S
C491 C490 1.340 . S
C491 C492 1.439 . S
C491 H523 0.950 . S
C492 N488 1.374 . S
C492 C491 1.439 . S
C492 C517 1.395 . S
N493 Co482 1.995 . S
N493 C494 1.376 . S
N493 C497 1.383 . S
C494 N493 1.376 . S
C494 C495 1.446 . S
C494 C517 1.391 . S
C495 C494 1.446 . S
C495 C496 1.339 . S
C495 H524 0.949 . S
C496 C495 1.339 . S
C496 C497 1.439 . S
C496 H525 0.950 . S
C497 N493 1.383 . S
C497 C496 1.439 . S
C497 C515 1.392 . S
N498 Co482 2.282 . S
N498 C501 1.332 . S
N498 C503 1.332 . S
C499 C500 1.386 . S
C499 C502 1.388 . S
C500 C499 1.386 . S
C500 C501 1.382 . S
C500 H526 0.950 . S
C501 N498 1.332 . S
C501 C500 1.382 . S
C501 H512 0.952 . S
C502 C499 1.388 . S
C502 C503 1.382 . S
C502 H527 0.950 . S
C503 N498 1.332 . S
C503 C502 1.382 . S
C503 H513 0.948 . S
N504 Co482 2.282 . S
N504 C508 1.332 . S
N504 C509 1.332 . S
C505 C506 1.388 . S
C505 C509 1.382 . S
C505 H528 0.950 . S
C506 C505 1.388 . S
C506 C507 1.386 . S
C507 C506 1.386 . S
C507 C508 1.382 . S
C507 H529 0.950 . S
C508 N504 1.332 . S
C508 C507 1.382 . S
C508 H510 0.952 . S
C509 N504 1.332 . S
C509 C505 1.382 . S
C509 H511 0.948 . S
H510 C508 0.952 . S
H511 C509 0.948 . S
H512 C501 0.952 . S
H513 C503 0.948 . S
C514 C480 1.395 . S
C514 C484 1.391 . S
C515 C477 1.389 . S
C515 C497 1.392 . S
C516 C487 1.392 . S
C516 C489 1.389 . S
C517 C492 1.395 . S
C517 C494 1.391 . S
H518 C478 0.951 . S
H519 C479 0.950 . S
H520 C485 0.949 . S
H521 C486 0.950 . S
H522 C490 0.951 . S
H523 C491 0.950 . S
H524 C495 0.949 . S
H525 C496 0.950 . S
H526 C500 0.950 . S
H527 C502 0.950 . S
H528 C505 0.950 . S
H529 C507 0.950 . S
C530 C531 1.443 . S
C530 N534 1.376 . S
C530 C568 1.389 . S
C531 C530 1.443 . S
C531 C532 1.340 . S
C531 H571 0.951 . S
C532 C531 1.340 . S
C532 C533 1.439 . S
C532 H572 0.950 . S
C533 C532 1.439 . S
C533 N534 1.374 . S
C533 C567 1.395 . S
N534 C530 1.376 . S
N534 C533 1.374 . S
N534 Co535 2.008 . S
Co535 N534 2.008 . S
Co535 N536 1.995 . S
Co535 N541 2.008 . S
Co535 N546 1.995 . S
Co535 N551 2.282 . S
Co535 N557 2.282 . S
N536 Co535 1.995 . S
N536 C537 1.376 . S
N536 C540 1.383 . S
C537 N536 1.376 . S
C537 C538 1.446 . S
C537 C567 1.391 . S
C538 C537 1.446 . S
C538 C539 1.339 . S
C538 H573 0.949 . S
C539 C538 1.339 . S
C539 C540 1.439 . S
C539 H574 0.950 . S
C540 N536 1.383 . S
C540 C539 1.439 . S
C540 C569 1.392 . S
N541 Co535 2.008 . S
N541 C542 1.376 . S
N541 C545 1.374 . S
C542 N541 1.376 . S
C542 C543 1.443 . S
C542 C569 1.389 . S
C543 C542 1.443 . S
C543 C544 1.340 . S
C543 H575 0.951 . S
C544 C543 1.340 . S
C544 C545 1.439 . S
C544 H576 0.950 . S
C545 N541 1.374 . S
C545 C544 1.439 . S
C545 C570 1.395 . S
N546 Co535 1.995 . S
N546 C547 1.376 . S
N546 C550 1.383 . S
C547 N546 1.376 . S
C547 C548 1.446 . S
C547 C570 1.391 . S
C548 C547 1.446 . S
C548 C549 1.339 . S
C548 H577 0.949 . S
C549 C548 1.339 . S
C549 C550 1.439 . S
C549 H578 0.950 . S
C550 N546 1.383 . S
C550 C549 1.439 . S
C550 C568 1.392 . S
N551 Co535 2.282 . S
N551 C554 1.332 . S
N551 C556 1.332 . S
C552 C553 1.386 . S
C552 C555 1.388 . S
C553 C552 1.386 . S
C553 C554 1.382 . S
C553 H579 0.950 . S
C554 N551 1.332 . S
C554 C553 1.382 . S
C554 H565 0.952 . S
C555 C552 1.388 . S
C555 C556 1.382 . S
C555 H580 0.950 . S
C556 N551 1.332 . S
C556 C555 1.382 . S
C556 H566 0.948 . S
N557 Co535 2.282 . S
N557 C561 1.332 . S
N557 C562 1.332 . S
C558 C559 1.388 . S
C558 C562 1.382 . S
C558 H581 0.950 . S
C559 C558 1.388 . S
C559 C560 1.386 . S
C560 C559 1.386 . S
C560 C561 1.382 . S
C560 H582 0.950 . S
C561 N557 1.332 . S
C561 C560 1.382 . S
C561 H563 0.952 . S
C562 N557 1.332 . S
C562 C558 1.382 . S
C562 H564 0.948 . S
H563 C561 0.952 . S
H564 C562 0.948 . S
H565 C554 0.952 . S
H566 C556 0.948 . S
C567 C533 1.395 . S
C567 C537 1.391 . S
C568 C530 1.389 . S
C568 C550 1.392 . S
C569 C540 1.392 . S
C569 C542 1.389 . S
C570 C545 1.395 . S
C570 C547 1.391 . S
H571 C531 0.951 . S
H572 C532 0.950 . S
H573 C538 0.949 . S
H574 C539 0.950 . S
H575 C543 0.951 . S
H576 C544 0.950 . S
H577 C548 0.949 . S
H578 C549 0.950 . S
H579 C553 0.950 . S
H580 C555 0.950 . S
H581 C558 0.950 . S
H582 C560 0.950 . S
C583 C584 1.443 . S
C583 N587 1.376 . S
C583 C621 1.389 . S
C584 C583 1.443 . S
C584 C585 1.340 . S
C584 H624 0.951 . S
C585 C584 1.340 . S
C585 C586 1.439 . S
C585 H625 0.950 . S
C586 C585 1.439 . S
C586 N587 1.374 . S
C586 C620 1.395 . S
N587 C583 1.376 . S
N587 C586 1.374 . S
N587 Co588 2.008 . S
Co588 N587 2.008 . S
Co588 N589 1.995 . S
Co588 N594 2.008 . S
Co588 N599 1.995 . S
Co588 N604 2.282 . S
Co588 N610 2.282 . S
N589 Co588 1.995 . S
N589 C590 1.376 . S
N589 C593 1.383 . S
C590 N589 1.376 . S
C590 C591 1.446 . S
C590 C620 1.391 . S
C591 C590 1.446 . S
C591 C592 1.339 . S
C591 H626 0.949 . S
C592 C591 1.339 . S
C592 C593 1.439 . S
C592 H627 0.950 . S
C593 N589 1.383 . S
C593 C592 1.439 . S
C593 C622 1.392 . S
N594 Co588 2.008 . S
N594 C595 1.376 . S
N594 C598 1.374 . S
C595 N594 1.376 . S
C595 C596 1.443 . S
C595 C622 1.389 . S
C596 C595 1.443 . S
C596 C597 1.340 . S
C596 H628 0.951 . S
C597 C596 1.340 . S
C597 C598 1.439 . S
C597 H629 0.950 . S
C598 N594 1.374 . S
C598 C597 1.439 . S
C598 C623 1.395 . S
N599 Co588 1.995 . S
N599 C600 1.376 . S
N599 C603 1.383 . S
C600 N599 1.376 . S
C600 C601 1.446 . S
C600 C623 1.391 . S
C601 C600 1.446 . S
C601 C602 1.339 . S
C601 H630 0.949 . S
C602 C601 1.339 . S
C602 C603 1.439 . S
C602 H631 0.950 . S
C603 N599 1.383 . S
C603 C602 1.439 . S
C603 C621 1.392 . S
N604 Co588 2.282 . S
N604 C607 1.332 . S
N604 C609 1.332 . S
C605 C606 1.386 . S
C605 C608 1.388 . S
C606 C605 1.386 . S
C606 C607 1.382 . S
C606 H632 0.950 . S
C607 N604 1.332 . S
C607 C606 1.382 . S
C607 H618 0.952 . S
C608 C605 1.388 . S
C608 C609 1.382 . S
C608 H633 0.950 . S
C609 N604 1.332 . S
C609 C608 1.382 . S
C609 H619 0.948 . S
N610 Co588 2.282 . S
N610 C614 1.332 . S
N610 C615 1.332 . S
C611 C612 1.388 . S
C611 C615 1.382 . S
C611 H634 0.950 . S
C612 C611 1.388 . S
C612 C613 1.386 . S
C613 C612 1.386 . S
C613 C614 1.382 . S
C613 H635 0.950 . S
C614 N610 1.332 . S
C614 C613 1.382 . S
C614 H616 0.952 . S
C615 N610 1.332 . S
C615 C611 1.382 . S
C615 H617 0.948 . S
H616 C614 0.952 . S
H617 C615 0.948 . S
H618 C607 0.952 . S
H619 C609 0.948 . S
C620 C586 1.395 . S
C620 C590 1.391 . S
C621 C583 1.389 . S
C621 C603 1.392 . S
C622 C593 1.392 . S
C622 C595 1.389 . S
C623 C598 1.395 . S
C623 C600 1.391 . S
H624 C584 0.951 . S
H625 C585 0.950 . S
H626 C591 0.949 . S
H627 C592 0.950 . S
H628 C596 0.951 . S
H629 C597 0.950 . S
H630 C601 0.949 . S
H631 C602 0.950 . S
H632 C606 0.950 . S
H633 C608 0.950 . S
H634 C611 0.950 . S
H635 C613 0.950 . S
H636 C644 0.950 . S
H637 C649 0.950 . S
H638 C646 0.950 . S
H639 C648 0.950 . S
H640 C650 0.950 . S
H641 C652 0.950 . S
H642 C654 0.950 . S
H643 C655 0.950 . S
C644 H636 0.950 . S
C644 C645 1.386 . S
C644 C646 1.391 . S
C645 C644 1.386 . S
C645 C649 1.393 . S
C646 H638 0.950 . S
C646 C644 1.391 . S
C646 C647 1.400 . S
C647 C646 1.400 . S
C647 C648 1.398 . S
C647 C653 1.491 1_556 S
C648 H639 0.950 . S
C648 C647 1.398 . S
C648 C649 1.391 . S
C649 H637 0.950 . S
C649 C645 1.393 . S
C649 C648 1.391 . S
C650 H640 0.950 . S
C650 C651 1.386 . S
C650 C652 1.391 . S
C651 C650 1.386 . S
C651 C655 1.393 . S
C652 H641 0.950 . S
C652 C650 1.391 . S
C652 C653 1.400 . S
C653 C647 1.491 1_554 S
C653 C652 1.400 . S
C653 C654 1.398 . S
C654 H642 0.950 . S
C654 C653 1.398 . S
C654 C655 1.391 . S
C655 H643 0.950 . S
C655 C651 1.393 . S
C655 C654 1.391 . S
H656 C664 0.950 . S
H657 C669 0.950 . S
H658 C666 0.950 . S
H659 C668 0.950 . S
H660 C670 0.950 . S
H661 C672 0.950 . S
H662 C674 0.950 . S
H663 C675 0.950 . S
C664 H656 0.950 . S
C664 C665 1.386 . S
C664 C666 1.391 . S
C665 C664 1.386 . S
C665 C669 1.393 . S
C666 H658 0.950 . S
C666 C664 1.391 . S
C666 C667 1.400 . S
C667 C666 1.400 . S
C667 C668 1.398 . S
C667 C673 1.491 . S
C668 H659 0.950 . S
C668 C667 1.398 . S
C668 C669 1.391 . S
C669 H657 0.950 . S
C669 C665 1.393 . S
C669 C668 1.391 . S
C670 H660 0.950 . S
C670 C671 1.386 . S
C670 C672 1.391 . S
C671 C670 1.386 . S
C671 C675 1.393 . S
C672 H661 0.950 . S
C672 C670 1.391 . S
C672 C673 1.400 . S
C673 C667 1.491 . S
C673 C672 1.400 . S
C673 C674 1.398 . S
C674 H662 0.950 . S
C674 C673 1.398 . S
C674 C675 1.391 . S
C675 H663 0.950 . S
C675 C671 1.393 . S
C675 C674 1.391 . S
H676 C684 0.950 . S
H677 C689 0.950 . S
H678 C686 0.950 . S
H679 C688 0.950 . S
H680 C690 0.950 . S
H681 C692 0.950 . S
H682 C694 0.950 . S
H683 C695 0.950 . S
C684 H676 0.950 . S
C684 C685 1.386 . S
C684 C686 1.391 . S
C685 C684 1.386 . S
C685 C689 1.393 . S
C686 H678 0.950 . S
C686 C684 1.391 . S
C686 C687 1.400 . S
C687 C686 1.400 . S
C687 C688 1.398 . S
C687 C693 1.491 . S
C688 H679 0.950 . S
C688 C687 1.398 . S
C688 C689 1.391 . S
C689 H677 0.950 . S
C689 C685 1.393 . S
C689 C688 1.391 . S
C690 H680 0.950 . S
C690 C691 1.386 . S
C690 C692 1.391 . S
C691 C690 1.386 . S
C691 C695 1.393 . S
C692 H681 0.950 . S
C692 C690 1.391 . S
C692 C693 1.400 . S
C693 C687 1.491 . S
C693 C692 1.400 . S
C693 C694 1.398 . S
C694 H682 0.950 . S
C694 C693 1.398 . S
C694 C695 1.391 . S
C695 H683 0.950 . S
C695 C691 1.393 . S
C695 C694 1.391 . S
H696 C704 0.950 . S
H697 C709 0.950 . S
H698 C706 0.950 . S
H699 C708 0.950 . S
H700 C710 0.950 . S
H701 C712 0.950 . S
H702 C714 0.950 . S
H703 C715 0.950 . S
C704 H696 0.950 . S
C704 C705 1.386 . S
C704 C706 1.391 . S
C705 C704 1.386 . S
C705 C709 1.393 . S
C706 H698 0.950 . S
C706 C704 1.391 . S
C706 C707 1.400 . S
C707 C706 1.400 . S
C707 C708 1.398 . S
C707 C713 1.491 1_554 S
C708 H699 0.950 . S
C708 C707 1.398 . S
C708 C709 1.391 . S
C709 H697 0.950 . S
C709 C705 1.393 . S
C709 C708 1.391 . S
C710 H700 0.950 . S
C710 C711 1.386 . S
C710 C712 1.391 . S
C711 C710 1.386 . S
C711 C715 1.393 . S
C712 H701 0.950 . S
C712 C710 1.391 . S
C712 C713 1.400 . S
C713 C707 1.491 1_556 S
C713 C712 1.400 . S
C713 C714 1.398 . S
C714 H702 0.950 . S
C714 C713 1.398 . S
C714 C715 1.391 . S
C715 H703 0.950 . S
C715 C711 1.393 . S
C715 C714 1.391 . S
H716 C724 0.950 . S
H717 C729 0.950 . S
H718 C726 0.950 . S
H719 C728 0.950 . S
H720 C730 0.950 . S
H721 C732 0.950 . S
H722 C734 0.950 . S
H723 C735 0.950 . S
C724 H716 0.950 . S
C724 C725 1.386 . S
C724 C726 1.391 . S
C725 C724 1.386 . S
C725 C729 1.393 . S
C726 H718 0.950 . S
C726 C724 1.391 . S
C726 C727 1.400 . S
C727 C726 1.400 . S
C727 C728 1.398 . S
C727 C733 1.491 . S
C728 H719 0.950 . S
C728 C727 1.398 . S
C728 C729 1.391 . S
C729 H717 0.950 . S
C729 C725 1.393 . S
C729 C728 1.391 . S
C730 H720 0.950 . S
C730 C731 1.386 . S
C730 C732 1.391 . S
C731 C730 1.386 . S
C731 C735 1.393 . S
C732 H721 0.950 . S
C732 C730 1.391 . S
C732 C733 1.400 . S
C733 C727 1.491 . S
C733 C732 1.400 . S
C733 C734 1.398 . S
C734 H722 0.950 . S
C734 C733 1.398 . S
C734 C735 1.391 . S
C735 H723 0.950 . S
C735 C731 1.393 . S
C735 C734 1.391 . S
H736 C744 0.950 . S
H737 C749 0.950 . S
H738 C746 0.950 . S
H739 C748 0.950 . S
H740 C750 0.950 . S
H741 C752 0.950 . S
H742 C754 0.950 . S
H743 C755 0.950 . S
C744 H736 0.950 . S
C744 C745 1.386 . S
C744 C746 1.391 . S
C745 C744 1.386 . S
C745 C749 1.393 . S
C746 H738 0.950 . S
C746 C744 1.391 . S
C746 C747 1.400 . S
C747 C746 1.400 . S
C747 C748 1.398 . S
C747 C753 1.491 . S
C748 H739 0.950 . S
C748 C747 1.398 . S
C748 C749 1.391 . S
C749 H737 0.950 . S
C749 C745 1.393 . S
C749 C748 1.391 . S
C750 H740 0.950 . S
C750 C751 1.386 . S
C750 C752 1.391 . S
C751 C750 1.386 . S
C751 C755 1.393 . S
C752 H741 0.950 . S
C752 C750 1.391 . S
C752 C753 1.400 . S
C753 C747 1.491 . S
C753 C752 1.400 . S
C753 C754 1.398 . S
C754 H742 0.950 . S
C754 C753 1.398 . S
C754 C755 1.391 . S
C755 H743 0.950 . S
C755 C751 1.393 . S
C755 C754 1.391 . S
H756 C764 0.950 . S
H757 C769 0.950 . S
H758 C766 0.950 . S
H759 C768 0.950 . S
H760 C770 0.950 . S
H761 C772 0.950 . S
H762 C774 0.950 . S
H763 C775 0.950 . S
C764 H756 0.950 . S
C764 C765 1.386 . S
C764 C766 1.391 . S
C765 C764 1.386 . S
C765 C769 1.393 . S
C766 H758 0.950 . S
C766 C764 1.391 . S
C766 C767 1.400 . S
C767 C766 1.400 . S
C767 C768 1.398 . S
C767 C773 1.491 . S
C768 H759 0.950 . S
C768 C767 1.398 . S
C768 C769 1.391 . S
C769 H757 0.950 . S
C769 C765 1.393 . S
C769 C768 1.391 . S
C770 H760 0.950 . S
C770 C771 1.386 . S
C770 C772 1.391 . S
C771 C770 1.386 . S
C771 C775 1.393 . S
C772 H761 0.950 . S
C772 C770 1.391 . S
C772 C773 1.400 . S
C773 C767 1.491 . S
C773 C772 1.400 . S
C773 C774 1.398 . S
C774 H762 0.950 . S
C774 C773 1.398 . S
C774 C775 1.391 . S
C775 H763 0.950 . S
C775 C771 1.393 . S
C775 C774 1.391 . S
H776 C784 0.950 . S
H777 C789 0.950 . S
H778 C786 0.950 . S
H779 C788 0.950 . S
H780 C790 0.950 . S
H781 C792 0.950 . S
H782 C794 0.950 . S
H783 C795 0.950 . S
C784 H776 0.950 . S
C784 C785 1.386 . S
C784 C786 1.391 . S
C785 C784 1.386 . S
C785 C789 1.393 . S
C786 H778 0.950 . S
C786 C784 1.391 . S
C786 C787 1.400 . S
C787 C786 1.400 . S
C787 C788 1.398 . S
C787 C793 1.491 . S
C788 H779 0.950 . S
C788 C787 1.398 . S
C788 C789 1.391 . S
C789 H777 0.950 . S
C789 C785 1.393 . S
C789 C788 1.391 . S
C790 H780 0.950 . S
C790 C791 1.386 . S
C790 C792 1.391 . S
C791 C790 1.386 . S
C791 C795 1.393 . S
C792 H781 0.950 . S
C792 C790 1.391 . S
C792 C793 1.400 . S
C793 C787 1.491 . S
C793 C792 1.400 . S
C793 C794 1.398 . S
C794 H782 0.950 . S
C794 C793 1.398 . S
C794 C795 1.391 . S
C795 H783 0.950 . S
C795 C791 1.393 . S
C795 C794 1.391 . S
H796 C804 0.950 . S
H797 C809 0.950 . S
H798 C806 0.950 . S
H799 C808 0.950 . S
H800 C810 0.950 . S
H801 C812 0.950 . S
H802 C814 0.950 . S
H803 C815 0.950 . S
C804 H796 0.950 . S
C804 C805 1.386 . S
C804 C806 1.391 . S
C805 C804 1.386 . S
C805 C809 1.393 . S
C806 H798 0.950 . S
C806 C804 1.391 . S
C806 C807 1.400 . S
C807 C806 1.400 . S
C807 C808 1.398 . S
C807 C813 1.491 . S
C808 H799 0.950 . S
C808 C807 1.398 . S
C808 C809 1.391 . S
C809 H797 0.950 . S
C809 C805 1.393 . S
C809 C808 1.391 . S
C810 H800 0.950 . S
C810 C811 1.386 . S
C810 C812 1.391 . S
C811 C810 1.386 . S
C811 C815 1.393 . S
C812 H801 0.950 . S
C812 C810 1.391 . S
C812 C813 1.400 . S
C813 C807 1.491 . S
C813 C812 1.400 . S
C813 C814 1.398 . S
C814 H802 0.950 . S
C814 C813 1.398 . S
C814 C815 1.391 . S
C815 H803 0.950 . S
C815 C811 1.393 . S
C815 C814 1.391 . S
H816 C824 0.950 . S
H817 C829 0.950 . S
H818 C826 0.950 . S
H819 C828 0.950 . S
H820 C830 0.950 . S
H821 C832 0.950 . S
H822 C834 0.950 . S
H823 C835 0.950 . S
C824 H816 0.950 . S
C824 C825 1.386 . S
C824 C826 1.391 . S
C825 C824 1.386 . S
C825 C829 1.393 . S
C826 H818 0.950 . S
C826 C824 1.391 . S
C826 C827 1.400 . S
C827 C826 1.400 . S
C827 C828 1.398 . S
C827 C833 1.491 . S
C828 H819 0.950 . S
C828 C827 1.398 . S
C828 C829 1.391 . S
C829 H817 0.950 . S
C829 C825 1.393 . S
C829 C828 1.391 . S
C830 H820 0.950 . S
C830 C831 1.386 . S
C830 C832 1.391 . S
C831 C830 1.386 . S
C831 C835 1.393 . S
C832 H821 0.950 . S
C832 C830 1.391 . S
C832 C833 1.400 . S
C833 C827 1.491 . S
C833 C832 1.400 . S
C833 C834 1.398 . S
C834 H822 0.950 . S
C834 C833 1.398 . S
C834 C835 1.391 . S
C835 H823 0.950 . S
C835 C831 1.393 . S
C835 C834 1.391 . S
H836 C844 0.950 . S
H837 C849 0.950 . S
H838 C846 0.950 . S
H839 C848 0.950 . S
H840 C850 0.950 . S
H841 C852 0.950 . S
H842 C854 0.950 . S
H843 C855 0.950 . S
C844 H836 0.950 . S
C844 C845 1.386 . S
C844 C846 1.391 . S
C845 C844 1.386 . S
C845 C849 1.393 . S
C846 H838 0.950 . S
C846 C844 1.391 . S
C846 C847 1.400 . S
C847 C846 1.400 . S
C847 C848 1.398 . S
C847 C853 1.491 . S
C848 H839 0.950 . S
C848 C847 1.398 . S
C848 C849 1.391 . S
C849 H837 0.950 . S
C849 C845 1.393 . S
C849 C848 1.391 . S
C850 H840 0.950 . S
C850 C851 1.386 . S
C850 C852 1.391 . S
C851 C850 1.386 . S
C851 C855 1.393 . S
C852 H841 0.950 . S
C852 C850 1.391 . S
C852 C853 1.400 . S
C853 C847 1.491 . S
C853 C852 1.400 . S
C853 C854 1.398 . S
C854 H842 0.950 . S
C854 C853 1.398 . S
C854 C855 1.391 . S
C855 H843 0.950 . S
C855 C851 1.393 . S
C855 C854 1.391 . S
H856 C864 0.950 . S
H857 C869 0.950 . S
H858 C866 0.950 . S
H859 C868 0.950 . S
H860 C870 0.950 . S
H861 C872 0.950 . S
H862 C874 0.950 . S
H863 C875 0.950 . S
C864 H856 0.950 . S
C864 C865 1.386 . S
C864 C866 1.391 . S
C865 C864 1.386 . S
C865 C869 1.393 . S
C866 H858 0.950 . S
C866 C864 1.391 . S
C866 C867 1.400 . S
C867 C866 1.400 . S
C867 C868 1.398 . S
C867 C873 1.491 . S
C868 H859 0.950 . S
C868 C867 1.398 . S
C868 C869 1.391 . S
C869 H857 0.950 . S
C869 C865 1.393 . S
C869 C868 1.391 . S
C870 H860 0.950 . S
C870 C871 1.386 . S
C870 C872 1.391 . S
C871 C870 1.386 . S
C871 C875 1.393 . S
C872 H861 0.950 . S
C872 C870 1.391 . S
C872 C873 1.400 . S
C873 C867 1.491 . S
C873 C872 1.400 . S
C873 C874 1.398 . S
C874 H862 0.950 . S
C874 C873 1.398 . S
C874 C875 1.391 . S
C875 H863 0.950 . S
C875 C871 1.393 . S
C875 C874 1.391 . S
H876 C884 0.950 . S
H877 C889 0.950 . S
H878 C886 0.950 . S
H879 C888 0.950 . S
H880 C890 0.950 . S
H881 C892 0.950 . S
H882 C894 0.950 . S
H883 C895 0.950 . S
C884 H876 0.950 . S
C884 C885 1.386 . S
C884 C886 1.391 . S
C885 C884 1.386 . S
C885 C889 1.393 . S
C886 H878 0.950 . S
C886 C884 1.391 . S
C886 C887 1.400 . S
C887 C886 1.400 . S
C887 C888 1.398 . S
C887 C893 1.491 1_655 S
C888 H879 0.950 . S
C888 C887 1.398 . S
C888 C889 1.391 . S
C889 H877 0.950 . S
C889 C885 1.393 . S
C889 C888 1.391 . S
C890 H880 0.950 . S
C890 C891 1.386 . S
C890 C892 1.391 . S
C891 C890 1.386 . S
C891 C895 1.393 . S
C892 H881 0.950 . S
C892 C890 1.391 . S
C892 C893 1.400 . S
C893 C887 1.491 1_455 S
C893 C892 1.400 . S
C893 C894 1.398 . S
C894 H882 0.950 . S
C894 C893 1.398 . S
C894 C895 1.391 . S
C895 H883 0.950 . S
C895 C891 1.393 . S
C895 C894 1.391 . S
H896 C904 0.950 . S
H897 C909 0.950 . S
H898 C906 0.950 . S
H899 C908 0.950 . S
H900 C910 0.950 . S
H901 C912 0.950 . S
H902 C914 0.950 . S
H903 C915 0.950 . S
C904 H896 0.950 . S
C904 C905 1.386 . S
C904 C906 1.391 . S
C905 C904 1.386 . S
C905 C909 1.393 . S
C906 H898 0.950 . S
C906 C904 1.391 . S
C906 C907 1.400 . S
C907 C906 1.400 . S
C907 C908 1.398 . S
C907 C913 1.491 1_545 S
C908 H899 0.950 . S
C908 C907 1.398 . S
C908 C909 1.391 . S
C909 H897 0.950 . S
C909 C905 1.393 . S
C909 C908 1.391 . S
C910 H900 0.950 . S
C910 C911 1.386 . S
C910 C912 1.391 . S
C911 C910 1.386 . S
C911 C915 1.393 . S
C912 H901 0.950 . S
C912 C910 1.391 . S
C912 C913 1.400 . S
C913 C907 1.491 1_565 S
C913 C912 1.400 . S
C913 C914 1.398 . S
C914 H902 0.950 . S
C914 C913 1.398 . S
C914 C915 1.391 . S
C915 H903 0.950 . S
C915 C911 1.393 . S
C915 C914 1.391 . S
H916 C924 0.950 . S
H917 C929 0.950 . S
H918 C926 0.950 . S
H919 C928 0.950 . S
H920 C930 0.950 . S
H921 C932 0.950 . S
H922 C934 0.950 . S
H923 C935 0.950 . S
C924 H916 0.950 . S
C924 C925 1.386 . S
C924 C926 1.391 . S
C925 C924 1.386 . S
C925 C929 1.393 . S
C926 H918 0.950 . S
C926 C924 1.391 . S
C926 C927 1.400 . S
C927 C926 1.400 . S
C927 C928 1.398 . S
C927 C933 1.491 . S
C928 H919 0.950 . S
C928 C927 1.398 . S
C928 C929 1.391 . S
C929 H917 0.950 . S
C929 C925 1.393 . S
C929 C928 1.391 . S
C930 H920 0.950 . S
C930 C931 1.386 . S
C930 C932 1.391 . S
C931 C930 1.386 . S
C931 C935 1.393 . S
C932 H921 0.950 . S
C932 C930 1.391 . S
C932 C933 1.400 . S
C933 C927 1.491 . S
C933 C932 1.400 . S
C933 C934 1.398 . S
C934 H922 0.950 . S
C934 C933 1.398 . S
C934 C935 1.391 . S
C935 H923 0.950 . S
C935 C931 1.393 . S
C935 C934 1.391 . S
H936 C944 0.950 . S
H937 C949 0.950 . S
H938 C946 0.950 . S
H939 C948 0.950 . S
H940 C950 0.950 . S
H941 C952 0.950 . S
H942 C954 0.950 . S
H943 C955 0.950 . S
C944 H936 0.950 . S
C944 C945 1.386 . S
C944 C946 1.391 . S
C945 C944 1.386 . S
C945 C949 1.393 . S
C946 H938 0.950 . S
C946 C944 1.391 . S
C946 C947 1.400 . S
C947 C946 1.400 . S
C947 C948 1.398 . S
C947 C953 1.491 1_545 S
C948 H939 0.950 . S
C948 C947 1.398 . S
C948 C949 1.391 . S
C949 H937 0.950 . S
C949 C945 1.393 . S
C949 C948 1.391 . S
C950 H940 0.950 . S
C950 C951 1.386 . S
C950 C952 1.391 . S
C951 C950 1.386 . S
C951 C955 1.393 . S
C952 H941 0.950 . S
C952 C950 1.391 . S
C952 C953 1.400 . S
C953 C947 1.491 1_565 S
C953 C952 1.400 . S
C953 C954 1.398 . S
C954 H942 0.950 . S
C954 C953 1.398 . S
C954 C955 1.391 . S
C955 H943 0.950 . S
C955 C951 1.393 . S
C955 C954 1.391 . S
H956 C964 0.950 . S
H957 C969 0.950 . S
H958 C966 0.950 . S
H959 C968 0.950 . S
H960 C970 0.950 . S
H961 C972 0.950 . S
H962 C974 0.950 . S
H963 C975 0.950 . S
C964 H956 0.950 . S
C964 C965 1.386 . S
C964 C966 1.391 . S
C965 C964 1.386 . S
C965 C969 1.393 . S
C966 H958 0.950 . S
C966 C964 1.391 . S
C966 C967 1.400 . S
C967 C966 1.400 . S
C967 C968 1.398 . S
C967 C973 1.491 . S
C968 H959 0.950 . S
C968 C967 1.398 . S
C968 C969 1.391 . S
C969 H957 0.950 . S
C969 C965 1.393 . S
C969 C968 1.391 . S
C970 H960 0.950 . S
C970 C971 1.386 . S
C970 C972 1.391 . S
C971 C970 1.386 . S
C971 C975 1.393 . S
C972 H961 0.950 . S
C972 C970 1.391 . S
C972 C973 1.400 . S
C973 C967 1.491 . S
C973 C972 1.400 . S
C973 C974 1.398 . S
C974 H962 0.950 . S
C974 C973 1.398 . S
C974 C975 1.391 . S
C975 H963 0.950 . S
C975 C971 1.393 . S
C975 C974 1.391 . S
H976 C984 0.950 . S
H977 C989 0.950 . S
H978 C986 0.950 . S
H979 C988 0.950 . S
H980 C990 0.950 . S
H981 C992 0.950 . S
H982 C994 0.950 . S
H983 C995 0.950 . S
C984 H976 0.950 . S
C984 C985 1.386 . S
C984 C986 1.391 . S
C985 C984 1.386 . S
C985 C989 1.393 . S
C986 H978 0.950 . S
C986 C984 1.391 . S
C986 C987 1.400 . S
C987 C986 1.400 . S
C987 C988 1.398 . S
C987 C993 1.491 1_455 S
C988 H979 0.950 . S
C988 C987 1.398 . S
C988 C989 1.391 . S
C989 H977 0.950 . S
C989 C985 1.393 . S
C989 C988 1.391 . S
C990 H980 0.950 . S
C990 C991 1.386 . S
C990 C992 1.391 . S
C991 C990 1.386 . S
C991 C995 1.393 . S
C992 H981 0.950 . S
C992 C990 1.391 . S
C992 C993 1.400 . S
C993 C987 1.491 1_655 S
C993 C992 1.400 . S
C993 C994 1.398 . S
C994 H982 0.950 . S
C994 C993 1.398 . S
C994 C995 1.391 . S
C995 H983 0.950 . S
C995 C991 1.393 . S
C995 C994 1.391 . S
H996 C1004 0.950 . S
H997 C1009 0.950 . S
H998 C1006 0.950 . S
H999 C1008 0.950 . S
H1000 C1010 0.950 . S
H1001 C1012 0.950 . S
H1002 C1014 0.950 . S
H1003 C1015 0.950 . S
C1004 H996 0.950 . S
C1004 C1005 1.386 . S
C1004 C1006 1.391 . S
C1005 C1004 1.386 . S
C1005 C1009 1.393 . S
C1006 H998 0.950 . S
C1006 C1004 1.391 . S
C1006 C1007 1.400 . S
C1007 C1006 1.400 . S
C1007 C1008 1.398 . S
C1007 C1013 1.491 . S
C1008 H999 0.950 . S
C1008 C1007 1.398 . S
C1008 C1009 1.391 . S
C1009 H997 0.950 . S
C1009 C1005 1.393 . S
C1009 C1008 1.391 . S
C1010 H1000 0.950 . S
C1010 C1011 1.386 . S
C1010 C1012 1.391 . S
C1011 C1010 1.386 . S
C1011 C1015 1.393 . S
C1012 H1001 0.950 . S
C1012 C1010 1.391 . S
C1012 C1013 1.400 . S
C1013 C1007 1.491 . S
C1013 C1012 1.400 . S
C1013 C1014 1.398 . S
C1014 H1002 0.950 . S
C1014 C1013 1.398 . S
C1014 C1015 1.391 . S
C1015 H1003 0.950 . S
C1015 C1011 1.393 . S
C1015 C1014 1.391 . S
H1016 C1024 0.950 . S
H1017 C1029 0.950 . S
H1018 C1026 0.950 . S
H1019 C1028 0.950 . S
H1020 C1030 0.950 . S
H1021 C1032 0.950 . S
H1022 C1034 0.950 . S
H1023 C1035 0.950 . S
C1024 H1016 0.950 . S
C1024 C1025 1.386 . S
C1024 C1026 1.391 . S
C1025 C1024 1.386 . S
C1025 C1029 1.393 . S
C1026 H1018 0.950 . S
C1026 C1024 1.391 . S
C1026 C1027 1.400 . S
C1027 C1026 1.400 . S
C1027 C1028 1.398 . S
C1027 C1033 1.491 1_655 S
C1028 H1019 0.950 . S
C1028 C1027 1.398 . S
C1028 C1029 1.391 . S
C1029 H1017 0.950 . S
C1029 C1025 1.393 . S
C1029 C1028 1.391 . S
C1030 H1020 0.950 . S
C1030 C1031 1.386 . S
C1030 C1032 1.391 . S
C1031 C1030 1.386 . S
C1031 C1035 1.393 . S
C1032 H1021 0.950 . S
C1032 C1030 1.391 . S
C1032 C1033 1.400 . S
C1033 C1027 1.491 1_455 S
C1033 C1032 1.400 . S
C1033 C1034 1.398 . S
C1034 H1022 0.950 . S
C1034 C1033 1.398 . S
C1034 C1035 1.391 . S
C1035 H1023 0.950 . S
C1035 C1031 1.393 . S
C1035 C1034 1.391 . S
H1036 C1044 0.950 . S
H1037 C1049 0.950 . S
H1038 C1046 0.950 . S
H1039 C1048 0.950 . S
H1040 C1050 0.950 . S
H1041 C1052 0.950 . S
H1042 C1054 0.950 . S
H1043 C1055 0.950 . S
C1044 H1036 0.950 . S
C1044 C1045 1.386 . S
C1044 C1046 1.391 . S
C1045 C1044 1.386 . S
C1045 C1049 1.393 . S
C1046 H1038 0.950 . S
C1046 C1044 1.391 . S
C1046 C1047 1.400 . S
C1047 C1046 1.400 . S
C1047 C1048 1.398 . S
C1047 C1053 1.491 1_545 S
C1048 H1039 0.950 . S
C1048 C1047 1.398 . S
C1048 C1049 1.391 . S
C1049 H1037 0.950 . S
C1049 C1045 1.393 . S
C1049 C1048 1.391 . S
C1050 H1040 0.950 . S
C1050 C1051 1.386 . S
C1050 C1052 1.391 . S
C1051 C1050 1.386 . S
C1051 C1055 1.393 . S
C1052 H1041 0.950 . S
C1052 C1050 1.391 . S
C1052 C1053 1.400 . S
C1053 C1047 1.491 1_565 S
C1053 C1052 1.400 . S
C1053 C1054 1.398 . S
C1054 H1042 0.950 . S
C1054 C1053 1.398 . S
C1054 C1055 1.391 . S
C1055 H1043 0.950 . S
C1055 C1051 1.393 . S
C1055 C1054 1.391 . S
H1056 C1064 0.950 . S
H1057 C1069 0.950 . S
H1058 C1066 0.950 . S
H1059 C1068 0.950 . S
H1060 C1070 0.950 . S
H1061 C1072 0.950 . S
H1062 C1074 0.950 . S
H1063 C1075 0.950 . S
C1064 H1056 0.950 . S
C1064 C1065 1.386 . S
C1064 C1066 1.391 . S
C1065 C1064 1.386 . S
C1065 C1069 1.393 . S
C1066 H1058 0.950 . S
C1066 C1064 1.391 . S
C1066 C1067 1.400 . S
C1067 C1066 1.400 . S
C1067 C1068 1.398 . S
C1067 C1073 1.491 . S
C1068 H1059 0.950 . S
C1068 C1067 1.398 . S
C1068 C1069 1.391 . S
C1069 H1057 0.950 . S
C1069 C1065 1.393 . S
C1069 C1068 1.391 . S
C1070 H1060 0.950 . S
C1070 C1071 1.386 . S
C1070 C1072 1.391 . S
C1071 C1070 1.386 . S
C1071 C1075 1.393 . S
C1072 H1061 0.950 . S
C1072 C1070 1.391 . S
C1072 C1073 1.400 . S
C1073 C1067 1.491 . S
C1073 C1072 1.400 . S
C1073 C1074 1.398 . S
C1074 H1062 0.950 . S
C1074 C1073 1.398 . S
C1074 C1075 1.391 . S
C1075 H1063 0.950 . S
C1075 C1071 1.393 . S
C1075 C1074 1.391 . S
H1076 C1084 0.950 . S
H1077 C1089 0.950 . S
H1078 C1086 0.950 . S
H1079 C1088 0.950 . S
H1080 C1090 0.950 . S
H1081 C1092 0.950 . S
H1082 C1094 0.950 . S
H1083 C1095 0.950 . S
C1084 H1076 0.950 . S
C1084 C1085 1.386 . S
C1084 C1086 1.391 . S
C1085 C1084 1.386 . S
C1085 C1089 1.393 . S
C1086 H1078 0.950 . S
C1086 C1084 1.391 . S
C1086 C1087 1.400 . S
C1087 C1086 1.400 . S
C1087 C1088 1.398 . S
C1087 C1093 1.491 1_455 S
C1088 H1079 0.950 . S
C1088 C1087 1.398 . S
C1088 C1089 1.391 . S
C1089 H1077 0.950 . S
C1089 C1085 1.393 . S
C1089 C1088 1.391 . S
C1090 H1080 0.950 . S
C1090 C1091 1.386 . S
C1090 C1092 1.391 . S
C1091 C1090 1.386 . S
C1091 C1095 1.393 . S
C1092 H1081 0.950 . S
C1092 C1090 1.391 . S
C1092 C1093 1.400 . S
C1093 C1087 1.491 1_655 S
C1093 C1092 1.400 . S
C1093 C1094 1.398 . S
C1094 H1082 0.950 . S
C1094 C1093 1.398 . S
C1094 C1095 1.391 . S
C1095 H1083 0.950 . S
C1095 C1091 1.393 . S
C1095 C1094 1.391 . S
H1096 C1104 0.950 . S
H1097 C1109 0.950 . S
H1098 C1106 0.950 . S
H1099 C1108 0.950 . S
H1100 C1110 0.950 . S
H1101 C1112 0.950 . S
H1102 C1114 0.950 . S
H1103 C1115 0.950 . S
C1104 H1096 0.950 . S
C1104 C1105 1.386 . S
C1104 C1106 1.391 . S
C1105 C1104 1.386 . S
C1105 C1109 1.393 . S
C1106 H1098 0.950 . S
C1106 C1104 1.391 . S
C1106 C1107 1.400 . S
C1107 C1106 1.400 . S
C1107 C1108 1.398 . S
C1107 C1113 1.491 1_565 S
C1108 H1099 0.950 . S
C1108 C1107 1.398 . S
C1108 C1109 1.391 . S
C1109 H1097 0.950 . S
C1109 C1105 1.393 . S
C1109 C1108 1.391 . S
C1110 H1100 0.950 . S
C1110 C1111 1.386 . S
C1110 C1112 1.391 . S
C1111 C1110 1.386 . S
C1111 C1115 1.393 . S
C1112 H1101 0.950 . S
C1112 C1110 1.391 . S
C1112 C1113 1.400 . S
C1113 C1107 1.491 1_545 S
C1113 C1112 1.400 . S
C1113 C1114 1.398 . S
C1114 H1102 0.950 . S
C1114 C1113 1.398 . S
C1114 C1115 1.391 . S
C1115 H1103 0.950 . S
C1115 C1111 1.393 . S
C1115 C1114 1.391 . S
C645 C569 1.858 . S
C651 C39 1.854 . S
C665 C92 1.871 . S
C671 C622 1.863 . S
C685 C145 1.854 . S
C691 C357 1.861 . S
C705 C198 1.870 . S
C711 C410 1.861 . S
C725 C463 1.857 . S
C731 C251 1.854 . S
C745 C304 1.869 . S
C751 C516 1.871 . S
C765 C462 1.926 . S
C771 C38 1.930 . S
C785 C91 1.930 . S
C791 C515 1.932 . S
C805 C144 1.928 . S
C811 C568 1.931 . S
C825 C197 1.916 . S
C831 C621 1.918 . S
C845 C356 1.930 . S
C851 C250 1.926 . S
C865 C409 1.917 . S
C871 C303 1.916 . S
C885 C188 1.002 . S
C891 C29 1.004 . S
C905 C82 1.004 . S
C911 C241 0.996 . S
C925 C294 0.997 . S
C931 C135 0.999 . S
C945 C506 0.996 . S
C951 C347 1.001 . S
C965 C559 1.005 . S
C971 C400 0.998 . S
C985 C453 0.996 . S
C991 C612 1.000 . S
C1005 C181 2.018 . S
C1011 C22 2.017 . S
C1025 C75 2.019 . S
C1031 C234 2.016 . S
C1045 C287 2.017 . S
C1051 C128 2.016 . S
C1065 C340 2.016 . S
C1071 C499 2.019 . S
C1085 C552 2.016 . S
C1091 C393 2.019 . S
C1105 C446 2.017 . S
C1111 C605 2.018 . S
