# Generated by pormake.
# Topology fni, (5)-cn, num edge types: 1
# Building blocks:
#     Node 0, Type 0, BuildingBlock: XOMCOT_clean_sbu_0, # of connection points: 5
#     Node 1, Type 0, BuildingBlock: XOMCOT_clean_sbu_0, # of connection points: 5
#     Node 2, Type 0, BuildingBlock: XOMCOT_clean_sbu_0, # of connection points: 5
#     Node 3, Type 0, BuildingBlock: XOMCOT_clean_sbu_0, # of connection points: 5
#     Node 4, Type 0, BuildingBlock: XOMCOT_clean_sbu_0, # of connection points: 5
#     Node 5, Type 0, BuildingBlock: XOMCOT_clean_sbu_0, # of connection points: 5
#     Node 6, Type 0, BuildingBlock: XOMCOT_clean_sbu_0, # of connection points: 5
#     Node 7, Type 0, BuildingBlock: XOMCOT_clean_sbu_0, # of connection points: 5
#     Edge 8, Type (0, 0), BuildingBlock: AJUNOK_clean_linker_0, # of connection points: 2
#     Edge 9, Type (0, 0), BuildingBlock: AJUNOK_clean_linker_0, # of connection points: 2
#     Edge 10, Type (0, 0), BuildingBlock: AJUNOK_clean_linker_0, # of connection points: 2
#     Edge 11, Type (0, 0), BuildingBlock: AJUNOK_clean_linker_0, # of connection points: 2
#     Edge 12, Type (0, 0), BuildingBlock: AJUNOK_clean_linker_0, # of connection points: 2
#     Edge 13, Type (0, 0), BuildingBlock: AJUNOK_clean_linker_0, # of connection points: 2
#     Edge 14, Type (0, 0), BuildingBlock: AJUNOK_clean_linker_0, # of connection points: 2
#     Edge 15, Type (0, 0), BuildingBlock: AJUNOK_clean_linker_0, # of connection points: 2
#     Edge 16, Type (0, 0), BuildingBlock: AJUNOK_clean_linker_0, # of connection points: 2
#     Edge 17, Type (0, 0), BuildingBlock: AJUNOK_clean_linker_0, # of connection points: 2
#     Edge 18, Type (0, 0), BuildingBlock: AJUNOK_clean_linker_0, # of connection points: 2
#     Edge 19, Type (0, 0), BuildingBlock: AJUNOK_clean_linker_0, # of connection points: 2
#     Edge 20, Type (0, 0), BuildingBlock: AJUNOK_clean_linker_0, # of connection points: 2
#     Edge 21, Type (0, 0), BuildingBlock: AJUNOK_clean_linker_0, # of connection points: 2
#     Edge 22, Type (0, 0), BuildingBlock: AJUNOK_clean_linker_0, # of connection points: 2
#     Edge 23, Type (0, 0), BuildingBlock: AJUNOK_clean_linker_0, # of connection points: 2
#     Edge 24, Type (0, 0), BuildingBlock: AJUNOK_clean_linker_0, # of connection points: 2
#     Edge 25, Type (0, 0), BuildingBlock: AJUNOK_clean_linker_0, # of connection points: 2
#     Edge 26, Type (0, 0), BuildingBlock: AJUNOK_clean_linker_0, # of connection points: 2
#     Edge 27, Type (0, 0), BuildingBlock: AJUNOK_clean_linker_0, # of connection points: 2
# Relax obj value: 0.069
# Max RMSD: 0.157
# Mean RMSD: 0.156
data_MOF--net-fni--node1-XOMCOT_clean_sbu_0--edge1-AJUNOK_clean_linker_0
_symmetry_space_group_name_H-M    P1
_symmetry_Int_Tables_number       1
_symmetry_cell_setting            triclinic
loop_
_symmetry_equiv_pos_as_xyz
'x, y, z'
_cell_length_a     40.900958
_cell_length_b     41.299173
_cell_length_c     13.52711
_cell_angle_alpha  89.691818
_cell_angle_beta   89.998049
_cell_angle_gamma 90.035043
loop_
_atom_site_label
_atom_site_type_symbol
_atom_site_fract_x
_atom_site_fract_y
_atom_site_fract_z
_atom_type_partial_charge
Co0 Co 0.40063 0.35866 0.0406 0.0
C1 C 0.40008 0.36373 0.25912 0.0
C2 C 0.35196 0.35697 0.20043 0.0
C3 C 0.35012 0.35572 0.30206 0.0
N4 N 0.38323 0.36268 0.17341 0.0
N5 N 0.38049 0.35959 0.33838 0.0
H6 H 0.42626 0.36575 0.2642 0.0
H7 H 0.33212 0.35221 0.14971 0.0
C8 C 0.34319 0.40428 1.01708 0.0
O9 O 0.35251 0.42033 0.09579 0.0
N10 N 0.41756 0.35387 0.90884 0.0
C11 C 0.44918 0.35454 0.88125 0.0
C12 C 0.45063 0.35313 0.77962 0.0
C13 C 0.40022 0.35179 0.82452 0.0
N14 N 0.41981 0.35135 0.74431 0.0
C15 C 0.45361 0.39889 0.10628 0.0
C16 C 0.43946 0.45201 0.98892 0.0
C17 C 0.46779 0.4525 0.047 0.0
C18 C 0.47481 0.42544 0.10593 0.0
C19 C 0.41906 0.42478 0.99061 0.0
N20 N 0.42557 0.39895 0.05132 0.0
H21 H 0.4609 0.37759 0.14687 0.0
H22 H 0.39909 0.42402 0.93872 0.0
H23 H 0.46964 0.35703 0.93127 0.0
H24 H 0.37381 0.35105 0.8217 0.0
O25 O 0.43291 0.328 0.09032 0.0
O26 O 0.38353 0.31519 0.03555 0.0
O27 O 0.36066 0.38097 0.98461 0.0
C28 C 0.41119 0.30569 0.07296 0.0
H29 H 0.32856 0.3504 0.34565 0.0
H30 H 0.47258 0.35479 0.73522 0.0
H31 H 0.43389 0.4719 0.93916 0.0
H32 H 0.49692 0.42451 0.14995 0.0
Co33 Co 0.65428 0.89428 0.25043 0.0
C34 C 0.64754 0.89318 0.46852 0.0
C35 C 0.65926 0.84633 0.41163 0.0
C36 C 0.66051 0.84488 0.51336 0.0
N37 N 0.6504 0.87649 0.38331 0.0
N38 N 0.65353 0.87449 0.54855 0.0
H39 H 0.64317 0.91885 0.47268 0.0
H40 H 0.66645 0.82724 0.36174 0.0
C41 C 0.6148 0.83238 0.22567 0.0
O42 O 0.5974 0.83763 0.30564 0.0
N43 N 0.65895 0.91185 0.11865 0.0
C44 C 0.65762 0.94323 0.09135 0.0
C45 C 0.65883 0.94503 0.98952 0.0
C46 C 0.6612 0.89508 0.03372 0.0
N47 N 0.6611 0.91468 0.95355 0.0
C48 C 0.61323 0.94591 0.31509 0.0
C49 C 0.55763 0.92839 0.2126 0.0
C50 C 0.55722 0.95681 0.26889 0.0
C51 C 0.58557 0.96551 0.32006 0.0
C52 C 0.58591 0.90923 0.2101 0.0
N53 N 0.61308 0.91768 0.26296 0.0
H54 H 0.63521 0.95428 0.35063 0.0
H55 H 0.58611 0.88841 0.16245 0.0
H56 H 0.65478 0.96328 0.14168 0.0
H57 H 0.66232 0.86901 0.03019 0.0
O58 O 0.68468 0.92653 0.30175 0.0
O59 O 0.698 0.8782 0.24545 0.0
O60 O 0.63386 0.85428 0.19197 0.0
C61 C 0.70733 0.90494 0.28666 0.0
H62 H 0.66815 0.82434 0.55772 0.0
H63 H 0.65662 0.96688 0.94555 0.0
H64 H 0.53644 0.92127 0.1699 0.0
H65 H 0.58681 0.98799 0.36084 0.0
Co66 Co 0.11784 0.16496 0.51253 0.0
C67 C 0.11778 0.15751 0.73035 0.0
C68 C 0.1665 0.16039 0.67332 0.0
C69 C 0.16797 0.16136 0.77513 0.0
N70 N 0.135 0.15725 0.64494 0.0
N71 N 0.13725 0.15997 0.81048 0.0
H72 H 0.09149 0.15819 0.7344 0.0
H73 H 0.18685 0.16429 0.62364 0.0
C74 C 0.17617 0.12023 0.47378 0.0
O75 O 0.16968 0.10096 0.54887 0.0
N76 N 0.10092 0.17323 0.38116 0.0
C77 C 0.06933 0.17614 0.35446 0.0
C78 C 0.06759 0.17752 0.25251 0.0
C79 C 0.11788 0.17299 0.29557 0.0
N80 N 0.09821 0.17545 0.21579 0.0
C81 C 0.06438 0.12502 0.57546 0.0
C82 C 0.07909 0.07192 0.46042 0.0
C83 C 0.05201 0.0704 0.52377 0.0
C84 C 0.04445 0.09763 0.58055 0.0
C85 C 0.09843 0.09984 0.45768 0.0
N86 N 0.0918 0.12548 0.51794 0.0
H87 H 0.05706 0.14623 0.61577 0.0
H88 H 0.1181 0.10095 0.4048 0.0
H89 H 0.04892 0.17577 0.40527 0.0
H90 H 0.14401 0.17015 0.29097 0.0
O91 O 0.08728 0.19618 0.56903 0.0
O92 O 0.13711 0.20701 0.51514 0.0
O93 O 0.15676 0.14322 0.45099 0.0
C94 C 0.11086 0.21721 0.55874 0.0
H95 H 0.18968 0.16522 0.81936 0.0
H96 H 0.04541 0.17818 0.20897 0.0
H97 H 0.08516 0.05176 0.41295 0.0
H98 H 0.02277 0.09812 0.62651 0.0
Co99 Co 0.87798 0.63721 0.78614 0.0
C100 C 0.87637 0.63211 0.56616 0.0
C101 C 0.82841 0.63562 0.62784 0.0
C102 C 0.82592 0.63779 0.52637 0.0
N103 N 0.86006 0.63134 0.65335 0.0
N104 N 0.8562 0.63578 0.48791 0.0
H105 H 0.90255 0.6331 0.55909 0.0
H106 H 0.80859 0.6392 0.67951 0.0
C107 C 0.82016 0.59212 0.82122 0.0
O108 O 0.82836 0.57449 0.74455 0.0
N109 N 0.89545 0.64411 0.91737 0.0
C110 C 0.92673 0.64023 0.94618 0.0
C111 C 0.92806 0.64184 0.04787 0.0
C112 C 0.87838 0.64893 1.00135 0.0
N113 N 0.8976 0.64717 0.08252 0.0
C114 C 0.92962 0.59673 0.71796 0.0
C115 C 0.922 0.54731 0.85435 0.0
C116 C 0.94981 0.54761 0.79361 0.0
C117 C 0.95265 0.57202 0.72226 0.0
C118 C 0.89893 0.57244 0.84633 0.0
N119 N 0.90304 0.59699 0.77898 0.0
H120 H 0.93505 0.61703 0.67094 0.0
H121 H 0.87926 0.57332 0.89943 0.0
H122 H 0.94689 0.63486 0.89719 0.0
H123 H 0.85227 0.65217 1.00314 0.0
O124 O 0.91024 0.66689 0.73206 0.0
O125 O 0.86067 0.68046 0.78376 0.0
O126 O 0.83825 0.61579 0.84762 0.0
C127 C 0.88804 0.68912 0.74238 0.0
H128 H 0.80368 0.64163 0.48462 0.0
H129 H 0.94959 0.63816 0.09308 0.0
H130 H 0.91917 0.52905 0.91147 0.0
H131 H 0.97372 0.57317 0.67379 0.0
Co132 Co 0.35849 0.1205 0.24832 0.0
C133 C 0.36607 0.12113 0.46699 0.0
C134 C 0.36113 0.16895 0.40724 0.0
C135 C 0.3609 0.1709 0.50896 0.0
N136 N 0.36504 0.13774 0.38063 0.0
N137 N 0.36411 0.14076 0.54632 0.0
H138 H 0.36528 0.09515 0.47264 0.0
H139 H 0.35694 0.18878 0.35625 0.0
C140 C 0.4084 0.17415 0.21934 0.0
O141 O 0.42382 0.16526 0.30026 0.0
N142 N 0.35123 0.10353 0.11734 0.0
C143 C 0.35138 0.07211 0.09114 0.0
C144 C 0.3513 0.07031 0.98941 0.0
C145 C 0.35024 0.12036 0.0317 0.0
N146 N 0.35104 0.10071 0.95228 0.0
C147 C 0.39465 0.06525 0.31691 0.0
C148 C 0.44969 0.07511 0.20236 0.0
C149 C 0.44846 0.048 0.26499 0.0
C150 C 0.42032 0.04305 0.32196 0.0
C151 C 0.42346 0.09684 0.19983 0.0
N152 N 0.3968 0.09249 0.25954 0.0
H153 H 0.37244 0.05962 0.35617 0.0
H154 H 0.42426 0.11634 0.14664 0.0
H155 H 0.35295 0.05196 0.14228 0.0
H156 H 0.3502 0.14643 0.02748 0.0
O157 O 0.32486 0.09183 0.30146 0.0
O158 O 0.31676 0.14148 0.24483 0.0
O159 O 0.38398 0.15776 0.1883 0.0
C160 C 0.30463 0.11572 0.28634 0.0
H161 H 0.35744 0.19265 0.552 0.0
H162 H 0.35211 0.04834 0.94624 0.0
H163 H 0.47062 0.07932 0.15493 0.0
H164 H 0.41765 0.02158 0.36761 0.0
Co165 Co 0.89394 0.86803 0.511 0.0
C166 C 0.89292 0.87456 0.72947 0.0
C167 C 0.84467 0.8704 0.66974 0.0
C168 C 0.84263 0.869 0.77128 0.0
N169 N 0.87618 0.87462 0.64308 0.0
N170 N 0.87309 0.8711 0.80884 0.0
H171 H 0.91922 0.87414 0.73457 0.0
H172 H 0.82468 0.86645 0.61892 0.0
C173 C 0.83535 0.9126 0.47415 0.0
O174 O 0.83948 0.93017 0.55384 0.0
N175 N 0.91141 0.86079 0.37992 0.0
C176 C 0.9431 0.86037 0.35277 0.0
C177 C 0.94477 0.85931 0.2508 0.0
C178 C 0.89433 0.85962 0.29462 0.0
N179 N 0.91404 0.85873 0.21465 0.0
C180 C 0.94944 0.9046 0.57649 0.0
C181 C 0.93625 0.96006 0.46852 0.0
C182 C 0.96442 0.95906 0.52731 0.0
C183 C 0.97104 0.93077 0.58125 0.0
C184 C 0.9153 0.93337 0.46586 0.0
N185 N 0.92148 0.90635 0.52159 0.0
H186 H 0.95588 0.8825 0.61452 0.0
H187 H 0.89484 0.93435 0.41593 0.0
H188 H 0.96353 0.86205 0.40322 0.0
H189 H 0.86806 0.8612 0.29042 0.0
O190 O 0.92251 0.83463 0.56612 0.0
O191 O 0.87265 0.82699 0.50768 0.0
O192 O 0.85667 0.8919 0.44804 0.0
C193 C 0.89811 0.81485 0.55094 0.0
H194 H 0.82043 0.86563 0.81359 0.0
H195 H 0.96683 0.85967 0.20658 0.0
H196 H 0.93059 0.98123 0.4241 0.0
H197 H 0.99324 0.92849 0.62439 0.0
Co198 Co 0.15838 0.39707 0.82211 0.0
C199 C 0.15585 0.39576 0.04126 0.0
C200 C 0.15251 0.34796 0.98209 0.0
C201 C 0.15393 0.3457 0.08379 0.0
N202 N 0.15288 0.37949 0.95516 0.0
N203 N 0.15618 0.37587 0.12056 0.0
H204 H 0.16043 0.4214 0.04661 0.0
H205 H 0.15306 0.32774 0.93181 0.0
C206 C 0.11359 0.33896 0.77638 0.0
O207 O 0.0917 0.34557 0.84443 0.0
N208 N 0.1646 0.41418 0.69013 0.0
C209 C 0.16444 0.44549 0.66193 0.0
C210 C 0.16615 0.44691 0.56005 0.0
C211 C 0.16668 0.39706 0.60572 0.0
N212 N 0.16762 0.41639 0.52502 0.0
C213 C 0.11369 0.44477 0.89656 0.0
C214 C 0.06432 0.43423 0.76105 0.0
C215 C 0.06055 0.45907 0.83041 0.0
C216 C 0.08547 0.46369 0.90006 0.0
C217 C 0.09282 0.41538 0.76131 0.0
N218 N 0.11691 0.42035 0.82975 0.0
H219 H 0.13354 0.45098 0.94479 0.0
H220 H 0.09606 0.39784 0.70331 0.0
H221 H 0.16203 0.46577 0.71166 0.0
H222 H 0.16577 0.37098 0.60283 0.0
O223 O 0.18836 0.42945 0.87463 0.0
O224 O 0.20229 0.38076 0.82116 0.0
O225 O 0.138 0.35758 0.76224 0.0
C226 C 0.21127 0.40801 0.86002 0.0
H227 H 0.154 0.32356 0.12691 0.0
H228 H 0.16561 0.46867 0.51513 0.0
H229 H 0.04607 0.43033 0.70431 0.0
H230 H 0.08369 0.48251 0.95522 0.0
Co231 Co 0.63643 0.64672 0.04295 0.0
C232 C 0.64025 0.65059 0.26179 0.0
C233 C 0.67223 0.61386 0.20702 0.0
C234 C 0.67543 0.61517 0.30803 0.0
N235 N 0.6503 0.6363 0.17739 0.0
N236 N 0.65535 0.63836 0.34238 0.0
H237 H 0.62105 0.66845 0.26497 0.0
H238 H 0.68486 0.59706 0.16022 0.0
C239 C 0.68661 0.59543 0.96895 0.0
O240 O 0.66831 0.56993 0.98601 0.0
N241 N 0.62315 0.65773 0.90985 0.0
C242 C 0.59346 0.66826 0.88039 0.0
C243 C 0.59373 0.67198 0.77908 0.0
C244 C 0.64103 0.65525 0.82659 0.0
N245 N 0.62361 0.66368 0.74613 0.0
C246 C 0.58795 0.60353 0.11924 0.0
C247 C 0.58196 0.56462 0.95464 0.0
C248 C 0.56161 0.55883 0.03619 0.0
C249 C 0.56481 0.57867 0.11915 0.0
C250 C 0.60458 0.5901 0.95729 0.0
N251 N 0.60811 0.60863 0.04015 0.0
H252 H 0.58895 0.61932 0.18236 0.0
H253 H 0.61927 0.59482 0.89246 0.0
H254 H 0.57272 0.67189 0.92862 0.0
H255 H 0.66592 0.64652 0.82369 0.0
O256 O 0.60497 0.67803 0.09298 0.0
O257 O 0.65645 0.6887 0.05442 0.0
O258 O 0.67677 0.62403 0.9895 0.0
C259 C 0.62842 0.69934 0.08589 0.0
H260 H 0.69117 0.59995 0.35274 0.0
H261 H 0.57316 0.67852 0.73274 0.0
H262 H 0.57988 0.55004 0.88859 0.0
H263 H 0.54943 0.57508 0.18348 0.0
C264 C 0.54685 0.50028 1.01711 0.0
C265 C 0.53702 0.53233 0.03513 0.0
C266 C 0.52432 0.47463 1.02123 0.0
C267 C 0.49104 0.48016 0.04187 0.0
H268 H 0.57227 0.49492 1.00178 0.0
H269 H 0.53297 0.45026 1.00774 0.0
S270 S 0.4527 0.55982 0.09061 0.0
N271 N 0.49169 0.56833 0.07195 0.0
N272 N 0.44933 0.52017 0.07874 0.0
C273 C 0.48081 0.51218 0.05801 0.0
C274 C 0.5038 0.53823 0.05505 0.0
C275 C 0.48858 0.0117 0.1793 0.0
C276 C 0.47573 0.02422 0.26778 0.0
C277 C 0.51426 0.98915 0.18031 0.0
C278 C 0.52828 0.97856 0.2698 0.0
H279 H 0.47859 0.01928 0.10871 0.0
H280 H 0.52374 0.98054 0.11044 0.0
S281 S 0.50328 1.0036 0.52173 0.0
N282 N 0.47886 0.02417 0.44724 0.0
N283 N 0.52689 0.98166 0.44915 0.0
C284 C 0.51545 0.99064 0.35874 0.0
C285 C 0.48923 0.01345 0.35774 0.0
C286 C 0.9977 1.0012 0.43912 0.0
C287 C 0.98739 0.98694 0.52861 0.0
C288 C 0.01903 0.02778 0.43817 0.0
C289 C 0.03067 0.0413 0.5267 0.0
H290 H 0.9893 0.99164 0.36914 0.0
H291 H 0.02598 0.03821 0.36757 0.0
S292 S 0.01149 0.01267 0.78064 0.0
N293 N 0.99057 0.98821 0.708 0.0
N294 N 0.03103 0.03791 0.70619 0.0
C295 C 0.02081 0.02709 0.61665 0.0
C296 C 0.99916 0.99995 0.61761 0.0
C297 C 0.99996 0.46994 0.81526 0.0
C298 C 0.03217 0.48171 0.82532 0.0
C299 C 0.97313 0.49121 0.8082 0.0
C300 C 0.97764 0.52497 0.80979 0.0
H301 H 0.99549 0.4441 0.81279 0.0
H302 H 0.94884 0.48121 0.79896 0.0
S303 S 0.05672 0.56822 0.83636 0.0
N304 N 0.06674 0.52953 0.83607 0.0
N305 N 0.01653 0.56914 0.82624 0.0
C306 C 1.0096 0.53697 0.82167 0.0
C307 C 0.03678 0.51547 0.82846 0.0
C308 C 0.37202 0.3717 0.51469 0.0
C309 C 0.39033 0.35663 0.44012 0.0
C310 C 0.38159 0.36962 0.61407 0.0
C311 C 0.4097 0.3522 0.64232 0.0
H312 H 0.35053 0.38571 0.49562 0.0
H313 H 0.36727 0.3823 0.6689 0.0
S314 S 0.46338 0.30478 0.47631 0.0
N315 N 0.43614 0.32148 0.40184 0.0
N316 N 0.45396 0.31726 0.58853 0.0
C317 C 0.42758 0.33617 0.56865 0.0
C318 C 0.41793 0.33844 0.46757 0.0
C319 C 0.64369 0.87606 0.82457 0.0
C320 C 0.66008 0.90475 0.85138 0.0
C321 C 0.64183 0.86623 0.72561 0.0
C322 C 0.65602 0.88483 0.64973 0.0
H323 H 0.63171 0.86136 0.88028 0.0
H324 H 0.62873 0.84422 0.70788 0.0
S325 S 0.70501 0.95963 0.68091 0.0
N326 N 0.69311 0.95008 0.79408 0.0
N327 N 0.68924 0.93171 0.60813 0.0
C328 C 0.6731 0.9131 0.67538 0.0
C329 C 0.67519 0.92304 0.77616 0.0
C330 C 0.14327 0.14771 0.98827 0.0
C331 C 0.12724 0.16445 0.9117 0.0
C332 C 0.13373 0.1515 0.08724 0.0
C333 C 0.10791 0.17237 0.1135 0.0
H334 H 0.16299 0.13118 0.97113 0.0
H335 H 0.14633 0.13755 0.14346 0.0
S336 S 0.06101 0.22491 0.94135 0.0
N337 N 0.08623 0.20469 0.86911 0.0
N338 N 0.06836 0.21195 0.05495 0.0
C339 C 0.09228 0.1899 0.03764 0.0
C340 C 0.10195 0.18594 0.93685 0.0
C341 C 0.90199 0.62322 0.24991 0.0
C342 C 0.88713 0.6454 0.18449 0.0
C343 C 0.89166 0.62024 0.34843 0.0
C344 C 0.86596 0.63921 0.3857 0.0
H345 H 0.9214 0.60756 0.22425 0.0
H346 H 0.90358 0.6026 0.39568 0.0
S347 S 0.82111 0.70321 0.24793 0.0
N348 N 0.8468 0.68815 0.16592 0.0
N349 N 0.82735 0.68256 0.35113 0.0
C350 C 0.8512 0.66188 0.32168 0.0
C351 C 0.86178 0.66495 0.22117 0.0
C352 C 0.33741 0.13739 0.81315 0.0
C353 C 0.35465 0.11047 0.85022 0.0
C354 C 0.34082 0.1474 0.71423 0.0
C355 C 0.36175 0.13095 0.64878 0.0
H356 H 0.32081 0.15049 0.86073 0.0
H357 H 0.32649 0.16777 0.68837 0.0
S358 S 0.41561 0.06171 0.71277 0.0
N359 N 0.39553 0.06934 0.81594 0.0
N360 N 0.40203 0.08819 0.63069 0.0
C361 C 0.37983 0.10461 0.68583 0.0
C362 C 0.37628 0.09436 0.78629 0.0
C363 C 0.92098 0.88075 0.04535 0.0
C364 C 0.90408 0.86064 0.11235 0.0
C365 C 0.91068 0.88404 0.94668 0.0
C366 C 0.88314 0.86727 0.91091 0.0
H367 H 0.94189 0.89461 0.07002 0.0
H368 H 0.92408 0.90027 0.89833 0.0
S369 S 0.83282 0.80858 0.05434 0.0
N370 N 0.85994 0.82201 0.13469 0.0
N371 N 0.84087 0.8276 0.94944 0.0
C372 C 0.86658 0.84637 0.97679 0.0
C373 C 0.87697 0.84321 0.07733 0.0
C374 C 0.14733 0.42403 0.35432 0.0
C375 C 0.1661 0.40633 0.42301 0.0
C376 C 0.14425 0.41387 0.25598 0.0
C377 C 0.15971 0.38556 0.22237 0.0
H378 H 0.13432 0.44553 0.37725 0.0
H379 H 0.12918 0.428 0.20607 0.0
S380 S 0.21453 0.3325 0.36958 0.0
N381 N 0.20237 0.36041 0.4484 0.0
N382 N 0.19641 0.34128 0.26372 0.0
C383 C 0.17911 0.36798 0.28958 0.0
C384 C 0.18234 0.37838 0.38977 0.0
C385 C 0.64451 0.62804 0.61644 0.0
C386 C 0.63289 0.65848 0.64544 0.0
C387 C 0.65217 0.62182 0.51763 0.0
C388 C 0.64892 0.64599 0.44445 0.0
H389 H 0.64678 0.60868 0.67032 0.0
H390 H 0.65987 0.59761 0.49824 0.0
S391 S 0.6232 0.73111 0.48695 0.0
N392 N 0.62029 0.7136 0.59673 0.0
N393 N 0.63617 0.70269 0.41096 0.0
C394 C 0.63847 0.67704 0.47384 0.0
C395 C 0.63008 0.68308 0.57439 0.0
C396 C 0.27025 0.39423 0.84662 0.0
C397 C 0.24557 0.41245 0.89242 0.0
C398 C 0.30208 0.39332 0.8845 0.0
C399 C 0.31064 0.41029 0.97079 0.0
H400 H 0.2647 0.37965 0.78237 0.0
H401 H 0.31975 0.37811 0.84746 0.0
S402 S 0.25525 0.4634 0.11531 0.0
N403 N 0.23204 0.44947 0.02513 0.0
N404 N 0.29188 0.44762 0.0976 0.0
C405 C 0.28653 0.42998 1.01468 0.0
C406 C 0.25401 0.43108 0.97523 0.0
C407 C 0.59338 0.77541 0.20534 0.0
C408 C 0.61703 0.79917 0.1831 0.0
C409 C 0.59672 0.74333 0.17178 0.0
C410 C 0.62404 0.73369 0.11568 0.0
H411 H 0.5723 0.7815 0.24996 0.0
H412 H 0.57812 0.72583 0.19195 0.0
S413 S 0.69319 0.78624 0.03765 0.0
N414 N 0.66904 0.81027 0.10152 0.0
N415 N 0.67489 0.75066 0.03813 0.0
C416 C 0.64764 0.75725 0.09203 0.0
C417 C 0.64425 0.78977 0.12574 0.0
C418 C 0.25855 0.0891 0.38036 0.0
C419 C 0.2706 0.11556 0.32501 0.0
C420 C 0.22776 0.09035 0.42692 0.0
C421 C 0.2079 0.11812 0.41996 0.0
H422 H 0.27331 0.06754 0.38982 0.0
H423 H 0.21969 0.06959 0.46968 0.0
S424 S 0.22849 0.19425 0.28476 0.0
N425 N 0.25987 0.17016 0.26483 0.0
N426 N 0.20328 0.17309 0.35473 0.0
C427 C 0.2197 0.14461 0.36394 0.0
C428 C 0.25066 0.14316 0.31583 0.0
C429 C 0.92042 0.73861 0.696 0.0
C430 C 0.89113 0.72082 0.6929 0.0
C431 C 0.92305 0.7688 0.64774 0.0
C432 C 0.89676 0.78157 0.59266 0.0
H433 H 0.9411 0.72951 0.73771 0.0
H434 H 0.94559 0.78236 0.65482 0.0
S435 S 0.81627 0.74166 0.55198 0.0
N436 N 0.83636 0.71664 0.62535 0.0
N437 N 0.84136 0.77227 0.53188 0.0
C438 C 0.8679 0.76298 0.5856 0.0
C439 C 0.86506 0.73287 0.63649 0.0
C440 C 0.7818 0.93822 0.42276 0.0
C441 C 0.80338 0.9117 0.42199 0.0
C442 C 0.75108 0.93648 0.37582 0.0
C443 C 0.74098 0.90819 0.32647 0.0
H444 H 0.78856 0.96032 0.46038 0.0
H445 H 0.73493 0.95721 0.37983 0.0
S446 S 0.78746 0.83106 0.30956 0.0
N447 N 0.81121 0.85546 0.37332 0.0
N448 N 0.75494 0.85282 0.28209 0.0
C449 C 0.76248 0.88161 0.325 0.0
C450 C 0.79326 0.88319 0.37365 0.0
C451 C 0.08259 0.26087 0.65709 0.0
C452 C 0.11058 0.24937 0.60761 0.0
C453 C 0.08342 0.2899 0.7115 0.0
C454 C 0.11232 0.30832 0.71885 0.0
H455 H 0.06002 0.24717 0.65491 0.0
H456 H 0.06134 0.29787 0.74822 0.0
S457 S 0.19308 0.28732 0.60941 0.0
N458 N 0.16827 0.25842 0.5723 0.0
N459 N 0.1702 0.31149 0.67668 0.0
C460 C 0.14054 0.29669 0.67067 0.0
C461 C 0.13956 0.26766 0.61447 0.0
C462 C 0.72897 0.57428 0.85102 0.0
C463 C 0.72104 0.5912 0.93771 0.0
C464 C 0.76142 0.5732 0.81593 0.0
C465 C 0.78711 0.58858 0.86725 0.0
H466 H 0.7098 0.56306 0.80781 0.0
H467 H 0.76611 0.56138 0.74609 0.0
S468 S 0.7794 0.63092 0.10796 0.0
N469 N 0.74158 0.62079 0.07906 0.0
N470 N 0.80237 0.61716 1.01715 0.0
C471 C 0.7795 0.60349 0.95787 0.0
C472 C 0.74653 0.60525 0.99198 0.0
C473 C 0.43034 0.2633 0.19257 0.0
C474 C 0.41624 0.27143 0.10096 0.0
C475 C 0.42967 0.23123 0.22826 0.0
C476 C 0.41533 0.20617 0.17265 0.0
H477 H 0.44016 0.28209 0.23945 0.0
H478 H 0.4388 0.22647 0.30207 0.0
S479 S 0.38223 0.21417 0.91789 0.0
N480 N 0.39188 0.25154 0.94953 0.0
N481 N 0.39224 0.19123 1.01351 0.0
C482 C 0.4041 0.21376 0.07682 0.0
C483 C 0.40411 0.2464 0.04175 0.0
loop_
_geom_bond_atom_site_label_1
_geom_bond_atom_site_label_2
_geom_bond_distance
_geom_bond_site_symmetry_2
_ccdc_geom_bond_type
Co0 N4 2.148 . S
Co0 N10 2.128 1_554 S
Co0 N20 2.194 . S
Co0 O25 2.351 . S
Co0 O26 2.155 . S
Co0 O27 2.096 1_554 S
C1 N4 1.301 . S
C1 N5 1.328 . S
C1 H6 0.930 . S
C2 C3 1.333 . S
C2 N4 1.317 . S
C2 H7 0.930 . S
C3 C2 1.333 . S
C3 N5 1.350 . S
C3 H29 0.931 . S
N4 Co0 2.148 . S
N4 C1 1.301 . S
N4 C2 1.317 . S
N5 C1 1.328 . S
N5 C3 1.350 . S
H6 C1 0.930 . S
H7 C2 0.930 . S
C8 O9 1.224 . S
C8 O27 1.247 . S
O9 C8 1.224 . S
N10 Co0 2.128 1_556 S
N10 C11 1.355 . S
N10 C13 1.311 . S
C11 N10 1.355 . S
C11 C12 1.363 . S
C11 H23 0.929 . S
C12 C11 1.363 . S
C12 N14 1.375 . S
C12 H30 0.931 . S
C13 N10 1.311 . S
C13 N14 1.347 . S
C13 H24 0.929 . S
N14 C12 1.375 . S
N14 C13 1.347 . S
C15 C18 1.365 . S
C15 N20 1.328 . S
C15 H21 0.929 . S
C16 C17 1.362 1_556 S
C16 C19 1.378 . S
C16 H31 0.929 . S
C17 C16 1.362 1_554 S
C17 C18 1.366 . S
C18 C15 1.365 . S
C18 C17 1.366 . S
C18 H32 0.930 . S
C19 C16 1.378 . S
C19 N20 1.315 1_556 S
C19 H22 0.930 . S
N20 Co0 2.194 . S
N20 C15 1.328 . S
N20 C19 1.315 1_554 S
H21 C15 0.929 . S
H22 C19 0.930 . S
H23 C11 0.929 . S
H24 C13 0.929 . S
O25 Co0 2.351 . S
O25 C28 1.244 . S
O26 Co0 2.155 . S
O26 C28 1.240 . S
O27 Co0 2.096 1_556 S
O27 C8 1.247 . S
C28 O25 1.244 . S
C28 O26 1.240 . S
H29 C3 0.931 . S
H30 C12 0.931 . S
H31 C16 0.929 . S
H32 C18 0.930 . S
Co33 N37 2.148 . S
Co33 N43 2.128 . S
Co33 N53 2.194 . S
Co33 O58 2.351 . S
Co33 O59 2.155 . S
Co33 O60 2.096 . S
C34 N37 1.301 . S
C34 N38 1.328 . S
C34 H39 0.930 . S
C35 C36 1.333 . S
C35 N37 1.317 . S
C35 H40 0.930 . S
C36 C35 1.333 . S
C36 N38 1.350 . S
C36 H62 0.931 . S
N37 Co33 2.148 . S
N37 C34 1.301 . S
N37 C35 1.317 . S
N38 C34 1.328 . S
N38 C36 1.350 . S
H39 C34 0.930 . S
H40 C35 0.930 . S
C41 O42 1.224 . S
C41 O60 1.247 . S
O42 C41 1.224 . S
N43 Co33 2.128 . S
N43 C44 1.355 . S
N43 C46 1.311 . S
C44 N43 1.355 . S
C44 C45 1.363 1_554 S
C44 H56 0.929 . S
C45 C44 1.363 1_556 S
C45 N47 1.375 . S
C45 H63 0.931 . S
C46 N43 1.311 . S
C46 N47 1.347 1_554 S
C46 H57 0.929 . S
N47 C45 1.375 . S
N47 C46 1.347 1_556 S
C48 C51 1.365 . S
C48 N53 1.328 . S
C48 H54 0.929 . S
C49 C50 1.362 . S
C49 C52 1.378 . S
C49 H64 0.929 . S
C50 C49 1.362 . S
C50 C51 1.366 . S
C51 C48 1.365 . S
C51 C50 1.366 . S
C51 H65 0.930 . S
C52 C49 1.378 . S
C52 N53 1.315 . S
C52 H55 0.930 . S
N53 Co33 2.194 . S
N53 C48 1.328 . S
N53 C52 1.315 . S
H54 C48 0.929 . S
H55 C52 0.930 . S
H56 C44 0.929 . S
H57 C46 0.929 . S
O58 Co33 2.351 . S
O58 C61 1.244 . S
O59 Co33 2.155 . S
O59 C61 1.240 . S
O60 Co33 2.096 . S
O60 C41 1.247 . S
C61 O58 1.244 . S
C61 O59 1.240 . S
H62 C36 0.931 . S
H63 C45 0.931 . S
H64 C49 0.929 . S
H65 C51 0.930 . S
Co66 N70 2.148 . S
Co66 N76 2.128 . S
Co66 N86 2.194 . S
Co66 O91 2.351 . S
Co66 O92 2.155 . S
Co66 O93 2.096 . S
C67 N70 1.301 . S
C67 N71 1.328 . S
C67 H72 0.930 . S
C68 C69 1.333 . S
C68 N70 1.317 . S
C68 H73 0.930 . S
C69 C68 1.333 . S
C69 N71 1.350 . S
C69 H95 0.931 . S
N70 Co66 2.148 . S
N70 C67 1.301 . S
N70 C68 1.317 . S
N71 C67 1.328 . S
N71 C69 1.350 . S
H72 C67 0.930 . S
H73 C68 0.930 . S
C74 O75 1.224 . S
C74 O93 1.247 . S
O75 C74 1.224 . S
N76 Co66 2.128 . S
N76 C77 1.355 . S
N76 C79 1.311 . S
C77 N76 1.355 . S
C77 C78 1.363 . S
C77 H89 0.929 . S
C78 C77 1.363 . S
C78 N80 1.375 . S
C78 H96 0.931 . S
C79 N76 1.311 . S
C79 N80 1.347 . S
C79 H90 0.929 . S
N80 C78 1.375 . S
N80 C79 1.347 . S
C81 C84 1.365 . S
C81 N86 1.328 . S
C81 H87 0.929 . S
C82 C83 1.362 . S
C82 C85 1.378 . S
C82 H97 0.929 . S
C83 C82 1.362 . S
C83 C84 1.366 . S
C84 C81 1.365 . S
C84 C83 1.366 . S
C84 H98 0.930 . S
C85 C82 1.378 . S
C85 N86 1.315 . S
C85 H88 0.930 . S
N86 Co66 2.194 . S
N86 C81 1.328 . S
N86 C85 1.315 . S
H87 C81 0.929 . S
H88 C85 0.930 . S
H89 C77 0.929 . S
H90 C79 0.929 . S
O91 Co66 2.351 . S
O91 C94 1.244 . S
O92 Co66 2.155 . S
O92 C94 1.240 . S
O93 Co66 2.096 . S
O93 C74 1.247 . S
C94 O91 1.244 . S
C94 O92 1.240 . S
H95 C69 0.931 . S
H96 C78 0.931 . S
H97 C82 0.929 . S
H98 C84 0.930 . S
Co99 N103 2.148 . S
Co99 N109 2.128 . S
Co99 N119 2.194 . S
Co99 O124 2.351 . S
Co99 O125 2.155 . S
Co99 O126 2.096 . S
C100 N103 1.301 . S
C100 N104 1.328 . S
C100 H105 0.930 . S
C101 C102 1.333 . S
C101 N103 1.317 . S
C101 H106 0.930 . S
C102 C101 1.333 . S
C102 N104 1.350 . S
C102 H128 0.931 . S
N103 Co99 2.148 . S
N103 C100 1.301 . S
N103 C101 1.317 . S
N104 C100 1.328 . S
N104 C102 1.350 . S
H105 C100 0.930 . S
H106 C101 0.930 . S
C107 O108 1.224 . S
C107 O126 1.247 . S
O108 C107 1.224 . S
N109 Co99 2.128 . S
N109 C110 1.355 . S
N109 C112 1.311 . S
C110 N109 1.355 . S
C110 C111 1.363 1_556 S
C110 H122 0.929 . S
C111 C110 1.363 1_554 S
C111 N113 1.375 . S
C111 H129 0.931 . S
C112 N109 1.311 . S
C112 N113 1.347 1_556 S
C112 H123 0.929 . S
N113 C111 1.375 . S
N113 C112 1.347 1_554 S
C114 C117 1.365 . S
C114 N119 1.328 . S
C114 H120 0.929 . S
C115 C116 1.362 . S
C115 C118 1.378 . S
C115 H130 0.929 . S
C116 C115 1.362 . S
C116 C117 1.366 . S
C117 C114 1.365 . S
C117 C116 1.366 . S
C117 H131 0.930 . S
C118 C115 1.378 . S
C118 N119 1.315 . S
C118 H121 0.930 . S
N119 Co99 2.194 . S
N119 C114 1.328 . S
N119 C118 1.315 . S
H120 C114 0.929 . S
H121 C118 0.930 . S
H122 C110 0.929 . S
H123 C112 0.929 . S
O124 Co99 2.351 . S
O124 C127 1.244 . S
O125 Co99 2.155 . S
O125 C127 1.240 . S
O126 Co99 2.096 . S
O126 C107 1.247 . S
C127 O124 1.244 . S
C127 O125 1.240 . S
H128 C102 0.931 . S
H129 C111 0.931 . S
H130 C115 0.929 . S
H131 C117 0.930 . S
Co132 N136 2.148 . S
Co132 N142 2.128 . S
Co132 N152 2.194 . S
Co132 O157 2.351 . S
Co132 O158 2.155 . S
Co132 O159 2.096 . S
C133 N136 1.301 . S
C133 N137 1.328 . S
C133 H138 0.930 . S
C134 C135 1.333 . S
C134 N136 1.317 . S
C134 H139 0.930 . S
C135 C134 1.333 . S
C135 N137 1.350 . S
C135 H161 0.931 . S
N136 Co132 2.148 . S
N136 C133 1.301 . S
N136 C134 1.317 . S
N137 C133 1.328 . S
N137 C135 1.350 . S
H138 C133 0.930 . S
H139 C134 0.930 . S
C140 O141 1.224 . S
C140 O159 1.247 . S
O141 C140 1.224 . S
N142 Co132 2.128 . S
N142 C143 1.355 . S
N142 C145 1.311 . S
C143 N142 1.355 . S
C143 C144 1.363 1_554 S
C143 H155 0.929 . S
C144 C143 1.363 1_556 S
C144 N146 1.375 . S
C144 H162 0.931 . S
C145 N142 1.311 . S
C145 N146 1.347 1_554 S
C145 H156 0.929 . S
N146 C144 1.375 . S
N146 C145 1.347 1_556 S
C147 C150 1.365 . S
C147 N152 1.328 . S
C147 H153 0.929 . S
C148 C149 1.362 . S
C148 C151 1.378 . S
C148 H163 0.929 . S
C149 C148 1.362 . S
C149 C150 1.366 . S
C150 C147 1.365 . S
C150 C149 1.366 . S
C150 H164 0.930 . S
C151 C148 1.378 . S
C151 N152 1.315 . S
C151 H154 0.930 . S
N152 Co132 2.194 . S
N152 C147 1.328 . S
N152 C151 1.315 . S
H153 C147 0.929 . S
H154 C151 0.930 . S
H155 C143 0.929 . S
H156 C145 0.929 . S
O157 Co132 2.351 . S
O157 C160 1.244 . S
O158 Co132 2.155 . S
O158 C160 1.240 . S
O159 Co132 2.096 . S
O159 C140 1.247 . S
C160 O157 1.244 . S
C160 O158 1.240 . S
H161 C135 0.931 . S
H162 C144 0.931 . S
H163 C148 0.929 . S
H164 C150 0.930 . S
Co165 N169 2.148 . S
Co165 N175 2.128 . S
Co165 N185 2.194 . S
Co165 O190 2.351 . S
Co165 O191 2.155 . S
Co165 O192 2.096 . S
C166 N169 1.301 . S
C166 N170 1.328 . S
C166 H171 0.930 . S
C167 C168 1.333 . S
C167 N169 1.317 . S
C167 H172 0.930 . S
C168 C167 1.333 . S
C168 N170 1.350 . S
C168 H194 0.931 . S
N169 Co165 2.148 . S
N169 C166 1.301 . S
N169 C167 1.317 . S
N170 C166 1.328 . S
N170 C168 1.350 . S
H171 C166 0.930 . S
H172 C167 0.930 . S
C173 O174 1.224 . S
C173 O192 1.247 . S
O174 C173 1.224 . S
N175 Co165 2.128 . S
N175 C176 1.355 . S
N175 C178 1.311 . S
C176 N175 1.355 . S
C176 C177 1.363 . S
C176 H188 0.929 . S
C177 C176 1.363 . S
C177 N179 1.375 . S
C177 H195 0.931 . S
C178 N175 1.311 . S
C178 N179 1.347 . S
C178 H189 0.929 . S
N179 C177 1.375 . S
N179 C178 1.347 . S
C180 C183 1.365 . S
C180 N185 1.328 . S
C180 H186 0.929 . S
C181 C182 1.362 . S
C181 C184 1.378 . S
C181 H196 0.929 . S
C182 C181 1.362 . S
C182 C183 1.366 . S
C183 C180 1.365 . S
C183 C182 1.366 . S
C183 H197 0.930 . S
C184 C181 1.378 . S
C184 N185 1.315 . S
C184 H187 0.930 . S
N185 Co165 2.194 . S
N185 C180 1.328 . S
N185 C184 1.315 . S
H186 C180 0.929 . S
H187 C184 0.930 . S
H188 C176 0.929 . S
H189 C178 0.929 . S
O190 Co165 2.351 . S
O190 C193 1.244 . S
O191 Co165 2.155 . S
O191 C193 1.240 . S
O192 Co165 2.096 . S
O192 C173 1.247 . S
C193 O190 1.244 . S
C193 O191 1.240 . S
H194 C168 0.931 . S
H195 C177 0.931 . S
H196 C181 0.929 . S
H197 C183 0.930 . S
Co198 N202 2.148 . S
Co198 N208 2.128 . S
Co198 N218 2.194 . S
Co198 O223 2.351 . S
Co198 O224 2.155 . S
Co198 O225 2.096 . S
C199 N202 1.301 . S
C199 N203 1.328 1_556 S
C199 H204 0.930 . S
C200 C201 1.333 1_556 S
C200 N202 1.317 . S
C200 H205 0.930 . S
C201 C200 1.333 1_554 S
C201 N203 1.350 . S
C201 H227 0.931 . S
N202 Co198 2.148 . S
N202 C199 1.301 . S
N202 C200 1.317 . S
N203 C199 1.328 1_554 S
N203 C201 1.350 . S
H204 C199 0.930 . S
H205 C200 0.930 . S
C206 O207 1.224 . S
C206 O225 1.247 . S
O207 C206 1.224 . S
N208 Co198 2.128 . S
N208 C209 1.355 . S
N208 C211 1.311 . S
C209 N208 1.355 . S
C209 C210 1.363 . S
C209 H221 0.929 . S
C210 C209 1.363 . S
C210 N212 1.375 . S
C210 H228 0.931 . S
C211 N208 1.311 . S
C211 N212 1.347 . S
C211 H222 0.929 . S
N212 C210 1.375 . S
N212 C211 1.347 . S
C213 C216 1.365 . S
C213 N218 1.328 . S
C213 H219 0.929 . S
C214 C215 1.362 . S
C214 C217 1.378 . S
C214 H229 0.929 . S
C215 C214 1.362 . S
C215 C216 1.366 . S
C216 C213 1.365 . S
C216 C215 1.366 . S
C216 H230 0.930 . S
C217 C214 1.378 . S
C217 N218 1.315 . S
C217 H220 0.930 . S
N218 Co198 2.194 . S
N218 C213 1.328 . S
N218 C217 1.315 . S
H219 C213 0.929 . S
H220 C217 0.930 . S
H221 C209 0.929 . S
H222 C211 0.929 . S
O223 Co198 2.351 . S
O223 C226 1.244 . S
O224 Co198 2.155 . S
O224 C226 1.240 . S
O225 Co198 2.096 . S
O225 C206 1.247 . S
C226 O223 1.244 . S
C226 O224 1.240 . S
H227 C201 0.931 . S
H228 C210 0.931 . S
H229 C214 0.929 . S
H230 C216 0.930 . S
Co231 N235 2.148 . S
Co231 N241 2.128 1_554 S
Co231 N251 2.194 . S
Co231 O256 2.351 . S
Co231 O257 2.155 . S
Co231 O258 2.096 1_554 S
C232 N235 1.301 . S
C232 N236 1.328 . S
C232 H237 0.930 . S
C233 C234 1.333 . S
C233 N235 1.317 . S
C233 H238 0.930 . S
C234 C233 1.333 . S
C234 N236 1.350 . S
C234 H260 0.931 . S
N235 Co231 2.148 . S
N235 C232 1.301 . S
N235 C233 1.317 . S
N236 C232 1.328 . S
N236 C234 1.350 . S
H237 C232 0.930 . S
H238 C233 0.930 . S
C239 O240 1.224 . S
C239 O258 1.247 . S
O240 C239 1.224 . S
N241 Co231 2.128 1_556 S
N241 C242 1.355 . S
N241 C244 1.311 . S
C242 N241 1.355 . S
C242 C243 1.363 . S
C242 H254 0.929 . S
C243 C242 1.363 . S
C243 N245 1.375 . S
C243 H261 0.931 . S
C244 N241 1.311 . S
C244 N245 1.347 . S
C244 H255 0.929 . S
N245 C243 1.375 . S
N245 C244 1.347 . S
C246 C249 1.365 . S
C246 N251 1.328 . S
C246 H252 0.929 . S
C247 C248 1.362 1_556 S
C247 C250 1.378 . S
C247 H262 0.929 . S
C248 C247 1.362 1_554 S
C248 C249 1.366 . S
C249 C246 1.365 . S
C249 C248 1.366 . S
C249 H263 0.930 . S
C250 C247 1.378 . S
C250 N251 1.315 1_556 S
C250 H253 0.930 . S
N251 Co231 2.194 . S
N251 C246 1.328 . S
N251 C250 1.315 1_554 S
H252 C246 0.929 . S
H253 C250 0.930 . S
H254 C242 0.929 . S
H255 C244 0.929 . S
O256 Co231 2.351 . S
O256 C259 1.244 . S
O257 Co231 2.155 . S
O257 C259 1.240 . S
O258 Co231 2.096 1_556 S
O258 C239 1.247 . S
C259 O256 1.244 . S
C259 O257 1.240 . S
H260 C234 0.931 . S
H261 C243 0.931 . S
H262 C247 0.929 . S
H263 C249 0.930 . S
C264 C265 1.369 1_556 S
C264 C266 1.419 . S
C264 H268 0.930 . S
C265 C264 1.369 1_554 S
C265 C274 1.429 . S
C266 C264 1.419 . S
C266 C267 1.363 1_556 S
C266 H269 0.929 . S
C267 C266 1.363 1_554 S
C267 C273 1.428 . S
H268 C264 0.930 . S
H269 C266 0.929 . S
S270 N271 1.613 . S
S270 N272 1.610 . S
N271 S270 1.613 . S
N271 C274 1.350 . S
N272 S270 1.610 . S
N272 C273 1.351 . S
C273 C267 1.428 . S
C273 N272 1.351 . S
C273 C274 1.434 . S
C274 C265 1.429 . S
C274 N271 1.350 . S
C274 C273 1.434 . S
C275 C276 1.369 . S
C275 C277 1.419 1_545 S
C275 H279 0.930 . S
C276 C275 1.369 . S
C276 C285 1.429 . S
C277 C275 1.419 1_565 S
C277 C278 1.363 . S
C277 H280 0.929 . S
C278 C277 1.363 . S
C278 C284 1.428 . S
H279 C275 0.930 . S
H280 C277 0.929 . S
S281 N282 1.613 1_565 S
S281 N283 1.610 . S
N282 S281 1.613 1_545 S
N282 C285 1.350 . S
N283 S281 1.610 . S
N283 C284 1.351 . S
C284 C278 1.428 . S
C284 N283 1.351 . S
C284 C285 1.434 1_565 S
C285 C276 1.429 . S
C285 N282 1.350 . S
C285 C284 1.434 1_545 S
C286 C287 1.369 . S
C286 C288 1.419 1_665 S
C286 H290 0.930 . S
C287 C286 1.369 . S
C287 C296 1.440 . S
C288 C286 1.419 1_445 S
C288 C289 1.363 . S
C288 H291 0.929 . S
C289 C288 1.363 . S
C289 C295 1.428 . S
H290 C286 0.930 . S
H291 C288 0.929 . S
S292 N293 1.627 . S
S292 N294 1.590 1_655 S
N293 S292 1.627 . S
N293 C296 1.349 1_545 S
N294 S292 1.590 1_455 S
N294 C295 1.352 . S
C295 C289 1.428 . S
C295 N294 1.352 . S
C295 C296 1.422 1_445 S
C296 C287 1.440 . S
C296 N293 1.349 1_565 S
C296 C295 1.422 1_665 S
C297 C298 1.369 1_655 S
C297 C299 1.419 . S
C297 H301 0.930 . S
C298 C297 1.369 1_455 S
C298 C307 1.429 . S
C299 C297 1.419 . S
C299 C300 1.363 . S
C299 H302 0.929 . S
C300 C299 1.363 . S
C300 C306 1.428 1_655 S
H301 C297 0.930 . S
H302 C299 0.929 . S
S303 N304 1.613 . S
S303 N305 1.610 . S
N304 S303 1.613 . S
N304 C307 1.350 . S
N305 S303 1.610 . S
N305 C306 1.351 . S
C306 C300 1.428 1_455 S
C306 N305 1.351 . S
C306 C307 1.434 . S
C307 C298 1.429 . S
C307 N304 1.350 . S
C307 C306 1.434 . S
C308 C309 1.369 . S
C308 C310 1.419 . S
C308 H312 0.930 . S
C309 C308 1.369 . S
C309 C318 1.429 . S
C310 C308 1.419 . S
C310 C311 1.363 . S
C310 H313 0.929 . S
C311 C310 1.363 . S
C311 C317 1.428 . S
H312 C308 0.930 . S
H313 C310 0.929 . S
S314 N315 1.613 . S
S314 N316 1.610 . S
N315 S314 1.613 . S
N315 C318 1.350 . S
N316 S314 1.610 . S
N316 C317 1.351 . S
C317 C311 1.428 . S
C317 N316 1.351 . S
C317 C318 1.434 . S
C318 C309 1.429 . S
C318 N315 1.350 . S
C318 C317 1.434 . S
C319 C320 1.369 . S
C319 C321 1.419 . S
C319 H323 0.930 . S
C320 C319 1.369 . S
C320 C329 1.429 . S
C321 C319 1.419 . S
C321 C322 1.363 . S
C321 H324 0.929 . S
C322 C321 1.363 . S
C322 C328 1.428 . S
H323 C319 0.930 . S
H324 C321 0.929 . S
S325 N326 1.613 . S
S325 N327 1.610 . S
N326 S325 1.613 . S
N326 C329 1.350 . S
N327 S325 1.610 . S
N327 C328 1.351 . S
C328 C322 1.428 . S
C328 N327 1.351 . S
C328 C329 1.434 . S
C329 C320 1.429 . S
C329 N326 1.350 . S
C329 C328 1.434 . S
C330 C331 1.369 . S
C330 C332 1.419 1_556 S
C330 H334 0.930 . S
C331 C330 1.369 . S
C331 C340 1.429 . S
C332 C330 1.419 1_554 S
C332 C333 1.363 . S
C332 H335 0.929 . S
C333 C332 1.363 . S
C333 C339 1.428 . S
H334 C330 0.930 . S
H335 C332 0.929 . S
S336 N337 1.613 . S
S336 N338 1.610 1_556 S
N337 S336 1.613 . S
N337 C340 1.350 . S
N338 S336 1.610 1_554 S
N338 C339 1.351 . S
C339 C333 1.428 . S
C339 N338 1.351 . S
C339 C340 1.434 1_554 S
C340 C331 1.429 . S
C340 N337 1.350 . S
C340 C339 1.434 1_556 S
C341 C342 1.369 . S
C341 C343 1.419 . S
C341 H345 0.930 . S
C342 C341 1.369 . S
C342 C351 1.429 . S
C343 C341 1.419 . S
C343 C344 1.363 . S
C343 H346 0.929 . S
C344 C343 1.363 . S
C344 C350 1.428 . S
H345 C341 0.930 . S
H346 C343 0.929 . S
S347 N348 1.613 . S
S347 N349 1.610 . S
N348 S347 1.613 . S
N348 C351 1.350 . S
N349 S347 1.610 . S
N349 C350 1.351 . S
C350 C344 1.428 . S
C350 N349 1.351 . S
C350 C351 1.434 . S
C351 C342 1.429 . S
C351 N348 1.350 . S
C351 C350 1.434 . S
C352 C353 1.369 . S
C352 C354 1.419 . S
C352 H356 0.930 . S
C353 C352 1.369 . S
C353 C362 1.429 . S
C354 C352 1.419 . S
C354 C355 1.363 . S
C354 H357 0.929 . S
C355 C354 1.363 . S
C355 C361 1.428 . S
H356 C352 0.930 . S
H357 C354 0.929 . S
S358 N359 1.613 . S
S358 N360 1.610 . S
N359 S358 1.613 . S
N359 C362 1.350 . S
N360 S358 1.610 . S
N360 C361 1.351 . S
C361 C355 1.428 . S
C361 N360 1.351 . S
C361 C362 1.434 . S
C362 C353 1.429 . S
C362 N359 1.350 . S
C362 C361 1.434 . S
C363 C364 1.369 . S
C363 C365 1.419 1_554 S
C363 H367 0.930 . S
C364 C363 1.369 . S
C364 C373 1.429 . S
C365 C363 1.419 1_556 S
C365 C366 1.363 . S
C365 H368 0.929 . S
C366 C365 1.363 . S
C366 C372 1.428 . S
H367 C363 0.930 . S
H368 C365 0.929 . S
S369 N370 1.613 . S
S369 N371 1.610 1_554 S
N370 S369 1.613 . S
N370 C373 1.350 . S
N371 S369 1.610 1_556 S
N371 C372 1.351 . S
C372 C366 1.428 . S
C372 N371 1.351 . S
C372 C373 1.434 1_556 S
C373 C364 1.429 . S
C373 N370 1.350 . S
C373 C372 1.434 1_554 S
C374 C375 1.369 . S
C374 C376 1.419 . S
C374 H378 0.930 . S
C375 C374 1.369 . S
C375 C384 1.429 . S
C376 C374 1.419 . S
C376 C377 1.363 . S
C376 H379 0.929 . S
C377 C376 1.363 . S
C377 C383 1.428 . S
H378 C374 0.930 . S
H379 C376 0.929 . S
S380 N381 1.613 . S
S380 N382 1.610 . S
N381 S380 1.613 . S
N381 C384 1.350 . S
N382 S380 1.610 . S
N382 C383 1.351 . S
C383 C377 1.428 . S
C383 N382 1.351 . S
C383 C384 1.434 . S
C384 C375 1.429 . S
C384 N381 1.350 . S
C384 C383 1.434 . S
C385 C386 1.369 . S
C385 C387 1.419 . S
C385 H389 0.930 . S
C386 C385 1.369 . S
C386 C395 1.429 . S
C387 C385 1.419 . S
C387 C388 1.363 . S
C387 H390 0.929 . S
C388 C387 1.363 . S
C388 C394 1.428 . S
H389 C385 0.930 . S
H390 C387 0.929 . S
S391 N392 1.613 . S
S391 N393 1.610 . S
N392 S391 1.613 . S
N392 C395 1.350 . S
N393 S391 1.610 . S
N393 C394 1.351 . S
C394 C388 1.428 . S
C394 N393 1.351 . S
C394 C395 1.434 . S
C395 C386 1.429 . S
C395 N392 1.350 . S
C395 C394 1.434 . S
C396 C397 1.369 . S
C396 C398 1.419 . S
C396 H400 0.930 . S
C397 C396 1.369 . S
C397 C406 1.429 . S
C398 C396 1.419 . S
C398 C399 1.363 . S
C398 H401 0.929 . S
C399 C398 1.363 . S
C399 C405 1.428 . S
H400 C396 0.930 . S
H401 C398 0.929 . S
S402 N403 1.613 . S
S402 N404 1.610 . S
N403 S402 1.613 . S
N403 C406 1.350 . S
N404 S402 1.610 . S
N404 C405 1.351 . S
C405 C399 1.428 . S
C405 N404 1.351 . S
C405 C406 1.434 . S
C406 C397 1.429 . S
C406 N403 1.350 . S
C406 C405 1.434 . S
C407 C408 1.369 . S
C407 C409 1.419 . S
C407 H411 0.930 . S
C408 C407 1.369 . S
C408 C417 1.429 . S
C409 C407 1.419 . S
C409 C410 1.363 . S
C409 H412 0.929 . S
C410 C409 1.363 . S
C410 C416 1.428 . S
H411 C407 0.930 . S
H412 C409 0.929 . S
S413 N414 1.613 1_556 S
S413 N415 1.610 . S
N414 S413 1.613 1_554 S
N414 C417 1.350 . S
N415 S413 1.610 . S
N415 C416 1.351 1_556 S
C416 C410 1.428 . S
C416 N415 1.351 1_554 S
C416 C417 1.434 . S
C417 C408 1.429 . S
C417 N414 1.350 . S
C417 C416 1.434 . S
C418 C419 1.369 . S
C418 C420 1.419 . S
C418 H422 0.930 . S
C419 C418 1.369 . S
C419 C428 1.429 . S
C420 C418 1.419 . S
C420 C421 1.363 . S
C420 H423 0.929 . S
C421 C420 1.363 . S
C421 C427 1.428 . S
H422 C418 0.930 . S
H423 C420 0.929 . S
S424 N425 1.613 . S
S424 N426 1.610 . S
N425 S424 1.613 . S
N425 C428 1.350 . S
N426 S424 1.610 . S
N426 C427 1.351 . S
C427 C421 1.428 . S
C427 N426 1.351 . S
C427 C428 1.434 . S
C428 C419 1.429 . S
C428 N425 1.350 . S
C428 C427 1.434 . S
C429 C430 1.369 . S
C429 C431 1.419 . S
C429 H433 0.930 . S
C430 C429 1.369 . S
C430 C439 1.429 . S
C431 C429 1.419 . S
C431 C432 1.363 . S
C431 H434 0.929 . S
C432 C431 1.363 . S
C432 C438 1.428 . S
H433 C429 0.930 . S
H434 C431 0.929 . S
S435 N436 1.613 . S
S435 N437 1.610 . S
N436 S435 1.613 . S
N436 C439 1.350 . S
N437 S435 1.610 . S
N437 C438 1.351 . S
C438 C432 1.428 . S
C438 N437 1.351 . S
C438 C439 1.434 . S
C439 C430 1.429 . S
C439 N436 1.350 . S
C439 C438 1.434 . S
C440 C441 1.369 . S
C440 C442 1.419 . S
C440 H444 0.930 . S
C441 C440 1.369 . S
C441 C450 1.429 . S
C442 C440 1.419 . S
C442 C443 1.363 . S
C442 H445 0.929 . S
C443 C442 1.363 . S
C443 C449 1.428 . S
H444 C440 0.930 . S
H445 C442 0.929 . S
S446 N447 1.613 . S
S446 N448 1.610 . S
N447 S446 1.613 . S
N447 C450 1.350 . S
N448 S446 1.610 . S
N448 C449 1.351 . S
C449 C443 1.428 . S
C449 N448 1.351 . S
C449 C450 1.434 . S
C450 C441 1.429 . S
C450 N447 1.350 . S
C450 C449 1.434 . S
C451 C452 1.369 . S
C451 C453 1.419 . S
C451 H455 0.930 . S
C452 C451 1.369 . S
C452 C461 1.429 . S
C453 C451 1.419 . S
C453 C454 1.363 . S
C453 H456 0.929 . S
C454 C453 1.363 . S
C454 C460 1.428 . S
H455 C451 0.930 . S
H456 C453 0.929 . S
S457 N458 1.613 . S
S457 N459 1.610 . S
N458 S457 1.613 . S
N458 C461 1.350 . S
N459 S457 1.610 . S
N459 C460 1.351 . S
C460 C454 1.428 . S
C460 N459 1.351 . S
C460 C461 1.434 . S
C461 C452 1.429 . S
C461 N458 1.350 . S
C461 C460 1.434 . S
C462 C463 1.369 . S
C462 C464 1.419 . S
C462 H466 0.930 . S
C463 C462 1.369 . S
C463 C472 1.429 . S
C464 C462 1.419 . S
C464 C465 1.363 . S
C464 H467 0.929 . S
C465 C464 1.363 . S
C465 C471 1.428 . S
H466 C462 0.930 . S
H467 C464 0.929 . S
S468 N469 1.613 . S
S468 N470 1.610 . S
N469 S468 1.613 . S
N469 C472 1.350 1_554 S
N470 S468 1.610 . S
N470 C471 1.351 1_554 S
C471 C465 1.428 . S
C471 N470 1.351 1_556 S
C471 C472 1.434 . S
C472 C463 1.429 . S
C472 N469 1.350 1_556 S
C472 C471 1.434 . S
C473 C474 1.369 . S
C473 C475 1.419 . S
C473 H477 0.930 . S
C474 C473 1.369 . S
C474 C483 1.429 . S
C475 C473 1.419 . S
C475 C476 1.363 . S
C475 H478 0.929 . S
C476 C475 1.363 . S
C476 C482 1.428 . S
H477 C473 0.930 . S
H478 C475 0.929 . S
S479 N480 1.613 . S
S479 N481 1.610 1_556 S
N480 S479 1.613 . S
N480 C483 1.350 1_556 S
N481 S479 1.610 1_554 S
N481 C482 1.351 . S
C482 C476 1.428 . S
C482 N481 1.351 . S
C482 C483 1.434 . S
C483 C474 1.429 . S
C483 N480 1.350 1_554 S
C483 C482 1.434 . S
C265 C248 1.330 . S
C267 C17 1.328 . S
C276 C149 1.319 . S
C278 C50 1.318 . S
C287 C182 1.310 . S
C289 C83 1.308 . S
C298 C215 1.318 . S
C300 C116 1.319 . S
C309 N5 1.467 . S
C311 N14 1.459 . S
C320 N47 1.458 . S
C322 N38 1.467 . S
C331 N71 1.464 . S
C333 N80 1.462 . S
C342 N113 1.461 . S
C344 N104 1.466 . S
C353 N146 1.459 . S
C355 N137 1.466 . S
C364 N179 1.455 . S
C366 N170 1.457 . S
C375 N212 1.463 . S
C377 N203 1.464 . S
C386 N245 1.468 . S
C388 N236 1.472 . S
C397 C226 1.400 . S
C399 C8 1.405 . S
C408 C41 1.419 . S
C410 C259 1.417 . S
C419 C160 1.382 . S
C421 C74 1.393 . S
C430 C127 1.369 . S
C432 C193 1.366 . S
C441 C173 1.364 . S
C443 C61 1.362 . S
C452 C94 1.376 . S
C454 C206 1.386 . S
C463 C239 1.414 . S
C465 C107 1.410 . S
C474 C28 1.391 . S
C476 C140 1.398 . S
