# Generated by pormake.
# Topology sxc, (6)-cn, num edge types: 1
# Building blocks:
#     Node 0, Type 0, BuildingBlock: KUMJIN_clean_sbu_1, # of connection points: 6
#     Node 1, Type 0, BuildingBlock: KUMJIN_clean_sbu_1, # of connection points: 6
#     Node 2, Type 0, BuildingBlock: KUMJIN_clean_sbu_1, # of connection points: 6
#     Edge 3, Type (0, 0), BuildingBlock: EZIPEK_clean_linker_0, # of connection points: 2
#     Edge 4, Type (0, 0), BuildingBlock: EZIPEK_clean_linker_0, # of connection points: 2
#     Edge 5, Type (0, 0), BuildingBlock: EZIPEK_clean_linker_0, # of connection points: 2
#     Edge 6, Type (0, 0), BuildingBlock: EZIPEK_clean_linker_0, # of connection points: 2
#     Edge 7, Type (0, 0), BuildingBlock: EZIPEK_clean_linker_0, # of connection points: 2
#     Edge 8, Type (0, 0), BuildingBlock: EZIPEK_clean_linker_0, # of connection points: 2
#     Edge 9, Type (0, 0), BuildingBlock: EZIPEK_clean_linker_0, # of connection points: 2
#     Edge 10, Type (0, 0), BuildingBlock: EZIPEK_clean_linker_0, # of connection points: 2
#     Edge 11, Type (0, 0), BuildingBlock: EZIPEK_clean_linker_0, # of connection points: 2
# Relax obj value: 0.409
# Max RMSD: 0.179
# Mean RMSD: 0.135
data_MOF--net-sxc--node1-KUMJIN_clean_sbu_1--edge1-EZIPEK_clean_linker_0
_symmetry_space_group_name_H-M    P1
_symmetry_Int_Tables_number       1
_symmetry_cell_setting            triclinic
loop_
_symmetry_equiv_pos_as_xyz
'x, y, z'
_cell_length_a     11.744459
_cell_length_b     12.668354
_cell_length_c     32.044985
_cell_angle_alpha  110.0753
_cell_angle_beta   96.964796
_cell_angle_gamma 92.414692
loop_
_atom_site_label
_atom_site_type_symbol
_atom_site_fract_x
_atom_site_fract_y
_atom_site_fract_z
_atom_type_partial_charge
Eu0 Eu 0.9235 0.26961 0.98706 0.0
C1 C 0.36994 0.3244 0.12364 0.0
N2 N 0.31207 0.39534 0.10725 0.0
C3 C 0.34141 0.53805 0.18087 0.0
C4 C 0.4099 0.35464 0.16977 0.0
C5 C 0.30352 0.50372 0.13469 0.0
C6 C 0.39265 0.46226 0.19866 0.0
C7 C 0.46384 0.15158 0.10835 0.0
C8 C 0.39841 0.22553 0.09351 0.0
C9 C 0.49386 0.17523 0.15453 0.0
C10 C 0.46896 0.27772 0.18507 0.0
Eu11 Eu 0.23929 0.32069 0.029 0.0
N12 N 0.36887 0.20545 0.04922 0.0
C13 C 0.50146 1.05906 0.07618 0.0
C14 C 0.4138 1.12195 0.0178 0.0
C15 C 0.48107 1.04745 0.03077 0.0
H16 H 0.26412 0.56269 0.12113 0.0
H17 H 0.5163 0.98166 0.00561 0.0
H18 H 0.80883 0.51498 0.98105 0.0
H19 H 0.75093 1.01464 0.07432 0.0
H20 H 0.39441 1.11127 0.98271 0.0
H21 H 0.55115 1.00007 0.08656 0.0
H22 H 0.8127 1.04428 0.00867 0.0
H23 H 0.3311 0.62281 0.20267 0.0
H24 H 0.54179 1.11801 0.16684 0.0
H25 H 0.49733 0.29675 0.22017 0.0
H26 H 0.74059 0.68243 0.03408 0.0
H27 H 0.42232 0.4892 0.23434 0.0
H28 H 0.7164 0.17868 0.13976 0.0
N29 N 0.82279 0.42549 0.02678 0.0
C30 C 0.78104 0.41549 0.06311 0.0
C31 C 0.75261 0.60833 0.04302 0.0
C32 C 0.73279 0.50586 0.09308 0.0
C33 C 0.79435 0.51413 0.01353 0.0
C34 C 0.72534 0.60534 0.08375 0.0
N35 N 0.81439 0.22338 0.03654 0.0
C36 C 0.79548 1.11617 0.03637 0.0
C37 C 0.73739 0.29791 0.10588 0.0
C38 C 0.77817 0.31175 0.06844 0.0
C39 C 0.73911 0.19169 0.11008 0.0
C40 C 0.76167 1.09927 0.0739 0.0
H41 H 0.69184 0.67746 0.10627 0.0
H42 H 0.65549 0.56198 0.15429 0.0
H43 H 0.66476 0.38092 0.16655 0.0
O44 O 0.73952 0.22658 0.95894 0.0
O45 O 0.99208 0.45703 0.99179 0.0
O46 O 0.17781 0.49932 0.02692 0.0
O47 O 0.86711 0.19966 0.91531 0.0
O48 O 0.99852 0.2453 0.0523 0.0
O49 O 0.11567 0.4005 0.07739 0.0
O50 O 0.30006 0.3836 0.9799 0.0
O51 O 0.17737 1.12264 0.01706 0.0
O52 O 0.98742 1.08606 0.98476 0.0
O53 O 0.42111 0.37539 0.03553 0.0
O54 O 0.18913 0.18506 0.96007 0.0
O55 O 1.05021 0.28035 0.9398 0.0
C56 C 0.08388 0.53426 0.0085 0.0
C57 C 0.69216 1.08947 0.88519 0.0
C58 C 0.58913 0.90542 0.86586 0.0
C59 C 0.56877 0.89649 0.82083 0.0
C60 C 0.67094 1.08008 0.83994 0.0
C61 C 0.60964 0.98376 0.80785 0.0
C62 C 0.65124 1.00179 0.89809 0.0
C63 C 1.0483 0.33074 0.08681 0.0
C64 C 0.7586 0.19104 0.91762 0.0
C65 C 0.69153 0.49302 0.13059 0.0
C66 C 0.69574 0.38961 0.13736 0.0
C67 C 0.08293 1.04587 0.00052 0.0
C68 C 0.44825 0.52718 0.01021 0.0
C69 C 0.50294 0.66716 0.9787 0.0
C70 C 0.51705 0.74971 0.02179 0.0
C71 C 0.4556 0.61166 0.05272 0.0
C72 C 0.47097 0.55549 0.97349 0.0
C73 C 0.49103 0.72278 0.05844 0.0
C74 C 0.12806 0.20884 0.92825 0.0
C75 C 0.40422 0.41147 0.00195 0.0
H76 H 0.52192 0.82179 0.7962 0.0
H77 H 0.7019 1.14744 0.8295 0.0
H78 H 0.5926 0.97762 0.77311 0.0
H79 H 0.66709 1.00827 0.93298 0.0
H80 H 0.54664 0.83495 0.02669 0.0
H81 H 0.43497 0.59189 0.08135 0.0
H82 H 0.46262 0.49037 0.94086 0.0
H83 H 0.49813 0.78814 0.09117 0.0
Eu84 Eu 1.07492 1.07113 0.29348 0.0
C85 C 0.32314 0.47553 0.44987 0.0
N86 N 0.22425 0.41189 0.44646 0.0
C87 C 0.26814 0.43723 0.52497 0.0
C88 C 0.4053 0.50678 0.48888 0.0
C89 C 0.19213 0.40132 0.48466 0.0
C90 C 0.37814 0.48377 0.52626 0.0
C91 C 0.44111 0.58321 0.41894 0.0
C92 C 0.33948 0.51624 0.41571 0.0
C93 C 0.5258 0.60738 0.45634 0.0
C94 C 0.50879 0.5668 0.49061 0.0
Eu95 Eu 0.09661 0.36783 0.37802 0.0
N96 N 0.25779 0.48755 0.37871 0.0
C97 C 0.45661 0.62078 0.38378 0.0
C98 C 0.2751 0.52112 0.3437 0.0
C99 C 0.37466 0.58726 0.34557 0.0
H100 H 0.10776 0.36524 0.48475 0.0
H101 H 0.3898 0.60877 0.31674 0.0
H102 H 1.04336 1.06343 0.18677 0.0
H103 H 0.82342 0.85741 0.37218 0.0
H104 H 0.21743 0.49041 0.31277 0.0
H105 H 0.5334 0.67266 0.38517 0.0
H106 H 1.00018 0.94138 0.36201 0.0
H107 H 0.24223 0.4277 0.55485 0.0
H108 H 0.60415 0.65849 0.45932 0.0
H109 H 0.57378 0.58588 0.51934 0.0
H110 H 0.90246 0.9884 0.11861 0.0
H111 H 0.43839 0.50863 0.55711 0.0
H112 H 0.67817 0.75131 0.3049 0.0
N113 N 0.94206 1.00724 0.22664 0.0
C114 C 0.85044 0.93759 0.2262 0.0
C115 C 0.88273 0.97843 0.14915 0.0
C116 C 0.76441 0.89525 0.18842 0.0
C117 C 0.96272 1.02232 0.18808 0.0
C118 C 0.78037 0.91883 0.14978 0.0
N119 N 0.93486 0.93959 0.29743 0.0
C120 C 0.93067 0.91392 0.3348 0.0
C121 C 0.75294 0.83107 0.26348 0.0
C122 C 0.8468 0.90272 0.26258 0.0
C123 C 0.74877 0.8054 0.30232 0.0
C124 C 0.83311 0.85657 0.3393 0.0
H125 H 0.71782 0.88586 0.11961 0.0
H126 H 0.59953 0.79621 0.16192 0.0
H127 H 0.59 0.73953 0.22745 0.0
O128 O 0.09397 0.90403 0.24408 0.0
O129 O 0.89886 1.12879 0.31863 0.0
O130 O 0.91134 0.32133 0.33874 0.0
O131 O 0.22414 1.04126 0.25718 0.0
O132 O 0.14583 1.07873 0.3665 0.0
O133 O 1.0407 0.21947 0.39622 0.0
O134 O 1.07484 0.53938 0.41691 0.0
O135 O 0.27499 0.31104 0.3549 0.0
O136 O 0.26257 1.12005 0.33032 0.0
O137 O 0.98467 0.40306 0.42953 0.0
O138 O 1.04612 0.38744 0.30876 0.0
O139 O 1.06695 0.20607 0.26405 0.0
C140 C 0.84757 0.22468 0.32962 0.0
C141 C 0.27805 0.88566 0.27417 0.0
C142 C 0.28714 0.83499 0.34112 0.0
C143 C 0.40735 0.83702 0.34374 0.0
C144 C 0.39754 0.88824 0.27642 0.0
C145 C 0.46179 0.86659 0.31202 0.0
C146 C 0.22791 0.86774 0.30853 0.0
C147 C 0.10895 1.14738 0.40259 0.0
C148 C 0.20334 0.93274 0.24656 0.0
C149 C 0.66893 0.8263 0.18975 0.0
C150 C 0.66368 0.79344 0.22703 0.0
C151 C 0.32668 0.21653 0.3415 0.0
C152 C 0.90638 0.57715 0.44901 0.0
C153 C 0.90365 0.72526 0.42132 0.0
C154 C 0.79235 0.68071 0.39656 0.0
C155 C 0.79903 0.52738 0.42452 0.0
C156 C 0.93565 0.69024 0.45738 0.0
C157 C 0.74029 0.58187 0.39887 0.0
C158 C 1.05492 0.31111 0.26891 0.0
C159 C 1.00477 0.51168 0.44114 0.0
H160 H 0.45931 0.81955 0.37022 0.0
H161 H 0.44082 0.91417 0.25308 0.0
H162 H 0.55362 0.88004 0.31669 0.0
H163 H 0.13732 0.87474 0.30957 0.0
H164 H 0.75503 0.70214 0.36873 0.0
H165 H 0.77077 0.44064 0.41921 0.0
H166 H 1.01753 0.72471 0.47848 0.0
H167 H 0.66452 0.53838 0.37565 0.0
Eu168 Eu 0.19459 0.34378 0.70174 0.0
C169 C 0.28053 0.85712 0.67156 0.0
N170 N 0.27295 0.89241 0.63621 0.0
C171 C 0.41297 0.76984 0.60505 0.0
C172 C 0.36453 0.78782 0.67822 0.0
C173 C 0.33686 0.84958 0.60246 0.0
C174 C 0.42916 0.74184 0.64365 0.0
C175 C 0.19365 0.84065 0.73367 0.0
C176 C 0.19293 0.87653 0.69685 0.0
C177 C 0.28864 0.78795 0.74559 0.0
C178 C 0.37344 0.7598 0.71714 0.0
Eu179 Eu 0.14414 1.02934 0.63789 0.0
N180 N 0.10079 0.92006 0.68192 0.0
C181 C 0.09709 0.85584 0.75584 0.0
C182 C 0.99784 0.91059 0.69671 0.0
C183 C 0.9965 0.88582 0.73587 0.0
H184 H 0.32621 0.87484 0.57332 0.0
H185 H 0.91913 0.89439 0.75138 0.0
H186 H 0.35743 0.36487 0.80054 0.0
H187 H 0.92093 0.64801 0.67504 0.0
H188 H 0.92223 0.93971 0.68288 0.0
H189 H 0.09697 0.83812 0.78656 0.0
H190 H 1.03634 0.48487 0.65375 0.0
H191 H 0.45703 0.72794 0.5773 0.0
H192 H 0.29341 0.76214 0.77464 0.0
H193 H 0.44356 0.71425 0.72472 0.0
H194 H 0.34514 0.44357 0.88034 0.0
H195 H 0.48503 0.67864 0.6448 0.0
H196 H 0.87475 0.72515 0.75359 0.0
N197 N 0.20071 0.42628 0.78088 0.0
C198 C 0.12248 0.50165 0.79513 0.0
C199 C 0.28261 0.46216 0.85717 0.0
C200 C 0.1229 0.56171 0.84126 0.0
C201 C 0.2862 0.41351 0.8113 0.0
C202 C 0.20004 0.53621 0.87244 0.0
N203 N 1.06382 0.47936 0.71953 0.0
C204 C 1.01822 0.52066 0.68785 0.0
C205 C 0.98393 0.62029 0.77681 0.0
C206 C 1.05297 0.53018 0.7634 0.0
C207 C 0.92938 0.65743 0.74406 0.0
C208 C 0.95205 0.61194 0.69978 0.0
H209 H 0.19977 0.57662 0.90818 0.0
H210 H 1.05867 0.70278 0.88949 0.0
H211 H 0.93123 0.75035 0.83343 0.0
O212 O 0.28822 0.40969 0.66033 0.0
O213 O 0.99612 0.29426 0.68938 0.0
O214 O 0.96923 1.09977 0.65381 0.0
O215 O 0.28276 0.51233 0.73018 0.0
O216 O 0.12344 0.28082 0.6265 0.0
O217 O 0.23574 1.14006 0.60816 0.0
O218 O 0.09643 0.87214 0.58174 0.0
O219 O 0.34111 1.08485 0.65025 0.0
O220 O 0.37053 0.26697 0.70118 0.0
O221 O 1.03016 1.02622 0.57871 0.0
O222 O 0.09726 1.1038 0.70843 0.0
O223 O 0.24948 0.22574 0.73814 0.0
C224 C 0.92753 0.19851 0.67209 0.0
C225 C 0.4603 0.49789 0.70393 0.0
C226 C 0.63989 0.50843 0.67681 0.0
C227 C 0.69801 0.4922 0.71464 0.0
C228 C 0.519 0.49608 0.74462 0.0
C229 C 0.63776 0.49036 0.74936 0.0
C230 C 0.52079 0.49817 0.66953 0.0
C231 C 0.17827 0.21292 0.5961 0.0
C232 C 0.33595 0.49436 0.6954 0.0
C233 C 1.05263 0.65047 0.85464 0.0
C234 C 0.98145 0.67851 0.82256 0.0
C235 C 0.41213 0.17445 0.67587 0.0
C236 C 0.90492 0.86513 0.54959 0.0
C237 C 0.75851 0.75663 0.56769 0.0
C238 C 0.67367 0.80015 0.54495 0.0
C239 C 0.82047 0.90397 0.52487 0.0
C240 C 0.8735 0.7881 0.56931 0.0
C241 C 0.705 0.86925 0.52179 0.0
C242 C 0.17078 0.15899 0.7437 0.0
C243 C 1.02232 0.91711 0.56078 0.0
H244 H 0.78893 0.48466 0.71802 0.0
H245 H 0.47345 0.49546 0.77194 0.0
H246 H 0.68286 0.48561 0.78002 0.0
H247 H 0.47528 0.49997 0.63827 0.0
H248 H 0.58379 0.78319 0.54541 0.0
H249 H 0.84257 0.96602 0.5103 0.0
H250 H 0.93755 0.75823 0.58896 0.0
H251 H 0.63954 0.9008 0.5035 0.0
C252 C 1.00834 0.69675 0.97319 0.0
C253 C 0.08064 0.66529 0.00658 0.0
C254 C 0.15947 0.87658 0.03361 0.0
C255 C 0.08221 0.91247 0.00226 0.0
N256 N 0.91478 0.83579 0.94586 0.0
N257 N 0.19763 0.75412 0.07807 0.0
C258 C 1.00123 0.8161 0.97389 0.0
C259 C 0.14827 0.76385 0.03891 0.0
N260 N 0.94888 0.61059 0.93778 0.0
N261 N 0.24868 0.94995 0.05969 0.0
H262 H 0.18651 0.68045 0.08511 0.0
H263 H 0.23517 0.82274 0.10591 0.0
H264 H 0.25856 1.03233 0.06135 0.0
H265 H 0.31634 0.92609 0.0777 0.0
H266 H 0.90045 0.62176 0.91052 0.0
H267 H 0.95853 0.52608 0.93271 0.0
H268 H 0.84088 0.7807 0.93199 0.0
H269 H 0.91332 0.90893 0.93819 0.0
C270 C 0.51753 0.28816 0.31836 0.0
C271 C 0.4614 0.21885 0.33874 0.0
C272 C 0.65955 0.15889 0.35552 0.0
C273 C 0.71381 0.22339 0.33308 0.0
N274 N 0.68575 0.33952 0.28841 0.0
N275 N 0.49127 1.09716 0.38171 0.0
C276 C 0.63994 0.28673 0.31402 0.0
C277 C 0.53635 0.15585 0.35808 0.0
N278 N 0.45262 0.35419 0.30143 0.0
N279 N 0.72704 1.09876 0.37478 0.0
H280 H 0.40381 1.07514 0.37835 0.0
H281 H 0.53941 1.06934 0.4047 0.0
H282 H 0.8157 1.11208 0.37906 0.0
H283 H 0.69705 1.03605 0.38584 0.0
H284 H 0.48621 0.41959 0.29278 0.0
H285 H 0.36374 0.34583 0.29733 0.0
H286 H 0.64464 0.39325 0.27456 0.0
H287 H 0.76544 0.32229 0.27801 0.0
C288 C 0.74514 0.57357 0.58116 0.0
C289 C 0.73173 0.69116 0.59585 0.0
C290 C 0.69818 0.69012 0.66929 0.0
C291 C 0.69525 0.57015 0.6523 0.0
N292 N 0.70929 0.39618 0.59243 0.0
N293 N 0.69618 0.8635 0.65315 0.0
C294 C 0.71837 0.51143 0.60847 0.0
C295 C 0.7101 0.7504 0.63997 0.0
N296 N 0.78353 0.52172 0.54112 0.0
N297 N 0.68387 0.74584 0.71294 0.0
H298 H 0.70943 0.91218 0.63347 0.0
H299 H 0.66534 0.90927 0.68258 0.0
H300 H 0.66584 0.70534 0.73498 0.0
H301 H 0.70005 0.83264 0.72884 0.0
H302 H 0.80775 0.4396 0.53094 0.0
H303 H 0.79691 0.56331 0.51896 0.0
H304 H 0.7104 0.34743 0.55892 0.0
H305 H 0.69423 0.34923 0.61261 0.0
C306 C 0.74841 0.23924 0.71484 0.0
C307 C 0.79556 0.19772 0.67369 0.0
C308 C 0.5937 1.13294 0.634 0.0
C309 C 0.54528 0.17488 0.67509 0.0
N310 N 0.5854 0.24451 0.75586 0.0
N311 N 0.75626 1.13002 0.59338 0.0
C312 C 0.62566 0.22175 0.71572 0.0
C313 C 0.71599 0.15 0.63335 0.0
N314 N 0.82025 0.30044 0.75331 0.0
N315 N 0.52431 1.07273 0.59485 0.0
H316 H 0.84328 1.14007 0.59106 0.0
H317 H 0.70331 1.1163 0.56316 0.0
H318 H 0.43539 1.06292 0.59109 0.0
H319 H 0.55539 1.02566 0.56571 0.0
H320 H 0.79351 0.34044 0.78419 0.0
H321 H 0.90803 0.31791 0.75429 0.0
H322 H 0.63752 0.2671 0.78674 0.0
H323 H 0.49896 0.23165 0.75829 0.0
C324 C 0.60908 0.72562 0.88037 0.0
C325 C 0.54258 0.81628 0.88058 0.0
C326 C 0.42368 0.77472 0.93121 0.0
C327 C 0.5061 0.70222 0.93909 0.0
N328 N 0.65534 0.58165 0.91226 0.0
N329 N 0.37463 0.91548 0.89773 0.0
C330 C 0.59123 0.66778 0.91037 0.0
C331 C 0.44433 0.83546 0.90269 0.0
N332 N 0.6938 0.70084 0.85364 0.0
N333 N 0.32556 0.7837 0.95072 0.0
H334 H 0.38534 0.95641 0.87503 0.0
H335 H 0.30762 0.94289 0.9161 0.0
H336 H 0.30704 0.73731 0.97076 0.0
H337 H 0.25776 0.82839 0.94407 0.0
H338 H 0.75231 0.64167 0.85371 0.0
H339 H 0.70587 0.74043 0.83065 0.0
H340 H 0.70791 0.54244 0.88871 0.0
H341 H 0.65147 0.54388 0.9362 0.0
C342 C 1.01826 0.69095 0.35614 0.0
C343 C 1.00479 0.7555 0.40079 0.0
C344 C 0.20415 0.84484 0.41169 0.0
C345 C 0.21063 0.788 0.36581 0.0
N346 N 0.1286 0.64783 0.29482 0.0
N347 N 0.08057 0.90733 0.46889 0.0
C348 C 0.11873 0.70832 0.33854 0.0
C349 C 0.09783 0.83509 0.42814 0.0
N350 N 0.93315 0.61391 0.32912 0.0
N351 N 0.29797 0.91025 0.43915 0.0
H352 H 0.99816 0.91552 0.4774 0.0
H353 H 0.14335 0.96483 0.49206 0.0
H354 H 0.37379 0.92478 0.42748 0.0
H355 H 0.30471 0.94268 0.47398 0.0
H356 H 0.90243 0.617 0.29775 0.0
H357 H 0.89346 0.55329 0.33911 0.0
H358 H 1.06294 0.5933 0.27245 0.0
H359 H 0.20503 0.64816 0.28127 0.0
C360 C 0.13274 0.26942 0.19526 0.0
C361 C 1.06223 0.33559 0.2257 0.0
C362 C 1.00194 0.41728 0.16751 0.0
C363 C 1.0523 0.33314 0.13474 0.0
N364 N 0.12785 0.15146 0.1187 0.0
N365 N 0.89825 0.44466 0.23055 0.0
C366 C 0.10696 0.25115 0.14888 0.0
C367 C 0.98786 0.40254 0.20911 0.0
N368 N 0.22123 0.21838 0.20973 0.0
N369 N 0.96582 0.50979 0.15923 0.0
H370 H 0.88177 0.42838 0.25893 0.0
H371 H 0.83849 0.48985 0.2186 0.0
H372 H 0.97653 0.52386 0.12967 0.0
H373 H 0.93494 0.57602 0.18359 0.0
H374 H 0.27317 0.16813 0.18827 0.0
H375 H 0.24744 0.23224 0.24338 0.0
H376 H 0.15692 1.0853 0.12823 0.0
H377 H 0.09726 1.1286 0.08505 0.0
C378 C 1.03717 1.14683 0.47432 0.0
C379 C 0.13199 1.14274 0.45011 0.0
C380 C 0.25974 0.18615 0.52286 0.0
C381 C 0.16299 0.2022 0.54688 0.0
N382 N 0.95995 0.23267 0.54316 0.0
N383 N 0.33473 0.19161 0.45631 0.0
C384 C 1.05214 0.19413 0.52209 0.0
C385 C 0.2444 0.1678 0.47552 0.0
N386 N 0.93236 1.09756 0.45171 0.0
N387 N 0.36799 0.2 0.546 0.0
H388 H 0.32176 0.20063 0.42515 0.0
H389 H 0.4177 0.21976 0.47337 0.0
H390 H 0.38496 0.23531 0.58094 0.0
H391 H 0.44025 0.17517 0.53043 0.0
H392 H 0.86067 1.09093 0.4672 0.0
H393 H 0.92483 1.0456 0.41855 0.0
H394 H 0.88053 0.237 0.52563 0.0
H395 H 0.9647 0.27335 0.57753 0.0
C396 C 0.26512 0.15835 0.81968 0.0
C397 C 0.16272 0.15057 0.78952 0.0
C398 C 1.05546 1.11975 0.84619 0.0
C399 C 0.15049 0.1649 0.88 0.0
N400 N 0.35694 0.20812 0.89675 0.0
N401 N 0.95267 1.12917 0.77872 0.0
C402 C 0.25922 0.17875 0.86624 0.0
C403 C 1.05552 1.13284 0.80401 0.0
N404 N 0.36678 1.13749 0.80323 0.0
N405 N 0.96965 1.05412 0.85278 0.0
H406 H 0.94463 1.13478 0.7471 0.0
H407 H 0.87448 1.12552 0.79075 0.0
H408 H 0.97529 1.03309 0.88174 0.0
H409 H 0.90208 1.01064 0.82759 0.0
H410 H 0.44348 1.13701 0.82305 0.0
H411 H 0.37064 1.10625 0.76884 0.0
H412 H 0.43529 0.23549 0.89 0.0
H413 H 0.35928 0.20484 0.92877 0.0
loop_
_geom_bond_atom_site_label_1
_geom_bond_atom_site_label_2
_geom_bond_distance
_geom_bond_site_symmetry_2
_ccdc_geom_bond_type
Eu0 N29 2.600 . S
Eu0 N35 2.562 1_556 S
Eu0 O44 2.462 1_546 S
Eu0 O45 2.373 1_556 S
Eu0 O47 2.432 1_545 S
Eu0 O48 2.291 1_556 S
Eu0 O52 2.335 1_545 S
Eu0 O55 2.372 . S
Eu0 C64 2.787 1_545 S
C1 N2 1.365 . S
C1 C4 1.405 . S
C1 C8 1.448 . S
N2 C1 1.365 . S
N2 C5 1.319 . S
N2 Eu11 2.600 . S
C3 C5 1.397 . S
C3 C6 1.367 . S
C3 H23 0.931 . S
C4 C1 1.405 . S
C4 C6 1.403 . S
C4 C10 1.439 . S
C5 N2 1.319 . S
C5 C3 1.397 . S
C5 H16 0.930 . S
C6 C3 1.367 . S
C6 C4 1.403 . S
C6 H27 0.929 . S
C7 C8 1.430 . S
C7 C9 1.387 1_545 S
C7 C13 1.404 1_544 S
C8 C1 1.448 . S
C8 C7 1.430 . S
C8 N12 1.351 . S
C9 C7 1.387 1_565 S
C9 C10 1.374 1_565 S
C9 H24 0.931 . S
C10 C4 1.439 . S
C10 C9 1.374 1_545 S
C10 H25 0.931 1_545 S
Eu11 N2 2.600 . S
Eu11 N12 2.562 . S
Eu11 O46 2.335 . S
Eu11 O49 2.372 . S
Eu11 O50 2.462 . S
Eu11 O51 2.373 . S
Eu11 O53 2.432 . S
Eu11 O54 2.291 1_554 S
Eu11 C75 2.787 . S
N12 C8 1.351 . S
N12 Eu11 2.562 . S
N12 C14 1.325 1_554 S
C13 C7 1.404 1_566 S
C13 C15 1.366 . S
C13 H21 0.930 . S
C14 N12 1.325 1_556 S
C14 C15 1.416 1_545 S
C14 H20 0.929 . S
C15 C13 1.366 . S
C15 C14 1.416 1_565 S
C15 H17 0.930 . S
H16 C5 0.930 . S
H17 C15 0.930 . S
H18 C33 0.930 1_565 S
H19 C40 0.930 . S
H20 C14 0.929 . S
H21 C13 0.930 . S
H22 C36 0.929 . S
H23 C3 0.931 . S
H24 C9 0.931 . S
H25 C10 0.931 1_565 S
H26 C31 0.931 . S
H27 C6 0.929 . S
H28 C39 0.930 . S
N29 Eu0 2.600 . S
N29 C30 1.365 . S
N29 C33 1.319 . S
C30 N29 1.365 . S
C30 C32 1.405 . S
C30 C38 1.448 . S
C31 H26 0.931 . S
C31 C33 1.397 . S
C31 C34 1.367 . S
C32 C30 1.405 . S
C32 C34 1.403 . S
C32 C65 1.439 . S
C33 H18 0.930 1_545 S
C33 N29 1.319 . S
C33 C31 1.397 . S
C34 C31 1.367 . S
C34 C32 1.403 . S
C34 H41 0.929 . S
N35 Eu0 2.562 1_554 S
N35 C36 1.325 . S
N35 C38 1.351 1_554 S
C36 H22 0.929 . S
C36 N35 1.325 . S
C36 C40 1.416 . S
C37 C38 1.430 1_554 S
C37 C39 1.404 . S
C37 C66 1.387 1_554 S
C38 C30 1.448 . S
C38 N35 1.351 1_556 S
C38 C37 1.430 1_556 S
C39 H28 0.930 . S
C39 C37 1.404 . S
C39 C40 1.366 . S
C40 H19 0.930 . S
C40 C36 1.416 . S
C40 C39 1.366 . S
H41 C34 0.929 . S
H42 C65 0.931 . S
H43 C66 0.931 . S
O44 Eu0 2.462 1_564 S
O44 C64 1.252 1_554 S
O45 Eu0 2.373 1_554 S
O45 C56 1.249 . S
O46 Eu11 2.335 . S
O46 C56 1.264 1_455 S
O47 Eu0 2.432 1_565 S
O47 C64 1.268 . S
O48 Eu0 2.291 1_554 S
O48 C63 1.255 . S
O49 Eu11 2.372 . S
O49 C63 1.257 1_455 S
O50 Eu11 2.462 . S
O50 C75 1.252 . S
O51 Eu11 2.373 . S
O51 C67 1.249 1_545 S
O52 Eu0 2.335 1_565 S
O52 C67 1.264 1_656 S
O53 Eu11 2.432 . S
O53 C75 1.268 . S
O54 Eu11 2.291 1_556 S
O54 C74 1.255 . S
O55 Eu0 2.372 . S
O55 C74 1.257 1_655 S
C56 O45 1.249 . S
C56 O46 1.264 1_655 S
C57 C60 1.382 . S
C57 C62 1.390 1_556 S
C57 C64 1.506 . S
C58 C59 1.398 1_554 S
C58 C62 1.392 . S
C59 C58 1.398 1_556 S
C59 C61 1.372 . S
C59 H76 0.931 . S
C60 C57 1.382 . S
C60 C61 1.390 . S
C60 H77 0.931 . S
C61 C59 1.372 . S
C61 C60 1.390 . S
C61 H78 0.929 . S
C62 C57 1.390 1_554 S
C62 C58 1.392 . S
C62 H79 0.930 . S
C63 O48 1.255 . S
C63 O49 1.257 1_655 S
C64 Eu0 2.787 1_565 S
C64 O44 1.252 1_556 S
C64 O47 1.268 . S
C64 C57 1.506 . S
C65 C32 1.439 . S
C65 H42 0.931 . S
C65 C66 1.374 . S
C66 C37 1.387 1_556 S
C66 H43 0.931 . S
C66 C65 1.374 . S
C67 O51 1.249 1_565 S
C67 O52 1.264 1_454 S
C68 C71 1.382 . S
C68 C72 1.390 . S
C68 C75 1.506 . S
C69 C70 1.398 . S
C69 C72 1.392 . S
C70 C69 1.398 . S
C70 C73 1.372 . S
C70 H80 0.931 . S
C71 C68 1.382 . S
C71 C73 1.390 . S
C71 H81 0.931 . S
C72 C68 1.390 . S
C72 C69 1.392 . S
C72 H82 0.930 1_554 S
C73 C70 1.372 . S
C73 C71 1.390 . S
C73 H83 0.929 . S
C74 O54 1.255 . S
C74 O55 1.257 1_455 S
C75 Eu11 2.787 . S
C75 O50 1.252 . S
C75 O53 1.268 . S
C75 C68 1.506 . S
H76 C59 0.931 . S
H77 C60 0.931 . S
H78 C61 0.929 . S
H79 C62 0.930 . S
H80 C70 0.931 . S
H81 C71 0.931 . S
H82 C72 0.930 1_556 S
H83 C73 0.929 . S
Eu84 N113 2.600 . S
Eu84 N119 2.562 . S
Eu84 O128 2.462 1_655 S
Eu84 O129 2.373 1_565 S
Eu84 O131 2.432 1_655 S
Eu84 O132 2.291 1_565 S
Eu84 O136 2.335 1_665 S
Eu84 O139 2.372 1_565 S
Eu84 C148 2.787 1_655 S
C85 N86 1.365 . S
C85 C88 1.405 . S
C85 C92 1.448 . S
N86 C85 1.365 . S
N86 C89 1.319 . S
N86 Eu95 2.600 . S
C87 C89 1.397 . S
C87 C90 1.367 . S
C87 H107 0.931 . S
C88 C85 1.405 . S
C88 C90 1.403 . S
C88 C94 1.439 . S
C89 N86 1.319 . S
C89 C87 1.397 . S
C89 H100 0.930 . S
C90 C87 1.367 . S
C90 C88 1.403 . S
C90 H111 0.929 . S
C91 C92 1.430 . S
C91 C93 1.387 . S
C91 C97 1.404 . S
C92 C85 1.448 . S
C92 C91 1.430 . S
C92 N96 1.351 . S
C93 C91 1.387 . S
C93 C94 1.374 . S
C93 H108 0.931 . S
C94 C88 1.439 . S
C94 C93 1.374 . S
C94 H109 0.931 . S
Eu95 N86 2.600 . S
Eu95 N96 2.562 . S
Eu95 O130 2.335 1_455 S
Eu95 O133 2.372 . S
Eu95 O134 2.462 . S
Eu95 O135 2.373 . S
Eu95 O137 2.432 . S
Eu95 O138 2.291 . S
Eu95 C159 2.787 . S
N96 C92 1.351 . S
N96 Eu95 2.562 . S
N96 C98 1.325 . S
C97 C91 1.404 . S
C97 C99 1.366 . S
C97 H105 0.930 . S
C98 N96 1.325 . S
C98 C99 1.416 . S
C98 H104 0.929 . S
C99 C97 1.366 . S
C99 C98 1.416 . S
C99 H101 0.930 . S
H100 C89 0.930 . S
H101 C99 0.930 . S
H102 C117 0.930 . S
H103 C124 0.930 . S
H104 C98 0.929 . S
H105 C97 0.930 . S
H106 C120 0.929 . S
H107 C87 0.931 . S
H108 C93 0.931 . S
H109 C94 0.931 . S
H110 C115 0.931 . S
H111 C90 0.929 . S
H112 C123 0.930 . S
N113 Eu84 2.600 . S
N113 C114 1.365 . S
N113 C117 1.319 . S
C114 N113 1.365 . S
C114 C116 1.405 . S
C114 C122 1.448 . S
C115 H110 0.931 . S
C115 C117 1.397 . S
C115 C118 1.367 . S
C116 C114 1.405 . S
C116 C118 1.403 . S
C116 C149 1.439 . S
C117 H102 0.930 . S
C117 N113 1.319 . S
C117 C115 1.397 . S
C118 C115 1.367 . S
C118 C116 1.403 . S
C118 H125 0.929 . S
N119 Eu84 2.562 . S
N119 C120 1.325 . S
N119 C122 1.351 . S
C120 H106 0.929 . S
C120 N119 1.325 . S
C120 C124 1.416 . S
C121 C122 1.430 . S
C121 C123 1.404 . S
C121 C150 1.387 . S
C122 C114 1.448 . S
C122 N119 1.351 . S
C122 C121 1.430 . S
C123 H112 0.930 . S
C123 C121 1.404 . S
C123 C124 1.366 . S
C124 H103 0.930 . S
C124 C120 1.416 . S
C124 C123 1.366 . S
H125 C118 0.929 . S
H126 C149 0.931 . S
H127 C150 0.931 . S
O128 Eu84 2.462 1_455 S
O128 C148 1.252 . S
O129 Eu84 2.373 1_545 S
O129 C140 1.249 . S
O130 Eu95 2.335 1_655 S
O130 C140 1.264 . S
O131 Eu84 2.432 1_455 S
O131 C148 1.268 . S
O132 Eu84 2.291 1_545 S
O132 C147 1.255 1_655 S
O133 Eu95 2.372 . S
O133 C147 1.257 . S
O134 Eu95 2.462 . S
O134 C159 1.252 . S
O135 Eu95 2.373 . S
O135 C151 1.249 . S
O136 Eu84 2.335 1_445 S
O136 C151 1.264 . S
O137 Eu95 2.432 . S
O137 C159 1.268 . S
O138 Eu95 2.291 . S
O138 C158 1.255 . S
O139 Eu84 2.372 1_545 S
O139 C158 1.257 1_655 S
C140 O129 1.249 . S
C140 O130 1.264 . S
C141 C144 1.382 . S
C141 C146 1.390 . S
C141 C148 1.506 . S
C142 C143 1.398 . S
C142 C146 1.392 . S
C143 C142 1.398 . S
C143 C145 1.372 . S
C143 H160 0.931 . S
C144 C141 1.382 . S
C144 C145 1.390 . S
C144 H161 0.931 . S
C145 C143 1.372 . S
C145 C144 1.390 . S
C145 H162 0.929 . S
C146 C141 1.390 . S
C146 C142 1.392 . S
C146 H163 0.930 . S
C147 O132 1.255 1_455 S
C147 O133 1.257 . S
C148 Eu84 2.787 1_455 S
C148 O128 1.252 . S
C148 O131 1.268 . S
C148 C141 1.506 . S
C149 C116 1.439 . S
C149 H126 0.931 . S
C149 C150 1.374 . S
C150 C121 1.387 . S
C150 H127 0.931 . S
C150 C149 1.374 . S
C151 O135 1.249 . S
C151 O136 1.264 . S
C152 C155 1.382 . S
C152 C156 1.390 . S
C152 C159 1.506 1_655 S
C153 C154 1.398 . S
C153 C156 1.392 . S
C154 C153 1.398 . S
C154 C157 1.372 . S
C154 H164 0.931 . S
C155 C152 1.382 . S
C155 C157 1.390 . S
C155 H165 0.931 1_655 S
C156 C152 1.390 . S
C156 C153 1.392 . S
C156 H166 0.930 . S
C157 C154 1.372 . S
C157 C155 1.390 . S
C157 H167 0.929 . S
C158 O138 1.255 . S
C158 O139 1.257 1_455 S
C159 Eu95 2.787 . S
C159 O134 1.252 . S
C159 O137 1.268 . S
C159 C152 1.506 1_455 S
H160 C143 0.931 . S
H161 C144 0.931 . S
H162 C145 0.929 . S
H163 C146 0.930 . S
H164 C154 0.931 . S
H165 C155 0.931 1_455 S
H166 C156 0.930 . S
H167 C157 0.929 . S
Eu168 N197 2.600 . S
Eu168 N203 2.562 . S
Eu168 O212 2.462 . S
Eu168 O213 2.373 1_455 S
Eu168 O215 2.432 . S
Eu168 O216 2.291 . S
Eu168 O220 2.335 . S
Eu168 O223 2.372 . S
Eu168 C232 2.787 . S
C169 N170 1.365 . S
C169 C172 1.405 . S
C169 C176 1.448 . S
N170 C169 1.365 . S
N170 C173 1.319 . S
N170 Eu179 2.600 . S
C171 C173 1.397 . S
C171 C174 1.367 . S
C171 H191 0.931 . S
C172 C169 1.405 . S
C172 C174 1.403 . S
C172 C178 1.439 . S
C173 N170 1.319 . S
C173 C171 1.397 . S
C173 H184 0.930 . S
C174 C171 1.367 . S
C174 C172 1.403 . S
C174 H195 0.929 . S
C175 C176 1.430 . S
C175 C177 1.387 . S
C175 C181 1.404 . S
C176 C169 1.448 . S
C176 C175 1.430 . S
C176 N180 1.351 . S
C177 C175 1.387 . S
C177 C178 1.374 . S
C177 H192 0.931 . S
C178 C172 1.439 . S
C178 C177 1.374 . S
C178 H193 0.931 . S
Eu179 N170 2.600 . S
Eu179 N180 2.562 . S
Eu179 O214 2.335 1_455 S
Eu179 O217 2.372 . S
Eu179 O218 2.462 1_455 S
Eu179 O219 2.373 . S
Eu179 O221 2.432 1_455 S
Eu179 O222 2.291 . S
Eu179 C243 2.787 1_455 S
N180 C176 1.351 . S
N180 Eu179 2.562 . S
N180 C182 1.325 . S
C181 C175 1.404 . S
C181 C183 1.366 . S
C181 H189 0.930 . S
C182 N180 1.325 . S
C182 C183 1.416 . S
C182 H188 0.929 . S
C183 C181 1.366 . S
C183 C182 1.416 . S
C183 H185 0.930 . S
H184 C173 0.930 . S
H185 C183 0.930 . S
H186 C201 0.930 . S
H187 C208 0.930 . S
H188 C182 0.929 . S
H189 C181 0.930 . S
H190 C204 0.929 . S
H191 C171 0.931 . S
H192 C177 0.931 . S
H193 C178 0.931 . S
H194 C199 0.931 . S
H195 C174 0.929 . S
H196 C207 0.930 . S
N197 Eu168 2.600 . S
N197 C198 1.365 . S
N197 C201 1.319 . S
C198 N197 1.365 . S
C198 C200 1.405 1_455 S
C198 C206 1.448 1_455 S
C199 H194 0.931 . S
C199 C201 1.397 . S
C199 C202 1.367 1_455 S
C200 C198 1.405 1_655 S
C200 C202 1.403 . S
C200 C233 1.439 . S
C201 H186 0.930 . S
C201 N197 1.319 . S
C201 C199 1.397 . S
C202 C199 1.367 1_655 S
C202 C200 1.403 . S
C202 H209 0.929 . S
N203 Eu168 2.562 . S
N203 C204 1.325 . S
N203 C206 1.351 1_455 S
C204 H190 0.929 . S
C204 N203 1.325 . S
C204 C208 1.416 1_455 S
C205 C206 1.430 . S
C205 C207 1.404 . S
C205 C234 1.387 . S
C206 C198 1.448 1_655 S
C206 N203 1.351 1_655 S
C206 C205 1.430 . S
C207 H196 0.930 . S
C207 C205 1.404 . S
C207 C208 1.366 . S
C208 H187 0.930 . S
C208 C204 1.416 1_655 S
C208 C207 1.366 . S
H209 C202 0.929 . S
H210 C233 0.931 . S
H211 C234 0.931 . S
O212 Eu168 2.462 . S
O212 C232 1.252 . S
O213 Eu168 2.373 1_655 S
O213 C224 1.249 . S
O214 Eu179 2.335 1_655 S
O214 C224 1.264 1_565 S
O215 Eu168 2.432 . S
O215 C232 1.268 . S
O216 Eu168 2.291 . S
O216 C231 1.255 . S
O217 Eu179 2.372 . S
O217 C231 1.257 1_565 S
O218 Eu179 2.462 1_655 S
O218 C243 1.252 . S
O219 Eu179 2.373 . S
O219 C235 1.249 1_565 S
O220 Eu168 2.335 . S
O220 C235 1.264 . S
O221 Eu179 2.432 1_655 S
O221 C243 1.268 . S
O222 Eu179 2.291 . S
O222 C242 1.255 1_565 S
O223 Eu168 2.372 . S
O223 C242 1.257 . S
C224 O213 1.249 . S
C224 O214 1.264 1_545 S
C225 C228 1.382 . S
C225 C230 1.390 . S
C225 C232 1.506 . S
C226 C227 1.398 . S
C226 C230 1.392 . S
C227 C226 1.398 . S
C227 C229 1.372 . S
C227 H244 0.931 . S
C228 C225 1.382 . S
C228 C229 1.390 . S
C228 H245 0.931 . S
C229 C227 1.372 . S
C229 C228 1.390 . S
C229 H246 0.929 . S
C230 C225 1.390 . S
C230 C226 1.392 . S
C230 H247 0.930 . S
C231 O216 1.255 . S
C231 O217 1.257 1_545 S
C232 Eu168 2.787 . S
C232 O212 1.252 . S
C232 O215 1.268 . S
C232 C225 1.506 . S
C233 C200 1.439 . S
C233 H210 0.931 . S
C233 C234 1.374 . S
C234 C205 1.387 . S
C234 H211 0.931 . S
C234 C233 1.374 . S
C235 O219 1.249 1_545 S
C235 O220 1.264 . S
C236 C239 1.382 . S
C236 C240 1.390 . S
C236 C243 1.506 . S
C237 C238 1.398 . S
C237 C240 1.392 . S
C238 C237 1.398 . S
C238 C241 1.372 . S
C238 H248 0.931 . S
C239 C236 1.382 . S
C239 C241 1.390 . S
C239 H249 0.931 . S
C240 C236 1.390 . S
C240 C237 1.392 . S
C240 H250 0.930 . S
C241 C238 1.372 . S
C241 C239 1.390 . S
C241 H251 0.929 . S
C242 O222 1.255 1_545 S
C242 O223 1.257 . S
C243 Eu179 2.787 1_655 S
C243 O218 1.252 . S
C243 O221 1.268 . S
C243 C236 1.506 . S
H244 C227 0.931 . S
H245 C228 0.931 . S
H246 C229 0.929 . S
H247 C230 0.930 . S
H248 C238 0.931 . S
H249 C239 0.931 . S
H250 C240 0.930 . S
H251 C241 0.929 . S
C252 C253 1.363 1_456 S
C252 C258 1.379 . S
C252 N260 1.356 1_455 S
C253 C252 1.363 1_654 S
C253 C259 1.363 . S
C254 C255 1.363 . S
C254 C259 1.379 1_455 S
C254 N261 1.356 . S
C255 C254 1.363 . S
C255 C258 1.363 1_554 S
N256 C258 1.356 . S
N256 H268 0.984 . S
N256 H269 0.985 . S
N257 C259 1.356 . S
N257 H262 0.984 . S
N257 H263 0.985 . S
C258 C252 1.379 . S
C258 C255 1.363 1_556 S
C258 N256 1.356 . S
C259 C253 1.363 . S
C259 C254 1.379 1_655 S
C259 N257 1.356 . S
N260 C252 1.356 1_655 S
N260 H266 0.984 1_655 S
N260 H267 0.984 . S
N261 C254 1.356 . S
N261 H264 0.984 . S
N261 H265 0.983 1_455 S
H262 N257 0.984 . S
H263 N257 0.985 . S
H264 N261 0.984 . S
H265 N261 0.983 1_655 S
H266 N260 0.984 1_455 S
H267 N260 0.984 . S
H268 N256 0.984 . S
H269 N256 0.985 . S
C270 C271 1.363 . S
C270 C276 1.379 . S
C270 N278 1.356 . S
C271 C270 1.363 . S
C271 C277 1.363 . S
C272 C273 1.363 . S
C272 C277 1.379 . S
C272 N279 1.356 . S
C273 C272 1.363 . S
C273 C276 1.363 . S
N274 C276 1.356 . S
N274 H286 0.984 . S
N274 H287 0.985 . S
N275 C277 1.356 . S
N275 H280 0.984 . S
N275 H281 0.985 1_545 S
C276 C270 1.379 . S
C276 C273 1.363 . S
C276 N274 1.356 . S
C277 C271 1.363 . S
C277 C272 1.379 . S
C277 N275 1.356 . S
N278 C270 1.356 . S
N278 H284 0.984 . S
N278 H285 0.984 . S
N279 C272 1.356 . S
N279 H282 0.984 . S
N279 H283 0.985 . S
H280 N275 0.984 . S
H281 N275 0.985 1_565 S
H282 N279 0.984 . S
H283 N279 0.985 . S
H284 N278 0.984 . S
H285 N278 0.984 . S
H286 N274 0.984 . S
H287 N274 0.985 . S
C288 C289 1.363 . S
C288 C294 1.379 . S
C288 N296 1.356 . S
C289 C288 1.363 . S
C289 C295 1.363 . S
C290 C291 1.363 . S
C290 C295 1.379 . S
C290 N297 1.356 . S
C291 C290 1.363 . S
C291 C294 1.363 . S
N292 C294 1.356 . S
N292 H304 0.984 . S
N292 H305 0.985 . S
N293 C295 1.356 . S
N293 H298 0.984 . S
N293 H299 0.985 . S
C294 C288 1.379 . S
C294 C291 1.363 . S
C294 N292 1.356 . S
C295 C289 1.363 . S
C295 C290 1.379 . S
C295 N293 1.356 . S
N296 C288 1.356 . S
N296 H302 0.984 . S
N296 H303 0.984 . S
N297 C290 1.356 . S
N297 H300 0.984 . S
N297 H301 0.985 . S
H298 N293 0.984 . S
H299 N293 0.985 . S
H300 N297 0.984 . S
H301 N297 0.985 . S
H302 N296 0.984 . S
H303 N296 0.984 . S
H304 N292 0.984 . S
H305 N292 0.985 . S
C306 C307 1.363 . S
C306 C312 1.379 . S
C306 N314 1.356 . S
C307 C306 1.363 . S
C307 C313 1.363 1_545 S
C308 C309 1.363 1_565 S
C308 C313 1.379 . S
C308 N315 1.356 . S
C309 C308 1.363 1_545 S
C309 C312 1.363 . S
N310 C312 1.356 . S
N310 H322 0.984 . S
N310 H323 0.985 . S
N311 C313 1.356 . S
N311 H316 0.984 . S
N311 H317 0.985 . S
C312 C306 1.379 . S
C312 C309 1.363 . S
C312 N310 1.356 . S
C313 C307 1.363 1_565 S
C313 C308 1.379 . S
C313 N311 1.356 . S
N314 C306 1.356 . S
N314 H320 0.984 . S
N314 H321 0.984 . S
N315 C308 1.356 . S
N315 H318 0.984 . S
N315 H319 0.985 . S
H316 N311 0.984 . S
H317 N311 0.985 . S
H318 N315 0.984 . S
H319 N315 0.985 . S
H320 N314 0.984 . S
H321 N314 0.984 . S
H322 N310 0.984 . S
H323 N310 0.985 . S
C324 C325 1.363 . S
C324 C330 1.379 . S
C324 N332 1.356 . S
C325 C324 1.363 . S
C325 C331 1.363 1_554 S
C326 C327 1.363 1_556 S
C326 C331 1.379 . S
C326 N333 1.356 . S
C327 C326 1.363 1_554 S
C327 C330 1.363 . S
N328 C330 1.356 . S
N328 H340 0.984 . S
N328 H341 0.985 . S
N329 C331 1.356 . S
N329 H334 0.984 . S
N329 H335 0.985 . S
C330 C324 1.379 . S
C330 C327 1.363 . S
C330 N328 1.356 . S
C331 C325 1.363 1_556 S
C331 C326 1.379 . S
C331 N329 1.356 . S
N332 C324 1.356 . S
N332 H338 0.984 . S
N332 H339 0.984 . S
N333 C326 1.356 . S
N333 H336 0.984 . S
N333 H337 0.985 . S
H334 N329 0.984 . S
H335 N329 0.985 . S
H336 N333 0.984 . S
H337 N333 0.985 . S
H338 N332 0.984 . S
H339 N332 0.984 . S
H340 N328 0.984 . S
H341 N328 0.985 . S
C342 C343 1.363 . S
C342 C348 1.379 1_655 S
C342 N350 1.356 . S
C343 C342 1.363 . S
C343 C349 1.363 . S
C344 C345 1.363 . S
C344 C349 1.379 1_455 S
C344 N351 1.356 . S
C345 C344 1.363 . S
C345 C348 1.363 . S
N346 C348 1.356 . S
N346 H358 0.984 . S
N346 H359 0.985 . S
N347 C349 1.356 . S
N347 H352 0.984 . S
N347 H353 0.985 . S
C348 C342 1.379 1_455 S
C348 C345 1.363 . S
C348 N346 1.356 . S
C349 C343 1.363 . S
C349 C344 1.379 1_655 S
C349 N347 1.356 . S
N350 C342 1.356 . S
N350 H356 0.984 . S
N350 H357 0.984 . S
N351 C344 1.356 . S
N351 H354 0.984 . S
N351 H355 0.985 . S
H352 N347 0.984 . S
H353 N347 0.985 . S
H354 N351 0.984 . S
H355 N351 0.985 . S
H356 N350 0.984 . S
H357 N350 0.984 . S
H358 N346 0.984 . S
H359 N346 0.985 . S
C360 C361 1.363 1_455 S
C360 C366 1.379 . S
C360 N368 1.356 . S
C361 C360 1.363 1_655 S
C361 C367 1.363 . S
C362 C363 1.363 . S
C362 C367 1.379 . S
C362 N369 1.356 . S
C363 C362 1.363 . S
C363 C366 1.363 1_655 S
N364 C366 1.356 . S
N364 H376 0.984 1_545 S
N364 H377 0.985 . S
N365 C367 1.356 . S
N365 H370 0.984 . S
N365 H371 0.985 . S
C366 C360 1.379 . S
C366 C363 1.363 1_455 S
C366 N364 1.356 . S
C367 C361 1.363 . S
C367 C362 1.379 . S
C367 N365 1.356 . S
N368 C360 1.356 . S
N368 H374 0.984 1_545 S
N368 H375 0.984 . S
N369 C362 1.356 . S
N369 H372 0.984 . S
N369 H373 0.985 . S
H370 N365 0.984 . S
H371 N365 0.985 . S
H372 N369 0.984 . S
H373 N369 0.985 . S
H374 N368 0.984 1_565 S
H375 N368 0.984 . S
H376 N364 0.984 1_565 S
H377 N364 0.985 . S
C378 C379 1.363 1_655 S
C378 C384 1.384 . S
C378 N386 1.356 . S
C379 C378 1.363 1_455 S
C379 C385 1.363 . S
C380 C381 1.363 . S
C380 C385 1.379 . S
C380 N387 1.356 . S
C381 C380 1.363 . S
C381 C384 1.363 1_455 S
N382 C384 1.350 1_565 S
N382 H394 0.984 . S
N382 H395 0.985 . S
N383 C385 1.356 . S
N383 H388 0.984 . S
N383 H389 0.985 . S
C384 C378 1.384 . S
C384 C381 1.363 1_655 S
C384 N382 1.350 1_545 S
C385 C379 1.363 . S
C385 C380 1.379 . S
C385 N383 1.356 . S
N386 C378 1.356 . S
N386 H392 0.984 1_545 S
N386 H393 0.984 . S
N387 C380 1.356 . S
N387 H390 0.984 . S
N387 H391 0.985 . S
H388 N383 0.984 . S
H389 N383 0.985 . S
H390 N387 0.984 . S
H391 N387 0.985 . S
H392 N386 0.984 1_565 S
H393 N386 0.984 . S
H394 N382 0.984 . S
H395 N382 0.985 . S
C396 C397 1.363 . S
C396 C402 1.379 . S
C396 N404 1.356 . S
C397 C396 1.363 . S
C397 C403 1.361 1_445 S
C398 C399 1.363 1_665 S
C398 C403 1.380 . S
C398 N405 1.356 . S
C399 C398 1.363 1_445 S
C399 C402 1.363 . S
N400 C402 1.356 . S
N400 H412 0.984 . S
N400 H413 0.985 . S
N401 C403 1.357 . S
N401 H406 0.984 . S
N401 H407 0.985 . S
C402 C396 1.379 . S
C402 C399 1.363 . S
C402 N400 1.356 . S
C403 C397 1.361 1_665 S
C403 C398 1.380 . S
C403 N401 1.357 . S
N404 C396 1.356 . S
N404 H410 0.984 . S
N404 H411 0.984 . S
N405 C398 1.356 . S
N405 H408 0.984 . S
N405 H409 0.985 . S
H406 N401 0.984 . S
H407 N401 0.985 . S
H408 N405 0.984 . S
H409 N405 0.985 . S
H410 N404 0.984 . S
H411 N404 0.984 . S
H412 N400 0.984 . S
H413 N400 0.985 . S
C253 C56 4.384 . S
C255 C67 4.384 . S
C271 C151 2.696 . S
C273 C140 2.696 . S
C289 C237 0.680 . S
C291 C226 0.680 . S
C307 C224 2.636 . S
C309 C235 2.636 . S
C325 C58 1.021 . S
C327 C69 1.021 . S
C343 C153 0.804 . S
C345 C142 0.804 . S
C361 C158 1.522 1_655 S
C363 C63 1.530 . S
C379 C147 1.626 . S
C381 C231 1.589 . S
C397 C242 1.577 . S
C399 C74 1.589 . S
