# Generated by pormake.
# Topology wiu, (6)-cn, num edge types: 1
# Building blocks:
#     Node 0, Type 0, BuildingBlock: VOLQOD_clean_sbu_1, # of connection points: 6
#     Node 1, Type 0, BuildingBlock: VOLQOD_clean_sbu_1, # of connection points: 6
#     Node 2, Type 0, BuildingBlock: VOLQOD_clean_sbu_1, # of connection points: 6
#     Node 3, Type 0, BuildingBlock: VOLQOD_clean_sbu_1, # of connection points: 6
#     Node 4, Type 0, BuildingBlock: VOLQOD_clean_sbu_1, # of connection points: 6
#     Node 5, Type 0, BuildingBlock: VOLQOD_clean_sbu_1, # of connection points: 6
#     Node 6, Type 0, BuildingBlock: VOLQOD_clean_sbu_1, # of connection points: 6
#     Node 7, Type 0, BuildingBlock: VOLQOD_clean_sbu_1, # of connection points: 6
#     Node 8, Type 0, BuildingBlock: VOLQOD_clean_sbu_1, # of connection points: 6
#     Node 9, Type 0, BuildingBlock: VOLQOD_clean_sbu_1, # of connection points: 6
#     Node 10, Type 0, BuildingBlock: VOLQOD_clean_sbu_1, # of connection points: 6
#     Node 11, Type 0, BuildingBlock: VOLQOD_clean_sbu_1, # of connection points: 6
#     Node 12, Type 0, BuildingBlock: VOLQOD_clean_sbu_1, # of connection points: 6
#     Node 13, Type 0, BuildingBlock: VOLQOD_clean_sbu_1, # of connection points: 6
#     Node 14, Type 0, BuildingBlock: VOLQOD_clean_sbu_1, # of connection points: 6
#     Node 15, Type 0, BuildingBlock: VOLQOD_clean_sbu_1, # of connection points: 6
#     Edge 16, Type (0, 0), None
#     Edge 17, Type (0, 0), None
#     Edge 18, Type (0, 0), None
#     Edge 19, Type (0, 0), None
#     Edge 20, Type (0, 0), None
#     Edge 21, Type (0, 0), None
#     Edge 22, Type (0, 0), None
#     Edge 23, Type (0, 0), None
#     Edge 24, Type (0, 0), None
#     Edge 25, Type (0, 0), None
#     Edge 26, Type (0, 0), None
#     Edge 27, Type (0, 0), None
#     Edge 28, Type (0, 0), None
#     Edge 29, Type (0, 0), None
#     Edge 30, Type (0, 0), None
#     Edge 31, Type (0, 0), None
#     Edge 32, Type (0, 0), None
#     Edge 33, Type (0, 0), None
#     Edge 34, Type (0, 0), None
#     Edge 35, Type (0, 0), None
#     Edge 36, Type (0, 0), None
#     Edge 37, Type (0, 0), None
#     Edge 38, Type (0, 0), None
#     Edge 39, Type (0, 0), None
#     Edge 40, Type (0, 0), None
#     Edge 41, Type (0, 0), None
#     Edge 42, Type (0, 0), None
#     Edge 43, Type (0, 0), None
#     Edge 44, Type (0, 0), None
#     Edge 45, Type (0, 0), None
#     Edge 46, Type (0, 0), None
#     Edge 47, Type (0, 0), None
#     Edge 48, Type (0, 0), None
#     Edge 49, Type (0, 0), None
#     Edge 50, Type (0, 0), None
#     Edge 51, Type (0, 0), None
#     Edge 52, Type (0, 0), None
#     Edge 53, Type (0, 0), None
#     Edge 54, Type (0, 0), None
#     Edge 55, Type (0, 0), None
#     Edge 56, Type (0, 0), None
#     Edge 57, Type (0, 0), None
#     Edge 58, Type (0, 0), None
#     Edge 59, Type (0, 0), None
#     Edge 60, Type (0, 0), None
#     Edge 61, Type (0, 0), None
#     Edge 62, Type (0, 0), None
#     Edge 63, Type (0, 0), None
# Relax obj value: 0.182
# Max RMSD: 0.175
# Mean RMSD: 0.175
data_MOF--net-wiu--node1-VOLQOD_clean_sbu_1--edge1-none
_symmetry_space_group_name_H-M    P1
_symmetry_Int_Tables_number       1
_symmetry_cell_setting            triclinic
loop_
_symmetry_equiv_pos_as_xyz
'x, y, z'
_cell_length_a     17.126983
_cell_length_b     17.126998
_cell_length_c     29.398326
_cell_angle_alpha  90.0
_cell_angle_beta   90.0
_cell_angle_gamma 89.999838
loop_
_atom_site_label
_atom_site_type_symbol
_atom_site_fract_x
_atom_site_fract_y
_atom_site_fract_z
_atom_type_partial_charge
O0 O 0.42034 0.25918 0.00112 0.0
Zn1 Zn 0.31131 0.241 0.02346 0.0
O2 O 0.3214 0.14493 0.06025 0.0
Zn3 Zn 0.2957 0.05081 0.03224 0.0
Zn4 Zn 0.42696 0.13855 0.07629 0.0
Zn5 Zn 0.26893 0.16661 0.11519 0.0
O6 O 0.21054 0.99903 0.0754 0.0
O7 O 0.17277 0.10471 0.11517 0.0
O8 O 0.23936 0.2186 0.9715 0.0
O9 O 0.23391 0.08878 0.97998 0.0
O10 O 0.40068 0.99755 0.004 0.0
O11 O 0.49234 0.08066 0.02686 0.0
O12 O 0.44241 0.09007 0.13804 0.0
O13 O 0.27527 0.335 0.06244 0.0
O14 O 0.32557 0.12057 0.16504 0.0
O15 O 0.25197 0.28044 0.12941 0.0
C16 C 0.46192 0.26159 0.03672 0.0
C17 C 0.16313 0.03405 0.10299 0.0
C18 C 0.47221 0.02224 0.0024 0.0
C19 C 0.21432 0.15159 0.95966 0.0
C20 C 0.39202 0.08958 0.16976 0.0
C21 C 0.25808 0.34093 0.10466 0.0
O22 O 0.43016 0.25239 0.07493 0.0
O23 O 0.4962 0.67035 0.25111 0.0
Zn24 Zn 0.51437 0.56131 0.27345 0.0
O25 O 0.61044 0.57138 0.31023 0.0
Zn26 Zn 0.70456 0.54568 0.28222 0.0
Zn27 Zn 0.61682 0.67694 0.32628 0.0
Zn28 Zn 0.58876 0.51891 0.36518 0.0
O29 O 0.75634 0.46052 0.32539 0.0
O30 O 0.65066 0.42275 0.36515 0.0
O31 O 0.53678 0.48936 0.22148 0.0
O32 O 0.6666 0.48389 0.22997 0.0
O33 O 0.75783 0.65067 0.25399 0.0
O34 O 0.67471 0.74233 0.27684 0.0
O35 O 0.66531 0.69238 0.38802 0.0
O36 O 0.42038 0.52527 0.31242 0.0
O37 O 0.6348 0.57555 0.41502 0.0
O38 O 0.47493 0.50196 0.3794 0.0
C39 C 0.49379 0.71192 0.28672 0.0
C40 C 0.72132 0.41311 0.35298 0.0
C41 C 0.73314 0.7222 0.25239 0.0
C42 C 0.60378 0.46431 0.20965 0.0
C43 C 0.6658 0.64199 0.41974 0.0
C44 C 0.41444 0.50807 0.35464 0.0
O45 O 0.50298 0.68014 0.32493 0.0
O46 O 0.08503 0.74619 0.50112 0.0
Zn47 Zn 0.19407 0.76437 0.52346 0.0
O48 O 0.18398 0.86044 0.56025 0.0
Zn49 Zn 0.20968 0.95456 0.53224 0.0
Zn50 Zn 0.07841 0.86682 0.57629 0.0
Zn51 Zn 0.23644 0.83876 0.61519 0.0
O52 O 0.29484 0.00634 0.5754 0.0
O53 O 0.3326 0.90067 0.61517 0.0
O54 O 0.26602 0.78677 0.4715 0.0
O55 O 0.27147 0.9166 0.47998 0.0
O56 O 0.10469 0.00783 0.504 0.0
O57 O 0.01303 0.92471 0.52686 0.0
O58 O 0.06297 0.9153 0.63804 0.0
O59 O 0.2301 0.67038 0.56244 0.0
O60 O 0.1798 0.8848 0.66504 0.0
O61 O 0.2534 0.72494 0.62941 0.0
C62 C 0.04345 0.74378 0.53672 0.0
C63 C 0.34225 0.97132 0.60299 0.0
C64 C 0.03316 0.98313 0.5024 0.0
C65 C 0.29106 0.85378 0.45966 0.0
C66 C 0.11335 0.91579 0.66976 0.0
C67 C 0.24729 0.66445 0.60466 0.0
O68 O 0.07521 0.75298 0.57493 0.0
O69 O 0.00917 0.33502 0.75111 0.0
Zn70 Zn 0.991 0.44406 0.77345 0.0
O71 O 0.89493 0.43399 0.81023 0.0
Zn72 Zn 0.80081 0.45969 0.78222 0.0
Zn73 Zn 0.88855 0.32843 0.82628 0.0
Zn74 Zn 0.91662 0.48646 0.86518 0.0
O75 O 0.74903 0.54485 0.82539 0.0
O76 O 0.85471 0.58262 0.86515 0.0
O77 O 0.96859 0.51601 0.72148 0.0
O78 O 0.83877 0.52148 0.72997 0.0
O79 O 0.74754 0.3547 0.75399 0.0
O80 O 0.83066 0.26304 0.77684 0.0
O81 O 0.84006 0.31299 0.88802 0.0
O82 O 0.085 0.4801 0.81242 0.0
O83 O 0.87057 0.42983 0.91502 0.0
O84 O 0.03044 0.50341 0.8794 0.0
C85 C 0.01159 0.29345 0.78672 0.0
C86 C 0.78405 0.59226 0.85298 0.0
C87 C 0.77224 0.28317 0.75239 0.0
C88 C 0.90159 0.54106 0.70965 0.0
C89 C 0.83957 0.36338 0.91974 0.0
C90 C 0.09093 0.4973 0.85464 0.0
O91 O 1.00239 0.32523 0.82493 0.0
O92 O 0.58503 0.74618 0.97316 0.0
Zn93 Zn 0.69407 0.76436 0.95081 0.0
O94 O 0.68398 0.86043 0.91402 0.0
Zn95 Zn 0.70969 0.95455 0.94204 0.0
Zn96 Zn 0.57842 0.86681 0.89798 0.0
Zn97 Zn 0.73645 0.83875 0.85908 0.0
O98 O 0.79485 0.00632 0.89887 0.0
O99 O 0.83262 0.90065 0.85911 0.0
O100 O 0.76603 0.78675 0.00278 0.0
O101 O 0.77148 0.91657 -0.00571 0.0
O102 O 0.6047 0.00781 0.97028 0.0
O103 O 0.51304 0.92471 0.94742 0.0
O104 O 0.56297 0.91529 0.83623 0.0
O105 O 0.73009 0.67036 0.91183 0.0
O106 O 0.67981 0.88481 0.80924 0.0
O107 O 0.75339 0.72493 0.84485 0.0
C108 C 0.54345 0.74378 0.93756 0.0
C109 C 0.84226 0.97131 0.87128 0.0
C110 C 0.53317 0.98312 0.97188 0.0
C111 C 0.79107 0.85376 0.01461 0.0
C112 C 0.61336 0.9158 0.80451 0.0
C113 C 0.74725 0.66445 0.8696 0.0
O114 O 0.57521 0.75297 0.89934 0.0
O115 O 0.50918 0.33502 0.72317 0.0
Zn116 Zn 0.491 0.44406 0.70083 0.0
O117 O 0.39494 0.43398 0.66404 0.0
Zn118 Zn 0.30081 0.45969 0.69205 0.0
Zn119 Zn 0.38856 0.32842 0.648 0.0
Zn120 Zn 0.41663 0.48644 0.60909 0.0
O121 O 0.24905 0.54485 0.64887 0.0
O122 O 0.35473 0.5826 0.60911 0.0
O123 O 0.46859 0.51601 0.7528 0.0
O124 O 0.33877 0.52147 0.7443 0.0
O125 O 0.24754 0.3547 0.72028 0.0
O126 O 0.33066 0.26304 0.69743 0.0
O127 O 0.34007 0.31297 0.58625 0.0
O128 O 0.585 0.4801 0.66186 0.0
O129 O 0.37058 0.4298 0.55925 0.0
O130 O 0.53046 0.50339 0.59488 0.0
C131 C 0.51159 0.29345 0.68756 0.0
C132 C 0.28407 0.59225 0.62128 0.0
C133 C 0.27224 0.28317 0.72189 0.0
C134 C 0.40159 0.54106 0.76462 0.0
C135 C 0.33959 0.36336 0.55453 0.0
C136 C 0.59094 0.49728 0.61964 0.0
O137 O 0.5024 0.32523 0.64935 0.0
O138 O 0.92034 0.25919 0.47316 0.0
Zn139 Zn 0.8113 0.24102 0.45081 0.0
O140 O 0.82139 0.14494 0.41402 0.0
Zn141 Zn 0.79569 0.05083 0.44204 0.0
Zn142 Zn 0.92695 0.13856 0.39798 0.0
Zn143 Zn 0.76892 0.16662 0.35908 0.0
O144 O 0.71053 0.99905 0.39887 0.0
O145 O 0.67276 0.10472 0.35911 0.0
O146 O 0.73935 0.21862 0.50278 0.0
O147 O 0.7339 0.0888 0.49429 0.0
O148 O 0.90067 0.99756 0.47028 0.0
O149 O 0.99233 0.08067 0.44742 0.0
O150 O 0.9424 0.09008 0.33623 0.0
O151 O 0.77528 0.33501 0.41183 0.0
O152 O 0.82556 0.12056 0.30924 0.0
O153 O 0.75198 0.28044 0.34485 0.0
C154 C 0.96192 0.26159 0.43756 0.0
C155 C 0.66311 0.03406 0.37128 0.0
C156 C 0.9722 0.02225 0.47188 0.0
C157 C 0.71431 0.15161 0.51461 0.0
C158 C 0.89201 0.08958 0.30451 0.0
C159 C 0.75812 0.34092 0.3696 0.0
O160 O 0.93016 0.2524 0.39934 0.0
O161 O 0.99619 0.67035 0.22317 0.0
Zn162 Zn 0.01437 0.56131 0.20083 0.0
O163 O 0.11044 0.57139 0.16404 0.0
Zn164 Zn 0.20456 0.54568 0.19205 0.0
Zn165 Zn 0.11682 0.67695 0.148 0.0
Zn166 Zn 0.08874 0.51893 0.10909 0.0
O167 O 0.25632 0.46052 0.14887 0.0
O168 O 0.15064 0.42277 0.10911 0.0
O169 O 0.03678 0.48936 0.2528 0.0
O170 O 0.1666 0.4839 0.2443 0.0
O171 O 0.25783 0.65067 0.22028 0.0
O172 O 0.17471 0.74233 0.19743 0.0
O173 O 0.1653 0.6924 0.08625 0.0
O174 O 0.92037 0.52527 0.16186 0.0
O175 O 0.13479 0.57557 0.05925 0.0
O176 O 0.97492 0.50199 0.09488 0.0
C177 C 0.99378 0.71192 0.18756 0.0
C178 C 0.2213 0.41312 0.12128 0.0
C179 C 0.23314 0.7222 0.22189 0.0
C180 C 0.10379 0.46432 0.26462 0.0
C181 C 0.16579 0.64202 0.05453 0.0
C182 C 0.91443 0.50809 0.11964 0.0
O183 O 0.00297 0.68015 0.14935 0.0
O184 O 0.92034 0.75917 0.50111 0.0
Zn185 Zn 0.8113 0.74098 0.52345 0.0
O186 O 0.82139 0.64493 0.56024 0.0
Zn187 Zn 0.79569 0.5508 0.53224 0.0
Zn188 Zn 0.92696 0.63856 0.57628 0.0
Zn189 Zn 0.76895 0.66664 0.61519 0.0
O190 O 0.71053 0.49904 0.57542 0.0
O191 O 0.67279 0.60472 0.61519 0.0
O192 O 0.73937 0.71856 0.47148 0.0
O193 O 0.7339 0.58874 0.47998 0.0
O194 O 0.90069 0.49753 0.50401 0.0
O195 O 0.99234 0.58068 0.52684 0.0
O196 O 0.94241 0.59006 0.63802 0.0
O197 O 0.77525 0.83499 0.56241 0.0
O198 O 0.8256 0.62062 0.66504 0.0
O199 O 0.75198 0.78046 0.6294 0.0
C200 C 0.96189 0.76164 0.53672 0.0
C201 C 0.66314 0.53406 0.60302 0.0
C202 C 0.97221 0.52224 0.5024 0.0
C203 C 0.71432 0.65155 0.45966 0.0
C204 C 0.89205 0.58962 0.66975 0.0
C205 C 0.75808 0.84094 0.60463 0.0
O206 O 0.93016 0.75241 0.57494 0.0
O207 O 0.99619 0.17033 0.75112 0.0
Zn208 Zn 0.01437 0.0613 0.77347 0.0
O209 O 0.11043 0.07139 0.81026 0.0
Zn210 Zn 0.20456 0.04569 0.78225 0.0
Zn211 Zn 0.1168 0.17696 0.82629 0.0
Zn212 Zn 0.08875 0.01894 0.86521 0.0
O213 O 0.25633 0.96054 0.82542 0.0
O214 O 0.15066 0.92278 0.86519 0.0
O215 O 0.03678 0.98935 0.7215 0.0
O216 O 0.1666 0.9839 0.72999 0.0
O217 O 0.25782 0.15069 0.75401 0.0
O218 O 0.17469 0.24234 0.77686 0.0
O219 O 0.1653 0.19241 0.88804 0.0
O220 O 0.92037 0.02527 0.81244 0.0
O221 O 0.13478 0.07559 0.91505 0.0
O222 O 0.97493 1.00198 0.87943 0.0
C223 C 0.99373 0.21189 0.78673 0.0
C224 C 0.22131 0.91313 0.85301 0.0
C225 C 0.23312 0.22221 0.75241 0.0
C226 C 0.10379 0.96431 0.70967 0.0
C227 C 0.16576 0.14204 0.91977 0.0
C228 C 0.91445 0.00811 0.85466 0.0
O229 O 0.00296 0.18017 0.82495 0.0
O230 O 0.58503 0.2462 0.00111 0.0
Zn231 Zn 0.69407 0.26439 0.02345 0.0
O232 O 0.68398 0.36044 0.06024 0.0
Zn233 Zn 0.70968 0.45457 0.03224 0.0
Zn234 Zn 0.57842 0.36681 0.07628 0.0
Zn235 Zn 0.73643 0.33873 0.11519 0.0
O236 O 0.79484 0.50633 0.07542 0.0
O237 O 0.83258 0.40065 0.11519 0.0
O238 O 0.76601 0.28681 0.97148 0.0
O239 O 0.77147 0.41663 0.97998 0.0
O240 O 0.60468 0.50784 0.00401 0.0
O241 O 0.51303 0.42469 0.02684 0.0
O242 O 0.56296 0.41531 0.13802 0.0
O243 O 0.73012 0.17038 0.06241 0.0
O244 O 0.67977 0.38475 0.16504 0.0
O245 O 0.75339 0.22491 0.1294 0.0
C246 C 0.54348 0.24374 0.03672 0.0
C247 C 0.84223 0.47131 0.10302 0.0
C248 C 0.53316 0.48313 0.0024 0.0
C249 C 0.79106 0.35382 0.95966 0.0
C250 C 0.61333 0.41576 0.16975 0.0
C251 C 0.7473 0.16443 0.10463 0.0
O252 O 0.57521 0.25296 0.07494 0.0
O253 O 0.50918 0.83504 0.25112 0.0
Zn254 Zn 0.491 0.94407 0.27347 0.0
O255 O 0.39494 0.93398 0.31026 0.0
Zn256 Zn 0.30082 0.95968 0.28225 0.0
Zn257 Zn 0.38857 0.82841 0.32629 0.0
Zn258 Zn 0.41663 0.98644 0.36521 0.0
O259 O 0.24904 0.04484 0.32542 0.0
O260 O 0.35471 0.08259 0.36519 0.0
O261 O 0.46859 0.01602 0.2215 0.0
O262 O 0.33877 0.02147 0.22999 0.0
O263 O 0.24755 0.85469 0.25401 0.0
O264 O 0.33069 0.76303 0.27686 0.0
O265 O 0.34007 0.81296 0.38804 0.0
O266 O 0.585 0.9801 0.31244 0.0
O267 O 0.3706 0.92978 0.41505 0.0
O268 O 0.53045 0.00339 0.37943 0.0
C269 C 0.51164 0.79348 0.28673 0.0
C270 C 0.28406 0.09224 0.35301 0.0
C271 C 0.27226 0.78316 0.25241 0.0
C272 C 0.40158 0.04106 0.20967 0.0
C273 C 0.33961 0.86333 0.41977 0.0
C274 C 0.59093 0.99726 0.35466 0.0
O275 O 0.50242 0.8252 0.32495 0.0
O276 O 0.08504 0.2462 0.47316 0.0
Zn277 Zn 0.19407 0.26437 0.45082 0.0
O278 O 0.18399 0.36043 0.41403 0.0
Zn279 Zn 0.20969 0.45456 0.44203 0.0
Zn280 Zn 0.07842 0.3668 0.398 0.0
Zn281 Zn 0.23643 0.33873 0.35908 0.0
O282 O 0.29485 0.50632 0.39886 0.0
O283 O 0.3326 0.40063 0.35909 0.0
O284 O 0.26601 0.28679 0.5028 0.0
O285 O 0.27148 0.41661 0.4943 0.0
O286 O 0.1047 0.50782 0.47027 0.0
O287 O 0.01304 0.42468 0.44743 0.0
O288 O 0.06297 0.41531 0.33625 0.0
O289 O 0.23011 0.17036 0.41186 0.0
O290 O 0.17979 0.38476 0.30924 0.0
O291 O 0.25338 0.22491 0.34487 0.0
C292 C 0.04348 0.24373 0.43755 0.0
C293 C 0.34225 0.47129 0.37126 0.0
C294 C 0.03317 0.48312 0.47188 0.0
C295 C 0.29107 0.3538 0.51462 0.0
C296 C 0.11334 0.41576 0.30452 0.0
C297 C 0.24726 0.16443 0.36963 0.0
O298 O 0.07521 0.25295 0.39933 0.0
O299 O 0.00918 0.83504 0.22316 0.0
Zn300 Zn 0.991 0.94407 0.20081 0.0
O301 O 0.89495 0.93397 0.16401 0.0
Zn302 Zn 0.80082 0.95967 0.19202 0.0
Zn303 Zn 0.88858 0.8284 0.14798 0.0
Zn304 Zn 0.91664 0.98642 0.10906 0.0
O305 O 0.74906 0.04484 0.14885 0.0
O306 O 0.85473 0.08257 0.10907 0.0
O307 O 0.96859 0.01602 0.25278 0.0
O308 O 0.83877 0.02146 0.24428 0.0
O309 O 0.74755 0.85468 0.22026 0.0
O310 O 0.83069 0.76303 0.19742 0.0
O311 O 0.84008 0.81294 0.08624 0.0
O312 O 0.08501 0.9801 0.16184 0.0
O313 O 0.87061 0.92976 0.05922 0.0
O314 O 0.03046 0.00336 0.09485 0.0
C315 C 0.01165 0.79348 0.18755 0.0
C316 C 0.78408 0.09223 0.12125 0.0
C317 C 0.77226 0.78315 0.22187 0.0
C318 C 0.90158 0.04106 0.2646 0.0
C319 C 0.83962 0.86331 0.05451 0.0
C320 C 0.09094 0.99725 0.11961 0.0
O321 O 1.00242 0.8252 0.14933 0.0
O322 O 0.42034 0.75917 0.97316 0.0
Zn323 Zn 0.3113 0.741 0.95082 0.0
O324 O 0.32139 0.64495 0.91403 0.0
Zn325 Zn 0.29568 0.55082 0.94203 0.0
Zn326 Zn 0.42695 0.63857 0.898 0.0
Zn327 Zn 0.26894 0.66664 0.85908 0.0
O328 O 0.21052 0.49906 0.89886 0.0
O329 O 0.17277 0.60474 0.85909 0.0
O330 O 0.23936 0.71858 0.0028 0.0
O331 O 0.23389 0.58876 -0.00571 0.0
O332 O 0.40068 0.49755 0.97027 0.0
O333 O 0.49233 0.58069 0.94743 0.0
O334 O 0.44241 0.59007 0.83625 0.0
O335 O 0.27527 0.83501 0.91186 0.0
O336 O 0.32559 0.62061 0.80924 0.0
O337 O 0.25199 0.78047 0.84487 0.0
C338 C 0.46189 0.76164 0.93755 0.0
C339 C 0.16313 0.53408 0.87126 0.0
C340 C 0.4722 0.52225 0.97188 0.0
C341 C 0.21431 0.65158 0.01462 0.0
C342 C 0.39204 0.58961 0.80452 0.0
C343 C 0.25812 0.84094 0.86963 0.0
O344 O 0.43016 0.75242 0.89933 0.0
O345 O 0.49619 0.17033 0.72316 0.0
Zn346 Zn 0.51437 0.0613 0.70081 0.0
O347 O 0.61042 0.0714 0.66401 0.0
Zn348 Zn 0.70455 0.0457 0.69202 0.0
Zn349 Zn 0.6168 0.17697 0.64798 0.0
Zn350 Zn 0.58873 0.01896 0.60906 0.0
O351 O 0.75631 0.96053 0.64885 0.0
O352 O 0.65064 0.9228 0.60907 0.0
O353 O 0.53679 0.98935 0.75278 0.0
O354 O 0.66661 0.98391 0.74428 0.0
O355 O 0.75782 0.15069 0.72026 0.0
O356 O 0.67468 0.24234 0.69742 0.0
O357 O 0.66529 0.19243 0.58624 0.0
O358 O 0.42036 0.02527 0.66184 0.0
O359 O 0.63476 0.07561 0.55922 0.0
O360 O 0.47491 1.00201 0.59485 0.0
C361 C 0.49373 0.21189 0.68755 0.0
C362 C 0.7213 0.91314 0.62125 0.0
C363 C 0.73312 0.22222 0.72187 0.0
C364 C 0.6038 0.96431 0.7646 0.0
C365 C 0.66575 0.14206 0.55451 0.0
C366 C 0.41443 0.00812 0.61961 0.0
O367 O 0.50295 0.18017 0.64933 0.0
loop_
_geom_bond_atom_site_label_1
_geom_bond_atom_site_label_2
_geom_bond_distance
_geom_bond_site_symmetry_2
_ccdc_geom_bond_type
O0 Zn1 1.953 . S
O0 C16 1.225 . S
Zn1 O0 1.953 . S
Zn1 O2 1.949 . S
Zn1 O8 1.919 1_554 S
Zn1 O13 1.924 . S
O2 Zn1 1.949 . S
O2 Zn3 1.923 . S
O2 Zn4 1.950 . S
O2 Zn5 1.945 . S
Zn3 O2 1.923 . S
Zn3 O6 1.933 1_545 S
Zn3 O9 1.941 1_554 S
Zn3 O10 1.965 1_545 S
Zn4 O2 1.950 . S
Zn4 O11 1.938 . S
Zn4 O12 1.906 . S
Zn4 O22 1.953 . S
Zn5 O2 1.945 . S
Zn5 O7 1.932 . S
Zn5 O14 1.977 . S
Zn5 O15 1.910 . S
O6 Zn3 1.933 1_565 S
O6 C17 1.226 1_565 S
O7 Zn5 1.932 . S
O7 C17 1.307 . S
O8 Zn1 1.919 1_556 S
O8 C19 1.253 . S
O9 Zn3 1.941 1_556 S
O9 C19 1.283 . S
O10 Zn3 1.965 1_565 S
O10 C18 1.303 . S
O11 Zn4 1.938 . S
O11 C18 1.247 1_545 S
O12 Zn4 1.906 . S
O12 C20 1.304 . S
O13 Zn1 1.924 . S
O13 C21 1.311 . S
O14 Zn5 1.977 . S
O14 C20 1.272 . S
O15 Zn5 1.910 . S
O15 C21 1.231 . S
C16 O0 1.225 . S
C16 O22 1.298 . S
C17 O6 1.226 1_545 S
C17 O7 1.307 . S
C18 O10 1.303 . S
C18 O11 1.247 1_565 S
C19 O8 1.253 . S
C19 O9 1.283 . S
C20 O12 1.304 . S
C20 O14 1.272 . S
C21 O13 1.311 . S
C21 O15 1.231 . S
O22 Zn4 1.953 . S
O22 C16 1.298 . S
O23 Zn24 1.953 . S
O23 C39 1.225 . S
Zn24 O23 1.953 . S
Zn24 O25 1.949 . S
Zn24 O31 1.919 . S
Zn24 O36 1.924 . S
O25 Zn24 1.949 . S
O25 Zn26 1.923 . S
O25 Zn27 1.950 . S
O25 Zn28 1.945 . S
Zn26 O25 1.923 . S
Zn26 O29 1.933 . S
Zn26 O32 1.941 . S
Zn26 O33 1.965 . S
Zn27 O25 1.950 . S
Zn27 O34 1.938 . S
Zn27 O35 1.906 . S
Zn27 O45 1.953 . S
Zn28 O25 1.945 . S
Zn28 O30 1.932 . S
Zn28 O37 1.977 . S
Zn28 O38 1.910 . S
O29 Zn26 1.933 . S
O29 C40 1.226 . S
O30 Zn28 1.932 . S
O30 C40 1.307 . S
O31 Zn24 1.919 . S
O31 C42 1.253 . S
O32 Zn26 1.941 . S
O32 C42 1.283 . S
O33 Zn26 1.965 . S
O33 C41 1.303 . S
O34 Zn27 1.938 . S
O34 C41 1.247 . S
O35 Zn27 1.906 . S
O35 C43 1.304 . S
O36 Zn24 1.924 . S
O36 C44 1.311 . S
O37 Zn28 1.977 . S
O37 C43 1.272 . S
O38 Zn28 1.910 . S
O38 C44 1.231 . S
C39 O23 1.225 . S
C39 O45 1.298 . S
C40 O29 1.226 . S
C40 O30 1.307 . S
C41 O33 1.303 . S
C41 O34 1.247 . S
C42 O31 1.253 . S
C42 O32 1.283 . S
C43 O35 1.304 . S
C43 O37 1.272 . S
C44 O36 1.311 . S
C44 O38 1.231 . S
O45 Zn27 1.953 . S
O45 C39 1.298 . S
O46 Zn47 1.953 . S
O46 C62 1.225 . S
Zn47 O46 1.953 . S
Zn47 O48 1.949 . S
Zn47 O54 1.919 . S
Zn47 O59 1.924 . S
O48 Zn47 1.949 . S
O48 Zn49 1.923 . S
O48 Zn50 1.950 . S
O48 Zn51 1.945 . S
Zn49 O48 1.923 . S
Zn49 O52 1.933 1_565 S
Zn49 O55 1.941 . S
Zn49 O56 1.965 1_565 S
Zn50 O48 1.950 . S
Zn50 O57 1.938 . S
Zn50 O58 1.906 . S
Zn50 O68 1.953 . S
Zn51 O48 1.945 . S
Zn51 O53 1.932 . S
Zn51 O60 1.977 . S
Zn51 O61 1.910 . S
O52 Zn49 1.933 1_545 S
O52 C63 1.226 1_545 S
O53 Zn51 1.932 . S
O53 C63 1.307 . S
O54 Zn47 1.919 . S
O54 C65 1.253 . S
O55 Zn49 1.941 . S
O55 C65 1.283 . S
O56 Zn49 1.965 1_545 S
O56 C64 1.303 . S
O57 Zn50 1.938 . S
O57 C64 1.247 1_565 S
O58 Zn50 1.906 . S
O58 C66 1.304 . S
O59 Zn47 1.924 . S
O59 C67 1.311 . S
O60 Zn51 1.977 . S
O60 C66 1.272 . S
O61 Zn51 1.910 . S
O61 C67 1.231 . S
C62 O46 1.225 . S
C62 O68 1.298 . S
C63 O52 1.226 1_565 S
C63 O53 1.307 . S
C64 O56 1.303 . S
C64 O57 1.247 1_545 S
C65 O54 1.253 . S
C65 O55 1.283 . S
C66 O58 1.304 . S
C66 O60 1.272 . S
C67 O59 1.311 . S
C67 O61 1.231 . S
O68 Zn50 1.953 . S
O68 C62 1.298 . S
O69 Zn70 1.953 1_455 S
O69 C85 1.225 1_455 S
Zn70 O69 1.953 1_655 S
Zn70 O71 1.949 . S
Zn70 O77 1.919 . S
Zn70 O82 1.924 1_655 S
O71 Zn70 1.949 . S
O71 Zn72 1.923 . S
O71 Zn73 1.950 . S
O71 Zn74 1.945 . S
Zn72 O71 1.923 . S
Zn72 O75 1.933 . S
Zn72 O78 1.941 . S
Zn72 O79 1.965 . S
Zn73 O71 1.950 . S
Zn73 O80 1.938 . S
Zn73 O81 1.906 . S
Zn73 O91 1.953 . S
Zn74 O71 1.945 . S
Zn74 O76 1.932 . S
Zn74 O83 1.977 . S
Zn74 O84 1.910 . S
O75 Zn72 1.933 . S
O75 C86 1.226 . S
O76 Zn74 1.932 . S
O76 C86 1.307 . S
O77 Zn70 1.919 . S
O77 C88 1.253 . S
O78 Zn72 1.941 . S
O78 C88 1.283 . S
O79 Zn72 1.965 . S
O79 C87 1.303 . S
O80 Zn73 1.938 . S
O80 C87 1.247 . S
O81 Zn73 1.906 . S
O81 C89 1.304 . S
O82 Zn70 1.924 1_455 S
O82 C90 1.311 . S
O83 Zn74 1.977 . S
O83 C89 1.272 . S
O84 Zn74 1.910 . S
O84 C90 1.231 1_655 S
C85 O69 1.225 1_655 S
C85 O91 1.299 . S
C86 O75 1.226 . S
C86 O76 1.307 . S
C87 O79 1.303 . S
C87 O80 1.247 . S
C88 O77 1.253 . S
C88 O78 1.283 . S
C89 O81 1.304 . S
C89 O83 1.272 . S
C90 O82 1.311 . S
C90 O84 1.231 1_455 S
O91 Zn73 1.953 . S
O91 C85 1.299 . S
O92 Zn93 1.953 . S
O92 C108 1.225 . S
Zn93 O92 1.953 . S
Zn93 O94 1.949 . S
Zn93 O100 1.919 1_556 S
Zn93 O105 1.924 . S
O94 Zn93 1.949 . S
O94 Zn95 1.923 . S
O94 Zn96 1.950 . S
O94 Zn97 1.945 . S
Zn95 O94 1.923 . S
Zn95 O98 1.933 1_565 S
Zn95 O101 1.941 1_556 S
Zn95 O102 1.965 1_565 S
Zn96 O94 1.950 . S
Zn96 O103 1.938 . S
Zn96 O104 1.906 . S
Zn96 O114 1.953 . S
Zn97 O94 1.945 . S
Zn97 O99 1.932 . S
Zn97 O106 1.977 . S
Zn97 O107 1.910 . S
O98 Zn95 1.933 1_545 S
O98 C109 1.226 1_545 S
O99 Zn97 1.932 . S
O99 C109 1.307 . S
O100 Zn93 1.919 1_554 S
O100 C111 1.253 . S
O101 Zn95 1.941 1_554 S
O101 C111 1.283 . S
O102 Zn95 1.965 1_545 S
O102 C110 1.303 . S
O103 Zn96 1.938 . S
O103 C110 1.247 1_565 S
O104 Zn96 1.906 . S
O104 C112 1.304 . S
O105 Zn93 1.924 . S
O105 C113 1.311 . S
O106 Zn97 1.977 . S
O106 C112 1.272 . S
O107 Zn97 1.910 . S
O107 C113 1.231 . S
C108 O92 1.225 . S
C108 O114 1.298 . S
C109 O98 1.226 1_565 S
C109 O99 1.307 . S
C110 O102 1.303 . S
C110 O103 1.247 1_545 S
C111 O100 1.253 . S
C111 O101 1.283 . S
C112 O104 1.304 . S
C112 O106 1.272 . S
C113 O105 1.311 . S
C113 O107 1.231 . S
O114 Zn96 1.953 . S
O114 C108 1.298 . S
O115 Zn116 1.953 . S
O115 C131 1.225 . S
Zn116 O115 1.953 . S
Zn116 O117 1.949 . S
Zn116 O123 1.919 . S
Zn116 O128 1.924 . S
O117 Zn116 1.949 . S
O117 Zn118 1.923 . S
O117 Zn119 1.950 . S
O117 Zn120 1.945 . S
Zn118 O117 1.923 . S
Zn118 O121 1.933 . S
Zn118 O124 1.941 . S
Zn118 O125 1.965 . S
Zn119 O117 1.950 . S
Zn119 O126 1.938 . S
Zn119 O127 1.906 . S
Zn119 O137 1.953 . S
Zn120 O117 1.945 . S
Zn120 O122 1.932 . S
Zn120 O129 1.977 . S
Zn120 O130 1.910 . S
O121 Zn118 1.933 . S
O121 C132 1.226 . S
O122 Zn120 1.932 . S
O122 C132 1.307 . S
O123 Zn116 1.919 . S
O123 C134 1.253 . S
O124 Zn118 1.941 . S
O124 C134 1.283 . S
O125 Zn118 1.965 . S
O125 C133 1.303 . S
O126 Zn119 1.938 . S
O126 C133 1.247 . S
O127 Zn119 1.906 . S
O127 C135 1.304 . S
O128 Zn116 1.924 . S
O128 C136 1.311 . S
O129 Zn120 1.977 . S
O129 C135 1.272 . S
O130 Zn120 1.910 . S
O130 C136 1.231 . S
C131 O115 1.225 . S
C131 O137 1.298 . S
C132 O121 1.226 . S
C132 O122 1.307 . S
C133 O125 1.303 . S
C133 O126 1.247 . S
C134 O123 1.253 . S
C134 O124 1.283 . S
C135 O127 1.304 . S
C135 O129 1.272 . S
C136 O128 1.311 . S
C136 O130 1.231 . S
O137 Zn119 1.953 . S
O137 C131 1.298 . S
O138 Zn139 1.953 . S
O138 C154 1.225 . S
Zn139 O138 1.953 . S
Zn139 O140 1.949 . S
Zn139 O146 1.919 . S
Zn139 O151 1.924 . S
O140 Zn139 1.949 . S
O140 Zn141 1.923 . S
O140 Zn142 1.950 . S
O140 Zn143 1.945 . S
Zn141 O140 1.923 . S
Zn141 O144 1.933 1_545 S
Zn141 O147 1.941 . S
Zn141 O148 1.965 1_545 S
Zn142 O140 1.950 . S
Zn142 O149 1.938 . S
Zn142 O150 1.906 . S
Zn142 O160 1.953 . S
Zn143 O140 1.945 . S
Zn143 O145 1.932 . S
Zn143 O152 1.977 . S
Zn143 O153 1.910 . S
O144 Zn141 1.933 1_565 S
O144 C155 1.226 1_565 S
O145 Zn143 1.932 . S
O145 C155 1.307 . S
O146 Zn139 1.919 . S
O146 C157 1.253 . S
O147 Zn141 1.941 . S
O147 C157 1.283 . S
O148 Zn141 1.965 1_565 S
O148 C156 1.303 . S
O149 Zn142 1.938 . S
O149 C156 1.247 1_545 S
O150 Zn142 1.906 . S
O150 C158 1.304 . S
O151 Zn139 1.924 . S
O151 C159 1.311 . S
O152 Zn143 1.977 . S
O152 C158 1.272 . S
O153 Zn143 1.910 . S
O153 C159 1.231 . S
C154 O138 1.225 . S
C154 O160 1.298 . S
C155 O144 1.226 1_545 S
C155 O145 1.307 . S
C156 O148 1.303 . S
C156 O149 1.247 1_565 S
C157 O146 1.253 . S
C157 O147 1.283 . S
C158 O150 1.304 . S
C158 O152 1.272 . S
C159 O151 1.311 . S
C159 O153 1.231 . S
O160 Zn142 1.953 . S
O160 C154 1.298 . S
O161 Zn162 1.953 1_655 S
O161 C177 1.225 1_655 S
Zn162 O161 1.953 1_455 S
Zn162 O163 1.949 . S
Zn162 O169 1.919 . S
Zn162 O174 1.924 1_455 S
O163 Zn162 1.949 . S
O163 Zn164 1.923 . S
O163 Zn165 1.950 . S
O163 Zn166 1.945 . S
Zn164 O163 1.923 . S
Zn164 O167 1.933 . S
Zn164 O170 1.941 . S
Zn164 O171 1.965 . S
Zn165 O163 1.950 . S
Zn165 O172 1.938 . S
Zn165 O173 1.906 . S
Zn165 O183 1.953 . S
Zn166 O163 1.945 . S
Zn166 O168 1.932 . S
Zn166 O175 1.977 . S
Zn166 O176 1.910 . S
O167 Zn164 1.933 . S
O167 C178 1.226 . S
O168 Zn166 1.932 . S
O168 C178 1.307 . S
O169 Zn162 1.919 . S
O169 C180 1.253 . S
O170 Zn164 1.941 . S
O170 C180 1.283 . S
O171 Zn164 1.965 . S
O171 C179 1.303 . S
O172 Zn165 1.938 . S
O172 C179 1.247 . S
O173 Zn165 1.906 . S
O173 C181 1.304 . S
O174 Zn162 1.924 1_655 S
O174 C182 1.311 . S
O175 Zn166 1.977 . S
O175 C181 1.272 . S
O176 Zn166 1.910 . S
O176 C182 1.231 1_455 S
C177 O161 1.225 1_455 S
C177 O183 1.299 . S
C178 O167 1.226 . S
C178 O168 1.307 . S
C179 O171 1.303 . S
C179 O172 1.247 . S
C180 O169 1.253 . S
C180 O170 1.283 . S
C181 O173 1.304 . S
C181 O175 1.272 . S
C182 O174 1.311 . S
C182 O176 1.231 1_655 S
O183 Zn165 1.953 . S
O183 C177 1.299 . S
O184 Zn185 1.953 . S
O184 C200 1.225 . S
Zn185 O184 1.953 . S
Zn185 O186 1.949 . S
Zn185 O192 1.919 . S
Zn185 O197 1.924 . S
O186 Zn185 1.949 . S
O186 Zn187 1.923 . S
O186 Zn188 1.950 . S
O186 Zn189 1.945 . S
Zn187 O186 1.923 . S
Zn187 O190 1.933 . S
Zn187 O193 1.941 . S
Zn187 O194 1.965 . S
Zn188 O186 1.950 . S
Zn188 O195 1.938 . S
Zn188 O196 1.906 . S
Zn188 O206 1.953 . S
Zn189 O186 1.945 . S
Zn189 O191 1.932 . S
Zn189 O198 1.977 . S
Zn189 O199 1.910 . S
O190 Zn187 1.933 . S
O190 C201 1.226 . S
O191 Zn189 1.932 . S
O191 C201 1.307 . S
O192 Zn185 1.919 . S
O192 C203 1.253 . S
O193 Zn187 1.941 . S
O193 C203 1.283 . S
O194 Zn187 1.965 . S
O194 C202 1.303 . S
O195 Zn188 1.938 . S
O195 C202 1.247 . S
O196 Zn188 1.906 . S
O196 C204 1.304 . S
O197 Zn185 1.924 . S
O197 C205 1.311 . S
O198 Zn189 1.977 . S
O198 C204 1.272 . S
O199 Zn189 1.910 . S
O199 C205 1.231 . S
C200 O184 1.225 . S
C200 O206 1.298 . S
C201 O190 1.226 . S
C201 O191 1.307 . S
C202 O194 1.303 . S
C202 O195 1.247 . S
C203 O192 1.253 . S
C203 O193 1.283 . S
C204 O196 1.304 . S
C204 O198 1.272 . S
C205 O197 1.311 . S
C205 O199 1.231 . S
O206 Zn188 1.953 . S
O206 C200 1.298 . S
O207 Zn208 1.953 1_655 S
O207 C223 1.225 1_655 S
Zn208 O207 1.953 1_455 S
Zn208 O209 1.949 . S
Zn208 O215 1.919 . S
Zn208 O220 1.924 1_455 S
O209 Zn208 1.949 . S
O209 Zn210 1.923 . S
O209 Zn211 1.950 . S
O209 Zn212 1.945 1_545 S
Zn210 O209 1.923 . S
Zn210 O213 1.933 1_545 S
Zn210 O216 1.941 . S
Zn210 O217 1.965 . S
Zn211 O209 1.950 . S
Zn211 O218 1.938 . S
Zn211 O219 1.906 . S
Zn211 O229 1.953 . S
Zn212 O209 1.945 1_565 S
Zn212 O214 1.932 . S
Zn212 O221 1.977 1_565 S
Zn212 O222 1.910 . S
O213 Zn210 1.933 1_565 S
O213 C224 1.226 . S
O214 Zn212 1.932 . S
O214 C224 1.307 . S
O215 Zn208 1.919 . S
O215 C226 1.253 . S
O216 Zn210 1.941 . S
O216 C226 1.283 . S
O217 Zn210 1.965 . S
O217 C225 1.303 . S
O218 Zn211 1.938 . S
O218 C225 1.247 . S
O219 Zn211 1.906 . S
O219 C227 1.304 . S
O220 Zn208 1.924 1_655 S
O220 C228 1.311 1_545 S
O221 Zn212 1.977 1_545 S
O221 C227 1.272 . S
O222 Zn212 1.910 . S
O222 C228 1.231 1_455 S
C223 O207 1.225 1_455 S
C223 O229 1.299 . S
C224 O213 1.226 . S
C224 O214 1.307 . S
C225 O217 1.303 . S
C225 O218 1.247 . S
C226 O215 1.253 . S
C226 O216 1.283 . S
C227 O219 1.304 . S
C227 O221 1.272 . S
C228 O220 1.311 1_565 S
C228 O222 1.231 1_655 S
O229 Zn211 1.953 . S
O229 C223 1.299 . S
O230 Zn231 1.953 . S
O230 C246 1.225 . S
Zn231 O230 1.953 . S
Zn231 O232 1.949 . S
Zn231 O238 1.919 1_554 S
Zn231 O243 1.924 . S
O232 Zn231 1.949 . S
O232 Zn233 1.923 . S
O232 Zn234 1.950 . S
O232 Zn235 1.945 . S
Zn233 O232 1.923 . S
Zn233 O236 1.933 . S
Zn233 O239 1.941 1_554 S
Zn233 O240 1.965 . S
Zn234 O232 1.950 . S
Zn234 O241 1.938 . S
Zn234 O242 1.906 . S
Zn234 O252 1.953 . S
Zn235 O232 1.945 . S
Zn235 O237 1.932 . S
Zn235 O244 1.977 . S
Zn235 O245 1.910 . S
O236 Zn233 1.933 . S
O236 C247 1.226 . S
O237 Zn235 1.932 . S
O237 C247 1.307 . S
O238 Zn231 1.919 1_556 S
O238 C249 1.253 . S
O239 Zn233 1.941 1_556 S
O239 C249 1.283 . S
O240 Zn233 1.965 . S
O240 C248 1.303 . S
O241 Zn234 1.938 . S
O241 C248 1.247 . S
O242 Zn234 1.906 . S
O242 C250 1.304 . S
O243 Zn231 1.924 . S
O243 C251 1.311 . S
O244 Zn235 1.977 . S
O244 C250 1.272 . S
O245 Zn235 1.910 . S
O245 C251 1.231 . S
C246 O230 1.225 . S
C246 O252 1.298 . S
C247 O236 1.226 . S
C247 O237 1.307 . S
C248 O240 1.303 . S
C248 O241 1.247 . S
C249 O238 1.253 . S
C249 O239 1.283 . S
C250 O242 1.304 . S
C250 O244 1.272 . S
C251 O243 1.311 . S
C251 O245 1.231 . S
O252 Zn234 1.953 . S
O252 C246 1.298 . S
O253 Zn254 1.953 . S
O253 C269 1.225 . S
Zn254 O253 1.953 . S
Zn254 O255 1.949 . S
Zn254 O261 1.919 . S
Zn254 O266 1.924 . S
O255 Zn254 1.949 . S
O255 Zn256 1.923 . S
O255 Zn257 1.950 . S
O255 Zn258 1.945 1_565 S
Zn256 O255 1.923 . S
Zn256 O259 1.933 1_565 S
Zn256 O262 1.941 . S
Zn256 O263 1.965 . S
Zn257 O255 1.950 . S
Zn257 O264 1.938 . S
Zn257 O265 1.906 . S
Zn257 O275 1.953 . S
Zn258 O255 1.945 1_545 S
Zn258 O260 1.932 . S
Zn258 O267 1.977 1_545 S
Zn258 O268 1.910 . S
O259 Zn256 1.933 1_545 S
O259 C270 1.226 . S
O260 Zn258 1.932 . S
O260 C270 1.307 . S
O261 Zn254 1.919 . S
O261 C272 1.253 . S
O262 Zn256 1.941 . S
O262 C272 1.283 . S
O263 Zn256 1.965 . S
O263 C271 1.303 . S
O264 Zn257 1.938 . S
O264 C271 1.247 . S
O265 Zn257 1.906 . S
O265 C273 1.304 . S
O266 Zn254 1.924 . S
O266 C274 1.311 1_565 S
O267 Zn258 1.977 1_565 S
O267 C273 1.272 . S
O268 Zn258 1.910 . S
O268 C274 1.231 . S
C269 O253 1.225 . S
C269 O275 1.298 . S
C270 O259 1.226 . S
C270 O260 1.307 . S
C271 O263 1.303 . S
C271 O264 1.247 . S
C272 O261 1.253 . S
C272 O262 1.283 . S
C273 O265 1.304 . S
C273 O267 1.272 . S
C274 O266 1.311 1_545 S
C274 O268 1.231 . S
O275 Zn257 1.953 . S
O275 C269 1.298 . S
O276 Zn277 1.953 . S
O276 C292 1.225 . S
Zn277 O276 1.953 . S
Zn277 O278 1.949 . S
Zn277 O284 1.919 . S
Zn277 O289 1.924 . S
O278 Zn277 1.949 . S
O278 Zn279 1.923 . S
O278 Zn280 1.950 . S
O278 Zn281 1.945 . S
Zn279 O278 1.923 . S
Zn279 O282 1.933 . S
Zn279 O285 1.941 . S
Zn279 O286 1.965 . S
Zn280 O278 1.950 . S
Zn280 O287 1.938 . S
Zn280 O288 1.906 . S
Zn280 O298 1.953 . S
Zn281 O278 1.945 . S
Zn281 O283 1.932 . S
Zn281 O290 1.977 . S
Zn281 O291 1.910 . S
O282 Zn279 1.933 . S
O282 C293 1.226 . S
O283 Zn281 1.932 . S
O283 C293 1.307 . S
O284 Zn277 1.919 . S
O284 C295 1.253 . S
O285 Zn279 1.941 . S
O285 C295 1.283 . S
O286 Zn279 1.965 . S
O286 C294 1.303 . S
O287 Zn280 1.938 . S
O287 C294 1.247 . S
O288 Zn280 1.906 . S
O288 C296 1.304 . S
O289 Zn277 1.924 . S
O289 C297 1.311 . S
O290 Zn281 1.977 . S
O290 C296 1.272 . S
O291 Zn281 1.910 . S
O291 C297 1.231 . S
C292 O276 1.225 . S
C292 O298 1.298 . S
C293 O282 1.226 . S
C293 O283 1.307 . S
C294 O286 1.303 . S
C294 O287 1.247 . S
C295 O284 1.253 . S
C295 O285 1.283 . S
C296 O288 1.304 . S
C296 O290 1.272 . S
C297 O289 1.311 . S
C297 O291 1.231 . S
O298 Zn280 1.953 . S
O298 C292 1.298 . S
O299 Zn300 1.953 1_455 S
O299 C315 1.225 1_455 S
Zn300 O299 1.953 1_655 S
Zn300 O301 1.949 . S
Zn300 O307 1.919 . S
Zn300 O312 1.924 1_655 S
O301 Zn300 1.949 . S
O301 Zn302 1.923 . S
O301 Zn303 1.950 . S
O301 Zn304 1.945 1_565 S
Zn302 O301 1.923 . S
Zn302 O305 1.933 1_565 S
Zn302 O308 1.941 . S
Zn302 O309 1.965 . S
Zn303 O301 1.950 . S
Zn303 O310 1.938 . S
Zn303 O311 1.906 . S
Zn303 O321 1.953 . S
Zn304 O301 1.945 1_545 S
Zn304 O306 1.932 . S
Zn304 O313 1.977 1_545 S
Zn304 O314 1.910 . S
O305 Zn302 1.933 1_545 S
O305 C316 1.226 . S
O306 Zn304 1.932 . S
O306 C316 1.307 . S
O307 Zn300 1.919 . S
O307 C318 1.253 . S
O308 Zn302 1.941 . S
O308 C318 1.283 . S
O309 Zn302 1.965 . S
O309 C317 1.303 . S
O310 Zn303 1.938 . S
O310 C317 1.247 . S
O311 Zn303 1.906 . S
O311 C319 1.304 . S
O312 Zn300 1.924 1_455 S
O312 C320 1.311 1_565 S
O313 Zn304 1.977 1_565 S
O313 C319 1.272 . S
O314 Zn304 1.910 . S
O314 C320 1.231 1_655 S
C315 O299 1.225 1_655 S
C315 O321 1.299 . S
C316 O305 1.226 . S
C316 O306 1.307 . S
C317 O309 1.303 . S
C317 O310 1.247 . S
C318 O307 1.253 . S
C318 O308 1.283 . S
C319 O311 1.304 . S
C319 O313 1.272 . S
C320 O312 1.311 1_545 S
C320 O314 1.231 1_455 S
O321 Zn303 1.953 . S
O321 C315 1.299 . S
O322 Zn323 1.953 . S
O322 C338 1.225 . S
Zn323 O322 1.953 . S
Zn323 O324 1.949 . S
Zn323 O330 1.919 1_556 S
Zn323 O335 1.924 . S
O324 Zn323 1.949 . S
O324 Zn325 1.923 . S
O324 Zn326 1.950 . S
O324 Zn327 1.945 . S
Zn325 O324 1.923 . S
Zn325 O328 1.933 . S
Zn325 O331 1.941 1_556 S
Zn325 O332 1.965 . S
Zn326 O324 1.950 . S
Zn326 O333 1.938 . S
Zn326 O334 1.906 . S
Zn326 O344 1.953 . S
Zn327 O324 1.945 . S
Zn327 O329 1.932 . S
Zn327 O336 1.977 . S
Zn327 O337 1.910 . S
O328 Zn325 1.933 . S
O328 C339 1.226 . S
O329 Zn327 1.932 . S
O329 C339 1.307 . S
O330 Zn323 1.919 1_554 S
O330 C341 1.253 . S
O331 Zn325 1.941 1_554 S
O331 C341 1.283 . S
O332 Zn325 1.965 . S
O332 C340 1.303 . S
O333 Zn326 1.938 . S
O333 C340 1.247 . S
O334 Zn326 1.906 . S
O334 C342 1.304 . S
O335 Zn323 1.924 . S
O335 C343 1.311 . S
O336 Zn327 1.977 . S
O336 C342 1.272 . S
O337 Zn327 1.910 . S
O337 C343 1.231 . S
C338 O322 1.225 . S
C338 O344 1.298 . S
C339 O328 1.226 . S
C339 O329 1.307 . S
C340 O332 1.303 . S
C340 O333 1.247 . S
C341 O330 1.253 . S
C341 O331 1.283 . S
C342 O334 1.304 . S
C342 O336 1.272 . S
C343 O335 1.311 . S
C343 O337 1.231 . S
O344 Zn326 1.953 . S
O344 C338 1.298 . S
O345 Zn346 1.953 . S
O345 C361 1.225 . S
Zn346 O345 1.953 . S
Zn346 O347 1.949 . S
Zn346 O353 1.919 . S
Zn346 O358 1.924 . S
O347 Zn346 1.949 . S
O347 Zn348 1.923 . S
O347 Zn349 1.950 . S
O347 Zn350 1.945 1_545 S
Zn348 O347 1.923 . S
Zn348 O351 1.933 1_545 S
Zn348 O354 1.941 . S
Zn348 O355 1.965 . S
Zn349 O347 1.950 . S
Zn349 O356 1.938 . S
Zn349 O357 1.906 . S
Zn349 O367 1.953 . S
Zn350 O347 1.945 1_565 S
Zn350 O352 1.932 . S
Zn350 O359 1.977 1_565 S
Zn350 O360 1.910 . S
O351 Zn348 1.933 1_565 S
O351 C362 1.226 . S
O352 Zn350 1.932 . S
O352 C362 1.307 . S
O353 Zn346 1.919 . S
O353 C364 1.253 . S
O354 Zn348 1.941 . S
O354 C364 1.283 . S
O355 Zn348 1.965 . S
O355 C363 1.303 . S
O356 Zn349 1.938 . S
O356 C363 1.247 . S
O357 Zn349 1.906 . S
O357 C365 1.304 . S
O358 Zn346 1.924 . S
O358 C366 1.311 1_545 S
O359 Zn350 1.977 1_545 S
O359 C365 1.272 . S
O360 Zn350 1.910 . S
O360 C366 1.231 . S
C361 O345 1.225 . S
C361 O367 1.298 . S
C362 O351 1.226 . S
C362 O352 1.307 . S
C363 O355 1.303 . S
C363 O356 1.247 . S
C364 O353 1.253 . S
C364 O354 1.283 . S
C365 O357 1.304 . S
C365 O359 1.272 . S
C366 O358 1.311 1_565 S
C366 O360 1.231 . S
O367 Zn349 1.953 . S
O367 C361 1.298 . S
C16 C246 0.368 . S
C39 C269 0.368 . S
C62 C200 0.368 1_455 S
C223 C85 0.368 1_455 S
C108 C338 0.368 . S
C361 C131 0.368 . S
C292 C154 0.368 1_455 S
C177 C315 0.368 1_455 S
C18 C110 2.884 1_564 S
C41 C317 2.884 . S
C64 C156 2.884 1_445 S
C87 C363 2.884 . S
C133 C225 2.884 . S
C271 C179 2.884 . S
C294 C202 2.884 1_455 S
C248 C340 2.884 1_554 S
C21 C178 1.999 . S
C44 C293 1.999 . S
C67 C132 1.999 . S
C90 C339 1.999 . S
C86 C113 1.999 . S
C136 C201 1.999 . S
C159 C40 1.999 . S
C247 C182 1.999 . S
C205 C362 1.999 . S
C109 C228 1.999 . S
C316 C251 1.999 . S
C155 C274 1.999 . S
C297 C270 1.999 . S
C320 C17 1.999 . S
C224 C343 1.999 . S
C366 C63 1.999 . S
C19 C227 1.527 . S
C250 C42 1.527 . S
C65 C273 1.527 . S
C204 C88 1.527 . S
C319 C111 1.527 . S
C342 C134 1.527 . S
C365 C157 1.527 . S
C296 C180 1.527 . S
C43 C203 1.527 . S
C66 C226 1.527 1_565 S
C89 C249 1.527 . S
C272 C20 1.527 1_565 S
C135 C295 1.527 . S
C158 C318 1.527 1_545 S
C181 C341 1.527 . S
C112 C364 1.527 1_565 S
