# Generated by pormake.
# Topology xfp, (7)-cn, num edge types: 1
# Building blocks:
#     Node 0, Type 0, BuildingBlock: OLANEW_clean_sbu_0, # of connection points: 7
#     Node 1, Type 0, BuildingBlock: OLANEW_clean_sbu_0, # of connection points: 7
#     Node 2, Type 0, BuildingBlock: OLANEW_clean_sbu_0, # of connection points: 7
#     Node 3, Type 0, BuildingBlock: OLANEW_clean_sbu_0, # of connection points: 7
#     Node 4, Type 0, BuildingBlock: OLANEW_clean_sbu_0, # of connection points: 7
#     Node 5, Type 0, BuildingBlock: OLANEW_clean_sbu_0, # of connection points: 7
#     Node 6, Type 0, BuildingBlock: OLANEW_clean_sbu_0, # of connection points: 7
#     Node 7, Type 0, BuildingBlock: OLANEW_clean_sbu_0, # of connection points: 7
#     Node 8, Type 0, BuildingBlock: OLANEW_clean_sbu_0, # of connection points: 7
#     Node 9, Type 0, BuildingBlock: OLANEW_clean_sbu_0, # of connection points: 7
#     Node 10, Type 0, BuildingBlock: OLANEW_clean_sbu_0, # of connection points: 7
#     Node 11, Type 0, BuildingBlock: OLANEW_clean_sbu_0, # of connection points: 7
#     Node 12, Type 0, BuildingBlock: OLANEW_clean_sbu_0, # of connection points: 7
#     Node 13, Type 0, BuildingBlock: OLANEW_clean_sbu_0, # of connection points: 7
#     Node 14, Type 0, BuildingBlock: OLANEW_clean_sbu_0, # of connection points: 7
#     Node 15, Type 0, BuildingBlock: OLANEW_clean_sbu_0, # of connection points: 7
#     Node 16, Type 0, BuildingBlock: OLANEW_clean_sbu_0, # of connection points: 7
#     Node 17, Type 0, BuildingBlock: OLANEW_clean_sbu_0, # of connection points: 7
#     Node 18, Type 0, BuildingBlock: OLANEW_clean_sbu_0, # of connection points: 7
#     Node 19, Type 0, BuildingBlock: OLANEW_clean_sbu_0, # of connection points: 7
#     Node 20, Type 0, BuildingBlock: OLANEW_clean_sbu_0, # of connection points: 7
#     Node 21, Type 0, BuildingBlock: OLANEW_clean_sbu_0, # of connection points: 7
#     Node 22, Type 0, BuildingBlock: OLANEW_clean_sbu_0, # of connection points: 7
#     Node 23, Type 0, BuildingBlock: OLANEW_clean_sbu_0, # of connection points: 7
#     Node 24, Type 0, BuildingBlock: OLANEW_clean_sbu_0, # of connection points: 7
#     Node 25, Type 0, BuildingBlock: OLANEW_clean_sbu_0, # of connection points: 7
#     Node 26, Type 0, BuildingBlock: OLANEW_clean_sbu_0, # of connection points: 7
#     Node 27, Type 0, BuildingBlock: OLANEW_clean_sbu_0, # of connection points: 7
#     Node 28, Type 0, BuildingBlock: OLANEW_clean_sbu_0, # of connection points: 7
#     Node 29, Type 0, BuildingBlock: OLANEW_clean_sbu_0, # of connection points: 7
#     Node 30, Type 0, BuildingBlock: OLANEW_clean_sbu_0, # of connection points: 7
#     Node 31, Type 0, BuildingBlock: OLANEW_clean_sbu_0, # of connection points: 7
#     Edge 32, Type (0, 0), None
#     Edge 33, Type (0, 0), None
#     Edge 34, Type (0, 0), None
#     Edge 35, Type (0, 0), None
#     Edge 36, Type (0, 0), None
#     Edge 37, Type (0, 0), None
#     Edge 38, Type (0, 0), None
#     Edge 39, Type (0, 0), None
#     Edge 40, Type (0, 0), None
#     Edge 41, Type (0, 0), None
#     Edge 42, Type (0, 0), None
#     Edge 43, Type (0, 0), None
#     Edge 44, Type (0, 0), None
#     Edge 45, Type (0, 0), None
#     Edge 46, Type (0, 0), None
#     Edge 47, Type (0, 0), None
#     Edge 48, Type (0, 0), None
#     Edge 49, Type (0, 0), None
#     Edge 50, Type (0, 0), None
#     Edge 51, Type (0, 0), None
#     Edge 52, Type (0, 0), None
#     Edge 53, Type (0, 0), None
#     Edge 54, Type (0, 0), None
#     Edge 55, Type (0, 0), None
#     Edge 56, Type (0, 0), None
#     Edge 57, Type (0, 0), None
#     Edge 58, Type (0, 0), None
#     Edge 59, Type (0, 0), None
#     Edge 60, Type (0, 0), None
#     Edge 61, Type (0, 0), None
#     Edge 62, Type (0, 0), None
#     Edge 63, Type (0, 0), None
#     Edge 64, Type (0, 0), None
#     Edge 65, Type (0, 0), None
#     Edge 66, Type (0, 0), None
#     Edge 67, Type (0, 0), None
#     Edge 68, Type (0, 0), None
#     Edge 69, Type (0, 0), None
#     Edge 70, Type (0, 0), None
#     Edge 71, Type (0, 0), None
#     Edge 72, Type (0, 0), None
#     Edge 73, Type (0, 0), None
#     Edge 74, Type (0, 0), None
#     Edge 75, Type (0, 0), None
#     Edge 76, Type (0, 0), None
#     Edge 77, Type (0, 0), None
#     Edge 78, Type (0, 0), None
#     Edge 79, Type (0, 0), None
#     Edge 80, Type (0, 0), None
#     Edge 81, Type (0, 0), None
#     Edge 82, Type (0, 0), None
#     Edge 83, Type (0, 0), None
#     Edge 84, Type (0, 0), None
#     Edge 85, Type (0, 0), None
#     Edge 86, Type (0, 0), None
#     Edge 87, Type (0, 0), None
#     Edge 88, Type (0, 0), None
#     Edge 89, Type (0, 0), None
#     Edge 90, Type (0, 0), None
#     Edge 91, Type (0, 0), None
#     Edge 92, Type (0, 0), None
#     Edge 93, Type (0, 0), None
#     Edge 94, Type (0, 0), None
#     Edge 95, Type (0, 0), None
#     Edge 96, Type (0, 0), None
#     Edge 97, Type (0, 0), None
#     Edge 98, Type (0, 0), None
#     Edge 99, Type (0, 0), None
#     Edge 100, Type (0, 0), None
#     Edge 101, Type (0, 0), None
#     Edge 102, Type (0, 0), None
#     Edge 103, Type (0, 0), None
#     Edge 104, Type (0, 0), None
#     Edge 105, Type (0, 0), None
#     Edge 106, Type (0, 0), None
#     Edge 107, Type (0, 0), None
#     Edge 108, Type (0, 0), None
#     Edge 109, Type (0, 0), None
#     Edge 110, Type (0, 0), None
#     Edge 111, Type (0, 0), None
#     Edge 112, Type (0, 0), None
#     Edge 113, Type (0, 0), None
#     Edge 114, Type (0, 0), None
#     Edge 115, Type (0, 0), None
#     Edge 116, Type (0, 0), None
#     Edge 117, Type (0, 0), None
#     Edge 118, Type (0, 0), None
#     Edge 119, Type (0, 0), None
#     Edge 120, Type (0, 0), None
#     Edge 121, Type (0, 0), None
#     Edge 122, Type (0, 0), None
#     Edge 123, Type (0, 0), None
#     Edge 124, Type (0, 0), None
#     Edge 125, Type (0, 0), None
#     Edge 126, Type (0, 0), None
#     Edge 127, Type (0, 0), None
#     Edge 128, Type (0, 0), None
#     Edge 129, Type (0, 0), None
#     Edge 130, Type (0, 0), None
#     Edge 131, Type (0, 0), None
#     Edge 132, Type (0, 0), None
#     Edge 133, Type (0, 0), None
#     Edge 134, Type (0, 0), None
#     Edge 135, Type (0, 0), None
#     Edge 136, Type (0, 0), None
#     Edge 137, Type (0, 0), None
#     Edge 138, Type (0, 0), None
#     Edge 139, Type (0, 0), None
#     Edge 140, Type (0, 0), None
#     Edge 141, Type (0, 0), None
#     Edge 142, Type (0, 0), None
#     Edge 143, Type (0, 0), None
# Relax obj value: 0.114
# Max RMSD: 0.171
# Mean RMSD: 0.171
data_MOF--net-xfp--node1-OLANEW_clean_sbu_0--edge1-none
_symmetry_space_group_name_H-M    P1
_symmetry_Int_Tables_number       1
_symmetry_cell_setting            triclinic
loop_
_symmetry_equiv_pos_as_xyz
'x, y, z'
_cell_length_a     35.543755
_cell_length_b     35.544129
_cell_length_c     49.996004
_cell_angle_alpha  90.002293
_cell_angle_beta   90.000172
_cell_angle_gamma 89.99671
loop_
_atom_site_label
_atom_site_type_symbol
_atom_site_fract_x
_atom_site_fract_y
_atom_site_fract_z
_atom_type_partial_charge
Cd0 Cd 0.36657 0.08189 0.21048 0.0
C1 C 0.37092 0.01616 0.25181 0.0
C2 C 0.47275 0.07096 0.07184 0.0
O3 O 0.50223 0.08266 0.05827 0.0
Cd4 Cd 0.27527 0.02995 0.24612 0.0
C5 C 0.4351 0.07377 0.0602 0.0
C6 C 0.36092 0.06452 0.043 0.0
C7 C 0.37367 0.04992 0.06732 0.0
N8 N 0.40923 0.05617 0.07467 0.0
C9 C 0.42466 0.08898 0.03545 0.0
C10 C 0.38694 0.08447 0.02702 0.0
Co11 Co 0.426 0.03045 0.10441 0.0
C12 C 0.35349 0.02652 0.08662 0.0
O13 O 0.3174 0.01898 0.08438 0.0
C14 C 0.35905 -0.00669 0.12913 0.0
C15 C 0.34418 0.01124 0.15157 0.0
C16 C 0.31944 0.99208 0.16852 0.0
C17 C 0.31047 0.9548 0.16292 0.0
C18 C 0.32389 0.93756 0.1395 0.0
C19 C 0.35081 0.95583 0.12402 0.0
C20 C 0.30113 0.0113 0.19102 0.0
C21 C 0.51216 0.04436 0.1077 0.0
C22 C 0.53912 0.07336 0.10688 0.0
C23 C 0.52428 0.00826 0.1152 0.0
C24 C 0.56177 0.00133 0.12162 0.0
C25 C 0.58842 0.02958 0.11858 0.0
C26 C 0.57748 0.06482 0.10866 0.0
N27 N 0.47593 0.05036 0.09518 0.0
N28 N 0.37439 0.01526 0.10814 0.0
N29 N 0.41775 0.07193 0.1294 0.0
C30 C 0.40399 0.10834 0.12173 0.0
C31 C 0.42883 0.13875 0.11956 0.0
C32 C 0.36704 0.11213 0.11238 0.0
C33 C 0.41705 0.17268 0.10761 0.0
H34 H 0.45759 0.13535 0.12635 0.0
C35 C 0.38026 0.17548 0.09749 0.0
C36 C 0.35523 0.1451 0.09935 0.0
C37 C 0.44338 0.2047 0.1045 0.0
H38 H 0.34764 0.08903 0.11486 0.0
H39 H 0.37129 0.20115 0.08769 0.0
C40 C 0.31726 0.14751 0.08701 0.0
O41 O 0.43151 0.23715 0.09321 0.0
O42 O 0.47596 0.20189 0.112 0.0
O43 O 0.29665 0.11997 0.08658 0.0
O44 O 0.30537 0.18007 0.07591 0.0
H45 H 0.44814 0.25839 0.09069 0.0
H46 H 0.2808 0.18223 0.06771 0.0
N47 N 0.44122 0.00358 0.13398 0.0
C48 C 0.44399 0.96632 0.13038 0.0
C49 C 0.4488 0.94327 0.15274 0.0
C50 C 0.44868 0.96047 0.17821 0.0
C51 C 0.443 -0.00031 0.18083 0.0
C52 C 0.4385 0.02103 0.15754 0.0
N53 N 0.43548 0.98432 0.08464 0.0
C54 C 0.44151 0.95531 0.10205 0.0
O55 O 0.44812 0.92079 0.09385 0.0
C56 C 0.42568 0.06039 0.15524 0.0
O57 O 0.32655 0.09696 0.17414 0.0
O58 O 0.36385 0.14175 0.18812 0.0
C59 C 0.43803 0.97977 0.05629 0.0
C60 C 0.4084 0.96326 0.04233 0.0
C61 C 0.41119 0.95668 0.01485 0.0
C62 C 0.44418 0.96839 1.00121 0.0
C63 C 0.47508 0.98577 0.0151 0.0
C64 C 0.47124 0.98957 0.04305 0.0
O65 O 0.40035 0.02982 0.24118 0.0
O66 O 0.3417 0.03526 0.24792 0.0
O67 O 0.31716 0.03824 0.20258 0.0
O68 O 0.27129 -0.00111 0.2018 0.0
O69 O 0.42105 0.08225 0.17733 0.0
C70 C 0.29297 0.12695 0.25064 0.0
O71 O 0.27037 0.09889 0.25003 0.0
O72 O 0.32766 0.12442 0.24299 0.0
C73 C 0.33744 0.13101 0.17248 0.0
H74 H 0.33228 0.06013 0.03634 0.0
H75 H 0.44497 0.10305 0.02281 0.0
H76 H 0.37813 0.0957 1.00791 0.0
H77 H 0.34995 0.04063 0.15448 0.0
H78 H 0.28935 0.94095 0.17504 0.0
H79 H 0.35982 0.94351 0.10523 0.0
H80 H 0.53069 0.10143 0.10093 0.0
H81 H 0.50661 0.98427 0.11372 0.0
H82 H 0.61779 0.0226 0.1215 0.0
H83 H 0.45191 0.91311 0.15069 0.0
H84 H 0.45194 0.94331 0.19593 0.0
H85 H 0.44121 0.01256 0.20034 0.0
H86 H 0.38298 0.95561 0.05303 0.0
H87 H 0.44449 0.96422 0.97988 0.0
H88 H 0.49381 -0.00014 0.05532 0.0
Cd89 Cd 0.15412 0.11636 0.46048 0.0
C90 C 0.22041 0.12077 0.50176 0.0
C91 C 0.16488 0.22276 0.32187 0.0
O92 O 0.1532 0.25224 0.3083 0.0
Cd93 Cd 0.20606 0.02472 0.49589 0.0
C94 C 0.16207 0.18512 0.31022 0.0
C95 C 0.17131 0.11095 0.293 0.0
C96 C 0.18592 0.12367 0.31732 0.0
N97 N 0.17968 0.15923 0.32468 0.0
C98 C 0.14685 0.17469 0.28547 0.0
C99 C 0.15136 0.13698 0.27703 0.0
Co100 Co 0.20542 0.17598 0.35442 0.0
C101 C 0.20934 0.10348 0.33659 0.0
O102 O 0.21686 0.06739 0.33434 0.0
C103 C 0.24257 0.10899 0.3791 0.0
C104 C 0.22462 0.09408 0.40151 0.0
C105 C 0.24373 0.06921 0.4184 0.0
C106 C 0.28101 0.06023 0.41279 0.0
C107 C 0.29827 0.07369 0.3894 0.0
C108 C 0.28003 0.10066 0.37395 0.0
C109 C 0.22445 0.05077 0.44082 0.0
C110 C 0.1915 0.26216 0.35773 0.0
C111 C 0.16251 0.28913 0.3569 0.0
C112 C 0.22761 0.27427 0.36522 0.0
C113 C 0.23455 0.31176 0.37162 0.0
C114 C 0.20631 0.33843 0.36857 0.0
C115 C 0.17106 0.32749 0.35867 0.0
N116 N 0.18549 0.22592 0.34521 0.0
N117 N 0.22062 0.12437 0.35811 0.0
N118 N 0.16395 0.16771 0.37943 0.0
C119 C 0.12755 0.15396 0.37176 0.0
C120 C 0.09714 0.17881 0.36958 0.0
C121 C 0.12375 0.11701 0.3624 0.0
C122 C 0.06322 0.16705 0.35762 0.0
H123 H 0.10055 0.20757 0.37637 0.0
C124 C 0.06041 0.13026 0.3475 0.0
C125 C 0.09078 0.10522 0.34936 0.0
C126 C 0.0312 0.1934 0.35451 0.0
H127 H 0.14685 0.09761 0.36488 0.0
H128 H 0.03474 0.12131 0.33769 0.0
C129 C 0.08837 0.06726 0.337 0.0
O130 O -0.00125 0.18154 0.3432 0.0
O131 O 0.03401 0.22597 0.36201 0.0
O132 O 0.11591 0.04664 0.33658 0.0
O133 O 0.05581 0.05538 0.3259 0.0
H134 H 0.97752 0.19818 0.34069 0.0
H135 H 0.05366 0.03081 0.31769 0.0
N136 N 0.23231 0.19118 0.38398 0.0
C137 C 0.26956 0.19395 0.38037 0.0
C138 C 0.29264 0.19875 0.40272 0.0
C139 C 0.27545 0.1986 0.4282 0.0
C140 C 0.23624 0.19291 0.43083 0.0
C141 C 0.21489 0.18842 0.40755 0.0
N142 N 0.25153 0.18548 0.33464 0.0
C143 C 0.28055 0.19149 0.35204 0.0
O144 O 0.31507 0.1981 0.34383 0.0
C145 C 0.17553 0.1756 0.40526 0.0
O146 O 0.13897 0.0764 0.42412 0.0
O147 O 0.09422 0.11373 0.43814 0.0
C148 C 0.25605 0.18803 0.30628 0.0
C149 C 0.27252 0.15838 0.29231 0.0
C150 C 0.27905 0.16115 0.26482 0.0
C151 C 0.26735 0.19414 0.25119 0.0
C152 C 0.25001 0.22505 0.26509 0.0
C153 C 0.24626 0.22123 0.29304 0.0
O154 O 0.20619 0.15003 0.49126 0.0
O155 O 0.20192 0.09122 0.49769 0.0
O156 O 0.19754 0.06677 0.45245 0.0
O157 O 0.2368 0.02081 0.45147 0.0
O158 O 0.1537 0.1709 0.42737 0.0
C159 C 0.10899 0.04297 0.50066 0.0
O160 O 0.13706 0.02039 0.50007 0.0
O161 O 0.11151 0.07764 0.49298 0.0
C162 C 0.10492 0.08732 0.42248 0.0
H163 H 0.1757 0.08231 0.28633 0.0
H164 H 0.13279 0.19501 0.27283 0.0
H165 H 0.14013 0.12818 0.25791 0.0
H166 H 0.19524 0.09988 0.40442 0.0
H167 H 0.29483 0.03905 0.42489 0.0
H168 H 0.29235 0.10968 0.35516 0.0
H169 H 0.13443 0.2807 0.35096 0.0
H170 H 0.25159 0.25659 0.36376 0.0
H171 H 0.2133 0.36779 0.37148 0.0
H172 H 0.32279 0.20186 0.40067 0.0
H173 H 0.29263 0.20184 0.44592 0.0
H174 H 0.22339 0.19107 0.45035 0.0
H175 H 0.28016 0.13296 0.30301 0.0
H176 H 0.27149 0.19444 0.22985 0.0
H177 H 0.236 0.24382 0.30532 0.0
Cd178 Cd 0.11974 0.90421 0.7105 0.0
C179 C 0.11532 0.97121 0.75174 0.0
C180 C 0.01312 0.91488 0.57189 0.0
O181 O 0.98364 0.9032 0.55832 0.0
Cd182 Cd 0.21183 0.95608 0.74561 0.0
C183 C 0.05076 0.91206 0.56024 0.0
C184 C 0.12493 0.9213 0.543 0.0
C185 C 0.11221 0.93591 0.56733 0.0
N186 N 0.07665 0.92966 0.57469 0.0
C187 C 0.06119 0.89685 0.53549 0.0
C188 C 0.09889 0.90135 0.52704 0.0
Co189 Co 0.0599 0.95542 0.60443 0.0
C190 C 0.1324 0.95933 0.5866 0.0
O191 O 0.16849 0.96684 0.58435 0.0
C192 C 0.12691 0.99251 0.62913 0.0
C193 C 0.14193 0.97448 0.65147 0.0
C194 C 0.16686 -0.00647 0.66834 0.0
C195 C 0.17574 0.03086 0.66281 0.0
C196 C 0.16218 0.0482 0.63947 0.0
C197 C 0.13517 0.02999 0.62403 0.0
C198 C 0.18554 0.97415 0.69061 0.0
C199 C 0.97373 0.9415 0.60775 0.0
C200 C 0.94677 0.9125 0.60692 0.0
C201 C 0.96162 0.9776 0.61524 0.0
C202 C 0.92412 0.98454 0.62164 0.0
C203 C 0.89746 0.9563 0.61859 0.0
C204 C 0.9084 0.92105 0.60869 0.0
N205 N 0.00996 0.93548 0.59523 0.0
N206 N 0.11151 0.97062 0.60812 0.0
N207 N 0.0682 0.91396 0.62945 0.0
C208 C 0.08195 0.87755 0.62178 0.0
C209 C 0.05709 0.84715 0.6196 0.0
C210 C 0.11889 0.87374 0.61241 0.0
C211 C 0.06885 0.81322 0.60764 0.0
H212 H 0.02834 0.85056 0.62639 0.0
C213 C 0.10563 0.81041 0.59751 0.0
C214 C 0.13068 0.84078 0.59938 0.0
C215 C 0.0425 0.78121 0.60452 0.0
H216 H 0.13829 0.89685 0.61489 0.0
H217 H 0.11459 0.78474 0.5877 0.0
C218 C 0.16863 0.83837 0.58701 0.0
O219 O 0.05436 0.74876 0.59321 0.0
O220 O 0.00992 0.78403 0.61201 0.0
O221 O 0.18925 0.8659 0.58658 0.0
O222 O 0.18051 0.8058 0.57591 0.0
H223 H 0.03772 0.72754 0.59069 0.0
H224 H 0.20508 0.80364 0.5677 0.0
N225 N 0.04471 0.98231 0.634 0.0
C226 C 0.04193 0.01956 0.63038 0.0
C227 C 0.03715 0.04265 0.65273 0.0
C228 C 0.03735 0.02548 0.67822 0.0
C229 C 0.04306 0.98628 0.68085 0.0
C230 C 0.04752 0.96491 0.65758 0.0
N231 N 0.0504 0.00152 0.58465 0.0
C232 C 0.04438 0.03054 0.60204 0.0
O233 O 0.03777 0.06506 0.59383 0.0
C234 C 0.06037 0.92556 0.65529 0.0
O235 O 0.15963 0.88896 0.67414 0.0
O236 O 0.12223 0.84428 0.68818 0.0
C237 C 0.04787 0.00604 0.55629 0.0
C238 C 0.07753 0.02251 0.54233 0.0
C239 C 0.07477 0.02905 0.51484 0.0
C240 C 0.04178 0.01738 0.5012 0.0
C241 C 0.01086 4e-05 0.51509 0.0
C242 C 0.01467 -0.00374 0.54305 0.0
O243 O 0.08628 0.95634 0.74135 0.0
O244 O 0.14526 0.95348 0.74744 0.0
O245 O 0.16962 0.94728 0.70234 0.0
O246 O 0.21565 0.98644 0.70109 0.0
O247 O 0.06513 0.90377 0.6774 0.0
C248 C 0.19288 0.85895 0.75068 0.0
O249 O 0.21545 0.88703 0.75009 0.0
O250 O 0.15822 0.86147 0.74299 0.0
C251 C 0.14865 0.85493 0.6725 0.0
H252 H 0.15356 0.9257 0.53633 0.0
H253 H 0.04086 0.88278 0.52285 0.0
H254 H 0.10769 0.89012 0.50792 0.0
H255 H 0.13619 0.94507 0.65432 0.0
H256 H 0.19695 0.04466 0.67489 0.0
H257 H 0.12609 0.04237 0.60528 0.0
H258 H 0.9552 0.88442 0.60099 0.0
H259 H 0.97929 0.00159 0.61378 0.0
H260 H 0.86809 0.96329 0.62149 0.0
H261 H 0.03403 0.0728 0.65067 0.0
H262 H 0.03412 0.04267 0.69593 0.0
H263 H 0.04496 0.97344 0.70038 0.0
H264 H 0.10295 0.03015 0.55304 0.0
H265 H 0.04148 0.02154 0.47987 0.0
H266 H 0.99208 0.986 0.55531 0.0
Cd267 Cd 0.33154 0.87 0.9605 0.0
C268 C 0.26363 0.86567 1.00171 0.0
C269 C 0.32102 0.7631 0.82192 0.0
O270 O 0.3327 0.73361 0.80834 0.0
Cd271 Cd 0.27984 0.96269 0.99521 0.0
C272 C 0.32382 0.80074 0.81026 0.0
C273 C 0.31457 0.87489 0.79302 0.0
C274 C 0.29995 0.86217 0.81734 0.0
N275 N 0.30621 0.82662 0.82471 0.0
C276 C 0.33904 0.81116 0.78551 0.0
C277 C 0.33452 0.84886 0.77705 0.0
Co278 Co 0.28046 0.80987 0.85445 0.0
C279 C 0.27652 0.88237 0.83661 0.0
O280 O 0.26903 0.91846 0.83437 0.0
C281 C 0.24343 0.87689 0.87917 0.0
C282 C 0.26157 0.89205 0.90142 0.0
C283 C 0.24258 0.91705 0.91827 0.0
C284 C 0.20519 0.92582 0.91284 0.0
C285 C 0.18775 0.91213 0.88958 0.0
C286 C 0.20591 0.88508 0.87415 0.0
C287 C 0.26208 0.93603 0.94036 0.0
C288 C 0.29439 0.7237 0.85777 0.0
C289 C 0.32339 0.69673 0.85693 0.0
C290 C 0.25828 0.71159 0.86525 0.0
C291 C 0.25134 0.67409 0.87164 0.0
C292 C 0.27958 0.64742 0.86858 0.0
C293 C 0.31483 0.65836 0.85869 0.0
N294 N 0.30041 0.75994 0.84525 0.0
N295 N 0.26524 0.86148 0.85813 0.0
N296 N 0.3219 0.8182 0.87948 0.0
C297 C 0.35832 0.83195 0.87181 0.0
C298 C 0.38871 0.80709 0.86962 0.0
C299 C 0.36212 0.86889 0.86243 0.0
C300 C 0.42264 0.81884 0.85765 0.0
H301 H 0.3853 0.77833 0.87642 0.0
C302 C 0.42545 0.85562 0.84752 0.0
C303 C 0.39509 0.88067 0.84939 0.0
C304 C 0.45465 0.79248 0.85453 0.0
H305 H 0.33902 0.88829 0.8649 0.0
H306 H 0.45111 0.86456 0.83771 0.0
C307 C 0.39749 0.91862 0.83702 0.0
O308 O 0.4871 0.80433 0.84322 0.0
O309 O 0.45183 0.7599 0.86202 0.0
O310 O 0.36995 0.93923 0.83659 0.0
O311 O 0.43006 0.93049 0.82591 0.0
H312 H 0.50832 0.78769 0.8407 0.0
H313 H 0.43221 0.95505 0.8177 0.0
N314 N 0.25356 0.79469 0.88402 0.0
C315 C 0.21631 0.7919 0.88039 0.0
C316 C 0.19321 0.78716 0.90274 0.0
C317 C 0.21036 0.78741 0.92823 0.0
C318 C 0.24956 0.79315 0.93088 0.0
C319 C 0.27094 0.79756 0.9076 0.0
N320 N 0.23437 0.80035 0.83466 0.0
C321 C 0.20534 0.79433 0.85205 0.0
O322 O 0.17082 0.78773 0.84384 0.0
C323 C 0.31028 0.81044 0.90532 0.0
O324 O 0.3469 0.90984 0.92416 0.0
O325 O 0.39151 0.87235 0.93818 0.0
C326 C 0.22984 0.79784 0.8063 0.0
C327 C 0.21335 0.8275 0.79234 0.0
C328 C 0.2068 0.82473 0.76486 0.0
C329 C 0.21849 0.79174 0.75121 0.0
C330 C 0.23585 0.76083 0.7651 0.0
C331 C 0.23963 0.76464 0.79305 0.0
O332 O 0.27928 0.83692 0.99143 0.0
O333 O 0.28038 0.89608 0.99718 0.0
O334 O 0.28893 0.92022 0.95222 0.0
O335 O 0.24989 0.96636 0.95059 0.0
O336 O 0.33202 0.8153 0.92745 0.0
C337 C 0.37699 0.94278 1.00065 0.0
O338 O 0.34893 0.96537 1.00002 0.0
O339 O 0.37443 0.90811 0.99299 0.0
C340 C 0.3809 0.89878 0.92251 0.0
H341 H 0.31016 0.90352 0.78634 0.0
H342 H 0.35311 0.79083 0.77287 0.0
H343 H 0.34575 0.85765 0.75794 0.0
H344 H 0.291 0.88637 0.90419 0.0
H345 H 0.19141 0.94705 0.9249 0.0
H346 H 0.19346 0.87592 0.85544 0.0
H347 H 0.35147 0.70516 0.851 0.0
H348 H 0.2343 0.72927 0.86379 0.0
H349 H 0.27259 0.61806 0.87147 0.0
H350 H 0.16306 0.78403 0.90067 0.0
H351 H 0.19316 0.78422 0.94594 0.0
H352 H 0.26238 0.79512 0.95041 0.0
H353 H 0.20571 0.85291 0.80306 0.0
H354 H 0.21433 0.79143 0.72988 0.0
H355 H 0.24991 0.74206 0.80532 0.0
Cd356 Cd 0.36449 0.90498 0.30555 0.0
C357 C 0.36712 0.97819 0.26435 0.0
C358 C 0.47291 0.91483 0.44397 0.0
O359 O 0.5024 0.90311 0.45751 0.0
Cd360 Cd 0.26872 0.95471 0.27353 0.0
C361 C 0.43529 0.912 0.45567 0.0
C362 C 0.36118 0.92126 0.47305 0.0
C363 C 0.37384 0.93593 0.44872 0.0
N364 N 0.40937 0.92966 0.44129 0.0
C365 C 0.42494 0.89674 0.48043 0.0
C366 C 0.38726 0.90126 0.48895 0.0
Co367 Co 0.42604 0.9555 0.41156 0.0
C368 C 0.3536 0.95937 0.42949 0.0
O369 O 0.31749 0.96678 0.43174 0.0
C370 C 0.35895 0.99208 0.38677 0.0
C371 C 0.34343 0.97356 0.36479 0.0
C372 C 0.31831 0.99235 0.34795 0.0
C373 C 0.30996 0.02996 0.35301 0.0
C374 C 0.32399 0.04775 0.37602 0.0
C375 C 0.35109 0.02974 0.39146 0.0
C376 C 0.29818 0.97251 0.32653 0.0
C377 C 0.51229 0.94198 0.40827 0.0
C378 C 0.53963 0.91334 0.40915 0.0
C379 C 0.52397 0.97821 0.40072 0.0
C380 C 0.56131 0.98557 0.39414 0.0
C381 C 0.5883 0.95768 0.39715 0.0
C382 C 0.57787 0.92242 0.40729 0.0
N383 N 0.47603 0.93557 0.42068 0.0
N384 N 0.37444 0.97063 0.40795 0.0
N385 N 0.41766 0.91411 0.38645 0.0
C386 C 0.40391 0.87768 0.39411 0.0
C387 C 0.42881 0.84731 0.39633 0.0
C388 C 0.36699 0.87387 0.40353 0.0
C389 C 0.4171 0.81341 0.40836 0.0
H390 H 0.45756 0.85073 0.38954 0.0
C391 C 0.38033 0.81059 0.41851 0.0
C392 C 0.35526 0.84093 0.41662 0.0
C393 C 0.44349 0.78143 0.41154 0.0
H394 H 0.34757 0.89696 0.40108 0.0
H395 H 0.37142 0.78495 0.42837 0.0
C396 C 0.31734 0.83853 0.42904 0.0
O397 O 0.43167 0.749 0.42289 0.0
O398 O 0.47607 0.78427 0.40404 0.0
O399 O 0.29672 0.86607 0.4295 0.0
O400 O 0.30549 0.80596 0.44017 0.0
H401 H 0.44834 0.72781 0.42545 0.0
H402 H 0.28094 0.80381 0.44841 0.0
N403 N 0.44109 0.98251 0.38198 0.0
C404 C 0.44371 0.01977 0.38566 0.0
C405 C 0.44826 0.04296 0.36334 0.0
C406 C 0.44785 0.02592 0.33782 0.0
C407 C 0.4421 0.98673 0.33511 0.0
C408 C 0.438 0.96524 0.35837 0.0
N409 N 0.43551 0.00159 0.43141 0.0
C410 C 0.44133 0.03067 0.41402 0.0
O411 O 0.44784 0.0652 0.42225 0.0
C412 C 0.42507 0.92593 0.36059 0.0
O413 O 0.32449 0.88923 0.34167 0.0
O414 O 0.36281 0.84509 0.32807 0.0
C415 C 0.43801 0.00617 0.45978 0.0
C416 C 0.40852 0.02306 0.4737 0.0
C417 C 0.41138 0.02976 0.50117 0.0
C418 C 0.44416 0.0177 0.51486 0.0
C419 C 0.4749 2e-05 0.50104 0.0
C420 C 0.47111 -0.00382 0.47308 0.0
O421 O 0.39367 0.95881 0.27476 0.0
O422 O 0.3342 0.9668 0.2687 0.0
O423 O 0.31337 0.94584 0.31397 0.0
O424 O 0.26651 0.98379 0.318 0.0
O425 O 0.41974 0.90446 0.33836 0.0
C426 C 0.29388 0.85841 0.26551 0.0
O427 O 0.27101 0.88612 0.26675 0.0
O428 O 0.32859 0.86121 0.27288 0.0
C429 C 0.33612 0.85546 0.34359 0.0
H430 H 0.33258 0.92566 0.47977 0.0
H431 H 0.44529 0.88265 0.49302 0.0
H432 H 0.37852 0.89 0.50807 0.0
H433 H 0.34878 0.94402 0.36235 0.0
H434 H 0.28865 0.04364 0.34096 0.0
H435 H 0.36049 0.04247 0.41001 0.0
H436 H 0.53162 0.88517 0.41516 0.0
H437 H 0.50614 0.00202 0.40229 0.0
H438 H 0.61756 0.965 0.39412 0.0
H439 H 0.45131 0.07311 0.36546 0.0
H440 H 0.45084 0.04319 0.32013 0.0
H441 H 0.43982 0.97401 0.31554 0.0
H442 H 0.38315 0.03086 0.46298 0.0
H443 H 0.4444 0.0218 0.5362 0.0
H444 H 0.49365 0.98576 0.46084 0.0
Cd445 Cd 0.33095 0.11465 0.55554 0.0
C446 C 0.25841 0.11762 0.51437 0.0
C447 C 0.32102 0.22289 0.69398 0.0
O448 O 0.33276 0.25238 0.70752 0.0
Cd449 Cd 0.28082 0.01921 0.52313 0.0
C450 C 0.32387 0.18527 0.70569 0.0
C451 C 0.31463 0.11116 0.72306 0.0
C452 C 0.29997 0.12381 0.69874 0.0
N453 N 0.30621 0.15935 0.6913 0.0
C454 C 0.33913 0.17492 0.73044 0.0
C455 C 0.33462 0.13725 0.73896 0.0
Co456 Co 0.28038 0.176 0.66157 0.0
C457 C 0.27653 0.10356 0.67951 0.0
O458 O 0.26912 0.06745 0.68176 0.0
C459 C 0.24376 0.10891 0.63681 0.0
C460 C 0.26224 0.09342 0.61479 0.0
C461 C 0.24342 0.06831 0.59795 0.0
C462 C 0.20583 0.05993 0.60305 0.0
C463 C 0.18808 0.07393 0.62608 0.0
C464 C 0.20611 0.10103 0.64153 0.0
C465 C 0.26324 0.0483 0.57646 0.0
C466 C 0.29387 0.26225 0.65827 0.0
C467 C 0.32252 0.28959 0.65915 0.0
C468 C 0.25764 0.27394 0.65073 0.0
C469 C 0.25029 0.31128 0.64413 0.0
C470 C 0.27818 0.33827 0.64713 0.0
C471 C 0.31344 0.32783 0.65728 0.0
N472 N 0.30028 0.22601 0.6707 0.0
N473 N 0.26525 0.1244 0.65797 0.0
N474 N 0.32177 0.16764 0.63648 0.0
C475 C 0.3582 0.1539 0.64413 0.0
C476 C 0.38857 0.17879 0.64635 0.0
C477 C 0.36202 0.11697 0.65354 0.0
C478 C 0.42248 0.16708 0.65837 0.0
H479 H 0.38514 0.20754 0.63956 0.0
C480 C 0.4253 0.13031 0.66852 0.0
C481 C 0.39497 0.10524 0.66663 0.0
C482 C 0.45445 0.19347 0.66154 0.0
H483 H 0.33893 0.09755 0.65109 0.0
H484 H 0.45095 0.1214 0.67837 0.0
C485 C 0.39737 0.06732 0.67905 0.0
O486 O 0.48689 0.18165 0.67288 0.0
O487 O 0.45161 0.22605 0.65405 0.0
O488 O 0.36984 0.0467 0.6795 0.0
O489 O 0.42994 0.05547 0.69017 0.0
H490 H 0.50808 0.19832 0.67543 0.0
H491 H 0.43209 0.03092 0.69841 0.0
N492 N 0.25336 0.19105 0.632 0.0
C493 C 0.2161 0.19368 0.63567 0.0
C494 C 0.19292 0.19825 0.61335 0.0
C495 C 0.20998 0.19788 0.58783 0.0
C496 C 0.24917 0.19215 0.58513 0.0
C497 C 0.27065 0.188 0.60839 0.0
N498 N 0.23428 0.18547 0.68142 0.0
C499 C 0.2052 0.19129 0.66403 0.0
O500 O 0.17067 0.1978 0.67226 0.0
C501 C 0.30997 0.17509 0.61061 0.0
O502 O 0.34669 0.07472 0.5917 0.0
O503 O 0.39088 0.11291 0.57801 0.0
C504 C 0.22971 0.18794 0.7098 0.0
C505 C 0.2129 0.1584 0.7237 0.0
C506 C 0.20626 0.16121 0.75118 0.0
C507 C 0.21828 0.194 0.76488 0.0
C508 C 0.23588 0.22478 0.75107 0.0
C509 C 0.23967 0.22104 0.7231 0.0
O510 O 0.27738 0.14449 0.52469 0.0
O511 O 0.27047 0.08501 0.51888 0.0
O512 O 0.28993 0.06357 0.56399 0.0
O513 O 0.2518 0.01682 0.56769 0.0
O514 O 0.33147 0.16982 0.5884 0.0
C515 C 0.37732 0.0437 0.51546 0.0
O516 O 0.34953 0.0209 0.51658 0.0
O517 O 0.37458 0.07839 0.5229 0.0
C518 C 0.38049 0.08627 0.59357 0.0
H519 H 0.31024 0.08255 0.72978 0.0
H520 H 0.35322 0.19528 0.74304 0.0
H521 H 0.34589 0.12851 0.75808 0.0
H522 H 0.29176 0.09881 0.61232 0.0
H523 H 0.19213 0.03863 0.591 0.0
H524 H 0.19341 0.1104 0.6601 0.0
H525 H 0.35068 0.28158 0.66516 0.0
H526 H 0.23383 0.25611 0.65231 0.0
H527 H 0.27086 0.36752 0.64409 0.0
H528 H 0.16277 0.20131 0.61546 0.0
H529 H 0.19271 0.20091 0.57014 0.0
H530 H 0.26191 0.18992 0.56556 0.0
H531 H 0.20512 0.13304 0.71297 0.0
H532 H 0.21422 0.19421 0.78623 0.0
H533 H 0.25002 0.24362 0.71087 0.0
Cd534 Cd 0.12101 0.08097 0.80555 0.0
C535 C 0.11769 0.00924 0.7644 0.0
C536 C 0.01301 0.07101 0.94401 0.0
O537 O 0.98351 0.08274 0.95755 0.0
Cd538 Cd 0.21602 0.03042 0.77269 0.0
C539 C 0.05062 0.07385 0.95571 0.0
C540 C 0.12474 0.06463 0.97307 0.0
C541 C 0.11208 0.04996 0.94875 0.0
N542 N 0.07655 0.0562 0.94132 0.0
C543 C 0.06098 0.08912 0.98046 0.0
C544 C 0.09866 0.08462 0.98898 0.0
Co545 Co 0.05989 0.03037 0.91159 0.0
C546 C 0.13233 0.02652 0.92952 0.0
O547 O 0.16844 0.0191 0.93177 0.0
C548 C 0.12697 -0.00631 0.88685 0.0
C549 C 0.14242 0.01209 0.8648 0.0
C550 C 0.16753 -0.00675 0.84796 0.0
C551 C 0.17594 0.95568 0.85311 0.0
C552 C 0.16198 0.93799 0.87618 0.0
C553 C 0.1349 0.95605 0.89162 0.0
C554 C 0.18738 0.01302 0.82638 0.0
C555 C 0.97364 0.04389 0.90829 0.0
C556 C 0.94631 0.07256 0.90916 0.0
C557 C 0.96194 0.00767 0.90074 0.0
C558 C 0.9246 0.00034 0.89415 0.0
C559 C 0.89762 0.02825 0.89715 0.0
C560 C 0.90807 0.0635 0.90729 0.0
N561 N 0.00989 0.05028 0.92072 0.0
N562 N 0.11149 0.01524 0.90798 0.0
N563 N 0.06824 0.07177 0.88651 0.0
C564 C 0.08197 0.1082 0.89416 0.0
C565 C 0.05708 0.13857 0.89638 0.0
C566 C 0.1189 0.11202 0.90357 0.0
C567 C 0.06879 0.17249 0.90839 0.0
H568 H 0.02833 0.13515 0.88958 0.0
C569 C 0.10556 0.17531 0.91854 0.0
C570 C 0.13064 0.14497 0.91666 0.0
C571 C 0.0424 0.20447 0.91155 0.0
H572 H 0.13832 0.08893 0.90112 0.0
H573 H 0.11448 0.20096 0.92838 0.0
C574 C 0.16856 0.14738 0.92906 0.0
O575 O 0.05423 0.2369 0.9229 0.0
O576 O 0.00983 0.20163 0.90405 0.0
O577 O 0.18918 0.11985 0.92951 0.0
O578 O 0.18042 0.17995 0.94018 0.0
H579 H 0.03756 0.2581 0.92545 0.0
H580 H 0.20497 0.1821 0.94842 0.0
N581 N 0.04483 0.00337 0.88202 0.0
C582 C 0.0422 0.96611 0.88567 0.0
C583 C 0.0376 0.94294 0.86335 0.0
C584 C 0.03793 0.96002 0.83783 0.0
C585 C 0.04366 -0.00079 0.83514 0.0
C586 C 0.04784 0.02068 0.85841 0.0
N587 N 0.05042 0.98427 0.93142 0.0
C588 C 0.04459 0.9552 0.91404 0.0
O589 O 0.03807 0.92067 0.92226 0.0
C590 C 0.06073 0.06 0.86065 0.0
O591 O 0.1609 0.09666 0.84175 0.0
O592 O 0.12285 0.14094 0.82798 0.0
C593 C 0.04795 0.97972 0.9598 0.0
C594 C 0.07752 0.96298 0.97371 0.0
C595 C 0.07474 0.95638 1.00119 0.0
C596 C 0.04192 0.96836 0.01489 0.0
C597 C 0.01111 0.98591 1.00107 0.0
C598 C 0.01484 0.98966 0.9731 0.0
O599 O 0.09045 0.02771 0.77465 0.0
O600 O 0.14993 0.02209 0.76905 0.0
O601 O 0.17202 0.03974 0.81401 0.0
O602 O 0.21865 0.00141 0.81733 0.0
O603 O 0.06593 0.08154 0.83845 0.0
C604 C 0.19232 0.1271 0.76543 0.0
O605 O 0.21506 0.09924 0.76643 0.0
O606 O 0.15764 0.12444 0.77295 0.0
C607 C 0.14944 0.1305 0.84357 0.0
H608 H 0.15335 0.06024 0.97979 0.0
H609 H 0.04062 0.10321 0.99306 0.0
H610 H 0.1074 0.09588 0.0081 0.0
H611 H 0.13699 0.0416 0.86227 0.0
H612 H 0.19723 0.94196 0.84106 0.0
H613 H 0.12557 0.9434 0.91022 0.0
H614 H 0.95434 0.10072 0.91518 0.0
H615 H 0.97976 0.98386 0.90231 0.0
H616 H 0.86836 0.02094 0.89411 0.0
H617 H 0.03454 0.91279 0.86545 0.0
H618 H 0.03488 0.94277 0.82014 0.0
H619 H 0.04583 0.01197 0.81559 0.0
H620 H 0.10288 0.9552 0.96298 0.0
H621 H 0.04171 0.96431 0.03624 0.0
H622 H 0.99225 -2e-05 0.96085 0.0
Cd623 Cd 0.15478 0.87074 0.05557 0.0
C624 C 0.22559 0.86709 0.01444 0.0
C625 C 0.16489 0.76301 0.19404 0.0
O626 O 0.15314 0.73352 0.20758 0.0
Cd627 Cd 0.20573 0.96523 0.02221 0.0
C628 C 0.16207 0.80063 0.20574 0.0
C629 C 0.17131 0.87475 0.22309 0.0
C630 C 0.186 0.86207 0.19878 0.0
N631 N 0.17975 0.82653 0.19136 0.0
C632 C 0.14679 0.811 0.23049 0.0
C633 C 0.1513 0.84868 0.23899 0.0
Co634 Co 0.20555 0.80986 0.16162 0.0
C635 C 0.20943 0.88231 0.17953 0.0
O636 O 0.21687 0.91841 0.18178 0.0
C637 C 0.24222 0.87693 0.13685 0.0
C638 C 0.22381 0.89239 0.1148 0.0
C639 C 0.24267 0.91744 0.09793 0.0
C640 C 0.28024 0.92583 0.10307 0.0
C641 C 0.29794 0.91186 0.12613 0.0
C642 C 0.27987 0.8848 0.14158 0.0
C643 C 0.22293 0.93715 0.07628 0.0
C644 C 0.19201 0.72362 0.15832 0.0
C645 C 0.16334 0.6963 0.15919 0.0
C646 C 0.22823 0.71191 0.15077 0.0
C647 C 0.23555 0.67458 0.14416 0.0
C648 C 0.20764 0.64761 0.14714 0.0
C649 C 0.17239 0.65806 0.1573 0.0
N650 N 0.18563 0.75987 0.17076 0.0
N651 N 0.22069 0.86146 0.158 0.0
N652 N 0.16412 0.81821 0.13656 0.0
C653 C 0.1277 0.83194 0.14422 0.0
C654 C 0.09732 0.80706 0.14642 0.0
C655 C 0.12388 0.86888 0.15363 0.0
C656 C 0.06339 0.81879 0.15841 0.0
H657 H 0.10074 0.77831 0.13962 0.0
C658 C 0.06056 0.85556 0.16855 0.0
C659 C 0.09091 0.88063 0.16669 0.0
C660 C 0.0314 0.79241 0.16155 0.0
H661 H 0.14697 0.88829 0.15118 0.0
H662 H 0.0349 0.86449 0.17838 0.0
C663 C 0.08849 0.91856 0.17908 0.0
O664 O -0.00104 0.80425 0.17288 0.0
O665 O 0.03423 0.75984 0.15405 0.0
O666 O 0.11603 0.93918 0.17953 0.0
O667 O 0.05592 0.93042 0.19019 0.0
H668 H 0.97775 0.78758 0.17541 0.0
H669 H 0.05376 0.95498 0.19842 0.0
N670 N 0.23252 0.79478 0.13204 0.0
C671 C 0.26978 0.79215 0.13568 0.0
C672 C 0.29292 0.78753 0.11334 0.0
C673 C 0.27581 0.78783 0.08784 0.0
C674 C 0.23661 0.79354 0.08517 0.0
C675 C 0.21518 0.79777 0.10844 0.0
N676 N 0.25168 0.80037 0.18144 0.0
C677 C 0.28073 0.79455 0.16403 0.0
O678 O 0.31527 0.78801 0.17224 0.0
C679 C 0.17585 0.81065 0.1107 0.0
O680 O 0.13912 0.91058 0.09179 0.0
O681 O 0.09477 0.87266 0.07795 0.0
C682 C 0.25628 0.79784 0.20981 0.0
C683 C 0.27323 0.82729 0.22373 0.0
C684 C 0.27994 0.82438 0.2512 0.0
C685 C 0.26783 0.79162 0.26488 0.0
C686 C 0.2501 0.76093 0.25106 0.0
C687 C 0.24625 0.76474 0.2231 0.0
O688 O 0.20777 0.83944 0.02462 0.0
O689 O 0.21177 0.89889 0.01918 0.0
O690 O 0.19618 0.9217 0.06402 0.0
O691 O 0.23474 0.96817 0.06692 0.0
O692 O 0.15425 0.81578 0.08852 0.0
C693 C 0.10887 0.94243 0.01542 0.0
O694 O 0.1368 0.96511 0.01629 0.0
O695 O 0.11148 0.90777 0.02299 0.0
C696 C 0.10524 0.89921 0.09357 0.0
H697 H 0.17569 0.90337 0.2298 0.0
H698 H 0.13267 0.79066 0.24308 0.0
H699 H 0.14002 0.85744 0.2581 0.0
H700 H 0.1943 0.88697 0.11229 0.0
H701 H 0.29397 0.94709 0.09099 0.0
H702 H 0.29255 0.87542 0.16016 0.0
H703 H 0.13519 0.70433 0.16521 0.0
H704 H 0.25205 0.72973 0.15236 0.0
H705 H 0.21494 0.61835 0.14408 0.0
H706 H 0.32307 0.78447 0.11543 0.0
H707 H 0.29304 0.78475 0.07014 0.0
H708 H 0.22383 0.79566 0.06563 0.0
H709 H 0.28105 0.85265 0.21303 0.0
H710 H 0.27194 0.79138 0.28622 0.0
H711 H 0.23579 0.74221 0.21086 0.0
Cd712 Cd 0.61924 0.90403 0.80566 0.0
C713 C 0.6149 0.96944 0.76429 0.0
C714 C 0.51315 0.91487 0.94427 0.0
O715 O 0.48366 0.9032 0.95784 0.0
Cd716 Cd 0.71034 0.95596 0.76993 0.0
C717 C 0.55079 0.91204 0.95592 0.0
C718 C 0.62495 0.92122 0.97316 0.0
C719 C 0.61224 0.93586 0.94884 0.0
N720 N 0.57668 0.92964 0.94148 0.0
C721 C 0.5612 0.89679 0.98067 0.0
C722 C 0.59891 0.90128 0.98912 0.0
Co723 Co 0.55995 0.95541 0.91175 0.0
C724 C 0.63245 0.95928 0.92958 0.0
O725 O 0.66853 0.96681 0.93185 0.0
C726 C 0.62696 0.99264 0.88712 0.0
C727 C 0.64166 0.97483 0.86458 0.0
C728 C 0.66645 -0.00599 0.84766 0.0
C729 C 0.67564 0.03119 0.85342 0.0
C730 C 0.66236 0.04832 0.87693 0.0
C731 C 0.63545 0.03003 0.8924 0.0
C732 C 0.68454 0.97487 0.82504 0.0
C733 C 0.47377 0.94159 0.90843 0.0
C734 C 0.44671 0.91268 0.9093 0.0
C735 C 0.46177 0.97771 0.90088 0.0
C736 C 0.42433 0.98473 0.89438 0.0
C737 C 0.39759 0.95658 0.89743 0.0
C738 C 0.40839 0.92135 0.90745 0.0
N739 N 0.50999 0.93552 0.92095 0.0
N740 N 0.61158 0.97058 0.90805 0.0
N741 N 0.56817 0.91395 0.88673 0.0
C742 C 0.58192 0.87754 0.89438 0.0
C743 C 0.55707 0.84714 0.89656 0.0
C744 C 0.61887 0.87373 0.90373 0.0
C745 C 0.56884 0.81321 0.90851 0.0
H746 H 0.52831 0.85055 0.88978 0.0
C747 C 0.60563 0.81039 0.91863 0.0
C748 C 0.63067 0.84076 0.91676 0.0
C749 C 0.54249 0.78119 0.91163 0.0
H750 H 0.63827 0.89683 0.90125 0.0
H751 H 0.61459 0.78472 0.92843 0.0
C752 C 0.66863 0.83835 0.92911 0.0
O753 O 0.55436 0.74874 0.92293 0.0
O754 O 0.50992 0.784 0.90412 0.0
O755 O 0.68926 0.86588 0.92952 0.0
O756 O 0.68052 0.80578 0.94021 0.0
H757 H 0.53772 0.72752 0.92545 0.0
H758 H 0.70509 0.80362 0.94841 0.0
N759 N 0.54478 0.98233 0.88219 0.0
C760 C 0.54208 0.01959 0.8858 0.0
C761 C 0.53726 0.04267 0.86345 0.0
C762 C 0.53732 0.02547 0.83797 0.0
C763 C 0.54293 0.98625 0.83534 0.0
C764 C 0.54745 0.96489 0.85862 0.0
N765 N 0.55047 0.00152 0.93154 0.0
C766 C 0.54454 0.03056 0.91414 0.0
O767 O 0.53795 0.06509 0.92235 0.0
C768 C 0.5602 0.92551 0.86091 0.0
O769 O 0.65929 0.889 0.84202 0.0
O770 O 0.62204 0.84417 0.828 0.0
C771 C 0.54786 0.00602 0.9599 0.0
C772 C 0.57748 0.0225 0.9739 0.0
C773 C 0.57467 0.02899 1.00139 0.0
C774 C 0.54171 0.01721 0.015 0.0
C775 C 0.51081 -0.00011 1.00108 0.0
C776 C 0.51464 -0.00382 0.97312 0.0
O777 O 0.5854 0.95605 0.77497 0.0
O778 O 0.64396 0.95007 0.7681 0.0
O779 O 0.66843 0.94793 0.81354 0.0
O780 O 0.71432 0.98726 0.81417 0.0
O781 O 0.56478 0.90365 0.83881 0.0
C782 C 0.69294 0.859 0.76552 0.0
O783 O 0.71555 0.88705 0.76615 0.0
O784 O 0.65824 0.86155 0.77315 0.0
C785 C 0.64845 0.85492 0.84365 0.0
H786 H 0.65359 0.9256 0.97983 0.0
H787 H 0.54087 0.88273 0.9933 0.0
H788 H 0.6077 0.89003 0.00823 0.0
H789 H 0.63573 0.94549 0.86155 0.0
H790 H 0.69678 0.04504 0.84132 0.0
H791 H 0.62655 0.04224 0.91125 0.0
H792 H 0.45502 0.88459 0.91529 0.0
H793 H 0.47948 0.00166 0.90237 0.0
H794 H 0.36826 0.96364 0.89445 0.0
H795 H 0.53418 0.07282 0.86551 0.0
H796 H 0.53405 0.04264 0.82026 0.0
H797 H 0.54467 0.97338 0.81582 0.0
H798 H 0.60291 0.03018 0.96321 0.0
H799 H 0.54143 0.02131 0.03634 0.0
H800 H 0.49205 0.98594 0.96084 0.0
Cd801 Cd 0.83223 0.86872 0.55567 0.0
C802 C 0.76823 0.86473 0.51412 0.0
C803 C 0.82094 0.76314 0.69434 0.0
O804 O 0.83265 0.73367 0.70791 0.0
Cd805 Cd 0.78044 0.95896 0.51939 0.0
C806 C 0.82377 0.8008 0.70596 0.0
C807 C 0.81457 0.87501 0.72313 0.0
C808 C 0.79997 0.86226 0.6988 0.0
N809 N 0.8062 0.82668 0.69148 0.0
C810 C 0.83898 0.81126 0.73071 0.0
C811 C 0.83449 0.84898 0.73912 0.0
Co812 Co 0.78048 0.8099 0.66174 0.0
C813 C 0.77659 0.88244 0.67949 0.0
O814 O 0.76902 0.91851 0.68175 0.0
C815 C 0.74318 0.87681 0.63705 0.0
C816 C 0.76084 0.89124 0.61436 0.0
C817 C 0.74152 0.91577 0.59733 0.0
C818 C 0.70441 0.92515 0.60322 0.0
C819 C 0.68745 0.91212 0.62686 0.0
C820 C 0.70582 0.88532 0.64239 0.0
C821 C 0.76046 0.93339 0.57445 0.0
C822 C 0.79435 0.72375 0.65846 0.0
C823 C 0.82336 0.6968 0.65927 0.0
C824 C 0.75825 0.71163 0.65097 0.0
C825 C 0.75134 0.67414 0.64452 0.0
C826 C 0.7796 0.6475 0.64754 0.0
C827 C 0.81484 0.65844 0.65746 0.0
N828 N 0.80033 0.75997 0.67101 0.0
N829 N 0.76534 0.86153 0.65797 0.0
N830 N 0.822 0.81804 0.63676 0.0
C831 C 0.85839 0.83182 0.64443 0.0
C832 C 0.88881 0.807 0.64661 0.0
C833 C 0.86217 0.86879 0.65376 0.0
C834 C 0.92274 0.8188 0.65855 0.0
H835 H 0.88543 0.77824 0.63983 0.0
C836 C 0.92552 0.8556 0.66866 0.0
C837 C 0.89513 0.88062 0.66679 0.0
C838 C 0.95478 0.79248 0.66166 0.0
H839 H 0.83906 0.88818 0.65125 0.0
H840 H 0.95119 0.86458 0.67845 0.0
C841 C 0.89752 0.9186 0.67912 0.0
O842 O 0.98722 0.80437 0.67295 0.0
O843 O 0.95199 0.75991 0.65415 0.0
O844 O 0.86998 0.93921 0.67952 0.0
O845 O 0.93008 0.93051 0.69022 0.0
H846 H 0.00846 0.78775 0.67546 0.0
H847 H 0.93222 0.95509 0.69841 0.0
N848 N 0.75362 0.79466 0.63219 0.0
C849 C 0.71636 0.79193 0.63576 0.0
C850 C 0.69333 0.78703 0.6134 0.0
C851 C 0.71058 0.787 0.58794 0.0
C852 C 0.74981 0.79259 0.58534 0.0
C853 C 0.77112 0.79721 0.60863 0.0
N854 N 0.73433 0.8005 0.6815 0.0
C855 C 0.70533 0.79447 0.66409 0.0
O856 O 0.67081 0.78786 0.67228 0.0
C857 C 0.81051 0.80994 0.61095 0.0
O858 O 0.84694 0.90897 0.59201 0.0
O859 O 0.89192 0.8718 0.57811 0.0
C860 C 0.7298 0.79792 0.70986 0.0
C861 C 0.71336 0.82758 0.72384 0.0
C862 C 0.70684 0.8248 0.75133 0.0
C863 C 0.71853 0.79181 0.76495 0.0
C864 C 0.73584 0.76088 0.75105 0.0
C865 C 0.73957 0.7647 0.72309 0.0
O866 O 0.7801 0.8349 0.5252 0.0
O867 O 0.78912 0.89288 0.51739 0.0
O868 O 0.78755 0.91722 0.56317 0.0
O869 O 0.74798 0.96289 0.56325 0.0
O870 O 0.83246 0.81437 0.58888 0.0
C871 C 0.87709 0.94294 0.51559 0.0
O872 O 0.84911 0.96563 0.51633 0.0
O873 O 0.8745 0.90819 0.52313 0.0
C874 C 0.88106 0.89823 0.59369 0.0
H875 H 0.81018 0.90365 0.72977 0.0
H876 H 0.85302 0.79094 0.74337 0.0
H877 H 0.84571 0.8578 0.75824 0.0
H878 H 0.79015 0.88525 0.61124 0.0
H879 H 0.69051 0.94619 0.59106 0.0
H880 H 0.6937 0.87654 0.6613 0.0
H881 H 0.85143 0.70524 0.66522 0.0
H882 H 0.73425 0.72929 0.65246 0.0
H883 H 0.77264 0.61813 0.6446 0.0
H884 H 0.66317 0.78395 0.61543 0.0
H885 H 0.69345 0.78366 0.57022 0.0
H886 H 0.76272 0.79422 0.56584 0.0
H887 H 0.70573 0.85301 0.71314 0.0
H888 H 0.7144 0.79151 0.78629 0.0
H889 H 0.74979 0.7421 0.71081 0.0
Cd890 Cd 0.86627 0.08164 0.30565 0.0
C891 C 0.87069 0.01509 0.26437 0.0
C892 C 0.97276 0.07101 0.44424 0.0
O893 O 0.00225 0.08268 0.45781 0.0
Cd894 Cd 0.77444 0.02976 0.27038 0.0
C895 C 0.93512 0.07384 0.4559 0.0
C896 C 0.86097 0.06464 0.47316 0.0
C897 C 0.87367 0.05 0.44883 0.0
N898 N 0.90923 0.05623 0.44146 0.0
C899 C 0.92472 0.08908 0.48065 0.0
C900 C 0.88702 0.08459 0.48911 0.0
Co901 Co 0.92595 0.03045 0.41172 0.0
C902 C 0.85346 0.02657 0.42958 0.0
O903 O 0.81738 0.01906 0.43186 0.0
C904 C 0.85891 -0.00672 0.3871 0.0
C905 C 0.84401 0.01122 0.36467 0.0
C906 C 0.81907 0.99214 0.34782 0.0
C907 C 0.81002 0.95489 0.35347 0.0
C908 C 0.82348 0.93763 0.37687 0.0
C909 C 0.85048 0.95586 0.39231 0.0
C910 C 0.8006 0.01144 0.32543 0.0
C911 C 0.01213 0.04434 0.40839 0.0
C912 C 0.03915 0.07328 0.40925 0.0
C913 C 0.02417 0.00822 0.40085 0.0
C914 C 0.06164 0.00123 0.3944 0.0
C915 C 0.08835 0.02942 0.39747 0.0
C916 C 0.07749 0.06465 0.40744 0.0
N917 N 0.9759 0.05039 0.42091 0.0
N918 N 0.87433 0.01525 0.40806 0.0
N919 N 0.91767 0.0719 0.3867 0.0
C920 C 0.90393 0.10831 0.39435 0.0
C921 C 0.92879 0.13871 0.39653 0.0
C922 C 0.86698 0.11212 0.40372 0.0
C923 C 0.91703 0.17264 0.40849 0.0
H924 H 0.95755 0.13529 0.38974 0.0
C925 C 0.88025 0.17546 0.41862 0.0
C926 C 0.8552 0.1451 0.41675 0.0
C927 C 0.94339 0.20465 0.41161 0.0
H928 H 0.84758 0.08902 0.40124 0.0
H929 H 0.8713 0.20113 0.42843 0.0
C930 C 0.81725 0.14751 0.42911 0.0
O931 O 0.93154 0.2371 0.42292 0.0
O932 O 0.97596 0.20183 0.40411 0.0
O933 O 0.79662 0.11998 0.42954 0.0
O934 O 0.80537 0.18008 0.44022 0.0
H935 H 0.94818 0.25832 0.42545 0.0
H936 H 0.7808 0.18224 0.44843 0.0
N937 N 0.94111 0.00353 0.38216 0.0
C938 C 0.94385 0.96628 0.38579 0.0
C939 C 0.94863 0.94318 0.36344 0.0
C940 C 0.94849 0.96035 0.33796 0.0
C941 C 0.94282 -0.00044 0.33531 0.0
C942 C 0.93835 0.02094 0.35858 0.0
N943 N 0.93547 0.98436 0.43153 0.0
C944 C 0.94142 0.95532 0.41413 0.0
O945 O 0.94802 0.9208 0.42235 0.0
C946 C 0.92555 0.0603 0.36087 0.0
O947 O 0.82634 0.09685 0.34201 0.0
O948 O 0.86367 0.14157 0.32796 0.0
C949 C 0.93806 0.97987 0.45989 0.0
C950 C 0.90844 0.96338 0.47388 0.0
C951 C 0.91125 0.95687 0.50137 0.0
C952 C 0.94422 0.96861 0.51498 0.0
C953 C 0.97512 0.98595 0.50107 0.0
C954 C 0.97128 0.9897 0.47311 0.0
O955 O 0.89987 0.02958 0.27482 0.0
O956 O 0.84097 0.03325 0.26856 0.0
O957 O 0.81661 0.03832 0.31376 0.0
O958 O 0.77057 -0.00085 0.31483 0.0
O959 O 0.92084 0.0821 0.33875 0.0
C960 C 0.79299 0.12685 0.26549 0.0
O961 O 0.7704 0.09878 0.26609 0.0
O962 O 0.82766 0.1243 0.27316 0.0
C963 C 0.83727 0.13089 0.34364 0.0
H964 H 0.83234 0.06025 0.47984 0.0
H965 H 0.94505 0.10315 0.49327 0.0
H966 H 0.87823 0.09583 0.50822 0.0
H967 H 0.84987 0.04058 0.36173 0.0
H968 H 0.78881 0.94108 0.3414 0.0
H969 H 0.85948 0.94356 0.4111 0.0
H970 H 0.0308 0.10137 0.41522 0.0
H971 H 0.00647 0.98427 0.40232 0.0
H972 H 0.1177 0.02238 0.39452 0.0
H973 H 0.95174 0.91303 0.36551 0.0
H974 H 0.95172 0.94316 0.32025 0.0
H975 H 0.94097 0.0124 0.31579 0.0
H976 H 0.88301 0.95571 0.46319 0.0
H977 H 0.94451 0.96448 0.53631 0.0
H978 H -0.00613 -4e-05 0.46084 0.0
Cd979 Cd 0.65371 0.11711 0.05566 0.0
C980 C 0.71785 0.12113 0.01415 0.0
C981 C 0.66495 0.22274 0.19434 0.0
O982 O 0.65324 0.25222 0.20791 0.0
Cd983 Cd 0.70551 0.02678 0.01945 0.0
C984 C 0.66213 0.18508 0.20596 0.0
C985 C 0.67134 0.11088 0.22312 0.0
C986 C 0.68594 0.12363 0.1988 0.0
N987 N 0.6797 0.15921 0.19148 0.0
C988 C 0.64692 0.17462 0.23071 0.0
C989 C 0.65142 0.1369 0.23912 0.0
Co990 Co 0.70542 0.17599 0.16174 0.0
C991 C 0.70932 0.10346 0.17949 0.0
O992 O 0.71689 0.06738 0.18174 0.0
C993 C 0.74269 0.10909 0.13703 0.0
C994 C 0.725 0.09459 0.11438 0.0
C995 C 0.74432 0.07005 0.09735 0.0
C996 C 0.78145 0.06077 0.10319 0.0
C997 C 0.79845 0.07386 0.12679 0.0
C998 C 0.78008 0.10066 0.14232 0.0
C999 C 0.72535 0.05235 0.07451 0.0
C1000 C 0.69155 0.26214 0.15847 0.0
C1001 C 0.66253 0.28908 0.15927 0.0
C1002 C 0.72765 0.27426 0.15097 0.0
C1003 C 0.73455 0.31175 0.14453 0.0
C1004 C 0.70629 0.33839 0.14755 0.0
C1005 C 0.67105 0.32745 0.15746 0.0
N1006 N 0.68556 0.22592 0.17101 0.0
N1007 N 0.72056 0.12436 0.15796 0.0
N1008 N 0.6639 0.16783 0.13676 0.0
C1009 C 0.62751 0.15405 0.14443 0.0
C1010 C 0.59709 0.17887 0.1466 0.0
C1011 C 0.62373 0.11708 0.15376 0.0
C1012 C 0.56316 0.16706 0.15854 0.0
H1013 H 0.60047 0.20763 0.13983 0.0
C1014 C 0.56038 0.13027 0.16865 0.0
C1015 C 0.59077 0.10525 0.16678 0.0
C1016 C 0.53112 0.19338 0.16165 0.0
H1017 H 0.64684 0.09769 0.15125 0.0
H1018 H 0.53471 0.12129 0.17844 0.0
C1019 C 0.58838 0.06727 0.17911 0.0
O1020 O 0.49867 0.18149 0.17294 0.0
O1021 O 0.53391 0.22596 0.15415 0.0
O1022 O 0.61592 0.04666 0.17951 0.0
O1023 O 0.55582 0.05536 0.19021 0.0
H1024 H 0.47743 0.19811 0.17545 0.0
H1025 H 0.55368 0.03078 0.1984 0.0
N1026 N 0.73228 0.19123 0.13218 0.0
C1027 C 0.76953 0.19397 0.13576 0.0
C1028 C 0.79257 0.19886 0.1134 0.0
C1029 C 0.77532 0.19886 0.08794 0.0
C1030 C 0.73609 0.19326 0.08534 0.0
C1031 C 0.71478 0.18866 0.10863 0.0
N1032 N 0.75157 0.1854 0.1815 0.0
C1033 C 0.78057 0.19143 0.16408 0.0
O1034 O 0.81509 0.19805 0.17228 0.0
C1035 C 0.67539 0.17591 0.11094 0.0
O1036 O 0.63895 0.07688 0.092 0.0
O1037 O 0.59399 0.11406 0.07808 0.0
C1038 C 0.75611 0.18796 0.20985 0.0
C1039 C 0.77256 0.15829 0.22382 0.0
C1040 C 0.77909 0.16106 0.25131 0.0
C1041 C 0.76741 0.19406 0.26494 0.0
C1042 C 0.7501 0.22499 0.25104 0.0
C1043 C 0.74635 0.22117 0.22309 0.0
O1044 O 0.70584 0.15094 0.02518 0.0
O1045 O 0.69708 0.0929 0.01746 0.0
O1046 O 0.69827 0.0685 0.0632 0.0
O1047 O 0.73784 0.02282 0.06336 0.0
O1048 O 0.65345 0.17147 0.08887 0.0
C1049 C 0.60883 0.04292 0.01561 0.0
O1050 O 0.63682 0.02024 0.01634 0.0
O1051 O 0.61142 0.07768 0.02313 0.0
C1052 C 0.60484 0.08763 0.09367 0.0
H1053 H 0.67573 0.08223 0.22976 0.0
H1054 H 0.63287 0.19493 0.24337 0.0
H1055 H 0.64019 0.12807 0.25823 0.0
H1056 H 0.69567 0.10053 0.1113 0.0
H1057 H 0.79537 0.03973 0.09103 0.0
H1058 H 0.79223 0.10948 0.16121 0.0
H1059 H 0.63446 0.28064 0.16522 0.0
H1060 H 0.75164 0.2566 0.15247 0.0
H1061 H 0.71325 0.36776 0.14461 0.0
H1062 H 0.82272 0.20194 0.11543 0.0
H1063 H 0.79246 0.20219 0.07021 0.0
H1064 H 0.72318 0.19161 0.06583 0.0
H1065 H 0.78018 0.13287 0.21312 0.0
H1066 H 0.77156 0.19436 0.28628 0.0
H1067 H 0.73611 0.24377 0.21082 0.0
Cd1068 Cd 0.62148 0.08097 0.71059 0.0
C1069 C 0.61902 0.0074 0.75177 0.0
C1070 C 0.51304 0.07113 0.5721 0.0
O1071 O 0.48356 0.08279 0.55851 0.0
Cd1072 Cd 0.7174 0.0314 0.74242 0.0
C1073 C 0.55066 0.07389 0.56042 0.0
C1074 C 0.62477 0.0645 0.54308 0.0
C1075 C 0.61206 0.04987 0.5674 0.0
N1076 N 0.57654 0.0562 0.57482 0.0
C1077 C 0.56106 0.08912 0.53566 0.0
C1078 C 0.59874 0.08454 0.52716 0.0
Co1079 Co 0.5598 0.03042 0.60455 0.0
C1080 C 0.63225 0.02641 0.58665 0.0
O1081 O 0.66836 0.01895 0.58443 0.0
C1082 C 0.62685 -0.00616 0.62941 0.0
C1083 C 0.64244 0.01244 0.65134 0.0
C1084 C 0.66759 -0.00631 0.66819 0.0
C1085 C 0.67593 0.95607 0.66317 0.0
C1086 C 0.66185 0.9382 0.64021 0.0
C1087 C 0.63468 0.95615 0.62478 0.0
C1088 C 0.68779 0.01357 0.68955 0.0
C1089 C 0.4736 0.04418 0.60783 0.0
C1090 C 0.44638 0.07294 0.60691 0.0
C1091 C 0.46177 0.00801 0.61539 0.0
C1092 C 0.42438 0.00079 0.6219 0.0
C1093 C 0.3975 0.02879 0.61884 0.0
C1094 C 0.40811 0.06402 0.60873 0.0
N1095 N 0.50987 0.05044 0.59541 0.0
N1096 N 0.61137 0.0152 0.60818 0.0
N1097 N 0.56825 0.07179 0.62966 0.0
C1098 C 0.582 0.10821 0.622 0.0
C1099 C 0.55711 0.13858 0.61978 0.0
C1100 C 0.61892 0.11202 0.61257 0.0
C1101 C 0.56881 0.17249 0.60776 0.0
H1102 H 0.52836 0.13517 0.62659 0.0
C1103 C 0.60558 0.17531 0.5976 0.0
C1104 C 0.63065 0.14497 0.59948 0.0
C1105 C 0.54242 0.20447 0.60459 0.0
H1106 H 0.63833 0.08892 0.61499 0.0
H1107 H 0.61449 0.20096 0.58775 0.0
C1108 C 0.66856 0.14737 0.58706 0.0
O1109 O 0.55424 0.2369 0.59325 0.0
O1110 O 0.50984 0.20163 0.61208 0.0
O1111 O 0.68918 0.11983 0.58659 0.0
O1112 O 0.68042 0.17994 0.57594 0.0
H1113 H 0.53757 0.25809 0.59069 0.0
H1114 H 0.70496 0.18209 0.56769 0.0
N1115 N 0.54468 0.00344 0.63413 0.0
C1116 C 0.54201 0.96618 0.63047 0.0
C1117 C 0.53748 0.943 0.65279 0.0
C1118 C 0.53796 0.96004 0.67831 0.0
C1119 C 0.54376 -0.00079 0.68102 0.0
C1120 C 0.54785 0.0207 0.65775 0.0
N1121 N 0.55023 0.98432 0.5847 0.0
C1122 C 0.54437 0.95527 0.60211 0.0
O1123 O 0.5378 0.92074 0.5939 0.0
C1124 C 0.56084 0.05999 0.65553 0.0
O1125 O 0.66148 0.09672 0.67447 0.0
O1126 O 0.6231 0.14083 0.68805 0.0
C1127 C 0.54756 0.97968 0.55633 0.0
C1128 C 0.57683 0.96242 0.54239 0.0
C1129 C 0.5737 0.95545 0.51497 0.0
C1130 C 0.54093 0.96762 0.50135 0.0
C1131 C 0.51041 0.98564 0.51517 0.0
C1132 C 0.51443 0.98979 0.54309 0.0
O1133 O 0.59263 0.02698 0.74133 0.0
O1134 O 0.65208 0.01847 0.74752 0.0
O1135 O 0.67262 0.04021 0.70217 0.0
O1136 O 0.71954 0.00236 0.69797 0.0
O1137 O 0.56621 0.08145 0.67776 0.0
C1138 C 0.69197 0.12761 0.75068 0.0
O1139 O 0.71484 0.09991 0.74938 0.0
O1140 O 0.65727 0.12481 0.74329 0.0
C1141 C 0.64981 0.13048 0.67253 0.0
H1142 H 0.65338 0.06006 0.53637 0.0
H1143 H 0.54074 0.10324 0.52305 0.0
H1144 H 0.60752 0.09578 0.50804 0.0
H1145 H 0.63713 0.04199 0.65372 0.0
H1146 H 0.69727 0.94243 0.67522 0.0
H1147 H 0.6252 0.94334 0.60628 0.0
H1148 H 0.45451 0.10107 0.6009 0.0
H1149 H 0.47956 0.98414 0.61388 0.0
H1150 H 0.36821 0.02157 0.62184 0.0
H1151 H 0.5344 0.91285 0.65067 0.0
H1152 H 0.53499 0.94276 0.696 0.0
H1153 H 0.54611 0.01193 0.70058 0.0
H1154 H 0.60224 0.95458 0.55304 0.0
H1155 H 0.54054 0.96329 0.48004 0.0
H1156 H 0.49204 0.00055 0.55532 0.0
Cd1157 Cd 0.65502 0.87201 0.46061 0.0
C1158 C 0.73034 0.8706 0.50187 0.0
C1159 C 0.66476 0.76295 0.32224 0.0
O1160 O 0.65308 0.73345 0.30869 0.0
Cd1161 Cd 0.70324 0.96851 0.49131 0.0
C1162 C 0.66192 0.80056 0.31054 0.0
C1163 C 0.67122 0.87464 0.29313 0.0
C1164 C 0.68584 0.862 0.31747 0.0
N1165 N 0.67955 0.82649 0.32493 0.0
C1166 C 0.6467 0.81089 0.28576 0.0
C1167 C 0.65123 0.84855 0.27723 0.0
Co1168 Co 0.70543 0.80982 0.35465 0.0
C1169 C 0.7093 0.88225 0.33668 0.0
O1170 O 0.7167 0.91836 0.33444 0.0
C1171 C 0.74192 0.87691 0.37943 0.0
C1172 C 0.72331 0.89247 0.40137 0.0
C1173 C 0.74205 0.91762 0.41821 0.0
C1174 C 0.77969 0.92594 0.41321 0.0
C1175 C 0.79756 0.9119 0.39025 0.0
C1176 C 0.7796 0.88476 0.3748 0.0
C1177 C 0.72211 0.93808 0.4394 0.0
C1178 C 0.69194 0.72356 0.35793 0.0
C1179 C 0.66332 0.6962 0.35703 0.0
C1180 C 0.72818 0.71189 0.36546 0.0
C1181 C 0.73557 0.67455 0.372 0.0
C1182 C 0.7077 0.64754 0.36897 0.0
C1183 C 0.67243 0.65796 0.35885 0.0
N1184 N 0.6855 0.75983 0.34554 0.0
N1185 N 0.72056 0.86141 0.35822 0.0
N1186 N 0.66409 0.81824 0.37979 0.0
C1187 C 0.62766 0.83199 0.37215 0.0
C1188 C 0.5973 0.80709 0.36989 0.0
C1189 C 0.62385 0.86891 0.36271 0.0
C1190 C 0.56342 0.81879 0.35782 0.0
H1191 H 0.60072 0.77834 0.37668 0.0
C1192 C 0.5606 0.85555 0.34766 0.0
C1193 C 0.59093 0.88063 0.34957 0.0
C1194 C 0.53146 0.79238 0.35461 0.0
H1195 H 0.64694 0.88833 0.36516 0.0
H1196 H 0.53498 0.86445 0.33777 0.0
C1197 C 0.58855 0.91853 0.33712 0.0
O1198 O 0.49904 0.8042 0.34324 0.0
O1199 O 0.53431 0.7598 0.36209 0.0
O1200 O 0.6161 0.93913 0.33666 0.0
O1201 O 0.556 0.93038 0.32598 0.0
H1202 H 0.47786 0.78752 0.34066 0.0
H1203 H 0.55386 0.95491 0.31772 0.0
N1204 N 0.73249 0.79478 0.38421 0.0
C1205 C 0.76975 0.79217 0.3805 0.0
C1206 C 0.79299 0.78771 0.4028 0.0
C1207 C 0.77602 0.78823 0.42835 0.0
C1208 C 0.73684 0.79401 0.4311 0.0
C1209 C 0.71529 0.798 0.40785 0.0
N1210 N 0.7515 0.80034 0.33476 0.0
C1211 C 0.7806 0.79453 0.35213 0.0
O1212 O 0.81513 0.78804 0.34388 0.0
C1213 C 0.67598 0.81096 0.40567 0.0
O1214 O 0.63924 0.91227 0.42461 0.0
O1215 O 0.59532 0.87349 0.43788 0.0
C1216 C 0.75606 0.79787 0.30638 0.0
C1217 C 0.77296 0.82737 0.29247 0.0
C1218 C 0.77968 0.82452 0.265 0.0
C1219 C 0.76766 0.79172 0.25131 0.0
C1220 C 0.74997 0.76099 0.26511 0.0
C1221 C 0.74609 0.76478 0.29307 0.0
O1222 O 0.70979 0.84509 0.49115 0.0
O1223 O 0.72095 0.9044 0.49821 0.0
O1224 O 0.69552 0.92311 0.45221 0.0
O1225 O 0.7328 0.97032 0.44717 0.0
O1226 O 0.65463 0.81647 0.42794 0.0
C1227 C 0.60761 0.94152 0.50053 0.0
O1228 O 0.63506 0.96458 0.49886 0.0
O1229 O 0.61067 0.90675 0.4934 0.0
C1230 C 0.60558 0.90037 0.4225 0.0
H1231 H 0.67564 0.90324 0.28639 0.0
H1232 H 0.63262 0.79052 0.27317 0.0
H1233 H 0.64 0.85727 0.25809 0.0
H1234 H 0.69374 0.88721 0.40374 0.0
H1235 H 0.79331 0.94731 0.42525 0.0
H1236 H 0.79239 0.87534 0.35627 0.0
H1237 H 0.63514 0.7042 0.35103 0.0
H1238 H 0.75197 0.72974 0.36391 0.0
H1239 H 0.71505 0.61828 0.37198 0.0
H1240 H 0.82314 0.78466 0.40066 0.0
H1241 H 0.79334 0.78532 0.44602 0.0
H1242 H 0.72418 0.79645 0.45068 0.0
H1243 H 0.78075 0.85273 0.30319 0.0
H1244 H 0.7718 0.79147 0.22997 0.0
H1245 H 0.73567 0.74223 0.3053 0.0
Cd1246 Cd 0.86476 0.90482 0.21058 0.0
C1247 C 0.86787 0.97708 0.25172 0.0
C1248 C 0.9728 0.91476 0.07204 0.0
O1249 O 0.00227 0.9031 0.05844 0.0
Cd1250 Cd 0.76948 0.95517 0.24319 0.0
C1251 C 0.93517 0.91202 0.06036 0.0
C1252 C 0.86105 0.92141 0.04306 0.0
C1253 C 0.87378 0.93605 0.06738 0.0
N1254 N 0.90931 0.92972 0.07478 0.0
C1255 C 0.92475 0.89679 0.03561 0.0
C1256 C 0.88706 0.90137 0.02713 0.0
Co1257 Co 0.92607 0.95547 0.10452 0.0
C1258 C 0.85361 0.95951 0.08664 0.0
O1259 O 0.8175 0.96698 0.08443 0.0
C1260 C 0.85905 0.99214 0.12938 0.0
C1261 C 0.84348 0.9736 0.15133 0.0
C1262 C 0.81836 0.99238 0.16819 0.0
C1263 C 0.81 0.02998 0.16314 0.0
C1264 C 0.82406 0.0478 0.14015 0.0
C1265 C 0.85121 0.02981 0.12472 0.0
C1266 C 0.79837 0.97255 0.18968 0.0
C1267 C 0.01225 0.9416 0.1078 0.0
C1268 C 0.0394 0.91277 0.10688 0.0
C1269 C 0.02416 0.97774 0.11536 0.0
C1270 C 0.06157 0.98487 0.12185 0.0
C1271 C 0.08838 0.9568 0.11879 0.0
C1272 C 0.07769 0.92158 0.1087 0.0
N1273 N 0.97599 0.93542 0.09535 0.0
N1274 N 0.87451 0.97072 0.10816 0.0
N1275 N 0.91762 0.91408 0.1296 0.0
C1276 C 0.90389 0.87766 0.12193 0.0
C1277 C 0.92878 0.84728 0.11973 0.0
C1278 C 0.86697 0.87385 0.11251 0.0
C1279 C 0.91707 0.81337 0.10772 0.0
H1280 H 0.95752 0.8507 0.12654 0.0
C1281 C 0.8803 0.81054 0.09757 0.0
C1282 C 0.85523 0.84089 0.09944 0.0
C1283 C 0.94346 0.78138 0.10457 0.0
H1284 H 0.84756 0.89695 0.11493 0.0
H1285 H 0.87138 0.78489 0.08773 0.0
C1286 C 0.8173 0.83848 0.08703 0.0
O1287 O 0.93163 0.74894 0.09323 0.0
O1288 O 0.97603 0.78422 0.11207 0.0
O1289 O 0.79669 0.86601 0.08657 0.0
O1290 O 0.80545 0.8059 0.07592 0.0
H1291 H 0.9483 0.72775 0.09069 0.0
H1292 H 0.7809 0.80375 0.06768 0.0
N1293 N 0.94123 0.98241 0.1341 0.0
C1294 C 0.94393 0.01966 0.13045 0.0
C1295 C 0.94851 0.04283 0.15278 0.0
C1296 C 0.94808 0.02576 0.1783 0.0
C1297 C 0.94227 0.98658 0.18098 0.0
C1298 C 0.93811 0.96512 0.15771 0.0
N1299 N 0.93567 0.00157 0.08469 0.0
C1300 C 0.94157 0.03061 0.1021 0.0
O1301 O 0.94816 0.06513 0.0939 0.0
C1302 C 0.92512 0.92583 0.15547 0.0
O1303 O 0.82487 0.88912 0.1744 0.0
O1304 O 0.863 0.84489 0.18812 0.0
C1305 C 0.93836 0.0062 0.05632 0.0
C1306 C 0.90909 0.02343 0.04237 0.0
C1307 C 0.91223 0.03039 0.01495 0.0
C1308 C 0.94503 0.01825 1.00135 0.0
C1309 C 0.97556 0.00025 0.01518 0.0
C1310 C 0.97151 -0.0039 0.0431 0.0
O1311 O 0.89489 0.95831 0.24143 0.0
O1312 O 0.83541 0.96469 0.24716 0.0
O1313 O 0.81367 0.94585 0.20213 0.0
O1314 O 0.76697 0.98407 0.19856 0.0
O1315 O 0.91986 0.9043 0.17767 0.0
C1316 C 0.79365 0.85859 0.25073 0.0
O1317 O 0.77089 0.88642 0.24967 0.0
O1318 O 0.82832 0.86126 0.24321 0.0
C1319 C 0.83639 0.85531 0.17254 0.0
H1320 H 0.83244 0.92586 0.03637 0.0
H1321 H 0.94506 0.88265 0.023 0.0
H1322 H 0.87827 0.89013 1.00802 0.0
H1323 H 0.84883 0.94406 0.15375 0.0
H1324 H 0.7887 0.04365 0.1752 0.0
H1325 H 0.86068 0.04258 0.1062 0.0
H1326 H 0.03118 0.88466 0.10087 0.0
H1327 H 0.00641 0.00165 0.11386 0.0
H1328 H 0.11769 0.96395 0.12177 0.0
H1329 H 0.95161 0.07297 0.15068 0.0
H1330 H 0.9511 0.04301 0.19599 0.0
H1331 H 0.94001 0.97383 0.20053 0.0
H1332 H 0.88368 0.03126 0.05301 0.0
H1333 H 0.94544 0.02261 0.98004 0.0
H1334 H -0.0061 0.98533 0.05533 0.0
Cd1335 Cd 0.83093 0.11392 0.9606 0.0
C1336 C 0.75574 0.11539 1.00187 0.0
C1337 C 0.82113 0.22292 0.82223 0.0
O1338 O 0.83281 0.25241 0.80867 0.0
Cd1339 Cd 0.78263 0.01744 0.99139 0.0
C1340 C 0.82395 0.1853 0.81052 0.0
C1341 C 0.81463 0.11122 0.79312 0.0
C1342 C 0.8 0.12387 0.81746 0.0
N1343 N 0.8063 0.15939 0.82491 0.0
C1344 C 0.83918 0.17496 0.78575 0.0
C1345 C 0.83463 0.13729 0.77722 0.0
Co1346 Co 0.78045 0.17606 0.85464 0.0
C1347 C 0.77655 0.10363 0.83668 0.0
O1348 O 0.76914 0.06752 0.83444 0.0
C1349 C 0.74398 0.10898 0.87945 0.0
C1350 C 0.76261 0.0934 0.90137 0.0
C1351 C 0.74389 0.06826 0.91821 0.0
C1352 C 0.70624 0.05994 0.91324 0.0
C1353 C 0.68835 0.07401 0.89029 0.0
C1354 C 0.70628 0.10115 0.87485 0.0
C1355 C 0.76383 0.04781 0.93942 0.0
C1356 C 0.79397 0.26231 0.85792 0.0
C1357 C 0.8226 0.28966 0.85701 0.0
C1358 C 0.75774 0.274 0.86546 0.0
C1359 C 0.75036 0.31135 0.872 0.0
C1360 C 0.77824 0.33834 0.86897 0.0
C1361 C 0.81351 0.3279 0.85884 0.0
N1362 N 0.8004 0.22605 0.84552 0.0
N1363 N 0.76531 0.12448 0.85822 0.0
N1364 N 0.8218 0.16764 0.87977 0.0
C1365 C 0.85823 0.15388 0.87212 0.0
C1366 C 0.88858 0.17878 0.86987 0.0
C1367 C 0.86203 0.11697 0.86268 0.0
C1368 C 0.92247 0.16708 0.85781 0.0
H1369 H 0.88517 0.20753 0.87667 0.0
C1370 C 0.92529 0.13032 0.84765 0.0
C1371 C 0.89496 0.10524 0.84956 0.0
C1372 C 0.95443 0.19349 0.85461 0.0
H1373 H 0.83894 0.09755 0.86513 0.0
H1374 H 0.95092 0.12142 0.83777 0.0
C1375 C 0.89734 0.06734 0.83711 0.0
O1376 O 0.98686 0.18166 0.84325 0.0
O1377 O 0.95159 0.22607 0.86209 0.0
O1378 O 0.86979 0.04674 0.83664 0.0
O1379 O 0.9299 0.05549 0.82597 0.0
H1380 H 0.00804 0.19834 0.84068 0.0
H1381 H 0.93203 0.03095 0.81771 0.0
N1382 N 0.7534 0.19112 0.88421 0.0
C1383 C 0.71615 0.19373 0.88051 0.0
C1384 C 0.69291 0.1982 0.90282 0.0
C1385 C 0.70991 0.19768 0.92836 0.0
C1386 C 0.74908 0.19189 0.93109 0.0
C1387 C 0.77062 0.1879 0.90784 0.0
N1388 N 0.73436 0.18556 0.83476 0.0
C1389 C 0.70527 0.19138 0.85214 0.0
O1390 O 0.67074 0.19788 0.8439 0.0
C1391 C 0.80992 0.17493 0.90565 0.0
O1392 O 0.8467 0.07368 0.92459 0.0
O1393 O 0.89063 0.11243 0.93788 0.0
C1394 C 0.72977 0.18808 0.80638 0.0
C1395 C 0.71273 0.15867 0.79246 0.0
C1396 C 0.70593 0.16161 0.76501 0.0
C1397 C 0.71804 0.19437 0.75133 0.0
C1398 C 0.73585 0.22503 0.76514 0.0
C1399 C 0.7398 0.22118 0.79309 0.0
O1400 O 0.77621 0.14097 0.99117 0.0
O1401 O 0.76525 0.08164 0.99816 0.0
O1402 O 0.79042 0.0628 0.95221 0.0
O1403 O 0.75311 0.01561 0.94723 0.0
O1404 O 0.83129 0.16943 0.92791 0.0
C1405 C 0.87831 0.04432 1.00051 0.0
O1406 O 0.85084 0.02128 0.99888 0.0
O1407 O 0.87526 0.07909 0.99337 0.0
C1408 C 0.88036 0.08557 0.92249 0.0
H1409 H 0.8102 0.08262 0.78639 0.0
H1410 H 0.85326 0.19532 0.77316 0.0
H1411 H 0.84586 0.12856 0.75809 0.0
H1412 H 0.79219 0.09865 0.90372 0.0
H1413 H 0.69263 0.03858 0.92529 0.0
H1414 H 0.69347 0.11061 0.85634 0.0
H1415 H 0.85077 0.28165 0.85101 0.0
H1416 H 0.73394 0.25615 0.8639 0.0
H1417 H 0.7709 0.3676 0.87198 0.0
H1418 H 0.66277 0.20125 0.90068 0.0
H1419 H 0.69259 0.20059 0.94603 0.0
H1420 H 0.76175 0.18946 0.95067 0.0
H1421 H 0.70491 0.1333 0.80316 0.0
H1422 H 0.71386 0.19466 0.73 0.0
H1423 H 0.75033 0.24367 0.80532 0.0
Cd1424 Cd 0.86714 0.58223 0.71046 0.0
C1425 C 0.87116 0.5181 0.75198 0.0
C1426 C 0.97275 0.57094 0.57178 0.0
O1427 O 0.00221 0.58264 0.55819 0.0
Cd1428 Cd 0.77681 0.53044 0.74669 0.0
C1429 C 0.93508 0.57375 0.56016 0.0
C1430 C 0.86088 0.56453 0.54301 0.0
C1431 C 0.87364 0.54994 0.56733 0.0
N1432 N 0.90922 0.55618 0.57464 0.0
C1433 C 0.92461 0.58896 0.53541 0.0
C1434 C 0.88689 0.58446 0.52701 0.0
Co1435 Co 0.92601 0.53047 0.60438 0.0
C1436 C 0.85347 0.52656 0.58665 0.0
O1437 O 0.8174 0.51898 0.5844 0.0
C1438 C 0.85913 0.49322 0.62912 0.0
C1439 C 0.84461 0.51094 0.65175 0.0
C1440 C 0.82009 0.49164 0.6688 0.0
C1441 C 0.81084 0.45448 0.66299 0.0
C1442 C 0.82394 0.43746 0.6394 0.0
C1443 C 0.85074 0.45582 0.62387 0.0
C1444 C 0.80237 0.51061 0.69163 0.0
C1445 C 0.01217 0.54433 0.60763 0.0
C1446 C 0.03913 0.57334 0.60681 0.0
C1447 C 0.02428 0.50823 0.61514 0.0
C1448 C 0.06177 0.50131 0.62159 0.0
C1449 C 0.08842 0.52956 0.61856 0.0
C1450 C 0.07749 0.5648 0.60863 0.0
N1451 N 0.97594 0.55033 0.59511 0.0
N1452 N 0.87439 0.51533 0.60817 0.0
N1453 N 0.91786 0.57199 0.62936 0.0
C1454 C 0.90407 0.60838 0.62169 0.0
C1455 C 0.92889 0.63881 0.61951 0.0
C1456 C 0.8671 0.61216 0.61236 0.0
C1457 C 0.91708 0.67273 0.60758 0.0
H1458 H 0.95766 0.63542 0.62629 0.0
C1459 C 0.88029 0.67552 0.59747 0.0
C1460 C 0.85527 0.64513 0.59934 0.0
C1461 C 0.9434 0.70477 0.60448 0.0
H1462 H 0.84772 0.58906 0.61487 0.0
H1463 H 0.8713 0.70119 0.58768 0.0
C1464 C 0.81729 0.64752 0.58701 0.0
O1465 O 0.93151 0.73723 0.59319 0.0
O1466 O 0.97598 0.70198 0.61198 0.0
O1467 O 0.79668 0.61998 0.58661 0.0
O1468 O 0.80538 0.68008 0.57592 0.0
H1469 H 0.94813 0.75847 0.59069 0.0
H1470 H 0.7808 0.68223 0.56773 0.0
N1471 N 0.94127 0.50362 0.63394 0.0
C1472 C 0.944 0.46636 0.63037 0.0
C1473 C 0.94887 0.44333 0.65273 0.0
C1474 C 0.94887 0.46057 0.67819 0.0
C1475 C 0.94328 0.4998 0.68079 0.0
C1476 C 0.93868 0.52111 0.6575 0.0
N1477 N 0.93542 0.48432 0.58463 0.0
C1478 C 0.94145 0.45532 0.60204 0.0
O1479 O 0.94806 0.42079 0.59385 0.0
C1480 C 0.92593 0.5605 0.65518 0.0
O1481 O 0.8269 0.59698 0.67413 0.0
O1482 O 0.8641 0.64193 0.68803 0.0
C1483 C 0.938 0.47977 0.55627 0.0
C1484 C 0.90836 0.46329 0.5423 0.0
C1485 C 0.91115 0.45674 0.51481 0.0
C1486 C 0.94415 0.46845 0.50119 0.0
C1487 C 0.97505 0.48579 0.51509 0.0
C1488 C 0.97122 0.48955 0.54304 0.0
O1489 O 0.90097 0.5301 0.74094 0.0
O1490 O 0.84294 0.53889 0.74867 0.0
O1491 O 0.81851 0.53769 0.70294 0.0
O1492 O 0.77284 0.49812 0.70278 0.0
O1493 O 0.92149 0.58245 0.67725 0.0
C1494 C 0.79295 0.62712 0.75054 0.0
O1495 O 0.77027 0.59912 0.74981 0.0
O1496 O 0.82771 0.62453 0.74299 0.0
C1497 C 0.83766 0.63108 0.67245 0.0
H1498 H 0.83223 0.56014 0.53637 0.0
H1499 H 0.94492 0.60301 0.52275 0.0
H1500 H 0.87806 0.59568 0.5079 0.0
H1501 H 0.85051 0.54029 0.65481 0.0
H1502 H 0.78981 0.44058 0.67516 0.0
H1503 H 0.85958 0.44364 0.60498 0.0
H1504 H 0.0307 0.60141 0.60085 0.0
H1505 H 0.00661 0.48424 0.61365 0.0
H1506 H 0.11778 0.52259 0.6215 0.0
H1507 H 0.95194 0.41317 0.6507 0.0
H1508 H 0.95219 0.44344 0.69592 0.0
H1509 H 0.94162 0.51272 0.70029 0.0
H1510 H 0.88293 0.45565 0.55299 0.0
H1511 H 0.94446 0.46431 0.47985 0.0
H1512 H -0.0062 0.49981 0.55532 0.0
Cd1513 Cd 0.65411 0.61646 0.96047 0.0
C1514 C 0.72006 0.62084 1.00179 0.0
C1515 C 0.66486 0.72275 0.82186 0.0
O1516 O 0.65319 0.75224 0.80829 0.0
Cd1517 Cd 0.70604 0.52501 0.99598 0.0
C1518 C 0.66204 0.68511 0.81021 0.0
C1519 C 0.67126 0.61095 0.79297 0.0
C1520 C 0.68589 0.62367 0.81729 0.0
N1521 N 0.67965 0.65922 0.82466 0.0
C1522 C 0.64681 0.6747 0.78546 0.0
C1523 C 0.65131 0.63699 0.77701 0.0
Co1524 Co 0.70541 0.67596 0.85439 0.0
C1525 C 0.70931 0.60346 0.83655 0.0
O1526 O 0.71684 0.56738 0.83428 0.0
C1527 C 0.74263 0.60894 0.87902 0.0
C1528 C 0.72474 0.59413 0.9015 0.0
C1529 C 0.74387 0.56926 0.91839 0.0
C1530 C 0.7811 0.56016 0.91269 0.0
C1531 C 0.7983 0.57354 0.88925 0.0
C1532 C 0.78004 0.6005 0.87379 0.0
C1533 C 0.72465 0.55097 0.94089 0.0
C1534 C 0.69152 0.76215 0.85771 0.0
C1535 C 0.66257 0.78916 0.85686 0.0
C1536 C 0.72764 0.7742 0.86523 0.0
C1537 C 0.73461 0.81168 0.87167 0.0
C1538 C 0.70641 0.83838 0.86861 0.0
C1539 C 0.67117 0.8275 0.85866 0.0
N1540 N 0.68549 0.72591 0.84519 0.0
N1541 N 0.72062 0.62433 0.85808 0.0
N1542 N 0.66396 0.6677 0.87941 0.0
C1543 C 0.62755 0.65395 0.87175 0.0
C1544 C 0.59714 0.6788 0.86958 0.0
C1545 C 0.62374 0.617 0.8624 0.0
C1546 C 0.56321 0.66704 0.85763 0.0
H1547 H 0.60055 0.70756 0.87636 0.0
C1548 C 0.5604 0.63025 0.84751 0.0
C1549 C 0.59077 0.6052 0.84937 0.0
C1550 C 0.53119 0.69339 0.85451 0.0
H1551 H 0.64685 0.5976 0.86487 0.0
H1552 H 0.53473 0.62129 0.83771 0.0
C1553 C 0.58836 0.56725 0.83702 0.0
O1554 O 0.49874 0.68153 0.84322 0.0
O1555 O 0.53401 0.72596 0.86201 0.0
O1556 O 0.61589 0.54662 0.83659 0.0
O1557 O 0.55579 0.55536 0.82592 0.0
H1558 H 0.47752 0.69817 0.8407 0.0
H1559 H 0.55363 0.53079 0.81771 0.0
N1560 N 0.73232 0.69114 0.88395 0.0
C1561 C 0.76958 0.69388 0.88034 0.0
C1562 C 0.79266 0.69868 0.90269 0.0
C1563 C 0.77548 0.69856 0.92817 0.0
C1564 C 0.73626 0.6929 0.9308 0.0
C1565 C 0.7149 0.68841 0.90753 0.0
N1566 N 0.75151 0.68547 0.8346 0.0
C1567 C 0.78055 0.69143 0.852 0.0
O1568 O 0.81507 0.69803 0.84378 0.0
C1569 C 0.67553 0.67562 0.90524 0.0
O1570 O 0.639 0.57649 0.9241 0.0
O1571 O 0.59422 0.61376 0.93816 0.0
C1572 C 0.75601 0.68807 0.80623 0.0
C1573 C 0.77251 0.65845 0.79224 0.0
C1574 C 0.77902 0.66128 0.76476 0.0
C1575 C 0.76728 0.69425 0.75115 0.0
C1576 C 0.74993 0.72514 0.76506 0.0
C1577 C 0.74619 0.72129 0.79302 0.0
O1578 O 0.70613 0.6502 0.99123 0.0
O1579 O 0.70126 0.59147 0.99779 0.0
O1580 O 0.69774 0.56703 0.95247 0.0
O1581 O 0.737 0.52107 0.95163 0.0
O1582 O 0.6537 0.67097 0.92734 0.0
C1583 C 0.609 0.54294 1.0006 0.0
O1584 O 0.63706 0.52033 0.99999 0.0
O1585 O 0.61155 0.57762 0.99296 0.0
C1586 C 0.60493 0.58737 0.92249 0.0
H1587 H 0.67565 0.58232 0.7863 0.0
H1588 H 0.63274 0.69503 0.77283 0.0
H1589 H 0.64006 0.6282 0.7579 0.0
H1590 H 0.69538 0.60001 0.90448 0.0
H1591 H 0.79492 0.53898 0.92478 0.0
H1592 H 0.7923 0.60946 0.85497 0.0
H1593 H 0.63448 0.78078 0.85089 0.0
H1594 H 0.7516 0.7565 0.86377 0.0
H1595 H 0.71343 0.86773 0.87154 0.0
H1596 H 0.82281 0.70178 0.90062 0.0
H1597 H 0.79266 0.70181 0.94588 0.0
H1598 H 0.72341 0.6911 0.95032 0.0
H1599 H 0.78018 0.63302 0.80292 0.0
H1600 H 0.77141 0.69455 0.72981 0.0
H1601 H 0.73591 0.74387 0.8053 0.0
Cd1602 Cd 0.61872 0.40364 0.21046 0.0
C1603 C 0.61473 0.46765 0.25201 0.0
C1604 C 0.51314 0.41493 0.07178 0.0
O1605 O 0.48367 0.40322 0.0582 0.0
Cd1606 Cd 0.70897 0.45542 0.24674 0.0
C1607 C 0.55081 0.4121 0.06016 0.0
C1608 C 0.62501 0.42131 0.043 0.0
C1609 C 0.61226 0.4359 0.06732 0.0
N1610 N 0.57668 0.42967 0.07465 0.0
C1611 C 0.56127 0.39689 0.03541 0.0
C1612 C 0.59899 0.40139 0.027 0.0
Co1613 Co 0.55989 0.45539 0.10438 0.0
C1614 C 0.63243 0.45928 0.08664 0.0
O1615 O 0.6685 0.46686 0.08439 0.0
C1616 C 0.62679 0.49268 0.12908 0.0
C1617 C 0.64124 0.47502 0.15177 0.0
C1618 C 0.66576 0.49434 0.1688 0.0
C1619 C 0.67511 0.53145 0.16293 0.0
C1620 C 0.66207 0.54842 0.1393 0.0
C1621 C 0.63527 0.53005 0.12377 0.0
C1622 C 0.6834 0.47539 0.19168 0.0
C1623 C 0.47373 0.44153 0.10764 0.0
C1624 C 0.44678 0.41253 0.10683 0.0
C1625 C 0.46162 0.47764 0.11514 0.0
C1626 C 0.42413 0.48455 0.12158 0.0
C1627 C 0.39748 0.4563 0.11856 0.0
C1628 C 0.40842 0.42106 0.10865 0.0
N1629 N 0.50996 0.43554 0.09511 0.0
N1630 N 0.61152 0.47053 0.10816 0.0
N1631 N 0.56804 0.41388 0.12936 0.0
C1632 C 0.58182 0.37748 0.1217 0.0
C1633 C 0.557 0.34706 0.11952 0.0
C1634 C 0.61879 0.3737 0.11237 0.0
C1635 C 0.56881 0.31313 0.10758 0.0
H1636 H 0.52824 0.35045 0.1263 0.0
C1637 C 0.6056 0.31034 0.09747 0.0
C1638 C 0.63062 0.34073 0.09934 0.0
C1639 C 0.54249 0.28109 0.10447 0.0
H1640 H 0.63818 0.39681 0.11488 0.0
H1641 H 0.61459 0.28468 0.08768 0.0
C1642 C 0.6686 0.33834 0.08701 0.0
O1643 O 0.55438 0.24864 0.09318 0.0
O1644 O 0.50991 0.28389 0.11197 0.0
O1645 O 0.68921 0.36588 0.08661 0.0
O1646 O 0.68051 0.30578 0.07592 0.0
H1647 H 0.53776 0.2274 0.09068 0.0
H1648 H 0.70509 0.30364 0.06773 0.0
N1649 N 0.54465 0.48225 0.13394 0.0
C1650 C 0.54191 0.51951 0.13036 0.0
C1651 C 0.53703 0.54254 0.15272 0.0
C1652 C 0.53701 0.5253 0.17818 0.0
C1653 C 0.54259 0.48607 0.18078 0.0
C1654 C 0.54721 0.46476 0.15749 0.0
N1655 N 0.55049 0.50154 0.08462 0.0
C1656 C 0.54446 0.53054 0.10203 0.0
O1657 O 0.53785 0.56507 0.09384 0.0
C1658 C 0.55994 0.42536 0.15518 0.0
O1659 O 0.65896 0.38891 0.17412 0.0
O1660 O 0.62179 0.34395 0.18803 0.0
C1661 C 0.54792 0.50607 0.05626 0.0
C1662 C 0.57757 0.52252 0.04228 0.0
C1663 C 0.57479 0.52903 0.0148 0.0
C1664 C 0.54179 0.51733 1.00117 0.0
C1665 C 0.51087 0.50003 0.01508 0.0
C1666 C 0.5147 0.4963 0.04303 0.0
O1667 O 0.58491 0.45576 0.24093 0.0
O1668 O 0.64289 0.44676 0.24874 0.0
O1669 O 0.66723 0.4483 0.20296 0.0
O1670 O 0.7129 0.48787 0.20287 0.0
O1671 O 0.56437 0.40342 0.17725 0.0
C1672 C 0.69296 0.35876 0.25054 0.0
O1673 O 0.71565 0.38675 0.2498 0.0
O1674 O 0.65821 0.36135 0.243 0.0
C1675 C 0.64822 0.3548 0.17244 0.0
H1676 H 0.65366 0.42569 0.03636 0.0
H1677 H 0.54096 0.38285 0.02275 0.0
H1678 H 0.60782 0.39017 1.00789 0.0
H1679 H 0.63527 0.44569 0.15487 0.0
H1680 H 0.69615 0.54536 0.17509 0.0
H1681 H 0.62648 0.54218 0.10486 0.0
H1682 H 0.45522 0.38446 0.10088 0.0
H1683 H 0.47928 0.50163 0.11365 0.0
H1684 H 0.36812 0.46327 0.1215 0.0
H1685 H 0.53395 0.5727 0.15069 0.0
H1686 H 0.53367 0.54244 0.19591 0.0
H1687 H 0.54423 0.47316 0.20029 0.0
H1688 H 0.603 0.53015 0.05298 0.0
H1689 H 0.54149 0.52146 0.97983 0.0
H1690 H 0.4921 0.48607 0.05531 0.0
Cd1691 Cd 0.83151 0.36992 0.46048 0.0
C1692 C 0.76397 0.36554 0.50172 0.0
C1693 C 0.82105 0.26311 0.32192 0.0
O1694 O 0.83271 0.23361 0.30834 0.0
Cd1695 Cd 0.77979 0.46239 0.49532 0.0
C1696 C 0.82388 0.30074 0.31025 0.0
C1697 C 0.81466 0.37488 0.29298 0.0
C1698 C 0.80002 0.36218 0.3173 0.0
N1699 N 0.80626 0.32664 0.32469 0.0
C1700 C 0.83911 0.31113 0.2855 0.0
C1701 C 0.83461 0.34883 0.27703 0.0
Co1702 Co 0.78047 0.30992 0.35442 0.0
C1703 C 0.77658 0.3824 0.33654 0.0
O1704 O 0.76909 0.41849 0.33427 0.0
C1705 C 0.74335 0.37699 0.37905 0.0
C1706 C 0.76139 0.39202 0.40139 0.0
C1707 C 0.74239 0.41707 0.4182 0.0
C1708 C 0.70508 0.42601 0.41265 0.0
C1709 C 0.68772 0.41243 0.38932 0.0
C1710 C 0.7059 0.38537 0.3739 0.0
C1711 C 0.76182 0.43585 0.44041 0.0
C1712 C 0.79435 0.22373 0.35775 0.0
C1713 C 0.82328 0.19668 0.35688 0.0
C1714 C 0.75823 0.21171 0.36529 0.0
C1715 C 0.75122 0.17424 0.37173 0.0
C1716 C 0.77938 0.14751 0.36865 0.0
C1717 C 0.81462 0.15835 0.35867 0.0
N1718 N 0.80043 0.25996 0.34525 0.0
N1719 N 0.76525 0.36154 0.35806 0.0
N1720 N 0.8219 0.31824 0.37946 0.0
C1721 C 0.85832 0.33197 0.37181 0.0
C1722 C 0.88871 0.3071 0.36962 0.0
C1723 C 0.86213 0.36891 0.36244 0.0
C1724 C 0.92264 0.31885 0.35766 0.0
H1725 H 0.88529 0.27835 0.37641 0.0
C1726 C 0.92546 0.35563 0.34753 0.0
C1727 C 0.8951 0.38069 0.3494 0.0
C1728 C 0.95464 0.29248 0.35453 0.0
H1729 H 0.83902 0.38832 0.3649 0.0
H1730 H 0.95113 0.36457 0.33772 0.0
C1731 C 0.89751 0.41864 0.33703 0.0
O1732 O 0.98709 0.30433 0.34323 0.0
O1733 O 0.95181 0.25991 0.36203 0.0
O1734 O 0.86998 0.43926 0.3366 0.0
O1735 O 0.93008 0.43051 0.32592 0.0
H1736 H 0.00831 0.28768 0.3407 0.0
H1737 H 0.93224 0.45507 0.31771 0.0
N1738 N 0.75353 0.29477 0.38398 0.0
C1739 C 0.71628 0.29204 0.38034 0.0
C1740 C 0.69317 0.2873 0.40268 0.0
C1741 C 0.71031 0.2875 0.42818 0.0
C1742 C 0.74951 0.2932 0.43084 0.0
C1743 C 0.77091 0.2976 0.40757 0.0
N1744 N 0.73439 0.30039 0.33461 0.0
C1745 C 0.70534 0.29445 0.35199 0.0
O1746 O 0.67083 0.28786 0.34377 0.0
C1747 C 0.81026 0.31044 0.4053 0.0
O1748 O 0.84685 0.40975 0.42412 0.0
O1749 O 0.8915 0.37234 0.43821 0.0
C1750 C 0.72991 0.2978 0.30624 0.0
C1751 C 0.71341 0.32742 0.29225 0.0
C1752 C 0.7069 0.3246 0.26476 0.0
C1753 C 0.71866 0.29163 0.25115 0.0
C1754 C 0.736 0.26074 0.26506 0.0
C1755 C 0.73974 0.26458 0.29302 0.0
O1756 O 0.77936 0.33668 0.49142 0.0
O1757 O 0.78105 0.39579 0.49725 0.0
O1758 O 0.78866 0.41995 0.45221 0.0
O1759 O 0.74964 0.4661 0.45075 0.0
O1760 O 0.83201 0.31525 0.42743 0.0
C1761 C 0.87693 0.44285 0.50061 0.0
O1762 O 0.84888 0.46544 0.49999 0.0
O1763 O 0.87437 0.40818 0.49297 0.0
C1764 C 0.88088 0.39875 0.42251 0.0
H1765 H 0.81026 0.40351 0.28629 0.0
H1766 H 0.85319 0.29079 0.27288 0.0
H1767 H 0.84586 0.3576 0.25791 0.0
H1768 H 0.79078 0.38622 0.40426 0.0
H1769 H 0.69131 0.44727 0.42469 0.0
H1770 H 0.69354 0.3763 0.35514 0.0
H1771 H 0.85137 0.20501 0.35091 0.0
H1772 H 0.73428 0.22942 0.36383 0.0
H1773 H 0.77232 0.11817 0.37159 0.0
H1774 H 0.66302 0.28419 0.4006 0.0
H1775 H 0.6931 0.2843 0.44588 0.0
H1776 H 0.76233 0.29512 0.45037 0.0
H1777 H 0.70573 0.35284 0.30293 0.0
H1778 H 0.71452 0.29133 0.22981 0.0
H1779 H 0.75002 0.242 0.30529 0.0
Cd1780 Cd 0.86393 0.40504 0.80553 0.0
C1781 C 0.86541 0.48022 0.76426 0.0
C1782 C 0.97293 0.41477 0.9439 0.0
O1783 O 0.00243 0.40307 0.95745 0.0
Cd1784 Cd 0.76746 0.45338 0.77474 0.0
C1785 C 0.93531 0.41193 0.9556 0.0
C1786 C 0.86123 0.42124 0.97301 0.0
C1787 C 0.87387 0.43588 0.94867 0.0
N1788 N 0.90939 0.42958 0.94122 0.0
C1789 C 0.92497 0.3967 0.98037 0.0
C1790 C 0.88731 0.40124 0.98891 0.0
Co1791 Co 0.92606 0.45544 0.91149 0.0
C1792 C 0.85363 0.45933 0.92945 0.0
O1793 O 0.81752 0.46674 0.93169 0.0
C1794 C 0.85898 0.49194 0.8867 0.0
C1795 C 0.84341 0.47333 0.86477 0.0
C1796 C 0.81828 0.49207 0.84792 0.0
C1797 C 0.80996 0.52972 0.85291 0.0
C1798 C 0.82401 0.54759 0.87587 0.0
C1799 C 0.85115 0.52963 0.89132 0.0
C1800 C 0.79783 0.47214 0.82671 0.0
C1801 C 0.0123 0.44192 0.9082 0.0
C1802 C 0.03965 0.41328 0.90909 0.0
C1803 C 0.02399 0.47815 0.90067 0.0
C1804 C 0.06133 0.48552 0.89411 0.0
C1805 C 0.08833 0.45763 0.89713 0.0
C1806 C 0.07789 0.42237 0.90726 0.0
N1807 N 0.97605 0.4355 0.92061 0.0
N1808 N 0.87448 0.47059 0.90791 0.0
N1809 N 0.91764 0.4141 0.88635 0.0
C1810 C 0.90389 0.37767 0.894 0.0
C1811 C 0.92879 0.34731 0.89625 0.0
C1812 C 0.86697 0.37387 0.90344 0.0
C1813 C 0.91709 0.31342 0.90831 0.0
H1814 H 0.95754 0.35073 0.88945 0.0
C1815 C 0.88033 0.31061 0.91847 0.0
C1816 C 0.85525 0.34094 0.91657 0.0
C1817 C 0.9435 0.28146 0.91152 0.0
H1818 H 0.84755 0.39696 0.90099 0.0
H1819 H 0.87143 0.28498 0.92835 0.0
C1820 C 0.81734 0.33856 0.92901 0.0
O1821 O 0.93167 0.24904 0.92288 0.0
O1822 O 0.97607 0.2843 0.90403 0.0
O1823 O 0.79674 0.3661 0.92948 0.0
O1824 O 0.8055 0.306 0.94015 0.0
H1825 H 0.94835 0.22786 0.92546 0.0
H1826 H 0.78096 0.30386 0.94841 0.0
N1827 N 0.94111 0.4825 0.88193 0.0
C1828 C 0.94372 0.51975 0.88563 0.0
C1829 C 0.9482 0.54299 0.86333 0.0
C1830 C 0.94768 0.526 0.83779 0.0
C1831 C 0.9419 0.48683 0.83504 0.0
C1832 C 0.9379 0.46528 0.85829 0.0
N1833 N 0.93556 0.50152 0.93138 0.0
C1834 C 0.94137 0.53061 0.91401 0.0
O1835 O 0.94787 0.56514 0.92225 0.0
C1836 C 0.92494 0.42599 0.86048 0.0
O1837 O 0.82367 0.38926 0.84153 0.0
O1838 O 0.86243 0.34532 0.82825 0.0
C1839 C 0.93804 0.50609 0.95976 0.0
C1840 C 0.90858 0.52306 0.97366 0.0
C1841 C 0.91147 0.52983 1.00113 0.0
C1842 C 0.94424 0.51777 0.01482 0.0
C1843 C 0.97494 0.50002 1.00102 0.0
C1844 C 0.97114 0.4961 0.97307 0.0
O1845 O 0.89098 0.45974 0.77496 0.0
O1846 O 0.83166 0.47073 0.76796 0.0
O1847 O 0.81282 0.44555 0.81392 0.0
O1848 O 0.76563 0.48288 0.8189 0.0
O1849 O 0.91944 0.40462 0.83821 0.0
C1850 C 0.79436 0.35772 0.7656 0.0
O1851 O 0.77131 0.38518 0.76724 0.0
O1852 O 0.82913 0.36076 0.77275 0.0
C1853 C 0.83556 0.3556 0.84363 0.0
H1854 H 0.83263 0.42567 0.97974 0.0
H1855 H 0.94534 0.38262 0.99297 0.0
H1856 H 0.87858 0.39001 1.00804 0.0
H1857 H 0.84867 0.44375 0.8624 0.0
H1858 H 0.7886 0.54334 0.84087 0.0
H1859 H 0.86058 0.54242 0.90984 0.0
H1860 H 0.03164 0.38511 0.91509 0.0
H1861 H 0.00615 0.50196 0.90223 0.0
H1862 H 0.11759 0.46497 0.89412 0.0
H1863 H 0.95125 0.57313 0.86547 0.0
H1864 H 0.95059 0.54332 0.82011 0.0
H1865 H 0.93947 0.47416 0.81546 0.0
H1866 H 0.88321 0.53086 0.96295 0.0
H1867 H 0.94449 0.52193 0.03616 0.0
H1868 H -0.00633 0.48563 0.96084 0.0
Cd1869 Cd 0.83098 0.61457 0.05554 0.0
C1870 C 0.75804 0.61735 0.01438 0.0
C1871 C 0.82111 0.72282 0.19405 0.0
O1872 O 0.83278 0.75229 0.20764 0.0
Cd1873 Cd 0.78104 0.51894 0.02333 0.0
C1874 C 0.82387 0.68519 0.20574 0.0
C1875 C 0.81449 0.61108 0.22306 0.0
C1876 C 0.79985 0.62379 0.19874 0.0
N1877 N 0.80617 0.65932 0.19133 0.0
C1878 C 0.8391 0.67478 0.23049 0.0
C1879 C 0.83452 0.6371 0.23898 0.0
Co1880 Co 0.7804 0.67606 0.16159 0.0
C1881 C 0.77639 0.60361 0.17949 0.0
O1882 O 0.76893 0.5675 0.18171 0.0
C1883 C 0.74378 0.60902 0.13674 0.0
C1884 C 0.76236 0.59345 0.1148 0.0
C1885 C 0.7436 0.56831 0.09794 0.0
C1886 C 0.70599 0.55996 0.10298 0.0
C1887 C 0.68814 0.57403 0.12595 0.0
C1888 C 0.70611 0.60118 0.14138 0.0
C1889 C 0.76345 0.54821 0.07651 0.0
C1890 C 0.7942 0.76225 0.1583 0.0
C1891 C 0.82299 0.78944 0.15921 0.0
C1892 C 0.75804 0.77411 0.15075 0.0
C1893 C 0.75086 0.8115 0.14422 0.0
C1894 C 0.77888 0.83835 0.14727 0.0
C1895 C 0.81411 0.82771 0.15738 0.0
N1896 N 0.80043 0.72599 0.17075 0.0
N1897 N 0.76517 0.62449 0.15796 0.0
N1898 N 0.82178 0.66761 0.1365 0.0
C1899 C 0.8582 0.65388 0.14416 0.0
C1900 C 0.88857 0.67877 0.14637 0.0
C1901 C 0.86201 0.61696 0.15359 0.0
C1902 C 0.92249 0.66706 0.15839 0.0
H1903 H 0.88515 0.70751 0.13956 0.0
C1904 C 0.92531 0.6303 0.16854 0.0
C1905 C 0.89497 0.60523 0.16667 0.0
C1906 C 0.95446 0.69345 0.16155 0.0
H1907 H 0.83892 0.59755 0.15116 0.0
H1908 H 0.95096 0.62139 0.17839 0.0
C1909 C 0.89738 0.56731 0.17909 0.0
O1910 O 0.9869 0.68163 0.17289 0.0
O1911 O 0.95162 0.72603 0.15405 0.0
O1912 O 0.86985 0.54669 0.17955 0.0
O1913 O 0.92996 0.55545 0.1902 0.0
H1914 H 0.00809 0.69831 0.17543 0.0
H1915 H 0.93211 0.53091 0.19844 0.0
N1916 N 0.75343 0.69119 0.13201 0.0
C1917 C 0.71618 0.69388 0.13567 0.0
C1918 C 0.693 0.69844 0.11335 0.0
C1919 C 0.71006 0.69799 0.08783 0.0
C1920 C 0.74923 0.69219 0.08513 0.0
C1921 C 0.77071 0.68806 0.1084 0.0
N1922 N 0.7343 0.68565 0.18144 0.0
C1923 C 0.70525 0.69153 0.16403 0.0
O1924 O 0.67072 0.6981 0.17224 0.0
C1925 C 0.81 0.67507 0.11063 0.0
O1926 O 0.8467 0.5746 0.09167 0.0
O1927 O 0.89087 0.61288 0.07806 0.0
C1928 C 0.72967 0.68832 0.20981 0.0
C1929 C 0.71242 0.65904 0.22375 0.0
C1930 C 0.70545 0.66216 0.25117 0.0
C1931 C 0.71761 0.69494 0.26479 0.0
C1932 C 0.73562 0.72546 0.25098 0.0
C1933 C 0.73977 0.72145 0.22305 0.0
O1934 O 0.77724 0.64405 0.02474 0.0
O1935 O 0.76975 0.58457 0.0188 0.0
O1936 O 0.79011 0.56344 0.06398 0.0
O1937 O 0.75209 0.51663 0.06787 0.0
O1938 O 0.83149 0.66975 0.08841 0.0
C1939 C 0.87742 0.54379 0.01542 0.0
O1940 O 0.84966 0.52098 0.0166 0.0
O1941 O 0.87469 0.57848 0.02287 0.0
C1942 C 0.88048 0.58621 0.0936 0.0
H1943 H 0.81005 0.58247 0.22976 0.0
H1944 H 0.85323 0.6951 0.2431 0.0
H1945 H 0.84578 0.62832 0.25809 0.0
H1946 H 0.7919 0.59878 0.11239 0.0
H1947 H 0.69233 0.53863 0.09092 0.0
H1948 H 0.69331 0.61066 0.15989 0.0
H1949 H 0.85111 0.78127 0.16523 0.0
H1950 H 0.73415 0.75635 0.15226 0.0
H1951 H 0.7717 0.86765 0.14427 0.0
H1952 H 0.66286 0.70153 0.11546 0.0
H1953 H 0.69279 0.70099 0.07014 0.0
H1954 H 0.76196 0.68988 0.06557 0.0
H1955 H 0.70458 0.63364 0.2131 0.0
H1956 H 0.71327 0.69532 0.2861 0.0
H1957 H 0.75052 0.74385 0.21083 0.0
Cd1958 Cd 0.62201 0.58084 0.30552 0.0
C1959 C 0.62059 0.50554 0.26425 0.0
C1960 C 0.51296 0.57112 0.44389 0.0
O1961 O 0.48346 0.5828 0.45744 0.0
Cd1962 Cd 0.7185 0.53261 0.27482 0.0
C1963 C 0.55057 0.57397 0.45559 0.0
C1964 C 0.62466 0.56468 0.473 0.0
C1965 C 0.61203 0.55006 0.44866 0.0
N1966 N 0.57651 0.55635 0.4412 0.0
C1967 C 0.5609 0.58919 0.48037 0.0
C1968 C 0.59857 0.58466 0.48891 0.0
Co1969 Co 0.55985 0.53047 0.41148 0.0
C1970 C 0.63227 0.5266 0.42945 0.0
O1971 O 0.66839 0.5192 0.43169 0.0
C1972 C 0.62693 0.49394 0.38671 0.0
C1973 C 0.64247 0.51252 0.36476 0.0
C1974 C 0.66763 0.49378 0.34793 0.0
C1975 C 0.67598 0.45615 0.35295 0.0
C1976 C 0.66195 0.4383 0.37593 0.0
C1977 C 0.63482 0.45626 0.39137 0.0
C1978 C 0.68807 0.51371 0.32673 0.0
C1979 C 0.4736 0.54399 0.40818 0.0
C1980 C 0.44626 0.57264 0.40907 0.0
C1981 C 0.4619 0.50776 0.40065 0.0
C1982 C 0.42455 0.5004 0.39411 0.0
C1983 C 0.39757 0.52829 0.39714 0.0
C1984 C 0.40802 0.56356 0.40725 0.0
N1985 N 0.50985 0.5504 0.42059 0.0
N1986 N 0.61143 0.51532 0.40791 0.0
N1987 N 0.56827 0.57179 0.38633 0.0
C1988 C 0.58201 0.60823 0.39397 0.0
C1989 C 0.55711 0.63858 0.39624 0.0
C1990 C 0.61893 0.61203 0.40341 0.0
C1991 C 0.5688 0.67246 0.4083 0.0
H1992 H 0.52836 0.63516 0.38944 0.0
C1993 C 0.60556 0.67528 0.41846 0.0
C1994 C 0.63064 0.64495 0.41655 0.0
C1995 C 0.54239 0.70442 0.41152 0.0
H1996 H 0.63836 0.58895 0.40097 0.0
H1997 H 0.61445 0.7009 0.42836 0.0
C1998 C 0.66855 0.64733 0.429 0.0
O1999 O 0.5542 0.73684 0.42289 0.0
O2000 O 0.50981 0.70158 0.40404 0.0
O2001 O 0.68915 0.61978 0.42947 0.0
O2002 O 0.68039 0.67989 0.44015 0.0
H2003 H 0.53752 0.75802 0.42547 0.0
H2004 H 0.70492 0.68202 0.44841 0.0
N2005 N 0.5448 0.50339 0.38192 0.0
C2006 C 0.54218 0.46614 0.38563 0.0
C2007 C 0.53771 0.44289 0.36334 0.0
C2008 C 0.53823 0.45986 0.33779 0.0
C2009 C 0.54402 0.49903 0.33504 0.0
C2010 C 0.54801 0.52059 0.35828 0.0
N2011 N 0.55035 0.48441 0.43138 0.0
C2012 C 0.54453 0.4553 0.41401 0.0
O2013 O 0.53804 0.42078 0.42227 0.0
C2014 C 0.56097 0.55989 0.36046 0.0
O2015 O 0.66229 0.5966 0.34152 0.0
O2016 O 0.6235 0.64053 0.32826 0.0
C2017 C 0.54792 0.47986 0.45976 0.0
C2018 C 0.57747 0.46306 0.47365 0.0
C2019 C 0.57468 0.45637 0.50113 0.0
C2020 C 0.54187 0.46831 0.51484 0.0
C2021 C 0.51107 0.48592 0.50104 0.0
C2022 C 0.51481 0.48978 0.47308 0.0
O2023 O 0.59507 0.52608 0.27496 0.0
O2024 O 0.65438 0.51494 0.26792 0.0
O2025 O 0.67309 0.5403 0.31393 0.0
O2026 O 0.72031 0.50302 0.31895 0.0
O2027 O 0.56648 0.58125 0.33819 0.0
C2028 C 0.69153 0.62825 0.26561 0.0
O2029 O 0.71459 0.6008 0.26727 0.0
O2030 O 0.65675 0.62519 0.27273 0.0
C2031 C 0.65038 0.63026 0.34364 0.0
H2032 H 0.65326 0.56025 0.47974 0.0
H2033 H 0.54053 0.60325 0.49297 0.0
H2034 H 0.60729 0.59588 0.50804 0.0
H2035 H 0.63719 0.54209 0.36237 0.0
H2036 H 0.69735 0.44252 0.34091 0.0
H2037 H 0.62543 0.4435 0.40992 0.0
H2038 H 0.45429 0.6008 0.41507 0.0
H2039 H 0.47974 0.48395 0.40221 0.0
H2040 H 0.3683 0.52097 0.39413 0.0
H2041 H 0.53466 0.41275 0.36549 0.0
H2042 H 0.53532 0.44253 0.32012 0.0
H2043 H 0.54646 0.51169 0.31545 0.0
H2044 H 0.60283 0.4553 0.46291 0.0
H2045 H 0.54164 0.46418 0.53618 0.0
H2046 H 0.49223 0.50015 0.46085 0.0
Cd2047 Cd 0.65476 0.37082 0.55555 0.0
C2048 C 0.72594 0.36729 0.51444 0.0
C2049 C 0.66483 0.26305 0.69408 0.0
O2050 O 0.65312 0.23357 0.70765 0.0
Cd2051 Cd 0.70561 0.46551 0.52235 0.0
C2052 C 0.66207 0.30068 0.70577 0.0
C2053 C 0.6714 0.3748 0.72309 0.0
C2054 C 0.68607 0.36208 0.69878 0.0
N2055 N 0.67977 0.32655 0.69137 0.0
C2056 C 0.64681 0.31109 0.73051 0.0
C2057 C 0.65136 0.34877 0.739 0.0
Co2058 Co 0.70553 0.30982 0.66163 0.0
C2059 C 0.70951 0.38228 0.67952 0.0
O2060 O 0.71698 0.41839 0.68175 0.0
C2061 C 0.74221 0.37687 0.6368 0.0
C2062 C 0.72373 0.39239 0.6148 0.0
C2063 C 0.74254 0.41747 0.59793 0.0
C2064 C 0.78012 0.42586 0.60303 0.0
C2065 C 0.79789 0.41184 0.62605 0.0
C2066 C 0.77987 0.38473 0.64149 0.0
C2067 C 0.72277 0.43725 0.57632 0.0
C2068 C 0.69181 0.22363 0.65834 0.0
C2069 C 0.66306 0.19639 0.65924 0.0
C2070 C 0.72799 0.21182 0.65077 0.0
C2071 C 0.73521 0.17445 0.6442 0.0
C2072 C 0.70722 0.14756 0.64723 0.0
C2073 C 0.67199 0.15813 0.65736 0.0
N2074 N 0.68554 0.25988 0.67078 0.0
N2075 N 0.72074 0.36141 0.65799 0.0
N2076 N 0.66412 0.31823 0.63657 0.0
C2077 C 0.62769 0.33196 0.64424 0.0
C2078 C 0.59731 0.30708 0.64643 0.0
C2079 C 0.62388 0.36889 0.65365 0.0
C2080 C 0.56339 0.3188 0.65842 0.0
H2081 H 0.60073 0.27834 0.63962 0.0
C2082 C 0.56056 0.35557 0.66857 0.0
C2083 C 0.59091 0.38064 0.66671 0.0
C2084 C 0.5314 0.29242 0.66156 0.0
H2085 H 0.64698 0.3883 0.65122 0.0
H2086 H 0.5349 0.36449 0.6784 0.0
C2087 C 0.58849 0.41857 0.67911 0.0
O2088 O 0.49896 0.30425 0.67289 0.0
O2089 O 0.53424 0.25985 0.65406 0.0
O2090 O 0.61602 0.43919 0.67956 0.0
O2091 O 0.55591 0.43043 0.69021 0.0
H2092 H 0.47776 0.28758 0.67543 0.0
H2093 H 0.55375 0.45498 0.69844 0.0
N2094 N 0.73247 0.29471 0.63204 0.0
C2095 C 0.76973 0.29204 0.63568 0.0
C2096 C 0.79287 0.28742 0.61334 0.0
C2097 C 0.77577 0.28778 0.58784 0.0
C2098 C 0.73657 0.29353 0.58517 0.0
C2099 C 0.71514 0.29774 0.60844 0.0
N2100 N 0.75166 0.30027 0.68145 0.0
C2101 C 0.78069 0.29441 0.66403 0.0
O2102 O 0.81523 0.28783 0.67222 0.0
C2103 C 0.67584 0.31068 0.6107 0.0
O2104 O 0.63913 0.41069 0.59175 0.0
O2105 O 0.59481 0.37269 0.57799 0.0
C2106 C 0.7563 0.29761 0.70982 0.0
C2107 C 0.77352 0.3269 0.72375 0.0
C2108 C 0.78043 0.3238 0.75118 0.0
C2109 C 0.76824 0.29106 0.76482 0.0
C2110 C 0.75026 0.26052 0.751 0.0
C2111 C 0.74618 0.26449 0.72307 0.0
O2112 O 0.70788 0.33978 0.52464 0.0
O2113 O 0.71245 0.39924 0.51915 0.0
O2114 O 0.69605 0.42183 0.56401 0.0
O2115 O 0.73452 0.46836 0.56707 0.0
O2116 O 0.65425 0.31585 0.58852 0.0
C2117 C 0.6088 0.44239 0.51535 0.0
O2118 O 0.63673 0.46507 0.51625 0.0
O2119 O 0.61139 0.40774 0.52296 0.0
C2120 C 0.60528 0.39927 0.59359 0.0
H2121 H 0.67581 0.40342 0.72978 0.0
H2122 H 0.63266 0.29077 0.74311 0.0
H2123 H 0.64009 0.35756 0.75811 0.0
H2124 H 0.6942 0.38699 0.61234 0.0
H2125 H 0.79382 0.44713 0.59095 0.0
H2126 H 0.7926 0.37529 0.66003 0.0
H2127 H 0.63493 0.20451 0.66526 0.0
H2128 H 0.75185 0.22959 0.65232 0.0
H2129 H 0.71445 0.11828 0.64419 0.0
H2130 H 0.82302 0.28434 0.61542 0.0
H2131 H 0.793 0.28472 0.57013 0.0
H2132 H 0.7238 0.29571 0.56562 0.0
H2133 H 0.78137 0.35229 0.7131 0.0
H2134 H 0.77251 0.29071 0.78614 0.0
H2135 H 0.73548 0.24207 0.71083 0.0
Cd2136 Cd 0.11872 0.40371 0.30568 0.0
C2137 C 0.11476 0.4677 0.26411 0.0
C2138 C 0.01314 0.41491 0.44433 0.0
O2139 O 0.98366 0.40323 0.45792 0.0
Cd2140 Cd 0.20898 0.45548 0.26941 0.0
C2141 C 0.05079 0.41207 0.45596 0.0
C2142 C 0.12499 0.42124 0.47315 0.0
C2143 C 0.11225 0.43586 0.44883 0.0
N2144 N 0.07668 0.42965 0.4415 0.0
C2145 C 0.06123 0.39684 0.48071 0.0
C2146 C 0.09895 0.40132 0.48913 0.0
Co2147 Co 0.05992 0.4554 0.41177 0.0
C2148 C 0.13245 0.45925 0.42954 0.0
O2149 O 0.16852 0.46682 0.43182 0.0
C2150 C 0.12687 0.49272 0.38712 0.0
C2151 C 0.14125 0.47509 0.3644 0.0
C2152 C 0.16582 0.49441 0.34739 0.0
C2153 C 0.17526 0.53148 0.35332 0.0
C2154 C 0.16227 0.54841 0.37698 0.0
C2155 C 0.13547 0.53004 0.39251 0.0
C2156 C 0.18339 0.47548 0.32448 0.0
C2157 C 0.97374 0.44161 0.4085 0.0
C2158 C 0.9467 0.41269 0.40935 0.0
C2159 C 0.96174 0.47773 0.40094 0.0
C2160 C 0.9243 0.48474 0.39443 0.0
C2161 C 0.89757 0.45657 0.39746 0.0
C2162 C 0.90837 0.42135 0.40748 0.0
N2163 N 0.00997 0.43555 0.42101 0.0
N2164 N 0.11156 0.47053 0.40801 0.0
N2165 N 0.06806 0.4139 0.38677 0.0
C2166 C 0.08183 0.3775 0.39442 0.0
C2167 C 0.057 0.34708 0.3966 0.0
C2168 C 0.1188 0.37371 0.40375 0.0
C2169 C 0.0688 0.31315 0.40854 0.0
H2170 H 0.02824 0.35048 0.38983 0.0
C2171 C 0.1056 0.31036 0.41865 0.0
C2172 C 0.13062 0.34074 0.41678 0.0
C2173 C 0.04247 0.28112 0.41165 0.0
H2174 H 0.13819 0.39681 0.40125 0.0
H2175 H 0.11458 0.28469 0.42844 0.0
C2176 C 0.1686 0.33834 0.4291 0.0
O2177 O 0.05436 0.24867 0.42294 0.0
O2178 O 0.0099 0.28392 0.40414 0.0
O2179 O 0.18921 0.36588 0.42951 0.0
O2180 O 0.18051 0.30578 0.4402 0.0
H2181 H 0.03773 0.22744 0.42545 0.0
H2182 H 0.20509 0.30364 0.44839 0.0
N2183 N 0.04472 0.48229 0.38221 0.0
C2184 C 0.04205 0.51956 0.3858 0.0
C2185 C 0.03717 0.5426 0.36345 0.0
C2186 C 0.03712 0.52537 0.33798 0.0
C2187 C 0.04266 0.48613 0.33537 0.0
C2188 C 0.04725 0.4648 0.35865 0.0
N2189 N 0.05051 0.50153 0.43155 0.0
C2190 C 0.04457 0.53056 0.41414 0.0
O2191 O 0.03798 0.56509 0.42234 0.0
C2192 C 0.05996 0.4254 0.36096 0.0
O2193 O 0.15897 0.38897 0.34202 0.0
O2194 O 0.12181 0.344 0.32809 0.0
C2195 C 0.04788 0.50604 0.45991 0.0
C2196 C 0.0775 0.5225 0.47391 0.0
C2197 C 0.07469 0.52898 0.5014 0.0
C2198 C 0.04171 0.51721 0.51501 0.0
C2199 C 0.01081 0.49991 0.50108 0.0
C2200 C 0.01465 0.49622 0.47312 0.0
O2201 O 0.08493 0.4558 0.27518 0.0
O2202 O 0.14292 0.44683 0.2674 0.0
O2203 O 0.16719 0.4484 0.31321 0.0
O2204 O 0.21289 0.48795 0.31328 0.0
O2205 O 0.06436 0.40346 0.33888 0.0
C2206 C 0.19294 0.35883 0.26561 0.0
O2207 O 0.21564 0.38681 0.26636 0.0
O2208 O 0.15818 0.36143 0.27314 0.0
C2209 C 0.14824 0.35485 0.34368 0.0
H2210 H 0.15363 0.42562 0.47981 0.0
H2211 H 0.04091 0.38279 0.49335 0.0
H2212 H 0.10776 0.39008 0.50824 0.0
H2213 H 0.13521 0.4458 0.36124 0.0
H2214 H 0.19631 0.54538 0.34117 0.0
H2215 H 0.12673 0.54213 0.41144 0.0
H2216 H 0.95502 0.38461 0.41536 0.0
H2217 H 0.97945 0.50168 0.40244 0.0
H2218 H 0.86824 0.46362 0.39446 0.0
H2219 H 0.03412 0.57276 0.36549 0.0
H2220 H 0.03379 0.54251 0.32026 0.0
H2221 H 0.04428 0.47323 0.31586 0.0
H2222 H 0.10294 0.53017 0.46324 0.0
H2223 H 0.04142 0.5213 0.53635 0.0
H2224 H 0.99205 0.48599 0.46084 0.0
Cd2225 Cd 0.33218 0.36873 0.05568 0.0
C2226 C 0.26817 0.36475 0.01412 0.0
C2227 C 0.32097 0.26315 0.19434 0.0
O2228 O 0.33266 0.23367 0.20791 0.0
Cd2229 Cd 0.28043 0.45901 0.01943 0.0
C2230 C 0.32381 0.3008 0.20597 0.0
C2231 C 0.31462 0.37499 0.22315 0.0
C2232 C 0.30001 0.36226 0.19883 0.0
N2233 N 0.30623 0.32668 0.1915 0.0
C2234 C 0.33903 0.31124 0.23071 0.0
C2235 C 0.33455 0.34896 0.23914 0.0
Co2236 Co 0.28049 0.30992 0.16176 0.0
C2237 C 0.27662 0.38245 0.17954 0.0
O2238 O 0.26905 0.41852 0.18181 0.0
C2239 C 0.24316 0.37687 0.13712 0.0
C2240 C 0.2608 0.39126 0.1144 0.0
C2241 C 0.24149 0.41584 0.0974 0.0
C2242 C 0.20442 0.42528 0.10332 0.0
C2243 C 0.18747 0.41228 0.12697 0.0
C2244 C 0.20583 0.38546 0.1425 0.0
C2245 C 0.26043 0.43342 0.07449 0.0
C2246 C 0.29433 0.22376 0.15847 0.0
C2247 C 0.32331 0.19677 0.1593 0.0
C2248 C 0.25823 0.2117 0.15094 0.0
C2249 C 0.25128 0.17423 0.14446 0.0
C2250 C 0.2795 0.14755 0.14749 0.0
C2251 C 0.31473 0.15843 0.15747 0.0
N2252 N 0.30035 0.25998 0.17101 0.0
N2253 N 0.26535 0.36156 0.15801 0.0
N2254 N 0.32199 0.31807 0.13677 0.0
C2255 C 0.35839 0.33184 0.14443 0.0
C2256 C 0.38881 0.30701 0.14661 0.0
C2257 C 0.36218 0.36881 0.15376 0.0
C2258 C 0.42274 0.31881 0.15854 0.0
H2259 H 0.38542 0.27825 0.13983 0.0
C2260 C 0.42553 0.35561 0.16865 0.0
C2261 C 0.39515 0.38064 0.16677 0.0
C2262 C 0.45478 0.29249 0.16165 0.0
H2263 H 0.33907 0.3882 0.15125 0.0
H2264 H 0.4512 0.36459 0.17843 0.0
C2265 C 0.39755 0.41861 0.1791 0.0
O2266 O 0.48723 0.30438 0.17294 0.0
O2267 O 0.45198 0.25991 0.15415 0.0
O2268 O 0.37 0.43923 0.17951 0.0
O2269 O 0.43011 0.43052 0.1902 0.0
H2270 H 0.50846 0.28775 0.17545 0.0
H2271 H 0.43225 0.4551 0.19839 0.0
N2272 N 0.25361 0.29471 0.13221 0.0
C2273 C 0.21635 0.29201 0.1358 0.0
C2274 C 0.19331 0.28712 0.11344 0.0
C2275 C 0.21054 0.28707 0.08798 0.0
C2276 C 0.24978 0.29264 0.08537 0.0
C2277 C 0.2711 0.29725 0.10865 0.0
N2278 N 0.23436 0.3005 0.18154 0.0
C2279 C 0.20534 0.29453 0.16413 0.0
O2280 O 0.17081 0.28792 0.17233 0.0
C2281 C 0.3105 0.30997 0.11096 0.0
O2282 O 0.34693 0.40895 0.09203 0.0
O2283 O 0.3919 0.3718 0.07808 0.0
C2284 C 0.22984 0.29788 0.2099 0.0
C2285 C 0.21337 0.3275 0.2239 0.0
C2286 C 0.20686 0.32467 0.25139 0.0
C2287 C 0.2186 0.29169 0.26499 0.0
C2288 C 0.23592 0.2608 0.25107 0.0
C2289 C 0.23964 0.26464 0.22311 0.0
O2290 O 0.2801 0.33492 0.02517 0.0
O2291 O 0.289 0.39293 0.01743 0.0
O2292 O 0.2875 0.41722 0.06322 0.0
O2293 O 0.24797 0.46293 0.0633 0.0
O2294 O 0.33244 0.31437 0.08888 0.0
C2295 C 0.37709 0.44295 0.01563 0.0
O2296 O 0.34911 0.46564 0.01637 0.0
O2297 O 0.37448 0.40819 0.02315 0.0
C2298 C 0.38105 0.39822 0.09368 0.0
H2299 H 0.31025 0.40364 0.22981 0.0
H2300 H 0.35307 0.29092 0.24337 0.0
H2301 H 0.34578 0.35777 0.25825 0.0
H2302 H 0.2901 0.38522 0.11125 0.0
H2303 H 0.19052 0.44635 0.09118 0.0
H2304 H 0.19374 0.37672 0.16142 0.0
H2305 H 0.35138 0.20516 0.16528 0.0
H2306 H 0.23425 0.22938 0.15244 0.0
H2307 H 0.2725 0.1182 0.14453 0.0
H2308 H 0.16315 0.28404 0.11548 0.0
H2309 H 0.1934 0.28374 0.07025 0.0
H2310 H 0.26268 0.29427 0.06586 0.0
H2311 H 0.20571 0.35294 0.21322 0.0
H2312 H 0.21447 0.2914 0.28633 0.0
H2313 H 0.24989 0.24205 0.21083 0.0
Cd2314 Cd 0.36722 0.58219 0.80568 0.0
C2315 C 0.37119 0.51832 0.76405 0.0
C2316 C 0.47275 0.57096 0.94434 0.0
O2317 O 0.50223 0.58264 0.95792 0.0
Cd2318 Cd 0.27698 0.53043 0.76936 0.0
C2319 C 0.43509 0.57379 0.95597 0.0
C2320 C 0.3609 0.5646 0.97315 0.0
C2321 C 0.37364 0.54999 0.94883 0.0
N2322 N 0.40921 0.55622 0.9415 0.0
C2323 C 0.42465 0.58901 0.98072 0.0
C2324 C 0.38693 0.58453 0.98914 0.0
Co2325 Co 0.42598 0.53047 0.91176 0.0
C2326 C 0.35345 0.52661 0.92953 0.0
O2327 O 0.31738 0.51903 0.9318 0.0
C2328 C 0.35904 0.49313 0.88712 0.0
C2329 C 0.34471 0.51073 0.86437 0.0
C2330 C 0.32016 0.4914 0.84735 0.0
C2331 C 0.31068 0.45434 0.85331 0.0
C2332 C 0.32363 0.43743 0.87699 0.0
C2333 C 0.35043 0.45581 0.89252 0.0
C2334 C 0.30264 0.5103 0.82441 0.0
C2335 C 0.51215 0.5443 0.90849 0.0
C2336 C 0.53915 0.57327 0.90933 0.0
C2337 C 0.5242 0.50819 0.90095 0.0
C2338 C 0.56166 0.50123 0.89447 0.0
C2339 C 0.58836 0.52944 0.8975 0.0
C2340 C 0.57749 0.56467 0.90748 0.0
N2341 N 0.47592 0.55033 0.92102 0.0
N2342 N 0.37434 0.51534 0.908 0.0
N2343 N 0.41784 0.57198 0.88677 0.0
C2344 C 0.40406 0.60838 0.89443 0.0
C2345 C 0.42889 0.6388 0.89661 0.0
C2346 C 0.3671 0.61216 0.90376 0.0
C2347 C 0.41708 0.67272 0.90855 0.0
H2348 H 0.45765 0.63541 0.88983 0.0
C2349 C 0.38029 0.67551 0.91866 0.0
C2350 C 0.35527 0.64513 0.91679 0.0
C2351 C 0.4434 0.70476 0.91165 0.0
H2352 H 0.34771 0.58905 0.90125 0.0
H2353 H 0.3713 0.70118 0.92845 0.0
C2354 C 0.31729 0.64752 0.92911 0.0
O2355 O 0.43152 0.73721 0.92295 0.0
O2356 O 0.47597 0.70197 0.90414 0.0
O2357 O 0.29668 0.61998 0.92951 0.0
O2358 O 0.30538 0.68008 0.94021 0.0
H2359 H 0.44814 0.75845 0.92546 0.0
H2360 H 0.28079 0.68222 0.9484 0.0
N2361 N 0.4412 0.50359 0.88221 0.0
C2362 C 0.44389 0.46633 0.8858 0.0
C2363 C 0.44878 0.44329 0.86344 0.0
C2364 C 0.44883 0.46053 0.83798 0.0
C2365 C 0.44327 0.49976 0.83537 0.0
C2366 C 0.43867 0.52109 0.85865 0.0
N2367 N 0.43539 0.48434 0.93154 0.0
C2368 C 0.44136 0.45532 0.91413 0.0
O2369 O 0.44796 0.42079 0.92233 0.0
C2370 C 0.42596 0.56049 0.86096 0.0
O2371 O 0.32695 0.59689 0.84202 0.0
O2372 O 0.36409 0.64188 0.82811 0.0
C2373 C 0.43803 0.47982 0.9599 0.0
C2374 C 0.40841 0.46335 0.97391 0.0
C2375 C 0.41124 0.45686 1.0014 0.0
C2376 C 0.44423 0.46861 0.01499 0.0
C2377 C 0.47512 0.48593 1.00107 0.0
C2378 C 0.47127 0.48964 0.97311 0.0
O2379 O 0.40103 0.53008 0.77518 0.0
O2380 O 0.34308 0.53928 0.76731 0.0
O2381 O 0.31884 0.5374 0.81316 0.0
O2382 O 0.27316 0.49783 0.81318 0.0
O2383 O 0.42156 0.58243 0.83889 0.0
C2384 C 0.29294 0.62706 0.76563 0.0
O2385 O 0.27023 0.5991 0.76639 0.0
O2386 O 0.3277 0.62445 0.77315 0.0
C2387 C 0.33767 0.63101 0.8437 0.0
H2388 H 0.33226 0.56023 0.9798 0.0
H2389 H 0.44497 0.60306 0.99337 0.0
H2390 H 0.37812 0.59576 0.00825 0.0
H2391 H 0.35076 0.54002 0.8612 0.0
H2392 H 0.28962 0.44044 0.84116 0.0
H2393 H 0.35914 0.44374 0.91146 0.0
H2394 H 0.53078 0.60134 0.91532 0.0
H2395 H 0.50651 0.48422 0.90244 0.0
H2396 H 0.6177 0.52243 0.89453 0.0
H2397 H 0.45184 0.41313 0.86547 0.0
H2398 H 0.45217 0.44339 0.82025 0.0
H2399 H 0.44166 0.51267 0.81586 0.0
H2400 H 0.38297 0.45569 0.96323 0.0
H2401 H 0.44453 0.4645 0.03633 0.0
H2402 H 0.49386 0.49988 0.96083 0.0
Cd2403 Cd 0.15378 0.61707 0.55567 0.0
C2404 C 0.21796 0.62116 0.51416 0.0
C2405 C 0.16491 0.72274 0.69432 0.0
O2406 O 0.15323 0.75222 0.7079 0.0
Cd2407 Cd 0.20557 0.5267 0.51951 0.0
C2408 C 0.16207 0.68509 0.70596 0.0
C2409 C 0.17124 0.6109 0.72316 0.0
C2410 C 0.18587 0.62363 0.69884 0.0
N2411 N 0.17965 0.6592 0.6915 0.0
C2412 C 0.14684 0.67466 0.7307 0.0
C2413 C 0.15132 0.63694 0.73914 0.0
Co2414 Co 0.20541 0.67595 0.66176 0.0
C2415 C 0.20926 0.60342 0.67955 0.0
O2416 O 0.21683 0.56735 0.68183 0.0
C2417 C 0.24273 0.60898 0.63714 0.0
C2418 C 0.22508 0.59454 0.61444 0.0
C2419 C 0.24437 0.56993 0.59745 0.0
C2420 C 0.28146 0.56051 0.60337 0.0
C2421 C 0.29842 0.57356 0.627 0.0
C2422 C 0.28006 0.60039 0.64251 0.0
C2423 C 0.22542 0.55228 0.57458 0.0
C2424 C 0.19159 0.76211 0.65847 0.0
C2425 C 0.16264 0.78914 0.65932 0.0
C2426 C 0.2277 0.77414 0.65092 0.0
C2427 C 0.23469 0.81158 0.64443 0.0
C2428 C 0.2065 0.8383 0.64746 0.0
C2429 C 0.17128 0.82747 0.65747 0.0
N2430 N 0.18554 0.72589 0.671 0.0
N2431 N 0.22055 0.6243 0.65803 0.0
N2432 N 0.16391 0.66779 0.63676 0.0
C2433 C 0.12751 0.65402 0.64442 0.0
C2434 C 0.0971 0.67885 0.6466 0.0
C2435 C 0.12372 0.61705 0.65375 0.0
C2436 C 0.06316 0.66705 0.65853 0.0
H2437 H 0.10049 0.70761 0.63982 0.0
C2438 C 0.06037 0.63026 0.66864 0.0
C2439 C 0.09075 0.60523 0.66677 0.0
C2440 C 0.03113 0.69338 0.66164 0.0
H2441 H 0.14683 0.59766 0.65125 0.0
H2442 H 0.0347 0.62128 0.67843 0.0
C2443 C 0.08835 0.56725 0.6791 0.0
O2444 O -0.00132 0.6815 0.67293 0.0
O2445 O 0.03393 0.72596 0.65414 0.0
O2446 O 0.11589 0.54664 0.6795 0.0
O2447 O 0.05579 0.55535 0.69019 0.0
H2448 H 0.97745 0.69813 0.67544 0.0
H2449 H 0.05364 0.53077 0.69838 0.0
N2450 N 0.2323 0.69114 0.63221 0.0
C2451 C 0.26956 0.69383 0.6358 0.0
C2452 C 0.29261 0.6987 0.61345 0.0
C2453 C 0.27539 0.69873 0.58798 0.0
C2454 C 0.23615 0.69317 0.58537 0.0
C2455 C 0.21482 0.68858 0.60865 0.0
N2456 N 0.25153 0.68537 0.68155 0.0
C2457 C 0.28056 0.69132 0.66414 0.0
O2458 O 0.31509 0.69792 0.67234 0.0
C2459 C 0.17542 0.67586 0.61095 0.0
O2460 O 0.13899 0.57688 0.59202 0.0
O2461 O 0.09404 0.61403 0.57805 0.0
C2462 C 0.25604 0.688 0.70991 0.0
C2463 C 0.27252 0.65838 0.72391 0.0
C2464 C 0.27902 0.66122 0.7514 0.0
C2465 C 0.26727 0.69419 0.765 0.0
C2466 C 0.24994 0.72508 0.75108 0.0
C2467 C 0.24622 0.72124 0.72312 0.0
O2468 O 0.20586 0.65096 0.52515 0.0
O2469 O 0.19731 0.59287 0.51754 0.0
O2470 O 0.19837 0.56848 0.56327 0.0
O2471 O 0.23786 0.52274 0.56343 0.0
O2472 O 0.1535 0.67143 0.58887 0.0
C2473 C 0.10886 0.5429 0.51563 0.0
O2474 O 0.13685 0.52022 0.51635 0.0
O2475 O 0.11146 0.57765 0.52315 0.0
C2476 C 0.10487 0.58762 0.59366 0.0
H2477 H 0.17562 0.58226 0.72982 0.0
H2478 H 0.13279 0.69499 0.74335 0.0
H2479 H 0.14008 0.62814 0.75825 0.0
H2480 H 0.19578 0.60058 0.6113 0.0
H2481 H 0.29535 0.53944 0.59123 0.0
H2482 H 0.29216 0.60915 0.66143 0.0
H2483 H 0.13456 0.7808 0.66531 0.0
H2484 H 0.25166 0.75644 0.65242 0.0
H2485 H 0.21353 0.86764 0.64447 0.0
H2486 H 0.32277 0.70177 0.61549 0.0
H2487 H 0.29254 0.70206 0.57026 0.0
H2488 H 0.22325 0.69153 0.56586 0.0
H2489 H 0.28018 0.63295 0.71324 0.0
H2490 H 0.27139 0.69448 0.78634 0.0
H2491 H 0.23598 0.74383 0.71085 0.0
Cd2492 Cd 0.12198 0.5809 0.21061 0.0
C2493 C 0.12057 0.50559 0.25184 0.0
C2494 C 0.01301 0.57118 0.07218 0.0
O2495 O 0.98352 0.58282 0.05859 0.0
Cd2496 Cd 0.21851 0.53263 0.24133 0.0
C2497 C 0.05063 0.57395 0.06048 0.0
C2498 C 0.12472 0.56455 0.04311 0.0
C2499 C 0.11203 0.54993 0.06744 0.0
N2500 N 0.07652 0.55628 0.07489 0.0
C2501 C 0.06101 0.58916 0.03571 0.0
C2502 C 0.09867 0.58457 0.0272 0.0
Co2503 Co 0.05979 0.53046 0.10461 0.0
C2504 C 0.13223 0.52647 0.08668 0.0
O2505 O 0.16834 0.51902 0.08446 0.0
C2506 C 0.12684 0.49396 0.12946 0.0
C2507 C 0.14246 0.51264 0.15135 0.0
C2508 C 0.16763 0.49394 0.1682 0.0
C2509 C 0.17595 0.45629 0.16324 0.0
C2510 C 0.16185 0.43836 0.14032 0.0
C2511 C 0.13467 0.45626 0.12489 0.0
C2512 C 0.18811 0.51389 0.18938 0.0
C2513 C 0.97359 0.5442 0.1079 0.0
C2514 C 0.94635 0.57294 0.10698 0.0
C2515 C 0.96178 0.50801 0.11544 0.0
C2516 C 0.92439 0.50077 0.12194 0.0
C2517 C 0.8975 0.52875 0.11888 0.0
C2518 C 0.90808 0.564 0.10878 0.0
N2519 N 0.00985 0.55049 0.09548 0.0
N2520 N 0.11136 0.51525 0.10821 0.0
N2521 N 0.06828 0.5718 0.12975 0.0
C2522 C 0.08202 0.60823 0.1221 0.0
C2523 C 0.05712 0.63859 0.11986 0.0
C2524 C 0.11894 0.61203 0.11266 0.0
C2525 C 0.06882 0.67248 0.10781 0.0
H2526 H 0.02838 0.63517 0.12666 0.0
C2527 C 0.10558 0.67529 0.09765 0.0
C2528 C 0.13066 0.64496 0.09954 0.0
C2529 C 0.04241 0.70444 0.10461 0.0
H2530 H 0.13835 0.58893 0.11508 0.0
H2531 H 0.11448 0.70092 0.08777 0.0
C2532 C 0.16856 0.64735 0.08709 0.0
O2533 O 0.05423 0.73687 0.09325 0.0
O2534 O 0.00983 0.7016 0.11209 0.0
O2535 O 0.18916 0.6198 0.08662 0.0
O2536 O 0.18041 0.67991 0.07596 0.0
H2537 H 0.03755 0.75805 0.09068 0.0
H2538 H 0.20494 0.68205 0.0677 0.0
N2539 N 0.04469 0.50345 0.13419 0.0
C2540 C 0.04203 0.46619 0.13049 0.0
C2541 C 0.03757 0.44296 0.1528 0.0
C2542 C 0.03814 0.45994 0.17834 0.0
C2543 C 0.04397 0.49911 0.18108 0.0
C2544 C 0.04795 0.52065 0.15783 0.0
N2545 N 0.05021 0.48438 0.08473 0.0
C2546 C 0.04436 0.45531 0.10212 0.0
O2547 O 0.03782 0.42079 0.09389 0.0
C2548 C 0.06097 0.55993 0.15563 0.0
O2549 O 0.16224 0.59669 0.1746 0.0
O2550 O 0.12346 0.64061 0.18788 0.0
C2551 C 0.04758 0.47976 0.05635 0.0
C2552 C 0.07685 0.46247 0.04243 0.0
C2553 C 0.07372 0.45546 0.01501 0.0
C2554 C 0.04096 0.46762 1.00138 0.0
C2555 C 0.01045 0.48566 0.01517 0.0
C2556 C 0.01446 0.48985 0.0431 0.0
O2557 O 0.09501 0.5261 0.24115 0.0
O2558 O 0.15434 0.51507 0.24815 0.0
O2559 O 0.17313 0.54047 0.20219 0.0
O2560 O 0.22034 0.50319 0.19715 0.0
O2561 O 0.06649 0.5813 0.1779 0.0
C2562 C 0.19152 0.62826 0.25057 0.0
O2563 O 0.21457 0.6008 0.24891 0.0
O2564 O 0.15676 0.62524 0.24341 0.0
C2565 C 0.15033 0.63035 0.1725 0.0
H2566 H 0.15332 0.56009 0.03639 0.0
H2567 H 0.04067 0.60327 0.02311 0.0
H2568 H 0.10743 0.5958 0.00807 0.0
H2569 H 0.13723 0.54223 0.15368 0.0
H2570 H 0.19732 0.44269 0.17529 0.0
H2571 H 0.12516 0.44341 0.10641 0.0
H2572 H 0.95447 0.60108 0.10098 0.0
H2573 H 0.97958 0.48416 0.11393 0.0
H2574 H 0.86821 0.52152 0.12186 0.0
H2575 H 0.0345 0.41282 0.15066 0.0
H2576 H 0.03524 0.44263 0.19601 0.0
H2577 H 0.04645 0.51178 0.20065 0.0
H2578 H 0.10225 0.45463 0.05309 0.0
H2579 H 0.04058 0.46325 0.98007 0.0
H2580 H 0.99205 0.50062 0.05532 0.0
Cd2581 Cd 0.15499 0.37196 0.96062 0.0
C2582 C 0.23028 0.37054 1.00184 0.0
C2583 C 0.16469 0.26302 0.82216 0.0
O2584 O 0.15306 0.23354 0.80855 0.0
Cd2585 Cd 0.20328 0.46848 0.99135 0.0
C2586 C 0.16193 0.30064 0.81048 0.0
C2587 C 0.17136 0.37473 0.79312 0.0
C2588 C 0.18597 0.36203 0.81745 0.0
N2589 N 0.17961 0.32651 0.82489 0.0
C2590 C 0.14673 0.31103 0.78571 0.0
C2591 C 0.15133 0.3487 0.7772 0.0
Co2592 Co 0.20542 0.30977 0.85461 0.0
C2593 C 0.20945 0.38221 0.83669 0.0
O2594 O 0.2169 0.41831 0.83448 0.0
C2595 C 0.24194 0.3768 0.87948 0.0
C2596 C 0.22325 0.39243 0.90136 0.0
C2597 C 0.24195 0.41761 0.91821 0.0
C2598 C 0.2796 0.42593 0.91325 0.0
C2599 C 0.29753 0.41183 0.89033 0.0
C2600 C 0.27964 0.38463 0.87491 0.0
C2601 C 0.22199 0.43809 0.93939 0.0
C2602 C 0.19161 0.22357 0.85789 0.0
C2603 C 0.16284 0.19636 0.85695 0.0
C2604 C 0.22779 0.21172 0.86543 0.0
C2605 C 0.23499 0.17431 0.8719 0.0
C2606 C 0.20698 0.14744 0.86881 0.0
C2607 C 0.17174 0.15808 0.85873 0.0
N2608 N 0.18536 0.25984 0.84547 0.0
N2609 N 0.22066 0.36132 0.85822 0.0
N2610 N 0.16408 0.31826 0.87975 0.0
C2611 C 0.12766 0.33201 0.8721 0.0
C2612 C 0.0973 0.30711 0.86986 0.0
C2613 C 0.12386 0.36892 0.86265 0.0
C2614 C 0.06341 0.3188 0.8578 0.0
H2615 H 0.10072 0.27837 0.87667 0.0
C2616 C 0.06059 0.35556 0.84764 0.0
C2617 C 0.09093 0.38064 0.84953 0.0
C2618 C 0.03145 0.2924 0.8546 0.0
H2619 H 0.14696 0.38833 0.86507 0.0
H2620 H 0.03496 0.36446 0.83776 0.0
C2621 C 0.08854 0.41854 0.83708 0.0
O2622 O -0.00098 0.30421 0.84324 0.0
O2623 O 0.0343 0.25982 0.86209 0.0
O2624 O 0.11608 0.43915 0.83662 0.0
O2625 O 0.05598 0.4304 0.82595 0.0
H2626 H 0.97785 0.28753 0.84067 0.0
H2627 H 0.05384 0.45493 0.81769 0.0
N2628 N 0.23243 0.29464 0.88419 0.0
C2629 C 0.26968 0.29196 0.88049 0.0
C2630 C 0.29291 0.28751 0.9028 0.0
C2631 C 0.27593 0.28809 0.92834 0.0
C2632 C 0.23676 0.29393 0.93108 0.0
C2633 C 0.21522 0.29791 0.90783 0.0
N2634 N 0.25149 0.30016 0.83473 0.0
C2635 C 0.28056 0.29429 0.85213 0.0
O2636 O 0.31509 0.28774 0.8439 0.0
C2637 C 0.17595 0.31095 0.90563 0.0
O2638 O 0.13923 0.41223 0.92462 0.0
O2639 O 0.0953 0.37344 0.93786 0.0
C2640 C 0.25612 0.2975 0.80636 0.0
C2641 C 0.27343 0.32674 0.79242 0.0
C2642 C 0.28046 0.32358 0.76501 0.0
C2643 C 0.26831 0.2908 0.75139 0.0
C2644 C 0.25024 0.26031 0.7652 0.0
C2645 C 0.24601 0.26436 0.79312 0.0
O2646 O 0.20979 0.34497 0.99115 0.0
O2647 O 0.22078 0.4043 0.99815 0.0
O2648 O 0.19542 0.4231 0.9522 0.0
O2649 O 0.23271 0.47031 0.94717 0.0
O2650 O 0.15458 0.31648 0.9279 0.0
C2651 C 0.10764 0.44151 1.00058 0.0
O2652 O 0.13511 0.46455 0.99893 0.0
O2653 O 0.11066 0.40675 0.99341 0.0
C2654 C 0.10558 0.40032 0.92248 0.0
H2655 H 0.17583 0.40333 0.78641 0.0
H2656 H 0.13262 0.29071 0.7731 0.0
H2657 H 0.14011 0.35747 0.75808 0.0
H2658 H 0.19367 0.3872 0.90369 0.0
H2659 H 0.29319 0.44731 0.9253 0.0
H2660 H 0.2925 0.37512 0.85643 0.0
H2661 H 0.13472 0.20453 0.85095 0.0
H2662 H 0.25166 0.2295 0.86395 0.0
H2663 H 0.21419 0.11814 0.87178 0.0
H2664 H 0.32305 0.28442 0.90066 0.0
H2665 H 0.29324 0.28519 0.94602 0.0
H2666 H 0.2241 0.29641 0.95065 0.0
H2667 H 0.28127 0.35215 0.80307 0.0
H2668 H 0.27271 0.29038 0.73009 0.0
H2669 H 0.2352 0.24199 0.80534 0.0
Cd2670 Cd 0.36383 0.40492 0.7106 0.0
C2671 C 0.36514 0.48045 0.75186 0.0
C2672 C 0.47285 0.41466 0.57216 0.0
O2673 O 0.50233 0.40304 0.55856 0.0
Cd2674 Cd 0.26732 0.45305 0.74122 0.0
C2675 C 0.43523 0.4119 0.56048 0.0
C2676 C 0.36114 0.42134 0.54312 0.0
C2677 C 0.37383 0.43593 0.56746 0.0
N2678 N 0.40935 0.42957 0.5749 0.0
C2679 C 0.42484 0.39671 0.53571 0.0
C2680 C 0.38717 0.40132 0.5272 0.0
Co2681 Co 0.4261 0.45538 0.60462 0.0
C2682 C 0.35365 0.45941 0.5867 0.0
O2683 O 0.31755 0.46686 0.58449 0.0
C2684 C 0.35906 0.4919 0.62949 0.0
C2685 C 0.34343 0.47321 0.65136 0.0
C2686 C 0.31825 0.4919 0.66821 0.0
C2687 C 0.30995 0.52956 0.66327 0.0
C2688 C 0.32405 0.5475 0.64035 0.0
C2689 C 0.35125 0.52961 0.62493 0.0
C2690 C 0.29775 0.47193 0.68937 0.0
C2691 C 0.51228 0.44154 0.60791 0.0
C2692 C 0.53946 0.41274 0.60698 0.0
C2693 C 0.52416 0.47771 0.61545 0.0
C2694 C 0.56158 0.48488 0.62191 0.0
C2695 C 0.58842 0.45684 0.61882 0.0
C2696 C 0.57774 0.4216 0.60875 0.0
N2697 N 0.47602 0.43532 0.59548 0.0
N2698 N 0.37454 0.47063 0.60822 0.0
N2699 N 0.41759 0.41406 0.62977 0.0
C2700 C 0.40385 0.37763 0.62212 0.0
C2701 C 0.42875 0.34727 0.61987 0.0
C2702 C 0.36694 0.37383 0.61266 0.0
C2703 C 0.41706 0.31338 0.60781 0.0
H2704 H 0.4575 0.35069 0.62668 0.0
C2705 C 0.3803 0.31057 0.59765 0.0
C2706 C 0.35522 0.3409 0.59954 0.0
C2707 C 0.44347 0.28143 0.60461 0.0
H2708 H 0.34752 0.39693 0.61509 0.0
H2709 H 0.3714 0.28494 0.58776 0.0
C2710 C 0.31732 0.33852 0.58709 0.0
O2711 O 0.43166 0.249 0.59324 0.0
O2712 O 0.47605 0.28427 0.61209 0.0
O2713 O 0.29672 0.36607 0.58662 0.0
O2714 O 0.30547 0.30596 0.57595 0.0
H2715 H 0.44834 0.22782 0.59067 0.0
H2716 H 0.28094 0.30382 0.56769 0.0
N2717 N 0.44122 0.4824 0.63419 0.0
C2718 C 0.44392 0.51964 0.63049 0.0
C2719 C 0.44837 0.54289 0.65279 0.0
C2720 C 0.44776 0.52592 0.67833 0.0
C2721 C 0.44191 0.48676 0.68108 0.0
C2722 C 0.43794 0.46521 0.65783 0.0
N2723 N 0.43572 0.50144 0.58473 0.0
C2724 C 0.44159 0.53051 0.60212 0.0
O2725 O 0.44814 0.56503 0.59388 0.0
C2726 C 0.42489 0.42593 0.65564 0.0
O2727 O 0.32354 0.38919 0.67462 0.0
O2728 O 0.36238 0.34528 0.68784 0.0
C2729 C 0.43835 0.50605 0.55636 0.0
C2730 C 0.40906 0.5233 0.54243 0.0
C2731 C 0.41218 0.53032 0.51501 0.0
C2732 C 0.44498 0.51824 0.50139 0.0
C2733 C 0.47552 0.50021 0.51518 0.0
C2734 C 0.47149 0.49599 0.5431 0.0
O2735 O 0.39052 0.45977 0.74108 0.0
O2736 O 0.33124 0.47131 0.74831 0.0
O2737 O 0.31272 0.44537 0.70221 0.0
O2738 O 0.26548 0.48259 0.69708 0.0
O2739 O 0.41936 0.40458 0.67791 0.0
C2740 C 0.2944 0.35749 0.75056 0.0
O2741 O 0.27134 0.38493 0.74887 0.0
O2742 O 0.32917 0.36055 0.74343 0.0
C2743 C 0.33548 0.35554 0.67248 0.0
H2744 H 0.33254 0.42581 0.53641 0.0
H2745 H 0.44517 0.38261 0.52309 0.0
H2746 H 0.3784 0.39011 0.50807 0.0
H2747 H 0.34864 0.44362 0.65367 0.0
H2748 H 0.28856 0.54315 0.67531 0.0
H2749 H 0.36075 0.54247 0.60645 0.0
H2750 H 0.53126 0.38462 0.60099 0.0
H2751 H 0.5064 0.50159 0.61396 0.0
H2752 H 0.61773 0.46402 0.62178 0.0
H2753 H 0.45146 0.57303 0.65064 0.0
H2754 H 0.45066 0.54324 0.69601 0.0
H2755 H 0.43941 0.47411 0.70066 0.0
H2756 H 0.38365 0.53111 0.55309 0.0
H2757 H 0.44538 0.52264 0.48008 0.0
H2758 H 0.49389 0.48521 0.55532 0.0
Cd2759 Cd 0.33097 0.61395 0.46061 0.0
C2760 C 0.25584 0.6155 0.50186 0.0
C2761 C 0.32118 0.72287 0.32218 0.0
O2762 O 0.33282 0.75235 0.30859 0.0
Cd2763 Cd 0.28254 0.51752 0.49148 0.0
C2764 C 0.32395 0.68525 0.31049 0.0
C2765 C 0.31454 0.61116 0.29312 0.0
C2766 C 0.29992 0.62385 0.31745 0.0
N2767 N 0.30626 0.65937 0.32489 0.0
C2768 C 0.33915 0.67487 0.28572 0.0
C2769 C 0.33457 0.6372 0.2772 0.0
Co2770 Co 0.28046 0.67609 0.35462 0.0
C2771 C 0.27646 0.60365 0.33668 0.0
O2772 O 0.26901 0.56755 0.33446 0.0
C2773 C 0.24396 0.60904 0.37947 0.0
C2774 C 0.26263 0.59343 0.40137 0.0
C2775 C 0.24393 0.56826 0.41822 0.0
C2776 C 0.20628 0.55993 0.41325 0.0
C2777 C 0.18836 0.57403 0.39032 0.0
C2778 C 0.20626 0.60121 0.3749 0.0
C2779 C 0.26387 0.54784 0.43943 0.0
C2780 C 0.29417 0.76231 0.35789 0.0
C2781 C 0.32289 0.78957 0.35696 0.0
C2782 C 0.25797 0.7741 0.36544 0.0
C2783 C 0.25071 0.81148 0.37194 0.0
C2784 C 0.27867 0.8384 0.36887 0.0
C2785 C 0.31392 0.82783 0.35877 0.0
N2786 N 0.30048 0.72604 0.34548 0.0
N2787 N 0.26525 0.62453 0.35822 0.0
N2788 N 0.3218 0.66762 0.37975 0.0
C2789 C 0.35823 0.65387 0.37209 0.0
C2790 C 0.38859 0.67877 0.36985 0.0
C2791 C 0.36203 0.61696 0.36264 0.0
C2792 C 0.42248 0.66707 0.35779 0.0
H2793 H 0.38517 0.70752 0.37666 0.0
C2794 C 0.42529 0.63032 0.34763 0.0
C2795 C 0.39496 0.60524 0.34952 0.0
C2796 C 0.45444 0.69348 0.3546 0.0
H2797 H 0.33893 0.59755 0.36507 0.0
H2798 H 0.45092 0.62141 0.33775 0.0
C2799 C 0.39735 0.56733 0.33708 0.0
O2800 O 0.48687 0.68166 0.34324 0.0
O2801 O 0.45159 0.72606 0.36209 0.0
O2802 O 0.3698 0.54673 0.33661 0.0
O2803 O 0.42991 0.55548 0.32594 0.0
H2804 H 0.50804 0.69834 0.34067 0.0
H2805 H 0.43205 0.53094 0.31769 0.0
N2806 N 0.25345 0.69119 0.3842 0.0
C2807 C 0.21619 0.69385 0.38051 0.0
C2808 C 0.19297 0.69832 0.40282 0.0
C2809 C 0.20996 0.69777 0.42835 0.0
C2810 C 0.24913 0.69195 0.43108 0.0
C2811 C 0.27066 0.68795 0.40783 0.0
N2812 N 0.23437 0.68567 0.33474 0.0
C2813 C 0.2053 0.69151 0.35214 0.0
O2814 O 0.17077 0.69806 0.34392 0.0
C2815 C 0.30995 0.67494 0.40563 0.0
O2816 O 0.34669 0.57373 0.4246 0.0
O2817 O 0.39064 0.61249 0.43786 0.0
C2818 C 0.22974 0.6883 0.30637 0.0
C2819 C 0.21245 0.65904 0.29243 0.0
C2820 C 0.20547 0.66217 0.26501 0.0
C2821 C 0.21765 0.69493 0.25138 0.0
C2822 C 0.2357 0.72543 0.26519 0.0
C2823 C 0.23985 0.72142 0.29312 0.0
O2824 O 0.2763 0.6411 0.49117 0.0
O2825 O 0.2654 0.58177 0.49815 0.0
O2826 O 0.29045 0.56285 0.45222 0.0
O2827 O 0.25311 0.51567 0.44729 0.0
O2828 O 0.33133 0.66943 0.42789 0.0
C2829 C 0.37825 0.54428 0.50059 0.0
O2830 O 0.35074 0.52128 0.499 0.0
O2831 O 0.37527 0.57903 0.49338 0.0
C2832 C 0.38035 0.58562 0.42248 0.0
H2833 H 0.31008 0.58256 0.2864 0.0
H2834 H 0.35327 0.6952 0.27312 0.0
H2835 H 0.3458 0.62844 0.25808 0.0
H2836 H 0.29221 0.59867 0.4037 0.0
H2837 H 0.19269 0.53856 0.4253 0.0
H2838 H 0.19341 0.61071 0.35641 0.0
H2839 H 0.35103 0.78146 0.35095 0.0
H2840 H 0.23413 0.7563 0.36393 0.0
H2841 H 0.27142 0.86768 0.37186 0.0
H2842 H 0.16282 0.70139 0.40068 0.0
H2843 H 0.19266 0.70068 0.44603 0.0
H2844 H 0.26181 0.6895 0.45066 0.0
H2845 H 0.2046 0.63365 0.30309 0.0
H2846 H 0.21332 0.69532 0.23007 0.0
H2847 H 0.25061 0.74382 0.30535 0.0
loop_
_geom_bond_atom_site_label_1
_geom_bond_atom_site_label_2
_geom_bond_distance
_geom_bond_site_symmetry_2
_ccdc_geom_bond_type
Cd0 O57 2.350 . S
Cd0 O58 2.277 . S
Cd0 O65 2.173 . S
Cd0 O67 2.263 . S
Cd0 O69 2.366 . S
Cd0 O72 2.329 . S
C1 O65 1.277 . S
C1 O66 1.230 . S
C2 O3 1.246 . S
C2 C5 1.481 . S
C2 N27 1.329 . S
O3 C2 1.246 . S
Cd4 O66 2.250 . S
Cd4 O68 2.308 . S
Cd4 O71 2.352 . S
C5 C2 1.481 . S
C5 N8 1.327 . S
C5 C9 1.407 . S
C6 C7 1.346 . S
C6 C10 1.390 . S
C6 H74 0.930 . S
C7 C6 1.346 . S
C7 N8 1.342 . S
C7 C12 1.516 . S
N8 C5 1.327 . S
N8 C7 1.342 . S
N8 Co11 1.864 . S
C9 C5 1.407 . S
C9 C10 1.364 . S
C9 H75 0.930 . S
C10 C6 1.390 . S
C10 C9 1.364 . S
C10 H76 0.931 1_554 S
Co11 N8 1.864 . S
Co11 N27 1.955 . S
Co11 N28 1.958 . S
Co11 N29 1.953 . S
Co11 N47 1.869 . S
Co11 N53 1.974 1_545 S
C12 C7 1.516 . S
C12 O13 1.238 . S
C12 N28 1.324 . S
O13 C12 1.238 . S
C14 C15 1.394 . S
C14 C19 1.395 1_545 S
C14 N28 1.427 . S
C15 C14 1.394 . S
C15 C16 1.380 . S
C15 H77 0.929 . S
C16 C15 1.380 . S
C16 C17 1.384 1_545 S
C16 C20 1.495 . S
C17 C16 1.384 1_565 S
C17 C18 1.382 . S
C17 H78 0.930 . S
C18 C17 1.382 . S
C18 C19 1.398 . S
C19 C14 1.395 1_565 S
C19 C18 1.398 . S
C19 H79 0.930 . S
C20 C16 1.495 . S
C20 O67 1.258 . S
C20 O68 1.274 . S
C21 C22 1.385 . S
C21 C23 1.381 . S
C21 N27 1.432 . S
C22 C21 1.385 . S
C22 C26 1.388 . S
C22 H80 0.929 . S
C23 C21 1.381 . S
C23 C24 1.371 . S
C23 H81 0.931 . S
C24 C23 1.371 . S
C24 C25 1.400 . S
C25 C24 1.400 . S
C25 C26 1.351 . S
C25 H82 0.930 . S
C26 C22 1.388 . S
C26 C25 1.351 . S
N27 C2 1.329 . S
N27 Co11 1.955 . S
N27 C21 1.432 . S
N28 Co11 1.958 . S
N28 C12 1.324 . S
N28 C14 1.427 . S
N29 Co11 1.953 . S
N29 C30 1.436 . S
N29 C56 1.316 . S
C30 N29 1.436 . S
C30 C31 1.421 . S
C30 C32 1.360 . S
C31 C30 1.421 . S
C31 C33 1.379 . S
C31 H34 0.929 . S
C32 C30 1.360 . S
C32 C36 1.393 . S
C32 H38 0.931 . S
C33 C31 1.379 . S
C33 C35 1.417 . S
C33 C37 1.505 . S
H34 C31 0.929 . S
C35 C33 1.417 . S
C35 C36 1.352 . S
C35 H39 0.929 . S
C36 C32 1.393 . S
C36 C35 1.352 . S
C36 C40 1.482 . S
C37 C33 1.505 . S
C37 O41 1.259 . S
C37 O42 1.229 . S
H38 C32 0.931 . S
H39 C35 0.929 . S
C40 C36 1.482 . S
C40 O43 1.207 . S
C40 O44 1.289 . S
O41 C37 1.259 . S
O41 H45 0.822 . S
O42 C37 1.229 . S
O43 C40 1.207 . S
O44 C40 1.289 . S
O44 H46 0.819 . S
H45 O41 0.822 . S
H46 O44 0.819 . S
N47 Co11 1.869 . S
N47 C48 1.330 1_545 S
N47 C52 1.325 . S
C48 N47 1.330 1_565 S
C48 C49 1.359 . S
C48 C54 1.504 . S
C49 C48 1.359 . S
C49 C50 1.366 . S
C49 H83 0.929 . S
C50 C49 1.366 . S
C50 C51 1.415 1_565 S
C50 H84 0.932 . S
C51 C50 1.415 1_545 S
C51 C52 1.366 . S
C51 H85 0.931 . S
C52 N47 1.325 . S
C52 C51 1.366 . S
C52 C56 1.516 . S
N53 Co11 1.974 1_565 S
N53 C54 1.309 . S
N53 C59 1.423 . S
C54 C48 1.504 . S
C54 N53 1.309 . S
C54 O55 1.258 . S
O55 C54 1.258 . S
C56 N29 1.316 . S
C56 C52 1.516 . S
C56 O69 1.263 . S
O57 Cd0 2.350 . S
O57 C73 1.270 . S
O58 Cd0 2.277 . S
O58 C73 1.248 . S
C59 N53 1.423 . S
C59 C60 1.370 . S
C59 C64 1.403 . S
C60 C59 1.370 . S
C60 C61 1.389 . S
C60 H86 0.931 . S
C61 C60 1.389 . S
C61 C62 1.389 1_554 S
C62 C61 1.389 1_556 S
C62 C63 1.379 1_556 S
C62 H87 0.929 . S
C63 C62 1.379 1_554 S
C63 C64 1.405 . S
C64 C59 1.403 . S
C64 C63 1.405 . S
C64 H88 0.932 . S
O65 Cd0 2.173 . S
O65 C1 1.277 . S
O66 C1 1.230 . S
O66 Cd4 2.250 . S
O67 Cd0 2.263 . S
O67 C20 1.258 . S
O68 Cd4 2.308 . S
O68 C20 1.274 . S
O69 Cd0 2.366 . S
O69 C56 1.263 . S
C70 O71 1.235 . S
C70 O72 1.270 . S
O71 Cd4 2.352 . S
O71 C70 1.235 . S
O72 Cd0 2.329 . S
O72 C70 1.270 . S
C73 O57 1.270 . S
C73 O58 1.248 . S
H74 C6 0.930 . S
H75 C9 0.930 . S
H76 C10 0.931 1_556 S
H77 C15 0.929 . S
H78 C17 0.930 . S
H79 C19 0.930 . S
H80 C22 0.929 . S
H81 C23 0.931 . S
H82 C25 0.930 . S
H83 C49 0.929 . S
H84 C50 0.932 . S
H85 C51 0.931 . S
H86 C60 0.931 . S
H87 C62 0.929 . S
H88 C64 0.932 . S
Cd89 O146 2.350 . S
Cd89 O147 2.277 . S
Cd89 O154 2.173 . S
Cd89 O156 2.263 . S
Cd89 O158 2.366 . S
Cd89 O161 2.329 . S
C90 O154 1.277 . S
C90 O155 1.230 . S
C91 O92 1.246 . S
C91 C94 1.481 . S
C91 N116 1.329 . S
O92 C91 1.246 . S
Cd93 O155 2.250 . S
Cd93 O157 2.308 . S
Cd93 O160 2.352 . S
C94 C91 1.481 . S
C94 N97 1.327 . S
C94 C98 1.407 . S
C95 C96 1.346 . S
C95 C99 1.390 . S
C95 H163 0.930 . S
C96 C95 1.346 . S
C96 N97 1.342 . S
C96 C101 1.516 . S
N97 C94 1.327 . S
N97 C96 1.342 . S
N97 Co100 1.864 . S
C98 C94 1.407 . S
C98 C99 1.364 . S
C98 H164 0.930 . S
C99 C95 1.390 . S
C99 C98 1.364 . S
C99 H165 0.931 . S
Co100 N97 1.864 . S
Co100 N116 1.955 . S
Co100 N117 1.958 . S
Co100 N118 1.953 . S
Co100 N136 1.869 . S
Co100 N142 1.974 . S
C101 C96 1.516 . S
C101 O102 1.238 . S
C101 N117 1.324 . S
O102 C101 1.238 . S
C103 C104 1.394 . S
C103 C108 1.395 . S
C103 N117 1.427 . S
C104 C103 1.394 . S
C104 C105 1.380 . S
C104 H166 0.929 . S
C105 C104 1.380 . S
C105 C106 1.384 . S
C105 C109 1.495 . S
C106 C105 1.384 . S
C106 C107 1.382 . S
C106 H167 0.930 . S
C107 C106 1.382 . S
C107 C108 1.398 . S
C108 C103 1.395 . S
C108 C107 1.398 . S
C108 H168 0.930 . S
C109 C105 1.495 . S
C109 O156 1.258 . S
C109 O157 1.274 . S
C110 C111 1.385 . S
C110 C112 1.381 . S
C110 N116 1.432 . S
C111 C110 1.385 . S
C111 C115 1.388 . S
C111 H169 0.929 . S
C112 C110 1.381 . S
C112 C113 1.371 . S
C112 H170 0.932 . S
C113 C112 1.371 . S
C113 C114 1.400 . S
C114 C113 1.400 . S
C114 C115 1.351 . S
C114 H171 0.930 . S
C115 C111 1.388 . S
C115 C114 1.351 . S
N116 C91 1.329 . S
N116 Co100 1.955 . S
N116 C110 1.432 . S
N117 Co100 1.958 . S
N117 C101 1.324 . S
N117 C103 1.427 . S
N118 Co100 1.953 . S
N118 C119 1.436 . S
N118 C145 1.316 . S
C119 N118 1.436 . S
C119 C120 1.421 . S
C119 C121 1.360 . S
C120 C119 1.421 . S
C120 C122 1.379 . S
C120 H123 0.929 . S
C121 C119 1.360 . S
C121 C125 1.393 . S
C121 H127 0.931 . S
C122 C120 1.379 . S
C122 C124 1.417 . S
C122 C126 1.505 . S
H123 C120 0.929 . S
C124 C122 1.417 . S
C124 C125 1.352 . S
C124 H128 0.929 . S
C125 C121 1.393 . S
C125 C124 1.352 . S
C125 C129 1.482 . S
C126 C122 1.505 . S
C126 O130 1.259 . S
C126 O131 1.229 . S
H127 C121 0.931 . S
H128 C124 0.929 . S
C129 C125 1.482 . S
C129 O132 1.207 . S
C129 O133 1.289 . S
O130 C126 1.259 . S
O130 H134 0.822 1_455 S
O131 C126 1.229 . S
O132 C129 1.207 . S
O133 C129 1.289 . S
O133 H135 0.819 . S
H134 O130 0.822 1_655 S
H135 O133 0.819 . S
N136 Co100 1.869 . S
N136 C137 1.330 . S
N136 C141 1.325 . S
C137 N136 1.330 . S
C137 C138 1.359 . S
C137 C143 1.504 . S
C138 C137 1.359 . S
C138 C139 1.366 . S
C138 H172 0.929 . S
C139 C138 1.366 . S
C139 C140 1.415 . S
C139 H173 0.932 . S
C140 C139 1.415 . S
C140 C141 1.366 . S
C140 H174 0.931 . S
C141 N136 1.325 . S
C141 C140 1.366 . S
C141 C145 1.516 . S
N142 Co100 1.974 . S
N142 C143 1.309 . S
N142 C148 1.423 . S
C143 C137 1.504 . S
C143 N142 1.309 . S
C143 O144 1.258 . S
O144 C143 1.258 . S
C145 N118 1.316 . S
C145 C141 1.516 . S
C145 O158 1.263 . S
O146 Cd89 2.350 . S
O146 C162 1.270 . S
O147 Cd89 2.277 . S
O147 C162 1.248 . S
C148 N142 1.423 . S
C148 C149 1.370 . S
C148 C153 1.403 . S
C149 C148 1.370 . S
C149 C150 1.389 . S
C149 H175 0.931 . S
C150 C149 1.389 . S
C150 C151 1.389 . S
C151 C150 1.389 . S
C151 C152 1.379 . S
C151 H176 0.929 . S
C152 C151 1.379 . S
C152 C153 1.405 . S
C153 C148 1.403 . S
C153 C152 1.405 . S
C153 H177 0.932 . S
O154 Cd89 2.173 . S
O154 C90 1.277 . S
O155 C90 1.230 . S
O155 Cd93 2.250 . S
O156 Cd89 2.263 . S
O156 C109 1.258 . S
O157 Cd93 2.308 . S
O157 C109 1.274 . S
O158 Cd89 2.366 . S
O158 C145 1.263 . S
C159 O160 1.235 . S
C159 O161 1.270 . S
O160 Cd93 2.352 . S
O160 C159 1.235 . S
O161 Cd89 2.329 . S
O161 C159 1.270 . S
C162 O146 1.270 . S
C162 O147 1.248 . S
H163 C95 0.930 . S
H164 C98 0.930 . S
H165 C99 0.931 . S
H166 C104 0.929 . S
H167 C106 0.930 . S
H168 C108 0.930 . S
H169 C111 0.929 . S
H170 C112 0.932 . S
H171 C114 0.930 . S
H172 C138 0.929 . S
H173 C139 0.932 . S
H174 C140 0.931 . S
H175 C149 0.931 . S
H176 C151 0.929 . S
H177 C153 0.932 . S
Cd178 O235 2.350 . S
Cd178 O236 2.277 . S
Cd178 O243 2.173 . S
Cd178 O245 2.263 . S
Cd178 O247 2.366 . S
Cd178 O250 2.329 . S
C179 O243 1.277 . S
C179 O244 1.230 . S
C180 O181 1.247 1_455 S
C180 C183 1.481 . S
C180 N205 1.329 . S
O181 C180 1.247 1_655 S
Cd182 O244 2.250 . S
Cd182 O246 2.308 . S
Cd182 O249 2.352 . S
C183 C180 1.481 . S
C183 N186 1.327 . S
C183 C187 1.407 . S
C184 C185 1.346 . S
C184 C188 1.390 . S
C184 H252 0.930 . S
C185 C184 1.346 . S
C185 N186 1.342 . S
C185 C190 1.516 . S
N186 C183 1.327 . S
N186 C185 1.342 . S
N186 Co189 1.864 . S
C187 C183 1.407 . S
C187 C188 1.364 . S
C187 H253 0.930 . S
C188 C184 1.390 . S
C188 C187 1.364 . S
C188 H254 0.931 . S
Co189 N186 1.864 . S
Co189 N205 1.955 . S
Co189 N206 1.958 . S
Co189 N207 1.953 . S
Co189 N225 1.869 . S
Co189 N231 1.974 1_565 S
C190 C185 1.516 . S
C190 O191 1.238 . S
C190 N206 1.324 . S
O191 C190 1.238 . S
C192 C193 1.394 . S
C192 C197 1.395 1_565 S
C192 N206 1.427 . S
C193 C192 1.394 . S
C193 C194 1.380 . S
C193 H255 0.929 . S
C194 C193 1.380 . S
C194 C195 1.384 1_565 S
C194 C198 1.495 . S
C195 C194 1.384 1_545 S
C195 C196 1.382 . S
C195 H256 0.930 . S
C196 C195 1.382 . S
C196 C197 1.398 . S
C197 C192 1.395 1_545 S
C197 C196 1.398 . S
C197 H257 0.930 . S
C198 C194 1.495 . S
C198 O245 1.258 . S
C198 O246 1.274 . S
C199 C200 1.385 . S
C199 C201 1.381 . S
C199 N205 1.432 1_655 S
C200 C199 1.385 . S
C200 C204 1.388 . S
C200 H258 0.929 . S
C201 C199 1.381 . S
C201 C202 1.371 . S
C201 H259 0.931 . S
C202 C201 1.371 . S
C202 C203 1.400 . S
C203 C202 1.400 . S
C203 C204 1.351 . S
C203 H260 0.930 . S
C204 C200 1.388 . S
C204 C203 1.351 . S
N205 C180 1.329 . S
N205 Co189 1.955 . S
N205 C199 1.432 1_455 S
N206 Co189 1.958 . S
N206 C190 1.324 . S
N206 C192 1.427 . S
N207 Co189 1.953 . S
N207 C208 1.436 . S
N207 C234 1.316 . S
C208 N207 1.436 . S
C208 C209 1.421 . S
C208 C210 1.360 . S
C209 C208 1.421 . S
C209 C211 1.379 . S
C209 H212 0.929 . S
C210 C208 1.360 . S
C210 C214 1.393 . S
C210 H216 0.931 . S
C211 C209 1.379 . S
C211 C213 1.417 . S
C211 C215 1.505 . S
H212 C209 0.929 . S
C213 C211 1.417 . S
C213 C214 1.352 . S
C213 H217 0.929 . S
C214 C210 1.393 . S
C214 C213 1.352 . S
C214 C218 1.482 . S
C215 C211 1.505 . S
C215 O219 1.259 . S
C215 O220 1.229 . S
H216 C210 0.931 . S
H217 C213 0.929 . S
C218 C214 1.482 . S
C218 O221 1.207 . S
C218 O222 1.289 . S
O219 C215 1.259 . S
O219 H223 0.822 . S
O220 C215 1.229 . S
O221 C218 1.207 . S
O222 C218 1.289 . S
O222 H224 0.819 . S
H223 O219 0.822 . S
H224 O222 0.819 . S
N225 Co189 1.869 . S
N225 C226 1.330 1_565 S
N225 C230 1.325 . S
C226 N225 1.330 1_545 S
C226 C227 1.359 . S
C226 C232 1.504 . S
C227 C226 1.359 . S
C227 C228 1.366 . S
C227 H261 0.929 . S
C228 C227 1.366 . S
C228 C229 1.415 1_545 S
C228 H262 0.932 . S
C229 C228 1.415 1_565 S
C229 C230 1.366 . S
C229 H263 0.931 . S
C230 N225 1.325 . S
C230 C229 1.366 . S
C230 C234 1.516 . S
N231 Co189 1.974 1_545 S
N231 C232 1.309 . S
N231 C237 1.423 . S
C232 C226 1.504 . S
C232 N231 1.309 . S
C232 O233 1.258 . S
O233 C232 1.258 . S
C234 N207 1.316 . S
C234 C230 1.516 . S
C234 O247 1.263 . S
O235 Cd178 2.350 . S
O235 C251 1.270 . S
O236 Cd178 2.277 . S
O236 C251 1.248 . S
C237 N231 1.423 . S
C237 C238 1.370 . S
C237 C242 1.403 . S
C238 C237 1.370 . S
C238 C239 1.389 . S
C238 H264 0.931 . S
C239 C238 1.389 . S
C239 C240 1.389 . S
C240 C239 1.389 . S
C240 C241 1.379 . S
C240 H265 0.929 . S
C241 C240 1.379 . S
C241 C242 1.405 . S
C242 C237 1.403 . S
C242 C241 1.405 . S
C242 H266 0.932 . S
O243 Cd178 2.173 . S
O243 C179 1.277 . S
O244 C179 1.230 . S
O244 Cd182 2.250 . S
O245 Cd178 2.263 . S
O245 C198 1.258 . S
O246 Cd182 2.308 . S
O246 C198 1.274 . S
O247 Cd178 2.366 . S
O247 C234 1.263 . S
C248 O249 1.235 . S
C248 O250 1.270 . S
O249 Cd182 2.352 . S
O249 C248 1.235 . S
O250 Cd178 2.329 . S
O250 C248 1.270 . S
C251 O235 1.270 . S
C251 O236 1.248 . S
H252 C184 0.930 . S
H253 C187 0.930 . S
H254 C188 0.931 . S
H255 C193 0.929 . S
H256 C195 0.930 . S
H257 C197 0.930 . S
H258 C200 0.929 . S
H259 C201 0.931 . S
H260 C203 0.930 . S
H261 C227 0.929 . S
H262 C228 0.932 . S
H263 C229 0.931 . S
H264 C238 0.931 . S
H265 C240 0.929 . S
H266 C242 0.932 . S
Cd267 O324 2.350 . S
Cd267 O325 2.277 . S
Cd267 O332 2.173 . S
Cd267 O334 2.263 . S
Cd267 O336 2.366 . S
Cd267 O339 2.329 . S
C268 O332 1.277 . S
C268 O333 1.230 . S
C269 O270 1.246 . S
C269 C272 1.481 . S
C269 N294 1.329 . S
O270 C269 1.246 . S
Cd271 O333 2.250 . S
Cd271 O335 2.308 . S
Cd271 O338 2.352 1_556 S
C272 C269 1.481 . S
C272 N275 1.327 . S
C272 C276 1.407 . S
C273 C274 1.346 . S
C273 C277 1.390 . S
C273 H341 0.930 . S
C274 C273 1.346 . S
C274 N275 1.342 . S
C274 C279 1.516 . S
N275 C272 1.327 . S
N275 C274 1.342 . S
N275 Co278 1.864 . S
C276 C272 1.407 . S
C276 C277 1.364 . S
C276 H342 0.930 . S
C277 C273 1.390 . S
C277 C276 1.364 . S
C277 H343 0.931 . S
Co278 N275 1.864 . S
Co278 N294 1.955 . S
Co278 N295 1.958 . S
Co278 N296 1.953 . S
Co278 N314 1.869 . S
Co278 N320 1.974 . S
C279 C274 1.516 . S
C279 O280 1.238 . S
C279 N295 1.324 . S
O280 C279 1.238 . S
C281 C282 1.394 . S
C281 C286 1.395 . S
C281 N295 1.427 . S
C282 C281 1.394 . S
C282 C283 1.380 . S
C282 H344 0.929 . S
C283 C282 1.380 . S
C283 C284 1.384 . S
C283 C287 1.495 . S
C284 C283 1.384 . S
C284 C285 1.382 . S
C284 H345 0.930 . S
C285 C284 1.382 . S
C285 C286 1.398 . S
C286 C281 1.395 . S
C286 C285 1.398 . S
C286 H346 0.930 . S
C287 C283 1.495 . S
C287 O334 1.258 . S
C287 O335 1.274 . S
C288 C289 1.385 . S
C288 C290 1.381 . S
C288 N294 1.432 . S
C289 C288 1.385 . S
C289 C293 1.388 . S
C289 H347 0.929 . S
C290 C288 1.381 . S
C290 C291 1.371 . S
C290 H348 0.932 . S
C291 C290 1.371 . S
C291 C292 1.400 . S
C292 C291 1.400 . S
C292 C293 1.351 . S
C292 H349 0.930 . S
C293 C289 1.388 . S
C293 C292 1.351 . S
N294 C269 1.329 . S
N294 Co278 1.955 . S
N294 C288 1.432 . S
N295 Co278 1.958 . S
N295 C279 1.324 . S
N295 C281 1.427 . S
N296 Co278 1.953 . S
N296 C297 1.436 . S
N296 C323 1.316 . S
C297 N296 1.436 . S
C297 C298 1.421 . S
C297 C299 1.360 . S
C298 C297 1.421 . S
C298 C300 1.379 . S
C298 H301 0.929 . S
C299 C297 1.360 . S
C299 C303 1.393 . S
C299 H305 0.931 . S
C300 C298 1.379 . S
C300 C302 1.417 . S
C300 C304 1.505 . S
H301 C298 0.929 . S
C302 C300 1.417 . S
C302 C303 1.352 . S
C302 H306 0.929 . S
C303 C299 1.393 . S
C303 C302 1.352 . S
C303 C307 1.482 . S
C304 C300 1.505 . S
C304 O308 1.259 . S
C304 O309 1.229 . S
H305 C299 0.931 . S
H306 C302 0.929 . S
C307 C303 1.482 . S
C307 O310 1.207 . S
C307 O311 1.289 . S
O308 C304 1.259 . S
O308 H312 0.822 . S
O309 C304 1.229 . S
O310 C307 1.207 . S
O311 C307 1.289 . S
O311 H313 0.819 . S
H312 O308 0.822 . S
H313 O311 0.819 . S
N314 Co278 1.869 . S
N314 C315 1.330 . S
N314 C319 1.325 . S
C315 N314 1.330 . S
C315 C316 1.359 . S
C315 C321 1.504 . S
C316 C315 1.359 . S
C316 C317 1.366 . S
C316 H350 0.929 . S
C317 C316 1.366 . S
C317 C318 1.415 . S
C317 H351 0.932 . S
C318 C317 1.415 . S
C318 C319 1.366 . S
C318 H352 0.931 . S
C319 N314 1.325 . S
C319 C318 1.366 . S
C319 C323 1.516 . S
N320 Co278 1.974 . S
N320 C321 1.309 . S
N320 C326 1.423 . S
C321 C315 1.504 . S
C321 N320 1.309 . S
C321 O322 1.258 . S
O322 C321 1.258 . S
C323 N296 1.316 . S
C323 C319 1.516 . S
C323 O336 1.263 . S
O324 Cd267 2.350 . S
O324 C340 1.270 . S
O325 Cd267 2.277 . S
O325 C340 1.248 . S
C326 N320 1.423 . S
C326 C327 1.370 . S
C326 C331 1.403 . S
C327 C326 1.370 . S
C327 C328 1.389 . S
C327 H353 0.931 . S
C328 C327 1.389 . S
C328 C329 1.389 . S
C329 C328 1.389 . S
C329 C330 1.379 . S
C329 H354 0.929 . S
C330 C329 1.379 . S
C330 C331 1.405 . S
C331 C326 1.403 . S
C331 C330 1.405 . S
C331 H355 0.932 . S
O332 Cd267 2.173 . S
O332 C268 1.277 . S
O333 C268 1.230 . S
O333 Cd271 2.250 . S
O334 Cd267 2.263 . S
O334 C287 1.258 . S
O335 Cd271 2.308 . S
O335 C287 1.274 . S
O336 Cd267 2.366 . S
O336 C323 1.263 . S
C337 O338 1.235 1_556 S
C337 O339 1.270 . S
O338 Cd271 2.352 1_554 S
O338 C337 1.235 1_554 S
O339 Cd267 2.329 . S
O339 C337 1.270 . S
C340 O324 1.270 . S
C340 O325 1.248 . S
H341 C273 0.930 . S
H342 C276 0.930 . S
H343 C277 0.931 . S
H344 C282 0.929 . S
H345 C284 0.930 . S
H346 C286 0.930 . S
H347 C289 0.929 . S
H348 C290 0.932 . S
H349 C292 0.930 . S
H350 C316 0.929 . S
H351 C317 0.932 . S
H352 C318 0.931 . S
H353 C327 0.931 . S
H354 C329 0.929 . S
H355 C331 0.932 . S
Cd356 O413 2.350 . S
Cd356 O414 2.277 . S
Cd356 O421 2.173 . S
Cd356 O423 2.263 . S
Cd356 O425 2.366 . S
Cd356 O428 2.329 . S
C357 O421 1.277 . S
C357 O422 1.230 . S
C358 O359 1.246 . S
C358 C361 1.481 . S
C358 N383 1.329 . S
O359 C358 1.246 . S
Cd360 O422 2.250 . S
Cd360 O424 2.308 . S
Cd360 O427 2.352 . S
C361 C358 1.481 . S
C361 N364 1.327 . S
C361 C365 1.407 . S
C362 C363 1.346 . S
C362 C366 1.390 . S
C362 H430 0.930 . S
C363 C362 1.346 . S
C363 N364 1.342 . S
C363 C368 1.516 . S
N364 C361 1.327 . S
N364 C363 1.342 . S
N364 Co367 1.864 . S
C365 C361 1.407 . S
C365 C366 1.364 . S
C365 H431 0.930 . S
C366 C362 1.390 . S
C366 C365 1.364 . S
C366 H432 0.931 . S
Co367 N364 1.864 . S
Co367 N383 1.955 . S
Co367 N384 1.958 . S
Co367 N385 1.953 . S
Co367 N403 1.869 . S
Co367 N409 1.974 1_565 S
C368 C363 1.516 . S
C368 O369 1.238 . S
C368 N384 1.324 . S
O369 C368 1.238 . S
C370 C371 1.394 . S
C370 C375 1.395 1_565 S
C370 N384 1.427 . S
C371 C370 1.394 . S
C371 C372 1.380 . S
C371 H433 0.929 . S
C372 C371 1.380 . S
C372 C373 1.384 1_565 S
C372 C376 1.495 . S
C373 C372 1.384 1_545 S
C373 C374 1.382 . S
C373 H434 0.930 . S
C374 C373 1.382 . S
C374 C375 1.398 . S
C375 C370 1.395 1_545 S
C375 C374 1.398 . S
C375 H435 0.930 . S
C376 C372 1.495 . S
C376 O423 1.258 . S
C376 O424 1.274 . S
C377 C378 1.385 . S
C377 C379 1.381 . S
C377 N383 1.432 . S
C378 C377 1.385 . S
C378 C382 1.388 . S
C378 H436 0.929 . S
C379 C377 1.381 . S
C379 C380 1.371 . S
C379 H437 0.931 . S
C380 C379 1.371 . S
C380 C381 1.400 . S
C381 C380 1.400 . S
C381 C382 1.351 . S
C381 H438 0.930 . S
C382 C378 1.388 . S
C382 C381 1.351 . S
N383 C358 1.329 . S
N383 Co367 1.955 . S
N383 C377 1.432 . S
N384 Co367 1.958 . S
N384 C368 1.324 . S
N384 C370 1.427 . S
N385 Co367 1.953 . S
N385 C386 1.436 . S
N385 C412 1.316 . S
C386 N385 1.436 . S
C386 C387 1.421 . S
C386 C388 1.360 . S
C387 C386 1.421 . S
C387 C389 1.379 . S
C387 H390 0.929 . S
C388 C386 1.360 . S
C388 C392 1.393 . S
C388 H394 0.931 . S
C389 C387 1.379 . S
C389 C391 1.417 . S
C389 C393 1.505 . S
H390 C387 0.929 . S
C391 C389 1.417 . S
C391 C392 1.352 . S
C391 H395 0.929 . S
C392 C388 1.393 . S
C392 C391 1.352 . S
C392 C396 1.482 . S
C393 C389 1.505 . S
C393 O397 1.259 . S
C393 O398 1.229 . S
H394 C388 0.931 . S
H395 C391 0.929 . S
C396 C392 1.482 . S
C396 O399 1.207 . S
C396 O400 1.289 . S
O397 C393 1.259 . S
O397 H401 0.822 . S
O398 C393 1.229 . S
O399 C396 1.207 . S
O400 C396 1.289 . S
O400 H402 0.819 . S
H401 O397 0.822 . S
H402 O400 0.819 . S
N403 Co367 1.869 . S
N403 C404 1.330 1_565 S
N403 C408 1.325 . S
C404 N403 1.330 1_545 S
C404 C405 1.359 . S
C404 C410 1.504 . S
C405 C404 1.359 . S
C405 C406 1.366 . S
C405 H439 0.929 . S
C406 C405 1.366 . S
C406 C407 1.415 1_545 S
C406 H440 0.932 . S
C407 C406 1.415 1_565 S
C407 C408 1.366 . S
C407 H441 0.931 . S
C408 N403 1.325 . S
C408 C407 1.366 . S
C408 C412 1.516 . S
N409 Co367 1.974 1_545 S
N409 C410 1.309 . S
N409 C415 1.423 . S
C410 C404 1.504 . S
C410 N409 1.309 . S
C410 O411 1.258 . S
O411 C410 1.258 . S
C412 N385 1.316 . S
C412 C408 1.516 . S
C412 O425 1.263 . S
O413 Cd356 2.350 . S
O413 C429 1.270 . S
O414 Cd356 2.277 . S
O414 C429 1.248 . S
C415 N409 1.423 . S
C415 C416 1.370 . S
C415 C420 1.403 . S
C416 C415 1.370 . S
C416 C417 1.389 . S
C416 H442 0.931 . S
C417 C416 1.389 . S
C417 C418 1.389 . S
C418 C417 1.389 . S
C418 C419 1.379 . S
C418 H443 0.929 . S
C419 C418 1.379 . S
C419 C420 1.405 . S
C420 C415 1.403 . S
C420 C419 1.405 . S
C420 H444 0.932 . S
O421 Cd356 2.173 . S
O421 C357 1.277 . S
O422 C357 1.230 . S
O422 Cd360 2.250 . S
O423 Cd356 2.263 . S
O423 C376 1.258 . S
O424 Cd360 2.308 . S
O424 C376 1.274 . S
O425 Cd356 2.366 . S
O425 C412 1.263 . S
C426 O427 1.235 . S
C426 O428 1.270 . S
O427 Cd360 2.352 . S
O427 C426 1.235 . S
O428 Cd356 2.329 . S
O428 C426 1.270 . S
C429 O413 1.270 . S
C429 O414 1.248 . S
H430 C362 0.930 . S
H431 C365 0.930 . S
H432 C366 0.931 . S
H433 C371 0.929 . S
H434 C373 0.930 . S
H435 C375 0.930 . S
H436 C378 0.929 . S
H437 C379 0.931 . S
H438 C381 0.930 . S
H439 C405 0.929 . S
H440 C406 0.932 . S
H441 C407 0.931 . S
H442 C416 0.931 . S
H443 C418 0.929 . S
H444 C420 0.932 . S
Cd445 O502 2.350 . S
Cd445 O503 2.277 . S
Cd445 O510 2.173 . S
Cd445 O512 2.263 . S
Cd445 O514 2.366 . S
Cd445 O517 2.329 . S
C446 O510 1.277 . S
C446 O511 1.230 . S
C447 O448 1.246 . S
C447 C450 1.481 . S
C447 N472 1.329 . S
O448 C447 1.246 . S
Cd449 O511 2.250 . S
Cd449 O513 2.308 . S
Cd449 O516 2.352 . S
C450 C447 1.481 . S
C450 N453 1.327 . S
C450 C454 1.407 . S
C451 C452 1.346 . S
C451 C455 1.390 . S
C451 H519 0.930 . S
C452 C451 1.346 . S
C452 N453 1.342 . S
C452 C457 1.516 . S
N453 C450 1.327 . S
N453 C452 1.342 . S
N453 Co456 1.864 . S
C454 C450 1.407 . S
C454 C455 1.364 . S
C454 H520 0.930 . S
C455 C451 1.390 . S
C455 C454 1.364 . S
C455 H521 0.931 . S
Co456 N453 1.864 . S
Co456 N472 1.955 . S
Co456 N473 1.958 . S
Co456 N474 1.953 . S
Co456 N492 1.869 . S
Co456 N498 1.974 . S
C457 C452 1.516 . S
C457 O458 1.238 . S
C457 N473 1.324 . S
O458 C457 1.238 . S
C459 C460 1.394 . S
C459 C464 1.395 . S
C459 N473 1.427 . S
C460 C459 1.394 . S
C460 C461 1.380 . S
C460 H522 0.929 . S
C461 C460 1.380 . S
C461 C462 1.384 . S
C461 C465 1.495 . S
C462 C461 1.384 . S
C462 C463 1.382 . S
C462 H523 0.930 . S
C463 C462 1.382 . S
C463 C464 1.398 . S
C464 C459 1.395 . S
C464 C463 1.398 . S
C464 H524 0.930 . S
C465 C461 1.495 . S
C465 O512 1.258 . S
C465 O513 1.274 . S
C466 C467 1.385 . S
C466 C468 1.381 . S
C466 N472 1.432 . S
C467 C466 1.385 . S
C467 C471 1.388 . S
C467 H525 0.929 . S
C468 C466 1.381 . S
C468 C469 1.371 . S
C468 H526 0.932 . S
C469 C468 1.371 . S
C469 C470 1.400 . S
C470 C469 1.400 . S
C470 C471 1.351 . S
C470 H527 0.930 . S
C471 C467 1.388 . S
C471 C470 1.351 . S
N472 C447 1.329 . S
N472 Co456 1.955 . S
N472 C466 1.432 . S
N473 Co456 1.958 . S
N473 C457 1.324 . S
N473 C459 1.427 . S
N474 Co456 1.953 . S
N474 C475 1.436 . S
N474 C501 1.316 . S
C475 N474 1.436 . S
C475 C476 1.421 . S
C475 C477 1.360 . S
C476 C475 1.421 . S
C476 C478 1.379 . S
C476 H479 0.929 . S
C477 C475 1.360 . S
C477 C481 1.393 . S
C477 H483 0.931 . S
C478 C476 1.379 . S
C478 C480 1.417 . S
C478 C482 1.505 . S
H479 C476 0.929 . S
C480 C478 1.417 . S
C480 C481 1.352 . S
C480 H484 0.929 . S
C481 C477 1.393 . S
C481 C480 1.352 . S
C481 C485 1.482 . S
C482 C478 1.505 . S
C482 O486 1.259 . S
C482 O487 1.229 . S
H483 C477 0.931 . S
H484 C480 0.929 . S
C485 C481 1.482 . S
C485 O488 1.207 . S
C485 O489 1.289 . S
O486 C482 1.259 . S
O486 H490 0.822 . S
O487 C482 1.229 . S
O488 C485 1.207 . S
O489 C485 1.289 . S
O489 H491 0.819 . S
H490 O486 0.822 . S
H491 O489 0.819 . S
N492 Co456 1.869 . S
N492 C493 1.330 . S
N492 C497 1.325 . S
C493 N492 1.330 . S
C493 C494 1.359 . S
C493 C499 1.504 . S
C494 C493 1.359 . S
C494 C495 1.366 . S
C494 H528 0.929 . S
C495 C494 1.366 . S
C495 C496 1.415 . S
C495 H529 0.932 . S
C496 C495 1.415 . S
C496 C497 1.366 . S
C496 H530 0.931 . S
C497 N492 1.325 . S
C497 C496 1.366 . S
C497 C501 1.516 . S
N498 Co456 1.974 . S
N498 C499 1.309 . S
N498 C504 1.423 . S
C499 C493 1.504 . S
C499 N498 1.309 . S
C499 O500 1.258 . S
O500 C499 1.258 . S
C501 N474 1.316 . S
C501 C497 1.516 . S
C501 O514 1.263 . S
O502 Cd445 2.350 . S
O502 C518 1.270 . S
O503 Cd445 2.277 . S
O503 C518 1.248 . S
C504 N498 1.423 . S
C504 C505 1.370 . S
C504 C509 1.403 . S
C505 C504 1.370 . S
C505 C506 1.389 . S
C505 H531 0.931 . S
C506 C505 1.389 . S
C506 C507 1.389 . S
C507 C506 1.389 . S
C507 C508 1.379 . S
C507 H532 0.929 . S
C508 C507 1.379 . S
C508 C509 1.405 . S
C509 C504 1.403 . S
C509 C508 1.405 . S
C509 H533 0.932 . S
O510 Cd445 2.173 . S
O510 C446 1.277 . S
O511 C446 1.230 . S
O511 Cd449 2.250 . S
O512 Cd445 2.263 . S
O512 C465 1.258 . S
O513 Cd449 2.308 . S
O513 C465 1.274 . S
O514 Cd445 2.366 . S
O514 C501 1.263 . S
C515 O516 1.235 . S
C515 O517 1.270 . S
O516 Cd449 2.352 . S
O516 C515 1.235 . S
O517 Cd445 2.329 . S
O517 C515 1.270 . S
C518 O502 1.270 . S
C518 O503 1.248 . S
H519 C451 0.930 . S
H520 C454 0.930 . S
H521 C455 0.931 . S
H522 C460 0.929 . S
H523 C462 0.930 . S
H524 C464 0.930 . S
H525 C467 0.929 . S
H526 C468 0.932 . S
H527 C470 0.930 . S
H528 C494 0.929 . S
H529 C495 0.932 . S
H530 C496 0.931 . S
H531 C505 0.931 . S
H532 C507 0.929 . S
H533 C509 0.932 . S
Cd534 O591 2.350 . S
Cd534 O592 2.277 . S
Cd534 O599 2.173 . S
Cd534 O601 2.263 . S
Cd534 O603 2.366 . S
Cd534 O606 2.329 . S
C535 O599 1.277 . S
C535 O600 1.230 . S
C536 O537 1.247 1_455 S
C536 C539 1.481 . S
C536 N561 1.329 . S
O537 C536 1.247 1_655 S
Cd538 O600 2.250 . S
Cd538 O602 2.308 . S
Cd538 O605 2.352 . S
C539 C536 1.481 . S
C539 N542 1.327 . S
C539 C543 1.407 . S
C540 C541 1.346 . S
C540 C544 1.390 . S
C540 H608 0.930 . S
C541 C540 1.346 . S
C541 N542 1.342 . S
C541 C546 1.516 . S
N542 C539 1.327 . S
N542 C541 1.342 . S
N542 Co545 1.864 . S
C543 C539 1.407 . S
C543 C544 1.364 . S
C543 H609 0.930 . S
C544 C540 1.390 . S
C544 C543 1.364 . S
C544 H610 0.931 1_556 S
Co545 N542 1.864 . S
Co545 N561 1.955 . S
Co545 N562 1.958 . S
Co545 N563 1.953 . S
Co545 N581 1.869 . S
Co545 N587 1.974 1_545 S
C546 C541 1.516 . S
C546 O547 1.238 . S
C546 N562 1.324 . S
O547 C546 1.238 . S
C548 C549 1.394 . S
C548 C553 1.395 1_545 S
C548 N562 1.427 . S
C549 C548 1.394 . S
C549 C550 1.380 . S
C549 H611 0.929 . S
C550 C549 1.380 . S
C550 C551 1.384 1_545 S
C550 C554 1.495 . S
C551 C550 1.384 1_565 S
C551 C552 1.382 . S
C551 H612 0.930 . S
C552 C551 1.382 . S
C552 C553 1.398 . S
C553 C548 1.395 1_565 S
C553 C552 1.398 . S
C553 H613 0.930 . S
C554 C550 1.495 . S
C554 O601 1.258 . S
C554 O602 1.274 . S
C555 C556 1.385 . S
C555 C557 1.381 . S
C555 N561 1.432 1_655 S
C556 C555 1.385 . S
C556 C560 1.388 . S
C556 H614 0.929 . S
C557 C555 1.381 . S
C557 C558 1.371 . S
C557 H615 0.931 . S
C558 C557 1.371 . S
C558 C559 1.400 . S
C559 C558 1.400 . S
C559 C560 1.351 . S
C559 H616 0.930 . S
C560 C556 1.388 . S
C560 C559 1.351 . S
N561 C536 1.329 . S
N561 Co545 1.955 . S
N561 C555 1.432 1_455 S
N562 Co545 1.958 . S
N562 C546 1.324 . S
N562 C548 1.427 . S
N563 Co545 1.953 . S
N563 C564 1.436 . S
N563 C590 1.316 . S
C564 N563 1.436 . S
C564 C565 1.421 . S
C564 C566 1.360 . S
C565 C564 1.421 . S
C565 C567 1.379 . S
C565 H568 0.929 . S
C566 C564 1.360 . S
C566 C570 1.393 . S
C566 H572 0.931 . S
C567 C565 1.379 . S
C567 C569 1.417 . S
C567 C571 1.505 . S
H568 C565 0.929 . S
C569 C567 1.417 . S
C569 C570 1.352 . S
C569 H573 0.929 . S
C570 C566 1.393 . S
C570 C569 1.352 . S
C570 C574 1.482 . S
C571 C567 1.505 . S
C571 O575 1.259 . S
C571 O576 1.229 . S
H572 C566 0.931 . S
H573 C569 0.929 . S
C574 C570 1.482 . S
C574 O577 1.207 . S
C574 O578 1.289 . S
O575 C571 1.259 . S
O575 H579 0.822 . S
O576 C571 1.229 . S
O577 C574 1.207 . S
O578 C574 1.289 . S
O578 H580 0.819 . S
H579 O575 0.822 . S
H580 O578 0.819 . S
N581 Co545 1.869 . S
N581 C582 1.330 1_545 S
N581 C586 1.325 . S
C582 N581 1.330 1_565 S
C582 C583 1.359 . S
C582 C588 1.504 . S
C583 C582 1.359 . S
C583 C584 1.366 . S
C583 H617 0.929 . S
C584 C583 1.366 . S
C584 C585 1.415 1_565 S
C584 H618 0.932 . S
C585 C584 1.415 1_545 S
C585 C586 1.366 . S
C585 H619 0.931 . S
C586 N581 1.325 . S
C586 C585 1.366 . S
C586 C590 1.516 . S
N587 Co545 1.974 1_565 S
N587 C588 1.309 . S
N587 C593 1.423 . S
C588 C582 1.504 . S
C588 N587 1.309 . S
C588 O589 1.258 . S
O589 C588 1.258 . S
C590 N563 1.316 . S
C590 C586 1.516 . S
C590 O603 1.263 . S
O591 Cd534 2.350 . S
O591 C607 1.270 . S
O592 Cd534 2.277 . S
O592 C607 1.248 . S
C593 N587 1.423 . S
C593 C594 1.370 . S
C593 C598 1.403 . S
C594 C593 1.370 . S
C594 C595 1.389 . S
C594 H620 0.931 . S
C595 C594 1.389 . S
C595 C596 1.389 1_556 S
C596 C595 1.389 1_554 S
C596 C597 1.379 1_554 S
C596 H621 0.929 . S
C597 C596 1.379 1_556 S
C597 C598 1.405 . S
C598 C593 1.403 . S
C598 C597 1.405 . S
C598 H622 0.932 . S
O599 Cd534 2.173 . S
O599 C535 1.277 . S
O600 C535 1.230 . S
O600 Cd538 2.250 . S
O601 Cd534 2.263 . S
O601 C554 1.258 . S
O602 Cd538 2.308 . S
O602 C554 1.274 . S
O603 Cd534 2.366 . S
O603 C590 1.263 . S
C604 O605 1.235 . S
C604 O606 1.270 . S
O605 Cd538 2.352 . S
O605 C604 1.235 . S
O606 Cd534 2.329 . S
O606 C604 1.270 . S
C607 O591 1.270 . S
C607 O592 1.248 . S
H608 C540 0.930 . S
H609 C543 0.930 . S
H610 C544 0.931 1_554 S
H611 C549 0.929 . S
H612 C551 0.930 . S
H613 C553 0.930 . S
H614 C556 0.929 . S
H615 C557 0.931 . S
H616 C559 0.930 . S
H617 C583 0.929 . S
H618 C584 0.932 . S
H619 C585 0.931 . S
H620 C594 0.931 . S
H621 C596 0.929 . S
H622 C598 0.932 . S
Cd623 O680 2.350 . S
Cd623 O681 2.277 . S
Cd623 O688 2.173 . S
Cd623 O690 2.263 . S
Cd623 O692 2.366 . S
Cd623 O695 2.329 . S
C624 O688 1.277 . S
C624 O689 1.230 . S
C625 O626 1.246 . S
C625 C628 1.481 . S
C625 N650 1.329 . S
O626 C625 1.246 . S
Cd627 O689 2.250 . S
Cd627 O691 2.308 . S
Cd627 O694 2.352 1_554 S
C628 C625 1.481 . S
C628 N631 1.327 . S
C628 C632 1.407 . S
C629 C630 1.346 . S
C629 C633 1.390 . S
C629 H697 0.930 . S
C630 C629 1.346 . S
C630 N631 1.342 . S
C630 C635 1.516 . S
N631 C628 1.327 . S
N631 C630 1.342 . S
N631 Co634 1.864 . S
C632 C628 1.407 . S
C632 C633 1.364 . S
C632 H698 0.930 . S
C633 C629 1.390 . S
C633 C632 1.364 . S
C633 H699 0.931 . S
Co634 N631 1.864 . S
Co634 N650 1.955 . S
Co634 N651 1.958 . S
Co634 N652 1.953 . S
Co634 N670 1.869 . S
Co634 N676 1.974 . S
C635 C630 1.516 . S
C635 O636 1.238 . S
C635 N651 1.324 . S
O636 C635 1.238 . S
C637 C638 1.394 . S
C637 C642 1.395 . S
C637 N651 1.427 . S
C638 C637 1.394 . S
C638 C639 1.380 . S
C638 H700 0.929 . S
C639 C638 1.380 . S
C639 C640 1.384 . S
C639 C643 1.495 . S
C640 C639 1.384 . S
C640 C641 1.382 . S
C640 H701 0.930 . S
C641 C640 1.382 . S
C641 C642 1.398 . S
C642 C637 1.395 . S
C642 C641 1.398 . S
C642 H702 0.930 . S
C643 C639 1.495 . S
C643 O690 1.258 . S
C643 O691 1.274 . S
C644 C645 1.385 . S
C644 C646 1.381 . S
C644 N650 1.432 . S
C645 C644 1.385 . S
C645 C649 1.388 . S
C645 H703 0.929 . S
C646 C644 1.381 . S
C646 C647 1.371 . S
C646 H704 0.932 . S
C647 C646 1.371 . S
C647 C648 1.400 . S
C648 C647 1.400 . S
C648 C649 1.351 . S
C648 H705 0.930 . S
C649 C645 1.388 . S
C649 C648 1.351 . S
N650 C625 1.329 . S
N650 Co634 1.955 . S
N650 C644 1.432 . S
N651 Co634 1.958 . S
N651 C635 1.324 . S
N651 C637 1.427 . S
N652 Co634 1.953 . S
N652 C653 1.436 . S
N652 C679 1.316 . S
C653 N652 1.436 . S
C653 C654 1.421 . S
C653 C655 1.360 . S
C654 C653 1.421 . S
C654 C656 1.379 . S
C654 H657 0.929 . S
C655 C653 1.360 . S
C655 C659 1.393 . S
C655 H661 0.931 . S
C656 C654 1.379 . S
C656 C658 1.417 . S
C656 C660 1.505 . S
H657 C654 0.929 . S
C658 C656 1.417 . S
C658 C659 1.352 . S
C658 H662 0.929 . S
C659 C655 1.393 . S
C659 C658 1.352 . S
C659 C663 1.482 . S
C660 C656 1.505 . S
C660 O664 1.259 . S
C660 O665 1.229 . S
H661 C655 0.931 . S
H662 C658 0.929 . S
C663 C659 1.482 . S
C663 O666 1.207 . S
C663 O667 1.289 . S
O664 C660 1.259 . S
O664 H668 0.822 1_455 S
O665 C660 1.229 . S
O666 C663 1.207 . S
O667 C663 1.289 . S
O667 H669 0.819 . S
H668 O664 0.822 1_655 S
H669 O667 0.819 . S
N670 Co634 1.869 . S
N670 C671 1.330 . S
N670 C675 1.325 . S
C671 N670 1.330 . S
C671 C672 1.359 . S
C671 C677 1.504 . S
C672 C671 1.359 . S
C672 C673 1.366 . S
C672 H706 0.929 . S
C673 C672 1.366 . S
C673 C674 1.415 . S
C673 H707 0.932 . S
C674 C673 1.415 . S
C674 C675 1.366 . S
C674 H708 0.931 . S
C675 N670 1.325 . S
C675 C674 1.366 . S
C675 C679 1.516 . S
N676 Co634 1.974 . S
N676 C677 1.309 . S
N676 C682 1.423 . S
C677 C671 1.504 . S
C677 N676 1.309 . S
C677 O678 1.258 . S
O678 C677 1.258 . S
C679 N652 1.316 . S
C679 C675 1.516 . S
C679 O692 1.263 . S
O680 Cd623 2.350 . S
O680 C696 1.270 . S
O681 Cd623 2.277 . S
O681 C696 1.248 . S
C682 N676 1.423 . S
C682 C683 1.370 . S
C682 C687 1.403 . S
C683 C682 1.370 . S
C683 C684 1.389 . S
C683 H709 0.931 . S
C684 C683 1.389 . S
C684 C685 1.389 . S
C685 C684 1.389 . S
C685 C686 1.379 . S
C685 H710 0.929 . S
C686 C685 1.379 . S
C686 C687 1.405 . S
C687 C682 1.403 . S
C687 C686 1.405 . S
C687 H711 0.932 . S
O688 Cd623 2.173 . S
O688 C624 1.277 . S
O689 C624 1.230 . S
O689 Cd627 2.250 . S
O690 Cd623 2.263 . S
O690 C643 1.258 . S
O691 Cd627 2.308 . S
O691 C643 1.274 . S
O692 Cd623 2.366 . S
O692 C679 1.263 . S
C693 O694 1.235 1_554 S
C693 O695 1.270 . S
O694 Cd627 2.352 1_556 S
O694 C693 1.235 1_556 S
O695 Cd623 2.329 . S
O695 C693 1.270 . S
C696 O680 1.270 . S
C696 O681 1.248 . S
H697 C629 0.930 . S
H698 C632 0.930 . S
H699 C633 0.931 . S
H700 C638 0.929 . S
H701 C640 0.930 . S
H702 C642 0.930 . S
H703 C645 0.929 . S
H704 C646 0.932 . S
H705 C648 0.930 . S
H706 C672 0.929 . S
H707 C673 0.932 . S
H708 C674 0.931 . S
H709 C683 0.931 . S
H710 C685 0.929 . S
H711 C687 0.932 . S
Cd712 O769 2.350 . S
Cd712 O770 2.277 . S
Cd712 O777 2.173 . S
Cd712 O779 2.263 . S
Cd712 O781 2.366 . S
Cd712 O784 2.329 . S
C713 O777 1.277 . S
C713 O778 1.230 . S
C714 O715 1.246 . S
C714 C717 1.481 . S
C714 N739 1.329 . S
O715 C714 1.246 . S
Cd716 O778 2.250 . S
Cd716 O780 2.308 . S
Cd716 O783 2.352 . S
C717 C714 1.481 . S
C717 N720 1.327 . S
C717 C721 1.407 . S
C718 C719 1.346 . S
C718 C722 1.390 . S
C718 H786 0.930 . S
C719 C718 1.346 . S
C719 N720 1.342 . S
C719 C724 1.516 . S
N720 C717 1.327 . S
N720 C719 1.342 . S
N720 Co723 1.864 . S
C721 C717 1.407 . S
C721 C722 1.364 . S
C721 H787 0.930 . S
C722 C718 1.390 . S
C722 C721 1.364 . S
C722 H788 0.931 1_556 S
Co723 N720 1.864 . S
Co723 N739 1.955 . S
Co723 N740 1.958 . S
Co723 N741 1.953 . S
Co723 N759 1.869 . S
Co723 N765 1.974 1_565 S
C724 C719 1.516 . S
C724 O725 1.238 . S
C724 N740 1.324 . S
O725 C724 1.238 . S
C726 C727 1.394 . S
C726 C731 1.395 1_565 S
C726 N740 1.427 . S
C727 C726 1.394 . S
C727 C728 1.380 . S
C727 H789 0.929 . S
C728 C727 1.380 . S
C728 C729 1.384 1_565 S
C728 C732 1.495 . S
C729 C728 1.384 1_545 S
C729 C730 1.382 . S
C729 H790 0.930 . S
C730 C729 1.382 . S
C730 C731 1.398 . S
C731 C726 1.395 1_545 S
C731 C730 1.398 . S
C731 H791 0.930 . S
C732 C728 1.495 . S
C732 O779 1.258 . S
C732 O780 1.274 . S
C733 C734 1.385 . S
C733 C735 1.381 . S
C733 N739 1.432 . S
C734 C733 1.385 . S
C734 C738 1.388 . S
C734 H792 0.929 . S
C735 C733 1.381 . S
C735 C736 1.371 . S
C735 H793 0.931 . S
C736 C735 1.371 . S
C736 C737 1.400 . S
C737 C736 1.400 . S
C737 C738 1.351 . S
C737 H794 0.930 . S
C738 C734 1.388 . S
C738 C737 1.351 . S
N739 C714 1.329 . S
N739 Co723 1.955 . S
N739 C733 1.432 . S
N740 Co723 1.958 . S
N740 C724 1.324 . S
N740 C726 1.427 . S
N741 Co723 1.953 . S
N741 C742 1.436 . S
N741 C768 1.316 . S
C742 N741 1.436 . S
C742 C743 1.421 . S
C742 C744 1.360 . S
C743 C742 1.421 . S
C743 C745 1.379 . S
C743 H746 0.929 . S
C744 C742 1.360 . S
C744 C748 1.393 . S
C744 H750 0.931 . S
C745 C743 1.379 . S
C745 C747 1.417 . S
C745 C749 1.505 . S
H746 C743 0.929 . S
C747 C745 1.417 . S
C747 C748 1.352 . S
C747 H751 0.929 . S
C748 C744 1.393 . S
C748 C747 1.352 . S
C748 C752 1.482 . S
C749 C745 1.505 . S
C749 O753 1.259 . S
C749 O754 1.229 . S
H750 C744 0.931 . S
H751 C747 0.929 . S
C752 C748 1.482 . S
C752 O755 1.207 . S
C752 O756 1.289 . S
O753 C749 1.259 . S
O753 H757 0.822 . S
O754 C749 1.229 . S
O755 C752 1.207 . S
O756 C752 1.289 . S
O756 H758 0.819 . S
H757 O753 0.822 . S
H758 O756 0.819 . S
N759 Co723 1.869 . S
N759 C760 1.330 1_565 S
N759 C764 1.325 . S
C760 N759 1.330 1_545 S
C760 C761 1.359 . S
C760 C766 1.504 . S
C761 C760 1.359 . S
C761 C762 1.366 . S
C761 H795 0.929 . S
C762 C761 1.366 . S
C762 C763 1.415 1_545 S
C762 H796 0.932 . S
C763 C762 1.415 1_565 S
C763 C764 1.366 . S
C763 H797 0.931 . S
C764 N759 1.325 . S
C764 C763 1.366 . S
C764 C768 1.516 . S
N765 Co723 1.974 1_545 S
N765 C766 1.309 . S
N765 C771 1.423 . S
C766 C760 1.504 . S
C766 N765 1.309 . S
C766 O767 1.258 . S
O767 C766 1.258 . S
C768 N741 1.316 . S
C768 C764 1.516 . S
C768 O781 1.263 . S
O769 Cd712 2.350 . S
O769 C785 1.270 . S
O770 Cd712 2.277 . S
O770 C785 1.248 . S
C771 N765 1.423 . S
C771 C772 1.370 . S
C771 C776 1.403 . S
C772 C771 1.370 . S
C772 C773 1.389 . S
C772 H798 0.931 . S
C773 C772 1.389 . S
C773 C774 1.389 1_556 S
C774 C773 1.389 1_554 S
C774 C775 1.379 1_554 S
C774 H799 0.929 . S
C775 C774 1.379 1_556 S
C775 C776 1.405 . S
C776 C771 1.403 . S
C776 C775 1.405 . S
C776 H800 0.932 . S
O777 Cd712 2.173 . S
O777 C713 1.277 . S
O778 C713 1.230 . S
O778 Cd716 2.250 . S
O779 Cd712 2.263 . S
O779 C732 1.258 . S
O780 Cd716 2.308 . S
O780 C732 1.274 . S
O781 Cd712 2.366 . S
O781 C768 1.263 . S
C782 O783 1.235 . S
C782 O784 1.270 . S
O783 Cd716 2.352 . S
O783 C782 1.235 . S
O784 Cd712 2.329 . S
O784 C782 1.270 . S
C785 O769 1.270 . S
C785 O770 1.248 . S
H786 C718 0.930 . S
H787 C721 0.930 . S
H788 C722 0.931 1_554 S
H789 C727 0.929 . S
H790 C729 0.930 . S
H791 C731 0.930 . S
H792 C734 0.929 . S
H793 C735 0.931 . S
H794 C737 0.930 . S
H795 C761 0.929 . S
H796 C762 0.932 . S
H797 C763 0.931 . S
H798 C772 0.931 . S
H799 C774 0.929 . S
H800 C776 0.932 . S
Cd801 O858 2.350 . S
Cd801 O859 2.277 . S
Cd801 O866 2.173 . S
Cd801 O868 2.263 . S
Cd801 O870 2.366 . S
Cd801 O873 2.329 . S
C802 O866 1.277 . S
C802 O867 1.230 . S
C803 O804 1.246 . S
C803 C806 1.481 . S
C803 N828 1.329 . S
O804 C803 1.246 . S
Cd805 O867 2.250 . S
Cd805 O869 2.308 . S
Cd805 O872 2.352 . S
C806 C803 1.481 . S
C806 N809 1.327 . S
C806 C810 1.407 . S
C807 C808 1.346 . S
C807 C811 1.390 . S
C807 H875 0.930 . S
C808 C807 1.346 . S
C808 N809 1.342 . S
C808 C813 1.516 . S
N809 C806 1.327 . S
N809 C808 1.342 . S
N809 Co812 1.864 . S
C810 C806 1.407 . S
C810 C811 1.364 . S
C810 H876 0.930 . S
C811 C807 1.390 . S
C811 C810 1.364 . S
C811 H877 0.931 . S
Co812 N809 1.864 . S
Co812 N828 1.955 . S
Co812 N829 1.958 . S
Co812 N830 1.953 . S
Co812 N848 1.869 . S
Co812 N854 1.974 . S
C813 C808 1.516 . S
C813 O814 1.238 . S
C813 N829 1.324 . S
O814 C813 1.238 . S
C815 C816 1.394 . S
C815 C820 1.395 . S
C815 N829 1.427 . S
C816 C815 1.394 . S
C816 C817 1.380 . S
C816 H878 0.929 . S
C817 C816 1.380 . S
C817 C818 1.384 . S
C817 C821 1.495 . S
C818 C817 1.384 . S
C818 C819 1.382 . S
C818 H879 0.930 . S
C819 C818 1.382 . S
C819 C820 1.398 . S
C820 C815 1.395 . S
C820 C819 1.398 . S
C820 H880 0.930 . S
C821 C817 1.495 . S
C821 O868 1.258 . S
C821 O869 1.274 . S
C822 C823 1.385 . S
C822 C824 1.381 . S
C822 N828 1.432 . S
C823 C822 1.385 . S
C823 C827 1.388 . S
C823 H881 0.929 . S
C824 C822 1.381 . S
C824 C825 1.371 . S
C824 H882 0.932 . S
C825 C824 1.371 . S
C825 C826 1.400 . S
C826 C825 1.400 . S
C826 C827 1.351 . S
C826 H883 0.930 . S
C827 C823 1.388 . S
C827 C826 1.351 . S
N828 C803 1.329 . S
N828 Co812 1.955 . S
N828 C822 1.432 . S
N829 Co812 1.958 . S
N829 C813 1.324 . S
N829 C815 1.427 . S
N830 Co812 1.953 . S
N830 C831 1.436 . S
N830 C857 1.316 . S
C831 N830 1.436 . S
C831 C832 1.421 . S
C831 C833 1.360 . S
C832 C831 1.421 . S
C832 C834 1.379 . S
C832 H835 0.929 . S
C833 C831 1.360 . S
C833 C837 1.393 . S
C833 H839 0.931 . S
C834 C832 1.379 . S
C834 C836 1.417 . S
C834 C838 1.505 . S
H835 C832 0.929 . S
C836 C834 1.417 . S
C836 C837 1.352 . S
C836 H840 0.929 . S
C837 C833 1.393 . S
C837 C836 1.352 . S
C837 C841 1.482 . S
C838 C834 1.505 . S
C838 O842 1.259 . S
C838 O843 1.229 . S
H839 C833 0.931 . S
H840 C836 0.929 . S
C841 C837 1.482 . S
C841 O844 1.207 . S
C841 O845 1.289 . S
O842 C838 1.259 . S
O842 H846 0.822 1_655 S
O843 C838 1.229 . S
O844 C841 1.207 . S
O845 C841 1.289 . S
O845 H847 0.819 . S
H846 O842 0.822 1_455 S
H847 O845 0.819 . S
N848 Co812 1.869 . S
N848 C849 1.330 . S
N848 C853 1.325 . S
C849 N848 1.330 . S
C849 C850 1.359 . S
C849 C855 1.504 . S
C850 C849 1.359 . S
C850 C851 1.366 . S
C850 H884 0.929 . S
C851 C850 1.366 . S
C851 C852 1.415 . S
C851 H885 0.932 . S
C852 C851 1.415 . S
C852 C853 1.366 . S
C852 H886 0.931 . S
C853 N848 1.325 . S
C853 C852 1.366 . S
C853 C857 1.516 . S
N854 Co812 1.974 . S
N854 C855 1.309 . S
N854 C860 1.423 . S
C855 C849 1.504 . S
C855 N854 1.309 . S
C855 O856 1.258 . S
O856 C855 1.258 . S
C857 N830 1.316 . S
C857 C853 1.516 . S
C857 O870 1.263 . S
O858 Cd801 2.350 . S
O858 C874 1.270 . S
O859 Cd801 2.277 . S
O859 C874 1.248 . S
C860 N854 1.423 . S
C860 C861 1.370 . S
C860 C865 1.403 . S
C861 C860 1.370 . S
C861 C862 1.389 . S
C861 H887 0.931 . S
C862 C861 1.389 . S
C862 C863 1.389 . S
C863 C862 1.389 . S
C863 C864 1.379 . S
C863 H888 0.929 . S
C864 C863 1.379 . S
C864 C865 1.405 . S
C865 C860 1.403 . S
C865 C864 1.405 . S
C865 H889 0.932 . S
O866 Cd801 2.173 . S
O866 C802 1.277 . S
O867 C802 1.230 . S
O867 Cd805 2.250 . S
O868 Cd801 2.263 . S
O868 C821 1.258 . S
O869 Cd805 2.308 . S
O869 C821 1.274 . S
O870 Cd801 2.366 . S
O870 C857 1.263 . S
C871 O872 1.235 . S
C871 O873 1.270 . S
O872 Cd805 2.352 . S
O872 C871 1.235 . S
O873 Cd801 2.329 . S
O873 C871 1.270 . S
C874 O858 1.270 . S
C874 O859 1.248 . S
H875 C807 0.930 . S
H876 C810 0.930 . S
H877 C811 0.931 . S
H878 C816 0.929 . S
H879 C818 0.930 . S
H880 C820 0.930 . S
H881 C823 0.929 . S
H882 C824 0.932 . S
H883 C826 0.930 . S
H884 C850 0.929 . S
H885 C851 0.932 . S
H886 C852 0.931 . S
H887 C861 0.931 . S
H888 C863 0.929 . S
H889 C865 0.932 . S
Cd890 O947 2.350 . S
Cd890 O948 2.277 . S
Cd890 O955 2.173 . S
Cd890 O957 2.263 . S
Cd890 O959 2.366 . S
Cd890 O962 2.329 . S
C891 O955 1.277 . S
C891 O956 1.230 . S
C892 O893 1.247 1_655 S
C892 C895 1.481 . S
C892 N917 1.329 . S
O893 C892 1.247 1_455 S
Cd894 O956 2.250 . S
Cd894 O958 2.308 . S
Cd894 O961 2.352 . S
C895 C892 1.481 . S
C895 N898 1.327 . S
C895 C899 1.407 . S
C896 C897 1.346 . S
C896 C900 1.390 . S
C896 H964 0.930 . S
C897 C896 1.346 . S
C897 N898 1.342 . S
C897 C902 1.516 . S
N898 C895 1.327 . S
N898 C897 1.342 . S
N898 Co901 1.864 . S
C899 C895 1.407 . S
C899 C900 1.364 . S
C899 H965 0.930 . S
C900 C896 1.390 . S
C900 C899 1.364 . S
C900 H966 0.931 . S
Co901 N898 1.864 . S
Co901 N917 1.955 . S
Co901 N918 1.958 . S
Co901 N919 1.953 . S
Co901 N937 1.869 . S
Co901 N943 1.974 1_545 S
C902 C897 1.516 . S
C902 O903 1.238 . S
C902 N918 1.324 . S
O903 C902 1.238 . S
C904 C905 1.394 . S
C904 C909 1.395 1_545 S
C904 N918 1.427 . S
C905 C904 1.394 . S
C905 C906 1.380 . S
C905 H967 0.929 . S
C906 C905 1.380 . S
C906 C907 1.384 1_545 S
C906 C910 1.495 . S
C907 C906 1.384 1_565 S
C907 C908 1.382 . S
C907 H968 0.930 . S
C908 C907 1.382 . S
C908 C909 1.398 . S
C909 C904 1.395 1_565 S
C909 C908 1.398 . S
C909 H969 0.930 . S
C910 C906 1.495 . S
C910 O957 1.258 . S
C910 O958 1.274 . S
C911 C912 1.385 . S
C911 C913 1.381 . S
C911 N917 1.432 1_455 S
C912 C911 1.385 . S
C912 C916 1.388 . S
C912 H970 0.929 . S
C913 C911 1.381 . S
C913 C914 1.371 . S
C913 H971 0.931 . S
C914 C913 1.371 . S
C914 C915 1.400 . S
C915 C914 1.400 . S
C915 C916 1.351 . S
C915 H972 0.930 . S
C916 C912 1.388 . S
C916 C915 1.351 . S
N917 C892 1.329 . S
N917 Co901 1.955 . S
N917 C911 1.432 1_655 S
N918 Co901 1.958 . S
N918 C902 1.324 . S
N918 C904 1.427 . S
N919 Co901 1.953 . S
N919 C920 1.436 . S
N919 C946 1.316 . S
C920 N919 1.436 . S
C920 C921 1.421 . S
C920 C922 1.360 . S
C921 C920 1.421 . S
C921 C923 1.379 . S
C921 H924 0.929 . S
C922 C920 1.360 . S
C922 C926 1.393 . S
C922 H928 0.931 . S
C923 C921 1.379 . S
C923 C925 1.417 . S
C923 C927 1.505 . S
H924 C921 0.929 . S
C925 C923 1.417 . S
C925 C926 1.352 . S
C925 H929 0.929 . S
C926 C922 1.393 . S
C926 C925 1.352 . S
C926 C930 1.482 . S
C927 C923 1.505 . S
C927 O931 1.259 . S
C927 O932 1.229 . S
H928 C922 0.931 . S
H929 C925 0.929 . S
C930 C926 1.482 . S
C930 O933 1.207 . S
C930 O934 1.289 . S
O931 C927 1.259 . S
O931 H935 0.822 . S
O932 C927 1.229 . S
O933 C930 1.207 . S
O934 C930 1.289 . S
O934 H936 0.819 . S
H935 O931 0.822 . S
H936 O934 0.819 . S
N937 Co901 1.869 . S
N937 C938 1.330 1_545 S
N937 C942 1.325 . S
C938 N937 1.330 1_565 S
C938 C939 1.359 . S
C938 C944 1.504 . S
C939 C938 1.359 . S
C939 C940 1.366 . S
C939 H973 0.929 . S
C940 C939 1.366 . S
C940 C941 1.415 1_565 S
C940 H974 0.932 . S
C941 C940 1.415 1_545 S
C941 C942 1.366 . S
C941 H975 0.931 . S
C942 N937 1.325 . S
C942 C941 1.366 . S
C942 C946 1.516 . S
N943 Co901 1.974 1_565 S
N943 C944 1.309 . S
N943 C949 1.423 . S
C944 C938 1.504 . S
C944 N943 1.309 . S
C944 O945 1.258 . S
O945 C944 1.258 . S
C946 N919 1.316 . S
C946 C942 1.516 . S
C946 O959 1.263 . S
O947 Cd890 2.350 . S
O947 C963 1.270 . S
O948 Cd890 2.277 . S
O948 C963 1.248 . S
C949 N943 1.423 . S
C949 C950 1.370 . S
C949 C954 1.403 . S
C950 C949 1.370 . S
C950 C951 1.389 . S
C950 H976 0.931 . S
C951 C950 1.389 . S
C951 C952 1.389 . S
C952 C951 1.389 . S
C952 C953 1.379 . S
C952 H977 0.929 . S
C953 C952 1.379 . S
C953 C954 1.405 . S
C954 C949 1.403 . S
C954 C953 1.405 . S
C954 H978 0.932 . S
O955 Cd890 2.173 . S
O955 C891 1.277 . S
O956 C891 1.230 . S
O956 Cd894 2.250 . S
O957 Cd890 2.263 . S
O957 C910 1.258 . S
O958 Cd894 2.308 . S
O958 C910 1.274 . S
O959 Cd890 2.366 . S
O959 C946 1.263 . S
C960 O961 1.235 . S
C960 O962 1.270 . S
O961 Cd894 2.352 . S
O961 C960 1.235 . S
O962 Cd890 2.329 . S
O962 C960 1.270 . S
C963 O947 1.270 . S
C963 O948 1.248 . S
H964 C896 0.930 . S
H965 C899 0.930 . S
H966 C900 0.931 . S
H967 C905 0.929 . S
H968 C907 0.930 . S
H969 C909 0.930 . S
H970 C912 0.929 . S
H971 C913 0.931 . S
H972 C915 0.930 . S
H973 C939 0.929 . S
H974 C940 0.932 . S
H975 C941 0.931 . S
H976 C950 0.931 . S
H977 C952 0.929 . S
H978 C954 0.932 . S
Cd979 O1036 2.350 . S
Cd979 O1037 2.277 . S
Cd979 O1044 2.173 . S
Cd979 O1046 2.263 . S
Cd979 O1048 2.366 . S
Cd979 O1051 2.329 . S
C980 O1044 1.277 . S
C980 O1045 1.230 . S
C981 O982 1.246 . S
C981 C984 1.481 . S
C981 N1006 1.329 . S
O982 C981 1.246 . S
Cd983 O1045 2.250 . S
Cd983 O1047 2.308 . S
Cd983 O1050 2.352 1_554 S
C984 C981 1.481 . S
C984 N987 1.327 . S
C984 C988 1.407 . S
C985 C986 1.346 . S
C985 C989 1.390 . S
C985 H1053 0.930 . S
C986 C985 1.346 . S
C986 N987 1.342 . S
C986 C991 1.516 . S
N987 C984 1.327 . S
N987 C986 1.342 . S
N987 Co990 1.864 . S
C988 C984 1.407 . S
C988 C989 1.364 . S
C988 H1054 0.930 . S
C989 C985 1.390 . S
C989 C988 1.364 . S
C989 H1055 0.931 . S
Co990 N987 1.864 . S
Co990 N1006 1.955 . S
Co990 N1007 1.958 . S
Co990 N1008 1.953 . S
Co990 N1026 1.869 . S
Co990 N1032 1.974 . S
C991 C986 1.516 . S
C991 O992 1.238 . S
C991 N1007 1.324 . S
O992 C991 1.238 . S
C993 C994 1.394 . S
C993 C998 1.395 . S
C993 N1007 1.427 . S
C994 C993 1.394 . S
C994 C995 1.380 . S
C994 H1056 0.929 . S
C995 C994 1.380 . S
C995 C996 1.384 . S
C995 C999 1.495 . S
C996 C995 1.384 . S
C996 C997 1.382 . S
C996 H1057 0.930 . S
C997 C996 1.382 . S
C997 C998 1.398 . S
C998 C993 1.395 . S
C998 C997 1.398 . S
C998 H1058 0.930 . S
C999 C995 1.495 . S
C999 O1046 1.258 . S
C999 O1047 1.274 . S
C1000 C1001 1.385 . S
C1000 C1002 1.381 . S
C1000 N1006 1.432 . S
C1001 C1000 1.385 . S
C1001 C1005 1.388 . S
C1001 H1059 0.929 . S
C1002 C1000 1.381 . S
C1002 C1003 1.371 . S
C1002 H1060 0.932 . S
C1003 C1002 1.371 . S
C1003 C1004 1.400 . S
C1004 C1003 1.400 . S
C1004 C1005 1.351 . S
C1004 H1061 0.930 . S
C1005 C1001 1.388 . S
C1005 C1004 1.351 . S
N1006 C981 1.329 . S
N1006 Co990 1.955 . S
N1006 C1000 1.432 . S
N1007 Co990 1.958 . S
N1007 C991 1.324 . S
N1007 C993 1.427 . S
N1008 Co990 1.953 . S
N1008 C1009 1.436 . S
N1008 C1035 1.316 . S
C1009 N1008 1.436 . S
C1009 C1010 1.421 . S
C1009 C1011 1.360 . S
C1010 C1009 1.421 . S
C1010 C1012 1.379 . S
C1010 H1013 0.929 . S
C1011 C1009 1.360 . S
C1011 C1015 1.393 . S
C1011 H1017 0.931 . S
C1012 C1010 1.379 . S
C1012 C1014 1.417 . S
C1012 C1016 1.505 . S
H1013 C1010 0.929 . S
C1014 C1012 1.417 . S
C1014 C1015 1.352 . S
C1014 H1018 0.929 . S
C1015 C1011 1.393 . S
C1015 C1014 1.352 . S
C1015 C1019 1.482 . S
C1016 C1012 1.505 . S
C1016 O1020 1.259 . S
C1016 O1021 1.229 . S
H1017 C1011 0.931 . S
H1018 C1014 0.929 . S
C1019 C1015 1.482 . S
C1019 O1022 1.207 . S
C1019 O1023 1.289 . S
O1020 C1016 1.259 . S
O1020 H1024 0.822 . S
O1021 C1016 1.229 . S
O1022 C1019 1.207 . S
O1023 C1019 1.289 . S
O1023 H1025 0.819 . S
H1024 O1020 0.822 . S
H1025 O1023 0.819 . S
N1026 Co990 1.869 . S
N1026 C1027 1.330 . S
N1026 C1031 1.325 . S
C1027 N1026 1.330 . S
C1027 C1028 1.359 . S
C1027 C1033 1.504 . S
C1028 C1027 1.359 . S
C1028 C1029 1.366 . S
C1028 H1062 0.929 . S
C1029 C1028 1.366 . S
C1029 C1030 1.415 . S
C1029 H1063 0.932 . S
C1030 C1029 1.415 . S
C1030 C1031 1.366 . S
C1030 H1064 0.931 . S
C1031 N1026 1.325 . S
C1031 C1030 1.366 . S
C1031 C1035 1.516 . S
N1032 Co990 1.974 . S
N1032 C1033 1.309 . S
N1032 C1038 1.423 . S
C1033 C1027 1.504 . S
C1033 N1032 1.309 . S
C1033 O1034 1.258 . S
O1034 C1033 1.258 . S
C1035 N1008 1.316 . S
C1035 C1031 1.516 . S
C1035 O1048 1.263 . S
O1036 Cd979 2.350 . S
O1036 C1052 1.270 . S
O1037 Cd979 2.277 . S
O1037 C1052 1.248 . S
C1038 N1032 1.423 . S
C1038 C1039 1.370 . S
C1038 C1043 1.403 . S
C1039 C1038 1.370 . S
C1039 C1040 1.389 . S
C1039 H1065 0.931 . S
C1040 C1039 1.389 . S
C1040 C1041 1.389 . S
C1041 C1040 1.389 . S
C1041 C1042 1.379 . S
C1041 H1066 0.929 . S
C1042 C1041 1.379 . S
C1042 C1043 1.405 . S
C1043 C1038 1.403 . S
C1043 C1042 1.405 . S
C1043 H1067 0.932 . S
O1044 Cd979 2.173 . S
O1044 C980 1.277 . S
O1045 C980 1.230 . S
O1045 Cd983 2.250 . S
O1046 Cd979 2.263 . S
O1046 C999 1.258 . S
O1047 Cd983 2.308 . S
O1047 C999 1.274 . S
O1048 Cd979 2.366 . S
O1048 C1035 1.263 . S
C1049 O1050 1.235 1_554 S
C1049 O1051 1.270 . S
O1050 Cd983 2.352 1_556 S
O1050 C1049 1.235 1_556 S
O1051 Cd979 2.329 . S
O1051 C1049 1.270 . S
C1052 O1036 1.270 . S
C1052 O1037 1.248 . S
H1053 C985 0.930 . S
H1054 C988 0.930 . S
H1055 C989 0.931 . S
H1056 C994 0.929 . S
H1057 C996 0.930 . S
H1058 C998 0.930 . S
H1059 C1001 0.929 . S
H1060 C1002 0.932 . S
H1061 C1004 0.930 . S
H1062 C1028 0.929 . S
H1063 C1029 0.932 . S
H1064 C1030 0.931 . S
H1065 C1039 0.931 . S
H1066 C1041 0.929 . S
H1067 C1043 0.932 . S
Cd1068 O1125 2.350 . S
Cd1068 O1126 2.277 . S
Cd1068 O1133 2.173 . S
Cd1068 O1135 2.263 . S
Cd1068 O1137 2.366 . S
Cd1068 O1140 2.329 . S
C1069 O1133 1.277 . S
C1069 O1134 1.230 . S
C1070 O1071 1.246 . S
C1070 C1073 1.481 . S
C1070 N1095 1.329 . S
O1071 C1070 1.246 . S
Cd1072 O1134 2.250 . S
Cd1072 O1136 2.308 . S
Cd1072 O1139 2.352 . S
C1073 C1070 1.481 . S
C1073 N1076 1.327 . S
C1073 C1077 1.407 . S
C1074 C1075 1.346 . S
C1074 C1078 1.390 . S
C1074 H1142 0.930 . S
C1075 C1074 1.346 . S
C1075 N1076 1.342 . S
C1075 C1080 1.516 . S
N1076 C1073 1.327 . S
N1076 C1075 1.342 . S
N1076 Co1079 1.864 . S
C1077 C1073 1.407 . S
C1077 C1078 1.364 . S
C1077 H1143 0.930 . S
C1078 C1074 1.390 . S
C1078 C1077 1.364 . S
C1078 H1144 0.931 . S
Co1079 N1076 1.864 . S
Co1079 N1095 1.955 . S
Co1079 N1096 1.958 . S
Co1079 N1097 1.953 . S
Co1079 N1115 1.869 . S
Co1079 N1121 1.974 1_545 S
C1080 C1075 1.516 . S
C1080 O1081 1.238 . S
C1080 N1096 1.324 . S
O1081 C1080 1.238 . S
C1082 C1083 1.394 . S
C1082 C1087 1.395 1_545 S
C1082 N1096 1.427 . S
C1083 C1082 1.394 . S
C1083 C1084 1.380 . S
C1083 H1145 0.929 . S
C1084 C1083 1.380 . S
C1084 C1085 1.384 1_545 S
C1084 C1088 1.495 . S
C1085 C1084 1.384 1_565 S
C1085 C1086 1.382 . S
C1085 H1146 0.930 . S
C1086 C1085 1.382 . S
C1086 C1087 1.398 . S
C1087 C1082 1.395 1_565 S
C1087 C1086 1.398 . S
C1087 H1147 0.930 . S
C1088 C1084 1.495 . S
C1088 O1135 1.258 . S
C1088 O1136 1.274 . S
C1089 C1090 1.385 . S
C1089 C1091 1.381 . S
C1089 N1095 1.432 . S
C1090 C1089 1.385 . S
C1090 C1094 1.388 . S
C1090 H1148 0.929 . S
C1091 C1089 1.381 . S
C1091 C1092 1.371 . S
C1091 H1149 0.931 . S
C1092 C1091 1.371 . S
C1092 C1093 1.400 . S
C1093 C1092 1.400 . S
C1093 C1094 1.351 . S
C1093 H1150 0.930 . S
C1094 C1090 1.388 . S
C1094 C1093 1.351 . S
N1095 C1070 1.329 . S
N1095 Co1079 1.955 . S
N1095 C1089 1.432 . S
N1096 Co1079 1.958 . S
N1096 C1080 1.324 . S
N1096 C1082 1.427 . S
N1097 Co1079 1.953 . S
N1097 C1098 1.436 . S
N1097 C1124 1.316 . S
C1098 N1097 1.436 . S
C1098 C1099 1.421 . S
C1098 C1100 1.360 . S
C1099 C1098 1.421 . S
C1099 C1101 1.379 . S
C1099 H1102 0.929 . S
C1100 C1098 1.360 . S
C1100 C1104 1.393 . S
C1100 H1106 0.931 . S
C1101 C1099 1.379 . S
C1101 C1103 1.417 . S
C1101 C1105 1.505 . S
H1102 C1099 0.929 . S
C1103 C1101 1.417 . S
C1103 C1104 1.352 . S
C1103 H1107 0.929 . S
C1104 C1100 1.393 . S
C1104 C1103 1.352 . S
C1104 C1108 1.482 . S
C1105 C1101 1.505 . S
C1105 O1109 1.259 . S
C1105 O1110 1.229 . S
H1106 C1100 0.931 . S
H1107 C1103 0.929 . S
C1108 C1104 1.482 . S
C1108 O1111 1.207 . S
C1108 O1112 1.289 . S
O1109 C1105 1.259 . S
O1109 H1113 0.822 . S
O1110 C1105 1.229 . S
O1111 C1108 1.207 . S
O1112 C1108 1.289 . S
O1112 H1114 0.819 . S
H1113 O1109 0.822 . S
H1114 O1112 0.819 . S
N1115 Co1079 1.869 . S
N1115 C1116 1.330 1_545 S
N1115 C1120 1.325 . S
C1116 N1115 1.330 1_565 S
C1116 C1117 1.359 . S
C1116 C1122 1.504 . S
C1117 C1116 1.359 . S
C1117 C1118 1.366 . S
C1117 H1151 0.929 . S
C1118 C1117 1.366 . S
C1118 C1119 1.415 1_565 S
C1118 H1152 0.932 . S
C1119 C1118 1.415 1_545 S
C1119 C1120 1.366 . S
C1119 H1153 0.931 . S
C1120 N1115 1.325 . S
C1120 C1119 1.366 . S
C1120 C1124 1.516 . S
N1121 Co1079 1.974 1_565 S
N1121 C1122 1.309 . S
N1121 C1127 1.423 . S
C1122 C1116 1.504 . S
C1122 N1121 1.309 . S
C1122 O1123 1.258 . S
O1123 C1122 1.258 . S
C1124 N1097 1.316 . S
C1124 C1120 1.516 . S
C1124 O1137 1.263 . S
O1125 Cd1068 2.350 . S
O1125 C1141 1.270 . S
O1126 Cd1068 2.277 . S
O1126 C1141 1.248 . S
C1127 N1121 1.423 . S
C1127 C1128 1.370 . S
C1127 C1132 1.403 . S
C1128 C1127 1.370 . S
C1128 C1129 1.389 . S
C1128 H1154 0.931 . S
C1129 C1128 1.389 . S
C1129 C1130 1.389 . S
C1130 C1129 1.389 . S
C1130 C1131 1.379 . S
C1130 H1155 0.929 . S
C1131 C1130 1.379 . S
C1131 C1132 1.405 . S
C1132 C1127 1.403 . S
C1132 C1131 1.405 . S
C1132 H1156 0.932 . S
O1133 Cd1068 2.173 . S
O1133 C1069 1.277 . S
O1134 C1069 1.230 . S
O1134 Cd1072 2.250 . S
O1135 Cd1068 2.263 . S
O1135 C1088 1.258 . S
O1136 Cd1072 2.308 . S
O1136 C1088 1.274 . S
O1137 Cd1068 2.366 . S
O1137 C1124 1.263 . S
C1138 O1139 1.235 . S
C1138 O1140 1.270 . S
O1139 Cd1072 2.352 . S
O1139 C1138 1.235 . S
O1140 Cd1068 2.329 . S
O1140 C1138 1.270 . S
C1141 O1125 1.270 . S
C1141 O1126 1.248 . S
H1142 C1074 0.930 . S
H1143 C1077 0.930 . S
H1144 C1078 0.931 . S
H1145 C1083 0.929 . S
H1146 C1085 0.930 . S
H1147 C1087 0.930 . S
H1148 C1090 0.929 . S
H1149 C1091 0.931 . S
H1150 C1093 0.930 . S
H1151 C1117 0.929 . S
H1152 C1118 0.932 . S
H1153 C1119 0.931 . S
H1154 C1128 0.931 . S
H1155 C1130 0.929 . S
H1156 C1132 0.932 . S
Cd1157 O1214 2.350 . S
Cd1157 O1215 2.277 . S
Cd1157 O1222 2.173 . S
Cd1157 O1224 2.263 . S
Cd1157 O1226 2.366 . S
Cd1157 O1229 2.329 . S
C1158 O1222 1.277 . S
C1158 O1223 1.230 . S
C1159 O1160 1.246 . S
C1159 C1162 1.481 . S
C1159 N1184 1.329 . S
O1160 C1159 1.246 . S
Cd1161 O1223 2.250 . S
Cd1161 O1225 2.308 . S
Cd1161 O1228 2.352 . S
C1162 C1159 1.481 . S
C1162 N1165 1.327 . S
C1162 C1166 1.407 . S
C1163 C1164 1.346 . S
C1163 C1167 1.390 . S
C1163 H1231 0.930 . S
C1164 C1163 1.346 . S
C1164 N1165 1.342 . S
C1164 C1169 1.516 . S
N1165 C1162 1.327 . S
N1165 C1164 1.342 . S
N1165 Co1168 1.864 . S
C1166 C1162 1.407 . S
C1166 C1167 1.364 . S
C1166 H1232 0.930 . S
C1167 C1163 1.390 . S
C1167 C1166 1.364 . S
C1167 H1233 0.931 . S
Co1168 N1165 1.864 . S
Co1168 N1184 1.955 . S
Co1168 N1185 1.958 . S
Co1168 N1186 1.953 . S
Co1168 N1204 1.869 . S
Co1168 N1210 1.974 . S
C1169 C1164 1.516 . S
C1169 O1170 1.238 . S
C1169 N1185 1.324 . S
O1170 C1169 1.238 . S
C1171 C1172 1.394 . S
C1171 C1176 1.395 . S
C1171 N1185 1.427 . S
C1172 C1171 1.394 . S
C1172 C1173 1.380 . S
C1172 H1234 0.929 . S
C1173 C1172 1.380 . S
C1173 C1174 1.384 . S
C1173 C1177 1.495 . S
C1174 C1173 1.384 . S
C1174 C1175 1.382 . S
C1174 H1235 0.930 . S
C1175 C1174 1.382 . S
C1175 C1176 1.398 . S
C1176 C1171 1.395 . S
C1176 C1175 1.398 . S
C1176 H1236 0.930 . S
C1177 C1173 1.495 . S
C1177 O1224 1.258 . S
C1177 O1225 1.274 . S
C1178 C1179 1.385 . S
C1178 C1180 1.381 . S
C1178 N1184 1.432 . S
C1179 C1178 1.385 . S
C1179 C1183 1.388 . S
C1179 H1237 0.929 . S
C1180 C1178 1.381 . S
C1180 C1181 1.371 . S
C1180 H1238 0.932 . S
C1181 C1180 1.371 . S
C1181 C1182 1.400 . S
C1182 C1181 1.400 . S
C1182 C1183 1.351 . S
C1182 H1239 0.930 . S
C1183 C1179 1.388 . S
C1183 C1182 1.351 . S
N1184 C1159 1.329 . S
N1184 Co1168 1.955 . S
N1184 C1178 1.432 . S
N1185 Co1168 1.958 . S
N1185 C1169 1.324 . S
N1185 C1171 1.427 . S
N1186 Co1168 1.953 . S
N1186 C1187 1.436 . S
N1186 C1213 1.316 . S
C1187 N1186 1.436 . S
C1187 C1188 1.421 . S
C1187 C1189 1.360 . S
C1188 C1187 1.421 . S
C1188 C1190 1.379 . S
C1188 H1191 0.929 . S
C1189 C1187 1.360 . S
C1189 C1193 1.393 . S
C1189 H1195 0.931 . S
C1190 C1188 1.379 . S
C1190 C1192 1.417 . S
C1190 C1194 1.505 . S
H1191 C1188 0.929 . S
C1192 C1190 1.417 . S
C1192 C1193 1.352 . S
C1192 H1196 0.929 . S
C1193 C1189 1.393 . S
C1193 C1192 1.352 . S
C1193 C1197 1.482 . S
C1194 C1190 1.505 . S
C1194 O1198 1.259 . S
C1194 O1199 1.229 . S
H1195 C1189 0.931 . S
H1196 C1192 0.929 . S
C1197 C1193 1.482 . S
C1197 O1200 1.207 . S
C1197 O1201 1.289 . S
O1198 C1194 1.259 . S
O1198 H1202 0.822 . S
O1199 C1194 1.229 . S
O1200 C1197 1.207 . S
O1201 C1197 1.289 . S
O1201 H1203 0.819 . S
H1202 O1198 0.822 . S
H1203 O1201 0.819 . S
N1204 Co1168 1.869 . S
N1204 C1205 1.330 . S
N1204 C1209 1.325 . S
C1205 N1204 1.330 . S
C1205 C1206 1.359 . S
C1205 C1211 1.504 . S
C1206 C1205 1.359 . S
C1206 C1207 1.366 . S
C1206 H1240 0.929 . S
C1207 C1206 1.366 . S
C1207 C1208 1.415 . S
C1207 H1241 0.932 . S
C1208 C1207 1.415 . S
C1208 C1209 1.366 . S
C1208 H1242 0.931 . S
C1209 N1204 1.325 . S
C1209 C1208 1.366 . S
C1209 C1213 1.516 . S
N1210 Co1168 1.974 . S
N1210 C1211 1.309 . S
N1210 C1216 1.423 . S
C1211 C1205 1.504 . S
C1211 N1210 1.309 . S
C1211 O1212 1.258 . S
O1212 C1211 1.258 . S
C1213 N1186 1.316 . S
C1213 C1209 1.516 . S
C1213 O1226 1.263 . S
O1214 Cd1157 2.350 . S
O1214 C1230 1.270 . S
O1215 Cd1157 2.277 . S
O1215 C1230 1.248 . S
C1216 N1210 1.423 . S
C1216 C1217 1.370 . S
C1216 C1221 1.403 . S
C1217 C1216 1.370 . S
C1217 C1218 1.389 . S
C1217 H1243 0.931 . S
C1218 C1217 1.389 . S
C1218 C1219 1.389 . S
C1219 C1218 1.389 . S
C1219 C1220 1.379 . S
C1219 H1244 0.929 . S
C1220 C1219 1.379 . S
C1220 C1221 1.405 . S
C1221 C1216 1.403 . S
C1221 C1220 1.405 . S
C1221 H1245 0.932 . S
O1222 Cd1157 2.173 . S
O1222 C1158 1.277 . S
O1223 C1158 1.230 . S
O1223 Cd1161 2.250 . S
O1224 Cd1157 2.263 . S
O1224 C1177 1.258 . S
O1225 Cd1161 2.308 . S
O1225 C1177 1.274 . S
O1226 Cd1157 2.366 . S
O1226 C1213 1.263 . S
C1227 O1228 1.235 . S
C1227 O1229 1.270 . S
O1228 Cd1161 2.352 . S
O1228 C1227 1.235 . S
O1229 Cd1157 2.329 . S
O1229 C1227 1.270 . S
C1230 O1214 1.270 . S
C1230 O1215 1.248 . S
H1231 C1163 0.930 . S
H1232 C1166 0.930 . S
H1233 C1167 0.931 . S
H1234 C1172 0.929 . S
H1235 C1174 0.930 . S
H1236 C1176 0.930 . S
H1237 C1179 0.929 . S
H1238 C1180 0.932 . S
H1239 C1182 0.930 . S
H1240 C1206 0.929 . S
H1241 C1207 0.932 . S
H1242 C1208 0.931 . S
H1243 C1217 0.931 . S
H1244 C1219 0.929 . S
H1245 C1221 0.932 . S
Cd1246 O1303 2.350 . S
Cd1246 O1304 2.277 . S
Cd1246 O1311 2.173 . S
Cd1246 O1313 2.263 . S
Cd1246 O1315 2.366 . S
Cd1246 O1318 2.329 . S
C1247 O1311 1.277 . S
C1247 O1312 1.230 . S
C1248 O1249 1.247 1_655 S
C1248 C1251 1.481 . S
C1248 N1273 1.329 . S
O1249 C1248 1.247 1_455 S
Cd1250 O1312 2.250 . S
Cd1250 O1314 2.308 . S
Cd1250 O1317 2.352 . S
C1251 C1248 1.481 . S
C1251 N1254 1.327 . S
C1251 C1255 1.407 . S
C1252 C1253 1.346 . S
C1252 C1256 1.390 . S
C1252 H1320 0.930 . S
C1253 C1252 1.346 . S
C1253 N1254 1.342 . S
C1253 C1258 1.516 . S
N1254 C1251 1.327 . S
N1254 C1253 1.342 . S
N1254 Co1257 1.864 . S
C1255 C1251 1.407 . S
C1255 C1256 1.364 . S
C1255 H1321 0.930 . S
C1256 C1252 1.390 . S
C1256 C1255 1.364 . S
C1256 H1322 0.931 1_554 S
Co1257 N1254 1.864 . S
Co1257 N1273 1.955 . S
Co1257 N1274 1.958 . S
Co1257 N1275 1.953 . S
Co1257 N1293 1.869 . S
Co1257 N1299 1.974 1_565 S
C1258 C1253 1.516 . S
C1258 O1259 1.238 . S
C1258 N1274 1.324 . S
O1259 C1258 1.238 . S
C1260 C1261 1.394 . S
C1260 C1265 1.395 1_565 S
C1260 N1274 1.427 . S
C1261 C1260 1.394 . S
C1261 C1262 1.380 . S
C1261 H1323 0.929 . S
C1262 C1261 1.380 . S
C1262 C1263 1.384 1_565 S
C1262 C1266 1.495 . S
C1263 C1262 1.384 1_545 S
C1263 C1264 1.382 . S
C1263 H1324 0.930 . S
C1264 C1263 1.382 . S
C1264 C1265 1.398 . S
C1265 C1260 1.395 1_545 S
C1265 C1264 1.398 . S
C1265 H1325 0.930 . S
C1266 C1262 1.495 . S
C1266 O1313 1.258 . S
C1266 O1314 1.274 . S
C1267 C1268 1.385 . S
C1267 C1269 1.381 . S
C1267 N1273 1.432 1_455 S
C1268 C1267 1.385 . S
C1268 C1272 1.388 . S
C1268 H1326 0.929 . S
C1269 C1267 1.381 . S
C1269 C1270 1.371 . S
C1269 H1327 0.931 . S
C1270 C1269 1.371 . S
C1270 C1271 1.400 . S
C1271 C1270 1.400 . S
C1271 C1272 1.351 . S
C1271 H1328 0.930 . S
C1272 C1268 1.388 . S
C1272 C1271 1.351 . S
N1273 C1248 1.329 . S
N1273 Co1257 1.955 . S
N1273 C1267 1.432 1_655 S
N1274 Co1257 1.958 . S
N1274 C1258 1.324 . S
N1274 C1260 1.427 . S
N1275 Co1257 1.953 . S
N1275 C1276 1.436 . S
N1275 C1302 1.316 . S
C1276 N1275 1.436 . S
C1276 C1277 1.421 . S
C1276 C1278 1.360 . S
C1277 C1276 1.421 . S
C1277 C1279 1.379 . S
C1277 H1280 0.929 . S
C1278 C1276 1.360 . S
C1278 C1282 1.393 . S
C1278 H1284 0.931 . S
C1279 C1277 1.379 . S
C1279 C1281 1.417 . S
C1279 C1283 1.505 . S
H1280 C1277 0.929 . S
C1281 C1279 1.417 . S
C1281 C1282 1.352 . S
C1281 H1285 0.929 . S
C1282 C1278 1.393 . S
C1282 C1281 1.352 . S
C1282 C1286 1.482 . S
C1283 C1279 1.505 . S
C1283 O1287 1.259 . S
C1283 O1288 1.229 . S
H1284 C1278 0.931 . S
H1285 C1281 0.929 . S
C1286 C1282 1.482 . S
C1286 O1289 1.207 . S
C1286 O1290 1.289 . S
O1287 C1283 1.259 . S
O1287 H1291 0.822 . S
O1288 C1283 1.229 . S
O1289 C1286 1.207 . S
O1290 C1286 1.289 . S
O1290 H1292 0.819 . S
H1291 O1287 0.822 . S
H1292 O1290 0.819 . S
N1293 Co1257 1.869 . S
N1293 C1294 1.330 1_565 S
N1293 C1298 1.325 . S
C1294 N1293 1.330 1_545 S
C1294 C1295 1.359 . S
C1294 C1300 1.504 . S
C1295 C1294 1.359 . S
C1295 C1296 1.366 . S
C1295 H1329 0.929 . S
C1296 C1295 1.366 . S
C1296 C1297 1.415 1_545 S
C1296 H1330 0.932 . S
C1297 C1296 1.415 1_565 S
C1297 C1298 1.366 . S
C1297 H1331 0.931 . S
C1298 N1293 1.325 . S
C1298 C1297 1.366 . S
C1298 C1302 1.516 . S
N1299 Co1257 1.974 1_545 S
N1299 C1300 1.309 . S
N1299 C1305 1.423 . S
C1300 C1294 1.504 . S
C1300 N1299 1.309 . S
C1300 O1301 1.258 . S
O1301 C1300 1.258 . S
C1302 N1275 1.316 . S
C1302 C1298 1.516 . S
C1302 O1315 1.263 . S
O1303 Cd1246 2.350 . S
O1303 C1319 1.270 . S
O1304 Cd1246 2.277 . S
O1304 C1319 1.248 . S
C1305 N1299 1.423 . S
C1305 C1306 1.370 . S
C1305 C1310 1.403 . S
C1306 C1305 1.370 . S
C1306 C1307 1.389 . S
C1306 H1332 0.931 . S
C1307 C1306 1.389 . S
C1307 C1308 1.389 1_554 S
C1308 C1307 1.389 1_556 S
C1308 C1309 1.379 1_556 S
C1308 H1333 0.929 . S
C1309 C1308 1.379 1_554 S
C1309 C1310 1.405 . S
C1310 C1305 1.403 . S
C1310 C1309 1.405 . S
C1310 H1334 0.932 . S
O1311 Cd1246 2.173 . S
O1311 C1247 1.277 . S
O1312 C1247 1.230 . S
O1312 Cd1250 2.250 . S
O1313 Cd1246 2.263 . S
O1313 C1266 1.258 . S
O1314 Cd1250 2.308 . S
O1314 C1266 1.274 . S
O1315 Cd1246 2.366 . S
O1315 C1302 1.263 . S
C1316 O1317 1.235 . S
C1316 O1318 1.270 . S
O1317 Cd1250 2.352 . S
O1317 C1316 1.235 . S
O1318 Cd1246 2.329 . S
O1318 C1316 1.270 . S
C1319 O1303 1.270 . S
C1319 O1304 1.248 . S
H1320 C1252 0.930 . S
H1321 C1255 0.930 . S
H1322 C1256 0.931 1_556 S
H1323 C1261 0.929 . S
H1324 C1263 0.930 . S
H1325 C1265 0.930 . S
H1326 C1268 0.929 . S
H1327 C1269 0.931 . S
H1328 C1271 0.930 . S
H1329 C1295 0.929 . S
H1330 C1296 0.932 . S
H1331 C1297 0.931 . S
H1332 C1306 0.931 . S
H1333 C1308 0.929 . S
H1334 C1310 0.932 . S
Cd1335 O1392 2.350 . S
Cd1335 O1393 2.277 . S
Cd1335 O1400 2.173 . S
Cd1335 O1402 2.263 . S
Cd1335 O1404 2.366 . S
Cd1335 O1407 2.329 . S
C1336 O1400 1.277 . S
C1336 O1401 1.230 . S
C1337 O1338 1.246 . S
C1337 C1340 1.481 . S
C1337 N1362 1.329 . S
O1338 C1337 1.246 . S
Cd1339 O1401 2.250 . S
Cd1339 O1403 2.308 . S
Cd1339 O1406 2.352 1_556 S
C1340 C1337 1.481 . S
C1340 N1343 1.327 . S
C1340 C1344 1.407 . S
C1341 C1342 1.346 . S
C1341 C1345 1.390 . S
C1341 H1409 0.930 . S
C1342 C1341 1.346 . S
C1342 N1343 1.342 . S
C1342 C1347 1.516 . S
N1343 C1340 1.327 . S
N1343 C1342 1.342 . S
N1343 Co1346 1.864 . S
C1344 C1340 1.407 . S
C1344 C1345 1.364 . S
C1344 H1410 0.930 . S
C1345 C1341 1.390 . S
C1345 C1344 1.364 . S
C1345 H1411 0.931 . S
Co1346 N1343 1.864 . S
Co1346 N1362 1.955 . S
Co1346 N1363 1.958 . S
Co1346 N1364 1.953 . S
Co1346 N1382 1.869 . S
Co1346 N1388 1.974 . S
C1347 C1342 1.516 . S
C1347 O1348 1.238 . S
C1347 N1363 1.324 . S
O1348 C1347 1.238 . S
C1349 C1350 1.394 . S
C1349 C1354 1.395 . S
C1349 N1363 1.427 . S
C1350 C1349 1.394 . S
C1350 C1351 1.380 . S
C1350 H1412 0.929 . S
C1351 C1350 1.380 . S
C1351 C1352 1.384 . S
C1351 C1355 1.495 . S
C1352 C1351 1.384 . S
C1352 C1353 1.382 . S
C1352 H1413 0.930 . S
C1353 C1352 1.382 . S
C1353 C1354 1.398 . S
C1354 C1349 1.395 . S
C1354 C1353 1.398 . S
C1354 H1414 0.930 . S
C1355 C1351 1.495 . S
C1355 O1402 1.258 . S
C1355 O1403 1.274 . S
C1356 C1357 1.385 . S
C1356 C1358 1.381 . S
C1356 N1362 1.432 . S
C1357 C1356 1.385 . S
C1357 C1361 1.388 . S
C1357 H1415 0.929 . S
C1358 C1356 1.381 . S
C1358 C1359 1.371 . S
C1358 H1416 0.932 . S
C1359 C1358 1.371 . S
C1359 C1360 1.400 . S
C1360 C1359 1.400 . S
C1360 C1361 1.351 . S
C1360 H1417 0.930 . S
C1361 C1357 1.388 . S
C1361 C1360 1.351 . S
N1362 C1337 1.329 . S
N1362 Co1346 1.955 . S
N1362 C1356 1.432 . S
N1363 Co1346 1.958 . S
N1363 C1347 1.324 . S
N1363 C1349 1.427 . S
N1364 Co1346 1.953 . S
N1364 C1365 1.436 . S
N1364 C1391 1.316 . S
C1365 N1364 1.436 . S
C1365 C1366 1.421 . S
C1365 C1367 1.360 . S
C1366 C1365 1.421 . S
C1366 C1368 1.379 . S
C1366 H1369 0.929 . S
C1367 C1365 1.360 . S
C1367 C1371 1.393 . S
C1367 H1373 0.931 . S
C1368 C1366 1.379 . S
C1368 C1370 1.417 . S
C1368 C1372 1.505 . S
H1369 C1366 0.929 . S
C1370 C1368 1.417 . S
C1370 C1371 1.352 . S
C1370 H1374 0.929 . S
C1371 C1367 1.393 . S
C1371 C1370 1.352 . S
C1371 C1375 1.482 . S
C1372 C1368 1.505 . S
C1372 O1376 1.259 . S
C1372 O1377 1.229 . S
H1373 C1367 0.931 . S
H1374 C1370 0.929 . S
C1375 C1371 1.482 . S
C1375 O1378 1.207 . S
C1375 O1379 1.289 . S
O1376 C1372 1.259 . S
O1376 H1380 0.822 1_655 S
O1377 C1372 1.229 . S
O1378 C1375 1.207 . S
O1379 C1375 1.289 . S
O1379 H1381 0.819 . S
H1380 O1376 0.822 1_455 S
H1381 O1379 0.819 . S
N1382 Co1346 1.869 . S
N1382 C1383 1.330 . S
N1382 C1387 1.325 . S
C1383 N1382 1.330 . S
C1383 C1384 1.359 . S
C1383 C1389 1.504 . S
C1384 C1383 1.359 . S
C1384 C1385 1.366 . S
C1384 H1418 0.929 . S
C1385 C1384 1.366 . S
C1385 C1386 1.415 . S
C1385 H1419 0.932 . S
C1386 C1385 1.415 . S
C1386 C1387 1.366 . S
C1386 H1420 0.931 . S
C1387 N1382 1.325 . S
C1387 C1386 1.366 . S
C1387 C1391 1.516 . S
N1388 Co1346 1.974 . S
N1388 C1389 1.309 . S
N1388 C1394 1.423 . S
C1389 C1383 1.504 . S
C1389 N1388 1.309 . S
C1389 O1390 1.258 . S
O1390 C1389 1.258 . S
C1391 N1364 1.316 . S
C1391 C1387 1.516 . S
C1391 O1404 1.263 . S
O1392 Cd1335 2.350 . S
O1392 C1408 1.270 . S
O1393 Cd1335 2.277 . S
O1393 C1408 1.248 . S
C1394 N1388 1.423 . S
C1394 C1395 1.370 . S
C1394 C1399 1.403 . S
C1395 C1394 1.370 . S
C1395 C1396 1.389 . S
C1395 H1421 0.931 . S
C1396 C1395 1.389 . S
C1396 C1397 1.389 . S
C1397 C1396 1.389 . S
C1397 C1398 1.379 . S
C1397 H1422 0.929 . S
C1398 C1397 1.379 . S
C1398 C1399 1.405 . S
C1399 C1394 1.403 . S
C1399 C1398 1.405 . S
C1399 H1423 0.932 . S
O1400 Cd1335 2.173 . S
O1400 C1336 1.277 . S
O1401 C1336 1.230 . S
O1401 Cd1339 2.250 . S
O1402 Cd1335 2.263 . S
O1402 C1355 1.258 . S
O1403 Cd1339 2.308 . S
O1403 C1355 1.274 . S
O1404 Cd1335 2.366 . S
O1404 C1391 1.263 . S
C1405 O1406 1.235 1_556 S
C1405 O1407 1.270 . S
O1406 Cd1339 2.352 1_554 S
O1406 C1405 1.235 1_554 S
O1407 Cd1335 2.329 . S
O1407 C1405 1.270 . S
C1408 O1392 1.270 . S
C1408 O1393 1.248 . S
H1409 C1341 0.930 . S
H1410 C1344 0.930 . S
H1411 C1345 0.931 . S
H1412 C1350 0.929 . S
H1413 C1352 0.930 . S
H1414 C1354 0.930 . S
H1415 C1357 0.929 . S
H1416 C1358 0.932 . S
H1417 C1360 0.930 . S
H1418 C1384 0.929 . S
H1419 C1385 0.932 . S
H1420 C1386 0.931 . S
H1421 C1395 0.931 . S
H1422 C1397 0.929 . S
H1423 C1399 0.932 . S
Cd1424 O1481 2.350 . S
Cd1424 O1482 2.277 . S
Cd1424 O1489 2.173 . S
Cd1424 O1491 2.263 . S
Cd1424 O1493 2.366 . S
Cd1424 O1496 2.329 . S
C1425 O1489 1.277 . S
C1425 O1490 1.230 . S
C1426 O1427 1.247 1_655 S
C1426 C1429 1.481 . S
C1426 N1451 1.329 . S
O1427 C1426 1.247 1_455 S
Cd1428 O1490 2.250 . S
Cd1428 O1492 2.308 . S
Cd1428 O1495 2.352 . S
C1429 C1426 1.481 . S
C1429 N1432 1.327 . S
C1429 C1433 1.407 . S
C1430 C1431 1.346 . S
C1430 C1434 1.390 . S
C1430 H1498 0.930 . S
C1431 C1430 1.346 . S
C1431 N1432 1.342 . S
C1431 C1436 1.516 . S
N1432 C1429 1.327 . S
N1432 C1431 1.342 . S
N1432 Co1435 1.864 . S
C1433 C1429 1.407 . S
C1433 C1434 1.364 . S
C1433 H1499 0.930 . S
C1434 C1430 1.390 . S
C1434 C1433 1.364 . S
C1434 H1500 0.931 . S
Co1435 N1432 1.864 . S
Co1435 N1451 1.955 . S
Co1435 N1452 1.958 . S
Co1435 N1453 1.953 . S
Co1435 N1471 1.869 . S
Co1435 N1477 1.974 . S
C1436 C1431 1.516 . S
C1436 O1437 1.238 . S
C1436 N1452 1.324 . S
O1437 C1436 1.238 . S
C1438 C1439 1.394 . S
C1438 C1443 1.395 . S
C1438 N1452 1.427 . S
C1439 C1438 1.394 . S
C1439 C1440 1.380 . S
C1439 H1501 0.929 . S
C1440 C1439 1.380 . S
C1440 C1441 1.384 . S
C1440 C1444 1.495 . S
C1441 C1440 1.384 . S
C1441 C1442 1.382 . S
C1441 H1502 0.930 . S
C1442 C1441 1.382 . S
C1442 C1443 1.398 . S
C1443 C1438 1.395 . S
C1443 C1442 1.398 . S
C1443 H1503 0.930 . S
C1444 C1440 1.495 . S
C1444 O1491 1.258 . S
C1444 O1492 1.274 . S
C1445 C1446 1.385 . S
C1445 C1447 1.381 . S
C1445 N1451 1.432 1_455 S
C1446 C1445 1.385 . S
C1446 C1450 1.388 . S
C1446 H1504 0.929 . S
C1447 C1445 1.381 . S
C1447 C1448 1.371 . S
C1447 H1505 0.932 . S
C1448 C1447 1.371 . S
C1448 C1449 1.400 . S
C1449 C1448 1.400 . S
C1449 C1450 1.351 . S
C1449 H1506 0.930 . S
C1450 C1446 1.388 . S
C1450 C1449 1.351 . S
N1451 C1426 1.329 . S
N1451 Co1435 1.955 . S
N1451 C1445 1.432 1_655 S
N1452 Co1435 1.958 . S
N1452 C1436 1.324 . S
N1452 C1438 1.427 . S
N1453 Co1435 1.953 . S
N1453 C1454 1.436 . S
N1453 C1480 1.316 . S
C1454 N1453 1.436 . S
C1454 C1455 1.421 . S
C1454 C1456 1.360 . S
C1455 C1454 1.421 . S
C1455 C1457 1.379 . S
C1455 H1458 0.929 . S
C1456 C1454 1.360 . S
C1456 C1460 1.393 . S
C1456 H1462 0.931 . S
C1457 C1455 1.379 . S
C1457 C1459 1.417 . S
C1457 C1461 1.505 . S
H1458 C1455 0.929 . S
C1459 C1457 1.417 . S
C1459 C1460 1.352 . S
C1459 H1463 0.929 . S
C1460 C1456 1.393 . S
C1460 C1459 1.352 . S
C1460 C1464 1.482 . S
C1461 C1457 1.505 . S
C1461 O1465 1.259 . S
C1461 O1466 1.229 . S
H1462 C1456 0.931 . S
H1463 C1459 0.929 . S
C1464 C1460 1.482 . S
C1464 O1467 1.207 . S
C1464 O1468 1.289 . S
O1465 C1461 1.259 . S
O1465 H1469 0.822 . S
O1466 C1461 1.229 . S
O1467 C1464 1.207 . S
O1468 C1464 1.289 . S
O1468 H1470 0.819 . S
H1469 O1465 0.822 . S
H1470 O1468 0.819 . S
N1471 Co1435 1.869 . S
N1471 C1472 1.330 . S
N1471 C1476 1.325 . S
C1472 N1471 1.330 . S
C1472 C1473 1.359 . S
C1472 C1478 1.504 . S
C1473 C1472 1.359 . S
C1473 C1474 1.366 . S
C1473 H1507 0.929 . S
C1474 C1473 1.366 . S
C1474 C1475 1.415 . S
C1474 H1508 0.932 . S
C1475 C1474 1.415 . S
C1475 C1476 1.366 . S
C1475 H1509 0.931 . S
C1476 N1471 1.325 . S
C1476 C1475 1.366 . S
C1476 C1480 1.516 . S
N1477 Co1435 1.974 . S
N1477 C1478 1.309 . S
N1477 C1483 1.423 . S
C1478 C1472 1.504 . S
C1478 N1477 1.309 . S
C1478 O1479 1.258 . S
O1479 C1478 1.258 . S
C1480 N1453 1.316 . S
C1480 C1476 1.516 . S
C1480 O1493 1.263 . S
O1481 Cd1424 2.350 . S
O1481 C1497 1.270 . S
O1482 Cd1424 2.277 . S
O1482 C1497 1.248 . S
C1483 N1477 1.423 . S
C1483 C1484 1.370 . S
C1483 C1488 1.403 . S
C1484 C1483 1.370 . S
C1484 C1485 1.389 . S
C1484 H1510 0.931 . S
C1485 C1484 1.389 . S
C1485 C1486 1.389 . S
C1486 C1485 1.389 . S
C1486 C1487 1.379 . S
C1486 H1511 0.929 . S
C1487 C1486 1.379 . S
C1487 C1488 1.405 . S
C1488 C1483 1.403 . S
C1488 C1487 1.405 . S
C1488 H1512 0.932 . S
O1489 Cd1424 2.173 . S
O1489 C1425 1.277 . S
O1490 C1425 1.230 . S
O1490 Cd1428 2.250 . S
O1491 Cd1424 2.263 . S
O1491 C1444 1.258 . S
O1492 Cd1428 2.308 . S
O1492 C1444 1.274 . S
O1493 Cd1424 2.366 . S
O1493 C1480 1.263 . S
C1494 O1495 1.235 . S
C1494 O1496 1.270 . S
O1495 Cd1428 2.352 . S
O1495 C1494 1.235 . S
O1496 Cd1424 2.329 . S
O1496 C1494 1.270 . S
C1497 O1481 1.270 . S
C1497 O1482 1.248 . S
H1498 C1430 0.930 . S
H1499 C1433 0.930 . S
H1500 C1434 0.931 . S
H1501 C1439 0.929 . S
H1502 C1441 0.930 . S
H1503 C1443 0.930 . S
H1504 C1446 0.929 . S
H1505 C1447 0.932 . S
H1506 C1449 0.930 . S
H1507 C1473 0.929 . S
H1508 C1474 0.932 . S
H1509 C1475 0.931 . S
H1510 C1484 0.931 . S
H1511 C1486 0.929 . S
H1512 C1488 0.932 . S
Cd1513 O1570 2.350 . S
Cd1513 O1571 2.277 . S
Cd1513 O1578 2.173 . S
Cd1513 O1580 2.263 . S
Cd1513 O1582 2.366 . S
Cd1513 O1585 2.329 . S
C1514 O1578 1.277 . S
C1514 O1579 1.230 . S
C1515 O1516 1.246 . S
C1515 C1518 1.481 . S
C1515 N1540 1.329 . S
O1516 C1515 1.246 . S
Cd1517 O1579 2.250 . S
Cd1517 O1581 2.308 . S
Cd1517 O1584 2.352 1_556 S
C1518 C1515 1.481 . S
C1518 N1521 1.327 . S
C1518 C1522 1.407 . S
C1519 C1520 1.346 . S
C1519 C1523 1.390 . S
C1519 H1587 0.930 . S
C1520 C1519 1.346 . S
C1520 N1521 1.342 . S
C1520 C1525 1.516 . S
N1521 C1518 1.327 . S
N1521 C1520 1.342 . S
N1521 Co1524 1.864 . S
C1522 C1518 1.407 . S
C1522 C1523 1.364 . S
C1522 H1588 0.930 . S
C1523 C1519 1.390 . S
C1523 C1522 1.364 . S
C1523 H1589 0.931 . S
Co1524 N1521 1.864 . S
Co1524 N1540 1.955 . S
Co1524 N1541 1.958 . S
Co1524 N1542 1.953 . S
Co1524 N1560 1.869 . S
Co1524 N1566 1.974 . S
C1525 C1520 1.516 . S
C1525 O1526 1.238 . S
C1525 N1541 1.324 . S
O1526 C1525 1.238 . S
C1527 C1528 1.394 . S
C1527 C1532 1.395 . S
C1527 N1541 1.427 . S
C1528 C1527 1.394 . S
C1528 C1529 1.380 . S
C1528 H1590 0.929 . S
C1529 C1528 1.380 . S
C1529 C1530 1.384 . S
C1529 C1533 1.495 . S
C1530 C1529 1.384 . S
C1530 C1531 1.382 . S
C1530 H1591 0.930 . S
C1531 C1530 1.382 . S
C1531 C1532 1.398 . S
C1532 C1527 1.395 . S
C1532 C1531 1.398 . S
C1532 H1592 0.930 . S
C1533 C1529 1.495 . S
C1533 O1580 1.258 . S
C1533 O1581 1.274 . S
C1534 C1535 1.385 . S
C1534 C1536 1.381 . S
C1534 N1540 1.432 . S
C1535 C1534 1.385 . S
C1535 C1539 1.388 . S
C1535 H1593 0.929 . S
C1536 C1534 1.381 . S
C1536 C1537 1.371 . S
C1536 H1594 0.932 . S
C1537 C1536 1.371 . S
C1537 C1538 1.400 . S
C1538 C1537 1.400 . S
C1538 C1539 1.351 . S
C1538 H1595 0.930 . S
C1539 C1535 1.388 . S
C1539 C1538 1.351 . S
N1540 C1515 1.329 . S
N1540 Co1524 1.955 . S
N1540 C1534 1.432 . S
N1541 Co1524 1.958 . S
N1541 C1525 1.324 . S
N1541 C1527 1.427 . S
N1542 Co1524 1.953 . S
N1542 C1543 1.436 . S
N1542 C1569 1.316 . S
C1543 N1542 1.436 . S
C1543 C1544 1.421 . S
C1543 C1545 1.360 . S
C1544 C1543 1.421 . S
C1544 C1546 1.379 . S
C1544 H1547 0.929 . S
C1545 C1543 1.360 . S
C1545 C1549 1.393 . S
C1545 H1551 0.931 . S
C1546 C1544 1.379 . S
C1546 C1548 1.417 . S
C1546 C1550 1.505 . S
H1547 C1544 0.929 . S
C1548 C1546 1.417 . S
C1548 C1549 1.352 . S
C1548 H1552 0.929 . S
C1549 C1545 1.393 . S
C1549 C1548 1.352 . S
C1549 C1553 1.482 . S
C1550 C1546 1.505 . S
C1550 O1554 1.259 . S
C1550 O1555 1.229 . S
H1551 C1545 0.931 . S
H1552 C1548 0.929 . S
C1553 C1549 1.482 . S
C1553 O1556 1.207 . S
C1553 O1557 1.289 . S
O1554 C1550 1.259 . S
O1554 H1558 0.822 . S
O1555 C1550 1.229 . S
O1556 C1553 1.207 . S
O1557 C1553 1.289 . S
O1557 H1559 0.819 . S
H1558 O1554 0.822 . S
H1559 O1557 0.819 . S
N1560 Co1524 1.869 . S
N1560 C1561 1.330 . S
N1560 C1565 1.325 . S
C1561 N1560 1.330 . S
C1561 C1562 1.359 . S
C1561 C1567 1.504 . S
C1562 C1561 1.359 . S
C1562 C1563 1.366 . S
C1562 H1596 0.929 . S
C1563 C1562 1.366 . S
C1563 C1564 1.415 . S
C1563 H1597 0.932 . S
C1564 C1563 1.415 . S
C1564 C1565 1.366 . S
C1564 H1598 0.931 . S
C1565 N1560 1.325 . S
C1565 C1564 1.366 . S
C1565 C1569 1.516 . S
N1566 Co1524 1.974 . S
N1566 C1567 1.309 . S
N1566 C1572 1.423 . S
C1567 C1561 1.504 . S
C1567 N1566 1.309 . S
C1567 O1568 1.258 . S
O1568 C1567 1.258 . S
C1569 N1542 1.316 . S
C1569 C1565 1.516 . S
C1569 O1582 1.263 . S
O1570 Cd1513 2.350 . S
O1570 C1586 1.270 . S
O1571 Cd1513 2.277 . S
O1571 C1586 1.248 . S
C1572 N1566 1.423 . S
C1572 C1573 1.370 . S
C1572 C1577 1.403 . S
C1573 C1572 1.370 . S
C1573 C1574 1.389 . S
C1573 H1599 0.931 . S
C1574 C1573 1.389 . S
C1574 C1575 1.389 . S
C1575 C1574 1.389 . S
C1575 C1576 1.379 . S
C1575 H1600 0.929 . S
C1576 C1575 1.379 . S
C1576 C1577 1.405 . S
C1577 C1572 1.403 . S
C1577 C1576 1.405 . S
C1577 H1601 0.932 . S
O1578 Cd1513 2.173 . S
O1578 C1514 1.277 . S
O1579 C1514 1.230 . S
O1579 Cd1517 2.250 . S
O1580 Cd1513 2.263 . S
O1580 C1533 1.258 . S
O1581 Cd1517 2.308 . S
O1581 C1533 1.274 . S
O1582 Cd1513 2.366 . S
O1582 C1569 1.263 . S
C1583 O1584 1.235 1_556 S
C1583 O1585 1.270 . S
O1584 Cd1517 2.352 1_554 S
O1584 C1583 1.235 1_554 S
O1585 Cd1513 2.329 . S
O1585 C1583 1.270 . S
C1586 O1570 1.270 . S
C1586 O1571 1.248 . S
H1587 C1519 0.930 . S
H1588 C1522 0.930 . S
H1589 C1523 0.931 . S
H1590 C1528 0.929 . S
H1591 C1530 0.930 . S
H1592 C1532 0.930 . S
H1593 C1535 0.929 . S
H1594 C1536 0.932 . S
H1595 C1538 0.930 . S
H1596 C1562 0.929 . S
H1597 C1563 0.932 . S
H1598 C1564 0.931 . S
H1599 C1573 0.931 . S
H1600 C1575 0.929 . S
H1601 C1577 0.932 . S
Cd1602 O1659 2.350 . S
Cd1602 O1660 2.277 . S
Cd1602 O1667 2.173 . S
Cd1602 O1669 2.263 . S
Cd1602 O1671 2.366 . S
Cd1602 O1674 2.329 . S
C1603 O1667 1.277 . S
C1603 O1668 1.230 . S
C1604 O1605 1.246 . S
C1604 C1607 1.481 . S
C1604 N1629 1.329 . S
O1605 C1604 1.246 . S
Cd1606 O1668 2.250 . S
Cd1606 O1670 2.308 . S
Cd1606 O1673 2.352 . S
C1607 C1604 1.481 . S
C1607 N1610 1.327 . S
C1607 C1611 1.407 . S
C1608 C1609 1.346 . S
C1608 C1612 1.390 . S
C1608 H1676 0.930 . S
C1609 C1608 1.346 . S
C1609 N1610 1.342 . S
C1609 C1614 1.516 . S
N1610 C1607 1.327 . S
N1610 C1609 1.342 . S
N1610 Co1613 1.864 . S
C1611 C1607 1.407 . S
C1611 C1612 1.364 . S
C1611 H1677 0.930 . S
C1612 C1608 1.390 . S
C1612 C1611 1.364 . S
C1612 H1678 0.931 1_554 S
Co1613 N1610 1.864 . S
Co1613 N1629 1.955 . S
Co1613 N1630 1.958 . S
Co1613 N1631 1.953 . S
Co1613 N1649 1.869 . S
Co1613 N1655 1.974 . S
C1614 C1609 1.516 . S
C1614 O1615 1.238 . S
C1614 N1630 1.324 . S
O1615 C1614 1.238 . S
C1616 C1617 1.394 . S
C1616 C1621 1.395 . S
C1616 N1630 1.427 . S
C1617 C1616 1.394 . S
C1617 C1618 1.380 . S
C1617 H1679 0.929 . S
C1618 C1617 1.380 . S
C1618 C1619 1.384 . S
C1618 C1622 1.495 . S
C1619 C1618 1.384 . S
C1619 C1620 1.382 . S
C1619 H1680 0.930 . S
C1620 C1619 1.382 . S
C1620 C1621 1.398 . S
C1621 C1616 1.395 . S
C1621 C1620 1.398 . S
C1621 H1681 0.930 . S
C1622 C1618 1.495 . S
C1622 O1669 1.258 . S
C1622 O1670 1.274 . S
C1623 C1624 1.385 . S
C1623 C1625 1.381 . S
C1623 N1629 1.432 . S
C1624 C1623 1.385 . S
C1624 C1628 1.388 . S
C1624 H1682 0.929 . S
C1625 C1623 1.381 . S
C1625 C1626 1.371 . S
C1625 H1683 0.932 . S
C1626 C1625 1.371 . S
C1626 C1627 1.400 . S
C1627 C1626 1.400 . S
C1627 C1628 1.351 . S
C1627 H1684 0.930 . S
C1628 C1624 1.388 . S
C1628 C1627 1.351 . S
N1629 C1604 1.329 . S
N1629 Co1613 1.955 . S
N1629 C1623 1.432 . S
N1630 Co1613 1.958 . S
N1630 C1614 1.324 . S
N1630 C1616 1.427 . S
N1631 Co1613 1.953 . S
N1631 C1632 1.436 . S
N1631 C1658 1.316 . S
C1632 N1631 1.436 . S
C1632 C1633 1.421 . S
C1632 C1634 1.360 . S
C1633 C1632 1.421 . S
C1633 C1635 1.379 . S
C1633 H1636 0.929 . S
C1634 C1632 1.360 . S
C1634 C1638 1.393 . S
C1634 H1640 0.931 . S
C1635 C1633 1.379 . S
C1635 C1637 1.417 . S
C1635 C1639 1.505 . S
H1636 C1633 0.929 . S
C1637 C1635 1.417 . S
C1637 C1638 1.352 . S
C1637 H1641 0.929 . S
C1638 C1634 1.393 . S
C1638 C1637 1.352 . S
C1638 C1642 1.482 . S
C1639 C1635 1.505 . S
C1639 O1643 1.259 . S
C1639 O1644 1.229 . S
H1640 C1634 0.931 . S
H1641 C1637 0.929 . S
C1642 C1638 1.482 . S
C1642 O1645 1.207 . S
C1642 O1646 1.289 . S
O1643 C1639 1.259 . S
O1643 H1647 0.822 . S
O1644 C1639 1.229 . S
O1645 C1642 1.207 . S
O1646 C1642 1.289 . S
O1646 H1648 0.819 . S
H1647 O1643 0.822 . S
H1648 O1646 0.819 . S
N1649 Co1613 1.869 . S
N1649 C1650 1.330 . S
N1649 C1654 1.325 . S
C1650 N1649 1.330 . S
C1650 C1651 1.359 . S
C1650 C1656 1.504 . S
C1651 C1650 1.359 . S
C1651 C1652 1.366 . S
C1651 H1685 0.929 . S
C1652 C1651 1.366 . S
C1652 C1653 1.415 . S
C1652 H1686 0.932 . S
C1653 C1652 1.415 . S
C1653 C1654 1.366 . S
C1653 H1687 0.931 . S
C1654 N1649 1.325 . S
C1654 C1653 1.366 . S
C1654 C1658 1.516 . S
N1655 Co1613 1.974 . S
N1655 C1656 1.309 . S
N1655 C1661 1.423 . S
C1656 C1650 1.504 . S
C1656 N1655 1.309 . S
C1656 O1657 1.258 . S
O1657 C1656 1.258 . S
C1658 N1631 1.316 . S
C1658 C1654 1.516 . S
C1658 O1671 1.263 . S
O1659 Cd1602 2.350 . S
O1659 C1675 1.270 . S
O1660 Cd1602 2.277 . S
O1660 C1675 1.248 . S
C1661 N1655 1.423 . S
C1661 C1662 1.370 . S
C1661 C1666 1.403 . S
C1662 C1661 1.370 . S
C1662 C1663 1.389 . S
C1662 H1688 0.931 . S
C1663 C1662 1.389 . S
C1663 C1664 1.389 1_554 S
C1664 C1663 1.389 1_556 S
C1664 C1665 1.379 1_556 S
C1664 H1689 0.929 . S
C1665 C1664 1.379 1_554 S
C1665 C1666 1.405 . S
C1666 C1661 1.403 . S
C1666 C1665 1.405 . S
C1666 H1690 0.932 . S
O1667 Cd1602 2.173 . S
O1667 C1603 1.277 . S
O1668 C1603 1.230 . S
O1668 Cd1606 2.250 . S
O1669 Cd1602 2.263 . S
O1669 C1622 1.258 . S
O1670 Cd1606 2.308 . S
O1670 C1622 1.274 . S
O1671 Cd1602 2.366 . S
O1671 C1658 1.263 . S
C1672 O1673 1.235 . S
C1672 O1674 1.270 . S
O1673 Cd1606 2.352 . S
O1673 C1672 1.235 . S
O1674 Cd1602 2.329 . S
O1674 C1672 1.270 . S
C1675 O1659 1.270 . S
C1675 O1660 1.248 . S
H1676 C1608 0.930 . S
H1677 C1611 0.930 . S
H1678 C1612 0.931 1_556 S
H1679 C1617 0.929 . S
H1680 C1619 0.930 . S
H1681 C1621 0.930 . S
H1682 C1624 0.929 . S
H1683 C1625 0.932 . S
H1684 C1627 0.930 . S
H1685 C1651 0.929 . S
H1686 C1652 0.932 . S
H1687 C1653 0.931 . S
H1688 C1662 0.931 . S
H1689 C1664 0.929 . S
H1690 C1666 0.932 . S
Cd1691 O1748 2.350 . S
Cd1691 O1749 2.277 . S
Cd1691 O1756 2.173 . S
Cd1691 O1758 2.263 . S
Cd1691 O1760 2.366 . S
Cd1691 O1763 2.329 . S
C1692 O1756 1.277 . S
C1692 O1757 1.230 . S
C1693 O1694 1.246 . S
C1693 C1696 1.481 . S
C1693 N1718 1.329 . S
O1694 C1693 1.246 . S
Cd1695 O1757 2.250 . S
Cd1695 O1759 2.308 . S
Cd1695 O1762 2.352 . S
C1696 C1693 1.481 . S
C1696 N1699 1.327 . S
C1696 C1700 1.407 . S
C1697 C1698 1.346 . S
C1697 C1701 1.390 . S
C1697 H1765 0.930 . S
C1698 C1697 1.346 . S
C1698 N1699 1.342 . S
C1698 C1703 1.516 . S
N1699 C1696 1.327 . S
N1699 C1698 1.342 . S
N1699 Co1702 1.864 . S
C1700 C1696 1.407 . S
C1700 C1701 1.364 . S
C1700 H1766 0.930 . S
C1701 C1697 1.390 . S
C1701 C1700 1.364 . S
C1701 H1767 0.931 . S
Co1702 N1699 1.864 . S
Co1702 N1718 1.955 . S
Co1702 N1719 1.958 . S
Co1702 N1720 1.953 . S
Co1702 N1738 1.869 . S
Co1702 N1744 1.974 . S
C1703 C1698 1.516 . S
C1703 O1704 1.238 . S
C1703 N1719 1.324 . S
O1704 C1703 1.238 . S
C1705 C1706 1.394 . S
C1705 C1710 1.395 . S
C1705 N1719 1.427 . S
C1706 C1705 1.394 . S
C1706 C1707 1.380 . S
C1706 H1768 0.929 . S
C1707 C1706 1.380 . S
C1707 C1708 1.384 . S
C1707 C1711 1.495 . S
C1708 C1707 1.384 . S
C1708 C1709 1.382 . S
C1708 H1769 0.930 . S
C1709 C1708 1.382 . S
C1709 C1710 1.398 . S
C1710 C1705 1.395 . S
C1710 C1709 1.398 . S
C1710 H1770 0.930 . S
C1711 C1707 1.495 . S
C1711 O1758 1.258 . S
C1711 O1759 1.274 . S
C1712 C1713 1.385 . S
C1712 C1714 1.381 . S
C1712 N1718 1.432 . S
C1713 C1712 1.385 . S
C1713 C1717 1.388 . S
C1713 H1771 0.929 . S
C1714 C1712 1.381 . S
C1714 C1715 1.371 . S
C1714 H1772 0.932 . S
C1715 C1714 1.371 . S
C1715 C1716 1.400 . S
C1716 C1715 1.400 . S
C1716 C1717 1.351 . S
C1716 H1773 0.930 . S
C1717 C1713 1.388 . S
C1717 C1716 1.351 . S
N1718 C1693 1.329 . S
N1718 Co1702 1.955 . S
N1718 C1712 1.432 . S
N1719 Co1702 1.958 . S
N1719 C1703 1.324 . S
N1719 C1705 1.427 . S
N1720 Co1702 1.953 . S
N1720 C1721 1.436 . S
N1720 C1747 1.316 . S
C1721 N1720 1.436 . S
C1721 C1722 1.421 . S
C1721 C1723 1.360 . S
C1722 C1721 1.421 . S
C1722 C1724 1.379 . S
C1722 H1725 0.929 . S
C1723 C1721 1.360 . S
C1723 C1727 1.393 . S
C1723 H1729 0.931 . S
C1724 C1722 1.379 . S
C1724 C1726 1.417 . S
C1724 C1728 1.505 . S
H1725 C1722 0.929 . S
C1726 C1724 1.417 . S
C1726 C1727 1.352 . S
C1726 H1730 0.929 . S
C1727 C1723 1.393 . S
C1727 C1726 1.352 . S
C1727 C1731 1.482 . S
C1728 C1724 1.505 . S
C1728 O1732 1.259 . S
C1728 O1733 1.229 . S
H1729 C1723 0.931 . S
H1730 C1726 0.929 . S
C1731 C1727 1.482 . S
C1731 O1734 1.207 . S
C1731 O1735 1.289 . S
O1732 C1728 1.259 . S
O1732 H1736 0.822 1_655 S
O1733 C1728 1.229 . S
O1734 C1731 1.207 . S
O1735 C1731 1.289 . S
O1735 H1737 0.819 . S
H1736 O1732 0.822 1_455 S
H1737 O1735 0.819 . S
N1738 Co1702 1.869 . S
N1738 C1739 1.330 . S
N1738 C1743 1.325 . S
C1739 N1738 1.330 . S
C1739 C1740 1.359 . S
C1739 C1745 1.504 . S
C1740 C1739 1.359 . S
C1740 C1741 1.366 . S
C1740 H1774 0.929 . S
C1741 C1740 1.366 . S
C1741 C1742 1.415 . S
C1741 H1775 0.932 . S
C1742 C1741 1.415 . S
C1742 C1743 1.366 . S
C1742 H1776 0.931 . S
C1743 N1738 1.325 . S
C1743 C1742 1.366 . S
C1743 C1747 1.516 . S
N1744 Co1702 1.974 . S
N1744 C1745 1.309 . S
N1744 C1750 1.423 . S
C1745 C1739 1.504 . S
C1745 N1744 1.309 . S
C1745 O1746 1.258 . S
O1746 C1745 1.258 . S
C1747 N1720 1.316 . S
C1747 C1743 1.516 . S
C1747 O1760 1.263 . S
O1748 Cd1691 2.350 . S
O1748 C1764 1.270 . S
O1749 Cd1691 2.277 . S
O1749 C1764 1.248 . S
C1750 N1744 1.423 . S
C1750 C1751 1.370 . S
C1750 C1755 1.403 . S
C1751 C1750 1.370 . S
C1751 C1752 1.389 . S
C1751 H1777 0.931 . S
C1752 C1751 1.389 . S
C1752 C1753 1.389 . S
C1753 C1752 1.389 . S
C1753 C1754 1.379 . S
C1753 H1778 0.929 . S
C1754 C1753 1.379 . S
C1754 C1755 1.405 . S
C1755 C1750 1.403 . S
C1755 C1754 1.405 . S
C1755 H1779 0.932 . S
O1756 Cd1691 2.173 . S
O1756 C1692 1.277 . S
O1757 C1692 1.230 . S
O1757 Cd1695 2.250 . S
O1758 Cd1691 2.263 . S
O1758 C1711 1.258 . S
O1759 Cd1695 2.308 . S
O1759 C1711 1.274 . S
O1760 Cd1691 2.366 . S
O1760 C1747 1.263 . S
C1761 O1762 1.235 . S
C1761 O1763 1.270 . S
O1762 Cd1695 2.352 . S
O1762 C1761 1.235 . S
O1763 Cd1691 2.329 . S
O1763 C1761 1.270 . S
C1764 O1748 1.270 . S
C1764 O1749 1.248 . S
H1765 C1697 0.930 . S
H1766 C1700 0.930 . S
H1767 C1701 0.931 . S
H1768 C1706 0.929 . S
H1769 C1708 0.930 . S
H1770 C1710 0.930 . S
H1771 C1713 0.929 . S
H1772 C1714 0.932 . S
H1773 C1716 0.930 . S
H1774 C1740 0.929 . S
H1775 C1741 0.932 . S
H1776 C1742 0.931 . S
H1777 C1751 0.931 . S
H1778 C1753 0.929 . S
H1779 C1755 0.932 . S
Cd1780 O1837 2.350 . S
Cd1780 O1838 2.277 . S
Cd1780 O1845 2.173 . S
Cd1780 O1847 2.263 . S
Cd1780 O1849 2.366 . S
Cd1780 O1852 2.329 . S
C1781 O1845 1.277 . S
C1781 O1846 1.230 . S
C1782 O1783 1.247 1_655 S
C1782 C1785 1.481 . S
C1782 N1807 1.329 . S
O1783 C1782 1.247 1_455 S
Cd1784 O1846 2.250 . S
Cd1784 O1848 2.308 . S
Cd1784 O1851 2.352 . S
C1785 C1782 1.481 . S
C1785 N1788 1.327 . S
C1785 C1789 1.407 . S
C1786 C1787 1.346 . S
C1786 C1790 1.390 . S
C1786 H1854 0.930 . S
C1787 C1786 1.346 . S
C1787 N1788 1.342 . S
C1787 C1792 1.516 . S
N1788 C1785 1.327 . S
N1788 C1787 1.342 . S
N1788 Co1791 1.864 . S
C1789 C1785 1.407 . S
C1789 C1790 1.364 . S
C1789 H1855 0.930 . S
C1790 C1786 1.390 . S
C1790 C1789 1.364 . S
C1790 H1856 0.931 1_556 S
Co1791 N1788 1.864 . S
Co1791 N1807 1.955 . S
Co1791 N1808 1.958 . S
Co1791 N1809 1.953 . S
Co1791 N1827 1.869 . S
Co1791 N1833 1.974 . S
C1792 C1787 1.516 . S
C1792 O1793 1.238 . S
C1792 N1808 1.324 . S
O1793 C1792 1.238 . S
C1794 C1795 1.394 . S
C1794 C1799 1.395 . S
C1794 N1808 1.427 . S
C1795 C1794 1.394 . S
C1795 C1796 1.380 . S
C1795 H1857 0.929 . S
C1796 C1795 1.380 . S
C1796 C1797 1.384 . S
C1796 C1800 1.495 . S
C1797 C1796 1.384 . S
C1797 C1798 1.382 . S
C1797 H1858 0.930 . S
C1798 C1797 1.382 . S
C1798 C1799 1.398 . S
C1799 C1794 1.395 . S
C1799 C1798 1.398 . S
C1799 H1859 0.930 . S
C1800 C1796 1.495 . S
C1800 O1847 1.258 . S
C1800 O1848 1.274 . S
C1801 C1802 1.385 . S
C1801 C1803 1.381 . S
C1801 N1807 1.432 1_455 S
C1802 C1801 1.385 . S
C1802 C1806 1.388 . S
C1802 H1860 0.929 . S
C1803 C1801 1.381 . S
C1803 C1804 1.371 . S
C1803 H1861 0.932 . S
C1804 C1803 1.371 . S
C1804 C1805 1.400 . S
C1805 C1804 1.400 . S
C1805 C1806 1.351 . S
C1805 H1862 0.930 . S
C1806 C1802 1.388 . S
C1806 C1805 1.351 . S
N1807 C1782 1.329 . S
N1807 Co1791 1.955 . S
N1807 C1801 1.432 1_655 S
N1808 Co1791 1.958 . S
N1808 C1792 1.324 . S
N1808 C1794 1.427 . S
N1809 Co1791 1.953 . S
N1809 C1810 1.436 . S
N1809 C1836 1.316 . S
C1810 N1809 1.436 . S
C1810 C1811 1.421 . S
C1810 C1812 1.360 . S
C1811 C1810 1.421 . S
C1811 C1813 1.379 . S
C1811 H1814 0.929 . S
C1812 C1810 1.360 . S
C1812 C1816 1.393 . S
C1812 H1818 0.931 . S
C1813 C1811 1.379 . S
C1813 C1815 1.417 . S
C1813 C1817 1.505 . S
H1814 C1811 0.929 . S
C1815 C1813 1.417 . S
C1815 C1816 1.352 . S
C1815 H1819 0.929 . S
C1816 C1812 1.393 . S
C1816 C1815 1.352 . S
C1816 C1820 1.482 . S
C1817 C1813 1.505 . S
C1817 O1821 1.259 . S
C1817 O1822 1.229 . S
H1818 C1812 0.931 . S
H1819 C1815 0.929 . S
C1820 C1816 1.482 . S
C1820 O1823 1.207 . S
C1820 O1824 1.289 . S
O1821 C1817 1.259 . S
O1821 H1825 0.822 . S
O1822 C1817 1.229 . S
O1823 C1820 1.207 . S
O1824 C1820 1.289 . S
O1824 H1826 0.819 . S
H1825 O1821 0.822 . S
H1826 O1824 0.819 . S
N1827 Co1791 1.869 . S
N1827 C1828 1.330 . S
N1827 C1832 1.325 . S
C1828 N1827 1.330 . S
C1828 C1829 1.359 . S
C1828 C1834 1.504 . S
C1829 C1828 1.359 . S
C1829 C1830 1.366 . S
C1829 H1863 0.929 . S
C1830 C1829 1.366 . S
C1830 C1831 1.415 . S
C1830 H1864 0.932 . S
C1831 C1830 1.415 . S
C1831 C1832 1.366 . S
C1831 H1865 0.931 . S
C1832 N1827 1.325 . S
C1832 C1831 1.366 . S
C1832 C1836 1.516 . S
N1833 Co1791 1.974 . S
N1833 C1834 1.309 . S
N1833 C1839 1.423 . S
C1834 C1828 1.504 . S
C1834 N1833 1.309 . S
C1834 O1835 1.258 . S
O1835 C1834 1.258 . S
C1836 N1809 1.316 . S
C1836 C1832 1.516 . S
C1836 O1849 1.263 . S
O1837 Cd1780 2.350 . S
O1837 C1853 1.270 . S
O1838 Cd1780 2.277 . S
O1838 C1853 1.248 . S
C1839 N1833 1.423 . S
C1839 C1840 1.370 . S
C1839 C1844 1.403 . S
C1840 C1839 1.370 . S
C1840 C1841 1.389 . S
C1840 H1866 0.931 . S
C1841 C1840 1.389 . S
C1841 C1842 1.389 1_556 S
C1842 C1841 1.389 1_554 S
C1842 C1843 1.379 1_554 S
C1842 H1867 0.929 . S
C1843 C1842 1.379 1_556 S
C1843 C1844 1.405 . S
C1844 C1839 1.403 . S
C1844 C1843 1.405 . S
C1844 H1868 0.932 . S
O1845 Cd1780 2.173 . S
O1845 C1781 1.277 . S
O1846 C1781 1.230 . S
O1846 Cd1784 2.250 . S
O1847 Cd1780 2.263 . S
O1847 C1800 1.258 . S
O1848 Cd1784 2.308 . S
O1848 C1800 1.274 . S
O1849 Cd1780 2.366 . S
O1849 C1836 1.263 . S
C1850 O1851 1.235 . S
C1850 O1852 1.270 . S
O1851 Cd1784 2.352 . S
O1851 C1850 1.235 . S
O1852 Cd1780 2.329 . S
O1852 C1850 1.270 . S
C1853 O1837 1.270 . S
C1853 O1838 1.248 . S
H1854 C1786 0.930 . S
H1855 C1789 0.930 . S
H1856 C1790 0.931 1_554 S
H1857 C1795 0.929 . S
H1858 C1797 0.930 . S
H1859 C1799 0.930 . S
H1860 C1802 0.929 . S
H1861 C1803 0.932 . S
H1862 C1805 0.930 . S
H1863 C1829 0.929 . S
H1864 C1830 0.932 . S
H1865 C1831 0.931 . S
H1866 C1840 0.931 . S
H1867 C1842 0.929 . S
H1868 C1844 0.932 . S
Cd1869 O1926 2.350 . S
Cd1869 O1927 2.277 . S
Cd1869 O1934 2.173 . S
Cd1869 O1936 2.263 . S
Cd1869 O1938 2.366 . S
Cd1869 O1941 2.329 . S
C1870 O1934 1.277 . S
C1870 O1935 1.230 . S
C1871 O1872 1.246 . S
C1871 C1874 1.481 . S
C1871 N1896 1.329 . S
O1872 C1871 1.246 . S
Cd1873 O1935 2.250 . S
Cd1873 O1937 2.308 . S
Cd1873 O1940 2.352 1_554 S
C1874 C1871 1.481 . S
C1874 N1877 1.327 . S
C1874 C1878 1.407 . S
C1875 C1876 1.346 . S
C1875 C1879 1.390 . S
C1875 H1943 0.930 . S
C1876 C1875 1.346 . S
C1876 N1877 1.342 . S
C1876 C1881 1.516 . S
N1877 C1874 1.327 . S
N1877 C1876 1.342 . S
N1877 Co1880 1.864 . S
C1878 C1874 1.407 . S
C1878 C1879 1.364 . S
C1878 H1944 0.930 . S
C1879 C1875 1.390 . S
C1879 C1878 1.364 . S
C1879 H1945 0.931 . S
Co1880 N1877 1.864 . S
Co1880 N1896 1.955 . S
Co1880 N1897 1.958 . S
Co1880 N1898 1.953 . S
Co1880 N1916 1.869 . S
Co1880 N1922 1.974 . S
C1881 C1876 1.516 . S
C1881 O1882 1.238 . S
C1881 N1897 1.324 . S
O1882 C1881 1.238 . S
C1883 C1884 1.394 . S
C1883 C1888 1.395 . S
C1883 N1897 1.427 . S
C1884 C1883 1.394 . S
C1884 C1885 1.380 . S
C1884 H1946 0.929 . S
C1885 C1884 1.380 . S
C1885 C1886 1.384 . S
C1885 C1889 1.495 . S
C1886 C1885 1.384 . S
C1886 C1887 1.382 . S
C1886 H1947 0.930 . S
C1887 C1886 1.382 . S
C1887 C1888 1.398 . S
C1888 C1883 1.395 . S
C1888 C1887 1.398 . S
C1888 H1948 0.930 . S
C1889 C1885 1.495 . S
C1889 O1936 1.258 . S
C1889 O1937 1.274 . S
C1890 C1891 1.385 . S
C1890 C1892 1.381 . S
C1890 N1896 1.432 . S
C1891 C1890 1.385 . S
C1891 C1895 1.388 . S
C1891 H1949 0.929 . S
C1892 C1890 1.381 . S
C1892 C1893 1.371 . S
C1892 H1950 0.932 . S
C1893 C1892 1.371 . S
C1893 C1894 1.400 . S
C1894 C1893 1.400 . S
C1894 C1895 1.351 . S
C1894 H1951 0.930 . S
C1895 C1891 1.388 . S
C1895 C1894 1.351 . S
N1896 C1871 1.329 . S
N1896 Co1880 1.955 . S
N1896 C1890 1.432 . S
N1897 Co1880 1.958 . S
N1897 C1881 1.324 . S
N1897 C1883 1.427 . S
N1898 Co1880 1.953 . S
N1898 C1899 1.436 . S
N1898 C1925 1.316 . S
C1899 N1898 1.436 . S
C1899 C1900 1.421 . S
C1899 C1901 1.360 . S
C1900 C1899 1.421 . S
C1900 C1902 1.379 . S
C1900 H1903 0.929 . S
C1901 C1899 1.360 . S
C1901 C1905 1.393 . S
C1901 H1907 0.931 . S
C1902 C1900 1.379 . S
C1902 C1904 1.417 . S
C1902 C1906 1.505 . S
H1903 C1900 0.929 . S
C1904 C1902 1.417 . S
C1904 C1905 1.352 . S
C1904 H1908 0.929 . S
C1905 C1901 1.393 . S
C1905 C1904 1.352 . S
C1905 C1909 1.482 . S
C1906 C1902 1.505 . S
C1906 O1910 1.259 . S
C1906 O1911 1.229 . S
H1907 C1901 0.931 . S
H1908 C1904 0.929 . S
C1909 C1905 1.482 . S
C1909 O1912 1.207 . S
C1909 O1913 1.289 . S
O1910 C1906 1.259 . S
O1910 H1914 0.822 1_655 S
O1911 C1906 1.229 . S
O1912 C1909 1.207 . S
O1913 C1909 1.289 . S
O1913 H1915 0.819 . S
H1914 O1910 0.822 1_455 S
H1915 O1913 0.819 . S
N1916 Co1880 1.869 . S
N1916 C1917 1.330 . S
N1916 C1921 1.325 . S
C1917 N1916 1.330 . S
C1917 C1918 1.359 . S
C1917 C1923 1.504 . S
C1918 C1917 1.359 . S
C1918 C1919 1.366 . S
C1918 H1952 0.929 . S
C1919 C1918 1.366 . S
C1919 C1920 1.415 . S
C1919 H1953 0.932 . S
C1920 C1919 1.415 . S
C1920 C1921 1.366 . S
C1920 H1954 0.931 . S
C1921 N1916 1.325 . S
C1921 C1920 1.366 . S
C1921 C1925 1.516 . S
N1922 Co1880 1.974 . S
N1922 C1923 1.309 . S
N1922 C1928 1.423 . S
C1923 C1917 1.504 . S
C1923 N1922 1.309 . S
C1923 O1924 1.258 . S
O1924 C1923 1.258 . S
C1925 N1898 1.316 . S
C1925 C1921 1.516 . S
C1925 O1938 1.263 . S
O1926 Cd1869 2.350 . S
O1926 C1942 1.270 . S
O1927 Cd1869 2.277 . S
O1927 C1942 1.248 . S
C1928 N1922 1.423 . S
C1928 C1929 1.370 . S
C1928 C1933 1.403 . S
C1929 C1928 1.370 . S
C1929 C1930 1.389 . S
C1929 H1955 0.931 . S
C1930 C1929 1.389 . S
C1930 C1931 1.389 . S
C1931 C1930 1.389 . S
C1931 C1932 1.379 . S
C1931 H1956 0.929 . S
C1932 C1931 1.379 . S
C1932 C1933 1.405 . S
C1933 C1928 1.403 . S
C1933 C1932 1.405 . S
C1933 H1957 0.932 . S
O1934 Cd1869 2.173 . S
O1934 C1870 1.277 . S
O1935 C1870 1.230 . S
O1935 Cd1873 2.250 . S
O1936 Cd1869 2.263 . S
O1936 C1889 1.258 . S
O1937 Cd1873 2.308 . S
O1937 C1889 1.274 . S
O1938 Cd1869 2.366 . S
O1938 C1925 1.263 . S
C1939 O1940 1.235 1_554 S
C1939 O1941 1.270 . S
O1940 Cd1873 2.352 1_556 S
O1940 C1939 1.235 1_556 S
O1941 Cd1869 2.329 . S
O1941 C1939 1.270 . S
C1942 O1926 1.270 . S
C1942 O1927 1.248 . S
H1943 C1875 0.930 . S
H1944 C1878 0.930 . S
H1945 C1879 0.931 . S
H1946 C1884 0.929 . S
H1947 C1886 0.930 . S
H1948 C1888 0.930 . S
H1949 C1891 0.929 . S
H1950 C1892 0.932 . S
H1951 C1894 0.930 . S
H1952 C1918 0.929 . S
H1953 C1919 0.932 . S
H1954 C1920 0.931 . S
H1955 C1929 0.931 . S
H1956 C1931 0.929 . S
H1957 C1933 0.932 . S
Cd1958 O2015 2.350 . S
Cd1958 O2016 2.277 . S
Cd1958 O2023 2.173 . S
Cd1958 O2025 2.263 . S
Cd1958 O2027 2.366 . S
Cd1958 O2030 2.329 . S
C1959 O2023 1.277 . S
C1959 O2024 1.230 . S
C1960 O1961 1.246 . S
C1960 C1963 1.481 . S
C1960 N1985 1.329 . S
O1961 C1960 1.246 . S
Cd1962 O2024 2.250 . S
Cd1962 O2026 2.308 . S
Cd1962 O2029 2.352 . S
C1963 C1960 1.481 . S
C1963 N1966 1.327 . S
C1963 C1967 1.407 . S
C1964 C1965 1.346 . S
C1964 C1968 1.390 . S
C1964 H2032 0.930 . S
C1965 C1964 1.346 . S
C1965 N1966 1.342 . S
C1965 C1970 1.516 . S
N1966 C1963 1.327 . S
N1966 C1965 1.342 . S
N1966 Co1969 1.864 . S
C1967 C1963 1.407 . S
C1967 C1968 1.364 . S
C1967 H2033 0.930 . S
C1968 C1964 1.390 . S
C1968 C1967 1.364 . S
C1968 H2034 0.931 . S
Co1969 N1966 1.864 . S
Co1969 N1985 1.955 . S
Co1969 N1986 1.958 . S
Co1969 N1987 1.953 . S
Co1969 N2005 1.869 . S
Co1969 N2011 1.974 . S
C1970 C1965 1.516 . S
C1970 O1971 1.238 . S
C1970 N1986 1.324 . S
O1971 C1970 1.238 . S
C1972 C1973 1.394 . S
C1972 C1977 1.395 . S
C1972 N1986 1.427 . S
C1973 C1972 1.394 . S
C1973 C1974 1.380 . S
C1973 H2035 0.929 . S
C1974 C1973 1.380 . S
C1974 C1975 1.384 . S
C1974 C1978 1.495 . S
C1975 C1974 1.384 . S
C1975 C1976 1.382 . S
C1975 H2036 0.930 . S
C1976 C1975 1.382 . S
C1976 C1977 1.398 . S
C1977 C1972 1.395 . S
C1977 C1976 1.398 . S
C1977 H2037 0.930 . S
C1978 C1974 1.495 . S
C1978 O2025 1.258 . S
C1978 O2026 1.274 . S
C1979 C1980 1.385 . S
C1979 C1981 1.381 . S
C1979 N1985 1.432 . S
C1980 C1979 1.385 . S
C1980 C1984 1.388 . S
C1980 H2038 0.929 . S
C1981 C1979 1.381 . S
C1981 C1982 1.371 . S
C1981 H2039 0.932 . S
C1982 C1981 1.371 . S
C1982 C1983 1.400 . S
C1983 C1982 1.400 . S
C1983 C1984 1.351 . S
C1983 H2040 0.930 . S
C1984 C1980 1.388 . S
C1984 C1983 1.351 . S
N1985 C1960 1.329 . S
N1985 Co1969 1.955 . S
N1985 C1979 1.432 . S
N1986 Co1969 1.958 . S
N1986 C1970 1.324 . S
N1986 C1972 1.427 . S
N1987 Co1969 1.953 . S
N1987 C1988 1.436 . S
N1987 C2014 1.316 . S
C1988 N1987 1.436 . S
C1988 C1989 1.421 . S
C1988 C1990 1.360 . S
C1989 C1988 1.421 . S
C1989 C1991 1.379 . S
C1989 H1992 0.929 . S
C1990 C1988 1.360 . S
C1990 C1994 1.393 . S
C1990 H1996 0.931 . S
C1991 C1989 1.379 . S
C1991 C1993 1.417 . S
C1991 C1995 1.505 . S
H1992 C1989 0.929 . S
C1993 C1991 1.417 . S
C1993 C1994 1.352 . S
C1993 H1997 0.929 . S
C1994 C1990 1.393 . S
C1994 C1993 1.352 . S
C1994 C1998 1.482 . S
C1995 C1991 1.505 . S
C1995 O1999 1.259 . S
C1995 O2000 1.229 . S
H1996 C1990 0.931 . S
H1997 C1993 0.929 . S
C1998 C1994 1.482 . S
C1998 O2001 1.207 . S
C1998 O2002 1.289 . S
O1999 C1995 1.259 . S
O1999 H2003 0.822 . S
O2000 C1995 1.229 . S
O2001 C1998 1.207 . S
O2002 C1998 1.289 . S
O2002 H2004 0.819 . S
H2003 O1999 0.822 . S
H2004 O2002 0.819 . S
N2005 Co1969 1.869 . S
N2005 C2006 1.330 . S
N2005 C2010 1.325 . S
C2006 N2005 1.330 . S
C2006 C2007 1.359 . S
C2006 C2012 1.504 . S
C2007 C2006 1.359 . S
C2007 C2008 1.366 . S
C2007 H2041 0.929 . S
C2008 C2007 1.366 . S
C2008 C2009 1.415 . S
C2008 H2042 0.932 . S
C2009 C2008 1.415 . S
C2009 C2010 1.366 . S
C2009 H2043 0.931 . S
C2010 N2005 1.325 . S
C2010 C2009 1.366 . S
C2010 C2014 1.516 . S
N2011 Co1969 1.974 . S
N2011 C2012 1.309 . S
N2011 C2017 1.423 . S
C2012 C2006 1.504 . S
C2012 N2011 1.309 . S
C2012 O2013 1.258 . S
O2013 C2012 1.258 . S
C2014 N1987 1.316 . S
C2014 C2010 1.516 . S
C2014 O2027 1.263 . S
O2015 Cd1958 2.350 . S
O2015 C2031 1.270 . S
O2016 Cd1958 2.277 . S
O2016 C2031 1.248 . S
C2017 N2011 1.423 . S
C2017 C2018 1.370 . S
C2017 C2022 1.403 . S
C2018 C2017 1.370 . S
C2018 C2019 1.389 . S
C2018 H2044 0.931 . S
C2019 C2018 1.389 . S
C2019 C2020 1.389 . S
C2020 C2019 1.389 . S
C2020 C2021 1.379 . S
C2020 H2045 0.929 . S
C2021 C2020 1.379 . S
C2021 C2022 1.405 . S
C2022 C2017 1.403 . S
C2022 C2021 1.405 . S
C2022 H2046 0.932 . S
O2023 Cd1958 2.173 . S
O2023 C1959 1.277 . S
O2024 C1959 1.230 . S
O2024 Cd1962 2.250 . S
O2025 Cd1958 2.263 . S
O2025 C1978 1.258 . S
O2026 Cd1962 2.308 . S
O2026 C1978 1.274 . S
O2027 Cd1958 2.366 . S
O2027 C2014 1.263 . S
C2028 O2029 1.235 . S
C2028 O2030 1.270 . S
O2029 Cd1962 2.352 . S
O2029 C2028 1.235 . S
O2030 Cd1958 2.329 . S
O2030 C2028 1.270 . S
C2031 O2015 1.270 . S
C2031 O2016 1.248 . S
H2032 C1964 0.930 . S
H2033 C1967 0.930 . S
H2034 C1968 0.931 . S
H2035 C1973 0.929 . S
H2036 C1975 0.930 . S
H2037 C1977 0.930 . S
H2038 C1980 0.929 . S
H2039 C1981 0.932 . S
H2040 C1983 0.930 . S
H2041 C2007 0.929 . S
H2042 C2008 0.932 . S
H2043 C2009 0.931 . S
H2044 C2018 0.931 . S
H2045 C2020 0.929 . S
H2046 C2022 0.932 . S
Cd2047 O2104 2.350 . S
Cd2047 O2105 2.277 . S
Cd2047 O2112 2.173 . S
Cd2047 O2114 2.263 . S
Cd2047 O2116 2.366 . S
Cd2047 O2119 2.329 . S
C2048 O2112 1.277 . S
C2048 O2113 1.230 . S
C2049 O2050 1.246 . S
C2049 C2052 1.481 . S
C2049 N2074 1.329 . S
O2050 C2049 1.246 . S
Cd2051 O2113 2.250 . S
Cd2051 O2115 2.308 . S
Cd2051 O2118 2.352 . S
C2052 C2049 1.481 . S
C2052 N2055 1.327 . S
C2052 C2056 1.407 . S
C2053 C2054 1.346 . S
C2053 C2057 1.390 . S
C2053 H2121 0.930 . S
C2054 C2053 1.346 . S
C2054 N2055 1.342 . S
C2054 C2059 1.516 . S
N2055 C2052 1.327 . S
N2055 C2054 1.342 . S
N2055 Co2058 1.864 . S
C2056 C2052 1.407 . S
C2056 C2057 1.364 . S
C2056 H2122 0.930 . S
C2057 C2053 1.390 . S
C2057 C2056 1.364 . S
C2057 H2123 0.931 . S
Co2058 N2055 1.864 . S
Co2058 N2074 1.955 . S
Co2058 N2075 1.958 . S
Co2058 N2076 1.953 . S
Co2058 N2094 1.869 . S
Co2058 N2100 1.974 . S
C2059 C2054 1.516 . S
C2059 O2060 1.238 . S
C2059 N2075 1.324 . S
O2060 C2059 1.238 . S
C2061 C2062 1.394 . S
C2061 C2066 1.395 . S
C2061 N2075 1.427 . S
C2062 C2061 1.394 . S
C2062 C2063 1.380 . S
C2062 H2124 0.929 . S
C2063 C2062 1.380 . S
C2063 C2064 1.384 . S
C2063 C2067 1.495 . S
C2064 C2063 1.384 . S
C2064 C2065 1.382 . S
C2064 H2125 0.930 . S
C2065 C2064 1.382 . S
C2065 C2066 1.398 . S
C2066 C2061 1.395 . S
C2066 C2065 1.398 . S
C2066 H2126 0.930 . S
C2067 C2063 1.495 . S
C2067 O2114 1.258 . S
C2067 O2115 1.274 . S
C2068 C2069 1.385 . S
C2068 C2070 1.381 . S
C2068 N2074 1.432 . S
C2069 C2068 1.385 . S
C2069 C2073 1.388 . S
C2069 H2127 0.929 . S
C2070 C2068 1.381 . S
C2070 C2071 1.371 . S
C2070 H2128 0.932 . S
C2071 C2070 1.371 . S
C2071 C2072 1.400 . S
C2072 C2071 1.400 . S
C2072 C2073 1.351 . S
C2072 H2129 0.930 . S
C2073 C2069 1.388 . S
C2073 C2072 1.351 . S
N2074 C2049 1.329 . S
N2074 Co2058 1.955 . S
N2074 C2068 1.432 . S
N2075 Co2058 1.958 . S
N2075 C2059 1.324 . S
N2075 C2061 1.427 . S
N2076 Co2058 1.953 . S
N2076 C2077 1.436 . S
N2076 C2103 1.316 . S
C2077 N2076 1.436 . S
C2077 C2078 1.421 . S
C2077 C2079 1.360 . S
C2078 C2077 1.421 . S
C2078 C2080 1.379 . S
C2078 H2081 0.929 . S
C2079 C2077 1.360 . S
C2079 C2083 1.393 . S
C2079 H2085 0.931 . S
C2080 C2078 1.379 . S
C2080 C2082 1.417 . S
C2080 C2084 1.505 . S
H2081 C2078 0.929 . S
C2082 C2080 1.417 . S
C2082 C2083 1.352 . S
C2082 H2086 0.929 . S
C2083 C2079 1.393 . S
C2083 C2082 1.352 . S
C2083 C2087 1.482 . S
C2084 C2080 1.505 . S
C2084 O2088 1.259 . S
C2084 O2089 1.229 . S
H2085 C2079 0.931 . S
H2086 C2082 0.929 . S
C2087 C2083 1.482 . S
C2087 O2090 1.207 . S
C2087 O2091 1.289 . S
O2088 C2084 1.259 . S
O2088 H2092 0.822 . S
O2089 C2084 1.229 . S
O2090 C2087 1.207 . S
O2091 C2087 1.289 . S
O2091 H2093 0.819 . S
H2092 O2088 0.822 . S
H2093 O2091 0.819 . S
N2094 Co2058 1.869 . S
N2094 C2095 1.330 . S
N2094 C2099 1.325 . S
C2095 N2094 1.330 . S
C2095 C2096 1.359 . S
C2095 C2101 1.504 . S
C2096 C2095 1.359 . S
C2096 C2097 1.366 . S
C2096 H2130 0.929 . S
C2097 C2096 1.366 . S
C2097 C2098 1.415 . S
C2097 H2131 0.932 . S
C2098 C2097 1.415 . S
C2098 C2099 1.366 . S
C2098 H2132 0.931 . S
C2099 N2094 1.325 . S
C2099 C2098 1.366 . S
C2099 C2103 1.516 . S
N2100 Co2058 1.974 . S
N2100 C2101 1.309 . S
N2100 C2106 1.423 . S
C2101 C2095 1.504 . S
C2101 N2100 1.309 . S
C2101 O2102 1.258 . S
O2102 C2101 1.258 . S
C2103 N2076 1.316 . S
C2103 C2099 1.516 . S
C2103 O2116 1.263 . S
O2104 Cd2047 2.350 . S
O2104 C2120 1.270 . S
O2105 Cd2047 2.277 . S
O2105 C2120 1.248 . S
C2106 N2100 1.423 . S
C2106 C2107 1.370 . S
C2106 C2111 1.403 . S
C2107 C2106 1.370 . S
C2107 C2108 1.389 . S
C2107 H2133 0.931 . S
C2108 C2107 1.389 . S
C2108 C2109 1.389 . S
C2109 C2108 1.389 . S
C2109 C2110 1.379 . S
C2109 H2134 0.929 . S
C2110 C2109 1.379 . S
C2110 C2111 1.405 . S
C2111 C2106 1.403 . S
C2111 C2110 1.405 . S
C2111 H2135 0.932 . S
O2112 Cd2047 2.173 . S
O2112 C2048 1.277 . S
O2113 C2048 1.230 . S
O2113 Cd2051 2.250 . S
O2114 Cd2047 2.263 . S
O2114 C2067 1.258 . S
O2115 Cd2051 2.308 . S
O2115 C2067 1.274 . S
O2116 Cd2047 2.366 . S
O2116 C2103 1.263 . S
C2117 O2118 1.235 . S
C2117 O2119 1.270 . S
O2118 Cd2051 2.352 . S
O2118 C2117 1.235 . S
O2119 Cd2047 2.329 . S
O2119 C2117 1.270 . S
C2120 O2104 1.270 . S
C2120 O2105 1.248 . S
H2121 C2053 0.930 . S
H2122 C2056 0.930 . S
H2123 C2057 0.931 . S
H2124 C2062 0.929 . S
H2125 C2064 0.930 . S
H2126 C2066 0.930 . S
H2127 C2069 0.929 . S
H2128 C2070 0.932 . S
H2129 C2072 0.930 . S
H2130 C2096 0.929 . S
H2131 C2097 0.932 . S
H2132 C2098 0.931 . S
H2133 C2107 0.931 . S
H2134 C2109 0.929 . S
H2135 C2111 0.932 . S
Cd2136 O2193 2.350 . S
Cd2136 O2194 2.277 . S
Cd2136 O2201 2.173 . S
Cd2136 O2203 2.263 . S
Cd2136 O2205 2.366 . S
Cd2136 O2208 2.329 . S
C2137 O2201 1.277 . S
C2137 O2202 1.230 . S
C2138 O2139 1.247 1_455 S
C2138 C2141 1.481 . S
C2138 N2163 1.329 . S
O2139 C2138 1.247 1_655 S
Cd2140 O2202 2.250 . S
Cd2140 O2204 2.308 . S
Cd2140 O2207 2.352 . S
C2141 C2138 1.481 . S
C2141 N2144 1.327 . S
C2141 C2145 1.407 . S
C2142 C2143 1.346 . S
C2142 C2146 1.390 . S
C2142 H2210 0.930 . S
C2143 C2142 1.346 . S
C2143 N2144 1.342 . S
C2143 C2148 1.516 . S
N2144 C2141 1.327 . S
N2144 C2143 1.342 . S
N2144 Co2147 1.864 . S
C2145 C2141 1.407 . S
C2145 C2146 1.364 . S
C2145 H2211 0.930 . S
C2146 C2142 1.390 . S
C2146 C2145 1.364 . S
C2146 H2212 0.931 . S
Co2147 N2144 1.864 . S
Co2147 N2163 1.955 . S
Co2147 N2164 1.958 . S
Co2147 N2165 1.953 . S
Co2147 N2183 1.869 . S
Co2147 N2189 1.974 . S
C2148 C2143 1.516 . S
C2148 O2149 1.238 . S
C2148 N2164 1.324 . S
O2149 C2148 1.238 . S
C2150 C2151 1.394 . S
C2150 C2155 1.395 . S
C2150 N2164 1.427 . S
C2151 C2150 1.394 . S
C2151 C2152 1.380 . S
C2151 H2213 0.929 . S
C2152 C2151 1.380 . S
C2152 C2153 1.384 . S
C2152 C2156 1.495 . S
C2153 C2152 1.384 . S
C2153 C2154 1.382 . S
C2153 H2214 0.930 . S
C2154 C2153 1.382 . S
C2154 C2155 1.398 . S
C2155 C2150 1.395 . S
C2155 C2154 1.398 . S
C2155 H2215 0.930 . S
C2156 C2152 1.495 . S
C2156 O2203 1.258 . S
C2156 O2204 1.274 . S
C2157 C2158 1.385 . S
C2157 C2159 1.381 . S
C2157 N2163 1.432 1_655 S
C2158 C2157 1.385 . S
C2158 C2162 1.388 . S
C2158 H2216 0.929 . S
C2159 C2157 1.381 . S
C2159 C2160 1.371 . S
C2159 H2217 0.932 . S
C2160 C2159 1.371 . S
C2160 C2161 1.400 . S
C2161 C2160 1.400 . S
C2161 C2162 1.351 . S
C2161 H2218 0.930 . S
C2162 C2158 1.388 . S
C2162 C2161 1.351 . S
N2163 C2138 1.329 . S
N2163 Co2147 1.955 . S
N2163 C2157 1.432 1_455 S
N2164 Co2147 1.958 . S
N2164 C2148 1.324 . S
N2164 C2150 1.427 . S
N2165 Co2147 1.953 . S
N2165 C2166 1.436 . S
N2165 C2192 1.316 . S
C2166 N2165 1.436 . S
C2166 C2167 1.421 . S
C2166 C2168 1.360 . S
C2167 C2166 1.421 . S
C2167 C2169 1.379 . S
C2167 H2170 0.929 . S
C2168 C2166 1.360 . S
C2168 C2172 1.393 . S
C2168 H2174 0.931 . S
C2169 C2167 1.379 . S
C2169 C2171 1.417 . S
C2169 C2173 1.505 . S
H2170 C2167 0.929 . S
C2171 C2169 1.417 . S
C2171 C2172 1.352 . S
C2171 H2175 0.929 . S
C2172 C2168 1.393 . S
C2172 C2171 1.352 . S
C2172 C2176 1.482 . S
C2173 C2169 1.505 . S
C2173 O2177 1.259 . S
C2173 O2178 1.229 . S
H2174 C2168 0.931 . S
H2175 C2171 0.929 . S
C2176 C2172 1.482 . S
C2176 O2179 1.207 . S
C2176 O2180 1.289 . S
O2177 C2173 1.259 . S
O2177 H2181 0.822 . S
O2178 C2173 1.229 . S
O2179 C2176 1.207 . S
O2180 C2176 1.289 . S
O2180 H2182 0.819 . S
H2181 O2177 0.822 . S
H2182 O2180 0.819 . S
N2183 Co2147 1.869 . S
N2183 C2184 1.330 . S
N2183 C2188 1.325 . S
C2184 N2183 1.330 . S
C2184 C2185 1.359 . S
C2184 C2190 1.504 . S
C2185 C2184 1.359 . S
C2185 C2186 1.366 . S
C2185 H2219 0.929 . S
C2186 C2185 1.366 . S
C2186 C2187 1.415 . S
C2186 H2220 0.932 . S
C2187 C2186 1.415 . S
C2187 C2188 1.366 . S
C2187 H2221 0.931 . S
C2188 N2183 1.325 . S
C2188 C2187 1.366 . S
C2188 C2192 1.516 . S
N2189 Co2147 1.974 . S
N2189 C2190 1.309 . S
N2189 C2195 1.423 . S
C2190 C2184 1.504 . S
C2190 N2189 1.309 . S
C2190 O2191 1.258 . S
O2191 C2190 1.258 . S
C2192 N2165 1.316 . S
C2192 C2188 1.516 . S
C2192 O2205 1.263 . S
O2193 Cd2136 2.350 . S
O2193 C2209 1.270 . S
O2194 Cd2136 2.277 . S
O2194 C2209 1.248 . S
C2195 N2189 1.423 . S
C2195 C2196 1.370 . S
C2195 C2200 1.403 . S
C2196 C2195 1.370 . S
C2196 C2197 1.389 . S
C2196 H2222 0.931 . S
C2197 C2196 1.389 . S
C2197 C2198 1.389 . S
C2198 C2197 1.389 . S
C2198 C2199 1.379 . S
C2198 H2223 0.929 . S
C2199 C2198 1.379 . S
C2199 C2200 1.405 . S
C2200 C2195 1.403 . S
C2200 C2199 1.405 . S
C2200 H2224 0.932 . S
O2201 Cd2136 2.173 . S
O2201 C2137 1.277 . S
O2202 C2137 1.230 . S
O2202 Cd2140 2.250 . S
O2203 Cd2136 2.263 . S
O2203 C2156 1.258 . S
O2204 Cd2140 2.308 . S
O2204 C2156 1.274 . S
O2205 Cd2136 2.366 . S
O2205 C2192 1.263 . S
C2206 O2207 1.235 . S
C2206 O2208 1.270 . S
O2207 Cd2140 2.352 . S
O2207 C2206 1.235 . S
O2208 Cd2136 2.329 . S
O2208 C2206 1.270 . S
C2209 O2193 1.270 . S
C2209 O2194 1.248 . S
H2210 C2142 0.930 . S
H2211 C2145 0.930 . S
H2212 C2146 0.931 . S
H2213 C2151 0.929 . S
H2214 C2153 0.930 . S
H2215 C2155 0.930 . S
H2216 C2158 0.929 . S
H2217 C2159 0.932 . S
H2218 C2161 0.930 . S
H2219 C2185 0.929 . S
H2220 C2186 0.932 . S
H2221 C2187 0.931 . S
H2222 C2196 0.931 . S
H2223 C2198 0.929 . S
H2224 C2200 0.932 . S
Cd2225 O2282 2.350 . S
Cd2225 O2283 2.277 . S
Cd2225 O2290 2.173 . S
Cd2225 O2292 2.263 . S
Cd2225 O2294 2.366 . S
Cd2225 O2297 2.329 . S
C2226 O2290 1.277 . S
C2226 O2291 1.230 . S
C2227 O2228 1.246 . S
C2227 C2230 1.481 . S
C2227 N2252 1.329 . S
O2228 C2227 1.246 . S
Cd2229 O2291 2.250 . S
Cd2229 O2293 2.308 . S
Cd2229 O2296 2.352 1_554 S
C2230 C2227 1.481 . S
C2230 N2233 1.327 . S
C2230 C2234 1.407 . S
C2231 C2232 1.346 . S
C2231 C2235 1.390 . S
C2231 H2299 0.930 . S
C2232 C2231 1.346 . S
C2232 N2233 1.342 . S
C2232 C2237 1.516 . S
N2233 C2230 1.327 . S
N2233 C2232 1.342 . S
N2233 Co2236 1.864 . S
C2234 C2230 1.407 . S
C2234 C2235 1.364 . S
C2234 H2300 0.930 . S
C2235 C2231 1.390 . S
C2235 C2234 1.364 . S
C2235 H2301 0.931 . S
Co2236 N2233 1.864 . S
Co2236 N2252 1.955 . S
Co2236 N2253 1.958 . S
Co2236 N2254 1.953 . S
Co2236 N2272 1.869 . S
Co2236 N2278 1.974 . S
C2237 C2232 1.516 . S
C2237 O2238 1.238 . S
C2237 N2253 1.324 . S
O2238 C2237 1.238 . S
C2239 C2240 1.394 . S
C2239 C2244 1.395 . S
C2239 N2253 1.427 . S
C2240 C2239 1.394 . S
C2240 C2241 1.380 . S
C2240 H2302 0.929 . S
C2241 C2240 1.380 . S
C2241 C2242 1.384 . S
C2241 C2245 1.495 . S
C2242 C2241 1.384 . S
C2242 C2243 1.382 . S
C2242 H2303 0.930 . S
C2243 C2242 1.382 . S
C2243 C2244 1.398 . S
C2244 C2239 1.395 . S
C2244 C2243 1.398 . S
C2244 H2304 0.930 . S
C2245 C2241 1.495 . S
C2245 O2292 1.258 . S
C2245 O2293 1.274 . S
C2246 C2247 1.385 . S
C2246 C2248 1.381 . S
C2246 N2252 1.432 . S
C2247 C2246 1.385 . S
C2247 C2251 1.388 . S
C2247 H2305 0.929 . S
C2248 C2246 1.381 . S
C2248 C2249 1.371 . S
C2248 H2306 0.932 . S
C2249 C2248 1.371 . S
C2249 C2250 1.400 . S
C2250 C2249 1.400 . S
C2250 C2251 1.351 . S
C2250 H2307 0.930 . S
C2251 C2247 1.388 . S
C2251 C2250 1.351 . S
N2252 C2227 1.329 . S
N2252 Co2236 1.955 . S
N2252 C2246 1.432 . S
N2253 Co2236 1.958 . S
N2253 C2237 1.324 . S
N2253 C2239 1.427 . S
N2254 Co2236 1.953 . S
N2254 C2255 1.436 . S
N2254 C2281 1.316 . S
C2255 N2254 1.436 . S
C2255 C2256 1.421 . S
C2255 C2257 1.360 . S
C2256 C2255 1.421 . S
C2256 C2258 1.379 . S
C2256 H2259 0.929 . S
C2257 C2255 1.360 . S
C2257 C2261 1.393 . S
C2257 H2263 0.931 . S
C2258 C2256 1.379 . S
C2258 C2260 1.417 . S
C2258 C2262 1.505 . S
H2259 C2256 0.929 . S
C2260 C2258 1.417 . S
C2260 C2261 1.352 . S
C2260 H2264 0.929 . S
C2261 C2257 1.393 . S
C2261 C2260 1.352 . S
C2261 C2265 1.482 . S
C2262 C2258 1.505 . S
C2262 O2266 1.259 . S
C2262 O2267 1.229 . S
H2263 C2257 0.931 . S
H2264 C2260 0.929 . S
C2265 C2261 1.482 . S
C2265 O2268 1.207 . S
C2265 O2269 1.289 . S
O2266 C2262 1.259 . S
O2266 H2270 0.822 . S
O2267 C2262 1.229 . S
O2268 C2265 1.207 . S
O2269 C2265 1.289 . S
O2269 H2271 0.819 . S
H2270 O2266 0.822 . S
H2271 O2269 0.819 . S
N2272 Co2236 1.869 . S
N2272 C2273 1.330 . S
N2272 C2277 1.325 . S
C2273 N2272 1.330 . S
C2273 C2274 1.359 . S
C2273 C2279 1.504 . S
C2274 C2273 1.359 . S
C2274 C2275 1.366 . S
C2274 H2308 0.929 . S
C2275 C2274 1.366 . S
C2275 C2276 1.415 . S
C2275 H2309 0.932 . S
C2276 C2275 1.415 . S
C2276 C2277 1.366 . S
C2276 H2310 0.931 . S
C2277 N2272 1.325 . S
C2277 C2276 1.366 . S
C2277 C2281 1.516 . S
N2278 Co2236 1.974 . S
N2278 C2279 1.309 . S
N2278 C2284 1.423 . S
C2279 C2273 1.504 . S
C2279 N2278 1.309 . S
C2279 O2280 1.258 . S
O2280 C2279 1.258 . S
C2281 N2254 1.316 . S
C2281 C2277 1.516 . S
C2281 O2294 1.263 . S
O2282 Cd2225 2.350 . S
O2282 C2298 1.270 . S
O2283 Cd2225 2.277 . S
O2283 C2298 1.248 . S
C2284 N2278 1.423 . S
C2284 C2285 1.370 . S
C2284 C2289 1.403 . S
C2285 C2284 1.370 . S
C2285 C2286 1.389 . S
C2285 H2311 0.931 . S
C2286 C2285 1.389 . S
C2286 C2287 1.389 . S
C2287 C2286 1.389 . S
C2287 C2288 1.379 . S
C2287 H2312 0.929 . S
C2288 C2287 1.379 . S
C2288 C2289 1.405 . S
C2289 C2284 1.403 . S
C2289 C2288 1.405 . S
C2289 H2313 0.932 . S
O2290 Cd2225 2.173 . S
O2290 C2226 1.277 . S
O2291 C2226 1.230 . S
O2291 Cd2229 2.250 . S
O2292 Cd2225 2.263 . S
O2292 C2245 1.258 . S
O2293 Cd2229 2.308 . S
O2293 C2245 1.274 . S
O2294 Cd2225 2.366 . S
O2294 C2281 1.263 . S
C2295 O2296 1.235 1_554 S
C2295 O2297 1.270 . S
O2296 Cd2229 2.352 1_556 S
O2296 C2295 1.235 1_556 S
O2297 Cd2225 2.329 . S
O2297 C2295 1.270 . S
C2298 O2282 1.270 . S
C2298 O2283 1.248 . S
H2299 C2231 0.930 . S
H2300 C2234 0.930 . S
H2301 C2235 0.931 . S
H2302 C2240 0.929 . S
H2303 C2242 0.930 . S
H2304 C2244 0.930 . S
H2305 C2247 0.929 . S
H2306 C2248 0.932 . S
H2307 C2250 0.930 . S
H2308 C2274 0.929 . S
H2309 C2275 0.932 . S
H2310 C2276 0.931 . S
H2311 C2285 0.931 . S
H2312 C2287 0.929 . S
H2313 C2289 0.932 . S
Cd2314 O2371 2.350 . S
Cd2314 O2372 2.277 . S
Cd2314 O2379 2.173 . S
Cd2314 O2381 2.263 . S
Cd2314 O2383 2.366 . S
Cd2314 O2386 2.329 . S
C2315 O2379 1.277 . S
C2315 O2380 1.230 . S
C2316 O2317 1.246 . S
C2316 C2319 1.481 . S
C2316 N2341 1.329 . S
O2317 C2316 1.246 . S
Cd2318 O2380 2.250 . S
Cd2318 O2382 2.308 . S
Cd2318 O2385 2.352 . S
C2319 C2316 1.481 . S
C2319 N2322 1.327 . S
C2319 C2323 1.407 . S
C2320 C2321 1.346 . S
C2320 C2324 1.390 . S
C2320 H2388 0.930 . S
C2321 C2320 1.346 . S
C2321 N2322 1.342 . S
C2321 C2326 1.516 . S
N2322 C2319 1.327 . S
N2322 C2321 1.342 . S
N2322 Co2325 1.864 . S
C2323 C2319 1.407 . S
C2323 C2324 1.364 . S
C2323 H2389 0.930 . S
C2324 C2320 1.390 . S
C2324 C2323 1.364 . S
C2324 H2390 0.931 1_556 S
Co2325 N2322 1.864 . S
Co2325 N2341 1.955 . S
Co2325 N2342 1.958 . S
Co2325 N2343 1.953 . S
Co2325 N2361 1.869 . S
Co2325 N2367 1.974 . S
C2326 C2321 1.516 . S
C2326 O2327 1.238 . S
C2326 N2342 1.324 . S
O2327 C2326 1.238 . S
C2328 C2329 1.394 . S
C2328 C2333 1.395 . S
C2328 N2342 1.427 . S
C2329 C2328 1.394 . S
C2329 C2330 1.380 . S
C2329 H2391 0.929 . S
C2330 C2329 1.380 . S
C2330 C2331 1.384 . S
C2330 C2334 1.495 . S
C2331 C2330 1.384 . S
C2331 C2332 1.382 . S
C2331 H2392 0.930 . S
C2332 C2331 1.382 . S
C2332 C2333 1.398 . S
C2333 C2328 1.395 . S
C2333 C2332 1.398 . S
C2333 H2393 0.930 . S
C2334 C2330 1.495 . S
C2334 O2381 1.258 . S
C2334 O2382 1.274 . S
C2335 C2336 1.385 . S
C2335 C2337 1.381 . S
C2335 N2341 1.432 . S
C2336 C2335 1.385 . S
C2336 C2340 1.388 . S
C2336 H2394 0.929 . S
C2337 C2335 1.381 . S
C2337 C2338 1.371 . S
C2337 H2395 0.932 . S
C2338 C2337 1.371 . S
C2338 C2339 1.400 . S
C2339 C2338 1.400 . S
C2339 C2340 1.351 . S
C2339 H2396 0.930 . S
C2340 C2336 1.388 . S
C2340 C2339 1.351 . S
N2341 C2316 1.329 . S
N2341 Co2325 1.955 . S
N2341 C2335 1.432 . S
N2342 Co2325 1.958 . S
N2342 C2326 1.324 . S
N2342 C2328 1.427 . S
N2343 Co2325 1.953 . S
N2343 C2344 1.436 . S
N2343 C2370 1.316 . S
C2344 N2343 1.436 . S
C2344 C2345 1.421 . S
C2344 C2346 1.360 . S
C2345 C2344 1.421 . S
C2345 C2347 1.379 . S
C2345 H2348 0.929 . S
C2346 C2344 1.360 . S
C2346 C2350 1.393 . S
C2346 H2352 0.931 . S
C2347 C2345 1.379 . S
C2347 C2349 1.417 . S
C2347 C2351 1.505 . S
H2348 C2345 0.929 . S
C2349 C2347 1.417 . S
C2349 C2350 1.352 . S
C2349 H2353 0.929 . S
C2350 C2346 1.393 . S
C2350 C2349 1.352 . S
C2350 C2354 1.482 . S
C2351 C2347 1.505 . S
C2351 O2355 1.259 . S
C2351 O2356 1.229 . S
H2352 C2346 0.931 . S
H2353 C2349 0.929 . S
C2354 C2350 1.482 . S
C2354 O2357 1.207 . S
C2354 O2358 1.289 . S
O2355 C2351 1.259 . S
O2355 H2359 0.822 . S
O2356 C2351 1.229 . S
O2357 C2354 1.207 . S
O2358 C2354 1.289 . S
O2358 H2360 0.819 . S
H2359 O2355 0.822 . S
H2360 O2358 0.819 . S
N2361 Co2325 1.869 . S
N2361 C2362 1.330 . S
N2361 C2366 1.325 . S
C2362 N2361 1.330 . S
C2362 C2363 1.359 . S
C2362 C2368 1.504 . S
C2363 C2362 1.359 . S
C2363 C2364 1.366 . S
C2363 H2397 0.929 . S
C2364 C2363 1.366 . S
C2364 C2365 1.415 . S
C2364 H2398 0.932 . S
C2365 C2364 1.415 . S
C2365 C2366 1.366 . S
C2365 H2399 0.931 . S
C2366 N2361 1.325 . S
C2366 C2365 1.366 . S
C2366 C2370 1.516 . S
N2367 Co2325 1.974 . S
N2367 C2368 1.309 . S
N2367 C2373 1.423 . S
C2368 C2362 1.504 . S
C2368 N2367 1.309 . S
C2368 O2369 1.258 . S
O2369 C2368 1.258 . S
C2370 N2343 1.316 . S
C2370 C2366 1.516 . S
C2370 O2383 1.263 . S
O2371 Cd2314 2.350 . S
O2371 C2387 1.270 . S
O2372 Cd2314 2.277 . S
O2372 C2387 1.248 . S
C2373 N2367 1.423 . S
C2373 C2374 1.370 . S
C2373 C2378 1.403 . S
C2374 C2373 1.370 . S
C2374 C2375 1.389 . S
C2374 H2400 0.931 . S
C2375 C2374 1.389 . S
C2375 C2376 1.389 1_556 S
C2376 C2375 1.389 1_554 S
C2376 C2377 1.379 1_554 S
C2376 H2401 0.929 . S
C2377 C2376 1.379 1_556 S
C2377 C2378 1.405 . S
C2378 C2373 1.403 . S
C2378 C2377 1.405 . S
C2378 H2402 0.932 . S
O2379 Cd2314 2.173 . S
O2379 C2315 1.277 . S
O2380 C2315 1.230 . S
O2380 Cd2318 2.250 . S
O2381 Cd2314 2.263 . S
O2381 C2334 1.258 . S
O2382 Cd2318 2.308 . S
O2382 C2334 1.274 . S
O2383 Cd2314 2.366 . S
O2383 C2370 1.263 . S
C2384 O2385 1.235 . S
C2384 O2386 1.270 . S
O2385 Cd2318 2.352 . S
O2385 C2384 1.235 . S
O2386 Cd2314 2.329 . S
O2386 C2384 1.270 . S
C2387 O2371 1.270 . S
C2387 O2372 1.248 . S
H2388 C2320 0.930 . S
H2389 C2323 0.930 . S
H2390 C2324 0.931 1_554 S
H2391 C2329 0.929 . S
H2392 C2331 0.930 . S
H2393 C2333 0.930 . S
H2394 C2336 0.929 . S
H2395 C2337 0.932 . S
H2396 C2339 0.930 . S
H2397 C2363 0.929 . S
H2398 C2364 0.932 . S
H2399 C2365 0.931 . S
H2400 C2374 0.931 . S
H2401 C2376 0.929 . S
H2402 C2378 0.932 . S
Cd2403 O2460 2.350 . S
Cd2403 O2461 2.277 . S
Cd2403 O2468 2.173 . S
Cd2403 O2470 2.263 . S
Cd2403 O2472 2.366 . S
Cd2403 O2475 2.329 . S
C2404 O2468 1.277 . S
C2404 O2469 1.230 . S
C2405 O2406 1.246 . S
C2405 C2408 1.481 . S
C2405 N2430 1.329 . S
O2406 C2405 1.246 . S
Cd2407 O2469 2.250 . S
Cd2407 O2471 2.308 . S
Cd2407 O2474 2.352 . S
C2408 C2405 1.481 . S
C2408 N2411 1.327 . S
C2408 C2412 1.407 . S
C2409 C2410 1.346 . S
C2409 C2413 1.390 . S
C2409 H2477 0.930 . S
C2410 C2409 1.346 . S
C2410 N2411 1.342 . S
C2410 C2415 1.516 . S
N2411 C2408 1.327 . S
N2411 C2410 1.342 . S
N2411 Co2414 1.864 . S
C2412 C2408 1.407 . S
C2412 C2413 1.364 . S
C2412 H2478 0.930 . S
C2413 C2409 1.390 . S
C2413 C2412 1.364 . S
C2413 H2479 0.931 . S
Co2414 N2411 1.864 . S
Co2414 N2430 1.955 . S
Co2414 N2431 1.958 . S
Co2414 N2432 1.953 . S
Co2414 N2450 1.869 . S
Co2414 N2456 1.974 . S
C2415 C2410 1.516 . S
C2415 O2416 1.238 . S
C2415 N2431 1.324 . S
O2416 C2415 1.238 . S
C2417 C2418 1.394 . S
C2417 C2422 1.395 . S
C2417 N2431 1.427 . S
C2418 C2417 1.394 . S
C2418 C2419 1.380 . S
C2418 H2480 0.929 . S
C2419 C2418 1.380 . S
C2419 C2420 1.384 . S
C2419 C2423 1.495 . S
C2420 C2419 1.384 . S
C2420 C2421 1.382 . S
C2420 H2481 0.930 . S
C2421 C2420 1.382 . S
C2421 C2422 1.398 . S
C2422 C2417 1.395 . S
C2422 C2421 1.398 . S
C2422 H2482 0.930 . S
C2423 C2419 1.495 . S
C2423 O2470 1.258 . S
C2423 O2471 1.274 . S
C2424 C2425 1.385 . S
C2424 C2426 1.381 . S
C2424 N2430 1.432 . S
C2425 C2424 1.385 . S
C2425 C2429 1.388 . S
C2425 H2483 0.929 . S
C2426 C2424 1.381 . S
C2426 C2427 1.371 . S
C2426 H2484 0.932 . S
C2427 C2426 1.371 . S
C2427 C2428 1.400 . S
C2428 C2427 1.400 . S
C2428 C2429 1.351 . S
C2428 H2485 0.930 . S
C2429 C2425 1.388 . S
C2429 C2428 1.351 . S
N2430 C2405 1.329 . S
N2430 Co2414 1.955 . S
N2430 C2424 1.432 . S
N2431 Co2414 1.958 . S
N2431 C2415 1.324 . S
N2431 C2417 1.427 . S
N2432 Co2414 1.953 . S
N2432 C2433 1.436 . S
N2432 C2459 1.316 . S
C2433 N2432 1.436 . S
C2433 C2434 1.421 . S
C2433 C2435 1.360 . S
C2434 C2433 1.421 . S
C2434 C2436 1.379 . S
C2434 H2437 0.929 . S
C2435 C2433 1.360 . S
C2435 C2439 1.393 . S
C2435 H2441 0.931 . S
C2436 C2434 1.379 . S
C2436 C2438 1.417 . S
C2436 C2440 1.505 . S
H2437 C2434 0.929 . S
C2438 C2436 1.417 . S
C2438 C2439 1.352 . S
C2438 H2442 0.929 . S
C2439 C2435 1.393 . S
C2439 C2438 1.352 . S
C2439 C2443 1.482 . S
C2440 C2436 1.505 . S
C2440 O2444 1.259 . S
C2440 O2445 1.229 . S
H2441 C2435 0.931 . S
H2442 C2438 0.929 . S
C2443 C2439 1.482 . S
C2443 O2446 1.207 . S
C2443 O2447 1.289 . S
O2444 C2440 1.259 . S
O2444 H2448 0.822 1_455 S
O2445 C2440 1.229 . S
O2446 C2443 1.207 . S
O2447 C2443 1.289 . S
O2447 H2449 0.819 . S
H2448 O2444 0.822 1_655 S
H2449 O2447 0.819 . S
N2450 Co2414 1.869 . S
N2450 C2451 1.330 . S
N2450 C2455 1.325 . S
C2451 N2450 1.330 . S
C2451 C2452 1.359 . S
C2451 C2457 1.504 . S
C2452 C2451 1.359 . S
C2452 C2453 1.366 . S
C2452 H2486 0.929 . S
C2453 C2452 1.366 . S
C2453 C2454 1.415 . S
C2453 H2487 0.932 . S
C2454 C2453 1.415 . S
C2454 C2455 1.366 . S
C2454 H2488 0.931 . S
C2455 N2450 1.325 . S
C2455 C2454 1.366 . S
C2455 C2459 1.516 . S
N2456 Co2414 1.974 . S
N2456 C2457 1.309 . S
N2456 C2462 1.423 . S
C2457 C2451 1.504 . S
C2457 N2456 1.309 . S
C2457 O2458 1.258 . S
O2458 C2457 1.258 . S
C2459 N2432 1.316 . S
C2459 C2455 1.516 . S
C2459 O2472 1.263 . S
O2460 Cd2403 2.350 . S
O2460 C2476 1.270 . S
O2461 Cd2403 2.277 . S
O2461 C2476 1.248 . S
C2462 N2456 1.423 . S
C2462 C2463 1.370 . S
C2462 C2467 1.403 . S
C2463 C2462 1.370 . S
C2463 C2464 1.389 . S
C2463 H2489 0.931 . S
C2464 C2463 1.389 . S
C2464 C2465 1.389 . S
C2465 C2464 1.389 . S
C2465 C2466 1.379 . S
C2465 H2490 0.929 . S
C2466 C2465 1.379 . S
C2466 C2467 1.405 . S
C2467 C2462 1.403 . S
C2467 C2466 1.405 . S
C2467 H2491 0.932 . S
O2468 Cd2403 2.173 . S
O2468 C2404 1.277 . S
O2469 C2404 1.230 . S
O2469 Cd2407 2.250 . S
O2470 Cd2403 2.263 . S
O2470 C2423 1.258 . S
O2471 Cd2407 2.308 . S
O2471 C2423 1.274 . S
O2472 Cd2403 2.366 . S
O2472 C2459 1.263 . S
C2473 O2474 1.235 . S
C2473 O2475 1.270 . S
O2474 Cd2407 2.352 . S
O2474 C2473 1.235 . S
O2475 Cd2403 2.329 . S
O2475 C2473 1.270 . S
C2476 O2460 1.270 . S
C2476 O2461 1.248 . S
H2477 C2409 0.930 . S
H2478 C2412 0.930 . S
H2479 C2413 0.931 . S
H2480 C2418 0.929 . S
H2481 C2420 0.930 . S
H2482 C2422 0.930 . S
H2483 C2425 0.929 . S
H2484 C2426 0.932 . S
H2485 C2428 0.930 . S
H2486 C2452 0.929 . S
H2487 C2453 0.932 . S
H2488 C2454 0.931 . S
H2489 C2463 0.931 . S
H2490 C2465 0.929 . S
H2491 C2467 0.932 . S
Cd2492 O2549 2.350 . S
Cd2492 O2550 2.277 . S
Cd2492 O2557 2.173 . S
Cd2492 O2559 2.263 . S
Cd2492 O2561 2.366 . S
Cd2492 O2564 2.329 . S
C2493 O2557 1.277 . S
C2493 O2558 1.230 . S
C2494 O2495 1.247 1_455 S
C2494 C2497 1.481 . S
C2494 N2519 1.329 . S
O2495 C2494 1.247 1_655 S
Cd2496 O2558 2.250 . S
Cd2496 O2560 2.308 . S
Cd2496 O2563 2.352 . S
C2497 C2494 1.481 . S
C2497 N2500 1.327 . S
C2497 C2501 1.407 . S
C2498 C2499 1.346 . S
C2498 C2502 1.390 . S
C2498 H2566 0.930 . S
C2499 C2498 1.346 . S
C2499 N2500 1.342 . S
C2499 C2504 1.516 . S
N2500 C2497 1.327 . S
N2500 C2499 1.342 . S
N2500 Co2503 1.864 . S
C2501 C2497 1.407 . S
C2501 C2502 1.364 . S
C2501 H2567 0.930 . S
C2502 C2498 1.390 . S
C2502 C2501 1.364 . S
C2502 H2568 0.931 1_554 S
Co2503 N2500 1.864 . S
Co2503 N2519 1.955 . S
Co2503 N2520 1.958 . S
Co2503 N2521 1.953 . S
Co2503 N2539 1.869 . S
Co2503 N2545 1.974 . S
C2504 C2499 1.516 . S
C2504 O2505 1.238 . S
C2504 N2520 1.324 . S
O2505 C2504 1.238 . S
C2506 C2507 1.394 . S
C2506 C2511 1.395 . S
C2506 N2520 1.427 . S
C2507 C2506 1.394 . S
C2507 C2508 1.380 . S
C2507 H2569 0.929 . S
C2508 C2507 1.380 . S
C2508 C2509 1.384 . S
C2508 C2512 1.495 . S
C2509 C2508 1.384 . S
C2509 C2510 1.382 . S
C2509 H2570 0.930 . S
C2510 C2509 1.382 . S
C2510 C2511 1.398 . S
C2511 C2506 1.395 . S
C2511 C2510 1.398 . S
C2511 H2571 0.930 . S
C2512 C2508 1.495 . S
C2512 O2559 1.258 . S
C2512 O2560 1.274 . S
C2513 C2514 1.385 . S
C2513 C2515 1.381 . S
C2513 N2519 1.432 1_655 S
C2514 C2513 1.385 . S
C2514 C2518 1.388 . S
C2514 H2572 0.929 . S
C2515 C2513 1.381 . S
C2515 C2516 1.371 . S
C2515 H2573 0.932 . S
C2516 C2515 1.371 . S
C2516 C2517 1.400 . S
C2517 C2516 1.400 . S
C2517 C2518 1.351 . S
C2517 H2574 0.930 . S
C2518 C2514 1.388 . S
C2518 C2517 1.351 . S
N2519 C2494 1.329 . S
N2519 Co2503 1.955 . S
N2519 C2513 1.432 1_455 S
N2520 Co2503 1.958 . S
N2520 C2504 1.324 . S
N2520 C2506 1.427 . S
N2521 Co2503 1.953 . S
N2521 C2522 1.436 . S
N2521 C2548 1.316 . S
C2522 N2521 1.436 . S
C2522 C2523 1.421 . S
C2522 C2524 1.360 . S
C2523 C2522 1.421 . S
C2523 C2525 1.379 . S
C2523 H2526 0.929 . S
C2524 C2522 1.360 . S
C2524 C2528 1.393 . S
C2524 H2530 0.931 . S
C2525 C2523 1.379 . S
C2525 C2527 1.417 . S
C2525 C2529 1.505 . S
H2526 C2523 0.929 . S
C2527 C2525 1.417 . S
C2527 C2528 1.352 . S
C2527 H2531 0.929 . S
C2528 C2524 1.393 . S
C2528 C2527 1.352 . S
C2528 C2532 1.482 . S
C2529 C2525 1.505 . S
C2529 O2533 1.259 . S
C2529 O2534 1.229 . S
H2530 C2524 0.931 . S
H2531 C2527 0.929 . S
C2532 C2528 1.482 . S
C2532 O2535 1.207 . S
C2532 O2536 1.289 . S
O2533 C2529 1.259 . S
O2533 H2537 0.822 . S
O2534 C2529 1.229 . S
O2535 C2532 1.207 . S
O2536 C2532 1.289 . S
O2536 H2538 0.819 . S
H2537 O2533 0.822 . S
H2538 O2536 0.819 . S
N2539 Co2503 1.869 . S
N2539 C2540 1.330 . S
N2539 C2544 1.325 . S
C2540 N2539 1.330 . S
C2540 C2541 1.359 . S
C2540 C2546 1.504 . S
C2541 C2540 1.359 . S
C2541 C2542 1.366 . S
C2541 H2575 0.929 . S
C2542 C2541 1.366 . S
C2542 C2543 1.415 . S
C2542 H2576 0.932 . S
C2543 C2542 1.415 . S
C2543 C2544 1.366 . S
C2543 H2577 0.931 . S
C2544 N2539 1.325 . S
C2544 C2543 1.366 . S
C2544 C2548 1.516 . S
N2545 Co2503 1.974 . S
N2545 C2546 1.309 . S
N2545 C2551 1.423 . S
C2546 C2540 1.504 . S
C2546 N2545 1.309 . S
C2546 O2547 1.258 . S
O2547 C2546 1.258 . S
C2548 N2521 1.316 . S
C2548 C2544 1.516 . S
C2548 O2561 1.263 . S
O2549 Cd2492 2.350 . S
O2549 C2565 1.270 . S
O2550 Cd2492 2.277 . S
O2550 C2565 1.248 . S
C2551 N2545 1.423 . S
C2551 C2552 1.370 . S
C2551 C2556 1.403 . S
C2552 C2551 1.370 . S
C2552 C2553 1.389 . S
C2552 H2578 0.931 . S
C2553 C2552 1.389 . S
C2553 C2554 1.389 1_554 S
C2554 C2553 1.389 1_556 S
C2554 C2555 1.379 1_556 S
C2554 H2579 0.929 . S
C2555 C2554 1.379 1_554 S
C2555 C2556 1.405 . S
C2556 C2551 1.403 . S
C2556 C2555 1.405 . S
C2556 H2580 0.932 . S
O2557 Cd2492 2.173 . S
O2557 C2493 1.277 . S
O2558 C2493 1.230 . S
O2558 Cd2496 2.250 . S
O2559 Cd2492 2.263 . S
O2559 C2512 1.258 . S
O2560 Cd2496 2.308 . S
O2560 C2512 1.274 . S
O2561 Cd2492 2.366 . S
O2561 C2548 1.263 . S
C2562 O2563 1.235 . S
C2562 O2564 1.270 . S
O2563 Cd2496 2.352 . S
O2563 C2562 1.235 . S
O2564 Cd2492 2.329 . S
O2564 C2562 1.270 . S
C2565 O2549 1.270 . S
C2565 O2550 1.248 . S
H2566 C2498 0.930 . S
H2567 C2501 0.930 . S
H2568 C2502 0.931 1_556 S
H2569 C2507 0.929 . S
H2570 C2509 0.930 . S
H2571 C2511 0.930 . S
H2572 C2514 0.929 . S
H2573 C2515 0.932 . S
H2574 C2517 0.930 . S
H2575 C2541 0.929 . S
H2576 C2542 0.932 . S
H2577 C2543 0.931 . S
H2578 C2552 0.931 . S
H2579 C2554 0.929 . S
H2580 C2556 0.932 . S
Cd2581 O2638 2.350 . S
Cd2581 O2639 2.277 . S
Cd2581 O2646 2.173 . S
Cd2581 O2648 2.263 . S
Cd2581 O2650 2.366 . S
Cd2581 O2653 2.329 . S
C2582 O2646 1.277 . S
C2582 O2647 1.230 . S
C2583 O2584 1.246 . S
C2583 C2586 1.481 . S
C2583 N2608 1.329 . S
O2584 C2583 1.246 . S
Cd2585 O2647 2.250 . S
Cd2585 O2649 2.308 . S
Cd2585 O2652 2.352 1_556 S
C2586 C2583 1.481 . S
C2586 N2589 1.327 . S
C2586 C2590 1.407 . S
C2587 C2588 1.346 . S
C2587 C2591 1.390 . S
C2587 H2655 0.930 . S
C2588 C2587 1.346 . S
C2588 N2589 1.342 . S
C2588 C2593 1.516 . S
N2589 C2586 1.327 . S
N2589 C2588 1.342 . S
N2589 Co2592 1.864 . S
C2590 C2586 1.407 . S
C2590 C2591 1.364 . S
C2590 H2656 0.930 . S
C2591 C2587 1.390 . S
C2591 C2590 1.364 . S
C2591 H2657 0.931 . S
Co2592 N2589 1.864 . S
Co2592 N2608 1.955 . S
Co2592 N2609 1.958 . S
Co2592 N2610 1.953 . S
Co2592 N2628 1.869 . S
Co2592 N2634 1.974 . S
C2593 C2588 1.516 . S
C2593 O2594 1.238 . S
C2593 N2609 1.324 . S
O2594 C2593 1.238 . S
C2595 C2596 1.394 . S
C2595 C2600 1.395 . S
C2595 N2609 1.427 . S
C2596 C2595 1.394 . S
C2596 C2597 1.380 . S
C2596 H2658 0.929 . S
C2597 C2596 1.380 . S
C2597 C2598 1.384 . S
C2597 C2601 1.495 . S
C2598 C2597 1.384 . S
C2598 C2599 1.382 . S
C2598 H2659 0.930 . S
C2599 C2598 1.382 . S
C2599 C2600 1.398 . S
C2600 C2595 1.395 . S
C2600 C2599 1.398 . S
C2600 H2660 0.930 . S
C2601 C2597 1.495 . S
C2601 O2648 1.258 . S
C2601 O2649 1.274 . S
C2602 C2603 1.385 . S
C2602 C2604 1.381 . S
C2602 N2608 1.432 . S
C2603 C2602 1.385 . S
C2603 C2607 1.388 . S
C2603 H2661 0.929 . S
C2604 C2602 1.381 . S
C2604 C2605 1.371 . S
C2604 H2662 0.932 . S
C2605 C2604 1.371 . S
C2605 C2606 1.400 . S
C2606 C2605 1.400 . S
C2606 C2607 1.351 . S
C2606 H2663 0.930 . S
C2607 C2603 1.388 . S
C2607 C2606 1.351 . S
N2608 C2583 1.329 . S
N2608 Co2592 1.955 . S
N2608 C2602 1.432 . S
N2609 Co2592 1.958 . S
N2609 C2593 1.324 . S
N2609 C2595 1.427 . S
N2610 Co2592 1.953 . S
N2610 C2611 1.436 . S
N2610 C2637 1.316 . S
C2611 N2610 1.436 . S
C2611 C2612 1.421 . S
C2611 C2613 1.360 . S
C2612 C2611 1.421 . S
C2612 C2614 1.379 . S
C2612 H2615 0.929 . S
C2613 C2611 1.360 . S
C2613 C2617 1.393 . S
C2613 H2619 0.931 . S
C2614 C2612 1.379 . S
C2614 C2616 1.417 . S
C2614 C2618 1.505 . S
H2615 C2612 0.929 . S
C2616 C2614 1.417 . S
C2616 C2617 1.352 . S
C2616 H2620 0.929 . S
C2617 C2613 1.393 . S
C2617 C2616 1.352 . S
C2617 C2621 1.482 . S
C2618 C2614 1.505 . S
C2618 O2622 1.259 . S
C2618 O2623 1.229 . S
H2619 C2613 0.931 . S
H2620 C2616 0.929 . S
C2621 C2617 1.482 . S
C2621 O2624 1.207 . S
C2621 O2625 1.289 . S
O2622 C2618 1.259 . S
O2622 H2626 0.822 1_455 S
O2623 C2618 1.229 . S
O2624 C2621 1.207 . S
O2625 C2621 1.289 . S
O2625 H2627 0.819 . S
H2626 O2622 0.822 1_655 S
H2627 O2625 0.819 . S
N2628 Co2592 1.869 . S
N2628 C2629 1.330 . S
N2628 C2633 1.325 . S
C2629 N2628 1.330 . S
C2629 C2630 1.359 . S
C2629 C2635 1.504 . S
C2630 C2629 1.359 . S
C2630 C2631 1.366 . S
C2630 H2664 0.929 . S
C2631 C2630 1.366 . S
C2631 C2632 1.415 . S
C2631 H2665 0.932 . S
C2632 C2631 1.415 . S
C2632 C2633 1.366 . S
C2632 H2666 0.931 . S
C2633 N2628 1.325 . S
C2633 C2632 1.366 . S
C2633 C2637 1.516 . S
N2634 Co2592 1.974 . S
N2634 C2635 1.309 . S
N2634 C2640 1.423 . S
C2635 C2629 1.504 . S
C2635 N2634 1.309 . S
C2635 O2636 1.258 . S
O2636 C2635 1.258 . S
C2637 N2610 1.316 . S
C2637 C2633 1.516 . S
C2637 O2650 1.263 . S
O2638 Cd2581 2.350 . S
O2638 C2654 1.270 . S
O2639 Cd2581 2.277 . S
O2639 C2654 1.248 . S
C2640 N2634 1.423 . S
C2640 C2641 1.370 . S
C2640 C2645 1.403 . S
C2641 C2640 1.370 . S
C2641 C2642 1.389 . S
C2641 H2667 0.931 . S
C2642 C2641 1.389 . S
C2642 C2643 1.389 . S
C2643 C2642 1.389 . S
C2643 C2644 1.379 . S
C2643 H2668 0.929 . S
C2644 C2643 1.379 . S
C2644 C2645 1.405 . S
C2645 C2640 1.403 . S
C2645 C2644 1.405 . S
C2645 H2669 0.932 . S
O2646 Cd2581 2.173 . S
O2646 C2582 1.277 . S
O2647 C2582 1.230 . S
O2647 Cd2585 2.250 . S
O2648 Cd2581 2.263 . S
O2648 C2601 1.258 . S
O2649 Cd2585 2.308 . S
O2649 C2601 1.274 . S
O2650 Cd2581 2.366 . S
O2650 C2637 1.263 . S
C2651 O2652 1.235 1_556 S
C2651 O2653 1.270 . S
O2652 Cd2585 2.352 1_554 S
O2652 C2651 1.235 1_554 S
O2653 Cd2581 2.329 . S
O2653 C2651 1.270 . S
C2654 O2638 1.270 . S
C2654 O2639 1.248 . S
H2655 C2587 0.930 . S
H2656 C2590 0.930 . S
H2657 C2591 0.931 . S
H2658 C2596 0.929 . S
H2659 C2598 0.930 . S
H2660 C2600 0.930 . S
H2661 C2603 0.929 . S
H2662 C2604 0.932 . S
H2663 C2606 0.930 . S
H2664 C2630 0.929 . S
H2665 C2631 0.932 . S
H2666 C2632 0.931 . S
H2667 C2641 0.931 . S
H2668 C2643 0.929 . S
H2669 C2645 0.932 . S
Cd2670 O2727 2.350 . S
Cd2670 O2728 2.277 . S
Cd2670 O2735 2.173 . S
Cd2670 O2737 2.263 . S
Cd2670 O2739 2.366 . S
Cd2670 O2742 2.329 . S
C2671 O2735 1.277 . S
C2671 O2736 1.230 . S
C2672 O2673 1.246 . S
C2672 C2675 1.481 . S
C2672 N2697 1.329 . S
O2673 C2672 1.246 . S
Cd2674 O2736 2.250 . S
Cd2674 O2738 2.308 . S
Cd2674 O2741 2.352 . S
C2675 C2672 1.481 . S
C2675 N2678 1.327 . S
C2675 C2679 1.407 . S
C2676 C2677 1.346 . S
C2676 C2680 1.390 . S
C2676 H2744 0.930 . S
C2677 C2676 1.346 . S
C2677 N2678 1.342 . S
C2677 C2682 1.516 . S
N2678 C2675 1.327 . S
N2678 C2677 1.342 . S
N2678 Co2681 1.864 . S
C2679 C2675 1.407 . S
C2679 C2680 1.364 . S
C2679 H2745 0.930 . S
C2680 C2676 1.390 . S
C2680 C2679 1.364 . S
C2680 H2746 0.931 . S
Co2681 N2678 1.864 . S
Co2681 N2697 1.955 . S
Co2681 N2698 1.958 . S
Co2681 N2699 1.953 . S
Co2681 N2717 1.869 . S
Co2681 N2723 1.974 . S
C2682 C2677 1.516 . S
C2682 O2683 1.238 . S
C2682 N2698 1.324 . S
O2683 C2682 1.238 . S
C2684 C2685 1.394 . S
C2684 C2689 1.395 . S
C2684 N2698 1.427 . S
C2685 C2684 1.394 . S
C2685 C2686 1.380 . S
C2685 H2747 0.929 . S
C2686 C2685 1.380 . S
C2686 C2687 1.384 . S
C2686 C2690 1.495 . S
C2687 C2686 1.384 . S
C2687 C2688 1.382 . S
C2687 H2748 0.930 . S
C2688 C2687 1.382 . S
C2688 C2689 1.398 . S
C2689 C2684 1.395 . S
C2689 C2688 1.398 . S
C2689 H2749 0.930 . S
C2690 C2686 1.495 . S
C2690 O2737 1.258 . S
C2690 O2738 1.274 . S
C2691 C2692 1.385 . S
C2691 C2693 1.381 . S
C2691 N2697 1.432 . S
C2692 C2691 1.385 . S
C2692 C2696 1.388 . S
C2692 H2750 0.929 . S
C2693 C2691 1.381 . S
C2693 C2694 1.371 . S
C2693 H2751 0.932 . S
C2694 C2693 1.371 . S
C2694 C2695 1.400 . S
C2695 C2694 1.400 . S
C2695 C2696 1.351 . S
C2695 H2752 0.930 . S
C2696 C2692 1.388 . S
C2696 C2695 1.351 . S
N2697 C2672 1.329 . S
N2697 Co2681 1.955 . S
N2697 C2691 1.432 . S
N2698 Co2681 1.958 . S
N2698 C2682 1.324 . S
N2698 C2684 1.427 . S
N2699 Co2681 1.953 . S
N2699 C2700 1.436 . S
N2699 C2726 1.316 . S
C2700 N2699 1.436 . S
C2700 C2701 1.421 . S
C2700 C2702 1.360 . S
C2701 C2700 1.421 . S
C2701 C2703 1.379 . S
C2701 H2704 0.929 . S
C2702 C2700 1.360 . S
C2702 C2706 1.393 . S
C2702 H2708 0.931 . S
C2703 C2701 1.379 . S
C2703 C2705 1.417 . S
C2703 C2707 1.505 . S
H2704 C2701 0.929 . S
C2705 C2703 1.417 . S
C2705 C2706 1.352 . S
C2705 H2709 0.929 . S
C2706 C2702 1.393 . S
C2706 C2705 1.352 . S
C2706 C2710 1.482 . S
C2707 C2703 1.505 . S
C2707 O2711 1.259 . S
C2707 O2712 1.229 . S
H2708 C2702 0.931 . S
H2709 C2705 0.929 . S
C2710 C2706 1.482 . S
C2710 O2713 1.207 . S
C2710 O2714 1.289 . S
O2711 C2707 1.259 . S
O2711 H2715 0.822 . S
O2712 C2707 1.229 . S
O2713 C2710 1.207 . S
O2714 C2710 1.289 . S
O2714 H2716 0.819 . S
H2715 O2711 0.822 . S
H2716 O2714 0.819 . S
N2717 Co2681 1.869 . S
N2717 C2718 1.330 . S
N2717 C2722 1.325 . S
C2718 N2717 1.330 . S
C2718 C2719 1.359 . S
C2718 C2724 1.504 . S
C2719 C2718 1.359 . S
C2719 C2720 1.366 . S
C2719 H2753 0.929 . S
C2720 C2719 1.366 . S
C2720 C2721 1.415 . S
C2720 H2754 0.932 . S
C2721 C2720 1.415 . S
C2721 C2722 1.366 . S
C2721 H2755 0.931 . S
C2722 N2717 1.325 . S
C2722 C2721 1.366 . S
C2722 C2726 1.516 . S
N2723 Co2681 1.974 . S
N2723 C2724 1.309 . S
N2723 C2729 1.423 . S
C2724 C2718 1.504 . S
C2724 N2723 1.309 . S
C2724 O2725 1.258 . S
O2725 C2724 1.258 . S
C2726 N2699 1.316 . S
C2726 C2722 1.516 . S
C2726 O2739 1.263 . S
O2727 Cd2670 2.350 . S
O2727 C2743 1.270 . S
O2728 Cd2670 2.277 . S
O2728 C2743 1.248 . S
C2729 N2723 1.423 . S
C2729 C2730 1.370 . S
C2729 C2734 1.403 . S
C2730 C2729 1.370 . S
C2730 C2731 1.389 . S
C2730 H2756 0.931 . S
C2731 C2730 1.389 . S
C2731 C2732 1.389 . S
C2732 C2731 1.389 . S
C2732 C2733 1.379 . S
C2732 H2757 0.929 . S
C2733 C2732 1.379 . S
C2733 C2734 1.405 . S
C2734 C2729 1.403 . S
C2734 C2733 1.405 . S
C2734 H2758 0.932 . S
O2735 Cd2670 2.173 . S
O2735 C2671 1.277 . S
O2736 C2671 1.230 . S
O2736 Cd2674 2.250 . S
O2737 Cd2670 2.263 . S
O2737 C2690 1.258 . S
O2738 Cd2674 2.308 . S
O2738 C2690 1.274 . S
O2739 Cd2670 2.366 . S
O2739 C2726 1.263 . S
C2740 O2741 1.235 . S
C2740 O2742 1.270 . S
O2741 Cd2674 2.352 . S
O2741 C2740 1.235 . S
O2742 Cd2670 2.329 . S
O2742 C2740 1.270 . S
C2743 O2727 1.270 . S
C2743 O2728 1.248 . S
H2744 C2676 0.930 . S
H2745 C2679 0.930 . S
H2746 C2680 0.931 . S
H2747 C2685 0.929 . S
H2748 C2687 0.930 . S
H2749 C2689 0.930 . S
H2750 C2692 0.929 . S
H2751 C2693 0.932 . S
H2752 C2695 0.930 . S
H2753 C2719 0.929 . S
H2754 C2720 0.932 . S
H2755 C2721 0.931 . S
H2756 C2730 0.931 . S
H2757 C2732 0.929 . S
H2758 C2734 0.932 . S
Cd2759 O2816 2.350 . S
Cd2759 O2817 2.277 . S
Cd2759 O2824 2.173 . S
Cd2759 O2826 2.263 . S
Cd2759 O2828 2.366 . S
Cd2759 O2831 2.329 . S
C2760 O2824 1.277 . S
C2760 O2825 1.230 . S
C2761 O2762 1.246 . S
C2761 C2764 1.481 . S
C2761 N2786 1.329 . S
O2762 C2761 1.246 . S
Cd2763 O2825 2.250 . S
Cd2763 O2827 2.308 . S
Cd2763 O2830 2.352 . S
C2764 C2761 1.481 . S
C2764 N2767 1.327 . S
C2764 C2768 1.407 . S
C2765 C2766 1.346 . S
C2765 C2769 1.390 . S
C2765 H2833 0.930 . S
C2766 C2765 1.346 . S
C2766 N2767 1.342 . S
C2766 C2771 1.516 . S
N2767 C2764 1.327 . S
N2767 C2766 1.342 . S
N2767 Co2770 1.864 . S
C2768 C2764 1.407 . S
C2768 C2769 1.364 . S
C2768 H2834 0.930 . S
C2769 C2765 1.390 . S
C2769 C2768 1.364 . S
C2769 H2835 0.931 . S
Co2770 N2767 1.864 . S
Co2770 N2786 1.955 . S
Co2770 N2787 1.958 . S
Co2770 N2788 1.953 . S
Co2770 N2806 1.869 . S
Co2770 N2812 1.974 . S
C2771 C2766 1.516 . S
C2771 O2772 1.238 . S
C2771 N2787 1.324 . S
O2772 C2771 1.238 . S
C2773 C2774 1.394 . S
C2773 C2778 1.395 . S
C2773 N2787 1.427 . S
C2774 C2773 1.394 . S
C2774 C2775 1.380 . S
C2774 H2836 0.929 . S
C2775 C2774 1.380 . S
C2775 C2776 1.384 . S
C2775 C2779 1.495 . S
C2776 C2775 1.384 . S
C2776 C2777 1.382 . S
C2776 H2837 0.930 . S
C2777 C2776 1.382 . S
C2777 C2778 1.398 . S
C2778 C2773 1.395 . S
C2778 C2777 1.398 . S
C2778 H2838 0.930 . S
C2779 C2775 1.495 . S
C2779 O2826 1.258 . S
C2779 O2827 1.274 . S
C2780 C2781 1.385 . S
C2780 C2782 1.381 . S
C2780 N2786 1.432 . S
C2781 C2780 1.385 . S
C2781 C2785 1.388 . S
C2781 H2839 0.929 . S
C2782 C2780 1.381 . S
C2782 C2783 1.371 . S
C2782 H2840 0.932 . S
C2783 C2782 1.371 . S
C2783 C2784 1.400 . S
C2784 C2783 1.400 . S
C2784 C2785 1.351 . S
C2784 H2841 0.930 . S
C2785 C2781 1.388 . S
C2785 C2784 1.351 . S
N2786 C2761 1.329 . S
N2786 Co2770 1.955 . S
N2786 C2780 1.432 . S
N2787 Co2770 1.958 . S
N2787 C2771 1.324 . S
N2787 C2773 1.427 . S
N2788 Co2770 1.953 . S
N2788 C2789 1.436 . S
N2788 C2815 1.316 . S
C2789 N2788 1.436 . S
C2789 C2790 1.421 . S
C2789 C2791 1.360 . S
C2790 C2789 1.421 . S
C2790 C2792 1.379 . S
C2790 H2793 0.929 . S
C2791 C2789 1.360 . S
C2791 C2795 1.393 . S
C2791 H2797 0.931 . S
C2792 C2790 1.379 . S
C2792 C2794 1.417 . S
C2792 C2796 1.505 . S
H2793 C2790 0.929 . S
C2794 C2792 1.417 . S
C2794 C2795 1.352 . S
C2794 H2798 0.929 . S
C2795 C2791 1.393 . S
C2795 C2794 1.352 . S
C2795 C2799 1.482 . S
C2796 C2792 1.505 . S
C2796 O2800 1.259 . S
C2796 O2801 1.229 . S
H2797 C2791 0.931 . S
H2798 C2794 0.929 . S
C2799 C2795 1.482 . S
C2799 O2802 1.207 . S
C2799 O2803 1.289 . S
O2800 C2796 1.259 . S
O2800 H2804 0.822 . S
O2801 C2796 1.229 . S
O2802 C2799 1.207 . S
O2803 C2799 1.289 . S
O2803 H2805 0.819 . S
H2804 O2800 0.822 . S
H2805 O2803 0.819 . S
N2806 Co2770 1.869 . S
N2806 C2807 1.330 . S
N2806 C2811 1.325 . S
C2807 N2806 1.330 . S
C2807 C2808 1.359 . S
C2807 C2813 1.504 . S
C2808 C2807 1.359 . S
C2808 C2809 1.366 . S
C2808 H2842 0.929 . S
C2809 C2808 1.366 . S
C2809 C2810 1.415 . S
C2809 H2843 0.932 . S
C2810 C2809 1.415 . S
C2810 C2811 1.366 . S
C2810 H2844 0.931 . S
C2811 N2806 1.325 . S
C2811 C2810 1.366 . S
C2811 C2815 1.516 . S
N2812 Co2770 1.974 . S
N2812 C2813 1.309 . S
N2812 C2818 1.423 . S
C2813 C2807 1.504 . S
C2813 N2812 1.309 . S
C2813 O2814 1.258 . S
O2814 C2813 1.258 . S
C2815 N2788 1.316 . S
C2815 C2811 1.516 . S
C2815 O2828 1.263 . S
O2816 Cd2759 2.350 . S
O2816 C2832 1.270 . S
O2817 Cd2759 2.277 . S
O2817 C2832 1.248 . S
C2818 N2812 1.423 . S
C2818 C2819 1.370 . S
C2818 C2823 1.403 . S
C2819 C2818 1.370 . S
C2819 C2820 1.389 . S
C2819 H2845 0.931 . S
C2820 C2819 1.389 . S
C2820 C2821 1.389 . S
C2821 C2820 1.389 . S
C2821 C2822 1.379 . S
C2821 H2846 0.929 . S
C2822 C2821 1.379 . S
C2822 C2823 1.405 . S
C2823 C2818 1.403 . S
C2823 C2822 1.405 . S
C2823 H2847 0.932 . S
O2824 Cd2759 2.173 . S
O2824 C2760 1.277 . S
O2825 C2760 1.230 . S
O2825 Cd2763 2.250 . S
O2826 Cd2759 2.263 . S
O2826 C2779 1.258 . S
O2827 Cd2763 2.308 . S
O2827 C2779 1.274 . S
O2828 Cd2759 2.366 . S
O2828 C2815 1.263 . S
C2829 O2830 1.235 . S
C2829 O2831 1.270 . S
O2830 Cd2763 2.352 . S
O2830 C2829 1.235 . S
O2831 Cd2759 2.329 . S
O2831 C2829 1.270 . S
C2832 O2816 1.270 . S
C2832 O2817 1.248 . S
H2833 C2765 0.930 . S
H2834 C2768 0.930 . S
H2835 C2769 0.931 . S
H2836 C2774 0.929 . S
H2837 C2776 0.930 . S
H2838 C2778 0.930 . S
H2839 C2781 0.929 . S
H2840 C2782 0.932 . S
H2841 C2784 0.930 . S
H2842 C2808 0.929 . S
H2843 C2809 0.932 . S
H2844 C2810 0.931 . S
H2845 C2819 0.931 . S
H2846 C2821 0.929 . S
H2847 C2823 0.932 . S
C641 C18 0.711 . S
C374 C107 0.711 . S
C196 C463 0.711 . S
C285 C552 0.711 . S
C1353 C730 0.711 . S
C1086 C819 0.711 . S
C1175 C908 0.711 . S
C997 C1264 0.711 . S
C2065 C1442 0.711 . S
C1531 C1798 0.711 . S
C1887 C1620 0.711 . S
C1976 C1709 0.711 . S
C2154 C2777 0.711 . S
C2510 C2243 0.711 . S
C2599 C2332 0.711 . S
C2421 C2688 0.711 . S
C61 C337 2.279 1_554 S
C70 C150 2.279 . S
C159 C239 2.279 . S
C248 C328 2.279 . S
C515 C417 2.279 . S
C506 C604 2.279 . S
C693 C595 2.279 1_554 S
C684 C426 2.279 . S
C773 C1049 2.279 1_556 S
C862 C782 2.279 . S
C951 C871 2.279 . S
C1040 C960 2.279 . S
C1129 C1227 2.279 . S
C1218 C1316 2.279 . S
C1307 C1405 2.279 1_554 S
C1396 C1138 2.279 . S
C1761 C1485 2.279 . S
C1494 C1574 2.279 . S
C1583 C1663 2.279 1_556 S
C1672 C1752 2.279 . S
C1841 C1939 2.279 1_556 S
C2028 C1930 2.279 . S
C2019 C2117 2.279 . S
C2108 C1850 2.279 . S
C2197 C2473 2.279 . S
C2286 C2206 2.279 . S
C2375 C2295 2.279 1_556 S
C2464 C2384 2.279 . S
C2553 C2651 2.279 1_554 S
C2740 C2642 2.279 . S
C2731 C2829 2.279 . S
C2562 C2820 2.279 . S
C73 C2251 2.393 . S
C916 C162 2.393 . S
C2429 C251 2.393 . S
C738 C340 2.393 . S
C2785 C429 2.393 . S
C518 C1094 2.393 . S
C607 C2607 2.393 . S
C1272 C696 2.393 . S
C1539 C785 2.393 . S
C204 C874 2.393 . S
C963 C1717 2.393 . S
C26 C1052 2.393 . S
C2073 C1141 2.393 . S
C1230 C382 2.393 . S
C1895 C1319 2.393 . S
C560 C1408 2.393 . S
C1497 C827 2.393 . S
C1586 C2340 2.393 . S
C1005 C1675 2.393 . S
C2162 C1764 2.393 . S
C1361 C1853 2.393 . S
C2518 C1942 2.393 . S
C1183 C2031 2.393 . S
C2696 C2120 2.393 . S
C2209 C115 2.393 . S
C2298 C1628 2.393 . S
C293 C2387 2.393 . S
C2476 C1450 2.393 . S
C649 C2565 2.393 . S
C1806 C2654 2.393 . S
C2743 C471 2.393 . S
C2832 C1984 2.393 . S
C357 C1 3.598 1_565 S
C90 C446 3.598 . S
C179 C535 3.598 1_565 S
C624 C268 3.598 1_554 S
C713 C1069 3.598 1_565 S
C1158 C802 3.598 . S
C891 C1247 3.598 1_545 S
C980 C1336 3.598 1_554 S
C1781 C1425 3.598 . S
C1870 C1514 3.598 1_554 S
C1603 C1959 3.598 . S
C1692 C2048 3.598 . S
C2137 C2493 3.598 . S
C2226 C2582 3.598 1_554 S
C2315 C2671 3.598 . S
C2760 C2404 3.598 . S
C63 C775 2.978 1_564 S
C2288 C152 2.978 . S
C241 C953 2.978 1_445 S
C2466 C330 2.978 . S
C419 C1131 2.978 1_545 S
C508 C2644 2.978 . S
C1309 C597 2.978 1_644 S
C686 C2822 2.978 . S
C1576 C864 2.978 . S
C1754 C1042 2.978 . S
C1220 C1932 2.978 . S
C1398 C2110 2.978 . S
C2199 C1487 2.978 1_455 S
C2377 C1665 2.978 1_556 S
C2555 C1843 2.978 1_454 S
C2021 C2733 2.978 . S
