# Generated by pormake.
# Topology una, (4)-cn, num edge types: 1
# Building blocks:
#     Node 0, Type 0, BuildingBlock: KUFVIS_clean_sbu_0, # of connection points: 4
#     Node 1, Type 0, BuildingBlock: KUFVIS_clean_sbu_0, # of connection points: 4
#     Node 2, Type 0, BuildingBlock: KUFVIS_clean_sbu_0, # of connection points: 4
#     Node 3, Type 0, BuildingBlock: KUFVIS_clean_sbu_0, # of connection points: 4
#     Node 4, Type 0, BuildingBlock: KUFVIS_clean_sbu_0, # of connection points: 4
#     Node 5, Type 0, BuildingBlock: KUFVIS_clean_sbu_0, # of connection points: 4
#     Node 6, Type 0, BuildingBlock: KUFVIS_clean_sbu_0, # of connection points: 4
#     Node 7, Type 0, BuildingBlock: KUFVIS_clean_sbu_0, # of connection points: 4
#     Node 8, Type 0, BuildingBlock: KUFVIS_clean_sbu_0, # of connection points: 4
#     Node 9, Type 0, BuildingBlock: KUFVIS_clean_sbu_0, # of connection points: 4
#     Node 10, Type 0, BuildingBlock: KUFVIS_clean_sbu_0, # of connection points: 4
#     Node 11, Type 0, BuildingBlock: KUFVIS_clean_sbu_0, # of connection points: 4
#     Edge 12, Type (0, 0), BuildingBlock: EYOCIG_clean_linker_4, # of connection points: 2
#     Edge 13, Type (0, 0), BuildingBlock: EYOCIG_clean_linker_4, # of connection points: 2
#     Edge 14, Type (0, 0), BuildingBlock: EYOCIG_clean_linker_4, # of connection points: 2
#     Edge 15, Type (0, 0), BuildingBlock: EYOCIG_clean_linker_4, # of connection points: 2
#     Edge 16, Type (0, 0), BuildingBlock: EYOCIG_clean_linker_4, # of connection points: 2
#     Edge 17, Type (0, 0), BuildingBlock: EYOCIG_clean_linker_4, # of connection points: 2
#     Edge 18, Type (0, 0), BuildingBlock: EYOCIG_clean_linker_4, # of connection points: 2
#     Edge 19, Type (0, 0), BuildingBlock: EYOCIG_clean_linker_4, # of connection points: 2
#     Edge 20, Type (0, 0), BuildingBlock: EYOCIG_clean_linker_4, # of connection points: 2
#     Edge 21, Type (0, 0), BuildingBlock: EYOCIG_clean_linker_4, # of connection points: 2
#     Edge 22, Type (0, 0), BuildingBlock: EYOCIG_clean_linker_4, # of connection points: 2
#     Edge 23, Type (0, 0), BuildingBlock: EYOCIG_clean_linker_4, # of connection points: 2
#     Edge 24, Type (0, 0), BuildingBlock: EYOCIG_clean_linker_4, # of connection points: 2
#     Edge 25, Type (0, 0), BuildingBlock: EYOCIG_clean_linker_4, # of connection points: 2
#     Edge 26, Type (0, 0), BuildingBlock: EYOCIG_clean_linker_4, # of connection points: 2
#     Edge 27, Type (0, 0), BuildingBlock: EYOCIG_clean_linker_4, # of connection points: 2
#     Edge 28, Type (0, 0), BuildingBlock: EYOCIG_clean_linker_4, # of connection points: 2
#     Edge 29, Type (0, 0), BuildingBlock: EYOCIG_clean_linker_4, # of connection points: 2
#     Edge 30, Type (0, 0), BuildingBlock: EYOCIG_clean_linker_4, # of connection points: 2
#     Edge 31, Type (0, 0), BuildingBlock: EYOCIG_clean_linker_4, # of connection points: 2
#     Edge 32, Type (0, 0), BuildingBlock: EYOCIG_clean_linker_4, # of connection points: 2
#     Edge 33, Type (0, 0), BuildingBlock: EYOCIG_clean_linker_4, # of connection points: 2
#     Edge 34, Type (0, 0), BuildingBlock: EYOCIG_clean_linker_4, # of connection points: 2
#     Edge 35, Type (0, 0), BuildingBlock: EYOCIG_clean_linker_4, # of connection points: 2
# Relax obj value: 0.032
# Max RMSD: 0.075
# Mean RMSD: 0.075
data_MOF--net-una--node1-KUFVIS_clean_sbu_0--edge1-EYOCIG_clean_linker_4
_symmetry_space_group_name_H-M    P1
_symmetry_Int_Tables_number       1
_symmetry_cell_setting            triclinic
loop_
_symmetry_equiv_pos_as_xyz
'x, y, z'
_cell_length_a     45.132936
_cell_length_b     45.152603
_cell_length_c     17.489601
_cell_angle_alpha  89.971441
_cell_angle_beta   90.018964
_cell_angle_gamma 120.0132
loop_
_atom_site_label
_atom_site_type_symbol
_atom_site_fract_x
_atom_site_fract_y
_atom_site_fract_z
_atom_type_partial_charge
Mn0 Mn 0.15885 0.45149 0.04368 0.0
Mn1 Mn 0.15667 0.48882 0.8777 0.0
C2 C 0.18178 0.44287 0.93489 0.0
C3 C 0.18757 0.45386 0.15607 0.0
C4 C 0.09529 0.42612 0.94319 0.0
O5 O 0.14826 0.48815 0.07832 0.0
O6 O 0.15155 0.51425 0.96554 0.0
C7 C 0.21983 0.55616 0.89046 0.0
N8 N 0.20124 0.52576 0.8535 0.0
C9 C 0.24302 0.54344 0.75274 0.0
C10 C 0.26209 0.57525 0.78869 0.0
C11 C 0.25071 0.58148 0.85833 0.0
C12 C 0.21224 0.51936 0.78691 0.0
H13 H 0.21087 0.56126 0.94334 0.0
C14 C 0.14776 0.51154 0.03838 0.0
O15 O 0.15478 0.43335 0.14999 0.0
O16 O 0.20315 0.47404 0.09928 0.0
N17 N 0.16183 0.46681 0.78913 0.0
C18 C 0.13966 0.43535 0.75988 0.0
C19 C 0.14788 0.42477 0.69155 0.0
C20 C 0.17857 0.44676 0.65347 0.0
C21 C 0.20083 0.47913 0.6842 0.0
C22 C 0.1914 0.48818 0.75285 0.0
H23 H 0.11591 0.41839 0.78851 0.0
O24 O 0.17342 0.42171 0.99157 0.0
O25 O 0.17678 0.4686 0.94361 0.0
O26 O 0.10977 0.42211 1.00197 0.0
O27 O 0.11011 0.45069 0.89581 0.0
C28 C 0.23209 0.50269 0.64971 0.0
C29 C 0.25309 0.53491 0.68374 0.0
H30 H 0.28543 0.59516 0.76305 0.0
H31 H 0.26548 0.6059 0.88665 0.0
H32 H 0.13054 0.39976 0.66814 0.0
H33 H 0.18482 0.43851 0.60075 0.0
H34 H 0.24015 0.49634 0.59686 0.0
H35 H 0.27693 0.55294 0.65635 0.0
Mn36 Mn 0.718 0.15311 0.21074 0.0
Mn37 Mn 0.67847 0.15103 0.04486 0.0
C38 C 0.74956 0.17611 0.10195 0.0
C39 C 0.74436 0.18176 0.32316 0.0
C40 C 0.67982 0.08965 0.11011 0.0
O41 O 0.67072 0.14249 0.24548 0.0
O42 O 0.64792 0.14587 0.13277 0.0
C43 C 0.67427 0.21415 0.05781 0.0
N44 N 0.68609 0.19559 0.02078 0.0
C45 C 0.71016 0.2374 0.92005 0.0
C46 C 0.6974 0.25643 0.95607 0.0
C47 C 0.67979 0.24501 0.02574 0.0
C48 C 0.70348 0.20662 0.95417 0.0
H49 H 0.6602 0.20516 0.11071 0.0
C50 C 0.64683 0.14204 0.2056 0.0
O51 O 0.73209 0.14898 0.31701 0.0
O52 O 0.73975 0.19736 0.26643 0.0
N53 N 0.70565 0.15625 0.95624 0.0
C54 C 0.71496 0.13411 0.9269 0.0
C55 C 0.73376 0.14237 0.85855 0.0
C56 C 0.74245 0.17307 0.82052 0.0
C57 C 0.73231 0.19528 0.85135 0.0
C58 C 0.71384 0.18582 0.92002 0.0
H59 H 0.70818 0.11036 0.95548 0.0
O60 O 0.76237 0.16772 0.15857 0.0
O61 O 0.71882 0.1711 0.11073 0.0
O62 O 0.6983 0.10407 0.16891 0.0
O63 O 0.67004 0.10448 0.06284 0.0
C64 C 0.74 0.22654 0.81692 0.0
C65 C 0.72876 0.2475 0.85102 0.0
H66 H 0.70078 0.27975 0.93046 0.0
H67 H 0.67011 0.25975 0.05411 0.0
H68 H 0.74144 0.12506 0.83507 0.0
H69 H 0.75694 0.17934 0.76778 0.0
H70 H 0.75442 0.23463 0.76405 0.0
H71 H 0.73454 0.27133 0.82368 0.0
Mn72 Mn 0.57555 0.7126 0.37689 0.0
Mn73 Mn 0.53802 0.67298 0.21118 0.0
C74 C 0.58407 0.74407 0.26795 0.0
C75 C 0.57331 0.73904 0.4892 0.0
C76 C 0.60079 0.67436 0.27639 0.0
O77 O 0.53888 0.66537 0.41184 0.0
O78 O 0.51266 0.64249 0.29923 0.0
C79 C 0.47067 0.66876 0.22421 0.0
N80 N 0.50104 0.68057 0.18711 0.0
C81 C 0.48325 0.70456 0.08632 0.0
C82 C 0.45146 0.69182 0.12243 0.0
C83 C 0.4453 0.67425 0.19215 0.0
C84 C 0.50738 0.69792 0.12045 0.0
H85 H 0.46561 0.65473 0.27716 0.0
C86 C 0.51543 0.64145 0.37207 0.0
O87 O 0.59381 0.72675 0.48308 0.0
O88 O 0.55307 0.73439 0.43251 0.0
N89 N 0.55995 0.7001 0.12243 0.0
C90 C 0.59139 0.70938 0.09302 0.0
C91 C 0.60191 0.72815 0.0246 0.0
C92 C 0.57988 0.73681 0.98658 0.0
C93 C 0.54752 0.72669 0.01748 0.0
C94 C 0.53854 0.70826 0.08622 0.0
H95 H 0.60839 0.70263 0.1216 0.0
O96 O 0.6053 0.75691 0.3245 0.0
O97 O 0.55833 0.71336 0.27688 0.0
O98 O 0.60487 0.69287 0.33512 0.0
O99 O 0.57617 0.66457 0.22914 0.0
C100 C 0.52392 0.73435 0.98305 0.0
C101 C 0.49172 0.72311 0.01723 0.0
H102 H 0.4315 0.69518 0.09683 0.0
H103 H 0.42088 0.66459 0.22058 0.0
H104 H 0.6269 0.73581 1.00106 0.0
H105 H 0.58807 0.75126 0.93377 0.0
H106 H 0.53022 0.74872 0.93013 0.0
H107 H 0.47364 0.72887 0.98988 0.0
Mn108 Mn 0.87344 0.56977 0.54375 0.0
Mn109 Mn 0.87555 0.53238 0.3779 0.0
C110 C 0.85047 0.57836 0.4349 0.0
C111 C 0.84476 0.56746 0.65613 0.0
C112 C 0.93696 0.59509 0.4432 0.0
O113 O 0.88402 0.5331 0.57853 0.0
O114 O 0.88066 0.50696 0.46585 0.0
C115 C 0.81237 0.46506 0.39082 0.0
N116 N 0.83096 0.49545 0.35378 0.0
C117 C 0.78917 0.47776 0.25302 0.0
C118 C 0.77009 0.44596 0.28905 0.0
C119 C 0.78149 0.43974 0.35873 0.0
C120 C 0.81996 0.50184 0.28716 0.0
H121 H 0.82133 0.45996 0.44373 0.0
C122 C 0.88448 0.50968 0.53868 0.0
O123 O 0.87755 0.58796 0.64999 0.0
O124 O 0.82915 0.54726 0.5994 0.0
N125 N 0.87038 0.55438 0.28925 0.0
C126 C 0.89255 0.58583 0.25993 0.0
C127 C 0.88433 0.59641 0.19156 0.0
C128 C 0.85363 0.57442 0.1535 0.0
C129 C 0.83137 0.54205 0.18432 0.0
C130 C 0.8408 0.53302 0.25301 0.0
H131 H 0.91631 0.60279 0.28853 0.0
O132 O 0.85887 0.59955 0.49151 0.0
O133 O 0.85547 0.55264 0.44373 0.0
O134 O 0.92252 0.59913 0.50196 0.0
O135 O 0.92213 0.5705 0.39592 0.0
C136 C 0.8001 0.5185 0.14987 0.0
C137 C 0.7791 0.48629 0.18397 0.0
H138 H 0.74676 0.42604 0.26344 0.0
H139 H 0.76671 0.41532 0.38711 0.0
H140 H 0.90167 0.62141 0.16809 0.0
H141 H 0.84738 0.58266 0.10075 0.0
H142 H 0.79203 0.52484 0.09698 0.0
H143 H 0.75526 0.46825 0.15661 0.0
Mn144 Mn 0.31428 0.8679 0.71005 0.0
Mn145 Mn 0.35382 0.87011 0.54415 0.0
C146 C 0.28273 0.84497 0.60121 0.0
C147 C 0.28789 0.83918 0.82241 0.0
C148 C 0.35247 0.93144 0.60957 0.0
O149 O 0.36156 0.87849 0.74479 0.0
O150 O 0.38437 0.87523 0.63205 0.0
C151 C 0.35804 0.807 0.55698 0.0
N152 N 0.34621 0.82558 0.51998 0.0
C153 C 0.32213 0.78382 0.41921 0.0
C154 C 0.33489 0.76477 0.45521 0.0
C155 C 0.3525 0.77615 0.52488 0.0
C156 C 0.32881 0.81458 0.45337 0.0
H157 H 0.37211 0.81596 0.60988 0.0
C158 C 0.38547 0.87901 0.70488 0.0
O159 O 0.30018 0.87196 0.81631 0.0
O160 O 0.29251 0.82361 0.76567 0.0
N161 N 0.32663 0.86495 0.45553 0.0
C162 C 0.31732 0.8871 0.42624 0.0
C163 C 0.29851 0.87888 0.35789 0.0
C164 C 0.28982 0.84821 0.31981 0.0
C165 C 0.29997 0.82598 0.35059 0.0
C166 C 0.31845 0.8354 0.41926 0.0
H167 H 0.3241 0.91083 0.45486 0.0
O168 O 0.26991 0.85333 0.65784 0.0
O169 O 0.31346 0.84998 0.61 0.0
O170 O 0.33398 0.91697 0.66833 0.0
O171 O 0.36223 0.91665 0.56222 0.0
C172 C 0.29228 0.79474 0.31612 0.0
C173 C 0.30352 0.77376 0.35018 0.0
H174 H 0.33149 0.74146 0.42958 0.0
H175 H 0.36218 0.76139 0.55322 0.0
H176 H 0.29083 0.89621 0.33445 0.0
H177 H 0.27533 0.84197 0.26707 0.0
H178 H 0.27786 0.78668 0.26325 0.0
H179 H 0.29773 0.74994 0.32281 0.0
Mn180 Mn 0.45685 0.30864 0.87671 0.0
Mn181 Mn 0.49421 0.34826 0.71085 0.0
C182 C 0.44824 0.27716 0.76781 0.0
C183 C 0.4592 0.28222 0.98902 0.0
C184 C 0.43149 0.34686 0.77637 0.0
O185 O 0.49354 0.35588 0.9115 0.0
O186 O 0.51965 0.37875 0.79879 0.0
C187 C 0.56157 0.35247 0.72354 0.0
N188 N 0.53116 0.34067 0.68658 0.0
C189 C 0.54884 0.31666 0.5857 0.0
C190 C 0.58066 0.32939 0.62166 0.0
C191 C 0.5869 0.34697 0.69136 0.0
C192 C 0.52475 0.32331 0.61994 0.0
H193 H 0.56669 0.36651 0.77647 0.0
C194 C 0.51694 0.3798 0.87163 0.0
O195 O 0.43869 0.29449 0.98297 0.0
O196 O 0.4794 0.28687 0.93224 0.0
N197 N 0.47218 0.32113 0.62221 0.0
C198 C 0.4407 0.31184 0.59297 0.0
C199 C 0.43011 0.29307 0.52459 0.0
C200 C 0.4521 0.28441 0.48644 0.0
C201 C 0.48449 0.29453 0.51718 0.0
C202 C 0.49355 0.31297 0.58587 0.0
H203 H 0.42374 0.3186 0.62164 0.0
O204 O 0.42706 0.26432 0.82445 0.0
O205 O 0.47397 0.30788 0.77663 0.0
O206 O 0.42747 0.32834 0.83509 0.0
O207 O 0.45607 0.35666 0.72902 0.0
C208 C 0.50805 0.28687 0.48263 0.0
C209 C 0.54029 0.29809 0.51665 0.0
H210 H 0.60059 0.32601 0.59597 0.0
H211 H 0.61134 0.35662 0.71967 0.0
H212 H 0.40509 0.28541 0.50118 0.0
H213 H 0.44384 0.26995 0.43368 0.0
H214 H 0.50169 0.27248 0.42973 0.0
H215 H 0.55833 0.29232 0.48922 0.0
Mn216 Mn 0.57559 0.86809 0.88317 0.0
Mn217 Mn 0.53812 0.87015 0.04897 0.0
C218 C 0.58413 0.8451 0.99202 0.0
C219 C 0.57333 0.83945 0.77079 0.0
C220 C 0.60087 0.93156 0.98376 0.0
O221 O 0.53891 0.87867 0.84833 0.0
O222 O 0.51272 0.87528 0.961 0.0
C223 C 0.47076 0.80701 0.03599 0.0
N224 N 0.50116 0.82558 0.07305 0.0
C225 C 0.4834 0.78379 0.17382 0.0
C226 C 0.4516 0.76475 0.13777 0.0
C227 C 0.44541 0.77615 0.06807 0.0
C228 C 0.50752 0.81456 0.13968 0.0
H229 H 0.46568 0.81599 0.98308 0.0
C230 C 0.51547 0.87911 0.88817 0.0
O231 O 0.59383 0.87223 0.77695 0.0
O232 O 0.55309 0.82384 0.82748 0.0
N233 N 0.56009 0.86495 0.13764 0.0
C234 C 0.59155 0.8871 0.167 0.0
C235 C 0.6021 0.87886 0.23538 0.0
C236 C 0.58008 0.84817 0.27342 0.0
C237 C 0.54771 0.82594 0.24257 0.0
C238 C 0.5387 0.83538 0.17386 0.0
H239 H 0.60853 0.91085 0.13841 0.0
O240 O 0.60536 0.85352 0.93545 0.0
O241 O 0.5584 0.85009 0.98317 0.0
O242 O 0.60493 0.91714 0.925 0.0
O243 O 0.57625 0.91671 0.03101 0.0
C244 C 0.52412 0.79468 0.27701 0.0
C245 C 0.4919 0.77371 0.24288 0.0
H246 H 0.43165 0.74143 0.16339 0.0
H247 H 0.42098 0.7614 0.03969 0.0
H248 H 0.6271 0.89619 0.25888 0.0
H249 H 0.5883 0.84191 0.32619 0.0
H250 H 0.53044 0.7866 0.32991 0.0
H251 H 0.47384 0.74988 0.27024 0.0
Mn252 Mn 0.71794 0.5698 0.0501 0.0
Mn253 Mn 0.67834 0.5324 0.21594 0.0
C254 C 0.74945 0.57837 0.15899 0.0
C255 C 0.74434 0.56749 0.93778 0.0
C256 C 0.67973 0.59512 0.15051 0.0
O257 O 0.67067 0.53314 0.01529 0.0
O258 O 0.64782 0.507 0.12798 0.0
C259 C 0.67412 0.46507 0.20316 0.0
N260 N 0.68593 0.49545 0.24016 0.0
C261 C 0.70998 0.47774 0.341 0.0
C262 C 0.69723 0.44594 0.305 0.0
C263 C 0.67964 0.43974 0.2353 0.0
C264 C 0.70331 0.50183 0.3068 0.0
H265 H 0.66007 0.45998 0.15023 0.0
C266 C 0.64675 0.50972 0.05514 0.0
O267 O 0.73207 0.588 0.94385 0.0
O268 O 0.7397 0.54728 0.99454 0.0
N269 N 0.70549 0.55438 0.3046 0.0
C270 C 0.71479 0.58582 0.33388 0.0
C271 C 0.73358 0.59639 0.40227 0.0
C272 C 0.74225 0.57439 0.44038 0.0
C273 C 0.73212 0.54202 0.4096 0.0
C274 C 0.71367 0.533 0.3409 0.0
H275 H 0.70802 0.60279 0.30524 0.0
O276 O 0.76229 0.59956 0.10237 0.0
O277 O 0.71872 0.55265 0.15016 0.0
O278 O 0.69824 0.59916 0.09178 0.0
O279 O 0.66993 0.57053 0.19783 0.0
C280 C 0.7398 0.51846 0.44412 0.0
C281 C 0.72856 0.48625 0.41006 0.0
H282 H 0.70062 0.42602 0.33066 0.0
H283 H 0.66998 0.41532 0.20696 0.0
H284 H 0.74125 0.62138 0.42571 0.0
H285 H 0.75673 0.58262 0.49315 0.0
H286 H 0.75419 0.52479 0.49702 0.0
H287 H 0.73434 0.46821 0.43746 0.0
Mn288 Mn 0.15872 0.71244 0.21662 0.0
Mn289 Mn 0.15661 0.67289 0.38249 0.0
C290 C 0.18169 0.74396 0.32544 0.0
C291 C 0.18741 0.73881 0.10422 0.0
C292 C 0.0952 0.67422 0.31718 0.0
O293 O 0.14812 0.66519 0.18187 0.0
O294 O 0.15148 0.64238 0.29456 0.0
C295 C 0.21978 0.66874 0.36956 0.0
N296 N 0.20119 0.68052 0.4066 0.0
C297 C 0.243 0.7046 0.50733 0.0
C298 C 0.26207 0.69188 0.47129 0.0
C299 C 0.25066 0.67428 0.40163 0.0
C300 C 0.21221 0.6979 0.4732 0.0
H301 H 0.2108 0.65468 0.31667 0.0
C302 C 0.14766 0.6413 0.22173 0.0
O303 O 0.15462 0.72654 0.11035 0.0
O304 O 0.20301 0.7342 0.16097 0.0
N305 N 0.16179 0.70003 0.47112 0.0
C306 C 0.13962 0.70931 0.50045 0.0
C307 C 0.14786 0.7281 0.56881 0.0
C308 C 0.17857 0.7368 0.60684 0.0
C309 C 0.20082 0.72669 0.57602 0.0
C310 C 0.19137 0.70823 0.50735 0.0
H311 H 0.11586 0.70252 0.47186 0.0
O312 O 0.1733 0.75677 0.26881 0.0
O313 O 0.17669 0.71324 0.31664 0.0
O314 O 0.10965 0.69272 0.25841 0.0
O315 O 0.11003 0.66445 0.36447 0.0
C316 C 0.23209 0.73439 0.61046 0.0
C317 C 0.25308 0.72318 0.57636 0.0
H318 H 0.28541 0.69529 0.49689 0.0
H319 H 0.26543 0.66464 0.37325 0.0
H320 H 0.13052 0.73575 0.59228 0.0
H321 H 0.18482 0.75127 0.65959 0.0
H322 H 0.24017 0.74879 0.66333 0.0
H323 H 0.27693 0.72898 0.6037 0.0
Mn324 Mn 0.45688 0.15322 0.38343 0.0
Mn325 Mn 0.49425 0.15116 0.54945 0.0
C326 C 0.44824 0.17618 0.49212 0.0
C327 C 0.45921 0.18186 0.27093 0.0
C328 C 0.43156 0.08974 0.48412 0.0
O329 O 0.49358 0.14265 0.34886 0.0
O330 O 0.5197 0.14603 0.46165 0.0
C331 C 0.56158 0.21433 0.53653 0.0
N332 N 0.53118 0.19574 0.57353 0.0
C333 C 0.54884 0.23755 0.67415 0.0
C334 C 0.58066 0.25662 0.63816 0.0
C335 C 0.5869 0.24521 0.56857 0.0
C336 C 0.52477 0.20676 0.64006 0.0
H337 H 0.5667 0.20535 0.48369 0.0
C338 C 0.517 0.1422 0.38883 0.0
O339 O 0.43871 0.14908 0.27711 0.0
O340 O 0.4794 0.19747 0.32768 0.0
N341 N 0.47222 0.15635 0.63798 0.0
C342 C 0.44075 0.13418 0.66726 0.0
C343 C 0.43015 0.14243 0.73554 0.0
C344 C 0.45213 0.17313 0.77354 0.0
C345 C 0.48451 0.19537 0.74276 0.0
C346 C 0.49357 0.18593 0.67417 0.0
H347 H 0.42379 0.11043 0.6387 0.0
O348 O 0.42706 0.16777 0.43546 0.0
O349 O 0.47399 0.17121 0.48345 0.0
O350 O 0.42752 0.10417 0.42528 0.0
O351 O 0.45613 0.10459 0.53148 0.0
C352 C 0.50806 0.22665 0.77716 0.0
C353 C 0.54029 0.24764 0.7431 0.0
H354 H 0.60057 0.27996 0.66374 0.0
H355 H 0.61134 0.25998 0.54023 0.0
H356 H 0.40513 0.12509 0.75898 0.0
H357 H 0.44387 0.17939 0.82622 0.0
H358 H 0.5017 0.23473 0.82997 0.0
H359 H 0.55832 0.27149 0.77041 0.0
Mn360 Mn 0.31435 0.45152 0.55033 0.0
Mn361 Mn 0.35386 0.48883 0.71628 0.0
C362 C 0.28278 0.44289 0.65911 0.0
C363 C 0.288 0.45389 0.43792 0.0
C364 C 0.3525 0.42614 0.65089 0.0
O365 O 0.36164 0.48819 0.51566 0.0
O366 O 0.38443 0.51427 0.62842 0.0
C367 C 0.35808 0.55616 0.70343 0.0
N368 N 0.34625 0.52576 0.74043 0.0
C369 C 0.32215 0.54343 0.84115 0.0
C370 C 0.33491 0.57524 0.80515 0.0
C371 C 0.35254 0.58148 0.73552 0.0
C372 C 0.32884 0.51936 0.80701 0.0
H373 H 0.37216 0.56128 0.65055 0.0
C374 C 0.38553 0.51158 0.55558 0.0
O375 O 0.30028 0.43338 0.44405 0.0
O376 O 0.29261 0.47407 0.49468 0.0
N377 N 0.32666 0.46681 0.80487 0.0
C378 C 0.31734 0.43535 0.83416 0.0
C379 C 0.29851 0.42475 0.90249 0.0
C380 C 0.28982 0.44673 0.94054 0.0
C381 C 0.29997 0.47911 0.90976 0.0
C382 C 0.31846 0.48817 0.84112 0.0
H383 H 0.32412 0.41839 0.80556 0.0
O384 O 0.26997 0.42173 0.60245 0.0
O385 O 0.31352 0.46861 0.65038 0.0
O386 O 0.33403 0.42214 0.59209 0.0
O387 O 0.36227 0.45071 0.69824 0.0
C388 C 0.29227 0.50266 0.94421 0.0
C389 C 0.30352 0.53488 0.91015 0.0
H390 H 0.3315 0.59515 0.83077 0.0
H391 H 0.36222 0.60591 0.70717 0.0
H392 H 0.29083 0.39974 0.92593 0.0
H393 H 0.27532 0.43848 0.99326 0.0
H394 H 0.27784 0.4963 0.99706 0.0
H395 H 0.29773 0.55291 0.9375 0.0
Mn396 Mn 0.87343 0.30868 0.71717 0.0
Mn397 Mn 0.8756 0.34823 0.88298 0.0
C398 C 0.85052 0.27717 0.82606 0.0
C399 C 0.84472 0.28226 0.60485 0.0
C400 C 0.93699 0.34693 0.81762 0.0
O401 O 0.88398 0.35592 0.68232 0.0
O402 O 0.88069 0.37874 0.79501 0.0
C403 C 0.81243 0.3524 0.87013 0.0
N404 N 0.83103 0.3406 0.90714 0.0
C405 C 0.78927 0.31655 0.00797 0.0
C406 C 0.7702 0.32929 0.97196 0.0
C407 C 0.78157 0.34688 0.90225 0.0
C408 C 0.82004 0.32323 0.97379 0.0
H409 H 0.82139 0.36646 0.8172 0.0
C410 C 0.88447 0.37981 0.72217 0.0
O411 O 0.87751 0.29458 0.61095 0.0
O412 O 0.82912 0.28687 0.66157 0.0
N413 N 0.87045 0.32109 0.97166 0.0
C414 C 0.89263 0.31181 1.00098 0.0
C415 C 0.88441 0.29303 0.06937 0.0
C416 C 0.85372 0.28433 0.10745 0.0
C417 C 0.83147 0.29444 0.07663 0.0
C418 C 0.84088 0.31289 0.00793 0.0
H419 H 0.91637 0.31859 0.97236 0.0
O420 O 0.8589 0.26437 0.76946 0.0
O421 O 0.85549 0.30788 0.81721 0.0
O422 O 0.92252 0.32843 0.75887 0.0
O423 O 0.92216 0.35668 0.86494 0.0
C424 C 0.80021 0.28675 0.11112 0.0
C425 C 0.77921 0.29797 0.07704 0.0
H426 H 0.74688 0.3259 0.99761 0.0
H427 H 0.76681 0.35654 0.8739 0.0
H428 H 0.90176 0.28537 0.09284 0.0
H429 H 0.84749 0.26986 0.16022 0.0
H430 H 0.79215 0.27236 0.16402 0.0
H431 H 0.75539 0.29219 0.10443 0.0
C432 C 0.22568 0.45239 0.26911 0.0
C433 C 0.20702 0.45198 0.21912 0.0
C434 C 0.24842 0.4524 0.32487 0.0
C435 C 0.26668 0.452 0.37487 0.0
C436 C 0.80664 0.24259 0.49193 0.0
C437 C 0.82528 0.26089 0.54187 0.0
C438 C 0.78392 0.21983 0.43622 0.0
C439 C 0.76568 0.20117 0.38624 0.0
C440 C 0.57489 0.77867 0.60212 0.0
C441 C 0.57525 0.76039 0.5522 0.0
C442 C 0.57489 0.80141 0.65781 0.0
C443 C 0.57526 0.82004 0.70776 0.0
C444 C 0.80669 0.56899 0.76912 0.0
C445 C 0.82533 0.56938 0.71915 0.0
C446 C 0.78395 0.569 0.82483 0.0
C447 C 0.76568 0.56939 0.87477 0.0
C448 C 0.24826 0.80109 0.9354 0.0
C449 C 0.26653 0.81973 0.88543 0.0
C450 C 0.2255 0.77837 0.99115 0.0
C451 C 0.20684 0.76013 0.04114 0.0
C452 C 0.45771 0.21989 0.15777 0.0
C453 C 0.45731 0.20126 0.20781 0.0
C454 C 0.45771 0.24261 0.102 0.0
C455 C 0.45732 0.26088 0.05203 0.0
C456 C 0.14224 0.55992 0.11085 0.0
C457 C 0.14475 0.53776 0.07808 0.0
C458 C 0.14221 0.58745 0.14919 0.0
C459 C 0.14469 0.61211 0.18195 0.0
C460 C 0.59296 0.13661 0.27817 0.0
C461 C 0.61762 0.13908 0.24537 0.0
C462 C 0.56542 0.13666 0.31649 0.0
C463 C 0.54324 0.13917 0.34917 0.0
C464 C 0.43947 0.56002 0.48313 0.0
C465 C 0.41478 0.53783 0.51587 0.0
C466 C 0.46704 0.58759 0.44478 0.0
C467 C 0.48922 0.61225 0.41195 0.0
C468 C 0.88994 0.46126 0.61123 0.0
C469 C 0.88746 0.48344 0.57847 0.0
C470 C 0.88993 0.43369 0.64958 0.0
C471 C 0.88745 0.40903 0.68238 0.0
C472 C 0.43941 0.88453 0.77734 0.0
C473 C 0.41472 0.88202 0.74461 0.0
C474 C 0.46701 0.88456 0.81564 0.0
C475 C 0.48922 0.88208 0.84838 0.0
C476 C 0.56534 0.4337 0.94419 0.0
C477 C 0.54317 0.40903 0.91141 0.0
C478 C 0.59289 0.46128 0.98255 0.0
C479 C 0.61754 0.48347 0.01534 0.0
C480 C 0.24154 0.4393 0.7689 0.0
C481 C 0.26085 0.44145 0.7193 0.0
C482 C 0.21943 0.4393 0.82508 0.0
C483 C 0.20227 0.44144 0.87468 0.0
C484 C 0.79078 0.21384 0.99216 0.0
C485 C 0.77148 0.19664 0.04176 0.0
C486 C 0.81289 0.23596 0.93597 0.0
C487 C 0.83004 0.25526 0.88632 0.0
C488 C 0.58757 0.78524 0.15802 0.0
C489 C 0.58545 0.76595 0.20767 0.0
C490 C 0.5876 0.80736 0.10182 0.0
C491 C 0.5855 0.82456 0.05222 0.0
C492 C 0.81277 0.58188 0.32509 0.0
C493 C 0.82995 0.57976 0.37469 0.0
C494 C 0.79065 0.58188 0.26889 0.0
C495 C 0.77135 0.57976 0.21925 0.0
C496 C 0.21938 0.78516 0.43525 0.0
C497 C 0.2022 0.76586 0.38565 0.0
C498 C 0.2415 0.80728 0.49142 0.0
C499 C 0.2608 0.82446 0.54101 0.0
C500 C 0.44468 0.23601 0.65791 0.0
C501 C 0.44682 0.25529 0.70754 0.0
C502 C 0.44468 0.21389 0.60175 0.0
C503 C 0.44681 0.19671 0.55222 0.0
C504 C 0.03232 0.38398 0.89851 0.0
C505 C 0.06056 0.40115 0.9252 0.0
C506 C 0.99997 0.3678 0.86233 0.0
C507 C 0.97172 0.35671 0.83563 0.0
C508 C 0.64294 0.99448 0.02873 0.0
C509 C 0.62582 0.96627 1.00188 0.0
C510 C 0.65905 0.02676 0.0651 0.0
C511 C 0.6701 0.05496 0.09195 0.0
C512 C 0.65897 0.63728 0.1953 0.0
C513 C 0.67001 0.62011 0.16856 0.0
C514 C 0.64285 0.65347 0.23155 0.0
C515 C 0.62574 0.66458 0.25833 0.0
C516 C 0.03224 0.65336 0.36205 0.0
C517 C 0.06047 0.66445 0.33526 0.0
C518 C 0.99992 0.6372 0.39833 0.0
C519 C 0.97169 0.62005 0.42511 0.0
C520 C 0.38948 0.02676 0.52883 0.0
C521 C 0.40662 0.05501 0.50214 0.0
C522 C 0.37331 0.99441 0.56494 0.0
C523 C 0.36224 0.96617 0.5916 0.0
C524 C 0.37327 0.38397 0.69563 0.0
C525 C 0.36222 0.40116 0.66892 0.0
C526 C 0.38939 0.36776 0.73178 0.0
C527 C 0.40653 0.35664 0.75845 0.0
loop_
_geom_bond_atom_site_label_1
_geom_bond_atom_site_label_2
_geom_bond_distance
_geom_bond_site_symmetry_2
_ccdc_geom_bond_type
Mn0 O5 2.095 . S
Mn0 O15 2.162 . S
Mn0 O16 2.297 . S
Mn0 O24 2.385 1_554 S
Mn0 O25 2.209 1_554 S
Mn0 O26 2.094 . S
Mn1 O6 2.121 . S
Mn1 N8 2.257 . S
Mn1 N17 2.282 . S
Mn1 O25 2.215 . S
Mn1 O27 2.117 . S
C2 O24 1.234 . S
C2 O25 1.283 . S
C3 O15 1.281 . S
C3 O16 1.236 . S
C4 O26 1.240 1_556 S
C4 O27 1.264 . S
O5 Mn0 2.095 . S
O5 C14 1.250 . S
O6 Mn1 2.121 . S
O6 C14 1.258 1_556 S
C7 N8 1.326 . S
C7 C11 1.460 . S
C7 H13 0.929 . S
N8 Mn1 2.257 . S
N8 C7 1.326 . S
N8 C12 1.362 . S
C9 C10 1.258 . S
C9 C12 1.431 . S
C9 C29 1.449 . S
C10 C9 1.258 . S
C10 C11 1.477 . S
C10 H30 0.931 . S
C11 C7 1.460 . S
C11 C10 1.477 . S
C11 H31 0.930 . S
C12 N8 1.362 . S
C12 C9 1.431 . S
C12 C22 1.476 . S
H13 C7 0.929 . S
C14 O5 1.250 . S
C14 O6 1.258 1_554 S
O15 Mn0 2.162 . S
O15 C3 1.281 . S
O16 Mn0 2.297 . S
O16 C3 1.236 . S
N17 Mn1 2.282 . S
N17 C18 1.328 . S
N17 C22 1.318 . S
C18 N17 1.328 . S
C18 C19 1.457 . S
C18 H23 0.929 . S
C19 C18 1.457 . S
C19 C20 1.291 . S
C19 H32 0.931 . S
C20 C19 1.291 . S
C20 C21 1.373 . S
C20 H33 0.929 . S
C21 C20 1.373 . S
C21 C22 1.396 . S
C21 C28 1.403 . S
C22 C12 1.476 . S
C22 N17 1.318 . S
C22 C21 1.396 . S
H23 C18 0.929 . S
O24 Mn0 2.385 1_556 S
O24 C2 1.234 . S
O25 Mn0 2.209 1_556 S
O25 Mn1 2.215 . S
O25 C2 1.283 . S
O26 Mn0 2.094 . S
O26 C4 1.240 1_554 S
O27 Mn1 2.117 . S
O27 C4 1.264 . S
C28 C21 1.403 . S
C28 C29 1.399 . S
C28 H34 0.929 . S
C29 C9 1.449 . S
C29 C28 1.399 . S
C29 H35 0.930 . S
H30 C10 0.931 . S
H31 C11 0.930 . S
H32 C19 0.931 . S
H33 C20 0.929 . S
H34 C28 0.929 . S
H35 C29 0.930 . S
Mn36 O41 2.095 . S
Mn36 O51 2.162 . S
Mn36 O52 2.297 . S
Mn36 O60 2.385 . S
Mn36 O61 2.209 . S
Mn36 O62 2.094 . S
Mn37 O42 2.121 . S
Mn37 N44 2.257 1_554 S
Mn37 N53 2.282 1_554 S
Mn37 O61 2.215 . S
Mn37 O63 2.117 . S
C38 O60 1.234 . S
C38 O61 1.283 . S
C39 O51 1.281 . S
C39 O52 1.236 . S
C40 O62 1.240 . S
C40 O63 1.264 . S
O41 Mn36 2.095 . S
O41 C50 1.250 . S
O42 Mn37 2.121 . S
O42 C50 1.258 . S
C43 N44 1.326 1_554 S
C43 C47 1.460 1_554 S
C43 H49 0.929 . S
N44 Mn37 2.257 1_556 S
N44 C43 1.326 1_556 S
N44 C48 1.362 . S
C45 C46 1.258 . S
C45 C48 1.431 . S
C45 C65 1.449 . S
C46 C45 1.258 . S
C46 C47 1.477 . S
C46 H66 0.931 . S
C47 C43 1.460 1_556 S
C47 C46 1.477 . S
C47 H67 0.930 . S
C48 N44 1.362 . S
C48 C45 1.431 . S
C48 C58 1.476 . S
H49 C43 0.929 . S
C50 O41 1.250 . S
C50 O42 1.258 . S
O51 Mn36 2.162 . S
O51 C39 1.281 . S
O52 Mn36 2.297 . S
O52 C39 1.236 . S
N53 Mn37 2.282 1_556 S
N53 C54 1.328 . S
N53 C58 1.318 . S
C54 N53 1.328 . S
C54 C55 1.457 . S
C54 H59 0.929 . S
C55 C54 1.457 . S
C55 C56 1.291 . S
C55 H68 0.931 . S
C56 C55 1.291 . S
C56 C57 1.373 . S
C56 H69 0.929 . S
C57 C56 1.373 . S
C57 C58 1.396 . S
C57 C64 1.403 . S
C58 C48 1.476 . S
C58 N53 1.318 . S
C58 C57 1.396 . S
H59 C54 0.929 . S
O60 Mn36 2.385 . S
O60 C38 1.234 . S
O61 Mn36 2.209 . S
O61 Mn37 2.215 . S
O61 C38 1.283 . S
O62 Mn36 2.094 . S
O62 C40 1.240 . S
O63 Mn37 2.117 . S
O63 C40 1.264 . S
C64 C57 1.403 . S
C64 C65 1.399 . S
C64 H70 0.929 . S
C65 C45 1.449 . S
C65 C64 1.399 . S
C65 H71 0.930 . S
H66 C46 0.931 . S
H67 C47 0.930 . S
H68 C55 0.931 . S
H69 C56 0.929 . S
H70 C64 0.929 . S
H71 C65 0.930 . S
Mn72 O77 2.095 . S
Mn72 O87 2.162 . S
Mn72 O88 2.297 . S
Mn72 O96 2.385 . S
Mn72 O97 2.209 . S
Mn72 O98 2.094 . S
Mn73 O78 2.121 . S
Mn73 N80 2.257 . S
Mn73 N89 2.282 . S
Mn73 O97 2.215 . S
Mn73 O99 2.117 . S
C74 O96 1.234 . S
C74 O97 1.283 . S
C75 O87 1.281 . S
C75 O88 1.236 . S
C76 O98 1.240 . S
C76 O99 1.264 . S
O77 Mn72 2.095 . S
O77 C86 1.250 . S
O78 Mn73 2.121 . S
O78 C86 1.258 . S
C79 N80 1.326 . S
C79 C83 1.460 . S
C79 H85 0.929 . S
N80 Mn73 2.257 . S
N80 C79 1.326 . S
N80 C84 1.362 . S
C81 C82 1.258 . S
C81 C84 1.431 . S
C81 C101 1.449 1_554 S
C82 C81 1.258 . S
C82 C83 1.477 . S
C82 H102 0.931 . S
C83 C79 1.460 . S
C83 C82 1.477 . S
C83 H103 0.930 . S
C84 N80 1.362 . S
C84 C81 1.431 . S
C84 C94 1.476 . S
H85 C79 0.929 . S
C86 O77 1.250 . S
C86 O78 1.258 . S
O87 Mn72 2.162 . S
O87 C75 1.281 . S
O88 Mn72 2.297 . S
O88 C75 1.236 . S
N89 Mn73 2.282 . S
N89 C90 1.328 . S
N89 C94 1.318 . S
C90 N89 1.328 . S
C90 C91 1.457 . S
C90 H95 0.929 . S
C91 C90 1.457 . S
C91 C92 1.291 1_554 S
C91 H104 0.931 . S
C92 C91 1.291 1_556 S
C92 C93 1.373 . S
C92 H105 0.929 . S
C93 C92 1.373 . S
C93 C94 1.396 1_556 S
C93 C100 1.403 . S
C94 C84 1.476 . S
C94 N89 1.318 . S
C94 C93 1.396 1_554 S
H95 C90 0.929 . S
O96 Mn72 2.385 . S
O96 C74 1.234 . S
O97 Mn72 2.209 . S
O97 Mn73 2.215 . S
O97 C74 1.283 . S
O98 Mn72 2.094 . S
O98 C76 1.240 . S
O99 Mn73 2.117 . S
O99 C76 1.264 . S
C100 C93 1.403 . S
C100 C101 1.399 . S
C100 H106 0.929 . S
C101 C81 1.449 1_556 S
C101 C100 1.399 . S
C101 H107 0.930 . S
H102 C82 0.931 . S
H103 C83 0.930 . S
H104 C91 0.931 . S
H105 C92 0.929 . S
H106 C100 0.929 . S
H107 C101 0.930 . S
Mn108 O113 2.095 . S
Mn108 O123 2.162 . S
Mn108 O124 2.297 . S
Mn108 O132 2.385 . S
Mn108 O133 2.209 . S
Mn108 O134 2.094 . S
Mn109 O114 2.121 . S
Mn109 N116 2.257 . S
Mn109 N125 2.282 . S
Mn109 O133 2.215 . S
Mn109 O135 2.117 . S
C110 O132 1.234 . S
C110 O133 1.283 . S
C111 O123 1.281 . S
C111 O124 1.236 . S
C112 O134 1.240 . S
C112 O135 1.264 . S
O113 Mn108 2.095 . S
O113 C122 1.250 . S
O114 Mn109 2.121 . S
O114 C122 1.258 . S
C115 N116 1.326 . S
C115 C119 1.460 . S
C115 H121 0.929 . S
N116 Mn109 2.257 . S
N116 C115 1.326 . S
N116 C120 1.362 . S
C117 C118 1.258 . S
C117 C120 1.431 . S
C117 C137 1.449 . S
C118 C117 1.258 . S
C118 C119 1.477 . S
C118 H138 0.931 . S
C119 C115 1.460 . S
C119 C118 1.477 . S
C119 H139 0.930 . S
C120 N116 1.362 . S
C120 C117 1.431 . S
C120 C130 1.476 . S
H121 C115 0.929 . S
C122 O113 1.250 . S
C122 O114 1.258 . S
O123 Mn108 2.162 . S
O123 C111 1.281 . S
O124 Mn108 2.297 . S
O124 C111 1.236 . S
N125 Mn109 2.282 . S
N125 C126 1.328 . S
N125 C130 1.318 . S
C126 N125 1.328 . S
C126 C127 1.457 . S
C126 H131 0.929 . S
C127 C126 1.457 . S
C127 C128 1.291 . S
C127 H140 0.931 . S
C128 C127 1.291 . S
C128 C129 1.373 . S
C128 H141 0.929 . S
C129 C128 1.373 . S
C129 C130 1.396 . S
C129 C136 1.403 . S
C130 C120 1.476 . S
C130 N125 1.318 . S
C130 C129 1.396 . S
H131 C126 0.929 . S
O132 Mn108 2.385 . S
O132 C110 1.234 . S
O133 Mn108 2.209 . S
O133 Mn109 2.215 . S
O133 C110 1.283 . S
O134 Mn108 2.094 . S
O134 C112 1.240 . S
O135 Mn109 2.117 . S
O135 C112 1.264 . S
C136 C129 1.403 . S
C136 C137 1.399 . S
C136 H142 0.929 . S
C137 C117 1.449 . S
C137 C136 1.399 . S
C137 H143 0.930 . S
H138 C118 0.931 . S
H139 C119 0.930 . S
H140 C127 0.931 . S
H141 C128 0.929 . S
H142 C136 0.929 . S
H143 C137 0.930 . S
Mn144 O149 2.095 . S
Mn144 O159 2.162 . S
Mn144 O160 2.297 . S
Mn144 O168 2.385 . S
Mn144 O169 2.209 . S
Mn144 O170 2.094 . S
Mn145 O150 2.121 . S
Mn145 N152 2.257 . S
Mn145 N161 2.282 . S
Mn145 O169 2.215 . S
Mn145 O171 2.117 . S
C146 O168 1.234 . S
C146 O169 1.283 . S
C147 O159 1.281 . S
C147 O160 1.236 . S
C148 O170 1.240 . S
C148 O171 1.264 . S
O149 Mn144 2.095 . S
O149 C158 1.250 . S
O150 Mn145 2.121 . S
O150 C158 1.258 . S
C151 N152 1.326 . S
C151 C155 1.460 . S
C151 H157 0.929 . S
N152 Mn145 2.257 . S
N152 C151 1.326 . S
N152 C156 1.362 . S
C153 C154 1.258 . S
C153 C156 1.431 . S
C153 C173 1.449 . S
C154 C153 1.258 . S
C154 C155 1.477 . S
C154 H174 0.931 . S
C155 C151 1.460 . S
C155 C154 1.477 . S
C155 H175 0.930 . S
C156 N152 1.362 . S
C156 C153 1.431 . S
C156 C166 1.476 . S
H157 C151 0.929 . S
C158 O149 1.250 . S
C158 O150 1.258 . S
O159 Mn144 2.162 . S
O159 C147 1.281 . S
O160 Mn144 2.297 . S
O160 C147 1.236 . S
N161 Mn145 2.282 . S
N161 C162 1.328 . S
N161 C166 1.318 . S
C162 N161 1.328 . S
C162 C163 1.457 . S
C162 H167 0.929 . S
C163 C162 1.457 . S
C163 C164 1.291 . S
C163 H176 0.931 . S
C164 C163 1.291 . S
C164 C165 1.373 . S
C164 H177 0.929 . S
C165 C164 1.373 . S
C165 C166 1.396 . S
C165 C172 1.403 . S
C166 C156 1.476 . S
C166 N161 1.318 . S
C166 C165 1.396 . S
H167 C162 0.929 . S
O168 Mn144 2.385 . S
O168 C146 1.234 . S
O169 Mn144 2.209 . S
O169 Mn145 2.215 . S
O169 C146 1.283 . S
O170 Mn144 2.094 . S
O170 C148 1.240 . S
O171 Mn145 2.117 . S
O171 C148 1.264 . S
C172 C165 1.403 . S
C172 C173 1.399 . S
C172 H178 0.929 . S
C173 C153 1.449 . S
C173 C172 1.399 . S
C173 H179 0.930 . S
H174 C154 0.931 . S
H175 C155 0.930 . S
H176 C163 0.931 . S
H177 C164 0.929 . S
H178 C172 0.929 . S
H179 C173 0.930 . S
Mn180 O185 2.095 . S
Mn180 O195 2.162 . S
Mn180 O196 2.297 . S
Mn180 O204 2.385 . S
Mn180 O205 2.209 . S
Mn180 O206 2.094 . S
Mn181 O186 2.121 . S
Mn181 N188 2.257 . S
Mn181 N197 2.282 . S
Mn181 O205 2.215 . S
Mn181 O207 2.117 . S
C182 O204 1.234 . S
C182 O205 1.283 . S
C183 O195 1.281 . S
C183 O196 1.236 . S
C184 O206 1.240 . S
C184 O207 1.264 . S
O185 Mn180 2.095 . S
O185 C194 1.250 . S
O186 Mn181 2.121 . S
O186 C194 1.258 . S
C187 N188 1.326 . S
C187 C191 1.460 . S
C187 H193 0.929 . S
N188 Mn181 2.257 . S
N188 C187 1.326 . S
N188 C192 1.362 . S
C189 C190 1.258 . S
C189 C192 1.431 . S
C189 C209 1.449 . S
C190 C189 1.258 . S
C190 C191 1.477 . S
C190 H210 0.931 . S
C191 C187 1.460 . S
C191 C190 1.477 . S
C191 H211 0.930 . S
C192 N188 1.362 . S
C192 C189 1.431 . S
C192 C202 1.476 . S
H193 C187 0.929 . S
C194 O185 1.250 . S
C194 O186 1.258 . S
O195 Mn180 2.162 . S
O195 C183 1.281 . S
O196 Mn180 2.297 . S
O196 C183 1.236 . S
N197 Mn181 2.282 . S
N197 C198 1.328 . S
N197 C202 1.318 . S
C198 N197 1.328 . S
C198 C199 1.457 . S
C198 H203 0.929 . S
C199 C198 1.457 . S
C199 C200 1.291 . S
C199 H212 0.931 . S
C200 C199 1.291 . S
C200 C201 1.373 . S
C200 H213 0.929 . S
C201 C200 1.373 . S
C201 C202 1.396 . S
C201 C208 1.403 . S
C202 C192 1.476 . S
C202 N197 1.318 . S
C202 C201 1.396 . S
H203 C198 0.929 . S
O204 Mn180 2.385 . S
O204 C182 1.234 . S
O205 Mn180 2.209 . S
O205 Mn181 2.215 . S
O205 C182 1.283 . S
O206 Mn180 2.094 . S
O206 C184 1.240 . S
O207 Mn181 2.117 . S
O207 C184 1.264 . S
C208 C201 1.403 . S
C208 C209 1.399 . S
C208 H214 0.929 . S
C209 C189 1.449 . S
C209 C208 1.399 . S
C209 H215 0.930 . S
H210 C190 0.931 . S
H211 C191 0.930 . S
H212 C199 0.931 . S
H213 C200 0.929 . S
H214 C208 0.929 . S
H215 C209 0.930 . S
Mn216 O221 2.095 . S
Mn216 O231 2.162 . S
Mn216 O232 2.297 . S
Mn216 O240 2.385 . S
Mn216 O241 2.209 . S
Mn216 O242 2.094 . S
Mn217 O222 2.121 1_554 S
Mn217 N224 2.257 . S
Mn217 N233 2.282 . S
Mn217 O241 2.215 1_554 S
Mn217 O243 2.117 1_554 S
C218 O240 1.234 . S
C218 O241 1.283 . S
C219 O231 1.281 . S
C219 O232 1.236 . S
C220 O242 1.240 . S
C220 O243 1.265 . S
O221 Mn216 2.095 . S
O221 C230 1.250 . S
O222 Mn217 2.121 1_556 S
O222 C230 1.258 . S
C223 N224 1.326 . S
C223 C227 1.460 . S
C223 H229 0.929 . S
N224 Mn217 2.257 . S
N224 C223 1.326 . S
N224 C228 1.362 . S
C225 C226 1.258 . S
C225 C228 1.431 . S
C225 C245 1.449 . S
C226 C225 1.258 . S
C226 C227 1.477 . S
C226 H246 0.931 . S
C227 C223 1.460 . S
C227 C226 1.477 . S
C227 H247 0.930 . S
C228 N224 1.362 . S
C228 C225 1.431 . S
C228 C238 1.476 . S
H229 C223 0.929 . S
C230 O221 1.250 . S
C230 O222 1.258 . S
O231 Mn216 2.162 . S
O231 C219 1.281 . S
O232 Mn216 2.297 . S
O232 C219 1.236 . S
N233 Mn217 2.282 . S
N233 C234 1.328 . S
N233 C238 1.318 . S
C234 N233 1.328 . S
C234 C235 1.457 . S
C234 H239 0.929 . S
C235 C234 1.457 . S
C235 C236 1.291 . S
C235 H248 0.931 . S
C236 C235 1.291 . S
C236 C237 1.373 . S
C236 H249 0.929 . S
C237 C236 1.373 . S
C237 C238 1.396 . S
C237 C244 1.403 . S
C238 C228 1.476 . S
C238 N233 1.318 . S
C238 C237 1.396 . S
H239 C234 0.929 . S
O240 Mn216 2.385 . S
O240 C218 1.234 . S
O241 Mn216 2.209 . S
O241 Mn217 2.215 1_556 S
O241 C218 1.283 . S
O242 Mn216 2.094 . S
O242 C220 1.240 . S
O243 Mn217 2.117 1_556 S
O243 C220 1.265 . S
C244 C237 1.403 . S
C244 C245 1.399 . S
C244 H250 0.929 . S
C245 C225 1.449 . S
C245 C244 1.399 . S
C245 H251 0.930 . S
H246 C226 0.931 . S
H247 C227 0.930 . S
H248 C235 0.931 . S
H249 C236 0.929 . S
H250 C244 0.929 . S
H251 C245 0.930 . S
Mn252 O257 2.095 . S
Mn252 O267 2.162 1_554 S
Mn252 O268 2.297 1_554 S
Mn252 O276 2.385 . S
Mn252 O277 2.209 . S
Mn252 O278 2.094 . S
Mn253 O258 2.121 . S
Mn253 N260 2.257 . S
Mn253 N269 2.282 . S
Mn253 O277 2.215 . S
Mn253 O279 2.117 . S
C254 O276 1.234 . S
C254 O277 1.283 . S
C255 O267 1.281 . S
C255 O268 1.236 . S
C256 O278 1.240 . S
C256 O279 1.264 . S
O257 Mn252 2.095 . S
O257 C266 1.250 . S
O258 Mn253 2.121 . S
O258 C266 1.258 . S
C259 N260 1.326 . S
C259 C263 1.460 . S
C259 H265 0.929 . S
N260 Mn253 2.257 . S
N260 C259 1.326 . S
N260 C264 1.362 . S
C261 C262 1.258 . S
C261 C264 1.431 . S
C261 C281 1.449 . S
C262 C261 1.258 . S
C262 C263 1.477 . S
C262 H282 0.931 . S
C263 C259 1.460 . S
C263 C262 1.477 . S
C263 H283 0.930 . S
C264 N260 1.362 . S
C264 C261 1.431 . S
C264 C274 1.476 . S
H265 C259 0.929 . S
C266 O257 1.250 . S
C266 O258 1.258 . S
O267 Mn252 2.162 1_556 S
O267 C255 1.281 . S
O268 Mn252 2.297 1_556 S
O268 C255 1.236 . S
N269 Mn253 2.282 . S
N269 C270 1.328 . S
N269 C274 1.318 . S
C270 N269 1.328 . S
C270 C271 1.457 . S
C270 H275 0.929 . S
C271 C270 1.457 . S
C271 C272 1.291 . S
C271 H284 0.931 . S
C272 C271 1.291 . S
C272 C273 1.373 . S
C272 H285 0.929 . S
C273 C272 1.373 . S
C273 C274 1.396 . S
C273 C280 1.403 . S
C274 C264 1.476 . S
C274 N269 1.318 . S
C274 C273 1.396 . S
H275 C270 0.929 . S
O276 Mn252 2.385 . S
O276 C254 1.234 . S
O277 Mn252 2.209 . S
O277 Mn253 2.215 . S
O277 C254 1.283 . S
O278 Mn252 2.094 . S
O278 C256 1.240 . S
O279 Mn253 2.117 . S
O279 C256 1.264 . S
C280 C273 1.403 . S
C280 C281 1.399 . S
C280 H286 0.929 . S
C281 C261 1.449 . S
C281 C280 1.399 . S
C281 H287 0.930 . S
H282 C262 0.931 . S
H283 C263 0.930 . S
H284 C271 0.931 . S
H285 C272 0.929 . S
H286 C280 0.929 . S
H287 C281 0.930 . S
Mn288 O293 2.095 . S
Mn288 O303 2.162 . S
Mn288 O304 2.297 . S
Mn288 O312 2.385 . S
Mn288 O313 2.209 . S
Mn288 O314 2.094 . S
Mn289 O294 2.121 . S
Mn289 N296 2.257 . S
Mn289 N305 2.282 . S
Mn289 O313 2.215 . S
Mn289 O315 2.117 . S
C290 O312 1.234 . S
C290 O313 1.283 . S
C291 O303 1.281 . S
C291 O304 1.236 . S
C292 O314 1.240 . S
C292 O315 1.264 . S
O293 Mn288 2.095 . S
O293 C302 1.250 . S
O294 Mn289 2.121 . S
O294 C302 1.258 . S
C295 N296 1.326 . S
C295 C299 1.460 . S
C295 H301 0.929 . S
N296 Mn289 2.257 . S
N296 C295 1.326 . S
N296 C300 1.362 . S
C297 C298 1.258 . S
C297 C300 1.431 . S
C297 C317 1.449 . S
C298 C297 1.258 . S
C298 C299 1.477 . S
C298 H318 0.931 . S
C299 C295 1.460 . S
C299 C298 1.477 . S
C299 H319 0.930 . S
C300 N296 1.362 . S
C300 C297 1.431 . S
C300 C310 1.476 . S
H301 C295 0.929 . S
C302 O293 1.250 . S
C302 O294 1.258 . S
O303 Mn288 2.162 . S
O303 C291 1.281 . S
O304 Mn288 2.297 . S
O304 C291 1.236 . S
N305 Mn289 2.282 . S
N305 C306 1.328 . S
N305 C310 1.318 . S
C306 N305 1.328 . S
C306 C307 1.457 . S
C306 H311 0.929 . S
C307 C306 1.457 . S
C307 C308 1.291 . S
C307 H320 0.931 . S
C308 C307 1.291 . S
C308 C309 1.373 . S
C308 H321 0.929 . S
C309 C308 1.373 . S
C309 C310 1.396 . S
C309 C316 1.403 . S
C310 C300 1.476 . S
C310 N305 1.318 . S
C310 C309 1.396 . S
H311 C306 0.929 . S
O312 Mn288 2.385 . S
O312 C290 1.234 . S
O313 Mn288 2.209 . S
O313 Mn289 2.215 . S
O313 C290 1.283 . S
O314 Mn288 2.094 . S
O314 C292 1.240 . S
O315 Mn289 2.117 . S
O315 C292 1.264 . S
C316 C309 1.403 . S
C316 C317 1.399 . S
C316 H322 0.929 . S
C317 C297 1.449 . S
C317 C316 1.399 . S
C317 H323 0.930 . S
H318 C298 0.931 . S
H319 C299 0.930 . S
H320 C307 0.931 . S
H321 C308 0.929 . S
H322 C316 0.929 . S
H323 C317 0.930 . S
Mn324 O329 2.095 . S
Mn324 O339 2.162 . S
Mn324 O340 2.297 . S
Mn324 O348 2.385 . S
Mn324 O349 2.209 . S
Mn324 O350 2.094 . S
Mn325 O330 2.121 . S
Mn325 N332 2.257 . S
Mn325 N341 2.282 . S
Mn325 O349 2.215 . S
Mn325 O351 2.117 . S
C326 O348 1.234 . S
C326 O349 1.283 . S
C327 O339 1.281 . S
C327 O340 1.236 . S
C328 O350 1.240 . S
C328 O351 1.264 . S
O329 Mn324 2.095 . S
O329 C338 1.250 . S
O330 Mn325 2.121 . S
O330 C338 1.258 . S
C331 N332 1.326 . S
C331 C335 1.460 . S
C331 H337 0.929 . S
N332 Mn325 2.257 . S
N332 C331 1.326 . S
N332 C336 1.362 . S
C333 C334 1.258 . S
C333 C336 1.431 . S
C333 C353 1.449 . S
C334 C333 1.258 . S
C334 C335 1.477 . S
C334 H354 0.931 . S
C335 C331 1.460 . S
C335 C334 1.477 . S
C335 H355 0.930 . S
C336 N332 1.362 . S
C336 C333 1.431 . S
C336 C346 1.476 . S
H337 C331 0.929 . S
C338 O329 1.250 . S
C338 O330 1.258 . S
O339 Mn324 2.162 . S
O339 C327 1.281 . S
O340 Mn324 2.297 . S
O340 C327 1.236 . S
N341 Mn325 2.282 . S
N341 C342 1.328 . S
N341 C346 1.318 . S
C342 N341 1.328 . S
C342 C343 1.457 . S
C342 H347 0.929 . S
C343 C342 1.457 . S
C343 C344 1.291 . S
C343 H356 0.931 . S
C344 C343 1.291 . S
C344 C345 1.373 . S
C344 H357 0.929 . S
C345 C344 1.373 . S
C345 C346 1.396 . S
C345 C352 1.403 . S
C346 C336 1.476 . S
C346 N341 1.318 . S
C346 C345 1.396 . S
H347 C342 0.929 . S
O348 Mn324 2.385 . S
O348 C326 1.234 . S
O349 Mn324 2.209 . S
O349 Mn325 2.215 . S
O349 C326 1.283 . S
O350 Mn324 2.094 . S
O350 C328 1.240 . S
O351 Mn325 2.117 . S
O351 C328 1.264 . S
C352 C345 1.403 . S
C352 C353 1.399 . S
C352 H358 0.929 . S
C353 C333 1.449 . S
C353 C352 1.399 . S
C353 H359 0.930 . S
H354 C334 0.931 . S
H355 C335 0.930 . S
H356 C343 0.931 . S
H357 C344 0.929 . S
H358 C352 0.929 . S
H359 C353 0.930 . S
Mn360 O365 2.095 . S
Mn360 O375 2.162 . S
Mn360 O376 2.297 . S
Mn360 O384 2.385 . S
Mn360 O385 2.209 . S
Mn360 O386 2.094 . S
Mn361 O366 2.121 . S
Mn361 N368 2.257 . S
Mn361 N377 2.282 . S
Mn361 O385 2.215 . S
Mn361 O387 2.117 . S
C362 O384 1.234 . S
C362 O385 1.283 . S
C363 O375 1.281 . S
C363 O376 1.236 . S
C364 O386 1.240 . S
C364 O387 1.264 . S
O365 Mn360 2.095 . S
O365 C374 1.250 . S
O366 Mn361 2.121 . S
O366 C374 1.258 . S
C367 N368 1.326 . S
C367 C371 1.460 . S
C367 H373 0.929 . S
N368 Mn361 2.257 . S
N368 C367 1.326 . S
N368 C372 1.362 . S
C369 C370 1.258 . S
C369 C372 1.431 . S
C369 C389 1.449 . S
C370 C369 1.258 . S
C370 C371 1.477 . S
C370 H390 0.931 . S
C371 C367 1.460 . S
C371 C370 1.477 . S
C371 H391 0.930 . S
C372 N368 1.362 . S
C372 C369 1.431 . S
C372 C382 1.476 . S
H373 C367 0.929 . S
C374 O365 1.250 . S
C374 O366 1.258 . S
O375 Mn360 2.162 . S
O375 C363 1.281 . S
O376 Mn360 2.297 . S
O376 C363 1.236 . S
N377 Mn361 2.282 . S
N377 C378 1.328 . S
N377 C382 1.318 . S
C378 N377 1.328 . S
C378 C379 1.457 . S
C378 H383 0.929 . S
C379 C378 1.457 . S
C379 C380 1.291 . S
C379 H392 0.931 . S
C380 C379 1.291 . S
C380 C381 1.373 . S
C380 H393 0.929 . S
C381 C380 1.373 . S
C381 C382 1.396 . S
C381 C388 1.403 . S
C382 C372 1.476 . S
C382 N377 1.318 . S
C382 C381 1.396 . S
H383 C378 0.929 . S
O384 Mn360 2.385 . S
O384 C362 1.234 . S
O385 Mn360 2.209 . S
O385 Mn361 2.215 . S
O385 C362 1.283 . S
O386 Mn360 2.094 . S
O386 C364 1.240 . S
O387 Mn361 2.117 . S
O387 C364 1.264 . S
C388 C381 1.403 . S
C388 C389 1.399 . S
C388 H394 0.929 1_556 S
C389 C369 1.449 . S
C389 C388 1.399 . S
C389 H395 0.930 . S
H390 C370 0.931 . S
H391 C371 0.930 . S
H392 C379 0.931 . S
H393 C380 0.929 . S
H394 C388 0.929 1_554 S
H395 C389 0.930 . S
Mn396 O401 2.095 . S
Mn396 O411 2.162 . S
Mn396 O412 2.297 . S
Mn396 O420 2.385 . S
Mn396 O421 2.209 . S
Mn396 O422 2.094 . S
Mn397 O402 2.121 . S
Mn397 N404 2.257 . S
Mn397 N413 2.282 . S
Mn397 O421 2.215 . S
Mn397 O423 2.117 . S
C398 O420 1.234 . S
C398 O421 1.283 . S
C399 O411 1.281 . S
C399 O412 1.236 . S
C400 O422 1.240 . S
C400 O423 1.264 . S
O401 Mn396 2.095 . S
O401 C410 1.250 . S
O402 Mn397 2.121 . S
O402 C410 1.258 . S
C403 N404 1.326 . S
C403 C407 1.460 . S
C403 H409 0.929 . S
N404 Mn397 2.257 . S
N404 C403 1.326 . S
N404 C408 1.353 1_556 S
C405 C406 1.258 . S
C405 C408 1.438 . S
C405 C425 1.449 . S
C406 C405 1.258 . S
C406 C407 1.477 1_554 S
C406 H426 0.931 . S
C407 C403 1.460 . S
C407 C406 1.477 1_556 S
C407 H427 0.930 . S
C408 N404 1.353 1_554 S
C408 C405 1.438 . S
C408 C418 1.479 . S
H409 C403 0.929 . S
C410 O401 1.250 . S
C410 O402 1.258 . S
O411 Mn396 2.162 . S
O411 C399 1.281 . S
O412 Mn396 2.297 . S
O412 C399 1.236 . S
N413 Mn397 2.282 . S
N413 C414 1.328 . S
N413 C418 1.318 1_556 S
C414 N413 1.328 . S
C414 C415 1.457 1_556 S
C414 H419 0.929 . S
C415 C414 1.457 1_554 S
C415 C416 1.291 . S
C415 H428 0.931 . S
C416 C415 1.291 . S
C416 C417 1.373 . S
C416 H429 0.929 . S
C417 C416 1.373 . S
C417 C418 1.396 . S
C417 C424 1.403 . S
C418 C408 1.479 . S
C418 N413 1.318 1_554 S
C418 C417 1.396 . S
H419 C414 0.929 . S
O420 Mn396 2.385 . S
O420 C398 1.234 . S
O421 Mn396 2.209 . S
O421 Mn397 2.215 . S
O421 C398 1.283 . S
O422 Mn396 2.094 . S
O422 C400 1.240 . S
O423 Mn397 2.117 . S
O423 C400 1.264 . S
C424 C417 1.403 . S
C424 C425 1.399 . S
C424 H430 0.929 . S
C425 C405 1.449 . S
C425 C424 1.399 . S
C425 H431 0.930 . S
H426 C406 0.931 . S
H427 C407 0.930 . S
H428 C415 0.931 . S
H429 C416 0.929 . S
H430 C424 0.929 . S
H431 C425 0.930 . S
C432 C433 1.170 . S
C432 C434 1.380 . S
C433 C432 1.170 . S
C434 C432 1.380 . S
C434 C435 1.170 . S
C435 C434 1.170 . S
C436 C437 1.170 . S
C436 C438 1.380 . S
C437 C436 1.170 . S
C438 C436 1.380 . S
C438 C439 1.170 . S
C439 C438 1.170 . S
C440 C441 1.170 . S
C440 C442 1.380 . S
C441 C440 1.170 . S
C442 C440 1.380 . S
C442 C443 1.170 . S
C443 C442 1.170 . S
C444 C445 1.170 . S
C444 C446 1.380 . S
C445 C444 1.170 . S
C446 C444 1.380 . S
C446 C447 1.170 . S
C447 C446 1.170 . S
C448 C449 1.170 . S
C448 C450 1.380 . S
C449 C448 1.170 . S
C450 C448 1.380 . S
C450 C451 1.170 1_556 S
C451 C450 1.170 1_554 S
C452 C453 1.170 . S
C452 C454 1.380 . S
C453 C452 1.170 . S
C454 C452 1.380 . S
C454 C455 1.170 . S
C455 C454 1.170 . S
C456 C457 1.170 . S
C456 C458 1.380 . S
C457 C456 1.170 . S
C458 C456 1.380 . S
C458 C459 1.170 . S
C459 C458 1.170 . S
C460 C461 1.170 . S
C460 C462 1.380 . S
C461 C460 1.170 . S
C462 C460 1.380 . S
C462 C463 1.170 . S
C463 C462 1.170 . S
C464 C465 1.170 . S
C464 C466 1.380 . S
C465 C464 1.170 . S
C466 C464 1.380 . S
C466 C467 1.170 . S
C467 C466 1.170 . S
C468 C469 1.170 . S
C468 C470 1.380 . S
C469 C468 1.170 . S
C470 C468 1.380 . S
C470 C471 1.170 . S
C471 C470 1.170 . S
C472 C473 1.170 . S
C472 C474 1.380 . S
C473 C472 1.170 . S
C474 C472 1.380 . S
C474 C475 1.170 . S
C475 C474 1.170 . S
C476 C477 1.170 . S
C476 C478 1.380 . S
C477 C476 1.170 . S
C478 C476 1.380 . S
C478 C479 1.170 . S
C479 C478 1.170 . S
C480 C481 1.170 . S
C480 C482 1.380 . S
C481 C480 1.170 . S
C482 C480 1.380 . S
C482 C483 1.170 . S
C483 C482 1.170 . S
C484 C485 1.170 1_556 S
C484 C486 1.380 . S
C485 C484 1.170 1_554 S
C486 C484 1.380 . S
C486 C487 1.170 . S
C487 C486 1.170 . S
C488 C489 1.170 . S
C488 C490 1.380 . S
C489 C488 1.170 . S
C490 C488 1.380 . S
C490 C491 1.170 . S
C491 C490 1.170 . S
C492 C493 1.170 . S
C492 C494 1.380 . S
C493 C492 1.170 . S
C494 C492 1.380 . S
C494 C495 1.170 . S
C495 C494 1.170 . S
C496 C497 1.170 . S
C496 C498 1.380 . S
C497 C496 1.170 . S
C498 C496 1.380 . S
C498 C499 1.170 . S
C499 C498 1.170 . S
C500 C501 1.170 . S
C500 C502 1.380 . S
C501 C500 1.170 . S
C502 C500 1.380 . S
C502 C503 1.170 . S
C503 C502 1.170 . S
C504 C505 1.170 . S
C504 C506 1.380 1_455 S
C505 C504 1.170 . S
C506 C504 1.380 1_655 S
C506 C507 1.170 . S
C507 C506 1.170 . S
C508 C509 1.170 1_554 S
C508 C510 1.380 1_565 S
C509 C508 1.170 1_556 S
C510 C508 1.380 1_545 S
C510 C511 1.170 . S
C511 C510 1.170 . S
C512 C513 1.170 . S
C512 C514 1.380 . S
C513 C512 1.170 . S
C514 C512 1.380 . S
C514 C515 1.170 . S
C515 C514 1.170 . S
C516 C517 1.170 . S
C516 C518 1.380 1_455 S
C517 C516 1.170 . S
C518 C516 1.380 1_655 S
C518 C519 1.170 . S
C519 C518 1.170 . S
C520 C521 1.170 . S
C520 C522 1.380 1_545 S
C521 C520 1.170 . S
C522 C520 1.380 1_565 S
C522 C523 1.170 . S
C523 C522 1.170 . S
C524 C525 1.170 . S
C524 C526 1.380 . S
C525 C524 1.170 . S
C526 C524 1.380 . S
C526 C527 1.170 . S
C527 C526 1.170 . S
C433 C3 1.318 . S
C435 C363 1.320 . S
C437 C399 1.321 . S
C439 C39 1.328 . S
C441 C75 1.322 . S
C443 C219 1.329 . S
C445 C111 1.330 . S
C447 C255 1.324 . S
C449 C147 1.319 . S
C451 C291 1.326 . S
C453 C327 1.328 . S
C455 C183 1.320 1_554 S
C457 C14 1.524 . S
C459 C302 1.552 . S
C461 C50 1.553 . S
C463 C338 1.521 . S
C465 C374 1.522 . S
C467 C86 1.552 . S
C469 C122 1.537 . S
C471 C410 1.540 . S
C473 C158 1.521 . S
C475 C230 1.553 . S
C477 C194 1.529 . S
C479 C266 1.547 1_556 S
C481 C362 1.477 . S
C483 C2 1.468 . S
C485 C38 1.468 . S
C487 C398 1.468 . S
C489 C74 1.468 . S
C491 C218 1.469 1_554 S
C493 C110 1.482 . S
C495 C254 1.475 . S
C497 C290 1.481 . S
C499 C146 1.482 . S
C501 C182 1.473 . S
C503 C326 1.467 . S
C505 C4 1.372 . S
C507 C400 1.391 . S
C509 C220 1.407 . S
C511 C40 1.384 . S
C513 C256 1.407 . S
C515 C76 1.391 . S
C517 C292 1.379 . S
C519 C112 1.404 . S
C521 C328 1.372 . S
C523 C148 1.390 . S
C525 C364 1.389 . S
C527 C184 1.407 . S
