# Generated by pormake.
# Topology gme, (4)-cn, num edge types: 1
# Building blocks:
#     Node 0, Type 0, BuildingBlock: AZAVOO_clean_sbu_0, # of connection points: 4
#     Node 1, Type 0, BuildingBlock: AZAVOO_clean_sbu_0, # of connection points: 4
#     Node 2, Type 0, BuildingBlock: AZAVOO_clean_sbu_0, # of connection points: 4
#     Node 3, Type 0, BuildingBlock: AZAVOO_clean_sbu_0, # of connection points: 4
#     Node 4, Type 0, BuildingBlock: AZAVOO_clean_sbu_0, # of connection points: 4
#     Node 5, Type 0, BuildingBlock: AZAVOO_clean_sbu_0, # of connection points: 4
#     Node 6, Type 0, BuildingBlock: AZAVOO_clean_sbu_0, # of connection points: 4
#     Node 7, Type 0, BuildingBlock: AZAVOO_clean_sbu_0, # of connection points: 4
#     Node 8, Type 0, BuildingBlock: AZAVOO_clean_sbu_0, # of connection points: 4
#     Node 9, Type 0, BuildingBlock: AZAVOO_clean_sbu_0, # of connection points: 4
#     Node 10, Type 0, BuildingBlock: AZAVOO_clean_sbu_0, # of connection points: 4
#     Node 11, Type 0, BuildingBlock: AZAVOO_clean_sbu_0, # of connection points: 4
#     Node 12, Type 0, BuildingBlock: AZAVOO_clean_sbu_0, # of connection points: 4
#     Node 13, Type 0, BuildingBlock: AZAVOO_clean_sbu_0, # of connection points: 4
#     Node 14, Type 0, BuildingBlock: AZAVOO_clean_sbu_0, # of connection points: 4
#     Node 15, Type 0, BuildingBlock: AZAVOO_clean_sbu_0, # of connection points: 4
#     Node 16, Type 0, BuildingBlock: AZAVOO_clean_sbu_0, # of connection points: 4
#     Node 17, Type 0, BuildingBlock: AZAVOO_clean_sbu_0, # of connection points: 4
#     Node 18, Type 0, BuildingBlock: AZAVOO_clean_sbu_0, # of connection points: 4
#     Node 19, Type 0, BuildingBlock: AZAVOO_clean_sbu_0, # of connection points: 4
#     Node 20, Type 0, BuildingBlock: AZAVOO_clean_sbu_0, # of connection points: 4
#     Node 21, Type 0, BuildingBlock: AZAVOO_clean_sbu_0, # of connection points: 4
#     Node 22, Type 0, BuildingBlock: AZAVOO_clean_sbu_0, # of connection points: 4
#     Node 23, Type 0, BuildingBlock: AZAVOO_clean_sbu_0, # of connection points: 4
#     Edge 24, Type (0, 0), BuildingBlock: OJICUG_clean_linker_0, # of connection points: 2
#     Edge 25, Type (0, 0), BuildingBlock: OJICUG_clean_linker_0, # of connection points: 2
#     Edge 26, Type (0, 0), BuildingBlock: OJICUG_clean_linker_0, # of connection points: 2
#     Edge 27, Type (0, 0), BuildingBlock: OJICUG_clean_linker_0, # of connection points: 2
#     Edge 28, Type (0, 0), BuildingBlock: OJICUG_clean_linker_0, # of connection points: 2
#     Edge 29, Type (0, 0), BuildingBlock: OJICUG_clean_linker_0, # of connection points: 2
#     Edge 30, Type (0, 0), BuildingBlock: OJICUG_clean_linker_0, # of connection points: 2
#     Edge 31, Type (0, 0), BuildingBlock: OJICUG_clean_linker_0, # of connection points: 2
#     Edge 32, Type (0, 0), BuildingBlock: OJICUG_clean_linker_0, # of connection points: 2
#     Edge 33, Type (0, 0), BuildingBlock: OJICUG_clean_linker_0, # of connection points: 2
#     Edge 34, Type (0, 0), BuildingBlock: OJICUG_clean_linker_0, # of connection points: 2
#     Edge 35, Type (0, 0), BuildingBlock: OJICUG_clean_linker_0, # of connection points: 2
#     Edge 36, Type (0, 0), BuildingBlock: OJICUG_clean_linker_0, # of connection points: 2
#     Edge 37, Type (0, 0), BuildingBlock: OJICUG_clean_linker_0, # of connection points: 2
#     Edge 38, Type (0, 0), BuildingBlock: OJICUG_clean_linker_0, # of connection points: 2
#     Edge 39, Type (0, 0), BuildingBlock: OJICUG_clean_linker_0, # of connection points: 2
#     Edge 40, Type (0, 0), BuildingBlock: OJICUG_clean_linker_0, # of connection points: 2
#     Edge 41, Type (0, 0), BuildingBlock: OJICUG_clean_linker_0, # of connection points: 2
#     Edge 42, Type (0, 0), BuildingBlock: OJICUG_clean_linker_0, # of connection points: 2
#     Edge 43, Type (0, 0), BuildingBlock: OJICUG_clean_linker_0, # of connection points: 2
#     Edge 44, Type (0, 0), BuildingBlock: OJICUG_clean_linker_0, # of connection points: 2
#     Edge 45, Type (0, 0), BuildingBlock: OJICUG_clean_linker_0, # of connection points: 2
#     Edge 46, Type (0, 0), BuildingBlock: OJICUG_clean_linker_0, # of connection points: 2
#     Edge 47, Type (0, 0), BuildingBlock: OJICUG_clean_linker_0, # of connection points: 2
#     Edge 48, Type (0, 0), BuildingBlock: OJICUG_clean_linker_0, # of connection points: 2
#     Edge 49, Type (0, 0), BuildingBlock: OJICUG_clean_linker_0, # of connection points: 2
#     Edge 50, Type (0, 0), BuildingBlock: OJICUG_clean_linker_0, # of connection points: 2
#     Edge 51, Type (0, 0), BuildingBlock: OJICUG_clean_linker_0, # of connection points: 2
#     Edge 52, Type (0, 0), BuildingBlock: OJICUG_clean_linker_0, # of connection points: 2
#     Edge 53, Type (0, 0), BuildingBlock: OJICUG_clean_linker_0, # of connection points: 2
#     Edge 54, Type (0, 0), BuildingBlock: OJICUG_clean_linker_0, # of connection points: 2
#     Edge 55, Type (0, 0), BuildingBlock: OJICUG_clean_linker_0, # of connection points: 2
#     Edge 56, Type (0, 0), BuildingBlock: OJICUG_clean_linker_0, # of connection points: 2
#     Edge 57, Type (0, 0), BuildingBlock: OJICUG_clean_linker_0, # of connection points: 2
#     Edge 58, Type (0, 0), BuildingBlock: OJICUG_clean_linker_0, # of connection points: 2
#     Edge 59, Type (0, 0), BuildingBlock: OJICUG_clean_linker_0, # of connection points: 2
#     Edge 60, Type (0, 0), BuildingBlock: OJICUG_clean_linker_0, # of connection points: 2
#     Edge 61, Type (0, 0), BuildingBlock: OJICUG_clean_linker_0, # of connection points: 2
#     Edge 62, Type (0, 0), BuildingBlock: OJICUG_clean_linker_0, # of connection points: 2
#     Edge 63, Type (0, 0), BuildingBlock: OJICUG_clean_linker_0, # of connection points: 2
#     Edge 64, Type (0, 0), BuildingBlock: OJICUG_clean_linker_0, # of connection points: 2
#     Edge 65, Type (0, 0), BuildingBlock: OJICUG_clean_linker_0, # of connection points: 2
#     Edge 66, Type (0, 0), BuildingBlock: OJICUG_clean_linker_0, # of connection points: 2
#     Edge 67, Type (0, 0), BuildingBlock: OJICUG_clean_linker_0, # of connection points: 2
#     Edge 68, Type (0, 0), BuildingBlock: OJICUG_clean_linker_0, # of connection points: 2
#     Edge 69, Type (0, 0), BuildingBlock: OJICUG_clean_linker_0, # of connection points: 2
#     Edge 70, Type (0, 0), BuildingBlock: OJICUG_clean_linker_0, # of connection points: 2
#     Edge 71, Type (0, 0), BuildingBlock: OJICUG_clean_linker_0, # of connection points: 2
# Relax obj value: 0.170
# Max RMSD: 0.160
# Mean RMSD: 0.160
data_MOF--net-gme--node1-AZAVOO_clean_sbu_0--edge1-OJICUG_clean_linker_0
_symmetry_space_group_name_H-M    P1
_symmetry_Int_Tables_number       1
_symmetry_cell_setting            triclinic
loop_
_symmetry_equiv_pos_as_xyz
'x, y, z'
_cell_length_a     47.806853
_cell_length_b     47.822398
_cell_length_c     36.11713
_cell_angle_alpha  90.02628
_cell_angle_beta   90.015072
_cell_angle_gamma 119.96793
loop_
_atom_site_label
_atom_site_type_symbol
_atom_site_fract_x
_atom_site_fract_y
_atom_site_fract_z
_atom_type_partial_charge
Mg0 Mg 0.42378 0.09608 0.09067 0.0
O1 O 0.47731 0.10936 0.09435 0.0
O2 O 0.50056 0.15112 0.13345 0.0
Mg3 Mg 0.46432 0.16501 0.1536 0.0
C4 C 0.50201 0.13068 0.11198 0.0
C5 C 0.38705 0.05258 0.0283 0.0
O6 O 0.36996 0.06571 0.03915 0.0
O7 O 0.43651 0.13917 0.05227 0.0
O8 O 0.45991 0.1786 0.09434 0.0
O9 O 0.41205 0.06432 0.14061 0.0
O10 O 0.42611 0.11584 0.14215 0.0
C11 C 0.45075 0.169 0.06124 0.0
C12 C 0.41871 0.08975 0.15982 0.0
O13 O 0.41436 0.06193 0.0432 0.0
Mg14 Mg 0.32742 0.44564 0.58849 0.0
O15 O 0.37125 0.49689 0.59702 0.0
O16 O 0.35552 0.52115 0.63825 0.0
Mg17 Mg 0.30316 0.4881 0.65385 0.0
C18 C 0.37696 0.5212 0.6172 0.0
C19 C 0.33129 0.40833 0.52596 0.0
O20 O 0.30122 0.39337 0.53759 0.0
O21 O 0.30219 0.46484 0.55068 0.0
O22 O 0.28844 0.48922 0.59397 0.0
O23 O 0.34292 0.42809 0.63736 0.0
O24 O 0.3093 0.44713 0.63992 0.0
C25 C 0.28904 0.4813 0.56032 0.0
C26 C 0.3256 0.43639 0.657 0.0
O27 O 0.35112 0.43517 0.54064 0.0
Mg28 Mg 0.89729 0.31786 0.08748 0.0
O29 O 0.88299 0.35677 0.09797 0.0
O30 O 0.84325 0.33596 0.13981 0.0
Mg31 Mg 0.83057 0.28473 0.1538 0.0
C32 C 0.86256 0.35903 0.11879 0.0
C33 C 0.94743 0.33428 0.03139 0.0
O34 O 0.94184 0.30725 0.0473 0.0
O35 O 0.8533 0.28959 0.04956 0.0
O36 O 0.81532 0.27087 0.09364 0.0
O37 O 0.93064 0.33593 0.13611 0.0
O38 O 0.8796 0.29729 0.13885 0.0
C39 C 0.82382 0.27341 0.05974 0.0
C40 C 0.90614 0.316 0.15583 0.0
O41 O 0.9301 0.34642 0.04043 0.0
Mg42 Mg 0.56056 0.89094 0.58935 0.0
O43 O 0.50685 0.87722 0.59056 0.0
O44 O 0.48271 0.83511 0.62902 0.0
Mg45 Mg 0.51859 0.82157 0.65129 0.0
C46 C 0.48173 0.85562 0.60727 0.0
C47 C 0.60109 0.94078 0.53475 0.0
O48 O 0.6202 0.93286 0.55234 0.0
O49 O 0.5497 0.84819 0.55111 0.0
O50 O 0.52541 0.80852 0.59267 0.0
O51 O 0.57022 0.92244 0.6391 0.0
O52 O 0.55673 0.87106 0.64115 0.0
C53 C 0.53562 0.81833 0.55992 0.0
C54 C 0.5631 0.89702 0.65855 0.0
O55 O 0.57111 0.92544 0.54199 0.0
Mg56 Mg 0.65521 0.54599 0.08866 0.0
O57 O 0.61281 0.49475 0.09957 0.0
O58 O 0.62868 0.47235 0.1429 0.0
Mg59 Mg 0.6809 0.50748 0.15801 0.0
C60 C 0.6073 0.47119 0.12083 0.0
C61 C 0.60639 0.55691 0.04478 0.0
O62 O 0.59784 0.55826 0.07899 0.0
O63 O 0.68147 0.52621 0.05337 0.0
O64 O 0.69585 0.50423 0.09891 0.0
O65 O 0.63951 0.56493 0.13669 0.0
O66 O 0.67437 0.54762 0.14067 0.0
C67 C 0.69514 0.51067 0.06473 0.0
C68 C 0.65784 0.55844 0.15696 0.0
O69 O 0.6289 0.55064 0.03899 0.0
Mg70 Mg 0.08585 0.67178 0.58025 0.0
O71 O 0.10175 0.63475 0.59334 0.0
O72 O 0.14051 0.65605 0.63623 0.0
Mg73 Mg 0.15111 0.70706 0.64871 0.0
C74 C 0.12192 0.63287 0.61486 0.0
C75 C 0.03179 0.61326 0.54073 0.0
O76 O 0.02608 0.6044 0.57559 0.0
O77 O 0.13054 0.70065 0.54362 0.0
O78 O 0.16751 0.7206 0.58883 0.0
O79 O 0.05171 0.65363 0.62832 0.0
O80 O 0.10205 0.69356 0.63184 0.0
C81 C 0.1597 0.71756 0.55465 0.0
C82 C 0.0755 0.67426 0.64839 0.0
O83 O 0.05617 0.64033 0.53254 0.0
Mg84 Mg 0.87651 0.54904 0.38708 0.0
O85 O 0.86913 0.49865 0.3746 0.0
O86 O 0.83135 0.47611 0.33078 0.0
Mg87 Mg 0.81291 0.51042 0.31709 0.0
C88 C 0.85182 0.4753 0.35276 0.0
C89 C 0.93504 0.55544 0.42839 0.0
O90 O 0.94219 0.5533 0.39379 0.0
O91 O 0.83028 0.52744 0.42228 0.0
O92 O 0.79439 0.50549 0.37627 0.0
O93 O 0.91127 0.56943 0.33951 0.0
O94 O 0.85892 0.55115 0.33524 0.0
C95 C 0.8012 0.51136 0.4106 0.0
C96 C 0.88641 0.56255 0.31913 0.0
O97 O 0.90797 0.5531 0.43585 0.0
Mg98 Mg 0.3111 0.88439 0.88696 0.0
O99 O 0.3514 0.87109 0.88614 0.0
O100 O 0.3341 0.82893 0.84783 0.0
Mg101 Mg 0.28462 0.81495 0.82521 0.0
C102 C 0.35534 0.84965 0.86963 0.0
C103 C 0.327 0.94089 0.93336 0.0
O104 O 0.30549 0.93837 0.90889 0.0
O105 O 0.2793 0.8418 0.92524 0.0
O106 O 0.26432 0.80211 0.88372 0.0
O107 O 0.33291 0.91583 0.83745 0.0
O108 O 0.29535 0.86436 0.83491 0.0
C109 C 0.26362 0.81194 0.9164 0.0
C110 C 0.31491 0.89047 0.81775 0.0
O111 O 0.33512 0.91935 0.93399 0.0
Mg112 Mg 0.40473 0.31611 0.38061 0.0
O113 O 0.45786 0.35482 0.36992 0.0
O114 O 0.47718 0.33402 0.3285 0.0
Mg115 Mg 0.4386 0.28257 0.31502 0.0
C116 C 0.4807 0.3571 0.34939 0.0
C117 C 0.37148 0.33952 0.4285 0.0
O118 O 0.35006 0.31734 0.40634 0.0
O119 O 0.42092 0.28856 0.41919 0.0
O120 O 0.44039 0.26969 0.37546 0.0
O121 O 0.3893 0.33344 0.33128 0.0
O122 O 0.40187 0.29489 0.32963 0.0
C123 C 0.43449 0.27254 0.4093 0.0
C124 C 0.39384 0.3132 0.31211 0.0
O125 O 0.40052 0.34556 0.42688 0.0
Mg126 Mg 0.10849 0.44267 0.88501 0.0
O127 O 0.11378 0.49312 0.8765 0.0
O128 O 0.15363 0.51807 0.83534 0.0
Mg129 Mg 0.17467 0.48654 0.81956 0.0
C130 C 0.13186 0.51753 0.85625 0.0
C131 C 0.059 0.40053 0.93722 0.0
O132 O 0.06817 0.38328 0.91777 0.0
O133 O 0.15309 0.46326 0.92293 0.0
O134 O 0.1908 0.48821 0.87938 0.0
O135 O 0.07548 0.42406 0.83613 0.0
O136 O 0.12833 0.44467 0.83352 0.0
C137 C 0.1826 0.48032 0.91308 0.0
C138 C 0.1012 0.43307 0.81646 0.0
O139 O 0.07349 0.43086 0.9322 0.0
Mg140 Mg 0.66823 0.10388 0.38742 0.0
O141 O 0.6274 0.11637 0.38382 0.0
O142 O 0.64505 0.1578 0.34442 0.0
Mg143 Mg 0.69526 0.17225 0.32403 0.0
C144 C 0.62347 0.1373 0.36606 0.0
C145 C 0.65763 0.05313 0.44084 0.0
O146 O 0.68394 0.06013 0.42218 0.0
O147 O 0.69836 0.14719 0.42554 0.0
O148 O 0.71371 0.18625 0.38316 0.0
O149 O 0.64821 0.07164 0.33803 0.0
O150 O 0.68512 0.12332 0.33556 0.0
C151 C 0.71367 0.17695 0.41631 0.0
C152 C 0.66649 0.09689 0.31836 0.0
O153 O 0.64386 0.06953 0.43479 0.0
Mg154 Mg 0.57988 0.67386 0.88377 0.0
O155 O 0.52672 0.63778 0.87112 0.0
O156 O 0.50919 0.65916 0.82841 0.0
Mg157 Mg 0.55044 0.70975 0.81548 0.0
C158 C 0.50451 0.63612 0.85005 0.0
C159 C 0.57585 0.61571 0.92512 0.0
O160 O 0.57468 0.60664 0.89056 0.0
O161 O 0.5646 0.70326 0.92036 0.0
O162 O 0.54767 0.72349 0.87536 0.0
O163 O 0.59509 0.65502 0.83532 0.0
O164 O 0.58554 0.69556 0.83227 0.0
C165 C 0.55252 0.72036 0.90948 0.0
C166 C 0.59243 0.67608 0.81548 0.0
O167 O 0.5775 0.64256 0.93198 0.0
Mg168 Mg 0.55611 0.88818 0.88704 0.0
O169 O 0.50223 0.87378 0.88572 0.0
O170 O 0.47851 0.83196 0.84676 0.0
Mg171 Mg 0.51507 0.81958 0.82378 0.0
C172 C 0.47722 0.85208 0.8689 0.0
C173 C 0.59372 0.93182 0.9491 0.0
O174 O 0.61135 0.91967 0.93699 0.0
O175 O 0.5457 0.84507 0.92426 0.0
O176 O 0.52221 0.80586 0.88196 0.0
O177 O 0.56596 0.92031 0.83785 0.0
O178 O 0.55287 0.86908 0.83494 0.0
C179 C 0.53226 0.81537 0.91485 0.0
C180 C 0.55946 0.89526 0.81796 0.0
O181 O 0.56589 0.92166 0.93528 0.0
Mg182 Mg 0.65552 0.54671 0.38449 0.0
O183 O 0.61258 0.49599 0.37278 0.0
O184 O 0.62823 0.47338 0.32946 0.0
Mg185 Mg 0.68084 0.50778 0.31535 0.0
C186 C 0.60681 0.47251 0.35123 0.0
C187 C 0.60611 0.55706 0.42756 0.0
O188 O 0.59747 0.5578 0.39322 0.0
O189 O 0.68071 0.52592 0.42 0.0
O190 O 0.69492 0.50362 0.37465 0.0
O191 O 0.6406 0.56632 0.33655 0.0
O192 O 0.67494 0.54834 0.33264 0.0
C193 C 0.69398 0.50994 0.40884 0.0
C194 C 0.65865 0.55944 0.31632 0.0
O195 O 0.62898 0.55141 0.43378 0.0
Mg196 Mg 0.07904 0.67015 0.877 0.0
O197 O 0.09465 0.63187 0.86927 0.0
O198 O 0.1361 0.65335 0.82967 0.0
Mg199 Mg 0.14824 0.70419 0.81417 0.0
C200 C 0.11633 0.63018 0.85028 0.0
C201 C 0.02004 0.64509 0.92091 0.0
O202 O 0.0197 0.66484 0.89585 0.0
O203 O 0.1214 0.69863 0.91698 0.0
O204 O 0.16108 0.71798 0.87489 0.0
O205 O 0.04763 0.65168 0.82672 0.0
O206 O 0.09848 0.69082 0.82608 0.0
C207 C 0.15121 0.71515 0.90826 0.0
C208 C 0.07265 0.67197 0.80798 0.0
O209 O 0.04447 0.64129 0.92263 0.0
Mg210 Mg 0.42376 0.10101 0.38814 0.0
O211 O 0.47745 0.11507 0.38443 0.0
O212 O 0.50005 0.15565 0.34383 0.0
Mg213 Mg 0.46295 0.16812 0.32281 0.0
C214 C 0.50189 0.13597 0.36616 0.0
C215 C 0.38943 0.05947 0.45351 0.0
O216 O 0.37166 0.07218 0.44391 0.0
O217 O 0.43573 0.14498 0.42473 0.0
O218 O 0.45829 0.18324 0.3813 0.0
O219 O 0.41239 0.06781 0.33969 0.0
O220 O 0.42526 0.11895 0.33571 0.0
C221 C 0.44929 0.1745 0.41463 0.0
C222 C 0.41844 0.09244 0.31929 0.0
O223 O 0.41595 0.06858 0.43685 0.0
Mg224 Mg 0.32892 0.4475 0.88517 0.0
O225 O 0.37141 0.49892 0.87521 0.0
O226 O 0.35534 0.52238 0.8334 0.0
Mg227 Mg 0.30275 0.48813 0.81922 0.0
C228 C 0.37693 0.52287 0.85459 0.0
C229 C 0.36165 0.41775 0.92726 0.0
O230 O 0.35146 0.40113 0.89639 0.0
O231 O 0.30313 0.46626 0.92292 0.0
O232 O 0.28868 0.48974 0.87924 0.0
O233 O 0.3447 0.43054 0.83582 0.0
O234 O 0.30944 0.44746 0.83359 0.0
C235 C 0.28958 0.4823 0.913 0.0
C236 C 0.32632 0.43749 0.81635 0.0
O237 O 0.35589 0.44064 0.93285 0.0
Mg238 Mg 0.89819 0.31941 0.38364 0.0
O239 O 0.88364 0.35806 0.37279 0.0
O240 O 0.84367 0.33705 0.33117 0.0
Mg241 Mg 0.83101 0.28567 0.31784 0.0
C242 C 0.8631 0.3602 0.35204 0.0
C243 C 0.94792 0.33568 0.44025 0.0
O244 O 0.94176 0.30823 0.42496 0.0
O245 O 0.85449 0.29176 0.42197 0.0
O246 O 0.81614 0.27274 0.37826 0.0
O247 O 0.93124 0.33698 0.33478 0.0
O248 O 0.88015 0.29838 0.33255 0.0
C249 C 0.82493 0.27569 0.41211 0.0
C250 C 0.90659 0.31689 0.31532 0.0
O251 O 0.93124 0.34834 0.43044 0.0
Mg252 Mg 0.10837 0.44233 0.58847 0.0
O253 O 0.115 0.49331 0.59645 0.0
O254 O 0.15494 0.51829 0.63759 0.0
Mg255 Mg 0.17492 0.48591 0.65371 0.0
C256 C 0.13341 0.51788 0.61637 0.0
C257 C 0.0586 0.40056 0.53617 0.0
O258 O 0.06731 0.38301 0.55576 0.0
O259 O 0.15272 0.46211 0.55045 0.0
O260 O 0.19066 0.48713 0.59381 0.0
O261 O 0.07546 0.42449 0.63743 0.0
O262 O 0.12821 0.44438 0.63997 0.0
C263 C 0.18227 0.47911 0.56015 0.0
C264 C 0.10115 0.43321 0.65708 0.0
O265 O 0.07344 0.4309 0.54123 0.0
Mg266 Mg 0.66944 0.10037 0.08968 0.0
O267 O 0.6283 0.11243 0.09312 0.0
O268 O 0.64604 0.15449 0.13168 0.0
Mg269 Mg 0.69669 0.16998 0.15129 0.0
C270 C 0.6243 0.13345 0.11058 0.0
C271 C 0.65346 0.04397 0.04332 0.0
O272 O 0.67606 0.04744 0.06669 0.0
O273 O 0.69882 0.14298 0.05035 0.0
O274 O 0.71415 0.18283 0.09171 0.0
O275 O 0.6499 0.06915 0.1398 0.0
O276 O 0.68673 0.12092 0.14115 0.0
C277 C 0.71385 0.17293 0.0588 0.0
C278 C 0.66807 0.09484 0.15892 0.0
O279 O 0.64442 0.06483 0.04343 0.0
Mg280 Mg 0.57933 0.67425 0.58754 0.0
O281 O 0.52627 0.63749 0.59973 0.0
O282 O 0.50837 0.65827 0.64273 0.0
Mg283 Mg 0.54913 0.70894 0.65639 0.0
C284 C 0.50394 0.63543 0.62087 0.0
C285 C 0.57464 0.61615 0.54595 0.0
O286 O 0.57235 0.60666 0.58049 0.0
O287 O 0.56396 0.70385 0.55143 0.0
O288 O 0.54664 0.72341 0.59678 0.0
O289 O 0.59476 0.65532 0.63571 0.0
O290 O 0.58473 0.69552 0.63928 0.0
C291 C 0.55171 0.72073 0.5626 0.0
C292 C 0.5919 0.67615 0.6558 0.0
O293 O 0.5773 0.64342 0.53904 0.0
Mg294 Mg 0.87776 0.55008 0.09166 0.0
O295 O 0.87096 0.49928 0.10076 0.0
O296 O 0.83223 0.47534 0.14334 0.0
Mg297 Mg 0.81325 0.50863 0.15964 0.0
C298 C 0.85304 0.47515 0.1214 0.0
C299 C 0.91343 0.58149 0.02217 0.0
O300 O 0.89592 0.59506 0.02913 0.0
O301 O 0.83209 0.52946 0.0556 0.0
O302 O 0.79534 0.50568 0.10039 0.0
O303 O 0.91208 0.56908 0.13968 0.0
O304 O 0.85947 0.54978 0.14345 0.0
C305 C 0.80282 0.51285 0.06639 0.0
C306 C 0.88687 0.56133 0.15986 0.0
O307 O 0.91016 0.55856 0.04273 0.0
Mg308 Mg 0.31557 0.88824 0.58896 0.0
O309 O 0.35654 0.87587 0.5907 0.0
O310 O 0.33862 0.83284 0.62772 0.0
Mg311 Mg 0.28829 0.81737 0.64842 0.0
C312 C 0.36033 0.85422 0.60693 0.0
C313 C 0.33246 0.94654 0.54635 0.0
O314 O 0.31119 0.9432 0.57158 0.0
O315 O 0.28598 0.84649 0.54865 0.0
O316 O 0.27052 0.80577 0.58878 0.0
O317 O 0.33536 0.91848 0.63975 0.0
O318 O 0.29852 0.86671 0.64003 0.0
C319 C 0.27082 0.81637 0.55625 0.0
C320 C 0.31718 0.89249 0.65833 0.0
O321 O 0.34031 0.92486 0.54366 0.0
Mg322 Mg 0.40765 0.31268 0.08486 0.0
O323 O 0.46032 0.3512 0.09759 0.0
O324 O 0.4785 0.33137 0.14145 0.0
Mg325 Mg 0.43918 0.28011 0.15467 0.0
C326 C 0.48255 0.35402 0.11954 0.0
C327 C 0.40972 0.36909 0.04125 0.0
O328 O 0.41481 0.38093 0.07499 0.0
O329 O 0.42467 0.28413 0.04941 0.0
O330 O 0.44283 0.26592 0.09528 0.0
O331 O 0.39078 0.33093 0.13212 0.0
O332 O 0.40283 0.29212 0.1367 0.0
C333 C 0.43784 0.26821 0.06097 0.0
C334 C 0.3946 0.31094 0.15267 0.0
O335 O 0.40728 0.34171 0.03584 0.0
C336 C 0.42118 0.11709 0.25803 0.0
C337 C 0.41873 0.09106 0.27854 0.0
H338 H 0.42274 0.13683 0.20482 0.0
C339 C 0.4161 0.0641 0.25973 0.0
H340 H 0.42258 0.13795 0.27158 0.0
C341 C 0.41616 0.06343 0.22095 0.0
C342 C 0.41889 0.08973 0.20061 0.0
H343 H 0.41404 0.04363 0.27491 0.0
H344 H 0.41414 0.04247 0.20696 0.0
C345 C 0.42127 0.11644 0.2196 0.0
C346 C 0.30295 0.44008 0.71744 0.0
C347 C 0.32576 0.43567 0.69774 0.0
H348 H 0.28505 0.44367 0.77016 0.0
C349 C 0.34842 0.43088 0.71731 0.0
H350 H 0.28477 0.4432 0.70317 0.0
C351 C 0.34861 0.43121 0.75605 0.0
C352 C 0.32612 0.43628 0.77562 0.0
H353 H 0.3662 0.42731 0.70276 0.0
H354 H 0.36653 0.42785 0.77061 0.0
C355 C 0.30312 0.44036 0.75591 0.0
C356 C 0.93362 0.34075 0.21604 0.0
C357 C 0.90744 0.31609 0.1966 0.0
H358 H 0.95392 0.36047 0.26922 0.0
C359 C 0.88184 0.29132 0.21648 0.0
H360 H 0.95374 0.36009 0.20138 0.0
C361 C 0.88194 0.29154 0.25499 0.0
C362 C 0.90765 0.31653 0.27456 0.0
H363 H 0.86161 0.27162 0.20234 0.0
H364 H 0.86179 0.27201 0.26938 0.0
C365 C 0.93372 0.34097 0.2548 0.0
C366 C 0.55766 0.87008 0.71893 0.0
C367 C 0.56128 0.89698 0.69927 0.0
H368 H 0.55446 0.84863 0.77144 0.0
C369 C 0.56388 0.92355 0.71893 0.0
H370 H 0.55622 0.84945 0.70474 0.0
C371 C 0.56289 0.92309 0.75771 0.0
C372 C 0.55928 0.89604 0.77719 0.0
H373 H 0.5668 0.94467 0.70444 0.0
H374 H 0.56513 0.94388 0.77236 0.0
C375 C 0.55664 0.8696 0.75735 0.0
C376 C 0.68279 0.5589 0.2558 0.0
C377 C 0.65891 0.56143 0.2756 0.0
H378 H 0.70132 0.55645 0.20308 0.0
C379 C 0.63534 0.56484 0.25609 0.0
H380 H 0.70168 0.55691 0.26999 0.0
C381 C 0.63511 0.56455 0.21727 0.0
C382 C 0.65845 0.56085 0.19766 0.0
H383 H 0.61673 0.56697 0.27074 0.0
H384 H 0.61633 0.56648 0.20272 0.0
C385 C 0.68256 0.55862 0.21735 0.0
C386 C 0.09882 0.69862 0.70966 0.0
C387 C 0.07367 0.67387 0.68917 0.0
H388 H 0.11807 0.71743 0.76306 0.0
C389 C 0.04747 0.64874 0.70805 0.0
H390 H 0.11904 0.71866 0.69599 0.0
C391 C 0.04686 0.6481 0.7468 0.0
C392 C 0.07247 0.67254 0.76717 0.0
H393 H 0.0277 0.62938 0.69295 0.0
H394 H 0.02659 0.62831 0.76074 0.0
C395 C 0.09826 0.69792 0.74819 0.0
C396 C 0.91565 0.56804 0.22035 0.0
C397 C 0.88845 0.56368 0.20054 0.0
H398 H 0.93644 0.57104 0.27398 0.0
C399 C 0.8618 0.56094 0.21999 0.0
H400 H 0.9366 0.57039 0.20596 0.0
C401 C 0.86175 0.56143 0.25842 0.0
C402 C 0.88831 0.56457 0.27844 0.0
H403 H 0.84074 0.55825 0.20553 0.0
H404 H 0.84066 0.5591 0.27242 0.0
C405 C 0.91557 0.56845 0.25916 0.0
C406 C 0.34012 0.91843 0.75803 0.0
C407 C 0.3169 0.89095 0.77703 0.0
H408 H 0.35859 0.94049 0.70526 0.0
C409 C 0.29451 0.86396 0.7567 0.0
H410 H 0.35764 0.93963 0.77302 0.0
C411 C 0.29506 0.86444 0.7182 0.0
C412 C 0.318 0.89193 0.69909 0.0
H413 H 0.27598 0.84258 0.77042 0.0
H414 H 0.27696 0.84342 0.7035 0.0
C415 C 0.34066 0.91893 0.7193 0.0
C416 C 0.39137 0.33698 0.25102 0.0
C417 C 0.39233 0.31242 0.27134 0.0
H418 H 0.3914 0.35592 0.19712 0.0
C419 C 0.39242 0.28687 0.25233 0.0
H420 H 0.39115 0.35691 0.26502 0.0
C421 C 0.39248 0.28627 0.21384 0.0
C422 C 0.39253 0.31124 0.19338 0.0
H423 H 0.3925 0.26723 0.26715 0.0
H424 H 0.39261 0.26618 0.20016 0.0
C425 C 0.39148 0.33641 0.21225 0.0
C426 C 0.07231 0.42612 0.7174 0.0
C427 C 0.10022 0.43228 0.69782 0.0
H428 H 0.05067 0.42161 0.77073 0.0
C429 C 0.12778 0.4377 0.71753 0.0
H430 H 0.05067 0.42172 0.70285 0.0
C431 C 0.12778 0.43764 0.756 0.0
C432 C 0.10022 0.43215 0.77572 0.0
H433 H 0.14945 0.44185 0.70328 0.0
H434 H 0.14946 0.44177 0.77023 0.0
C435 C 0.07231 0.42605 0.75616 0.0
C436 C 0.64293 0.06864 0.25815 0.0
C437 C 0.66584 0.09605 0.27758 0.0
H438 H 0.62551 0.04673 0.205 0.0
C439 C 0.68914 0.12278 0.2577 0.0
H440 H 0.62477 0.04763 0.27282 0.0
C441 C 0.68959 0.12225 0.21923 0.0
C442 C 0.66675 0.09499 0.19966 0.0
H443 H 0.7075 0.14406 0.2718 0.0
H444 H 0.70828 0.14314 0.20493 0.0
C445 C 0.64337 0.06812 0.21941 0.0
C446 C 0.59364 0.65074 0.71611 0.0
C447 C 0.59395 0.67632 0.69659 0.0
H448 H 0.59285 0.63046 0.76942 0.0
C449 C 0.59544 0.70226 0.71647 0.0
H450 H 0.59261 0.63048 0.70146 0.0
C451 C 0.5956 0.70226 0.75498 0.0
C452 C 0.59425 0.67631 0.77467 0.0
H453 H 0.59634 0.72264 0.70229 0.0
H454 H 0.59664 0.72266 0.76931 0.0
C455 C 0.59378 0.65073 0.75493 0.0
C456 C 0.42132 0.19026 0.02627 0.0
C457 C 0.45117 0.19332 0.03603 0.0
H458 H 0.39358 0.2142 0.0254 0.0
C459 C 0.47863 0.22424 0.03685 0.0
H460 H 0.39979 0.16665 0.02536 0.0
C461 C 0.47506 0.25147 0.03693 0.0
C462 C 0.44407 0.24779 0.0359 0.0
H463 H 0.50197 0.22718 0.04403 0.0
H464 H 0.49573 0.27458 0.0442 0.0
C465 C 0.41775 0.21761 0.02631 0.0
C466 C 0.23738 0.51396 0.53733 0.0
C467 C 0.20847 0.48431 0.53476 0.0
H468 H 0.28828 0.53655 0.54611 0.0
C469 C 0.20977 0.45698 0.52301 0.0
H470 H 0.23696 0.53546 0.5459 0.0
C471 C 0.23939 0.4576 0.52308 0.0
C472 C 0.2674 0.48555 0.53493 0.0
H473 H 0.18778 0.43385 0.52055 0.0
H474 H 0.23922 0.43493 0.52066 0.0
C475 C 0.26687 0.51457 0.53744 0.0
C476 C 0.77032 0.25552 0.03357 0.0
C477 C 0.79818 0.25273 0.03369 0.0
H478 H 0.71904 0.23009 0.03978 0.0
C479 C 0.79533 0.22286 0.02465 0.0
H480 H 0.77197 0.27839 0.04031 0.0
C481 C 0.76481 0.19498 0.02436 0.0
C482 C 0.7374 0.19723 0.03329 0.0
H483 H 0.81652 0.22015 0.02454 0.0
H484 H 0.76349 0.17169 0.02405 0.0
C485 C 0.73992 0.22776 0.03327 0.0
C486 C 0.57182 0.77155 0.52842 0.0
C487 C 0.54569 0.74096 0.53702 0.0
H488 H 0.58853 0.82225 0.52723 0.0
C489 C 0.51435 0.73641 0.53639 0.0
H490 H 0.59624 0.77561 0.52887 0.0
C491 C 0.50991 0.76312 0.53544 0.0
C492 C 0.53685 0.79441 0.53542 0.0
H493 H 0.49384 0.713 0.54296 0.0
H494 H 0.48608 0.75948 0.54131 0.0
C495 C 0.56736 0.79836 0.52744 0.0
C496 C 0.74497 0.53325 0.02793 0.0
C497 C 0.71698 0.50568 0.04052 0.0
H498 H 0.79657 0.55692 0.02522 0.0
C499 C 0.71757 0.47682 0.04487 0.0
H500 H 0.74508 0.55579 0.0242 0.0
C501 C 0.74708 0.47747 0.04549 0.0
C502 C 0.77597 0.50697 0.04168 0.0
H503 H 0.69618 0.45517 0.05423 0.0
H504 H 0.74754 0.45627 0.05525 0.0
C505 C 0.7746 0.5339 0.02853 0.0
C506 C 0.24388 0.76185 0.52968 0.0
C507 C 0.24714 0.79271 0.53028 0.0
H508 H 0.21089 0.71132 0.53549 0.0
C509 C 0.22028 0.79584 0.52113 0.0
H510 H 0.26436 0.75887 0.53631 0.0
C511 C 0.18945 0.7684 0.5206 0.0
C512 C 0.18576 0.73807 0.52905 0.0
H513 H 0.22219 0.81939 0.52124 0.0
H514 H 0.16862 0.7717 0.52035 0.0
C515 C 0.21316 0.73452 0.52914 0.0
C516 C 0.77231 0.53172 0.44819 0.0
C517 C 0.77388 0.50497 0.43476 0.0
H518 H 0.74305 0.55395 0.45153 0.0
C519 C 0.74499 0.4757 0.42949 0.0
H520 H 0.79427 0.55454 0.45264 0.0
C521 C 0.71564 0.47537 0.42875 0.0
C522 C 0.71517 0.50428 0.43344 0.0
H523 H 0.74559 0.45464 0.41949 0.0
H524 H 0.69449 0.45404 0.41828 0.0
C525 C 0.74283 0.53138 0.44751 0.0
C526 C 0.20261 0.73019 0.93846 0.0
C527 C 0.17592 0.7348 0.93572 0.0
H528 H 0.25406 0.75324 0.93646 0.0
C529 C 0.17999 0.76527 0.94417 0.0
H530 H 0.19999 0.70683 0.93214 0.0
C531 C 0.21117 0.79203 0.94677 0.0
C532 C 0.23802 0.78814 0.94049 0.0
H533 H 0.15971 0.76939 0.94221 0.0
H534 H 0.21389 0.81593 0.94667 0.0
C535 C 0.23367 0.75685 0.94098 0.0
C536 C 0.41859 0.19573 0.44698 0.0
C537 C 0.44883 0.19915 0.43855 0.0
H538 H 0.39012 0.21889 0.44534 0.0
C539 C 0.47596 0.23028 0.43752 0.0
H540 H 0.39729 0.17195 0.44798 0.0
C541 C 0.47185 0.25718 0.43611 0.0
C542 C 0.44062 0.25296 0.4358 0.0
H543 H 0.49957 0.23351 0.43128 0.0
H544 H 0.49241 0.28032 0.42879 0.0
C545 C 0.41446 0.22273 0.44548 0.0
C546 C 0.23984 0.45878 0.95008 0.0
C547 C 0.2679 0.48666 0.93825 0.0
H548 H 0.18825 0.43512 0.95264 0.0
C549 C 0.2674 0.51569 0.93552 0.0
H550 H 0.23965 0.43611 0.95261 0.0
C551 C 0.23792 0.51513 0.93554 0.0
C552 C 0.20897 0.48555 0.93828 0.0
H553 H 0.28883 0.5376 0.92681 0.0
H554 H 0.23756 0.53664 0.92685 0.0
C555 C 0.21025 0.45822 0.95011 0.0
C556 C 0.76502 0.19861 0.44983 0.0
C557 C 0.73794 0.20148 0.44106 0.0
H558 H 0.81668 0.22257 0.4485 0.0
C559 C 0.7413 0.23236 0.44022 0.0
H560 H 0.76303 0.17503 0.45081 0.0
C561 C 0.77205 0.2596 0.4389 0.0
C562 C 0.79939 0.25593 0.43865 0.0
H563 H 0.72067 0.23516 0.43383 0.0
H564 H 0.7742 0.28257 0.43153 0.0
C565 C 0.79589 0.22596 0.4485 0.0
C566 C 0.51391 0.73395 0.93643 0.0
C567 C 0.54568 0.73971 0.93553 0.0
H568 H 0.48412 0.75542 0.93244 0.0
C569 C 0.57109 0.7706 0.94453 0.0
H570 H 0.49394 0.71027 0.92954 0.0
C571 C 0.56543 0.79663 0.94633 0.0
C572 C 0.53445 0.79161 0.93865 0.0
H573 H 0.59583 0.77559 0.94385 0.0
H574 H 0.58604 0.82088 0.94692 0.0
C575 C 0.50827 0.75988 0.93812 0.0
C576 C 0.37092 0.97684 0.97728 0.0
C577 C 0.34261 0.96937 0.95777 0.0
H578 H 0.40769 0.00955 0.01443 0.0
C579 C 0.32977 0.99005 0.96064 0.0
H580 H 0.3815 0.96146 0.97532 0.0
C581 C 0.34466 0.01744 0.983 0.0
C582 C 0.37288 0.02491 0.00265 0.0
H583 H 0.30802 0.98498 0.94583 0.0
H584 H 0.33392 0.03268 0.98502 0.0
C585 C 0.38606 0.00451 -0.00063 0.0
C586 C 0.38486 0.38568 0.47166 0.0
C587 C 0.36176 0.35766 0.45331 0.0
H588 H 0.39336 0.42422 0.50866 0.0
C589 C 0.32885 0.34734 0.45796 0.0
H590 H 0.41042 0.39433 0.46834 0.0
C591 C 0.31914 0.36434 0.4809 0.0
C592 C 0.34211 0.39218 0.49952 0.0
H593 H 0.31044 0.3259 0.44412 0.0
H594 H 0.29354 0.35544 0.48425 0.0
C595 C 0.37511 0.40292 0.49445 0.0
C596 C 0.01512 0.40038 0.97542 0.0
C597 C 0.03084 0.38424 0.96196 0.0
H598 H 0.97582 0.39697 0.00751 0.0
C599 C 0.01847 0.35157 0.97084 0.0
H600 H 0.024 0.4255 0.96874 0.0
C601 C -0.00892 0.33535 -0.00709 0.0
C602 C 0.97526 0.35134 0.00633 0.0
H603 H 0.02999 0.33845 0.96081 0.0
H604 H 0.98233 0.31021 -0.00054 0.0
C605 C 0.98741 0.38398 -0.00272 0.0
C606 C 0.61096 0.01141 0.47752 0.0
C607 C 0.64312 0.0249 0.46563 0.0
H608 H 0.57211 0.97368 0.50821 0.0
C609 C 0.661 0.01017 0.47606 0.0
H610 H 0.59652 0.02212 0.46962 0.0
C611 C 0.64711 0.98259 0.49811 0.0
C612 C 0.61494 0.96896 0.50987 0.0
H613 H 0.68582 0.01997 0.46724 0.0
H614 H 0.66163 0.97194 0.5059 0.0
C615 C 0.59691 0.98353 0.49928 0.0
C616 C 0.58029 0.58733 0.0212 0.0
C617 C 0.59398 0.56784 0.01402 0.0
H618 H 0.56401 0.61806 -0.00152 0.0
C619 C 0.59849 0.56156 0.97718 0.0
H620 H 0.57652 0.59258 0.04933 0.0
C621 C 0.59088 0.57578 0.94806 0.0
C622 C 0.57923 0.597 0.95538 0.0
H623 H 0.60881 0.54645 0.97089 0.0
H624 H 0.59564 0.57141 0.91996 0.0
C625 C 0.57327 0.60204 -0.00787 0.0
C626 C 0.01644 0.5982 0.47471 0.0
C627 C 0.00768 0.59446 0.51221 0.0
H628 H 0.00012 0.58792 0.41862 0.0
C629 C 0.97511 0.5748 0.52208 0.0
H630 H 0.04143 0.61307 0.46646 0.0
C631 C 0.95141 0.56093 0.49474 0.0
C632 C 0.96003 0.56589 0.45719 0.0
H633 H 0.96771 0.57154 0.55084 0.0
H634 H 0.92629 0.54713 0.50295 0.0
C635 C -0.00719 0.58369 0.4474 0.0
C636 C 0.6368 0.96794 -0.00681 0.0
C637 C 0.60781 0.95951 0.97474 0.0
H638 H 0.67397 0.00131 0.02921 0.0
C639 C 0.59372 0.97902 0.97907 0.0
H640 H 0.64824 0.95339 -0.00967 0.0
C641 C 0.60874 0.00681 0.00096 0.0
C642 C 0.63786 0.01529 0.01923 0.0
H643 H 0.57147 0.97322 0.96495 0.0
H644 H 0.59747 0.02152 0.00373 0.0
C645 C 0.65159 -0.00455 0.01536 0.0
C646 C 0.58 0.58771 0.45024 0.0
C647 C 0.59337 0.56802 0.45791 0.0
H648 H 0.56381 0.61872 0.47235 0.0
C649 C 0.59733 0.56162 0.49488 0.0
H650 H 0.57668 0.59306 0.42198 0.0
C651 C 0.58947 0.57591 0.5237 0.0
C652 C 0.57818 0.59734 0.51593 0.0
H653 H 0.60741 0.54636 0.50151 0.0
H654 H 0.59381 0.57145 0.55194 0.0
C655 C 0.57278 0.60252 0.47903 0.0
C656 C 0.96369 0.58728 -0.00661 0.0
C657 C 0.93938 0.59566 -0.00567 0.0
H658 H 0.00863 0.59667 0.96965 0.0
C659 C 0.94138 0.61959 0.97023 0.0
H660 H 0.96284 0.56899 0.01177 0.0
C661 C 0.96748 0.63535 0.9462 0.0
C662 C -0.00774 0.62767 0.94594 0.0
H663 H 0.92301 0.62655 0.97028 0.0
H664 H 0.96843 0.65394 0.92824 0.0
C665 C 0.99 0.60327 0.96949 0.0
C666 C 0.37533 0.98348 0.50207 0.0
C667 C 0.34765 0.97569 0.52303 0.0
H668 H 0.41078 0.01663 0.46414 0.0
C669 C 0.33486 -0.00349 0.52235 0.0
H670 H 0.38588 0.96802 0.50235 0.0
C671 C 0.34901 0.02422 0.50049 0.0
C672 C 0.37645 0.03185 0.47917 0.0
H673 H 0.31361 0.99121 0.53834 0.0
H674 H 0.33823 0.03947 0.5 0.0
C675 C 0.38974 0.01145 0.48049 0.0
C676 C 0.39623 0.37175 0.97519 0.0
C677 C 0.40185 0.38477 0.01105 0.0
H678 H 0.37932 0.37211 0.92066 0.0
C679 C 0.39695 0.4109 0.01835 0.0
H680 H 0.40006 0.35181 0.96857 0.0
C681 C 0.38489 0.42255 -0.00923 0.0
C682 C 0.37761 0.40825 0.9555 0.0
H683 H 0.40118 0.42153 0.04572 0.0
H684 H 0.38026 0.44195 -0.00254 0.0
C685 C 0.38425 0.38336 0.94773 0.0
C686 C 0.01784 0.35186 0.50227 0.0
C687 C 0.03064 0.38462 0.51103 0.0
H688 H 0.9816 0.31076 0.47331 0.0
C689 C 0.01561 0.40121 0.49696 0.0
H690 H 0.02884 0.33838 0.51275 0.0
C691 C 0.98814 0.38518 0.4746 0.0
C692 C 0.97555 0.35244 0.46569 0.0
H693 H 0.02483 0.42643 0.50352 0.0
H694 H 0.97707 0.39852 0.46391 0.0
C695 C -0.00931 0.33598 0.47974 0.0
C696 C 0.5611 0.15777 0.1244 0.0
C697 C 0.53345 0.13183 0.10858 0.0
H698 H 0.61105 0.17873 0.13704 0.0
C699 C 0.53625 0.10703 0.09112 0.0
H700 H 0.56005 0.17752 0.13772 0.0
C701 C 0.56595 0.10773 0.09072 0.0
C702 C 0.59328 0.13325 0.10777 0.0
H703 H 0.51541 0.08674 0.07858 0.0
H704 H 0.56729 0.08794 0.07792 0.0
C705 C 0.59052 0.15847 0.12399 0.0
C706 C 0.4465 0.60385 0.64172 0.0
C707 C 0.47165 0.60595 0.61966 0.0
H708 H 0.39727 0.57589 0.65811 0.0
C709 C 0.46542 0.57986 0.5963 0.0
H710 H 0.45031 0.62342 0.66001 0.0
C711 C 0.43467 0.5523 0.59518 0.0
C712 C 0.40956 0.55032 0.61733 0.0
H713 H 0.48425 0.58068 0.5789 0.0
H714 H 0.43064 0.53258 0.57703 0.0
C715 C 0.41591 0.57647 0.64056 0.0
C716 C 0.88058 0.4154 0.09596 0.0
C717 C 0.86078 0.38911 0.11899 0.0
H718 H 0.89377 0.46333 0.07851 0.0
C719 C 0.83878 0.39162 0.14262 0.0
H720 H 0.8978 0.41428 0.07743 0.0
C721 C 0.83649 0.4195 0.14325 0.0
C722 C 0.85611 0.44581 0.12025 0.0
H723 H 0.82314 0.37197 0.16083 0.0
H724 H 0.81917 0.4203 0.1619 0.0
C725 C 0.87826 0.4435 0.09658 0.0
C726 C 0.393 0.82745 0.61644 0.0
C727 C 0.39103 0.85397 0.60298 0.0
H728 H 0.42275 0.80706 0.62783 0.0
C729 C 0.41885 0.8803 0.58787 0.0
H730 H 0.37202 0.80651 0.62779 0.0
C731 C 0.44836 0.8806 0.58787 0.0
C732 C 0.45043 0.85458 0.60301 0.0
H733 H 0.41809 0.90106 0.57717 0.0
H734 H 0.46966 0.90161 0.57722 0.0
C735 C 0.42223 0.82775 0.61645 0.0
C736 C 0.56884 0.41566 0.1439 0.0
C737 C 0.57516 0.44147 0.12021 0.0
H738 H 0.53501 0.36819 0.16232 0.0
C739 C 0.55056 0.43843 0.09627 0.0
H740 H 0.58711 0.41707 0.16278 0.0
C741 C 0.52039 0.41013 0.09601 0.0
C742 C 0.51422 0.3843 0.11968 0.0
H743 H 0.55459 0.45787 0.07769 0.0
H744 H 0.50197 0.40849 0.07722 0.0
C745 C 0.53882 0.3875 0.14365 0.0
C746 C 0.10723 0.54884 0.59239 0.0
C747 C 0.12993 0.54699 0.6155 0.0
H748 H 0.08678 0.57741 0.57398 0.0
C749 C 0.14961 0.57347 0.63836 0.0
H750 H 0.09166 0.52888 0.57447 0.0
C751 C 0.14681 0.60108 0.63813 0.0
C752 C 0.12427 0.60311 0.61501 0.0
H753 H 0.16734 0.57299 0.65662 0.0
H754 H 0.1625 0.62091 0.65615 0.0
C755 C 0.10443 0.57665 0.59213 0.0
C756 C 0.83641 0.42045 0.32871 0.0
C757 C 0.85539 0.44624 0.35267 0.0
H758 H 0.82401 0.37349 0.30966 0.0
C759 C 0.87751 0.44379 0.37627 0.0
H760 H 0.81918 0.42145 0.31006 0.0
C761 C 0.88033 0.41601 0.37603 0.0
C762 C 0.86108 0.39015 0.3522 0.0
H763 H 0.89257 0.46326 0.39502 0.0
H764 H 0.89743 0.41475 0.39465 0.0
C765 C 0.83921 0.39283 0.32849 0.0
C766 C 0.44328 0.87615 0.88931 0.0
C767 C 0.44569 0.85054 0.87349 0.0
H768 H 0.41266 0.89608 0.90064 0.0
C769 C 0.41764 0.82371 0.85969 0.0
H770 H 0.46446 0.89713 0.90029 0.0
C771 C 0.38825 0.8231 0.85992 0.0
C772 C 0.38598 0.84931 0.87394 0.0
H773 H 0.41842 0.80331 0.8478 0.0
H774 H 0.3674 0.80226 0.84817 0.0
C775 C 0.41364 0.87554 0.88953 0.0
C776 C 0.51892 0.41291 0.37367 0.0
C777 C 0.51261 0.38709 0.34989 0.0
H778 H 0.55363 0.4602 0.3929 0.0
C779 C 0.53743 0.38986 0.32661 0.0
H780 H 0.50036 0.41158 0.39197 0.0
C781 C 0.5678 0.41754 0.32716 0.0
C782 C 0.57429 0.44331 0.35102 0.0
H783 H 0.53354 0.37055 0.30785 0.0
H784 H 0.58621 0.4186 0.3088 0.0
C785 C 0.54948 0.44075 0.37423 0.0
C786 C 0.10339 0.54741 0.87691 0.0
C787 C 0.12745 0.54612 0.85578 0.0
H788 H 0.08079 0.57495 0.89181 0.0
C789 C 0.1474 0.57253 0.83305 0.0
H790 H 0.08755 0.52745 0.89464 0.0
C791 C 0.14349 0.59943 0.83135 0.0
C792 C 0.11953 0.60091 0.85234 0.0
H793 H 0.16619 0.57254 0.81628 0.0
H794 H 0.15947 0.61916 0.81341 0.0
C795 C 0.09946 0.57458 0.87522 0.0
C796 C 0.59002 0.16269 0.35252 0.0
C797 C 0.59275 0.13765 0.3693 0.0
H798 H 0.55968 0.18192 0.33875 0.0
C799 C 0.56565 0.11281 0.3874 0.0
H800 H 0.61039 0.18244 0.33866 0.0
C801 C 0.53617 0.11253 0.38748 0.0
C802 C 0.53332 0.13707 0.36942 0.0
H803 H 0.56698 0.0932 0.40068 0.0
H804 H 0.51547 0.09269 0.40078 0.0
C805 C 0.56078 0.1624 0.35258 0.0
C806 C 0.46555 0.58093 0.87485 0.0
C807 C 0.47202 0.60692 0.85129 0.0
H808 H 0.43049 0.53404 0.89455 0.0
C809 C 0.44691 0.60503 0.82924 0.0
H810 H 0.48432 0.58159 0.89226 0.0
C811 C 0.41613 0.5779 0.83066 0.0
C812 C 0.40958 0.55187 0.85412 0.0
H813 H 0.45094 0.62457 0.81082 0.0
H814 H 0.39748 0.57739 0.81314 0.0
C815 C 0.43466 0.55368 0.87623 0.0
loop_
_geom_bond_atom_site_label_1
_geom_bond_atom_site_label_2
_geom_bond_distance
_geom_bond_site_symmetry_2
_ccdc_geom_bond_type
Mg0 O1 2.028 . S
Mg0 O7 1.986 . S
Mg0 O9 2.114 . S
Mg0 O10 2.251 . S
Mg0 O13 2.010 . S
O1 Mg0 2.028 . S
O1 C4 1.250 . S
O2 Mg3 2.028 . S
O2 C4 1.248 . S
Mg3 O2 2.028 . S
Mg3 O8 2.032 . S
Mg3 O10 2.079 . S
C4 O1 1.250 . S
C4 O2 1.248 . S
C5 O6 1.264 . S
C5 O13 1.249 . S
O6 C5 1.264 . S
O7 Mg0 1.986 . S
O7 C11 1.246 . S
O8 Mg3 2.032 . S
O8 C11 1.259 . S
O9 Mg0 2.114 . S
O9 C12 1.252 . S
O10 Mg0 2.251 . S
O10 Mg3 2.079 . S
O10 C12 1.273 . S
C11 O7 1.246 . S
C11 O8 1.259 . S
C12 O9 1.252 . S
C12 O10 1.273 . S
O13 Mg0 2.010 . S
O13 C5 1.249 . S
Mg14 O15 2.028 . S
Mg14 O21 1.986 . S
Mg14 O23 2.114 . S
Mg14 O24 2.251 . S
Mg14 O27 2.010 . S
O15 Mg14 2.028 . S
O15 C18 1.250 . S
O16 Mg17 2.028 . S
O16 C18 1.248 . S
Mg17 O16 2.028 . S
Mg17 O22 2.032 . S
Mg17 O24 2.079 . S
C18 O15 1.250 . S
C18 O16 1.248 . S
C19 O20 1.264 . S
C19 O27 1.249 . S
O20 C19 1.264 . S
O21 Mg14 1.986 . S
O21 C25 1.246 . S
O22 Mg17 2.032 . S
O22 C25 1.259 . S
O23 Mg14 2.114 . S
O23 C26 1.252 . S
O24 Mg14 2.251 . S
O24 Mg17 2.079 . S
O24 C26 1.273 . S
C25 O21 1.246 . S
C25 O22 1.259 . S
C26 O23 1.252 . S
C26 O24 1.273 . S
O27 Mg14 2.010 . S
O27 C19 1.249 . S
Mg28 O29 2.028 . S
Mg28 O35 1.986 . S
Mg28 O37 2.114 . S
Mg28 O38 2.251 . S
Mg28 O41 2.010 . S
O29 Mg28 2.028 . S
O29 C32 1.250 . S
O30 Mg31 2.028 . S
O30 C32 1.248 . S
Mg31 O30 2.028 . S
Mg31 O36 2.032 . S
Mg31 O38 2.079 . S
C32 O29 1.250 . S
C32 O30 1.248 . S
C33 O34 1.264 . S
C33 O41 1.249 . S
O34 C33 1.264 . S
O35 Mg28 1.986 . S
O35 C39 1.246 . S
O36 Mg31 2.032 . S
O36 C39 1.259 . S
O37 Mg28 2.114 . S
O37 C40 1.252 . S
O38 Mg28 2.251 . S
O38 Mg31 2.079 . S
O38 C40 1.273 . S
C39 O35 1.246 . S
C39 O36 1.259 . S
C40 O37 1.252 . S
C40 O38 1.273 . S
O41 Mg28 2.010 . S
O41 C33 1.249 . S
Mg42 O43 2.028 . S
Mg42 O49 1.986 . S
Mg42 O51 2.114 . S
Mg42 O52 2.251 . S
Mg42 O55 2.010 . S
O43 Mg42 2.028 . S
O43 C46 1.250 . S
O44 Mg45 2.028 . S
O44 C46 1.248 . S
Mg45 O44 2.028 . S
Mg45 O50 2.032 . S
Mg45 O52 2.079 . S
C46 O43 1.250 . S
C46 O44 1.248 . S
C47 O48 1.264 . S
C47 O55 1.249 . S
O48 C47 1.264 . S
O49 Mg42 1.986 . S
O49 C53 1.246 . S
O50 Mg45 2.032 . S
O50 C53 1.259 . S
O51 Mg42 2.114 . S
O51 C54 1.252 . S
O52 Mg42 2.251 . S
O52 Mg45 2.079 . S
O52 C54 1.273 . S
C53 O49 1.246 . S
C53 O50 1.259 . S
C54 O51 1.252 . S
C54 O52 1.273 . S
O55 Mg42 2.010 . S
O55 C47 1.249 . S
Mg56 O57 2.028 . S
Mg56 O63 1.986 . S
Mg56 O65 2.114 . S
Mg56 O66 2.251 . S
Mg56 O69 2.010 . S
O57 Mg56 2.028 . S
O57 C60 1.250 . S
O58 Mg59 2.028 . S
O58 C60 1.248 . S
Mg59 O58 2.028 . S
Mg59 O64 2.032 . S
Mg59 O66 2.079 . S
C60 O57 1.250 . S
C60 O58 1.248 . S
C61 O62 1.264 . S
C61 O69 1.249 . S
O62 C61 1.264 . S
O63 Mg56 1.986 . S
O63 C67 1.246 . S
O64 Mg59 2.032 . S
O64 C67 1.259 . S
O65 Mg56 2.114 . S
O65 C68 1.252 . S
O66 Mg56 2.251 . S
O66 Mg59 2.079 . S
O66 C68 1.273 . S
C67 O63 1.246 . S
C67 O64 1.259 . S
C68 O65 1.252 . S
C68 O66 1.273 . S
O69 Mg56 2.010 . S
O69 C61 1.249 . S
Mg70 O71 2.028 . S
Mg70 O77 1.986 . S
Mg70 O79 2.114 . S
Mg70 O80 2.251 . S
Mg70 O83 2.010 . S
O71 Mg70 2.028 . S
O71 C74 1.250 . S
O72 Mg73 2.028 . S
O72 C74 1.248 . S
Mg73 O72 2.028 . S
Mg73 O78 2.032 . S
Mg73 O80 2.079 . S
C74 O71 1.250 . S
C74 O72 1.248 . S
C75 O76 1.264 . S
C75 O83 1.249 . S
O76 C75 1.264 . S
O77 Mg70 1.986 . S
O77 C81 1.246 . S
O78 Mg73 2.032 . S
O78 C81 1.259 . S
O79 Mg70 2.114 . S
O79 C82 1.252 . S
O80 Mg70 2.251 . S
O80 Mg73 2.079 . S
O80 C82 1.273 . S
C81 O77 1.246 . S
C81 O78 1.259 . S
C82 O79 1.252 . S
C82 O80 1.273 . S
O83 Mg70 2.010 . S
O83 C75 1.249 . S
Mg84 O85 2.028 . S
Mg84 O91 1.986 . S
Mg84 O93 2.114 . S
Mg84 O94 2.251 . S
Mg84 O97 2.010 . S
O85 Mg84 2.028 . S
O85 C88 1.250 . S
O86 Mg87 2.028 . S
O86 C88 1.248 . S
Mg87 O86 2.028 . S
Mg87 O92 2.032 . S
Mg87 O94 2.079 . S
C88 O85 1.250 . S
C88 O86 1.248 . S
C89 O90 1.264 . S
C89 O97 1.249 . S
O90 C89 1.264 . S
O91 Mg84 1.986 . S
O91 C95 1.246 . S
O92 Mg87 2.032 . S
O92 C95 1.259 . S
O93 Mg84 2.114 . S
O93 C96 1.252 . S
O94 Mg84 2.251 . S
O94 Mg87 2.079 . S
O94 C96 1.273 . S
C95 O91 1.246 . S
C95 O92 1.259 . S
C96 O93 1.252 . S
C96 O94 1.273 . S
O97 Mg84 2.010 . S
O97 C89 1.249 . S
Mg98 O99 2.028 . S
Mg98 O105 1.986 . S
Mg98 O107 2.114 . S
Mg98 O108 2.251 . S
Mg98 O111 2.010 . S
O99 Mg98 2.028 . S
O99 C102 1.250 . S
O100 Mg101 2.028 . S
O100 C102 1.248 . S
Mg101 O100 2.028 . S
Mg101 O106 2.032 . S
Mg101 O108 2.079 . S
C102 O99 1.250 . S
C102 O100 1.248 . S
C103 O104 1.264 . S
C103 O111 1.249 . S
O104 C103 1.264 . S
O105 Mg98 1.986 . S
O105 C109 1.246 . S
O106 Mg101 2.032 . S
O106 C109 1.259 . S
O107 Mg98 2.114 . S
O107 C110 1.252 . S
O108 Mg98 2.251 . S
O108 Mg101 2.079 . S
O108 C110 1.273 . S
C109 O105 1.246 . S
C109 O106 1.259 . S
C110 O107 1.252 . S
C110 O108 1.273 . S
O111 Mg98 2.010 . S
O111 C103 1.249 . S
Mg112 O113 2.028 . S
Mg112 O119 1.986 . S
Mg112 O121 2.114 . S
Mg112 O122 2.251 . S
Mg112 O125 2.010 . S
O113 Mg112 2.028 . S
O113 C116 1.250 . S
O114 Mg115 2.028 . S
O114 C116 1.248 . S
Mg115 O114 2.028 . S
Mg115 O120 2.032 . S
Mg115 O122 2.079 . S
C116 O113 1.250 . S
C116 O114 1.248 . S
C117 O118 1.264 . S
C117 O125 1.249 . S
O118 C117 1.264 . S
O119 Mg112 1.986 . S
O119 C123 1.246 . S
O120 Mg115 2.032 . S
O120 C123 1.259 . S
O121 Mg112 2.114 . S
O121 C124 1.252 . S
O122 Mg112 2.251 . S
O122 Mg115 2.079 . S
O122 C124 1.273 . S
C123 O119 1.246 . S
C123 O120 1.259 . S
C124 O121 1.252 . S
C124 O122 1.273 . S
O125 Mg112 2.010 . S
O125 C117 1.249 . S
Mg126 O127 2.028 . S
Mg126 O133 1.986 . S
Mg126 O135 2.114 . S
Mg126 O136 2.251 . S
Mg126 O139 2.010 . S
O127 Mg126 2.028 . S
O127 C130 1.250 . S
O128 Mg129 2.028 . S
O128 C130 1.248 . S
Mg129 O128 2.028 . S
Mg129 O134 2.032 . S
Mg129 O136 2.079 . S
C130 O127 1.250 . S
C130 O128 1.248 . S
C131 O132 1.264 . S
C131 O139 1.249 . S
O132 C131 1.264 . S
O133 Mg126 1.986 . S
O133 C137 1.246 . S
O134 Mg129 2.032 . S
O134 C137 1.259 . S
O135 Mg126 2.114 . S
O135 C138 1.252 . S
O136 Mg126 2.251 . S
O136 Mg129 2.079 . S
O136 C138 1.273 . S
C137 O133 1.246 . S
C137 O134 1.259 . S
C138 O135 1.252 . S
C138 O136 1.273 . S
O139 Mg126 2.010 . S
O139 C131 1.249 . S
Mg140 O141 2.028 . S
Mg140 O147 1.986 . S
Mg140 O149 2.114 . S
Mg140 O150 2.251 . S
Mg140 O153 2.010 . S
O141 Mg140 2.028 . S
O141 C144 1.250 . S
O142 Mg143 2.028 . S
O142 C144 1.248 . S
Mg143 O142 2.028 . S
Mg143 O148 2.032 . S
Mg143 O150 2.079 . S
C144 O141 1.250 . S
C144 O142 1.248 . S
C145 O146 1.264 . S
C145 O153 1.249 . S
O146 C145 1.264 . S
O147 Mg140 1.986 . S
O147 C151 1.246 . S
O148 Mg143 2.032 . S
O148 C151 1.259 . S
O149 Mg140 2.114 . S
O149 C152 1.252 . S
O150 Mg140 2.251 . S
O150 Mg143 2.079 . S
O150 C152 1.273 . S
C151 O147 1.246 . S
C151 O148 1.259 . S
C152 O149 1.252 . S
C152 O150 1.273 . S
O153 Mg140 2.010 . S
O153 C145 1.249 . S
Mg154 O155 2.028 . S
Mg154 O161 1.986 . S
Mg154 O163 2.114 . S
Mg154 O164 2.251 . S
Mg154 O167 2.010 . S
O155 Mg154 2.028 . S
O155 C158 1.250 . S
O156 Mg157 2.028 . S
O156 C158 1.248 . S
Mg157 O156 2.028 . S
Mg157 O162 2.032 . S
Mg157 O164 2.079 . S
C158 O155 1.250 . S
C158 O156 1.248 . S
C159 O160 1.264 . S
C159 O167 1.249 . S
O160 C159 1.264 . S
O161 Mg154 1.986 . S
O161 C165 1.246 . S
O162 Mg157 2.032 . S
O162 C165 1.259 . S
O163 Mg154 2.114 . S
O163 C166 1.252 . S
O164 Mg154 2.251 . S
O164 Mg157 2.079 . S
O164 C166 1.273 . S
C165 O161 1.246 . S
C165 O162 1.259 . S
C166 O163 1.252 . S
C166 O164 1.273 . S
O167 Mg154 2.010 . S
O167 C159 1.249 . S
Mg168 O169 2.028 . S
Mg168 O175 1.986 . S
Mg168 O177 2.114 . S
Mg168 O178 2.251 . S
Mg168 O181 2.010 . S
O169 Mg168 2.028 . S
O169 C172 1.250 . S
O170 Mg171 2.028 . S
O170 C172 1.248 . S
Mg171 O170 2.028 . S
Mg171 O176 2.032 . S
Mg171 O178 2.079 . S
C172 O169 1.250 . S
C172 O170 1.248 . S
C173 O174 1.264 . S
C173 O181 1.249 . S
O174 C173 1.264 . S
O175 Mg168 1.986 . S
O175 C179 1.246 . S
O176 Mg171 2.032 . S
O176 C179 1.259 . S
O177 Mg168 2.114 . S
O177 C180 1.252 . S
O178 Mg168 2.251 . S
O178 Mg171 2.079 . S
O178 C180 1.273 . S
C179 O175 1.246 . S
C179 O176 1.259 . S
C180 O177 1.252 . S
C180 O178 1.273 . S
O181 Mg168 2.010 . S
O181 C173 1.249 . S
Mg182 O183 2.028 . S
Mg182 O189 1.986 . S
Mg182 O191 2.114 . S
Mg182 O192 2.251 . S
Mg182 O195 2.010 . S
O183 Mg182 2.028 . S
O183 C186 1.250 . S
O184 Mg185 2.028 . S
O184 C186 1.248 . S
Mg185 O184 2.028 . S
Mg185 O190 2.032 . S
Mg185 O192 2.079 . S
C186 O183 1.250 . S
C186 O184 1.248 . S
C187 O188 1.264 . S
C187 O195 1.249 . S
O188 C187 1.264 . S
O189 Mg182 1.986 . S
O189 C193 1.246 . S
O190 Mg185 2.032 . S
O190 C193 1.259 . S
O191 Mg182 2.114 . S
O191 C194 1.252 . S
O192 Mg182 2.251 . S
O192 Mg185 2.079 . S
O192 C194 1.273 . S
C193 O189 1.246 . S
C193 O190 1.259 . S
C194 O191 1.252 . S
C194 O192 1.273 . S
O195 Mg182 2.010 . S
O195 C187 1.249 . S
Mg196 O197 2.028 . S
Mg196 O203 1.986 . S
Mg196 O205 2.114 . S
Mg196 O206 2.251 . S
Mg196 O209 2.010 . S
O197 Mg196 2.028 . S
O197 C200 1.250 . S
O198 Mg199 2.028 . S
O198 C200 1.248 . S
Mg199 O198 2.028 . S
Mg199 O204 2.032 . S
Mg199 O206 2.079 . S
C200 O197 1.250 . S
C200 O198 1.248 . S
C201 O202 1.264 . S
C201 O209 1.249 . S
O202 C201 1.264 . S
O203 Mg196 1.986 . S
O203 C207 1.246 . S
O204 Mg199 2.032 . S
O204 C207 1.259 . S
O205 Mg196 2.114 . S
O205 C208 1.252 . S
O206 Mg196 2.251 . S
O206 Mg199 2.079 . S
O206 C208 1.273 . S
C207 O203 1.246 . S
C207 O204 1.259 . S
C208 O205 1.252 . S
C208 O206 1.273 . S
O209 Mg196 2.010 . S
O209 C201 1.249 . S
Mg210 O211 2.028 . S
Mg210 O217 1.986 . S
Mg210 O219 2.114 . S
Mg210 O220 2.251 . S
Mg210 O223 2.010 . S
O211 Mg210 2.028 . S
O211 C214 1.250 . S
O212 Mg213 2.028 . S
O212 C214 1.248 . S
Mg213 O212 2.028 . S
Mg213 O218 2.032 . S
Mg213 O220 2.079 . S
C214 O211 1.250 . S
C214 O212 1.248 . S
C215 O216 1.264 . S
C215 O223 1.249 . S
O216 C215 1.264 . S
O217 Mg210 1.986 . S
O217 C221 1.246 . S
O218 Mg213 2.032 . S
O218 C221 1.259 . S
O219 Mg210 2.114 . S
O219 C222 1.252 . S
O220 Mg210 2.251 . S
O220 Mg213 2.079 . S
O220 C222 1.273 . S
C221 O217 1.246 . S
C221 O218 1.259 . S
C222 O219 1.252 . S
C222 O220 1.273 . S
O223 Mg210 2.010 . S
O223 C215 1.249 . S
Mg224 O225 2.028 . S
Mg224 O231 1.986 . S
Mg224 O233 2.114 . S
Mg224 O234 2.251 . S
Mg224 O237 2.010 . S
O225 Mg224 2.028 . S
O225 C228 1.250 . S
O226 Mg227 2.028 . S
O226 C228 1.248 . S
Mg227 O226 2.028 . S
Mg227 O232 2.032 . S
Mg227 O234 2.079 . S
C228 O225 1.250 . S
C228 O226 1.248 . S
C229 O230 1.264 . S
C229 O237 1.249 . S
O230 C229 1.264 . S
O231 Mg224 1.986 . S
O231 C235 1.246 . S
O232 Mg227 2.032 . S
O232 C235 1.259 . S
O233 Mg224 2.114 . S
O233 C236 1.252 . S
O234 Mg224 2.251 . S
O234 Mg227 2.079 . S
O234 C236 1.273 . S
C235 O231 1.246 . S
C235 O232 1.259 . S
C236 O233 1.252 . S
C236 O234 1.273 . S
O237 Mg224 2.010 . S
O237 C229 1.249 . S
Mg238 O239 2.028 . S
Mg238 O245 1.986 . S
Mg238 O247 2.114 . S
Mg238 O248 2.251 . S
Mg238 O251 2.010 . S
O239 Mg238 2.028 . S
O239 C242 1.250 . S
O240 Mg241 2.028 . S
O240 C242 1.248 . S
Mg241 O240 2.028 . S
Mg241 O246 2.032 . S
Mg241 O248 2.079 . S
C242 O239 1.250 . S
C242 O240 1.248 . S
C243 O244 1.264 . S
C243 O251 1.249 . S
O244 C243 1.264 . S
O245 Mg238 1.986 . S
O245 C249 1.246 . S
O246 Mg241 2.032 . S
O246 C249 1.259 . S
O247 Mg238 2.114 . S
O247 C250 1.252 . S
O248 Mg238 2.251 . S
O248 Mg241 2.079 . S
O248 C250 1.273 . S
C249 O245 1.246 . S
C249 O246 1.259 . S
C250 O247 1.252 . S
C250 O248 1.273 . S
O251 Mg238 2.010 . S
O251 C243 1.249 . S
Mg252 O253 2.028 . S
Mg252 O259 1.986 . S
Mg252 O261 2.114 . S
Mg252 O262 2.251 . S
Mg252 O265 2.010 . S
O253 Mg252 2.028 . S
O253 C256 1.250 . S
O254 Mg255 2.028 . S
O254 C256 1.248 . S
Mg255 O254 2.028 . S
Mg255 O260 2.032 . S
Mg255 O262 2.079 . S
C256 O253 1.250 . S
C256 O254 1.248 . S
C257 O258 1.264 . S
C257 O265 1.249 . S
O258 C257 1.264 . S
O259 Mg252 1.986 . S
O259 C263 1.246 . S
O260 Mg255 2.032 . S
O260 C263 1.259 . S
O261 Mg252 2.114 . S
O261 C264 1.252 . S
O262 Mg252 2.251 . S
O262 Mg255 2.079 . S
O262 C264 1.273 . S
C263 O259 1.246 . S
C263 O260 1.259 . S
C264 O261 1.252 . S
C264 O262 1.273 . S
O265 Mg252 2.010 . S
O265 C257 1.249 . S
Mg266 O267 2.028 . S
Mg266 O273 1.986 . S
Mg266 O275 2.114 . S
Mg266 O276 2.251 . S
Mg266 O279 2.010 . S
O267 Mg266 2.028 . S
O267 C270 1.250 . S
O268 Mg269 2.028 . S
O268 C270 1.248 . S
Mg269 O268 2.028 . S
Mg269 O274 2.032 . S
Mg269 O276 2.079 . S
C270 O267 1.250 . S
C270 O268 1.248 . S
C271 O272 1.264 . S
C271 O279 1.249 . S
O272 C271 1.264 . S
O273 Mg266 1.986 . S
O273 C277 1.246 . S
O274 Mg269 2.032 . S
O274 C277 1.259 . S
O275 Mg266 2.114 . S
O275 C278 1.252 . S
O276 Mg266 2.251 . S
O276 Mg269 2.079 . S
O276 C278 1.273 . S
C277 O273 1.246 . S
C277 O274 1.259 . S
C278 O275 1.252 . S
C278 O276 1.273 . S
O279 Mg266 2.010 . S
O279 C271 1.249 . S
Mg280 O281 2.028 . S
Mg280 O287 1.986 . S
Mg280 O289 2.114 . S
Mg280 O290 2.251 . S
Mg280 O293 2.010 . S
O281 Mg280 2.028 . S
O281 C284 1.250 . S
O282 Mg283 2.028 . S
O282 C284 1.248 . S
Mg283 O282 2.028 . S
Mg283 O288 2.032 . S
Mg283 O290 2.079 . S
C284 O281 1.250 . S
C284 O282 1.248 . S
C285 O286 1.264 . S
C285 O293 1.249 . S
O286 C285 1.264 . S
O287 Mg280 1.986 . S
O287 C291 1.246 . S
O288 Mg283 2.032 . S
O288 C291 1.259 . S
O289 Mg280 2.114 . S
O289 C292 1.252 . S
O290 Mg280 2.251 . S
O290 Mg283 2.079 . S
O290 C292 1.273 . S
C291 O287 1.246 . S
C291 O288 1.259 . S
C292 O289 1.252 . S
C292 O290 1.273 . S
O293 Mg280 2.010 . S
O293 C285 1.249 . S
Mg294 O295 2.028 . S
Mg294 O301 1.986 . S
Mg294 O303 2.114 . S
Mg294 O304 2.251 . S
Mg294 O307 2.010 . S
O295 Mg294 2.028 . S
O295 C298 1.250 . S
O296 Mg297 2.028 . S
O296 C298 1.248 . S
Mg297 O296 2.028 . S
Mg297 O302 2.032 . S
Mg297 O304 2.079 . S
C298 O295 1.250 . S
C298 O296 1.248 . S
C299 O300 1.264 . S
C299 O307 1.249 . S
O300 C299 1.264 . S
O301 Mg294 1.986 . S
O301 C305 1.246 . S
O302 Mg297 2.032 . S
O302 C305 1.259 . S
O303 Mg294 2.114 . S
O303 C306 1.252 . S
O304 Mg294 2.251 . S
O304 Mg297 2.079 . S
O304 C306 1.273 . S
C305 O301 1.246 . S
C305 O302 1.259 . S
C306 O303 1.252 . S
C306 O304 1.273 . S
O307 Mg294 2.010 . S
O307 C299 1.249 . S
Mg308 O309 2.028 . S
Mg308 O315 1.986 . S
Mg308 O317 2.114 . S
Mg308 O318 2.251 . S
Mg308 O321 2.010 . S
O309 Mg308 2.028 . S
O309 C312 1.250 . S
O310 Mg311 2.028 . S
O310 C312 1.248 . S
Mg311 O310 2.028 . S
Mg311 O316 2.032 . S
Mg311 O318 2.079 . S
C312 O309 1.250 . S
C312 O310 1.248 . S
C313 O314 1.264 . S
C313 O321 1.249 . S
O314 C313 1.264 . S
O315 Mg308 1.986 . S
O315 C319 1.246 . S
O316 Mg311 2.032 . S
O316 C319 1.259 . S
O317 Mg308 2.114 . S
O317 C320 1.252 . S
O318 Mg308 2.251 . S
O318 Mg311 2.079 . S
O318 C320 1.273 . S
C319 O315 1.246 . S
C319 O316 1.259 . S
C320 O317 1.252 . S
C320 O318 1.273 . S
O321 Mg308 2.010 . S
O321 C313 1.249 . S
Mg322 O323 2.028 . S
Mg322 O329 1.986 . S
Mg322 O331 2.114 . S
Mg322 O332 2.251 . S
Mg322 O335 2.010 . S
O323 Mg322 2.028 . S
O323 C326 1.250 . S
O324 Mg325 2.028 . S
O324 C326 1.248 . S
Mg325 O324 2.028 . S
Mg325 O330 2.032 . S
Mg325 O332 2.079 . S
C326 O323 1.250 . S
C326 O324 1.248 . S
C327 O328 1.264 . S
C327 O335 1.249 . S
O328 C327 1.264 . S
O329 Mg322 1.986 . S
O329 C333 1.246 . S
O330 Mg325 2.032 . S
O330 C333 1.259 . S
O331 Mg322 2.114 . S
O331 C334 1.252 . S
O332 Mg322 2.251 . S
O332 Mg325 2.079 . S
O332 C334 1.273 . S
C333 O329 1.246 . S
C333 O330 1.259 . S
C334 O331 1.252 . S
C334 O332 1.273 . S
O335 Mg322 2.010 . S
O335 C327 1.249 . S
C336 C337 1.387 . S
C336 H340 0.950 . S
C336 C345 1.390 . S
C337 C336 1.387 . S
C337 C339 1.387 . S
H338 C345 0.950 . S
C339 C337 1.387 . S
C339 C341 1.390 . S
C339 H343 0.950 . S
H340 C336 0.950 . S
C341 C339 1.390 . S
C341 C342 1.387 . S
C341 H344 0.950 . S
C342 C341 1.387 . S
C342 C345 1.387 . S
H343 C339 0.950 . S
H344 C341 0.950 . S
C345 C336 1.390 . S
C345 H338 0.950 . S
C345 C342 1.387 . S
C346 C347 1.387 . S
C346 H350 0.950 . S
C346 C355 1.390 . S
C347 C346 1.387 . S
C347 C349 1.387 . S
H348 C355 0.950 . S
C349 C347 1.387 . S
C349 C351 1.390 . S
C349 H353 0.950 . S
H350 C346 0.950 . S
C351 C349 1.390 . S
C351 C352 1.387 . S
C351 H354 0.950 . S
C352 C351 1.387 . S
C352 C355 1.387 . S
H353 C349 0.950 . S
H354 C351 0.950 . S
C355 C346 1.390 . S
C355 H348 0.950 . S
C355 C352 1.387 . S
C356 C357 1.387 . S
C356 H360 0.950 . S
C356 C365 1.390 . S
C357 C356 1.387 . S
C357 C359 1.387 . S
H358 C365 0.950 . S
C359 C357 1.387 . S
C359 C361 1.390 . S
C359 H363 0.950 . S
H360 C356 0.950 . S
C361 C359 1.390 . S
C361 C362 1.387 . S
C361 H364 0.950 . S
C362 C361 1.387 . S
C362 C365 1.387 . S
H363 C359 0.950 . S
H364 C361 0.950 . S
C365 C356 1.390 . S
C365 H358 0.950 . S
C365 C362 1.387 . S
C366 C367 1.387 . S
C366 H370 0.950 . S
C366 C375 1.390 . S
C367 C366 1.387 . S
C367 C369 1.387 . S
H368 C375 0.950 . S
C369 C367 1.387 . S
C369 C371 1.390 . S
C369 H373 0.950 . S
H370 C366 0.950 . S
C371 C369 1.390 . S
C371 C372 1.387 . S
C371 H374 0.950 . S
C372 C371 1.387 . S
C372 C375 1.387 . S
H373 C369 0.950 . S
H374 C371 0.950 . S
C375 C366 1.390 . S
C375 H368 0.950 . S
C375 C372 1.387 . S
C376 C377 1.387 . S
C376 H380 0.950 . S
C376 C385 1.390 . S
C377 C376 1.387 . S
C377 C379 1.387 . S
H378 C385 0.950 . S
C379 C377 1.387 . S
C379 C381 1.390 . S
C379 H383 0.950 . S
H380 C376 0.950 . S
C381 C379 1.390 . S
C381 C382 1.387 . S
C381 H384 0.950 . S
C382 C381 1.387 . S
C382 C385 1.387 . S
H383 C379 0.950 . S
H384 C381 0.950 . S
C385 C376 1.390 . S
C385 H378 0.950 . S
C385 C382 1.387 . S
C386 C387 1.387 . S
C386 H390 0.950 . S
C386 C395 1.390 . S
C387 C386 1.387 . S
C387 C389 1.387 . S
H388 C395 0.950 . S
C389 C387 1.387 . S
C389 C391 1.390 . S
C389 H393 0.950 . S
H390 C386 0.950 . S
C391 C389 1.390 . S
C391 C392 1.387 . S
C391 H394 0.950 . S
C392 C391 1.387 . S
C392 C395 1.387 . S
H393 C389 0.950 . S
H394 C391 0.950 . S
C395 C386 1.390 . S
C395 H388 0.950 . S
C395 C392 1.387 . S
C396 C397 1.387 . S
C396 H400 0.950 . S
C396 C405 1.390 . S
C397 C396 1.387 . S
C397 C399 1.387 . S
H398 C405 0.950 . S
C399 C397 1.387 . S
C399 C401 1.390 . S
C399 H403 0.950 . S
H400 C396 0.950 . S
C401 C399 1.390 . S
C401 C402 1.387 . S
C401 H404 0.950 . S
C402 C401 1.387 . S
C402 C405 1.387 . S
H403 C399 0.950 . S
H404 C401 0.950 . S
C405 C396 1.390 . S
C405 H398 0.950 . S
C405 C402 1.387 . S
C406 C407 1.387 . S
C406 H410 0.950 . S
C406 C415 1.390 . S
C407 C406 1.387 . S
C407 C409 1.387 . S
H408 C415 0.950 . S
C409 C407 1.387 . S
C409 C411 1.390 . S
C409 H413 0.950 . S
H410 C406 0.950 . S
C411 C409 1.390 . S
C411 C412 1.387 . S
C411 H414 0.950 . S
C412 C411 1.387 . S
C412 C415 1.387 . S
H413 C409 0.950 . S
H414 C411 0.950 . S
C415 C406 1.390 . S
C415 H408 0.950 . S
C415 C412 1.387 . S
C416 C417 1.387 . S
C416 H420 0.950 . S
C416 C425 1.390 . S
C417 C416 1.387 . S
C417 C419 1.387 . S
H418 C425 0.950 . S
C419 C417 1.387 . S
C419 C421 1.390 . S
C419 H423 0.950 . S
H420 C416 0.950 . S
C421 C419 1.390 . S
C421 C422 1.387 . S
C421 H424 0.950 . S
C422 C421 1.387 . S
C422 C425 1.387 . S
H423 C419 0.950 . S
H424 C421 0.950 . S
C425 C416 1.390 . S
C425 H418 0.950 . S
C425 C422 1.387 . S
C426 C427 1.387 . S
C426 H430 0.950 . S
C426 C435 1.390 . S
C427 C426 1.387 . S
C427 C429 1.387 . S
H428 C435 0.950 . S
C429 C427 1.387 . S
C429 C431 1.390 . S
C429 H433 0.950 . S
H430 C426 0.950 . S
C431 C429 1.390 . S
C431 C432 1.387 . S
C431 H434 0.950 . S
C432 C431 1.387 . S
C432 C435 1.387 . S
H433 C429 0.950 . S
H434 C431 0.950 . S
C435 C426 1.390 . S
C435 H428 0.950 . S
C435 C432 1.387 . S
C436 C437 1.387 . S
C436 H440 0.950 . S
C436 C445 1.390 . S
C437 C436 1.387 . S
C437 C439 1.387 . S
H438 C445 0.950 . S
C439 C437 1.387 . S
C439 C441 1.390 . S
C439 H443 0.950 . S
H440 C436 0.950 . S
C441 C439 1.390 . S
C441 C442 1.387 . S
C441 H444 0.950 . S
C442 C441 1.387 . S
C442 C445 1.387 . S
H443 C439 0.950 . S
H444 C441 0.950 . S
C445 C436 1.390 . S
C445 H438 0.950 . S
C445 C442 1.387 . S
C446 C447 1.387 . S
C446 H450 0.950 . S
C446 C455 1.390 . S
C447 C446 1.387 . S
C447 C449 1.387 . S
H448 C455 0.950 . S
C449 C447 1.387 . S
C449 C451 1.390 . S
C449 H453 0.950 . S
H450 C446 0.950 . S
C451 C449 1.390 . S
C451 C452 1.387 . S
C451 H454 0.950 . S
C452 C451 1.387 . S
C452 C455 1.387 . S
H453 C449 0.950 . S
H454 C451 0.950 . S
C455 C446 1.390 . S
C455 H448 0.950 . S
C455 C452 1.387 . S
C456 C457 1.387 . S
C456 H460 0.950 . S
C456 C465 1.390 . S
C457 C456 1.387 . S
C457 C459 1.387 . S
H458 C465 0.950 . S
C459 C457 1.387 . S
C459 C461 1.390 . S
C459 H463 0.950 . S
H460 C456 0.950 . S
C461 C459 1.390 . S
C461 C462 1.387 . S
C461 H464 0.950 . S
C462 C461 1.387 . S
C462 C465 1.387 . S
H463 C459 0.950 . S
H464 C461 0.950 . S
C465 C456 1.390 . S
C465 H458 0.950 . S
C465 C462 1.387 . S
C466 C467 1.387 . S
C466 H470 0.950 . S
C466 C475 1.390 . S
C467 C466 1.387 . S
C467 C469 1.387 . S
H468 C475 0.950 . S
C469 C467 1.387 . S
C469 C471 1.390 . S
C469 H473 0.950 . S
H470 C466 0.950 . S
C471 C469 1.390 . S
C471 C472 1.387 . S
C471 H474 0.950 . S
C472 C471 1.387 . S
C472 C475 1.387 . S
H473 C469 0.950 . S
H474 C471 0.950 . S
C475 C466 1.390 . S
C475 H468 0.950 . S
C475 C472 1.387 . S
C476 C477 1.387 . S
C476 H480 0.950 . S
C476 C485 1.390 . S
C477 C476 1.387 . S
C477 C479 1.387 . S
H478 C485 0.950 . S
C479 C477 1.387 . S
C479 C481 1.390 . S
C479 H483 0.950 . S
H480 C476 0.950 . S
C481 C479 1.390 . S
C481 C482 1.387 . S
C481 H484 0.950 . S
C482 C481 1.387 . S
C482 C485 1.387 . S
H483 C479 0.950 . S
H484 C481 0.950 . S
C485 C476 1.390 . S
C485 H478 0.950 . S
C485 C482 1.387 . S
C486 C487 1.387 . S
C486 H490 0.950 . S
C486 C495 1.390 . S
C487 C486 1.387 . S
C487 C489 1.387 . S
H488 C495 0.950 . S
C489 C487 1.387 . S
C489 C491 1.390 . S
C489 H493 0.950 . S
H490 C486 0.950 . S
C491 C489 1.390 . S
C491 C492 1.387 . S
C491 H494 0.950 . S
C492 C491 1.387 . S
C492 C495 1.387 . S
H493 C489 0.950 . S
H494 C491 0.950 . S
C495 C486 1.390 . S
C495 H488 0.950 . S
C495 C492 1.387 . S
C496 C497 1.387 . S
C496 H500 0.950 . S
C496 C505 1.390 . S
C497 C496 1.387 . S
C497 C499 1.387 . S
H498 C505 0.950 . S
C499 C497 1.387 . S
C499 C501 1.390 . S
C499 H503 0.950 . S
H500 C496 0.950 . S
C501 C499 1.390 . S
C501 C502 1.387 . S
C501 H504 0.950 . S
C502 C501 1.387 . S
C502 C505 1.387 . S
H503 C499 0.950 . S
H504 C501 0.950 . S
C505 C496 1.390 . S
C505 H498 0.950 . S
C505 C502 1.387 . S
C506 C507 1.387 . S
C506 H510 0.950 . S
C506 C515 1.390 . S
C507 C506 1.387 . S
C507 C509 1.387 . S
H508 C515 0.950 . S
C509 C507 1.387 . S
C509 C511 1.390 . S
C509 H513 0.950 . S
H510 C506 0.950 . S
C511 C509 1.390 . S
C511 C512 1.387 . S
C511 H514 0.950 . S
C512 C511 1.387 . S
C512 C515 1.387 . S
H513 C509 0.950 . S
H514 C511 0.950 . S
C515 C506 1.390 . S
C515 H508 0.950 . S
C515 C512 1.387 . S
C516 C517 1.387 . S
C516 H520 0.950 . S
C516 C525 1.390 . S
C517 C516 1.387 . S
C517 C519 1.387 . S
H518 C525 0.950 . S
C519 C517 1.387 . S
C519 C521 1.390 . S
C519 H523 0.950 . S
H520 C516 0.950 . S
C521 C519 1.390 . S
C521 C522 1.387 . S
C521 H524 0.950 . S
C522 C521 1.387 . S
C522 C525 1.387 . S
H523 C519 0.950 . S
H524 C521 0.950 . S
C525 C516 1.390 . S
C525 H518 0.950 . S
C525 C522 1.387 . S
C526 C527 1.387 . S
C526 H530 0.950 . S
C526 C535 1.390 . S
C527 C526 1.387 . S
C527 C529 1.387 . S
H528 C535 0.950 . S
C529 C527 1.387 . S
C529 C531 1.390 . S
C529 H533 0.950 . S
H530 C526 0.950 . S
C531 C529 1.390 . S
C531 C532 1.387 . S
C531 H534 0.950 . S
C532 C531 1.387 . S
C532 C535 1.387 . S
H533 C529 0.950 . S
H534 C531 0.950 . S
C535 C526 1.390 . S
C535 H528 0.950 . S
C535 C532 1.387 . S
C536 C537 1.387 . S
C536 H540 0.950 . S
C536 C545 1.390 . S
C537 C536 1.387 . S
C537 C539 1.387 . S
H538 C545 0.950 . S
C539 C537 1.387 . S
C539 C541 1.390 . S
C539 H543 0.950 . S
H540 C536 0.950 . S
C541 C539 1.390 . S
C541 C542 1.387 . S
C541 H544 0.950 . S
C542 C541 1.387 . S
C542 C545 1.387 . S
H543 C539 0.950 . S
H544 C541 0.950 . S
C545 C536 1.390 . S
C545 H538 0.950 . S
C545 C542 1.387 . S
C546 C547 1.387 . S
C546 H550 0.950 . S
C546 C555 1.390 . S
C547 C546 1.387 . S
C547 C549 1.387 . S
H548 C555 0.950 . S
C549 C547 1.387 . S
C549 C551 1.390 . S
C549 H553 0.950 . S
H550 C546 0.950 . S
C551 C549 1.390 . S
C551 C552 1.387 . S
C551 H554 0.950 . S
C552 C551 1.387 . S
C552 C555 1.387 . S
H553 C549 0.950 . S
H554 C551 0.950 . S
C555 C546 1.390 . S
C555 H548 0.950 . S
C555 C552 1.387 . S
C556 C557 1.387 . S
C556 H560 0.950 . S
C556 C565 1.390 . S
C557 C556 1.387 . S
C557 C559 1.387 . S
H558 C565 0.950 . S
C559 C557 1.387 . S
C559 C561 1.390 . S
C559 H563 0.950 . S
H560 C556 0.950 . S
C561 C559 1.390 . S
C561 C562 1.387 . S
C561 H564 0.950 . S
C562 C561 1.387 . S
C562 C565 1.387 . S
H563 C559 0.950 . S
H564 C561 0.950 . S
C565 C556 1.390 . S
C565 H558 0.950 . S
C565 C562 1.387 . S
C566 C567 1.387 . S
C566 H570 0.950 . S
C566 C575 1.390 . S
C567 C566 1.387 . S
C567 C569 1.387 . S
H568 C575 0.950 . S
C569 C567 1.387 . S
C569 C571 1.390 . S
C569 H573 0.950 . S
H570 C566 0.950 . S
C571 C569 1.390 . S
C571 C572 1.387 . S
C571 H574 0.950 . S
C572 C571 1.387 . S
C572 C575 1.387 . S
H573 C569 0.950 . S
H574 C571 0.950 . S
C575 C566 1.390 . S
C575 H568 0.950 . S
C575 C572 1.387 . S
C576 C577 1.387 . S
C576 H580 0.950 . S
C576 C585 1.390 1_566 S
C577 C576 1.387 . S
C577 C579 1.387 . S
H578 C585 0.950 . S
C579 C577 1.387 . S
C579 C581 1.390 1_566 S
C579 H583 0.950 . S
H580 C576 0.950 . S
C581 C579 1.390 1_544 S
C581 C582 1.387 . S
C581 H584 0.950 . S
C582 C581 1.387 . S
C582 C585 1.387 . S
H583 C579 0.950 . S
H584 C581 0.950 . S
C585 C576 1.390 1_544 S
C585 H578 0.950 . S
C585 C582 1.387 . S
C586 C587 1.387 . S
C586 H590 0.950 . S
C586 C595 1.390 . S
C587 C586 1.387 . S
C587 C589 1.387 . S
H588 C595 0.950 . S
C589 C587 1.387 . S
C589 C591 1.390 . S
C589 H593 0.950 . S
H590 C586 0.950 . S
C591 C589 1.390 . S
C591 C592 1.387 . S
C591 H594 0.950 . S
C592 C591 1.387 . S
C592 C595 1.387 . S
H593 C589 0.950 . S
H594 C591 0.950 . S
C595 C586 1.390 . S
C595 H588 0.950 . S
C595 C592 1.387 . S
C596 C597 1.387 . S
C596 H600 0.950 . S
C596 C605 1.390 1_456 S
C597 C596 1.387 . S
C597 C599 1.387 . S
H598 C605 0.950 . S
C599 C597 1.387 . S
C599 C601 1.390 1_456 S
C599 H603 0.950 . S
H600 C596 0.950 . S
C601 C599 1.390 1_654 S
C601 C602 1.387 . S
C601 H604 0.950 . S
C602 C601 1.387 . S
C602 C605 1.387 . S
H603 C599 0.950 . S
H604 C601 0.950 . S
C605 C596 1.390 1_654 S
C605 H598 0.950 . S
C605 C602 1.387 . S
C606 C607 1.387 . S
C606 H610 0.950 . S
C606 C615 1.390 1_545 S
C607 C606 1.387 . S
C607 C609 1.387 . S
H608 C615 0.950 . S
C609 C607 1.387 . S
C609 C611 1.390 1_545 S
C609 H613 0.950 . S
H610 C606 0.950 . S
C611 C609 1.390 1_565 S
C611 C612 1.387 . S
C611 H614 0.950 . S
C612 C611 1.387 . S
C612 C615 1.387 . S
H613 C609 0.950 . S
H614 C611 0.950 . S
C615 C606 1.390 1_565 S
C615 H608 0.950 . S
C615 C612 1.387 . S
C616 C617 1.387 . S
C616 H620 0.950 . S
C616 C625 1.390 . S
C617 C616 1.387 . S
C617 C619 1.387 1_554 S
H618 C625 0.950 . S
C619 C617 1.387 1_556 S
C619 C621 1.390 . S
C619 H623 0.950 . S
H620 C616 0.950 . S
C621 C619 1.390 . S
C621 C622 1.387 . S
C621 H624 0.950 . S
C622 C621 1.387 . S
C622 C625 1.387 1_556 S
H623 C619 0.950 . S
H624 C621 0.950 . S
C625 C616 1.390 . S
C625 H618 0.950 . S
C625 C622 1.387 1_554 S
C626 C627 1.387 . S
C626 H630 0.950 . S
C626 C635 1.393 . S
C627 C626 1.387 . S
C627 C629 1.386 1_455 S
H628 C635 0.952 . S
C629 C627 1.386 1_655 S
C629 C631 1.393 . S
C629 H633 0.952 . S
H630 C626 0.950 . S
C631 C629 1.393 . S
C631 C632 1.387 . S
C631 H634 0.950 . S
C632 C631 1.387 . S
C632 C635 1.386 1_655 S
H633 C629 0.952 . S
H634 C631 0.950 . S
C635 C626 1.393 . S
C635 H628 0.952 . S
C635 C632 1.386 1_455 S
C636 C637 1.387 . S
C636 H640 0.950 . S
C636 C645 1.390 1_566 S
C637 C636 1.387 . S
C637 C639 1.387 . S
H638 C645 0.950 . S
C639 C637 1.387 . S
C639 C641 1.390 1_566 S
C639 H643 0.950 . S
H640 C636 0.950 . S
C641 C639 1.390 1_544 S
C641 C642 1.387 . S
C641 H644 0.950 . S
C642 C641 1.387 . S
C642 C645 1.387 . S
H643 C639 0.950 . S
H644 C641 0.950 . S
C645 C636 1.390 1_544 S
C645 H638 0.950 . S
C645 C642 1.387 . S
C646 C647 1.387 . S
C646 H650 0.950 . S
C646 C655 1.390 . S
C647 C646 1.387 . S
C647 C649 1.387 . S
H648 C655 0.950 . S
C649 C647 1.387 . S
C649 C651 1.390 . S
C649 H653 0.950 . S
H650 C646 0.950 . S
C651 C649 1.390 . S
C651 C652 1.387 . S
C651 H654 0.950 . S
C652 C651 1.387 . S
C652 C655 1.387 . S
H653 C649 0.950 . S
H654 C651 0.950 . S
C655 C646 1.390 . S
C655 H648 0.950 . S
C655 C652 1.387 . S
C656 C657 1.387 . S
C656 H660 0.950 . S
C656 C665 1.375 1_654 S
C657 C656 1.387 . S
C657 C659 1.403 . S
H658 C665 0.951 . S
C659 C657 1.403 . S
C659 C661 1.375 1_654 S
C659 H663 0.951 . S
H660 C656 0.950 . S
C661 C659 1.375 1_456 S
C661 C662 1.387 . S
C661 H664 0.950 . S
C662 C661 1.387 . S
C662 C665 1.403 . S
H663 C659 0.951 . S
H664 C661 0.950 . S
C665 C656 1.375 1_456 S
C665 H658 0.951 . S
C665 C662 1.403 . S
C666 C667 1.387 . S
C666 H670 0.950 . S
C666 C675 1.390 1_565 S
C667 C666 1.387 . S
C667 C669 1.387 . S
H668 C675 0.950 . S
C669 C667 1.387 . S
C669 C671 1.390 1_565 S
C669 H673 0.950 . S
H670 C666 0.950 . S
C671 C669 1.390 1_545 S
C671 C672 1.387 . S
C671 H674 0.950 . S
C672 C671 1.387 . S
C672 C675 1.387 . S
H673 C669 0.950 . S
H674 C671 0.950 . S
C675 C666 1.390 1_545 S
C675 H668 0.950 . S
C675 C672 1.387 . S
C676 C677 1.387 1_556 S
C676 H680 0.950 . S
C676 C685 1.390 . S
C677 C676 1.387 1_554 S
C677 C679 1.387 . S
H678 C685 0.950 . S
C679 C677 1.387 . S
C679 C681 1.390 . S
C679 H683 0.950 . S
H680 C676 0.950 . S
C681 C679 1.390 . S
C681 C682 1.387 1_554 S
C681 H684 0.950 . S
C682 C681 1.387 1_556 S
C682 C685 1.387 . S
H683 C679 0.950 . S
H684 C681 0.950 . S
C685 C676 1.390 . S
C685 H678 0.950 . S
C685 C682 1.387 . S
C686 C687 1.387 . S
C686 H690 0.950 . S
C686 C695 1.390 1_455 S
C687 C686 1.387 . S
C687 C689 1.387 . S
H688 C695 0.950 . S
C689 C687 1.387 . S
C689 C691 1.390 1_455 S
C689 H693 0.950 . S
H690 C686 0.950 . S
C691 C689 1.390 1_655 S
C691 C692 1.387 . S
C691 H694 0.950 . S
C692 C691 1.387 . S
C692 C695 1.387 . S
H693 C689 0.950 . S
H694 C691 0.950 . S
C695 C686 1.390 1_655 S
C695 H688 0.950 . S
C695 C692 1.387 . S
C696 C697 1.387 . S
C696 H700 0.950 . S
C696 C705 1.390 . S
C697 C696 1.387 . S
C697 C699 1.387 . S
H698 C705 0.950 . S
C699 C697 1.387 . S
C699 C701 1.390 . S
C699 H703 0.950 . S
H700 C696 0.950 . S
C701 C699 1.390 . S
C701 C702 1.387 . S
C701 H704 0.950 . S
C702 C701 1.387 . S
C702 C705 1.387 . S
H703 C699 0.950 . S
H704 C701 0.950 . S
C705 C696 1.390 . S
C705 H698 0.950 . S
C705 C702 1.387 . S
C706 C707 1.387 . S
C706 H710 0.950 . S
C706 C715 1.390 . S
C707 C706 1.387 . S
C707 C709 1.387 . S
H708 C715 0.950 . S
C709 C707 1.387 . S
C709 C711 1.390 . S
C709 H713 0.950 . S
H710 C706 0.950 . S
C711 C709 1.390 . S
C711 C712 1.387 . S
C711 H714 0.950 . S
C712 C711 1.387 . S
C712 C715 1.387 . S
H713 C709 0.950 . S
H714 C711 0.950 . S
C715 C706 1.390 . S
C715 H708 0.950 . S
C715 C712 1.387 . S
C716 C717 1.387 . S
C716 H720 0.950 . S
C716 C725 1.390 . S
C717 C716 1.387 . S
C717 C719 1.387 . S
H718 C725 0.950 . S
C719 C717 1.387 . S
C719 C721 1.390 . S
C719 H723 0.950 . S
H720 C716 0.950 . S
C721 C719 1.390 . S
C721 C722 1.387 . S
C721 H724 0.950 . S
C722 C721 1.387 . S
C722 C725 1.387 . S
H723 C719 0.950 . S
H724 C721 0.950 . S
C725 C716 1.390 . S
C725 H718 0.950 . S
C725 C722 1.387 . S
C726 C727 1.387 . S
C726 H730 0.950 . S
C726 C735 1.390 . S
C727 C726 1.387 . S
C727 C729 1.387 . S
H728 C735 0.950 . S
C729 C727 1.387 . S
C729 C731 1.390 . S
C729 H733 0.950 . S
H730 C726 0.950 . S
C731 C729 1.390 . S
C731 C732 1.387 . S
C731 H734 0.950 . S
C732 C731 1.387 . S
C732 C735 1.387 . S
H733 C729 0.950 . S
H734 C731 0.950 . S
C735 C726 1.390 . S
C735 H728 0.950 . S
C735 C732 1.387 . S
C736 C737 1.387 . S
C736 H740 0.950 . S
C736 C745 1.390 . S
C737 C736 1.387 . S
C737 C739 1.387 . S
H738 C745 0.950 . S
C739 C737 1.387 . S
C739 C741 1.390 . S
C739 H743 0.950 . S
H740 C736 0.950 . S
C741 C739 1.390 . S
C741 C742 1.387 . S
C741 H744 0.950 . S
C742 C741 1.387 . S
C742 C745 1.387 . S
H743 C739 0.950 . S
H744 C741 0.950 . S
C745 C736 1.390 . S
C745 H738 0.950 . S
C745 C742 1.387 . S
C746 C747 1.387 . S
C746 H750 0.950 . S
C746 C755 1.390 . S
C747 C746 1.387 . S
C747 C749 1.387 . S
H748 C755 0.950 . S
C749 C747 1.387 . S
C749 C751 1.390 . S
C749 H753 0.950 . S
H750 C746 0.950 . S
C751 C749 1.390 . S
C751 C752 1.387 . S
C751 H754 0.950 . S
C752 C751 1.387 . S
C752 C755 1.387 . S
H753 C749 0.950 . S
H754 C751 0.950 . S
C755 C746 1.390 . S
C755 H748 0.950 . S
C755 C752 1.387 . S
C756 C757 1.387 . S
C756 H760 0.950 . S
C756 C765 1.390 . S
C757 C756 1.387 . S
C757 C759 1.387 . S
H758 C765 0.950 . S
C759 C757 1.387 . S
C759 C761 1.390 . S
C759 H763 0.950 . S
H760 C756 0.950 . S
C761 C759 1.390 . S
C761 C762 1.387 . S
C761 H764 0.950 . S
C762 C761 1.387 . S
C762 C765 1.387 . S
H763 C759 0.950 . S
H764 C761 0.950 . S
C765 C756 1.390 . S
C765 H758 0.950 . S
C765 C762 1.387 . S
C766 C767 1.387 . S
C766 H770 0.950 . S
C766 C775 1.390 . S
C767 C766 1.387 . S
C767 C769 1.387 . S
H768 C775 0.950 . S
C769 C767 1.387 . S
C769 C771 1.390 . S
C769 H773 0.950 . S
H770 C766 0.950 . S
C771 C769 1.390 . S
C771 C772 1.387 . S
C771 H774 0.950 . S
C772 C771 1.387 . S
C772 C775 1.387 . S
H773 C769 0.950 . S
H774 C771 0.950 . S
C775 C766 1.390 . S
C775 H768 0.950 . S
C775 C772 1.387 . S
C776 C777 1.387 . S
C776 H780 0.950 . S
C776 C785 1.390 . S
C777 C776 1.387 . S
C777 C779 1.387 . S
H778 C785 0.950 . S
C779 C777 1.387 . S
C779 C781 1.390 . S
C779 H783 0.950 . S
H780 C776 0.950 . S
C781 C779 1.390 . S
C781 C782 1.387 . S
C781 H784 0.950 . S
C782 C781 1.387 . S
C782 C785 1.387 . S
H783 C779 0.950 . S
H784 C781 0.950 . S
C785 C776 1.390 . S
C785 H778 0.950 . S
C785 C782 1.387 . S
C786 C787 1.387 . S
C786 H790 0.950 . S
C786 C795 1.390 . S
C787 C786 1.387 . S
C787 C789 1.387 . S
H788 C795 0.950 . S
C789 C787 1.387 . S
C789 C791 1.390 . S
C789 H793 0.950 . S
H790 C786 0.950 . S
C791 C789 1.390 . S
C791 C792 1.387 . S
C791 H794 0.950 . S
C792 C791 1.387 . S
C792 C795 1.387 . S
H793 C789 0.950 . S
H794 C791 0.950 . S
C795 C786 1.390 . S
C795 H788 0.950 . S
C795 C792 1.387 . S
C796 C797 1.387 . S
C796 H800 0.950 . S
C796 C805 1.390 . S
C797 C796 1.387 . S
C797 C799 1.387 . S
H798 C805 0.950 . S
C799 C797 1.387 . S
C799 C801 1.390 . S
C799 H803 0.950 . S
H800 C796 0.950 . S
C801 C799 1.390 . S
C801 C802 1.387 . S
C801 H804 0.950 . S
C802 C801 1.387 . S
C802 C805 1.387 . S
H803 C799 0.950 . S
H804 C801 0.950 . S
C805 C796 1.390 . S
C805 H798 0.950 . S
C805 C802 1.387 . S
C806 C807 1.387 . S
C806 H810 0.950 . S
C806 C815 1.390 . S
C807 C806 1.387 . S
C807 C809 1.387 . S
H808 C815 0.950 . S
C809 C807 1.387 . S
C809 C811 1.390 . S
C809 H813 0.950 . S
H810 C806 0.950 . S
C811 C809 1.390 . S
C811 C812 1.387 . S
C811 H814 0.950 . S
C812 C811 1.387 . S
C812 C815 1.387 . S
H813 C809 0.950 . S
H814 C811 0.950 . S
C815 C806 1.390 . S
C815 H808 0.950 . S
C815 C812 1.387 . S
C337 C222 1.444 . S
C342 C12 1.443 . S
C347 C26 1.443 . S
C352 C236 1.444 . S
C357 C40 1.444 . S
C362 C250 1.443 . S
C367 C54 1.443 . S
C372 C180 1.443 . S
C377 C194 1.443 . S
C382 C68 1.443 . S
C387 C82 1.443 . S
C392 C208 1.444 . S
C397 C306 1.443 . S
C402 C96 1.444 . S
C407 C110 1.443 . S
C412 C320 1.443 . S
C417 C124 1.444 . S
C422 C334 1.443 . S
C427 C264 1.443 . S
C432 C138 1.443 . S
C437 C152 1.444 . S
C442 C278 1.443 . S
C447 C292 1.443 . S
C452 C166 1.444 . S
C457 C11 1.241 . S
C462 C333 1.239 . S
C467 C263 1.240 . S
C472 C25 1.241 . S
C477 C39 1.239 . S
C482 C277 1.241 . S
C487 C291 1.239 . S
C492 C53 1.241 . S
C497 C67 1.240 . S
C502 C305 1.240 . S
C507 C319 1.241 . S
C512 C81 1.239 . S
C517 C95 1.240 . S
C522 C193 1.241 . S
C527 C207 1.241 . S
C532 C109 1.239 . S
C537 C221 1.239 . S
C542 C123 1.241 . S
C547 C235 1.239 . S
C552 C137 1.242 . S
C557 C151 1.241 . S
C562 C249 1.239 . S
C567 C165 1.239 . S
C572 C179 1.241 . S
C577 C103 1.148 . S
C582 C5 1.148 . S
C587 C117 1.148 . S
C592 C19 1.148 . S
C597 C131 1.149 . S
C602 C33 1.147 . S
C607 C145 1.148 . S
C612 C47 1.148 . S
C617 C61 1.148 . S
C622 C159 1.144 . S
C627 C75 1.144 . S
C632 C89 1.149 . S
C637 C173 1.148 . S
C642 C271 1.148 . S
C647 C187 1.144 . S
C652 C285 1.150 . S
C657 C299 1.145 . S
C662 C201 1.147 . S
C667 C313 1.146 . S
C672 C215 1.146 . S
C677 C327 1.149 . S
C682 C229 1.146 . S
C687 C257 1.146 . S
C692 C243 1.149 . S
C697 C4 1.399 . S
C702 C270 1.396 . S
C707 C284 1.398 . S
C712 C18 1.397 . S
C717 C32 1.398 . S
C722 C298 1.397 . S
C727 C312 1.397 . S
C732 C46 1.397 . S
C737 C60 1.397 . S
C742 C326 1.398 . S
C747 C256 1.397 . S
C752 C74 1.398 . S
C757 C88 1.397 . S
C762 C242 1.398 . S
C767 C172 1.399 . S
C772 C102 1.396 . S
C777 C116 1.398 . S
C782 C186 1.397 . S
C787 C130 1.398 . S
C792 C200 1.397 . S
C797 C144 1.398 . S
C802 C214 1.397 . S
C807 C158 1.398 . S
C812 C228 1.397 . S
