# Generated by pormake.
# Topology yfh, (5)-cn, num edge types: 1
# Building blocks:
#     Node 0, Type 0, BuildingBlock: BEQFEK_clean_sbu_0, # of connection points: 5
#     Node 1, Type 0, BuildingBlock: BEQFEK_clean_sbu_0, # of connection points: 5
#     Node 2, Type 0, BuildingBlock: BEQFEK_clean_sbu_0, # of connection points: 5
#     Node 3, Type 0, BuildingBlock: BEQFEK_clean_sbu_0, # of connection points: 5
#     Node 4, Type 0, BuildingBlock: BEQFEK_clean_sbu_0, # of connection points: 5
#     Node 5, Type 0, BuildingBlock: BEQFEK_clean_sbu_0, # of connection points: 5
#     Node 6, Type 0, BuildingBlock: BEQFEK_clean_sbu_0, # of connection points: 5
#     Node 7, Type 0, BuildingBlock: BEQFEK_clean_sbu_0, # of connection points: 5
#     Edge 8, Type (0, 0), BuildingBlock: KIFKEQ_clean_linker_1, # of connection points: 2
#     Edge 9, Type (0, 0), BuildingBlock: KIFKEQ_clean_linker_1, # of connection points: 2
#     Edge 10, Type (0, 0), BuildingBlock: KIFKEQ_clean_linker_1, # of connection points: 2
#     Edge 11, Type (0, 0), BuildingBlock: KIFKEQ_clean_linker_1, # of connection points: 2
#     Edge 12, Type (0, 0), BuildingBlock: KIFKEQ_clean_linker_1, # of connection points: 2
#     Edge 13, Type (0, 0), BuildingBlock: KIFKEQ_clean_linker_1, # of connection points: 2
#     Edge 14, Type (0, 0), BuildingBlock: KIFKEQ_clean_linker_1, # of connection points: 2
#     Edge 15, Type (0, 0), BuildingBlock: KIFKEQ_clean_linker_1, # of connection points: 2
#     Edge 16, Type (0, 0), BuildingBlock: KIFKEQ_clean_linker_1, # of connection points: 2
#     Edge 17, Type (0, 0), BuildingBlock: KIFKEQ_clean_linker_1, # of connection points: 2
#     Edge 18, Type (0, 0), BuildingBlock: KIFKEQ_clean_linker_1, # of connection points: 2
#     Edge 19, Type (0, 0), BuildingBlock: KIFKEQ_clean_linker_1, # of connection points: 2
#     Edge 20, Type (0, 0), BuildingBlock: KIFKEQ_clean_linker_1, # of connection points: 2
#     Edge 21, Type (0, 0), BuildingBlock: KIFKEQ_clean_linker_1, # of connection points: 2
#     Edge 22, Type (0, 0), BuildingBlock: KIFKEQ_clean_linker_1, # of connection points: 2
#     Edge 23, Type (0, 0), BuildingBlock: KIFKEQ_clean_linker_1, # of connection points: 2
#     Edge 24, Type (0, 0), BuildingBlock: KIFKEQ_clean_linker_1, # of connection points: 2
#     Edge 25, Type (0, 0), BuildingBlock: KIFKEQ_clean_linker_1, # of connection points: 2
#     Edge 26, Type (0, 0), BuildingBlock: KIFKEQ_clean_linker_1, # of connection points: 2
#     Edge 27, Type (0, 0), BuildingBlock: KIFKEQ_clean_linker_1, # of connection points: 2
# Relax obj value: 0.471
# Max RMSD: 0.266
# Mean RMSD: 0.266
data_MOF--net-yfh--node1-BEQFEK_clean_sbu_0--edge1-KIFKEQ_clean_linker_1
_symmetry_space_group_name_H-M    P1
_symmetry_Int_Tables_number       1
_symmetry_cell_setting            triclinic
loop_
_symmetry_equiv_pos_as_xyz
'x, y, z'
_cell_length_a     29.792465
_cell_length_b     29.781996
_cell_length_c     58.649758
_cell_angle_alpha  89.853102
_cell_angle_beta   89.993333
_cell_angle_gamma 90.019598
loop_
_atom_site_label
_atom_site_type_symbol
_atom_site_fract_x
_atom_site_fract_y
_atom_site_fract_z
_atom_type_partial_charge
Co0 Co 0.23174 0.96069 0.05189 0.0
Co1 Co 0.32483 0.95901 0.0767 0.0
C2 C 0.25955 0.03413 0.08373 0.0
O3 O 0.23125 0.0168 0.0701 0.0
O4 O 0.29679 0.01494 0.08788 0.0
C5 C 0.13776 0.97452 0.04483 0.0
O6 O 0.13973 0.99169 0.06541 0.0
C7 C 0.3825 0.95344 0.11669 0.0
C8 C 0.4482 0.93573 0.10178 0.0
C9 C 0.42676 0.9435 0.12242 0.0
N10 N 0.37831 0.95122 0.09392 0.0
N11 N 0.41781 0.94135 0.08505 0.0
C12 C 0.34354 0.96131 0.13232 0.0
H13 H 0.34491 0.99626 0.13878 0.0
H14 H 0.31135 0.95675 0.12309 0.0
H15 H 0.34477 0.93793 0.14707 0.0
C16 C 0.22381 0.87143 0.07395 0.0
N17 N 0.24587 0.91016 0.07008 0.0
N18 N 0.28559 0.90842 0.07992 0.0
C19 C 0.29031 0.86799 0.09009 0.0
C20 C 0.2512 0.84331 0.08675 0.0
C21 C 0.17876 0.86076 0.06408 0.0
H22 H 0.17905 0.86789 0.04551 0.0
H23 H 0.15321 0.88292 0.07198 0.0
H24 H 0.16932 0.82515 0.06691 0.0
O25 O 0.27614 0.96606 0.02696 0.0
O26 O 0.34231 0.96704 0.04439 0.0
H27 H 0.36184 0.86236 0.0931 0.0
H28 H 0.33143 0.81723 0.10678 0.0
C29 C 0.33131 0.85363 0.10297 0.0
H30 H 0.33245 0.87164 0.11943 0.0
H31 H 0.42373 0.93733 0.06764 0.0
O32 O 0.17255 0.95598 0.03657 0.0
C33 C 0.31877 0.96861 0.0263 0.0
Co34 Co 0.51579 0.73234 0.30016 0.0
Co35 Co 0.51686 0.82337 0.32667 0.0
C36 C 0.44242 0.75601 0.3325 0.0
O37 O 0.46078 0.72802 0.31905 0.0
O38 O 0.4605 0.79387 0.33656 0.0
C39 C 0.51246 0.63697 0.29062 0.0
O40 O 0.50434 0.63216 0.31251 0.0
C41 C 0.51868 0.87703 0.36808 0.0
C42 C 0.54891 0.94073 0.35637 0.0
C43 C 0.53412 0.91829 0.37568 0.0
N44 N 0.52501 0.8748 0.34545 0.0
N45 N 0.54213 0.91338 0.33843 0.0
C46 C 0.49839 0.83985 0.38193 0.0
H47 H 0.51429 0.80736 0.37745 0.0
H48 H 0.50108 0.846 0.40051 0.0
H49 H 0.4623 0.83716 0.37756 0.0
C50 C 0.60665 0.72471 0.32058 0.0
N51 N 0.56707 0.74586 0.31782 0.0
N52 N 0.56736 0.78362 0.32945 0.0
C53 C 0.60702 0.78719 0.34043 0.0
C54 C 0.63345 0.7501 0.33507 0.0
C55 C 0.61954 0.68293 0.30806 0.0
H56 H 0.60608 0.6841 0.29044 0.0
H57 H 0.60465 0.65346 0.31686 0.0
H58 H 0.65651 0.67879 0.3073 0.0
O59 O 0.50764 0.77897 0.27682 0.0
O60 O 0.51022 0.84453 0.29459 0.0
H61 H 0.61838 0.85679 0.34754 0.0
H62 H 0.65068 0.81915 0.36545 0.0
C63 C 0.61815 0.8242 0.35673 0.0
H64 H 0.59212 0.82549 0.3701 0.0
H65 H 0.551 0.92026 0.32157 0.0
O66 O 0.52097 0.67584 0.28277 0.0
C67 C 0.50643 0.82164 0.27638 0.0
Co68 Co 0.75234 0.01913 0.551 0.0
Co69 Co 0.65994 0.02322 0.57615 0.0
C70 C 0.72675 0.94813 0.58391 0.0
O71 O 0.75619 0.96543 0.57084 0.0
O72 O 0.68885 0.96694 0.58688 0.0
C73 C 0.8474 0.01262 0.54069 0.0
O74 O 0.85241 0.00261 0.56237 0.0
C75 C 0.60757 0.02903 0.61769 0.0
C76 C 0.54103 0.05123 0.60547 0.0
C77 C 0.5652 0.04156 0.62506 0.0
N78 N 0.60865 0.03192 0.59487 0.0
N79 N 0.56856 0.0444 0.58758 0.0
C80 C 0.64652 0.01349 0.63182 0.0
H81 H 0.65245 0.97737 0.62839 0.0
H82 H 0.67736 0.03182 0.62671 0.0
H83 H 0.64037 0.01747 0.65034 0.0
C84 C 0.76119 0.11027 0.57122 0.0
N85 N 0.73884 0.07149 0.56793 0.0
N86 N 0.69957 0.0737 0.57819 0.0
C87 C 0.6955 0.11433 0.58811 0.0
C88 C 0.73449 0.13882 0.5841 0.0
C89 C 0.8062 0.12037 0.56112 0.0
H90 H 0.80638 0.11088 0.54285 0.0
H91 H 0.832 0.09982 0.56994 0.0
H92 H 0.81496 0.15643 0.56274 0.0
O93 O 0.70575 0.0088 0.52755 0.0
O94 O 0.63941 0.01491 0.54441 0.0
H95 H 0.62437 0.12173 0.5921 0.0
H96 H 0.65663 0.16475 0.60632 0.0
C97 C 0.65554 0.12873 0.60177 0.0
H98 H 0.65459 0.10928 0.61786 0.0
H99 H 0.56044 0.04964 0.57047 0.0
O100 O 0.80878 0.02354 0.53335 0.0
C101 C 0.66306 0.00846 0.52665 0.0
Co102 Co 0.46201 0.25395 0.80114 0.0
Co103 Co 0.45468 0.16062 0.82587 0.0
C104 C 0.53234 0.22416 0.83366 0.0
O105 O 0.51587 0.25469 0.82093 0.0
O106 O 0.51233 0.18677 0.83648 0.0
C107 C 0.4702 0.34956 0.79126 0.0
O108 O 0.47954 0.35454 0.813 0.0
C109 C 0.45039 0.10076 0.8657 0.0
C110 C 0.40796 0.04553 0.85283 0.0
C111 C 0.42844 0.06168 0.87238 0.0
N112 N 0.44178 0.10811 0.8435 0.0
N113 N 0.41732 0.0744 0.83578 0.0
C114 C 0.47955 0.13063 0.87991 0.0
H115 H 0.51117 0.13764 0.87067 0.0
H116 H 0.46218 0.16307 0.88282 0.0
H117 H 0.48846 0.11486 0.89644 0.0
C118 C 0.37121 0.26512 0.82123 0.0
N119 N 0.40943 0.24177 0.81803 0.0
N120 N 0.40647 0.20287 0.82866 0.0
C121 C 0.36628 0.20052 0.83919 0.0
C122 C 0.34249 0.23966 0.8347 0.0
C123 C 0.36163 0.3096 0.81037 0.0
H124 H 0.38148 0.33591 0.81915 0.0
H125 H 0.32548 0.31828 0.81136 0.0
H126 H 0.37221 0.30896 0.79224 0.0
O127 O 0.4703 0.20814 0.77741 0.0
O128 O 0.4621 0.14145 0.79373 0.0
H129 H 0.31998 0.16979 0.86325 0.0
H130 H 0.37793 0.15572 0.86707 0.0
C131 C 0.3517 0.16239 0.85414 0.0
H132 H 0.34716 0.13185 0.84363 0.0
H133 H 0.40529 0.07218 0.81911 0.0
O134 O 0.4595 0.31097 0.78386 0.0
C135 C 0.4692 0.16554 0.77614 0.0
Co136 Co 0.75671 0.52016 0.68052 0.0
Co137 Co 0.8536 0.52229 0.66024 0.0
C138 C 0.79147 0.44514 0.6513 0.0
O139 O 0.76016 0.46313 0.66294 0.0
O140 O 0.82938 0.46436 0.64902 0.0
C141 C 0.65927 0.51327 0.68458 0.0
O142 O 0.65927 0.50021 0.6632 0.0
C143 C 0.92083 0.52567 0.62427 0.0
C144 C 0.97629 0.56221 0.641 0.0
C145 C 0.96269 0.54438 0.62033 0.0
N146 N 0.91008 0.53236 0.6462 0.0
N147 N 0.94385 0.5531 0.6563 0.0
C148 C 0.88871 0.50787 0.60684 0.0
H149 H 0.85362 0.51083 0.61298 0.0
H150 H 0.89229 0.52615 0.59043 0.0
H151 H 0.89623 0.4719 0.60378 0.0
C152 C 0.75141 0.60868 0.65753 0.0
N153 N 0.77281 0.57 0.66236 0.0
N154 N 0.81365 0.57131 0.65379 0.0
C155 C 0.81938 0.61104 0.64304 0.0
C156 C 0.7802 0.63609 0.64511 0.0
C157 C 0.70595 0.62045 0.66658 0.0
H158 H 0.70377 0.61096 0.68485 0.0
H159 H 0.68019 0.60097 0.65718 0.0
H160 H 0.69869 0.65681 0.66479 0.0
O161 O 0.79636 0.51852 0.70736 0.0
O162 O 0.86549 0.51828 0.69331 0.0
H163 H 0.88982 0.6252 0.64285 0.0
H164 H 0.85818 0.65762 0.62227 0.0
C165 C 0.86133 0.62445 0.6307 0.0
H166 H 0.86871 0.5994 0.61734 0.0
H167 H 0.94357 0.56346 0.67329 0.0
O168 O 0.69597 0.52506 0.69382 0.0
C169 C 0.83865 0.51793 0.71015 0.0
Co170 Co 0.96137 0.25182 0.93003 0.0
Co171 Co 0.95543 0.34923 0.91008 0.0
C172 C 0.03456 0.29023 0.90068 0.0
O173 O 0.01764 0.25809 0.91217 0.0
O174 O 0.01416 0.32755 0.89862 0.0
C175 C 0.9799 0.15731 0.93312 0.0
O176 O 0.00085 0.16402 0.91369 0.0
C177 C 0.95093 0.417 0.87439 0.0
C178 C 0.91317 0.4716 0.89113 0.0
C179 C 0.93192 0.45876 0.87053 0.0
N180 N 0.94364 0.40562 0.89622 0.0
N181 N 0.92204 0.43883 0.90632 0.0
C182 C 0.96987 0.38558 0.85696 0.0
H183 H 0.96681 0.35026 0.86282 0.0
H184 H 0.95243 0.38953 0.84036 0.0
H185 H 0.00594 0.39343 0.85442 0.0
C186 C 0.87256 0.24452 0.90758 0.0
N187 N 0.91069 0.26699 0.91224 0.0
N188 N 0.90808 0.30782 0.90367 0.0
C189 C 0.86807 0.31255 0.89318 0.0
C190 C 0.84414 0.2727 0.89539 0.0
C191 C 0.86239 0.19854 0.91654 0.0
H192 H 0.87043 0.19703 0.935 0.0
H193 H 0.88412 0.1738 0.90773 0.0
H194 H 0.82668 0.1893 0.914 0.0
O195 O 0.96377 0.2909 0.95715 0.0
O196 O 0.95878 0.35998 0.94318 0.0
H197 H 0.85118 0.38238 0.89345 0.0
H198 H 0.8203 0.35013 0.87258 0.0
C199 C 0.85322 0.35434 0.8811 0.0
H200 H 0.87816 0.3632 0.86787 0.0
H201 H 0.91128 0.43805 0.92325 0.0
O202 O 0.95847 0.18959 0.94214 0.0
C203 C 0.96203 0.33321 0.96002 0.0
Co204 Co 0.22774 0.46036 0.18167 0.0
Co205 Co 0.1314 0.45807 0.1608 0.0
C206 C 0.1951 0.53504 0.15227 0.0
O207 O 0.22631 0.51694 0.1639 0.0
O208 O 0.15711 0.51597 0.15005 0.0
C209 C 0.32395 0.46894 0.18656 0.0
O210 O 0.32293 0.4843 0.16555 0.0
C211 C 0.07092 0.45252 0.1224 0.0
C212 C 0.00645 0.43328 0.1383 0.0
C213 C 0.02669 0.44165 0.11741 0.0
N214 N 0.07642 0.45055 0.14506 0.0
N215 N 0.03767 0.43978 0.15456 0.0
C216 C 0.1089 0.46005 0.10609 0.0
H217 H 0.14165 0.45538 0.11478 0.0
H218 H 0.10647 0.43668 0.09143 0.0
H219 H 0.10733 0.49498 0.09953 0.0
C220 C 0.23377 0.37247 0.15804 0.0
N221 N 0.21191 0.41061 0.16334 0.0
N222 N 0.17082 0.40881 0.15511 0.0
C223 C 0.165 0.36894 0.14465 0.0
C224 C 0.20478 0.34477 0.14598 0.0
C225 C 0.28157 0.36334 0.16433 0.0
H226 H 0.30253 0.39263 0.15954 0.0
H227 H 0.2948 0.33307 0.15565 0.0
H228 H 0.28405 0.35885 0.18307 0.0
O229 O 0.18625 0.4641 0.20803 0.0
O230 O 0.11762 0.46101 0.1935 0.0
H231 H 0.12007 0.31489 0.13538 0.0
H232 H 0.11571 0.36487 0.11826 0.0
C233 C 0.12094 0.35212 0.13583 0.0
H234 H 0.09318 0.36415 0.14679 0.0
H235 H 0.03293 0.43538 0.17206 0.0
O236 O 0.28795 0.45454 0.19561 0.0
C237 C 0.14381 0.46341 0.21056 0.0
Co238 Co 0.01713 0.72643 0.42951 0.0
Co239 Co 0.01655 0.62843 0.41054 0.0
C240 C 0.94112 0.6933 0.40149 0.0
O241 O 0.96038 0.72542 0.41186 0.0
O242 O 0.95867 0.65448 0.40027 0.0
C243 C 0.00937 0.82303 0.43405 0.0
O244 O 0.99242 0.82195 0.41337 0.0
C245 C 0.02063 0.56743 0.37251 0.0
C246 C 0.03856 0.50263 0.38851 0.0
C247 C 0.03073 0.52301 0.36758 0.0
N248 N 0.02251 0.57291 0.39515 0.0
N249 N 0.03246 0.53397 0.40473 0.0
C250 C 0.01424 0.60556 0.35612 0.0
H251 H 0.01894 0.63826 0.36482 0.0
H252 H 0.03817 0.60289 0.34168 0.0
H253 H 0.9796 0.60441 0.34922 0.0
C254 C 0.10426 0.72918 0.40532 0.0
N255 N 0.06576 0.7085 0.41113 0.0
N256 N 0.06666 0.66671 0.40385 0.0
C257 C 0.10647 0.65925 0.39355 0.0
C258 C 0.13145 0.69865 0.39398 0.0
C259 C 0.11436 0.77725 0.4106 0.0
H260 H 0.12186 0.78049 0.42905 0.0
H261 H 0.08451 0.79814 0.40679 0.0
H262 H 0.14326 0.78991 0.40053 0.0
O263 O 0.01423 0.68609 0.4565 0.0
O264 O 0.01376 0.61622 0.44334 0.0
H265 H 0.15971 0.61239 0.3857 0.0
H266 H 0.11021 0.60772 0.36832 0.0
C267 C 0.12251 0.61411 0.38585 0.0
H268 H 0.10947 0.58755 0.39733 0.0
H269 H 0.03674 0.5292 0.42223 0.0
O270 O 0.02447 0.78704 0.44284 0.0
C271 C 0.01344 0.64383 0.45982 0.0
H272 H 0.1195 0.94075 0.00244 0.0
H273 H 0.07162 0.03608 0.0522 0.0
H274 H 0.06876 0.97268 0.9741 0.0
H275 H 0.02271 0.06925 0.02383 0.0
H276 H 0.93655 0.12818 0.97155 0.0
H277 H 0.96235 0.07087 -0.00173 0.0
H278 H 0.07231 0.03939 0.95289 0.0
H279 H 0.04532 0.0949 0.92594 0.0
C280 C 0.09756 0.968 0.00744 0.0
C281 C 0.10018 0.98641 0.02945 0.0
C282 C 0.06869 0.98656 0.99115 0.0
C283 C 0.04226 0.0243 -0.00358 0.0
C284 C 0.04218 0.04009 0.01904 0.0
C285 C 0.07058 0.02116 0.03538 0.0
C286 C 0.96555 0.10811 0.96707 0.0
C287 C 0.98935 0.1166 0.94682 0.0
C288 C 0.98055 0.07545 0.98245 0.0
C289 C 0.02004 0.05101 0.97807 0.0
C290 C 0.04161 0.05711 0.95691 0.0
C291 C 0.02625 0.08931 0.94141 0.0
H292 H 0.40833 0.49493 0.17335 0.0
H293 H 0.32947 0.46131 0.23281 0.0
H294 H 0.46823 0.52259 0.19794 0.0
H295 H 0.38762 0.49098 0.25721 0.0
H296 H 0.49063 0.54947 0.30041 0.0
H297 H 0.4579 0.49484 0.27432 0.0
H298 H 0.47544 0.58858 0.21856 0.0
H299 H 0.51006 0.64152 0.24421 0.0
C300 C 0.40406 0.49283 0.19166 0.0
C301 C 0.36378 0.4768 0.2011 0.0
C302 C 0.43826 0.50898 0.20579 0.0
C303 C 0.43255 0.51016 0.22963 0.0
C304 C 0.39373 0.49051 0.23902 0.0
C305 C 0.35995 0.47374 0.22493 0.0
C306 C 0.48859 0.55778 0.28245 0.0
C307 C 0.50203 0.60023 0.2745 0.0
C308 C 0.4695 0.52659 0.26749 0.0
C309 C 0.46286 0.53752 0.24434 0.0
C310 C 0.48005 0.57851 0.23615 0.0
C311 C 0.49967 0.60929 0.251 0.0
H312 H 0.98264 0.90755 0.42133 0.0
H313 H 0.01922 0.82812 0.48018 0.0
H314 H 0.95619 0.96718 0.44638 0.0
H315 H 0.99067 0.88595 0.50508 0.0
H316 H 0.93482 0.98899 0.54927 0.0
H317 H 0.98768 0.95569 0.52243 0.0
H318 H 0.89165 0.9751 0.46796 0.0
H319 H 0.84055 0.01037 0.49435 0.0
C320 C 0.98563 0.90309 0.4396 0.0
C321 C 0.00221 0.86274 0.44875 0.0
C322 C 0.97014 0.93713 0.45401 0.0
C323 C 0.97014 0.93119 0.47786 0.0
C324 C 0.99024 0.89226 0.4869 0.0
C325 C 0.00639 0.85867 0.47253 0.0
C326 C 0.92564 0.98721 0.53143 0.0
C327 C 0.88312 0.00151 0.52406 0.0
C328 C 0.9558 0.96777 0.51603 0.0
C329 C 0.94373 0.96154 0.49302 0.0
C330 C 0.90263 0.97939 0.48541 0.0
C331 C 0.87291 -0.00057 0.50069 0.0
H332 H 0.57471 0.48643 0.67185 0.0
H333 H 0.65403 0.52226 0.73073 0.0
H334 H 0.5151 0.45954 0.69694 0.0
H335 H 0.59627 0.49335 0.7556 0.0
H336 H 0.49361 0.43704 0.79989 0.0
H337 H 0.52651 0.49032 0.77301 0.0
H338 H 0.50738 0.39462 0.71849 0.0
H339 H 0.47249 0.34308 0.74492 0.0
C340 C 0.57917 0.48917 0.69012 0.0
C341 C 0.61952 0.50559 0.69926 0.0
C342 C 0.54513 0.47344 0.70455 0.0
C343 C 0.55105 0.47315 0.72839 0.0
C344 C 0.58997 0.49312 0.73743 0.0
C345 C 0.62355 0.50943 0.72306 0.0
C346 C 0.49539 0.42801 0.78203 0.0
C347 C 0.4813 0.38545 0.77466 0.0
C348 C 0.51457 0.45841 0.76661 0.0
C349 C 0.52077 0.44656 0.74357 0.0
C350 C 0.50311 0.40542 0.73596 0.0
C351 C 0.48332 0.37545 0.75127 0.0
H352 H 0.41757 0.97453 0.88542 0.0
H353 H 0.41603 0.11001 0.91158 0.0
H354 H 0.39604 0.94632 0.92322 0.0
H355 H 0.39755 0.0816 0.9493 0.0
H356 H 0.40034 0.00724 0.01812 0.0
H357 H 0.43314 0.02574 0.98097 0.0
H358 H 0.32046 0.96356 0.94728 0.0
H359 H 0.28706 0.94586 0.98431 0.0
C360 C 0.41389 -0.00189 0.89933 0.0
C361 C 0.42028 0.04434 0.89568 0.0
C362 C 0.40163 0.98198 0.92087 0.0
C363 C 0.39603 0.01182 0.93913 0.0
C364 C 0.40294 0.05787 0.93559 0.0
C365 C 0.41418 0.07405 0.91401 0.0
C366 C 0.3829 0.99698 0.00279 0.0
C367 C 0.34099 0.97545 0.00407 0.0
C368 C 0.40162 0.00761 0.98161 0.0
C369 C 0.37924 0.99594 0.96141 0.0
C370 C 0.33846 0.97253 0.96267 0.0
C371 C 0.31927 0.96273 0.98382 0.0
H372 H 0.50207 0.91235 0.2671 0.0
H373 H 0.4956 0.78183 0.23509 0.0
H374 H 0.48964 0.94799 0.22992 0.0
H375 H 0.48228 0.81702 0.19859 0.0
H376 H 0.49317 0.88448 0.13247 0.0
H377 H 0.51907 0.86077 0.16984 0.0
H378 H 0.43013 0.95669 0.20152 0.0
H379 H 0.40652 0.98272 0.16397 0.0
C380 C 0.4981 0.89131 0.2522 0.0
C381 C 0.49989 0.84424 0.2541 0.0
C382 C 0.49084 0.9117 0.23095 0.0
C383 C 0.48539 0.88537 0.21125 0.0
C384 C 0.48739 0.83841 0.21327 0.0
C385 C 0.49466 0.81817 0.23434 0.0
C386 C 0.47963 0.90115 0.14736 0.0
C387 C 0.44619 0.93412 0.14521 0.0
C388 C 0.49424 0.88725 0.16881 0.0
C389 C 0.47563 0.90585 0.18868 0.0
C390 C 0.44479 0.94132 0.18656 0.0
C391 C 0.4305 0.95558 0.165 0.0
H392 H 0.5177 0.99803 0.39689 0.0
H393 H 0.57947 0.86834 0.40667 0.0
H394 H 0.54553 0.02182 0.43449 0.0
H395 H 0.60692 0.89182 0.4439 0.0
H396 H 0.7022 0.97449 0.48853 0.0
H397 H 0.66628 0.95345 0.45291 0.0
H398 H 0.53835 0.99795 0.47891 0.0
H399 H 0.57425 0.01888 0.51504 0.0
C400 C 0.53638 0.97445 0.4073 0.0
C401 C 0.54566 0.93112 0.3992 0.0
C402 C 0.55215 0.98795 0.42871 0.0
C403 C 0.57832 0.95858 0.44196 0.0
C404 C 0.58684 0.91505 0.43396 0.0
C405 C 0.5707 0.90147 0.41279 0.0
C406 C 0.66646 0.9801 0.48672 0.0
C407 C 0.64104 -0.00182 0.50468 0.0
C408 C 0.64591 0.96782 0.46635 0.0
C409 C 0.59959 0.97379 0.46333 0.0
C410 C 0.57417 0.99309 0.48092 0.0
C411 C 0.59468 0.00485 0.50154 0.0
H412 H 0.49714 0.207 0.7373 0.0
H413 H 0.46388 0.07608 0.76464 0.0
H414 H 0.51911 0.1727 0.70152 0.0
H415 H 0.48592 0.04174 0.7283 0.0
H416 H 0.48736 0.01884 0.64671 0.0
H417 H 0.46145 0.04551 0.68416 0.0
H418 H 0.58503 0.11955 0.69223 0.0
H419 H 0.61048 0.09339 0.65511 0.0
C420 C 0.49414 0.17091 0.73566 0.0
C421 C 0.47905 0.14424 0.75394 0.0
C422 C 0.50695 0.15131 0.71516 0.0
C423 C 0.50463 0.10464 0.71233 0.0
C424 C 0.48798 0.07786 0.73017 0.0
C425 C 0.47554 0.0975 0.75091 0.0
C426 C 0.50908 0.0402 0.65677 0.0
C427 C 0.55121 0.05337 0.64836 0.0
C428 C 0.4944 0.05527 0.6781 0.0
C429 C 0.52131 0.08453 0.69095 0.0
C430 C 0.56366 0.09707 0.6826 0.0
C431 C 0.57842 0.0817 0.6615 0.0
H432 H 0.99051 0.47805 0.83616 0.0
H433 H 0.85049 0.48269 0.8546 0.0
H434 H 0.97164 0.50127 0.7973 0.0
H435 H 0.83092 0.503 0.8158 0.0
H436 H 0.8029 0.55787 0.74742 0.0
H437 H 0.82982 0.5542 0.78651 0.0
H438 H 0.94033 0.47029 0.76467 0.0
H439 H 0.91485 0.47701 0.72534 0.0
C440 C 0.95575 0.48449 0.83183 0.0
C441 C 0.92188 0.47872 0.84817 0.0
C442 C 0.94479 0.49731 0.80958 0.0
C443 C 0.89964 0.50364 0.8032 0.0
C444 C 0.8661 0.49939 0.82 0.0
C445 C 0.8772 0.48754 0.84229 0.0
C446 C 0.83319 0.53903 0.75104 0.0
C447 C 0.85658 0.51727 0.73351 0.0
C448 C 0.84856 0.53668 0.77346 0.0
C449 C 0.88694 0.51134 0.77896 0.0
C450 C 0.91104 0.49066 0.76117 0.0
C451 C 0.89628 0.49409 0.73862 0.0
H452 H 0.97653 0.28707 -0.00041 0.0
H453 H 0.95257 0.42078 0.97335 0.0
H454 H 0.98409 0.3173 0.03778 0.0
H455 H 0.95901 0.45093 0.01184 0.0
H456 H 0.03983 0.48718 0.07726 0.0
H457 H 0.01814 0.46267 0.03927 0.0
H458 H 0.94409 0.35202 0.06878 0.0
H459 H 0.96802 0.37523 0.10671 0.0
C460 C 0.97234 0.32287 0.002 0.0
C461 C 0.96431 0.35154 0.98338 0.0
C462 C 0.97627 0.34018 0.02396 0.0
C463 C 0.97202 0.38653 0.02787 0.0
C464 C 0.96293 0.41512 0.00934 0.0
C465 C 0.95916 0.39781 0.98731 0.0
C466 C 0.01919 0.45748 0.0756 0.0
C467 C 0.00707 0.43209 0.09483 0.0
C468 C 0.00608 0.44385 0.05385 0.0
C469 C 0.9801 0.40487 0.05098 0.0
C470 C 0.96505 0.38157 0.07041 0.0
C471 C 0.97838 0.39509 0.09214 0.0
H472 H 0.18857 0.47719 0.25052 0.0
H473 H 0.05583 0.45378 0.22317 0.0
H474 H 0.1571 0.48324 0.28856 0.0
H475 H 0.02444 0.45862 0.26148 0.0
H476 H 0.98579 0.53652 0.32739 0.0
H477 H 0.0114 0.5162 0.28939 0.0
H478 H 0.12172 0.44196 0.31898 0.0
H479 H 0.09739 0.46457 0.35695 0.0
C480 C 0.15271 0.47284 0.25265 0.0
C481 C 0.12468 0.46536 0.23378 0.0
C482 C 0.13469 0.47587 0.27452 0.0
C483 C 0.08825 0.47123 0.27808 0.0
C484 C 0.06029 0.46282 0.25927 0.0
C485 C 0.07831 0.45999 0.23733 0.0
C486 C 0.0156 0.51605 0.32575 0.0
C487 C 0.04061 0.50357 0.34502 0.0
C488 C 0.02989 0.50375 0.30399 0.0
C489 C 0.06915 0.47821 0.30115 0.0
C490 C 0.09199 0.46263 0.32059 0.0
C491 C 0.07781 0.47518 0.34234 0.0
H492 H 0.97478 0.56671 0.47525 0.0
H493 H 0.05112 0.68195 0.49722 0.0
H494 H 0.96978 0.5406 0.51451 0.0
H495 H 0.04918 0.65448 0.53629 0.0
H496 H 0.98225 0.62745 0.60503 0.0
H497 H -0.00021 0.64959 0.56622 0.0
H498 H 0.00366 0.50965 0.5464 0.0
H499 H 0.983 0.48812 0.58527 0.0
C500 C 0.99115 0.586 0.48851 0.0
C501 C 0.01274 0.62661 0.48334 0.0
C502 C 0.98875 0.57084 0.51102 0.0
C503 C 0.0089 0.59546 0.52876 0.0
C504 C 0.03221 0.63517 0.52327 0.0
C505 C 0.03354 0.65089 0.50086 0.0
C506 C 0.98778 0.60151 0.59241 0.0
C507 C 0.98134 0.5562 0.59794 0.0
C508 C -0.00199 0.61409 0.57011 0.0
C509 C 0.00296 0.58148 0.55296 0.0
C510 C -0.00095 0.5358 0.55896 0.0
C511 C 0.98778 0.52332 0.58122 0.0
H512 H 0.13351 0.58911 0.13104 0.0
H513 H 0.27411 0.58153 0.14894 0.0
H514 H 0.14598 0.66293 0.114 0.0
H515 H 0.28633 0.65533 0.13194 0.0
H516 H 0.299 0.76723 0.07837 0.0
H517 H 0.28496 0.69176 0.09339 0.0
H518 H 0.16602 0.7403 0.12749 0.0
H519 H 0.18064 0.81591 0.11265 0.0
C520 C 0.16708 0.60308 0.13131 0.0
C521 C 0.2028 0.57939 0.14142 0.0
C522 C 0.17413 0.64547 0.12164 0.0
C523 C 0.21711 0.66489 0.12164 0.0
C524 C 0.25292 0.64101 0.13148 0.0
C525 C 0.24583 0.59883 0.14133 0.0
C526 C 0.27006 0.76165 0.0892 0.0
C527 C 0.24127 0.79726 0.09472 0.0
C528 C 0.262 0.71858 0.09777 0.0
C529 C 0.22459 0.71021 0.11176 0.0
C530 C 0.19497 0.74567 0.11665 0.0
C531 C 0.20331 0.78886 0.10823 0.0
H532 H 0.91989 0.75504 0.36919 0.0
H533 H 0.86406 0.64818 0.40989 0.0
H534 H 0.84764 0.76601 0.35062 0.0
H535 H 0.79046 0.66159 0.39332 0.0
H536 H 0.66708 0.67042 0.35058 0.0
H537 H 0.74254 0.65477 0.36408 0.0
H538 H 0.7783 0.79409 0.35271 0.0
H539 H 0.70484 0.80743 0.3364 0.0
C540 C 0.89166 0.73444 0.37436 0.0
C541 C 0.89715 0.70086 0.39087 0.0
C542 C 0.84997 0.74088 0.36391 0.0
C543 C 0.81235 0.71495 0.37038 0.0
C544 C 0.81832 0.68161 0.38725 0.0
C545 C 0.86042 0.67415 0.39704 0.0
C546 C 0.69156 0.69731 0.35053 0.0
C547 C 0.67986 0.74032 0.34279 0.0
C548 C 0.73479 0.68866 0.35872 0.0
C549 C 0.76708 0.72323 0.36005 0.0
C550 C 0.7552 0.76615 0.35184 0.0
C551 C 0.71252 0.77423 0.34289 0.0
H552 H 0.68629 0.21513 0.57677 0.0
H553 H 0.80681 0.16577 0.60889 0.0
H554 H 0.7007 0.29002 0.59222 0.0
H555 H 0.82175 0.24081 0.62419 0.0
H556 H 0.85289 0.39218 0.62934 0.0
H557 H 0.8405 0.31902 0.61177 0.0
H558 H 0.70067 0.32466 0.63091 0.0
H559 H 0.71282 0.39783 0.64843 0.0
C560 C 0.71586 0.22045 0.58717 0.0
C561 C 0.74511 0.18476 0.59198 0.0
C562 C 0.7241 0.2632 0.59601 0.0
C563 C 0.76213 0.27121 0.6096 0.0
C564 C 0.79229 0.23575 0.61369 0.0
C565 C 0.78379 0.19287 0.60498 0.0
C566 C 0.81945 0.3779 0.62979 0.0
C567 C 0.78385 0.40092 0.64036 0.0
C568 C 0.81245 0.33587 0.6198 0.0
C569 C 0.76963 0.3161 0.61994 0.0
C570 C 0.73396 0.33925 0.6303 0.0
C571 C 0.74101 0.38109 0.64047 0.0
H572 H 0.3127 0.31457 0.85669 0.0
H573 H 0.26818 0.18844 0.82867 0.0
H574 H 0.23695 0.32851 0.87145 0.0
H575 H 0.19267 0.20204 0.84336 0.0
H576 H 0.08418 0.35268 0.8772 0.0
H577 H 0.15771 0.34248 0.85953 0.0
H578 H 0.15898 0.20414 0.88177 0.0
H579 H 0.0856 0.21402 0.89926 0.0
C580 C 0.28647 0.2902 0.85346 0.0
C581 C 0.29612 0.25025 0.84183 0.0
C582 C 0.24321 0.29812 0.86186 0.0
C583 C 0.209 0.26611 0.85878 0.0
C584 C 0.21851 0.22692 0.84638 0.0
C585 C 0.2616 0.21917 0.83794 0.0
C586 C 0.10009 0.32004 0.87829 0.0
C587 C 0.07893 0.28415 0.88967 0.0
C588 C 0.14229 0.31431 0.86824 0.0
C589 C 0.16405 0.27249 0.8692 0.0
C590 C 0.14279 0.23661 0.88047 0.0
C591 C 0.1008 0.24237 0.89061 0.0
H592 H 0.70971 0.66719 0.62018 0.0
H593 H 0.8322 0.70975 0.65286 0.0
H594 H 0.69686 0.74404 0.60673 0.0
H595 H 0.81995 0.78644 0.63909 0.0
H596 H 0.80584 0.90115 0.58524 0.0
H597 H 0.81854 0.8263 0.60107 0.0
H598 H 0.68031 0.8204 0.62298 0.0
H599 H 0.6674 0.89508 0.6072 0.0
C600 C 0.73373 0.69312 0.62452 0.0
C601 C 0.77211 0.68266 0.63732 0.0
C602 C 0.72641 0.73701 0.61688 0.0
C603 C 0.75752 0.77117 0.6218 0.0
C604 C 0.79574 0.76067 0.63479 0.0
C605 C 0.80277 0.71688 0.64262 0.0
C606 C 0.77822 0.88406 0.59357 0.0
C607 C 0.73556 0.90411 0.59487 0.0
C608 C 0.78557 0.84126 0.60271 0.0
C609 C 0.75034 0.81746 0.61314 0.0
C610 C 0.70794 0.83776 0.61479 0.0
C611 C 0.70067 0.88068 0.60587 0.0
H612 H 0.57977 0.30265 0.83711 0.0
H613 H 0.58561 0.16164 0.85458 0.0
H614 H 0.6545 0.31325 0.85327 0.0
H615 H 0.66005 0.1725 0.87089 0.0
H616 H 0.81345 0.20295 0.86983 0.0
H617 H 0.7367 0.1906 0.85618 0.0
H618 H 0.69348 0.31074 0.89097 0.0
H619 H 0.77005 0.32259 0.90475 0.0
C620 C 0.59679 0.27399 0.84454 0.0
C621 C 0.57662 0.23131 0.84457 0.0
C622 C 0.63951 0.28013 0.85389 0.0
C623 C 0.66312 0.24367 0.8633 0.0
C624 C 0.64281 0.20112 0.86355 0.0
C625 C 0.59998 0.19503 0.85438 0.0
C626 C 0.78731 0.22633 0.8747 0.0
C627 C 0.79749 0.26391 0.88809 0.0
C628 C 0.74349 0.21931 0.86694 0.0
C629 C 0.70917 0.2499 0.8724 0.0
C630 C 0.71935 0.28701 0.8862 0.0
C631 C 0.76305 0.29378 0.89408 0.0
H632 H 0.18866 0.31326 0.10339 0.0
H633 H 0.23864 0.27318 0.16938 0.0
H634 H 0.20068 0.23721 0.0891 0.0
H635 H 0.25054 0.19688 0.15526 0.0
H636 H 0.31209 0.08141 0.11348 0.0
H637 H 0.2985 0.15604 0.12885 0.0
H638 H 0.17137 0.16137 0.09352 0.0
H639 H 0.18528 0.08706 0.07772 0.0
C640 C 0.20212 0.28799 0.11481 0.0
C641 C 0.21307 0.29893 0.13738 0.0
C642 C 0.2088 0.24445 0.10671 0.0
C643 C 0.2265 0.21094 0.12106 0.0
C644 C 0.23743 0.22205 0.14369 0.0
C645 C 0.23071 0.26565 0.15177 0.0
C646 C 0.28113 0.09837 0.10904 0.0
C647 C 0.2499 0.07829 0.09424 0.0
C648 C 0.27325 0.14109 0.11797 0.0
C649 C 0.23396 0.16475 0.11232 0.0
C650 C 0.20231 0.14432 0.0979 0.0
C651 C 0.21016 0.10157 0.08897 0.0
H652 H 0.39304 0.67878 0.32806 0.0
H653 H 0.39136 0.80933 0.36014 0.0
H654 H 0.31876 0.66305 0.3437 0.0
H655 H 0.31717 0.79374 0.37547 0.0
H656 H 0.20222 0.73438 0.41708 0.0
H657 H 0.27866 0.7461 0.40316 0.0
H658 H 0.24135 0.68897 0.3382 0.0
H659 H 0.16493 0.67727 0.35227 0.0
C660 C 0.37699 0.70405 0.3385 0.0
C661 C 0.39829 0.74531 0.34286 0.0
C662 C 0.33431 0.69512 0.34735 0.0
C663 C 0.31205 0.72717 0.3608 0.0
C664 C 0.33364 0.76809 0.36543 0.0
C665 C 0.3762 0.77707 0.35656 0.0
C666 C 0.21041 0.7247 0.39978 0.0
C667 C 0.17778 0.70538 0.38563 0.0
C668 C 0.25411 0.73132 0.39182 0.0
C669 C 0.26605 0.71858 0.36955 0.0
C670 C 0.23339 0.69864 0.35553 0.0
C671 C 0.18967 0.6921 0.36351 0.0
loop_
_geom_bond_atom_site_label_1
_geom_bond_atom_site_label_2
_geom_bond_distance
_geom_bond_site_symmetry_2
_ccdc_geom_bond_type
Co0 O3 1.970 . S
Co0 N17 1.989 . S
Co0 O25 1.967 . S
Co0 O32 1.920 . S
Co1 O4 1.966 . S
Co1 N10 2.022 . S
Co1 N18 1.993 . S
Co1 O26 1.941 . S
C2 O3 1.258 . S
C2 O4 1.263 . S
O3 Co0 1.970 . S
O3 C2 1.258 . S
O4 Co1 1.966 . S
O4 C2 1.263 . S
C5 O6 1.235 . S
C5 O32 1.289 . S
O6 C5 1.235 . S
C7 C9 1.400 . S
C7 N10 1.351 . S
C7 C12 1.501 . S
C8 C9 1.387 1_565 S
C8 N11 1.341 . S
C9 C7 1.400 . S
C9 C8 1.387 1_545 S
N10 Co1 2.022 . S
N10 C7 1.351 . S
N10 N11 1.365 1_545 S
N11 C8 1.341 . S
N11 N10 1.365 1_565 S
N11 H31 0.862 . S
C12 C7 1.501 . S
C12 H13 0.961 . S
C12 H14 0.961 . S
C12 H15 0.960 . S
H13 C12 0.961 . S
H14 C12 0.961 . S
H15 C12 0.960 . S
C16 N17 1.342 1_565 S
C16 C20 1.401 . S
C16 C21 1.499 . S
N17 Co0 1.989 . S
N17 C16 1.342 1_545 S
N17 N18 1.388 . S
N18 Co1 1.993 . S
N18 N17 1.388 . S
N18 C19 1.346 1_545 S
C19 N18 1.346 1_565 S
C19 C20 1.396 . S
C19 C29 1.510 . S
C20 C16 1.401 . S
C20 C19 1.396 . S
C21 C16 1.499 . S
C21 H22 0.959 1_565 S
C21 H23 0.960 . S
C21 H24 0.961 . S
H22 C21 0.959 1_545 S
H23 C21 0.960 . S
H24 C21 0.961 . S
O25 Co0 1.967 . S
O25 C33 1.258 . S
O26 Co1 1.941 . S
O26 C33 1.266 . S
H27 C29 0.959 . S
H28 C29 0.961 . S
C29 C19 1.510 . S
C29 H27 0.959 . S
C29 H28 0.961 . S
C29 H30 0.960 . S
H30 C29 0.960 . S
H31 N11 0.862 . S
O32 Co0 1.920 . S
O32 C5 1.289 . S
C33 O25 1.258 . S
C33 O26 1.266 . S
Co34 O37 1.970 . S
Co34 N51 1.989 . S
Co34 O59 1.967 . S
Co34 O66 1.920 . S
Co35 O38 1.966 . S
Co35 N44 2.022 . S
Co35 N52 1.993 . S
Co35 O60 1.941 . S
C36 O37 1.258 . S
C36 O38 1.263 . S
O37 Co34 1.970 . S
O37 C36 1.258 . S
O38 Co35 1.966 . S
O38 C36 1.263 . S
C39 O40 1.235 . S
C39 O66 1.289 . S
O40 C39 1.235 . S
C41 C43 1.400 . S
C41 N44 1.351 . S
C41 C46 1.501 . S
C42 C43 1.387 . S
C42 N45 1.341 . S
C43 C41 1.400 . S
C43 C42 1.387 . S
N44 Co35 2.022 . S
N44 C41 1.351 . S
N44 N45 1.365 . S
N45 C42 1.341 . S
N45 N44 1.365 . S
N45 H65 0.862 . S
C46 C41 1.501 . S
C46 H47 0.961 . S
C46 H48 0.961 . S
C46 H49 0.960 . S
H47 C46 0.961 . S
H48 C46 0.961 . S
H49 C46 0.960 . S
C50 N51 1.342 . S
C50 C54 1.401 . S
C50 C55 1.499 . S
N51 Co34 1.989 . S
N51 C50 1.342 . S
N51 N52 1.388 . S
N52 Co35 1.993 . S
N52 N51 1.388 . S
N52 C53 1.346 . S
C53 N52 1.346 . S
C53 C54 1.396 . S
C53 C63 1.510 . S
C54 C50 1.401 . S
C54 C53 1.396 . S
C55 C50 1.499 . S
C55 H56 0.959 . S
C55 H57 0.960 . S
C55 H58 0.961 . S
H56 C55 0.959 . S
H57 C55 0.960 . S
H58 C55 0.961 . S
O59 Co34 1.967 . S
O59 C67 1.258 . S
O60 Co35 1.941 . S
O60 C67 1.266 . S
H61 C63 0.959 . S
H62 C63 0.961 . S
C63 C53 1.510 . S
C63 H61 0.959 . S
C63 H62 0.961 . S
C63 H64 0.960 . S
H64 C63 0.960 . S
H65 N45 0.862 . S
O66 Co34 1.920 . S
O66 C39 1.289 . S
C67 O59 1.258 . S
C67 O60 1.266 . S
Co68 O71 1.970 . S
Co68 N85 1.989 . S
Co68 O93 1.967 . S
Co68 O100 1.920 . S
Co69 O72 1.966 . S
Co69 N78 2.022 . S
Co69 N86 1.993 . S
Co69 O94 1.941 . S
C70 O71 1.258 . S
C70 O72 1.263 . S
O71 Co68 1.970 . S
O71 C70 1.258 . S
O72 Co69 1.966 . S
O72 C70 1.263 . S
C73 O74 1.235 . S
C73 O100 1.289 . S
O74 C73 1.235 . S
C75 C77 1.400 . S
C75 N78 1.351 . S
C75 C80 1.501 . S
C76 C77 1.387 1_545 S
C76 N79 1.341 1_545 S
C77 C75 1.400 . S
C77 C76 1.387 1_565 S
N78 Co69 2.022 . S
N78 C75 1.351 . S
N78 N79 1.365 . S
N79 C76 1.341 1_565 S
N79 N78 1.365 . S
N79 H99 0.862 1_565 S
C80 C75 1.501 . S
C80 H81 0.961 . S
C80 H82 0.961 . S
C80 H83 0.960 . S
H81 C80 0.961 . S
H82 C80 0.961 . S
H83 C80 0.960 . S
C84 N85 1.342 1_545 S
C84 C88 1.401 . S
C84 C89 1.499 . S
N85 Co68 1.989 . S
N85 C84 1.342 1_565 S
N85 N86 1.388 . S
N86 Co69 1.993 . S
N86 N85 1.388 . S
N86 C87 1.346 1_565 S
C87 N86 1.346 1_545 S
C87 C88 1.396 . S
C87 C97 1.510 . S
C88 C84 1.401 . S
C88 C87 1.396 . S
C89 C84 1.499 . S
C89 H90 0.959 1_545 S
C89 H91 0.960 . S
C89 H92 0.961 . S
H90 C89 0.959 1_565 S
H91 C89 0.960 . S
H92 C89 0.961 . S
O93 Co68 1.967 . S
O93 C101 1.258 . S
O94 Co69 1.941 . S
O94 C101 1.266 . S
H95 C97 0.959 . S
H96 C97 0.961 . S
C97 C87 1.510 . S
C97 H95 0.959 . S
C97 H96 0.961 . S
C97 H98 0.960 . S
H98 C97 0.960 . S
H99 N79 0.862 1_545 S
O100 Co68 1.920 . S
O100 C73 1.289 . S
C101 O93 1.258 . S
C101 O94 1.266 . S
Co102 O105 1.970 . S
Co102 N119 1.989 . S
Co102 O127 1.967 . S
Co102 O134 1.920 . S
Co103 O106 1.966 . S
Co103 N112 2.022 . S
Co103 N120 1.993 . S
Co103 O128 1.941 . S
C104 O105 1.258 . S
C104 O106 1.263 . S
O105 Co102 1.970 . S
O105 C104 1.258 . S
O106 Co103 1.966 . S
O106 C104 1.263 . S
C107 O108 1.235 . S
C107 O134 1.289 . S
O108 C107 1.235 . S
C109 C111 1.400 . S
C109 N112 1.351 . S
C109 C114 1.501 . S
C110 C111 1.387 . S
C110 N113 1.341 . S
C111 C109 1.400 . S
C111 C110 1.387 . S
N112 Co103 2.022 . S
N112 C109 1.351 . S
N112 N113 1.365 . S
N113 C110 1.341 . S
N113 N112 1.365 . S
N113 H133 0.862 . S
C114 C109 1.501 . S
C114 H115 0.961 . S
C114 H116 0.961 . S
C114 H117 0.960 . S
H115 C114 0.961 . S
H116 C114 0.961 . S
H117 C114 0.960 . S
C118 N119 1.342 . S
C118 C122 1.401 . S
C118 C123 1.499 . S
N119 Co102 1.989 . S
N119 C118 1.342 . S
N119 N120 1.388 . S
N120 Co103 1.993 . S
N120 N119 1.388 . S
N120 C121 1.346 . S
C121 N120 1.346 . S
C121 C122 1.396 . S
C121 C131 1.510 . S
C122 C118 1.401 . S
C122 C121 1.396 . S
C123 C118 1.499 . S
C123 H124 0.959 . S
C123 H125 0.960 . S
C123 H126 0.961 . S
H124 C123 0.959 . S
H125 C123 0.960 . S
H126 C123 0.961 . S
O127 Co102 1.967 . S
O127 C135 1.258 . S
O128 Co103 1.941 . S
O128 C135 1.266 . S
H129 C131 0.959 . S
H130 C131 0.961 . S
C131 C121 1.510 . S
C131 H129 0.959 . S
C131 H130 0.961 . S
C131 H132 0.960 . S
H132 C131 0.960 . S
H133 N113 0.862 . S
O134 Co102 1.920 . S
O134 C107 1.289 . S
C135 O127 1.258 . S
C135 O128 1.266 . S
Co136 O139 1.970 . S
Co136 N153 1.989 . S
Co136 O161 1.967 . S
Co136 O168 1.920 . S
Co137 O140 1.966 . S
Co137 N146 2.022 . S
Co137 N154 1.993 . S
Co137 O162 1.941 . S
C138 O139 1.258 . S
C138 O140 1.263 . S
O139 Co136 1.970 . S
O139 C138 1.258 . S
O140 Co137 1.966 . S
O140 C138 1.263 . S
C141 O142 1.235 . S
C141 O168 1.289 . S
O142 C141 1.235 . S
C143 C145 1.400 . S
C143 N146 1.351 . S
C143 C148 1.501 . S
C144 C145 1.387 . S
C144 N147 1.341 . S
C145 C143 1.400 . S
C145 C144 1.387 . S
N146 Co137 2.022 . S
N146 C143 1.351 . S
N146 N147 1.365 . S
N147 C144 1.341 . S
N147 N146 1.365 . S
N147 H167 0.862 . S
C148 C143 1.501 . S
C148 H149 0.961 . S
C148 H150 0.961 . S
C148 H151 0.960 . S
H149 C148 0.961 . S
H150 C148 0.961 . S
H151 C148 0.960 . S
C152 N153 1.342 . S
C152 C156 1.401 . S
C152 C157 1.499 . S
N153 Co136 1.989 . S
N153 C152 1.342 . S
N153 N154 1.388 . S
N154 Co137 1.993 . S
N154 N153 1.388 . S
N154 C155 1.346 . S
C155 N154 1.346 . S
C155 C156 1.396 . S
C155 C165 1.510 . S
C156 C152 1.401 . S
C156 C155 1.396 . S
C157 C152 1.499 . S
C157 H158 0.959 . S
C157 H159 0.960 . S
C157 H160 0.961 . S
H158 C157 0.959 . S
H159 C157 0.960 . S
H160 C157 0.961 . S
O161 Co136 1.967 . S
O161 C169 1.258 . S
O162 Co137 1.941 . S
O162 C169 1.266 . S
H163 C165 0.959 . S
H164 C165 0.961 . S
C165 C155 1.510 . S
C165 H163 0.959 . S
C165 H164 0.961 . S
C165 H166 0.960 . S
H166 C165 0.960 . S
H167 N147 0.862 . S
O168 Co136 1.920 . S
O168 C141 1.289 . S
C169 O161 1.258 . S
C169 O162 1.266 . S
Co170 O173 1.970 . S
Co170 N187 1.989 . S
Co170 O195 1.967 . S
Co170 O202 1.920 . S
Co171 O174 1.966 . S
Co171 N180 2.022 . S
Co171 N188 1.993 . S
Co171 O196 1.941 . S
C172 O173 1.258 . S
C172 O174 1.263 . S
O173 Co170 1.970 . S
O173 C172 1.258 . S
O174 Co171 1.966 . S
O174 C172 1.263 . S
C175 O176 1.235 . S
C175 O202 1.289 . S
O176 C175 1.235 . S
C177 C179 1.400 . S
C177 N180 1.351 . S
C177 C182 1.501 . S
C178 C179 1.387 1_655 S
C178 N181 1.341 . S
C179 C177 1.400 . S
C179 C178 1.387 1_455 S
N180 Co171 2.022 . S
N180 C177 1.351 . S
N180 N181 1.365 1_455 S
N181 C178 1.341 . S
N181 N180 1.365 1_655 S
N181 H201 0.862 . S
C182 C177 1.501 . S
C182 H183 0.961 . S
C182 H184 0.961 . S
C182 H185 0.960 . S
H183 C182 0.961 . S
H184 C182 0.961 . S
H185 C182 0.960 . S
C186 N187 1.342 1_655 S
C186 C190 1.401 . S
C186 C191 1.499 . S
N187 Co170 1.989 . S
N187 C186 1.342 1_455 S
N187 N188 1.388 . S
N188 Co171 1.993 . S
N188 N187 1.388 . S
N188 C189 1.346 1_455 S
C189 N188 1.346 1_655 S
C189 C190 1.396 . S
C189 C199 1.510 . S
C190 C186 1.401 . S
C190 C189 1.396 . S
C191 C186 1.499 . S
C191 H192 0.959 1_655 S
C191 H193 0.960 . S
C191 H194 0.961 . S
H192 C191 0.959 1_455 S
H193 C191 0.960 . S
H194 C191 0.961 . S
O195 Co170 1.967 . S
O195 C203 1.258 . S
O196 Co171 1.941 . S
O196 C203 1.266 . S
H197 C199 0.959 . S
H198 C199 0.961 . S
C199 C189 1.510 . S
C199 H197 0.959 . S
C199 H198 0.961 . S
C199 H200 0.960 . S
H200 C199 0.960 . S
H201 N181 0.862 . S
O202 Co170 1.920 . S
O202 C175 1.289 . S
C203 O195 1.258 . S
C203 O196 1.266 . S
Co204 O207 1.970 . S
Co204 N221 1.989 . S
Co204 O229 1.967 . S
Co204 O236 1.920 . S
Co205 O208 1.966 . S
Co205 N214 2.022 . S
Co205 N222 1.993 . S
Co205 O230 1.941 . S
C206 O207 1.258 . S
C206 O208 1.263 . S
O207 Co204 1.970 . S
O207 C206 1.258 . S
O208 Co205 1.966 . S
O208 C206 1.263 . S
C209 O210 1.235 . S
C209 O236 1.289 . S
O210 C209 1.235 . S
C211 C213 1.400 . S
C211 N214 1.351 . S
C211 C216 1.501 . S
C212 C213 1.387 . S
C212 N215 1.341 . S
C213 C211 1.400 . S
C213 C212 1.387 . S
N214 Co205 2.022 . S
N214 C211 1.351 . S
N214 N215 1.365 . S
N215 C212 1.341 . S
N215 N214 1.365 . S
N215 H235 0.862 . S
C216 C211 1.501 . S
C216 H217 0.961 . S
C216 H218 0.961 . S
C216 H219 0.960 . S
H217 C216 0.961 . S
H218 C216 0.961 . S
H219 C216 0.960 . S
C220 N221 1.342 . S
C220 C224 1.401 . S
C220 C225 1.499 . S
N221 Co204 1.989 . S
N221 C220 1.342 . S
N221 N222 1.388 . S
N222 Co205 1.993 . S
N222 N221 1.388 . S
N222 C223 1.346 . S
C223 N222 1.346 . S
C223 C224 1.396 . S
C223 C233 1.510 . S
C224 C220 1.401 . S
C224 C223 1.396 . S
C225 C220 1.499 . S
C225 H226 0.959 . S
C225 H227 0.960 . S
C225 H228 0.961 . S
H226 C225 0.959 . S
H227 C225 0.960 . S
H228 C225 0.961 . S
O229 Co204 1.967 . S
O229 C237 1.258 . S
O230 Co205 1.941 . S
O230 C237 1.266 . S
H231 C233 0.959 . S
H232 C233 0.961 . S
C233 C223 1.510 . S
C233 H231 0.959 . S
C233 H232 0.961 . S
C233 H234 0.960 . S
H234 C233 0.960 . S
H235 N215 0.862 . S
O236 Co204 1.920 . S
O236 C209 1.289 . S
C237 O229 1.258 . S
C237 O230 1.266 . S
Co238 O241 1.970 . S
Co238 N255 1.989 . S
Co238 O263 1.967 . S
Co238 O270 1.920 . S
Co239 O242 1.966 . S
Co239 N248 2.022 . S
Co239 N256 1.993 . S
Co239 O264 1.941 . S
C240 O241 1.258 . S
C240 O242 1.263 . S
O241 Co238 1.970 . S
O241 C240 1.258 . S
O242 Co239 1.966 . S
O242 C240 1.263 . S
C243 O244 1.235 . S
C243 O270 1.289 . S
O244 C243 1.235 . S
C245 C247 1.400 . S
C245 N248 1.351 . S
C245 C250 1.501 . S
C246 C247 1.387 1_455 S
C246 N249 1.341 1_455 S
C247 C245 1.400 . S
C247 C246 1.387 1_655 S
N248 Co239 2.022 . S
N248 C245 1.351 . S
N248 N249 1.365 . S
N249 C246 1.341 1_655 S
N249 N248 1.365 . S
N249 H269 0.862 1_655 S
C250 C245 1.501 . S
C250 H251 0.961 . S
C250 H252 0.961 . S
C250 H253 0.960 . S
H251 C250 0.961 . S
H252 C250 0.961 . S
H253 C250 0.960 . S
C254 N255 1.342 1_455 S
C254 C258 1.401 . S
C254 C259 1.499 . S
N255 Co238 1.989 . S
N255 C254 1.342 1_655 S
N255 N256 1.388 . S
N256 Co239 1.993 . S
N256 N255 1.388 . S
N256 C257 1.346 1_655 S
C257 N256 1.346 1_455 S
C257 C258 1.396 . S
C257 C267 1.510 . S
C258 C254 1.401 . S
C258 C257 1.396 . S
C259 C254 1.499 . S
C259 H260 0.959 1_455 S
C259 H261 0.960 . S
C259 H262 0.961 . S
H260 C259 0.959 1_655 S
H261 C259 0.960 . S
H262 C259 0.961 . S
O263 Co238 1.967 . S
O263 C271 1.258 . S
O264 Co239 1.941 . S
O264 C271 1.266 . S
H265 C267 0.959 . S
H266 C267 0.961 . S
C267 C257 1.510 . S
C267 H265 0.959 . S
C267 H266 0.961 . S
C267 H268 0.960 . S
H268 C267 0.960 . S
H269 N249 0.862 1_455 S
O270 Co238 1.920 . S
O270 C243 1.289 . S
C271 O263 1.258 . S
C271 O264 1.266 . S
H272 C280 0.950 . S
H273 C285 0.950 . S
H274 C282 0.950 1_556 S
H275 C284 0.950 . S
H276 C286 0.950 . S
H277 C288 0.950 1_554 S
H278 C290 0.950 . S
H279 C291 0.950 . S
C280 H272 0.950 . S
C280 C281 1.386 . S
C280 C282 1.391 . S
C281 C280 1.386 . S
C281 C285 1.393 . S
C282 H274 0.950 1_554 S
C282 C280 1.391 . S
C282 C283 1.400 . S
C283 C282 1.400 . S
C283 C284 1.398 . S
C283 C289 1.491 1_554 S
C284 H275 0.950 . S
C284 C283 1.398 . S
C284 C285 1.391 . S
C285 H273 0.950 . S
C285 C281 1.393 . S
C285 C284 1.391 . S
C286 H276 0.950 . S
C286 C287 1.386 . S
C286 C288 1.391 . S
C287 C286 1.386 . S
C287 C291 1.393 . S
C288 H277 0.950 1_556 S
C288 C286 1.391 . S
C288 C289 1.400 . S
C289 C283 1.491 1_556 S
C289 C288 1.400 . S
C289 C290 1.398 . S
C290 H278 0.950 . S
C290 C289 1.398 . S
C290 C291 1.391 . S
C291 H279 0.950 . S
C291 C287 1.393 . S
C291 C290 1.391 . S
H292 C300 0.950 . S
H293 C305 0.950 . S
H294 C302 0.950 . S
H295 C304 0.950 . S
H296 C306 0.950 . S
H297 C308 0.950 . S
H298 C310 0.950 . S
H299 C311 0.950 . S
C300 H292 0.950 . S
C300 C301 1.386 . S
C300 C302 1.391 . S
C301 C300 1.386 . S
C301 C305 1.393 . S
C302 H294 0.950 . S
C302 C300 1.391 . S
C302 C303 1.400 . S
C303 C302 1.400 . S
C303 C304 1.398 . S
C303 C309 1.491 . S
C304 H295 0.950 . S
C304 C303 1.398 . S
C304 C305 1.391 . S
C305 H293 0.950 . S
C305 C301 1.393 . S
C305 C304 1.391 . S
C306 H296 0.950 . S
C306 C307 1.386 . S
C306 C308 1.391 . S
C307 C306 1.386 . S
C307 C311 1.393 . S
C308 H297 0.950 . S
C308 C306 1.391 . S
C308 C309 1.400 . S
C309 C303 1.491 . S
C309 C308 1.400 . S
C309 C310 1.398 . S
C310 H298 0.950 . S
C310 C309 1.398 . S
C310 C311 1.391 . S
C311 H299 0.950 . S
C311 C307 1.393 . S
C311 C310 1.391 . S
H312 C320 0.950 . S
H313 C325 0.950 . S
H314 C322 0.950 . S
H315 C324 0.950 . S
H316 C326 0.950 . S
H317 C328 0.950 . S
H318 C330 0.950 . S
H319 C331 0.950 . S
C320 H312 0.950 . S
C320 C321 1.386 . S
C320 C322 1.391 . S
C321 C320 1.386 . S
C321 C325 1.393 . S
C322 H314 0.950 . S
C322 C320 1.391 . S
C322 C323 1.400 . S
C323 C322 1.400 . S
C323 C324 1.398 . S
C323 C329 1.491 . S
C324 H315 0.950 . S
C324 C323 1.398 . S
C324 C325 1.391 . S
C325 H313 0.950 . S
C325 C321 1.393 . S
C325 C324 1.391 . S
C326 H316 0.950 . S
C326 C327 1.386 . S
C326 C328 1.391 . S
C327 C326 1.386 . S
C327 C331 1.393 . S
C328 H317 0.950 . S
C328 C326 1.391 . S
C328 C329 1.400 . S
C329 C323 1.491 . S
C329 C328 1.400 . S
C329 C330 1.398 . S
C330 H318 0.950 . S
C330 C329 1.398 . S
C330 C331 1.391 . S
C331 H319 0.950 . S
C331 C327 1.393 . S
C331 C330 1.391 . S
H332 C340 0.950 . S
H333 C345 0.950 . S
H334 C342 0.950 . S
H335 C344 0.950 . S
H336 C346 0.950 . S
H337 C348 0.950 . S
H338 C350 0.950 . S
H339 C351 0.950 . S
C340 H332 0.950 . S
C340 C341 1.386 . S
C340 C342 1.391 . S
C341 C340 1.386 . S
C341 C345 1.393 . S
C342 H334 0.950 . S
C342 C340 1.391 . S
C342 C343 1.400 . S
C343 C342 1.400 . S
C343 C344 1.398 . S
C343 C349 1.491 . S
C344 H335 0.950 . S
C344 C343 1.398 . S
C344 C345 1.391 . S
C345 H333 0.950 . S
C345 C341 1.393 . S
C345 C344 1.391 . S
C346 H336 0.950 . S
C346 C347 1.386 . S
C346 C348 1.391 . S
C347 C346 1.386 . S
C347 C351 1.393 . S
C348 H337 0.950 . S
C348 C346 1.391 . S
C348 C349 1.400 . S
C349 C343 1.491 . S
C349 C348 1.400 . S
C349 C350 1.398 . S
C350 H338 0.950 . S
C350 C349 1.398 . S
C350 C351 1.391 . S
C351 H339 0.950 . S
C351 C347 1.393 . S
C351 C350 1.391 . S
H352 C360 0.950 . S
H353 C365 0.950 . S
H354 C362 0.950 . S
H355 C364 0.926 1_554 S
H356 C366 0.950 . S
H357 C368 0.950 . S
H358 C370 0.950 . S
H359 C371 0.950 . S
C360 H352 0.950 . S
C360 C361 1.386 . S
C360 C362 1.391 . S
C361 C360 1.386 . S
C361 C365 1.393 . S
C362 H354 0.950 . S
C362 C360 1.391 . S
C362 C363 1.400 1_556 S
C363 C362 1.400 1_554 S
C363 C364 1.398 1_554 S
C363 C369 1.491 . S
C364 H355 0.926 1_556 S
C364 C363 1.398 1_556 S
C364 C365 1.391 . S
C365 H353 0.950 . S
C365 C361 1.393 . S
C365 C364 1.391 . S
C366 H356 0.950 . S
C366 C367 1.386 . S
C366 C368 1.391 . S
C367 C366 1.386 . S
C367 C371 1.393 . S
C368 H357 0.950 . S
C368 C366 1.391 . S
C368 C369 1.400 . S
C369 C363 1.491 . S
C369 C368 1.400 . S
C369 C370 1.398 . S
C370 H358 0.950 . S
C370 C369 1.398 . S
C370 C371 1.391 . S
C371 H359 0.950 . S
C371 C367 1.393 . S
C371 C370 1.391 . S
H372 C380 0.950 . S
H373 C385 0.950 . S
H374 C382 0.950 . S
H375 C384 0.950 . S
H376 C386 0.950 . S
H377 C388 0.950 . S
H378 C390 0.950 . S
H379 C391 0.950 . S
C380 H372 0.950 . S
C380 C381 1.386 . S
C380 C382 1.391 . S
C381 C380 1.386 . S
C381 C385 1.393 . S
C382 H374 0.950 . S
C382 C380 1.391 . S
C382 C383 1.400 . S
C383 C382 1.400 . S
C383 C384 1.398 . S
C383 C389 1.491 . S
C384 H375 0.950 . S
C384 C383 1.398 . S
C384 C385 1.391 . S
C385 H373 0.950 . S
C385 C381 1.393 . S
C385 C384 1.391 . S
C386 H376 0.950 . S
C386 C387 1.386 1_565 S
C386 C388 1.391 . S
C387 C386 1.386 1_545 S
C387 C391 1.393 . S
C388 H377 0.950 . S
C388 C386 1.391 . S
C388 C389 1.400 . S
C389 C383 1.491 . S
C389 C388 1.400 . S
C389 C390 1.398 . S
C390 H378 0.950 . S
C390 C389 1.398 . S
C390 C391 1.391 1_565 S
C391 H379 0.950 . S
C391 C387 1.393 . S
C391 C390 1.391 1_545 S
H392 C400 0.950 . S
H393 C405 0.950 . S
H394 C402 0.950 . S
H395 C404 0.950 . S
H396 C406 0.950 . S
H397 C408 0.950 . S
H398 C410 0.950 . S
H399 C411 0.950 . S
C400 H392 0.950 . S
C400 C401 1.386 . S
C400 C402 1.391 . S
C401 C400 1.386 . S
C401 C405 1.393 . S
C402 H394 0.950 . S
C402 C400 1.391 . S
C402 C403 1.400 . S
C403 C402 1.400 . S
C403 C404 1.398 . S
C403 C409 1.491 . S
C404 H395 0.950 . S
C404 C403 1.398 . S
C404 C405 1.391 . S
C405 H393 0.950 . S
C405 C401 1.393 . S
C405 C404 1.391 . S
C406 H396 0.950 . S
C406 C407 1.386 . S
C406 C408 1.391 . S
C407 C406 1.386 . S
C407 C411 1.393 . S
C408 H397 0.950 . S
C408 C406 1.391 . S
C408 C409 1.400 . S
C409 C403 1.491 . S
C409 C408 1.400 . S
C409 C410 1.398 . S
C410 H398 0.950 . S
C410 C409 1.398 . S
C410 C411 1.391 . S
C411 H399 0.950 . S
C411 C407 1.393 . S
C411 C410 1.391 . S
H412 C420 0.950 . S
H413 C425 0.950 . S
H414 C422 0.950 1_565 S
H415 C424 0.950 . S
H416 C426 0.950 . S
H417 C428 0.950 . S
H418 C430 0.950 . S
H419 C431 0.950 . S
C420 H412 0.950 . S
C420 C421 1.386 . S
C420 C422 1.391 . S
C421 C420 1.386 . S
C421 C425 1.393 . S
C422 H414 0.950 1_545 S
C422 C420 1.391 . S
C422 C423 1.400 . S
C423 C422 1.400 . S
C423 C424 1.398 . S
C423 C429 1.491 . S
C424 H415 0.950 . S
C424 C423 1.398 . S
C424 C425 1.391 . S
C425 H413 0.950 . S
C425 C421 1.393 . S
C425 C424 1.391 . S
C426 H416 0.950 . S
C426 C427 1.386 1_545 S
C426 C428 1.391 . S
C427 C426 1.386 1_565 S
C427 C431 1.393 . S
C428 H417 0.950 . S
C428 C426 1.391 . S
C428 C429 1.400 . S
C429 C423 1.491 . S
C429 C428 1.400 . S
C429 C430 1.398 1_545 S
C430 H418 0.950 . S
C430 C429 1.398 1_565 S
C430 C431 1.391 . S
C431 H419 0.950 . S
C431 C427 1.393 . S
C431 C430 1.391 . S
H432 C440 0.950 . S
H433 C445 0.950 . S
H434 C442 0.950 . S
H435 C444 0.950 . S
H436 C446 0.950 . S
H437 C448 0.950 . S
H438 C450 0.950 1_455 S
H439 C451 0.950 . S
C440 H432 0.950 . S
C440 C441 1.383 1_455 S
C440 C442 1.391 . S
C441 C440 1.383 1_655 S
C441 C445 1.398 . S
C442 H434 0.950 . S
C442 C440 1.391 . S
C442 C443 1.400 1_455 S
C443 C442 1.400 1_655 S
C443 C444 1.398 . S
C443 C449 1.491 . S
C444 H435 0.950 . S
C444 C443 1.398 . S
C444 C445 1.391 . S
C445 H433 0.950 . S
C445 C441 1.398 . S
C445 C444 1.391 . S
C446 H436 0.950 . S
C446 C447 1.386 . S
C446 C448 1.391 . S
C447 C446 1.386 . S
C447 C451 1.393 . S
C448 H437 0.950 . S
C448 C446 1.391 . S
C448 C449 1.400 . S
C449 C443 1.491 . S
C449 C448 1.400 . S
C449 C450 1.398 . S
C450 H438 0.950 1_655 S
C450 C449 1.398 . S
C450 C451 1.391 . S
C451 H439 0.950 . S
C451 C447 1.393 . S
C451 C450 1.391 . S
H452 C460 0.950 . S
H453 C465 0.950 . S
H454 C462 0.950 . S
H455 C464 0.950 . S
H456 C466 0.950 . S
H457 C468 0.950 1_556 S
H458 C470 0.950 . S
H459 C471 0.950 . S
C460 H452 0.950 . S
C460 C461 1.386 . S
C460 C462 1.391 . S
C461 C460 1.386 . S
C461 C465 1.393 . S
C462 H454 0.950 . S
C462 C460 1.391 . S
C462 C463 1.400 . S
C463 C462 1.400 . S
C463 C464 1.398 . S
C463 C469 1.491 . S
C464 H455 0.950 . S
C464 C463 1.398 . S
C464 C465 1.391 . S
C465 H453 0.950 . S
C465 C461 1.393 . S
C465 C464 1.391 . S
C466 H456 0.950 . S
C466 C467 1.386 . S
C466 C468 1.391 . S
C467 C466 1.386 . S
C467 C471 1.393 . S
C468 H457 0.950 1_554 S
C468 C466 1.391 . S
C468 C469 1.400 1_554 S
C469 C463 1.491 . S
C469 C468 1.400 1_556 S
C469 C470 1.398 1_556 S
C470 H458 0.950 . S
C470 C469 1.398 1_554 S
C470 C471 1.391 . S
C471 H459 0.950 . S
C471 C467 1.393 . S
C471 C470 1.391 . S
H472 C480 0.950 . S
H473 C485 0.950 . S
H474 C482 0.950 . S
H475 C484 0.950 1_655 S
H476 C486 0.950 . S
H477 C488 0.950 . S
H478 C490 0.950 . S
H479 C491 0.950 . S
C480 H472 0.950 . S
C480 C481 1.386 . S
C480 C482 1.391 . S
C481 C480 1.386 . S
C481 C485 1.393 . S
C482 H474 0.950 . S
C482 C480 1.391 . S
C482 C483 1.400 . S
C483 C482 1.400 . S
C483 C484 1.398 . S
C483 C489 1.491 . S
C484 H475 0.950 1_455 S
C484 C483 1.398 . S
C484 C485 1.391 . S
C485 H473 0.950 . S
C485 C481 1.393 . S
C485 C484 1.391 . S
C486 H476 0.950 . S
C486 C487 1.386 . S
C486 C488 1.391 . S
C487 C486 1.386 . S
C487 C491 1.393 1_655 S
C488 H477 0.950 . S
C488 C486 1.391 . S
C488 C489 1.400 1_655 S
C489 C483 1.491 . S
C489 C488 1.400 1_455 S
C489 C490 1.398 . S
C490 H478 0.950 . S
C490 C489 1.398 . S
C490 C491 1.391 . S
C491 H479 0.950 . S
C491 C487 1.393 1_455 S
C491 C490 1.391 . S
H492 C500 0.950 . S
H493 C505 0.950 . S
H494 C502 0.950 . S
H495 C504 0.950 . S
H496 C506 0.950 . S
H497 C508 0.950 . S
H498 C510 0.950 . S
H499 C511 0.950 . S
C500 H492 0.950 . S
C500 C501 1.386 . S
C500 C502 1.391 . S
C501 C500 1.386 . S
C501 C505 1.393 . S
C502 H494 0.950 . S
C502 C500 1.391 . S
C502 C503 1.400 . S
C503 C502 1.400 . S
C503 C504 1.398 . S
C503 C509 1.491 . S
C504 H495 0.950 . S
C504 C503 1.398 . S
C504 C505 1.391 . S
C505 H493 0.950 . S
C505 C501 1.393 . S
C505 C504 1.391 . S
C506 H496 0.950 . S
C506 C507 1.386 . S
C506 C508 1.391 . S
C507 C506 1.386 . S
C507 C511 1.393 . S
C508 H497 0.950 . S
C508 C506 1.391 . S
C508 C509 1.400 . S
C509 C503 1.491 . S
C509 C508 1.400 . S
C509 C510 1.398 . S
C510 H498 0.950 . S
C510 C509 1.398 . S
C510 C511 1.391 . S
C511 H499 0.950 . S
C511 C507 1.393 . S
C511 C510 1.391 . S
H512 C520 0.950 . S
H513 C525 0.950 . S
H514 C522 0.950 . S
H515 C524 0.950 . S
H516 C526 0.950 . S
H517 C528 0.950 . S
H518 C530 0.950 . S
H519 C531 0.950 . S
C520 H512 0.950 . S
C520 C521 1.386 . S
C520 C522 1.391 . S
C521 C520 1.386 . S
C521 C525 1.393 . S
C522 H514 0.950 . S
C522 C520 1.391 . S
C522 C523 1.400 . S
C523 C522 1.400 . S
C523 C524 1.398 . S
C523 C529 1.491 . S
C524 H515 0.950 . S
C524 C523 1.398 . S
C524 C525 1.391 . S
C525 H513 0.950 . S
C525 C521 1.393 . S
C525 C524 1.391 . S
C526 H516 0.950 . S
C526 C527 1.386 . S
C526 C528 1.391 . S
C527 C526 1.386 . S
C527 C531 1.393 . S
C528 H517 0.950 . S
C528 C526 1.391 . S
C528 C529 1.400 . S
C529 C523 1.491 . S
C529 C528 1.400 . S
C529 C530 1.398 . S
C530 H518 0.950 . S
C530 C529 1.398 . S
C530 C531 1.391 . S
C531 H519 0.950 . S
C531 C527 1.393 . S
C531 C530 1.391 . S
H532 C540 0.950 . S
H533 C545 0.950 . S
H534 C542 0.950 . S
H535 C544 0.950 . S
H536 C546 0.950 . S
H537 C548 0.950 . S
H538 C550 0.950 . S
H539 C551 0.950 . S
C540 H532 0.950 . S
C540 C541 1.386 . S
C540 C542 1.391 . S
C541 C540 1.386 . S
C541 C545 1.393 . S
C542 H534 0.950 . S
C542 C540 1.391 . S
C542 C543 1.400 . S
C543 C542 1.400 . S
C543 C544 1.398 . S
C543 C549 1.491 . S
C544 H535 0.950 . S
C544 C543 1.398 . S
C544 C545 1.391 . S
C545 H533 0.950 . S
C545 C541 1.393 . S
C545 C544 1.391 . S
C546 H536 0.950 . S
C546 C547 1.386 . S
C546 C548 1.391 . S
C547 C546 1.386 . S
C547 C551 1.393 . S
C548 H537 0.950 . S
C548 C546 1.391 . S
C548 C549 1.400 . S
C549 C543 1.491 . S
C549 C548 1.400 . S
C549 C550 1.398 . S
C550 H538 0.950 . S
C550 C549 1.398 . S
C550 C551 1.391 . S
C551 H539 0.950 . S
C551 C547 1.393 . S
C551 C550 1.391 . S
H552 C560 0.950 . S
H553 C565 0.950 . S
H554 C562 0.950 . S
H555 C564 0.950 . S
H556 C566 0.950 . S
H557 C568 0.950 . S
H558 C570 0.950 . S
H559 C571 0.950 . S
C560 H552 0.950 . S
C560 C561 1.386 . S
C560 C562 1.391 . S
C561 C560 1.386 . S
C561 C565 1.393 . S
C562 H554 0.950 . S
C562 C560 1.391 . S
C562 C563 1.400 . S
C563 C562 1.400 . S
C563 C564 1.398 . S
C563 C569 1.491 . S
C564 H555 0.950 . S
C564 C563 1.398 . S
C564 C565 1.391 . S
C565 H553 0.950 . S
C565 C561 1.393 . S
C565 C564 1.391 . S
C566 H556 0.950 . S
C566 C567 1.386 . S
C566 C568 1.391 . S
C567 C566 1.386 . S
C567 C571 1.393 . S
C568 H557 0.950 . S
C568 C566 1.391 . S
C568 C569 1.400 . S
C569 C563 1.491 . S
C569 C568 1.400 . S
C569 C570 1.398 . S
C570 H558 0.950 . S
C570 C569 1.398 . S
C570 C571 1.391 . S
C571 H559 0.950 . S
C571 C567 1.393 . S
C571 C570 1.391 . S
H572 C580 0.950 . S
H573 C585 0.950 . S
H574 C582 0.950 . S
H575 C584 0.950 . S
H576 C586 0.950 . S
H577 C588 0.950 . S
H578 C590 0.950 . S
H579 C591 0.950 . S
C580 H572 0.950 . S
C580 C581 1.386 . S
C580 C582 1.391 . S
C581 C580 1.386 . S
C581 C585 1.393 . S
C582 H574 0.950 . S
C582 C580 1.391 . S
C582 C583 1.400 . S
C583 C582 1.400 . S
C583 C584 1.398 . S
C583 C589 1.491 . S
C584 H575 0.950 . S
C584 C583 1.398 . S
C584 C585 1.391 . S
C585 H573 0.950 . S
C585 C581 1.393 . S
C585 C584 1.391 . S
C586 H576 0.950 . S
C586 C587 1.386 . S
C586 C588 1.391 . S
C587 C586 1.386 . S
C587 C591 1.393 . S
C588 H577 0.950 . S
C588 C586 1.391 . S
C588 C589 1.400 . S
C589 C583 1.491 . S
C589 C588 1.400 . S
C589 C590 1.398 . S
C590 H578 0.950 . S
C590 C589 1.398 . S
C590 C591 1.391 . S
C591 H579 0.950 . S
C591 C587 1.393 . S
C591 C590 1.391 . S
H592 C600 0.950 . S
H593 C605 0.950 . S
H594 C602 0.950 . S
H595 C604 0.950 . S
H596 C606 0.950 . S
H597 C608 0.950 . S
H598 C610 0.950 . S
H599 C611 0.950 . S
C600 H592 0.950 . S
C600 C601 1.386 . S
C600 C602 1.391 . S
C601 C600 1.386 . S
C601 C605 1.393 . S
C602 H594 0.950 . S
C602 C600 1.391 . S
C602 C603 1.400 . S
C603 C602 1.400 . S
C603 C604 1.398 . S
C603 C609 1.491 . S
C604 H595 0.950 . S
C604 C603 1.398 . S
C604 C605 1.391 . S
C605 H593 0.950 . S
C605 C601 1.393 . S
C605 C604 1.391 . S
C606 H596 0.950 . S
C606 C607 1.386 . S
C606 C608 1.391 . S
C607 C606 1.386 . S
C607 C611 1.393 . S
C608 H597 0.950 . S
C608 C606 1.391 . S
C608 C609 1.400 . S
C609 C603 1.491 . S
C609 C608 1.400 . S
C609 C610 1.398 . S
C610 H598 0.950 . S
C610 C609 1.398 . S
C610 C611 1.391 . S
C611 H599 0.950 . S
C611 C607 1.393 . S
C611 C610 1.391 . S
H612 C620 0.950 . S
H613 C625 0.950 . S
H614 C622 0.950 . S
H615 C624 0.950 . S
H616 C626 0.950 . S
H617 C628 0.950 . S
H618 C630 0.950 . S
H619 C631 0.950 . S
C620 H612 0.950 . S
C620 C621 1.386 . S
C620 C622 1.391 . S
C621 C620 1.386 . S
C621 C625 1.393 . S
C622 H614 0.950 . S
C622 C620 1.391 . S
C622 C623 1.400 . S
C623 C622 1.400 . S
C623 C624 1.398 . S
C623 C629 1.491 . S
C624 H615 0.950 . S
C624 C623 1.398 . S
C624 C625 1.391 . S
C625 H613 0.950 . S
C625 C621 1.393 . S
C625 C624 1.391 . S
C626 H616 0.950 . S
C626 C627 1.386 . S
C626 C628 1.391 . S
C627 C626 1.386 . S
C627 C631 1.393 . S
C628 H617 0.950 . S
C628 C626 1.391 . S
C628 C629 1.400 . S
C629 C623 1.491 . S
C629 C628 1.400 . S
C629 C630 1.398 . S
C630 H618 0.950 . S
C630 C629 1.398 . S
C630 C631 1.391 . S
C631 H619 0.950 . S
C631 C627 1.393 . S
C631 C630 1.391 . S
H632 C640 0.950 . S
H633 C645 0.950 . S
H634 C642 0.950 . S
H635 C644 0.950 . S
H636 C646 0.950 . S
H637 C648 0.950 . S
H638 C650 0.950 . S
H639 C651 0.950 . S
C640 H632 0.950 . S
C640 C641 1.386 . S
C640 C642 1.391 . S
C641 C640 1.386 . S
C641 C645 1.393 . S
C642 H634 0.950 . S
C642 C640 1.391 . S
C642 C643 1.400 . S
C643 C642 1.400 . S
C643 C644 1.398 . S
C643 C649 1.491 . S
C644 H635 0.950 . S
C644 C643 1.398 . S
C644 C645 1.391 . S
C645 H633 0.950 . S
C645 C641 1.393 . S
C645 C644 1.391 . S
C646 H636 0.950 . S
C646 C647 1.386 . S
C646 C648 1.391 . S
C647 C646 1.386 . S
C647 C651 1.393 . S
C648 H637 0.950 . S
C648 C646 1.391 . S
C648 C649 1.400 . S
C649 C643 1.491 . S
C649 C648 1.400 . S
C649 C650 1.398 . S
C650 H638 0.950 . S
C650 C649 1.398 . S
C650 C651 1.391 . S
C651 H639 0.950 . S
C651 C647 1.393 . S
C651 C650 1.391 . S
H652 C660 0.950 . S
H653 C665 0.950 . S
H654 C662 0.950 . S
H655 C664 0.950 . S
H656 C666 0.950 . S
H657 C668 0.950 . S
H658 C670 0.950 . S
H659 C671 0.950 . S
C660 H652 0.950 . S
C660 C661 1.386 . S
C660 C662 1.391 . S
C661 C660 1.386 . S
C661 C665 1.393 . S
C662 H654 0.950 . S
C662 C660 1.391 . S
C662 C663 1.400 . S
C663 C662 1.400 . S
C663 C664 1.398 . S
C663 C669 1.491 . S
C664 H655 0.950 . S
C664 C663 1.398 . S
C664 C665 1.391 . S
C665 H653 0.950 . S
C665 C661 1.393 . S
C665 C664 1.391 . S
C666 H656 0.950 . S
C666 C667 1.386 . S
C666 C668 1.391 . S
C667 C666 1.386 . S
C667 C671 1.393 . S
C668 H657 0.950 . S
C668 C666 1.391 . S
C668 C669 1.400 . S
C669 C663 1.491 . S
C669 C668 1.400 . S
C669 C670 1.398 . S
C670 H658 0.950 . S
C670 C669 1.398 . S
C670 C671 1.391 . S
C671 H659 0.950 . S
C671 C667 1.393 . S
C671 C670 1.391 . S
C281 C5 0.750 . S
C287 C175 0.733 . S
C301 C209 0.729 . S
C307 C39 0.747 . S
C321 C243 0.731 . S
C327 C73 0.749 . S
C341 C141 0.730 . S
C347 C107 0.748 . S
C361 C111 0.907 . S
C367 C33 0.870 . S
C381 C67 0.869 . S
C387 C9 0.907 . S
C401 C43 0.894 . S
C407 C101 0.882 . S
C421 C135 0.894 . S
C427 C77 0.885 . S
C441 C179 0.885 1_655 S
C447 C169 0.892 . S
C461 C203 0.904 . S
C467 C213 0.880 . S
C481 C237 0.896 . S
C487 C247 0.888 . S
C501 C271 0.879 . S
C507 C145 0.896 . S
C521 C206 1.208 . S
C527 C20 1.243 . S
C541 C240 1.229 . S
C547 C54 1.239 . S
C561 C88 1.241 . S
C567 C138 1.219 . S
C581 C122 1.242 . S
C587 C172 1.215 . S
C601 C156 1.243 . S
C607 C70 1.207 . S
C621 C104 1.229 . S
C627 C190 1.240 . S
C641 C224 1.242 . S
C647 C2 1.212 . S
C661 C36 1.214 . S
C667 C258 1.242 . S
