# Generated by pormake.
# Topology umr, (4)-cn, num edge types: 1
# Building blocks:
#     Node 0, Type 0, BuildingBlock: CEKHIL_clean_sbu_0, # of connection points: 4
#     Node 1, Type 0, BuildingBlock: CEKHIL_clean_sbu_0, # of connection points: 4
#     Node 2, Type 0, BuildingBlock: CEKHIL_clean_sbu_0, # of connection points: 4
#     Node 3, Type 0, BuildingBlock: CEKHIL_clean_sbu_0, # of connection points: 4
#     Node 4, Type 0, BuildingBlock: CEKHIL_clean_sbu_0, # of connection points: 4
#     Node 5, Type 0, BuildingBlock: CEKHIL_clean_sbu_0, # of connection points: 4
#     Node 6, Type 0, BuildingBlock: CEKHIL_clean_sbu_0, # of connection points: 4
#     Node 7, Type 0, BuildingBlock: CEKHIL_clean_sbu_0, # of connection points: 4
#     Node 8, Type 0, BuildingBlock: CEKHIL_clean_sbu_0, # of connection points: 4
#     Node 9, Type 0, BuildingBlock: CEKHIL_clean_sbu_0, # of connection points: 4
#     Node 10, Type 0, BuildingBlock: CEKHIL_clean_sbu_0, # of connection points: 4
#     Node 11, Type 0, BuildingBlock: CEKHIL_clean_sbu_0, # of connection points: 4
#     Node 12, Type 0, BuildingBlock: CEKHIL_clean_sbu_0, # of connection points: 4
#     Node 13, Type 0, BuildingBlock: CEKHIL_clean_sbu_0, # of connection points: 4
#     Node 14, Type 0, BuildingBlock: CEKHIL_clean_sbu_0, # of connection points: 4
#     Node 15, Type 0, BuildingBlock: CEKHIL_clean_sbu_0, # of connection points: 4
#     Node 16, Type 0, BuildingBlock: CEKHIL_clean_sbu_0, # of connection points: 4
#     Node 17, Type 0, BuildingBlock: CEKHIL_clean_sbu_0, # of connection points: 4
#     Node 18, Type 0, BuildingBlock: CEKHIL_clean_sbu_0, # of connection points: 4
#     Node 19, Type 0, BuildingBlock: CEKHIL_clean_sbu_0, # of connection points: 4
#     Node 20, Type 0, BuildingBlock: CEKHIL_clean_sbu_0, # of connection points: 4
#     Node 21, Type 0, BuildingBlock: CEKHIL_clean_sbu_0, # of connection points: 4
#     Node 22, Type 0, BuildingBlock: CEKHIL_clean_sbu_0, # of connection points: 4
#     Node 23, Type 0, BuildingBlock: CEKHIL_clean_sbu_0, # of connection points: 4
#     Node 24, Type 0, BuildingBlock: CEKHIL_clean_sbu_0, # of connection points: 4
#     Node 25, Type 0, BuildingBlock: CEKHIL_clean_sbu_0, # of connection points: 4
#     Node 26, Type 0, BuildingBlock: CEKHIL_clean_sbu_0, # of connection points: 4
#     Node 27, Type 0, BuildingBlock: CEKHIL_clean_sbu_0, # of connection points: 4
#     Node 28, Type 0, BuildingBlock: CEKHIL_clean_sbu_0, # of connection points: 4
#     Node 29, Type 0, BuildingBlock: CEKHIL_clean_sbu_0, # of connection points: 4
#     Node 30, Type 0, BuildingBlock: CEKHIL_clean_sbu_0, # of connection points: 4
#     Node 31, Type 0, BuildingBlock: CEKHIL_clean_sbu_0, # of connection points: 4
#     Edge 32, Type (0, 0), BuildingBlock: OJICUG_clean_linker_0, # of connection points: 2
#     Edge 33, Type (0, 0), BuildingBlock: OJICUG_clean_linker_0, # of connection points: 2
#     Edge 34, Type (0, 0), BuildingBlock: OJICUG_clean_linker_0, # of connection points: 2
#     Edge 35, Type (0, 0), BuildingBlock: OJICUG_clean_linker_0, # of connection points: 2
#     Edge 36, Type (0, 0), BuildingBlock: OJICUG_clean_linker_0, # of connection points: 2
#     Edge 37, Type (0, 0), BuildingBlock: OJICUG_clean_linker_0, # of connection points: 2
#     Edge 38, Type (0, 0), BuildingBlock: OJICUG_clean_linker_0, # of connection points: 2
#     Edge 39, Type (0, 0), BuildingBlock: OJICUG_clean_linker_0, # of connection points: 2
#     Edge 40, Type (0, 0), BuildingBlock: OJICUG_clean_linker_0, # of connection points: 2
#     Edge 41, Type (0, 0), BuildingBlock: OJICUG_clean_linker_0, # of connection points: 2
#     Edge 42, Type (0, 0), BuildingBlock: OJICUG_clean_linker_0, # of connection points: 2
#     Edge 43, Type (0, 0), BuildingBlock: OJICUG_clean_linker_0, # of connection points: 2
#     Edge 44, Type (0, 0), BuildingBlock: OJICUG_clean_linker_0, # of connection points: 2
#     Edge 45, Type (0, 0), BuildingBlock: OJICUG_clean_linker_0, # of connection points: 2
#     Edge 46, Type (0, 0), BuildingBlock: OJICUG_clean_linker_0, # of connection points: 2
#     Edge 47, Type (0, 0), BuildingBlock: OJICUG_clean_linker_0, # of connection points: 2
#     Edge 48, Type (0, 0), BuildingBlock: OJICUG_clean_linker_0, # of connection points: 2
#     Edge 49, Type (0, 0), BuildingBlock: OJICUG_clean_linker_0, # of connection points: 2
#     Edge 50, Type (0, 0), BuildingBlock: OJICUG_clean_linker_0, # of connection points: 2
#     Edge 51, Type (0, 0), BuildingBlock: OJICUG_clean_linker_0, # of connection points: 2
#     Edge 52, Type (0, 0), BuildingBlock: OJICUG_clean_linker_0, # of connection points: 2
#     Edge 53, Type (0, 0), BuildingBlock: OJICUG_clean_linker_0, # of connection points: 2
#     Edge 54, Type (0, 0), BuildingBlock: OJICUG_clean_linker_0, # of connection points: 2
#     Edge 55, Type (0, 0), BuildingBlock: OJICUG_clean_linker_0, # of connection points: 2
#     Edge 56, Type (0, 0), BuildingBlock: OJICUG_clean_linker_0, # of connection points: 2
#     Edge 57, Type (0, 0), BuildingBlock: OJICUG_clean_linker_0, # of connection points: 2
#     Edge 58, Type (0, 0), BuildingBlock: OJICUG_clean_linker_0, # of connection points: 2
#     Edge 59, Type (0, 0), BuildingBlock: OJICUG_clean_linker_0, # of connection points: 2
#     Edge 60, Type (0, 0), BuildingBlock: OJICUG_clean_linker_0, # of connection points: 2
#     Edge 61, Type (0, 0), BuildingBlock: OJICUG_clean_linker_0, # of connection points: 2
#     Edge 62, Type (0, 0), BuildingBlock: OJICUG_clean_linker_0, # of connection points: 2
#     Edge 63, Type (0, 0), BuildingBlock: OJICUG_clean_linker_0, # of connection points: 2
#     Edge 64, Type (0, 0), BuildingBlock: OJICUG_clean_linker_0, # of connection points: 2
#     Edge 65, Type (0, 0), BuildingBlock: OJICUG_clean_linker_0, # of connection points: 2
#     Edge 66, Type (0, 0), BuildingBlock: OJICUG_clean_linker_0, # of connection points: 2
#     Edge 67, Type (0, 0), BuildingBlock: OJICUG_clean_linker_0, # of connection points: 2
#     Edge 68, Type (0, 0), BuildingBlock: OJICUG_clean_linker_0, # of connection points: 2
#     Edge 69, Type (0, 0), BuildingBlock: OJICUG_clean_linker_0, # of connection points: 2
#     Edge 70, Type (0, 0), BuildingBlock: OJICUG_clean_linker_0, # of connection points: 2
#     Edge 71, Type (0, 0), BuildingBlock: OJICUG_clean_linker_0, # of connection points: 2
#     Edge 72, Type (0, 0), BuildingBlock: OJICUG_clean_linker_0, # of connection points: 2
#     Edge 73, Type (0, 0), BuildingBlock: OJICUG_clean_linker_0, # of connection points: 2
#     Edge 74, Type (0, 0), BuildingBlock: OJICUG_clean_linker_0, # of connection points: 2
#     Edge 75, Type (0, 0), BuildingBlock: OJICUG_clean_linker_0, # of connection points: 2
#     Edge 76, Type (0, 0), BuildingBlock: OJICUG_clean_linker_0, # of connection points: 2
#     Edge 77, Type (0, 0), BuildingBlock: OJICUG_clean_linker_0, # of connection points: 2
#     Edge 78, Type (0, 0), BuildingBlock: OJICUG_clean_linker_0, # of connection points: 2
#     Edge 79, Type (0, 0), BuildingBlock: OJICUG_clean_linker_0, # of connection points: 2
#     Edge 80, Type (0, 0), BuildingBlock: OJICUG_clean_linker_0, # of connection points: 2
#     Edge 81, Type (0, 0), BuildingBlock: OJICUG_clean_linker_0, # of connection points: 2
#     Edge 82, Type (0, 0), BuildingBlock: OJICUG_clean_linker_0, # of connection points: 2
#     Edge 83, Type (0, 0), BuildingBlock: OJICUG_clean_linker_0, # of connection points: 2
#     Edge 84, Type (0, 0), BuildingBlock: OJICUG_clean_linker_0, # of connection points: 2
#     Edge 85, Type (0, 0), BuildingBlock: OJICUG_clean_linker_0, # of connection points: 2
#     Edge 86, Type (0, 0), BuildingBlock: OJICUG_clean_linker_0, # of connection points: 2
#     Edge 87, Type (0, 0), BuildingBlock: OJICUG_clean_linker_0, # of connection points: 2
#     Edge 88, Type (0, 0), BuildingBlock: OJICUG_clean_linker_0, # of connection points: 2
#     Edge 89, Type (0, 0), BuildingBlock: OJICUG_clean_linker_0, # of connection points: 2
#     Edge 90, Type (0, 0), BuildingBlock: OJICUG_clean_linker_0, # of connection points: 2
#     Edge 91, Type (0, 0), BuildingBlock: OJICUG_clean_linker_0, # of connection points: 2
#     Edge 92, Type (0, 0), BuildingBlock: OJICUG_clean_linker_0, # of connection points: 2
#     Edge 93, Type (0, 0), BuildingBlock: OJICUG_clean_linker_0, # of connection points: 2
#     Edge 94, Type (0, 0), BuildingBlock: OJICUG_clean_linker_0, # of connection points: 2
#     Edge 95, Type (0, 0), BuildingBlock: OJICUG_clean_linker_0, # of connection points: 2
# Relax obj value: 0.088
# Max RMSD: 0.107
# Mean RMSD: 0.107
data_MOF--net-umr--node1-CEKHIL_clean_sbu_0--edge1-OJICUG_clean_linker_0
_symmetry_space_group_name_H-M    P1
_symmetry_Int_Tables_number       1
_symmetry_cell_setting            triclinic
loop_
_symmetry_equiv_pos_as_xyz
'x, y, z'
_cell_length_a     59.412789
_cell_length_b     59.386505
_cell_length_c     19.321022
_cell_angle_alpha  89.990576
_cell_angle_beta   90.006241
_cell_angle_gamma 90.02455
loop_
_atom_site_label
_atom_site_type_symbol
_atom_site_fract_x
_atom_site_fract_y
_atom_site_fract_z
_atom_type_partial_charge
Co0 Co 0.16917 0.30533 0.01734 0.0
O1 O 0.13792 0.31263 0.03142 0.0
O2 O 0.16649 0.33357 0.06705 0.0
C3 C 0.16576 0.29608 0.90465 0.0
O4 O 0.20349 0.30368 0.01088 0.0
Co5 Co 0.18426 0.25714 0.97463 0.0
O6 O 0.21286 0.27262 0.95077 0.0
C7 C 0.17133 0.26645 0.11992 0.0
C8 C 0.14482 0.33081 0.0621 0.0
C9 C 0.21793 0.2914 0.97851 0.0
O10 O 0.16962 0.28763 0.10642 0.0
O11 O 0.1755 0.25157 0.07362 0.0
O12 O 0.16777 0.31705 0.92291 0.0
O13 O 0.16412 0.28181 0.95472 0.0
Co14 Co 0.97782 0.91845 0.26577 0.0
O15 O 0.97021 0.88735 0.28121 0.0
O16 O 0.94959 0.91626 0.31583 0.0
C17 C 0.9869 0.91453 0.15315 0.0
O18 O 0.97992 0.95274 0.25752 0.0
Co19 Co 0.02629 0.9325 0.2224 0.0
O20 O 1.01121 0.96118 0.19723 0.0
C21 C 0.01677 0.92059 0.36826 0.0
C22 C 0.95214 0.89454 0.31172 0.0
C23 C 0.99251 0.96678 0.22451 0.0
O24 O 0.99558 0.91912 0.35475 0.0
O25 O 0.03174 0.92424 0.32182 0.0
O26 O 0.96598 0.91678 0.17155 0.0
O27 O 1.00118 0.91283 0.20316 0.0
Co28 Co 0.36169 0.72643 0.52039 0.0
O29 O 0.393 0.71914 0.53312 0.0
O30 O 0.3646 0.69823 0.57018 0.0
C31 C 0.36458 0.73565 0.40753 0.0
O32 O 0.32736 0.7281 0.51561 0.0
Co33 Co 0.34652 0.77468 0.47825 0.0
O34 O 0.31741 0.75959 0.45845 0.0
C35 C 0.36018 0.76535 0.62285 0.0
C36 C 0.38624 0.70101 0.56437 0.0
C37 C 0.31262 0.74064 0.48556 0.0
O38 O 0.36169 0.74415 0.60938 0.0
O39 O 0.35592 0.78024 0.57668 0.0
O40 O 0.36263 0.71468 0.42594 0.0
O41 O 0.36647 0.74993 0.45748 0.0
Co42 Co 0.55487 0.11209 0.76783 0.0
O43 O 0.56245 0.14337 0.78005 0.0
O44 O 0.58308 0.11483 0.81758 0.0
C45 C 0.54566 0.11484 0.65492 0.0
O46 O 0.55289 0.07775 0.76367 0.0
Co47 Co 0.50643 0.09734 0.72606 0.0
O48 O 0.52093 0.06777 0.70902 0.0
C49 C 0.51595 0.11116 0.87035 0.0
C50 C 0.5805 0.1365 0.81147 0.0
C51 C 0.53998 0.06297 0.73536 0.0
O52 O 0.53716 0.11238 0.85687 0.0
O53 O 0.50101 0.10705 0.82423 0.0
O54 O 0.5666 0.11276 0.67332 0.0
O55 O 0.53142 0.11695 0.70487 0.0
Co56 Co 0.16872 0.7277 0.4595 0.0
O57 O 0.13756 0.72046 0.44372 0.0
O58 O 0.16626 0.69949 0.40947 0.0
C59 C 0.16473 0.73684 0.57204 0.0
O60 O 0.203 0.72937 0.46801 0.0
Co61 Co 0.18343 0.77595 0.50312 0.0
O62 O 0.21185 0.76046 0.52872 0.0
C63 C 0.17152 0.76663 0.3571 0.0
C64 C 0.14457 0.70229 0.41333 0.0
C65 C 0.21719 0.7417 0.50127 0.0
O66 O 0.16971 0.74544 0.37056 0.0
O67 O 0.17538 0.78153 0.40358 0.0
O68 O 0.16678 0.71589 0.5537 0.0
O69 O 0.16332 0.75115 0.522 0.0
Co70 Co 0.55327 0.9192 0.70909 0.0
O71 O 0.56085 0.88816 0.69241 0.0
O72 O 0.58151 0.91723 0.65906 0.0
C73 C 0.54415 0.91479 0.82151 0.0
O74 O 0.55123 0.95344 0.71863 0.0
Co75 Co 0.50483 0.93313 0.75298 0.0
O76 O 0.51991 0.96174 0.77888 0.0
C77 C 0.51435 0.92186 0.60666 0.0
C78 C 0.57894 0.89549 0.66229 0.0
C79 C 0.53864 0.96741 0.75186 0.0
O80 O 0.53554 0.92027 0.62013 0.0
O81 O 0.49939 0.92534 0.65321 0.0
O82 O 0.56508 0.91711 0.80325 0.0
O83 O 0.52988 0.91333 0.77141 0.0
Co84 Co 0.36226 0.30501 0.95635 0.0
O85 O 0.39358 0.31207 0.94245 0.0
O86 O 0.36523 0.33325 0.90673 0.0
C87 C 0.36558 0.29571 0.06902 0.0
O88 O 0.32793 0.30362 0.96258 0.0
Co89 Co 0.34672 0.25695 -0.00086 0.0
O90 O 0.31817 0.27259 0.02234 0.0
C91 C 0.35969 0.26617 0.85379 0.0
C92 C 0.38687 0.33033 0.91187 0.0
C93 C 0.31332 0.29143 -0.0054 0.0
O94 O 0.36168 0.28733 0.86727 0.0
O95 O 0.35537 0.25133 0.90009 0.0
O96 O 0.36373 0.3167 0.05079 0.0
O97 O 0.3671 0.28144 0.01894 0.0
Co98 Co 0.97722 0.11148 0.20747 0.0
O99 O 0.96985 0.1428 0.19499 0.0
O100 O 0.94898 0.11437 0.15794 0.0
C101 C 0.98648 0.11437 0.32029 0.0
O102 O 0.97894 0.07713 0.21205 0.0
Co103 Co 0.02549 0.09637 0.24951 0.0
O104 O 1.01063 0.06704 0.26789 0.0
C105 C 0.0161 0.11 0.10489 0.0
C106 C 0.95169 0.13603 0.16401 0.0
C107 C 0.99161 0.06232 0.24119 0.0
O108 O 0.99491 0.11153 0.11838 0.0
O109 O 0.03099 0.10576 0.15107 0.0
O110 O 0.96552 0.11235 0.30198 0.0
O111 O 1.00073 0.11628 0.27029 0.0
Co112 Co 0.86162 0.72732 0.95849 0.0
O113 O 0.89291 0.71991 0.94586 0.0
O114 O 0.86445 0.69911 0.90873 0.0
C115 C 0.8645 0.73654 0.07137 0.0
O116 O 0.82729 0.72909 0.96311 0.0
Co117 Co 0.84658 0.77562 0.00057 0.0
O118 O 0.81734 0.76069 0.01965 0.0
C119 C 0.8602 0.76624 0.85598 0.0
C120 C 0.8861 0.70181 0.91459 0.0
C121 C 0.81254 0.74172 -0.00731 0.0
O122 O 0.86168 0.74504 0.86947 0.0
O123 O 0.85598 0.78115 0.90214 0.0
O124 O 0.86249 0.71558 0.053 0.0
O125 O 0.86644 0.7508 0.02139 0.0
Co126 Co 0.0548 0.11242 0.70757 0.0
O127 O 0.0619 0.14373 0.69332 0.0
O128 O 0.08299 0.11528 0.65779 0.0
C129 C 0.04555 0.11587 0.82023 0.0
O130 O 0.05335 0.07809 0.71401 0.0
Co131 Co 1.00676 0.09694 0.75076 0.0
O132 O 0.0223 0.06829 0.77347 0.0
C133 C 0.01594 0.10967 0.60516 0.0
C134 C 0.08011 0.13694 0.66266 0.0
C135 C 0.04113 0.06345 0.74572 0.0
O136 O 0.03709 0.11176 0.61859 0.0
O137 O 1.00113 0.10539 0.65154 0.0
O138 O 0.06652 0.11397 0.80197 0.0
O139 O 0.03126 0.11734 0.77018 0.0
Co140 Co 0.66909 0.30432 0.45899 0.0
O141 O 0.63798 0.31193 0.44386 0.0
O142 O 0.66687 0.33257 0.40908 0.0
C143 C 0.66528 0.29517 0.57163 0.0
O144 O 0.70337 0.30229 0.46677 0.0
Co145 Co 0.68339 0.25592 0.50223 0.0
O146 O 0.71201 0.27114 0.52747 0.0
C147 C 0.67119 0.26539 0.3565 0.0
C148 C 0.64516 0.33002 0.41338 0.0
C149 C 0.71748 0.28984 0.4999 0.0
O150 O 0.66967 0.28659 0.36997 0.0
O151 O 0.675 0.25045 0.40291 0.0
O152 O 0.66751 0.31611 0.55328 0.0
O153 O 0.66358 0.2809 0.52159 0.0
Co154 Co 0.47591 0.92007 0.20858 0.0
O155 O 0.46867 0.88871 0.19665 0.0
O156 O 0.44771 0.91696 0.15894 0.0
C157 C 0.48515 0.91743 0.32146 0.0
O158 O 0.47755 0.95444 0.21259 0.0
Co159 Co 0.52414 0.93541 0.2503 0.0
O160 O 0.50903 0.96455 0.26952 0.0
C161 C 0.5148 0.92138 0.10604 0.0
C162 C 0.45053 0.89533 0.16533 0.0
C163 C 0.49009 0.96925 0.24233 0.0
O164 O 0.49361 0.91989 0.11955 0.0
O165 O 0.52969 0.92577 0.1521 0.0
O166 O 0.46419 0.91932 0.30306 0.0
O167 O 0.49941 0.91547 0.27153 0.0
Co168 Co 0.86193 0.30441 0.52227 0.0
O169 O 0.89321 0.31179 0.53554 0.0
O170 O 0.86471 0.33269 0.57173 0.0
C171 C 0.8651 0.29512 0.40956 0.0
O172 O 0.82761 0.30271 0.51671 0.0
Co173 Co 0.84676 0.25618 0.47992 0.0
O174 O 0.81784 0.27139 0.45846 0.0
C175 C 0.86001 0.26556 0.62493 0.0
C176 C 0.88637 0.32998 0.56618 0.0
C177 C 0.81298 0.29028 0.48575 0.0
O178 O 0.86171 0.28675 0.61142 0.0
O179 O 0.85577 0.25067 0.57872 0.0
O180 O 0.86309 0.31609 0.42777 0.0
O181 O 0.86685 0.28087 0.45964 0.0
Co182 Co 0.47739 0.11321 0.26743 0.0
O183 O 0.47014 0.14438 0.28342 0.0
O184 O 0.44915 0.11561 0.31722 0.0
C185 C 0.48662 0.11735 0.15499 0.0
O186 O 0.479 0.07892 0.25871 0.0
Co187 Co 0.52556 0.0984 0.22374 0.0
O188 O 0.51004 0.07 0.19797 0.0
C189 C 0.51624 0.1102 0.3699 0.0
C190 C 0.45193 0.13731 0.31347 0.0
C191 C 0.49128 0.06469 0.22545 0.0
O192 O 0.49508 0.11212 0.35646 0.0
O193 O 0.53112 0.10632 0.32339 0.0
O194 O 0.46566 0.11526 0.17317 0.0
O195 O 0.50089 0.11866 0.20512 0.0
Co196 Co 0.66865 0.72862 0.0171 0.0
O197 O 0.63752 0.72121 0.03278 0.0
O198 O 0.66631 0.70037 0.06702 0.0
C199 C 0.66464 0.73782 0.90456 0.0
O200 O 0.70292 0.73045 0.00871 0.0
Co201 Co 0.68317 0.77695 0.97357 0.0
O202 O 0.71169 0.76162 0.94824 0.0
C203 C 0.67128 0.76754 0.11957 0.0
C204 C 0.64461 0.70306 0.06309 0.0
C205 C 0.71709 0.74287 0.97566 0.0
O206 O 0.66955 0.74635 0.10611 0.0
O207 O 0.67507 0.78246 0.07308 0.0
O208 O 0.66678 0.71686 0.92282 0.0
O209 O 0.66316 0.75209 0.95465 0.0
Co210 Co 0.05511 0.9193 0.7662 0.0
O211 O 0.06255 0.88809 0.78048 0.0
O212 O 0.08329 0.91681 0.81622 0.0
C213 C 0.04596 0.91581 0.65347 0.0
O214 O 0.05329 0.95361 0.7597 0.0
Co215 Co 1.00689 0.93413 0.72326 0.0
O216 O 0.02217 0.96288 0.69978 0.0
C217 C 0.01619 0.92116 0.86849 0.0
C218 C 0.08062 0.89512 0.81148 0.0
C219 C 0.04092 0.96803 0.72755 0.0
O220 O 0.03738 0.91965 0.8551 0.0
O221 O 1.0013 0.92523 0.82216 0.0
O222 O 0.0669 0.91794 0.67187 0.0
O223 O 0.03167 0.91411 0.70345 0.0
Co224 Co 0.66928 0.80618 0.5174 0.0
O225 O 0.63795 0.81336 0.52995 0.0
O226 O 0.66624 0.83439 0.56706 0.0
C227 C 0.66642 0.79691 0.40457 0.0
O228 O 0.70363 0.80462 0.51272 0.0
Co229 Co 0.68469 0.75801 0.47535 0.0
O230 O 0.71359 0.77336 0.45446 0.0
C231 C 0.67098 0.76728 0.61997 0.0
C232 C 0.64461 0.83153 0.5611 0.0
C233 C 0.71836 0.79225 0.482 0.0
O234 O 0.66933 0.78847 0.60646 0.0
O235 O 0.67537 0.75242 0.57384 0.0
O236 O 0.66832 0.81789 0.42289 0.0
O237 O 0.6646 0.78264 0.45457 0.0
Co238 Co 0.47793 0.41947 0.76979 0.0
O239 O 0.47062 0.38821 0.78418 0.0
O240 O 0.44969 0.41682 0.81942 0.0
C241 C 0.48719 0.41593 0.65715 0.0
O242 O 0.47958 0.45379 0.76304 0.0
Co243 Co 0.52607 0.43465 0.72666 0.0
O244 O 0.5106 0.46326 0.70295 0.0
C245 C 0.51678 0.42209 0.87234 0.0
C246 C 0.45242 0.39514 0.81458 0.0
C247 C 0.49183 0.46828 0.73077 0.0
O248 O 0.49562 0.42009 0.85887 0.0
O249 O 0.53163 0.42627 0.82596 0.0
O250 O 0.46623 0.41795 0.67538 0.0
O251 O 0.50146 0.41438 0.70724 0.0
Co252 Co 0.86227 0.22677 0.02226 0.0
O253 O 0.89352 0.21951 0.0365 0.0
O254 O 0.86497 0.19851 0.07188 0.0
C255 C 0.86576 0.23605 0.90962 0.0
O256 O 0.82796 0.22836 0.01567 0.0
Co257 Co 0.84709 0.27492 0.97929 0.0
O258 O 0.81844 0.25946 0.95595 0.0
C259 C 0.85983 0.26561 0.1248 0.0
C260 C 0.88664 0.2013 0.06699 0.0
C261 C 0.81346 0.24064 0.9836 0.0
O262 O 0.86171 0.24444 0.11133 0.0
O263 O 0.85565 0.28048 0.07845 0.0
O264 O 0.86375 0.21507 0.92784 0.0
O265 O 0.86732 0.25031 0.95971 0.0
Co266 Co 0.05413 0.61325 0.26706 0.0
O267 O 0.06155 0.64447 0.2813 0.0
O268 O 0.08235 0.61582 0.3169 0.0
C269 C 0.04494 0.61674 0.15435 0.0
O270 O 0.05233 0.57893 0.26035 0.0
Co271 Co 1.00588 0.5984 0.22418 0.0
O272 O 0.02126 0.56978 0.19996 0.0
C273 C 1.01523 0.61115 0.36957 0.0
C274 C 0.07967 0.6375 0.31202 0.0
C275 C 0.04 0.56458 0.22773 0.0
O276 O 0.03641 0.61281 0.35609 0.0
O277 O 1.00034 0.60708 0.32324 0.0
O278 O 0.06589 0.61466 0.17269 0.0
O279 O 0.03067 0.61842 0.20437 0.0
Co280 Co 0.66937 0.22688 0.95882 0.0
O281 O 0.63817 0.21949 0.94416 0.0
O282 O 0.66685 0.19867 0.90889 0.0
C283 C 0.66579 0.23607 0.07149 0.0
O284 O 0.70367 0.22863 0.96583 0.0
Co285 Co 0.68427 0.27511 0.00179 0.0
O286 O 0.71287 0.25972 0.02607 0.0
C287 C 0.67152 0.2658 0.85638 0.0
C288 C 0.64517 0.20138 0.91339 0.0
C289 C 0.71803 0.24095 -0.00158 0.0
O290 O 0.6699 0.2446 0.86983 0.0
O291 O 0.67557 0.28069 0.90273 0.0
O292 O 0.66785 0.21511 0.05317 0.0
O293 O 0.66417 0.25035 0.02145 0.0
Co294 Co 0.05441 0.42021 0.20605 0.0
O295 O 0.06169 0.38893 0.19217 0.0
O296 O 0.08263 0.41748 0.15636 0.0
C297 C 0.04515 0.41685 0.31874 0.0
O298 O 0.05278 0.45454 0.21215 0.0
Co299 Co 1.00626 0.4354 0.24883 0.0
O300 O 0.02163 0.46419 0.27132 0.0
C301 C 1.01555 0.42246 0.10352 0.0
C302 C 0.07986 0.39581 0.16146 0.0
C303 C 0.04046 0.46911 0.24373 0.0
O304 O 0.03672 0.42064 0.11699 0.0
O305 O 1.00069 0.42667 0.14982 0.0
O306 O 0.06611 0.41886 0.3005 0.0
O307 O 0.03089 0.41521 0.26867 0.0
Co308 Co 0.86241 0.8049 0.45871 0.0
O309 O 0.89365 0.81195 0.44352 0.0
O310 O 0.86515 0.83312 0.40886 0.0
C311 C 0.86619 0.79565 0.57127 0.0
O312 O 0.82811 0.80349 0.46646 0.0
Co313 Co 0.84712 0.75682 0.50212 0.0
O314 O 0.81877 0.77253 0.52713 0.0
C315 C 0.85943 0.76603 0.35626 0.0
C316 C 0.88681 0.83019 0.41312 0.0
C317 C 0.8137 0.79132 0.49942 0.0
O318 O 0.86145 0.78719 0.3697 0.0
O319 O 0.85532 0.75118 0.40272 0.0
O320 O 0.86428 0.81663 0.55303 0.0
O321 O 0.86752 0.78136 0.52118 0.0
Co322 Co 0.47722 0.61249 0.70985 0.0
O323 O 0.46964 0.6437 0.69597 0.0
O324 O 0.449 0.61494 0.66004 0.0
C325 C 0.48642 0.61588 0.82259 0.0
O326 O 0.47916 0.57818 0.71593 0.0
Co327 Co 0.52549 0.59774 0.75257 0.0
O328 O 0.51033 0.56888 0.77554 0.0
C329 C 0.51612 0.6108 0.60742 0.0
C330 C 0.45157 0.63664 0.66509 0.0
C331 C 0.49158 0.56374 0.7478 0.0
O332 O 0.49493 0.61229 0.62085 0.0
O333 O 0.53102 0.60671 0.65371 0.0
O334 O 0.46548 0.6137 0.80426 0.0
O335 O 0.50068 0.61768 0.77257 0.0
Co336 Co 0.36196 0.22736 0.45635 0.0
O337 O 0.39327 0.22016 0.44304 0.0
O338 O 0.36488 0.19911 0.40676 0.0
C339 C 0.36512 0.23664 0.56908 0.0
O340 O 0.32763 0.22891 0.46194 0.0
Co341 Co 0.34663 0.27551 0.4988 0.0
O342 O 0.31786 0.26008 0.52093 0.0
C343 C 0.35984 0.26622 0.35373 0.0
C344 C 0.38652 0.20195 0.41226 0.0
C345 C 0.313 0.24122 0.49333 0.0
O346 O 0.36165 0.24504 0.36725 0.0
O347 O 0.35554 0.28108 0.39995 0.0
O348 O 0.36318 0.21566 0.55084 0.0
O349 O 0.3668 0.2509 0.51901 0.0
Co350 Co 0.55469 0.61358 0.21015 0.0
O351 O 0.5619 0.64481 0.19506 0.0
O352 O 0.58291 0.61621 0.16025 0.0
C353 C 0.54549 0.61731 0.32277 0.0
O354 O 0.55308 0.57926 0.21791 0.0
Co355 Co 0.50649 0.59866 0.25339 0.0
O356 O 0.52203 0.57022 0.27852 0.0
C357 C 0.5158 0.61094 0.10762 0.0
C358 C 0.58008 0.63789 0.16457 0.0
C359 C 0.54079 0.56497 0.25095 0.0
O360 O 0.53697 0.61277 0.12112 0.0
O361 O 0.50092 0.60695 0.15404 0.0
O362 O 0.56645 0.61532 0.30447 0.0
O363 O 0.53121 0.6188 0.2727 0.0
Co364 Co 0.16967 0.80505 0.95911 0.0
O365 O 0.13843 0.81253 0.94604 0.0
O366 O 0.16701 0.83322 0.90913 0.0
C367 C 0.16664 0.7959 0.07197 0.0
O368 O 0.20397 0.80315 0.96419 0.0
Co369 Co 0.18451 0.75672 0.00152 0.0
O370 O 0.21365 0.77169 0.02189 0.0
C371 C 0.17107 0.76609 0.85676 0.0
C372 C 0.14535 0.83058 0.91469 0.0
C373 C 0.21859 0.79057 -0.00539 0.0
O374 O 0.16965 0.7873 0.87021 0.0
O375 O 0.17522 0.75118 0.90297 0.0
O376 O 0.16873 0.81685 0.0535 0.0
O377 O 0.1647 0.78161 0.02207 0.0
Co378 Co 0.9768 0.42011 0.70604 0.0
O379 O 0.96964 0.38877 0.69266 0.0
O380 O 0.94856 0.41715 0.65651 0.0
C381 C 0.98609 0.41694 0.81876 0.0
O382 O 0.97829 0.45446 0.71169 0.0
Co383 Co 0.02489 0.43559 0.74858 0.0
O384 O 1.00941 0.46432 0.77075 0.0
C385 C 1.01563 0.42239 0.60345 0.0
C386 C 0.95141 0.3955 0.662 0.0
C387 C 0.99056 0.46913 0.74311 0.0
O388 O 0.99447 0.42049 0.61694 0.0
O389 O 0.03048 0.42673 0.6497 0.0
O390 O 0.96512 0.41884 0.8005 0.0
O391 O 1.00035 0.41531 0.76871 0.0
Co392 Co 0.36246 0.80388 0.02 0.0
O393 O 0.39357 0.81139 0.03577 0.0
O394 O 0.36467 0.83212 0.06988 0.0
C395 C 0.36651 0.79472 0.90748 0.0
O396 O 0.32821 0.80198 0.01163 0.0
Co397 Co 0.34796 0.75558 0.97636 0.0
O398 O 0.31942 0.77088 0.95094 0.0
C399 C 0.35981 0.76497 0.12244 0.0
C400 C 0.38638 0.82952 0.06601 0.0
C401 C 0.31404 0.7896 0.9785 0.0
O402 O 0.36159 0.78615 0.10898 0.0
O403 O 0.356 0.75005 0.07595 0.0
O404 O 0.36431 0.81566 0.92576 0.0
O405 O 0.368 0.78043 0.95755 0.0
Co406 Co 0.97666 0.61319 0.76708 0.0
O407 O 0.96924 0.64439 0.78203 0.0
O408 O 0.94846 0.61562 0.81704 0.0
C409 C 0.98584 0.61691 0.65442 0.0
O410 O 0.97846 0.57889 0.75974 0.0
Co411 Co 0.02489 0.59845 0.7239 0.0
O412 O 1.00953 0.56984 0.69934 0.0
C413 C 1.01557 0.61094 0.8695 0.0
C414 C 0.95114 0.63732 0.81271 0.0
C415 C 0.9908 0.56459 0.72701 0.0
O416 O 0.99439 0.61258 0.85606 0.0
O417 O 0.03046 0.60696 0.8231 0.0
O418 O 0.9649 0.61479 0.67274 0.0
O419 O 1.00012 0.61851 0.70448 0.0
Co420 Co 0.16895 0.22775 0.51731 0.0
O421 O 0.13774 0.22038 0.53201 0.0
O422 O 0.16641 0.19951 0.56711 0.0
C423 C 0.16532 0.23698 0.40466 0.0
O424 O 0.20325 0.22947 0.51013 0.0
Co425 Co 0.18388 0.27597 0.47424 0.0
O426 O 0.21242 0.26051 0.44964 0.0
C427 C 0.17132 0.26664 0.61982 0.0
C428 C 0.14473 0.20222 0.56256 0.0
C429 C 0.21759 0.24176 0.47736 0.0
O430 O 0.16957 0.24545 0.60635 0.0
O431 O 0.17538 0.28153 0.57344 0.0
O432 O 0.16737 0.21601 0.42293 0.0
O433 O 0.16374 0.25125 0.45473 0.0
Co434 Co 0.55557 0.42039 0.27003 0.0
O435 O 0.56273 0.38904 0.28286 0.0
O436 O 0.5838 0.41736 0.31961 0.0
C437 C 0.54627 0.41742 0.15725 0.0
O438 O 0.55407 0.45476 0.26506 0.0
Co439 Co 0.50744 0.43584 0.22789 0.0
O440 O 0.52273 0.4648 0.20736 0.0
C441 C 0.51672 0.42223 0.37262 0.0
C442 C 0.58092 0.39572 0.31383 0.0
C443 C 0.54166 0.46953 0.23463 0.0
O444 O 0.5379 0.42055 0.35913 0.0
O445 O 0.50186 0.42658 0.32644 0.0
O446 O 0.56724 0.41933 0.17551 0.0
O447 O 0.53202 0.41568 0.20731 0.0
C448 C 0.27622 0.29855 0.05064 0.0
C449 C 0.2893 0.29729 -0.00971 0.0
H450 H 0.2429 0.29873 0.09366 0.0
C451 C 0.27861 0.29745 0.9255 0.0
H452 H 0.28417 0.29813 0.1011 0.0
C453 C 0.2551 0.29701 0.9213 0.0
C454 C 0.242 0.29721 0.98176 0.0
H455 H 0.28841 0.29607 0.87838 0.0
H456 H 0.24716 0.29541 0.87104 0.0
C457 C 0.2527 0.29894 0.04635 0.0
C458 C 0.99161 1.0042 0.16627 0.0
C459 C 0.98689 0.99099 0.22482 0.0
H460 H 0.99592 0.03752 0.12557 0.0
C461 C 0.98033 1.00166 0.28655 0.0
H462 H 0.99682 0.99635 0.11823 0.0
C463 C 0.98037 0.02522 0.29114 0.0
C464 C 0.9862 0.03832 0.23341 0.0
H465 H 0.97691 0.99184 0.33263 0.0
H466 H 0.97695 0.03317 0.3405 0.0
C467 C 0.99102 0.02768 0.17035 0.0
C468 C 0.25444 0.73918 0.56 0.0
C469 C 0.24131 0.73585 0.50042 0.0
H470 H 0.28773 0.74236 0.6019 0.0
C471 C 0.25201 0.73063 0.43759 0.0
H472 H 0.24655 0.74339 0.60886 0.0
C473 C 0.27555 0.73067 0.43326 0.0
C474 C 0.28861 0.73511 0.49222 0.0
H475 H 0.24223 0.72832 0.39078 0.0
H476 H 0.28353 0.72836 0.38334 0.0
C477 C 0.27793 0.73851 0.55608 0.0
C478 C 0.55163 0.02586 0.68646 0.0
C479 C 0.54521 0.03895 0.74358 0.0
H480 H 0.55542 0.99248 0.64529 0.0
C481 C 0.53968 0.02831 0.80608 0.0
H482 H 0.5556 0.03381 0.63749 0.0
C483 C 0.539 1.00484 0.81012 0.0
C484 C 0.54429 0.99162 0.75205 0.0
H485 H 0.53434 0.03816 0.85037 0.0
H486 H 0.53329 0.997 0.85764 0.0
C487 C 0.55154 1.00229 0.69102 0.0
C488 C 0.75446 0.74089 0.91746 0.0
C489 C 0.74124 0.73709 0.97658 0.0
H490 H 0.78781 0.74439 0.87629 0.0
C491 C 0.75185 0.7314 0.0392 0.0
H492 H 0.74664 0.74545 0.86877 0.0
C493 C 0.77539 0.73141 0.04387 0.0
C494 C 0.78853 0.7363 0.98542 0.0
H495 H 0.74201 0.72873 0.08568 0.0
H496 H 0.7833 0.72871 0.09371 0.0
C497 C 0.77794 0.74021 0.92168 0.0
C498 C 0.04589 1.00539 0.67083 0.0
C499 C 0.04664 0.99213 0.73095 0.0
H500 H 0.0446 0.03881 0.62877 0.0
C501 C 0.04897 1.00267 0.79562 0.0
H502 H 0.04384 0.99757 0.62054 0.0
C503 C 0.04865 0.02619 0.80047 0.0
C504 C 0.04686 0.03942 0.74054 0.0
H505 H 0.04921 0.99275 0.84269 0.0
H506 H 0.04872 0.03403 0.85112 0.0
C507 C 0.04639 0.02889 0.67553 0.0
C508 C 0.75463 0.29297 0.55895 0.0
C509 C 0.74164 0.2955 0.49874 0.0
H510 H 0.78783 0.29032 0.60188 0.0
C511 C 0.75247 0.29971 0.43542 0.0
H512 H 0.74661 0.28952 0.60819 0.0
C513 C 0.77602 0.29948 0.43151 0.0
C514 C 0.78895 0.29589 0.49128 0.0
H515 H 0.74279 0.30136 0.38817 0.0
H516 H 0.7841 0.30102 0.38146 0.0
C517 C 0.77813 0.2935 0.55538 0.0
C518 C 0.48018 1.0064 0.29417 0.0
C519 C 0.48454 0.99326 0.23534 0.0
H520 H 0.47794 0.03978 0.33628 0.0
C521 C 0.48791 1.00387 0.17131 0.0
H522 H 0.47791 0.99848 0.34421 0.0
C523 C 0.48862 0.02736 0.16711 0.0
C524 C 0.48537 0.04057 0.22656 0.0
H525 H 0.49169 0.994 0.12559 0.0
H526 H 0.49281 0.0352 0.11812 0.0
C527 C 0.48018 0.02995 0.28956 0.0
C528 C 0.75294 0.79609 0.55272 0.0
C529 C 0.74236 0.79792 0.48803 0.0
H530 H 0.78425 0.79235 0.60693 0.0
C531 C 0.75554 0.80088 0.42845 0.0
H532 H 0.74305 0.79339 0.59912 0.0
C533 C 0.77907 0.801 0.43317 0.0
C534 C 0.78965 0.7973 0.49719 0.0
H535 H 0.74766 0.80197 0.37798 0.0
H536 H 0.78893 0.80213 0.38613 0.0
C537 C 0.77643 0.79543 0.55715 0.0
C538 C 0.48564 0.50551 0.67435 0.0
C539 C 0.48608 0.49234 0.73468 0.0
H540 H 0.48599 0.53888 0.63171 0.0
C541 C 0.48504 0.50296 0.79952 0.0
H542 H 0.48672 0.49762 0.6239 0.0
C543 C 0.4854 0.52648 0.80401 0.0
C544 C 0.48598 0.53965 0.7437 0.0
H545 H 0.48576 0.49311 0.84667 0.0
H546 H 0.48629 0.53437 0.8545 0.0
C547 C 0.48517 0.52903 0.67884 0.0
C548 C 0.75512 0.23569 0.05634 0.0
C549 C 0.7421 0.23517 -0.00427 0.0
H550 H 0.78837 0.23679 0.09965 0.0
C551 C 0.75288 0.23305 0.93138 0.0
H552 H 0.74713 0.23758 0.10641 0.0
C553 C 0.7764 0.23335 0.92738 0.0
C554 C 0.78941 0.23492 0.98784 0.0
H555 H 0.74314 0.233 0.88394 0.0
H556 H 0.78443 0.23345 0.87702 0.0
C557 C 0.77864 0.23517 0.05247 0.0
C558 C 0.04838 0.50624 0.29881 0.0
C559 C 0.04612 0.49317 0.23871 0.0
H560 H 0.04924 0.53957 0.34176 0.0
C561 C 0.0451 0.50386 0.17402 0.0
H562 H 0.04886 0.49827 0.34924 0.0
C563 C 0.04456 0.52737 0.16991 0.0
C564 C 0.04577 0.54048 0.23025 0.0
H565 H 0.04295 0.49406 0.12718 0.0
H566 H 0.04211 0.5353 0.11996 0.0
C567 C 0.04863 0.52978 0.29448 0.0
C568 C 0.2759 0.23315 0.54823 0.0
C569 C 0.28898 0.23552 0.48817 0.0
H570 H 0.24259 0.23225 0.59119 0.0
C571 C 0.27829 0.23665 0.42351 0.0
H572 H 0.28387 0.23258 0.59865 0.0
C573 C 0.25478 0.23723 0.41941 0.0
C574 C 0.24168 0.23593 0.47974 0.0
H575 H 0.28809 0.23889 0.3767 0.0
H576 H 0.24686 0.23978 0.36951 0.0
C577 C 0.25237 0.23293 0.54391 0.0
C578 C 0.54449 0.50419 0.30524 0.0
C579 C 0.54731 0.49354 0.24104 0.0
H580 H 0.54007 0.53556 0.35856 0.0
C581 C 0.55123 0.50664 0.1818 0.0
H582 H 0.54105 0.49436 0.35129 0.0
C583 C 0.55133 0.53019 0.18627 0.0
C584 C 0.54668 0.54086 0.24958 0.0
H585 H 0.55308 0.4987 0.13166 0.0
H586 H 0.55322 0.54001 0.13935 0.0
C587 C 0.54386 0.52769 0.30933 0.0
C588 C 0.27677 0.79265 0.9201 0.0
C589 C 0.28991 0.79534 0.97994 0.0
H590 H 0.24346 0.79001 0.87799 0.0
C591 C 0.27924 0.79984 0.04333 0.0
H592 H 0.28466 0.78898 0.87081 0.0
C593 C 0.25571 0.79976 0.04775 0.0
C594 C 0.24263 0.79601 -0.0116 0.0
H595 H 0.28904 0.80163 0.09031 0.0
H596 H 0.24775 0.80153 0.09792 0.0
C597 C 0.25328 0.79331 0.92416 0.0
C598 C 0.98591 0.50384 0.67325 0.0
C599 C 0.9848 0.49315 0.73793 0.0
H600 H 0.98893 0.53528 0.6192 0.0
C601 C 0.98239 0.50623 0.79796 0.0
H602 H 0.98818 0.49403 0.62647 0.0
C603 C 0.98209 0.52977 0.7936 0.0
C604 C 0.98505 0.54047 0.72942 0.0
H605 H 0.98184 0.49827 0.8484 0.0
H606 H 0.98137 0.53956 0.84086 0.0
C607 C 0.9864 0.52735 0.66911 0.0
C608 C 0.16466 0.26576 0.81509 0.0
C609 C 0.16673 0.2887 0.83176 0.0
H610 H 0.16437 0.24077 0.73541 0.0
C611 C 0.16983 0.30439 0.77832 0.0
H612 H 0.1622 0.25326 0.85522 0.0
C613 C 0.17108 0.29724 0.70952 0.0
C614 C 0.16921 0.27424 0.69266 0.0
H615 H 0.17145 0.32218 0.78962 0.0
H616 H 0.17365 0.3098 0.66964 0.0
C617 C 0.16588 0.2586 0.74632 0.0
C618 C 0.98563 0.92055 0.95826 0.0
C619 C 1.0086 0.91871 0.94123 0.0
H620 H 0.96076 0.92066 0.0385 0.0
C621 C 0.02425 0.91504 -0.00536 0.0
H622 H 0.97307 0.92337 0.91855 0.0
C623 C 0.01713 0.91352 0.06338 0.0
C624 C 0.99422 0.91561 0.08025 0.0
H625 H 0.04206 0.91352 0.98358 0.0
H626 H 0.02963 0.91084 0.10334 0.0
C627 C 0.97852 0.91901 0.02703 0.0
C628 C 0.36063 0.7273 0.2812 0.0
C629 C 0.36365 0.743 0.33462 0.0
H630 H 0.35713 0.72184 0.17244 0.0
C631 C 0.36579 0.76593 0.31788 0.0
H632 H 0.35896 0.70951 0.29256 0.0
C633 C 0.3648 0.77306 0.24905 0.0
C634 C 0.36161 0.75739 0.19539 0.0
H635 H 0.36818 0.77845 0.358 0.0
H636 H 0.36639 0.79088 0.23808 0.0
C637 C 0.35961 0.73441 0.21232 0.0
C638 C 0.51537 0.11619 0.56535 0.0
C639 C 0.53828 0.11389 0.58204 0.0
H640 H 0.49042 0.11695 0.48561 0.0
C641 C 0.55393 0.11073 0.5286 0.0
H642 H 0.50289 0.11869 0.60549 0.0
C643 C 0.5468 0.10974 0.45974 0.0
C644 C 0.52384 0.11192 0.44285 0.0
H645 H 0.5717 0.10893 0.53991 0.0
H646 H 0.55933 0.10716 0.41983 0.0
C647 C 0.50822 0.11523 0.49654 0.0
C648 C 0.16513 0.77421 0.73056 0.0
C649 C 0.16855 0.75852 0.78404 0.0
H650 H 0.16125 0.77963 0.62176 0.0
C651 C 0.17021 0.73552 0.76706 0.0
H652 H 0.16376 0.79203 0.74159 0.0
C653 C 0.16877 0.72842 0.69825 0.0
C654 C 0.16567 0.74416 0.64496 0.0
H655 H 0.17283 0.72293 0.80681 0.0
H656 H 0.17029 0.71063 0.68683 0.0
C657 C 0.16372 0.76709 0.66179 0.0
C658 C 0.54538 0.92043 0.01646 0.0
C659 C 0.52239 0.9187 0.0334 0.0
H660 H 0.57028 0.92053 0.93632 0.0
C661 C 0.50675 0.91509 0.97994 0.0
H662 H 0.55794 0.92318 0.0562 0.0
C663 C 0.51389 0.91361 0.91121 0.0
C664 C 0.53681 0.91567 0.89442 0.0
H665 H 0.48893 0.91366 -0.00906 0.0
H666 H 0.50139 0.91102 0.87117 0.0
C667 C 0.5525 0.91892 0.94771 0.0
C668 C 0.36663 0.26537 0.15853 0.0
C669 C 0.36462 0.28832 0.14189 0.0
H670 H 0.36683 0.24037 0.23819 0.0
C671 C 0.36158 0.304 0.19534 0.0
H672 H 0.36905 0.25288 0.11838 0.0
C673 C 0.36031 0.29685 0.26412 0.0
C674 C 0.36209 0.27384 0.28095 0.0
H675 H 0.36001 0.3218 0.18406 0.0
H676 H 0.35776 0.3094 0.30401 0.0
C677 C 0.3654 0.2582 0.22729 0.0
C678 C 0.02392 0.11493 0.47861 0.0
C679 C 1.00832 0.11157 0.53231 0.0
H680 H 0.02923 0.11839 0.36965 0.0
C681 C 0.98535 0.10938 0.51547 0.0
H682 H 0.04172 0.11666 0.48951 0.0
C683 C 0.97821 0.11036 0.44663 0.0
C684 C 0.99386 0.11352 0.39316 0.0
H685 H 0.97283 0.10676 0.55539 0.0
H686 H 0.96044 0.10853 0.43533 0.0
C687 C 0.01677 0.11588 0.40981 0.0
C688 C 0.86029 0.72827 0.1977 0.0
C689 C 0.86351 0.74393 0.14425 0.0
H690 H 0.85656 0.72289 0.30644 0.0
C691 C 0.86577 0.76685 0.16091 0.0
H692 H 0.85853 0.71049 0.18641 0.0
C693 C 0.8647 0.77402 0.22969 0.0
C694 C 0.86131 0.75841 0.28338 0.0
H695 H 0.86831 0.77933 0.12077 0.0
H696 H 0.86639 0.79183 0.24059 0.0
C697 C 0.8592 0.73542 0.26653 0.0
C698 C 0.04672 0.11076 0.01537 0.0
C699 C 0.02371 0.11241 0.03216 0.0
H700 H 0.07166 0.11054 0.93533 0.0
C701 C 1.00806 0.11565 0.9785 0.0
H702 H 0.05928 0.10827 0.05527 0.0
C703 C 1.01523 0.11689 0.90974 0.0
C704 C 0.03818 0.11497 0.89312 0.0
H705 H 0.99023 0.11698 -0.01063 0.0
H706 H 1.00273 0.11924 0.86958 0.0
C707 C 0.05387 0.11203 0.94659 0.0
C708 C 0.66421 0.26489 0.66134 0.0
C709 C 0.66632 0.28782 0.64453 0.0
H710 H 0.66408 0.23993 0.74111 0.0
C711 C 0.66965 0.30351 0.69782 0.0
H712 H 0.66157 0.25239 0.62132 0.0
C713 C 0.67109 0.29638 0.7666 0.0
C714 C 0.66921 0.27339 0.78358 0.0
H715 H 0.67132 0.32129 0.68641 0.0
H716 H 0.67385 0.30894 0.80636 0.0
C717 C 0.66562 0.25775 0.73009 0.0
C718 C 0.51542 0.91634 0.41111 0.0
C719 C 0.49249 0.91837 0.39436 0.0
H720 H 0.54033 0.91572 0.49097 0.0
C721 C 0.47676 0.92122 0.44778 0.0
H722 H 0.52794 0.91408 0.37098 0.0
C723 C 0.48384 0.92214 0.51669 0.0
C724 C 0.50682 0.92022 0.53364 0.0
H725 H 0.45898 0.9228 0.43641 0.0
H726 H 0.47126 0.92447 0.55658 0.0
C727 C 0.52251 0.91724 0.47997 0.0
C728 C 0.86523 0.25761 0.25132 0.0
C729 C 0.86188 0.27323 0.19763 0.0
H730 H 0.86882 0.2523 0.36026 0.0
C731 C 0.8599 0.29623 0.21444 0.0
H732 H 0.86681 0.23979 0.24044 0.0
C733 C 0.86104 0.30338 0.28323 0.0
C734 C 0.86417 0.28772 0.33671 0.0
H735 H 0.85731 0.30877 0.17452 0.0
H736 H 0.85935 0.32117 0.29449 0.0
C737 C 0.86634 0.26478 0.32009 0.0
C738 C 0.47825 0.11364 0.02868 0.0
C739 C 0.49397 0.11653 0.08209 0.0
H740 H 0.47278 0.10978 0.92007 0.0
C741 C 0.51692 0.11836 0.06539 0.0
H742 H 0.46045 0.11222 0.03999 0.0
C743 C 0.52406 0.117 -0.00337 0.0
C744 C 0.50838 0.11376 0.94304 0.0
H745 H 0.52945 0.12067 0.10552 0.0
H746 H 0.5419 0.11824 0.98569 0.0
C747 C 0.48536 0.11226 0.9599 0.0
C748 C 0.6635 0.76813 0.81494 0.0
C749 C 0.66557 0.74519 0.83166 0.0
H750 H 0.66345 0.79312 0.73525 0.0
C751 C 0.6688 0.72951 0.77831 0.0
H752 H 0.66093 0.78062 0.85501 0.0
C753 C 0.67024 0.73666 0.70956 0.0
C754 C 0.66846 0.75966 0.69267 0.0
H755 H 0.67041 0.71172 0.78965 0.0
H756 H 0.67295 0.72411 0.66976 0.0
C757 C 0.66491 0.77529 0.7462 0.0
C758 C 0.04729 0.9205 0.45821 0.0
C759 C 0.02431 0.91867 0.44122 0.0
H760 H 0.07215 0.92105 0.5385 0.0
C761 C 1.00862 0.91559 0.49485 0.0
H762 H 0.05989 0.92289 0.41836 0.0
C763 C 0.01571 0.91458 0.56371 0.0
C764 C 0.03864 0.91661 0.58051 0.0
H765 H 0.9908 0.91412 0.48384 0.0
H766 H 1.00318 0.91229 0.60382 0.0
C767 C 0.05437 0.91947 0.52711 0.0
C768 C 0.67032 0.80524 0.2782 0.0
C769 C 0.66738 0.78954 0.33168 0.0
H770 H 0.67377 0.81068 0.16942 0.0
C771 C 0.66534 0.76659 0.31503 0.0
H772 H 0.6719 0.82304 0.28949 0.0
C773 C 0.66635 0.75945 0.24622 0.0
C774 C 0.66946 0.77511 0.1925 0.0
H775 H 0.66301 0.75408 0.3552 0.0
H776 H 0.66485 0.74162 0.23532 0.0
C777 C 0.67135 0.79811 0.20935 0.0
C778 C 0.51753 0.41494 0.56766 0.0
C779 C 0.49459 0.41694 0.58429 0.0
H780 H 0.54253 0.4149 0.48806 0.0
C781 C 0.47892 0.42011 0.53086 0.0
H782 H 0.53001 0.41242 0.60779 0.0
C783 C 0.48609 0.42153 0.46212 0.0
C784 C 0.50909 0.41978 0.44532 0.0
H785 H 0.46113 0.42168 0.54213 0.0
H786 H 0.47355 0.42418 0.42226 0.0
C787 C 0.52471 0.41632 0.49894 0.0
C788 C 0.86564 0.27357 0.75136 0.0
C789 C 0.8623 0.25794 0.69771 0.0
H790 H 0.86931 0.27888 0.86028 0.0
C791 C 0.86051 0.23492 0.71452 0.0
H792 H 0.86708 0.29141 0.74047 0.0
C793 C 0.86177 0.22777 0.7833 0.0
C794 C 0.86484 0.24344 0.83675 0.0
H795 H 0.85794 0.22237 0.67463 0.0
H796 H 0.86019 0.20997 0.79456 0.0
C797 C 0.86687 0.26639 0.82012 0.0
C798 C 1.01466 0.61779 0.06469 0.0
C799 C 0.03758 0.61573 0.08145 0.0
H800 H 0.98971 0.61802 0.98494 0.0
C801 C 0.05327 0.61254 0.02809 0.0
H802 H 1.00216 0.62031 0.10476 0.0
C803 C 0.04615 0.61123 0.95928 0.0
C804 C 0.02316 0.6131 0.94234 0.0
H805 H 0.07105 0.61092 0.03946 0.0
H806 H 0.0587 0.6086 0.91946 0.0
C807 C 1.00752 0.61651 -0.00409 0.0
C808 C 0.67089 0.23482 0.26667 0.0
C809 C 0.66912 0.25782 0.2836 0.0
H810 H 0.67124 0.20991 0.18649 0.0
C811 C 0.6659 0.27349 0.22996 0.0
H812 H 0.67337 0.22224 0.30653 0.0
C813 C 0.66472 0.26637 0.16115 0.0
C814 C 0.6667 0.24342 0.14442 0.0
H815 H 0.66447 0.29132 0.24093 0.0
H816 H 0.66235 0.27889 0.12104 0.0
C817 C 0.66969 0.22771 0.19783 0.0
C818 C 1.00765 0.41679 0.47699 0.0
C819 C 0.02326 0.42019 0.53066 0.0
H820 H 1.00236 0.41311 0.36808 0.0
C821 C 0.04626 0.42213 0.51386 0.0
H822 H 0.98984 0.41523 0.48787 0.0
C823 C 0.05342 0.42092 0.44508 0.0
C824 C 0.03776 0.41777 0.39161 0.0
H825 H 0.05879 0.42475 0.55376 0.0
H826 H 0.0712 0.4226 0.43382 0.0
C827 C 1.01483 0.41561 0.40824 0.0
C828 C 0.86592 0.75818 0.72964 0.0
C829 C 0.86267 0.77384 0.78325 0.0
H830 H 0.86954 0.75281 0.62074 0.0
C831 C 0.86108 0.79687 0.7664 0.0
H832 H 0.86722 0.74034 0.74056 0.0
C833 C 0.8624 0.804 0.6976 0.0
C834 C 0.86533 0.78829 0.64418 0.0
H835 H 0.85859 0.80944 0.80625 0.0
H836 H 0.86094 0.8218 0.68629 0.0
C837 C 0.86721 0.76533 0.66087 0.0
C838 C 0.52385 0.6162 0.98105 0.0
C839 C 0.50821 0.61288 0.03471 0.0
H840 H 0.52919 0.61971 0.8721 0.0
C841 C 0.48524 0.61085 0.01781 0.0
H842 H 0.54165 0.61782 -0.00801 0.0
C843 C 0.47811 0.61193 0.94896 0.0
C844 C 0.49378 0.61503 0.89552 0.0
H845 H 0.47269 0.60829 0.05769 0.0
H846 H 0.46034 0.6102 0.93763 0.0
C847 C 0.5167 0.61724 0.91223 0.0
C848 C 0.36633 0.26697 0.65855 0.0
C849 C 0.36416 0.24404 0.64193 0.0
H850 H 0.36675 0.29198 0.73817 0.0
C851 C 0.361 0.22838 0.6954 0.0
H852 H 0.36883 0.27945 0.61838 0.0
C853 C 0.35982 0.23554 0.76419 0.0
C854 C 0.36179 0.25854 0.78099 0.0
H855 H 0.35931 0.21059 0.68414 0.0
H856 H 0.3572 0.223 0.8041 0.0
C857 C 0.36518 0.27415 0.7273 0.0
C858 C 0.54671 0.61158 0.51776 0.0
C859 C 0.52371 0.61324 0.53467 0.0
H860 H 0.57163 0.61156 0.43764 0.0
C861 C 0.50806 0.61669 0.48113 0.0
H862 H 0.55928 0.60893 0.55756 0.0
C863 C 0.5152 0.61815 0.4124 0.0
C864 C 0.53814 0.61624 0.39566 0.0
H865 H 0.49024 0.61806 0.4921 0.0
H866 H 0.5027 0.62066 0.37234 0.0
C867 C 0.55384 0.61307 0.449 0.0
C868 C 0.17176 0.79717 0.26715 0.0
C869 C 0.1697 0.77419 0.28415 0.0
H870 H 0.17243 0.82205 0.18686 0.0
C871 C 0.16641 0.75853 0.23054 0.0
H872 H 0.17432 0.80974 0.307 0.0
C873 C 0.16538 0.76564 0.16171 0.0
C874 C 0.16759 0.78857 0.14491 0.0
H875 H 0.16477 0.74072 0.24156 0.0
H876 H 0.16291 0.75313 0.12164 0.0
C877 C 0.1707 0.80427 0.19827 0.0
C878 C 0.0164 0.41583 0.90828 0.0
C879 C 0.99347 0.4179 0.89163 0.0
H880 H 0.04139 0.41551 0.98795 0.0
C881 C 0.9778 0.42097 0.94508 0.0
H882 H 0.02889 0.4134 0.86813 0.0
C883 C 0.98494 0.42217 0.01388 0.0
C884 C 1.00794 0.42031 0.03071 0.0
H885 H 0.96001 0.42258 0.93379 0.0
H886 H 0.9724 0.42472 0.05377 0.0
C887 C 0.02357 0.417 0.97705 0.0
C888 C 0.36764 0.76444 0.81781 0.0
C889 C 0.36561 0.78737 0.83457 0.0
H890 H 0.36766 0.73947 0.73808 0.0
C891 C 0.36243 0.80308 0.78124 0.0
H892 H 0.37017 0.75193 0.85787 0.0
C893 C 0.36099 0.79595 0.71247 0.0
C894 C 0.36273 0.77295 0.69555 0.0
H895 H 0.36084 0.82087 0.79261 0.0
H896 H 0.35831 0.80852 0.67269 0.0
C897 C 0.36623 0.7573 0.74906 0.0
C898 C 0.01613 0.61804 0.56478 0.0
C899 C 0.9932 0.61598 0.5815 0.0
H900 H 0.0411 0.61826 0.48505 0.0
C901 C 0.97752 0.61284 0.52811 0.0
H902 H 0.02863 0.62052 0.60488 0.0
C903 C 0.98464 0.61155 0.4593 0.0
C904 C 1.00764 0.61338 0.4424 0.0
H905 H 0.95973 0.61123 0.53944 0.0
H906 H 0.97209 0.60894 0.41946 0.0
C907 C 0.02328 0.61677 0.496 0.0
C908 C 0.16561 0.27447 0.2463 0.0
C909 C 0.16905 0.25883 0.19271 0.0
H910 H 0.16176 0.27979 0.35515 0.0
C911 C 0.17087 0.23583 0.2096 0.0
H912 H 0.16413 0.2923 0.23536 0.0
C913 C 0.16951 0.22868 0.27838 0.0
C914 C 0.16632 0.24436 0.33176 0.0
H915 H 0.17352 0.22328 0.16976 0.0
H916 H 0.17111 0.21089 0.2897 0.0
C917 C 0.16428 0.2673 0.31506 0.0
C918 C 0.51595 0.41605 0.06777 0.0
C919 C 0.53888 0.41826 0.08437 0.0
H920 H 0.49097 0.41537 0.98812 0.0
C921 C 0.55454 0.42126 0.03085 0.0
H922 H 0.50347 0.41365 0.10798 0.0
C923 C 0.54738 0.42224 0.96201 0.0
C924 C 0.5244 0.4202 0.94522 0.0
H925 H 0.57232 0.42298 0.04209 0.0
H926 H 0.55992 0.42474 0.92205 0.0
C927 C 0.50878 0.41698 -0.00103 0.0
C928 C 0.13496 0.37004 0.10056 0.0
C929 C 0.12854 0.34758 0.0886 0.0
H930 H 0.12442 0.40314 0.13161 0.0
C931 C 0.10606 0.34128 0.10015 0.0
H932 H 0.15214 0.3754 0.09167 0.0
C933 C 0.09036 0.357 0.12376 0.0
C934 C 0.09664 0.37951 0.13506 0.0
H935 H 0.1006 0.32411 0.09144 0.0
H936 H 0.0732 0.35153 0.13265 0.0
C937 C 0.11907 0.38593 0.12291 0.0
C938 C 0.89689 0.86932 0.37385 0.0
C939 C 0.90316 0.84685 0.3862 0.0
H940 H 0.90765 0.90229 0.34195 0.0
C941 C 0.92558 0.84039 0.37469 0.0
H942 H 0.87975 0.8748 0.38272 0.0
C943 C 0.94138 0.85596 0.3507 0.0
C944 C 0.93526 0.87847 0.33889 0.0
H945 H 0.93094 0.8232 0.38372 0.0
H946 H 0.95849 0.85035 0.34184 0.0
C947 C 0.91288 0.88507 0.35104 0.0
C948 C 0.42509 0.69082 0.60216 0.0
C949 C 0.40263 0.68437 0.59096 0.0
H950 H 0.45802 0.68084 0.63483 0.0
C951 C 0.39633 0.66192 0.60362 0.0
H952 H 0.43046 0.70799 0.5929 0.0
C953 C 0.41231 0.64618 0.62638 0.0
C954 C 0.43471 0.65277 0.63826 0.0
H955 H 0.37916 0.65646 0.59503 0.0
H956 H 0.40705 0.62898 0.63565 0.0
C957 C 0.44088 0.67526 0.6262 0.0
C958 C 0.6354 0.16217 0.87444 0.0
C959 C 0.62899 0.18464 0.88607 0.0
H960 H 0.62491 0.12908 0.84304 0.0
C961 C 0.60661 0.191 0.87334 0.0
H962 H 0.65252 0.15678 0.88421 0.0
C963 C 0.59098 0.17532 0.84898 0.0
C964 C 0.59724 0.1528 0.83811 0.0
H965 H 0.60116 0.2082 0.88175 0.0
H966 H 0.57388 0.18083 0.83928 0.0
C967 C 0.61959 0.14631 0.85136 0.0
C968 C 0.09026 0.67627 0.34977 0.0
C969 C 0.09647 0.65374 0.33875 0.0
H970 H 0.10053 0.70913 0.38229 0.0
C971 C 0.11884 0.64723 0.35155 0.0
H972 H 0.07315 0.6818 0.34039 0.0
C973 C 0.13473 0.66308 0.37435 0.0
C974 C 0.12836 0.68556 0.38608 0.0
H975 H 0.12414 0.63 0.34307 0.0
H976 H 0.15186 0.65767 0.38383 0.0
C977 C 0.10595 0.69193 0.37378 0.0
C978 C 0.63437 0.87053 0.60109 0.0
C979 C 0.62812 0.84813 0.58742 0.0
H980 H 0.62355 0.90334 0.63413 0.0
C981 C 0.60561 0.84166 0.59746 0.0
H982 H 0.65158 0.87601 0.5934 0.0
C983 C 0.58973 0.85713 0.62147 0.0
C984 C 0.59587 0.87956 0.63475 0.0
H985 H 0.60026 0.82453 0.58739 0.0
H986 H 0.57257 0.85151 0.62929 0.0
C987 C 0.61832 0.88619 0.62389 0.0
C988 C 0.44165 0.35635 0.85189 0.0
C989 C 0.43551 0.37889 0.84061 0.0
H990 H 0.43113 0.32346 0.88361 0.0
C991 C 0.41308 0.3854 0.85222 0.0
H992 H 0.4588 0.35081 0.84339 0.0
C993 C 0.39705 0.36955 0.87398 0.0
C994 C 0.40331 0.34705 0.88588 0.0
H995 H 0.40784 0.40264 0.8435 0.0
H996 H 0.37986 0.37498 0.88246 0.0
C997 C 0.42579 0.34067 0.8749 0.0
C998 C 0.89654 0.16196 0.1043 0.0
C999 C 0.90292 0.18447 0.09313 0.0
H1000 H 0.90713 0.12875 0.13409 0.0
C1001 C 0.92539 0.19076 0.1049 0.0
H1002 H 0.87936 0.15661 0.09521 0.0
C1003 C 0.94112 0.17497 0.1279 0.0
C1004 C 0.93488 0.15241 0.13835 0.0
H1005 H 0.93082 0.20797 0.09678 0.0
H1006 H 0.95827 0.18043 0.13695 0.0
C1007 C 0.91245 0.146 0.12603 0.0
C1008 C 0.92494 0.69146 0.87704 0.0
C1009 C 0.90244 0.68512 0.88793 0.0
H1010 H 0.95783 0.68138 0.84429 0.0
C1011 C 0.89603 0.66273 0.87474 0.0
H1012 H 0.9304 0.70858 0.88671 0.0
C1013 C 0.91192 0.64696 0.85168 0.0
C1014 C 0.93437 0.65345 0.84003 0.0
H1015 H 0.87882 0.65735 0.88307 0.0
H1016 H 0.90657 0.62981 0.84194 0.0
C1017 C 0.94066 0.67587 0.85272 0.0
C1018 C 0.13505 0.16295 0.60124 0.0
C1019 C 0.12854 0.18538 0.58929 0.0
H1020 H 0.12466 0.12981 0.63247 0.0
C1021 C 0.10605 0.19158 0.60103 0.0
H1022 H 0.15224 0.15767 0.59221 0.0
C1023 C 0.09042 0.17579 0.6248 0.0
C1024 C 0.0968 0.15332 0.63609 0.0
H1025 H 0.10052 0.20873 0.59232 0.0
H1026 H 0.07325 0.18119 0.63382 0.0
C1027 C 0.11924 0.14699 0.62377 0.0
C1028 C 0.5911 0.35674 0.35052 0.0
C1029 C 0.59756 0.37923 0.33999 0.0
H1030 H 0.60103 0.3237 0.38233 0.0
C1031 C 0.62001 0.38547 0.35283 0.0
H1032 H 0.57393 0.35141 0.3411 0.0
C1033 C 0.63572 0.36941 0.37521 0.0
C1034 C 0.62912 0.34697 0.3865 0.0
H1035 H 0.62549 0.40267 0.34472 0.0
H1036 H 0.65292 0.37463 0.38473 0.0
C1037 C 0.60663 0.34085 0.37415 0.0
C1038 C 0.42484 0.84037 0.10576 0.0
C1039 C 0.40239 0.84648 0.09294 0.0
H1040 H 0.4575 0.85096 0.13912 0.0
C1041 C 0.3958 0.86894 0.10372 0.0
H1042 H 0.43043 0.82319 0.09796 0.0
C1043 C 0.41149 0.88503 0.12605 0.0
C1044 C 0.43391 0.8788 0.13934 0.0
H1045 H 0.37863 0.87415 0.09381 0.0
H1046 H 0.40603 0.90225 0.13373 0.0
C1047 C 0.44035 0.85628 0.12934 0.0
C1048 C 0.91213 0.38537 0.62479 0.0
C1049 C 0.93463 0.37908 0.63635 0.0
H1050 H 0.87899 0.37461 0.59495 0.0
C1051 C 0.94096 0.35657 0.62537 0.0
H1052 H 0.90675 0.40257 0.63328 0.0
C1053 C 0.92523 0.34072 0.6027 0.0
C1054 C 0.90268 0.34689 0.59179 0.0
H1055 H 0.95817 0.3512 0.63383 0.0
H1056 H 0.93072 0.32355 0.5942 0.0
C1057 C 0.89623 0.36935 0.60339 0.0
C1058 C 0.42547 0.19156 0.37591 0.0
C1059 C 0.40294 0.18523 0.38622 0.0
H1060 H 0.45848 0.18143 0.34452 0.0
C1061 C 0.39659 0.1628 0.3734 0.0
H1062 H 0.43088 0.20871 0.38534 0.0
C1063 C 0.41258 0.14698 0.35125 0.0
C1064 C 0.43506 0.15346 0.34022 0.0
H1065 H 0.37936 0.15741 0.38134 0.0
H1066 H 0.40728 0.12981 0.34172 0.0
C1067 C 0.44129 0.17592 0.35255 0.0
C1068 C 0.60601 0.69242 0.10212 0.0
C1069 C 0.62849 0.68621 0.09022 0.0
H1070 H 0.57325 0.68208 0.13524 0.0
C1071 C 0.635 0.66379 0.10228 0.0
H1072 H 0.60046 0.70956 0.09333 0.0
C1073 C 0.61921 0.64785 0.12511 0.0
C1074 C 0.59678 0.65419 0.13758 0.0
H1075 H 0.65219 0.6585 0.09312 0.0
H1076 H 0.62463 0.63067 0.13392 0.0
C1077 C 0.5904 0.67666 0.12613 0.0
C1078 C 0.09099 0.85654 0.85139 0.0
C1079 C 0.09733 0.87896 0.83893 0.0
H1080 H 0.10114 0.82382 0.88561 0.0
C1081 C 0.11975 0.88543 0.8511 0.0
H1082 H 0.07384 0.85104 0.84256 0.0
C1083 C 0.13557 0.86965 0.87453 0.0
C1084 C 0.1291 0.84727 0.88757 0.0
H1085 H 0.12513 0.90258 0.84155 0.0
H1086 H 0.15276 0.87503 0.88331 0.0
C1087 C 0.10663 0.84094 0.87609 0.0
loop_
_geom_bond_atom_site_label_1
_geom_bond_atom_site_label_2
_geom_bond_distance
_geom_bond_site_symmetry_2
_ccdc_geom_bond_type
Co0 O1 2.216 . S
Co0 O2 2.091 . S
Co0 O4 2.004 . S
Co0 O10 2.021 . S
Co0 O12 2.137 1_554 S
Co0 O13 2.244 1_554 S
O1 Co0 2.216 . S
O1 C8 1.247 . S
O2 Co0 2.091 . S
O2 C8 1.261 . S
C3 O12 1.247 . S
C3 O13 1.272 . S
O4 Co0 2.004 . S
O4 C9 1.259 . S
Co5 O6 2.061 . S
Co5 O11 2.052 . S
Co5 O13 2.135 1_554 S
O6 Co5 2.061 . S
O6 C9 1.235 . S
C7 O10 1.238 . S
C7 O11 1.241 . S
C8 O1 1.247 . S
C8 O2 1.261 . S
C9 O4 1.259 . S
C9 O6 1.235 . S
O10 Co0 2.021 . S
O10 C7 1.238 . S
O11 Co5 2.052 . S
O11 C7 1.241 . S
O12 Co0 2.137 1_556 S
O12 C3 1.247 . S
O13 Co0 2.244 1_556 S
O13 C3 1.272 . S
O13 Co5 2.135 1_556 S
Co14 O15 2.216 . S
Co14 O16 2.091 . S
Co14 O18 2.004 . S
Co14 O24 2.021 . S
Co14 O26 2.137 . S
Co14 O27 2.244 . S
O15 Co14 2.216 . S
O15 C22 1.247 . S
O16 Co14 2.091 . S
O16 C22 1.261 . S
C17 O26 1.247 . S
C17 O27 1.272 . S
O18 Co14 2.004 . S
O18 C23 1.259 . S
Co19 O20 2.061 1_455 S
Co19 O25 2.052 . S
Co19 O27 2.135 1_455 S
O20 Co19 2.061 1_655 S
O20 C23 1.235 . S
C21 O24 1.238 . S
C21 O25 1.241 1_655 S
C22 O15 1.247 . S
C22 O16 1.261 . S
C23 O18 1.259 . S
C23 O20 1.235 . S
O24 Co14 2.021 . S
O24 C21 1.238 . S
O25 Co19 2.052 . S
O25 C21 1.241 1_455 S
O26 Co14 2.137 . S
O26 C17 1.247 . S
O27 Co14 2.244 . S
O27 C17 1.272 . S
O27 Co19 2.135 1_655 S
Co28 O29 2.216 . S
Co28 O30 2.091 . S
Co28 O32 2.004 . S
Co28 O38 2.021 . S
Co28 O40 2.137 . S
Co28 O41 2.244 . S
O29 Co28 2.216 . S
O29 C36 1.247 . S
O30 Co28 2.091 . S
O30 C36 1.261 . S
C31 O40 1.247 . S
C31 O41 1.272 . S
O32 Co28 2.004 . S
O32 C37 1.259 . S
Co33 O34 2.061 . S
Co33 O39 2.052 . S
Co33 O41 2.135 . S
O34 Co33 2.061 . S
O34 C37 1.235 . S
C35 O38 1.238 . S
C35 O39 1.241 . S
C36 O29 1.247 . S
C36 O30 1.261 . S
C37 O32 1.259 . S
C37 O34 1.235 . S
O38 Co28 2.021 . S
O38 C35 1.238 . S
O39 Co33 2.052 . S
O39 C35 1.241 . S
O40 Co28 2.137 . S
O40 C31 1.247 . S
O41 Co28 2.244 . S
O41 C31 1.272 . S
O41 Co33 2.135 . S
Co42 O43 2.216 . S
Co42 O44 2.091 . S
Co42 O46 2.004 . S
Co42 O52 2.021 . S
Co42 O54 2.137 . S
Co42 O55 2.244 . S
O43 Co42 2.216 . S
O43 C50 1.247 . S
O44 Co42 2.091 . S
O44 C50 1.261 . S
C45 O54 1.247 . S
C45 O55 1.272 . S
O46 Co42 2.004 . S
O46 C51 1.259 . S
Co47 O48 2.061 . S
Co47 O53 2.052 . S
Co47 O55 2.135 . S
O48 Co47 2.061 . S
O48 C51 1.235 . S
C49 O52 1.238 . S
C49 O53 1.241 . S
C50 O43 1.247 . S
C50 O44 1.261 . S
C51 O46 1.259 . S
C51 O48 1.235 . S
O52 Co42 2.021 . S
O52 C49 1.238 . S
O53 Co47 2.052 . S
O53 C49 1.241 . S
O54 Co42 2.137 . S
O54 C45 1.247 . S
O55 Co42 2.244 . S
O55 C45 1.272 . S
O55 Co47 2.135 . S
Co56 O57 2.216 . S
Co56 O58 2.091 . S
Co56 O60 2.004 . S
Co56 O66 2.021 . S
Co56 O68 2.137 . S
Co56 O69 2.244 . S
O57 Co56 2.216 . S
O57 C64 1.247 . S
O58 Co56 2.091 . S
O58 C64 1.261 . S
C59 O68 1.247 . S
C59 O69 1.272 . S
O60 Co56 2.004 . S
O60 C65 1.259 . S
Co61 O62 2.061 . S
Co61 O67 2.052 . S
Co61 O69 2.135 . S
O62 Co61 2.061 . S
O62 C65 1.235 . S
C63 O66 1.238 . S
C63 O67 1.241 . S
C64 O57 1.247 . S
C64 O58 1.261 . S
C65 O60 1.259 . S
C65 O62 1.235 . S
O66 Co56 2.021 . S
O66 C63 1.238 . S
O67 Co61 2.052 . S
O67 C63 1.241 . S
O68 Co56 2.137 . S
O68 C59 1.247 . S
O69 Co56 2.244 . S
O69 C59 1.272 . S
O69 Co61 2.135 . S
Co70 O71 2.216 . S
Co70 O72 2.091 . S
Co70 O74 2.004 . S
Co70 O80 2.021 . S
Co70 O82 2.137 . S
Co70 O83 2.244 . S
O71 Co70 2.216 . S
O71 C78 1.247 . S
O72 Co70 2.091 . S
O72 C78 1.261 . S
C73 O82 1.247 . S
C73 O83 1.272 . S
O74 Co70 2.004 . S
O74 C79 1.259 . S
Co75 O76 2.061 . S
Co75 O81 2.052 . S
Co75 O83 2.135 . S
O76 Co75 2.061 . S
O76 C79 1.235 . S
C77 O80 1.238 . S
C77 O81 1.241 . S
C78 O71 1.247 . S
C78 O72 1.261 . S
C79 O74 1.259 . S
C79 O76 1.235 . S
O80 Co70 2.021 . S
O80 C77 1.238 . S
O81 Co75 2.052 . S
O81 C77 1.241 . S
O82 Co70 2.137 . S
O82 C73 1.247 . S
O83 Co70 2.244 . S
O83 C73 1.272 . S
O83 Co75 2.135 . S
Co84 O85 2.216 . S
Co84 O86 2.091 . S
Co84 O88 2.004 . S
Co84 O94 2.021 . S
Co84 O96 2.137 1_556 S
Co84 O97 2.244 1_556 S
O85 Co84 2.216 . S
O85 C92 1.247 . S
O86 Co84 2.091 . S
O86 C92 1.261 . S
C87 O96 1.247 . S
C87 O97 1.272 . S
O88 Co84 2.004 . S
O88 C93 1.259 . S
Co89 O90 2.061 . S
Co89 O95 2.052 . S
Co89 O97 2.135 1_556 S
O90 Co89 2.061 . S
O90 C93 1.235 . S
C91 O94 1.238 . S
C91 O95 1.241 . S
C92 O85 1.247 . S
C92 O86 1.261 . S
C93 O88 1.259 . S
C93 O90 1.235 . S
O94 Co84 2.021 . S
O94 C91 1.238 . S
O95 Co89 2.052 . S
O95 C91 1.241 . S
O96 Co84 2.137 1_554 S
O96 C87 1.247 . S
O97 Co84 2.244 1_554 S
O97 C87 1.272 . S
O97 Co89 2.135 1_554 S
Co98 O99 2.216 . S
Co98 O100 2.091 . S
Co98 O102 2.004 . S
Co98 O108 2.021 . S
Co98 O110 2.137 . S
Co98 O111 2.244 . S
O99 Co98 2.216 . S
O99 C106 1.247 . S
O100 Co98 2.091 . S
O100 C106 1.261 . S
C101 O110 1.247 . S
C101 O111 1.272 . S
O102 Co98 2.004 . S
O102 C107 1.259 . S
Co103 O104 2.061 1_455 S
Co103 O109 2.052 . S
Co103 O111 2.135 1_455 S
O104 Co103 2.061 1_655 S
O104 C107 1.235 . S
C105 O108 1.238 . S
C105 O109 1.241 1_655 S
C106 O99 1.247 . S
C106 O100 1.261 . S
C107 O102 1.259 . S
C107 O104 1.235 . S
O108 Co98 2.021 . S
O108 C105 1.238 . S
O109 Co103 2.052 . S
O109 C105 1.241 1_455 S
O110 Co98 2.137 . S
O110 C101 1.247 . S
O111 Co98 2.244 . S
O111 C101 1.272 . S
O111 Co103 2.135 1_655 S
Co112 O113 2.216 . S
Co112 O114 2.091 . S
Co112 O116 2.004 . S
Co112 O122 2.021 . S
Co112 O124 2.137 1_556 S
Co112 O125 2.244 1_556 S
O113 Co112 2.216 . S
O113 C120 1.247 . S
O114 Co112 2.091 . S
O114 C120 1.261 . S
C115 O124 1.247 . S
C115 O125 1.272 . S
O116 Co112 2.004 . S
O116 C121 1.259 . S
Co117 O118 2.061 . S
Co117 O123 2.052 . S
Co117 O125 2.135 1_556 S
O118 Co117 2.061 . S
O118 C121 1.235 . S
C119 O122 1.238 . S
C119 O123 1.241 . S
C120 O113 1.247 . S
C120 O114 1.261 . S
C121 O116 1.259 . S
C121 O118 1.235 . S
O122 Co112 2.021 . S
O122 C119 1.238 . S
O123 Co117 2.052 . S
O123 C119 1.241 . S
O124 Co112 2.137 1_554 S
O124 C115 1.247 . S
O125 Co112 2.244 1_554 S
O125 C115 1.272 . S
O125 Co117 2.135 1_554 S
Co126 O127 2.216 . S
Co126 O128 2.091 . S
Co126 O130 2.004 . S
Co126 O136 2.021 . S
Co126 O138 2.137 . S
Co126 O139 2.244 . S
O127 Co126 2.216 . S
O127 C134 1.247 . S
O128 Co126 2.091 . S
O128 C134 1.261 . S
C129 O138 1.247 . S
C129 O139 1.272 . S
O130 Co126 2.004 . S
O130 C135 1.259 . S
Co131 O132 2.061 1_655 S
Co131 O137 2.052 . S
Co131 O139 2.135 1_655 S
O132 Co131 2.061 1_455 S
O132 C135 1.235 . S
C133 O136 1.238 . S
C133 O137 1.241 1_455 S
C134 O127 1.247 . S
C134 O128 1.261 . S
C135 O130 1.259 . S
C135 O132 1.235 . S
O136 Co126 2.021 . S
O136 C133 1.238 . S
O137 Co131 2.052 . S
O137 C133 1.241 1_655 S
O138 Co126 2.137 . S
O138 C129 1.247 . S
O139 Co126 2.244 . S
O139 C129 1.272 . S
O139 Co131 2.135 1_455 S
Co140 O141 2.216 . S
Co140 O142 2.091 . S
Co140 O144 2.004 . S
Co140 O150 2.021 . S
Co140 O152 2.137 . S
Co140 O153 2.244 . S
O141 Co140 2.216 . S
O141 C148 1.247 . S
O142 Co140 2.091 . S
O142 C148 1.261 . S
C143 O152 1.247 . S
C143 O153 1.272 . S
O144 Co140 2.004 . S
O144 C149 1.259 . S
Co145 O146 2.061 . S
Co145 O151 2.052 . S
Co145 O153 2.135 . S
O146 Co145 2.061 . S
O146 C149 1.235 . S
C147 O150 1.238 . S
C147 O151 1.241 . S
C148 O141 1.247 . S
C148 O142 1.261 . S
C149 O144 1.259 . S
C149 O146 1.235 . S
O150 Co140 2.021 . S
O150 C147 1.238 . S
O151 Co145 2.052 . S
O151 C147 1.241 . S
O152 Co140 2.137 . S
O152 C143 1.247 . S
O153 Co140 2.244 . S
O153 C143 1.272 . S
O153 Co145 2.135 . S
Co154 O155 2.216 . S
Co154 O156 2.091 . S
Co154 O158 2.004 . S
Co154 O164 2.021 . S
Co154 O166 2.137 . S
Co154 O167 2.244 . S
O155 Co154 2.216 . S
O155 C162 1.247 . S
O156 Co154 2.091 . S
O156 C162 1.261 . S
C157 O166 1.247 . S
C157 O167 1.272 . S
O158 Co154 2.004 . S
O158 C163 1.259 . S
Co159 O160 2.061 . S
Co159 O165 2.052 . S
Co159 O167 2.135 . S
O160 Co159 2.061 . S
O160 C163 1.235 . S
C161 O164 1.238 . S
C161 O165 1.241 . S
C162 O155 1.247 . S
C162 O156 1.261 . S
C163 O158 1.259 . S
C163 O160 1.235 . S
O164 Co154 2.021 . S
O164 C161 1.238 . S
O165 Co159 2.052 . S
O165 C161 1.241 . S
O166 Co154 2.137 . S
O166 C157 1.247 . S
O167 Co154 2.244 . S
O167 C157 1.272 . S
O167 Co159 2.135 . S
Co168 O169 2.216 . S
Co168 O170 2.091 . S
Co168 O172 2.004 . S
Co168 O178 2.021 . S
Co168 O180 2.137 . S
Co168 O181 2.244 . S
O169 Co168 2.216 . S
O169 C176 1.247 . S
O170 Co168 2.091 . S
O170 C176 1.261 . S
C171 O180 1.247 . S
C171 O181 1.272 . S
O172 Co168 2.004 . S
O172 C177 1.259 . S
Co173 O174 2.061 . S
Co173 O179 2.052 . S
Co173 O181 2.135 . S
O174 Co173 2.061 . S
O174 C177 1.235 . S
C175 O178 1.238 . S
C175 O179 1.241 . S
C176 O169 1.247 . S
C176 O170 1.261 . S
C177 O172 1.259 . S
C177 O174 1.235 . S
O178 Co168 2.021 . S
O178 C175 1.238 . S
O179 Co173 2.052 . S
O179 C175 1.241 . S
O180 Co168 2.137 . S
O180 C171 1.247 . S
O181 Co168 2.244 . S
O181 C171 1.272 . S
O181 Co173 2.135 . S
Co182 O183 2.216 . S
Co182 O184 2.091 . S
Co182 O186 2.004 . S
Co182 O192 2.021 . S
Co182 O194 2.137 . S
Co182 O195 2.244 . S
O183 Co182 2.216 . S
O183 C190 1.247 . S
O184 Co182 2.091 . S
O184 C190 1.261 . S
C185 O194 1.247 . S
C185 O195 1.272 . S
O186 Co182 2.004 . S
O186 C191 1.259 . S
Co187 O188 2.061 . S
Co187 O193 2.052 . S
Co187 O195 2.135 . S
O188 Co187 2.061 . S
O188 C191 1.235 . S
C189 O192 1.238 . S
C189 O193 1.241 . S
C190 O183 1.247 . S
C190 O184 1.261 . S
C191 O186 1.259 . S
C191 O188 1.235 . S
O192 Co182 2.021 . S
O192 C189 1.238 . S
O193 Co187 2.052 . S
O193 C189 1.241 . S
O194 Co182 2.137 . S
O194 C185 1.247 . S
O195 Co182 2.244 . S
O195 C185 1.272 . S
O195 Co187 2.135 . S
Co196 O197 2.216 . S
Co196 O198 2.091 . S
Co196 O200 2.004 . S
Co196 O206 2.021 . S
Co196 O208 2.137 1_554 S
Co196 O209 2.244 1_554 S
O197 Co196 2.216 . S
O197 C204 1.247 . S
O198 Co196 2.091 . S
O198 C204 1.261 . S
C199 O208 1.247 . S
C199 O209 1.272 . S
O200 Co196 2.004 . S
O200 C205 1.259 . S
Co201 O202 2.061 . S
Co201 O207 2.052 . S
Co201 O209 2.135 1_554 S
O202 Co201 2.061 . S
O202 C205 1.235 . S
C203 O206 1.238 . S
C203 O207 1.241 . S
C204 O197 1.247 . S
C204 O198 1.261 . S
C205 O200 1.259 . S
C205 O202 1.235 . S
O206 Co196 2.021 . S
O206 C203 1.238 . S
O207 Co201 2.052 . S
O207 C203 1.241 . S
O208 Co196 2.137 1_556 S
O208 C199 1.247 . S
O209 Co196 2.244 1_556 S
O209 C199 1.272 . S
O209 Co201 2.135 1_556 S
Co210 O211 2.216 . S
Co210 O212 2.091 . S
Co210 O214 2.004 . S
Co210 O220 2.021 . S
Co210 O222 2.137 . S
Co210 O223 2.244 . S
O211 Co210 2.216 . S
O211 C218 1.247 . S
O212 Co210 2.091 . S
O212 C218 1.261 . S
C213 O222 1.247 . S
C213 O223 1.272 . S
O214 Co210 2.004 . S
O214 C219 1.259 . S
Co215 O216 2.061 1_655 S
Co215 O221 2.052 . S
Co215 O223 2.135 1_655 S
O216 Co215 2.061 1_455 S
O216 C219 1.235 . S
C217 O220 1.238 . S
C217 O221 1.241 1_455 S
C218 O211 1.247 . S
C218 O212 1.261 . S
C219 O214 1.259 . S
C219 O216 1.235 . S
O220 Co210 2.021 . S
O220 C217 1.238 . S
O221 Co215 2.052 . S
O221 C217 1.241 1_655 S
O222 Co210 2.137 . S
O222 C213 1.247 . S
O223 Co210 2.244 . S
O223 C213 1.272 . S
O223 Co215 2.135 1_455 S
Co224 O225 2.216 . S
Co224 O226 2.091 . S
Co224 O228 2.004 . S
Co224 O234 2.021 . S
Co224 O236 2.137 . S
Co224 O237 2.244 . S
O225 Co224 2.216 . S
O225 C232 1.247 . S
O226 Co224 2.091 . S
O226 C232 1.261 . S
C227 O236 1.247 . S
C227 O237 1.272 . S
O228 Co224 2.004 . S
O228 C233 1.259 . S
Co229 O230 2.061 . S
Co229 O235 2.052 . S
Co229 O237 2.135 . S
O230 Co229 2.061 . S
O230 C233 1.235 . S
C231 O234 1.238 . S
C231 O235 1.241 . S
C232 O225 1.247 . S
C232 O226 1.261 . S
C233 O228 1.259 . S
C233 O230 1.235 . S
O234 Co224 2.021 . S
O234 C231 1.238 . S
O235 Co229 2.052 . S
O235 C231 1.241 . S
O236 Co224 2.137 . S
O236 C227 1.247 . S
O237 Co224 2.244 . S
O237 C227 1.272 . S
O237 Co229 2.135 . S
Co238 O239 2.216 . S
Co238 O240 2.091 . S
Co238 O242 2.004 . S
Co238 O248 2.021 . S
Co238 O250 2.137 . S
Co238 O251 2.244 . S
O239 Co238 2.216 . S
O239 C246 1.247 . S
O240 Co238 2.091 . S
O240 C246 1.261 . S
C241 O250 1.247 . S
C241 O251 1.272 . S
O242 Co238 2.004 . S
O242 C247 1.259 . S
Co243 O244 2.061 . S
Co243 O249 2.052 . S
Co243 O251 2.135 . S
O244 Co243 2.061 . S
O244 C247 1.235 . S
C245 O248 1.238 . S
C245 O249 1.241 . S
C246 O239 1.247 . S
C246 O240 1.261 . S
C247 O242 1.259 . S
C247 O244 1.235 . S
O248 Co238 2.021 . S
O248 C245 1.238 . S
O249 Co243 2.052 . S
O249 C245 1.241 . S
O250 Co238 2.137 . S
O250 C241 1.247 . S
O251 Co238 2.244 . S
O251 C241 1.272 . S
O251 Co243 2.135 . S
Co252 O253 2.216 . S
Co252 O254 2.091 . S
Co252 O256 2.004 . S
Co252 O262 2.021 . S
Co252 O264 2.137 1_554 S
Co252 O265 2.244 1_554 S
O253 Co252 2.216 . S
O253 C260 1.247 . S
O254 Co252 2.091 . S
O254 C260 1.261 . S
C255 O264 1.247 . S
C255 O265 1.272 . S
O256 Co252 2.004 . S
O256 C261 1.259 . S
Co257 O258 2.061 . S
Co257 O263 2.052 . S
Co257 O265 2.135 1_554 S
O258 Co257 2.061 . S
O258 C261 1.235 . S
C259 O262 1.238 . S
C259 O263 1.241 . S
C260 O253 1.247 . S
C260 O254 1.261 . S
C261 O256 1.259 . S
C261 O258 1.235 . S
O262 Co252 2.021 . S
O262 C259 1.238 . S
O263 Co257 2.052 . S
O263 C259 1.241 . S
O264 Co252 2.137 1_556 S
O264 C255 1.247 . S
O265 Co252 2.244 1_556 S
O265 C255 1.272 . S
O265 Co257 2.135 1_556 S
Co266 O267 2.216 . S
Co266 O268 2.091 . S
Co266 O270 2.004 . S
Co266 O276 2.021 . S
Co266 O278 2.137 . S
Co266 O279 2.244 . S
O267 Co266 2.216 . S
O267 C274 1.247 . S
O268 Co266 2.091 . S
O268 C274 1.261 . S
C269 O278 1.247 . S
C269 O279 1.272 . S
O270 Co266 2.004 . S
O270 C275 1.259 . S
Co271 O272 2.061 1_655 S
Co271 O277 2.052 . S
Co271 O279 2.135 1_655 S
O272 Co271 2.061 1_455 S
O272 C275 1.235 . S
C273 O276 1.238 . S
C273 O277 1.241 1_455 S
C274 O267 1.247 . S
C274 O268 1.261 . S
C275 O270 1.259 . S
C275 O272 1.235 . S
O276 Co266 2.021 . S
O276 C273 1.238 . S
O277 Co271 2.052 . S
O277 C273 1.241 1_655 S
O278 Co266 2.137 . S
O278 C269 1.247 . S
O279 Co266 2.244 . S
O279 C269 1.272 . S
O279 Co271 2.135 1_455 S
Co280 O281 2.216 . S
Co280 O282 2.091 . S
Co280 O284 2.004 . S
Co280 O290 2.021 . S
Co280 O292 2.137 1_556 S
Co280 O293 2.244 1_556 S
O281 Co280 2.216 . S
O281 C288 1.247 . S
O282 Co280 2.091 . S
O282 C288 1.261 . S
C283 O292 1.247 . S
C283 O293 1.272 . S
O284 Co280 2.004 . S
O284 C289 1.259 . S
Co285 O286 2.061 . S
Co285 O291 2.052 . S
Co285 O293 2.135 1_556 S
O286 Co285 2.061 . S
O286 C289 1.235 . S
C287 O290 1.238 . S
C287 O291 1.241 . S
C288 O281 1.247 . S
C288 O282 1.261 . S
C289 O284 1.259 . S
C289 O286 1.235 . S
O290 Co280 2.021 . S
O290 C287 1.238 . S
O291 Co285 2.052 . S
O291 C287 1.241 . S
O292 Co280 2.137 1_554 S
O292 C283 1.247 . S
O293 Co280 2.244 1_554 S
O293 C283 1.272 . S
O293 Co285 2.135 1_554 S
Co294 O295 2.216 . S
Co294 O296 2.091 . S
Co294 O298 2.004 . S
Co294 O304 2.021 . S
Co294 O306 2.137 . S
Co294 O307 2.244 . S
O295 Co294 2.216 . S
O295 C302 1.247 . S
O296 Co294 2.091 . S
O296 C302 1.261 . S
C297 O306 1.247 . S
C297 O307 1.272 . S
O298 Co294 2.004 . S
O298 C303 1.259 . S
Co299 O300 2.061 1_655 S
Co299 O305 2.052 . S
Co299 O307 2.135 1_655 S
O300 Co299 2.061 1_455 S
O300 C303 1.235 . S
C301 O304 1.238 . S
C301 O305 1.241 1_455 S
C302 O295 1.247 . S
C302 O296 1.261 . S
C303 O298 1.259 . S
C303 O300 1.235 . S
O304 Co294 2.021 . S
O304 C301 1.238 . S
O305 Co299 2.052 . S
O305 C301 1.241 1_655 S
O306 Co294 2.137 . S
O306 C297 1.247 . S
O307 Co294 2.244 . S
O307 C297 1.272 . S
O307 Co299 2.135 1_455 S
Co308 O309 2.216 . S
Co308 O310 2.091 . S
Co308 O312 2.004 . S
Co308 O318 2.021 . S
Co308 O320 2.137 . S
Co308 O321 2.244 . S
O309 Co308 2.216 . S
O309 C316 1.247 . S
O310 Co308 2.091 . S
O310 C316 1.261 . S
C311 O320 1.247 . S
C311 O321 1.272 . S
O312 Co308 2.004 . S
O312 C317 1.259 . S
Co313 O314 2.061 . S
Co313 O319 2.052 . S
Co313 O321 2.135 . S
O314 Co313 2.061 . S
O314 C317 1.235 . S
C315 O318 1.238 . S
C315 O319 1.241 . S
C316 O309 1.247 . S
C316 O310 1.261 . S
C317 O312 1.259 . S
C317 O314 1.235 . S
O318 Co308 2.021 . S
O318 C315 1.238 . S
O319 Co313 2.052 . S
O319 C315 1.241 . S
O320 Co308 2.137 . S
O320 C311 1.247 . S
O321 Co308 2.244 . S
O321 C311 1.272 . S
O321 Co313 2.135 . S
Co322 O323 2.216 . S
Co322 O324 2.091 . S
Co322 O326 2.004 . S
Co322 O332 2.021 . S
Co322 O334 2.137 . S
Co322 O335 2.244 . S
O323 Co322 2.216 . S
O323 C330 1.247 . S
O324 Co322 2.091 . S
O324 C330 1.261 . S
C325 O334 1.247 . S
C325 O335 1.272 . S
O326 Co322 2.004 . S
O326 C331 1.259 . S
Co327 O328 2.061 . S
Co327 O333 2.052 . S
Co327 O335 2.135 . S
O328 Co327 2.061 . S
O328 C331 1.235 . S
C329 O332 1.238 . S
C329 O333 1.241 . S
C330 O323 1.247 . S
C330 O324 1.261 . S
C331 O326 1.259 . S
C331 O328 1.235 . S
O332 Co322 2.021 . S
O332 C329 1.238 . S
O333 Co327 2.052 . S
O333 C329 1.241 . S
O334 Co322 2.137 . S
O334 C325 1.247 . S
O335 Co322 2.244 . S
O335 C325 1.272 . S
O335 Co327 2.135 . S
Co336 O337 2.216 . S
Co336 O338 2.091 . S
Co336 O340 2.004 . S
Co336 O346 2.021 . S
Co336 O348 2.137 . S
Co336 O349 2.244 . S
O337 Co336 2.216 . S
O337 C344 1.247 . S
O338 Co336 2.091 . S
O338 C344 1.261 . S
C339 O348 1.247 . S
C339 O349 1.272 . S
O340 Co336 2.004 . S
O340 C345 1.259 . S
Co341 O342 2.061 . S
Co341 O347 2.052 . S
Co341 O349 2.135 . S
O342 Co341 2.061 . S
O342 C345 1.235 . S
C343 O346 1.238 . S
C343 O347 1.241 . S
C344 O337 1.247 . S
C344 O338 1.261 . S
C345 O340 1.259 . S
C345 O342 1.235 . S
O346 Co336 2.021 . S
O346 C343 1.238 . S
O347 Co341 2.052 . S
O347 C343 1.241 . S
O348 Co336 2.137 . S
O348 C339 1.247 . S
O349 Co336 2.244 . S
O349 C339 1.272 . S
O349 Co341 2.135 . S
Co350 O351 2.216 . S
Co350 O352 2.091 . S
Co350 O354 2.004 . S
Co350 O360 2.021 . S
Co350 O362 2.137 . S
Co350 O363 2.244 . S
O351 Co350 2.216 . S
O351 C358 1.247 . S
O352 Co350 2.091 . S
O352 C358 1.261 . S
C353 O362 1.247 . S
C353 O363 1.272 . S
O354 Co350 2.004 . S
O354 C359 1.259 . S
Co355 O356 2.061 . S
Co355 O361 2.052 . S
Co355 O363 2.135 . S
O356 Co355 2.061 . S
O356 C359 1.235 . S
C357 O360 1.238 . S
C357 O361 1.241 . S
C358 O351 1.247 . S
C358 O352 1.261 . S
C359 O354 1.259 . S
C359 O356 1.235 . S
O360 Co350 2.021 . S
O360 C357 1.238 . S
O361 Co355 2.052 . S
O361 C357 1.241 . S
O362 Co350 2.137 . S
O362 C353 1.247 . S
O363 Co350 2.244 . S
O363 C353 1.272 . S
O363 Co355 2.135 . S
Co364 O365 2.216 . S
Co364 O366 2.091 . S
Co364 O368 2.004 . S
Co364 O374 2.021 . S
Co364 O376 2.137 1_556 S
Co364 O377 2.244 1_556 S
O365 Co364 2.216 . S
O365 C372 1.247 . S
O366 Co364 2.091 . S
O366 C372 1.261 . S
C367 O376 1.247 . S
C367 O377 1.272 . S
O368 Co364 2.004 . S
O368 C373 1.259 . S
Co369 O370 2.061 . S
Co369 O375 2.052 . S
Co369 O377 2.135 1_556 S
O370 Co369 2.061 . S
O370 C373 1.235 . S
C371 O374 1.238 . S
C371 O375 1.241 . S
C372 O365 1.247 . S
C372 O366 1.261 . S
C373 O368 1.259 . S
C373 O370 1.235 . S
O374 Co364 2.021 . S
O374 C371 1.238 . S
O375 Co369 2.052 . S
O375 C371 1.241 . S
O376 Co364 2.137 1_554 S
O376 C367 1.247 . S
O377 Co364 2.244 1_554 S
O377 C367 1.272 . S
O377 Co369 2.135 1_554 S
Co378 O379 2.216 . S
Co378 O380 2.091 . S
Co378 O382 2.004 . S
Co378 O388 2.021 . S
Co378 O390 2.137 . S
Co378 O391 2.244 . S
O379 Co378 2.216 . S
O379 C386 1.247 . S
O380 Co378 2.091 . S
O380 C386 1.261 . S
C381 O390 1.247 . S
C381 O391 1.272 . S
O382 Co378 2.004 . S
O382 C387 1.259 . S
Co383 O384 2.061 1_455 S
Co383 O389 2.052 . S
Co383 O391 2.135 1_455 S
O384 Co383 2.061 1_655 S
O384 C387 1.235 . S
C385 O388 1.238 . S
C385 O389 1.241 1_655 S
C386 O379 1.247 . S
C386 O380 1.261 . S
C387 O382 1.259 . S
C387 O384 1.235 . S
O388 Co378 2.021 . S
O388 C385 1.238 . S
O389 Co383 2.052 . S
O389 C385 1.241 1_455 S
O390 Co378 2.137 . S
O390 C381 1.247 . S
O391 Co378 2.244 . S
O391 C381 1.272 . S
O391 Co383 2.135 1_655 S
Co392 O393 2.216 . S
Co392 O394 2.091 . S
Co392 O396 2.004 . S
Co392 O402 2.021 . S
Co392 O404 2.137 1_554 S
Co392 O405 2.244 1_554 S
O393 Co392 2.216 . S
O393 C400 1.247 . S
O394 Co392 2.091 . S
O394 C400 1.261 . S
C395 O404 1.247 . S
C395 O405 1.272 . S
O396 Co392 2.004 . S
O396 C401 1.259 . S
Co397 O398 2.061 . S
Co397 O403 2.052 . S
Co397 O405 2.135 1_554 S
O398 Co397 2.061 . S
O398 C401 1.235 . S
C399 O402 1.238 . S
C399 O403 1.241 . S
C400 O393 1.247 . S
C400 O394 1.261 . S
C401 O396 1.259 . S
C401 O398 1.235 . S
O402 Co392 2.021 . S
O402 C399 1.238 . S
O403 Co397 2.052 . S
O403 C399 1.241 . S
O404 Co392 2.137 1_556 S
O404 C395 1.247 . S
O405 Co392 2.244 1_556 S
O405 C395 1.272 . S
O405 Co397 2.135 1_556 S
Co406 O407 2.216 . S
Co406 O408 2.091 . S
Co406 O410 2.004 . S
Co406 O416 2.021 . S
Co406 O418 2.137 . S
Co406 O419 2.244 . S
O407 Co406 2.216 . S
O407 C414 1.247 . S
O408 Co406 2.091 . S
O408 C414 1.261 . S
C409 O418 1.247 . S
C409 O419 1.272 . S
O410 Co406 2.004 . S
O410 C415 1.259 . S
Co411 O412 2.061 1_455 S
Co411 O417 2.052 . S
Co411 O419 2.135 1_455 S
O412 Co411 2.061 1_655 S
O412 C415 1.235 . S
C413 O416 1.238 . S
C413 O417 1.241 1_655 S
C414 O407 1.247 . S
C414 O408 1.261 . S
C415 O410 1.259 . S
C415 O412 1.235 . S
O416 Co406 2.021 . S
O416 C413 1.238 . S
O417 Co411 2.052 . S
O417 C413 1.241 1_455 S
O418 Co406 2.137 . S
O418 C409 1.247 . S
O419 Co406 2.244 . S
O419 C409 1.272 . S
O419 Co411 2.135 1_655 S
Co420 O421 2.216 . S
Co420 O422 2.091 . S
Co420 O424 2.004 . S
Co420 O430 2.021 . S
Co420 O432 2.137 . S
Co420 O433 2.244 . S
O421 Co420 2.216 . S
O421 C428 1.247 . S
O422 Co420 2.091 . S
O422 C428 1.261 . S
C423 O432 1.247 . S
C423 O433 1.272 . S
O424 Co420 2.004 . S
O424 C429 1.259 . S
Co425 O426 2.061 . S
Co425 O431 2.052 . S
Co425 O433 2.135 . S
O426 Co425 2.061 . S
O426 C429 1.235 . S
C427 O430 1.238 . S
C427 O431 1.241 . S
C428 O421 1.247 . S
C428 O422 1.261 . S
C429 O424 1.259 . S
C429 O426 1.235 . S
O430 Co420 2.021 . S
O430 C427 1.238 . S
O431 Co425 2.052 . S
O431 C427 1.241 . S
O432 Co420 2.137 . S
O432 C423 1.247 . S
O433 Co420 2.244 . S
O433 C423 1.272 . S
O433 Co425 2.135 . S
Co434 O435 2.216 . S
Co434 O436 2.091 . S
Co434 O438 2.004 . S
Co434 O444 2.021 . S
Co434 O446 2.137 . S
Co434 O447 2.244 . S
O435 Co434 2.216 . S
O435 C442 1.247 . S
O436 Co434 2.091 . S
O436 C442 1.261 . S
C437 O446 1.247 . S
C437 O447 1.272 . S
O438 Co434 2.004 . S
O438 C443 1.259 . S
Co439 O440 2.061 . S
Co439 O445 2.052 . S
Co439 O447 2.135 . S
O440 Co439 2.061 . S
O440 C443 1.235 . S
C441 O444 1.238 . S
C441 O445 1.241 . S
C442 O435 1.247 . S
C442 O436 1.261 . S
C443 O438 1.259 . S
C443 O440 1.235 . S
O444 Co434 2.021 . S
O444 C441 1.238 . S
O445 Co439 2.052 . S
O445 C441 1.241 . S
O446 Co434 2.137 . S
O446 C437 1.247 . S
O447 Co434 2.244 . S
O447 C437 1.272 . S
O447 Co439 2.135 . S
C448 C449 1.387 . S
C448 H452 0.950 . S
C448 C457 1.390 1_556 S
C449 C448 1.387 . S
C449 C451 1.387 . S
H450 C457 0.950 . S
C451 C449 1.387 . S
C451 C453 1.390 1_556 S
C451 H455 0.950 . S
H452 C448 0.950 . S
C453 C451 1.390 1_554 S
C453 C454 1.387 . S
C453 H456 0.950 . S
C454 C453 1.387 . S
C454 C457 1.387 . S
H455 C451 0.950 . S
H456 C453 0.950 . S
C457 C448 1.390 1_554 S
C457 H450 0.950 . S
C457 C454 1.387 . S
C458 C459 1.387 . S
C458 H462 0.950 . S
C458 C467 1.390 1_565 S
C459 C458 1.387 . S
C459 C461 1.387 . S
H460 C467 0.950 . S
C461 C459 1.387 . S
C461 C463 1.390 1_565 S
C461 H465 0.950 . S
H462 C458 0.950 . S
C463 C461 1.390 1_545 S
C463 C464 1.387 . S
C463 H466 0.950 . S
C464 C463 1.387 . S
C464 C467 1.387 . S
H465 C461 0.950 . S
H466 C463 0.950 . S
C467 C458 1.390 1_545 S
C467 H460 0.950 . S
C467 C464 1.387 . S
C468 C469 1.387 . S
C468 H472 0.950 . S
C468 C477 1.390 . S
C469 C468 1.387 . S
C469 C471 1.387 . S
H470 C477 0.950 . S
C471 C469 1.387 . S
C471 C473 1.390 . S
C471 H475 0.950 . S
H472 C468 0.950 . S
C473 C471 1.390 . S
C473 C474 1.387 . S
C473 H476 0.950 . S
C474 C473 1.387 . S
C474 C477 1.387 . S
H475 C471 0.950 . S
H476 C473 0.950 . S
C477 C468 1.390 . S
C477 H470 0.950 . S
C477 C474 1.387 . S
C478 C479 1.387 . S
C478 H482 0.950 . S
C478 C487 1.390 1_545 S
C479 C478 1.387 . S
C479 C481 1.387 . S
H480 C487 0.950 . S
C481 C479 1.387 . S
C481 C483 1.390 1_545 S
C481 H485 0.950 . S
H482 C478 0.950 . S
C483 C481 1.390 1_565 S
C483 C484 1.387 . S
C483 H486 0.950 . S
C484 C483 1.387 . S
C484 C487 1.387 . S
H485 C481 0.950 . S
H486 C483 0.950 . S
C487 C478 1.390 1_565 S
C487 H480 0.950 . S
C487 C484 1.387 . S
C488 C489 1.387 . S
C488 H492 0.950 . S
C488 C497 1.390 1_554 S
C489 C488 1.387 . S
C489 C491 1.387 . S
H490 C497 0.950 . S
C491 C489 1.387 . S
C491 C493 1.390 1_554 S
C491 H495 0.950 . S
H492 C488 0.950 . S
C493 C491 1.390 1_556 S
C493 C494 1.387 . S
C493 H496 0.950 . S
C494 C493 1.387 . S
C494 C497 1.387 . S
H495 C491 0.950 . S
H496 C493 0.950 . S
C497 C488 1.390 1_556 S
C497 H490 0.950 . S
C497 C494 1.387 . S
C498 C499 1.387 . S
C498 H502 0.950 . S
C498 C507 1.390 1_565 S
C499 C498 1.387 . S
C499 C501 1.387 . S
H500 C507 0.950 . S
C501 C499 1.387 . S
C501 C503 1.390 1_565 S
C501 H505 0.950 . S
H502 C498 0.950 . S
C503 C501 1.390 1_545 S
C503 C504 1.387 . S
C503 H506 0.950 . S
C504 C503 1.387 . S
C504 C507 1.387 . S
H505 C501 0.950 . S
H506 C503 0.950 . S
C507 C498 1.390 1_545 S
C507 H500 0.950 . S
C507 C504 1.387 . S
C508 C509 1.387 . S
C508 H512 0.950 . S
C508 C517 1.390 . S
C509 C508 1.387 . S
C509 C511 1.387 . S
H510 C517 0.950 . S
C511 C509 1.387 . S
C511 C513 1.390 . S
C511 H515 0.950 . S
H512 C508 0.950 . S
C513 C511 1.390 . S
C513 C514 1.387 . S
C513 H516 0.950 . S
C514 C513 1.387 . S
C514 C517 1.387 . S
H515 C511 0.950 . S
H516 C513 0.950 . S
C517 C508 1.390 . S
C517 H510 0.950 . S
C517 C514 1.387 . S
C518 C519 1.387 . S
C518 H522 0.950 . S
C518 C527 1.390 1_565 S
C519 C518 1.387 . S
C519 C521 1.387 . S
H520 C527 0.950 . S
C521 C519 1.387 . S
C521 C523 1.390 1_565 S
C521 H525 0.950 . S
H522 C518 0.950 . S
C523 C521 1.390 1_545 S
C523 C524 1.387 . S
C523 H526 0.950 . S
C524 C523 1.387 . S
C524 C527 1.387 . S
H525 C521 0.950 . S
H526 C523 0.950 . S
C527 C518 1.390 1_545 S
C527 H520 0.950 . S
C527 C524 1.387 . S
C528 C529 1.387 . S
C528 H532 0.950 . S
C528 C537 1.390 . S
C529 C528 1.387 . S
C529 C531 1.387 . S
H530 C537 0.950 . S
C531 C529 1.387 . S
C531 C533 1.390 . S
C531 H535 0.950 . S
H532 C528 0.950 . S
C533 C531 1.390 . S
C533 C534 1.387 . S
C533 H536 0.950 . S
C534 C533 1.387 . S
C534 C537 1.387 . S
H535 C531 0.950 . S
H536 C533 0.950 . S
C537 C528 1.390 . S
C537 H530 0.950 . S
C537 C534 1.387 . S
C538 C539 1.387 . S
C538 H542 0.950 . S
C538 C547 1.390 . S
C539 C538 1.387 . S
C539 C541 1.387 . S
H540 C547 0.950 . S
C541 C539 1.387 . S
C541 C543 1.390 . S
C541 H545 0.950 . S
H542 C538 0.950 . S
C543 C541 1.390 . S
C543 C544 1.387 . S
C543 H546 0.950 . S
C544 C543 1.387 . S
C544 C547 1.387 . S
H545 C541 0.950 . S
H546 C543 0.950 . S
C547 C538 1.390 . S
C547 H540 0.950 . S
C547 C544 1.387 . S
C548 C549 1.387 . S
C548 H552 0.950 . S
C548 C557 1.390 1_556 S
C549 C548 1.387 . S
C549 C551 1.387 . S
H550 C557 0.950 . S
C551 C549 1.387 . S
C551 C553 1.390 1_556 S
C551 H555 0.950 . S
H552 C548 0.950 . S
C553 C551 1.390 1_554 S
C553 C554 1.387 . S
C553 H556 0.950 . S
C554 C553 1.387 . S
C554 C557 1.387 . S
H555 C551 0.950 . S
H556 C553 0.950 . S
C557 C548 1.390 1_554 S
C557 H550 0.950 . S
C557 C554 1.387 . S
C558 C559 1.387 . S
C558 H562 0.950 . S
C558 C567 1.390 . S
C559 C558 1.387 . S
C559 C561 1.387 . S
H560 C567 0.950 . S
C561 C559 1.387 . S
C561 C563 1.390 . S
C561 H565 0.950 . S
H562 C558 0.950 . S
C563 C561 1.390 . S
C563 C564 1.387 . S
C563 H566 0.950 . S
C564 C563 1.387 . S
C564 C567 1.387 . S
H565 C561 0.950 . S
H566 C563 0.950 . S
C567 C558 1.390 . S
C567 H560 0.950 . S
C567 C564 1.387 . S
C568 C569 1.387 . S
C568 H572 0.950 . S
C568 C577 1.390 . S
C569 C568 1.387 . S
C569 C571 1.387 . S
H570 C577 0.950 . S
C571 C569 1.387 . S
C571 C573 1.390 . S
C571 H575 0.950 . S
H572 C568 0.950 . S
C573 C571 1.390 . S
C573 C574 1.387 . S
C573 H576 0.950 . S
C574 C573 1.387 . S
C574 C577 1.387 . S
H575 C571 0.950 . S
H576 C573 0.950 . S
C577 C568 1.390 . S
C577 H570 0.950 . S
C577 C574 1.387 . S
C578 C579 1.387 . S
C578 H582 0.950 . S
C578 C587 1.390 . S
C579 C578 1.387 . S
C579 C581 1.387 . S
H580 C587 0.950 . S
C581 C579 1.387 . S
C581 C583 1.390 . S
C581 H585 0.950 . S
H582 C578 0.950 . S
C583 C581 1.390 . S
C583 C584 1.387 . S
C583 H586 0.950 . S
C584 C583 1.387 . S
C584 C587 1.387 . S
H585 C581 0.950 . S
H586 C583 0.950 . S
C587 C578 1.390 . S
C587 H580 0.950 . S
C587 C584 1.387 . S
C588 C589 1.387 . S
C588 H592 0.950 . S
C588 C597 1.390 1_554 S
C589 C588 1.387 . S
C589 C591 1.387 . S
H590 C597 0.950 . S
C591 C589 1.387 . S
C591 C593 1.390 1_554 S
C591 H595 0.950 . S
H592 C588 0.950 . S
C593 C591 1.390 1_556 S
C593 C594 1.387 . S
C593 H596 0.950 . S
C594 C593 1.387 . S
C594 C597 1.387 . S
H595 C591 0.950 . S
H596 C593 0.950 . S
C597 C588 1.390 1_556 S
C597 H590 0.950 . S
C597 C594 1.387 . S
C598 C599 1.387 . S
C598 H602 0.950 . S
C598 C607 1.390 . S
C599 C598 1.387 . S
C599 C601 1.387 . S
H600 C607 0.950 . S
C601 C599 1.387 . S
C601 C603 1.390 . S
C601 H605 0.950 . S
H602 C598 0.950 . S
C603 C601 1.390 . S
C603 C604 1.387 . S
C603 H606 0.950 . S
C604 C603 1.387 . S
C604 C607 1.387 . S
H605 C601 0.950 . S
H606 C603 0.950 . S
C607 C598 1.390 . S
C607 H600 0.950 . S
C607 C604 1.387 . S
C608 C609 1.387 . S
C608 H612 0.950 . S
C608 C617 1.390 . S
C609 C608 1.387 . S
C609 C611 1.387 . S
H610 C617 0.950 . S
C611 C609 1.387 . S
C611 C613 1.390 . S
C611 H615 0.950 . S
H612 C608 0.950 . S
C613 C611 1.390 . S
C613 C614 1.387 . S
C613 H616 0.950 . S
C614 C613 1.387 . S
C614 C617 1.387 . S
H615 C611 0.950 . S
H616 C613 0.950 . S
C617 C608 1.390 . S
C617 H610 0.950 . S
C617 C614 1.387 . S
C618 C619 1.375 1_654 S
C618 H622 0.949 . S
C618 C627 1.404 . S
C619 C618 1.375 1_456 S
C619 C621 1.387 1_556 S
H620 C627 0.950 . S
C621 C619 1.387 1_554 S
C621 C623 1.390 1_455 S
C621 H625 0.950 1_554 S
H622 C618 0.949 . S
C623 C621 1.390 1_655 S
C623 C624 1.387 . S
C623 H626 0.950 . S
C624 C623 1.387 . S
C624 C627 1.387 . S
H625 C621 0.950 1_556 S
H626 C623 0.950 . S
C627 C618 1.404 . S
C627 H620 0.950 . S
C627 C624 1.387 . S
C628 C629 1.387 . S
C628 H632 0.950 . S
C628 C637 1.390 . S
C629 C628 1.387 . S
C629 C631 1.387 . S
H630 C637 0.950 . S
C631 C629 1.387 . S
C631 C633 1.390 . S
C631 H635 0.950 . S
H632 C628 0.950 . S
C633 C631 1.390 . S
C633 C634 1.387 . S
C633 H636 0.950 . S
C634 C633 1.387 . S
C634 C637 1.387 . S
H635 C631 0.950 . S
H636 C633 0.950 . S
C637 C628 1.390 . S
C637 H630 0.950 . S
C637 C634 1.387 . S
C638 C639 1.387 . S
C638 H642 0.950 . S
C638 C647 1.390 . S
C639 C638 1.387 . S
C639 C641 1.387 . S
H640 C647 0.950 . S
C641 C639 1.387 . S
C641 C643 1.390 . S
C641 H645 0.950 . S
H642 C638 0.950 . S
C643 C641 1.390 . S
C643 C644 1.387 . S
C643 H646 0.950 . S
C644 C643 1.387 . S
C644 C647 1.387 . S
H645 C641 0.950 . S
H646 C643 0.950 . S
C647 C638 1.390 . S
C647 H640 0.950 . S
C647 C644 1.387 . S
C648 C649 1.387 . S
C648 H652 0.950 . S
C648 C657 1.390 . S
C649 C648 1.387 . S
C649 C651 1.387 . S
H650 C657 0.950 . S
C651 C649 1.387 . S
C651 C653 1.390 . S
C651 H655 0.950 . S
H652 C648 0.950 . S
C653 C651 1.390 . S
C653 C654 1.387 . S
C653 H656 0.950 . S
C654 C653 1.387 . S
C654 C657 1.387 . S
H655 C651 0.950 . S
H656 C653 0.950 . S
C657 C648 1.390 . S
C657 H650 0.950 . S
C657 C654 1.387 . S
C658 C659 1.387 1_556 S
C658 H662 0.957 . S
C658 C667 1.390 . S
C659 C658 1.387 1_554 S
C659 C661 1.387 1_554 S
H660 C667 0.950 . S
C661 C659 1.387 1_556 S
C661 C663 1.390 . S
C661 H665 0.950 . S
H662 C658 0.957 . S
C663 C661 1.390 . S
C663 C664 1.387 . S
C663 H666 0.950 . S
C664 C663 1.387 . S
C664 C667 1.387 . S
H665 C661 0.950 . S
H666 C663 0.950 . S
C667 C658 1.390 . S
C667 H660 0.950 . S
C667 C664 1.387 . S
C668 C669 1.387 . S
C668 H672 0.950 . S
C668 C677 1.390 . S
C669 C668 1.387 . S
C669 C671 1.387 . S
H670 C677 0.950 . S
C671 C669 1.387 . S
C671 C673 1.390 . S
C671 H675 0.950 . S
H672 C668 0.950 . S
C673 C671 1.390 . S
C673 C674 1.387 . S
C673 H676 0.950 . S
C674 C673 1.387 . S
C674 C677 1.387 . S
H675 C671 0.950 . S
H676 C673 0.950 . S
C677 C668 1.390 . S
C677 H670 0.950 . S
C677 C674 1.387 . S
C678 C679 1.387 . S
C678 H682 0.950 . S
C678 C687 1.389 . S
C679 C678 1.387 . S
C679 C681 1.387 1_455 S
H680 C687 0.949 . S
C681 C679 1.387 1_655 S
C681 C683 1.390 . S
C681 H685 0.950 . S
H682 C678 0.950 . S
C683 C681 1.390 . S
C683 C684 1.387 . S
C683 H686 0.950 . S
C684 C683 1.387 . S
C684 C687 1.389 1_655 S
H685 C681 0.950 . S
H686 C683 0.950 . S
C687 C678 1.389 . S
C687 H680 0.949 . S
C687 C684 1.389 1_455 S
C688 C689 1.387 . S
C688 H692 0.950 . S
C688 C697 1.390 . S
C689 C688 1.387 . S
C689 C691 1.387 . S
H690 C697 0.950 . S
C691 C689 1.387 . S
C691 C693 1.390 . S
C691 H695 0.950 . S
H692 C688 0.950 . S
C693 C691 1.390 . S
C693 C694 1.387 . S
C693 H696 0.950 . S
C694 C693 1.387 . S
C694 C697 1.387 . S
H695 C691 0.950 . S
H696 C693 0.950 . S
C697 C688 1.390 . S
C697 H690 0.950 . S
C697 C694 1.387 . S
C698 C699 1.387 1_556 S
C698 H702 0.950 . S
C698 C707 1.390 1_655 S
C699 C698 1.387 1_554 S
C699 C701 1.387 1_554 S
H700 C707 0.950 . S
C701 C699 1.387 1_556 S
C701 C703 1.390 1_655 S
C701 H705 0.950 1_556 S
H702 C698 0.950 . S
C703 C701 1.390 1_455 S
C703 C704 1.387 . S
C703 H706 0.950 . S
C704 C703 1.387 . S
C704 C707 1.387 . S
H705 C701 0.950 1_554 S
H706 C703 0.950 . S
C707 C698 1.390 1_455 S
C707 H700 0.950 . S
C707 C704 1.387 . S
C708 C709 1.387 . S
C708 H712 0.950 . S
C708 C717 1.390 . S
C709 C708 1.387 . S
C709 C711 1.387 . S
H710 C717 0.950 . S
C711 C709 1.387 . S
C711 C713 1.390 . S
C711 H715 0.950 . S
H712 C708 0.950 . S
C713 C711 1.390 . S
C713 C714 1.387 . S
C713 H716 0.950 . S
C714 C713 1.387 . S
C714 C717 1.387 . S
H715 C711 0.950 . S
H716 C713 0.950 . S
C717 C708 1.390 . S
C717 H710 0.950 . S
C717 C714 1.387 . S
C718 C719 1.387 . S
C718 H722 0.950 . S
C718 C727 1.390 . S
C719 C718 1.387 . S
C719 C721 1.387 . S
H720 C727 0.950 . S
C721 C719 1.387 . S
C721 C723 1.390 . S
C721 H725 0.950 . S
H722 C718 0.950 . S
C723 C721 1.390 . S
C723 C724 1.387 . S
C723 H726 0.950 . S
C724 C723 1.387 . S
C724 C727 1.387 . S
H725 C721 0.950 . S
H726 C723 0.950 . S
C727 C718 1.390 . S
C727 H720 0.950 . S
C727 C724 1.387 . S
C728 C729 1.387 . S
C728 H732 0.950 . S
C728 C737 1.390 . S
C729 C728 1.387 . S
C729 C731 1.387 . S
H730 C737 0.950 . S
C731 C729 1.387 . S
C731 C733 1.390 . S
C731 H735 0.950 . S
H732 C728 0.950 . S
C733 C731 1.390 . S
C733 C734 1.387 . S
C733 H736 0.950 . S
C734 C733 1.387 . S
C734 C737 1.387 . S
H735 C731 0.950 . S
H736 C733 0.950 . S
C737 C728 1.390 . S
C737 H730 0.950 . S
C737 C734 1.387 . S
C738 C739 1.387 . S
C738 H742 0.950 . S
C738 C747 1.390 . S
C739 C738 1.387 . S
C739 C741 1.387 . S
H740 C747 0.950 1_556 S
C741 C739 1.387 . S
C741 C743 1.390 . S
C741 H745 0.950 . S
H742 C738 0.950 . S
C743 C741 1.390 . S
C743 C744 1.387 1_554 S
C743 H746 0.950 . S
C744 C743 1.387 1_556 S
C744 C747 1.387 1_556 S
H745 C741 0.950 . S
H746 C743 0.950 . S
C747 C738 1.390 . S
C747 H740 0.950 1_554 S
C747 C744 1.387 1_554 S
C748 C749 1.387 . S
C748 H752 0.950 . S
C748 C757 1.390 . S
C749 C748 1.387 . S
C749 C751 1.387 . S
H750 C757 0.950 . S
C751 C749 1.387 . S
C751 C753 1.390 . S
C751 H755 0.950 . S
H752 C748 0.950 . S
C753 C751 1.390 . S
C753 C754 1.387 . S
C753 H756 0.950 . S
C754 C753 1.387 . S
C754 C757 1.387 . S
H755 C751 0.950 . S
H756 C753 0.950 . S
C757 C748 1.390 . S
C757 H750 0.950 . S
C757 C754 1.387 . S
C758 C759 1.387 1_455 S
C758 H762 0.950 . S
C758 C767 1.390 . S
C759 C758 1.387 1_655 S
C759 C761 1.387 . S
H760 C767 0.950 . S
C761 C759 1.387 . S
C761 C763 1.390 . S
C761 H765 0.950 . S
H762 C758 0.950 . S
C763 C761 1.390 . S
C763 C764 1.387 1_655 S
C763 H766 0.950 . S
C764 C763 1.387 1_455 S
C764 C767 1.387 . S
H765 C761 0.950 . S
H766 C763 0.950 . S
C767 C758 1.390 . S
C767 H760 0.950 . S
C767 C764 1.387 . S
C768 C769 1.387 . S
C768 H772 0.950 . S
C768 C777 1.390 . S
C769 C768 1.387 . S
C769 C771 1.387 . S
H770 C777 0.950 . S
C771 C769 1.387 . S
C771 C773 1.390 . S
C771 H775 0.950 . S
H772 C768 0.950 . S
C773 C771 1.390 . S
C773 C774 1.387 . S
C773 H776 0.950 . S
C774 C773 1.387 . S
C774 C777 1.387 . S
H775 C771 0.950 . S
H776 C773 0.950 . S
C777 C768 1.390 . S
C777 H770 0.950 . S
C777 C774 1.387 . S
C778 C779 1.387 . S
C778 H782 0.950 . S
C778 C787 1.390 . S
C779 C778 1.387 . S
C779 C781 1.387 . S
H780 C787 0.950 . S
C781 C779 1.387 . S
C781 C783 1.390 . S
C781 H785 0.950 . S
H782 C778 0.950 . S
C783 C781 1.390 . S
C783 C784 1.387 . S
C783 H786 0.950 . S
C784 C783 1.387 . S
C784 C787 1.387 . S
H785 C781 0.950 . S
H786 C783 0.950 . S
C787 C778 1.390 . S
C787 H780 0.950 . S
C787 C784 1.387 . S
C788 C789 1.387 . S
C788 H792 0.950 . S
C788 C797 1.390 . S
C789 C788 1.387 . S
C789 C791 1.387 . S
H790 C797 0.950 . S
C791 C789 1.387 . S
C791 C793 1.390 . S
C791 H795 0.950 . S
H792 C788 0.950 . S
C793 C791 1.390 . S
C793 C794 1.387 . S
C793 H796 0.950 . S
C794 C793 1.387 . S
C794 C797 1.387 . S
H795 C791 0.950 . S
H796 C793 0.950 . S
C797 C788 1.390 . S
C797 H790 0.950 . S
C797 C794 1.387 . S
C798 C799 1.387 . S
C798 H802 0.950 . S
C798 C807 1.390 1_455 S
C799 C798 1.387 . S
C799 C801 1.387 . S
H800 C807 0.950 1_556 S
C801 C799 1.387 . S
C801 C803 1.390 1_455 S
C801 H805 0.950 . S
H802 C798 0.950 . S
C803 C801 1.390 1_655 S
C803 C804 1.387 1_554 S
C803 H806 0.950 . S
C804 C803 1.387 1_556 S
C804 C807 1.387 1_556 S
H805 C801 0.950 . S
H806 C803 0.950 . S
C807 C798 1.390 1_655 S
C807 H800 0.950 1_554 S
C807 C804 1.387 1_554 S
C808 C809 1.387 . S
C808 H812 0.950 . S
C808 C817 1.390 . S
C809 C808 1.387 . S
C809 C811 1.387 . S
H810 C817 0.950 . S
C811 C809 1.387 . S
C811 C813 1.390 . S
C811 H815 0.950 . S
H812 C808 0.950 . S
C813 C811 1.390 . S
C813 C814 1.387 . S
C813 H816 0.950 . S
C814 C813 1.387 . S
C814 C817 1.387 . S
H815 C811 0.950 . S
H816 C813 0.950 . S
C817 C808 1.390 . S
C817 H810 0.950 . S
C817 C814 1.387 . S
C818 C819 1.387 . S
C818 H822 0.950 . S
C818 C827 1.390 1_655 S
C819 C818 1.387 . S
C819 C821 1.387 . S
H820 C827 0.950 . S
C821 C819 1.387 . S
C821 C823 1.390 1_655 S
C821 H825 0.950 . S
H822 C818 0.950 . S
C823 C821 1.390 1_455 S
C823 C824 1.387 . S
C823 H826 0.950 . S
C824 C823 1.387 . S
C824 C827 1.387 . S
H825 C821 0.950 . S
H826 C823 0.950 . S
C827 C818 1.390 1_455 S
C827 H820 0.950 . S
C827 C824 1.387 . S
C828 C829 1.387 . S
C828 H832 0.950 . S
C828 C837 1.390 . S
C829 C828 1.387 . S
C829 C831 1.387 . S
H830 C837 0.950 . S
C831 C829 1.387 . S
C831 C833 1.390 . S
C831 H835 0.950 . S
H832 C828 0.950 . S
C833 C831 1.390 . S
C833 C834 1.387 . S
C833 H836 0.950 . S
C834 C833 1.387 . S
C834 C837 1.387 . S
H835 C831 0.950 . S
H836 C833 0.950 . S
C837 C828 1.390 . S
C837 H830 0.950 . S
C837 C834 1.387 . S
C838 C839 1.387 1_556 S
C838 H842 0.950 . S
C838 C847 1.390 . S
C839 C838 1.387 1_554 S
C839 C841 1.387 1_554 S
H840 C847 0.950 . S
C841 C839 1.387 1_556 S
C841 C843 1.390 . S
C841 H845 0.950 1_556 S
H842 C838 0.950 . S
C843 C841 1.390 . S
C843 C844 1.387 . S
C843 H846 0.950 . S
C844 C843 1.387 . S
C844 C847 1.387 . S
H845 C841 0.950 1_554 S
H846 C843 0.950 . S
C847 C838 1.390 . S
C847 H840 0.950 . S
C847 C844 1.387 . S
C848 C849 1.387 . S
C848 H852 0.950 . S
C848 C857 1.390 . S
C849 C848 1.387 . S
C849 C851 1.387 . S
H850 C857 0.950 . S
C851 C849 1.387 . S
C851 C853 1.390 . S
C851 H855 0.950 . S
H852 C848 0.950 . S
C853 C851 1.390 . S
C853 C854 1.387 . S
C853 H856 0.950 . S
C854 C853 1.387 . S
C854 C857 1.387 . S
H855 C851 0.950 . S
H856 C853 0.950 . S
C857 C848 1.390 . S
C857 H850 0.950 . S
C857 C854 1.387 . S
C858 C859 1.387 . S
C858 H862 0.950 . S
C858 C867 1.390 . S
C859 C858 1.387 . S
C859 C861 1.387 . S
H860 C867 0.950 . S
C861 C859 1.387 . S
C861 C863 1.390 . S
C861 H865 0.950 . S
H862 C858 0.950 . S
C863 C861 1.390 . S
C863 C864 1.387 . S
C863 H866 0.950 . S
C864 C863 1.387 . S
C864 C867 1.387 . S
H865 C861 0.950 . S
H866 C863 0.950 . S
C867 C858 1.390 . S
C867 H860 0.950 . S
C867 C864 1.387 . S
C868 C869 1.387 . S
C868 H872 0.950 . S
C868 C877 1.390 . S
C869 C868 1.387 . S
C869 C871 1.387 . S
H870 C877 0.950 . S
C871 C869 1.387 . S
C871 C873 1.390 . S
C871 H875 0.950 . S
H872 C868 0.950 . S
C873 C871 1.390 . S
C873 C874 1.387 . S
C873 H876 0.950 . S
C874 C873 1.387 . S
C874 C877 1.387 . S
H875 C871 0.950 . S
H876 C873 0.950 . S
C877 C868 1.390 . S
C877 H870 0.950 . S
C877 C874 1.387 . S
C878 C879 1.387 . S
C878 H882 0.950 . S
C878 C887 1.390 1_655 S
C879 C878 1.387 . S
C879 C881 1.387 . S
H880 C887 0.950 . S
C881 C879 1.387 . S
C881 C883 1.409 . S
C881 H885 0.950 . S
H882 C878 0.950 . S
C883 C881 1.409 . S
C883 C884 1.371 1_656 S
C883 H886 0.950 1_556 S
C884 C883 1.371 1_454 S
C884 C887 1.387 1_554 S
H885 C881 0.950 . S
H886 C883 0.950 1_554 S
C887 C878 1.390 1_455 S
C887 H880 0.950 . S
C887 C884 1.387 1_556 S
C888 C889 1.387 . S
C888 H892 0.950 . S
C888 C897 1.390 . S
C889 C888 1.387 . S
C889 C891 1.387 . S
H890 C897 0.950 . S
C891 C889 1.387 . S
C891 C893 1.390 . S
C891 H895 0.950 . S
H892 C888 0.950 . S
C893 C891 1.390 . S
C893 C894 1.387 . S
C893 H896 0.950 . S
C894 C893 1.387 . S
C894 C897 1.387 . S
H895 C891 0.950 . S
H896 C893 0.950 . S
C897 C888 1.390 . S
C897 H890 0.950 . S
C897 C894 1.387 . S
C898 C899 1.387 . S
C898 H902 0.950 . S
C898 C907 1.390 1_655 S
C899 C898 1.387 . S
C899 C901 1.387 . S
H900 C907 0.950 . S
C901 C899 1.387 . S
C901 C903 1.390 1_655 S
C901 H905 0.950 . S
H902 C898 0.950 . S
C903 C901 1.390 1_455 S
C903 C904 1.387 . S
C903 H906 0.950 . S
C904 C903 1.387 . S
C904 C907 1.387 . S
H905 C901 0.950 . S
H906 C903 0.950 . S
C907 C898 1.390 1_455 S
C907 H900 0.950 . S
C907 C904 1.387 . S
C908 C909 1.387 . S
C908 H912 0.950 . S
C908 C917 1.390 . S
C909 C908 1.387 . S
C909 C911 1.387 . S
H910 C917 0.950 . S
C911 C909 1.387 . S
C911 C913 1.390 . S
C911 H915 0.950 . S
H912 C908 0.950 . S
C913 C911 1.390 . S
C913 C914 1.387 . S
C913 H916 0.950 . S
C914 C913 1.387 . S
C914 C917 1.387 . S
H915 C911 0.950 . S
H916 C913 0.950 . S
C917 C908 1.390 . S
C917 H910 0.950 . S
C917 C914 1.387 . S
C918 C919 1.387 . S
C918 H922 0.950 . S
C918 C927 1.390 . S
C919 C918 1.387 . S
C919 C921 1.387 . S
H920 C927 0.950 1_556 S
C921 C919 1.387 . S
C921 C923 1.390 . S
C921 H925 0.950 . S
H922 C918 0.950 . S
C923 C921 1.390 . S
C923 C924 1.387 1_554 S
C923 H926 0.950 . S
C924 C923 1.387 1_556 S
C924 C927 1.387 1_556 S
H925 C921 0.950 . S
H926 C923 0.950 . S
C927 C918 1.390 . S
C927 H920 0.950 1_554 S
C927 C924 1.387 1_554 S
C928 C929 1.387 . S
C928 H932 0.950 . S
C928 C937 1.390 . S
C929 C928 1.387 . S
C929 C931 1.387 . S
H930 C937 0.950 . S
C931 C929 1.387 . S
C931 C933 1.390 . S
C931 H935 0.950 . S
H932 C928 0.950 . S
C933 C931 1.390 . S
C933 C934 1.387 . S
C933 H936 0.950 . S
C934 C933 1.387 . S
C934 C937 1.387 . S
H935 C931 0.950 . S
H936 C933 0.950 . S
C937 C928 1.390 . S
C937 H930 0.950 . S
C937 C934 1.387 . S
C938 C939 1.387 . S
C938 H942 0.950 . S
C938 C947 1.390 . S
C939 C938 1.387 . S
C939 C941 1.387 . S
H940 C947 0.950 . S
C941 C939 1.387 . S
C941 C943 1.390 . S
C941 H945 0.950 . S
H942 C938 0.950 . S
C943 C941 1.390 . S
C943 C944 1.387 . S
C943 H946 0.950 . S
C944 C943 1.387 . S
C944 C947 1.387 . S
H945 C941 0.950 . S
H946 C943 0.950 . S
C947 C938 1.390 . S
C947 H940 0.950 . S
C947 C944 1.387 . S
C948 C949 1.387 . S
C948 H952 0.950 . S
C948 C957 1.390 . S
C949 C948 1.387 . S
C949 C951 1.387 . S
H950 C957 0.950 . S
C951 C949 1.387 . S
C951 C953 1.390 . S
C951 H955 0.950 . S
H952 C948 0.950 . S
C953 C951 1.390 . S
C953 C954 1.387 . S
C953 H956 0.950 . S
C954 C953 1.387 . S
C954 C957 1.387 . S
H955 C951 0.950 . S
H956 C953 0.950 . S
C957 C948 1.390 . S
C957 H950 0.950 . S
C957 C954 1.387 . S
C958 C959 1.387 . S
C958 H962 0.950 . S
C958 C967 1.390 . S
C959 C958 1.387 . S
C959 C961 1.387 . S
H960 C967 0.950 . S
C961 C959 1.387 . S
C961 C963 1.390 . S
C961 H965 0.950 . S
H962 C958 0.950 . S
C963 C961 1.390 . S
C963 C964 1.387 . S
C963 H966 0.950 . S
C964 C963 1.387 . S
C964 C967 1.387 . S
H965 C961 0.950 . S
H966 C963 0.950 . S
C967 C958 1.390 . S
C967 H960 0.950 . S
C967 C964 1.387 . S
C968 C969 1.387 . S
C968 H972 0.950 . S
C968 C977 1.390 . S
C969 C968 1.387 . S
C969 C971 1.387 . S
H970 C977 0.950 . S
C971 C969 1.387 . S
C971 C973 1.390 . S
C971 H975 0.950 . S
H972 C968 0.950 . S
C973 C971 1.390 . S
C973 C974 1.387 . S
C973 H976 0.950 . S
C974 C973 1.387 . S
C974 C977 1.387 . S
H975 C971 0.950 . S
H976 C973 0.950 . S
C977 C968 1.390 . S
C977 H970 0.950 . S
C977 C974 1.387 . S
C978 C979 1.387 . S
C978 H982 0.950 . S
C978 C987 1.390 . S
C979 C978 1.387 . S
C979 C981 1.387 . S
H980 C987 0.950 . S
C981 C979 1.387 . S
C981 C983 1.390 . S
C981 H985 0.950 . S
H982 C978 0.950 . S
C983 C981 1.390 . S
C983 C984 1.387 . S
C983 H986 0.950 . S
C984 C983 1.387 . S
C984 C987 1.387 . S
H985 C981 0.950 . S
H986 C983 0.950 . S
C987 C978 1.390 . S
C987 H980 0.950 . S
C987 C984 1.387 . S
C988 C989 1.387 . S
C988 H992 0.950 . S
C988 C997 1.390 . S
C989 C988 1.387 . S
C989 C991 1.387 . S
H990 C997 0.950 . S
C991 C989 1.387 . S
C991 C993 1.390 . S
C991 H995 0.950 . S
H992 C988 0.950 . S
C993 C991 1.390 . S
C993 C994 1.387 . S
C993 H996 0.950 . S
C994 C993 1.387 . S
C994 C997 1.387 . S
H995 C991 0.950 . S
H996 C993 0.950 . S
C997 C988 1.390 . S
C997 H990 0.950 . S
C997 C994 1.387 . S
C998 C999 1.387 . S
C998 H1002 0.950 . S
C998 C1007 1.390 . S
C999 C998 1.387 . S
C999 C1001 1.387 . S
H1000 C1007 0.950 . S
C1001 C999 1.387 . S
C1001 C1003 1.390 . S
C1001 H1005 0.950 . S
H1002 C998 0.950 . S
C1003 C1001 1.390 . S
C1003 C1004 1.387 . S
C1003 H1006 0.950 . S
C1004 C1003 1.387 . S
C1004 C1007 1.387 . S
H1005 C1001 0.950 . S
H1006 C1003 0.950 . S
C1007 C998 1.390 . S
C1007 H1000 0.950 . S
C1007 C1004 1.387 . S
C1008 C1009 1.387 . S
C1008 H1012 0.950 . S
C1008 C1017 1.390 . S
C1009 C1008 1.387 . S
C1009 C1011 1.387 . S
H1010 C1017 0.950 . S
C1011 C1009 1.387 . S
C1011 C1013 1.390 . S
C1011 H1015 0.950 . S
H1012 C1008 0.950 . S
C1013 C1011 1.390 . S
C1013 C1014 1.387 . S
C1013 H1016 0.950 . S
C1014 C1013 1.387 . S
C1014 C1017 1.387 . S
H1015 C1011 0.950 . S
H1016 C1013 0.950 . S
C1017 C1008 1.390 . S
C1017 H1010 0.950 . S
C1017 C1014 1.387 . S
C1018 C1019 1.387 . S
C1018 H1022 0.950 . S
C1018 C1027 1.390 . S
C1019 C1018 1.387 . S
C1019 C1021 1.387 . S
H1020 C1027 0.950 . S
C1021 C1019 1.387 . S
C1021 C1023 1.390 . S
C1021 H1025 0.950 . S
H1022 C1018 0.950 . S
C1023 C1021 1.390 . S
C1023 C1024 1.387 . S
C1023 H1026 0.950 . S
C1024 C1023 1.387 . S
C1024 C1027 1.387 . S
H1025 C1021 0.950 . S
H1026 C1023 0.950 . S
C1027 C1018 1.390 . S
C1027 H1020 0.950 . S
C1027 C1024 1.387 . S
C1028 C1029 1.387 . S
C1028 H1032 0.950 . S
C1028 C1037 1.390 . S
C1029 C1028 1.387 . S
C1029 C1031 1.387 . S
H1030 C1037 0.950 . S
C1031 C1029 1.387 . S
C1031 C1033 1.390 . S
C1031 H1035 0.950 . S
H1032 C1028 0.950 . S
C1033 C1031 1.390 . S
C1033 C1034 1.387 . S
C1033 H1036 0.950 . S
C1034 C1033 1.387 . S
C1034 C1037 1.387 . S
H1035 C1031 0.950 . S
H1036 C1033 0.950 . S
C1037 C1028 1.390 . S
C1037 H1030 0.950 . S
C1037 C1034 1.387 . S
C1038 C1039 1.387 . S
C1038 H1042 0.950 . S
C1038 C1047 1.390 . S
C1039 C1038 1.387 . S
C1039 C1041 1.387 . S
H1040 C1047 0.950 . S
C1041 C1039 1.387 . S
C1041 C1043 1.390 . S
C1041 H1045 0.950 . S
H1042 C1038 0.950 . S
C1043 C1041 1.390 . S
C1043 C1044 1.387 . S
C1043 H1046 0.950 . S
C1044 C1043 1.387 . S
C1044 C1047 1.387 . S
H1045 C1041 0.950 . S
H1046 C1043 0.950 . S
C1047 C1038 1.390 . S
C1047 H1040 0.950 . S
C1047 C1044 1.387 . S
C1048 C1049 1.387 . S
C1048 H1052 0.950 . S
C1048 C1057 1.390 . S
C1049 C1048 1.387 . S
C1049 C1051 1.387 . S
H1050 C1057 0.950 . S
C1051 C1049 1.387 . S
C1051 C1053 1.390 . S
C1051 H1055 0.950 . S
H1052 C1048 0.950 . S
C1053 C1051 1.390 . S
C1053 C1054 1.387 . S
C1053 H1056 0.950 . S
C1054 C1053 1.387 . S
C1054 C1057 1.387 . S
H1055 C1051 0.950 . S
H1056 C1053 0.950 . S
C1057 C1048 1.390 . S
C1057 H1050 0.950 . S
C1057 C1054 1.387 . S
C1058 C1059 1.387 . S
C1058 H1062 0.950 . S
C1058 C1067 1.390 . S
C1059 C1058 1.387 . S
C1059 C1061 1.387 . S
H1060 C1067 0.950 . S
C1061 C1059 1.387 . S
C1061 C1063 1.390 . S
C1061 H1065 0.950 . S
H1062 C1058 0.950 . S
C1063 C1061 1.390 . S
C1063 C1064 1.387 . S
C1063 H1066 0.950 . S
C1064 C1063 1.387 . S
C1064 C1067 1.387 . S
H1065 C1061 0.950 . S
H1066 C1063 0.950 . S
C1067 C1058 1.390 . S
C1067 H1060 0.950 . S
C1067 C1064 1.387 . S
C1068 C1069 1.387 . S
C1068 H1072 0.950 . S
C1068 C1077 1.390 . S
C1069 C1068 1.387 . S
C1069 C1071 1.387 . S
H1070 C1077 0.950 . S
C1071 C1069 1.387 . S
C1071 C1073 1.390 . S
C1071 H1075 0.950 . S
H1072 C1068 0.950 . S
C1073 C1071 1.390 . S
C1073 C1074 1.387 . S
C1073 H1076 0.950 . S
C1074 C1073 1.387 . S
C1074 C1077 1.387 . S
H1075 C1071 0.950 . S
H1076 C1073 0.950 . S
C1077 C1068 1.390 . S
C1077 H1070 0.950 . S
C1077 C1074 1.387 . S
C1078 C1079 1.387 . S
C1078 H1082 0.950 . S
C1078 C1087 1.390 . S
C1079 C1078 1.387 . S
C1079 C1081 1.387 . S
H1080 C1087 0.950 . S
C1081 C1079 1.387 . S
C1081 C1083 1.390 . S
C1081 H1085 0.950 . S
H1082 C1078 0.950 . S
C1083 C1081 1.390 . S
C1083 C1084 1.387 . S
C1083 H1086 0.950 . S
C1084 C1083 1.387 . S
C1084 C1087 1.387 . S
H1085 C1081 0.950 . S
H1086 C1083 0.950 . S
C1087 C1078 1.390 . S
C1087 H1080 0.950 . S
C1087 C1084 1.387 . S
C449 C93 1.481 . S
C454 C9 1.481 . S
C459 C23 1.482 . S
C464 C107 1.482 . S
C469 C65 1.482 . S
C474 C37 1.482 . S
C479 C51 1.481 . S
C484 C79 1.481 . S
C489 C205 1.481 . S
C494 C121 1.481 . S
C499 C219 1.480 . S
C504 C135 1.480 . S
C509 C149 1.481 . S
C514 C177 1.481 . S
C519 C163 1.482 . S
C524 C191 1.482 . S
C529 C233 1.482 . S
C534 C317 1.482 . S
C539 C247 1.481 . S
C544 C331 1.481 . S
C549 C289 1.482 . S
C554 C261 1.482 . S
C559 C303 1.481 . S
C564 C275 1.481 . S
C569 C345 1.482 . S
C574 C429 1.482 . S
C579 C443 1.480 . S
C584 C359 1.480 . S
C589 C401 1.481 . S
C594 C373 1.481 . S
C599 C387 1.480 . S
C604 C415 1.480 . S
C609 C3 1.318 . S
C614 C427 1.331 . S
C619 C217 1.331 . S
C624 C17 1.318 . S
C629 C31 1.320 . S
C634 C399 1.330 . S
C639 C45 1.319 . S
C644 C189 1.330 . S
C649 C371 1.330 . S
C654 C59 1.319 . S
C659 C161 1.331 . S
C664 C73 1.319 . S
C669 C87 1.318 . S
C674 C343 1.332 . S
C679 C133 1.330 . S
C684 C101 1.319 . S
C689 C115 1.318 . S
C694 C315 1.331 . S
C699 C105 1.330 . S
C704 C129 1.319 . S
C709 C143 1.320 . S
C714 C287 1.330 . S
C719 C157 1.319 . S
C724 C77 1.330 . S
C729 C259 1.330 . S
C734 C171 1.320 . S
C739 C185 1.318 . S
C744 C49 1.332 . S
C749 C199 1.318 . S
C754 C231 1.331 . S
C759 C21 1.330 . S
C764 C213 1.319 . S
C769 C227 1.319 . S
C774 C203 1.330 . S
C779 C241 1.318 . S
C784 C441 1.332 . S
C789 C175 1.331 . S
C794 C255 1.318 . S
C799 C269 1.319 . S
C804 C413 1.330 . S
C809 C147 1.330 . S
C814 C283 1.320 . S
C819 C385 1.332 . S
C824 C297 1.318 . S
C829 C119 1.331 . S
C834 C311 1.317 . S
C839 C357 1.332 . S
C844 C325 1.318 . S
C849 C339 1.319 . S
C854 C91 1.330 . S
C859 C329 1.331 . S
C864 C353 1.317 . S
C869 C63 1.330 . S
C874 C367 1.318 . S
C879 C381 1.319 . S
C884 C301 1.330 . S
C889 C395 1.319 . S
C894 C35 1.331 . S
C899 C409 1.318 . S
C904 C273 1.332 . S
C909 C7 1.331 . S
C914 C423 1.320 . S
C919 C437 1.318 . S
C924 C245 1.332 . S
C929 C8 1.460 . S
C934 C302 1.461 . S
C939 C316 1.461 . S
C944 C22 1.460 . S
C949 C36 1.461 . S
C954 C330 1.461 . S
C959 C288 1.460 . S
C964 C50 1.461 . S
C969 C274 1.461 . S
C974 C64 1.461 . S
C979 C232 1.461 . S
C984 C78 1.461 . S
C989 C246 1.461 . S
C994 C92 1.461 . S
C999 C260 1.460 . S
C1004 C106 1.460 . S
C1009 C120 1.461 . S
C1014 C414 1.460 . S
C1019 C428 1.461 . S
C1024 C134 1.461 . S
C1029 C442 1.461 . S
C1034 C148 1.460 . S
C1039 C400 1.460 . S
C1044 C162 1.461 . S
C1049 C386 1.461 . S
C1054 C176 1.461 . S
C1059 C344 1.460 . S
C1064 C190 1.461 . S
C1069 C204 1.460 . S
C1074 C358 1.461 . S
C1079 C218 1.460 . S
C1084 C372 1.461 . S
