# Generated by pormake.
# Topology snp, (6)-cn, num edge types: 1
# Building blocks:
#     Node 0, Type 0, BuildingBlock: KUMJIN_clean_sbu_1, # of connection points: 6
#     Node 1, Type 0, BuildingBlock: KUMJIN_clean_sbu_1, # of connection points: 6
#     Node 2, Type 0, BuildingBlock: KUMJIN_clean_sbu_1, # of connection points: 6
#     Node 3, Type 0, BuildingBlock: KUMJIN_clean_sbu_1, # of connection points: 6
#     Edge 4, Type (0, 0), BuildingBlock: MIFKUJ_clean_linker_0, # of connection points: 2
#     Edge 5, Type (0, 0), BuildingBlock: MIFKUJ_clean_linker_0, # of connection points: 2
#     Edge 6, Type (0, 0), BuildingBlock: MIFKUJ_clean_linker_0, # of connection points: 2
#     Edge 7, Type (0, 0), BuildingBlock: MIFKUJ_clean_linker_0, # of connection points: 2
#     Edge 8, Type (0, 0), BuildingBlock: MIFKUJ_clean_linker_0, # of connection points: 2
#     Edge 9, Type (0, 0), BuildingBlock: MIFKUJ_clean_linker_0, # of connection points: 2
#     Edge 10, Type (0, 0), BuildingBlock: MIFKUJ_clean_linker_0, # of connection points: 2
#     Edge 11, Type (0, 0), BuildingBlock: MIFKUJ_clean_linker_0, # of connection points: 2
#     Edge 12, Type (0, 0), BuildingBlock: MIFKUJ_clean_linker_0, # of connection points: 2
#     Edge 13, Type (0, 0), BuildingBlock: MIFKUJ_clean_linker_0, # of connection points: 2
#     Edge 14, Type (0, 0), BuildingBlock: MIFKUJ_clean_linker_0, # of connection points: 2
#     Edge 15, Type (0, 0), BuildingBlock: MIFKUJ_clean_linker_0, # of connection points: 2
# Relax obj value: 0.196
# Max RMSD: 0.234
# Mean RMSD: 0.234
data_MOF--net-snp--node1-KUMJIN_clean_sbu_1--edge1-MIFKUJ_clean_linker_0
_symmetry_space_group_name_H-M    P1
_symmetry_Int_Tables_number       1
_symmetry_cell_setting            triclinic
loop_
_symmetry_equiv_pos_as_xyz
'x, y, z'
_cell_length_a     32.270589
_cell_length_b     32.376956
_cell_length_c     42.063351
_cell_angle_alpha  109.26485
_cell_angle_beta   70.767913
_cell_angle_gamma 156.25916
loop_
_atom_site_label
_atom_site_type_symbol
_atom_site_fract_x
_atom_site_fract_y
_atom_site_fract_z
_atom_type_partial_charge
Eu0 Eu 0.90501 0.69635 0.07702 0.0
C1 C 0.42716 0.20187 0.08416 0.0
N2 N 0.47318 0.2788 0.10533 0.0
C3 C 0.32776 0.192 0.10605 0.0
C4 C 0.33404 0.12196 0.07043 0.0
C5 C 0.42297 0.27277 0.11759 0.0
C6 C 0.28475 0.11819 0.08142 0.0
C7 C 0.4245 0.12103 0.056 0.0
C8 C 0.47104 0.20068 0.0774 0.0
C9 C 0.33728 0.04681 0.03962 0.0
C10 C 0.29125 0.04644 0.0473 0.0
Eu11 Eu 0.6387 0.416 0.12047 0.0
N12 N 0.55632 0.27461 0.09321 0.0
C13 C 0.46426 0.11589 0.05302 0.0
C14 C 0.58961 0.26493 0.09286 0.0
C15 C 0.54524 0.18638 0.07236 0.0
H16 H 0.45728 0.33118 0.13602 0.0
H17 H 0.57362 0.18044 0.07139 0.0
H18 H 0.07275 0.76277 0.05914 0.0
H19 H 0.9429 0.89925 0.16043 0.0
H20 H 0.65119 0.31874 0.10802 0.0
H21 H 0.43009 0.05526 0.0371 0.0
H22 H 0.86758 0.77103 0.11582 0.0
H23 H 0.28759 0.18668 0.11634 0.0
H24 H 0.30116 0.98577 0.02263 0.0
H25 H 0.22011 0.98501 0.03654 0.0
H26 H 0.22648 0.88358 0.08285 0.0
H27 H 0.21136 0.0561 0.07222 0.0
H28 H 0.10443 0.03366 0.18359 0.0
N29 N 0.0653 0.82214 0.09204 0.0
C30 C 0.11341 0.89793 0.11573 0.0
C31 C 0.19473 0.88766 0.09259 0.0
C32 C 0.20291 0.96997 0.12947 0.0
C33 C 0.10704 0.81881 0.07937 0.0
C34 C 0.24242 0.96306 0.11792 0.0
N35 N 0.98376 0.82998 0.11406 0.0
C36 C 0.93888 0.8299 0.1252 0.0
C37 C 0.11862 0.97851 0.15208 0.0
C38 C 0.07244 0.90294 0.1267 0.0
C39 C 0.07214 0.97785 0.16382 0.0
C40 C 0.98138 0.9026 0.15056 0.0
H41 H 0.31097 0.01692 0.12784 0.0
H42 H 0.31885 0.10226 0.16504 0.0
H43 H 0.24429 0.10892 0.18512 0.0
O44 O 0.90261 0.73165 0.04168 0.0
O45 O 0.88285 0.69667 0.13517 0.0
O46 O 0.7066 0.54459 0.14612 0.0
O47 O 0.01709 0.78353 0.03282 0.0
O48 O 0.76775 0.61781 0.09108 0.0
O49 O 0.62076 0.44264 0.08891 0.0
O50 O 0.61675 0.36541 0.1608 0.0
O51 O 0.68733 0.41506 0.06801 0.0
O52 O 0.78103 0.54497 0.04371 0.0
O53 O 0.543 0.36096 0.16496 0.0
O54 O 0.8041 0.54876 0.12541 0.0
O55 O 0.89174 0.61337 0.07433 0.0
C56 C 0.80083 0.63791 0.15595 0.0
C57 C 0.01665 0.81935 0.98962 0.0
C58 C 0.00191 0.8372 0.94386 0.0
C59 C 0.10034 0.90965 0.93038 0.0
C60 C 0.11352 0.88976 0.97456 0.0
C61 C 0.15459 0.93404 0.94523 0.0
C62 C 0.95842 0.78903 0.97296 0.0
C63 C 0.67227 0.52183 0.08362 0.0
C64 C 0.97604 0.77464 0.02135 0.0
C65 C 0.24993 0.04621 0.15434 0.0
C66 C 0.20769 0.05024 0.1657 0.0
C67 C 0.71581 0.4537 0.04217 0.0
C68 C 0.50599 0.30362 0.21218 0.0
C69 C 0.45042 0.22629 0.25769 0.0
C70 C 0.40693 0.2279 0.27608 0.0
C71 C 0.46268 0.3056 0.23108 0.0
C72 C 0.49987 0.26378 0.22562 0.0
C73 C 0.41412 0.26851 0.26296 0.0
C74 C 0.85967 0.57194 0.10013 0.0
C75 C 0.55546 0.34226 0.17854 0.0
H76 H 0.13543 0.94765 0.90824 0.0
H77 H 0.15772 0.91024 0.98517 0.0
H78 H 0.22956 0.98849 0.93417 0.0
H79 H 0.8806 0.72947 0.98278 0.0
H80 H 0.3681 0.19822 0.30075 0.0
H81 H 0.46656 0.33623 0.22135 0.0
H82 H 0.53311 0.26206 0.21144 0.0
H83 H 0.38223 0.27144 0.27755 0.0
Eu84 Eu 0.67819 0.87658 0.60655 0.0
C85 C 0.21529 0.4316 0.60315 0.0
N86 N 0.29387 0.47981 0.58154 0.0
C87 C 0.22967 0.35559 0.58968 0.0
C88 C 0.147 0.34936 0.62106 0.0
C89 C 0.2942 0.43554 0.5723 0.0
C90 C 0.15796 0.31454 0.61499 0.0
C91 C 0.10477 0.39611 0.62245 0.0
C92 C 0.19384 0.45437 0.60389 0.0
C93 C 0.0429 0.32127 0.64269 0.0
C94 C 0.0641 0.29802 0.64205 0.0
Eu95 Eu 0.40075 0.6177 0.55426 0.0
N96 N 0.2564 0.5292 0.58475 0.0
C97 C 0.0767 0.41001 0.61833 0.0
C98 C 0.22653 0.5394 0.57947 0.0
C99 C 0.13511 0.47821 0.59545 0.0
H100 H 0.33758 0.45529 0.54989 0.0
H101 H 0.10989 0.48401 0.59021 0.0
H102 H 0.76392 0.0552 0.60452 0.0
H103 H 0.86868 0.8911 0.55778 0.0
H104 H 0.271 0.59194 0.56198 0.0
H105 H 0.00712 0.36444 0.63124 0.0
H106 H 0.7346 0.82264 0.58927 0.0
H107 H 0.22993 0.3206 0.58178 0.0
H108 H 0.97512 0.27691 0.65744 0.0
H109 H 0.01205 0.23574 0.65621 0.0
H110 H 0.90645 0.2126 0.57683 0.0
H111 H 0.10558 0.2502 0.62756 0.0
H112 H 0.02752 0.06012 0.53316 0.0
N113 N 0.81781 0.03767 0.58558 0.0
C114 C 0.89849 0.08372 0.56925 0.0
C115 C 0.90483 0.17678 0.57434 0.0
C116 C 0.98459 0.17747 0.55446 0.0
C117 C 0.82238 0.08544 0.58953 0.0
C118 C 0.98611 0.22285 0.55662 0.0
N119 N 0.8091 0.94382 0.57981 0.0
C120 C 0.80103 0.89378 0.57768 0.0
C121 C 0.97582 0.08085 0.54941 0.0
C122 C 0.89476 0.03639 0.56678 0.0
C123 C 0.96715 0.02874 0.54648 0.0
C124 C 0.87866 0.93421 0.56049 0.0
H125 H 0.05042 0.29428 0.54521 0.0
H126 H 0.13522 0.29737 0.52822 0.0
H127 H 0.12543 0.21064 0.52197 0.0
O128 O 0.72277 0.88515 0.64328 0.0
O129 O 0.70152 0.86601 0.54782 0.0
O130 O 0.54992 0.73135 0.52061 0.0
O131 O 0.72675 0.95948 0.65656 0.0
O132 O 0.5578 0.71489 0.59788 0.0
O133 O 0.48437 0.63014 0.54765 0.0
O134 O 0.35224 0.60224 0.51625 0.0
O135 O 0.39521 0.65845 0.60814 0.0
O136 O 0.50798 0.71756 0.62018 0.0
O137 O 0.303 0.49243 0.51597 0.0
O138 O 0.53971 0.78834 0.55783 0.0
O139 O 0.60914 0.88015 0.60829 0.0
C140 C 0.64976 0.81295 0.52034 0.0
C141 C 0.77802 0.97661 0.70051 0.0
C142 C 0.81352 0.98182 0.74817 0.0
C143 C 0.86503 0.06816 0.76273 0.0
C144 C 0.82916 0.06175 0.71698 0.0
C145 C 0.87227 0.1069 0.74746 0.0
C146 C 0.7694 0.93563 0.71646 0.0
C147 C 0.54162 0.67138 0.56842 0.0
C148 C 0.7408 0.93842 0.6663 0.0
C149 C 0.06642 0.22303 0.53797 0.0
C150 C 0.06165 0.17443 0.53503 0.0
C151 C 0.44526 0.69444 0.63072 0.0
C152 C 0.23191 0.4527 0.47437 0.0
C153 C 0.17037 0.42027 0.43004 0.0
C154 C 0.101 0.32238 0.42222 0.0
C155 C 0.16129 0.35399 0.4663 0.0
C156 C 0.23675 0.48614 0.4559 0.0
C157 C 0.09678 0.28961 0.44029 0.0
C158 C 0.55789 0.83924 0.58388 0.0
C159 C 0.29639 0.51731 0.5028 0.0
H160 H 0.90379 0.10921 0.78571 0.0
H161 H 0.83869 0.09603 0.70575 0.0
H162 H 0.91368 0.17424 0.75911 0.0
H163 H 0.73067 0.87023 0.70412 0.0
H164 H 0.05089 0.27176 0.40176 0.0
H165 H 0.15619 0.32624 0.4797 0.0
H166 H 0.29071 0.56194 0.46165 0.0
H167 H 0.04364 0.21434 0.43412 0.0
Eu168 Eu 0.88833 0.11572 0.04921 0.0
C169 C 0.40666 0.61463 0.05787 0.0
N170 N 0.45108 0.68871 0.08145 0.0
C171 C 0.31255 0.61097 0.08103 0.0
C172 C 0.31383 0.53676 0.04459 0.0
C173 C 0.40288 0.68489 0.09429 0.0
C174 C 0.26825 0.53712 0.05591 0.0
C175 C 0.40616 0.53687 0.02387 0.0
C176 C 0.45287 0.61504 0.04715 0.0
C177 C 0.31421 0.46 0.01057 0.0
C178 C 0.26885 0.4606 0.02066 0.0
Eu179 Eu 0.6138 0.81902 0.09578 0.0
N180 N 0.54406 0.6924 0.05921 0.0
C181 C 0.45382 0.5388 0.01442 0.0
C182 C 0.5892 0.69309 0.05122 0.0
C183 C 0.54565 0.61718 0.0282 0.0
H184 H 0.43322 0.73835 0.11474 0.0
H185 H 0.58306 0.61935 0.02098 0.0
H186 H 0.08175 0.22331 0.05515 0.0
H187 H 0.88629 0.29272 0.0933 0.0
H188 H 0.66005 0.7538 0.06203 0.0
H189 H 0.42039 0.48021 0.99655 0.0
H190 H 0.83547 0.17227 0.05796 0.0
H191 H 0.27597 0.60979 0.09066 0.0
H192 H 0.27755 0.39974 0.99245 0.0
H193 H 0.19819 0.40103 0.01008 0.0
H194 H 0.23377 0.36581 0.0871 0.0
H195 H 0.19723 0.47891 0.04616 0.0
H196 H 0.01829 0.42124 0.13397 0.0
N197 N 0.03894 0.25196 0.07838 0.0
C198 C 0.06917 0.31904 0.09891 0.0
C199 C 0.18633 0.35159 0.09141 0.0
C200 C 0.15515 0.40067 0.11838 0.0
C201 C 0.09875 0.26978 0.07343 0.0
C202 C 0.21335 0.41588 0.11456 0.0
N203 N 0.93464 0.22996 0.08005 0.0
C204 C 0.89112 0.22651 0.07646 0.0
C205 C 0.04545 0.37625 0.12078 0.0
C206 C 0.01454 0.30664 0.10015 0.0
C207 C -0.00392 0.36854 0.11886 0.0
C208 C 0.92073 0.2953 0.09596 0.0
H209 H 0.28089 0.47874 0.12858 0.0
H210 H 0.24625 0.52759 0.15603 0.0
H211 H 0.15035 0.50646 0.15808 0.0
O212 O 0.94202 0.19858 0.01422 0.0
O213 O 0.87669 0.11134 0.10508 0.0
O214 O 0.70818 0.95835 0.13097 0.0
O215 O -0.00536 0.17992 1.00657 0.0
O216 O 0.71703 0.98007 0.05617 0.0
O217 O 0.61312 0.8918 0.10407 0.0
O218 O 0.67019 0.83684 0.13004 0.0
O219 O 0.65336 0.82515 0.03706 0.0
O220 O 0.73872 0.95762 0.0214 0.0
O221 O 0.51009 0.70775 0.13251 0.0
O222 O 0.76765 0.95291 0.07174 0.0
O223 O 0.91062 0.06514 0.04208 0.0
C224 C 0.8097 0.05619 0.13156 0.0
C225 C 0.97925 0.1855 0.95801 0.0
C226 C 0.98102 0.20773 0.90755 0.0
C227 C 0.96364 0.14817 0.88834 0.0
C228 C 0.96218 0.12624 0.93851 0.0
C229 C 0.95477 0.1081 0.90381 0.0
C230 C 0.98904 0.22636 0.94237 0.0
C231 C 0.66601 0.95819 0.08419 0.0
C232 C 0.99307 0.21049 0.9942 0.0
C233 C 0.18148 0.46557 0.14055 0.0
C234 C 0.12673 0.45338 0.14176 0.0
C235 C 0.69271 0.87715 0.01334 0.0
C236 C 0.56961 0.75817 0.18406 0.0
C237 C 0.55697 0.72591 0.2365 0.0
C238 C 0.50203 0.7155 0.25283 0.0
C239 C 0.51884 0.75169 0.2025 0.0
C240 C 0.59296 0.75001 0.20187 0.0
C241 C 0.48559 0.73058 0.23634 0.0
C242 C 0.83867 0.98796 0.05966 0.0
C243 C 0.58035 0.75552 0.14597 0.0
H244 H 0.96048 0.13564 0.86121 0.0
H245 H 0.95521 0.09441 0.9499 0.0
H246 H 0.94309 0.0637 0.88887 0.0
H247 H 0.00437 0.27388 0.95721 0.0
H248 H 0.46939 0.69363 0.27856 0.0
H249 H 0.50037 0.75832 0.19029 0.0
H250 H 0.63593 0.75921 0.18885 0.0
H251 H 0.44339 0.72236 0.24969 0.0
Eu252 Eu 0.09718 0.88787 0.62669 0.0
C253 C 0.61967 0.42664 0.61513 0.0
N254 N 0.69899 0.4721 0.5968 0.0
C255 C 0.62936 0.3497 0.61381 0.0
C256 C 0.54407 0.34287 0.63429 0.0
C257 C 0.70141 0.43123 0.59463 0.0
C258 C 0.55106 0.30607 0.63402 0.0
C259 C 0.53264 0.41867 0.63329 0.0
C260 C 0.61345 0.46361 0.61472 0.0
C261 C 0.45816 0.33612 0.65265 0.0
C262 C 0.46366 0.29807 0.65297 0.0
Eu263 Eu 0.82713 0.6233 0.5712 0.0
N264 N 0.69027 0.54787 0.59764 0.0
C265 C 0.53085 0.45996 0.63248 0.0
C266 C 0.68757 0.58658 0.59581 0.0
C267 C 0.60893 0.54439 0.61363 0.0
H268 H 0.75753 0.45952 0.578 0.0
H269 H 0.61058 0.57897 0.61327 0.0
H270 H 0.15337 0.04625 0.63519 0.0
H271 H 0.38848 0.02128 0.59416 0.0
H272 H 0.748 0.65197 0.58135 0.0
H273 H 0.47034 0.42796 0.64649 0.0
H274 H 0.21924 0.90301 0.61702 0.0
H275 H 0.63314 0.31923 0.61249 0.0
H276 H 0.39568 0.30072 0.66724 0.0
H277 H 0.40475 0.23316 0.66742 0.0
H278 H 0.27452 0.19575 0.60882 0.0
H279 H 0.49461 0.24201 0.64846 0.0
H280 H 0.50738 0.16091 0.56041 0.0
N281 N 0.21427 0.0384 0.60629 0.0
C282 C 0.3 0.09477 0.58793 0.0
C283 C 0.2787 0.16432 0.60103 0.0
C284 C 0.37239 0.18217 0.57243 0.0
C285 C 0.20868 0.07791 0.61556 0.0
C286 C 0.35796 0.21368 0.57802 0.0
N287 N 0.24766 0.98307 0.60029 0.0
C288 C 0.27135 0.96509 0.60312 0.0
C289 C 0.41194 0.13192 0.56948 0.0
C290 C 0.31926 0.06918 0.58612 0.0
C291 C 0.43511 0.11197 0.57159 0.0
C292 C 0.36687 0.03149 0.58996 0.0
H293 H 0.41257 0.2812 0.56704 0.0
H294 H 0.51513 0.30521 0.54116 0.0
H295 H 0.55022 0.2617 0.53871 0.0
O296 O 0.1632 0.92272 0.66364 0.0
O297 O 0.11885 0.87698 0.56916 0.0
O298 O 0.96806 0.7126 0.54245 0.0
O299 O 0.15941 0.9898 0.67117 0.0
O300 O 0.97358 0.72512 0.62402 0.0
O301 O 0.90652 0.63306 0.57324 0.0
O302 O 0.81713 0.64217 0.52967 0.0
O303 O 0.81291 0.65597 0.62661 0.0
O304 O 0.93555 0.7424 0.65332 0.0
O305 O 0.73152 0.50601 0.52915 0.0
O306 O 0.95063 0.78656 0.57534 0.0
O307 O 0.01278 0.87086 0.62729 0.0
C308 C 0.06862 0.81045 0.54231 0.0
C309 C 0.24229 0.04357 0.71292 0.0
C310 C 0.30039 0.07523 0.75895 0.0
C311 C 0.34467 0.15675 0.77236 0.0
C312 C 0.2862 0.12485 0.72681 0.0
C313 C 0.33778 0.18152 0.75625 0.0
C314 C 0.25003 0.01911 0.72902 0.0
C315 C 0.9602 0.67836 0.59783 0.0
C316 C 0.18907 0.98551 0.68177 0.0
C317 C 0.45985 0.2389 0.55348 0.0
C318 C 0.47999 0.21433 0.5522 0.0
C319 C 0.85409 0.69318 0.65432 0.0
C320 C 0.71193 0.51332 0.48065 0.0
C321 C 0.69277 0.52028 0.43097 0.0
C322 C 0.62256 0.42224 0.41936 0.0
C323 C 0.6411 0.41567 0.46759 0.0
C324 C 0.73888 0.56659 0.46189 0.0
C325 C 0.59748 0.37117 0.43736 0.0
C326 C 0.96215 0.83004 0.603 0.0
C327 C 0.75531 0.55563 0.51355 0.0
H328 H 0.38324 0.20018 0.79563 0.0
H329 H 0.2803 0.1444 0.71503 0.0
H330 H 0.37145 0.24397 0.76682 0.0
H331 H 0.21526 0.9557 0.71891 0.0
H332 H 0.58262 0.38189 0.39681 0.0
H333 H 0.61846 0.37256 0.48089 0.0
H334 H 0.79222 0.64131 0.47174 0.0
H335 H 0.542 0.29522 0.42802 0.0
H336 H 0.8758 0.94039 0.01995 0.0
H337 H 0.01847 0.03168 0.03155 0.0
H338 H 0.98725 0.08324 0.13673 0.0
H339 H 0.8586 0.01062 0.1234 0.0
H340 H 0.1774 0.25735 0.10793 0.0
H341 H 0.95288 0.94181 0.11902 0.0
H342 H 0.78357 0.75867 0.10037 0.0
H343 H 0.91054 0.8296 0.99832 0.0
H344 H 0.08501 0.00904 0.01665 0.0
H345 H 0.60648 0.53468 0.13235 0.0
H346 H 0.43548 0.41085 0.13478 0.0
H347 H 0.41 0.31301 0.02978 0.0
H348 H 0.5797 0.43368 0.02792 0.0
H349 H 0.23652 0.15026 0.06436 0.0
H350 H 0.46746 0.47275 0.05719 0.0
H351 H 0.62702 0.65535 0.07825 0.0
H352 H 0.46584 0.57236 0.17477 0.0
H353 H 0.30985 0.39099 0.15531 0.0
C354 C 0.89445 0.96469 0.04596 0.0
C355 C 0.85499 0.9664 0.07094 0.0
C356 C 0.97634 0.01726 0.05263 0.0
C357 C 0.01091 0.06115 0.08528 0.0
C358 C 0.96004 0.04823 0.11159 0.0
C359 C 0.88287 0.00211 0.10429 0.0
C360 C 0.10804 0.13093 0.09014 0.0
C361 C 0.19054 0.2342 0.09959 0.0
C362 C 0.12332 0.09916 0.07886 0.0
C363 C 0.03324 0.98838 0.06957 0.0
C364 C 0.94677 0.91633 0.09294 0.0
C365 C 0.84989 0.81302 0.08229 0.0
C366 C 0.83763 0.78123 0.04809 0.0
C367 C 0.92261 0.85248 0.02477 0.0
C368 C 0.02121 0.9544 0.03542 0.0
C369 C 0.56671 0.49091 0.10935 0.0
C370 C 0.60588 0.49454 0.07972 0.0
C371 C 0.46827 0.41855 0.1109 0.0
C372 C 0.41096 0.35365 0.0822 0.0
C373 C 0.45382 0.36311 0.05189 0.0
C374 C 0.55121 0.43354 0.05062 0.0
C375 C 0.30726 0.27793 0.08381 0.0
C376 C 0.22371 0.17363 0.07456 0.0
C377 C 0.29067 0.30867 0.09592 0.0
C378 C 0.37723 0.4181 0.10498 0.0
C379 C 0.46619 0.49404 0.08285 0.0
C380 C 0.55677 0.59756 0.09462 0.0
C381 C 0.55739 0.62648 0.1277 0.0
C382 C 0.46695 0.55171 0.14908 0.0
C383 C 0.37728 0.448 0.13782 0.0
H384 H 0.62846 0.70684 0.13642 0.0
H385 H 0.76182 0.70235 0.03953 0.0
H386 H 0.95952 0.90059 0.65799 0.0
H387 H 0.05929 0.05093 0.65476 0.0
H388 H 0.00866 0.96956 0.54823 0.0
H389 H 0.92934 0.83071 0.55073 0.0
H390 H 0.17867 0.11655 0.54485 0.0
H391 H 0.02235 0.11007 0.63489 0.0
H392 H 0.96212 0.10232 0.69174 0.0
H393 H 0.20196 0.27046 0.73463 0.0
H394 H 0.27055 0.28846 0.67738 0.0
H395 H 0.5069 0.57076 0.51303 0.0
H396 H 0.40089 0.41603 0.5183 0.0
H397 H 0.4936 0.52605 0.61998 0.0
H398 H 0.57667 0.66683 0.61703 0.0
H399 H 0.32217 0.3753 0.62826 0.0
H400 H 0.50122 0.42675 0.53742 0.0
H401 H 0.5864 0.48168 0.4813 0.0
H402 H 0.2979 0.21945 0.43758 0.0
H403 H 0.21133 0.16966 0.4946 0.0
C404 C 0.96759 0.91357 0.63395 0.0
C405 C 0.94837 0.86268 0.60399 0.0
C406 C 0.02446 0.00087 0.63206 0.0
C407 C 0.05057 0.02937 0.60041 0.0
C408 C -0.00198 0.9554 0.57263 0.0
C409 C 0.95028 0.87398 0.57398 0.0
C410 C 0.1492 0.13991 0.59377 0.0
C411 C 0.20607 0.17111 0.56278 0.0
C412 C 0.19638 0.2176 0.61805 0.0
C413 C 0.1502 0.19917 0.65212 0.0
C414 C 0.06153 0.14453 0.6565 0.0
C415 C 0.02613 0.13863 0.68885 0.0
C416 C 0.0756 0.18267 0.71707 0.0
C417 C 0.16277 0.23526 0.71287 0.0
C418 C 0.20104 0.24489 0.68046 0.0
C419 C 0.50664 0.56273 0.53614 0.0
C420 C 0.5415 0.6248 0.56534 0.0
C421 C 0.44742 0.47424 0.53902 0.0
C422 C 0.43625 0.45588 0.56996 0.0
C423 C 0.49714 0.53516 0.59607 0.0
C424 C 0.54661 0.61749 0.5943 0.0
C425 C 0.34551 0.34926 0.57817 0.0
C426 C 0.29258 0.31964 0.60994 0.0
C427 C 0.30141 0.27294 0.55443 0.0
C428 C 0.35025 0.29507 0.52033 0.0
C429 C 0.45564 0.38041 0.5159 0.0
C430 C 0.50445 0.41111 0.48365 0.0
C431 C 0.44817 0.35338 0.45529 0.0
C432 C 0.34188 0.26447 0.4594 0.0
C433 C 0.29295 0.23576 0.4918 0.0
H434 H 0.48651 0.37766 0.43021 0.0
H435 H 0.0475 0.17747 0.74212 0.0
H436 H 0.67581 0.03779 0.14107 0.0
H437 H 0.68897 0.12626 0.14331 0.0
H438 H 0.62672 0.03154 0.03811 0.0
H439 H 0.61574 0.94522 0.03581 0.0
H440 H 0.79997 0.23058 0.0474 0.0
H441 H 0.46226 0.95075 0.10221 0.0
H442 H 0.32221 0.82162 0.14441 0.0
H443 H 0.50056 0.06224 0.22407 0.0
H444 H 0.64259 0.19296 0.18241 0.0
H445 H 0.84379 0.488 0.0422 0.0
H446 H 0.79924 0.37275 0.03852 0.0
H447 H 0.82664 0.43049 0.14577 0.0
H448 H 0.86416 0.54019 0.14975 0.0
H449 H 0.65777 0.23808 0.13227 0.0
H450 H 0.00223 0.51942 0.07893 0.0
H451 H 0.14578 0.64952 0.03718 0.0
H452 H 0.96238 0.41049 0.95667 0.0
H453 H 0.81716 0.27939 0.9978 0.0
C454 C 0.6611 0.0328 0.11889 0.0
C455 C 0.64626 0.98636 0.08819 0.0
C456 C 0.66854 0.08325 0.12011 0.0
C457 C 0.65962 0.08634 0.09075 0.0
C458 C 0.63489 0.03117 0.06095 0.0
C459 C 0.62821 0.98155 0.05969 0.0
C460 C 0.6897 0.15779 0.08986 0.0
C461 C 0.76776 0.23127 0.0657 0.0
C462 C 0.64947 0.16027 0.11409 0.0
C463 C 0.56344 0.08173 0.13917 0.0
C464 C 0.47195 0.9762 0.12874 0.0
C465 C 0.39217 0.90268 0.15257 0.0
C466 C 0.40256 0.9337 0.1869 0.0
C467 C 0.49265 0.03832 0.19747 0.0
C468 C 0.57279 0.11216 0.17375 0.0
C469 C 0.84271 0.47796 0.06481 0.0
C470 C 0.85634 0.52201 0.09635 0.0
C471 C 0.81752 0.41217 0.0627 0.0
C472 C 0.80952 0.39254 0.09188 0.0
C473 C 0.83105 0.44316 0.12294 0.0
C474 C 0.85336 0.50655 0.1252 0.0
C475 C 0.77133 0.31381 0.09069 0.0
C476 C 0.69059 0.23796 0.11413 0.0
C477 C 0.81048 0.31024 0.06615 0.0
C478 C 0.89834 0.38957 0.04145 0.0
C479 C 0.99222 0.4947 0.0523 0.0
C480 C 0.07395 0.56869 0.02872 0.0
C481 C 0.06313 0.53843 0.99426 0.0
C482 C 0.97068 0.43409 0.98331 0.0
C483 C 0.88861 0.3599 1.00675 0.0
H484 H 0.12646 0.59576 0.97604 0.0
H485 H 0.34073 0.87667 0.20532 0.0
H486 H 0.53437 0.89362 0.63992 0.0
H487 H 0.43739 0.87235 0.64466 0.0
H488 H 0.3597 0.74354 0.54124 0.0
H489 H 0.46579 0.77685 0.53553 0.0
H490 H 0.37855 0.83459 0.54709 0.0
H491 H 0.2117 0.62238 0.62876 0.0
H492 H 0.17777 0.57216 0.68054 0.0
H493 H 0.22247 0.74655 0.74071 0.0
H494 H 0.25382 0.7948 0.68906 0.0
H495 H 0.97197 0.6097 0.54561 0.0
H496 H 0.06053 0.62305 0.54464 0.0
H497 H 0.13962 0.75928 0.64721 0.0
H498 H 0.04109 0.73364 0.64948 0.0
H499 H 0.12357 0.67023 0.64308 0.0
H500 H 0.28343 0.87721 0.56331 0.0
H501 H 0.29941 0.91447 0.51267 0.0
H502 H 0.26851 0.75261 0.45005 0.0
H503 H 0.25292 0.71553 0.50059 0.0
C504 C 0.49781 0.86241 0.61811 0.0
C505 C 0.50601 0.8346 0.58752 0.0
C506 C 0.44051 0.84841 0.62098 0.0
C507 C 0.38682 0.80257 0.5937 0.0
C508 C 0.39908 0.77886 0.56296 0.0
C509 C 0.45926 0.79671 0.55976 0.0
C510 C 0.31844 0.77898 0.59597 0.0
C511 C 0.32173 0.79695 0.56802 0.0
C512 C 0.24705 0.73495 0.62386 0.0
C513 C 0.23535 0.712 0.6549 0.0
C514 C 0.21389 0.6493 0.65299 0.0
C515 C 0.19537 0.62152 0.68232 0.0
C516 C 0.19864 0.6567 0.71394 0.0
C517 C 0.22025 0.71954 0.71621 0.0
C518 C 0.23817 0.74685 0.68686 0.0
C519 C 0.00633 0.64018 0.56813 0.0
C520 C 0.00216 0.67365 0.59731 0.0
C521 C 0.0585 0.64935 0.56746 0.0
C522 C 0.11188 0.69691 0.59534 0.0
C523 C 0.10095 0.72337 0.62506 0.0
C524 C 0.04488 0.70951 0.62625 0.0
C525 C 0.18235 0.72358 0.59396 0.0
C526 C 0.18017 0.70729 0.62214 0.0
C527 C 0.25528 0.76985 0.56643 0.0
C528 C 0.26706 0.794 0.53587 0.0
C529 C 0.28185 0.85145 0.53874 0.0
C530 C 0.29006 0.87176 0.51009 0.0
C531 C 0.28445 0.83542 0.47816 0.0
C532 C 0.2724 0.78034 0.47484 0.0
C533 C 0.26388 0.75974 0.50355 0.0
H534 H 0.28835 0.84901 0.45604 0.0
H535 H 0.18417 0.63506 0.73666 0.0
H536 H 0.61373 0.79624 0.46285 0.0
H537 H 0.6629 0.79706 0.40506 0.0
H538 H 0.84787 0.8808 0.43949 0.0
H539 H 0.79776 0.88002 0.49857 0.0
H540 H 0.94874 0.98181 0.36932 0.0
H541 H 0.55554 0.59517 0.40807 0.0
H542 H 0.41439 0.46271 0.46454 0.0
H543 H 0.35511 0.50352 0.41668 0.0
H544 H 0.50641 0.61753 0.37639 0.0
H545 H 0.91052 0.72761 0.2065 0.0
H546 H 0.91132 0.77794 0.26492 0.0
H547 H 0.7259 0.70216 0.24003 0.0
H548 H 0.71749 0.64394 0.18303 0.0
H549 H 0.63577 0.5892 0.29051 0.0
H550 H 0.02216 0.06283 0.31649 0.0
H551 H 0.19016 0.21395 0.28547 0.0
H552 H 0.19699 0.07984 0.25406 0.0
H553 H 0.03315 0.93225 0.28716 0.0
C554 C 0.6676 0.81818 0.45839 0.0
C555 C 0.70148 0.8381 0.48571 0.0
C556 C 0.69674 0.81948 0.42493 0.0
C557 C 0.76069 0.84028 0.41723 0.0
C558 C 0.80023 0.86653 0.4444 0.0
C559 C 0.77129 0.86588 0.47832 0.0
C560 C 0.7669 0.81341 0.38199 0.0
C561 C 0.88192 0.90377 0.35793 0.0
C562 C 0.65388 0.68598 0.36723 0.0
C563 C 0.55593 0.60971 0.39629 0.0
C564 C 0.52725 0.56296 0.42468 0.0
C565 C 0.43867 0.49913 0.44543 0.0
C566 C 0.37918 0.47902 0.44217 0.0
C567 C 0.40399 0.52171 0.41789 0.0
C568 C 0.48949 0.586 0.39486 0.0
C569 C 0.87363 0.726 0.21332 0.0
C570 C 0.81549 0.68358 0.18993 0.0
C571 C 0.87741 0.75867 0.24663 0.0
C572 C 0.82988 0.75725 0.25663 0.0
C573 C 0.77186 0.71427 0.23281 0.0
C574 C 0.76473 0.67819 0.20015 0.0
C575 C 0.81285 0.77001 0.29308 0.0
C576 C 0.68712 0.65851 0.30742 0.0
C577 C 0.90367 0.88528 0.31762 0.0
C578 C 0.00996 0.98108 0.30195 0.0
C579 C 0.05867 0.06469 0.30285 0.0
C580 C 0.15438 0.15103 0.28524 0.0
C581 C 0.2032 0.15554 0.267 0.0
C582 C 0.15821 0.07552 0.26749 0.0
C583 C 0.06328 0.98991 0.28549 0.0
H584 H 0.27654 0.22168 0.25295 0.0
H585 H 0.31131 0.42805 0.45914 0.0
H586 H 0.5241 0.75083 0.68407 0.0
H587 H 0.43537 0.68112 0.73924 0.0
H588 H 0.17881 0.50927 0.71119 0.0
H589 H 0.27426 0.5906 0.65792 0.0
H590 H 0.18204 0.54367 0.77407 0.0
H591 H 0.20797 0.42051 0.69626 0.0
H592 H 0.29584 0.43275 0.65861 0.0
H593 H 0.43559 0.54232 0.74263 0.0
H594 H 0.3496 0.53161 0.7807 0.0
H595 H 0.86722 0.12083 0.86114 0.0
H596 H 0.92662 0.21331 0.82218 0.0
H597 H 0.20137 0.50139 0.87573 0.0
H598 H 0.1422 0.40981 0.91501 0.0
H599 H 0.16778 0.39163 0.7995 0.0
H600 H 0.15152 0.53397 0.87356 0.0
H601 H 0.05077 0.50789 0.90858 0.0
H602 H 0.85831 0.32037 0.82709 0.0
H603 H 0.95875 0.34635 0.79151 0.0
C604 C 0.45041 0.70098 0.69011 0.0
C605 C 0.40346 0.67179 0.6661 0.0
C606 C 0.39912 0.66014 0.72148 0.0
C607 C 0.29804 0.58549 0.72852 0.0
C608 C 0.25569 0.56469 0.70599 0.0
C609 C 0.30948 0.60979 0.67528 0.0
C610 C 0.23395 0.52331 0.75778 0.0
C611 C 0.17893 0.51032 0.77948 0.0
C612 C 0.22716 0.47691 0.76441 0.0
C613 C 0.27515 0.47881 0.74128 0.0
C614 C 0.25821 0.4482 0.70668 0.0
C615 C 0.30718 0.45428 0.68525 0.0
C616 C 0.37166 0.48892 0.69812 0.0
C617 C 0.38643 0.51642 0.73257 0.0
C618 C 0.33789 0.51069 0.75407 0.0
C619 C 0.93814 0.20352 0.86537 0.0
C620 C 0.00117 0.25864 0.89052 0.0
C621 C 0.97119 0.25592 0.84344 0.0
C622 C 0.06765 0.36357 0.8464 0.0
C623 C 0.12553 0.41799 0.87367 0.0
C624 C 0.09208 0.36565 0.89585 0.0
C625 C 0.12164 0.41747 0.81615 0.0
C626 C 0.17246 0.42631 0.79391 0.0
C627 C 0.12199 0.45696 0.8086 0.0
C628 C 0.06183 0.44125 0.83007 0.0
C629 C 0.08717 0.48651 0.86326 0.0
C630 C 0.03033 0.47199 0.88316 0.0
C631 C 0.94766 0.41183 0.87018 0.0
C632 C 0.92217 0.36674 0.83716 0.0
C633 C 0.97927 0.38169 0.81708 0.0
H634 H 0.90364 0.40053 0.88565 0.0
H635 H 0.40957 0.49372 0.68147 0.0
H636 H 0.71081 0.62789 0.45556 0.0
H637 H 0.68977 0.65993 0.42462 0.0
H638 H 0.68704 0.55015 0.33152 0.0
H639 H 0.70597 0.51573 0.36202 0.0
H640 H 0.84312 0.79658 0.35934 0.0
H641 H 0.51194 0.40638 0.33501 0.0
H642 H 0.36406 0.23983 0.35724 0.0
H643 H 0.20488 0.21913 0.38992 0.0
H644 H 0.35707 0.39149 0.37189 0.0
H645 H 0.55572 0.6328 0.21516 0.0
H646 H 0.56645 0.59462 0.24969 0.0
H647 H 0.59688 0.73484 0.338 0.0
H648 H 0.58933 0.77568 0.30414 0.0
H649 H 0.44529 0.47683 0.32096 0.0
H650 H 0.78221 0.89747 0.36257 0.0
H651 H 0.87131 0.03484 0.34509 0.0
H652 H 0.918 0.98775 0.24398 0.0
H653 H 0.83079 0.8514 0.26113 0.0
C654 C 0.70409 0.6087 0.4286 0.0
C655 C 0.70466 0.56358 0.41189 0.0
C656 C 0.68929 0.62478 0.4109 0.0
C657 C 0.67422 0.59605 0.37607 0.0
C658 C 0.6881 0.56366 0.35877 0.0
C659 C 0.70097 0.54579 0.37636 0.0
C660 C 0.66249 0.61714 0.35721 0.0
C661 C 0.773 0.74353 0.35105 0.0
C662 C 0.54538 0.52441 0.34536 0.0
C663 C 0.45049 0.41671 0.35393 0.0
C664 C 0.4486 0.36987 0.34866 0.0
C665 C 0.36262 0.27293 0.36007 0.0
C666 C 0.27487 0.21862 0.37498 0.0
C667 C 0.27319 0.26148 0.3786 0.0
C668 C 0.36024 0.35974 0.36813 0.0
C669 C 0.56482 0.65584 0.24188 0.0
C670 C 0.57081 0.70726 0.25638 0.0
C671 C 0.56944 0.6324 0.26185 0.0
C672 C 0.58126 0.66039 0.29687 0.0
C673 C 0.58597 0.71034 0.31134 0.0
C674 C 0.58195 0.73416 0.29158 0.0
C675 C 0.61073 0.6582 0.31657 0.0
C676 C 0.52349 0.5446 0.32717 0.0
C677 C 0.73903 0.77296 0.32392 0.0
C678 C 0.8023 0.86482 0.31373 0.0
C679 C 0.81327 0.9172 0.33688 0.0
C680 C 0.86315 0.99512 0.32691 0.0
C681 C 0.90144 0.02102 0.29351 0.0
C682 C 0.88893 0.96827 0.26998 0.0
C683 C 0.83899 0.89023 0.27992 0.0
H684 H 0.94038 0.08167 0.28593 0.0
H685 H 0.20806 0.14322 0.38357 0.0
H686 H 0.4558 0.16063 0.75701 0.0
H687 H 0.49191 0.16817 0.80391 0.0
H688 H 0.19218 0.9431 0.85249 0.0
H689 H 0.15622 0.93574 0.80559 0.0
H690 H 0.36882 0.15232 0.8796 0.0
H691 H 0.24924 0.89665 0.84552 0.0
H692 H 0.2351 0.80796 0.80732 0.0
H693 H 0.55991 0.08222 0.80964 0.0
H694 H 0.57652 0.17326 0.84738 0.0
H695 H 0.53027 0.3165 0.03624 0.0
H696 H 0.42824 0.20344 0.98753 0.0
H697 H 0.67261 0.33694 0.92977 0.0
H698 H 0.76905 0.44132 0.98073 0.0
H699 H 0.50375 0.14987 0.9082 0.0
H700 H 0.63698 0.4152 0.93096 0.0
H701 H 0.67034 0.5238 0.95898 0.0
H702 H 0.34537 0.25726 0.96841 0.0
H703 H 0.30984 0.14682 0.94126 0.0
C704 C 0.39552 0.10831 0.77675 0.0
C705 C 0.30357 0.04773 0.77805 0.0
C706 C 0.41589 0.11226 0.80343 0.0
C707 C 0.34475 0.05645 0.83162 0.0
C708 C 0.24744 0.98596 0.83077 0.0
C709 C 0.22694 0.98173 0.80404 0.0
C710 C 0.38358 0.0957 0.86453 0.0
C711 C 0.39581 0.14946 0.88645 0.0
C712 C 0.42385 0.09655 0.87204 0.0
C713 C 0.41421 0.04207 0.84917 0.0
C714 C 0.31792 0.93847 0.83763 0.0
C715 C 0.3094 0.88767 0.81609 0.0
C716 C 0.39656 0.93945 0.806 0.0
C717 C 0.49244 0.04217 0.81746 0.0
C718 C 0.50141 0.09338 0.83897 0.0
C719 C 0.55952 0.31754 0.01379 0.0
C720 C 0.65492 0.38383 0.01257 0.0
C721 C 0.50258 0.25507 0.98553 0.0
C722 C 0.54354 0.26312 0.95464 0.0
C723 C 0.63916 0.32914 0.95334 0.0
C724 C 0.69447 0.38903 0.98225 0.0
C725 C 0.48897 0.20676 0.92356 0.0
C726 C 0.47495 0.15109 0.90182 0.0
C727 C 0.44986 0.20696 0.91538 0.0
C728 C 0.47067 0.27243 0.93441 0.0
C729 C 0.57248 0.37946 0.93955 0.0
C730 C 0.59183 0.44148 0.95512 0.0
C731 C 0.51008 0.39752 0.96536 0.0
C732 C 0.4087 0.29131 0.96036 0.0
C733 C 0.38888 0.22891 0.94507 0.0
H734 H 0.52522 0.44565 0.97735 0.0
H735 H 0.38975 0.89993 0.78934 0.0
H736 H 0.72598 0.93539 0.95792 0.0
H737 H 0.72674 0.89222 0.89787 0.0
H738 H 0.64025 0.70049 0.92545 0.0
H739 H 0.63838 0.74223 0.98477 0.0
H740 H 0.8333 0.86665 0.89493 0.0
H741 H 0.49772 0.63434 0.89036 0.0
H742 H 0.39949 0.61217 0.89786 0.0
H743 H 0.51635 0.71785 0.79971 0.0
H744 H 0.61269 0.73705 0.7911 0.0
H745 H 0.65799 0.5361 0.68618 0.0
H746 H 0.60906 0.54994 0.73995 0.0
H747 H 0.92695 0.87799 0.74672 0.0
H748 H 0.97543 0.8632 0.69494 0.0
H749 H 0.64951 0.70688 0.81657 0.0
H750 H 0.02947 0.95593 0.78826 0.0
H751 H 0.10948 0.95607 0.76664 0.0
H752 H 0.81954 0.63362 0.77897 0.0
H753 H 0.73802 0.63244 0.80313 0.0
C754 C 0.70484 0.8821 0.95115 0.0
C755 C 0.68219 0.84248 0.97661 0.0
C756 C 0.7048 0.85694 0.91654 0.0
C757 C 0.68245 0.79177 0.90648 0.0
C758 C 0.65556 0.74905 0.93203 0.0
C759 C 0.65499 0.77349 0.96635 0.0
C760 C 0.70836 0.78449 0.87128 0.0
C761 C 0.79908 0.83008 0.87079 0.0
C762 C 0.64239 0.72013 0.83566 0.0
C763 C 0.56821 0.69341 0.84075 0.0
C764 C 0.50466 0.65486 0.87049 0.0
C765 C 0.44748 0.64101 0.8748 0.0
C766 C 0.45253 0.66477 0.84948 0.0
C767 C 0.51279 0.69997 0.81947 0.0
C768 C 0.56776 0.71123 0.81474 0.0
C769 C 0.71699 0.61095 0.69934 0.0
C770 C 0.82116 0.6983 0.68664 0.0
C771 C 0.6889 0.61893 0.73017 0.0
C772 C 0.76464 0.71483 0.74858 0.0
C773 C 0.86686 0.8022 0.7341 0.0
C774 C 0.89513 0.79394 0.70429 0.0
C775 C 0.74516 0.72679 0.78457 0.0
C776 C 0.66069 0.69362 0.79527 0.0
C777 C 0.82477 0.79135 0.81315 0.0
C778 C 0.87874 0.79574 0.79979 0.0
C779 C 0.98295 0.88552 0.78754 0.0
C780 C 0.02856 0.88546 0.77423 0.0
C781 C 0.97027 0.79519 0.77126 0.0
C782 C 0.86544 0.7042 0.78168 0.0
C783 C 0.81969 0.70418 0.79563 0.0
H784 H 0.00619 0.7957 0.76073 0.0
H785 H 0.40897 0.65488 0.85296 0.0
H786 H 0.3059 0.03272 0.25078 0.0
H787 H 0.25739 0.95473 0.29378 0.0
H788 H 0.52791 0.25447 0.34584 0.0
H789 H 0.57734 0.33213 0.30243 0.0
H790 H 0.47688 0.13287 0.35538 0.0
H791 H 0.30667 0.10972 0.35633 0.0
H792 H 0.198 0.05864 0.33672 0.0
H793 H 0.93562 0.74062 0.34112 0.0
H794 H 0.04307 0.78854 0.35872 0.0
H795 H 0.27015 0.00875 0.52638 0.0
H796 H 0.35695 0.07389 0.4715 0.0
H797 H 0.08515 0.76383 0.42583 0.0
H798 H -0.00053 0.69739 0.48162 0.0
H799 H 0.13788 0.88676 0.41191 0.0
H800 H 0.32385 0.91591 0.39582 0.0
H801 H 0.43464 0.96809 0.41396 0.0
H802 H 0.65643 0.27179 0.44444 0.0
H803 H 0.54874 0.22231 0.42522 0.0
C804 C 0.35755 0.08198 0.2704 0.0
C805 C 0.4451 0.18774 0.27364 0.0
C806 C 0.32936 0.03759 0.29509 0.0
C807 C 0.38764 0.09879 0.32332 0.0
C808 C 0.48173 0.20609 0.3243 0.0
C809 C 0.51029 0.25045 0.29949 0.0
C810 C 0.34425 0.051 0.35382 0.0
C811 C 0.4025 0.07872 0.36764 0.0
C812 C 0.24743 0.98102 0.36994 0.0
C813 C 0.18389 0.9529 0.35826 0.0
C814 C 0.22641 0.02882 0.35247 0.0
C815 C 0.16496 0.00047 0.34177 0.0
C816 C 0.06032 0.89679 0.33774 0.0
C817 C 0.01687 0.82097 0.34409 0.0
C818 C 0.07818 0.84864 0.35417 0.0
C819 C 0.23086 0.95374 0.50524 0.0
C820 C 0.12824 0.84794 0.50908 0.0
C821 C 0.28068 0.99138 0.47343 0.0
C822 C 0.22774 0.9236 0.4446 0.0
C823 C 0.12766 0.81727 0.44794 0.0
C824 C 0.07863 0.77959 0.47992 0.0
C825 C 0.26775 0.96421 0.41223 0.0
C826 C 0.21046 0.9381 0.39882 0.0
C827 C 0.36523 0.03608 0.39671 0.0
C828 C 0.42804 0.06517 0.4095 0.0
C829 C 0.396 0.99355 0.4066 0.0
C830 C 0.45845 0.02281 0.41686 0.0
C831 C 0.55189 0.12279 0.4307 0.0
C832 C 0.58384 0.19425 0.43386 0.0
C833 C 0.52262 0.16595 0.42302 0.0
H834 H 0.59978 0.14502 0.43879 0.0
H835 H 0.01274 0.87513 0.32983 0.0
H836 H 0.8308 0.90663 0.72134 0.0
H837 H 0.84319 0.86554 0.75092 0.0
H838 H 0.81745 0.94566 0.84638 0.0
H839 H 0.80309 0.98557 0.81718 0.0
H840 H 0.00879 0.0322 0.8252 0.0
H841 H 0.51381 0.57653 0.88469 0.0
H842 H 0.3287 0.39725 0.87715 0.0
H843 H 0.39826 0.34904 0.7887 0.0
H844 H 0.58398 0.52892 0.79576 0.0
H845 H 0.03727 0.95541 0.95398 0.0
H846 H 0.97737 0.9461 0.92221 0.0
H847 H 0.80547 0.68089 0.86207 0.0
H848 H 0.85963 0.68598 0.89579 0.0
H849 H 0.68254 0.63339 0.87141 0.0
H850 H 0.06267 0.95116 0.84325 0.0
H851 H 0.24097 0.10412 0.85548 0.0
H852 H 0.27248 0.27216 0.89462 0.0
H853 H 0.09514 0.1212 0.88092 0.0
C854 C 0.8254 0.91357 0.74868 0.0
C855 C 0.81362 0.94796 0.76628 0.0
C856 C 0.83345 0.89039 0.76602 0.0
C857 C 0.8265 0.89678 0.80181 0.0
C858 C 0.82013 0.93628 0.8192 0.0
C859 C 0.81222 0.9597 0.80203 0.0
C860 C 0.82228 0.85917 0.82154 0.0
C861 C 0.94155 0.95521 0.83222 0.0
C862 C 0.67903 0.68271 0.84163 0.0
C863 C 0.56387 0.56999 0.8388 0.0
C864 C 0.49023 0.52933 0.86297 0.0
C865 C 0.38476 0.42692 0.85898 0.0
C866 C 0.35165 0.36261 0.83174 0.0
C867 C 0.42393 0.39972 0.80919 0.0
C868 C 0.52942 0.50234 0.81304 0.0
C869 C 0.98422 0.8933 0.93462 0.0
C870 C 0.95133 0.82005 0.92794 0.0
C871 C 0.95181 0.88938 0.91583 0.0
C872 C 0.8902 0.81556 0.88852 0.0
C873 C 0.85444 0.74006 0.88249 0.0
C874 C 0.88475 0.74235 0.90196 0.0
C875 C 0.86172 0.81609 0.86694 0.0
C876 C 0.73303 0.6995 0.86141 0.0
C877 C 0.957 0.93246 0.85331 0.0
C878 C 0.06508 0.02448 0.8605 0.0
C879 C 0.10768 0.02099 0.8537 0.0
C880 C 0.20902 0.10767 0.8609 0.0
C881 C 0.26853 0.19831 0.87549 0.0
C882 C 0.22676 0.20234 0.88279 0.0
C883 C 0.12606 0.11644 0.87495 0.0
H884 H 0.3467 0.26514 0.88137 0.0
H885 H 0.27002 0.28344 0.82855 0.0
H886 H 0.00232 0.21274 0.14291 0.0
H887 H 0.08887 0.31879 0.19456 0.0
H888 H 0.80404 0.12131 0.24765 0.0
H889 H 0.71995 0.02222 0.19406 0.0
H890 H 0.96241 0.31541 0.27105 0.0
H891 H 0.889 0.09602 0.24288 0.0
H892 H 0.89238 0.02123 0.20791 0.0
H893 H 0.22186 0.31639 0.21003 0.0
H894 H 0.22141 0.39443 0.24341 0.0
H895 H 0.0215 0.34069 0.42748 0.0
H896 H 0.99013 0.32867 0.37661 0.0
H897 H 0.29346 0.55373 0.33341 0.0
H898 H 0.32362 0.56368 0.38435 0.0
H899 H 0.14236 0.36577 0.30317 0.0
H900 H 0.21195 0.58149 0.33565 0.0
H901 H 0.20351 0.65077 0.37284 0.0
H902 H 0.87491 0.35427 0.36749 0.0
H903 H 0.88098 0.2826 0.33075 0.0
C904 C 0.95916 0.19455 0.16515 0.0
C905 C 0.85567 0.11185 0.16422 0.0
C906 C 0.00816 0.25388 0.19489 0.0
C907 C 0.95249 0.22701 0.22499 0.0
C908 C 0.84827 0.14328 0.22452 0.0
C909 C 0.80002 0.08602 0.19415 0.0
C910 C 0.00246 0.28335 0.25703 0.0
C911 C 0.00121 0.32598 0.27831 0.0
C912 C 0.05506 0.2988 0.26585 0.0
C913 C 0.05522 0.25152 0.24542 0.0
C914 C 0.96247 0.14555 0.23541 0.0
C915 C 0.96392 0.1026 0.21572 0.0
C916 C 0.05737 0.16418 0.20655 0.0
C917 C 0.14963 0.26895 0.21689 0.0
C918 C 0.14885 0.3127 0.23607 0.0
C919 C 0.08369 0.39226 0.40794 0.0
C920 C 0.17419 0.45212 0.40927 0.0
C921 C 0.06595 0.38562 0.37888 0.0
C922 C 0.13913 0.43952 0.35115 0.0
C923 C 0.23621 0.51161 0.35464 0.0
C924 C 0.2537 0.5178 0.38373 0.0
C925 C 0.1035 0.39908 0.31719 0.0
C926 C 0.10594 0.35769 0.29562 0.0
C927 C 0.05101 0.38366 0.30848 0.0
C928 C 0.04698 0.42658 0.33046 0.0
C929 C 0.13775 0.53081 0.34257 0.0
C930 C 0.13341 0.57056 0.36357 0.0
C931 C 0.03875 0.50698 0.37252 0.0
C932 C 0.94821 0.40348 0.3605 0.0
C933 C 0.95209 0.36329 0.33954 0.0
H934 H 0.03559 0.53794 0.38875 0.0
H935 H 0.05824 0.13059 0.19157 0.0
loop_
_geom_bond_atom_site_label_1
_geom_bond_atom_site_label_2
_geom_bond_distance
_geom_bond_site_symmetry_2
_ccdc_geom_bond_type
Eu0 N29 2.600 1_655 S
Eu0 N35 2.562 . S
Eu0 O44 2.462 . S
Eu0 O45 2.373 . S
Eu0 O47 2.432 . S
Eu0 O48 2.291 . S
Eu0 O52 2.335 . S
Eu0 O55 2.372 . S
Eu0 C64 2.787 . S
C1 N2 1.365 . S
C1 C4 1.405 . S
C1 C8 1.448 . S
N2 C1 1.365 . S
N2 C5 1.319 . S
N2 Eu11 2.600 . S
C3 C5 1.397 . S
C3 C6 1.367 . S
C3 H23 0.931 . S
C4 C1 1.405 . S
C4 C6 1.403 . S
C4 C10 1.439 1_545 S
C5 N2 1.319 . S
C5 C3 1.397 . S
C5 H16 0.930 . S
C6 C3 1.367 . S
C6 C4 1.403 . S
C6 H27 0.929 1_545 S
C7 C8 1.430 . S
C7 C9 1.387 1_545 S
C7 C13 1.404 . S
C8 C1 1.448 . S
C8 C7 1.430 . S
C8 N12 1.351 . S
C9 C7 1.387 1_565 S
C9 C10 1.374 . S
C9 H24 0.931 . S
C10 C4 1.439 1_565 S
C10 C9 1.374 . S
C10 H25 0.931 . S
Eu11 N2 2.600 . S
Eu11 N12 2.562 . S
Eu11 O46 2.335 . S
Eu11 O49 2.372 . S
Eu11 O50 2.462 . S
Eu11 O51 2.373 . S
Eu11 O53 2.432 . S
Eu11 O54 2.291 . S
Eu11 C75 2.787 . S
N12 C8 1.351 . S
N12 Eu11 2.562 . S
N12 C14 1.325 . S
C13 C7 1.404 . S
C13 C15 1.366 . S
C13 H21 0.930 1_545 S
C14 N12 1.325 . S
C14 C15 1.416 . S
C14 H20 0.929 . S
C15 C13 1.366 . S
C15 C14 1.416 . S
C15 H17 0.930 . S
H16 C5 0.930 . S
H17 C15 0.930 . S
H18 C33 0.930 . S
H19 C40 0.930 . S
H20 C14 0.929 . S
H21 C13 0.930 1_565 S
H22 C36 0.929 . S
H23 C3 0.931 . S
H24 C9 0.931 . S
H25 C10 0.931 . S
H26 C31 0.931 . S
H27 C6 0.929 1_565 S
H28 C39 0.930 1_545 S
N29 Eu0 2.600 1_455 S
N29 C30 1.365 . S
N29 C33 1.319 . S
C30 N29 1.365 . S
C30 C32 1.405 . S
C30 C38 1.448 . S
C31 H26 0.931 . S
C31 C33 1.397 . S
C31 C34 1.372 . S
C32 C30 1.405 . S
C32 C34 1.398 . S
C32 C65 1.439 1_565 S
C33 H18 0.930 . S
C33 N29 1.319 . S
C33 C31 1.397 . S
C34 C31 1.372 . S
C34 C32 1.398 . S
C34 H41 0.930 1_565 S
N35 Eu0 2.562 . S
N35 C36 1.325 . S
N35 C38 1.351 1_655 S
C36 H22 0.929 . S
C36 N35 1.325 . S
C36 C40 1.416 . S
C37 C38 1.430 . S
C37 C39 1.404 . S
C37 C66 1.387 1_565 S
C38 C30 1.448 . S
C38 N35 1.351 1_455 S
C38 C37 1.430 . S
C39 H28 0.930 1_565 S
C39 C37 1.404 . S
C39 C40 1.366 1_455 S
C40 H19 0.930 . S
C40 C36 1.416 . S
C40 C39 1.366 1_655 S
H41 C34 0.930 1_545 S
H42 C65 0.931 . S
H43 C66 0.931 . S
O44 Eu0 2.462 . S
O44 C64 1.252 . S
O45 Eu0 2.373 . S
O45 C56 1.249 . S
O46 Eu11 2.335 . S
O46 C56 1.264 . S
O47 Eu0 2.432 . S
O47 C64 1.268 . S
O48 Eu0 2.291 . S
O48 C63 1.255 . S
O49 Eu11 2.372 . S
O49 C63 1.257 . S
O50 Eu11 2.462 . S
O50 C75 1.252 . S
O51 Eu11 2.373 . S
O51 C67 1.249 . S
O52 Eu0 2.335 . S
O52 C67 1.264 . S
O53 Eu11 2.432 . S
O53 C75 1.268 . S
O54 Eu11 2.291 . S
O54 C74 1.255 . S
O55 Eu0 2.372 . S
O55 C74 1.257 . S
C56 O45 1.249 . S
C56 O46 1.264 . S
C57 C60 1.382 1_655 S
C57 C62 1.390 . S
C57 C64 1.506 1_556 S
C58 C59 1.398 1_655 S
C58 C62 1.392 . S
C59 C58 1.398 1_455 S
C59 C61 1.372 . S
C59 H76 0.931 . S
C60 C57 1.382 1_455 S
C60 C61 1.390 . S
C60 H77 0.931 . S
C61 C59 1.372 . S
C61 C60 1.390 . S
C61 H78 0.929 . S
C62 C57 1.390 . S
C62 C58 1.392 . S
C62 H79 0.930 . S
C63 O48 1.255 . S
C63 O49 1.257 . S
C64 Eu0 2.787 . S
C64 O44 1.252 . S
C64 O47 1.268 . S
C64 C57 1.506 1_554 S
C65 C32 1.439 1_545 S
C65 H42 0.931 . S
C65 C66 1.374 . S
C66 C37 1.387 1_545 S
C66 H43 0.931 . S
C66 C65 1.374 . S
C67 O51 1.249 . S
C67 O52 1.264 . S
C68 C71 1.382 . S
C68 C72 1.390 . S
C68 C75 1.506 . S
C69 C70 1.398 . S
C69 C72 1.392 . S
C70 C69 1.398 . S
C70 C73 1.372 . S
C70 H80 0.931 . S
C71 C68 1.382 . S
C71 C73 1.390 . S
C71 H81 0.931 . S
C72 C68 1.390 . S
C72 C69 1.392 . S
C72 H82 0.930 . S
C73 C70 1.372 . S
C73 C71 1.390 . S
C73 H83 0.929 . S
C74 O54 1.255 . S
C74 O55 1.257 . S
C75 Eu11 2.787 . S
C75 O50 1.252 . S
C75 O53 1.268 . S
C75 C68 1.506 . S
H76 C59 0.931 . S
H77 C60 0.931 . S
H78 C61 0.929 . S
H79 C62 0.930 . S
H80 C70 0.931 . S
H81 C71 0.931 . S
H82 C72 0.930 . S
H83 C73 0.929 . S
Eu84 N113 2.600 1_565 S
Eu84 N119 2.562 . S
Eu84 O128 2.462 . S
Eu84 O129 2.373 . S
Eu84 O131 2.432 . S
Eu84 O132 2.291 . S
Eu84 O136 2.335 . S
Eu84 O139 2.372 . S
Eu84 C148 2.787 . S
C85 N86 1.365 . S
C85 C88 1.405 . S
C85 C92 1.448 . S
N86 C85 1.365 . S
N86 C89 1.319 . S
N86 Eu95 2.600 . S
C87 C89 1.397 . S
C87 C90 1.367 . S
C87 H107 0.931 . S
C88 C85 1.405 . S
C88 C90 1.403 . S
C88 C94 1.439 1_455 S
C89 N86 1.319 . S
C89 C87 1.397 . S
C89 H100 0.930 . S
C90 C87 1.367 . S
C90 C88 1.403 . S
C90 H111 0.929 1_455 S
C91 C92 1.430 . S
C91 C93 1.387 1_455 S
C91 C97 1.404 . S
C92 C85 1.448 . S
C92 C91 1.430 . S
C92 N96 1.351 . S
C93 C91 1.387 1_655 S
C93 C94 1.374 . S
C93 H108 0.931 . S
C94 C88 1.439 1_655 S
C94 C93 1.374 . S
C94 H109 0.931 . S
Eu95 N86 2.600 . S
Eu95 N96 2.562 . S
Eu95 O130 2.335 . S
Eu95 O133 2.372 . S
Eu95 O134 2.462 . S
Eu95 O135 2.373 . S
Eu95 O137 2.432 . S
Eu95 O138 2.291 . S
Eu95 C159 2.787 . S
N96 C92 1.351 . S
N96 Eu95 2.562 . S
N96 C98 1.325 . S
C97 C91 1.404 . S
C97 C99 1.366 . S
C97 H105 0.930 1_455 S
C98 N96 1.325 . S
C98 C99 1.416 . S
C98 H104 0.929 . S
C99 C97 1.366 . S
C99 C98 1.416 . S
C99 H101 0.930 . S
H100 C89 0.930 . S
H101 C99 0.930 . S
H102 C117 0.930 . S
H103 C124 0.930 . S
H104 C98 0.929 . S
H105 C97 0.930 1_655 S
H106 C120 0.929 . S
H107 C87 0.931 . S
H108 C93 0.931 . S
H109 C94 0.931 . S
H110 C115 0.931 . S
H111 C90 0.929 1_655 S
H112 C123 0.930 1_455 S
N113 Eu84 2.600 1_545 S
N113 C114 1.365 . S
N113 C117 1.319 . S
C114 N113 1.365 . S
C114 C116 1.405 . S
C114 C122 1.448 . S
C115 H110 0.931 . S
C115 C117 1.397 . S
C115 C118 1.384 . S
C116 C114 1.405 . S
C116 C118 1.383 . S
C116 C149 1.439 1_655 S
C117 H102 0.930 . S
C117 N113 1.319 . S
C117 C115 1.397 . S
C118 C115 1.384 . S
C118 C116 1.383 . S
C118 H125 0.933 1_655 S
N119 Eu84 2.562 . S
N119 C120 1.325 . S
N119 C122 1.351 1_565 S
C120 H106 0.929 . S
C120 N119 1.325 . S
C120 C124 1.416 . S
C121 C122 1.430 . S
C121 C123 1.404 . S
C121 C150 1.387 1_655 S
C122 C114 1.448 . S
C122 N119 1.351 1_545 S
C122 C121 1.430 . S
C123 H112 0.930 1_655 S
C123 C121 1.404 . S
C123 C124 1.366 1_545 S
C124 H103 0.930 . S
C124 C120 1.416 . S
C124 C123 1.366 1_565 S
H125 C118 0.933 1_455 S
H126 C149 0.931 . S
H127 C150 0.931 . S
O128 Eu84 2.462 . S
O128 C148 1.252 . S
O129 Eu84 2.373 . S
O129 C140 1.249 . S
O130 Eu95 2.335 . S
O130 C140 1.264 . S
O131 Eu84 2.432 . S
O131 C148 1.268 . S
O132 Eu84 2.291 . S
O132 C147 1.255 . S
O133 Eu95 2.372 . S
O133 C147 1.257 . S
O134 Eu95 2.462 . S
O134 C159 1.252 . S
O135 Eu95 2.373 . S
O135 C151 1.249 . S
O136 Eu84 2.335 . S
O136 C151 1.264 . S
O137 Eu95 2.432 . S
O137 C159 1.268 . S
O138 Eu95 2.291 . S
O138 C158 1.255 . S
O139 Eu84 2.372 . S
O139 C158 1.257 . S
C140 O129 1.249 . S
C140 O130 1.264 . S
C141 C144 1.382 1_565 S
C141 C146 1.390 . S
C141 C148 1.506 . S
C142 C143 1.398 1_565 S
C142 C146 1.392 . S
C143 C142 1.398 1_545 S
C143 C145 1.372 . S
C143 H160 0.931 . S
C144 C141 1.382 1_545 S
C144 C145 1.390 . S
C144 H161 0.931 . S
C145 C143 1.372 . S
C145 C144 1.390 . S
C145 H162 0.929 . S
C146 C141 1.390 . S
C146 C142 1.392 . S
C146 H163 0.930 . S
C147 O132 1.255 . S
C147 O133 1.257 . S
C148 Eu84 2.787 . S
C148 O128 1.252 . S
C148 O131 1.268 . S
C148 C141 1.506 . S
C149 C116 1.439 1_455 S
C149 H126 0.931 . S
C149 C150 1.374 . S
C150 C121 1.387 1_455 S
C150 H127 0.931 . S
C150 C149 1.374 . S
C151 O135 1.249 . S
C151 O136 1.264 . S
C152 C155 1.382 . S
C152 C156 1.390 . S
C152 C159 1.506 . S
C153 C154 1.398 . S
C153 C156 1.392 . S
C154 C153 1.398 . S
C154 C157 1.372 . S
C154 H164 0.931 . S
C155 C152 1.382 . S
C155 C157 1.390 . S
C155 H165 0.931 . S
C156 C152 1.390 . S
C156 C153 1.392 . S
C156 H166 0.930 . S
C157 C154 1.372 . S
C157 C155 1.390 . S
C157 H167 0.929 . S
C158 O138 1.255 . S
C158 O139 1.257 . S
C159 Eu95 2.787 . S
C159 O134 1.252 . S
C159 O137 1.268 . S
C159 C152 1.506 . S
H160 C143 0.931 . S
H161 C144 0.931 . S
H162 C145 0.929 . S
H163 C146 0.930 . S
H164 C154 0.931 . S
H165 C155 0.931 . S
H166 C156 0.930 . S
H167 C157 0.929 . S
Eu168 N197 2.600 1_655 S
Eu168 N203 2.562 1_655 S
Eu168 O212 2.462 . S
Eu168 O213 2.373 . S
Eu168 O215 2.432 1_654 S
Eu168 O216 2.291 . S
Eu168 O220 2.335 1_545 S
Eu168 O223 2.372 . S
Eu168 C232 2.787 1_654 S
C169 N170 1.365 . S
C169 C172 1.405 . S
C169 C176 1.448 . S
N170 C169 1.365 . S
N170 C173 1.319 . S
N170 Eu179 2.600 . S
C171 C173 1.397 . S
C171 C174 1.367 . S
C171 H191 0.931 . S
C172 C169 1.405 . S
C172 C174 1.403 . S
C172 C178 1.439 . S
C173 N170 1.319 . S
C173 C171 1.397 . S
C173 H184 0.930 . S
C174 C171 1.367 . S
C174 C172 1.403 . S
C174 H195 0.929 . S
C175 C176 1.430 . S
C175 C177 1.387 . S
C175 C181 1.404 . S
C176 C169 1.448 . S
C176 C175 1.430 . S
C176 N180 1.351 . S
C177 C175 1.387 . S
C177 C178 1.374 . S
C177 H192 0.931 . S
C178 C172 1.439 . S
C178 C177 1.374 . S
C178 H193 0.931 . S
Eu179 N170 2.600 . S
Eu179 N180 2.562 . S
Eu179 O214 2.335 1_565 S
Eu179 O217 2.372 . S
Eu179 O218 2.462 . S
Eu179 O219 2.373 . S
Eu179 O221 2.432 . S
Eu179 O222 2.291 . S
Eu179 C243 2.787 . S
N180 C176 1.351 . S
N180 Eu179 2.562 . S
N180 C182 1.325 . S
C181 C175 1.404 . S
C181 C183 1.366 . S
C181 H189 0.930 . S
C182 N180 1.325 . S
C182 C183 1.416 . S
C182 H188 0.929 . S
C183 C181 1.366 . S
C183 C182 1.416 . S
C183 H185 0.930 . S
H184 C173 0.930 . S
H185 C183 0.930 . S
H186 C201 0.930 . S
H187 C208 0.930 1_655 S
H188 C182 0.929 . S
H189 C181 0.930 . S
H190 C204 0.929 . S
H191 C171 0.931 . S
H192 C177 0.931 . S
H193 C178 0.931 . S
H194 C199 0.931 . S
H195 C174 0.929 . S
H196 C207 0.930 . S
N197 Eu168 2.600 1_455 S
N197 C198 1.365 . S
N197 C201 1.319 . S
C198 N197 1.365 . S
C198 C200 1.405 . S
C198 C206 1.448 . S
C199 H194 0.931 . S
C199 C201 1.397 . S
C199 C202 1.367 . S
C200 C198 1.405 . S
C200 C202 1.403 . S
C200 C233 1.439 . S
C201 H186 0.930 . S
C201 N197 1.319 . S
C201 C199 1.397 . S
C202 C199 1.367 . S
C202 C200 1.403 . S
C202 H209 0.929 . S
N203 Eu168 2.562 1_455 S
N203 C204 1.325 1_455 S
N203 C206 1.351 . S
C204 H190 0.929 . S
C204 N203 1.325 1_655 S
C204 C208 1.416 1_655 S
C205 C206 1.430 . S
C205 C207 1.404 . S
C205 C234 1.387 . S
C206 C198 1.448 . S
C206 N203 1.351 . S
C206 C205 1.430 . S
C207 H196 0.930 . S
C207 C205 1.404 . S
C207 C208 1.366 . S
C208 H187 0.930 1_455 S
C208 C204 1.416 1_455 S
C208 C207 1.366 . S
H209 C202 0.929 . S
H210 C233 0.931 . S
H211 C234 0.931 . S
O212 Eu168 2.462 . S
O212 C232 1.252 1_654 S
O213 Eu168 2.373 . S
O213 C224 1.249 . S
O214 Eu179 2.335 1_545 S
O214 C224 1.264 . S
O215 Eu168 2.432 1_456 S
O215 C232 1.268 . S
O216 Eu168 2.291 . S
O216 C231 1.255 1_545 S
O217 Eu179 2.372 . S
O217 C231 1.257 . S
O218 Eu179 2.462 . S
O218 C243 1.252 . S
O219 Eu179 2.373 . S
O219 C235 1.249 . S
O220 Eu168 2.335 1_565 S
O220 C235 1.263 . S
O221 Eu179 2.432 . S
O221 C243 1.268 . S
O222 Eu179 2.291 . S
O222 C242 1.255 1_565 S
O223 Eu168 2.372 . S
O223 C242 1.257 . S
C224 O213 1.249 . S
C224 O214 1.264 . S
C225 C228 1.382 . S
C225 C230 1.390 1_455 S
C225 C232 1.506 . S
C226 C227 1.398 . S
C226 C230 1.392 1_455 S
C227 C226 1.398 . S
C227 C229 1.372 . S
C227 H244 0.931 . S
C228 C225 1.382 . S
C228 C229 1.390 . S
C228 H245 0.931 . S
C229 C227 1.372 . S
C229 C228 1.390 . S
C229 H246 0.929 . S
C230 C225 1.390 1_655 S
C230 C226 1.392 1_655 S
C230 H247 0.930 . S
C231 O216 1.255 1_565 S
C231 O217 1.257 . S
C232 Eu168 2.787 1_456 S
C232 O212 1.252 1_456 S
C232 O215 1.268 . S
C232 C225 1.506 . S
C233 C200 1.439 . S
C233 H210 0.931 . S
C233 C234 1.374 . S
C234 C205 1.387 . S
C234 H211 0.931 . S
C234 C233 1.374 . S
C235 O219 1.249 . S
C235 O220 1.263 . S
C236 C239 1.382 . S
C236 C240 1.390 . S
C236 C243 1.506 . S
C237 C238 1.398 . S
C237 C240 1.392 . S
C238 C237 1.398 . S
C238 C241 1.372 . S
C238 H248 0.931 . S
C239 C236 1.382 . S
C239 C241 1.390 . S
C239 H249 0.931 . S
C240 C236 1.390 . S
C240 C237 1.392 . S
C240 H250 0.930 . S
C241 C238 1.372 . S
C241 C239 1.390 . S
C241 H251 0.929 . S
C242 O222 1.255 1_545 S
C242 O223 1.257 . S
C243 Eu179 2.787 . S
C243 O218 1.252 . S
C243 O221 1.268 . S
C243 C236 1.506 . S
H244 C227 0.931 . S
H245 C228 0.931 . S
H246 C229 0.929 . S
H247 C230 0.930 . S
H248 C238 0.931 . S
H249 C239 0.931 . S
H250 C240 0.930 . S
H251 C241 0.929 . S
Eu252 N281 2.600 1_565 S
Eu252 N287 2.562 1_565 S
Eu252 O296 2.462 . S
Eu252 O297 2.373 . S
Eu252 O299 2.432 1_565 S
Eu252 O300 2.291 . S
Eu252 O304 2.333 1_455 S
Eu252 O307 2.372 . S
Eu252 C316 2.787 1_565 S
C253 N254 1.365 . S
C253 C256 1.405 . S
C253 C260 1.448 . S
N254 C253 1.365 . S
N254 C257 1.319 . S
N254 Eu263 2.600 . S
C255 C257 1.397 . S
C255 C258 1.367 . S
C255 H275 0.931 . S
C256 C253 1.405 . S
C256 C258 1.403 . S
C256 C262 1.439 . S
C257 N254 1.319 . S
C257 C255 1.397 . S
C257 H268 0.930 . S
C258 C255 1.367 . S
C258 C256 1.403 . S
C258 H279 0.929 . S
C259 C260 1.430 . S
C259 C261 1.387 . S
C259 C265 1.404 . S
C260 C253 1.448 . S
C260 C259 1.430 . S
C260 N264 1.351 . S
C261 C259 1.387 . S
C261 C262 1.374 . S
C261 H276 0.931 . S
C262 C256 1.439 . S
C262 C261 1.374 . S
C262 H277 0.931 . S
Eu263 N254 2.600 . S
Eu263 N264 2.562 . S
Eu263 O298 2.335 1_655 S
Eu263 O301 2.372 . S
Eu263 O302 2.462 . S
Eu263 O303 2.373 . S
Eu263 O305 2.432 . S
Eu263 O306 2.291 . S
Eu263 C327 2.787 . S
N264 C260 1.351 . S
N264 Eu263 2.562 . S
N264 C266 1.325 . S
C265 C259 1.404 . S
C265 C267 1.366 . S
C265 H273 0.930 . S
C266 N264 1.325 . S
C266 C267 1.416 . S
C266 H272 0.929 . S
C267 C265 1.366 . S
C267 C266 1.416 . S
C267 H269 0.930 . S
H268 C257 0.930 . S
H269 C267 0.930 . S
H270 C285 0.930 . S
H271 C292 0.930 1_565 S
H272 C266 0.929 . S
H273 C265 0.930 . S
H274 C288 0.929 . S
H275 C255 0.931 . S
H276 C261 0.931 . S
H277 C262 0.931 . S
H278 C283 0.931 . S
H279 C258 0.929 . S
H280 C291 0.930 . S
N281 Eu252 2.600 1_545 S
N281 C282 1.365 . S
N281 C285 1.319 . S
C282 N281 1.365 . S
C282 C284 1.405 . S
C282 C290 1.448 . S
C283 H278 0.931 . S
C283 C285 1.397 . S
C283 C286 1.367 . S
C284 C282 1.405 . S
C284 C286 1.403 . S
C284 C317 1.439 . S
C285 H270 0.930 . S
C285 N281 1.319 . S
C285 C283 1.397 . S
C286 C283 1.367 . S
C286 C284 1.403 . S
C286 H293 0.929 . S
N287 Eu252 2.562 1_545 S
N287 C288 1.325 1_545 S
N287 C290 1.351 . S
C288 H274 0.929 . S
C288 N287 1.325 1_565 S
C288 C292 1.416 1_565 S
C289 C290 1.430 . S
C289 C291 1.404 . S
C289 C318 1.387 . S
C290 C282 1.448 . S
C290 N287 1.351 . S
C290 C289 1.430 . S
C291 H280 0.930 . S
C291 C289 1.404 . S
C291 C292 1.366 . S
C292 H271 0.930 1_545 S
C292 C288 1.416 1_545 S
C292 C291 1.366 . S
H293 C286 0.929 . S
H294 C317 0.931 . S
H295 C318 0.931 . S
O296 Eu252 2.462 . S
O296 C316 1.252 1_565 S
O297 Eu252 2.373 . S
O297 C308 1.249 . S
O298 Eu263 2.335 1_455 S
O298 C308 1.264 . S
O299 Eu252 2.432 1_545 S
O299 C316 1.268 . S
O300 Eu252 2.291 . S
O300 C315 1.255 1_455 S
O301 Eu263 2.372 . S
O301 C315 1.257 . S
O302 Eu263 2.462 . S
O302 C327 1.252 . S
O303 Eu263 2.373 . S
O303 C319 1.249 . S
O304 Eu252 2.333 1_655 S
O304 C319 1.266 . S
O305 Eu263 2.432 . S
O305 C327 1.268 . S
O306 Eu263 2.291 . S
O306 C326 1.255 1_655 S
O307 Eu252 2.372 . S
O307 C326 1.257 . S
C308 O297 1.249 . S
C308 O298 1.264 . S
C309 C312 1.382 . S
C309 C314 1.390 1_545 S
C309 C316 1.506 . S
C310 C311 1.398 . S
C310 C314 1.392 1_545 S
C311 C310 1.398 . S
C311 C313 1.372 . S
C311 H328 0.931 . S
C312 C309 1.382 . S
C312 C313 1.390 . S
C312 H329 0.931 . S
C313 C311 1.372 . S
C313 C312 1.390 . S
C313 H330 0.929 . S
C314 C309 1.390 1_565 S
C314 C310 1.392 1_565 S
C314 H331 0.930 . S
C315 O300 1.255 1_655 S
C315 O301 1.257 . S
C316 Eu252 2.787 1_545 S
C316 O296 1.252 1_545 S
C316 O299 1.268 . S
C316 C309 1.506 . S
C317 C284 1.439 . S
C317 H294 0.931 . S
C317 C318 1.374 . S
C318 C289 1.387 . S
C318 H295 0.931 . S
C318 C317 1.374 . S
C319 O303 1.249 . S
C319 O304 1.266 . S
C320 C323 1.382 . S
C320 C324 1.390 . S
C320 C327 1.506 . S
C321 C322 1.398 . S
C321 C324 1.392 . S
C322 C321 1.398 . S
C322 C325 1.372 . S
C322 H332 0.931 . S
C323 C320 1.382 . S
C323 C325 1.390 . S
C323 H333 0.931 . S
C324 C320 1.390 . S
C324 C321 1.392 . S
C324 H334 0.930 . S
C325 C322 1.372 . S
C325 C323 1.390 . S
C325 H335 0.929 . S
C326 O306 1.255 1_455 S
C326 O307 1.257 . S
C327 Eu263 2.787 . S
C327 O302 1.252 . S
C327 O305 1.268 . S
C327 C320 1.506 . S
H328 C311 0.931 . S
H329 C312 0.931 . S
H330 C313 0.929 . S
H331 C314 0.930 . S
H332 C322 0.931 . S
H333 C323 0.931 . S
H334 C324 0.930 . S
H335 C325 0.929 . S
H336 C354 0.951 1_565 S
H337 C356 0.951 . S
H338 C358 0.950 . S
H339 C359 0.950 . S
H340 C361 0.950 . S
H341 C364 0.950 . S
H342 C365 0.950 . S
H343 C367 0.950 1_556 S
H344 C368 0.950 . S
H345 C369 0.951 . S
H346 C371 0.951 . S
H347 C373 0.950 . S
H348 C374 0.950 . S
H349 C376 0.950 . S
H350 C379 0.950 . S
H351 C380 0.950 . S
H352 C382 0.950 . S
H353 C383 0.950 . S
C354 H336 0.951 1_545 S
C354 C355 1.361 . S
C354 C356 1.388 1_655 S
C355 C354 1.361 . S
C355 C359 1.384 . S
C356 H337 0.951 . S
C356 C354 1.388 1_455 S
C356 C357 1.366 . S
C357 C356 1.366 . S
C357 C358 1.414 . S
C357 C360 1.499 . S
C358 H338 0.950 . S
C358 C357 1.414 . S
C358 C359 1.374 1_455 S
C359 H339 0.950 . S
C359 C355 1.384 . S
C359 C358 1.374 1_655 S
C360 C357 1.499 . S
C360 C361 1.373 . S
C360 C362 1.389 . S
C361 H340 0.950 . S
C361 C360 1.373 . S
C361 C377 1.377 . S
C362 C360 1.389 . S
C362 C363 1.524 . S
C362 C376 1.377 . S
C363 C362 1.524 . S
C363 C364 1.397 1_445 S
C363 C368 1.363 . S
C364 H341 0.950 . S
C364 C363 1.397 1_665 S
C364 C365 1.334 . S
C365 H342 0.950 . S
C365 C364 1.334 . S
C365 C366 1.287 . S
C366 C365 1.287 . S
C366 C367 1.524 1_655 S
C366 H385 0.913 . S
C367 H343 0.950 1_554 S
C367 C366 1.524 1_455 S
C367 C368 1.415 1_565 S
C368 H344 0.950 . S
C368 C363 1.363 . S
C368 C367 1.415 1_545 S
C369 H345 0.951 . S
C369 C370 1.366 . S
C369 C371 1.388 . S
C370 C369 1.366 . S
C370 C374 1.385 . S
C371 H346 0.951 . S
C371 C369 1.388 . S
C371 C372 1.366 . S
C372 C371 1.366 . S
C372 C373 1.414 . S
C372 C375 1.499 . S
C373 H347 0.950 . S
C373 C372 1.414 . S
C373 C374 1.374 . S
C374 H348 0.950 . S
C374 C370 1.385 . S
C374 C373 1.374 . S
C375 C372 1.499 . S
C375 C376 1.373 . S
C375 C377 1.389 . S
C376 H349 0.950 . S
C376 C362 1.377 . S
C376 C375 1.373 . S
C377 C361 1.377 . S
C377 C375 1.389 . S
C377 C378 1.524 . S
C378 C377 1.524 . S
C378 C379 1.397 . S
C378 C383 1.363 . S
C379 H350 0.950 . S
C379 C378 1.397 . S
C379 C380 1.334 . S
C380 H351 0.950 . S
C380 C379 1.334 . S
C380 C381 1.287 . S
C381 C380 1.287 . S
C381 C382 1.524 . S
C381 H384 0.999 . S
C382 H352 0.950 . S
C382 C381 1.524 . S
C382 C383 1.415 . S
C383 H353 0.950 . S
C383 C378 1.363 . S
C383 C382 1.415 . S
H384 C381 0.999 . S
H385 C366 0.913 . S
H386 C404 0.951 . S
H387 C406 0.951 . S
H388 C408 0.950 . S
H389 C409 0.950 . S
H390 C411 0.950 . S
H391 C414 0.950 1_655 S
H392 C415 0.950 1_565 S
H393 C417 0.950 . S
H394 C418 0.950 . S
H395 C419 0.951 . S
H396 C421 0.951 . S
H397 C423 0.950 . S
H398 C424 0.950 . S
H399 C426 0.950 . S
H400 C429 0.950 . S
H401 C430 0.950 . S
H402 C432 0.950 . S
H403 C433 0.950 . S
C404 H386 0.951 . S
C404 C405 1.366 . S
C404 C406 1.388 1_565 S
C405 C404 1.366 . S
C405 C409 1.383 1_455 S
C406 H387 0.951 . S
C406 C404 1.388 1_545 S
C406 C407 1.366 . S
C407 C406 1.366 . S
C407 C408 1.414 1_545 S
C407 C410 1.499 . S
C408 H388 0.950 . S
C408 C407 1.414 1_565 S
C408 C409 1.374 1_455 S
C409 H389 0.950 . S
C409 C405 1.383 1_655 S
C409 C408 1.374 1_655 S
C410 C407 1.499 . S
C410 C411 1.373 . S
C410 C412 1.389 . S
C411 H390 0.950 . S
C411 C410 1.373 . S
C411 C427 1.377 . S
C412 C410 1.389 . S
C412 C413 1.524 . S
C412 C426 1.377 . S
C413 C412 1.524 . S
C413 C414 1.397 . S
C413 C418 1.363 . S
C414 H391 0.950 1_455 S
C414 C413 1.397 . S
C414 C415 1.334 1_455 S
C415 H392 0.950 1_545 S
C415 C414 1.334 1_655 S
C415 C416 1.287 . S
C416 C415 1.287 . S
C416 C417 1.524 1_655 S
C416 H435 0.913 . S
C417 H393 0.950 . S
C417 C416 1.524 1_455 S
C417 C418 1.415 . S
C418 H394 0.950 . S
C418 C413 1.363 . S
C418 C417 1.415 . S
C419 H395 0.951 . S
C419 C420 1.366 . S
C419 C421 1.388 . S
C420 C419 1.366 . S
C420 C424 1.385 . S
C421 H396 0.951 . S
C421 C419 1.388 . S
C421 C422 1.366 . S
C422 C421 1.366 . S
C422 C423 1.414 . S
C422 C425 1.499 . S
C423 H397 0.950 . S
C423 C422 1.414 . S
C423 C424 1.374 . S
C424 H398 0.950 . S
C424 C420 1.385 . S
C424 C423 1.374 . S
C425 C422 1.499 . S
C425 C426 1.373 . S
C425 C427 1.389 . S
C426 H399 0.950 . S
C426 C412 1.377 . S
C426 C425 1.373 . S
C427 C411 1.377 . S
C427 C425 1.389 . S
C427 C428 1.524 . S
C428 C427 1.524 . S
C428 C429 1.397 . S
C428 C433 1.363 . S
C429 H400 0.950 . S
C429 C428 1.397 . S
C429 C430 1.334 . S
C430 H401 0.950 . S
C430 C429 1.334 . S
C430 C431 1.287 . S
C431 C430 1.287 . S
C431 C432 1.524 . S
C431 H434 0.999 . S
C432 H402 0.950 . S
C432 C431 1.524 . S
C432 C433 1.415 . S
C433 H403 0.950 . S
C433 C428 1.363 . S
C433 C432 1.415 . S
H434 C431 0.999 . S
H435 C416 0.913 . S
H436 C454 0.951 . S
H437 C456 0.951 . S
H438 C458 0.950 . S
H439 C459 0.950 1_565 S
H440 C461 0.950 . S
H441 C464 0.951 . S
H442 C465 0.950 . S
H443 C467 0.950 . S
H444 C468 0.950 . S
H445 C469 0.951 . S
H446 C471 0.951 . S
H447 C473 0.950 . S
H448 C474 0.950 . S
H449 C476 0.950 . S
H450 C479 0.950 . S
H451 C480 0.950 . S
H452 C482 0.950 . S
H453 C483 0.950 . S
C454 H436 0.951 . S
C454 C455 1.366 . S
C454 C456 1.388 . S
C455 C454 1.366 . S
C455 C459 1.385 . S
C456 H437 0.951 . S
C456 C454 1.388 . S
C456 C457 1.366 . S
C457 C456 1.366 . S
C457 C458 1.414 . S
C457 C460 1.499 . S
C458 H438 0.950 . S
C458 C457 1.414 . S
C458 C459 1.374 . S
C459 H439 0.950 1_545 S
C459 C455 1.385 . S
C459 C458 1.374 . S
C460 C457 1.499 . S
C460 C461 1.373 . S
C460 C462 1.389 . S
C461 H440 0.950 . S
C461 C460 1.373 . S
C461 C477 1.377 . S
C462 C460 1.389 . S
C462 C463 1.524 . S
C462 C476 1.377 . S
C463 C462 1.524 . S
C463 C464 1.388 1_545 S
C463 C468 1.363 . S
C464 H441 0.951 . S
C464 C463 1.388 1_565 S
C464 C465 1.341 . S
C465 H442 0.950 . S
C465 C464 1.341 . S
C465 C466 1.287 . S
C466 C465 1.287 . S
C466 C467 1.524 1_565 S
C466 H485 0.913 . S
C467 H443 0.950 . S
C467 C466 1.524 1_545 S
C467 C468 1.415 . S
C468 H444 0.950 . S
C468 C463 1.363 . S
C468 C467 1.415 . S
C469 H445 0.951 . S
C469 C470 1.366 . S
C469 C471 1.388 . S
C470 C469 1.366 . S
C470 C474 1.385 . S
C471 H446 0.951 . S
C471 C469 1.388 . S
C471 C472 1.366 . S
C472 C471 1.366 . S
C472 C473 1.414 . S
C472 C475 1.499 . S
C473 H447 0.950 . S
C473 C472 1.414 . S
C473 C474 1.374 . S
C474 H448 0.950 . S
C474 C470 1.385 . S
C474 C473 1.374 . S
C475 C472 1.499 . S
C475 C476 1.373 . S
C475 C477 1.389 . S
C476 H449 0.950 . S
C476 C462 1.377 . S
C476 C475 1.373 . S
C477 C461 1.377 . S
C477 C475 1.389 . S
C477 C478 1.524 . S
C478 C477 1.524 . S
C478 C479 1.397 . S
C478 C483 1.363 1_554 S
C479 H450 0.950 . S
C479 C478 1.397 . S
C479 C480 1.334 1_655 S
C480 H451 0.950 . S
C480 C479 1.334 1_455 S
C480 C481 1.287 1_554 S
C481 C480 1.287 1_556 S
C481 C482 1.524 1_455 S
C481 H484 0.999 . S
C482 H452 0.950 . S
C482 C481 1.524 1_655 S
C482 C483 1.415 . S
C483 H453 0.950 . S
C483 C478 1.363 1_556 S
C483 C482 1.415 . S
H484 C481 0.999 . S
H485 C466 0.913 . S
H486 C504 0.951 . S
H487 C506 0.951 . S
H488 C508 0.950 . S
H489 C509 0.950 . S
H490 C511 0.950 . S
H491 C514 0.950 . S
H492 C515 0.950 . S
H493 C517 0.950 . S
H494 C518 0.950 . S
H495 C519 0.951 1_655 S
H496 C521 0.951 . S
H497 C523 0.950 . S
H498 C524 0.950 . S
H499 C526 0.950 . S
H500 C529 0.950 . S
H501 C530 0.950 1_545 S
H502 C532 0.950 . S
H503 C533 0.950 . S
C504 H486 0.951 . S
C504 C505 1.366 . S
C504 C506 1.388 . S
C505 C504 1.366 . S
C505 C509 1.385 . S
C506 H487 0.951 . S
C506 C504 1.388 . S
C506 C507 1.366 . S
C507 C506 1.366 . S
C507 C508 1.414 . S
C507 C510 1.499 . S
C508 H488 0.950 . S
C508 C507 1.414 . S
C508 C509 1.374 . S
C509 H489 0.950 . S
C509 C505 1.385 . S
C509 C508 1.374 . S
C510 C507 1.499 . S
C510 C511 1.373 . S
C510 C512 1.389 . S
C511 H490 0.950 . S
C511 C510 1.373 . S
C511 C527 1.377 . S
C512 C510 1.389 . S
C512 C513 1.524 . S
C512 C526 1.377 . S
C513 C512 1.524 . S
C513 C514 1.397 . S
C513 C518 1.363 . S
C514 H491 0.950 . S
C514 C513 1.397 . S
C514 C515 1.334 . S
C515 H492 0.950 . S
C515 C514 1.334 . S
C515 C516 1.287 . S
C516 C515 1.287 . S
C516 C517 1.524 . S
C516 H535 0.913 . S
C517 H493 0.950 . S
C517 C516 1.524 . S
C517 C518 1.415 . S
C518 H494 0.950 . S
C518 C513 1.363 . S
C518 C517 1.415 . S
C519 H495 0.951 1_455 S
C519 C520 1.366 . S
C519 C521 1.388 . S
C520 C519 1.366 . S
C520 C524 1.385 . S
C521 H496 0.951 . S
C521 C519 1.388 . S
C521 C522 1.366 . S
C522 C521 1.366 . S
C522 C523 1.414 . S
C522 C525 1.499 . S
C523 H497 0.950 . S
C523 C522 1.414 . S
C523 C524 1.374 . S
C524 H498 0.950 . S
C524 C520 1.385 . S
C524 C523 1.374 . S
C525 C522 1.499 . S
C525 C526 1.373 . S
C525 C527 1.389 . S
C526 H499 0.950 . S
C526 C512 1.377 . S
C526 C525 1.373 . S
C527 C511 1.377 . S
C527 C525 1.389 . S
C527 C528 1.524 . S
C528 C527 1.524 . S
C528 C529 1.397 . S
C528 C533 1.363 . S
C529 H500 0.950 . S
C529 C528 1.397 . S
C529 C530 1.334 . S
C530 H501 0.950 1_565 S
C530 C529 1.334 . S
C530 C531 1.287 . S
C531 C530 1.287 . S
C531 C532 1.524 . S
C531 H534 0.999 . S
C532 H502 0.950 . S
C532 C531 1.524 . S
C532 C533 1.415 . S
C533 H503 0.950 . S
C533 C528 1.363 . S
C533 C532 1.415 . S
H534 C531 0.999 . S
H535 C516 0.913 . S
H536 C554 0.951 . S
H537 C556 0.951 . S
H538 C558 0.950 . S
H539 C559 0.950 . S
H540 C561 0.950 . S
H541 C564 0.950 . S
H542 C565 0.950 . S
H543 C567 0.950 . S
H544 C568 0.950 . S
H545 C569 0.951 . S
H546 C571 0.951 . S
H547 C573 0.950 . S
H548 C574 0.950 . S
H549 C576 0.950 . S
H550 C579 0.950 . S
H551 C580 0.950 . S
H552 C582 0.950 1_455 S
H553 C583 0.950 . S
C554 H536 0.951 . S
C554 C555 1.366 . S
C554 C556 1.388 . S
C555 C554 1.366 . S
C555 C559 1.385 . S
C556 H537 0.951 . S
C556 C554 1.388 . S
C556 C557 1.366 . S
C557 C556 1.366 . S
C557 C558 1.414 . S
C557 C560 1.499 . S
C558 H538 0.950 . S
C558 C557 1.414 . S
C558 C559 1.374 . S
C559 H539 0.950 . S
C559 C555 1.385 . S
C559 C558 1.374 . S
C560 C557 1.499 . S
C560 C561 1.373 . S
C560 C562 1.389 . S
C561 H540 0.950 . S
C561 C560 1.373 . S
C561 C577 1.377 . S
C562 C560 1.389 . S
C562 C563 1.524 . S
C562 C576 1.377 . S
C563 C562 1.524 . S
C563 C564 1.397 . S
C563 C568 1.363 . S
C564 H541 0.950 . S
C564 C563 1.397 . S
C564 C565 1.334 . S
C565 H542 0.950 . S
C565 C564 1.334 . S
C565 C566 1.287 . S
C566 C565 1.287 . S
C566 C567 1.524 . S
C566 H585 0.913 . S
C567 H543 0.950 . S
C567 C566 1.524 . S
C567 C568 1.415 . S
C568 H544 0.950 . S
C568 C563 1.363 . S
C568 C567 1.415 . S
C569 H545 0.951 . S
C569 C570 1.366 . S
C569 C571 1.388 . S
C570 C569 1.366 . S
C570 C574 1.385 . S
C571 H546 0.951 . S
C571 C569 1.388 . S
C571 C572 1.366 . S
C572 C571 1.366 . S
C572 C573 1.414 . S
C572 C575 1.499 . S
C573 H547 0.950 . S
C573 C572 1.414 . S
C573 C574 1.374 . S
C574 H548 0.950 . S
C574 C570 1.385 . S
C574 C573 1.374 . S
C575 C572 1.499 . S
C575 C576 1.373 . S
C575 C577 1.389 . S
C576 H549 0.950 . S
C576 C562 1.377 . S
C576 C575 1.373 . S
C577 C561 1.377 . S
C577 C575 1.389 . S
C577 C578 1.524 . S
C578 C577 1.524 . S
C578 C579 1.397 . S
C578 C583 1.363 . S
C579 H550 0.950 . S
C579 C578 1.397 . S
C579 C580 1.334 . S
C580 H551 0.950 . S
C580 C579 1.334 . S
C580 C581 1.287 . S
C581 C580 1.287 . S
C581 C582 1.524 1_565 S
C581 H584 0.999 1_565 S
C582 H552 0.950 1_655 S
C582 C581 1.524 1_545 S
C582 C583 1.415 1_545 S
C583 H553 0.950 . S
C583 C578 1.363 . S
C583 C582 1.415 1_565 S
H584 C581 0.999 1_545 S
H585 C566 0.913 . S
H586 C604 0.951 . S
H587 C606 0.951 . S
H588 C608 0.950 . S
H589 C609 0.950 . S
H590 C611 0.950 . S
H591 C614 0.950 . S
H592 C615 0.950 . S
H593 C617 0.950 . S
H594 C618 0.950 . S
H595 C619 0.951 . S
H596 C621 0.951 . S
H597 C623 0.950 . S
H598 C624 0.950 . S
H599 C626 0.950 . S
H600 C629 0.950 . S
H601 C630 0.950 . S
H602 C632 0.950 . S
H603 C633 0.950 . S
C604 H586 0.951 . S
C604 C605 1.366 . S
C604 C606 1.388 . S
C605 C604 1.366 . S
C605 C609 1.385 . S
C606 H587 0.951 . S
C606 C604 1.388 . S
C606 C607 1.366 . S
C607 C606 1.366 . S
C607 C608 1.414 . S
C607 C610 1.499 . S
C608 H588 0.950 . S
C608 C607 1.414 . S
C608 C609 1.374 . S
C609 H589 0.950 . S
C609 C605 1.385 . S
C609 C608 1.374 . S
C610 C607 1.499 . S
C610 C611 1.373 . S
C610 C612 1.389 . S
C611 H590 0.950 . S
C611 C610 1.373 . S
C611 C627 1.377 . S
C612 C610 1.389 . S
C612 C613 1.524 . S
C612 C626 1.377 . S
C613 C612 1.524 . S
C613 C614 1.397 . S
C613 C618 1.363 . S
C614 H591 0.950 . S
C614 C613 1.397 . S
C614 C615 1.334 . S
C615 H592 0.950 . S
C615 C614 1.334 . S
C615 C616 1.287 . S
C616 C615 1.287 . S
C616 C617 1.524 . S
C616 H635 0.913 . S
C617 H593 0.950 . S
C617 C616 1.524 . S
C617 C618 1.415 . S
C618 H594 0.950 . S
C618 C613 1.363 . S
C618 C617 1.415 . S
C619 H595 0.951 . S
C619 C620 1.366 1_655 S
C619 C621 1.388 . S
C620 C619 1.366 1_455 S
C620 C624 1.385 . S
C621 H596 0.951 . S
C621 C619 1.388 . S
C621 C622 1.366 1_655 S
C622 C621 1.366 1_455 S
C622 C623 1.414 . S
C622 C625 1.499 . S
C623 H597 0.950 . S
C623 C622 1.414 . S
C623 C624 1.374 . S
C624 H598 0.950 . S
C624 C620 1.385 . S
C624 C623 1.374 . S
C625 C622 1.499 . S
C625 C626 1.373 . S
C625 C627 1.389 . S
C626 H599 0.950 . S
C626 C612 1.377 . S
C626 C625 1.373 . S
C627 C611 1.377 . S
C627 C625 1.389 . S
C627 C628 1.524 . S
C628 C627 1.524 . S
C628 C629 1.397 . S
C628 C633 1.363 1_455 S
C629 H600 0.950 . S
C629 C628 1.397 . S
C629 C630 1.334 . S
C630 H601 0.950 . S
C630 C629 1.334 . S
C630 C631 1.287 1_455 S
C631 C630 1.287 1_655 S
C631 C632 1.524 . S
C631 H634 0.999 . S
C632 H602 0.950 . S
C632 C631 1.524 . S
C632 C633 1.415 . S
C633 H603 0.950 . S
C633 C628 1.363 1_655 S
C633 C632 1.415 . S
H634 C631 0.999 . S
H635 C616 0.913 . S
H636 C654 0.951 . S
H637 C656 0.951 . S
H638 C658 0.950 . S
H639 C659 0.950 . S
H640 C661 0.950 . S
H641 C664 0.950 . S
H642 C665 0.950 . S
H643 C667 0.950 . S
H644 C668 0.950 . S
H645 C669 0.951 . S
H646 C671 0.951 . S
H647 C673 0.950 . S
H648 C674 0.950 . S
H649 C676 0.950 . S
H650 C679 0.950 . S
H651 C680 0.950 . S
H652 C682 0.950 . S
H653 C683 0.950 . S
C654 H636 0.951 . S
C654 C655 1.366 . S
C654 C656 1.388 . S
C655 C654 1.366 . S
C655 C659 1.385 . S
C656 H637 0.951 . S
C656 C654 1.388 . S
C656 C657 1.366 . S
C657 C656 1.366 . S
C657 C658 1.414 . S
C657 C660 1.499 . S
C658 H638 0.950 . S
C658 C657 1.414 . S
C658 C659 1.374 . S
C659 H639 0.950 . S
C659 C655 1.385 . S
C659 C658 1.374 . S
C660 C657 1.499 . S
C660 C661 1.373 . S
C660 C662 1.389 . S
C661 H640 0.950 . S
C661 C660 1.373 . S
C661 C677 1.377 . S
C662 C660 1.389 . S
C662 C663 1.524 . S
C662 C676 1.377 . S
C663 C662 1.524 . S
C663 C664 1.397 . S
C663 C668 1.363 . S
C664 H641 0.950 . S
C664 C663 1.397 . S
C664 C665 1.334 . S
C665 H642 0.950 . S
C665 C664 1.334 . S
C665 C666 1.287 . S
C666 C665 1.287 . S
C666 C667 1.524 . S
C666 H685 0.913 . S
C667 H643 0.950 . S
C667 C666 1.524 . S
C667 C668 1.415 . S
C668 H644 0.950 . S
C668 C663 1.363 . S
C668 C667 1.415 . S
C669 H645 0.951 . S
C669 C670 1.366 . S
C669 C671 1.388 . S
C670 C669 1.366 . S
C670 C674 1.385 . S
C671 H646 0.951 . S
C671 C669 1.388 . S
C671 C672 1.366 . S
C672 C671 1.366 . S
C672 C673 1.414 . S
C672 C675 1.499 . S
C673 H647 0.950 . S
C673 C672 1.414 . S
C673 C674 1.374 . S
C674 H648 0.950 . S
C674 C670 1.385 . S
C674 C673 1.374 . S
C675 C672 1.499 . S
C675 C676 1.373 . S
C675 C677 1.389 . S
C676 H649 0.950 . S
C676 C662 1.377 . S
C676 C675 1.373 . S
C677 C661 1.377 . S
C677 C675 1.389 . S
C677 C678 1.524 . S
C678 C677 1.524 . S
C678 C679 1.397 . S
C678 C683 1.363 . S
C679 H650 0.950 . S
C679 C678 1.397 . S
C679 C680 1.334 . S
C680 H651 0.950 . S
C680 C679 1.334 . S
C680 C681 1.287 . S
C681 C680 1.287 . S
C681 C682 1.524 . S
C681 H684 0.999 . S
C682 H652 0.950 . S
C682 C681 1.524 . S
C682 C683 1.415 . S
C683 H653 0.950 . S
C683 C678 1.363 . S
C683 C682 1.415 . S
H684 C681 0.999 . S
H685 C666 0.913 . S
H686 C704 0.951 . S
H687 C706 0.951 . S
H688 C708 0.950 . S
H689 C709 0.950 . S
H690 C711 0.950 . S
H691 C714 0.950 . S
H692 C715 0.950 . S
H693 C717 0.950 . S
H694 C718 0.950 . S
H695 C719 0.951 . S
H696 C721 0.951 . S
H697 C723 0.950 . S
H698 C724 0.950 . S
H699 C726 0.950 . S
H700 C729 0.950 . S
H701 C730 0.950 . S
H702 C732 0.950 . S
H703 C733 0.950 . S
C704 H686 0.951 . S
C704 C705 1.366 . S
C704 C706 1.388 . S
C705 C704 1.366 . S
C705 C709 1.385 1_545 S
C706 H687 0.951 . S
C706 C704 1.388 . S
C706 C707 1.366 . S
C707 C706 1.366 . S
C707 C708 1.414 . S
C707 C710 1.499 . S
C708 H688 0.950 . S
C708 C707 1.414 . S
C708 C709 1.374 1_545 S
C709 H689 0.950 . S
C709 C705 1.385 1_565 S
C709 C708 1.374 1_565 S
C710 C707 1.499 . S
C710 C711 1.373 . S
C710 C712 1.389 . S
C711 H690 0.950 . S
C711 C710 1.373 . S
C711 C727 1.377 . S
C712 C710 1.389 . S
C712 C713 1.524 . S
C712 C726 1.377 . S
C713 C712 1.524 . S
C713 C714 1.397 1_545 S
C713 C718 1.363 . S
C714 H691 0.950 . S
C714 C713 1.397 1_565 S
C714 C715 1.334 . S
C715 H692 0.950 . S
C715 C714 1.334 . S
C715 C716 1.287 . S
C716 C715 1.287 . S
C716 C717 1.524 1_565 S
C716 H735 0.913 . S
C717 H693 0.950 . S
C717 C716 1.524 1_545 S
C717 C718 1.415 . S
C718 H694 0.950 . S
C718 C713 1.363 . S
C718 C717 1.415 . S
C719 H695 0.951 . S
C719 C720 1.366 . S
C719 C721 1.388 1_554 S
C720 C719 1.366 . S
C720 C724 1.385 1_554 S
C721 H696 0.951 . S
C721 C719 1.388 1_556 S
C721 C722 1.366 . S
C722 C721 1.366 . S
C722 C723 1.414 . S
C722 C725 1.499 . S
C723 H697 0.950 . S
C723 C722 1.414 . S
C723 C724 1.374 . S
C724 H698 0.950 . S
C724 C720 1.385 1_556 S
C724 C723 1.374 . S
C725 C722 1.499 . S
C725 C726 1.373 . S
C725 C727 1.389 . S
C726 H699 0.950 . S
C726 C712 1.377 . S
C726 C725 1.373 . S
C727 C711 1.377 . S
C727 C725 1.389 . S
C727 C728 1.524 . S
C728 C727 1.524 . S
C728 C729 1.397 . S
C728 C733 1.363 . S
C729 H700 0.950 . S
C729 C728 1.397 . S
C729 C730 1.334 . S
C730 H701 0.950 . S
C730 C729 1.334 . S
C730 C731 1.287 . S
C731 C730 1.287 . S
C731 C732 1.524 . S
C731 H734 0.999 . S
C732 H702 0.950 . S
C732 C731 1.524 . S
C732 C733 1.415 . S
C733 H703 0.950 . S
C733 C728 1.363 . S
C733 C732 1.415 . S
H734 C731 0.999 . S
H735 C716 0.913 . S
H736 C754 0.951 . S
H737 C756 0.951 . S
H738 C758 0.950 . S
H739 C759 0.950 . S
H740 C761 0.950 . S
H741 C764 0.950 . S
H742 C765 0.950 . S
H743 C767 0.950 . S
H744 C768 0.950 . S
H745 C769 0.951 . S
H746 C771 0.951 . S
H747 C773 0.950 . S
H748 C774 0.950 . S
H749 C776 0.950 . S
H750 C779 0.950 1_455 S
H751 C780 0.950 . S
H752 C782 0.950 . S
H753 C783 0.950 . S
C754 H736 0.951 . S
C754 C755 1.366 . S
C754 C756 1.388 . S
C755 C754 1.366 . S
C755 C759 1.385 . S
C756 H737 0.951 . S
C756 C754 1.388 . S
C756 C757 1.366 . S
C757 C756 1.366 . S
C757 C758 1.414 . S
C757 C760 1.499 . S
C758 H738 0.950 . S
C758 C757 1.414 . S
C758 C759 1.374 . S
C759 H739 0.950 . S
C759 C755 1.385 . S
C759 C758 1.374 . S
C760 C757 1.499 . S
C760 C761 1.373 . S
C760 C762 1.389 . S
C761 H740 0.950 . S
C761 C760 1.373 . S
C761 C777 1.377 . S
C762 C760 1.389 . S
C762 C763 1.524 . S
C762 C776 1.377 . S
C763 C762 1.524 . S
C763 C764 1.397 . S
C763 C768 1.363 . S
C764 H741 0.950 . S
C764 C763 1.397 . S
C764 C765 1.334 . S
C765 H742 0.950 . S
C765 C764 1.334 . S
C765 C766 1.287 . S
C766 C765 1.287 . S
C766 C767 1.524 . S
C766 H785 0.913 . S
C767 H743 0.950 . S
C767 C766 1.524 . S
C767 C768 1.415 . S
C768 H744 0.950 . S
C768 C763 1.363 . S
C768 C767 1.415 . S
C769 H745 0.951 . S
C769 C770 1.366 . S
C769 C771 1.388 . S
C770 C769 1.366 . S
C770 C774 1.385 . S
C771 H746 0.951 . S
C771 C769 1.388 . S
C771 C772 1.366 . S
C772 C771 1.366 . S
C772 C773 1.414 . S
C772 C775 1.499 . S
C773 H747 0.950 . S
C773 C772 1.414 . S
C773 C774 1.374 . S
C774 H748 0.950 . S
C774 C770 1.385 . S
C774 C773 1.374 . S
C775 C772 1.499 . S
C775 C776 1.373 . S
C775 C777 1.389 . S
C776 H749 0.950 . S
C776 C762 1.377 . S
C776 C775 1.373 . S
C777 C761 1.377 . S
C777 C775 1.389 . S
C777 C778 1.524 . S
C778 C777 1.524 . S
C778 C779 1.397 . S
C778 C783 1.363 . S
C779 H750 0.950 1_655 S
C779 C778 1.397 . S
C779 C780 1.334 1_655 S
C780 H751 0.950 . S
C780 C779 1.334 1_455 S
C780 C781 1.287 . S
C781 C780 1.287 . S
C781 C782 1.524 1_455 S
C781 H784 0.999 . S
C782 H752 0.950 . S
C782 C781 1.524 1_655 S
C782 C783 1.415 . S
C783 H753 0.950 . S
C783 C778 1.363 . S
C783 C782 1.415 . S
H784 C781 0.999 . S
H785 C766 0.913 . S
H786 C804 0.951 . S
H787 C806 0.951 1_565 S
H788 C808 0.950 . S
H789 C809 0.950 . S
H790 C811 0.950 . S
H791 C814 0.950 . S
H792 C815 0.950 . S
H793 C817 0.950 1_655 S
H794 C818 0.950 . S
H795 C819 0.951 1_545 S
H796 C821 0.951 . S
H797 C823 0.950 . S
H798 C824 0.950 . S
H799 C826 0.950 . S
H800 C829 0.950 1_565 S
H801 C830 0.950 1_565 S
H802 C832 0.950 . S
H803 C833 0.950 . S
C804 H786 0.951 . S
C804 C805 1.366 . S
C804 C806 1.388 . S
C805 C804 1.366 . S
C805 C809 1.385 . S
C806 H787 0.951 1_545 S
C806 C804 1.388 . S
C806 C807 1.366 . S
C807 C806 1.366 . S
C807 C808 1.414 . S
C807 C810 1.499 . S
C808 H788 0.950 . S
C808 C807 1.414 . S
C808 C809 1.374 . S
C809 H789 0.950 . S
C809 C805 1.385 . S
C809 C808 1.374 . S
C810 C807 1.499 . S
C810 C811 1.373 . S
C810 C812 1.389 . S
C811 H790 0.950 . S
C811 C810 1.373 . S
C811 C827 1.377 . S
C812 C810 1.389 . S
C812 C813 1.524 1_545 S
C812 C826 1.377 1_545 S
C813 C812 1.524 1_565 S
C813 C814 1.397 1_565 S
C813 C818 1.363 . S
C814 H791 0.950 . S
C814 C813 1.397 1_545 S
C814 C815 1.334 . S
C815 H792 0.950 . S
C815 C814 1.334 . S
C815 C816 1.287 1_545 S
C816 C815 1.287 1_565 S
C816 C817 1.524 . S
C816 H835 0.913 . S
C817 H793 0.950 1_455 S
C817 C816 1.524 . S
C817 C818 1.415 . S
C818 H794 0.950 . S
C818 C813 1.363 . S
C818 C817 1.415 . S
C819 H795 0.951 1_565 S
C819 C820 1.366 . S
C819 C821 1.388 1_565 S
C820 C819 1.366 . S
C820 C824 1.385 . S
C821 H796 0.951 . S
C821 C819 1.388 1_545 S
C821 C822 1.366 1_545 S
C822 C821 1.366 1_565 S
C822 C823 1.414 . S
C822 C825 1.499 1_565 S
C823 H797 0.950 . S
C823 C822 1.414 . S
C823 C824 1.374 . S
C824 H798 0.950 . S
C824 C820 1.385 . S
C824 C823 1.374 . S
C825 C822 1.499 1_545 S
C825 C826 1.373 1_545 S
C825 C827 1.389 . S
C826 H799 0.950 . S
C826 C812 1.377 1_565 S
C826 C825 1.373 1_565 S
C827 C811 1.377 . S
C827 C825 1.389 . S
C827 C828 1.524 . S
C828 C827 1.524 . S
C828 C829 1.397 . S
C828 C833 1.363 . S
C829 H800 0.950 1_545 S
C829 C828 1.397 . S
C829 C830 1.334 . S
C830 H801 0.950 1_545 S
C830 C829 1.334 . S
C830 C831 1.287 . S
C831 C830 1.287 . S
C831 C832 1.524 . S
C831 H834 0.999 . S
C832 H802 0.950 . S
C832 C831 1.524 . S
C832 C833 1.415 . S
C833 H803 0.950 . S
C833 C828 1.363 . S
C833 C832 1.415 . S
H834 C831 0.999 . S
H835 C816 0.913 . S
H836 C854 0.951 . S
H837 C856 0.951 . S
H838 C858 0.950 1_545 S
H839 C859 0.950 1_545 S
H840 C861 0.950 1_545 S
H841 C864 0.950 . S
H842 C865 0.950 . S
H843 C867 0.950 . S
H844 C868 0.950 . S
H845 C869 0.951 . S
H846 C871 0.951 . S
H847 C873 0.950 . S
H848 C874 0.950 . S
H849 C876 0.950 . S
H850 C879 0.950 1_565 S
H851 C880 0.950 . S
H852 C882 0.950 . S
H853 C883 0.950 . S
C854 H836 0.951 . S
C854 C855 1.366 . S
C854 C856 1.388 . S
C855 C854 1.366 . S
C855 C859 1.385 . S
C856 H837 0.951 . S
C856 C854 1.388 . S
C856 C857 1.366 . S
C857 C856 1.366 . S
C857 C858 1.414 . S
C857 C860 1.499 . S
C858 H838 0.950 1_565 S
C858 C857 1.414 . S
C858 C859 1.374 . S
C859 H839 0.950 1_565 S
C859 C855 1.385 . S
C859 C858 1.374 . S
C860 C857 1.499 . S
C860 C861 1.373 . S
C860 C862 1.389 . S
C861 H840 0.950 1_565 S
C861 C860 1.373 . S
C861 C877 1.377 . S
C862 C860 1.389 . S
C862 C863 1.524 . S
C862 C876 1.377 . S
C863 C862 1.524 . S
C863 C864 1.397 . S
C863 C868 1.363 . S
C864 H841 0.950 . S
C864 C863 1.397 . S
C864 C865 1.334 . S
C865 H842 0.950 . S
C865 C864 1.334 . S
C865 C866 1.287 . S
C866 C865 1.287 . S
C866 C867 1.524 . S
C866 H885 0.913 . S
C867 H843 0.950 . S
C867 C866 1.524 . S
C867 C868 1.415 . S
C868 H844 0.950 . S
C868 C863 1.363 . S
C868 C867 1.415 . S
C869 H845 0.951 . S
C869 C870 1.366 . S
C869 C871 1.388 . S
C870 C869 1.366 . S
C870 C874 1.385 . S
C871 H846 0.951 . S
C871 C869 1.388 . S
C871 C872 1.366 . S
C872 C871 1.366 . S
C872 C873 1.414 . S
C872 C875 1.499 . S
C873 H847 0.950 . S
C873 C872 1.414 . S
C873 C874 1.374 . S
C874 H848 0.950 . S
C874 C870 1.385 . S
C874 C873 1.374 . S
C875 C872 1.499 . S
C875 C876 1.373 . S
C875 C877 1.389 . S
C876 H849 0.950 . S
C876 C862 1.377 . S
C876 C875 1.373 . S
C877 C861 1.377 . S
C877 C875 1.389 . S
C877 C878 1.524 1_665 S
C878 C877 1.524 1_445 S
C878 C879 1.397 . S
C878 C883 1.363 . S
C879 H850 0.950 1_545 S
C879 C878 1.397 . S
C879 C880 1.334 . S
C880 H851 0.950 . S
C880 C879 1.334 . S
C880 C881 1.287 . S
C881 C880 1.287 . S
C881 C882 1.524 . S
C881 H884 0.999 . S
C882 H852 0.950 . S
C882 C881 1.524 . S
C882 C883 1.415 . S
C883 H853 0.950 . S
C883 C878 1.363 . S
C883 C882 1.415 . S
H884 C881 0.999 . S
H885 C866 0.913 . S
H886 C904 0.951 1_455 S
H887 C906 0.951 . S
H888 C908 0.950 . S
H889 C909 0.950 . S
H890 C911 0.950 . S
H891 C914 0.950 . S
H892 C915 0.950 . S
H893 C917 0.950 . S
H894 C918 0.950 . S
H895 C919 0.951 . S
H896 C921 0.951 1_655 S
H897 C923 0.950 . S
H898 C924 0.950 . S
H899 C926 0.950 . S
H900 C929 0.950 . S
H901 C930 0.950 . S
H902 C932 0.950 . S
H903 C933 0.950 . S
C904 H886 0.951 1_655 S
C904 C905 1.366 . S
C904 C906 1.388 1_655 S
C905 C904 1.366 . S
C905 C909 1.385 . S
C906 H887 0.951 . S
C906 C904 1.388 1_455 S
C906 C907 1.366 1_455 S
C907 C906 1.366 1_655 S
C907 C908 1.414 . S
C907 C910 1.498 . S
C908 H888 0.950 . S
C908 C907 1.414 . S
C908 C909 1.374 . S
C909 H889 0.950 . S
C909 C905 1.385 . S
C909 C908 1.374 . S
C910 C907 1.498 . S
C910 C911 1.372 . S
C910 C912 1.391 1_655 S
C911 H890 0.950 . S
C911 C910 1.372 . S
C911 C927 1.377 1_655 S
C912 C910 1.391 1_455 S
C912 C913 1.524 . S
C912 C926 1.377 . S
C913 C912 1.524 . S
C913 C914 1.397 1_455 S
C913 C918 1.363 . S
C914 H891 0.950 . S
C914 C913 1.397 1_655 S
C914 C915 1.334 . S
C915 H892 0.950 . S
C915 C914 1.334 . S
C915 C916 1.287 1_655 S
C916 C915 1.287 1_455 S
C916 C917 1.524 . S
C916 H935 0.913 . S
C917 H893 0.950 . S
C917 C916 1.524 . S
C917 C918 1.415 . S
C918 H894 0.950 . S
C918 C913 1.363 . S
C918 C917 1.415 . S
C919 H895 0.951 . S
C919 C920 1.366 . S
C919 C921 1.388 . S
C920 C919 1.366 . S
C920 C924 1.385 . S
C921 H896 0.951 1_455 S
C921 C919 1.388 . S
C921 C922 1.366 . S
C922 C921 1.366 . S
C922 C923 1.414 . S
C922 C925 1.499 . S
C923 H897 0.950 . S
C923 C922 1.414 . S
C923 C924 1.374 . S
C924 H898 0.950 . S
C924 C920 1.385 . S
C924 C923 1.374 . S
C925 C922 1.499 . S
C925 C926 1.373 . S
C925 C927 1.389 . S
C926 H899 0.950 . S
C926 C912 1.377 . S
C926 C925 1.373 . S
C927 C911 1.377 1_455 S
C927 C925 1.389 . S
C927 C928 1.524 . S
C928 C927 1.524 . S
C928 C929 1.397 . S
C928 C933 1.363 1_455 S
C929 H900 0.950 . S
C929 C928 1.397 . S
C929 C930 1.334 . S
C930 H901 0.950 . S
C930 C929 1.334 . S
C930 C931 1.287 . S
C931 C930 1.287 . S
C931 C932 1.524 1_455 S
C931 H934 0.999 . S
C932 H902 0.950 . S
C932 C931 1.524 1_655 S
C932 C933 1.415 . S
C933 H903 0.950 . S
C933 C928 1.363 1_655 S
C933 C932 1.415 . S
H934 C931 0.999 . S
H935 C916 0.913 . S
C355 C242 0.434 . S
C370 C63 0.426 . S
C405 C326 0.429 . S
C420 C147 0.427 . S
C455 C231 1.562 1_545 S
C470 C74 1.562 . S
C505 C158 1.563 . S
C520 C315 1.563 1_455 S
C555 C140 1.954 . S
C570 C56 1.954 . S
C605 C151 1.098 . S
C620 C226 0.945 . S
C655 C321 1.855 . S
C670 C237 1.854 . S
C705 C310 0.945 . S
C720 C67 1.098 . S
C755 C235 1.954 1_556 S
C770 C319 1.954 . S
C805 C69 0.948 . S
C820 C308 1.096 . S
C855 C142 1.855 . S
C870 C58 1.855 . S
C905 C224 1.098 . S
C920 C153 0.944 . S
