# Generated by pormake.
# Topology smc, (6)-cn, num edge types: 1
# Building blocks:
#     Node 0, Type 0, BuildingBlock: CUKXOW_clean_sbu_0, # of connection points: 6
#     Node 1, Type 0, BuildingBlock: CUKXOW_clean_sbu_0, # of connection points: 6
#     Node 2, Type 0, BuildingBlock: CUKXOW_clean_sbu_0, # of connection points: 6
#     Node 3, Type 0, BuildingBlock: CUKXOW_clean_sbu_0, # of connection points: 6
#     Node 4, Type 0, BuildingBlock: CUKXOW_clean_sbu_0, # of connection points: 6
#     Node 5, Type 0, BuildingBlock: CUKXOW_clean_sbu_0, # of connection points: 6
#     Node 6, Type 0, BuildingBlock: CUKXOW_clean_sbu_0, # of connection points: 6
#     Node 7, Type 0, BuildingBlock: CUKXOW_clean_sbu_0, # of connection points: 6
#     Node 8, Type 0, BuildingBlock: CUKXOW_clean_sbu_0, # of connection points: 6
#     Edge 9, Type (0, 0), BuildingBlock: EZIPEK_clean_linker_0, # of connection points: 2
#     Edge 10, Type (0, 0), BuildingBlock: EZIPEK_clean_linker_0, # of connection points: 2
#     Edge 11, Type (0, 0), BuildingBlock: EZIPEK_clean_linker_0, # of connection points: 2
#     Edge 12, Type (0, 0), BuildingBlock: EZIPEK_clean_linker_0, # of connection points: 2
#     Edge 13, Type (0, 0), BuildingBlock: EZIPEK_clean_linker_0, # of connection points: 2
#     Edge 14, Type (0, 0), BuildingBlock: EZIPEK_clean_linker_0, # of connection points: 2
#     Edge 15, Type (0, 0), BuildingBlock: EZIPEK_clean_linker_0, # of connection points: 2
#     Edge 16, Type (0, 0), BuildingBlock: EZIPEK_clean_linker_0, # of connection points: 2
#     Edge 17, Type (0, 0), BuildingBlock: EZIPEK_clean_linker_0, # of connection points: 2
#     Edge 18, Type (0, 0), BuildingBlock: EZIPEK_clean_linker_0, # of connection points: 2
#     Edge 19, Type (0, 0), BuildingBlock: EZIPEK_clean_linker_0, # of connection points: 2
#     Edge 20, Type (0, 0), BuildingBlock: EZIPEK_clean_linker_0, # of connection points: 2
#     Edge 21, Type (0, 0), BuildingBlock: EZIPEK_clean_linker_0, # of connection points: 2
#     Edge 22, Type (0, 0), BuildingBlock: EZIPEK_clean_linker_0, # of connection points: 2
#     Edge 23, Type (0, 0), BuildingBlock: EZIPEK_clean_linker_0, # of connection points: 2
#     Edge 24, Type (0, 0), BuildingBlock: EZIPEK_clean_linker_0, # of connection points: 2
#     Edge 25, Type (0, 0), BuildingBlock: EZIPEK_clean_linker_0, # of connection points: 2
#     Edge 26, Type (0, 0), BuildingBlock: EZIPEK_clean_linker_0, # of connection points: 2
#     Edge 27, Type (0, 0), BuildingBlock: EZIPEK_clean_linker_0, # of connection points: 2
#     Edge 28, Type (0, 0), BuildingBlock: EZIPEK_clean_linker_0, # of connection points: 2
#     Edge 29, Type (0, 0), BuildingBlock: EZIPEK_clean_linker_0, # of connection points: 2
#     Edge 30, Type (0, 0), BuildingBlock: EZIPEK_clean_linker_0, # of connection points: 2
#     Edge 31, Type (0, 0), BuildingBlock: EZIPEK_clean_linker_0, # of connection points: 2
#     Edge 32, Type (0, 0), BuildingBlock: EZIPEK_clean_linker_0, # of connection points: 2
#     Edge 33, Type (0, 0), BuildingBlock: EZIPEK_clean_linker_0, # of connection points: 2
#     Edge 34, Type (0, 0), BuildingBlock: EZIPEK_clean_linker_0, # of connection points: 2
#     Edge 35, Type (0, 0), BuildingBlock: EZIPEK_clean_linker_0, # of connection points: 2
# Relax obj value: 0.136
# Max RMSD: 0.279
# Mean RMSD: 0.260
data_MOF--net-smc--node1-CUKXOW_clean_sbu_0--edge1-EZIPEK_clean_linker_0
_symmetry_space_group_name_H-M    P1
_symmetry_Int_Tables_number       1
_symmetry_cell_setting            triclinic
loop_
_symmetry_equiv_pos_as_xyz
'x, y, z'
_cell_length_a     21.693397
_cell_length_b     24.522767
_cell_length_c     31.267376
_cell_angle_alpha  90.134879
_cell_angle_beta   90.893264
_cell_angle_gamma 119.6171
loop_
_atom_site_label
_atom_site_type_symbol
_atom_site_fract_x
_atom_site_fract_y
_atom_site_fract_z
_atom_type_partial_charge
Tb0 Tb 0.9928 0.40702 0.01603 0.0
C1 C 0.07098 0.45741 0.09974 0.0
Tb2 Tb 0.06848 0.53157 0.01171 0.0
O3 O 0.07951 0.39366 0.9868 0.0
O4 O 0.1084 0.47154 0.02306 0.0
O5 O 1.01039 0.41318 0.08443 0.0
C6 C 0.14832 0.65608 0.99971 0.0
O7 O 0.10777 0.50761 0.07435 0.0
C8 C 0.93392 0.50187 0.02682 0.0
C9 C 1.01192 0.44231 0.92495 0.0
O10 O 0.13208 0.62802 0.03605 0.0
O11 O 0.12345 0.61384 0.96972 0.0
O12 O 0.9896 0.5436 0.04701 0.0
O13 O 0.95611 0.47467 1.00103 0.0
O14 O 0.05976 0.49827 0.94204 0.0
O15 O 0.9686 0.39808 0.94991 0.0
C16 C 0.87047 0.30349 0.03358 0.0
O17 O 0.88758 0.3605 0.04342 0.0
O18 O 0.92464 0.30389 0.01545 0.0
C19 C 0.13402 0.44753 0.99837 0.0
Tb20 Tb 0.61612 0.62339 0.99049 0.0
C21 C 0.60904 0.55765 0.91116 0.0
Tb22 Tb 0.55372 0.51339 1.00626 0.0
O23 O 0.71731 0.63525 0.02164 0.0
O24 O 0.65877 0.55688 0.98645 0.0
O25 O 0.59466 0.60078 0.92321 0.0
C26 C 0.50012 0.39826 0.03743 0.0
O27 O 0.60481 0.51847 0.94212 0.0
C28 C 0.44633 0.53235 0.98568 0.0
C29 C 0.58979 0.61405 0.08199 0.0
O30 O 0.49007 0.41191 0.99915 0.0
O31 O 0.54439 0.44895 0.05751 0.0
O32 O 0.45614 0.4882 0.97099 0.0
O33 O 0.50198 0.56934 0.00832 0.0
O34 O 0.58532 0.55921 0.0723 0.0
O35 O 0.58778 0.64657 0.05009 0.0
C36 C 0.66293 0.74399 0.96826 0.0
O37 O 0.61496 0.69446 0.94819 0.0
O38 O 0.68626 0.72429 0.99951 0.0
C39 C 0.71313 0.58268 0.01013 0.0
Tb40 Tb 0.41922 0.04535 0.02933 0.0
C41 C 0.42379 0.97182 0.10779 0.0
Tb42 Tb 0.49967 0.98246 0.01625 0.0
O43 O 0.32257 0.96759 0.99757 0.0
O44 O 0.39364 0.94961 0.02773 0.0
O45 O 0.42107 0.02195 0.09586 0.0
C46 C 0.56532 0.9178 0.99413 0.0
O47 O 0.44683 0.94414 0.08006 0.0
C48 C 0.58121 0.09779 0.04425 0.0
C49 C 0.47116 0.05713 0.93784 0.0
O50 O 0.51083 0.91495 0.97418 0.0
O51 O 0.5821 0.95687 0.02573 0.0
O52 O 0.58379 0.04932 0.05766 0.0
O53 O 0.53054 0.07901 0.01701 0.0
O54 O 0.48823 1.01313 0.94913 0.0
O55 O 0.45092 0.08321 0.96686 0.0
C56 C 0.39706 0.13714 0.05699 0.0
O57 O 0.36987 0.10378 0.02234 0.0
O58 O 0.43093 0.11401 0.07759 0.0
C59 C 0.3414 0.92507 1.00282 0.0
Tb60 Tb 0.66435 0.73521 0.34025 0.0
C61 C 0.77681 0.80865 0.41092 0.0
Tb62 Tb 0.77147 0.86866 0.31634 0.0
O63 O 0.74293 0.70399 0.33926 0.0
O64 O 0.75635 0.77993 0.30313 0.0
O65 O 0.71282 0.76059 0.40303 0.0
C66 C 0.85925 0.99477 0.30626 0.0
O67 O 0.81079 0.85434 0.38166 0.0
C68 C 0.64847 0.84991 0.34075 0.0
C69 C 0.67397 0.76471 0.24161 0.0
O70 O 0.79422 0.96177 0.29298 0.0
O71 O 0.87673 0.95532 0.32305 0.0
O72 O 0.68383 0.88643 0.31036 0.0
O73 O 0.68286 0.8261 0.3569 0.0
O74 O 0.73444 0.81903 0.25111 0.0
O75 O 0.63335 0.72921 0.27269 0.0
C76 C 0.53474 0.64496 0.3567 0.0
O77 O 0.55246 0.70265 0.34922 0.0
O78 O 0.59006 0.63755 0.35478 0.0
C79 C 0.7864 0.7501 0.31522 0.0
Tb80 Tb 0.34663 0.93947 0.36757 0.0
C81 C 0.29414 0.96692 0.44913 0.0
Tb82 Tb 0.21236 0.89032 0.36299 0.0
O83 O 0.36826 0.02732 0.33266 0.0
O84 O 0.28281 0.98592 0.37107 0.0
O85 O 0.34056 0.95172 0.43613 0.0
C86 C 0.07791 0.85086 0.34536 0.0
O87 O 0.23924 0.9521 0.42226 0.0
C88 C 0.23573 0.79563 0.38175 0.0
C89 C 0.29938 0.9029 0.27652 0.0
O90 O 0.10159 0.84166 0.38108 0.0
O91 O 0.12945 0.88379 0.32009 0.0
O92 O 0.19253 0.8086 0.40127 0.0
O93 O 0.26871 0.83991 0.35502 0.0
O94 O 0.23925 0.89575 0.29286 0.0
O95 O 0.35131 0.91407 0.30306 0.0
C96 C 0.4667 0.94096 0.39 0.0
O97 O 0.45889 0.97153 0.35842 0.0
O98 O 0.40823 0.91454 0.41086 0.0
C99 C 0.31101 0.02801 0.34361 0.0
Tb100 Tb 0.10841 0.39653 0.35465 0.0
C101 C 0.10784 0.32145 0.43721 0.0
Tb102 Tb 0.17547 0.30796 0.3441 0.0
O103 O 1.00539 0.31638 0.32803 0.0
O104 O 0.07823 0.29887 0.35688 0.0
O105 O 0.09832 0.36706 0.42105 0.0
C106 C 0.21764 0.21923 0.33438 0.0
O107 O 0.13306 0.29202 0.41234 0.0
C108 C 0.264 0.42518 0.36342 0.0
C109 C 0.14221 0.37749 0.26127 0.0
O110 O 0.24095 0.26496 0.36205 0.0
O111 O 0.16941 0.22339 0.31111 0.0
O112 O 0.27482 0.37913 0.3722 0.0
O113 O 0.20857 0.40414 0.34039 0.0
O114 O 0.16178 0.3354 0.2754 0.0
O115 O 0.12243 0.40789 0.28744 0.0
C116 C 0.13862 0.51918 0.36884 0.0
O117 O 0.07808 0.47226 0.35436 0.0
O118 O 0.17887 0.49483 0.37727 0.0
C119 C 1.02164 0.27195 0.33542 0.0
Tb120 Tb 0.34239 0.08854 0.69012 0.0
C121 C 0.41492 0.14521 0.77492 0.0
Tb122 Tb 0.42727 0.21763 0.6848 0.0
O123 O 0.42876 0.0725 0.66328 0.0
O124 O 0.4584 0.15098 0.69855 0.0
O125 O 0.35411 0.10233 0.75859 0.0
C126 C 0.51444 0.34127 0.66829 0.0
O127 O 0.45751 0.19357 0.74968 0.0
C128 C 0.29255 0.19001 0.69772 0.0
C129 C 0.36178 0.1296 0.59933 0.0
O130 O 0.49261 0.31665 0.70545 0.0
O131 O 0.48994 0.29555 0.64065 0.0
O132 O 0.34847 0.23423 0.71626 0.0
O133 O 0.31448 0.16102 0.67355 0.0
O134 O 0.41636 0.18233 0.61598 0.0
O135 O 0.31541 0.08902 0.62508 0.0
C136 C 0.21946 0.98001 0.70172 0.0
O137 O 0.23612 0.03468 0.71728 0.0
O138 O 0.27485 0.98549 0.68198 0.0
C139 C 0.48433 0.12542 0.67521 0.0
Tb140 Tb 0.96756 0.30424 0.66568 0.0
C141 C 0.93791 0.22142 0.59315 0.0
Tb142 Tb 0.90902 0.19463 0.69116 0.0
O143 O 0.06692 0.30487 0.64595 0.0
O144 O 1.01852 0.2569 0.69887 0.0
O145 O 0.91768 0.26004 0.60636 0.0
C146 C 0.86736 0.08184 0.72436 0.0
O147 O 0.94859 0.19124 0.62499 0.0
C148 C 0.79806 0.20524 0.66286 0.0
C149 C 0.96253 0.30945 0.76085 0.0
O150 O 0.91006 0.10641 0.69291 0.0
O151 O 0.8496 0.12159 0.73824 0.0
O152 O 0.8093 0.15928 0.655 0.0
O153 O 0.85356 0.24745 0.68337 0.0
O154 O 0.93286 0.24715 0.75494 0.0
O155 O 0.98219 0.34567 0.72763 0.0
C156 C 0.99419 0.41652 0.63628 0.0
O157 O 0.98492 0.39883 0.67564 0.0
O158 O 0.99247 0.37162 0.61368 0.0
C159 C 0.06887 0.26724 0.67432 0.0
Tb160 Tb 0.76864 0.72672 0.6776 0.0
C161 C 0.76279 0.63643 0.75125 0.0
Tb162 Tb 0.83929 0.65723 0.66014 0.0
O163 O 0.66722 0.6576 0.64586 0.0
O164 O 0.7343 0.62986 0.67212 0.0
O165 O 0.7553 0.68523 0.7411 0.0
C166 C 0.88718 0.58309 0.63163 0.0
O167 O 0.78902 0.61279 0.72257 0.0
C168 C 0.92817 0.76864 0.69292 0.0
C169 C 0.81845 0.73846 0.58368 0.0
O170 O 0.91591 0.62434 0.66196 0.0
O171 O 0.83085 0.58303 0.6171 0.0
O172 O 0.92669 0.71691 0.70276 0.0
O173 O 0.87872 0.75581 0.66534 0.0
O174 O 0.83826 0.69656 0.59512 0.0
O175 O 0.79273 0.76065 0.61265 0.0
C176 C 0.76587 0.82174 0.7165 0.0
O177 O 0.72971 0.79362 0.68193 0.0
O178 O 0.79952 0.79371 0.72996 0.0
C179 C 0.68035 0.61118 0.64864 0.0
C180 C 0.32182 0.46116 0.01638 0.0
C181 C 0.36892 0.51675 0.99385 0.0
C182 C 0.26361 0.52934 0.97697 0.0
C183 C 0.21506 0.46986 0.9954 0.0
N184 N 0.20175 0.37556 0.0276 0.0
N185 N 0.38153 0.60077 0.94928 0.0
C186 C 0.24551 0.43486 0.0135 0.0
C187 C 0.33868 0.55001 0.97342 0.0
N188 N 0.35043 0.43452 0.04244 0.0
N189 N 0.23798 0.56677 0.96259 0.0
H190 H 0.43619 0.61845 0.94777 0.0
H191 H 0.36289 0.62311 0.92888 0.0
H192 H 0.18446 0.55266 0.96301 0.0
H193 H 0.26963 0.61285 0.95282 0.0
H194 H 0.32068 0.39825 0.06336 0.0
H195 H 0.40505 0.45369 0.04679 0.0
H196 H 0.21959 0.3448 0.03661 0.0
H197 H 0.14679 0.35482 0.02664 0.0
C198 C 0.60769 0.86467 0.94162 0.0
C199 C 0.60098 0.88063 0.98451 0.0
C200 C 0.67439 0.83622 0.00851 0.0
C201 C 0.66309 0.80487 0.96882 0.0
N202 N 0.62748 0.7957 0.89474 0.0
N203 N 0.61733 0.86769 0.06026 0.0
C204 C 0.63251 0.82132 0.93432 0.0
C205 C 0.6321 0.86333 0.01847 0.0
N206 N 0.59359 0.89266 0.90807 0.0
N207 N 0.72486 0.83991 0.03678 0.0
H208 H 0.5795 0.87944 0.06965 0.0
H209 H 0.63544 0.85087 0.08527 0.0
H210 H 0.76124 0.82571 0.0285 0.0
H211 H 0.73677 0.86524 0.06546 0.0
H212 H 0.60304 0.88644 0.87636 0.0
H213 H 0.57989 0.92749 0.91207 0.0
H214 H 0.59783 0.79931 0.8695 0.0
H215 H 0.6523 0.76962 0.88773 0.0
C216 C 0.31601 0.81181 0.01379 0.0
C217 C 0.29715 0.85483 0.99451 0.0
C218 C 0.18149 0.76462 0.97342 0.0
C219 C 0.20017 0.72344 0.99442 0.0
N220 N 0.29131 0.7051 0.02376 0.0
N221 N 0.22294 0.86656 0.94125 0.0
C222 C 0.269 0.74632 0.01159 0.0
C223 C 0.23299 0.82961 0.96991 0.0
N224 N 0.37951 0.83262 0.03414 0.0
N225 N 0.11391 0.74211 0.958 0.0
H226 H 0.26244 0.91205 0.93445 0.0
H227 H 0.17971 0.8496 0.92008 0.0
H228 H 0.07572 0.69478 0.95926 0.0
H229 H 0.09452 0.77086 0.94685 0.0
H230 H 0.38872 0.80767 0.05796 0.0
H231 H 0.42396 0.87266 0.02471 0.0
H232 H 0.34389 0.71833 0.03111 0.0
H233 H 0.25874 0.65654 0.02295 0.0
C234 C 0.38977 0.23312 0.07588 0.0
C235 C 0.42637 0.20548 0.0565 0.0
C236 C 0.51886 0.30785 0.03189 0.0
C237 C 0.48134 0.33496 0.05033 0.0
N238 N 0.39212 0.32953 0.09748 0.0
N239 N 0.53238 0.21711 0.02304 0.0
C240 C 0.42016 0.29944 0.07492 0.0
C241 C 0.49308 0.2431 0.03678 0.0
N242 N 0.32563 0.19583 0.09416 0.0
N243 N 0.57781 0.34387 0.00823 0.0
H244 H 0.51373 0.16934 0.02258 0.0
H245 H 0.58529 0.24292 0.0144 0.0
H246 H 0.602 0.39268 1.00694 0.0
H247 H 0.60131 0.32563 0.98826 0.0
H248 H 0.29284 0.21223 0.10545 0.0
H249 H 0.30329 0.14723 0.09611 0.0
H250 H 0.35021 0.3073 0.1184 0.0
H251 H 0.41517 0.37829 0.09791 0.0
C252 C 0.681 0.19988 0.07174 0.0
C253 C 0.65121 0.15506 0.03812 0.0
C254 C 0.76302 0.21116 0.9993 0.0
C255 C 0.79616 0.25023 0.03569 0.0
N256 N 0.78816 0.27575 0.10933 0.0
N257 N 0.66957 0.1111 0.97324 0.0
C258 C 0.75536 0.24323 0.07263 0.0
C259 C 0.69369 0.15877 1.00277 0.0
N260 N 0.63806 0.20107 0.1028 0.0
N261 N 0.79561 0.22552 0.96062 0.0
H262 H 0.61968 0.07135 0.9742 0.0
H263 H 0.70184 0.1084 0.94995 0.0
H264 H 0.84471 0.26501 0.95558 0.0
H265 H 0.77014 0.20208 0.93232 0.0
H266 H 0.65505 0.23652 0.12589 0.0
H267 H 0.58357 0.16974 0.10287 0.0
H268 H 0.76243 0.26831 0.13836 0.0
H269 H 0.84281 0.30561 0.11202 0.0
C270 C 0.87952 0.5621 0.98762 0.0
C271 C 0.8726 0.51617 0.01826 0.0
C272 C 0.7644 0.51687 0.04494 0.0
C273 C 0.77065 0.56224 0.01402 0.0
N274 N 0.83401 0.62591 0.95466 0.0
N275 N 0.80269 0.44492 0.07294 0.0
C276 C 0.82823 0.58387 0.985 0.0
C277 C 0.8132 0.49233 0.0459 0.0
N278 N 0.9371 0.58679 0.96174 0.0
N279 N 0.713 0.49893 0.07491 0.0
H280 H 0.83787 0.42764 0.07536 0.0
H281 H 0.75726 0.41954 0.09074 0.0
H282 H 0.67727 0.51561 0.07524 0.0
H283 H 0.70838 0.47137 0.10119 0.0
H284 H 0.95057 0.62416 0.94127 0.0
H285 H 0.97357 0.57082 0.96145 0.0
H286 H 0.86712 0.63829 0.92851 0.0
H287 H 0.80377 0.64802 0.95552 0.0
C288 C 0.888 0.72894 0.32047 0.0
C289 C 0.86178 0.7693 0.3082 0.0
C290 C 0.97809 0.86098 0.31695 0.0
C291 C 1.00368 0.82205 0.33282 0.0
N292 N 0.99067 0.71858 0.33927 0.0
N293 N 0.89311 0.86364 0.26873 0.0
C294 C 0.96099 0.7556 0.33152 0.0
C295 C 0.90984 0.83256 0.29854 0.0
N296 N 0.84298 0.66569 0.32144 0.0
N297 N 1.01815 0.92489 0.31996 0.0
H298 H 0.84987 0.83981 0.24825 0.0
H299 H 0.92866 0.90893 0.25881 0.0
H300 H 0.06855 0.94802 0.33428 0.0
H301 H 0.99852 0.95466 0.31165 0.0
H302 H 0.85551 0.63393 0.33557 0.0
H303 H 0.79239 0.645 0.30736 0.0
H304 H 0.96377 0.67006 0.33548 0.0
H305 H 0.04424 0.73664 0.3469 0.0
C306 C 0.25591 0.14628 0.29619 0.0
C307 C 0.23877 0.16808 0.33428 0.0
C308 C 0.28583 0.11074 0.37606 0.0
C309 C 0.29461 0.08209 0.33887 0.0
N310 N 0.28313 0.07073 0.26238 0.0
N311 N 0.22074 0.15448 0.4104 0.0
C312 C 0.27829 0.09951 0.29853 0.0
C313 C 0.24888 0.14536 0.37409 0.0
N314 N 0.25371 0.17192 0.2579 0.0
N315 N 0.31778 0.1089 0.4133 0.0
H316 H 0.18915 0.17557 0.41032 0.0
H317 H 0.22138 0.13407 0.43951 0.0
H318 H 0.35222 0.09097 0.41375 0.0
H319 H 0.31884 0.13323 0.44095 0.0
H320 H 0.27242 0.16337 0.22965 0.0
H321 H 0.23791 0.20559 0.25498 0.0
H322 H 0.26451 0.07523 0.23245 0.0
H323 H 0.30275 0.03955 0.26299 0.0
C324 C 0.98402 0.15665 0.35359 0.0
C325 C 0.97977 0.2006 0.3252 0.0
C326 C 0.89996 0.10748 0.27973 0.0
C327 C 0.89798 0.06563 0.3122 0.0
N328 N 0.91846 0.05626 0.38726 0.0
N329 N 0.92695 0.2132 0.26003 0.0
C330 C 0.93289 0.09211 0.3515 0.0
C331 C 0.93475 0.17449 0.28814 0.0
N332 N 0.04228 0.17354 0.37861 0.0
N333 N 0.87176 0.08384 0.24016 0.0
H334 H 0.95668 0.26188 0.26216 0.0
H335 H 0.88886 0.19685 0.23546 0.0
H336 H 0.84759 0.03613 0.23271 0.0
H337 H 0.8777 0.11181 0.21381 0.0
H338 H 0.0473 0.14302 0.39973 0.0
H339 H 0.09029 0.20893 0.36838 0.0
H340 H 0.94037 0.07575 0.4172 0.0
H341 H 0.87842 1.00949 0.38818 0.0
C342 C 0.17352 0.6887 0.34036 0.0
C343 C 0.21632 0.72611 0.37575 0.0
C344 C 0.20169 0.62718 0.40825 0.0
C345 C 0.16283 0.59031 0.37161 0.0
N346 N 0.12699 0.59188 0.29847 0.0
N347 N 0.28071 0.73042 0.43997 0.0
C348 C 0.15285 0.62284 0.33659 0.0
C349 C 0.23306 0.69491 0.40856 0.0
N350 N 0.15017 0.71537 0.31063 0.0
N351 N 0.20592 0.59722 0.44403 0.0
H352 H 0.3041 0.7792 0.44128 0.0
H353 H 0.30205 0.71247 0.46219 0.0
H354 H 0.1824 0.54856 0.44583 0.0
H355 H 0.22656 0.6198 0.47328 0.0
H356 H 0.11191 0.68957 0.28722 0.0
H357 H 0.16455 0.76268 0.31142 0.0
H358 H 0.12614 0.61418 0.27034 0.0
H359 H 0.11287 0.54503 0.29378 0.0
C360 C 0.36753 0.49903 0.32089 0.0
C361 C 0.32592 0.48757 0.358 0.0
C362 C 0.41613 0.58663 0.39028 0.0
C363 C 0.46113 0.59366 0.35589 0.0
N364 N 0.48053 0.56189 0.28663 0.0
N365 N 0.31059 0.51651 0.42913 0.0
C366 C 0.43675 0.55171 0.32041 0.0
C367 C 0.3497 0.53075 0.39279 0.0
N368 N 0.34118 0.45898 0.28643 0.0
N369 N 0.43711 0.63315 0.4205 0.0
H370 H 0.26115 0.47623 0.43184 0.0
H371 H 0.32856 0.54244 0.45747 0.0
H372 H 0.48666 0.6737 0.42048 0.0
H373 H 0.40368 0.63394 0.44372 0.0
H374 H 0.36461 0.46804 0.25662 0.0
H375 H 0.29311 0.41729 0.28645 0.0
H376 H 0.47056 0.52949 0.26226 0.0
H377 H 0.52888 0.60296 0.28313 0.0
C378 C 0.5774 0.93549 0.40448 0.0
C379 C 0.50914 0.9096 0.38537 0.0
C380 C 0.52833 0.83495 0.34394 0.0
C381 C 0.5965 0.86042 0.36287 0.0
N382 N 0.68306 0.9268 0.41629 0.0
N383 N 0.41182 0.82236 0.34758 0.0
C384 C 0.61981 0.90764 0.39531 0.0
C385 C 0.48198 0.85512 0.3588 0.0
N386 N 0.60227 0.98782 0.42994 0.0
N387 N 0.50938 0.79469 0.30961 0.0
H388 H 0.37602 0.83624 0.35658 0.0
H389 H 0.388 0.77826 0.33286 0.0
H390 H 0.54176 0.77824 0.2975 0.0
H391 H 0.46384 0.78141 0.29094 0.0
H392 H 0.65439 1.01339 0.44128 0.0
H393 H 0.57103 1.00756 0.43821 0.0
H394 H 0.70043 0.95712 0.44262 0.0
H395 H 0.7163 0.90875 0.40936 0.0
C396 C 0.68638 0.18268 0.70715 0.0
C397 C 0.71965 0.19074 0.66677 0.0
C398 C 0.59722 0.14321 0.63341 0.0
C399 C 0.56518 0.14412 0.67292 0.0
N400 N 0.58427 0.16382 0.74874 0.0
N401 N 0.7037 0.18374 0.59036 0.0
C402 C 0.61188 0.16489 0.70985 0.0
C403 C 0.67383 0.17231 0.62978 0.0
N404 N 0.72392 0.18589 0.74346 0.0
N405 N 0.55449 0.11171 0.59923 0.0
H406 H 0.75835 0.20452 0.58631 0.0
H407 H 0.67513 0.17822 0.56205 0.0
H408 H 0.49942 0.08938 0.60031 0.0
H409 H 0.57334 0.10214 0.57138 0.0
H410 H 0.70181 0.17394 0.77365 0.0
H411 H 0.77582 0.1942 0.743 0.0
H412 H 0.61477 0.18787 0.7756 0.0
H413 H 0.53034 0.13762 0.7537 0.0
C414 C 1.01326 0.52177 0.61487 0.0
C415 C 0.96691 0.45698 0.62029 0.0
C416 C 0.86499 0.47329 0.62452 0.0
C417 C 0.91133 0.53861 0.62017 0.0
N418 N 1.02502 0.62353 0.59969 0.0
N419 N 0.84779 0.36883 0.61555 0.0
C420 C 0.98419 0.56236 0.61138 0.0
C421 C 0.89238 0.43205 0.61962 0.0
N422 N 0.08479 0.5444 0.61475 0.0
N423 N 0.79675 0.45081 0.63743 0.0
H424 H 0.86587 0.33687 0.61237 0.0
H425 H 0.79316 0.34877 0.61083 0.0
H426 H 0.77429 0.47903 0.64302 0.0
H427 H 0.76394 0.40445 0.64638 0.0
H428 H 0.12215 0.59198 0.61579 0.0
H429 H 0.10665 0.51483 0.61527 0.0
H430 H 0.07715 0.64258 0.58972 0.0
H431 H 1.0044 0.6538 0.59623 0.0
C432 C 0.5724 0.51602 0.67789 0.0
C433 C 0.62612 0.54282 0.6468 0.0
C434 C 0.60518 0.43719 0.62788 0.0
C435 C 0.55051 0.41023 0.65855 0.0
N436 N 0.46629 0.42352 0.70077 0.0
N437 N 0.67934 0.52786 0.58449 0.0
C438 C 0.52931 0.44949 0.67995 0.0
C439 C 0.6376 0.5028 0.61923 0.0
N440 N 0.56453 0.55357 0.70709 0.0
N441 N 0.62883 0.40113 0.60852 0.0
H442 H 0.70188 0.57534 0.57733 0.0
H443 H 0.68551 0.50117 0.56076 0.0
H444 H 0.6093 0.35391 0.61528 0.0
H445 H 0.67209 0.41909 0.58836 0.0
H446 H 0.53261 0.53598 0.73378 0.0
H447 H 0.59399 0.60236 0.70671 0.0
H448 H 0.44546 0.4501 0.71361 0.0
H449 H 0.43057 0.37547 0.70057 0.0
C450 C 0.86433 0.93187 0.72387 0.0
C451 C 0.79076 0.88801 0.7267 0.0
C452 C 0.76622 0.97359 0.7403 0.0
C453 C 0.84025 0.01659 0.73794 0.0
N454 N 0.95924 0.03427 0.74515 0.0
N455 N 0.67401 0.86482 0.7476 0.0
C456 C 0.88897 0.99449 0.73636 0.0
C457 C 0.74231 0.9081 0.73835 0.0
N458 N 0.90989 0.91579 0.70534 0.0
N459 N 0.71862 0.99466 0.74181 0.0
H460 H 0.65525 0.81661 0.74593 0.0
H461 H 0.63802 0.87663 0.76034 0.0
H462 H 0.73326 0.04164 0.74585 0.0
H463 H 0.66415 0.96544 0.73758 0.0
H464 H 0.96276 0.94823 0.69952 0.0
H465 H 0.89343 0.8725 0.69066 0.0
H466 H 0.99641 0.01912 0.74741 0.0
H467 H 0.97824 0.08076 0.75483 0.0
C468 C 1.02754 0.86152 0.73206 0.0
C469 C 0.99958 0.82725 0.69319 0.0
C470 C 0.11379 0.89634 0.65894 0.0
C471 C 0.14458 0.92562 0.69903 0.0
N472 N 0.13209 0.92964 0.77528 0.0
N473 N 1.02277 0.80409 0.62196 0.0
C474 C 0.10156 0.90668 0.73598 0.0
C475 C 0.04451 0.8425 0.65726 0.0
N476 N 0.98298 0.85121 0.76526 0.0
N477 N 0.14871 0.92155 0.62187 0.0
H478 H 0.97329 0.76388 0.61913 0.0
H479 H 0.05652 0.80883 0.59714 0.0
H480 H 0.19768 0.96245 0.62083 0.0
H481 H 0.12537 0.90568 0.59173 0.0
H482 H 0.99782 0.87901 0.79285 0.0
H483 H 0.92905 0.81823 0.76353 0.0
H484 H 0.10555 0.91313 0.8039 0.0
H485 H 0.18609 0.96111 0.77966 0.0
C486 C 0.17902 0.18997 0.72057 0.0
C487 C 0.2296 0.20144 0.68839 0.0
C488 C 0.16965 0.24779 0.64473 0.0
C489 C 0.12495 0.24465 0.67942 0.0
N490 N 0.10256 0.22192 0.7551 0.0
N491 N 0.2796 0.25324 0.62223 0.0
C492 C 0.1336 0.21778 0.71849 0.0
C493 C 0.22652 0.23362 0.65122 0.0
N494 N 0.17372 0.15164 0.7536 0.0
N495 N 0.15696 0.26177 0.60447 0.0
H496 H 0.32099 0.24333 0.62487 0.0
H497 H 0.28581 0.28393 0.59754 0.0
H498 H 0.11649 0.27101 0.59667 0.0
H499 H 0.18182 0.25719 0.57754 0.0
H500 H 0.13274 0.13486 0.77547 0.0
H501 H 0.20602 0.13133 0.75638 0.0
H502 H 0.11307 0.20928 0.78496 0.0
H503 H 0.07351 0.24493 0.75739 0.0
C504 C 0.17037 0.46272 0.20658 0.0
C505 C 0.14278 0.39728 0.21485 0.0
C506 C 0.09011 0.37643 0.14182 0.0
C507 C 0.10362 0.43983 0.1377 0.0
N508 N 0.15502 0.54275 0.16986 0.0
N509 N 0.06942 0.29118 0.18963 0.0
C510 C 0.14429 0.48304 0.17087 0.0
C511 C 0.1013 0.35401 0.18207 0.0
N512 N 0.22199 0.50585 0.23326 0.0
N513 N 0.06958 0.33778 0.10672 0.0
H514 H 0.07744 0.27292 0.21789 0.0
H515 H 1.03129 0.25761 0.16897 0.0
H516 H 0.06634 0.35291 0.07612 0.0
H517 H 0.06502 0.29343 0.10704 0.0
H518 H 0.24897 0.55382 0.22727 0.0
H519 H 0.24284 0.49277 0.259 0.0
H520 H 0.17708 0.57425 0.19545 0.0
H521 H 0.13639 0.55918 0.14494 0.0
C522 C 0.69685 0.70295 0.18349 0.0
C523 C 0.65803 0.73246 0.19782 0.0
C524 C 0.56645 0.67133 0.14195 0.0
C525 C 0.60826 0.646 0.12569 0.0
N526 N 0.7197 0.64664 0.12788 0.0
N527 N 0.55902 0.74938 0.1869 0.0
C528 C 0.67495 0.66407 0.14579 0.0
C529 C 0.59362 0.71774 0.17583 0.0
N530 N 0.7536 0.70953 0.20693 0.0
N531 N 0.49932 0.64927 0.12571 0.0
H532 H 0.5778 0.7835 0.21112 0.0
H533 H 0.51567 0.74615 0.16993 0.0
H534 H 0.47757 0.61462 0.10187 0.0
H535 H 0.46293 0.66066 0.13827 0.0
H536 H 0.77702 0.68173 0.20259 0.0
H537 H 0.77479 0.74048 0.23242 0.0
H538 H 0.77295 0.666 0.13684 0.0
H539 H 0.70511 0.6156 0.10216 0.0
C540 C 0.31627 0.93693 0.15454 0.0
C541 C 0.38259 0.93951 0.14747 0.0
C542 C 0.36847 0.88843 0.21707 0.0
C543 C 0.31466 0.90294 0.22898 0.0
N544 N 0.2356 0.94089 0.20523 0.0
N545 N 0.47232 0.91708 0.17422 0.0
C546 C 0.28739 0.92649 0.19656 0.0
C547 C 0.40848 0.91436 0.17916 0.0
N548 N 0.2787 0.94138 0.12054 0.0
N549 N 0.37956 0.84771 0.24128 0.0
H550 H 0.50307 0.93573 0.14719 0.0
H551 H 0.49699 0.90528 0.19847 0.0
H552 H 0.34701 0.82363 0.26676 0.0
H553 H 0.41425 0.83182 0.23268 0.0
H554 H 0.22727 0.93399 0.12296 0.0
H555 H 0.29505 0.94417 0.08906 0.0
H556 H 0.22215 0.96665 0.1844 0.0
H557 H 0.20805 0.93021 0.23359 0.0
C558 C 0.50118 0.14579 0.88561 0.0
C559 C 0.47254 0.08001 0.8925 0.0
C560 C 0.42705 0.0622 0.81806 0.0
C561 C 0.44174 0.12586 0.81449 0.0
N562 N 0.49184 0.22806 0.8475 0.0
N563 N 0.39883 0.97482 0.86503 0.0
C564 C 0.47939 0.16784 0.84886 0.0
C565 C 0.43343 0.03805 0.85852 0.0
N566 N 0.55043 0.18743 0.91411 0.0
N567 N 0.41037 0.02505 0.7823 0.0
H568 H 0.40164 0.95466 0.89373 0.0
H569 H 0.36255 0.94269 0.84289 0.0
H570 H 0.41115 0.04152 0.75153 0.0
H571 H 0.40534 0.98053 0.78266 0.0
H572 H 0.57781 0.23573 0.9095 0.0
H573 H 0.56942 0.17292 0.94006 0.0
H574 H 0.51212 0.25905 0.87345 0.0
H575 H 0.47661 0.24552 0.82149 0.0
C576 C 0.06045 0.41197 0.86055 0.0
C577 C 1.00706 0.42223 0.8785 0.0
C578 C 0.92226 0.35152 0.82255 0.0
C579 C 0.97585 0.34197 0.80416 0.0
N580 N 0.10016 0.37435 0.80069 0.0
N581 N 0.89158 0.41206 0.87113 0.0
C582 C 0.04618 0.37568 0.82174 0.0
C583 C 0.93931 0.39492 0.85764 0.0
N584 N 0.12419 0.43463 0.88155 0.0
N585 N 0.85455 0.31866 0.80648 0.0
H586 H 0.90348 0.44471 0.89583 0.0
H587 H 0.84338 0.39897 0.85566 0.0
H588 H 0.84116 0.28874 0.78007 0.0
H589 H 0.81094 0.31752 0.82077 0.0
H590 H 0.16179 0.42166 0.87402 0.0
H591 H 0.13822 0.46463 0.90793 0.0
H592 H 0.15354 0.4034 0.80857 0.0
H593 H 0.09187 0.34707 0.77331 0.0
C594 C 0.75925 0.64745 0.83063 0.0
C595 C 0.73476 0.6072 0.79437 0.0
C596 C 0.63883 0.52646 0.83874 0.0
C597 C 0.65623 0.5712 0.87244 0.0
N598 N 0.73612 0.67603 0.89989 0.0
N599 N 0.65318 0.50579 0.76413 0.0
C600 C 0.71758 0.63193 0.86821 0.0
C601 C 0.67578 0.54543 0.79872 0.0
N602 N 0.82458 0.70018 0.82958 0.0
N603 N 0.58636 0.4661 0.84482 0.0
H604 H 0.68032 0.51691 0.73546 0.0
H605 H 0.60646 0.46284 0.76307 0.0
H606 H 0.55736 0.45181 0.87286 0.0
H607 H 0.5745 0.42928 0.82365 0.0
H608 H 0.84983 0.72856 0.85622 0.0
H609 H 0.85709 0.71175 0.803 0.0
H610 H 0.77093 0.72365 0.89552 0.0
H611 H 0.71646 0.66546 0.93067 0.0
C612 C 0.82073 0.84205 0.48913 0.0
C613 C 0.81089 0.80367 0.45283 0.0
C614 C 0.8141 0.72454 0.50081 0.0
C615 C 0.82467 0.76284 0.53772 0.0
N616 N 0.86621 0.86943 0.56215 0.0
N617 N 0.83035 0.72282 0.42454 0.0
C618 C 0.8364 0.82512 0.53041 0.0
C619 C 0.81777 0.74953 0.45902 0.0
N620 N 0.81406 0.89416 0.48458 0.0
N621 N 0.7967 0.66316 0.50459 0.0
H622 H 0.83999 0.7444 0.395 0.0
H623 H 0.84183 0.68633 0.42671 0.0
H624 H 0.79184 0.64092 0.53347 0.0
H625 H 0.78056 0.63231 0.47849 0.0
H626 H 0.81233 0.92016 0.51049 0.0
H627 H 0.80694 0.90929 0.45471 0.0
H628 H 0.88066 0.91633 0.55777 0.0
H629 H 0.88515 0.86121 0.59089 0.0
C630 C 0.38673 0.06532 0.49221 0.0
C631 C 0.31432 0.01581 0.48506 0.0
C632 C 0.27876 0.06838 0.53884 0.0
C633 C 0.35029 0.10733 0.55293 0.0
N634 N 0.47376 0.14994 0.53815 0.0
N635 N 0.19239 0.96924 0.50674 0.0
C636 C 0.40474 0.10793 0.5281 0.0
C637 C 0.26061 0.01766 0.50949 0.0
N638 N 0.43773 0.07531 0.46311 0.0
N639 N 0.22778 0.08027 0.55393 0.0
H640 H 0.17735 0.92874 0.48861 0.0
H641 H 0.15214 0.9661 0.52608 0.0
H642 H 0.24025 0.11819 0.57444 0.0
H643 H 0.17559 0.05753 0.54236 0.0
H644 H 0.48918 0.11299 0.46451 0.0
H645 H 0.42765 0.05218 0.43381 0.0
H646 H 0.51688 0.14862 0.52522 0.0
H647 H 0.48841 0.18616 0.56031 0.0
C648 C 1.01581 0.20872 0.53448 0.0
C649 C 0.97326 0.23442 0.54916 0.0
C650 C 0.03687 0.32258 0.50073 0.0
C651 C 0.07353 0.29505 0.48086 0.0
N652 N 0.10151 0.21089 0.48371 0.0
N653 N 0.92222 0.29788 0.52573 0.0
C654 C 0.06375 0.2374 0.49899 0.0
C655 C 0.97683 0.28529 0.52559 0.0
N656 N 1.01081 0.15723 0.55431 0.0
N657 N 0.06115 0.38549 0.49842 0.0
H658 H 0.87315 0.26701 0.53871 0.0
H659 H 0.92305 0.33395 0.50762 0.0
H660 H 0.11125 0.41669 0.48684 0.0
H661 H 0.03638 0.40679 0.51424 0.0
H662 H 0.04638 0.14089 0.55005 0.0
H663 H 0.97015 0.13045 0.57523 0.0
H664 H 0.08925 0.16497 0.4899 0.0
H665 H 0.14708 0.23573 0.46591 0.0
loop_
_geom_bond_atom_site_label_1
_geom_bond_atom_site_label_2
_geom_bond_distance
_geom_bond_site_symmetry_2
_ccdc_geom_bond_type
Tb0 O3 2.453 1_654 S
Tb0 O4 2.596 1_655 S
Tb0 O5 2.374 . S
Tb0 O13 2.343 . S
Tb0 O15 2.353 1_554 S
Tb0 O17 2.427 1_554 S
Tb0 O18 2.513 . S
C1 O5 1.251 1_455 S
C1 O7 1.263 . S
Tb2 O4 2.343 . S
Tb2 O7 2.353 . S
Tb2 O10 2.427 . S
Tb2 O11 2.513 1_554 S
Tb2 O12 2.453 1_455 S
Tb2 O13 2.596 1_455 S
Tb2 O14 2.374 1_554 S
O3 Tb0 2.453 1_456 S
O3 C19 1.245 1_556 S
O4 Tb0 2.596 1_455 S
O4 Tb2 2.343 . S
O4 C19 1.259 . S
O5 Tb0 2.374 . S
O5 C1 1.251 1_655 S
C6 O10 1.275 1_556 S
C6 O11 1.246 . S
O7 C1 1.263 . S
O7 Tb2 2.353 . S
C8 O12 1.245 . S
C8 O13 1.259 . S
C9 O14 1.250 1_655 S
C9 O15 1.263 . S
O10 Tb2 2.427 . S
O10 C6 1.275 1_554 S
O11 Tb2 2.513 1_556 S
O11 C6 1.246 . S
O12 Tb2 2.453 1_655 S
O12 C8 1.245 . S
O13 Tb0 2.343 . S
O13 Tb2 2.596 1_655 S
O13 C8 1.259 . S
O14 Tb2 2.374 1_556 S
O14 C9 1.250 1_455 S
O15 Tb0 2.353 1_556 S
O15 C9 1.263 . S
C16 O17 1.275 1_554 S
C16 O18 1.246 . S
O17 Tb0 2.427 1_556 S
O17 C16 1.275 1_556 S
O18 Tb0 2.513 . S
O18 C16 1.246 . S
C19 O3 1.245 1_554 S
C19 O4 1.259 . S
Tb20 O23 2.453 . S
Tb20 O24 2.596 . S
Tb20 O25 2.374 1_554 S
Tb20 O33 2.343 . S
Tb20 O35 2.353 . S
Tb20 O37 2.427 . S
Tb20 O38 2.513 1_554 S
C21 O25 1.251 . S
C21 O27 1.263 . S
Tb22 O24 2.343 . S
Tb22 O27 2.353 1_554 S
Tb22 O30 2.427 1_554 S
Tb22 O31 2.513 . S
Tb22 O32 2.453 1_554 S
Tb22 O33 2.596 . S
Tb22 O34 2.374 . S
O23 Tb20 2.453 . S
O23 C39 1.245 . S
O24 Tb20 2.596 . S
O24 Tb22 2.343 . S
O24 C39 1.259 . S
O25 Tb20 2.374 1_556 S
O25 C21 1.251 . S
C26 O30 1.275 1_554 S
C26 O31 1.246 . S
O27 C21 1.263 . S
O27 Tb22 2.353 1_556 S
C28 O32 1.245 1_554 S
C28 O33 1.259 . S
C29 O34 1.250 . S
C29 O35 1.263 . S
O30 Tb22 2.427 1_556 S
O30 C26 1.275 1_556 S
O31 Tb22 2.513 . S
O31 C26 1.246 . S
O32 Tb22 2.453 1_556 S
O32 C28 1.245 1_556 S
O33 Tb20 2.343 . S
O33 Tb22 2.596 . S
O33 C28 1.259 . S
O34 Tb22 2.374 . S
O34 C29 1.250 . S
O35 Tb20 2.353 . S
O35 C29 1.263 . S
C36 O37 1.275 1_556 S
C36 O38 1.246 . S
O37 Tb20 2.427 . S
O37 C36 1.275 1_554 S
O38 Tb20 2.513 1_556 S
O38 C36 1.246 . S
C39 O23 1.245 . S
C39 O24 1.259 . S
Tb40 O43 2.453 1_544 S
Tb40 O44 2.596 1_545 S
Tb40 O45 2.374 . S
Tb40 O53 2.343 . S
Tb40 O55 2.353 1_554 S
Tb40 O57 2.427 1_554 S
Tb40 O58 2.513 . S
C41 O45 1.251 1_565 S
C41 O47 1.263 . S
Tb42 O44 2.343 . S
Tb42 O47 2.353 . S
Tb42 O50 2.427 . S
Tb42 O51 2.513 1_554 S
Tb42 O52 2.453 1_565 S
Tb42 O53 2.596 1_565 S
Tb42 O54 2.374 1_554 S
O43 Tb40 2.453 1_566 S
O43 C59 1.245 1_556 S
O44 Tb40 2.596 1_565 S
O44 Tb42 2.343 . S
O44 C59 1.261 . S
O45 Tb40 2.374 . S
O45 C41 1.251 1_545 S
C46 O50 1.275 1_556 S
C46 O51 1.246 . S
O47 C41 1.263 . S
O47 Tb42 2.353 . S
C48 O52 1.245 . S
C48 O53 1.259 . S
C49 O54 1.250 1_545 S
C49 O55 1.263 . S
O50 Tb42 2.427 . S
O50 C46 1.275 1_554 S
O51 Tb42 2.513 1_556 S
O51 C46 1.246 . S
O52 Tb42 2.453 1_545 S
O52 C48 1.245 . S
O53 Tb40 2.343 . S
O53 Tb42 2.596 1_545 S
O53 C48 1.259 . S
O54 Tb42 2.374 1_556 S
O54 C49 1.250 1_565 S
O55 Tb40 2.353 1_556 S
O55 C49 1.263 . S
C56 O57 1.275 1_554 S
C56 O58 1.246 . S
O57 Tb40 2.427 1_556 S
O57 C56 1.275 1_556 S
O58 Tb40 2.513 . S
O58 C56 1.246 . S
C59 O43 1.245 1_554 S
C59 O44 1.261 . S
Tb60 O63 2.453 . S
Tb60 O64 2.596 . S
Tb60 O65 2.374 . S
Tb60 O73 2.343 . S
Tb60 O75 2.353 . S
Tb60 O77 2.427 . S
Tb60 O78 2.513 . S
C61 O65 1.251 . S
C61 O67 1.263 . S
Tb62 O64 2.343 . S
Tb62 O67 2.353 . S
Tb62 O70 2.427 . S
Tb62 O71 2.513 . S
Tb62 O72 2.453 . S
Tb62 O73 2.596 . S
Tb62 O74 2.374 . S
O63 Tb60 2.453 . S
O63 C79 1.245 . S
O64 Tb60 2.596 . S
O64 Tb62 2.343 . S
O64 C79 1.259 . S
O65 Tb60 2.374 . S
O65 C61 1.251 . S
C66 O70 1.275 . S
C66 O71 1.246 . S
O67 C61 1.263 . S
O67 Tb62 2.353 . S
C68 O72 1.245 . S
C68 O73 1.259 . S
C69 O74 1.250 . S
C69 O75 1.263 . S
O70 Tb62 2.427 . S
O70 C66 1.275 . S
O71 Tb62 2.513 . S
O71 C66 1.246 . S
O72 Tb62 2.453 . S
O72 C68 1.245 . S
O73 Tb60 2.343 . S
O73 Tb62 2.596 . S
O73 C68 1.259 . S
O74 Tb62 2.374 . S
O74 C69 1.250 . S
O75 Tb60 2.353 . S
O75 C69 1.263 . S
C76 O77 1.275 . S
C76 O78 1.246 . S
O77 Tb60 2.427 . S
O77 C76 1.275 . S
O78 Tb60 2.513 . S
O78 C76 1.246 . S
C79 O63 1.245 . S
C79 O64 1.259 . S
Tb80 O83 2.453 1_565 S
Tb80 O84 2.596 . S
Tb80 O85 2.374 . S
Tb80 O93 2.343 . S
Tb80 O95 2.353 . S
Tb80 O97 2.427 . S
Tb80 O98 2.513 . S
C81 O85 1.251 . S
C81 O87 1.263 . S
Tb82 O84 2.343 . S
Tb82 O87 2.353 . S
Tb82 O90 2.427 . S
Tb82 O91 2.513 . S
Tb82 O92 2.453 . S
Tb82 O93 2.596 . S
Tb82 O94 2.374 . S
O83 Tb80 2.453 1_545 S
O83 C99 1.245 1_545 S
O84 Tb80 2.596 . S
O84 Tb82 2.343 . S
O84 C99 1.259 . S
O85 Tb80 2.374 . S
O85 C81 1.251 . S
C86 O90 1.275 . S
C86 O91 1.246 . S
O87 C81 1.263 . S
O87 Tb82 2.353 . S
C88 O92 1.245 . S
C88 O93 1.259 . S
C89 O94 1.250 . S
C89 O95 1.263 . S
O90 Tb82 2.427 . S
O90 C86 1.275 . S
O91 Tb82 2.513 . S
O91 C86 1.246 . S
O92 Tb82 2.453 . S
O92 C88 1.245 . S
O93 Tb80 2.343 . S
O93 Tb82 2.596 . S
O93 C88 1.259 . S
O94 Tb82 2.374 . S
O94 C89 1.250 . S
O95 Tb80 2.353 . S
O95 C89 1.263 . S
C96 O97 1.275 . S
C96 O98 1.246 . S
O97 Tb80 2.427 . S
O97 C96 1.275 . S
O98 Tb80 2.513 . S
O98 C96 1.246 . S
C99 O83 1.245 1_565 S
C99 O84 1.259 . S
Tb100 O103 2.453 1_455 S
Tb100 O104 2.596 . S
Tb100 O105 2.374 . S
Tb100 O113 2.343 . S
Tb100 O115 2.353 . S
Tb100 O117 2.427 . S
Tb100 O118 2.513 . S
C101 O105 1.251 . S
C101 O107 1.263 . S
Tb102 O104 2.343 . S
Tb102 O107 2.353 . S
Tb102 O110 2.427 . S
Tb102 O111 2.513 . S
Tb102 O112 2.453 . S
Tb102 O113 2.596 . S
Tb102 O114 2.374 . S
O103 Tb100 2.453 1_655 S
O103 C119 1.245 1_655 S
O104 Tb100 2.596 . S
O104 Tb102 2.343 . S
O104 C119 1.259 . S
O105 Tb100 2.374 . S
O105 C101 1.251 . S
C106 O110 1.275 . S
C106 O111 1.246 . S
O107 C101 1.263 . S
O107 Tb102 2.353 . S
C108 O112 1.245 . S
C108 O113 1.259 . S
C109 O114 1.250 . S
C109 O115 1.263 . S
O110 Tb102 2.427 . S
O110 C106 1.275 . S
O111 Tb102 2.513 . S
O111 C106 1.246 . S
O112 Tb102 2.453 . S
O112 C108 1.245 . S
O113 Tb100 2.343 . S
O113 Tb102 2.596 . S
O113 C108 1.259 . S
O114 Tb102 2.374 . S
O114 C109 1.250 . S
O115 Tb100 2.353 . S
O115 C109 1.263 . S
C116 O117 1.275 . S
C116 O118 1.246 . S
O117 Tb100 2.427 . S
O117 C116 1.275 . S
O118 Tb100 2.513 . S
O118 C116 1.246 . S
C119 O103 1.245 1_455 S
C119 O104 1.259 . S
Tb120 O123 2.453 . S
Tb120 O124 2.596 . S
Tb120 O125 2.374 . S
Tb120 O133 2.343 . S
Tb120 O135 2.353 . S
Tb120 O137 2.427 1_545 S
Tb120 O138 2.513 1_545 S
C121 O125 1.251 . S
C121 O127 1.263 . S
Tb122 O124 2.343 . S
Tb122 O127 2.353 . S
Tb122 O130 2.427 . S
Tb122 O131 2.513 . S
Tb122 O132 2.453 . S
Tb122 O133 2.596 . S
Tb122 O134 2.374 . S
O123 Tb120 2.453 . S
O123 C139 1.245 . S
O124 Tb120 2.596 . S
O124 Tb122 2.343 . S
O124 C139 1.259 . S
O125 Tb120 2.374 . S
O125 C121 1.251 . S
C126 O130 1.275 . S
C126 O131 1.246 . S
O127 C121 1.263 . S
O127 Tb122 2.353 . S
C128 O132 1.245 . S
C128 O133 1.259 . S
C129 O134 1.250 . S
C129 O135 1.263 . S
O130 Tb122 2.427 . S
O130 C126 1.275 . S
O131 Tb122 2.513 . S
O131 C126 1.246 . S
O132 Tb122 2.453 . S
O132 C128 1.245 . S
O133 Tb120 2.343 . S
O133 Tb122 2.596 . S
O133 C128 1.259 . S
O134 Tb122 2.374 . S
O134 C129 1.250 . S
O135 Tb120 2.353 . S
O135 C129 1.263 . S
C136 O137 1.275 . S
C136 O138 1.246 . S
O137 Tb120 2.427 1_565 S
O137 C136 1.275 . S
O138 Tb120 2.513 1_565 S
O138 C136 1.246 . S
C139 O123 1.245 . S
C139 O124 1.259 . S
Tb140 O143 2.453 1_655 S
Tb140 O144 2.596 . S
Tb140 O145 2.374 . S
Tb140 O153 2.343 . S
Tb140 O155 2.353 . S
Tb140 O157 2.427 . S
Tb140 O158 2.513 . S
C141 O145 1.251 . S
C141 O147 1.263 . S
Tb142 O144 2.343 . S
Tb142 O147 2.353 . S
Tb142 O150 2.427 . S
Tb142 O151 2.513 . S
Tb142 O152 2.453 . S
Tb142 O153 2.596 . S
Tb142 O154 2.374 . S
O143 Tb140 2.453 1_455 S
O143 C159 1.245 . S
O144 Tb140 2.596 . S
O144 Tb142 2.343 . S
O144 C159 1.259 1_655 S
O145 Tb140 2.374 . S
O145 C141 1.251 . S
C146 O150 1.275 . S
C146 O151 1.246 . S
O147 C141 1.263 . S
O147 Tb142 2.353 . S
C148 O152 1.245 . S
C148 O153 1.259 . S
C149 O154 1.250 . S
C149 O155 1.263 . S
O150 Tb142 2.427 . S
O150 C146 1.275 . S
O151 Tb142 2.513 . S
O151 C146 1.246 . S
O152 Tb142 2.453 . S
O152 C148 1.245 . S
O153 Tb140 2.343 . S
O153 Tb142 2.596 . S
O153 C148 1.259 . S
O154 Tb142 2.374 . S
O154 C149 1.250 . S
O155 Tb140 2.353 . S
O155 C149 1.263 . S
C156 O157 1.275 . S
C156 O158 1.246 . S
O157 Tb140 2.427 . S
O157 C156 1.275 . S
O158 Tb140 2.513 . S
O158 C156 1.246 . S
C159 O143 1.245 . S
C159 O144 1.259 1_455 S
Tb160 O163 2.453 . S
Tb160 O164 2.596 . S
Tb160 O165 2.374 . S
Tb160 O173 2.343 . S
Tb160 O175 2.353 . S
Tb160 O177 2.427 . S
Tb160 O178 2.513 . S
C161 O165 1.251 . S
C161 O167 1.263 . S
Tb162 O164 2.343 . S
Tb162 O167 2.353 . S
Tb162 O170 2.427 . S
Tb162 O171 2.513 . S
Tb162 O172 2.453 . S
Tb162 O173 2.596 . S
Tb162 O174 2.374 . S
O163 Tb160 2.453 . S
O163 C179 1.245 . S
O164 Tb160 2.596 . S
O164 Tb162 2.343 . S
O164 C179 1.259 . S
O165 Tb160 2.374 . S
O165 C161 1.251 . S
C166 O170 1.275 . S
C166 O171 1.246 . S
O167 C161 1.263 . S
O167 Tb162 2.353 . S
C168 O172 1.245 . S
C168 O173 1.259 . S
C169 O174 1.250 . S
C169 O175 1.263 . S
O170 Tb162 2.427 . S
O170 C166 1.275 . S
O171 Tb162 2.513 . S
O171 C166 1.246 . S
O172 Tb162 2.453 . S
O172 C168 1.245 . S
O173 Tb160 2.343 . S
O173 Tb162 2.596 . S
O173 C168 1.259 . S
O174 Tb162 2.374 . S
O174 C169 1.250 . S
O175 Tb160 2.353 . S
O175 C169 1.263 . S
C176 O177 1.275 . S
C176 O178 1.246 . S
O177 Tb160 2.427 . S
O177 C176 1.275 . S
O178 Tb160 2.513 . S
O178 C176 1.246 . S
C179 O163 1.245 . S
C179 O164 1.259 . S
C180 C181 1.363 . S
C180 C186 1.379 . S
C180 N188 1.356 . S
C181 C180 1.363 . S
C181 C187 1.363 1_554 S
C182 C183 1.363 1_556 S
C182 C187 1.379 . S
C182 N189 1.356 . S
C183 C182 1.363 1_554 S
C183 C186 1.363 . S
N184 C186 1.356 . S
N184 H196 0.984 . S
N184 H197 0.985 . S
N185 C187 1.356 . S
N185 H190 0.984 . S
N185 H191 0.985 . S
C186 C180 1.379 . S
C186 C183 1.363 . S
C186 N184 1.356 . S
C187 C181 1.363 1_556 S
C187 C182 1.379 . S
C187 N185 1.356 . S
N188 C180 1.356 . S
N188 H194 0.984 . S
N188 H195 0.984 . S
N189 C182 1.356 . S
N189 H192 0.984 . S
N189 H193 0.985 . S
H190 N185 0.984 . S
H191 N185 0.985 . S
H192 N189 0.984 . S
H193 N189 0.985 . S
H194 N188 0.984 . S
H195 N188 0.984 . S
H196 N184 0.984 . S
H197 N184 0.985 . S
C198 C199 1.363 . S
C198 C204 1.379 . S
C198 N206 1.356 . S
C199 C198 1.363 . S
C199 C205 1.363 1_556 S
C200 C201 1.363 1_554 S
C200 C205 1.379 . S
C200 N207 1.356 . S
C201 C200 1.363 1_556 S
C201 C204 1.363 . S
N202 C204 1.356 . S
N202 H214 0.984 . S
N202 H215 0.985 . S
N203 C205 1.356 . S
N203 H208 0.984 . S
N203 H209 0.985 . S
C204 C198 1.379 . S
C204 C201 1.363 . S
C204 N202 1.356 . S
C205 C199 1.363 1_554 S
C205 C200 1.379 . S
C205 N203 1.356 . S
N206 C198 1.356 . S
N206 H212 0.984 . S
N206 H213 0.984 . S
N207 C200 1.356 . S
N207 H210 0.984 . S
N207 H211 0.985 . S
H208 N203 0.984 . S
H209 N203 0.985 . S
H210 N207 0.984 . S
H211 N207 0.985 . S
H212 N206 0.984 . S
H213 N206 0.984 . S
H214 N202 0.984 . S
H215 N202 0.985 . S
C216 C217 1.363 . S
C216 C222 1.379 . S
C216 N224 1.356 . S
C217 C216 1.363 . S
C217 C223 1.363 1_554 S
C218 C219 1.363 . S
C218 C223 1.379 . S
C218 N225 1.356 . S
C219 C218 1.363 . S
C219 C222 1.363 1_556 S
N220 C222 1.356 . S
N220 H232 0.984 . S
N220 H233 0.985 . S
N221 C223 1.356 . S
N221 H226 0.984 . S
N221 H227 0.985 . S
C222 C216 1.379 . S
C222 C219 1.363 1_554 S
C222 N220 1.356 . S
C223 C217 1.363 1_556 S
C223 C218 1.379 . S
C223 N221 1.356 . S
N224 C216 1.356 . S
N224 H230 0.984 . S
N224 H231 0.984 . S
N225 C218 1.356 . S
N225 H228 0.984 . S
N225 H229 0.985 . S
H226 N221 0.984 . S
H227 N221 0.985 . S
H228 N225 0.984 . S
H229 N225 0.985 . S
H230 N224 0.984 . S
H231 N224 0.984 . S
H232 N220 0.984 . S
H233 N220 0.985 . S
C234 C235 1.363 . S
C234 C240 1.379 . S
C234 N242 1.356 . S
C235 C234 1.363 . S
C235 C241 1.363 1_554 S
C236 C237 1.363 1_556 S
C236 C241 1.379 . S
C236 N243 1.356 . S
C237 C236 1.363 1_554 S
C237 C240 1.363 . S
N238 C240 1.356 . S
N238 H250 0.984 . S
N238 H251 0.985 . S
N239 C241 1.356 . S
N239 H244 0.984 . S
N239 H245 0.985 . S
C240 C234 1.379 . S
C240 C237 1.363 . S
C240 N238 1.356 . S
C241 C235 1.363 1_556 S
C241 C236 1.379 . S
C241 N239 1.356 . S
N242 C234 1.356 . S
N242 H248 0.984 . S
N242 H249 0.984 . S
N243 C236 1.356 . S
N243 H246 0.984 . S
N243 H247 0.985 . S
H244 N239 0.984 . S
H245 N239 0.985 . S
H246 N243 0.984 . S
H247 N243 0.985 . S
H248 N242 0.984 . S
H249 N242 0.984 . S
H250 N238 0.984 . S
H251 N238 0.985 . S
C252 C253 1.363 . S
C252 C258 1.379 . S
C252 N260 1.356 . S
C253 C252 1.363 . S
C253 C259 1.363 1_554 S
C254 C255 1.363 1_556 S
C254 C259 1.379 . S
C254 N261 1.356 . S
C255 C254 1.363 1_554 S
C255 C258 1.363 . S
N256 C258 1.356 . S
N256 H268 0.984 . S
N256 H269 0.985 . S
N257 C259 1.356 . S
N257 H262 0.984 . S
N257 H263 0.985 . S
C258 C252 1.379 . S
C258 C255 1.363 . S
C258 N256 1.356 . S
C259 C253 1.363 1_556 S
C259 C254 1.379 . S
C259 N257 1.356 . S
N260 C252 1.356 . S
N260 H266 0.984 . S
N260 H267 0.984 . S
N261 C254 1.356 . S
N261 H264 0.984 . S
N261 H265 0.985 . S
H262 N257 0.984 . S
H263 N257 0.985 . S
H264 N261 0.984 . S
H265 N261 0.985 . S
H266 N260 0.984 . S
H267 N260 0.984 . S
H268 N256 0.984 . S
H269 N256 0.985 . S
C270 C271 1.363 . S
C270 C276 1.379 . S
C270 N278 1.356 . S
C271 C270 1.363 . S
C271 C277 1.363 1_556 S
C272 C273 1.363 1_554 S
C272 C277 1.379 . S
C272 N279 1.356 . S
C273 C272 1.363 1_556 S
C273 C276 1.363 . S
N274 C276 1.356 . S
N274 H286 0.984 . S
N274 H287 0.985 . S
N275 C277 1.356 . S
N275 H280 0.984 . S
N275 H281 0.985 . S
C276 C270 1.379 . S
C276 C273 1.363 . S
C276 N274 1.356 . S
C277 C271 1.363 1_554 S
C277 C272 1.379 . S
C277 N275 1.356 . S
N278 C270 1.356 . S
N278 H284 0.984 . S
N278 H285 0.984 . S
N279 C272 1.356 . S
N279 H282 0.984 . S
N279 H283 0.985 . S
H280 N275 0.984 . S
H281 N275 0.985 . S
H282 N279 0.984 . S
H283 N279 0.985 . S
H284 N278 0.984 . S
H285 N278 0.984 . S
H286 N274 0.984 . S
H287 N274 0.985 . S
C288 C289 1.363 . S
C288 C294 1.379 . S
C288 N296 1.356 . S
C289 C288 1.363 . S
C289 C295 1.363 . S
C290 C291 1.363 . S
C290 C295 1.379 . S
C290 N297 1.356 1_655 S
C291 C290 1.363 . S
C291 C294 1.363 . S
N292 C294 1.356 . S
N292 H304 0.984 . S
N292 H305 0.985 1_655 S
N293 C295 1.356 . S
N293 H298 0.984 . S
N293 H299 0.985 . S
C294 C288 1.379 . S
C294 C291 1.363 . S
C294 N292 1.356 . S
C295 C289 1.363 . S
C295 C290 1.379 . S
C295 N293 1.356 . S
N296 C288 1.356 . S
N296 H302 0.984 . S
N296 H303 0.984 . S
N297 C290 1.356 1_455 S
N297 H300 0.984 . S
N297 H301 0.985 . S
H298 N293 0.984 . S
H299 N293 0.985 . S
H300 N297 0.984 . S
H301 N297 0.985 . S
H302 N296 0.984 . S
H303 N296 0.984 . S
H304 N292 0.984 . S
H305 N292 0.985 1_455 S
C306 C307 1.363 . S
C306 C312 1.379 . S
C306 N314 1.356 . S
C307 C306 1.363 . S
C307 C313 1.363 . S
C308 C309 1.363 . S
C308 C313 1.379 . S
C308 N315 1.356 . S
C309 C308 1.363 . S
C309 C312 1.363 . S
N310 C312 1.356 1_565 S
N310 H322 0.984 . S
N310 H323 0.985 . S
N311 C313 1.356 . S
N311 H316 0.984 . S
N311 H317 0.985 . S
C312 C306 1.379 . S
C312 C309 1.363 . S
C312 N310 1.356 1_545 S
C313 C307 1.363 . S
C313 C308 1.379 . S
C313 N311 1.356 . S
N314 C306 1.356 . S
N314 H320 0.984 . S
N314 H321 0.984 . S
N315 C308 1.356 . S
N315 H318 0.984 . S
N315 H319 0.985 . S
H316 N311 0.984 . S
H317 N311 0.985 . S
H318 N315 0.984 . S
H319 N315 0.985 . S
H320 N314 0.984 . S
H321 N314 0.984 . S
H322 N310 0.984 . S
H323 N310 0.985 . S
C324 C325 1.363 . S
C324 C330 1.379 . S
C324 N332 1.356 1_655 S
C325 C324 1.363 . S
C325 C331 1.363 . S
C326 C327 1.363 . S
C326 C331 1.379 . S
C326 N333 1.356 . S
C327 C326 1.363 . S
C327 C330 1.363 . S
N328 C330 1.356 . S
N328 H340 0.984 . S
N328 H341 0.985 1_545 S
N329 C331 1.356 . S
N329 H334 0.984 . S
N329 H335 0.985 . S
C330 C324 1.379 . S
C330 C327 1.363 . S
C330 N328 1.356 . S
C331 C325 1.363 . S
C331 C326 1.379 . S
C331 N329 1.356 . S
N332 C324 1.356 1_455 S
N332 H338 0.984 . S
N332 H339 0.984 . S
N333 C326 1.356 . S
N333 H336 0.984 1_545 S
N333 H337 0.985 . S
H334 N329 0.984 . S
H335 N329 0.985 . S
H336 N333 0.984 1_565 S
H337 N333 0.985 . S
H338 N332 0.984 . S
H339 N332 0.984 . S
H340 N328 0.984 . S
H341 N328 0.985 1_565 S
C342 C343 1.363 . S
C342 C348 1.379 . S
C342 N350 1.356 . S
C343 C342 1.363 . S
C343 C349 1.363 . S
C344 C345 1.363 . S
C344 C349 1.379 . S
C344 N351 1.356 . S
C345 C344 1.363 . S
C345 C348 1.363 . S
N346 C348 1.356 . S
N346 H358 0.984 . S
N346 H359 0.985 . S
N347 C349 1.356 . S
N347 H352 0.984 . S
N347 H353 0.985 . S
C348 C342 1.379 . S
C348 C345 1.363 . S
C348 N346 1.356 . S
C349 C343 1.363 . S
C349 C344 1.379 . S
C349 N347 1.356 . S
N350 C342 1.356 . S
N350 H356 0.984 . S
N350 H357 0.984 . S
N351 C344 1.356 . S
N351 H354 0.984 . S
N351 H355 0.985 . S
H352 N347 0.984 . S
H353 N347 0.985 . S
H354 N351 0.984 . S
H355 N351 0.985 . S
H356 N350 0.984 . S
H357 N350 0.984 . S
H358 N346 0.984 . S
H359 N346 0.985 . S
C360 C361 1.363 . S
C360 C366 1.379 . S
C360 N368 1.356 . S
C361 C360 1.363 . S
C361 C367 1.363 . S
C362 C363 1.363 . S
C362 C367 1.379 . S
C362 N369 1.356 . S
C363 C362 1.363 . S
C363 C366 1.363 . S
N364 C366 1.356 . S
N364 H376 0.984 . S
N364 H377 0.985 . S
N365 C367 1.356 . S
N365 H370 0.984 . S
N365 H371 0.985 . S
C366 C360 1.379 . S
C366 C363 1.363 . S
C366 N364 1.356 . S
C367 C361 1.363 . S
C367 C362 1.379 . S
C367 N365 1.356 . S
N368 C360 1.356 . S
N368 H374 0.984 . S
N368 H375 0.984 . S
N369 C362 1.356 . S
N369 H372 0.984 . S
N369 H373 0.985 . S
H370 N365 0.984 . S
H371 N365 0.985 . S
H372 N369 0.984 . S
H373 N369 0.985 . S
H374 N368 0.984 . S
H375 N368 0.984 . S
H376 N364 0.984 . S
H377 N364 0.985 . S
C378 C379 1.363 . S
C378 C384 1.379 . S
C378 N386 1.356 . S
C379 C378 1.363 . S
C379 C385 1.363 . S
C380 C381 1.363 . S
C380 C385 1.379 . S
C380 N387 1.356 . S
C381 C380 1.363 . S
C381 C384 1.363 . S
N382 C384 1.356 . S
N382 H394 0.984 . S
N382 H395 0.985 . S
N383 C385 1.356 . S
N383 H388 0.984 . S
N383 H389 0.985 . S
C384 C378 1.379 . S
C384 C381 1.363 . S
C384 N382 1.356 . S
C385 C379 1.363 . S
C385 C380 1.379 . S
C385 N383 1.356 . S
N386 C378 1.356 . S
N386 H392 0.984 . S
N386 H393 0.984 . S
N387 C380 1.356 . S
N387 H390 0.984 . S
N387 H391 0.985 . S
H388 N383 0.984 . S
H389 N383 0.985 . S
H390 N387 0.984 . S
H391 N387 0.985 . S
H392 N386 0.984 . S
H393 N386 0.984 . S
H394 N382 0.984 . S
H395 N382 0.985 . S
C396 C397 1.363 . S
C396 C402 1.379 . S
C396 N404 1.356 . S
C397 C396 1.363 . S
C397 C403 1.363 . S
C398 C399 1.363 . S
C398 C403 1.379 . S
C398 N405 1.356 . S
C399 C398 1.363 . S
C399 C402 1.363 . S
N400 C402 1.356 . S
N400 H412 0.984 . S
N400 H413 0.985 . S
N401 C403 1.356 . S
N401 H406 0.984 . S
N401 H407 0.985 . S
C402 C396 1.379 . S
C402 C399 1.363 . S
C402 N400 1.356 . S
C403 C397 1.363 . S
C403 C398 1.379 . S
C403 N401 1.356 . S
N404 C396 1.356 . S
N404 H410 0.984 . S
N404 H411 0.984 . S
N405 C398 1.356 . S
N405 H408 0.984 . S
N405 H409 0.985 . S
H406 N401 0.984 . S
H407 N401 0.985 . S
H408 N405 0.984 . S
H409 N405 0.985 . S
H410 N404 0.984 . S
H411 N404 0.984 . S
H412 N400 0.984 . S
H413 N400 0.985 . S
C414 C415 1.363 . S
C414 C420 1.379 . S
C414 N422 1.356 . S
C415 C414 1.363 . S
C415 C421 1.363 . S
C416 C417 1.363 . S
C416 C421 1.379 . S
C416 N423 1.356 . S
C417 C416 1.363 . S
C417 C420 1.363 . S
N418 C420 1.356 . S
N418 H430 0.984 . S
N418 H431 0.985 . S
N419 C421 1.356 . S
N419 H424 0.984 . S
N419 H425 0.985 . S
C420 C414 1.379 . S
C420 C417 1.363 . S
C420 N418 1.356 . S
C421 C415 1.363 . S
C421 C416 1.379 . S
C421 N419 1.356 . S
N422 C414 1.356 . S
N422 H428 0.984 . S
N422 H429 0.984 . S
N423 C416 1.356 . S
N423 H426 0.984 . S
N423 H427 0.985 . S
H424 N419 0.984 . S
H425 N419 0.985 . S
H426 N423 0.984 . S
H427 N423 0.985 . S
H428 N422 0.984 . S
H429 N422 0.984 . S
H430 N418 0.984 . S
H431 N418 0.985 . S
C432 C433 1.363 . S
C432 C438 1.379 . S
C432 N440 1.356 . S
C433 C432 1.363 . S
C433 C439 1.363 . S
C434 C435 1.363 . S
C434 C439 1.379 . S
C434 N441 1.356 . S
C435 C434 1.363 . S
C435 C438 1.363 . S
N436 C438 1.356 . S
N436 H448 0.984 . S
N436 H449 0.985 . S
N437 C439 1.356 . S
N437 H442 0.984 . S
N437 H443 0.985 . S
C438 C432 1.379 . S
C438 C435 1.363 . S
C438 N436 1.356 . S
C439 C433 1.363 . S
C439 C434 1.379 . S
C439 N437 1.356 . S
N440 C432 1.356 . S
N440 H446 0.984 . S
N440 H447 0.984 . S
N441 C434 1.356 . S
N441 H444 0.984 . S
N441 H445 0.985 . S
H442 N437 0.984 . S
H443 N437 0.985 . S
H444 N441 0.984 . S
H445 N441 0.985 . S
H446 N440 0.984 . S
H447 N440 0.984 . S
H448 N436 0.984 . S
H449 N436 0.985 . S
C450 C451 1.363 . S
C450 C456 1.379 . S
C450 N458 1.356 . S
C451 C450 1.363 . S
C451 C457 1.363 . S
C452 C453 1.363 1_565 S
C452 C457 1.379 . S
C452 N459 1.356 1_565 S
C453 C452 1.363 1_545 S
C453 C456 1.363 1_545 S
N454 C456 1.356 1_545 S
N454 H466 0.984 . S
N454 H467 0.985 . S
N455 C457 1.356 . S
N455 H460 0.984 . S
N455 H461 0.985 . S
C456 C450 1.379 . S
C456 C453 1.363 1_565 S
C456 N454 1.356 1_565 S
C457 C451 1.363 . S
C457 C452 1.379 . S
C457 N455 1.356 . S
N458 C450 1.356 . S
N458 H464 0.984 . S
N458 H465 0.984 . S
N459 C452 1.356 1_545 S
N459 H462 0.984 . S
N459 H463 0.985 . S
H460 N455 0.984 . S
H461 N455 0.985 . S
H462 N459 0.984 . S
H463 N459 0.985 . S
H464 N458 0.984 . S
H465 N458 0.984 . S
H466 N454 0.984 . S
H467 N454 0.985 . S
C468 C469 1.363 . S
C468 C474 1.379 1_655 S
C468 N476 1.356 . S
C469 C468 1.363 . S
C469 C475 1.363 1_655 S
C470 C471 1.363 . S
C470 C475 1.379 . S
C470 N477 1.356 . S
C471 C470 1.363 . S
C471 C474 1.363 . S
N472 C474 1.356 . S
N472 H484 0.984 . S
N472 H485 0.985 . S
N473 C475 1.356 1_655 S
N473 H478 0.984 . S
N473 H479 0.985 . S
C474 C468 1.379 1_455 S
C474 C471 1.363 . S
C474 N472 1.356 . S
C475 C469 1.363 1_455 S
C475 C470 1.379 . S
C475 N473 1.356 1_455 S
N476 C468 1.356 . S
N476 H482 0.984 . S
N476 H483 0.984 . S
N477 C470 1.356 . S
N477 H480 0.984 . S
N477 H481 0.985 . S
H478 N473 0.984 . S
H479 N473 0.985 . S
H480 N477 0.984 . S
H481 N477 0.985 . S
H482 N476 0.984 . S
H483 N476 0.984 . S
H484 N472 0.984 . S
H485 N472 0.985 . S
C486 C487 1.363 . S
C486 C492 1.379 . S
C486 N494 1.356 . S
C487 C486 1.363 . S
C487 C493 1.363 . S
C488 C489 1.363 . S
C488 C493 1.379 . S
C488 N495 1.356 . S
C489 C488 1.363 . S
C489 C492 1.363 . S
N490 C492 1.356 . S
N490 H502 0.984 1_455 S
N490 H503 0.985 1_455 S
N491 C493 1.356 . S
N491 H496 0.984 . S
N491 H497 0.985 . S
C492 C486 1.379 . S
C492 C489 1.363 . S
C492 N490 1.356 . S
C493 C487 1.363 . S
C493 C488 1.379 . S
C493 N491 1.356 . S
N494 C486 1.356 . S
N494 H500 0.984 . S
N494 H501 0.984 . S
N495 C488 1.356 . S
N495 H498 0.984 . S
N495 H499 0.985 . S
H496 N491 0.984 . S
H497 N491 0.985 . S
H498 N495 0.984 . S
H499 N495 0.985 . S
H500 N494 0.984 . S
H501 N494 0.984 . S
H502 N490 0.984 1_655 S
H503 N490 0.985 1_655 S
C504 C505 1.363 . S
C504 C510 1.379 . S
C504 N512 1.356 . S
C505 C504 1.363 . S
C505 C511 1.363 . S
C506 C507 1.363 . S
C506 C511 1.379 . S
C506 N513 1.356 . S
C507 C506 1.363 . S
C507 C510 1.363 . S
N508 C510 1.356 . S
N508 H520 0.984 . S
N508 H521 0.985 . S
N509 C511 1.356 . S
N509 H514 0.984 . S
N509 H515 0.985 . S
C510 C504 1.379 . S
C510 C507 1.363 . S
C510 N508 1.356 . S
C511 C505 1.363 . S
C511 C506 1.379 . S
C511 N509 1.356 . S
N512 C504 1.356 . S
N512 H518 0.984 . S
N512 H519 0.984 . S
N513 C506 1.356 . S
N513 H516 0.984 . S
N513 H517 0.985 . S
H514 N509 0.984 . S
H515 N509 0.985 . S
H516 N513 0.984 . S
H517 N513 0.985 . S
H518 N512 0.984 . S
H519 N512 0.984 . S
H520 N508 0.984 . S
H521 N508 0.985 . S
C522 C523 1.363 . S
C522 C528 1.379 . S
C522 N530 1.356 . S
C523 C522 1.363 . S
C523 C529 1.363 . S
C524 C525 1.363 . S
C524 C529 1.379 . S
C524 N531 1.356 . S
C525 C524 1.363 . S
C525 C528 1.363 . S
N526 C528 1.356 . S
N526 H538 0.984 . S
N526 H539 0.985 . S
N527 C529 1.356 . S
N527 H532 0.984 . S
N527 H533 0.985 . S
C528 C522 1.379 . S
C528 C525 1.363 . S
C528 N526 1.356 . S
C529 C523 1.363 . S
C529 C524 1.379 . S
C529 N527 1.356 . S
N530 C522 1.356 . S
N530 H536 0.984 . S
N530 H537 0.984 . S
N531 C524 1.356 . S
N531 H534 0.984 . S
N531 H535 0.985 . S
H532 N527 0.984 . S
H533 N527 0.985 . S
H534 N531 0.984 . S
H535 N531 0.985 . S
H536 N530 0.984 . S
H537 N530 0.984 . S
H538 N526 0.984 . S
H539 N526 0.985 . S
C540 C541 1.363 . S
C540 C546 1.379 . S
C540 N548 1.356 . S
C541 C540 1.363 . S
C541 C547 1.363 . S
C542 C543 1.363 . S
C542 C547 1.379 . S
C542 N549 1.356 . S
C543 C542 1.363 . S
C543 C546 1.363 . S
N544 C546 1.356 . S
N544 H556 0.984 . S
N544 H557 0.985 . S
N545 C547 1.356 1_545 S
N545 H550 0.984 . S
N545 H551 0.985 . S
C546 C540 1.379 . S
C546 C543 1.363 . S
C546 N544 1.356 . S
C547 C541 1.363 . S
C547 C542 1.379 . S
C547 N545 1.356 1_565 S
N548 C540 1.356 . S
N548 H554 0.984 . S
N548 H555 0.984 . S
N549 C542 1.356 . S
N549 H552 0.984 . S
N549 H553 0.985 . S
H550 N545 0.984 . S
H551 N545 0.985 . S
H552 N549 0.984 . S
H553 N549 0.985 . S
H554 N548 0.984 . S
H555 N548 0.984 . S
H556 N544 0.984 . S
H557 N544 0.985 . S
C558 C559 1.363 . S
C558 C564 1.379 . S
C558 N566 1.356 . S
C559 C558 1.363 . S
C559 C565 1.363 . S
C560 C561 1.363 . S
C560 C565 1.379 . S
C560 N567 1.356 . S
C561 C560 1.363 . S
C561 C564 1.363 . S
N562 C564 1.356 . S
N562 H574 0.984 . S
N562 H575 0.985 . S
N563 C565 1.356 . S
N563 H568 0.984 . S
N563 H569 0.985 . S
C564 C558 1.379 . S
C564 C561 1.363 . S
C564 N562 1.356 . S
C565 C559 1.363 . S
C565 C560 1.379 . S
C565 N563 1.356 . S
N566 C558 1.356 . S
N566 H572 0.984 . S
N566 H573 0.984 . S
N567 C560 1.356 . S
N567 H570 0.984 . S
N567 H571 0.985 . S
H568 N563 0.984 . S
H569 N563 0.985 . S
H570 N567 0.984 . S
H571 N567 0.985 . S
H572 N566 0.984 . S
H573 N566 0.984 . S
H574 N562 0.984 . S
H575 N562 0.985 . S
C576 C577 1.363 . S
C576 C582 1.379 . S
C576 N584 1.356 1_655 S
C577 C576 1.363 . S
C577 C583 1.363 . S
C578 C579 1.363 . S
C578 C583 1.379 . S
C578 N585 1.356 . S
C579 C578 1.363 . S
C579 C582 1.363 . S
N580 C582 1.356 . S
N580 H592 0.984 . S
N580 H593 0.985 . S
N581 C583 1.356 . S
N581 H586 0.984 . S
N581 H587 0.985 . S
C582 C576 1.379 . S
C582 C579 1.363 . S
C582 N580 1.356 . S
C583 C577 1.363 . S
C583 C578 1.379 . S
C583 N581 1.356 . S
N584 C576 1.356 1_455 S
N584 H590 0.984 . S
N584 H591 0.984 . S
N585 C578 1.356 . S
N585 H588 0.984 . S
N585 H589 0.985 . S
H586 N581 0.984 . S
H587 N581 0.985 . S
H588 N585 0.984 . S
H589 N585 0.985 . S
H590 N584 0.984 . S
H591 N584 0.984 . S
H592 N580 0.984 . S
H593 N580 0.985 . S
C594 C595 1.363 . S
C594 C600 1.379 . S
C594 N602 1.356 . S
C595 C594 1.363 . S
C595 C601 1.363 . S
C596 C597 1.363 . S
C596 C601 1.379 . S
C596 N603 1.356 . S
C597 C596 1.363 . S
C597 C600 1.363 . S
N598 C600 1.356 . S
N598 H610 0.984 . S
N598 H611 0.985 . S
N599 C601 1.356 . S
N599 H604 0.984 . S
N599 H605 0.985 . S
C600 C594 1.379 . S
C600 C597 1.363 . S
C600 N598 1.356 . S
C601 C595 1.363 . S
C601 C596 1.379 . S
C601 N599 1.356 . S
N602 C594 1.356 . S
N602 H608 0.984 . S
N602 H609 0.984 . S
N603 C596 1.356 . S
N603 H606 0.984 . S
N603 H607 0.985 . S
H604 N599 0.984 . S
H605 N599 0.985 . S
H606 N603 0.984 . S
H607 N603 0.985 . S
H608 N602 0.984 . S
H609 N602 0.984 . S
H610 N598 0.984 . S
H611 N598 0.985 . S
C612 C613 1.363 . S
C612 C618 1.379 . S
C612 N620 1.356 . S
C613 C612 1.363 . S
C613 C619 1.363 . S
C614 C615 1.363 . S
C614 C619 1.379 . S
C614 N621 1.356 . S
C615 C614 1.363 . S
C615 C618 1.363 . S
N616 C618 1.356 . S
N616 H628 0.984 . S
N616 H629 0.985 . S
N617 C619 1.356 . S
N617 H622 0.984 . S
N617 H623 0.985 . S
C618 C612 1.379 . S
C618 C615 1.363 . S
C618 N616 1.356 . S
C619 C613 1.363 . S
C619 C614 1.379 . S
C619 N617 1.356 . S
N620 C612 1.356 . S
N620 H626 0.984 . S
N620 H627 0.984 . S
N621 C614 1.356 . S
N621 H624 0.984 . S
N621 H625 0.985 . S
H622 N617 0.984 . S
H623 N617 0.985 . S
H624 N621 0.984 . S
H625 N621 0.985 . S
H626 N620 0.984 . S
H627 N620 0.984 . S
H628 N616 0.984 . S
H629 N616 0.985 . S
C630 C631 1.363 1_545 S
C630 C636 1.379 . S
C630 N638 1.356 . S
C631 C630 1.363 1_565 S
C631 C637 1.363 . S
C632 C633 1.363 . S
C632 C637 1.379 1_545 S
C632 N639 1.356 . S
C633 C632 1.363 . S
C633 C636 1.363 . S
N634 C636 1.356 . S
N634 H646 0.984 . S
N634 H647 0.985 . S
N635 C637 1.356 . S
N635 H640 0.984 . S
N635 H641 0.985 . S
C636 C630 1.379 . S
C636 C633 1.363 . S
C636 N634 1.356 . S
C637 C631 1.363 . S
C637 C632 1.379 1_565 S
C637 N635 1.356 . S
N638 C630 1.356 . S
N638 H644 0.984 . S
N638 H645 0.984 1_545 S
N639 C632 1.356 . S
N639 H642 0.984 . S
N639 H643 0.985 1_545 S
H640 N635 0.984 . S
H641 N635 0.985 . S
H642 N639 0.984 . S
H643 N639 0.985 1_565 S
H644 N638 0.984 . S
H645 N638 0.984 1_565 S
H646 N634 0.984 . S
H647 N634 0.985 . S
C648 C649 1.363 . S
C648 C654 1.379 1_655 S
C648 N656 1.356 . S
C649 C648 1.363 . S
C649 C655 1.363 . S
C650 C651 1.363 . S
C650 C655 1.379 1_455 S
C650 N657 1.356 . S
C651 C650 1.363 . S
C651 C654 1.363 . S
N652 C654 1.356 . S
N652 H664 0.984 . S
N652 H665 0.985 . S
N653 C655 1.356 . S
N653 H658 0.984 . S
N653 H659 0.985 . S
C654 C648 1.379 1_455 S
C654 C651 1.363 . S
C654 N652 1.356 . S
C655 C649 1.363 . S
C655 C650 1.379 1_655 S
C655 N653 1.356 . S
N656 C648 1.356 . S
N656 H662 0.984 . S
N656 H663 0.984 . S
N657 C650 1.356 . S
N657 H660 0.984 . S
N657 H661 0.985 . S
H658 N653 0.984 . S
H659 N653 0.985 . S
H660 N657 0.984 . S
H661 N657 0.985 . S
H662 N656 0.984 . S
H663 N656 0.984 . S
H664 N652 0.984 . S
H665 N652 0.985 . S
C181 C28 1.740 . S
C183 C19 1.896 . S
C199 C46 0.892 . S
C201 C36 0.940 . S
C217 C59 1.695 . S
C219 C6 1.537 . S
C235 C56 1.179 . S
C237 C26 1.069 . S
C253 C48 1.262 . S
C255 C16 1.398 . S
C271 C8 1.909 1_556 S
C273 C39 2.131 1_556 S
C289 C79 1.153 . S
C291 C86 1.066 1_655 S
C307 C106 1.630 . S
C309 C99 1.679 1_545 S
C325 C119 1.742 1_655 S
C327 C66 1.589 1_545 S
C343 C88 1.726 . S
C345 C116 1.931 . S
C361 C108 1.207 . S
C363 C76 1.338 . S
C379 C96 1.417 . S
C381 C68 1.183 . S
C397 C148 1.734 . S
C399 C139 1.884 . S
C415 C156 0.929 . S
C417 C166 0.886 . S
C433 C179 1.684 . S
C435 C126 1.532 . S
C451 C176 1.154 . S
C453 C146 1.052 . S
C469 C168 1.253 . S
C471 C136 1.383 . S
C487 C128 1.902 . S
C489 C159 2.116 . S
C505 C109 2.125 . S
C507 C1 2.202 . S
C523 C69 2.275 . S
C525 C29 2.292 . S
C541 C41 2.187 . S
C543 C89 2.066 . S
C559 C49 2.140 . S
C561 C121 2.197 . S
C577 C9 2.234 . S
C579 C149 2.259 . S
C595 C161 2.107 . S
C597 C21 2.093 . S
C613 C61 2.201 . S
C615 C169 2.124 . S
C631 C81 2.289 . S
C633 C129 2.160 . S
C649 C141 2.055 . S
C651 C101 2.065 . S
