# Generated by pormake.
# Topology uob, (4)-cn, num edge types: 1
# Building blocks:
#     Node 0, Type 0, BuildingBlock: NAWXER_clean_sbu_0, # of connection points: 4
#     Node 1, Type 0, BuildingBlock: NAWXER_clean_sbu_0, # of connection points: 4
#     Node 2, Type 0, BuildingBlock: NAWXER_clean_sbu_0, # of connection points: 4
#     Node 3, Type 0, BuildingBlock: NAWXER_clean_sbu_0, # of connection points: 4
#     Node 4, Type 0, BuildingBlock: NAWXER_clean_sbu_0, # of connection points: 4
#     Node 5, Type 0, BuildingBlock: NAWXER_clean_sbu_0, # of connection points: 4
#     Node 6, Type 0, BuildingBlock: NAWXER_clean_sbu_0, # of connection points: 4
#     Node 7, Type 0, BuildingBlock: NAWXER_clean_sbu_0, # of connection points: 4
#     Node 8, Type 0, BuildingBlock: NAWXER_clean_sbu_0, # of connection points: 4
#     Node 9, Type 0, BuildingBlock: NAWXER_clean_sbu_0, # of connection points: 4
#     Node 10, Type 0, BuildingBlock: NAWXER_clean_sbu_0, # of connection points: 4
#     Node 11, Type 0, BuildingBlock: NAWXER_clean_sbu_0, # of connection points: 4
#     Node 12, Type 0, BuildingBlock: NAWXER_clean_sbu_0, # of connection points: 4
#     Node 13, Type 0, BuildingBlock: NAWXER_clean_sbu_0, # of connection points: 4
#     Node 14, Type 0, BuildingBlock: NAWXER_clean_sbu_0, # of connection points: 4
#     Node 15, Type 0, BuildingBlock: NAWXER_clean_sbu_0, # of connection points: 4
#     Edge 16, Type (0, 0), BuildingBlock: XIVTED_clean_linker_0, # of connection points: 2
#     Edge 17, Type (0, 0), BuildingBlock: XIVTED_clean_linker_0, # of connection points: 2
#     Edge 18, Type (0, 0), BuildingBlock: XIVTED_clean_linker_0, # of connection points: 2
#     Edge 19, Type (0, 0), BuildingBlock: XIVTED_clean_linker_0, # of connection points: 2
#     Edge 20, Type (0, 0), BuildingBlock: XIVTED_clean_linker_0, # of connection points: 2
#     Edge 21, Type (0, 0), BuildingBlock: XIVTED_clean_linker_0, # of connection points: 2
#     Edge 22, Type (0, 0), BuildingBlock: XIVTED_clean_linker_0, # of connection points: 2
#     Edge 23, Type (0, 0), BuildingBlock: XIVTED_clean_linker_0, # of connection points: 2
#     Edge 24, Type (0, 0), BuildingBlock: XIVTED_clean_linker_0, # of connection points: 2
#     Edge 25, Type (0, 0), BuildingBlock: XIVTED_clean_linker_0, # of connection points: 2
#     Edge 26, Type (0, 0), BuildingBlock: XIVTED_clean_linker_0, # of connection points: 2
#     Edge 27, Type (0, 0), BuildingBlock: XIVTED_clean_linker_0, # of connection points: 2
#     Edge 28, Type (0, 0), BuildingBlock: XIVTED_clean_linker_0, # of connection points: 2
#     Edge 29, Type (0, 0), BuildingBlock: XIVTED_clean_linker_0, # of connection points: 2
#     Edge 30, Type (0, 0), BuildingBlock: XIVTED_clean_linker_0, # of connection points: 2
#     Edge 31, Type (0, 0), BuildingBlock: XIVTED_clean_linker_0, # of connection points: 2
#     Edge 32, Type (0, 0), BuildingBlock: XIVTED_clean_linker_0, # of connection points: 2
#     Edge 33, Type (0, 0), BuildingBlock: XIVTED_clean_linker_0, # of connection points: 2
#     Edge 34, Type (0, 0), BuildingBlock: XIVTED_clean_linker_0, # of connection points: 2
#     Edge 35, Type (0, 0), BuildingBlock: XIVTED_clean_linker_0, # of connection points: 2
#     Edge 36, Type (0, 0), BuildingBlock: XIVTED_clean_linker_0, # of connection points: 2
#     Edge 37, Type (0, 0), BuildingBlock: XIVTED_clean_linker_0, # of connection points: 2
#     Edge 38, Type (0, 0), BuildingBlock: XIVTED_clean_linker_0, # of connection points: 2
#     Edge 39, Type (0, 0), BuildingBlock: XIVTED_clean_linker_0, # of connection points: 2
#     Edge 40, Type (0, 0), BuildingBlock: XIVTED_clean_linker_0, # of connection points: 2
#     Edge 41, Type (0, 0), BuildingBlock: XIVTED_clean_linker_0, # of connection points: 2
#     Edge 42, Type (0, 0), BuildingBlock: XIVTED_clean_linker_0, # of connection points: 2
#     Edge 43, Type (0, 0), BuildingBlock: XIVTED_clean_linker_0, # of connection points: 2
#     Edge 44, Type (0, 0), BuildingBlock: XIVTED_clean_linker_0, # of connection points: 2
#     Edge 45, Type (0, 0), BuildingBlock: XIVTED_clean_linker_0, # of connection points: 2
#     Edge 46, Type (0, 0), BuildingBlock: XIVTED_clean_linker_0, # of connection points: 2
#     Edge 47, Type (0, 0), BuildingBlock: XIVTED_clean_linker_0, # of connection points: 2
# Relax obj value: 0.120
# Max RMSD: 0.245
# Mean RMSD: 0.245
data_MOF--net-uob--node1-NAWXER_clean_sbu_0--edge1-XIVTED_clean_linker_0
_symmetry_space_group_name_H-M    P1
_symmetry_Int_Tables_number       1
_symmetry_cell_setting            triclinic
loop_
_symmetry_equiv_pos_as_xyz
'x, y, z'
_cell_length_a     52.791782
_cell_length_b     52.781176
_cell_length_c     28.772531
_cell_angle_alpha  89.989296
_cell_angle_beta   90.011789
_cell_angle_gamma 89.962741
loop_
_atom_site_label
_atom_site_type_symbol
_atom_site_fract_x
_atom_site_fract_y
_atom_site_fract_z
_atom_type_partial_charge
C0 C 0.11387 0.08972 0.35709 0.0
C1 C 0.1318 0.09186 0.19275 0.0
O2 O 0.12026 0.06763 0.34239 0.0
Zn3 Zn 0.13315 0.0517 0.27626 0.0
O4 O 0.11397 0.10852 0.32952 0.0
Zn5 Zn 0.12531 0.0902 0.27667 0.0
O6 O 0.09292 0.06482 0.2645 0.0
O7 O 0.10846 0.02595 0.26721 0.0
O8 O 0.12876 0.10991 0.22114 0.0
O9 O 0.1337 0.06911 0.20812 0.0
O10 O 0.16694 0.03998 0.29045 0.0
O11 O 0.16312 0.08113 0.29943 0.0
C12 C 0.08962 0.04068 0.26225 0.0
C13 C 0.17635 0.06089 0.3035 0.0
C14 C 0.91718 0.60886 0.60665 0.0
C15 C 0.9062 0.631 0.44561 0.0
O16 O 0.93822 0.61668 0.58934 0.0
Zn17 Zn 0.95048 0.63143 0.52193 0.0
O18 O 0.89732 0.60845 0.58181 0.0
Zn19 Zn 0.91257 0.62162 0.52754 0.0
O20 O 0.9382 0.59081 0.50896 0.0
O21 O 0.97639 0.60768 0.50575 0.0
O22 O 0.89017 0.62452 0.47605 0.0
O23 O 0.92935 0.63461 0.45762 0.0
O24 O 0.96176 0.66504 0.53755 0.0
O25 O 0.92109 0.6597 0.55085 0.0
C26 C 0.96215 0.5884 0.50215 0.0
C27 C 0.94101 0.67356 0.55331 0.0
C28 C 0.39693 0.41915 0.86771 0.0
C29 C 0.37735 0.4029 0.70609 0.0
O30 O 0.38796 0.439 0.84775 0.0
Zn31 Zn 0.37429 0.44893 0.77863 0.0
O32 O 0.39927 0.39871 0.84483 0.0
Zn33 Zn 0.38575 0.41148 0.78807 0.0
O34 O 0.41557 0.43775 0.76859 0.0
O35 O 0.39763 0.47529 0.7615 0.0
O36 O 0.38457 0.38785 0.73773 0.0
O37 O 0.37255 0.42607 0.71643 0.0
O38 O 0.34007 0.45914 0.79141 0.0
O39 O 0.34681 0.41904 0.80844 0.0
C40 C 0.41738 0.46156 0.75997 0.0
C41 C 0.33209 0.43843 0.8083 0.0
C42 C 0.58756 0.89077 0.11792 0.0
C43 C 0.59495 0.87365 0.95337 0.0
O44 O 0.56649 0.8829 0.10089 0.0
Zn45 Zn 0.55274 0.87063 0.03323 0.0
O46 O 0.60697 0.89259 0.09202 0.0
Zn47 Zn 0.59104 0.88012 0.03709 0.0
O48 O 0.56503 0.91142 0.02294 0.0
O49 O 0.52652 0.89512 0.0225 0.0
O50 O 0.6122 0.8777 0.98302 0.0
O51 O 0.57199 0.87073 0.96701 0.0
O52 O 0.54214 0.83628 0.04563 0.0
O53 O 0.58291 0.84164 0.05783 0.0
C54 C 0.54094 0.91429 0.01886 0.0
C55 C 0.56316 0.82755 0.05982 0.0
C56 C 0.17361 0.43859 0.00191 0.0
C57 C 0.08886 0.46304 0.05146 0.0
O58 O 0.15889 0.41925 0.00364 0.0
Zn59 Zn 0.12024 0.41228 0.02622 0.0
O60 O 0.16582 0.45964 0.01771 0.0
Zn61 Zn 0.13172 0.44978 0.03249 0.0
O62 O 0.13392 0.42827 0.09657 0.0
O63 O 0.12206 0.38965 0.07775 0.0
O64 O 0.10862 0.47665 0.04829 0.0
O65 O 0.09057 0.43904 0.04473 0.0
O66 O 0.10593 0.39816 0.97153 0.0
O67 O 0.11714 0.43834 0.96455 0.0
C68 C 0.12932 0.40526 0.10837 0.0
C69 C 0.10785 0.41801 0.94685 0.0
C70 C 0.58385 0.60598 0.20538 0.0
C71 C 0.5983 0.62784 0.36631 0.0
O72 O 0.56372 0.61533 0.22375 0.0
Zn73 Zn 0.55299 0.62995 0.29211 0.0
O74 O 0.60392 0.60391 0.22943 0.0
Zn75 Zn 0.5904 0.61847 0.28445 0.0
O76 O 0.56396 0.58885 0.30442 0.0
O77 O 0.5264 0.60695 0.30925 0.0
O78 O 0.6136 0.62055 0.3352 0.0
O79 O 0.57516 0.63236 0.35527 0.0
O80 O 0.54276 0.66393 0.27753 0.0
O81 O 0.5829 0.657 0.26122 0.0
C82 C 0.54006 0.58721 0.31221 0.0
C83 C 0.56346 0.67164 0.26022 0.0
C84 C 0.39222 0.08593 0.45707 0.0
C85 C 0.37321 0.0916 0.62105 0.0
O86 O 0.38461 0.06456 0.47324 0.0
Zn87 Zn 0.37182 0.05002 0.54007 0.0
O88 O 0.3933 0.10518 0.48351 0.0
Zn89 Zn 0.38047 0.08854 0.53742 0.0
O90 O 0.41215 0.06312 0.55209 0.0
O91 O 0.39663 0.02426 0.55109 0.0
O92 O 0.37699 0.1092 0.59198 0.0
O93 O 0.37092 0.06871 0.60667 0.0
O94 O 0.33794 0.03868 0.52627 0.0
O95 O 0.34256 0.07959 0.5145 0.0
C96 C 0.41544 0.03906 0.55576 0.0
C97 C 0.32898 0.05951 0.51164 0.0
C98 C 0.91776 0.89185 0.69725 0.0
C99 C 0.91371 0.87536 0.86206 0.0
O100 O 0.93958 0.88522 0.71292 0.0
Zn101 Zn 0.95462 0.87263 0.7799 0.0
O102 O 0.89867 0.89224 0.7241 0.0
Zn103 Zn 0.91625 0.88111 0.778 0.0
O104 O 0.94205 0.91321 0.79001 0.0
O105 O 0.98068 0.89703 0.78914 0.0
O106 O 0.89599 0.87857 0.83304 0.0
O107 O 0.93655 0.8729 0.84743 0.0
O108 O 0.96582 0.83847 0.76714 0.0
O109 O 0.92483 0.84288 0.75698 0.0
C110 C 0.96621 0.91616 0.793 0.0
C111 C 0.94485 0.82923 0.75401 0.0
C112 C 0.67344 0.56605 0.8088 0.0
C113 C 0.5885 0.54255 0.75913 0.0
O114 O 0.6588 0.58549 0.80795 0.0
Zn115 Zn 0.6201 0.59292 0.78577 0.0
O116 O 0.66553 0.54525 0.79217 0.0
Zn117 Zn 0.63142 0.55539 0.77819 0.0
O118 O 0.63333 0.57737 0.71479 0.0
O119 O 0.62177 0.61594 0.7346 0.0
O120 O 0.6082 0.5288 0.76179 0.0
O121 O 0.5903 0.56647 0.76663 0.0
O122 O 0.6059 0.60652 0.84115 0.0
O123 O 0.61708 0.56624 0.84653 0.0
C124 C 0.62875 0.60046 0.70353 0.0
C125 C 0.60787 0.58639 0.86507 0.0
C126 C 0.41782 0.11159 0.11707 0.0
C127 C 0.41113 0.12958 0.9529 0.0
O128 O 0.43902 0.11946 0.10057 0.0
Zn129 Zn 0.45311 0.13193 0.0332 0.0
O130 O 0.39855 0.10998 0.09079 0.0
Zn131 Zn 0.4148 0.12262 0.03645 0.0
O132 O 0.4407 0.09123 0.02224 0.0
O133 O 0.47926 0.1074 0.02247 0.0
O134 O 0.3938 0.12543 0.98234 0.0
O135 O 0.43407 0.13228 0.96676 0.0
O136 O 0.46387 0.16616 0.04607 0.0
O137 O 0.42305 0.16096 0.05789 0.0
C138 C 0.4648 0.08829 0.01845 0.0
C139 C 0.44287 0.17495 0.06019 0.0
C140 C 0.91568 0.96513 0.26206 0.0
C141 C 0.82886 0.94557 0.30352 0.0
O142 O 0.91229 0.94101 0.26471 0.0
Zn143 Zn 0.87973 0.91585 0.27719 0.0
O144 O 0.89689 0.97996 0.26667 0.0
Zn145 Zn 0.8721 0.95436 0.27606 0.0
O146 O 0.8849 0.93868 0.34254 0.0
O147 O 0.89097 0.89771 0.33032 0.0
O148 O 0.83836 0.96633 0.2899 0.0
O149 O 0.84201 0.92525 0.29992 0.0
O150 O 0.87613 0.89589 0.222 0.0
O151 O 0.87155 0.93665 0.20818 0.0
C152 C 0.89118 0.91662 0.35759 0.0
C153 C 0.87326 0.9138 0.19325 0.0
C154 C 0.04205 0.41697 0.49885 0.0
C155 C 0.06544 0.33241 0.55026 0.0
O156 O 0.06588 0.41529 0.50731 0.0
Zn157 Zn 0.0923 0.38574 0.5275 0.0
O158 O 0.02837 0.39722 0.50101 0.0
Zn159 Zn 0.05487 0.37414 0.51853 0.0
O160 O 0.06488 0.38855 0.58714 0.0
O161 O 0.10514 0.39989 0.58366 0.0
O162 O 0.04476 0.34004 0.53266 0.0
O163 O 0.08479 0.34715 0.54971 0.0
O164 O 0.11584 0.38406 0.4771 0.0
O165 O 0.07758 0.37207 0.45618 0.0
C166 C 0.08473 0.39774 0.60671 0.0
C167 C 0.10074 0.37678 0.44564 0.0
C168 C 0.67669 0.94487 0.51258 0.0
C169 C 0.59025 0.96578 0.5562 0.0
O170 O 0.66296 0.9249 0.51541 0.0
Zn171 Zn 0.62494 0.91614 0.53782 0.0
O172 O 0.66786 0.96578 0.5271 0.0
Zn173 Zn 0.63387 0.95463 0.54076 0.0
O174 O 0.63462 0.93575 0.60726 0.0
O175 O 0.62818 0.89535 0.5923 0.0
O176 O 0.60914 0.98049 0.55175 0.0
O177 O 0.59343 0.94172 0.5524 0.0
O178 O 0.6122 0.89974 0.4835 0.0
O179 O 0.62122 0.94032 0.47371 0.0
C180 C 0.63214 0.91286 0.6215 0.0
C181 C 0.61355 0.91905 0.45722 0.0
C182 C 0.06177 0.17777 0.75351 0.0
C183 C 0.04026 0.09096 0.79318 0.0
O184 O 0.08174 0.16405 0.75633 0.0
Zn185 Zn 0.09026 0.12585 0.77744 0.0
O186 O 0.04081 0.16865 0.76697 0.0
Zn187 Zn 0.05192 0.13445 0.77983 0.0
O188 O 0.07028 0.13418 0.84713 0.0
O189 O 0.11077 0.12845 0.83214 0.0
O190 O 0.02582 0.11012 0.78948 0.0
O191 O 0.06441 0.09385 0.7899 0.0
O192 O 0.10757 0.11461 0.72335 0.0
O193 O 0.06664 0.12174 0.71272 0.0
C194 C 0.09318 0.13173 0.86139 0.0
C195 C 0.08837 0.11503 0.69677 0.0
C196 C 0.91761 0.54446 0.05016 0.0
C197 C 0.8319 0.5669 0.00286 0.0
O198 O 0.91532 0.56847 0.04394 0.0
Zn199 Zn 0.88453 0.59453 0.02704 0.0
O200 O 0.89815 0.53042 0.04706 0.0
Zn201 Zn 0.87439 0.55668 0.0322 0.0
O202 O 0.88856 0.56923 0.96456 0.0
O203 O 0.89719 0.61001 0.97261 0.0
O204 O 0.84046 0.54589 0.01741 0.0
O205 O 0.84601 0.58665 0.00529 0.0
O206 O 0.88245 0.61664 0.07897 0.0
O207 O 0.87193 0.57751 0.097 0.0
C208 C 0.89637 0.5903 0.94741 0.0
C209 C 0.87592 0.60056 0.10929 0.0
C210 C 0.41744 0.39648 0.20798 0.0
C211 C 0.4047 0.37353 0.36887 0.0
O212 O 0.43785 0.38728 0.22558 0.0
Zn213 Zn 0.44931 0.37222 0.29326 0.0
O214 O 0.39753 0.398 0.23257 0.0
Zn215 Zn 0.41173 0.38332 0.28691 0.0
O216 O 0.43809 0.41315 0.30649 0.0
O217 O 0.47583 0.39533 0.31004 0.0
O218 O 0.38903 0.38072 0.3383 0.0
O219 O 0.42779 0.36933 0.35709 0.0
O220 O 0.45975 0.33843 0.27773 0.0
O221 O 0.41939 0.34502 0.26282 0.0
C222 C 0.46204 0.41495 0.31361 0.0
C223 C 0.43896 0.33059 0.26097 0.0
H224 H 0.29873 0.01936 0.4877 0.0
H225 H 0.20222 0.10233 0.33605 0.0
H226 H 0.30458 0.1006 0.47393 0.0
H227 H 0.20526 0.02062 0.33211 0.0
H228 H 0.23866 0.10239 0.38854 0.0
H229 H 0.26243 0.01985 0.43507 0.0
C230 C 0.29219 0.03737 0.47416 0.0
C231 C 0.3048 0.05998 0.48534 0.0
C232 C 0.23148 0.08446 0.3759 0.0
C233 C 0.26335 0.06061 0.42436 0.0
C234 C 0.21074 0.08441 0.34568 0.0
C235 C 0.20061 0.06143 0.32953 0.0
C236 C 0.24208 0.06137 0.39048 0.0
C237 C 0.21242 0.0388 0.34348 0.0
C238 C 0.27157 0.03759 0.44373 0.0
C239 C 0.29548 0.0827 0.46638 0.0
N240 N 0.23237 0.03935 0.37338 0.0
N241 N 0.27539 0.08242 0.43675 0.0
H242 H 0.98471 0.79879 0.72924 0.0
H243 H 0.89991 0.69805 0.59102 0.0
H244 H 0.9032 0.80373 0.72115 0.0
H245 H 0.98114 0.70374 0.57732 0.0
H246 H 0.90042 0.73506 0.64232 0.0
H247 H 0.98345 0.76137 0.67937 0.0
C248 C 0.9665 0.79183 0.71754 0.0
C249 C 0.94403 0.80451 0.72944 0.0
C250 C 0.9181 0.72829 0.62782 0.0
C251 C 0.94249 0.76174 0.67167 0.0
C252 C 0.91782 0.70722 0.59833 0.0
C253 C 0.94052 0.69774 0.57966 0.0
C254 C 0.94126 0.73985 0.63917 0.0
C255 C 0.96316 0.71038 0.59067 0.0
C256 C 0.96582 0.77056 0.68869 0.0
C257 C 0.92101 0.7946 0.71291 0.0
N258 N 0.96296 0.73063 0.61988 0.0
N259 N 0.92084 0.77387 0.68479 0.0
H260 H 0.29996 0.47789 0.82658 0.0
H261 H 0.19785 0.39644 0.9672 0.0
H262 H 0.30805 0.39728 0.84722 0.0
H263 H 0.20491 0.47772 0.97768 0.0
H264 H 0.23591 0.39558 0.91828 0.0
H265 H 0.262 0.47732 0.87484 0.0
C266 C 0.29361 0.45998 0.84077 0.0
C267 C 0.30732 0.43759 0.83278 0.0
C268 C 0.22918 0.41355 0.9316 0.0
C269 C 0.26378 0.43688 0.88866 0.0
C270 C 0.20751 0.41407 0.95966 0.0
C271 C 0.19813 0.43719 0.97673 0.0
C272 C 0.24136 0.43635 0.91998 0.0
C273 C 0.21142 0.45943 0.96555 0.0
C274 C 0.272 0.45972 0.8687 0.0
C275 C 0.29812 0.415 0.85242 0.0
N276 N 0.23217 0.45846 0.93766 0.0
N277 N 0.27693 0.41522 0.87947 0.0
H278 H 0.60515 0.80184 0.0909 0.0
H279 H 0.52398 0.70358 0.24086 0.0
H280 H 0.52354 0.7974 0.08665 0.0
H281 H 0.60431 0.69455 0.21819 0.0
H282 H 0.52427 0.7405 0.18988 0.0
H283 H 0.60592 0.76421 0.14075 0.0
C284 C 0.5874 0.79279 0.09992 0.0
C285 C 0.56423 0.80285 0.08445 0.0
C286 C 0.54187 0.73051 0.19614 0.0
C287 C 0.565 0.76007 0.14235 0.0
C288 C 0.54177 0.70951 0.22563 0.0
C289 C 0.56417 0.69586 0.23394 0.0
C290 C 0.56455 0.73816 0.17489 0.0
C291 C 0.5866 0.70447 0.21288 0.0
C292 C 0.58787 0.77137 0.12855 0.0
C293 C 0.54186 0.79033 0.09751 0.0
N294 N 0.58622 0.72506 0.18432 0.0
N295 N 0.5428 0.76979 0.12598 0.0
H296 H 0.70561 0.52669 0.82772 0.0
H297 H 0.80648 0.60881 0.97019 0.0
H298 H 0.69706 0.60724 0.84847 0.0
H299 H 0.80139 0.52729 0.97757 0.0
H300 H 0.76833 0.60936 0.92159 0.0
H301 H 0.7434 0.52738 0.87646 0.0
C302 C 0.71181 0.54461 0.84207 0.0
C303 C 0.69804 0.56695 0.83389 0.0
C304 C 0.77549 0.59139 0.93416 0.0
C305 C 0.74139 0.56781 0.89036 0.0
C306 C 0.79722 0.59105 0.96206 0.0
C307 C 0.80721 0.56796 0.97813 0.0
C308 C 0.76381 0.56846 0.92171 0.0
C309 C 0.79441 0.54556 0.9662 0.0
C310 C 0.73333 0.54494 0.87027 0.0
C311 C 0.70705 0.58956 0.85375 0.0
N312 N 0.77356 0.54636 0.9385 0.0
N313 N 0.72814 0.58941 0.88107 0.0
H314 H 0.39776 0.30707 0.22137 0.0
H315 H 0.48249 0.20569 0.08464 0.0
H316 H 0.47868 0.29962 0.23835 0.0
H317 H 0.40106 0.20009 0.09357 0.0
H318 H 0.48103 0.24314 0.13437 0.0
H319 H 0.39815 0.26999 0.17006 0.0
C320 C 0.41556 0.29751 0.21476 0.0
C321 C 0.43822 0.3065 0.23437 0.0
C322 C 0.46346 0.2338 0.12528 0.0
C323 C 0.43884 0.26438 0.17489 0.0
C324 C 0.46425 0.21251 0.09651 0.0
C325 C 0.44186 0.19963 0.08488 0.0
C326 C 0.4401 0.24247 0.14246 0.0
C327 C 0.4188 0.20937 0.10162 0.0
C328 C 0.41577 0.27641 0.1853 0.0
C329 C 0.46072 0.29338 0.22426 0.0
N330 N 0.41852 0.23016 0.12962 0.0
N331 N 0.46047 0.27315 0.19504 0.0
H332 H 0.79953 0.98612 0.32924 0.0
H333 H 0.70155 0.90336 0.47778 0.0
H334 H 0.80345 0.90459 0.33908 0.0
H335 H 0.70631 0.9849 0.48544 0.0
H336 H 0.73776 0.9032 0.42482 0.0
H337 H 0.76327 0.98579 0.38195 0.0
C338 C 0.79257 0.9681 0.34191 0.0
C339 C 0.80463 0.94534 0.32964 0.0
C340 C 0.731 0.92111 0.43837 0.0
C341 C 0.76324 0.94488 0.39071 0.0
C342 C 0.7104 0.92121 0.46886 0.0
C343 C 0.70083 0.94418 0.48622 0.0
C344 C 0.74204 0.94415 0.42473 0.0
C345 C 0.71305 0.96672 0.47314 0.0
C346 C 0.77197 0.96795 0.37239 0.0
C347 C 0.79478 0.9226 0.3475 0.0
N348 N 0.73287 0.96615 0.44296 0.0
N349 N 0.77474 0.92296 0.37721 0.0
H350 H 0.10653 0.30935 0.59106 0.0
H351 H 0.02188 0.20781 0.7273 0.0
H352 H 0.02587 0.301 0.57172 0.0
H353 H 0.10347 0.20344 0.72137 0.0
H354 H 0.02324 0.24495 0.67671 0.0
H355 H 0.1061 0.27258 0.64303 0.0
C356 C 0.08879 0.29963 0.59725 0.0
C357 C 0.06621 0.3083 0.57682 0.0
C358 C 0.04086 0.23595 0.68666 0.0
C359 C 0.06552 0.26653 0.63711 0.0
C360 C 0.04012 0.21485 0.71594 0.0
C361 C 0.0626 0.2024 0.72863 0.0
C362 C 0.06425 0.24485 0.67006 0.0
C363 C 0.08566 0.21239 0.7125 0.0
C364 C 0.08854 0.27871 0.62712 0.0
C365 C 0.04377 0.295 0.58645 0.0
N366 N 0.08589 0.23297 0.68399 0.0
N367 N 0.04397 0.27494 0.6161 0.0
H368 H 0.0445 0.06614 0.25394 0.0
H369 H 0.96081 0.93954 0.25522 0.0
H370 H 0.07616 0.9907 0.25652 0.0
H371 H 0.92922 0.01502 0.2549 0.0
H372 H 0.00324 0.95788 0.25003 0.0
H373 H 1.00212 0.04772 0.24863 0.0
C374 C 0.04257 0.04571 0.2531 0.0
C375 C 0.06394 0.02996 0.25597 0.0
C376 C 0.98701 0.97042 0.25085 0.0
C377 C 0.01545 0.00873 0.25006 0.0
C378 C 0.96277 0.95995 0.25376 0.0
C379 C 0.94141 0.97575 0.25579 0.0
C380 C 0.98994 0.99689 0.25003 0.0
C381 C 0.94512 1.00209 0.25367 0.0
C382 C 0.01835 0.0352 0.25012 0.0
C383 C 0.06025 0.0036 0.25462 0.0
N384 N 0.9689 0.01181 0.25114 0.0
N385 N 0.03649 0.99384 0.252 0.0
H386 H 0.93755 0.54283 0.49423 0.0
H387 H 0.06601 0.46261 0.48881 0.0
H388 H 0.01213 0.57626 0.48955 0.0
H389 H 0.99163 0.42865 0.48941 0.0
H390 H 0.04643 0.50433 0.48227 0.0
H391 H 0.95675 0.50093 0.48587 0.0
C392 C 0.95795 0.5414 0.49106 0.0
C393 C 0.97326 0.56312 0.49298 0.0
C394 C 0.03437 0.48776 0.48346 0.0
C395 C 0.99538 0.51515 0.48363 0.0
C396 C 0.04555 0.46389 0.48716 0.0
C397 C 0.03044 0.44207 0.49006 0.0
C398 C 0.00785 0.48992 0.48291 0.0
C399 C 0.00403 0.44494 0.4875 0.0
C400 C 0.9689 0.51745 0.48631 0.0
C401 C 0.99957 0.56007 0.48853 0.0
N402 N 0.99357 0.46844 0.48448 0.0
N403 N 0.00979 0.53654 0.48441 0.0
H404 H 0.46324 0.43755 0.75263 0.0
H405 H 0.54269 0.56648 0.75 0.0
H406 H 0.42903 0.51183 0.74814 0.0
H407 H 0.57687 0.49215 0.74938 0.0
H408 H 0.50099 0.54682 0.74324 0.0
H409 H 0.50494 0.45713 0.74542 0.0
C410 C 0.46445 0.45797 0.74976 0.0
C411 C 0.44255 0.47307 0.75135 0.0
C412 C 0.51761 0.5348 0.74422 0.0
C413 C 0.49038 0.49566 0.74334 0.0
C414 C 0.54147 0.54603 0.74805 0.0
C415 C 0.56335 0.53095 0.75061 0.0
C416 C 0.51555 0.50827 0.74316 0.0
C417 C 0.56055 0.50454 0.74773 0.0
C418 C 0.48831 0.46915 0.74565 0.0
C419 C 0.44536 0.49943 0.74727 0.0
N420 N 0.53709 0.49405 0.74453 0.0
N421 N 0.46882 0.50988 0.74382 0.0
H422 H 0.56617 0.95947 0.01102 0.0
H423 H 0.43953 0.04312 0.01044 0.0
H424 H 0.49084 0.92768 0.01203 0.0
H425 H 0.51488 0.07485 0.01186 0.0
H426 H 0.45795 1.00075 0.0052 0.0
H427 H 0.54773 1.00182 0.00554 0.0
C428 C 0.54575 0.96135 0.0098 0.0
C429 C 0.53004 0.93993 0.01227 0.0
C430 C 0.47046 0.01698 0.0064 0.0
C431 C 0.50877 0.98849 0.00617 0.0
C432 C 0.45995 0.04122 0.00934 0.0
C433 C 0.47566 0.06263 0.01188 0.0
C434 C 0.49692 0.01405 0.00607 0.0
C435 C 0.502 0.05893 0.01018 0.0
C436 C 0.53522 0.98558 0.0067 0.0
C437 C 0.5037 0.94361 0.0104 0.0
N438 N 0.51178 0.03513 0.00764 0.0
N439 N 0.49391 0.9674 0.00771 0.0
H440 H 0.04298 0.43944 0.06142 0.0
H441 H 0.9635 0.5686 0.05675 0.0
H442 H 0.07738 0.51361 0.0594 0.0
H443 H 0.92953 0.49426 0.06133 0.0
H444 H 0.00532 0.54903 0.06366 0.0
H445 H 1.00136 0.45933 0.06751 0.0
C446 C 0.04183 0.45992 0.06264 0.0
C447 C 0.06376 0.47486 0.05957 0.0
C448 C 0.98871 0.537 0.06348 0.0
C449 C 0.016 0.49782 0.06623 0.0
C450 C 0.96479 0.54817 0.05957 0.0
C451 C 0.94292 0.53306 0.05814 0.0
C452 C 0.99083 0.51049 0.06584 0.0
C453 C 0.94583 0.50669 0.06206 0.0
C454 C 0.01801 0.47128 0.06607 0.0
C455 C 0.06102 0.50132 0.06149 0.0
N456 N 0.96931 0.49626 0.06542 0.0
N457 N 0.03758 0.51194 0.06435 0.0
H458 H 0.51231 0.42615 0.32609 0.0
H459 H 0.48975 0.57615 0.32479 0.0
H460 H 0.43834 0.461 0.32108 0.0
H461 H 0.56365 0.54116 0.3202 0.0
H462 H 0.47062 0.53422 0.33264 0.0
H463 H 0.53137 0.46813 0.3332 0.0
C464 C 0.50003 0.4426 0.32691 0.0
C465 C 0.47367 0.44002 0.32258 0.0
C466 C 0.49103 0.53573 0.33026 0.0
C467 C 0.49543 0.48822 0.33049 0.0
C468 C 0.50199 0.55969 0.32586 0.0
C469 C 0.52835 0.5622 0.32144 0.0
C470 C 0.50653 0.51408 0.33022 0.0
C471 C 0.54323 0.54016 0.32319 0.0
C472 C 0.51095 0.46659 0.33089 0.0
C473 C 0.45875 0.46206 0.32404 0.0
N474 N 0.53211 0.51704 0.32714 0.0
N475 N 0.46985 0.48521 0.32754 0.0
H476 H 0.46006 0.06511 0.56471 0.0
H477 H 0.5456 0.93984 0.56549 0.0
H478 H 0.42959 0.98922 0.56296 0.0
H479 H 0.57618 0.01569 0.56278 0.0
H480 H 0.50302 0.95762 0.57136 0.0
H481 H 0.50268 0.04739 0.57079 0.0
C482 C 0.46229 0.04472 0.56592 0.0
C483 C 0.44119 0.02863 0.56298 0.0
C484 C 0.51905 0.97038 0.56975 0.0
C485 C 0.49001 0.00821 0.56977 0.0
C486 C 0.5434 0.96024 0.56644 0.0
C487 C 0.56453 0.97629 0.5633 0.0
C488 C 0.51573 0.99679 0.56985 0.0
C489 C 0.56046 0.00257 0.56488 0.0
C490 C 0.48667 0.03461 0.56935 0.0
C491 C 0.44528 1.00236 0.56488 0.0
N492 N 0.53654 0.01199 0.56777 0.0
N493 N 0.46921 0.99298 0.56789 0.0
H494 H 0.99014 0.07826 0.80089 0.0
H495 H 0.01631 0.9289 0.80067 0.0
H496 H 0.065 0.0453 0.79872 0.0
H497 H 0.94142 0.96181 0.79853 0.0
H498 H 0.03441 0.97133 0.8056 0.0
H499 H 0.972 0.03583 0.80569 0.0
C500 C 0.0028 0.06212 0.80168 0.0
C501 C 0.02917 0.06539 0.79913 0.0
C502 C 0.01401 0.96929 0.80427 0.0
C503 C 0.00844 0.01663 0.80448 0.0
C504 C 0.00363 0.94504 0.80148 0.0
C505 C 0.97727 0.94175 0.79891 0.0
C506 C 0.99796 0.99051 0.80443 0.0
C507 C 0.96184 0.96341 0.80027 0.0
C508 C 0.9924 0.03786 0.80439 0.0
C509 C 0.04458 0.04371 0.80045 0.0
N510 N 0.97242 0.98686 0.80271 0.0
N511 N 0.03398 0.02027 0.80281 0.0
H512 H 0.05423 0.09272 0.63824 0.0
H513 H 0.1238 0.13155 0.40877 0.0
H514 H 0.12912 0.12533 0.64262 0.0
H515 H 0.09148 0.05662 0.41755 0.0
H516 H 0.11711 0.13682 0.49251 0.0
H517 H 0.05941 0.08568 0.5541 0.0
C518 C 0.07172 0.09832 0.62145 0.0
C519 C 0.09136 0.10949 0.64708 0.0
C520 C 0.11137 0.11932 0.47587 0.0
C521 C 0.09696 0.10225 0.55187 0.0
C522 C 0.115 0.11636 0.42827 0.0
C523 C 0.10819 0.09361 0.40654 0.0
C524 C 0.10026 0.09968 0.50144 0.0
C525 C 0.09707 0.07439 0.43332 0.0
C526 C 0.07465 0.09425 0.5738 0.0
C527 C 0.11367 0.11646 0.624 0.0
N528 N 0.09321 0.07792 0.47959 0.0
N529 N 0.11575 0.11305 0.57744 0.0
H530 H 0.95433 0.59016 0.66376 0.0
H531 H 0.89152 0.63177 0.89264 0.0
H532 H 0.87617 0.61426 0.66223 0.0
H533 H 0.91442 0.55323 0.88948 0.0
H534 H 0.89789 0.63411 0.80849 0.0
H535 H 0.95111 0.58359 0.7485 0.0
C536 C 0.93653 0.59387 0.6812 0.0
C537 C 0.91545 0.6027 0.65628 0.0
C538 C 0.90175 0.6165 0.82655 0.0
C539 C 0.91202 0.59596 0.75182 0.0
C540 C 0.89827 0.61514 0.87433 0.0
C541 C 0.90237 0.59223 0.89774 0.0
C542 C 0.91 0.59503 0.80242 0.0
C543 C 0.91091 0.57117 0.87238 0.0
C544 C 0.93474 0.59005 0.72914 0.0
C545 C 0.89278 0.60726 0.68022 0.0
N546 N 0.91461 0.57307 0.82573 0.0
N547 N 0.89178 0.60427 0.72693 0.0
H548 H 0.38228 0.42637 0.16514 0.0
H549 H 0.38598 0.45643 0.93058 0.0
H550 H 0.45064 0.38378 0.13887 0.0
H551 H 0.42216 0.38331 0.91854 0.0
H552 H 0.39322 0.45533 0.01442 0.0
H553 H 0.37927 0.43588 0.08237 0.0
C554 C 0.39685 0.41932 0.14199 0.0
C555 C 0.41672 0.40424 0.15881 0.0
C556 C 0.39942 0.43948 0.99343 0.0
C557 C 0.41357 0.41528 0.06419 0.0
C558 C 0.39553 0.44018 0.94553 0.0
C559 C 0.40313 0.41973 0.91767 0.0
C560 C 0.41104 0.41818 0.01347 0.0
C561 C 0.41565 0.39931 0.93884 0.0
C562 C 0.39527 0.42499 0.0948 0.0
C563 C 0.43507 0.39556 0.12732 0.0
N564 N 0.41917 0.39902 0.98558 0.0
N565 N 0.43283 0.40089 0.08132 0.0
H566 H 0.62802 0.95076 0.3873 0.0
H567 H 0.55592 0.87543 0.18739 0.0
H568 H 0.58563 0.88234 0.41386 0.0
H569 H 0.62331 0.91959 0.1618 0.0
H570 H 0.5604 0.88384 0.27065 0.0
H571 H 0.62007 0.94552 0.30409 0.0
C572 C 0.61684 0.93477 0.37565 0.0
C573 C 0.60755 0.91687 0.4074 0.0
C574 C 0.57412 0.89173 0.2467 0.0
C575 C 0.59833 0.91093 0.31263 0.0
C576 C 0.57153 0.88707 0.19926 0.0
C577 C 0.58936 0.89676 0.16779 0.0
C578 C 0.59441 0.90652 0.26255 0.0
C579 C 0.60927 0.91163 0.18499 0.0
C580 C 0.61245 0.93175 0.32824 0.0
C581 C 0.59328 0.89646 0.39045 0.0
N582 N 0.61123 0.91613 0.23131 0.0
N583 N 0.58904 0.89406 0.3441 0.0
H584 H 0.04734 0.38763 0.66974 0.0
H585 H 0.07773 0.3832 0.90381 0.0
H586 H 0.12092 0.42269 0.65714 0.0
H587 H 0.12113 0.45104 0.8778 0.0
H588 H 0.06816 0.38044 0.82106 0.0
H589 H 0.04868 0.39492 0.75351 0.0
C590 C 0.06373 0.39695 0.68455 0.0
C591 C 0.08425 0.40421 0.65655 0.0
C592 C 0.07925 0.39627 0.83354 0.0
C593 C 0.08608 0.41214 0.7523 0.0
C594 C 0.08496 0.39771 0.88072 0.0
C595 C 0.10026 0.41736 0.8976 0.0
C596 C 0.08913 0.41452 0.80301 0.0
C597 C 0.10917 0.43563 0.86618 0.0
C598 C 0.06457 0.40087 0.73241 0.0
C599 C 0.10487 0.41646 0.67755 0.0
N600 N 0.10378 0.43355 0.82018 0.0
N601 N 0.10529 0.41998 0.72428 0.0
H602 H 0.61741 0.57503 0.16081 0.0
H603 H 0.57758 0.62045 0.91004 0.0
H604 H 0.5513 0.62146 0.13722 0.0
H605 H 0.62171 0.55264 0.93245 0.0
H606 H 0.56843 0.62208 0.99328 0.0
H607 H 0.62017 0.56719 0.07724 0.0
C608 C 0.60336 0.58339 0.13805 0.0
C609 C 0.5842 0.59905 0.15581 0.0
C610 C 0.57988 0.60669 0.97986 0.0
C611 C 0.58743 0.59042 0.0604 0.0
C612 C 0.58521 0.60582 0.93246 0.0
C613 C 0.60057 0.58649 0.91447 0.0
C614 C 0.59038 0.58837 0.00951 0.0
C615 C 0.60981 0.5679 0.94495 0.0
C616 C 0.60489 0.57883 0.09044 0.0
C617 C 0.56637 0.60928 0.12489 0.0
N618 N 0.60484 0.56949 0.99115 0.0
N619 N 0.56863 0.60507 0.07851 0.0
H620 H 0.42025 0.12289 0.41477 0.0
H621 H 0.38178 0.08263 0.15963 0.0
H622 H 0.37827 0.05442 0.38654 0.0
H623 H 0.44881 0.12692 0.18753 0.0
H624 H 0.37738 0.07466 0.24304 0.0
H625 H 0.42837 0.12746 0.33139 0.0
C626 C 0.41284 0.10879 0.39104 0.0
C627 C 0.39853 0.08828 0.40744 0.0
C628 C 0.39315 0.08594 0.23078 0.0
C629 C 0.40747 0.09355 0.31246 0.0
C630 C 0.3956 0.09059 0.18332 0.0
C631 C 0.41565 0.10548 0.16681 0.0
C632 C 0.41058 0.0967 0.26187 0.0
C633 C 0.43312 0.11526 0.19889 0.0
C634 C 0.41757 0.11135 0.3436 0.0
C635 C 0.38946 0.07047 0.3753 0.0
N636 N 0.43002 0.11092 0.24504 0.0
N637 N 0.39385 0.07367 0.32921 0.0
H638 H 0.95164 0.91407 0.63811 0.0
H639 H 0.88099 0.87508 0.40987 0.0
H640 H 0.87671 0.8816 0.64374 0.0
H641 H 0.91381 0.94982 0.41759 0.0
H642 H 0.88785 0.87002 0.49362 0.0
H643 H 0.94607 0.92107 0.55404 0.0
C644 C 0.93406 0.90849 0.62161 0.0
C645 C 0.91453 0.89737 0.64757 0.0
C646 C 0.89364 0.88743 0.47675 0.0
C647 C 0.90848 0.90458 0.55243 0.0
C648 C 0.88992 0.89027 0.42915 0.0
C649 C 0.89684 0.91291 0.40711 0.0
C650 C 0.90497 0.90707 0.50202 0.0
C651 C 0.90814 0.93214 0.4336 0.0
C652 C 0.93091 0.91254 0.574 0.0
C653 C 0.8921 0.89044 0.62486 0.0
N654 N 0.91209 0.92872 0.47988 0.0
N655 N 0.8898 0.89383 0.57832 0.0
H656 H 0.13588 0.14672 0.90755 0.0
H657 H 0.111 0.06128 0.12686 0.0
H658 H 0.06383 0.10988 0.92796 0.0
H659 H 0.14638 0.13425 0.14509 0.0
H660 H 0.1013 0.07259 0.04602 0.0
H661 H 0.147 0.13716 0.98877 0.0
C662 C 0.12233 0.1369 0.92932 0.0
C663 C 0.09883 0.12926 0.91137 0.0
C664 C 0.11141 0.08596 0.06773 0.0
C665 C 0.11181 0.11746 0.00288 0.0
C666 C 0.11721 0.07944 0.11352 0.0
C667 C 0.12956 0.09686 0.14248 0.0
C668 C 0.1186 0.10977 0.05058 0.0
C669 C 0.13683 0.12032 0.12375 0.0
C670 C 0.1287 0.13143 0.97538 0.0
C671 C 0.08199 0.11639 0.94074 0.0
N672 N 0.13138 0.12608 0.07875 0.0
N673 N 0.08897 0.11051 0.98492 0.0
H674 H 0.93183 0.65156 0.37169 0.0
H675 H 0.85555 0.57478 0.18329 0.0
H676 H 0.86385 0.61036 0.40684 0.0
H677 H 0.89661 0.64286 0.14814 0.0
H678 H 0.86005 0.5855 0.26583 0.0
H679 H 0.92119 0.64693 0.28916 0.0
C680 C 0.91454 0.64183 0.36208 0.0
C681 C 0.89874 0.6313 0.39613 0.0
C682 C 0.86777 0.59821 0.2399 0.0
C683 C 0.88678 0.6255 0.30216 0.0
C684 C 0.86525 0.59208 0.19289 0.0
C685 C 0.87576 0.6079 0.15884 0.0
C686 C 0.88137 0.61997 0.2528 0.0
C687 C 0.88816 0.63012 0.17322 0.0
C688 C 0.90847 0.63922 0.31508 0.0
C689 C 0.87656 0.61883 0.38175 0.0
N690 N 0.89095 0.63531 0.21914 0.0
N691 N 0.87143 0.61594 0.33582 0.0
H692 H 0.39993 0.36087 0.66912 0.0
H693 H 0.36159 0.39296 0.40737 0.0
H694 H 0.35473 0.42588 0.63134 0.0
H695 H 0.43039 0.3532 0.44314 0.0
H696 H 0.35166 0.39693 0.48998 0.0
H697 H 0.40385 0.34997 0.58676 0.0
C698 C 0.39048 0.37264 0.64359 0.0
C699 C 0.37709 0.39444 0.65709 0.0
C700 C 0.36878 0.38712 0.47966 0.0
C701 C 0.38147 0.38194 0.56301 0.0
C702 C 0.37443 0.38469 0.43253 0.0
C703 C 0.39699 0.37288 0.4183 0.0
C704 C 0.38559 0.37735 0.51285 0.0
C705 C 0.4129 0.3626 0.45256 0.0
C706 C 0.39287 0.36645 0.59664 0.0
C707 C 0.36535 0.40902 0.62245 0.0
N708 N 0.40693 0.36513 0.49833 0.0
N709 N 0.36784 0.40252 0.57694 0.0
H710 H 0.61354 0.94365 0.68903 0.0
H711 H 0.6384 0.85953 0.90824 0.0
H712 H 0.64533 0.86926 0.66735 0.0
H713 H 0.56522 0.89382 0.88577 0.0
H714 H 0.64933 0.86838 0.82653 0.0
H715 H 0.60455 0.93221 0.76998 0.0
C716 C 0.61912 0.92511 0.7016 0.0
C717 C 0.63022 0.90735 0.67163 0.0
C718 C 0.63084 0.87368 0.83964 0.0
C719 C 0.62014 0.89436 0.76376 0.0
C720 C 0.62459 0.86864 0.88595 0.0
C721 C 0.60081 0.87579 0.90344 0.0
C722 C 0.61353 0.88677 0.81152 0.0
C723 C 0.58362 0.88773 0.87341 0.0
C724 C 0.61374 0.91856 0.74748 0.0
C725 C 0.63673 0.88344 0.68947 0.0
N726 N 0.59048 0.89326 0.82905 0.0
N727 N 0.63173 0.87764 0.73465 0.0
H728 H 0.14279 0.39912 0.40844 0.0
H729 H 0.10944 0.36229 0.14659 0.0
H730 H 0.0774 0.3545 0.37091 0.0
H731 H 0.14979 0.43062 0.18288 0.0
H732 H 0.10562 0.35205 0.22908 0.0
H733 H 0.15334 0.40339 0.32601 0.0
C734 C 0.13087 0.38985 0.38295 0.0
C735 C 0.10906 0.37654 0.39656 0.0
C736 C 0.11552 0.36914 0.2189 0.0
C737 C 0.12115 0.38134 0.30237 0.0
C738 C 0.11785 0.37498 0.17183 0.0
C739 C 0.12981 0.39749 0.15778 0.0
C740 C 0.12553 0.38572 0.25221 0.0
C741 C 0.14027 0.41318 0.19216 0.0
C742 C 0.13685 0.39246 0.33595 0.0
C743 C 0.09429 0.36505 0.36195 0.0
N744 N 0.13784 0.40703 0.23787 0.0
N745 N 0.10058 0.36775 0.31639 0.0
H746 H 0.60714 0.64277 0.66575 0.0
H747 H 0.6411 0.60707 0.40367 0.0
H748 H 0.64978 0.57592 0.62876 0.0
H749 H 0.57399 0.64916 0.44113 0.0
H750 H 0.65187 0.60328 0.486 0.0
H751 H 0.60248 0.65283 0.58323 0.0
C752 C 0.61589 0.63041 0.64034 0.0
C753 C 0.62876 0.60835 0.65418 0.0
C754 C 0.63493 0.61356 0.47609 0.0
C755 C 0.62351 0.6199 0.55981 0.0
C756 C 0.62882 0.61588 0.42913 0.0
C757 C 0.60649 0.62833 0.41549 0.0
C758 C 0.61884 0.62409 0.50968 0.0
C759 C 0.59128 0.63927 0.45011 0.0
C760 C 0.61307 0.63612 0.59328 0.0
C761 C 0.63959 0.59302 0.61964 0.0
N762 N 0.59772 0.63685 0.49568 0.0
N763 N 0.63668 0.59906 0.57398 0.0
H764 H 0.392 0.06066 0.68816 0.0
H765 H 0.36783 0.1443 0.90802 0.0
H766 H 0.3601 0.13508 0.6673 0.0
H767 H 0.44078 0.10965 0.885 0.0
H768 H 0.35678 0.13583 0.82625 0.0
H769 H 0.4013 0.07193 0.76905 0.0
C770 C 0.38646 0.07916 0.7009 0.0
C771 C 0.37523 0.09698 0.67119 0.0
C772 C 0.37525 0.13038 0.83925 0.0
C773 C 0.38568 0.1098 0.76323 0.0
C774 C 0.38158 0.1352 0.88559 0.0
C775 C 0.40531 0.12781 0.90294 0.0
C776 C 0.39244 0.11728 0.81095 0.0
C777 C 0.42242 0.11591 0.87273 0.0
C778 C 0.39202 0.08563 0.74675 0.0
C779 C 0.36879 0.12086 0.68924 0.0
N780 N 0.41548 0.11059 0.82834 0.0
N781 N 0.37397 0.12658 0.73438 0.0
H782 H 0.85713 0.87187 0.146 0.0
H783 H 0.94422 0.89558 0.92871 0.0
H784 H 0.89584 0.9431 0.12743 0.0
H785 H 0.87057 0.86195 0.90858 0.0
H786 H 0.93258 0.90545 0.0093 0.0
H787 H 0.86662 0.86103 0.06465 0.0
C788 C 0.86733 0.88532 0.12459 0.0
C789 C 0.87553 0.9085 0.14312 0.0
C790 C 0.91912 0.8957 0.98722 0.0
C791 C 0.88726 0.8958 0.05145 0.0
C792 C 0.92582 0.88981 0.94156 0.0
C793 C 0.90832 0.87789 0.91214 0.0
C794 C 0.89504 0.88903 0.00379 0.0
C795 C 0.88456 0.87117 0.93027 0.0
C796 C 0.87276 0.8791 0.07845 0.0
C797 C 0.88889 0.9252 0.1142 0.0
N798 N 0.87863 0.87669 0.97516 0.0
N799 N 0.89472 0.91834 0.06994 0.0
loop_
_geom_bond_atom_site_label_1
_geom_bond_atom_site_label_2
_geom_bond_distance
_geom_bond_site_symmetry_2
_ccdc_geom_bond_type
C0 O2 1.247 . S
C0 O4 1.258 . S
C1 O8 1.247 . S
C1 O9 1.258 . S
O2 C0 1.247 . S
O2 Zn3 2.028 . S
Zn3 O2 2.028 . S
Zn3 O7 2.035 . S
Zn3 O9 2.035 . S
Zn3 O10 2.028 . S
O4 C0 1.258 . S
O4 Zn5 2.035 . S
Zn5 O4 2.035 . S
Zn5 O6 2.028 . S
Zn5 O8 2.028 . S
Zn5 O11 2.035 . S
O6 Zn5 2.028 . S
O6 C12 1.247 . S
O7 Zn3 2.035 . S
O7 C12 1.258 . S
O8 C1 1.247 . S
O8 Zn5 2.028 . S
O9 C1 1.258 . S
O9 Zn3 2.035 . S
O10 Zn3 2.028 . S
O10 C13 1.247 . S
O11 Zn5 2.035 . S
O11 C13 1.258 . S
C12 O6 1.247 . S
C12 O7 1.258 . S
C13 O10 1.247 . S
C13 O11 1.258 . S
C14 O16 1.247 . S
C14 O18 1.258 . S
C15 O22 1.247 . S
C15 O23 1.258 . S
O16 C14 1.247 . S
O16 Zn17 2.028 . S
Zn17 O16 2.028 . S
Zn17 O21 2.035 . S
Zn17 O23 2.035 . S
Zn17 O24 2.028 . S
O18 C14 1.258 . S
O18 Zn19 2.035 . S
Zn19 O18 2.035 . S
Zn19 O20 2.028 . S
Zn19 O22 2.028 . S
Zn19 O25 2.035 . S
O20 Zn19 2.028 . S
O20 C26 1.247 . S
O21 Zn17 2.035 . S
O21 C26 1.258 . S
O22 C15 1.247 . S
O22 Zn19 2.028 . S
O23 C15 1.258 . S
O23 Zn17 2.035 . S
O24 Zn17 2.028 . S
O24 C27 1.247 . S
O25 Zn19 2.035 . S
O25 C27 1.258 . S
C26 O20 1.247 . S
C26 O21 1.258 . S
C27 O24 1.247 . S
C27 O25 1.258 . S
C28 O30 1.247 . S
C28 O32 1.258 . S
C29 O36 1.247 . S
C29 O37 1.258 . S
O30 C28 1.247 . S
O30 Zn31 2.028 . S
Zn31 O30 2.028 . S
Zn31 O35 2.035 . S
Zn31 O37 2.035 . S
Zn31 O38 2.028 . S
O32 C28 1.258 . S
O32 Zn33 2.035 . S
Zn33 O32 2.035 . S
Zn33 O34 2.028 . S
Zn33 O36 2.028 . S
Zn33 O39 2.035 . S
O34 Zn33 2.028 . S
O34 C40 1.247 . S
O35 Zn31 2.035 . S
O35 C40 1.258 . S
O36 C29 1.247 . S
O36 Zn33 2.028 . S
O37 C29 1.258 . S
O37 Zn31 2.035 . S
O38 Zn31 2.028 . S
O38 C41 1.247 . S
O39 Zn33 2.035 . S
O39 C41 1.258 . S
C40 O34 1.247 . S
C40 O35 1.258 . S
C41 O38 1.247 . S
C41 O39 1.258 . S
C42 O44 1.247 . S
C42 O46 1.258 . S
C43 O50 1.247 . S
C43 O51 1.258 . S
O44 C42 1.247 . S
O44 Zn45 2.028 . S
Zn45 O44 2.028 . S
Zn45 O49 2.035 . S
Zn45 O51 2.035 1_554 S
Zn45 O52 2.028 . S
O46 C42 1.258 . S
O46 Zn47 2.035 . S
Zn47 O46 2.035 . S
Zn47 O48 2.028 . S
Zn47 O50 2.028 1_554 S
Zn47 O53 2.035 . S
O48 Zn47 2.028 . S
O48 C54 1.247 . S
O49 Zn45 2.035 . S
O49 C54 1.258 . S
O50 C43 1.247 . S
O50 Zn47 2.028 1_556 S
O51 C43 1.258 . S
O51 Zn45 2.035 1_556 S
O52 Zn45 2.028 . S
O52 C55 1.247 . S
O53 Zn47 2.035 . S
O53 C55 1.258 . S
C54 O48 1.247 . S
C54 O49 1.258 . S
C55 O52 1.247 . S
C55 O53 1.258 . S
C56 O58 1.247 . S
C56 O60 1.258 . S
C57 O64 1.247 . S
C57 O65 1.258 . S
O58 C56 1.247 . S
O58 Zn59 2.028 . S
Zn59 O58 2.028 . S
Zn59 O63 2.035 . S
Zn59 O65 2.035 . S
Zn59 O66 2.028 1_554 S
O60 C56 1.258 . S
O60 Zn61 2.035 . S
Zn61 O60 2.035 . S
Zn61 O62 2.028 . S
Zn61 O64 2.028 . S
Zn61 O67 2.035 1_554 S
O62 Zn61 2.028 . S
O62 C68 1.247 . S
O63 Zn59 2.035 . S
O63 C68 1.258 . S
O64 C57 1.247 . S
O64 Zn61 2.028 . S
O65 C57 1.258 . S
O65 Zn59 2.035 . S
O66 Zn59 2.028 1_556 S
O66 C69 1.247 . S
O67 Zn61 2.035 1_556 S
O67 C69 1.258 . S
C68 O62 1.247 . S
C68 O63 1.258 . S
C69 O66 1.247 . S
C69 O67 1.258 . S
C70 O72 1.247 . S
C70 O74 1.258 . S
C71 O78 1.247 . S
C71 O79 1.258 . S
O72 C70 1.247 . S
O72 Zn73 2.028 . S
Zn73 O72 2.028 . S
Zn73 O77 2.035 . S
Zn73 O79 2.035 . S
Zn73 O80 2.028 . S
O74 C70 1.258 . S
O74 Zn75 2.035 . S
Zn75 O74 2.035 . S
Zn75 O76 2.028 . S
Zn75 O78 2.028 . S
Zn75 O81 2.035 . S
O76 Zn75 2.028 . S
O76 C82 1.247 . S
O77 Zn73 2.035 . S
O77 C82 1.258 . S
O78 C71 1.247 . S
O78 Zn75 2.028 . S
O79 C71 1.258 . S
O79 Zn73 2.035 . S
O80 Zn73 2.028 . S
O80 C83 1.247 . S
O81 Zn75 2.035 . S
O81 C83 1.258 . S
C82 O76 1.247 . S
C82 O77 1.258 . S
C83 O80 1.247 . S
C83 O81 1.258 . S
C84 O86 1.247 . S
C84 O88 1.258 . S
C85 O92 1.247 . S
C85 O93 1.258 . S
O86 C84 1.247 . S
O86 Zn87 2.028 . S
Zn87 O86 2.028 . S
Zn87 O91 2.035 . S
Zn87 O93 2.035 . S
Zn87 O94 2.028 . S
O88 C84 1.258 . S
O88 Zn89 2.035 . S
Zn89 O88 2.035 . S
Zn89 O90 2.028 . S
Zn89 O92 2.028 . S
Zn89 O95 2.035 . S
O90 Zn89 2.028 . S
O90 C96 1.247 . S
O91 Zn87 2.035 . S
O91 C96 1.258 . S
O92 C85 1.247 . S
O92 Zn89 2.028 . S
O93 C85 1.258 . S
O93 Zn87 2.035 . S
O94 Zn87 2.028 . S
O94 C97 1.247 . S
O95 Zn89 2.035 . S
O95 C97 1.258 . S
C96 O90 1.247 . S
C96 O91 1.258 . S
C97 O94 1.247 . S
C97 O95 1.258 . S
C98 O100 1.247 . S
C98 O102 1.258 . S
C99 O106 1.247 . S
C99 O107 1.258 . S
O100 C98 1.247 . S
O100 Zn101 2.028 . S
Zn101 O100 2.028 . S
Zn101 O105 2.035 . S
Zn101 O107 2.035 . S
Zn101 O108 2.028 . S
O102 C98 1.258 . S
O102 Zn103 2.035 . S
Zn103 O102 2.035 . S
Zn103 O104 2.028 . S
Zn103 O106 2.028 . S
Zn103 O109 2.035 . S
O104 Zn103 2.028 . S
O104 C110 1.247 . S
O105 Zn101 2.035 . S
O105 C110 1.258 . S
O106 C99 1.247 . S
O106 Zn103 2.028 . S
O107 C99 1.258 . S
O107 Zn101 2.035 . S
O108 Zn101 2.028 . S
O108 C111 1.247 . S
O109 Zn103 2.035 . S
O109 C111 1.258 . S
C110 O104 1.247 . S
C110 O105 1.258 . S
C111 O108 1.247 . S
C111 O109 1.258 . S
C112 O114 1.247 . S
C112 O116 1.258 . S
C113 O120 1.247 . S
C113 O121 1.258 . S
O114 C112 1.247 . S
O114 Zn115 2.028 . S
Zn115 O114 2.028 . S
Zn115 O119 2.035 . S
Zn115 O121 2.035 . S
Zn115 O122 2.028 . S
O116 C112 1.258 . S
O116 Zn117 2.035 . S
Zn117 O116 2.035 . S
Zn117 O118 2.028 . S
Zn117 O120 2.028 . S
Zn117 O123 2.035 . S
O118 Zn117 2.028 . S
O118 C124 1.247 . S
O119 Zn115 2.035 . S
O119 C124 1.258 . S
O120 C113 1.247 . S
O120 Zn117 2.028 . S
O121 C113 1.258 . S
O121 Zn115 2.035 . S
O122 Zn115 2.028 . S
O122 C125 1.247 . S
O123 Zn117 2.035 . S
O123 C125 1.258 . S
C124 O118 1.247 . S
C124 O119 1.258 . S
C125 O122 1.247 . S
C125 O123 1.258 . S
C126 O128 1.247 . S
C126 O130 1.258 . S
C127 O134 1.247 . S
C127 O135 1.258 . S
O128 C126 1.247 . S
O128 Zn129 2.028 . S
Zn129 O128 2.028 . S
Zn129 O133 2.035 . S
Zn129 O135 2.035 1_554 S
Zn129 O136 2.028 . S
O130 C126 1.258 . S
O130 Zn131 2.035 . S
Zn131 O130 2.035 . S
Zn131 O132 2.028 . S
Zn131 O134 2.028 1_554 S
Zn131 O137 2.035 . S
O132 Zn131 2.028 . S
O132 C138 1.247 . S
O133 Zn129 2.035 . S
O133 C138 1.258 . S
O134 C127 1.247 . S
O134 Zn131 2.028 1_556 S
O135 C127 1.258 . S
O135 Zn129 2.035 1_556 S
O136 Zn129 2.028 . S
O136 C139 1.247 . S
O137 Zn131 2.035 . S
O137 C139 1.258 . S
C138 O132 1.247 . S
C138 O133 1.258 . S
C139 O136 1.247 . S
C139 O137 1.258 . S
C140 O142 1.247 . S
C140 O144 1.258 . S
C141 O148 1.247 . S
C141 O149 1.258 . S
O142 C140 1.247 . S
O142 Zn143 2.028 . S
Zn143 O142 2.028 . S
Zn143 O147 2.035 . S
Zn143 O149 2.035 . S
Zn143 O150 2.028 . S
O144 C140 1.258 . S
O144 Zn145 2.035 . S
Zn145 O144 2.035 . S
Zn145 O146 2.028 . S
Zn145 O148 2.028 . S
Zn145 O151 2.035 . S
O146 Zn145 2.028 . S
O146 C152 1.247 . S
O147 Zn143 2.035 . S
O147 C152 1.258 . S
O148 C141 1.247 . S
O148 Zn145 2.028 . S
O149 C141 1.258 . S
O149 Zn143 2.035 . S
O150 Zn143 2.028 . S
O150 C153 1.247 . S
O151 Zn145 2.035 . S
O151 C153 1.258 . S
C152 O146 1.247 . S
C152 O147 1.258 . S
C153 O150 1.247 . S
C153 O151 1.258 . S
C154 O156 1.247 . S
C154 O158 1.258 . S
C155 O162 1.247 . S
C155 O163 1.258 . S
O156 C154 1.247 . S
O156 Zn157 2.028 . S
Zn157 O156 2.028 . S
Zn157 O161 2.035 . S
Zn157 O163 2.035 . S
Zn157 O164 2.028 . S
O158 C154 1.258 . S
O158 Zn159 2.035 . S
Zn159 O158 2.035 . S
Zn159 O160 2.028 . S
Zn159 O162 2.028 . S
Zn159 O165 2.035 . S
O160 Zn159 2.028 . S
O160 C166 1.247 . S
O161 Zn157 2.035 . S
O161 C166 1.258 . S
O162 C155 1.247 . S
O162 Zn159 2.028 . S
O163 C155 1.258 . S
O163 Zn157 2.035 . S
O164 Zn157 2.028 . S
O164 C167 1.247 . S
O165 Zn159 2.035 . S
O165 C167 1.258 . S
C166 O160 1.247 . S
C166 O161 1.258 . S
C167 O164 1.247 . S
C167 O165 1.258 . S
C168 O170 1.247 . S
C168 O172 1.258 . S
C169 O176 1.247 . S
C169 O177 1.258 . S
O170 C168 1.247 . S
O170 Zn171 2.028 . S
Zn171 O170 2.028 . S
Zn171 O175 2.035 . S
Zn171 O177 2.035 . S
Zn171 O178 2.028 . S
O172 C168 1.258 . S
O172 Zn173 2.035 . S
Zn173 O172 2.035 . S
Zn173 O174 2.028 . S
Zn173 O176 2.028 . S
Zn173 O179 2.035 . S
O174 Zn173 2.028 . S
O174 C180 1.247 . S
O175 Zn171 2.035 . S
O175 C180 1.258 . S
O176 C169 1.247 . S
O176 Zn173 2.028 . S
O177 C169 1.258 . S
O177 Zn171 2.035 . S
O178 Zn171 2.028 . S
O178 C181 1.247 . S
O179 Zn173 2.035 . S
O179 C181 1.258 . S
C180 O174 1.247 . S
C180 O175 1.258 . S
C181 O178 1.247 . S
C181 O179 1.258 . S
C182 O184 1.247 . S
C182 O186 1.258 . S
C183 O190 1.247 . S
C183 O191 1.258 . S
O184 C182 1.247 . S
O184 Zn185 2.028 . S
Zn185 O184 2.028 . S
Zn185 O189 2.035 . S
Zn185 O191 2.035 . S
Zn185 O192 2.028 . S
O186 C182 1.258 . S
O186 Zn187 2.035 . S
Zn187 O186 2.035 . S
Zn187 O188 2.028 . S
Zn187 O190 2.028 . S
Zn187 O193 2.035 . S
O188 Zn187 2.028 . S
O188 C194 1.247 . S
O189 Zn185 2.035 . S
O189 C194 1.258 . S
O190 C183 1.247 . S
O190 Zn187 2.028 . S
O191 C183 1.258 . S
O191 Zn185 2.035 . S
O192 Zn185 2.028 . S
O192 C195 1.247 . S
O193 Zn187 2.035 . S
O193 C195 1.258 . S
C194 O188 1.247 . S
C194 O189 1.258 . S
C195 O192 1.247 . S
C195 O193 1.258 . S
C196 O198 1.247 . S
C196 O200 1.258 . S
C197 O204 1.247 . S
C197 O205 1.258 . S
O198 C196 1.247 . S
O198 Zn199 2.028 . S
Zn199 O198 2.028 . S
Zn199 O203 2.035 1_554 S
Zn199 O205 2.035 . S
Zn199 O206 2.028 . S
O200 C196 1.258 . S
O200 Zn201 2.035 . S
Zn201 O200 2.035 . S
Zn201 O202 2.028 1_554 S
Zn201 O204 2.028 . S
Zn201 O207 2.035 . S
O202 Zn201 2.028 1_556 S
O202 C208 1.247 . S
O203 Zn199 2.035 1_556 S
O203 C208 1.258 . S
O204 C197 1.247 . S
O204 Zn201 2.028 . S
O205 C197 1.258 . S
O205 Zn199 2.035 . S
O206 Zn199 2.028 . S
O206 C209 1.247 . S
O207 Zn201 2.035 . S
O207 C209 1.258 . S
C208 O202 1.247 . S
C208 O203 1.258 . S
C209 O206 1.247 . S
C209 O207 1.258 . S
C210 O212 1.247 . S
C210 O214 1.258 . S
C211 O218 1.247 . S
C211 O219 1.258 . S
O212 C210 1.247 . S
O212 Zn213 2.028 . S
Zn213 O212 2.028 . S
Zn213 O217 2.035 . S
Zn213 O219 2.035 . S
Zn213 O220 2.028 . S
O214 C210 1.258 . S
O214 Zn215 2.035 . S
Zn215 O214 2.035 . S
Zn215 O216 2.028 . S
Zn215 O218 2.028 . S
Zn215 O221 2.035 . S
O216 Zn215 2.028 . S
O216 C222 1.247 . S
O217 Zn213 2.035 . S
O217 C222 1.258 . S
O218 C211 1.247 . S
O218 Zn215 2.028 . S
O219 C211 1.258 . S
O219 Zn213 2.035 . S
O220 Zn213 2.028 . S
O220 C223 1.247 . S
O221 Zn215 2.035 . S
O221 C223 1.258 . S
C222 O216 1.247 . S
C222 O217 1.258 . S
C223 O220 1.247 . S
C223 O221 1.258 . S
H224 C230 0.930 . S
H225 C234 0.930 . S
H226 C239 0.929 . S
H227 C237 0.929 . S
H228 C232 0.929 . S
H229 C238 0.929 . S
C230 H224 0.930 . S
C230 C231 1.367 . S
C230 C238 1.378 . S
C231 C230 1.367 . S
C231 C239 1.433 . S
C232 H228 0.929 . S
C232 C234 1.378 . S
C232 C236 1.350 . S
C233 C236 1.463 . S
C233 C238 1.350 . S
C233 N241 1.427 . S
C234 H225 0.930 . S
C234 C232 1.378 . S
C234 C235 1.367 . S
C235 C234 1.367 . S
C235 C237 1.433 . S
C236 C232 1.350 . S
C236 C233 1.463 . S
C236 N240 1.427 . S
C237 H227 0.929 . S
C237 C235 1.433 . S
C237 N240 1.384 . S
C238 H229 0.929 . S
C238 C230 1.378 . S
C238 C233 1.350 . S
C239 H226 0.929 . S
C239 C231 1.433 . S
C239 N241 1.384 . S
N240 C236 1.427 . S
N240 C237 1.384 . S
N241 C233 1.427 . S
N241 C239 1.384 . S
H242 C248 0.930 . S
H243 C252 0.930 . S
H244 C257 0.929 . S
H245 C255 0.929 . S
H246 C250 0.929 . S
H247 C256 0.929 . S
C248 H242 0.930 . S
C248 C249 1.367 . S
C248 C256 1.378 . S
C249 C248 1.367 . S
C249 C257 1.433 . S
C250 H246 0.929 . S
C250 C252 1.378 . S
C250 C254 1.350 . S
C251 C254 1.463 . S
C251 C256 1.350 . S
C251 N259 1.427 . S
C252 H243 0.930 . S
C252 C250 1.378 . S
C252 C253 1.367 . S
C253 C252 1.367 . S
C253 C255 1.433 . S
C254 C250 1.350 . S
C254 C251 1.463 . S
C254 N258 1.427 . S
C255 H245 0.929 . S
C255 C253 1.433 . S
C255 N258 1.384 . S
C256 H247 0.929 . S
C256 C248 1.378 . S
C256 C251 1.350 . S
C257 H244 0.929 . S
C257 C249 1.433 . S
C257 N259 1.384 . S
N258 C254 1.427 . S
N258 C255 1.384 . S
N259 C251 1.427 . S
N259 C257 1.384 . S
H260 C266 0.930 . S
H261 C270 0.930 . S
H262 C275 0.929 . S
H263 C273 0.929 . S
H264 C268 0.929 . S
H265 C274 0.929 . S
C266 H260 0.930 . S
C266 C267 1.367 . S
C266 C274 1.378 . S
C267 C266 1.367 . S
C267 C275 1.433 . S
C268 H264 0.929 . S
C268 C270 1.378 . S
C268 C272 1.350 . S
C269 C272 1.463 . S
C269 C274 1.350 . S
C269 N277 1.427 . S
C270 H261 0.930 . S
C270 C268 1.378 . S
C270 C271 1.367 . S
C271 C270 1.367 . S
C271 C273 1.433 . S
C272 C268 1.350 . S
C272 C269 1.463 . S
C272 N276 1.427 . S
C273 H263 0.929 . S
C273 C271 1.433 . S
C273 N276 1.384 . S
C274 H265 0.929 . S
C274 C266 1.378 . S
C274 C269 1.350 . S
C275 H262 0.929 . S
C275 C267 1.433 . S
C275 N277 1.384 . S
N276 C272 1.427 . S
N276 C273 1.384 . S
N277 C269 1.427 . S
N277 C275 1.384 . S
H278 C284 0.930 . S
H279 C288 0.930 . S
H280 C293 0.929 . S
H281 C291 0.929 . S
H282 C286 0.929 . S
H283 C292 0.929 . S
C284 H278 0.930 . S
C284 C285 1.367 . S
C284 C292 1.378 . S
C285 C284 1.367 . S
C285 C293 1.433 . S
C286 H282 0.929 . S
C286 C288 1.378 . S
C286 C290 1.350 . S
C287 C290 1.463 . S
C287 C292 1.350 . S
C287 N295 1.427 . S
C288 H279 0.930 . S
C288 C286 1.378 . S
C288 C289 1.367 . S
C289 C288 1.367 . S
C289 C291 1.433 . S
C290 C286 1.350 . S
C290 C287 1.463 . S
C290 N294 1.427 . S
C291 H281 0.929 . S
C291 C289 1.433 . S
C291 N294 1.384 . S
C292 H283 0.929 . S
C292 C284 1.378 . S
C292 C287 1.350 . S
C293 H280 0.929 . S
C293 C285 1.433 . S
C293 N295 1.384 . S
N294 C290 1.427 . S
N294 C291 1.384 . S
N295 C287 1.427 . S
N295 C293 1.384 . S
H296 C302 0.930 . S
H297 C306 0.930 . S
H298 C311 0.929 . S
H299 C309 0.929 . S
H300 C304 0.929 . S
H301 C310 0.929 . S
C302 H296 0.930 . S
C302 C303 1.367 . S
C302 C310 1.378 . S
C303 C302 1.367 . S
C303 C311 1.433 . S
C304 H300 0.929 . S
C304 C306 1.378 . S
C304 C308 1.350 . S
C305 C308 1.463 . S
C305 C310 1.350 . S
C305 N313 1.427 . S
C306 H297 0.930 . S
C306 C304 1.378 . S
C306 C307 1.367 . S
C307 C306 1.367 . S
C307 C309 1.433 . S
C308 C304 1.350 . S
C308 C305 1.463 . S
C308 N312 1.427 . S
C309 H299 0.929 . S
C309 C307 1.433 . S
C309 N312 1.384 . S
C310 H301 0.929 . S
C310 C302 1.378 . S
C310 C305 1.350 . S
C311 H298 0.929 . S
C311 C303 1.433 . S
C311 N313 1.384 . S
N312 C308 1.427 . S
N312 C309 1.384 . S
N313 C305 1.427 . S
N313 C311 1.384 . S
H314 C320 0.930 . S
H315 C324 0.930 . S
H316 C329 0.929 . S
H317 C327 0.929 . S
H318 C322 0.929 . S
H319 C328 0.929 . S
C320 H314 0.930 . S
C320 C321 1.367 . S
C320 C328 1.378 . S
C321 C320 1.367 . S
C321 C329 1.433 . S
C322 H318 0.929 . S
C322 C324 1.378 . S
C322 C326 1.350 . S
C323 C326 1.463 . S
C323 C328 1.350 . S
C323 N331 1.427 . S
C324 H315 0.930 . S
C324 C322 1.378 . S
C324 C325 1.367 . S
C325 C324 1.367 . S
C325 C327 1.433 . S
C326 C322 1.350 . S
C326 C323 1.463 . S
C326 N330 1.427 . S
C327 H317 0.929 . S
C327 C325 1.433 . S
C327 N330 1.384 . S
C328 H319 0.929 . S
C328 C320 1.378 . S
C328 C323 1.350 . S
C329 H316 0.929 . S
C329 C321 1.433 . S
C329 N331 1.384 . S
N330 C326 1.427 . S
N330 C327 1.384 . S
N331 C323 1.427 . S
N331 C329 1.384 . S
H332 C338 0.930 . S
H333 C342 0.930 . S
H334 C347 0.929 . S
H335 C345 0.929 . S
H336 C340 0.929 . S
H337 C346 0.929 . S
C338 H332 0.930 . S
C338 C339 1.367 . S
C338 C346 1.378 . S
C339 C338 1.367 . S
C339 C347 1.433 . S
C340 H336 0.929 . S
C340 C342 1.378 . S
C340 C344 1.350 . S
C341 C344 1.463 . S
C341 C346 1.350 . S
C341 N349 1.427 . S
C342 H333 0.930 . S
C342 C340 1.378 . S
C342 C343 1.367 . S
C343 C342 1.367 . S
C343 C345 1.433 . S
C344 C340 1.350 . S
C344 C341 1.463 . S
C344 N348 1.427 . S
C345 H335 0.929 . S
C345 C343 1.433 . S
C345 N348 1.384 . S
C346 H337 0.929 . S
C346 C338 1.378 . S
C346 C341 1.350 . S
C347 H334 0.929 . S
C347 C339 1.433 . S
C347 N349 1.384 . S
N348 C344 1.427 . S
N348 C345 1.384 . S
N349 C341 1.427 . S
N349 C347 1.384 . S
H350 C356 0.930 . S
H351 C360 0.930 . S
H352 C365 0.929 . S
H353 C363 0.929 . S
H354 C358 0.929 . S
H355 C364 0.929 . S
C356 H350 0.930 . S
C356 C357 1.367 . S
C356 C364 1.378 . S
C357 C356 1.367 . S
C357 C365 1.433 . S
C358 H354 0.929 . S
C358 C360 1.378 . S
C358 C362 1.350 . S
C359 C362 1.463 . S
C359 C364 1.350 . S
C359 N367 1.427 . S
C360 H351 0.930 . S
C360 C358 1.378 . S
C360 C361 1.367 . S
C361 C360 1.367 . S
C361 C363 1.433 . S
C362 C358 1.350 . S
C362 C359 1.463 . S
C362 N366 1.427 . S
C363 H353 0.929 . S
C363 C361 1.433 . S
C363 N366 1.384 . S
C364 H355 0.929 . S
C364 C356 1.378 . S
C364 C359 1.350 . S
C365 H352 0.929 . S
C365 C357 1.433 . S
C365 N367 1.384 . S
N366 C362 1.427 . S
N366 C363 1.384 . S
N367 C359 1.427 . S
N367 C365 1.384 . S
H368 C374 0.930 . S
H369 C378 0.930 . S
H370 C383 0.929 . S
H371 C381 0.929 . S
H372 C376 0.929 1_455 S
H373 C382 0.929 1_655 S
C374 H368 0.930 . S
C374 C375 1.367 . S
C374 C382 1.378 . S
C375 C374 1.367 . S
C375 C383 1.433 . S
C376 H372 0.929 1_655 S
C376 C378 1.378 . S
C376 C380 1.350 . S
C377 C380 1.463 1_445 S
C377 C382 1.350 . S
C377 N385 1.427 . S
C378 H369 0.930 . S
C378 C376 1.378 . S
C378 C379 1.367 . S
C379 C378 1.367 . S
C379 C381 1.433 . S
C380 C376 1.350 . S
C380 C377 1.463 1_665 S
C380 N384 1.427 . S
C381 H371 0.929 . S
C381 C379 1.433 . S
C381 N384 1.384 . S
C382 H373 0.929 1_455 S
C382 C374 1.378 . S
C382 C377 1.350 . S
C383 H370 0.929 . S
C383 C375 1.433 . S
C383 N385 1.384 . S
N384 C380 1.427 . S
N384 C381 1.384 . S
N385 C377 1.427 . S
N385 C383 1.384 . S
H386 C392 0.930 . S
H387 C396 0.930 . S
H388 C401 0.929 . S
H389 C399 0.929 . S
H390 C394 0.929 . S
H391 C400 0.929 . S
C392 H386 0.930 . S
C392 C393 1.367 . S
C392 C400 1.378 . S
C393 C392 1.367 . S
C393 C401 1.433 . S
C394 H390 0.929 . S
C394 C396 1.378 . S
C394 C398 1.350 . S
C395 C398 1.463 1_655 S
C395 C400 1.350 . S
C395 N403 1.427 . S
C396 H387 0.930 . S
C396 C394 1.378 . S
C396 C397 1.367 . S
C397 C396 1.367 . S
C397 C399 1.433 . S
C398 C394 1.350 . S
C398 C395 1.463 1_455 S
C398 N402 1.427 . S
C399 H389 0.929 . S
C399 C397 1.433 . S
C399 N402 1.384 . S
C400 H391 0.929 . S
C400 C392 1.378 . S
C400 C395 1.350 . S
C401 H388 0.929 . S
C401 C393 1.433 . S
C401 N403 1.384 . S
N402 C398 1.427 . S
N402 C399 1.384 . S
N403 C395 1.427 . S
N403 C401 1.384 . S
H404 C410 0.930 . S
H405 C414 0.930 . S
H406 C419 0.929 . S
H407 C417 0.929 . S
H408 C412 0.929 . S
H409 C418 0.929 . S
C410 H404 0.930 . S
C410 C411 1.367 . S
C410 C418 1.378 . S
C411 C410 1.367 . S
C411 C419 1.433 . S
C412 H408 0.929 . S
C412 C414 1.378 . S
C412 C416 1.350 . S
C413 C416 1.463 . S
C413 C418 1.350 . S
C413 N421 1.427 . S
C414 H405 0.930 . S
C414 C412 1.378 . S
C414 C415 1.367 . S
C415 C414 1.367 . S
C415 C417 1.433 . S
C416 C412 1.350 . S
C416 C413 1.463 . S
C416 N420 1.427 . S
C417 H407 0.929 . S
C417 C415 1.433 . S
C417 N420 1.384 . S
C418 H409 0.929 . S
C418 C410 1.378 . S
C418 C413 1.350 . S
C419 H406 0.929 . S
C419 C411 1.433 . S
C419 N421 1.384 . S
N420 C416 1.427 . S
N420 C417 1.384 . S
N421 C413 1.427 . S
N421 C419 1.384 . S
H422 C428 0.930 . S
H423 C432 0.930 . S
H424 C437 0.929 . S
H425 C435 0.929 . S
H426 C430 0.929 . S
H427 C436 0.929 . S
C428 H422 0.930 . S
C428 C429 1.367 . S
C428 C436 1.378 . S
C429 C428 1.367 . S
C429 C437 1.433 1_554 S
C430 H426 0.929 . S
C430 C432 1.378 . S
C430 C434 1.350 1_556 S
C431 C434 1.463 1_565 S
C431 C436 1.350 . S
C431 N439 1.427 1_554 S
C432 H423 0.930 . S
C432 C430 1.378 . S
C432 C433 1.367 1_556 S
C433 C432 1.367 1_554 S
C433 C435 1.433 . S
C434 C430 1.350 1_554 S
C434 C431 1.463 1_545 S
C434 N438 1.427 . S
C435 H425 0.929 . S
C435 C433 1.433 . S
C435 N438 1.384 . S
C436 H427 0.929 . S
C436 C428 1.378 . S
C436 C431 1.350 . S
C437 H424 0.929 . S
C437 C429 1.433 1_556 S
C437 N439 1.384 . S
N438 C434 1.427 . S
N438 C435 1.384 . S
N439 C431 1.427 1_556 S
N439 C437 1.384 . S
H440 C446 0.930 . S
H441 C450 0.930 . S
H442 C455 0.929 . S
H443 C453 0.929 . S
H444 C448 0.929 1_455 S
H445 C454 0.929 1_655 S
C446 H440 0.930 . S
C446 C447 1.367 . S
C446 C454 1.378 . S
C447 C446 1.367 . S
C447 C455 1.433 . S
C448 H444 0.929 1_655 S
C448 C450 1.378 . S
C448 C452 1.350 . S
C449 C452 1.463 1_455 S
C449 C454 1.350 . S
C449 N457 1.427 . S
C450 H441 0.930 . S
C450 C448 1.378 . S
C450 C451 1.367 . S
C451 C450 1.367 . S
C451 C453 1.433 . S
C452 C448 1.350 . S
C452 C449 1.463 1_655 S
C452 N456 1.427 . S
C453 H443 0.929 . S
C453 C451 1.433 . S
C453 N456 1.384 . S
C454 H445 0.929 1_455 S
C454 C446 1.378 . S
C454 C449 1.350 . S
C455 H442 0.929 . S
C455 C447 1.433 . S
C455 N457 1.384 . S
N456 C452 1.427 . S
N456 C453 1.384 . S
N457 C449 1.427 . S
N457 C455 1.384 . S
H458 C464 0.930 . S
H459 C468 0.930 . S
H460 C473 0.929 . S
H461 C471 0.929 . S
H462 C466 0.929 . S
H463 C472 0.929 . S
C464 H458 0.930 . S
C464 C465 1.367 . S
C464 C472 1.378 . S
C465 C464 1.367 . S
C465 C473 1.433 . S
C466 H462 0.929 . S
C466 C468 1.378 . S
C466 C470 1.350 . S
C467 C470 1.463 . S
C467 C472 1.350 . S
C467 N475 1.427 . S
C468 H459 0.930 . S
C468 C466 1.378 . S
C468 C469 1.367 . S
C469 C468 1.367 . S
C469 C471 1.433 . S
C470 C466 1.350 . S
C470 C467 1.463 . S
C470 N474 1.427 . S
C471 H461 0.929 . S
C471 C469 1.433 . S
C471 N474 1.384 . S
C472 H463 0.929 . S
C472 C464 1.378 . S
C472 C467 1.350 . S
C473 H460 0.929 . S
C473 C465 1.433 . S
C473 N475 1.384 . S
N474 C470 1.427 . S
N474 C471 1.384 . S
N475 C467 1.427 . S
N475 C473 1.384 . S
H476 C482 0.930 . S
H477 C486 0.930 . S
H478 C491 0.929 . S
H479 C489 0.929 . S
H480 C484 0.929 . S
H481 C490 0.929 . S
C482 H476 0.930 . S
C482 C483 1.367 . S
C482 C490 1.378 . S
C483 C482 1.367 . S
C483 C491 1.433 . S
C484 H480 0.929 . S
C484 C486 1.378 . S
C484 C488 1.350 . S
C485 C488 1.463 1_545 S
C485 C490 1.350 . S
C485 N493 1.427 . S
C486 H477 0.930 . S
C486 C484 1.378 . S
C486 C487 1.367 . S
C487 C486 1.367 . S
C487 C489 1.433 . S
C488 C484 1.350 . S
C488 C485 1.463 1_565 S
C488 N492 1.427 . S
C489 H479 0.929 . S
C489 C487 1.433 . S
C489 N492 1.384 . S
C490 H481 0.929 . S
C490 C482 1.378 . S
C490 C485 1.350 . S
C491 H478 0.929 . S
C491 C483 1.433 . S
C491 N493 1.384 . S
N492 C488 1.427 . S
N492 C489 1.384 . S
N493 C485 1.427 . S
N493 C491 1.384 . S
H494 C500 0.930 . S
H495 C504 0.930 . S
H496 C509 0.929 . S
H497 C507 0.929 . S
H498 C502 0.929 . S
H499 C508 0.929 . S
C500 H494 0.930 . S
C500 C501 1.367 . S
C500 C508 1.378 . S
C501 C500 1.367 . S
C501 C509 1.433 . S
C502 H498 0.929 . S
C502 C504 1.378 . S
C502 C506 1.350 . S
C503 C506 1.463 1_445 S
C503 C508 1.350 . S
C503 N511 1.427 . S
C504 H495 0.930 . S
C504 C502 1.378 . S
C504 C505 1.367 . S
C505 C504 1.367 . S
C505 C507 1.433 . S
C506 C502 1.350 . S
C506 C503 1.463 1_665 S
C506 N510 1.427 . S
C507 H497 0.929 . S
C507 C505 1.433 . S
C507 N510 1.384 . S
C508 H499 0.929 . S
C508 C500 1.378 . S
C508 C503 1.350 . S
C509 H496 0.929 . S
C509 C501 1.433 . S
C509 N511 1.384 . S
N510 C506 1.427 . S
N510 C507 1.384 . S
N511 C503 1.427 . S
N511 C509 1.384 . S
H512 C518 0.930 . S
H513 C522 0.930 . S
H514 C527 0.929 . S
H515 C525 0.929 . S
H516 C520 0.929 . S
H517 C526 0.929 . S
C518 H512 0.930 . S
C518 C519 1.367 . S
C518 C526 1.378 . S
C519 C518 1.367 . S
C519 C527 1.433 . S
C520 H516 0.929 . S
C520 C522 1.378 . S
C520 C524 1.350 . S
C521 C524 1.463 . S
C521 C526 1.350 . S
C521 N529 1.427 . S
C522 H513 0.930 . S
C522 C520 1.378 . S
C522 C523 1.367 . S
C523 C522 1.367 . S
C523 C525 1.433 . S
C524 C520 1.350 . S
C524 C521 1.463 . S
C524 N528 1.427 . S
C525 H515 0.929 . S
C525 C523 1.433 . S
C525 N528 1.384 . S
C526 H517 0.929 . S
C526 C518 1.378 . S
C526 C521 1.350 . S
C527 H514 0.929 . S
C527 C519 1.433 . S
C527 N529 1.384 . S
N528 C524 1.427 . S
N528 C525 1.384 . S
N529 C521 1.427 . S
N529 C527 1.384 . S
H530 C536 0.930 . S
H531 C540 0.930 . S
H532 C545 0.929 . S
H533 C543 0.929 . S
H534 C538 0.929 . S
H535 C544 0.929 . S
C536 H530 0.930 . S
C536 C537 1.367 . S
C536 C544 1.378 . S
C537 C536 1.367 . S
C537 C545 1.433 . S
C538 H534 0.929 . S
C538 C540 1.378 . S
C538 C542 1.350 . S
C539 C542 1.463 . S
C539 C544 1.350 . S
C539 N547 1.427 . S
C540 H531 0.930 . S
C540 C538 1.378 . S
C540 C541 1.367 . S
C541 C540 1.367 . S
C541 C543 1.433 . S
C542 C538 1.350 . S
C542 C539 1.463 . S
C542 N546 1.427 . S
C543 H533 0.929 . S
C543 C541 1.433 . S
C543 N546 1.384 . S
C544 H535 0.929 . S
C544 C536 1.378 . S
C544 C539 1.350 . S
C545 H532 0.929 . S
C545 C537 1.433 . S
C545 N547 1.384 . S
N546 C542 1.427 . S
N546 C543 1.384 . S
N547 C539 1.427 . S
N547 C545 1.384 . S
H548 C554 0.930 . S
H549 C558 0.930 . S
H550 C563 0.929 . S
H551 C561 0.929 . S
H552 C556 0.929 1_554 S
H553 C562 0.929 . S
C554 H548 0.930 . S
C554 C555 1.367 . S
C554 C562 1.378 . S
C555 C554 1.367 . S
C555 C563 1.433 . S
C556 H552 0.929 1_556 S
C556 C558 1.378 . S
C556 C560 1.350 1_556 S
C557 C560 1.463 . S
C557 C562 1.350 . S
C557 N565 1.427 . S
C558 H549 0.930 . S
C558 C556 1.378 . S
C558 C559 1.367 . S
C559 C558 1.367 . S
C559 C561 1.433 . S
C560 C556 1.350 1_554 S
C560 C557 1.463 . S
C560 N564 1.427 1_554 S
C561 H551 0.929 . S
C561 C559 1.433 . S
C561 N564 1.384 . S
C562 H553 0.929 . S
C562 C554 1.378 . S
C562 C557 1.350 . S
C563 H550 0.929 . S
C563 C555 1.433 . S
C563 N565 1.384 . S
N564 C560 1.427 1_556 S
N564 C561 1.384 . S
N565 C557 1.427 . S
N565 C563 1.384 . S
H566 C572 0.930 . S
H567 C576 0.930 . S
H568 C581 0.929 . S
H569 C579 0.929 . S
H570 C574 0.929 . S
H571 C580 0.929 . S
C572 H566 0.930 . S
C572 C573 1.367 . S
C572 C580 1.378 . S
C573 C572 1.367 . S
C573 C581 1.433 . S
C574 H570 0.929 . S
C574 C576 1.378 . S
C574 C578 1.350 . S
C575 C578 1.463 . S
C575 C580 1.350 . S
C575 N583 1.427 . S
C576 H567 0.930 . S
C576 C574 1.378 . S
C576 C577 1.367 . S
C577 C576 1.367 . S
C577 C579 1.433 . S
C578 C574 1.350 . S
C578 C575 1.463 . S
C578 N582 1.427 . S
C579 H569 0.929 . S
C579 C577 1.433 . S
C579 N582 1.384 . S
C580 H571 0.929 . S
C580 C572 1.378 . S
C580 C575 1.350 . S
C581 H568 0.929 . S
C581 C573 1.433 . S
C581 N583 1.384 . S
N582 C578 1.427 . S
N582 C579 1.384 . S
N583 C575 1.427 . S
N583 C581 1.384 . S
H584 C590 0.930 . S
H585 C594 0.930 . S
H586 C599 0.929 . S
H587 C597 0.929 . S
H588 C592 0.929 . S
H589 C598 0.929 . S
C590 H584 0.930 . S
C590 C591 1.367 . S
C590 C598 1.378 . S
C591 C590 1.367 . S
C591 C599 1.433 . S
C592 H588 0.929 . S
C592 C594 1.378 . S
C592 C596 1.350 . S
C593 C596 1.463 . S
C593 C598 1.350 . S
C593 N601 1.427 . S
C594 H585 0.930 . S
C594 C592 1.378 . S
C594 C595 1.367 . S
C595 C594 1.367 . S
C595 C597 1.433 . S
C596 C592 1.350 . S
C596 C593 1.463 . S
C596 N600 1.427 . S
C597 H587 0.929 . S
C597 C595 1.433 . S
C597 N600 1.384 . S
C598 H589 0.929 . S
C598 C590 1.378 . S
C598 C593 1.350 . S
C599 H586 0.929 . S
C599 C591 1.433 . S
C599 N601 1.384 . S
N600 C596 1.427 . S
N600 C597 1.384 . S
N601 C593 1.427 . S
N601 C599 1.384 . S
H602 C608 0.930 . S
H603 C612 0.930 . S
H604 C617 0.929 . S
H605 C615 0.929 . S
H606 C610 0.929 . S
H607 C616 0.929 . S
C608 H602 0.930 . S
C608 C609 1.367 . S
C608 C616 1.378 . S
C609 C608 1.367 . S
C609 C617 1.433 . S
C610 H606 0.929 . S
C610 C612 1.378 . S
C610 C614 1.350 1_556 S
C611 C614 1.463 . S
C611 C616 1.350 . S
C611 N619 1.427 . S
C612 H603 0.930 . S
C612 C610 1.378 . S
C612 C613 1.367 . S
C613 C612 1.367 . S
C613 C615 1.433 . S
C614 C610 1.350 1_554 S
C614 C611 1.463 . S
C614 N618 1.427 1_554 S
C615 H605 0.929 . S
C615 C613 1.433 . S
C615 N618 1.384 . S
C616 H607 0.929 . S
C616 C608 1.378 . S
C616 C611 1.350 . S
C617 H604 0.929 . S
C617 C609 1.433 . S
C617 N619 1.384 . S
N618 C614 1.427 1_556 S
N618 C615 1.384 . S
N619 C611 1.427 . S
N619 C617 1.384 . S
H620 C626 0.930 . S
H621 C630 0.930 . S
H622 C635 0.929 . S
H623 C633 0.929 . S
H624 C628 0.929 . S
H625 C634 0.929 . S
C626 H620 0.930 . S
C626 C627 1.367 . S
C626 C634 1.378 . S
C627 C626 1.367 . S
C627 C635 1.433 . S
C628 H624 0.929 . S
C628 C630 1.378 . S
C628 C632 1.350 . S
C629 C632 1.463 . S
C629 C634 1.350 . S
C629 N637 1.427 . S
C630 H621 0.930 . S
C630 C628 1.378 . S
C630 C631 1.367 . S
C631 C630 1.367 . S
C631 C633 1.433 . S
C632 C628 1.350 . S
C632 C629 1.463 . S
C632 N636 1.427 . S
C633 H623 0.929 . S
C633 C631 1.433 . S
C633 N636 1.384 . S
C634 H625 0.929 . S
C634 C626 1.378 . S
C634 C629 1.350 . S
C635 H622 0.929 . S
C635 C627 1.433 . S
C635 N637 1.384 . S
N636 C632 1.427 . S
N636 C633 1.384 . S
N637 C629 1.427 . S
N637 C635 1.384 . S
H638 C644 0.930 . S
H639 C648 0.930 . S
H640 C653 0.929 . S
H641 C651 0.929 . S
H642 C646 0.929 . S
H643 C652 0.929 . S
C644 H638 0.930 . S
C644 C645 1.367 . S
C644 C652 1.378 . S
C645 C644 1.367 . S
C645 C653 1.433 . S
C646 H642 0.929 . S
C646 C648 1.378 . S
C646 C650 1.350 . S
C647 C650 1.463 . S
C647 C652 1.350 . S
C647 N655 1.427 . S
C648 H639 0.930 . S
C648 C646 1.378 . S
C648 C649 1.367 . S
C649 C648 1.367 . S
C649 C651 1.433 . S
C650 C646 1.350 . S
C650 C647 1.463 . S
C650 N654 1.427 . S
C651 H641 0.929 . S
C651 C649 1.433 . S
C651 N654 1.384 . S
C652 H643 0.929 . S
C652 C644 1.378 . S
C652 C647 1.350 . S
C653 H640 0.929 . S
C653 C645 1.433 . S
C653 N655 1.384 . S
N654 C650 1.427 . S
N654 C651 1.384 . S
N655 C647 1.427 . S
N655 C653 1.384 . S
H656 C662 0.930 . S
H657 C666 0.930 . S
H658 C671 0.929 . S
H659 C669 0.929 . S
H660 C664 0.929 . S
H661 C670 0.929 1_554 S
C662 H656 0.930 . S
C662 C663 1.367 . S
C662 C670 1.378 . S
C663 C662 1.367 . S
C663 C671 1.433 . S
C664 H660 0.929 . S
C664 C666 1.378 . S
C664 C668 1.350 . S
C665 C668 1.463 . S
C665 C670 1.350 1_554 S
C665 N673 1.427 1_554 S
C666 H657 0.930 . S
C666 C664 1.378 . S
C666 C667 1.367 . S
C667 C666 1.367 . S
C667 C669 1.433 . S
C668 C664 1.350 . S
C668 C665 1.463 . S
C668 N672 1.427 . S
C669 H659 0.929 . S
C669 C667 1.433 . S
C669 N672 1.384 . S
C670 H661 0.929 1_556 S
C670 C662 1.378 . S
C670 C665 1.350 1_556 S
C671 H658 0.929 . S
C671 C663 1.433 . S
C671 N673 1.384 . S
N672 C668 1.427 . S
N672 C669 1.384 . S
N673 C665 1.427 1_556 S
N673 C671 1.384 . S
H674 C680 0.930 . S
H675 C684 0.930 . S
H676 C689 0.929 . S
H677 C687 0.929 . S
H678 C682 0.929 . S
H679 C688 0.929 . S
C680 H674 0.930 . S
C680 C681 1.367 . S
C680 C688 1.378 . S
C681 C680 1.367 . S
C681 C689 1.433 . S
C682 H678 0.929 . S
C682 C684 1.378 . S
C682 C686 1.350 . S
C683 C686 1.463 . S
C683 C688 1.350 . S
C683 N691 1.427 . S
C684 H675 0.930 . S
C684 C682 1.378 . S
C684 C685 1.367 . S
C685 C684 1.367 . S
C685 C687 1.433 . S
C686 C682 1.350 . S
C686 C683 1.463 . S
C686 N690 1.427 . S
C687 H677 0.929 . S
C687 C685 1.433 . S
C687 N690 1.384 . S
C688 H679 0.929 . S
C688 C680 1.378 . S
C688 C683 1.350 . S
C689 H676 0.929 . S
C689 C681 1.433 . S
C689 N691 1.384 . S
N690 C686 1.427 . S
N690 C687 1.384 . S
N691 C683 1.427 . S
N691 C689 1.384 . S
H692 C698 0.930 . S
H693 C702 0.930 . S
H694 C707 0.929 . S
H695 C705 0.929 . S
H696 C700 0.929 . S
H697 C706 0.929 . S
C698 H692 0.930 . S
C698 C699 1.367 . S
C698 C706 1.378 . S
C699 C698 1.367 . S
C699 C707 1.433 . S
C700 H696 0.929 . S
C700 C702 1.378 . S
C700 C704 1.350 . S
C701 C704 1.463 . S
C701 C706 1.350 . S
C701 N709 1.427 . S
C702 H693 0.930 . S
C702 C700 1.378 . S
C702 C703 1.367 . S
C703 C702 1.367 . S
C703 C705 1.433 . S
C704 C700 1.350 . S
C704 C701 1.463 . S
C704 N708 1.427 . S
C705 H695 0.929 . S
C705 C703 1.433 . S
C705 N708 1.384 . S
C706 H697 0.929 . S
C706 C698 1.378 . S
C706 C701 1.350 . S
C707 H694 0.929 . S
C707 C699 1.433 . S
C707 N709 1.384 . S
N708 C704 1.427 . S
N708 C705 1.384 . S
N709 C701 1.427 . S
N709 C707 1.384 . S
H710 C716 0.930 . S
H711 C720 0.930 . S
H712 C725 0.929 . S
H713 C723 0.929 . S
H714 C718 0.929 . S
H715 C724 0.929 . S
C716 H710 0.930 . S
C716 C717 1.367 . S
C716 C724 1.378 . S
C717 C716 1.367 . S
C717 C725 1.433 . S
C718 H714 0.929 . S
C718 C720 1.378 . S
C718 C722 1.350 . S
C719 C722 1.463 . S
C719 C724 1.350 . S
C719 N727 1.427 . S
C720 H711 0.930 . S
C720 C718 1.378 . S
C720 C721 1.367 . S
C721 C720 1.367 . S
C721 C723 1.433 . S
C722 C718 1.350 . S
C722 C719 1.463 . S
C722 N726 1.427 . S
C723 H713 0.929 . S
C723 C721 1.433 . S
C723 N726 1.384 . S
C724 H715 0.929 . S
C724 C716 1.378 . S
C724 C719 1.350 . S
C725 H712 0.929 . S
C725 C717 1.433 . S
C725 N727 1.384 . S
N726 C722 1.427 . S
N726 C723 1.384 . S
N727 C719 1.427 . S
N727 C725 1.384 . S
H728 C734 0.930 . S
H729 C738 0.930 . S
H730 C743 0.929 . S
H731 C741 0.929 . S
H732 C736 0.929 . S
H733 C742 0.929 . S
C734 H728 0.930 . S
C734 C735 1.367 . S
C734 C742 1.378 . S
C735 C734 1.367 . S
C735 C743 1.433 . S
C736 H732 0.929 . S
C736 C738 1.378 . S
C736 C740 1.350 . S
C737 C740 1.463 . S
C737 C742 1.350 . S
C737 N745 1.427 . S
C738 H729 0.930 . S
C738 C736 1.378 . S
C738 C739 1.367 . S
C739 C738 1.367 . S
C739 C741 1.433 . S
C740 C736 1.350 . S
C740 C737 1.463 . S
C740 N744 1.427 . S
C741 H731 0.929 . S
C741 C739 1.433 . S
C741 N744 1.384 . S
C742 H733 0.929 . S
C742 C734 1.378 . S
C742 C737 1.350 . S
C743 H730 0.929 . S
C743 C735 1.433 . S
C743 N745 1.384 . S
N744 C740 1.427 . S
N744 C741 1.384 . S
N745 C737 1.427 . S
N745 C743 1.384 . S
H746 C752 0.930 . S
H747 C756 0.930 . S
H748 C761 0.929 . S
H749 C759 0.929 . S
H750 C754 0.929 . S
H751 C760 0.929 . S
C752 H746 0.930 . S
C752 C753 1.367 . S
C752 C760 1.378 . S
C753 C752 1.367 . S
C753 C761 1.433 . S
C754 H750 0.929 . S
C754 C756 1.378 . S
C754 C758 1.350 . S
C755 C758 1.463 . S
C755 C760 1.350 . S
C755 N763 1.427 . S
C756 H747 0.930 . S
C756 C754 1.378 . S
C756 C757 1.367 . S
C757 C756 1.367 . S
C757 C759 1.433 . S
C758 C754 1.350 . S
C758 C755 1.463 . S
C758 N762 1.427 . S
C759 H749 0.929 . S
C759 C757 1.433 . S
C759 N762 1.384 . S
C760 H751 0.929 . S
C760 C752 1.378 . S
C760 C755 1.350 . S
C761 H748 0.929 . S
C761 C753 1.433 . S
C761 N763 1.384 . S
N762 C758 1.427 . S
N762 C759 1.384 . S
N763 C755 1.427 . S
N763 C761 1.384 . S
H764 C770 0.930 . S
H765 C774 0.930 . S
H766 C779 0.929 . S
H767 C777 0.929 . S
H768 C772 0.929 . S
H769 C778 0.929 . S
C770 H764 0.930 . S
C770 C771 1.367 . S
C770 C778 1.378 . S
C771 C770 1.367 . S
C771 C779 1.433 . S
C772 H768 0.929 . S
C772 C774 1.378 . S
C772 C776 1.350 . S
C773 C776 1.463 . S
C773 C778 1.350 . S
C773 N781 1.427 . S
C774 H765 0.930 . S
C774 C772 1.378 . S
C774 C775 1.367 . S
C775 C774 1.367 . S
C775 C777 1.433 . S
C776 C772 1.350 . S
C776 C773 1.463 . S
C776 N780 1.427 . S
C777 H767 0.929 . S
C777 C775 1.433 . S
C777 N780 1.384 . S
C778 H769 0.929 . S
C778 C770 1.378 . S
C778 C773 1.350 . S
C779 H766 0.929 . S
C779 C771 1.433 . S
C779 N781 1.384 . S
N780 C776 1.427 . S
N780 C777 1.384 . S
N781 C773 1.427 . S
N781 C779 1.384 . S
H782 C788 0.930 . S
H783 C792 0.930 . S
H784 C797 0.929 . S
H785 C795 0.929 . S
H786 C790 0.929 1_554 S
H787 C796 0.929 . S
C788 H782 0.930 . S
C788 C789 1.367 . S
C788 C796 1.378 . S
C789 C788 1.367 . S
C789 C797 1.433 . S
C790 H786 0.929 1_556 S
C790 C792 1.378 . S
C790 C794 1.350 1_556 S
C791 C794 1.463 . S
C791 C796 1.350 . S
C791 N799 1.427 . S
C792 H783 0.930 . S
C792 C790 1.378 . S
C792 C793 1.367 . S
C793 C792 1.367 . S
C793 C795 1.433 . S
C794 C790 1.350 1_554 S
C794 C791 1.463 . S
C794 N798 1.427 1_554 S
C795 H785 0.929 . S
C795 C793 1.433 . S
C795 N798 1.384 . S
C796 H787 0.929 . S
C796 C788 1.378 . S
C796 C791 1.350 . S
C797 H784 0.929 . S
C797 C789 1.433 . S
C797 N799 1.384 . S
N798 C794 1.427 1_556 S
N798 C795 1.384 . S
N799 C791 1.427 . S
N799 C797 1.384 . S
C231 C97 2.092 . S
C235 C13 2.099 . S
C249 C111 2.090 . S
C253 C27 2.096 . S
C267 C41 2.092 . S
C271 C56 2.100 1_556 S
C285 C55 2.094 . S
C289 C83 2.091 . S
C303 C112 2.093 . S
C307 C197 2.098 1_556 S
C321 C223 2.099 . S
C325 C139 2.094 . S
C339 C141 2.091 . S
C343 C168 2.100 . S
C357 C155 2.099 . S
C361 C182 2.096 . S
C375 C12 2.018 . S
C379 C140 2.021 . S
C393 C26 2.018 . S
C397 C154 2.021 . S
C411 C40 2.016 . S
C415 C113 2.017 . S
C429 C54 2.014 . S
C433 C138 2.019 . S
C447 C57 2.015 . S
C451 C196 2.021 . S
C465 C222 2.012 . S
C469 C82 2.010 . S
C483 C96 2.021 . S
C487 C169 2.014 . S
C501 C183 2.009 . S
C505 C110 2.018 . S
C519 C195 0.690 . S
C523 C0 0.694 . S
C537 C14 0.692 . S
C541 C208 0.696 . S
C555 C210 0.697 . S
C559 C28 0.693 . S
C573 C181 0.700 . S
C577 C42 0.700 . S
C591 C166 0.690 . S
C595 C69 0.694 . S
C609 C70 0.688 . S
C613 C125 0.691 . S
C627 C84 0.688 . S
C631 C126 0.689 . S
C645 C98 0.689 . S
C649 C152 0.692 . S
C663 C194 1.735 . S
C667 C1 1.735 . S
C681 C15 1.736 . S
C685 C209 1.736 . S
C699 C29 1.731 . S
C703 C211 1.731 . S
C717 C180 1.735 . S
C721 C43 1.732 . S
C735 C167 1.731 . S
C739 C68 1.732 . S
C753 C124 1.732 . S
C757 C71 1.731 . S
C771 C85 1.735 . S
C775 C127 1.733 . S
C789 C153 1.732 . S
C793 C99 1.734 . S
