# Generated by pormake.
# Topology zfg, (5)-cn, num edge types: 1
# Building blocks:
#     Node 0, Type 0, BuildingBlock: XOMCOT_clean_sbu_0, # of connection points: 5
#     Node 1, Type 0, BuildingBlock: XOMCOT_clean_sbu_0, # of connection points: 5
#     Node 2, Type 0, BuildingBlock: XOMCOT_clean_sbu_0, # of connection points: 5
#     Node 3, Type 0, BuildingBlock: XOMCOT_clean_sbu_0, # of connection points: 5
#     Node 4, Type 0, BuildingBlock: XOMCOT_clean_sbu_0, # of connection points: 5
#     Node 5, Type 0, BuildingBlock: XOMCOT_clean_sbu_0, # of connection points: 5
#     Node 6, Type 0, BuildingBlock: XOMCOT_clean_sbu_0, # of connection points: 5
#     Node 7, Type 0, BuildingBlock: XOMCOT_clean_sbu_0, # of connection points: 5
#     Node 8, Type 0, BuildingBlock: XOMCOT_clean_sbu_0, # of connection points: 5
#     Node 9, Type 0, BuildingBlock: XOMCOT_clean_sbu_0, # of connection points: 5
#     Node 10, Type 0, BuildingBlock: XOMCOT_clean_sbu_0, # of connection points: 5
#     Node 11, Type 0, BuildingBlock: XOMCOT_clean_sbu_0, # of connection points: 5
#     Node 12, Type 0, BuildingBlock: XOMCOT_clean_sbu_0, # of connection points: 5
#     Node 13, Type 0, BuildingBlock: XOMCOT_clean_sbu_0, # of connection points: 5
#     Node 14, Type 0, BuildingBlock: XOMCOT_clean_sbu_0, # of connection points: 5
#     Node 15, Type 0, BuildingBlock: XOMCOT_clean_sbu_0, # of connection points: 5
#     Edge 16, Type (0, 0), BuildingBlock: OJICUG_clean_linker_0, # of connection points: 2
#     Edge 17, Type (0, 0), BuildingBlock: OJICUG_clean_linker_0, # of connection points: 2
#     Edge 18, Type (0, 0), BuildingBlock: OJICUG_clean_linker_0, # of connection points: 2
#     Edge 19, Type (0, 0), BuildingBlock: OJICUG_clean_linker_0, # of connection points: 2
#     Edge 20, Type (0, 0), BuildingBlock: OJICUG_clean_linker_0, # of connection points: 2
#     Edge 21, Type (0, 0), BuildingBlock: OJICUG_clean_linker_0, # of connection points: 2
#     Edge 22, Type (0, 0), BuildingBlock: OJICUG_clean_linker_0, # of connection points: 2
#     Edge 23, Type (0, 0), BuildingBlock: OJICUG_clean_linker_0, # of connection points: 2
#     Edge 24, Type (0, 0), BuildingBlock: OJICUG_clean_linker_0, # of connection points: 2
#     Edge 25, Type (0, 0), BuildingBlock: OJICUG_clean_linker_0, # of connection points: 2
#     Edge 26, Type (0, 0), BuildingBlock: OJICUG_clean_linker_0, # of connection points: 2
#     Edge 27, Type (0, 0), BuildingBlock: OJICUG_clean_linker_0, # of connection points: 2
#     Edge 28, Type (0, 0), BuildingBlock: OJICUG_clean_linker_0, # of connection points: 2
#     Edge 29, Type (0, 0), BuildingBlock: OJICUG_clean_linker_0, # of connection points: 2
#     Edge 30, Type (0, 0), BuildingBlock: OJICUG_clean_linker_0, # of connection points: 2
#     Edge 31, Type (0, 0), BuildingBlock: OJICUG_clean_linker_0, # of connection points: 2
#     Edge 32, Type (0, 0), BuildingBlock: OJICUG_clean_linker_0, # of connection points: 2
#     Edge 33, Type (0, 0), BuildingBlock: OJICUG_clean_linker_0, # of connection points: 2
#     Edge 34, Type (0, 0), BuildingBlock: OJICUG_clean_linker_0, # of connection points: 2
#     Edge 35, Type (0, 0), BuildingBlock: OJICUG_clean_linker_0, # of connection points: 2
#     Edge 36, Type (0, 0), BuildingBlock: OJICUG_clean_linker_0, # of connection points: 2
#     Edge 37, Type (0, 0), BuildingBlock: OJICUG_clean_linker_0, # of connection points: 2
#     Edge 38, Type (0, 0), BuildingBlock: OJICUG_clean_linker_0, # of connection points: 2
#     Edge 39, Type (0, 0), BuildingBlock: OJICUG_clean_linker_0, # of connection points: 2
#     Edge 40, Type (0, 0), BuildingBlock: OJICUG_clean_linker_0, # of connection points: 2
#     Edge 41, Type (0, 0), BuildingBlock: OJICUG_clean_linker_0, # of connection points: 2
#     Edge 42, Type (0, 0), BuildingBlock: OJICUG_clean_linker_0, # of connection points: 2
#     Edge 43, Type (0, 0), BuildingBlock: OJICUG_clean_linker_0, # of connection points: 2
#     Edge 44, Type (0, 0), BuildingBlock: OJICUG_clean_linker_0, # of connection points: 2
#     Edge 45, Type (0, 0), BuildingBlock: OJICUG_clean_linker_0, # of connection points: 2
#     Edge 46, Type (0, 0), BuildingBlock: OJICUG_clean_linker_0, # of connection points: 2
#     Edge 47, Type (0, 0), BuildingBlock: OJICUG_clean_linker_0, # of connection points: 2
#     Edge 48, Type (0, 0), BuildingBlock: OJICUG_clean_linker_0, # of connection points: 2
#     Edge 49, Type (0, 0), BuildingBlock: OJICUG_clean_linker_0, # of connection points: 2
#     Edge 50, Type (0, 0), BuildingBlock: OJICUG_clean_linker_0, # of connection points: 2
#     Edge 51, Type (0, 0), BuildingBlock: OJICUG_clean_linker_0, # of connection points: 2
#     Edge 52, Type (0, 0), BuildingBlock: OJICUG_clean_linker_0, # of connection points: 2
#     Edge 53, Type (0, 0), BuildingBlock: OJICUG_clean_linker_0, # of connection points: 2
#     Edge 54, Type (0, 0), BuildingBlock: OJICUG_clean_linker_0, # of connection points: 2
#     Edge 55, Type (0, 0), BuildingBlock: OJICUG_clean_linker_0, # of connection points: 2
# Relax obj value: 0.142
# Max RMSD: 0.172
# Mean RMSD: 0.172
data_MOF--net-zfg--node1-XOMCOT_clean_sbu_0--edge1-OJICUG_clean_linker_0
_symmetry_space_group_name_H-M    P1
_symmetry_Int_Tables_number       1
_symmetry_cell_setting            triclinic
loop_
_symmetry_equiv_pos_as_xyz
'x, y, z'
_cell_length_a     31.711285
_cell_length_b     32.062194
_cell_length_c     39.047641
_cell_angle_alpha  90.105549
_cell_angle_beta   90.038666
_cell_angle_gamma 89.892978
loop_
_atom_site_label
_atom_site_type_symbol
_atom_site_fract_x
_atom_site_fract_y
_atom_site_fract_z
_atom_type_partial_charge
Co0 Co 0.10881 0.32705 0.13371 0.0
C1 C 0.15496 0.24503 0.14162 0.0
C2 C 0.18829 0.29772 0.1619 0.0
C3 C 0.21193 0.26262 0.16793 0.0
N4 N 0.15224 0.28689 0.14591 0.0
N5 N 0.19103 0.2295 0.15526 0.0
H6 H 0.13139 0.22617 0.12905 0.0
H7 H 0.19712 0.32925 0.16845 0.0
C8 C 0.10395 0.38312 0.19798 0.0
O9 O 0.06561 0.39681 0.19196 0.0
N10 N 0.0669 0.36869 0.12167 0.0
C11 C 0.02678 0.36289 0.11146 0.0
C12 C 1.00894 0.40129 0.10469 0.0
C13 C 0.07322 0.4103 0.12009 0.0
N14 N 0.03811 0.43124 0.11031 0.0
C15 C 0.05126 0.25894 0.1311 0.0
C16 C 1.00504 0.27672 0.18903 0.0
C17 C 0.9894 0.2468 0.1659 0.0
C18 C 1.01412 0.23715 0.1373 0.0
C19 C 0.04284 0.29791 0.18186 0.0
N20 N 0.06457 0.29039 0.15222 0.0
H21 H 0.06789 0.25152 0.10787 0.0
H22 H 0.0533 0.32091 0.19985 0.0
H23 H 1.01144 0.33299 0.10885 0.0
H24 H 0.10276 0.42483 0.12707 0.0
O25 O 0.10776 0.30655 0.08759 0.0
O26 O 0.15 0.35689 0.10549 0.0
O27 O 0.12115 0.35554 0.17885 0.0
C28 C 0.13714 0.33307 0.08053 0.0
H29 H 0.24266 0.26163 0.18 0.0
H30 H 0.97697 0.40648 0.09602 0.0
H31 H 0.98774 0.28453 0.21207 0.0
H32 H 1.00374 0.21467 0.11839 0.0
Co33 Co 0.72265 0.10395 0.12701 0.0
C34 C 0.80444 0.14734 0.14796 0.0
C35 C 0.74967 0.18636 0.14917 0.0
C36 C 0.78394 0.20986 0.15856 0.0
N37 N 0.76219 0.14707 0.14225 0.0
N38 N 0.81865 0.18545 0.15787 0.0
H39 H 0.82454 0.12052 0.1456 0.0
H40 H 0.71749 0.19737 0.14736 0.0
C41 C 0.7076 0.11467 0.20135 0.0
O42 O 0.7487 0.11202 0.20496 0.0
N43 N 0.6817 0.06319 0.11181 0.0
C44 C 0.68725 0.03328 0.08793 0.0
C45 C 0.6487 1.01526 0.0809 0.0
C46 C 0.64008 0.06283 0.11915 0.0
N47 N 0.61922 0.03383 0.10063 0.0
C48 C 0.79423 0.04986 0.12704 0.0
C49 C 0.76145 0.99034 0.17038 0.0
C50 C 0.79915 0.98132 0.1528 0.0
C51 C 0.816 1.01249 0.13177 0.0
C52 C 0.74112 0.02879 0.16556 0.0
N53 N 0.75755 0.0582 0.14408 0.0
H54 H 0.80615 0.07135 0.10817 0.0
H55 H 0.71053 0.03347 0.17711 0.0
H56 H 0.71694 0.02611 0.07562 0.0
H57 H 0.62497 0.08472 0.13637 0.0
O58 O 0.74612 0.10625 0.08184 0.0
O59 O 0.69291 0.14564 0.09942 0.0
O60 O 0.69101 0.11027 0.17171 0.0
C61 C 0.71843 0.13469 0.07479 0.0
H62 H 0.78306 0.24275 0.16462 0.0
H63 H 0.64265 0.99084 0.06236 0.0
H64 H 0.74628 0.96708 0.18616 0.0
H65 H 0.84513 1.00768 0.11787 0.0
Co66 Co 0.94744 0.71475 0.13264 0.0
C67 C 0.90183 0.79769 0.14011 0.0
C68 C 0.87046 0.74645 0.16417 0.0
C69 C 0.84751 0.78198 0.17041 0.0
N70 N 0.9051 0.75606 0.14579 0.0
N71 N 0.86724 0.8142 0.15537 0.0
H72 H 0.92374 0.81588 0.12532 0.0
H73 H 0.86195 0.71544 0.17225 0.0
C74 C 0.95179 0.65814 0.19693 0.0
O75 O 0.9887 0.64145 0.19018 0.0
N76 N 0.98805 0.67221 0.11967 0.0
C77 C 0.02755 0.67747 0.10787 0.0
C78 C 0.04476 0.63879 0.10108 0.0
C79 C 0.9813 0.63064 0.11878 0.0
N80 N 1.01576 0.60919 0.1082 0.0
C81 C 1.00384 0.78364 0.13014 0.0
C82 C 0.05815 0.75933 0.18146 0.0
C83 C 0.07045 0.79201 0.15961 0.0
C84 C 0.04137 0.80529 0.13494 0.0
C85 C 1.01921 0.73925 0.1765 0.0
N86 N 0.99319 0.75026 0.15007 0.0
H87 H 0.98483 0.79258 0.10856 0.0
H88 H 1.01171 0.71355 0.19283 0.0
H89 H 0.04287 0.70723 0.10429 0.0
H90 H 0.95205 0.61651 0.12693 0.0
O91 O 0.94763 0.73501 0.08655 0.0
O92 O 0.90482 0.68563 0.1054 0.0
O93 O 0.93602 0.68682 0.17812 0.0
C94 C 0.91761 0.70885 0.08012 0.0
H95 H 0.81802 0.78385 0.18428 0.0
H96 H 0.07623 0.63317 0.09144 0.0
H97 H 0.07916 0.74774 0.20112 0.0
H98 H 0.04812 0.83127 0.11816 0.0
Co99 Co 0.33694 0.93822 0.12983 0.0
C100 C 0.25465 0.89261 0.14307 0.0
C101 C 0.30726 0.86682 0.17005 0.0
C102 C 0.27205 0.84398 0.17822 0.0
N103 N 0.29637 0.89854 0.14905 0.0
N104 N 0.23903 0.86022 0.16123 0.0
H105 H 0.23596 0.91017 0.12516 0.0
H106 H 0.33902 0.86008 0.17849 0.0
C107 C 0.35517 0.9387 0.20438 0.0
O108 O 0.31483 0.94674 0.20858 0.0
N109 N 0.3789 0.97548 0.11088 0.0
C110 C 0.37429 1.00192 0.08433 0.0
C111 C 0.41314 0.01888 0.07667 0.0
C112 C 0.42025 0.9769 0.11915 0.0
N113 N 0.44183 1.00322 0.09871 0.0
C114 C 0.26603 0.99382 0.12995 0.0
C115 C 0.30288 0.05707 0.1673 0.0
C116 C 0.26291 0.06409 0.15269 0.0
C117 C 0.24432 0.03128 0.13444 0.0
C118 C 0.32323 0.01856 0.16274 0.0
N119 N 0.30451 0.98703 0.14465 0.0
H120 H 0.25287 0.97169 0.11234 0.0
H121 H 0.35508 1.01502 0.17215 0.0
H122 H 0.34499 1.00764 0.07093 0.0
H123 H 0.43469 0.95781 0.13877 0.0
O124 O 0.31138 0.93229 0.0857 0.0
O125 O 0.36351 0.89237 0.10471 0.0
O126 O 0.37027 0.93565 0.17411 0.0
C127 C 0.33749 0.90196 0.08002 0.0
H128 H 0.27106 0.81654 0.19432 0.0
H129 H 0.41988 0.04081 0.05635 0.0
H130 H 0.31941 0.08172 0.18067 0.0
H131 H 0.21373 0.0348 0.12247 0.0
Co132 Co 0.60469 0.21094 0.38593 0.0
C133 C 0.65106 0.29213 0.37083 0.0
C134 C 0.69073 0.23855 0.37691 0.0
C135 C 0.71573 0.27209 0.36972 0.0
N136 N 0.65011 0.25077 0.37818 0.0
N137 N 0.69105 0.30607 0.3657 0.0
H138 H 0.62345 0.31153 0.36852 0.0
H139 H 0.7017 0.20692 0.38053 0.0
C140 C 0.60639 0.15854 0.31964 0.0
O141 O 0.56943 0.14134 0.32492 0.0
N142 N 0.56156 0.16906 0.39365 0.0
C143 C 0.52003 0.17401 0.3996 0.0
C144 C 0.50222 0.13521 0.40444 0.0
C145 C 0.56857 0.12761 0.39615 0.0
N146 N 0.53278 0.10583 0.40211 0.0
C147 C 0.55052 0.28184 0.38706 0.0
C148 C 0.50061 0.26097 0.33185 0.0
C149 C 0.48651 0.29225 0.35441 0.0
C150 C 0.51312 0.30376 0.38138 0.0
C151 C 0.53881 0.24006 0.33822 0.0
N152 N 0.5624 0.24917 0.36658 0.0
H153 H 0.56899 0.29015 0.40925 0.0
H154 H 0.54746 0.21502 0.32142 0.0
H155 H 0.50364 0.20358 0.40048 0.0
H156 H 0.59951 0.11393 0.39313 0.0
O157 O 0.59935 0.22879 0.43267 0.0
O158 O 0.64262 0.17875 0.41566 0.0
O159 O 0.62109 0.18607 0.34015 0.0
C160 C 0.62798 0.20167 0.44054 0.0
H161 H 0.74972 0.27108 0.368 0.0
H162 H 0.46911 0.1294 0.4089 0.0
H163 H 0.48147 0.25152 0.31022 0.0
H164 H 0.50384 0.32763 0.39955 0.0
Co165 Co 0.82975 0.59668 0.38505 0.0
C166 C 0.74736 0.63942 0.36525 0.0
C167 C 0.80222 0.67771 0.36022 0.0
C168 C 0.76755 0.70095 0.35126 0.0
N169 N 0.78991 0.63901 0.36902 0.0
N170 N 0.73278 0.677 0.35432 0.0
H171 H 0.7273 0.61318 0.37026 0.0
H172 H 0.83451 0.6885 0.36064 0.0
C173 C 0.84788 0.60804 0.31131 0.0
O174 O 0.80699 0.60477 0.30656 0.0
N175 N 0.87097 0.55657 0.40112 0.0
C176 C 0.8652 0.5266 0.42481 0.0
C177 C 0.90387 0.5093 0.43279 0.0
C178 C 0.91287 0.55694 0.39482 0.0
N179 N 0.93368 0.52835 0.41383 0.0
C180 C 0.76008 0.5405 0.3837 0.0
C181 C 0.79248 0.48492 0.33658 0.0
C182 C 0.75568 0.47385 0.35455 0.0
C183 C 0.73927 0.50289 0.37788 0.0
C184 C 0.81282 0.52279 0.34365 0.0
N185 N 0.79633 0.55049 0.36672 0.0
H186 H 0.748 0.56046 0.40367 0.0
H187 H 0.84312 0.52843 0.332 0.0
H188 H 0.83523 0.51894 0.43638 0.0
H189 H 0.92815 0.57905 0.37801 0.0
O190 O 0.8044 0.59849 0.42951 0.0
O191 O 0.85727 0.63902 0.41351 0.0
O192 O 0.86321 0.60384 0.34138 0.0
C193 C 0.83083 0.62769 0.4373 0.0
H194 H 0.76819 0.73346 0.34402 0.0
H195 H 0.90975 0.48502 0.45143 0.0
H196 H 0.80667 0.46384 0.31823 0.0
H197 H 0.71202 0.49576 0.39347 0.0
Co198 Co 0.44364 0.82275 0.38381 0.0
C199 C 0.39861 0.7406 0.37742 0.0
C200 C 0.36674 0.79109 0.35226 0.0
C201 C 0.34412 0.75524 0.34677 0.0
N202 N 0.40124 0.78201 0.37101 0.0
N203 N 0.36411 0.72351 0.36251 0.0
H204 H 0.42134 0.72323 0.39234 0.0
H205 H 0.3583 0.82184 0.34327 0.0
C206 C 0.45134 0.87821 0.31998 0.0
O207 O 0.49048 0.88915 0.32624 0.0
N208 N 0.48483 0.8648 0.39636 0.0
C209 C 0.52601 0.85987 0.40397 0.0
C210 C 0.54358 0.89866 0.40932 0.0
C211 C 0.47773 0.90633 0.39816 0.0
N212 N 0.51322 0.92785 0.40551 0.0
C213 C 0.50324 0.75621 0.38811 0.0
C214 C 0.54525 0.76869 0.32729 0.0
C215 C 0.56251 0.74069 0.35123 0.0
C216 C 0.53992 0.73376 0.38143 0.0
C217 C 0.50793 0.79063 0.33499 0.0
N218 N 0.48846 0.78596 0.36601 0.0
H219 H 0.48807 0.75047 0.41225 0.0
H220 H 0.49571 0.81155 0.31603 0.0
H221 H 0.54253 0.83043 0.40503 0.0
H222 H 0.44762 0.92061 0.39232 0.0
O223 O 0.44349 0.80268 0.43006 0.0
O224 O 0.40141 0.85263 0.41118 0.0
O225 O 0.4324 0.85144 0.33867 0.0
C226 C 0.41375 0.82919 0.43647 0.0
H227 H 0.3147 0.75282 0.33283 0.0
H228 H 0.57632 0.90488 0.41526 0.0
H229 H 0.56077 0.7742 0.30303 0.0
H230 H 0.55156 0.71276 0.40096 0.0
Co231 Co 0.2173 0.43364 0.39127 0.0
C232 C 0.30067 0.38984 0.37492 0.0
C233 C 0.24556 0.35797 0.3572 0.0
C234 C 0.28027 0.33477 0.34833 0.0
N235 N 0.25797 0.393 0.37341 0.0
N236 N 0.31517 0.35458 0.35952 0.0
H237 H 0.32088 0.41174 0.38773 0.0
H238 H 0.21307 0.34981 0.3521 0.0
C239 C 0.20236 0.43122 0.31631 0.0
O240 O 0.24329 0.43617 0.31294 0.0
N241 N 0.17499 0.47186 0.40876 0.0
C242 C 0.17856 0.49837 0.43543 0.0
C243 C 0.13938 0.51537 0.44221 0.0
C244 C 0.13393 0.47327 0.39954 0.0
N245 N 0.11151 0.49965 0.41949 0.0
C246 C 0.28791 0.48925 0.3941 0.0
C247 C 0.25485 0.55023 0.35215 0.0
C248 C 0.29335 0.55806 0.36888 0.0
C249 C 0.31 0.52647 0.38966 0.0
C250 C 0.23406 0.51214 0.3569 0.0
N251 N 0.25101 0.48164 0.37714 0.0
H252 H 0.29954 0.46766 0.41297 0.0
H253 H 0.2031 0.50827 0.34582 0.0
H254 H 0.2073 0.50392 0.44964 0.0
H255 H 0.12021 0.45396 0.37972 0.0
O256 O 0.24061 0.42743 0.43626 0.0
O257 O 0.18867 0.38864 0.41557 0.0
O258 O 0.1859 0.43099 0.34618 0.0
C259 C 0.21359 0.39774 0.44108 0.0
H260 H 0.27948 0.30549 0.33457 0.0
H261 H 0.13182 0.53722 0.46247 0.0
H262 H 0.23966 0.57404 0.33685 0.0
H263 H 0.33935 0.53075 0.40338 0.0
Co264 Co 0.94339 0.71245 0.88367 0.0
C265 C 0.89994 0.79387 0.86376 0.0
C266 C 0.85819 0.74218 0.87037 0.0
C267 C 0.83468 0.77639 0.86133 0.0
N268 N 0.89921 0.75291 0.87254 0.0
N269 N 0.86083 0.80907 0.85718 0.0
H270 H 0.92805 0.81234 0.86128 0.0
H271 H 0.84593 0.71125 0.87492 0.0
C272 C 0.94388 0.65674 0.81894 0.0
O273 O 0.98025 0.63879 0.8254 0.0
N274 N 0.98536 0.67044 0.89484 0.0
C275 C 0.02493 0.67633 0.90638 0.0
C276 C 0.04243 0.63804 0.91396 0.0
C277 C 0.97886 0.62888 0.89679 0.0
N278 N 1.0135 0.60804 0.90775 0.0
C279 C 0.99689 0.78327 0.88421 0.0
C280 C 0.05383 0.75685 0.83549 0.0
C281 C 0.0646 0.79113 0.85636 0.0
C282 C 0.03419 0.80539 0.87962 0.0
C283 C 1.01505 0.73636 0.84006 0.0
N284 N 0.98766 0.74865 0.86515 0.0
H285 H 0.97584 0.79356 0.90423 0.0
H286 H 1.00895 0.709 0.82507 0.0
H287 H 0.03986 0.70635 0.90976 0.0
H288 H 0.94939 0.61434 0.88964 0.0
O289 O 0.94622 0.7326 0.92983 0.0
O290 O 0.90328 0.68235 0.91271 0.0
O291 O 0.92928 0.68559 0.83825 0.0
C292 C 0.91699 0.7061 0.93742 0.0
H293 H 0.80071 0.77712 0.85881 0.0
H294 H 0.07387 0.63299 0.92389 0.0
H295 H 0.07597 0.74424 0.81711 0.0
H296 H 0.03958 0.83263 0.89541 0.0
Co297 Co 0.33176 0.93711 0.88838 0.0
C298 C 0.24869 0.89277 0.87451 0.0
C299 C 0.30229 0.86323 0.85158 0.0
C300 C 0.26701 0.84058 0.84314 0.0
N301 N 0.29096 0.89684 0.87038 0.0
N302 N 0.23337 0.85913 0.8576 0.0
H303 H 0.2292 0.91293 0.88986 0.0
H304 H 0.33436 0.85543 0.84463 0.0
C305 C 0.34788 0.93482 0.81354 0.0
O306 O 0.30717 0.94122 0.80986 0.0
N307 N 0.37398 0.97493 0.90603 0.0
C308 C 0.36865 1.00806 0.92685 0.0
C309 C 0.40771 0.02521 0.93363 0.0
C310 C 0.41589 0.97202 0.90076 0.0
N311 N 0.43739 1.00241 0.91725 0.0
C312 C 0.26145 0.99339 0.89001 0.0
C313 C 0.29608 0.05447 0.84917 0.0
C314 C 0.25764 0.0628 0.86578 0.0
C315 C 0.24008 0.03112 0.88584 0.0
C316 C 0.3162 1.01587 0.85366 0.0
N317 N 0.29859 0.98542 0.87353 0.0
H318 H 0.24931 0.97199 0.9087 0.0
H319 H 0.3473 1.01166 0.84292 0.0
H320 H 0.33858 0.01879 0.93655 0.0
H321 H 0.43025 0.94815 0.88498 0.0
O322 O 0.30784 0.93195 0.93319 0.0
O323 O 0.35947 0.89195 0.91336 0.0
O324 O 0.36394 0.93374 0.84359 0.0
C325 C 0.33436 0.90187 0.93856 0.0
H326 H 0.26628 0.81187 0.82851 0.0
H327 H 0.41379 0.05191 0.94989 0.0
H328 H 0.31181 0.0783 0.83432 0.0
H329 H 0.21068 0.0358 0.89939 0.0
Co330 Co 0.10472 0.32615 0.8859 0.0
C331 C 0.15274 0.24498 0.87836 0.0
C332 C 0.17973 0.29565 0.85026 0.0
C333 C 0.20341 0.26057 0.84414 0.0
N334 N 0.14735 0.28601 0.87119 0.0
N335 N 0.18643 0.22865 0.86168 0.0
H336 H 0.13289 0.2272 0.8953 0.0
H337 H 0.18626 0.32634 0.8403 0.0
C338 C 0.09587 0.3843 0.82305 0.0
O339 O 0.05836 0.39873 0.83101 0.0
N340 N 0.06376 0.36757 0.90038 0.0
C341 C 0.02404 0.3619 0.91155 0.0
C342 C 1.00657 0.40043 0.91868 0.0
C343 C 0.07034 0.40912 0.90195 0.0
N344 N 0.03564 0.43024 0.91236 0.0
C345 C 0.0498 0.25595 0.88826 0.0
C346 C 0.99555 0.27832 0.83634 0.0
C347 C 0.98425 0.24491 0.85779 0.0
C348 C 1.0133 0.23278 0.88288 0.0
C349 C 0.03346 0.29997 0.84189 0.0
N350 N 0.05938 0.28993 0.86864 0.0
H351 H 0.06907 0.24732 0.90977 0.0
H352 H 0.04034 0.32569 0.82545 0.0
H353 H 1.00863 0.33203 0.91417 0.0
H354 H 0.09951 0.42354 0.89396 0.0
O355 O 0.10639 0.30468 0.93164 0.0
O356 O 0.14753 0.35543 0.91288 0.0
O357 O 0.11384 0.35585 0.8408 0.0
C358 C 0.13597 0.33134 0.93801 0.0
H359 H 0.23156 0.25889 0.82853 0.0
H360 H 0.97479 0.40585 0.92772 0.0
H361 H 0.97457 0.28912 0.81636 0.0
H362 H 1.00743 0.20632 0.89937 0.0
Co363 Co 0.71878 0.09665 0.88092 0.0
C364 C 0.80045 0.14119 0.8699 0.0
C365 C 0.74874 0.16963 0.8432 0.0
C366 C 0.7848 0.1916 0.83582 0.0
N367 N 0.75856 0.13761 0.86407 0.0
N368 N 0.81722 0.17375 0.85262 0.0
H369 H 0.81832 0.12064 0.88638 0.0
H370 H 0.71733 0.17715 0.83446 0.0
C371 C 0.6582 0.08189 0.82092 0.0
O372 O 0.64792 0.04458 0.83188 0.0
N373 N 0.6781 0.05651 0.89799 0.0
C374 C 0.68495 1.0171 0.9086 0.0
C375 C 0.64687 0.99952 0.91741 0.0
C376 C 0.63614 0.06275 0.90164 0.0
N377 N 0.6161 0.02811 0.91274 0.0
C378 C 0.78634 0.03775 0.88494 0.0
C379 C 0.77068 0.99388 0.82555 0.0
C380 C 0.80005 0.9777 0.84903 0.0
C381 C 0.80871 1.0012 0.8784 0.0
C382 C 0.74897 0.03107 0.83303 0.0
N383 N 0.75507 0.05139 0.86349 0.0
H384 H 0.79323 0.05366 0.90854 0.0
H385 H 0.7271 0.04248 0.81431 0.0
H386 H 0.71523 1.00173 0.90956 0.0
H387 H 0.62041 0.09137 0.89434 0.0
O388 O 0.74263 0.10071 0.92595 0.0
O389 O 0.69006 0.14012 0.90759 0.0
O390 O 0.6864 0.10335 0.83641 0.0
C391 C 0.71569 0.13002 0.93233 0.0
H392 H 0.78684 0.2194 0.82021 0.0
H393 H 0.64225 0.9679 0.92629 0.0
H394 H 0.7639 0.97759 0.80187 0.0
H395 H 0.83094 0.99036 0.89749 0.0
Co396 Co 0.43805 0.82351 0.63241 0.0
C397 C 0.39132 0.74236 0.64078 0.0
C398 C 0.35892 0.7953 0.66182 0.0
C399 C 0.33513 0.76043 0.66799 0.0
N400 N 0.39447 0.78413 0.64524 0.0
N401 N 0.35545 0.72716 0.65484 0.0
H402 H 0.41451 0.72337 0.62778 0.0
H403 H 0.35054 0.82688 0.66871 0.0
C404 C 0.44449 0.88056 0.69592 0.0
O405 O 0.48324 0.89274 0.68965 0.0
N406 N 0.48017 0.86436 0.61968 0.0
C407 C 0.52003 0.85809 0.60899 0.0
C408 C 0.53762 0.89622 0.60107 0.0
C409 C 0.47376 0.90589 0.61733 0.0
N410 N 0.50851 0.92639 0.60645 0.0
C411 C 0.49558 0.75508 0.63024 0.0
C412 C 0.54015 0.77149 0.68928 0.0
C413 C 0.55609 0.7415 0.66632 0.0
C414 C 0.53221 0.73259 0.6371 0.0
C415 C 0.50288 0.79339 0.68144 0.0
N416 N 0.48203 0.78657 0.65126 0.0
H417 H 0.47948 0.74797 0.6067 0.0
H418 H 0.492 0.81617 0.69948 0.0
H419 H 0.53527 0.82805 0.60668 0.0
H420 H 0.44435 0.92069 0.62438 0.0
O421 O 0.43857 0.80218 0.58652 0.0
O422 O 0.39701 0.85341 0.60391 0.0
O423 O 0.42636 0.85319 0.67718 0.0
C424 C 0.40961 0.82912 0.57916 0.0
H425 H 0.30468 0.75971 0.6805 0.0
H426 H 0.56933 0.90105 0.59171 0.0
H427 H 0.55676 0.77869 0.71279 0.0
H428 H 0.54285 0.71004 0.61832 0.0
Co429 Co 0.20882 0.43639 0.63104 0.0
C430 C 0.29097 0.39064 0.64485 0.0
C431 C 0.23838 0.36596 0.67238 0.0
C432 C 0.27341 0.34281 0.68062 0.0
N433 N 0.24939 0.39717 0.65096 0.0
N434 N 0.30643 0.35834 0.6633 0.0
H435 H 0.30961 0.40762 0.6266 0.0
H436 H 0.20661 0.35969 0.68094 0.0
C437 C 0.19114 0.43919 0.70554 0.0
O438 O 0.23154 0.44705 0.70936 0.0
N439 N 0.1667 0.47304 0.61142 0.0
C440 C 0.1708 0.49858 0.58424 0.0
C441 C 0.13161 0.51473 0.57619 0.0
C442 C 0.12537 0.47413 0.61964 0.0
N443 N 0.10328 0.49941 0.59862 0.0
C444 C 0.27971 0.49182 0.63042 0.0
C445 C 0.24268 0.55594 0.66679 0.0
C446 C 0.28281 0.56241 0.65243 0.0
C447 C 0.30145 0.52924 0.6346 0.0
C448 C 0.22226 0.51753 0.66248 0.0
N449 N 0.24111 0.48554 0.64498 0.0
H450 H 0.29299 0.46922 0.61324 0.0
H451 H 0.19032 0.51434 0.67171 0.0
H452 H 0.19995 0.50412 0.57063 0.0
H453 H 0.11132 0.45543 0.63963 0.0
O454 O 0.23433 0.42926 0.58707 0.0
O455 O 0.18232 0.3899 0.60681 0.0
O456 O 0.17573 0.4352 0.67543 0.0
C457 C 0.20831 0.39879 0.58197 0.0
H458 H 0.27424 0.31556 0.69695 0.0
H459 H 0.12442 0.53582 0.55536 0.0
H460 H 0.22613 0.58091 0.67979 0.0
H461 H 0.33215 0.53242 0.62279 0.0
Co462 Co 0.59608 0.20744 0.63496 0.0
C463 C 0.64309 0.28864 0.64434 0.0
C464 C 0.66973 0.2378 0.67259 0.0
C465 C 0.69314 0.27293 0.6792 0.0
N466 N 0.63768 0.24758 0.65133 0.0
N467 N 0.67639 0.30494 0.6615 0.0
H468 H 0.62373 0.3064 0.62696 0.0
H469 H 0.67648 0.20688 0.68208 0.0
C470 C 0.58481 0.14687 0.69567 0.0
O471 O 0.54989 0.1307 0.68348 0.0
N472 N 0.55614 0.16627 0.61832 0.0
C473 C 0.51644 0.17208 0.60703 0.0
C474 C 0.49986 0.13388 0.59791 0.0
C475 C 0.56372 0.12506 0.61447 0.0
N476 N 0.52947 0.10413 0.603 0.0
C477 C 0.54042 0.27729 0.63256 0.0
C478 C 0.48417 0.25221 0.68211 0.0
C479 C 0.47335 0.28623 0.66115 0.0
C480 C 0.50325 0.2997 0.63729 0.0
C481 C 0.52263 0.23121 0.67718 0.0
N482 N 0.54968 0.24274 0.65163 0.0
H483 H 0.56041 0.28682 0.6118 0.0
H484 H 0.5289 0.20457 0.69286 0.0
H485 H 0.50038 0.2018 0.60571 0.0
H486 H 0.59307 0.11055 0.62207 0.0
O487 O 0.59913 0.23003 0.5897 0.0
O488 O 0.64016 0.17906 0.60855 0.0
O489 O 0.60318 0.17714 0.68037 0.0
C490 C 0.62893 0.2035 0.58347 0.0
H491 H 0.72115 0.27451 0.69501 0.0
H492 H 0.46818 0.12864 0.58858 0.0
H493 H 0.46237 0.24039 0.70105 0.0
H494 H 0.49748 0.32657 0.6212 0.0
Co495 Co 0.82177 0.59477 0.63121 0.0
C496 C 0.73978 0.63857 0.65119 0.0
C497 C 0.79551 0.67512 0.6582 0.0
C498 C 0.76131 0.69887 0.66741 0.0
N499 N 0.78239 0.63716 0.64802 0.0
N500 N 0.72594 0.67607 0.66307 0.0
H501 H 0.71916 0.61316 0.64497 0.0
H502 H 0.82808 0.68505 0.65863 0.0
C503 C 0.83912 0.60379 0.70541 0.0
O504 O 0.7982 0.60067 0.70999 0.0
N505 N 0.86265 0.55481 0.61445 0.0
C506 C 0.85709 0.52584 0.58981 0.0
C507 C 0.89582 0.50867 0.58177 0.0
C508 C 0.90439 0.55477 0.62121 0.0
N509 N 0.92536 0.52688 0.60164 0.0
C510 C 0.75095 0.53972 0.631 0.0
C511 C 0.78464 0.48023 0.67408 0.0
C512 C 0.74687 0.47108 0.65671 0.0
C513 C 0.72964 0.50213 0.63569 0.0
C514 C 0.80467 0.51876 0.66911 0.0
N515 N 0.7877 0.54824 0.64788 0.0
H516 H 0.73878 0.56101 0.61206 0.0
H517 H 0.83535 0.52349 0.68046 0.0
H518 H 0.82727 0.51882 0.57765 0.0
H519 H 0.91948 0.57621 0.63879 0.0
O520 O 0.7973 0.59866 0.58642 0.0
O521 O 0.85055 0.63758 0.60447 0.0
O522 O 0.85465 0.59987 0.67539 0.0
C523 C 0.82475 0.62743 0.57984 0.0
H524 H 0.76286 0.73094 0.67586 0.0
H525 H 0.9019 0.48509 0.56251 0.0
H526 H 0.80006 0.45702 0.68984 0.0
H527 H 0.70053 0.49705 0.62181 0.0
C528 C 0.15135 0.37291 0.99088 0.0
C529 C 0.15225 0.3347 0.97318 0.0
H530 H 0.14642 0.4026 0.04026 0.0
C531 C 0.15823 0.29766 0.99157 0.0
H532 H 0.14602 0.40178 0.97715 0.0
C533 C 0.15846 0.29813 0.02721 0.0
C534 C 0.1527 0.33563 0.04513 0.0
H535 H 0.15889 0.26785 0.97844 0.0
H536 H 0.15933 0.26865 0.04076 0.0
C537 C 0.15157 0.37338 0.02691 0.0
C538 C 0.67552 0.14737 0.98572 0.0
C539 C 0.71356 0.1473 0.96725 0.0
H540 H 0.64707 0.14409 0.0357 0.0
C541 C 0.75162 0.15332 0.98485 0.0
H542 H 0.64585 0.14203 0.97266 0.0
C543 C 0.75232 0.15448 0.02049 0.0
C544 C 0.71497 0.14964 0.03925 0.0
H545 H 0.78134 0.15327 0.97114 0.0
H546 H 0.78256 0.1553 0.03343 0.0
C547 C 0.67622 0.14854 0.02174 0.0
C548 C 0.90251 0.66632 0.99133 0.0
C549 C 0.90191 0.70396 0.97295 0.0
H550 H 0.90734 0.63821 0.04124 0.0
C551 C 0.89649 0.74166 0.99066 0.0
H552 H 0.90732 0.63696 0.9781 0.0
C553 C 0.89644 0.74236 0.02627 0.0
C554 C 0.9018 0.70539 0.04485 0.0
H555 H 0.89596 0.77104 0.97696 0.0
H556 H 0.89597 0.77227 0.03927 0.0
C557 C 0.90247 0.66703 0.02734 0.0
C558 C 0.30038 0.87887 0.99198 0.0
C559 C 0.33769 0.88437 0.9733 0.0
H560 H 0.27152 0.87862 0.04142 0.0
C561 C 0.3765 0.88437 0.99074 0.0
H562 H 0.27009 0.87893 0.97908 0.0
C563 C 0.37733 0.88423 0.02675 0.0
C564 C 0.33935 0.88405 0.0453 0.0
H565 H 0.40562 0.88932 0.97685 0.0
H566 H 0.40706 0.88918 0.03981 0.0
C567 C 0.30121 0.87864 0.02766 0.0
C568 C 0.64208 0.1613 0.49444 0.0
C569 C 0.6427 0.19905 0.47622 0.0
H570 H 0.63802 0.13292 0.54429 0.0
C571 C 0.64902 0.23652 0.49404 0.0
H572 H 0.6367 0.13211 0.48114 0.0
C573 C 0.65015 0.23696 0.52966 0.0
C574 C 0.64479 0.19995 0.5482 0.0
H575 H 0.64969 0.26599 0.48047 0.0
H576 H 0.6513 0.26677 0.54278 0.0
C577 C 0.64306 0.16176 0.53047 0.0
C578 C 0.86901 0.64446 0.49176 0.0
C579 C 0.83144 0.64359 0.47267 0.0
H580 H 0.89641 0.6406 0.54211 0.0
C581 C 0.79273 0.64753 0.48973 0.0
H582 H 0.89918 0.64078 0.4791 0.0
C583 C 0.79114 0.64732 0.52535 0.0
C584 C 0.82824 0.64326 0.54459 0.0
H585 H 0.76336 0.64692 0.47552 0.0
H586 H 0.76059 0.64658 0.53778 0.0
C587 C 0.86741 0.64433 0.52775 0.0
C588 C 0.38969 0.79491 0.52516 0.0
C589 C 0.39487 0.83216 0.54351 0.0
H590 H 0.39054 0.76527 0.47613 0.0
C591 C 0.39644 0.87015 0.52563 0.0
H592 H 0.38852 0.76526 0.53843 0.0
C593 C 0.39758 0.87015 0.48961 0.0
C594 C 0.39718 0.83217 0.47157 0.0
H595 H 0.40119 0.89918 0.53933 0.0
H596 H 0.40313 0.89919 0.47622 0.0
C597 C 0.39086 0.79491 0.48954 0.0
C598 C 0.16879 0.38132 0.52862 0.0
C599 C 0.20644 0.38003 0.54759 0.0
H600 H 0.14146 0.38722 0.47842 0.0
C601 C 0.24469 0.37327 0.53042 0.0
H602 H 0.13903 0.38738 0.54132 0.0
C603 C 0.2461 0.37338 0.49476 0.0
C604 C 0.20926 0.38008 0.47566 0.0
H605 H 0.27414 0.37247 0.54454 0.0
H606 H 0.27658 0.37253 0.48222 0.0
C607 C 0.1702 0.3813 0.49264 0.0
C608 C 0.24707 0.132 0.18301 0.0
C609 C 0.24206 0.10599 0.15425 0.0
H610 H 0.23435 0.19149 0.20591 0.0
C611 C 0.2178 0.12092 0.12649 0.0
H612 H 0.2647 0.12155 0.20515 0.0
C613 C 0.19963 0.16075 0.12733 0.0
C614 C 0.2059 0.18699 0.15562 0.0
H615 H 0.21382 0.10244 0.1035 0.0
H616 H 0.18214 0.17171 0.10528 0.0
C617 C 0.22945 0.17204 0.18357 0.0
C618 C 0.87073 0.23811 0.17829 0.0
C619 C 0.86187 0.19854 0.16414 0.0
H620 H 0.91722 0.28435 0.18978 0.0
C621 C 0.89621 0.17312 0.15467 0.0
H622 H 0.84569 0.2585 0.18684 0.0
C623 C 0.93769 0.18772 0.15738 0.0
C624 C 0.94622 0.22838 0.16923 0.0
H625 H 0.89136 0.1424 0.14397 0.0
H626 H 0.96307 0.16742 0.14914 0.0
C627 C 0.91218 0.25286 0.18061 0.0
C628 C 0.83976 0.92201 0.12531 0.0
C629 C 0.81907 0.93892 0.15422 0.0
H630 H 0.87166 0.86932 0.1032 0.0
C631 C 0.81645 0.9143 0.18394 0.0
H632 H 0.84171 0.93927 0.10158 0.0
C633 C 0.8329 0.87376 0.18441 0.0
C634 C 0.85299 0.85694 0.1554 0.0
H635 H 0.80163 0.92622 0.20693 0.0
H636 H 0.82995 0.85546 0.20755 0.0
C637 C 0.85686 0.88172 0.12604 0.0
C638 C 0.17804 0.8295 0.19148 0.0
C639 C 0.19656 0.84431 0.16114 0.0
H640 H 0.12355 0.80289 0.21529 0.0
C641 C 0.17351 0.84216 0.1306 0.0
H642 H 0.19518 0.83106 0.21543 0.0
C643 C 0.13302 0.82501 0.13021 0.0
C644 C 0.11387 0.81049 0.16059 0.0
H645 H 0.18736 0.85259 0.10677 0.0
H646 H 0.11723 0.82238 0.10573 0.0
C647 C 0.13705 0.81314 0.19129 0.0
C648 C 0.69421 0.42354 0.35899 0.0
C649 C 0.73732 0.43085 0.35244 0.0
H650 H 0.64575 0.37885 0.36887 0.0
C651 C 0.76364 0.39613 0.34709 0.0
H652 H 0.67248 0.44929 0.36237 0.0
C653 C 0.74796 0.35562 0.3498 0.0
C654 C 0.70556 0.34817 0.35877 0.0
H655 H 0.79701 0.39989 0.3423 0.0
H656 H 0.76986 0.33029 0.34566 0.0
C657 C 0.67862 0.38283 0.36239 0.0
C658 C 0.63853 0.74413 0.33254 0.0
C659 C 0.60513 0.72124 0.34677 0.0
H660 H 0.70452 0.74799 0.32289 0.0
C661 C 0.61405 0.68144 0.36025 0.0
H662 H 0.63316 0.77489 0.32199 0.0
C663 C 0.65548 0.66632 0.36175 0.0
C664 C 0.68934 0.69032 0.34942 0.0
H665 H 0.58908 0.6623 0.37069 0.0
H666 H 0.66078 0.63643 0.37375 0.0
C667 C 0.67991 0.72882 0.33367 0.0
C668 C 0.33592 0.61694 0.3949 0.0
C669 C 0.31445 0.59972 0.36652 0.0
H670 H 0.36894 0.6697 0.41571 0.0
C671 C 0.31216 0.62334 0.33625 0.0
H672 H 0.33782 0.60027 0.41893 0.0
C673 C 0.32942 0.66341 0.33479 0.0
C674 C 0.34993 0.68081 0.36335 0.0
H675 H 0.29683 0.61102 0.31362 0.0
H676 H 0.32655 0.68099 0.31125 0.0
C677 C 0.35374 0.65686 0.39321 0.0
C678 C 0.36704 0.29776 0.34847 0.0
C679 C 0.3584 0.33984 0.35651 0.0
H680 H 0.41357 0.25013 0.3413 0.0
C681 C 0.39284 0.36681 0.36173 0.0
H682 H 0.34186 0.27556 0.34471 0.0
C683 C 0.43444 0.35188 0.35983 0.0
C684 C 0.4428 0.30964 0.35242 0.0
H685 H 0.38786 0.39947 0.36737 0.0
H686 H 0.46012 0.37339 0.36444 0.0
C687 C 0.4085 0.28299 0.34634 0.0
C688 C 0.80872 0.86068 0.83563 0.0
C689 C 0.84848 0.85172 0.85004 0.0
H690 H 0.76229 0.90705 0.82404 0.0
C691 C 0.8744 0.88532 0.85965 0.0
H692 H 0.7882 0.83586 0.82706 0.0
C693 C 0.85982 0.92645 0.8571 0.0
C694 C 0.8188 0.93515 0.84514 0.0
H695 H 0.90521 0.87994 0.8707 0.0
H696 H 0.88022 0.9514 0.86574 0.0
C697 C 0.79403 0.90177 0.83333 0.0
C698 C 0.1657 0.84474 0.88633 0.0
C699 C 0.19057 0.84409 0.85672 0.0
H700 H 0.10808 0.82705 0.91006 0.0
C701 C 0.17371 0.82676 0.82658 0.0
H702 H 0.17823 0.85719 0.91004 0.0
C703 C 0.13271 0.81043 0.82607 0.0
C704 C 0.10781 0.81026 0.85593 0.0
H705 H 0.19227 0.82613 0.80331 0.0
H706 H 0.12065 0.79808 0.80219 0.0
C707 C 0.12518 0.8276 0.88611 0.0
C708 C 0.23951 0.12914 0.83425 0.0
C709 C 0.23747 0.10499 0.86423 0.0
H710 H 0.22443 0.18704 0.80987 0.0
C711 C 0.21681 0.12199 0.89308 0.0
H712 H 0.25439 0.11701 0.81135 0.0
C713 C 0.19909 0.16202 0.89202 0.0
C714 C 0.20208 0.18634 0.8623 0.0
H715 H 0.21526 0.1049 0.91692 0.0
H716 H 0.18428 0.17448 0.91483 0.0
C717 C 0.2222 0.1693 0.83336 0.0
C718 C 0.88245 0.19017 0.88422 0.0
C719 C 0.86 0.18872 0.85335 0.0
H720 H 0.93767 0.21057 0.91029 0.0
C721 C 0.87894 0.20454 0.82356 0.0
H722 H 0.86824 0.17887 0.90763 0.0
C723 C 0.9195 0.22176 0.82464 0.0
C724 C 0.94183 0.22438 0.85576 0.0
H725 H 0.86226 0.2035 0.79936 0.0
H726 H 0.93319 0.23301 0.80103 0.0
C727 C 0.92253 0.20824 0.88553 0.0
C728 C 0.34638 0.65848 0.62692 0.0
C729 C 0.3403 0.6848 0.6552 0.0
H730 H 0.33194 0.60018 0.60319 0.0
C731 C 0.31679 0.67006 0.68319 0.0
H732 H 0.36386 0.66925 0.60484 0.0
C733 C 0.29899 0.63018 0.68266 0.0
C734 C 0.30383 0.60412 0.65392 0.0
H735 H 0.31207 0.68954 0.70554 0.0
H736 H 0.28136 0.61988 0.70481 0.0
C737 C 0.32808 0.61877 0.62613 0.0
C738 C 0.37178 0.33975 0.63257 0.0
C739 C 0.34867 0.34172 0.66309 0.0
H740 H 0.42785 0.3193 0.60763 0.0
C741 C 0.36682 0.32592 0.69327 0.0
H742 H 0.35823 0.35097 0.60885 0.0
C743 C 0.4074 0.30857 0.69295 0.0
C744 C 0.43055 0.306 0.66226 0.0
H745 H 0.34968 0.32738 0.71721 0.0
H746 H 0.42062 0.29743 0.71681 0.0
C747 C 0.41193 0.32172 0.63206 0.0
C748 C 0.68953 0.37115 0.63074 0.0
C749 C 0.69217 0.34717 0.6607 0.0
H750 H 0.70572 0.42794 0.60552 0.0
C751 C 0.71189 0.36458 0.68967 0.0
H752 H 0.67511 0.35842 0.60787 0.0
C753 C 0.72893 0.40483 0.68864 0.0
C754 C 0.7271 0.4287 0.65847 0.0
H755 H 0.71392 0.34708 0.7133 0.0
H756 H 0.7434 0.41725 0.71161 0.0
C757 C 0.70703 0.4112 0.62954 0.0
C758 C 0.60696 0.68129 0.65892 0.0
C759 C 0.59877 0.72212 0.67059 0.0
H760 H 0.65279 0.63475 0.64707 0.0
C761 C 0.6328 0.74582 0.68286 0.0
H762 H 0.5815 0.66158 0.65002 0.0
C763 C 0.67402 0.73013 0.68168 0.0
C764 C 0.68271 0.69031 0.66782 0.0
H765 H 0.62802 0.77742 0.69192 0.0
H766 H 0.69897 0.75009 0.69088 0.0
C767 C 0.64823 0.6657 0.6574 0.0
C768 C 0.19611 0.41114 0.25477 0.0
C769 C 0.17632 0.42209 0.28567 0.0
H770 H 0.18868 0.39059 0.20309 0.0
C771 C 0.13194 0.42227 0.28712 0.0
H772 H 0.23016 0.41069 0.25266 0.0
C773 C 0.10799 0.41091 0.25832 0.0
C774 C 0.12808 0.39843 0.22791 0.0
H775 H 0.11577 0.43075 0.31055 0.0
H776 H 0.07391 0.41063 0.26019 0.0
C777 C 0.17231 0.39924 0.22637 0.0
C778 C 0.63754 0.11711 0.23175 0.0
C779 C 0.68118 0.1249 0.23152 0.0
H780 H 0.57958 0.12106 0.26005 0.0
C781 C 0.69972 0.14354 0.26042 0.0
H782 H 0.62237 0.10274 0.20985 0.0
C783 C 0.67527 0.15462 0.28874 0.0
C784 C 0.6317 0.14669 0.28919 0.0
H785 H 0.73319 0.15024 0.26102 0.0
H786 H 0.69068 0.16915 0.31046 0.0
C787 C 0.61309 0.1275 0.2605 0.0
C788 C 0.85715 0.63006 0.25058 0.0
C789 C 0.87545 0.61835 0.28188 0.0
H790 H 0.86701 0.65095 0.19939 0.0
C791 C 0.91975 0.61798 0.28472 0.0
H792 H 0.82323 0.6305 0.24732 0.0
C793 C 0.94505 0.62985 0.25688 0.0
C794 C 0.92638 0.64293 0.22607 0.0
H795 H 0.93482 0.60887 0.30846 0.0
H796 H 0.97903 0.62988 0.25974 0.0
C797 C 0.88227 0.64226 0.22312 0.0
C798 C 0.38402 0.90041 0.29279 0.0
C799 C 0.42804 0.89637 0.29073 0.0
H800 H 0.32688 0.91758 0.26761 0.0
C801 C 0.44862 0.90885 0.26058 0.0
H802 H 0.36733 0.89169 0.31587 0.0
C803 C 0.42521 0.92343 0.23247 0.0
C804 C 0.38098 0.92663 0.23444 0.0
H805 H 0.48256 0.90614 0.25836 0.0
H806 H 0.44162 0.93175 0.20915 0.0
C807 C 0.36084 0.91563 0.26515 0.0
C808 C 0.93564 0.62154 0.7615 0.0
C809 C 0.91778 0.6425 0.78967 0.0
H810 H 0.92479 0.5932 0.71234 0.0
C811 C 0.87402 0.64957 0.79007 0.0
H812 H 0.96925 0.61563 0.76049 0.0
C813 C 0.84865 0.63603 0.76306 0.0
C814 C 0.86642 0.61576 0.7346 0.0
H815 H 0.85917 0.66532 0.81148 0.0
H816 H 0.81508 0.64224 0.76423 0.0
C817 C 0.91022 0.60873 0.73399 0.0
C818 C 0.37683 0.89992 0.72405 0.0
C819 C 0.42099 0.89736 0.72566 0.0
H820 H 0.31947 0.91426 0.75009 0.0
C821 C 0.44153 0.90957 0.75597 0.0
H822 H 0.36013 0.89142 0.70088 0.0
C823 C 0.41802 0.92244 0.7846 0.0
C824 C 0.37368 0.92411 0.78308 0.0
H825 H 0.47557 0.90792 0.75788 0.0
H826 H 0.43448 0.93064 0.80797 0.0
C827 C 0.35351 0.91337 0.75226 0.0
C828 C 0.16293 0.40504 0.79512 0.0
C829 C 0.11891 0.40128 0.79334 0.0
H830 H 0.21992 0.42062 0.7692 0.0
C831 C 0.09807 0.41269 0.763 0.0
H832 H 0.17973 0.39725 0.81841 0.0
C833 C 0.12129 0.42583 0.73437 0.0
C834 C 0.16555 0.42864 0.73603 0.0
H835 H 0.0641 0.41015 0.76105 0.0
H836 H 0.1047 0.43331 0.71091 0.0
C837 C 0.18593 0.41884 0.76695 0.0
C838 C 0.58782 0.09324 0.74256 0.0
C839 C 0.60275 0.13059 0.72814 0.0
H840 H 0.59362 0.04844 0.78299 0.0
C841 C 0.63575 0.15179 0.74468 0.0
H842 H 0.56249 0.07602 0.73046 0.0
C843 C 0.65367 0.13591 0.77464 0.0
C844 C 0.63905 0.09843 0.78897 0.0
H845 H 0.64779 0.18082 0.7346 0.0
H846 H 0.67921 0.15305 0.78638 0.0
C847 C 0.60581 0.0773 0.77261 0.0
C848 C 0.0619 0.54638 0.10619 0.0
C849 C 1.02131 0.56426 0.107 0.0
H850 H 0.09914 0.4908 0.10594 0.0
C851 C 0.98633 0.53729 0.10768 0.0
H852 H 0.08977 0.56574 0.10591 0.0
C853 C 0.9918 0.49393 0.10833 0.0
C854 C 0.03242 0.47607 0.10812 0.0
H855 H 0.95454 0.5495 0.10784 0.0
H856 H 0.96398 0.47456 0.10968 0.0
C857 C 0.06736 0.50303 0.10665 0.0
C858 C 0.50948 1.01348 0.0685 0.0
C859 C 0.48655 1.0112 0.09922 0.0
H860 H 0.57008 0.02175 0.045 0.0
C861 C 0.50797 1.01663 0.13044 0.0
H862 H 0.49373 1.00916 0.04414 0.0
C863 C 0.5514 0.02473 0.13089 0.0
C864 C 0.57442 0.0263 0.10019 0.0
H865 H 0.49092 1.01519 0.15442 0.0
H866 H 0.56722 0.02907 0.15522 0.0
C867 C 0.55308 0.02039 0.06901 0.0
C868 C 0.48996 0.04253 0.41488 0.0
C869 C 0.52811 0.06081 0.40404 0.0
H870 H 0.45541 0.98612 0.42399 0.0
C871 C 0.5614 0.03401 0.39444 0.0
H872 H 0.46361 0.06156 0.42292 0.0
C873 C 0.55668 0.99066 0.3955 0.0
C874 C 0.51844 0.97262 0.40583 0.0
H875 H 0.59113 0.04617 0.38544 0.0
H876 H 0.58275 0.97125 0.38729 0.0
C877 C 0.48514 0.99907 0.41556 0.0
C878 C 1.00267 0.52008 0.38506 0.0
C879 C 0.97861 0.52147 0.41525 0.0
H880 H 0.06402 0.51109 0.36282 0.0
C881 C 0.99906 0.51591 0.44689 0.0
H882 H 0.98758 0.52413 0.3604 0.0
C883 C 0.04275 0.50949 0.44831 0.0
C884 C 0.06671 0.50735 0.41809 0.0
H885 H 0.98126 0.51712 0.47052 0.0
H886 H 0.05776 0.5054 0.473 0.0
C887 C 0.0462 0.51246 0.38644 0.0
C888 C 0.05952 0.54541 0.9124 0.0
C889 C 1.01895 0.56325 0.91086 0.0
H890 H 0.09668 0.48987 0.91487 0.0
C891 C 0.98393 0.53632 0.91146 0.0
H892 H 0.08741 0.56473 0.91181 0.0
C893 C 0.98934 0.49296 0.91263 0.0
C894 C 0.02994 0.47512 0.91339 0.0
H895 H 0.95214 0.54854 0.91087 0.0
H896 H 0.96151 0.47354 0.91211 0.0
C897 C 0.06491 0.50209 0.91375 0.0
C898 C 0.55389 0.9815 0.91087 0.0
C899 C 0.57109 0.02156 0.91537 0.0
H900 H 0.49832 0.94396 0.90821 0.0
C901 C 0.54342 0.05514 0.92135 0.0
H902 H 0.57406 0.95494 0.90585 0.0
C903 C 0.49969 0.04884 0.92245 0.0
C904 C 0.48253 1.00885 0.91733 0.0
H905 H 0.55554 0.08633 0.92521 0.0
H906 H 0.47931 0.07547 0.92659 0.0
C907 C 0.51027 0.97526 0.91178 0.0
C908 C 0.55432 0.98905 0.60217 0.0
C909 C 0.51384 0.97111 0.60304 0.0
H910 H 0.59113 0.04474 0.60058 0.0
C911 C 0.47866 0.9979 0.60166 0.0
H912 H 0.5823 0.96979 0.60325 0.0
C913 C 0.48376 0.04125 0.60074 0.0
C914 C 0.52423 0.05925 0.60095 0.0
H915 H 0.44695 0.98558 0.60159 0.0
H916 H 0.45574 0.06049 0.60083 0.0
C917 C 0.55942 0.03241 0.60101 0.0
C918 C 0.99138 0.51455 0.56943 0.0
C919 C 0.97026 0.51996 0.60077 0.0
H920 H 0.05073 0.50454 0.54419 0.0
C921 C 0.99367 0.51884 0.63131 0.0
H922 H 0.97407 0.51561 0.54553 0.0
C923 C 0.03724 0.51175 0.63058 0.0
C924 C 0.05844 0.50678 0.59925 0.0
H925 H 0.97806 0.5228 0.65577 0.0
H926 H 0.05455 0.51068 0.65448 0.0
C927 C 0.03515 0.50855 0.56865 0.0
loop_
_geom_bond_atom_site_label_1
_geom_bond_atom_site_label_2
_geom_bond_distance
_geom_bond_site_symmetry_2
_ccdc_geom_bond_type
Co0 N4 2.148 . S
Co0 N10 2.128 . S
Co0 N20 2.194 . S
Co0 O25 2.351 . S
Co0 O26 2.155 . S
Co0 O27 2.096 . S
C1 N4 1.301 . S
C1 N5 1.328 . S
C1 H6 0.930 . S
C2 C3 1.333 . S
C2 N4 1.317 . S
C2 H7 0.930 . S
C3 C2 1.333 . S
C3 N5 1.350 . S
C3 H29 0.931 . S
N4 Co0 2.148 . S
N4 C1 1.301 . S
N4 C2 1.317 . S
N5 C1 1.328 . S
N5 C3 1.350 . S
H6 C1 0.930 . S
H7 C2 0.930 . S
C8 O9 1.224 . S
C8 O27 1.247 . S
O9 C8 1.224 . S
N10 Co0 2.128 . S
N10 C11 1.355 . S
N10 C13 1.311 . S
C11 N10 1.355 . S
C11 C12 1.363 1_455 S
C11 H23 0.929 . S
C12 C11 1.363 1_655 S
C12 N14 1.375 1_655 S
C12 H30 0.931 . S
C13 N10 1.311 . S
C13 N14 1.347 . S
C13 H24 0.929 . S
N14 C12 1.375 1_455 S
N14 C13 1.347 . S
C15 C18 1.365 1_455 S
C15 N20 1.328 . S
C15 H21 0.929 . S
C16 C17 1.362 . S
C16 C19 1.378 1_655 S
C16 H31 0.929 . S
C17 C16 1.362 . S
C17 C18 1.366 . S
C18 C15 1.365 1_655 S
C18 C17 1.366 . S
C18 H32 0.930 . S
C19 C16 1.378 1_455 S
C19 N20 1.315 . S
C19 H22 0.930 . S
N20 Co0 2.194 . S
N20 C15 1.328 . S
N20 C19 1.315 . S
H21 C15 0.929 . S
H22 C19 0.930 . S
H23 C11 0.929 . S
H24 C13 0.929 . S
O25 Co0 2.351 . S
O25 C28 1.244 . S
O26 Co0 2.155 . S
O26 C28 1.240 . S
O27 Co0 2.096 . S
O27 C8 1.247 . S
C28 O25 1.244 . S
C28 O26 1.240 . S
H29 C3 0.931 . S
H30 C12 0.931 . S
H31 C16 0.929 . S
H32 C18 0.930 . S
Co33 N37 2.148 . S
Co33 N43 2.128 . S
Co33 N53 2.194 . S
Co33 O58 2.351 . S
Co33 O59 2.155 . S
Co33 O60 2.096 . S
C34 N37 1.301 . S
C34 N38 1.328 . S
C34 H39 0.930 . S
C35 C36 1.333 . S
C35 N37 1.317 . S
C35 H40 0.930 . S
C36 C35 1.333 . S
C36 N38 1.350 . S
C36 H62 0.931 . S
N37 Co33 2.148 . S
N37 C34 1.301 . S
N37 C35 1.317 . S
N38 C34 1.328 . S
N38 C36 1.350 . S
H39 C34 0.930 . S
H40 C35 0.930 . S
C41 O42 1.224 . S
C41 O60 1.247 . S
O42 C41 1.224 . S
N43 Co33 2.128 . S
N43 C44 1.355 . S
N43 C46 1.311 . S
C44 N43 1.355 . S
C44 C45 1.363 1_545 S
C44 H56 0.929 . S
C45 C44 1.363 1_565 S
C45 N47 1.375 1_565 S
C45 H63 0.931 . S
C46 N43 1.311 . S
C46 N47 1.347 . S
C46 H57 0.929 . S
N47 C45 1.375 1_545 S
N47 C46 1.347 . S
C48 C51 1.365 1_545 S
C48 N53 1.328 . S
C48 H54 0.929 . S
C49 C50 1.362 . S
C49 C52 1.378 1_565 S
C49 H64 0.929 . S
C50 C49 1.362 . S
C50 C51 1.366 . S
C51 C48 1.365 1_565 S
C51 C50 1.366 . S
C51 H65 0.930 . S
C52 C49 1.378 1_545 S
C52 N53 1.315 . S
C52 H55 0.930 . S
N53 Co33 2.194 . S
N53 C48 1.328 . S
N53 C52 1.315 . S
H54 C48 0.929 . S
H55 C52 0.930 . S
H56 C44 0.929 . S
H57 C46 0.929 . S
O58 Co33 2.351 . S
O58 C61 1.244 . S
O59 Co33 2.155 . S
O59 C61 1.240 . S
O60 Co33 2.096 . S
O60 C41 1.247 . S
C61 O58 1.244 . S
C61 O59 1.240 . S
H62 C36 0.931 . S
H63 C45 0.931 . S
H64 C49 0.929 . S
H65 C51 0.930 . S
Co66 N70 2.148 . S
Co66 N76 2.128 . S
Co66 N86 2.194 . S
Co66 O91 2.351 . S
Co66 O92 2.155 . S
Co66 O93 2.096 . S
C67 N70 1.301 . S
C67 N71 1.328 . S
C67 H72 0.930 . S
C68 C69 1.333 . S
C68 N70 1.317 . S
C68 H73 0.930 . S
C69 C68 1.333 . S
C69 N71 1.350 . S
C69 H95 0.931 . S
N70 Co66 2.148 . S
N70 C67 1.301 . S
N70 C68 1.317 . S
N71 C67 1.328 . S
N71 C69 1.350 . S
H72 C67 0.930 . S
H73 C68 0.930 . S
C74 O75 1.224 . S
C74 O93 1.247 . S
O75 C74 1.224 . S
N76 Co66 2.128 . S
N76 C77 1.355 . S
N76 C79 1.311 . S
C77 N76 1.355 . S
C77 C78 1.363 1_655 S
C77 H89 0.929 . S
C78 C77 1.363 1_455 S
C78 N80 1.375 1_455 S
C78 H96 0.931 . S
C79 N76 1.311 . S
C79 N80 1.347 . S
C79 H90 0.929 . S
N80 C78 1.375 1_655 S
N80 C79 1.347 . S
C81 C84 1.365 1_655 S
C81 N86 1.328 . S
C81 H87 0.929 . S
C82 C83 1.362 . S
C82 C85 1.378 1_455 S
C82 H97 0.929 . S
C83 C82 1.362 . S
C83 C84 1.366 . S
C84 C81 1.365 1_455 S
C84 C83 1.366 . S
C84 H98 0.930 . S
C85 C82 1.378 1_655 S
C85 N86 1.315 . S
C85 H88 0.930 . S
N86 Co66 2.194 . S
N86 C81 1.328 . S
N86 C85 1.315 . S
H87 C81 0.929 . S
H88 C85 0.930 . S
H89 C77 0.929 . S
H90 C79 0.929 . S
O91 Co66 2.351 . S
O91 C94 1.244 . S
O92 Co66 2.155 . S
O92 C94 1.240 . S
O93 Co66 2.096 . S
O93 C74 1.247 . S
C94 O91 1.244 . S
C94 O92 1.240 . S
H95 C69 0.931 . S
H96 C78 0.931 . S
H97 C82 0.929 . S
H98 C84 0.930 . S
Co99 N103 2.148 . S
Co99 N109 2.128 . S
Co99 N119 2.194 . S
Co99 O124 2.351 . S
Co99 O125 2.155 . S
Co99 O126 2.096 . S
C100 N103 1.301 . S
C100 N104 1.328 . S
C100 H105 0.930 . S
C101 C102 1.333 . S
C101 N103 1.317 . S
C101 H106 0.930 . S
C102 C101 1.333 . S
C102 N104 1.350 . S
C102 H128 0.931 . S
N103 Co99 2.148 . S
N103 C100 1.301 . S
N103 C101 1.317 . S
N104 C100 1.328 . S
N104 C102 1.350 . S
H105 C100 0.930 . S
H106 C101 0.930 . S
C107 O108 1.224 . S
C107 O126 1.247 . S
O108 C107 1.224 . S
N109 Co99 2.128 . S
N109 C110 1.355 . S
N109 C112 1.311 . S
C110 N109 1.355 . S
C110 C111 1.363 1_565 S
C110 H122 0.929 . S
C111 C110 1.363 1_545 S
C111 N113 1.375 1_545 S
C111 H129 0.931 . S
C112 N109 1.311 . S
C112 N113 1.347 . S
C112 H123 0.929 . S
N113 C111 1.375 1_565 S
N113 C112 1.347 . S
C114 C117 1.365 1_565 S
C114 N119 1.328 . S
C114 H120 0.929 . S
C115 C116 1.362 . S
C115 C118 1.378 1_545 S
C115 H130 0.929 . S
C116 C115 1.362 . S
C116 C117 1.366 . S
C117 C114 1.365 1_545 S
C117 C116 1.366 . S
C117 H131 0.930 . S
C118 C115 1.378 1_565 S
C118 N119 1.315 . S
C118 H121 0.930 . S
N119 Co99 2.194 . S
N119 C114 1.328 . S
N119 C118 1.315 . S
H120 C114 0.929 . S
H121 C118 0.930 . S
H122 C110 0.929 . S
H123 C112 0.929 . S
O124 Co99 2.351 . S
O124 C127 1.244 . S
O125 Co99 2.155 . S
O125 C127 1.240 . S
O126 Co99 2.096 . S
O126 C107 1.247 . S
C127 O124 1.244 . S
C127 O125 1.240 . S
H128 C102 0.931 . S
H129 C111 0.931 . S
H130 C115 0.929 . S
H131 C117 0.930 . S
Co132 N136 2.148 . S
Co132 N142 2.128 . S
Co132 N152 2.194 . S
Co132 O157 2.351 . S
Co132 O158 2.155 . S
Co132 O159 2.096 . S
C133 N136 1.301 . S
C133 N137 1.328 . S
C133 H138 0.930 . S
C134 C135 1.333 . S
C134 N136 1.317 . S
C134 H139 0.930 . S
C135 C134 1.333 . S
C135 N137 1.350 . S
C135 H161 0.931 . S
N136 Co132 2.148 . S
N136 C133 1.301 . S
N136 C134 1.317 . S
N137 C133 1.328 . S
N137 C135 1.350 . S
H138 C133 0.930 . S
H139 C134 0.930 . S
C140 O141 1.224 . S
C140 O159 1.247 . S
O141 C140 1.224 . S
N142 Co132 2.128 . S
N142 C143 1.355 . S
N142 C145 1.311 . S
C143 N142 1.355 . S
C143 C144 1.363 . S
C143 H155 0.929 . S
C144 C143 1.363 . S
C144 N146 1.375 . S
C144 H162 0.931 . S
C145 N142 1.311 . S
C145 N146 1.347 . S
C145 H156 0.929 . S
N146 C144 1.375 . S
N146 C145 1.347 . S
C147 C150 1.365 . S
C147 N152 1.328 . S
C147 H153 0.929 . S
C148 C149 1.362 . S
C148 C151 1.378 . S
C148 H163 0.929 . S
C149 C148 1.362 . S
C149 C150 1.366 . S
C150 C147 1.365 . S
C150 C149 1.366 . S
C150 H164 0.930 . S
C151 C148 1.378 . S
C151 N152 1.315 . S
C151 H154 0.930 . S
N152 Co132 2.194 . S
N152 C147 1.328 . S
N152 C151 1.315 . S
H153 C147 0.929 . S
H154 C151 0.930 . S
H155 C143 0.929 . S
H156 C145 0.929 . S
O157 Co132 2.351 . S
O157 C160 1.244 . S
O158 Co132 2.155 . S
O158 C160 1.240 . S
O159 Co132 2.096 . S
O159 C140 1.247 . S
C160 O157 1.244 . S
C160 O158 1.240 . S
H161 C135 0.931 . S
H162 C144 0.931 . S
H163 C148 0.929 . S
H164 C150 0.930 . S
Co165 N169 2.148 . S
Co165 N175 2.128 . S
Co165 N185 2.194 . S
Co165 O190 2.351 . S
Co165 O191 2.155 . S
Co165 O192 2.096 . S
C166 N169 1.301 . S
C166 N170 1.328 . S
C166 H171 0.930 . S
C167 C168 1.333 . S
C167 N169 1.317 . S
C167 H172 0.930 . S
C168 C167 1.333 . S
C168 N170 1.350 . S
C168 H194 0.931 . S
N169 Co165 2.148 . S
N169 C166 1.301 . S
N169 C167 1.317 . S
N170 C166 1.328 . S
N170 C168 1.350 . S
H171 C166 0.930 . S
H172 C167 0.930 . S
C173 O174 1.224 . S
C173 O192 1.247 . S
O174 C173 1.224 . S
N175 Co165 2.128 . S
N175 C176 1.355 . S
N175 C178 1.311 . S
C176 N175 1.355 . S
C176 C177 1.363 . S
C176 H188 0.929 . S
C177 C176 1.363 . S
C177 N179 1.375 . S
C177 H195 0.931 . S
C178 N175 1.311 . S
C178 N179 1.347 . S
C178 H189 0.929 . S
N179 C177 1.375 . S
N179 C178 1.347 . S
C180 C183 1.365 . S
C180 N185 1.328 . S
C180 H186 0.929 . S
C181 C182 1.362 . S
C181 C184 1.378 . S
C181 H196 0.929 . S
C182 C181 1.362 . S
C182 C183 1.366 . S
C183 C180 1.365 . S
C183 C182 1.366 . S
C183 H197 0.930 . S
C184 C181 1.378 . S
C184 N185 1.315 . S
C184 H187 0.930 . S
N185 Co165 2.194 . S
N185 C180 1.328 . S
N185 C184 1.315 . S
H186 C180 0.929 . S
H187 C184 0.930 . S
H188 C176 0.929 . S
H189 C178 0.929 . S
O190 Co165 2.351 . S
O190 C193 1.244 . S
O191 Co165 2.155 . S
O191 C193 1.240 . S
O192 Co165 2.096 . S
O192 C173 1.247 . S
C193 O190 1.244 . S
C193 O191 1.240 . S
H194 C168 0.931 . S
H195 C177 0.931 . S
H196 C181 0.929 . S
H197 C183 0.930 . S
Co198 N202 2.148 . S
Co198 N208 2.128 . S
Co198 N218 2.194 . S
Co198 O223 2.351 . S
Co198 O224 2.155 . S
Co198 O225 2.096 . S
C199 N202 1.301 . S
C199 N203 1.328 . S
C199 H204 0.930 . S
C200 C201 1.333 . S
C200 N202 1.317 . S
C200 H205 0.930 . S
C201 C200 1.333 . S
C201 N203 1.350 . S
C201 H227 0.931 . S
N202 Co198 2.148 . S
N202 C199 1.301 . S
N202 C200 1.317 . S
N203 C199 1.328 . S
N203 C201 1.350 . S
H204 C199 0.930 . S
H205 C200 0.930 . S
C206 O207 1.224 . S
C206 O225 1.247 . S
O207 C206 1.224 . S
N208 Co198 2.128 . S
N208 C209 1.355 . S
N208 C211 1.311 . S
C209 N208 1.355 . S
C209 C210 1.363 . S
C209 H221 0.929 . S
C210 C209 1.363 . S
C210 N212 1.375 . S
C210 H228 0.931 . S
C211 N208 1.311 . S
C211 N212 1.347 . S
C211 H222 0.929 . S
N212 C210 1.375 . S
N212 C211 1.347 . S
C213 C216 1.365 . S
C213 N218 1.328 . S
C213 H219 0.929 . S
C214 C215 1.362 . S
C214 C217 1.378 . S
C214 H229 0.929 . S
C215 C214 1.362 . S
C215 C216 1.366 . S
C216 C213 1.365 . S
C216 C215 1.366 . S
C216 H230 0.930 . S
C217 C214 1.378 . S
C217 N218 1.315 . S
C217 H220 0.930 . S
N218 Co198 2.194 . S
N218 C213 1.328 . S
N218 C217 1.315 . S
H219 C213 0.929 . S
H220 C217 0.930 . S
H221 C209 0.929 . S
H222 C211 0.929 . S
O223 Co198 2.351 . S
O223 C226 1.244 . S
O224 Co198 2.155 . S
O224 C226 1.240 . S
O225 Co198 2.096 . S
O225 C206 1.247 . S
C226 O223 1.244 . S
C226 O224 1.240 . S
H227 C201 0.931 . S
H228 C210 0.931 . S
H229 C214 0.929 . S
H230 C216 0.930 . S
Co231 N235 2.148 . S
Co231 N241 2.128 . S
Co231 N251 2.194 . S
Co231 O256 2.351 . S
Co231 O257 2.155 . S
Co231 O258 2.096 . S
C232 N235 1.301 . S
C232 N236 1.328 . S
C232 H237 0.930 . S
C233 C234 1.333 . S
C233 N235 1.317 . S
C233 H238 0.930 . S
C234 C233 1.333 . S
C234 N236 1.350 . S
C234 H260 0.931 . S
N235 Co231 2.148 . S
N235 C232 1.301 . S
N235 C233 1.317 . S
N236 C232 1.328 . S
N236 C234 1.350 . S
H237 C232 0.930 . S
H238 C233 0.930 . S
C239 O240 1.224 . S
C239 O258 1.247 . S
O240 C239 1.224 . S
N241 Co231 2.128 . S
N241 C242 1.355 . S
N241 C244 1.311 . S
C242 N241 1.355 . S
C242 C243 1.363 . S
C242 H254 0.929 . S
C243 C242 1.363 . S
C243 N245 1.375 . S
C243 H261 0.931 . S
C244 N241 1.311 . S
C244 N245 1.347 . S
C244 H255 0.929 . S
N245 C243 1.375 . S
N245 C244 1.347 . S
C246 C249 1.365 . S
C246 N251 1.328 . S
C246 H252 0.929 . S
C247 C248 1.362 . S
C247 C250 1.378 . S
C247 H262 0.929 . S
C248 C247 1.362 . S
C248 C249 1.366 . S
C249 C246 1.365 . S
C249 C248 1.366 . S
C249 H263 0.930 . S
C250 C247 1.378 . S
C250 N251 1.315 . S
C250 H253 0.930 . S
N251 Co231 2.194 . S
N251 C246 1.328 . S
N251 C250 1.315 . S
H252 C246 0.929 . S
H253 C250 0.930 . S
H254 C242 0.929 . S
H255 C244 0.929 . S
O256 Co231 2.351 . S
O256 C259 1.244 . S
O257 Co231 2.155 . S
O257 C259 1.240 . S
O258 Co231 2.096 . S
O258 C239 1.247 . S
C259 O256 1.244 . S
C259 O257 1.240 . S
H260 C234 0.931 . S
H261 C243 0.931 . S
H262 C247 0.929 . S
H263 C249 0.930 . S
Co264 N268 2.148 . S
Co264 N274 2.128 . S
Co264 N284 2.194 . S
Co264 O289 2.351 . S
Co264 O290 2.155 . S
Co264 O291 2.096 . S
C265 N268 1.301 . S
C265 N269 1.328 . S
C265 H270 0.930 . S
C266 C267 1.333 . S
C266 N268 1.317 . S
C266 H271 0.930 . S
C267 C266 1.333 . S
C267 N269 1.350 . S
C267 H293 0.931 . S
N268 Co264 2.148 . S
N268 C265 1.301 . S
N268 C266 1.317 . S
N269 C265 1.328 . S
N269 C267 1.350 . S
H270 C265 0.930 . S
H271 C266 0.930 . S
C272 O273 1.224 . S
C272 O291 1.247 . S
O273 C272 1.224 . S
N274 Co264 2.128 . S
N274 C275 1.355 . S
N274 C277 1.311 . S
C275 N274 1.355 . S
C275 C276 1.363 1_655 S
C275 H287 0.929 . S
C276 C275 1.363 1_455 S
C276 N278 1.375 1_455 S
C276 H294 0.931 . S
C277 N274 1.311 . S
C277 N278 1.347 . S
C277 H288 0.929 . S
N278 C276 1.375 1_655 S
N278 C277 1.347 . S
C279 C282 1.365 1_655 S
C279 N284 1.328 . S
C279 H285 0.929 . S
C280 C281 1.362 . S
C280 C283 1.378 1_455 S
C280 H295 0.929 . S
C281 C280 1.362 . S
C281 C282 1.366 . S
C282 C279 1.365 1_455 S
C282 C281 1.366 . S
C282 H296 0.930 . S
C283 C280 1.378 1_655 S
C283 N284 1.315 . S
C283 H286 0.930 . S
N284 Co264 2.194 . S
N284 C279 1.328 . S
N284 C283 1.315 . S
H285 C279 0.929 . S
H286 C283 0.930 . S
H287 C275 0.929 . S
H288 C277 0.929 . S
O289 Co264 2.351 . S
O289 C292 1.244 . S
O290 Co264 2.155 . S
O290 C292 1.240 . S
O291 Co264 2.096 . S
O291 C272 1.247 . S
C292 O289 1.244 . S
C292 O290 1.240 . S
H293 C267 0.931 . S
H294 C276 0.931 . S
H295 C280 0.929 . S
H296 C282 0.930 . S
Co297 N301 2.148 . S
Co297 N307 2.128 . S
Co297 N317 2.194 . S
Co297 O322 2.351 . S
Co297 O323 2.155 . S
Co297 O324 2.096 . S
C298 N301 1.301 . S
C298 N302 1.328 . S
C298 H303 0.930 . S
C299 C300 1.333 . S
C299 N301 1.317 . S
C299 H304 0.930 . S
C300 C299 1.333 . S
C300 N302 1.350 . S
C300 H326 0.931 . S
N301 Co297 2.148 . S
N301 C298 1.301 . S
N301 C299 1.317 . S
N302 C298 1.328 . S
N302 C300 1.350 . S
H303 C298 0.930 . S
H304 C299 0.930 . S
C305 O306 1.224 . S
C305 O324 1.247 . S
O306 C305 1.224 . S
N307 Co297 2.128 . S
N307 C308 1.355 . S
N307 C310 1.311 . S
C308 N307 1.355 . S
C308 C309 1.363 1_565 S
C308 H320 0.929 . S
C309 C308 1.363 1_545 S
C309 N311 1.375 1_545 S
C309 H327 0.931 . S
C310 N307 1.311 . S
C310 N311 1.347 . S
C310 H321 0.929 . S
N311 C309 1.375 1_565 S
N311 C310 1.347 . S
C312 C315 1.365 1_565 S
C312 N317 1.328 . S
C312 H318 0.929 . S
C313 C314 1.362 . S
C313 C316 1.378 1_545 S
C313 H328 0.929 . S
C314 C313 1.362 . S
C314 C315 1.366 . S
C315 C312 1.365 1_545 S
C315 C314 1.366 . S
C315 H329 0.930 . S
C316 C313 1.378 1_565 S
C316 N317 1.315 . S
C316 H319 0.930 . S
N317 Co297 2.194 . S
N317 C312 1.328 . S
N317 C316 1.315 . S
H318 C312 0.929 . S
H319 C316 0.930 . S
H320 C308 0.929 . S
H321 C310 0.929 . S
O322 Co297 2.351 . S
O322 C325 1.244 . S
O323 Co297 2.155 . S
O323 C325 1.240 . S
O324 Co297 2.096 . S
O324 C305 1.247 . S
C325 O322 1.244 . S
C325 O323 1.240 . S
H326 C300 0.931 . S
H327 C309 0.931 . S
H328 C313 0.929 . S
H329 C315 0.930 . S
Co330 N334 2.148 . S
Co330 N340 2.128 . S
Co330 N350 2.194 . S
Co330 O355 2.351 . S
Co330 O356 2.155 . S
Co330 O357 2.096 . S
C331 N334 1.301 . S
C331 N335 1.328 . S
C331 H336 0.930 . S
C332 C333 1.333 . S
C332 N334 1.317 . S
C332 H337 0.930 . S
C333 C332 1.333 . S
C333 N335 1.350 . S
C333 H359 0.931 . S
N334 Co330 2.148 . S
N334 C331 1.301 . S
N334 C332 1.317 . S
N335 C331 1.328 . S
N335 C333 1.350 . S
H336 C331 0.930 . S
H337 C332 0.930 . S
C338 O339 1.224 . S
C338 O357 1.247 . S
O339 C338 1.224 . S
N340 Co330 2.128 . S
N340 C341 1.355 . S
N340 C343 1.311 . S
C341 N340 1.355 . S
C341 C342 1.363 1_455 S
C341 H353 0.929 . S
C342 C341 1.363 1_655 S
C342 N344 1.375 1_655 S
C342 H360 0.931 . S
C343 N340 1.311 . S
C343 N344 1.347 . S
C343 H354 0.929 . S
N344 C342 1.375 1_455 S
N344 C343 1.347 . S
C345 C348 1.365 1_455 S
C345 N350 1.328 . S
C345 H351 0.929 . S
C346 C347 1.362 . S
C346 C349 1.378 1_655 S
C346 H361 0.929 . S
C347 C346 1.362 . S
C347 C348 1.366 . S
C348 C345 1.365 1_655 S
C348 C347 1.366 . S
C348 H362 0.930 . S
C349 C346 1.378 1_455 S
C349 N350 1.315 . S
C349 H352 0.930 . S
N350 Co330 2.194 . S
N350 C345 1.328 . S
N350 C349 1.315 . S
H351 C345 0.929 . S
H352 C349 0.930 . S
H353 C341 0.929 . S
H354 C343 0.929 . S
O355 Co330 2.351 . S
O355 C358 1.244 . S
O356 Co330 2.155 . S
O356 C358 1.240 . S
O357 Co330 2.096 . S
O357 C338 1.247 . S
C358 O355 1.244 . S
C358 O356 1.240 . S
H359 C333 0.931 . S
H360 C342 0.931 . S
H361 C346 0.929 . S
H362 C348 0.930 . S
Co363 N367 2.148 . S
Co363 N373 2.128 . S
Co363 N383 2.194 . S
Co363 O388 2.351 . S
Co363 O389 2.155 . S
Co363 O390 2.096 . S
C364 N367 1.301 . S
C364 N368 1.328 . S
C364 H369 0.930 . S
C365 C366 1.333 . S
C365 N367 1.317 . S
C365 H370 0.930 . S
C366 C365 1.333 . S
C366 N368 1.350 . S
C366 H392 0.931 . S
N367 Co363 2.148 . S
N367 C364 1.301 . S
N367 C365 1.317 . S
N368 C364 1.328 . S
N368 C366 1.350 . S
H369 C364 0.930 . S
H370 C365 0.930 . S
C371 O372 1.224 . S
C371 O390 1.247 . S
O372 C371 1.224 . S
N373 Co363 2.128 . S
N373 C374 1.355 . S
N373 C376 1.311 . S
C374 N373 1.355 . S
C374 C375 1.363 1_545 S
C374 H386 0.929 . S
C375 C374 1.363 1_565 S
C375 N377 1.375 1_565 S
C375 H393 0.931 . S
C376 N373 1.311 . S
C376 N377 1.347 . S
C376 H387 0.929 . S
N377 C375 1.375 1_545 S
N377 C376 1.347 . S
C378 C381 1.365 1_545 S
C378 N383 1.328 . S
C378 H384 0.929 . S
C379 C380 1.362 . S
C379 C382 1.378 1_565 S
C379 H394 0.929 . S
C380 C379 1.362 . S
C380 C381 1.366 . S
C381 C378 1.365 1_565 S
C381 C380 1.366 . S
C381 H395 0.930 . S
C382 C379 1.378 1_545 S
C382 N383 1.315 . S
C382 H385 0.930 . S
N383 Co363 2.194 . S
N383 C378 1.328 . S
N383 C382 1.315 . S
H384 C378 0.929 . S
H385 C382 0.930 . S
H386 C374 0.929 . S
H387 C376 0.929 . S
O388 Co363 2.351 . S
O388 C391 1.244 . S
O389 Co363 2.155 . S
O389 C391 1.240 . S
O390 Co363 2.096 . S
O390 C371 1.247 . S
C391 O388 1.244 . S
C391 O389 1.240 . S
H392 C366 0.931 . S
H393 C375 0.931 . S
H394 C379 0.929 . S
H395 C381 0.930 . S
Co396 N400 2.148 . S
Co396 N406 2.128 . S
Co396 N416 2.194 . S
Co396 O421 2.351 . S
Co396 O422 2.155 . S
Co396 O423 2.096 . S
C397 N400 1.301 . S
C397 N401 1.328 . S
C397 H402 0.930 . S
C398 C399 1.333 . S
C398 N400 1.317 . S
C398 H403 0.930 . S
C399 C398 1.333 . S
C399 N401 1.350 . S
C399 H425 0.931 . S
N400 Co396 2.148 . S
N400 C397 1.301 . S
N400 C398 1.317 . S
N401 C397 1.328 . S
N401 C399 1.350 . S
H402 C397 0.930 . S
H403 C398 0.930 . S
C404 O405 1.224 . S
C404 O423 1.247 . S
O405 C404 1.224 . S
N406 Co396 2.128 . S
N406 C407 1.355 . S
N406 C409 1.311 . S
C407 N406 1.355 . S
C407 C408 1.363 . S
C407 H419 0.929 . S
C408 C407 1.363 . S
C408 N410 1.375 . S
C408 H426 0.931 . S
C409 N406 1.311 . S
C409 N410 1.347 . S
C409 H420 0.929 . S
N410 C408 1.375 . S
N410 C409 1.347 . S
C411 C414 1.365 . S
C411 N416 1.328 . S
C411 H417 0.929 . S
C412 C413 1.362 . S
C412 C415 1.378 . S
C412 H427 0.929 . S
C413 C412 1.362 . S
C413 C414 1.366 . S
C414 C411 1.365 . S
C414 C413 1.366 . S
C414 H428 0.930 . S
C415 C412 1.378 . S
C415 N416 1.315 . S
C415 H418 0.930 . S
N416 Co396 2.194 . S
N416 C411 1.328 . S
N416 C415 1.315 . S
H417 C411 0.929 . S
H418 C415 0.930 . S
H419 C407 0.929 . S
H420 C409 0.929 . S
O421 Co396 2.351 . S
O421 C424 1.244 . S
O422 Co396 2.155 . S
O422 C424 1.240 . S
O423 Co396 2.096 . S
O423 C404 1.247 . S
C424 O421 1.244 . S
C424 O422 1.240 . S
H425 C399 0.931 . S
H426 C408 0.931 . S
H427 C412 0.929 . S
H428 C414 0.930 . S
Co429 N433 2.148 . S
Co429 N439 2.128 . S
Co429 N449 2.194 . S
Co429 O454 2.351 . S
Co429 O455 2.155 . S
Co429 O456 2.096 . S
C430 N433 1.301 . S
C430 N434 1.328 . S
C430 H435 0.930 . S
C431 C432 1.333 . S
C431 N433 1.317 . S
C431 H436 0.930 . S
C432 C431 1.333 . S
C432 N434 1.350 . S
C432 H458 0.931 . S
N433 Co429 2.148 . S
N433 C430 1.301 . S
N433 C431 1.317 . S
N434 C430 1.328 . S
N434 C432 1.350 . S
H435 C430 0.930 . S
H436 C431 0.930 . S
C437 O438 1.224 . S
C437 O456 1.247 . S
O438 C437 1.224 . S
N439 Co429 2.128 . S
N439 C440 1.355 . S
N439 C442 1.311 . S
C440 N439 1.355 . S
C440 C441 1.363 . S
C440 H452 0.929 . S
C441 C440 1.363 . S
C441 N443 1.375 . S
C441 H459 0.931 . S
C442 N439 1.311 . S
C442 N443 1.347 . S
C442 H453 0.929 . S
N443 C441 1.375 . S
N443 C442 1.347 . S
C444 C447 1.365 . S
C444 N449 1.328 . S
C444 H450 0.929 . S
C445 C446 1.362 . S
C445 C448 1.378 . S
C445 H460 0.929 . S
C446 C445 1.362 . S
C446 C447 1.366 . S
C447 C444 1.365 . S
C447 C446 1.366 . S
C447 H461 0.930 . S
C448 C445 1.378 . S
C448 N449 1.315 . S
C448 H451 0.930 . S
N449 Co429 2.194 . S
N449 C444 1.328 . S
N449 C448 1.315 . S
H450 C444 0.929 . S
H451 C448 0.930 . S
H452 C440 0.929 . S
H453 C442 0.929 . S
O454 Co429 2.351 . S
O454 C457 1.244 . S
O455 Co429 2.155 . S
O455 C457 1.240 . S
O456 Co429 2.096 . S
O456 C437 1.247 . S
C457 O454 1.244 . S
C457 O455 1.240 . S
H458 C432 0.931 . S
H459 C441 0.931 . S
H460 C445 0.929 . S
H461 C447 0.930 . S
Co462 N466 2.148 . S
Co462 N472 2.128 . S
Co462 N482 2.194 . S
Co462 O487 2.351 . S
Co462 O488 2.155 . S
Co462 O489 2.096 . S
C463 N466 1.301 . S
C463 N467 1.328 . S
C463 H468 0.930 . S
C464 C465 1.333 . S
C464 N466 1.317 . S
C464 H469 0.930 . S
C465 C464 1.333 . S
C465 N467 1.350 . S
C465 H491 0.931 . S
N466 Co462 2.148 . S
N466 C463 1.301 . S
N466 C464 1.317 . S
N467 C463 1.328 . S
N467 C465 1.350 . S
H468 C463 0.930 . S
H469 C464 0.930 . S
C470 O471 1.224 . S
C470 O489 1.247 . S
O471 C470 1.224 . S
N472 Co462 2.128 . S
N472 C473 1.355 . S
N472 C475 1.311 . S
C473 N472 1.355 . S
C473 C474 1.363 . S
C473 H485 0.929 . S
C474 C473 1.363 . S
C474 N476 1.375 . S
C474 H492 0.931 . S
C475 N472 1.311 . S
C475 N476 1.347 . S
C475 H486 0.929 . S
N476 C474 1.375 . S
N476 C475 1.347 . S
C477 C480 1.365 . S
C477 N482 1.328 . S
C477 H483 0.929 . S
C478 C479 1.362 . S
C478 C481 1.378 . S
C478 H493 0.929 . S
C479 C478 1.362 . S
C479 C480 1.366 . S
C480 C477 1.365 . S
C480 C479 1.366 . S
C480 H494 0.930 . S
C481 C478 1.378 . S
C481 N482 1.315 . S
C481 H484 0.930 . S
N482 Co462 2.194 . S
N482 C477 1.328 . S
N482 C481 1.315 . S
H483 C477 0.929 . S
H484 C481 0.930 . S
H485 C473 0.929 . S
H486 C475 0.929 . S
O487 Co462 2.351 . S
O487 C490 1.244 . S
O488 Co462 2.155 . S
O488 C490 1.240 . S
O489 Co462 2.096 . S
O489 C470 1.247 . S
C490 O487 1.244 . S
C490 O488 1.240 . S
H491 C465 0.931 . S
H492 C474 0.931 . S
H493 C478 0.929 . S
H494 C480 0.930 . S
Co495 N499 2.148 . S
Co495 N505 2.128 . S
Co495 N515 2.194 . S
Co495 O520 2.351 . S
Co495 O521 2.155 . S
Co495 O522 2.096 . S
C496 N499 1.301 . S
C496 N500 1.328 . S
C496 H501 0.930 . S
C497 C498 1.333 . S
C497 N499 1.317 . S
C497 H502 0.930 . S
C498 C497 1.333 . S
C498 N500 1.350 . S
C498 H524 0.931 . S
N499 Co495 2.148 . S
N499 C496 1.301 . S
N499 C497 1.317 . S
N500 C496 1.328 . S
N500 C498 1.350 . S
H501 C496 0.930 . S
H502 C497 0.930 . S
C503 O504 1.224 . S
C503 O522 1.247 . S
O504 C503 1.224 . S
N505 Co495 2.128 . S
N505 C506 1.355 . S
N505 C508 1.311 . S
C506 N505 1.355 . S
C506 C507 1.363 . S
C506 H518 0.929 . S
C507 C506 1.363 . S
C507 N509 1.375 . S
C507 H525 0.931 . S
C508 N505 1.311 . S
C508 N509 1.347 . S
C508 H519 0.929 . S
N509 C507 1.375 . S
N509 C508 1.347 . S
C510 C513 1.365 . S
C510 N515 1.328 . S
C510 H516 0.929 . S
C511 C512 1.362 . S
C511 C514 1.378 . S
C511 H526 0.929 . S
C512 C511 1.362 . S
C512 C513 1.366 . S
C513 C510 1.365 . S
C513 C512 1.366 . S
C513 H527 0.930 . S
C514 C511 1.378 . S
C514 N515 1.315 . S
C514 H517 0.930 . S
N515 Co495 2.194 . S
N515 C510 1.328 . S
N515 C514 1.315 . S
H516 C510 0.929 . S
H517 C514 0.930 . S
H518 C506 0.929 . S
H519 C508 0.929 . S
O520 Co495 2.351 . S
O520 C523 1.244 . S
O521 Co495 2.155 . S
O521 C523 1.240 . S
O522 Co495 2.096 . S
O522 C503 1.247 . S
C523 O520 1.244 . S
C523 O521 1.240 . S
H524 C498 0.931 . S
H525 C507 0.931 . S
H526 C511 0.929 . S
H527 C513 0.930 . S
C528 C529 1.387 . S
C528 H532 0.950 . S
C528 C537 1.390 1_556 S
C529 C528 1.387 . S
C529 C531 1.387 . S
H530 C537 0.950 . S
C531 C529 1.387 . S
C531 C533 1.390 1_556 S
C531 H535 0.950 . S
H532 C528 0.950 . S
C533 C531 1.390 1_554 S
C533 C534 1.387 . S
C533 H536 0.950 . S
C534 C533 1.387 . S
C534 C537 1.387 . S
H535 C531 0.950 . S
H536 C533 0.950 . S
C537 C528 1.390 1_554 S
C537 H530 0.950 . S
C537 C534 1.387 . S
C538 C539 1.387 . S
C538 H542 0.950 . S
C538 C547 1.390 1_556 S
C539 C538 1.387 . S
C539 C541 1.387 . S
H540 C547 0.950 . S
C541 C539 1.387 . S
C541 C543 1.390 1_556 S
C541 H545 0.950 . S
H542 C538 0.950 . S
C543 C541 1.390 1_554 S
C543 C544 1.387 . S
C543 H546 0.950 . S
C544 C543 1.387 . S
C544 C547 1.387 . S
H545 C541 0.950 . S
H546 C543 0.950 . S
C547 C538 1.390 1_554 S
C547 H540 0.950 . S
C547 C544 1.387 . S
C548 C549 1.387 . S
C548 H552 0.950 . S
C548 C557 1.390 1_556 S
C549 C548 1.387 . S
C549 C551 1.387 . S
H550 C557 0.950 . S
C551 C549 1.387 . S
C551 C553 1.390 1_556 S
C551 H555 0.950 . S
H552 C548 0.950 . S
C553 C551 1.390 1_554 S
C553 C554 1.387 . S
C553 H556 0.950 . S
C554 C553 1.387 . S
C554 C557 1.387 . S
H555 C551 0.950 . S
H556 C553 0.950 . S
C557 C548 1.390 1_554 S
C557 H550 0.950 . S
C557 C554 1.387 . S
C558 C559 1.387 . S
C558 H562 0.950 . S
C558 C567 1.390 1_556 S
C559 C558 1.387 . S
C559 C561 1.387 . S
H560 C567 0.950 . S
C561 C559 1.387 . S
C561 C563 1.390 1_556 S
C561 H565 0.950 . S
H562 C558 0.950 . S
C563 C561 1.390 1_554 S
C563 C564 1.387 . S
C563 H566 0.950 . S
C564 C563 1.387 . S
C564 C567 1.387 . S
H565 C561 0.950 . S
H566 C563 0.950 . S
C567 C558 1.390 1_554 S
C567 H560 0.950 . S
C567 C564 1.387 . S
C568 C569 1.387 . S
C568 H572 0.950 . S
C568 C577 1.390 . S
C569 C568 1.387 . S
C569 C571 1.387 . S
H570 C577 0.950 . S
C571 C569 1.387 . S
C571 C573 1.390 . S
C571 H575 0.950 . S
H572 C568 0.950 . S
C573 C571 1.390 . S
C573 C574 1.387 . S
C573 H576 0.950 . S
C574 C573 1.387 . S
C574 C577 1.387 . S
H575 C571 0.950 . S
H576 C573 0.950 . S
C577 C568 1.390 . S
C577 H570 0.950 . S
C577 C574 1.387 . S
C578 C579 1.387 . S
C578 H582 0.950 . S
C578 C587 1.390 . S
C579 C578 1.387 . S
C579 C581 1.387 . S
H580 C587 0.950 . S
C581 C579 1.387 . S
C581 C583 1.390 . S
C581 H585 0.950 . S
H582 C578 0.950 . S
C583 C581 1.390 . S
C583 C584 1.387 . S
C583 H586 0.950 . S
C584 C583 1.387 . S
C584 C587 1.387 . S
H585 C581 0.950 . S
H586 C583 0.950 . S
C587 C578 1.390 . S
C587 H580 0.950 . S
C587 C584 1.387 . S
C588 C589 1.387 . S
C588 H592 0.950 . S
C588 C597 1.390 . S
C589 C588 1.387 . S
C589 C591 1.387 . S
H590 C597 0.950 . S
C591 C589 1.387 . S
C591 C593 1.390 . S
C591 H595 0.950 . S
H592 C588 0.950 . S
C593 C591 1.390 . S
C593 C594 1.387 . S
C593 H596 0.950 . S
C594 C593 1.387 . S
C594 C597 1.387 . S
H595 C591 0.950 . S
H596 C593 0.950 . S
C597 C588 1.390 . S
C597 H590 0.950 . S
C597 C594 1.387 . S
C598 C599 1.387 . S
C598 H602 0.950 . S
C598 C607 1.390 . S
C599 C598 1.387 . S
C599 C601 1.387 . S
H600 C607 0.950 . S
C601 C599 1.387 . S
C601 C603 1.390 . S
C601 H605 0.950 . S
H602 C598 0.950 . S
C603 C601 1.390 . S
C603 C604 1.387 . S
C603 H606 0.950 . S
C604 C603 1.387 . S
C604 C607 1.387 . S
H605 C601 0.950 . S
H606 C603 0.950 . S
C607 C598 1.390 . S
C607 H600 0.950 . S
C607 C604 1.387 . S
C608 C609 1.387 . S
C608 H612 0.950 . S
C608 C617 1.390 . S
C609 C608 1.387 . S
C609 C611 1.387 . S
H610 C617 0.950 . S
C611 C609 1.387 . S
C611 C613 1.390 . S
C611 H615 0.950 . S
H612 C608 0.950 . S
C613 C611 1.390 . S
C613 C614 1.387 . S
C613 H616 0.950 . S
C614 C613 1.387 . S
C614 C617 1.387 . S
H615 C611 0.950 . S
H616 C613 0.950 . S
C617 C608 1.390 . S
C617 H610 0.950 . S
C617 C614 1.387 . S
C618 C619 1.387 . S
C618 H622 0.950 . S
C618 C627 1.390 . S
C619 C618 1.387 . S
C619 C621 1.387 . S
H620 C627 0.950 . S
C621 C619 1.387 . S
C621 C623 1.390 . S
C621 H625 0.950 . S
H622 C618 0.950 . S
C623 C621 1.390 . S
C623 C624 1.387 . S
C623 H626 0.950 . S
C624 C623 1.387 . S
C624 C627 1.387 . S
H625 C621 0.950 . S
H626 C623 0.950 . S
C627 C618 1.390 . S
C627 H620 0.950 . S
C627 C624 1.387 . S
C628 C629 1.387 . S
C628 H632 0.950 . S
C628 C637 1.390 . S
C629 C628 1.387 . S
C629 C631 1.387 . S
H630 C637 0.950 . S
C631 C629 1.387 . S
C631 C633 1.390 . S
C631 H635 0.950 . S
H632 C628 0.950 . S
C633 C631 1.390 . S
C633 C634 1.387 . S
C633 H636 0.950 . S
C634 C633 1.387 . S
C634 C637 1.387 . S
H635 C631 0.950 . S
H636 C633 0.950 . S
C637 C628 1.390 . S
C637 H630 0.950 . S
C637 C634 1.387 . S
C638 C639 1.387 . S
C638 H642 0.950 . S
C638 C647 1.390 . S
C639 C638 1.387 . S
C639 C641 1.387 . S
H640 C647 0.950 . S
C641 C639 1.387 . S
C641 C643 1.390 . S
C641 H645 0.950 . S
H642 C638 0.950 . S
C643 C641 1.390 . S
C643 C644 1.387 . S
C643 H646 0.950 . S
C644 C643 1.387 . S
C644 C647 1.387 . S
H645 C641 0.950 . S
H646 C643 0.950 . S
C647 C638 1.390 . S
C647 H640 0.950 . S
C647 C644 1.387 . S
C648 C649 1.387 . S
C648 H652 0.950 . S
C648 C657 1.390 . S
C649 C648 1.387 . S
C649 C651 1.387 . S
H650 C657 0.950 . S
C651 C649 1.387 . S
C651 C653 1.390 . S
C651 H655 0.950 . S
H652 C648 0.950 . S
C653 C651 1.390 . S
C653 C654 1.387 . S
C653 H656 0.950 . S
C654 C653 1.387 . S
C654 C657 1.387 . S
H655 C651 0.950 . S
H656 C653 0.950 . S
C657 C648 1.390 . S
C657 H650 0.950 . S
C657 C654 1.387 . S
C658 C659 1.387 . S
C658 H662 0.950 . S
C658 C667 1.390 . S
C659 C658 1.387 . S
C659 C661 1.387 . S
H660 C667 0.950 . S
C661 C659 1.387 . S
C661 C663 1.390 . S
C661 H665 0.950 . S
H662 C658 0.950 . S
C663 C661 1.390 . S
C663 C664 1.387 . S
C663 H666 0.950 . S
C664 C663 1.387 . S
C664 C667 1.387 . S
H665 C661 0.950 . S
H666 C663 0.950 . S
C667 C658 1.390 . S
C667 H660 0.950 . S
C667 C664 1.387 . S
C668 C669 1.387 . S
C668 H672 0.950 . S
C668 C677 1.390 . S
C669 C668 1.387 . S
C669 C671 1.387 . S
H670 C677 0.950 . S
C671 C669 1.387 . S
C671 C673 1.390 . S
C671 H675 0.950 . S
H672 C668 0.950 . S
C673 C671 1.390 . S
C673 C674 1.387 . S
C673 H676 0.950 . S
C674 C673 1.387 . S
C674 C677 1.387 . S
H675 C671 0.950 . S
H676 C673 0.950 . S
C677 C668 1.390 . S
C677 H670 0.950 . S
C677 C674 1.387 . S
C678 C679 1.387 . S
C678 H682 0.950 . S
C678 C687 1.390 . S
C679 C678 1.387 . S
C679 C681 1.387 . S
H680 C687 0.950 . S
C681 C679 1.387 . S
C681 C683 1.390 . S
C681 H685 0.950 . S
H682 C678 0.950 . S
C683 C681 1.390 . S
C683 C684 1.387 . S
C683 H686 0.950 . S
C684 C683 1.387 . S
C684 C687 1.387 . S
H685 C681 0.950 . S
H686 C683 0.950 . S
C687 C678 1.390 . S
C687 H680 0.950 . S
C687 C684 1.387 . S
C688 C689 1.387 . S
C688 H692 0.950 . S
C688 C697 1.390 . S
C689 C688 1.387 . S
C689 C691 1.387 . S
H690 C697 0.950 . S
C691 C689 1.387 . S
C691 C693 1.390 . S
C691 H695 0.950 . S
H692 C688 0.950 . S
C693 C691 1.390 . S
C693 C694 1.387 . S
C693 H696 0.950 . S
C694 C693 1.387 . S
C694 C697 1.387 . S
H695 C691 0.950 . S
H696 C693 0.950 . S
C697 C688 1.390 . S
C697 H690 0.950 . S
C697 C694 1.387 . S
C698 C699 1.387 . S
C698 H702 0.950 . S
C698 C707 1.390 . S
C699 C698 1.387 . S
C699 C701 1.387 . S
H700 C707 0.950 . S
C701 C699 1.387 . S
C701 C703 1.390 . S
C701 H705 0.950 . S
H702 C698 0.950 . S
C703 C701 1.390 . S
C703 C704 1.387 . S
C703 H706 0.950 . S
C704 C703 1.387 . S
C704 C707 1.387 . S
H705 C701 0.950 . S
H706 C703 0.950 . S
C707 C698 1.390 . S
C707 H700 0.950 . S
C707 C704 1.387 . S
C708 C709 1.387 . S
C708 H712 0.950 . S
C708 C717 1.390 . S
C709 C708 1.387 . S
C709 C711 1.387 . S
H710 C717 0.950 . S
C711 C709 1.387 . S
C711 C713 1.390 . S
C711 H715 0.950 . S
H712 C708 0.950 . S
C713 C711 1.390 . S
C713 C714 1.387 . S
C713 H716 0.950 . S
C714 C713 1.387 . S
C714 C717 1.387 . S
H715 C711 0.950 . S
H716 C713 0.950 . S
C717 C708 1.390 . S
C717 H710 0.950 . S
C717 C714 1.387 . S
C718 C719 1.387 . S
C718 H722 0.950 . S
C718 C727 1.390 . S
C719 C718 1.387 . S
C719 C721 1.387 . S
H720 C727 0.950 . S
C721 C719 1.387 . S
C721 C723 1.390 . S
C721 H725 0.950 . S
H722 C718 0.950 . S
C723 C721 1.390 . S
C723 C724 1.387 . S
C723 H726 0.950 . S
C724 C723 1.387 . S
C724 C727 1.387 . S
H725 C721 0.950 . S
H726 C723 0.950 . S
C727 C718 1.390 . S
C727 H720 0.950 . S
C727 C724 1.387 . S
C728 C729 1.387 . S
C728 H732 0.950 . S
C728 C737 1.390 . S
C729 C728 1.387 . S
C729 C731 1.387 . S
H730 C737 0.950 . S
C731 C729 1.387 . S
C731 C733 1.390 . S
C731 H735 0.950 . S
H732 C728 0.950 . S
C733 C731 1.390 . S
C733 C734 1.387 . S
C733 H736 0.950 . S
C734 C733 1.387 . S
C734 C737 1.387 . S
H735 C731 0.950 . S
H736 C733 0.950 . S
C737 C728 1.390 . S
C737 H730 0.950 . S
C737 C734 1.387 . S
C738 C739 1.387 . S
C738 H742 0.950 . S
C738 C747 1.390 . S
C739 C738 1.387 . S
C739 C741 1.387 . S
H740 C747 0.950 . S
C741 C739 1.387 . S
C741 C743 1.390 . S
C741 H745 0.950 . S
H742 C738 0.950 . S
C743 C741 1.390 . S
C743 C744 1.387 . S
C743 H746 0.950 . S
C744 C743 1.387 . S
C744 C747 1.387 . S
H745 C741 0.950 . S
H746 C743 0.950 . S
C747 C738 1.390 . S
C747 H740 0.950 . S
C747 C744 1.387 . S
C748 C749 1.387 . S
C748 H752 0.950 . S
C748 C757 1.390 . S
C749 C748 1.387 . S
C749 C751 1.387 . S
H750 C757 0.950 . S
C751 C749 1.387 . S
C751 C753 1.390 . S
C751 H755 0.950 . S
H752 C748 0.950 . S
C753 C751 1.390 . S
C753 C754 1.387 . S
C753 H756 0.950 . S
C754 C753 1.387 . S
C754 C757 1.387 . S
H755 C751 0.950 . S
H756 C753 0.950 . S
C757 C748 1.390 . S
C757 H750 0.950 . S
C757 C754 1.387 . S
C758 C759 1.387 . S
C758 H762 0.950 . S
C758 C767 1.390 . S
C759 C758 1.387 . S
C759 C761 1.387 . S
H760 C767 0.950 . S
C761 C759 1.387 . S
C761 C763 1.390 . S
C761 H765 0.950 . S
H762 C758 0.950 . S
C763 C761 1.390 . S
C763 C764 1.387 . S
C763 H766 0.950 . S
C764 C763 1.387 . S
C764 C767 1.387 . S
H765 C761 0.950 . S
H766 C763 0.950 . S
C767 C758 1.390 . S
C767 H760 0.950 . S
C767 C764 1.387 . S
C768 C769 1.387 . S
C768 H772 0.950 . S
C768 C777 1.390 . S
C769 C768 1.387 . S
C769 C771 1.387 . S
H770 C777 0.950 . S
C771 C769 1.387 . S
C771 C773 1.390 . S
C771 H775 0.950 . S
H772 C768 0.950 . S
C773 C771 1.390 . S
C773 C774 1.387 . S
C773 H776 0.950 . S
C774 C773 1.387 . S
C774 C777 1.387 . S
H775 C771 0.950 . S
H776 C773 0.950 . S
C777 C768 1.390 . S
C777 H770 0.950 . S
C777 C774 1.387 . S
C778 C779 1.387 . S
C778 H782 0.950 . S
C778 C787 1.390 . S
C779 C778 1.387 . S
C779 C781 1.387 . S
H780 C787 0.950 . S
C781 C779 1.387 . S
C781 C783 1.390 . S
C781 H785 0.950 . S
H782 C778 0.950 . S
C783 C781 1.390 . S
C783 C784 1.387 . S
C783 H786 0.950 . S
C784 C783 1.387 . S
C784 C787 1.387 . S
H785 C781 0.950 . S
H786 C783 0.950 . S
C787 C778 1.390 . S
C787 H780 0.950 . S
C787 C784 1.387 . S
C788 C789 1.387 . S
C788 H792 0.950 . S
C788 C797 1.390 . S
C789 C788 1.387 . S
C789 C791 1.387 . S
H790 C797 0.950 . S
C791 C789 1.387 . S
C791 C793 1.390 . S
C791 H795 0.950 . S
H792 C788 0.950 . S
C793 C791 1.390 . S
C793 C794 1.387 . S
C793 H796 0.950 . S
C794 C793 1.387 . S
C794 C797 1.387 . S
H795 C791 0.950 . S
H796 C793 0.950 . S
C797 C788 1.390 . S
C797 H790 0.950 . S
C797 C794 1.387 . S
C798 C799 1.387 . S
C798 H802 0.950 . S
C798 C807 1.390 . S
C799 C798 1.387 . S
C799 C801 1.387 . S
H800 C807 0.950 . S
C801 C799 1.387 . S
C801 C803 1.390 . S
C801 H805 0.950 . S
H802 C798 0.950 . S
C803 C801 1.390 . S
C803 C804 1.387 . S
C803 H806 0.950 . S
C804 C803 1.387 . S
C804 C807 1.387 . S
H805 C801 0.950 . S
H806 C803 0.950 . S
C807 C798 1.390 . S
C807 H800 0.950 . S
C807 C804 1.387 . S
C808 C809 1.387 . S
C808 H812 0.950 . S
C808 C817 1.390 . S
C809 C808 1.387 . S
C809 C811 1.387 . S
H810 C817 0.950 . S
C811 C809 1.387 . S
C811 C813 1.390 . S
C811 H815 0.950 . S
H812 C808 0.950 . S
C813 C811 1.390 . S
C813 C814 1.387 . S
C813 H816 0.950 . S
C814 C813 1.387 . S
C814 C817 1.387 . S
H815 C811 0.950 . S
H816 C813 0.950 . S
C817 C808 1.390 . S
C817 H810 0.950 . S
C817 C814 1.387 . S
C818 C819 1.387 . S
C818 H822 0.950 . S
C818 C827 1.390 . S
C819 C818 1.387 . S
C819 C821 1.387 . S
H820 C827 0.950 . S
C821 C819 1.387 . S
C821 C823 1.390 . S
C821 H825 0.950 . S
H822 C818 0.950 . S
C823 C821 1.390 . S
C823 C824 1.387 . S
C823 H826 0.950 . S
C824 C823 1.387 . S
C824 C827 1.387 . S
H825 C821 0.950 . S
H826 C823 0.950 . S
C827 C818 1.390 . S
C827 H820 0.950 . S
C827 C824 1.387 . S
C828 C829 1.387 . S
C828 H832 0.950 . S
C828 C837 1.390 . S
C829 C828 1.387 . S
C829 C831 1.387 . S
H830 C837 0.950 . S
C831 C829 1.387 . S
C831 C833 1.390 . S
C831 H835 0.950 . S
H832 C828 0.950 . S
C833 C831 1.390 . S
C833 C834 1.387 . S
C833 H836 0.950 . S
C834 C833 1.387 . S
C834 C837 1.387 . S
H835 C831 0.950 . S
H836 C833 0.950 . S
C837 C828 1.390 . S
C837 H830 0.950 . S
C837 C834 1.387 . S
C838 C839 1.387 . S
C838 H842 0.950 . S
C838 C847 1.390 . S
C839 C838 1.387 . S
C839 C841 1.387 . S
H840 C847 0.950 . S
C841 C839 1.387 . S
C841 C843 1.390 . S
C841 H845 0.950 . S
H842 C838 0.950 . S
C843 C841 1.390 . S
C843 C844 1.387 . S
C843 H846 0.950 . S
C844 C843 1.387 . S
C844 C847 1.387 . S
H845 C841 0.950 . S
H846 C843 0.950 . S
C847 C838 1.390 . S
C847 H840 0.950 . S
C847 C844 1.387 . S
C848 C849 1.387 . S
C848 H852 0.950 . S
C848 C857 1.390 1_655 S
C849 C848 1.387 . S
C849 C851 1.387 . S
H850 C857 0.950 . S
C851 C849 1.387 . S
C851 C853 1.390 1_655 S
C851 H855 0.950 . S
H852 C848 0.950 . S
C853 C851 1.390 1_455 S
C853 C854 1.387 . S
C853 H856 0.950 . S
C854 C853 1.387 . S
C854 C857 1.387 . S
H855 C851 0.950 . S
H856 C853 0.950 . S
C857 C848 1.390 1_455 S
C857 H850 0.950 . S
C857 C854 1.387 . S
C858 C859 1.387 . S
C858 H862 0.950 . S
C858 C867 1.390 1_565 S
C859 C858 1.387 . S
C859 C861 1.387 . S
H860 C867 0.950 . S
C861 C859 1.387 . S
C861 C863 1.390 1_565 S
C861 H865 0.950 . S
H862 C858 0.950 . S
C863 C861 1.390 1_545 S
C863 C864 1.387 . S
C863 H866 0.950 . S
C864 C863 1.387 . S
C864 C867 1.387 . S
H865 C861 0.950 . S
H866 C863 0.950 . S
C867 C858 1.390 1_545 S
C867 H860 0.950 . S
C867 C864 1.387 . S
C868 C869 1.387 . S
C868 H872 0.950 . S
C868 C877 1.390 1_545 S
C869 C868 1.387 . S
C869 C871 1.387 . S
H870 C877 0.950 . S
C871 C869 1.387 . S
C871 C873 1.390 1_545 S
C871 H875 0.950 . S
H872 C868 0.950 . S
C873 C871 1.390 1_565 S
C873 C874 1.387 . S
C873 H876 0.950 . S
C874 C873 1.387 . S
C874 C877 1.387 . S
H875 C871 0.950 . S
H876 C873 0.950 . S
C877 C868 1.390 1_565 S
C877 H870 0.950 . S
C877 C874 1.387 . S
C878 C879 1.387 . S
C878 H882 0.950 . S
C878 C887 1.390 1_655 S
C879 C878 1.387 . S
C879 C881 1.387 . S
H880 C887 0.950 . S
C881 C879 1.387 . S
C881 C883 1.390 1_655 S
C881 H885 0.950 . S
H882 C878 0.950 . S
C883 C881 1.390 1_455 S
C883 C884 1.387 . S
C883 H886 0.950 . S
C884 C883 1.387 . S
C884 C887 1.387 . S
H885 C881 0.950 . S
H886 C883 0.950 . S
C887 C878 1.390 1_455 S
C887 H880 0.950 . S
C887 C884 1.387 . S
C888 C889 1.387 . S
C888 H892 0.950 . S
C888 C897 1.390 1_655 S
C889 C888 1.387 . S
C889 C891 1.387 . S
H890 C897 0.950 . S
C891 C889 1.387 . S
C891 C893 1.390 1_655 S
C891 H895 0.950 . S
H892 C888 0.950 . S
C893 C891 1.390 1_455 S
C893 C894 1.387 . S
C893 H896 0.950 . S
C894 C893 1.387 . S
C894 C897 1.387 . S
H895 C891 0.950 . S
H896 C893 0.950 . S
C897 C888 1.390 1_455 S
C897 H890 0.950 . S
C897 C894 1.387 . S
C898 C899 1.387 . S
C898 H902 0.950 . S
C898 C907 1.390 1_545 S
C899 C898 1.387 . S
C899 C901 1.387 . S
H900 C907 0.950 . S
C901 C899 1.387 . S
C901 C903 1.390 1_545 S
C901 H905 0.950 . S
H902 C898 0.950 . S
C903 C901 1.390 1_565 S
C903 C904 1.387 . S
C903 H906 0.950 . S
C904 C903 1.387 . S
C904 C907 1.387 . S
H905 C901 0.950 . S
H906 C903 0.950 . S
C907 C898 1.390 1_565 S
C907 H900 0.950 . S
C907 C904 1.387 . S
C908 C909 1.387 . S
C908 H912 0.950 . S
C908 C917 1.390 1_565 S
C909 C908 1.387 . S
C909 C911 1.387 . S
H910 C917 0.950 . S
C911 C909 1.387 . S
C911 C913 1.390 1_565 S
C911 H915 0.950 . S
H912 C908 0.950 . S
C913 C911 1.390 1_545 S
C913 C914 1.387 . S
C913 H916 0.950 . S
C914 C913 1.387 . S
C914 C917 1.387 . S
H915 C911 0.950 . S
H916 C913 0.950 . S
C917 C908 1.390 1_545 S
C917 H910 0.950 . S
C917 C914 1.387 . S
C918 C919 1.387 . S
C918 H922 0.950 . S
C918 C927 1.390 1_655 S
C919 C918 1.387 . S
C919 C921 1.387 . S
H920 C927 0.950 . S
C921 C919 1.387 . S
C921 C923 1.390 1_655 S
C921 H925 0.950 . S
H922 C918 0.950 . S
C923 C921 1.390 1_455 S
C923 C924 1.387 . S
C923 H926 0.950 . S
C924 C923 1.387 . S
C924 C927 1.387 . S
H925 C921 0.950 . S
H926 C923 0.950 . S
C927 C918 1.390 1_455 S
C927 H920 0.950 . S
C927 C924 1.387 . S
C529 C358 1.463 . S
C534 C28 1.462 . S
C539 C391 1.462 . S
C544 C61 1.463 . S
C549 C292 1.463 . S
C554 C94 1.462 . S
C559 C325 1.462 . S
C564 C127 1.463 . S
C569 C160 1.463 . S
C574 C490 1.462 . S
C579 C193 1.463 . S
C584 C523 1.463 . S
C589 C424 1.462 . S
C594 C226 1.463 . S
C599 C457 1.463 . S
C604 C259 1.462 . S
C609 C116 1.584 . S
C614 N5 1.530 . S
C619 N38 1.533 . S
C624 C17 1.586 . S
C629 C50 1.585 . S
C634 N71 1.532 . S
C639 N104 1.530 . S
C644 C83 1.584 . S
C649 C182 1.583 . S
C654 N137 1.529 . S
C659 C215 1.586 . S
C664 N170 1.533 . S
C669 C248 1.584 . S
C674 N203 1.532 . S
C679 N236 1.533 . S
C684 C149 1.586 . S
C689 N269 1.530 . S
C694 C380 1.583 . S
C699 N302 1.530 . S
C704 C281 1.584 . S
C709 C314 1.585 . S
C714 N335 1.532 . S
C719 N368 1.530 . S
C724 C347 1.583 . S
C729 N401 1.531 . S
C734 C446 1.585 . S
C739 N434 1.530 . S
C744 C479 1.584 . S
C749 N467 1.530 . S
C754 C512 1.584 . S
C759 C413 1.586 . S
C764 N500 1.532 . S
C769 C239 1.072 . S
C774 C8 1.072 . S
C779 C41 1.075 . S
C784 C140 1.075 . S
C789 C173 1.072 . S
C794 C74 1.072 . S
C799 C206 1.072 . S
C804 C107 1.072 . S
C809 C272 1.072 . S
C814 C503 1.072 . S
C819 C404 1.075 . S
C824 C305 1.074 . S
C829 C338 1.075 . S
C834 C437 1.075 . S
C839 C470 1.073 . S
C844 C371 1.074 . S
C849 N80 1.570 . S
C854 N14 1.570 . S
C859 N113 1.570 . S
C864 N47 1.570 . S
C869 N146 1.570 . S
C874 N212 1.570 . S
C879 N179 1.570 . S
C884 N245 1.570 . S
C889 N278 1.570 . S
C894 N344 1.570 . S
C899 N377 1.570 . S
C904 N311 1.570 . S
C909 N410 1.570 . S
C914 N476 1.570 . S
C919 N509 1.570 . S
C924 N443 1.570 . S
