# Generated by pormake.
# Topology wns, (7)-cn, num edge types: 1
# Building blocks:
#     Node 0, Type 0, BuildingBlock: NUHQUE_clean_sbu_2, # of connection points: 7
#     Node 1, Type 0, BuildingBlock: NUHQUE_clean_sbu_2, # of connection points: 7
#     Node 2, Type 0, BuildingBlock: NUHQUE_clean_sbu_2, # of connection points: 7
#     Node 3, Type 0, BuildingBlock: NUHQUE_clean_sbu_2, # of connection points: 7
#     Node 4, Type 0, BuildingBlock: NUHQUE_clean_sbu_2, # of connection points: 7
#     Node 5, Type 0, BuildingBlock: NUHQUE_clean_sbu_2, # of connection points: 7
#     Node 6, Type 0, BuildingBlock: NUHQUE_clean_sbu_2, # of connection points: 7
#     Node 7, Type 0, BuildingBlock: NUHQUE_clean_sbu_2, # of connection points: 7
#     Node 8, Type 0, BuildingBlock: NUHQUE_clean_sbu_2, # of connection points: 7
#     Node 9, Type 0, BuildingBlock: NUHQUE_clean_sbu_2, # of connection points: 7
#     Node 10, Type 0, BuildingBlock: NUHQUE_clean_sbu_2, # of connection points: 7
#     Node 11, Type 0, BuildingBlock: NUHQUE_clean_sbu_2, # of connection points: 7
#     Edge 12, Type (0, 0), BuildingBlock: UVAHIK_clean_linker_0, # of connection points: 2
#     Edge 13, Type (0, 0), BuildingBlock: UVAHIK_clean_linker_0, # of connection points: 2
#     Edge 14, Type (0, 0), BuildingBlock: UVAHIK_clean_linker_0, # of connection points: 2
#     Edge 15, Type (0, 0), BuildingBlock: UVAHIK_clean_linker_0, # of connection points: 2
#     Edge 16, Type (0, 0), BuildingBlock: UVAHIK_clean_linker_0, # of connection points: 2
#     Edge 17, Type (0, 0), BuildingBlock: UVAHIK_clean_linker_0, # of connection points: 2
#     Edge 18, Type (0, 0), BuildingBlock: UVAHIK_clean_linker_0, # of connection points: 2
#     Edge 19, Type (0, 0), BuildingBlock: UVAHIK_clean_linker_0, # of connection points: 2
#     Edge 20, Type (0, 0), BuildingBlock: UVAHIK_clean_linker_0, # of connection points: 2
#     Edge 21, Type (0, 0), BuildingBlock: UVAHIK_clean_linker_0, # of connection points: 2
#     Edge 22, Type (0, 0), BuildingBlock: UVAHIK_clean_linker_0, # of connection points: 2
#     Edge 23, Type (0, 0), BuildingBlock: UVAHIK_clean_linker_0, # of connection points: 2
#     Edge 24, Type (0, 0), BuildingBlock: UVAHIK_clean_linker_0, # of connection points: 2
#     Edge 25, Type (0, 0), BuildingBlock: UVAHIK_clean_linker_0, # of connection points: 2
#     Edge 26, Type (0, 0), BuildingBlock: UVAHIK_clean_linker_0, # of connection points: 2
#     Edge 27, Type (0, 0), BuildingBlock: UVAHIK_clean_linker_0, # of connection points: 2
#     Edge 28, Type (0, 0), BuildingBlock: UVAHIK_clean_linker_0, # of connection points: 2
#     Edge 29, Type (0, 0), BuildingBlock: UVAHIK_clean_linker_0, # of connection points: 2
#     Edge 30, Type (0, 0), BuildingBlock: UVAHIK_clean_linker_0, # of connection points: 2
#     Edge 31, Type (0, 0), BuildingBlock: UVAHIK_clean_linker_0, # of connection points: 2
#     Edge 32, Type (0, 0), BuildingBlock: UVAHIK_clean_linker_0, # of connection points: 2
#     Edge 33, Type (0, 0), BuildingBlock: UVAHIK_clean_linker_0, # of connection points: 2
#     Edge 34, Type (0, 0), BuildingBlock: UVAHIK_clean_linker_0, # of connection points: 2
#     Edge 35, Type (0, 0), BuildingBlock: UVAHIK_clean_linker_0, # of connection points: 2
#     Edge 36, Type (0, 0), BuildingBlock: UVAHIK_clean_linker_0, # of connection points: 2
#     Edge 37, Type (0, 0), BuildingBlock: UVAHIK_clean_linker_0, # of connection points: 2
#     Edge 38, Type (0, 0), BuildingBlock: UVAHIK_clean_linker_0, # of connection points: 2
#     Edge 39, Type (0, 0), BuildingBlock: UVAHIK_clean_linker_0, # of connection points: 2
#     Edge 40, Type (0, 0), BuildingBlock: UVAHIK_clean_linker_0, # of connection points: 2
#     Edge 41, Type (0, 0), BuildingBlock: UVAHIK_clean_linker_0, # of connection points: 2
#     Edge 42, Type (0, 0), BuildingBlock: UVAHIK_clean_linker_0, # of connection points: 2
#     Edge 43, Type (0, 0), BuildingBlock: UVAHIK_clean_linker_0, # of connection points: 2
#     Edge 44, Type (0, 0), BuildingBlock: UVAHIK_clean_linker_0, # of connection points: 2
#     Edge 45, Type (0, 0), BuildingBlock: UVAHIK_clean_linker_0, # of connection points: 2
#     Edge 46, Type (0, 0), BuildingBlock: UVAHIK_clean_linker_0, # of connection points: 2
#     Edge 47, Type (0, 0), BuildingBlock: UVAHIK_clean_linker_0, # of connection points: 2
#     Edge 48, Type (0, 0), BuildingBlock: UVAHIK_clean_linker_0, # of connection points: 2
#     Edge 49, Type (0, 0), BuildingBlock: UVAHIK_clean_linker_0, # of connection points: 2
#     Edge 50, Type (0, 0), BuildingBlock: UVAHIK_clean_linker_0, # of connection points: 2
#     Edge 51, Type (0, 0), BuildingBlock: UVAHIK_clean_linker_0, # of connection points: 2
#     Edge 52, Type (0, 0), BuildingBlock: UVAHIK_clean_linker_0, # of connection points: 2
#     Edge 53, Type (0, 0), BuildingBlock: UVAHIK_clean_linker_0, # of connection points: 2
# Relax obj value: 0.179
# Max RMSD: 0.258
# Mean RMSD: 0.258
data_MOF--net-wns--node1-NUHQUE_clean_sbu_2--edge1-UVAHIK_clean_linker_0
_symmetry_space_group_name_H-M    P1
_symmetry_Int_Tables_number       1
_symmetry_cell_setting            triclinic
loop_
_symmetry_equiv_pos_as_xyz
'x, y, z'
_cell_length_a     60.357855
_cell_length_b     60.355706
_cell_length_c     44.32964
_cell_angle_alpha  89.981851
_cell_angle_beta   89.975382
_cell_angle_gamma 119.92371
loop_
_atom_site_label
_atom_site_type_symbol
_atom_site_fract_x
_atom_site_fract_y
_atom_site_fract_z
_atom_type_partial_charge
O0 O 0.45903 0.24774 0.97536 0.0
Tb1 Tb 0.45565 0.24371 0.02364 0.0
Eu2 Eu 0.42006 0.241 0.08605 0.0
C3 C 0.44301 0.25157 0.9593 0.0
O4 O 0.42436 0.25295 0.97281 0.0
C5 C 0.4085 0.19275 0.04334 0.0
O6 O 0.42225 0.23455 0.1353 0.0
C7 C 0.38468 0.2525 0.0744 0.0
C8 C 0.44166 0.2323 0.14463 0.0
O9 O 0.45915 0.2349 0.12505 0.0
C10 C 0.46991 0.28939 0.06312 0.0
C11 C 0.37736 0.2725 0.0786 0.0
C12 C 0.36754 0.27975 0.0539 0.0
C13 C 0.35808 0.29665 0.05809 0.0
C14 C 0.35808 0.3059 0.08696 0.0
C15 C 0.36688 0.29834 0.11194 0.0
C16 C 0.37713 0.28214 0.10764 0.0
O17 O 0.41934 0.20832 0.02044 0.0
O18 O 0.41092 0.2014 0.0711 0.0
O19 O 0.49354 0.24853 0.01698 0.0
O20 O 0.47323 0.23002 0.05692 0.0
C21 C 0.49439 0.23757 0.04183 0.0
O22 O 0.45977 0.27548 0.08731 0.0
O23 O 0.45953 0.27992 0.03693 0.0
O24 O 0.38492 0.24004 0.09864 0.0
O25 O 0.40308 0.25687 0.05514 0.0
H26 H 0.36671 0.27183 0.03171 0.0
H27 H 0.35023 0.31846 0.09018 0.0
H28 H 0.38365 0.27608 0.12706 0.0
O29 O 0.74219 0.2113 0.97335 0.0
Tb30 Tb 0.7495 0.21723 0.02115 0.0
Eu31 Eu 0.75378 0.18905 0.08503 0.0
C32 C 0.74612 0.19471 0.95863 0.0
O33 O 0.75387 0.1809 0.97332 0.0
C34 C 0.80115 0.22305 0.04119 0.0
O35 O 0.76051 0.1969 0.13442 0.0
C36 C 0.74282 0.14242 0.0728 0.0
C37 C 0.77366 0.22085 0.14309 0.0
O38 O 0.78152 0.23902 0.12268 0.0
C39 C 0.7041 0.18914 0.0634 0.0
C40 C 0.72377 0.11482 0.07683 0.0
C41 C 0.71719 0.09811 0.05186 0.0
C42 C 0.70141 0.07155 0.0557 0.0
C43 C 0.69272 0.06177 0.0846 0.0
C44 C 0.69985 0.07777 0.10986 0.0
C45 C 0.71481 0.10439 0.10586 0.0
O46 O 0.78481 0.21593 0.01877 0.0
O47 O 0.7931 0.21922 0.06926 0.0
O48 O 0.75023 0.25256 0.00886 0.0
O49 O 0.76152 0.24911 0.05321 0.0
C50 C 0.75841 0.26412 0.03461 0.0
O51 O 0.71943 0.19464 0.08665 0.0
O52 O 0.71225 0.18755 0.03652 0.0
O53 O 0.75544 0.15512 0.0969 0.0
O54 O 0.73756 0.15619 0.05413 0.0
H55 H 0.7248 0.10568 0.0297 0.0
H56 H 0.68122 0.04123 0.08767 0.0
H57 H 0.7206 0.11673 0.12548 0.0
O58 O 0.76953 0.55027 0.98876 0.0
Tb59 Tb 0.77401 0.53567 0.0317 0.0
Eu60 Eu 0.83858 0.58454 0.07041 0.0
C61 C 0.78911 0.56352 0.9708 0.0
O62 O 0.81215 0.56966 0.98005 0.0
C63 C 0.79015 0.58973 0.05106 0.0
O64 O 0.82895 0.58532 0.11943 0.0
C65 C 0.88728 0.61507 0.0607 0.0
C66 C 0.80874 0.56583 0.13162 0.0
O67 O 0.79416 0.54583 0.11484 0.0
C68 C 0.81705 0.52638 0.05048 0.0
C69 C 0.91343 0.6198 0.06728 0.0
C70 C 0.93247 0.63061 0.04472 0.0
C71 C 0.95787 0.6371 0.05104 0.0
C72 C 0.96408 0.63289 0.08011 0.0
C73 C 0.94572 0.62291 0.10315 0.0
C74 C 0.92029 0.61617 0.09654 0.0
O75 O 0.77602 0.56592 0.05975 0.0
O76 O 0.81491 0.59933 0.04669 0.0
O77 O 0.73981 0.50178 0.01552 0.0
O78 O 0.74724 0.50574 0.06259 0.0
C79 C 0.73132 0.49136 0.04175 0.0
O80 O 0.82883 0.5429 0.07236 0.0
O81 O 0.80838 0.53319 0.02731 0.0
O82 O 0.87457 0.61767 0.0832 0.0
O83 O 0.87264 0.59618 0.0424 0.0
H84 H 0.92763 0.63439 0.02249 0.0
H85 H 0.98388 0.63907 0.08533 0.0
H86 H 0.90605 0.60868 0.1143 0.0
O87 O 0.25352 0.46726 0.53069 0.0
Tb88 Tb 0.25135 0.46847 0.48183 0.0
Eu89 Eu 0.24802 0.42068 0.41841 0.0
C90 C 0.24352 0.4454 0.54532 0.0
O91 O 0.2331 0.42394 0.52995 0.0
C92 C 0.19919 0.41803 0.45972 0.0
O93 O 0.24302 0.41779 0.3679 0.0
C94 C 0.2636 0.3894 0.43588 0.0
C95 C 0.23983 0.43493 0.35323 0.0
O96 O 0.23933 0.45331 0.36856 0.0
C97 C 0.29131 0.47421 0.43803 0.0
C98 C 0.28406 0.38325 0.42904 0.0
C99 C 0.29264 0.37278 0.45166 0.0
C100 C 0.31111 0.36573 0.4449 0.0
C101 C 0.32063 0.36893 0.41547 0.0
C102 C 0.31186 0.37854 0.39246 0.0
C103 C 0.2937 0.38591 0.39942 0.0
O104 O 0.21253 0.43662 0.4792 0.0
O105 O 0.20882 0.4114 0.43668 0.0
O106 O 0.26302 0.50865 0.48934 0.0
O107 O 0.24216 0.49043 0.44971 0.0
C108 C 0.25283 0.51171 0.46497 0.0
O109 O 0.28039 0.46135 0.41351 0.0
O110 O 0.28136 0.46315 0.46375 0.0
O111 O 0.24656 0.38414 0.41455 0.0
O112 O 0.27018 0.41111 0.44975 0.0
H113 H 0.28481 0.36989 0.47427 0.0
H114 H 0.33402 0.36246 0.41011 0.0
H115 H 0.28674 0.39325 0.3817 0.0
O116 O 0.55879 0.77479 0.50784 0.0
Tb117 Tb 0.54619 0.77239 0.46161 0.0
Eu118 Eu 0.59819 0.83432 0.42026 0.0
C119 C 0.5488 0.78291 0.52837 0.0
O120 O 0.53195 0.7894 0.5199 0.0
C121 C 0.59975 0.7838 0.44142 0.0
O122 O 0.60296 0.82682 0.37181 0.0
C123 C 0.62757 0.88257 0.43284 0.0
C124 C 0.5882 0.80407 0.3602 0.0
O125 O 0.5708 0.78597 0.3773 0.0
C126 C 0.54057 0.81461 0.43397 0.0
C127 C 0.63205 0.90848 0.42557 0.0
C128 C 0.6426 0.92771 0.44782 0.0
C129 C 0.64835 0.95282 0.4412 0.0
C130 C 0.64357 0.95856 0.41217 0.0
C131 C 0.63381 0.93999 0.38938 0.0
C132 C 0.62793 0.91483 0.39624 0.0
O133 O 0.57513 0.76858 0.437 0.0
O134 O 0.60962 0.80864 0.44601 0.0
O135 O 0.51233 0.7387 0.47917 0.0
O136 O 0.51329 0.74796 0.4328 0.0
C137 C 0.49976 0.73178 0.4539 0.0
O138 O 0.55732 0.82492 0.41216 0.0
O139 O 0.54804 0.80884 0.45888 0.0
O140 O 0.63248 0.87059 0.41141 0.0
O141 O 0.60717 0.86734 0.44886 0.0
H142 H 0.6467 0.92324 0.4701 0.0
H143 H 0.6491 0.97819 0.40676 0.0
H144 H 0.6206 0.90039 0.37871 0.0
O145 O 0.25212 0.786 0.50723 0.0
Tb146 Tb 0.24521 0.76898 0.46274 0.0
Eu147 Eu 0.18251 0.75816 0.42134 0.0
C148 C 0.23323 0.78499 0.52305 0.0
O149 O 0.21046 0.77509 0.51071 0.0
C150 C 0.23247 0.81041 0.44442 0.0
O151 O 0.19389 0.76942 0.37297 0.0
C152 C 0.13402 0.7422 0.42927 0.0
C153 C 0.21411 0.76958 0.36164 0.0
O154 O 0.22767 0.76317 0.37897 0.0
C155 C 0.20018 0.71964 0.44236 0.0
C156 C 0.10788 0.72105 0.42228 0.0
C157 C 0.08857 0.71315 0.44442 0.0
C158 C 0.06328 0.6942 0.43787 0.0
C159 C 0.05743 0.6834 0.40899 0.0
C160 C 0.07608 0.69145 0.38633 0.0
C161 C 0.1014 0.71022 0.39314 0.0
O162 O 0.24694 0.80057 0.4376 0.0
O163 O 0.20729 0.79591 0.4463 0.0
O164 O 0.27536 0.76056 0.47458 0.0
O165 O 0.26919 0.7651 0.42838 0.0
C166 C 0.28312 0.7607 0.44718 0.0
O167 O 0.18938 0.7244 0.41951 0.0
O168 O 0.20785 0.73555 0.46501 0.0
O169 O 0.14756 0.75686 0.40671 0.0
O170 O 0.1478 0.73771 0.44873 0.0
H171 H 0.09313 0.72198 0.46654 0.0
H172 H 0.0377 0.66969 0.4036 0.0
H173 H 0.11588 0.71667 0.37567 0.0
O174 O 0.56634 0.7703 0.0262 0.0
Tb175 Tb 0.56687 0.77423 0.97773 0.0
Eu176 Eu 0.59602 0.77022 0.91227 0.0
C177 C 0.58338 0.76684 0.04058 0.0
O178 O 0.60075 0.76459 0.02515 0.0
C179 C 0.61317 0.82112 0.95054 0.0
O180 O 0.59371 0.76912 0.86179 0.0
C181 C 0.62897 0.7566 0.92886 0.0
C182 C 0.58043 0.77815 0.84849 0.0
O183 O 0.5687 0.7871 0.86525 0.0
C184 C 0.5444 0.7256 0.94016 0.0
C185 C 0.63512 0.73589 0.92379 0.0
C186 C 0.64624 0.72883 0.94723 0.0
C187 C 0.65397 0.71068 0.94198 0.0
C188 C 0.65051 0.69963 0.91342 0.0
C189 C 0.64006 0.7067 0.88963 0.0
C190 C 0.63226 0.72479 0.89494 0.0
O191 O 0.60548 0.80637 0.97446 0.0
O192 O 0.60667 0.81106 0.92343 0.0
O193 O 0.53738 0.78309 0.99101 0.0
O194 O 0.54513 0.78285 0.94432 0.0
C195 C 0.53107 0.78632 0.96404 0.0
O196 O 0.55474 0.73854 0.91526 0.0
O197 O 0.55513 0.73501 0.96633 0.0
O198 O 0.63219 0.77146 0.90564 0.0
O199 O 0.60853 0.75129 0.94491 0.0
H200 H 0.6494 0.73782 0.96918 0.0
H201 H 0.65733 0.68631 0.90935 0.0
H202 H 0.62444 0.73056 0.87651 0.0
O203 O 0.26657 0.79779 0.02801 0.0
Tb204 Tb 0.2625 0.79255 0.97941 0.0
Eu205 Eu 0.26466 0.82257 0.91168 0.0
C206 C 0.25882 0.81162 0.04272 0.0
O207 O 0.2497 0.82404 0.0276 0.0
C208 C 0.21467 0.7892 0.95078 0.0
O209 O 0.26609 0.82286 0.86104 0.0
C210 C 0.27557 0.86825 0.92884 0.0
C211 C 0.25559 0.80128 0.84592 0.0
O212 O 0.24497 0.77958 0.86086 0.0
C213 C 0.31102 0.81828 0.94 0.0
C214 C 0.29435 0.89581 0.92402 0.0
C215 C 0.30136 0.91284 0.94866 0.0
C216 C 0.31733 0.93928 0.94428 0.0
C217 C 0.32595 0.94862 0.91524 0.0
C218 C 0.31811 0.93238 0.89013 0.0
C219 C 0.30287 0.9058 0.89469 0.0
O220 O 0.2297 0.79797 0.9744 0.0
O221 O 0.22456 0.79131 0.92376 0.0
O222 O 0.2552 0.75508 0.99445 0.0
O223 O 0.252 0.76066 0.94773 0.0
C224 C 0.25008 0.74418 0.96812 0.0
O225 O 0.29763 0.81478 0.91522 0.0
O226 O 0.30169 0.81933 0.96645 0.0
O227 O 0.26056 0.85599 0.90602 0.0
O228 O 0.28279 0.85423 0.94414 0.0
H229 H 0.29394 0.90563 0.97099 0.0
H230 H 0.33786 0.96909 0.91198 0.0
H231 H 0.2966 0.89313 0.87536 0.0
O232 O 0.24213 0.45926 0.01465 0.0
Tb233 Tb 0.2413 0.47374 0.97003 0.0
Eu234 Eu 0.1796 0.42688 0.92883 0.0
C235 C 0.22123 0.44519 0.03038 0.0
O236 O 0.19887 0.43804 0.01806 0.0
C237 C 0.22652 0.42003 0.94971 0.0
O238 O 0.18935 0.42636 0.87984 0.0
C239 C 0.13065 0.39656 0.93669 0.0
C240 C 0.20924 0.44586 0.86718 0.0
O241 O 0.22406 0.46604 0.88356 0.0
C242 C 0.19924 0.48479 0.94999 0.0
C243 C 0.10441 0.39105 0.9289 0.0
C244 C 0.08565 0.38262 0.95185 0.0
C245 C 0.06002 0.37454 0.94471 0.0
C246 C 0.05318 0.3745 0.9146 0.0
C247 C 0.07115 0.38168 0.89134 0.0
C248 C 0.09695 0.39061 0.89854 0.0
O249 O 0.24129 0.44412 0.94255 0.0
O250 O 0.20176 0.4108 0.95318 0.0
O251 O 0.27741 0.5047 0.98713 0.0
O252 O 0.268 0.50563 0.9412 0.0
C253 C 0.28522 0.51736 0.962 0.0
O254 O 0.18972 0.46865 0.92725 0.0
O255 O 0.2085 0.47915 0.97365 0.0
O256 O 0.14403 0.39373 0.91521 0.0
O257 O 0.14465 0.41567 0.95503 0.0
H258 H 0.09085 0.38175 0.97505 0.0
H259 H 0.03326 0.36749 0.90902 0.0
H260 H 0.11078 0.39581 0.88048 0.0
O261 O 0.75385 0.54695 0.46557 0.0
Tb262 Tb 0.75673 0.54641 0.5145 0.0
Eu263 Eu 0.75898 0.5744 0.5839 0.0
C264 C 0.76177 0.56826 0.4502 0.0
O265 O 0.77011 0.58994 0.46473 0.0
C266 C 0.80662 0.59072 0.54004 0.0
O267 O 0.76284 0.57362 0.6343 0.0
C268 C 0.7474 0.60945 0.57021 0.0
C269 C 0.74393 0.56873 0.65284 0.0
O270 O 0.72157 0.56327 0.6418 0.0
C271 C 0.71112 0.52471 0.55726 0.0
C272 C 0.72888 0.61825 0.57684 0.0
C273 C 0.71967 0.62697 0.55297 0.0
C274 C 0.70409 0.63771 0.55895 0.0
C275 C 0.69834 0.64021 0.5889 0.0
C276 C 0.70786 0.63244 0.61296 0.0
C277 C 0.72262 0.62086 0.60692 0.0
O278 O 0.79063 0.58413 0.51728 0.0
O279 O 0.79807 0.58318 0.56759 0.0
O280 O 0.75716 0.51136 0.50366 0.0
O281 O 0.77191 0.52906 0.54599 0.0
C282 C 0.76757 0.50988 0.52867 0.0
O283 O 0.72594 0.53377 0.58116 0.0
O284 O 0.71897 0.53636 0.5311 0.0
O285 O 0.76301 0.61161 0.59209 0.0
O286 O 0.73973 0.58861 0.55399 0.0
H287 H 0.72491 0.62574 0.52989 0.0
H288 H 0.687 0.6492 0.59365 0.0
H289 H 0.73021 0.61511 0.6256 0.0
O290 O 0.47159 0.2086 0.47204 0.0
Tb291 Tb 0.4712 0.21463 0.51992 0.0
Eu292 Eu 0.43681 0.18224 0.58298 0.0
C293 C 0.45145 0.19007 0.45873 0.0
O294 O 0.43115 0.17496 0.47484 0.0
C295 C 0.42304 0.21705 0.53983 0.0
O296 O 0.43779 0.18946 0.63247 0.0
C297 C 0.40255 0.13496 0.57116 0.0
C298 C 0.4488 0.21324 0.64181 0.0
O299 O 0.45933 0.2318 0.6219 0.0
C300 C 0.48858 0.18625 0.56155 0.0
C301 C 0.39476 0.1075 0.57546 0.0
C302 C 0.38476 0.09059 0.55067 0.0
C303 C 0.37471 0.06415 0.55472 0.0
C304 C 0.37444 0.05466 0.58353 0.0
C305 C 0.38295 0.07074 0.60878 0.0
C306 C 0.39378 0.09732 0.60457 0.0
O307 O 0.43414 0.2123 0.51724 0.0
O308 O 0.42578 0.21141 0.56777 0.0
O309 O 0.50637 0.24962 0.50825 0.0
O310 O 0.48964 0.24723 0.55121 0.0
C311 C 0.50858 0.26178 0.53329 0.0
O312 O 0.47746 0.1896 0.58517 0.0
O313 O 0.47889 0.18494 0.53475 0.0
O314 O 0.40201 0.14757 0.59505 0.0
O315 O 0.42144 0.14908 0.5525 0.0
H316 H 0.38418 0.09787 0.5285 0.0
H317 H 0.36634 0.03421 0.58647 0.0
H318 H 0.40013 0.10981 0.62406 0.0
O319 O 0.8008 0.26514 0.47402 0.0
Tb320 Tb 0.79698 0.25759 0.52178 0.0
Eu321 Eu 0.82554 0.25791 0.58588 0.0
C322 C 0.82017 0.26677 0.45876 0.0
O323 O 0.83803 0.26448 0.47296 0.0
C324 C 0.79526 0.20916 0.54437 0.0
O325 O 0.81812 0.25295 0.6355 0.0
C326 C 0.87245 0.26984 0.57366 0.0
C327 C 0.79677 0.25085 0.64581 0.0
O328 O 0.78123 0.25314 0.62698 0.0
C329 C 0.82357 0.30586 0.56025 0.0
C330 C 0.89969 0.28985 0.57756 0.0
C331 C 0.91711 0.2951 0.55368 0.0
C332 C 0.94346 0.31152 0.55817 0.0
C333 C 0.95229 0.32292 0.58637 0.0
C334 C 0.93544 0.31785 0.61053 0.0
C335 C 0.90907 0.30137 0.60596 0.0
O336 O 0.80329 0.2252 0.52166 0.0
O337 O 0.79632 0.21777 0.57181 0.0
O338 O 0.75797 0.24704 0.50956 0.0
O339 O 0.76714 0.2485 0.55605 0.0
C340 C 0.74894 0.24384 0.53682 0.0
O341 O 0.81899 0.29168 0.58447 0.0
O342 O 0.82444 0.29674 0.53371 0.0
O343 O 0.86007 0.25756 0.5981 0.0
O344 O 0.85819 0.27408 0.55464 0.0
H345 H 0.91034 0.28564 0.53211 0.0
H346 H 0.97272 0.33484 0.58989 0.0
H347 H 0.89601 0.29701 0.62472 0.0
C348 C 0.3486 0.97565 0.97592 0.0
C349 C 0.32305 0.95839 0.96841 0.0
C350 C 0.35514 0.99857 0.99078 0.0
C351 C 0.33298 0.04471 0.99427 0.0
H352 H 0.38745 0.07933 0.05267 0.0
C353 C 0.38917 0.15472 0.00857 0.0
C354 C 0.39499 0.16465 0.03803 0.0
C355 C 0.37791 0.12838 0.00348 0.0
C356 C 0.37203 0.06986 0.03655 0.0
H357 H 0.28417 0.95091 0.97173 0.0
H358 H 0.2955 0.99096 0.99791 0.0
H359 H 0.37199 0.03439 0.04058 0.0
H360 H 0.39319 0.15444 0.08528 0.0
H361 H 0.37378 0.10854 0.07629 0.0
H362 H 0.33347 0.08031 0.9896 0.0
C363 C 0.3105 0.98676 0.99236 0.0
C364 C 0.36328 0.04415 0.02952 0.0
C365 C 0.30394 0.96366 0.97781 0.0
C366 C 0.38893 0.14751 0.06229 0.0
C367 C 0.37795 0.12119 0.05715 0.0
C368 C 0.34193 0.07047 0.00103 0.0
C369 C 0.33628 1.0049 0.99799 0.0
C370 C 0.34381 0.03133 0.00805 0.0
C371 C 0.37244 0.11131 0.02768 0.0
C372 C 0.36177 0.08345 0.02199 0.0
H373 H 0.36371 0.97222 0.96835 0.0
H374 H 0.37517 0.01215 0.99455 0.0
H375 H 0.3182 0.03555 0.97734 0.0
H376 H 0.39357 0.16732 0.98934 0.0
H377 H 0.37414 0.12143 0.98047 0.0
C378 C 0.8381 0.24266 0.00488 0.0
C379 C 0.82909 0.2373 0.03475 0.0
C380 C 0.86428 0.25769 -0.00119 0.0
C381 C 0.9291 0.2836 0.0323 0.0
H382 H 0.94826 0.33318 0.96775 0.0
C383 C 0.03099 0.33888 0.97904 0.0
C384 C 0.03906 0.36334 0.96724 0.0
C385 C 1.00669 0.32466 0.99221 0.0
C386 C 0.94337 0.31971 0.98614 0.0
H387 H 0.84085 0.24312 0.08169 0.0
H388 H 0.88646 0.26942 0.07107 0.0
H389 H 0.9034 0.30559 0.97989 0.0
H390 H 0.029 0.39283 0.96177 0.0
H391 H 0.98716 0.36861 0.98576 0.0
H392 H 0.96928 0.29803 0.03859 0.0
C393 C 0.87327 0.26184 0.0523 0.0
C394 C 0.91751 0.30355 0.99279 0.0
C395 C 0.84705 0.24681 0.05839 0.0
C396 C 0.0233 0.3741 0.97096 0.0
C397 C 0.99916 0.36002 0.98427 0.0
C398 C 0.95507 0.2998 0.02557 0.0
C399 C 0.88221 0.2678 0.02243 0.0
C400 C 0.90996 0.28514 0.01582 0.0
C401 C 0.99003 0.33466 0.99379 0.0
C402 C 0.96256 0.31808 0.00235 0.0
H403 H 0.82491 0.23559 0.98607 0.0
H404 H 0.87046 0.26146 0.97551 0.0
H405 H 0.92401 0.26957 0.05007 0.0
H406 H 0.04257 0.32997 0.97588 0.0
H407 H 1.00033 0.30519 -0.00084 0.0
C408 C 0.75075 0.59362 0.04823 0.0
C409 C 0.77731 0.60475 0.04401 0.0
C410 C 0.73807 0.60692 0.04079 0.0
C411 C 0.74722 0.67142 0.02571 0.0
H412 H 0.68208 0.63286 0.9849 0.0
C413 C 0.69436 0.71791 0.96603 0.0
C414 C 0.66755 0.7039 0.96475 0.0
C415 C 0.70806 0.70758 0.97994 0.0
C416 C 0.69998 0.64391 0.9968 0.0
H417 H 0.81137 0.63899 0.02902 0.0
H418 H 0.7891 0.66229 0.01583 0.0
H419 H 0.70565 0.61171 -0.00045 0.0
H420 H 0.63396 0.6687 0.97795 0.0
H421 H 0.65764 0.65101 0.0034 0.0
H422 H 0.74151 0.70373 0.02266 0.0
C423 C 0.77816 0.64322 0.02515 0.0
C424 C 0.71361 0.63173 0.00511 0.0
C425 C 0.79093 0.62982 0.03258 0.0
C426 C 0.65461 0.68007 0.97918 0.0
C427 C 0.66825 0.66979 0.99325 0.0
C428 C 0.7335 0.68365 0.01742 0.0
C429 C 0.75149 0.6318 0.02887 0.0
C430 C 0.73738 0.64525 0.01975 0.0
C431 C 0.6952 0.68293 0.99273 0.0
C432 C 0.70963 0.67002 0.0029 0.0
H433 H 0.73956 0.57443 0.05715 0.0
H434 H 0.71763 0.59765 0.0445 0.0
H435 H 0.76534 0.68239 0.0372 0.0
H436 H 0.70476 0.73603 0.95433 0.0
H437 H 0.72873 0.71822 0.97882 0.0
C438 C 0.16011 0.41083 0.48813 0.0
C439 C 0.17086 0.40399 0.46418 0.0
C440 C 0.13367 0.39888 0.49201 0.0
C441 C 0.07266 0.34089 0.47455 0.0
H442 H 0.04476 0.3836 0.49949 0.0
C443 C 0.97673 0.3027 0.53802 0.0
C444 C 0.96282 0.31553 0.53506 0.0
C445 C 0.99967 0.31111 0.52228 0.0
C446 C 0.05199 0.37133 0.49203 0.0
H447 H 0.16167 0.37853 0.42583 0.0
H448 H 0.11523 0.3575 0.43282 0.0
H449 H 0.08965 0.4032 0.486 0.0
H450 H 0.9612 0.34642 0.51248 0.0
H451 H 1.00097 0.36082 0.48415 0.0
H452 H 0.03491 0.30894 0.48094 0.0
C453 C 0.12756 0.37226 0.44854 0.0
C454 C 0.07792 0.3826 0.48468 0.0
C455 C 0.1542 0.38437 0.44452 0.0
C456 C 0.9714 0.33597 0.5147 0.0
C457 C 0.99436 0.3444 0.49887 0.0
C458 C 0.04663 0.32955 0.48199 0.0
C459 C 0.11699 0.37963 0.47216 0.0
C460 C 0.08876 0.36752 0.47657 0.0
C461 C 0.00933 0.3327 0.50335 0.0
C462 C 0.03605 0.3446 0.49143 0.0
H463 H 0.17208 0.42564 0.504 0.0
H464 H 0.12629 0.40467 0.51085 0.0
H465 H 0.08036 0.3287 0.46842 0.0
H466 H 0.97073 0.28723 0.55412 0.0
H467 H 0.01069 0.30176 0.52666 0.0
C468 C 0.71204 0.66827 0.51625 0.0
C469 C 0.69479 0.64829 0.53499 0.0
C470 C 0.70384 0.68249 0.49922 0.0
C471 C 0.645 0.68362 0.47421 0.0
H472 H 0.68928 0.75717 0.47661 0.0
C473 C 0.60932 0.74926 0.42843 0.0
C474 C 0.61563 0.77154 0.44481 0.0
C475 C 0.62182 0.73543 0.43396 0.0
C476 C 0.67657 0.73668 0.47587 0.0
H477 H 0.65527 0.62648 0.54915 0.0
H478 H 0.641 0.65102 0.51992 0.0
H479 H 0.70482 0.72943 0.49535 0.0
H480 H 0.64061 0.79735 0.47919 0.0
H481 H 0.66183 0.77271 0.48989 0.0
H482 H 0.61619 0.69065 0.45668 0.0
C483 C 0.66078 0.65583 0.51788 0.0
C484 C 0.68566 0.7207 0.48619 0.0
C485 C 0.66895 0.64171 0.53478 0.0
C486 C 0.63546 0.78032 0.46608 0.0
C487 C 0.64767 0.76616 0.47211 0.0
C488 C 0.63584 0.69954 0.46423 0.0
C489 C 0.67822 0.67693 0.50055 0.0
C490 C 0.66983 0.69392 0.48603 0.0
C491 C 0.6406 0.74315 0.4566 0.0
C492 C 0.65133 0.72635 0.46526 0.0
H493 H 0.73212 0.67392 0.51624 0.0
H494 H 0.71774 0.69832 0.48576 0.0
H495 H 0.63232 0.66314 0.47322 0.0
H496 H 0.59433 0.74222 0.41158 0.0
H497 H 0.61632 0.71836 0.4208 0.0
C498 C 0.27222 0.85298 0.45074 0.0
C499 C 0.24534 0.83841 0.45065 0.0
C500 C 0.28486 0.87917 0.45686 0.0
C501 C 0.27623 0.92987 0.49276 0.0
H502 H 0.34083 0.97434 0.45308 0.0
C503 C 0.33613 0.03709 0.52346 0.0
C504 C 0.36175 0.04513 0.53039 0.0
C505 C 0.32099 0.01394 0.50825 0.0
C506 C 0.32283 0.9622 0.46438 0.0
H507 H 0.21073 0.84034 0.45697 0.0
H508 H 0.23287 0.88635 0.46733 0.0
H509 H 0.31554 0.92976 0.43762 0.0
H510 H 0.3919 0.03591 0.52599 0.0
H511 H 0.36587 0.99597 0.49865 0.0
H512 H 0.28375 0.96238 0.51972 0.0
C513 C 0.24416 0.8773 0.46293 0.0
C514 C 0.30832 0.93655 0.45562 0.0
C515 C 0.23143 0.8509 0.45684 0.0
C516 C 0.37239 0.03045 0.5202 0.0
C517 C 0.35738 0.00748 0.50472 0.0
C518 C 0.29068 0.95561 0.50138 0.0
C519 C 0.2711 0.89182 0.46298 0.0
C520 C 0.2851 0.91982 0.47016 0.0
C521 C 0.33123 0.99843 0.49953 0.0
C522 C 0.31443 0.97199 0.48773 0.0
H523 H 0.28371 0.84414 0.44635 0.0
H524 H 0.30555 0.88941 0.45737 0.0
H525 H 0.25863 0.91763 0.50473 0.0
H526 H 0.32732 0.04776 0.53174 0.0
H527 H 0.301 0.00767 0.50438 0.0
C528 C 0.62983 0.86584 0.93067 0.0
C529 C 0.62716 0.84937 0.95461 0.0
C530 C 0.64093 0.89226 0.93544 0.0
C531 C 0.68175 0.94439 0.98867 0.0
H532 H 0.64554 0.97773 0.9582 0.0
C533 C 0.7152 0.04929 0.01898 0.0
C534 C 0.69567 0.05286 0.03098 0.0
C535 C 0.70921 0.02697 0.00287 0.0
C536 C 0.65598 0.96876 0.96673 0.0
H537 H 0.63489 0.848 0.00216 0.0
H538 H 0.65433 0.89385 0.01036 0.0
H539 H 0.63116 0.93338 0.94434 0.0
H540 H 0.65472 0.03682 0.03402 0.0
H541 H 0.64419 0.99824 0.00547 0.0
H542 H 0.70599 0.97937 0.01196 0.0
C543 C 0.64791 0.88643 0.98786 0.0
C544 C 0.64785 0.94338 0.9586 0.0
C545 C 0.63661 0.86006 0.98317 0.0
C546 C 0.67012 0.03469 0.02461 0.0
C547 C 0.66413 0.01254 0.0083 0.0
C548 C 0.69 0.9698 0.99661 0.0
C549 C 0.64991 0.90286 0.96418 0.0
C550 C 0.66028 0.93069 0.97003 0.0
C551 C 0.68356 0.00789 -0.00172 0.0
C552 C 0.67689 0.98216 0.98628 0.0
H553 H 0.62271 0.85827 0.90839 0.0
H554 H 0.64235 0.90438 0.91666 0.0
H555 H 0.69194 0.93531 0.99762 0.0
H556 H 0.73503 0.06281 0.024 0.0
H557 H 0.72464 0.02414 0.99516 0.0
C558 C 0.17606 0.77555 0.98364 0.0
C559 C 0.18644 0.77554 0.95522 0.0
C560 C 0.14964 0.76157 0.98857 0.0
C561 C 0.09082 0.70576 0.96045 0.0
H562 H 0.05742 0.73212 0.0121 0.0
C563 C 0.99625 0.64153 0.02387 0.0
C564 C 0.97905 0.65047 0.02892 0.0
C565 C 0.01944 0.65674 0.00892 0.0
C566 C 0.06628 0.72454 0.99726 0.0
H567 H 0.17692 0.76096 0.90954 0.0
H568 H 0.13074 0.73642 0.91823 0.0
H569 H 0.10208 0.75967 0.99795 0.0
H570 H 0.97216 0.6819 0.02101 0.0
H571 H 0.01273 0.70857 0.99461 0.0
H572 H 0.05511 0.67047 0.96022 0.0
C573 C 0.14314 0.74725 0.93673 0.0
C574 C 0.09203 0.74027 0.98944 0.0
C575 C 0.16962 0.76145 0.9317 0.0
C576 C 0.98491 0.6744 0.01713 0.0
C577 C 1.00829 0.68978 0.00238 0.0
C578 C 0.0651 0.68996 0.96845 0.0
C579 C 0.13281 0.74701 0.9653 0.0
C580 C 0.10478 0.73097 0.97135 0.0
C581 C 0.02618 0.68143 -0.00113 0.0
C582 C 0.05259 0.699 0.98737 0.0
H583 H 0.18838 0.78614 0.00231 0.0
H584 H 0.14246 0.76161 0.01096 0.0
H585 H 0.10002 0.69789 0.94663 0.0
H586 H 0.99229 0.62323 0.03289 0.0
H587 H 0.03274 0.64971 0.00689 0.0
C588 C 0.31986 0.2873 0.02726 0.0
C589 C 0.34585 0.30359 0.03375 0.0
C590 C 0.30579 0.2966 0.01204 0.0
C591 C 0.31094 0.35155 0.96785 0.0
H592 H 0.24832 0.3362 0.00942 0.0
C593 C 0.26518 0.41499 0.95439 0.0
C594 C 0.23842 0.40392 0.95531 0.0
C595 C 0.27683 0.4004 0.96023 0.0
C596 C 0.26547 0.34038 0.9971 0.0
H597 H 0.37775 0.34194 0.02856 0.0
H598 H 0.35352 0.35808 0.00127 0.0
H599 H 0.27137 0.31432 0.02408 0.0
H600 H 0.20293 0.36854 0.96285 0.0
H601 H 0.22326 0.34286 0.97261 0.0
H602 H 0.30525 0.3778 0.94106 0.0
C603 C 0.34393 0.3381 0.00765 0.0
C604 C 0.27873 0.32778 0.00553 0.0
C605 C 0.3579 0.32885 0.02311 0.0
C606 C 0.22358 0.37772 0.96202 0.0
C607 C 0.23528 0.36302 0.96776 0.0
C608 C 0.2976 0.36401 0.95926 0.0
C609 C 0.31747 0.32237 0.00294 0.0
C610 C 0.3019 0.33355 0.99141 0.0
C611 C 0.26211 0.37419 0.96702 0.0
C612 C 0.27495 0.35903 0.9742 0.0
H613 H 0.31003 0.26792 0.03589 0.0
H614 H 0.28552 0.28391 0.00853 0.0
H615 H 0.32853 0.35622 0.95622 0.0
H616 H 0.27732 0.43514 0.94951 0.0
H617 H 0.2975 0.40991 0.96004 0.0
C618 C 0.84423 0.61422 0.50517 0.0
C619 C 0.83466 0.60514 0.53426 0.0
C620 C 0.87054 0.62653 0.49937 0.0
C621 C 0.93016 0.63116 0.52767 0.0
H622 H 0.96261 0.68896 0.4731 0.0
C623 C 0.02493 0.66064 0.46525 0.0
C624 C 0.0419 0.68667 0.45955 0.0
C625 C 1.00159 0.65278 0.47976 0.0
C626 C 0.95398 0.67306 0.48872 0.0
H627 H 0.8455 0.60238 0.58017 0.0
H628 H 0.89133 0.6238 0.56999 0.0
H629 H 0.91789 0.67185 0.48719 0.0
H630 H 0.04827 0.72497 0.46577 0.0
H631 H 1.00739 0.71127 0.49139 0.0
H632 H 0.96614 0.63211 0.52882 0.0
C633 C 0.87844 0.62124 0.55163 0.0
C634 C 0.92822 0.66304 0.49651 0.0
C635 C 0.85214 0.60908 0.55748 0.0
C636 C 0.03567 0.70481 0.4702 0.0
C637 C 0.01214 0.69692 0.48449 0.0
C638 C 0.95587 0.64106 0.51971 0.0
C639 C 0.88798 0.62996 0.52244 0.0
C640 C 0.91587 0.64175 0.51577 0.0
C641 C 0.9945 0.67074 0.48868 0.0
C642 C 0.96802 0.66192 0.49981 0.0
H643 H 0.83137 0.61152 0.4867 0.0
H644 H 0.87716 0.63273 0.47655 0.0
H645 H 0.92125 0.61465 0.54239 0.0
H646 H 0.02919 0.64626 0.45706 0.0
H647 H 0.98846 0.63248 0.48236 0.0
C648 C 0.40628 0.23754 0.50396 0.0
C649 C 0.40847 0.23055 0.53363 0.0
C650 C 0.39436 0.25191 0.49811 0.0
C651 C 0.35064 0.27275 0.52989 0.0
H652 H 0.38367 0.32685 0.47067 0.0
C653 C 0.30366 0.32776 0.47571 0.0
C654 C 0.31992 0.35326 0.467 0.0
C655 C 0.31374 0.31342 0.48872 0.0
C656 C 0.37428 0.31207 0.48757 0.0
H657 H 0.39903 0.23277 0.58035 0.0
H658 H 0.37825 0.25792 0.57007 0.0
H659 H 0.40216 0.30029 0.48286 0.0
H660 H 0.35908 0.38425 0.46678 0.0
H661 H 0.37657 0.35974 0.4904 0.0
H662 H 0.32276 0.28478 0.53456 0.0
C663 C 0.38569 0.25213 0.55131 0.0
C664 C 0.38474 0.29652 0.49424 0.0
C665 C 0.39771 0.23776 0.55721 0.0
C666 C 0.34611 0.36469 0.47355 0.0
C667 C 0.35614 0.35048 0.48665 0.0
C668 C 0.34006 0.2883 0.52308 0.0
C669 C 0.38423 0.25976 0.52171 0.0
C670 C 0.37302 0.27652 0.51533 0.0
C671 C 0.34029 0.32433 0.4932 0.0
C672 C 0.35176 0.30819 0.50178 0.0
H673 H 0.41415 0.23227 0.48515 0.0
H674 H 0.39318 0.25698 0.47496 0.0
H675 H 0.34101 0.25746 0.54614 0.0
H676 H 0.28348 0.31836 0.47034 0.0
H677 H 0.30093 0.29335 0.49333 0.0
C678 C 0.65203 0.99083 0.46832 0.0
C679 C 0.66155 0.97416 0.46301 0.0
C680 C 0.66694 0.0141 0.48314 0.0
C681 C 0.69979 0.05961 0.5239 0.0
H682 H 0.76862 0.09872 0.49198 0.0
C683 C 0.76967 0.16358 0.56202 0.0
C684 C 0.78263 0.18119 0.53869 0.0
C685 C 0.75619 0.13726 0.5562 0.0
C686 C 0.74947 0.08805 0.50115 0.0
H687 H 0.69367 0.96822 0.47022 0.0
H688 H 0.71987 0.00901 0.49631 0.0
H689 H 0.74184 0.05394 0.47767 0.0
H690 H 0.79208 0.18478 0.49106 0.0
H691 H 0.7687 0.13893 0.48099 0.0
H692 H 0.70716 0.09394 0.54666 0.0
C693 C 0.70085 1.00406 0.4889 0.0
C694 C 0.73421 0.06228 0.49324 0.0
C695 C 0.68576 0.98059 0.47433 0.0
C696 C 0.78234 0.17179 0.50958 0.0
C697 C 0.76903 0.14547 0.50382 0.0
C698 C 0.71513 0.08532 0.53202 0.0
C699 C 0.69187 0.02141 0.49272 0.0
C700 C 0.70902 0.04785 0.50409 0.0
C701 C 0.75552 0.12788 0.52698 0.0
C702 C 0.74 0.09999 0.52031 0.0
H703 H 0.63348 0.98638 0.45964 0.0
H704 H 0.65948 0.02703 0.48547 0.0
H705 H 0.68053 0.04901 0.53279 0.0
H706 H 0.76949 0.17011 0.58471 0.0
H707 H 0.74621 0.12423 0.5746 0.0
C708 C 0.38326 0.31899 0.1627 0.0
C709 C 0.36293 0.30599 0.14241 0.0
C710 C 0.37958 0.32905 0.18959 0.0
C711 C 0.33593 0.34935 0.22261 0.0
H712 H 0.36563 0.34648 0.29893 0.0
C713 C 0.30197 0.36656 0.33789 0.0
C714 C 0.32015 0.37813 0.36095 0.0
C715 C 0.30905 0.36114 0.30995 0.0
C716 C 0.35751 0.34782 0.27769 0.0
H717 H 0.32256 0.29181 0.13511 0.0
H718 H 0.31604 0.30877 0.18192 0.0
H719 H 0.37448 0.32917 0.25369 0.0
H720 H 0.36034 0.39499 0.37199 0.0
H721 H 0.37273 0.38579 0.32322 0.0
H722 H 0.31864 0.36761 0.24665 0.0
C723 C 0.33499 0.31203 0.17687 0.0
C724 C 0.36258 0.33785 0.25176 0.0
C725 C 0.33867 0.30212 0.15015 0.0
C726 C 0.34584 0.38575 0.35477 0.0
C727 C 0.35291 0.38032 0.32691 0.0
C728 C 0.33084 0.35927 0.24852 0.0
C729 C 0.35549 0.32618 0.1966 0.0
C730 C 0.35153 0.33814 0.22397 0.0
C731 C 0.33446 0.3672 0.30451 0.0
C732 C 0.34132 0.35837 0.27646 0.0
H733 H 0.40215 0.32228 0.15718 0.0
H734 H 0.39579 0.33985 0.20431 0.0
H735 H 0.32756 0.35043 0.20145 0.0
H736 H 0.282 0.36021 0.34205 0.0
H737 H 0.29432 0.35091 0.29326 0.0
C738 C 0.69919 0.04637 0.14689 0.0
C739 C 0.69346 0.06573 0.14023 0.0
C740 C 0.69063 0.03234 0.17355 0.0
C741 C 0.66558 0.03146 0.24993 0.0
H742 H 0.64055 0.95862 0.24359 0.0
C743 C 0.6233 0.96518 0.35292 0.0
C744 C 0.63264 0.94831 0.35811 0.0
C745 C 0.62736 0.97774 0.32524 0.0
C746 C 0.6476 0.97892 0.2458 0.0
H747 H 0.67522 0.08638 0.15688 0.0
H748 H 0.66001 0.06167 0.20392 0.0
H749 H 0.65523 0.98528 0.19853 0.0
H750 H 0.65219 0.93024 0.33765 0.0
H751 H 0.65913 0.95199 0.28916 0.0
H752 H 0.65815 0.0251 0.29729 0.0
C753 C 0.67123 0.05741 0.18838 0.0
C754 C 0.65608 0.99427 0.21997 0.0
C755 C 0.67994 0.07159 0.16154 0.0
C756 C 0.64453 0.9429 0.33425 0.0
C757 C 0.6486 0.95549 0.30649 0.0
C758 C 0.65704 0.01609 0.27579 0.0
C759 C 0.676 0.0372 0.19435 0.0
C760 C 0.66555 0.0208 0.22174 0.0
C761 C 0.64082 0.97372 0.30201 0.0
C762 C 0.64821 0.98966 0.27411 0.0
H763 H 0.70995 0.04172 0.13106 0.0
H764 H 0.69533 0.01749 0.17774 0.0
H765 H 0.67295 0.05182 0.2522 0.0
H766 H 0.61382 0.96952 0.3708 0.0
H767 H 0.62058 0.99118 0.32234 0.0
C768 C 0.94789 0.63358 0.15823 0.0
C769 C 0.95439 0.62249 0.13446 0.0
C770 C 0.96038 0.63822 0.1861 0.0
C771 C 1.00362 0.62413 0.2323 0.0
H772 H 0.02438 0.69076 0.26658 0.0
C773 C 0.05013 0.65579 0.35022 0.0
C774 C 0.0678 0.6818 0.35511 0.0
C775 C 0.03784 0.6474 0.32241 0.0
C776 C 0.01906 0.67222 0.25713 0.0
H777 H 0.97762 0.60578 0.12204 0.0
H778 H 0.99955 0.6141 0.17032 0.0
H779 H 0.99784 0.67696 0.22159 0.0
H780 H 0.08769 0.7191 0.33396 0.0
H781 H 0.06679 0.70436 0.28501 0.0
H782 H 0.02541 0.6197 0.2675 0.0
C783 C 0.98483 0.61921 0.16764 0.0
C784 C 1.00339 0.66408 0.23159 0.0
C785 C 0.97235 0.61455 0.13985 0.0
C786 C 0.07427 0.69893 0.33087 0.0
C787 C 0.06197 0.69053 0.30297 0.0
C788 C 0.01935 0.6323 0.25785 0.0
C789 C 0.97962 0.63187 0.19081 0.0
C790 C 0.99541 0.63992 0.21884 0.0
C791 C 0.04297 0.6648 0.29871 0.0
C792 C 0.02728 0.65646 0.27062 0.0
H793 H 0.93426 0.64004 0.15477 0.0
H794 H 0.95549 0.64751 0.20366 0.0
H795 H 0.99777 0.60535 0.22322 0.0
H796 H 0.04488 0.64209 0.36843 0.0
H797 H 0.02331 0.62749 0.32009 0.0
C798 C 0.69021 0.61955 0.66561 0.0
C799 C 0.70354 0.6387 0.644 0.0
C800 C 0.68214 0.62543 0.69269 0.0
C801 C 0.66672 0.67337 0.72284 0.0
H802 H 0.6689 0.64609 0.80117 0.0
C803 C 0.65159 0.71362 0.83467 0.0
C804 C 0.64008 0.69673 0.85894 0.0
C805 C 0.65664 0.70498 0.8076 0.0
C806 C 0.66775 0.65357 0.77939 0.0
H807 H 0.72054 0.67914 0.6345 0.0
H808 H 0.70702 0.68947 0.68162 0.0
H809 H 0.68446 0.63396 0.75686 0.0
H810 H 0.62309 0.6572 0.87312 0.0
H811 H 0.63138 0.64202 0.82577 0.0
H812 H 0.65016 0.69306 0.74523 0.0
C813 C 0.70207 0.66984 0.67754 0.0
C814 C 0.67676 0.64665 0.754 0.0
C815 C 0.71003 0.66398 0.65068 0.0
C816 C 0.63221 0.67072 0.85488 0.0
C817 C 0.63718 0.66207 0.82784 0.0
C818 C 0.65768 0.68024 0.74816 0.0
C819 C 0.68732 0.65055 0.69848 0.0
C820 C 0.67669 0.65676 0.72547 0.0
C821 C 0.65019 0.67923 0.80418 0.0
C822 C 0.65831 0.67066 0.77685 0.0
H823 H 0.68488 0.5999 0.66089 0.0
H824 H 0.67086 0.61014 0.70839 0.0
H825 H 0.66584 0.68108 0.70109 0.0
H826 H 0.65815 0.73381 0.83725 0.0
H827 H 0.66682 0.7188 0.78996 0.0
C828 C 0.35422 0.03696 0.64532 0.0
C829 C 0.37806 0.05873 0.63928 0.0
C830 C 0.34985 0.02347 0.67225 0.0
C831 C 0.37083 0.02815 0.75067 0.0
H832 H 0.33412 0.95402 0.746 0.0
C833 C 0.32131 0.96555 0.85381 0.0
C834 C 0.32423 0.9442 0.8595 0.0
C835 C 0.32956 0.97898 0.82674 0.0
C836 C 0.34461 0.97467 0.74769 0.0
H837 H 0.4156 0.08415 0.65769 0.0
H838 H 0.40777 0.06064 0.70549 0.0
H839 H 0.34628 0.97942 0.69969 0.0
H840 H 0.33685 0.91938 0.84031 0.0
H841 H 0.351 0.94279 0.79223 0.0
H842 H 0.36884 0.02341 0.79867 0.0
C843 C 0.3926 0.05393 0.68893 0.0
C844 C 0.35139 0.98925 0.72118 0.0
C845 C 0.39706 0.06746 0.66167 0.0
C846 C 0.3344 0.93576 0.83661 0.0
C847 C 0.34257 0.94923 0.80919 0.0
C848 C 0.36388 0.01358 0.77718 0.0
C849 C 0.36909 0.03144 0.69419 0.0
C850 C 0.36416 0.01616 0.72236 0.0
C851 C 0.34075 0.97136 0.80429 0.0
C852 C 0.35026 0.98666 0.77602 0.0
H853 H 0.33891 0.03008 0.62891 0.0
H854 H 0.33129 0.00671 0.6759 0.0
H855 H 0.3806 0.0488 0.75239 0.0
H856 H 0.31291 0.97217 0.87063 0.0
H857 H 0.32715 0.99543 0.82338 0.0
C858 C 0.96633 0.35308 0.64445 0.0
C859 C 0.94625 0.32777 0.64095 0.0
C860 C 0.97974 0.3612 0.67167 0.0
C861 C 0.978 0.34342 0.75245 0.0
H862 H 0.0519 0.38389 0.74625 0.0
C863 C 0.04174 0.35231 0.85217 0.0
C864 C 0.06156 0.37685 0.85986 0.0
C865 C 0.02894 0.34797 0.82476 0.0
C866 C 0.03129 0.37284 0.74837 0.0
H867 H 0.92389 0.29145 0.6637 0.0
H868 H 0.94721 0.30552 0.71118 0.0
H869 H 0.02572 0.37368 0.70077 0.0
H870 H 0.08455 0.41582 0.84424 0.0
H871 H 0.06213 0.40819 0.79564 0.0
H872 H 0.98359 0.34213 0.79992 0.0
C873 C 0.95249 0.31925 0.69302 0.0
C874 C 0.01623 0.36703 0.72233 0.0
C875 C 0.93902 0.31116 0.6658 0.0
C876 C 0.0694 0.39672 0.83873 0.0
C877 C 0.05651 0.39234 0.81105 0.0
C878 C 0.99303 0.34911 0.77838 0.0
C879 C 0.97344 0.3442 0.69607 0.0
C880 C 0.98938 0.35195 0.72399 0.0
C881 C 0.03559 0.36806 0.80425 0.0
C882 C 0.01986 0.36355 0.77663 0.0
H883 H 0.97219 0.3664 0.62576 0.0
H884 H 0.99536 0.3807 0.67338 0.0
H885 H 0.95742 0.33223 0.75473 0.0
H886 H 0.03551 0.3366 0.86796 0.0
H887 H 0.01338 0.32892 0.8199 0.0
C888 C 0.53869 0.24597 0.0337 0.0
C889 C 0.5156 0.23299 0.0497 0.0
C890 C 0.55817 0.24026 0.03836 0.0
C891 C 0.58142 0.20698 0.08923 0.0
H892 H 0.61773 0.20743 0.01688 0.0
C893 C 0.67449 0.20028 0.09093 0.0
C894 C 0.67939 0.18875 0.06621 0.0
C895 C 0.65291 0.20332 0.09118 0.0
C896 C 0.60763 0.2068 0.03734 0.0
H897 H 0.49504 0.20438 0.08395 0.0
H898 H 0.52899 0.19382 0.09173 0.0
H899 H 0.58369 0.21745 0.01344 0.0
H900 H 0.66455 0.16981 0.02338 0.0
H901 H 0.62663 0.1742 0.02428 0.0
H902 H 0.60513 0.1956 0.11294 0.0
C903 C 0.53219 0.20874 0.07581 0.0
C904 C 0.58829 0.21304 0.03543 0.0
C905 C 0.5127 0.21471 0.07134 0.0
C906 C 0.6615 0.17904 0.04262 0.0
C907 C 0.63983 0.18178 0.04303 0.0
C908 C 0.60078 0.20056 0.09113 0.0
C909 C 0.55499 0.22108 0.05887 0.0
C910 C 0.57507 0.21353 0.06135 0.0
C911 C 0.6356 0.19468 0.06685 0.0
C912 C 0.61424 0.20049 0.06518 0.0
H913 H 0.5416 0.26038 0.01712 0.0
H914 H 0.57568 0.25075 0.02553 0.0
H915 H 0.57177 0.20724 0.10971 0.0
H916 H 0.68796 0.20809 0.10941 0.0
H917 H 0.65047 0.21349 0.10983 0.0
C918 C 0.75722 0.30319 0.01913 0.0
C919 C 0.7638 0.29048 0.04078 0.0
C920 C 0.76258 0.32826 0.02393 0.0
C921 C 0.80463 0.38735 0.06568 0.0
H922 H 0.75435 0.40583 0.04098 0.0
C923 C 0.82033 0.49094 0.07693 0.0
C924 C 0.81205 0.49964 0.05227 0.0
C925 C 0.81446 0.46531 0.07858 0.0
C926 C 0.76872 0.40109 0.04779 0.0
H927 H 0.78126 0.29409 0.08451 0.0
H928 H 0.79085 0.33829 0.09296 0.0
H929 H 0.74383 0.36135 0.03875 0.0
H930 H 0.79131 0.48808 0.00988 0.0
H931 H 0.78145 0.44397 0.01263 0.0
H932 H 0.8297 0.42733 0.07417 0.0
C933 C 0.78152 0.32874 0.07221 0.0
C934 C 0.76265 0.37553 0.04655 0.0
C935 C 0.77591 0.30342 0.06747 0.0
C936 C 0.79801 0.48217 0.02927 0.0
C937 C 0.79213 0.4567 0.03096 0.0
C938 C 0.81076 0.41305 0.06686 0.0
C939 C 0.77482 0.34143 0.05048 0.0
C940 C 0.78067 0.36835 0.05486 0.0
C941 C 0.80004 0.4478 0.05572 0.0
C942 C 0.79305 0.42032 0.05728 0.0
H943 H 0.74796 0.29378 -0.00172 0.0
H944 H 0.75752 0.33752 0.0065 0.0
H945 H 0.81901 0.38251 0.07211 0.0
H946 H 0.83112 0.50385 0.09507 0.0
H947 H 0.82077 0.4591 0.09805 0.0
C948 C 0.69606 0.46084 0.07608 0.0
C949 C 0.70571 0.46893 0.04682 0.0
C950 C 0.6706 0.44149 0.08036 0.0
C951 C 0.6084 0.41321 0.04202 0.0
H952 H 0.58691 0.35658 0.0977 0.0
C953 C 0.50764 0.32528 0.03734 0.0
C954 C 0.4956 0.31261 0.0642 0.0
C955 C 0.5329 0.34536 0.03754 0.0
C956 C 0.59252 0.37251 0.08242 0.0
H957 H 0.69677 0.46244 -0.00083 0.0
H958 H 0.65262 0.42882 0.00659 0.0
H959 H 0.63222 0.38889 0.09387 0.0
H960 H 0.50053 0.3117 0.11256 0.0
H961 H 0.54459 0.34723 0.11299 0.0
H962 H 0.56896 0.39717 0.03056 0.0
C963 C 0.66447 0.43757 0.02625 0.0
C964 C 0.61851 0.39096 0.08017 0.0
C965 C 0.68983 0.45671 0.022 0.0
C966 C 0.50923 0.32106 0.09146 0.0
C967 C 0.53457 0.34127 0.09166 0.0
C968 C 0.5825 0.39495 0.04441 0.0
C969 C 0.65438 0.43011 0.05545 0.0
C970 C 0.62676 0.41124 0.05951 0.0
C971 C 0.54684 0.35349 0.06463 0.0
C972 C 0.57422 0.37408 0.06421 0.0
H973 H 0.70791 0.46998 0.09561 0.0
H974 H 0.66335 0.43614 0.10313 0.0
H975 H 0.61408 0.42893 0.02638 0.0
H976 H 0.49783 0.31923 0.01589 0.0
H977 H 0.54175 0.35397 0.0162 0.0
C978 C 0.19751 0.68033 0.41851 0.0
C979 C 0.20646 0.69875 0.44161 0.0
C980 C 0.20321 0.66041 0.41881 0.0
C981 C 0.22357 0.62593 0.47157 0.0
H982 H 0.23917 0.60078 0.39878 0.0
C983 C 0.2616 0.55567 0.4778 0.0
C984 C 0.25063 0.53459 0.45823 0.0
C985 C 0.25721 0.57616 0.47371 0.0
C986 C 0.23466 0.60746 0.41929 0.0
H987 H 0.22908 0.71102 0.48262 0.0
H988 H 0.23936 0.677 0.48276 0.0
H989 H 0.22916 0.63534 0.39551 0.0
H990 H 0.22731 0.51885 0.41827 0.0
H991 H 0.21959 0.5547 0.41105 0.0
H992 H 0.22911 0.59826 0.49539 0.0
C993 C 0.2274 0.67737 0.46479 0.0
C994 C 0.22886 0.62725 0.41741 0.0
C995 C 0.22161 0.69707 0.46459 0.0
C996 C 0.23603 0.53488 0.4337 0.0
C997 C 0.23166 0.55545 0.42954 0.0
C998 C 0.22945 0.60631 0.47344 0.0
C999 C 0.21804 0.65853 0.44217 0.0
C1000 C 0.22344 0.6369 0.4436 0.0
C1001 C 0.24174 0.5761 0.44991 0.0
C1002 C 0.23528 0.59692 0.4474 0.0
H1003 H 0.18583 0.68108 0.40046 0.0
H1004 H 0.19553 0.64618 0.4011 0.0
H1005 H 0.21889 0.63234 0.49217 0.0
H1006 H 0.27307 0.55607 0.49681 0.0
H1007 H 0.26571 0.59195 0.48948 0.0
C1008 C 0.46507 0.69917 0.42077 0.0
C1009 C 0.47512 0.70789 0.44971 0.0
C1010 C 0.44292 0.67531 0.41702 0.0
C1011 C 0.38683 0.62473 0.45831 0.0
H1012 H 0.38882 0.57906 0.39826 0.0
C1013 C 0.3198 0.5158 0.46388 0.0
C1014 C 0.31031 0.50195 0.43695 0.0
C1015 C 0.33793 0.54184 0.46327 0.0
C1016 C 0.3877 0.59166 0.4148 0.0
H1017 H 0.46951 0.69901 0.49742 0.0
H1018 H 0.43095 0.65763 0.49098 0.0
H1019 H 0.42363 0.62328 0.40086 0.0
H1020 H 0.31232 0.50474 0.38817 0.0
H1021 H 0.34398 0.55036 0.38706 0.0
H1022 H 0.35111 0.59312 0.47254 0.0
C1023 C 0.43999 0.66911 0.47114 0.0
C1024 C 0.40769 0.61705 0.41629 0.0
C1025 C 0.46218 0.69278 0.47483 0.0
C1026 C 0.31929 0.51483 0.40933 0.0
C1027 C 0.33752 0.54096 0.4087 0.0
C1028 C 0.36683 0.59942 0.45675 0.0
C1029 C 0.43027 0.65988 0.44217 0.0
C1030 C 0.40775 0.63375 0.43846 0.0
C1031 C 0.34713 0.55479 0.4357 0.0
C1032 C 0.36724 0.58238 0.43539 0.0
H1033 H 0.47468 0.71046 0.40101 0.0
H1034 H 0.43578 0.66886 0.39443 0.0
H1035 H 0.38605 0.63721 0.4753 0.0
H1036 H 0.31338 0.50649 0.48558 0.0
H1037 H 0.34517 0.55169 0.48451 0.0
C1038 C 0.49546 0.79199 0.45238 0.0
C1039 C 0.51309 0.80599 0.42952 0.0
C1040 C 0.46956 0.78388 0.44898 0.0
C1041 C 0.42538 0.79864 0.40822 0.0
H1042 H 0.37439 0.73401 0.44277 0.0
C1043 C 0.31774 0.76762 0.41076 0.0
C1044 C 0.3065 0.7599 0.4394 0.0
C1045 C 0.34169 0.7701 0.40486 0.0
C1046 C 0.38839 0.75211 0.433 0.0
H1047 H 0.51719 0.82222 0.38486 0.0
H1048 H 0.47164 0.80799 0.37883 0.0
H1049 H 0.41893 0.74442 0.44045 0.0
H1050 H 0.31076 0.7476 0.48385 0.0
H1051 H 0.3523 0.75159 0.47352 0.0
H1052 H 0.3948 0.80645 0.40127 0.0
C1053 C 0.47803 0.80345 0.39954 0.0
C1054 C 0.41394 0.75812 0.43173 0.0
C1055 C 0.5041 0.81153 0.40293 0.0
C1056 C 0.319 0.75357 0.46156 0.0
C1057 C 0.34275 0.75576 0.45558 0.0
C1058 C 0.39976 0.79255 0.40934 0.0
C1059 C 0.46045 0.78955 0.4226 0.0
C1060 C 0.43288 0.78178 0.4201 0.0
C1061 C 0.35463 0.76457 0.42738 0.0
C1062 C 0.3811 0.76949 0.42246 0.0
H1063 H 0.50162 0.78731 0.47316 0.0
H1064 H 0.45674 0.77366 0.46746 0.0
H1065 H 0.43946 0.8171 0.39935 0.0
H1066 H 0.3085 0.77266 0.39328 0.0
H1067 H 0.35026 0.77672 0.38284 0.0
C1068 C 0.35033 0.82287 0.96523 0.0
C1069 C 0.33622 0.81939 0.93867 0.0
C1070 C 0.37302 0.82194 0.96471 0.0
C1071 C 0.4076 0.79671 0.92024 0.0
H1072 H 0.46337 0.84002 0.97377 0.0
C1073 C 0.50222 0.7926 0.92811 0.0
C1074 C 0.51066 0.79251 0.95763 0.0
C1075 C 0.48226 0.79777 0.92291 0.0
C1076 C 0.44793 0.82769 0.95877 0.0
H1077 H 0.33539 0.81271 0.89051 0.0
H1078 H 0.37524 0.81139 0.88956 0.0
H1079 H 0.42652 0.8461 0.96976 0.0
H1080 H 0.50497 0.79789 0.00474 0.0
H1081 H 0.47051 0.80693 0.99577 0.0
H1082 H 0.42908 0.77815 0.90955 0.0
C1083 C 0.36851 0.81453 0.9109 0.0
C1084 C 0.42674 0.83115 0.9565 0.0
C1085 C 0.34574 0.81549 0.91141 0.0
C1086 C 0.49897 0.7979 0.98172 0.0
C1087 C 0.47929 0.80325 0.97655 0.0
C1088 C 0.42891 0.79331 0.92245 0.0
C1089 C 0.38237 0.81755 0.93761 0.0
C1090 C 0.406 0.81537 0.9377 0.0
C1091 C 0.47059 0.80322 0.94712 0.0
C1092 C 0.44911 0.80841 0.94224 0.0
H1093 H 0.3436 0.8258 0.9867 0.0
H1094 H 0.38286 0.82396 0.98584 0.0
H1095 H 0.39194 0.78404 0.90572 0.0
H1096 H 0.51086 0.78845 0.90912 0.0
H1097 H 0.47609 0.7977 0.89995 0.0
C1098 C 0.2418 0.70199 0.98764 0.0
C1099 C 0.24285 0.71712 0.96301 0.0
C1100 C 0.23467 0.67633 0.98367 0.0
C1101 C 0.2292 0.6289 0.9268 0.0
H1102 H 0.18809 0.58086 0.98926 0.0
C1103 C 0.19651 0.51996 0.92225 0.0
C1104 C 0.20013 0.50987 0.94922 0.0
C1105 C 0.19931 0.54452 0.92165 0.0
C1106 C 0.19967 0.59402 0.97165 0.0
H1107 H 0.23741 0.71725 0.91475 0.0
H1108 H 0.22472 0.67207 0.9077 0.0
H1109 H 0.19757 0.62501 0.99208 0.0
H1110 H 0.20909 0.51765 0.99681 0.0
H1111 H 0.21372 0.55997 0.99579 0.0
H1112 H 0.23139 0.5977 0.90659 0.0
C1113 C 0.22961 0.6802 0.93013 0.0
C1114 C 0.20517 0.6194 0.9733 0.0
C1115 C 0.23677 0.70603 0.93415 0.0
C1116 C 0.20609 0.52469 0.97562 0.0
C1117 C 0.20863 0.549 0.97508 0.0
C1118 C 0.22359 0.60337 0.9251 0.0
C1119 C 0.2283 0.66495 0.95493 0.0
C1120 C 0.22051 0.63737 0.9513 0.0
C1121 C 0.20546 0.55935 0.9481 0.0
C1122 C 0.20922 0.58576 0.94789 0.0
H1123 H 0.24651 0.71 0.01015 0.0
H1124 H 0.23445 0.66545 0.00322 0.0
H1125 H 0.24117 0.64219 0.90954 0.0
H1126 H 0.19205 0.50912 0.90147 0.0
H1127 H 0.19661 0.55187 0.90053 0.0
C1128 C 0.32728 0.55052 0.9824 0.0
C1129 C 0.31072 0.54016 0.95766 0.0
C1130 C 0.35203 0.57105 0.97857 0.0
C1131 C 0.40281 0.60377 0.92156 0.0
H1132 H 0.43211 0.65649 0.98286 0.0
C1133 C 0.5043 0.69426 0.91276 0.0
C1134 C 0.51869 0.70234 0.93954 0.0
C1135 C 0.47887 0.67422 0.91319 0.0
C1136 C 0.42433 0.64179 0.96568 0.0
H1137 H 0.30693 0.54332 0.90951 0.0
H1138 H 0.35036 0.57953 0.90273 0.0
H1139 H 0.38752 0.62316 0.98666 0.0
H1140 H 0.51788 0.69481 0.98753 0.0
H1141 H 0.47389 0.6599 0.98817 0.0
H1142 H 0.43984 0.62253 0.90067 0.0
C1143 C 0.34421 0.57157 0.92509 0.0
C1144 C 0.39871 0.62268 0.96783 0.0
C1145 C 0.3193 0.55099 0.92898 0.0
C1146 C 0.50738 0.68926 0.96649 0.0
C1147 C 0.48203 0.66934 0.96692 0.0
C1148 C 0.42852 0.62299 0.91937 0.0
C1149 C 0.36092 0.58178 0.94987 0.0
C1150 C 0.38769 0.60318 0.94608 0.0
C1151 C 0.46727 0.66191 0.94043 0.0
C1152 C 0.43968 0.642 0.94169 0.0
H1153 H 0.32124 0.54249 0.00476 0.0
H1154 H 0.36444 0.57811 0.99809 0.0
H1155 H 0.39501 0.58893 0.90455 0.0
H1156 H 0.51239 0.70393 0.89161 0.0
H1157 H 0.46802 0.66902 0.89239 0.0
C1158 C 0.79077 0.49264 0.55908 0.0
C1159 C 0.77418 0.48987 0.53535 0.0
C1160 C 0.79806 0.47417 0.56384 0.0
C1161 C 0.80022 0.42084 0.52387 0.0
H1162 H 0.81202 0.40304 0.60391 0.0
C1163 C 0.83455 0.34829 0.53821 0.0
C1164 C 0.82377 0.33049 0.56178 0.0
C1165 C 0.83159 0.36983 0.53721 0.0
C1166 C 0.80863 0.40761 0.58138 0.0
H1167 H 0.7514 0.4653 0.49878 0.0
H1168 H 0.76315 0.43275 0.50767 0.0
H1169 H 0.79915 0.4352 0.598 0.0
H1170 H 0.80217 0.32175 0.6034 0.0
H1171 H 0.79616 0.35877 0.60119 0.0
H1172 H 0.80828 0.39247 0.50721 0.0
C1173 C 0.7714 0.44948 0.52203 0.0
C1174 C 0.80155 0.42636 0.57796 0.0
C1175 C 0.76444 0.46805 0.51706 0.0
C1176 C 0.81087 0.33524 0.58504 0.0
C1177 C 0.80749 0.35657 0.58377 0.0
C1178 C 0.80696 0.40196 0.52729 0.0
C1179 C 0.78867 0.45244 0.54515 0.0
C1180 C 0.79703 0.43309 0.54913 0.0
C1181 C 0.81727 0.37386 0.55943 0.0
C1182 C 0.81121 0.39495 0.55608 0.0
H1183 H 0.79861 0.50937 0.57345 0.0
H1184 H 0.81155 0.47729 0.58169 0.0
H1185 H 0.79747 0.42577 0.50124 0.0
H1186 H 0.84483 0.34529 0.5201 0.0
H1187 H 0.84011 0.38303 0.51858 0.0
C1188 C 0.55022 0.30016 0.51999 0.0
C1189 C 0.52891 0.28848 0.53918 0.0
C1190 C 0.56894 0.32578 0.52394 0.0
C1191 C 0.59353 0.38052 0.57818 0.0
H1192 H 0.62585 0.41937 0.50583 0.0
C1193 C 0.68341 0.48204 0.582 0.0
C1194 C 0.68739 0.49931 0.55851 0.0
C1195 C 0.66273 0.45694 0.58117 0.0
C1196 C 0.61684 0.40907 0.52635 0.0
H1197 H 0.5106 0.29436 0.57789 0.0
H1198 H 0.54291 0.33947 0.58438 0.0
H1199 H 0.59263 0.3751 0.50162 0.0
H1200 H 0.67186 0.50408 0.51654 0.0
H1201 H 0.63532 0.46089 0.51567 0.0
H1202 H 0.61718 0.41495 0.6028 0.0
C1203 C 0.54552 0.32872 0.56657 0.0
C1204 C 0.59798 0.38333 0.52395 0.0
C1205 C 0.5269 0.30287 0.56282 0.0
C1206 C 0.66952 0.49122 0.53488 0.0
C1207 C 0.64864 0.46628 0.53426 0.0
C1208 C 0.61226 0.40644 0.58057 0.0
C1209 C 0.56671 0.34066 0.54693 0.0
C1210 C 0.58622 0.3685 0.54981 0.0
C1211 C 0.64525 0.4485 0.557 0.0
C1212 C 0.62437 0.4211 0.55468 0.0
H1213 H 0.55243 0.28949 0.50172 0.0
H1214 H 0.58522 0.33387 0.50884 0.0
H1215 H 0.58514 0.36983 0.59868 0.0
H1216 H 0.6969 0.48755 0.60046 0.0
H1217 H 0.6611 0.44392 0.59896 0.0
C1218 C 0.71365 0.23534 0.57369 0.0
C1219 C 0.72194 0.23569 0.54396 0.0
C1220 C 0.68793 0.22773 0.57961 0.0
C1221 C 0.62321 0.19046 0.54644 0.0
H1222 H 0.60538 0.23191 0.59647 0.0
C1223 C 0.52498 0.18358 0.53823 0.0
C1224 C 0.51362 0.18718 0.56407 0.0
C1225 C 0.54962 0.18697 0.53936 0.0
C1226 C 0.60993 0.21981 0.58287 0.0
H1227 H 0.70988 0.22833 0.49724 0.0
H1228 H 0.66534 0.21495 0.50749 0.0
H1229 H 0.65009 0.24272 0.59223 0.0
H1230 H 0.51922 0.19658 0.61167 0.0
H1231 H 0.56228 0.20217 0.61377 0.0
H1232 H 0.5833 0.16766 0.53679 0.0
C1233 C 0.67849 0.22037 0.5263 0.0
C1234 C 0.63561 0.22606 0.58041 0.0
C1235 C 0.70409 0.2282 0.5204 0.0
C1236 C 0.52735 0.19359 0.59135 0.0
C1237 C 0.55214 0.19702 0.59248 0.0
C1238 C 0.59762 0.18413 0.54903 0.0
C1239 C 0.67002 0.22 0.55594 0.0
C1240 C 0.6426 0.21182 0.56156 0.0
C1241 C 0.56371 0.19401 0.56639 0.0
C1242 C 0.59065 0.19908 0.56665 0.0
H1243 H 0.72703 0.24105 0.59228 0.0
H1244 H 0.68199 0.22759 0.6027 0.0
H1245 H 0.62787 0.17877 0.5322 0.0
H1246 H 0.5151 0.17874 0.51677 0.0
H1247 H 0.55793 0.18486 0.51866 0.0
C1248 C 0.43793 0.19904 0.69527 0.0
C1249 C 0.44876 0.21898 0.67409 0.0
C1250 C 0.43772 0.20438 0.72581 0.0
C1251 C 0.44178 0.25317 0.77846 0.0
H1252 H 0.46033 0.21667 0.83585 0.0
C1253 C 0.42593 0.25167 0.90779 0.0
C1254 C 0.44531 0.25256 0.92617 0.0
C1255 C 0.42731 0.25011 0.87644 0.0
C1256 C 0.45532 0.22718 0.82009 0.0
H1257 H 0.4677 0.26014 0.66819 0.0
H1258 H 0.46745 0.26944 0.72175 0.0
H1259 H 0.46091 0.20871 0.78215 0.0
H1260 H 0.48205 0.25411 0.92615 0.0
H1261 H 0.48448 0.25161 0.87168 0.0
H1262 H 0.43636 0.27176 0.81664 0.0
C1263 C 0.45896 0.2497 0.71461 0.0
C1264 C 0.45537 0.2224 0.78939 0.0
C1265 C 0.45925 0.24437 0.68401 0.0
C1266 C 0.46661 0.25307 0.91263 0.0
C1267 C 0.468 0.25157 0.88144 0.0
C1268 C 0.44163 0.25789 0.8093 0.0
C1269 C 0.44829 0.22975 0.73578 0.0
C1270 C 0.44853 0.23527 0.76828 0.0
C1271 C 0.4481 0.24944 0.86308 0.0
C1272 C 0.44844 0.24494 0.83036 0.0
H1273 H 0.4296 0.17928 0.68831 0.0
H1274 H 0.42908 0.18861 0.74163 0.0
H1275 H 0.43625 0.26321 0.76263 0.0
H1276 H 0.40933 0.25132 0.91762 0.0
H1277 H 0.41166 0.2484 0.86277 0.0
C1278 C 0.7686 0.24529 0.68983 0.0
C1279 C 0.78936 0.24395 0.67757 0.0
C1280 C 0.76095 0.23772 0.71957 0.0
C1281 C 0.76229 0.1969 0.77943 0.0
H1282 H 0.75458 0.24294 0.83372 0.0
C1283 C 0.75884 0.18556 0.90862 0.0
C1284 C 0.74493 0.19419 0.92546 0.0
C1285 C 0.76073 0.18864 0.87734 0.0
C1286 C 0.75607 0.22955 0.81877 0.0
H1287 H 0.81839 0.23363 0.6867 0.0
H1288 H 0.80483 0.22021 0.7386 0.0
H1289 H 0.76497 0.25468 0.78096 0.0
H1290 H 0.72049 0.21094 0.92283 0.0
H1291 H 0.72295 0.21541 0.86817 0.0
H1292 H 0.75327 0.17166 0.81707 0.0
C1293 C 0.79451 0.22708 0.72515 0.0
C1294 C 0.76217 0.2364 0.78859 0.0
C1295 C 0.80237 0.23497 0.69557 0.0
C1296 C 0.73164 0.20445 0.91038 0.0
C1297 C 0.7332 0.20716 0.8791 0.0
C1298 C 0.75587 0.18988 0.80955 0.0
C1299 C 0.77372 0.22835 0.73736 0.0
C1300 C 0.7657 0.22031 0.7688 0.0
C1301 C 0.74844 0.20006 0.8623 0.0
C1302 C 0.75304 0.2063 0.82969 0.0
H1303 H 0.75822 0.25214 0.67645 0.0
H1304 H 0.74482 0.23882 0.72853 0.0
H1305 H 0.76462 0.18405 0.76441 0.0
H1306 H 0.76935 0.17767 0.91972 0.0
H1307 H 0.77284 0.18318 0.8652 0.0
C1308 C 0.75985 0.55994 0.92857 0.0
C1309 C 0.78478 0.56857 0.93925 0.0
C1310 C 0.75547 0.56213 0.89802 0.0
C1311 C 0.78441 0.56642 0.82375 0.0
H1312 H 0.73437 0.58388 0.795 0.0
C1313 C 0.77299 0.5792 0.69726 0.0
C1314 C 0.74818 0.56982 0.68585 0.0
C1315 C 0.77728 0.58022 0.7283 0.0
C1316 C 0.7482 0.57868 0.80267 0.0
H1317 H 0.82478 0.5874 0.9264 0.0
H1318 H 0.81715 0.5914 0.87319 0.0
H1319 H 0.74246 0.58451 0.84909 0.0
H1320 H 0.70838 0.55431 0.69819 0.0
H1321 H 0.71578 0.55553 0.75251 0.0
H1322 H 0.78991 0.56014 0.77762 0.0
C1323 C 0.80094 0.58253 0.88837 0.0
C1324 C 0.75289 0.57912 0.83367 0.0
C1325 C 0.80532 0.58039 0.91892 0.0
C1326 C 0.72773 0.56165 0.70626 0.0
C1327 C 0.73201 0.56251 0.73741 0.0
C1328 C 0.77965 0.56586 0.79286 0.0
C1329 C 0.77592 0.57296 0.87745 0.0
C1330 C 0.77112 0.57307 0.84454 0.0
C1331 C 0.75685 0.57169 0.74881 0.0
C1332 C 0.76156 0.57207 0.78186 0.0
H1333 H 0.74358 0.55077 0.94363 0.0
H1334 H 0.73596 0.55443 0.89032 0.0
H1335 H 0.79817 0.56111 0.8314 0.0
H1336 H 0.78924 0.58591 0.68222 0.0
H1337 H 0.79673 0.5879 0.73622 0.0
C1338 C 0.22767 0.42178 0.59425 0.0
C1339 C 0.24238 0.44495 0.57874 0.0
C1340 C 0.22524 0.4215 0.62564 0.0
C1341 C 0.25496 0.45865 0.69463 0.0
H1342 H 0.18683 0.41894 0.72824 0.0
C1343 C 0.2328 0.46747 0.81969 0.0
C1344 C 0.21437 0.44531 0.83457 0.0
C1345 C 0.23699 0.46711 0.78869 0.0
C1346 C 0.20606 0.42982 0.71936 0.0
H1347 H 0.2666 0.48593 0.58416 0.0
H1348 H 0.26249 0.48538 0.639 0.0
H1349 H 0.19309 0.41863 0.67402 0.0
H1350 H 0.18632 0.40522 0.82865 0.0
H1351 H 0.19404 0.40441 0.77487 0.0
H1352 H 0.26802 0.46967 0.73996 0.0
C1353 C 0.25286 0.46744 0.62684 0.0
C1354 C 0.20962 0.42968 0.68822 0.0
C1355 C 0.25511 0.46776 0.59541 0.0
C1356 C 0.20053 0.42269 0.81785 0.0
C1357 C 0.20486 0.42227 0.78692 0.0
C1358 C 0.25144 0.45863 0.72584 0.0
C1359 C 0.23764 0.44435 0.64227 0.0
C1360 C 0.23408 0.44415 0.67548 0.0
C1361 C 0.22298 0.44453 0.77184 0.0
C1362 C 0.22692 0.44427 0.73863 0.0
H1363 H 0.21762 0.40386 0.58213 0.0
H1364 H 0.21362 0.40337 0.63693 0.0
H1365 H 0.27408 0.46978 0.6855 0.0
H1366 H 0.24372 0.48525 0.83188 0.0
H1367 H 0.25084 0.48472 0.77784 0.0
C1368 C 0.57164 0.77491 0.5706 0.0
C1369 C 0.55555 0.78402 0.56058 0.0
C1370 C 0.57713 0.77529 0.60134 0.0
C1371 C 0.57647 0.80579 0.67337 0.0
H1372 H 0.57105 0.745 0.71023 0.0
C1373 C 0.56555 0.78925 0.80124 0.0
C1374 C 0.57924 0.7789 0.81523 0.0
C1375 C 0.5648 0.7905 0.76986 0.0
C1376 C 0.57299 0.76225 0.70021 0.0
H1377 H 0.53287 0.80094 0.57485 0.0
H1378 H 0.54231 0.80147 0.62818 0.0
H1379 H 0.56662 0.74656 0.65562 0.0
H1380 H 0.60274 0.76157 0.80728 0.0
H1381 H 0.60148 0.76388 0.75235 0.0
H1382 H 0.58248 0.82137 0.71788 0.0
C1383 C 0.55091 0.79427 0.61238 0.0
C1384 C 0.57048 0.76315 0.66894 0.0
C1385 C 0.54536 0.79381 0.58179 0.0
C1386 C 0.592 0.76964 0.79716 0.0
C1387 C 0.5912 0.77086 0.76571 0.0
C1388 C 0.57898 0.80489 0.70455 0.0
C1389 C 0.56676 0.78494 0.62253 0.0
C1390 C 0.57175 0.78477 0.65527 0.0
C1391 C 0.5777 0.78144 0.75174 0.0
C1392 C 0.57683 0.78295 0.71839 0.0
H1393 H 0.5798 0.76727 0.55478 0.0
H1394 H 0.58956 0.76814 0.6085 0.0
H1395 H 0.57803 0.82291 0.66342 0.0
H1396 H 0.55543 0.79645 0.8145 0.0
H1397 H 0.55385 0.79836 0.75977 0.0
C1398 C 0.24338 0.77843 0.79628 0.0
C1399 C 0.25467 0.80146 0.81256 0.0
C1400 C 0.24163 0.77856 0.76486 0.0
C1401 C 0.2687 0.81995 0.69771 0.0
H1402 H 0.20641 0.76809 0.65974 0.0
C1403 C 0.26029 0.79916 0.56964 0.0
C1404 C 0.23682 0.79188 0.55543 0.0
C1405 C 0.26286 0.80285 0.60085 0.0
C1406 C 0.22382 0.78291 0.66996 0.0
H1407 H 0.27325 0.84275 0.80854 0.0
H1408 H 0.26995 0.84293 0.75375 0.0
H1409 H 0.21005 0.76926 0.71445 0.0
H1410 H 0.19803 0.78407 0.56267 0.0
H1411 H 0.20263 0.79088 0.61704 0.0
H1412 H 0.28232 0.83377 0.65315 0.0
C1413 C 0.2627 0.82478 0.76524 0.0
C1414 C 0.22605 0.78335 0.70134 0.0
C1415 C 0.26448 0.82465 0.79668 0.0
C1416 C 0.21631 0.78947 0.57293 0.0
C1417 C 0.2189 0.79321 0.60414 0.0
C1418 C 0.26646 0.81951 0.66628 0.0
C1419 C 0.25108 0.80172 0.74897 0.0
C1420 C 0.24859 0.80173 0.7156 0.0
C1421 C 0.24204 0.79941 0.61856 0.0
C1422 C 0.24405 0.80088 0.65202 0.0
H1423 H 0.23574 0.76024 0.8078 0.0
H1424 H 0.23296 0.76047 0.75299 0.0
H1425 H 0.28639 0.83427 0.70795 0.0
H1426 H 0.27649 0.80119 0.55683 0.0
H1427 H 0.28089 0.8074 0.61122 0.0
C1428 C 0.56692 0.77286 0.0897 0.0
C1429 C 0.58402 0.76767 0.07391 0.0
C1430 C 0.56853 0.7757 0.12094 0.0
C1431 C 0.59198 0.76111 0.18994 0.0
H1432 H 0.58989 0.82004 0.22135 0.0
C1433 C 0.57577 0.77454 0.31587 0.0
C1434 C 0.59044 0.79922 0.32799 0.0
C1435 C 0.577 0.77025 0.2851 0.0
C1436 C 0.59073 0.80363 0.21293 0.0
H1437 H 0.61564 0.76045 0.07868 0.0
H1438 H 0.61832 0.7653 0.13364 0.0
H1439 H 0.58779 0.81288 0.16709 0.0
H1440 H 0.61842 0.83859 0.31754 0.0
H1441 H 0.62045 0.83108 0.26384 0.0
H1442 H 0.59474 0.75182 0.23598 0.0
C1443 C 0.60373 0.7672 0.12163 0.0
C1444 C 0.58927 0.79939 0.1819 0.0
C1445 C 0.60224 0.76452 0.0902 0.0
C1446 C 0.60679 0.81938 0.30888 0.0
C1447 C 0.6079 0.81512 0.27811 0.0
C1448 C 0.59322 0.76523 0.2211 0.0
C1449 C 0.58717 0.77329 0.13718 0.0
C1450 C 0.58968 0.778 0.1701 0.0
C1451 C 0.5928 0.79057 0.26585 0.0
C1452 C 0.59251 0.7865 0.23287 0.0
H1453 H 0.55254 0.77526 0.07791 0.0
H1454 H 0.55526 0.77998 0.13243 0.0
H1455 H 0.59225 0.74443 0.1814 0.0
H1456 H 0.56305 0.75859 0.33004 0.0
H1457 H 0.56499 0.75118 0.27621 0.0
C1458 C 0.24429 0.82042 0.09197 0.0
C1459 C 0.25818 0.81119 0.07612 0.0
C1460 C 0.24179 0.81794 0.12334 0.0
C1461 C 0.24609 0.77958 0.18607 0.0
H1462 H 0.24194 0.83014 0.23598 0.0
C1463 C 0.24006 0.77247 0.31612 0.0
C1464 C 0.22115 0.7763 0.32959 0.0
C1465 C 0.24617 0.77809 0.28561 0.0
C1466 C 0.24294 0.81581 0.22228 0.0
H1467 H 0.2813 0.7931 0.08088 0.0
H1468 H 0.2776 0.78944 0.1356 0.0
H1469 H 0.25063 0.83815 0.1821 0.0
H1470 H 0.19415 0.7895 0.32171 0.0
H1471 H 0.20498 0.79948 0.26848 0.0
H1472 H 0.23858 0.75736 0.22636 0.0
C1473 C 0.26799 0.79796 0.12379 0.0
C1474 C 0.24785 0.82034 0.19138 0.0
C1475 C 0.27027 0.80022 0.0924 0.0
C1476 C 0.20878 0.78628 0.31201 0.0
C1477 C 0.21508 0.79215 0.28157 0.0
C1478 C 0.24142 0.77517 0.21698 0.0
C1479 C 0.25334 0.80637 0.13964 0.0
C1480 C 0.24929 0.80219 0.17281 0.0
C1481 C 0.23369 0.78792 0.26799 0.0
C1482 C 0.2396 0.79314 0.23537 0.0
H1483 H 0.23463 0.82886 0.08009 0.0
H1484 H 0.23009 0.82435 0.13465 0.0
H1485 H 0.24654 0.76492 0.17247 0.0
H1486 H 0.24997 0.76483 0.32904 0.0
H1487 H 0.26075 0.77485 0.27582 0.0
C1488 C 0.20108 0.42601 0.08038 0.0
C1489 C 0.22315 0.43995 0.06269 0.0
C1490 C 0.20303 0.42327 0.11149 0.0
C1491 C 0.24643 0.45582 0.17487 0.0
H1492 H 0.20315 0.39319 0.21878 0.0
C1493 C 0.23667 0.45389 0.30425 0.0
C1494 C 0.23743 0.43402 0.31989 0.0
C1495 C 0.23496 0.45346 0.2728 0.0
C1496 C 0.21548 0.41077 0.20679 0.0
H1497 H 0.26463 0.46103 0.06371 0.0
H1498 H 0.26798 0.4562 0.1178 0.0
H1499 H 0.20044 0.39372 0.16369 0.0
H1500 H 0.23668 0.39791 0.31468 0.0
H1501 H 0.23358 0.39714 0.25963 0.0
H1502 H 0.26146 0.47292 0.2178 0.0
C1503 C 0.24916 0.44767 0.1077 0.0
C1504 C 0.21377 0.41113 0.17529 0.0
C1505 C 0.24722 0.4503 0.07664 0.0
C1506 C 0.23614 0.41353 0.30333 0.0
C1507 C 0.23424 0.41302 0.27181 0.0
C1508 C 0.24799 0.45552 0.20629 0.0
C1509 C 0.2271 0.43451 0.12559 0.0
C1510 C 0.22922 0.43368 0.15898 0.0
C1511 C 0.23381 0.43308 0.25618 0.0
C1512 C 0.23247 0.43304 0.22266 0.0
H1513 H 0.18225 0.41777 0.07037 0.0
H1514 H 0.18567 0.41314 0.12466 0.0
H1515 H 0.2584 0.47359 0.16304 0.0
H1516 H 0.23757 0.46994 0.31627 0.0
H1517 H 0.23433 0.46905 0.26147 0.0
C1518 C 0.75201 0.54484 0.4009 0.0
C1519 C 0.76348 0.56805 0.41685 0.0
C1520 C 0.75519 0.54453 0.36967 0.0
C1521 C 0.77685 0.58645 0.3014 0.0
H1522 H 0.78577 0.53185 0.26857 0.0
C1523 C 0.81554 0.5888 0.18093 0.0
C1524 C 0.80258 0.56621 0.16392 0.0
C1525 C 0.80972 0.58905 0.21146 0.0
C1526 C 0.78309 0.5471 0.27736 0.0
H1527 H 0.787 0.60919 0.41238 0.0
H1528 H 0.79311 0.60865 0.35818 0.0
H1529 H 0.77728 0.53225 0.32222 0.0
H1530 H 0.77334 0.52616 0.16566 0.0
H1531 H 0.76344 0.52657 0.21898 0.0
H1532 H 0.78339 0.60158 0.25645 0.0
C1533 C 0.78117 0.59066 0.36958 0.0
C1534 C 0.7781 0.54729 0.30813 0.0
C1535 C 0.77777 0.59098 0.40076 0.0
C1536 C 0.7837 0.54389 0.17811 0.0
C1537 C 0.77809 0.54407 0.20869 0.0
C1538 C 0.78211 0.58638 0.27065 0.0
C1539 C 0.77015 0.56741 0.35362 0.0
C1540 C 0.7749 0.56697 0.32062 0.0
C1541 C 0.79104 0.56664 0.22571 0.0
C1542 C 0.78528 0.5667 0.25831 0.0
H1543 H 0.74073 0.52684 0.41258 0.0
H1544 H 0.74594 0.52629 0.35814 0.0
H1545 H 0.7741 0.60169 0.31001 0.0
H1546 H 0.83017 0.60634 0.17068 0.0
H1547 H 0.82017 0.60668 0.22406 0.0
C1548 C 0.42751 0.17734 0.41012 0.0
C1549 C 0.45085 0.18828 0.42565 0.0
C1550 C 0.42717 0.17887 0.37872 0.0
C1551 C 0.46867 0.21878 0.31668 0.0
H1552 H 0.41407 0.16855 0.26651 0.0
C1553 C 0.46618 0.22831 0.18749 0.0
C1554 C 0.44329 0.22579 0.17622 0.0
C1555 C 0.46765 0.2218 0.21732 0.0
C1556 C 0.4294 0.18269 0.28036 0.0
H1557 H 0.49204 0.2076 0.42073 0.0
H1558 H 0.4915 0.2093 0.36589 0.0
H1559 H 0.4161 0.1591 0.31971 0.0
H1560 H 0.40391 0.21421 0.18704 0.0
H1561 H 0.40648 0.20257 0.2392 0.0
H1562 H 0.48202 0.24222 0.27718 0.0
C1563 C 0.47345 0.20046 0.37787 0.0
C1564 C 0.43054 0.17736 0.31078 0.0
C1565 C 0.47378 0.19934 0.40926 0.0
C1566 C 0.42184 0.21645 0.1952 0.0
C1567 C 0.42322 0.2096 0.2249 0.0
C1568 C 0.46771 0.22392 0.28622 0.0
C1569 C 0.45018 0.19099 0.36228 0.0
C1570 C 0.45001 0.1955 0.3294 0.0
C1571 C 0.44616 0.21233 0.2362 0.0
C1572 C 0.44789 0.20608 0.26794 0.0
H1573 H 0.40954 0.16878 0.42228 0.0
H1574 H 0.4089 0.17161 0.36754 0.0
H1575 H 0.48361 0.23346 0.33042 0.0
H1576 H 0.48301 0.23545 0.17335 0.0
H1577 H 0.48553 0.22399 0.22559 0.0
C1578 C 0.80091 0.27118 0.41113 0.0
C1579 C 0.81994 0.26813 0.42557 0.0
C1580 C 0.79822 0.26905 0.37992 0.0
C1581 C 0.82907 0.26871 0.30865 0.0
H1582 H 0.75929 0.22273 0.28312 0.0
C1583 C 0.79653 0.25276 0.1839 0.0
C1584 C 0.78017 0.2273 0.17512 0.0
C1585 C 0.80284 0.25885 0.21422 0.0
C1586 C 0.77887 0.2355 0.28993 0.0
H1587 H 0.8521 0.26208 0.41853 0.0
H1588 H 0.84727 0.25824 0.36368 0.0
H1589 H 0.76855 0.2328 0.33641 0.0
H1590 H 0.75775 0.18822 0.19108 0.0
H1591 H 0.76869 0.1989 0.24405 0.0
H1592 H 0.83933 0.27111 0.26197 0.0
C1593 C 0.8345 0.2623 0.37665 0.0
C1594 C 0.78414 0.24149 0.32035 0.0
C1595 C 0.8372 0.26442 0.40801 0.0
C1596 C 0.77032 0.20803 0.19717 0.0
C1597 C 0.77651 0.21414 0.22748 0.0
C1598 C 0.82375 0.26283 0.27807 0.0
C1599 C 0.8145 0.26385 0.36248 0.0
C1600 C 0.80926 0.25814 0.33002 0.0
C1601 C 0.79276 0.2396 0.23628 0.0
C1602 C 0.7986 0.24608 0.2685 0.0
H1603 H 0.78751 0.2744 0.42399 0.0
H1604 H 0.78296 0.27082 0.36947 0.0
H1605 H 0.84858 0.28163 0.31556 0.0
H1606 H 0.80447 0.26803 0.16739 0.0
H1607 H 0.81522 0.27866 0.22046 0.0
loop_
_geom_bond_atom_site_label_1
_geom_bond_atom_site_label_2
_geom_bond_distance
_geom_bond_site_symmetry_2
_ccdc_geom_bond_type
O0 Tb1 2.292 1_556 S
O0 C3 1.255 . S
Tb1 O0 2.292 1_554 S
Tb1 O17 2.326 . S
Tb1 O19 2.500 . S
Tb1 O20 2.473 . S
Tb1 O23 2.324 . S
Eu2 O6 2.292 . S
Eu2 C7 2.852 . S
Eu2 O18 2.324 . S
Eu2 O22 2.326 . S
Eu2 O24 2.500 . S
Eu2 O25 2.473 . S
C3 O0 1.255 . S
C3 O4 1.247 . S
O4 C3 1.247 . S
C5 O17 1.242 . S
C5 O18 1.258 . S
O6 Eu2 2.292 . S
O6 C8 1.255 . S
C7 Eu2 2.852 . S
C7 C11 1.503 . S
C7 O24 1.273 . S
C7 O25 1.257 . S
C8 O6 1.255 . S
C8 O9 1.247 . S
O9 C8 1.247 . S
C10 O22 1.242 . S
C10 O23 1.258 . S
C11 C7 1.503 . S
C11 C12 1.379 . S
C11 C16 1.392 . S
C12 C11 1.379 . S
C12 C13 1.404 . S
C12 H26 0.929 . S
C13 C12 1.404 . S
C13 C14 1.389 . S
C14 C13 1.389 . S
C14 C15 1.399 . S
C14 H27 0.931 . S
C15 C14 1.399 . S
C15 C16 1.390 . S
C16 C11 1.392 . S
C16 C15 1.390 . S
C16 H28 0.929 . S
O17 Tb1 2.326 . S
O17 C5 1.242 . S
O18 Eu2 2.324 . S
O18 C5 1.258 . S
O19 Tb1 2.500 . S
O19 C21 1.273 . S
O20 Tb1 2.473 . S
O20 C21 1.257 . S
C21 O19 1.273 . S
C21 O20 1.257 . S
O22 Eu2 2.326 . S
O22 C10 1.242 . S
O23 Tb1 2.324 . S
O23 C10 1.258 . S
O24 Eu2 2.500 . S
O24 C7 1.273 . S
O25 Eu2 2.473 . S
O25 C7 1.257 . S
H26 C12 0.929 . S
H27 C14 0.931 . S
H28 C16 0.929 . S
O29 Tb30 2.292 1_556 S
O29 C32 1.255 . S
Tb30 O29 2.292 1_554 S
Tb30 O46 2.326 . S
Tb30 O48 2.500 . S
Tb30 O49 2.473 . S
Tb30 O52 2.324 . S
Eu31 O35 2.292 . S
Eu31 C36 2.852 . S
Eu31 O47 2.324 . S
Eu31 O51 2.326 . S
Eu31 O53 2.500 . S
Eu31 O54 2.473 . S
C32 O29 1.255 . S
C32 O33 1.247 . S
O33 C32 1.247 . S
C34 O46 1.242 . S
C34 O47 1.258 . S
O35 Eu31 2.292 . S
O35 C37 1.255 . S
C36 Eu31 2.852 . S
C36 C40 1.503 . S
C36 O53 1.273 . S
C36 O54 1.257 . S
C37 O35 1.255 . S
C37 O38 1.247 . S
O38 C37 1.247 . S
C39 O51 1.242 . S
C39 O52 1.258 . S
C40 C36 1.503 . S
C40 C41 1.379 . S
C40 C45 1.392 . S
C41 C40 1.379 . S
C41 C42 1.404 . S
C41 H55 0.929 . S
C42 C41 1.404 . S
C42 C43 1.389 . S
C43 C42 1.389 . S
C43 C44 1.399 . S
C43 H56 0.931 . S
C44 C43 1.399 . S
C44 C45 1.390 . S
C45 C40 1.392 . S
C45 C44 1.390 . S
C45 H57 0.929 . S
O46 Tb30 2.326 . S
O46 C34 1.242 . S
O47 Eu31 2.324 . S
O47 C34 1.258 . S
O48 Tb30 2.500 . S
O48 C50 1.273 . S
O49 Tb30 2.473 . S
O49 C50 1.257 . S
C50 O48 1.273 . S
C50 O49 1.257 . S
O51 Eu31 2.326 . S
O51 C39 1.242 . S
O52 Tb30 2.324 . S
O52 C39 1.258 . S
O53 Eu31 2.500 . S
O53 C36 1.273 . S
O54 Eu31 2.473 . S
O54 C36 1.257 . S
H55 C41 0.929 . S
H56 C43 0.931 . S
H57 C45 0.929 . S
O58 Tb59 2.292 1_556 S
O58 C61 1.255 . S
Tb59 O58 2.292 1_554 S
Tb59 O75 2.326 . S
Tb59 O77 2.500 . S
Tb59 O78 2.473 . S
Tb59 O81 2.324 . S
Eu60 O64 2.292 . S
Eu60 C65 2.852 . S
Eu60 O76 2.324 . S
Eu60 O80 2.326 . S
Eu60 O82 2.500 . S
Eu60 O83 2.473 . S
C61 O58 1.255 . S
C61 O62 1.247 . S
O62 C61 1.247 . S
C63 O75 1.242 . S
C63 O76 1.258 . S
O64 Eu60 2.292 . S
O64 C66 1.255 . S
C65 Eu60 2.852 . S
C65 C69 1.503 . S
C65 O82 1.273 . S
C65 O83 1.257 . S
C66 O64 1.255 . S
C66 O67 1.247 . S
O67 C66 1.247 . S
C68 O80 1.242 . S
C68 O81 1.258 . S
C69 C65 1.503 . S
C69 C70 1.379 . S
C69 C74 1.392 . S
C70 C69 1.379 . S
C70 C71 1.404 . S
C70 H84 0.929 . S
C71 C70 1.404 . S
C71 C72 1.389 . S
C72 C71 1.389 . S
C72 C73 1.399 . S
C72 H85 0.931 . S
C73 C72 1.399 . S
C73 C74 1.390 . S
C74 C69 1.392 . S
C74 C73 1.390 . S
C74 H86 0.929 . S
O75 Tb59 2.326 . S
O75 C63 1.242 . S
O76 Eu60 2.324 . S
O76 C63 1.258 . S
O77 Tb59 2.500 . S
O77 C79 1.273 . S
O78 Tb59 2.473 . S
O78 C79 1.257 . S
C79 O77 1.273 . S
C79 O78 1.257 . S
O80 Eu60 2.326 . S
O80 C68 1.242 . S
O81 Tb59 2.324 . S
O81 C68 1.258 . S
O82 Eu60 2.500 . S
O82 C65 1.273 . S
O83 Eu60 2.473 . S
O83 C65 1.257 . S
H84 C70 0.929 . S
H85 C72 0.931 . S
H86 C74 0.929 . S
O87 Tb88 2.292 . S
O87 C90 1.255 . S
Tb88 O87 2.292 . S
Tb88 O104 2.326 . S
Tb88 O106 2.500 . S
Tb88 O107 2.473 . S
Tb88 O110 2.324 . S
Eu89 O93 2.292 . S
Eu89 C94 2.852 . S
Eu89 O105 2.324 . S
Eu89 O109 2.326 . S
Eu89 O111 2.500 . S
Eu89 O112 2.473 . S
C90 O87 1.255 . S
C90 O91 1.247 . S
O91 C90 1.247 . S
C92 O104 1.242 . S
C92 O105 1.258 . S
O93 Eu89 2.292 . S
O93 C95 1.255 . S
C94 Eu89 2.852 . S
C94 C98 1.503 . S
C94 O111 1.273 . S
C94 O112 1.257 . S
C95 O93 1.255 . S
C95 O96 1.247 . S
O96 C95 1.247 . S
C97 O109 1.242 . S
C97 O110 1.258 . S
C98 C94 1.503 . S
C98 C99 1.379 . S
C98 C103 1.392 . S
C99 C98 1.379 . S
C99 C100 1.404 . S
C99 H113 0.929 . S
C100 C99 1.404 . S
C100 C101 1.389 . S
C101 C100 1.389 . S
C101 C102 1.399 . S
C101 H114 0.931 . S
C102 C101 1.399 . S
C102 C103 1.390 . S
C103 C98 1.392 . S
C103 C102 1.390 . S
C103 H115 0.929 . S
O104 Tb88 2.326 . S
O104 C92 1.242 . S
O105 Eu89 2.324 . S
O105 C92 1.258 . S
O106 Tb88 2.500 . S
O106 C108 1.273 . S
O107 Tb88 2.473 . S
O107 C108 1.257 . S
C108 O106 1.273 . S
C108 O107 1.257 . S
O109 Eu89 2.326 . S
O109 C97 1.242 . S
O110 Tb88 2.324 . S
O110 C97 1.258 . S
O111 Eu89 2.500 . S
O111 C94 1.273 . S
O112 Eu89 2.473 . S
O112 C94 1.257 . S
H113 C99 0.929 . S
H114 C101 0.931 . S
H115 C103 0.929 . S
O116 Tb117 2.292 . S
O116 C119 1.255 . S
Tb117 O116 2.292 . S
Tb117 O133 2.326 . S
Tb117 O135 2.500 . S
Tb117 O136 2.473 . S
Tb117 O139 2.324 . S
Eu118 O122 2.292 . S
Eu118 C123 2.852 . S
Eu118 O134 2.324 . S
Eu118 O138 2.326 . S
Eu118 O140 2.500 . S
Eu118 O141 2.473 . S
C119 O116 1.255 . S
C119 O120 1.247 . S
O120 C119 1.247 . S
C121 O133 1.242 . S
C121 O134 1.258 . S
O122 Eu118 2.292 . S
O122 C124 1.255 . S
C123 Eu118 2.852 . S
C123 C127 1.503 . S
C123 O140 1.273 . S
C123 O141 1.257 . S
C124 O122 1.255 . S
C124 O125 1.247 . S
O125 C124 1.247 . S
C126 O138 1.242 . S
C126 O139 1.258 . S
C127 C123 1.503 . S
C127 C128 1.379 . S
C127 C132 1.392 . S
C128 C127 1.379 . S
C128 C129 1.404 . S
C128 H142 0.929 . S
C129 C128 1.404 . S
C129 C130 1.389 . S
C130 C129 1.389 . S
C130 C131 1.399 . S
C130 H143 0.931 . S
C131 C130 1.399 . S
C131 C132 1.390 . S
C132 C127 1.392 . S
C132 C131 1.390 . S
C132 H144 0.929 . S
O133 Tb117 2.326 . S
O133 C121 1.242 . S
O134 Eu118 2.324 . S
O134 C121 1.258 . S
O135 Tb117 2.500 . S
O135 C137 1.273 . S
O136 Tb117 2.473 . S
O136 C137 1.257 . S
C137 O135 1.273 . S
C137 O136 1.257 . S
O138 Eu118 2.326 . S
O138 C126 1.242 . S
O139 Tb117 2.324 . S
O139 C126 1.258 . S
O140 Eu118 2.500 . S
O140 C123 1.273 . S
O141 Eu118 2.473 . S
O141 C123 1.257 . S
H142 C128 0.929 . S
H143 C130 0.931 . S
H144 C132 0.929 . S
O145 Tb146 2.292 . S
O145 C148 1.255 . S
Tb146 O145 2.292 . S
Tb146 O162 2.326 . S
Tb146 O164 2.500 . S
Tb146 O165 2.473 . S
Tb146 O168 2.324 . S
Eu147 O151 2.292 . S
Eu147 C152 2.852 . S
Eu147 O163 2.324 . S
Eu147 O167 2.326 . S
Eu147 O169 2.500 . S
Eu147 O170 2.473 . S
C148 O145 1.255 . S
C148 O149 1.247 . S
O149 C148 1.247 . S
C150 O162 1.242 . S
C150 O163 1.258 . S
O151 Eu147 2.292 . S
O151 C153 1.255 . S
C152 Eu147 2.852 . S
C152 C156 1.503 . S
C152 O169 1.273 . S
C152 O170 1.257 . S
C153 O151 1.255 . S
C153 O154 1.247 . S
O154 C153 1.247 . S
C155 O167 1.242 . S
C155 O168 1.258 . S
C156 C152 1.503 . S
C156 C157 1.379 . S
C156 C161 1.392 . S
C157 C156 1.379 . S
C157 C158 1.404 . S
C157 H171 0.929 . S
C158 C157 1.404 . S
C158 C159 1.389 . S
C159 C158 1.389 . S
C159 C160 1.399 . S
C159 H172 0.931 . S
C160 C159 1.399 . S
C160 C161 1.390 . S
C161 C156 1.392 . S
C161 C160 1.390 . S
C161 H173 0.929 . S
O162 Tb146 2.326 . S
O162 C150 1.242 . S
O163 Eu147 2.324 . S
O163 C150 1.258 . S
O164 Tb146 2.500 . S
O164 C166 1.273 . S
O165 Tb146 2.473 . S
O165 C166 1.257 . S
C166 O164 1.273 . S
C166 O165 1.257 . S
O167 Eu147 2.326 . S
O167 C155 1.242 . S
O168 Tb146 2.324 . S
O168 C155 1.258 . S
O169 Eu147 2.500 . S
O169 C152 1.273 . S
O170 Eu147 2.473 . S
O170 C152 1.257 . S
H171 C157 0.929 . S
H172 C159 0.931 . S
H173 C161 0.929 . S
O174 Tb175 2.292 1_554 S
O174 C177 1.255 . S
Tb175 O174 2.292 1_556 S
Tb175 O191 2.326 . S
Tb175 O193 2.500 . S
Tb175 O194 2.473 . S
Tb175 O197 2.324 . S
Eu176 O180 2.292 . S
Eu176 C181 2.852 . S
Eu176 O192 2.324 . S
Eu176 O196 2.326 . S
Eu176 O198 2.500 . S
Eu176 O199 2.473 . S
C177 O174 1.255 . S
C177 O178 1.247 . S
O178 C177 1.247 . S
C179 O191 1.242 . S
C179 O192 1.258 . S
O180 Eu176 2.292 . S
O180 C182 1.255 . S
C181 Eu176 2.852 . S
C181 C185 1.503 . S
C181 O198 1.273 . S
C181 O199 1.257 . S
C182 O180 1.255 . S
C182 O183 1.247 . S
O183 C182 1.247 . S
C184 O196 1.242 . S
C184 O197 1.258 . S
C185 C181 1.503 . S
C185 C186 1.379 . S
C185 C190 1.392 . S
C186 C185 1.379 . S
C186 C187 1.404 . S
C186 H200 0.929 . S
C187 C186 1.404 . S
C187 C188 1.389 . S
C188 C187 1.389 . S
C188 C189 1.399 . S
C188 H201 0.931 . S
C189 C188 1.399 . S
C189 C190 1.390 . S
C190 C185 1.392 . S
C190 C189 1.390 . S
C190 H202 0.929 . S
O191 Tb175 2.326 . S
O191 C179 1.242 . S
O192 Eu176 2.324 . S
O192 C179 1.258 . S
O193 Tb175 2.500 . S
O193 C195 1.273 . S
O194 Tb175 2.473 . S
O194 C195 1.257 . S
C195 O193 1.273 . S
C195 O194 1.257 . S
O196 Eu176 2.326 . S
O196 C184 1.242 . S
O197 Tb175 2.324 . S
O197 C184 1.258 . S
O198 Eu176 2.500 . S
O198 C181 1.273 . S
O199 Eu176 2.473 . S
O199 C181 1.257 . S
H200 C186 0.929 . S
H201 C188 0.931 . S
H202 C190 0.929 . S
O203 Tb204 2.292 1_554 S
O203 C206 1.255 . S
Tb204 O203 2.292 1_556 S
Tb204 O220 2.326 . S
Tb204 O222 2.500 . S
Tb204 O223 2.473 . S
Tb204 O226 2.324 . S
Eu205 O209 2.292 . S
Eu205 C210 2.852 . S
Eu205 O221 2.324 . S
Eu205 O225 2.326 . S
Eu205 O227 2.500 . S
Eu205 O228 2.473 . S
C206 O203 1.255 . S
C206 O207 1.247 . S
O207 C206 1.247 . S
C208 O220 1.242 . S
C208 O221 1.258 . S
O209 Eu205 2.292 . S
O209 C211 1.255 . S
C210 Eu205 2.852 . S
C210 C214 1.503 . S
C210 O227 1.273 . S
C210 O228 1.257 . S
C211 O209 1.255 . S
C211 O212 1.247 . S
O212 C211 1.247 . S
C213 O225 1.242 . S
C213 O226 1.258 . S
C214 C210 1.503 . S
C214 C215 1.379 . S
C214 C219 1.392 . S
C215 C214 1.379 . S
C215 C216 1.404 . S
C215 H229 0.929 . S
C216 C215 1.404 . S
C216 C217 1.389 . S
C217 C216 1.389 . S
C217 C218 1.399 . S
C217 H230 0.931 . S
C218 C217 1.399 . S
C218 C219 1.390 . S
C219 C214 1.392 . S
C219 C218 1.390 . S
C219 H231 0.929 . S
O220 Tb204 2.326 . S
O220 C208 1.242 . S
O221 Eu205 2.324 . S
O221 C208 1.258 . S
O222 Tb204 2.500 . S
O222 C224 1.273 . S
O223 Tb204 2.473 . S
O223 C224 1.257 . S
C224 O222 1.273 . S
C224 O223 1.257 . S
O225 Eu205 2.326 . S
O225 C213 1.242 . S
O226 Tb204 2.324 . S
O226 C213 1.258 . S
O227 Eu205 2.500 . S
O227 C210 1.273 . S
O228 Eu205 2.473 . S
O228 C210 1.257 . S
H229 C215 0.929 . S
H230 C217 0.931 . S
H231 C219 0.929 . S
O232 Tb233 2.292 1_554 S
O232 C235 1.255 . S
Tb233 O232 2.292 1_556 S
Tb233 O249 2.326 . S
Tb233 O251 2.500 . S
Tb233 O252 2.473 . S
Tb233 O255 2.324 . S
Eu234 O238 2.292 . S
Eu234 C239 2.852 . S
Eu234 O250 2.324 . S
Eu234 O254 2.326 . S
Eu234 O256 2.500 . S
Eu234 O257 2.473 . S
C235 O232 1.255 . S
C235 O236 1.247 . S
O236 C235 1.247 . S
C237 O249 1.242 . S
C237 O250 1.258 . S
O238 Eu234 2.292 . S
O238 C240 1.255 . S
C239 Eu234 2.852 . S
C239 C243 1.503 . S
C239 O256 1.273 . S
C239 O257 1.257 . S
C240 O238 1.255 . S
C240 O241 1.247 . S
O241 C240 1.247 . S
C242 O254 1.242 . S
C242 O255 1.258 . S
C243 C239 1.503 . S
C243 C244 1.379 . S
C243 C248 1.392 . S
C244 C243 1.379 . S
C244 C245 1.404 . S
C244 H258 0.929 . S
C245 C244 1.404 . S
C245 C246 1.389 . S
C246 C245 1.389 . S
C246 C247 1.399 . S
C246 H259 0.931 . S
C247 C246 1.399 . S
C247 C248 1.390 . S
C248 C243 1.392 . S
C248 C247 1.390 . S
C248 H260 0.929 . S
O249 Tb233 2.326 . S
O249 C237 1.242 . S
O250 Eu234 2.324 . S
O250 C237 1.258 . S
O251 Tb233 2.500 . S
O251 C253 1.273 . S
O252 Tb233 2.473 . S
O252 C253 1.257 . S
C253 O251 1.273 . S
C253 O252 1.257 . S
O254 Eu234 2.326 . S
O254 C242 1.242 . S
O255 Tb233 2.324 . S
O255 C242 1.258 . S
O256 Eu234 2.500 . S
O256 C239 1.273 . S
O257 Eu234 2.473 . S
O257 C239 1.257 . S
H258 C244 0.929 . S
H259 C246 0.931 . S
H260 C248 0.929 . S
O261 Tb262 2.292 . S
O261 C264 1.255 . S
Tb262 O261 2.292 . S
Tb262 O278 2.326 . S
Tb262 O280 2.500 . S
Tb262 O281 2.473 . S
Tb262 O284 2.324 . S
Eu263 O267 2.292 . S
Eu263 C268 2.852 . S
Eu263 O279 2.324 . S
Eu263 O283 2.326 . S
Eu263 O285 2.500 . S
Eu263 O286 2.473 . S
C264 O261 1.255 . S
C264 O265 1.247 . S
O265 C264 1.247 . S
C266 O278 1.242 . S
C266 O279 1.258 . S
O267 Eu263 2.292 . S
O267 C269 1.255 . S
C268 Eu263 2.852 . S
C268 C272 1.503 . S
C268 O285 1.273 . S
C268 O286 1.257 . S
C269 O267 1.255 . S
C269 O270 1.247 . S
O270 C269 1.247 . S
C271 O283 1.242 . S
C271 O284 1.258 . S
C272 C268 1.503 . S
C272 C273 1.379 . S
C272 C277 1.392 . S
C273 C272 1.379 . S
C273 C274 1.404 . S
C273 H287 0.929 . S
C274 C273 1.404 . S
C274 C275 1.389 . S
C275 C274 1.389 . S
C275 C276 1.399 . S
C275 H288 0.931 . S
C276 C275 1.399 . S
C276 C277 1.390 . S
C277 C272 1.392 . S
C277 C276 1.390 . S
C277 H289 0.929 . S
O278 Tb262 2.326 . S
O278 C266 1.242 . S
O279 Eu263 2.324 . S
O279 C266 1.258 . S
O280 Tb262 2.500 . S
O280 C282 1.273 . S
O281 Tb262 2.473 . S
O281 C282 1.257 . S
C282 O280 1.273 . S
C282 O281 1.257 . S
O283 Eu263 2.326 . S
O283 C271 1.242 . S
O284 Tb262 2.324 . S
O284 C271 1.258 . S
O285 Eu263 2.500 . S
O285 C268 1.273 . S
O286 Eu263 2.473 . S
O286 C268 1.257 . S
H287 C273 0.929 . S
H288 C275 0.931 . S
H289 C277 0.929 . S
O290 Tb291 2.292 . S
O290 C293 1.255 . S
Tb291 O290 2.292 . S
Tb291 O307 2.326 . S
Tb291 O309 2.500 . S
Tb291 O310 2.473 . S
Tb291 O313 2.324 . S
Eu292 O296 2.292 . S
Eu292 C297 2.852 . S
Eu292 O308 2.324 . S
Eu292 O312 2.326 . S
Eu292 O314 2.500 . S
Eu292 O315 2.473 . S
C293 O290 1.255 . S
C293 O294 1.247 . S
O294 C293 1.247 . S
C295 O307 1.242 . S
C295 O308 1.258 . S
O296 Eu292 2.292 . S
O296 C298 1.255 . S
C297 Eu292 2.852 . S
C297 C301 1.503 . S
C297 O314 1.273 . S
C297 O315 1.257 . S
C298 O296 1.255 . S
C298 O299 1.247 . S
O299 C298 1.247 . S
C300 O312 1.242 . S
C300 O313 1.258 . S
C301 C297 1.503 . S
C301 C302 1.379 . S
C301 C306 1.392 . S
C302 C301 1.379 . S
C302 C303 1.404 . S
C302 H316 0.929 . S
C303 C302 1.404 . S
C303 C304 1.389 . S
C304 C303 1.389 . S
C304 C305 1.399 . S
C304 H317 0.931 . S
C305 C304 1.399 . S
C305 C306 1.390 . S
C306 C301 1.392 . S
C306 C305 1.390 . S
C306 H318 0.929 . S
O307 Tb291 2.326 . S
O307 C295 1.242 . S
O308 Eu292 2.324 . S
O308 C295 1.258 . S
O309 Tb291 2.500 . S
O309 C311 1.273 . S
O310 Tb291 2.473 . S
O310 C311 1.257 . S
C311 O309 1.273 . S
C311 O310 1.257 . S
O312 Eu292 2.326 . S
O312 C300 1.242 . S
O313 Tb291 2.324 . S
O313 C300 1.258 . S
O314 Eu292 2.500 . S
O314 C297 1.273 . S
O315 Eu292 2.473 . S
O315 C297 1.257 . S
H316 C302 0.929 . S
H317 C304 0.931 . S
H318 C306 0.929 . S
O319 Tb320 2.292 . S
O319 C322 1.255 . S
Tb320 O319 2.292 . S
Tb320 O336 2.326 . S
Tb320 O338 2.500 . S
Tb320 O339 2.473 . S
Tb320 O342 2.324 . S
Eu321 O325 2.292 . S
Eu321 C326 2.852 . S
Eu321 O337 2.324 . S
Eu321 O341 2.326 . S
Eu321 O343 2.500 . S
Eu321 O344 2.473 . S
C322 O319 1.255 . S
C322 O323 1.247 . S
O323 C322 1.247 . S
C324 O336 1.242 . S
C324 O337 1.258 . S
O325 Eu321 2.292 . S
O325 C327 1.255 . S
C326 Eu321 2.852 . S
C326 C330 1.503 . S
C326 O343 1.273 . S
C326 O344 1.257 . S
C327 O325 1.255 . S
C327 O328 1.247 . S
O328 C327 1.247 . S
C329 O341 1.242 . S
C329 O342 1.258 . S
C330 C326 1.503 . S
C330 C331 1.379 . S
C330 C335 1.392 . S
C331 C330 1.379 . S
C331 C332 1.404 . S
C331 H345 0.929 . S
C332 C331 1.404 . S
C332 C333 1.389 . S
C333 C332 1.389 . S
C333 C334 1.399 . S
C333 H346 0.931 . S
C334 C333 1.399 . S
C334 C335 1.390 . S
C335 C330 1.392 . S
C335 C334 1.390 . S
C335 H347 0.929 . S
O336 Tb320 2.326 . S
O336 C324 1.242 . S
O337 Eu321 2.324 . S
O337 C324 1.258 . S
O338 Tb320 2.500 . S
O338 C340 1.273 . S
O339 Tb320 2.473 . S
O339 C340 1.257 . S
C340 O338 1.273 . S
C340 O339 1.257 . S
O341 Eu321 2.326 . S
O341 C329 1.242 . S
O342 Tb320 2.324 . S
O342 C329 1.258 . S
O343 Eu321 2.500 . S
O343 C326 1.273 . S
O344 Eu321 2.473 . S
O344 C326 1.257 . S
H345 C331 0.929 . S
H346 C333 0.931 . S
H347 C335 0.929 . S
C348 C349 1.349 . S
C348 C350 1.327 . S
C348 H373 0.950 . S
C349 C348 1.349 . S
C349 C365 1.349 . S
C350 C348 1.327 . S
C350 C369 1.429 1_565 S
C350 H374 0.950 1_556 S
C351 C368 1.574 . S
C351 C370 1.368 . S
C351 H375 0.949 . S
H352 C356 0.949 . S
C353 C354 1.349 . S
C353 C355 1.327 . S
C353 H376 0.969 . S
C354 C353 1.349 . S
C354 C366 1.349 . S
C355 C353 1.327 . S
C355 C371 1.429 . S
C355 H377 0.950 1_554 S
C356 H352 0.949 . S
C356 C364 1.574 . S
C356 C372 1.368 . S
H357 C365 0.950 . S
H358 C363 0.950 1_545 S
H359 C364 0.949 . S
H360 C366 0.950 . S
H361 C367 0.950 . S
H362 C368 0.949 . S
C363 H358 0.950 1_565 S
C363 C365 1.327 . S
C363 C369 1.429 1_565 S
C364 C356 1.574 . S
C364 H359 0.949 . S
C364 C370 1.368 1_554 S
C365 C349 1.349 . S
C365 H357 0.950 . S
C365 C363 1.327 . S
C366 C354 1.349 . S
C366 H360 0.950 . S
C366 C367 1.327 . S
C367 H361 0.950 . S
C367 C366 1.327 . S
C367 C371 1.429 . S
C368 C351 1.574 . S
C368 H362 0.949 . S
C368 C372 1.368 1_556 S
C369 C350 1.429 1_545 S
C369 C363 1.429 1_545 S
C369 C370 1.523 . S
C370 C351 1.368 . S
C370 C364 1.368 1_556 S
C370 C369 1.523 . S
C371 C355 1.429 . S
C371 C367 1.429 . S
C371 C372 1.523 . S
C372 C356 1.368 . S
C372 C368 1.368 1_554 S
C372 C371 1.523 . S
H373 C348 0.950 . S
H374 C350 0.950 1_554 S
H375 C351 0.949 . S
H376 C353 0.969 . S
H377 C355 0.950 1_556 S
C378 C379 1.349 . S
C378 C380 1.327 . S
C378 H403 0.950 . S
C379 C378 1.349 . S
C379 C395 1.349 . S
C380 C378 1.327 . S
C380 C399 1.429 . S
C380 H404 0.950 1_554 S
C381 C398 1.574 . S
C381 C400 1.368 . S
C381 H405 0.949 . S
H382 C386 0.949 . S
C383 C384 1.349 . S
C383 C385 1.327 . S
C383 H406 0.950 . S
C384 C383 1.349 . S
C384 C396 1.349 . S
C385 C383 1.327 . S
C385 C401 1.429 1_455 S
C385 H407 0.950 1_556 S
C386 H382 0.949 . S
C386 C394 1.574 . S
C386 C402 1.368 . S
H387 C395 0.950 . S
H388 C393 0.950 . S
H389 C394 0.949 . S
H390 C396 0.950 . S
H391 C397 0.950 1_655 S
H392 C398 0.949 . S
C393 H388 0.950 . S
C393 C395 1.327 . S
C393 C399 1.429 . S
C394 C386 1.574 . S
C394 H389 0.949 . S
C394 C400 1.368 1_556 S
C395 C379 1.349 . S
C395 H387 0.950 . S
C395 C393 1.327 . S
C396 C384 1.349 . S
C396 H390 0.950 . S
C396 C397 1.327 . S
C397 H391 0.950 1_455 S
C397 C396 1.327 . S
C397 C401 1.429 1_455 S
C398 C381 1.574 . S
C398 H392 0.949 . S
C398 C402 1.368 1_554 S
C399 C380 1.429 . S
C399 C393 1.429 . S
C399 C400 1.523 . S
C400 C381 1.368 . S
C400 C394 1.368 1_554 S
C400 C399 1.523 . S
C401 C385 1.429 1_655 S
C401 C397 1.429 1_655 S
C401 C402 1.523 . S
C402 C386 1.368 . S
C402 C398 1.368 1_556 S
C402 C401 1.523 . S
H403 C378 0.950 . S
H404 C380 0.950 1_556 S
H405 C381 0.949 . S
H406 C383 0.950 . S
H407 C385 0.950 1_554 S
C408 C409 1.349 . S
C408 C410 1.327 . S
C408 H433 0.950 . S
C409 C408 1.349 . S
C409 C425 1.349 . S
C410 C408 1.327 . S
C410 C429 1.429 . S
C410 H434 0.950 1_554 S
C411 C428 1.574 . S
C411 C430 1.368 . S
C411 H435 0.949 . S
H412 C416 0.949 . S
C413 C414 1.349 . S
C413 C415 1.327 . S
C413 H436 0.950 . S
C414 C413 1.349 . S
C414 C426 1.349 . S
C415 C413 1.327 . S
C415 C431 1.429 . S
C415 H437 0.950 1_556 S
C416 H412 0.949 . S
C416 C424 1.574 . S
C416 C432 1.368 . S
H417 C425 0.950 . S
H418 C423 0.950 . S
H419 C424 0.949 . S
H420 C426 0.950 . S
H421 C427 0.950 . S
H422 C428 0.949 . S
C423 H418 0.950 . S
C423 C425 1.327 . S
C423 C429 1.429 . S
C424 C416 1.574 . S
C424 H419 0.949 . S
C424 C430 1.368 1_556 S
C425 C409 1.349 . S
C425 H417 0.950 . S
C425 C423 1.327 . S
C426 C414 1.349 . S
C426 H420 0.950 . S
C426 C427 1.327 . S
C427 H421 0.950 . S
C427 C426 1.327 . S
C427 C431 1.429 . S
C428 C411 1.574 . S
C428 H422 0.949 . S
C428 C432 1.368 1_554 S
C429 C410 1.429 . S
C429 C423 1.429 . S
C429 C430 1.523 . S
C430 C411 1.368 . S
C430 C424 1.368 1_554 S
C430 C429 1.523 . S
C431 C415 1.429 . S
C431 C427 1.429 . S
C431 C432 1.523 . S
C432 C416 1.368 . S
C432 C428 1.368 1_556 S
C432 C431 1.523 . S
H433 C408 0.950 . S
H434 C410 0.950 1_556 S
H435 C411 0.949 . S
H436 C413 0.950 . S
H437 C415 0.950 1_554 S
C438 C439 1.349 . S
C438 C440 1.327 . S
C438 H463 0.950 . S
C439 C438 1.349 . S
C439 C455 1.349 . S
C440 C438 1.327 . S
C440 C459 1.429 . S
C440 H464 0.950 . S
C441 C458 1.574 . S
C441 C460 1.368 . S
C441 H465 0.949 . S
H442 C446 0.949 . S
C443 C444 1.349 . S
C443 C445 1.327 . S
C443 H466 0.950 . S
C444 C443 1.349 . S
C444 C456 1.349 . S
C445 C443 1.327 . S
C445 C461 1.429 1_655 S
C445 H467 0.950 . S
C446 H442 0.949 . S
C446 C454 1.574 . S
C446 C462 1.368 . S
H447 C455 0.950 . S
H448 C453 0.950 . S
H449 C454 0.949 . S
H450 C456 0.950 . S
H451 C457 0.950 1_455 S
H452 C458 0.949 . S
C453 H448 0.950 . S
C453 C455 1.327 . S
C453 C459 1.429 . S
C454 C446 1.574 . S
C454 H449 0.949 . S
C454 C460 1.368 . S
C455 C439 1.349 . S
C455 H447 0.950 . S
C455 C453 1.327 . S
C456 C444 1.349 . S
C456 H450 0.950 . S
C456 C457 1.327 . S
C457 H451 0.950 1_655 S
C457 C456 1.327 . S
C457 C461 1.429 1_655 S
C458 C441 1.574 . S
C458 H452 0.949 . S
C458 C462 1.368 . S
C459 C440 1.429 . S
C459 C453 1.429 . S
C459 C460 1.523 . S
C460 C441 1.368 . S
C460 C454 1.368 . S
C460 C459 1.523 . S
C461 C445 1.429 1_455 S
C461 C457 1.429 1_455 S
C461 C462 1.523 . S
C462 C446 1.368 . S
C462 C458 1.368 . S
C462 C461 1.523 . S
H463 C438 0.950 . S
H464 C440 0.950 . S
H465 C441 0.949 . S
H466 C443 0.950 . S
H467 C445 0.950 . S
C468 C469 1.349 . S
C468 C470 1.327 . S
C468 H493 0.950 . S
C469 C468 1.349 . S
C469 C485 1.349 . S
C470 C468 1.327 . S
C470 C489 1.429 . S
C470 H494 0.950 . S
C471 C488 1.574 . S
C471 C490 1.368 . S
C471 H495 0.949 . S
H472 C476 0.949 . S
C473 C474 1.349 . S
C473 C475 1.327 . S
C473 H496 0.950 . S
C474 C473 1.349 . S
C474 C486 1.349 . S
C475 C473 1.327 . S
C475 C491 1.429 . S
C475 H497 0.950 . S
C476 H472 0.949 . S
C476 C484 1.574 . S
C476 C492 1.368 . S
H477 C485 0.950 . S
H478 C483 0.950 . S
H479 C484 0.949 . S
H480 C486 0.950 . S
H481 C487 0.950 . S
H482 C488 0.949 . S
C483 H478 0.950 . S
C483 C485 1.327 . S
C483 C489 1.429 . S
C484 C476 1.574 . S
C484 H479 0.949 . S
C484 C490 1.368 . S
C485 C469 1.349 . S
C485 H477 0.950 . S
C485 C483 1.327 . S
C486 C474 1.349 . S
C486 H480 0.950 . S
C486 C487 1.327 . S
C487 H481 0.950 . S
C487 C486 1.327 . S
C487 C491 1.429 . S
C488 C471 1.574 . S
C488 H482 0.949 . S
C488 C492 1.368 . S
C489 C470 1.429 . S
C489 C483 1.429 . S
C489 C490 1.523 . S
C490 C471 1.368 . S
C490 C484 1.368 . S
C490 C489 1.523 . S
C491 C475 1.429 . S
C491 C487 1.429 . S
C491 C492 1.523 . S
C492 C476 1.368 . S
C492 C488 1.368 . S
C492 C491 1.523 . S
H493 C468 0.950 . S
H494 C470 0.950 . S
H495 C471 0.949 . S
H496 C473 0.950 . S
H497 C475 0.950 . S
C498 C499 1.349 . S
C498 C500 1.327 . S
C498 H523 0.950 . S
C499 C498 1.349 . S
C499 C515 1.349 . S
C500 C498 1.327 . S
C500 C519 1.429 . S
C500 H524 0.950 . S
C501 C518 1.574 . S
C501 C520 1.368 . S
C501 H525 0.949 . S
H502 C506 0.949 . S
C503 C504 1.349 . S
C503 C505 1.360 . S
C503 H526 0.950 . S
C504 C503 1.349 . S
C504 C516 1.349 . S
C505 C503 1.360 . S
C505 C521 1.418 1_545 S
C505 H527 0.928 1_545 S
C506 H502 0.949 . S
C506 C514 1.574 . S
C506 C522 1.368 . S
H507 C515 0.950 . S
H508 C513 0.950 . S
H509 C514 0.949 . S
H510 C516 0.950 . S
H511 C517 0.950 . S
H512 C518 0.949 . S
C513 H508 0.950 . S
C513 C515 1.327 . S
C513 C519 1.429 . S
C514 C506 1.574 . S
C514 H509 0.949 . S
C514 C520 1.368 . S
C515 C499 1.349 . S
C515 H507 0.950 . S
C515 C513 1.327 . S
C516 C504 1.349 . S
C516 H510 0.950 . S
C516 C517 1.327 . S
C517 H511 0.950 . S
C517 C516 1.327 . S
C517 C521 1.429 1_545 S
C518 C501 1.574 . S
C518 H512 0.949 . S
C518 C522 1.368 . S
C519 C500 1.429 . S
C519 C513 1.429 . S
C519 C520 1.523 . S
C520 C501 1.368 . S
C520 C514 1.368 . S
C520 C519 1.523 . S
C521 C505 1.418 1_565 S
C521 C517 1.429 1_565 S
C521 C522 1.523 . S
C522 C506 1.368 . S
C522 C518 1.368 . S
C522 C521 1.523 . S
H523 C498 0.950 . S
H524 C500 0.950 . S
H525 C501 0.949 . S
H526 C503 0.950 . S
H527 C505 0.928 1_565 S
C528 C529 1.349 . S
C528 C530 1.327 . S
C528 H553 0.950 . S
C529 C528 1.349 . S
C529 C545 1.349 . S
C530 C528 1.327 . S
C530 C549 1.429 . S
C530 H554 0.950 . S
C531 C548 1.574 . S
C531 C550 1.368 1_554 S
C531 H555 0.949 . S
H532 C536 0.949 . S
C533 C534 1.349 . S
C533 C535 1.327 . S
C533 H556 0.950 . S
C534 C533 1.349 . S
C534 C546 1.349 . S
C535 C533 1.327 . S
C535 C551 1.429 1_545 S
C535 H557 0.950 1_545 S
C536 H532 0.949 . S
C536 C544 1.574 . S
C536 C552 1.368 1_556 S
H537 C545 0.950 . S
H538 C543 0.950 1_554 S
H539 C544 0.949 . S
H540 C546 0.950 . S
H541 C547 0.950 1_556 S
H542 C548 0.949 . S
C543 H538 0.950 1_556 S
C543 C545 1.327 . S
C543 C549 1.429 . S
C544 C536 1.574 . S
C544 H539 0.949 . S
C544 C550 1.368 . S
C545 C529 1.349 . S
C545 H537 0.950 . S
C545 C543 1.327 . S
C546 C534 1.349 . S
C546 H540 0.950 . S
C546 C547 1.327 . S
C547 H541 0.950 1_554 S
C547 C546 1.327 . S
C547 C551 1.429 1_545 S
C548 C531 1.574 . S
C548 H542 0.949 . S
C548 C552 1.368 . S
C549 C530 1.429 . S
C549 C543 1.429 . S
C549 C550 1.523 . S
C550 C531 1.368 1_556 S
C550 C544 1.368 . S
C550 C549 1.523 . S
C551 C535 1.429 1_565 S
C551 C547 1.429 1_565 S
C551 C552 1.523 . S
C552 C536 1.368 1_554 S
C552 C548 1.368 . S
C552 C551 1.523 . S
H553 C528 0.950 . S
H554 C530 0.950 . S
H555 C531 0.949 . S
H556 C533 0.950 . S
H557 C535 0.950 1_565 S
C558 C559 1.349 . S
C558 C560 1.327 . S
C558 H583 0.950 . S
C559 C558 1.349 . S
C559 C575 1.349 . S
C560 C558 1.327 . S
C560 C579 1.429 . S
C560 H584 0.950 1_556 S
C561 C578 1.574 . S
C561 C580 1.368 . S
C561 H585 0.949 . S
H562 C566 0.949 . S
C563 C564 1.349 . S
C563 C565 1.327 . S
C563 H586 0.950 . S
C564 C563 1.349 . S
C564 C576 1.349 . S
C565 C563 1.327 . S
C565 C581 1.429 1_655 S
C565 H587 0.950 1_554 S
C566 H562 0.949 . S
C566 C574 1.574 . S
C566 C582 1.368 . S
H567 C575 0.950 . S
H568 C573 0.950 . S
H569 C574 0.949 . S
H570 C576 0.950 . S
H571 C577 0.950 1_455 S
H572 C578 0.949 . S
C573 H568 0.950 . S
C573 C575 1.327 . S
C573 C579 1.429 . S
C574 C566 1.574 . S
C574 H569 0.949 . S
C574 C580 1.368 1_554 S
C575 C559 1.349 . S
C575 H567 0.950 . S
C575 C573 1.327 . S
C576 C564 1.349 . S
C576 H570 0.950 . S
C576 C577 1.327 . S
C577 H571 0.950 1_655 S
C577 C576 1.327 . S
C577 C581 1.429 1_655 S
C578 C561 1.574 . S
C578 H572 0.949 . S
C578 C582 1.368 1_556 S
C579 C560 1.429 . S
C579 C573 1.429 . S
C579 C580 1.523 . S
C580 C561 1.368 . S
C580 C574 1.368 1_556 S
C580 C579 1.523 . S
C581 C565 1.429 1_455 S
C581 C577 1.429 1_455 S
C581 C582 1.523 . S
C582 C566 1.368 . S
C582 C578 1.368 1_554 S
C582 C581 1.523 . S
H583 C558 0.950 . S
H584 C560 0.950 1_554 S
H585 C561 0.949 . S
H586 C563 0.950 . S
H587 C565 0.950 1_556 S
C588 C589 1.349 . S
C588 C590 1.327 . S
C588 H613 0.950 . S
C589 C588 1.349 . S
C589 C605 1.349 . S
C590 C588 1.327 . S
C590 C609 1.429 . S
C590 H614 0.950 . S
C591 C608 1.574 . S
C591 C610 1.368 1_556 S
C591 H615 0.949 . S
H592 C596 0.949 . S
C593 C594 1.349 . S
C593 C595 1.327 . S
C593 H616 0.950 . S
C594 C593 1.349 . S
C594 C606 1.349 . S
C595 C593 1.327 . S
C595 C611 1.429 . S
C595 H617 0.950 . S
C596 H592 0.949 . S
C596 C604 1.574 . S
C596 C612 1.368 1_554 S
H597 C605 0.950 . S
H598 C603 0.966 . S
H599 C604 0.949 . S
H600 C606 0.950 . S
H601 C607 0.953 . S
H602 C608 0.949 . S
C603 H598 0.966 . S
C603 C605 1.327 . S
C603 C609 1.429 . S
C604 C596 1.574 . S
C604 H599 0.949 . S
C604 C610 1.368 . S
C605 C589 1.349 . S
C605 H597 0.950 . S
C605 C603 1.327 . S
C606 C594 1.349 . S
C606 H600 0.950 . S
C606 C607 1.327 . S
C607 H601 0.953 . S
C607 C606 1.327 . S
C607 C611 1.429 . S
C608 C591 1.574 . S
C608 H602 0.949 . S
C608 C612 1.368 . S
C609 C590 1.429 . S
C609 C603 1.429 . S
C609 C610 1.523 . S
C610 C591 1.368 1_554 S
C610 C604 1.368 . S
C610 C609 1.523 . S
C611 C595 1.429 . S
C611 C607 1.429 . S
C611 C612 1.523 . S
C612 C596 1.368 1_556 S
C612 C608 1.368 . S
C612 C611 1.523 . S
H613 C588 0.950 . S
H614 C590 0.950 . S
H615 C591 0.949 . S
H616 C593 0.950 . S
H617 C595 0.950 . S
C618 C619 1.349 . S
C618 C620 1.327 . S
C618 H643 0.950 . S
C619 C618 1.349 . S
C619 C635 1.349 . S
C620 C618 1.327 . S
C620 C639 1.429 . S
C620 H644 0.950 . S
C621 C638 1.574 . S
C621 C640 1.368 . S
C621 H645 0.949 . S
H622 C626 0.949 . S
C623 C624 1.349 . S
C623 C625 1.327 . S
C623 H646 0.950 . S
C624 C623 1.349 . S
C624 C636 1.349 . S
C625 C623 1.327 . S
C625 C641 1.429 1_455 S
C625 H647 0.950 . S
C626 H622 0.949 . S
C626 C634 1.574 . S
C626 C642 1.368 . S
H627 C635 0.950 . S
H628 C633 0.950 . S
H629 C634 0.949 . S
H630 C636 0.950 . S
H631 C637 0.950 1_655 S
H632 C638 0.949 . S
C633 H628 0.950 . S
C633 C635 1.327 . S
C633 C639 1.429 . S
C634 C626 1.574 . S
C634 H629 0.949 . S
C634 C640 1.368 . S
C635 C619 1.349 . S
C635 H627 0.950 . S
C635 C633 1.327 . S
C636 C624 1.349 . S
C636 H630 0.950 . S
C636 C637 1.327 . S
C637 H631 0.950 1_455 S
C637 C636 1.327 . S
C637 C641 1.429 1_455 S
C638 C621 1.574 . S
C638 H632 0.949 . S
C638 C642 1.368 . S
C639 C620 1.429 . S
C639 C633 1.429 . S
C639 C640 1.523 . S
C640 C621 1.368 . S
C640 C634 1.368 . S
C640 C639 1.523 . S
C641 C625 1.429 1_655 S
C641 C637 1.429 1_655 S
C641 C642 1.523 . S
C642 C626 1.368 . S
C642 C638 1.368 . S
C642 C641 1.523 . S
H643 C618 0.950 . S
H644 C620 0.950 . S
H645 C621 0.949 . S
H646 C623 0.950 . S
H647 C625 0.950 . S
C648 C649 1.349 . S
C648 C650 1.327 . S
C648 H673 0.950 . S
C649 C648 1.349 . S
C649 C665 1.349 . S
C650 C648 1.327 . S
C650 C669 1.429 . S
C650 H674 0.950 . S
C651 C668 1.574 . S
C651 C670 1.368 . S
C651 H675 0.949 . S
H652 C656 0.949 . S
C653 C654 1.349 . S
C653 C655 1.327 . S
C653 H676 0.950 . S
C654 C653 1.349 . S
C654 C666 1.349 . S
C655 C653 1.327 . S
C655 C671 1.429 . S
C655 H677 0.950 . S
C656 H652 0.949 . S
C656 C664 1.574 . S
C656 C672 1.368 . S
H657 C665 0.950 . S
H658 C663 0.950 . S
H659 C664 0.949 . S
H660 C666 0.950 . S
H661 C667 0.950 . S
H662 C668 0.949 . S
C663 H658 0.950 . S
C663 C665 1.327 . S
C663 C669 1.429 . S
C664 C656 1.574 . S
C664 H659 0.949 . S
C664 C670 1.368 . S
C665 C649 1.349 . S
C665 H657 0.950 . S
C665 C663 1.327 . S
C666 C654 1.349 . S
C666 H660 0.950 . S
C666 C667 1.327 . S
C667 H661 0.950 . S
C667 C666 1.327 . S
C667 C671 1.429 . S
C668 C651 1.574 . S
C668 H662 0.949 . S
C668 C672 1.368 . S
C669 C650 1.429 . S
C669 C663 1.429 . S
C669 C670 1.523 . S
C670 C651 1.368 . S
C670 C664 1.368 . S
C670 C669 1.523 . S
C671 C655 1.429 . S
C671 C667 1.429 . S
C671 C672 1.523 . S
C672 C656 1.368 . S
C672 C668 1.368 . S
C672 C671 1.523 . S
H673 C648 0.950 . S
H674 C650 0.950 . S
H675 C651 0.949 . S
H676 C653 0.950 . S
H677 C655 0.950 . S
C678 C679 1.349 . S
C678 C680 1.364 . S
C678 H703 0.950 . S
C679 C678 1.349 . S
C679 C695 1.349 . S
C680 C678 1.364 . S
C680 C699 1.431 1_565 S
C680 H704 0.910 1_565 S
C681 C698 1.574 . S
C681 C700 1.368 . S
C681 H705 0.949 . S
H682 C686 0.949 . S
C683 C684 1.349 . S
C683 C685 1.327 . S
C683 H706 0.950 . S
C684 C683 1.349 . S
C684 C696 1.349 . S
C685 C683 1.327 . S
C685 C701 1.429 . S
C685 H707 0.950 . S
C686 H682 0.949 . S
C686 C694 1.574 . S
C686 C702 1.368 . S
H687 C695 0.950 . S
H688 C693 0.950 . S
H689 C694 0.949 . S
H690 C696 0.950 . S
H691 C697 0.950 . S
H692 C698 0.949 . S
C693 H688 0.950 . S
C693 C695 1.327 . S
C693 C699 1.429 1_565 S
C694 C686 1.574 . S
C694 H689 0.949 . S
C694 C700 1.368 . S
C695 C679 1.349 . S
C695 H687 0.950 . S
C695 C693 1.327 . S
C696 C684 1.349 . S
C696 H690 0.950 . S
C696 C697 1.327 . S
C697 H691 0.950 . S
C697 C696 1.327 . S
C697 C701 1.429 . S
C698 C681 1.574 . S
C698 H692 0.949 . S
C698 C702 1.368 . S
C699 C680 1.431 1_545 S
C699 C693 1.429 1_545 S
C699 C700 1.523 . S
C700 C681 1.368 . S
C700 C694 1.368 . S
C700 C699 1.523 . S
C701 C685 1.429 . S
C701 C697 1.429 . S
C701 C702 1.523 . S
C702 C686 1.368 . S
C702 C698 1.368 . S
C702 C701 1.523 . S
H703 C678 0.950 . S
H704 C680 0.910 1_545 S
H705 C681 0.949 . S
H706 C683 0.950 . S
H707 C685 0.950 . S
C708 C709 1.349 . S
C708 C710 1.327 . S
C708 H733 0.950 . S
C709 C708 1.349 . S
C709 C725 1.349 . S
C710 C708 1.327 . S
C710 C729 1.429 . S
C710 H734 0.950 . S
C711 C728 1.574 . S
C711 C730 1.368 . S
C711 H735 0.949 . S
H712 C716 0.949 . S
C713 C714 1.349 . S
C713 C715 1.327 . S
C713 H736 0.950 . S
C714 C713 1.349 . S
C714 C726 1.349 . S
C715 C713 1.327 . S
C715 C731 1.429 . S
C715 H737 0.950 . S
C716 H712 0.949 . S
C716 C724 1.574 . S
C716 C732 1.368 . S
H717 C725 0.950 . S
H718 C723 0.950 . S
H719 C724 0.949 . S
H720 C726 0.950 . S
H721 C727 0.950 . S
H722 C728 0.949 . S
C723 H718 0.950 . S
C723 C725 1.327 . S
C723 C729 1.429 . S
C724 C716 1.574 . S
C724 H719 0.949 . S
C724 C730 1.368 . S
C725 C709 1.349 . S
C725 H717 0.950 . S
C725 C723 1.327 . S
C726 C714 1.349 . S
C726 H720 0.950 . S
C726 C727 1.327 . S
C727 H721 0.950 . S
C727 C726 1.327 . S
C727 C731 1.429 . S
C728 C711 1.574 . S
C728 H722 0.949 . S
C728 C732 1.368 . S
C729 C710 1.429 . S
C729 C723 1.429 . S
C729 C730 1.523 . S
C730 C711 1.368 . S
C730 C724 1.368 . S
C730 C729 1.523 . S
C731 C715 1.429 . S
C731 C727 1.429 . S
C731 C732 1.523 . S
C732 C716 1.368 . S
C732 C728 1.368 . S
C732 C731 1.523 . S
H733 C708 0.950 . S
H734 C710 0.950 . S
H735 C711 0.949 . S
H736 C713 0.950 . S
H737 C715 0.950 . S
C738 C739 1.349 . S
C738 C740 1.327 . S
C738 H763 0.950 . S
C739 C738 1.349 . S
C739 C755 1.349 . S
C740 C738 1.327 . S
C740 C759 1.429 . S
C740 H764 0.950 . S
C741 C758 1.574 . S
C741 C760 1.368 . S
C741 H765 0.949 . S
H742 C746 0.949 . S
C743 C744 1.349 . S
C743 C745 1.327 . S
C743 H766 0.950 . S
C744 C743 1.349 . S
C744 C756 1.349 . S
C745 C743 1.327 . S
C745 C761 1.429 . S
C745 H767 0.950 . S
C746 H742 0.949 . S
C746 C754 1.574 . S
C746 C762 1.368 . S
H747 C755 0.950 . S
H748 C753 0.950 . S
H749 C754 0.949 . S
H750 C756 0.950 . S
H751 C757 0.950 . S
H752 C758 0.949 . S
C753 H748 0.950 . S
C753 C755 1.327 . S
C753 C759 1.429 . S
C754 C746 1.574 . S
C754 H749 0.949 . S
C754 C760 1.368 1_565 S
C755 C739 1.349 . S
C755 H747 0.950 . S
C755 C753 1.327 . S
C756 C744 1.349 . S
C756 H750 0.950 . S
C756 C757 1.327 . S
C757 H751 0.950 . S
C757 C756 1.327 . S
C757 C761 1.429 . S
C758 C741 1.574 . S
C758 H752 0.949 . S
C758 C762 1.368 1_545 S
C759 C740 1.429 . S
C759 C753 1.429 . S
C759 C760 1.523 . S
C760 C741 1.368 . S
C760 C754 1.368 1_545 S
C760 C759 1.523 . S
C761 C745 1.429 . S
C761 C757 1.429 . S
C761 C762 1.523 . S
C762 C746 1.368 . S
C762 C758 1.368 1_565 S
C762 C761 1.523 . S
H763 C738 0.950 . S
H764 C740 0.950 . S
H765 C741 0.949 . S
H766 C743 0.950 . S
H767 C745 0.950 . S
C768 C769 1.349 . S
C768 C770 1.327 . S
C768 H793 0.950 . S
C769 C768 1.349 . S
C769 C785 1.349 . S
C770 C768 1.327 . S
C770 C789 1.429 . S
C770 H794 0.950 . S
C771 C788 1.574 1_655 S
C771 C790 1.368 . S
C771 H795 0.949 . S
H772 C776 0.949 . S
C773 C774 1.349 . S
C773 C775 1.327 . S
C773 H796 0.950 . S
C774 C773 1.349 . S
C774 C786 1.349 . S
C775 C773 1.327 . S
C775 C791 1.429 . S
C775 H797 0.950 . S
C776 H772 0.949 . S
C776 C784 1.574 1_455 S
C776 C792 1.368 . S
H777 C785 0.950 . S
H778 C783 0.950 . S
H779 C784 0.949 . S
H780 C786 0.950 . S
H781 C787 0.950 . S
H782 C788 0.949 . S
C783 H778 0.950 . S
C783 C785 1.327 . S
C783 C789 1.429 . S
C784 C776 1.574 1_655 S
C784 H779 0.949 . S
C784 C790 1.368 . S
C785 C769 1.349 . S
C785 H777 0.950 . S
C785 C783 1.327 . S
C786 C774 1.349 . S
C786 H780 0.950 . S
C786 C787 1.327 . S
C787 H781 0.950 . S
C787 C786 1.327 . S
C787 C791 1.429 . S
C788 C771 1.574 1_455 S
C788 H782 0.949 . S
C788 C792 1.368 . S
C789 C770 1.429 . S
C789 C783 1.429 . S
C789 C790 1.523 . S
C790 C771 1.368 . S
C790 C784 1.368 . S
C790 C789 1.523 . S
C791 C775 1.429 . S
C791 C787 1.429 . S
C791 C792 1.523 . S
C792 C776 1.368 . S
C792 C788 1.368 . S
C792 C791 1.523 . S
H793 C768 0.950 . S
H794 C770 0.950 . S
H795 C771 0.949 . S
H796 C773 0.950 . S
H797 C775 0.950 . S
C798 C799 1.349 . S
C798 C800 1.327 . S
C798 H823 0.950 . S
C799 C798 1.349 . S
C799 C815 1.349 . S
C800 C798 1.327 . S
C800 C819 1.429 . S
C800 H824 0.950 . S
C801 C818 1.574 . S
C801 C820 1.368 . S
C801 H825 0.949 . S
H802 C806 0.949 . S
C803 C804 1.349 . S
C803 C805 1.327 . S
C803 H826 0.950 . S
C804 C803 1.349 . S
C804 C816 1.349 . S
C805 C803 1.327 . S
C805 C821 1.429 . S
C805 H827 0.950 . S
C806 H802 0.949 . S
C806 C814 1.574 . S
C806 C822 1.368 . S
H807 C815 0.950 . S
H808 C813 0.950 . S
H809 C814 0.949 . S
H810 C816 0.950 . S
H811 C817 0.950 . S
H812 C818 0.949 . S
C813 H808 0.950 . S
C813 C815 1.327 . S
C813 C819 1.429 . S
C814 C806 1.574 . S
C814 H809 0.949 . S
C814 C820 1.368 . S
C815 C799 1.349 . S
C815 H807 0.950 . S
C815 C813 1.327 . S
C816 C804 1.349 . S
C816 H810 0.950 . S
C816 C817 1.327 . S
C817 H811 0.950 . S
C817 C816 1.327 . S
C817 C821 1.429 . S
C818 C801 1.574 . S
C818 H812 0.949 . S
C818 C822 1.368 . S
C819 C800 1.429 . S
C819 C813 1.429 . S
C819 C820 1.523 . S
C820 C801 1.368 . S
C820 C814 1.368 . S
C820 C819 1.523 . S
C821 C805 1.429 . S
C821 C817 1.429 . S
C821 C822 1.523 . S
C822 C806 1.368 . S
C822 C818 1.368 . S
C822 C821 1.523 . S
H823 C798 0.950 . S
H824 C800 0.950 . S
H825 C801 0.949 . S
H826 C803 0.950 . S
H827 C805 0.950 . S
C828 C829 1.349 . S
C828 C830 1.327 . S
C828 H853 0.950 . S
C829 C828 1.349 . S
C829 C845 1.349 . S
C830 C828 1.327 . S
C830 C849 1.429 . S
C830 H854 0.950 . S
C831 C848 1.574 . S
C831 C850 1.368 . S
C831 H855 0.949 . S
H832 C836 0.949 . S
C833 C834 1.349 . S
C833 C835 1.327 . S
C833 H856 0.950 . S
C834 C833 1.349 . S
C834 C846 1.349 . S
C835 C833 1.327 . S
C835 C851 1.429 . S
C835 H857 0.950 . S
C836 H832 0.949 . S
C836 C844 1.574 . S
C836 C852 1.368 . S
H837 C845 0.950 . S
H838 C843 0.950 . S
H839 C844 0.949 . S
H840 C846 0.950 . S
H841 C847 0.950 . S
H842 C848 0.949 . S
C843 H838 0.950 . S
C843 C845 1.327 . S
C843 C849 1.429 . S
C844 C836 1.574 . S
C844 H839 0.949 . S
C844 C850 1.368 1_565 S
C845 C829 1.349 . S
C845 H837 0.950 . S
C845 C843 1.327 . S
C846 C834 1.349 . S
C846 H840 0.950 . S
C846 C847 1.327 . S
C847 H841 0.950 . S
C847 C846 1.327 . S
C847 C851 1.429 . S
C848 C831 1.574 . S
C848 H842 0.949 . S
C848 C852 1.368 1_545 S
C849 C830 1.429 . S
C849 C843 1.429 . S
C849 C850 1.523 . S
C850 C831 1.368 . S
C850 C844 1.368 1_545 S
C850 C849 1.523 . S
C851 C835 1.429 . S
C851 C847 1.429 . S
C851 C852 1.523 . S
C852 C836 1.368 . S
C852 C848 1.368 1_565 S
C852 C851 1.523 . S
H853 C828 0.950 . S
H854 C830 0.950 . S
H855 C831 0.949 . S
H856 C833 0.950 . S
H857 C835 0.950 . S
C858 C859 1.349 . S
C858 C860 1.327 . S
C858 H883 0.950 . S
C859 C858 1.349 . S
C859 C875 1.349 . S
C860 C858 1.327 . S
C860 C879 1.429 . S
C860 H884 0.950 . S
C861 C878 1.574 . S
C861 C880 1.368 . S
C861 H885 0.949 . S
H862 C866 0.949 . S
C863 C864 1.349 . S
C863 C865 1.327 . S
C863 H886 0.950 . S
C864 C863 1.349 . S
C864 C876 1.349 . S
C865 C863 1.327 . S
C865 C881 1.429 . S
C865 H887 0.950 . S
C866 H862 0.949 . S
C866 C874 1.574 . S
C866 C882 1.368 . S
H867 C875 0.950 . S
H868 C873 0.950 . S
H869 C874 0.949 . S
H870 C876 0.950 . S
H871 C877 0.950 . S
H872 C878 0.949 . S
C873 H868 0.950 . S
C873 C875 1.327 . S
C873 C879 1.429 . S
C874 C866 1.574 . S
C874 H869 0.949 . S
C874 C880 1.368 1_455 S
C875 C859 1.349 . S
C875 H867 0.950 . S
C875 C873 1.327 . S
C876 C864 1.349 . S
C876 H870 0.950 . S
C876 C877 1.327 . S
C877 H871 0.950 . S
C877 C876 1.327 . S
C877 C881 1.429 . S
C878 C861 1.574 . S
C878 H872 0.949 . S
C878 C882 1.368 1_655 S
C879 C860 1.429 . S
C879 C873 1.429 . S
C879 C880 1.523 . S
C880 C861 1.368 . S
C880 C874 1.368 1_655 S
C880 C879 1.523 . S
C881 C865 1.429 . S
C881 C877 1.429 . S
C881 C882 1.523 . S
C882 C866 1.368 . S
C882 C878 1.368 1_455 S
C882 C881 1.523 . S
H883 C858 0.950 . S
H884 C860 0.950 . S
H885 C861 0.949 . S
H886 C863 0.950 . S
H887 C865 0.950 . S
C888 C889 1.349 . S
C888 C890 1.327 . S
C888 H913 0.950 . S
C889 C888 1.349 . S
C889 C905 1.349 . S
C890 C888 1.327 . S
C890 C909 1.429 . S
C890 H914 0.950 . S
C891 C908 1.574 . S
C891 C910 1.368 . S
C891 H915 0.949 . S
H892 C896 0.949 . S
C893 C894 1.349 . S
C893 C895 1.327 . S
C893 H916 0.950 . S
C894 C893 1.349 . S
C894 C906 1.349 . S
C895 C893 1.327 . S
C895 C911 1.429 . S
C895 H917 0.950 . S
C896 H892 0.949 . S
C896 C904 1.574 . S
C896 C912 1.368 . S
H897 C905 0.950 . S
H898 C903 0.950 . S
H899 C904 0.949 . S
H900 C906 0.950 . S
H901 C907 0.950 . S
H902 C908 0.949 . S
C903 H898 0.950 . S
C903 C905 1.327 . S
C903 C909 1.429 . S
C904 C896 1.574 . S
C904 H899 0.949 . S
C904 C910 1.368 . S
C905 C889 1.349 . S
C905 H897 0.950 . S
C905 C903 1.327 . S
C906 C894 1.349 . S
C906 H900 0.950 . S
C906 C907 1.327 . S
C907 H901 0.950 . S
C907 C906 1.327 . S
C907 C911 1.429 . S
C908 C891 1.574 . S
C908 H902 0.949 . S
C908 C912 1.368 . S
C909 C890 1.429 . S
C909 C903 1.429 . S
C909 C910 1.523 . S
C910 C891 1.368 . S
C910 C904 1.368 . S
C910 C909 1.523 . S
C911 C895 1.429 . S
C911 C907 1.429 . S
C911 C912 1.523 . S
C912 C896 1.368 . S
C912 C908 1.368 . S
C912 C911 1.523 . S
H913 C888 0.950 . S
H914 C890 0.950 . S
H915 C891 0.949 . S
H916 C893 0.950 . S
H917 C895 0.950 . S
C918 C919 1.349 . S
C918 C920 1.327 . S
C918 H943 0.950 . S
C919 C918 1.349 . S
C919 C935 1.349 . S
C920 C918 1.327 . S
C920 C939 1.429 . S
C920 H944 0.950 . S
C921 C938 1.574 . S
C921 C940 1.368 . S
C921 H945 0.949 . S
H922 C926 0.949 . S
C923 C924 1.349 . S
C923 C925 1.327 . S
C923 H946 0.950 . S
C924 C923 1.349 . S
C924 C936 1.349 . S
C925 C923 1.327 . S
C925 C941 1.429 . S
C925 H947 0.950 . S
C926 H922 0.949 . S
C926 C934 1.574 . S
C926 C942 1.368 . S
H927 C935 0.950 . S
H928 C933 0.950 . S
H929 C934 0.949 . S
H930 C936 0.950 . S
H931 C937 0.950 . S
H932 C938 0.949 . S
C933 H928 0.950 . S
C933 C935 1.327 . S
C933 C939 1.429 . S
C934 C926 1.574 . S
C934 H929 0.949 . S
C934 C940 1.368 . S
C935 C919 1.349 . S
C935 H927 0.950 . S
C935 C933 1.327 . S
C936 C924 1.349 . S
C936 H930 0.950 . S
C936 C937 1.327 . S
C937 H931 0.950 . S
C937 C936 1.327 . S
C937 C941 1.429 . S
C938 C921 1.574 . S
C938 H932 0.949 . S
C938 C942 1.368 . S
C939 C920 1.429 . S
C939 C933 1.429 . S
C939 C940 1.523 . S
C940 C921 1.368 . S
C940 C934 1.368 . S
C940 C939 1.523 . S
C941 C925 1.429 . S
C941 C937 1.429 . S
C941 C942 1.523 . S
C942 C926 1.368 . S
C942 C938 1.368 . S
C942 C941 1.523 . S
H943 C918 0.950 . S
H944 C920 0.950 . S
H945 C921 0.949 . S
H946 C923 0.950 . S
H947 C925 0.950 . S
C948 C949 1.349 . S
C948 C950 1.327 . S
C948 H973 0.950 . S
C949 C948 1.349 . S
C949 C965 1.349 . S
C950 C948 1.327 . S
C950 C969 1.429 . S
C950 H974 0.950 . S
C951 C968 1.574 . S
C951 C970 1.368 . S
C951 H975 0.949 . S
H952 C956 0.949 . S
C953 C954 1.349 . S
C953 C955 1.327 . S
C953 H976 0.950 . S
C954 C953 1.349 . S
C954 C966 1.349 . S
C955 C953 1.327 . S
C955 C971 1.429 . S
C955 H977 0.950 . S
C956 H952 0.949 . S
C956 C964 1.574 . S
C956 C972 1.368 . S
H957 C965 0.950 . S
H958 C963 0.950 . S
H959 C964 0.949 . S
H960 C966 0.950 . S
H961 C967 0.950 . S
H962 C968 0.949 . S
C963 H958 0.950 . S
C963 C965 1.327 . S
C963 C969 1.429 . S
C964 C956 1.574 . S
C964 H959 0.949 . S
C964 C970 1.368 . S
C965 C949 1.349 . S
C965 H957 0.950 . S
C965 C963 1.327 . S
C966 C954 1.349 . S
C966 H960 0.950 . S
C966 C967 1.327 . S
C967 H961 0.950 . S
C967 C966 1.327 . S
C967 C971 1.429 . S
C968 C951 1.574 . S
C968 H962 0.949 . S
C968 C972 1.368 . S
C969 C950 1.429 . S
C969 C963 1.429 . S
C969 C970 1.523 . S
C970 C951 1.368 . S
C970 C964 1.368 . S
C970 C969 1.523 . S
C971 C955 1.429 . S
C971 C967 1.429 . S
C971 C972 1.523 . S
C972 C956 1.368 . S
C972 C968 1.368 . S
C972 C971 1.523 . S
H973 C948 0.950 . S
H974 C950 0.950 . S
H975 C951 0.949 . S
H976 C953 0.950 . S
H977 C955 0.950 . S
C978 C979 1.349 . S
C978 C980 1.327 . S
C978 H1003 0.950 . S
C979 C978 1.349 . S
C979 C995 1.349 . S
C980 C978 1.327 . S
C980 C999 1.429 . S
C980 H1004 0.950 . S
C981 C998 1.574 . S
C981 C1000 1.368 . S
C981 H1005 0.949 . S
H982 C986 0.949 . S
C983 C984 1.349 . S
C983 C985 1.327 . S
C983 H1006 0.950 . S
C984 C983 1.349 . S
C984 C996 1.349 . S
C985 C983 1.327 . S
C985 C1001 1.429 . S
C985 H1007 0.950 . S
C986 H982 0.949 . S
C986 C994 1.574 . S
C986 C1002 1.368 . S
H987 C995 0.950 . S
H988 C993 0.950 . S
H989 C994 0.949 . S
H990 C996 0.950 . S
H991 C997 0.950 . S
H992 C998 0.949 . S
C993 H988 0.950 . S
C993 C995 1.327 . S
C993 C999 1.429 . S
C994 C986 1.574 . S
C994 H989 0.949 . S
C994 C1000 1.368 . S
C995 C979 1.349 . S
C995 H987 0.950 . S
C995 C993 1.327 . S
C996 C984 1.349 . S
C996 H990 0.950 . S
C996 C997 1.327 . S
C997 H991 0.950 . S
C997 C996 1.327 . S
C997 C1001 1.429 . S
C998 C981 1.574 . S
C998 H992 0.949 . S
C998 C1002 1.368 . S
C999 C980 1.429 . S
C999 C993 1.429 . S
C999 C1000 1.523 . S
C1000 C981 1.368 . S
C1000 C994 1.368 . S
C1000 C999 1.523 . S
C1001 C985 1.429 . S
C1001 C997 1.429 . S
C1001 C1002 1.523 . S
C1002 C986 1.368 . S
C1002 C998 1.368 . S
C1002 C1001 1.523 . S
H1003 C978 0.950 . S
H1004 C980 0.950 . S
H1005 C981 0.949 . S
H1006 C983 0.950 . S
H1007 C985 0.950 . S
C1008 C1009 1.349 . S
C1008 C1010 1.327 . S
C1008 H1033 0.950 . S
C1009 C1008 1.349 . S
C1009 C1025 1.349 . S
C1010 C1008 1.327 . S
C1010 C1029 1.429 . S
C1010 H1034 0.950 . S
C1011 C1028 1.574 . S
C1011 C1030 1.368 . S
C1011 H1035 0.949 . S
H1012 C1016 0.949 . S
C1013 C1014 1.349 . S
C1013 C1015 1.327 . S
C1013 H1036 0.950 . S
C1014 C1013 1.349 . S
C1014 C1026 1.349 . S
C1015 C1013 1.327 . S
C1015 C1031 1.429 . S
C1015 H1037 0.950 . S
C1016 H1012 0.949 . S
C1016 C1024 1.574 . S
C1016 C1032 1.368 . S
H1017 C1025 0.950 . S
H1018 C1023 0.950 . S
H1019 C1024 0.949 . S
H1020 C1026 0.950 . S
H1021 C1027 0.950 . S
H1022 C1028 0.949 . S
C1023 H1018 0.950 . S
C1023 C1025 1.327 . S
C1023 C1029 1.429 . S
C1024 C1016 1.574 . S
C1024 H1019 0.949 . S
C1024 C1030 1.368 . S
C1025 C1009 1.349 . S
C1025 H1017 0.950 . S
C1025 C1023 1.327 . S
C1026 C1014 1.349 . S
C1026 H1020 0.950 . S
C1026 C1027 1.327 . S
C1027 H1021 0.950 . S
C1027 C1026 1.327 . S
C1027 C1031 1.429 . S
C1028 C1011 1.574 . S
C1028 H1022 0.949 . S
C1028 C1032 1.368 . S
C1029 C1010 1.429 . S
C1029 C1023 1.429 . S
C1029 C1030 1.523 . S
C1030 C1011 1.368 . S
C1030 C1024 1.368 . S
C1030 C1029 1.523 . S
C1031 C1015 1.429 . S
C1031 C1027 1.429 . S
C1031 C1032 1.523 . S
C1032 C1016 1.368 . S
C1032 C1028 1.368 . S
C1032 C1031 1.523 . S
H1033 C1008 0.950 . S
H1034 C1010 0.950 . S
H1035 C1011 0.949 . S
H1036 C1013 0.950 . S
H1037 C1015 0.950 . S
C1038 C1039 1.349 . S
C1038 C1040 1.327 . S
C1038 H1063 0.950 . S
C1039 C1038 1.349 . S
C1039 C1055 1.349 . S
C1040 C1038 1.327 . S
C1040 C1059 1.429 . S
C1040 H1064 0.950 . S
C1041 C1058 1.574 . S
C1041 C1060 1.368 . S
C1041 H1065 0.949 . S
H1042 C1046 0.949 . S
C1043 C1044 1.349 . S
C1043 C1045 1.327 . S
C1043 H1066 0.950 . S
C1044 C1043 1.349 . S
C1044 C1056 1.349 . S
C1045 C1043 1.327 . S
C1045 C1061 1.429 . S
C1045 H1067 0.950 . S
C1046 H1042 0.949 . S
C1046 C1054 1.574 . S
C1046 C1062 1.368 . S
H1047 C1055 0.950 . S
H1048 C1053 0.950 . S
H1049 C1054 0.949 . S
H1050 C1056 0.950 . S
H1051 C1057 0.950 . S
H1052 C1058 0.949 . S
C1053 H1048 0.950 . S
C1053 C1055 1.327 . S
C1053 C1059 1.429 . S
C1054 C1046 1.574 . S
C1054 H1049 0.949 . S
C1054 C1060 1.368 . S
C1055 C1039 1.349 . S
C1055 H1047 0.950 . S
C1055 C1053 1.327 . S
C1056 C1044 1.349 . S
C1056 H1050 0.950 . S
C1056 C1057 1.327 . S
C1057 H1051 0.950 . S
C1057 C1056 1.327 . S
C1057 C1061 1.429 . S
C1058 C1041 1.574 . S
C1058 H1052 0.949 . S
C1058 C1062 1.368 . S
C1059 C1040 1.429 . S
C1059 C1053 1.429 . S
C1059 C1060 1.523 . S
C1060 C1041 1.368 . S
C1060 C1054 1.368 . S
C1060 C1059 1.523 . S
C1061 C1045 1.429 . S
C1061 C1057 1.429 . S
C1061 C1062 1.523 . S
C1062 C1046 1.368 . S
C1062 C1058 1.368 . S
C1062 C1061 1.523 . S
H1063 C1038 0.950 . S
H1064 C1040 0.950 . S
H1065 C1041 0.949 . S
H1066 C1043 0.950 . S
H1067 C1045 0.950 . S
C1068 C1069 1.349 . S
C1068 C1070 1.327 . S
C1068 H1093 0.950 . S
C1069 C1068 1.349 . S
C1069 C1085 1.349 . S
C1070 C1068 1.327 . S
C1070 C1089 1.429 . S
C1070 H1094 0.950 . S
C1071 C1088 1.574 . S
C1071 C1090 1.368 . S
C1071 H1095 0.949 . S
H1072 C1076 0.949 . S
C1073 C1074 1.349 . S
C1073 C1075 1.327 . S
C1073 H1096 0.950 . S
C1074 C1073 1.349 . S
C1074 C1086 1.349 . S
C1075 C1073 1.327 . S
C1075 C1091 1.429 . S
C1075 H1097 0.950 . S
C1076 H1072 0.949 . S
C1076 C1084 1.574 . S
C1076 C1092 1.368 . S
H1077 C1085 0.950 . S
H1078 C1083 0.950 . S
H1079 C1084 0.949 . S
H1080 C1086 0.950 . S
H1081 C1087 0.950 . S
H1082 C1088 0.949 . S
C1083 H1078 0.950 . S
C1083 C1085 1.327 . S
C1083 C1089 1.429 . S
C1084 C1076 1.574 . S
C1084 H1079 0.949 . S
C1084 C1090 1.368 . S
C1085 C1069 1.349 . S
C1085 H1077 0.950 . S
C1085 C1083 1.327 . S
C1086 C1074 1.349 . S
C1086 H1080 0.950 . S
C1086 C1087 1.327 . S
C1087 H1081 0.950 . S
C1087 C1086 1.327 . S
C1087 C1091 1.429 . S
C1088 C1071 1.574 . S
C1088 H1082 0.949 . S
C1088 C1092 1.368 . S
C1089 C1070 1.429 . S
C1089 C1083 1.429 . S
C1089 C1090 1.523 . S
C1090 C1071 1.368 . S
C1090 C1084 1.368 . S
C1090 C1089 1.523 . S
C1091 C1075 1.429 . S
C1091 C1087 1.429 . S
C1091 C1092 1.523 . S
C1092 C1076 1.368 . S
C1092 C1088 1.368 . S
C1092 C1091 1.523 . S
H1093 C1068 0.950 . S
H1094 C1070 0.950 . S
H1095 C1071 0.949 . S
H1096 C1073 0.950 . S
H1097 C1075 0.950 . S
C1098 C1099 1.349 . S
C1098 C1100 1.327 . S
C1098 H1123 0.950 . S
C1099 C1098 1.349 . S
C1099 C1115 1.349 . S
C1100 C1098 1.327 . S
C1100 C1119 1.429 . S
C1100 H1124 0.950 . S
C1101 C1118 1.574 . S
C1101 C1120 1.368 . S
C1101 H1125 0.949 . S
H1102 C1106 0.949 . S
C1103 C1104 1.349 . S
C1103 C1105 1.327 . S
C1103 H1126 0.950 . S
C1104 C1103 1.349 . S
C1104 C1116 1.349 . S
C1105 C1103 1.327 . S
C1105 C1121 1.429 . S
C1105 H1127 0.950 . S
C1106 H1102 0.949 . S
C1106 C1114 1.574 . S
C1106 C1122 1.368 . S
H1107 C1115 0.950 . S
H1108 C1113 0.950 . S
H1109 C1114 0.949 . S
H1110 C1116 0.950 . S
H1111 C1117 0.950 . S
H1112 C1118 0.949 . S
C1113 H1108 0.950 . S
C1113 C1115 1.327 . S
C1113 C1119 1.429 . S
C1114 C1106 1.574 . S
C1114 H1109 0.949 . S
C1114 C1120 1.368 . S
C1115 C1099 1.349 . S
C1115 H1107 0.950 . S
C1115 C1113 1.327 . S
C1116 C1104 1.349 . S
C1116 H1110 0.950 . S
C1116 C1117 1.327 . S
C1117 H1111 0.950 . S
C1117 C1116 1.327 . S
C1117 C1121 1.429 . S
C1118 C1101 1.574 . S
C1118 H1112 0.949 . S
C1118 C1122 1.368 . S
C1119 C1100 1.429 . S
C1119 C1113 1.429 . S
C1119 C1120 1.523 . S
C1120 C1101 1.368 . S
C1120 C1114 1.368 . S
C1120 C1119 1.523 . S
C1121 C1105 1.429 . S
C1121 C1117 1.429 . S
C1121 C1122 1.523 . S
C1122 C1106 1.368 . S
C1122 C1118 1.368 . S
C1122 C1121 1.523 . S
H1123 C1098 0.950 . S
H1124 C1100 0.950 . S
H1125 C1101 0.949 . S
H1126 C1103 0.950 . S
H1127 C1105 0.950 . S
C1128 C1129 1.349 . S
C1128 C1130 1.327 . S
C1128 H1153 0.950 . S
C1129 C1128 1.349 . S
C1129 C1145 1.349 . S
C1130 C1128 1.327 . S
C1130 C1149 1.429 . S
C1130 H1154 0.950 . S
C1131 C1148 1.574 . S
C1131 C1150 1.368 . S
C1131 H1155 0.949 . S
H1132 C1136 0.949 . S
C1133 C1134 1.349 . S
C1133 C1135 1.327 . S
C1133 H1156 0.950 . S
C1134 C1133 1.349 . S
C1134 C1146 1.349 . S
C1135 C1133 1.327 . S
C1135 C1151 1.429 . S
C1135 H1157 0.950 . S
C1136 H1132 0.949 . S
C1136 C1144 1.574 . S
C1136 C1152 1.368 . S
H1137 C1145 0.950 . S
H1138 C1143 0.950 . S
H1139 C1144 0.949 . S
H1140 C1146 0.950 . S
H1141 C1147 0.950 . S
H1142 C1148 0.949 . S
C1143 H1138 0.950 . S
C1143 C1145 1.327 . S
C1143 C1149 1.429 . S
C1144 C1136 1.574 . S
C1144 H1139 0.949 . S
C1144 C1150 1.368 . S
C1145 C1129 1.349 . S
C1145 H1137 0.950 . S
C1145 C1143 1.327 . S
C1146 C1134 1.349 . S
C1146 H1140 0.950 . S
C1146 C1147 1.327 . S
C1147 H1141 0.950 . S
C1147 C1146 1.327 . S
C1147 C1151 1.429 . S
C1148 C1131 1.574 . S
C1148 H1142 0.949 . S
C1148 C1152 1.368 . S
C1149 C1130 1.429 . S
C1149 C1143 1.429 . S
C1149 C1150 1.523 . S
C1150 C1131 1.368 . S
C1150 C1144 1.368 . S
C1150 C1149 1.523 . S
C1151 C1135 1.429 . S
C1151 C1147 1.429 . S
C1151 C1152 1.523 . S
C1152 C1136 1.368 . S
C1152 C1148 1.368 . S
C1152 C1151 1.523 . S
H1153 C1128 0.950 . S
H1154 C1130 0.950 . S
H1155 C1131 0.949 . S
H1156 C1133 0.950 . S
H1157 C1135 0.950 . S
C1158 C1159 1.349 . S
C1158 C1160 1.327 . S
C1158 H1183 0.950 . S
C1159 C1158 1.349 . S
C1159 C1175 1.349 . S
C1160 C1158 1.327 . S
C1160 C1179 1.429 . S
C1160 H1184 0.950 . S
C1161 C1178 1.574 . S
C1161 C1180 1.368 . S
C1161 H1185 0.949 . S
H1162 C1166 0.949 . S
C1163 C1164 1.349 . S
C1163 C1165 1.327 . S
C1163 H1186 0.950 . S
C1164 C1163 1.349 . S
C1164 C1176 1.349 . S
C1165 C1163 1.327 . S
C1165 C1181 1.429 . S
C1165 H1187 0.950 . S
C1166 H1162 0.949 . S
C1166 C1174 1.574 . S
C1166 C1182 1.368 . S
H1167 C1175 0.950 . S
H1168 C1173 0.950 . S
H1169 C1174 0.949 . S
H1170 C1176 0.950 . S
H1171 C1177 0.950 . S
H1172 C1178 0.949 . S
C1173 H1168 0.950 . S
C1173 C1175 1.327 . S
C1173 C1179 1.429 . S
C1174 C1166 1.574 . S
C1174 H1169 0.949 . S
C1174 C1180 1.368 . S
C1175 C1159 1.349 . S
C1175 H1167 0.950 . S
C1175 C1173 1.327 . S
C1176 C1164 1.349 . S
C1176 H1170 0.950 . S
C1176 C1177 1.327 . S
C1177 H1171 0.950 . S
C1177 C1176 1.327 . S
C1177 C1181 1.429 . S
C1178 C1161 1.574 . S
C1178 H1172 0.949 . S
C1178 C1182 1.368 . S
C1179 C1160 1.429 . S
C1179 C1173 1.429 . S
C1179 C1180 1.523 . S
C1180 C1161 1.368 . S
C1180 C1174 1.368 . S
C1180 C1179 1.523 . S
C1181 C1165 1.429 . S
C1181 C1177 1.429 . S
C1181 C1182 1.523 . S
C1182 C1166 1.368 . S
C1182 C1178 1.368 . S
C1182 C1181 1.523 . S
H1183 C1158 0.950 . S
H1184 C1160 0.950 . S
H1185 C1161 0.949 . S
H1186 C1163 0.950 . S
H1187 C1165 0.950 . S
C1188 C1189 1.349 . S
C1188 C1190 1.327 . S
C1188 H1213 0.950 . S
C1189 C1188 1.349 . S
C1189 C1205 1.349 . S
C1190 C1188 1.327 . S
C1190 C1209 1.429 . S
C1190 H1214 0.950 . S
C1191 C1208 1.574 . S
C1191 C1210 1.368 . S
C1191 H1215 0.949 . S
H1192 C1196 0.949 . S
C1193 C1194 1.349 . S
C1193 C1195 1.327 . S
C1193 H1216 0.950 . S
C1194 C1193 1.349 . S
C1194 C1206 1.349 . S
C1195 C1193 1.327 . S
C1195 C1211 1.429 . S
C1195 H1217 0.950 . S
C1196 H1192 0.949 . S
C1196 C1204 1.574 . S
C1196 C1212 1.368 . S
H1197 C1205 0.950 . S
H1198 C1203 0.950 . S
H1199 C1204 0.949 . S
H1200 C1206 0.950 . S
H1201 C1207 0.950 . S
H1202 C1208 0.949 . S
C1203 H1198 0.950 . S
C1203 C1205 1.327 . S
C1203 C1209 1.429 . S
C1204 C1196 1.574 . S
C1204 H1199 0.949 . S
C1204 C1210 1.368 . S
C1205 C1189 1.349 . S
C1205 H1197 0.950 . S
C1205 C1203 1.327 . S
C1206 C1194 1.349 . S
C1206 H1200 0.950 . S
C1206 C1207 1.327 . S
C1207 H1201 0.950 . S
C1207 C1206 1.327 . S
C1207 C1211 1.429 . S
C1208 C1191 1.574 . S
C1208 H1202 0.949 . S
C1208 C1212 1.368 . S
C1209 C1190 1.429 . S
C1209 C1203 1.429 . S
C1209 C1210 1.523 . S
C1210 C1191 1.368 . S
C1210 C1204 1.368 . S
C1210 C1209 1.523 . S
C1211 C1195 1.429 . S
C1211 C1207 1.429 . S
C1211 C1212 1.523 . S
C1212 C1196 1.368 . S
C1212 C1208 1.368 . S
C1212 C1211 1.523 . S
H1213 C1188 0.950 . S
H1214 C1190 0.950 . S
H1215 C1191 0.949 . S
H1216 C1193 0.950 . S
H1217 C1195 0.950 . S
C1218 C1219 1.349 . S
C1218 C1220 1.327 . S
C1218 H1243 0.950 . S
C1219 C1218 1.349 . S
C1219 C1235 1.349 . S
C1220 C1218 1.327 . S
C1220 C1239 1.429 . S
C1220 H1244 0.950 . S
C1221 C1238 1.574 . S
C1221 C1240 1.368 . S
C1221 H1245 0.949 . S
H1222 C1226 0.949 . S
C1223 C1224 1.349 . S
C1223 C1225 1.327 . S
C1223 H1246 0.950 . S
C1224 C1223 1.349 . S
C1224 C1236 1.349 . S
C1225 C1223 1.327 . S
C1225 C1241 1.429 . S
C1225 H1247 0.950 . S
C1226 H1222 0.949 . S
C1226 C1234 1.574 . S
C1226 C1242 1.368 . S
H1227 C1235 0.950 . S
H1228 C1233 0.950 . S
H1229 C1234 0.949 . S
H1230 C1236 0.950 . S
H1231 C1237 0.950 . S
H1232 C1238 0.949 . S
C1233 H1228 0.950 . S
C1233 C1235 1.327 . S
C1233 C1239 1.429 . S
C1234 C1226 1.574 . S
C1234 H1229 0.949 . S
C1234 C1240 1.368 . S
C1235 C1219 1.349 . S
C1235 H1227 0.950 . S
C1235 C1233 1.327 . S
C1236 C1224 1.349 . S
C1236 H1230 0.950 . S
C1236 C1237 1.327 . S
C1237 H1231 0.950 . S
C1237 C1236 1.327 . S
C1237 C1241 1.429 . S
C1238 C1221 1.574 . S
C1238 H1232 0.949 . S
C1238 C1242 1.368 . S
C1239 C1220 1.429 . S
C1239 C1233 1.429 . S
C1239 C1240 1.523 . S
C1240 C1221 1.368 . S
C1240 C1234 1.368 . S
C1240 C1239 1.523 . S
C1241 C1225 1.429 . S
C1241 C1237 1.429 . S
C1241 C1242 1.523 . S
C1242 C1226 1.368 . S
C1242 C1238 1.368 . S
C1242 C1241 1.523 . S
H1243 C1218 0.950 . S
H1244 C1220 0.950 . S
H1245 C1221 0.949 . S
H1246 C1223 0.950 . S
H1247 C1225 0.950 . S
C1248 C1249 1.349 . S
C1248 C1250 1.327 . S
C1248 H1273 0.950 . S
C1249 C1248 1.349 . S
C1249 C1265 1.349 . S
C1250 C1248 1.327 . S
C1250 C1269 1.429 . S
C1250 H1274 0.950 . S
C1251 C1268 1.574 . S
C1251 C1270 1.368 . S
C1251 H1275 0.949 . S
H1252 C1256 0.949 . S
C1253 C1254 1.349 . S
C1253 C1255 1.327 . S
C1253 H1276 0.950 . S
C1254 C1253 1.349 . S
C1254 C1266 1.349 . S
C1255 C1253 1.327 . S
C1255 C1271 1.429 . S
C1255 H1277 0.950 . S
C1256 H1252 0.949 . S
C1256 C1264 1.574 . S
C1256 C1272 1.368 . S
H1257 C1265 0.950 . S
H1258 C1263 0.950 . S
H1259 C1264 0.949 . S
H1260 C1266 0.950 . S
H1261 C1267 0.950 . S
H1262 C1268 0.949 . S
C1263 H1258 0.950 . S
C1263 C1265 1.327 . S
C1263 C1269 1.429 . S
C1264 C1256 1.574 . S
C1264 H1259 0.949 . S
C1264 C1270 1.368 . S
C1265 C1249 1.349 . S
C1265 H1257 0.950 . S
C1265 C1263 1.327 . S
C1266 C1254 1.349 . S
C1266 H1260 0.950 . S
C1266 C1267 1.327 . S
C1267 H1261 0.950 . S
C1267 C1266 1.327 . S
C1267 C1271 1.429 . S
C1268 C1251 1.574 . S
C1268 H1262 0.949 . S
C1268 C1272 1.368 . S
C1269 C1250 1.429 . S
C1269 C1263 1.429 . S
C1269 C1270 1.523 . S
C1270 C1251 1.368 . S
C1270 C1264 1.368 . S
C1270 C1269 1.523 . S
C1271 C1255 1.429 . S
C1271 C1267 1.429 . S
C1271 C1272 1.523 . S
C1272 C1256 1.368 . S
C1272 C1268 1.368 . S
C1272 C1271 1.523 . S
H1273 C1248 0.950 . S
H1274 C1250 0.950 . S
H1275 C1251 0.949 . S
H1276 C1253 0.950 . S
H1277 C1255 0.950 . S
C1278 C1279 1.349 . S
C1278 C1280 1.327 . S
C1278 H1303 0.950 . S
C1279 C1278 1.349 . S
C1279 C1295 1.349 . S
C1280 C1278 1.327 . S
C1280 C1299 1.429 . S
C1280 H1304 0.950 . S
C1281 C1298 1.574 . S
C1281 C1300 1.368 . S
C1281 H1305 0.949 . S
H1282 C1286 0.949 . S
C1283 C1284 1.349 . S
C1283 C1285 1.327 . S
C1283 H1306 0.950 . S
C1284 C1283 1.349 . S
C1284 C1296 1.349 . S
C1285 C1283 1.327 . S
C1285 C1301 1.429 . S
C1285 H1307 0.950 . S
C1286 H1282 0.949 . S
C1286 C1294 1.574 . S
C1286 C1302 1.368 . S
H1287 C1295 0.950 . S
H1288 C1293 0.950 . S
H1289 C1294 0.949 . S
H1290 C1296 0.950 . S
H1291 C1297 0.950 . S
H1292 C1298 0.949 . S
C1293 H1288 0.950 . S
C1293 C1295 1.327 . S
C1293 C1299 1.429 . S
C1294 C1286 1.574 . S
C1294 H1289 0.949 . S
C1294 C1300 1.368 . S
C1295 C1279 1.349 . S
C1295 H1287 0.950 . S
C1295 C1293 1.327 . S
C1296 C1284 1.349 . S
C1296 H1290 0.950 . S
C1296 C1297 1.327 . S
C1297 H1291 0.950 . S
C1297 C1296 1.327 . S
C1297 C1301 1.429 . S
C1298 C1281 1.574 . S
C1298 H1292 0.949 . S
C1298 C1302 1.368 . S
C1299 C1280 1.429 . S
C1299 C1293 1.429 . S
C1299 C1300 1.523 . S
C1300 C1281 1.368 . S
C1300 C1294 1.368 . S
C1300 C1299 1.523 . S
C1301 C1285 1.429 . S
C1301 C1297 1.429 . S
C1301 C1302 1.523 . S
C1302 C1286 1.368 . S
C1302 C1298 1.368 . S
C1302 C1301 1.523 . S
H1303 C1278 0.950 . S
H1304 C1280 0.950 . S
H1305 C1281 0.949 . S
H1306 C1283 0.950 . S
H1307 C1285 0.950 . S
C1308 C1309 1.349 . S
C1308 C1310 1.327 . S
C1308 H1333 0.950 . S
C1309 C1308 1.349 . S
C1309 C1325 1.349 . S
C1310 C1308 1.327 . S
C1310 C1329 1.429 . S
C1310 H1334 0.950 . S
C1311 C1328 1.574 . S
C1311 C1330 1.368 . S
C1311 H1335 0.949 . S
H1312 C1316 0.949 . S
C1313 C1314 1.349 . S
C1313 C1315 1.327 . S
C1313 H1336 0.950 . S
C1314 C1313 1.349 . S
C1314 C1326 1.349 . S
C1315 C1313 1.327 . S
C1315 C1331 1.429 . S
C1315 H1337 0.950 . S
C1316 H1312 0.949 . S
C1316 C1324 1.574 . S
C1316 C1332 1.368 . S
H1317 C1325 0.950 . S
H1318 C1323 0.950 . S
H1319 C1324 0.949 . S
H1320 C1326 0.950 . S
H1321 C1327 0.950 . S
H1322 C1328 0.949 . S
C1323 H1318 0.950 . S
C1323 C1325 1.327 . S
C1323 C1329 1.429 . S
C1324 C1316 1.574 . S
C1324 H1319 0.949 . S
C1324 C1330 1.368 . S
C1325 C1309 1.349 . S
C1325 H1317 0.950 . S
C1325 C1323 1.327 . S
C1326 C1314 1.349 . S
C1326 H1320 0.950 . S
C1326 C1327 1.327 . S
C1327 H1321 0.950 . S
C1327 C1326 1.327 . S
C1327 C1331 1.429 . S
C1328 C1311 1.574 . S
C1328 H1322 0.949 . S
C1328 C1332 1.368 . S
C1329 C1310 1.429 . S
C1329 C1323 1.429 . S
C1329 C1330 1.523 . S
C1330 C1311 1.368 . S
C1330 C1324 1.368 . S
C1330 C1329 1.523 . S
C1331 C1315 1.429 . S
C1331 C1327 1.429 . S
C1331 C1332 1.523 . S
C1332 C1316 1.368 . S
C1332 C1328 1.368 . S
C1332 C1331 1.523 . S
H1333 C1308 0.950 . S
H1334 C1310 0.950 . S
H1335 C1311 0.949 . S
H1336 C1313 0.950 . S
H1337 C1315 0.950 . S
C1338 C1339 1.349 . S
C1338 C1340 1.327 . S
C1338 H1363 0.950 . S
C1339 C1338 1.349 . S
C1339 C1355 1.349 . S
C1340 C1338 1.327 . S
C1340 C1359 1.429 . S
C1340 H1364 0.950 . S
C1341 C1358 1.574 . S
C1341 C1360 1.368 . S
C1341 H1365 0.949 . S
H1342 C1346 0.949 . S
C1343 C1344 1.349 . S
C1343 C1345 1.327 . S
C1343 H1366 0.950 . S
C1344 C1343 1.349 . S
C1344 C1356 1.349 . S
C1345 C1343 1.327 . S
C1345 C1361 1.429 . S
C1345 H1367 0.950 . S
C1346 H1342 0.949 . S
C1346 C1354 1.574 . S
C1346 C1362 1.368 . S
H1347 C1355 0.950 . S
H1348 C1353 0.950 . S
H1349 C1354 0.949 . S
H1350 C1356 0.950 . S
H1351 C1357 0.950 . S
H1352 C1358 0.949 . S
C1353 H1348 0.950 . S
C1353 C1355 1.327 . S
C1353 C1359 1.429 . S
C1354 C1346 1.574 . S
C1354 H1349 0.949 . S
C1354 C1360 1.368 . S
C1355 C1339 1.349 . S
C1355 H1347 0.950 . S
C1355 C1353 1.327 . S
C1356 C1344 1.349 . S
C1356 H1350 0.950 . S
C1356 C1357 1.327 . S
C1357 H1351 0.950 . S
C1357 C1356 1.327 . S
C1357 C1361 1.429 . S
C1358 C1341 1.574 . S
C1358 H1352 0.949 . S
C1358 C1362 1.368 . S
C1359 C1340 1.429 . S
C1359 C1353 1.429 . S
C1359 C1360 1.523 . S
C1360 C1341 1.368 . S
C1360 C1354 1.368 . S
C1360 C1359 1.523 . S
C1361 C1345 1.429 . S
C1361 C1357 1.429 . S
C1361 C1362 1.523 . S
C1362 C1346 1.368 . S
C1362 C1358 1.368 . S
C1362 C1361 1.523 . S
H1363 C1338 0.950 . S
H1364 C1340 0.950 . S
H1365 C1341 0.949 . S
H1366 C1343 0.950 . S
H1367 C1345 0.950 . S
C1368 C1369 1.349 . S
C1368 C1370 1.327 . S
C1368 H1393 0.950 . S
C1369 C1368 1.349 . S
C1369 C1385 1.349 . S
C1370 C1368 1.327 . S
C1370 C1389 1.429 . S
C1370 H1394 0.950 . S
C1371 C1388 1.574 . S
C1371 C1390 1.368 . S
C1371 H1395 0.949 . S
H1372 C1376 0.949 . S
C1373 C1374 1.349 . S
C1373 C1375 1.327 . S
C1373 H1396 0.950 . S
C1374 C1373 1.349 . S
C1374 C1386 1.349 . S
C1375 C1373 1.327 . S
C1375 C1391 1.429 . S
C1375 H1397 0.950 . S
C1376 H1372 0.949 . S
C1376 C1384 1.574 . S
C1376 C1392 1.368 . S
H1377 C1385 0.950 . S
H1378 C1383 0.950 . S
H1379 C1384 0.949 . S
H1380 C1386 0.950 . S
H1381 C1387 0.950 . S
H1382 C1388 0.949 . S
C1383 H1378 0.950 . S
C1383 C1385 1.327 . S
C1383 C1389 1.429 . S
C1384 C1376 1.574 . S
C1384 H1379 0.949 . S
C1384 C1390 1.368 . S
C1385 C1369 1.349 . S
C1385 H1377 0.950 . S
C1385 C1383 1.327 . S
C1386 C1374 1.349 . S
C1386 H1380 0.950 . S
C1386 C1387 1.327 . S
C1387 H1381 0.950 . S
C1387 C1386 1.327 . S
C1387 C1391 1.429 . S
C1388 C1371 1.574 . S
C1388 H1382 0.949 . S
C1388 C1392 1.368 . S
C1389 C1370 1.429 . S
C1389 C1383 1.429 . S
C1389 C1390 1.523 . S
C1390 C1371 1.368 . S
C1390 C1384 1.368 . S
C1390 C1389 1.523 . S
C1391 C1375 1.429 . S
C1391 C1387 1.429 . S
C1391 C1392 1.523 . S
C1392 C1376 1.368 . S
C1392 C1388 1.368 . S
C1392 C1391 1.523 . S
H1393 C1368 0.950 . S
H1394 C1370 0.950 . S
H1395 C1371 0.949 . S
H1396 C1373 0.950 . S
H1397 C1375 0.950 . S
C1398 C1399 1.349 . S
C1398 C1400 1.327 . S
C1398 H1423 0.950 . S
C1399 C1398 1.349 . S
C1399 C1415 1.349 . S
C1400 C1398 1.327 . S
C1400 C1419 1.429 . S
C1400 H1424 0.950 . S
C1401 C1418 1.574 . S
C1401 C1420 1.368 . S
C1401 H1425 0.949 . S
H1402 C1406 0.949 . S
C1403 C1404 1.349 . S
C1403 C1405 1.327 . S
C1403 H1426 0.950 . S
C1404 C1403 1.349 . S
C1404 C1416 1.349 . S
C1405 C1403 1.327 . S
C1405 C1421 1.429 . S
C1405 H1427 0.950 . S
C1406 H1402 0.949 . S
C1406 C1414 1.574 . S
C1406 C1422 1.368 . S
H1407 C1415 0.950 . S
H1408 C1413 0.950 . S
H1409 C1414 0.949 . S
H1410 C1416 0.950 . S
H1411 C1417 0.950 . S
H1412 C1418 0.949 . S
C1413 H1408 0.950 . S
C1413 C1415 1.327 . S
C1413 C1419 1.429 . S
C1414 C1406 1.574 . S
C1414 H1409 0.949 . S
C1414 C1420 1.368 . S
C1415 C1399 1.349 . S
C1415 H1407 0.950 . S
C1415 C1413 1.327 . S
C1416 C1404 1.349 . S
C1416 H1410 0.950 . S
C1416 C1417 1.327 . S
C1417 H1411 0.950 . S
C1417 C1416 1.327 . S
C1417 C1421 1.429 . S
C1418 C1401 1.574 . S
C1418 H1412 0.949 . S
C1418 C1422 1.368 . S
C1419 C1400 1.429 . S
C1419 C1413 1.429 . S
C1419 C1420 1.523 . S
C1420 C1401 1.368 . S
C1420 C1414 1.368 . S
C1420 C1419 1.523 . S
C1421 C1405 1.429 . S
C1421 C1417 1.429 . S
C1421 C1422 1.523 . S
C1422 C1406 1.368 . S
C1422 C1418 1.368 . S
C1422 C1421 1.523 . S
H1423 C1398 0.950 . S
H1424 C1400 0.950 . S
H1425 C1401 0.949 . S
H1426 C1403 0.950 . S
H1427 C1405 0.950 . S
C1428 C1429 1.349 . S
C1428 C1430 1.327 . S
C1428 H1453 0.950 . S
C1429 C1428 1.349 . S
C1429 C1445 1.349 . S
C1430 C1428 1.327 . S
C1430 C1449 1.429 . S
C1430 H1454 0.950 . S
C1431 C1448 1.574 . S
C1431 C1450 1.368 . S
C1431 H1455 0.949 . S
H1432 C1436 0.949 . S
C1433 C1434 1.349 . S
C1433 C1435 1.327 . S
C1433 H1456 0.950 . S
C1434 C1433 1.349 . S
C1434 C1446 1.349 . S
C1435 C1433 1.327 . S
C1435 C1451 1.429 . S
C1435 H1457 0.950 . S
C1436 H1432 0.949 . S
C1436 C1444 1.574 . S
C1436 C1452 1.368 . S
H1437 C1445 0.950 . S
H1438 C1443 0.950 . S
H1439 C1444 0.949 . S
H1440 C1446 0.950 . S
H1441 C1447 0.950 . S
H1442 C1448 0.949 . S
C1443 H1438 0.950 . S
C1443 C1445 1.327 . S
C1443 C1449 1.429 . S
C1444 C1436 1.574 . S
C1444 H1439 0.949 . S
C1444 C1450 1.368 . S
C1445 C1429 1.349 . S
C1445 H1437 0.950 . S
C1445 C1443 1.327 . S
C1446 C1434 1.349 . S
C1446 H1440 0.950 . S
C1446 C1447 1.327 . S
C1447 H1441 0.950 . S
C1447 C1446 1.327 . S
C1447 C1451 1.429 . S
C1448 C1431 1.574 . S
C1448 H1442 0.949 . S
C1448 C1452 1.368 . S
C1449 C1430 1.429 . S
C1449 C1443 1.429 . S
C1449 C1450 1.523 . S
C1450 C1431 1.368 . S
C1450 C1444 1.368 . S
C1450 C1449 1.523 . S
C1451 C1435 1.429 . S
C1451 C1447 1.429 . S
C1451 C1452 1.523 . S
C1452 C1436 1.368 . S
C1452 C1448 1.368 . S
C1452 C1451 1.523 . S
H1453 C1428 0.950 . S
H1454 C1430 0.950 . S
H1455 C1431 0.949 . S
H1456 C1433 0.950 . S
H1457 C1435 0.950 . S
C1458 C1459 1.349 . S
C1458 C1460 1.327 . S
C1458 H1483 0.950 . S
C1459 C1458 1.349 . S
C1459 C1475 1.349 . S
C1460 C1458 1.327 . S
C1460 C1479 1.429 . S
C1460 H1484 0.950 . S
C1461 C1478 1.574 . S
C1461 C1480 1.368 . S
C1461 H1485 0.949 . S
H1462 C1466 0.949 . S
C1463 C1464 1.349 . S
C1463 C1465 1.327 . S
C1463 H1486 0.950 . S
C1464 C1463 1.349 . S
C1464 C1476 1.349 . S
C1465 C1463 1.327 . S
C1465 C1481 1.429 . S
C1465 H1487 0.950 . S
C1466 H1462 0.949 . S
C1466 C1474 1.574 . S
C1466 C1482 1.368 . S
H1467 C1475 0.950 . S
H1468 C1473 0.950 . S
H1469 C1474 0.949 . S
H1470 C1476 0.950 . S
H1471 C1477 0.950 . S
H1472 C1478 0.949 . S
C1473 H1468 0.950 . S
C1473 C1475 1.327 . S
C1473 C1479 1.429 . S
C1474 C1466 1.574 . S
C1474 H1469 0.949 . S
C1474 C1480 1.368 . S
C1475 C1459 1.349 . S
C1475 H1467 0.950 . S
C1475 C1473 1.327 . S
C1476 C1464 1.349 . S
C1476 H1470 0.950 . S
C1476 C1477 1.327 . S
C1477 H1471 0.950 . S
C1477 C1476 1.327 . S
C1477 C1481 1.429 . S
C1478 C1461 1.574 . S
C1478 H1472 0.949 . S
C1478 C1482 1.368 . S
C1479 C1460 1.429 . S
C1479 C1473 1.429 . S
C1479 C1480 1.523 . S
C1480 C1461 1.368 . S
C1480 C1474 1.368 . S
C1480 C1479 1.523 . S
C1481 C1465 1.429 . S
C1481 C1477 1.429 . S
C1481 C1482 1.523 . S
C1482 C1466 1.368 . S
C1482 C1478 1.368 . S
C1482 C1481 1.523 . S
H1483 C1458 0.950 . S
H1484 C1460 0.950 . S
H1485 C1461 0.949 . S
H1486 C1463 0.950 . S
H1487 C1465 0.950 . S
C1488 C1489 1.349 . S
C1488 C1490 1.327 . S
C1488 H1513 0.950 . S
C1489 C1488 1.349 . S
C1489 C1505 1.349 . S
C1490 C1488 1.327 . S
C1490 C1509 1.429 . S
C1490 H1514 0.950 . S
C1491 C1508 1.574 . S
C1491 C1510 1.368 . S
C1491 H1515 0.949 . S
H1492 C1496 0.949 . S
C1493 C1494 1.349 . S
C1493 C1495 1.327 . S
C1493 H1516 0.950 . S
C1494 C1493 1.349 . S
C1494 C1506 1.349 . S
C1495 C1493 1.327 . S
C1495 C1511 1.429 . S
C1495 H1517 0.950 . S
C1496 H1492 0.949 . S
C1496 C1504 1.574 . S
C1496 C1512 1.368 . S
H1497 C1505 0.950 . S
H1498 C1503 0.950 . S
H1499 C1504 0.949 . S
H1500 C1506 0.950 . S
H1501 C1507 0.950 . S
H1502 C1508 0.949 . S
C1503 H1498 0.950 . S
C1503 C1505 1.327 . S
C1503 C1509 1.429 . S
C1504 C1496 1.574 . S
C1504 H1499 0.949 . S
C1504 C1510 1.368 . S
C1505 C1489 1.349 . S
C1505 H1497 0.950 . S
C1505 C1503 1.327 . S
C1506 C1494 1.349 . S
C1506 H1500 0.950 . S
C1506 C1507 1.327 . S
C1507 H1501 0.950 . S
C1507 C1506 1.327 . S
C1507 C1511 1.429 . S
C1508 C1491 1.574 . S
C1508 H1502 0.949 . S
C1508 C1512 1.368 . S
C1509 C1490 1.429 . S
C1509 C1503 1.429 . S
C1509 C1510 1.523 . S
C1510 C1491 1.368 . S
C1510 C1504 1.368 . S
C1510 C1509 1.523 . S
C1511 C1495 1.429 . S
C1511 C1507 1.429 . S
C1511 C1512 1.523 . S
C1512 C1496 1.368 . S
C1512 C1508 1.368 . S
C1512 C1511 1.523 . S
H1513 C1488 0.950 . S
H1514 C1490 0.950 . S
H1515 C1491 0.949 . S
H1516 C1493 0.950 . S
H1517 C1495 0.950 . S
C1518 C1519 1.349 . S
C1518 C1520 1.327 . S
C1518 H1543 0.950 . S
C1519 C1518 1.349 . S
C1519 C1535 1.349 . S
C1520 C1518 1.327 . S
C1520 C1539 1.429 . S
C1520 H1544 0.950 . S
C1521 C1538 1.574 . S
C1521 C1540 1.368 . S
C1521 H1545 0.949 . S
H1522 C1526 0.949 . S
C1523 C1524 1.349 . S
C1523 C1525 1.327 . S
C1523 H1546 0.950 . S
C1524 C1523 1.349 . S
C1524 C1536 1.349 . S
C1525 C1523 1.327 . S
C1525 C1541 1.429 . S
C1525 H1547 0.950 . S
C1526 H1522 0.949 . S
C1526 C1534 1.574 . S
C1526 C1542 1.368 . S
H1527 C1535 0.950 . S
H1528 C1533 0.950 . S
H1529 C1534 0.949 . S
H1530 C1536 0.950 . S
H1531 C1537 0.950 . S
H1532 C1538 0.949 . S
C1533 H1528 0.950 . S
C1533 C1535 1.327 . S
C1533 C1539 1.429 . S
C1534 C1526 1.574 . S
C1534 H1529 0.949 . S
C1534 C1540 1.368 . S
C1535 C1519 1.349 . S
C1535 H1527 0.950 . S
C1535 C1533 1.327 . S
C1536 C1524 1.349 . S
C1536 H1530 0.950 . S
C1536 C1537 1.327 . S
C1537 H1531 0.950 . S
C1537 C1536 1.327 . S
C1537 C1541 1.429 . S
C1538 C1521 1.574 . S
C1538 H1532 0.949 . S
C1538 C1542 1.368 . S
C1539 C1520 1.429 . S
C1539 C1533 1.429 . S
C1539 C1540 1.523 . S
C1540 C1521 1.368 . S
C1540 C1534 1.368 . S
C1540 C1539 1.523 . S
C1541 C1525 1.429 . S
C1541 C1537 1.429 . S
C1541 C1542 1.523 . S
C1542 C1526 1.368 . S
C1542 C1538 1.368 . S
C1542 C1541 1.523 . S
H1543 C1518 0.950 . S
H1544 C1520 0.950 . S
H1545 C1521 0.949 . S
H1546 C1523 0.950 . S
H1547 C1525 0.950 . S
C1548 C1549 1.349 . S
C1548 C1550 1.327 . S
C1548 H1573 0.950 . S
C1549 C1548 1.349 . S
C1549 C1565 1.349 . S
C1550 C1548 1.327 . S
C1550 C1569 1.429 . S
C1550 H1574 0.950 . S
C1551 C1568 1.574 . S
C1551 C1570 1.368 . S
C1551 H1575 0.949 . S
H1552 C1556 0.949 . S
C1553 C1554 1.349 . S
C1553 C1555 1.327 . S
C1553 H1576 0.950 . S
C1554 C1553 1.349 . S
C1554 C1566 1.349 . S
C1555 C1553 1.327 . S
C1555 C1571 1.429 . S
C1555 H1577 0.950 . S
C1556 H1552 0.949 . S
C1556 C1564 1.574 . S
C1556 C1572 1.368 . S
H1557 C1565 0.950 . S
H1558 C1563 0.950 . S
H1559 C1564 0.949 . S
H1560 C1566 0.950 . S
H1561 C1567 0.950 . S
H1562 C1568 0.949 . S
C1563 H1558 0.950 . S
C1563 C1565 1.327 . S
C1563 C1569 1.429 . S
C1564 C1556 1.574 . S
C1564 H1559 0.949 . S
C1564 C1570 1.368 . S
C1565 C1549 1.349 . S
C1565 H1557 0.950 . S
C1565 C1563 1.327 . S
C1566 C1554 1.349 . S
C1566 H1560 0.950 . S
C1566 C1567 1.327 . S
C1567 H1561 0.950 . S
C1567 C1566 1.327 . S
C1567 C1571 1.429 . S
C1568 C1551 1.574 . S
C1568 H1562 0.949 . S
C1568 C1572 1.368 . S
C1569 C1550 1.429 . S
C1569 C1563 1.429 . S
C1569 C1570 1.523 . S
C1570 C1551 1.368 . S
C1570 C1564 1.368 . S
C1570 C1569 1.523 . S
C1571 C1555 1.429 . S
C1571 C1567 1.429 . S
C1571 C1572 1.523 . S
C1572 C1556 1.368 . S
C1572 C1568 1.368 . S
C1572 C1571 1.523 . S
H1573 C1548 0.950 . S
H1574 C1550 0.950 . S
H1575 C1551 0.949 . S
H1576 C1553 0.950 . S
H1577 C1555 0.950 . S
C1578 C1579 1.349 . S
C1578 C1580 1.327 . S
C1578 H1603 0.950 . S
C1579 C1578 1.349 . S
C1579 C1595 1.349 . S
C1580 C1578 1.327 . S
C1580 C1599 1.429 . S
C1580 H1604 0.950 . S
C1581 C1598 1.574 . S
C1581 C1600 1.368 . S
C1581 H1605 0.949 . S
H1582 C1586 0.949 . S
C1583 C1584 1.349 . S
C1583 C1585 1.327 . S
C1583 H1606 0.950 . S
C1584 C1583 1.349 . S
C1584 C1596 1.349 . S
C1585 C1583 1.327 . S
C1585 C1601 1.429 . S
C1585 H1607 0.950 . S
C1586 H1582 0.949 . S
C1586 C1594 1.574 . S
C1586 C1602 1.368 . S
H1587 C1595 0.950 . S
H1588 C1593 0.950 . S
H1589 C1594 0.949 . S
H1590 C1596 0.950 . S
H1591 C1597 0.950 . S
H1592 C1598 0.949 . S
C1593 H1588 0.950 . S
C1593 C1595 1.327 . S
C1593 C1599 1.429 . S
C1594 C1586 1.574 . S
C1594 H1589 0.949 . S
C1594 C1600 1.368 . S
C1595 C1579 1.349 . S
C1595 H1587 0.950 . S
C1595 C1593 1.327 . S
C1596 C1584 1.349 . S
C1596 H1590 0.950 . S
C1596 C1597 1.327 . S
C1597 H1591 0.950 . S
C1597 C1596 1.327 . S
C1597 C1601 1.429 . S
C1598 C1581 1.574 . S
C1598 H1592 0.949 . S
C1598 C1602 1.368 . S
C1599 C1580 1.429 . S
C1599 C1593 1.429 . S
C1599 C1600 1.523 . S
C1600 C1581 1.368 . S
C1600 C1594 1.368 . S
C1600 C1599 1.523 . S
C1601 C1585 1.429 . S
C1601 C1597 1.429 . S
C1601 C1602 1.523 . S
C1602 C1586 1.368 . S
C1602 C1598 1.368 . S
C1602 C1601 1.523 . S
H1603 C1578 0.950 . S
H1604 C1580 0.950 . S
H1605 C1581 0.949 . S
H1606 C1583 0.950 . S
H1607 C1585 0.950 . S
C349 C216 2.609 . S
C354 C5 2.809 . S
C379 C34 2.809 . S
C384 C245 2.609 . S
C409 C63 2.810 . S
C414 C187 2.610 . S
C439 C92 2.809 . S
C444 C332 2.609 . S
C469 C274 2.610 . S
C474 C121 2.810 . S
C499 C150 2.809 . S
C504 C303 2.609 . S
C529 C179 2.809 . S
C534 C42 2.609 . S
C559 C208 2.809 . S
C564 C71 2.609 . S
C589 C13 2.610 . S
C594 C237 2.810 . S
C619 C266 2.809 . S
C624 C158 2.609 . S
C649 C295 2.810 . S
C654 C100 2.610 . S
C679 C129 2.609 . S
C684 C324 2.809 . S
C709 C15 1.250 . S
C714 C102 1.250 . S
C739 C44 1.250 . S
C744 C131 1.250 . S
C769 C73 1.250 . S
C774 C160 1.250 . S
C799 C276 1.250 . S
C804 C189 1.250 . S
C829 C305 1.250 . S
C834 C218 1.250 . S
C859 C334 1.250 . S
C864 C247 1.250 . S
C889 C21 1.614 . S
C894 C39 1.481 . S
C919 C50 1.614 . S
C924 C68 1.481 . S
C949 C79 1.614 . S
C954 C10 1.480 . S
C979 C155 1.481 . S
C984 C108 1.614 . S
C1009 C137 1.614 . S
C1014 C97 1.480 . S
C1039 C126 1.481 . S
C1044 C166 1.614 . S
C1069 C213 1.481 . S
C1074 C195 1.614 . S
C1099 C224 1.614 . S
C1104 C242 1.481 . S
C1129 C253 1.614 . S
C1134 C184 1.480 . S
C1159 C282 1.614 . S
C1164 C329 1.481 . S
C1189 C311 1.614 . S
C1194 C271 1.480 . S
C1219 C340 1.614 . S
C1224 C300 1.481 . S
C1249 C298 0.976 . S
C1254 C3 1.009 . S
C1279 C327 0.976 . S
C1284 C32 1.009 . S
C1309 C61 1.009 . S
C1314 C269 0.976 . S
C1339 C90 1.009 . S
C1344 C240 0.976 . S
C1369 C119 1.009 . S
C1374 C182 0.976 . S
C1399 C211 0.976 . S
C1404 C148 1.009 . S
C1429 C177 1.009 . S
C1434 C124 0.976 . S
C1459 C206 1.009 . S
C1464 C153 0.976 . S
C1489 C235 1.009 . S
C1494 C95 0.976 . S
C1519 C264 1.009 . S
C1524 C66 0.976 . S
C1549 C293 1.009 . S
C1554 C8 0.976 . S
C1579 C322 1.009 . S
C1584 C37 0.976 . S
