# Generated by pormake.
# Topology wjd, (6)-cn, num edge types: 1
# Building blocks:
#     Node 0, Type 0, BuildingBlock: CUKXOW_clean_sbu_0, # of connection points: 6
#     Node 1, Type 0, BuildingBlock: CUKXOW_clean_sbu_0, # of connection points: 6
#     Node 2, Type 0, BuildingBlock: CUKXOW_clean_sbu_0, # of connection points: 6
#     Node 3, Type 0, BuildingBlock: CUKXOW_clean_sbu_0, # of connection points: 6
#     Node 4, Type 0, BuildingBlock: CUKXOW_clean_sbu_0, # of connection points: 6
#     Node 5, Type 0, BuildingBlock: CUKXOW_clean_sbu_0, # of connection points: 6
#     Node 6, Type 0, BuildingBlock: CUKXOW_clean_sbu_0, # of connection points: 6
#     Node 7, Type 0, BuildingBlock: CUKXOW_clean_sbu_0, # of connection points: 6
#     Node 8, Type 0, BuildingBlock: CUKXOW_clean_sbu_0, # of connection points: 6
#     Node 9, Type 0, BuildingBlock: CUKXOW_clean_sbu_0, # of connection points: 6
#     Node 10, Type 0, BuildingBlock: CUKXOW_clean_sbu_0, # of connection points: 6
#     Node 11, Type 0, BuildingBlock: CUKXOW_clean_sbu_0, # of connection points: 6
#     Edge 12, Type (0, 0), BuildingBlock: OJICUG_clean_linker_0, # of connection points: 2
#     Edge 13, Type (0, 0), BuildingBlock: OJICUG_clean_linker_0, # of connection points: 2
#     Edge 14, Type (0, 0), BuildingBlock: OJICUG_clean_linker_0, # of connection points: 2
#     Edge 15, Type (0, 0), BuildingBlock: OJICUG_clean_linker_0, # of connection points: 2
#     Edge 16, Type (0, 0), BuildingBlock: OJICUG_clean_linker_0, # of connection points: 2
#     Edge 17, Type (0, 0), BuildingBlock: OJICUG_clean_linker_0, # of connection points: 2
#     Edge 18, Type (0, 0), BuildingBlock: OJICUG_clean_linker_0, # of connection points: 2
#     Edge 19, Type (0, 0), BuildingBlock: OJICUG_clean_linker_0, # of connection points: 2
#     Edge 20, Type (0, 0), BuildingBlock: OJICUG_clean_linker_0, # of connection points: 2
#     Edge 21, Type (0, 0), BuildingBlock: OJICUG_clean_linker_0, # of connection points: 2
#     Edge 22, Type (0, 0), BuildingBlock: OJICUG_clean_linker_0, # of connection points: 2
#     Edge 23, Type (0, 0), BuildingBlock: OJICUG_clean_linker_0, # of connection points: 2
#     Edge 24, Type (0, 0), BuildingBlock: OJICUG_clean_linker_0, # of connection points: 2
#     Edge 25, Type (0, 0), BuildingBlock: OJICUG_clean_linker_0, # of connection points: 2
#     Edge 26, Type (0, 0), BuildingBlock: OJICUG_clean_linker_0, # of connection points: 2
#     Edge 27, Type (0, 0), BuildingBlock: OJICUG_clean_linker_0, # of connection points: 2
#     Edge 28, Type (0, 0), BuildingBlock: OJICUG_clean_linker_0, # of connection points: 2
#     Edge 29, Type (0, 0), BuildingBlock: OJICUG_clean_linker_0, # of connection points: 2
#     Edge 30, Type (0, 0), BuildingBlock: OJICUG_clean_linker_0, # of connection points: 2
#     Edge 31, Type (0, 0), BuildingBlock: OJICUG_clean_linker_0, # of connection points: 2
#     Edge 32, Type (0, 0), BuildingBlock: OJICUG_clean_linker_0, # of connection points: 2
#     Edge 33, Type (0, 0), BuildingBlock: OJICUG_clean_linker_0, # of connection points: 2
#     Edge 34, Type (0, 0), BuildingBlock: OJICUG_clean_linker_0, # of connection points: 2
#     Edge 35, Type (0, 0), BuildingBlock: OJICUG_clean_linker_0, # of connection points: 2
#     Edge 36, Type (0, 0), BuildingBlock: OJICUG_clean_linker_0, # of connection points: 2
#     Edge 37, Type (0, 0), BuildingBlock: OJICUG_clean_linker_0, # of connection points: 2
#     Edge 38, Type (0, 0), BuildingBlock: OJICUG_clean_linker_0, # of connection points: 2
#     Edge 39, Type (0, 0), BuildingBlock: OJICUG_clean_linker_0, # of connection points: 2
#     Edge 40, Type (0, 0), BuildingBlock: OJICUG_clean_linker_0, # of connection points: 2
#     Edge 41, Type (0, 0), BuildingBlock: OJICUG_clean_linker_0, # of connection points: 2
#     Edge 42, Type (0, 0), BuildingBlock: OJICUG_clean_linker_0, # of connection points: 2
#     Edge 43, Type (0, 0), BuildingBlock: OJICUG_clean_linker_0, # of connection points: 2
#     Edge 44, Type (0, 0), BuildingBlock: OJICUG_clean_linker_0, # of connection points: 2
#     Edge 45, Type (0, 0), BuildingBlock: OJICUG_clean_linker_0, # of connection points: 2
#     Edge 46, Type (0, 0), BuildingBlock: OJICUG_clean_linker_0, # of connection points: 2
#     Edge 47, Type (0, 0), BuildingBlock: OJICUG_clean_linker_0, # of connection points: 2
# Relax obj value: 0.061
# Max RMSD: 0.162
# Mean RMSD: 0.162
data_MOF--net-wjd--node1-CUKXOW_clean_sbu_0--edge1-OJICUG_clean_linker_0
_symmetry_space_group_name_H-M    P1
_symmetry_Int_Tables_number       1
_symmetry_cell_setting            triclinic
loop_
_symmetry_equiv_pos_as_xyz
'x, y, z'
_cell_length_a     23.769585
_cell_length_b     23.81111
_cell_length_c     41.328086
_cell_angle_alpha  90.227293
_cell_angle_beta   90.153441
_cell_angle_gamma 120.07017
loop_
_atom_site_label
_atom_site_type_symbol
_atom_site_fract_x
_atom_site_fract_y
_atom_site_fract_z
_atom_type_partial_charge
Tb0 Tb 0.41443 0.15365 0.12903 0.0
C1 C 0.32743 0.1102 0.06652 0.0
Tb2 Tb 0.30084 0.18024 0.12585 0.0
O3 O 0.34791 0.0484 0.12401 0.0
O4 O 0.3175 0.10822 0.14495 0.0
O5 O 0.3861 0.12849 0.07855 0.0
C6 C 0.19408 0.18969 0.1204 0.0
O7 O 0.28521 0.12229 0.08167 0.0
C8 C 0.41709 0.28295 0.12451 0.0
C9 C 0.36917 0.19454 0.19316 0.0
O10 O 0.2458 0.22028 0.10279 0.0
O11 O 0.20177 0.15228 0.14054 0.0
O12 O 0.36643 0.28219 0.13634 0.0
O13 O 0.40023 0.22896 0.11113 0.0
O14 O 0.31464 0.1827 0.17814 0.0
O15 O 0.41775 0.19348 0.17765 0.0
C16 C 0.53231 0.16566 0.13047 0.0
O17 O 0.48286 0.12559 0.14775 0.0
O18 O 0.51552 0.19944 0.1125 0.0
C19 C 0.29845 0.05144 0.13528 0.0
Tb20 Tb 0.91413 0.73725 0.40428 0.0
C21 C 0.85685 0.67682 0.3351 0.0
Tb22 Tb 0.76935 0.62863 0.39624 0.0
O23 O 0.94766 0.67066 0.39116 0.0
O24 O 0.85742 0.63582 0.41318 0.0
O25 O 0.89806 0.73007 0.3516 0.0
C26 C 0.65704 0.51663 0.40015 0.0
O27 O 0.8084 0.62553 0.34928 0.0
C28 C 0.79945 0.74792 0.38114 0.0
C29 C 0.81521 0.70478 0.46359 0.0
O30 O 0.66306 0.57336 0.39586 0.0
O31 O 0.71435 0.52277 0.40212 0.0
O32 O 0.74998 0.69712 0.36819 0.0
O33 O 0.82318 0.72876 0.40218 0.0
O34 O 0.76897 0.65432 0.44711 0.0
O35 O 0.87477 0.74346 0.45169 0.0
C36 C 0.02874 0.84535 0.40873 0.0
O37 O 1.00964 0.79467 0.42708 0.0
O38 O 0.98246 0.83567 0.38867 0.0
C39 C 0.8942 0.6194 0.39934 0.0
Tb40 Tb 0.89352 0.2737 0.12407 0.0
C41 C 0.93539 0.22914 0.06168 0.0
Tb42 Tb 0.86583 0.13292 0.12065 0.0
O43 O 0.99872 0.31149 0.11968 0.0
O44 O 0.93809 0.22156 0.14039 0.0
O45 O 0.91756 0.2698 0.07363 0.0
C46 C 0.85767 0.01719 0.11719 0.0
O47 O 0.92311 0.17481 0.07669 0.0
C48 C 0.76337 0.1467 0.11855 0.0
C49 C 0.8495 0.18671 0.18737 0.0
O50 O 0.89564 0.06412 0.1366 0.0
O51 O 0.82585 0.03626 0.09903 0.0
O52 O 0.76351 0.09623 0.12987 0.0
O53 O 0.81778 0.18411 0.1058 0.0
O54 O 0.86206 0.1444 0.17271 0.0
O55 O 0.85129 0.23648 0.17186 0.0
C56 C 0.88456 0.38107 0.12734 0.0
O57 O 0.9237 0.36964 0.14436 0.0
O58 O 0.8501 0.33179 0.1084 0.0
C59 C 0.99511 0.25894 0.13106 0.0
Tb60 Tb 0.29497 0.17341 0.39963 0.0
C61 C 0.36582 0.19053 0.33324 0.0
Tb62 Tb 0.4099 0.1491 0.39735 0.0
O63 O 0.35851 0.27584 0.3906 0.0
O64 O 0.39466 0.22423 0.41537 0.0
O65 O 0.31036 0.17689 0.34754 0.0
C66 C 0.5265 0.15785 0.39505 0.0
O67 O 0.4145 0.19059 0.34931 0.0
C68 C 0.29461 0.04538 0.39074 0.0
C69 C 0.32262 0.10596 0.45936 0.0
O70 O 0.47678 0.12064 0.3769 0.0
O71 O 0.51069 0.19052 0.4145 0.0
O72 O 0.34472 0.0439 0.40233 0.0
O73 O 0.31291 0.10174 0.38085 0.0
O74 O 0.38162 0.12503 0.44777 0.0
O75 O 0.27989 0.11691 0.44387 0.0
C76 C 0.18625 0.1801 0.40299 0.0
O77 O 0.23716 0.21177 0.42133 0.0
O78 O 0.19577 0.14297 0.38337 0.0
C79 C 0.40993 0.27822 0.40258 0.0
Tb80 Tb 0.77295 0.63433 0.13036 0.0
C81 C 0.8177 0.71915 0.06774 0.0
Tb82 Tb 0.91345 0.74662 0.12766 0.0
O83 O 0.73454 0.70066 0.12452 0.0
O84 O 0.82466 0.73169 0.14608 0.0
O85 O 0.7768 0.661 0.07974 0.0
C86 C 0.03016 0.85269 0.12261 0.0
O87 O 0.87206 0.76146 0.08308 0.0
C88 C 0.89867 0.62992 0.12619 0.0
C89 C 0.85915 0.68096 0.19482 0.0
O90 O 1.00923 0.80042 0.10524 0.0
O91 O 0.98465 0.84589 0.14226 0.0
O92 O 0.94852 0.68024 0.13859 0.0
O93 O 0.86218 0.64721 0.11262 0.0
O94 O 0.90208 0.735 0.17994 0.0
O95 O 0.80965 0.63216 0.17907 0.0
C96 C 0.66638 0.51704 0.1323 0.0
O97 O 0.67632 0.56727 0.14926 0.0
O98 O 0.71673 0.53273 0.11431 0.0
C99 C 0.78708 0.75048 0.13581 0.0
Tb100 Tb 0.86129 0.12633 0.39201 0.0
C101 C 0.84876 0.18499 0.32684 0.0
Tb102 Tb 0.88804 0.26542 0.39135 0.0
O103 O 0.75637 0.08595 0.39012 0.0
O104 O 0.81464 0.1765 0.41051 0.0
O105 O 0.87034 0.14909 0.34062 0.0
C106 C 0.87795 0.37166 0.39003 0.0
O107 O 0.84272 0.22903 0.34381 0.0
C108 C 0.99043 0.2519 0.384 0.0
C109 C 0.92898 0.21802 0.45336 0.0
O110 O 0.91817 0.36206 0.37297 0.0
O111 O 0.84342 0.32146 0.40803 0.0
O112 O 0.99308 0.30345 0.39641 0.0
O113 O 0.93387 0.21515 0.37344 0.0
O114 O 0.91248 0.25977 0.44159 0.0
O115 O 0.91534 0.16321 0.43791 0.0
C116 C 0.85221 1.01075 0.38538 0.0
O117 O 0.8885 0.05443 0.40675 0.0
O118 O 0.82173 0.03228 0.36828 0.0
C119 C 0.75797 0.13771 0.40062 0.0
Tb120 Tb 0.18147 0.28561 0.62183 0.0
C121 C 0.19772 0.35644 0.68854 0.0
Tb122 Tb 0.15389 0.39872 0.62444 0.0
O123 O 0.28378 0.35133 0.63143 0.0
O124 O 0.22969 0.38479 0.60669 0.0
O125 O 0.18551 0.30147 0.67398 0.0
C126 C 0.16362 0.51553 0.62672 0.0
O127 O 0.19569 0.40409 0.67273 0.0
C128 C 0.05249 0.28252 0.63168 0.0
C129 C 0.11023 0.31004 0.56235 0.0
O130 O 0.12436 0.46552 0.64385 0.0
O131 O 0.1978 0.49987 0.60825 0.0
O132 O 0.04854 0.33109 0.61999 0.0
O133 O 0.10969 0.30265 0.64107 0.0
O134 O 0.12817 0.36883 0.57409 0.0
O135 O 0.12307 0.26858 0.57766 0.0
C136 C 0.19053 0.17851 0.61825 0.0
O137 O 0.22136 0.22922 0.60004 0.0
O138 O 0.15299 0.18735 0.63785 0.0
C139 C 0.2841 0.40178 0.61977 0.0
Tb140 Tb 0.28029 0.88472 0.89599 0.0
C141 C 0.23667 0.92773 0.95834 0.0
Tb142 Tb 0.13975 0.85696 0.89894 0.0
O143 O 0.31847 0.98983 0.90079 0.0
O144 O 0.22817 0.92934 0.87969 0.0
O145 O 0.27735 0.90996 0.94643 0.0
C146 C 1.02359 0.84772 0.9036 0.0
O147 O 0.18207 0.91505 0.94312 0.0
C148 C 0.1536 0.75465 0.90063 0.0
C149 C 0.19315 0.84144 0.83197 0.0
O150 O 0.04423 0.81695 0.92144 0.0
O151 O 0.06913 0.88514 0.8837 0.0
O152 O 0.10329 0.75496 0.88888 0.0
O153 O 0.19092 0.80889 0.91387 0.0
O154 O 0.15045 0.85333 0.84673 0.0
O155 O 0.24324 0.84348 0.84763 0.0
C156 C 0.38693 0.87416 0.89419 0.0
O157 O 0.37664 0.91359 0.87689 0.0
O158 O 0.3369 0.84027 0.91246 0.0
C159 C 0.26575 0.98628 0.88933 0.0
Tb160 Tb 0.74824 0.89773 0.62706 0.0
C161 C 0.67925 0.84641 0.69394 0.0
Tb162 Tb 0.63462 0.75757 0.63052 0.0
O163 O 0.6828 0.93462 0.63598 0.0
O164 O 0.64878 0.84639 0.6116 0.0
O165 O 0.73402 0.8884 0.6792 0.0
C166 C 0.51656 0.65168 0.63146 0.0
O167 O 0.63082 0.79612 0.67845 0.0
C168 C 0.75083 0.77166 0.63816 0.0
C169 C 0.72298 0.79901 0.56903 0.0
O170 O 0.56569 0.66165 0.64944 0.0
O171 O 0.53377 0.70167 0.61306 0.0
O172 O 0.7012 0.71869 0.62709 0.0
O173 O 0.73152 0.80966 0.64698 0.0
O174 O 0.66393 0.75919 0.5805 0.0
O175 O 0.76482 0.85394 0.584 0.0
C176 C 0.85484 1.01373 0.62147 0.0
O177 O 0.84693 0.96969 0.64231 0.0
O178 O 0.80344 0.99166 0.60327 0.0
C179 C 0.63214 0.88433 0.62416 0.0
Tb180 Tb 0.15925 0.40459 0.89255 0.0
C181 C 0.1181 0.31913 0.95489 0.0
Tb182 Tb 0.18677 0.2916 0.89548 0.0
O183 O 0.05412 0.33789 0.89757 0.0
O184 O 0.11369 0.30736 0.87653 0.0
O185 O 0.13612 0.37751 0.94302 0.0
C186 C 0.19669 0.18523 0.90059 0.0
O187 O 0.12977 0.27669 0.93963 0.0
C188 C 0.28901 0.40806 0.8977 0.0
C189 C 0.20052 0.35948 0.82852 0.0
O190 O 0.22772 0.23717 0.91826 0.0
O191 O 0.1586 0.19249 0.88058 0.0
O192 O 0.28879 0.35781 0.88557 0.0
O193 O 0.23482 0.39075 0.91074 0.0
O194 O 0.18896 0.30517 0.84329 0.0
O195 O 0.1992 0.40787 0.84417 0.0
C196 C 0.17018 0.52188 0.89112 0.0
O197 O 0.1298 0.4719 0.87392 0.0
O198 O 0.20488 0.50595 0.90902 0.0
C199 C 0.05699 0.28829 0.88631 0.0
Tb200 Tb 0.13556 0.85258 0.6251 0.0
C201 C 0.19084 0.83879 0.69198 0.0
Tb202 Tb 0.27628 0.88036 0.6279 0.0
O203 O 0.09962 0.75075 0.6349 0.0
O204 O 0.18655 0.8043 0.60978 0.0
O205 O 0.14781 0.85034 0.67728 0.0
C206 C 0.38314 0.87007 0.62993 0.0
O207 O 0.24039 0.84023 0.67624 0.0
C208 C 0.26189 0.9822 0.63445 0.0
C209 C 0.23116 0.92194 0.56567 0.0
O210 O 0.37316 0.91016 0.64699 0.0
O211 O 0.33268 0.8354 0.61172 0.0
O212 O 0.31434 0.98533 0.62303 0.0
O213 O 0.22464 0.92547 0.64414 0.0
O214 O 0.27198 0.9042 0.57749 0.0
O215 O 0.17681 0.90955 0.58087 0.0
C216 C 1.01891 0.84297 0.62137 0.0
O217 O 0.03869 0.81152 0.6034 0.0
O218 O 0.06565 0.88142 0.64078 0.0
C219 C 0.14948 0.75024 0.62285 0.0
Tb220 Tb 0.63956 0.76463 0.89746 0.0
C221 C 0.72672 0.80934 0.95978 0.0
Tb222 Tb 0.75317 0.90491 0.90037 0.0
O223 O 0.70631 0.72635 0.90218 0.0
O224 O 0.73624 0.81601 0.881 0.0
O225 O 0.66788 0.76885 0.94791 0.0
C226 C 0.86082 0.02095 0.90406 0.0
O227 O 0.76898 0.86336 0.94455 0.0
C228 C 0.63698 0.89146 0.90259 0.0
C229 C 0.68214 0.85038 0.83369 0.0
O230 O 0.85191 0.97424 0.88459 0.0
O231 O 0.80987 1.00148 0.92214 0.0
O232 O 0.68749 0.94139 0.89077 0.0
O233 O 0.65405 0.85433 0.91557 0.0
O234 O 0.73742 0.89293 0.84822 0.0
O235 O 0.63414 0.80112 0.84948 0.0
C236 C 0.52276 0.65759 0.89448 0.0
O237 O 0.57303 0.66864 0.87742 0.0
O238 O 0.53812 0.70706 0.91329 0.0
C239 C 0.7555 0.77852 0.89062 0.0
C240 C 0.04146 0.18906 0.14601 0.0
C241 C 0.04531 0.24043 0.12774 0.0
H242 H 0.08556 0.13217 0.15776 0.0
C243 C 0.09648 0.27276 0.1058 0.0
H244 H 1.00258 0.16373 0.16323 0.0
C245 C 0.14361 0.25444 0.10247 0.0
C246 C 0.14055 0.20394 0.12127 0.0
H247 H 0.09998 0.31202 0.09116 0.0
H248 H 0.1832 0.28075 0.08572 0.0
C249 C 0.08879 0.17101 0.14286 0.0
C250 C 0.21086 0.94616 0.41898 0.0
C251 C 0.22648 0.99514 0.39606 0.0
H252 H 0.13525 0.86091 0.44163 0.0
C253 C 0.1764 0.9968 0.37887 0.0
H254 H 0.2487 0.94441 0.43283 0.0
C255 C 0.11166 0.94938 0.384 0.0
C256 C 0.09602 0.89964 0.40646 0.0
H257 H 0.18741 0.0339 0.36094 0.0
H258 H 0.07399 0.95079 0.36981 0.0
C259 C 0.14604 0.89891 0.42426 0.0
C260 C 0.87723 0.93336 0.14231 0.0
C261 C 0.84336 0.94962 0.11985 0.0
H262 H 0.88486 0.85694 0.16536 0.0
C263 C 0.7916 0.90001 0.1022 0.0
H264 H 0.91706 0.9707 0.15637 0.0
C265 C 0.77287 0.83504 0.10757 0.0
C266 C 0.80605 0.81879 0.13044 0.0
H267 H 0.76454 0.91128 0.08482 0.0
H268 H 0.73258 0.79759 0.0938 0.0
C269 C 0.85877 0.86842 0.14751 0.0
C270 C 0.08048 0.15859 0.37904 0.0
C271 C 0.13275 0.19431 0.40035 0.0
H272 H 0.99408 0.14901 0.35717 0.0
C273 C 0.13678 0.24783 0.41693 0.0
H274 H 0.07634 0.11716 0.36595 0.0
C275 C 0.09064 0.26674 0.41143 0.0
C276 C 0.03922 0.23198 0.38957 0.0
H277 H 0.17666 0.27628 0.43346 0.0
H278 H 0.09528 0.30863 0.42428 0.0
C279 C 0.03378 0.17704 0.37386 0.0
C280 C 0.1817 1.00552 0.149 0.0
C281 C 0.2298 1.00109 0.13144 0.0
H282 H 0.08023 0.962 0.15966 0.0
C283 C 0.21156 0.94943 0.10964 0.0
H284 H 0.19477 0.04485 0.16606 0.0
C285 C 0.14606 0.90234 0.10579 0.0
C286 C 0.09805 0.90602 0.12389 0.0
H287 H 0.24781 0.94554 0.09552 0.0
H288 H 0.13318 0.86233 0.08918 0.0
C289 C 0.11631 0.95829 0.1453 0.0
C290 C 0.86297 0.86122 0.40099 0.0
C291 C 0.81594 0.81614 0.37936 0.0
H292 H 0.91149 0.95822 0.41976 0.0
C293 C 0.78343 0.83652 0.35842 0.0
H294 H 0.88847 0.84683 0.41772 0.0
C295 C 0.79673 0.90079 0.35977 0.0
C296 C 0.8424 0.94505 0.38216 0.0
H297 H 0.74697 0.80268 0.34165 0.0
H298 H 0.77013 0.91541 0.34385 0.0
C299 C 0.87612 0.92505 0.40236 0.0
C300 C 0.19082 0.0285 0.64738 0.0
C301 C 0.24274 0.03163 0.62979 0.0
H302 H 0.133 0.07253 0.65724 0.0
C303 C 0.27503 0.0813 0.60711 0.0
H304 H 0.1655 0.9908 0.66513 0.0
C305 C 0.25614 0.12762 0.60237 0.0
C306 C 0.20513 0.12536 0.62049 0.0
H307 H 0.31472 0.08423 0.59297 0.0
H308 H 0.28246 0.16604 0.58507 0.0
C309 C 0.17222 0.07509 0.64282 0.0
C310 C 0.9078 0.78289 0.92067 0.0
C311 C 0.95583 0.83351 0.90217 0.0
H312 H 0.80612 0.72519 0.93117 0.0
C313 C 0.93764 0.86656 0.88028 0.0
H314 H 0.92059 0.7565 0.93764 0.0
C315 C 0.87227 0.84849 0.87653 0.0
C316 C 0.82417 0.79699 0.89449 0.0
H317 H 0.97374 0.9055 0.8656 0.0
H318 H 0.85921 0.87392 0.8591 0.0
C319 C 0.84237 0.76455 0.91674 0.0
C320 C 0.96003 0.10128 0.64402 0.0
C321 C 0.90807 0.08163 0.62221 0.0
H322 H 0.04616 0.18105 0.66442 0.0
C323 C 0.90445 0.12838 0.60308 0.0
H324 H 0.96367 0.06618 0.65917 0.0
C325 C 0.95122 0.19402 0.60632 0.0
C326 C 1.00259 0.21368 0.62848 0.0
H327 H 0.86468 0.11444 0.58615 0.0
H328 H 0.94731 0.22929 0.59144 0.0
C329 C 1.00704 0.16684 0.64706 0.0
C330 C 0.17716 0.0795 0.87808 0.0
C331 C 0.211 0.13179 0.89956 0.0
H332 H 0.16897 0.9928 0.85767 0.0
C333 C 0.26233 0.13535 0.91812 0.0
H334 H 0.13763 0.07584 0.86337 0.0
C335 C 0.28056 0.08821 0.91465 0.0
C336 C 0.24732 0.0365 0.8928 0.0
H337 H 0.28935 0.17533 0.9348 0.0
H338 H 0.32048 0.09211 0.9291 0.0
C339 C 0.1951 0.03214 0.87479 0.0
C340 C 0.90167 0.7755 0.60639 0.0
C341 C 0.95096 0.82814 0.62372 0.0
H342 H 0.79924 0.71565 0.59782 0.0
C343 C 0.93404 0.86261 0.64547 0.0
H344 H 0.91341 0.74795 0.58955 0.0
C345 C 0.86878 0.84405 0.65021 0.0
C346 C 0.81948 0.79054 0.63343 0.0
H347 H 0.97111 0.90313 0.65927 0.0
H348 H 0.85679 0.87075 0.66746 0.0
C349 C 0.8364 0.75659 0.61136 0.0
C350 C 0.95787 0.20307 0.9141 0.0
C351 C 1.00752 0.21984 0.8914 0.0
H352 H 0.87318 0.12628 0.93654 0.0
C353 C 1.01081 0.17057 0.87427 0.0
H354 H 0.95486 0.24023 0.92792 0.0
C355 C 0.96434 0.10547 0.87926 0.0
C356 C 0.91403 0.08869 0.90157 0.0
H357 H 0.04856 0.18245 0.85654 0.0
H358 H 0.96701 0.06841 0.86516 0.0
C359 C 0.91165 0.13795 0.91927 0.0
C360 C 0.31963 0.19866 0.27994 0.0
C361 C 0.37085 0.19975 0.29758 0.0
H362 H 0.27918 0.19687 0.23344 0.0
C363 C 0.42447 0.2051 0.28052 0.0
H364 H 0.27771 0.19503 0.29218 0.0
C365 C 0.42532 0.20615 0.24661 0.0
C366 C 0.3726 0.20192 0.22898 0.0
H367 H 0.46493 0.2063 0.29328 0.0
H368 H 0.4664 0.20811 0.23427 0.0
C369 C 0.3205 0.19975 0.24611 0.0
C370 C 0.90854 0.73077 0.2825 0.0
C371 C 0.8618 0.67593 0.29926 0.0
H372 H 0.9448 0.77531 0.23654 0.0
C373 C 0.81724 0.62109 0.28125 0.0
H374 H 0.94373 0.7738 0.2955 0.0
C375 C 0.81777 0.62194 0.2474 0.0
C376 C 0.86294 0.6776 0.23062 0.0
H377 H 0.78072 0.57776 0.29325 0.0
H378 H 0.78165 0.57936 0.23444 0.0
C379 C 0.90915 0.73157 0.2486 0.0
C380 C 0.83486 0.22989 0.24042 0.0
C381 C 0.84039 0.18208 0.22291 0.0
H382 H 0.83275 0.26828 0.28713 0.0
C383 C 0.84235 0.13216 0.23998 0.0
H384 H 0.83292 0.26889 0.22803 0.0
C385 C 0.84244 0.13196 0.27372 0.0
C386 C 0.84036 0.18154 0.29127 0.0
H387 H 0.84603 0.09418 0.22737 0.0
H388 H 0.84598 0.09375 0.28603 0.0
C389 C 0.83473 0.22955 0.27431 0.0
C390 C 0.20662 0.31088 0.74168 0.0
C391 C 0.20696 0.36163 0.72422 0.0
H392 H 0.20496 0.27064 0.78804 0.0
C393 C 0.21129 0.41474 0.74147 0.0
H394 H 0.20379 0.26937 0.72929 0.0
C395 C 0.21197 0.41547 0.77538 0.0
C396 C 0.20834 0.36311 0.7928 0.0
H397 H 0.21193 0.45483 0.72886 0.0
H398 H 0.21311 0.45611 0.78786 0.0
C399 C 0.2073 0.31162 0.77551 0.0
C400 C 0.23687 0.82786 0.77891 0.0
C401 C 0.18844 0.83237 0.79628 0.0
H402 H 0.27554 0.82588 0.73243 0.0
C403 C 0.13773 0.83294 0.77894 0.0
H404 H 0.27653 0.82703 0.79142 0.0
C405 C 0.13716 0.83226 0.74511 0.0
C406 C 0.18727 0.831 0.7277 0.0
H407 H 0.09931 0.83593 0.79143 0.0
H408 H 0.09832 0.83477 0.73267 0.0
C409 C 0.23629 0.82719 0.745 0.0
C410 C 0.72716 0.9028 0.74668 0.0
C411 C 0.67536 0.85193 0.72955 0.0
H412 H 0.76968 0.9426 0.7928 0.0
C413 C 0.62262 0.80393 0.74707 0.0
H414 H 0.76841 0.94094 0.73405 0.0
C415 C 0.62335 0.80493 0.78096 0.0
C416 C 0.67685 0.85393 0.79806 0.0
H417 H 0.58174 0.76419 0.7347 0.0
H418 H 0.58299 0.76591 0.79367 0.0
C419 C 0.7279 0.90378 0.78049 0.0
C420 C 0.2189 0.9954 0.99986 0.0
C421 C 0.25812 0.97193 0.98707 0.0
H422 H 0.2099 0.05775 0.0345 0.0
C423 C 0.321 0.99624 0.99999 0.0
H424 H 0.17049 0.97848 0.99033 0.0
C425 C 0.34406 0.04264 0.02488 0.0
C426 C 0.30488 0.06601 0.03779 0.0
H427 H 0.3531 0.98015 0.99062 0.0
H428 H 0.39254 0.05948 0.03427 0.0
C429 C 0.24185 0.04159 0.02498 0.0
C430 C 0.8351 0.78769 0.50691 0.0
C431 C 0.79446 0.72638 0.4928 0.0
H432 H 0.84437 0.85931 0.54142 0.0
C433 C 0.73009 0.68976 0.50392 0.0
H434 H 0.88471 0.81768 0.4988 0.0
C435 C 0.70656 0.71418 0.52787 0.0
C436 C 0.7467 0.77591 0.54158 0.0
H437 H 0.69704 0.64251 0.49362 0.0
H438 H 0.65674 0.68426 0.5357 0.0
C439 C 0.81155 0.81209 0.53102 0.0
C440 C 0.05109 0.33633 0.99638 0.0
C441 C 0.07409 0.29691 0.98338 0.0
H442 H 0.9886 0.34563 0.03036 0.0
C443 C 0.04912 0.23381 0.99567 0.0
H444 H 0.0684 0.38489 0.98735 0.0
C445 C 1.00265 0.21097 0.02038 0.0
C446 C 0.97953 0.25042 0.03325 0.0
H447 H 0.06497 0.20169 0.98603 0.0
H448 H 0.98524 0.16247 0.02953 0.0
C449 C 1.00441 0.31338 0.02086 0.0
C450 C 0.23694 0.03704 0.50017 0.0
C451 C 0.30005 0.06161 0.48774 0.0
H452 H 0.16525 0.97332 0.53402 0.0
C453 C 0.33902 0.03783 0.50045 0.0
H454 H 0.20513 0.0535 0.49076 0.0
C455 C 0.31564 0.99085 0.52477 0.0
C456 C 0.25268 0.96638 0.53732 0.0
H457 H 0.38752 0.05472 0.4913 0.0
H458 H 0.34761 0.97447 0.53402 0.0
C459 C 0.21368 0.99029 0.52474 0.0
C460 C 0.73358 0.70251 0.02598 0.0
C461 C 0.79639 0.74138 0.03894 0.0
H462 H 0.66194 0.69369 0.99179 0.0
C463 C 0.83549 0.80403 0.02626 0.0
H464 H 0.70157 0.65434 0.03528 0.0
C465 C 0.81241 0.82696 1.00123 0.0
C466 C 0.74941 0.78807 0.98842 0.0
H467 H 0.88382 0.83574 0.03585 0.0
H468 H 0.84423 0.87506 0.9918 0.0
C469 C 0.7104 0.72555 1.0012 0.0
C470 C 0.04365 0.22444 0.52018 0.0
C471 C 0.06592 0.28664 0.5336 0.0
H472 H 0.98275 0.1535 0.48469 0.0
C473 C 0.04049 0.32429 0.52116 0.0
H474 H 0.06147 0.19364 0.52933 0.0
C475 C 0.9944 0.30074 0.49615 0.0
C476 C 0.97238 0.23886 0.48247 0.0
H477 H 0.05549 0.37199 0.53101 0.0
H478 H 0.9768 0.33189 0.48724 0.0
C479 C 0.99776 0.201 0.49481 0.0
C480 C 0.66043 0.12016 0.14565 0.0
C481 C 0.7082 0.15791 0.12287 0.0
H482 H 0.56804 0.09378 0.16609 0.0
C483 C 0.70012 0.2022 0.10394 0.0
H484 H 0.66563 0.08598 0.1608 0.0
C485 C 0.64363 0.20665 0.10703 0.0
C486 C 0.59494 0.16695 0.12911 0.0
H487 H 0.73603 0.23143 0.08604 0.0
H488 H 0.63723 0.23966 0.09155 0.0
C489 C 0.60455 0.12471 0.14879 0.0
C490 C 0.58997 0.39909 0.41529 0.0
C491 C 0.59465 0.45513 0.40144 0.0
H492 H 0.52682 0.2994 0.42814 0.0
C493 C 0.53873 0.45244 0.38867 0.0
H494 H 0.63251 0.40029 0.4256 0.0
C495 C 0.47936 0.39462 0.38913 0.0
C496 C 0.4741 0.33834 0.40298 0.0
H497 H 0.54102 0.4949 0.37784 0.0
H498 H 0.43736 0.39418 0.37858 0.0
C499 C 0.52976 0.34128 0.41651 0.0
C500 C 0.84301 0.45326 0.10716 0.0
C501 C 0.88338 0.44245 0.1281 0.0
H502 H 0.8162 0.52184 0.08984 0.0
C503 C 0.92544 0.49222 0.14919 0.0
H504 H 0.81012 0.41553 0.09063 0.0
C505 C 0.92868 0.55228 0.14879 0.0
C506 C 0.8898 0.56402 0.12737 0.0
H507 H 0.95692 0.48523 0.16567 0.0
H508 H 0.96251 0.58999 0.16507 0.0
C509 C 0.8462 0.51378 0.1068 0.0
C510 C 0.59554 0.11429 0.37516 0.0
C511 C 0.5886 0.15788 0.39528 0.0
H512 H 0.65466 0.07431 0.36128 0.0
C513 C 0.63982 0.19831 0.41639 0.0
H514 H 0.55703 0.08269 0.35861 0.0
C515 C 0.69648 0.19374 0.41783 0.0
C516 C 0.7021 0.14839 0.39834 0.0
H517 H 0.63553 0.23237 0.43218 0.0
H518 H 0.73461 0.22386 0.43485 0.0
C519 C 0.65145 0.1094 0.37678 0.0
C520 C 0.53471 0.34731 0.10785 0.0
C521 C 0.48325 0.33943 0.12755 0.0
H522 H 0.63412 0.41048 0.09397 0.0
C523 C 0.49394 0.38845 0.1499 0.0
H524 H 0.52746 0.31054 0.09019 0.0
C525 C 0.55414 0.44512 0.15197 0.0
C526 C 0.60511 0.45422 0.13168 0.0
H527 H 0.45525 0.38352 0.16557 0.0
H528 H 0.56028 0.48246 0.16904 0.0
C529 C 0.59542 0.40448 0.10992 0.0
C530 C 0.83872 0.50159 0.41421 0.0
C531 C 0.88316 0.55341 0.39511 0.0
H532 H 0.80208 0.40215 0.42756 0.0
C533 C 0.92189 0.54349 0.37288 0.0
H534 H 0.80887 0.50846 0.43174 0.0
C535 C 0.91827 0.4835 0.37056 0.0
C536 C 0.87602 0.43233 0.39054 0.0
H537 H 0.95623 0.58269 0.3577 0.0
H538 H 0.94994 0.47778 0.35372 0.0
C539 C 0.83518 0.44118 0.41194 0.0
C540 C 0.20228 0.68614 0.60475 0.0
C541 C 0.15859 0.69337 0.62474 0.0
H542 H 0.23834 0.6234 0.58967 0.0
C543 C 0.11974 0.64343 0.64629 0.0
H544 H 0.23231 0.72367 0.58772 0.0
C545 C 0.12298 0.58666 0.64737 0.0
C546 C 0.16502 0.57824 0.62683 0.0
H547 H 0.08588 0.64779 0.66216 0.0
H548 H 0.09148 0.54873 0.66392 0.0
C549 C 0.20544 0.62878 0.60578 0.0
C550 C 0.49946 0.91505 0.8748 0.0
C551 C 0.44838 0.87298 0.8949 0.0
H552 H 0.59864 0.95312 0.86154 0.0
C553 C 0.45813 0.83315 0.91659 0.0
H554 H 0.49328 0.94607 0.85778 0.0
C555 C 0.51903 0.83716 0.91879 0.0
C556 C 0.57063 0.88112 0.89935 0.0
H557 H 0.41932 0.80025 0.93238 0.0
H558 H 0.52629 0.80772 0.93634 0.0
C559 C 0.55987 0.91915 0.87704 0.0
C560 C 0.44389 0.53887 0.64999 0.0
C561 C 0.45373 0.59036 0.63 0.0
H562 H 0.38233 0.43945 0.66234 0.0
C563 C 0.40496 0.58103 0.60762 0.0
H564 H 0.48043 0.54468 0.66751 0.0
C565 C 0.34813 0.52019 0.60462 0.0
C566 C 0.33976 0.46817 0.6239 0.0
H567 H 0.4115 0.62014 0.59191 0.0
H568 H 0.31212 0.51329 0.58655 0.0
C569 C 0.38769 0.47852 0.64692 0.0
C570 C 0.20796 0.69089 0.91657 0.0
C571 C 0.1638 0.69867 0.89715 0.0
H572 H 0.2449 0.62807 0.92984 0.0
C573 C 0.12529 0.64991 0.87463 0.0
H574 H 0.23769 0.72747 0.93432 0.0
C575 C 0.12916 0.5936 0.87212 0.0
C576 C 0.17154 0.58452 0.89215 0.0
H577 H 0.0911 0.65474 0.85915 0.0
H578 H 0.09777 0.55646 0.85494 0.0
C579 C 0.2118 0.63403 0.91408 0.0
C580 C 0.45383 0.82767 0.60837 0.0
C581 C 0.4444 0.86847 0.62969 0.0
H582 H 0.52144 0.80066 0.58958 0.0
C583 C 0.49553 0.91082 0.65005 0.0
H584 H 0.41499 0.79455 0.59239 0.0
C585 C 0.55561 0.91408 0.64849 0.0
C586 C 0.56604 0.87492 0.62663 0.0
H587 H 0.48962 0.9426 0.66679 0.0
H588 H 0.59438 0.94821 0.66421 0.0
C589 C 0.51442 0.83086 0.60686 0.0
C590 C 0.40965 0.58542 0.91537 0.0
C591 C 0.46014 0.59618 0.89407 0.0
H592 H 0.31506 0.51652 0.93354 0.0
C593 C 0.45191 0.54623 0.87309 0.0
H594 H 0.41498 0.62333 0.93182 0.0
C595 C 0.39531 0.48593 0.87402 0.0
C596 C 0.34549 0.4742 0.89586 0.0
H597 H 0.48986 0.55323 0.85634 0.0
H598 H 0.39101 0.44802 0.85785 0.0
C599 C 0.35252 0.52464 0.91626 0.0
loop_
_geom_bond_atom_site_label_1
_geom_bond_atom_site_label_2
_geom_bond_distance
_geom_bond_site_symmetry_2
_ccdc_geom_bond_type
Tb0 O3 2.453 . S
Tb0 O4 2.596 . S
Tb0 O5 2.374 . S
Tb0 O13 2.343 . S
Tb0 O15 2.353 . S
Tb0 O17 2.427 . S
Tb0 O18 2.513 . S
C1 O5 1.251 . S
C1 O7 1.263 . S
Tb2 O4 2.343 . S
Tb2 O7 2.353 . S
Tb2 O10 2.427 . S
Tb2 O11 2.513 . S
Tb2 O12 2.453 . S
Tb2 O13 2.596 . S
Tb2 O14 2.374 . S
O3 Tb0 2.453 . S
O3 C19 1.245 . S
O4 Tb0 2.596 . S
O4 Tb2 2.343 . S
O4 C19 1.259 . S
O5 Tb0 2.374 . S
O5 C1 1.251 . S
C6 O10 1.275 . S
C6 O11 1.246 . S
O7 C1 1.263 . S
O7 Tb2 2.353 . S
C8 O12 1.245 . S
C8 O13 1.259 . S
C9 O14 1.250 . S
C9 O15 1.263 . S
O10 Tb2 2.427 . S
O10 C6 1.275 . S
O11 Tb2 2.513 . S
O11 C6 1.246 . S
O12 Tb2 2.453 . S
O12 C8 1.245 . S
O13 Tb0 2.343 . S
O13 Tb2 2.596 . S
O13 C8 1.259 . S
O14 Tb2 2.374 . S
O14 C9 1.250 . S
O15 Tb0 2.353 . S
O15 C9 1.263 . S
C16 O17 1.275 . S
C16 O18 1.246 . S
O17 Tb0 2.427 . S
O17 C16 1.275 . S
O18 Tb0 2.513 . S
O18 C16 1.246 . S
C19 O3 1.245 . S
C19 O4 1.259 . S
Tb20 O23 2.453 . S
Tb20 O24 2.596 . S
Tb20 O25 2.374 . S
Tb20 O33 2.343 . S
Tb20 O35 2.353 . S
Tb20 O37 2.427 . S
Tb20 O38 2.513 . S
C21 O25 1.251 . S
C21 O27 1.263 . S
Tb22 O24 2.343 . S
Tb22 O27 2.353 . S
Tb22 O30 2.427 . S
Tb22 O31 2.513 . S
Tb22 O32 2.453 . S
Tb22 O33 2.596 . S
Tb22 O34 2.374 . S
O23 Tb20 2.453 . S
O23 C39 1.245 . S
O24 Tb20 2.596 . S
O24 Tb22 2.343 . S
O24 C39 1.259 . S
O25 Tb20 2.374 . S
O25 C21 1.251 . S
C26 O30 1.275 . S
C26 O31 1.246 . S
O27 C21 1.263 . S
O27 Tb22 2.353 . S
C28 O32 1.245 . S
C28 O33 1.259 . S
C29 O34 1.250 . S
C29 O35 1.263 . S
O30 Tb22 2.427 . S
O30 C26 1.275 . S
O31 Tb22 2.513 . S
O31 C26 1.246 . S
O32 Tb22 2.453 . S
O32 C28 1.245 . S
O33 Tb20 2.343 . S
O33 Tb22 2.596 . S
O33 C28 1.259 . S
O34 Tb22 2.374 . S
O34 C29 1.250 . S
O35 Tb20 2.353 . S
O35 C29 1.263 . S
C36 O37 1.275 . S
C36 O38 1.246 . S
O37 Tb20 2.427 . S
O37 C36 1.275 . S
O38 Tb20 2.513 . S
O38 C36 1.246 . S
C39 O23 1.245 . S
C39 O24 1.259 . S
Tb40 O43 2.453 . S
Tb40 O44 2.596 . S
Tb40 O45 2.374 . S
Tb40 O53 2.343 . S
Tb40 O55 2.353 . S
Tb40 O57 2.427 . S
Tb40 O58 2.513 . S
C41 O45 1.251 . S
C41 O47 1.263 . S
Tb42 O44 2.343 . S
Tb42 O47 2.353 . S
Tb42 O50 2.427 . S
Tb42 O51 2.513 . S
Tb42 O52 2.453 . S
Tb42 O53 2.596 . S
Tb42 O54 2.374 . S
O43 Tb40 2.453 . S
O43 C59 1.245 . S
O44 Tb40 2.596 . S
O44 Tb42 2.343 . S
O44 C59 1.259 . S
O45 Tb40 2.374 . S
O45 C41 1.251 . S
C46 O50 1.275 . S
C46 O51 1.246 . S
O47 C41 1.263 . S
O47 Tb42 2.353 . S
C48 O52 1.245 . S
C48 O53 1.259 . S
C49 O54 1.250 . S
C49 O55 1.263 . S
O50 Tb42 2.427 . S
O50 C46 1.275 . S
O51 Tb42 2.513 . S
O51 C46 1.246 . S
O52 Tb42 2.453 . S
O52 C48 1.245 . S
O53 Tb40 2.343 . S
O53 Tb42 2.596 . S
O53 C48 1.259 . S
O54 Tb42 2.374 . S
O54 C49 1.250 . S
O55 Tb40 2.353 . S
O55 C49 1.263 . S
C56 O57 1.275 . S
C56 O58 1.246 . S
O57 Tb40 2.427 . S
O57 C56 1.275 . S
O58 Tb40 2.513 . S
O58 C56 1.246 . S
C59 O43 1.245 . S
C59 O44 1.259 . S
Tb60 O63 2.453 . S
Tb60 O64 2.596 . S
Tb60 O65 2.374 . S
Tb60 O73 2.343 . S
Tb60 O75 2.353 . S
Tb60 O77 2.427 . S
Tb60 O78 2.513 . S
C61 O65 1.251 . S
C61 O67 1.263 . S
Tb62 O64 2.343 . S
Tb62 O67 2.353 . S
Tb62 O70 2.427 . S
Tb62 O71 2.513 . S
Tb62 O72 2.453 . S
Tb62 O73 2.596 . S
Tb62 O74 2.374 . S
O63 Tb60 2.453 . S
O63 C79 1.245 . S
O64 Tb60 2.596 . S
O64 Tb62 2.343 . S
O64 C79 1.259 . S
O65 Tb60 2.374 . S
O65 C61 1.251 . S
C66 O70 1.275 . S
C66 O71 1.246 . S
O67 C61 1.263 . S
O67 Tb62 2.353 . S
C68 O72 1.245 . S
C68 O73 1.259 . S
C69 O74 1.250 . S
C69 O75 1.263 . S
O70 Tb62 2.427 . S
O70 C66 1.275 . S
O71 Tb62 2.513 . S
O71 C66 1.246 . S
O72 Tb62 2.453 . S
O72 C68 1.245 . S
O73 Tb60 2.343 . S
O73 Tb62 2.596 . S
O73 C68 1.259 . S
O74 Tb62 2.374 . S
O74 C69 1.250 . S
O75 Tb60 2.353 . S
O75 C69 1.263 . S
C76 O77 1.275 . S
C76 O78 1.246 . S
O77 Tb60 2.427 . S
O77 C76 1.275 . S
O78 Tb60 2.513 . S
O78 C76 1.246 . S
C79 O63 1.245 . S
C79 O64 1.259 . S
Tb80 O83 2.453 . S
Tb80 O84 2.596 . S
Tb80 O85 2.374 . S
Tb80 O93 2.343 . S
Tb80 O95 2.353 . S
Tb80 O97 2.427 . S
Tb80 O98 2.513 . S
C81 O85 1.251 . S
C81 O87 1.263 . S
Tb82 O84 2.343 . S
Tb82 O87 2.353 . S
Tb82 O90 2.427 . S
Tb82 O91 2.513 . S
Tb82 O92 2.453 . S
Tb82 O93 2.596 . S
Tb82 O94 2.374 . S
O83 Tb80 2.453 . S
O83 C99 1.245 . S
O84 Tb80 2.596 . S
O84 Tb82 2.343 . S
O84 C99 1.259 . S
O85 Tb80 2.374 . S
O85 C81 1.251 . S
C86 O90 1.275 . S
C86 O91 1.246 . S
O87 C81 1.263 . S
O87 Tb82 2.353 . S
C88 O92 1.245 . S
C88 O93 1.259 . S
C89 O94 1.250 . S
C89 O95 1.263 . S
O90 Tb82 2.427 . S
O90 C86 1.275 . S
O91 Tb82 2.513 . S
O91 C86 1.246 . S
O92 Tb82 2.453 . S
O92 C88 1.245 . S
O93 Tb80 2.343 . S
O93 Tb82 2.596 . S
O93 C88 1.259 . S
O94 Tb82 2.374 . S
O94 C89 1.250 . S
O95 Tb80 2.353 . S
O95 C89 1.263 . S
C96 O97 1.275 . S
C96 O98 1.246 . S
O97 Tb80 2.427 . S
O97 C96 1.275 . S
O98 Tb80 2.513 . S
O98 C96 1.246 . S
C99 O83 1.245 . S
C99 O84 1.259 . S
Tb100 O103 2.453 . S
Tb100 O104 2.596 . S
Tb100 O105 2.374 . S
Tb100 O113 2.343 . S
Tb100 O115 2.353 . S
Tb100 O117 2.427 . S
Tb100 O118 2.513 . S
C101 O105 1.251 . S
C101 O107 1.263 . S
Tb102 O104 2.343 . S
Tb102 O107 2.353 . S
Tb102 O110 2.427 . S
Tb102 O111 2.513 . S
Tb102 O112 2.453 . S
Tb102 O113 2.596 . S
Tb102 O114 2.374 . S
O103 Tb100 2.453 . S
O103 C119 1.245 . S
O104 Tb100 2.596 . S
O104 Tb102 2.343 . S
O104 C119 1.259 . S
O105 Tb100 2.374 . S
O105 C101 1.251 . S
C106 O110 1.275 . S
C106 O111 1.246 . S
O107 C101 1.263 . S
O107 Tb102 2.353 . S
C108 O112 1.245 . S
C108 O113 1.259 . S
C109 O114 1.250 . S
C109 O115 1.263 . S
O110 Tb102 2.427 . S
O110 C106 1.275 . S
O111 Tb102 2.513 . S
O111 C106 1.246 . S
O112 Tb102 2.453 . S
O112 C108 1.245 . S
O113 Tb100 2.343 . S
O113 Tb102 2.596 . S
O113 C108 1.259 . S
O114 Tb102 2.374 . S
O114 C109 1.250 . S
O115 Tb100 2.353 . S
O115 C109 1.263 . S
C116 O117 1.275 . S
C116 O118 1.246 . S
O117 Tb100 2.427 . S
O117 C116 1.275 . S
O118 Tb100 2.513 . S
O118 C116 1.246 . S
C119 O103 1.245 . S
C119 O104 1.259 . S
Tb120 O123 2.453 . S
Tb120 O124 2.596 . S
Tb120 O125 2.374 . S
Tb120 O133 2.343 . S
Tb120 O135 2.353 . S
Tb120 O137 2.427 . S
Tb120 O138 2.513 . S
C121 O125 1.251 . S
C121 O127 1.263 . S
Tb122 O124 2.343 . S
Tb122 O127 2.353 . S
Tb122 O130 2.427 . S
Tb122 O131 2.513 . S
Tb122 O132 2.453 . S
Tb122 O133 2.596 . S
Tb122 O134 2.374 . S
O123 Tb120 2.453 . S
O123 C139 1.245 . S
O124 Tb120 2.596 . S
O124 Tb122 2.343 . S
O124 C139 1.259 . S
O125 Tb120 2.374 . S
O125 C121 1.251 . S
C126 O130 1.275 . S
C126 O131 1.246 . S
O127 C121 1.263 . S
O127 Tb122 2.353 . S
C128 O132 1.245 . S
C128 O133 1.259 . S
C129 O134 1.250 . S
C129 O135 1.263 . S
O130 Tb122 2.427 . S
O130 C126 1.275 . S
O131 Tb122 2.513 . S
O131 C126 1.246 . S
O132 Tb122 2.453 . S
O132 C128 1.245 . S
O133 Tb120 2.343 . S
O133 Tb122 2.596 . S
O133 C128 1.259 . S
O134 Tb122 2.374 . S
O134 C129 1.250 . S
O135 Tb120 2.353 . S
O135 C129 1.263 . S
C136 O137 1.275 . S
C136 O138 1.246 . S
O137 Tb120 2.427 . S
O137 C136 1.275 . S
O138 Tb120 2.513 . S
O138 C136 1.246 . S
C139 O123 1.245 . S
C139 O124 1.259 . S
Tb140 O143 2.453 . S
Tb140 O144 2.596 . S
Tb140 O145 2.374 . S
Tb140 O153 2.343 . S
Tb140 O155 2.353 . S
Tb140 O157 2.427 . S
Tb140 O158 2.513 . S
C141 O145 1.251 . S
C141 O147 1.263 . S
Tb142 O144 2.343 . S
Tb142 O147 2.353 . S
Tb142 O150 2.427 . S
Tb142 O151 2.513 . S
Tb142 O152 2.453 . S
Tb142 O153 2.596 . S
Tb142 O154 2.374 . S
O143 Tb140 2.453 . S
O143 C159 1.245 . S
O144 Tb140 2.596 . S
O144 Tb142 2.343 . S
O144 C159 1.259 . S
O145 Tb140 2.374 . S
O145 C141 1.251 . S
C146 O150 1.275 . S
C146 O151 1.246 . S
O147 C141 1.263 . S
O147 Tb142 2.353 . S
C148 O152 1.245 . S
C148 O153 1.259 . S
C149 O154 1.250 . S
C149 O155 1.263 . S
O150 Tb142 2.427 . S
O150 C146 1.275 . S
O151 Tb142 2.513 . S
O151 C146 1.246 . S
O152 Tb142 2.453 . S
O152 C148 1.245 . S
O153 Tb140 2.343 . S
O153 Tb142 2.596 . S
O153 C148 1.259 . S
O154 Tb142 2.374 . S
O154 C149 1.250 . S
O155 Tb140 2.353 . S
O155 C149 1.263 . S
C156 O157 1.275 . S
C156 O158 1.246 . S
O157 Tb140 2.427 . S
O157 C156 1.275 . S
O158 Tb140 2.513 . S
O158 C156 1.246 . S
C159 O143 1.245 . S
C159 O144 1.259 . S
Tb160 O163 2.453 . S
Tb160 O164 2.596 . S
Tb160 O165 2.374 . S
Tb160 O173 2.343 . S
Tb160 O175 2.353 . S
Tb160 O177 2.427 . S
Tb160 O178 2.513 . S
C161 O165 1.251 . S
C161 O167 1.263 . S
Tb162 O164 2.343 . S
Tb162 O167 2.353 . S
Tb162 O170 2.427 . S
Tb162 O171 2.513 . S
Tb162 O172 2.453 . S
Tb162 O173 2.596 . S
Tb162 O174 2.374 . S
O163 Tb160 2.453 . S
O163 C179 1.245 . S
O164 Tb160 2.596 . S
O164 Tb162 2.343 . S
O164 C179 1.259 . S
O165 Tb160 2.374 . S
O165 C161 1.251 . S
C166 O170 1.275 . S
C166 O171 1.246 . S
O167 C161 1.263 . S
O167 Tb162 2.353 . S
C168 O172 1.245 . S
C168 O173 1.259 . S
C169 O174 1.250 . S
C169 O175 1.263 . S
O170 Tb162 2.427 . S
O170 C166 1.275 . S
O171 Tb162 2.513 . S
O171 C166 1.246 . S
O172 Tb162 2.453 . S
O172 C168 1.245 . S
O173 Tb160 2.343 . S
O173 Tb162 2.596 . S
O173 C168 1.259 . S
O174 Tb162 2.374 . S
O174 C169 1.250 . S
O175 Tb160 2.353 . S
O175 C169 1.263 . S
C176 O177 1.275 . S
C176 O178 1.246 . S
O177 Tb160 2.427 . S
O177 C176 1.275 . S
O178 Tb160 2.513 . S
O178 C176 1.246 . S
C179 O163 1.245 . S
C179 O164 1.259 . S
Tb180 O183 2.453 . S
Tb180 O184 2.596 . S
Tb180 O185 2.374 . S
Tb180 O193 2.343 . S
Tb180 O195 2.353 . S
Tb180 O197 2.427 . S
Tb180 O198 2.513 . S
C181 O185 1.251 . S
C181 O187 1.263 . S
Tb182 O184 2.343 . S
Tb182 O187 2.353 . S
Tb182 O190 2.427 . S
Tb182 O191 2.513 . S
Tb182 O192 2.453 . S
Tb182 O193 2.596 . S
Tb182 O194 2.374 . S
O183 Tb180 2.453 . S
O183 C199 1.245 . S
O184 Tb180 2.596 . S
O184 Tb182 2.343 . S
O184 C199 1.259 . S
O185 Tb180 2.374 . S
O185 C181 1.251 . S
C186 O190 1.275 . S
C186 O191 1.246 . S
O187 C181 1.263 . S
O187 Tb182 2.353 . S
C188 O192 1.245 . S
C188 O193 1.259 . S
C189 O194 1.250 . S
C189 O195 1.263 . S
O190 Tb182 2.427 . S
O190 C186 1.275 . S
O191 Tb182 2.513 . S
O191 C186 1.246 . S
O192 Tb182 2.453 . S
O192 C188 1.245 . S
O193 Tb180 2.343 . S
O193 Tb182 2.596 . S
O193 C188 1.259 . S
O194 Tb182 2.374 . S
O194 C189 1.250 . S
O195 Tb180 2.353 . S
O195 C189 1.263 . S
C196 O197 1.275 . S
C196 O198 1.246 . S
O197 Tb180 2.427 . S
O197 C196 1.275 . S
O198 Tb180 2.513 . S
O198 C196 1.246 . S
C199 O183 1.245 . S
C199 O184 1.259 . S
Tb200 O203 2.453 . S
Tb200 O204 2.596 . S
Tb200 O205 2.374 . S
Tb200 O213 2.343 . S
Tb200 O215 2.353 . S
Tb200 O217 2.427 . S
Tb200 O218 2.513 . S
C201 O205 1.251 . S
C201 O207 1.263 . S
Tb202 O204 2.343 . S
Tb202 O207 2.353 . S
Tb202 O210 2.427 . S
Tb202 O211 2.513 . S
Tb202 O212 2.453 . S
Tb202 O213 2.596 . S
Tb202 O214 2.374 . S
O203 Tb200 2.453 . S
O203 C219 1.245 . S
O204 Tb200 2.596 . S
O204 Tb202 2.343 . S
O204 C219 1.259 . S
O205 Tb200 2.374 . S
O205 C201 1.251 . S
C206 O210 1.275 . S
C206 O211 1.246 . S
O207 C201 1.263 . S
O207 Tb202 2.353 . S
C208 O212 1.245 . S
C208 O213 1.259 . S
C209 O214 1.250 . S
C209 O215 1.263 . S
O210 Tb202 2.427 . S
O210 C206 1.275 . S
O211 Tb202 2.513 . S
O211 C206 1.246 . S
O212 Tb202 2.453 . S
O212 C208 1.245 . S
O213 Tb200 2.343 . S
O213 Tb202 2.596 . S
O213 C208 1.259 . S
O214 Tb202 2.374 . S
O214 C209 1.250 . S
O215 Tb200 2.353 . S
O215 C209 1.263 . S
C216 O217 1.275 . S
C216 O218 1.246 . S
O217 Tb200 2.427 . S
O217 C216 1.275 . S
O218 Tb200 2.513 . S
O218 C216 1.246 . S
C219 O203 1.245 . S
C219 O204 1.259 . S
Tb220 O223 2.453 . S
Tb220 O224 2.596 . S
Tb220 O225 2.374 . S
Tb220 O233 2.343 . S
Tb220 O235 2.353 . S
Tb220 O237 2.427 . S
Tb220 O238 2.513 . S
C221 O225 1.251 . S
C221 O227 1.263 . S
Tb222 O224 2.343 . S
Tb222 O227 2.353 . S
Tb222 O230 2.427 . S
Tb222 O231 2.513 . S
Tb222 O232 2.453 . S
Tb222 O233 2.596 . S
Tb222 O234 2.374 . S
O223 Tb220 2.453 . S
O223 C239 1.245 . S
O224 Tb220 2.596 . S
O224 Tb222 2.343 . S
O224 C239 1.259 . S
O225 Tb220 2.374 . S
O225 C221 1.251 . S
C226 O230 1.275 . S
C226 O231 1.246 . S
O227 C221 1.263 . S
O227 Tb222 2.353 . S
C228 O232 1.245 . S
C228 O233 1.259 . S
C229 O234 1.250 . S
C229 O235 1.263 . S
O230 Tb222 2.427 . S
O230 C226 1.275 . S
O231 Tb222 2.513 . S
O231 C226 1.246 . S
O232 Tb222 2.453 . S
O232 C228 1.245 . S
O233 Tb220 2.343 . S
O233 Tb222 2.596 . S
O233 C228 1.259 . S
O234 Tb222 2.374 . S
O234 C229 1.250 . S
O235 Tb220 2.353 . S
O235 C229 1.263 . S
C236 O237 1.275 . S
C236 O238 1.246 . S
O237 Tb220 2.427 . S
O237 C236 1.275 . S
O238 Tb220 2.513 . S
O238 C236 1.246 . S
C239 O223 1.245 . S
C239 O224 1.259 . S
C240 C241 1.387 . S
C240 H244 0.950 . S
C240 C249 1.390 . S
C241 C240 1.387 . S
C241 C243 1.387 . S
H242 C249 0.950 . S
C243 C241 1.387 . S
C243 C245 1.390 . S
C243 H247 0.950 . S
H244 C240 0.950 . S
C245 C243 1.390 . S
C245 C246 1.387 . S
C245 H248 0.950 . S
C246 C245 1.387 . S
C246 C249 1.387 . S
H247 C243 0.950 . S
H248 C245 0.950 . S
C249 C240 1.390 . S
C249 H242 0.950 . S
C249 C246 1.387 . S
C250 C251 1.387 . S
C250 H254 0.950 . S
C250 C259 1.390 . S
C251 C250 1.387 . S
C251 C253 1.387 . S
H252 C259 0.950 . S
C253 C251 1.387 . S
C253 C255 1.390 . S
C253 H257 0.950 . S
H254 C250 0.950 . S
C255 C253 1.390 . S
C255 C256 1.387 . S
C255 H258 0.950 . S
C256 C255 1.387 . S
C256 C259 1.387 . S
H257 C253 0.950 . S
H258 C255 0.950 . S
C259 C250 1.390 . S
C259 H252 0.950 . S
C259 C256 1.387 . S
C260 C261 1.387 . S
C260 H264 0.950 . S
C260 C269 1.390 . S
C261 C260 1.387 . S
C261 C263 1.387 . S
H262 C269 0.950 . S
C263 C261 1.387 . S
C263 C265 1.390 . S
C263 H267 0.950 . S
H264 C260 0.950 . S
C265 C263 1.390 . S
C265 C266 1.387 . S
C265 H268 0.950 . S
C266 C265 1.387 . S
C266 C269 1.387 . S
H267 C263 0.950 . S
H268 C265 0.950 . S
C269 C260 1.390 . S
C269 H262 0.950 . S
C269 C266 1.387 . S
C270 C271 1.387 . S
C270 H274 0.950 . S
C270 C279 1.390 . S
C271 C270 1.387 . S
C271 C273 1.387 . S
H272 C279 0.950 1_655 S
C273 C271 1.387 . S
C273 C275 1.390 . S
C273 H277 0.950 . S
H274 C270 0.950 . S
C275 C273 1.390 . S
C275 C276 1.387 . S
C275 H278 0.950 . S
C276 C275 1.387 . S
C276 C279 1.387 . S
H277 C273 0.950 . S
H278 C275 0.950 . S
C279 C270 1.390 . S
C279 H272 0.950 1_455 S
C279 C276 1.387 . S
C280 C281 1.387 . S
C280 H284 0.950 . S
C280 C289 1.390 . S
C281 C280 1.387 . S
C281 C283 1.387 . S
H282 C289 0.950 . S
C283 C281 1.387 . S
C283 C285 1.390 . S
C283 H287 0.950 . S
H284 C280 0.950 . S
C285 C283 1.390 . S
C285 C286 1.387 . S
C285 H288 0.950 . S
C286 C285 1.387 . S
C286 C289 1.387 . S
H287 C283 0.950 . S
H288 C285 0.950 . S
C289 C280 1.390 . S
C289 H282 0.950 . S
C289 C286 1.387 . S
C290 C291 1.387 . S
C290 H294 0.950 . S
C290 C299 1.390 . S
C291 C290 1.387 . S
C291 C293 1.387 . S
H292 C299 0.950 . S
C293 C291 1.387 . S
C293 C295 1.390 . S
C293 H297 0.950 . S
H294 C290 0.950 . S
C295 C293 1.390 . S
C295 C296 1.387 . S
C295 H298 0.950 . S
C296 C295 1.387 . S
C296 C299 1.387 . S
H297 C293 0.950 . S
H298 C295 0.950 . S
C299 C290 1.390 . S
C299 H292 0.950 . S
C299 C296 1.387 . S
C300 C301 1.387 . S
C300 H304 0.950 . S
C300 C309 1.390 . S
C301 C300 1.387 . S
C301 C303 1.387 . S
H302 C309 0.950 . S
C303 C301 1.387 . S
C303 C305 1.390 . S
C303 H307 0.950 . S
H304 C300 0.950 . S
C305 C303 1.390 . S
C305 C306 1.387 . S
C305 H308 0.950 . S
C306 C305 1.387 . S
C306 C309 1.387 . S
H307 C303 0.950 . S
H308 C305 0.950 . S
C309 C300 1.390 . S
C309 H302 0.950 . S
C309 C306 1.387 . S
C310 C311 1.387 . S
C310 H314 0.950 . S
C310 C319 1.390 . S
C311 C310 1.387 . S
C311 C313 1.387 . S
H312 C319 0.950 . S
C313 C311 1.387 . S
C313 C315 1.390 . S
C313 H317 0.950 . S
H314 C310 0.950 . S
C315 C313 1.390 . S
C315 C316 1.387 . S
C315 H318 0.950 . S
C316 C315 1.387 . S
C316 C319 1.387 . S
H317 C313 0.950 . S
H318 C315 0.950 . S
C319 C310 1.390 . S
C319 H312 0.950 . S
C319 C316 1.387 . S
C320 C321 1.387 . S
C320 H324 0.950 . S
C320 C329 1.390 . S
C321 C320 1.387 . S
C321 C323 1.387 . S
H322 C329 0.950 . S
C323 C321 1.387 . S
C323 C325 1.390 . S
C323 H327 0.950 . S
H324 C320 0.950 . S
C325 C323 1.390 . S
C325 C326 1.387 . S
C325 H328 0.950 . S
C326 C325 1.387 . S
C326 C329 1.387 . S
H327 C323 0.950 . S
H328 C325 0.950 . S
C329 C320 1.390 . S
C329 H322 0.950 . S
C329 C326 1.387 . S
C330 C331 1.387 . S
C330 H334 0.950 . S
C330 C339 1.390 . S
C331 C330 1.387 . S
C331 C333 1.387 . S
H332 C339 0.950 . S
C333 C331 1.387 . S
C333 C335 1.390 . S
C333 H337 0.950 . S
H334 C330 0.950 . S
C335 C333 1.390 . S
C335 C336 1.387 . S
C335 H338 0.950 . S
C336 C335 1.387 . S
C336 C339 1.387 . S
H337 C333 0.950 . S
H338 C335 0.950 . S
C339 C330 1.390 . S
C339 H332 0.950 . S
C339 C336 1.387 . S
C340 C341 1.387 . S
C340 H344 0.950 . S
C340 C349 1.390 . S
C341 C340 1.387 . S
C341 C343 1.387 . S
H342 C349 0.950 . S
C343 C341 1.387 . S
C343 C345 1.390 . S
C343 H347 0.950 . S
H344 C340 0.950 . S
C345 C343 1.390 . S
C345 C346 1.387 . S
C345 H348 0.950 . S
C346 C345 1.387 . S
C346 C349 1.387 . S
H347 C343 0.950 . S
H348 C345 0.950 . S
C349 C340 1.390 . S
C349 H342 0.950 . S
C349 C346 1.387 . S
C350 C351 1.387 . S
C350 H354 0.950 . S
C350 C359 1.390 . S
C351 C350 1.387 . S
C351 C353 1.387 . S
H352 C359 0.950 . S
C353 C351 1.387 . S
C353 C355 1.390 . S
C353 H357 0.950 . S
H354 C350 0.950 . S
C355 C353 1.390 . S
C355 C356 1.387 . S
C355 H358 0.950 . S
C356 C355 1.387 . S
C356 C359 1.387 . S
H357 C353 0.950 . S
H358 C355 0.950 . S
C359 C350 1.390 . S
C359 H352 0.950 . S
C359 C356 1.387 . S
C360 C361 1.387 . S
C360 H364 0.950 . S
C360 C369 1.390 . S
C361 C360 1.387 . S
C361 C363 1.387 . S
H362 C369 0.950 . S
C363 C361 1.387 . S
C363 C365 1.390 . S
C363 H367 0.950 . S
H364 C360 0.950 . S
C365 C363 1.390 . S
C365 C366 1.387 . S
C365 H368 0.950 . S
C366 C365 1.387 . S
C366 C369 1.387 . S
H367 C363 0.950 . S
H368 C365 0.950 . S
C369 C360 1.390 . S
C369 H362 0.950 . S
C369 C366 1.387 . S
C370 C371 1.387 . S
C370 H374 0.950 . S
C370 C379 1.390 . S
C371 C370 1.387 . S
C371 C373 1.387 . S
H372 C379 0.950 . S
C373 C371 1.387 . S
C373 C375 1.390 . S
C373 H377 0.950 . S
H374 C370 0.950 . S
C375 C373 1.390 . S
C375 C376 1.387 . S
C375 H378 0.950 . S
C376 C375 1.387 . S
C376 C379 1.387 . S
H377 C373 0.950 . S
H378 C375 0.950 . S
C379 C370 1.390 . S
C379 H372 0.950 . S
C379 C376 1.387 . S
C380 C381 1.387 . S
C380 H384 0.950 . S
C380 C389 1.390 . S
C381 C380 1.387 . S
C381 C383 1.387 . S
H382 C389 0.950 . S
C383 C381 1.387 . S
C383 C385 1.390 . S
C383 H387 0.950 . S
H384 C380 0.950 . S
C385 C383 1.390 . S
C385 C386 1.387 . S
C385 H388 0.950 . S
C386 C385 1.387 . S
C386 C389 1.387 . S
H387 C383 0.950 . S
H388 C385 0.950 . S
C389 C380 1.390 . S
C389 H382 0.950 . S
C389 C386 1.387 . S
C390 C391 1.387 . S
C390 H394 0.950 . S
C390 C399 1.390 . S
C391 C390 1.387 . S
C391 C393 1.387 . S
H392 C399 0.950 . S
C393 C391 1.387 . S
C393 C395 1.390 . S
C393 H397 0.950 . S
H394 C390 0.950 . S
C395 C393 1.390 . S
C395 C396 1.387 . S
C395 H398 0.950 . S
C396 C395 1.387 . S
C396 C399 1.387 . S
H397 C393 0.950 . S
H398 C395 0.950 . S
C399 C390 1.390 . S
C399 H392 0.950 . S
C399 C396 1.387 . S
C400 C401 1.387 . S
C400 H404 0.950 . S
C400 C409 1.390 . S
C401 C400 1.387 . S
C401 C403 1.387 . S
H402 C409 0.950 . S
C403 C401 1.387 . S
C403 C405 1.390 . S
C403 H407 0.950 . S
H404 C400 0.950 . S
C405 C403 1.390 . S
C405 C406 1.387 . S
C405 H408 0.950 . S
C406 C405 1.387 . S
C406 C409 1.387 . S
H407 C403 0.950 . S
H408 C405 0.950 . S
C409 C400 1.390 . S
C409 H402 0.950 . S
C409 C406 1.387 . S
C410 C411 1.387 . S
C410 H414 0.950 . S
C410 C419 1.390 . S
C411 C410 1.387 . S
C411 C413 1.387 . S
H412 C419 0.950 . S
C413 C411 1.387 . S
C413 C415 1.390 . S
C413 H417 0.950 . S
H414 C410 0.950 . S
C415 C413 1.390 . S
C415 C416 1.387 . S
C415 H418 0.950 . S
C416 C415 1.387 . S
C416 C419 1.387 . S
H417 C413 0.950 . S
H418 C415 0.950 . S
C419 C410 1.390 . S
C419 H412 0.950 . S
C419 C416 1.387 . S
C420 C421 1.387 . S
C420 H424 0.950 . S
C420 C429 1.390 1_566 S
C421 C420 1.387 . S
C421 C423 1.387 . S
H422 C429 0.950 . S
C423 C421 1.387 . S
C423 C425 1.390 1_566 S
C423 H427 0.950 . S
H424 C420 0.950 . S
C425 C423 1.390 1_544 S
C425 C426 1.387 . S
C425 H428 0.950 . S
C426 C425 1.387 . S
C426 C429 1.387 . S
H427 C423 0.950 . S
H428 C425 0.950 . S
C429 C420 1.390 1_544 S
C429 H422 0.950 . S
C429 C426 1.387 . S
C430 C431 1.387 . S
C430 H434 0.950 . S
C430 C439 1.390 . S
C431 C430 1.387 . S
C431 C433 1.387 . S
H432 C439 0.950 . S
C433 C431 1.387 . S
C433 C435 1.390 . S
C433 H437 0.950 . S
H434 C430 0.950 . S
C435 C433 1.390 . S
C435 C436 1.387 . S
C435 H438 0.950 . S
C436 C435 1.387 . S
C436 C439 1.387 . S
H437 C433 0.950 . S
H438 C435 0.950 . S
C439 C430 1.390 . S
C439 H432 0.950 . S
C439 C436 1.387 . S
C440 C441 1.387 1_554 S
C440 H444 0.950 . S
C440 C449 1.390 . S
C441 C440 1.387 1_556 S
C441 C443 1.387 1_455 S
H442 C449 0.950 . S
C443 C441 1.387 1_655 S
C443 C445 1.390 . S
C443 H447 0.950 . S
H444 C440 0.950 . S
C445 C443 1.390 . S
C445 C446 1.387 1_556 S
C445 H448 0.950 . S
C446 C445 1.387 1_554 S
C446 C449 1.387 1_655 S
H447 C443 0.950 . S
H448 C445 0.950 . S
C449 C440 1.390 . S
C449 H442 0.950 . S
C449 C446 1.387 1_455 S
C450 C451 1.387 . S
C450 H454 0.950 . S
C450 C459 1.390 1_545 S
C451 C450 1.387 . S
C451 C453 1.387 . S
H452 C459 0.950 . S
C453 C451 1.387 . S
C453 C455 1.390 1_545 S
C453 H457 0.950 . S
H454 C450 0.950 . S
C455 C453 1.390 1_565 S
C455 C456 1.387 . S
C455 H458 0.950 . S
C456 C455 1.387 . S
C456 C459 1.387 . S
H457 C453 0.950 . S
H458 C455 0.950 . S
C459 C450 1.390 1_565 S
C459 H452 0.950 . S
C459 C456 1.387 . S
C460 C461 1.387 1_556 S
C460 H464 0.950 . S
C460 C469 1.390 . S
C461 C460 1.387 1_554 S
C461 C463 1.387 . S
H462 C469 0.950 . S
C463 C461 1.387 . S
C463 C465 1.390 . S
C463 H467 0.950 . S
H464 C460 0.950 . S
C465 C463 1.390 . S
C465 C466 1.387 1_554 S
C465 H468 0.950 . S
C466 C465 1.387 1_556 S
C466 C469 1.387 . S
H467 C463 0.950 . S
H468 C465 0.950 . S
C469 C460 1.390 . S
C469 H462 0.950 . S
C469 C466 1.387 . S
C470 C471 1.387 1_655 S
C470 H474 0.950 . S
C470 C479 1.390 . S
C471 C470 1.387 1_455 S
C471 C473 1.387 . S
H472 C479 0.950 . S
C473 C471 1.387 . S
C473 C475 1.390 . S
C473 H477 0.950 . S
H474 C470 0.950 . S
C475 C473 1.390 . S
C475 C476 1.387 1_455 S
C475 H478 0.950 . S
C476 C475 1.387 1_655 S
C476 C479 1.387 . S
H477 C473 0.950 . S
H478 C475 0.950 . S
C479 C470 1.390 . S
C479 H472 0.950 . S
C479 C476 1.387 . S
C480 C481 1.387 . S
C480 H484 0.950 . S
C480 C489 1.390 . S
C481 C480 1.387 . S
C481 C483 1.387 . S
H482 C489 0.950 . S
C483 C481 1.387 . S
C483 C485 1.390 . S
C483 H487 0.950 . S
H484 C480 0.950 . S
C485 C483 1.390 . S
C485 C486 1.387 . S
C485 H488 0.950 . S
C486 C485 1.387 . S
C486 C489 1.387 . S
H487 C483 0.950 . S
H488 C485 0.950 . S
C489 C480 1.390 . S
C489 H482 0.950 . S
C489 C486 1.387 . S
C490 C491 1.387 . S
C490 H494 0.950 . S
C490 C499 1.390 . S
C491 C490 1.387 . S
C491 C493 1.387 . S
H492 C499 0.950 . S
C493 C491 1.387 . S
C493 C495 1.390 . S
C493 H497 0.950 . S
H494 C490 0.950 . S
C495 C493 1.390 . S
C495 C496 1.387 . S
C495 H498 0.950 . S
C496 C495 1.387 . S
C496 C499 1.387 . S
H497 C493 0.950 . S
H498 C495 0.950 . S
C499 C490 1.390 . S
C499 H492 0.950 . S
C499 C496 1.387 . S
C500 C501 1.387 . S
C500 H504 0.950 . S
C500 C509 1.390 . S
C501 C500 1.387 . S
C501 C503 1.387 . S
H502 C509 0.950 . S
C503 C501 1.387 . S
C503 C505 1.390 . S
C503 H507 0.950 . S
H504 C500 0.950 . S
C505 C503 1.390 . S
C505 C506 1.387 . S
C505 H508 0.950 . S
C506 C505 1.387 . S
C506 C509 1.387 . S
H507 C503 0.950 . S
H508 C505 0.950 . S
C509 C500 1.390 . S
C509 H502 0.950 . S
C509 C506 1.387 . S
C510 C511 1.387 . S
C510 H514 0.950 . S
C510 C519 1.390 . S
C511 C510 1.387 . S
C511 C513 1.387 . S
H512 C519 0.950 . S
C513 C511 1.387 . S
C513 C515 1.390 . S
C513 H517 0.950 . S
H514 C510 0.950 . S
C515 C513 1.390 . S
C515 C516 1.387 . S
C515 H518 0.950 . S
C516 C515 1.387 . S
C516 C519 1.387 . S
H517 C513 0.950 . S
H518 C515 0.950 . S
C519 C510 1.390 . S
C519 H512 0.950 . S
C519 C516 1.387 . S
C520 C521 1.387 . S
C520 H524 0.950 . S
C520 C529 1.390 . S
C521 C520 1.387 . S
C521 C523 1.387 . S
H522 C529 0.950 . S
C523 C521 1.387 . S
C523 C525 1.390 . S
C523 H527 0.950 . S
H524 C520 0.950 . S
C525 C523 1.390 . S
C525 C526 1.387 . S
C525 H528 0.950 . S
C526 C525 1.387 . S
C526 C529 1.387 . S
H527 C523 0.950 . S
H528 C525 0.950 . S
C529 C520 1.390 . S
C529 H522 0.950 . S
C529 C526 1.387 . S
C530 C531 1.387 . S
C530 H534 0.950 . S
C530 C539 1.390 . S
C531 C530 1.387 . S
C531 C533 1.387 . S
H532 C539 0.950 . S
C533 C531 1.387 . S
C533 C535 1.390 . S
C533 H537 0.950 . S
H534 C530 0.950 . S
C535 C533 1.390 . S
C535 C536 1.387 . S
C535 H538 0.950 . S
C536 C535 1.387 . S
C536 C539 1.387 . S
H537 C533 0.950 . S
H538 C535 0.950 . S
C539 C530 1.390 . S
C539 H532 0.950 . S
C539 C536 1.387 . S
C540 C541 1.387 . S
C540 H544 0.950 . S
C540 C549 1.390 . S
C541 C540 1.387 . S
C541 C543 1.387 . S
H542 C549 0.950 . S
C543 C541 1.387 . S
C543 C545 1.390 . S
C543 H547 0.950 . S
H544 C540 0.950 . S
C545 C543 1.390 . S
C545 C546 1.387 . S
C545 H548 0.950 . S
C546 C545 1.387 . S
C546 C549 1.387 . S
H547 C543 0.950 . S
H548 C545 0.950 . S
C549 C540 1.390 . S
C549 H542 0.950 . S
C549 C546 1.387 . S
C550 C551 1.387 . S
C550 H554 0.950 . S
C550 C559 1.390 . S
C551 C550 1.387 . S
C551 C553 1.387 . S
H552 C559 0.950 . S
C553 C551 1.387 . S
C553 C555 1.390 . S
C553 H557 0.950 . S
H554 C550 0.950 . S
C555 C553 1.390 . S
C555 C556 1.387 . S
C555 H558 0.950 . S
C556 C555 1.387 . S
C556 C559 1.387 . S
H557 C553 0.950 . S
H558 C555 0.950 . S
C559 C550 1.390 . S
C559 H552 0.950 . S
C559 C556 1.387 . S
C560 C561 1.387 . S
C560 H564 0.950 . S
C560 C569 1.390 . S
C561 C560 1.387 . S
C561 C563 1.387 . S
H562 C569 0.950 . S
C563 C561 1.387 . S
C563 C565 1.390 . S
C563 H567 0.950 . S
H564 C560 0.950 . S
C565 C563 1.390 . S
C565 C566 1.387 . S
C565 H568 0.950 . S
C566 C565 1.387 . S
C566 C569 1.387 . S
H567 C563 0.950 . S
H568 C565 0.950 . S
C569 C560 1.390 . S
C569 H562 0.950 . S
C569 C566 1.387 . S
C570 C571 1.387 . S
C570 H574 0.950 . S
C570 C579 1.390 . S
C571 C570 1.387 . S
C571 C573 1.387 . S
H572 C579 0.950 . S
C573 C571 1.387 . S
C573 C575 1.390 . S
C573 H577 0.950 . S
H574 C570 0.950 . S
C575 C573 1.390 . S
C575 C576 1.387 . S
C575 H578 0.950 . S
C576 C575 1.387 . S
C576 C579 1.387 . S
H577 C573 0.950 . S
H578 C575 0.950 . S
C579 C570 1.390 . S
C579 H572 0.950 . S
C579 C576 1.387 . S
C580 C581 1.387 . S
C580 H584 0.950 . S
C580 C589 1.390 . S
C581 C580 1.387 . S
C581 C583 1.387 . S
H582 C589 0.950 . S
C583 C581 1.387 . S
C583 C585 1.390 . S
C583 H587 0.950 . S
H584 C580 0.950 . S
C585 C583 1.390 . S
C585 C586 1.387 . S
C585 H588 0.950 . S
C586 C585 1.387 . S
C586 C589 1.387 . S
H587 C583 0.950 . S
H588 C585 0.950 . S
C589 C580 1.390 . S
C589 H582 0.950 . S
C589 C586 1.387 . S
C590 C591 1.387 . S
C590 H594 0.950 . S
C590 C599 1.390 . S
C591 C590 1.387 . S
C591 C593 1.387 . S
H592 C599 0.950 . S
C593 C591 1.387 . S
C593 C595 1.390 . S
C593 H597 0.950 . S
H594 C590 0.950 . S
C595 C593 1.390 . S
C595 C596 1.387 . S
C595 H598 0.950 . S
C596 C595 1.387 . S
C596 C599 1.387 . S
H597 C593 0.950 . S
H598 C595 0.950 . S
C599 C590 1.390 . S
C599 H592 0.950 . S
C599 C596 1.387 . S
C241 C59 1.418 1_455 S
C246 C6 1.382 . S
C251 C68 1.418 1_565 S
C256 C36 1.382 1_455 S
C261 C46 1.379 1_565 S
C266 C99 1.420 . S
C271 C76 1.379 . S
C276 C108 1.420 1_455 S
C281 C19 1.418 1_565 S
C286 C86 1.382 1_455 S
C291 C28 1.418 . S
C296 C116 1.382 1_565 S
C301 C208 1.420 1_545 S
C306 C136 1.379 . S
C311 C146 1.379 1_655 S
C316 C239 1.420 . S
C321 C176 1.382 1_545 S
C326 C128 1.418 1_655 S
C331 C186 1.382 . S
C336 C159 1.418 1_545 S
C341 C216 1.382 1_655 S
C346 C168 1.418 . S
C351 C199 1.418 1_655 S
C356 C226 1.382 1_545 S
C361 C61 1.718 . S
C366 C9 1.720 . S
C371 C21 1.718 . S
C376 C89 1.719 . S
C381 C49 1.719 . S
C386 C101 1.718 . S
C391 C121 1.718 . S
C396 C189 1.719 . S
C401 C149 1.719 . S
C406 C201 1.719 . S
C411 C161 1.717 . S
C416 C229 1.720 . S
C421 C141 1.948 . S
C426 C1 1.948 . S
C431 C29 1.950 . S
C436 C169 1.949 . S
C441 C181 1.949 . S
C446 C41 1.949 . S
C451 C69 1.950 . S
C456 C209 1.950 . S
C461 C81 1.950 . S
C466 C221 1.949 . S
C471 C129 1.950 . S
C476 C109 1.949 . S
C481 C48 1.476 . S
C486 C16 1.559 . S
C491 C26 1.559 . S
C496 C79 1.476 . S
C501 C56 1.558 . S
C506 C88 1.479 . S
C511 C66 1.558 . S
C516 C119 1.479 . S
C521 C8 1.479 . S
C526 C96 1.558 . S
C531 C39 1.476 . S
C536 C106 1.559 . S
C541 C219 1.476 . S
C546 C126 1.559 . S
C551 C156 1.559 . S
C556 C228 1.476 . S
C561 C166 1.558 . S
C566 C139 1.479 . S
C571 C148 1.479 . S
C576 C196 1.558 . S
C581 C206 1.559 . S
C586 C179 1.476 . S
C591 C236 1.558 . S
C596 C188 1.479 . S
