# Generated by pormake.
# Topology rob, (6)-cn, num edge types: 1
# Building blocks:
#     Node 0, Type 0, BuildingBlock: GEDQOX_clean_sbu_0, # of connection points: 6
#     Node 1, Type 0, BuildingBlock: GEDQOX_clean_sbu_0, # of connection points: 6
#     Node 2, Type 0, BuildingBlock: GEDQOX_clean_sbu_0, # of connection points: 6
#     Node 3, Type 0, BuildingBlock: GEDQOX_clean_sbu_0, # of connection points: 6
#     Edge 4, Type (0, 0), BuildingBlock: TEMPAE_clean_linker_10, # of connection points: 2
#     Edge 5, Type (0, 0), BuildingBlock: TEMPAE_clean_linker_10, # of connection points: 2
#     Edge 6, Type (0, 0), BuildingBlock: TEMPAE_clean_linker_10, # of connection points: 2
#     Edge 7, Type (0, 0), BuildingBlock: TEMPAE_clean_linker_10, # of connection points: 2
#     Edge 8, Type (0, 0), BuildingBlock: TEMPAE_clean_linker_10, # of connection points: 2
#     Edge 9, Type (0, 0), BuildingBlock: TEMPAE_clean_linker_10, # of connection points: 2
#     Edge 10, Type (0, 0), BuildingBlock: TEMPAE_clean_linker_10, # of connection points: 2
#     Edge 11, Type (0, 0), BuildingBlock: TEMPAE_clean_linker_10, # of connection points: 2
#     Edge 12, Type (0, 0), BuildingBlock: TEMPAE_clean_linker_10, # of connection points: 2
#     Edge 13, Type (0, 0), BuildingBlock: TEMPAE_clean_linker_10, # of connection points: 2
#     Edge 14, Type (0, 0), BuildingBlock: TEMPAE_clean_linker_10, # of connection points: 2
#     Edge 15, Type (0, 0), BuildingBlock: TEMPAE_clean_linker_10, # of connection points: 2
# Relax obj value: 0.062
# Max RMSD: 0.214
# Mean RMSD: 0.147
data_MOF--net-rob--node1-GEDQOX_clean_sbu_0--edge1-TEMPAE_clean_linker_10
_symmetry_space_group_name_H-M    P1
_symmetry_Int_Tables_number       1
_symmetry_cell_setting            triclinic
loop_
_symmetry_equiv_pos_as_xyz
'x, y, z'
_cell_length_a     19.403961
_cell_length_b     36.124833
_cell_length_c     30.503197
_cell_angle_alpha  110.70437
_cell_angle_beta   111.26565
_cell_angle_gamma 54.790623
loop_
_atom_site_label
_atom_site_type_symbol
_atom_site_fract_x
_atom_site_fract_y
_atom_site_fract_z
_atom_type_partial_charge
Nd0 Nd 0.22883 0.32871 0.01322 0.0
Nd1 Nd 0.21488 0.24488 0.96966 0.0
C2 C 0.21638 0.41042 0.0429 0.0
C3 C 0.25267 0.43203 0.03254 0.0
C4 C 0.2985 0.41012 -0.00439 0.0
C5 C 0.33813 0.4291 0.9881 0.0
C6 C 0.33266 0.47045 0.01738 0.0
C7 C 0.28524 0.49268 0.05381 0.0
C8 C 0.24584 0.47356 0.06135 0.0
C9 C 0.35851 0.25396 0.05583 0.0
C10 C 0.33477 0.25823 0.93014 0.0
C11 C 0.22098 0.16481 0.93672 0.0
C12 C 0.17509 0.14576 0.94193 0.0
C13 C 0.13982 0.1623 0.98244 0.0
C14 C 0.09087 0.14648 0.98537 0.0
C15 C 0.07574 0.11399 0.94769 0.0
C16 C 0.112 0.09722 0.90739 0.0
C17 C 0.16114 0.11298 0.90457 0.0
C18 C 0.08535 0.32046 0.9282 0.0
C19 C 0.11453 0.31339 0.05576 0.0
O20 O 0.1598 0.40247 0.00819 0.0
O21 O 0.27214 0.37593 0.0654 0.0
O22 O 0.37107 0.28024 0.04356 0.0
O23 O 0.27981 0.26641 0.04294 0.0
O24 O 0.2972 0.30141 0.95256 0.0
O25 O 0.32155 0.22796 0.9352 0.0
O26 O 0.27436 0.17205 0.97479 0.0
O27 O 0.17372 0.19856 0.91301 0.0
O28 O 0.07222 0.29484 0.9412 0.0
O29 O 0.16442 0.30703 0.93995 0.0
O30 O 0.14884 0.27088 0.0312 0.0
O31 O 0.12771 0.34387 0.0511 0.0
H32 H 0.30454 0.37803 0.97296 0.0
H33 H 0.37311 0.41135 0.95934 0.0
H34 H 0.28051 0.52425 0.07738 0.0
H35 H 0.2113 0.49081 0.09027 0.0
H36 H 0.14895 0.188 0.01149 0.0
H37 H 0.06313 0.16053 0.01666 0.0
H38 H 0.10251 0.0718 0.87801 0.0
H39 H 0.18734 0.10001 0.87288 0.0
Nd40 Nd 0.66305 0.8596 0.0168 0.0
Nd41 Nd 0.7108 0.75925 0.98876 0.0
C42 C 0.62695 0.94404 0.024 0.0
C43 C 0.65188 0.96632 0.00543 0.0
C44 C 0.68592 0.94508 0.96382 0.0
C45 C 0.72158 0.9633 0.95104 0.0
C46 C 0.72439 1.00292 0.97984 0.0
C47 C 0.68749 1.02477 0.02062 0.0
C48 C 0.6517 1.00664 0.03321 0.0
C49 C 0.77164 0.80948 0.08733 0.0
C50 C 0.80057 0.78805 0.94495 0.0
C51 C 0.76689 0.67098 0.97767 0.0
C52 C 0.72885 0.64737 0.98261 0.0
C53 C 0.68365 0.66546 0.01923 0.0
C54 C 0.64369 0.64459 0.02232 0.0
C55 C 0.6474 0.60529 0.98869 0.0
C56 C 0.69286 0.58716 0.9521 0.0
C57 C 0.73325 0.608 0.94915 0.0
C58 C 0.55615 0.818 0.93733 0.0
C59 C 0.5719 0.83076 0.05749 0.0
O60 O 0.57781 0.92781 -0.00595 0.0
O61 O 0.68933 0.91628 0.05301 0.0
O62 O 0.70825 0.8516 0.09435 0.0
O63 O 0.77884 0.79485 0.04402 0.0
O64 O 0.76178 0.8296 0.9711 0.0
O65 O 0.7921 0.75435 0.94529 0.0
O66 O 0.79094 0.69451 0.01721 0.0
O67 O 0.72714 0.69276 0.94171 0.0
O68 O 0.56835 0.78516 0.95289 0.0
O69 O 0.62476 0.81856 0.94899 0.0
O70 O 0.63577 0.78815 0.04739 0.0
O71 O 0.55814 0.86505 0.04217 0.0
H72 H 0.68729 0.91369 0.94203 0.0
H73 H 0.74825 0.94589 0.91906 0.0
H74 H 0.68958 0.0548 0.04414 0.0
H75 H 0.62691 1.02314 0.06584 0.0
H76 H 0.67821 0.69615 0.04521 0.0
H77 H 0.60822 0.65988 0.05051 0.0
H78 H 0.69756 0.55673 0.92586 0.0
H79 H 0.76722 0.59362 0.92044 0.0
Nd80 Nd 0.25835 0.8153 0.4866 0.0
Nd81 Nd 0.12397 0.80628 0.51506 0.0
C82 C 0.31366 0.85182 0.45594 0.0
C83 C 0.33953 0.84762 0.41363 0.0
C84 C 0.30451 0.83204 0.36702 0.0
C85 C 0.32449 0.83204 0.3272 0.0
C86 C 0.38004 0.84749 0.33319 0.0
C87 C 0.41603 0.86226 0.38007 0.0
C88 C 0.39587 0.86235 0.41979 0.0
C89 C 0.32241 0.7236 0.48613 0.0
C90 C 0.13075 0.78093 0.40373 0.0
C91 C 0.04812 0.78547 0.55177 0.0
C92 C 0.03601 0.78625 0.59766 0.0
C93 C 0.08308 0.7455 0.6161 0.0
C94 C 0.06618 0.7446 0.65655 0.0
C95 C 0.00121 0.78435 0.67943 0.0
C96 C -0.04461 0.82536 0.66155 0.0
C97 C -0.02759 0.82629 0.62117 0.0
C98 C 0.06492 0.88973 0.49455 0.0
C99 C 0.26331 0.83246 0.59977 0.0
O100 O 0.23193 0.86705 0.45099 0.0
O101 O 0.36573 0.81894 0.48119 0.0
O102 O 0.36285 0.73669 0.47486 0.0
O103 O 0.25253 0.75887 0.49604 0.0
O104 O 0.17185 0.80333 0.41529 0.0
O105 O 0.11437 0.77193 0.43602 0.0
O106 O 0.12448 0.75608 0.54128 0.0
O107 O 0.00997 0.82476 0.53818 0.0
O108 O 0.01771 0.8713 0.48211 0.0
O109 O 0.13875 0.86467 0.51788 0.0
O110 O 0.20198 0.82273 0.58811 0.0
O111 O 0.29487 0.83289 0.56821 0.0
H112 H 0.26079 0.8205 0.36136 0.0
H113 H 0.29657 0.81981 0.29171 0.0
H114 H 0.45821 0.87488 0.3861 0.0
H115 H 0.42301 0.87486 0.45541 0.0
H116 H 0.13165 0.71386 0.5985 0.0
H117 H 0.10209 0.71228 0.66889 0.0
H118 H 0.90572 0.8568 0.6786 0.0
H119 H 0.93439 0.85823 0.60786 0.0
Nd120 Nd 0.75792 0.31367 0.47756 0.0
Nd121 Nd 0.62922 0.30359 0.51004 0.0
C122 C 0.81534 0.3486 0.44615 0.0
C123 C 0.8469 0.34274 0.40523 0.0
C124 C 0.80413 0.33544 0.35757 0.0
C125 C 0.83051 0.33426 0.31972 0.0
C126 C 0.90043 0.34014 0.32863 0.0
C127 C 0.94421 0.34638 0.37633 0.0
C128 C 0.91754 0.34778 0.41415 0.0
C129 C 0.82445 0.22168 0.47856 0.0
C130 C 0.62429 0.28206 0.39762 0.0
C131 C 0.54861 0.28677 0.54778 0.0
C132 C 0.54778 0.27725 0.59116 0.0
C133 C 0.59083 0.23182 0.59846 0.0
C134 C 0.5802 0.22304 0.63617 0.0
C135 C 0.52544 0.25943 0.66697 0.0
C136 C 0.48469 0.30485 0.66045 0.0
C137 C 0.49549 0.31362 0.62303 0.0
C138 C 0.56773 0.38808 0.49032 0.0
C139 C 0.7779 0.32312 0.59063 0.0
O140 O 0.73348 0.36261 0.43865 0.0
O141 O 0.86585 0.31805 0.47425 0.0
O142 O 0.86321 0.23472 0.46573 0.0
O143 O 0.7554 0.25699 0.48896 0.0
O144 O 0.66452 0.30472 0.40799 0.0
O145 O 0.61262 0.27141 0.43055 0.0
O146 O 0.60726 0.25439 0.52255 0.0
O147 O 0.53005 0.32827 0.54951 0.0
O148 O 0.52145 0.36924 0.47819 0.0
O149 O 0.64245 0.36262 0.51239 0.0
O150 O 0.72927 0.30498 0.57914 0.0
O151 O 0.79001 0.33514 0.55904 0.0
H152 H 0.7495 0.33133 0.34956 0.0
H153 H 0.79616 0.32868 0.28341 0.0
H154 H -0.00223 0.35143 0.38458 0.0
H155 H -0.04889 0.35381 0.45058 0.0
H156 H 0.63061 0.20292 0.57419 0.0
H157 H 0.61214 0.18764 0.64003 0.0
H158 H 0.44316 0.33376 0.68397 0.0
H159 H 0.46064 0.34898 0.61828 0.0
C160 C 0.55446 0.56981 0.95019 0.0
C161 C 0.60286 0.58387 -0.00841 0.0
C162 C 0.50995 0.55095 0.95272 0.0
C163 C 0.5142 0.54575 -0.0023 0.0
C164 C 0.56369 0.55941 0.03954 0.0
C165 C 0.60717 0.57836 0.036 0.0
C166 C 0.45757 0.53707 0.90729 0.0
C167 C 0.57057 0.55412 0.08815 0.0
C168 C 0.33825 0.53732 0.01403 0.0
C169 C 0.37806 0.48967 0.01082 0.0
C170 C 0.38132 0.55594 0.00923 0.0
C171 C 0.46653 0.52628 0.00117 0.0
C172 C 0.5068 0.47813 -0.00255 0.0
C173 C 0.46214 0.46044 0.00225 0.0
C174 C 0.33579 0.60743 0.01312 0.0
C175 C 0.59767 0.44532 0.98913 0.0
H176 H 0.54987 0.57446 0.91581 0.0
H177 H 0.64526 0.58857 0.06809 0.0
H178 H 0.48025 0.50006 0.90232 0.0
H179 H 0.38891 0.5571 0.90999 0.0
H180 H 0.46162 0.54283 0.87508 0.0
H181 H 0.61227 0.56601 0.11715 0.0
H182 H 0.50555 0.5742 0.09654 0.0
H183 H 0.59729 0.51742 0.08798 0.0
H184 H 0.27297 0.56012 0.02001 0.0
H185 H 0.49393 0.42367 0.00034 0.0
H186 H 0.3333 0.61505 0.98021 0.0
H187 H 0.37226 0.62158 0.04363 0.0
H188 H 0.26896 0.62568 0.01845 0.0
H189 H 0.60241 0.44924 0.95605 0.0
H190 H 0.61897 0.40871 0.98577 0.0
H191 H 0.64284 0.45371 0.0193 0.0
C192 C 0.41278 0.63883 0.45644 0.0
C193 C 0.35375 0.67474 0.4851 0.0
C194 C 0.44596 0.59217 0.45567 0.0
C195 C 0.42152 0.58075 0.48529 0.0
C196 C 0.36195 0.617 0.51445 0.0
C197 C 0.32822 0.66346 0.51363 0.0
C198 C 0.50746 0.55504 0.42314 0.0
C199 C 0.33529 0.60671 0.54737 0.0
C200 C 0.45305 0.4603 0.45703 0.0
C201 C 0.53211 0.43667 0.48767 0.0
C202 C 0.41685 0.50686 0.45551 0.0
C203 C 0.4595 0.53098 0.48623 0.0
C204 C 0.53936 0.50719 0.51735 0.0
C205 C 0.57511 0.46031 0.51725 0.0
C206 C 0.33297 0.5302 0.42084 0.0
C207 C 0.58663 0.53144 0.55132 0.0
H208 H 0.43273 0.64725 0.4342 0.0
H209 H 0.28404 0.69096 0.53653 0.0
H210 H 0.57109 0.5335 0.44479 0.0
H211 H 0.4829 0.53192 0.39929 0.0
H212 H 0.51686 0.56953 0.40063 0.0
H213 H 0.2881 0.6386 0.56753 0.0
H214 H 0.30625 0.58508 0.52647 0.0
H215 H 0.39293 0.58675 0.5734 0.0
H216 H 0.41957 0.44225 0.43395 0.0
H217 H 0.63596 0.44243 0.54125 0.0
H218 H 0.34152 0.54368 0.39687 0.0
H219 H 0.28305 0.56013 0.44073 0.0
H220 H 0.30895 0.50647 0.39846 0.0
H221 H 0.60401 0.54382 0.53081 0.0
H222 H 0.64645 0.50866 0.57436 0.0
H223 H 0.54407 0.56218 0.57464 0.0
C224 C -0.0398 0.09352 0.90997 0.0
C225 C 0.02156 0.09808 0.95018 0.0
C226 C 0.9085 0.07873 0.9119 0.0
C227 C 0.91843 0.06807 0.95505 0.0
C228 C -0.01994 0.07273 -0.00422 0.0
C229 C 0.03072 0.08768 -0.00713 0.0
C230 C 0.84319 0.07455 0.86777 0.0
C231 C -0.00724 0.06173 0.04249 0.0
C232 C 0.73864 0.06737 0.97775 0.0
C233 C 0.77015 1.0199 0.96943 0.0
C234 C 0.78525 0.08358 0.97229 0.0
C235 C 0.86513 1.05164 0.9577 0.0
C236 C 0.89585 1.00379 0.94761 0.0
C237 C 0.84833 0.98854 0.95382 0.0
C238 C 0.75002 0.13489 0.98333 0.0
C239 C -0.01969 0.96854 0.93159 0.0
H240 H -0.04825 0.10214 0.87705 0.0
H241 H 0.07853 0.09062 0.02394 0.0
H242 H 0.85627 1.0387 0.85733 0.0
H243 H 0.77747 0.09744 0.87553 0.0
H244 H 0.84387 0.08378 0.8369 0.0
H245 H 0.04246 0.06775 0.07103 0.0
H246 H 0.93111 0.08326 0.05503 0.0
H247 H 0.01248 1.02512 0.03709 0.0
H248 H 0.67769 0.09199 0.98904 0.0
H249 H 0.87413 0.95186 0.94798 0.0
H250 H 0.74468 0.14599 0.95208 0.0
H251 H 0.79505 0.14317 0.01376 0.0
H252 H 0.68563 0.15526 -0.0073 0.0
H253 H -0.01889 0.97677 0.90008 0.0
H254 H -0.00773 0.93291 0.92203 0.0
H255 H 0.03419 0.96959 0.96068 0.0
C256 C 0.91812 0.13634 0.45274 0.0
C257 C 0.85669 0.17317 0.47956 0.0
C258 C -0.04896 0.09009 0.45364 0.0
C259 C 0.92388 0.08011 0.48316 0.0
C260 C 0.86215 0.11731 0.51063 0.0
C261 C 0.82851 0.16328 0.508 0.0
C262 C 0.01492 0.05185 0.42285 0.0
C263 C 0.83249 0.1086 0.54339 0.0
C264 C -0.04644 0.96046 0.45813 0.0
C265 C 0.03082 0.93767 0.49032 0.0
C266 C 0.9187 1.00641 0.45499 0.0
C267 C -0.03918 1.03084 0.48561 0.0
C268 C 0.03888 1.0079 0.51827 0.0
C269 C 0.07339 0.96156 0.51979 0.0
C270 C 0.83682 1.02879 0.41873 0.0
C271 C 0.08536 1.03258 0.55224 0.0
H272 H 0.94 0.1437 0.43054 0.0
H273 H 0.78181 0.19156 0.52922 0.0
H274 H 0.07722 1.03088 0.44578 0.0
H275 H -0.00905 1.02847 0.39905 0.0
H276 H 0.02679 0.06522 0.40035 0.0
H277 H 0.78832 0.14111 0.56451 0.0
H278 H 0.79862 0.08946 0.52202 0.0
H279 H 0.88895 0.08681 0.56854 0.0
H280 H 0.92042 0.9422 0.43511 0.0
H281 H 0.13284 0.94434 0.54497 0.0
H282 H 0.84764 1.04127 0.39483 0.0
H283 H 0.78541 0.05926 0.43728 0.0
H284 H 0.8135 1.00475 0.39638 0.0
H285 H 0.10463 1.04397 0.53173 0.0
H286 H 0.14395 1.01045 0.57637 0.0
H287 H 0.04153 0.06398 0.57447 0.0
C288 C 0.60197 0.22475 0.32838 0.0
C289 C 0.58972 0.26911 0.347 0.0
C290 C 0.57267 0.21165 0.27938 0.0
C291 C 0.5276 0.24434 0.24915 0.0
C292 C 0.51358 0.28954 0.26834 0.0
C293 C 0.54636 0.30105 0.3169 0.0
C294 C 0.59143 0.16277 0.25981 0.0
C295 C 0.46358 0.32592 0.23766 0.0
C296 C 0.49708 0.22408 0.11537 0.0
C297 C 0.41028 0.23669 0.10089 0.0
C298 C 0.54002 0.22097 0.16329 0.0
C299 C 0.49379 0.23231 0.19741 0.0
C300 C 0.40874 0.24052 0.18194 0.0
C301 C 0.36848 0.24177 0.13355 0.0
C302 C 0.63205 0.21005 0.17809 0.0
C303 C 0.35628 0.25363 0.21704 0.0
H304 H 0.63668 0.19998 0.35187 0.0
H305 H 0.53681 0.3354 0.33163 0.0
H306 H 0.53056 0.16263 0.24203 0.0
H307 H 0.63074 0.14614 0.23221 0.0
H308 H 0.62667 0.14167 0.28819 0.0
H309 H 0.4542 0.36006 0.25884 0.0
H310 H 0.49816 0.31521 0.20936 0.0
H311 H 0.39931 0.32986 0.21954 0.0
H312 H 0.52969 0.21962 0.08996 0.0
H313 H 0.30131 0.25134 0.12247 0.0
H314 H 0.66994 0.18781 0.20546 0.0
H315 H 0.63299 0.24256 0.19419 0.0
H316 H 0.66405 0.19252 0.147 0.0
H317 H 0.39514 0.23165 0.2446 0.0
H318 H 0.29788 0.25093 0.19885 0.0
H319 H 0.3352 0.28988 0.23583 0.0
C320 C 0.49029 0.88146 0.1239 0.0
C321 C 0.52301 0.83957 0.09137 0.0
C322 C 0.459 0.88632 0.16192 0.0
C323 C 0.46003 0.84851 0.16722 0.0
C324 C 0.48831 0.80714 0.13271 0.0
C325 C 0.51953 0.80319 0.09541 0.0
C326 C 0.42929 0.93103 0.19787 0.0
C327 C 0.48996 0.76606 0.13653 0.0
C328 C 0.48395 0.83511 0.29115 0.0
C329 C 0.39989 0.84866 0.29086 0.0
C330 C 0.50377 0.83591 0.25162 0.0
C331 C 0.43804 0.8506 0.21054 0.0
C332 C 0.35288 0.8648 0.21014 0.0
C333 C 0.33486 0.86362 0.25021 0.0
C334 C 0.59559 0.8202 0.25349 0.0
C335 C 0.28097 0.88076 0.16715 0.0
H336 H 0.49352 0.90955 0.12125 0.0
H337 H 0.54401 0.77082 0.07013 0.0
H338 H 0.36595 0.94313 0.20416 0.0
H339 H 0.47601 0.92536 0.23265 0.0
H340 H 0.42364 0.95861 0.18604 0.0
H341 H 0.50623 0.73805 0.10449 0.0
H342 H 0.53861 0.75204 0.16855 0.0
H343 H 0.42652 0.77653 0.14117 0.0
H344 H 0.53489 0.82298 0.32206 0.0
H345 H 0.26947 0.87484 0.24986 0.0
H346 H 0.59761 0.8475 0.24615 0.0
H347 H 0.62168 0.78919 0.2253 0.0
H348 H 0.63846 0.81167 0.28876 0.0
H349 H 0.27604 0.90957 0.15828 0.0
H350 H 0.21761 0.89242 0.17314 0.0
H351 H 0.29533 0.85223 0.13553 0.0
C352 C 0.48112 0.86949 0.87818 0.0
C353 C 0.49088 0.83464 0.89437 0.0
C354 C 0.43325 0.87885 0.83229 0.0
C355 C 0.39717 0.85158 0.80175 0.0
C356 C 0.40205 0.8185 0.81925 0.0
C357 C 0.44776 0.81098 0.86578 0.0
C358 C 0.42604 0.91583 0.81559 0.0
C359 C 0.36539 0.78826 0.78757 0.0
C360 C 0.24157 0.87273 0.68259 0.0
C361 C 0.29785 0.84307 0.65088 0.0
C362 C 0.27347 0.87903 0.73217 0.0
C363 C 0.36329 0.85336 0.75007 0.0
C364 C 0.4205 0.82479 0.71793 0.0
C365 C 0.38689 0.82066 0.66848 0.0
C366 C 0.21094 0.91143 0.76531 0.0
C367 C 0.51667 0.79612 0.73566 0.0
H368 H 0.51399 0.88805 0.90056 0.0
H369 H 0.45511 0.78408 0.87833 0.0
H370 H 0.47232 0.89958 0.79202 0.0
H371 H 0.36037 0.93579 0.79448 0.0
H372 H 0.44081 0.94003 0.84617 0.0
H373 H 0.371 0.76582 0.80745 0.0
H374 H 0.29646 0.80964 0.77141 0.0
H375 H 0.40018 0.76593 0.75775 0.0
H376 H 0.17252 0.89045 0.66858 0.0
H377 H 0.42994 0.79763 0.64363 0.0
H378 H 0.23531 0.93248 0.79476 0.0
H379 H 0.20396 0.89122 0.78184 0.0
H380 H 0.14613 0.93495 0.74601 0.0
H381 H 0.54178 0.81834 0.76153 0.0
H382 H 0.5523 0.77707 0.70601 0.0
H383 H 0.53055 0.77073 0.75477 0.0
C384 C 0.57372 0.21909 0.73444 0.0
C385 C 0.50725 0.25048 0.70453 0.0
C386 C 0.55669 0.21273 0.77157 0.0
C387 C 0.47116 0.23819 0.77878 0.0
C388 C 0.40355 0.26858 0.74753 0.0
C389 C 0.42241 0.27432 0.71094 0.0
C390 C 0.63052 0.17995 0.80405 0.0
C391 C 0.3113 0.2962 0.75359 0.0
C392 C 0.39182 0.21136 0.85457 0.0
C393 C 0.38528 0.24603 0.89542 0.0
C394 C 0.42489 0.20628 0.81724 0.0
C395 C 0.45213 0.23649 0.82108 0.0
C396 C 0.45128 0.26927 0.86383 0.0
C397 C 0.41796 0.27359 0.90033 0.0
C398 C 0.42524 0.17069 0.77244 0.0
C399 C 0.47999 0.30208 0.8698 0.0
H400 H 0.63944 0.20057 0.72977 0.0
H401 H 0.3704 0.29782 0.68734 0.0
H402 H 0.64069 0.19972 0.84058 0.0
H403 H 0.61515 0.15588 0.80713 0.0
H404 H 0.69166 0.1595 0.79103 0.0
H405 H 0.26567 0.3165 0.72483 0.0
H406 H 0.29142 0.2729 0.75357 0.0
H407 H 0.30569 0.32037 0.78863 0.0
H408 H 0.36653 0.19001 0.85047 0.0
H409 H 0.4143 0.30005 0.93212 0.0
H410 H 0.48697 0.15181 0.76052 0.0
H411 H 0.37278 0.18819 0.74316 0.0
H412 H 0.41523 0.14538 0.77783 0.0
H413 H 0.54404 0.28292 0.86048 0.0
H414 H 0.48378 0.32216 0.90694 0.0
H415 H 0.43365 0.3267 0.84501 0.0
C416 C 0.9156 0.74935 0.12486 0.0
C417 C 0.83039 0.78488 0.12708 0.0
C418 C -0.02437 0.73415 0.16687 0.0
C419 C -0.05094 0.75568 0.21133 0.0
C420 C 0.86071 0.78747 0.21234 0.0
C421 C 0.80241 0.8015 0.17004 0.0
C422 C 0.06845 0.69809 0.16422 0.0
C423 C 0.82892 0.81061 0.25875 0.0
C424 C 0.07579 0.73402 0.33621 0.0
C425 C 0.09687 0.76849 0.35257 0.0
C426 C 0.03533 0.72567 0.2883 0.0
C427 C 0.013 0.75364 0.25693 0.0
C428 C 0.03926 0.78641 0.27265 0.0
C429 C 0.08181 0.79299 0.32013 0.0
C430 C 0.01236 0.68884 0.27241 0.0
C431 C 0.01607 0.81742 0.2406 0.0
H432 H 0.93665 0.73577 0.09125 0.0
H433 H 0.73556 0.82795 0.17126 0.0
H434 H 0.10555 0.71525 0.17311 0.0
H435 H 0.09813 0.6753 0.19042 0.0
H436 H 0.07438 0.67661 0.12771 0.0
H437 H 0.75741 0.83171 0.25271 0.0
H438 H 0.85201 0.7845 0.27965 0.0
H439 H 0.85495 0.83348 0.28084 0.0
H440 H 0.08929 0.71419 0.36098 0.0
H441 H 0.09864 0.81941 0.3325 0.0
H442 H 0.01006 0.67422 0.23356 0.0
H443 H -0.05203 0.70394 0.27945 0.0
H444 H 0.05948 0.66041 0.29282 0.0
H445 H 0.03712 0.7966 0.20627 0.0
H446 H 0.04587 0.83911 0.2575 0.0
H447 H 0.94499 0.84057 0.23213 0.0
C448 C 0.01456 0.3171 0.2873 0.0
C449 C 0.92698 0.34032 0.28846 0.0
C450 C 0.04045 0.31648 0.2494 0.0
C451 C -0.02266 0.33981 0.21165 0.0
C452 C 0.8889 0.364 0.21299 0.0
C453 C 0.86482 0.36385 0.25122 0.0
C454 C 0.13543 0.28993 0.24922 0.0
C455 C 0.81961 0.38956 0.17368 0.0
C456 C 0.05633 0.36206 0.13094 0.0
C457 C 0.06896 0.32442 0.09276 0.0
C458 C 0.0241 0.36841 0.16931 0.0
C459 C 0.00405 0.33639 0.16946 0.0
C460 C 0.01345 0.29946 0.13004 0.0
C461 C 0.04551 0.29402 0.09231 0.0
C462 C 0.01458 0.40837 0.21053 0.0
C463 C -0.00726 0.26454 0.12847 0.0
H464 H 0.06306 0.29847 0.3156 0.0
H465 H 0.79708 0.38252 0.25216 0.0
H466 H 0.14951 0.26134 0.21764 0.0
H467 H 0.15372 0.31274 0.2461 0.0
H468 H 0.17653 0.27517 0.2821 0.0
H469 H 0.75404 0.4086 0.18116 0.0
H470 H 0.83137 0.41445 0.16904 0.0
H471 H 0.82153 0.36485 0.1392 0.0
H472 H 0.07462 0.38558 0.13178 0.0
H473 H 0.05424 0.26501 0.06285 0.0
H474 H 0.06154 0.39513 0.24326 0.0
H475 H -0.05083 0.42797 0.21826 0.0
H476 H 0.02574 0.43234 0.20323 0.0
H477 H 0.03641 0.2456 0.15839 0.0
H478 H -0.00025 0.23907 0.09424 0.0
H479 H 0.92581 0.28224 0.13324 0.0
C480 C 0.86078 0.29557 0.66735 0.0
C481 C 0.81974 0.33041 0.64112 0.0
C482 C 0.90073 0.30168 0.71565 0.0
C483 C 0.89632 0.34444 0.73864 0.0
C484 C 0.85332 0.38014 0.71242 0.0
C485 C 0.81683 0.37234 0.66349 0.0
C486 C -0.05177 0.26219 0.74193 0.0
C487 C 0.84458 0.42667 0.7362 0.0
C488 C 0.94309 0.35506 0.87244 0.0
C489 C 0.03131 0.33926 0.88416 0.0
C490 C 0.89547 0.3618 0.82579 0.0
C491 C 0.93821 0.35077 0.78999 0.0
C492 C 0.02569 0.33848 0.80274 0.0
C493 C 0.07085 0.33367 0.85 0.0
C494 C 0.80128 0.37695 0.81402 0.0
C495 C 0.07447 0.32542 0.76565 0.0
H496 H 0.86303 0.26313 0.64972 0.0
H497 H 0.78385 0.39943 0.64304 0.0
H498 H 0.01563 0.25407 0.75811 0.0
H499 H 0.91695 0.27212 0.77153 0.0
H500 H -0.05042 0.23045 0.71804 0.0
H501 H 0.80824 0.45093 0.71085 0.0
H502 H 0.81079 0.4421 0.76621 0.0
H503 H 0.90919 0.4228 0.75172 0.0
H504 H 0.91242 0.35978 0.89902 0.0
H505 H 0.13922 0.32142 0.85895 0.0
H506 H 0.79371 0.34658 0.79569 0.0
H507 H 0.76329 0.4019 0.78939 0.0
H508 H 0.77399 0.39308 0.84678 0.0
H509 H 0.08741 0.29091 0.7439 0.0
H510 H 0.13718 0.32386 0.78233 0.0
H511 H 0.03605 0.35018 0.74087 0.0
C512 C 0.04383 0.7581 0.75656 0.0
C513 C -0.02097 0.78263 0.72055 0.0
C514 C 0.02325 0.75585 0.795 0.0
C515 C 0.93572 0.77853 0.79755 0.0
C516 C 0.87009 0.80328 0.76131 0.0
C517 C 0.89247 0.80503 0.7234 0.0
C518 C 0.09517 0.72964 0.83318 0.0
C519 C 0.77595 0.82794 0.76254 0.0
C520 C 0.86446 0.74482 0.87122 0.0
C521 C 0.84747 0.78131 0.91087 0.0
C522 C 0.89621 0.74251 0.83488 0.0
C523 C 0.91213 0.77727 0.8384 0.0
C524 C 0.89958 0.81273 0.87963 0.0
C525 C 0.86704 0.81446 0.9151 0.0
C526 C 0.90877 0.70406 0.7916 0.0
C527 C 0.91634 0.85033 0.8854 0.0
H528 H 0.11089 0.7411 0.75505 0.0
H529 H 0.84181 0.82343 0.69544 0.0
H530 H 0.0918 0.75335 0.86847 0.0
H531 H 0.08774 0.70243 0.83615 0.0
H532 H 0.15986 0.71323 0.82567 0.0
H533 H 0.73266 0.84511 0.73131 0.0
H534 H 0.76003 0.80312 0.763 0.0
H535 H 0.7625 0.85442 0.79581 0.0
H536 H 0.84923 0.71916 0.8674 0.0
H537 H 0.85471 0.84272 0.94566 0.0
H538 H -0.026 0.68691 0.78456 0.0
H539 H 0.8613 0.71857 0.75955 0.0
H540 H 0.90053 0.67767 0.79601 0.0
H541 H -0.02258 0.83591 0.87471 0.0
H542 H 0.91981 0.86962 0.9229 0.0
H543 H 0.86333 0.87505 0.86182 0.0
loop_
_geom_bond_atom_site_label_1
_geom_bond_atom_site_label_2
_geom_bond_distance
_geom_bond_site_symmetry_2
_ccdc_geom_bond_type
Nd0 C2 2.836 . S
Nd0 O20 2.500 1_554 S
Nd0 O21 2.492 . S
Nd0 O22 2.487 . S
Nd0 O23 2.682 . S
Nd0 O24 2.410 1_554 S
Nd0 O29 2.414 1_554 S
Nd0 O31 2.424 . S
Nd1 C11 2.836 1_556 S
Nd1 O23 2.414 1_556 S
Nd1 O25 2.424 . S
Nd1 O26 2.500 1_556 S
Nd1 O27 2.492 . S
Nd1 O28 2.487 . S
Nd1 O29 2.682 . S
Nd1 O30 2.410 1_556 S
C2 Nd0 2.836 . S
C2 C3 1.498 1_554 S
C2 O20 1.258 1_554 S
C2 O21 1.239 . S
C3 C2 1.498 1_556 S
C3 C4 1.366 . S
C3 C8 1.407 1_556 S
C4 C3 1.366 . S
C4 C5 1.392 . S
C4 H32 0.930 . S
C5 C4 1.392 . S
C5 C6 1.398 . S
C5 H33 0.929 . S
C6 C5 1.398 . S
C6 C7 1.352 1_556 S
C7 C6 1.352 1_554 S
C7 C8 1.384 . S
C7 H34 0.930 . S
C8 C3 1.407 1_554 S
C8 C7 1.384 . S
C8 H35 0.929 . S
C9 O22 1.241 . S
C9 O23 1.273 . S
C10 O24 1.251 . S
C10 O25 1.268 . S
C11 Nd1 2.836 1_554 S
C11 C12 1.498 . S
C11 O26 1.258 . S
C11 O27 1.239 1_554 S
C12 C11 1.498 . S
C12 C13 1.366 . S
C12 C17 1.407 1_554 S
C13 C12 1.366 . S
C13 C14 1.392 . S
C13 H36 0.930 . S
C14 C13 1.392 . S
C14 C15 1.398 . S
C14 H37 0.929 . S
C15 C14 1.398 . S
C15 C16 1.352 1_554 S
C16 C15 1.352 1_556 S
C16 C17 1.384 . S
C16 H38 0.930 . S
C17 C12 1.407 1_556 S
C17 C16 1.384 . S
C17 H39 0.929 . S
C18 O28 1.241 . S
C18 O29 1.273 . S
C19 O30 1.251 . S
C19 O31 1.268 . S
O20 Nd0 2.500 1_556 S
O20 C2 1.258 1_556 S
O21 Nd0 2.492 . S
O21 C2 1.239 . S
O22 Nd0 2.487 . S
O22 C9 1.241 . S
O23 Nd0 2.682 . S
O23 Nd1 2.414 1_554 S
O23 C9 1.273 . S
O24 Nd0 2.410 1_556 S
O24 C10 1.251 . S
O25 Nd1 2.424 . S
O25 C10 1.268 . S
O26 Nd1 2.500 1_554 S
O26 C11 1.258 . S
O27 Nd1 2.492 . S
O27 C11 1.239 1_556 S
O28 Nd1 2.487 . S
O28 C18 1.241 . S
O29 Nd0 2.414 1_556 S
O29 Nd1 2.682 . S
O29 C18 1.273 . S
O30 Nd1 2.410 1_554 S
O30 C19 1.251 . S
O31 Nd0 2.424 . S
O31 C19 1.268 . S
H32 C4 0.930 . S
H33 C5 0.929 . S
H34 C7 0.930 . S
H35 C8 0.929 . S
H36 C13 0.930 . S
H37 C14 0.929 . S
H38 C16 0.930 . S
H39 C17 0.929 . S
Nd40 C42 2.836 . S
Nd40 O60 2.500 1_554 S
Nd40 O61 2.492 . S
Nd40 O62 2.487 . S
Nd40 O63 2.682 . S
Nd40 O64 2.410 1_554 S
Nd40 O69 2.414 1_554 S
Nd40 O71 2.424 . S
Nd41 C51 2.836 1_556 S
Nd41 O63 2.414 1_556 S
Nd41 O65 2.424 . S
Nd41 O66 2.500 1_556 S
Nd41 O67 2.492 . S
Nd41 O68 2.487 . S
Nd41 O69 2.682 . S
Nd41 O70 2.410 1_556 S
C42 Nd40 2.836 . S
C42 C43 1.498 1_554 S
C42 O60 1.258 1_554 S
C42 O61 1.239 . S
C43 C42 1.498 1_556 S
C43 C44 1.366 . S
C43 C48 1.407 1_556 S
C44 C43 1.366 . S
C44 C45 1.392 . S
C44 H72 0.930 . S
C45 C44 1.392 . S
C45 C46 1.398 . S
C45 H73 0.929 . S
C46 C45 1.398 . S
C46 C47 1.352 1_556 S
C47 C46 1.352 1_554 S
C47 C48 1.384 . S
C47 H74 0.930 . S
C48 C43 1.407 1_554 S
C48 C47 1.384 . S
C48 H75 0.929 . S
C49 O62 1.241 . S
C49 O63 1.273 . S
C50 O64 1.251 . S
C50 O65 1.268 . S
C51 Nd41 2.836 1_554 S
C51 C52 1.498 . S
C51 O66 1.258 . S
C51 O67 1.239 1_554 S
C52 C51 1.498 . S
C52 C53 1.366 . S
C52 C57 1.407 1_554 S
C53 C52 1.366 . S
C53 C54 1.392 . S
C53 H76 0.930 . S
C54 C53 1.392 . S
C54 C55 1.398 . S
C54 H77 0.929 . S
C55 C54 1.398 . S
C55 C56 1.352 1_554 S
C56 C55 1.352 1_556 S
C56 C57 1.384 . S
C56 H78 0.930 . S
C57 C52 1.407 1_556 S
C57 C56 1.384 . S
C57 H79 0.929 . S
C58 O68 1.241 . S
C58 O69 1.273 . S
C59 O70 1.251 . S
C59 O71 1.268 . S
O60 Nd40 2.500 1_556 S
O60 C42 1.258 1_556 S
O61 Nd40 2.492 . S
O61 C42 1.239 . S
O62 Nd40 2.487 . S
O62 C49 1.241 . S
O63 Nd40 2.682 . S
O63 Nd41 2.414 1_554 S
O63 C49 1.273 . S
O64 Nd40 2.410 1_556 S
O64 C50 1.251 . S
O65 Nd41 2.424 . S
O65 C50 1.268 . S
O66 Nd41 2.500 1_554 S
O66 C51 1.258 . S
O67 Nd41 2.492 . S
O67 C51 1.239 1_556 S
O68 Nd41 2.487 . S
O68 C58 1.241 . S
O69 Nd40 2.414 1_556 S
O69 Nd41 2.682 . S
O69 C58 1.273 . S
O70 Nd41 2.410 1_554 S
O70 C59 1.251 . S
O71 Nd40 2.424 . S
O71 C59 1.268 . S
H72 C44 0.930 . S
H73 C45 0.929 . S
H74 C47 0.930 . S
H75 C48 0.929 . S
H76 C53 0.930 . S
H77 C54 0.929 . S
H78 C56 0.930 . S
H79 C57 0.929 . S
Nd80 C82 2.836 . S
Nd80 O100 2.500 . S
Nd80 O101 2.492 . S
Nd80 O102 2.487 . S
Nd80 O103 2.682 . S
Nd80 O104 2.410 . S
Nd80 O109 2.414 . S
Nd80 O111 2.424 . S
Nd81 C91 2.836 . S
Nd81 O103 2.414 . S
Nd81 O105 2.424 . S
Nd81 O106 2.500 . S
Nd81 O107 2.492 . S
Nd81 O108 2.487 . S
Nd81 O109 2.682 . S
Nd81 O110 2.410 . S
C82 Nd80 2.836 . S
C82 C83 1.498 . S
C82 O100 1.258 . S
C82 O101 1.239 . S
C83 C82 1.498 . S
C83 C84 1.366 . S
C83 C88 1.407 . S
C84 C83 1.366 . S
C84 C85 1.392 . S
C84 H112 0.930 . S
C85 C84 1.392 . S
C85 C86 1.398 . S
C85 H113 0.929 . S
C86 C85 1.398 . S
C86 C87 1.352 . S
C87 C86 1.352 . S
C87 C88 1.384 . S
C87 H114 0.930 . S
C88 C83 1.407 . S
C88 C87 1.384 . S
C88 H115 0.929 . S
C89 O102 1.241 . S
C89 O103 1.273 . S
C90 O104 1.251 . S
C90 O105 1.268 . S
C91 Nd81 2.836 . S
C91 C92 1.498 . S
C91 O106 1.258 . S
C91 O107 1.239 . S
C92 C91 1.498 . S
C92 C93 1.366 . S
C92 C97 1.407 . S
C93 C92 1.366 . S
C93 C94 1.392 . S
C93 H116 0.930 . S
C94 C93 1.392 . S
C94 C95 1.398 . S
C94 H117 0.929 . S
C95 C94 1.398 . S
C95 C96 1.352 . S
C96 C95 1.352 . S
C96 C97 1.384 . S
C96 H118 0.930 1_455 S
C97 C92 1.407 . S
C97 C96 1.384 . S
C97 H119 0.929 . S
C98 O108 1.241 . S
C98 O109 1.273 . S
C99 O110 1.251 . S
C99 O111 1.268 . S
O100 Nd80 2.500 . S
O100 C82 1.258 . S
O101 Nd80 2.492 . S
O101 C82 1.239 . S
O102 Nd80 2.487 . S
O102 C89 1.241 . S
O103 Nd80 2.682 . S
O103 Nd81 2.414 . S
O103 C89 1.273 . S
O104 Nd80 2.410 . S
O104 C90 1.251 . S
O105 Nd81 2.424 . S
O105 C90 1.268 . S
O106 Nd81 2.500 . S
O106 C91 1.258 . S
O107 Nd81 2.492 . S
O107 C91 1.239 . S
O108 Nd81 2.487 . S
O108 C98 1.241 . S
O109 Nd80 2.414 . S
O109 Nd81 2.682 . S
O109 C98 1.273 . S
O110 Nd81 2.410 . S
O110 C99 1.251 . S
O111 Nd80 2.424 . S
O111 C99 1.268 . S
H112 C84 0.930 . S
H113 C85 0.929 . S
H114 C87 0.930 . S
H115 C88 0.929 . S
H116 C93 0.930 . S
H117 C94 0.929 . S
H118 C96 0.930 1_655 S
H119 C97 0.929 . S
Nd120 C122 2.836 . S
Nd120 O140 2.500 . S
Nd120 O141 2.492 . S
Nd120 O142 2.487 . S
Nd120 O143 2.682 . S
Nd120 O144 2.410 . S
Nd120 O149 2.414 . S
Nd120 O151 2.424 . S
Nd121 C131 2.836 . S
Nd121 O143 2.414 . S
Nd121 O145 2.424 . S
Nd121 O146 2.500 . S
Nd121 O147 2.492 . S
Nd121 O148 2.487 . S
Nd121 O149 2.682 . S
Nd121 O150 2.410 . S
C122 Nd120 2.836 . S
C122 C123 1.498 . S
C122 O140 1.258 . S
C122 O141 1.239 . S
C123 C122 1.498 . S
C123 C124 1.366 . S
C123 C128 1.407 . S
C124 C123 1.366 . S
C124 C125 1.392 . S
C124 H152 0.930 . S
C125 C124 1.392 . S
C125 C126 1.398 . S
C125 H153 0.929 . S
C126 C125 1.398 . S
C126 C127 1.352 . S
C127 C126 1.352 . S
C127 C128 1.384 . S
C127 H154 0.930 1_655 S
C128 C123 1.407 . S
C128 C127 1.384 . S
C128 H155 0.929 . S
C129 O142 1.241 . S
C129 O143 1.273 . S
C130 O144 1.251 . S
C130 O145 1.268 . S
C131 Nd121 2.836 . S
C131 C132 1.498 . S
C131 O146 1.258 . S
C131 O147 1.239 . S
C132 C131 1.498 . S
C132 C133 1.366 . S
C132 C137 1.407 . S
C133 C132 1.366 . S
C133 C134 1.392 . S
C133 H156 0.930 . S
C134 C133 1.392 . S
C134 C135 1.398 . S
C134 H157 0.929 . S
C135 C134 1.398 . S
C135 C136 1.352 . S
C136 C135 1.352 . S
C136 C137 1.384 . S
C136 H158 0.930 . S
C137 C132 1.407 . S
C137 C136 1.384 . S
C137 H159 0.929 . S
C138 O148 1.241 . S
C138 O149 1.273 . S
C139 O150 1.251 . S
C139 O151 1.268 . S
O140 Nd120 2.500 . S
O140 C122 1.258 . S
O141 Nd120 2.492 . S
O141 C122 1.239 . S
O142 Nd120 2.487 . S
O142 C129 1.241 . S
O143 Nd120 2.682 . S
O143 Nd121 2.414 . S
O143 C129 1.273 . S
O144 Nd120 2.410 . S
O144 C130 1.251 . S
O145 Nd121 2.424 . S
O145 C130 1.268 . S
O146 Nd121 2.500 . S
O146 C131 1.258 . S
O147 Nd121 2.492 . S
O147 C131 1.239 . S
O148 Nd121 2.487 . S
O148 C138 1.241 . S
O149 Nd120 2.414 . S
O149 Nd121 2.682 . S
O149 C138 1.273 . S
O150 Nd121 2.410 . S
O150 C139 1.251 . S
O151 Nd120 2.424 . S
O151 C139 1.268 . S
H152 C124 0.930 . S
H153 C125 0.929 . S
H154 C127 0.930 1_455 S
H155 C128 0.929 . S
H156 C133 0.930 . S
H157 C134 0.929 . S
H158 C136 0.930 . S
H159 C137 0.929 . S
C160 C161 1.391 1_556 S
C160 C162 1.394 . S
C160 H176 0.931 . S
C161 C160 1.391 1_554 S
C161 C165 1.376 . S
C162 C160 1.394 . S
C162 C163 1.369 1_556 S
C162 C166 1.531 . S
C163 C162 1.369 1_554 S
C163 C164 1.410 . S
C163 C171 1.503 1_554 S
C164 C163 1.410 . S
C164 C165 1.392 . S
C164 C167 1.511 . S
C165 C161 1.376 . S
C165 C164 1.392 . S
C165 H177 0.929 . S
C166 C162 1.531 . S
C166 H178 0.960 . S
C166 H179 0.962 . S
C166 H180 0.960 . S
C167 C164 1.511 . S
C167 H181 0.961 . S
C167 H182 0.961 . S
C167 H183 0.961 . S
C168 C169 1.370 . S
C168 C170 1.363 1_556 S
C168 H184 0.931 1_556 S
C169 C168 1.370 . S
C169 C173 1.408 . S
C170 C168 1.363 1_554 S
C170 C171 1.370 1_554 S
C170 C174 1.524 . S
C171 C163 1.503 1_556 S
C171 C170 1.370 1_556 S
C171 C172 1.403 . S
C172 C171 1.403 . S
C172 C173 1.404 . S
C172 C175 1.539 . S
C173 C169 1.408 . S
C173 C172 1.404 . S
C173 H185 0.930 . S
C174 C170 1.524 . S
C174 H186 0.956 . S
C174 H187 0.961 . S
C174 H188 0.961 . S
C175 C172 1.539 . S
C175 H189 0.958 . S
C175 H190 0.961 . S
C175 H191 0.960 . S
H176 C160 0.931 . S
H177 C165 0.929 . S
H178 C166 0.960 . S
H179 C166 0.962 . S
H180 C166 0.960 . S
H181 C167 0.961 . S
H182 C167 0.961 . S
H183 C167 0.961 . S
H184 C168 0.931 1_554 S
H185 C173 0.930 . S
H186 C174 0.956 . S
H187 C174 0.961 . S
H188 C174 0.961 . S
H189 C175 0.958 . S
H190 C175 0.961 . S
H191 C175 0.960 . S
C192 C193 1.391 . S
C192 C194 1.394 . S
C192 H208 0.931 . S
C193 C192 1.391 . S
C193 C197 1.376 . S
C194 C192 1.394 . S
C194 C195 1.369 . S
C194 C198 1.531 . S
C195 C194 1.369 . S
C195 C196 1.410 . S
C195 C203 1.503 . S
C196 C195 1.410 . S
C196 C197 1.392 . S
C196 C199 1.511 . S
C197 C193 1.376 . S
C197 C196 1.392 . S
C197 H209 0.929 . S
C198 C194 1.531 . S
C198 H210 0.960 . S
C198 H211 0.962 . S
C198 H212 0.960 . S
C199 C196 1.511 . S
C199 H213 0.961 . S
C199 H214 0.961 . S
C199 H215 0.961 . S
C200 C201 1.370 . S
C200 C202 1.363 . S
C200 H216 0.931 . S
C201 C200 1.370 . S
C201 C205 1.408 . S
C202 C200 1.363 . S
C202 C203 1.370 . S
C202 C206 1.524 . S
C203 C195 1.503 . S
C203 C202 1.370 . S
C203 C204 1.403 . S
C204 C203 1.403 . S
C204 C205 1.404 . S
C204 C207 1.539 . S
C205 C201 1.408 . S
C205 C204 1.404 . S
C205 H217 0.930 . S
C206 C202 1.524 . S
C206 H218 0.956 . S
C206 H219 0.961 . S
C206 H220 0.961 . S
C207 C204 1.539 . S
C207 H221 0.958 . S
C207 H222 0.961 . S
C207 H223 0.960 . S
H208 C192 0.931 . S
H209 C197 0.929 . S
H210 C198 0.960 . S
H211 C198 0.962 . S
H212 C198 0.960 . S
H213 C199 0.961 . S
H214 C199 0.961 . S
H215 C199 0.961 . S
H216 C200 0.931 . S
H217 C205 0.930 . S
H218 C206 0.956 . S
H219 C206 0.961 . S
H220 C206 0.961 . S
H221 C207 0.958 . S
H222 C207 0.961 . S
H223 C207 0.960 . S
C224 C225 1.391 1_556 S
C224 C226 1.394 . S
C224 H240 0.931 . S
C225 C224 1.391 1_554 S
C225 C229 1.376 1_545 S
C226 C224 1.394 . S
C226 C227 1.369 . S
C226 C230 1.531 1_455 S
C227 C226 1.369 . S
C227 C228 1.410 1_546 S
C227 C235 1.503 1_445 S
C228 C227 1.410 1_564 S
C228 C229 1.392 . S
C228 C231 1.511 . S
C229 C225 1.376 1_565 S
C229 C228 1.392 . S
C229 H241 0.929 . S
C230 C226 1.531 1_655 S
C230 H242 0.960 . S
C230 H243 0.962 . S
C230 H244 0.960 . S
C231 C228 1.511 . S
C231 H245 0.961 . S
C231 H246 0.961 . S
C231 H247 0.961 . S
C232 C233 1.370 1_554 S
C232 C234 1.363 1_565 S
C232 H248 0.931 1_565 S
C233 C232 1.370 1_556 S
C233 C237 1.408 . S
C234 C232 1.363 1_545 S
C234 C235 1.370 1_544 S
C234 C238 1.524 . S
C235 C227 1.503 1_665 S
C235 C234 1.370 1_566 S
C235 C236 1.403 . S
C236 C235 1.403 . S
C236 C237 1.404 . S
C236 C239 1.539 1_655 S
C237 C233 1.408 . S
C237 C236 1.404 . S
C237 H249 0.930 . S
C238 C234 1.524 . S
C238 H250 0.956 . S
C238 H251 0.961 1_655 S
C238 H252 0.961 . S
C239 C236 1.539 1_455 S
C239 H253 0.958 1_455 S
C239 H254 0.961 . S
C239 H255 0.960 . S
H240 C224 0.931 . S
H241 C229 0.929 . S
H242 C230 0.960 . S
H243 C230 0.962 . S
H244 C230 0.960 . S
H245 C231 0.961 . S
H246 C231 0.961 . S
H247 C231 0.961 . S
H248 C232 0.931 1_545 S
H249 C237 0.930 . S
H250 C238 0.956 . S
H251 C238 0.961 1_455 S
H252 C238 0.961 . S
H253 C239 0.958 1_655 S
H254 C239 0.961 . S
H255 C239 0.960 . S
C256 C257 1.391 . S
C256 C258 1.394 1_655 S
C256 H272 0.931 . S
C257 C256 1.391 . S
C257 C261 1.376 . S
C258 C256 1.394 1_455 S
C258 C259 1.369 1_455 S
C258 C262 1.531 . S
C259 C258 1.369 1_655 S
C259 C260 1.410 . S
C259 C267 1.503 1_645 S
C260 C259 1.410 . S
C260 C261 1.392 . S
C260 C263 1.511 . S
C261 C257 1.376 . S
C261 C260 1.392 . S
C261 H273 0.929 . S
C262 C258 1.531 . S
C262 H274 0.960 1_545 S
C262 H275 0.962 1_545 S
C262 H276 0.960 . S
C263 C260 1.511 . S
C263 H277 0.961 . S
C263 H278 0.961 . S
C263 H279 0.961 . S
C264 C265 1.370 . S
C264 C266 1.363 1_455 S
C264 H280 0.931 . S
C265 C264 1.370 . S
C265 C269 1.408 . S
C266 C264 1.363 1_655 S
C266 C267 1.370 1_655 S
C266 C270 1.524 . S
C267 C259 1.503 1_465 S
C267 C266 1.370 1_455 S
C267 C268 1.403 . S
C268 C267 1.403 . S
C268 C269 1.404 . S
C268 C271 1.539 . S
C269 C265 1.408 . S
C269 C268 1.404 . S
C269 H281 0.930 . S
C270 C266 1.524 . S
C270 H282 0.956 . S
C270 H283 0.961 . S
C270 H284 0.961 . S
C271 C268 1.539 . S
C271 H285 0.958 . S
C271 H286 0.961 . S
C271 H287 0.960 1_565 S
H272 C256 0.931 . S
H273 C261 0.929 . S
H274 C262 0.960 1_565 S
H275 C262 0.962 1_565 S
H276 C262 0.960 . S
H277 C263 0.961 . S
H278 C263 0.961 . S
H279 C263 0.961 . S
H280 C264 0.931 . S
H281 C269 0.930 . S
H282 C270 0.956 . S
H283 C270 0.961 . S
H284 C270 0.961 . S
H285 C271 0.958 . S
H286 C271 0.961 . S
H287 C271 0.960 1_545 S
C288 C289 1.391 . S
C288 C290 1.394 . S
C288 H304 0.931 . S
C289 C288 1.391 . S
C289 C293 1.376 . S
C290 C288 1.394 . S
C290 C291 1.369 . S
C290 C294 1.531 . S
C291 C290 1.369 . S
C291 C292 1.410 . S
C291 C299 1.503 . S
C292 C291 1.410 . S
C292 C293 1.392 . S
C292 C295 1.511 . S
C293 C289 1.376 . S
C293 C292 1.392 . S
C293 H305 0.929 . S
C294 C290 1.531 . S
C294 H306 0.960 . S
C294 H307 0.962 . S
C294 H308 0.960 . S
C295 C292 1.511 . S
C295 H309 0.961 . S
C295 H310 0.961 . S
C295 H311 0.961 . S
C296 C297 1.370 . S
C296 C298 1.363 . S
C296 H312 0.931 . S
C297 C296 1.370 . S
C297 C301 1.408 . S
C298 C296 1.363 . S
C298 C299 1.370 . S
C298 C302 1.524 . S
C299 C291 1.503 . S
C299 C298 1.370 . S
C299 C300 1.403 . S
C300 C299 1.403 . S
C300 C301 1.404 . S
C300 C303 1.539 . S
C301 C297 1.408 . S
C301 C300 1.404 . S
C301 H313 0.930 . S
C302 C298 1.524 . S
C302 H314 0.956 . S
C302 H315 0.961 . S
C302 H316 0.961 . S
C303 C300 1.539 . S
C303 H317 0.958 . S
C303 H318 0.961 . S
C303 H319 0.960 . S
H304 C288 0.931 . S
H305 C293 0.929 . S
H306 C294 0.960 . S
H307 C294 0.962 . S
H308 C294 0.960 . S
H309 C295 0.961 . S
H310 C295 0.961 . S
H311 C295 0.961 . S
H312 C296 0.931 . S
H313 C301 0.930 . S
H314 C302 0.956 . S
H315 C302 0.961 . S
H316 C302 0.961 . S
H317 C303 0.958 . S
H318 C303 0.961 . S
H319 C303 0.960 . S
C320 C321 1.391 . S
C320 C322 1.394 . S
C320 H336 0.931 . S
C321 C320 1.391 . S
C321 C325 1.376 . S
C322 C320 1.394 . S
C322 C323 1.369 . S
C322 C326 1.531 . S
C323 C322 1.369 . S
C323 C324 1.410 . S
C323 C331 1.503 . S
C324 C323 1.410 . S
C324 C325 1.392 . S
C324 C327 1.511 . S
C325 C321 1.376 . S
C325 C324 1.392 . S
C325 H337 0.929 . S
C326 C322 1.531 . S
C326 H338 0.960 . S
C326 H339 0.962 . S
C326 H340 0.960 . S
C327 C324 1.511 . S
C327 H341 0.961 . S
C327 H342 0.961 . S
C327 H343 0.961 . S
C328 C329 1.370 . S
C328 C330 1.363 . S
C328 H344 0.931 . S
C329 C328 1.370 . S
C329 C333 1.408 . S
C330 C328 1.363 . S
C330 C331 1.370 . S
C330 C334 1.524 . S
C331 C323 1.503 . S
C331 C330 1.370 . S
C331 C332 1.403 . S
C332 C331 1.403 . S
C332 C333 1.404 . S
C332 C335 1.539 . S
C333 C329 1.408 . S
C333 C332 1.404 . S
C333 H345 0.930 . S
C334 C330 1.524 . S
C334 H346 0.956 . S
C334 H347 0.961 . S
C334 H348 0.961 . S
C335 C332 1.539 . S
C335 H349 0.958 . S
C335 H350 0.961 . S
C335 H351 0.960 . S
H336 C320 0.931 . S
H337 C325 0.929 . S
H338 C326 0.960 . S
H339 C326 0.962 . S
H340 C326 0.960 . S
H341 C327 0.961 . S
H342 C327 0.961 . S
H343 C327 0.961 . S
H344 C328 0.931 . S
H345 C333 0.930 . S
H346 C334 0.956 . S
H347 C334 0.961 . S
H348 C334 0.961 . S
H349 C335 0.958 . S
H350 C335 0.961 . S
H351 C335 0.960 . S
C352 C353 1.391 . S
C352 C354 1.394 . S
C352 H368 0.931 . S
C353 C352 1.391 . S
C353 C357 1.376 . S
C354 C352 1.394 . S
C354 C355 1.369 . S
C354 C358 1.531 . S
C355 C354 1.369 . S
C355 C356 1.410 . S
C355 C363 1.503 . S
C356 C355 1.410 . S
C356 C357 1.392 . S
C356 C359 1.511 . S
C357 C353 1.376 . S
C357 C356 1.392 . S
C357 H369 0.929 . S
C358 C354 1.531 . S
C358 H370 0.960 . S
C358 H371 0.962 . S
C358 H372 0.960 . S
C359 C356 1.511 . S
C359 H373 0.961 . S
C359 H374 0.961 . S
C359 H375 0.961 . S
C360 C361 1.370 . S
C360 C362 1.363 . S
C360 H376 0.931 . S
C361 C360 1.370 . S
C361 C365 1.408 . S
C362 C360 1.363 . S
C362 C363 1.370 . S
C362 C366 1.524 . S
C363 C355 1.503 . S
C363 C362 1.370 . S
C363 C364 1.403 . S
C364 C363 1.403 . S
C364 C365 1.404 . S
C364 C367 1.539 . S
C365 C361 1.408 . S
C365 C364 1.404 . S
C365 H377 0.930 . S
C366 C362 1.524 . S
C366 H378 0.956 . S
C366 H379 0.961 . S
C366 H380 0.961 . S
C367 C364 1.539 . S
C367 H381 0.958 . S
C367 H382 0.961 . S
C367 H383 0.960 . S
H368 C352 0.931 . S
H369 C357 0.929 . S
H370 C358 0.960 . S
H371 C358 0.962 . S
H372 C358 0.960 . S
H373 C359 0.961 . S
H374 C359 0.961 . S
H375 C359 0.961 . S
H376 C360 0.931 . S
H377 C365 0.930 . S
H378 C366 0.956 . S
H379 C366 0.961 . S
H380 C366 0.961 . S
H381 C367 0.958 . S
H382 C367 0.961 . S
H383 C367 0.960 . S
C384 C385 1.391 . S
C384 C386 1.394 . S
C384 H400 0.931 . S
C385 C384 1.391 . S
C385 C389 1.376 . S
C386 C384 1.394 . S
C386 C387 1.369 . S
C386 C390 1.531 . S
C387 C386 1.369 . S
C387 C388 1.410 . S
C387 C395 1.503 . S
C388 C387 1.410 . S
C388 C389 1.392 . S
C388 C391 1.511 . S
C389 C385 1.376 . S
C389 C388 1.392 . S
C389 H401 0.929 . S
C390 C386 1.531 . S
C390 H402 0.960 . S
C390 H403 0.962 . S
C390 H404 0.960 . S
C391 C388 1.511 . S
C391 H405 0.961 . S
C391 H406 0.961 . S
C391 H407 0.961 . S
C392 C393 1.370 . S
C392 C394 1.363 . S
C392 H408 0.931 . S
C393 C392 1.370 . S
C393 C397 1.408 . S
C394 C392 1.363 . S
C394 C395 1.370 . S
C394 C398 1.524 . S
C395 C387 1.503 . S
C395 C394 1.370 . S
C395 C396 1.403 . S
C396 C395 1.403 . S
C396 C397 1.404 . S
C396 C399 1.539 . S
C397 C393 1.408 . S
C397 C396 1.404 . S
C397 H409 0.930 . S
C398 C394 1.524 . S
C398 H410 0.956 . S
C398 H411 0.961 . S
C398 H412 0.961 . S
C399 C396 1.539 . S
C399 H413 0.958 . S
C399 H414 0.961 . S
C399 H415 0.960 . S
H400 C384 0.931 . S
H401 C389 0.929 . S
H402 C390 0.960 . S
H403 C390 0.962 . S
H404 C390 0.960 . S
H405 C391 0.961 . S
H406 C391 0.961 . S
H407 C391 0.961 . S
H408 C392 0.931 . S
H409 C397 0.930 . S
H410 C398 0.956 . S
H411 C398 0.961 . S
H412 C398 0.961 . S
H413 C399 0.958 . S
H414 C399 0.961 . S
H415 C399 0.960 . S
C416 C417 1.391 . S
C416 C418 1.394 1_655 S
C416 H432 0.931 . S
C417 C416 1.391 . S
C417 C421 1.376 . S
C418 C416 1.394 1_455 S
C418 C419 1.369 1_455 S
C418 C422 1.531 . S
C419 C418 1.369 1_655 S
C419 C420 1.410 . S
C419 C427 1.503 1_655 S
C420 C419 1.410 . S
C420 C421 1.392 . S
C420 C423 1.511 . S
C421 C417 1.376 . S
C421 C420 1.392 . S
C421 H433 0.929 . S
C422 C418 1.531 . S
C422 H434 0.960 . S
C422 H435 0.962 . S
C422 H436 0.960 . S
C423 C420 1.511 . S
C423 H437 0.961 . S
C423 H438 0.961 . S
C423 H439 0.961 . S
C424 C425 1.370 . S
C424 C426 1.363 . S
C424 H440 0.931 . S
C425 C424 1.370 . S
C425 C429 1.408 . S
C426 C424 1.363 . S
C426 C427 1.370 . S
C426 C430 1.524 . S
C427 C419 1.503 1_455 S
C427 C426 1.370 . S
C427 C428 1.403 . S
C428 C427 1.403 . S
C428 C429 1.404 . S
C428 C431 1.539 1_455 S
C429 C425 1.408 . S
C429 C428 1.404 . S
C429 H441 0.930 . S
C430 C426 1.524 . S
C430 H442 0.956 . S
C430 H443 0.961 . S
C430 H444 0.961 . S
C431 C428 1.539 1_655 S
C431 H445 0.958 . S
C431 H446 0.961 . S
C431 H447 0.960 . S
H432 C416 0.931 . S
H433 C421 0.929 . S
H434 C422 0.960 . S
H435 C422 0.962 . S
H436 C422 0.960 . S
H437 C423 0.961 . S
H438 C423 0.961 . S
H439 C423 0.961 . S
H440 C424 0.931 . S
H441 C429 0.930 . S
H442 C430 0.956 . S
H443 C430 0.961 . S
H444 C430 0.961 . S
H445 C431 0.958 . S
H446 C431 0.961 . S
H447 C431 0.960 . S
C448 C449 1.391 1_455 S
C448 C450 1.394 . S
C448 H464 0.931 . S
C449 C448 1.391 1_655 S
C449 C453 1.376 . S
C450 C448 1.394 . S
C450 C451 1.369 . S
C450 C454 1.531 . S
C451 C450 1.369 . S
C451 C452 1.410 1_455 S
C451 C459 1.503 . S
C452 C451 1.410 1_655 S
C452 C453 1.392 . S
C452 C455 1.511 . S
C453 C449 1.376 . S
C453 C452 1.392 . S
C453 H465 0.929 . S
C454 C450 1.531 . S
C454 H466 0.960 . S
C454 H467 0.962 . S
C454 H468 0.960 . S
C455 C452 1.511 . S
C455 H469 0.961 . S
C455 H470 0.961 . S
C455 H471 0.961 . S
C456 C457 1.370 . S
C456 C458 1.363 . S
C456 H472 0.931 . S
C457 C456 1.370 . S
C457 C461 1.408 . S
C458 C456 1.363 . S
C458 C459 1.370 . S
C458 C462 1.524 . S
C459 C451 1.503 . S
C459 C458 1.370 . S
C459 C460 1.403 . S
C460 C459 1.403 . S
C460 C461 1.404 . S
C460 C463 1.539 1_455 S
C461 C457 1.408 . S
C461 C460 1.404 . S
C461 H473 0.930 . S
C462 C458 1.524 . S
C462 H474 0.956 . S
C462 H475 0.961 . S
C462 H476 0.961 . S
C463 C460 1.539 1_655 S
C463 H477 0.958 . S
C463 H478 0.961 . S
C463 H479 0.960 . S
H464 C448 0.931 . S
H465 C453 0.929 . S
H466 C454 0.960 . S
H467 C454 0.962 . S
H468 C454 0.960 . S
H469 C455 0.961 . S
H470 C455 0.961 . S
H471 C455 0.961 . S
H472 C456 0.931 . S
H473 C461 0.930 . S
H474 C462 0.956 . S
H475 C462 0.961 . S
H476 C462 0.961 . S
H477 C463 0.958 . S
H478 C463 0.961 . S
H479 C463 0.960 . S
C480 C481 1.391 . S
C480 C482 1.394 . S
C480 H496 0.931 . S
C481 C480 1.391 . S
C481 C485 1.376 . S
C482 C480 1.394 . S
C482 C483 1.369 . S
C482 C486 1.531 . S
C483 C482 1.369 . S
C483 C484 1.410 . S
C483 C491 1.503 1_655 S
C484 C483 1.410 . S
C484 C485 1.392 . S
C484 C487 1.511 . S
C485 C481 1.376 . S
C485 C484 1.392 . S
C485 H497 0.929 . S
C486 C482 1.531 . S
C486 H498 0.960 1_655 S
C486 H499 0.962 . S
C486 H500 0.960 . S
C487 C484 1.511 . S
C487 H501 0.961 . S
C487 H502 0.961 . S
C487 H503 0.961 1_655 S
C488 C489 1.370 . S
C488 C490 1.363 1_455 S
C488 H504 0.931 1_455 S
C489 C488 1.370 . S
C489 C493 1.408 . S
C490 C488 1.363 1_655 S
C490 C491 1.370 1_655 S
C490 C494 1.524 . S
C491 C483 1.503 1_455 S
C491 C490 1.370 1_455 S
C491 C492 1.403 . S
C492 C491 1.403 . S
C492 C493 1.404 . S
C492 C495 1.539 . S
C493 C489 1.408 . S
C493 C492 1.404 . S
C493 H505 0.930 . S
C494 C490 1.524 . S
C494 H506 0.956 . S
C494 H507 0.961 . S
C494 H508 0.961 . S
C495 C492 1.539 . S
C495 H509 0.958 . S
C495 H510 0.961 . S
C495 H511 0.960 . S
H496 C480 0.931 . S
H497 C485 0.929 . S
H498 C486 0.960 1_455 S
H499 C486 0.962 . S
H500 C486 0.960 . S
H501 C487 0.961 . S
H502 C487 0.961 . S
H503 C487 0.961 1_455 S
H504 C488 0.931 1_655 S
H505 C493 0.930 . S
H506 C494 0.956 . S
H507 C494 0.961 . S
H508 C494 0.961 . S
H509 C495 0.958 . S
H510 C495 0.961 . S
H511 C495 0.960 . S
C512 C513 1.391 . S
C512 C514 1.394 . S
C512 H528 0.931 . S
C513 C512 1.391 . S
C513 C517 1.376 1_455 S
C514 C512 1.394 . S
C514 C515 1.369 1_455 S
C514 C518 1.531 . S
C515 C514 1.369 1_655 S
C515 C516 1.410 . S
C515 C523 1.503 . S
C516 C515 1.410 . S
C516 C517 1.392 . S
C516 C519 1.511 . S
C517 C513 1.376 1_655 S
C517 C516 1.392 . S
C517 H529 0.929 . S
C518 C514 1.531 . S
C518 H530 0.960 . S
C518 H531 0.962 . S
C518 H532 0.960 . S
C519 C516 1.511 . S
C519 H533 0.961 . S
C519 H534 0.961 . S
C519 H535 0.961 . S
C520 C521 1.370 . S
C520 C522 1.363 . S
C520 H536 0.931 . S
C521 C520 1.370 . S
C521 C525 1.408 . S
C522 C520 1.363 . S
C522 C523 1.370 . S
C522 C526 1.524 1_655 S
C523 C515 1.503 . S
C523 C522 1.370 . S
C523 C524 1.403 . S
C524 C523 1.403 . S
C524 C525 1.404 . S
C524 C527 1.539 . S
C525 C521 1.408 . S
C525 C524 1.404 . S
C525 H537 0.930 . S
C526 C522 1.524 1_455 S
C526 H538 0.956 . S
C526 H539 0.961 . S
C526 H540 0.961 . S
C527 C524 1.539 . S
C527 H541 0.958 . S
C527 H542 0.961 . S
C527 H543 0.960 . S
H528 C512 0.931 . S
H529 C517 0.929 . S
H530 C518 0.960 . S
H531 C518 0.962 . S
H532 C518 0.960 . S
H533 C519 0.961 . S
H534 C519 0.961 . S
H535 C519 0.961 . S
H536 C520 0.931 . S
H537 C525 0.930 . S
H538 C526 0.956 . S
H539 C526 0.961 . S
H540 C526 0.961 . S
H541 C527 0.958 . S
H542 C527 0.961 . S
H543 C527 0.960 . S
C161 C55 1.601 . S
C169 C6 1.581 . S
C193 C89 2.101 . S
C201 C138 2.117 . S
C225 C15 1.580 . S
C233 C46 1.589 . S
C257 C129 2.102 . S
C265 C98 2.116 . S
C289 C130 1.052 . S
C297 C9 1.051 . S
C321 C59 1.590 . S
C329 C86 1.582 . S
C353 C58 1.010 . S
C361 C99 1.074 . S
C385 C135 1.589 . S
C393 C10 1.587 . S
C417 C49 0.971 . S
C425 C90 1.082 . S
C449 C126 1.589 . S
C457 C19 1.588 . S
C481 C139 1.072 . S
C489 C18 1.020 . S
C513 C95 1.581 . S
C521 C50 1.585 . S
