# Generated by pormake.
# Topology whv, (6)-cn, num edge types: 1
# Building blocks:
#     Node 0, Type 0, BuildingBlock: VOLQOD_clean_sbu_1, # of connection points: 6
#     Node 1, Type 0, BuildingBlock: VOLQOD_clean_sbu_1, # of connection points: 6
#     Node 2, Type 0, BuildingBlock: VOLQOD_clean_sbu_1, # of connection points: 6
#     Node 3, Type 0, BuildingBlock: VOLQOD_clean_sbu_1, # of connection points: 6
#     Node 4, Type 0, BuildingBlock: VOLQOD_clean_sbu_1, # of connection points: 6
#     Node 5, Type 0, BuildingBlock: VOLQOD_clean_sbu_1, # of connection points: 6
#     Node 6, Type 0, BuildingBlock: VOLQOD_clean_sbu_1, # of connection points: 6
#     Node 7, Type 0, BuildingBlock: VOLQOD_clean_sbu_1, # of connection points: 6
#     Node 8, Type 0, BuildingBlock: VOLQOD_clean_sbu_1, # of connection points: 6
#     Node 9, Type 0, BuildingBlock: VOLQOD_clean_sbu_1, # of connection points: 6
#     Node 10, Type 0, BuildingBlock: VOLQOD_clean_sbu_1, # of connection points: 6
#     Node 11, Type 0, BuildingBlock: VOLQOD_clean_sbu_1, # of connection points: 6
#     Node 12, Type 0, BuildingBlock: VOLQOD_clean_sbu_1, # of connection points: 6
#     Node 13, Type 0, BuildingBlock: VOLQOD_clean_sbu_1, # of connection points: 6
#     Node 14, Type 0, BuildingBlock: VOLQOD_clean_sbu_1, # of connection points: 6
#     Node 15, Type 0, BuildingBlock: VOLQOD_clean_sbu_1, # of connection points: 6
#     Edge 16, Type (0, 0), BuildingBlock: AJUNOK_clean_linker_0, # of connection points: 2
#     Edge 17, Type (0, 0), BuildingBlock: AJUNOK_clean_linker_0, # of connection points: 2
#     Edge 18, Type (0, 0), BuildingBlock: AJUNOK_clean_linker_0, # of connection points: 2
#     Edge 19, Type (0, 0), BuildingBlock: AJUNOK_clean_linker_0, # of connection points: 2
#     Edge 20, Type (0, 0), BuildingBlock: AJUNOK_clean_linker_0, # of connection points: 2
#     Edge 21, Type (0, 0), BuildingBlock: AJUNOK_clean_linker_0, # of connection points: 2
#     Edge 22, Type (0, 0), BuildingBlock: AJUNOK_clean_linker_0, # of connection points: 2
#     Edge 23, Type (0, 0), BuildingBlock: AJUNOK_clean_linker_0, # of connection points: 2
#     Edge 24, Type (0, 0), BuildingBlock: AJUNOK_clean_linker_0, # of connection points: 2
#     Edge 25, Type (0, 0), BuildingBlock: AJUNOK_clean_linker_0, # of connection points: 2
#     Edge 26, Type (0, 0), BuildingBlock: AJUNOK_clean_linker_0, # of connection points: 2
#     Edge 27, Type (0, 0), BuildingBlock: AJUNOK_clean_linker_0, # of connection points: 2
#     Edge 28, Type (0, 0), BuildingBlock: AJUNOK_clean_linker_0, # of connection points: 2
#     Edge 29, Type (0, 0), BuildingBlock: AJUNOK_clean_linker_0, # of connection points: 2
#     Edge 30, Type (0, 0), BuildingBlock: AJUNOK_clean_linker_0, # of connection points: 2
#     Edge 31, Type (0, 0), BuildingBlock: AJUNOK_clean_linker_0, # of connection points: 2
#     Edge 32, Type (0, 0), BuildingBlock: AJUNOK_clean_linker_0, # of connection points: 2
#     Edge 33, Type (0, 0), BuildingBlock: AJUNOK_clean_linker_0, # of connection points: 2
#     Edge 34, Type (0, 0), BuildingBlock: AJUNOK_clean_linker_0, # of connection points: 2
#     Edge 35, Type (0, 0), BuildingBlock: AJUNOK_clean_linker_0, # of connection points: 2
#     Edge 36, Type (0, 0), BuildingBlock: AJUNOK_clean_linker_0, # of connection points: 2
#     Edge 37, Type (0, 0), BuildingBlock: AJUNOK_clean_linker_0, # of connection points: 2
#     Edge 38, Type (0, 0), BuildingBlock: AJUNOK_clean_linker_0, # of connection points: 2
#     Edge 39, Type (0, 0), BuildingBlock: AJUNOK_clean_linker_0, # of connection points: 2
#     Edge 40, Type (0, 0), BuildingBlock: AJUNOK_clean_linker_0, # of connection points: 2
#     Edge 41, Type (0, 0), BuildingBlock: AJUNOK_clean_linker_0, # of connection points: 2
#     Edge 42, Type (0, 0), BuildingBlock: AJUNOK_clean_linker_0, # of connection points: 2
#     Edge 43, Type (0, 0), BuildingBlock: AJUNOK_clean_linker_0, # of connection points: 2
#     Edge 44, Type (0, 0), BuildingBlock: AJUNOK_clean_linker_0, # of connection points: 2
#     Edge 45, Type (0, 0), BuildingBlock: AJUNOK_clean_linker_0, # of connection points: 2
#     Edge 46, Type (0, 0), BuildingBlock: AJUNOK_clean_linker_0, # of connection points: 2
#     Edge 47, Type (0, 0), BuildingBlock: AJUNOK_clean_linker_0, # of connection points: 2
#     Edge 48, Type (0, 0), BuildingBlock: AJUNOK_clean_linker_0, # of connection points: 2
#     Edge 49, Type (0, 0), BuildingBlock: AJUNOK_clean_linker_0, # of connection points: 2
#     Edge 50, Type (0, 0), BuildingBlock: AJUNOK_clean_linker_0, # of connection points: 2
#     Edge 51, Type (0, 0), BuildingBlock: AJUNOK_clean_linker_0, # of connection points: 2
#     Edge 52, Type (0, 0), BuildingBlock: AJUNOK_clean_linker_0, # of connection points: 2
#     Edge 53, Type (0, 0), BuildingBlock: AJUNOK_clean_linker_0, # of connection points: 2
#     Edge 54, Type (0, 0), BuildingBlock: AJUNOK_clean_linker_0, # of connection points: 2
#     Edge 55, Type (0, 0), BuildingBlock: AJUNOK_clean_linker_0, # of connection points: 2
#     Edge 56, Type (0, 0), BuildingBlock: AJUNOK_clean_linker_0, # of connection points: 2
#     Edge 57, Type (0, 0), BuildingBlock: AJUNOK_clean_linker_0, # of connection points: 2
#     Edge 58, Type (0, 0), BuildingBlock: AJUNOK_clean_linker_0, # of connection points: 2
#     Edge 59, Type (0, 0), BuildingBlock: AJUNOK_clean_linker_0, # of connection points: 2
#     Edge 60, Type (0, 0), BuildingBlock: AJUNOK_clean_linker_0, # of connection points: 2
#     Edge 61, Type (0, 0), BuildingBlock: AJUNOK_clean_linker_0, # of connection points: 2
#     Edge 62, Type (0, 0), BuildingBlock: AJUNOK_clean_linker_0, # of connection points: 2
#     Edge 63, Type (0, 0), BuildingBlock: AJUNOK_clean_linker_0, # of connection points: 2
# Relax obj value: 0.299
# Max RMSD: 0.250
# Mean RMSD: 0.250
data_MOF--net-whv--node1-VOLQOD_clean_sbu_1--edge1-AJUNOK_clean_linker_0
_symmetry_space_group_name_H-M    P1
_symmetry_Int_Tables_number       1
_symmetry_cell_setting            triclinic
loop_
_symmetry_equiv_pos_as_xyz
'x, y, z'
_cell_length_a     41.319813
_cell_length_b     41.405431
_cell_length_c     20.839801
_cell_angle_alpha  90.050705
_cell_angle_beta   90.021595
_cell_angle_gamma 89.989071
loop_
_atom_site_label
_atom_site_type_symbol
_atom_site_fract_x
_atom_site_fract_y
_atom_site_fract_z
_atom_type_partial_charge
O0 O 0.29948 0.20258 0.88534 0.0
Zn1 Zn 0.31225 0.16715 0.9412 0.0
O2 O 0.31843 0.18534 0.02493 0.0
Zn3 Zn 0.36387 0.18221 0.04574 0.0
Zn4 Zn 0.30129 0.22814 0.02997 0.0
Zn5 Zn 0.29122 0.16206 0.08101 0.0
O6 O 0.36864 0.14352 0.10978 0.0
O7 O 0.31748 0.12557 0.11167 0.0
O8 O 0.3526 0.15012 0.89856 0.0
O9 O 0.3891 0.16945 0.96614 0.0
O10 O 0.38198 0.22839 0.06095 0.0
O11 O 0.33884 0.25682 0.02988 0.0
O12 O 0.27725 0.23737 0.11257 0.0
O13 O 0.27331 0.13786 0.93748 0.0
O14 O 0.27739 0.18876 0.15628 0.0
O15 O 0.25154 0.14698 0.0332 0.0
C16 C 0.28286 0.22793 0.8939 0.0
C17 C 0.34747 0.12177 0.12361 0.0
C18 C 0.36861 0.25518 0.04461 0.0
C19 C 0.38191 0.15652 0.91252 0.0
C20 C 0.27154 0.21886 0.16003 0.0
C21 C 0.24939 0.1363 0.97603 0.0
O22 O 0.27634 0.2387 0.94978 0.0
O23 O 0.5455 0.55068 0.13266 0.0
Zn24 Zn 0.58061 0.55974 0.19238 0.0
O25 O 0.56174 0.56499 0.27568 0.0
Zn26 Zn 0.56179 0.61033 0.29443 0.0
Zn27 Zn 0.5196 0.54614 0.27466 0.0
Zn28 Zn 0.58504 0.53923 0.33553 0.0
O29 O 0.59868 0.61762 0.36089 0.0
O30 O 0.61844 0.56755 0.37399 0.0
O31 O 0.60067 0.59981 0.15323 0.0
O32 O 0.57488 0.63485 0.21506 0.0
O33 O 0.51452 0.62629 0.30611 0.0
O34 O 0.48875 0.58203 0.27255 0.0
O35 O 0.5092 0.52145 0.35532 0.0
O36 O 0.60576 0.51824 0.18814 0.0
O37 O 0.55598 0.52383 0.40661 0.0
O38 O 0.60319 0.50024 0.28876 0.0
C39 C 0.52316 0.52998 0.13821 0.0
C40 C 0.61994 0.59793 0.38347 0.0
C41 C 0.48862 0.61166 0.28827 0.0
C42 C 0.59078 0.62845 0.16435 0.0
C43 C 0.52602 0.51669 0.40561 0.0
C44 C 0.60995 0.49599 0.22961 0.0
O45 O 0.51275 0.52111 0.19304 0.0
O46 O 0.19789 0.79789 0.38149 0.0
Zn47 Zn 0.18358 0.83082 0.44235 0.0
O48 O 0.17883 0.80967 0.52406 0.0
Zn49 Zn 0.13364 0.8091 0.54504 0.0
Zn50 Zn 0.19768 0.76752 0.52287 0.0
Zn51 Zn 0.20463 0.83244 0.58446 0.0
O52 O 0.12634 0.84488 0.61273 0.0
O53 O 0.17618 0.86568 0.62347 0.0
O54 O 0.14177 0.84729 0.40242 0.0
O55 O 0.10767 0.82296 0.46825 0.0
O56 O 0.11804 0.76198 0.55557 0.0
O57 O 0.16184 0.73646 0.51897 0.0
O58 O 0.22234 0.75679 0.60357 0.0
O59 O 0.2218 0.86124 0.44237 0.0
O60 O 0.22026 0.80346 0.65495 0.0
O61 O 0.24344 0.8508 0.53782 0.0
C62 C 0.21588 0.77326 0.3871 0.0
C63 C 0.14581 0.86655 0.63425 0.0
C64 C 0.13227 0.73635 0.53543 0.0
C65 C 0.11313 0.83826 0.41651 0.0
C66 C 0.2273 0.77356 0.65384 0.0
C67 C 0.24562 0.86246 0.48137 0.0
O68 O 0.22276 0.7611 0.44163 0.0
O69 O 0.95644 0.44058 0.63342 0.0
Zn70 Zn 0.91853 0.43385 0.68838 0.0
O71 O 0.9339 0.4275 0.77398 0.0
Zn72 Zn 0.93202 0.38245 0.79433 0.0
Zn73 Zn 0.97619 0.44531 0.77595 0.0
Zn74 Zn 0.91068 0.45392 0.83178 0.0
O75 O 0.89431 0.37656 0.86091 0.0
O76 O 0.8751 0.4271 0.86454 0.0
O77 O 0.89757 0.39459 0.64784 0.0
O78 O 0.91869 0.35842 0.71425 0.0
O79 O 0.97899 0.36546 0.8068 0.0
O80 O 0.00597 0.40876 0.77176 0.0
O81 O 0.98643 0.46755 0.85847 0.0
O82 O 0.89509 0.47673 0.68274 0.0
O83 O 0.93869 0.46762 0.90627 0.0
O84 O 0.89454 0.49319 0.78463 0.0
C85 C 0.97642 0.46334 0.64222 0.0
C86 C 0.87233 0.39712 0.87704 0.0
C87 C 0.00524 0.37926 0.78832 0.0
C88 C 0.90495 0.36546 0.66136 0.0
C89 C 0.96907 0.47278 0.90769 0.0
C90 C 0.88948 0.49831 0.72514 0.0
O91 O 0.98356 0.47306 0.69845 0.0
O92 O 0.70098 0.79957 0.17474 0.0
Zn93 Zn 0.68482 0.83208 0.11421 0.0
O94 O 0.67879 0.81045 0.03297 0.0
Zn95 Zn 0.63378 0.81074 0.00967 0.0
Zn96 Zn 0.69755 0.76853 0.0327 0.0
Zn97 Zn 0.70452 0.83232 0.97261 0.0
O98 O 0.62749 0.84767 0.94226 0.0
O99 O 0.6777 0.86799 0.94044 0.0
O100 O 0.64245 0.84728 0.15517 0.0
O101 O 0.60816 0.82457 0.08695 0.0
O102 O 0.61764 0.76336 -0.00124 0.0
O103 O 0.66164 0.73807 0.03497 0.0
O104 O 0.72204 0.75774 0.95198 0.0
O105 O 0.72304 0.8632 0.11115 0.0
O106 O 0.71758 0.80375 0.89919 0.0
O107 O 0.7443 0.84811 0.01777 0.0
C108 C 0.71762 0.77403 0.16815 0.0
C109 C 0.64766 0.87018 0.92743 0.0
C110 C 0.63208 0.73773 0.01855 0.0
C111 C 0.6137 0.83885 0.13992 0.0
C112 C 0.72542 0.77404 0.9007 0.0
C113 C 0.74706 0.86145 0.07258 0.0
O114 O 0.72229 0.76104 0.11348 0.0
O115 O 0.44659 0.45249 0.91974 0.0
Zn116 Zn 0.41375 0.43346 0.86417 0.0
O117 O 0.43359 0.42705 0.78146 0.0
Zn118 Zn 0.43368 0.38147 0.76316 0.0
Zn119 Zn 0.47578 0.44598 0.77732 0.0
Zn120 Zn 0.40946 0.45209 0.72206 0.0
O121 O 0.39619 0.37354 0.69829 0.0
O122 O 0.37551 0.42334 0.68668 0.0
O123 O 0.40106 0.39222 0.91063 0.0
O124 O 0.4221 0.35669 0.84309 0.0
O125 O 0.4809 0.36571 0.75008 0.0
O126 O 0.50672 0.41021 0.78209 0.0
O127 O 0.48503 0.46848 0.69324 0.0
O128 O 0.38068 0.46935 0.86304 0.0
O129 O 0.43671 0.4666 0.64807 0.0
O130 O 0.39218 0.49143 0.76871 0.0
C131 C 0.47128 0.47004 0.91055 0.0
C132 C 0.37431 0.39294 0.67708 0.0
C133 C 0.5068 0.38042 0.76758 0.0
C134 C 0.40941 0.36335 0.89709 0.0
C135 C 0.46675 0.473 0.64487 0.0
C136 C 0.38011 0.49346 0.82488 0.0
O137 O 0.48376 0.47346 0.85503 0.0
O138 O 0.79771 0.19559 0.67725 0.0
Zn139 Zn 0.81146 0.16233 0.61637 0.0
O140 O 0.81672 0.18349 0.53487 0.0
Zn141 Zn 0.86156 0.18289 0.51085 0.0
Zn142 Zn 0.7977 0.22531 0.53477 0.0
Zn143 Zn 0.79046 0.16128 0.47604 0.0
O144 O 0.86712 0.14582 0.44355 0.0
O145 O 0.81688 0.12559 0.44341 0.0
O146 O 0.85353 0.14583 0.65519 0.0
O147 O 0.88774 0.16913 0.58775 0.0
O148 O 0.87749 0.23015 0.49844 0.0
O149 O 0.83364 0.25585 0.53437 0.0
O150 O 0.77197 0.23532 0.45499 0.0
O151 O 0.77243 0.13238 0.61643 0.0
O152 O 0.77682 0.18919 0.4026 0.0
O153 O 0.75095 0.14599 0.52242 0.0
C154 C 0.7806 0.22084 0.67157 0.0
C155 C 0.84679 0.12333 0.42938 0.0
C156 C 0.86312 0.256 0.51734 0.0
C157 C 0.88225 0.15435 0.64016 0.0
C158 C 0.7684 0.21872 0.40404 0.0
C159 C 0.74832 0.13361 0.57804 0.0
O160 O 0.77399 0.23307 0.61699 0.0
O161 O 0.03531 0.55176 0.42113 0.0
Zn162 Zn 0.07402 0.5578 0.3682 0.0
O163 O 0.05942 0.5627 0.28162 0.0
Zn164 Zn 0.06095 0.60737 0.25837 0.0
Zn165 Zn 0.01715 0.54443 0.27781 0.0
Zn166 Zn 0.08425 0.53631 0.22674 0.0
O167 O 0.09789 0.61311 0.19088 0.0
O168 O 0.11964 0.56364 0.19428 0.0
O169 O 0.0947 0.59798 0.40674 0.0
O170 O 0.07563 0.6327 0.33533 0.0
O171 O 0.01394 0.62424 0.24779 0.0
O172 O 0.98672 0.58073 0.28063 0.0
O173 O 0.00866 0.52087 0.19533 0.0
O174 O 0.09775 0.51506 0.37754 0.0
O175 O 0.05758 0.52085 0.15211 0.0
O176 O 0.10056 0.49799 0.27628 0.0
C177 C 0.01476 0.52945 0.41281 0.0
C178 C 0.12111 0.59332 0.17848 0.0
C179 C 0.98761 0.61045 0.26585 0.0
C180 C 0.0889 0.62694 0.38923 0.0
C181 C 0.0274 0.51495 0.14831 0.0
C182 C 0.1046 0.49329 0.33619 0.0
O183 O 0.00888 0.5181 0.35712 0.0
O184 O 0.79727 0.69989 0.38622 0.0
Zn185 Zn 0.80923 0.66401 0.44181 0.0
O186 O 0.81501 0.6815 0.52628 0.0
Zn187 Zn 0.86043 0.68224 0.54438 0.0
Zn188 Zn 0.79554 0.72339 0.5295 0.0
Zn189 Zn 0.79059 0.65662 0.5855 0.0
O190 O 0.86942 0.64642 0.61125 0.0
O191 O 0.82035 0.62376 0.62121 0.0
O192 O 0.84989 0.6459 0.39951 0.0
O193 O 0.88498 0.66827 0.4662 0.0
O194 O 0.87585 0.72953 0.55311 0.0
O195 O 0.83084 0.75493 0.52225 0.0
O196 O 0.77321 0.73233 0.61361 0.0
O197 O 0.76847 0.63733 0.43804 0.0
O198 O 0.77528 0.68409 0.65888 0.0
O199 O 0.75159 0.63802 0.53954 0.0
C200 C 0.77524 0.72066 0.39565 0.0
C201 C 0.85075 0.62384 0.63176 0.0
C202 C 0.86089 0.75513 0.53498 0.0
C203 C 0.87887 0.65381 0.41376 0.0
C204 C 0.76866 0.71406 0.6619 0.0
C205 C 0.74683 0.6318 0.4803 0.0
O206 O 0.76743 0.72999 0.45188 0.0
O207 O 0.03979 0.04747 0.63725 0.0
Zn208 Zn 0.07775 0.05601 0.69053 0.0
O209 O 0.0625 0.063 0.77599 0.0
Zn210 Zn 0.06438 0.10837 0.79452 0.0
Zn211 Zn 0.02007 0.04536 0.78167 0.0
Zn212 Zn 0.08712 0.03762 0.83335 0.0
O213 O 0.10201 0.11554 0.85986 0.0
O214 O 0.12265 0.06552 0.86247 0.0
O215 O 0.09814 0.09516 0.6482 0.0
O216 O 0.07817 0.13194 0.71461 0.0
O217 O 0.01777 0.12591 0.80547 0.0
O218 O 0.99006 0.08198 0.77656 0.0
O219 O 0.01176 0.02337 0.86589 0.0
O220 O 0.10208 0.01378 0.68539 0.0
O221 O 0.06056 0.02425 0.90962 0.0
O222 O 0.10347 -0.00204 0.78748 0.0
C223 C 0.01806 0.02651 0.64771 0.0
C224 C 0.12487 0.09565 0.87397 0.0
C225 C 0.99127 0.112 0.78884 0.0
C226 C 0.09185 0.12453 0.66189 0.0
C227 C 0.03036 0.01854 0.91365 0.0
C228 C 0.10829 0.99255 0.72802 0.0
O229 O 0.01083 0.01775 0.70454 0.0
O230 O 0.70302 0.29729 0.88931 0.0
Zn231 Zn 0.68644 0.33107 0.94583 0.0
O232 O 0.67931 0.31109 0.02789 0.0
Zn233 Zn 0.63362 0.31117 0.04483 0.0
Zn234 Zn 0.69821 0.269 0.03186 0.0
Zn235 Zn 0.70408 0.33467 0.08818 0.0
O236 O 0.62577 0.34783 0.11107 0.0
O237 O 0.6755 0.36894 0.1224 0.0
O238 O 0.64573 0.34664 0.90098 0.0
O239 O 0.60926 0.32452 0.96512 0.0
O240 O 0.61755 0.26403 0.05571 0.0
O241 O 0.66236 0.23814 0.02543 0.0
O242 O 0.72043 0.25943 0.1162 0.0
O243 O 0.72422 0.36211 0.94728 0.0
O244 O 0.71736 0.30736 0.16237 0.0
O245 O 0.74442 0.35067 0.0435 0.0
C246 C 0.72121 0.27307 0.89869 0.0
C247 C 0.64503 0.36991 0.13194 0.0
C248 C 0.63231 0.23817 0.03822 0.0
C249 C 0.61652 0.33879 0.91301 0.0
C250 C 0.72413 0.27748 0.16518 0.0
C251 C 0.74769 0.36209 0.98712 0.0
O252 O 0.726 0.26145 0.95452 0.0
O253 O 0.44509 0.95043 0.13273 0.0
Zn254 Zn 0.41209 0.93395 0.19128 0.0
O255 O 0.43256 0.92804 0.27339 0.0
Zn256 Zn 0.43098 0.88295 0.29525 0.0
Zn257 Zn 0.47491 0.94604 0.27498 0.0
Zn258 Zn 0.41033 0.95488 0.33198 0.0
O259 O 0.39307 0.87771 0.36142 0.0
O260 O 0.37423 0.92849 0.36384 0.0
O261 O 0.39715 0.89237 0.14851 0.0
O262 O 0.41783 0.85704 0.21684 0.0
O263 O 0.47814 0.86647 0.30753 0.0
O264 O 0.50484 0.90954 0.27064 0.0
O265 O 0.48549 0.9692 0.35732 0.0
O266 O 0.38064 0.9715 0.19226 0.0
O267 O 0.43818 0.96839 0.40654 0.0
O268 O 0.39504 0.99438 0.2844 0.0
C269 C 0.46972 0.96823 0.14094 0.0
C270 C 0.37107 0.89852 0.37608 0.0
C271 C 0.5042 0.88008 0.28741 0.0
C272 C 0.40449 0.86337 0.16319 0.0
C273 C 0.46841 0.97429 0.40708 0.0
C274 C 0.38188 0.99612 0.22921 0.0
O275 O 0.48226 0.97264 0.19614 0.0
O276 O 0.19355 0.28917 0.67455 0.0
Zn277 Zn 0.18457 0.32591 0.61844 0.0
O278 O 0.17875 0.30935 0.53358 0.0
Zn279 Zn 0.13322 0.30841 0.51698 0.0
Zn280 Zn 0.19871 0.26801 0.53202 0.0
Zn281 Zn 0.20355 0.33389 0.4742 0.0
O282 O 0.12431 0.34538 0.45211 0.0
O283 O 0.17375 0.36694 0.43914 0.0
O284 O 0.14461 0.34563 0.65919 0.0
O285 O 0.10887 0.3209 0.5971 0.0
O286 O 0.11863 0.26093 0.50442 0.0
O287 O 0.16375 0.23609 0.53674 0.0
O288 O 0.2218 0.25889 0.44946 0.0
O289 O 0.22646 0.35081 0.62305 0.0
O290 O 0.2191 0.30617 0.40055 0.0
O291 O 0.24254 0.35228 0.52099 0.0
C292 C 0.21719 0.27016 0.6662 0.0
C293 C 0.14318 0.36759 0.43061 0.0
C294 C 0.13397 0.23537 0.52159 0.0
C295 C 0.11566 0.33652 0.64799 0.0
C296 C 0.22616 0.27623 0.39988 0.0
C297 C 0.24777 0.35722 0.5806 0.0
O298 O 0.22669 0.26257 0.61002 0.0
O299 O 0.94379 0.94824 0.42483 0.0
Zn300 Zn 0.91079 0.93496 0.36285 0.0
O301 O 0.93252 0.9295 0.28195 0.0
Zn302 Zn 0.9313 0.88502 0.25732 0.0
Zn303 Zn 0.9749 0.94746 0.28373 0.0
Zn304 Zn 0.91108 0.95598 0.22256 0.0
O305 O 0.89479 0.87998 0.18876 0.0
O306 O 0.87473 0.9302 0.18906 0.0
O307 O 0.89322 0.89329 0.40118 0.0
O308 O 0.91621 0.85924 0.33308 0.0
O309 O 0.97834 0.86804 0.24798 0.0
O310 O 0.00478 0.91078 0.28706 0.0
O311 O 0.98647 0.9719 0.20332 0.0
O312 O 0.88143 0.97434 0.36188 0.0
O313 O 0.94022 0.96877 0.15033 0.0
O314 O 0.89648 0.99581 0.26875 0.0
C315 C 0.96883 0.96572 0.41957 0.0
C316 C 0.87238 0.90039 0.17457 0.0
C317 C 0.00423 0.88142 0.26946 0.0
C318 C 0.90129 0.86461 0.38538 0.0
C319 C 0.97015 0.97595 0.15215 0.0
C320 C 0.88361 -0.0015 0.32397 0.0
O321 O 0.98145 0.97229 0.36529 0.0
O322 O 0.29317 0.69736 0.16979 0.0
Zn323 Zn 0.30831 0.66255 0.11421 0.0
O324 O 0.31573 0.68169 0.03147 0.0
Zn325 Zn 0.36122 0.67939 0.01183 0.0
Zn326 Zn 0.29807 0.72417 0.02604 0.0
Zn327 Zn 0.28955 0.65863 0.97344 0.0
O328 O 0.36685 0.64116 0.9462 0.0
O329 O 0.31607 0.62208 0.94458 0.0
O330 O 0.34887 0.64627 0.15871 0.0
O331 O 0.3855 0.66571 0.09144 0.0
O332 O 0.37901 0.7263 0.00134 0.0
O333 O 0.33491 0.75378 0.03054 0.0
O334 O 0.27577 0.73346 0.94165 0.0
O335 O 0.26954 0.63246 0.11423 0.0
O336 O 0.27739 0.68508 0.89702 0.0
O337 O 0.24894 0.64448 0.01871 0.0
C338 C 0.27581 0.72212 0.15988 0.0
C339 C 0.34611 0.61893 0.93245 0.0
C340 C 0.36493 0.75275 0.01777 0.0
C341 C 0.37823 0.6527 0.14485 0.0
C342 C 0.27137 0.71512 0.89332 0.0
C343 C 0.24582 0.63291 0.07494 0.0
O344 O 0.27099 0.73336 0.10374 0.0
O345 O 0.54657 0.04469 0.92125 0.0
Zn346 Zn 0.58113 0.05852 0.86407 0.0
O347 O 0.56099 0.06511 0.78184 0.0
Zn348 Zn 0.56308 0.11028 0.76095 0.0
Zn349 Zn 0.51825 0.04758 0.77787 0.0
Zn350 Zn 0.58408 0.03907 0.72378 0.0
O351 O 0.60074 0.11596 0.69544 0.0
O352 O 0.62061 0.06562 0.69366 0.0
O353 O 0.59786 0.09946 0.90679 0.0
O354 O 0.57631 0.13504 0.8399 0.0
O355 O 0.51672 0.12815 0.74798 0.0
O356 O 0.48884 0.0847 0.77864 0.0
O357 O 0.50888 0.02333 0.69526 0.0
O358 O 0.61056 0.01922 0.86487 0.0
O359 O 0.55687 0.02622 0.64875 0.0
O360 O 0.59844 -0.00123 0.76926 0.0
C361 C 0.52062 0.02879 0.91414 0.0
C362 C 0.62316 0.09562 0.68101 0.0
C363 C 0.49011 0.11446 0.76431 0.0
C364 C 0.59002 0.12844 0.89295 0.0
C365 C 0.52696 0.0191 0.64642 0.0
C366 C 0.6099 0.99553 0.82559 0.0
O367 O 0.50854 0.02312 0.8589 0.0
C368 C 0.18862 0.13818 0.97537 0.0
C369 C 0.21771 0.12487 0.95157 0.0
C370 C 0.15843 0.12966 0.94898 0.0
C371 C 0.15638 0.10708 0.89886 0.0
H372 H 0.18921 0.1558 0.0138 0.0
H373 H 0.13662 0.14026 0.9687 0.0
S374 S 0.2252 0.06542 0.81923 0.0
N375 N 0.24232 0.08831 0.87452 0.0
N376 N 0.18594 0.07197 0.82571 0.0
C377 C 0.18528 0.09364 0.87481 0.0
C378 C 0.21585 0.10259 0.90095 0.0
C379 C 0.6484 0.41294 0.21558 0.0
C380 C 0.63226 0.39952 0.16224 0.0
C381 C 0.64076 0.44399 0.23824 0.0
C382 C 0.61767 0.4631 0.20664 0.0
H383 H 0.66754 0.39954 0.23913 0.0
H384 H 0.65374 0.45349 0.27931 0.0
S385 S 0.56774 0.43873 0.06653 0.0
N386 N 0.59113 0.40715 0.08045 0.0
N387 N 0.57748 0.46584 0.12144 0.0
C388 C 0.60091 0.4497 0.15411 0.0
C389 C 0.60802 0.4178 0.1323 0.0
C390 C 0.33678 0.8668 0.45387 0.0
C391 C 0.33931 0.88843 0.40227 0.0
C392 C 0.30644 0.85964 0.48123 0.0
C393 C 0.27759 0.87341 0.45711 0.0
H394 H 0.35834 0.85583 0.47385 0.0
H395 H 0.30552 0.84254 0.52049 0.0
S396 S 0.27141 0.93085 0.32119 0.0
N397 N 0.31049 0.92324 0.32757 0.0
N398 N 0.25384 0.90946 0.37816 0.0
C399 C 0.27997 0.89486 0.40521 0.0
C400 C 0.31071 0.90242 0.37803 0.0
C401 C 0.8875 0.57624 0.6295 0.0
C402 C 0.86428 0.59474 0.66229 0.0
C403 C 0.89516 0.54482 0.64977 0.0
C404 C 0.88033 0.53117 0.70424 0.0
H405 H 0.89856 0.58543 0.58605 0.0
H406 H 0.9128 0.53111 0.62257 0.0
S407 S 0.81948 0.57068 0.80873 0.0
N408 N 0.82724 0.59772 0.75255 0.0
N409 N 0.84268 0.53923 0.79233 0.0
C410 C 0.85816 0.55002 0.73897 0.0
C411 C 0.84984 0.58165 0.71749 0.0
C412 C 0.78249 0.89777 0.13766 0.0
C413 C 0.77953 0.87187 0.09468 0.0
C414 C 0.81273 0.90677 0.16221 0.0
C415 C 0.84122 0.88977 0.14609 0.0
H416 H 0.76128 0.91122 0.15248 0.0
H417 H 0.81363 0.92695 0.1953 0.0
S418 S 0.84645 0.81938 0.03679 0.0
N419 N 0.80764 0.82898 0.03714 0.0
N420 N 0.86441 0.84558 0.08487 0.0
C421 C 0.83862 0.86361 0.10362 0.0
C422 C 0.80782 0.85481 0.07741 0.0
C423 C 0.38373 0.55416 0.82581 0.0
C424 C 0.36983 0.52547 0.85011 0.0
C425 C 0.37722 0.58447 0.85382 0.0
C426 C 0.35618 0.58714 0.90645 0.0
H427 H 0.40037 0.55315 0.7857 0.0
H428 H 0.38813 0.60591 0.83341 0.0
S429 S 0.31379 0.51972 0.98868 0.0
N430 N 0.33433 0.50206 0.93052 0.0
N431 N 0.32187 0.55862 0.98245 0.0
C432 C 0.34217 0.5587 0.93107 0.0
C433 C 0.34901 0.528 0.90312 0.0
C434 C 0.68283 0.08943 0.66983 0.0
C435 C 0.65438 0.10639 0.65337 0.0
C436 C 0.71303 0.09814 0.64486 0.0
C437 C 0.71594 0.12368 0.60113 0.0
H438 H 0.68188 0.06941 0.70324 0.0
H439 H 0.73423 0.08468 0.65973 0.0
S440 S 0.64917 0.17617 0.54278 0.0
N441 N 0.63121 0.15033 0.59152 0.0
N442 N 0.68794 0.1664 0.54303 0.0
C443 C 0.68772 0.14082 0.58385 0.0
C444 C 0.65698 0.13233 0.61047 0.0
C445 C 0.10737 0.416 0.43428 0.0
C446 C 0.1299 0.39702 0.40069 0.0
C447 C 0.09981 0.44743 0.41375 0.0
C448 C 0.11412 0.46068 0.35832 0.0
H449 H 0.09668 0.40711 0.47833 0.0
H450 H 0.08255 0.46141 0.44136 0.0
S451 S 0.17343 0.41996 0.25205 0.0
N452 N 0.16593 0.39326 0.30897 0.0
N453 N 0.15084 0.45176 0.26896 0.0
C454 C 0.1358 0.44142 0.32316 0.0
C455 C 0.14395 0.40975 0.34478 0.0
C456 C 0.66951 0.63203 0.38197 0.0
C457 C 0.64963 0.61004 0.4147 0.0
C458 C 0.70114 0.63833 0.40311 0.0
C459 C 0.7138 0.62334 0.45843 0.0
H460 H 0.66116 0.64322 0.33798 0.0
H461 H 0.71577 0.6552 0.376 0.0
S462 S 0.67068 0.56529 0.56307 0.0
N463 N 0.64438 0.57382 0.50576 0.0
N464 N 0.70335 0.58685 0.54717 0.0
C465 C 0.69367 0.60234 0.49302 0.0
C466 C 0.66174 0.59534 0.47063 0.0
C467 C 0.10899 0.91409 0.63411 0.0
C468 C 0.13313 0.89601 0.66512 0.0
C469 C 0.10149 0.94553 0.65443 0.0
C470 C 0.11737 0.95966 0.70727 0.0
H471 H 0.09699 0.90453 0.59194 0.0
H472 H 0.08307 0.95889 0.62857 0.0
S473 S 0.18092 0.92145 0.80709 0.0
N474 N 0.17222 0.89398 0.75215 0.0
N475 N 0.15704 0.95256 0.79211 0.0
C476 C 0.14052 0.94128 0.74035 0.0
C477 C 0.14871 0.90959 0.71873 0.0
C478 C 0.81337 0.40576 0.89535 0.0
C479 C 0.84131 0.38697 0.90701 0.0
C480 C 0.78342 0.39799 0.92258 0.0
C481 C 0.78019 0.37156 0.96398 0.0
H482 H 0.81444 0.42652 0.86382 0.0
H483 H 0.76258 0.41277 0.91095 0.0
S484 S 0.84518 0.31396 0.00942 0.0
N485 N 0.86341 0.34015 0.96179 0.0
N486 N 0.80708 0.32586 0.01444 0.0
C487 C 0.8078 0.35254 0.97658 0.0
C488 C 0.83832 0.3601 0.94762 0.0
C489 C 0.38707 0.05658 0.22601 0.0
C490 C 0.37172 0.02812 0.20414 0.0
C491 C 0.38011 0.0869 0.19874 0.0
C492 C 0.3571 0.08985 0.14953 0.0
H493 H 0.40516 0.05537 0.26356 0.0
H494 H 0.39232 0.10815 0.21704 0.0
S495 S 0.31044 0.02298 0.07448 0.0
N496 N 0.33283 0.0051 0.1296 0.0
N497 N 0.31942 0.06174 0.0791 0.0
C498 C 0.34161 0.06161 0.12734 0.0
C499 C 0.34897 0.03086 0.15443 0.0
C500 C 0.32564 0.35736 0.67752 0.0
C501 C 0.34471 0.38048 0.64595 0.0
C502 C 0.29412 0.35042 0.65634 0.0
C503 C 0.28081 0.36589 0.60213 0.0
H504 H 0.3345 0.34574 0.72065 0.0
H505 H 0.28007 0.33274 0.68265 0.0
S506 S 0.32188 0.42669 0.50038 0.0
N507 N 0.3486 0.41808 0.55684 0.0
N508 N 0.2899 0.40398 0.51546 0.0
C509 C 0.30021 0.38798 0.56856 0.0
C510 C 0.33199 0.39558 0.59097 0.0
C511 C 0.83934 0.06414 0.41469 0.0
C512 C 0.85736 0.09226 0.40076 0.0
C513 C 0.84773 0.03406 0.38909 0.0
C514 C 0.87409 0.03087 0.34731 0.0
H515 H 0.81869 0.0652 0.44665 0.0
H516 H 0.8334 0.01314 0.40203 0.0
S517 S 0.92971 0.0965 0.29622 0.0
N518 N 0.9033 0.11471 0.34351 0.0
N519 N 0.91884 0.05812 0.29395 0.0
C520 C 0.89236 0.05869 0.33258 0.0
C521 C 0.88413 0.08936 0.3598 0.0
C522 C 0.18084 0.58802 0.16661 0.0
C523 C 0.1521 0.60446 0.15 0.0
C524 C 0.21089 0.59709 0.14148 0.0
C525 C 0.21346 0.62253 0.09746 0.0
H526 H 0.18029 0.56814 0.20038 0.0
H527 H 0.23228 0.584 0.15661 0.0
S528 S 0.14596 0.67384 0.0385 0.0
N529 N 0.12833 0.64789 0.08751 0.0
N530 N 0.18486 0.66461 0.0388 0.0
C531 C 0.18499 0.63915 0.07988 0.0
C532 C 0.15433 0.63028 0.10664 0.0
C533 C 0.65303 0.92983 0.91859 0.0
C534 C 0.63669 0.90137 0.90009 0.0
C535 C 0.64448 0.96004 0.89377 0.0
C536 C 0.61971 0.96304 0.84817 0.0
H537 H 0.67247 0.92886 0.95346 0.0
H538 H 0.65748 0.9812 0.91028 0.0
S539 S 0.56901 0.89626 0.78401 0.0
N540 N 0.59412 0.87825 0.83428 0.0
N541 N 0.57836 0.93505 0.78603 0.0
C542 C 0.60317 0.93482 0.82883 0.0
C543 C 0.6115 0.90401 0.85531 0.0
C544 C 0.43895 0.16422 0.87341 0.0
C545 C 0.40817 0.14998 0.86518 0.0
C546 C 0.46508 0.15621 0.83329 0.0
C547 C 0.4615 0.13342 0.7838 0.0
H548 H 0.44335 0.18071 0.91284 0.0
H549 H 0.48884 0.16558 0.84504 0.0
S550 S 0.38536 0.09283 0.73538 0.0
N551 N 0.37499 0.11507 0.79791 0.0
N552 N 0.42431 0.09956 0.72391 0.0
C553 C 0.43038 0.12115 0.7716 0.0
C554 C 0.40369 0.12946 0.81197 0.0
C555 C 0.62227 0.65214 0.07258 0.0
C556 C 0.59698 0.6548 0.11733 0.0
C557 C 0.63084 0.67832 0.03338 0.0
C558 C 0.61431 0.7081 0.03689 0.0
H559 H 0.63683 0.6304 0.07044 0.0
H560 H 0.65228 0.67608 0.00375 0.0
S561 S 0.54212 0.72531 0.13651 0.0
N562 N 0.55216 0.68793 0.15539 0.0
N563 N 0.56868 0.73709 0.08215 0.0
C564 C 0.58694 0.70995 0.07649 0.0
C565 C 0.57829 0.68338 0.11685 0.0
C566 C 0.06363 0.87405 0.27927 0.0
C567 C 0.03226 0.86214 0.29084 0.0
C568 C 0.08991 0.86525 0.31838 0.0
C569 C 0.08566 0.84482 0.37173 0.0
H570 H 0.06744 0.89209 0.24238 0.0
H571 H 0.11331 0.87594 0.30863 0.0
S572 S 0.00833 0.80578 0.42025 0.0
N573 N -0.00125 0.82736 0.35648 0.0
N574 N 0.04751 0.81123 0.43104 0.0
C575 C 0.05461 0.83136 0.38152 0.0
C576 C 0.02811 0.83984 0.34073 0.0
C577 C 0.86466 0.31552 0.53073 0.0
C578 C 0.88108 0.28568 0.53462 0.0
C579 C 0.8734 0.34183 0.56954 0.0
C580 C 0.89869 0.33917 0.61429 0.0
H581 H 0.84316 0.31768 0.50124 0.0
H582 H 0.85893 0.36362 0.56734 0.0
S583 S 0.9535 0.26872 0.63383 0.0
N584 N 0.92682 0.25678 0.57976 0.0
N585 N 0.94353 0.30617 0.65244 0.0
C586 C 0.91732 0.31059 0.61401 0.0
C587 C 0.90857 0.28392 0.57397 0.0
C588 C 0.5901 0.86456 0.23924 0.0
C589 C 0.58608 0.84475 0.18482 0.0
C590 C 0.56368 0.87283 0.27845 0.0
C591 C 0.53235 0.861 0.26587 0.0
H592 H 0.61345 0.87521 0.24977 0.0
H593 H 0.56733 0.89046 0.31623 0.0
S594 S 0.50884 0.80626 0.13333 0.0
N595 N 0.5481 0.81173 0.12348 0.0
N596 N 0.49907 0.82707 0.19801 0.0
C597 C 0.52841 0.8393 0.21484 0.0
C598 C 0.55506 0.83132 0.17402 0.0
C599 C 0.37387 0.31456 0.03458 0.0
C600 C 0.38786 0.28379 0.02603 0.0
C601 C 0.38216 0.34066 0.99493 0.0
C602 C 0.40454 0.33692 0.94465 0.0
H603 H 0.35426 0.31774 0.06854 0.0
H604 H 0.36933 0.36326 0.00115 0.0
S605 S 0.45263 0.26294 0.91025 0.0
N606 N 0.4285 0.25235 0.96976 0.0
N607 N 0.44443 0.30125 0.89541 0.0
C608 C 0.42108 0.30714 0.93984 0.0
C609 C 0.41279 0.28066 0.98074 0.0
C610 C 0.90555 0.12749 0.73826 0.0
C611 C 0.90976 0.14791 0.68489 0.0
C612 C 0.9318 0.11883 0.77753 0.0
C613 C 0.96316 0.1308 0.76601 0.0
H614 H 0.88217 0.11673 0.74799 0.0
H615 H 0.92796 0.10092 0.81464 0.0
S616 S 0.98698 0.18735 0.63682 0.0
N617 N 0.94779 0.18183 0.62595 0.0
N618 N 0.99662 0.1657 0.70044 0.0
C619 C 0.96729 0.15309 0.71605 0.0
C620 C 0.94077 0.16152 0.67523 0.0
C621 C 0.11621 0.65047 0.48694 0.0
C622 C 0.09615 0.6546 0.43289 0.0
C623 C 0.12518 0.67689 0.5255 0.0
C624 C 0.11358 0.70823 0.51281 0.0
H625 H 0.12642 0.627 0.49773 0.0
H626 H 0.14285 0.67315 0.56319 0.0
S627 S 0.05894 0.73205 0.38018 0.0
N628 N 0.06385 0.69278 0.37087 0.0
N629 N 0.08001 0.74172 0.44464 0.0
C630 C 0.09187 0.71234 0.46178 0.0
C631 C 0.0834 0.68575 0.42144 0.0
C632 C 0.90181 0.62636 0.31566 0.0
C633 C 0.90612 0.64706 0.36861 0.0
C634 C 0.92806 0.61741 0.27656 0.0
C635 C 0.95945 0.62946 0.28775 0.0
H636 H 0.8784 0.61557 0.30631 0.0
H637 H 0.92422 0.59922 0.23993 0.0
S638 S 0.98345 0.68652 0.41615 0.0
N639 N 0.94431 0.68101 0.42718 0.0
N640 N 0.99297 0.66468 0.35266 0.0
C641 C 0.96362 0.65203 0.33725 0.0
C642 C 0.93717 0.66062 0.37803 0.0
C643 C 0.09109 0.20733 0.58303 0.0
C644 C 0.11672 0.20543 0.53904 0.0
C645 C 0.08265 0.18065 0.62094 0.0
C646 C 0.09918 0.1509 0.61567 0.0
H647 H 0.07947 0.23031 0.59255 0.0
H648 H 0.06386 0.18384 0.6566 0.0
S649 S 0.16481 0.13236 0.49996 0.0
N650 N 0.15625 0.17078 0.48707 0.0
N651 N 0.13982 0.12033 0.55699 0.0
C652 C 0.12286 0.14794 0.56761 0.0
C653 C 0.13172 0.17526 0.5296 0.0
C654 C 0.56019 0.3296 0.87123 0.0
C655 C 0.59028 0.34558 0.86576 0.0
C656 C 0.53376 0.33788 0.83211 0.0
C657 C 0.53633 0.36264 0.78639 0.0
H658 H 0.55653 0.31143 0.90789 0.0
H659 H 0.51048 0.32688 0.84185 0.0
S660 S 0.61052 0.40872 0.74599 0.0
N661 N 0.62182 0.38465 0.80503 0.0
N662 N 0.57199 0.40052 0.73267 0.0
C663 C 0.56686 0.37688 0.77674 0.0
C664 C 0.59385 0.36833 0.81615 0.0
C665 C 0.40543 0.77907 0.08842 0.0
C666 C 0.38333 0.78176 0.03748 0.0
C667 C 0.4128 0.8058 0.12749 0.0
C668 C 0.39855 0.83638 0.11691 0.0
H669 H 0.4148 0.75559 0.10192 0.0
H670 H 0.42881 0.80204 0.16797 0.0
S671 S 0.3428 0.85683 0.98316 0.0
N672 N 0.34992 0.81785 0.97413 0.0
N673 N 0.3642 0.86821 0.04618 0.0
C674 C 0.3786 0.83988 0.06254 0.0
C675 C 0.37095 0.81259 0.02319 0.0
C676 C 0.05887 0.32781 0.68737 0.0
C677 C 0.0891 0.34338 0.69452 0.0
C678 C 0.03212 0.33623 0.72544 0.0
C679 C 0.03454 0.36067 0.77186 0.0
H680 H 0.05529 0.30994 0.65003 0.0
H681 H 0.00878 0.32573 0.71419 0.0
S682 S 0.10894 0.40516 0.81759 0.0
N683 N 0.12057 0.3814 0.75822 0.0
N684 N 0.07013 0.3975 0.8287 0.0
C685 C 0.06518 0.37429 0.78357 0.0
C686 C 0.09248 0.36566 0.74512 0.0
C687 C 0.86657 0.81463 0.52293 0.0
C688 C 0.87874 0.78346 0.5107 0.0
C689 C 0.87476 0.84097 0.48364 0.0
C690 C 0.8947 0.83695 0.4294 0.0
H691 H 0.84907 0.81828 0.56097 0.0
H692 H 0.86413 0.86428 0.49422 0.0
S693 S 0.93332 0.75999 0.37768 0.0
N694 N 0.9127 0.75025 0.44263 0.0
N695 N 0.92755 0.79908 0.36767 0.0
C696 C 0.90806 0.80601 0.41839 0.0
C697 C 0.90029 0.77948 0.45937 0.0
C698 C 0.4347 0.66207 0.18539 0.0
C699 C 0.40466 0.6461 0.19175 0.0
C700 C 0.46132 0.65403 0.22418 0.0
C701 C 0.459 0.62948 0.27038 0.0
H702 H 0.43816 0.68006 0.14831 0.0
H703 H 0.48455 0.66497 0.21373 0.0
S704 S 0.38506 0.58351 0.31301 0.0
N705 N 0.37343 0.60733 0.25379 0.0
N706 N 0.42365 0.59179 0.32544 0.0
C707 C 0.42853 0.61527 0.28092 0.0
C708 C 0.40133 0.62362 0.24189 0.0
C709 C 0.62108 0.15224 0.98524 0.0
C710 C 0.59638 0.15513 0.93922 0.0
C711 C 0.63012 0.17864 0.02356 0.0
C712 C 0.61451 0.20881 0.01815 0.0
H713 H 0.63488 0.13007 0.98905 0.0
H714 H 0.65108 0.17608 0.05444 0.0
S715 S 0.54435 0.22732 0.9136 0.0
N716 N 0.55335 0.18936 0.89696 0.0
N717 N 0.57052 0.23879 0.96903 0.0
C718 C 0.58775 0.2111 0.97692 0.0
C719 C 0.57874 0.18436 0.93725 0.0
C720 C 0.25743 0.2665 0.22916 0.0
C721 C 0.25928 0.23275 0.22126 0.0
C722 C 0.24702 0.2803 0.28707 0.0
C723 C 0.23806 0.26097 0.33969 0.0
H724 H 0.26431 0.28254 0.19048 0.0
H725 H 0.24609 0.30639 0.29051 0.0
S726 S 0.23719 0.17118 0.3434 0.0
N727 N 0.25034 0.18027 0.2709 0.0
N728 N 0.23088 0.20611 0.37939 0.0
C729 C 0.23956 0.22714 0.33237 0.0
C730 C 0.2501 0.21309 0.27334 0.0
C731 C 0.51434 0.49087 0.57924 0.0
C732 C 0.48095 0.48439 0.58326 0.0
C733 C 0.52864 0.50072 0.52153 0.0
C734 C 0.51026 0.50454 0.46512 0.0
H735 H 0.52972 0.48831 0.621 0.0
H736 H 0.55441 0.50558 0.52152 0.0
S737 S 0.42176 0.49032 0.44927 0.0
N738 N 0.4298 0.48227 0.52513 0.0
N739 N 0.45666 0.50077 0.41695 0.0
C740 C 0.47681 0.49799 0.46824 0.0
C741 C 0.46221 0.48797 0.52714 0.0
C742 C 0.24644 0.77686 0.76773 0.0
C743 C 0.23967 0.75791 0.71319 0.0
C744 C 0.25646 0.76282 0.82553 0.0
C745 C 0.26017 0.72916 0.8315 0.0
H746 H 0.24382 0.80288 0.76614 0.0
H747 H 0.26136 0.77862 0.86582 0.0
S748 S 0.24553 0.66847 0.70309 0.0
N749 N 0.23746 0.7035 0.66895 0.0
N750 N 0.25627 0.67711 0.7774 0.0
C751 C 0.25365 0.70985 0.77724 0.0
C752 C 0.24346 0.72419 0.71824 0.0
C753 C 0.97956 0.5034 0.07827 0.0
C754 C 0.01336 0.503 0.08715 0.0
C755 C 0.96554 0.49385 0.0201 0.0
C756 C 0.98469 0.48349 0.96823 0.0
H757 H 0.96366 0.51157 0.11627 0.0
H758 H 0.93943 0.49478 0.01581 0.0
S759 S 0.0744 0.47607 0.96766 0.0
N760 N 0.06563 0.49015 0.03968 0.0
N761 N 0.03936 0.47215 0.93047 0.0
C762 C 0.01856 0.48253 0.97664 0.0
C763 C 0.03284 0.49226 0.036 0.0
C764 C 0.74076 0.77615 0.7845 0.0
C765 C 0.73708 0.75801 0.84113 0.0
C766 C 0.75054 0.76166 0.72694 0.0
C767 C 0.75708 0.72833 0.72328 0.0
H768 H 0.73597 0.80187 0.78429 0.0
H769 H 0.75308 0.77689 0.68503 0.0
S770 S 0.75112 0.6697 0.85781 0.0
N771 N 0.74076 0.70466 0.88984 0.0
N772 N 0.75913 0.67746 0.78183 0.0
C773 C 0.75348 0.7098 0.77955 0.0
C774 C 0.74355 0.72459 0.83834 0.0
C775 C 0.74475 0.23066 0.22939 0.0
C776 C 0.73532 0.26329 0.22682 0.0
C777 C 0.75487 0.21646 0.28696 0.0
C778 C 0.756 0.23421 0.34461 0.0
H779 H 0.74446 0.21585 0.18653 0.0
H780 H 0.76214 0.19132 0.28588 0.0
S781 S 0.73283 0.32037 0.36466 0.0
N782 N 0.72708 0.3129 0.28773 0.0
N783 N 0.74608 0.28619 0.3957 0.0
C784 C 0.74632 0.26683 0.34298 0.0
C785 C 0.73604 0.28134 0.28424 0.0
C786 C 0.98326 -0.00137 0.97764 0.0
C787 C 0.01616 0.00739 0.97524 0.0
C788 C 0.96869 0.98896 0.03505 0.0
C789 C 0.9863 0.9876 0.09281 0.0
H790 H 0.96847 -0.00082 0.93476 0.0
H791 H 0.94334 0.9823 0.03374 0.0
S792 S 0.07311 0.00874 0.1133 0.0
N793 N 0.06593 0.01454 0.03627 0.0
N794 N 0.03853 0.99632 0.14422 0.0
C795 C 0.01924 0.99643 0.09138 0.0
C796 C 0.03413 0.00628 0.03267 0.0
C797 C 0.479 0.00414 0.57868 0.0
C798 C 0.5128 0.00698 0.5853 0.0
C799 C 0.46494 0.99387 0.52091 0.0
C800 C 0.48403 0.98598 0.46715 0.0
H801 H 0.46312 0.01015 0.61827 0.0
H802 H 0.4388 0.99217 0.51856 0.0
S803 S 0.5739 0.98825 0.45971 0.0
N804 N 0.56513 0.0003 0.53313 0.0
N805 N 0.53877 0.98109 0.42489 0.0
C806 C 0.51791 0.98851 0.47316 0.0
C807 C 0.53224 -0.00105 0.53205 0.0
C808 C 0.22007 0.26247 0.78399 0.0
C809 C 0.2349 0.25951 0.72336 0.0
C810 C 0.23649 0.25403 0.83993 0.0
C811 C 0.26817 0.2422 0.8369 0.0
H812 H 0.19537 0.27098 0.78841 0.0
H813 H 0.22383 0.25549 0.88537 0.0
S814 S 0.31913 0.23318 0.69137 0.0
N815 N 0.28399 0.24637 0.66432 0.0
N816 N 0.31491 0.23019 0.7699 0.0
C817 C 0.28375 0.24017 0.77704 0.0
C818 C 0.26705 0.2488 0.72004 0.0
C819 C 0.46701 0.4874 0.02417 0.0
C820 C 0.485 0.48657 0.96669 0.0
C821 C 0.47952 0.50145 0.07957 0.0
C822 C 0.51032 0.51547 0.07934 0.0
H823 H 0.44298 0.477 0.02677 0.0
H824 H 0.46486 0.50151 0.12267 0.0
S825 S 0.56772 0.51887 0.94207 0.0
N826 N 0.53544 0.5004 0.9133 0.0
N827 N 0.55908 0.52725 0.01755 0.0
C828 C 0.5286 0.51506 0.02218 0.0
C829 C 0.51589 0.50052 0.96576 0.0
C830 C 0.26006 0.74407 0.33194 0.0
C831 C 0.2302 0.75997 0.32862 0.0
C832 C 0.27498 0.73275 0.27645 0.0
C833 C 0.26045 0.73684 0.2159 0.0
H834 H 0.27226 0.74076 0.37751 0.0
H835 H 0.29811 0.72064 0.28114 0.0
S836 S 0.18129 0.77518 0.18208 0.0
N837 N 0.18584 0.77832 0.26054 0.0
N838 N 0.21416 0.75677 0.15582 0.0
C839 C 0.23053 0.75258 0.2118 0.0
C840 C 0.21527 0.76414 0.26839 0.0
C841 C 0.99764 0.4801 0.47022 0.0
C842 C 0.00221 0.51363 0.47026 0.0
C843 C 0.99039 0.46387 0.52699 0.0
C844 C 0.98757 0.48068 0.58541 0.0
H845 H 0.00065 0.46618 0.42657 0.0
H846 H 0.98704 0.43792 0.52518 0.0
S847 S 0.99425 0.5691 0.60935 0.0
N848 N 0.00146 0.56352 0.53221 0.0
N849 N 0.98775 0.53278 0.63933 0.0
C850 C 0.99148 0.51429 0.58589 0.0
C851 C -0.00128 0.53086 0.52805 0.0
C852 C 0.73515 0.77849 0.28178 0.0
C853 C 0.7316 0.75954 0.22599 0.0
C854 C 0.74838 0.76552 0.3377 0.0
C855 C 0.75861 0.73331 0.33924 0.0
H856 H 0.72814 0.8037 0.2821 0.0
H857 H 0.7515 0.78101 0.37918 0.0
S858 S 0.75114 0.67255 0.20892 0.0
N859 N 0.73692 0.70629 0.17761 0.0
N860 N 0.76204 0.68187 0.28283 0.0
C861 C 0.75426 0.71378 0.28463 0.0
C862 C 0.74074 0.72694 0.22782 0.0
C863 C 0.73804 0.25259 0.72615 0.0
C864 C 0.76683 0.23485 0.72997 0.0
C865 C 0.72333 0.26439 0.78144 0.0
C866 C 0.73698 0.25897 0.84239 0.0
H867 H 0.72639 0.25685 0.68035 0.0
H868 H 0.70089 0.27769 0.77622 0.0
S869 S 0.81363 0.21605 0.8776 0.0
N870 N 0.80956 0.21368 0.79893 0.0
N871 N 0.78164 0.23613 0.9033 0.0
C872 C 0.76603 0.24167 0.84694 0.0
C873 C 0.78108 0.2296 0.79052 0.0
C874 C 0.99558 0.01103 0.47558 0.0
C875 C 0.98178 0.9802 0.47811 0.0
C876 C 0.00611 0.0262 0.53141 0.0
C877 C 0.00348 0.01092 0.59156 0.0
H878 H -0.00226 0.02377 0.43038 0.0
H879 H 0.0166 0.05009 0.52718 0.0
S880 S 0.97031 0.92926 0.62282 0.0
N881 N 0.96651 0.93432 0.54462 0.0
N882 N 0.98679 0.9629 0.65008 0.0
C883 C 0.98972 0.98 0.59473 0.0
C884 C 0.97883 0.96458 0.53776 0.0
C885 C 0.48772 0.9867 0.96776 0.0
C886 C 0.50596 0.01512 0.97198 0.0
C887 C 0.47641 0.97158 0.02306 0.0
C888 C 0.48292 0.98444 0.08432 0.0
H889 H 0.4829 0.97556 0.92167 0.0
H890 H 0.46278 0.94938 0.01767 0.0
S891 S 0.52687 0.06029 0.12054 0.0
N892 N 0.52816 0.057 0.04166 0.0
N893 N 0.50686 0.02826 0.14586 0.0
C894 C 0.50043 0.0133 0.08916 0.0
C895 C 0.51188 0.02879 0.03283 0.0
loop_
_geom_bond_atom_site_label_1
_geom_bond_atom_site_label_2
_geom_bond_distance
_geom_bond_site_symmetry_2
_ccdc_geom_bond_type
O0 Zn1 1.953 . S
O0 C16 1.225 . S
Zn1 O0 1.953 . S
Zn1 O2 1.949 1_556 S
Zn1 O8 1.919 . S
Zn1 O13 1.924 . S
O2 Zn1 1.949 1_554 S
O2 Zn3 1.923 . S
O2 Zn4 1.950 . S
O2 Zn5 1.945 . S
Zn3 O2 1.923 . S
Zn3 O6 1.933 . S
Zn3 O9 1.941 1_554 S
Zn3 O10 1.965 . S
Zn4 O2 1.950 . S
Zn4 O11 1.938 . S
Zn4 O12 1.906 . S
Zn4 O22 1.953 1_554 S
Zn5 O2 1.945 . S
Zn5 O7 1.932 . S
Zn5 O14 1.977 . S
Zn5 O15 1.910 . S
O6 Zn3 1.933 . S
O6 C17 1.226 . S
O7 Zn5 1.932 . S
O7 C17 1.307 . S
O8 Zn1 1.919 . S
O8 C19 1.253 . S
O9 Zn3 1.941 1_556 S
O9 C19 1.283 . S
O10 Zn3 1.965 . S
O10 C18 1.303 . S
O11 Zn4 1.938 . S
O11 C18 1.247 . S
O12 Zn4 1.906 . S
O12 C20 1.304 . S
O13 Zn1 1.924 . S
O13 C21 1.311 . S
O14 Zn5 1.977 . S
O14 C20 1.272 . S
O15 Zn5 1.910 . S
O15 C21 1.231 1_554 S
C16 O0 1.225 . S
C16 O22 1.298 . S
C17 O6 1.226 . S
C17 O7 1.307 . S
C18 O10 1.303 . S
C18 O11 1.247 . S
C19 O8 1.253 . S
C19 O9 1.283 . S
C20 O12 1.304 . S
C20 O14 1.272 . S
C21 O13 1.311 . S
C21 O15 1.231 1_556 S
O22 Zn4 1.953 1_556 S
O22 C16 1.298 . S
O23 Zn24 1.953 . S
O23 C39 1.225 . S
Zn24 O23 1.953 . S
Zn24 O25 1.949 . S
Zn24 O31 1.919 . S
Zn24 O36 1.924 . S
O25 Zn24 1.949 . S
O25 Zn26 1.923 . S
O25 Zn27 1.950 . S
O25 Zn28 1.945 . S
Zn26 O25 1.923 . S
Zn26 O29 1.933 . S
Zn26 O32 1.941 . S
Zn26 O33 1.965 . S
Zn27 O25 1.950 . S
Zn27 O34 1.938 . S
Zn27 O35 1.906 . S
Zn27 O45 1.953 . S
Zn28 O25 1.945 . S
Zn28 O30 1.932 . S
Zn28 O37 1.977 . S
Zn28 O38 1.910 . S
O29 Zn26 1.933 . S
O29 C40 1.226 . S
O30 Zn28 1.932 . S
O30 C40 1.307 . S
O31 Zn24 1.919 . S
O31 C42 1.253 . S
O32 Zn26 1.941 . S
O32 C42 1.283 . S
O33 Zn26 1.965 . S
O33 C41 1.303 . S
O34 Zn27 1.938 . S
O34 C41 1.247 . S
O35 Zn27 1.906 . S
O35 C43 1.304 . S
O36 Zn24 1.924 . S
O36 C44 1.311 . S
O37 Zn28 1.977 . S
O37 C43 1.272 . S
O38 Zn28 1.910 . S
O38 C44 1.231 . S
C39 O23 1.225 . S
C39 O45 1.298 . S
C40 O29 1.226 . S
C40 O30 1.307 . S
C41 O33 1.303 . S
C41 O34 1.247 . S
C42 O31 1.253 . S
C42 O32 1.283 . S
C43 O35 1.304 . S
C43 O37 1.272 . S
C44 O36 1.311 . S
C44 O38 1.231 . S
O45 Zn27 1.953 . S
O45 C39 1.298 . S
O46 Zn47 1.953 . S
O46 C62 1.225 . S
Zn47 O46 1.953 . S
Zn47 O48 1.949 . S
Zn47 O54 1.919 . S
Zn47 O59 1.924 . S
O48 Zn47 1.949 . S
O48 Zn49 1.923 . S
O48 Zn50 1.950 . S
O48 Zn51 1.945 . S
Zn49 O48 1.923 . S
Zn49 O52 1.933 . S
Zn49 O55 1.941 . S
Zn49 O56 1.965 . S
Zn50 O48 1.950 . S
Zn50 O57 1.938 . S
Zn50 O58 1.906 . S
Zn50 O68 1.953 . S
Zn51 O48 1.945 . S
Zn51 O53 1.932 . S
Zn51 O60 1.977 . S
Zn51 O61 1.910 . S
O52 Zn49 1.933 . S
O52 C63 1.226 . S
O53 Zn51 1.932 . S
O53 C63 1.307 . S
O54 Zn47 1.919 . S
O54 C65 1.253 . S
O55 Zn49 1.941 . S
O55 C65 1.283 . S
O56 Zn49 1.965 . S
O56 C64 1.303 . S
O57 Zn50 1.938 . S
O57 C64 1.247 . S
O58 Zn50 1.906 . S
O58 C66 1.304 . S
O59 Zn47 1.924 . S
O59 C67 1.311 . S
O60 Zn51 1.977 . S
O60 C66 1.272 . S
O61 Zn51 1.910 . S
O61 C67 1.231 . S
C62 O46 1.225 . S
C62 O68 1.298 . S
C63 O52 1.226 . S
C63 O53 1.307 . S
C64 O56 1.303 . S
C64 O57 1.247 . S
C65 O54 1.253 . S
C65 O55 1.283 . S
C66 O58 1.304 . S
C66 O60 1.272 . S
C67 O59 1.311 . S
C67 O61 1.231 . S
O68 Zn50 1.953 . S
O68 C62 1.298 . S
O69 Zn70 1.953 . S
O69 C85 1.225 . S
Zn70 O69 1.953 . S
Zn70 O71 1.949 . S
Zn70 O77 1.919 . S
Zn70 O82 1.924 . S
O71 Zn70 1.949 . S
O71 Zn72 1.923 . S
O71 Zn73 1.950 . S
O71 Zn74 1.945 . S
Zn72 O71 1.923 . S
Zn72 O75 1.933 . S
Zn72 O78 1.941 . S
Zn72 O79 1.965 . S
Zn73 O71 1.950 . S
Zn73 O80 1.938 1_655 S
Zn73 O81 1.906 . S
Zn73 O91 1.953 1_655 S
Zn74 O71 1.945 . S
Zn74 O76 1.932 . S
Zn74 O83 1.977 . S
Zn74 O84 1.910 . S
O75 Zn72 1.933 . S
O75 C86 1.226 . S
O76 Zn74 1.932 . S
O76 C86 1.307 . S
O77 Zn70 1.919 . S
O77 C88 1.253 . S
O78 Zn72 1.941 . S
O78 C88 1.283 . S
O79 Zn72 1.965 . S
O79 C87 1.303 1_655 S
O80 Zn73 1.938 1_455 S
O80 C87 1.247 . S
O81 Zn73 1.906 . S
O81 C89 1.304 . S
O82 Zn70 1.924 . S
O82 C90 1.311 . S
O83 Zn74 1.977 . S
O83 C89 1.272 . S
O84 Zn74 1.910 . S
O84 C90 1.231 . S
C85 O69 1.225 . S
C85 O91 1.298 1_655 S
C86 O75 1.226 . S
C86 O76 1.307 . S
C87 O79 1.303 1_455 S
C87 O80 1.247 . S
C88 O77 1.253 . S
C88 O78 1.283 . S
C89 O81 1.304 . S
C89 O83 1.272 . S
C90 O82 1.311 . S
C90 O84 1.231 . S
O91 Zn73 1.953 1_455 S
O91 C85 1.298 1_455 S
O92 Zn93 1.953 . S
O92 C108 1.225 . S
Zn93 O92 1.953 . S
Zn93 O94 1.949 . S
Zn93 O100 1.919 . S
Zn93 O105 1.924 . S
O94 Zn93 1.949 . S
O94 Zn95 1.923 . S
O94 Zn96 1.950 . S
O94 Zn97 1.945 1_554 S
Zn95 O94 1.923 . S
Zn95 O98 1.933 1_554 S
Zn95 O101 1.941 . S
Zn95 O102 1.965 . S
Zn96 O94 1.950 . S
Zn96 O103 1.938 . S
Zn96 O104 1.906 1_554 S
Zn96 O114 1.953 . S
Zn97 O94 1.945 1_556 S
Zn97 O99 1.932 . S
Zn97 O106 1.977 . S
Zn97 O107 1.910 1_556 S
O98 Zn95 1.933 1_556 S
O98 C109 1.226 . S
O99 Zn97 1.932 . S
O99 C109 1.307 . S
O100 Zn93 1.919 . S
O100 C111 1.253 . S
O101 Zn95 1.941 . S
O101 C111 1.283 . S
O102 Zn95 1.965 . S
O102 C110 1.303 . S
O103 Zn96 1.938 . S
O103 C110 1.247 . S
O104 Zn96 1.906 1_556 S
O104 C112 1.304 . S
O105 Zn93 1.924 . S
O105 C113 1.311 . S
O106 Zn97 1.977 . S
O106 C112 1.272 . S
O107 Zn97 1.910 1_554 S
O107 C113 1.231 . S
C108 O92 1.225 . S
C108 O114 1.298 . S
C109 O98 1.226 . S
C109 O99 1.307 . S
C110 O102 1.303 . S
C110 O103 1.247 . S
C111 O100 1.253 . S
C111 O101 1.283 . S
C112 O104 1.304 . S
C112 O106 1.272 . S
C113 O105 1.311 . S
C113 O107 1.231 . S
O114 Zn96 1.953 . S
O114 C108 1.298 . S
O115 Zn116 1.953 . S
O115 C131 1.225 . S
Zn116 O115 1.953 . S
Zn116 O117 1.949 . S
Zn116 O123 1.919 . S
Zn116 O128 1.924 . S
O117 Zn116 1.949 . S
O117 Zn118 1.923 . S
O117 Zn119 1.950 . S
O117 Zn120 1.945 . S
Zn118 O117 1.923 . S
Zn118 O121 1.933 . S
Zn118 O124 1.941 . S
Zn118 O125 1.965 . S
Zn119 O117 1.950 . S
Zn119 O126 1.938 . S
Zn119 O127 1.906 . S
Zn119 O137 1.953 . S
Zn120 O117 1.945 . S
Zn120 O122 1.932 . S
Zn120 O129 1.977 . S
Zn120 O130 1.910 . S
O121 Zn118 1.933 . S
O121 C132 1.226 . S
O122 Zn120 1.932 . S
O122 C132 1.307 . S
O123 Zn116 1.919 . S
O123 C134 1.253 . S
O124 Zn118 1.941 . S
O124 C134 1.283 . S
O125 Zn118 1.965 . S
O125 C133 1.303 . S
O126 Zn119 1.938 . S
O126 C133 1.247 . S
O127 Zn119 1.906 . S
O127 C135 1.304 . S
O128 Zn116 1.924 . S
O128 C136 1.311 . S
O129 Zn120 1.977 . S
O129 C135 1.272 . S
O130 Zn120 1.910 . S
O130 C136 1.231 . S
C131 O115 1.225 . S
C131 O137 1.298 . S
C132 O121 1.226 . S
C132 O122 1.307 . S
C133 O125 1.303 . S
C133 O126 1.247 . S
C134 O123 1.253 . S
C134 O124 1.283 . S
C135 O127 1.304 . S
C135 O129 1.272 . S
C136 O128 1.311 . S
C136 O130 1.231 . S
O137 Zn119 1.953 . S
O137 C131 1.298 . S
O138 Zn139 1.953 . S
O138 C154 1.225 . S
Zn139 O138 1.953 . S
Zn139 O140 1.949 . S
Zn139 O146 1.919 . S
Zn139 O151 1.924 . S
O140 Zn139 1.949 . S
O140 Zn141 1.923 . S
O140 Zn142 1.950 . S
O140 Zn143 1.945 . S
Zn141 O140 1.923 . S
Zn141 O144 1.933 . S
Zn141 O147 1.941 . S
Zn141 O148 1.965 . S
Zn142 O140 1.950 . S
Zn142 O149 1.938 . S
Zn142 O150 1.906 . S
Zn142 O160 1.953 . S
Zn143 O140 1.945 . S
Zn143 O145 1.932 . S
Zn143 O152 1.977 . S
Zn143 O153 1.910 . S
O144 Zn141 1.933 . S
O144 C155 1.226 . S
O145 Zn143 1.932 . S
O145 C155 1.307 . S
O146 Zn139 1.919 . S
O146 C157 1.253 . S
O147 Zn141 1.941 . S
O147 C157 1.283 . S
O148 Zn141 1.965 . S
O148 C156 1.303 . S
O149 Zn142 1.938 . S
O149 C156 1.247 . S
O150 Zn142 1.906 . S
O150 C158 1.304 . S
O151 Zn139 1.924 . S
O151 C159 1.311 . S
O152 Zn143 1.977 . S
O152 C158 1.272 . S
O153 Zn143 1.910 . S
O153 C159 1.231 . S
C154 O138 1.225 . S
C154 O160 1.298 . S
C155 O144 1.226 . S
C155 O145 1.307 . S
C156 O148 1.303 . S
C156 O149 1.247 . S
C157 O146 1.253 . S
C157 O147 1.283 . S
C158 O150 1.304 . S
C158 O152 1.272 . S
C159 O151 1.311 . S
C159 O153 1.231 . S
O160 Zn142 1.953 . S
O160 C154 1.298 . S
O161 Zn162 1.953 . S
O161 C177 1.225 . S
Zn162 O161 1.953 . S
Zn162 O163 1.949 . S
Zn162 O169 1.919 . S
Zn162 O174 1.924 . S
O163 Zn162 1.949 . S
O163 Zn164 1.923 . S
O163 Zn165 1.950 . S
O163 Zn166 1.945 . S
Zn164 O163 1.923 . S
Zn164 O167 1.933 . S
Zn164 O170 1.941 . S
Zn164 O171 1.965 . S
Zn165 O163 1.950 . S
Zn165 O172 1.938 1_455 S
Zn165 O173 1.906 . S
Zn165 O183 1.953 1_455 S
Zn166 O163 1.945 . S
Zn166 O168 1.932 . S
Zn166 O175 1.977 . S
Zn166 O176 1.910 . S
O167 Zn164 1.933 . S
O167 C178 1.226 . S
O168 Zn166 1.932 . S
O168 C178 1.307 . S
O169 Zn162 1.919 . S
O169 C180 1.253 . S
O170 Zn164 1.941 . S
O170 C180 1.283 . S
O171 Zn164 1.965 . S
O171 C179 1.303 1_455 S
O172 Zn165 1.938 1_655 S
O172 C179 1.247 . S
O173 Zn165 1.906 . S
O173 C181 1.304 . S
O174 Zn162 1.924 . S
O174 C182 1.311 . S
O175 Zn166 1.977 . S
O175 C181 1.272 . S
O176 Zn166 1.910 . S
O176 C182 1.231 . S
C177 O161 1.225 . S
C177 O183 1.298 1_455 S
C178 O167 1.226 . S
C178 O168 1.307 . S
C179 O171 1.303 1_655 S
C179 O172 1.247 . S
C180 O169 1.253 . S
C180 O170 1.283 . S
C181 O173 1.304 . S
C181 O175 1.272 . S
C182 O174 1.311 . S
C182 O176 1.231 . S
O183 Zn165 1.953 1_655 S
O183 C177 1.298 1_655 S
O184 Zn185 1.953 . S
O184 C200 1.225 . S
Zn185 O184 1.953 . S
Zn185 O186 1.949 . S
Zn185 O192 1.919 . S
Zn185 O197 1.924 . S
O186 Zn185 1.949 . S
O186 Zn187 1.923 . S
O186 Zn188 1.950 . S
O186 Zn189 1.945 . S
Zn187 O186 1.923 . S
Zn187 O190 1.933 . S
Zn187 O193 1.941 . S
Zn187 O194 1.965 . S
Zn188 O186 1.950 . S
Zn188 O195 1.938 . S
Zn188 O196 1.906 . S
Zn188 O206 1.953 . S
Zn189 O186 1.945 . S
Zn189 O191 1.932 . S
Zn189 O198 1.977 . S
Zn189 O199 1.910 . S
O190 Zn187 1.933 . S
O190 C201 1.226 . S
O191 Zn189 1.932 . S
O191 C201 1.307 . S
O192 Zn185 1.919 . S
O192 C203 1.253 . S
O193 Zn187 1.941 . S
O193 C203 1.283 . S
O194 Zn187 1.965 . S
O194 C202 1.303 . S
O195 Zn188 1.938 . S
O195 C202 1.247 . S
O196 Zn188 1.906 . S
O196 C204 1.304 . S
O197 Zn185 1.924 . S
O197 C205 1.311 . S
O198 Zn189 1.977 . S
O198 C204 1.272 . S
O199 Zn189 1.910 . S
O199 C205 1.231 . S
C200 O184 1.225 . S
C200 O206 1.298 . S
C201 O190 1.226 . S
C201 O191 1.307 . S
C202 O194 1.303 . S
C202 O195 1.247 . S
C203 O192 1.253 . S
C203 O193 1.283 . S
C204 O196 1.304 . S
C204 O198 1.272 . S
C205 O197 1.311 . S
C205 O199 1.231 . S
O206 Zn188 1.953 . S
O206 C200 1.298 . S
O207 Zn208 1.953 . S
O207 C223 1.225 . S
Zn208 O207 1.953 . S
Zn208 O209 1.949 . S
Zn208 O215 1.919 . S
Zn208 O220 1.924 . S
O209 Zn208 1.949 . S
O209 Zn210 1.923 . S
O209 Zn211 1.950 . S
O209 Zn212 1.945 . S
Zn210 O209 1.923 . S
Zn210 O213 1.933 . S
Zn210 O216 1.941 . S
Zn210 O217 1.965 . S
Zn211 O209 1.950 . S
Zn211 O218 1.938 1_455 S
Zn211 O219 1.906 . S
Zn211 O229 1.953 1_455 S
Zn212 O209 1.945 . S
Zn212 O214 1.932 . S
Zn212 O221 1.977 . S
Zn212 O222 1.910 . S
O213 Zn210 1.933 . S
O213 C224 1.226 . S
O214 Zn212 1.932 . S
O214 C224 1.307 . S
O215 Zn208 1.919 . S
O215 C226 1.253 . S
O216 Zn210 1.941 . S
O216 C226 1.283 . S
O217 Zn210 1.965 . S
O217 C225 1.303 1_455 S
O218 Zn211 1.938 1_655 S
O218 C225 1.247 . S
O219 Zn211 1.906 . S
O219 C227 1.304 . S
O220 Zn208 1.924 . S
O220 C228 1.311 1_545 S
O221 Zn212 1.977 . S
O221 C227 1.272 . S
O222 Zn212 1.910 . S
O222 C228 1.231 1_545 S
C223 O207 1.225 . S
C223 O229 1.298 1_455 S
C224 O213 1.226 . S
C224 O214 1.307 . S
C225 O217 1.303 1_655 S
C225 O218 1.247 . S
C226 O215 1.253 . S
C226 O216 1.283 . S
C227 O219 1.304 . S
C227 O221 1.272 . S
C228 O220 1.311 1_565 S
C228 O222 1.231 1_565 S
O229 Zn211 1.953 1_655 S
O229 C223 1.298 1_655 S
O230 Zn231 1.953 . S
O230 C246 1.225 . S
Zn231 O230 1.953 . S
Zn231 O232 1.949 1_556 S
Zn231 O238 1.919 . S
Zn231 O243 1.924 . S
O232 Zn231 1.949 1_554 S
O232 Zn233 1.923 . S
O232 Zn234 1.950 . S
O232 Zn235 1.945 . S
Zn233 O232 1.923 . S
Zn233 O236 1.933 . S
Zn233 O239 1.941 1_554 S
Zn233 O240 1.965 . S
Zn234 O232 1.950 . S
Zn234 O241 1.938 . S
Zn234 O242 1.906 . S
Zn234 O252 1.953 1_554 S
Zn235 O232 1.945 . S
Zn235 O237 1.932 . S
Zn235 O244 1.977 . S
Zn235 O245 1.910 . S
O236 Zn233 1.933 . S
O236 C247 1.226 . S
O237 Zn235 1.932 . S
O237 C247 1.307 . S
O238 Zn231 1.919 . S
O238 C249 1.253 . S
O239 Zn233 1.941 1_556 S
O239 C249 1.283 . S
O240 Zn233 1.965 . S
O240 C248 1.303 . S
O241 Zn234 1.938 . S
O241 C248 1.247 . S
O242 Zn234 1.906 . S
O242 C250 1.304 . S
O243 Zn231 1.924 . S
O243 C251 1.311 . S
O244 Zn235 1.977 . S
O244 C250 1.272 . S
O245 Zn235 1.910 . S
O245 C251 1.231 1_554 S
C246 O230 1.225 . S
C246 O252 1.298 . S
C247 O236 1.226 . S
C247 O237 1.307 . S
C248 O240 1.303 . S
C248 O241 1.247 . S
C249 O238 1.253 . S
C249 O239 1.283 . S
C250 O242 1.304 . S
C250 O244 1.272 . S
C251 O243 1.311 . S
C251 O245 1.231 1_556 S
O252 Zn234 1.953 1_556 S
O252 C246 1.298 . S
O253 Zn254 1.953 . S
O253 C269 1.225 . S
Zn254 O253 1.953 . S
Zn254 O255 1.949 . S
Zn254 O261 1.919 . S
Zn254 O266 1.924 . S
O255 Zn254 1.949 . S
O255 Zn256 1.923 . S
O255 Zn257 1.950 . S
O255 Zn258 1.945 . S
Zn256 O255 1.923 . S
Zn256 O259 1.933 . S
Zn256 O262 1.941 . S
Zn256 O263 1.965 . S
Zn257 O255 1.950 . S
Zn257 O264 1.938 . S
Zn257 O265 1.906 . S
Zn257 O275 1.953 . S
Zn258 O255 1.945 . S
Zn258 O260 1.932 . S
Zn258 O267 1.977 . S
Zn258 O268 1.910 . S
O259 Zn256 1.933 . S
O259 C270 1.226 . S
O260 Zn258 1.932 . S
O260 C270 1.307 . S
O261 Zn254 1.919 . S
O261 C272 1.253 . S
O262 Zn256 1.941 . S
O262 C272 1.283 . S
O263 Zn256 1.965 . S
O263 C271 1.303 . S
O264 Zn257 1.938 . S
O264 C271 1.247 . S
O265 Zn257 1.906 . S
O265 C273 1.304 . S
O266 Zn254 1.924 . S
O266 C274 1.311 1_565 S
O267 Zn258 1.977 . S
O267 C273 1.272 . S
O268 Zn258 1.910 . S
O268 C274 1.231 1_565 S
C269 O253 1.225 . S
C269 O275 1.298 . S
C270 O259 1.226 . S
C270 O260 1.307 . S
C271 O263 1.303 . S
C271 O264 1.247 . S
C272 O261 1.253 . S
C272 O262 1.283 . S
C273 O265 1.304 . S
C273 O267 1.272 . S
C274 O266 1.311 1_545 S
C274 O268 1.231 1_545 S
O275 Zn257 1.953 . S
O275 C269 1.298 . S
O276 Zn277 1.953 . S
O276 C292 1.225 . S
Zn277 O276 1.953 . S
Zn277 O278 1.949 . S
Zn277 O284 1.919 . S
Zn277 O289 1.924 . S
O278 Zn277 1.949 . S
O278 Zn279 1.923 . S
O278 Zn280 1.950 . S
O278 Zn281 1.945 . S
Zn279 O278 1.923 . S
Zn279 O282 1.933 . S
Zn279 O285 1.941 . S
Zn279 O286 1.965 . S
Zn280 O278 1.950 . S
Zn280 O287 1.938 . S
Zn280 O288 1.906 . S
Zn280 O298 1.953 . S
Zn281 O278 1.945 . S
Zn281 O283 1.932 . S
Zn281 O290 1.977 . S
Zn281 O291 1.910 . S
O282 Zn279 1.933 . S
O282 C293 1.226 . S
O283 Zn281 1.932 . S
O283 C293 1.307 . S
O284 Zn277 1.919 . S
O284 C295 1.253 . S
O285 Zn279 1.941 . S
O285 C295 1.283 . S
O286 Zn279 1.965 . S
O286 C294 1.303 . S
O287 Zn280 1.938 . S
O287 C294 1.247 . S
O288 Zn280 1.906 . S
O288 C296 1.304 . S
O289 Zn277 1.924 . S
O289 C297 1.311 . S
O290 Zn281 1.977 . S
O290 C296 1.272 . S
O291 Zn281 1.910 . S
O291 C297 1.231 . S
C292 O276 1.225 . S
C292 O298 1.298 . S
C293 O282 1.226 . S
C293 O283 1.307 . S
C294 O286 1.303 . S
C294 O287 1.247 . S
C295 O284 1.253 . S
C295 O285 1.283 . S
C296 O288 1.304 . S
C296 O290 1.272 . S
C297 O289 1.311 . S
C297 O291 1.231 . S
O298 Zn280 1.953 . S
O298 C292 1.298 . S
O299 Zn300 1.953 . S
O299 C315 1.225 . S
Zn300 O299 1.953 . S
Zn300 O301 1.949 . S
Zn300 O307 1.919 . S
Zn300 O312 1.924 . S
O301 Zn300 1.949 . S
O301 Zn302 1.923 . S
O301 Zn303 1.950 . S
O301 Zn304 1.945 . S
Zn302 O301 1.923 . S
Zn302 O305 1.933 . S
Zn302 O308 1.941 . S
Zn302 O309 1.965 . S
Zn303 O301 1.950 . S
Zn303 O310 1.938 1_655 S
Zn303 O311 1.906 . S
Zn303 O321 1.953 1_655 S
Zn304 O301 1.945 . S
Zn304 O306 1.932 . S
Zn304 O313 1.977 . S
Zn304 O314 1.910 . S
O305 Zn302 1.933 . S
O305 C316 1.226 . S
O306 Zn304 1.932 . S
O306 C316 1.307 . S
O307 Zn300 1.919 . S
O307 C318 1.253 . S
O308 Zn302 1.941 . S
O308 C318 1.283 . S
O309 Zn302 1.965 . S
O309 C317 1.303 1_655 S
O310 Zn303 1.938 1_455 S
O310 C317 1.247 . S
O311 Zn303 1.906 . S
O311 C319 1.304 . S
O312 Zn300 1.924 . S
O312 C320 1.311 1_565 S
O313 Zn304 1.977 . S
O313 C319 1.272 . S
O314 Zn304 1.910 . S
O314 C320 1.231 1_565 S
C315 O299 1.225 . S
C315 O321 1.298 1_655 S
C316 O305 1.226 . S
C316 O306 1.307 . S
C317 O309 1.303 1_455 S
C317 O310 1.247 . S
C318 O307 1.253 . S
C318 O308 1.283 . S
C319 O311 1.304 . S
C319 O313 1.272 . S
C320 O312 1.311 1_545 S
C320 O314 1.231 1_545 S
O321 Zn303 1.953 1_455 S
O321 C315 1.298 1_455 S
O322 Zn323 1.953 . S
O322 C338 1.225 . S
Zn323 O322 1.953 . S
Zn323 O324 1.949 . S
Zn323 O330 1.919 . S
Zn323 O335 1.924 . S
O324 Zn323 1.949 . S
O324 Zn325 1.923 . S
O324 Zn326 1.950 . S
O324 Zn327 1.945 1_554 S
Zn325 O324 1.923 . S
Zn325 O328 1.933 1_554 S
Zn325 O331 1.941 . S
Zn325 O332 1.965 . S
Zn326 O324 1.950 . S
Zn326 O333 1.938 . S
Zn326 O334 1.906 1_554 S
Zn326 O344 1.953 . S
Zn327 O324 1.945 1_556 S
Zn327 O329 1.932 . S
Zn327 O336 1.977 . S
Zn327 O337 1.910 1_556 S
O328 Zn325 1.933 1_556 S
O328 C339 1.226 . S
O329 Zn327 1.932 . S
O329 C339 1.307 . S
O330 Zn323 1.919 . S
O330 C341 1.253 . S
O331 Zn325 1.941 . S
O331 C341 1.283 . S
O332 Zn325 1.965 . S
O332 C340 1.303 . S
O333 Zn326 1.938 . S
O333 C340 1.247 . S
O334 Zn326 1.906 1_556 S
O334 C342 1.304 . S
O335 Zn323 1.924 . S
O335 C343 1.311 . S
O336 Zn327 1.977 . S
O336 C342 1.272 . S
O337 Zn327 1.910 1_554 S
O337 C343 1.231 . S
C338 O322 1.225 . S
C338 O344 1.298 . S
C339 O328 1.226 . S
C339 O329 1.307 . S
C340 O332 1.303 . S
C340 O333 1.247 . S
C341 O330 1.253 . S
C341 O331 1.283 . S
C342 O334 1.304 . S
C342 O336 1.272 . S
C343 O335 1.311 . S
C343 O337 1.231 . S
O344 Zn326 1.953 . S
O344 C338 1.298 . S
O345 Zn346 1.953 . S
O345 C361 1.225 . S
Zn346 O345 1.953 . S
Zn346 O347 1.949 . S
Zn346 O353 1.919 . S
Zn346 O358 1.924 . S
O347 Zn346 1.949 . S
O347 Zn348 1.923 . S
O347 Zn349 1.950 . S
O347 Zn350 1.945 . S
Zn348 O347 1.923 . S
Zn348 O351 1.933 . S
Zn348 O354 1.941 . S
Zn348 O355 1.965 . S
Zn349 O347 1.950 . S
Zn349 O356 1.938 . S
Zn349 O357 1.906 . S
Zn349 O367 1.953 . S
Zn350 O347 1.945 . S
Zn350 O352 1.932 . S
Zn350 O359 1.977 . S
Zn350 O360 1.910 . S
O351 Zn348 1.933 . S
O351 C362 1.226 . S
O352 Zn350 1.932 . S
O352 C362 1.307 . S
O353 Zn346 1.919 . S
O353 C364 1.253 . S
O354 Zn348 1.941 . S
O354 C364 1.283 . S
O355 Zn348 1.965 . S
O355 C363 1.303 . S
O356 Zn349 1.938 . S
O356 C363 1.247 . S
O357 Zn349 1.906 . S
O357 C365 1.304 . S
O358 Zn346 1.924 . S
O358 C366 1.311 1_545 S
O359 Zn350 1.977 . S
O359 C365 1.272 . S
O360 Zn350 1.910 . S
O360 C366 1.231 1_545 S
C361 O345 1.225 . S
C361 O367 1.298 . S
C362 O351 1.226 . S
C362 O352 1.307 . S
C363 O355 1.303 . S
C363 O356 1.247 . S
C364 O353 1.253 . S
C364 O354 1.283 . S
C365 O357 1.304 . S
C365 O359 1.272 . S
C366 O358 1.311 1_565 S
C366 O360 1.231 1_565 S
O367 Zn349 1.953 . S
O367 C361 1.298 . S
C368 C369 1.369 . S
C368 C370 1.419 . S
C368 H372 0.930 1_556 S
C369 C368 1.369 . S
C369 C378 1.429 . S
C370 C368 1.419 . S
C370 C371 1.363 . S
C370 H373 0.929 . S
C371 C370 1.363 . S
C371 C377 1.428 . S
H372 C368 0.930 1_554 S
H373 C370 0.929 . S
S374 N375 1.613 . S
S374 N376 1.610 . S
N375 S374 1.613 . S
N375 C378 1.350 . S
N376 S374 1.610 . S
N376 C377 1.351 . S
C377 C371 1.428 . S
C377 N376 1.351 . S
C377 C378 1.434 . S
C378 C369 1.429 . S
C378 N375 1.350 . S
C378 C377 1.434 . S
C379 C380 1.369 . S
C379 C381 1.419 . S
C379 H383 0.930 . S
C380 C379 1.369 . S
C380 C389 1.429 . S
C381 C379 1.419 . S
C381 C382 1.363 . S
C381 H384 0.929 . S
C382 C381 1.363 . S
C382 C388 1.428 . S
H383 C379 0.930 . S
H384 C381 0.929 . S
S385 N386 1.613 . S
S385 N387 1.610 . S
N386 S385 1.613 . S
N386 C389 1.350 . S
N387 S385 1.610 . S
N387 C388 1.351 . S
C388 C382 1.428 . S
C388 N387 1.351 . S
C388 C389 1.434 . S
C389 C380 1.429 . S
C389 N386 1.350 . S
C389 C388 1.434 . S
C390 C391 1.369 . S
C390 C392 1.419 . S
C390 H394 0.930 . S
C391 C390 1.369 . S
C391 C400 1.429 . S
C392 C390 1.419 . S
C392 C393 1.363 . S
C392 H395 0.929 . S
C393 C392 1.363 . S
C393 C399 1.428 . S
H394 C390 0.930 . S
H395 C392 0.929 . S
S396 N397 1.613 . S
S396 N398 1.610 . S
N397 S396 1.613 . S
N397 C400 1.350 . S
N398 S396 1.610 . S
N398 C399 1.351 . S
C399 C393 1.428 . S
C399 N398 1.351 . S
C399 C400 1.434 . S
C400 C391 1.429 . S
C400 N397 1.350 . S
C400 C399 1.434 . S
C401 C402 1.369 . S
C401 C403 1.419 . S
C401 H405 0.930 . S
C402 C401 1.369 . S
C402 C411 1.429 . S
C403 C401 1.419 . S
C403 C404 1.363 . S
C403 H406 0.929 . S
C404 C403 1.363 . S
C404 C410 1.428 . S
H405 C401 0.930 . S
H406 C403 0.929 . S
S407 N408 1.613 . S
S407 N409 1.610 . S
N408 S407 1.613 . S
N408 C411 1.350 . S
N409 S407 1.610 . S
N409 C410 1.351 . S
C410 C404 1.428 . S
C410 N409 1.351 . S
C410 C411 1.434 . S
C411 C402 1.429 . S
C411 N408 1.350 . S
C411 C410 1.434 . S
C412 C413 1.369 . S
C412 C414 1.419 . S
C412 H416 0.930 . S
C413 C412 1.369 . S
C413 C422 1.429 . S
C414 C412 1.419 . S
C414 C415 1.363 . S
C414 H417 0.929 . S
C415 C414 1.363 . S
C415 C421 1.428 . S
H416 C412 0.930 . S
H417 C414 0.929 . S
S418 N419 1.613 1_556 S
S418 N420 1.610 1_556 S
N419 S418 1.613 1_554 S
N419 C422 1.350 . S
N420 S418 1.610 1_554 S
N420 C421 1.351 . S
C421 C415 1.428 . S
C421 N420 1.351 . S
C421 C422 1.434 . S
C422 C413 1.429 . S
C422 N419 1.350 . S
C422 C421 1.434 . S
C423 C424 1.369 . S
C423 C425 1.419 . S
C423 H427 0.930 . S
C424 C423 1.369 . S
C424 C433 1.429 . S
C425 C423 1.419 . S
C425 C426 1.363 . S
C425 H428 0.929 . S
C426 C425 1.363 . S
C426 C432 1.428 . S
H427 C423 0.930 . S
H428 C425 0.929 . S
S429 N430 1.613 1_554 S
S429 N431 1.610 1_554 S
N430 S429 1.613 1_556 S
N430 C433 1.350 . S
N431 S429 1.610 1_556 S
N431 C432 1.351 . S
C432 C426 1.428 . S
C432 N431 1.351 . S
C432 C433 1.434 . S
C433 C424 1.429 . S
C433 N430 1.350 . S
C433 C432 1.434 . S
C434 C435 1.369 . S
C434 C436 1.419 . S
C434 H438 0.930 . S
C435 C434 1.369 . S
C435 C444 1.429 . S
C436 C434 1.419 . S
C436 C437 1.363 . S
C436 H439 0.929 . S
C437 C436 1.363 . S
C437 C443 1.428 . S
H438 C434 0.930 . S
H439 C436 0.929 . S
S440 N441 1.613 . S
S440 N442 1.610 . S
N441 S440 1.613 . S
N441 C444 1.350 . S
N442 S440 1.610 . S
N442 C443 1.351 . S
C443 C437 1.428 . S
C443 N442 1.351 . S
C443 C444 1.434 . S
C444 C435 1.429 . S
C444 N441 1.350 . S
C444 C443 1.434 . S
C445 C446 1.369 . S
C445 C447 1.419 . S
C445 H449 0.930 . S
C446 C445 1.369 . S
C446 C455 1.429 . S
C447 C445 1.419 . S
C447 C448 1.363 . S
C447 H450 0.929 . S
C448 C447 1.363 . S
C448 C454 1.428 . S
H449 C445 0.930 . S
H450 C447 0.929 . S
S451 N452 1.613 . S
S451 N453 1.610 . S
N452 S451 1.613 . S
N452 C455 1.350 . S
N453 S451 1.610 . S
N453 C454 1.351 . S
C454 C448 1.428 . S
C454 N453 1.351 . S
C454 C455 1.434 . S
C455 C446 1.429 . S
C455 N452 1.350 . S
C455 C454 1.434 . S
C456 C457 1.369 . S
C456 C458 1.419 . S
C456 H460 0.930 . S
C457 C456 1.369 . S
C457 C466 1.429 . S
C458 C456 1.419 . S
C458 C459 1.363 . S
C458 H461 0.929 . S
C459 C458 1.363 . S
C459 C465 1.428 . S
H460 C456 0.930 . S
H461 C458 0.929 . S
S462 N463 1.613 . S
S462 N464 1.610 . S
N463 S462 1.613 . S
N463 C466 1.350 . S
N464 S462 1.610 . S
N464 C465 1.351 . S
C465 C459 1.428 . S
C465 N464 1.351 . S
C465 C466 1.434 . S
C466 C457 1.429 . S
C466 N463 1.350 . S
C466 C465 1.434 . S
C467 C468 1.369 . S
C467 C469 1.419 . S
C467 H471 0.930 . S
C468 C467 1.369 . S
C468 C477 1.429 . S
C469 C467 1.419 . S
C469 C470 1.363 . S
C469 H472 0.929 . S
C470 C469 1.363 . S
C470 C476 1.428 . S
H471 C467 0.930 . S
H472 C469 0.929 . S
S473 N474 1.613 . S
S473 N475 1.610 . S
N474 S473 1.613 . S
N474 C477 1.350 . S
N475 S473 1.610 . S
N475 C476 1.351 . S
C476 C470 1.428 . S
C476 N475 1.351 . S
C476 C477 1.434 . S
C477 C468 1.429 . S
C477 N474 1.350 . S
C477 C476 1.434 . S
C478 C479 1.369 . S
C478 C480 1.419 . S
C478 H482 0.930 . S
C479 C478 1.369 . S
C479 C488 1.429 . S
C480 C478 1.419 . S
C480 C481 1.363 . S
C480 H483 0.929 . S
C481 C480 1.363 . S
C481 C487 1.428 . S
H482 C478 0.930 . S
H483 C480 0.929 . S
S484 N485 1.613 1_554 S
S484 N486 1.610 . S
N485 S484 1.613 1_556 S
N485 C488 1.350 . S
N486 S484 1.610 . S
N486 C487 1.351 1_554 S
C487 C481 1.428 . S
C487 N486 1.351 1_556 S
C487 C488 1.434 . S
C488 C479 1.429 . S
C488 N485 1.350 . S
C488 C487 1.434 . S
C489 C490 1.369 . S
C489 C491 1.419 . S
C489 H493 0.930 . S
C490 C489 1.369 . S
C490 C499 1.429 . S
C491 C489 1.419 . S
C491 C492 1.363 . S
C491 H494 0.929 . S
C492 C491 1.363 . S
C492 C498 1.428 . S
H493 C489 0.930 . S
H494 C491 0.929 . S
S495 N496 1.613 . S
S495 N497 1.610 . S
N496 S495 1.613 . S
N496 C499 1.350 . S
N497 S495 1.610 . S
N497 C498 1.351 . S
C498 C492 1.428 . S
C498 N497 1.351 . S
C498 C499 1.434 . S
C499 C490 1.429 . S
C499 N496 1.350 . S
C499 C498 1.434 . S
C500 C501 1.369 . S
C500 C502 1.419 . S
C500 H504 0.930 . S
C501 C500 1.369 . S
C501 C510 1.429 . S
C502 C500 1.419 . S
C502 C503 1.363 . S
C502 H505 0.929 . S
C503 C502 1.363 . S
C503 C509 1.428 . S
H504 C500 0.930 . S
H505 C502 0.929 . S
S506 N507 1.613 . S
S506 N508 1.610 . S
N507 S506 1.613 . S
N507 C510 1.350 . S
N508 S506 1.610 . S
N508 C509 1.351 . S
C509 C503 1.428 . S
C509 N508 1.351 . S
C509 C510 1.434 . S
C510 C501 1.429 . S
C510 N507 1.350 . S
C510 C509 1.434 . S
C511 C512 1.369 . S
C511 C513 1.419 . S
C511 H515 0.930 . S
C512 C511 1.369 . S
C512 C521 1.429 . S
C513 C511 1.419 . S
C513 C514 1.363 . S
C513 H516 0.929 . S
C514 C513 1.363 . S
C514 C520 1.428 . S
H515 C511 0.930 . S
H516 C513 0.929 . S
S517 N518 1.613 . S
S517 N519 1.610 . S
N518 S517 1.613 . S
N518 C521 1.350 . S
N519 S517 1.610 . S
N519 C520 1.351 . S
C520 C514 1.428 . S
C520 N519 1.351 . S
C520 C521 1.434 . S
C521 C512 1.429 . S
C521 N518 1.350 . S
C521 C520 1.434 . S
C522 C523 1.369 . S
C522 C524 1.419 . S
C522 H526 0.930 . S
C523 C522 1.369 . S
C523 C532 1.429 . S
C524 C522 1.419 . S
C524 C525 1.363 . S
C524 H527 0.929 . S
C525 C524 1.363 . S
C525 C531 1.428 . S
H526 C522 0.930 . S
H527 C524 0.929 . S
S528 N529 1.613 1_556 S
S528 N530 1.610 1_556 S
N529 S528 1.613 1_554 S
N529 C532 1.350 . S
N530 S528 1.610 1_554 S
N530 C531 1.351 . S
C531 C525 1.428 . S
C531 N530 1.351 . S
C531 C532 1.434 . S
C532 C523 1.429 . S
C532 N529 1.350 . S
C532 C531 1.434 . S
C533 C534 1.369 . S
C533 C535 1.419 . S
C533 H537 0.930 . S
C534 C533 1.369 . S
C534 C543 1.429 . S
C535 C533 1.419 . S
C535 C536 1.363 . S
C535 H538 0.929 . S
C536 C535 1.363 . S
C536 C542 1.428 . S
H537 C533 0.930 . S
H538 C535 0.929 . S
S539 N540 1.613 . S
S539 N541 1.610 . S
N540 S539 1.613 . S
N540 C543 1.350 . S
N541 S539 1.610 . S
N541 C542 1.351 . S
C542 C536 1.428 . S
C542 N541 1.351 . S
C542 C543 1.434 . S
C543 C534 1.429 . S
C543 N540 1.350 . S
C543 C542 1.434 . S
C544 C545 1.369 . S
C544 C546 1.419 . S
C544 H548 0.930 . S
C545 C544 1.369 . S
C545 C554 1.429 . S
C546 C544 1.419 . S
C546 C547 1.363 . S
C546 H549 0.929 . S
C547 C546 1.363 . S
C547 C553 1.428 . S
H548 C544 0.930 . S
H549 C546 0.929 . S
S550 N551 1.613 . S
S550 N552 1.610 . S
N551 S550 1.613 . S
N551 C554 1.350 . S
N552 S550 1.610 . S
N552 C553 1.351 . S
C553 C547 1.428 . S
C553 N552 1.351 . S
C553 C554 1.434 . S
C554 C545 1.429 . S
C554 N551 1.350 . S
C554 C553 1.434 . S
C555 C556 1.369 . S
C555 C557 1.419 . S
C555 H559 0.930 . S
C556 C555 1.369 . S
C556 C565 1.429 . S
C557 C555 1.419 . S
C557 C558 1.363 . S
C557 H560 0.929 1_554 S
C558 C557 1.363 . S
C558 C564 1.428 . S
H559 C555 0.930 . S
H560 C557 0.929 1_556 S
S561 N562 1.613 . S
S561 N563 1.610 . S
N562 S561 1.613 . S
N562 C565 1.350 . S
N563 S561 1.610 . S
N563 C564 1.351 . S
C564 C558 1.428 . S
C564 N563 1.351 . S
C564 C565 1.434 . S
C565 C556 1.429 . S
C565 N562 1.350 . S
C565 C564 1.434 . S
C566 C567 1.369 . S
C566 C568 1.419 . S
C566 H570 0.930 . S
C567 C566 1.369 . S
C567 C576 1.429 . S
C568 C566 1.419 . S
C568 C569 1.363 . S
C568 H571 0.929 . S
C569 C568 1.363 . S
C569 C575 1.428 . S
H570 C566 0.930 . S
H571 C568 0.929 . S
S572 N573 1.613 . S
S572 N574 1.610 . S
N573 S572 1.613 . S
N573 C576 1.350 . S
N574 S572 1.610 . S
N574 C575 1.351 . S
C575 C569 1.428 . S
C575 N574 1.351 . S
C575 C576 1.434 . S
C576 C567 1.429 . S
C576 N573 1.350 . S
C576 C575 1.434 . S
C577 C578 1.369 . S
C577 C579 1.419 . S
C577 H581 0.930 . S
C578 C577 1.369 . S
C578 C587 1.429 . S
C579 C577 1.419 . S
C579 C580 1.363 . S
C579 H582 0.929 . S
C580 C579 1.363 . S
C580 C586 1.428 . S
H581 C577 0.930 . S
H582 C579 0.929 . S
S583 N584 1.613 . S
S583 N585 1.610 . S
N584 S583 1.613 . S
N584 C587 1.350 . S
N585 S583 1.610 . S
N585 C586 1.351 . S
C586 C580 1.428 . S
C586 N585 1.351 . S
C586 C587 1.434 . S
C587 C578 1.429 . S
C587 N584 1.350 . S
C587 C586 1.434 . S
C588 C589 1.369 . S
C588 C590 1.419 . S
C588 H592 0.930 . S
C589 C588 1.369 . S
C589 C598 1.429 . S
C590 C588 1.419 . S
C590 C591 1.363 . S
C590 H593 0.929 . S
C591 C590 1.363 . S
C591 C597 1.428 . S
H592 C588 0.930 . S
H593 C590 0.929 . S
S594 N595 1.613 . S
S594 N596 1.610 . S
N595 S594 1.613 . S
N595 C598 1.350 . S
N596 S594 1.610 . S
N596 C597 1.351 . S
C597 C591 1.428 . S
C597 N596 1.351 . S
C597 C598 1.434 . S
C598 C589 1.429 . S
C598 N595 1.350 . S
C598 C597 1.434 . S
C599 C600 1.369 1_554 S
C599 C601 1.419 1_554 S
C599 H603 0.930 . S
C600 C599 1.369 1_556 S
C600 C609 1.429 . S
C601 C599 1.419 1_556 S
C601 C602 1.363 . S
C601 H604 0.929 1_556 S
C602 C601 1.363 . S
C602 C608 1.428 . S
H603 C599 0.930 . S
H604 C601 0.929 1_554 S
S605 N606 1.613 . S
S605 N607 1.610 . S
N606 S605 1.613 . S
N606 C609 1.350 . S
N607 S605 1.610 . S
N607 C608 1.351 . S
C608 C602 1.428 . S
C608 N607 1.351 . S
C608 C609 1.434 . S
C609 C600 1.429 . S
C609 N606 1.350 . S
C609 C608 1.434 . S
C610 C611 1.369 . S
C610 C612 1.419 . S
C610 H614 0.930 . S
C611 C610 1.369 . S
C611 C620 1.429 . S
C612 C610 1.419 . S
C612 C613 1.363 . S
C612 H615 0.929 . S
C613 C612 1.363 . S
C613 C619 1.428 . S
H614 C610 0.930 . S
H615 C612 0.929 . S
S616 N617 1.613 . S
S616 N618 1.610 . S
N617 S616 1.613 . S
N617 C620 1.350 . S
N618 S616 1.610 . S
N618 C619 1.351 . S
C619 C613 1.428 . S
C619 N618 1.351 . S
C619 C620 1.434 . S
C620 C611 1.429 . S
C620 N617 1.350 . S
C620 C619 1.434 . S
C621 C622 1.369 . S
C621 C623 1.419 . S
C621 H625 0.930 . S
C622 C621 1.369 . S
C622 C631 1.429 . S
C623 C621 1.419 . S
C623 C624 1.363 . S
C623 H626 0.929 . S
C624 C623 1.363 . S
C624 C630 1.428 . S
H625 C621 0.930 . S
H626 C623 0.929 . S
S627 N628 1.613 . S
S627 N629 1.610 . S
N628 S627 1.613 . S
N628 C631 1.350 . S
N629 S627 1.610 . S
N629 C630 1.351 . S
C630 C624 1.428 . S
C630 N629 1.351 . S
C630 C631 1.434 . S
C631 C622 1.429 . S
C631 N628 1.350 . S
C631 C630 1.434 . S
C632 C633 1.369 . S
C632 C634 1.419 . S
C632 H636 0.930 . S
C633 C632 1.369 . S
C633 C642 1.429 . S
C634 C632 1.419 . S
C634 C635 1.363 . S
C634 H637 0.929 . S
C635 C634 1.363 . S
C635 C641 1.428 . S
H636 C632 0.930 . S
H637 C634 0.929 . S
S638 N639 1.613 . S
S638 N640 1.610 . S
N639 S638 1.613 . S
N639 C642 1.350 . S
N640 S638 1.610 . S
N640 C641 1.351 . S
C641 C635 1.428 . S
C641 N640 1.351 . S
C641 C642 1.434 . S
C642 C633 1.429 . S
C642 N639 1.350 . S
C642 C641 1.434 . S
C643 C644 1.369 . S
C643 C645 1.419 . S
C643 H647 0.930 . S
C644 C643 1.369 . S
C644 C653 1.429 . S
C645 C643 1.419 . S
C645 C646 1.363 . S
C645 H648 0.929 . S
C646 C645 1.363 . S
C646 C652 1.428 . S
H647 C643 0.930 . S
H648 C645 0.929 . S
S649 N650 1.613 . S
S649 N651 1.610 . S
N650 S649 1.613 . S
N650 C653 1.350 . S
N651 S649 1.610 . S
N651 C652 1.351 . S
C652 C646 1.428 . S
C652 N651 1.351 . S
C652 C653 1.434 . S
C653 C644 1.429 . S
C653 N650 1.350 . S
C653 C652 1.434 . S
C654 C655 1.369 . S
C654 C656 1.419 . S
C654 H658 0.930 . S
C655 C654 1.369 . S
C655 C664 1.429 . S
C656 C654 1.419 . S
C656 C657 1.363 . S
C656 H659 0.929 . S
C657 C656 1.363 . S
C657 C663 1.428 . S
H658 C654 0.930 . S
H659 C656 0.929 . S
S660 N661 1.613 . S
S660 N662 1.610 . S
N661 S660 1.613 . S
N661 C664 1.350 . S
N662 S660 1.610 . S
N662 C663 1.351 . S
C663 C657 1.428 . S
C663 N662 1.351 . S
C663 C664 1.434 . S
C664 C655 1.429 . S
C664 N661 1.350 . S
C664 C663 1.434 . S
C665 C666 1.369 . S
C665 C667 1.419 . S
C665 H669 0.930 . S
C666 C665 1.369 . S
C666 C675 1.429 . S
C667 C665 1.419 . S
C667 C668 1.363 . S
C667 H670 0.929 . S
C668 C667 1.363 . S
C668 C674 1.428 . S
H669 C665 0.930 . S
H670 C667 0.929 . S
S671 N672 1.613 . S
S671 N673 1.610 1_556 S
N672 S671 1.613 . S
N672 C675 1.350 1_556 S
N673 S671 1.610 1_554 S
N673 C674 1.351 . S
C674 C668 1.428 . S
C674 N673 1.351 . S
C674 C675 1.434 . S
C675 C666 1.429 . S
C675 N672 1.350 1_554 S
C675 C674 1.434 . S
C676 C677 1.369 . S
C676 C678 1.419 . S
C676 H680 0.930 . S
C677 C676 1.369 . S
C677 C686 1.429 . S
C678 C676 1.419 . S
C678 C679 1.363 . S
C678 H681 0.929 . S
C679 C678 1.363 . S
C679 C685 1.428 . S
H680 C676 0.930 . S
H681 C678 0.929 . S
S682 N683 1.613 . S
S682 N684 1.610 . S
N683 S682 1.613 . S
N683 C686 1.350 . S
N684 S682 1.610 . S
N684 C685 1.351 . S
C685 C679 1.428 . S
C685 N684 1.351 . S
C685 C686 1.434 . S
C686 C677 1.429 . S
C686 N683 1.350 . S
C686 C685 1.434 . S
C687 C688 1.369 . S
C687 C689 1.419 . S
C687 H691 0.930 . S
C688 C687 1.369 . S
C688 C697 1.429 . S
C689 C687 1.419 . S
C689 C690 1.363 . S
C689 H692 0.929 . S
C690 C689 1.363 . S
C690 C696 1.428 . S
H691 C687 0.930 . S
H692 C689 0.929 . S
S693 N694 1.613 . S
S693 N695 1.610 . S
N694 S693 1.613 . S
N694 C697 1.350 . S
N695 S693 1.610 . S
N695 C696 1.351 . S
C696 C690 1.428 . S
C696 N695 1.351 . S
C696 C697 1.434 . S
C697 C688 1.429 . S
C697 N694 1.350 . S
C697 C696 1.434 . S
C698 C699 1.369 . S
C698 C700 1.419 . S
C698 H702 0.930 . S
C699 C698 1.369 . S
C699 C708 1.429 . S
C700 C698 1.419 . S
C700 C701 1.363 . S
C700 H703 0.929 . S
C701 C700 1.363 . S
C701 C707 1.428 . S
H702 C698 0.930 . S
H703 C700 0.929 . S
S704 N705 1.613 . S
S704 N706 1.610 . S
N705 S704 1.613 . S
N705 C708 1.350 . S
N706 S704 1.610 . S
N706 C707 1.351 . S
C707 C701 1.428 . S
C707 N706 1.351 . S
C707 C708 1.434 . S
C708 C699 1.429 . S
C708 N705 1.350 . S
C708 C707 1.434 . S
C709 C710 1.369 . S
C709 C711 1.419 1_556 S
C709 H713 0.930 1_556 S
C710 C709 1.369 . S
C710 C719 1.429 . S
C711 C709 1.419 1_554 S
C711 C712 1.363 1_554 S
C711 H714 0.929 . S
C712 C711 1.363 1_556 S
C712 C718 1.428 . S
H713 C709 0.930 1_554 S
H714 C711 0.929 . S
S715 N716 1.613 . S
S715 N717 1.610 . S
N716 S715 1.613 . S
N716 C719 1.350 . S
N717 S715 1.610 . S
N717 C718 1.351 . S
C718 C712 1.428 . S
C718 N717 1.351 . S
C718 C719 1.434 . S
C719 C710 1.429 . S
C719 N716 1.350 . S
C719 C718 1.434 . S
C720 C721 1.369 . S
C720 C722 1.419 . S
C720 H724 0.930 . S
C721 C720 1.369 . S
C721 C730 1.429 . S
C722 C720 1.419 . S
C722 C723 1.363 . S
C722 H725 0.929 . S
C723 C722 1.363 . S
C723 C729 1.428 . S
H724 C720 0.930 . S
H725 C722 0.929 . S
S726 N727 1.613 . S
S726 N728 1.610 . S
N727 S726 1.613 . S
N727 C730 1.350 . S
N728 S726 1.610 . S
N728 C729 1.351 . S
C729 C723 1.428 . S
C729 N728 1.351 . S
C729 C730 1.434 . S
C730 C721 1.429 . S
C730 N727 1.350 . S
C730 C729 1.434 . S
C731 C732 1.369 . S
C731 C733 1.419 . S
C731 H735 0.930 . S
C732 C731 1.369 . S
C732 C741 1.429 . S
C733 C731 1.419 . S
C733 C734 1.363 . S
C733 H736 0.929 . S
C734 C733 1.363 . S
C734 C740 1.428 . S
H735 C731 0.930 . S
H736 C733 0.929 . S
S737 N738 1.613 . S
S737 N739 1.610 . S
N738 S737 1.613 . S
N738 C741 1.350 . S
N739 S737 1.610 . S
N739 C740 1.351 . S
C740 C734 1.428 . S
C740 N739 1.351 . S
C740 C741 1.434 . S
C741 C732 1.429 . S
C741 N738 1.350 . S
C741 C740 1.434 . S
C742 C743 1.369 . S
C742 C744 1.419 . S
C742 H746 0.930 . S
C743 C742 1.369 . S
C743 C752 1.429 . S
C744 C742 1.419 . S
C744 C745 1.363 . S
C744 H747 0.929 . S
C745 C744 1.363 . S
C745 C751 1.428 . S
H746 C742 0.930 . S
H747 C744 0.929 . S
S748 N749 1.613 . S
S748 N750 1.610 . S
N749 S748 1.613 . S
N749 C752 1.350 . S
N750 S748 1.610 . S
N750 C751 1.351 . S
C751 C745 1.428 . S
C751 N750 1.351 . S
C751 C752 1.434 . S
C752 C743 1.429 . S
C752 N749 1.350 . S
C752 C751 1.434 . S
C753 C754 1.383 . S
C753 C755 1.391 1_454 S
C753 H757 0.930 . S
C754 C753 1.383 . S
C754 C763 1.429 . S
C755 C753 1.391 1_656 S
C755 C756 1.370 . S
C755 H758 0.937 . S
C756 C755 1.370 . S
C756 C762 1.427 1_556 S
H757 C753 0.930 . S
H758 C755 0.937 . S
S759 N760 1.613 . S
S759 N761 1.610 1_554 S
N760 S759 1.613 . S
N760 C763 1.350 . S
N761 S759 1.610 1_556 S
N761 C762 1.351 1_456 S
C762 C756 1.427 1_554 S
C762 N761 1.351 1_654 S
C762 C763 1.435 1_655 S
C763 C754 1.429 . S
C763 N760 1.350 . S
C763 C762 1.435 1_455 S
C764 C765 1.369 . S
C764 C766 1.419 . S
C764 H768 0.930 . S
C765 C764 1.369 . S
C765 C774 1.429 . S
C766 C764 1.419 . S
C766 C767 1.363 . S
C766 H769 0.929 . S
C767 C766 1.363 . S
C767 C773 1.428 . S
H768 C764 0.930 . S
H769 C766 0.929 . S
S770 N771 1.613 . S
S770 N772 1.610 . S
N771 S770 1.613 . S
N771 C774 1.350 . S
N772 S770 1.610 . S
N772 C773 1.351 . S
C773 C767 1.428 . S
C773 N772 1.351 . S
C773 C774 1.434 . S
C774 C765 1.429 . S
C774 N771 1.350 . S
C774 C773 1.434 . S
C775 C776 1.369 . S
C775 C777 1.419 . S
C775 H779 0.930 . S
C776 C775 1.369 . S
C776 C785 1.429 . S
C777 C775 1.419 . S
C777 C778 1.363 . S
C777 H780 0.929 . S
C778 C777 1.363 . S
C778 C784 1.428 . S
H779 C775 0.930 . S
H780 C777 0.929 . S
S781 N782 1.613 . S
S781 N783 1.610 . S
N782 S781 1.613 . S
N782 C785 1.350 . S
N783 S781 1.610 . S
N783 C784 1.351 . S
C784 C778 1.428 . S
C784 N783 1.351 . S
C784 C785 1.434 . S
C785 C776 1.429 . S
C785 N782 1.350 . S
C785 C784 1.434 . S
C786 C787 1.369 1_565 S
C786 C788 1.419 1_456 S
C786 H790 0.930 . S
C787 C786 1.369 1_545 S
C787 C796 1.429 1_556 S
C788 C786 1.419 1_654 S
C788 C789 1.363 . S
C788 H791 0.929 . S
C789 C788 1.363 . S
C789 C795 1.428 1_565 S
H790 C786 0.930 . S
H791 C788 0.929 . S
S792 N793 1.610 1_554 S
S792 N794 1.610 1_455 S
N793 S792 1.610 1_556 S
N793 C796 1.349 1_556 S
N794 S792 1.610 1_655 S
N794 C795 1.351 . S
C795 C789 1.428 1_545 S
C795 N794 1.351 . S
C795 C796 1.434 1_655 S
C796 C787 1.429 1_554 S
C796 N793 1.349 1_554 S
C796 C795 1.434 1_455 S
C797 C798 1.369 . S
C797 C799 1.419 . S
C797 H801 0.930 . S
C798 C797 1.369 . S
C798 C807 1.429 1_545 S
C799 C797 1.419 . S
C799 C800 1.363 1_545 S
C799 H802 0.929 . S
C800 C799 1.363 1_565 S
C800 C806 1.428 . S
H801 C797 0.930 . S
H802 C799 0.929 . S
S803 N804 1.613 . S
S803 N805 1.610 . S
N804 S803 1.613 . S
N804 C807 1.350 . S
N805 S803 1.610 . S
N805 C806 1.351 . S
C806 C800 1.428 . S
C806 N805 1.351 . S
C806 C807 1.434 . S
C807 C798 1.429 1_565 S
C807 N804 1.350 . S
C807 C806 1.434 . S
C808 C809 1.369 . S
C808 C810 1.419 . S
C808 H812 0.930 . S
C809 C808 1.369 . S
C809 C818 1.429 . S
C810 C808 1.419 . S
C810 C811 1.363 . S
C810 H813 0.929 . S
C811 C810 1.363 . S
C811 C817 1.428 . S
H812 C808 0.930 . S
H813 C810 0.929 . S
S814 N815 1.613 . S
S814 N816 1.610 . S
N815 S814 1.613 . S
N815 C818 1.350 . S
N816 S814 1.610 . S
N816 C817 1.351 . S
C817 C811 1.428 . S
C817 N816 1.351 . S
C817 C818 1.434 . S
C818 C809 1.429 . S
C818 N815 1.350 . S
C818 C817 1.434 . S
C819 C820 1.369 . S
C819 C821 1.419 1_556 S
C819 H823 0.930 . S
C820 C819 1.369 . S
C820 C829 1.429 1_556 S
C821 C819 1.419 1_554 S
C821 C822 1.363 . S
C821 H824 0.929 . S
C822 C821 1.363 . S
C822 C828 1.428 . S
H823 C819 0.930 . S
H824 C821 0.929 . S
S825 N826 1.613 1_554 S
S825 N827 1.610 . S
N826 S825 1.613 1_556 S
N826 C829 1.350 1_556 S
N827 S825 1.610 . S
N827 C828 1.351 . S
C828 C822 1.428 . S
C828 N827 1.351 . S
C828 C829 1.434 . S
C829 C820 1.429 1_554 S
C829 N826 1.350 1_554 S
C829 C828 1.434 . S
C830 C831 1.369 . S
C830 C832 1.419 . S
C830 H834 0.930 . S
C831 C830 1.369 . S
C831 C840 1.429 . S
C832 C830 1.419 . S
C832 C833 1.363 . S
C832 H835 0.929 . S
C833 C832 1.363 . S
C833 C839 1.428 . S
H834 C830 0.930 . S
H835 C832 0.929 . S
S836 N837 1.613 . S
S836 N838 1.610 . S
N837 S836 1.613 . S
N837 C840 1.350 . S
N838 S836 1.610 . S
N838 C839 1.351 . S
C839 C833 1.428 . S
C839 N838 1.351 . S
C839 C840 1.434 . S
C840 C831 1.429 . S
C840 N837 1.350 . S
C840 C839 1.434 . S
C841 C842 1.370 1_455 S
C841 C843 1.419 . S
C841 H845 0.930 . S
C842 C841 1.370 1_655 S
C842 C851 1.428 . S
C843 C841 1.419 . S
C843 C844 1.359 1_455 S
C843 H846 0.929 . S
C844 C843 1.359 1_655 S
C844 C850 1.433 . S
H845 C841 0.930 . S
H846 C843 0.929 . S
S847 N848 1.613 . S
S847 N849 1.610 . S
N848 S847 1.613 . S
N848 C851 1.350 . S
N849 S847 1.610 . S
N849 C850 1.351 . S
C850 C844 1.433 . S
C850 N849 1.351 . S
C850 C851 1.434 . S
C851 C842 1.428 . S
C851 N848 1.350 . S
C851 C850 1.434 . S
C852 C853 1.369 . S
C852 C854 1.419 . S
C852 H856 0.930 . S
C853 C852 1.369 . S
C853 C862 1.429 . S
C854 C852 1.419 . S
C854 C855 1.363 . S
C854 H857 0.929 . S
C855 C854 1.363 . S
C855 C861 1.428 . S
H856 C852 0.930 . S
H857 C854 0.929 . S
S858 N859 1.613 . S
S858 N860 1.610 . S
N859 S858 1.613 . S
N859 C862 1.350 . S
N860 S858 1.610 . S
N860 C861 1.351 . S
C861 C855 1.428 . S
C861 N860 1.351 . S
C861 C862 1.434 . S
C862 C853 1.429 . S
C862 N859 1.350 . S
C862 C861 1.434 . S
C863 C864 1.369 . S
C863 C865 1.419 . S
C863 H867 0.930 . S
C864 C863 1.369 . S
C864 C873 1.429 . S
C865 C863 1.419 . S
C865 C866 1.363 . S
C865 H868 0.929 . S
C866 C865 1.363 . S
C866 C872 1.428 . S
H867 C863 0.930 . S
H868 C865 0.929 . S
S869 N870 1.613 . S
S869 N871 1.610 . S
N870 S869 1.613 . S
N870 C873 1.350 . S
N871 S869 1.610 . S
N871 C872 1.351 . S
C872 C866 1.428 . S
C872 N871 1.351 . S
C872 C873 1.434 . S
C873 C864 1.429 . S
C873 N870 1.350 . S
C873 C872 1.434 . S
C874 C875 1.368 1_545 S
C874 C876 1.419 . S
C874 H878 0.930 . S
C875 C874 1.368 1_565 S
C875 C884 1.430 1_655 S
C876 C874 1.419 . S
C876 C877 1.361 1_655 S
C876 H879 0.929 . S
C877 C876 1.361 1_455 S
C877 C883 1.430 1_545 S
H878 C874 0.930 . S
H879 C876 0.929 . S
S880 N881 1.613 . S
S880 N882 1.610 . S
N881 S880 1.613 . S
N881 C884 1.350 . S
N882 S880 1.610 . S
N882 C883 1.351 . S
C883 C877 1.430 1_565 S
C883 N882 1.351 . S
C883 C884 1.434 . S
C884 C875 1.430 1_455 S
C884 N881 1.350 . S
C884 C883 1.434 . S
C885 C886 1.369 1_565 S
C885 C887 1.419 1_556 S
C885 H889 0.930 . S
C886 C885 1.369 1_545 S
C886 C895 1.429 1_556 S
C887 C885 1.419 1_554 S
C887 C888 1.363 . S
C887 H890 0.929 . S
C888 C887 1.363 . S
C888 C894 1.428 1_565 S
H889 C885 0.930 . S
H890 C887 0.929 . S
S891 N892 1.613 . S
S891 N893 1.610 . S
N892 S891 1.613 . S
N892 C895 1.350 . S
N893 S891 1.610 . S
N893 C894 1.351 . S
C894 C888 1.428 1_545 S
C894 N893 1.351 . S
C894 C895 1.434 . S
C895 C886 1.429 1_554 S
C895 N892 1.350 . S
C895 C894 1.434 . S
C369 C21 1.751 . S
C371 C224 1.675 . S
C380 C247 1.675 . S
C382 C44 1.750 . S
C391 C270 1.676 . S
C393 C67 1.751 . S
C402 C201 1.682 . S
C404 C90 1.750 . S
C413 C113 1.749 . S
C415 C316 1.682 . S
C424 C136 1.751 . S
C426 C339 1.675 . S
C435 C362 1.683 . S
C437 C159 1.749 . S
C446 C293 1.682 . S
C448 C182 1.750 . S
C457 C40 1.682 . S
C459 C205 1.750 . S
C468 C63 1.683 . S
C470 C228 1.749 . S
C479 C86 1.681 . S
C481 C251 1.749 . S
C490 C274 1.751 . S
C492 C17 1.675 . S
C501 C132 1.676 . S
C503 C297 1.751 . S
C512 C155 1.682 . S
C514 C320 1.749 . S
C523 C178 1.683 . S
C525 C343 1.749 . S
C534 C109 1.683 . S
C536 C366 1.749 . S
C545 C19 1.590 . S
C547 C363 1.613 . S
C556 C42 1.584 . S
C558 C110 1.617 . S
C567 C317 1.614 . S
C569 C65 1.587 . S
C578 C156 1.618 . S
C580 C88 1.583 . S
C589 C111 1.581 . S
C591 C271 1.618 . S
C600 C18 1.615 1_556 S
C602 C134 1.586 . S
C611 C157 1.585 . S
C613 C225 1.616 . S
C622 C180 1.582 . S
C624 C64 1.618 . S
C633 C203 1.582 . S
C635 C179 1.618 . S
C644 C294 1.612 . S
C646 C226 1.589 . S
C655 C249 1.589 . S
C657 C133 1.613 . S
C666 C340 1.615 . S
C668 C272 1.586 . S
C677 C295 1.582 . S
C679 C87 1.617 . S
C688 C202 1.616 . S
C690 C318 1.585 . S
C699 C341 1.586 . S
C701 C41 1.615 . S
C710 C364 1.585 . S
C712 C248 1.616 1_556 S
C721 C20 1.543 . S
C723 C296 1.541 . S
C732 C135 1.541 . S
C734 C43 1.542 . S
C743 C66 1.541 . S
C745 C342 1.542 . S
C754 C181 1.543 . S
C756 C89 1.541 . S
C765 C112 1.542 . S
C767 C204 1.542 . S
C776 C250 1.542 . S
C778 C158 1.542 . S
C787 C227 1.541 . S
C789 C319 1.542 . S
C798 C365 1.542 . S
C800 C273 1.542 . S
C809 C292 1.021 . S
C811 C16 1.009 . S
C820 C131 1.015 . S
C822 C39 1.013 . S
C831 C62 1.020 . S
C833 C338 1.010 . S
C842 C177 1.015 1_655 S
C844 C85 1.017 . S
C853 C108 1.022 . S
C855 C200 1.008 . S
C864 C154 1.007 . S
C866 C246 1.019 . S
C875 C315 1.011 . S
C877 C223 1.017 . S
C886 C361 1.009 . S
C888 C269 1.018 . S
